# Generated by pormake.
# Topology ant, (3,6)-cn, num edge types: 1
# Building blocks:
#     Node 0, Type 0, BuildingBlock: VETTIZ_charged_linker_0, # of connection points: 3
#     Node 1, Type 0, BuildingBlock: VETTIZ_charged_linker_0, # of connection points: 3
#     Node 2, Type 0, BuildingBlock: VETTIZ_charged_linker_0, # of connection points: 3
#     Node 3, Type 0, BuildingBlock: VETTIZ_charged_linker_0, # of connection points: 3
#     Node 4, Type 0, BuildingBlock: VETTIZ_charged_linker_0, # of connection points: 3
#     Node 5, Type 0, BuildingBlock: VETTIZ_charged_linker_0, # of connection points: 3
#     Node 6, Type 0, BuildingBlock: VETTIZ_charged_linker_0, # of connection points: 3
#     Node 7, Type 0, BuildingBlock: VETTIZ_charged_linker_0, # of connection points: 3
#     Node 8, Type 1, BuildingBlock: MIDCAF_clean_sbu_0, # of connection points: 6
#     Node 9, Type 1, BuildingBlock: MIDCAF_clean_sbu_0, # of connection points: 6
#     Node 10, Type 1, BuildingBlock: MIDCAF_clean_sbu_0, # of connection points: 6
#     Node 11, Type 1, BuildingBlock: MIDCAF_clean_sbu_0, # of connection points: 6
#     Edge 12, Type (0, 1), BuildingBlock: EZIPEK_clean_linker_0, # of connection points: 2
#     Edge 13, Type (0, 1), BuildingBlock: EZIPEK_clean_linker_0, # of connection points: 2
#     Edge 14, Type (0, 1), BuildingBlock: EZIPEK_clean_linker_0, # of connection points: 2
#     Edge 15, Type (0, 1), BuildingBlock: EZIPEK_clean_linker_0, # of connection points: 2
#     Edge 16, Type (0, 1), BuildingBlock: EZIPEK_clean_linker_0, # of connection points: 2
#     Edge 17, Type (0, 1), BuildingBlock: EZIPEK_clean_linker_0, # of connection points: 2
#     Edge 18, Type (0, 1), BuildingBlock: EZIPEK_clean_linker_0, # of connection points: 2
#     Edge 19, Type (0, 1), BuildingBlock: EZIPEK_clean_linker_0, # of connection points: 2
#     Edge 20, Type (0, 1), BuildingBlock: EZIPEK_clean_linker_0, # of connection points: 2
#     Edge 21, Type (0, 1), BuildingBlock: EZIPEK_clean_linker_0, # of connection points: 2
#     Edge 22, Type (0, 1), BuildingBlock: EZIPEK_clean_linker_0, # of connection points: 2
#     Edge 23, Type (0, 1), BuildingBlock: EZIPEK_clean_linker_0, # of connection points: 2
#     Edge 24, Type (0, 1), BuildingBlock: EZIPEK_clean_linker_0, # of connection points: 2
#     Edge 25, Type (0, 1), BuildingBlock: EZIPEK_clean_linker_0, # of connection points: 2
#     Edge 26, Type (0, 1), BuildingBlock: EZIPEK_clean_linker_0, # of connection points: 2
#     Edge 27, Type (0, 1), BuildingBlock: EZIPEK_clean_linker_0, # of connection points: 2
#     Edge 28, Type (0, 1), BuildingBlock: EZIPEK_clean_linker_0, # of connection points: 2
#     Edge 29, Type (0, 1), BuildingBlock: EZIPEK_clean_linker_0, # of connection points: 2
#     Edge 30, Type (0, 1), BuildingBlock: EZIPEK_clean_linker_0, # of connection points: 2
#     Edge 31, Type (0, 1), BuildingBlock: EZIPEK_clean_linker_0, # of connection points: 2
#     Edge 32, Type (0, 1), BuildingBlock: EZIPEK_clean_linker_0, # of connection points: 2
#     Edge 33, Type (0, 1), BuildingBlock: EZIPEK_clean_linker_0, # of connection points: 2
#     Edge 34, Type (0, 1), BuildingBlock: EZIPEK_clean_linker_0, # of connection points: 2
#     Edge 35, Type (0, 1), BuildingBlock: EZIPEK_clean_linker_0, # of connection points: 2
# Relax obj value: 0.106
# Max RMSD: 0.161
# Mean RMSD: 0.107
data_MOF--net-ant--node1-MIDCAF_clean_sbu_0--node2-VETTIZ_charged_linker_0--edge1-EZIPEK_clean_linker_0
_symmetry_space_group_name_H-M    P1
_symmetry_Int_Tables_number       1
_symmetry_cell_setting            triclinic
loop_
_symmetry_equiv_pos_as_xyz
'x, y, z'
_cell_length_a     26.266516
_cell_length_b     26.177402
_cell_length_c     73.384276
_cell_angle_alpha  89.957579
_cell_angle_beta   94.031648
_cell_angle_gamma 90.217201
loop_
_atom_site_label
_atom_site_type_symbol
_atom_site_fract_x
_atom_site_fract_y
_atom_site_fract_z
_atom_type_partial_charge
C0 C 0.26552 0.11763 0.10337 0.0
C1 C 0.26311 0.06543 0.09874 0.0
C2 C 0.2544 0.0511 0.08033 0.0
C3 C 0.24253 0.1395 0.07166 0.0
C4 C 0.25483 0.15412 0.08954 0.0
C5 C 0.25112 0.21127 0.09187 0.0
H6 H 0.18663 0.44246 0.05443 0.0
C7 C 0.2275 0.18534 0.06097 0.0
C8 C 0.23303 0.2279 0.07259 0.0
H9 H 0.24536 0.41129 0.10966 0.0
H10 H 0.25106 0.32095 0.10268 0.0
H11 H 0.26226 0.37 0.03482 0.0
H12 H 0.11023 0.34538 0.05138 0.0
H13 H 0.11294 0.31838 0.02958 0.0
H14 H 0.12385 0.38594 0.03259 0.0
H15 H 0.20719 0.39609 0.02233 0.0
H16 H 0.23031 0.33288 0.01766 0.0
C17 C 0.30508 0.23204 0.09763 0.0
C18 C 0.21079 0.2223 0.10575 0.0
C19 C 0.15485 0.16433 -0.00466 0.0
C20 C 0.13887 0.19973 0.9818 0.0
C21 C 0.13949 0.25221 0.98598 0.0
C22 C 0.15656 0.26948 0.0034 0.0
C23 C 0.17334 0.23385 0.0168 0.0
C24 C 0.17266 0.18232 0.01263 0.0
C25 C 0.19405 0.15031 0.02832 0.0
C26 C 0.20696 0.19108 0.04267 0.0
C27 C 0.1942 0.23979 0.03591 0.0
C28 C 0.24246 0.12281 0.02236 0.0
C29 C 0.15102 0.11405 0.0339 0.0
C30 C 0.20082 0.41595 0.06492 0.0
C31 C 0.21573 0.43338 0.08255 0.0
C32 C 0.23385 0.3982 0.09598 0.0
C33 C 0.23711 0.34597 0.09189 0.0
C34 C 0.22179 0.3288 0.07418 0.0
C35 C 0.20409 0.3637 0.06106 0.0
C36 C 0.18904 0.33876 0.04305 0.0
C37 C 0.20095 0.28323 0.04742 0.0
C38 C 0.2201 0.27741 0.06569 0.0
C39 C 0.22352 0.36057 0.02858 0.0
C40 C 0.13111 0.34762 0.03872 0.0
H41 H 0.23631 0.07412 0.05312 0.0
H42 H 0.27219 0.12937 0.11748 0.0
H43 H 0.17751 0.19607 0.10349 0.0
H44 H 0.19477 0.26111 0.10444 0.0
H45 H 0.22703 0.21674 0.12 0.0
H46 H 0.33466 0.21102 0.09053 0.0
H47 H 0.31403 0.2276 0.11256 0.0
H48 H 0.31013 0.27246 0.09383 0.0
H49 H 0.15481 0.1238 0.99236 0.0
H50 H 0.12717 0.27992 0.97563 0.0
H51 H 0.15635 0.30994 0.00569 0.0
H52 H 0.26006 0.14376 0.01117 0.0
H53 H 0.23338 0.08358 0.01733 0.0
H54 H 0.27314 0.12087 0.03348 0.0
H55 H 0.11402 0.13467 0.03375 0.0
H56 H 0.15743 0.09892 0.04789 0.0
H57 H 0.14595 0.08142 0.02426 0.0
H58 H 0.25269 0.01105 0.07658 0.0
C59 C 0.24433 0.08778 0.06678 0.0
C60 C 0.2011 0.80843 0.33807 0.0
C61 C 0.24951 0.80331 0.33112 0.0
C62 C 0.25326 0.80264 0.31209 0.0
C63 C 0.16162 0.80715 0.3071 0.0
C64 C 0.1575 0.80904 0.32577 0.0
C65 C 0.10245 0.80752 0.33046 0.0
H66 H 0.85298 0.77609 0.30087 0.0
C67 C 0.10991 0.80444 0.29802 0.0
C68 C 0.07474 0.80434 0.31153 0.0
H69 H 0.91544 0.79489 0.35643 0.0
H70 H 1.00044 0.80577 0.34588 0.0
H71 H 0.91781 0.86645 0.28418 0.0
H72 H 0.9401 0.70393 0.28786 0.0
H73 H 0.95571 0.72288 0.26598 0.0
H74 H 0.89179 0.73261 0.27267 0.0
H75 H 0.88164 0.82241 0.26965 0.0
H76 H 0.94242 0.84733 0.26363 0.0
C77 C 0.09063 0.85786 0.34031 0.0
C78 C 0.09451 0.75875 0.3419 0.0
C79 C 0.0905 0.78605 0.22933 0.0
C80 C 0.04843 0.77781 0.2169 0.0
C81 C 0.99889 0.77781 0.22302 0.0
C82 C 0.9917 0.78466 0.24163 0.0
C83 C 0.0346 0.7911 0.25409 0.0
C84 C 0.08284 0.79237 0.24776 0.0
C85 C 0.1242 0.79785 0.26278 0.0
C86 C 0.09294 0.80005 0.27932 0.0
C87 C 0.04069 0.79584 0.27419 0.0
C88 C 0.15258 0.8489 0.25981 0.0
C89 C 0.15836 0.74944 0.26277 0.0
C90 C 0.88512 0.78263 0.31068 0.0
C91 C 0.87831 0.78449 0.3294 0.0
C92 C 0.92052 0.79324 0.34192 0.0
C93 C 0.96955 0.7994 0.33577 0.0
C94 C 0.97611 0.7965 0.31695 0.0
C95 C 0.93407 0.78896 0.30477 0.0
C96 C 0.94769 0.78761 0.28529 0.0
C97 C 1.00494 0.795 0.28773 0.0
C98 C 0.02168 0.79976 0.3063 0.0
C99 C 0.9209 0.83296 0.275 0.0
C100 C 0.93291 0.73425 0.27736 0.0
H101 H 0.21567 0.80392 0.28581 0.0
H102 H 0.19726 0.80929 0.35266 0.0
H103 H 0.11593 0.72606 0.33655 0.0
H104 H 0.05444 0.74586 0.34137 0.0
H105 H 0.10839 0.76459 0.3564 0.0
H106 H 0.10991 0.89076 0.33405 0.0
H107 H 0.10423 0.85627 0.35498 0.0
H108 H 0.04962 0.86739 0.33918 0.0
H109 H 0.12894 0.78582 0.22483 0.0
H110 H 0.96613 0.77138 0.21353 0.0
H111 H 0.95319 0.78355 0.24564 0.0
H112 H 0.12532 0.87917 0.25488 0.0
H113 H 0.1811 0.84453 0.24944 0.0
H114 H 0.1718 0.86442 0.2725 0.0
H115 H 0.1374 0.71612 0.25647 0.0
H116 H 0.17073 0.73624 0.27671 0.0
H117 H 0.19254 0.75598 0.25498 0.0
H118 H 0.29014 0.79902 0.30646 0.0
C119 C 0.20985 0.80513 0.3001 0.0
C120 C 0.77784 0.60225 0.59596 0.0
C121 C 0.77035 0.5502 0.59141 0.0
C122 C 0.74113 0.53743 0.57523 0.0
C123 C 0.72877 0.62661 0.56795 0.0
C124 C 0.75559 0.63988 0.58416 0.0
C125 C 0.755 0.69709 0.58715 0.0
H126 H 0.68453 0.93272 0.55407 0.0
C127 C 0.71169 0.67362 0.55838 0.0
C128 C 0.72612 0.71547 0.56957 0.0
H129 H 0.75665 0.89736 0.60716 0.0
H130 H 0.75853 0.80718 0.59927 0.0
H131 H 0.75247 0.85993 0.5318 0.0
H132 H 0.60476 0.8387 0.55245 0.0
H133 H 0.60177 0.81531 0.52992 0.0
H134 H 0.61685 0.88159 0.53413 0.0
H135 H 0.69572 0.8847 0.52002 0.0
H136 H 0.71817 0.82091 0.51583 0.0
C137 C 0.81065 0.71674 0.58878 0.0
C138 C 0.72517 0.70788 0.60418 0.0
C139 C 0.63403 0.65995 0.49319 0.0
C140 C 0.62114 0.69691 0.47985 0.0
C141 C 0.62291 0.74899 0.48462 0.0
C142 C 0.63926 0.76431 0.50236 0.0
C143 C 0.65435 0.72713 0.51544 0.0
C144 C 0.65129 0.67596 0.51078 0.0
C145 C 0.67125 0.64201 0.52614 0.0
C146 C 0.68747 0.68127 0.54069 0.0
C147 C 0.67707 0.73093 0.53441 0.0
C148 C 0.71741 0.6122 0.51949 0.0
C149 C 0.62658 0.60791 0.53188 0.0
C150 C 0.70074 0.90538 0.56391 0.0
C151 C 0.72038 0.92158 0.5812 0.0
C152 C 0.74127 0.88526 0.59376 0.0
C153 C 0.74207 0.8331 0.58919 0.0
C154 C 0.72135 0.81713 0.57192 0.0
C155 C 0.70136 0.85323 0.55962 0.0
C156 C 0.68077 0.82973 0.54195 0.0
C157 C 0.69002 0.77348 0.54582 0.0
C158 C 0.71425 0.76601 0.56334 0.0
C159 C 0.71296 0.84988 0.52649 0.0
C160 C 0.62306 0.84203 0.53928 0.0
H161 H 0.6992 0.56234 0.55141 0.0
H162 H 0.79969 0.61318 0.60841 0.0
H163 H 0.69334 0.68006 0.60517 0.0
H164 H 0.70664 0.74568 0.6037 0.0
H165 H 0.75041 0.70481 0.61692 0.0
H166 H 0.83258 0.70004 0.57782 0.0
H167 H 0.83004 0.70581 0.60215 0.0
H168 H 0.81341 0.75855 0.58723 0.0
H169 H 0.63282 0.6197 0.48976 0.0
H170 H 0.61267 0.77788 0.47445 0.0
H171 H 0.6404 0.80456 0.50508 0.0
H172 H 0.74132 0.63744 0.51133 0.0
H173 H 0.70446 0.5795 0.51068 0.0
H174 H 0.74365 0.59784 0.5307 0.0
H175 H 0.58884 0.62575 0.52822 0.0
H176 H 0.62741 0.60234 0.54686 0.0
H177 H 0.62663 0.57002 0.52507 0.0
H178 H 0.73431 0.49774 0.57157 0.0
C179 C 0.7206 0.57506 0.56352 0.0
C180 C 0.70805 0.3107 0.84234 0.0
C181 C 0.75727 0.31156 0.83589 0.0
C182 C 0.76279 0.31698 0.81708 0.0
C183 C 0.671 0.31399 0.81106 0.0
C184 C 0.6654 0.31172 0.82964 0.0
C185 C 0.61011 0.30694 0.83377 0.0
H186 H 0.36201 0.27743 0.80215 0.0
C187 C 0.61992 0.30896 0.80142 0.0
C188 C 0.58385 0.30532 0.8146 0.0
H189 H 0.42232 0.28946 0.85821 0.0
H190 H 0.50809 0.29936 0.84837 0.0
H191 H 0.43185 0.36695 0.78594 0.0
H192 H 0.44641 0.20375 0.78982 0.0
H193 H 0.47112 0.22102 0.76911 0.0
H194 H 0.40496 0.23363 0.77253 0.0
H195 H 0.39189 0.32329 0.77254 0.0
H196 H 0.45219 0.34491 0.76501 0.0
C197 C 0.59556 0.35526 0.84435 0.0
C198 C 0.60331 0.25621 0.84422 0.0
C199 C 0.6055 0.28633 0.73272 0.0
C200 C 0.56443 0.27501 0.72014 0.0
C201 C 0.51451 0.27387 0.7259 0.0
C202 C 0.50593 0.2824 0.74431 0.0
C203 C 0.54783 0.29167 0.75697 0.0
C204 C 0.59648 0.29424 0.751 0.0
C205 C 0.63664 0.30275 0.7663 0.0
C206 C 0.60424 0.3042 0.78259 0.0
C207 C 0.5524 0.29758 0.77704 0.0
C208 C 0.66287 0.35487 0.76317 0.0
C209 C 0.6731 0.25615 0.76697 0.0
C210 C 0.39393 0.28223 0.8122 0.0
C211 C 0.38623 0.28266 0.83088 0.0
C212 C 0.4281 0.28892 0.84373 0.0
C213 C 0.47758 0.29477 0.83799 0.0
C214 C 0.48503 0.29409 0.81921 0.0
C215 C 0.4435 0.28792 0.80669 0.0
C216 C 0.45849 0.28717 0.78734 0.0
C217 C 0.51572 0.29492 0.79026 0.0
C218 C 0.53126 0.29879 0.80894 0.0
C219 C 0.43214 0.33264 0.777 0.0
C220 C 0.44438 0.23394 0.7791 0.0
H221 H 0.7268 0.32129 0.79044 0.0
H222 H 0.70308 0.30642 0.85679 0.0
H223 H 0.62657 0.22537 0.83854 0.0
H224 H 0.56375 0.24168 0.843 0.0
H225 H 0.61573 0.26045 0.85892 0.0
H226 H 0.61519 0.38966 0.83927 0.0
H227 H 0.60675 0.35145 0.85917 0.0
H228 H 0.55447 0.36419 0.8425 0.0
H229 H 0.6442 0.28726 0.72848 0.0
H230 H 0.48257 0.26492 0.71629 0.0
H231 H 0.4672 0.28026 0.74803 0.0
H232 H 0.63582 0.38229 0.75613 0.0
H233 H 0.69573 0.3505 0.75457 0.0
H234 H 0.67589 0.37412 0.77608 0.0
H235 H 0.65161 0.22022 0.76368 0.0
H236 H 0.69231 0.24937 0.78059 0.0
H237 H 0.70251 0.26035 0.7569 0.0
H238 H 0.80049 0.31784 0.81196 0.0
C239 C 0.71997 0.31853 0.80464 0.0
C240 C 0.04849 0.88787 0.89787 0.0
C241 C 0.06122 0.93236 0.90795 0.0
C242 C 0.07203 0.92907 0.92694 0.0
C243 C 0.05661 0.83782 0.92578 0.0
C244 C 0.04615 0.84099 0.90708 0.0
C245 C 0.03338 0.78946 0.89869 0.0
H246 H 0.98603 0.53772 0.91238 0.0
C247 C 0.04932 0.78431 0.93135 0.0
C248 C 0.03438 0.75584 0.91563 0.0
H249 H 0.01535 0.6107 0.8615 0.0
H250 H 0.01744 0.69381 0.87648 0.0
H251 H 0.07482 0.57546 0.92845 0.0
H252 H 0.92581 0.63546 0.93541 0.0
H253 H 0.9599 0.62939 0.95699 0.0
H254 H 0.94865 0.5737 0.94283 0.0
H255 H 0.03828 0.55334 0.94652 0.0
H256 H 0.08192 0.60684 0.94923 0.0
C257 C 0.07594 0.77492 0.88604 0.0
C258 C 0.97956 0.79176 0.88879 0.0
C259 C 0.09711 0.72987 -0.00339 0.0
C260 C 0.09593 0.68235 0.00546 0.0
C261 C 0.07198 0.64049 -0.0036 0.0
C262 C 0.04981 0.6459 0.97859 0.0
C263 C 0.05399 0.69288 0.96946 0.0
C264 C 0.0763 0.73421 0.97862 0.0
C265 C 0.07673 0.78126 0.96685 0.0
C266 C 0.05442 0.76024 0.94871 0.0
C267 C 0.0411 0.70866 0.95037 0.0
C268 C 0.13288 0.79876 0.96582 0.0
C269 C 0.04154 0.82179 0.97485 0.0
C270 C 0.99011 0.572 0.90429 0.0
C271 C 0.99965 0.56806 0.88578 0.0
C272 C 0.00723 0.61303 0.87574 0.0
C273 C 0.00975 0.66087 0.88457 0.0
C274 C 0.00698 0.66308 0.90368 0.0
C275 C 0.99738 0.6188 0.91318 0.0
C276 C 0.00824 0.62471 0.93344 0.0
C277 C 0.02404 0.68027 0.93466 0.0
C278 C 0.02188 0.70319 0.9173 0.0
C279 C 0.05266 0.58819 0.93989 0.0
C280 C 0.95816 0.61509 0.9428 0.0
H281 H 0.07818 0.88201 0.95041 0.0
H282 H 0.04025 0.88977 0.88321 0.0
H283 H 0.95182 0.8081 0.89795 0.0
H284 H 0.96485 0.75371 0.88457 0.0
H285 H 0.97961 0.81623 0.87642 0.0
H286 H 0.11239 0.79513 0.89001 0.0
H287 H 0.06497 0.7849 0.87159 0.0
H288 H 0.08571 0.73386 0.88693 0.0
H289 H 0.11495 0.76266 0.00348 0.0
H290 H 0.07041 0.60377 0.00317 0.0
H291 H 0.03112 0.61302 0.9725 0.0
H292 H 0.15783 0.76542 0.96357 0.0
H293 H 0.14733 0.81764 0.97872 0.0
H294 H 0.13837 0.82514 0.9544 0.0
H295 H 0.01301 0.80397 0.98343 0.0
H296 H 0.01838 0.84259 0.96407 0.0
H297 H 0.0639 0.84976 0.98356 0.0
H298 H 0.08187 0.96314 0.93482 0.0
C299 C 0.06964 0.88208 0.93592 0.0
C300 C 0.85076 0.7945 0.14677 0.0
C301 C 0.89699 0.78323 0.15678 0.0
C302 C 0.89712 0.77354 0.17562 0.0
C303 C 0.80638 0.79014 0.17464 0.0
C304 C 0.80581 0.79772 0.15597 0.0
C305 C 0.75282 0.80943 0.1477 0.0
H306 H 0.50209 0.83933 0.16238 0.0
C307 C 0.75513 0.80156 0.18042 0.0
C308 C 0.72359 0.81409 0.1648 0.0
H309 H 0.5679 0.80882 0.1114 0.0
H310 H 0.6534 0.81976 0.12612 0.0
H311 H 0.58006 0.76208 0.18731 0.0
H312 H 0.56289 0.92083 0.17889 0.0
H313 H 0.61621 0.91956 0.19523 0.0
H314 H 0.55514 0.89484 0.20092 0.0
H315 H 0.52719 0.80387 0.19063 0.0
H316 H 0.57796 0.79927 0.20769 0.0
C317 C 0.73408 0.76353 0.13558 0.0
C318 C 0.75378 0.86062 0.13724 0.0
C319 C 0.70549 0.77165 0.24533 0.0
C320 C 0.66506 0.79159 0.25483 0.0
C321 C 0.63666 0.83299 0.24708 0.0
C322 C 0.64224 0.84795 0.22903 0.0
C323 C 0.67734 0.82215 0.219 0.0
C324 C 0.71246 0.78984 0.22767 0.0
C325 C 0.75646 0.78 0.21596 0.0
C326 C 0.73618 0.80453 0.19799 0.0
C327 C 0.68822 0.82624 0.19983 0.0
C328 C 0.76385 0.72185 0.21391 0.0
C329 C 0.80454 0.80791 0.22468 0.0
C330 C 0.53511 0.83644 0.1544 0.0
C331 C 0.52879 0.82348 0.13585 0.0
C332 C 0.57218 0.8192 0.12571 0.0
C333 C 0.62152 0.82451 0.13433 0.0
C334 C 0.62729 0.83276 0.15332 0.0
C335 C 0.5844 0.83978 0.16297 0.0
C336 C 0.5971 0.8436 0.18325 0.0
C337 C 0.65469 0.83556 0.18419 0.0
C338 C 0.67213 0.82908 0.16667 0.0
C339 C 0.56924 0.79983 0.19278 0.0
C340 C 0.58216 0.89736 0.18996 0.0
H341 H 0.85407 0.76927 0.199 0.0
H342 H 0.84997 0.80133 0.13219 0.0
H343 H 0.77345 0.89057 0.14591 0.0
H344 H 0.71501 0.87496 0.13335 0.0
H345 H 0.77445 0.85663 0.12463 0.0
H346 H 0.7574 0.7287 0.13851 0.0
H347 H 0.736 0.77226 0.12083 0.0
H348 H 0.69457 0.75191 0.13808 0.0
H349 H 0.73003 0.74202 0.25128 0.0
H350 H 0.60744 0.85105 0.25453 0.0
H351 H 0.61887 0.8782 0.22326 0.0
H352 H 0.72715 0.70312 0.20925 0.0
H353 H 0.77771 0.70448 0.22714 0.0
H354 H 0.79167 0.71275 0.20377 0.0
H355 H 0.79568 0.83296 0.23628 0.0
H356 H 0.82191 0.83355 0.21476 0.0
H357 H 0.83392 0.7804 0.23014 0.0
H358 H 0.93248 0.76406 0.18331 0.0
C359 C 0.85199 0.77701 0.18464 0.0
C360 C 0.55195 0.37165 0.40141 0.0
C361 C 0.56236 0.41675 0.41153 0.0
C362 C 0.57152 0.41375 0.4306 0.0
C363 C 0.55779 0.32218 0.4295 0.0
C364 C 0.54958 0.3247 0.41069 0.0
C365 C 0.53944 0.27235 0.40241 0.0
H366 H 0.46694 0.02656 0.41732 0.0
C367 C 0.54975 0.26888 0.43523 0.0
C368 C 0.53715 0.23952 0.4195 0.0
H369 H 0.52495 0.08563 0.36784 0.0
H370 H 0.53179 0.17042 0.38139 0.0
H371 H 0.57396 0.07254 0.43433 0.0
H372 H 0.41761 0.11897 0.43806 0.0
H373 H 0.44907 0.12508 0.45996 0.0
H374 H 0.44287 0.0628 0.44944 0.0
H375 H 0.52919 0.03484 0.44622 0.0
H376 H 0.56647 0.08557 0.457 0.0
C377 C 0.58532 0.25786 0.39132 0.0
C378 C 0.48806 0.27278 0.39085 0.0
C379 C 0.58887 0.21584 0.50112 0.0
C380 C 0.58465 0.16875 0.51011 0.0
C381 C 0.55742 0.12849 0.50127 0.0
C382 C 0.53583 0.13469 0.48342 0.0
C383 C 0.5444 0.18041 0.47397 0.0
C384 C 0.56875 0.22077 0.48306 0.0
C385 C 0.57211 0.26724 0.47109 0.0
C386 C 0.55091 0.24608 0.45281 0.0
C387 C 0.53478 0.19539 0.45463 0.0
C388 C 0.62894 0.28289 0.47067 0.0
C389 C 0.53748 0.30942 0.4784 0.0
C390 C 0.47994 0.05789 0.40916 0.0
C391 C 0.49457 0.04901 0.39138 0.0
C392 C 0.51255 0.09105 0.38147 0.0
C393 C 0.51763 0.14 0.38947 0.0
C394 C 0.50823 0.14628 0.40798 0.0
C395 C 0.49166 0.1047 0.41761 0.0
C396 C 0.50112 0.11161 0.43787 0.0
C397 C 0.51948 0.16636 0.4389 0.0
C398 C 0.52269 0.1873 0.42136 0.0
C399 C 0.54435 0.07405 0.44441 0.0
C400 C 0.45023 0.10395 0.44695 0.0
H401 H 0.57634 0.36708 0.45417 0.0
H402 H 0.54542 0.37318 0.38668 0.0
H403 H 0.45704 0.28648 0.39916 0.0
H404 H 0.47704 0.23444 0.38567 0.0
H405 H 0.48996 0.29854 0.37888 0.0
H406 H 0.62103 0.27707 0.3968 0.0
H407 H 0.5786 0.26918 0.37676 0.0
H408 H 0.59404 0.21661 0.39213 0.0
H409 H 0.60889 0.24757 0.50789 0.0
H410 H 0.55325 0.09226 0.50816 0.0
H411 H 0.5146 0.10302 0.47749 0.0
H412 H 0.65292 0.2488 0.46846 0.0
H413 H 0.64309 0.30085 0.48378 0.0
H414 H 0.63596 0.30969 0.45951 0.0
H415 H 0.5092 0.29356 0.48752 0.0
H416 H 0.51411 0.32861 0.46726 0.0
H417 H 0.56028 0.33863 0.48638 0.0
H418 H 0.57988 0.44806 0.43852 0.0
C419 C 0.56912 0.36682 0.43963 0.0
C420 C 0.36698 0.29931 0.6544 0.0
C421 C 0.41566 0.30318 0.66369 0.0
C422 C 0.4198 0.31244 0.68259 0.0
C423 C 0.32773 0.31467 0.68287 0.0
C424 C 0.32339 0.30582 0.66425 0.0
C425 C 0.26817 0.30531 0.65677 0.0
H426 H 0.02065 0.35891 0.67233 0.0
C427 C 0.27634 0.32374 0.68895 0.0
C428 C 0.24109 0.32054 0.67363 0.0
H429 H 0.07315 0.27818 0.62605 0.0
H430 H 0.16146 0.291 0.63783 0.0
H431 H 0.06174 0.29857 0.69686 0.0
H432 H 0.12187 0.44121 0.68219 0.0
H433 H 0.12904 0.43488 0.70625 0.0
H434 H 0.06669 0.42759 0.69456 0.0
H435 H 0.06082 0.34997 0.7125 0.0
H436 H 0.11188 0.30361 0.71364 0.0
C437 C 0.25422 0.2502 0.65056 0.0
C438 C 0.26075 0.34531 0.64136 0.0
C439 C 0.24181 0.32174 0.75588 0.0
C440 C 0.19566 0.32827 0.76424 0.0
C441 C 0.1551 0.35429 0.75483 0.0
C442 C 0.15791 0.36794 0.73656 0.0
C443 C 0.20076 0.35355 0.72751 0.0
C444 C 0.24339 0.3346 0.73732 0.0
C445 C 0.28692 0.32667 0.72528 0.0
C446 C 0.25972 0.33539 0.70643 0.0
C447 C 0.20914 0.35053 0.70796 0.0
C448 C 0.30674 0.27131 0.72761 0.0
C449 C 0.32841 0.36783 0.73019 0.0
C450 C 0.05124 0.34529 0.66445 0.0
C451 C 0.03993 0.31805 0.64819 0.0
C452 C 0.08083 0.29966 0.63856 0.0
C453 C 0.13189 0.30627 0.64559 0.0
C454 C 0.14201 0.32943 0.66281 0.0
C455 C 0.1016 0.34774 0.67199 0.0
C456 C 0.1169 0.36147 0.69147 0.0
C457 C 0.17351 0.34928 0.69247 0.0
C458 C 0.1887 0.33233 0.67551 0.0
C459 C 0.08648 0.32709 0.70433 0.0
C460 C 0.10799 0.41936 0.69388 0.0
H461 H 0.38148 0.32511 0.70659 0.0
H462 H 0.36319 0.29251 0.63982 0.0
H463 H 0.27649 0.38293 0.64606 0.0
H464 H 0.22017 0.35133 0.63698 0.0
H465 H 0.28074 0.33351 0.62921 0.0
H466 H 0.27644 0.22151 0.65897 0.0
H467 H 0.2624 0.24403 0.63607 0.0
H468 H 0.21386 0.24062 0.65231 0.0
H469 H 0.27414 0.30378 0.76324 0.0
H470 H 0.12008 0.36155 0.76135 0.0
H471 H 0.12581 0.38709 0.72992 0.0
H472 H 0.27457 0.24358 0.72587 0.0
H473 H 0.32612 0.26564 0.74141 0.0
H474 H 0.33426 0.26127 0.7175 0.0
H475 H 0.31555 0.39696 0.73988 0.0
H476 H 0.3385 0.38963 0.71796 0.0
H477 H 0.36368 0.35054 0.73675 0.0
H478 H 0.45707 0.31612 0.68977 0.0
C479 C 0.37609 0.3181 0.69223 0.0
Zn480 Zn 0.24354 0.69719 0.14168 0.0
Zn481 Zn 0.14966 0.81015 0.09482 0.0
Zn482 Zn 0.20273 0.75678 0.11674 0.0
C483 C 0.1774 0.73238 0.07442 0.0
C484 C 0.2248 0.87211 0.1148 0.0
O485 O 0.15836 0.75292 0.14084 0.0
O486 O 0.20494 0.71547 0.16326 0.0
C487 C 0.21536 0.6368 0.11127 0.0
O488 O 0.18801 0.71595 0.09075 0.0
O489 O 0.16781 0.77904 0.07164 0.0
O490 O 0.18279 0.87236 0.1053 0.0
O491 O 0.24768 0.82922 0.11807 0.0
O492 O 0.2253 0.63248 0.1283 0.0
O493 O 0.20879 0.68122 0.10394 0.0
O494 O 0.28234 0.78633 0.11971 0.0
O495 O 0.31281 0.72399 0.13728 0.0
C496 C 0.32087 0.76041 0.1265 0.0
O497 O 0.12749 0.77472 0.12709 0.0
O498 O 0.07932 0.79789 0.10261 0.0
C499 C 0.16484 0.73868 0.15761 0.0
C500 C 0.08347 0.78615 0.11931 0.0
Zn501 Zn 0.51772 0.66266 0.34251 0.0
Zn502 Zn 0.6173 0.78574 0.3814 0.0
Zn503 Zn 0.56644 0.73005 0.36311 0.0
C504 C 0.54182 0.84667 0.36887 0.0
C505 C 0.68268 0.7592 0.35839 0.0
O506 O 0.56572 0.65403 0.37738 0.0
O507 O 0.53451 0.59935 0.35641 0.0
C508 C 0.44891 0.74051 0.35252 0.0
O509 O 0.52196 0.80152 0.36754 0.0
O510 O 0.58948 0.85107 0.37162 0.0
O511 O 0.68655 0.77018 0.37512 0.0
O512 O 0.63875 0.74801 0.35038 0.0
O513 O 0.45045 0.69626 0.34568 0.0
O514 O 0.49006 0.76255 0.35906 0.0
O515 O 0.60315 0.7293 0.33683 0.0
O516 O 0.55251 0.67765 0.31989 0.0
C517 C 0.58928 0.70898 0.32125 0.0
O518 O 0.58215 0.69179 0.38958 0.0
O519 O 0.59825 0.76197 0.40561 0.0
C520 C 0.554 0.60796 0.3723 0.0
C521 C 0.58926 0.71464 0.40507 0.0
Zn522 Zn 0.6592 0.30882 0.59581 0.0
Zn523 Zn 0.7526 0.179 0.64309 0.0
Zn524 Zn 0.7124 0.24556 0.61846 0.0
C525 C 0.82857 0.25276 0.63468 0.0
C526 C 0.72542 0.12317 0.61171 0.0
O527 O 0.63839 0.269 0.62906 0.0
O528 O 0.59472 0.3156 0.60826 0.0
C529 C 0.75232 0.35681 0.60792 0.0
O530 O 0.79102 0.27498 0.62559 0.0
O531 O 0.82162 0.21043 0.64246 0.0
O532 O 0.73871 0.11633 0.62839 0.0
O533 O 0.71621 0.16857 0.60545 0.0
O534 O 0.7103 0.36383 0.59886 0.0
O535 O 0.76252 0.31356 0.61577 0.0
O536 O 0.69413 0.20377 0.59295 0.0
O537 O 0.65842 0.26286 0.5746 0.0
C538 C 0.67384 0.21773 0.57728 0.0
O539 O 0.6679 0.24354 0.64245 0.0
O540 O 0.70855 0.19532 0.6635 0.0
C541 C 0.59755 0.29343 0.62355 0.0
C542 C 0.67217 0.2249 0.6587 0.0
Zn543 Zn 0.02919 0.19227 0.84234 0.0
Zn544 Zn 0.13357 0.29072 0.88706 0.0
Zn545 Zn 0.07424 0.24835 0.86758 0.0
C546 C 0.09634 0.22152 0.90883 0.0
C547 C 0.06317 0.3613 0.8739 0.0
O548 O 0.11341 0.25365 0.84226 0.0
O549 O 0.06349 0.21742 0.82041 0.0
C550 C 0.05972 0.12729 0.87094 0.0
O551 O 0.0872 0.20281 0.89274 0.0
O552 O 0.10977 0.26761 0.9107 0.0
O553 O 0.11097 0.35718 0.87632 0.0
O554 O 0.03564 0.32047 0.87277 0.0
O555 O 0.04735 0.12477 0.854 0.0
O556 O 0.06825 0.17085 0.87874 0.0
O557 O 0.99731 0.28386 0.86582 0.0
O558 O 0.96261 0.22209 0.84866 0.0
C559 C 0.9573 0.26085 0.85867 0.0
O560 O 0.14922 0.26458 0.85598 0.0
O561 O 0.20207 0.26884 0.88072 0.0
C562 C 0.10261 0.24354 0.82526 0.0
C563 C 0.195 0.2667 0.86358 0.0
C564 C 0.25233 0.52237 0.08383 0.0
C565 C 0.21167 0.48845 0.08714 0.0
C566 C 0.16799 0.5563 0.10289 0.0
C567 C 0.20958 0.58958 0.10022 0.0
N568 N 0.28499 0.60945 0.08473 0.0
N569 N 0.126 0.47504 0.09592 0.0
C570 C 0.24957 0.57432 0.08944 0.0
C571 C 0.16784 0.50615 0.09542 0.0
N572 N 0.29454 0.50423 0.07609 0.0
N573 N 0.12935 0.57247 0.11302 0.0
H574 H 0.12499 0.4379 0.09075 0.0
H575 H 0.09099 0.48692 0.10017 0.0
H576 H 0.12661 0.61006 0.11757 0.0
H577 H 0.10099 0.54862 0.11748 0.0
H578 H 0.32803 0.52514 0.07518 0.0
H579 H 0.29728 0.46679 0.07141 0.0
H580 H 0.31232 0.6023 0.07546 0.0
H581 H 0.28458 0.64745 0.08897 0.0
C582 C 0.81479 0.72914 0.344 0.0
C583 C 0.82677 0.77636 0.33581 0.0
C584 C 0.73903 0.80566 0.33808 0.0
C585 C 0.72924 0.76146 0.34842 0.0
N586 N 0.75707 0.68176 0.36217 0.0
N587 N 0.80277 0.86187 0.32649 0.0
C588 C 0.76695 0.72329 0.35164 0.0
C589 C 0.78945 0.8152 0.33311 0.0
N590 N 0.84849 0.68944 0.34395 0.0
N591 N 0.70011 0.83834 0.33299 0.0
H592 H 0.83944 0.87039 0.32276 0.0
H593 H 0.77877 0.89346 0.32604 0.0
H594 H 0.66287 0.83294 0.3367 0.0
H595 H 0.70358 0.86821 0.32378 0.0
H596 H 0.83982 0.65247 0.34797 0.0
H597 H 0.88394 0.69233 0.33845 0.0
H598 H 0.78488 0.65582 0.36692 0.0
H599 H 0.7212 0.67449 0.36691 0.0
C600 C 0.82269 0.4718 0.59389 0.0
C601 C 0.79182 0.50692 0.60273 0.0
C602 C 0.76913 0.43857 0.62347 0.0
C603 C 0.78519 0.40245 0.61078 0.0
N604 N 0.83028 0.38384 0.58423 0.0
N605 N 0.74025 0.52535 0.62782 0.0
C606 C 0.81478 0.41868 0.59647 0.0
C607 C 0.76788 0.49122 0.61856 0.0
N608 N 0.85609 0.48963 0.58195 0.0
N609 N 0.75172 0.42167 0.6395 0.0
H610 H 0.73944 0.5642 0.62476 0.0
H611 H 0.71684 0.5149 0.63809 0.0
H612 H 0.7518 0.38286 0.64284 0.0
H613 H 0.74195 0.44591 0.64993 0.0
H614 H 0.88182 0.46627 0.57574 0.0
H615 H 0.86081 0.52876 0.57977 0.0
H616 H 0.8474 0.3938 0.57234 0.0
H617 H 0.82291 0.34492 0.58556 0.0
C618 C 0.83817 0.34045 0.85345 0.0
C619 C 0.8034 0.30056 0.84815 0.0
C620 C 0.86557 0.2376 0.86024 0.0
C621 C 0.90339 0.27639 0.86143 0.0
N622 N 0.91692 0.36325 0.87082 0.0
N623 N 0.78219 0.2106 0.84761 0.0
C624 C 0.88748 0.32783 0.86149 0.0
C625 C 0.81599 0.24898 0.85239 0.0
N626 N 0.82477 0.3901 0.85014 0.0
N627 N 0.87738 0.19024 0.86709 0.0
H628 H 0.74519 0.21718 0.84206 0.0
H629 H 0.79164 0.17203 0.84821 0.0
H630 H 0.91307 0.18245 0.87367 0.0
H631 H 0.85079 0.16098 0.86812 0.0
H632 H 0.85053 0.4204 0.85169 0.0
H633 H 0.78815 0.40052 0.84507 0.0
H634 H 0.90541 0.40079 0.87271 0.0
H635 H 0.94922 0.35269 0.87895 0.0
C636 C 0.99033 0.4874 0.8661 0.0
C637 C 0.01773 0.51759 0.87955 0.0
C638 C 0.06505 0.44319 0.89057 0.0
C639 C 0.04211 0.41322 0.87615 0.0
N640 N 0.99171 0.4109 0.84733 0.0
N641 N 0.09592 0.52728 0.89851 0.0
C642 C 0.00726 0.43645 0.86295 0.0
C643 C 0.06011 0.49643 0.88974 0.0
N644 N 0.94814 0.50673 0.85668 0.0
N645 N 0.09033 0.42094 0.90543 0.0
H646 H 0.09481 0.567 0.89723 0.0
H647 H 0.12926 0.51304 0.9052 0.0
H648 H 0.0915 0.38145 0.90737 0.0
H649 H 0.10454 0.44201 0.91674 0.0
H650 H 0.92414 0.48473 0.84789 0.0
H651 H 0.93578 0.54407 0.85858 0.0
H652 H 0.96975 0.4278 0.83661 0.0
H653 H 1.00372 0.37387 0.84468 0.0
C654 C 0.9712 0.83078 0.14519 0.0
C655 C 0.94593 0.7836 0.1478 0.0
C656 C 0.01528 0.7376 0.13427 0.0
C657 C 0.03753 0.78515 0.12988 0.0
N658 N 0.03628 0.87723 0.13003 0.0
N659 N 0.94094 0.6923 0.14396 0.0
C660 C 0.01539 0.83184 0.13505 0.0
C661 C 0.96737 0.73696 0.14222 0.0
N662 N 0.95372 0.87433 0.15289 0.0
N663 N 0.04008 0.69312 0.13087 0.0
H664 H 0.90615 0.69037 0.14997 0.0
H665 H 0.95148 0.65768 0.13841 0.0
H666 H 0.074 0.69196 0.12431 0.0
H667 H 0.02913 0.65755 0.13563 0.0
H668 H 0.97355 0.90885 0.15334 0.0
H669 H 0.92104 0.87518 0.16019 0.0
H670 H 0.01886 0.91249 0.13147 0.0
H671 H 0.06996 0.87958 0.12334 0.0
C672 C 0.60462 0.48263 0.39247 0.0
C673 C 0.56258 0.46773 0.40244 0.0
C674 C 0.52349 0.55202 0.3969 0.0
C675 C 0.56179 0.56402 0.38493 0.0
N676 N 0.63855 0.54169 0.37076 0.0
N677 N 0.47946 0.48591 0.41288 0.0
C678 C 0.60252 0.52966 0.38265 0.0
C679 C 0.52152 0.50203 0.40448 0.0
N680 N 0.64701 0.4524 0.3928 0.0
N681 N 0.48894 0.58848 0.40097 0.0
H682 H 0.47624 0.44944 0.41842 0.0
H683 H 0.446 0.50701 0.41308 0.0
H684 H 0.48892 0.62512 0.39537 0.0
H685 H 0.46333 0.5841 0.41107 0.0
H686 H 0.681 0.46336 0.38741 0.0
H687 H 0.64966 0.41761 0.39974 0.0
H688 H 0.66568 0.516 0.36668 0.0
H689 H 0.63989 0.57714 0.36429 0.0
C690 C 0.95928 0.31241 0.62644 0.0
C691 C 0.98571 0.30161 0.64358 0.0
C692 C 0.90537 0.27335 0.65523 0.0
C693 C 0.88043 0.27626 0.6375 0.0
N694 N 0.8889 0.28729 0.60518 0.0
N695 N 0.98516 0.2537 0.67175 0.0
C696 C 0.90863 0.29302 0.62274 0.0
C697 C 0.9591 0.27679 0.65726 0.0
N698 N 0.98171 0.3417 0.61385 0.0
N699 N 0.87788 0.26763 0.67023 0.0
H700 H 0.02481 0.25027 0.67265 0.0
H701 H 0.96709 0.23217 0.68138 0.0
H702 H 0.83805 0.26777 0.66941 0.0
H703 H 0.89476 0.26889 0.68352 0.0
H704 H 0.9621 0.35428 0.60185 0.0
H705 H 0.01822 0.35715 0.61622 0.0
H706 H 0.91004 0.29444 0.59394 0.0
H707 H 0.85327 0.27078 0.60188 0.0
C708 C 0.48674 0.34591 0.64829 0.0
C709 C 0.46286 0.30019 0.6537 0.0
C710 C 0.52784 0.24943 0.6396 0.0
C711 C 0.55318 0.29524 0.63499 0.0
N712 N 0.56379 0.38618 0.63877 0.0
N713 N 0.46613 0.209 0.65811 0.0
C714 C 0.5346 0.34329 0.64043 0.0
C715 C 0.48516 0.25207 0.65048 0.0
N716 N 0.46315 0.39182 0.65031 0.0
N717 N 0.54288 0.20363 0.63286 0.0
H718 H 0.43415 0.20935 0.66578 0.0
H719 H 0.48445 0.17378 0.65811 0.0
H720 H 0.57345 0.19992 0.62465 0.0
H721 H 0.52254 0.16976 0.63416 0.0
H722 H 0.47584 0.42582 0.64477 0.0
H723 H 0.42848 0.39544 0.6563 0.0
H724 H 0.5549 0.42144 0.64427 0.0
H725 H 0.59967 0.38547 0.63351 0.0
C726 C 0.44332 0.83417 0.11783 0.0
C727 C 0.47827 0.80334 0.12858 0.0
C728 C 0.41386 0.73579 0.12879 0.0
C729 C 0.37578 0.77162 0.12281 0.0
N730 N 0.36091 0.83825 0.10047 0.0
N731 N 0.49856 0.72201 0.14287 0.0
C732 C 0.39216 0.81622 0.11386 0.0
C733 C 0.46424 0.75302 0.13341 0.0
N734 N 0.45859 0.88092 0.11198 0.0
N735 N 0.40298 0.6847 0.12825 0.0
H736 H 0.53692 0.73166 0.14556 0.0
H737 H 0.48819 0.68775 0.14886 0.0
H738 H 0.36851 0.67051 0.12232 0.0
H739 H 0.43028 0.65647 0.13104 0.0
H740 H 0.43404 0.90711 0.10535 0.0
H741 H 0.49595 0.89422 0.11441 0.0
H742 H 0.3718 0.86885 0.09254 0.0
H743 H 0.32623 0.82187 0.0958 0.0
C744 C 0.31492 0.22852 0.84121 0.0
C745 C 0.33402 0.27762 0.83704 0.0
C746 C 0.25553 0.31751 0.84616 0.0
C747 C 0.2394 0.26924 0.85243 0.0
N748 N 0.25162 0.17866 0.85616 0.0
N749 N 0.32429 0.36905 0.83531 0.0
C750 C 0.26827 0.22454 0.84984 0.0
C751 C 0.3045 0.32219 0.83924 0.0
N752 N 0.34127 0.18591 0.83671 0.0
N753 N 0.22392 0.35874 0.84693 0.0
H754 H 0.35933 0.37374 0.82965 0.0
H755 H 0.30756 0.4036 0.83845 0.0
H756 H 0.1884 0.35681 0.8524 0.0
H757 H 0.23083 0.394 0.84103 0.0
H758 H 0.32738 0.14883 0.83773 0.0
H759 H 0.37606 0.18765 0.83069 0.0
H760 H 0.2733 0.14546 0.85669 0.0
H761 H 0.21631 0.17416 0.86168 0.0
C762 C 0.3384 0.83036 0.34027 0.0
C763 C 0.2974 0.79654 0.34299 0.0
C764 C 0.3576 0.73904 0.35958 0.0
C765 C 0.39862 0.76597 0.35241 0.0
N766 N 0.4268 0.83471 0.33357 0.0
N767 N 0.26856 0.7159 0.35491 0.0
C768 C 0.38905 0.81182 0.34252 0.0
C769 C 0.30679 0.75059 0.35298 0.0
N770 N 0.32858 0.87923 0.33462 0.0
N771 N 0.36742 0.70179 0.37237 0.0
H772 H 0.23084 0.72193 0.35013 0.0
H773 H 0.27508 0.67932 0.36016 0.0
H774 H 0.40447 0.69306 0.37749 0.0
H775 H 0.33888 0.68368 0.37918 0.0
H776 H 0.35721 0.90659 0.33363 0.0
H777 H 0.29139 0.89327 0.33282 0.0
H778 H 0.42011 0.86519 0.32458 0.0
H779 H 0.4636 0.82002 0.33366 0.0
C780 C 0.67472 0.99431 0.5952 0.0
C781 C 0.71765 0.97646 0.58639 0.0
C782 C 0.75642 0.06205 0.58875 0.0
C783 C 0.71755 0.07728 0.6 0.0
N784 N 0.63832 0.06043 0.61351 0.0
N785 N 0.79923 0.9922 0.57433 0.0
C786 C 0.67589 0.04428 0.60288 0.0
C787 C 0.75819 0.01027 0.58279 0.0
N788 N 0.63278 0.96349 0.59607 0.0
N789 N 0.79166 0.09716 0.58389 0.0
H790 H 0.80105 0.95497 0.56936 0.0
H791 H 0.83265 0.01293 0.57303 0.0
H792 H 0.7914 0.13505 0.58828 0.0
H793 H 0.81844 0.09022 0.57441 0.0
H794 H 0.59826 0.9756 0.60067 0.0
H795 H 0.63114 0.92633 0.59093 0.0
H796 H 0.6101 0.03671 0.61814 0.0
H797 H 0.63639 0.09788 0.61829 0.0
C798 C 0.21382 0.01134 0.11927 0.0
C799 C 0.26168 0.02442 0.11267 0.0
C800 C 0.29395 0.93941 0.12116 0.0
C801 C 0.24316 0.923 0.12192 0.0
N802 N 0.16194 0.94552 0.13242 0.0
N803 N 0.3505 1.00499 0.11061 0.0
C804 C 0.20554 0.96018 0.12476 0.0
C805 C 0.30323 0.99003 0.1151 0.0
N806 N 0.17524 0.04629 0.11863 0.0
N807 N 0.33236 0.90863 0.12782 0.0
H808 H 0.35807 0.04249 0.10672 0.0
H809 H 0.38117 0.97999 0.11031 0.0
H810 H 0.32453 0.87372 0.13392 0.0
H811 H 0.37028 0.92057 0.12941 0.0
H812 H 0.13767 0.03745 0.12107 0.0
H813 H 0.18062 0.08445 0.11519 0.0
H814 H 0.13376 0.97064 0.13604 0.0
H815 H 0.15668 0.9079 0.13665 0.0
C816 C 0.51899 0.95649 0.39714 0.0
C817 C 0.49888 0.99468 0.38482 0.0
C818 C 0.49952 0.93087 0.36036 0.0
C819 C 0.51213 0.89217 0.37345 0.0
N820 N 0.51732 0.8672 0.40511 0.0
N821 N 0.45614 0.01157 0.3551 0.0
C822 C 0.51435 0.90467 0.39215 0.0
C823 C 0.4844 0.97986 0.36651 0.0
N824 N 0.54845 0.96934 0.4125 0.0
N825 N 0.50517 0.92235 0.34231 0.0
H826 H 0.44187 0.04624 0.35948 0.0
H827 H 0.44239 1.00047 0.34201 0.0
H828 H 0.51878 0.88781 0.33755 0.0
H829 H 0.50047 0.95108 0.33248 0.0
H830 H 0.56614 0.9422 0.4212 0.0
H831 H 0.5619 1.00637 0.41475 0.0
H832 H 0.51716 0.87528 0.41903 0.0
H833 H 0.51453 0.82853 0.40172 0.0
C834 C 0.10418 0.99719 0.88886 0.0
C835 C 0.06199 0.98302 0.89885 0.0
C836 C 0.02377 0.06752 0.89339 0.0
C837 C 0.06304 0.07958 0.88176 0.0
N838 N 0.13975 0.05644 0.86761 0.0
N839 N 0.97864 1.00143 0.90897 0.0
C840 C 0.10306 0.04452 0.87927 0.0
C841 C 0.0211 0.01745 0.90078 0.0
N842 N 0.14592 0.96606 0.88904 0.0
N843 N 0.98903 0.10391 0.89738 0.0
H844 H 0.97513 0.96499 0.91452 0.0
H845 H 0.94516 0.02257 0.909 0.0
H846 H 0.98833 0.14038 0.89167 0.0
H847 H 0.9633 0.09945 0.90743 0.0
H848 H 0.18014 0.9764 0.8837 0.0
H849 H 0.14779 0.93094 0.89578 0.0
H850 H 0.1664 0.03041 0.86342 0.0
H851 H 0.14215 0.09209 0.86135 0.0
C852 C 0.15893 0.16921 0.95059 0.0
C853 C 0.12218 0.18336 0.96296 0.0
C854 C 0.05848 0.19748 0.93756 0.0
C855 C 0.09704 0.1898 0.92539 0.0
N856 N 0.1756 0.14956 0.91915 0.0
N857 N 0.0339 0.19369 0.96887 0.0
C858 C 0.14427 0.16837 0.93159 0.0
C859 C 0.07056 0.19114 0.9566 0.0
N860 N 0.20849 0.16089 0.95677 0.0
N861 N 0.0116 0.21395 0.93083 0.0
H862 H 0.04246 0.18882 0.98287 0.0
H863 H 0.99503 0.19633 0.96516 0.0
H864 H 1.00215 0.21666 0.91679 0.0
H865 H 0.98295 0.22581 0.93895 0.0
H866 H 0.23805 0.15636 0.94819 0.0
H867 H 0.22082 0.16113 0.97058 0.0
H868 H 0.20928 0.13 0.92273 0.0
H869 H 0.16484 0.1493 0.90518 0.0
C870 C 0.0727 0.80738 0.18676 0.0
C871 C 0.05878 0.76631 0.19784 0.0
C872 C 0.10008 0.70637 0.17814 0.0
C873 C 0.12421 0.74834 0.17004 0.0
N874 N 0.13379 0.8396 0.16637 0.0
N875 N 0.05505 0.67604 0.20379 0.0
C876 C 0.10967 0.79921 0.1739 0.0
C877 C 0.0702 0.71538 0.19317 0.0
N878 N 0.05153 0.85427 0.18906 0.0
N879 N 0.10528 0.65827 0.1713 0.0
H880 H 0.03117 0.6815 0.21439 0.0
H881 H 0.06769 0.63863 0.20257 0.0
H882 H 0.12642 0.65072 0.16009 0.0
H883 H 0.08485 0.62681 0.17557 0.0
H884 H 0.05668 0.88513 0.18041 0.0
H885 H 0.02449 0.86037 0.19859 0.0
H886 H 0.12815 0.87745 0.17005 0.0
H887 H 0.16258 0.83526 0.15743 0.0
C888 C 0.55732 0.6907 0.45305 0.0
C889 C 0.60783 0.6824 0.46055 0.0
C890 C 0.63546 0.66639 0.42989 0.0
C891 C 0.58895 0.68711 0.42255 0.0
N892 N 0.5028 0.71329 0.42612 0.0
N893 N 0.69556 0.66029 0.45636 0.0
C894 C 0.5485 0.69634 0.43384 0.0
C895 C 0.64687 0.66812 0.44909 0.0
N896 N 0.51842 0.69393 0.46441 0.0
N897 N 0.66911 0.64691 0.41838 0.0
H898 H 0.70567 0.66127 0.47034 0.0
H899 H 0.7267 0.65572 0.4485 0.0
H900 H 0.66097 0.64581 0.40426 0.0
H901 H 0.70222 0.62753 0.42285 0.0
H902 H 0.48012 0.6965 0.45982 0.0
H903 H 0.52441 0.6896 0.47854 0.0
H904 H 0.47327 0.72652 0.43358 0.0
H905 H 0.49524 0.71533 0.41198 0.0
C906 C 0.59236 0.30196 0.69003 0.0
C907 C 0.57579 0.26222 0.70123 0.0
C908 C 0.60738 0.19906 0.68031 0.0
C909 C 0.63434 0.23849 0.67185 0.0
N910 N 0.65435 0.32847 0.66909 0.0
N911 N 0.56608 0.17224 0.70721 0.0
C912 C 0.62653 0.29045 0.6765 0.0
C913 C 0.58192 0.21045 0.69623 0.0
N914 N 0.57612 0.3507 0.69268 0.0
N915 N 0.60556 0.15108 0.67297 0.0
H916 H 0.54592 0.17913 0.7187 0.0
H917 H 0.57526 0.13396 0.70547 0.0
H918 H 0.62302 0.14197 0.66105 0.0
H919 H 0.58254 0.12197 0.67756 0.0
H920 H 0.58304 0.38078 0.68388 0.0
H921 H 0.55108 0.35956 0.70265 0.0
H922 H 0.65368 0.36632 0.67342 0.0
H923 H 0.68144 0.32187 0.65967 0.0
C924 C 0.09141 0.67157 0.03941 0.0
C925 C 0.12109 0.67713 0.02409 0.0
C926 C 0.1966 0.69813 0.04416 0.0
C927 C 0.16574 0.69696 0.05913 0.0
N928 N 0.09111 0.66402 0.07235 0.0
N929 N 0.20417 0.67876 0.0121 0.0
C930 C 0.11576 0.67655 0.05719 0.0
C931 C 0.17473 0.6844 0.02659 0.0
N932 N 0.03962 0.6659 0.03703 0.0
N933 N 0.24587 0.71485 0.04673 0.0
H934 H 0.18875 0.66819 -0.00085 0.0
H935 H 0.24387 0.68012 0.01323 0.0
H936 H 0.26283 0.72251 0.05976 0.0
H937 H 0.26914 0.72239 0.03613 0.0
H938 H 0.01557 0.66778 0.0477 0.0
H939 H 0.01997 0.66293 0.02424 0.0
H940 H 0.05609 0.64508 0.07181 0.0
H941 H 0.10831 0.66775 0.08553 0.0
C942 C 0.59544 0.75451 0.27249 0.0
C943 C 0.64796 0.76675 0.27172 0.0
C944 C 0.66359 0.72908 0.30218 0.0
C945 C 0.61037 0.72789 0.30424 0.0
N946 N 0.52577 0.75251 0.29204 0.0
N947 N 0.73149 0.77274 0.28781 0.0
C948 C 0.57621 0.74437 0.2896 0.0
C949 C 0.68218 0.75589 0.28711 0.0
N950 N 0.56408 0.75053 0.25689 0.0
N951 N 0.69609 0.70267 0.31398 0.0
H952 H 0.74562 0.79588 0.27775 0.0
H953 H 0.75662 0.76794 0.2993 0.0
H954 H 0.68321 0.68089 0.32466 0.0
H955 H 0.73474 0.69846 0.31195 0.0
H956 H 0.52633 0.73804 0.25695 0.0
H957 H 0.57744 0.75325 0.24387 0.0
H958 H 0.5009 0.76845 0.2819 0.0
H959 H 0.51022 0.74929 0.30468 0.0
C960 C 0.66516 0.16546 0.53027 0.0
C961 C 0.61106 0.16185 0.52845 0.0
C962 C 0.6091 0.16295 0.56166 0.0
C963 C 0.66008 0.18044 0.56284 0.0
N964 N 0.73973 0.19247 0.54942 0.0
N965 N 0.53068 0.15539 0.5425 0.0
C966 C 0.6895 0.17857 0.54752 0.0
C967 C 0.58274 0.15845 0.5442 0.0
N968 N 0.69263 0.1572 0.51542 0.0
N969 N 0.58565 0.15331 0.57733 0.0
H970 H 0.50972 0.15298 0.52994 0.0
H971 H 0.50792 0.15859 0.55349 0.0
H972 H 0.6049 0.15731 0.59019 0.0
H973 H 0.54954 0.13682 0.57751 0.0
H974 H 0.73232 0.15595 0.51607 0.0
H975 H 0.67531 0.14706 0.50269 0.0
H976 H 0.76241 0.19771 0.53848 0.0
H977 H 0.75812 0.20019 0.56221 0.0
C978 C 0.17745 0.25097 0.78315 0.0
C979 C 0.18623 0.30449 0.78205 0.0
C980 C 0.14376 0.31777 0.81021 0.0
C981 C 0.1355 0.26422 0.81144 0.0
N982 N 0.15852 0.17931 0.80251 0.0
N983 N 0.1923 0.38592 0.79713 0.0
C984 C 0.15705 0.23059 0.79902 0.0
C985 C 0.17461 0.33679 0.7966 0.0
N986 N 0.18515 0.21996 0.76863 0.0
N987 N 0.11923 0.35079 0.82103 0.0
H988 H 0.2152 0.40038 0.78724 0.0
H989 H 0.18867 0.41023 0.80819 0.0
H990 H 0.09455 0.33896 0.83073 0.0
H991 H 0.11991 0.39028 0.81931 0.0
H992 H 0.17334 0.18193 0.76796 0.0
H993 H 0.19995 0.23284 0.75665 0.0
H994 H 0.1782 0.15355 0.79481 0.0
H995 H 0.14458 0.16335 0.81421 0.0
loop_
_geom_bond_atom_site_label_1
_geom_bond_atom_site_label_2
_geom_bond_distance
_geom_bond_site_symmetry_2
_ccdc_geom_bond_type
C0 C1 1.391 . S
C0 C4 1.391 . S
C0 H42 0.948 . S
C1 C0 1.391 . S
C1 C2 1.391 . S
C2 C1 1.391 . S
C2 H58 0.947 . S
C2 C59 1.392 . S
C3 C4 1.391 . S
C3 C7 1.397 . S
C3 C59 1.419 . S
C4 C0 1.391 . S
C4 C3 1.391 . S
C4 C5 1.399 . S
C5 C4 1.399 . S
C5 C8 1.396 . S
C5 C17 1.453 . S
C5 C18 1.684 . S
H6 C30 0.948 . S
C7 C3 1.397 . S
C7 C8 1.394 . S
C7 C26 1.723 . S
C8 C5 1.396 . S
C8 C7 1.394 . S
C8 C38 1.723 . S
H9 C32 0.947 . S
H10 C33 0.948 . S
H11 C39 0.982 . S
H12 C40 0.979 . S
H13 C40 0.980 . S
H14 C40 0.983 . S
H15 C39 0.979 . S
H16 C39 0.977 . S
C17 C5 1.453 . S
C17 H46 0.982 . S
C17 H47 0.979 . S
C17 H48 0.977 . S
C18 C5 1.684 . S
C18 H43 0.979 . S
C18 H44 0.980 . S
C18 H45 0.983 . S
C19 C20 1.391 1_554 S
C19 C24 1.391 . S
C19 H49 0.948 1_554 S
C20 C19 1.391 1_556 S
C20 C21 1.391 . S
C21 C20 1.391 . S
C21 C22 1.392 1_556 S
C21 H50 0.947 . S
C22 C21 1.392 1_554 S
C22 C23 1.419 . S
C22 H51 0.948 . S
C23 C22 1.419 . S
C23 C24 1.391 . S
C23 C27 1.397 . S
C24 C19 1.391 . S
C24 C23 1.391 . S
C24 C25 1.399 . S
C25 C24 1.399 . S
C25 C26 1.396 . S
C25 C28 1.453 . S
C25 C29 1.684 . S
C26 C7 1.723 . S
C26 C25 1.396 . S
C26 C27 1.394 . S
C27 C23 1.397 . S
C27 C26 1.394 . S
C27 C37 1.723 . S
C28 C25 1.453 . S
C28 H52 0.982 . S
C28 H53 0.979 . S
C28 H54 0.977 . S
C29 C25 1.684 . S
C29 H55 0.979 . S
C29 H56 0.980 . S
C29 H57 0.983 . S
C30 H6 0.948 . S
C30 C31 1.391 . S
C30 C35 1.391 . S
C31 C30 1.391 . S
C31 C32 1.391 . S
C32 H9 0.947 . S
C32 C31 1.391 . S
C32 C33 1.392 . S
C33 H10 0.948 . S
C33 C32 1.392 . S
C33 C34 1.419 . S
C34 C33 1.419 . S
C34 C35 1.391 . S
C34 C38 1.397 . S
C35 C30 1.391 . S
C35 C34 1.391 . S
C35 C36 1.399 . S
C36 C35 1.399 . S
C36 C37 1.396 . S
C36 C39 1.453 . S
C36 C40 1.684 . S
C37 C27 1.723 . S
C37 C36 1.396 . S
C37 C38 1.394 . S
C38 C8 1.723 . S
C38 C34 1.397 . S
C38 C37 1.394 . S
C39 H11 0.982 . S
C39 H15 0.979 . S
C39 H16 0.977 . S
C39 C36 1.453 . S
C40 H12 0.979 . S
C40 H13 0.980 . S
C40 H14 0.983 . S
C40 C36 1.684 . S
H41 C59 0.948 . S
H42 C0 0.948 . S
H43 C18 0.979 . S
H44 C18 0.980 . S
H45 C18 0.983 . S
H46 C17 0.982 . S
H47 C17 0.979 . S
H48 C17 0.977 . S
H49 C19 0.948 1_556 S
H50 C21 0.947 . S
H51 C22 0.948 . S
H52 C28 0.982 . S
H53 C28 0.979 . S
H54 C28 0.977 . S
H55 C29 0.979 . S
H56 C29 0.980 . S
H57 C29 0.983 . S
H58 C2 0.947 . S
C59 C2 1.392 . S
C59 C3 1.419 . S
C59 H41 0.948 . S
C60 C61 1.391 . S
C60 C64 1.391 . S
C60 H102 0.948 . S
C61 C60 1.391 . S
C61 C62 1.391 . S
C62 C61 1.391 . S
C62 H118 0.947 . S
C62 C119 1.392 . S
C63 C64 1.391 . S
C63 C67 1.397 . S
C63 C119 1.419 . S
C64 C60 1.391 . S
C64 C63 1.391 . S
C64 C65 1.399 . S
C65 C64 1.399 . S
C65 C68 1.396 . S
C65 C77 1.453 . S
C65 C78 1.684 . S
H66 C90 0.948 . S
C67 C63 1.397 . S
C67 C68 1.394 . S
C67 C86 1.723 . S
C68 C65 1.396 . S
C68 C67 1.394 . S
C68 C98 1.723 . S
H69 C92 0.947 . S
H70 C93 0.948 . S
H71 C99 0.982 . S
H72 C100 0.979 . S
H73 C100 0.980 . S
H74 C100 0.983 . S
H75 C99 0.979 . S
H76 C99 0.977 . S
C77 C65 1.453 . S
C77 H106 0.982 . S
C77 H107 0.979 . S
C77 H108 0.977 . S
C78 C65 1.684 . S
C78 H103 0.979 . S
C78 H104 0.980 . S
C78 H105 0.983 . S
C79 C80 1.391 . S
C79 C84 1.391 . S
C79 H109 0.948 . S
C80 C79 1.391 . S
C80 C81 1.391 . S
C81 C80 1.391 . S
C81 C82 1.392 . S
C81 H110 0.947 . S
C82 C81 1.392 . S
C82 C83 1.419 . S
C82 H111 0.948 . S
C83 C82 1.419 . S
C83 C84 1.391 . S
C83 C87 1.397 . S
C84 C79 1.391 . S
C84 C83 1.391 . S
C84 C85 1.399 . S
C85 C84 1.399 . S
C85 C86 1.396 . S
C85 C88 1.453 . S
C85 C89 1.684 . S
C86 C67 1.723 . S
C86 C85 1.396 . S
C86 C87 1.394 . S
C87 C83 1.397 . S
C87 C86 1.394 . S
C87 C97 1.723 . S
C88 C85 1.453 . S
C88 H112 0.982 . S
C88 H113 0.979 . S
C88 H114 0.977 . S
C89 C85 1.684 . S
C89 H115 0.979 . S
C89 H116 0.980 . S
C89 H117 0.983 . S
C90 H66 0.948 . S
C90 C91 1.391 . S
C90 C95 1.391 . S
C91 C90 1.391 . S
C91 C92 1.391 . S
C92 H69 0.947 . S
C92 C91 1.391 . S
C92 C93 1.392 1_655 S
C93 H70 0.948 . S
C93 C92 1.392 1_455 S
C93 C94 1.419 . S
C94 C93 1.419 . S
C94 C95 1.391 1_455 S
C94 C98 1.397 . S
C95 C90 1.391 . S
C95 C94 1.391 1_655 S
C95 C96 1.399 1_655 S
C96 C95 1.399 1_455 S
C96 C97 1.396 . S
C96 C99 1.453 1_455 S
C96 C100 1.684 1_455 S
C97 C87 1.723 . S
C97 C96 1.396 . S
C97 C98 1.394 . S
C98 C68 1.723 . S
C98 C94 1.397 . S
C98 C97 1.394 . S
C99 H71 0.982 . S
C99 H75 0.979 . S
C99 H76 0.977 . S
C99 C96 1.453 1_655 S
C100 H72 0.979 . S
C100 H73 0.980 . S
C100 H74 0.983 . S
C100 C96 1.684 1_655 S
H101 C119 0.948 . S
H102 C60 0.948 . S
H103 C78 0.979 . S
H104 C78 0.980 . S
H105 C78 0.983 . S
H106 C77 0.982 . S
H107 C77 0.979 . S
H108 C77 0.977 . S
H109 C79 0.948 . S
H110 C81 0.947 . S
H111 C82 0.948 . S
H112 C88 0.982 . S
H113 C88 0.979 . S
H114 C88 0.977 . S
H115 C89 0.979 . S
H116 C89 0.980 . S
H117 C89 0.983 . S
H118 C62 0.947 . S
C119 C62 1.392 . S
C119 C63 1.419 . S
C119 H101 0.948 . S
C120 C121 1.391 . S
C120 C124 1.391 . S
C120 H162 0.948 . S
C121 C120 1.391 . S
C121 C122 1.391 . S
C122 C121 1.391 . S
C122 H178 0.947 . S
C122 C179 1.392 . S
C123 C124 1.391 . S
C123 C127 1.397 . S
C123 C179 1.419 . S
C124 C120 1.391 . S
C124 C123 1.391 . S
C124 C125 1.399 . S
C125 C124 1.399 . S
C125 C128 1.396 . S
C125 C137 1.453 . S
C125 C138 1.684 . S
H126 C150 0.948 . S
C127 C123 1.397 . S
C127 C128 1.394 . S
C127 C146 1.723 . S
C128 C125 1.396 . S
C128 C127 1.394 . S
C128 C158 1.723 . S
H129 C152 0.947 . S
H130 C153 0.948 . S
H131 C159 0.982 . S
H132 C160 0.979 . S
H133 C160 0.980 . S
H134 C160 0.983 . S
H135 C159 0.979 . S
H136 C159 0.977 . S
C137 C125 1.453 . S
C137 H166 0.982 . S
C137 H167 0.979 . S
C137 H168 0.977 . S
C138 C125 1.684 . S
C138 H163 0.979 . S
C138 H164 0.980 . S
C138 H165 0.983 . S
C139 C140 1.391 . S
C139 C144 1.391 . S
C139 H169 0.948 . S
C140 C139 1.391 . S
C140 C141 1.391 . S
C141 C140 1.391 . S
C141 C142 1.392 . S
C141 H170 0.947 . S
C142 C141 1.392 . S
C142 C143 1.419 . S
C142 H171 0.948 . S
C143 C142 1.419 . S
C143 C144 1.391 . S
C143 C147 1.397 . S
C144 C139 1.391 . S
C144 C143 1.391 . S
C144 C145 1.399 . S
C145 C144 1.399 . S
C145 C146 1.396 . S
C145 C148 1.453 . S
C145 C149 1.684 . S
C146 C127 1.723 . S
C146 C145 1.396 . S
C146 C147 1.394 . S
C147 C143 1.397 . S
C147 C146 1.394 . S
C147 C157 1.723 . S
C148 C145 1.453 . S
C148 H172 0.982 . S
C148 H173 0.979 . S
C148 H174 0.977 . S
C149 C145 1.684 . S
C149 H175 0.979 . S
C149 H176 0.980 . S
C149 H177 0.983 . S
C150 H126 0.948 . S
C150 C151 1.391 . S
C150 C155 1.391 . S
C151 C150 1.391 . S
C151 C152 1.391 . S
C152 H129 0.947 . S
C152 C151 1.391 . S
C152 C153 1.392 . S
C153 H130 0.948 . S
C153 C152 1.392 . S
C153 C154 1.419 . S
C154 C153 1.419 . S
C154 C155 1.391 . S
C154 C158 1.397 . S
C155 C150 1.391 . S
C155 C154 1.391 . S
C155 C156 1.399 . S
C156 C155 1.399 . S
C156 C157 1.396 . S
C156 C159 1.453 . S
C156 C160 1.684 . S
C157 C147 1.723 . S
C157 C156 1.396 . S
C157 C158 1.394 . S
C158 C128 1.723 . S
C158 C154 1.397 . S
C158 C157 1.394 . S
C159 H131 0.982 . S
C159 H135 0.979 . S
C159 H136 0.977 . S
C159 C156 1.453 . S
C160 H132 0.979 . S
C160 H133 0.980 . S
C160 H134 0.983 . S
C160 C156 1.684 . S
H161 C179 0.948 . S
H162 C120 0.948 . S
H163 C138 0.979 . S
H164 C138 0.980 . S
H165 C138 0.983 . S
H166 C137 0.982 . S
H167 C137 0.979 . S
H168 C137 0.977 . S
H169 C139 0.948 . S
H170 C141 0.947 . S
H171 C142 0.948 . S
H172 C148 0.982 . S
H173 C148 0.979 . S
H174 C148 0.977 . S
H175 C149 0.979 . S
H176 C149 0.980 . S
H177 C149 0.983 . S
H178 C122 0.947 . S
C179 C122 1.392 . S
C179 C123 1.419 . S
C179 H161 0.948 . S
C180 C181 1.391 . S
C180 C184 1.391 . S
C180 H222 0.948 . S
C181 C180 1.391 . S
C181 C182 1.391 . S
C182 C181 1.391 . S
C182 H238 0.947 . S
C182 C239 1.392 . S
C183 C184 1.391 . S
C183 C187 1.397 . S
C183 C239 1.419 . S
C184 C180 1.391 . S
C184 C183 1.391 . S
C184 C185 1.399 . S
C185 C184 1.399 . S
C185 C188 1.396 . S
C185 C197 1.453 . S
C185 C198 1.684 . S
H186 C210 0.948 . S
C187 C183 1.397 . S
C187 C188 1.394 . S
C187 C206 1.723 . S
C188 C185 1.396 . S
C188 C187 1.394 . S
C188 C218 1.723 . S
H189 C212 0.947 . S
H190 C213 0.948 . S
H191 C219 0.982 . S
H192 C220 0.979 . S
H193 C220 0.980 . S
H194 C220 0.983 . S
H195 C219 0.979 . S
H196 C219 0.977 . S
C197 C185 1.453 . S
C197 H226 0.982 . S
C197 H227 0.979 . S
C197 H228 0.977 . S
C198 C185 1.684 . S
C198 H223 0.979 . S
C198 H224 0.980 . S
C198 H225 0.983 . S
C199 C200 1.391 . S
C199 C204 1.391 . S
C199 H229 0.948 . S
C200 C199 1.391 . S
C200 C201 1.391 . S
C201 C200 1.391 . S
C201 C202 1.392 . S
C201 H230 0.947 . S
C202 C201 1.392 . S
C202 C203 1.419 . S
C202 H231 0.948 . S
C203 C202 1.419 . S
C203 C204 1.391 . S
C203 C207 1.397 . S
C204 C199 1.391 . S
C204 C203 1.391 . S
C204 C205 1.399 . S
C205 C204 1.399 . S
C205 C206 1.396 . S
C205 C208 1.453 . S
C205 C209 1.684 . S
C206 C187 1.723 . S
C206 C205 1.396 . S
C206 C207 1.394 . S
C207 C203 1.397 . S
C207 C206 1.394 . S
C207 C217 1.723 . S
C208 C205 1.453 . S
C208 H232 0.982 . S
C208 H233 0.979 . S
C208 H234 0.977 . S
C209 C205 1.684 . S
C209 H235 0.979 . S
C209 H236 0.980 . S
C209 H237 0.983 . S
C210 H186 0.948 . S
C210 C211 1.391 . S
C210 C215 1.391 . S
C211 C210 1.391 . S
C211 C212 1.391 . S
C212 H189 0.947 . S
C212 C211 1.391 . S
C212 C213 1.392 . S
C213 H190 0.948 . S
C213 C212 1.392 . S
C213 C214 1.419 . S
C214 C213 1.419 . S
C214 C215 1.391 . S
C214 C218 1.397 . S
C215 C210 1.391 . S
C215 C214 1.391 . S
C215 C216 1.399 . S
C216 C215 1.399 . S
C216 C217 1.396 . S
C216 C219 1.453 . S
C216 C220 1.684 . S
C217 C207 1.723 . S
C217 C216 1.396 . S
C217 C218 1.394 . S
C218 C188 1.723 . S
C218 C214 1.397 . S
C218 C217 1.394 . S
C219 H191 0.982 . S
C219 H195 0.979 . S
C219 H196 0.977 . S
C219 C216 1.453 . S
C220 H192 0.979 . S
C220 H193 0.980 . S
C220 H194 0.983 . S
C220 C216 1.684 . S
H221 C239 0.948 . S
H222 C180 0.948 . S
H223 C198 0.979 . S
H224 C198 0.980 . S
H225 C198 0.983 . S
H226 C197 0.982 . S
H227 C197 0.979 . S
H228 C197 0.977 . S
H229 C199 0.948 . S
H230 C201 0.947 . S
H231 C202 0.948 . S
H232 C208 0.982 . S
H233 C208 0.979 . S
H234 C208 0.977 . S
H235 C209 0.979 . S
H236 C209 0.980 . S
H237 C209 0.983 . S
H238 C182 0.947 . S
C239 C182 1.392 . S
C239 C183 1.419 . S
C239 H221 0.948 . S
C240 C241 1.391 . S
C240 C244 1.391 . S
C240 H282 0.948 . S
C241 C240 1.391 . S
C241 C242 1.391 . S
C242 C241 1.391 . S
C242 H298 0.947 . S
C242 C299 1.392 . S
C243 C244 1.391 . S
C243 C247 1.397 . S
C243 C299 1.419 . S
C244 C240 1.391 . S
C244 C243 1.391 . S
C244 C245 1.399 . S
C245 C244 1.399 . S
C245 C248 1.396 . S
C245 C257 1.453 . S
C245 C258 1.694 . S
H246 C270 0.948 . S
C247 C243 1.397 . S
C247 C248 1.394 . S
C247 C266 1.723 . S
C248 C245 1.396 . S
C248 C247 1.394 . S
C248 C278 1.723 . S
H249 C272 0.947 . S
H250 C273 0.948 . S
H251 C279 0.982 . S
H252 C280 0.979 1_655 S
H253 C280 0.980 . S
H254 C280 0.983 . S
H255 C279 0.979 . S
H256 C279 0.977 . S
C257 C245 1.453 . S
C257 H286 0.982 . S
C257 H287 0.979 . S
C257 H288 0.977 . S
C258 C245 1.694 . S
C258 H283 0.962 1_455 S
C258 H284 0.983 . S
C258 H285 0.987 . S
C259 C260 1.391 1_556 S
C259 C264 1.391 . S
C259 H289 0.948 1_556 S
C260 C259 1.391 1_554 S
C260 C261 1.372 1_554 S
C261 C260 1.372 1_556 S
C261 C262 1.438 . S
C261 H290 0.921 1_556 S
C262 C261 1.438 . S
C262 C263 1.419 . S
C262 H291 0.948 . S
C263 C262 1.419 . S
C263 C264 1.391 . S
C263 C267 1.397 . S
C264 C259 1.391 . S
C264 C263 1.391 . S
C264 C265 1.399 . S
C265 C264 1.399 . S
C265 C266 1.396 . S
C265 C268 1.453 . S
C265 C269 1.684 . S
C266 C247 1.723 . S
C266 C265 1.396 . S
C266 C267 1.394 . S
C267 C263 1.397 . S
C267 C266 1.394 . S
C267 C277 1.723 . S
C268 C265 1.453 . S
C268 H292 0.982 . S
C268 H293 0.979 . S
C268 H294 0.977 . S
C269 C265 1.684 . S
C269 H295 0.979 1_455 S
C269 H296 0.980 . S
C269 H297 0.983 . S
C270 H246 0.948 . S
C270 C271 1.391 . S
C270 C275 1.391 . S
C271 C270 1.391 . S
C271 C272 1.391 . S
C272 H249 0.947 . S
C272 C271 1.391 . S
C272 C273 1.392 . S
C273 H250 0.948 . S
C273 C272 1.392 . S
C273 C274 1.419 . S
C274 C273 1.419 . S
C274 C275 1.391 . S
C274 C278 1.397 . S
C275 C270 1.391 . S
C275 C274 1.391 . S
C275 C276 1.399 . S
C276 C275 1.399 . S
C276 C277 1.396 . S
C276 C279 1.453 . S
C276 C280 1.684 . S
C277 C267 1.723 . S
C277 C276 1.396 . S
C277 C278 1.394 . S
C278 C248 1.723 . S
C278 C274 1.397 . S
C278 C277 1.394 . S
C279 H251 0.982 . S
C279 H255 0.979 . S
C279 H256 0.977 . S
C279 C276 1.453 . S
C280 H252 0.979 1_455 S
C280 H253 0.980 . S
C280 H254 0.983 . S
C280 C276 1.684 . S
H281 C299 0.948 . S
H282 C240 0.948 . S
H283 C258 0.962 1_655 S
H284 C258 0.983 . S
H285 C258 0.987 . S
H286 C257 0.982 . S
H287 C257 0.979 . S
H288 C257 0.977 . S
H289 C259 0.948 1_554 S
H290 C261 0.921 1_554 S
H291 C262 0.948 . S
H292 C268 0.982 . S
H293 C268 0.979 . S
H294 C268 0.977 . S
H295 C269 0.979 1_655 S
H296 C269 0.980 . S
H297 C269 0.983 . S
H298 C242 0.947 . S
C299 C242 1.392 . S
C299 C243 1.419 . S
C299 H281 0.948 . S
C300 C301 1.391 . S
C300 C304 1.391 . S
C300 H342 0.948 . S
C301 C300 1.391 . S
C301 C302 1.391 . S
C302 C301 1.391 . S
C302 H358 0.947 . S
C302 C359 1.392 . S
C303 C304 1.391 . S
C303 C307 1.397 . S
C303 C359 1.419 . S
C304 C300 1.391 . S
C304 C303 1.391 . S
C304 C305 1.399 . S
C305 C304 1.399 . S
C305 C308 1.396 . S
C305 C317 1.453 . S
C305 C318 1.684 . S
H306 C330 0.948 . S
C307 C303 1.397 . S
C307 C308 1.394 . S
C307 C326 1.723 . S
C308 C305 1.396 . S
C308 C307 1.394 . S
C308 C338 1.723 . S
H309 C332 0.947 . S
H310 C333 0.948 . S
H311 C339 0.982 . S
H312 C340 0.979 . S
H313 C340 0.980 . S
H314 C340 0.983 . S
H315 C339 0.979 . S
H316 C339 0.977 . S
C317 C305 1.453 . S
C317 H346 0.982 . S
C317 H347 0.979 . S
C317 H348 0.977 . S
C318 C305 1.684 . S
C318 H343 0.979 . S
C318 H344 0.980 . S
C318 H345 0.983 . S
C319 C320 1.391 . S
C319 C324 1.391 . S
C319 H349 0.948 . S
C320 C319 1.391 . S
C320 C321 1.391 . S
C321 C320 1.391 . S
C321 C322 1.392 . S
C321 H350 0.947 . S
C322 C321 1.392 . S
C322 C323 1.419 . S
C322 H351 0.948 . S
C323 C322 1.419 . S
C323 C324 1.391 . S
C323 C327 1.397 . S
C324 C319 1.391 . S
C324 C323 1.391 . S
C324 C325 1.399 . S
C325 C324 1.399 . S
C325 C326 1.396 . S
C325 C328 1.453 . S
C325 C329 1.684 . S
C326 C307 1.723 . S
C326 C325 1.396 . S
C326 C327 1.394 . S
C327 C323 1.397 . S
C327 C326 1.394 . S
C327 C337 1.723 . S
C328 C325 1.453 . S
C328 H352 0.982 . S
C328 H353 0.979 . S
C328 H354 0.977 . S
C329 C325 1.684 . S
C329 H355 0.979 . S
C329 H356 0.980 . S
C329 H357 0.983 . S
C330 H306 0.948 . S
C330 C331 1.391 . S
C330 C335 1.391 . S
C331 C330 1.391 . S
C331 C332 1.391 . S
C332 H309 0.947 . S
C332 C331 1.391 . S
C332 C333 1.392 . S
C333 H310 0.948 . S
C333 C332 1.392 . S
C333 C334 1.419 . S
C334 C333 1.419 . S
C334 C335 1.391 . S
C334 C338 1.397 . S
C335 C330 1.391 . S
C335 C334 1.391 . S
C335 C336 1.399 . S
C336 C335 1.399 . S
C336 C337 1.396 . S
C336 C339 1.453 . S
C336 C340 1.684 . S
C337 C327 1.723 . S
C337 C336 1.396 . S
C337 C338 1.394 . S
C338 C308 1.723 . S
C338 C334 1.397 . S
C338 C337 1.394 . S
C339 H311 0.982 . S
C339 H315 0.979 . S
C339 H316 0.977 . S
C339 C336 1.453 . S
C340 H312 0.979 . S
C340 H313 0.980 . S
C340 H314 0.983 . S
C340 C336 1.684 . S
H341 C359 0.948 . S
H342 C300 0.948 . S
H343 C318 0.979 . S
H344 C318 0.980 . S
H345 C318 0.983 . S
H346 C317 0.982 . S
H347 C317 0.979 . S
H348 C317 0.977 . S
H349 C319 0.948 . S
H350 C321 0.947 . S
H351 C322 0.948 . S
H352 C328 0.982 . S
H353 C328 0.979 . S
H354 C328 0.977 . S
H355 C329 0.979 . S
H356 C329 0.980 . S
H357 C329 0.983 . S
H358 C302 0.947 . S
C359 C302 1.392 . S
C359 C303 1.419 . S
C359 H341 0.948 . S
C360 C361 1.391 . S
C360 C364 1.391 . S
C360 H402 0.948 . S
C361 C360 1.391 . S
C361 C362 1.391 . S
C362 C361 1.391 . S
C362 H418 0.947 . S
C362 C419 1.392 . S
C363 C364 1.391 . S
C363 C367 1.397 . S
C363 C419 1.419 . S
C364 C360 1.391 . S
C364 C363 1.391 . S
C364 C365 1.399 . S
C365 C364 1.399 . S
C365 C368 1.396 . S
C365 C377 1.453 . S
C365 C378 1.684 . S
H366 C390 0.948 . S
C367 C363 1.397 . S
C367 C368 1.394 . S
C367 C386 1.723 . S
C368 C365 1.396 . S
C368 C367 1.394 . S
C368 C398 1.723 . S
H369 C392 0.947 . S
H370 C393 0.948 . S
H371 C399 0.982 . S
H372 C400 0.979 . S
H373 C400 0.980 . S
H374 C400 0.983 . S
H375 C399 0.979 . S
H376 C399 0.977 . S
C377 C365 1.453 . S
C377 H406 0.982 . S
C377 H407 0.979 . S
C377 H408 0.977 . S
C378 C365 1.684 . S
C378 H403 0.979 . S
C378 H404 0.980 . S
C378 H405 0.983 . S
C379 C380 1.391 . S
C379 C384 1.391 . S
C379 H409 0.948 . S
C380 C379 1.391 . S
C380 C381 1.391 . S
C381 C380 1.391 . S
C381 C382 1.392 . S
C381 H410 0.947 . S
C382 C381 1.392 . S
C382 C383 1.419 . S
C382 H411 0.948 . S
C383 C382 1.419 . S
C383 C384 1.391 . S
C383 C387 1.397 . S
C384 C379 1.391 . S
C384 C383 1.391 . S
C384 C385 1.399 . S
C385 C384 1.399 . S
C385 C386 1.396 . S
C385 C388 1.453 . S
C385 C389 1.684 . S
C386 C367 1.723 . S
C386 C385 1.396 . S
C386 C387 1.394 . S
C387 C383 1.397 . S
C387 C386 1.394 . S
C387 C397 1.723 . S
C388 C385 1.453 . S
C388 H412 0.982 . S
C388 H413 0.979 . S
C388 H414 0.977 . S
C389 C385 1.684 . S
C389 H415 0.979 . S
C389 H416 0.980 . S
C389 H417 0.983 . S
C390 H366 0.948 . S
C390 C391 1.391 . S
C390 C395 1.391 . S
C391 C390 1.391 . S
C391 C392 1.391 . S
C392 H369 0.947 . S
C392 C391 1.391 . S
C392 C393 1.392 . S
C393 H370 0.948 . S
C393 C392 1.392 . S
C393 C394 1.419 . S
C394 C393 1.419 . S
C394 C395 1.391 . S
C394 C398 1.397 . S
C395 C390 1.391 . S
C395 C394 1.391 . S
C395 C396 1.399 . S
C396 C395 1.399 . S
C396 C397 1.396 . S
C396 C399 1.453 . S
C396 C400 1.684 . S
C397 C387 1.723 . S
C397 C396 1.396 . S
C397 C398 1.394 . S
C398 C368 1.723 . S
C398 C394 1.397 . S
C398 C397 1.394 . S
C399 H371 0.982 . S
C399 H375 0.979 . S
C399 H376 0.977 . S
C399 C396 1.453 . S
C400 H372 0.979 . S
C400 H373 0.980 . S
C400 H374 0.983 . S
C400 C396 1.684 . S
H401 C419 0.948 . S
H402 C360 0.948 . S
H403 C378 0.979 . S
H404 C378 0.980 . S
H405 C378 0.983 . S
H406 C377 0.982 . S
H407 C377 0.979 . S
H408 C377 0.977 . S
H409 C379 0.948 . S
H410 C381 0.947 . S
H411 C382 0.948 . S
H412 C388 0.982 . S
H413 C388 0.979 . S
H414 C388 0.977 . S
H415 C389 0.979 . S
H416 C389 0.980 . S
H417 C389 0.983 . S
H418 C362 0.947 . S
C419 C362 1.392 . S
C419 C363 1.419 . S
C419 H401 0.948 . S
C420 C421 1.391 . S
C420 C424 1.391 . S
C420 H462 0.948 . S
C421 C420 1.391 . S
C421 C422 1.391 . S
C422 C421 1.391 . S
C422 H478 0.947 . S
C422 C479 1.392 . S
C423 C424 1.391 . S
C423 C427 1.397 . S
C423 C479 1.419 . S
C424 C420 1.391 . S
C424 C423 1.391 . S
C424 C425 1.399 . S
C425 C424 1.399 . S
C425 C428 1.396 . S
C425 C437 1.453 . S
C425 C438 1.684 . S
H426 C450 0.948 . S
C427 C423 1.397 . S
C427 C428 1.394 . S
C427 C446 1.723 . S
C428 C425 1.396 . S
C428 C427 1.394 . S
C428 C458 1.723 . S
H429 C452 0.947 1_655 S
H430 C453 0.948 . S
H431 C459 0.982 . S
H432 C460 0.979 1_455 S
H433 C460 0.980 1_455 S
H434 C460 0.983 . S
H435 C459 0.979 1_655 S
H436 C459 0.977 . S
C437 C425 1.453 . S
C437 H466 0.982 . S
C437 H467 0.979 . S
C437 H468 0.977 . S
C438 C425 1.684 . S
C438 H463 0.979 . S
C438 H464 0.980 . S
C438 H465 0.983 . S
C439 C440 1.391 . S
C439 C444 1.391 . S
C439 H469 0.948 . S
C440 C439 1.391 . S
C440 C441 1.391 . S
C441 C440 1.391 . S
C441 C442 1.392 . S
C441 H470 0.947 . S
C442 C441 1.392 . S
C442 C443 1.419 . S
C442 H471 0.948 . S
C443 C442 1.419 . S
C443 C444 1.391 . S
C443 C447 1.397 . S
C444 C439 1.391 . S
C444 C443 1.391 . S
C444 C445 1.399 . S
C445 C444 1.399 . S
C445 C446 1.396 . S
C445 C448 1.453 . S
C445 C449 1.684 . S
C446 C427 1.723 . S
C446 C445 1.396 . S
C446 C447 1.394 . S
C447 C443 1.397 . S
C447 C446 1.394 . S
C447 C457 1.723 . S
C448 C445 1.453 . S
C448 H472 0.982 . S
C448 H473 0.979 . S
C448 H474 0.977 . S
C449 C445 1.684 . S
C449 H475 0.979 . S
C449 H476 0.980 . S
C449 H477 0.983 . S
C450 H426 0.948 . S
C450 C451 1.391 . S
C450 C455 1.391 1_655 S
C451 C450 1.391 . S
C451 C452 1.391 1_655 S
C452 H429 0.947 1_455 S
C452 C451 1.391 1_455 S
C452 C453 1.392 . S
C453 H430 0.948 . S
C453 C452 1.392 . S
C453 C454 1.419 . S
C454 C453 1.419 . S
C454 C455 1.391 . S
C454 C458 1.397 . S
C455 C450 1.391 1_455 S
C455 C454 1.391 . S
C455 C456 1.399 . S
C456 C455 1.399 . S
C456 C457 1.396 . S
C456 C459 1.453 . S
C456 C460 1.684 1_455 S
C457 C447 1.723 . S
C457 C456 1.396 . S
C457 C458 1.394 . S
C458 C428 1.723 . S
C458 C454 1.397 . S
C458 C457 1.394 . S
C459 H431 0.982 . S
C459 H435 0.979 1_455 S
C459 H436 0.977 . S
C459 C456 1.453 . S
C460 H432 0.979 1_655 S
C460 H433 0.980 1_655 S
C460 H434 0.983 . S
C460 C456 1.684 1_655 S
H461 C479 0.948 . S
H462 C420 0.948 . S
H463 C438 0.979 . S
H464 C438 0.980 . S
H465 C438 0.983 . S
H466 C437 0.982 . S
H467 C437 0.979 . S
H468 C437 0.977 . S
H469 C439 0.948 . S
H470 C441 0.947 . S
H471 C442 0.948 . S
H472 C448 0.982 . S
H473 C448 0.979 . S
H474 C448 0.977 . S
H475 C449 0.979 . S
H476 C449 0.980 . S
H477 C449 0.983 . S
H478 C422 0.947 . S
C479 C422 1.392 . S
C479 C423 1.419 . S
C479 H461 0.948 . S
Zn480 O486 1.920 . S
Zn480 O492 1.898 . S
Zn480 O495 1.905 . S
Zn481 O489 1.905 . S
Zn481 O490 1.898 . S
Zn481 O498 1.920 . S
Zn482 O485 2.080 . S
Zn482 O488 2.114 . S
Zn482 O491 2.120 . S
Zn482 O493 2.120 . S
Zn482 O494 2.114 . S
Zn482 O497 2.080 . S
C483 O488 1.166 . S
C483 O489 1.182 . S
C484 O490 1.167 . S
C484 O491 1.299 . S
O485 Zn482 2.080 . S
O485 C499 1.305 . S
O486 Zn480 1.920 . S
O486 C499 1.234 . S
C487 O492 1.167 . S
C487 O493 1.299 . S
O488 Zn482 2.114 . S
O488 C483 1.166 . S
O489 Zn481 1.905 . S
O489 C483 1.182 . S
O490 Zn481 1.898 . S
O490 C484 1.167 . S
O491 Zn482 2.120 . S
O491 C484 1.299 . S
O492 Zn480 1.898 . S
O492 C487 1.167 . S
O493 Zn482 2.120 . S
O493 C487 1.299 . S
O494 Zn482 2.114 . S
O494 C496 1.166 . S
O495 Zn480 1.905 . S
O495 C496 1.182 . S
C496 O494 1.166 . S
C496 O495 1.182 . S
O497 Zn482 2.080 . S
O497 C500 1.305 . S
O498 Zn481 1.920 . S
O498 C500 1.234 . S
C499 O485 1.305 . S
C499 O486 1.234 . S
C500 O497 1.305 . S
C500 O498 1.234 . S
Zn501 O507 1.920 . S
Zn501 O513 1.898 . S
Zn501 O516 1.905 . S
Zn502 O510 1.905 . S
Zn502 O511 1.898 . S
Zn502 O519 1.920 . S
Zn503 O506 2.080 . S
Zn503 O509 2.114 . S
Zn503 O512 2.120 . S
Zn503 O514 2.120 . S
Zn503 O515 2.114 . S
Zn503 O518 2.080 . S
C504 O509 1.166 . S
C504 O510 1.182 . S
C505 O511 1.167 . S
C505 O512 1.299 . S
O506 Zn503 2.080 . S
O506 C520 1.305 . S
O507 Zn501 1.920 . S
O507 C520 1.234 . S
C508 O513 1.167 . S
C508 O514 1.299 . S
O509 Zn503 2.114 . S
O509 C504 1.166 . S
O510 Zn502 1.905 . S
O510 C504 1.182 . S
O511 Zn502 1.898 . S
O511 C505 1.167 . S
O512 Zn503 2.120 . S
O512 C505 1.299 . S
O513 Zn501 1.898 . S
O513 C508 1.167 . S
O514 Zn503 2.120 . S
O514 C508 1.299 . S
O515 Zn503 2.114 . S
O515 C517 1.166 . S
O516 Zn501 1.905 . S
O516 C517 1.182 . S
C517 O515 1.166 . S
C517 O516 1.182 . S
O518 Zn503 2.080 . S
O518 C521 1.305 . S
O519 Zn502 1.920 . S
O519 C521 1.234 . S
C520 O506 1.305 . S
C520 O507 1.234 . S
C521 O518 1.305 . S
C521 O519 1.234 . S
Zn522 O528 1.920 . S
Zn522 O534 1.898 . S
Zn522 O537 1.905 . S
Zn523 O531 1.905 . S
Zn523 O532 1.898 . S
Zn523 O540 1.920 . S
Zn524 O527 2.080 . S
Zn524 O530 2.114 . S
Zn524 O533 2.120 . S
Zn524 O535 2.120 . S
Zn524 O536 2.114 . S
Zn524 O539 2.080 . S
C525 O530 1.166 . S
C525 O531 1.182 . S
C526 O532 1.167 . S
C526 O533 1.299 . S
O527 Zn524 2.080 . S
O527 C541 1.305 . S
O528 Zn522 1.920 . S
O528 C541 1.234 . S
C529 O534 1.167 . S
C529 O535 1.299 . S
O530 Zn524 2.114 . S
O530 C525 1.166 . S
O531 Zn523 1.905 . S
O531 C525 1.182 . S
O532 Zn523 1.898 . S
O532 C526 1.167 . S
O533 Zn524 2.120 . S
O533 C526 1.299 . S
O534 Zn522 1.898 . S
O534 C529 1.167 . S
O535 Zn524 2.120 . S
O535 C529 1.299 . S
O536 Zn524 2.114 . S
O536 C538 1.166 . S
O537 Zn522 1.905 . S
O537 C538 1.182 . S
C538 O536 1.166 . S
C538 O537 1.182 . S
O539 Zn524 2.080 . S
O539 C542 1.305 . S
O540 Zn523 1.920 . S
O540 C542 1.234 . S
C541 O527 1.305 . S
C541 O528 1.234 . S
C542 O539 1.305 . S
C542 O540 1.234 . S
Zn543 O549 1.920 . S
Zn543 O555 1.898 . S
Zn543 O558 1.905 1_455 S
Zn544 O552 1.905 . S
Zn544 O553 1.898 . S
Zn544 O561 1.920 . S
Zn545 O548 2.080 . S
Zn545 O551 2.114 . S
Zn545 O554 2.120 . S
Zn545 O556 2.120 . S
Zn545 O557 2.114 . S
Zn545 O560 2.080 . S
C546 O551 1.166 . S
C546 O552 1.182 . S
C547 O553 1.167 . S
C547 O554 1.299 . S
O548 Zn545 2.080 . S
O548 C562 1.305 . S
O549 Zn543 1.920 . S
O549 C562 1.234 . S
C550 O555 1.167 . S
C550 O556 1.299 . S
O551 Zn545 2.114 . S
O551 C546 1.166 . S
O552 Zn544 1.905 . S
O552 C546 1.182 . S
O553 Zn544 1.898 . S
O553 C547 1.167 . S
O554 Zn545 2.120 . S
O554 C547 1.299 . S
O555 Zn543 1.898 . S
O555 C550 1.167 . S
O556 Zn545 2.120 . S
O556 C550 1.299 . S
O557 Zn545 2.114 . S
O557 C559 1.166 . S
O558 Zn543 1.905 1_655 S
O558 C559 1.182 1_655 S
C559 O557 1.166 . S
C559 O558 1.182 1_455 S
O560 Zn545 2.080 . S
O560 C563 1.305 . S
O561 Zn544 1.920 . S
O561 C563 1.234 . S
C562 O548 1.305 . S
C562 O549 1.234 . S
C563 O560 1.305 . S
C563 O561 1.234 . S
C564 C565 1.363 . S
C564 C570 1.379 . S
C564 N572 1.356 . S
C565 C564 1.363 . S
C565 C571 1.363 . S
C566 C567 1.363 . S
C566 C571 1.379 . S
C566 N573 1.356 . S
C567 C566 1.363 . S
C567 C570 1.363 . S
N568 C570 1.356 . S
N568 H580 0.984 . S
N568 H581 0.985 . S
N569 C571 1.356 . S
N569 H574 0.984 . S
N569 H575 0.985 . S
C570 C564 1.379 . S
C570 C567 1.363 . S
C570 N568 1.356 . S
C571 C565 1.363 . S
C571 C566 1.379 . S
C571 N569 1.356 . S
N572 C564 1.356 . S
N572 H578 0.984 . S
N572 H579 0.984 . S
N573 C566 1.356 . S
N573 H576 0.984 . S
N573 H577 0.985 . S
H574 N569 0.984 . S
H575 N569 0.985 . S
H576 N573 0.984 . S
H577 N573 0.985 . S
H578 N572 0.984 . S
H579 N572 0.984 . S
H580 N568 0.984 . S
H581 N568 0.985 . S
C582 C583 1.363 . S
C582 C588 1.379 . S
C582 N590 1.356 . S
C583 C582 1.363 . S
C583 C589 1.363 . S
C584 C585 1.363 . S
C584 C589 1.379 . S
C584 N591 1.356 . S
C585 C584 1.363 . S
C585 C588 1.363 . S
N586 C588 1.356 . S
N586 H598 0.984 . S
N586 H599 0.985 . S
N587 C589 1.356 . S
N587 H592 0.984 . S
N587 H593 0.985 . S
C588 C582 1.379 . S
C588 C585 1.363 . S
C588 N586 1.356 . S
C589 C583 1.363 . S
C589 C584 1.379 . S
C589 N587 1.356 . S
N590 C582 1.356 . S
N590 H596 0.984 . S
N590 H597 0.984 . S
N591 C584 1.356 . S
N591 H594 0.984 . S
N591 H595 0.985 . S
H592 N587 0.984 . S
H593 N587 0.985 . S
H594 N591 0.984 . S
H595 N591 0.985 . S
H596 N590 0.984 . S
H597 N590 0.984 . S
H598 N586 0.984 . S
H599 N586 0.985 . S
C600 C601 1.363 . S
C600 C606 1.379 . S
C600 N608 1.356 . S
C601 C600 1.363 . S
C601 C607 1.363 . S
C602 C603 1.363 . S
C602 C607 1.379 . S
C602 N609 1.356 . S
C603 C602 1.363 . S
C603 C606 1.363 . S
N604 C606 1.356 . S
N604 H616 0.984 . S
N604 H617 0.985 . S
N605 C607 1.356 . S
N605 H610 0.984 . S
N605 H611 0.985 . S
C606 C600 1.379 . S
C606 C603 1.363 . S
C606 N604 1.356 . S
C607 C601 1.363 . S
C607 C602 1.379 . S
C607 N605 1.356 . S
N608 C600 1.356 . S
N608 H614 0.984 . S
N608 H615 0.984 . S
N609 C602 1.356 . S
N609 H612 0.984 . S
N609 H613 0.985 . S
H610 N605 0.984 . S
H611 N605 0.985 . S
H612 N609 0.984 . S
H613 N609 0.985 . S
H614 N608 0.984 . S
H615 N608 0.984 . S
H616 N604 0.984 . S
H617 N604 0.985 . S
C618 C619 1.363 . S
C618 C624 1.379 . S
C618 N626 1.356 . S
C619 C618 1.363 . S
C619 C625 1.363 . S
C620 C621 1.363 . S
C620 C625 1.379 . S
C620 N627 1.356 . S
C621 C620 1.363 . S
C621 C624 1.363 . S
N622 C624 1.356 . S
N622 H634 0.984 . S
N622 H635 0.985 1_655 S
N623 C625 1.356 . S
N623 H628 0.984 . S
N623 H629 0.985 . S
C624 C618 1.379 . S
C624 C621 1.363 . S
C624 N622 1.356 . S
C625 C619 1.363 . S
C625 C620 1.379 . S
C625 N623 1.356 . S
N626 C618 1.356 . S
N626 H632 0.984 . S
N626 H633 0.984 . S
N627 C620 1.356 . S
N627 H630 0.984 1_655 S
N627 H631 0.985 . S
H628 N623 0.984 . S
H629 N623 0.985 . S
H630 N627 0.984 1_455 S
H631 N627 0.985 . S
H632 N626 0.984 . S
H633 N626 0.984 . S
H634 N622 0.984 . S
H635 N622 0.985 1_455 S
C636 C637 1.363 . S
C636 C642 1.379 . S
C636 N644 1.356 . S
C637 C636 1.363 . S
C637 C643 1.363 . S
C638 C639 1.363 . S
C638 C643 1.379 . S
C638 N645 1.356 . S
C639 C638 1.363 . S
C639 C642 1.363 . S
N640 C642 1.356 . S
N640 H652 0.984 . S
N640 H653 0.985 . S
N641 C643 1.356 . S
N641 H646 0.984 . S
N641 H647 0.985 . S
C642 C636 1.379 . S
C642 C639 1.363 . S
C642 N640 1.356 . S
C643 C637 1.363 . S
C643 C638 1.379 . S
C643 N641 1.356 . S
N644 C636 1.356 . S
N644 H650 0.984 1_455 S
N644 H651 0.984 . S
N645 C638 1.356 . S
N645 H648 0.984 . S
N645 H649 0.985 . S
H646 N641 0.984 . S
H647 N641 0.985 . S
H648 N645 0.984 . S
H649 N645 0.985 . S
H650 N644 0.984 1_655 S
H651 N644 0.984 . S
H652 N640 0.984 . S
H653 N640 0.985 . S
C654 C655 1.363 . S
C654 C660 1.379 . S
C654 N662 1.356 . S
C655 C654 1.363 . S
C655 C661 1.363 . S
C656 C657 1.363 . S
C656 C661 1.379 . S
C656 N663 1.356 . S
C657 C656 1.363 . S
C657 C660 1.363 . S
N658 C660 1.356 . S
N658 H670 0.984 . S
N658 H671 0.985 1_655 S
N659 C661 1.356 . S
N659 H664 0.984 . S
N659 H665 0.985 . S
C660 C654 1.379 . S
C660 C657 1.363 . S
C660 N658 1.356 . S
C661 C655 1.363 . S
C661 C656 1.379 . S
C661 N659 1.356 . S
N662 C654 1.356 . S
N662 H668 0.984 . S
N662 H669 0.984 . S
N663 C656 1.356 . S
N663 H666 0.984 1_655 S
N663 H667 0.985 . S
H664 N659 0.984 . S
H665 N659 0.985 . S
H666 N663 0.984 1_455 S
H667 N663 0.985 . S
H668 N662 0.984 . S
H669 N662 0.984 . S
H670 N658 0.984 . S
H671 N658 0.985 1_455 S
C672 C673 1.363 . S
C672 C678 1.379 . S
C672 N680 1.356 . S
C673 C672 1.363 . S
C673 C679 1.363 . S
C674 C675 1.363 . S
C674 C679 1.379 . S
C674 N681 1.356 . S
C675 C674 1.363 . S
C675 C678 1.363 . S
N676 C678 1.356 . S
N676 H688 0.984 . S
N676 H689 0.985 . S
N677 C679 1.356 . S
N677 H682 0.984 . S
N677 H683 0.985 . S
C678 C672 1.379 . S
C678 C675 1.363 . S
C678 N676 1.356 . S
C679 C673 1.363 . S
C679 C674 1.379 . S
C679 N677 1.356 . S
N680 C672 1.356 . S
N680 H686 0.984 . S
N680 H687 0.984 . S
N681 C674 1.356 . S
N681 H684 0.984 . S
N681 H685 0.985 . S
H682 N677 0.984 . S
H683 N677 0.985 . S
H684 N681 0.984 . S
H685 N681 0.985 . S
H686 N680 0.984 . S
H687 N680 0.984 . S
H688 N676 0.984 . S
H689 N676 0.985 . S
C690 C691 1.363 . S
C690 C696 1.379 . S
C690 N698 1.356 . S
C691 C690 1.363 . S
C691 C697 1.363 . S
C692 C693 1.363 . S
C692 C697 1.379 . S
C692 N699 1.356 . S
C693 C692 1.363 . S
C693 C696 1.363 . S
N694 C696 1.356 . S
N694 H706 0.984 . S
N694 H707 0.985 . S
N695 C697 1.356 . S
N695 H700 0.984 . S
N695 H701 0.985 . S
C696 C690 1.379 . S
C696 C693 1.363 . S
C696 N694 1.356 . S
C697 C691 1.363 . S
C697 C692 1.379 . S
C697 N695 1.356 . S
N698 C690 1.356 . S
N698 H704 0.984 . S
N698 H705 0.984 . S
N699 C692 1.356 . S
N699 H702 0.984 . S
N699 H703 0.985 . S
H700 N695 0.984 . S
H701 N695 0.985 . S
H702 N699 0.984 . S
H703 N699 0.985 . S
H704 N698 0.984 . S
H705 N698 0.984 . S
H706 N694 0.984 . S
H707 N694 0.985 . S
C708 C709 1.363 . S
C708 C714 1.379 . S
C708 N716 1.356 . S
C709 C708 1.363 . S
C709 C715 1.363 . S
C710 C711 1.363 . S
C710 C715 1.379 . S
C710 N717 1.356 . S
C711 C710 1.363 . S
C711 C714 1.363 . S
N712 C714 1.356 . S
N712 H724 0.984 . S
N712 H725 0.985 . S
N713 C715 1.356 . S
N713 H718 0.984 . S
N713 H719 0.985 . S
C714 C708 1.379 . S
C714 C711 1.363 . S
C714 N712 1.356 . S
C715 C709 1.363 . S
C715 C710 1.379 . S
C715 N713 1.356 . S
N716 C708 1.356 . S
N716 H722 0.984 . S
N716 H723 0.984 . S
N717 C710 1.356 . S
N717 H720 0.984 . S
N717 H721 0.985 . S
H718 N713 0.984 . S
H719 N713 0.985 . S
H720 N717 0.984 . S
H721 N717 0.985 . S
H722 N716 0.984 . S
H723 N716 0.984 . S
H724 N712 0.984 . S
H725 N712 0.985 . S
C726 C727 1.363 . S
C726 C732 1.379 . S
C726 N734 1.356 . S
C727 C726 1.363 . S
C727 C733 1.363 . S
C728 C729 1.363 . S
C728 C733 1.379 . S
C728 N735 1.356 . S
C729 C728 1.363 . S
C729 C732 1.363 . S
N730 C732 1.356 . S
N730 H742 0.984 . S
N730 H743 0.985 . S
N731 C733 1.356 . S
N731 H736 0.984 . S
N731 H737 0.985 . S
C732 C726 1.379 . S
C732 C729 1.363 . S
C732 N730 1.356 . S
C733 C727 1.363 . S
C733 C728 1.379 . S
C733 N731 1.356 . S
N734 C726 1.356 . S
N734 H740 0.984 . S
N734 H741 0.984 . S
N735 C728 1.356 . S
N735 H738 0.984 . S
N735 H739 0.985 . S
H736 N731 0.984 . S
H737 N731 0.985 . S
H738 N735 0.984 . S
H739 N735 0.985 . S
H740 N734 0.984 . S
H741 N734 0.984 . S
H742 N730 0.984 . S
H743 N730 0.985 . S
C744 C745 1.363 . S
C744 C750 1.379 . S
C744 N752 1.356 . S
C745 C744 1.363 . S
C745 C751 1.363 . S
C746 C747 1.363 . S
C746 C751 1.379 . S
C746 N753 1.356 . S
C747 C746 1.363 . S
C747 C750 1.363 . S
N748 C750 1.356 . S
N748 H760 0.984 . S
N748 H761 0.985 . S
N749 C751 1.356 . S
N749 H754 0.984 . S
N749 H755 0.985 . S
C750 C744 1.379 . S
C750 C747 1.363 . S
C750 N748 1.356 . S
C751 C745 1.363 . S
C751 C746 1.379 . S
C751 N749 1.356 . S
N752 C744 1.356 . S
N752 H758 0.984 . S
N752 H759 0.984 . S
N753 C746 1.356 . S
N753 H756 0.984 . S
N753 H757 0.985 . S
H754 N749 0.984 . S
H755 N749 0.985 . S
H756 N753 0.984 . S
H757 N753 0.985 . S
H758 N752 0.984 . S
H759 N752 0.984 . S
H760 N748 0.984 . S
H761 N748 0.985 . S
C762 C763 1.363 . S
C762 C768 1.379 . S
C762 N770 1.356 . S
C763 C762 1.363 . S
C763 C769 1.363 . S
C764 C765 1.363 . S
C764 C769 1.379 . S
C764 N771 1.356 . S
C765 C764 1.363 . S
C765 C768 1.363 . S
N766 C768 1.356 . S
N766 H778 0.984 . S
N766 H779 0.985 . S
N767 C769 1.356 . S
N767 H772 0.984 . S
N767 H773 0.985 . S
C768 C762 1.379 . S
C768 C765 1.363 . S
C768 N766 1.356 . S
C769 C763 1.363 . S
C769 C764 1.379 . S
C769 N767 1.356 . S
N770 C762 1.356 . S
N770 H776 0.984 . S
N770 H777 0.984 . S
N771 C764 1.356 . S
N771 H774 0.984 . S
N771 H775 0.985 . S
H772 N767 0.984 . S
H773 N767 0.985 . S
H774 N771 0.984 . S
H775 N771 0.985 . S
H776 N770 0.984 . S
H777 N770 0.984 . S
H778 N766 0.984 . S
H779 N766 0.985 . S
C780 C781 1.363 . S
C780 C786 1.379 1_565 S
C780 N788 1.356 . S
C781 C780 1.363 . S
C781 C787 1.363 1_565 S
C782 C783 1.363 . S
C782 C787 1.379 . S
C782 N789 1.356 . S
C783 C782 1.363 . S
C783 C786 1.363 . S
N784 C786 1.356 . S
N784 H796 0.984 . S
N784 H797 0.985 . S
N785 C787 1.356 1_565 S
N785 H790 0.984 . S
N785 H791 0.985 1_565 S
C786 C780 1.379 1_545 S
C786 C783 1.363 . S
C786 N784 1.356 . S
C787 C781 1.363 1_545 S
C787 C782 1.379 . S
C787 N785 1.356 1_545 S
N788 C780 1.356 . S
N788 H794 0.984 . S
N788 H795 0.984 . S
N789 C782 1.356 . S
N789 H792 0.984 . S
N789 H793 0.985 . S
H790 N785 0.984 . S
H791 N785 0.985 1_545 S
H792 N789 0.984 . S
H793 N789 0.985 . S
H794 N788 0.984 . S
H795 N788 0.984 . S
H796 N784 0.984 . S
H797 N784 0.985 . S
C798 C799 1.363 1_565 S
C798 C804 1.379 . S
C798 N806 1.356 1_565 S
C799 C798 1.363 1_545 S
C799 C805 1.363 1_545 S
C800 C801 1.363 . S
C800 C805 1.379 . S
C800 N807 1.356 . S
C801 C800 1.363 . S
C801 C804 1.363 . S
N802 C804 1.356 . S
N802 H814 0.984 . S
N802 H815 0.985 . S
N803 C805 1.356 1_545 S
N803 H808 0.984 . S
N803 H809 0.985 1_545 S
C804 C798 1.379 . S
C804 C801 1.363 . S
C804 N802 1.356 . S
C805 C799 1.363 1_565 S
C805 C800 1.379 . S
C805 N803 1.356 1_565 S
N806 C798 1.356 1_545 S
N806 H812 0.984 . S
N806 H813 0.984 . S
N807 C800 1.356 . S
N807 H810 0.984 . S
N807 H811 0.985 . S
H808 N803 0.984 . S
H809 N803 0.985 1_565 S
H810 N807 0.984 . S
H811 N807 0.985 . S
H812 N806 0.984 . S
H813 N806 0.984 . S
H814 N802 0.984 . S
H815 N802 0.985 . S
C816 C817 1.364 1_565 S
C816 C822 1.379 . S
C816 N824 1.356 1_565 S
C817 C816 1.364 1_545 S
C817 C823 1.364 1_545 S
C818 C819 1.363 . S
C818 C823 1.379 . S
C818 N825 1.356 . S
C819 C818 1.363 . S
C819 C822 1.363 . S
N820 C822 1.356 . S
N820 H832 0.984 . S
N820 H833 0.985 . S
N821 C823 1.356 . S
N821 H826 0.984 1_565 S
N821 H827 0.985 . S
C822 C816 1.379 . S
C822 C819 1.363 . S
C822 N820 1.356 . S
C823 C817 1.364 1_565 S
C823 C818 1.379 . S
C823 N821 1.356 . S
N824 C816 1.356 1_545 S
N824 H830 0.984 . S
N824 H831 0.984 . S
N825 C818 1.356 . S
N825 H828 0.984 . S
N825 H829 0.985 . S
H826 N821 0.984 1_545 S
H827 N821 0.985 . S
H828 N825 0.984 . S
H829 N825 0.985 . S
H830 N824 0.984 . S
H831 N824 0.984 . S
H832 N820 0.984 . S
H833 N820 0.985 . S
C834 C835 1.363 . S
C834 C840 1.379 1_565 S
C834 N842 1.356 . S
C835 C834 1.363 . S
C835 C841 1.363 1_565 S
C836 C837 1.363 . S
C836 C841 1.379 . S
C836 N843 1.356 . S
C837 C836 1.363 . S
C837 C840 1.363 . S
N838 C840 1.356 . S
N838 H850 0.984 . S
N838 H851 0.985 . S
N839 C841 1.356 1_565 S
N839 H844 0.984 . S
N839 H845 0.985 1_465 S
C840 C834 1.379 1_545 S
C840 C837 1.363 . S
C840 N838 1.356 . S
C841 C835 1.363 1_545 S
C841 C836 1.379 . S
C841 N839 1.356 1_545 S
N842 C834 1.356 . S
N842 H848 0.984 . S
N842 H849 0.984 . S
N843 C836 1.356 . S
N843 H846 0.984 . S
N843 H847 0.985 . S
H844 N839 0.984 . S
H845 N839 0.985 1_645 S
H846 N843 0.984 . S
H847 N843 0.985 . S
H848 N842 0.984 . S
H849 N842 0.984 . S
H850 N838 0.984 . S
H851 N838 0.985 . S
C852 C853 1.363 . S
C852 C858 1.379 . S
C852 N860 1.356 . S
C853 C852 1.363 . S
C853 C859 1.363 . S
C854 C855 1.363 . S
C854 C859 1.379 . S
C854 N861 1.356 . S
C855 C854 1.363 . S
C855 C858 1.363 . S
N856 C858 1.356 . S
N856 H868 0.984 . S
N856 H869 0.985 . S
N857 C859 1.356 . S
N857 H862 0.984 . S
N857 H863 0.985 . S
C858 C852 1.379 . S
C858 C855 1.363 . S
C858 N856 1.356 . S
C859 C853 1.363 . S
C859 C854 1.379 . S
C859 N857 1.356 . S
N860 C852 1.356 . S
N860 H866 0.984 . S
N860 H867 0.984 . S
N861 C854 1.356 . S
N861 H864 0.984 . S
N861 H865 0.985 . S
H862 N857 0.984 . S
H863 N857 0.985 . S
H864 N861 0.984 . S
H865 N861 0.985 . S
H866 N860 0.984 . S
H867 N860 0.984 . S
H868 N856 0.984 . S
H869 N856 0.985 . S
C870 C871 1.363 . S
C870 C876 1.379 . S
C870 N878 1.356 . S
C871 C870 1.363 . S
C871 C877 1.363 . S
C872 C873 1.363 . S
C872 C877 1.379 . S
C872 N879 1.356 . S
C873 C872 1.363 . S
C873 C876 1.363 . S
N874 C876 1.356 . S
N874 H886 0.984 . S
N874 H887 0.985 . S
N875 C877 1.356 . S
N875 H880 0.984 . S
N875 H881 0.985 . S
C876 C870 1.379 . S
C876 C873 1.363 . S
C876 N874 1.356 . S
C877 C871 1.363 . S
C877 C872 1.379 . S
C877 N875 1.356 . S
N878 C870 1.356 . S
N878 H884 0.984 . S
N878 H885 0.984 . S
N879 C872 1.356 . S
N879 H882 0.984 . S
N879 H883 0.985 . S
H880 N875 0.984 . S
H881 N875 0.985 . S
H882 N879 0.984 . S
H883 N879 0.985 . S
H884 N878 0.984 . S
H885 N878 0.984 . S
H886 N874 0.984 . S
H887 N874 0.985 . S
C888 C889 1.363 . S
C888 C894 1.379 . S
C888 N896 1.356 . S
C889 C888 1.363 . S
C889 C895 1.363 . S
C890 C891 1.363 . S
C890 C895 1.379 . S
C890 N897 1.356 . S
C891 C890 1.363 . S
C891 C894 1.363 . S
N892 C894 1.356 . S
N892 H904 0.984 . S
N892 H905 0.985 . S
N893 C895 1.356 . S
N893 H898 0.984 . S
N893 H899 0.985 . S
C894 C888 1.379 . S
C894 C891 1.363 . S
C894 N892 1.356 . S
C895 C889 1.363 . S
C895 C890 1.379 . S
C895 N893 1.356 . S
N896 C888 1.356 . S
N896 H902 0.984 . S
N896 H903 0.984 . S
N897 C890 1.356 . S
N897 H900 0.984 . S
N897 H901 0.985 . S
H898 N893 0.984 . S
H899 N893 0.985 . S
H900 N897 0.984 . S
H901 N897 0.985 . S
H902 N896 0.984 . S
H903 N896 0.984 . S
H904 N892 0.984 . S
H905 N892 0.985 . S
C906 C907 1.363 . S
C906 C912 1.379 . S
C906 N914 1.356 . S
C907 C906 1.363 . S
C907 C913 1.363 . S
C908 C909 1.363 . S
C908 C913 1.379 . S
C908 N915 1.356 . S
C909 C908 1.363 . S
C909 C912 1.363 . S
N910 C912 1.356 . S
N910 H922 0.984 . S
N910 H923 0.985 . S
N911 C913 1.356 . S
N911 H916 0.984 . S
N911 H917 0.985 . S
C912 C906 1.379 . S
C912 C909 1.363 . S
C912 N910 1.356 . S
C913 C907 1.363 . S
C913 C908 1.379 . S
C913 N911 1.356 . S
N914 C906 1.356 . S
N914 H920 0.984 . S
N914 H921 0.984 . S
N915 C908 1.356 . S
N915 H918 0.984 . S
N915 H919 0.985 . S
H916 N911 0.984 . S
H917 N911 0.985 . S
H918 N915 0.984 . S
H919 N915 0.985 . S
H920 N914 0.984 . S
H921 N914 0.984 . S
H922 N910 0.984 . S
H923 N910 0.985 . S
C924 C925 1.363 . S
C924 C930 1.379 . S
C924 N932 1.356 . S
C925 C924 1.363 . S
C925 C931 1.363 . S
C926 C927 1.363 . S
C926 C931 1.379 . S
C926 N933 1.356 . S
C927 C926 1.363 . S
C927 C930 1.363 . S
N928 C930 1.356 . S
N928 H940 0.984 . S
N928 H941 0.985 . S
N929 C931 1.356 . S
N929 H934 0.984 . S
N929 H935 0.985 . S
C930 C924 1.379 . S
C930 C927 1.363 . S
C930 N928 1.356 . S
C931 C925 1.363 . S
C931 C926 1.379 . S
C931 N929 1.356 . S
N932 C924 1.356 . S
N932 H938 0.984 . S
N932 H939 0.984 . S
N933 C926 1.356 . S
N933 H936 0.984 . S
N933 H937 0.985 . S
H934 N929 0.984 . S
H935 N929 0.985 . S
H936 N933 0.984 . S
H937 N933 0.985 . S
H938 N932 0.984 . S
H939 N932 0.984 . S
H940 N928 0.984 . S
H941 N928 0.985 . S
C942 C943 1.363 . S
C942 C948 1.379 . S
C942 N950 1.356 . S
C943 C942 1.363 . S
C943 C949 1.363 . S
C944 C945 1.363 . S
C944 C949 1.379 . S
C944 N951 1.356 . S
C945 C944 1.363 . S
C945 C948 1.363 . S
N946 C948 1.356 . S
N946 H958 0.984 . S
N946 H959 0.985 . S
N947 C949 1.356 . S
N947 H952 0.984 . S
N947 H953 0.985 . S
C948 C942 1.379 . S
C948 C945 1.363 . S
C948 N946 1.356 . S
C949 C943 1.363 . S
C949 C944 1.379 . S
C949 N947 1.356 . S
N950 C942 1.356 . S
N950 H956 0.984 . S
N950 H957 0.984 . S
N951 C944 1.356 . S
N951 H954 0.984 . S
N951 H955 0.985 . S
H952 N947 0.984 . S
H953 N947 0.985 . S
H954 N951 0.984 . S
H955 N951 0.985 . S
H956 N950 0.984 . S
H957 N950 0.984 . S
H958 N946 0.984 . S
H959 N946 0.985 . S
C960 C961 1.363 . S
C960 C966 1.379 . S
C960 N968 1.356 . S
C961 C960 1.363 . S
C961 C967 1.363 . S
C962 C963 1.363 . S
C962 C967 1.379 . S
C962 N969 1.356 . S
C963 C962 1.363 . S
C963 C966 1.363 . S
N964 C966 1.356 . S
N964 H976 0.984 . S
N964 H977 0.985 . S
N965 C967 1.356 . S
N965 H970 0.984 . S
N965 H971 0.985 . S
C966 C960 1.379 . S
C966 C963 1.363 . S
C966 N964 1.356 . S
C967 C961 1.363 . S
C967 C962 1.379 . S
C967 N965 1.356 . S
N968 C960 1.356 . S
N968 H974 0.984 . S
N968 H975 0.984 . S
N969 C962 1.356 . S
N969 H972 0.984 . S
N969 H973 0.985 . S
H970 N965 0.984 . S
H971 N965 0.985 . S
H972 N969 0.984 . S
H973 N969 0.985 . S
H974 N968 0.984 . S
H975 N968 0.984 . S
H976 N964 0.984 . S
H977 N964 0.985 . S
C978 C979 1.363 . S
C978 C984 1.379 . S
C978 N986 1.356 . S
C979 C978 1.363 . S
C979 C985 1.363 . S
C980 C981 1.363 . S
C980 C985 1.379 . S
C980 N987 1.356 . S
C981 C980 1.363 . S
C981 C984 1.363 . S
N982 C984 1.356 . S
N982 H994 0.984 . S
N982 H995 0.985 . S
N983 C985 1.356 . S
N983 H988 0.984 . S
N983 H989 0.985 . S
C984 C978 1.379 . S
C984 C981 1.363 . S
C984 N982 1.356 . S
C985 C979 1.363 . S
C985 C980 1.379 . S
C985 N983 1.356 . S
N986 C978 1.356 . S
N986 H992 0.984 . S
N986 H993 0.984 . S
N987 C980 1.356 . S
N987 H990 0.984 . S
N987 H991 0.985 . S
H988 N983 0.984 . S
H989 N983 0.985 . S
H990 N987 0.984 . S
H991 N987 0.985 . S
H992 N986 0.984 . S
H993 N986 0.984 . S
H994 N982 0.984 . S
H995 N982 0.985 . S
C567 C487 1.498 . S
C565 C31 1.669 . S
C585 C505 1.334 . S
C583 C91 1.460 . S
C601 C121 1.375 . S
C603 C529 1.446 . S
C621 C559 1.406 1_655 S
C619 C181 1.426 . S
C639 C547 1.452 . S
C637 C271 1.526 . S
C655 C301 1.392 . S
C657 C500 1.359 1_655 S
C673 C361 1.610 . S
C675 C520 1.498 . S
C691 C451 1.544 . S
C693 C525 1.406 . S
C709 C421 1.386 . S
C711 C541 1.350 . S
C727 C331 1.543 . S
C729 C496 1.398 . S
C747 C563 1.349 . S
C745 C211 1.467 . S
C765 C508 1.397 . S
C763 C61 1.419 . S
C781 C151 1.668 . S
C783 C526 1.495 . S
C799 C1 1.384 . S
C801 C484 1.453 . S
C819 C504 1.449 . S
C817 C391 1.518 . S
C837 C550 1.498 . S
C835 C241 1.622 . S
C855 C546 1.329 . S
C853 C20 1.491 . S
C873 C499 1.414 . S
C871 C80 1.454 . S
C889 C140 1.475 . S
C891 C521 1.308 . S
C907 C200 1.469 . S
C909 C542 1.422 . S
C927 C483 1.330 . S
C925 C260 1.523 . S
C943 C320 1.507 . S
C945 C517 1.441 . S
C963 C538 1.340 . S
C961 C380 1.532 . S
C981 C562 1.422 . S
C979 C440 1.488 . S
