# Generated by pormake.
# Topology pyr, (3,6)-cn, num edge types: 1
# Building blocks:
#     Node 0, Type 0, BuildingBlock: QEWDON_clean_linker_0, # of connection points: 3
#     Node 1, Type 0, BuildingBlock: QEWDON_clean_linker_0, # of connection points: 3
#     Node 2, Type 0, BuildingBlock: QEWDON_clean_linker_0, # of connection points: 3
#     Node 3, Type 0, BuildingBlock: QEWDON_clean_linker_0, # of connection points: 3
#     Node 4, Type 0, BuildingBlock: QEWDON_clean_linker_0, # of connection points: 3
#     Node 5, Type 0, BuildingBlock: QEWDON_clean_linker_0, # of connection points: 3
#     Node 6, Type 0, BuildingBlock: QEWDON_clean_linker_0, # of connection points: 3
#     Node 7, Type 0, BuildingBlock: QEWDON_clean_linker_0, # of connection points: 3
#     Node 8, Type 1, BuildingBlock: GEDQOX_clean_sbu_0, # of connection points: 6
#     Node 9, Type 1, BuildingBlock: GEDQOX_clean_sbu_0, # of connection points: 6
#     Node 10, Type 1, BuildingBlock: GEDQOX_clean_sbu_0, # of connection points: 6
#     Node 11, Type 1, BuildingBlock: GEDQOX_clean_sbu_0, # of connection points: 6
#     Edge 12, Type (0, 1), BuildingBlock: XUDNAN_clean_linker_2, # of connection points: 2
#     Edge 13, Type (0, 1), BuildingBlock: XUDNAN_clean_linker_2, # of connection points: 2
#     Edge 14, Type (0, 1), BuildingBlock: XUDNAN_clean_linker_2, # of connection points: 2
#     Edge 15, Type (0, 1), BuildingBlock: XUDNAN_clean_linker_2, # of connection points: 2
#     Edge 16, Type (0, 1), BuildingBlock: XUDNAN_clean_linker_2, # of connection points: 2
#     Edge 17, Type (0, 1), BuildingBlock: XUDNAN_clean_linker_2, # of connection points: 2
#     Edge 18, Type (0, 1), BuildingBlock: XUDNAN_clean_linker_2, # of connection points: 2
#     Edge 19, Type (0, 1), BuildingBlock: XUDNAN_clean_linker_2, # of connection points: 2
#     Edge 20, Type (0, 1), BuildingBlock: XUDNAN_clean_linker_2, # of connection points: 2
#     Edge 21, Type (0, 1), BuildingBlock: XUDNAN_clean_linker_2, # of connection points: 2
#     Edge 22, Type (0, 1), BuildingBlock: XUDNAN_clean_linker_2, # of connection points: 2
#     Edge 23, Type (0, 1), BuildingBlock: XUDNAN_clean_linker_2, # of connection points: 2
#     Edge 24, Type (0, 1), BuildingBlock: XUDNAN_clean_linker_2, # of connection points: 2
#     Edge 25, Type (0, 1), BuildingBlock: XUDNAN_clean_linker_2, # of connection points: 2
#     Edge 26, Type (0, 1), BuildingBlock: XUDNAN_clean_linker_2, # of connection points: 2
#     Edge 27, Type (0, 1), BuildingBlock: XUDNAN_clean_linker_2, # of connection points: 2
#     Edge 28, Type (0, 1), BuildingBlock: XUDNAN_clean_linker_2, # of connection points: 2
#     Edge 29, Type (0, 1), BuildingBlock: XUDNAN_clean_linker_2, # of connection points: 2
#     Edge 30, Type (0, 1), BuildingBlock: XUDNAN_clean_linker_2, # of connection points: 2
#     Edge 31, Type (0, 1), BuildingBlock: XUDNAN_clean_linker_2, # of connection points: 2
#     Edge 32, Type (0, 1), BuildingBlock: XUDNAN_clean_linker_2, # of connection points: 2
#     Edge 33, Type (0, 1), BuildingBlock: XUDNAN_clean_linker_2, # of connection points: 2
#     Edge 34, Type (0, 1), BuildingBlock: XUDNAN_clean_linker_2, # of connection points: 2
#     Edge 35, Type (0, 1), BuildingBlock: XUDNAN_clean_linker_2, # of connection points: 2
# Relax obj value: 0.229
# Max RMSD: 0.288
# Mean RMSD: 0.204
data_MOF--net-pyr--node1-GEDQOX_clean_sbu_0--node2-QEWDON_clean_linker_0--edge1-XUDNAN_clean_linker_2
_symmetry_space_group_name_H-M    P1
_symmetry_Int_Tables_number       1
_symmetry_cell_setting            triclinic
loop_
_symmetry_equiv_pos_as_xyz
'x, y, z'
_cell_length_a     38.268725
_cell_length_b     38.937887
_cell_length_c     37.567985
_cell_angle_alpha  87.948043
_cell_angle_beta   90.662379
_cell_angle_gamma 95.083158
loop_
_atom_site_label
_atom_site_type_symbol
_atom_site_fract_x
_atom_site_fract_y
_atom_site_fract_z
_atom_type_partial_charge
H0 H 0.30349 0.22273 0.18257 0.0
C1 C 0.28634 0.2111 0.20323 0.0
C2 C 0.2949 0.17963 0.22052 0.0
C3 C 0.25768 0.22951 0.21406 0.0
H4 H 0.27884 0.14312 0.2639 0.0
C5 C 0.27304 0.16665 0.24979 0.0
C6 C 0.24461 0.18431 0.26229 0.0
C7 C 0.23713 0.21529 0.24314 0.0
C8 C 0.2562 0.26763 0.20246 0.0
H9 H 0.21621 0.22978 0.25205 0.0
C10 C 0.22767 0.2832 0.18399 0.0
C11 C 0.22918 0.32021 0.17671 0.0
C12 C 0.28531 0.28973 0.2126 0.0
H13 H 0.30721 0.27946 0.22666 0.0
C14 C 0.28672 0.32519 0.20581 0.0
H15 H 0.20486 0.26696 0.1756 0.0
C16 C 0.25924 0.34015 0.1884 0.0
H17 H 0.26201 0.36782 0.18333 0.0
H18 H 0.30955 0.34141 0.21421 0.0
H19 H 0.38963 0.84456 0.89376 0.0
C20 C 0.40379 0.83275 0.87328 0.0
C21 C 0.44039 0.83861 0.87191 0.0
C22 C 0.38541 0.81123 0.84896 0.0
H23 H 0.48716 0.82662 0.84559 0.0
C24 C 0.45878 0.82274 0.84583 0.0
C25 C 0.4408 0.80178 0.82048 0.0
C26 C 0.40396 0.79638 0.82225 0.0
C27 C 0.34687 0.80382 0.85205 0.0
H28 H 0.38959 0.78033 0.80309 0.0
C29 C 0.325 0.80607 0.8219 0.0
C30 C 0.28826 0.80033 0.82497 0.0
C31 C 0.33174 0.79489 0.88539 0.0
H32 H 0.34802 0.7926 0.90898 0.0
C33 C 0.29544 0.78857 0.88855 0.0
H34 H 0.33664 0.8128 0.79615 0.0
C35 C 0.27377 0.79141 0.85866 0.0
H36 H 0.24565 0.78738 0.86213 0.0
H37 H 0.28402 0.7818 0.91436 0.0
H38 H 0.77637 0.55802 0.97031 0.0
C39 C 0.768 0.53344 0.98325 0.0
C40 C 0.79248 0.51272 0.99962 0.0
C41 C 0.73238 0.52225 0.98179 0.0
H42 H 0.79813 0.46267 1.0256 0.0
C43 C 0.78014 0.47956 1.01335 0.0
C44 C 0.74448 0.4674 1.00999 0.0
C45 C 0.7207 0.48942 0.99511 0.0
C46 C 0.70779 0.54341 0.96273 0.0
H47 H 0.6931 0.48061 0.99275 0.0
C48 C 0.70481 0.54196 0.92563 0.0
C49 C 0.68018 0.56048 0.90682 0.0
C50 C 0.68674 0.56417 0.98133 0.0
H51 H 0.68881 0.56544 1.01005 0.0
C52 C 0.66276 0.58333 0.96283 0.0
H53 H 0.72156 0.52603 0.91159 0.0
C54 C 0.65931 0.58143 0.92584 0.0
H55 H 0.6397 0.59565 0.91233 0.0
H56 H 0.64642 0.59929 0.97725 0.0
H57 H 0.89401 0.92618 0.27303 0.0
C58 C 0.87492 0.90828 0.28666 0.0
C59 C 0.87631 0.90429 0.32401 0.0
C60 C 0.84947 0.88859 0.26685 0.0
H61 H 0.85333 0.87684 0.37007 0.0
C62 C 0.85204 0.8804 0.34135 0.0
C63 C 0.8267 0.86043 0.32197 0.0
C64 C 0.82528 0.86504 0.28484 0.0
C65 C 0.84906 0.89091 0.22729 0.0
H66 H 0.80577 0.84958 0.26979 0.0
C67 C 0.84425 0.8606 0.20792 0.0
C68 C 0.84349 0.86188 0.17052 0.0
C69 C 0.85345 0.9229 0.20864 0.0
H70 H 0.85698 0.9467 0.22283 0.0
C71 C 0.85282 0.92439 0.17138 0.0
H72 H 0.84223 0.83574 0.22205 0.0
C73 C 0.84797 0.89409 0.15234 0.0
H74 H 0.84763 0.89582 0.1235 0.0
H75 H 0.85613 0.94914 0.1572 0.0
H76 H 0.90974 0.84824 0.92836 0.0
C77 C 0.92008 0.86353 0.90558 0.0
C78 C 0.95209 0.85531 0.89025 0.0
C79 C 0.90058 0.8907 0.89163 0.0
H80 H 0.98831 0.86936 0.84694 0.0
C81 C 0.96422 0.8752 0.85924 0.0
C82 C 0.94582 0.90246 0.84376 0.0
C83 C 0.91392 0.90953 0.86072 0.0
C84 C 0.8623 0.89224 0.90315 0.0
H85 H 0.89806 0.92857 0.84869 0.0
C86 C 0.84764 0.91896 0.92296 0.0
C87 C 0.81045 0.91676 0.93148 0.0
C88 C 0.83927 0.8642 0.89296 0.0
H89 H 0.84888 0.84362 0.87816 0.0
C90 C 0.80381 0.86191 0.90122 0.0
H91 H 0.86467 0.94089 0.9314 0.0
C92 C 0.78972 0.88749 0.92002 0.0
H93 H 0.76203 0.8838 0.92623 0.0
H94 H 0.7869 0.83978 0.89301 0.0
H95 H 0.68933 0.27129 0.43393 0.0
C96 C 0.6885 0.26312 0.40665 0.0
C97 C 0.71452 0.24306 0.39433 0.0
C98 C 0.66075 0.27189 0.38422 0.0
H99 H 0.73165 0.21591 0.34928 0.0
C100 C 0.71253 0.23219 0.35895 0.0
C101 C 0.68553 0.24156 0.33598 0.0
C102 C 0.65999 0.26158 0.34874 0.0
C103 C 0.63121 0.28984 0.39804 0.0
H104 H 0.63876 0.26829 0.33119 0.0
C105 C 0.63715 0.31856 0.41984 0.0
C106 C 0.60878 0.33585 0.43185 0.0
C107 C 0.59652 0.27809 0.38908 0.0
H108 H 0.59103 0.25567 0.373 0.0
C109 C 0.56845 0.29493 0.40091 0.0
H110 H 0.66378 0.32754 0.42713 0.0
C111 C 0.57444 0.32369 0.42186 0.0
H112 H 0.55204 0.33672 0.42968 0.0
H113 H 0.5419 0.28579 0.39356 0.0
H114 H 0.42898 0.64068 0.26041 0.0
C115 C 0.40514 0.64064 0.24453 0.0
C116 C 0.40473 0.66113 0.21302 0.0
C117 C 0.37523 0.61924 0.25488 0.0
H118 H 0.37402 0.67593 0.16767 0.0
C119 C 0.37404 0.6603 0.19209 0.0
C120 C 0.34338 0.64016 0.20267 0.0
C121 C 0.34437 0.61969 0.23421 0.0
C122 C 0.37612 0.59547 0.28659 0.0
H123 H 0.32091 0.60445 0.2433 0.0
C124 C 0.39042 0.60679 0.31934 0.0
C125 C 0.38964 0.58413 0.34946 0.0
C126 C 0.36197 0.56105 0.28411 0.0
H127 H 0.35127 0.55154 0.25914 0.0
C128 C 0.36175 0.53842 0.31369 0.0
H129 H 0.40097 0.63339 0.32168 0.0
C130 C 0.37536 0.54982 0.34617 0.0
H131 H 0.37497 0.53167 0.36873 0.0
H132 H 0.35094 0.51194 0.31145 0.0
H133 H 0.31291 0.24098 0.84377 0.0
C134 C 0.29931 0.22677 0.82271 0.0
C135 C 0.3116 0.23155 0.78776 0.0
C136 C 0.26789 0.20616 0.83007 0.0
H137 H 0.30398 0.21656 0.73366 0.0
C138 C 0.29387 0.21341 0.76053 0.0
C139 C 0.26193 0.19374 0.76686 0.0
C140 C 0.24939 0.18956 0.80191 0.0
C141 C 0.25169 0.2065 0.86582 0.0
H142 H 0.22404 0.17562 0.80686 0.0
C143 C 0.25143 0.23783 0.88322 0.0
C144 C 0.23345 0.23991 0.91543 0.0
C145 C 0.23461 0.17651 0.88171 0.0
H146 H 0.23443 0.15198 0.86897 0.0
C147 C 0.21754 0.17802 0.91425 0.0
H148 H 0.26464 0.26095 0.87103 0.0
C149 C 0.21671 0.20948 0.93095 0.0
H150 H 0.20223 0.21002 0.95548 0.0
H151 H 0.20436 0.1548 0.92629 0.0
Nd152 Nd 0.1 1.01614 0.54133 0.0
Nd153 Nd 0.05599 0.07304 0.54624 0.0
C154 C 0.12482 0.95524 0.53746 0.0
C155 C 0.13503 0.92866 0.56344 0.0
C156 C 0.11375 0.91795 0.59276 0.0
C157 C 0.12583 0.8957 0.61925 0.0
C158 C 0.1595 0.8842 0.61705 0.0
C159 C 0.18023 0.89409 0.58717 0.0
C160 C 0.16801 0.91602 0.56053 0.0
C161 C 0.1317 0.06965 0.57843 0.0
C162 C 1.04672 1.01542 0.61262 0.0
C163 C 1.02489 0.13128 0.54848 0.0
C164 C 0.99224 0.14451 0.53486 0.0
C165 C 0.97716 0.13392 0.50234 0.0
C166 C 0.94506 0.14536 0.49097 0.0
C167 C 0.92734 0.1672 0.51216 0.0
C168 C 0.94275 0.17794 0.54453 0.0
C169 C 0.97492 0.16674 0.5557 0.0
C170 C 1.0261 0.02055 0.50511 0.0
C171 C 0.11713 0.07902 0.48299 0.0
O172 O 0.09135 0.95969 0.53455 0.0
O173 O 0.14478 0.98428 0.53717 0.0
O174 O 0.14841 0.05153 0.55718 0.0
O175 O 0.10012 0.05811 0.58156 0.0
O176 O 0.06564 0.99672 0.59235 0.0
O177 O 1.04253 0.04761 0.60194 0.0
O178 O 1.04881 0.12607 0.52526 0.0
O179 O 1.02106 0.10661 0.57282 0.0
O180 O 1.00866 0.03715 0.52706 0.0
O181 O 0.05755 0.03264 0.50472 0.0
O182 O 0.10043 0.09599 0.50681 0.0
O183 O 0.11665 0.04497 0.48722 0.0
H184 H 0.0883 0.92757 0.59582 0.0
H185 H 0.1095 0.88873 0.64222 0.0
H186 H 0.20618 0.88537 0.58478 0.0
H187 H 0.18483 0.92404 0.53819 0.0
H188 H 0.98989 0.1164 0.48603 0.0
H189 H 0.93365 0.13638 0.46609 0.0
H190 H 0.9299 0.19502 0.56123 0.0
H191 H 0.98609 0.17507 0.58094 0.0
Nd192 Nd 0.56876 0.03789 0.11857 0.0
Nd193 Nd 0.56731 0.07942 0.06199 0.0
C194 C 0.56633 0.98647 0.16717 0.0
C195 C 0.56067 0.94858 0.16961 0.0
C196 C 0.57771 0.92753 0.14705 0.0
C197 C 0.57016 0.89166 0.14906 0.0
C198 C 0.54518 0.87629 0.17337 0.0
C199 C 0.52855 0.89767 0.19606 0.0
C200 C 0.53638 0.93333 0.19431 0.0
C201 C 0.51646 0.08373 0.12905 0.0
C202 C 0.53242 1.00591 0.04758 0.0
C203 C 0.56579 0.13478 1.01883 0.0
C204 C 0.58226 0.17041 1.02123 0.0
C205 C 0.58197 0.18802 0.05323 0.0
C206 C 0.60133 0.21993 0.05658 0.0
C207 C 0.62137 0.23494 1.02801 0.0
C208 C 0.62072 0.21776 0.99564 0.0
C209 C 0.6014 0.18578 0.99234 0.0
C210 C 0.62096 0.03586 0.05088 0.0
C211 C 0.61395 0.10634 0.13126 0.0
O212 O 0.59541 1.00042 0.15306 0.0
O213 O 0.53922 1.00248 0.15723 0.0
O214 O 0.54259 0.07836 0.15013 0.0
O215 O 0.52066 0.06746 0.1005 0.0
O216 O 0.55168 0.99957 0.07569 0.0
O217 O 0.52845 0.03808 0.03804 0.0
O218 O 0.54102 0.12492 0.04149 0.0
O219 O 0.58742 0.11125 1.01507 0.0
O220 O 0.59716 0.04338 1.02775 0.0
O221 O 0.6153 0.05032 0.08022 0.0
O222 O 0.59585 0.11553 0.10307 0.0
O223 O 0.61177 0.07396 0.14184 0.0
H224 H 0.59646 0.93876 0.1276 0.0
H225 H 0.58371 0.87604 0.13139 0.0
H226 H 0.50855 0.88706 0.2145 0.0
H227 H 0.52278 0.94916 0.21177 0.0
H228 H 0.56753 0.17676 0.07604 0.0
H229 H 0.60083 0.23274 0.08167 0.0
H230 H 0.63607 0.22848 0.9732 0.0
H231 H 0.60225 0.17255 0.96751 0.0
Nd232 Nd 0.53257 0.57389 0.62495 0.0
Nd233 Nd 0.59492 0.61964 0.60022 0.0
C234 C 0.47187 0.54244 0.64588 0.0
C235 C 0.46057 0.5083 0.66137 0.0
C236 C 0.42551 0.50045 0.67098 0.0
C237 C 0.41491 0.46865 0.68759 0.0
C238 C 0.43931 0.44427 0.69493 0.0
C239 C 0.47449 0.45227 0.68509 0.0
C240 C 0.48503 0.48406 0.66835 0.0
C241 C 0.59221 0.56508 0.66432 0.0
C242 C 0.54328 0.65206 0.65156 0.0
C243 C 0.65736 0.65041 0.58414 0.0
C244 C 0.6754 0.66267 0.55138 0.0
C245 C 0.66156 0.65323 0.51805 0.0
C246 C 0.6761 0.66885 0.48691 0.0
C247 C 0.7045 0.69429 0.48873 0.0
C248 C 0.71904 0.70257 0.52226 0.0
C249 C 0.70456 0.68687 0.55332 0.0
C250 C 0.53603 0.6259 0.55831 0.0
C251 C 0.58476 0.5394 0.5735 0.0
O252 O 0.49231 0.56203 0.6663 0.0
O253 O 0.4823 0.5435 0.6128 0.0
O254 O 0.56993 0.54009 0.65472 0.0
O255 O 0.58236 0.59383 0.6538 0.0
O256 O 0.51985 0.62874 0.63868 0.0
O257 O 0.57689 0.64999 0.6462 0.0
O258 O 0.65139 0.61698 0.58905 0.0
O259 O 0.63046 0.66705 0.59196 0.0
O260 O 0.56005 0.651 0.56254 0.0
O261 O 0.54584 0.59848 0.5718 0.0
O262 O 0.60657 0.56711 0.57855 0.0
O263 O 0.5525 0.53675 0.5859 0.0
H264 H 0.40643 0.51907 0.66605 0.0
H265 H 0.38771 0.46338 0.69526 0.0
H266 H 0.49376 0.43386 0.69006 0.0
H267 H 0.51229 0.48986 0.66112 0.0
H268 H 0.63883 0.63468 0.51619 0.0
H269 H 0.66458 0.66164 0.46148 0.0
H270 H 0.74054 0.72242 0.52469 0.0
H271 H 0.71526 0.69465 0.57893 0.0
Nd272 Nd 0.05203 0.5753 0.05694 0.0
Nd273 Nd 0.11118 0.58389 1.00456 0.0
C274 C 0.98927 0.57426 0.08541 0.0
C275 C 0.96421 0.60086 0.08545 0.0
C276 C 0.92823 0.59212 0.08008 0.0
C277 C 0.90461 0.61766 0.08014 0.0
C278 C 0.9167 0.65235 0.08555 0.0
C279 C 0.95296 0.66092 0.08982 0.0
C280 C 0.97641 0.63557 0.08948 0.0
C281 C 0.11358 0.60379 0.08438 0.0
C282 C 0.06138 0.64744 1.00219 0.0
C283 C 0.17221 0.58134 0.97409 0.0
C284 C 0.19077 0.55014 0.96865 0.0
C285 C 0.21351 0.53813 0.99509 0.0
C286 C 0.22434 0.50478 0.99414 0.0
C287 C 0.21267 0.48277 0.96675 0.0
C288 C 0.19182 0.49573 0.93915 0.0
C289 C 0.18132 0.52905 0.9399 0.0
C290 C 1.04836 0.55449 0.97847 0.0
C291 C 0.10477 0.51302 0.06033 0.0
O292 O 0.99451 0.56141 0.05448 0.0
O293 O 1.01838 0.58085 0.10353 0.0
O294 O 0.09244 0.58162 0.10201 0.0
O295 O 0.10127 0.6116 0.05413 0.0
O296 O 1.04039 0.62632 1.02304 0.0
O297 O 0.09329 0.63884 0.99491 0.0
O298 O 0.1693 0.59005 1.00724 0.0
O299 O 0.14307 0.58358 0.95582 0.0
O300 O 0.06907 0.57677 0.96046 0.0
O301 O 0.06243 0.54759 1.00801 0.0
O302 O 0.1231 0.53281 0.03633 0.0
O303 O 0.07392 0.52195 0.07113 0.0
H304 H 0.91841 0.56557 0.07601 0.0
H305 H 0.87693 0.61022 0.07621 0.0
H306 H 0.96336 0.68713 0.09464 0.0
H307 H 1.00414 0.64315 0.09289 0.0
H308 H 0.22152 0.55382 1.0175 0.0
H309 H 0.24106 0.49597 1.0154 0.0
H310 H 0.18188 0.47958 0.91777 0.0
H311 H 0.16396 0.53742 0.91898 0.0
H312 H 0.22556 0.11687 0.294 0.0
H313 H 0.21898 0.22557 0.31259 0.0
H314 H 0.18692 0.21022 0.36777 0.0
H315 H 0.13915 0.08649 0.32974 0.0
H316 H 0.15316 0.04771 0.35093 0.0
H317 H 0.17559 0.06643 0.31199 0.0
H318 H 0.23443 0.0692 0.34657 0.0
H319 H 0.21217 0.05047 0.38562 0.0
H320 H 0.23838 0.09114 0.38807 0.0
H321 H 0.1547 0.18396 0.42245 0.0
H322 H 0.12587 0.14916 0.47145 0.0
H323 H 0.15208 0.05572 0.42223 0.0
C324 C 0.21749 0.13759 0.30958 0.0
C325 C 0.22482 0.1729 0.29722 0.0
C326 C 0.21333 0.19846 0.31954 0.0
C327 C 0.19514 0.18994 0.35166 0.0
C328 C 0.18809 0.15536 0.36258 0.0
C329 C 0.19896 0.12943 0.34232 0.0
C330 C 0.18778 0.09426 0.36087 0.0
C331 C 0.16242 0.07242 0.33695 0.0
C332 C 0.22012 0.07512 0.37087 0.0
C333 C 0.16905 0.10454 0.3945 0.0
C334 C 0.1697 0.14007 0.39466 0.0
C335 C 0.15419 0.15613 0.4224 0.0
C336 C 0.13766 0.13586 0.45047 0.0
C337 C 0.13617 0.0992 0.45171 0.0
C338 C 0.15246 0.08351 0.42284 0.0
H339 H 0.42955 0.90459 0.88978 0.0
H340 H 0.49359 0.82041 0.91524 0.0
H341 H 0.52318 0.8542 0.96316 0.0
H342 H 0.49874 0.97342 0.90467 0.0
H343 H 0.46947 1.00176 0.92322 0.0
H344 H 0.45334 0.97103 0.89086 0.0
H345 H 0.4053 0.94599 0.93494 0.0
H346 H 0.42143 0.97646 0.96754 0.0
H347 H 0.41788 0.93089 0.97877 0.0
H348 H 0.54303 0.89491 1.00992 0.0
H349 H 0.5573 0.94282 0.04968 0.0
H350 H 0.48321 1.00337 0.99252 0.0
C351 C 0.44993 0.89346 0.90544 0.0
C352 C 0.45939 0.85993 0.89901 0.0
C353 C 0.48625 0.84614 0.9197 0.0
C354 C 0.503 0.86505 0.94702 0.0
C355 C 0.49287 0.89786 0.95294 0.0
C356 C 0.46737 0.91225 0.93247 0.0
C357 C 0.46211 0.9484 0.94409 0.0
C358 C 0.47148 0.97524 0.91391 0.0
C359 C 0.42444 0.95054 0.95711 0.0
C360 C 0.48837 0.95187 0.9746 0.0
C361 C 0.50548 0.92218 0.97931 0.0
C362 C 0.53007 0.91841 1.00632 0.0
C363 C 0.53782 0.94583 1.02892 0.0
C364 C 0.5214 0.97698 1.02423 0.0
C365 C 0.49627 0.97998 0.99666 0.0
H366 H 0.66574 0.61008 0.85578 0.0
H367 H 0.68186 0.50135 0.86975 0.0
H368 H 0.67059 0.49352 0.80591 0.0
H369 H 0.59346 0.59799 0.79947 0.0
H370 H 0.60391 0.63621 0.77179 0.0
H371 H 0.61899 0.63471 0.81727 0.0
H372 H 0.68299 0.64949 0.79612 0.0
H373 H 0.66803 0.6508 0.75044 0.0
H374 H 0.70124 0.62287 0.76407 0.0
H375 H 0.6504 0.49525 0.74319 0.0
H376 H 0.62001 0.50621 0.68614 0.0
H377 H 0.61601 0.61342 0.71209 0.0
C378 C 0.6673 0.5847 0.84536 0.0
C379 C 0.67519 0.55646 0.86785 0.0
C380 C 0.67683 0.52365 0.85306 0.0
C381 C 0.67037 0.51887 0.81676 0.0
C382 C 0.66233 0.54713 0.79548 0.0
C383 C 0.66072 0.57942 0.80916 0.0
C384 C 0.64803 0.60462 0.78127 0.0
C385 C 0.61409 0.61921 0.79316 0.0
C386 C 0.6768 0.63366 0.77246 0.0
C387 C 0.64137 0.58104 0.75025 0.0
C388 C 0.65042 0.54814 0.75887 0.0
C389 C 0.64382 0.52103 0.73583 0.0
C390 C 0.62655 0.52746 0.70355 0.0
C391 C 0.61606 0.56065 0.69476 0.0
C392 C 0.6245 0.58799 0.71789 0.0
H393 H 0.88321 0.84457 0.11507 0.0
H394 H 0.79742 0.80509 0.18358 0.0
H395 H 0.79935 0.74732 0.15908 0.0
H396 H 0.85907 0.78473 0.03758 0.0
H397 H 0.905 0.78202 1.02929 0.0
H398 H 0.89035 0.821 0.04598 0.0
H399 H 0.93486 0.81687 0.09846 0.0
H400 H 0.94839 0.77741 0.08219 0.0
H401 H 0.93234 0.77851 0.12703 0.0
H402 H 0.81842 0.69261 0.13693 0.0
H403 H 0.85311 0.64575 0.11938 0.0
H404 H 0.92524 0.72053 0.0632 0.0
C405 C 0.86385 0.8241 0.12373 0.0
C406 C 0.8401 0.82926 0.15107 0.0
C407 C 0.81589 0.8016 0.16266 0.0
C408 C 0.81661 0.76878 0.14869 0.0
C409 C 0.84138 0.76413 0.1228 0.0
C410 C 0.86429 0.79116 0.11008 0.0
C411 C 0.89129 0.77857 0.0857 0.0
C412 C 0.88609 0.79238 0.04736 0.0
C413 C 0.92891 0.78841 0.09919 0.0
C414 C 0.8817 0.74001 0.08892 0.0
C415 C 0.85224 0.73224 0.10961 0.0
C416 C 0.84089 0.69832 0.11981 0.0
C417 C 0.86077 0.67178 0.1096 0.0
C418 C 0.89192 0.67932 0.08971 0.0
C419 C 0.90153 0.71381 0.0782 0.0
H420 H 0.33093 0.17668 0.15371 0.0
H421 H 0.33789 0.14309 0.26491 0.0
H422 H 0.39072 0.11481 0.25198 0.0
H423 H 0.36295 0.0992 0.11624 0.0
H424 H 0.38851 0.12225 0.08156 0.0
H425 H 0.35015 0.13985 0.09835 0.0
H426 H 0.38746 0.19616 0.11298 0.0
H427 H 0.4259 0.17877 0.09615 0.0
H428 H 0.42596 0.19419 0.14082 0.0
H429 H 0.44462 0.09047 0.22868 0.0
H430 H 0.49523 0.07238 0.19721 0.0
H431 H 0.45861 0.11963 0.09889 0.0
C432 C 0.34341 0.16339 0.1755 0.0
C433 C 0.32843 0.16213 0.21068 0.0
C434 C 0.3468 0.14417 0.23765 0.0
C435 C 0.37759 0.12803 0.23057 0.0
C436 C 0.39111 0.12951 0.19607 0.0
C437 C 0.37475 0.14676 0.1688 0.0
C438 C 0.39576 0.14436 0.13416 0.0
C439 C 0.37298 0.12529 0.10589 0.0
C440 C 0.40958 0.18053 0.12019 0.0
C441 C 0.42635 0.12321 0.14633 0.0
C442 C 0.42274 0.11517 0.18234 0.0
C443 C 0.44742 0.09664 0.20048 0.0
C444 C 0.47649 0.08635 0.18203 0.0
C445 C 0.48186 0.09385 0.14502 0.0
C446 C 0.45573 0.11261 0.1269 0.0
H447 H 0.29692 0.8498 0.77117 0.0
H448 H 0.22679 0.76211 0.80762 0.0
H449 H 0.18667 0.77272 0.75723 0.0
H450 H 0.23254 0.90375 0.74321 0.0
H451 H 0.25616 0.92155 0.70459 0.0
H452 H 0.27981 0.90625 0.74279 0.0
H453 H 0.31091 0.86537 0.70308 0.0
H454 H 0.28745 0.88067 0.66467 0.0
H455 H 0.28493 0.83517 0.67613 0.0
H456 H 0.15244 0.79546 0.70472 0.0
H457 H 0.12846 0.82696 0.65272 0.0
H458 H 0.22286 0.89731 0.64969 0.0
C459 C 0.27355 0.83228 0.76825 0.0
C460 C 0.26507 0.80512 0.79348 0.0
C461 C 0.23368 0.78341 0.78897 0.0
C462 C 0.21083 0.78907 0.76028 0.0
C463 C 0.21992 0.81629 0.73615 0.0
C464 C 0.25071 0.83732 0.73968 0.0
C465 C 0.2542 0.86521 0.71058 0.0
C466 C 0.25575 0.90131 0.72624 0.0
C467 C 0.28627 0.86135 0.68723 0.0
C468 C 0.22032 0.85692 0.69035 0.0
C469 C 0.20081 0.82868 0.70549 0.0
C470 C 0.16769 0.81733 0.69237 0.0
C471 C 0.15424 0.83538 0.663 0.0
C472 C 0.17405 0.86419 0.64705 0.0
C473 C 0.20752 0.87488 0.6609 0.0
H474 H 0.85086 0.47422 1.00137 0.0
H475 H 0.82248 0.58017 0.99956 0.0
H476 H 0.88367 0.60086 0.98805 0.0
H477 H 0.93292 0.49747 0.05228 0.0
H478 H 0.95566 0.46494 1.03156 0.0
H479 H 0.90897 0.45824 0.0382 0.0
H480 H 0.90045 0.44793 0.97072 0.0
H481 H 0.94699 0.45565 0.96369 0.0
H482 H 0.91715 0.48082 0.93878 0.0
H483 H 0.94617 0.60964 0.96784 0.0
H484 H 1.0099 0.60786 0.96003 0.0
H485 H 1.00052 0.49862 0.98884 0.0
C486 C 0.85715 0.50182 0.99934 0.0
C487 C 0.83074 0.52522 0.99953 0.0
C488 C 0.84125 0.56121 0.9972 0.0
C489 C 0.87621 0.57344 0.99099 0.0
C490 C 0.90092 0.54957 0.98891 0.0
C491 C 0.89225 0.5147 0.99482 0.0
C492 C 0.92466 0.49493 0.99452 0.0
C493 C 0.93092 0.47789 1.03133 0.0
C494 C 0.92214 0.46826 0.96517 0.0
C495 C 0.95258 0.52407 0.98613 0.0
C496 C 0.93808 0.55525 0.98213 0.0
C497 C 0.95803 0.58556 0.9719 0.0
C498 C 0.99414 0.58426 0.96732 0.0
C499 C 1.01001 0.55327 0.97459 0.0
C500 C 0.9889 0.52265 0.98337 0.0
H501 H 0.84314 0.81475 0.37531 0.0
H502 H 0.75609 0.84594 0.31037 0.0
H503 H 0.71613 0.80204 0.34206 0.0
H504 H 0.81433 0.7227 0.38253 0.0
H505 H 0.82901 0.71866 0.42813 0.0
H506 H 0.85124 0.75029 0.39813 0.0
H507 H 0.84099 0.79857 0.44161 0.0
H508 H 0.81891 0.76712 0.47177 0.0
H509 H 0.79701 0.80387 0.45583 0.0
H510 H 0.68511 0.75807 0.38387 0.0
H511 H 0.6649 0.71883 0.43387 0.0
H512 H 0.7725 0.71615 0.47108 0.0
C513 C 0.81567 0.81237 0.36772 0.0
C514 C 0.80268 0.83376 0.34041 0.0
C515 C 0.76664 0.82954 0.33097 0.0
C516 C 0.74378 0.80473 0.34882 0.0
C517 C 0.75744 0.78425 0.37582 0.0
C518 C 0.79256 0.78781 0.38521 0.0
C519 C 0.80032 0.764 0.41645 0.0
C520 C 0.8252 0.73733 0.40565 0.0
C521 C 0.81517 0.78463 0.44829 0.0
C522 C 0.76388 0.74719 0.42387 0.0
C523 C 0.73958 0.75886 0.39987 0.0
C524 C 0.70395 0.74835 0.40251 0.0
C525 C 0.69276 0.72586 0.43089 0.0
C526 C 0.71714 0.71426 0.45632 0.0
C527 C 0.75321 0.72461 0.45217 0.0
H528 H 0.19727 0.37862 0.19608 0.0
H529 H 0.20236 0.31016 0.10835 0.0
H530 H 0.17056 0.35057 0.06993 0.0
H531 H 0.10883 0.40649 0.17465 0.0
H532 H 0.1204 0.45002 0.18816 0.0
H533 H 0.14159 0.41481 0.20888 0.0
H534 H 0.20216 0.44546 0.19187 0.0
H535 H 0.18106 0.48059 0.17096 0.0
H536 H 0.21098 0.45781 0.14592 0.0
H537 H 0.1437 0.4039 0.03842 0.0
H538 H 0.11837 0.45836 1.02022 0.0
H539 H 0.12622 0.49115 0.1291 0.0
C540 C 0.19081 0.37148 0.16905 0.0
C541 C 0.20212 0.34017 0.15586 0.0
C542 C 0.19352 0.33294 0.11986 0.0
C543 C 0.17573 0.35626 0.09757 0.0
C544 C 0.16591 0.38712 0.11127 0.0
C545 C 0.1726 0.39434 0.14655 0.0
C546 C 0.1596 0.42936 0.15486 0.0
C547 C 0.1309 0.4249 0.18334 0.0
C548 C 0.19027 0.4548 0.1666 0.0
C549 C 0.1446 0.44099 0.11887 0.0
C550 C 0.14901 0.41645 0.09388 0.0
C551 C 0.13949 0.42259 0.05822 0.0
C552 C 0.12498 0.45384 0.04801 0.0
C553 C 0.11892 0.47908 0.07311 0.0
C554 C 0.12916 0.47222 0.10919 0.0
H555 H 0.70272 0.4237 0.96951 0.0
H556 H 0.75779 0.42896 0.07097 0.0
H557 H 0.73329 0.36921 0.08662 0.0
H558 H 0.62436 0.37806 1.00112 0.0
H559 H 0.6174 0.3527 0.96204 0.0
H560 H 0.64071 0.3949 0.95858 0.0
H561 H 0.69362 0.36884 0.93065 0.0
H562 H 0.67044 0.32654 0.93393 0.0
H563 H 0.71333 0.33408 0.95399 0.0
H564 H 0.69976 0.30958 0.09181 0.0
H565 H 0.66287 0.25469 0.08518 0.0
H566 H 0.62981 0.28996 0.98025 0.0
C567 C 0.70963 0.41233 0.99509 0.0
C568 C 0.73189 0.43102 1.01922 0.0
C569 C 0.74085 0.41501 0.0521 0.0
C570 C 0.72694 0.3812 0.06121 0.0
C571 C 0.70445 0.36379 0.03698 0.0
C572 C 0.69614 0.37881 1.00447 0.0
C573 C 0.67114 0.35507 0.98317 0.0
C574 C 0.63635 0.37114 0.97581 0.0
C575 C 0.68816 0.34557 0.94838 0.0
C576 C 0.66623 0.32432 1.00889 0.0
C577 C 0.68562 0.32975 0.03979 0.0
C578 C 0.6846 0.30508 0.06767 0.0
C579 C 0.66337 0.27409 0.06375 0.0
C580 C 0.64344 0.268 1.03217 0.0
C581 C 0.64505 0.29359 1.0045 0.0
H582 H 0.86877 0.93724 0.38633 0.0
H583 H 0.94666 0.91347 0.31008 0.0
H584 H 0.99364 0.94011 0.3486 0.0
H585 H 0.91192 0.01981 0.41178 0.0
H586 H 0.89926 1.01355 0.45778 0.0
H587 H 0.87198 0.99395 0.42335 0.0
H588 H 0.8755 0.93405 0.45494 0.0
H589 H 0.90312 0.9534 0.48925 0.0
H590 H 0.91784 0.91872 0.46439 0.0
H591 H 1.03214 0.9664 0.39701 0.0
H592 H 0.05929 0.99507 0.44937 0.0
H593 H 0.95612 1.00184 0.49395 0.0
C594 C 0.89572 0.93783 0.37766 0.0
C595 C 0.90413 0.92333 0.34521 0.0
C596 C 0.93964 0.92482 0.33461 0.0
C597 C 0.96647 0.93963 0.35644 0.0
C598 C 0.95729 0.95297 0.38864 0.0
C599 C 0.92275 0.95259 0.39903 0.0
C600 C 0.91989 0.96854 0.43495 0.0
C601 C 0.89957 1.00089 0.43176 0.0
C602 C 0.9031 0.94209 0.4625 0.0
C603 C 0.95827 0.97776 0.44333 0.0
C604 C 0.97942 0.96842 0.41634 0.0
C605 C 1.01584 0.97401 0.41819 0.0
C606 C 1.031 0.99018 0.44808 0.0
C607 C 1.00976 1.00072 0.4756 0.0
C608 C 0.97297 0.99404 0.47331 0.0
H609 H 0.42609 0.73735 0.79241 0.0
H610 H 0.50025 0.8285 0.78501 0.0
H611 H 0.53391 0.80041 0.7406 0.0
H612 H 0.48677 0.67471 0.78302 0.0
H613 H 0.45812 0.64701 0.75588 0.0
H614 H 0.43985 0.67415 0.78732 0.0
H615 H 0.40365 0.7014 0.73669 0.0
H616 H 0.42177 0.67426 0.70508 0.0
H617 H 0.42579 0.72043 0.69772 0.0
H618 H 0.56119 0.76133 0.69914 0.0
H619 H 0.57822 0.7152 0.66108 0.0
H620 H 0.48375 0.65161 0.69161 0.0
C621 C 0.44904 0.75178 0.78112 0.0
C622 C 0.4605 0.78521 0.79263 0.0
C623 C 0.49119 0.80265 0.77741 0.0
C624 C 0.51039 0.78702 0.75187 0.0
C625 C 0.49838 0.75409 0.74134 0.0
C626 C 0.46823 0.7368 0.75521 0.0
C627 C 0.46089 0.70167 0.73921 0.0
C628 C 0.46145 0.67268 0.76808 0.0
C629 C 0.42595 0.69932 0.71844 0.0
C630 C 0.49183 0.70177 0.71441 0.0
C631 C 0.51327 0.73217 0.71623 0.0
C632 C 0.54439 0.7376 0.69715 0.0
C633 C 0.55388 0.71125 0.67569 0.0
C634 C 0.53211 0.68006 0.67313 0.0
C635 C 0.50056 0.67546 0.69256 0.0
H636 H 0.98653 0.88404 0.78437 0.0
H637 H 0.93792 0.97095 0.82564 0.0
H638 H 0.95758 1.0062 0.77302 0.0
H639 H 0.06364 0.93549 0.74625 0.0
H640 H 0.0657 0.91003 0.70731 0.0
H641 H 1.04781 0.89046 0.74816 0.0
H642 H 0.99053 0.8705 0.71498 0.0
H643 H 1.00828 0.89006 0.67408 0.0
H644 H 0.967 0.90183 0.69034 0.0
H645 H 0.98216 0.03367 0.71537 0.0
H646 H 1.00969 0.05115 0.65827 0.0
H647 H 1.04554 0.94898 0.65017 0.0
C648 C 0.98007 0.91054 0.78266 0.0
C649 C 0.95964 0.92385 0.81024 0.0
C650 C 0.9523 0.95896 0.80557 0.0
C651 C 0.96379 0.97964 0.77547 0.0
C652 C 0.98325 0.96572 0.74909 0.0
C653 C 0.99154 0.93196 0.75227 0.0
C654 C 1.01303 0.92388 0.7195 0.0
C655 C 0.04973 0.91439 0.73099 0.0
C656 C 0.99355 0.89483 0.69848 0.0
C657 C 1.0154 0.95826 0.69755 0.0
C658 C 0.99788 0.98185 0.71552 0.0
C659 C 0.9959 1.01525 0.70129 0.0
C660 C 1.0119 0.02501 0.66831 0.0
C661 C 1.03032 1.00195 0.64849 0.0
C662 C 1.03193 0.96774 0.66389 0.0
H663 H 0.68744 0.17507 0.31579 0.0
H664 H 0.67452 0.27844 0.27408 0.0
H665 H 0.6623 0.25553 0.21417 0.0
H666 H 0.72648 0.14214 0.2344 0.0
H667 H 0.70287 0.10026 0.24071 0.0
H668 H 0.71594 0.12546 0.27873 0.0
H669 H 0.65138 0.12096 0.29982 0.0
H670 H 0.63815 0.09587 0.26194 0.0
H671 H 0.61782 0.13488 0.26992 0.0
H672 H 0.64527 0.22059 0.16057 0.0
H673 H 0.62256 0.1764 0.11863 0.0
H674 H 0.64598 0.09589 0.19578 0.0
C675 C 0.68315 0.19297 0.29377 0.0
C676 C 0.6823 0.22854 0.29936 0.0
C677 C 0.67539 0.2511 0.27022 0.0
C678 C 0.66863 0.23835 0.23612 0.0
C679 C 0.66892 0.20298 0.23163 0.0
C680 C 0.67608 0.18062 0.25968 0.0
C681 C 0.67124 0.14344 0.24877 0.0
C682 C 0.70622 0.12685 0.25077 0.0
C683 C 0.64296 0.12258 0.27145 0.0
C684 C 0.65912 0.14828 0.21056 0.0
C685 C 0.65852 0.18281 0.20094 0.0
C686 C 0.64606 0.19349 0.16769 0.0
C687 C 0.63313 0.1682 0.14402 0.0
C688 C 0.63245 0.13269 0.15384 0.0
C689 C 0.64646 0.12279 0.18725 0.0
H690 H 0.45232 0.62135 0.36445 0.0
H691 H 0.35795 0.57223 0.41383 0.0
H692 H 0.383 0.58469 0.47319 0.0
H693 H 0.51116 0.58884 0.42429 0.0
H694 H 0.54153 0.62693 0.42531 0.0
H695 H 0.51447 0.61884 0.38653 0.0
H696 H 0.49019 0.67852 0.39125 0.0
H697 H 0.51734 0.68687 0.43007 0.0
H698 H 0.47064 0.68952 0.43228 0.0
H699 H 0.42089 0.59386 0.52632 0.0
H700 H 0.46898 0.6019 0.57055 0.0
H701 H 0.53833 0.64795 0.48831 0.0
C702 C 0.43659 0.6142 0.38777 0.0
C703 C 0.40322 0.59577 0.3846 0.0
C704 C 0.38368 0.58609 0.41571 0.0
C705 C 0.39758 0.59327 0.44952 0.0
C706 C 0.43094 0.61052 0.45184 0.0
C707 C 0.45012 0.62123 0.42187 0.0
C708 C 0.48649 0.63677 0.43201 0.0
C709 C 0.51508 0.61663 0.4161 0.0
C710 C 0.49144 0.67521 0.42074 0.0
C711 C 0.48513 0.6319 0.47224 0.0
C712 C 0.45268 0.61692 0.48305 0.0
C713 C 0.44608 0.60645 0.51838 0.0
C714 C 0.47347 0.61099 0.54326 0.0
C715 C 0.50678 0.62621 0.53277 0.0
C716 C 0.51258 0.63738 0.49702 0.0
H717 H 0.22906 0.30255 0.8805 0.0
H718 H 0.23223 0.25523 0.98689 0.0
H719 H 0.22884 0.31251 1.01244 0.0
H720 H 0.28613 0.37836 0.9011 0.0
H721 H 0.26298 0.40596 0.87134 0.0
H722 H 0.26438 0.36106 0.86198 0.0
H723 H 0.19638 0.35349 0.85946 0.0
H724 H 0.19475 0.3983 0.86884 0.0
H725 H 0.17169 0.36551 0.89694 0.0
H726 H 0.22286 0.37582 1.02572 0.0
H727 H 0.21601 0.43831 1.02536 0.0
H728 H 0.22516 0.44314 0.91011 0.0
C729 C 0.22986 0.30396 0.90922 0.0
C730 C 0.23123 0.2741 0.93156 0.0
C731 C 0.23081 0.27752 0.96905 0.0
C732 C 0.22922 0.31002 0.98384 0.0
C733 C 0.22858 0.33888 0.96083 0.0
C734 C 0.22921 0.33604 0.92431 0.0
C735 C 0.22878 0.37072 0.90508 0.0
C736 C 0.26258 0.37954 0.88362 0.0
C737 C 0.19594 0.37206 0.88119 0.0
C738 C 0.22729 0.39367 0.93644 0.0
C739 C 0.22698 0.37498 0.96843 0.0
C740 C 0.22366 0.39073 1.00083 0.0
C741 C 0.22011 0.42636 1.00035 0.0
C742 C 0.22018 0.44589 0.96768 0.0
C743 C 0.2246 0.42914 0.93554 0.0
H744 H 0.74566 0.94232 0.91682 0.0
H745 H 0.82864 0.94794 0.99626 0.0
H746 H 0.79089 0.97898 0.03546 0.0
H747 H 0.71266 0.02644 0.93228 0.0
H748 H 0.66763 1.01042 0.92479 0.0
H749 H 0.70239 0.99136 0.9028 0.0
H750 H 0.67945 0.93139 0.92902 0.0
H751 H 0.64487 0.9503 0.9514 0.0
H752 H 0.67459 0.92518 0.97655 0.0
H753 H 0.73872 1.00692 0.06905 0.0
H754 H 0.68396 0.03036 0.08875 0.0
H755 H 0.6355 1.00586 0.98703 0.0
C756 C 0.75642 0.95052 0.94223 0.0
C757 C 0.79101 0.94244 0.95277 0.0
C758 C 0.80304 0.95396 0.98663 0.0
C759 C 0.7813 0.97141 1.00942 0.0
C760 C 0.74704 0.97776 0.9985 0.0
C761 C 0.73505 0.96789 0.96524 0.0
C762 C 0.69715 0.97678 0.95948 0.0
C763 C 0.69483 1.00279 0.92797 0.0
C764 C 0.67257 0.94396 0.95377 0.0
C765 C 0.6892 0.99306 0.99462 0.0
C766 C 0.71818 0.99343 1.01703 0.0
C767 C 0.71629 1.00674 0.05123 0.0
C768 C 0.68475 0.02005 0.06242 0.0
C769 C 0.65472 0.02042 0.0398 0.0
C770 C 0.65756 1.00641 1.00536 0.0
H771 H 0.7838 0.23704 0.37827 0.0
H772 H 0.70962 0.22365 0.4654 0.0
H773 H 0.75626 0.20438 0.50516 0.0
H774 H 0.82735 0.1611 0.4001 0.0
H775 H 0.87009 0.18039 0.38721 0.0
H776 H 0.83135 0.19497 0.36601 0.0
H777 H 0.85059 0.25763 0.38359 0.0
H778 H 0.88941 0.24326 0.40482 0.0
H779 H 0.85979 0.26658 0.42968 0.0
H780 H 0.8108 0.18568 0.53535 0.0
H781 H 0.86898 0.16783 0.55337 0.0
H782 H 0.90687 0.19095 0.446 0.0
C783 C 0.7772 0.22991 0.40565 0.0
C784 C 0.74292 0.23218 0.41864 0.0
C785 C 0.73574 0.22292 0.45485 0.0
C786 C 0.76202 0.21165 0.47764 0.0
C787 C 0.79537 0.20953 0.46384 0.0
C788 C 0.803 0.21829 0.42866 0.0
C789 C 0.84071 0.21285 0.42024 0.0
C790 C 0.84246 0.18571 0.3917 0.0
C791 C 0.86134 0.24712 0.40892 0.0
C792 C 0.85308 0.19957 0.45619 0.0
C793 C 0.82657 0.19805 0.48102 0.0
C794 C 0.83177 0.18682 0.51615 0.0
C795 C 0.86493 0.17689 0.52617 0.0
C796 C 0.89245 0.17806 0.50111 0.0
C797 C 0.88627 0.1895 0.46565 0.0
H798 H 0.29123 0.58728 0.19278 0.0
H799 H 0.31976 0.69525 0.16407 0.0
H800 H 0.26609 0.69645 0.12768 0.0
H801 H 0.24926 0.56207 0.11032 0.0
H802 H 0.21439 0.53501 0.13164 0.0
H803 H 0.25672 0.54128 0.15306 0.0
H804 H 0.22784 0.56267 0.20924 0.0
H805 H 0.18543 0.55609 0.18812 0.0
H806 H 0.20018 0.59778 0.20486 0.0
H807 H 0.20944 0.68582 0.09335 0.0
H808 H 0.15066 0.6657 0.06964 0.0
H809 H 0.15605 0.56762 0.12688 0.0
C810 C 0.28627 0.61135 0.17918 0.0
C811 C 0.31042 0.64099 0.18106 0.0
C812 C 0.30257 0.67175 0.16234 0.0
C813 C 0.2719 0.67284 0.14172 0.0
C814 C 0.24888 0.64318 0.14049 0.0
C815 C 0.2554 0.61316 0.15914 0.0
C816 C 0.22528 0.58554 0.15521 0.0
C817 C 0.23714 0.55413 0.13644 0.0
C818 C 0.2087 0.57492 0.19152 0.0
C819 C 0.20071 0.60492 0.13173 0.0
C820 C 0.21511 0.63787 0.12287 0.0
C821 C 0.19773 0.66019 0.10039 0.0
C822 C 0.16451 0.64862 0.08703 0.0
C823 C 0.14892 0.61548 0.09701 0.0
C824 C 0.1673 0.59336 0.11944 0.0
H825 H 0.30696 0.27961 0.73449 0.0
H826 H 0.37552 0.24916 0.8205 0.0
H827 H 0.41766 0.29961 0.80496 0.0
H828 H 0.37449 0.31001 0.67141 0.0
H829 H 0.35033 0.34501 0.65483 0.0
H830 H 0.3272 0.30573 0.67205 0.0
H831 H 0.29456 0.34083 0.71645 0.0
H832 H 0.31772 0.38018 0.69958 0.0
H833 H 0.31956 0.3688 0.74645 0.0
H834 H 0.45129 0.35489 0.77988 0.0
H835 H 0.4722 0.41025 0.74935 0.0
H836 H 0.38041 0.40236 0.68031 0.0
C837 C 0.33123 0.28297 0.74961 0.0
C838 C 0.3384 0.26012 0.77823 0.0
C839 C 0.36976 0.26627 0.79826 0.0
C840 C 0.39378 0.29474 0.78955 0.0
C841 C 0.38578 0.31671 0.76097 0.0
C842 C 0.35515 0.31104 0.74142 0.0
C843 C 0.35154 0.33893 0.71301 0.0
C844 C 0.35087 0.32402 0.67562 0.0
C845 C 0.31892 0.35833 0.71927 0.0
C846 C 0.38491 0.36149 0.71955 0.0
C847 C 0.40451 0.34831 0.74715 0.0
C848 C 0.4362 0.36529 0.75814 0.0
C849 C 0.44792 0.39659 0.74058 0.0
C850 C 0.42784 0.41059 0.71256 0.0
C851 C 0.39613 0.39252 0.70189 0.0
H852 H 0.92961 0.78981 0.92366 0.0
H853 H 1.02408 0.85466 0.89545 0.0
H854 H 0.05998 0.81019 0.92053 0.0
H855 H 0.96173 0.75386 1.0075 0.0
H856 H 0.94168 0.7107 1.00166 0.0
H857 H 0.92208 0.74699 0.98124 0.0
H858 H 0.92426 0.72019 0.91991 0.0
H859 H 0.94349 0.68352 0.94011 0.0
H860 H 0.96536 0.7078 0.90381 0.0
H861 H 0.08724 0.75804 0.94845 0.0
H862 H 0.1031 0.70346 0.97668 0.0
H863 H 0.99277 0.66964 0.98985 0.0
C864 C 0.95786 0.7949 0.92286 0.0
C865 C 0.97345 0.82662 0.90674 0.0
C866 C 1.01076 0.83107 0.90653 0.0
C867 C 1.03167 0.80575 0.92114 0.0
C868 C 1.01562 0.7751 0.93636 0.0
C869 C 0.97949 0.7694 0.93732 0.0
C870 C 0.96931 0.73353 0.95481 0.0
C871 C 0.94741 0.7365 0.98833 0.0
C872 C 0.94941 0.70986 0.92807 0.0
C873 C 1.00519 0.72052 0.96436 0.0
C874 C 1.03144 0.74499 0.95297 0.0
C875 C 0.06672 0.73893 0.95752 0.0
C876 C 0.07556 0.70747 0.97377 0.0
C877 C 0.04963 0.68152 0.98618 0.0
C878 C 1.01365 0.68864 0.98135 0.0
H879 H 0.44295 0.70708 0.25454 0.0
H880 H 0.4344 0.67006 0.14708 0.0
H881 H 0.47785 0.71713 0.12677 0.0
H882 H 0.44373 0.79177 0.23244 0.0
H883 H 0.47494 0.80763 0.2656 0.0
H884 H 0.44925 0.76724 0.27344 0.0
H885 H 0.50584 0.7362 0.28363 0.0
H886 H 0.53186 0.77669 0.27623 0.0
H887 H 0.53944 0.74016 0.25012 0.0
H888 H 0.51289 0.77346 0.11617 0.0
H889 H 0.53811 0.83384 0.11633 0.0
H890 H 0.52678 0.83336 0.23126 0.0
C891 C 0.45138 0.70808 0.22708 0.0
C892 C 0.4355 0.68494 0.20238 0.0
C893 C 0.44627 0.68764 0.16637 0.0
C894 C 0.47106 0.71414 0.15466 0.0
C895 C 0.48516 0.73749 0.17937 0.0
C896 C 0.4761 0.73444 0.21496 0.0
C897 C 0.49192 0.76506 0.23522 0.0
C898 C 0.46325 0.78403 0.25267 0.0
C899 C 0.51888 0.75385 0.26294 0.0
C900 C 0.50962 0.78664 0.20511 0.0
C901 C 0.50594 0.77004 0.17323 0.0
C902 C 0.51687 0.78635 0.14113 0.0
C903 C 0.53133 0.82071 0.14152 0.0
C904 C 0.53466 0.83852 0.17382 0.0
C905 C 0.52453 0.82068 0.20606 0.0
H906 H 0.22149 0.1317 0.76012 0.0
H907 H 0.25231 0.22892 0.70385 0.0
H908 H 0.22078 0.20815 0.65046 0.0
H909 H 0.22834 0.07722 0.68837 0.0
H910 H 0.18983 0.04879 0.69895 0.0
H911 H 0.21366 0.07151 0.7338 0.0
H912 H 0.157 0.0978 0.75235 0.0
H913 H 0.13292 0.07497 0.71766 0.0
H914 H 0.13273 0.12114 0.71955 0.0
H915 H 0.19147 0.17545 0.60146 0.0
H916 H 0.16026 0.1338 0.56111 0.0
H917 H 0.14338 0.05981 0.64946 0.0
C918 C 0.22116 0.14876 0.73674 0.0
C919 C 0.24022 0.18157 0.73597 0.0
C920 C 0.239 0.20318 0.7048 0.0
C921 C 0.22084 0.1918 0.67437 0.0
C922 C 0.20326 0.15903 0.67563 0.0
C923 C 0.20263 0.13798 0.7061 0.0
C924 C 0.18174 0.10375 0.69995 0.0
C925 C 0.20478 0.07354 0.7056 0.0
C926 C 0.14916 0.09916 0.7238 0.0
C927 C 0.17163 0.10866 0.66109 0.0
C928 C 0.18446 0.14074 0.6476 0.0
C929 C 0.18067 0.15049 0.61178 0.0
C930 C 0.16313 0.1268 0.5891 0.0
C931 C 0.14934 0.09421 0.6026 0.0
C932 C 0.15336 0.08501 0.63895 0.0
H933 H 0.56801 0.35501 0.48643 0.0
H934 H 0.66208 0.38819 0.4264 0.0
H935 H 0.66862 0.44207 0.45943 0.0
H936 H 0.53379 0.436 0.48338 0.0
H937 H 0.51525 0.43142 0.52736 0.0
H938 H 0.52037 0.39373 0.50224 0.0
H939 H 0.55679 0.36857 0.55394 0.0
H940 H 0.55169 0.40619 0.57931 0.0
H941 H 0.59494 0.3937 0.5706 0.0
H942 H 0.66263 0.49419 0.49634 0.0
H943 H 0.64416 0.54049 0.53322 0.0
H944 H 0.55212 0.47428 0.5663 0.0
C945 C 0.5901 0.37347 0.48016 0.0
C946 C 0.61457 0.36712 0.45372 0.0
C947 C 0.6433 0.39198 0.4469 0.0
C948 C 0.64712 0.42283 0.4654 0.0
C949 C 0.62201 0.42852 0.49061 0.0
C950 C 0.59406 0.40449 0.498 0.0
C951 C 0.56944 0.41765 0.52462 0.0
C952 C 0.53254 0.41983 0.50842 0.0
C953 C 0.56816 0.39519 0.55916 0.0
C954 C 0.58754 0.45315 0.53059 0.0
C955 C 0.61805 0.45879 0.5111 0.0
C956 C 0.63889 0.48997 0.51185 0.0
C957 C 0.62816 0.51612 0.53291 0.0
C958 C 0.59665 0.51108 0.55264 0.0
C959 C 0.5763 0.47902 0.55151 0.0
loop_
_geom_bond_atom_site_label_1
_geom_bond_atom_site_label_2
_geom_bond_distance
_geom_bond_site_symmetry_2
_ccdc_geom_bond_type
H0 C1 0.949 . S
C1 H0 0.949 . S
C1 C2 1.395 . S
C1 C3 1.391 . S
C2 C1 1.395 . S
C2 C5 1.390 . S
C3 C1 1.391 . S
C3 C7 1.387 . S
C3 C8 1.491 . S
H4 C5 0.950 . S
C5 C2 1.390 . S
C5 H4 0.950 . S
C5 C6 1.378 . S
C6 C5 1.378 . S
C6 C7 1.409 . S
C7 C3 1.387 . S
C7 C6 1.409 . S
C7 H9 0.951 . S
C8 C3 1.491 . S
C8 C10 1.382 . S
C8 C12 1.404 . S
H9 C7 0.951 . S
C10 C8 1.382 . S
C10 C11 1.390 . S
C10 H15 0.949 . S
C11 C10 1.390 . S
C11 C16 1.399 . S
C12 C8 1.404 . S
C12 H13 0.950 . S
C12 C14 1.375 . S
H13 C12 0.950 . S
C14 C12 1.375 . S
C14 C16 1.382 . S
C14 H18 0.950 . S
H15 C10 0.949 . S
C16 C11 1.399 . S
C16 C14 1.382 . S
C16 H17 0.952 . S
H17 C16 0.952 . S
H18 C14 0.950 . S
H19 C20 0.949 . S
C20 H19 0.949 . S
C20 C21 1.395 . S
C20 C22 1.391 . S
C21 C20 1.395 . S
C21 C24 1.390 . S
C22 C20 1.391 . S
C22 C26 1.387 . S
C22 C27 1.491 . S
H23 C24 0.950 . S
C24 C21 1.390 . S
C24 H23 0.950 . S
C24 C25 1.378 . S
C25 C24 1.378 . S
C25 C26 1.409 . S
C26 C22 1.387 . S
C26 C25 1.409 . S
C26 H28 0.951 . S
C27 C22 1.491 . S
C27 C29 1.382 . S
C27 C31 1.404 . S
H28 C26 0.951 . S
C29 C27 1.382 . S
C29 C30 1.390 . S
C29 H34 0.949 . S
C30 C29 1.390 . S
C30 C35 1.399 . S
C31 C27 1.404 . S
C31 H32 0.950 . S
C31 C33 1.375 . S
H32 C31 0.950 . S
C33 C31 1.375 . S
C33 C35 1.382 . S
C33 H37 0.950 . S
H34 C29 0.949 . S
C35 C30 1.399 . S
C35 C33 1.382 . S
C35 H36 0.952 . S
H36 C35 0.952 . S
H37 C33 0.950 . S
H38 C39 0.949 . S
C39 H38 0.949 . S
C39 C40 1.395 . S
C39 C41 1.391 . S
C40 C39 1.395 . S
C40 C43 1.390 . S
C41 C39 1.391 . S
C41 C45 1.387 . S
C41 C46 1.491 . S
H42 C43 0.950 . S
C43 C40 1.390 . S
C43 H42 0.950 . S
C43 C44 1.378 . S
C44 C43 1.378 . S
C44 C45 1.409 . S
C45 C41 1.387 . S
C45 C44 1.409 . S
C45 H47 0.951 . S
C46 C41 1.491 . S
C46 C48 1.382 . S
C46 C50 1.404 . S
H47 C45 0.951 . S
C48 C46 1.382 . S
C48 C49 1.390 . S
C48 H53 0.949 . S
C49 C48 1.390 . S
C49 C54 1.399 . S
C50 C46 1.404 . S
C50 H51 0.950 . S
C50 C52 1.375 . S
H51 C50 0.950 . S
C52 C50 1.375 . S
C52 C54 1.382 . S
C52 H56 0.950 . S
H53 C48 0.949 . S
C54 C49 1.399 . S
C54 C52 1.382 . S
C54 H55 0.952 . S
H55 C54 0.952 . S
H56 C52 0.950 . S
H57 C58 0.949 . S
C58 H57 0.949 . S
C58 C59 1.395 . S
C58 C60 1.391 . S
C59 C58 1.395 . S
C59 C62 1.390 . S
C60 C58 1.391 . S
C60 C64 1.387 . S
C60 C65 1.491 . S
H61 C62 0.950 . S
C62 C59 1.390 . S
C62 H61 0.950 . S
C62 C63 1.378 . S
C63 C62 1.378 . S
C63 C64 1.409 . S
C64 C60 1.387 . S
C64 C63 1.409 . S
C64 H66 0.951 . S
C65 C60 1.491 . S
C65 C67 1.382 . S
C65 C69 1.404 . S
H66 C64 0.951 . S
C67 C65 1.382 . S
C67 C68 1.390 . S
C67 H72 0.949 . S
C68 C67 1.390 . S
C68 C73 1.399 . S
C69 C65 1.404 . S
C69 H70 0.950 . S
C69 C71 1.375 . S
H70 C69 0.950 . S
C71 C69 1.375 . S
C71 C73 1.382 . S
C71 H75 0.950 . S
H72 C67 0.949 . S
C73 C68 1.399 . S
C73 C71 1.382 . S
C73 H74 0.952 . S
H74 C73 0.952 . S
H75 C71 0.950 . S
H76 C77 0.949 . S
C77 H76 0.949 . S
C77 C78 1.395 . S
C77 C79 1.391 . S
C78 C77 1.395 . S
C78 C81 1.390 . S
C79 C77 1.391 . S
C79 C83 1.387 . S
C79 C84 1.491 . S
H80 C81 0.950 . S
C81 C78 1.390 . S
C81 H80 0.950 . S
C81 C82 1.378 . S
C82 C81 1.378 . S
C82 C83 1.409 . S
C83 C79 1.387 . S
C83 C82 1.409 . S
C83 H85 0.951 . S
C84 C79 1.491 . S
C84 C86 1.382 . S
C84 C88 1.404 . S
H85 C83 0.951 . S
C86 C84 1.382 . S
C86 C87 1.390 . S
C86 H91 0.949 . S
C87 C86 1.390 . S
C87 C92 1.399 . S
C88 C84 1.404 . S
C88 H89 0.950 . S
C88 C90 1.375 . S
H89 C88 0.950 . S
C90 C88 1.375 . S
C90 C92 1.382 . S
C90 H94 0.950 . S
H91 C86 0.949 . S
C92 C87 1.399 . S
C92 C90 1.382 . S
C92 H93 0.952 . S
H93 C92 0.952 . S
H94 C90 0.950 . S
H95 C96 0.949 . S
C96 H95 0.949 . S
C96 C97 1.395 . S
C96 C98 1.391 . S
C97 C96 1.395 . S
C97 C100 1.390 . S
C98 C96 1.391 . S
C98 C102 1.387 . S
C98 C103 1.491 . S
H99 C100 0.950 . S
C100 C97 1.390 . S
C100 H99 0.950 . S
C100 C101 1.378 . S
C101 C100 1.378 . S
C101 C102 1.409 . S
C102 C98 1.387 . S
C102 C101 1.409 . S
C102 H104 0.951 . S
C103 C98 1.491 . S
C103 C105 1.382 . S
C103 C107 1.404 . S
H104 C102 0.951 . S
C105 C103 1.382 . S
C105 C106 1.390 . S
C105 H110 0.949 . S
C106 C105 1.390 . S
C106 C111 1.399 . S
C107 C103 1.404 . S
C107 H108 0.950 . S
C107 C109 1.375 . S
H108 C107 0.950 . S
C109 C107 1.375 . S
C109 C111 1.382 . S
C109 H113 0.950 . S
H110 C105 0.949 . S
C111 C106 1.399 . S
C111 C109 1.382 . S
C111 H112 0.952 . S
H112 C111 0.952 . S
H113 C109 0.950 . S
H114 C115 0.949 . S
C115 H114 0.949 . S
C115 C116 1.395 . S
C115 C117 1.391 . S
C116 C115 1.395 . S
C116 C119 1.390 . S
C117 C115 1.391 . S
C117 C121 1.387 . S
C117 C122 1.491 . S
H118 C119 0.950 . S
C119 C116 1.390 . S
C119 H118 0.950 . S
C119 C120 1.378 . S
C120 C119 1.378 . S
C120 C121 1.409 . S
C121 C117 1.387 . S
C121 C120 1.409 . S
C121 H123 0.951 . S
C122 C117 1.491 . S
C122 C124 1.382 . S
C122 C126 1.404 . S
H123 C121 0.951 . S
C124 C122 1.382 . S
C124 C125 1.390 . S
C124 H129 0.949 . S
C125 C124 1.390 . S
C125 C130 1.399 . S
C126 C122 1.404 . S
C126 H127 0.950 . S
C126 C128 1.375 . S
H127 C126 0.950 . S
C128 C126 1.375 . S
C128 C130 1.382 . S
C128 H132 0.950 . S
H129 C124 0.949 . S
C130 C125 1.399 . S
C130 C128 1.382 . S
C130 H131 0.952 . S
H131 C130 0.952 . S
H132 C128 0.950 . S
H133 C134 0.949 . S
C134 H133 0.949 . S
C134 C135 1.395 . S
C134 C136 1.391 . S
C135 C134 1.395 . S
C135 C138 1.390 . S
C136 C134 1.391 . S
C136 C140 1.387 . S
C136 C141 1.491 . S
H137 C138 0.950 . S
C138 C135 1.390 . S
C138 H137 0.950 . S
C138 C139 1.378 . S
C139 C138 1.378 . S
C139 C140 1.409 . S
C140 C136 1.387 . S
C140 C139 1.409 . S
C140 H142 0.951 . S
C141 C136 1.491 . S
C141 C143 1.382 . S
C141 C145 1.404 . S
H142 C140 0.951 . S
C143 C141 1.382 . S
C143 C144 1.390 . S
C143 H148 0.949 . S
C144 C143 1.390 . S
C144 C149 1.399 . S
C145 C141 1.404 . S
C145 H146 0.950 . S
C145 C147 1.375 . S
H146 C145 0.950 . S
C147 C145 1.375 . S
C147 C149 1.382 . S
C147 H151 0.950 . S
H148 C143 0.949 . S
C149 C144 1.399 . S
C149 C147 1.382 . S
C149 H150 0.952 . S
H150 C149 0.952 . S
H151 C147 0.950 . S
Nd152 C154 2.836 1_545 S
Nd152 O172 2.500 1_545 S
Nd152 O173 2.492 1_545 S
Nd152 O174 2.487 . S
Nd152 O175 2.682 . S
Nd152 O176 2.410 1_545 S
Nd152 O181 2.414 1_445 S
Nd152 O183 2.424 . S
Nd153 C163 2.836 . S
Nd153 O175 2.414 1_655 S
Nd153 O177 2.436 . S
Nd153 O178 2.500 . S
Nd153 O179 2.492 . S
Nd153 O180 2.487 1_545 S
Nd153 O181 2.682 1_545 S
Nd153 O182 2.410 . S
C154 Nd152 2.836 1_565 S
C154 C155 1.498 . S
C154 O172 1.258 . S
C154 O173 1.239 . S
C155 C154 1.498 . S
C155 C156 1.366 . S
C155 C160 1.407 . S
C156 C155 1.366 . S
C156 C157 1.392 . S
C156 H184 0.930 . S
C157 C156 1.392 . S
C157 C158 1.398 . S
C157 H185 0.929 . S
C158 C157 1.398 . S
C158 C159 1.352 . S
C159 C158 1.352 . S
C159 C160 1.384 . S
C159 H186 0.930 . S
C160 C155 1.407 . S
C160 C159 1.384 . S
C160 H187 0.929 . S
C161 O174 1.241 . S
C161 O175 1.273 . S
C162 O176 1.251 1_655 S
C162 O177 1.256 1_565 S
C163 Nd153 2.836 . S
C163 C164 1.498 . S
C163 O178 1.258 . S
C163 O179 1.239 . S
C164 C163 1.498 . S
C164 C165 1.366 . S
C164 C169 1.407 . S
C165 C164 1.366 . S
C165 C166 1.392 . S
C165 H188 0.930 . S
C166 C165 1.392 . S
C166 C167 1.398 . S
C166 H189 0.929 . S
C167 C166 1.398 . S
C167 C168 1.352 . S
C168 C167 1.352 . S
C168 C169 1.384 . S
C168 H190 0.930 . S
C169 C164 1.407 . S
C169 C168 1.384 . S
C169 H191 0.929 . S
C170 O180 1.241 . S
C170 O181 1.273 . S
C171 O182 1.251 1_455 S
C171 O183 1.268 . S
O172 Nd152 2.500 1_565 S
O172 C154 1.258 . S
O173 Nd152 2.492 1_565 S
O173 C154 1.239 . S
O174 Nd152 2.487 . S
O174 C161 1.241 . S
O175 Nd152 2.682 . S
O175 Nd153 2.414 1_455 S
O175 C161 1.273 . S
O176 Nd152 2.410 1_565 S
O176 C162 1.251 1_455 S
O177 Nd153 2.436 . S
O177 C162 1.256 1_545 S
O178 Nd153 2.500 . S
O178 C163 1.258 . S
O179 Nd153 2.492 . S
O179 C163 1.239 . S
O180 Nd153 2.487 1_565 S
O180 C170 1.241 . S
O181 Nd152 2.414 1_665 S
O181 Nd153 2.682 1_565 S
O181 C170 1.273 . S
O182 Nd153 2.410 . S
O182 C171 1.251 1_655 S
O183 Nd152 2.424 . S
O183 C171 1.268 . S
H184 C156 0.930 . S
H185 C157 0.929 . S
H186 C159 0.930 . S
H187 C160 0.929 . S
H188 C165 0.930 . S
H189 C166 0.929 . S
H190 C168 0.930 . S
H191 C169 0.929 . S
Nd192 C194 2.850 . S
Nd192 O212 2.516 . S
Nd192 O213 2.501 . S
Nd192 O214 2.478 1_565 S
Nd192 O215 2.669 1_565 S
Nd192 O216 2.413 . S
Nd192 O221 2.415 1_565 S
Nd192 O223 2.412 1_565 S
Nd193 C203 2.836 . S
Nd193 O215 2.414 . S
Nd193 O217 2.399 1_545 S
Nd193 O218 2.500 . S
Nd193 O219 2.492 . S
Nd193 O220 2.487 . S
Nd193 O221 2.682 . S
Nd193 O222 2.410 . S
C194 Nd192 2.850 . S
C194 C195 1.498 . S
C194 O212 1.258 . S
C194 O213 1.239 . S
C195 C194 1.498 . S
C195 C196 1.366 . S
C195 C200 1.407 . S
C196 C195 1.366 . S
C196 C197 1.392 . S
C196 H224 0.930 . S
C197 C196 1.392 . S
C197 C198 1.398 . S
C197 H225 0.929 . S
C198 C197 1.398 . S
C198 C199 1.352 . S
C199 C198 1.352 . S
C199 C200 1.384 . S
C199 H226 0.930 . S
C200 C195 1.407 . S
C200 C199 1.384 . S
C200 H227 0.929 . S
C201 O214 1.241 . S
C201 O215 1.273 . S
C202 O216 1.251 . S
C202 O217 1.290 . S
C203 Nd193 2.836 . S
C203 C204 1.498 . S
C203 O218 1.258 . S
C203 O219 1.239 . S
C204 C203 1.498 . S
C204 C205 1.366 . S
C204 C209 1.407 1_554 S
C205 C204 1.366 . S
C205 C206 1.392 . S
C205 H228 0.930 . S
C206 C205 1.392 . S
C206 C207 1.398 . S
C206 H229 0.929 . S
C207 C206 1.398 . S
C207 C208 1.352 1_554 S
C208 C207 1.352 1_556 S
C208 C209 1.384 . S
C208 H230 0.930 . S
C209 C204 1.407 1_556 S
C209 C208 1.384 . S
C209 H231 0.929 . S
C210 O220 1.241 . S
C210 O221 1.273 . S
C211 O222 1.251 . S
C211 O223 1.268 . S
O212 Nd192 2.516 . S
O212 C194 1.258 . S
O213 Nd192 2.501 . S
O213 C194 1.239 . S
O214 Nd192 2.478 1_545 S
O214 C201 1.241 . S
O215 Nd192 2.669 1_545 S
O215 Nd193 2.414 . S
O215 C201 1.273 . S
O216 Nd192 2.413 . S
O216 C202 1.251 . S
O217 Nd193 2.399 1_565 S
O217 C202 1.290 . S
O218 Nd193 2.500 . S
O218 C203 1.258 . S
O219 Nd193 2.492 . S
O219 C203 1.239 . S
O220 Nd193 2.487 . S
O220 C210 1.241 . S
O221 Nd192 2.415 1_545 S
O221 Nd193 2.682 . S
O221 C210 1.273 . S
O222 Nd193 2.410 . S
O222 C211 1.251 . S
O223 Nd192 2.412 1_545 S
O223 C211 1.268 . S
H224 C196 0.930 . S
H225 C197 0.929 . S
H226 C199 0.930 . S
H227 C200 0.929 . S
H228 C205 0.930 . S
H229 C206 0.929 . S
H230 C208 0.930 . S
H231 C209 0.929 . S
Nd232 C234 2.836 . S
Nd232 O252 2.500 . S
Nd232 O253 2.492 . S
Nd232 O254 2.487 . S
Nd232 O255 2.682 . S
Nd232 O256 2.410 . S
Nd232 O261 2.414 . S
Nd232 O263 2.424 . S
Nd233 C243 2.836 . S
Nd233 O255 2.414 . S
Nd233 O257 2.424 . S
Nd233 O258 2.500 . S
Nd233 O259 2.492 . S
Nd233 O260 2.487 . S
Nd233 O261 2.682 . S
Nd233 O262 2.410 . S
C234 Nd232 2.836 . S
C234 C235 1.498 . S
C234 O252 1.258 . S
C234 O253 1.239 . S
C235 C234 1.498 . S
C235 C236 1.366 . S
C235 C240 1.407 . S
C236 C235 1.366 . S
C236 C237 1.392 . S
C236 H264 0.930 . S
C237 C236 1.392 . S
C237 C238 1.398 . S
C237 H265 0.929 . S
C238 C237 1.398 . S
C238 C239 1.352 . S
C239 C238 1.352 . S
C239 C240 1.384 . S
C239 H266 0.930 . S
C240 C235 1.407 . S
C240 C239 1.384 . S
C240 H267 0.929 . S
C241 O254 1.241 . S
C241 O255 1.273 . S
C242 O256 1.251 . S
C242 O257 1.268 . S
C243 Nd233 2.836 . S
C243 C244 1.498 . S
C243 O258 1.258 . S
C243 O259 1.239 . S
C244 C243 1.498 . S
C244 C245 1.366 . S
C244 C249 1.407 . S
C245 C244 1.366 . S
C245 C246 1.392 . S
C245 H268 0.930 . S
C246 C245 1.392 . S
C246 C247 1.398 . S
C246 H269 0.929 . S
C247 C246 1.398 . S
C247 C248 1.352 . S
C248 C247 1.352 . S
C248 C249 1.384 . S
C248 H270 0.930 . S
C249 C244 1.407 . S
C249 C248 1.384 . S
C249 H271 0.929 . S
C250 O260 1.241 . S
C250 O261 1.273 . S
C251 O262 1.251 . S
C251 O263 1.268 . S
O252 Nd232 2.500 . S
O252 C234 1.258 . S
O253 Nd232 2.492 . S
O253 C234 1.239 . S
O254 Nd232 2.487 . S
O254 C241 1.241 . S
O255 Nd232 2.682 . S
O255 Nd233 2.414 . S
O255 C241 1.273 . S
O256 Nd232 2.410 . S
O256 C242 1.251 . S
O257 Nd233 2.424 . S
O257 C242 1.268 . S
O258 Nd233 2.500 . S
O258 C243 1.258 . S
O259 Nd233 2.492 . S
O259 C243 1.239 . S
O260 Nd233 2.487 . S
O260 C250 1.241 . S
O261 Nd232 2.414 . S
O261 Nd233 2.682 . S
O261 C250 1.273 . S
O262 Nd233 2.410 . S
O262 C251 1.251 . S
O263 Nd232 2.424 . S
O263 C251 1.268 . S
H264 C236 0.930 . S
H265 C237 0.929 . S
H266 C239 0.930 . S
H267 C240 0.929 . S
H268 C245 0.930 . S
H269 C246 0.929 . S
H270 C248 0.930 . S
H271 C249 0.929 . S
Nd272 C274 2.836 1_455 S
Nd272 O292 2.500 1_455 S
Nd272 O293 2.492 . S
Nd272 O294 2.487 . S
Nd272 O295 2.682 . S
Nd272 O296 2.410 . S
Nd272 O301 2.409 1_454 S
Nd272 O303 2.424 . S
Nd273 C283 2.836 . S
Nd273 O295 2.414 1_556 S
Nd273 O297 2.424 . S
Nd273 O298 2.500 . S
Nd273 O299 2.492 . S
Nd273 O300 2.487 1_455 S
Nd273 O301 2.685 1_455 S
Nd273 O302 2.410 . S
C274 Nd272 2.836 1_655 S
C274 C275 1.498 . S
C274 O292 1.258 . S
C274 O293 1.239 1_655 S
C275 C274 1.498 . S
C275 C276 1.366 . S
C275 C280 1.407 . S
C276 C275 1.366 . S
C276 C277 1.392 . S
C276 H304 0.930 . S
C277 C276 1.392 . S
C277 C278 1.398 . S
C277 H305 0.929 . S
C278 C277 1.398 . S
C278 C279 1.352 . S
C279 C278 1.352 . S
C279 C280 1.384 . S
C279 H306 0.930 . S
C280 C275 1.407 . S
C280 C279 1.384 . S
C280 H307 0.929 1_655 S
C281 O294 1.241 . S
C281 O295 1.273 . S
C282 O296 1.250 1_556 S
C282 O297 1.269 . S
C283 Nd273 2.836 . S
C283 C284 1.498 . S
C283 O298 1.258 . S
C283 O299 1.239 . S
C284 C283 1.498 . S
C284 C285 1.366 . S
C284 C289 1.407 . S
C285 C284 1.366 . S
C285 C286 1.392 . S
C285 H308 0.930 . S
C286 C285 1.392 . S
C286 C287 1.398 . S
C286 H309 0.929 . S
C287 C286 1.398 . S
C287 C288 1.352 . S
C288 C287 1.352 . S
C288 C289 1.384 . S
C288 H310 0.930 . S
C289 C284 1.407 . S
C289 C288 1.384 . S
C289 H311 0.929 . S
C290 O300 1.241 . S
C290 O301 1.277 . S
C291 O302 1.251 1_554 S
C291 O303 1.268 . S
O292 Nd272 2.500 1_655 S
O292 C274 1.258 . S
O293 Nd272 2.492 . S
O293 C274 1.239 1_455 S
O294 Nd272 2.487 . S
O294 C281 1.241 . S
O295 Nd272 2.682 . S
O295 Nd273 2.414 1_554 S
O295 C281 1.273 . S
O296 Nd272 2.410 . S
O296 C282 1.250 1_554 S
O297 Nd273 2.424 . S
O297 C282 1.269 . S
O298 Nd273 2.500 . S
O298 C283 1.258 . S
O299 Nd273 2.492 . S
O299 C283 1.239 . S
O300 Nd273 2.487 1_655 S
O300 C290 1.241 . S
O301 Nd272 2.409 1_656 S
O301 Nd273 2.685 1_655 S
O301 C290 1.277 . S
O302 Nd273 2.410 . S
O302 C291 1.251 1_556 S
O303 Nd272 2.424 . S
O303 C291 1.268 . S
H304 C276 0.930 . S
H305 C277 0.929 . S
H306 C279 0.930 . S
H307 C280 0.929 1_455 S
H308 C285 0.930 . S
H309 C286 0.929 . S
H310 C288 0.930 . S
H311 C289 0.929 . S
H312 C324 0.930 . S
H313 C326 0.930 . S
H314 C327 0.930 . S
H315 C331 0.959 . S
H316 C331 0.959 . S
H317 C331 0.961 . S
H318 C332 0.960 . S
H319 C332 0.961 . S
H320 C332 0.959 . S
H321 C335 0.929 . S
H322 C336 0.931 . S
H323 C338 0.930 . S
C324 H312 0.930 . S
C324 C325 1.399 . S
C324 C329 1.399 . S
C325 C324 1.399 . S
C325 C326 1.376 . S
C326 H313 0.930 . S
C326 C325 1.376 . S
C326 C327 1.388 . S
C327 H314 0.930 . S
C327 C326 1.388 . S
C327 C328 1.390 . S
C328 C327 1.390 . S
C328 C329 1.394 . S
C328 C334 1.465 . S
C329 C324 1.399 . S
C329 C328 1.394 . S
C329 C330 1.516 . S
C330 C329 1.516 . S
C330 C331 1.502 . S
C330 C332 1.561 . S
C330 C333 1.526 . S
C331 H315 0.959 . S
C331 H316 0.959 . S
C331 H317 0.961 . S
C331 C330 1.502 . S
C332 H318 0.960 . S
C332 H319 0.961 . S
C332 H320 0.959 . S
C332 C330 1.561 . S
C333 C330 1.526 . S
C333 C334 1.396 . S
C333 C338 1.390 . S
C334 C328 1.465 . S
C334 C333 1.396 . S
C334 C335 1.399 . S
C335 H321 0.929 . S
C335 C334 1.399 . S
C335 C336 1.385 . S
C336 H322 0.931 . S
C336 C335 1.385 . S
C336 C337 1.389 . S
C337 C336 1.389 . S
C337 C338 1.387 . S
C338 H323 0.930 . S
C338 C333 1.390 . S
C338 C337 1.387 . S
H339 C351 0.930 . S
H340 C353 0.930 . S
H341 C354 0.930 . S
H342 C358 0.959 . S
H343 C358 0.959 . S
H344 C358 0.961 . S
H345 C359 0.960 . S
H346 C359 0.961 . S
H347 C359 0.959 . S
H348 C362 0.929 . S
H349 C363 0.931 . S
H350 C365 0.930 . S
C351 H339 0.930 . S
C351 C352 1.399 . S
C351 C356 1.399 . S
C352 C351 1.399 . S
C352 C353 1.376 . S
C353 H340 0.930 . S
C353 C352 1.376 . S
C353 C354 1.388 . S
C354 H341 0.930 . S
C354 C353 1.388 . S
C354 C355 1.390 . S
C355 C354 1.390 . S
C355 C356 1.394 . S
C355 C361 1.465 . S
C356 C351 1.399 . S
C356 C355 1.394 . S
C356 C357 1.516 . S
C357 C356 1.516 . S
C357 C358 1.502 . S
C357 C359 1.561 . S
C357 C360 1.526 . S
C358 H342 0.959 . S
C358 H343 0.959 . S
C358 H344 0.961 . S
C358 C357 1.502 . S
C359 H345 0.960 . S
C359 H346 0.961 . S
C359 H347 0.959 . S
C359 C357 1.561 . S
C360 C357 1.526 . S
C360 C361 1.396 . S
C360 C365 1.390 . S
C361 C355 1.465 . S
C361 C360 1.396 . S
C361 C362 1.399 . S
C362 H348 0.929 . S
C362 C361 1.399 . S
C362 C363 1.385 . S
C363 H349 0.931 . S
C363 C362 1.385 . S
C363 C364 1.389 . S
C364 C363 1.389 . S
C364 C365 1.387 . S
C365 H350 0.930 . S
C365 C360 1.390 . S
C365 C364 1.387 . S
H366 C378 0.930 . S
H367 C380 0.930 . S
H368 C381 0.930 . S
H369 C385 0.959 . S
H370 C385 0.959 . S
H371 C385 0.961 . S
H372 C386 0.960 . S
H373 C386 0.961 . S
H374 C386 0.959 . S
H375 C389 0.929 . S
H376 C390 0.931 . S
H377 C392 0.930 . S
C378 H366 0.930 . S
C378 C379 1.399 . S
C378 C383 1.399 . S
C379 C378 1.399 . S
C379 C380 1.376 . S
C380 H367 0.930 . S
C380 C379 1.376 . S
C380 C381 1.388 . S
C381 H368 0.930 . S
C381 C380 1.388 . S
C381 C382 1.390 . S
C382 C381 1.390 . S
C382 C383 1.394 . S
C382 C388 1.465 . S
C383 C378 1.399 . S
C383 C382 1.394 . S
C383 C384 1.516 . S
C384 C383 1.516 . S
C384 C385 1.502 . S
C384 C386 1.561 . S
C384 C387 1.526 . S
C385 H369 0.959 . S
C385 H370 0.959 . S
C385 H371 0.961 . S
C385 C384 1.502 . S
C386 H372 0.960 . S
C386 H373 0.961 . S
C386 H374 0.959 . S
C386 C384 1.561 . S
C387 C384 1.526 . S
C387 C388 1.396 . S
C387 C392 1.390 . S
C388 C382 1.465 . S
C388 C387 1.396 . S
C388 C389 1.399 . S
C389 H375 0.929 . S
C389 C388 1.399 . S
C389 C390 1.385 . S
C390 H376 0.931 . S
C390 C389 1.385 . S
C390 C391 1.389 . S
C391 C390 1.389 . S
C391 C392 1.387 . S
C392 H377 0.930 . S
C392 C387 1.390 . S
C392 C391 1.387 . S
H393 C405 0.930 . S
H394 C407 0.930 . S
H395 C408 0.930 . S
H396 C412 0.959 . S
H397 C412 0.959 . S
H398 C412 0.961 . S
H399 C413 0.960 . S
H400 C413 0.961 . S
H401 C413 0.959 . S
H402 C416 0.929 . S
H403 C417 0.931 . S
H404 C419 0.930 . S
C405 H393 0.930 . S
C405 C406 1.399 . S
C405 C410 1.399 . S
C406 C405 1.399 . S
C406 C407 1.376 . S
C407 H394 0.930 . S
C407 C406 1.376 . S
C407 C408 1.388 . S
C408 H395 0.930 . S
C408 C407 1.388 . S
C408 C409 1.390 . S
C409 C408 1.390 . S
C409 C410 1.394 . S
C409 C415 1.465 . S
C410 C405 1.399 . S
C410 C409 1.394 . S
C410 C411 1.516 . S
C411 C410 1.516 . S
C411 C412 1.502 . S
C411 C413 1.561 . S
C411 C414 1.526 . S
C412 H396 0.959 . S
C412 H397 0.959 . S
C412 H398 0.961 . S
C412 C411 1.502 . S
C413 H399 0.960 . S
C413 H400 0.961 . S
C413 H401 0.959 . S
C413 C411 1.561 . S
C414 C411 1.526 . S
C414 C415 1.396 . S
C414 C419 1.390 . S
C415 C409 1.465 . S
C415 C414 1.396 . S
C415 C416 1.399 . S
C416 H402 0.929 . S
C416 C415 1.399 . S
C416 C417 1.385 . S
C417 H403 0.931 . S
C417 C416 1.385 . S
C417 C418 1.389 . S
C418 C417 1.389 . S
C418 C419 1.387 . S
C419 H404 0.930 . S
C419 C414 1.390 . S
C419 C418 1.387 . S
H420 C432 0.930 . S
H421 C434 0.930 . S
H422 C435 0.930 . S
H423 C439 0.959 . S
H424 C439 0.959 . S
H425 C439 0.961 . S
H426 C440 0.960 . S
H427 C440 0.961 . S
H428 C440 0.959 . S
H429 C443 0.929 . S
H430 C444 0.931 . S
H431 C446 0.930 . S
C432 H420 0.930 . S
C432 C433 1.399 . S
C432 C437 1.399 . S
C433 C432 1.399 . S
C433 C434 1.376 . S
C434 H421 0.930 . S
C434 C433 1.376 . S
C434 C435 1.388 . S
C435 H422 0.930 . S
C435 C434 1.388 . S
C435 C436 1.390 . S
C436 C435 1.390 . S
C436 C437 1.394 . S
C436 C442 1.465 . S
C437 C432 1.399 . S
C437 C436 1.394 . S
C437 C438 1.516 . S
C438 C437 1.516 . S
C438 C439 1.502 . S
C438 C440 1.561 . S
C438 C441 1.526 . S
C439 H423 0.959 . S
C439 H424 0.959 . S
C439 H425 0.961 . S
C439 C438 1.502 . S
C440 H426 0.960 . S
C440 H427 0.961 . S
C440 H428 0.959 . S
C440 C438 1.561 . S
C441 C438 1.526 . S
C441 C442 1.396 . S
C441 C446 1.390 . S
C442 C436 1.465 . S
C442 C441 1.396 . S
C442 C443 1.399 . S
C443 H429 0.929 . S
C443 C442 1.399 . S
C443 C444 1.385 . S
C444 H430 0.931 . S
C444 C443 1.385 . S
C444 C445 1.389 . S
C445 C444 1.389 . S
C445 C446 1.387 . S
C446 H431 0.930 . S
C446 C441 1.390 . S
C446 C445 1.387 . S
H447 C459 0.930 . S
H448 C461 0.930 . S
H449 C462 0.930 . S
H450 C466 0.959 . S
H451 C466 0.959 . S
H452 C466 0.961 . S
H453 C467 0.960 . S
H454 C467 0.961 . S
H455 C467 0.959 . S
H456 C470 0.929 . S
H457 C471 0.931 . S
H458 C473 0.930 . S
C459 H447 0.930 . S
C459 C460 1.399 . S
C459 C464 1.399 . S
C460 C459 1.399 . S
C460 C461 1.376 . S
C461 H448 0.930 . S
C461 C460 1.376 . S
C461 C462 1.388 . S
C462 H449 0.930 . S
C462 C461 1.388 . S
C462 C463 1.390 . S
C463 C462 1.390 . S
C463 C464 1.394 . S
C463 C469 1.465 . S
C464 C459 1.399 . S
C464 C463 1.394 . S
C464 C465 1.516 . S
C465 C464 1.516 . S
C465 C466 1.502 . S
C465 C467 1.561 . S
C465 C468 1.526 . S
C466 H450 0.959 . S
C466 H451 0.959 . S
C466 H452 0.961 . S
C466 C465 1.502 . S
C467 H453 0.960 . S
C467 H454 0.961 . S
C467 H455 0.959 . S
C467 C465 1.561 . S
C468 C465 1.526 . S
C468 C469 1.396 . S
C468 C473 1.390 . S
C469 C463 1.465 . S
C469 C468 1.396 . S
C469 C470 1.399 . S
C470 H456 0.929 . S
C470 C469 1.399 . S
C470 C471 1.385 . S
C471 H457 0.931 . S
C471 C470 1.385 . S
C471 C472 1.389 . S
C472 C471 1.389 . S
C472 C473 1.387 . S
C473 H458 0.930 . S
C473 C468 1.390 . S
C473 C472 1.387 . S
H474 C486 0.930 . S
H475 C488 0.930 . S
H476 C489 0.930 . S
H477 C493 0.959 . S
H478 C493 0.959 . S
H479 C493 0.961 . S
H480 C494 0.960 . S
H481 C494 0.961 . S
H482 C494 0.959 . S
H483 C497 0.929 1_554 S
H484 C498 0.931 1_554 S
H485 C500 0.930 . S
C486 H474 0.930 . S
C486 C487 1.399 . S
C486 C491 1.399 . S
C487 C486 1.399 . S
C487 C488 1.376 . S
C488 H475 0.930 . S
C488 C487 1.376 . S
C488 C489 1.388 . S
C489 H476 0.930 . S
C489 C488 1.388 . S
C489 C490 1.390 . S
C490 C489 1.390 . S
C490 C491 1.394 . S
C490 C496 1.465 . S
C491 C486 1.399 . S
C491 C490 1.394 . S
C491 C492 1.516 . S
C492 C491 1.516 . S
C492 C493 1.502 . S
C492 C494 1.561 . S
C492 C495 1.526 . S
C493 H477 0.959 . S
C493 H478 0.959 . S
C493 H479 0.961 . S
C493 C492 1.502 . S
C494 H480 0.960 . S
C494 H481 0.961 . S
C494 H482 0.959 . S
C494 C492 1.561 . S
C495 C492 1.526 . S
C495 C496 1.396 . S
C495 C500 1.390 . S
C496 C490 1.465 . S
C496 C495 1.396 . S
C496 C497 1.399 . S
C497 H483 0.929 1_556 S
C497 C496 1.399 . S
C497 C498 1.385 . S
C498 H484 0.931 1_556 S
C498 C497 1.385 . S
C498 C499 1.389 . S
C499 C498 1.389 . S
C499 C500 1.387 . S
C500 H485 0.930 . S
C500 C495 1.390 . S
C500 C499 1.387 . S
H501 C513 0.930 . S
H502 C515 0.930 . S
H503 C516 0.930 . S
H504 C520 0.959 . S
H505 C520 0.959 . S
H506 C520 0.961 . S
H507 C521 0.960 . S
H508 C521 0.961 . S
H509 C521 0.959 . S
H510 C524 0.929 . S
H511 C525 0.931 . S
H512 C527 0.930 . S
C513 H501 0.930 . S
C513 C514 1.399 . S
C513 C518 1.399 . S
C514 C513 1.399 . S
C514 C515 1.376 . S
C515 H502 0.930 . S
C515 C514 1.376 . S
C515 C516 1.388 . S
C516 H503 0.930 . S
C516 C515 1.388 . S
C516 C517 1.390 . S
C517 C516 1.390 . S
C517 C518 1.394 . S
C517 C523 1.465 . S
C518 C513 1.399 . S
C518 C517 1.394 . S
C518 C519 1.516 . S
C519 C518 1.516 . S
C519 C520 1.502 . S
C519 C521 1.561 . S
C519 C522 1.526 . S
C520 H504 0.959 . S
C520 H505 0.959 . S
C520 H506 0.961 . S
C520 C519 1.502 . S
C521 H507 0.960 . S
C521 H508 0.961 . S
C521 H509 0.959 . S
C521 C519 1.561 . S
C522 C519 1.526 . S
C522 C523 1.396 . S
C522 C527 1.390 . S
C523 C517 1.465 . S
C523 C522 1.396 . S
C523 C524 1.399 . S
C524 H510 0.929 . S
C524 C523 1.399 . S
C524 C525 1.385 . S
C525 H511 0.931 . S
C525 C524 1.385 . S
C525 C526 1.389 . S
C526 C525 1.389 . S
C526 C527 1.387 . S
C527 H512 0.930 . S
C527 C522 1.390 . S
C527 C526 1.387 . S
H528 C540 0.930 . S
H529 C542 0.930 . S
H530 C543 0.930 . S
H531 C547 0.959 . S
H532 C547 0.959 . S
H533 C547 0.961 . S
H534 C548 0.960 . S
H535 C548 0.961 . S
H536 C548 0.959 . S
H537 C551 0.929 . S
H538 C552 0.931 . S
H539 C554 0.930 . S
C540 H528 0.930 . S
C540 C541 1.399 . S
C540 C545 1.399 . S
C541 C540 1.399 . S
C541 C542 1.376 . S
C542 H529 0.930 . S
C542 C541 1.376 . S
C542 C543 1.388 . S
C543 H530 0.930 . S
C543 C542 1.388 . S
C543 C544 1.390 . S
C544 C543 1.390 . S
C544 C545 1.394 . S
C544 C550 1.465 . S
C545 C540 1.399 . S
C545 C544 1.394 . S
C545 C546 1.516 . S
C546 C545 1.516 . S
C546 C547 1.502 . S
C546 C548 1.561 . S
C546 C549 1.526 . S
C547 H531 0.959 . S
C547 H532 0.959 . S
C547 H533 0.961 . S
C547 C546 1.502 . S
C548 H534 0.960 . S
C548 H535 0.961 . S
C548 H536 0.959 . S
C548 C546 1.561 . S
C549 C546 1.526 . S
C549 C550 1.396 . S
C549 C554 1.390 . S
C550 C544 1.465 . S
C550 C549 1.396 . S
C550 C551 1.399 . S
C551 H537 0.929 . S
C551 C550 1.399 . S
C551 C552 1.385 . S
C552 H538 0.931 . S
C552 C551 1.385 . S
C552 C553 1.389 . S
C553 C552 1.389 . S
C553 C554 1.387 . S
C554 H539 0.930 . S
C554 C549 1.390 . S
C554 C553 1.387 . S
H555 C567 0.930 . S
H556 C569 0.930 . S
H557 C570 0.930 1_554 S
H558 C574 0.959 . S
H559 C574 0.959 . S
H560 C574 0.961 . S
H561 C575 0.960 . S
H562 C575 0.961 . S
H563 C575 0.959 . S
H564 C578 0.929 . S
H565 C579 0.931 . S
H566 C581 0.930 . S
C567 H555 0.930 . S
C567 C568 1.399 . S
C567 C572 1.399 . S
C568 C567 1.399 . S
C568 C569 1.376 . S
C569 H556 0.930 . S
C569 C568 1.376 . S
C569 C570 1.388 . S
C570 H557 0.930 1_556 S
C570 C569 1.388 . S
C570 C571 1.390 . S
C571 C570 1.390 . S
C571 C572 1.394 . S
C571 C577 1.465 . S
C572 C567 1.399 . S
C572 C571 1.394 . S
C572 C573 1.516 . S
C573 C572 1.516 . S
C573 C574 1.502 . S
C573 C575 1.561 . S
C573 C576 1.526 . S
C574 H558 0.959 . S
C574 H559 0.959 . S
C574 H560 0.961 . S
C574 C573 1.502 . S
C575 H561 0.960 . S
C575 H562 0.961 . S
C575 H563 0.959 . S
C575 C573 1.561 . S
C576 C573 1.526 . S
C576 C577 1.396 . S
C576 C581 1.390 . S
C577 C571 1.465 . S
C577 C576 1.396 . S
C577 C578 1.399 1_556 S
C578 H564 0.929 . S
C578 C577 1.399 1_554 S
C578 C579 1.385 . S
C579 H565 0.931 . S
C579 C578 1.385 . S
C579 C580 1.389 1_554 S
C580 C579 1.389 1_556 S
C580 C581 1.387 . S
C581 H566 0.930 . S
C581 C576 1.390 . S
C581 C580 1.387 . S
H582 C594 0.930 . S
H583 C596 0.930 . S
H584 C597 0.930 . S
H585 C601 0.959 . S
H586 C601 0.959 . S
H587 C601 0.961 . S
H588 C602 0.960 . S
H589 C602 0.961 . S
H590 C602 0.959 . S
H591 C605 0.929 . S
H592 C606 0.931 . S
H593 C608 0.930 . S
C594 H582 0.930 . S
C594 C595 1.399 . S
C594 C599 1.399 . S
C595 C594 1.399 . S
C595 C596 1.376 . S
C596 H583 0.930 . S
C596 C595 1.376 . S
C596 C597 1.388 . S
C597 H584 0.930 . S
C597 C596 1.388 . S
C597 C598 1.390 . S
C598 C597 1.390 . S
C598 C599 1.394 . S
C598 C604 1.465 . S
C599 C594 1.399 . S
C599 C598 1.394 . S
C599 C600 1.516 . S
C600 C599 1.516 . S
C600 C601 1.502 . S
C600 C602 1.561 . S
C600 C603 1.526 . S
C601 H585 0.959 . S
C601 H586 0.959 . S
C601 H587 0.961 . S
C601 C600 1.502 . S
C602 H588 0.960 . S
C602 H589 0.961 . S
C602 H590 0.959 . S
C602 C600 1.561 . S
C603 C600 1.526 . S
C603 C604 1.396 . S
C603 C608 1.390 . S
C604 C598 1.465 . S
C604 C603 1.396 . S
C604 C605 1.399 . S
C605 H591 0.929 . S
C605 C604 1.399 . S
C605 C606 1.385 . S
C606 H592 0.931 . S
C606 C605 1.385 . S
C606 C607 1.389 . S
C607 C606 1.389 . S
C607 C608 1.387 . S
C608 H593 0.930 . S
C608 C603 1.390 . S
C608 C607 1.387 . S
H609 C621 0.930 . S
H610 C623 0.930 . S
H611 C624 0.930 . S
H612 C628 0.959 . S
H613 C628 0.959 . S
H614 C628 0.961 . S
H615 C629 0.960 . S
H616 C629 0.961 . S
H617 C629 0.959 . S
H618 C632 0.929 . S
H619 C633 0.931 . S
H620 C635 0.930 . S
C621 H609 0.930 . S
C621 C622 1.399 . S
C621 C626 1.399 . S
C622 C621 1.399 . S
C622 C623 1.376 . S
C623 H610 0.930 . S
C623 C622 1.376 . S
C623 C624 1.388 . S
C624 H611 0.930 . S
C624 C623 1.388 . S
C624 C625 1.390 . S
C625 C624 1.390 . S
C625 C626 1.394 . S
C625 C631 1.465 . S
C626 C621 1.399 . S
C626 C625 1.394 . S
C626 C627 1.516 . S
C627 C626 1.516 . S
C627 C628 1.502 . S
C627 C629 1.561 . S
C627 C630 1.526 . S
C628 H612 0.959 . S
C628 H613 0.959 . S
C628 H614 0.961 . S
C628 C627 1.502 . S
C629 H615 0.960 . S
C629 H616 0.961 . S
C629 H617 0.959 . S
C629 C627 1.561 . S
C630 C627 1.526 . S
C630 C631 1.396 . S
C630 C635 1.390 . S
C631 C625 1.465 . S
C631 C630 1.396 . S
C631 C632 1.399 . S
C632 H618 0.929 . S
C632 C631 1.399 . S
C632 C633 1.385 . S
C633 H619 0.931 . S
C633 C632 1.385 . S
C633 C634 1.389 . S
C634 C633 1.389 . S
C634 C635 1.387 . S
C635 H620 0.930 . S
C635 C630 1.390 . S
C635 C634 1.387 . S
H636 C648 0.930 . S
H637 C650 0.930 . S
H638 C651 0.930 . S
H639 C655 0.959 . S
H640 C655 0.959 . S
H641 C655 0.961 . S
H642 C656 0.960 . S
H643 C656 0.961 . S
H644 C656 0.959 . S
H645 C659 0.929 . S
H646 C660 0.931 1_545 S
H647 C662 0.930 . S
C648 H636 0.930 . S
C648 C649 1.399 . S
C648 C653 1.399 . S
C649 C648 1.399 . S
C649 C650 1.376 . S
C650 H637 0.930 . S
C650 C649 1.376 . S
C650 C651 1.388 . S
C651 H638 0.930 . S
C651 C650 1.388 . S
C651 C652 1.390 . S
C652 C651 1.390 . S
C652 C653 1.394 . S
C652 C658 1.465 . S
C653 C648 1.399 . S
C653 C652 1.394 . S
C653 C654 1.516 . S
C654 C653 1.516 . S
C654 C655 1.502 . S
C654 C656 1.561 . S
C654 C657 1.526 . S
C655 H639 0.959 . S
C655 H640 0.959 . S
C655 H641 0.961 . S
C655 C654 1.502 . S
C656 H642 0.960 . S
C656 H643 0.961 . S
C656 H644 0.959 . S
C656 C654 1.561 . S
C657 C654 1.526 . S
C657 C658 1.396 . S
C657 C662 1.390 . S
C658 C652 1.465 . S
C658 C657 1.396 . S
C658 C659 1.399 . S
C659 H645 0.929 . S
C659 C658 1.399 . S
C659 C660 1.385 . S
C660 H646 0.931 1_565 S
C660 C659 1.385 . S
C660 C661 1.389 . S
C661 C660 1.389 . S
C661 C662 1.387 . S
C662 H647 0.930 . S
C662 C657 1.390 . S
C662 C661 1.387 . S
H663 C675 0.930 . S
H664 C677 0.930 . S
H665 C678 0.930 . S
H666 C682 0.959 . S
H667 C682 0.959 . S
H668 C682 0.961 . S
H669 C683 0.960 . S
H670 C683 0.961 . S
H671 C683 0.959 . S
H672 C686 0.929 . S
H673 C687 0.931 . S
H674 C689 0.930 . S
C675 H663 0.930 . S
C675 C676 1.399 . S
C675 C680 1.399 . S
C676 C675 1.399 . S
C676 C677 1.376 . S
C677 H664 0.930 . S
C677 C676 1.376 . S
C677 C678 1.388 . S
C678 H665 0.930 . S
C678 C677 1.388 . S
C678 C679 1.390 . S
C679 C678 1.390 . S
C679 C680 1.394 . S
C679 C685 1.465 . S
C680 C675 1.399 . S
C680 C679 1.394 . S
C680 C681 1.516 . S
C681 C680 1.516 . S
C681 C682 1.502 . S
C681 C683 1.561 . S
C681 C684 1.526 . S
C682 H666 0.959 . S
C682 H667 0.959 . S
C682 H668 0.961 . S
C682 C681 1.502 . S
C683 H669 0.960 . S
C683 H670 0.961 . S
C683 H671 0.959 . S
C683 C681 1.561 . S
C684 C681 1.526 . S
C684 C685 1.396 . S
C684 C689 1.390 . S
C685 C679 1.465 . S
C685 C684 1.396 . S
C685 C686 1.399 . S
C686 H672 0.929 . S
C686 C685 1.399 . S
C686 C687 1.385 . S
C687 H673 0.931 . S
C687 C686 1.385 . S
C687 C688 1.389 . S
C688 C687 1.389 . S
C688 C689 1.387 . S
C689 H674 0.930 . S
C689 C684 1.390 . S
C689 C688 1.387 . S
H690 C702 0.930 . S
H691 C704 0.930 . S
H692 C705 0.930 . S
H693 C709 0.959 . S
H694 C709 0.959 . S
H695 C709 0.961 . S
H696 C710 0.960 . S
H697 C710 0.961 . S
H698 C710 0.959 . S
H699 C713 0.929 . S
H700 C714 0.931 . S
H701 C716 0.930 . S
C702 H690 0.930 . S
C702 C703 1.399 . S
C702 C707 1.399 . S
C703 C702 1.399 . S
C703 C704 1.376 . S
C704 H691 0.930 . S
C704 C703 1.376 . S
C704 C705 1.388 . S
C705 H692 0.930 . S
C705 C704 1.388 . S
C705 C706 1.390 . S
C706 C705 1.390 . S
C706 C707 1.394 . S
C706 C712 1.465 . S
C707 C702 1.399 . S
C707 C706 1.394 . S
C707 C708 1.516 . S
C708 C707 1.516 . S
C708 C709 1.502 . S
C708 C710 1.561 . S
C708 C711 1.526 . S
C709 H693 0.959 . S
C709 H694 0.959 . S
C709 H695 0.961 . S
C709 C708 1.502 . S
C710 H696 0.960 . S
C710 H697 0.961 . S
C710 H698 0.959 . S
C710 C708 1.561 . S
C711 C708 1.526 . S
C711 C712 1.396 . S
C711 C716 1.390 . S
C712 C706 1.465 . S
C712 C711 1.396 . S
C712 C713 1.399 . S
C713 H699 0.929 . S
C713 C712 1.399 . S
C713 C714 1.385 . S
C714 H700 0.931 . S
C714 C713 1.385 . S
C714 C715 1.389 . S
C715 C714 1.389 . S
C715 C716 1.387 . S
C716 H701 0.930 . S
C716 C711 1.390 . S
C716 C715 1.387 . S
H717 C729 0.930 . S
H718 C731 0.930 . S
H719 C732 0.930 . S
H720 C736 0.959 . S
H721 C736 0.959 . S
H722 C736 0.961 . S
H723 C737 0.960 . S
H724 C737 0.961 . S
H725 C737 0.959 . S
H726 C740 0.929 . S
H727 C741 0.931 . S
H728 C743 0.930 . S
C729 H717 0.930 . S
C729 C730 1.399 . S
C729 C734 1.399 . S
C730 C729 1.399 . S
C730 C731 1.376 . S
C731 H718 0.930 . S
C731 C730 1.376 . S
C731 C732 1.388 . S
C732 H719 0.930 . S
C732 C731 1.388 . S
C732 C733 1.390 . S
C733 C732 1.390 . S
C733 C734 1.394 . S
C733 C739 1.465 . S
C734 C729 1.399 . S
C734 C733 1.394 . S
C734 C735 1.516 . S
C735 C734 1.516 . S
C735 C736 1.502 . S
C735 C737 1.561 . S
C735 C738 1.526 . S
C736 H720 0.959 . S
C736 H721 0.959 . S
C736 H722 0.961 . S
C736 C735 1.502 . S
C737 H723 0.960 . S
C737 H724 0.961 . S
C737 H725 0.959 . S
C737 C735 1.561 . S
C738 C735 1.526 . S
C738 C739 1.396 . S
C738 C743 1.390 . S
C739 C733 1.465 . S
C739 C738 1.396 . S
C739 C740 1.399 . S
C740 H726 0.929 . S
C740 C739 1.399 . S
C740 C741 1.385 . S
C741 H727 0.931 . S
C741 C740 1.385 . S
C741 C742 1.389 . S
C742 C741 1.389 . S
C742 C743 1.387 . S
C743 H728 0.930 . S
C743 C738 1.390 . S
C743 C742 1.387 . S
H744 C756 0.930 . S
H745 C758 0.930 . S
H746 C759 0.930 . S
H747 C763 0.959 1_554 S
H748 C763 0.959 . S
H749 C763 0.961 . S
H750 C764 0.960 . S
H751 C764 0.961 1_545 S
H752 C764 0.959 . S
H753 C767 0.929 . S
H754 C768 0.931 . S
H755 C770 0.930 1_545 S
C756 H744 0.930 . S
C756 C757 1.399 . S
C756 C761 1.399 . S
C757 C756 1.399 . S
C757 C758 1.376 . S
C758 H745 0.930 . S
C758 C757 1.376 . S
C758 C759 1.388 1_556 S
C759 H746 0.930 . S
C759 C758 1.388 1_554 S
C759 C760 1.390 . S
C760 C759 1.390 . S
C760 C761 1.394 1_554 S
C760 C766 1.465 . S
C761 C756 1.399 . S
C761 C760 1.394 1_556 S
C761 C762 1.516 . S
C762 C761 1.516 . S
C762 C763 1.502 1_565 S
C762 C764 1.561 . S
C762 C765 1.526 1_556 S
C763 H747 0.959 1_556 S
C763 H748 0.959 . S
C763 H749 0.961 . S
C763 C762 1.502 1_545 S
C764 H750 0.960 . S
C764 H751 0.961 1_565 S
C764 H752 0.959 . S
C764 C762 1.561 . S
C765 C762 1.526 1_554 S
C765 C766 1.396 . S
C765 C770 1.390 . S
C766 C760 1.465 . S
C766 C765 1.396 . S
C766 C767 1.399 . S
C767 H753 0.929 . S
C767 C766 1.399 . S
C767 C768 1.385 . S
C768 H754 0.931 . S
C768 C767 1.385 . S
C768 C769 1.389 . S
C769 C768 1.389 . S
C769 C770 1.387 . S
C770 H755 0.930 1_565 S
C770 C765 1.390 . S
C770 C769 1.387 . S
H771 C783 0.930 . S
H772 C785 0.930 . S
H773 C786 0.930 . S
H774 C790 0.959 . S
H775 C790 0.959 . S
H776 C790 0.961 . S
H777 C791 0.960 . S
H778 C791 0.961 . S
H779 C791 0.959 . S
H780 C794 0.929 . S
H781 C795 0.931 . S
H782 C797 0.930 . S
C783 H771 0.930 . S
C783 C784 1.399 . S
C783 C788 1.399 . S
C784 C783 1.399 . S
C784 C785 1.376 . S
C785 H772 0.930 . S
C785 C784 1.376 . S
C785 C786 1.388 . S
C786 H773 0.930 . S
C786 C785 1.388 . S
C786 C787 1.390 . S
C787 C786 1.390 . S
C787 C788 1.394 . S
C787 C793 1.465 . S
C788 C783 1.399 . S
C788 C787 1.394 . S
C788 C789 1.516 . S
C789 C788 1.516 . S
C789 C790 1.502 . S
C789 C791 1.561 . S
C789 C792 1.526 . S
C790 H774 0.959 . S
C790 H775 0.959 . S
C790 H776 0.961 . S
C790 C789 1.502 . S
C791 H777 0.960 . S
C791 H778 0.961 . S
C791 H779 0.959 . S
C791 C789 1.561 . S
C792 C789 1.526 . S
C792 C793 1.396 . S
C792 C797 1.390 . S
C793 C787 1.465 . S
C793 C792 1.396 . S
C793 C794 1.399 . S
C794 H780 0.929 . S
C794 C793 1.399 . S
C794 C795 1.385 . S
C795 H781 0.931 . S
C795 C794 1.385 . S
C795 C796 1.389 . S
C796 C795 1.389 . S
C796 C797 1.387 . S
C797 H782 0.930 . S
C797 C792 1.390 . S
C797 C796 1.387 . S
H798 C810 0.930 . S
H799 C812 0.930 . S
H800 C813 0.930 . S
H801 C817 0.959 . S
H802 C817 0.959 . S
H803 C817 0.961 . S
H804 C818 0.960 . S
H805 C818 0.961 . S
H806 C818 0.959 . S
H807 C821 0.929 . S
H808 C822 0.931 . S
H809 C824 0.930 . S
C810 H798 0.930 . S
C810 C811 1.399 . S
C810 C815 1.399 . S
C811 C810 1.399 . S
C811 C812 1.376 . S
C812 H799 0.930 . S
C812 C811 1.376 . S
C812 C813 1.388 . S
C813 H800 0.930 . S
C813 C812 1.388 . S
C813 C814 1.390 . S
C814 C813 1.390 . S
C814 C815 1.394 . S
C814 C820 1.465 . S
C815 C810 1.399 . S
C815 C814 1.394 . S
C815 C816 1.516 . S
C816 C815 1.516 . S
C816 C817 1.502 . S
C816 C818 1.561 . S
C816 C819 1.526 . S
C817 H801 0.959 . S
C817 H802 0.959 . S
C817 H803 0.961 . S
C817 C816 1.502 . S
C818 H804 0.960 . S
C818 H805 0.961 . S
C818 H806 0.959 . S
C818 C816 1.561 . S
C819 C816 1.526 . S
C819 C820 1.396 . S
C819 C824 1.390 . S
C820 C814 1.465 . S
C820 C819 1.396 . S
C820 C821 1.399 . S
C821 H807 0.929 . S
C821 C820 1.399 . S
C821 C822 1.385 . S
C822 H808 0.931 . S
C822 C821 1.385 . S
C822 C823 1.389 . S
C823 C822 1.389 . S
C823 C824 1.387 . S
C824 H809 0.930 . S
C824 C819 1.390 . S
C824 C823 1.387 . S
H825 C837 0.930 . S
H826 C839 0.930 . S
H827 C840 0.930 . S
H828 C844 0.959 . S
H829 C844 0.959 . S
H830 C844 0.961 . S
H831 C845 0.960 . S
H832 C845 0.961 . S
H833 C845 0.959 . S
H834 C848 0.929 . S
H835 C849 0.931 . S
H836 C851 0.930 . S
C837 H825 0.930 . S
C837 C838 1.399 . S
C837 C842 1.399 . S
C838 C837 1.399 . S
C838 C839 1.376 . S
C839 H826 0.930 . S
C839 C838 1.376 . S
C839 C840 1.388 . S
C840 H827 0.930 . S
C840 C839 1.388 . S
C840 C841 1.390 . S
C841 C840 1.390 . S
C841 C842 1.394 . S
C841 C847 1.465 . S
C842 C837 1.399 . S
C842 C841 1.394 . S
C842 C843 1.516 . S
C843 C842 1.516 . S
C843 C844 1.502 . S
C843 C845 1.561 . S
C843 C846 1.526 . S
C844 H828 0.959 . S
C844 H829 0.959 . S
C844 H830 0.961 . S
C844 C843 1.502 . S
C845 H831 0.960 . S
C845 H832 0.961 . S
C845 H833 0.959 . S
C845 C843 1.561 . S
C846 C843 1.526 . S
C846 C847 1.396 . S
C846 C851 1.390 . S
C847 C841 1.465 . S
C847 C846 1.396 . S
C847 C848 1.399 . S
C848 H834 0.929 . S
C848 C847 1.399 . S
C848 C849 1.385 . S
C849 H835 0.931 . S
C849 C848 1.385 . S
C849 C850 1.389 . S
C850 C849 1.389 . S
C850 C851 1.387 . S
C851 H836 0.930 . S
C851 C846 1.390 . S
C851 C850 1.387 . S
H852 C864 0.930 . S
H853 C866 0.930 . S
H854 C867 0.930 . S
H855 C871 0.959 1_456 S
H856 C871 0.959 . S
H857 C871 0.961 . S
H858 C872 0.960 . S
H859 C872 0.961 . S
H860 C872 0.959 . S
H861 C875 0.929 . S
H862 C876 0.931 . S
H863 C878 0.930 1_554 S
C864 H852 0.930 . S
C864 C865 1.399 . S
C864 C869 1.399 . S
C865 C864 1.399 . S
C865 C866 1.376 . S
C866 H853 0.930 . S
C866 C865 1.376 . S
C866 C867 1.388 . S
C867 H854 0.930 . S
C867 C866 1.388 . S
C867 C868 1.390 . S
C868 C867 1.390 . S
C868 C869 1.394 . S
C868 C874 1.465 . S
C869 C864 1.399 . S
C869 C868 1.394 . S
C869 C870 1.516 . S
C870 C869 1.516 . S
C870 C871 1.502 1_556 S
C870 C872 1.561 1_556 S
C870 C873 1.526 . S
C871 H855 0.959 1_654 S
C871 H856 0.959 . S
C871 H857 0.961 . S
C871 C870 1.502 1_554 S
C872 H858 0.960 . S
C872 H859 0.961 . S
C872 H860 0.959 . S
C872 C870 1.561 1_554 S
C873 C870 1.526 . S
C873 C874 1.396 . S
C873 C878 1.390 . S
C874 C868 1.465 . S
C874 C873 1.396 . S
C874 C875 1.399 . S
C875 H861 0.929 . S
C875 C874 1.399 . S
C875 C876 1.385 . S
C876 H862 0.931 . S
C876 C875 1.385 . S
C876 C877 1.389 . S
C877 C876 1.389 . S
C877 C878 1.387 . S
C878 H863 0.930 1_556 S
C878 C873 1.390 . S
C878 C877 1.387 . S
H879 C891 0.930 . S
H880 C893 0.930 . S
H881 C894 0.930 . S
H882 C898 0.959 . S
H883 C898 0.959 . S
H884 C898 0.961 . S
H885 C899 0.960 . S
H886 C899 0.961 . S
H887 C899 0.959 . S
H888 C902 0.929 . S
H889 C903 0.931 . S
H890 C905 0.930 . S
C891 H879 0.930 . S
C891 C892 1.399 . S
C891 C896 1.399 . S
C892 C891 1.399 . S
C892 C893 1.376 . S
C893 H880 0.930 . S
C893 C892 1.376 . S
C893 C894 1.388 . S
C894 H881 0.930 . S
C894 C893 1.388 . S
C894 C895 1.390 . S
C895 C894 1.390 . S
C895 C896 1.394 . S
C895 C901 1.465 . S
C896 C891 1.399 . S
C896 C895 1.394 . S
C896 C897 1.516 . S
C897 C896 1.516 . S
C897 C898 1.502 . S
C897 C899 1.561 . S
C897 C900 1.526 . S
C898 H882 0.959 . S
C898 H883 0.959 . S
C898 H884 0.961 . S
C898 C897 1.502 . S
C899 H885 0.960 . S
C899 H886 0.961 . S
C899 H887 0.959 . S
C899 C897 1.561 . S
C900 C897 1.526 . S
C900 C901 1.396 . S
C900 C905 1.390 . S
C901 C895 1.465 . S
C901 C900 1.396 . S
C901 C902 1.399 . S
C902 H888 0.929 . S
C902 C901 1.399 . S
C902 C903 1.385 . S
C903 H889 0.931 . S
C903 C902 1.385 . S
C903 C904 1.389 . S
C904 C903 1.389 . S
C904 C905 1.387 . S
C905 H890 0.930 . S
C905 C900 1.390 . S
C905 C904 1.387 . S
H906 C918 0.930 . S
H907 C920 0.930 . S
H908 C921 0.930 . S
H909 C925 0.959 . S
H910 C925 0.959 . S
H911 C925 0.961 . S
H912 C926 0.960 . S
H913 C926 0.961 . S
H914 C926 0.959 . S
H915 C929 0.929 . S
H916 C930 0.931 . S
H917 C932 0.930 . S
C918 H906 0.930 . S
C918 C919 1.399 . S
C918 C923 1.399 . S
C919 C918 1.399 . S
C919 C920 1.376 . S
C920 H907 0.930 . S
C920 C919 1.376 . S
C920 C921 1.388 . S
C921 H908 0.930 . S
C921 C920 1.388 . S
C921 C922 1.390 . S
C922 C921 1.390 . S
C922 C923 1.394 . S
C922 C928 1.465 . S
C923 C918 1.399 . S
C923 C922 1.394 . S
C923 C924 1.516 . S
C924 C923 1.516 . S
C924 C925 1.502 . S
C924 C926 1.561 . S
C924 C927 1.526 . S
C925 H909 0.959 . S
C925 H910 0.959 . S
C925 H911 0.961 . S
C925 C924 1.502 . S
C926 H912 0.960 . S
C926 H913 0.961 . S
C926 H914 0.959 . S
C926 C924 1.561 . S
C927 C924 1.526 . S
C927 C928 1.396 . S
C927 C932 1.390 . S
C928 C922 1.465 . S
C928 C927 1.396 . S
C928 C929 1.399 . S
C929 H915 0.929 . S
C929 C928 1.399 . S
C929 C930 1.385 . S
C930 H916 0.931 . S
C930 C929 1.385 . S
C930 C931 1.389 . S
C931 C930 1.389 . S
C931 C932 1.387 . S
C932 H917 0.930 . S
C932 C927 1.390 . S
C932 C931 1.387 . S
H933 C945 0.930 . S
H934 C947 0.930 . S
H935 C948 0.930 . S
H936 C952 0.959 . S
H937 C952 0.959 . S
H938 C952 0.961 . S
H939 C953 0.960 . S
H940 C953 0.961 . S
H941 C953 0.959 . S
H942 C956 0.929 . S
H943 C957 0.931 . S
H944 C959 0.930 . S
C945 H933 0.930 . S
C945 C946 1.399 . S
C945 C950 1.399 . S
C946 C945 1.399 . S
C946 C947 1.376 . S
C947 H934 0.930 . S
C947 C946 1.376 . S
C947 C948 1.388 . S
C948 H935 0.930 . S
C948 C947 1.388 . S
C948 C949 1.390 . S
C949 C948 1.390 . S
C949 C950 1.394 . S
C949 C955 1.465 . S
C950 C945 1.399 . S
C950 C949 1.394 . S
C950 C951 1.516 . S
C951 C950 1.516 . S
C951 C952 1.502 . S
C951 C953 1.561 . S
C951 C954 1.526 . S
C952 H936 0.959 . S
C952 H937 0.959 . S
C952 H938 0.961 . S
C952 C951 1.502 . S
C953 H939 0.960 . S
C953 H940 0.961 . S
C953 H941 0.959 . S
C953 C951 1.561 . S
C954 C951 1.526 . S
C954 C955 1.396 . S
C954 C959 1.390 . S
C955 C949 1.465 . S
C955 C954 1.396 . S
C955 C956 1.399 . S
C956 H942 0.929 . S
C956 C955 1.399 . S
C956 C957 1.385 . S
C957 H943 0.931 . S
C957 C956 1.385 . S
C957 C958 1.389 . S
C958 C957 1.389 . S
C958 C959 1.387 . S
C959 H944 0.930 . S
C959 C954 1.390 . S
C959 C958 1.387 . S
C325 C6 3.176 . S
C337 C171 3.163 . S
C352 C21 2.637 . S
C364 C202 2.676 1_556 S
C391 C241 0.684 . S
C379 C49 0.763 . S
C406 C68 0.704 . S
C418 C278 0.390 . S
C445 C201 3.564 . S
C433 C2 3.620 . S
C472 C158 1.188 . S
C460 C30 1.075 . S
C499 C290 1.068 . S
C487 C40 1.061 . S
C526 C247 0.910 . S
C514 C63 0.986 . S
C541 C11 2.242 . S
C553 C291 2.502 . S
C580 C207 1.569 1_556 S
C568 C44 1.572 . S
C595 C59 0.405 . S
C607 C170 0.705 . S
C622 C25 2.597 . S
C634 C242 2.656 . S
C661 C162 3.183 . S
C649 C82 3.236 . S
C676 C101 2.296 . S
C688 C211 2.331 . S
C703 C125 1.094 . S
C715 C250 1.144 . S
C730 C144 0.335 . S
C742 C287 0.356 . S
C757 C87 2.502 . S
C769 C210 2.613 1_565 S
C796 C167 1.903 . S
C784 C97 1.822 . S
C823 C281 1.124 . S
C811 C120 1.137 . S
C850 C238 1.062 . S
C838 C135 1.005 . S
C865 C78 2.644 . S
C877 C282 2.652 1_655 S
C904 C198 1.316 . S
C892 C116 1.305 . S
C931 C161 0.693 . S
C919 C139 0.594 . S
C946 C106 2.116 . S
C958 C251 2.369 . S
