# Generated by pormake.
# Topology pyr, (3,6)-cn, num edge types: 1
# Building blocks:
#     Node 0, Type 0, BuildingBlock: VETTIZ_charged_linker_0, # of connection points: 3
#     Node 1, Type 0, BuildingBlock: VETTIZ_charged_linker_0, # of connection points: 3
#     Node 2, Type 0, BuildingBlock: VETTIZ_charged_linker_0, # of connection points: 3
#     Node 3, Type 0, BuildingBlock: VETTIZ_charged_linker_0, # of connection points: 3
#     Node 4, Type 0, BuildingBlock: VETTIZ_charged_linker_0, # of connection points: 3
#     Node 5, Type 0, BuildingBlock: VETTIZ_charged_linker_0, # of connection points: 3
#     Node 6, Type 0, BuildingBlock: VETTIZ_charged_linker_0, # of connection points: 3
#     Node 7, Type 0, BuildingBlock: VETTIZ_charged_linker_0, # of connection points: 3
#     Node 8, Type 1, BuildingBlock: MIDCAF_clean_sbu_0, # of connection points: 6
#     Node 9, Type 1, BuildingBlock: MIDCAF_clean_sbu_0, # of connection points: 6
#     Node 10, Type 1, BuildingBlock: MIDCAF_clean_sbu_0, # of connection points: 6
#     Node 11, Type 1, BuildingBlock: MIDCAF_clean_sbu_0, # of connection points: 6
#     Edge 12, Type (0, 1), BuildingBlock: XIVTED_clean_linker_0, # of connection points: 2
#     Edge 13, Type (0, 1), BuildingBlock: XIVTED_clean_linker_0, # of connection points: 2
#     Edge 14, Type (0, 1), BuildingBlock: XIVTED_clean_linker_0, # of connection points: 2
#     Edge 15, Type (0, 1), BuildingBlock: XIVTED_clean_linker_0, # of connection points: 2
#     Edge 16, Type (0, 1), BuildingBlock: XIVTED_clean_linker_0, # of connection points: 2
#     Edge 17, Type (0, 1), BuildingBlock: XIVTED_clean_linker_0, # of connection points: 2
#     Edge 18, Type (0, 1), BuildingBlock: XIVTED_clean_linker_0, # of connection points: 2
#     Edge 19, Type (0, 1), BuildingBlock: XIVTED_clean_linker_0, # of connection points: 2
#     Edge 20, Type (0, 1), BuildingBlock: XIVTED_clean_linker_0, # of connection points: 2
#     Edge 21, Type (0, 1), BuildingBlock: XIVTED_clean_linker_0, # of connection points: 2
#     Edge 22, Type (0, 1), BuildingBlock: XIVTED_clean_linker_0, # of connection points: 2
#     Edge 23, Type (0, 1), BuildingBlock: XIVTED_clean_linker_0, # of connection points: 2
#     Edge 24, Type (0, 1), BuildingBlock: XIVTED_clean_linker_0, # of connection points: 2
#     Edge 25, Type (0, 1), BuildingBlock: XIVTED_clean_linker_0, # of connection points: 2
#     Edge 26, Type (0, 1), BuildingBlock: XIVTED_clean_linker_0, # of connection points: 2
#     Edge 27, Type (0, 1), BuildingBlock: XIVTED_clean_linker_0, # of connection points: 2
#     Edge 28, Type (0, 1), BuildingBlock: XIVTED_clean_linker_0, # of connection points: 2
#     Edge 29, Type (0, 1), BuildingBlock: XIVTED_clean_linker_0, # of connection points: 2
#     Edge 30, Type (0, 1), BuildingBlock: XIVTED_clean_linker_0, # of connection points: 2
#     Edge 31, Type (0, 1), BuildingBlock: XIVTED_clean_linker_0, # of connection points: 2
#     Edge 32, Type (0, 1), BuildingBlock: XIVTED_clean_linker_0, # of connection points: 2
#     Edge 33, Type (0, 1), BuildingBlock: XIVTED_clean_linker_0, # of connection points: 2
#     Edge 34, Type (0, 1), BuildingBlock: XIVTED_clean_linker_0, # of connection points: 2
#     Edge 35, Type (0, 1), BuildingBlock: XIVTED_clean_linker_0, # of connection points: 2
# Relax obj value: 0.019
# Max RMSD: 0.063
# Mean RMSD: 0.021
data_MOF--net-pry--node1-MIDCAF_clean_sbu_0--node2-VETTIZ_charged_linker_0--edge1-XIVTED_clean_linker_0
_symmetry_space_group_name_H-M    P1
_symmetry_Int_Tables_number       1
_symmetry_cell_setting            triclinic
loop_
_symmetry_equiv_pos_as_xyz
'x, y, z'
_cell_length_a     43.687835
_cell_length_b     43.742402
_cell_length_c     43.747107
_cell_angle_alpha  89.948864
_cell_angle_beta   90.040385
_cell_angle_gamma 90.100962
loop_
_atom_site_label
_atom_site_type_symbol
_atom_site_fract_x
_atom_site_fract_y
_atom_site_fract_z
_atom_type_partial_charge
C0 C 0.19887 0.19037 0.33299 0.0
C1 C 0.17223 0.2024 0.34648 0.0
C2 C 0.15991 0.22977 0.33464 0.0
C3 C 0.19949 0.23156 0.29578 0.0
C4 C 0.21207 0.20527 0.30792 0.0
C5 C 0.23998 0.19498 0.29069 0.0
H6 H 0.33331 0.2104 0.1686 0.0
C7 C 0.218 0.24048 0.26889 0.0
C8 C 0.24191 0.21927 0.26597 0.0
H9 H 0.33817 0.14306 0.24097 0.0
H10 H 0.29561 0.16697 0.26643 0.0
H11 H 0.32363 0.26789 0.21333 0.0
H12 H 0.26018 0.21186 0.16283 0.0
H13 H 0.2496 0.25033 0.15788 0.0
H14 H 0.28653 0.23776 0.14481 0.0
H15 H 0.31854 0.27209 0.17285 0.0
H16 H 0.29465 0.29218 0.19985 0.0
C17 C 0.26781 0.19626 0.31267 0.0
C18 C 0.23329 0.16288 0.27726 0.0
C19 C 0.18428 0.32971 0.20255 0.0
C20 C 0.19596 0.34282 0.17554 0.0
C21 C 0.22336 0.33105 0.16321 0.0
C22 C 0.2384 0.30635 0.17709 0.0
C23 C 0.226 0.29312 0.20365 0.0
C24 C 0.19963 0.30514 0.21618 0.0
C25 C 0.18991 0.28848 0.24467 0.0
C26 C 0.21465 0.26427 0.24703 0.0
C27 C 0.23558 0.26691 0.2228 0.0
C28 C 0.19111 0.31122 0.27179 0.0
C29 C 0.15793 0.27428 0.23878 0.0
C30 C 0.32559 0.20101 0.19017 0.0
C31 C 0.33916 0.17456 0.20259 0.0
C32 C 0.32791 0.16302 0.23054 0.0
C33 C 0.30323 0.17706 0.2454 0.0
C34 C 0.28948 0.20296 0.23225 0.0
C35 C 0.30102 0.21481 0.20535 0.0
C36 C 0.28379 0.24272 0.19493 0.0
C37 C 0.25977 0.24544 0.21984 0.0
C38 C 0.26307 0.22193 0.24148 0.0
C39 C 0.30617 0.27025 0.19495 0.0
C40 C 0.26932 0.23562 0.16337 0.0
H41 H 0.16272 0.26494 0.30136 0.0
H42 H 0.20883 0.16921 0.34111 0.0
H43 H 0.20931 0.16145 0.26877 0.0
H44 H 0.24763 0.15728 0.25731 0.0
H45 H 0.23632 0.14481 0.29486 0.0
H46 H 0.26512 0.21484 0.32983 0.0
H47 H 0.27047 0.17443 0.32538 0.0
H48 H 0.28947 0.2017 0.30079 0.0
H49 H 0.16313 0.33778 0.21256 0.0
H50 H 0.23324 0.34095 0.14277 0.0
H51 H 0.25898 0.29833 0.16644 0.0
H52 H 0.20965 0.3284 0.26857 0.0
H53 H 0.16921 0.32387 0.27409 0.0
H54 H 0.19657 0.29998 0.29376 0.0
H55 H 0.1564 0.26505 0.21512 0.0
H56 H 0.15279 0.25467 0.25379 0.0
H57 H 0.1396 0.29163 0.24145 0.0
H58 H 0.13974 0.23989 0.34481 0.0
C59 C 0.17338 0.24438 0.30944 0.0
C60 C 0.20288 0.8273 0.68365 0.0
C61 C 0.19053 0.85605 0.69139 0.0
C62 C 0.20302 0.87178 0.7167 0.0
C63 C 0.24089 0.8319 0.72385 0.0
C64 C 0.22822 0.81605 0.69968 0.0
C65 C 0.24623 0.78781 0.69181 0.0
H66 H 0.37525 0.70458 0.70957 0.0
C67 C 0.26865 0.81534 0.73384 0.0
C68 C 0.27206 0.78962 0.71498 0.0
H69 H 0.30007 0.68805 0.64722 0.0
H70 H 0.27251 0.73057 0.66876 0.0
H71 H 0.37666 0.77588 0.70419 0.0
H72 H 0.33073 0.71761 0.76911 0.0
H73 H 0.34651 0.74853 0.78937 0.0
H74 H 0.3715 0.72279 0.76908 0.0
H75 H 0.39695 0.75547 0.73348 0.0
H76 H 0.38069 0.79267 0.74043 0.0
C77 C 0.25796 0.79125 0.65853 0.0
C78 C 0.22553 0.75955 0.69726 0.0
C79 C 0.33332 0.85839 0.82014 0.0
C80 C 0.36221 0.8507 0.83223 0.0
C81 C 0.37722 0.82456 0.8207 0.0
C82 C 0.36397 0.80687 0.7974 0.0
C83 C 0.33552 0.81549 0.78509 0.0
C84 C 0.32073 0.8409 0.79651 0.0
C85 C 0.29165 0.8479 0.77951 0.0
C86 C 0.29088 0.8219 0.7566 0.0
C87 C 0.31658 0.80295 0.75997 0.0
C88 C 0.29531 0.87954 0.76376 0.0
C89 C 0.26464 0.84593 0.80231 0.0
C90 C 0.35266 0.70974 0.7008 0.0
C91 C 0.34007 0.69297 0.67633 0.0
C92 C 0.31067 0.70089 0.66556 0.0
C93 C 0.29461 0.72556 0.67819 0.0
C94 C 0.30803 0.74272 0.70183 0.0
C95 C 0.33628 0.73427 0.71321 0.0
C96 C 0.34669 0.75471 0.73886 0.0
C97 C 0.32031 0.77718 0.74058 0.0
C98 C 0.29789 0.77024 0.71859 0.0
C99 C 0.37693 0.77047 0.72905 0.0
C100 C 0.34928 0.73507 0.76822 0.0
H101 H 0.2365 0.87306 0.75175 0.0
H102 H 0.19368 0.81406 0.66488 0.0
H103 H 0.20993 0.76333 0.71699 0.0
H104 H 0.23869 0.73886 0.70333 0.0
H105 H 0.21111 0.75465 0.67692 0.0
H106 H 0.26482 0.8153 0.65378 0.0
H107 H 0.23989 0.78492 0.6418 0.0
H108 H 0.27862 0.77765 0.65375 0.0
H109 H 0.32072 0.87795 0.82852 0.0
H110 H 0.39965 0.81817 0.82903 0.0
H111 H 0.37673 0.78753 0.78942 0.0
H112 H 0.3198 0.88538 0.75987 0.0
H113 H 0.28527 0.89808 0.77787 0.0
H114 H 0.28497 0.88018 0.74068 0.0
H115 H 0.2671 0.82555 0.81735 0.0
H116 H 0.24225 0.84328 0.79091 0.0
H117 H 0.26386 0.86649 0.81717 0.0
H118 H 0.19452 0.89405 0.72322 0.0
C119 C 0.22785 0.85974 0.73307 0.0
C120 C 0.70542 0.20177 0.84516 0.0
C121 C 0.67712 0.19004 0.83529 0.0
C122 C 0.66483 0.20016 0.80729 0.0
C123 C 0.70655 0.23618 0.80153 0.0
C124 C 0.71959 0.225 0.82809 0.0
C125 C 0.74806 0.24241 0.83683 0.0
H126 H 0.83122 0.37164 0.82459 0.0
C127 C 0.72456 0.26294 0.79143 0.0
C128 C 0.74899 0.26673 0.81193 0.0
H129 H 0.84748 0.29384 0.88375 0.0
H130 H 0.8071 0.2661 0.85881 0.0
H131 H 0.75812 0.36946 0.82275 0.0
H132 H 0.82593 0.32909 0.76396 0.0
H133 H 0.79517 0.33991 0.74054 0.0
H134 H 0.81612 0.36881 0.76139 0.0
H135 H 0.78268 0.39146 0.7982 0.0
H136 H 0.74719 0.3757 0.78449 0.0
C137 C 0.74291 0.25645 0.86892 0.0
C138 C 0.77579 0.22042 0.83495 0.0
C139 C 0.68543 0.32757 0.70315 0.0
C140 C 0.69442 0.35601 0.69103 0.0
C141 C 0.72052 0.3706 0.70337 0.0
C142 C 0.73697 0.3574 0.72753 0.0
C143 C 0.7272 0.32936 0.73982 0.0
C144 C 0.70196 0.31484 0.72746 0.0
C145 C 0.69418 0.28577 0.7441 0.0
C146 C 0.71934 0.28489 0.76806 0.0
C147 C 0.73854 0.31055 0.76554 0.0
C148 C 0.66188 0.28951 0.75847 0.0
C149 C 0.697 0.25885 0.72131 0.0
C150 C 0.82642 0.34855 0.83209 0.0
C151 C 0.84207 0.33557 0.85714 0.0
C152 C 0.83507 0.30514 0.86554 0.0
C153 C 0.81169 0.28885 0.8509 0.0
C154 C 0.79504 0.30288 0.82738 0.0
C155 C 0.80335 0.33168 0.81739 0.0
C156 C 0.78465 0.34172 0.79024 0.0
C157 C 0.76308 0.31464 0.78649 0.0
C158 C 0.76883 0.29234 0.80887 0.0
C159 C 0.76729 0.37125 0.79908 0.0
C160 C 0.80642 0.34535 0.76251 0.0
H161 H 0.66855 0.23022 0.76955 0.0
H162 H 0.71528 0.19444 0.86667 0.0
H163 H 0.77112 0.20076 0.8195 0.0
H164 H 0.7963 0.23165 0.82512 0.0
H165 H 0.78164 0.21092 0.85777 0.0
H166 H 0.72015 0.26777 0.87008 0.0
H167 H 0.74363 0.2385 0.88689 0.0
H168 H 0.75981 0.27413 0.87497 0.0
H169 H 0.66571 0.31551 0.69418 0.0
H170 H 0.72779 0.39274 0.69498 0.0
H171 H 0.75629 0.36988 0.73615 0.0
H172 H 0.65628 0.31397 0.76259 0.0
H173 H 0.64381 0.28004 0.7433 0.0
H174 H 0.65998 0.27877 0.78127 0.0
H175 H 0.71734 0.26194 0.70631 0.0
H176 H 0.70046 0.23661 0.73275 0.0
H177 H 0.67649 0.25734 0.70636 0.0
H178 H 0.64322 0.19112 0.7991 0.0
C179 C 0.67949 0.22297 0.79026 0.0
C180 C 0.85214 0.83326 0.32312 0.0
C181 C 0.84445 0.8453 0.352 0.0
C182 C 0.81895 0.83285 0.36751 0.0
C183 C 0.81154 0.79556 0.32715 0.0
C184 C 0.83591 0.8082 0.31152 0.0
C185 C 0.84375 0.79047 0.28312 0.0
H186 H 0.82676 0.66192 0.19939 0.0
C187 C 0.80141 0.76805 0.31027 0.0
C188 C 0.82038 0.76478 0.2846 0.0
H189 H 0.88857 0.73769 0.1832 0.0
H190 H 0.86649 0.76499 0.22555 0.0
H191 H 0.83121 0.66062 0.27085 0.0
H192 H 0.76667 0.70627 0.21195 0.0
H193 H 0.74618 0.69033 0.24265 0.0
H194 H 0.76679 0.66554 0.21698 0.0
H195 H 0.80241 0.64021 0.2498 0.0
H196 H 0.79462 0.6562 0.28695 0.0
C197 C 0.87699 0.77855 0.28655 0.0
C198 C 0.83852 0.81145 0.25506 0.0
C199 C 0.71426 0.7037 0.35224 0.0
C200 C 0.70212 0.67488 0.34442 0.0
C201 C 0.7139 0.65986 0.31839 0.0
C202 C 0.73747 0.67304 0.30094 0.0
C203 C 0.74981 0.70142 0.3097 0.0
C204 C 0.73819 0.71619 0.33503 0.0
C205 C 0.75535 0.7451 0.34235 0.0
C206 C 0.77849 0.74588 0.31654 0.0
C207 C 0.77516 0.72029 0.29744 0.0
C208 C 0.77084 0.74118 0.3741 0.0
C209 C 0.73274 0.77222 0.34039 0.0
C210 C 0.83531 0.68458 0.20459 0.0
C211 C 0.85987 0.69736 0.18801 0.0
C212 C 0.87025 0.72688 0.19593 0.0
C213 C 0.8573 0.74281 0.2205 0.0
C214 C 0.83371 0.72915 0.23756 0.0
C215 C 0.82254 0.70087 0.229 0.0
C216 C 0.79669 0.69035 0.24922 0.0
C217 C 0.79473 0.71667 0.27175 0.0
C218 C 0.81675 0.73912 0.26502 0.0
C219 C 0.80642 0.66016 0.26499 0.0
C220 C 0.76746 0.6877 0.22934 0.0
H221 H 0.78351 0.79971 0.36827 0.0
H222 H 0.87104 0.84247 0.31002 0.0
H223 H 0.81924 0.82753 0.25914 0.0
H224 H 0.83182 0.79857 0.23437 0.0
H225 H 0.8592 0.82534 0.24999 0.0
H226 H 0.88149 0.77114 0.31048 0.0
H227 H 0.89388 0.79668 0.28081 0.0
H228 H 0.88183 0.75824 0.2725 0.0
H229 H 0.70572 0.71633 0.3717 0.0
H230 H 0.70558 0.63747 0.31189 0.0
H231 H 0.74563 0.66027 0.28168 0.0
H232 H 0.77421 0.71665 0.37999 0.0
H233 H 0.7568 0.7515 0.39255 0.0
H234 H 0.79416 0.75107 0.37486 0.0
H235 H 0.71795 0.77009 0.31978 0.0
H236 H 0.74436 0.79455 0.33821 0.0
H237 H 0.71757 0.77286 0.36075 0.0
H238 H 0.81243 0.84113 0.38987 0.0
C239 C 0.80235 0.80834 0.35512 0.0
C240 C 0.9213 0.81652 0.97164 0.0
C241 C 0.94687 0.79851 0.96431 0.0
C242 C 0.96574 0.80726 0.93968 0.0
C243 C 0.93343 0.85102 0.92974 0.0
C244 C 0.91522 0.8428 0.95427 0.0
C245 C 0.88962 0.8652 0.9594 0.0
H246 H 0.81007 0.98895 0.91102 0.0
C247 C 0.92077 0.8792 0.91618 0.0
C248 C 0.89528 0.88788 0.93365 0.0
H249 H 0.79358 0.93337 0.99105 0.0
H250 H 0.83855 0.90336 0.98005 0.0
H251 H 0.83062 0.93338 0.8653 0.0
H252 H 0.88017 0.99643 0.92222 0.0
H253 H 0.90406 0.98914 0.89084 0.0
H254 H 0.86729 0.00703 0.88477 0.0
H255 H 0.83245 0.97386 0.85859 0.0
H256 H 0.8613 0.94854 0.84397 0.0
C257 C 0.85893 0.84791 0.95536 0.0
C258 C 0.894 0.88001 0.99131 0.0
C259 C 0.96764 0.92299 0.81899 0.0
C260 C 0.96109 0.94926 0.8017 0.0
C261 C 0.9372 0.96871 0.81107 0.0
C262 C 0.91977 0.96197 0.83703 0.0
C263 C 0.92635 0.93554 0.85402 0.0
C264 C 0.95023 0.9168 0.84522 0.0
C265 C 0.95477 0.8906 0.86706 0.0
C266 C 0.92934 0.89647 0.89002 0.0
C267 C 0.91256 0.9226 0.88199 0.0
C268 C 0.94963 0.86048 0.84918 0.0
C269 C 0.98697 0.89372 0.88171 0.0
C270 C 0.8162 0.97024 0.92606 0.0
C271 C 0.79826 0.96333 0.95179 0.0
C272 C 0.80719 0.93919 0.97119 0.0
C273 C 0.83319 0.92167 0.96465 0.0
C274 C 0.85059 0.92843 0.93851 0.0
C275 C 0.84234 0.95273 0.92005 0.0
C276 C 0.86434 0.95739 0.89404 0.0
C277 C 0.88671 0.93141 0.89953 0.0
C278 C 0.87833 0.91432 0.92539 0.0
C279 C 0.84643 0.9533 0.86375 0.0
C280 C 0.87972 0.98917 0.89785 0.0
H281 H 0.97426 0.83858 0.90378 0.0
H282 H 0.90662 0.81049 0.99067 0.0
H283 H 0.91861 0.88081 0.99787 0.0
H284 H 0.88651 0.90414 0.99193 0.0
H285 H 0.88168 0.86693 0.00928 0.0
H286 H 0.85998 0.83242 0.93523 0.0
H287 H 0.85373 0.83372 0.97579 0.0
H288 H 0.83937 0.8632 0.95097 0.0
H289 H 0.98614 0.90789 0.81248 0.0
H290 H 0.93165 0.98897 0.79793 0.0
H291 H 0.90175 0.97754 0.84276 0.0
H292 H 0.92947 0.86253 0.83376 0.0
H293 H 0.96984 0.85494 0.83484 0.0
H294 H 0.9446 0.84076 0.86409 0.0
H295 H 0.9946 0.918 0.8824 0.0
H296 H 0.98743 0.88626 0.90588 0.0
H297 H 0.00437 0.88067 0.86863 0.0
H298 H 0.9854 0.79356 0.93345 0.0
C299 C 0.95914 0.83333 0.92236 0.0
C300 C 0.72489 0.09065 0.44104 0.0
C301 C 0.73639 0.06514 0.42529 0.0
C302 C 0.72104 0.05473 0.39896 0.0
C303 C 0.68316 0.09488 0.40469 0.0
C304 C 0.69852 0.10521 0.4303 0.0
C305 C 0.68415 0.13338 0.44371 0.0
H306 H 0.57123 0.23895 0.44039 0.0
C307 C 0.65679 0.11539 0.39948 0.0
C308 C 0.65738 0.1381 0.42213 0.0
H309 H 0.64808 0.23423 0.50242 0.0
H310 H 0.66642 0.18886 0.47671 0.0
H311 H 0.55681 0.16458 0.4376 0.0
H312 H 0.60903 0.22666 0.38164 0.0
H313 H 0.59265 0.19976 0.3568 0.0
H314 H 0.56811 0.22442 0.37898 0.0
H315 H 0.53987 0.19448 0.41511 0.0
H316 H 0.54794 0.15755 0.39893 0.0
C317 C 0.6734 0.12564 0.47654 0.0
C318 C 0.70768 0.15992 0.4418 0.0
C319 C 0.58388 0.09447 0.31156 0.0
C320 C 0.55823 0.11003 0.30004 0.0
C321 C 0.54826 0.13684 0.31475 0.0
C322 C 0.5635 0.14782 0.3408 0.0
C323 C 0.58922 0.13202 0.352 0.0
C324 C 0.59908 0.10591 0.33726 0.0
C325 C 0.62764 0.09288 0.35132 0.0
C326 C 0.63315 0.11525 0.37721 0.0
C327 C 0.61048 0.13798 0.37766 0.0
C328 C 0.62011 0.06041 0.3633 0.0
C329 C 0.65357 0.09401 0.32712 0.0
C330 C 0.59179 0.22785 0.44866 0.0
C331 C 0.60809 0.23985 0.47365 0.0
C332 C 0.63519 0.22532 0.48322 0.0
C333 C 0.64573 0.19899 0.46828 0.0
C334 C 0.62916 0.18727 0.44328 0.0
C335 C 0.60278 0.20182 0.43375 0.0
C336 C 0.58891 0.18706 0.40594 0.0
C337 C 0.61107 0.16095 0.40058 0.0
C338 C 0.63446 0.16106 0.42263 0.0
C339 C 0.55657 0.17537 0.41455 0.0
C340 C 0.5894 0.21057 0.37938 0.0
H341 H 0.68361 0.06029 0.36858 0.0
H342 H 0.73661 0.09956 0.46098 0.0
H343 H 0.72324 0.15709 0.42188 0.0
H344 H 0.69677 0.18241 0.43812 0.0
H345 H 0.72213 0.16096 0.46268 0.0
H346 H 0.66287 0.10247 0.47733 0.0
H347 H 0.69295 0.12584 0.49279 0.0
H348 H 0.65556 0.14128 0.48507 0.0
H349 H 0.59248 0.07418 0.30028 0.0
H350 H 0.52856 0.14919 0.30617 0.0
H351 H 0.55478 0.16828 0.3511 0.0
H352 H 0.59723 0.06001 0.37446 0.0
H353 H 0.61968 0.04359 0.3443 0.0
H354 H 0.63627 0.05238 0.38094 0.0
H355 H 0.6503 0.11339 0.31096 0.0
H356 H 0.67637 0.09808 0.33732 0.0
H357 H 0.65423 0.07265 0.31342 0.0
H358 H 0.72954 0.03511 0.3865 0.0
C359 C 0.69438 0.06936 0.38867 0.0
C360 C 0.46785 0.61427 0.21777 0.0
C361 C 0.4613 0.58798 0.23504 0.0
C362 C 0.43716 0.56865 0.22584 0.0
C363 C 0.4262 0.60191 0.18299 0.0
C364 C 0.45025 0.62059 0.19169 0.0
C365 C 0.45478 0.64685 0.16992 0.0
H366 H 0.40659 0.72697 0.04633 0.0
C367 C 0.41234 0.61492 0.15508 0.0
C368 C 0.42917 0.64109 0.14708 0.0
H369 H 0.48576 0.74386 0.10317 0.0
H370 H 0.47432 0.69907 0.13324 0.0
H371 H 0.35989 0.7052 0.10178 0.0
H372 H 0.41839 0.65727 0.03905 0.0
H373 H 0.3868 0.63327 0.04533 0.0
H374 H 0.38112 0.6703 0.0279 0.0
H375 H 0.35354 0.70369 0.06125 0.0
H376 H 0.33923 0.67428 0.08623 0.0
C377 C 0.44992 0.67693 0.1879 0.0
C378 C 0.48687 0.64372 0.15509 0.0
C379 C 0.31684 0.56613 0.10953 0.0
C380 C 0.2994 0.57283 0.08339 0.0
C381 C 0.30804 0.59759 0.06464 0.0
C382 C 0.33344 0.61569 0.07196 0.0
C383 C 0.3506 0.60891 0.09824 0.0
C384 C 0.34248 0.58424 0.11631 0.0
C385 C 0.36433 0.57971 0.14252 0.0
C386 C 0.38651 0.60604 0.13745 0.0
C387 C 0.37811 0.62323 0.11167 0.0
C388 C 0.34611 0.58335 0.17265 0.0
C389 C 0.38005 0.54817 0.13865 0.0
C390 C 0.42126 0.721 0.06539 0.0
C391 C 0.44701 0.7389 0.07254 0.0
C392 C 0.46591 0.73023 0.09717 0.0
C393 C 0.45916 0.7043 0.11468 0.0
C394 C 0.43331 0.68663 0.10742 0.0
C395 C 0.41507 0.69482 0.08289 0.0
C396 C 0.38945 0.67238 0.07773 0.0
C397 C 0.39507 0.64975 0.10351 0.0
C398 C 0.42058 0.65844 0.121 0.0
C399 C 0.35878 0.68961 0.08173 0.0
C400 C 0.39384 0.65757 0.04582 0.0
H401 H 0.40137 0.56 0.19436 0.0
H402 H 0.48653 0.62929 0.22415 0.0
H403 H 0.4943 0.61942 0.15417 0.0
H404 H 0.48723 0.65138 0.13098 0.0
H405 H 0.50444 0.65659 0.16819 0.0
H406 H 0.42984 0.67488 0.20342 0.0
H407 H 0.47025 0.68239 0.20216 0.0
H408 H 0.44491 0.69669 0.17307 0.0
H409 H 0.3109 0.54699 0.12411 0.0
H410 H 0.29475 0.60328 0.04451 0.0
H411 H 0.33865 0.63435 0.05691 0.0
H412 H 0.32999 0.60295 0.17102 0.0
H413 H 0.33243 0.56249 0.17761 0.0
H414 H 0.36077 0.58837 0.19256 0.0
H415 H 0.38125 0.54137 0.11417 0.0
H416 H 0.40416 0.5483 0.14638 0.0
H417 H 0.36736 0.52995 0.15102 0.0
H418 H 0.43159 0.54839 0.23898 0.0
C419 C 0.41955 0.57551 0.20001 0.0
C420 C 0.09447 0.31033 0.58754 0.0
C421 C 0.11015 0.29853 0.56213 0.0
C422 C 0.13713 0.31311 0.55215 0.0
C423 C 0.13215 0.35082 0.59257 0.0
C424 C 0.1059 0.3362 0.60243 0.0
C425 C 0.09258 0.35066 0.63058 0.0
H426 H 0.09763 0.46202 0.73749 0.0
C427 C 0.13795 0.3768 0.61344 0.0
C428 C 0.11495 0.37666 0.63584 0.0
H429 H 0.03362 0.38689 0.73091 0.0
H430 H 0.05949 0.36848 0.6857 0.0
H431 H 0.10176 0.4772 0.66347 0.0
H432 H 0.15582 0.42274 0.72521 0.0
H433 H 0.18136 0.43929 0.69904 0.0
H434 H 0.15921 0.4636 0.72394 0.0
H435 H 0.12462 0.49323 0.69362 0.0
H436 H 0.14074 0.485 0.65667 0.0
C437 C 0.06015 0.36248 0.62255 0.0
C438 C 0.09343 0.32684 0.65689 0.0
C439 C 0.22843 0.44732 0.59457 0.0
C440 C 0.24027 0.4727 0.61037 0.0
C441 C 0.22532 0.48289 0.63699 0.0
C442 C 0.19875 0.46816 0.64752 0.0
C443 C 0.1872 0.44278 0.63144 0.0
C444 C 0.20214 0.43269 0.60552 0.0
C445 C 0.18743 0.40468 0.59201 0.0
C446 C 0.16096 0.39976 0.61389 0.0
C447 C 0.16082 0.42222 0.63683 0.0
C448 C 0.17623 0.41277 0.5594 0.0
C449 C 0.21083 0.37809 0.59331 0.0
C450 C 0.089 0.44182 0.72602 0.0
C451 C 0.06339 0.42601 0.73746 0.0
C452 C 0.05331 0.39938 0.72245 0.0
C453 C 0.06834 0.38881 0.6962 0.0
C454 C 0.09395 0.40485 0.68503 0.0
C455 C 0.104 0.43076 0.70004 0.0
C456 C 0.1324 0.44406 0.68578 0.0
C457 C 0.13753 0.42207 0.65947 0.0
C458 C 0.11482 0.39932 0.65904 0.0
C459 C 0.12478 0.47669 0.67436 0.0
C460 C 0.15866 0.44266 0.70962 0.0
H461 H 0.1687 0.34949 0.55841 0.0
H462 H 0.07407 0.29918 0.59617 0.0
H463 H 0.11266 0.31046 0.65392 0.0
H464 H 0.0976 0.33737 0.67948 0.0
H465 H 0.0719 0.31333 0.65779 0.0
H466 H 0.05998 0.37318 0.59946 0.0
H467 H 0.04327 0.34346 0.62239 0.0
H468 H 0.052 0.38044 0.63822 0.0
H469 H 0.2398 0.43856 0.5744 0.0
H470 H 0.23405 0.50241 0.64949 0.0
H471 H 0.1883 0.47705 0.66782 0.0
H472 H 0.16584 0.43597 0.55898 0.0
H473 H 0.19553 0.41266 0.54289 0.0
H474 H 0.15816 0.39726 0.55099 0.0
H475 H 0.2264 0.38047 0.61332 0.0
H476 H 0.19984 0.35553 0.59644 0.0
H477 H 0.22527 0.37755 0.57243 0.0
H478 H 0.14957 0.30434 0.53263 0.0
C479 C 0.14812 0.33931 0.56713 0.0
Zn480 Zn 0.97573 0.05923 0.55571 0.0
Zn481 Zn 0.04852 0.99229 0.48709 0.0
Zn482 Zn 0.01101 0.0246 0.52252 0.0
C483 C 0.06583 0.05242 0.47956 0.0
C484 C 0.98857 0.98121 0.46674 0.0
O485 O 0.01596 0.00944 0.57082 0.0
O486 O 0.98937 0.04432 0.59598 0.0
C487 C 0.0142 0.09919 0.52682 0.0
O488 O 0.04283 0.05561 0.49775 0.0
O489 O 0.07472 0.0261 0.47183 0.0
O490 O 0.0161 0.97564 0.45998 0.0
O491 O 0.9822 0.99886 0.48947 0.0
O492 O 0.99006 0.09995 0.54257 0.0
O493 O 0.02537 0.07334 0.51808 0.0
O494 O 0.96301 0.01848 0.50652 0.0
O495 O 0.93596 0.04473 0.54021 0.0
C496 C 0.93704 0.02775 0.51696 0.0
O497 O 0.03627 0.9922 0.55264 0.0
O498 O 0.06437 0.96564 0.52004 0.0
C499 C 0.00615 0.02089 0.59614 0.0
C500 C 0.05582 0.97084 0.5471 0.0
Zn501 Zn 0.48193 0.05473 0.99281 0.0
Zn502 Zn 0.55373 0.98498 0.05745 0.0
Zn503 Zn 0.51906 0.01819 0.02316 0.0
C504 C 0.59303 0.01631 0.01936 0.0
C505 C 0.51685 0.94444 0.02567 0.0
O506 O 0.49321 0.04877 0.05502 0.0
O507 O 0.46271 0.0774 0.02648 0.0
C508 C 0.54159 0.06738 0.97282 0.0
O509 O 0.56725 0.02467 0.00763 0.0
O510 O 0.59367 0.00024 0.04327 0.0
O511 O 0.54031 0.9447 0.04249 0.0
O512 O 0.50478 0.96977 0.01661 0.0
O513 O 0.5143 0.0764 0.97008 0.0
O514 O 0.54811 0.04499 0.99089 0.0
O515 O 0.48752 0.98841 0.99663 0.0
O516 O 0.45854 0.02183 0.97208 0.0
C517 C 0.46577 0.99443 0.9776 0.0
O518 O 0.51419 0.03183 0.07224 0.0
O519 O 0.54028 0.99738 0.09848 0.0
C520 C 0.47258 0.06972 0.05245 0.0
C521 C 0.52345 0.02075 0.098 0.0
Zn522 Zn 0.54937 0.55151 0.54941 0.0
Zn523 Zn 0.48076 0.4799 0.48133 0.0
Zn524 Zn 0.51526 0.51542 0.51385 0.0
C525 C 0.51947 0.44124 0.51236 0.0
C526 C 0.51095 0.51721 0.44007 0.0
O527 O 0.48508 0.54106 0.54566 0.0
O528 O 0.51612 0.56701 0.57618 0.0
C529 C 0.57089 0.49211 0.55746 0.0
O530 O 0.53074 0.46731 0.52036 0.0
O531 O 0.49545 0.44007 0.49639 0.0
O532 O 0.49467 0.49338 0.44068 0.0
O533 O 0.52027 0.52951 0.4652 0.0
O534 O 0.57715 0.51925 0.56501 0.0
O535 O 0.54839 0.48644 0.5392 0.0
O536 O 0.54047 0.54729 0.48324 0.0
O537 O 0.56466 0.57773 0.51567 0.0
C538 C 0.55842 0.57014 0.48851 0.0
O539 O 0.46674 0.52052 0.52894 0.0
O540 O 0.44021 0.49378 0.49516 0.0
C541 C 0.48934 0.55951 0.56828 0.0
C542 C 0.4409 0.51093 0.51831 0.0
Zn543 Zn 0.05356 0.55203 0.97597 0.0
Zn544 Zn 0.98726 0.48631 0.05134 0.0
Zn545 Zn 0.02071 0.51919 0.01198 0.0
C546 C 0.04824 0.47803 0.06776 0.0
C547 C 0.97624 0.46357 0.99195 0.0
O548 O 0.00684 0.56797 0.01701 0.0
O549 O 0.04193 0.593 0.99047 0.0
C550 C 0.09503 0.52171 0.01181 0.0
O551 O 0.05185 0.4947 0.04369 0.0
O552 O 0.02171 0.47209 0.07757 0.0
O553 O 0.97073 0.45813 0.01978 0.0
O554 O 0.99408 0.48585 0.9844 0.0
O555 O 0.0945 0.53709 0.98743 0.0
O556 O 0.06977 0.51381 0.02489 0.0
O557 O 0.01314 0.50275 0.96436 0.0
O558 O 0.03666 0.53801 0.9367 0.0
C559 C 0.0207 0.514 0.93815 0.0
O560 O 0.98931 0.55022 0.03717 0.0
O561 O 0.96055 0.51993 0.0659 0.0
C562 C 0.01878 0.59329 0.00765 0.0
C563 C 0.96738 0.54638 0.05654 0.0
H564 H 0.19842 0.17077 0.39411 0.0
H565 H 0.03961 0.10441 0.45702 0.0
H566 H 0.11045 0.1954 0.35641 0.0
H567 H 0.12683 0.06054 0.47064 0.0
H568 H 0.06555 0.14594 0.4294 0.0
H569 H 0.17252 0.13812 0.43133 0.0
C570 C 0.17367 0.16945 0.39368 0.0
C571 C 0.15667 0.18555 0.37167 0.0
C572 C 0.07902 0.1274 0.43877 0.0
C573 C 0.12688 0.14854 0.41465 0.0
C574 C 0.06429 0.10389 0.45468 0.0
C575 C 0.08123 0.07924 0.46618 0.0
C576 C 0.11085 0.12612 0.4344 0.0
C577 C 0.11303 0.07922 0.46207 0.0
C578 C 0.15892 0.15091 0.41506 0.0
C579 C 0.12457 0.18357 0.37293 0.0
N580 N 0.12683 0.10227 0.44645 0.0
N581 N 0.11073 0.1652 0.39388 0.0
H582 H 0.3581 0.9131 0.83795 0.0
H583 H 0.48644 0.93704 0.9618 0.0
H584 H 0.40097 0.83445 0.87975 0.0
H585 H 0.40872 0.99709 0.95322 0.0
H586 H 0.46011 0.8996 0.92912 0.0
H587 H 0.38159 0.94552 0.87636 0.0
C588 C 0.37208 0.90243 0.85537 0.0
C589 C 0.37704 0.87069 0.85564 0.0
C590 C 0.44873 0.92079 0.93489 0.0
C591 C 0.40507 0.90831 0.89931 0.0
C592 C 0.46355 0.94197 0.95383 0.0
C593 C 0.44953 0.96997 0.96075 0.0
C594 C 0.42018 0.92821 0.92215 0.0
C595 C 0.42041 0.97581 0.94851 0.0
C596 C 0.38569 0.92112 0.87723 0.0
C597 C 0.3966 0.85873 0.87831 0.0
N598 N 0.40688 0.9553 0.92959 0.0
N599 N 0.41007 0.87759 0.89915 0.0
H600 H 0.6318 0.35614 0.68398 0.0
H601 H 0.63255 0.49058 0.56295 0.0
H602 H 0.71466 0.39069 0.64255 0.0
H603 H 0.5513 0.43825 0.58281 0.0
H604 H 0.66309 0.45318 0.59104 0.0
H605 H 0.60186 0.38446 0.64635 0.0
C606 C 0.6438 0.36926 0.66673 0.0
C607 C 0.67594 0.37117 0.66673 0.0
C608 C 0.63867 0.44953 0.58891 0.0
C609 C 0.64156 0.40422 0.62389 0.0
C610 C 0.62126 0.47088 0.57292 0.0
C611 C 0.58948 0.46731 0.57056 0.0
C612 C 0.62408 0.4248 0.60333 0.0
C613 C 0.57583 0.44156 0.58394 0.0
C614 C 0.6266 0.38555 0.6453 0.0
C615 C 0.68999 0.38903 0.644 0.0
N616 N 0.59318 0.42142 0.60015 0.0
N617 N 0.67273 0.40509 0.62375 0.0
H618 H 0.92128 0.69552 0.17438 0.0
H619 H 0.90629 0.55055 0.06651 0.0
H620 H 0.83429 0.65798 0.14604 0.0
H621 H 0.99054 0.60087 0.07681 0.0
H622 H 0.87924 0.59096 0.09396 0.0
H623 H 0.94686 0.6629 0.13717 0.0
C624 C 0.90744 0.6808 0.16005 0.0
C625 C 0.87548 0.67943 0.16364 0.0
C626 C 0.90355 0.5935 0.08982 0.0
C627 C 0.90489 0.64141 0.12131 0.0
C628 C 0.91896 0.57044 0.07418 0.0
C629 C 0.95057 0.57262 0.06923 0.0
C630 C 0.92001 0.61863 0.10125 0.0
C631 C 0.96604 0.59866 0.07977 0.0
C632 C 0.92215 0.66203 0.13887 0.0
C633 C 0.85898 0.65941 0.14465 0.0
N634 N 0.95066 0.62054 0.09562 0.0
N635 N 0.87388 0.64102 0.12457 0.0
H636 H 0.34861 0.11261 0.19715 0.0
H637 H 0.46594 0.13054 0.06066 0.0
H638 H 0.38642 0.19961 0.16944 0.0
H639 H 0.44934 0.04389 0.10457 0.0
H640 H 0.43838 0.15623 0.10183 0.0
H641 H 0.38662 0.08679 0.16549 0.0
C642 C 0.36517 0.12634 0.18483 0.0
C643 C 0.36398 0.15845 0.18576 0.0
C644 C 0.44111 0.13165 0.10283 0.0
C645 C 0.40724 0.12888 0.14894 0.0
C646 C 0.45679 0.11703 0.07933 0.0
C647 C 0.45987 0.08518 0.07943 0.0
C648 C 0.42768 0.1142 0.12623 0.0
C649 C 0.44756 0.06857 0.10392 0.0
C650 C 0.38681 0.11152 0.16664 0.0
C651 C 0.38587 0.17488 0.1689 0.0
N652 N 0.43159 0.08325 0.12622 0.0
N653 N 0.40633 0.15994 0.15096 0.0
H654 H 0.18253 0.85017 0.62933 0.0
H655 H 0.07032 0.98812 0.60591 0.0
H656 H 0.1441 0.89602 0.70797 0.0
H657 H 0.07444 0.91196 0.54358 0.0
H658 H 0.09881 0.95784 0.6438 0.0
H659 H 0.14537 0.8756 0.59706 0.0
C660 C 0.16602 0.8651 0.64009 0.0
C661 C 0.16659 0.87057 0.67175 0.0
C662 C 0.09291 0.94764 0.62202 0.0
C663 C 0.1244 0.90094 0.63419 0.0
C664 C 0.07637 0.96476 0.60058 0.0
C665 C 0.06954 0.95233 0.57182 0.0
C666 C 0.10336 0.91832 0.61414 0.0
C667 C 0.07923 0.92244 0.56549 0.0
C668 C 0.14487 0.87987 0.62145 0.0
C669 C 0.14503 0.8913 0.68373 0.0
N670 N 0.0959 0.90662 0.58631 0.0
N671 N 0.12502 0.90599 0.66489 0.0
H672 H 0.85275 0.3324 0.91883 0.0
H673 H 0.95703 0.47917 0.93395 0.0
H674 H 0.88195 0.38125 0.83797 0.0
H675 H 0.95934 0.40428 0.99805 0.0
H676 H 0.9273 0.44702 0.89855 0.0
H677 H 0.88857 0.3621 0.94897 0.0
C678 C 0.86696 0.349 0.90717 0.0
C679 C 0.8644 0.35382 0.8755 0.0
C680 C 0.93478 0.43758 0.92019 0.0
C681 C 0.90506 0.38896 0.91058 0.0
C682 C 0.95199 0.45577 0.94021 0.0
C683 C 0.96109 0.4442 0.96873 0.0
C684 C 0.92602 0.408 0.92925 0.0
C685 C 0.9528 0.41414 0.9763 0.0
C686 C 0.88734 0.36618 0.92458 0.0
C687 C 0.8828 0.37678 0.86227 0.0
N688 N 0.93556 0.39723 0.95684 0.0
N689 N 0.90224 0.39364 0.87991 0.0
H690 H 0.69541 0.67951 0.40672 0.0
H691 H 0.57454 0.54925 0.43133 0.0
H692 H 0.65488 0.63572 0.32784 0.0
H693 H 0.57941 0.62854 0.48967 0.0
H694 H 0.60633 0.5761 0.39347 0.0
H695 H 0.65661 0.65612 0.43877 0.0
C696 C 0.67818 0.66538 0.39589 0.0
C697 C 0.67841 0.66013 0.36419 0.0
C698 C 0.59988 0.58772 0.41434 0.0
C699 C 0.63432 0.63215 0.40146 0.0
C700 C 0.58145 0.57258 0.43575 0.0
C701 C 0.57385 0.58687 0.46345 0.0
C702 C 0.61148 0.61687 0.42125 0.0
C703 C 0.58469 0.61664 0.46864 0.0
C704 C 0.6561 0.65183 0.41439 0.0
C705 C 0.65597 0.64033 0.3521 0.0
N706 N 0.60323 0.63046 0.44795 0.0
N707 N 0.63494 0.62687 0.37079 0.0
H708 H 0.1641 0.39051 0.20126 0.0
H709 H 0.09993 0.45411 0.04199 0.0
H710 H 0.18873 0.3522 0.11372 0.0
H711 H 0.05594 0.46927 0.12882 0.0
H712 H 0.14049 0.42546 0.06823 0.0
H713 H 0.13189 0.42784 0.17507 0.0
C714 C 0.16284 0.38992 0.17655 0.0
C715 C 0.1789 0.36776 0.15977 0.0
C716 C 0.12215 0.43539 0.08155 0.0
C717 C 0.1424 0.41094 0.12961 0.0
C718 C 0.0992 0.45193 0.06664 0.0
C719 C 0.07474 0.46414 0.08335 0.0
C720 C 0.12054 0.43113 0.11335 0.0
C721 C 0.07444 0.46015 0.11515 0.0
C722 C 0.14456 0.41139 0.16162 0.0
C723 C 0.17698 0.36885 0.12769 0.0
N724 N 0.09695 0.44393 0.12912 0.0
N725 N 0.1589 0.38993 0.11368 0.0
H726 H 0.61808 0.19881 0.85169 0.0
H727 H 0.59223 0.04501 0.94302 0.0
H728 H 0.69398 0.13748 0.86591 0.0
H729 H 0.54327 0.12809 0.96198 0.0
H730 H 0.62842 0.07427 0.9111 0.0
H731 H 0.58738 0.16839 0.8869 0.0
C732 C 0.62817 0.17868 0.86203 0.0
C733 C 0.6585 0.17047 0.85575 0.0
C734 C 0.61006 0.08607 0.92276 0.0
C735 C 0.62352 0.13561 0.89633 0.0
C736 C 0.58985 0.06946 0.94135 0.0
C737 C 0.56538 0.08423 0.95576 0.0
C738 C 0.605 0.11744 0.91807 0.0
C739 C 0.56189 0.11578 0.95129 0.0
C740 C 0.61075 0.1615 0.88235 0.0
C741 C 0.67062 0.14448 0.87022 0.0
N742 N 0.58128 0.13124 0.93268 0.0
N743 N 0.65298 0.12773 0.88976 0.0
H744 H 0.90667 0.85303 0.34622 0.0
H745 H 0.93093 0.96361 0.48514 0.0
H746 H 0.82814 0.89126 0.39255 0.0
H747 H 0.99183 0.96273 0.40761 0.0
H748 H 0.89327 0.93448 0.45519 0.0
H749 H 0.93919 0.88985 0.37197 0.0
C750 C 0.89599 0.86941 0.36133 0.0
C751 C 0.86428 0.86891 0.36682 0.0
C752 C 0.91469 0.94118 0.44466 0.0
C753 C 0.90212 0.91063 0.39755 0.0
C754 C 0.93601 0.95806 0.4616 0.0
C755 C 0.96425 0.96617 0.44863 0.0
C756 C 0.92221 0.93157 0.41498 0.0
C757 C 0.9703 0.95703 0.4185 0.0
C758 C 0.91478 0.89034 0.37628 0.0
C759 C 0.85241 0.89027 0.3878 0.0
N760 N 0.94963 0.93997 0.40284 0.0
N761 N 0.87138 0.91005 0.40264 0.0
H762 H 0.37841 0.65086 0.70306 0.0
H763 H 0.43532 0.57999 0.54418 0.0
H764 H 0.34307 0.67881 0.61517 0.0
H765 H 0.48486 0.57164 0.62902 0.0
H766 H 0.39495 0.6081 0.57113 0.0
H767 H 0.4115 0.61404 0.67734 0.0
C768 C 0.37751 0.64926 0.67838 0.0
C769 C 0.35811 0.66833 0.6613 0.0
C770 C 0.41449 0.59981 0.5839 0.0
C771 C 0.39572 0.62579 0.63172 0.0
C772 C 0.43735 0.58356 0.56859 0.0
C773 C 0.46324 0.57334 0.58451 0.0
C774 C 0.4177 0.60589 0.61529 0.0
C775 C 0.4652 0.57917 0.61596 0.0
C776 C 0.39632 0.62809 0.66372 0.0
C777 C 0.35744 0.66454 0.62938 0.0
N778 N 0.44278 0.59511 0.63031 0.0
N779 N 0.37612 0.64387 0.61563 0.0
H780 H 0.9887 0.00305 0.78698 0.0
H781 H 0.00406 0.95999 0.61113 0.0
H782 H 0.97251 0.91213 0.75262 0.0
H783 H 0.02088 0.04945 0.64882 0.0
H784 H 0.00249 0.93899 0.6633 0.0
H785 H 0.01034 0.0175 0.73767 0.0
C786 C 0.99006 0.98605 0.76904 0.0
C787 C 0.97845 0.95654 0.77361 0.0
C788 C 0.00719 0.96309 0.6601 0.0
C789 C 0.00273 0.97293 0.71684 0.0
C790 C 0.00827 0.97499 0.63038 0.0
C791 C 0.01238 0.00646 0.62589 0.0
C792 C 0.01003 0.98297 0.68523 0.0
C793 C 0.01741 0.02507 0.65144 0.0
C794 C 0.00245 0.99423 0.74088 0.0
C795 C 0.98114 0.93518 0.74984 0.0
N796 N 0.01574 0.01312 0.67998 0.0
N797 N 0.99252 0.94394 0.72222 0.0
H798 H 0.5392 0.05193 0.2882 0.0
H799 H 0.52051 0.0822 0.10996 0.0
H800 H 0.54284 0.14205 0.24838 0.0
H801 H 0.51276 0.9937 0.15269 0.0
H802 H 0.51965 0.10608 0.1607 0.0
H803 H 0.52092 0.03164 0.23957 0.0
C804 C 0.53581 0.06747 0.26921 0.0
C805 C 0.54289 0.09858 0.27211 0.0
C806 C 0.51752 0.08148 0.15894 0.0
C807 C 0.52234 0.07556 0.21615 0.0
C808 C 0.51776 0.0679 0.12999 0.0
C809 C 0.51673 0.03598 0.12726 0.0
C810 C 0.51667 0.06288 0.18518 0.0
C811 C 0.5138 0.0184 0.15389 0.0
C812 C 0.52531 0.05594 0.24144 0.0
C813 C 0.53768 0.11787 0.24699 0.0
N814 N 0.51422 0.03205 0.18171 0.0
N815 N 0.52819 0.10597 0.21985 0.0
H816 H 0.48806 0.53378 0.24966 0.0
H817 H 0.50926 0.57802 0.42464 0.0
H818 H 0.47448 0.6252 0.28371 0.0
H819 H 0.52417 0.48816 0.38723 0.0
H820 H 0.50637 0.5986 0.3724 0.0
H821 H 0.51077 0.5194 0.29852 0.0
C822 C 0.49018 0.55089 0.26744 0.0
C823 C 0.47901 0.58054 0.26291 0.0
C824 C 0.51094 0.5745 0.37565 0.0
C825 C 0.50461 0.56425 0.31916 0.0
C826 C 0.5128 0.56284 0.40542 0.0
C827 C 0.51669 0.53136 0.41006 0.0
C828 C 0.5128 0.5544 0.35061 0.0
C829 C 0.52084 0.51254 0.38452 0.0
C830 C 0.50321 0.54274 0.29533 0.0
C831 C 0.48273 0.60203 0.28644 0.0
N832 N 0.51842 0.52427 0.35594 0.0
N833 N 0.49475 0.59333 0.31381 0.0
H834 H 0.04423 0.4839 0.74978 0.0
H835 H 0.0217 0.45237 0.92687 0.0
H836 H 0.04746 0.39329 0.78851 0.0
H837 H 0.00655 0.53963 0.88364 0.0
H838 H 0.02358 0.42835 0.87619 0.0
H839 H 0.02381 0.5032 0.79791 0.0
C840 C 0.04039 0.46806 0.76845 0.0
C841 C 0.04786 0.43708 0.76538 0.0
C842 C 0.01915 0.45264 0.87782 0.0
C843 C 0.02472 0.45895 0.82074 0.0
C844 C 0.01783 0.46626 0.90673 0.0
C845 C 0.0141 0.49799 0.90929 0.0
C846 C 0.01712 0.47105 0.8515 0.0
C847 C 0.00968 0.5151 0.88256 0.0
C848 C 0.0286 0.479 0.7959 0.0
C849 C 0.04202 0.41738 0.79006 0.0
N850 N 0.01173 0.5015 0.85481 0.0
N851 N 0.03124 0.42873 0.81692 0.0
H852 H 0.75169 0.9757 0.91196 0.0
H853 H 0.64363 0.04357 0.04267 0.0
H854 H 0.7797 0.98906 0.00555 0.0
H855 H 0.60945 0.99746 0.96269 0.0
H856 H 0.69584 0.03876 0.02269 0.0
H857 H 0.70177 0.99826 0.9242 0.0
C858 C 0.74749 0.98391 0.93493 0.0
C859 C 0.76961 0.98024 0.95791 0.0
C860 C 0.67682 0.03056 0.00906 0.0
C861 C 0.71291 0.00608 0.97193 0.0
C862 C 0.6471 0.03356 0.0203 0.0
C863 C 0.6223 0.02168 0.0038 0.0
C864 C 0.6817 0.01521 0.98132 0.0
C865 C 0.62793 0.00793 0.97546 0.0
C866 C 0.71904 0.99664 0.9419 0.0
C867 C 0.76304 0.99109 0.98733 0.0
N868 N 0.65711 0.00486 0.96516 0.0
N869 N 0.7352 0.00339 0.99355 0.0
H870 H 0.78709 0.04914 0.39201 0.0
H871 H 0.88302 0.01261 0.54301 0.0
H872 H 0.7501 0.04728 0.48336 0.0
H873 H 0.92507 0.02929 0.45548 0.0
H874 H 0.83281 0.01273 0.51857 0.0
H875 H 0.8361 0.03036 0.41212 0.0
C876 C 0.78916 0.04426 0.4162 0.0
C877 C 0.76473 0.05013 0.43617 0.0
C878 C 0.85298 0.01587 0.50452 0.0
C879 C 0.82044 0.02878 0.45923 0.0
C880 C 0.88161 0.01566 0.51846 0.0
C881 C 0.90804 0.02105 0.50118 0.0
C882 C 0.85068 0.02212 0.47312 0.0
C883 C 0.90512 0.02494 0.4695 0.0
C884 C 0.8171 0.03368 0.42766 0.0
C885 C 0.76856 0.04355 0.46729 0.0
N886 N 0.87682 0.02585 0.45647 0.0
N887 N 0.79593 0.03345 0.47787 0.0
H888 H 0.28506 0.54701 0.02862 0.0
H889 H 0.11043 0.5237 0.07257 0.0
H890 H 0.25113 0.55782 0.12047 0.0
H891 H 0.148 0.50801 0.98287 0.0
H892 H 0.16262 0.52656 0.09323 0.0
H893 H 0.2365 0.52367 0.01392 0.0
C894 C 0.26739 0.54414 0.04575 0.0
C895 C 0.27184 0.55472 0.07564 0.0
C896 C 0.15943 0.52179 0.06915 0.0
C897 C 0.21594 0.52839 0.05899 0.0
C898 C 0.12966 0.51991 0.05744 0.0
C899 C 0.12505 0.51582 0.02598 0.0
C900 C 0.18454 0.51988 0.04911 0.0
C901 C 0.15066 0.51149 0.00724 0.0
C902 C 0.23968 0.53073 0.03742 0.0
C903 C 0.24845 0.55004 0.09713 0.0
N904 N 0.17927 0.51404 0.019 0.0
N905 N 0.22124 0.53769 0.08827 0.0
H906 H 0.29118 0.48927 0.64329 0.0
H907 H 0.3866 0.52401 0.49164 0.0
H908 H 0.2537 0.49022 0.55208 0.0
H909 H 0.42878 0.51121 0.5798 0.0
H910 H 0.33637 0.52358 0.51593 0.0
H911 H 0.34001 0.50823 0.62285 0.0
C912 C 0.29309 0.49398 0.61906 0.0
C913 C 0.26857 0.48778 0.59924 0.0
C914 C 0.35656 0.52136 0.53014 0.0
C915 C 0.32413 0.50932 0.57578 0.0
C916 C 0.38522 0.52174 0.51627 0.0
C917 C 0.41173 0.51752 0.53378 0.0
C918 C 0.3543 0.51611 0.56173 0.0
C919 C 0.4088 0.51467 0.56557 0.0
C920 C 0.32095 0.50466 0.60741 0.0
C921 C 0.27223 0.49416 0.56805 0.0
N922 N 0.38049 0.51354 0.57855 0.0
N923 N 0.29953 0.50434 0.55728 0.0
H924 H 0.90817 0.75132 0.97908 0.0
H925 H 0.04866 0.64474 0.02428 0.0
H926 H 0.00171 0.78146 0.98843 0.0
H927 H 0.95826 0.6097 0.00597 0.0
H928 H 0.02829 0.69658 0.02401 0.0
H929 H 0.92269 0.70146 0.00052 0.0
C930 C 0.93161 0.74761 0.98623 0.0
C931 C 0.95393 0.77025 0.98156 0.0
C932 C 0.01269 0.67763 0.02057 0.0
C933 C 0.97066 0.71357 0.00592 0.0
C934 C 0.02432 0.64805 0.02086 0.0
C935 C 0.0051 0.62312 0.01489 0.0
C936 C 0.9817 0.68241 0.01351 0.0
C937 C 0.97375 0.62847 0.01067 0.0
C938 C 0.9399 0.71918 0.99834 0.0
C939 C 0.98396 0.76437 0.99113 0.0
N940 N 0.96304 0.65767 0.00947 0.0
N941 N 0.99148 0.73655 0.00256 0.0
H942 H 0.5014 0.7541 0.04641 0.0
H943 H 0.45599 0.92872 0.02612 0.0
H944 H 0.40936 0.78709 0.05894 0.0
H945 H 0.54631 0.8921 0.01155 0.0
H946 H 0.43563 0.87629 0.02804 0.0
H947 H 0.51558 0.80314 0.02392 0.0
C948 C 0.48411 0.77169 0.04409 0.0
C949 C 0.45434 0.76683 0.05491 0.0
C950 C 0.45979 0.87977 0.02373 0.0
C951 C 0.47039 0.82329 0.02961 0.0
C952 C 0.47132 0.90965 0.02243 0.0
C953 C 0.50286 0.91454 0.01899 0.0
C954 C 0.48009 0.85489 0.02175 0.0
C955 C 0.52188 0.88919 0.01457 0.0
C956 C 0.49214 0.79968 0.03119 0.0
C957 C 0.43262 0.79011 0.05096 0.0
N958 N 0.51028 0.8605 0.01646 0.0
N959 N 0.44121 0.81761 0.03912 0.0
H960 H 0.14218 0.24705 0.54628 0.0
H961 H 0.98847 0.15384 0.51323 0.0
H962 H 0.05173 0.2863 0.54399 0.0
H963 H 0.07587 0.11062 0.52779 0.0
H964 H 0.01375 0.20362 0.51267 0.0
H965 H 0.12071 0.19837 0.52826 0.0
C966 C 0.11791 0.24555 0.54141 0.0
C967 C 0.09858 0.27052 0.54701 0.0
C968 C 0.02756 0.18328 0.51551 0.0
C969 C 0.07394 0.21513 0.52664 0.0
C970 C 0.01313 0.15488 0.51576 0.0
C971 C 0.03015 0.12823 0.52065 0.0
C972 C 0.05923 0.18511 0.52078 0.0
C973 C 0.06201 0.13072 0.52378 0.0
C974 C 0.10567 0.21778 0.53129 0.0
C975 C 0.06732 0.2674 0.54048 0.0
N976 N 0.07554 0.15877 0.52421 0.0
N977 N 0.05595 0.24017 0.53091 0.0
H978 H 0.55038 0.25183 0.49379 0.0
H979 H 0.58121 0.42984 0.51301 0.0
H980 H 0.64058 0.29157 0.48805 0.0
H981 H 0.49332 0.3866 0.5253 0.0
H982 H 0.60532 0.37918 0.51241 0.0
H983 H 0.53079 0.30025 0.51315 0.0
C984 C 0.56609 0.27078 0.49688 0.0
C985 C 0.59701 0.2679 0.48896 0.0
C986 C 0.58085 0.38081 0.5159 0.0
C987 C 0.57478 0.32362 0.51085 0.0
C988 C 0.56715 0.40972 0.51652 0.0
C989 C 0.53527 0.41227 0.5191 0.0
C990 C 0.56237 0.35448 0.51754 0.0
C991 C 0.51798 0.38554 0.52301 0.0
C992 C 0.55496 0.29842 0.50804 0.0
C993 C 0.61653 0.29295 0.49385 0.0
N994 N 0.53169 0.35779 0.52173 0.0
N995 N 0.605 0.31998 0.50403 0.0
loop_
_geom_bond_atom_site_label_1
_geom_bond_atom_site_label_2
_geom_bond_distance
_geom_bond_site_symmetry_2
_ccdc_geom_bond_type
C0 C1 1.391 . S
C0 C4 1.391 . S
C0 H42 0.948 . S
C1 C0 1.391 . S
C1 C2 1.391 . S
C2 C1 1.391 . S
C2 H58 0.947 . S
C2 C59 1.392 . S
C3 C4 1.391 . S
C3 C7 1.397 . S
C3 C59 1.419 . S
C4 C0 1.391 . S
C4 C3 1.391 . S
C4 C5 1.399 . S
C5 C4 1.399 . S
C5 C8 1.396 . S
C5 C17 1.453 . S
C5 C18 1.684 . S
H6 C30 0.948 . S
C7 C3 1.397 . S
C7 C8 1.394 . S
C7 C26 1.723 . S
C8 C5 1.396 . S
C8 C7 1.394 . S
C8 C38 1.723 . S
H9 C32 0.947 . S
H10 C33 0.948 . S
H11 C39 0.982 . S
H12 C40 0.979 . S
H13 C40 0.980 . S
H14 C40 0.983 . S
H15 C39 0.979 . S
H16 C39 0.977 . S
C17 C5 1.453 . S
C17 H46 0.982 . S
C17 H47 0.979 . S
C17 H48 0.977 . S
C18 C5 1.684 . S
C18 H43 0.979 . S
C18 H44 0.980 . S
C18 H45 0.983 . S
C19 C20 1.391 . S
C19 C24 1.391 . S
C19 H49 0.948 . S
C20 C19 1.391 . S
C20 C21 1.391 . S
C21 C20 1.391 . S
C21 C22 1.392 . S
C21 H50 0.947 . S
C22 C21 1.392 . S
C22 C23 1.419 . S
C22 H51 0.948 . S
C23 C22 1.419 . S
C23 C24 1.391 . S
C23 C27 1.397 . S
C24 C19 1.391 . S
C24 C23 1.391 . S
C24 C25 1.399 . S
C25 C24 1.399 . S
C25 C26 1.396 . S
C25 C28 1.453 . S
C25 C29 1.684 . S
C26 C7 1.723 . S
C26 C25 1.396 . S
C26 C27 1.394 . S
C27 C23 1.397 . S
C27 C26 1.394 . S
C27 C37 1.723 . S
C28 C25 1.453 . S
C28 H52 0.982 . S
C28 H53 0.979 . S
C28 H54 0.977 . S
C29 C25 1.684 . S
C29 H55 0.979 . S
C29 H56 0.980 . S
C29 H57 0.983 . S
C30 H6 0.948 . S
C30 C31 1.391 . S
C30 C35 1.391 . S
C31 C30 1.391 . S
C31 C32 1.391 . S
C32 H9 0.947 . S
C32 C31 1.391 . S
C32 C33 1.392 . S
C33 H10 0.948 . S
C33 C32 1.392 . S
C33 C34 1.419 . S
C34 C33 1.419 . S
C34 C35 1.391 . S
C34 C38 1.397 . S
C35 C30 1.391 . S
C35 C34 1.391 . S
C35 C36 1.399 . S
C36 C35 1.399 . S
C36 C37 1.396 . S
C36 C39 1.453 . S
C36 C40 1.684 . S
C37 C27 1.723 . S
C37 C36 1.396 . S
C37 C38 1.394 . S
C38 C8 1.723 . S
C38 C34 1.397 . S
C38 C37 1.394 . S
C39 H11 0.982 . S
C39 H15 0.979 . S
C39 H16 0.977 . S
C39 C36 1.453 . S
C40 H12 0.979 . S
C40 H13 0.980 . S
C40 H14 0.983 . S
C40 C36 1.684 . S
H41 C59 0.948 . S
H42 C0 0.948 . S
H43 C18 0.979 . S
H44 C18 0.980 . S
H45 C18 0.983 . S
H46 C17 0.982 . S
H47 C17 0.979 . S
H48 C17 0.977 . S
H49 C19 0.948 . S
H50 C21 0.947 . S
H51 C22 0.948 . S
H52 C28 0.982 . S
H53 C28 0.979 . S
H54 C28 0.977 . S
H55 C29 0.979 . S
H56 C29 0.980 . S
H57 C29 0.983 . S
H58 C2 0.947 . S
C59 C2 1.392 . S
C59 C3 1.419 . S
C59 H41 0.948 . S
C60 C61 1.391 . S
C60 C64 1.391 . S
C60 H102 0.948 . S
C61 C60 1.391 . S
C61 C62 1.391 . S
C62 C61 1.391 . S
C62 H118 0.947 . S
C62 C119 1.392 . S
C63 C64 1.391 . S
C63 C67 1.397 . S
C63 C119 1.419 . S
C64 C60 1.391 . S
C64 C63 1.391 . S
C64 C65 1.399 . S
C65 C64 1.399 . S
C65 C68 1.396 . S
C65 C77 1.453 . S
C65 C78 1.684 . S
H66 C90 0.948 . S
C67 C63 1.397 . S
C67 C68 1.394 . S
C67 C86 1.723 . S
C68 C65 1.396 . S
C68 C67 1.394 . S
C68 C98 1.723 . S
H69 C92 0.947 . S
H70 C93 0.948 . S
H71 C99 0.982 . S
H72 C100 0.979 . S
H73 C100 0.980 . S
H74 C100 0.983 . S
H75 C99 0.979 . S
H76 C99 0.977 . S
C77 C65 1.453 . S
C77 H106 0.982 . S
C77 H107 0.979 . S
C77 H108 0.977 . S
C78 C65 1.684 . S
C78 H103 0.979 . S
C78 H104 0.980 . S
C78 H105 0.983 . S
C79 C80 1.391 . S
C79 C84 1.391 . S
C79 H109 0.948 . S
C80 C79 1.391 . S
C80 C81 1.391 . S
C81 C80 1.391 . S
C81 C82 1.392 . S
C81 H110 0.947 . S
C82 C81 1.392 . S
C82 C83 1.419 . S
C82 H111 0.948 . S
C83 C82 1.419 . S
C83 C84 1.391 . S
C83 C87 1.397 . S
C84 C79 1.391 . S
C84 C83 1.391 . S
C84 C85 1.399 . S
C85 C84 1.399 . S
C85 C86 1.396 . S
C85 C88 1.453 . S
C85 C89 1.684 . S
C86 C67 1.723 . S
C86 C85 1.396 . S
C86 C87 1.394 . S
C87 C83 1.397 . S
C87 C86 1.394 . S
C87 C97 1.723 . S
C88 C85 1.453 . S
C88 H112 0.982 . S
C88 H113 0.979 . S
C88 H114 0.977 . S
C89 C85 1.684 . S
C89 H115 0.979 . S
C89 H116 0.980 . S
C89 H117 0.983 . S
C90 H66 0.948 . S
C90 C91 1.391 . S
C90 C95 1.391 . S
C91 C90 1.391 . S
C91 C92 1.391 . S
C92 H69 0.947 . S
C92 C91 1.391 . S
C92 C93 1.392 . S
C93 H70 0.948 . S
C93 C92 1.392 . S
C93 C94 1.419 . S
C94 C93 1.419 . S
C94 C95 1.391 . S
C94 C98 1.397 . S
C95 C90 1.391 . S
C95 C94 1.391 . S
C95 C96 1.399 . S
C96 C95 1.399 . S
C96 C97 1.396 . S
C96 C99 1.453 . S
C96 C100 1.684 . S
C97 C87 1.723 . S
C97 C96 1.396 . S
C97 C98 1.394 . S
C98 C68 1.723 . S
C98 C94 1.397 . S
C98 C97 1.394 . S
C99 H71 0.982 . S
C99 H75 0.979 . S
C99 H76 0.977 . S
C99 C96 1.453 . S
C100 H72 0.979 . S
C100 H73 0.980 . S
C100 H74 0.983 . S
C100 C96 1.684 . S
H101 C119 0.948 . S
H102 C60 0.948 . S
H103 C78 0.979 . S
H104 C78 0.980 . S
H105 C78 0.983 . S
H106 C77 0.982 . S
H107 C77 0.979 . S
H108 C77 0.977 . S
H109 C79 0.948 . S
H110 C81 0.947 . S
H111 C82 0.948 . S
H112 C88 0.982 . S
H113 C88 0.979 . S
H114 C88 0.977 . S
H115 C89 0.979 . S
H116 C89 0.980 . S
H117 C89 0.983 . S
H118 C62 0.947 . S
C119 C62 1.392 . S
C119 C63 1.419 . S
C119 H101 0.948 . S
C120 C121 1.391 . S
C120 C124 1.391 . S
C120 H162 0.948 . S
C121 C120 1.391 . S
C121 C122 1.391 . S
C122 C121 1.391 . S
C122 H178 0.947 . S
C122 C179 1.392 . S
C123 C124 1.391 . S
C123 C127 1.397 . S
C123 C179 1.419 . S
C124 C120 1.391 . S
C124 C123 1.391 . S
C124 C125 1.399 . S
C125 C124 1.399 . S
C125 C128 1.396 . S
C125 C137 1.453 . S
C125 C138 1.684 . S
H126 C150 0.948 . S
C127 C123 1.397 . S
C127 C128 1.394 . S
C127 C146 1.723 . S
C128 C125 1.396 . S
C128 C127 1.394 . S
C128 C158 1.723 . S
H129 C152 0.947 . S
H130 C153 0.948 . S
H131 C159 0.982 . S
H132 C160 0.979 . S
H133 C160 0.980 . S
H134 C160 0.983 . S
H135 C159 0.979 . S
H136 C159 0.977 . S
C137 C125 1.453 . S
C137 H166 0.982 . S
C137 H167 0.979 . S
C137 H168 0.977 . S
C138 C125 1.684 . S
C138 H163 0.979 . S
C138 H164 0.980 . S
C138 H165 0.983 . S
C139 C140 1.391 . S
C139 C144 1.391 . S
C139 H169 0.948 . S
C140 C139 1.391 . S
C140 C141 1.391 . S
C141 C140 1.391 . S
C141 C142 1.392 . S
C141 H170 0.947 . S
C142 C141 1.392 . S
C142 C143 1.419 . S
C142 H171 0.948 . S
C143 C142 1.419 . S
C143 C144 1.391 . S
C143 C147 1.397 . S
C144 C139 1.391 . S
C144 C143 1.391 . S
C144 C145 1.399 . S
C145 C144 1.399 . S
C145 C146 1.396 . S
C145 C148 1.453 . S
C145 C149 1.684 . S
C146 C127 1.723 . S
C146 C145 1.396 . S
C146 C147 1.394 . S
C147 C143 1.397 . S
C147 C146 1.394 . S
C147 C157 1.723 . S
C148 C145 1.453 . S
C148 H172 0.982 . S
C148 H173 0.979 . S
C148 H174 0.977 . S
C149 C145 1.684 . S
C149 H175 0.979 . S
C149 H176 0.980 . S
C149 H177 0.983 . S
C150 H126 0.948 . S
C150 C151 1.391 . S
C150 C155 1.391 . S
C151 C150 1.391 . S
C151 C152 1.391 . S
C152 H129 0.947 . S
C152 C151 1.391 . S
C152 C153 1.392 . S
C153 H130 0.948 . S
C153 C152 1.392 . S
C153 C154 1.419 . S
C154 C153 1.419 . S
C154 C155 1.391 . S
C154 C158 1.397 . S
C155 C150 1.391 . S
C155 C154 1.391 . S
C155 C156 1.399 . S
C156 C155 1.399 . S
C156 C157 1.396 . S
C156 C159 1.453 . S
C156 C160 1.684 . S
C157 C147 1.723 . S
C157 C156 1.396 . S
C157 C158 1.394 . S
C158 C128 1.723 . S
C158 C154 1.397 . S
C158 C157 1.394 . S
C159 H131 0.982 . S
C159 H135 0.979 . S
C159 H136 0.977 . S
C159 C156 1.453 . S
C160 H132 0.979 . S
C160 H133 0.980 . S
C160 H134 0.983 . S
C160 C156 1.684 . S
H161 C179 0.948 . S
H162 C120 0.948 . S
H163 C138 0.979 . S
H164 C138 0.980 . S
H165 C138 0.983 . S
H166 C137 0.982 . S
H167 C137 0.979 . S
H168 C137 0.977 . S
H169 C139 0.948 . S
H170 C141 0.947 . S
H171 C142 0.948 . S
H172 C148 0.982 . S
H173 C148 0.979 . S
H174 C148 0.977 . S
H175 C149 0.979 . S
H176 C149 0.980 . S
H177 C149 0.983 . S
H178 C122 0.947 . S
C179 C122 1.392 . S
C179 C123 1.419 . S
C179 H161 0.948 . S
C180 C181 1.391 . S
C180 C184 1.391 . S
C180 H222 0.948 . S
C181 C180 1.391 . S
C181 C182 1.391 . S
C182 C181 1.391 . S
C182 H238 0.947 . S
C182 C239 1.392 . S
C183 C184 1.391 . S
C183 C187 1.397 . S
C183 C239 1.419 . S
C184 C180 1.391 . S
C184 C183 1.391 . S
C184 C185 1.399 . S
C185 C184 1.399 . S
C185 C188 1.396 . S
C185 C197 1.453 . S
C185 C198 1.684 . S
H186 C210 0.948 . S
C187 C183 1.397 . S
C187 C188 1.394 . S
C187 C206 1.723 . S
C188 C185 1.396 . S
C188 C187 1.394 . S
C188 C218 1.723 . S
H189 C212 0.947 . S
H190 C213 0.948 . S
H191 C219 0.982 . S
H192 C220 0.979 . S
H193 C220 0.980 . S
H194 C220 0.983 . S
H195 C219 0.979 . S
H196 C219 0.977 . S
C197 C185 1.453 . S
C197 H226 0.982 . S
C197 H227 0.979 . S
C197 H228 0.977 . S
C198 C185 1.684 . S
C198 H223 0.979 . S
C198 H224 0.980 . S
C198 H225 0.983 . S
C199 C200 1.391 . S
C199 C204 1.391 . S
C199 H229 0.948 . S
C200 C199 1.391 . S
C200 C201 1.391 . S
C201 C200 1.391 . S
C201 C202 1.392 . S
C201 H230 0.947 . S
C202 C201 1.392 . S
C202 C203 1.419 . S
C202 H231 0.948 . S
C203 C202 1.419 . S
C203 C204 1.391 . S
C203 C207 1.397 . S
C204 C199 1.391 . S
C204 C203 1.391 . S
C204 C205 1.399 . S
C205 C204 1.399 . S
C205 C206 1.396 . S
C205 C208 1.453 . S
C205 C209 1.684 . S
C206 C187 1.723 . S
C206 C205 1.396 . S
C206 C207 1.394 . S
C207 C203 1.397 . S
C207 C206 1.394 . S
C207 C217 1.723 . S
C208 C205 1.453 . S
C208 H232 0.982 . S
C208 H233 0.979 . S
C208 H234 0.977 . S
C209 C205 1.684 . S
C209 H235 0.979 . S
C209 H236 0.980 . S
C209 H237 0.983 . S
C210 H186 0.948 . S
C210 C211 1.391 . S
C210 C215 1.391 . S
C211 C210 1.391 . S
C211 C212 1.391 . S
C212 H189 0.947 . S
C212 C211 1.391 . S
C212 C213 1.392 . S
C213 H190 0.948 . S
C213 C212 1.392 . S
C213 C214 1.419 . S
C214 C213 1.419 . S
C214 C215 1.391 . S
C214 C218 1.397 . S
C215 C210 1.391 . S
C215 C214 1.391 . S
C215 C216 1.399 . S
C216 C215 1.399 . S
C216 C217 1.396 . S
C216 C219 1.453 . S
C216 C220 1.684 . S
C217 C207 1.723 . S
C217 C216 1.396 . S
C217 C218 1.394 . S
C218 C188 1.723 . S
C218 C214 1.397 . S
C218 C217 1.394 . S
C219 H191 0.982 . S
C219 H195 0.979 . S
C219 H196 0.977 . S
C219 C216 1.453 . S
C220 H192 0.979 . S
C220 H193 0.980 . S
C220 H194 0.983 . S
C220 C216 1.684 . S
H221 C239 0.948 . S
H222 C180 0.948 . S
H223 C198 0.979 . S
H224 C198 0.980 . S
H225 C198 0.983 . S
H226 C197 0.982 . S
H227 C197 0.979 . S
H228 C197 0.977 . S
H229 C199 0.948 . S
H230 C201 0.947 . S
H231 C202 0.948 . S
H232 C208 0.982 . S
H233 C208 0.979 . S
H234 C208 0.977 . S
H235 C209 0.979 . S
H236 C209 0.980 . S
H237 C209 0.983 . S
H238 C182 0.947 . S
C239 C182 1.392 . S
C239 C183 1.419 . S
C239 H221 0.948 . S
C240 C241 1.391 . S
C240 C244 1.391 . S
C240 H282 0.948 1_556 S
C241 C240 1.391 . S
C241 C242 1.391 1_655 S
C242 C241 1.391 1_455 S
C242 H298 0.947 . S
C242 C299 1.392 1_455 S
C243 C244 1.391 . S
C243 C247 1.397 . S
C243 C299 1.419 . S
C244 C240 1.391 . S
C244 C243 1.391 . S
C244 C245 1.399 . S
C245 C244 1.399 . S
C245 C248 1.396 . S
C245 C257 1.453 . S
C245 C258 1.684 1_556 S
H246 C270 0.948 1_545 S
C247 C243 1.397 . S
C247 C248 1.394 . S
C247 C266 1.723 . S
C248 C245 1.396 . S
C248 C247 1.394 . S
C248 C278 1.723 . S
H249 C272 0.947 . S
H250 C273 0.948 1_554 S
H251 C279 0.982 . S
H252 C280 0.979 . S
H253 C280 0.980 . S
H254 C280 0.983 . S
H255 C279 0.979 1_545 S
H256 C279 0.977 . S
C257 C245 1.453 . S
C257 H286 0.982 . S
C257 H287 0.979 1_556 S
C257 H288 0.977 . S
C258 C245 1.684 1_554 S
C258 H283 0.979 . S
C258 H284 0.980 . S
C258 H285 0.983 . S
C259 C260 1.391 . S
C259 C264 1.391 . S
C259 H289 0.948 1_655 S
C260 C259 1.391 . S
C260 C261 1.391 1_565 S
C261 C260 1.391 1_545 S
C261 C262 1.392 1_545 S
C261 H290 0.947 . S
C262 C261 1.392 1_565 S
C262 C263 1.419 . S
C262 H291 0.948 1_565 S
C263 C262 1.419 . S
C263 C264 1.391 . S
C263 C267 1.397 . S
C264 C259 1.391 . S
C264 C263 1.391 . S
C264 C265 1.399 . S
C265 C264 1.399 . S
C265 C266 1.396 . S
C265 C268 1.453 . S
C265 C269 1.684 1_655 S
C266 C247 1.723 . S
C266 C265 1.396 . S
C266 C267 1.394 . S
C267 C263 1.397 . S
C267 C266 1.394 . S
C267 C277 1.723 . S
C268 C265 1.453 . S
C268 H292 0.982 . S
C268 H293 0.990 . S
C268 H294 0.977 . S
C269 C265 1.684 1_455 S
C269 H295 0.979 . S
C269 H296 0.980 . S
C269 H297 0.983 . S
C270 H246 0.948 1_565 S
C270 C271 1.391 . S
C270 C275 1.391 . S
C271 C270 1.391 . S
C271 C272 1.391 1_556 S
C272 H249 0.947 . S
C272 C271 1.391 1_554 S
C272 C273 1.392 1_554 S
C273 H250 0.948 1_556 S
C273 C272 1.392 1_556 S
C273 C274 1.419 . S
C274 C273 1.419 . S
C274 C275 1.391 . S
C274 C278 1.397 . S
C275 C270 1.391 . S
C275 C274 1.391 . S
C275 C276 1.399 . S
C276 C275 1.399 . S
C276 C277 1.396 . S
C276 C279 1.453 . S
C276 C280 1.684 1_565 S
C277 C267 1.723 . S
C277 C276 1.396 . S
C277 C278 1.394 . S
C278 C248 1.723 . S
C278 C274 1.397 . S
C278 C277 1.394 . S
C279 H251 0.982 . S
C279 H255 0.979 1_565 S
C279 H256 0.977 . S
C279 C276 1.453 . S
C280 H252 0.979 . S
C280 H253 0.980 . S
C280 H254 0.983 . S
C280 C276 1.684 1_545 S
H281 C299 0.948 1_455 S
H282 C240 0.948 1_554 S
H283 C258 0.979 . S
H284 C258 0.980 . S
H285 C258 0.983 . S
H286 C257 0.982 . S
H287 C257 0.979 1_554 S
H288 C257 0.977 . S
H289 C259 0.948 1_455 S
H290 C261 0.947 . S
H291 C262 0.948 1_545 S
H292 C268 0.982 . S
H293 C268 0.990 . S
H294 C268 0.977 . S
H295 C269 0.979 . S
H296 C269 0.980 . S
H297 C269 0.983 . S
H298 C242 0.947 . S
C299 C242 1.392 1_655 S
C299 C243 1.419 . S
C299 H281 0.948 1_655 S
C300 C301 1.391 . S
C300 C304 1.391 . S
C300 H342 0.948 . S
C301 C300 1.391 . S
C301 C302 1.391 . S
C302 C301 1.391 . S
C302 H358 0.947 . S
C302 C359 1.392 . S
C303 C304 1.391 . S
C303 C307 1.397 . S
C303 C359 1.419 . S
C304 C300 1.391 . S
C304 C303 1.391 . S
C304 C305 1.399 . S
C305 C304 1.399 . S
C305 C308 1.396 . S
C305 C317 1.453 . S
C305 C318 1.684 . S
H306 C330 0.948 . S
C307 C303 1.397 . S
C307 C308 1.394 . S
C307 C326 1.723 . S
C308 C305 1.396 . S
C308 C307 1.394 . S
C308 C338 1.723 . S
H309 C332 0.947 . S
H310 C333 0.948 . S
H311 C339 0.982 . S
H312 C340 0.979 . S
H313 C340 0.980 . S
H314 C340 0.983 . S
H315 C339 0.979 . S
H316 C339 0.977 . S
C317 C305 1.453 . S
C317 H346 0.982 . S
C317 H347 0.979 . S
C317 H348 0.977 . S
C318 C305 1.684 . S
C318 H343 0.979 . S
C318 H344 0.980 . S
C318 H345 0.983 . S
C319 C320 1.391 . S
C319 C324 1.391 . S
C319 H349 0.948 . S
C320 C319 1.391 . S
C320 C321 1.391 . S
C321 C320 1.391 . S
C321 C322 1.392 . S
C321 H350 0.947 . S
C322 C321 1.392 . S
C322 C323 1.419 . S
C322 H351 0.948 . S
C323 C322 1.419 . S
C323 C324 1.391 . S
C323 C327 1.397 . S
C324 C319 1.391 . S
C324 C323 1.391 . S
C324 C325 1.399 . S
C325 C324 1.399 . S
C325 C326 1.396 . S
C325 C328 1.453 . S
C325 C329 1.684 . S
C326 C307 1.723 . S
C326 C325 1.396 . S
C326 C327 1.394 . S
C327 C323 1.397 . S
C327 C326 1.394 . S
C327 C337 1.723 . S
C328 C325 1.453 . S
C328 H352 0.982 . S
C328 H353 0.979 . S
C328 H354 0.977 . S
C329 C325 1.684 . S
C329 H355 0.979 . S
C329 H356 0.980 . S
C329 H357 0.983 . S
C330 H306 0.948 . S
C330 C331 1.391 . S
C330 C335 1.391 . S
C331 C330 1.391 . S
C331 C332 1.391 . S
C332 H309 0.947 . S
C332 C331 1.391 . S
C332 C333 1.392 . S
C333 H310 0.948 . S
C333 C332 1.392 . S
C333 C334 1.419 . S
C334 C333 1.419 . S
C334 C335 1.391 . S
C334 C338 1.397 . S
C335 C330 1.391 . S
C335 C334 1.391 . S
C335 C336 1.399 . S
C336 C335 1.399 . S
C336 C337 1.396 . S
C336 C339 1.453 . S
C336 C340 1.684 . S
C337 C327 1.723 . S
C337 C336 1.396 . S
C337 C338 1.394 . S
C338 C308 1.723 . S
C338 C334 1.397 . S
C338 C337 1.394 . S
C339 H311 0.982 . S
C339 H315 0.979 . S
C339 H316 0.977 . S
C339 C336 1.453 . S
C340 H312 0.979 . S
C340 H313 0.980 . S
C340 H314 0.983 . S
C340 C336 1.684 . S
H341 C359 0.948 . S
H342 C300 0.948 . S
H343 C318 0.979 . S
H344 C318 0.980 . S
H345 C318 0.983 . S
H346 C317 0.982 . S
H347 C317 0.979 . S
H348 C317 0.977 . S
H349 C319 0.948 . S
H350 C321 0.947 . S
H351 C322 0.948 . S
H352 C328 0.982 . S
H353 C328 0.979 . S
H354 C328 0.977 . S
H355 C329 0.979 . S
H356 C329 0.980 . S
H357 C329 0.983 . S
H358 C302 0.947 . S
C359 C302 1.392 . S
C359 C303 1.419 . S
C359 H341 0.948 . S
C360 C361 1.391 . S
C360 C364 1.391 . S
C360 H402 0.948 . S
C361 C360 1.391 . S
C361 C362 1.391 . S
C362 C361 1.391 . S
C362 H418 0.947 . S
C362 C419 1.392 . S
C363 C364 1.391 . S
C363 C367 1.397 . S
C363 C419 1.419 . S
C364 C360 1.391 . S
C364 C363 1.391 . S
C364 C365 1.399 . S
C365 C364 1.399 . S
C365 C368 1.396 . S
C365 C377 1.453 . S
C365 C378 1.684 . S
H366 C390 0.948 . S
C367 C363 1.397 . S
C367 C368 1.394 . S
C367 C386 1.723 . S
C368 C365 1.396 . S
C368 C367 1.394 . S
C368 C398 1.723 . S
H369 C392 0.947 . S
H370 C393 0.948 . S
H371 C399 0.982 . S
H372 C400 0.979 . S
H373 C400 0.980 . S
H374 C400 0.983 . S
H375 C399 0.979 . S
H376 C399 0.977 . S
C377 C365 1.453 . S
C377 H406 0.982 . S
C377 H407 0.979 . S
C377 H408 0.977 . S
C378 C365 1.684 . S
C378 H403 0.979 . S
C378 H404 0.980 . S
C378 H405 0.983 . S
C379 C380 1.391 . S
C379 C384 1.391 . S
C379 H409 0.948 . S
C380 C379 1.391 . S
C380 C381 1.391 . S
C381 C380 1.391 . S
C381 C382 1.392 . S
C381 H410 0.947 . S
C382 C381 1.392 . S
C382 C383 1.419 . S
C382 H411 0.948 . S
C383 C382 1.419 . S
C383 C384 1.391 . S
C383 C387 1.397 . S
C384 C379 1.391 . S
C384 C383 1.391 . S
C384 C385 1.399 . S
C385 C384 1.399 . S
C385 C386 1.396 . S
C385 C388 1.453 . S
C385 C389 1.684 . S
C386 C367 1.723 . S
C386 C385 1.396 . S
C386 C387 1.394 . S
C387 C383 1.397 . S
C387 C386 1.394 . S
C387 C397 1.723 . S
C388 C385 1.453 . S
C388 H412 0.982 . S
C388 H413 0.979 . S
C388 H414 0.977 . S
C389 C385 1.684 . S
C389 H415 0.979 . S
C389 H416 0.980 . S
C389 H417 0.983 . S
C390 H366 0.948 . S
C390 C391 1.391 . S
C390 C395 1.391 . S
C391 C390 1.391 . S
C391 C392 1.391 . S
C392 H369 0.947 . S
C392 C391 1.391 . S
C392 C393 1.392 . S
C393 H370 0.948 . S
C393 C392 1.392 . S
C393 C394 1.419 . S
C394 C393 1.419 . S
C394 C395 1.391 . S
C394 C398 1.397 . S
C395 C390 1.391 . S
C395 C394 1.391 . S
C395 C396 1.399 . S
C396 C395 1.399 . S
C396 C397 1.396 . S
C396 C399 1.453 . S
C396 C400 1.684 . S
C397 C387 1.723 . S
C397 C396 1.396 . S
C397 C398 1.394 . S
C398 C368 1.723 . S
C398 C394 1.397 . S
C398 C397 1.394 . S
C399 H371 0.982 . S
C399 H375 0.979 . S
C399 H376 0.977 . S
C399 C396 1.453 . S
C400 H372 0.979 . S
C400 H373 0.980 . S
C400 H374 0.983 . S
C400 C396 1.684 . S
H401 C419 0.948 . S
H402 C360 0.948 . S
H403 C378 0.979 . S
H404 C378 0.980 . S
H405 C378 0.983 . S
H406 C377 0.982 . S
H407 C377 0.979 . S
H408 C377 0.977 . S
H409 C379 0.948 . S
H410 C381 0.947 . S
H411 C382 0.948 . S
H412 C388 0.982 . S
H413 C388 0.979 . S
H414 C388 0.977 . S
H415 C389 0.979 . S
H416 C389 0.980 . S
H417 C389 0.983 . S
H418 C362 0.947 . S
C419 C362 1.392 . S
C419 C363 1.419 . S
C419 H401 0.948 . S
C420 C421 1.391 . S
C420 C424 1.391 . S
C420 H462 0.948 . S
C421 C420 1.391 . S
C421 C422 1.391 . S
C422 C421 1.391 . S
C422 H478 0.947 . S
C422 C479 1.392 . S
C423 C424 1.391 . S
C423 C427 1.397 . S
C423 C479 1.419 . S
C424 C420 1.391 . S
C424 C423 1.391 . S
C424 C425 1.399 . S
C425 C424 1.399 . S
C425 C428 1.396 . S
C425 C437 1.453 . S
C425 C438 1.684 . S
H426 C450 0.948 . S
C427 C423 1.397 . S
C427 C428 1.394 . S
C427 C446 1.723 . S
C428 C425 1.396 . S
C428 C427 1.394 . S
C428 C458 1.723 . S
H429 C452 0.947 . S
H430 C453 0.948 . S
H431 C459 0.982 . S
H432 C460 0.979 . S
H433 C460 0.980 . S
H434 C460 0.983 . S
H435 C459 0.979 . S
H436 C459 0.977 . S
C437 C425 1.453 . S
C437 H466 0.982 . S
C437 H467 0.979 . S
C437 H468 0.977 . S
C438 C425 1.684 . S
C438 H463 0.979 . S
C438 H464 0.980 . S
C438 H465 0.983 . S
C439 C440 1.391 . S
C439 C444 1.391 . S
C439 H469 0.948 . S
C440 C439 1.391 . S
C440 C441 1.391 . S
C441 C440 1.391 . S
C441 C442 1.392 . S
C441 H470 0.947 . S
C442 C441 1.392 . S
C442 C443 1.419 . S
C442 H471 0.948 . S
C443 C442 1.419 . S
C443 C444 1.391 . S
C443 C447 1.397 . S
C444 C439 1.391 . S
C444 C443 1.391 . S
C444 C445 1.399 . S
C445 C444 1.399 . S
C445 C446 1.396 . S
C445 C448 1.453 . S
C445 C449 1.684 . S
C446 C427 1.723 . S
C446 C445 1.396 . S
C446 C447 1.394 . S
C447 C443 1.397 . S
C447 C446 1.394 . S
C447 C457 1.723 . S
C448 C445 1.453 . S
C448 H472 0.982 . S
C448 H473 0.979 . S
C448 H474 0.977 . S
C449 C445 1.684 . S
C449 H475 0.979 . S
C449 H476 0.980 . S
C449 H477 0.983 . S
C450 H426 0.948 . S
C450 C451 1.391 . S
C450 C455 1.391 . S
C451 C450 1.391 . S
C451 C452 1.391 . S
C452 H429 0.947 . S
C452 C451 1.391 . S
C452 C453 1.392 . S
C453 H430 0.948 . S
C453 C452 1.392 . S
C453 C454 1.419 . S
C454 C453 1.419 . S
C454 C455 1.391 . S
C454 C458 1.397 . S
C455 C450 1.391 . S
C455 C454 1.391 . S
C455 C456 1.399 . S
C456 C455 1.399 . S
C456 C457 1.396 . S
C456 C459 1.453 . S
C456 C460 1.684 . S
C457 C447 1.723 . S
C457 C456 1.396 . S
C457 C458 1.394 . S
C458 C428 1.723 . S
C458 C454 1.397 . S
C458 C457 1.394 . S
C459 H431 0.982 . S
C459 H435 0.979 . S
C459 H436 0.977 . S
C459 C456 1.453 . S
C460 H432 0.979 . S
C460 H433 0.980 . S
C460 H434 0.983 . S
C460 C456 1.684 . S
H461 C479 0.948 . S
H462 C420 0.948 . S
H463 C438 0.979 . S
H464 C438 0.980 . S
H465 C438 0.983 . S
H466 C437 0.982 . S
H467 C437 0.979 . S
H468 C437 0.977 . S
H469 C439 0.948 . S
H470 C441 0.947 . S
H471 C442 0.948 . S
H472 C448 0.982 . S
H473 C448 0.979 . S
H474 C448 0.977 . S
H475 C449 0.979 . S
H476 C449 0.980 . S
H477 C449 0.983 . S
H478 C422 0.947 . S
C479 C422 1.392 . S
C479 C423 1.419 . S
C479 H461 0.948 . S
Zn480 O486 1.920 . S
Zn480 O492 1.898 . S
Zn480 O495 1.905 . S
Zn481 O489 1.905 1_565 S
Zn481 O490 1.898 . S
Zn481 O498 1.920 . S
Zn482 O485 2.080 1_455 S
Zn482 O488 2.114 . S
Zn482 O491 2.120 1_445 S
Zn482 O493 2.120 . S
Zn482 O494 2.114 1_455 S
Zn482 O497 2.080 . S
C483 O488 1.166 . S
C483 O489 1.182 . S
C484 O490 1.167 1_655 S
C484 O491 1.299 . S
O485 Zn482 2.080 1_655 S
O485 C499 1.305 . S
O486 Zn480 1.920 . S
O486 C499 1.234 . S
C487 O492 1.167 1_455 S
C487 O493 1.299 . S
O488 Zn482 2.114 . S
O488 C483 1.166 . S
O489 Zn481 1.905 1_545 S
O489 C483 1.182 . S
O490 Zn481 1.898 . S
O490 C484 1.167 1_455 S
O491 Zn482 2.120 1_665 S
O491 C484 1.299 . S
O492 Zn480 1.898 . S
O492 C487 1.167 1_655 S
O493 Zn482 2.120 . S
O493 C487 1.299 . S
O494 Zn482 2.114 1_655 S
O494 C496 1.166 . S
O495 Zn480 1.905 . S
O495 C496 1.182 . S
C496 O494 1.166 . S
C496 O495 1.182 . S
O497 Zn482 2.080 . S
O497 C500 1.305 1_545 S
O498 Zn481 1.920 . S
O498 C500 1.234 . S
C499 O485 1.305 . S
C499 O486 1.234 . S
C500 O497 1.305 1_565 S
C500 O498 1.234 . S
Zn501 O507 1.920 1_556 S
Zn501 O513 1.898 . S
Zn501 O516 1.905 . S
Zn502 O510 1.905 . S
Zn502 O511 1.898 . S
Zn502 O519 1.920 . S
Zn503 O506 2.080 . S
Zn503 O509 2.114 1_545 S
Zn503 O512 2.120 1_545 S
Zn503 O514 2.120 . S
Zn503 O515 2.114 1_544 S
Zn503 O518 2.080 . S
C504 O509 1.166 . S
C504 O510 1.182 . S
C505 O511 1.167 . S
C505 O512 1.299 . S
O506 Zn503 2.080 . S
O506 C520 1.305 . S
O507 Zn501 1.920 1_554 S
O507 C520 1.234 . S
C508 O513 1.167 . S
C508 O514 1.299 1_556 S
O509 Zn503 2.114 1_565 S
O509 C504 1.166 . S
O510 Zn502 1.905 . S
O510 C504 1.182 . S
O511 Zn502 1.898 . S
O511 C505 1.167 . S
O512 Zn503 2.120 1_565 S
O512 C505 1.299 . S
O513 Zn501 1.898 . S
O513 C508 1.167 . S
O514 Zn503 2.120 . S
O514 C508 1.299 1_554 S
O515 Zn503 2.114 1_566 S
O515 C517 1.166 . S
O516 Zn501 1.905 . S
O516 C517 1.182 1_545 S
C517 O515 1.166 . S
C517 O516 1.182 1_565 S
O518 Zn503 2.080 . S
O518 C521 1.305 . S
O519 Zn502 1.920 . S
O519 C521 1.234 1_565 S
C520 O506 1.305 . S
C520 O507 1.234 . S
C521 O518 1.305 . S
C521 O519 1.234 1_545 S
Zn522 O528 1.920 . S
Zn522 O534 1.898 . S
Zn522 O537 1.905 . S
Zn523 O531 1.905 . S
Zn523 O532 1.898 . S
Zn523 O540 1.920 . S
Zn524 O527 2.080 . S
Zn524 O530 2.114 . S
Zn524 O533 2.120 . S
Zn524 O535 2.120 . S
Zn524 O536 2.114 . S
Zn524 O539 2.080 . S
C525 O530 1.166 . S
C525 O531 1.182 . S
C526 O532 1.167 . S
C526 O533 1.299 . S
O527 Zn524 2.080 . S
O527 C541 1.305 . S
O528 Zn522 1.920 . S
O528 C541 1.234 . S
C529 O534 1.167 . S
C529 O535 1.299 . S
O530 Zn524 2.114 . S
O530 C525 1.166 . S
O531 Zn523 1.905 . S
O531 C525 1.182 . S
O532 Zn523 1.898 . S
O532 C526 1.167 . S
O533 Zn524 2.120 . S
O533 C526 1.299 . S
O534 Zn522 1.898 . S
O534 C529 1.167 . S
O535 Zn524 2.120 . S
O535 C529 1.299 . S
O536 Zn524 2.114 . S
O536 C538 1.166 . S
O537 Zn522 1.905 . S
O537 C538 1.182 . S
C538 O536 1.166 . S
C538 O537 1.182 . S
O539 Zn524 2.080 . S
O539 C542 1.305 . S
O540 Zn523 1.920 . S
O540 C542 1.234 . S
C541 O527 1.305 . S
C541 O528 1.234 . S
C542 O539 1.305 . S
C542 O540 1.234 . S
Zn543 O549 1.920 . S
Zn543 O555 1.898 . S
Zn543 O558 1.905 . S
Zn544 O552 1.905 1_655 S
Zn544 O553 1.898 . S
Zn544 O561 1.920 . S
Zn545 O548 2.080 1_554 S
Zn545 O551 2.114 . S
Zn545 O554 2.120 1_454 S
Zn545 O556 2.120 . S
Zn545 O557 2.114 1_554 S
Zn545 O560 2.080 . S
C546 O551 1.166 . S
C546 O552 1.182 . S
C547 O553 1.167 1_556 S
C547 O554 1.299 . S
O548 Zn545 2.080 1_556 S
O548 C562 1.305 . S
O549 Zn543 1.920 . S
O549 C562 1.234 . S
C550 O555 1.167 1_554 S
C550 O556 1.299 . S
O551 Zn545 2.114 . S
O551 C546 1.166 . S
O552 Zn544 1.905 1_455 S
O552 C546 1.182 . S
O553 Zn544 1.898 . S
O553 C547 1.167 1_554 S
O554 Zn545 2.120 1_656 S
O554 C547 1.299 . S
O555 Zn543 1.898 . S
O555 C550 1.167 1_556 S
O556 Zn545 2.120 . S
O556 C550 1.299 . S
O557 Zn545 2.114 1_556 S
O557 C559 1.166 . S
O558 Zn543 1.905 . S
O558 C559 1.182 . S
C559 O557 1.166 . S
C559 O558 1.182 . S
O560 Zn545 2.080 . S
O560 C563 1.305 1_455 S
O561 Zn544 1.920 . S
O561 C563 1.234 . S
C562 O548 1.305 . S
C562 O549 1.234 . S
C563 O560 1.305 1_655 S
C563 O561 1.234 . S
H564 C570 0.930 . S
H565 C574 0.930 . S
H566 C579 0.929 . S
H567 C577 0.929 . S
H568 C572 0.929 . S
H569 C578 0.929 . S
C570 H564 0.930 . S
C570 C571 1.367 . S
C570 C578 1.378 . S
C571 C570 1.367 . S
C571 C579 1.433 . S
C572 H568 0.929 . S
C572 C574 1.378 . S
C572 C576 1.350 . S
C573 C576 1.463 . S
C573 C578 1.350 . S
C573 N581 1.427 . S
C574 H565 0.930 . S
C574 C572 1.378 . S
C574 C575 1.367 . S
C575 C574 1.367 . S
C575 C577 1.433 . S
C576 C572 1.350 . S
C576 C573 1.463 . S
C576 N580 1.427 . S
C577 H567 0.929 . S
C577 C575 1.433 . S
C577 N580 1.384 . S
C578 H569 0.929 . S
C578 C570 1.378 . S
C578 C573 1.350 . S
C579 H566 0.929 . S
C579 C571 1.433 . S
C579 N581 1.384 . S
N580 C576 1.427 . S
N580 C577 1.384 . S
N581 C573 1.427 . S
N581 C579 1.384 . S
H582 C588 0.930 . S
H583 C592 0.930 . S
H584 C597 0.929 . S
H585 C595 0.929 1_545 S
H586 C590 0.929 . S
H587 C596 0.929 . S
C588 H582 0.930 . S
C588 C589 1.367 . S
C588 C596 1.378 . S
C589 C588 1.367 . S
C589 C597 1.433 . S
C590 H586 0.929 . S
C590 C592 1.378 . S
C590 C594 1.350 . S
C591 C594 1.463 . S
C591 C596 1.350 . S
C591 N599 1.427 . S
C592 H583 0.930 . S
C592 C590 1.378 . S
C592 C593 1.367 . S
C593 C592 1.367 . S
C593 C595 1.433 . S
C594 C590 1.350 . S
C594 C591 1.463 . S
C594 N598 1.427 . S
C595 H585 0.929 1_565 S
C595 C593 1.433 . S
C595 N598 1.384 . S
C596 H587 0.929 . S
C596 C588 1.378 . S
C596 C591 1.350 . S
C597 H584 0.929 . S
C597 C589 1.433 . S
C597 N599 1.384 . S
N598 C594 1.427 . S
N598 C595 1.384 . S
N599 C591 1.427 . S
N599 C597 1.384 . S
H600 C606 0.930 . S
H601 C610 0.930 . S
H602 C615 0.929 . S
H603 C613 0.929 . S
H604 C608 0.929 . S
H605 C614 0.929 . S
C606 H600 0.930 . S
C606 C607 1.367 . S
C606 C614 1.378 . S
C607 C606 1.367 . S
C607 C615 1.433 . S
C608 H604 0.929 . S
C608 C610 1.378 . S
C608 C612 1.350 . S
C609 C612 1.463 . S
C609 C614 1.350 . S
C609 N617 1.427 . S
C610 H601 0.930 . S
C610 C608 1.378 . S
C610 C611 1.367 . S
C611 C610 1.367 . S
C611 C613 1.433 . S
C612 C608 1.350 . S
C612 C609 1.463 . S
C612 N616 1.427 . S
C613 H603 0.929 . S
C613 C611 1.433 . S
C613 N616 1.384 . S
C614 H605 0.929 . S
C614 C606 1.378 . S
C614 C609 1.350 . S
C615 H602 0.929 . S
C615 C607 1.433 . S
C615 N617 1.384 . S
N616 C612 1.427 . S
N616 C613 1.384 . S
N617 C609 1.427 . S
N617 C615 1.384 . S
H618 C624 0.930 . S
H619 C628 0.930 . S
H620 C633 0.929 . S
H621 C631 0.929 . S
H622 C626 0.929 . S
H623 C632 0.929 . S
C624 H618 0.930 . S
C624 C625 1.367 . S
C624 C632 1.378 . S
C625 C624 1.367 . S
C625 C633 1.433 . S
C626 H622 0.929 . S
C626 C628 1.378 . S
C626 C630 1.350 . S
C627 C630 1.463 . S
C627 C632 1.350 . S
C627 N635 1.427 . S
C628 H619 0.930 . S
C628 C626 1.378 . S
C628 C629 1.367 . S
C629 C628 1.367 . S
C629 C631 1.433 . S
C630 C626 1.350 . S
C630 C627 1.463 . S
C630 N634 1.427 . S
C631 H621 0.929 . S
C631 C629 1.433 . S
C631 N634 1.384 . S
C632 H623 0.929 . S
C632 C624 1.378 . S
C632 C627 1.350 . S
C633 H620 0.929 . S
C633 C625 1.433 . S
C633 N635 1.384 . S
N634 C630 1.427 . S
N634 C631 1.384 . S
N635 C627 1.427 . S
N635 C633 1.384 . S
H636 C642 0.930 . S
H637 C646 0.930 . S
H638 C651 0.929 . S
H639 C649 0.929 . S
H640 C644 0.929 . S
H641 C650 0.929 . S
C642 H636 0.930 . S
C642 C643 1.367 . S
C642 C650 1.378 . S
C643 C642 1.367 . S
C643 C651 1.433 . S
C644 H640 0.929 . S
C644 C646 1.378 . S
C644 C648 1.350 . S
C645 C648 1.463 . S
C645 C650 1.350 . S
C645 N653 1.427 . S
C646 H637 0.930 . S
C646 C644 1.378 . S
C646 C647 1.367 . S
C647 C646 1.367 . S
C647 C649 1.433 . S
C648 C644 1.350 . S
C648 C645 1.463 . S
C648 N652 1.427 . S
C649 H639 0.929 . S
C649 C647 1.433 . S
C649 N652 1.384 . S
C650 H641 0.929 . S
C650 C642 1.378 . S
C650 C645 1.350 . S
C651 H638 0.929 . S
C651 C643 1.433 . S
C651 N653 1.384 . S
N652 C648 1.427 . S
N652 C649 1.384 . S
N653 C645 1.427 . S
N653 C651 1.384 . S
H654 C660 0.930 . S
H655 C664 0.930 . S
H656 C669 0.929 . S
H657 C667 0.929 . S
H658 C662 0.929 . S
H659 C668 0.929 . S
C660 H654 0.930 . S
C660 C661 1.367 . S
C660 C668 1.378 . S
C661 C660 1.367 . S
C661 C669 1.433 . S
C662 H658 0.929 . S
C662 C664 1.378 . S
C662 C666 1.350 . S
C663 C666 1.463 . S
C663 C668 1.350 . S
C663 N671 1.427 . S
C664 H655 0.930 . S
C664 C662 1.378 . S
C664 C665 1.367 . S
C665 C664 1.367 . S
C665 C667 1.433 . S
C666 C662 1.350 . S
C666 C663 1.463 . S
C666 N670 1.427 . S
C667 H657 0.929 . S
C667 C665 1.433 . S
C667 N670 1.384 . S
C668 H659 0.929 . S
C668 C660 1.378 . S
C668 C663 1.350 . S
C669 H656 0.929 . S
C669 C661 1.433 . S
C669 N671 1.384 . S
N670 C666 1.427 . S
N670 C667 1.384 . S
N671 C663 1.427 . S
N671 C669 1.384 . S
H672 C678 0.930 . S
H673 C682 0.930 . S
H674 C687 0.929 . S
H675 C685 0.929 1_554 S
H676 C680 0.929 . S
H677 C686 0.929 . S
C678 H672 0.930 . S
C678 C679 1.367 . S
C678 C686 1.378 . S
C679 C678 1.367 . S
C679 C687 1.433 . S
C680 H676 0.929 . S
C680 C682 1.378 . S
C680 C684 1.350 . S
C681 C684 1.463 . S
C681 C686 1.350 . S
C681 N689 1.427 . S
C682 H673 0.930 . S
C682 C680 1.378 . S
C682 C683 1.367 . S
C683 C682 1.367 . S
C683 C685 1.433 . S
C684 C680 1.350 . S
C684 C681 1.463 . S
C684 N688 1.427 . S
C685 H675 0.929 1_556 S
C685 C683 1.433 . S
C685 N688 1.384 . S
C686 H677 0.929 . S
C686 C678 1.378 . S
C686 C681 1.350 . S
C687 H674 0.929 . S
C687 C679 1.433 . S
C687 N689 1.384 . S
N688 C684 1.427 . S
N688 C685 1.384 . S
N689 C681 1.427 . S
N689 C687 1.384 . S
H690 C696 0.930 . S
H691 C700 0.930 . S
H692 C705 0.929 . S
H693 C703 0.929 . S
H694 C698 0.929 . S
H695 C704 0.929 . S
C696 H690 0.930 . S
C696 C697 1.367 . S
C696 C704 1.378 . S
C697 C696 1.367 . S
C697 C705 1.433 . S
C698 H694 0.929 . S
C698 C700 1.378 . S
C698 C702 1.350 . S
C699 C702 1.463 . S
C699 C704 1.350 . S
C699 N707 1.427 . S
C700 H691 0.930 . S
C700 C698 1.378 . S
C700 C701 1.367 . S
C701 C700 1.367 . S
C701 C703 1.433 . S
C702 C698 1.350 . S
C702 C699 1.463 . S
C702 N706 1.427 . S
C703 H693 0.929 . S
C703 C701 1.433 . S
C703 N706 1.384 . S
C704 H695 0.929 . S
C704 C696 1.378 . S
C704 C699 1.350 . S
C705 H692 0.929 . S
C705 C697 1.433 . S
C705 N707 1.384 . S
N706 C702 1.427 . S
N706 C703 1.384 . S
N707 C699 1.427 . S
N707 C705 1.384 . S
H708 C714 0.930 . S
H709 C718 0.930 . S
H710 C723 0.929 . S
H711 C721 0.929 . S
H712 C716 0.929 . S
H713 C722 0.929 . S
C714 H708 0.930 . S
C714 C715 1.367 . S
C714 C722 1.378 . S
C715 C714 1.367 . S
C715 C723 1.433 . S
C716 H712 0.929 . S
C716 C718 1.378 . S
C716 C720 1.350 . S
C717 C720 1.463 . S
C717 C722 1.350 . S
C717 N725 1.427 . S
C718 H709 0.930 . S
C718 C716 1.378 . S
C718 C719 1.367 . S
C719 C718 1.367 . S
C719 C721 1.433 . S
C720 C716 1.350 . S
C720 C717 1.463 . S
C720 N724 1.427 . S
C721 H711 0.929 . S
C721 C719 1.433 . S
C721 N724 1.384 . S
C722 H713 0.929 . S
C722 C714 1.378 . S
C722 C717 1.350 . S
C723 H710 0.929 . S
C723 C715 1.433 . S
C723 N725 1.384 . S
N724 C720 1.427 . S
N724 C721 1.384 . S
N725 C717 1.427 . S
N725 C723 1.384 . S
H726 C732 0.930 . S
H727 C736 0.930 . S
H728 C741 0.929 . S
H729 C739 0.942 . S
H730 C734 0.929 . S
H731 C740 0.929 . S
C732 H726 0.930 . S
C732 C733 1.367 . S
C732 C740 1.378 . S
C733 C732 1.367 . S
C733 C741 1.433 . S
C734 H730 0.929 . S
C734 C736 1.378 . S
C734 C738 1.350 . S
C735 C738 1.463 . S
C735 C740 1.350 . S
C735 N743 1.427 . S
C736 H727 0.930 . S
C736 C734 1.378 . S
C736 C737 1.367 . S
C737 C736 1.367 . S
C737 C739 1.433 . S
C738 C734 1.350 . S
C738 C735 1.463 . S
C738 N742 1.427 . S
C739 H729 0.942 . S
C739 C737 1.433 . S
C739 N742 1.384 . S
C740 H731 0.929 . S
C740 C732 1.378 . S
C740 C735 1.350 . S
C741 H728 0.929 . S
C741 C733 1.433 . S
C741 N743 1.384 . S
N742 C738 1.427 . S
N742 C739 1.384 . S
N743 C735 1.427 . S
N743 C741 1.384 . S
H744 C750 0.930 . S
H745 C754 0.930 . S
H746 C759 0.929 . S
H747 C757 0.929 1_455 S
H748 C752 0.929 . S
H749 C758 0.929 . S
C750 H744 0.930 . S
C750 C751 1.367 . S
C750 C758 1.378 . S
C751 C750 1.367 . S
C751 C759 1.433 . S
C752 H748 0.929 . S
C752 C754 1.378 . S
C752 C756 1.350 . S
C753 C756 1.463 . S
C753 C758 1.350 . S
C753 N761 1.427 . S
C754 H745 0.930 . S
C754 C752 1.378 . S
C754 C755 1.367 . S
C755 C754 1.367 . S
C755 C757 1.433 . S
C756 C752 1.350 . S
C756 C753 1.463 . S
C756 N760 1.427 . S
C757 H747 0.929 1_655 S
C757 C755 1.433 . S
C757 N760 1.384 . S
C758 H749 0.929 . S
C758 C750 1.378 . S
C758 C753 1.350 . S
C759 H746 0.929 . S
C759 C751 1.433 . S
C759 N761 1.384 . S
N760 C756 1.427 . S
N760 C757 1.384 . S
N761 C753 1.427 . S
N761 C759 1.384 . S
H762 C768 0.930 . S
H763 C772 0.930 . S
H764 C777 0.929 . S
H765 C775 0.929 . S
H766 C770 0.929 . S
H767 C776 0.929 . S
C768 H762 0.930 . S
C768 C769 1.367 . S
C768 C776 1.378 . S
C769 C768 1.367 . S
C769 C777 1.433 . S
C770 H766 0.929 . S
C770 C772 1.378 . S
C770 C774 1.350 . S
C771 C774 1.463 . S
C771 C776 1.350 . S
C771 N779 1.427 . S
C772 H763 0.930 . S
C772 C770 1.378 . S
C772 C773 1.367 . S
C773 C772 1.367 . S
C773 C775 1.433 . S
C774 C770 1.350 . S
C774 C771 1.463 . S
C774 N778 1.427 . S
C775 H765 0.929 . S
C775 C773 1.433 . S
C775 N778 1.384 . S
C776 H767 0.929 . S
C776 C768 1.378 . S
C776 C771 1.350 . S
C777 H764 0.929 . S
C777 C769 1.433 . S
C777 N779 1.384 . S
N778 C774 1.427 . S
N778 C775 1.384 . S
N779 C771 1.427 . S
N779 C777 1.384 . S
H780 C786 0.930 . S
H781 C790 0.930 . S
H782 C795 0.929 . S
H783 C793 0.929 . S
H784 C788 0.929 . S
H785 C794 0.929 . S
C786 H780 0.930 . S
C786 C787 1.367 1_545 S
C786 C794 1.378 . S
C787 C786 1.367 1_565 S
C787 C795 1.433 . S
C788 H784 0.929 . S
C788 C790 1.378 . S
C788 C792 1.350 1_565 S
C789 C792 1.463 . S
C789 C794 1.350 . S
C789 N797 1.427 1_545 S
C790 H781 0.930 . S
C790 C788 1.378 . S
C790 C791 1.367 1_565 S
C791 C790 1.367 1_545 S
C791 C793 1.433 . S
C792 C788 1.350 1_545 S
C792 C789 1.463 . S
C792 N796 1.427 . S
C793 H783 0.929 . S
C793 C791 1.433 . S
C793 N796 1.384 . S
C794 H785 0.929 . S
C794 C786 1.378 . S
C794 C789 1.350 . S
C795 H782 0.929 . S
C795 C787 1.433 . S
C795 N797 1.384 . S
N796 C792 1.427 . S
N796 C793 1.384 . S
N797 C789 1.427 1_565 S
N797 C795 1.384 . S
H798 C804 0.930 . S
H799 C808 0.930 . S
H800 C813 0.929 . S
H801 C811 0.929 1_565 S
H802 C806 0.929 . S
H803 C812 0.929 . S
C804 H798 0.930 . S
C804 C805 1.367 . S
C804 C812 1.378 . S
C805 C804 1.367 . S
C805 C813 1.433 . S
C806 H802 0.929 . S
C806 C808 1.378 . S
C806 C810 1.350 . S
C807 C810 1.463 . S
C807 C812 1.350 . S
C807 N815 1.427 . S
C808 H799 0.930 . S
C808 C806 1.378 . S
C808 C809 1.367 . S
C809 C808 1.367 . S
C809 C811 1.433 . S
C810 C806 1.350 . S
C810 C807 1.463 . S
C810 N814 1.427 . S
C811 H801 0.929 1_545 S
C811 C809 1.433 . S
C811 N814 1.384 . S
C812 H803 0.929 . S
C812 C804 1.378 . S
C812 C807 1.350 . S
C813 H800 0.929 . S
C813 C805 1.433 . S
C813 N815 1.384 . S
N814 C810 1.427 . S
N814 C811 1.384 . S
N815 C807 1.427 . S
N815 C813 1.384 . S
H816 C822 0.930 . S
H817 C826 0.930 . S
H818 C831 0.929 . S
H819 C829 0.929 . S
H820 C824 0.929 . S
H821 C830 0.929 . S
C822 H816 0.930 . S
C822 C823 1.367 . S
C822 C830 1.378 . S
C823 C822 1.367 . S
C823 C831 1.433 . S
C824 H820 0.929 . S
C824 C826 1.378 . S
C824 C828 1.350 . S
C825 C828 1.463 . S
C825 C830 1.350 . S
C825 N833 1.427 . S
C826 H817 0.930 . S
C826 C824 1.378 . S
C826 C827 1.367 . S
C827 C826 1.367 . S
C827 C829 1.433 . S
C828 C824 1.350 . S
C828 C825 1.463 . S
C828 N832 1.427 . S
C829 H819 0.929 . S
C829 C827 1.433 . S
C829 N832 1.384 . S
C830 H821 0.929 . S
C830 C822 1.378 . S
C830 C825 1.350 . S
C831 H818 0.929 . S
C831 C823 1.433 . S
C831 N833 1.384 . S
N832 C828 1.427 . S
N832 C829 1.384 . S
N833 C825 1.427 . S
N833 C831 1.384 . S
H834 C840 0.930 . S
H835 C844 0.930 . S
H836 C849 0.929 . S
H837 C847 0.929 . S
H838 C842 0.929 . S
H839 C848 0.929 . S
C840 H834 0.930 . S
C840 C841 1.367 . S
C840 C848 1.378 . S
C841 C840 1.367 . S
C841 C849 1.433 . S
C842 H838 0.929 . S
C842 C844 1.378 . S
C842 C846 1.350 . S
C843 C846 1.463 . S
C843 C848 1.350 . S
C843 N851 1.427 . S
C844 H835 0.930 . S
C844 C842 1.378 . S
C844 C845 1.367 . S
C845 C844 1.367 . S
C845 C847 1.433 . S
C846 C842 1.350 . S
C846 C843 1.463 . S
C846 N850 1.427 . S
C847 H837 0.929 . S
C847 C845 1.433 . S
C847 N850 1.384 . S
C848 H839 0.929 . S
C848 C840 1.378 . S
C848 C843 1.350 . S
C849 H836 0.929 . S
C849 C841 1.433 . S
C849 N851 1.384 . S
N850 C846 1.427 . S
N850 C847 1.384 . S
N851 C843 1.427 . S
N851 C849 1.384 . S
H852 C858 0.930 . S
H853 C862 0.930 . S
H854 C867 0.929 . S
H855 C865 0.929 1_556 S
H856 C860 0.929 . S
H857 C866 0.929 . S
C858 H852 0.930 . S
C858 C859 1.367 . S
C858 C866 1.378 . S
C859 C858 1.367 . S
C859 C867 1.433 1_566 S
C860 H856 0.929 . S
C860 C862 1.378 . S
C860 C864 1.350 1_545 S
C861 C864 1.463 . S
C861 C866 1.350 1_554 S
C861 N869 1.427 1_565 S
C862 H853 0.930 . S
C862 C860 1.378 . S
C862 C863 1.367 1_545 S
C863 C862 1.367 1_565 S
C863 C865 1.433 . S
C864 C860 1.350 1_565 S
C864 C861 1.463 . S
C864 N868 1.422 1_554 S
C865 H855 0.929 1_554 S
C865 C863 1.433 . S
C865 N868 1.382 1_554 S
C866 H857 0.929 . S
C866 C858 1.378 . S
C866 C861 1.350 1_556 S
C867 H854 0.929 . S
C867 C859 1.433 1_544 S
C867 N869 1.384 . S
N868 C864 1.422 1_556 S
N868 C865 1.382 1_556 S
N869 C861 1.427 1_545 S
N869 C867 1.384 . S
H870 C876 0.930 . S
H871 C880 0.930 . S
H872 C885 0.929 . S
H873 C883 0.929 . S
H874 C878 0.929 . S
H875 C884 0.929 . S
C876 H870 0.930 . S
C876 C877 1.367 . S
C876 C884 1.378 . S
C877 C876 1.367 . S
C877 C885 1.433 . S
C878 H874 0.929 . S
C878 C880 1.378 . S
C878 C882 1.350 . S
C879 C882 1.463 . S
C879 C884 1.350 . S
C879 N887 1.427 . S
C880 H871 0.930 . S
C880 C878 1.378 . S
C880 C881 1.367 . S
C881 C880 1.367 . S
C881 C883 1.433 . S
C882 C878 1.350 . S
C882 C879 1.463 . S
C882 N886 1.427 . S
C883 H873 0.929 . S
C883 C881 1.433 . S
C883 N886 1.384 . S
C884 H875 0.929 . S
C884 C876 1.378 . S
C884 C879 1.350 . S
C885 H872 0.929 . S
C885 C877 1.433 . S
C885 N887 1.384 . S
N886 C882 1.427 . S
N886 C883 1.384 . S
N887 C879 1.427 . S
N887 C885 1.384 . S
H888 C894 0.930 1_556 S
H889 C898 0.930 . S
H890 C903 0.929 . S
H891 C901 0.929 . S
H892 C896 0.929 . S
H893 C902 0.929 1_556 S
C894 H888 0.930 1_554 S
C894 C895 1.367 . S
C894 C902 1.378 . S
C895 C894 1.367 . S
C895 C903 1.433 . S
C896 H892 0.929 . S
C896 C898 1.378 . S
C896 C900 1.350 . S
C897 C900 1.463 . S
C897 C902 1.350 . S
C897 N905 1.427 . S
C898 H889 0.930 . S
C898 C896 1.378 . S
C898 C899 1.367 . S
C899 C898 1.367 . S
C899 C901 1.433 1_554 S
C900 C896 1.350 . S
C900 C897 1.463 . S
C900 N904 1.427 . S
C901 H891 0.929 . S
C901 C899 1.433 1_556 S
C901 N904 1.384 1_556 S
C902 H893 0.929 1_554 S
C902 C894 1.378 . S
C902 C897 1.350 . S
C903 H890 0.929 . S
C903 C895 1.433 . S
C903 N905 1.384 . S
N904 C900 1.427 . S
N904 C901 1.384 1_554 S
N905 C897 1.427 . S
N905 C903 1.384 . S
H906 C912 0.930 . S
H907 C916 0.930 . S
H908 C921 0.929 . S
H909 C919 0.929 . S
H910 C914 0.929 . S
H911 C920 0.929 . S
C912 H906 0.930 . S
C912 C913 1.367 . S
C912 C920 1.378 . S
C913 C912 1.367 . S
C913 C921 1.433 . S
C914 H910 0.929 . S
C914 C916 1.378 . S
C914 C918 1.350 . S
C915 C918 1.463 . S
C915 C920 1.350 . S
C915 N923 1.427 . S
C916 H907 0.930 . S
C916 C914 1.378 . S
C916 C917 1.367 . S
C917 C916 1.367 . S
C917 C919 1.433 . S
C918 C914 1.350 . S
C918 C915 1.463 . S
C918 N922 1.427 . S
C919 H909 0.929 . S
C919 C917 1.433 . S
C919 N922 1.384 . S
C920 H911 0.929 . S
C920 C912 1.378 . S
C920 C915 1.350 . S
C921 H908 0.929 . S
C921 C913 1.433 . S
C921 N923 1.384 . S
N922 C918 1.427 . S
N922 C919 1.384 . S
N923 C915 1.427 . S
N923 C921 1.384 . S
H924 C930 0.930 . S
H925 C934 0.930 . S
H926 C939 0.929 . S
H927 C937 0.929 . S
H928 C932 0.929 . S
H929 C938 0.929 . S
C930 H924 0.930 . S
C930 C931 1.367 1_554 S
C930 C938 1.378 . S
C931 C930 1.367 1_556 S
C931 C939 1.433 1_655 S
C932 H928 0.929 . S
C932 C934 1.378 . S
C932 C936 1.350 . S
C933 C936 1.467 . S
C933 C938 1.331 1_456 S
C933 N941 1.444 . S
C934 H925 0.930 . S
C934 C932 1.378 . S
C934 C935 1.367 . S
C935 C934 1.367 . S
C935 C937 1.433 1_456 S
C936 C932 1.350 . S
C936 C933 1.467 . S
C936 N940 1.427 1_456 S
C937 H927 0.929 . S
C937 C935 1.433 1_654 S
C937 N940 1.384 . S
C938 H929 0.929 . S
C938 C930 1.378 . S
C938 C933 1.331 1_654 S
C939 H926 0.929 . S
C939 C931 1.433 1_455 S
C939 N941 1.384 . S
N940 C936 1.427 1_654 S
N940 C937 1.384 . S
N941 C933 1.444 . S
N941 C939 1.384 . S
H942 C948 0.930 . S
H943 C952 0.930 . S
H944 C957 0.929 . S
H945 C955 0.929 1_556 S
H946 C950 0.929 . S
H947 C956 0.946 . S
C948 H942 0.930 . S
C948 C949 1.367 . S
C948 C956 1.378 . S
C949 C948 1.367 . S
C949 C957 1.433 . S
C950 H946 0.929 . S
C950 C952 1.378 . S
C950 C954 1.350 . S
C951 C954 1.463 . S
C951 C956 1.350 . S
C951 N959 1.427 . S
C952 H943 0.930 . S
C952 C950 1.378 . S
C952 C953 1.367 . S
C953 C952 1.367 . S
C953 C955 1.433 . S
C954 C950 1.350 . S
C954 C951 1.463 . S
C954 N958 1.427 . S
C955 H945 0.929 1_554 S
C955 C953 1.433 . S
C955 N958 1.384 . S
C956 H947 0.946 . S
C956 C948 1.378 . S
C956 C951 1.350 . S
C957 H944 0.929 . S
C957 C949 1.433 . S
C957 N959 1.384 . S
N958 C954 1.427 . S
N958 C955 1.384 . S
N959 C951 1.427 . S
N959 C957 1.384 . S
H960 C966 0.930 . S
H961 C970 0.930 1_655 S
H962 C975 0.929 . S
H963 C973 0.929 . S
H964 C968 0.929 . S
H965 C974 0.929 . S
C966 H960 0.930 . S
C966 C967 1.367 . S
C966 C974 1.378 . S
C967 C966 1.367 . S
C967 C975 1.433 . S
C968 H964 0.929 . S
C968 C970 1.378 . S
C968 C972 1.350 . S
C969 C972 1.463 . S
C969 C974 1.350 . S
C969 N977 1.427 . S
C970 H961 0.930 1_455 S
C970 C968 1.378 . S
C970 C971 1.367 . S
C971 C970 1.367 . S
C971 C973 1.433 . S
C972 C968 1.350 . S
C972 C969 1.463 . S
C972 N976 1.427 . S
C973 H963 0.929 . S
C973 C971 1.433 . S
C973 N976 1.384 . S
C974 H965 0.929 . S
C974 C966 1.378 . S
C974 C969 1.350 . S
C975 H962 0.929 . S
C975 C967 1.433 . S
C975 N977 1.384 . S
N976 C972 1.427 . S
N976 C973 1.384 . S
N977 C969 1.427 . S
N977 C975 1.384 . S
H978 C984 0.930 . S
H979 C988 0.930 . S
H980 C993 0.929 . S
H981 C991 0.929 . S
H982 C986 0.929 . S
H983 C992 0.929 . S
C984 H978 0.930 . S
C984 C985 1.367 . S
C984 C992 1.378 . S
C985 C984 1.367 . S
C985 C993 1.433 . S
C986 H982 0.929 . S
C986 C988 1.378 . S
C986 C990 1.350 . S
C987 C990 1.463 . S
C987 C992 1.350 . S
C987 N995 1.427 . S
C988 H979 0.930 . S
C988 C986 1.378 . S
C988 C989 1.367 . S
C989 C988 1.367 . S
C989 C991 1.433 . S
C990 C986 1.350 . S
C990 C987 1.463 . S
C990 N994 1.427 . S
C991 H981 0.929 . S
C991 C989 1.433 . S
C991 N994 1.384 . S
C992 H983 0.929 . S
C992 C984 1.378 . S
C992 C987 1.350 . S
C993 H980 0.929 . S
C993 C985 1.433 . S
C993 N995 1.384 . S
N994 C990 1.427 . S
N994 C991 1.384 . S
N995 C987 1.427 . S
N995 C993 1.384 . S
C571 C1 1.518 . S
C575 C483 1.435 . S
C589 C80 1.497 . S
C593 C517 1.418 . S
C611 C529 1.399 . S
C607 C140 1.484 . S
C625 C211 1.498 . S
C629 C563 1.417 . S
C647 C520 1.415 . S
C643 C31 1.502 . S
C665 C500 1.414 . S
C661 C61 1.495 . S
C683 C547 1.401 . S
C679 C151 1.468 . S
C701 C538 1.426 . S
C697 C200 1.503 . S
C715 C20 1.514 . S
C719 C546 1.430 . S
C737 C508 1.406 . S
C733 C121 1.484 . S
C751 C181 1.497 . S
C755 C484 1.411 . S
C769 C91 1.499 . S
C773 C541 1.415 . S
C791 C499 1.628 . S
C787 C260 1.724 . S
C805 C320 1.649 . S
C809 C521 1.619 . S
C823 C361 1.751 . S
C827 C526 1.641 . S
C841 C451 1.678 . S
C845 C559 1.657 . S
C859 C271 1.729 . S
C863 C504 1.640 . S
C881 C496 1.654 . S
C877 C301 1.665 . S
C899 C550 1.653 . S
C895 C380 1.747 . S
C917 C542 1.617 . S
C913 C440 1.641 . S
C931 C241 1.713 . S
C935 C562 1.603 . S
C953 C505 1.637 . S
C949 C391 1.753 . S
C971 C487 1.617 . S
C967 C421 1.638 . S
C985 C331 1.649 . S
C989 C525 1.626 . S
