# Generated by pormake.
# Topology ssa, (4,4)-cn, num edge types: 1
# Building blocks:
#     Node 0, Type 0, BuildingBlock: KOZSID_clean_sbu_0, # of connection points: 4
#     Node 1, Type 0, BuildingBlock: KOZSID_clean_sbu_0, # of connection points: 4
#     Node 2, Type 0, BuildingBlock: KOZSID_clean_sbu_0, # of connection points: 4
#     Node 3, Type 0, BuildingBlock: KOZSID_clean_sbu_0, # of connection points: 4
#     Node 4, Type 0, BuildingBlock: KOZSID_clean_sbu_0, # of connection points: 4
#     Node 5, Type 0, BuildingBlock: KOZSID_clean_sbu_0, # of connection points: 4
#     Node 6, Type 1, BuildingBlock: KUFVIS_clean_linker_0, # of connection points: 4
#     Node 7, Type 1, BuildingBlock: KUFVIS_clean_linker_0, # of connection points: 4
#     Node 8, Type 1, BuildingBlock: KUFVIS_clean_linker_0, # of connection points: 4
#     Node 9, Type 1, BuildingBlock: KUFVIS_clean_linker_0, # of connection points: 4
#     Node 10, Type 1, BuildingBlock: KUFVIS_clean_linker_0, # of connection points: 4
#     Node 11, Type 1, BuildingBlock: KUFVIS_clean_linker_0, # of connection points: 4
#     Edge 12, Type (0, 1), BuildingBlock: MIFKUJ_clean_linker_0, # of connection points: 2
#     Edge 13, Type (0, 1), BuildingBlock: MIFKUJ_clean_linker_0, # of connection points: 2
#     Edge 14, Type (0, 1), BuildingBlock: MIFKUJ_clean_linker_0, # of connection points: 2
#     Edge 15, Type (0, 1), BuildingBlock: MIFKUJ_clean_linker_0, # of connection points: 2
#     Edge 16, Type (0, 1), BuildingBlock: MIFKUJ_clean_linker_0, # of connection points: 2
#     Edge 17, Type (0, 1), BuildingBlock: MIFKUJ_clean_linker_0, # of connection points: 2
#     Edge 18, Type (0, 1), BuildingBlock: MIFKUJ_clean_linker_0, # of connection points: 2
#     Edge 19, Type (0, 1), BuildingBlock: MIFKUJ_clean_linker_0, # of connection points: 2
#     Edge 20, Type (0, 1), BuildingBlock: MIFKUJ_clean_linker_0, # of connection points: 2
#     Edge 21, Type (0, 1), BuildingBlock: MIFKUJ_clean_linker_0, # of connection points: 2
#     Edge 22, Type (0, 1), BuildingBlock: MIFKUJ_clean_linker_0, # of connection points: 2
#     Edge 23, Type (0, 1), BuildingBlock: MIFKUJ_clean_linker_0, # of connection points: 2
#     Edge 24, Type (0, 1), BuildingBlock: MIFKUJ_clean_linker_0, # of connection points: 2
#     Edge 25, Type (0, 1), BuildingBlock: MIFKUJ_clean_linker_0, # of connection points: 2
#     Edge 26, Type (0, 1), BuildingBlock: MIFKUJ_clean_linker_0, # of connection points: 2
#     Edge 27, Type (0, 1), BuildingBlock: MIFKUJ_clean_linker_0, # of connection points: 2
#     Edge 28, Type (0, 1), BuildingBlock: MIFKUJ_clean_linker_0, # of connection points: 2
#     Edge 29, Type (0, 1), BuildingBlock: MIFKUJ_clean_linker_0, # of connection points: 2
#     Edge 30, Type (0, 1), BuildingBlock: MIFKUJ_clean_linker_0, # of connection points: 2
#     Edge 31, Type (0, 1), BuildingBlock: MIFKUJ_clean_linker_0, # of connection points: 2
#     Edge 32, Type (0, 1), BuildingBlock: MIFKUJ_clean_linker_0, # of connection points: 2
#     Edge 33, Type (0, 1), BuildingBlock: MIFKUJ_clean_linker_0, # of connection points: 2
#     Edge 34, Type (0, 1), BuildingBlock: MIFKUJ_clean_linker_0, # of connection points: 2
#     Edge 35, Type (0, 1), BuildingBlock: MIFKUJ_clean_linker_0, # of connection points: 2
# Relax obj value: 0.003
# Max RMSD: 0.053
# Mean RMSD: 0.030
data_MOF--net-ssa--node1-KOZSID_clean_sbu_0--node2-KUFVIS_clean_linker_0--edge1-MIFKUJ_clean_linker_0
_symmetry_space_group_name_H-M    P1
_symmetry_Int_Tables_number       1
_symmetry_cell_setting            triclinic
loop_
_symmetry_equiv_pos_as_xyz
'x, y, z'
_cell_length_a     73.931528
_cell_length_b     75.320085
_cell_length_c     41.332274
_cell_angle_alpha  87.575184
_cell_angle_beta   89.926676
_cell_angle_gamma 121.84198
loop_
_atom_site_label
_atom_site_type_symbol
_atom_site_fract_x
_atom_site_fract_y
_atom_site_fract_z
_atom_type_partial_charge
C0 C 0.96756 0.51094 0.01769 0.0
C1 C 0.95268 0.50685 0.042 0.0
C2 C 0.95638 0.49702 0.06725 0.0
C3 C 0.9732 0.49563 0.057 0.0
N4 N 0.98067 0.50421 0.02682 0.0
Co5 Co 0.0044 0.50476 0.00208 0.0
N6 N 0.00846 0.48858 0.03808 0.0
C7 C 0.99656 0.48028 0.06575 0.0
C8 C 1.00366 0.47061 0.08632 0.0
C9 C 0.02141 0.47327 0.07119 0.0
C10 C 0.02416 0.48454 0.04225 0.0
N11 N 0.02851 0.50577 0.97776 0.0
C12 C 0.04263 0.50055 0.98806 0.0
C13 C 0.05824 0.50559 0.96452 0.0
C14 C 0.05405 0.51458 0.93863 0.0
C15 C 0.03628 0.51464 0.94783 0.0
N16 N 1.00003 0.52056 0.96577 0.0
C17 C 0.01103 0.52759 0.93715 0.0
C18 C 1.00387 0.53711 0.91643 0.0
C19 C 0.98702 0.53576 0.9325 0.0
C20 C 0.98484 0.52538 0.96218 0.0
N21 N 0.02547 0.53135 0.02183 0.0
C22 C 0.05878 0.56683 0.05066 0.0
C23 C 0.05744 0.56591 0.017 0.0
C24 C 0.04078 0.54817 0.0032 0.0
C25 C 0.04255 0.55015 0.06956 0.0
C26 C 0.0261 0.53281 0.05479 0.0
N27 N 0.98332 0.47808 0.98224 0.0
C28 C 0.96912 0.45759 0.93486 0.0
C29 C 0.95117 0.44201 0.95258 0.0
C30 C 0.95007 0.44446 0.98571 0.0
C31 C 0.96619 0.46237 0.99991 0.0
C32 C 0.98484 0.47527 0.95001 0.0
H33 H 0.96415 0.46329 0.02512 0.0
H34 H 0.99789 0.4866 0.93497 0.0
H35 H 0.04092 0.5482 0.97743 0.0
H36 H 0.01432 0.52057 0.07057 0.0
C37 C 0.98079 0.4844 0.07365 0.0
C38 C 0.96764 0.5199 0.98561 0.0
C39 C 0.0427 0.49227 0.02063 0.0
C40 C 0.02761 0.52448 0.93011 0.0
H41 H 0.93998 0.50998 0.04122 0.0
H42 H 0.94729 0.49082 0.08984 0.0
H43 H 0.99736 0.46348 0.11023 0.0
H44 H 0.03166 0.46822 0.08088 0.0
H45 H 0.07174 0.5037 0.96623 0.0
H46 H 0.06343 0.52116 0.91634 0.0
H47 H 0.00991 0.54386 0.89227 0.0
H48 H 0.9772 0.54143 0.9232 0.0
H49 H 0.06959 0.5785 0.00133 0.0
H50 H 0.04259 0.55039 0.09576 0.0
H51 H 0.97105 0.45625 0.90927 0.0
H52 H 0.93649 0.43295 0.0006 0.0
C53 C 0.54219 0.02866 0.5434 0.0
C54 C 0.54815 0.02718 0.57478 0.0
C55 C 0.5312 0.00983 0.58966 0.0
C56 C 0.51588 1.00178 0.56672 0.0
N57 N 0.52213 0.01271 0.53782 0.0
Co58 Co 0.50419 0.00751 0.49871 0.0
N59 N 0.4787 0.98288 0.52142 0.0
C60 C 0.47758 0.97525 0.55206 0.0
C61 C 0.45854 0.95723 0.56008 0.0
C62 C 0.44693 0.95277 0.53269 0.0
C63 C 0.4596 0.96847 0.50952 0.0
N64 N 0.48614 1.00264 0.4599 0.0
C65 C 0.46616 0.98664 0.45423 0.0
C66 C 0.45961 0.98888 0.42369 0.0
C67 C 0.4763 0.00666 0.40916 0.0
C68 C 0.49196 0.01427 0.43164 0.0
N69 N 0.52975 0.03181 0.4757 0.0
C70 C 0.53107 0.03887 0.44462 0.0
C71 C 0.55056 0.05613 0.43587 0.0
C72 C 0.56231 0.06056 0.46311 0.0
C73 C 0.5492 0.04574 0.48702 0.0
N74 N 0.51239 0.98811 0.48248 0.0
C75 C 0.5193 0.95746 0.4589 0.0
C76 C 0.51841 0.97191 0.43774 0.0
C77 C 0.51529 0.98717 0.44995 0.0
C78 C 0.51754 0.95912 0.49211 0.0
C79 C 0.51399 0.97434 0.50328 0.0
N80 N 0.49597 0.02691 0.51499 0.0
C81 C 0.49426 0.05809 0.50739 0.0
C82 C 0.48878 0.05707 0.54006 0.0
C83 C 0.48609 0.04021 0.55962 0.0
C84 C 0.48953 0.02535 0.54665 0.0
C85 C 0.4978 0.04301 0.49548 0.0
H86 H 0.48722 0.01295 0.5629 0.0
H87 H 0.50245 0.045 0.47057 0.0
H88 H 0.51489 0.99779 0.43255 0.0
H89 H 0.51213 0.97433 0.52882 0.0
C90 C 0.49519 0.98455 0.57196 0.0
C91 C 0.55563 0.04615 0.52045 0.0
C92 C 0.45348 0.96827 0.47595 0.0
C93 C 0.51306 0.03051 0.4255 0.0
H94 H 0.56298 0.03783 0.58611 0.0
H95 H 0.52996 0.00412 0.61455 0.0
H96 H 0.45397 0.94798 0.58273 0.0
H97 H 0.43121 0.93915 0.52982 0.0
H98 H 0.44462 0.97829 0.41263 0.0
H99 H 0.47728 0.01269 0.38456 0.0
H100 H 0.55536 0.06497 0.41284 0.0
H101 H 0.57848 0.07359 0.46545 0.0
H102 H 0.52006 0.97142 0.41179 0.0
H103 H 0.51812 0.94823 0.50941 0.0
H104 H 0.49653 0.07086 0.49126 0.0
H105 H 0.48141 0.0385 0.58496 0.0
C106 C 0.54798 0.52442 0.9654 0.0
C107 C 0.5559 0.53387 0.93482 0.0
C108 C 0.54051 0.53604 0.92058 0.0
C109 C 0.52408 0.52776 0.94305 0.0
N110 N 0.52813 0.52068 0.97106 0.0
Co111 Co 0.50798 0.50608 0.00925 0.0
N112 N 0.48438 0.50684 0.98654 0.0
C113 C 0.48513 0.51463 0.95613 0.0
C114 C 0.46659 0.51328 0.94732 0.0
C115 C 0.45326 0.50433 0.97383 0.0
C116 C 0.46454 0.50083 0.99741 0.0
N117 N 0.48788 0.4916 0.04752 0.0
C118 C 0.46775 0.48722 0.05273 0.0
C119 C 0.4599 0.47801 0.08344 0.0
C120 C 0.47562 0.47663 0.09824 0.0
C121 C 0.49215 0.48511 0.07592 0.0
N122 N 0.53153 0.50513 0.03179 0.0
C123 C 0.53083 0.49736 0.0622 0.0
C124 C 0.54912 0.49806 0.07053 0.0
C125 C 0.56218 0.50641 0.04363 0.0
C126 C 0.55099 0.51025 0.02032 0.0
N127 N 0.51723 0.53363 0.02752 0.0
C128 C 0.52674 0.57133 0.05497 0.0
C129 C 0.52688 0.55547 0.07358 0.0
C130 C 0.52218 0.53699 0.05952 0.0
C131 C 0.52236 0.56819 0.02209 0.0
C132 C 0.51781 0.54947 0.00896 0.0
N133 N 0.49873 0.47858 0.99107 0.0
C134 C 0.4925 0.44365 0.99751 0.0
C135 C 0.48936 0.44079 0.96435 0.0
C136 C 0.4903 0.45696 0.94499 0.0
C137 C 0.49492 0.47552 0.95872 0.0
C138 C 0.49703 0.46244 0.01026 0.0
H139 H 0.49572 0.48731 0.94256 0.0
H140 H 0.49939 0.46364 0.03566 0.0
H141 H 0.52229 0.52553 0.07526 0.0
H142 H 0.51457 0.5481 0.98381 0.0
C143 C 0.5039 0.52435 0.93724 0.0
C144 C 0.55926 0.51803 0.98732 0.0
C145 C 0.45593 0.49249 0.03009 0.0
C146 C 0.51223 0.4882 0.08151 0.0
H147 H 0.57093 0.53809 0.9234 0.0
H148 H 0.54087 0.54205 0.89618 0.0
H149 H 0.46336 0.51866 0.92463 0.0
H150 H 0.43719 0.50113 0.97583 0.0
H151 H 0.44459 0.47325 0.09438 0.0
H152 H 0.47526 0.47071 0.1227 0.0
H153 H 0.55233 0.49254 0.09311 0.0
H154 H 0.57796 0.50893 0.04114 0.0
H155 H 0.53003 0.55701 0.09922 0.0
H156 H 0.52246 0.58015 0.00644 0.0
H157 H 0.49152 0.43146 0.01368 0.0
H158 H 0.48811 0.45561 0.91911 0.0
C159 C 0.96837 0.46118 0.48775 0.0
C160 C 0.95401 0.44949 0.46433 0.0
C161 C 0.95812 0.46285 0.43815 0.0
C162 C 0.97478 0.48181 0.44693 0.0
N163 N 0.98187 0.48131 0.47692 0.0
Co164 Co 0.00554 0.50545 0.49946 0.0
N165 N 0.01026 0.52559 0.46214 0.0
C166 C 0.99928 0.52107 0.4344 0.0
C167 C 0.00684 0.53776 0.41247 0.0
C168 C 0.02385 0.55389 0.42679 0.0
C169 C 0.02564 0.54611 0.4569 0.0
N170 N 0.02926 0.52961 0.52195 0.0
C171 C 0.04277 0.54975 0.51111 0.0
C172 C 0.05737 0.56136 0.53431 0.0
C173 C 0.05331 0.54798 0.56044 0.0
C174 C 0.03648 0.52908 0.55181 0.0
N175 N 1.00079 0.48532 0.5368 0.0
C176 C 0.01177 0.48988 0.56454 0.0
C177 C 1.00395 0.47334 0.58678 0.0
C178 C 0.98675 0.45729 0.5727 0.0
C179 C 0.98513 0.46493 0.54233 0.0
N180 N 0.02665 0.50016 0.47936 0.0
C181 C 0.05757 0.49432 0.45011 0.0
C182 C 0.05746 0.49683 0.48338 0.0
C183 C 0.04203 0.49978 0.49737 0.0
C184 C 0.04172 0.49441 0.43188 0.0
C185 C 0.02655 0.49725 0.44685 0.0
N186 N 0.9843 0.51052 0.51963 0.0
C187 C 0.9674 0.51323 0.56777 0.0
C188 C 0.95072 0.51175 0.54979 0.0
C189 C 0.95169 0.51072 0.51622 0.0
C190 C 0.96847 0.51012 0.50176 0.0
C191 C 0.984 0.51284 0.55231 0.0
H192 H 0.968 0.5088 0.4762 0.0
H193 H 0.99617 0.51399 0.56743 0.0
H194 H 0.04303 0.50194 0.52273 0.0
H195 H 0.01499 0.49714 0.43149 0.0
C196 C 0.98317 0.5006 0.42848 0.0
C197 C 0.96774 0.4527 0.52045 0.0
C198 C 0.04296 0.55842 0.47877 0.0
C199 C 0.02799 0.51032 0.57032 0.0
H200 H 0.94148 0.43312 0.46632 0.0
H201 H 0.94957 0.45931 0.41577 0.0
H202 H 1.00119 0.53797 0.3884 0.0
H203 H 0.03412 0.56942 0.41574 0.0
H204 H 0.06995 0.57772 0.53226 0.0
H205 H 0.06198 0.55148 0.58271 0.0
H206 H 0.0095 0.47323 0.61096 0.0
H207 H 0.97623 0.44198 0.58422 0.0
H208 H 0.0695 0.49701 0.49851 0.0
H209 H 0.04091 0.49217 0.40608 0.0
H210 H 0.96762 0.5146 0.59378 0.0
H211 H 0.93918 0.50965 0.50122 0.0
C212 C 0.47147 0.99193 0.06116 0.0
C213 C 0.46794 0.99361 0.09361 0.0
C214 C 0.48646 0.00996 0.10435 0.0
C215 C 0.50027 0.01717 0.07814 0.0
N216 N 0.49163 0.00675 0.05102 0.0
Co217 Co 0.50711 0.01032 0.00895 0.0
N218 N 0.53487 0.03324 0.02563 0.0
C219 C 0.53788 0.04172 0.05482 0.0
C220 C 0.55773 0.05903 0.05816 0.0
C221 C 0.56801 0.06208 0.02918 0.0
C222 C 0.55387 0.04614 0.00981 0.0
N223 N 0.52269 0.0129 0.96762 0.0
C224 C 0.54342 0.02614 0.95857 0.0
C225 C 0.54793 0.02163 0.92845 0.0
C226 C 0.5292 0.0056 0.91754 0.0
C227 C 0.51445 1.00098 0.94173 0.0
N228 N 0.47919 0.98825 0.9916 0.0
C229 C 0.47552 0.9817 0.96101 0.0
C230 C 0.45472 0.96647 0.95615 0.0
C231 C 0.44456 0.96288 0.98549 0.0
C232 C 0.45986 0.97605 0.00671 0.0
N233 N 0.50169 0.03225 0.99224 0.0
C234 C 0.49995 0.06678 0.96733 0.0
C235 C 0.49926 0.05219 0.94681 0.0
C236 C 0.49985 0.03505 0.95967 0.0
C237 C 0.50044 0.06324 0.00066 0.0
C238 C 0.50134 0.04604 0.01251 0.0
N239 N 0.51272 0.98857 0.02551 0.0
C240 C 0.50904 0.9549 0.0208 0.0
C241 C 0.51931 0.95689 0.05 0.0
C242 C 0.52646 0.9752 0.06652 0.0
C243 C 0.52302 0.99069 0.05397 0.0
C244 C 0.506 0.97078 0.00908 0.0
H245 H 0.52873 0.00419 0.06782 0.0
H246 H 0.49795 0.96816 0.9868 0.0
H247 H 0.49921 0.02451 0.94265 0.0
H248 H 0.50222 0.04454 0.03811 0.0
C249 C 0.52153 0.03343 0.0783 0.0
C250 C 0.45557 0.97547 0.04135 0.0
C251 C 0.55883 0.04428 0.97621 0.0
C252 C 0.49245 0.98748 0.93929 0.0
H253 H 0.45368 0.98377 0.10837 0.0
H254 H 0.48965 0.01556 0.12863 0.0
H255 H 0.5638 0.06868 0.07887 0.0
H256 H 0.58391 0.07502 0.02306 0.0
H257 H 0.56302 0.02968 0.91516 0.0
H258 H 0.52649 0.99873 0.8942 0.0
H259 H 0.44799 0.95813 0.93436 0.0
H260 H 0.42795 0.95131 0.99098 0.0
H261 H 0.4983 0.054 0.92084 0.0
H262 H 0.50085 0.07406 0.01752 0.0
H263 H 0.50293 0.94094 0.00724 0.0
H264 H 0.53479 0.97767 0.089 0.0
C265 C 0.51382 0.55008 0.51229 0.0
C266 C 0.50934 0.5601 0.53551 0.0
C267 C 0.49937 0.54589 0.56093 0.0
C268 C 0.49842 0.52812 0.55186 0.0
N269 N 0.50757 0.53026 0.52241 0.0
Co270 Co 0.50894 0.50816 0.49908 0.0
N271 N 0.49151 0.48638 0.53423 0.0
C272 C 0.48257 0.48882 0.56092 0.0
C273 C 0.47211 0.47119 0.58114 0.0
C274 C 0.47486 0.45674 0.56683 0.0
C275 C 0.48697 0.46649 0.53869 0.0
N276 N 0.51067 0.4861 0.47612 0.0
C277 C 0.50458 0.46633 0.48646 0.0
C278 C 0.51008 0.45666 0.46401 0.0
C279 C 0.52035 0.47095 0.4388 0.0
C280 C 0.5206 0.48846 0.44731 0.0
N281 N 0.526 0.52985 0.4636 0.0
C282 C 0.53411 0.52714 0.43621 0.0
C283 C 0.54362 0.5444 0.4152 0.0
C284 C 0.54103 0.55889 0.42966 0.0
C285 C 0.53013 0.54961 0.45888 0.0
N286 N 0.53544 0.51517 0.52198 0.0
C287 C 0.57146 0.52115 0.55528 0.0
C288 C 0.57117 0.5215 0.52145 0.0
C289 C 0.55315 0.51849 0.50543 0.0
C290 C 0.55373 0.51854 0.57202 0.0
C291 C 0.53614 0.51574 0.55508 0.0
N292 N 0.48246 0.50121 0.47618 0.0
C293 C 0.46311 0.49502 0.42648 0.0
C294 C 0.44699 0.49609 0.44222 0.0
C295 C 0.44855 0.49897 0.47548 0.0
C296 C 0.46614 0.50127 0.49188 0.0
C297 C 0.48055 0.49761 0.44375 0.0
H298 H 0.46632 0.50344 0.51717 0.0
H299 H 0.49248 0.49707 0.43019 0.0
H300 H 0.55377 0.5185 0.4797 0.0
H301 H 0.52316 0.51373 0.56939 0.0
C302 C 0.48664 0.50854 0.56833 0.0
C303 C 0.52267 0.55954 0.48019 0.0
C304 C 0.49497 0.4567 0.51818 0.0
C305 C 0.53118 0.50773 0.42986 0.0
H306 H 0.51228 0.57579 0.53368 0.0
H307 H 0.49264 0.54793 0.5827 0.0
H308 H 0.46433 0.46939 0.60431 0.0
H309 H 0.4693 0.44106 0.57657 0.0
H310 H 0.50753 0.44113 0.4661 0.0
H311 H 0.5275 0.46906 0.41739 0.0
H312 H 0.55079 0.54597 0.39157 0.0
H313 H 0.54596 0.57427 0.41929 0.0
H314 H 0.58453 0.52345 0.50737 0.0
H315 H 0.55335 0.5186 0.59822 0.0
H316 H 0.46263 0.49282 0.40069 0.0
H317 H 0.43623 0.49944 0.4889 0.0
H318 H 0.30366 0.47806 0.20844 0.0
H319 H 0.26074 0.4861 0.26604 0.0
H320 H 0.25322 0.48008 0.16192 0.0
H321 H 0.23437 0.49433 0.16662 0.0
H322 H 0.18234 0.48626 0.22478 0.0
H323 H 0.22696 0.47379 0.26836 0.0
C324 C 0.28959 0.4791 0.21028 0.0
C325 C 0.27936 0.47931 0.18214 0.0
C326 C 0.28264 0.48108 0.24052 0.0
C327 C 0.26514 0.48361 0.2425 0.0
C328 C 0.25361 0.48282 0.21447 0.0
C329 C 0.26123 0.48078 0.18411 0.0
C330 C 0.23378 0.48393 0.21705 0.0
C331 C 0.22599 0.48984 0.18981 0.0
C332 C 0.20743 0.49064 0.1925 0.0
C333 C 0.19667 0.48572 0.22247 0.0
C334 C 0.20402 0.48013 0.24965 0.0
C335 C 0.22225 0.47894 0.24698 0.0
H336 H 0.69709 0.17565 0.73457 0.0
H337 H 0.74848 0.22507 0.78487 0.0
H338 H 0.74266 0.2314 0.68099 0.0
H339 H 0.77703 0.25241 0.68062 0.0
H340 H 0.82246 0.30711 0.72769 0.0
H341 H 0.76722 0.25957 0.78182 0.0
C342 C 0.71151 0.19107 0.7343 0.0
C343 C 0.71936 0.20244 0.70483 0.0
C344 C 0.72165 0.19928 0.76329 0.0
C345 C 0.74033 0.21936 0.76245 0.0
C346 C 0.74867 0.23144 0.7328 0.0
C347 C 0.73747 0.22273 0.7041 0.0
C348 C 0.76913 0.25268 0.73157 0.0
C349 C 0.78159 0.26106 0.70241 0.0
C350 C 0.80053 0.28076 0.70112 0.0
C351 C 0.80757 0.29206 0.72896 0.0
C352 C 0.79571 0.28454 0.75809 0.0
C353 C 0.7765 0.26488 0.75936 0.0
H354 H 0.54066 0.70826 0.27463 0.0
H355 H 0.543 0.75793 0.21711 0.0
H356 H 0.52284 0.7472 0.31872 0.0
H357 H 0.53183 0.77968 0.31689 0.0
H358 H 0.51975 0.82019 0.25808 0.0
H359 H 0.52697 0.77456 0.21236 0.0
C360 C 0.53891 0.7217 0.27268 0.0
C361 C 0.53236 0.72733 0.29993 0.0
C362 C 0.54214 0.73235 0.24272 0.0
C363 C 0.53954 0.74955 0.24037 0.0
C364 C 0.53287 0.75577 0.26771 0.0
C365 C 0.52888 0.74394 0.29744 0.0
C366 C 0.5296 0.77402 0.26512 0.0
C367 C 0.52903 0.78413 0.29311 0.0
C368 C 0.52469 0.80023 0.2907 0.0
C369 C 0.52217 0.80717 0.26018 0.0
C370 C 0.52361 0.79829 0.23217 0.0
C371 C 0.52691 0.78159 0.23456 0.0
H372 H 0.82877 0.52082 0.78288 0.0
H373 H 0.78839 0.53533 0.83484 0.0
H374 H 0.77277 0.51181 0.73819 0.0
H375 H 0.75463 0.52699 0.73597 0.0
H376 H 0.70385 0.52287 0.79214 0.0
H377 H 0.75379 0.52122 0.84123 0.0
C378 C 0.81462 0.52172 0.78406 0.0
C379 C 0.80155 0.51621 0.75732 0.0
C380 C 0.80997 0.52853 0.81207 0.0
C381 C 0.79145 0.52949 0.81338 0.0
C382 C 0.77751 0.52357 0.78685 0.0
C383 C 0.783 0.51695 0.7588 0.0
C384 C 0.7573 0.52402 0.78838 0.0
C385 C 0.74745 0.52533 0.75959 0.0
C386 C 0.72783 0.52413 0.76094 0.0
C387 C 0.71869 0.52316 0.79101 0.0
C388 C 0.72828 0.52265 0.8197 0.0
C389 C 0.74727 0.52262 0.81856 0.0
H390 H 0.18918 0.70282 0.27495 0.0
H391 H 0.24185 0.75145 0.21792 0.0
H392 H 0.23366 0.75955 0.31924 0.0
H393 H 0.26926 0.77965 0.31649 0.0
H394 H 0.31416 0.83437 0.25928 0.0
H395 H 0.25876 0.78621 0.21441 0.0
C396 C 0.20358 0.71827 0.273 0.0
C397 C 0.21054 0.73019 0.30029 0.0
C398 C 0.2146 0.72599 0.24325 0.0
C399 C 0.23315 0.74607 0.24089 0.0
C400 C 0.2407 0.75861 0.26823 0.0
C401 C 0.22887 0.7504 0.29793 0.0
C402 C 0.26095 0.7799 0.26587 0.0
C403 C 0.27368 0.78838 0.29339 0.0
C404 C 0.29283 0.80799 0.29097 0.0
C405 C 0.29934 0.81924 0.26118 0.0
C406 C 0.28726 0.81133 0.23369 0.0
C407 C 0.26807 0.7918 0.23594 0.0
H408 H 0.48216 0.31324 0.7358 0.0
H409 H 0.47367 0.25907 0.78855 0.0
H410 H 0.49121 0.2697 0.68614 0.0
H411 H 0.47449 0.23468 0.68794 0.0
H412 H 0.48577 0.19138 0.74032 0.0
H413 H 0.49256 0.24371 0.7886 0.0
C414 C 0.48205 0.29877 0.73628 0.0
C415 C 0.48674 0.29251 0.70777 0.0
C416 C 0.47751 0.2869 0.76541 0.0
C417 C 0.47767 0.26831 0.76595 0.0
C418 C 0.48246 0.26153 0.73744 0.0
C419 C 0.48692 0.27394 0.70828 0.0
C420 C 0.48318 0.24189 0.73827 0.0
C421 C 0.47892 0.23012 0.71029 0.0
C422 C 0.48008 0.21208 0.71113 0.0
C423 C 0.48515 0.20548 0.73984 0.0
C424 C 0.48949 0.21671 0.76781 0.0
C425 C 0.48851 0.23487 0.767 0.0
H426 H 0.06911 0.51725 0.06639 0.0
H427 H 0.10075 0.51868 0.08783 0.0
H428 H 0.09154 0.47091 0.02384 0.0
H429 H 0.05947 0.46911 0.00311 0.0
H430 H 0.10093 0.46312 0.08267 0.0
H431 H 0.13129 0.52326 0.00875 0.0
H432 H 0.13591 0.55605 0.98506 0.0
H433 H 0.15718 0.58477 0.07614 0.0
H434 H 0.15244 0.55205 0.10051 0.0
H435 H 0.19665 0.4728 0.13361 0.0
H436 H 0.17311 0.47548 0.09443 0.0
H437 H 0.17286 0.52231 0.15073 0.0
H438 H 0.19666 0.52002 0.18917 0.0
H439 H 0.17018 0.53026 0.08818 0.0
H440 H 0.13694 0.47044 0.1633 0.0
H441 H 0.13074 0.43764 0.18965 0.0
H442 H 0.11355 0.40828 0.09852 0.0
H443 H 0.12 0.44107 0.07155 0.0
C444 C 0.07396 0.50714 0.05692 0.0
C445 C 0.06214 0.49327 0.03288 0.0
C446 C 0.09208 0.50803 0.06898 0.0
C447 C 0.09884 0.4952 0.05702 0.0
C448 C 0.08678 0.48108 0.03328 0.0
C449 C 0.06856 0.48011 0.02135 0.0
C450 C 0.11816 0.49616 0.06995 0.0
C451 C 0.11619 0.47773 0.0832 0.0
C452 C 0.13801 0.51528 0.0713 0.0
C453 C 0.1414 0.53516 0.05649 0.0
C454 C 0.13688 0.53654 0.02376 0.0
C455 C 0.13952 0.55512 0.01021 0.0
C456 C 0.14681 0.57247 0.02909 0.0
C457 C 0.15155 0.57131 0.06154 0.0
C458 C 0.14893 0.55277 0.07522 0.0
C459 C 0.1922 0.48421 0.13685 0.0
C460 C 0.19831 0.49607 0.16454 0.0
C461 C 0.17858 0.4856 0.11466 0.0
C462 C 0.1708 0.49877 0.12 0.0
C463 C 0.17852 0.51197 0.14608 0.0
C464 C 0.1921 0.51062 0.1681 0.0
C465 C 0.15288 0.49724 0.10114 0.0
C466 C 0.15505 0.51557 0.08696 0.0
C467 C 0.13313 0.47804 0.09916 0.0
C468 C 0.12918 0.45828 0.11536 0.0
C469 C 0.13196 0.45703 0.14886 0.0
C470 C 0.1284 0.43844 0.1639 0.0
C471 C 0.12179 0.42089 0.14575 0.0
C472 C 0.11871 0.4219 0.11254 0.0
C473 C 0.12233 0.44049 0.09736 0.0
H474 H 0.11902 0.4065 0.15744 0.0
H475 H 0.1488 0.58683 0.01857 0.0
H476 H 0.59348 0.05006 0.53481 0.0
H477 H 0.62455 0.07989 0.55855 0.0
H478 H 0.59258 0.11407 0.55534 0.0
H479 H 0.56154 0.08418 0.53144 0.0
H480 H 0.63604 0.13968 0.53961 0.0
H481 H 0.59093 0.08929 0.62339 0.0
H482 H 0.57003 0.05405 0.65019 0.0
H483 H 0.62671 0.05189 0.659 0.0
H484 H 0.64791 0.08701 0.63175 0.0
H485 H 0.69217 0.20871 0.66858 0.0
H486 H 0.6673 0.185 0.62893 0.0
H487 H 0.6963 0.14812 0.63672 0.0
H488 H 0.72082 0.17161 0.67652 0.0
H489 H 0.6546 0.12448 0.6483 0.0
H490 H 0.70016 0.17603 0.5663 0.0
H491 H 0.72063 0.21121 0.53924 0.0
H492 H 0.66316 0.21166 0.52769 0.0
H493 H 0.64236 0.17657 0.5551 0.0
C494 C 0.5933 0.06408 0.53885 0.0
C495 C 0.57521 0.0649 0.53174 0.0
C496 C 0.61097 0.08107 0.55238 0.0
C497 C 0.61078 0.09912 0.55906 0.0
C498 C 0.59307 0.10032 0.55039 0.0
C499 C 0.57537 0.08328 0.5369 0.0
C500 C 0.62829 0.11597 0.57737 0.0
C501 C 0.64002 0.13645 0.5635 0.0
C502 C 0.63362 0.11168 0.60838 0.0
C503 C 0.62097 0.09069 0.62524 0.0
C504 C 0.59892 0.08125 0.63085 0.0
C505 C 0.58702 0.06131 0.64615 0.0
C506 C 0.59703 0.05072 0.65623 0.0
C507 C 0.61898 0.0601 0.65113 0.0
C508 C 0.63094 0.08003 0.63578 0.0
C509 C 0.69366 0.19598 0.66081 0.0
C510 C 0.70849 0.19205 0.67514 0.0
C511 C 0.67943 0.18239 0.63829 0.0
C512 C 0.6799 0.16472 0.62984 0.0
C513 C 0.69559 0.16158 0.64286 0.0
C514 C 0.70971 0.17509 0.66535 0.0
C515 C 0.66272 0.14827 0.61043 0.0
C516 C 0.65084 0.12779 0.62429 0.0
C517 C 0.65728 0.15265 0.57955 0.0
C518 C 0.66973 0.17375 0.56305 0.0
C519 C 0.6919 0.1837 0.55825 0.0
C520 C 0.70356 0.20361 0.54279 0.0
C521 C 0.69321 0.21369 0.53183 0.0
C522 C 0.67116 0.20384 0.53623 0.0
C523 C 0.65943 0.18393 0.5517 0.0
H524 H 0.70226 0.2291 0.51986 0.0
H525 H 0.58779 0.03527 0.66804 0.0
H526 H 0.50619 0.59242 0.04376 0.0
H527 H 0.51157 0.62321 0.07024 0.0
H528 H 0.56126 0.62475 0.12695 0.0
H529 H 0.55603 0.59402 0.10051 0.0
H530 H 0.53455 0.6289 0.16443 0.0
H531 H 0.57242 0.66058 0.06329 0.0
H532 H 0.57695 0.66523 0.00381 0.0
H533 H 0.52679 0.67793 0.99851 0.0
H534 H 0.52176 0.67307 0.05796 0.0
H535 H 0.57342 0.72398 0.23474 0.0
H536 H 0.57368 0.70028 0.19634 0.0
H537 H 0.51989 0.69631 0.14873 0.0
H538 H 0.51965 0.72018 0.18719 0.0
H539 H 0.54843 0.69394 0.10563 0.0
H540 H 0.51041 0.66209 0.20642 0.0
H541 H 0.50604 0.65798 0.26593 0.0
H542 H 0.55604 0.64511 0.27185 0.0
H543 H 0.56108 0.64965 0.21237 0.0
C544 C 0.5185 0.59949 0.0615 0.0
C545 C 0.53068 0.5907 0.06997 0.0
C546 C 0.52154 0.61711 0.07668 0.0
C547 C 0.53695 0.62645 0.10046 0.0
C548 C 0.54924 0.61782 0.10876 0.0
C549 C 0.54618 0.60018 0.09366 0.0
C550 C 0.53976 0.64475 0.11757 0.0
C551 C 0.53791 0.64322 0.15154 0.0
C552 C 0.54353 0.66326 0.10079 0.0
C553 C 0.54657 0.66626 0.06506 0.0
C554 C 0.56224 0.6642 0.04942 0.0
C555 C 0.56492 0.66691 0.01572 0.0
C556 C 0.55213 0.67182 0.99739 0.0
C557 C 0.53667 0.67409 0.01274 0.0
C558 C 0.53391 0.67139 0.04644 0.0
C559 C 0.56213 0.71863 0.21537 0.0
C560 C 0.54642 0.72377 0.21403 0.0
C561 C 0.56222 0.70501 0.19356 0.0
C562 C 0.5465 0.69616 0.17016 0.0
C563 C 0.5321 0.7029 0.16671 0.0
C564 C 0.53204 0.71661 0.18855 0.0
C565 C 0.54353 0.67811 0.15235 0.0
C566 C 0.54518 0.67963 0.1184 0.0
C567 C 0.53951 0.65951 0.16911 0.0
C568 C 0.53628 0.65644 0.20491 0.0
C569 C 0.52061 0.65856 0.2204 0.0
C570 C 0.518 0.65615 0.25415 0.0
C571 C 0.53078 0.65133 0.27267 0.0
C572 C 0.54618 0.64888 0.25747 0.0
C573 C 0.54893 0.65139 0.22374 0.0
H574 H 0.52872 0.64944 0.29879 0.0
H575 H 0.55422 0.6739 0.97129 0.0
H576 H 0.93101 0.5328 0.53205 0.0
H577 H 0.90088 0.53143 0.55967 0.0
H578 H 0.89859 0.4871 0.63173 0.0
H579 H 0.92853 0.48827 0.60411 0.0
H580 H 0.85854 0.47614 0.61166 0.0
H581 H 0.92196 0.53744 0.64813 0.0
H582 H 0.95581 0.57144 0.64101 0.0
H583 H 0.9233 0.59801 0.5932 0.0
H584 H 0.88928 0.56405 0.59965 0.0
H585 H 0.81136 0.48634 0.75236 0.0
H586 H 0.83138 0.48329 0.70827 0.0
H587 H 0.82844 0.53114 0.65168 0.0
H588 H 0.80856 0.53443 0.69632 0.0
H589 H 0.86838 0.54075 0.65608 0.0
H590 H 0.80377 0.48042 0.62703 0.0
H591 H 0.77001 0.44644 0.63495 0.0
H592 H 0.80413 0.41784 0.66867 0.0
H593 H 0.83809 0.45172 0.66144 0.0
C594 C 0.92397 0.52266 0.55365 0.0
C595 C 0.93226 0.51079 0.56608 0.0
C596 C 0.90682 0.52195 0.56947 0.0
C597 C 0.89758 0.50928 0.59791 0.0
C598 C 0.90549 0.49702 0.60987 0.0
C599 C 0.92272 0.49785 0.59424 0.0
C600 C 0.88012 0.50923 0.61589 0.0
C601 C 0.86067 0.49022 0.62154 0.0
C602 C 0.8827 0.52773 0.62789 0.0
C603 C 0.90313 0.54815 0.624 0.0
C604 C 0.92206 0.55048 0.63583 0.0
C605 C 0.94127 0.56976 0.63197 0.0
C606 C 0.94172 0.58686 0.61656 0.0
C607 C 0.92294 0.58474 0.60506 0.0
C608 C 0.90369 0.56548 0.60882 0.0
C609 C 0.81442 0.49574 0.7301 0.0
C610 C 0.80843 0.51061 0.7277 0.0
C611 C 0.82583 0.49396 0.70484 0.0
C612 C 0.83143 0.50695 0.67652 0.0
C613 C 0.8243 0.52094 0.67326 0.0
C614 C 0.81277 0.52267 0.6986 0.0
C615 C 0.84676 0.50754 0.65243 0.0
C616 C 0.86594 0.52668 0.64569 0.0
C617 C 0.8439 0.48914 0.63945 0.0
C618 C 0.8235 0.46869 0.64389 0.0
C619 C 0.80408 0.46694 0.63639 0.0
C620 C 0.7849 0.44767 0.64071 0.0
C621 C 0.78492 0.43 0.65236 0.0
C622 C 0.80413 0.43155 0.65966 0.0
C623 C 0.82336 0.45078 0.65541 0.0
H624 H 0.77005 0.4151 0.65568 0.0
H625 H 0.9566 0.60177 0.6136 0.0
H626 H 0.44363 0.93453 0.04663 0.0
H627 H 0.41123 0.90501 0.07306 0.0
H628 H 0.39037 0.94675 0.09693 0.0
H629 H 0.42254 0.97616 0.06981 0.0
H630 H 0.38891 0.92047 0.14998 0.0
H631 H 0.36664 0.91506 0.03932 0.0
H632 H 0.37014 0.91234 0.98069 0.0
H633 H 0.36774 0.85457 0.9987 0.0
H634 H 0.36461 0.85712 0.05752 0.0
H635 H 0.28946 0.84749 0.21631 0.0
H636 H 0.3145 0.87413 0.17618 0.0
H637 H 0.33198 0.83126 0.1442 0.0
H638 H 0.30657 0.80444 0.18406 0.0
H639 H 0.33479 0.85786 0.09395 0.0
H640 H 0.35913 0.86264 0.20178 0.0
H641 H 0.35795 0.86439 0.26113 0.0
H642 H 0.35943 0.92207 0.24974 0.0
H643 H 0.36021 0.92046 0.19027 0.0
C644 C 0.432 0.93728 0.05733 0.0
C645 C 0.43558 0.95756 0.05657 0.0
C646 C 0.41354 0.92047 0.07236 0.0
C647 C 0.3984 0.9237 0.08696 0.0
C648 C 0.40188 0.94394 0.08591 0.0
C649 C 0.4202 0.96069 0.0705 0.0
C650 C 0.37923 0.90607 0.10417 0.0
C651 C 0.37688 0.90695 0.13764 0.0
C652 C 0.36398 0.88808 0.08825 0.0
C653 C 0.36558 0.88639 0.05286 0.0
C654 C 0.36703 0.90186 0.03081 0.0
C655 C 0.36892 0.90034 0.99753 0.0
C656 C 0.36921 0.88332 0.98598 0.0
C657 C 0.36754 0.86775 0.00768 0.0
C658 C 0.36569 0.86922 0.041 0.0
C659 C 0.29791 0.84347 0.19962 0.0
C660 C 0.29599 0.82392 0.20293 0.0
C661 C 0.31239 0.85875 0.17698 0.0
C662 C 0.32547 0.85484 0.15769 0.0
C663 C 0.32211 0.83464 0.15886 0.0
C664 C 0.30749 0.81927 0.18145 0.0
C665 C 0.34427 0.87245 0.13968 0.0
C666 C 0.34669 0.87149 0.10622 0.0
C667 C 0.35988 0.89023 0.15571 0.0
C668 C 0.35948 0.89131 0.19152 0.0
C669 C 0.35901 0.87561 0.21191 0.0
C670 C 0.35844 0.87658 0.24558 0.0
C671 C 0.35856 0.8933 0.25919 0.0
C672 C 0.35929 0.9091 0.23915 0.0
C673 C 0.3598 0.90817 0.20546 0.0
H674 H 0.35814 0.89405 0.28526 0.0
H675 H 0.37068 0.88217 0.96021 0.0
H676 H 0.46845 0.4159 0.50368 0.0
H677 H 0.46819 0.38515 0.52696 0.0
H678 H 0.52166 0.42538 0.58533 0.0
H679 H 0.52196 0.45603 0.56179 0.0
H680 H 0.52615 0.39504 0.55962 0.0
H681 H 0.47185 0.39937 0.61689 0.0
H682 H 0.43958 0.40114 0.62129 0.0
H683 H 0.40292 0.34158 0.57856 0.0
H684 H 0.4351 0.33964 0.57338 0.0
H685 H 0.51888 0.33283 0.69751 0.0
H686 H 0.52149 0.35776 0.65518 0.0
H687 H 0.46672 0.30796 0.6095 0.0
H688 H 0.46406 0.2829 0.65232 0.0
H689 H 0.46154 0.3399 0.6208 0.0
H690 H 0.51575 0.33369 0.5708 0.0
H691 H 0.54833 0.3324 0.56763 0.0
H692 H 0.58545 0.39551 0.59788 0.0
H693 H 0.55305 0.39709 0.60171 0.0
C694 C 0.48018 0.41805 0.52131 0.0
C695 C 0.49522 0.43814 0.53108 0.0
C696 C 0.48003 0.40056 0.53461 0.0
C697 C 0.49484 0.40295 0.55804 0.0
C698 C 0.51015 0.42316 0.56724 0.0
C699 C 0.51027 0.44061 0.55397 0.0
C700 C 0.49388 0.38442 0.57413 0.0
C701 C 0.51207 0.38301 0.57312 0.0
C702 C 0.47531 0.36842 0.59101 0.0
C703 C 0.45593 0.36948 0.59439 0.0
C704 C 0.45695 0.38673 0.60819 0.0
C705 C 0.43867 0.38776 0.61085 0.0
C706 C 0.41922 0.37151 0.60013 0.0
C707 C 0.41801 0.35418 0.58679 0.0
C708 C 0.43626 0.35311 0.58398 0.0
C709 C 0.50786 0.32711 0.67779 0.0
C710 C 0.49137 0.30598 0.67794 0.0
C711 C 0.50934 0.34136 0.65359 0.0
C712 C 0.49435 0.33476 0.62901 0.0
C713 C 0.4785 0.31339 0.62816 0.0
C714 C 0.4771 0.29906 0.65238 0.0
C715 C 0.49395 0.35062 0.60676 0.0
C716 C 0.47551 0.35163 0.60674 0.0
C717 C 0.51233 0.36628 0.58908 0.0
C718 C 0.53191 0.36545 0.58672 0.0
C719 C 0.53083 0.34724 0.57701 0.0
C720 C 0.54928 0.34647 0.57505 0.0
C721 C 0.56895 0.36385 0.58259 0.0
C722 C 0.57021 0.38206 0.59205 0.0
C723 C 0.5518 0.38291 0.59406 0.0
H724 H 0.58321 0.36322 0.58107 0.0
H725 H 0.40509 0.37232 0.60223 0.0
H726 H 0.49579 0.93071 0.41237 0.0
H727 H 0.49804 0.90167 0.39269 0.0
H728 H 0.54939 0.91642 0.45722 0.0
H729 H 0.54696 0.94536 0.47746 0.0
H730 H 0.55545 0.90933 0.3883 0.0
H731 H 0.50657 0.87709 0.47985 0.0
H732 H 0.47507 0.8688 0.51302 0.0
H733 H 0.43461 0.83866 0.43334 0.0
H734 H 0.46593 0.84705 0.39952 0.0
H735 H 0.55401 0.81981 0.33788 0.0
H736 H 0.55435 0.84397 0.37647 0.0
H737 H 0.49268 0.82944 0.34428 0.0
H738 H 0.49207 0.80501 0.30684 0.0
H739 H 0.49468 0.83608 0.40519 0.0
H740 H 0.54056 0.87194 0.31147 0.0
H741 H 0.57039 0.88181 0.27318 0.0
H742 H 0.6145 0.90649 0.35052 0.0
H743 H 0.58486 0.89651 0.38937 0.0
C744 C 0.50764 0.92784 0.42222 0.0
C745 C 0.52123 0.9403 0.44639 0.0
C746 C 0.50884 0.9112 0.4111 0.0
C747 C 0.52382 0.90686 0.42361 0.0
C748 C 0.5377 0.9195 0.44732 0.0
C749 C 0.53625 0.93594 0.45891 0.0
C750 C 0.5248 0.88904 0.41177 0.0
C751 C 0.54241 0.89325 0.39257 0.0
C752 C 0.50752 0.86816 0.41667 0.0
C753 C 0.48862 0.86283 0.43709 0.0
C754 C 0.49098 0.86883 0.46932 0.0
C755 C 0.47315 0.86409 0.48826 0.0
C756 C 0.45285 0.85324 0.47528 0.0
C757 C 0.45034 0.84707 0.44336 0.0
C758 C 0.46812 0.85179 0.42432 0.0
C759 C 0.54026 0.82129 0.33997 0.0
C760 C 0.52308 0.81068 0.31928 0.0
C761 C 0.54055 0.83528 0.36169 0.0
C762 C 0.52375 0.83895 0.36279 0.0
C763 C 0.50589 0.82704 0.3439 0.0
C764 C 0.50556 0.81307 0.32244 0.0
C765 C 0.52523 0.8563 0.38114 0.0
C766 C 0.50801 0.85207 0.40148 0.0
C767 C 0.54266 0.87724 0.37663 0.0
C768 C 0.56049 0.88323 0.35338 0.0
C769 C 0.55661 0.87933 0.32035 0.0
C770 C 0.57348 0.88496 0.29854 0.0
C771 C 0.59432 0.8947 0.30943 0.0
C772 C 0.59834 0.89888 0.34214 0.0
C773 C 0.58152 0.89325 0.36406 0.0
H774 H 0.60737 0.89906 0.29252 0.0
H775 H 0.43907 0.8496 0.48997 0.0
H776 H 0.59868 0.55241 0.97302 0.0
H777 H 0.63014 0.55332 0.95138 0.0
H778 H 0.59485 0.48582 0.95445 0.0
H779 H 0.56336 0.48498 0.97597 0.0
H780 H 0.63583 0.50221 0.97549 0.0
H781 H 0.60121 0.51172 0.8851 0.0
H782 H 0.58498 0.52765 0.85259 0.0
H783 H 0.64468 0.58647 0.84732 0.0
H784 H 0.66117 0.57099 0.8804 0.0
H785 H 0.69749 0.48859 0.85467 0.0
H786 H 0.6715 0.48826 0.89205 0.0
H787 H 0.70759 0.55576 0.88752 0.0
H788 H 0.73349 0.55601 0.85014 0.0
H789 H 0.66689 0.53964 0.86924 0.0
H790 H 0.70171 0.52852 0.95848 0.0
H791 H 0.71709 0.5111 0.98937 0.0
H792 H 0.6562 0.45353 0.99418 0.0
H793 H 0.64051 0.47052 0.96291 0.0
C794 C 0.59776 0.53783 0.96909 0.0
C795 C 0.57866 0.51864 0.97569 0.0
C796 C 0.61566 0.53833 0.95677 0.0
C797 C 0.6148 0.51964 0.95099 0.0
C798 C 0.59589 0.50043 0.9587 0.0
C799 C 0.57794 0.49994 0.97085 0.0
C800 C 0.63335 0.52018 0.93575 0.0
C801 C 0.64253 0.51024 0.95213 0.0
C802 C 0.64225 0.53086 0.90544 0.0
C803 C 0.63236 0.54026 0.88564 0.0
C804 C 0.61083 0.52811 0.87734 0.0
C805 C 0.60159 0.53705 0.85875 0.0
C806 C 0.61377 0.55808 0.84798 0.0
C807 C 0.63524 0.5702 0.85575 0.0
C808 C 0.64454 0.56135 0.87444 0.0
C809 C 0.70039 0.50329 0.86305 0.0
C810 C 0.71768 0.52232 0.85021 0.0
C811 C 0.68546 0.50312 0.88418 0.0
C812 C 0.68756 0.522 0.89258 0.0
C813 C 0.70566 0.54102 0.88145 0.0
C814 C 0.7206 0.54117 0.86046 0.0
C815 C 0.66964 0.52194 0.90915 0.0
C816 C 0.6604 0.53183 0.8928 0.0
C817 C 0.6606 0.51102 0.93926 0.0
C818 C 0.66998 0.50076 0.95809 0.0
C819 C 0.69164 0.51209 0.96588 0.0
C820 C 0.7004 0.50231 0.98351 0.0
C821 C 0.68764 0.48121 0.99366 0.0
C822 C 0.66607 0.46987 0.98627 0.0
C823 C 0.65722 0.47958 0.96862 0.0
H824 H 0.69446 0.47366 0.00732 0.0
H825 H 0.6066 0.56497 0.83355 0.0
H826 H 0.04389 0.59478 0.4657 0.0
H827 H 0.07401 0.62835 0.44358 0.0
H828 H 0.11382 0.60228 0.44496 0.0
H829 H 0.08362 0.56867 0.46675 0.0
H830 H 0.13492 0.6436 0.46548 0.0
H831 H 0.09224 0.60391 0.37715 0.0
H832 H 0.05877 0.58388 0.34794 0.0
H833 H 0.05285 0.63765 0.34135 0.0
H834 H 0.08611 0.65789 0.37111 0.0
H835 H 0.21423 0.70416 0.34295 0.0
H836 H 0.18697 0.67934 0.38246 0.0
H837 H 0.1503 0.70796 0.36368 0.0
H838 H 0.17754 0.73255 0.32358 0.0
H839 H 0.12678 0.66772 0.35599 0.0
H840 H 0.1718 0.70881 0.43955 0.0
H841 H 0.20511 0.72859 0.46919 0.0
H842 H 0.20699 0.67289 0.48496 0.0
H843 H 0.17384 0.65281 0.45501 0.0
C844 C 0.05913 0.59635 0.46137 0.0
C845 C 0.06148 0.5792 0.46741 0.0
C846 C 0.0763 0.61547 0.44885 0.0
C847 C 0.09612 0.61777 0.44239 0.0
C848 C 0.09869 0.60087 0.44979 0.0
C849 C 0.08148 0.5817 0.46207 0.0
C850 C 0.11375 0.63729 0.42597 0.0
C851 C 0.13325 0.64887 0.44147 0.0
C852 C 0.11136 0.6444 0.39497 0.0
C853 C 0.09153 0.63234 0.37668 0.0
C854 C 0.08371 0.61141 0.36971 0.0
C855 C 0.06479 0.60003 0.35302 0.0
C856 C 0.05366 0.60947 0.34287 0.0
C857 C 0.06147 0.63034 0.34929 0.0
C858 C 0.08035 0.64178 0.36607 0.0
C859 C 0.20081 0.70571 0.34842 0.0
C860 C 0.19814 0.72049 0.33085 0.0
C861 C 0.18515 0.69147 0.37091 0.0
C862 C 0.16652 0.69176 0.37627 0.0
C863 C 0.16451 0.70742 0.36008 0.0
C864 C 0.18017 0.72164 0.3375 0.0
C865 C 0.14819 0.67422 0.39538 0.0
C866 C 0.12849 0.66282 0.38026 0.0
C867 C 0.15045 0.66733 0.42671 0.0
C868 C 0.17039 0.67933 0.44481 0.0
C869 C 0.17939 0.7008 0.44912 0.0
C870 C 0.19824 0.71207 0.46602 0.0
C871 C 0.20819 0.70201 0.4789 0.0
C872 C 0.19928 0.68066 0.47496 0.0
C873 C 0.18044 0.66932 0.45806 0.0
H874 H 0.22278 0.71076 0.49197 0.0
H875 H 0.03902 0.60063 0.32995 0.0
H876 H 0.52483 0.09334 0.91713 0.0
H877 H 0.525 0.12377 0.8936 0.0
H878 H 0.47672 0.11359 0.96365 0.0
H879 H 0.47642 0.08297 0.98723 0.0
H880 H 0.46667 0.11941 0.90287 0.0
H881 H 0.52631 0.15403 0.96935 0.0
H882 H 0.56073 0.16433 0.99357 0.0
H883 H 0.5923 0.18803 0.90051 0.0
H884 H 0.55799 0.17735 0.8755 0.0
H885 H 0.47103 0.20843 0.82855 0.0
H886 H 0.47482 0.18823 0.87346 0.0
H887 H 0.52305 0.18621 0.81776 0.0
H888 H 0.51957 0.20656 0.77344 0.0
H889 H 0.53196 0.18939 0.88153 0.0
H890 H 0.47049 0.14898 0.81493 0.0
H891 H 0.43614 0.14016 0.79177 0.0
H892 H 0.40807 0.12794 0.88739 0.0
H893 H 0.44242 0.13726 0.91116 0.0
C894 C 0.51425 0.09759 0.92751 0.0
C895 C 0.5005 0.08569 0.95389 0.0
C896 C 0.51451 0.11511 0.91426 0.0
C897 C 0.50099 0.12109 0.92702 0.0
C898 C 0.48735 0.10933 0.95351 0.0
C899 C 0.48724 0.09189 0.96702 0.0
C900 C 0.50027 0.13883 0.91129 0.0
C901 C 0.48088 0.13485 0.89883 0.0
C902 C 0.51884 0.15894 0.90575 0.0
C903 C 0.53947 0.16473 0.92048 0.0
C904 C 0.54052 0.16118 0.95393 0.0
C905 C 0.56005 0.16715 0.96783 0.0
C906 C 0.5787 0.1769 0.94862 0.0
C907 C 0.57785 0.18059 0.9154 0.0
C908 C 0.55835 0.1745 0.90133 0.0
C909 C 0.4829 0.20422 0.82644 0.0
C910 C 0.49487 0.20885 0.79748 0.0
C911 C 0.48495 0.19257 0.85195 0.0
C912 C 0.49896 0.18538 0.84873 0.0
C913 C 0.5121 0.1915 0.82081 0.0
C914 C 0.51004 0.20306 0.79543 0.0
C915 C 0.49856 0.16973 0.87237 0.0
C916 C 0.51772 0.17406 0.88619 0.0
C917 C 0.4798 0.14994 0.87921 0.0
C918 C 0.4591 0.14407 0.86483 0.0
C919 C 0.45704 0.14457 0.83102 0.0
C920 C 0.43758 0.13949 0.81779 0.0
C921 C 0.41995 0.13351 0.83809 0.0
C922 C 0.42175 0.13261 0.87169 0.0
C923 C 0.44123 0.13784 0.88506 0.0
H924 H 0.40489 0.12954 0.8278 0.0
H925 H 0.5938 0.18152 0.95943 0.0
H926 H 0.42962 0.52022 0.44722 0.0
H927 H 0.40024 0.51808 0.41678 0.0
H928 H 0.394 0.46638 0.36581 0.0
H929 H 0.42359 0.46867 0.39587 0.0
H930 H 0.39195 0.49254 0.32481 0.0
H931 H 0.35843 0.45992 0.42806 0.0
H932 H 0.35385 0.45742 0.48752 0.0
H933 H 0.34715 0.51073 0.48318 0.0
H934 H 0.35198 0.51372 0.42369 0.0
H935 H 0.292 0.4518 0.25797 0.0
H936 H 0.3185 0.45511 0.2965 0.0
H937 H 0.32745 0.5134 0.32603 0.0
H938 H 0.3009 0.51024 0.28692 0.0
H939 H 0.32857 0.48641 0.37816 0.0
H940 H 0.36017 0.51701 0.27305 0.0
H941 H 0.36397 0.51796 0.21361 0.0
H942 H 0.37371 0.4666 0.22163 0.0
H943 H 0.36949 0.46501 0.28111 0.0
C944 C 0.42184 0.50826 0.42974 0.0
C945 C 0.42888 0.49455 0.42406 0.0
C946 C 0.40502 0.50705 0.41235 0.0
C947 C 0.39466 0.49189 0.38924 0.0
C948 C 0.40172 0.47823 0.38348 0.0
C949 C 0.41866 0.47956 0.40064 0.0
C950 C 0.37676 0.49048 0.37052 0.0
C951 C 0.378 0.49096 0.33656 0.0
C952 C 0.35875 0.48897 0.38571 0.0
C953 C 0.35579 0.48718 0.42146 0.0
C954 C 0.35615 0.47121 0.43981 0.0
C955 C 0.35348 0.46969 0.47351 0.0
C956 C 0.35027 0.48394 0.48912 0.0
C957 C 0.34967 0.49972 0.47105 0.0
C958 C 0.35236 0.50133 0.43734 0.0
C959 C 0.29927 0.4651 0.27319 0.0
C960 C 0.29456 0.48087 0.26928 0.0
C961 C 0.31444 0.467 0.2951 0.0
C962 C 0.32522 0.48469 0.31363 0.0
C963 C 0.31935 0.49967 0.31178 0.0
C964 C 0.30413 0.49781 0.28963 0.0
C965 C 0.34372 0.48813 0.33268 0.0
C966 C 0.3426 0.4881 0.36655 0.0
C967 C 0.3618 0.48986 0.31744 0.0
C968 C 0.36428 0.49075 0.28159 0.0
C969 C 0.36288 0.50576 0.26215 0.0
C970 C 0.36515 0.50643 0.22844 0.0
C971 C 0.36903 0.49231 0.21387 0.0
C972 C 0.37066 0.4775 0.23297 0.0
C973 C 0.36833 0.4767 0.26668 0.0
H974 H 0.37081 0.49287 0.1878 0.0
H975 H 0.3482 0.48273 0.51522 0.0
H976 H 0.93524 0.44169 0.89262 0.0
H977 H 0.90546 0.4123 0.86686 0.0
H978 H 0.89623 0.3718 0.95037 0.0
H979 H 0.92671 0.40101 0.97589 0.0
H980 H 0.89269 0.35301 0.89286 0.0
H981 H 0.86461 0.39208 0.93917 0.0
H982 H 0.86603 0.42507 0.947 0.0
H983 H 0.85925 0.43194 0.84486 0.0
H984 H 0.85821 0.39923 0.83632 0.0
H985 H 0.80007 0.27317 0.82049 0.0
H986 H 0.8214 0.29697 0.86274 0.0
H987 H 0.83318 0.34974 0.80049 0.0
H988 H 0.81087 0.32611 0.75973 0.0
H989 H 0.83246 0.35964 0.8567 0.0
H990 H 0.86782 0.32887 0.80607 0.0
H991 H 0.87209 0.30001 0.79042 0.0
H992 H 0.86979 0.28118 0.89063 0.0
H993 H 0.86524 0.30981 0.90684 0.0
C994 C 0.92715 0.42649 0.9054 0.0
C995 C 0.93341 0.4238 0.93645 0.0
C996 C 0.90993 0.40972 0.89075 0.0
C997 C 0.89833 0.38992 0.90694 0.0
C998 C 0.90482 0.38699 0.93755 0.0
C999 C 0.92215 0.40376 0.95221 0.0
C1000 C 0.87934 0.37241 0.8919 0.0
C1001 C 0.87929 0.35424 0.8855 0.0
C1002 C 0.86211 0.37424 0.8816 0.0
C1003 C 0.86143 0.39324 0.8871 0.0
C1004 C 0.86342 0.40063 0.91839 0.0
C1005 C 0.8642 0.41931 0.92294 0.0
C1006 C 0.86279 0.43062 0.89641 0.0
C1007 C 0.86036 0.42317 0.86536 0.0
C1008 C 0.85965 0.40455 0.86066 0.0
C1009 C 0.80663 0.2898 0.81642 0.0
C1010 C 0.80415 0.29781 0.78655 0.0
C1011 C 0.81911 0.30345 0.84035 0.0
C1012 C 0.82959 0.3253 0.8345 0.0
C1013 C 0.82554 0.33304 0.80573 0.0
C1014 C 0.81285 0.31949 0.78224 0.0
C1015 C 0.84603 0.34036 0.8566 0.0
C1016 C 0.8456 0.35811 0.86454 0.0
C1017 C 0.86321 0.33848 0.86731 0.0
C1018 C 0.86591 0.32128 0.85763 0.0
C1019 C 0.86808 0.31848 0.82474 0.0
C1020 C 0.87056 0.30218 0.81578 0.0
C1021 C 0.87113 0.28872 0.83952 0.0
C1022 C 0.86928 0.29158 0.87227 0.0
C1023 C 0.86675 0.30783 0.88136 0.0
H1024 H 0.87307 0.27612 0.83253 0.0
H1025 H 0.86364 0.4452 0.89984 0.0
H1026 H 0.95832 0.5484 0.00558 0.0
H1027 H 0.9289 0.55258 0.98829 0.0
H1028 H 0.90759 0.50116 0.92549 0.0
H1029 H 0.93669 0.4968 0.94336 0.0
H1030 H 0.92014 0.56315 0.93385 0.0
H1031 H 0.8525 0.47438 0.91842 0.0
H1032 H 0.83899 0.44023 0.94737 0.0
H1033 H 0.87118 0.47099 0.03284 0.0
H1034 H 0.88399 0.50531 0.00511 0.0
H1035 H 0.85329 0.55244 0.80925 0.0
H1036 H 0.87759 0.55412 0.85 0.0
H1037 H 0.82502 0.51972 0.91889 0.0
H1038 H 0.80022 0.51663 0.8768 0.0
H1039 H 0.84625 0.50317 0.92315 0.0
H1040 H 0.86817 0.5735 0.92756 0.0
H1041 H 0.87878 0.60931 0.90892 0.0
H1042 H 0.9348 0.61778 0.86187 0.0
H1043 H 0.9244 0.58191 0.8798 0.0
C1044 C 0.94716 0.53792 0.98834 0.0
C1045 C 0.94956 0.5222 0.9759 0.0
C1046 C 0.93043 0.54033 0.97838 0.0
C1047 C 0.9158 0.52705 0.95582 0.0
C1048 C 0.91833 0.51136 0.94338 0.0
C1049 C 0.93501 0.50893 0.9534 0.0
C1050 C 0.89852 0.53011 0.94395 0.0
C1051 C 0.90395 0.55004 0.93166 0.0
C1052 C 0.87707 0.51327 0.94262 0.0
C1053 C 0.86951 0.49255 0.95941 0.0
C1054 C 0.85663 0.47392 0.94344 0.0
C1055 C 0.84904 0.4545 0.95969 0.0
C1056 C 0.85442 0.45345 0.99178 0.0
C1057 C 0.86716 0.47182 0.00788 0.0
C1058 C 0.87454 0.49128 0.99194 0.0
C1059 C 0.84687 0.54546 0.83322 0.0
C1060 C 0.82476 0.53409 0.83959 0.0
C1061 C 0.8609 0.54668 0.8568 0.0
C1062 C 0.85335 0.53719 0.8879 0.0
C1063 C 0.83135 0.52712 0.89511 0.0
C1064 C 0.81717 0.52556 0.87116 0.0
C1065 C 0.86821 0.53593 0.91109 0.0
C1066 C 0.86235 0.51634 0.92566 0.0
C1067 C 0.889 0.55328 0.91588 0.0
C1068 C 0.89544 0.57493 0.90497 0.0
C1069 C 0.88269 0.58294 0.91307 0.0
C1070 C 0.88868 0.60327 0.90265 0.0
C1071 C 0.90744 0.61581 0.8842 0.0
C1072 C 0.92028 0.60805 0.87618 0.0
C1073 C 0.91436 0.58773 0.88653 0.0
H1074 H 0.91205 0.63154 0.87615 0.0
H1075 H 0.84862 0.43839 0.00422 0.0
H1076 H 0.45661 0.94266 0.43533 0.0
H1077 H 0.42762 0.91214 0.40962 0.0
H1078 H 0.38154 0.92014 0.4604 0.0
H1079 H 0.41068 0.95069 0.48628 0.0
H1080 H 0.36865 0.87836 0.4583 0.0
H1081 H 0.3949 0.93794 0.38465 0.0
H1082 H 0.42206 0.96915 0.35249 0.0
H1083 H 0.43786 0.93116 0.29931 0.0
H1084 H 0.41109 0.89975 0.33164 0.0
H1085 H 0.28361 0.82012 0.34687 0.0
H1086 H 0.30962 0.84424 0.38498 0.0
H1087 H 0.35959 0.84225 0.33444 0.0
H1088 H 0.33375 0.81854 0.29628 0.0
H1089 H 0.36928 0.88122 0.33816 0.0
H1090 H 0.34297 0.82147 0.41294 0.0
H1091 H 0.31552 0.7905 0.44528 0.0
H1092 H 0.29888 0.82889 0.49548 0.0
H1093 H 0.32604 0.86007 0.46312 0.0
C1094 C 0.44025 0.93769 0.44118 0.0
C1095 C 0.43572 0.94884 0.4627 0.0
C1096 C 0.42374 0.92034 0.42651 0.0
C1097 C 0.4024 0.91397 0.43286 0.0
C1098 C 0.39786 0.92475 0.45521 0.0
C1099 C 0.41443 0.94215 0.46989 0.0
C1100 C 0.38503 0.89681 0.4148 0.0
C1101 C 0.36862 0.87905 0.43203 0.0
C1102 C 0.38511 0.89764 0.38051 0.0
C1103 C 0.40114 0.9165 0.36085 0.0
C1104 C 0.4043 0.93625 0.36631 0.0
C1105 C 0.41961 0.95399 0.34802 0.0
C1106 C 0.43172 0.95215 0.32393 0.0
C1107 C 0.4285 0.93257 0.31803 0.0
C1108 C 0.41326 0.91479 0.33634 0.0
C1109 C 0.30001 0.82426 0.34477 0.0
C1110 C 0.30672 0.81744 0.31885 0.0
C1111 C 0.31489 0.83811 0.36641 0.0
C1112 C 0.33662 0.84515 0.36251 0.0
C1113 C 0.34297 0.83714 0.33787 0.0
C1114 C 0.32819 0.82347 0.31626 0.0
C1115 C 0.3531 0.86244 0.38156 0.0
C1116 C 0.3693 0.88041 0.36444 0.0
C1117 C 0.3527 0.86179 0.41586 0.0
C1118 C 0.33639 0.84307 0.43536 0.0
C1119 C 0.33333 0.82328 0.43068 0.0
C1120 C 0.31785 0.8057 0.44906 0.0
C1121 C 0.30542 0.80772 0.47236 0.0
C1122 C 0.30849 0.82734 0.47739 0.0
C1123 C 0.32394 0.84498 0.45906 0.0
H1124 H 0.29345 0.79408 0.48656 0.0
H1125 H 0.44356 0.9659 0.30979 0.0
H1126 H 0.50889 0.41917 0.97918 0.0
H1127 H 0.50419 0.38833 0.95377 0.0
H1128 H 0.45761 0.38804 0.89074 0.0
H1129 H 0.46174 0.41853 0.9167 0.0
H1130 H 0.44544 0.34852 0.91255 0.0
H1131 H 0.50868 0.40911 0.86456 0.0
H1132 H 0.54421 0.44138 0.86562 0.0
H1133 H 0.5694 0.40678 0.91063 0.0
H1134 H 0.53391 0.37433 0.91025 0.0
H1135 H 0.44935 0.29927 0.77352 0.0
H1136 H 0.4488 0.32031 0.81632 0.0
H1137 H 0.49681 0.31473 0.86668 0.0
H1138 H 0.49765 0.29388 0.82321 0.0
H1139 H 0.50854 0.35458 0.85845 0.0
H1140 H 0.44575 0.2928 0.89949 0.0
H1141 H 0.41013 0.26075 0.89764 0.0
H1142 H 0.38387 0.29722 0.86523 0.0
H1143 H 0.41939 0.32948 0.86642 0.0
C1144 C 0.49738 0.41236 0.96027 0.0
C1145 C 0.48576 0.42142 0.94989 0.0
C1146 C 0.49484 0.39481 0.94559 0.0
C1147 C 0.48072 0.38599 0.92009 0.0
C1148 C 0.46863 0.3946 0.91032 0.0
C1149 C 0.47117 0.41216 0.92498 0.0
C1150 C 0.47917 0.36838 0.90263 0.0
C1151 C 0.45919 0.34985 0.90054 0.0
C1152 C 0.49722 0.36989 0.88775 0.0
C1153 C 0.5186 0.38935 0.88772 0.0
C1154 C 0.52176 0.40841 0.87491 0.0
C1155 C 0.54189 0.42673 0.87535 0.0
C1156 C 0.55904 0.42615 0.88828 0.0
C1157 C 0.55609 0.40722 0.90069 0.0
C1158 C 0.53598 0.38886 0.90035 0.0
C1159 C 0.45938 0.30207 0.79416 0.0
C1160 C 0.47359 0.29501 0.79503 0.0
C1161 C 0.459 0.31405 0.81873 0.0
C1162 C 0.47272 0.31911 0.84488 0.0
C1163 C 0.48606 0.31102 0.84677 0.0
C1164 C 0.4864 0.29895 0.82212 0.0
C1165 C 0.47471 0.33471 0.8679 0.0
C1166 C 0.4948 0.35298 0.87093 0.0
C1167 C 0.45673 0.33294 0.88356 0.0
C1168 C 0.4353 0.31357 0.88286 0.0
C1169 C 0.43242 0.29398 0.89174 0.0
C1170 C 0.41223 0.27577 0.89085 0.0
C1171 C 0.39476 0.27694 0.88128 0.0
C1172 C 0.39742 0.29633 0.87264 0.0
C1173 C 0.41758 0.3146 0.87347 0.0
H1174 H 0.37914 0.26282 0.88061 0.0
H1175 H 0.57461 0.44035 0.88862 0.0
H1176 H 0.07335 0.47014 0.47116 0.0
H1177 H 0.09966 0.46528 0.44344 0.0
H1178 H 0.10567 0.50835 0.36579 0.0
H1179 H 0.07936 0.5131 0.39315 0.0
H1180 H 0.10154 0.47512 0.3417 0.0
H1181 H 0.14446 0.52169 0.42336 0.0
H1182 H 0.15411 0.5333 0.47902 0.0
H1183 H 0.15726 0.47911 0.50412 0.0
H1184 H 0.14735 0.46703 0.44869 0.0
H1185 H 0.21507 0.50758 0.29682 0.0
H1186 H 0.19095 0.50674 0.33839 0.0
H1187 H 0.14256 0.44447 0.31292 0.0
H1188 H 0.1665 0.44572 0.27053 0.0
H1189 H 0.16742 0.4854 0.39075 0.0
H1190 H 0.09469 0.44144 0.30972 0.0
H1191 H 0.086 0.43416 0.25231 0.0
H1192 H 0.14521 0.48991 0.22284 0.0
H1193 H 0.15407 0.49775 0.2801 0.0
C1194 C 0.08047 0.47872 0.44833 0.0
C1195 C 0.07417 0.49191 0.43425 0.0
C1196 C 0.09551 0.47594 0.43252 0.0
C1197 C 0.10473 0.4865 0.40254 0.0
C1198 C 0.09869 0.49991 0.38876 0.0
C1199 C 0.0836 0.50258 0.4044 0.0
C1200 C 0.12013 0.48316 0.38472 0.0
C1201 C 0.11588 0.47726 0.35255 0.0
C1202 C 0.13895 0.4861 0.3987 0.0
C1203 C 0.14494 0.49334 0.43199 0.0
C1204 C 0.14704 0.51216 0.44083 0.0
C1205 C 0.15259 0.51884 0.47232 0.0
C1206 C 0.15623 0.50692 0.49512 0.0
C1207 C 0.1544 0.48831 0.48645 0.0
C1208 C 0.14883 0.48155 0.455 0.0
C1209 C 0.19958 0.49343 0.30108 0.0
C1210 C 0.19261 0.47665 0.28082 0.0
C1211 C 0.18576 0.49297 0.32471 0.0
C1212 C 0.16476 0.47572 0.32833 0.0
C1213 C 0.15855 0.45809 0.3102 0.0
C1214 C 0.17228 0.45868 0.28627 0.0
C1215 C 0.14879 0.47738 0.34775 0.0
C1216 C 0.15292 0.48296 0.38013 0.0
C1217 C 0.13004 0.47465 0.33376 0.0
C1218 C 0.12512 0.47003 0.29921 0.0
C1219 C 0.10585 0.45215 0.29099 0.0
C1220 C 0.10088 0.44795 0.2585 0.0
C1221 C 0.11503 0.46157 0.23399 0.0
C1222 C 0.13426 0.47938 0.24189 0.0
C1223 C 0.13927 0.48371 0.27437 0.0
H1224 H 0.11099 0.45835 0.20892 0.0
H1225 H 0.16053 0.51212 0.51949 0.0
H1226 H 0.60079 0.06093 0.99152 0.0
H1227 H 0.63229 0.09082 0.96446 0.0
H1228 H 0.59232 0.09364 0.89084 0.0
H1229 H 0.5608 0.06593 0.92054 0.0
H1230 H 0.65248 0.09887 0.9142 0.0
H1231 H 0.61098 0.13843 0.85305 0.0
H1232 H 0.57909 0.14007 0.86397 0.0
H1233 H 0.58505 0.13253 0.96616 0.0
H1234 H 0.61715 0.13113 0.95593 0.0
H1235 H 0.70722 0.15799 0.77468 0.0
H1236 H 0.68399 0.13497 0.81902 0.0
H1237 H 0.69093 0.18814 0.86642 0.0
H1238 H 0.71343 0.21128 0.82062 0.0
H1239 H 0.6514 0.15999 0.86726 0.0
H1240 H 0.7113 0.15761 0.89863 0.0
H1241 H 0.74288 0.15479 0.89302 0.0
H1242 H 0.70356 0.09208 0.86204 0.0
H1243 H 0.67176 0.0946 0.867 0.0
C1244 C 0.59878 0.06845 0.97011 0.0
C1245 C 0.57832 0.06161 0.95877 0.0
C1246 C 0.61682 0.08535 0.95433 0.0
C1247 C 0.61485 0.0952 0.92601 0.0
C1248 C 0.59442 0.08726 0.91347 0.0
C1249 C 0.57636 0.07111 0.93015 0.0
C1250 C 0.63407 0.1134 0.90923 0.0
C1251 C 0.65225 0.1123 0.90425 0.0
C1252 C 0.63432 0.13146 0.89708 0.0
C1253 C 0.61639 0.1345 0.90367 0.0
C1254 C 0.60569 0.13745 0.87787 0.0
C1255 C 0.5875 0.13821 0.88394 0.0
C1256 C 0.57992 0.13615 0.9157 0.0
C1257 C 0.59084 0.13393 0.94155 0.0
C1258 C 0.60906 0.1332 0.93564 0.0
C1259 C 0.70408 0.16486 0.79477 0.0
C1260 C 0.71198 0.18644 0.79396 0.0
C1261 C 0.69091 0.15166 0.82039 0.0
C1262 C 0.68571 0.15972 0.84641 0.0
C1263 C 0.69463 0.18149 0.84665 0.0
C1264 C 0.7077 0.19475 0.82067 0.0
C1265 C 0.66947 0.14505 0.87143 0.0
C1266 C 0.65182 0.14681 0.87792 0.0
C1267 C 0.67006 0.12801 0.88608 0.0
C1268 C 0.68913 0.12634 0.88306 0.0
C1269 C 0.70939 0.14326 0.89042 0.0
C1270 C 0.72734 0.1417 0.88738 0.0
C1271 C 0.72523 0.12327 0.87715 0.0
C1272 C 0.70516 0.10634 0.86998 0.0
C1273 C 0.68716 0.10781 0.87296 0.0
H1274 H 0.73915 0.1221 0.8748 0.0
H1275 H 0.56557 0.13627 0.92028 0.0
H1276 H 0.4879 0.5604 0.46202 0.0
H1277 H 0.48671 0.59038 0.43908 0.0
H1278 H 0.55484 0.62993 0.44779 0.0
H1279 H 0.55588 0.59994 0.47127 0.0
H1280 H 0.53516 0.65016 0.46441 0.0
H1281 H 0.53342 0.60981 0.37611 0.0
H1282 H 0.51968 0.57781 0.34586 0.0
H1283 H 0.45922 0.57271 0.3378 0.0
H1284 H 0.47251 0.60453 0.36846 0.0
H1285 H 0.56209 0.72934 0.34014 0.0
H1286 H 0.55724 0.70195 0.37967 0.0
H1287 H 0.48948 0.66814 0.36507 0.0
H1288 H 0.49446 0.69563 0.32525 0.0
H1289 H 0.50588 0.64446 0.35478 0.0
H1290 H 0.50988 0.68791 0.43885 0.0
H1291 H 0.5249 0.7204 0.46816 0.0
H1292 H 0.58247 0.72057 0.48282 0.0
H1293 H 0.56793 0.68823 0.45319 0.0
C1294 C 0.50253 0.57558 0.45922 0.0
C1295 C 0.522 0.578 0.46797 0.0
C1296 C 0.50188 0.59264 0.44607 0.0
C1297 C 0.52073 0.61235 0.44131 0.0
C1298 C 0.54011 0.61488 0.45119 0.0
C1299 C 0.54074 0.59781 0.46441 0.0
C1300 C 0.52041 0.63009 0.42475 0.0
C1301 C 0.52888 0.64899 0.44036 0.0
C1302 C 0.51184 0.62843 0.39362 0.0
C1303 C 0.50388 0.60941 0.37491 0.0
C1304 C 0.51714 0.60178 0.3681 0.0
C1305 C 0.50944 0.58369 0.35084 0.0
C1306 C 0.48857 0.5732 0.33999 0.0
C1307 C 0.47537 0.58083 0.34627 0.0
C1308 C 0.48298 0.59889 0.36358 0.0
C1309 C 0.54609 0.71651 0.34654 0.0
C1310 C 0.52858 0.71471 0.3303 0.0
C1311 C 0.54331 0.70081 0.369 0.0
C1312 C 0.52297 0.68299 0.37548 0.0
C1313 C 0.5053 0.68179 0.36057 0.0
C1314 C 0.50809 0.69757 0.33816 0.0
C1315 C 0.52065 0.66463 0.3944 0.0
C1316 C 0.51182 0.6456 0.37908 0.0
C1317 C 0.52907 0.66627 0.42565 0.0
C1318 C 0.53786 0.6857 0.44358 0.0
C1319 C 0.52581 0.69495 0.4481 0.0
C1320 C 0.53423 0.71333 0.46482 0.0
C1321 C 0.55464 0.72257 0.47729 0.0
C1322 C 0.56667 0.71341 0.47313 0.0
C1323 C 0.55833 0.69503 0.45642 0.0
H1324 H 0.56113 0.7368 0.49022 0.0
H1325 H 0.48264 0.55919 0.32664 0.0
H1326 H 0.46783 0.07549 0.5151 0.0
H1327 H 0.46426 0.10288 0.53857 0.0
H1328 H 0.50183 0.10415 0.6193 0.0
H1329 H 0.50493 0.0765 0.59638 0.0
H1330 H 0.47049 0.10541 0.64149 0.0
H1331 H 0.52171 0.14297 0.55529 0.0
H1332 H 0.53594 0.15077 0.49905 0.0
H1333 H 0.48515 0.15896 0.46882 0.0
H1334 H 0.47044 0.15093 0.52485 0.0
H1335 H 0.50938 0.22019 0.66418 0.0
H1336 H 0.50842 0.19457 0.62845 0.0
H1337 H 0.44332 0.15019 0.6594 0.0
H1338 H 0.44458 0.17567 0.69581 0.0
H1339 H 0.48769 0.17069 0.57989 0.0
H1340 H 0.43741 0.10215 0.67426 0.0
H1341 H 0.42926 0.09593 0.73305 0.0
H1342 H 0.48751 0.15339 0.75096 0.0
H1343 H 0.49623 0.15973 0.69234 0.0
C1344 C 0.47537 0.0817 0.5378 0.0
C1345 C 0.48659 0.07377 0.55396 0.0
C1346 C 0.47339 0.09741 0.55116 0.0
C1347 C 0.48294 0.10581 0.58064 0.0
C1348 C 0.49419 0.09791 0.59666 0.0
C1349 C 0.49594 0.08206 0.58355 0.0
C1350 C 0.48095 0.12251 0.5953 0.0
C1351 C 0.47415 0.11961 0.62788 0.0
C1352 C 0.48605 0.14128 0.57787 0.0
C1353 C 0.49485 0.14612 0.54418 0.0
C1354 C 0.51348 0.14627 0.5366 0.0
C1355 C 0.52165 0.15076 0.50477 0.0
C1356 C 0.51142 0.1553 0.48036 0.0
C1357 C 0.49303 0.15541 0.48775 0.0
C1358 C 0.48478 0.1509 0.51953 0.0
C1359 C 0.49462 0.20527 0.66223 0.0
C1360 C 0.47697 0.19992 0.68232 0.0
C1361 C 0.4941 0.19058 0.64198 0.0
C1362 C 0.47594 0.17027 0.64169 0.0
C1363 C 0.45762 0.16563 0.65958 0.0
C1364 C 0.45822 0.18025 0.68004 0.0
C1365 C 0.47708 0.15343 0.62593 0.0
C1366 C 0.48375 0.15633 0.59326 0.0
C1367 C 0.47257 0.13492 0.64357 0.0
C1368 C 0.46733 0.13151 0.67886 0.0
C1369 C 0.44848 0.11345 0.69075 0.0
C1370 C 0.44379 0.10989 0.72403 0.0
C1371 C 0.45787 0.12424 0.74568 0.0
C1372 C 0.47662 0.14228 0.73412 0.0
C1373 C 0.48144 0.14587 0.70086 0.0
H1374 H 0.45429 0.12129 0.77143 0.0
H1375 H 0.51777 0.15877 0.45574 0.0
H1376 H 0.45011 0.52428 0.04249 0.0
H1377 H 0.41723 0.52186 0.06067 0.0
H1378 H 0.38388 0.45449 0.0602 0.0
H1379 H 0.4168 0.45703 0.04146 0.0
H1380 H 0.35946 0.46779 0.03576 0.0
H1381 H 0.39956 0.4792 0.13067 0.0
H1382 H 0.43012 0.49599 0.1667 0.0
H1383 H 0.42901 0.55245 0.16062 0.0
H1384 H 0.39862 0.5361 0.12412 0.0
H1385 H 0.27752 0.44627 0.15484 0.0
H1386 H 0.30493 0.44868 0.11824 0.0
H1387 H 0.3334 0.51548 0.10674 0.0
H1388 H 0.30581 0.51299 0.14301 0.0
H1389 H 0.35966 0.50291 0.13468 0.0
H1390 H 0.31581 0.48779 0.0419 0.0
H1391 H 0.28324 0.46763 0.01077 0.0
H1392 H 0.28931 0.41398 0.01865 0.0
H1393 H 0.32177 0.43373 0.05026 0.0
C1394 C 0.4357 0.509 0.04628 0.0
C1395 C 0.43587 0.49083 0.04095 0.0
C1396 C 0.41697 0.5076 0.05672 0.0
C1397 C 0.39809 0.48797 0.06219 0.0
C1398 C 0.39821 0.4698 0.05619 0.0
C1399 C 0.41697 0.47122 0.04569 0.0
C1400 C 0.3784 0.48647 0.07468 0.0
C1401 C 0.35946 0.4753 0.05757 0.0
C1402 C 0.37837 0.49641 0.10298 0.0
C1403 C 0.39701 0.50652 0.12424 0.0
C1404 C 0.40601 0.49529 0.13666 0.0
C1405 C 0.42325 0.5047 0.15726 0.0
C1406 C 0.43155 0.5253 0.16585 0.0
C1407 C 0.4226 0.53652 0.15387 0.0
C1408 C 0.40537 0.52719 0.13321 0.0
C1409 C 0.2889 0.46125 0.14293 0.0
C1410 C 0.28939 0.4794 0.15118 0.0
C1411 C 0.30467 0.46266 0.12226 0.0
C1412 C 0.32127 0.48228 0.10988 0.0
C1413 C 0.3207 0.50019 0.11594 0.0
C1414 C 0.3048 0.49874 0.13631 0.0
C1415 C 0.34084 0.48447 0.0956 0.0
C1416 C 0.35974 0.49562 0.11263 0.0
C1417 C 0.34064 0.4741 0.06776 0.0
C1418 C 0.32114 0.4622 0.04871 0.0
C1419 C 0.31011 0.47163 0.03726 0.0
C1420 C 0.29168 0.46029 0.01947 0.0
C1421 C 0.28418 0.43952 0.0128 0.0
C1422 C 0.29512 0.43007 0.02385 0.0
C1423 C 0.31356 0.44134 0.04167 0.0
H1424 H 0.26991 0.43077 0.99902 0.0
H1425 H 0.44488 0.53255 0.18186 0.0
H1426 H 0.92706 0.44368 0.52617 0.0
H1427 H 0.89551 0.41107 0.54717 0.0
H1428 H 0.93393 0.38406 0.56344 0.0
H1429 H 0.9651 0.41615 0.53994 0.0
H1430 H 0.89749 0.35506 0.54579 0.0
H1431 H 0.91949 0.40719 0.62499 0.0
H1432 H 0.92902 0.44149 0.64457 0.0
H1433 H 0.86646 0.42858 0.62348 0.0
H1434 H 0.85665 0.3943 0.60331 0.0
H1435 H 0.83829 0.28569 0.68285 0.0
H1436 H 0.86379 0.31161 0.64219 0.0
H1437 H 0.81725 0.3267 0.61308 0.0
H1438 H 0.79166 0.30053 0.65346 0.0
H1439 H 0.85539 0.3608 0.63371 0.0
H1440 H 0.83311 0.30602 0.55991 0.0
H1441 H 0.82497 0.27172 0.54244 0.0
H1442 H 0.88972 0.28941 0.55764 0.0
H1443 H 0.89819 0.32372 0.57566 0.0
C1444 C 0.92863 0.43064 0.53393 0.0
C1445 C 0.94853 0.43251 0.5322 0.0
C1446 C 0.91066 0.41208 0.54617 0.0
C1447 C 0.91238 0.39523 0.55792 0.0
C1448 C 0.93215 0.39683 0.55488 0.0
C1449 C 0.94999 0.41521 0.54178 0.0
C1450 C 0.89387 0.37632 0.57447 0.0
C1451 C 0.88843 0.35636 0.56521 0.0
C1452 C 0.88171 0.37787 0.59951 0.0
C1453 C 0.88741 0.39827 0.61234 0.0
C1454 C 0.9078 0.4117 0.6244 0.0
C1455 C 0.91325 0.43114 0.63559 0.0
C1456 C 0.89837 0.43723 0.63518 0.0
C1457 C 0.87797 0.42385 0.62372 0.0
C1458 C 0.87245 0.40441 0.61243 0.0
C1459 C 0.83324 0.29387 0.66667 0.0
C1460 C 0.81295 0.29091 0.67072 0.0
C1461 C 0.84782 0.30876 0.64363 0.0
C1462 C 0.84242 0.32111 0.62463 0.0
C1463 C 0.82171 0.31729 0.6274 0.0
C1464 C 0.80704 0.30221 0.65017 0.0
C1465 C 0.85914 0.33965 0.60512 0.0
C1466 C 0.86433 0.35956 0.61402 0.0
C1467 C 0.87128 0.33802 0.58027 0.0
C1468 C 0.86624 0.3174 0.5694 0.0
C1469 C 0.84558 0.30254 0.5598 0.0
C1470 C 0.84091 0.2831 0.54974 0.0
C1471 C 0.85681 0.27837 0.549 0.0
C1472 C 0.87742 0.29309 0.55825 0.0
C1473 C 0.88217 0.31255 0.56835 0.0
H1474 H 0.85316 0.26331 0.54119 0.0
H1475 H 0.90263 0.4523 0.64382 0.0
H1476 H 0.51567 0.94288 0.11339 0.0
H1477 H 0.5195 0.91442 0.13513 0.0
H1478 H 0.53247 0.90324 0.03885 0.0
H1479 H 0.52907 0.93199 0.01686 0.0
H1480 H 0.50376 0.86689 0.07208 0.0
H1481 H 0.57249 0.92657 0.08998 0.0
H1482 H 0.59824 0.96167 0.10872 0.0
H1483 H 0.57501 0.9405 0.20669 0.0
H1484 H 0.54889 0.90535 0.18849 0.0
H1485 H 0.55603 0.82039 0.18805 0.0
H1486 H 0.55812 0.84526 0.14555 0.0
H1487 H 0.49223 0.82412 0.16507 0.0
H1488 H 0.49025 0.79948 0.20758 0.0
H1489 H 0.55281 0.87696 0.16103 0.0
H1490 H 0.47126 0.83301 0.09742 0.0
H1491 H 0.44663 0.79801 0.07731 0.0
H1492 H 0.49824 0.78782 0.06726 0.0
H1493 H 0.52325 0.82287 0.08685 0.0
C1494 C 0.51967 0.93462 0.09683 0.0
C1495 C 0.52213 0.93983 0.06335 0.0
C1496 C 0.52177 0.91828 0.1093 0.0
C1497 C 0.52644 0.9068 0.08863 0.0
C1498 C 0.52883 0.91186 0.05522 0.0
C1499 C 0.5268 0.92827 0.04271 0.0
C1500 C 0.5284 0.8893 0.10204 0.0
C1501 C 0.51457 0.86908 0.09139 0.0
C1502 C 0.54285 0.89224 0.12672 0.0
C1503 C 0.55862 0.91335 0.13781 0.0
C1504 C 0.57276 0.92944 0.11549 0.0
C1505 C 0.58744 0.94934 0.12602 0.0
C1506 C 0.58823 0.95333 0.15886 0.0
C1507 C 0.57437 0.9374 0.18126 0.0
C1508 C 0.55964 0.91747 0.17085 0.0
C1509 C 0.5418 0.82048 0.1822 0.0
C1510 C 0.52292 0.80796 0.20071 0.0
C1511 C 0.54304 0.8348 0.1582 0.0
C1512 C 0.52534 0.83656 0.15215 0.0
C1513 C 0.50601 0.82287 0.169 0.0
C1514 C 0.50484 0.80876 0.19319 0.0
C1515 C 0.52766 0.85443 0.13185 0.0
C1516 C 0.54224 0.87476 0.14134 0.0
C1517 C 0.51403 0.85159 0.10596 0.0
C1518 C 0.49911 0.83054 0.09383 0.0
C1519 C 0.47738 0.82336 0.09076 0.0
C1520 C 0.46335 0.80349 0.07948 0.0
C1521 C 0.47085 0.79068 0.07109 0.0
C1522 C 0.49243 0.79773 0.07388 0.0
C1523 C 0.50654 0.81758 0.08513 0.0
H1524 H 0.45996 0.77531 0.06237 0.0
H1525 H 0.59961 0.96875 0.16697 0.0
H1526 H 0.61428 0.54793 0.54184 0.0
H1527 H 0.64411 0.55068 0.57202 0.0
H1528 H 0.59974 0.50072 0.63883 0.0
H1529 H 0.57 0.49809 0.60907 0.0
H1530 H 0.62977 0.53094 0.67114 0.0
H1531 H 0.6281 0.49378 0.57788 0.0
H1532 H 0.62889 0.48853 0.51953 0.0
H1533 H 0.691 0.54441 0.5089 0.0
H1534 H 0.69045 0.55014 0.56716 0.0
H1535 H 0.68753 0.49408 0.74783 0.0
H1536 H 0.66459 0.49607 0.70731 0.0
H1537 H 0.71771 0.55452 0.6679 0.0
H1538 H 0.7409 0.55264 0.70898 0.0
H1539 H 0.68711 0.52507 0.62017 0.0
H1540 H 0.68924 0.55957 0.71643 0.0
H1541 H 0.68775 0.56272 0.77537 0.0
H1542 H 0.62352 0.50984 0.78074 0.0
H1543 H 0.62477 0.50607 0.7219 0.0
C1544 C 0.61092 0.53746 0.56286 0.0
C1545 C 0.58976 0.52285 0.57313 0.0
C1546 C 0.62799 0.53903 0.58008 0.0
C1547 C 0.62423 0.52581 0.60764 0.0
C1548 C 0.6031 0.51119 0.6178 0.0
C1549 C 0.58609 0.50973 0.60078 0.0
C1550 C 0.64212 0.52723 0.62638 0.0
C1551 C 0.6422 0.52952 0.65994 0.0
C1552 C 0.65876 0.52597 0.61176 0.0
C1553 C 0.65913 0.52252 0.57678 0.0
C1554 C 0.64185 0.50504 0.56304 0.0
C1555 C 0.64227 0.50196 0.53 0.0
C1556 C 0.65996 0.51616 0.5105 0.0
C1557 C 0.67729 0.53344 0.52403 0.0
C1558 C 0.67694 0.53661 0.55706 0.0
C1559 C 0.69445 0.50711 0.73002 0.0
C1560 C 0.71592 0.52329 0.73162 0.0
C1561 C 0.68133 0.50825 0.70696 0.0
C1562 C 0.68937 0.5256 0.68499 0.0
C1563 C 0.71122 0.54103 0.68475 0.0
C1564 C 0.72445 0.53991 0.70806 0.0
C1565 C 0.67432 0.52827 0.66479 0.0
C1566 C 0.6748 0.52678 0.63113 0.0
C1567 C 0.65805 0.53009 0.67931 0.0
C1568 C 0.65717 0.53243 0.71473 0.0
C1569 C 0.67486 0.54849 0.7302 0.0
C1570 C 0.67405 0.5504 0.76361 0.0
C1571 C 0.65556 0.53647 0.7818 0.0
C1572 C 0.63784 0.52061 0.76661 0.0
C1573 C 0.63859 0.51858 0.73323 0.0
H1574 H 0.65494 0.538 0.80765 0.0
H1575 H 0.66025 0.51375 0.48492 0.0
H1576 H 0.08144 0.56514 0.10139 0.0
H1577 H 0.1109 0.59426 0.12825 0.0
H1578 H 0.1075 0.63807 0.06179 0.0
H1579 H 0.07801 0.60884 0.03449 0.0
H1580 H 0.14849 0.65085 0.07324 0.0
H1581 H 0.08592 0.62867 0.13742 0.0
H1582 H 0.05264 0.60391 0.16798 0.0
H1583 H 0.08725 0.58775 0.2337 0.0
H1584 H 0.12072 0.61217 0.20321 0.0
H1585 H 0.20362 0.73551 0.18469 0.0
H1586 H 0.18054 0.71033 0.14502 0.0
H1587 H 0.18179 0.661 0.1999 0.0
H1588 H 0.20473 0.686 0.23929 0.0
H1589 H 0.14134 0.65316 0.19209 0.0
H1590 H 0.20442 0.67625 0.12574 0.0
H1591 H 0.23715 0.70234 0.09516 0.0
H1592 H 0.20079 0.7188 0.03392 0.0
H1593 H 0.16786 0.693 0.06445 0.0
C1594 C 0.08688 0.58097 0.09257 0.0
C1595 C 0.07718 0.58469 0.06612 0.0
C1596 C 0.10377 0.59762 0.10789 0.0
C1597 C 0.11119 0.61839 0.09742 0.0
C1598 C 0.10202 0.62219 0.07035 0.0
C1599 C 0.08516 0.60548 0.05481 0.0
C1600 C 0.12801 0.636 0.11558 0.0
C1601 C 0.14683 0.65153 0.09917 0.0
C1602 C 0.12592 0.63687 0.14943 0.0
C1603 C 0.10581 0.62212 0.16783 0.0
C1604 C 0.08641 0.61971 0.15822 0.0
C1605 C 0.06752 0.60575 0.17556 0.0
C1606 C 0.06782 0.59423 0.20272 0.0
C1607 C 0.08704 0.59666 0.21263 0.0
C1608 C 0.10598 0.61057 0.19534 0.0
C1609 C 0.19957 0.71944 0.18753 0.0
C1610 C 0.20581 0.71263 0.21508 0.0
C1611 C 0.18632 0.70506 0.16498 0.0
C1612 C 0.17928 0.68374 0.1697 0.0
C1613 C 0.18689 0.67733 0.1959 0.0
C1614 C 0.20006 0.69162 0.2183 0.0
C1615 C 0.16208 0.66766 0.14999 0.0
C1616 C 0.14304 0.65249 0.16616 0.0
C1617 C 0.16393 0.66736 0.11598 0.0
C1618 C 0.18371 0.68285 0.09762 0.0
C1619 C 0.20343 0.68557 0.10595 0.0
C1620 C 0.22201 0.70028 0.08858 0.0
C1621 C 0.22106 0.71227 0.06267 0.0
C1622 C 0.20151 0.70953 0.05403 0.0
C1623 C 0.18288 0.69485 0.07134 0.0
H1624 H 0.23546 0.72364 0.04925 0.0
H1625 H 0.05318 0.58345 0.21612 0.0
loop_
_geom_bond_atom_site_label_1
_geom_bond_atom_site_label_2
_geom_bond_distance
_geom_bond_site_symmetry_2
_ccdc_geom_bond_type
C0 C1 1.443 1_556 S
C0 N4 1.376 1_556 S
C0 C38 1.389 . S
C1 C0 1.443 1_554 S
C1 C2 1.340 . S
C1 H41 0.951 . S
C2 C1 1.340 . S
C2 C3 1.439 . S
C2 H42 0.950 . S
C3 C2 1.439 . S
C3 N4 1.374 . S
C3 C37 1.395 . S
N4 C0 1.376 1_554 S
N4 C3 1.374 . S
N4 Co5 2.008 1_655 S
Co5 N4 2.008 1_455 S
Co5 N6 1.995 . S
Co5 N11 2.008 1_554 S
Co5 N16 1.995 1_554 S
Co5 N21 2.282 . S
Co5 N27 2.282 1_454 S
N6 Co5 1.995 . S
N6 C7 1.376 1_455 S
N6 C10 1.383 . S
C7 N6 1.376 1_655 S
C7 C8 1.446 . S
C7 C37 1.391 . S
C8 C7 1.446 . S
C8 C9 1.339 1_655 S
C8 H43 0.949 . S
C9 C8 1.339 1_455 S
C9 C10 1.439 . S
C9 H44 0.950 . S
C10 N6 1.383 . S
C10 C9 1.439 . S
C10 C39 1.392 . S
N11 Co5 2.008 1_556 S
N11 C12 1.376 1_556 S
N11 C15 1.374 . S
C12 N11 1.376 1_554 S
C12 C13 1.443 1_554 S
C12 C39 1.389 . S
C13 C12 1.443 1_556 S
C13 C14 1.340 . S
C13 H45 0.951 . S
C14 C13 1.340 . S
C14 C15 1.439 . S
C14 H46 0.950 . S
C15 N11 1.374 . S
C15 C14 1.439 . S
C15 C40 1.395 . S
N16 Co5 1.995 1_556 S
N16 C17 1.376 . S
N16 C20 1.383 1_455 S
C17 N16 1.376 . S
C17 C18 1.446 . S
C17 C40 1.391 . S
C18 C17 1.446 . S
C18 C19 1.339 1_455 S
C18 H47 0.949 . S
C19 C18 1.339 1_655 S
C19 C20 1.439 . S
C19 H48 0.950 . S
C20 N16 1.383 1_655 S
C20 C19 1.439 . S
C20 C38 1.392 . S
N21 Co5 2.282 . S
N21 C24 1.332 . S
N21 C26 1.332 . S
C22 C23 1.386 . S
C22 C25 1.388 . S
C23 C22 1.386 . S
C23 C24 1.382 . S
C23 H49 0.950 . S
C24 N21 1.332 . S
C24 C23 1.382 . S
C24 H35 0.952 1_554 S
C25 C22 1.388 . S
C25 C26 1.382 . S
C25 H50 0.950 . S
C26 N21 1.332 . S
C26 C25 1.382 . S
C26 H36 0.948 . S
N27 Co5 2.282 1_656 S
N27 C31 1.332 . S
N27 C32 1.332 . S
C28 C29 1.388 . S
C28 C32 1.382 . S
C28 H51 0.950 . S
C29 C28 1.388 . S
C29 C30 1.386 . S
C30 C29 1.386 . S
C30 C31 1.382 . S
C30 H52 0.950 . S
C31 N27 1.332 . S
C31 C30 1.382 . S
C31 H33 0.952 1_556 S
C32 N27 1.332 . S
C32 C28 1.382 . S
C32 H34 0.948 . S
H33 C31 0.952 1_554 S
H34 C32 0.948 . S
H35 C24 0.952 1_556 S
H36 C26 0.948 . S
C37 C3 1.395 . S
C37 C7 1.391 . S
C38 C0 1.389 . S
C38 C20 1.392 . S
C39 C10 1.392 . S
C39 C12 1.389 . S
C40 C15 1.395 . S
C40 C17 1.391 . S
H41 C1 0.951 . S
H42 C2 0.950 . S
H43 C8 0.949 . S
H44 C9 0.950 . S
H45 C13 0.951 . S
H46 C14 0.950 . S
H47 C18 0.949 . S
H48 C19 0.950 . S
H49 C23 0.950 . S
H50 C25 0.950 . S
H51 C28 0.950 . S
H52 C30 0.950 . S
C53 C54 1.443 . S
C53 N57 1.376 . S
C53 C91 1.389 . S
C54 C53 1.443 . S
C54 C55 1.333 1_545 S
C54 H94 0.951 . S
C55 C54 1.333 1_565 S
C55 C56 1.441 . S
C55 H95 0.954 . S
C56 C55 1.441 . S
C56 N57 1.374 1_565 S
C56 C90 1.395 . S
N57 C53 1.376 . S
N57 C56 1.374 1_545 S
N57 Co58 2.008 . S
Co58 N57 2.008 . S
Co58 N59 1.995 1_545 S
Co58 N64 2.008 . S
Co58 N69 1.995 . S
Co58 N74 2.282 1_545 S
Co58 N80 2.282 . S
N59 Co58 1.995 1_565 S
N59 C60 1.376 . S
N59 C63 1.383 . S
C60 N59 1.376 . S
C60 C61 1.446 . S
C60 C90 1.391 . S
C61 C60 1.446 . S
C61 C62 1.339 . S
C61 H96 0.949 . S
C62 C61 1.339 . S
C62 C63 1.439 . S
C62 H97 0.950 . S
C63 N59 1.383 . S
C63 C62 1.439 . S
C63 C92 1.392 . S
N64 Co58 2.008 . S
N64 C65 1.376 1_545 S
N64 C68 1.374 . S
C65 N64 1.376 1_565 S
C65 C66 1.443 . S
C65 C92 1.389 . S
C66 C65 1.443 . S
C66 C67 1.340 1_565 S
C66 H98 0.951 . S
C67 C66 1.340 1_545 S
C67 C68 1.439 . S
C67 H99 0.950 . S
C68 N64 1.374 . S
C68 C67 1.439 . S
C68 C93 1.395 . S
N69 Co58 1.995 . S
N69 C70 1.376 . S
N69 C73 1.383 . S
C70 N69 1.376 . S
C70 C71 1.446 . S
C70 C93 1.391 . S
C71 C70 1.446 . S
C71 C72 1.339 . S
C71 H100 0.949 . S
C72 C71 1.339 . S
C72 C73 1.439 . S
C72 H101 0.950 . S
C73 N69 1.383 . S
C73 C72 1.439 . S
C73 C91 1.392 . S
N74 Co58 2.282 1_565 S
N74 C77 1.332 . S
N74 C79 1.332 . S
C75 C76 1.386 . S
C75 C78 1.388 . S
C76 C75 1.386 . S
C76 C77 1.382 . S
C76 H102 0.950 . S
C77 N74 1.332 . S
C77 C76 1.382 . S
C77 H88 0.952 1_565 S
C78 C75 1.388 . S
C78 C79 1.382 . S
C78 H103 0.950 . S
C79 N74 1.332 . S
C79 C78 1.382 . S
C79 H89 0.948 . S
N80 Co58 2.282 . S
N80 C84 1.332 . S
N80 C85 1.332 . S
C81 C82 1.388 . S
C81 C85 1.382 . S
C81 H104 0.950 . S
C82 C81 1.388 . S
C82 C83 1.386 . S
C83 C82 1.386 . S
C83 C84 1.382 . S
C83 H105 0.950 . S
C84 N80 1.332 . S
C84 C83 1.382 . S
C84 H86 0.952 . S
C85 N80 1.332 . S
C85 C81 1.382 . S
C85 H87 0.948 . S
H86 C84 0.952 . S
H87 C85 0.948 . S
H88 C77 0.952 1_545 S
H89 C79 0.948 . S
C90 C56 1.395 . S
C90 C60 1.391 . S
C91 C53 1.389 . S
C91 C73 1.392 . S
C92 C63 1.392 . S
C92 C65 1.389 . S
C93 C68 1.395 . S
C93 C70 1.391 . S
H94 C54 0.951 . S
H95 C55 0.954 . S
H96 C61 0.949 . S
H97 C62 0.950 . S
H98 C66 0.951 . S
H99 C67 0.950 . S
H100 C71 0.949 . S
H101 C72 0.950 . S
H102 C76 0.950 . S
H103 C78 0.950 . S
H104 C81 0.950 . S
H105 C83 0.950 . S
C106 C107 1.443 . S
C106 N110 1.376 . S
C106 C144 1.389 . S
C107 C106 1.443 . S
C107 C108 1.340 . S
C107 H147 0.951 . S
C108 C107 1.340 . S
C108 C109 1.439 . S
C108 H148 0.950 . S
C109 C108 1.439 . S
C109 N110 1.374 . S
C109 C143 1.395 . S
N110 C106 1.376 . S
N110 C109 1.374 . S
N110 Co111 2.008 1_556 S
Co111 N110 2.008 1_554 S
Co111 N112 1.995 1_554 S
Co111 N117 2.008 . S
Co111 N122 1.995 . S
Co111 N127 2.282 . S
Co111 N133 2.282 1_554 S
N112 Co111 1.995 1_556 S
N112 C113 1.376 . S
N112 C116 1.383 1_556 S
C113 N112 1.376 . S
C113 C114 1.446 . S
C113 C143 1.391 . S
C114 C113 1.446 . S
C114 C115 1.339 . S
C114 H149 0.949 . S
C115 C114 1.339 . S
C115 C116 1.439 1_556 S
C115 H150 0.950 . S
C116 N112 1.383 1_554 S
C116 C115 1.439 1_554 S
C116 C145 1.392 . S
N117 Co111 2.008 . S
N117 C118 1.376 . S
N117 C121 1.374 . S
C118 N117 1.376 . S
C118 C119 1.443 . S
C118 C145 1.389 . S
C119 C118 1.443 . S
C119 C120 1.340 . S
C119 H151 0.951 . S
C120 C119 1.340 . S
C120 C121 1.439 . S
C120 H152 0.950 . S
C121 N117 1.374 . S
C121 C120 1.439 . S
C121 C146 1.395 . S
N122 Co111 1.995 . S
N122 C123 1.376 . S
N122 C126 1.383 1_554 S
C123 N122 1.376 . S
C123 C124 1.446 . S
C123 C146 1.391 . S
C124 C123 1.446 . S
C124 C125 1.339 . S
C124 H153 0.949 . S
C125 C124 1.339 . S
C125 C126 1.439 1_554 S
C125 H154 0.950 . S
C126 N122 1.383 1_556 S
C126 C125 1.439 1_556 S
C126 C144 1.392 . S
N127 Co111 2.282 . S
N127 C130 1.332 . S
N127 C132 1.332 . S
C128 C129 1.386 . S
C128 C131 1.388 . S
C129 C128 1.386 . S
C129 C130 1.382 . S
C129 H155 0.950 . S
C130 N127 1.332 . S
C130 C129 1.382 . S
C130 H141 0.952 . S
C131 C128 1.388 . S
C131 C132 1.382 . S
C131 H156 0.950 . S
C132 N127 1.332 . S
C132 C131 1.382 . S
C132 H142 0.948 1_554 S
N133 Co111 2.282 1_556 S
N133 C137 1.332 . S
N133 C138 1.332 . S
C134 C135 1.388 . S
C134 C138 1.382 . S
C134 H157 0.950 . S
C135 C134 1.388 . S
C135 C136 1.386 . S
C136 C135 1.386 . S
C136 C137 1.382 . S
C136 H158 0.950 . S
C137 N133 1.332 . S
C137 C136 1.382 . S
C137 H139 0.952 . S
C138 N133 1.332 . S
C138 C134 1.382 . S
C138 H140 0.948 1_556 S
H139 C137 0.952 . S
H140 C138 0.948 1_554 S
H141 C130 0.952 . S
H142 C132 0.948 1_556 S
C143 C109 1.395 . S
C143 C113 1.391 . S
C144 C106 1.389 . S
C144 C126 1.392 . S
C145 C116 1.392 . S
C145 C118 1.389 . S
C146 C121 1.395 . S
C146 C123 1.391 . S
H147 C107 0.951 . S
H148 C108 0.950 . S
H149 C114 0.949 . S
H150 C115 0.950 . S
H151 C119 0.951 . S
H152 C120 0.950 . S
H153 C124 0.949 . S
H154 C125 0.950 . S
H155 C129 0.950 . S
H156 C131 0.950 . S
H157 C134 0.950 . S
H158 C136 0.950 . S
C159 C160 1.443 . S
C159 N163 1.376 . S
C159 C197 1.389 . S
C160 C159 1.443 . S
C160 C161 1.340 . S
C160 H200 0.951 . S
C161 C160 1.340 . S
C161 C162 1.439 . S
C161 H201 0.950 . S
C162 C161 1.439 . S
C162 N163 1.374 . S
C162 C196 1.395 . S
N163 C159 1.376 . S
N163 C162 1.374 . S
N163 Co164 2.008 1_655 S
Co164 N163 2.008 1_455 S
Co164 N165 1.995 . S
Co164 N170 2.008 . S
Co164 N175 1.995 . S
Co164 N180 2.282 . S
Co164 N186 2.282 1_455 S
N165 Co164 1.995 . S
N165 C166 1.376 1_455 S
N165 C169 1.383 . S
C166 N165 1.376 1_655 S
C166 C167 1.446 . S
C166 C196 1.391 . S
C167 C166 1.446 . S
C167 C168 1.339 1_655 S
C167 H202 0.949 . S
C168 C167 1.339 1_455 S
C168 C169 1.439 . S
C168 H203 0.950 . S
C169 N165 1.383 . S
C169 C168 1.439 . S
C169 C198 1.392 . S
N170 Co164 2.008 . S
N170 C171 1.376 . S
N170 C174 1.374 . S
C171 N170 1.376 . S
C171 C172 1.443 . S
C171 C198 1.389 . S
C172 C171 1.443 . S
C172 C173 1.340 . S
C172 H204 0.951 . S
C173 C172 1.340 . S
C173 C174 1.439 . S
C173 H205 0.950 . S
C174 N170 1.374 . S
C174 C173 1.439 . S
C174 C199 1.395 . S
N175 Co164 1.995 . S
N175 C176 1.376 . S
N175 C179 1.383 1_455 S
C176 N175 1.376 . S
C176 C177 1.446 . S
C176 C199 1.391 . S
C177 C176 1.446 . S
C177 C178 1.339 1_455 S
C177 H206 0.949 . S
C178 C177 1.339 1_655 S
C178 C179 1.439 . S
C178 H207 0.950 . S
C179 N175 1.383 1_655 S
C179 C178 1.439 . S
C179 C197 1.392 . S
N180 Co164 2.282 . S
N180 C183 1.332 . S
N180 C185 1.332 . S
C181 C182 1.386 . S
C181 C184 1.388 . S
C182 C181 1.386 . S
C182 C183 1.382 . S
C182 H208 0.950 . S
C183 N180 1.332 . S
C183 C182 1.382 . S
C183 H194 0.952 . S
C184 C181 1.388 . S
C184 C185 1.382 . S
C184 H209 0.950 . S
C185 N180 1.332 . S
C185 C184 1.382 . S
C185 H195 0.948 . S
N186 Co164 2.282 1_655 S
N186 C190 1.332 . S
N186 C191 1.332 . S
C187 C188 1.388 . S
C187 C191 1.382 . S
C187 H210 0.950 . S
C188 C187 1.388 . S
C188 C189 1.386 . S
C189 C188 1.386 . S
C189 C190 1.382 . S
C189 H211 0.950 . S
C190 N186 1.332 . S
C190 C189 1.382 . S
C190 H192 0.952 . S
C191 N186 1.332 . S
C191 C187 1.382 . S
C191 H193 0.948 . S
H192 C190 0.952 . S
H193 C191 0.948 . S
H194 C183 0.952 . S
H195 C185 0.948 . S
C196 C162 1.395 . S
C196 C166 1.391 . S
C197 C159 1.389 . S
C197 C179 1.392 . S
C198 C169 1.392 . S
C198 C171 1.389 . S
C199 C174 1.395 . S
C199 C176 1.391 . S
H200 C160 0.951 . S
H201 C161 0.950 . S
H202 C167 0.949 . S
H203 C168 0.950 . S
H204 C172 0.951 . S
H205 C173 0.950 . S
H206 C177 0.949 . S
H207 C178 0.950 . S
H208 C182 0.950 . S
H209 C184 0.950 . S
H210 C187 0.950 . S
H211 C189 0.950 . S
C212 C213 1.443 . S
C212 N216 1.376 1_565 S
C212 C250 1.389 . S
C213 C212 1.443 . S
C213 C214 1.340 1_565 S
C213 H253 0.951 . S
C214 C213 1.340 1_545 S
C214 C215 1.439 . S
C214 H254 0.950 . S
C215 C214 1.439 . S
C215 N216 1.374 . S
C215 C249 1.395 . S
N216 C212 1.376 1_545 S
N216 C215 1.374 . S
N216 Co217 2.008 . S
Co217 N216 2.008 . S
Co217 N218 1.995 . S
Co217 N223 2.008 1_554 S
Co217 N228 1.995 1_544 S
Co217 N233 2.282 1_554 S
Co217 N239 2.282 1_545 S
N218 Co217 1.995 . S
N218 C219 1.376 . S
N218 C222 1.383 1_554 S
C219 N218 1.376 . S
C219 C220 1.446 . S
C219 C249 1.391 . S
C220 C219 1.446 . S
C220 C221 1.339 . S
C220 H255 0.949 . S
C221 C220 1.339 . S
C221 C222 1.439 1_554 S
C221 H256 0.949 . S
C222 N218 1.383 1_556 S
C222 C221 1.439 1_556 S
C222 C251 1.392 . S
N223 Co217 2.008 1_556 S
N223 C224 1.376 . S
N223 C227 1.374 1_545 S
C224 N223 1.376 . S
C224 C225 1.443 . S
C224 C251 1.389 . S
C225 C224 1.443 . S
C225 C226 1.340 . S
C225 H257 0.951 . S
C226 C225 1.340 . S
C226 C227 1.439 1_545 S
C226 H258 0.950 1_545 S
C227 N223 1.374 1_565 S
C227 C226 1.439 1_565 S
C227 C252 1.395 . S
N228 Co217 1.995 1_566 S
N228 C229 1.376 . S
N228 C232 1.383 1_556 S
C229 N228 1.376 . S
C229 C230 1.446 . S
C229 C252 1.391 . S
C230 C229 1.446 . S
C230 C231 1.339 . S
C230 H259 0.949 . S
C231 C230 1.339 . S
C231 C232 1.439 1_556 S
C231 H260 0.950 1_556 S
C232 N228 1.383 1_554 S
C232 C231 1.439 1_554 S
C232 C250 1.392 . S
N233 Co217 2.282 1_556 S
N233 C236 1.332 . S
N233 C238 1.332 . S
C234 C235 1.386 . S
C234 C237 1.388 . S
C235 C234 1.386 . S
C235 C236 1.382 . S
C235 H261 0.950 . S
C236 N233 1.332 . S
C236 C235 1.382 . S
C236 H247 0.952 . S
C237 C234 1.388 . S
C237 C238 1.382 . S
C237 H262 0.950 . S
C238 N233 1.332 . S
C238 C237 1.382 . S
C238 H248 0.948 1_556 S
N239 Co217 2.282 1_565 S
N239 C243 1.332 . S
N239 C244 1.332 . S
C240 C241 1.388 . S
C240 C244 1.382 . S
C240 H263 0.950 . S
C241 C240 1.388 . S
C241 C242 1.386 . S
C242 C241 1.386 . S
C242 C243 1.382 . S
C242 H264 0.950 . S
C243 N239 1.332 . S
C243 C242 1.382 . S
C243 H245 0.952 1_565 S
C244 N239 1.332 . S
C244 C240 1.382 . S
C244 H246 0.948 1_554 S
H245 C243 0.952 1_545 S
H246 C244 0.948 1_556 S
H247 C236 0.952 . S
H248 C238 0.948 1_554 S
C249 C215 1.395 . S
C249 C219 1.391 . S
C250 C212 1.389 . S
C250 C232 1.392 . S
C251 C222 1.392 . S
C251 C224 1.389 . S
C252 C227 1.395 . S
C252 C229 1.391 . S
H253 C213 0.951 . S
H254 C214 0.950 . S
H255 C220 0.949 . S
H256 C221 0.949 . S
H257 C225 0.951 . S
H258 C226 0.950 1_565 S
H259 C230 0.949 . S
H260 C231 0.950 1_554 S
H261 C235 0.950 . S
H262 C237 0.950 . S
H263 C240 0.950 . S
H264 C242 0.950 . S
C265 C266 1.443 . S
C265 N269 1.376 . S
C265 C303 1.389 . S
C266 C265 1.443 . S
C266 C267 1.340 . S
C266 H306 0.951 . S
C267 C266 1.340 . S
C267 C268 1.439 . S
C267 H307 0.950 . S
C268 C267 1.439 . S
C268 N269 1.374 . S
C268 C302 1.395 . S
N269 C265 1.376 . S
N269 C268 1.374 . S
N269 Co270 2.008 . S
Co270 N269 2.008 . S
Co270 N271 1.995 . S
Co270 N276 2.008 . S
Co270 N281 1.995 . S
Co270 N286 2.282 . S
Co270 N292 2.282 . S
N271 Co270 1.995 . S
N271 C272 1.376 . S
N271 C275 1.383 . S
C272 N271 1.376 . S
C272 C273 1.446 . S
C272 C302 1.391 . S
C273 C272 1.446 . S
C273 C274 1.339 . S
C273 H308 0.949 . S
C274 C273 1.339 . S
C274 C275 1.439 . S
C274 H309 0.950 . S
C275 N271 1.383 . S
C275 C274 1.439 . S
C275 C304 1.392 . S
N276 Co270 2.008 . S
N276 C277 1.376 . S
N276 C280 1.374 . S
C277 N276 1.376 . S
C277 C278 1.443 . S
C277 C304 1.389 . S
C278 C277 1.443 . S
C278 C279 1.340 . S
C278 H310 0.951 . S
C279 C278 1.340 . S
C279 C280 1.439 . S
C279 H311 0.950 . S
C280 N276 1.374 . S
C280 C279 1.439 . S
C280 C305 1.395 . S
N281 Co270 1.995 . S
N281 C282 1.376 . S
N281 C285 1.383 . S
C282 N281 1.376 . S
C282 C283 1.446 . S
C282 C305 1.391 . S
C283 C282 1.446 . S
C283 C284 1.339 . S
C283 H312 0.949 . S
C284 C283 1.339 . S
C284 C285 1.439 . S
C284 H313 0.950 . S
C285 N281 1.383 . S
C285 C284 1.439 . S
C285 C303 1.392 . S
N286 Co270 2.282 . S
N286 C289 1.332 . S
N286 C291 1.332 . S
C287 C288 1.386 . S
C287 C290 1.388 . S
C288 C287 1.386 . S
C288 C289 1.382 . S
C288 H314 0.950 . S
C289 N286 1.332 . S
C289 C288 1.382 . S
C289 H300 0.952 . S
C290 C287 1.388 . S
C290 C291 1.382 . S
C290 H315 0.950 . S
C291 N286 1.332 . S
C291 C290 1.382 . S
C291 H301 0.948 . S
N292 Co270 2.282 . S
N292 C296 1.332 . S
N292 C297 1.332 . S
C293 C294 1.388 . S
C293 C297 1.382 . S
C293 H316 0.950 . S
C294 C293 1.388 . S
C294 C295 1.386 . S
C295 C294 1.386 . S
C295 C296 1.382 . S
C295 H317 0.950 . S
C296 N292 1.332 . S
C296 C295 1.382 . S
C296 H298 0.952 . S
C297 N292 1.332 . S
C297 C293 1.382 . S
C297 H299 0.948 . S
H298 C296 0.952 . S
H299 C297 0.948 . S
H300 C289 0.952 . S
H301 C291 0.948 . S
C302 C268 1.395 . S
C302 C272 1.391 . S
C303 C265 1.389 . S
C303 C285 1.392 . S
C304 C275 1.392 . S
C304 C277 1.389 . S
C305 C280 1.395 . S
C305 C282 1.391 . S
H306 C266 0.951 . S
H307 C267 0.950 . S
H308 C273 0.949 . S
H309 C274 0.950 . S
H310 C278 0.951 . S
H311 C279 0.950 . S
H312 C283 0.949 . S
H313 C284 0.950 . S
H314 C288 0.950 . S
H315 C290 0.950 . S
H316 C293 0.950 . S
H317 C295 0.950 . S
H318 C324 0.930 . S
H319 C327 0.931 . S
H320 C329 0.931 . S
H321 C331 0.930 . S
H322 C333 0.930 . S
H323 C335 0.931 . S
C324 H318 0.930 . S
C324 C325 1.380 . S
C324 C326 1.394 . S
C325 C324 1.380 . S
C325 C329 1.382 . S
C326 C324 1.394 . S
C326 C327 1.400 . S
C327 H319 0.931 . S
C327 C326 1.400 . S
C327 C328 1.375 . S
C328 C327 1.375 . S
C328 C329 1.415 . S
C328 C330 1.501 . S
C329 H320 0.931 . S
C329 C325 1.382 . S
C329 C328 1.415 . S
C330 C328 1.501 . S
C330 C331 1.384 . S
C330 C335 1.408 . S
C331 H321 0.930 . S
C331 C330 1.384 . S
C331 C332 1.389 . S
C332 C331 1.389 . S
C332 C333 1.405 . S
C333 H322 0.930 . S
C333 C332 1.405 . S
C333 C334 1.364 . S
C334 C333 1.364 . S
C334 C335 1.400 . S
C335 H323 0.931 . S
C335 C330 1.408 . S
C335 C334 1.400 . S
H336 C342 0.930 . S
H337 C345 0.931 . S
H338 C347 0.931 . S
H339 C349 0.930 . S
H340 C351 0.930 . S
H341 C353 0.931 . S
C342 H336 0.930 . S
C342 C343 1.380 . S
C342 C344 1.394 . S
C343 C342 1.380 . S
C343 C347 1.382 . S
C344 C342 1.394 . S
C344 C345 1.400 . S
C345 H337 0.931 . S
C345 C344 1.400 . S
C345 C346 1.375 . S
C346 C345 1.375 . S
C346 C347 1.415 . S
C346 C348 1.501 . S
C347 H338 0.931 . S
C347 C343 1.382 . S
C347 C346 1.415 . S
C348 C346 1.501 . S
C348 C349 1.384 . S
C348 C353 1.408 . S
C349 H339 0.930 . S
C349 C348 1.384 . S
C349 C350 1.389 . S
C350 C349 1.389 . S
C350 C351 1.405 . S
C351 H340 0.930 . S
C351 C350 1.405 . S
C351 C352 1.364 . S
C352 C351 1.364 . S
C352 C353 1.400 . S
C353 H341 0.931 . S
C353 C348 1.408 . S
C353 C352 1.400 . S
H354 C360 0.930 . S
H355 C363 0.931 . S
H356 C365 0.931 . S
H357 C367 0.930 . S
H358 C369 0.930 . S
H359 C371 0.931 . S
C360 H354 0.930 . S
C360 C361 1.380 . S
C360 C362 1.394 . S
C361 C360 1.380 . S
C361 C365 1.382 . S
C362 C360 1.394 . S
C362 C363 1.400 . S
C363 H355 0.931 . S
C363 C362 1.400 . S
C363 C364 1.375 . S
C364 C363 1.375 . S
C364 C365 1.415 . S
C364 C366 1.501 . S
C365 H356 0.931 . S
C365 C361 1.382 . S
C365 C364 1.415 . S
C366 C364 1.501 . S
C366 C367 1.384 . S
C366 C371 1.408 . S
C367 H357 0.930 . S
C367 C366 1.384 . S
C367 C368 1.389 . S
C368 C367 1.389 . S
C368 C369 1.405 . S
C369 H358 0.930 . S
C369 C368 1.405 . S
C369 C370 1.364 . S
C370 C369 1.364 . S
C370 C371 1.400 . S
C371 H359 0.931 . S
C371 C366 1.408 . S
C371 C370 1.400 . S
H372 C378 0.930 . S
H373 C381 0.931 . S
H374 C383 0.931 . S
H375 C385 0.930 . S
H376 C387 0.930 . S
H377 C389 0.931 . S
C378 H372 0.930 . S
C378 C379 1.380 . S
C378 C380 1.394 . S
C379 C378 1.380 . S
C379 C383 1.382 . S
C380 C378 1.394 . S
C380 C381 1.400 . S
C381 H373 0.931 . S
C381 C380 1.400 . S
C381 C382 1.375 . S
C382 C381 1.375 . S
C382 C383 1.415 . S
C382 C384 1.501 . S
C383 H374 0.931 . S
C383 C379 1.382 . S
C383 C382 1.415 . S
C384 C382 1.501 . S
C384 C385 1.384 . S
C384 C389 1.408 . S
C385 H375 0.930 . S
C385 C384 1.384 . S
C385 C386 1.389 . S
C386 C385 1.389 . S
C386 C387 1.405 . S
C387 H376 0.930 . S
C387 C386 1.405 . S
C387 C388 1.364 . S
C388 C387 1.364 . S
C388 C389 1.400 . S
C389 H377 0.931 . S
C389 C384 1.408 . S
C389 C388 1.400 . S
H390 C396 0.930 . S
H391 C399 0.931 . S
H392 C401 0.931 . S
H393 C403 0.930 . S
H394 C405 0.930 . S
H395 C407 0.931 . S
C396 H390 0.930 . S
C396 C397 1.380 . S
C396 C398 1.394 . S
C397 C396 1.380 . S
C397 C401 1.382 . S
C398 C396 1.394 . S
C398 C399 1.400 . S
C399 H391 0.931 . S
C399 C398 1.400 . S
C399 C400 1.375 . S
C400 C399 1.375 . S
C400 C401 1.415 . S
C400 C402 1.501 . S
C401 H392 0.931 . S
C401 C397 1.382 . S
C401 C400 1.415 . S
C402 C400 1.501 . S
C402 C403 1.384 . S
C402 C407 1.408 . S
C403 H393 0.930 . S
C403 C402 1.384 . S
C403 C404 1.389 . S
C404 C403 1.389 . S
C404 C405 1.405 . S
C405 H394 0.930 . S
C405 C404 1.405 . S
C405 C406 1.364 . S
C406 C405 1.364 . S
C406 C407 1.400 . S
C407 H395 0.931 . S
C407 C402 1.408 . S
C407 C406 1.400 . S
H408 C414 0.930 . S
H409 C417 0.931 . S
H410 C419 0.931 . S
H411 C421 0.930 . S
H412 C423 0.930 . S
H413 C425 0.931 . S
C414 H408 0.930 . S
C414 C415 1.380 . S
C414 C416 1.394 . S
C415 C414 1.380 . S
C415 C419 1.382 . S
C416 C414 1.394 . S
C416 C417 1.400 . S
C417 H409 0.931 . S
C417 C416 1.400 . S
C417 C418 1.375 . S
C418 C417 1.375 . S
C418 C419 1.415 . S
C418 C420 1.501 . S
C419 H410 0.931 . S
C419 C415 1.382 . S
C419 C418 1.415 . S
C420 C418 1.501 . S
C420 C421 1.384 . S
C420 C425 1.408 . S
C421 H411 0.930 . S
C421 C420 1.384 . S
C421 C422 1.389 . S
C422 C421 1.389 . S
C422 C423 1.405 . S
C423 H412 0.930 . S
C423 C422 1.405 . S
C423 C424 1.364 . S
C424 C423 1.364 . S
C424 C425 1.400 . S
C425 H413 0.931 . S
C425 C420 1.408 . S
C425 C424 1.400 . S
H426 C444 0.951 . S
H427 C446 0.951 . S
H428 C448 0.950 . S
H429 C449 0.950 . S
H430 C451 0.950 . S
H431 C454 0.950 . S
H432 C455 0.950 . S
H433 C457 0.950 . S
H434 C458 0.950 . S
H435 C459 0.951 . S
H436 C461 0.951 . S
H437 C463 0.950 . S
H438 C464 0.950 . S
H439 C466 0.950 . S
H440 C469 0.950 . S
H441 C470 0.950 . S
H442 C472 0.950 . S
H443 C473 0.950 . S
C444 H426 0.951 . S
C444 C445 1.366 . S
C444 C446 1.388 . S
C445 C444 1.366 . S
C445 C449 1.385 . S
C446 H427 0.951 . S
C446 C444 1.388 . S
C446 C447 1.366 . S
C447 C446 1.366 . S
C447 C448 1.414 . S
C447 C450 1.499 . S
C448 H428 0.950 . S
C448 C447 1.414 . S
C448 C449 1.374 . S
C449 H429 0.950 . S
C449 C445 1.385 . S
C449 C448 1.374 . S
C450 C447 1.499 . S
C450 C451 1.373 . S
C450 C452 1.389 . S
C451 H430 0.950 . S
C451 C450 1.373 . S
C451 C467 1.377 . S
C452 C450 1.389 . S
C452 C453 1.524 . S
C452 C466 1.377 . S
C453 C452 1.524 . S
C453 C454 1.397 . S
C453 C458 1.363 . S
C454 H431 0.950 . S
C454 C453 1.397 . S
C454 C455 1.334 . S
C455 H432 0.950 . S
C455 C454 1.334 . S
C455 C456 1.287 . S
C456 C455 1.287 . S
C456 C457 1.524 . S
C456 H475 0.913 . S
C457 H433 0.950 . S
C457 C456 1.524 . S
C457 C458 1.415 . S
C458 H434 0.950 . S
C458 C453 1.363 . S
C458 C457 1.415 . S
C459 H435 0.951 . S
C459 C460 1.366 . S
C459 C461 1.388 . S
C460 C459 1.366 . S
C460 C464 1.385 . S
C461 H436 0.951 . S
C461 C459 1.388 . S
C461 C462 1.366 . S
C462 C461 1.366 . S
C462 C463 1.414 . S
C462 C465 1.499 . S
C463 H437 0.950 . S
C463 C462 1.414 . S
C463 C464 1.374 . S
C464 H438 0.950 . S
C464 C460 1.385 . S
C464 C463 1.374 . S
C465 C462 1.499 . S
C465 C466 1.373 . S
C465 C467 1.389 . S
C466 H439 0.950 . S
C466 C452 1.377 . S
C466 C465 1.373 . S
C467 C451 1.377 . S
C467 C465 1.389 . S
C467 C468 1.524 . S
C468 C467 1.524 . S
C468 C469 1.397 . S
C468 C473 1.363 . S
C469 H440 0.950 . S
C469 C468 1.397 . S
C469 C470 1.334 . S
C470 H441 0.950 . S
C470 C469 1.334 . S
C470 C471 1.287 . S
C471 C470 1.287 . S
C471 C472 1.524 . S
C471 H474 0.999 . S
C472 H442 0.950 . S
C472 C471 1.524 . S
C472 C473 1.415 . S
C473 H443 0.950 . S
C473 C468 1.363 . S
C473 C472 1.415 . S
H474 C471 0.999 . S
H475 C456 0.913 . S
H476 C494 0.951 . S
H477 C496 0.951 . S
H478 C498 0.950 . S
H479 C499 0.950 . S
H480 C501 0.950 . S
H481 C504 0.950 . S
H482 C505 0.950 . S
H483 C507 0.950 . S
H484 C508 0.950 . S
H485 C509 0.951 . S
H486 C511 0.951 . S
H487 C513 0.950 . S
H488 C514 0.950 . S
H489 C516 0.950 . S
H490 C519 0.950 . S
H491 C520 0.950 . S
H492 C522 0.950 . S
H493 C523 0.950 . S
C494 H476 0.951 . S
C494 C495 1.366 . S
C494 C496 1.388 . S
C495 C494 1.366 . S
C495 C499 1.385 . S
C496 H477 0.951 . S
C496 C494 1.388 . S
C496 C497 1.366 . S
C497 C496 1.366 . S
C497 C498 1.414 . S
C497 C500 1.499 . S
C498 H478 0.950 . S
C498 C497 1.414 . S
C498 C499 1.374 . S
C499 H479 0.950 . S
C499 C495 1.385 . S
C499 C498 1.374 . S
C500 C497 1.499 . S
C500 C501 1.373 . S
C500 C502 1.389 . S
C501 H480 0.950 . S
C501 C500 1.373 . S
C501 C517 1.377 . S
C502 C500 1.389 . S
C502 C503 1.524 . S
C502 C516 1.377 . S
C503 C502 1.524 . S
C503 C504 1.397 . S
C503 C508 1.363 . S
C504 H481 0.950 . S
C504 C503 1.397 . S
C504 C505 1.334 . S
C505 H482 0.950 . S
C505 C504 1.334 . S
C505 C506 1.287 . S
C506 C505 1.287 . S
C506 C507 1.524 . S
C506 H525 0.913 . S
C507 H483 0.950 . S
C507 C506 1.524 . S
C507 C508 1.415 . S
C508 H484 0.950 . S
C508 C503 1.363 . S
C508 C507 1.415 . S
C509 H485 0.951 . S
C509 C510 1.366 . S
C509 C511 1.388 . S
C510 C509 1.366 . S
C510 C514 1.385 . S
C511 H486 0.951 . S
C511 C509 1.388 . S
C511 C512 1.366 . S
C512 C511 1.366 . S
C512 C513 1.414 . S
C512 C515 1.499 . S
C513 H487 0.950 . S
C513 C512 1.414 . S
C513 C514 1.374 . S
C514 H488 0.950 . S
C514 C510 1.385 . S
C514 C513 1.374 . S
C515 C512 1.499 . S
C515 C516 1.373 . S
C515 C517 1.389 . S
C516 H489 0.950 . S
C516 C502 1.377 . S
C516 C515 1.373 . S
C517 C501 1.377 . S
C517 C515 1.389 . S
C517 C518 1.524 . S
C518 C517 1.524 . S
C518 C519 1.397 . S
C518 C523 1.363 . S
C519 H490 0.950 . S
C519 C518 1.397 . S
C519 C520 1.334 . S
C520 H491 0.950 . S
C520 C519 1.334 . S
C520 C521 1.287 . S
C521 C520 1.287 . S
C521 C522 1.524 . S
C521 H524 0.999 . S
C522 H492 0.950 . S
C522 C521 1.524 . S
C522 C523 1.415 . S
C523 H493 0.950 . S
C523 C518 1.363 . S
C523 C522 1.415 . S
H524 C521 0.999 . S
H525 C506 0.913 . S
H526 C544 0.951 . S
H527 C546 0.951 . S
H528 C548 0.950 . S
H529 C549 0.950 . S
H530 C551 0.950 . S
H531 C554 0.950 . S
H532 C555 0.950 . S
H533 C557 0.950 . S
H534 C558 0.950 . S
H535 C559 0.951 . S
H536 C561 0.951 . S
H537 C563 0.950 . S
H538 C564 0.950 . S
H539 C566 0.950 . S
H540 C569 0.950 . S
H541 C570 0.950 . S
H542 C572 0.950 . S
H543 C573 0.950 . S
C544 H526 0.951 . S
C544 C545 1.366 . S
C544 C546 1.388 . S
C545 C544 1.366 . S
C545 C549 1.385 . S
C546 H527 0.951 . S
C546 C544 1.388 . S
C546 C547 1.366 . S
C547 C546 1.366 . S
C547 C548 1.414 . S
C547 C550 1.499 . S
C548 H528 0.950 . S
C548 C547 1.414 . S
C548 C549 1.374 . S
C549 H529 0.950 . S
C549 C545 1.385 . S
C549 C548 1.374 . S
C550 C547 1.499 . S
C550 C551 1.373 . S
C550 C552 1.389 . S
C551 H530 0.950 . S
C551 C550 1.373 . S
C551 C567 1.377 . S
C552 C550 1.389 . S
C552 C553 1.524 . S
C552 C566 1.377 . S
C553 C552 1.524 . S
C553 C554 1.397 . S
C553 C558 1.363 . S
C554 H531 0.950 . S
C554 C553 1.397 . S
C554 C555 1.334 . S
C555 H532 0.950 . S
C555 C554 1.334 . S
C555 C556 1.287 . S
C556 C555 1.287 . S
C556 C557 1.524 . S
C556 H575 0.913 . S
C557 H533 0.950 . S
C557 C556 1.524 . S
C557 C558 1.415 . S
C558 H534 0.950 . S
C558 C553 1.363 . S
C558 C557 1.415 . S
C559 H535 0.951 . S
C559 C560 1.366 . S
C559 C561 1.388 . S
C560 C559 1.366 . S
C560 C564 1.385 . S
C561 H536 0.951 . S
C561 C559 1.388 . S
C561 C562 1.366 . S
C562 C561 1.366 . S
C562 C563 1.414 . S
C562 C565 1.499 . S
C563 H537 0.950 . S
C563 C562 1.414 . S
C563 C564 1.374 . S
C564 H538 0.950 . S
C564 C560 1.385 . S
C564 C563 1.374 . S
C565 C562 1.499 . S
C565 C566 1.373 . S
C565 C567 1.389 . S
C566 H539 0.950 . S
C566 C552 1.377 . S
C566 C565 1.373 . S
C567 C551 1.377 . S
C567 C565 1.389 . S
C567 C568 1.524 . S
C568 C567 1.524 . S
C568 C569 1.397 . S
C568 C573 1.363 . S
C569 H540 0.950 . S
C569 C568 1.397 . S
C569 C570 1.334 . S
C570 H541 0.950 . S
C570 C569 1.334 . S
C570 C571 1.287 . S
C571 C570 1.287 . S
C571 C572 1.524 . S
C571 H574 0.999 . S
C572 H542 0.950 . S
C572 C571 1.524 . S
C572 C573 1.415 . S
C573 H543 0.950 . S
C573 C568 1.363 . S
C573 C572 1.415 . S
H574 C571 0.999 . S
H575 C556 0.913 . S
H576 C594 0.951 . S
H577 C596 0.951 . S
H578 C598 0.950 . S
H579 C599 0.950 . S
H580 C601 0.950 . S
H581 C604 0.950 . S
H582 C605 0.950 . S
H583 C607 0.950 . S
H584 C608 0.950 . S
H585 C609 0.951 . S
H586 C611 0.951 . S
H587 C613 0.950 . S
H588 C614 0.950 . S
H589 C616 0.950 . S
H590 C619 0.950 . S
H591 C620 0.950 . S
H592 C622 0.950 . S
H593 C623 0.950 . S
C594 H576 0.951 . S
C594 C595 1.366 . S
C594 C596 1.388 . S
C595 C594 1.366 . S
C595 C599 1.385 . S
C596 H577 0.951 . S
C596 C594 1.388 . S
C596 C597 1.366 . S
C597 C596 1.366 . S
C597 C598 1.414 . S
C597 C600 1.499 . S
C598 H578 0.950 . S
C598 C597 1.414 . S
C598 C599 1.374 . S
C599 H579 0.950 . S
C599 C595 1.385 . S
C599 C598 1.374 . S
C600 C597 1.499 . S
C600 C601 1.373 . S
C600 C602 1.389 . S
C601 H580 0.950 . S
C601 C600 1.373 . S
C601 C617 1.377 . S
C602 C600 1.389 . S
C602 C603 1.524 . S
C602 C616 1.377 . S
C603 C602 1.524 . S
C603 C604 1.397 . S
C603 C608 1.363 . S
C604 H581 0.950 . S
C604 C603 1.397 . S
C604 C605 1.334 . S
C605 H582 0.950 . S
C605 C604 1.334 . S
C605 C606 1.287 . S
C606 C605 1.287 . S
C606 C607 1.524 . S
C606 H625 0.913 . S
C607 H583 0.950 . S
C607 C606 1.524 . S
C607 C608 1.415 . S
C608 H584 0.950 . S
C608 C603 1.363 . S
C608 C607 1.415 . S
C609 H585 0.951 . S
C609 C610 1.366 . S
C609 C611 1.388 . S
C610 C609 1.366 . S
C610 C614 1.385 . S
C611 H586 0.951 . S
C611 C609 1.388 . S
C611 C612 1.366 . S
C612 C611 1.366 . S
C612 C613 1.414 . S
C612 C615 1.499 . S
C613 H587 0.950 . S
C613 C612 1.414 . S
C613 C614 1.374 . S
C614 H588 0.950 . S
C614 C610 1.385 . S
C614 C613 1.374 . S
C615 C612 1.499 . S
C615 C616 1.373 . S
C615 C617 1.389 . S
C616 H589 0.950 . S
C616 C602 1.377 . S
C616 C615 1.373 . S
C617 C601 1.377 . S
C617 C615 1.389 . S
C617 C618 1.524 . S
C618 C617 1.524 . S
C618 C619 1.397 . S
C618 C623 1.363 . S
C619 H590 0.950 . S
C619 C618 1.397 . S
C619 C620 1.334 . S
C620 H591 0.950 . S
C620 C619 1.334 . S
C620 C621 1.287 . S
C621 C620 1.287 . S
C621 C622 1.524 . S
C621 H624 0.999 . S
C622 H592 0.950 . S
C622 C621 1.524 . S
C622 C623 1.415 . S
C623 H593 0.950 . S
C623 C618 1.363 . S
C623 C622 1.415 . S
H624 C621 0.999 . S
H625 C606 0.913 . S
H626 C644 0.951 . S
H627 C646 0.951 . S
H628 C648 0.950 . S
H629 C649 0.950 . S
H630 C651 0.950 . S
H631 C654 0.950 . S
H632 C655 0.950 . S
H633 C657 0.950 . S
H634 C658 0.950 . S
H635 C659 0.951 . S
H636 C661 0.951 . S
H637 C663 0.950 . S
H638 C664 0.950 . S
H639 C666 0.950 . S
H640 C669 0.950 . S
H641 C670 0.950 . S
H642 C672 0.950 . S
H643 C673 0.950 . S
C644 H626 0.951 . S
C644 C645 1.366 . S
C644 C646 1.388 . S
C645 C644 1.366 . S
C645 C649 1.385 . S
C646 H627 0.951 . S
C646 C644 1.388 . S
C646 C647 1.366 . S
C647 C646 1.366 . S
C647 C648 1.414 . S
C647 C650 1.499 . S
C648 H628 0.950 . S
C648 C647 1.414 . S
C648 C649 1.374 . S
C649 H629 0.950 . S
C649 C645 1.385 . S
C649 C648 1.374 . S
C650 C647 1.499 . S
C650 C651 1.373 . S
C650 C652 1.389 . S
C651 H630 0.950 . S
C651 C650 1.373 . S
C651 C667 1.377 . S
C652 C650 1.389 . S
C652 C653 1.524 . S
C652 C666 1.377 . S
C653 C652 1.524 . S
C653 C654 1.397 . S
C653 C658 1.363 . S
C654 H631 0.950 . S
C654 C653 1.397 . S
C654 C655 1.334 . S
C655 H632 0.950 . S
C655 C654 1.334 . S
C655 C656 1.287 . S
C656 C655 1.287 . S
C656 C657 1.524 . S
C656 H675 0.913 . S
C657 H633 0.950 . S
C657 C656 1.524 . S
C657 C658 1.415 . S
C658 H634 0.950 . S
C658 C653 1.363 . S
C658 C657 1.415 . S
C659 H635 0.951 . S
C659 C660 1.366 . S
C659 C661 1.388 . S
C660 C659 1.366 . S
C660 C664 1.385 . S
C661 H636 0.951 . S
C661 C659 1.388 . S
C661 C662 1.366 . S
C662 C661 1.366 . S
C662 C663 1.414 . S
C662 C665 1.499 . S
C663 H637 0.950 . S
C663 C662 1.414 . S
C663 C664 1.374 . S
C664 H638 0.950 . S
C664 C660 1.385 . S
C664 C663 1.374 . S
C665 C662 1.499 . S
C665 C666 1.373 . S
C665 C667 1.389 . S
C666 H639 0.950 . S
C666 C652 1.377 . S
C666 C665 1.373 . S
C667 C651 1.377 . S
C667 C665 1.389 . S
C667 C668 1.524 . S
C668 C667 1.524 . S
C668 C669 1.397 . S
C668 C673 1.363 . S
C669 H640 0.950 . S
C669 C668 1.397 . S
C669 C670 1.334 . S
C670 H641 0.950 . S
C670 C669 1.334 . S
C670 C671 1.287 . S
C671 C670 1.287 . S
C671 C672 1.524 . S
C671 H674 0.999 . S
C672 H642 0.950 . S
C672 C671 1.524 . S
C672 C673 1.415 . S
C673 H643 0.950 . S
C673 C668 1.363 . S
C673 C672 1.415 . S
H674 C671 0.999 . S
H675 C656 0.913 . S
H676 C694 0.951 . S
H677 C696 0.951 . S
H678 C698 0.950 . S
H679 C699 0.950 . S
H680 C701 0.950 . S
H681 C704 0.950 . S
H682 C705 0.950 . S
H683 C707 0.950 . S
H684 C708 0.950 . S
H685 C709 0.951 . S
H686 C711 0.951 . S
H687 C713 0.950 . S
H688 C714 0.950 . S
H689 C716 0.950 . S
H690 C719 0.950 . S
H691 C720 0.950 . S
H692 C722 0.950 . S
H693 C723 0.950 . S
C694 H676 0.951 . S
C694 C695 1.366 . S
C694 C696 1.388 . S
C695 C694 1.366 . S
C695 C699 1.385 . S
C696 H677 0.951 . S
C696 C694 1.388 . S
C696 C697 1.366 . S
C697 C696 1.366 . S
C697 C698 1.414 . S
C697 C700 1.499 . S
C698 H678 0.950 . S
C698 C697 1.414 . S
C698 C699 1.374 . S
C699 H679 0.950 . S
C699 C695 1.385 . S
C699 C698 1.374 . S
C700 C697 1.499 . S
C700 C701 1.373 . S
C700 C702 1.389 . S
C701 H680 0.950 . S
C701 C700 1.373 . S
C701 C717 1.377 . S
C702 C700 1.389 . S
C702 C703 1.524 . S
C702 C716 1.377 . S
C703 C702 1.524 . S
C703 C704 1.397 . S
C703 C708 1.363 . S
C704 H681 0.950 . S
C704 C703 1.397 . S
C704 C705 1.334 . S
C705 H682 0.950 . S
C705 C704 1.334 . S
C705 C706 1.287 . S
C706 C705 1.287 . S
C706 C707 1.524 . S
C706 H725 0.913 . S
C707 H683 0.950 . S
C707 C706 1.524 . S
C707 C708 1.415 . S
C708 H684 0.950 . S
C708 C703 1.363 . S
C708 C707 1.415 . S
C709 H685 0.951 . S
C709 C710 1.366 . S
C709 C711 1.388 . S
C710 C709 1.366 . S
C710 C714 1.385 . S
C711 H686 0.951 . S
C711 C709 1.388 . S
C711 C712 1.366 . S
C712 C711 1.366 . S
C712 C713 1.414 . S
C712 C715 1.499 . S
C713 H687 0.950 . S
C713 C712 1.414 . S
C713 C714 1.374 . S
C714 H688 0.950 . S
C714 C710 1.385 . S
C714 C713 1.374 . S
C715 C712 1.499 . S
C715 C716 1.373 . S
C715 C717 1.389 . S
C716 H689 0.950 . S
C716 C702 1.377 . S
C716 C715 1.373 . S
C717 C701 1.377 . S
C717 C715 1.389 . S
C717 C718 1.524 . S
C718 C717 1.524 . S
C718 C719 1.397 . S
C718 C723 1.363 . S
C719 H690 0.950 . S
C719 C718 1.397 . S
C719 C720 1.334 . S
C720 H691 0.950 . S
C720 C719 1.334 . S
C720 C721 1.287 . S
C721 C720 1.287 . S
C721 C722 1.524 . S
C721 H724 0.999 . S
C722 H692 0.950 . S
C722 C721 1.524 . S
C722 C723 1.415 . S
C723 H693 0.950 . S
C723 C718 1.363 . S
C723 C722 1.415 . S
H724 C721 0.999 . S
H725 C706 0.913 . S
H726 C744 0.951 . S
H727 C746 0.951 . S
H728 C748 0.950 . S
H729 C749 0.950 . S
H730 C751 0.950 . S
H731 C754 0.950 . S
H732 C755 0.950 . S
H733 C757 0.950 . S
H734 C758 0.950 . S
H735 C759 0.951 . S
H736 C761 0.951 . S
H737 C763 0.950 . S
H738 C764 0.950 . S
H739 C766 0.950 . S
H740 C769 0.950 . S
H741 C770 0.950 . S
H742 C772 0.950 . S
H743 C773 0.950 . S
C744 H726 0.951 . S
C744 C745 1.366 . S
C744 C746 1.388 . S
C745 C744 1.366 . S
C745 C749 1.385 . S
C746 H727 0.951 . S
C746 C744 1.388 . S
C746 C747 1.366 . S
C747 C746 1.366 . S
C747 C748 1.414 . S
C747 C750 1.499 . S
C748 H728 0.950 . S
C748 C747 1.414 . S
C748 C749 1.374 . S
C749 H729 0.950 . S
C749 C745 1.385 . S
C749 C748 1.374 . S
C750 C747 1.499 . S
C750 C751 1.373 . S
C750 C752 1.389 . S
C751 H730 0.950 . S
C751 C750 1.373 . S
C751 C767 1.377 . S
C752 C750 1.389 . S
C752 C753 1.524 . S
C752 C766 1.377 . S
C753 C752 1.524 . S
C753 C754 1.397 . S
C753 C758 1.363 . S
C754 H731 0.950 . S
C754 C753 1.397 . S
C754 C755 1.334 . S
C755 H732 0.950 . S
C755 C754 1.334 . S
C755 C756 1.287 . S
C756 C755 1.287 . S
C756 C757 1.524 . S
C756 H775 0.913 . S
C757 H733 0.950 . S
C757 C756 1.524 . S
C757 C758 1.415 . S
C758 H734 0.950 . S
C758 C753 1.363 . S
C758 C757 1.415 . S
C759 H735 0.951 . S
C759 C760 1.366 . S
C759 C761 1.388 . S
C760 C759 1.366 . S
C760 C764 1.385 . S
C761 H736 0.951 . S
C761 C759 1.388 . S
C761 C762 1.366 . S
C762 C761 1.366 . S
C762 C763 1.414 . S
C762 C765 1.499 . S
C763 H737 0.950 . S
C763 C762 1.414 . S
C763 C764 1.374 . S
C764 H738 0.950 . S
C764 C760 1.385 . S
C764 C763 1.374 . S
C765 C762 1.499 . S
C765 C766 1.373 . S
C765 C767 1.389 . S
C766 H739 0.950 . S
C766 C752 1.377 . S
C766 C765 1.373 . S
C767 C751 1.377 . S
C767 C765 1.389 . S
C767 C768 1.524 . S
C768 C767 1.524 . S
C768 C769 1.397 . S
C768 C773 1.363 . S
C769 H740 0.950 . S
C769 C768 1.397 . S
C769 C770 1.334 . S
C770 H741 0.950 . S
C770 C769 1.334 . S
C770 C771 1.287 . S
C771 C770 1.287 . S
C771 C772 1.524 . S
C771 H774 0.999 . S
C772 H742 0.950 . S
C772 C771 1.524 . S
C772 C773 1.415 . S
C773 H743 0.950 . S
C773 C768 1.363 . S
C773 C772 1.415 . S
H774 C771 0.999 . S
H775 C756 0.913 . S
H776 C794 0.951 . S
H777 C796 0.951 . S
H778 C798 0.950 . S
H779 C799 0.950 . S
H780 C801 0.950 . S
H781 C804 0.950 . S
H782 C805 0.950 . S
H783 C807 0.950 . S
H784 C808 0.950 . S
H785 C809 0.951 . S
H786 C811 0.951 . S
H787 C813 0.950 . S
H788 C814 0.950 . S
H789 C816 0.950 . S
H790 C819 0.950 . S
H791 C820 0.950 . S
H792 C822 0.950 . S
H793 C823 0.950 . S
C794 H776 0.951 . S
C794 C795 1.366 . S
C794 C796 1.388 . S
C795 C794 1.366 . S
C795 C799 1.385 . S
C796 H777 0.951 . S
C796 C794 1.388 . S
C796 C797 1.366 . S
C797 C796 1.366 . S
C797 C798 1.414 . S
C797 C800 1.499 . S
C798 H778 0.950 . S
C798 C797 1.414 . S
C798 C799 1.374 . S
C799 H779 0.950 . S
C799 C795 1.385 . S
C799 C798 1.374 . S
C800 C797 1.499 . S
C800 C801 1.373 . S
C800 C802 1.389 . S
C801 H780 0.950 . S
C801 C800 1.373 . S
C801 C817 1.377 . S
C802 C800 1.389 . S
C802 C803 1.524 . S
C802 C816 1.377 . S
C803 C802 1.524 . S
C803 C804 1.397 . S
C803 C808 1.363 . S
C804 H781 0.950 . S
C804 C803 1.397 . S
C804 C805 1.334 . S
C805 H782 0.950 . S
C805 C804 1.334 . S
C805 C806 1.287 . S
C806 C805 1.287 . S
C806 C807 1.524 . S
C806 H825 0.913 . S
C807 H783 0.950 . S
C807 C806 1.524 . S
C807 C808 1.415 . S
C808 H784 0.950 . S
C808 C803 1.363 . S
C808 C807 1.415 . S
C809 H785 0.951 . S
C809 C810 1.366 . S
C809 C811 1.388 . S
C810 C809 1.366 . S
C810 C814 1.385 . S
C811 H786 0.951 . S
C811 C809 1.388 . S
C811 C812 1.366 . S
C812 C811 1.366 . S
C812 C813 1.414 . S
C812 C815 1.499 . S
C813 H787 0.950 . S
C813 C812 1.414 . S
C813 C814 1.374 . S
C814 H788 0.950 . S
C814 C810 1.385 . S
C814 C813 1.374 . S
C815 C812 1.499 . S
C815 C816 1.373 . S
C815 C817 1.389 . S
C816 H789 0.950 . S
C816 C802 1.377 . S
C816 C815 1.373 . S
C817 C801 1.377 . S
C817 C815 1.389 . S
C817 C818 1.524 . S
C818 C817 1.524 . S
C818 C819 1.397 . S
C818 C823 1.363 . S
C819 H790 0.950 . S
C819 C818 1.397 . S
C819 C820 1.334 . S
C820 H791 0.950 . S
C820 C819 1.334 . S
C820 C821 1.287 . S
C821 C820 1.287 . S
C821 C822 1.524 . S
C821 H824 0.999 . S
C822 H792 0.950 . S
C822 C821 1.524 . S
C822 C823 1.415 . S
C823 H793 0.950 . S
C823 C818 1.363 . S
C823 C822 1.415 . S
H824 C821 0.999 . S
H825 C806 0.913 . S
H826 C844 0.951 . S
H827 C846 0.951 . S
H828 C848 0.950 . S
H829 C849 0.950 . S
H830 C851 0.950 . S
H831 C854 0.950 . S
H832 C855 0.950 . S
H833 C857 0.950 . S
H834 C858 0.950 . S
H835 C859 0.951 . S
H836 C861 0.951 . S
H837 C863 0.950 . S
H838 C864 0.950 . S
H839 C866 0.950 . S
H840 C869 0.950 . S
H841 C870 0.950 . S
H842 C872 0.950 . S
H843 C873 0.950 . S
C844 H826 0.951 . S
C844 C845 1.366 . S
C844 C846 1.388 . S
C845 C844 1.366 . S
C845 C849 1.385 . S
C846 H827 0.951 . S
C846 C844 1.388 . S
C846 C847 1.366 . S
C847 C846 1.366 . S
C847 C848 1.414 . S
C847 C850 1.499 . S
C848 H828 0.950 . S
C848 C847 1.414 . S
C848 C849 1.374 . S
C849 H829 0.950 . S
C849 C845 1.385 . S
C849 C848 1.374 . S
C850 C847 1.499 . S
C850 C851 1.373 . S
C850 C852 1.389 . S
C851 H830 0.950 . S
C851 C850 1.373 . S
C851 C867 1.377 . S
C852 C850 1.389 . S
C852 C853 1.524 . S
C852 C866 1.377 . S
C853 C852 1.524 . S
C853 C854 1.397 . S
C853 C858 1.363 . S
C854 H831 0.950 . S
C854 C853 1.397 . S
C854 C855 1.334 . S
C855 H832 0.950 . S
C855 C854 1.334 . S
C855 C856 1.287 . S
C856 C855 1.287 . S
C856 C857 1.524 . S
C856 H875 0.913 . S
C857 H833 0.950 . S
C857 C856 1.524 . S
C857 C858 1.415 . S
C858 H834 0.950 . S
C858 C853 1.363 . S
C858 C857 1.415 . S
C859 H835 0.951 . S
C859 C860 1.366 . S
C859 C861 1.388 . S
C860 C859 1.366 . S
C860 C864 1.385 . S
C861 H836 0.951 . S
C861 C859 1.388 . S
C861 C862 1.366 . S
C862 C861 1.366 . S
C862 C863 1.414 . S
C862 C865 1.499 . S
C863 H837 0.950 . S
C863 C862 1.414 . S
C863 C864 1.374 . S
C864 H838 0.950 . S
C864 C860 1.385 . S
C864 C863 1.374 . S
C865 C862 1.499 . S
C865 C866 1.373 . S
C865 C867 1.389 . S
C866 H839 0.950 . S
C866 C852 1.377 . S
C866 C865 1.373 . S
C867 C851 1.377 . S
C867 C865 1.389 . S
C867 C868 1.524 . S
C868 C867 1.524 . S
C868 C869 1.397 . S
C868 C873 1.363 . S
C869 H840 0.950 . S
C869 C868 1.397 . S
C869 C870 1.334 . S
C870 H841 0.950 . S
C870 C869 1.334 . S
C870 C871 1.287 . S
C871 C870 1.287 . S
C871 C872 1.524 . S
C871 H874 0.999 . S
C872 H842 0.950 . S
C872 C871 1.524 . S
C872 C873 1.415 . S
C873 H843 0.950 . S
C873 C868 1.363 . S
C873 C872 1.415 . S
H874 C871 0.999 . S
H875 C856 0.913 . S
H876 C894 0.951 . S
H877 C896 0.951 . S
H878 C898 0.950 . S
H879 C899 0.950 . S
H880 C901 0.950 . S
H881 C904 0.950 . S
H882 C905 0.950 . S
H883 C907 0.950 . S
H884 C908 0.950 . S
H885 C909 0.951 . S
H886 C911 0.951 . S
H887 C913 0.950 . S
H888 C914 0.950 . S
H889 C916 0.950 . S
H890 C919 0.950 . S
H891 C920 0.950 . S
H892 C922 0.950 . S
H893 C923 0.950 . S
C894 H876 0.951 . S
C894 C895 1.366 . S
C894 C896 1.388 . S
C895 C894 1.366 . S
C895 C899 1.385 . S
C896 H877 0.951 . S
C896 C894 1.388 . S
C896 C897 1.366 . S
C897 C896 1.366 . S
C897 C898 1.414 . S
C897 C900 1.499 . S
C898 H878 0.950 . S
C898 C897 1.414 . S
C898 C899 1.374 . S
C899 H879 0.950 . S
C899 C895 1.385 . S
C899 C898 1.374 . S
C900 C897 1.499 . S
C900 C901 1.373 . S
C900 C902 1.389 . S
C901 H880 0.950 . S
C901 C900 1.373 . S
C901 C917 1.377 . S
C902 C900 1.389 . S
C902 C903 1.524 . S
C902 C916 1.377 . S
C903 C902 1.524 . S
C903 C904 1.397 . S
C903 C908 1.363 . S
C904 H881 0.950 . S
C904 C903 1.397 . S
C904 C905 1.334 . S
C905 H882 0.950 . S
C905 C904 1.334 . S
C905 C906 1.287 . S
C906 C905 1.287 . S
C906 C907 1.524 . S
C906 H925 0.913 . S
C907 H883 0.950 . S
C907 C906 1.524 . S
C907 C908 1.415 . S
C908 H884 0.950 . S
C908 C903 1.363 . S
C908 C907 1.415 . S
C909 H885 0.951 . S
C909 C910 1.366 . S
C909 C911 1.388 . S
C910 C909 1.366 . S
C910 C914 1.385 . S
C911 H886 0.951 . S
C911 C909 1.388 . S
C911 C912 1.366 . S
C912 C911 1.366 . S
C912 C913 1.414 . S
C912 C915 1.499 . S
C913 H887 0.950 . S
C913 C912 1.414 . S
C913 C914 1.374 . S
C914 H888 0.950 . S
C914 C910 1.385 . S
C914 C913 1.374 . S
C915 C912 1.499 . S
C915 C916 1.373 . S
C915 C917 1.389 . S
C916 H889 0.950 . S
C916 C902 1.377 . S
C916 C915 1.373 . S
C917 C901 1.377 . S
C917 C915 1.389 . S
C917 C918 1.524 . S
C918 C917 1.524 . S
C918 C919 1.397 . S
C918 C923 1.363 . S
C919 H890 0.950 . S
C919 C918 1.397 . S
C919 C920 1.334 . S
C920 H891 0.950 . S
C920 C919 1.334 . S
C920 C921 1.287 . S
C921 C920 1.287 . S
C921 C922 1.524 . S
C921 H924 0.999 . S
C922 H892 0.950 . S
C922 C921 1.524 . S
C922 C923 1.415 . S
C923 H893 0.950 . S
C923 C918 1.363 . S
C923 C922 1.415 . S
H924 C921 0.999 . S
H925 C906 0.913 . S
H926 C944 0.951 . S
H927 C946 0.951 . S
H928 C948 0.950 . S
H929 C949 0.950 . S
H930 C951 0.950 . S
H931 C954 0.950 . S
H932 C955 0.950 . S
H933 C957 0.950 . S
H934 C958 0.950 . S
H935 C959 0.951 . S
H936 C961 0.951 . S
H937 C963 0.950 . S
H938 C964 0.950 . S
H939 C966 0.950 . S
H940 C969 0.950 . S
H941 C970 0.950 . S
H942 C972 0.950 . S
H943 C973 0.950 . S
C944 H926 0.951 . S
C944 C945 1.366 . S
C944 C946 1.388 . S
C945 C944 1.366 . S
C945 C949 1.385 . S
C946 H927 0.951 . S
C946 C944 1.388 . S
C946 C947 1.366 . S
C947 C946 1.366 . S
C947 C948 1.414 . S
C947 C950 1.499 . S
C948 H928 0.950 . S
C948 C947 1.414 . S
C948 C949 1.374 . S
C949 H929 0.950 . S
C949 C945 1.385 . S
C949 C948 1.374 . S
C950 C947 1.499 . S
C950 C951 1.373 . S
C950 C952 1.389 . S
C951 H930 0.950 . S
C951 C950 1.373 . S
C951 C967 1.377 . S
C952 C950 1.389 . S
C952 C953 1.524 . S
C952 C966 1.377 . S
C953 C952 1.524 . S
C953 C954 1.397 . S
C953 C958 1.363 . S
C954 H931 0.950 . S
C954 C953 1.397 . S
C954 C955 1.334 . S
C955 H932 0.950 . S
C955 C954 1.334 . S
C955 C956 1.287 . S
C956 C955 1.287 . S
C956 C957 1.524 . S
C956 H975 0.913 . S
C957 H933 0.950 . S
C957 C956 1.524 . S
C957 C958 1.415 . S
C958 H934 0.950 . S
C958 C953 1.363 . S
C958 C957 1.415 . S
C959 H935 0.951 . S
C959 C960 1.366 . S
C959 C961 1.388 . S
C960 C959 1.366 . S
C960 C964 1.385 . S
C961 H936 0.951 . S
C961 C959 1.388 . S
C961 C962 1.366 . S
C962 C961 1.366 . S
C962 C963 1.414 . S
C962 C965 1.499 . S
C963 H937 0.950 . S
C963 C962 1.414 . S
C963 C964 1.374 . S
C964 H938 0.950 . S
C964 C960 1.385 . S
C964 C963 1.374 . S
C965 C962 1.499 . S
C965 C966 1.373 . S
C965 C967 1.389 . S
C966 H939 0.950 . S
C966 C952 1.377 . S
C966 C965 1.373 . S
C967 C951 1.377 . S
C967 C965 1.389 . S
C967 C968 1.524 . S
C968 C967 1.524 . S
C968 C969 1.397 . S
C968 C973 1.363 . S
C969 H940 0.950 . S
C969 C968 1.397 . S
C969 C970 1.334 . S
C970 H941 0.950 . S
C970 C969 1.334 . S
C970 C971 1.287 . S
C971 C970 1.287 . S
C971 C972 1.524 . S
C971 H974 0.999 . S
C972 H942 0.950 . S
C972 C971 1.524 . S
C972 C973 1.415 . S
C973 H943 0.950 . S
C973 C968 1.363 . S
C973 C972 1.415 . S
H974 C971 0.999 . S
H975 C956 0.913 . S
H976 C994 0.951 . S
H977 C996 0.951 . S
H978 C998 0.950 . S
H979 C999 0.950 . S
H980 C1001 0.950 . S
H981 C1004 0.950 . S
H982 C1005 0.950 . S
H983 C1007 0.950 . S
H984 C1008 0.950 . S
H985 C1009 0.951 . S
H986 C1011 0.951 . S
H987 C1013 0.950 . S
H988 C1014 0.950 . S
H989 C1016 0.950 . S
H990 C1019 0.950 . S
H991 C1020 0.950 . S
H992 C1022 0.950 . S
H993 C1023 0.950 . S
C994 H976 0.951 . S
C994 C995 1.366 . S
C994 C996 1.388 . S
C995 C994 1.366 . S
C995 C999 1.385 . S
C996 H977 0.951 . S
C996 C994 1.388 . S
C996 C997 1.366 . S
C997 C996 1.366 . S
C997 C998 1.414 . S
C997 C1000 1.499 . S
C998 H978 0.950 . S
C998 C997 1.414 . S
C998 C999 1.374 . S
C999 H979 0.950 . S
C999 C995 1.385 . S
C999 C998 1.374 . S
C1000 C997 1.499 . S
C1000 C1001 1.373 . S
C1000 C1002 1.389 . S
C1001 H980 0.950 . S
C1001 C1000 1.373 . S
C1001 C1017 1.377 . S
C1002 C1000 1.389 . S
C1002 C1003 1.524 . S
C1002 C1016 1.377 . S
C1003 C1002 1.524 . S
C1003 C1004 1.397 . S
C1003 C1008 1.363 . S
C1004 H981 0.950 . S
C1004 C1003 1.397 . S
C1004 C1005 1.334 . S
C1005 H982 0.950 . S
C1005 C1004 1.334 . S
C1005 C1006 1.287 . S
C1006 C1005 1.287 . S
C1006 C1007 1.524 . S
C1006 H1025 0.913 . S
C1007 H983 0.950 . S
C1007 C1006 1.524 . S
C1007 C1008 1.415 . S
C1008 H984 0.950 . S
C1008 C1003 1.363 . S
C1008 C1007 1.415 . S
C1009 H985 0.951 . S
C1009 C1010 1.366 . S
C1009 C1011 1.388 . S
C1010 C1009 1.366 . S
C1010 C1014 1.385 . S
C1011 H986 0.951 . S
C1011 C1009 1.388 . S
C1011 C1012 1.366 . S
C1012 C1011 1.366 . S
C1012 C1013 1.414 . S
C1012 C1015 1.499 . S
C1013 H987 0.950 . S
C1013 C1012 1.414 . S
C1013 C1014 1.374 . S
C1014 H988 0.950 . S
C1014 C1010 1.385 . S
C1014 C1013 1.374 . S
C1015 C1012 1.499 . S
C1015 C1016 1.373 . S
C1015 C1017 1.389 . S
C1016 H989 0.950 . S
C1016 C1002 1.377 . S
C1016 C1015 1.373 . S
C1017 C1001 1.377 . S
C1017 C1015 1.389 . S
C1017 C1018 1.524 . S
C1018 C1017 1.524 . S
C1018 C1019 1.397 . S
C1018 C1023 1.363 . S
C1019 H990 0.950 . S
C1019 C1018 1.397 . S
C1019 C1020 1.334 . S
C1020 H991 0.950 . S
C1020 C1019 1.334 . S
C1020 C1021 1.287 . S
C1021 C1020 1.287 . S
C1021 C1022 1.524 . S
C1021 H1024 0.999 . S
C1022 H992 0.950 . S
C1022 C1021 1.524 . S
C1022 C1023 1.415 . S
C1023 H993 0.950 . S
C1023 C1018 1.363 . S
C1023 C1022 1.415 . S
H1024 C1021 0.999 . S
H1025 C1006 0.913 . S
H1026 C1044 0.951 . S
H1027 C1046 0.951 . S
H1028 C1048 0.950 . S
H1029 C1049 0.950 . S
H1030 C1051 0.950 . S
H1031 C1054 0.950 . S
H1032 C1055 0.950 . S
H1033 C1057 0.950 . S
H1034 C1058 0.950 . S
H1035 C1059 0.951 . S
H1036 C1061 0.951 . S
H1037 C1063 0.950 . S
H1038 C1064 0.950 . S
H1039 C1066 0.950 . S
H1040 C1069 0.950 . S
H1041 C1070 0.950 . S
H1042 C1072 0.950 . S
H1043 C1073 0.950 . S
C1044 H1026 0.951 . S
C1044 C1045 1.366 . S
C1044 C1046 1.388 . S
C1045 C1044 1.366 . S
C1045 C1049 1.385 . S
C1046 H1027 0.951 . S
C1046 C1044 1.388 . S
C1046 C1047 1.366 . S
C1047 C1046 1.366 . S
C1047 C1048 1.414 . S
C1047 C1050 1.499 . S
C1048 H1028 0.950 . S
C1048 C1047 1.414 . S
C1048 C1049 1.374 . S
C1049 H1029 0.950 . S
C1049 C1045 1.385 . S
C1049 C1048 1.374 . S
C1050 C1047 1.499 . S
C1050 C1051 1.373 . S
C1050 C1052 1.389 . S
C1051 H1030 0.950 . S
C1051 C1050 1.373 . S
C1051 C1067 1.377 . S
C1052 C1050 1.389 . S
C1052 C1053 1.524 . S
C1052 C1066 1.377 . S
C1053 C1052 1.524 . S
C1053 C1054 1.397 . S
C1053 C1058 1.363 . S
C1054 H1031 0.950 . S
C1054 C1053 1.397 . S
C1054 C1055 1.334 . S
C1055 H1032 0.950 . S
C1055 C1054 1.334 . S
C1055 C1056 1.287 . S
C1056 C1055 1.287 . S
C1056 C1057 1.524 . S
C1056 H1075 0.913 . S
C1057 H1033 0.950 . S
C1057 C1056 1.524 . S
C1057 C1058 1.415 . S
C1058 H1034 0.950 . S
C1058 C1053 1.363 . S
C1058 C1057 1.415 . S
C1059 H1035 0.951 . S
C1059 C1060 1.366 . S
C1059 C1061 1.388 . S
C1060 C1059 1.366 . S
C1060 C1064 1.385 . S
C1061 H1036 0.951 . S
C1061 C1059 1.388 . S
C1061 C1062 1.366 . S
C1062 C1061 1.366 . S
C1062 C1063 1.414 . S
C1062 C1065 1.499 . S
C1063 H1037 0.950 . S
C1063 C1062 1.414 . S
C1063 C1064 1.374 . S
C1064 H1038 0.950 . S
C1064 C1060 1.385 . S
C1064 C1063 1.374 . S
C1065 C1062 1.499 . S
C1065 C1066 1.373 . S
C1065 C1067 1.389 . S
C1066 H1039 0.950 . S
C1066 C1052 1.377 . S
C1066 C1065 1.373 . S
C1067 C1051 1.377 . S
C1067 C1065 1.389 . S
C1067 C1068 1.524 . S
C1068 C1067 1.524 . S
C1068 C1069 1.397 . S
C1068 C1073 1.363 . S
C1069 H1040 0.950 . S
C1069 C1068 1.397 . S
C1069 C1070 1.334 . S
C1070 H1041 0.950 . S
C1070 C1069 1.334 . S
C1070 C1071 1.287 . S
C1071 C1070 1.287 . S
C1071 C1072 1.524 . S
C1071 H1074 0.999 . S
C1072 H1042 0.950 . S
C1072 C1071 1.524 . S
C1072 C1073 1.415 . S
C1073 H1043 0.950 . S
C1073 C1068 1.363 . S
C1073 C1072 1.415 . S
H1074 C1071 0.999 . S
H1075 C1056 0.913 . S
H1076 C1094 0.951 . S
H1077 C1096 0.951 . S
H1078 C1098 0.950 . S
H1079 C1099 0.950 . S
H1080 C1101 0.950 . S
H1081 C1104 0.950 . S
H1082 C1105 0.950 . S
H1083 C1107 0.950 . S
H1084 C1108 0.950 . S
H1085 C1109 0.951 . S
H1086 C1111 0.951 . S
H1087 C1113 0.950 . S
H1088 C1114 0.950 . S
H1089 C1116 0.950 . S
H1090 C1119 0.950 . S
H1091 C1120 0.950 . S
H1092 C1122 0.950 . S
H1093 C1123 0.950 . S
C1094 H1076 0.951 . S
C1094 C1095 1.366 . S
C1094 C1096 1.388 . S
C1095 C1094 1.366 . S
C1095 C1099 1.385 . S
C1096 H1077 0.951 . S
C1096 C1094 1.388 . S
C1096 C1097 1.366 . S
C1097 C1096 1.366 . S
C1097 C1098 1.414 . S
C1097 C1100 1.499 . S
C1098 H1078 0.950 . S
C1098 C1097 1.414 . S
C1098 C1099 1.374 . S
C1099 H1079 0.950 . S
C1099 C1095 1.385 . S
C1099 C1098 1.374 . S
C1100 C1097 1.499 . S
C1100 C1101 1.373 . S
C1100 C1102 1.389 . S
C1101 H1080 0.950 . S
C1101 C1100 1.373 . S
C1101 C1117 1.377 . S
C1102 C1100 1.389 . S
C1102 C1103 1.524 . S
C1102 C1116 1.377 . S
C1103 C1102 1.524 . S
C1103 C1104 1.397 . S
C1103 C1108 1.363 . S
C1104 H1081 0.950 . S
C1104 C1103 1.397 . S
C1104 C1105 1.334 . S
C1105 H1082 0.950 . S
C1105 C1104 1.334 . S
C1105 C1106 1.287 . S
C1106 C1105 1.287 . S
C1106 C1107 1.524 . S
C1106 H1125 0.913 . S
C1107 H1083 0.950 . S
C1107 C1106 1.524 . S
C1107 C1108 1.415 . S
C1108 H1084 0.950 . S
C1108 C1103 1.363 . S
C1108 C1107 1.415 . S
C1109 H1085 0.951 . S
C1109 C1110 1.366 . S
C1109 C1111 1.388 . S
C1110 C1109 1.366 . S
C1110 C1114 1.385 . S
C1111 H1086 0.951 . S
C1111 C1109 1.388 . S
C1111 C1112 1.366 . S
C1112 C1111 1.366 . S
C1112 C1113 1.414 . S
C1112 C1115 1.499 . S
C1113 H1087 0.950 . S
C1113 C1112 1.414 . S
C1113 C1114 1.374 . S
C1114 H1088 0.950 . S
C1114 C1110 1.385 . S
C1114 C1113 1.374 . S
C1115 C1112 1.499 . S
C1115 C1116 1.373 . S
C1115 C1117 1.389 . S
C1116 H1089 0.950 . S
C1116 C1102 1.377 . S
C1116 C1115 1.373 . S
C1117 C1101 1.377 . S
C1117 C1115 1.389 . S
C1117 C1118 1.524 . S
C1118 C1117 1.524 . S
C1118 C1119 1.397 . S
C1118 C1123 1.363 . S
C1119 H1090 0.950 . S
C1119 C1118 1.397 . S
C1119 C1120 1.334 . S
C1120 H1091 0.950 . S
C1120 C1119 1.334 . S
C1120 C1121 1.287 . S
C1121 C1120 1.287 . S
C1121 C1122 1.524 . S
C1121 H1124 0.999 . S
C1122 H1092 0.950 . S
C1122 C1121 1.524 . S
C1122 C1123 1.415 . S
C1123 H1093 0.950 . S
C1123 C1118 1.363 . S
C1123 C1122 1.415 . S
H1124 C1121 0.999 . S
H1125 C1106 0.913 . S
H1126 C1144 0.951 . S
H1127 C1146 0.951 . S
H1128 C1148 0.950 . S
H1129 C1149 0.950 . S
H1130 C1151 0.950 . S
H1131 C1154 0.950 . S
H1132 C1155 0.950 . S
H1133 C1157 0.950 . S
H1134 C1158 0.950 . S
H1135 C1159 0.951 . S
H1136 C1161 0.951 . S
H1137 C1163 0.950 . S
H1138 C1164 0.950 . S
H1139 C1166 0.950 . S
H1140 C1169 0.950 . S
H1141 C1170 0.950 . S
H1142 C1172 0.950 . S
H1143 C1173 0.950 . S
C1144 H1126 0.951 . S
C1144 C1145 1.366 . S
C1144 C1146 1.388 . S
C1145 C1144 1.366 . S
C1145 C1149 1.385 . S
C1146 H1127 0.951 . S
C1146 C1144 1.388 . S
C1146 C1147 1.366 . S
C1147 C1146 1.366 . S
C1147 C1148 1.414 . S
C1147 C1150 1.499 . S
C1148 H1128 0.950 . S
C1148 C1147 1.414 . S
C1148 C1149 1.374 . S
C1149 H1129 0.950 . S
C1149 C1145 1.385 . S
C1149 C1148 1.374 . S
C1150 C1147 1.499 . S
C1150 C1151 1.373 . S
C1150 C1152 1.389 . S
C1151 H1130 0.950 . S
C1151 C1150 1.373 . S
C1151 C1167 1.377 . S
C1152 C1150 1.389 . S
C1152 C1153 1.524 . S
C1152 C1166 1.377 . S
C1153 C1152 1.524 . S
C1153 C1154 1.397 . S
C1153 C1158 1.363 . S
C1154 H1131 0.950 . S
C1154 C1153 1.397 . S
C1154 C1155 1.334 . S
C1155 H1132 0.950 . S
C1155 C1154 1.334 . S
C1155 C1156 1.287 . S
C1156 C1155 1.287 . S
C1156 C1157 1.524 . S
C1156 H1175 0.913 . S
C1157 H1133 0.950 . S
C1157 C1156 1.524 . S
C1157 C1158 1.415 . S
C1158 H1134 0.950 . S
C1158 C1153 1.363 . S
C1158 C1157 1.415 . S
C1159 H1135 0.951 . S
C1159 C1160 1.366 . S
C1159 C1161 1.388 . S
C1160 C1159 1.366 . S
C1160 C1164 1.385 . S
C1161 H1136 0.951 . S
C1161 C1159 1.388 . S
C1161 C1162 1.366 . S
C1162 C1161 1.366 . S
C1162 C1163 1.414 . S
C1162 C1165 1.499 . S
C1163 H1137 0.950 . S
C1163 C1162 1.414 . S
C1163 C1164 1.374 . S
C1164 H1138 0.950 . S
C1164 C1160 1.385 . S
C1164 C1163 1.374 . S
C1165 C1162 1.499 . S
C1165 C1166 1.373 . S
C1165 C1167 1.389 . S
C1166 H1139 0.950 . S
C1166 C1152 1.377 . S
C1166 C1165 1.373 . S
C1167 C1151 1.377 . S
C1167 C1165 1.389 . S
C1167 C1168 1.524 . S
C1168 C1167 1.524 . S
C1168 C1169 1.397 . S
C1168 C1173 1.363 . S
C1169 H1140 0.950 . S
C1169 C1168 1.397 . S
C1169 C1170 1.334 . S
C1170 H1141 0.950 . S
C1170 C1169 1.334 . S
C1170 C1171 1.287 . S
C1171 C1170 1.287 . S
C1171 C1172 1.524 . S
C1171 H1174 0.999 . S
C1172 H1142 0.950 . S
C1172 C1171 1.524 . S
C1172 C1173 1.415 . S
C1173 H1143 0.950 . S
C1173 C1168 1.363 . S
C1173 C1172 1.415 . S
H1174 C1171 0.999 . S
H1175 C1156 0.913 . S
H1176 C1194 0.951 . S
H1177 C1196 0.951 . S
H1178 C1198 0.950 . S
H1179 C1199 0.950 . S
H1180 C1201 0.950 . S
H1181 C1204 0.950 . S
H1182 C1205 0.950 . S
H1183 C1207 0.950 . S
H1184 C1208 0.950 . S
H1185 C1209 0.951 . S
H1186 C1211 0.951 . S
H1187 C1213 0.950 . S
H1188 C1214 0.950 . S
H1189 C1216 0.950 . S
H1190 C1219 0.950 . S
H1191 C1220 0.950 . S
H1192 C1222 0.950 . S
H1193 C1223 0.950 . S
C1194 H1176 0.951 . S
C1194 C1195 1.366 . S
C1194 C1196 1.388 . S
C1195 C1194 1.366 . S
C1195 C1199 1.385 . S
C1196 H1177 0.951 . S
C1196 C1194 1.388 . S
C1196 C1197 1.366 . S
C1197 C1196 1.366 . S
C1197 C1198 1.414 . S
C1197 C1200 1.499 . S
C1198 H1178 0.950 . S
C1198 C1197 1.414 . S
C1198 C1199 1.374 . S
C1199 H1179 0.950 . S
C1199 C1195 1.385 . S
C1199 C1198 1.374 . S
C1200 C1197 1.499 . S
C1200 C1201 1.373 . S
C1200 C1202 1.389 . S
C1201 H1180 0.950 . S
C1201 C1200 1.373 . S
C1201 C1217 1.377 . S
C1202 C1200 1.389 . S
C1202 C1203 1.524 . S
C1202 C1216 1.377 . S
C1203 C1202 1.524 . S
C1203 C1204 1.397 . S
C1203 C1208 1.363 . S
C1204 H1181 0.950 . S
C1204 C1203 1.397 . S
C1204 C1205 1.334 . S
C1205 H1182 0.950 . S
C1205 C1204 1.334 . S
C1205 C1206 1.287 . S
C1206 C1205 1.287 . S
C1206 C1207 1.524 . S
C1206 H1225 0.913 . S
C1207 H1183 0.950 . S
C1207 C1206 1.524 . S
C1207 C1208 1.415 . S
C1208 H1184 0.950 . S
C1208 C1203 1.363 . S
C1208 C1207 1.415 . S
C1209 H1185 0.951 . S
C1209 C1210 1.366 . S
C1209 C1211 1.388 . S
C1210 C1209 1.366 . S
C1210 C1214 1.385 . S
C1211 H1186 0.951 . S
C1211 C1209 1.388 . S
C1211 C1212 1.366 . S
C1212 C1211 1.366 . S
C1212 C1213 1.414 . S
C1212 C1215 1.499 . S
C1213 H1187 0.950 . S
C1213 C1212 1.414 . S
C1213 C1214 1.374 . S
C1214 H1188 0.950 . S
C1214 C1210 1.385 . S
C1214 C1213 1.374 . S
C1215 C1212 1.499 . S
C1215 C1216 1.373 . S
C1215 C1217 1.389 . S
C1216 H1189 0.950 . S
C1216 C1202 1.377 . S
C1216 C1215 1.373 . S
C1217 C1201 1.377 . S
C1217 C1215 1.389 . S
C1217 C1218 1.524 . S
C1218 C1217 1.524 . S
C1218 C1219 1.397 . S
C1218 C1223 1.363 . S
C1219 H1190 0.950 . S
C1219 C1218 1.397 . S
C1219 C1220 1.334 . S
C1220 H1191 0.950 . S
C1220 C1219 1.334 . S
C1220 C1221 1.287 . S
C1221 C1220 1.287 . S
C1221 C1222 1.524 . S
C1221 H1224 0.999 . S
C1222 H1192 0.950 . S
C1222 C1221 1.524 . S
C1222 C1223 1.415 . S
C1223 H1193 0.950 . S
C1223 C1218 1.363 . S
C1223 C1222 1.415 . S
H1224 C1221 0.999 . S
H1225 C1206 0.913 . S
H1226 C1244 0.951 . S
H1227 C1246 0.951 . S
H1228 C1248 0.950 . S
H1229 C1249 0.950 . S
H1230 C1251 0.950 . S
H1231 C1254 0.950 . S
H1232 C1255 0.950 . S
H1233 C1257 0.950 . S
H1234 C1258 0.950 . S
H1235 C1259 0.951 . S
H1236 C1261 0.951 . S
H1237 C1263 0.950 . S
H1238 C1264 0.950 . S
H1239 C1266 0.950 . S
H1240 C1269 0.950 . S
H1241 C1270 0.950 . S
H1242 C1272 0.950 . S
H1243 C1273 0.950 . S
C1244 H1226 0.951 . S
C1244 C1245 1.366 . S
C1244 C1246 1.388 . S
C1245 C1244 1.366 . S
C1245 C1249 1.385 . S
C1246 H1227 0.951 . S
C1246 C1244 1.388 . S
C1246 C1247 1.366 . S
C1247 C1246 1.366 . S
C1247 C1248 1.414 . S
C1247 C1250 1.499 . S
C1248 H1228 0.950 . S
C1248 C1247 1.414 . S
C1248 C1249 1.374 . S
C1249 H1229 0.950 . S
C1249 C1245 1.385 . S
C1249 C1248 1.374 . S
C1250 C1247 1.499 . S
C1250 C1251 1.373 . S
C1250 C1252 1.389 . S
C1251 H1230 0.950 . S
C1251 C1250 1.373 . S
C1251 C1267 1.377 . S
C1252 C1250 1.389 . S
C1252 C1253 1.524 . S
C1252 C1266 1.377 . S
C1253 C1252 1.524 . S
C1253 C1254 1.397 . S
C1253 C1258 1.363 . S
C1254 H1231 0.950 . S
C1254 C1253 1.397 . S
C1254 C1255 1.334 . S
C1255 H1232 0.950 . S
C1255 C1254 1.334 . S
C1255 C1256 1.287 . S
C1256 C1255 1.287 . S
C1256 C1257 1.524 . S
C1256 H1275 0.913 . S
C1257 H1233 0.950 . S
C1257 C1256 1.524 . S
C1257 C1258 1.415 . S
C1258 H1234 0.950 . S
C1258 C1253 1.363 . S
C1258 C1257 1.415 . S
C1259 H1235 0.951 . S
C1259 C1260 1.366 . S
C1259 C1261 1.388 . S
C1260 C1259 1.366 . S
C1260 C1264 1.385 . S
C1261 H1236 0.951 . S
C1261 C1259 1.388 . S
C1261 C1262 1.366 . S
C1262 C1261 1.366 . S
C1262 C1263 1.414 . S
C1262 C1265 1.499 . S
C1263 H1237 0.950 . S
C1263 C1262 1.414 . S
C1263 C1264 1.374 . S
C1264 H1238 0.950 . S
C1264 C1260 1.385 . S
C1264 C1263 1.374 . S
C1265 C1262 1.499 . S
C1265 C1266 1.373 . S
C1265 C1267 1.389 . S
C1266 H1239 0.950 . S
C1266 C1252 1.377 . S
C1266 C1265 1.373 . S
C1267 C1251 1.377 . S
C1267 C1265 1.389 . S
C1267 C1268 1.524 . S
C1268 C1267 1.524 . S
C1268 C1269 1.397 . S
C1268 C1273 1.363 . S
C1269 H1240 0.950 . S
C1269 C1268 1.397 . S
C1269 C1270 1.334 . S
C1270 H1241 0.950 . S
C1270 C1269 1.334 . S
C1270 C1271 1.287 . S
C1271 C1270 1.287 . S
C1271 C1272 1.524 . S
C1271 H1274 0.999 . S
C1272 H1242 0.950 . S
C1272 C1271 1.524 . S
C1272 C1273 1.415 . S
C1273 H1243 0.950 . S
C1273 C1268 1.363 . S
C1273 C1272 1.415 . S
H1274 C1271 0.999 . S
H1275 C1256 0.913 . S
H1276 C1294 0.951 . S
H1277 C1296 0.951 . S
H1278 C1298 0.950 . S
H1279 C1299 0.950 . S
H1280 C1301 0.950 . S
H1281 C1304 0.950 . S
H1282 C1305 0.950 . S
H1283 C1307 0.950 . S
H1284 C1308 0.950 . S
H1285 C1309 0.951 . S
H1286 C1311 0.951 . S
H1287 C1313 0.950 . S
H1288 C1314 0.950 . S
H1289 C1316 0.950 . S
H1290 C1319 0.950 . S
H1291 C1320 0.950 . S
H1292 C1322 0.950 . S
H1293 C1323 0.950 . S
C1294 H1276 0.951 . S
C1294 C1295 1.366 . S
C1294 C1296 1.388 . S
C1295 C1294 1.366 . S
C1295 C1299 1.385 . S
C1296 H1277 0.951 . S
C1296 C1294 1.388 . S
C1296 C1297 1.366 . S
C1297 C1296 1.366 . S
C1297 C1298 1.414 . S
C1297 C1300 1.499 . S
C1298 H1278 0.950 . S
C1298 C1297 1.414 . S
C1298 C1299 1.374 . S
C1299 H1279 0.950 . S
C1299 C1295 1.385 . S
C1299 C1298 1.374 . S
C1300 C1297 1.499 . S
C1300 C1301 1.373 . S
C1300 C1302 1.389 . S
C1301 H1280 0.950 . S
C1301 C1300 1.373 . S
C1301 C1317 1.377 . S
C1302 C1300 1.389 . S
C1302 C1303 1.524 . S
C1302 C1316 1.377 . S
C1303 C1302 1.524 . S
C1303 C1304 1.397 . S
C1303 C1308 1.363 . S
C1304 H1281 0.950 . S
C1304 C1303 1.397 . S
C1304 C1305 1.334 . S
C1305 H1282 0.950 . S
C1305 C1304 1.334 . S
C1305 C1306 1.287 . S
C1306 C1305 1.287 . S
C1306 C1307 1.524 . S
C1306 H1325 0.913 . S
C1307 H1283 0.950 . S
C1307 C1306 1.524 . S
C1307 C1308 1.415 . S
C1308 H1284 0.950 . S
C1308 C1303 1.363 . S
C1308 C1307 1.415 . S
C1309 H1285 0.951 . S
C1309 C1310 1.366 . S
C1309 C1311 1.388 . S
C1310 C1309 1.366 . S
C1310 C1314 1.385 . S
C1311 H1286 0.951 . S
C1311 C1309 1.388 . S
C1311 C1312 1.366 . S
C1312 C1311 1.366 . S
C1312 C1313 1.414 . S
C1312 C1315 1.499 . S
C1313 H1287 0.950 . S
C1313 C1312 1.414 . S
C1313 C1314 1.374 . S
C1314 H1288 0.950 . S
C1314 C1310 1.385 . S
C1314 C1313 1.374 . S
C1315 C1312 1.499 . S
C1315 C1316 1.373 . S
C1315 C1317 1.389 . S
C1316 H1289 0.950 . S
C1316 C1302 1.377 . S
C1316 C1315 1.373 . S
C1317 C1301 1.377 . S
C1317 C1315 1.389 . S
C1317 C1318 1.524 . S
C1318 C1317 1.524 . S
C1318 C1319 1.397 . S
C1318 C1323 1.363 . S
C1319 H1290 0.950 . S
C1319 C1318 1.397 . S
C1319 C1320 1.334 . S
C1320 H1291 0.950 . S
C1320 C1319 1.334 . S
C1320 C1321 1.287 . S
C1321 C1320 1.287 . S
C1321 C1322 1.524 . S
C1321 H1324 0.999 . S
C1322 H1292 0.950 . S
C1322 C1321 1.524 . S
C1322 C1323 1.415 . S
C1323 H1293 0.950 . S
C1323 C1318 1.363 . S
C1323 C1322 1.415 . S
H1324 C1321 0.999 . S
H1325 C1306 0.913 . S
H1326 C1344 0.951 . S
H1327 C1346 0.951 . S
H1328 C1348 0.950 . S
H1329 C1349 0.950 . S
H1330 C1351 0.950 . S
H1331 C1354 0.950 . S
H1332 C1355 0.950 . S
H1333 C1357 0.950 . S
H1334 C1358 0.950 . S
H1335 C1359 0.951 . S
H1336 C1361 0.951 . S
H1337 C1363 0.950 . S
H1338 C1364 0.950 . S
H1339 C1366 0.950 . S
H1340 C1369 0.950 . S
H1341 C1370 0.950 . S
H1342 C1372 0.950 . S
H1343 C1373 0.950 . S
C1344 H1326 0.951 . S
C1344 C1345 1.366 . S
C1344 C1346 1.388 . S
C1345 C1344 1.366 . S
C1345 C1349 1.385 . S
C1346 H1327 0.951 . S
C1346 C1344 1.388 . S
C1346 C1347 1.366 . S
C1347 C1346 1.366 . S
C1347 C1348 1.414 . S
C1347 C1350 1.499 . S
C1348 H1328 0.950 . S
C1348 C1347 1.414 . S
C1348 C1349 1.374 . S
C1349 H1329 0.950 . S
C1349 C1345 1.385 . S
C1349 C1348 1.374 . S
C1350 C1347 1.499 . S
C1350 C1351 1.373 . S
C1350 C1352 1.389 . S
C1351 H1330 0.950 . S
C1351 C1350 1.373 . S
C1351 C1367 1.377 . S
C1352 C1350 1.389 . S
C1352 C1353 1.524 . S
C1352 C1366 1.377 . S
C1353 C1352 1.524 . S
C1353 C1354 1.397 . S
C1353 C1358 1.363 . S
C1354 H1331 0.950 . S
C1354 C1353 1.397 . S
C1354 C1355 1.334 . S
C1355 H1332 0.950 . S
C1355 C1354 1.334 . S
C1355 C1356 1.287 . S
C1356 C1355 1.287 . S
C1356 C1357 1.524 . S
C1356 H1375 0.913 . S
C1357 H1333 0.950 . S
C1357 C1356 1.524 . S
C1357 C1358 1.415 . S
C1358 H1334 0.950 . S
C1358 C1353 1.363 . S
C1358 C1357 1.415 . S
C1359 H1335 0.951 . S
C1359 C1360 1.366 . S
C1359 C1361 1.388 . S
C1360 C1359 1.366 . S
C1360 C1364 1.385 . S
C1361 H1336 0.951 . S
C1361 C1359 1.388 . S
C1361 C1362 1.366 . S
C1362 C1361 1.366 . S
C1362 C1363 1.414 . S
C1362 C1365 1.499 . S
C1363 H1337 0.950 . S
C1363 C1362 1.414 . S
C1363 C1364 1.374 . S
C1364 H1338 0.950 . S
C1364 C1360 1.385 . S
C1364 C1363 1.374 . S
C1365 C1362 1.499 . S
C1365 C1366 1.373 . S
C1365 C1367 1.389 . S
C1366 H1339 0.950 . S
C1366 C1352 1.377 . S
C1366 C1365 1.373 . S
C1367 C1351 1.377 . S
C1367 C1365 1.389 . S
C1367 C1368 1.524 . S
C1368 C1367 1.524 . S
C1368 C1369 1.397 . S
C1368 C1373 1.363 . S
C1369 H1340 0.950 . S
C1369 C1368 1.397 . S
C1369 C1370 1.334 . S
C1370 H1341 0.950 . S
C1370 C1369 1.334 . S
C1370 C1371 1.287 . S
C1371 C1370 1.287 . S
C1371 C1372 1.524 . S
C1371 H1374 0.999 . S
C1372 H1342 0.950 . S
C1372 C1371 1.524 . S
C1372 C1373 1.415 . S
C1373 H1343 0.950 . S
C1373 C1368 1.363 . S
C1373 C1372 1.415 . S
H1374 C1371 0.999 . S
H1375 C1356 0.913 . S
H1376 C1394 0.951 . S
H1377 C1396 0.951 . S
H1378 C1398 0.950 . S
H1379 C1399 0.950 . S
H1380 C1401 0.950 . S
H1381 C1404 0.950 . S
H1382 C1405 0.950 . S
H1383 C1407 0.950 . S
H1384 C1408 0.950 . S
H1385 C1409 0.951 . S
H1386 C1411 0.951 . S
H1387 C1413 0.950 . S
H1388 C1414 0.950 . S
H1389 C1416 0.950 . S
H1390 C1419 0.950 . S
H1391 C1420 0.950 . S
H1392 C1422 0.950 . S
H1393 C1423 0.950 . S
C1394 H1376 0.951 . S
C1394 C1395 1.366 . S
C1394 C1396 1.388 . S
C1395 C1394 1.366 . S
C1395 C1399 1.385 . S
C1396 H1377 0.951 . S
C1396 C1394 1.388 . S
C1396 C1397 1.366 . S
C1397 C1396 1.366 . S
C1397 C1398 1.414 . S
C1397 C1400 1.499 . S
C1398 H1378 0.950 . S
C1398 C1397 1.414 . S
C1398 C1399 1.374 . S
C1399 H1379 0.950 . S
C1399 C1395 1.385 . S
C1399 C1398 1.374 . S
C1400 C1397 1.499 . S
C1400 C1401 1.373 . S
C1400 C1402 1.389 . S
C1401 H1380 0.950 . S
C1401 C1400 1.373 . S
C1401 C1417 1.377 . S
C1402 C1400 1.389 . S
C1402 C1403 1.524 . S
C1402 C1416 1.377 . S
C1403 C1402 1.524 . S
C1403 C1404 1.397 . S
C1403 C1408 1.363 . S
C1404 H1381 0.950 . S
C1404 C1403 1.397 . S
C1404 C1405 1.334 . S
C1405 H1382 0.950 . S
C1405 C1404 1.334 . S
C1405 C1406 1.287 . S
C1406 C1405 1.287 . S
C1406 C1407 1.524 . S
C1406 H1425 0.913 . S
C1407 H1383 0.950 . S
C1407 C1406 1.524 . S
C1407 C1408 1.415 . S
C1408 H1384 0.950 . S
C1408 C1403 1.363 . S
C1408 C1407 1.415 . S
C1409 H1385 0.951 . S
C1409 C1410 1.366 . S
C1409 C1411 1.388 . S
C1410 C1409 1.366 . S
C1410 C1414 1.385 . S
C1411 H1386 0.951 . S
C1411 C1409 1.388 . S
C1411 C1412 1.366 . S
C1412 C1411 1.366 . S
C1412 C1413 1.414 . S
C1412 C1415 1.499 . S
C1413 H1387 0.950 . S
C1413 C1412 1.414 . S
C1413 C1414 1.374 . S
C1414 H1388 0.950 . S
C1414 C1410 1.385 . S
C1414 C1413 1.374 . S
C1415 C1412 1.499 . S
C1415 C1416 1.373 . S
C1415 C1417 1.389 . S
C1416 H1389 0.950 . S
C1416 C1402 1.377 . S
C1416 C1415 1.373 . S
C1417 C1401 1.377 . S
C1417 C1415 1.389 . S
C1417 C1418 1.524 . S
C1418 C1417 1.524 . S
C1418 C1419 1.397 . S
C1418 C1423 1.363 . S
C1419 H1390 0.950 . S
C1419 C1418 1.397 . S
C1419 C1420 1.334 . S
C1420 H1391 0.950 . S
C1420 C1419 1.334 . S
C1420 C1421 1.287 . S
C1421 C1420 1.287 . S
C1421 C1422 1.524 . S
C1421 H1424 0.999 . S
C1422 H1392 0.950 . S
C1422 C1421 1.524 . S
C1422 C1423 1.415 . S
C1423 H1393 0.950 . S
C1423 C1418 1.363 . S
C1423 C1422 1.415 . S
H1424 C1421 0.999 . S
H1425 C1406 0.913 . S
H1426 C1444 0.951 . S
H1427 C1446 0.951 . S
H1428 C1448 0.950 . S
H1429 C1449 0.950 . S
H1430 C1451 0.950 . S
H1431 C1454 0.950 . S
H1432 C1455 0.950 . S
H1433 C1457 0.950 . S
H1434 C1458 0.950 . S
H1435 C1459 0.951 . S
H1436 C1461 0.951 . S
H1437 C1463 0.950 . S
H1438 C1464 0.950 . S
H1439 C1466 0.950 . S
H1440 C1469 0.950 . S
H1441 C1470 0.950 . S
H1442 C1472 0.950 . S
H1443 C1473 0.950 . S
C1444 H1426 0.951 . S
C1444 C1445 1.366 . S
C1444 C1446 1.388 . S
C1445 C1444 1.366 . S
C1445 C1449 1.385 . S
C1446 H1427 0.951 . S
C1446 C1444 1.388 . S
C1446 C1447 1.366 . S
C1447 C1446 1.366 . S
C1447 C1448 1.414 . S
C1447 C1450 1.499 . S
C1448 H1428 0.950 . S
C1448 C1447 1.414 . S
C1448 C1449 1.374 . S
C1449 H1429 0.950 . S
C1449 C1445 1.385 . S
C1449 C1448 1.374 . S
C1450 C1447 1.499 . S
C1450 C1451 1.373 . S
C1450 C1452 1.389 . S
C1451 H1430 0.950 . S
C1451 C1450 1.373 . S
C1451 C1467 1.377 . S
C1452 C1450 1.389 . S
C1452 C1453 1.524 . S
C1452 C1466 1.377 . S
C1453 C1452 1.524 . S
C1453 C1454 1.397 . S
C1453 C1458 1.363 . S
C1454 H1431 0.950 . S
C1454 C1453 1.397 . S
C1454 C1455 1.334 . S
C1455 H1432 0.950 . S
C1455 C1454 1.334 . S
C1455 C1456 1.287 . S
C1456 C1455 1.287 . S
C1456 C1457 1.524 . S
C1456 H1475 0.913 . S
C1457 H1433 0.950 . S
C1457 C1456 1.524 . S
C1457 C1458 1.415 . S
C1458 H1434 0.950 . S
C1458 C1453 1.363 . S
C1458 C1457 1.415 . S
C1459 H1435 0.951 . S
C1459 C1460 1.366 . S
C1459 C1461 1.388 . S
C1460 C1459 1.366 . S
C1460 C1464 1.385 . S
C1461 H1436 0.951 . S
C1461 C1459 1.388 . S
C1461 C1462 1.366 . S
C1462 C1461 1.366 . S
C1462 C1463 1.414 . S
C1462 C1465 1.499 . S
C1463 H1437 0.950 . S
C1463 C1462 1.414 . S
C1463 C1464 1.374 . S
C1464 H1438 0.950 . S
C1464 C1460 1.385 . S
C1464 C1463 1.374 . S
C1465 C1462 1.499 . S
C1465 C1466 1.373 . S
C1465 C1467 1.389 . S
C1466 H1439 0.950 . S
C1466 C1452 1.377 . S
C1466 C1465 1.373 . S
C1467 C1451 1.377 . S
C1467 C1465 1.389 . S
C1467 C1468 1.524 . S
C1468 C1467 1.524 . S
C1468 C1469 1.397 . S
C1468 C1473 1.363 . S
C1469 H1440 0.950 . S
C1469 C1468 1.397 . S
C1469 C1470 1.334 . S
C1470 H1441 0.950 . S
C1470 C1469 1.334 . S
C1470 C1471 1.287 . S
C1471 C1470 1.287 . S
C1471 C1472 1.524 . S
C1471 H1474 0.999 . S
C1472 H1442 0.950 . S
C1472 C1471 1.524 . S
C1472 C1473 1.415 . S
C1473 H1443 0.950 . S
C1473 C1468 1.363 . S
C1473 C1472 1.415 . S
H1474 C1471 0.999 . S
H1475 C1456 0.913 . S
H1476 C1494 0.951 . S
H1477 C1496 0.951 . S
H1478 C1498 0.950 . S
H1479 C1499 0.950 . S
H1480 C1501 0.950 . S
H1481 C1504 0.950 . S
H1482 C1505 0.950 . S
H1483 C1507 0.950 . S
H1484 C1508 0.950 . S
H1485 C1509 0.951 . S
H1486 C1511 0.951 . S
H1487 C1513 0.950 . S
H1488 C1514 0.950 . S
H1489 C1516 0.950 . S
H1490 C1519 0.950 . S
H1491 C1520 0.950 . S
H1492 C1522 0.950 . S
H1493 C1523 0.950 . S
C1494 H1476 0.951 . S
C1494 C1495 1.366 . S
C1494 C1496 1.388 . S
C1495 C1494 1.366 . S
C1495 C1499 1.385 . S
C1496 H1477 0.951 . S
C1496 C1494 1.388 . S
C1496 C1497 1.366 . S
C1497 C1496 1.366 . S
C1497 C1498 1.414 . S
C1497 C1500 1.499 . S
C1498 H1478 0.950 . S
C1498 C1497 1.414 . S
C1498 C1499 1.374 . S
C1499 H1479 0.950 . S
C1499 C1495 1.385 . S
C1499 C1498 1.374 . S
C1500 C1497 1.499 . S
C1500 C1501 1.373 . S
C1500 C1502 1.389 . S
C1501 H1480 0.950 . S
C1501 C1500 1.373 . S
C1501 C1517 1.377 . S
C1502 C1500 1.389 . S
C1502 C1503 1.524 . S
C1502 C1516 1.377 . S
C1503 C1502 1.524 . S
C1503 C1504 1.397 . S
C1503 C1508 1.363 . S
C1504 H1481 0.950 . S
C1504 C1503 1.397 . S
C1504 C1505 1.334 . S
C1505 H1482 0.950 . S
C1505 C1504 1.334 . S
C1505 C1506 1.287 . S
C1506 C1505 1.287 . S
C1506 C1507 1.524 . S
C1506 H1525 0.913 . S
C1507 H1483 0.950 . S
C1507 C1506 1.524 . S
C1507 C1508 1.415 . S
C1508 H1484 0.950 . S
C1508 C1503 1.363 . S
C1508 C1507 1.415 . S
C1509 H1485 0.951 . S
C1509 C1510 1.366 . S
C1509 C1511 1.388 . S
C1510 C1509 1.366 . S
C1510 C1514 1.385 . S
C1511 H1486 0.951 . S
C1511 C1509 1.388 . S
C1511 C1512 1.366 . S
C1512 C1511 1.366 . S
C1512 C1513 1.414 . S
C1512 C1515 1.499 . S
C1513 H1487 0.950 . S
C1513 C1512 1.414 . S
C1513 C1514 1.374 . S
C1514 H1488 0.950 . S
C1514 C1510 1.385 . S
C1514 C1513 1.374 . S
C1515 C1512 1.499 . S
C1515 C1516 1.373 . S
C1515 C1517 1.389 . S
C1516 H1489 0.950 . S
C1516 C1502 1.377 . S
C1516 C1515 1.373 . S
C1517 C1501 1.377 . S
C1517 C1515 1.389 . S
C1517 C1518 1.524 . S
C1518 C1517 1.524 . S
C1518 C1519 1.397 . S
C1518 C1523 1.363 . S
C1519 H1490 0.950 . S
C1519 C1518 1.397 . S
C1519 C1520 1.334 . S
C1520 H1491 0.950 . S
C1520 C1519 1.334 . S
C1520 C1521 1.287 . S
C1521 C1520 1.287 . S
C1521 C1522 1.524 . S
C1521 H1524 0.999 . S
C1522 H1492 0.950 . S
C1522 C1521 1.524 . S
C1522 C1523 1.415 . S
C1523 H1493 0.950 . S
C1523 C1518 1.363 . S
C1523 C1522 1.415 . S
H1524 C1521 0.999 . S
H1525 C1506 0.913 . S
H1526 C1544 0.951 . S
H1527 C1546 0.951 . S
H1528 C1548 0.950 . S
H1529 C1549 0.950 . S
H1530 C1551 0.950 . S
H1531 C1554 0.950 . S
H1532 C1555 0.950 . S
H1533 C1557 0.950 . S
H1534 C1558 0.950 . S
H1535 C1559 0.951 . S
H1536 C1561 0.951 . S
H1537 C1563 0.950 . S
H1538 C1564 0.950 . S
H1539 C1566 0.950 . S
H1540 C1569 0.950 . S
H1541 C1570 0.950 . S
H1542 C1572 0.950 . S
H1543 C1573 0.950 . S
C1544 H1526 0.951 . S
C1544 C1545 1.366 . S
C1544 C1546 1.388 . S
C1545 C1544 1.366 . S
C1545 C1549 1.385 . S
C1546 H1527 0.951 . S
C1546 C1544 1.388 . S
C1546 C1547 1.366 . S
C1547 C1546 1.366 . S
C1547 C1548 1.414 . S
C1547 C1550 1.499 . S
C1548 H1528 0.950 . S
C1548 C1547 1.414 . S
C1548 C1549 1.374 . S
C1549 H1529 0.950 . S
C1549 C1545 1.385 . S
C1549 C1548 1.374 . S
C1550 C1547 1.499 . S
C1550 C1551 1.373 . S
C1550 C1552 1.389 . S
C1551 H1530 0.950 . S
C1551 C1550 1.373 . S
C1551 C1567 1.377 . S
C1552 C1550 1.389 . S
C1552 C1553 1.524 . S
C1552 C1566 1.377 . S
C1553 C1552 1.524 . S
C1553 C1554 1.397 . S
C1553 C1558 1.363 . S
C1554 H1531 0.950 . S
C1554 C1553 1.397 . S
C1554 C1555 1.334 . S
C1555 H1532 0.950 . S
C1555 C1554 1.334 . S
C1555 C1556 1.287 . S
C1556 C1555 1.287 . S
C1556 C1557 1.524 . S
C1556 H1575 0.913 . S
C1557 H1533 0.950 . S
C1557 C1556 1.524 . S
C1557 C1558 1.415 . S
C1558 H1534 0.950 . S
C1558 C1553 1.363 . S
C1558 C1557 1.415 . S
C1559 H1535 0.951 . S
C1559 C1560 1.366 . S
C1559 C1561 1.388 . S
C1560 C1559 1.366 . S
C1560 C1564 1.385 . S
C1561 H1536 0.951 . S
C1561 C1559 1.388 . S
C1561 C1562 1.366 . S
C1562 C1561 1.366 . S
C1562 C1563 1.414 . S
C1562 C1565 1.499 . S
C1563 H1537 0.950 . S
C1563 C1562 1.414 . S
C1563 C1564 1.374 . S
C1564 H1538 0.950 . S
C1564 C1560 1.385 . S
C1564 C1563 1.374 . S
C1565 C1562 1.499 . S
C1565 C1566 1.373 . S
C1565 C1567 1.389 . S
C1566 H1539 0.950 . S
C1566 C1552 1.377 . S
C1566 C1565 1.373 . S
C1567 C1551 1.377 . S
C1567 C1565 1.389 . S
C1567 C1568 1.524 . S
C1568 C1567 1.524 . S
C1568 C1569 1.397 . S
C1568 C1573 1.363 . S
C1569 H1540 0.950 . S
C1569 C1568 1.397 . S
C1569 C1570 1.334 . S
C1570 H1541 0.950 . S
C1570 C1569 1.334 . S
C1570 C1571 1.287 . S
C1571 C1570 1.287 . S
C1571 C1572 1.524 . S
C1571 H1574 0.999 . S
C1572 H1542 0.950 . S
C1572 C1571 1.524 . S
C1572 C1573 1.415 . S
C1573 H1543 0.950 . S
C1573 C1568 1.363 . S
C1573 C1572 1.415 . S
H1574 C1571 0.999 . S
H1575 C1556 0.913 . S
H1576 C1594 0.951 . S
H1577 C1596 0.951 . S
H1578 C1598 0.950 . S
H1579 C1599 0.950 . S
H1580 C1601 0.950 . S
H1581 C1604 0.950 . S
H1582 C1605 0.950 . S
H1583 C1607 0.950 . S
H1584 C1608 0.950 . S
H1585 C1609 0.951 . S
H1586 C1611 0.951 . S
H1587 C1613 0.950 . S
H1588 C1614 0.950 . S
H1589 C1616 0.950 . S
H1590 C1619 0.950 . S
H1591 C1620 0.950 . S
H1592 C1622 0.950 . S
H1593 C1623 0.950 . S
C1594 H1576 0.951 . S
C1594 C1595 1.366 . S
C1594 C1596 1.388 . S
C1595 C1594 1.366 . S
C1595 C1599 1.385 . S
C1596 H1577 0.951 . S
C1596 C1594 1.388 . S
C1596 C1597 1.366 . S
C1597 C1596 1.366 . S
C1597 C1598 1.414 . S
C1597 C1600 1.499 . S
C1598 H1578 0.950 . S
C1598 C1597 1.414 . S
C1598 C1599 1.374 . S
C1599 H1579 0.950 . S
C1599 C1595 1.385 . S
C1599 C1598 1.374 . S
C1600 C1597 1.499 . S
C1600 C1601 1.373 . S
C1600 C1602 1.389 . S
C1601 H1580 0.950 . S
C1601 C1600 1.373 . S
C1601 C1617 1.377 . S
C1602 C1600 1.389 . S
C1602 C1603 1.524 . S
C1602 C1616 1.377 . S
C1603 C1602 1.524 . S
C1603 C1604 1.397 . S
C1603 C1608 1.363 . S
C1604 H1581 0.950 . S
C1604 C1603 1.397 . S
C1604 C1605 1.334 . S
C1605 H1582 0.950 . S
C1605 C1604 1.334 . S
C1605 C1606 1.287 . S
C1606 C1605 1.287 . S
C1606 C1607 1.524 . S
C1606 H1625 0.913 . S
C1607 H1583 0.950 . S
C1607 C1606 1.524 . S
C1607 C1608 1.415 . S
C1608 H1584 0.950 . S
C1608 C1603 1.363 . S
C1608 C1607 1.415 . S
C1609 H1585 0.951 . S
C1609 C1610 1.366 . S
C1609 C1611 1.388 . S
C1610 C1609 1.366 . S
C1610 C1614 1.385 . S
C1611 H1586 0.951 . S
C1611 C1609 1.388 . S
C1611 C1612 1.366 . S
C1612 C1611 1.366 . S
C1612 C1613 1.414 . S
C1612 C1615 1.499 . S
C1613 H1587 0.950 . S
C1613 C1612 1.414 . S
C1613 C1614 1.374 . S
C1614 H1588 0.950 . S
C1614 C1610 1.385 . S
C1614 C1613 1.374 . S
C1615 C1612 1.499 . S
C1615 C1616 1.373 . S
C1615 C1617 1.389 . S
C1616 H1589 0.950 . S
C1616 C1602 1.377 . S
C1616 C1615 1.373 . S
C1617 C1601 1.377 . S
C1617 C1615 1.389 . S
C1617 C1618 1.524 . S
C1618 C1617 1.524 . S
C1618 C1619 1.397 . S
C1618 C1623 1.363 . S
C1619 H1590 0.950 . S
C1619 C1618 1.397 . S
C1619 C1620 1.334 . S
C1620 H1591 0.950 . S
C1620 C1619 1.334 . S
C1620 C1621 1.287 . S
C1621 C1620 1.287 . S
C1621 C1622 1.524 . S
C1621 H1624 0.999 . S
C1622 H1592 0.950 . S
C1622 C1621 1.524 . S
C1622 C1623 1.415 . S
C1623 H1593 0.950 . S
C1623 C1618 1.363 . S
C1623 C1622 1.415 . S
H1624 C1621 0.999 . S
H1625 C1606 0.913 . S
C445 C39 1.679 . S
C460 C332 1.593 . S
C495 C91 1.641 . S
C510 C343 1.574 . S
C560 C362 1.437 . S
C545 C128 1.489 . S
C610 C379 1.408 . S
C595 C188 1.454 . S
C660 C406 1.496 . S
C645 C250 1.539 . S
C710 C415 1.564 . S
C695 C304 1.637 . S
C745 C75 1.572 . S
C760 C368 1.493 . S
C795 C144 1.675 . S
C810 C388 1.599 . S
C860 C397 1.547 . S
C845 C198 1.619 . S
C910 C424 1.429 . S
C895 C234 1.480 . S
C945 C294 1.438 . S
C960 C326 1.395 . S
C1010 C352 1.437 . S
C995 C29 1.485 . S
C1060 C380 1.626 . S
C1045 C38 1.717 . S
C1095 C92 1.680 . S
C1110 C404 1.608 . S
C1160 C416 1.467 . S
C1145 C135 1.530 . S
C1195 C181 1.496 . S
C1210 C334 1.427 . S
C1245 C251 1.578 . S
C1260 C344 1.522 . S
C1295 C303 1.683 . S
C1310 C361 1.585 . S
C1345 C82 1.616 . S
C1360 C422 1.533 . S
C1410 C325 1.611 . S
C1395 C145 1.714 . S
C1445 C197 1.662 . S
C1460 C350 1.583 . S
C1495 C241 1.522 . S
C1510 C370 1.438 . S
C1545 C287 1.478 . S
C1560 C386 1.428 . S
C1595 C22 1.519 . S
C1610 C398 1.461 . S
