# Generated by pormake.
# Topology pyr, (3,6)-cn, num edge types: 1
# Building blocks:
#     Node 0, Type 0, BuildingBlock: ESEHIV_clean_linker_0, # of connection points: 3
#     Node 1, Type 0, BuildingBlock: ESEHIV_clean_linker_0, # of connection points: 3
#     Node 2, Type 0, BuildingBlock: ESEHIV_clean_linker_0, # of connection points: 3
#     Node 3, Type 0, BuildingBlock: ESEHIV_clean_linker_0, # of connection points: 3
#     Node 4, Type 0, BuildingBlock: ESEHIV_clean_linker_0, # of connection points: 3
#     Node 5, Type 0, BuildingBlock: ESEHIV_clean_linker_0, # of connection points: 3
#     Node 6, Type 0, BuildingBlock: ESEHIV_clean_linker_0, # of connection points: 3
#     Node 7, Type 0, BuildingBlock: ESEHIV_clean_linker_0, # of connection points: 3
#     Node 8, Type 1, BuildingBlock: FUNLAD_clean_sbu_0, # of connection points: 6
#     Node 9, Type 1, BuildingBlock: FUNLAD_clean_sbu_0, # of connection points: 6
#     Node 10, Type 1, BuildingBlock: FUNLAD_clean_sbu_0, # of connection points: 6
#     Node 11, Type 1, BuildingBlock: FUNLAD_clean_sbu_0, # of connection points: 6
#     Edge 12, Type (0, 1), BuildingBlock: TEMPAE_clean_linker_10, # of connection points: 2
#     Edge 13, Type (0, 1), BuildingBlock: TEMPAE_clean_linker_10, # of connection points: 2
#     Edge 14, Type (0, 1), BuildingBlock: TEMPAE_clean_linker_10, # of connection points: 2
#     Edge 15, Type (0, 1), BuildingBlock: TEMPAE_clean_linker_10, # of connection points: 2
#     Edge 16, Type (0, 1), BuildingBlock: TEMPAE_clean_linker_10, # of connection points: 2
#     Edge 17, Type (0, 1), BuildingBlock: TEMPAE_clean_linker_10, # of connection points: 2
#     Edge 18, Type (0, 1), BuildingBlock: TEMPAE_clean_linker_10, # of connection points: 2
#     Edge 19, Type (0, 1), BuildingBlock: TEMPAE_clean_linker_10, # of connection points: 2
#     Edge 20, Type (0, 1), BuildingBlock: TEMPAE_clean_linker_10, # of connection points: 2
#     Edge 21, Type (0, 1), BuildingBlock: TEMPAE_clean_linker_10, # of connection points: 2
#     Edge 22, Type (0, 1), BuildingBlock: TEMPAE_clean_linker_10, # of connection points: 2
#     Edge 23, Type (0, 1), BuildingBlock: TEMPAE_clean_linker_10, # of connection points: 2
#     Edge 24, Type (0, 1), BuildingBlock: TEMPAE_clean_linker_10, # of connection points: 2
#     Edge 25, Type (0, 1), BuildingBlock: TEMPAE_clean_linker_10, # of connection points: 2
#     Edge 26, Type (0, 1), BuildingBlock: TEMPAE_clean_linker_10, # of connection points: 2
#     Edge 27, Type (0, 1), BuildingBlock: TEMPAE_clean_linker_10, # of connection points: 2
#     Edge 28, Type (0, 1), BuildingBlock: TEMPAE_clean_linker_10, # of connection points: 2
#     Edge 29, Type (0, 1), BuildingBlock: TEMPAE_clean_linker_10, # of connection points: 2
#     Edge 30, Type (0, 1), BuildingBlock: TEMPAE_clean_linker_10, # of connection points: 2
#     Edge 31, Type (0, 1), BuildingBlock: TEMPAE_clean_linker_10, # of connection points: 2
#     Edge 32, Type (0, 1), BuildingBlock: TEMPAE_clean_linker_10, # of connection points: 2
#     Edge 33, Type (0, 1), BuildingBlock: TEMPAE_clean_linker_10, # of connection points: 2
#     Edge 34, Type (0, 1), BuildingBlock: TEMPAE_clean_linker_10, # of connection points: 2
#     Edge 35, Type (0, 1), BuildingBlock: TEMPAE_clean_linker_10, # of connection points: 2
# Relax obj value: 0.087
# Max RMSD: 0.072
# Mean RMSD: 0.036
data_MOF--net-pry--node1-FUNLAD_clean_sbu_0--node2-ESEHIV_clean_linker_0--edge1-TEMPAE_clean_linker_10
_symmetry_space_group_name_H-M    P1
_symmetry_Int_Tables_number       1
_symmetry_cell_setting            triclinic
loop_
_symmetry_equiv_pos_as_xyz
'x, y, z'
_cell_length_a     34.095013
_cell_length_b     36.483145
_cell_length_c     36.661089
_cell_angle_alpha  90.106393
_cell_angle_beta   90.02676
_cell_angle_gamma 83.650493
loop_
_atom_site_label
_atom_site_type_symbol
_atom_site_fract_x
_atom_site_fract_y
_atom_site_fract_z
_atom_type_partial_charge
H0 H 0.08989 0.20714 0.21601 0.0
H1 H 0.18104 0.11514 0.20749 0.0
H2 H 0.17722 0.2036 0.13065 0.0
C3 C 0.11532 0.19298 0.20227 0.0
C4 C 0.1311 0.20966 0.17144 0.0
C5 C 0.13351 0.15898 0.21631 0.0
C6 C 0.16699 0.1415 0.198 0.0
C7 C 0.18276 0.15766 0.1674 0.0
C8 C 0.16486 0.19151 0.15445 0.0
H9 H 0.33378 0.91881 0.71058 0.0
H10 H 0.43261 0.83325 0.71094 0.0
H11 H 0.34356 0.83582 0.62766 0.0
C12 C 0.35037 0.89471 0.69876 0.0
C13 C 0.33561 0.87987 0.66682 0.0
C14 C 0.38599 0.87901 0.7151 0.0
C15 C 0.40546 0.84627 0.69924 0.0
C16 C 0.38965 0.82981 0.66826 0.0
C17 C 0.35535 0.84754 0.65199 0.0
H18 H 0.64523 0.4262 0.02603 0.0
H19 H 0.64363 0.50623 0.93965 0.0
H20 H 0.55247 0.43438 0.94663 0.0
C21 C 0.63076 0.44024 1.00283 0.0
C22 C 0.59589 0.42824 0.98923 0.0
C23 C 0.64833 0.46847 0.98514 0.0
C24 C 0.62961 0.4855 0.95438 0.0
C25 C 0.5948 0.47356 0.9404 0.0
C26 C 0.57772 0.44556 0.9586 0.0
H27 H 0.87351 0.60922 0.53655 0.0
H28 H 0.96573 0.61456 0.45775 0.0
H29 H 0.87206 0.54859 0.43565 0.0
C30 C 0.88761 0.59961 0.51127 0.0
C31 C 0.86954 0.57532 0.48842 0.0
C32 C 0.9224 0.61376 0.50037 0.0
C33 C 0.93995 0.60233 0.46714 0.0
C34 C 0.92175 0.57924 0.44356 0.0
C35 C 0.88717 0.56496 0.4547 0.0
H36 H 0.83633 0.92516 0.82341 0.0
H37 H 0.92962 0.8348 0.81975 0.0
H38 H 0.84377 0.84192 0.90627 0.0
C39 C 0.85094 0.8997 0.83446 0.0
C40 C 0.8361 0.88554 0.86669 0.0
C41 C 0.88492 0.882 0.81708 0.0
C42 C 0.90402 0.8493 0.83295 0.0
C43 C 0.88901 0.8343 0.86498 0.0
C44 C 0.85537 0.85301 0.88159 0.0
H45 H 0.58729 0.20152 0.32091 0.0
H46 H 0.68088 0.11142 0.3242 0.0
H47 H 0.67316 0.19452 0.40749 0.0
C48 C 0.61293 0.18707 0.33408 0.0
C49 C 0.62792 0.20211 0.36616 0.0
C50 C 0.63211 0.15442 0.3181 0.0
C51 C 0.66616 0.13681 0.33539 0.0
C52 C 0.68093 0.15099 0.36768 0.0
C53 C 0.66158 0.18344 0.38274 0.0
H54 H 0.38085 0.61568 0.03124 0.0
H55 H 0.3821 0.5178 0.09667 0.0
H56 H 0.47969 0.58238 0.10059 0.0
C57 C 0.39615 0.5957 0.04956 0.0
C58 C 0.43265 0.60254 0.06444 0.0
C59 C 0.37774 0.56484 0.0606 0.0
C60 C 0.39696 0.54031 0.08615 0.0
C61 C 0.43344 0.54678 0.10119 0.0
C62 C 0.45191 0.57679 0.0886 0.0
H63 H 0.04104 0.45394 0.60263 0.0
H64 H 0.13828 0.42203 0.53094 0.0
H65 H 0.13785 0.51934 0.59752 0.0
C66 C 0.06845 0.45983 0.59017 0.0
C67 C 0.08695 0.48987 0.60272 0.0
C68 C 0.08732 0.43441 0.5654 0.0
C69 C 0.1233 0.44172 0.5498 0.0
C70 C 0.14164 0.47272 0.56072 0.0
C71 C 0.12294 0.4968 0.58703 0.0
C72 C 0.04041 0.03914 0.44855 0.0
N73 N 0.02071 0.09597 0.54692 0.0
C74 C 0.05582 0.10792 0.53791 0.0
C75 C 0.06173 0.1447 0.54254 0.0
C76 C 0.03135 0.16963 0.55693 0.0
C77 C 0.99598 0.15625 0.56768 0.0
C78 C 0.99119 0.11905 0.56228 0.0
Zn79 Zn 0.01237 0.04467 0.52912 0.0
C80 C 0.93517 0.04432 0.49012 0.0
N81 N 0.99964 0.93915 0.48552 0.0
C82 C 0.03047 0.91471 0.47448 0.0
C83 C 0.96442 0.92771 0.49514 0.0
C84 C 0.9603 0.89032 0.49727 0.0
C85 C 0.99254 0.86457 0.48901 0.0
C86 C 0.02742 0.87679 0.47586 0.0
Zn87 Zn 0.00774 0.991 0.5023 0.0
O88 O 0.03582 0.05911 0.47706 0.0
C89 C 0.08481 0.99118 0.54152 0.0
O90 O 0.03162 1.00608 0.45016 0.0
H91 H 0.94052 0.94738 0.50452 0.0
H92 H 0.07871 0.08929 0.52523 0.0
H93 H 0.05835 0.92439 0.46744 0.0
O94 O 0.07012 0.02401 0.54844 0.0
O95 O 0.06527 0.971 0.5218 0.0
H96 H 0.96342 0.10895 0.56896 0.0
O97 O 0.98436 0.97659 0.55443 0.0
O98 O 0.98838 0.02967 0.58111 0.0
O99 O 0.95009 1.01155 0.48322 0.0
O100 O 0.95468 0.06482 0.5096 0.0
C101 C 0.97961 0.99665 0.58283 0.0
H102 H 0.08921 0.15376 0.53324 0.0
H103 H 0.97198 0.17446 0.57934 0.0
H104 H 0.93295 0.88156 0.50734 0.0
H105 H 0.05278 0.85734 0.46927 0.0
C106 C 0.58233 0.99303 0.98992 0.0
N107 N 0.51782 0.09808 0.98571 0.0
C108 C 0.55246 0.11022 0.99613 0.0
C109 C 0.55658 0.14766 0.9961 0.0
C110 C 0.52496 0.17279 0.98487 0.0
C111 C 0.49066 0.15962 0.97135 0.0
C112 C 0.48755 0.12169 0.97226 0.0
Zn113 Zn 0.51004 0.04627 1.00249 0.0
C114 C 0.47695 0.99875 0.94843 0.0
N115 N 0.49672 0.94144 0.04661 0.0
C116 C 0.52671 0.91852 0.06137 0.0
C117 C 0.46142 0.92935 0.03845 0.0
C118 C 0.45584 0.89251 0.04325 0.0
C119 C 0.48675 0.86772 0.0569 0.0
C120 C 0.52228 0.8813 0.0669 0.0
Zn121 Zn 0.50481 0.99268 0.02876 0.0
O122 O 0.56848 0.02644 0.98484 0.0
C123 C 0.53775 0.0406 0.08288 0.0
O124 O 0.56178 0.97207 1.00765 0.0
H125 H 0.43812 0.94791 0.02634 0.0
H126 H 0.57594 0.09118 1.00725 0.0
H127 H 0.55458 0.92876 0.06745 0.0
O128 O 0.53158 0.06126 0.05512 0.0
O129 O 0.53057 1.00713 0.08032 0.0
H130 H 0.46012 0.11146 0.96458 0.0
O131 O 0.44835 1.01368 0.04971 0.0
O132 O 0.4511 0.06552 0.02036 0.0
O133 O 0.47893 0.97891 0.97703 0.0
O134 O 0.48866 0.0307 0.94998 0.0
C135 C 0.43256 0.04578 0.04146 0.0
H136 H 0.58355 0.15706 1.00639 0.0
H137 H 0.46577 0.17853 0.96245 0.0
H138 H 0.42817 0.8833 0.0346 0.0
H139 H 0.54668 0.86323 0.07803 0.0
C140 C 0.52618 0.44187 0.49432 0.0
N141 N 0.52287 0.48938 0.6004 0.0
C142 C 0.50342 0.46439 0.61862 0.0
C143 C 0.50566 0.46224 0.65672 0.0
C144 C 0.52796 0.48617 0.67587 0.0
C145 C 0.54919 0.5102 0.65609 0.0
C146 C 0.54602 0.51155 0.61839 0.0
Zn147 Zn 0.51277 0.50221 0.54689 0.0
C148 C 0.58614 0.52505 0.5123 0.0
N149 N 0.49286 0.53858 0.43807 0.0
C150 C 0.46983 0.51601 0.42043 0.0
C151 C 0.51407 0.56178 0.41923 0.0
C152 C 0.51419 0.56124 0.38101 0.0
C153 C 0.49249 0.53641 0.36245 0.0
C154 C 0.46904 0.51467 0.38264 0.0
Zn155 Zn 0.50242 0.52647 0.49189 0.0
O156 O 0.52667 0.44566 0.5289 0.0
C157 C 0.4291 0.50359 0.52665 0.0
O158 O 0.51725 0.47035 0.47483 0.0
H159 H 0.53265 0.57911 0.43371 0.0
H160 H 0.48482 0.44733 0.60382 0.0
H161 H 0.454 0.49696 0.43551 0.0
O162 O 0.45254 0.49418 0.55275 0.0
O163 O 0.44229 0.51761 0.49814 0.0
H164 H 0.56066 0.53179 0.60372 0.0
O165 O 0.48789 0.58282 0.50971 0.0
O166 O 0.49864 0.55873 0.56397 0.0
O167 O 0.56253 0.53525 0.48654 0.0
O168 O 0.57297 0.51029 0.54041 0.0
C169 C 0.48915 0.58699 0.54423 0.0
H170 H 0.48889 0.44325 0.67107 0.0
H171 H 0.56744 0.52853 0.66971 0.0
H172 H 0.53253 0.57858 0.36626 0.0
H173 H 0.45119 0.49577 0.36935 0.0
C174 C 0.99178 0.59596 0.99455 0.0
N175 N 0.9935 0.55187 0.10148 0.0
C176 C 0.01033 0.57949 0.11835 0.0
C177 C 1.00382 0.58627 0.15556 0.0
C178 C 0.97937 0.56472 0.17505 0.0
C179 C 0.96191 0.53698 0.15677 0.0
C180 C 0.96967 0.53078 0.11997 0.0
Zn181 Zn 1.00569 0.53676 0.04888 0.0
C182 C 0.93322 0.51211 1.01357 0.0
N183 N 0.02788 0.49842 0.9407 0.0
C184 C 0.05137 0.52066 0.92328 0.0
C185 C 1.00711 0.47491 0.92166 0.0
C186 C 0.00784 0.47491 0.88343 0.0
C187 C 0.02994 0.49947 0.86508 0.0
C188 C 0.05306 0.52139 0.88551 0.0
Zn189 Zn 0.0167 0.51187 0.99412 0.0
O190 O 0.99093 0.59264 0.02914 0.0
C191 C 0.08913 0.53654 0.02971 0.0
O192 O 1.00145 0.56729 0.97546 0.0
H193 H 0.98813 0.45787 0.93593 0.0
H194 H 0.02942 0.5957 0.10317 0.0
H195 H 0.06677 0.54005 0.93841 0.0
O196 O 0.06544 0.54619 0.05557 0.0
O197 O 0.07634 0.52174 1.00138 0.0
H198 H 0.95738 0.50832 0.10645 0.0
O199 O 0.03169 0.45614 1.01359 0.0
O200 O 0.02069 0.48095 0.06765 0.0
O201 O 0.95696 0.50218 0.98782 0.0
O202 O 0.94605 0.52715 0.04172 0.0
C203 C 0.03061 0.45247 0.04819 0.0
H204 H 0.01776 0.60792 0.16898 0.0
H205 H 0.94343 0.51943 0.17111 0.0
H206 H 0.98973 0.45744 0.8685 0.0
H207 H 0.07117 0.54011 0.8724 0.0
C208 C 0.14564 0.12384 0.27551 0.0
C209 C 0.11877 0.14174 0.25038 0.0
C210 C 0.13285 0.10631 0.3069 0.0
C211 C 0.09196 0.1067 0.31406 0.0
C212 C 0.06458 0.12502 0.28912 0.0
C213 C 0.07823 0.14224 0.25772 0.0
C214 C 0.16328 0.08747 0.3326 0.0
C215 C 0.02075 0.12643 0.29561 0.0
C216 C 0.05909 0.03521 0.38138 0.0
C217 C 0.05421 0.05561 0.41393 0.0
C218 C 0.07101 0.05142 0.34872 0.0
C219 C 0.07813 0.08907 0.34829 0.0
C220 C 0.07315 0.10973 0.38106 0.0
C221 C 0.06143 0.09286 0.41323 0.0
C222 C 0.07613 0.02819 0.31461 0.0
C223 C 0.08028 0.14984 0.38222 0.0
H224 H 0.17703 0.1238 0.27088 0.0
H225 H 0.05704 0.15558 0.23859 0.0
H226 H 0.16037 0.10073 0.35986 0.0
H227 H 0.15827 0.05815 0.33616 0.0
H228 H 0.19392 0.08856 0.32269 0.0
H229 H 1.0032 0.14144 0.27367 0.0
H230 H 0.01217 0.09803 0.29738 0.0
H231 H 0.01296 0.14021 0.32204 0.0
H232 H 0.05354 1.00653 0.38136 0.0
H233 H 0.05771 0.10916 0.43799 0.0
H234 H 0.10703 0.02709 0.30482 0.0
H235 H 0.05684 0.0409 0.29262 0.0
H236 H 0.069 0.99957 0.31912 0.0
H237 H 0.11131 0.15265 0.37468 0.0
H238 H 0.07439 0.16236 0.40959 0.0
H239 H 0.06113 0.16577 0.362 0.0
C240 C 0.39317 0.93514 0.75505 0.0
C241 C 0.40194 0.89695 0.74861 0.0
C242 C 0.40495 0.95204 0.78727 0.0
C243 C 0.42819 0.93102 0.81345 0.0
C244 C 0.4389 0.89293 0.80659 0.0
C245 C 0.4251 0.8763 0.77486 0.0
C246 C 0.39174 0.99245 0.79359 0.0
C247 C 0.46484 0.86956 0.83294 0.0
C248 C 0.48523 0.98549 0.88134 0.0
C249 C 0.46331 0.98339 0.9135 0.0
C250 C 0.47481 0.96783 0.84897 0.0
C251 C 0.44061 0.94887 0.84814 0.0
C252 C 0.41782 0.94761 0.88043 0.0
C253 C 0.42997 0.96405 0.91282 0.0
C254 C 0.50103 0.96867 0.81589 0.0
C255 C 0.38033 0.92915 0.88073 0.0
H256 H 0.37687 0.9523 0.73493 0.0
H257 H 0.43212 0.84688 0.77112 0.0
H258 H 0.37595 0.99618 0.82003 0.0
H259 H 0.41773 1.00816 0.79515 0.0
H260 H 0.37191 1.00456 0.77164 0.0
H261 H 0.47398 0.84148 0.82202 0.0
H262 H 0.49171 0.883 0.83929 0.0
H263 H 0.44886 0.86684 0.85895 0.0
H264 H 0.51148 0.99975 0.8819 0.0
H265 H 0.41301 0.96221 0.93764 0.0
H266 H 0.4844 0.98288 0.79304 0.0
H267 H 0.51075 0.94009 0.80673 0.0
H268 H 0.52757 0.98294 0.8214 0.0
H269 H 0.3601 0.94101 0.85901 0.0
H270 H 0.36477 0.93233 0.90735 0.0
H271 H 0.38711 0.89931 0.87483 0.0
C272 C 0.53982 0.48874 0.89553 0.0
C273 C 0.58037 0.48466 0.90338 0.0
C274 C 0.52625 0.49168 0.85941 0.0
C275 C 0.55394 0.49099 0.83063 0.0
C276 C 0.59472 0.48932 0.83851 0.0
C277 C 0.60746 0.48593 0.87475 0.0
C278 C 0.48252 0.4935 0.85199 0.0
C279 C 0.62514 0.48908 0.80851 0.0
C280 C 0.53438 0.45444 0.73644 0.0
C281 C 0.52893 0.48714 0.71624 0.0
C282 C 0.5403 0.45538 0.77429 0.0
C283 C 0.54091 0.48982 0.79211 0.0
C284 C 0.53307 0.52292 0.77217 0.0
C285 C 0.52697 0.52117 0.73448 0.0
C286 C 0.54809 0.41949 0.79485 0.0
C287 C 0.53339 0.56014 0.7902 0.0
H288 H 0.51873 0.48813 0.91759 0.0
H289 H 0.63885 0.48213 0.88037 0.0
H290 H 0.47309 0.51607 0.8326 0.0
H291 H 0.47591 0.46732 0.83912 0.0
H292 H 0.46474 0.49784 0.87733 0.0
H293 H 0.65535 0.49066 0.81935 0.0
H294 H 0.62533 0.46341 0.79221 0.0
H295 H 0.61759 0.51264 0.78976 0.0
H296 H 0.53588 0.42811 0.72246 0.0
H297 H 0.52174 0.54656 0.71904 0.0
H298 H 0.5293 0.42002 0.81958 0.0
H299 H 0.57931 0.41568 0.804 0.0
H300 H 0.54247 0.39537 0.77785 0.0
H301 H 0.51512 0.56183 0.8153 0.0
H302 H 0.52231 0.58313 0.77178 0.0
H303 H 0.56399 0.56398 0.79845 0.0
C304 C 0.93925 0.60863 0.38559 0.0
C305 C 0.93443 0.57633 0.40501 0.0
C306 C 0.94863 0.60739 0.34846 0.0
C307 C 0.95344 0.57297 0.33033 0.0
C308 C 0.94944 0.54013 0.34991 0.0
C309 C 0.93959 0.54223 0.3871 0.0
C310 C 0.95202 0.64305 0.32841 0.0
C311 C 0.95477 0.50292 0.33139 0.0
C312 C 0.93448 0.57249 0.22863 0.0
C313 C 0.97289 0.56967 0.21461 0.0
C314 C 0.92777 0.57379 0.26629 0.0
C315 C 0.96036 0.57174 0.29041 0.0
C316 C 0.99924 0.56931 0.27639 0.0
C317 C 1.00506 0.56857 0.2385 0.0
C318 C 0.88584 0.57713 0.28025 0.0
C319 C 0.03463 0.56683 0.30139 0.0
H320 H 0.93442 0.63514 0.39925 0.0
H321 H 0.9358 0.51733 0.40217 0.0
H322 H 0.98077 0.64178 0.31407 0.0
H323 H 0.92854 0.64729 0.30737 0.0
H324 H 0.94928 0.66732 0.34696 0.0
H325 H 0.95324 0.47991 0.35096 0.0
H326 H 0.93151 0.50147 0.31043 0.0
H327 H 0.98365 0.49899 0.31716 0.0
H328 H 0.90966 0.57347 0.21001 0.0
H329 H 0.03477 0.56589 0.22754 0.0
H330 H 0.88008 0.602 0.29773 0.0
H331 H 0.88136 0.55291 0.29738 0.0
H332 H 0.86384 0.57901 0.25779 0.0
H333 H 0.03288 0.59133 0.31952 0.0
H334 H 0.06291 0.56499 0.28609 0.0
H335 H 0.03483 0.5422 0.31914 0.0
C336 C 0.25569 0.15085 0.15753 0.0
C337 C 0.21872 0.13973 0.14916 0.0
C338 C 0.29002 0.13512 0.1396 0.0
C339 C 0.28721 0.10793 0.1123 0.0
C340 C 0.24972 0.09673 0.10377 0.0
C341 C 0.21593 0.11268 0.12244 0.0
C342 C 0.32931 0.14763 0.14989 0.0
C343 C 0.24527 0.06814 0.0747 0.0
C344 C 0.37259 0.09269 0.04445 0.0
C345 C 0.39422 0.06069 0.05814 0.0
C346 C 0.33727 0.10785 0.06124 0.0
C347 C 0.32355 0.09108 0.09296 0.0
C348 C 0.34517 0.05866 0.10675 0.0
C349 C 0.37993 0.04371 0.08903 0.0
C350 C 0.31483 0.14205 0.04523 0.0
C351 C 0.33208 0.04019 0.14079 0.0
H352 H 0.25767 0.17193 0.17813 0.0
H353 H 0.18719 0.10436 0.11586 0.0
H354 H 0.34987 0.12365 0.15891 0.0
H355 H 0.34278 0.15963 0.12577 0.0
H356 H 0.32658 0.16854 0.17207 0.0
H357 H 0.21408 0.06273 0.07101 0.0
H358 H 0.25658 0.07744 0.04829 0.0
H359 H 0.26312 0.04187 0.08187 0.0
H360 H 0.38329 0.10597 0.02057 0.0
H361 H 0.39652 0.01914 0.10004 0.0
H362 H 0.31398 0.16508 0.06511 0.0
H363 H 0.28385 0.13714 0.03966 0.0
H364 H 0.32829 0.15072 0.0195 0.0
H365 H 0.33149 0.05963 0.16415 0.0
H366 H 0.35183 1.01489 0.14777 0.0
H367 H 0.30166 0.03269 0.13722 0.0
C368 C 0.29977 0.90552 0.61104 0.0
C369 C 0.29945 0.89804 0.64856 0.0
C370 C 0.26578 0.9218 0.59304 0.0
C371 C 0.23025 0.93028 0.61286 0.0
C372 C 0.2298 0.92288 0.65082 0.0
C373 C 0.26447 0.90718 0.66826 0.0
C374 C 0.26787 0.9298 0.55274 0.0
C375 C 0.19247 0.93089 0.67289 0.0
C376 C 0.14825 0.99919 0.57419 0.0
C377 C 0.12298 0.97585 0.55818 0.0
C378 C 0.18346 0.98481 0.59159 0.0
C379 C 0.1934 0.9461 0.5937 0.0
C380 C 0.16804 0.92243 0.57751 0.0
C381 C 0.13341 0.93756 0.55971 0.0
C382 C 0.20996 1.01107 0.60785 0.0
C383 C 0.17713 0.88103 0.57951 0.0
H384 H 0.32684 0.89883 0.59576 0.0
H385 H 0.26399 0.90117 0.6972 0.0
H386 H 0.24745 0.91362 0.5376 0.0
H387 H 0.25828 0.95939 0.54756 0.0
H388 H 0.29809 0.92298 0.54158 0.0
H389 H 0.19701 0.92375 0.70215 0.0
H390 H 0.18128 0.96053 0.67083 0.0
H391 H 0.16923 0.91497 0.66178 0.0
H392 H 0.14051 0.0288 0.5731 0.0
H393 H 0.11397 0.91925 0.54771 0.0
H394 H 0.24005 1.00565 0.59613 0.0
H395 H 0.21265 1.00658 0.63771 0.0
H396 H 0.19874 0.0404 0.6029 0.0
H397 H 0.20607 0.87232 0.56657 0.0
H398 H 0.15428 0.8664 0.56583 0.0
H399 H 0.17933 0.87218 0.60846 0.0
C400 C 0.71802 0.44721 1.00309 0.0
C401 C 0.68889 0.47635 0.99502 0.0
C402 C 0.75747 0.45344 1.00825 0.0
C403 C 0.76825 0.4896 1.00466 0.0
C404 C 0.73893 0.51932 0.99756 0.0
C405 C 0.69954 0.51237 0.99307 0.0
C406 C 0.78785 0.42109 1.01623 0.0
C407 C 0.74938 0.55825 0.99343 0.0
C408 C 0.86721 0.50991 0.0424 0.0
C409 C 0.89106 0.50641 1.01112 0.0
C410 C 0.82715 0.50456 0.04072 0.0
C411 C 0.81046 0.49599 1.00686 0.0
C412 C 0.83427 0.49274 0.97511 0.0
C413 C 0.8744 0.49773 0.97767 0.0
C414 C 0.80282 0.50769 0.07522 0.0
C415 C 0.81735 0.48398 0.93844 0.0
H416 H 0.71038 0.41917 1.00393 0.0
H417 H 0.67716 0.53507 0.98725 0.0
H418 H 0.80862 0.4166 0.99296 0.0
H419 H 0.80545 0.42688 0.04062 0.0
H420 H 0.77421 0.39523 0.02099 0.0
H421 H 0.7229 0.57848 0.98938 0.0
H422 H 0.7655 0.56642 0.01789 0.0
H423 H 0.7693 0.55975 0.96968 0.0
H424 H 0.87996 0.51643 0.06839 0.0
H425 H 0.89265 0.49518 0.95339 0.0
H426 H 0.79074 0.4812 0.08063 0.0
H427 H 0.77733 0.5291 0.07196 0.0
H428 H 0.82024 0.51479 0.09934 0.0
H429 H 0.80581 0.45674 0.93944 0.0
H430 H 0.83958 0.48343 0.91624 0.0
H431 H 0.7922 0.50479 0.9316 0.0
C432 C 0.80014 0.59236 0.50968 0.0
C433 C 0.8294 0.56538 0.49675 0.0
C434 C 0.76102 0.5847 0.51389 0.0
C435 C 0.75077 0.54932 0.50464 0.0
C436 C 0.7803 0.52163 0.49255 0.0
C437 C 0.81931 0.52998 0.48882 0.0
C438 C 0.73037 0.61491 0.52703 0.0
C439 C 0.77045 0.48355 0.48249 0.0
C440 C 0.65333 0.52263 0.54011 0.0
C441 C 0.62843 0.53049 0.50997 0.0
C442 C 0.69334 0.52824 0.53866 0.0
C443 C 0.70884 0.54186 0.50624 0.0
C444 C 0.68401 0.54943 0.47556 0.0
C445 C 0.64405 0.54375 0.47783 0.0
C446 C 0.71887 0.52009 0.57197 0.0
C447 C 0.69958 0.56386 0.44045 0.0
H448 H 0.80744 0.62001 0.51515 0.0
H449 H 0.84185 0.50896 0.47907 0.0
H450 H 0.70858 0.6223 0.50504 0.0
H451 H 0.714 0.60516 0.55061 0.0
H452 H 0.7436 0.64016 0.53528 0.0
H453 H 0.79712 0.46464 0.47522 0.0
H454 H 0.75521 0.47138 0.50549 0.0
H455 H 0.74992 0.48538 0.45891 0.0
H456 H 0.64149 0.51242 0.56509 0.0
H457 H 0.62503 0.54976 0.4544 0.0
H458 H 0.73046 0.5457 0.58149 0.0
H459 H 0.74467 0.50004 0.56506 0.0
H460 H 0.7025 0.50873 0.59477 0.0
H461 H 0.71065 0.59091 0.44541 0.0
H462 H 0.67669 0.56733 0.41878 0.0
H463 H 0.72481 0.54472 0.43036 0.0
C464 C 0.13817 0.27298 0.14671 0.0
C465 C 0.1135 0.24618 0.15657 0.0
C466 C 0.12321 0.30608 0.12948 0.0
C467 C 0.08237 0.31294 0.12156 0.0
C468 C 0.05708 0.28639 0.13214 0.0
C469 C 0.07287 0.25348 0.14965 0.0
C470 C 0.15134 0.3336 0.11937 0.0
C471 C 0.01342 0.2924 0.12427 0.0
C472 C 0.04182 0.41357 0.10474 0.0
C473 C 0.04184 0.41603 0.06643 0.0
C474 C 0.05397 0.3802 0.12287 0.0
C475 C 0.06645 0.34801 0.10243 0.0
C476 C 0.06573 0.35004 0.06374 0.0
C477 C 0.05357 0.38391 0.04625 0.0
C478 C 0.05437 0.37966 0.16405 0.0
C479 C 0.07859 0.3165 0.04077 0.0
H480 H 0.16951 0.26792 0.15232 0.0
H481 H 0.05359 0.23292 0.15684 0.0
H482 H 0.15096 0.33788 0.08941 0.0
H483 H 0.14182 0.36067 0.13225 0.0
H484 H 0.18214 0.32452 0.12794 0.0
H485 H 0.99753 0.26964 0.13484 0.0
H486 H 1.00035 0.31871 0.13668 0.0
H487 H 0.00853 0.29469 0.0944 0.0
H488 H 0.03282 0.43802 0.12082 0.0
H489 H 0.05369 0.38529 1.01673 0.0
H490 H 0.08509 0.37309 0.17396 0.0
H491 H 0.03709 0.35779 0.17431 0.0
H492 H 0.04202 0.40648 0.17603 0.0
H493 H 0.11028 0.30743 0.0457 0.0
H494 H 0.07424 0.32191 1.01115 0.0
H495 H 0.06182 0.29335 0.04865 0.0
C496 C 0.61003 0.36107 1.00039 0.0
C497 C 0.58293 0.39284 1.00119 0.0
C498 C 0.5972 0.32597 1.00199 0.0
C499 C 0.55633 0.32271 1.00493 0.0
C500 C 0.52914 0.3547 1.0088 0.0
C501 C 0.54277 0.38953 1.00655 0.0
C502 C 0.62714 0.29249 0.99765 0.0
C503 C 0.48547 0.35223 1.01295 0.0
C504 C 0.52613 0.23634 0.96048 0.0
C505 C 0.52728 0.21246 0.99028 0.0
C506 C 0.53387 0.27303 0.96515 0.0
C507 C 0.5422 0.28595 1.00054 0.0
C508 C 0.54084 0.2624 0.03098 0.0
C509 C 0.53379 0.22572 0.02541 0.0
C510 C 0.53541 0.29731 0.93197 0.0
C511 C 0.54867 0.27539 0.06916 0.0
H512 H 0.64102 0.36357 0.99569 0.0
H513 H 0.52185 0.41418 1.00717 0.0
H514 H 0.62356 0.2722 0.01955 0.0
H515 H 0.62228 0.2788 0.97122 0.0
H516 H 0.65796 0.29968 0.99832 0.0
H517 H 0.46928 0.37899 0.02144 0.0
H518 H 0.47317 0.34399 0.98654 0.0
H519 H 0.48003 0.3309 0.03331 0.0
H520 H 0.52113 0.22581 0.93339 0.0
H521 H 0.53427 0.20705 0.04844 0.0
H522 H 0.56603 0.30414 0.92793 0.0
H523 H 0.51635 0.32366 0.93599 0.0
H524 H 0.52583 0.28383 0.90679 0.0
H525 H 0.5803 0.27944 0.07196 0.0
H526 H 0.54139 0.25529 0.09016 0.0
H527 H 0.53125 0.30235 0.07467 0.0
C528 C 0.97526 0.65038 0.52264 0.0
C529 C 0.93501 0.64718 0.51759 0.0
C530 C 0.98886 0.68517 0.52558 0.0
C531 C 0.96151 0.71717 0.52287 0.0
C532 C 0.92053 0.71386 0.522 0.0
C533 C 0.90774 0.67878 0.51966 0.0
C534 C 0.03268 0.68759 0.52783 0.0
C535 C 0.89034 0.74731 0.51916 0.0
C536 C 0.9863 0.81513 0.5342 0.0
C537 C 0.99035 0.82556 0.49775 0.0
C538 C 0.97934 0.7791 0.54316 0.0
C539 C 0.97541 0.75341 0.51484 0.0
C540 C 0.98109 0.76356 0.47801 0.0
C541 C 0.98887 0.79961 0.46992 0.0
C542 C 0.97444 0.76909 0.58271 0.0
C543 C 0.97682 0.73697 0.44698 0.0
H544 H 0.99632 0.62586 0.52122 0.0
H545 H 0.87663 0.67641 0.51546 0.0
H546 H 0.04401 0.69352 0.50034 0.0
H547 H 0.03918 0.71032 0.54625 0.0
H548 H 0.04889 0.66137 0.53764 0.0
H549 H 0.85981 0.74027 0.52349 0.0
H550 H 0.89645 0.76861 0.53934 0.0
H551 H 0.89199 0.75962 0.49161 0.0
H552 H 0.98766 0.83551 0.55562 0.0
H553 H 0.99192 0.80803 0.44181 0.0
H554 H 0.99125 0.74201 0.58885 0.0
H555 H 0.94289 0.76661 0.58839 0.0
H556 H 0.98441 0.79019 0.60143 0.0
H557 H 0.99659 0.7111 0.45127 0.0
H558 H 0.98379 0.7487 0.42012 0.0
H559 H 0.9461 0.7296 0.44614 0.0
C560 C 0.38323 0.76657 0.64311 0.0
C561 C 0.40763 0.79375 0.65257 0.0
C562 C 0.39828 0.73363 0.62559 0.0
C563 C 0.43898 0.72731 0.61699 0.0
C564 C 0.46403 0.75428 0.62707 0.0
C565 C 0.44814 0.78705 0.64486 0.0
C566 C 0.37041 0.70566 0.61602 0.0
C567 C 0.50755 0.74879 0.61846 0.0
C568 C 0.47965 0.6267 0.60046 0.0
C569 C 0.47863 0.62373 0.56219 0.0
C570 C 0.468 0.66029 0.61845 0.0
C571 C 0.45498 0.69219 0.59791 0.0
C572 C 0.45482 0.6897 0.55924 0.0
C573 C 0.46654 0.6556 0.54188 0.0
C574 C 0.46857 0.66132 0.65963 0.0
C575 C 0.44134 0.72293 0.53617 0.0
H576 H 0.35199 0.77117 0.64936 0.0
H577 H 0.4672 0.80792 0.65176 0.0
H578 H 0.37047 0.70102 0.58611 0.0
H579 H 0.38041 0.67882 0.62905 0.0
H580 H 0.33964 0.7145 0.62486 0.0
H581 H 0.52323 0.77196 0.62849 0.0
H582 H 0.52127 0.7228 0.63094 0.0
H583 H 0.51187 0.74617 0.58854 0.0
H584 H 0.48901 0.60246 0.61663 0.0
H585 H 0.46568 0.65382 0.51238 0.0
H586 H 0.43802 0.66754 0.67009 0.0
H587 H 0.48565 0.68362 0.66932 0.0
H588 H 0.48163 0.63479 0.67162 0.0
H589 H 0.40964 0.73173 0.54137 0.0
H590 H 0.44539 0.71726 0.50655 0.0
H591 H 0.4579 0.74635 0.54371 0.0
C592 C 0.94024 0.89802 0.77548 0.0
C593 C 0.89967 0.89783 0.78231 0.0
C594 C 0.95401 0.91417 0.74356 0.0
C595 C 0.92673 0.93074 0.71756 0.0
C596 C 0.88581 0.93032 0.72413 0.0
C597 C 0.87289 0.91386 0.75609 0.0
C598 C 0.99788 0.91368 0.73775 0.0
C599 C 0.85551 0.94733 0.69729 0.0
C600 C 0.95912 1.00157 0.64942 0.0
C601 C 0.96557 0.98046 0.61745 0.0
C602 C 0.94673 0.9858 0.68211 0.0
C603 C 0.94078 0.94788 0.68319 0.0
C604 C 0.94739 0.92647 0.65102 0.0
C605 C 0.9595 0.94294 0.61875 0.0
C606 C 0.93986 1.00981 0.71555 0.0
C607 C 0.94167 0.88601 0.65059 0.0
H608 H 0.96135 0.88614 0.79546 0.0
H609 H 0.84152 0.91336 0.76039 0.0
H610 H 1.00658 0.8995 0.71172 0.0
H611 H 1.00567 0.94233 0.73556 0.0
H612 H 0.01534 0.89955 0.76025 0.0
H613 H 0.8248 0.94539 0.70658 0.0
H614 H 0.85939 0.97682 0.69307 0.0
H615 H 0.85976 0.93336 0.67045 0.0
H616 H 0.96374 0.03048 0.64893 0.0
H617 H 0.96446 0.92612 0.59444 0.0
H618 H 0.9589 0.99824 0.73823 0.0
H619 H 0.90879 1.0102 0.72467 0.0
H620 H 0.94607 0.03863 0.71053 0.0
H621 H 0.96059 0.87112 0.67165 0.0
H622 H 0.94885 0.87292 0.62367 0.0
H623 H 0.91062 0.88247 0.65741 0.0
C624 C 0.57686 0.13798 0.27657 0.0
C625 C 0.61741 0.13855 0.28328 0.0
C626 C 0.56315 0.12176 0.24459 0.0
C627 C 0.59049 0.10557 0.2184 0.0
C628 C 0.63137 0.10636 0.22486 0.0
C629 C 0.64423 0.12284 0.25691 0.0
C630 C 0.51932 0.12181 0.2389 0.0
C631 C 0.66171 0.0898 0.1978 0.0
C632 C 0.55866 0.03506 0.14934 0.0
C633 C 0.55175 0.05651 0.11772 0.0
C634 C 0.571 0.05061 0.18224 0.0
C635 C 0.57649 0.08862 0.18384 0.0
C636 C 0.56948 0.11035 0.15201 0.0
C637 C 0.55736 0.09413 0.11956 0.0
C638 C 0.57828 0.02628 0.21533 0.0
C639 C 0.57481 0.1509 0.15214 0.0
H640 H 0.55574 0.14961 0.29668 0.0
H641 H 0.67557 0.12364 0.26115 0.0
H642 H 0.5103 0.13623 0.21311 0.0
H643 H 0.5119 0.09307 0.2363 0.0
H644 H 0.50182 0.13549 0.26166 0.0
H645 H 0.69241 0.09193 0.20707 0.0
H646 H 0.65811 0.06028 0.19326 0.0
H647 H 0.65724 0.10395 0.17113 0.0
H648 H 0.5544 1.00608 0.14844 0.0
H649 H 0.55209 0.1112 0.09551 0.0
H650 H 0.55925 0.03744 0.2382 0.0
H651 H 0.60936 0.02608 0.22438 0.0
H652 H 0.57235 0.99743 0.20992 0.0
H653 H 0.55574 0.16543 0.17335 0.0
H654 H 0.56752 0.16419 0.12538 0.0
H655 H 0.60579 0.15464 0.15909 0.0
C656 C 0.48808 0.52245 0.14349 0.0
C657 C 0.44753 0.52896 0.13591 0.0
C658 C 0.50165 0.51759 0.17949 0.0
C659 C 0.47393 0.51873 0.20826 0.0
C660 C 0.43313 0.52086 0.20032 0.0
C661 C 0.42041 0.52612 0.16426 0.0
C662 C 0.54543 0.51475 0.18683 0.0
C663 C 0.4026 0.52131 0.23023 0.0
C664 C 0.49757 0.49647 0.30694 0.0
C665 C 0.49452 0.53195 0.32235 0.0
C666 C 0.49359 0.49151 0.26929 0.0
C667 C 0.48653 0.52281 0.24662 0.0
C668 C 0.48645 0.55865 0.26169 0.0
C669 C 0.49045 0.5628 0.2995 0.0
C670 C 0.49429 0.4529 0.25423 0.0
C671 C 0.4795 0.59272 0.23821 0.0
H672 H 0.50921 0.5239 0.1216 0.0
H673 H 0.38903 0.53137 0.15894 0.0
H674 H 0.55333 0.542 0.196 0.0
H675 H 0.55396 0.49462 0.20885 0.0
H676 H 0.56292 0.5065 0.16201 0.0
H677 H 0.3727 0.51834 0.21933 0.0
H678 H 0.41071 0.49877 0.25001 0.0
H679 H 0.4013 0.54779 0.24537 0.0
H680 H 0.50175 0.4725 0.32454 0.0
H681 H 0.48822 0.59021 0.31134 0.0
H682 H 0.51162 0.44981 0.2286 0.0
H683 H 0.46372 0.44734 0.2477 0.0
H684 H 0.50693 0.43179 0.27405 0.0
H685 H 0.49929 0.59021 0.21411 0.0
H686 H 0.48442 0.61818 0.25342 0.0
H687 H 0.44866 0.59569 0.22799 0.0
C688 C 0.10114 0.50985 0.66585 0.0
C689 C 0.0735 0.50727 0.63786 0.0
C690 C 0.08908 0.51474 0.70216 0.0
C691 C 0.04844 0.51676 0.7107 0.0
C692 C 0.02019 0.51807 0.68234 0.0
C693 C 0.03309 0.5136 0.6461 0.0
C694 C 0.12014 0.51411 0.73163 0.0
C695 C 0.97655 0.52075 0.69034 0.0
C696 C 0.03257 0.47285 0.80207 0.0
C697 C 0.02839 0.50376 0.82495 0.0
C698 C 0.0366 0.47691 0.76427 0.0
C699 C 0.03646 0.51272 0.74922 0.0
C700 C 0.0295 0.54406 0.77194 0.0
C701 C 0.02545 0.53919 0.80957 0.0
C702 C 0.04346 0.44279 0.74072 0.0
C703 C 0.02881 0.58264 0.75692 0.0
H704 H 0.13242 0.50473 0.65999 0.0
H705 H 0.01157 0.51231 0.62449 0.0
H706 H 0.11238 0.53653 0.75169 0.0
H707 H 0.12171 0.48754 0.74654 0.0
H708 H 0.14984 0.51715 0.72033 0.0
H709 H 0.95856 0.52877 0.66576 0.0
H710 H 0.96898 0.49352 0.69977 0.0
H711 H 0.96834 0.54099 0.7124 0.0
H712 H 0.03471 0.44548 0.81388 0.0
H713 H 0.02119 0.56322 0.82718 0.0
H714 H 0.07418 0.43992 0.73023 0.0
H715 H 0.02341 0.44518 0.7168 0.0
H716 H 0.03881 0.41734 0.75596 0.0
H717 H 0.05928 0.58795 0.74976 0.0
H718 H 0.01681 0.60386 0.77696 0.0
H719 H 0.01089 0.58582 0.73163 0.0
C720 C 0.76543 0.91403 0.86458 0.0
C721 C 0.79994 0.90411 0.88474 0.0
C722 C 0.73036 0.92918 0.88177 0.0
C723 C 0.72987 0.93515 0.92002 0.0
C724 C 0.76496 0.92606 0.94034 0.0
C725 C 0.7994 0.91042 0.92254 0.0
C726 C 0.69356 0.93798 0.85911 0.0
C727 C 0.76605 0.93252 0.98099 0.0
C728 C 0.64663 1.00228 0.9595 0.0
C729 C 0.62094 0.97829 0.97363 0.0
C730 C 0.68234 0.98868 0.94249 0.0
C731 C 0.69248 0.9501 0.9389 0.0
C732 C 0.66674 0.92576 0.95324 0.0
C733 C 0.63153 0.9401 0.97064 0.0
C734 C 0.70916 1.01562 0.92818 0.0
C735 C 0.67608 0.88448 0.94967 0.0
H736 H 0.76553 0.90889 0.83544 0.0
H737 H 0.82607 0.90313 0.93823 0.0
H738 H 0.67023 0.92138 0.86872 0.0
H739 H 0.68205 0.96744 0.86241 0.0
H740 H 0.6989 0.93225 0.82965 0.0
H741 H 0.79605 0.9255 0.99259 0.0
H742 H 0.75605 0.96184 0.98724 0.0
H743 H 0.74547 0.91559 0.99488 0.0
H744 H 0.63882 0.03181 0.96173 0.0
H745 H 0.61181 0.92131 0.98121 0.0
H746 H 0.71265 1.01232 0.89823 0.0
H747 H 0.73894 1.00983 0.94048 0.0
H748 H 0.6977 0.04471 0.93413 0.0
H749 H 0.679 0.87674 0.92043 0.0
H750 H 0.65299 0.86927 0.96212 0.0
H751 H 0.70474 0.8754 0.96295 0.0
C752 C 0.71757 0.12558 0.42324 0.0
C753 C 0.71717 0.13256 0.3856 0.0
C754 C 0.75207 0.11004 0.44096 0.0
C755 C 0.78737 0.10183 0.42073 0.0
C756 C 0.78703 0.10854 0.38262 0.0
C757 C 0.75188 0.1235 0.36549 0.0
C758 C 0.75083 0.10271 0.48143 0.0
C759 C 0.82406 0.10074 0.36008 0.0
C760 C 0.88529 0.09709 0.47205 0.0
C761 C 0.89649 0.05894 0.47398 0.0
C762 C 0.85 0.11136 0.45476 0.0
C763 C 0.82479 0.08696 0.43953 0.0
C764 C 0.83553 0.0484 0.44211 0.0
C765 C 0.87134 0.03489 0.45897 0.0
C766 C 0.84004 0.15264 0.45222 0.0
C767 C 0.80925 0.02137 0.42689 0.0
H768 H 0.69073 0.13226 0.43887 0.0
H769 H 0.75184 0.12918 0.33647 0.0
H770 H 0.76127 0.07337 0.48704 0.0
H771 H 0.77098 0.11968 0.49593 0.0
H772 H 0.72069 0.10905 0.49293 0.0
H773 H 0.81884 0.10711 0.33074 0.0
H774 H 0.84704 0.11742 0.37038 0.0
H775 H 0.83595 0.07131 0.36266 0.0
H776 H 0.90461 0.11592 0.48331 0.0
H777 H 0.87964 1.00537 0.46041 0.0
H778 H 0.81121 0.16105 0.4655 0.0
H779 H 0.83716 0.16102 0.42317 0.0
H780 H 0.86277 0.16791 0.46527 0.0
H781 H 0.77935 0.02653 0.43906 0.0
H782 H 0.82108 0.99227 0.43222 0.0
H783 H 0.80592 0.02526 0.397 0.0
C784 C 0.3234 0.52618 0.04512 0.0
C785 C 0.3361 0.56114 0.05019 0.0
C786 C 0.28329 0.52206 0.04025 0.0
C787 C 0.25529 0.55374 0.03956 0.0
C788 C 0.26804 0.58919 0.04284 0.0
C789 C 0.30816 0.59245 0.04859 0.0
C790 C 0.27072 0.48376 0.03723 0.0
C791 C 0.23914 0.62366 0.04152 0.0
C792 C 0.15392 0.54358 1.00057 0.0
C793 C 0.13131 0.54188 0.03235 0.0
C794 C 0.19423 0.54794 1.00247 0.0
C795 C 0.21248 0.54976 0.03699 0.0
C796 C 0.1898 0.54791 0.06918 0.0
C797 C 0.14932 0.54444 0.06647 0.0
C798 C 0.21722 0.55077 0.96758 0.0
C799 C 0.20841 0.54912 0.1065 0.0
H800 H 0.34476 0.50187 0.0458 0.0
H801 H 0.31728 0.61958 0.05325 0.0
H802 H 0.25113 0.47872 0.06043 0.0
H803 H 0.25356 0.48114 1.01183 0.0
H804 H 0.29627 0.46203 0.03727 0.0
H805 H 0.25419 0.64916 0.04102 0.0
H806 H 0.22006 0.62332 1.01702 0.0
H807 H 0.21959 0.62474 0.06576 0.0
H808 H 0.13999 0.54189 0.97412 0.0
H809 H 0.13195 0.54288 0.09106 0.0
H810 H 0.2415 0.52793 0.96599 0.0
H811 H 0.23093 0.57697 0.96727 0.0
H812 H 0.19838 0.54972 0.94294 0.0
H813 H 0.23277 0.52644 0.10912 0.0
H814 H 0.18685 0.54653 0.1288 0.0
H815 H 0.22143 0.57543 0.11013 0.0
C816 C 0.21112 0.44615 0.54665 0.0
C817 C 0.1828 0.47709 0.54927 0.0
C818 C 0.25096 0.45005 0.5401 0.0
C819 C 0.26305 0.48577 0.537 0.0
C820 C 0.23461 0.51708 0.53854 0.0
C821 C 0.19478 0.51233 0.54423 0.0
C822 C 0.28034 0.41594 0.53793 0.0
C823 C 0.24645 0.55565 0.53571 0.0
C824 C 0.36898 0.49584 0.56346 0.0
C825 C 0.38679 0.49864 0.52931 0.0
C826 C 0.32857 0.49216 0.56632 0.0
C827 C 0.30571 0.49039 0.53421 0.0
C828 C 0.32369 0.49267 0.49964 0.0
C829 C 0.36396 0.49719 0.49761 0.0
C830 C 0.31028 0.49045 0.60371 0.0
C831 C 0.30047 0.49 0.46482 0.0
H832 H 0.20259 0.4188 0.55121 0.0
H833 H 0.1731 0.53637 0.54568 0.0
H834 H 0.29908 0.41691 0.5133 0.0
H835 H 0.30016 0.41478 0.56201 0.0
H836 H 0.2657 0.39022 0.53711 0.0
H837 H 0.22056 0.57701 0.53591 0.0
H838 H 0.26595 0.56094 0.55894 0.0
H839 H 0.26348 0.55862 0.51033 0.0
H840 H 0.3865 0.49721 0.58802 0.0
H841 H 0.37772 0.49909 0.47112 0.0
H842 H 0.29785 0.46383 0.60717 0.0
H843 H 0.28555 0.51273 0.60664 0.0
H844 H 0.3319 0.49329 0.62594 0.0
H845 H 0.2874 0.46348 0.46408 0.0
H846 H 0.319 0.49184 0.44011 0.0
H847 H 0.27571 0.51241 0.46383 0.0
C848 C 0.94778 0.79213 0.88829 0.0
C849 C 0.90711 0.79868 0.88134 0.0
C850 C 0.96401 0.76003 0.90687 0.0
C851 C 0.93912 0.73354 0.91847 0.0
C852 C 0.89823 0.73966 0.91061 0.0
C853 C 0.88282 0.77199 0.89234 0.0
C854 C 0.00771 0.75477 0.91468 0.0
C855 C 0.87053 0.71211 0.92176 0.0
C856 C 0.98059 0.63369 0.93737 0.0
C857 C 0.98052 0.63204 0.97574 0.0
C858 C 0.96825 0.66657 0.91856 0.0
C859 C 0.95555 0.69911 0.93834 0.0
C860 C 0.95633 0.69797 0.97707 0.0
C861 C 0.96867 0.66453 0.99527 0.0
C862 C 0.96778 0.66614 0.87736 0.0
C863 C 0.9433 0.73197 0.99933 0.0
H864 H 0.96673 0.81265 0.88019 0.0
H865 H 0.85144 0.77652 0.88672 0.0
H866 H 0.0127 0.75314 0.94457 0.0
H867 H 0.02113 0.72835 0.90274 0.0
H868 H 0.02319 0.77755 0.90357 0.0
H869 H 0.8396 0.72067 0.91327 0.0
H870 H 0.88024 0.68479 0.90947 0.0
H871 H 0.87124 0.70859 0.95181 0.0
H872 H 0.98973 0.60894 0.92177 0.0
H873 H 0.96854 0.66376 0.02482 0.0
H874 H 0.98461 0.68806 0.86651 0.0
H875 H 0.93698 0.67202 0.86745 0.0
H876 H 0.98054 0.63919 0.86595 0.0
H877 H 0.95966 0.75513 0.99067 0.0
H878 H 0.948 0.72732 0.02902 0.0
H879 H 0.91149 0.74057 0.99452 0.0
C880 C 0.44309 0.65878 0.02741 0.0
C881 C 0.44704 0.63938 0.06043 0.0
C882 C 0.45235 0.69529 0.02515 0.0
C883 C 0.4664 0.71245 0.05651 0.0
C884 C 0.47217 0.69248 0.08939 0.0
C885 C 0.46187 0.65651 0.0911 0.0
C886 C 0.44544 0.71602 0.98972 0.0
C887 C 0.48748 0.70967 0.12335 0.0
C888 C 0.51356 0.80149 0.0479 0.0
C889 C 0.48235 0.82772 0.05842 0.0
C890 C 0.50881 0.76379 0.04689 0.0
C891 C 0.47185 0.7522 0.05614 0.0
C892 C 0.4403 0.77848 0.06685 0.0
C893 C 0.44606 0.81585 0.06824 0.0
C894 C 0.54328 0.73637 0.03602 0.0
C895 C 0.40039 0.76713 0.07691 0.0
H896 H 0.43192 0.64573 1.00355 0.0
H897 H 0.46397 0.64243 0.11714 0.0
H898 H 0.42137 0.73882 0.99339 0.0
H899 H 0.47228 0.72863 0.98166 0.0
H900 H 0.43718 0.69798 0.96718 0.0
H901 H 0.49444 0.68915 0.14542 0.0
H902 H 0.51449 0.72286 0.11706 0.0
H903 H 0.46503 0.73155 0.13368 0.0
H904 H 0.5415 0.81045 0.0397 0.0
H905 H 0.42201 0.83584 0.07697 0.0
H906 H 0.53543 0.72046 1.01178 0.0
H907 H 0.55042 0.71632 0.05841 0.0
H908 H 0.57008 0.74991 0.0296 0.0
H909 H 0.38896 0.751 0.05434 0.0
H910 H 0.37842 0.79119 0.08288 0.0
H911 H 0.40317 0.74907 0.10129 0.0
C912 C 0.07616 0.3784 0.52804 0.0
C913 C 0.07309 0.3975 0.56134 0.0
C914 C 0.06666 0.34196 0.52557 0.0
C915 C 0.05329 0.32457 0.55702 0.0
C916 C 0.04854 0.34419 0.59024 0.0
C917 C 0.05907 0.38008 0.59213 0.0
C918 C 0.07252 0.32157 0.48979 0.0
C919 C 0.034 0.32674 0.62432 0.0
C920 C 1.00496 0.23607 0.54878 0.0
C921 C 0.03619 0.20955 0.55851 0.0
C922 C 0.0101 0.2737 0.54783 0.0
C923 C 0.04746 0.2849 0.55632 0.0
C924 C 0.07904 0.25832 0.5662 0.0
C925 C 0.0729 0.22105 0.56757 0.0
C926 C 0.97559 0.30145 0.53788 0.0
C927 C 0.11937 0.26923 0.57544 0.0
H928 H 0.08673 0.39166 0.5041 0.0
H929 H 0.05771 0.39389 0.61836 0.0
H930 H 0.09645 0.29855 0.49273 0.0
H931 H 0.04533 0.30931 0.4821 0.0
H932 H 0.08043 0.33976 0.46731 0.0
H933 H 0.02787 0.34702 0.6468 0.0
H934 H 1.00666 0.31388 0.61847 0.0
H935 H 0.05654 0.30457 0.63387 0.0
H936 H 0.97668 0.22741 0.54118 0.0
H937 H 0.09699 0.20083 0.57571 0.0
H938 H 0.98304 0.31755 0.5137 0.0
H939 H 0.96913 0.32129 0.56063 0.0
H940 H 0.94852 0.28819 0.53178 0.0
H941 H 0.13031 0.2855 0.5528 0.0
H942 H 0.14131 0.24496 0.58062 0.0
H943 H 0.11747 0.28702 0.60008 0.0
C944 C 0.56922 0.24445 0.38943 0.0
C945 C 0.60989 0.23778 0.38255 0.0
C946 C 0.55305 0.27668 0.40794 0.0
C947 C 0.578 0.30316 0.41954 0.0
C948 C 0.61891 0.29689 0.41178 0.0
C949 C 0.63425 0.26444 0.39357 0.0
C950 C 0.50933 0.28212 0.41564 0.0
C951 C 0.64668 0.32443 0.42292 0.0
C952 C 0.53706 0.40333 0.43754 0.0
C953 C 0.53707 0.40546 0.47589 0.0
C954 C 0.54919 0.37018 0.41903 0.0
C955 C 0.56163 0.33784 0.4391 0.0
C956 C 0.56073 0.33945 0.47783 0.0
C957 C 0.54859 0.37317 0.49573 0.0
C958 C 0.5498 0.37011 0.37783 0.0
C959 C 0.57347 0.30567 0.50038 0.0
H960 H 0.55021 0.22395 0.38131 0.0
H961 H 0.66563 0.25983 0.388 0.0
H962 H 0.50427 0.28412 0.44551 0.0
H963 H 0.496 0.3084 0.40346 0.0
H964 H 0.49383 0.25923 0.40469 0.0
H965 H 0.67764 0.31566 0.41466 0.0
H966 H 0.63718 0.35164 0.41041 0.0
H967 H 0.64579 0.32828 0.45295 0.0
H968 H 0.52816 0.42792 0.42171 0.0
H969 H 0.54867 0.37432 0.52527 0.0
H970 H 0.53289 0.34813 0.3671 0.0
H971 H 0.58062 0.364 0.36804 0.0
H972 H 0.53719 0.39695 0.36617 0.0
H973 H 0.55708 0.28247 0.49179 0.0
H974 H 0.56859 0.31067 0.53001 0.0
H975 H 0.6053 0.29692 0.49582 0.0
loop_
_geom_bond_atom_site_label_1
_geom_bond_atom_site_label_2
_geom_bond_distance
_geom_bond_site_symmetry_2
_ccdc_geom_bond_type
H0 C3 0.931 . S
H1 C6 0.928 . S
H2 C8 0.930 . S
C3 H0 0.931 . S
C3 C4 1.413 . S
C3 C5 1.360 . S
C4 C3 1.413 . S
C4 C8 1.429 . S
C5 C3 1.360 . S
C5 C6 1.372 . S
C6 H1 0.928 . S
C6 C5 1.372 . S
C6 C7 1.404 . S
C7 C6 1.404 . S
C7 C8 1.391 . S
C8 H2 0.930 . S
C8 C4 1.429 . S
C8 C7 1.391 . S
H9 C12 0.931 . S
H10 C15 0.928 . S
H11 C17 0.930 . S
C12 H9 0.931 . S
C12 C13 1.413 . S
C12 C14 1.360 . S
C13 C12 1.413 . S
C13 C17 1.429 . S
C14 C12 1.360 . S
C14 C15 1.372 . S
C15 H10 0.928 . S
C15 C14 1.372 . S
C15 C16 1.404 . S
C16 C15 1.404 . S
C16 C17 1.391 . S
C17 H11 0.930 . S
C17 C13 1.429 . S
C17 C16 1.391 . S
H18 C21 0.931 . S
H19 C24 0.928 . S
H20 C26 0.930 . S
C21 H18 0.931 . S
C21 C22 1.413 . S
C21 C23 1.360 . S
C22 C21 1.413 . S
C22 C26 1.429 . S
C23 C21 1.360 . S
C23 C24 1.372 . S
C24 H19 0.928 . S
C24 C23 1.372 . S
C24 C25 1.404 . S
C25 C24 1.404 . S
C25 C26 1.391 . S
C26 H20 0.930 . S
C26 C22 1.429 . S
C26 C25 1.391 . S
H27 C30 0.931 . S
H28 C33 0.928 . S
H29 C35 0.930 . S
C30 H27 0.931 . S
C30 C31 1.413 . S
C30 C32 1.360 . S
C31 C30 1.413 . S
C31 C35 1.429 . S
C32 C30 1.360 . S
C32 C33 1.372 . S
C33 H28 0.928 . S
C33 C32 1.372 . S
C33 C34 1.404 . S
C34 C33 1.404 . S
C34 C35 1.391 . S
C35 H29 0.930 . S
C35 C31 1.429 . S
C35 C34 1.391 . S
H36 C39 0.931 . S
H37 C42 0.928 . S
H38 C44 0.930 . S
C39 H36 0.931 . S
C39 C40 1.413 . S
C39 C41 1.360 . S
C40 C39 1.413 . S
C40 C44 1.429 . S
C41 C39 1.360 . S
C41 C42 1.372 . S
C42 H37 0.928 . S
C42 C41 1.372 . S
C42 C43 1.404 . S
C43 C42 1.404 . S
C43 C44 1.391 . S
C44 H38 0.930 . S
C44 C40 1.429 . S
C44 C43 1.391 . S
H45 C48 0.931 . S
H46 C51 0.928 . S
H47 C53 0.930 . S
C48 H45 0.931 . S
C48 C49 1.413 . S
C48 C50 1.360 . S
C49 C48 1.413 . S
C49 C53 1.429 . S
C50 C48 1.360 . S
C50 C51 1.372 . S
C51 H46 0.928 . S
C51 C50 1.372 . S
C51 C52 1.404 . S
C52 C51 1.404 . S
C52 C53 1.391 . S
C53 H47 0.930 . S
C53 C49 1.429 . S
C53 C52 1.391 . S
H54 C57 0.931 . S
H55 C60 0.928 . S
H56 C62 0.930 . S
C57 H54 0.931 . S
C57 C58 1.413 . S
C57 C59 1.360 . S
C58 C57 1.413 . S
C58 C62 1.429 . S
C59 C57 1.360 . S
C59 C60 1.372 . S
C60 H55 0.928 . S
C60 C59 1.372 . S
C60 C61 1.404 . S
C61 C60 1.404 . S
C61 C62 1.391 . S
C62 H56 0.930 . S
C62 C58 1.429 . S
C62 C61 1.391 . S
H63 C66 0.931 . S
H64 C69 0.928 . S
H65 C71 0.930 . S
C66 H63 0.931 . S
C66 C67 1.413 . S
C66 C68 1.360 . S
C67 C66 1.413 . S
C67 C71 1.429 . S
C68 C66 1.360 . S
C68 C69 1.372 . S
C69 H64 0.928 . S
C69 C68 1.372 . S
C69 C70 1.404 . S
C70 C69 1.404 . S
C70 C71 1.391 . S
C71 H65 0.930 . S
C71 C67 1.429 . S
C71 C70 1.391 . S
C72 O88 1.251 . S
C72 O90 1.254 1_545 S
N73 C74 1.333 . S
N73 C78 1.307 . S
N73 Zn79 2.020 . S
C74 N73 1.333 . S
C74 C75 1.379 . S
C74 H92 0.952 . S
C75 C74 1.379 . S
C75 C76 1.390 . S
C75 H102 0.949 . S
C76 C75 1.390 . S
C76 C77 1.357 . S
C77 C76 1.357 . S
C77 C78 1.370 . S
C77 H103 0.950 . S
C78 N73 1.307 . S
C78 C77 1.370 . S
C78 H96 0.948 1_455 S
Zn79 N73 2.020 . S
Zn79 O88 2.039 . S
Zn79 O94 2.034 . S
Zn79 O98 2.025 1_455 S
Zn79 O100 2.024 1_455 S
C80 O99 1.246 1_545 S
C80 O100 1.249 . S
N81 C82 1.307 . S
N81 C83 1.333 . S
N81 Zn87 2.020 . S
C82 N81 1.307 . S
C82 C86 1.370 . S
C82 H93 0.948 1_655 S
C83 N81 1.333 . S
C83 C84 1.379 . S
C83 H91 0.952 . S
C84 C83 1.379 . S
C84 C85 1.390 . S
C84 H104 0.949 . S
C85 C84 1.390 . S
C85 C86 1.357 . S
C86 C82 1.370 . S
C86 C85 1.357 . S
C86 H105 0.947 1_655 S
Zn87 N81 2.020 . S
Zn87 O90 2.025 1_655 S
Zn87 O95 2.024 1_655 S
Zn87 O97 2.039 . S
Zn87 O99 2.034 . S
O88 C72 1.251 . S
O88 Zn79 2.039 . S
C89 O94 1.246 1_565 S
C89 O95 1.249 . S
O90 C72 1.254 1_565 S
O90 Zn87 2.025 1_455 S
H91 C83 0.952 . S
H92 C74 0.952 . S
H93 C82 0.948 1_455 S
O94 Zn79 2.034 . S
O94 C89 1.246 1_545 S
O95 Zn87 2.024 1_455 S
O95 C89 1.249 . S
H96 C78 0.948 1_655 S
O97 Zn87 2.039 . S
O97 C101 1.251 . S
O98 Zn79 2.025 1_655 S
O98 C101 1.254 1_545 S
O99 C80 1.246 1_565 S
O99 Zn87 2.034 . S
O100 Zn79 2.024 1_655 S
O100 C80 1.249 . S
C101 O97 1.251 . S
C101 O98 1.254 1_565 S
H102 C75 0.949 . S
H103 C77 0.950 . S
H104 C84 0.949 . S
H105 C86 0.947 1_455 S
C106 O122 1.251 1_565 S
C106 O124 1.254 . S
N107 C108 1.333 . S
N107 C112 1.307 . S
N107 Zn113 2.020 . S
C108 N107 1.333 . S
C108 C109 1.379 . S
C108 H126 0.952 . S
C109 C108 1.379 . S
C109 C110 1.390 . S
C109 H136 0.949 . S
C110 C109 1.390 . S
C110 C111 1.357 . S
C111 C110 1.357 . S
C111 C112 1.370 . S
C111 H137 0.950 . S
C112 N107 1.307 . S
C112 C111 1.370 . S
C112 H130 0.948 . S
Zn113 N107 2.020 . S
Zn113 O122 2.039 . S
Zn113 O128 2.034 1_556 S
Zn113 O132 2.025 1_556 S
Zn113 O134 2.024 . S
C114 O133 1.246 . S
C114 O134 1.249 1_565 S
N115 C116 1.307 . S
N115 C117 1.333 . S
N115 Zn121 2.020 . S
C116 N115 1.307 . S
C116 C120 1.370 . S
C116 H127 0.948 . S
C117 N115 1.333 . S
C117 C118 1.379 . S
C117 H125 0.952 . S
C118 C117 1.379 . S
C118 C119 1.390 . S
C118 H138 0.949 . S
C119 C118 1.390 . S
C119 C120 1.357 . S
C120 C116 1.370 . S
C120 C119 1.357 . S
C120 H139 0.950 . S
Zn121 N115 2.020 . S
Zn121 O124 2.025 1_554 S
Zn121 O129 2.024 . S
Zn121 O131 2.039 . S
Zn121 O133 2.034 1_554 S
O122 C106 1.251 1_545 S
O122 Zn113 2.039 . S
C123 O128 1.246 . S
C123 O129 1.249 1_545 S
O124 C106 1.254 . S
O124 Zn121 2.025 1_556 S
H125 C117 0.952 . S
H126 C108 0.952 . S
H127 C116 0.948 . S
O128 Zn113 2.034 1_554 S
O128 C123 1.246 . S
O129 Zn121 2.024 . S
O129 C123 1.249 1_565 S
H130 C112 0.948 . S
O131 Zn121 2.039 . S
O131 C135 1.251 1_565 S
O132 Zn113 2.025 1_554 S
O132 C135 1.254 . S
O133 C114 1.246 . S
O133 Zn121 2.034 1_556 S
O134 Zn113 2.024 . S
O134 C114 1.249 1_545 S
C135 O131 1.251 1_545 S
C135 O132 1.254 . S
H136 C109 0.949 . S
H137 C111 0.950 . S
H138 C118 0.949 . S
H139 C120 0.950 . S
C140 O156 1.251 . S
C140 O158 1.254 . S
N141 C142 1.333 . S
N141 C146 1.307 . S
N141 Zn147 2.020 . S
C142 N141 1.333 . S
C142 C143 1.379 . S
C142 H160 0.952 . S
C143 C142 1.379 . S
C143 C144 1.390 . S
C143 H170 0.949 . S
C144 C143 1.390 . S
C144 C145 1.357 . S
C145 C144 1.357 . S
C145 C146 1.370 . S
C145 H171 0.950 . S
C146 N141 1.307 . S
C146 C145 1.370 . S
C146 H164 0.948 . S
Zn147 N141 2.020 . S
Zn147 O156 2.039 . S
Zn147 O162 2.034 . S
Zn147 O166 2.025 . S
Zn147 O168 2.024 . S
C148 O167 1.246 . S
C148 O168 1.249 . S
N149 C150 1.307 . S
N149 C151 1.333 . S
N149 Zn155 2.020 . S
C150 N149 1.307 . S
C150 C154 1.370 . S
C150 H161 0.948 . S
C151 N149 1.333 . S
C151 C152 1.379 . S
C151 H159 0.952 . S
C152 C151 1.379 . S
C152 C153 1.390 . S
C152 H172 0.949 . S
C153 C152 1.390 . S
C153 C154 1.357 . S
C154 C150 1.370 . S
C154 C153 1.357 . S
C154 H173 0.950 . S
Zn155 N149 2.020 . S
Zn155 O158 2.025 . S
Zn155 O163 2.024 . S
Zn155 O165 2.039 . S
Zn155 O167 2.034 . S
O156 C140 1.251 . S
O156 Zn147 2.039 . S
C157 O162 1.246 . S
C157 O163 1.249 . S
O158 C140 1.254 . S
O158 Zn155 2.025 . S
H159 C151 0.952 . S
H160 C142 0.952 . S
H161 C150 0.948 . S
O162 Zn147 2.034 . S
O162 C157 1.246 . S
O163 Zn155 2.024 . S
O163 C157 1.249 . S
H164 C146 0.948 . S
O165 Zn155 2.039 . S
O165 C169 1.251 . S
O166 Zn147 2.025 . S
O166 C169 1.254 . S
O167 C148 1.246 . S
O167 Zn155 2.034 . S
O168 Zn147 2.024 . S
O168 C148 1.249 . S
C169 O165 1.251 . S
C169 O166 1.254 . S
H170 C143 0.949 . S
H171 C145 0.950 . S
H172 C152 0.949 . S
H173 C154 0.950 . S
C174 O190 1.251 1_556 S
C174 O192 1.254 . S
N175 C176 1.333 . S
N175 C180 1.307 . S
N175 Zn181 2.020 . S
C176 N175 1.333 . S
C176 C177 1.379 . S
C176 H194 0.952 . S
C177 C176 1.379 . S
C177 C178 1.390 . S
C177 H204 0.949 . S
C178 C177 1.390 . S
C178 C179 1.357 . S
C179 C178 1.357 . S
C179 C180 1.370 . S
C179 H205 0.950 . S
C180 N175 1.307 . S
C180 C179 1.370 . S
C180 H198 0.948 . S
Zn181 N175 2.020 . S
Zn181 O190 2.039 . S
Zn181 O196 2.034 1_655 S
Zn181 O200 2.025 1_655 S
Zn181 O202 2.024 . S
C182 O201 1.246 . S
C182 O202 1.249 1_556 S
N183 C184 1.307 . S
N183 C185 1.333 . S
N183 Zn189 2.020 . S
C184 N183 1.307 . S
C184 C188 1.370 . S
C184 H195 0.948 . S
C185 N183 1.333 . S
C185 C186 1.379 . S
C185 H193 0.952 . S
C186 C185 1.379 . S
C186 C187 1.390 . S
C186 H206 0.949 . S
C187 C186 1.390 . S
C187 C188 1.357 . S
C188 C184 1.370 . S
C188 C187 1.357 . S
C188 H207 0.950 . S
Zn189 N183 2.020 . S
Zn189 O192 2.025 1_455 S
Zn189 O197 2.024 . S
Zn189 O199 2.039 . S
Zn189 O201 2.034 1_455 S
O190 C174 1.251 1_554 S
O190 Zn181 2.039 . S
C191 O196 1.246 . S
C191 O197 1.249 1_554 S
O192 C174 1.254 . S
O192 Zn189 2.025 1_655 S
H193 C185 0.952 . S
H194 C176 0.952 . S
H195 C184 0.948 . S
O196 Zn181 2.034 1_455 S
O196 C191 1.246 . S
O197 Zn189 2.024 . S
O197 C191 1.249 1_556 S
H198 C180 0.948 . S
O199 Zn189 2.039 . S
O199 C203 1.251 1_556 S
O200 Zn181 2.025 1_455 S
O200 C203 1.254 . S
O201 C182 1.246 . S
O201 Zn189 2.034 1_655 S
O202 Zn181 2.024 . S
O202 C182 1.249 1_554 S
C203 O199 1.251 1_554 S
C203 O200 1.254 . S
H204 C177 0.949 . S
H205 C179 0.950 . S
H206 C186 0.949 . S
H207 C188 0.950 . S
C208 C209 1.391 . S
C208 C210 1.394 . S
C208 H224 0.931 . S
C209 C208 1.391 . S
C209 C213 1.376 . S
C210 C208 1.394 . S
C210 C211 1.369 . S
C210 C214 1.531 . S
C211 C210 1.369 . S
C211 C212 1.410 . S
C211 C219 1.503 . S
C212 C211 1.410 . S
C212 C213 1.392 . S
C212 C215 1.484 1_455 S
C213 C209 1.376 . S
C213 C212 1.392 . S
C213 H225 0.929 . S
C214 C210 1.531 . S
C214 H226 0.960 . S
C214 H227 0.962 . S
C214 H228 0.960 . S
C215 C212 1.484 1_655 S
C215 H229 0.976 . S
C215 H230 0.966 . S
C215 H231 0.970 . S
C216 C217 1.370 . S
C216 C218 1.363 . S
C216 H232 0.931 1_545 S
C217 C216 1.370 . S
C217 C221 1.408 . S
C218 C216 1.363 . S
C218 C219 1.370 . S
C218 C222 1.524 . S
C219 C211 1.503 . S
C219 C218 1.370 . S
C219 C220 1.403 . S
C220 C219 1.403 . S
C220 C221 1.404 . S
C220 C223 1.539 . S
C221 C217 1.408 . S
C221 C220 1.404 . S
C221 H233 0.930 . S
C222 C218 1.524 . S
C222 H234 0.956 . S
C222 H235 0.961 . S
C222 H236 0.961 1_545 S
C223 C220 1.539 . S
C223 H237 0.958 . S
C223 H238 0.961 . S
C223 H239 0.960 . S
H224 C208 0.931 . S
H225 C213 0.929 . S
H226 C214 0.960 . S
H227 C214 0.962 . S
H228 C214 0.960 . S
H229 C215 0.976 . S
H230 C215 0.966 . S
H231 C215 0.970 . S
H232 C216 0.931 1_565 S
H233 C221 0.930 . S
H234 C222 0.956 . S
H235 C222 0.961 . S
H236 C222 0.961 1_565 S
H237 C223 0.958 . S
H238 C223 0.961 . S
H239 C223 0.960 . S
C240 C241 1.391 . S
C240 C242 1.394 . S
C240 H256 0.931 . S
C241 C240 1.391 . S
C241 C245 1.376 . S
C242 C240 1.394 . S
C242 C243 1.369 . S
C242 C246 1.531 . S
C243 C242 1.369 . S
C243 C244 1.410 . S
C243 C251 1.503 . S
C244 C243 1.410 . S
C244 C245 1.392 . S
C244 C247 1.511 . S
C245 C241 1.376 . S
C245 C244 1.392 . S
C245 H257 0.929 . S
C246 C242 1.531 . S
C246 H258 0.960 1_565 S
C246 H259 0.962 . S
C246 H260 0.960 1_565 S
C247 C244 1.511 . S
C247 H261 0.961 . S
C247 H262 0.961 . S
C247 H263 0.961 . S
C248 C249 1.370 . S
C248 C250 1.363 . S
C248 H264 0.931 . S
C249 C248 1.370 . S
C249 C253 1.408 . S
C250 C248 1.363 . S
C250 C251 1.370 . S
C250 C254 1.524 . S
C251 C243 1.503 . S
C251 C250 1.370 . S
C251 C252 1.403 . S
C252 C251 1.403 . S
C252 C253 1.404 . S
C252 C255 1.539 . S
C253 C249 1.408 . S
C253 C252 1.404 . S
C253 H265 0.930 . S
C254 C250 1.524 . S
C254 H266 0.956 . S
C254 H267 0.961 . S
C254 H268 0.961 . S
C255 C252 1.539 . S
C255 H269 0.958 1_565 S
C255 H270 0.961 . S
C255 H271 0.960 . S
H256 C240 0.931 . S
H257 C245 0.929 . S
H258 C246 0.960 1_545 S
H259 C246 0.962 . S
H260 C246 0.960 1_545 S
H261 C247 0.961 . S
H262 C247 0.961 . S
H263 C247 0.961 . S
H264 C248 0.931 . S
H265 C253 0.930 . S
H266 C254 0.956 . S
H267 C254 0.961 . S
H268 C254 0.961 . S
H269 C255 0.958 1_545 S
H270 C255 0.961 . S
H271 C255 0.960 . S
C272 C273 1.391 . S
C272 C274 1.394 . S
C272 H288 0.931 . S
C273 C272 1.391 . S
C273 C277 1.376 . S
C274 C272 1.394 . S
C274 C275 1.369 . S
C274 C278 1.531 . S
C275 C274 1.369 . S
C275 C276 1.410 . S
C275 C283 1.503 . S
C276 C275 1.410 . S
C276 C277 1.392 . S
C276 C279 1.511 . S
C277 C273 1.376 . S
C277 C276 1.392 . S
C277 H289 0.929 . S
C278 C274 1.531 . S
C278 H290 0.960 . S
C278 H291 0.962 . S
C278 H292 0.960 . S
C279 C276 1.511 . S
C279 H293 0.961 . S
C279 H294 0.961 . S
C279 H295 0.961 . S
C280 C281 1.370 . S
C280 C282 1.363 . S
C280 H296 0.931 . S
C281 C280 1.370 . S
C281 C285 1.408 . S
C282 C280 1.363 . S
C282 C283 1.370 . S
C282 C286 1.524 . S
C283 C275 1.503 . S
C283 C282 1.370 . S
C283 C284 1.403 . S
C284 C283 1.403 . S
C284 C285 1.404 . S
C284 C287 1.539 . S
C285 C281 1.408 . S
C285 C284 1.404 . S
C285 H297 0.930 . S
C286 C282 1.524 . S
C286 H298 0.956 . S
C286 H299 0.961 . S
C286 H300 0.961 . S
C287 C284 1.539 . S
C287 H301 0.958 . S
C287 H302 0.961 . S
C287 H303 0.960 . S
H288 C272 0.931 . S
H289 C277 0.929 . S
H290 C278 0.960 . S
H291 C278 0.962 . S
H292 C278 0.960 . S
H293 C279 0.961 . S
H294 C279 0.961 . S
H295 C279 0.961 . S
H296 C280 0.931 . S
H297 C285 0.930 . S
H298 C286 0.956 . S
H299 C286 0.961 . S
H300 C286 0.961 . S
H301 C287 0.958 . S
H302 C287 0.961 . S
H303 C287 0.960 . S
C304 C305 1.391 . S
C304 C306 1.394 . S
C304 H320 0.931 . S
C305 C304 1.391 . S
C305 C309 1.376 . S
C306 C304 1.394 . S
C306 C307 1.369 . S
C306 C310 1.531 . S
C307 C306 1.369 . S
C307 C308 1.410 . S
C307 C315 1.503 . S
C308 C307 1.410 . S
C308 C309 1.392 . S
C308 C311 1.511 . S
C309 C305 1.376 . S
C309 C308 1.392 . S
C309 H321 0.929 . S
C310 C306 1.531 . S
C310 H322 0.960 . S
C310 H323 0.962 . S
C310 H324 0.960 . S
C311 C308 1.511 . S
C311 H325 0.961 . S
C311 H326 0.961 . S
C311 H327 0.961 . S
C312 C313 1.370 . S
C312 C314 1.363 . S
C312 H328 0.931 . S
C313 C312 1.370 . S
C313 C317 1.408 . S
C314 C312 1.363 . S
C314 C315 1.370 . S
C314 C318 1.524 . S
C315 C307 1.503 . S
C315 C314 1.370 . S
C315 C316 1.403 . S
C316 C315 1.403 . S
C316 C317 1.404 . S
C316 C319 1.539 . S
C317 C313 1.408 . S
C317 C316 1.404 . S
C317 H329 0.930 . S
C318 C314 1.524 . S
C318 H330 0.956 . S
C318 H331 0.961 . S
C318 H332 0.961 . S
C319 C316 1.539 . S
C319 H333 0.958 . S
C319 H334 0.961 . S
C319 H335 0.960 . S
H320 C304 0.931 . S
H321 C309 0.929 . S
H322 C310 0.960 . S
H323 C310 0.962 . S
H324 C310 0.960 . S
H325 C311 0.961 . S
H326 C311 0.961 . S
H327 C311 0.961 . S
H328 C312 0.931 . S
H329 C317 0.930 . S
H330 C318 0.956 . S
H331 C318 0.961 . S
H332 C318 0.961 . S
H333 C319 0.958 . S
H334 C319 0.961 . S
H335 C319 0.960 . S
C336 C337 1.391 . S
C336 C338 1.394 . S
C336 H352 0.931 . S
C337 C336 1.391 . S
C337 C341 1.376 . S
C338 C336 1.394 . S
C338 C339 1.369 . S
C338 C342 1.531 . S
C339 C338 1.369 . S
C339 C340 1.410 . S
C339 C347 1.503 . S
C340 C339 1.410 . S
C340 C341 1.392 . S
C340 C343 1.511 . S
C341 C337 1.376 . S
C341 C340 1.392 . S
C341 H353 0.929 . S
C342 C338 1.531 . S
C342 H354 0.960 . S
C342 H355 0.962 . S
C342 H356 0.960 . S
C343 C340 1.511 . S
C343 H357 0.961 1_545 S
C343 H358 0.961 . S
C343 H359 0.961 1_545 S
C344 C345 1.370 . S
C344 C346 1.363 . S
C344 H360 0.931 1_554 S
C345 C344 1.370 . S
C345 C349 1.408 . S
C346 C344 1.363 . S
C346 C347 1.370 . S
C346 C350 1.524 . S
C347 C339 1.503 . S
C347 C346 1.370 . S
C347 C348 1.403 . S
C348 C347 1.403 . S
C348 C349 1.404 . S
C348 C351 1.539 . S
C349 C345 1.408 . S
C349 C348 1.404 . S
C349 H361 0.930 . S
C350 C346 1.524 . S
C350 H362 0.956 . S
C350 H363 0.961 . S
C350 H364 0.961 1_554 S
C351 C348 1.539 . S
C351 H365 0.958 . S
C351 H366 0.961 . S
C351 H367 0.960 . S
H352 C336 0.931 . S
H353 C341 0.929 . S
H354 C342 0.960 . S
H355 C342 0.962 . S
H356 C342 0.960 . S
H357 C343 0.961 1_565 S
H358 C343 0.961 . S
H359 C343 0.961 1_565 S
H360 C344 0.931 1_556 S
H361 C349 0.930 . S
H362 C350 0.956 . S
H363 C350 0.961 . S
H364 C350 0.961 1_556 S
H365 C351 0.958 . S
H366 C351 0.961 . S
H367 C351 0.960 . S
C368 C369 1.391 . S
C368 C370 1.394 . S
C368 H384 0.931 . S
C369 C368 1.391 . S
C369 C373 1.376 . S
C370 C368 1.394 . S
C370 C371 1.369 . S
C370 C374 1.531 . S
C371 C370 1.369 . S
C371 C372 1.410 . S
C371 C379 1.503 . S
C372 C371 1.410 . S
C372 C373 1.392 . S
C372 C375 1.511 . S
C373 C369 1.376 . S
C373 C372 1.392 . S
C373 H385 0.929 . S
C374 C370 1.531 . S
C374 H386 0.960 . S
C374 H387 0.962 . S
C374 H388 0.960 . S
C375 C372 1.511 . S
C375 H389 0.961 . S
C375 H390 0.961 . S
C375 H391 0.961 . S
C376 C377 1.370 . S
C376 C378 1.363 . S
C376 H392 0.931 1_565 S
C377 C376 1.370 . S
C377 C381 1.408 . S
C378 C376 1.363 . S
C378 C379 1.370 . S
C378 C382 1.524 . S
C379 C371 1.503 . S
C379 C378 1.370 . S
C379 C380 1.403 . S
C380 C379 1.403 . S
C380 C381 1.404 . S
C380 C383 1.539 . S
C381 C377 1.408 . S
C381 C380 1.404 . S
C381 H393 0.930 . S
C382 C378 1.524 . S
C382 H394 0.958 . S
C382 H395 0.961 . S
C382 H396 0.961 1_565 S
C383 C380 1.539 . S
C383 H397 0.958 . S
C383 H398 0.961 . S
C383 H399 0.960 . S
H384 C368 0.931 . S
H385 C373 0.929 . S
H386 C374 0.960 . S
H387 C374 0.962 . S
H388 C374 0.960 . S
H389 C375 0.961 . S
H390 C375 0.961 . S
H391 C375 0.961 . S
H392 C376 0.931 1_545 S
H393 C381 0.930 . S
H394 C382 0.958 . S
H395 C382 0.961 . S
H396 C382 0.961 1_545 S
H397 C383 0.958 . S
H398 C383 0.961 . S
H399 C383 0.960 . S
C400 C401 1.391 . S
C400 C402 1.394 . S
C400 H416 0.931 . S
C401 C400 1.391 . S
C401 C405 1.376 . S
C402 C400 1.394 . S
C402 C403 1.369 . S
C402 C406 1.531 . S
C403 C402 1.369 . S
C403 C404 1.410 . S
C403 C411 1.503 . S
C404 C403 1.410 . S
C404 C405 1.392 . S
C404 C407 1.511 . S
C405 C401 1.376 . S
C405 C404 1.392 . S
C405 H417 0.929 . S
C406 C402 1.531 . S
C406 H418 0.960 . S
C406 H419 0.962 . S
C406 H420 0.960 . S
C407 C404 1.511 . S
C407 H421 0.961 . S
C407 H422 0.961 . S
C407 H423 0.961 . S
C408 C409 1.370 . S
C408 C410 1.363 . S
C408 H424 0.931 1_556 S
C409 C408 1.370 . S
C409 C413 1.408 . S
C410 C408 1.363 . S
C410 C411 1.370 . S
C410 C414 1.524 1_556 S
C411 C403 1.503 . S
C411 C410 1.370 . S
C411 C412 1.403 . S
C412 C411 1.403 . S
C412 C413 1.404 . S
C412 C415 1.539 . S
C413 C409 1.408 . S
C413 C412 1.404 . S
C413 H425 0.930 . S
C414 C410 1.524 1_554 S
C414 H426 0.952 1_554 S
C414 H427 0.961 . S
C414 H428 0.961 . S
C415 C412 1.539 . S
C415 H429 0.958 . S
C415 H430 0.961 . S
C415 H431 0.960 . S
H416 C400 0.931 . S
H417 C405 0.929 . S
H418 C406 0.960 . S
H419 C406 0.962 . S
H420 C406 0.960 . S
H421 C407 0.961 . S
H422 C407 0.961 . S
H423 C407 0.961 . S
H424 C408 0.931 1_554 S
H425 C413 0.930 . S
H426 C414 0.952 1_556 S
H427 C414 0.961 . S
H428 C414 0.961 . S
H429 C415 0.958 . S
H430 C415 0.961 . S
H431 C415 0.960 . S
C432 C433 1.391 . S
C432 C434 1.394 . S
C432 H448 0.931 . S
C433 C432 1.391 . S
C433 C437 1.376 . S
C434 C432 1.394 . S
C434 C435 1.369 . S
C434 C438 1.531 . S
C435 C434 1.369 . S
C435 C436 1.410 . S
C435 C443 1.503 . S
C436 C435 1.410 . S
C436 C437 1.392 . S
C436 C439 1.511 . S
C437 C433 1.376 . S
C437 C436 1.392 . S
C437 H449 0.929 . S
C438 C434 1.531 . S
C438 H450 0.960 . S
C438 H451 0.962 . S
C438 H452 0.960 . S
C439 C436 1.511 . S
C439 H453 0.961 . S
C439 H454 0.961 . S
C439 H455 0.961 . S
C440 C441 1.370 . S
C440 C442 1.363 . S
C440 H456 0.931 . S
C441 C440 1.370 . S
C441 C445 1.408 . S
C442 C440 1.363 . S
C442 C443 1.370 . S
C442 C446 1.524 . S
C443 C435 1.503 . S
C443 C442 1.370 . S
C443 C444 1.403 . S
C444 C443 1.403 . S
C444 C445 1.404 . S
C444 C447 1.539 . S
C445 C441 1.408 . S
C445 C444 1.404 . S
C445 H457 0.930 . S
C446 C442 1.524 . S
C446 H458 0.956 . S
C446 H459 0.961 . S
C446 H460 0.961 . S
C447 C444 1.539 . S
C447 H461 0.958 . S
C447 H462 0.961 . S
C447 H463 0.960 . S
H448 C432 0.931 . S
H449 C437 0.929 . S
H450 C438 0.960 . S
H451 C438 0.962 . S
H452 C438 0.960 . S
H453 C439 0.961 . S
H454 C439 0.961 . S
H455 C439 0.961 . S
H456 C440 0.931 . S
H457 C445 0.930 . S
H458 C446 0.956 . S
H459 C446 0.961 . S
H460 C446 0.961 . S
H461 C447 0.958 . S
H462 C447 0.961 . S
H463 C447 0.960 . S
C464 C465 1.391 . S
C464 C466 1.394 . S
C464 H480 0.931 . S
C465 C464 1.391 . S
C465 C469 1.376 . S
C466 C464 1.394 . S
C466 C467 1.369 . S
C466 C470 1.531 . S
C467 C466 1.369 . S
C467 C468 1.410 . S
C467 C475 1.503 . S
C468 C467 1.410 . S
C468 C469 1.392 . S
C468 C471 1.511 . S
C469 C465 1.376 . S
C469 C468 1.392 . S
C469 H481 0.929 . S
C470 C466 1.531 . S
C470 H482 0.960 . S
C470 H483 0.962 . S
C470 H484 0.960 . S
C471 C468 1.511 . S
C471 H485 0.961 . S
C471 H486 0.961 . S
C471 H487 0.961 1_455 S
C472 C473 1.370 . S
C472 C474 1.363 . S
C472 H488 0.931 . S
C473 C472 1.370 . S
C473 C477 1.408 . S
C474 C472 1.363 . S
C474 C475 1.370 . S
C474 C478 1.524 . S
C475 C467 1.503 . S
C475 C474 1.370 . S
C475 C476 1.403 . S
C476 C475 1.403 . S
C476 C477 1.404 . S
C476 C479 1.539 . S
C477 C473 1.408 . S
C477 C476 1.404 . S
C477 H489 0.948 . S
C478 C474 1.524 . S
C478 H490 0.956 . S
C478 H491 0.961 . S
C478 H492 0.961 . S
C479 C476 1.539 . S
C479 H493 0.958 1_554 S
C479 H494 0.961 1_455 S
C479 H495 0.960 . S
H480 C464 0.931 . S
H481 C469 0.929 . S
H482 C470 0.960 . S
H483 C470 0.962 . S
H484 C470 0.960 . S
H485 C471 0.961 . S
H486 C471 0.961 . S
H487 C471 0.961 1_655 S
H488 C472 0.931 . S
H489 C477 0.948 . S
H490 C478 0.956 . S
H491 C478 0.961 . S
H492 C478 0.961 . S
H493 C479 0.958 1_556 S
H494 C479 0.961 1_655 S
H495 C479 0.960 . S
C496 C497 1.391 . S
C496 C498 1.394 . S
C496 H512 0.931 . S
C497 C496 1.391 . S
C497 C501 1.376 . S
C498 C496 1.394 . S
C498 C499 1.369 . S
C498 C502 1.531 . S
C499 C498 1.369 . S
C499 C500 1.410 . S
C499 C507 1.503 . S
C500 C499 1.410 . S
C500 C501 1.392 . S
C500 C503 1.511 . S
C501 C497 1.376 . S
C501 C500 1.392 . S
C501 H513 0.929 . S
C502 C498 1.531 . S
C502 H514 0.960 . S
C502 H515 0.962 . S
C502 H516 0.968 . S
C503 C500 1.511 . S
C503 H517 0.961 . S
C503 H518 0.961 . S
C503 H519 0.961 . S
C504 C505 1.370 . S
C504 C506 1.363 . S
C504 H520 0.931 . S
C505 C504 1.370 . S
C505 C509 1.408 . S
C506 C504 1.363 . S
C506 C507 1.370 . S
C506 C510 1.524 . S
C507 C499 1.503 . S
C507 C506 1.370 . S
C507 C508 1.403 . S
C508 C507 1.403 . S
C508 C509 1.404 . S
C508 C511 1.537 1_556 S
C509 C505 1.408 . S
C509 C508 1.404 . S
C509 H521 0.930 . S
C510 C506 1.524 . S
C510 H522 0.956 . S
C510 H523 0.961 . S
C510 H524 0.961 . S
C511 C508 1.537 1_554 S
C511 H525 0.961 . S
C511 H526 0.962 . S
C511 H527 0.958 1_554 S
H512 C496 0.931 . S
H513 C501 0.929 . S
H514 C502 0.960 . S
H515 C502 0.962 . S
H516 C502 0.968 . S
H517 C503 0.961 . S
H518 C503 0.961 . S
H519 C503 0.961 . S
H520 C504 0.931 . S
H521 C509 0.930 . S
H522 C510 0.956 . S
H523 C510 0.961 . S
H524 C510 0.961 . S
H525 C511 0.961 . S
H526 C511 0.962 . S
H527 C511 0.958 1_556 S
C528 C529 1.391 . S
C528 C530 1.394 . S
C528 H544 0.931 . S
C529 C528 1.391 . S
C529 C533 1.376 . S
C530 C528 1.394 . S
C530 C531 1.369 . S
C530 C534 1.531 . S
C531 C530 1.369 . S
C531 C532 1.410 . S
C531 C539 1.503 . S
C532 C531 1.410 . S
C532 C533 1.392 . S
C532 C535 1.511 . S
C533 C529 1.376 . S
C533 C532 1.392 . S
C533 H545 0.929 . S
C534 C530 1.531 . S
C534 H546 0.960 . S
C534 H547 0.962 . S
C534 H548 0.960 . S
C535 C532 1.511 . S
C535 H549 0.961 . S
C535 H550 0.961 . S
C535 H551 0.961 . S
C536 C537 1.370 . S
C536 C538 1.363 . S
C536 H552 0.931 . S
C537 C536 1.370 . S
C537 C541 1.408 . S
C538 C536 1.363 . S
C538 C539 1.370 . S
C538 C542 1.524 . S
C539 C531 1.503 . S
C539 C538 1.370 . S
C539 C540 1.403 . S
C540 C539 1.403 . S
C540 C541 1.404 . S
C540 C543 1.539 . S
C541 C537 1.408 . S
C541 C540 1.404 . S
C541 H553 0.930 . S
C542 C538 1.524 . S
C542 H554 0.956 . S
C542 H555 0.961 . S
C542 H556 0.961 . S
C543 C540 1.539 . S
C543 H557 0.958 . S
C543 H558 0.961 . S
C543 H559 0.960 . S
H544 C528 0.931 . S
H545 C533 0.929 . S
H546 C534 0.960 . S
H547 C534 0.962 . S
H548 C534 0.960 . S
H549 C535 0.961 . S
H550 C535 0.961 . S
H551 C535 0.961 . S
H552 C536 0.931 . S
H553 C541 0.930 . S
H554 C542 0.956 . S
H555 C542 0.961 . S
H556 C542 0.961 . S
H557 C543 0.958 . S
H558 C543 0.961 . S
H559 C543 0.960 . S
C560 C561 1.391 . S
C560 C562 1.394 . S
C560 H576 0.931 . S
C561 C560 1.391 . S
C561 C565 1.376 . S
C562 C560 1.394 . S
C562 C563 1.369 . S
C562 C566 1.531 . S
C563 C562 1.369 . S
C563 C564 1.410 . S
C563 C571 1.503 . S
C564 C563 1.410 . S
C564 C565 1.392 . S
C564 C567 1.511 . S
C565 C561 1.376 . S
C565 C564 1.392 . S
C565 H577 0.929 . S
C566 C562 1.531 . S
C566 H578 0.960 . S
C566 H579 0.962 . S
C566 H580 0.960 . S
C567 C564 1.511 . S
C567 H581 0.961 . S
C567 H582 0.961 . S
C567 H583 0.961 . S
C568 C569 1.370 . S
C568 C570 1.363 . S
C568 H584 0.931 . S
C569 C568 1.370 . S
C569 C573 1.408 . S
C570 C568 1.363 . S
C570 C571 1.370 . S
C570 C574 1.524 . S
C571 C563 1.503 . S
C571 C570 1.370 . S
C571 C572 1.403 . S
C572 C571 1.403 . S
C572 C573 1.404 . S
C572 C575 1.539 . S
C573 C569 1.408 . S
C573 C572 1.404 . S
C573 H585 0.930 . S
C574 C570 1.524 . S
C574 H586 0.956 . S
C574 H587 0.961 . S
C574 H588 0.961 . S
C575 C572 1.539 . S
C575 H589 0.958 . S
C575 H590 0.961 . S
C575 H591 0.960 . S
H576 C560 0.931 . S
H577 C565 0.929 . S
H578 C566 0.960 . S
H579 C566 0.962 . S
H580 C566 0.960 . S
H581 C567 0.961 . S
H582 C567 0.961 . S
H583 C567 0.961 . S
H584 C568 0.931 . S
H585 C573 0.930 . S
H586 C574 0.956 . S
H587 C574 0.961 . S
H588 C574 0.961 . S
H589 C575 0.958 . S
H590 C575 0.961 . S
H591 C575 0.960 . S
C592 C593 1.391 . S
C592 C594 1.394 . S
C592 H608 0.931 . S
C593 C592 1.391 . S
C593 C597 1.376 . S
C594 C592 1.394 . S
C594 C595 1.369 . S
C594 C598 1.531 . S
C595 C594 1.369 . S
C595 C596 1.410 . S
C595 C603 1.503 . S
C596 C595 1.410 . S
C596 C597 1.392 . S
C596 C599 1.511 . S
C597 C593 1.376 . S
C597 C596 1.392 . S
C597 H609 0.929 . S
C598 C594 1.531 . S
C598 H610 0.960 . S
C598 H611 0.962 1_655 S
C598 H612 0.960 . S
C599 C596 1.511 . S
C599 H613 0.961 . S
C599 H614 0.961 . S
C599 H615 0.961 . S
C600 C601 1.370 . S
C600 C602 1.363 . S
C600 H616 0.931 1_565 S
C601 C600 1.370 . S
C601 C605 1.408 . S
C602 C600 1.363 . S
C602 C603 1.370 . S
C602 C606 1.524 . S
C603 C595 1.503 . S
C603 C602 1.370 . S
C603 C604 1.403 . S
C604 C603 1.403 . S
C604 C605 1.404 . S
C604 C607 1.539 . S
C605 C601 1.408 . S
C605 C604 1.404 . S
C605 H617 0.930 . S
C606 C602 1.524 . S
C606 H618 0.956 . S
C606 H619 0.961 . S
C606 H620 0.961 1_565 S
C607 C604 1.539 . S
C607 H621 0.958 . S
C607 H622 0.961 . S
C607 H623 0.960 . S
H608 C592 0.931 . S
H609 C597 0.929 . S
H610 C598 0.960 . S
H611 C598 0.962 1_455 S
H612 C598 0.960 . S
H613 C599 0.961 . S
H614 C599 0.961 . S
H615 C599 0.961 . S
H616 C600 0.931 1_545 S
H617 C605 0.930 . S
H618 C606 0.956 . S
H619 C606 0.961 . S
H620 C606 0.961 1_545 S
H621 C607 0.958 . S
H622 C607 0.961 . S
H623 C607 0.960 . S
C624 C625 1.391 . S
C624 C626 1.394 . S
C624 H640 0.931 . S
C625 C624 1.391 . S
C625 C629 1.376 . S
C626 C624 1.394 . S
C626 C627 1.369 . S
C626 C630 1.531 . S
C627 C626 1.369 . S
C627 C628 1.410 . S
C627 C635 1.503 . S
C628 C627 1.410 . S
C628 C629 1.392 . S
C628 C631 1.511 . S
C629 C625 1.376 . S
C629 C628 1.392 . S
C629 H641 0.929 . S
C630 C626 1.531 . S
C630 H642 0.960 . S
C630 H643 0.962 . S
C630 H644 0.960 . S
C631 C628 1.511 . S
C631 H645 0.961 . S
C631 H646 0.961 . S
C631 H647 0.961 . S
C632 C633 1.370 . S
C632 C634 1.363 . S
C632 H648 0.931 1_545 S
C633 C632 1.370 . S
C633 C637 1.408 . S
C634 C632 1.363 . S
C634 C635 1.370 . S
C634 C638 1.524 . S
C635 C627 1.503 . S
C635 C634 1.370 . S
C635 C636 1.403 . S
C636 C635 1.403 . S
C636 C637 1.404 . S
C636 C639 1.539 . S
C637 C633 1.408 . S
C637 C636 1.404 . S
C637 H649 0.930 . S
C638 C634 1.524 . S
C638 H650 0.956 . S
C638 H651 0.961 . S
C638 H652 0.961 1_545 S
C639 C636 1.539 . S
C639 H653 0.958 . S
C639 H654 0.961 . S
C639 H655 0.960 . S
H640 C624 0.931 . S
H641 C629 0.929 . S
H642 C630 0.960 . S
H643 C630 0.962 . S
H644 C630 0.960 . S
H645 C631 0.961 . S
H646 C631 0.961 . S
H647 C631 0.961 . S
H648 C632 0.931 1_565 S
H649 C637 0.930 . S
H650 C638 0.956 . S
H651 C638 0.961 . S
H652 C638 0.961 1_565 S
H653 C639 0.958 . S
H654 C639 0.961 . S
H655 C639 0.960 . S
C656 C657 1.391 . S
C656 C658 1.394 . S
C656 H672 0.931 . S
C657 C656 1.391 . S
C657 C661 1.376 . S
C658 C656 1.394 . S
C658 C659 1.369 . S
C658 C662 1.531 . S
C659 C658 1.369 . S
C659 C660 1.410 . S
C659 C667 1.503 . S
C660 C659 1.410 . S
C660 C661 1.392 . S
C660 C663 1.511 . S
C661 C657 1.376 . S
C661 C660 1.392 . S
C661 H673 0.929 . S
C662 C658 1.531 . S
C662 H674 0.960 . S
C662 H675 0.962 . S
C662 H676 0.960 . S
C663 C660 1.511 . S
C663 H677 0.961 . S
C663 H678 0.961 . S
C663 H679 0.961 . S
C664 C665 1.370 . S
C664 C666 1.363 . S
C664 H680 0.931 . S
C665 C664 1.370 . S
C665 C669 1.408 . S
C666 C664 1.363 . S
C666 C667 1.370 . S
C666 C670 1.524 . S
C667 C659 1.503 . S
C667 C666 1.370 . S
C667 C668 1.403 . S
C668 C667 1.403 . S
C668 C669 1.404 . S
C668 C671 1.539 . S
C669 C665 1.408 . S
C669 C668 1.404 . S
C669 H681 0.930 . S
C670 C666 1.524 . S
C670 H682 0.956 . S
C670 H683 0.961 . S
C670 H684 0.961 . S
C671 C668 1.539 . S
C671 H685 0.958 . S
C671 H686 0.961 . S
C671 H687 0.960 . S
H672 C656 0.931 . S
H673 C661 0.929 . S
H674 C662 0.960 . S
H675 C662 0.962 . S
H676 C662 0.960 . S
H677 C663 0.961 . S
H678 C663 0.961 . S
H679 C663 0.961 . S
H680 C664 0.931 . S
H681 C669 0.930 . S
H682 C670 0.956 . S
H683 C670 0.961 . S
H684 C670 0.961 . S
H685 C671 0.958 . S
H686 C671 0.961 . S
H687 C671 0.960 . S
C688 C689 1.391 . S
C688 C690 1.394 . S
C688 H704 0.931 . S
C689 C688 1.391 . S
C689 C693 1.376 . S
C690 C688 1.394 . S
C690 C691 1.369 . S
C690 C694 1.531 . S
C691 C690 1.369 . S
C691 C692 1.410 . S
C691 C699 1.503 . S
C692 C691 1.410 . S
C692 C693 1.392 . S
C692 C695 1.511 . S
C693 C689 1.376 . S
C693 C692 1.392 . S
C693 H705 0.929 . S
C694 C690 1.531 . S
C694 H706 0.960 . S
C694 H707 0.962 . S
C694 H708 0.960 . S
C695 C692 1.511 . S
C695 H709 0.961 . S
C695 H710 0.961 . S
C695 H711 0.961 . S
C696 C697 1.370 . S
C696 C698 1.363 . S
C696 H712 0.931 . S
C697 C696 1.370 . S
C697 C701 1.408 . S
C698 C696 1.363 . S
C698 C699 1.370 . S
C698 C702 1.524 . S
C699 C691 1.503 . S
C699 C698 1.370 . S
C699 C700 1.403 . S
C700 C699 1.403 . S
C700 C701 1.404 . S
C700 C703 1.539 . S
C701 C697 1.408 . S
C701 C700 1.404 . S
C701 H713 0.930 . S
C702 C698 1.524 . S
C702 H714 0.956 . S
C702 H715 0.961 . S
C702 H716 0.961 . S
C703 C700 1.539 . S
C703 H717 0.958 . S
C703 H718 0.961 . S
C703 H719 0.960 . S
H704 C688 0.931 . S
H705 C693 0.929 . S
H706 C694 0.960 . S
H707 C694 0.962 . S
H708 C694 0.960 . S
H709 C695 0.961 . S
H710 C695 0.961 . S
H711 C695 0.961 . S
H712 C696 0.931 . S
H713 C701 0.930 . S
H714 C702 0.956 . S
H715 C702 0.961 . S
H716 C702 0.961 . S
H717 C703 0.958 . S
H718 C703 0.961 . S
H719 C703 0.960 . S
C720 C721 1.391 . S
C720 C722 1.394 . S
C720 H736 0.931 . S
C721 C720 1.391 . S
C721 C725 1.376 . S
C722 C720 1.394 . S
C722 C723 1.369 . S
C722 C726 1.531 . S
C723 C722 1.369 . S
C723 C724 1.410 . S
C723 C731 1.503 . S
C724 C723 1.410 . S
C724 C725 1.392 . S
C724 C727 1.511 . S
C725 C721 1.376 . S
C725 C724 1.392 . S
C725 H737 0.929 . S
C726 C722 1.531 . S
C726 H738 0.960 . S
C726 H739 0.962 . S
C726 H740 0.960 . S
C727 C724 1.511 . S
C727 H741 0.961 . S
C727 H742 0.961 . S
C727 H743 0.961 1_556 S
C728 C729 1.370 . S
C728 C730 1.363 . S
C728 H744 0.931 1_565 S
C729 C728 1.370 . S
C729 C733 1.408 . S
C730 C728 1.363 . S
C730 C731 1.370 . S
C730 C734 1.524 . S
C731 C723 1.503 . S
C731 C730 1.370 . S
C731 C732 1.403 . S
C732 C731 1.403 . S
C732 C733 1.404 . S
C732 C735 1.539 . S
C733 C729 1.408 . S
C733 C732 1.404 . S
C733 H745 0.930 . S
C734 C730 1.524 . S
C734 H746 0.956 . S
C734 H747 0.961 . S
C734 H748 0.961 1_565 S
C735 C732 1.539 . S
C735 H749 0.958 . S
C735 H750 0.961 . S
C735 H751 0.960 . S
H736 C720 0.931 . S
H737 C725 0.929 . S
H738 C726 0.960 . S
H739 C726 0.962 . S
H740 C726 0.960 . S
H741 C727 0.961 . S
H742 C727 0.961 . S
H743 C727 0.961 1_554 S
H744 C728 0.931 1_545 S
H745 C733 0.930 . S
H746 C734 0.956 . S
H747 C734 0.961 . S
H748 C734 0.961 1_545 S
H749 C735 0.958 . S
H750 C735 0.961 . S
H751 C735 0.960 . S
C752 C753 1.391 . S
C752 C754 1.394 . S
C752 H768 0.931 . S
C753 C752 1.391 . S
C753 C757 1.376 . S
C754 C752 1.394 . S
C754 C755 1.369 . S
C754 C758 1.531 . S
C755 C754 1.369 . S
C755 C756 1.410 . S
C755 C763 1.503 . S
C756 C755 1.410 . S
C756 C757 1.392 . S
C756 C759 1.511 . S
C757 C753 1.376 . S
C757 C756 1.392 . S
C757 H769 0.929 . S
C758 C754 1.531 . S
C758 H770 0.960 . S
C758 H771 0.962 . S
C758 H772 0.960 . S
C759 C756 1.511 . S
C759 H773 0.961 . S
C759 H774 0.961 . S
C759 H775 0.961 . S
C760 C761 1.370 . S
C760 C762 1.363 . S
C760 H776 0.931 . S
C761 C760 1.370 . S
C761 C765 1.408 . S
C762 C760 1.363 . S
C762 C763 1.370 . S
C762 C766 1.524 . S
C763 C755 1.503 . S
C763 C762 1.370 . S
C763 C764 1.403 . S
C764 C763 1.403 . S
C764 C765 1.404 . S
C764 C767 1.539 1_545 S
C765 C761 1.408 . S
C765 C764 1.404 . S
C765 H777 0.930 1_545 S
C766 C762 1.524 . S
C766 H778 0.956 . S
C766 H779 0.961 . S
C766 H780 0.961 . S
C767 C764 1.539 1_565 S
C767 H781 0.958 . S
C767 H782 0.961 . S
C767 H783 0.960 1_565 S
H768 C752 0.931 . S
H769 C757 0.929 . S
H770 C758 0.960 . S
H771 C758 0.962 . S
H772 C758 0.960 . S
H773 C759 0.961 . S
H774 C759 0.961 . S
H775 C759 0.961 . S
H776 C760 0.931 . S
H777 C765 0.930 1_565 S
H778 C766 0.956 . S
H779 C766 0.961 . S
H780 C766 0.961 . S
H781 C767 0.958 . S
H782 C767 0.961 . S
H783 C767 0.960 1_545 S
C784 C785 1.391 . S
C784 C786 1.394 . S
C784 H800 0.931 . S
C785 C784 1.391 . S
C785 C789 1.376 . S
C786 C784 1.394 . S
C786 C787 1.369 . S
C786 C790 1.531 . S
C787 C786 1.369 . S
C787 C788 1.410 . S
C787 C795 1.503 . S
C788 C787 1.410 . S
C788 C789 1.392 . S
C788 C791 1.511 . S
C789 C785 1.376 . S
C789 C788 1.392 . S
C789 H801 0.929 . S
C790 C786 1.531 . S
C790 H802 0.960 . S
C790 H803 0.962 . S
C790 H804 0.960 . S
C791 C788 1.511 . S
C791 H805 0.961 . S
C791 H806 0.961 . S
C791 H807 0.961 . S
C792 C793 1.370 . S
C792 C794 1.363 . S
C792 H808 0.931 1_554 S
C793 C792 1.370 . S
C793 C797 1.408 . S
C794 C792 1.363 . S
C794 C795 1.370 . S
C794 C798 1.524 1_554 S
C795 C787 1.503 . S
C795 C794 1.370 . S
C795 C796 1.403 . S
C796 C795 1.403 . S
C796 C797 1.404 . S
C796 C799 1.539 . S
C797 C793 1.408 . S
C797 C796 1.404 . S
C797 H809 0.930 . S
C798 C794 1.524 1_556 S
C798 H810 0.956 1_556 S
C798 H811 0.961 . S
C798 H812 0.961 . S
C799 C796 1.539 . S
C799 H813 0.958 . S
C799 H814 0.961 . S
C799 H815 0.960 . S
H800 C784 0.931 . S
H801 C789 0.929 . S
H802 C790 0.960 . S
H803 C790 0.962 . S
H804 C790 0.960 . S
H805 C791 0.961 . S
H806 C791 0.961 . S
H807 C791 0.961 . S
H808 C792 0.931 1_556 S
H809 C797 0.930 . S
H810 C798 0.956 1_554 S
H811 C798 0.961 . S
H812 C798 0.961 . S
H813 C799 0.958 . S
H814 C799 0.961 . S
H815 C799 0.960 . S
C816 C817 1.391 . S
C816 C818 1.394 . S
C816 H832 0.931 . S
C817 C816 1.391 . S
C817 C821 1.376 . S
C818 C816 1.394 . S
C818 C819 1.369 . S
C818 C822 1.531 . S
C819 C818 1.369 . S
C819 C820 1.410 . S
C819 C827 1.503 . S
C820 C819 1.410 . S
C820 C821 1.392 . S
C820 C823 1.511 . S
C821 C817 1.376 . S
C821 C820 1.392 . S
C821 H833 0.929 . S
C822 C818 1.531 . S
C822 H834 0.960 . S
C822 H835 0.962 . S
C822 H836 0.960 . S
C823 C820 1.511 . S
C823 H837 0.961 . S
C823 H838 0.961 . S
C823 H839 0.961 . S
C824 C825 1.370 . S
C824 C826 1.363 . S
C824 H840 0.931 . S
C825 C824 1.370 . S
C825 C829 1.408 . S
C826 C824 1.363 . S
C826 C827 1.370 . S
C826 C830 1.524 . S
C827 C819 1.503 . S
C827 C826 1.370 . S
C827 C828 1.403 . S
C828 C827 1.403 . S
C828 C829 1.404 . S
C828 C831 1.539 . S
C829 C825 1.408 . S
C829 C828 1.404 . S
C829 H841 0.930 . S
C830 C826 1.524 . S
C830 H842 0.956 . S
C830 H843 0.961 . S
C830 H844 0.961 . S
C831 C828 1.539 . S
C831 H845 0.958 . S
C831 H846 0.961 . S
C831 H847 0.960 . S
H832 C816 0.931 . S
H833 C821 0.929 . S
H834 C822 0.960 . S
H835 C822 0.962 . S
H836 C822 0.960 . S
H837 C823 0.961 . S
H838 C823 0.961 . S
H839 C823 0.961 . S
H840 C824 0.931 . S
H841 C829 0.930 . S
H842 C830 0.956 . S
H843 C830 0.961 . S
H844 C830 0.961 . S
H845 C831 0.958 . S
H846 C831 0.961 . S
H847 C831 0.960 . S
C848 C849 1.391 . S
C848 C850 1.394 . S
C848 H864 0.931 . S
C849 C848 1.391 . S
C849 C853 1.376 . S
C850 C848 1.394 . S
C850 C851 1.369 . S
C850 C854 1.531 . S
C851 C850 1.369 . S
C851 C852 1.410 . S
C851 C859 1.503 . S
C852 C851 1.410 . S
C852 C853 1.392 . S
C852 C855 1.511 . S
C853 C849 1.376 . S
C853 C852 1.392 . S
C853 H865 0.929 . S
C854 C850 1.531 . S
C854 H866 0.960 1_556 S
C854 H867 0.962 . S
C854 H868 0.960 1_556 S
C855 C852 1.511 . S
C855 H869 0.961 . S
C855 H870 0.961 . S
C855 H871 0.961 . S
C856 C857 1.370 . S
C856 C858 1.363 . S
C856 H872 0.931 1_655 S
C857 C856 1.370 . S
C857 C861 1.408 . S
C858 C856 1.363 . S
C858 C859 1.370 . S
C858 C862 1.524 1_655 S
C859 C851 1.503 . S
C859 C858 1.370 . S
C859 C860 1.403 . S
C860 C859 1.403 . S
C860 C861 1.404 . S
C860 C863 1.539 . S
C861 C857 1.408 . S
C861 C860 1.404 . S
C861 H873 0.930 . S
C862 C858 1.524 1_455 S
C862 H874 0.956 . S
C862 H875 0.961 1_455 S
C862 H876 0.961 . S
C863 C860 1.539 . S
C863 H877 0.958 . S
C863 H878 0.961 . S
C863 H879 0.960 . S
H864 C848 0.931 . S
H865 C853 0.929 . S
H866 C854 0.960 1_554 S
H867 C854 0.962 . S
H868 C854 0.960 1_554 S
H869 C855 0.961 . S
H870 C855 0.961 . S
H871 C855 0.961 . S
H872 C856 0.931 1_455 S
H873 C861 0.930 . S
H874 C862 0.956 . S
H875 C862 0.961 1_655 S
H876 C862 0.961 . S
H877 C863 0.958 . S
H878 C863 0.961 . S
H879 C863 0.960 . S
C880 C881 1.391 . S
C880 C882 1.394 . S
C880 H896 0.931 . S
C881 C880 1.391 . S
C881 C885 1.376 . S
C882 C880 1.394 . S
C882 C883 1.369 . S
C882 C886 1.531 . S
C883 C882 1.369 . S
C883 C884 1.410 . S
C883 C891 1.503 . S
C884 C883 1.410 . S
C884 C885 1.392 . S
C884 C887 1.511 . S
C885 C881 1.376 . S
C885 C884 1.392 . S
C885 H897 0.929 . S
C886 C882 1.531 . S
C886 H898 0.960 . S
C886 H899 0.962 1_554 S
C886 H900 0.960 1_554 S
C887 C884 1.511 . S
C887 H901 0.961 . S
C887 H902 0.961 . S
C887 H903 0.961 . S
C888 C889 1.370 . S
C888 C890 1.363 . S
C888 H904 0.931 . S
C889 C888 1.370 . S
C889 C893 1.408 . S
C890 C888 1.363 . S
C890 C891 1.370 . S
C890 C894 1.524 . S
C891 C883 1.503 . S
C891 C890 1.370 . S
C891 C892 1.403 . S
C892 C891 1.403 . S
C892 C893 1.404 . S
C892 C895 1.539 . S
C893 C889 1.408 . S
C893 C892 1.404 . S
C893 H905 0.930 . S
C894 C890 1.524 . S
C894 H906 0.956 . S
C894 H907 0.961 . S
C894 H908 0.961 . S
C895 C892 1.539 . S
C895 H909 0.958 . S
C895 H910 0.961 . S
C895 H911 0.960 . S
H896 C880 0.931 . S
H897 C885 0.929 . S
H898 C886 0.960 . S
H899 C886 0.962 1_556 S
H900 C886 0.960 1_556 S
H901 C887 0.961 . S
H902 C887 0.961 . S
H903 C887 0.961 . S
H904 C888 0.931 . S
H905 C893 0.930 . S
H906 C894 0.956 . S
H907 C894 0.961 . S
H908 C894 0.961 . S
H909 C895 0.958 . S
H910 C895 0.961 . S
H911 C895 0.960 . S
C912 C913 1.391 . S
C912 C914 1.394 . S
C912 H928 0.931 . S
C913 C912 1.391 . S
C913 C917 1.376 . S
C914 C912 1.394 . S
C914 C915 1.369 . S
C914 C918 1.531 . S
C915 C914 1.369 . S
C915 C916 1.410 . S
C915 C923 1.503 . S
C916 C915 1.410 . S
C916 C917 1.392 . S
C916 C919 1.511 . S
C917 C913 1.376 . S
C917 C916 1.392 . S
C917 H929 0.929 . S
C918 C914 1.531 . S
C918 H930 0.960 . S
C918 H931 0.962 . S
C918 H932 0.960 . S
C919 C916 1.511 . S
C919 H933 0.961 . S
C919 H934 0.961 . S
C919 H935 0.961 . S
C920 C921 1.370 . S
C920 C922 1.363 . S
C920 H936 0.931 . S
C921 C920 1.370 . S
C921 C925 1.408 . S
C922 C920 1.363 . S
C922 C923 1.370 . S
C922 C926 1.524 . S
C923 C915 1.503 . S
C923 C922 1.370 . S
C923 C924 1.403 . S
C924 C923 1.403 . S
C924 C925 1.404 . S
C924 C927 1.539 . S
C925 C921 1.408 . S
C925 C924 1.404 . S
C925 H937 0.930 . S
C926 C922 1.524 . S
C926 H938 0.956 . S
C926 H939 0.961 . S
C926 H940 0.940 1_455 S
C927 C924 1.539 . S
C927 H941 0.958 . S
C927 H942 0.961 . S
C927 H943 0.960 . S
H928 C912 0.931 . S
H929 C917 0.929 . S
H930 C918 0.960 . S
H931 C918 0.962 . S
H932 C918 0.960 . S
H933 C919 0.961 . S
H934 C919 0.961 . S
H935 C919 0.961 . S
H936 C920 0.931 . S
H937 C925 0.930 . S
H938 C926 0.956 . S
H939 C926 0.961 . S
H940 C926 0.940 1_655 S
H941 C927 0.958 . S
H942 C927 0.961 . S
H943 C927 0.960 . S
C944 C945 1.391 . S
C944 C946 1.394 . S
C944 H960 0.931 . S
C945 C944 1.391 . S
C945 C949 1.376 . S
C946 C944 1.394 . S
C946 C947 1.369 . S
C946 C950 1.531 . S
C947 C946 1.369 . S
C947 C948 1.410 . S
C947 C955 1.503 . S
C948 C947 1.410 . S
C948 C949 1.392 . S
C948 C951 1.511 . S
C949 C945 1.376 . S
C949 C948 1.392 . S
C949 H961 0.929 . S
C950 C946 1.531 . S
C950 H962 0.960 . S
C950 H963 0.962 . S
C950 H964 0.960 . S
C951 C948 1.511 . S
C951 H965 0.961 . S
C951 H966 0.961 . S
C951 H967 0.961 . S
C952 C953 1.370 . S
C952 C954 1.363 . S
C952 H968 0.931 . S
C953 C952 1.370 . S
C953 C957 1.408 . S
C954 C952 1.363 . S
C954 C955 1.370 . S
C954 C958 1.524 . S
C955 C947 1.503 . S
C955 C954 1.370 . S
C955 C956 1.403 . S
C956 C955 1.403 . S
C956 C957 1.404 . S
C956 C959 1.539 . S
C957 C953 1.408 . S
C957 C956 1.404 . S
C957 H969 0.930 . S
C958 C954 1.524 . S
C958 H970 0.956 . S
C958 H971 0.961 . S
C958 H972 0.961 . S
C959 C956 1.539 . S
C959 H973 0.958 . S
C959 H974 0.961 . S
C959 H975 0.960 . S
H960 C944 0.931 . S
H961 C949 0.929 . S
H962 C950 0.960 . S
H963 C950 0.962 . S
H964 C950 0.960 . S
H965 C951 0.961 . S
H966 C951 0.961 . S
H967 C951 0.961 . S
H968 C952 0.931 . S
H969 C957 0.930 . S
H970 C958 0.956 . S
H971 C958 0.961 . S
H972 C958 0.961 . S
H973 C959 0.958 . S
H974 C959 0.961 . S
H975 C959 0.960 . S
C209 C5 2.281 . S
C217 C72 2.300 . S
C241 C14 2.243 . S
C249 C114 2.256 . S
C281 C144 0.929 . S
C273 C25 0.954 . S
C305 C34 0.948 . S
C313 C178 0.978 . S
C345 C135 1.801 . S
C337 C7 1.781 . S
C377 C89 1.819 . S
C369 C13 1.801 . S
C409 C182 1.272 . S
C401 C23 1.248 . S
C441 C148 1.311 . S
C433 C31 1.282 . S
C465 C4 2.167 . S
C473 C203 2.173 . S
C505 C110 1.074 . S
C497 C22 1.096 . S
C529 C32 1.041 . S
C537 C85 1.085 . S
C561 C16 2.135 . S
C569 C169 2.142 . S
C601 C101 2.288 . S
C593 C41 2.265 . S
C625 C50 2.248 . S
C633 C123 2.264 . S
C657 C61 0.896 . S
C665 C153 0.941 . S
C689 C67 1.009 . S
C697 C187 0.975 . S
C721 C40 1.793 . S
C729 C106 1.818 . S
C761 C80 1.800 . S
C753 C52 1.795 . S
C793 C191 1.277 . S
C785 C59 1.237 . S
C825 C157 1.299 . S
C817 C70 1.302 . S
C849 C43 2.152 . S
C857 C174 2.175 . S
C889 C119 1.090 . S
C881 C58 1.063 . S
C921 C76 1.075 . S
C913 C68 1.061 . S
C945 C49 2.139 . S
C953 C140 2.152 . S
