# Generated by pormake.
# Topology nom, (4,4)-cn, num edge types: 1
# Building blocks:
#     Node 0, Type 0, BuildingBlock: MUDLON_clean_linker_0, # of connection points: 4
#     Node 1, Type 0, BuildingBlock: MUDLON_clean_linker_0, # of connection points: 4
#     Node 2, Type 0, BuildingBlock: MUDLON_clean_linker_0, # of connection points: 4
#     Node 3, Type 0, BuildingBlock: MUDLON_clean_linker_0, # of connection points: 4
#     Node 4, Type 0, BuildingBlock: MUDLON_clean_linker_0, # of connection points: 4
#     Node 5, Type 0, BuildingBlock: MUDLON_clean_linker_0, # of connection points: 4
#     Node 6, Type 1, BuildingBlock: CEKHIL_clean_sbu_0, # of connection points: 4
#     Node 7, Type 1, BuildingBlock: CEKHIL_clean_sbu_0, # of connection points: 4
#     Node 8, Type 1, BuildingBlock: CEKHIL_clean_sbu_0, # of connection points: 4
#     Node 9, Type 1, BuildingBlock: CEKHIL_clean_sbu_0, # of connection points: 4
#     Node 10, Type 1, BuildingBlock: CEKHIL_clean_sbu_0, # of connection points: 4
#     Node 11, Type 1, BuildingBlock: CEKHIL_clean_sbu_0, # of connection points: 4
#     Edge 12, Type (0, 1), BuildingBlock: AJUNOK_clean_linker_0, # of connection points: 2
#     Edge 13, Type (0, 1), BuildingBlock: AJUNOK_clean_linker_0, # of connection points: 2
#     Edge 14, Type (0, 1), BuildingBlock: AJUNOK_clean_linker_0, # of connection points: 2
#     Edge 15, Type (0, 1), BuildingBlock: AJUNOK_clean_linker_0, # of connection points: 2
#     Edge 16, Type (0, 1), BuildingBlock: AJUNOK_clean_linker_0, # of connection points: 2
#     Edge 17, Type (0, 1), BuildingBlock: AJUNOK_clean_linker_0, # of connection points: 2
#     Edge 18, Type (0, 1), BuildingBlock: AJUNOK_clean_linker_0, # of connection points: 2
#     Edge 19, Type (0, 1), BuildingBlock: AJUNOK_clean_linker_0, # of connection points: 2
#     Edge 20, Type (0, 1), BuildingBlock: AJUNOK_clean_linker_0, # of connection points: 2
#     Edge 21, Type (0, 1), BuildingBlock: AJUNOK_clean_linker_0, # of connection points: 2
#     Edge 22, Type (0, 1), BuildingBlock: AJUNOK_clean_linker_0, # of connection points: 2
#     Edge 23, Type (0, 1), BuildingBlock: AJUNOK_clean_linker_0, # of connection points: 2
#     Edge 24, Type (0, 1), BuildingBlock: AJUNOK_clean_linker_0, # of connection points: 2
#     Edge 25, Type (0, 1), BuildingBlock: AJUNOK_clean_linker_0, # of connection points: 2
#     Edge 26, Type (0, 1), BuildingBlock: AJUNOK_clean_linker_0, # of connection points: 2
#     Edge 27, Type (0, 1), BuildingBlock: AJUNOK_clean_linker_0, # of connection points: 2
#     Edge 28, Type (0, 1), BuildingBlock: AJUNOK_clean_linker_0, # of connection points: 2
#     Edge 29, Type (0, 1), BuildingBlock: AJUNOK_clean_linker_0, # of connection points: 2
#     Edge 30, Type (0, 1), BuildingBlock: AJUNOK_clean_linker_0, # of connection points: 2
#     Edge 31, Type (0, 1), BuildingBlock: AJUNOK_clean_linker_0, # of connection points: 2
#     Edge 32, Type (0, 1), BuildingBlock: AJUNOK_clean_linker_0, # of connection points: 2
#     Edge 33, Type (0, 1), BuildingBlock: AJUNOK_clean_linker_0, # of connection points: 2
#     Edge 34, Type (0, 1), BuildingBlock: AJUNOK_clean_linker_0, # of connection points: 2
#     Edge 35, Type (0, 1), BuildingBlock: AJUNOK_clean_linker_0, # of connection points: 2
# Relax obj value: 0.009
# Max RMSD: 0.106
# Mean RMSD: 0.066
data_MOF--net-nom--node1-CEKHIL_clean_sbu_0--node2-MUDLON_clean_linker_0--edge1-AJUNOK_clean_linker_0
_symmetry_space_group_name_H-M    P1
_symmetry_Int_Tables_number       1
_symmetry_cell_setting            triclinic
loop_
_symmetry_equiv_pos_as_xyz
'x, y, z'
_cell_length_a     48.966018
_cell_length_b     49.282144
_cell_length_c     48.794381
_cell_angle_alpha  90.362164
_cell_angle_beta   89.785245
_cell_angle_gamma 121.7504
loop_
_atom_site_label
_atom_site_type_symbol
_atom_site_fract_x
_atom_site_fract_y
_atom_site_fract_z
_atom_type_partial_charge
H0 H 0.17074 0.56702 0.34087 0.0
N1 N 0.12014 0.57274 0.34558 0.0
H2 H 0.21889 0.59935 0.31349 0.0
H3 H 0.12959 0.61893 0.30872 0.0
H4 H 0.17666 0.64975 0.27946 0.0
H5 H 0.14179 0.63201 0.36652 0.0
H6 H 0.16482 0.65073 0.41225 0.0
H7 H 0.11597 0.53662 0.38746 0.0
H8 H 0.13781 0.55477 0.43364 0.0
H9 H 0.08118 0.51365 0.32806 0.0
H10 H 0.08606 0.6023 0.34267 0.0
H11 H 0.02576 0.48906 0.31268 0.0
H12 H 0.0308 0.57848 0.32594 0.0
H13 H 0.85641 0.40071 0.26885 0.0
H14 H 0.8345 0.38354 0.2226 0.0
H15 H 0.87686 0.48199 0.19888 0.0
H16 H 0.89886 0.49901 0.24545 0.0
H17 H 0.8674 0.50011 0.28389 0.0
H18 H 0.81927 0.4932 0.30659 0.0
H19 H 0.81179 0.41639 0.35457 0.0
H20 H 0.85912 0.42245 0.331 0.0
H21 H 0.93762 0.45691 0.26505 0.0
H22 H 0.99426 0.48767 0.27647 0.0
H23 H 0.97593 0.54098 0.33657 0.0
N24 N 0.88968 0.45975 0.28847 0.0
H25 H 0.91951 0.51162 0.32381 0.0
C26 C 0.14628 0.58998 0.32654 0.0
C27 C 0.17173 0.58474 0.32719 0.0
C28 C 0.19912 0.6031 0.31129 0.0
C29 C 0.20139 0.62665 0.29361 0.0
C30 C 0.17568 0.63175 0.29276 0.0
C31 C 0.14851 0.61384 0.30929 0.0
C32 C 0.12729 0.58292 0.37371 0.0
C33 C 0.14011 0.61493 0.38133 0.0
C34 C 0.15316 0.62553 0.40751 0.0
C35 C 0.15318 0.6042 0.42658 0.0
C36 C 0.13843 0.57181 0.41934 0.0
C37 C 0.12567 0.56133 0.39313 0.0
C38 C 0.08771 0.5597 0.3362 0.0
C39 C 0.07025 0.52788 0.32755 0.0
C40 C 0.03863 0.51401 0.31852 0.0
C41 C 0.02372 0.53185 0.31759 0.0
C42 C 0.04133 0.56392 0.32646 0.0
C43 C 0.07302 0.57769 0.33584 0.0
C44 C 0.87927 0.45097 0.26046 0.0
C45 C 0.86128 0.41854 0.25354 0.0
C46 C 0.8489 0.40884 0.22717 0.0
C47 C 0.85429 0.43148 0.20712 0.0
C48 C 0.87241 0.4641 0.21399 0.0
C49 C 0.885 0.47382 0.24047 0.0
C50 C 0.86645 0.46135 0.30554 0.0
C51 C 0.85576 0.48217 0.2996 0.0
C52 C 0.82843 0.47834 0.31261 0.0
C53 C 0.81206 0.45427 0.33219 0.0
C54 C 0.82427 0.43523 0.33964 0.0
C55 C 0.85119 0.43867 0.32628 0.0
C56 C 0.92376 0.48179 0.29312 0.0
C57 C 0.94578 0.47584 0.28013 0.0
C58 C 0.97828 0.49319 0.28706 0.0
C59 C 0.98979 0.51649 0.30788 0.0
C60 C 0.9681 0.52339 0.32031 0.0
C61 C 0.93551 0.50633 0.31301 0.0
H62 H 0.4711 0.86173 0.46274 0.0
N63 N 0.45572 0.9017 0.44256 0.0
H64 H 0.43631 0.81297 0.48876 0.0
H65 H 0.39818 0.88558 0.46606 0.0
H66 H 0.36294 0.83643 0.4917 0.0
H67 H 0.39927 0.88469 0.41644 0.0
H68 H 0.38163 0.85814 0.37239 0.0
H69 H 0.49038 0.89194 0.4063 0.0
H70 H 0.47162 0.86259 0.36279 0.0
H71 H 0.50805 0.9421 0.47048 0.0
H72 H 0.42473 0.93415 0.43265 0.0
H73 H 0.52533 0.99603 0.48605 0.0
H74 H 0.44245 0.98819 0.44675 0.0
H75 H 0.5875 0.1468 0.51714 0.0
H76 H 0.61526 0.17153 0.55988 0.0
H77 H 0.52526 0.14818 0.59694 0.0
H78 H 0.49752 0.12378 0.55363 0.0
H79 H 0.49437 0.15461 0.49853 0.0
H80 H 0.51458 0.20428 0.47272 0.0
H81 H 0.59522 0.19856 0.44513 0.0
H82 H 0.57503 0.14919 0.47063 0.0
H83 H 0.56354 0.10204 0.48943 0.0
H84 H 0.5469 0.0491 0.47233 0.0
H85 H 0.44751 0.01935 0.48513 0.0
N86 N 0.52384 0.12292 0.50623 0.0
H87 H 0.46457 0.07321 0.5008 0.0
C88 C 0.43723 0.87711 0.46234 0.0
C89 C 0.44785 0.85674 0.46962 0.0
C90 C 0.42786 0.82883 0.48419 0.0
C91 C 0.39672 0.82068 0.49165 0.0
C92 C 0.3868 0.84214 0.48603 0.0
C93 C 0.4069 0.87018 0.47139 0.0
C94 C 0.44671 0.89125 0.41454 0.0
C95 C 0.41598 0.8815 0.40447 0.0
C96 C 0.40546 0.86533 0.37947 0.0
C97 C 0.4248 0.85728 0.36445 0.0
C98 C 0.45607 0.86831 0.37387 0.0
C99 C 0.46688 0.8852 0.39864 0.0
C100 C 0.46533 0.93393 0.45015 0.0
C101 C 0.49372 0.95215 0.4652 0.0
C102 C 0.50365 0.9831 0.47392 0.0
C103 C 0.48542 0.99676 0.46762 0.0
C104 C 0.45695 0.97845 0.45238 0.0
C105 C 0.44687 0.94734 0.44394 0.0
C106 C 0.5402 0.13312 0.53221 0.0
C107 C 0.57348 0.14619 0.53452 0.0
C108 C 0.58941 0.16035 0.55909 0.0
C109 C 0.57242 0.16166 0.58182 0.0
C110 C 0.539 0.14761 0.57972 0.0
C111 C 0.5231 0.13347 0.55515 0.0
C112 C 0.5331 0.14816 0.48671 0.0
C113 C 0.51594 0.16367 0.48631 0.0
C114 C 0.5275 0.19198 0.47165 0.0
C115 C 0.55668 0.2054 0.45735 0.0
C116 C 0.57289 0.18889 0.45638 0.0
C117 C 0.56122 0.1605 0.47089 0.0
C118 C 0.51519 0.09183 0.49611 0.0
C119 C 0.53819 0.08443 0.48822 0.0
C120 C 0.52856 0.05378 0.47871 0.0
C121 C 0.49576 0.02969 0.47724 0.0
C122 C 0.47292 0.03727 0.48538 0.0
C123 C 0.48259 0.06799 0.49456 0.0
H124 H 0.4319 0.58353 0.65917 0.0
N125 N 0.40559 0.52125 0.67528 0.0
H126 H 0.40542 0.60426 0.6323 0.0
H127 H 0.35237 0.48754 0.64561 0.0
H128 H 0.32676 0.50802 0.61627 0.0
H129 H 0.36403 0.49835 0.71656 0.0
H130 H 0.36789 0.5243 0.76056 0.0
H131 H 0.45874 0.57582 0.69504 0.0
H132 H 0.46177 0.60308 0.73774 0.0
H133 H 0.46434 0.55899 0.65078 0.0
H134 H 0.39706 0.46369 0.67878 0.0
H135 H 0.50193 0.54284 0.63752 0.0
H136 H 0.43371 0.44672 0.66438 0.0
H137 H 0.61681 0.48007 0.59212 0.0
H138 H 0.62325 0.46331 0.54656 0.0
H139 H 0.52009 0.40334 0.53892 0.0
H140 H 0.51403 0.41896 0.58518 0.0
H141 H 0.52076 0.39327 0.62673 0.0
H142 H 0.53329 0.356 0.64798 0.0
H143 H 0.62539 0.43545 0.6735 0.0
H144 H 0.6129 0.47251 0.65203 0.0
H145 H 0.55056 0.49768 0.59393 0.0
H146 H 0.51192 0.51274 0.60566 0.0
H147 H 0.48273 0.45163 0.67659 0.0
N148 N 0.56276 0.45764 0.62055 0.0
H149 H 0.52011 0.43563 0.66443 0.0
C150 C 0.39366 0.53384 0.65514 0.0
C151 C 0.40897 0.56675 0.65005 0.0
C152 C 0.3938 0.57864 0.63433 0.0
C153 C 0.36339 0.55793 0.62268 0.0
C154 C 0.34946 0.52483 0.62588 0.0
C155 C 0.3643 0.513 0.64224 0.0
C156 C 0.41071 0.53524 0.70227 0.0
C157 C 0.38565 0.52093 0.72137 0.0
C158 C 0.38772 0.53607 0.74628 0.0
C159 C 0.41467 0.56638 0.75229 0.0
C160 C 0.44056 0.57989 0.73374 0.0
C161 C 0.43875 0.56434 0.70912 0.0
C162 C 0.42796 0.51251 0.66606 0.0
C163 C 0.45759 0.53454 0.654 0.0
C164 C 0.47896 0.52511 0.64613 0.0
C165 C 0.47102 0.49341 0.64992 0.0
C166 C 0.44104 0.47144 0.6616 0.0
C167 C 0.4199 0.48098 0.66965 0.0
C168 C 0.56506 0.45112 0.59196 0.0
C169 C 0.59562 0.46383 0.58033 0.0
C170 C 0.59921 0.45434 0.55421 0.0
C171 C 0.57217 0.43224 0.5389 0.0
C172 C 0.54142 0.4203 0.55022 0.0
C173 C 0.53788 0.42942 0.57657 0.0
C174 C 0.5661 0.43575 0.63774 0.0
C175 C 0.54333 0.40267 0.63743 0.0
C176 C 0.55045 0.38142 0.64959 0.0
C177 C 0.58047 0.39291 0.66196 0.0
C178 C 0.60223 0.42602 0.66378 0.0
C179 C 0.59507 0.44719 0.65176 0.0
C180 C 0.53784 0.46433 0.62732 0.0
C181 C 0.53532 0.48683 0.61167 0.0
C182 C 0.51346 0.49587 0.61866 0.0
C183 C 0.49391 0.48329 0.64202 0.0
C184 C 0.49672 0.46123 0.65804 0.0
C185 C 0.51839 0.45197 0.65093 0.0
H186 H 0.16652 0.5858 0.78963 0.0
N187 N 0.12503 0.5221 0.7793 0.0
H188 H 0.21467 0.60891 0.81746 0.0
H189 H 0.14092 0.49145 0.81442 0.0
H190 H 0.18801 0.51469 0.84455 0.0
H191 H 0.15893 0.51091 0.74352 0.0
H192 H 0.1849 0.54049 0.70167 0.0
H193 H 0.11481 0.56631 0.75473 0.0
H194 H 0.13923 0.59468 0.71228 0.0
H195 H 0.10795 0.55955 0.80721 0.0
H196 H 0.07108 0.46608 0.77223 0.0
H197 H 0.05391 0.54376 0.82238 0.0
H198 H 0.01695 0.44982 0.78771 0.0
H199 H 0.87606 0.48538 0.87085 0.0
H200 H 0.85014 0.46549 0.91541 0.0
H201 H 0.88353 0.39998 0.91664 0.0
H202 H 0.90831 0.41917 0.87162 0.0
H203 H 0.87858 0.39829 0.82858 0.0
H204 H 0.82816 0.36203 0.80444 0.0
H205 H 0.81649 0.4412 0.78746 0.0
H206 H 0.86675 0.47728 0.81182 0.0
H207 H 0.95827 0.49506 0.8684 0.0
H208 H 0.01217 0.50942 0.85479 0.0
H209 H 0.97503 0.46042 0.77765 0.0
N210 N 0.9032 0.46172 0.83942 0.0
H211 H 0.92151 0.44568 0.79105 0.0
C212 C 0.15029 0.5367 0.79956 0.0
C213 C 0.17076 0.57004 0.8017 0.0
C214 C 0.19822 0.58333 0.81806 0.0
C215 C 0.20524 0.56373 0.83354 0.0
C216 C 0.18357 0.53049 0.83268 0.0
C217 C 0.15651 0.51716 0.81572 0.0
C218 C 0.13484 0.53611 0.75235 0.0
C219 C 0.15413 0.52882 0.73654 0.0
C220 C 0.16897 0.54579 0.71266 0.0
C221 C 0.16465 0.57041 0.70391 0.0
C222 C 0.14383 0.57653 0.7189 0.0
C223 C 0.12935 0.55984 0.74303 0.0
C224 C 0.09353 0.51385 0.78857 0.0
C225 C 0.08826 0.53555 0.80293 0.0
C226 C 0.05731 0.52641 0.81173 0.0
C227 C 0.03103 0.49546 0.80633 0.0
C228 C 0.03651 0.47393 0.79195 0.0
C229 C 0.06741 0.48309 0.78319 0.0
C230 C 0.89403 0.45381 0.86785 0.0
C231 C 0.8783 0.46718 0.88103 0.0
C232 C 0.8635 0.45576 0.90646 0.0
C233 C 0.8642 0.43069 0.91928 0.0
C234 C 0.88178 0.4187 0.9069 0.0
C235 C 0.89629 0.42989 0.88131 0.0
C236 C 0.87635 0.44058 0.822 0.0
C237 C 0.86535 0.40788 0.81939 0.0
C238 C 0.83666 0.38723 0.80555 0.0
C239 C 0.81833 0.39882 0.79448 0.0
C240 C 0.83 0.43164 0.79619 0.0
C241 C 0.85873 0.45227 0.80984 0.0
C242 C 0.93469 0.46752 0.83177 0.0
C243 C 0.96138 0.48652 0.84884 0.0
C244 C 0.99244 0.49522 0.84085 0.0
C245 C 0.99794 0.48575 0.81524 0.0
C246 C 0.97159 0.46738 0.79785 0.0
C247 C 0.94057 0.45872 0.80578 0.0
H248 H 0.54426 0.15564 0.97873 0.0
N249 N 0.56063 0.12615 0.9426 0.0
H250 H 0.58031 0.20566 0.00336 0.0
H251 H 0.62632 0.15708 0.94453 0.0
H252 H 0.66226 0.20651 0.96948 0.0
H253 H 0.59614 0.11521 0.90514 0.0
H254 H 0.61187 0.13847 0.85969 0.0
H255 H 0.53786 0.1564 0.91534 0.0
H256 H 0.55473 0.18106 0.87022 0.0
H257 H 0.50195 0.07832 0.95468 0.0
H258 H 0.6003 0.10286 0.95049 0.0
H259 H 0.48579 0.0253 0.97159 0.0
H260 H 0.58436 0.04973 0.96574 0.0
H261 H 0.44377 0.90343 0.02921 0.0
H262 H 0.41595 0.87742 0.07171 0.0
H263 H 0.49634 0.86947 0.09567 0.0
H264 H 0.523 0.89366 0.05222 0.0
H265 H 0.53281 0.88617 0.9879 0.0
H266 H 0.51146 0.83534 0.9631 0.0
H267 H 0.41656 0.82077 0.96634 0.0
H268 H 0.43761 0.87072 0.99133 0.0
H269 H 0.46235 0.92307 0.97793 0.0
H270 H 0.4777 0.97529 0.96041 0.0
H271 H 0.56766 0.01716 0.00434 0.0
N272 N 0.49925 0.90894 0.01046 0.0
H273 H 0.55268 0.96428 0.02051 0.0
C274 C 0.58243 0.15235 0.96011 0.0
C275 C 0.56999 0.16629 0.97712 0.0
C276 C 0.59053 0.19489 0.99092 0.0
C277 C 0.62397 0.20994 0.98804 0.0
C278 C 0.63655 0.19523 0.97208 0.0
C279 C 0.61597 0.16681 0.95801 0.0
C280 C 0.56544 0.13379 0.91377 0.0
C281 C 0.58603 0.12856 0.8975 0.0
C282 C 0.59531 0.1422 0.87147 0.0
C283 C 0.58461 0.16168 0.86128 0.0
C284 C 0.56289 0.16565 0.87707 0.0
C285 C 0.55329 0.15165 0.90293 0.0
C286 C 0.55218 0.09461 0.95106 0.0
C287 C 0.51997 0.07208 0.95701 0.0
C288 C 0.51078 0.04168 0.96652 0.0
C289 C 0.5337 0.03297 0.97011 0.0
C290 C 0.56602 0.05558 0.96377 0.0
C291 C 0.57521 0.0861 0.95462 0.0
C292 C 0.48537 0.90014 0.03747 0.0
C293 C 0.45556 0.89645 0.04375 0.0
C294 C 0.4398 0.88183 0.06825 0.0
C295 C 0.4539 0.8713 0.08714 0.0
C296 C 0.48463 0.87691 0.08144 0.0
C297 C 0.50006 0.89103 0.0568 0.0
C298 C 0.48705 0.88248 0.99147 0.0
C299 C 0.50756 0.87233 0.98265 0.0
C300 C 0.49535 0.84333 0.9686 0.0
C301 C 0.46228 0.82392 0.96331 0.0
C302 C 0.44206 0.83501 0.97066 0.0
C303 C 0.45423 0.86388 0.98471 0.0
C304 C 0.50668 0.93955 1.0003 0.0
C305 C 0.48547 0.94328 0.98367 0.0
C306 C 0.49423 0.97346 0.97381 0.0
C307 C 0.52411 1.0007 0.98071 0.0
C308 C 0.54483 0.99683 0.99793 0.0
C309 C 0.53622 0.96663 0.00744 0.0
H310 H 0.59021 0.44458 0.16178 0.0
N311 N 0.61529 0.50735 0.17638 0.0
H312 H 0.61767 0.42349 0.13635 0.0
H313 H 0.66898 0.54052 0.14709 0.0
H314 H 0.69556 0.51956 0.11914 0.0
H315 H 0.6553 0.52877 0.2187 0.0
H316 H 0.64809 0.50295 0.26309 0.0
H317 H 0.56023 0.45421 0.19454 0.0
H318 H 0.55364 0.42688 0.23789 0.0
H319 H 0.56362 0.4734 0.14195 0.0
H320 H 0.61652 0.56029 0.18892 0.0
H321 H 0.52744 0.48998 0.12582 0.0
H322 H 0.57952 0.57637 0.17432 0.0
H323 H 0.40947 0.55096 0.0858 0.0
H324 H 0.40353 0.56813 0.0404 0.0
H325 H 0.50674 0.62556 0.03248 0.0
H326 H 0.51249 0.60948 0.0781 0.0
H327 H 0.50081 0.63882 0.11704 0.0
H328 H 0.48641 0.67393 0.13989 0.0
H329 H 0.40154 0.5917 0.17299 0.0
H330 H 0.41614 0.55656 0.15017 0.0
H331 H 0.44935 0.51449 0.12334 0.0
H332 H 0.48552 0.4973 0.13829 0.0
H333 H 0.56457 0.59559 0.13773 0.0
N334 N 0.46324 0.57347 0.11432 0.0
H335 H 0.52794 0.61241 0.12449 0.0
C336 C 0.62796 0.49432 0.15707 0.0
C337 C 0.61322 0.46125 0.15275 0.0
C338 C 0.62895 0.44914 0.13785 0.0
C339 C 0.65939 0.46973 0.12624 0.0
C340 C 0.67285 0.50288 0.12875 0.0
C341 C 0.65744 0.51497 0.14429 0.0
C342 C 0.60855 0.49332 0.2033 0.0
C343 C 0.63279 0.50692 0.22313 0.0
C344 C 0.62869 0.49197 0.24834 0.0
C345 C 0.60033 0.46273 0.2541 0.0
C346 C 0.57553 0.44966 0.23449 0.0
C347 C 0.57941 0.46506 0.20948 0.0
C348 C 0.5932 0.51597 0.16633 0.0
C349 C 0.56746 0.49606 0.14882 0.0
C350 C 0.54652 0.50549 0.13984 0.0
C351 C 0.5505 0.53473 0.14855 0.0
C352 C 0.576 0.55414 0.1665 0.0
C353 C 0.5971 0.54491 0.1751 0.0
C354 C 0.46128 0.5788 0.08553 0.0
C355 C 0.43078 0.5667 0.07397 0.0
C356 C 0.42745 0.57656 0.04807 0.0
C357 C 0.45467 0.59874 0.03313 0.0
C358 C 0.48529 0.60913 0.04386 0.0
C359 C 0.48861 0.59955 0.06991 0.0
C360 C 0.45953 0.59488 0.13204 0.0
C361 C 0.47975 0.62829 0.12999 0.0
C362 C 0.47142 0.64839 0.14293 0.0
C363 C 0.44267 0.63544 0.15783 0.0
C364 C 0.42366 0.60222 0.16133 0.0
C365 C 0.43207 0.58218 0.14854 0.0
C366 C 0.48576 0.56461 0.12266 0.0
C367 C 0.47452 0.53224 0.12654 0.0
C368 C 0.49535 0.52247 0.13486 0.0
C369 C 0.52818 0.54497 0.13925 0.0
C370 C 0.53943 0.5775 0.13509 0.0
C371 C 0.51845 0.58724 0.12717 0.0
Co372 Co 0.6345 0.38169 0.39283 0.0
O373 O 0.66175 0.37856 0.36615 0.0
O374 O 0.67688 0.41999 0.39375 0.0
C375 C 0.61416 0.33259 0.41073 0.0
O376 O 0.61385 0.39318 0.42355 0.0
Co377 Co 0.56078 0.33795 0.3901 0.0
O378 O 0.56217 0.35385 0.42781 0.0
C379 C 0.59392 0.39082 0.35095 0.0
C380 C 0.68423 0.40669 0.37438 0.0
C381 C 0.58684 0.37946 0.43643 0.0
O382 O 0.62025 0.40082 0.36413 0.0
O383 O 0.56763 0.36502 0.35698 0.0
O384 O 0.64189 0.35637 0.41856 0.0
O385 O 0.60082 0.33855 0.3907 0.0
Co386 Co 0.28044 0.64871 0.56141 0.0
O387 O 0.31323 0.64925 0.58349 0.0
O388 O 0.27688 0.60772 0.5591 0.0
C389 C 0.31273 0.69634 0.54121 0.0
O390 O 0.24453 0.63985 0.53489 0.0
Co391 Co 0.26092 0.69825 0.57026 0.0
O392 O 0.23692 0.68097 0.53541 0.0
C393 C 0.23882 0.64578 0.6095 0.0
C394 C 0.30151 0.62002 0.57546 0.0
C395 C 0.23139 0.65463 0.52536 0.0
O396 O 0.24992 0.63299 0.59351 0.0
O397 O 0.24291 0.67326 0.60505 0.0
O398 O 0.31132 0.67075 0.53222 0.0
O399 O 0.29703 0.69293 0.56363 0.0
Co400 Co 0.64692 0.28557 0.72059 0.0
O401 O 0.65346 0.31766 0.69474 0.0
O402 O 0.60861 0.28795 0.71803 0.0
C403 C 0.69406 0.31615 0.7428 0.0
O404 O 0.6321 0.25126 0.75005 0.0
Co405 Co 0.6918 0.25927 0.72084 0.0
O406 O 0.67171 0.24182 0.75694 0.0
C407 C 0.64197 0.23714 0.67821 0.0
C408 C 0.62465 0.31082 0.70048 0.0
C409 C 0.64497 0.23852 0.76372 0.0
O410 O 0.63082 0.2526 0.69032 0.0
O411 O 0.66752 0.23842 0.68613 0.0
O412 O 0.66923 0.31804 0.74863 0.0
O413 O 0.69048 0.29792 0.72215 0.0
Co414 Co 0.38409 0.64857 0.89529 0.0
O415 O 0.35358 0.65169 0.87292 0.0
O416 O 0.3426 0.60938 0.89752 0.0
C417 C 0.40551 0.69705 0.91512 0.0
O418 O 0.4083 0.63718 0.92221 0.0
Co419 Co 0.45699 0.69341 0.88743 0.0
O420 O 0.45925 0.67849 0.92451 0.0
C421 C 0.42107 0.64043 0.84855 0.0
C422 C 0.33267 0.62302 0.88103 0.0
C423 C 0.43605 0.65235 0.93384 0.0
O424 O 0.39581 0.63061 0.86331 0.0
O425 O 0.44795 0.66595 0.85391 0.0
O426 O 0.3789 0.67273 0.92419 0.0
O427 O 0.41685 0.69198 0.89296 0.0
Co428 Co 0.74295 0.38045 0.06025 0.0
O429 O 0.71165 0.37936 0.08503 0.0
O430 O 0.74702 0.42174 0.06125 0.0
C431 C 0.70838 0.33369 0.0392 0.0
O432 O 0.77724 0.39021 0.0313 0.0
Co433 Co 0.76116 0.32913 0.06126 0.0
O434 O 0.77944 0.34628 0.0246 0.0
C435 C 0.78714 0.37962 0.10375 0.0
C436 C 0.72309 0.40887 0.07837 0.0
C437 C 0.7864 0.37402 0.01746 0.0
O438 O 0.77504 0.39377 0.09114 0.0
O439 O 0.7824 0.35257 0.09609 0.0
O440 O 0.70998 0.35985 0.03205 0.0
O441 O 0.72583 0.33621 0.06001 0.0
Co442 Co 0.37177 0.73896 0.21879 0.0
O443 O 0.36649 0.70866 0.19107 0.0
O444 O 0.40969 0.73594 0.21688 0.0
C445 C 0.32316 0.70746 0.23806 0.0
O446 O 0.38529 0.77095 0.25047 0.0
Co447 Co 0.32825 0.76695 0.22052 0.0
O448 O 0.34487 0.77913 0.25838 0.0
C449 C 0.3807 0.79155 0.17998 0.0
C450 C 0.39458 0.71434 0.19799 0.0
C451 C 0.37113 0.78164 0.26534 0.0
O452 O 0.39032 0.77424 0.19078 0.0
O453 O 0.35534 0.7908 0.18786 0.0
O454 O 0.34704 0.70423 0.24425 0.0
O455 O 0.32847 0.72771 0.21889 0.0
C456 C 0.24475 0.67996 0.2753 0.0
C457 C 0.23115 0.64669 0.27718 0.0
C458 C 0.27412 0.69958 0.26178 0.0
C459 C 0.29117 0.68668 0.25024 0.0
H460 H 0.23316 0.6911 0.28504 0.0
H461 H 0.28404 0.72506 0.26124 0.0
S462 S 0.26452 0.60113 0.2461 0.0
N463 N 0.23561 0.60163 0.26318 0.0
N464 N 0.29157 0.6388 0.23937 0.0
C465 C 0.27755 0.65356 0.25116 0.0
C466 C 0.24736 0.63349 0.26423 0.0
C467 C 0.55456 0.24508 0.42677 0.0
C468 C 0.57153 0.2378 0.44548 0.0
C469 C 0.56845 0.27582 0.41564 0.0
C470 C 0.59961 0.30045 0.42316 0.0
H471 H 0.53054 0.2268 0.42048 0.0
H472 H 0.55463 0.28027 0.40107 0.0
S473 S 0.65308 0.29381 0.4729 0.0
N474 N 0.62041 0.25779 0.47196 0.0
N475 N 0.64651 0.31543 0.45133 0.0
C476 C 0.61652 0.29348 0.44229 0.0
C477 C 0.60249 0.26219 0.45337 0.0
C478 C 0.3632 0.59853 0.59179 0.0
C479 C 0.34603 0.57126 0.60842 0.0
C480 C 0.34838 0.61376 0.58066 0.0
C481 C 0.31564 0.60179 0.58503 0.0
H482 H 0.3885 0.60861 0.58772 0.0
H483 H 0.36271 0.63523 0.56873 0.0
S484 S 0.25962 0.53186 0.62695 0.0
N485 N 0.2942 0.53369 0.62914 0.0
N486 N 0.26625 0.56147 0.60671 0.0
C487 C 0.29782 0.57415 0.60072 0.0
C488 C 0.31301 0.55903 0.61272 0.0
C489 C 0.78259 0.35573 0.761 0.0
C490 C 0.78628 0.37664 0.7824 0.0
C491 C 0.75253 0.33569 0.74863 0.0
C492 C 0.72508 0.33569 0.75741 0.0
H493 H 0.80322 0.35543 0.75333 0.0
H494 H 0.75095 0.32052 0.73178 0.0
S495 S 0.72171 0.38372 0.81486 0.0
N496 N 0.7598 0.39449 0.81327 0.0
N497 N 0.70341 0.35696 0.79029 0.0
C498 C 0.72837 0.35571 0.77954 0.0
C499 C 0.75894 0.37615 0.79195 0.0
C500 C 0.46073 0.78632 0.92745 0.0
C501 C 0.44847 0.79132 0.95178 0.0
C502 C 0.44709 0.75565 0.91595 0.0
C503 C 0.42082 0.72889 0.92847 0.0
H504 H 0.48055 0.80633 0.91693 0.0
H505 H 0.4569 0.75303 0.89689 0.0
S506 S 0.38228 0.72904 0.99415 0.0
N507 N 0.41034 0.76681 0.98916 0.0
N508 N 0.38461 0.70935 0.96767 0.0
C509 C 0.4091 0.73354 0.95333 0.0
C510 C 0.42293 0.76469 0.96494 0.0
C511 C 0.66015 0.42846 0.09616 0.0
C512 C 0.67707 0.45626 0.11242 0.0
C513 C 0.67539 0.41352 0.08501 0.0
C514 C 0.70833 0.42624 0.089 0.0
H515 H 0.63476 0.41787 0.09221 0.0
H516 H 0.66129 0.39181 0.07314 0.0
S517 S 0.76384 0.49768 0.13009 0.0
N518 N 0.72888 0.49507 0.13259 0.0
N519 N 0.75761 0.46778 0.11009 0.0
C520 C 0.72586 0.45429 0.10448 0.0
C521 C 0.71025 0.46915 0.11651 0.0
C522 C 0.35792 0.78582 0.5282 0.0
C523 C 0.37407 0.78882 0.50346 0.0
C524 C 0.33758 0.75575 0.54006 0.0
C525 C 0.33256 0.72765 0.52749 0.0
H526 H 0.36163 0.8069 0.53877 0.0
H527 H 0.32621 0.75462 0.55946 0.0
S528 S 0.36648 0.72266 0.46075 0.0
N529 N 0.38167 0.76118 0.46563 0.0
N530 N 0.34369 0.70483 0.48775 0.0
C531 C 0.34771 0.73037 0.50219 0.0
C532 C 0.36839 0.7609 0.49023 0.0
C533 C 0.57285 0.34665 0.68996 0.0
C534 C 0.59058 0.37066 0.67055 0.0
C535 C 0.58344 0.32666 0.69906 0.0
C536 C 0.61197 0.32986 0.68885 0.0
H537 H 0.55115 0.34389 0.69868 0.0
H538 H 0.56958 0.30913 0.71464 0.0
S539 S 0.66467 0.38667 0.63505 0.0
N540 N 0.63628 0.39476 0.63968 0.0
N541 N 0.65617 0.35741 0.65642 0.0
C542 C 0.62904 0.35296 0.6685 0.0
C543 C 0.61836 0.37329 0.65945 0.0
C544 C 0.25425 0.56279 0.84703 0.0
C545 C 0.23634 0.57772 0.84855 0.0
C546 C 0.28501 0.57698 0.85861 0.0
C547 C 0.29919 0.60685 0.87158 0.0
H548 H 0.245 0.54053 0.83596 0.0
H549 H 0.29832 0.56515 0.85636 0.0
S550 S 0.26164 0.65424 0.88423 0.0
N551 N 0.23417 0.62257 0.8671 0.0
N552 N 0.29274 0.64994 0.88727 0.0
C553 C 0.28144 0.62163 0.87405 0.0
C554 C 0.24983 0.60689 0.86293 0.0
C555 C 0.67018 0.24662 0.01844 0.0
C556 C 0.64564 0.24177 1.00046 0.0
C557 C 0.69052 0.27651 0.03071 0.0
C558 C 0.68737 0.30275 0.02508 0.0
H559 H 0.67332 0.22702 0.02339 0.0
H560 H 0.70879 0.27901 0.04475 0.0
S561 S 0.62796 0.30265 0.97793 0.0
N562 N 0.62001 0.26568 0.9767 0.0
N563 N 0.65833 0.32194 0.99944 0.0
C564 C 0.66334 0.2983 0.00658 0.0
C565 C 0.64244 0.26778 0.99438 0.0
C566 C 0.44941 0.68227 0.18484 0.0
C567 C 0.43081 0.6561 0.16735 0.0
C568 C 0.43784 0.70142 0.19432 0.0
C569 C 0.40747 0.69533 0.1863 0.0
H570 H 0.47276 0.68757 0.19167 0.0
H571 H 0.45268 0.72089 0.20826 0.0
S572 S 0.35088 0.63111 0.13863 0.0
N573 N 0.38161 0.62618 0.14103 0.0
N574 N 0.35987 0.66197 0.15846 0.0
C575 C 0.38917 0.66973 0.16805 0.0
C576 C 0.40083 0.65018 0.15869 0.0
C577 C 0.77508 0.45066 0.36961 0.0
C578 C 0.77998 0.44583 0.34206 0.0
C579 C 0.74399 0.43934 0.37971 0.0
C580 C 0.7169 0.42205 0.36273 0.0
H581 H 0.79532 0.46267 0.38348 0.0
H582 H 0.74103 0.44286 0.40121 0.0
S583 S 0.71739 0.40442 0.28881 0.0
N584 N 0.75565 0.42416 0.29773 0.0
N585 N 0.69722 0.40205 0.31682 0.0
C586 C 0.72169 0.41778 0.33502 0.0
C587 C 0.75327 0.42988 0.32466 0.0
C588 C 0.19248 0.60642 0.46059 0.0
C589 C 0.17118 0.61605 0.45282 0.0
C590 C 0.21127 0.6185 0.48431 0.0
C591 C 0.20972 0.6409 0.50123 0.0
H592 H 0.19532 0.59 0.44783 0.0
H593 H 0.22773 0.61077 0.48899 0.0
S594 S 0.15558 0.67169 0.4913 0.0
N595 N 0.14796 0.64759 0.4649 0.0
N596 N 0.18355 0.67075 0.50932 0.0
C597 C 0.18792 0.65017 0.49405 0.0
C598 C 0.16864 0.63769 0.46991 0.0
C599 C 0.58374 0.20233 0.61821 0.0
C600 C 0.58975 0.17961 0.60697 0.0
C601 C 0.60062 0.22061 0.64121 0.0
C602 C 0.62429 0.21701 0.65397 0.0
H603 H 0.56626 0.20648 0.60883 0.0
H604 H 0.59526 0.23804 0.64878 0.0
S605 S 0.64738 0.15893 0.63352 0.0
N606 N 0.61972 0.15324 0.61102 0.0
N607 N 0.6517 0.18764 0.65413 0.0
C608 C 0.63017 0.19394 0.64313 0.0
C609 C 0.61288 0.17528 0.61968 0.0
C610 C 0.44384 0.60164 0.79281 0.0
C611 C 0.41546 0.58445 0.77724 0.0
C612 C 0.44555 0.61984 0.81572 0.0
C613 C 0.41883 0.62121 0.82422 0.0
H614 H 0.46492 0.60094 0.78734 0.0
H615 H 0.46788 0.6326 0.82706 0.0
S616 S 0.3395 0.58248 0.78974 0.0
N617 N 0.36057 0.57174 0.7712 0.0
N618 N 0.36347 0.6048 0.81484 0.0
C619 C 0.39031 0.60418 0.80893 0.0
C620 C 0.38869 0.58609 0.78534 0.0
C621 C 0.84529 0.43503 0.96625 0.0
C622 C 0.84491 0.41586 0.94453 0.0
C623 C 0.82619 0.42142 0.9897 0.0
C624 C 0.80616 0.38811 0.99242 0.0
H625 H 0.86056 0.46076 0.96517 0.0
H626 H 0.82743 0.43712 0.00595 0.0
S627 S 0.79411 0.3275 0.94031 0.0
N628 N 0.821 0.36193 0.9265 0.0
N629 N 0.7858 0.33638 0.97065 0.0
C630 C 0.80531 0.36871 0.97071 0.0
C631 C 0.82451 0.38255 0.94679 0.0
C632 C 0.43561 0.82428 0.11796 0.0
C633 C 0.43577 0.8522 0.11158 0.0
C634 C 0.4181 0.80514 0.14026 0.0
C635 C 0.39965 0.81287 0.15697 0.0
H636 H 0.44867 0.81673 0.1053 0.0
H637 H 0.41852 0.78373 0.14405 0.0
S638 S 0.39373 0.88464 0.15039 0.0
N639 N 0.41743 0.88764 0.12489 0.0
N640 N 0.38379 0.85123 0.16639 0.0
C641 C 0.39982 0.8409 0.15106 0.0
C642 C 0.418 0.86062 0.12848 0.0
C643 C 0.62447 0.44326 0.28797 0.0
C644 C 0.59792 0.44495 0.27953 0.0
C645 C 0.62299 0.42613 0.31128 0.0
C646 C 0.59474 0.4095 0.32696 0.0
H647 H 0.6465 0.45477 0.27616 0.0
H648 H 0.644 0.42532 0.31668 0.0
S649 S 0.51912 0.40786 0.31499 0.0
N650 N 0.54306 0.43 0.28987 0.0
N651 N 0.53995 0.39677 0.33318 0.0
C652 C 0.56803 0.41108 0.31898 0.0
C653 C 0.56969 0.429 0.29541 0.0
C654 C 0.43033 0.84343 0.31572 0.0
C655 C 0.41176 0.83626 0.33978 0.0
C656 C 0.41765 0.82472 0.29188 0.0
C657 C 0.3859 0.79848 0.29126 0.0
H658 H 0.45449 0.86418 0.31504 0.0
H659 H 0.43229 0.83161 0.27352 0.0
S660 S 0.32889 0.76667 0.3495 0.0
N661 N 0.36125 0.79843 0.36215 0.0
N662 N 0.33717 0.76446 0.31704 0.0
C663 C 0.36757 0.79028 0.31534 0.0
C664 C 0.38055 0.80886 0.33967 0.0
C665 C 0.5577 0.38683 0.50667 0.0
C666 C 0.57602 0.41982 0.51216 0.0
C667 C 0.5614 0.37414 0.48216 0.0
C668 C 0.58385 0.39384 0.4622 0.0
H669 H 0.54068 0.3705 0.52165 0.0
H670 H 0.54684 0.34855 0.47904 0.0
S671 S 0.63632 0.48206 0.46561 0.0
N672 N 0.61623 0.47218 0.49479 0.0
N673 N 0.62385 0.44818 0.44905 0.0
C674 C 0.60225 0.4269 0.46728 0.0
C675 C 0.59818 0.43991 0.49215 0.0
C676 C 0.18559 0.57561 0.65594 0.0
C677 C 0.18283 0.59022 0.67979 0.0
C678 C 0.20377 0.59377 0.63344 0.0
C679 C 0.21973 0.62731 0.63371 0.0
H680 H 0.17352 0.54987 0.65459 0.0
H681 H 0.20507 0.58133 0.61557 0.0
S682 S 0.22194 0.67743 0.6918 0.0
N683 N 0.19911 0.64044 0.70283 0.0
N684 N 0.23246 0.67449 0.66026 0.0
C685 C 0.2172 0.64227 0.65741 0.0
C686 C 0.19896 0.62378 0.68047 0.0
C687 C 0.63218 0.1965 0.83171 0.0
C688 C 0.59876 0.1804 0.83573 0.0
C689 C 0.64668 0.21523 0.80849 0.0
C690 C 0.62847 0.21898 0.7883 0.0
H691 H 0.64747 0.19508 0.8469 0.0
H692 H 0.67253 0.22719 0.80656 0.0
S693 S 0.53986 0.18079 0.78832 0.0
N694 N 0.54761 0.16847 0.81699 0.0
N695 N 0.57499 0.20431 0.77351 0.0
C696 C 0.59499 0.20307 0.79198 0.0
C697 C 0.58013 0.18366 0.81562 0.0
C698 C 0.42868 0.59294 0.98731 0.0
C699 C 0.45099 0.61266 0.00745 0.0
C700 C 0.4239 0.60588 0.96355 0.0
C701 C 0.44143 0.63901 0.95897 0.0
H702 H 0.41484 0.56728 0.9899 0.0
H703 H 0.40655 0.58977 0.94858 0.0
S704 S 0.50055 0.7012 0.00655 0.0
N705 N 0.4891 0.66716 0.02206 0.0
N706 N 0.48072 0.69137 0.97728 0.0
C707 C 0.4636 0.659 0.97907 0.0
C708 C 0.46824 0.64587 0.00331 0.0
C709 C 0.8206 0.43086 0.16818 0.0
C710 C 0.84011 0.42065 0.1794 0.0
C711 C 0.80425 0.41817 0.14332 0.0
C712 C 0.8068 0.39478 0.12878 0.0
H713 H 0.81704 0.44792 0.17918 0.0
H714 H 0.78871 0.42605 0.13594 0.0
S715 S 0.85862 0.36352 0.14782 0.0
N716 N 0.86368 0.38834 0.17293 0.0
N717 N 0.8331 0.36439 0.12638 0.0
C718 C 0.82753 0.38557 0.13926 0.0
C719 C 0.84412 0.39851 0.1645 0.0
loop_
_geom_bond_atom_site_label_1
_geom_bond_atom_site_label_2
_geom_bond_distance
_geom_bond_site_symmetry_2
_ccdc_geom_bond_type
H0 C27 0.929 . S
N1 C26 1.433 . S
N1 C32 1.435 . S
N1 C38 1.423 . S
H2 C28 0.930 . S
H3 C31 0.931 . S
H4 C30 0.929 . S
H5 C33 0.930 . S
H6 C34 0.932 . S
H7 C37 0.929 . S
H8 C36 0.931 . S
H9 C39 0.929 . S
H10 C43 0.932 . S
H11 C40 0.931 . S
H12 C42 0.929 . S
H13 C45 0.929 . S
H14 C46 0.930 . S
H15 C48 0.929 . S
H16 C49 0.931 . S
H17 C51 0.930 . S
H18 C52 0.932 . S
H19 C54 0.931 . S
H20 C55 0.929 . S
H21 C57 0.929 . S
H22 C58 0.931 . S
H23 C60 0.929 . S
N24 C44 1.433 . S
N24 C50 1.435 . S
N24 C56 1.423 . S
H25 C61 0.932 . S
C26 N1 1.433 . S
C26 C27 1.363 . S
C26 C31 1.370 . S
C27 H0 0.929 . S
C27 C26 1.363 . S
C27 C28 1.385 . S
C28 H2 0.930 . S
C28 C27 1.385 . S
C28 C29 1.357 . S
C29 C28 1.357 . S
C29 C30 1.406 . S
C30 H4 0.929 . S
C30 C29 1.406 . S
C30 C31 1.391 . S
C31 H3 0.931 . S
C31 C26 1.370 . S
C31 C30 1.391 . S
C32 N1 1.435 . S
C32 C33 1.358 . S
C32 C37 1.371 . S
C33 H5 0.930 . S
C33 C32 1.358 . S
C33 C34 1.405 . S
C34 H6 0.932 . S
C34 C33 1.405 . S
C34 C35 1.383 . S
C35 C34 1.383 . S
C35 C36 1.393 . S
C36 H8 0.931 . S
C36 C35 1.393 . S
C36 C37 1.382 . S
C37 H7 0.929 . S
C37 C32 1.371 . S
C37 C36 1.382 . S
C38 N1 1.423 . S
C38 C39 1.362 . S
C38 C43 1.388 . S
C39 H9 0.929 . S
C39 C38 1.362 . S
C39 C40 1.376 . S
C40 H11 0.931 . S
C40 C39 1.376 . S
C40 C41 1.396 . S
C41 C40 1.396 . S
C41 C42 1.348 . S
C41 C59 1.472 1_455 S
C42 H12 0.929 . S
C42 C41 1.348 . S
C42 C43 1.443 . S
C43 H10 0.932 . S
C43 C38 1.388 . S
C43 C42 1.443 . S
C44 N24 1.433 . S
C44 C45 1.363 . S
C44 C49 1.370 . S
C45 H13 0.929 . S
C45 C44 1.363 . S
C45 C46 1.385 . S
C46 H14 0.930 . S
C46 C45 1.385 . S
C46 C47 1.357 . S
C47 C46 1.357 . S
C47 C48 1.406 . S
C48 H15 0.929 . S
C48 C47 1.406 . S
C48 C49 1.391 . S
C49 H16 0.931 . S
C49 C44 1.370 . S
C49 C48 1.391 . S
C50 N24 1.435 . S
C50 C51 1.358 . S
C50 C55 1.371 . S
C51 H17 0.930 . S
C51 C50 1.358 . S
C51 C52 1.405 . S
C52 H18 0.932 . S
C52 C51 1.405 . S
C52 C53 1.383 . S
C53 C52 1.383 . S
C53 C54 1.393 . S
C54 H19 0.931 . S
C54 C53 1.393 . S
C54 C55 1.382 . S
C55 H20 0.929 . S
C55 C50 1.371 . S
C55 C54 1.382 . S
C56 N24 1.423 . S
C56 C57 1.362 . S
C56 C61 1.388 . S
C57 H21 0.929 . S
C57 C56 1.362 . S
C57 C58 1.376 . S
C58 H22 0.931 . S
C58 C57 1.376 . S
C58 C59 1.396 . S
C59 C41 1.472 1_655 S
C59 C58 1.396 . S
C59 C60 1.348 . S
C60 H23 0.929 . S
C60 C59 1.348 . S
C60 C61 1.443 . S
C61 H25 0.932 . S
C61 C56 1.388 . S
C61 C60 1.443 . S
H62 C89 0.929 . S
N63 C88 1.433 . S
N63 C94 1.435 . S
N63 C100 1.423 . S
H64 C90 0.930 . S
H65 C93 0.931 . S
H66 C92 0.929 . S
H67 C95 0.930 . S
H68 C96 0.932 . S
H69 C99 0.929 . S
H70 C98 0.931 . S
H71 C101 0.929 . S
H72 C105 0.932 . S
H73 C102 0.931 . S
H74 C104 0.929 1_545 S
H75 C107 0.929 . S
H76 C108 0.930 . S
H77 C110 0.929 . S
H78 C111 0.931 . S
H79 C113 0.930 . S
H80 C114 0.932 . S
H81 C116 0.931 . S
H82 C117 0.929 . S
H83 C119 0.929 . S
H84 C120 0.931 . S
H85 C122 0.929 . S
N86 C106 1.433 . S
N86 C112 1.435 . S
N86 C118 1.423 . S
H87 C123 0.932 . S
C88 N63 1.433 . S
C88 C89 1.363 . S
C88 C93 1.370 . S
C89 H62 0.929 . S
C89 C88 1.363 . S
C89 C90 1.385 . S
C90 H64 0.930 . S
C90 C89 1.385 . S
C90 C91 1.357 . S
C91 C90 1.357 . S
C91 C92 1.406 . S
C92 H66 0.929 . S
C92 C91 1.406 . S
C92 C93 1.391 . S
C93 H65 0.931 . S
C93 C88 1.370 . S
C93 C92 1.391 . S
C94 N63 1.435 . S
C94 C95 1.358 . S
C94 C99 1.371 . S
C95 H67 0.930 . S
C95 C94 1.358 . S
C95 C96 1.405 . S
C96 H68 0.932 . S
C96 C95 1.405 . S
C96 C97 1.383 . S
C97 C96 1.383 . S
C97 C98 1.393 . S
C98 H70 0.931 . S
C98 C97 1.393 . S
C98 C99 1.382 . S
C99 H69 0.929 . S
C99 C94 1.371 . S
C99 C98 1.382 . S
C100 N63 1.423 . S
C100 C101 1.362 . S
C100 C105 1.388 . S
C101 H71 0.929 . S
C101 C100 1.362 . S
C101 C102 1.376 . S
C102 H73 0.931 . S
C102 C101 1.376 . S
C102 C103 1.396 1_565 S
C103 C102 1.396 1_545 S
C103 C104 1.348 1_545 S
C103 C121 1.472 . S
C104 H74 0.929 1_565 S
C104 C103 1.348 1_565 S
C104 C105 1.443 . S
C105 H72 0.932 . S
C105 C100 1.388 . S
C105 C104 1.443 . S
C106 N86 1.433 . S
C106 C107 1.363 . S
C106 C111 1.370 . S
C107 H75 0.929 . S
C107 C106 1.363 . S
C107 C108 1.385 . S
C108 H76 0.930 . S
C108 C107 1.385 . S
C108 C109 1.357 . S
C109 C108 1.357 . S
C109 C110 1.406 . S
C110 H77 0.929 . S
C110 C109 1.406 . S
C110 C111 1.391 . S
C111 H78 0.931 . S
C111 C106 1.370 . S
C111 C110 1.391 . S
C112 N86 1.435 . S
C112 C113 1.358 . S
C112 C117 1.371 . S
C113 H79 0.930 . S
C113 C112 1.358 . S
C113 C114 1.405 . S
C114 H80 0.932 . S
C114 C113 1.405 . S
C114 C115 1.383 . S
C115 C114 1.383 . S
C115 C116 1.393 . S
C116 H81 0.931 . S
C116 C115 1.393 . S
C116 C117 1.382 . S
C117 H82 0.929 . S
C117 C112 1.371 . S
C117 C116 1.382 . S
C118 N86 1.423 . S
C118 C119 1.362 . S
C118 C123 1.388 . S
C119 H83 0.929 . S
C119 C118 1.362 . S
C119 C120 1.376 . S
C120 H84 0.931 . S
C120 C119 1.376 . S
C120 C121 1.396 . S
C121 C103 1.472 . S
C121 C120 1.396 . S
C121 C122 1.348 . S
C122 H85 0.929 . S
C122 C121 1.348 . S
C122 C123 1.443 . S
C123 H87 0.932 . S
C123 C118 1.388 . S
C123 C122 1.443 . S
H124 C151 0.929 . S
N125 C150 1.433 . S
N125 C156 1.435 . S
N125 C162 1.423 . S
H126 C152 0.930 . S
H127 C155 0.931 . S
H128 C154 0.929 . S
H129 C157 0.930 . S
H130 C158 0.932 . S
H131 C161 0.929 . S
H132 C160 0.931 . S
H133 C163 0.929 . S
H134 C167 0.932 . S
H135 C164 0.931 . S
H136 C166 0.929 . S
H137 C169 0.929 . S
H138 C170 0.930 . S
H139 C172 0.929 . S
H140 C173 0.931 . S
H141 C175 0.930 . S
H142 C176 0.932 . S
H143 C178 0.931 . S
H144 C179 0.929 . S
H145 C181 0.929 . S
H146 C182 0.931 . S
H147 C184 0.929 . S
N148 C168 1.433 . S
N148 C174 1.435 . S
N148 C180 1.423 . S
H149 C185 0.932 . S
C150 N125 1.433 . S
C150 C151 1.363 . S
C150 C155 1.370 . S
C151 H124 0.929 . S
C151 C150 1.363 . S
C151 C152 1.385 . S
C152 H126 0.930 . S
C152 C151 1.385 . S
C152 C153 1.357 . S
C153 C152 1.357 . S
C153 C154 1.406 . S
C154 H128 0.929 . S
C154 C153 1.406 . S
C154 C155 1.391 . S
C155 H127 0.931 . S
C155 C150 1.370 . S
C155 C154 1.391 . S
C156 N125 1.435 . S
C156 C157 1.358 . S
C156 C161 1.371 . S
C157 H129 0.930 . S
C157 C156 1.358 . S
C157 C158 1.405 . S
C158 H130 0.932 . S
C158 C157 1.405 . S
C158 C159 1.383 . S
C159 C158 1.383 . S
C159 C160 1.393 . S
C160 H132 0.931 . S
C160 C159 1.393 . S
C160 C161 1.382 . S
C161 H131 0.929 . S
C161 C156 1.371 . S
C161 C160 1.382 . S
C162 N125 1.423 . S
C162 C163 1.362 . S
C162 C167 1.388 . S
C163 H133 0.929 . S
C163 C162 1.362 . S
C163 C164 1.376 . S
C164 H135 0.931 . S
C164 C163 1.376 . S
C164 C165 1.396 . S
C165 C164 1.396 . S
C165 C166 1.348 . S
C165 C183 1.472 . S
C166 H136 0.929 . S
C166 C165 1.348 . S
C166 C167 1.443 . S
C167 H134 0.932 . S
C167 C162 1.388 . S
C167 C166 1.443 . S
C168 N148 1.433 . S
C168 C169 1.363 . S
C168 C173 1.370 . S
C169 H137 0.929 . S
C169 C168 1.363 . S
C169 C170 1.385 . S
C170 H138 0.930 . S
C170 C169 1.385 . S
C170 C171 1.357 . S
C171 C170 1.357 . S
C171 C172 1.406 . S
C172 H139 0.929 . S
C172 C171 1.406 . S
C172 C173 1.391 . S
C173 H140 0.931 . S
C173 C168 1.370 . S
C173 C172 1.391 . S
C174 N148 1.435 . S
C174 C175 1.358 . S
C174 C179 1.371 . S
C175 H141 0.930 . S
C175 C174 1.358 . S
C175 C176 1.405 . S
C176 H142 0.932 . S
C176 C175 1.405 . S
C176 C177 1.383 . S
C177 C176 1.383 . S
C177 C178 1.393 . S
C178 H143 0.931 . S
C178 C177 1.393 . S
C178 C179 1.382 . S
C179 H144 0.929 . S
C179 C174 1.371 . S
C179 C178 1.382 . S
C180 N148 1.423 . S
C180 C181 1.362 . S
C180 C185 1.388 . S
C181 H145 0.929 . S
C181 C180 1.362 . S
C181 C182 1.376 . S
C182 H146 0.931 . S
C182 C181 1.376 . S
C182 C183 1.396 . S
C183 C165 1.472 . S
C183 C182 1.396 . S
C183 C184 1.348 . S
C184 H147 0.929 . S
C184 C183 1.348 . S
C184 C185 1.443 . S
C185 H149 0.932 . S
C185 C180 1.388 . S
C185 C184 1.443 . S
H186 C213 0.929 . S
N187 C212 1.433 . S
N187 C218 1.435 . S
N187 C224 1.423 . S
H188 C214 0.930 . S
H189 C217 0.931 . S
H190 C216 0.929 . S
H191 C219 0.930 . S
H192 C220 0.932 . S
H193 C223 0.929 . S
H194 C222 0.931 . S
H195 C225 0.929 . S
H196 C229 0.932 . S
H197 C226 0.931 . S
H198 C228 0.929 . S
H199 C231 0.929 . S
H200 C232 0.930 . S
H201 C234 0.929 . S
H202 C235 0.931 . S
H203 C237 0.930 . S
H204 C238 0.932 . S
H205 C240 0.931 . S
H206 C241 0.929 . S
H207 C243 0.929 . S
H208 C244 0.931 . S
H209 C246 0.929 . S
N210 C230 1.433 . S
N210 C236 1.435 . S
N210 C242 1.423 . S
H211 C247 0.932 . S
C212 N187 1.433 . S
C212 C213 1.363 . S
C212 C217 1.370 . S
C213 H186 0.929 . S
C213 C212 1.363 . S
C213 C214 1.385 . S
C214 H188 0.930 . S
C214 C213 1.385 . S
C214 C215 1.357 . S
C215 C214 1.357 . S
C215 C216 1.406 . S
C216 H190 0.929 . S
C216 C215 1.406 . S
C216 C217 1.391 . S
C217 H189 0.931 . S
C217 C212 1.370 . S
C217 C216 1.391 . S
C218 N187 1.435 . S
C218 C219 1.358 . S
C218 C223 1.371 . S
C219 H191 0.930 . S
C219 C218 1.358 . S
C219 C220 1.405 . S
C220 H192 0.932 . S
C220 C219 1.405 . S
C220 C221 1.383 . S
C221 C220 1.383 . S
C221 C222 1.393 . S
C222 H194 0.931 . S
C222 C221 1.393 . S
C222 C223 1.382 . S
C223 H193 0.929 . S
C223 C218 1.371 . S
C223 C222 1.382 . S
C224 N187 1.423 . S
C224 C225 1.362 . S
C224 C229 1.388 . S
C225 H195 0.929 . S
C225 C224 1.362 . S
C225 C226 1.376 . S
C226 H197 0.931 . S
C226 C225 1.376 . S
C226 C227 1.396 . S
C227 C226 1.396 . S
C227 C228 1.348 . S
C227 C245 1.472 1_455 S
C228 H198 0.929 . S
C228 C227 1.348 . S
C228 C229 1.443 . S
C229 H196 0.932 . S
C229 C224 1.388 . S
C229 C228 1.443 . S
C230 N210 1.433 . S
C230 C231 1.363 . S
C230 C235 1.370 . S
C231 H199 0.929 . S
C231 C230 1.363 . S
C231 C232 1.385 . S
C232 H200 0.930 . S
C232 C231 1.385 . S
C232 C233 1.357 . S
C233 C232 1.357 . S
C233 C234 1.406 . S
C234 H201 0.929 . S
C234 C233 1.406 . S
C234 C235 1.391 . S
C235 H202 0.931 . S
C235 C230 1.370 . S
C235 C234 1.391 . S
C236 N210 1.435 . S
C236 C237 1.358 . S
C236 C241 1.371 . S
C237 H203 0.930 . S
C237 C236 1.358 . S
C237 C238 1.405 . S
C238 H204 0.932 . S
C238 C237 1.405 . S
C238 C239 1.383 . S
C239 C238 1.383 . S
C239 C240 1.393 . S
C240 H205 0.931 . S
C240 C239 1.393 . S
C240 C241 1.382 . S
C241 H206 0.929 . S
C241 C236 1.371 . S
C241 C240 1.382 . S
C242 N210 1.423 . S
C242 C243 1.362 . S
C242 C247 1.388 . S
C243 H207 0.929 . S
C243 C242 1.362 . S
C243 C244 1.376 . S
C244 H208 0.931 . S
C244 C243 1.376 . S
C244 C245 1.396 . S
C245 C227 1.472 1_655 S
C245 C244 1.396 . S
C245 C246 1.348 . S
C246 H209 0.929 . S
C246 C245 1.348 . S
C246 C247 1.443 . S
C247 H211 0.932 . S
C247 C242 1.388 . S
C247 C246 1.443 . S
H248 C275 0.929 . S
N249 C274 1.433 . S
N249 C280 1.435 . S
N249 C286 1.423 . S
H250 C276 0.930 . S
H251 C279 0.931 . S
H252 C278 0.929 . S
H253 C281 0.930 . S
H254 C282 0.932 . S
H255 C285 0.929 . S
H256 C284 0.931 . S
H257 C287 0.929 . S
H258 C291 0.932 . S
H259 C288 0.931 . S
H260 C290 0.929 . S
H261 C293 0.929 . S
H262 C294 0.930 . S
H263 C296 0.929 . S
H264 C297 0.931 . S
H265 C299 0.901 1_554 S
H266 C300 0.932 . S
H267 C302 0.931 . S
H268 C303 0.929 . S
H269 C305 0.929 . S
H270 C306 0.931 1_554 S
H271 C308 0.929 . S
N272 C292 1.433 . S
N272 C298 1.435 1_554 S
N272 C304 1.423 1_554 S
H273 C309 0.932 . S
C274 N249 1.433 . S
C274 C275 1.363 . S
C274 C279 1.370 . S
C275 H248 0.929 . S
C275 C274 1.363 . S
C275 C276 1.385 . S
C276 H250 0.930 . S
C276 C275 1.385 . S
C276 C277 1.357 1_556 S
C277 C276 1.357 1_554 S
C277 C278 1.406 . S
C278 H252 0.929 . S
C278 C277 1.406 . S
C278 C279 1.391 1_554 S
C279 H251 0.931 . S
C279 C274 1.370 . S
C279 C278 1.391 1_556 S
C280 N249 1.435 . S
C280 C281 1.358 . S
C280 C285 1.371 . S
C281 H253 0.930 . S
C281 C280 1.358 . S
C281 C282 1.405 . S
C282 H254 0.932 . S
C282 C281 1.405 . S
C282 C283 1.383 . S
C283 C282 1.383 . S
C283 C284 1.393 . S
C284 H256 0.931 . S
C284 C283 1.393 . S
C284 C285 1.382 . S
C285 H255 0.929 . S
C285 C280 1.371 . S
C285 C284 1.382 . S
C286 N249 1.423 . S
C286 C287 1.362 . S
C286 C291 1.388 . S
C287 H257 0.929 . S
C287 C286 1.362 . S
C287 C288 1.376 . S
C288 H259 0.931 . S
C288 C287 1.376 . S
C288 C289 1.396 . S
C289 C288 1.396 . S
C289 C290 1.348 . S
C289 C307 1.472 1_545 S
C290 H260 0.929 . S
C290 C289 1.348 . S
C290 C291 1.443 . S
C291 H258 0.932 . S
C291 C286 1.388 . S
C291 C290 1.443 . S
C292 N272 1.433 . S
C292 C293 1.363 . S
C292 C297 1.370 . S
C293 H261 0.929 . S
C293 C292 1.363 . S
C293 C294 1.385 . S
C294 H262 0.930 . S
C294 C293 1.385 . S
C294 C295 1.357 . S
C295 C294 1.357 . S
C295 C296 1.406 . S
C296 H263 0.929 . S
C296 C295 1.406 . S
C296 C297 1.391 . S
C297 H264 0.931 . S
C297 C292 1.370 . S
C297 C296 1.391 . S
C298 N272 1.435 1_556 S
C298 C299 1.369 . S
C298 C303 1.371 . S
C299 H265 0.901 1_556 S
C299 C298 1.369 . S
C299 C300 1.425 . S
C300 H266 0.932 . S
C300 C299 1.425 . S
C300 C301 1.383 . S
C301 C300 1.383 . S
C301 C302 1.393 . S
C302 H267 0.931 . S
C302 C301 1.393 . S
C302 C303 1.382 . S
C303 H268 0.929 . S
C303 C298 1.371 . S
C303 C302 1.382 . S
C304 N272 1.423 1_556 S
C304 C305 1.362 1_556 S
C304 C309 1.388 . S
C305 H269 0.929 . S
C305 C304 1.362 1_554 S
C305 C306 1.376 1_554 S
C306 H270 0.931 1_556 S
C306 C305 1.376 1_556 S
C306 C307 1.396 . S
C307 C289 1.472 1_565 S
C307 C306 1.396 . S
C307 C308 1.348 . S
C308 H271 0.929 . S
C308 C307 1.348 . S
C308 C309 1.443 . S
C309 H273 0.932 . S
C309 C304 1.388 . S
C309 C308 1.443 . S
H310 C337 0.929 . S
N311 C336 1.433 . S
N311 C342 1.435 . S
N311 C348 1.423 . S
H312 C338 0.930 . S
H313 C341 0.931 . S
H314 C340 0.929 . S
H315 C343 0.930 . S
H316 C344 0.932 . S
H317 C347 0.929 . S
H318 C346 0.931 . S
H319 C349 0.929 . S
H320 C353 0.932 . S
H321 C350 0.931 . S
H322 C352 0.929 . S
H323 C355 0.929 . S
H324 C356 0.930 . S
H325 C358 0.929 . S
H326 C359 0.931 . S
H327 C361 0.930 . S
H328 C362 0.932 . S
H329 C364 0.931 . S
H330 C365 0.929 . S
H331 C367 0.929 . S
H332 C368 0.931 . S
H333 C370 0.929 . S
N334 C354 1.433 . S
N334 C360 1.435 . S
N334 C366 1.423 . S
H335 C371 0.932 . S
C336 N311 1.433 . S
C336 C337 1.363 . S
C336 C341 1.370 . S
C337 H310 0.929 . S
C337 C336 1.363 . S
C337 C338 1.385 . S
C338 H312 0.930 . S
C338 C337 1.385 . S
C338 C339 1.357 . S
C339 C338 1.357 . S
C339 C340 1.406 . S
C340 H314 0.929 . S
C340 C339 1.406 . S
C340 C341 1.391 . S
C341 H313 0.931 . S
C341 C336 1.370 . S
C341 C340 1.391 . S
C342 N311 1.435 . S
C342 C343 1.358 . S
C342 C347 1.371 . S
C343 H315 0.930 . S
C343 C342 1.358 . S
C343 C344 1.405 . S
C344 H316 0.932 . S
C344 C343 1.405 . S
C344 C345 1.383 . S
C345 C344 1.383 . S
C345 C346 1.393 . S
C346 H318 0.931 . S
C346 C345 1.393 . S
C346 C347 1.382 . S
C347 H317 0.929 . S
C347 C342 1.371 . S
C347 C346 1.382 . S
C348 N311 1.423 . S
C348 C349 1.362 . S
C348 C353 1.388 . S
C349 H319 0.929 . S
C349 C348 1.362 . S
C349 C350 1.376 . S
C350 H321 0.931 . S
C350 C349 1.376 . S
C350 C351 1.396 . S
C351 C350 1.396 . S
C351 C352 1.348 . S
C351 C369 1.472 . S
C352 H322 0.929 . S
C352 C351 1.348 . S
C352 C353 1.443 . S
C353 H320 0.932 . S
C353 C348 1.388 . S
C353 C352 1.443 . S
C354 N334 1.433 . S
C354 C355 1.363 . S
C354 C359 1.370 . S
C355 H323 0.929 . S
C355 C354 1.363 . S
C355 C356 1.385 . S
C356 H324 0.930 . S
C356 C355 1.385 . S
C356 C357 1.357 . S
C357 C356 1.357 . S
C357 C358 1.406 . S
C358 H325 0.929 . S
C358 C357 1.406 . S
C358 C359 1.391 . S
C359 H326 0.931 . S
C359 C354 1.370 . S
C359 C358 1.391 . S
C360 N334 1.435 . S
C360 C361 1.358 . S
C360 C365 1.371 . S
C361 H327 0.930 . S
C361 C360 1.358 . S
C361 C362 1.405 . S
C362 H328 0.932 . S
C362 C361 1.405 . S
C362 C363 1.383 . S
C363 C362 1.383 . S
C363 C364 1.393 . S
C364 H329 0.931 . S
C364 C363 1.393 . S
C364 C365 1.382 . S
C365 H330 0.929 . S
C365 C360 1.371 . S
C365 C364 1.382 . S
C366 N334 1.423 . S
C366 C367 1.362 . S
C366 C371 1.388 . S
C367 H331 0.929 . S
C367 C366 1.362 . S
C367 C368 1.376 . S
C368 H332 0.931 . S
C368 C367 1.376 . S
C368 C369 1.396 . S
C369 C351 1.472 . S
C369 C368 1.396 . S
C369 C370 1.348 . S
C370 H333 0.929 . S
C370 C369 1.348 . S
C370 C371 1.443 . S
C371 H335 0.932 . S
C371 C366 1.388 . S
C371 C370 1.443 . S
Co372 O373 2.216 . S
Co372 O374 2.091 . S
Co372 O376 2.004 . S
Co372 O382 2.021 . S
Co372 O384 2.137 . S
Co372 O385 2.244 . S
O373 Co372 2.216 . S
O373 C380 1.247 . S
O374 Co372 2.091 . S
O374 C380 1.261 . S
C375 O384 1.247 . S
C375 O385 1.272 . S
O376 Co372 2.004 . S
O376 C381 1.259 . S
Co377 O378 2.061 . S
Co377 O383 2.052 . S
Co377 O385 2.135 . S
O378 Co377 2.061 . S
O378 C381 1.235 . S
C379 O382 1.238 . S
C379 O383 1.241 . S
C380 O373 1.247 . S
C380 O374 1.261 . S
C381 O376 1.259 . S
C381 O378 1.235 . S
O382 Co372 2.021 . S
O382 C379 1.238 . S
O383 Co377 2.052 . S
O383 C379 1.241 . S
O384 Co372 2.137 . S
O384 C375 1.247 . S
O385 Co372 2.244 . S
O385 C375 1.272 . S
O385 Co377 2.135 . S
Co386 O387 2.216 . S
Co386 O388 2.091 . S
Co386 O390 2.004 . S
Co386 O396 2.021 . S
Co386 O398 2.137 . S
Co386 O399 2.244 . S
O387 Co386 2.216 . S
O387 C394 1.247 . S
O388 Co386 2.091 . S
O388 C394 1.261 . S
C389 O398 1.247 . S
C389 O399 1.272 . S
O390 Co386 2.004 . S
O390 C395 1.259 . S
Co391 O392 2.061 . S
Co391 O397 2.052 . S
Co391 O399 2.135 . S
O392 Co391 2.061 . S
O392 C395 1.235 . S
C393 O396 1.238 . S
C393 O397 1.241 . S
C394 O387 1.247 . S
C394 O388 1.261 . S
C395 O390 1.259 . S
C395 O392 1.235 . S
O396 Co386 2.021 . S
O396 C393 1.238 . S
O397 Co391 2.052 . S
O397 C393 1.241 . S
O398 Co386 2.137 . S
O398 C389 1.247 . S
O399 Co386 2.244 . S
O399 C389 1.272 . S
O399 Co391 2.135 . S
Co400 O401 2.216 . S
Co400 O402 2.091 . S
Co400 O404 2.004 . S
Co400 O410 2.021 . S
Co400 O412 2.137 . S
Co400 O413 2.244 . S
O401 Co400 2.216 . S
O401 C408 1.247 . S
O402 Co400 2.091 . S
O402 C408 1.261 . S
C403 O412 1.247 . S
C403 O413 1.272 . S
O404 Co400 2.004 . S
O404 C409 1.259 . S
Co405 O406 2.061 . S
Co405 O411 2.052 . S
Co405 O413 2.135 . S
O406 Co405 2.061 . S
O406 C409 1.235 . S
C407 O410 1.238 . S
C407 O411 1.241 . S
C408 O401 1.247 . S
C408 O402 1.261 . S
C409 O404 1.259 . S
C409 O406 1.235 . S
O410 Co400 2.021 . S
O410 C407 1.238 . S
O411 Co405 2.052 . S
O411 C407 1.241 . S
O412 Co400 2.137 . S
O412 C403 1.247 . S
O413 Co400 2.244 . S
O413 C403 1.272 . S
O413 Co405 2.135 . S
Co414 O415 2.216 . S
Co414 O416 2.091 . S
Co414 O418 2.004 . S
Co414 O424 2.021 . S
Co414 O426 2.137 . S
Co414 O427 2.244 . S
O415 Co414 2.216 . S
O415 C422 1.247 . S
O416 Co414 2.091 . S
O416 C422 1.261 . S
C417 O426 1.247 . S
C417 O427 1.272 . S
O418 Co414 2.004 . S
O418 C423 1.259 . S
Co419 O420 2.061 . S
Co419 O425 2.052 . S
Co419 O427 2.135 . S
O420 Co419 2.061 . S
O420 C423 1.235 . S
C421 O424 1.238 . S
C421 O425 1.241 . S
C422 O415 1.247 . S
C422 O416 1.261 . S
C423 O418 1.259 . S
C423 O420 1.235 . S
O424 Co414 2.021 . S
O424 C421 1.238 . S
O425 Co419 2.052 . S
O425 C421 1.241 . S
O426 Co414 2.137 . S
O426 C417 1.247 . S
O427 Co414 2.244 . S
O427 C417 1.272 . S
O427 Co419 2.135 . S
Co428 O429 2.216 . S
Co428 O430 2.091 . S
Co428 O432 2.004 . S
Co428 O438 2.021 . S
Co428 O440 2.137 . S
Co428 O441 2.244 . S
O429 Co428 2.216 . S
O429 C436 1.247 . S
O430 Co428 2.091 . S
O430 C436 1.261 . S
C431 O440 1.247 . S
C431 O441 1.272 . S
O432 Co428 2.004 . S
O432 C437 1.259 . S
Co433 O434 2.061 . S
Co433 O439 2.052 . S
Co433 O441 2.135 . S
O434 Co433 2.061 . S
O434 C437 1.235 . S
C435 O438 1.238 . S
C435 O439 1.241 . S
C436 O429 1.247 . S
C436 O430 1.261 . S
C437 O432 1.259 . S
C437 O434 1.235 . S
O438 Co428 2.021 . S
O438 C435 1.238 . S
O439 Co433 2.052 . S
O439 C435 1.241 . S
O440 Co428 2.137 . S
O440 C431 1.247 . S
O441 Co428 2.244 . S
O441 C431 1.272 . S
O441 Co433 2.135 . S
Co442 O443 2.216 . S
Co442 O444 2.091 . S
Co442 O446 2.004 . S
Co442 O452 2.021 . S
Co442 O454 2.137 . S
Co442 O455 2.244 . S
O443 Co442 2.216 . S
O443 C450 1.247 . S
O444 Co442 2.091 . S
O444 C450 1.261 . S
C445 O454 1.247 . S
C445 O455 1.272 . S
O446 Co442 2.004 . S
O446 C451 1.259 . S
Co447 O448 2.061 . S
Co447 O453 2.052 . S
Co447 O455 2.135 . S
O448 Co447 2.061 . S
O448 C451 1.235 . S
C449 O452 1.238 . S
C449 O453 1.241 . S
C450 O443 1.247 . S
C450 O444 1.261 . S
C451 O446 1.259 . S
C451 O448 1.235 . S
O452 Co442 2.021 . S
O452 C449 1.238 . S
O453 Co447 2.052 . S
O453 C449 1.241 . S
O454 Co442 2.137 . S
O454 C445 1.247 . S
O455 Co442 2.244 . S
O455 C445 1.272 . S
O455 Co447 2.135 . S
C456 C457 1.369 . S
C456 C458 1.419 . S
C456 H460 0.930 . S
C457 C456 1.369 . S
C457 C466 1.429 . S
C458 C456 1.419 . S
C458 C459 1.363 . S
C458 H461 0.929 . S
C459 C458 1.363 . S
C459 C465 1.428 . S
H460 C456 0.930 . S
H461 C458 0.929 . S
S462 N463 1.613 . S
S462 N464 1.610 . S
N463 S462 1.613 . S
N463 C466 1.350 . S
N464 S462 1.610 . S
N464 C465 1.351 . S
C465 C459 1.428 . S
C465 N464 1.351 . S
C465 C466 1.434 . S
C466 C457 1.429 . S
C466 N463 1.350 . S
C466 C465 1.434 . S
C467 C468 1.369 . S
C467 C469 1.419 . S
C467 H471 0.930 . S
C468 C467 1.369 . S
C468 C477 1.429 . S
C469 C467 1.419 . S
C469 C470 1.363 . S
C469 H472 0.929 . S
C470 C469 1.363 . S
C470 C476 1.428 . S
H471 C467 0.930 . S
H472 C469 0.929 . S
S473 N474 1.613 . S
S473 N475 1.610 . S
N474 S473 1.613 . S
N474 C477 1.350 . S
N475 S473 1.610 . S
N475 C476 1.351 . S
C476 C470 1.428 . S
C476 N475 1.351 . S
C476 C477 1.434 . S
C477 C468 1.429 . S
C477 N474 1.350 . S
C477 C476 1.434 . S
C478 C479 1.369 . S
C478 C480 1.419 . S
C478 H482 0.930 . S
C479 C478 1.369 . S
C479 C488 1.429 . S
C480 C478 1.419 . S
C480 C481 1.363 . S
C480 H483 0.929 . S
C481 C480 1.363 . S
C481 C487 1.428 . S
H482 C478 0.930 . S
H483 C480 0.929 . S
S484 N485 1.613 . S
S484 N486 1.610 . S
N485 S484 1.613 . S
N485 C488 1.350 . S
N486 S484 1.610 . S
N486 C487 1.351 . S
C487 C481 1.428 . S
C487 N486 1.351 . S
C487 C488 1.434 . S
C488 C479 1.429 . S
C488 N485 1.350 . S
C488 C487 1.434 . S
C489 C490 1.369 . S
C489 C491 1.419 . S
C489 H493 0.930 . S
C490 C489 1.369 . S
C490 C499 1.429 . S
C491 C489 1.419 . S
C491 C492 1.363 . S
C491 H494 0.929 . S
C492 C491 1.363 . S
C492 C498 1.428 . S
H493 C489 0.930 . S
H494 C491 0.929 . S
S495 N496 1.613 . S
S495 N497 1.610 . S
N496 S495 1.613 . S
N496 C499 1.350 . S
N497 S495 1.610 . S
N497 C498 1.351 . S
C498 C492 1.428 . S
C498 N497 1.351 . S
C498 C499 1.434 . S
C499 C490 1.429 . S
C499 N496 1.350 . S
C499 C498 1.434 . S
C500 C501 1.369 . S
C500 C502 1.419 . S
C500 H504 0.930 . S
C501 C500 1.369 . S
C501 C510 1.429 . S
C502 C500 1.419 . S
C502 C503 1.363 . S
C502 H505 0.929 . S
C503 C502 1.363 . S
C503 C509 1.428 . S
H504 C500 0.930 . S
H505 C502 0.929 . S
S506 N507 1.613 1_554 S
S506 N508 1.610 1_554 S
N507 S506 1.613 1_556 S
N507 C510 1.350 . S
N508 S506 1.610 1_556 S
N508 C509 1.351 . S
C509 C503 1.428 . S
C509 N508 1.351 . S
C509 C510 1.434 . S
C510 C501 1.429 . S
C510 N507 1.350 . S
C510 C509 1.434 . S
C511 C512 1.369 . S
C511 C513 1.419 . S
C511 H515 0.930 . S
C512 C511 1.369 . S
C512 C521 1.429 . S
C513 C511 1.419 . S
C513 C514 1.363 . S
C513 H516 0.929 . S
C514 C513 1.363 . S
C514 C520 1.428 . S
H515 C511 0.930 . S
H516 C513 0.929 . S
S517 N518 1.613 . S
S517 N519 1.610 . S
N518 S517 1.613 . S
N518 C521 1.350 . S
N519 S517 1.610 . S
N519 C520 1.351 . S
C520 C514 1.428 . S
C520 N519 1.351 . S
C520 C521 1.434 . S
C521 C512 1.429 . S
C521 N518 1.350 . S
C521 C520 1.434 . S
C522 C523 1.369 . S
C522 C524 1.419 . S
C522 H526 0.930 . S
C523 C522 1.369 . S
C523 C532 1.429 . S
C524 C522 1.419 . S
C524 C525 1.363 . S
C524 H527 0.929 . S
C525 C524 1.363 . S
C525 C531 1.428 . S
H526 C522 0.930 . S
H527 C524 0.929 . S
S528 N529 1.613 . S
S528 N530 1.610 . S
N529 S528 1.613 . S
N529 C532 1.350 . S
N530 S528 1.610 . S
N530 C531 1.351 . S
C531 C525 1.428 . S
C531 N530 1.351 . S
C531 C532 1.434 . S
C532 C523 1.429 . S
C532 N529 1.350 . S
C532 C531 1.434 . S
C533 C534 1.369 . S
C533 C535 1.419 . S
C533 H537 0.930 . S
C534 C533 1.369 . S
C534 C543 1.429 . S
C535 C533 1.419 . S
C535 C536 1.363 . S
C535 H538 0.929 . S
C536 C535 1.363 . S
C536 C542 1.428 . S
H537 C533 0.930 . S
H538 C535 0.929 . S
S539 N540 1.613 . S
S539 N541 1.610 . S
N540 S539 1.613 . S
N540 C543 1.350 . S
N541 S539 1.610 . S
N541 C542 1.351 . S
C542 C536 1.428 . S
C542 N541 1.351 . S
C542 C543 1.434 . S
C543 C534 1.429 . S
C543 N540 1.350 . S
C543 C542 1.434 . S
C544 C545 1.369 . S
C544 C546 1.419 . S
C544 H548 0.930 . S
C545 C544 1.369 . S
C545 C554 1.429 . S
C546 C544 1.419 . S
C546 C547 1.363 . S
C546 H549 0.929 . S
C547 C546 1.363 . S
C547 C553 1.428 . S
H548 C544 0.930 . S
H549 C546 0.929 . S
S550 N551 1.613 . S
S550 N552 1.610 . S
N551 S550 1.613 . S
N551 C554 1.350 . S
N552 S550 1.610 . S
N552 C553 1.351 . S
C553 C547 1.428 . S
C553 N552 1.351 . S
C553 C554 1.434 . S
C554 C545 1.429 . S
C554 N551 1.350 . S
C554 C553 1.434 . S
C555 C556 1.369 . S
C555 C557 1.419 . S
C555 H559 0.930 . S
C556 C555 1.369 . S
C556 C565 1.429 . S
C557 C555 1.419 . S
C557 C558 1.363 . S
C557 H560 0.929 . S
C558 C557 1.363 . S
C558 C564 1.428 . S
H559 C555 0.930 . S
H560 C557 0.929 . S
S561 N562 1.613 . S
S561 N563 1.610 . S
N562 S561 1.613 . S
N562 C565 1.350 1_556 S
N563 S561 1.610 . S
N563 C564 1.351 1_556 S
C564 C558 1.428 . S
C564 N563 1.351 1_554 S
C564 C565 1.434 . S
C565 C556 1.429 . S
C565 N562 1.350 1_554 S
C565 C564 1.434 . S
C566 C567 1.369 . S
C566 C568 1.419 . S
C566 H570 0.930 . S
C567 C566 1.369 . S
C567 C576 1.429 . S
C568 C566 1.419 . S
C568 C569 1.363 . S
C568 H571 0.929 . S
C569 C568 1.363 . S
C569 C575 1.428 . S
H570 C566 0.930 . S
H571 C568 0.929 . S
S572 N573 1.613 . S
S572 N574 1.610 . S
N573 S572 1.613 . S
N573 C576 1.350 . S
N574 S572 1.610 . S
N574 C575 1.351 . S
C575 C569 1.428 . S
C575 N574 1.351 . S
C575 C576 1.434 . S
C576 C567 1.429 . S
C576 N573 1.350 . S
C576 C575 1.434 . S
C577 C578 1.369 . S
C577 C579 1.419 . S
C577 H581 0.930 . S
C578 C577 1.369 . S
C578 C587 1.429 . S
C579 C577 1.419 . S
C579 C580 1.363 . S
C579 H582 0.929 . S
C580 C579 1.363 . S
C580 C586 1.428 . S
H581 C577 0.930 . S
H582 C579 0.929 . S
S583 N584 1.613 . S
S583 N585 1.610 . S
N584 S583 1.613 . S
N584 C587 1.350 . S
N585 S583 1.610 . S
N585 C586 1.351 . S
C586 C580 1.428 . S
C586 N585 1.351 . S
C586 C587 1.434 . S
C587 C578 1.429 . S
C587 N584 1.350 . S
C587 C586 1.434 . S
C588 C589 1.369 . S
C588 C590 1.419 . S
C588 H592 0.930 . S
C589 C588 1.369 . S
C589 C598 1.429 . S
C590 C588 1.419 . S
C590 C591 1.363 . S
C590 H593 0.929 . S
C591 C590 1.363 . S
C591 C597 1.428 . S
H592 C588 0.930 . S
H593 C590 0.929 . S
S594 N595 1.613 . S
S594 N596 1.610 . S
N595 S594 1.613 . S
N595 C598 1.350 . S
N596 S594 1.610 . S
N596 C597 1.351 . S
C597 C591 1.428 . S
C597 N596 1.351 . S
C597 C598 1.434 . S
C598 C589 1.429 . S
C598 N595 1.350 . S
C598 C597 1.434 . S
C599 C600 1.369 . S
C599 C601 1.419 . S
C599 H603 0.930 . S
C600 C599 1.369 . S
C600 C609 1.429 . S
C601 C599 1.419 . S
C601 C602 1.363 . S
C601 H604 0.929 . S
C602 C601 1.363 . S
C602 C608 1.428 . S
H603 C599 0.930 . S
H604 C601 0.929 . S
S605 N606 1.613 . S
S605 N607 1.610 . S
N606 S605 1.613 . S
N606 C609 1.350 . S
N607 S605 1.610 . S
N607 C608 1.351 . S
C608 C602 1.428 . S
C608 N607 1.351 . S
C608 C609 1.434 . S
C609 C600 1.429 . S
C609 N606 1.350 . S
C609 C608 1.434 . S
C610 C611 1.369 . S
C610 C612 1.419 . S
C610 H614 0.930 . S
C611 C610 1.369 . S
C611 C620 1.429 . S
C612 C610 1.419 . S
C612 C613 1.363 . S
C612 H615 0.929 . S
C613 C612 1.363 . S
C613 C619 1.428 . S
H614 C610 0.930 . S
H615 C612 0.929 . S
S616 N617 1.613 . S
S616 N618 1.610 . S
N617 S616 1.613 . S
N617 C620 1.350 . S
N618 S616 1.610 . S
N618 C619 1.351 . S
C619 C613 1.428 . S
C619 N618 1.351 . S
C619 C620 1.434 . S
C620 C611 1.429 . S
C620 N617 1.350 . S
C620 C619 1.434 . S
C621 C622 1.369 . S
C621 C623 1.419 . S
C621 H625 0.930 . S
C622 C621 1.369 . S
C622 C631 1.429 . S
C623 C621 1.419 . S
C623 C624 1.363 . S
C623 H626 0.929 . S
C624 C623 1.363 . S
C624 C630 1.428 . S
H625 C621 0.930 . S
H626 C623 0.929 . S
S627 N628 1.613 . S
S627 N629 1.610 . S
N628 S627 1.613 . S
N628 C631 1.350 . S
N629 S627 1.610 . S
N629 C630 1.351 . S
C630 C624 1.428 . S
C630 N629 1.351 . S
C630 C631 1.434 . S
C631 C622 1.429 . S
C631 N628 1.350 . S
C631 C630 1.434 . S
C632 C633 1.369 . S
C632 C634 1.419 . S
C632 H636 0.930 . S
C633 C632 1.369 . S
C633 C642 1.429 . S
C634 C632 1.419 . S
C634 C635 1.363 . S
C634 H637 0.929 . S
C635 C634 1.363 . S
C635 C641 1.428 . S
H636 C632 0.930 . S
H637 C634 0.929 . S
S638 N639 1.613 . S
S638 N640 1.610 . S
N639 S638 1.613 . S
N639 C642 1.350 . S
N640 S638 1.610 . S
N640 C641 1.351 . S
C641 C635 1.428 . S
C641 N640 1.351 . S
C641 C642 1.434 . S
C642 C633 1.429 . S
C642 N639 1.350 . S
C642 C641 1.434 . S
C643 C644 1.369 . S
C643 C645 1.419 . S
C643 H647 0.930 . S
C644 C643 1.369 . S
C644 C653 1.429 . S
C645 C643 1.419 . S
C645 C646 1.363 . S
C645 H648 0.929 . S
C646 C645 1.363 . S
C646 C652 1.428 . S
H647 C643 0.930 . S
H648 C645 0.929 . S
S649 N650 1.613 . S
S649 N651 1.610 . S
N650 S649 1.613 . S
N650 C653 1.350 . S
N651 S649 1.610 . S
N651 C652 1.351 . S
C652 C646 1.428 . S
C652 N651 1.351 . S
C652 C653 1.434 . S
C653 C644 1.429 . S
C653 N650 1.350 . S
C653 C652 1.434 . S
C654 C655 1.369 . S
C654 C656 1.419 . S
C654 H658 0.930 . S
C655 C654 1.369 . S
C655 C664 1.429 . S
C656 C654 1.419 . S
C656 C657 1.363 . S
C656 H659 0.929 . S
C657 C656 1.363 . S
C657 C663 1.428 . S
H658 C654 0.930 . S
H659 C656 0.929 . S
S660 N661 1.613 . S
S660 N662 1.610 . S
N661 S660 1.613 . S
N661 C664 1.350 . S
N662 S660 1.610 . S
N662 C663 1.351 . S
C663 C657 1.428 . S
C663 N662 1.351 . S
C663 C664 1.434 . S
C664 C655 1.429 . S
C664 N661 1.350 . S
C664 C663 1.434 . S
C665 C666 1.369 . S
C665 C667 1.419 . S
C665 H669 0.930 . S
C666 C665 1.369 . S
C666 C675 1.429 . S
C667 C665 1.419 . S
C667 C668 1.363 . S
C667 H670 0.929 . S
C668 C667 1.363 . S
C668 C674 1.428 . S
H669 C665 0.930 . S
H670 C667 0.929 . S
S671 N672 1.613 . S
S671 N673 1.610 . S
N672 S671 1.613 . S
N672 C675 1.350 . S
N673 S671 1.610 . S
N673 C674 1.351 . S
C674 C668 1.428 . S
C674 N673 1.351 . S
C674 C675 1.434 . S
C675 C666 1.429 . S
C675 N672 1.350 . S
C675 C674 1.434 . S
C676 C677 1.369 . S
C676 C678 1.419 . S
C676 H680 0.930 . S
C677 C676 1.369 . S
C677 C686 1.429 . S
C678 C676 1.419 . S
C678 C679 1.363 . S
C678 H681 0.929 . S
C679 C678 1.363 . S
C679 C685 1.428 . S
H680 C676 0.930 . S
H681 C678 0.929 . S
S682 N683 1.613 . S
S682 N684 1.610 . S
N683 S682 1.613 . S
N683 C686 1.350 . S
N684 S682 1.610 . S
N684 C685 1.351 . S
C685 C679 1.428 . S
C685 N684 1.351 . S
C685 C686 1.434 . S
C686 C677 1.429 . S
C686 N683 1.350 . S
C686 C685 1.434 . S
C687 C688 1.369 . S
C687 C689 1.419 . S
C687 H691 0.930 . S
C688 C687 1.369 . S
C688 C697 1.429 . S
C689 C687 1.419 . S
C689 C690 1.363 . S
C689 H692 0.929 . S
C690 C689 1.363 . S
C690 C696 1.428 . S
H691 C687 0.930 . S
H692 C689 0.929 . S
S693 N694 1.613 . S
S693 N695 1.610 . S
N694 S693 1.613 . S
N694 C697 1.350 . S
N695 S693 1.610 . S
N695 C696 1.351 . S
C696 C690 1.428 . S
C696 N695 1.351 . S
C696 C697 1.434 . S
C697 C688 1.429 . S
C697 N694 1.350 . S
C697 C696 1.434 . S
C698 C699 1.369 1_556 S
C698 C700 1.419 . S
C698 H702 0.930 . S
C699 C698 1.369 1_554 S
C699 C708 1.429 . S
C700 C698 1.419 . S
C700 C701 1.363 . S
C700 H703 0.929 . S
C701 C700 1.363 . S
C701 C707 1.428 . S
H702 C698 0.930 . S
H703 C700 0.929 . S
S704 N705 1.613 . S
S704 N706 1.610 1_554 S
N705 S704 1.613 . S
N705 C708 1.350 . S
N706 S704 1.610 1_556 S
N706 C707 1.351 . S
C707 C701 1.428 . S
C707 N706 1.351 . S
C707 C708 1.434 1_556 S
C708 C699 1.429 . S
C708 N705 1.350 . S
C708 C707 1.434 1_554 S
C709 C710 1.369 . S
C709 C711 1.419 . S
C709 H713 0.930 . S
C710 C709 1.369 . S
C710 C719 1.429 . S
C711 C709 1.419 . S
C711 C712 1.363 . S
C711 H714 0.929 . S
C712 C711 1.363 . S
C712 C718 1.428 . S
H713 C709 0.930 . S
H714 C711 0.929 . S
S715 N716 1.613 . S
S715 N717 1.610 . S
N716 S715 1.613 . S
N716 C719 1.350 . S
N717 S715 1.610 . S
N717 C718 1.351 . S
C718 C712 1.428 . S
C718 N717 1.351 . S
C718 C719 1.434 . S
C719 C710 1.429 . S
C719 N716 1.350 . S
C719 C718 1.434 . S
C459 C445 1.690 . S
C457 C29 1.590 . S
C468 C115 1.581 . S
C470 C375 1.576 . S
C479 C153 1.597 . S
C481 C394 1.705 . S
C490 C239 1.568 . S
C492 C403 1.578 . S
C503 C417 1.620 . S
C501 C301 1.606 . S
C512 C339 1.818 . S
C514 C436 1.945 . S
C523 C91 1.547 . S
C525 C389 1.664 . S
C534 C177 1.580 . S
C536 C408 1.602 . S
C545 C215 1.595 . S
C547 C422 1.686 . S
C558 C431 1.904 . S
C556 C277 1.769 . S
C569 C450 1.639 . S
C567 C363 1.609 . S
C580 C380 1.605 . S
C578 C53 1.587 . S
C589 C35 1.557 . S
C591 C395 1.558 . S
C600 C109 1.400 . S
C602 C407 1.489 . S
C613 C421 1.460 . S
C611 C159 1.483 . S
C622 C233 1.583 . S
C624 C437 1.691 1_556 S
C635 C449 1.540 . S
C633 C295 1.408 . S
C646 C379 1.434 . S
C644 C345 1.439 . S
C657 C451 1.485 . S
C655 C97 1.482 . S
C666 C171 1.410 . S
C668 C381 1.527 . S
C679 C393 1.569 . S
C677 C221 1.560 . S
C688 C283 1.450 . S
C690 C409 1.444 . S
C699 C357 1.404 . S
C701 C423 1.548 . S
C710 C47 1.593 . S
C712 C435 1.692 . S
