# Generated by pormake.
# Topology pyr, (3,6)-cn, num edge types: 1
# Building blocks:
#     Node 0, Type 0, BuildingBlock: QEWDON_clean_linker_0, # of connection points: 3
#     Node 1, Type 0, BuildingBlock: QEWDON_clean_linker_0, # of connection points: 3
#     Node 2, Type 0, BuildingBlock: QEWDON_clean_linker_0, # of connection points: 3
#     Node 3, Type 0, BuildingBlock: QEWDON_clean_linker_0, # of connection points: 3
#     Node 4, Type 0, BuildingBlock: QEWDON_clean_linker_0, # of connection points: 3
#     Node 5, Type 0, BuildingBlock: QEWDON_clean_linker_0, # of connection points: 3
#     Node 6, Type 0, BuildingBlock: QEWDON_clean_linker_0, # of connection points: 3
#     Node 7, Type 0, BuildingBlock: QEWDON_clean_linker_0, # of connection points: 3
#     Node 8, Type 1, BuildingBlock: VOLQOD_clean_sbu_1, # of connection points: 6
#     Node 9, Type 1, BuildingBlock: VOLQOD_clean_sbu_1, # of connection points: 6
#     Node 10, Type 1, BuildingBlock: VOLQOD_clean_sbu_1, # of connection points: 6
#     Node 11, Type 1, BuildingBlock: VOLQOD_clean_sbu_1, # of connection points: 6
#     Edge 12, Type (0, 1), BuildingBlock: EZIPEK_clean_linker_0, # of connection points: 2
#     Edge 13, Type (0, 1), BuildingBlock: EZIPEK_clean_linker_0, # of connection points: 2
#     Edge 14, Type (0, 1), BuildingBlock: EZIPEK_clean_linker_0, # of connection points: 2
#     Edge 15, Type (0, 1), BuildingBlock: EZIPEK_clean_linker_0, # of connection points: 2
#     Edge 16, Type (0, 1), BuildingBlock: EZIPEK_clean_linker_0, # of connection points: 2
#     Edge 17, Type (0, 1), BuildingBlock: EZIPEK_clean_linker_0, # of connection points: 2
#     Edge 18, Type (0, 1), BuildingBlock: EZIPEK_clean_linker_0, # of connection points: 2
#     Edge 19, Type (0, 1), BuildingBlock: EZIPEK_clean_linker_0, # of connection points: 2
#     Edge 20, Type (0, 1), BuildingBlock: EZIPEK_clean_linker_0, # of connection points: 2
#     Edge 21, Type (0, 1), BuildingBlock: EZIPEK_clean_linker_0, # of connection points: 2
#     Edge 22, Type (0, 1), BuildingBlock: EZIPEK_clean_linker_0, # of connection points: 2
#     Edge 23, Type (0, 1), BuildingBlock: EZIPEK_clean_linker_0, # of connection points: 2
#     Edge 24, Type (0, 1), BuildingBlock: EZIPEK_clean_linker_0, # of connection points: 2
#     Edge 25, Type (0, 1), BuildingBlock: EZIPEK_clean_linker_0, # of connection points: 2
#     Edge 26, Type (0, 1), BuildingBlock: EZIPEK_clean_linker_0, # of connection points: 2
#     Edge 27, Type (0, 1), BuildingBlock: EZIPEK_clean_linker_0, # of connection points: 2
#     Edge 28, Type (0, 1), BuildingBlock: EZIPEK_clean_linker_0, # of connection points: 2
#     Edge 29, Type (0, 1), BuildingBlock: EZIPEK_clean_linker_0, # of connection points: 2
#     Edge 30, Type (0, 1), BuildingBlock: EZIPEK_clean_linker_0, # of connection points: 2
#     Edge 31, Type (0, 1), BuildingBlock: EZIPEK_clean_linker_0, # of connection points: 2
#     Edge 32, Type (0, 1), BuildingBlock: EZIPEK_clean_linker_0, # of connection points: 2
#     Edge 33, Type (0, 1), BuildingBlock: EZIPEK_clean_linker_0, # of connection points: 2
#     Edge 34, Type (0, 1), BuildingBlock: EZIPEK_clean_linker_0, # of connection points: 2
#     Edge 35, Type (0, 1), BuildingBlock: EZIPEK_clean_linker_0, # of connection points: 2
# Relax obj value: 0.175
# Max RMSD: 0.273
# Mean RMSD: 0.201
data_MOF--net-pry--node1-VOLQOD_clean_sbu_1--node2-QEWDON_clean_linker_0--edge1-EZIPEK_clean_linker_0
_symmetry_space_group_name_H-M    P1
_symmetry_Int_Tables_number       1
_symmetry_cell_setting            triclinic
loop_
_symmetry_equiv_pos_as_xyz
'x, y, z'
_cell_length_a     27.571959
_cell_length_b     27.735014
_cell_length_c     29.972836
_cell_angle_alpha  90.075671
_cell_angle_beta   90.808871
_cell_angle_gamma 99.505548
loop_
_atom_site_label
_atom_site_type_symbol
_atom_site_fract_x
_atom_site_fract_y
_atom_site_fract_z
_atom_type_partial_charge
H0 H 0.24604 0.2236 0.1363 0.0
C1 C 0.22247 0.20607 0.16229 0.0
C2 C 0.2323 0.16211 0.18057 0.0
C3 C 0.18532 0.22958 0.17968 0.0
H4 H 0.21265 0.10786 0.23148 0.0
C5 C 0.20375 0.14066 0.21598 0.0
C6 C 0.16508 0.16252 0.2327 0.0
C7 C 0.15538 0.20651 0.21364 0.0
C8 C 0.18425 0.28151 0.16786 0.0
H9 H 0.12728 0.22472 0.22789 0.0
C10 C 0.14027 0.29875 0.15629 0.0
C11 C 0.14158 0.34856 0.14561 0.0
C12 C 0.2287 0.31484 0.16948 0.0
H13 H 0.26285 0.30294 0.17914 0.0
C14 C 0.2297 0.364 0.15947 0.0
H15 H 0.10568 0.27371 0.15484 0.0
C16 C 0.18649 0.38077 0.14752 0.0
H17 H 0.18808 0.41908 0.13944 0.0
H18 H 0.26414 0.38919 0.16094 0.0
H19 H 0.36262 0.95586 0.80757 0.0
C20 C 0.38331 0.93293 0.78871 0.0
C21 C 0.42864 0.92396 0.8054 0.0
C22 C 0.36379 0.9116 0.74858 0.0
H23 H 0.48936 0.88508 0.7947 0.0
C24 C 0.45489 0.89318 0.78133 0.0
C25 C 0.43493 0.87047 0.74134 0.0
C26 C 0.3897 0.88065 0.72497 0.0
C27 C 0.3141 0.9181 0.73371 0.0
H28 H 0.37355 0.86265 0.69484 0.0
C29 C 0.30648 0.93974 0.69236 0.0
C30 C 0.25884 0.94605 0.67916 0.0
C31 C 0.27392 0.90273 0.76148 0.0
H32 H 0.27919 0.88591 0.79341 0.0
C33 C 0.22659 0.90849 0.74806 0.0
H34 H 0.33737 0.95227 0.67096 0.0
C35 C 0.21903 0.9301 0.70713 0.0
H36 H 0.18212 0.93488 0.69738 0.0
H37 H 0.19575 0.89642 0.76953 0.0
H38 H 0.6281 0.51798 0.97015 0.0
C39 C 0.62046 0.48099 0.98293 0.0
C40 C 0.65953 0.45749 0.99619 0.0
C41 C 0.57181 0.4561 0.9846 0.0
H42 H 0.68037 0.39073 0.02089 0.0
C43 C 0.65011 0.40929 0.01149 0.0
C44 C 0.60182 0.38425 0.01273 0.0
C45 C 0.56275 0.40774 0.99985 0.0
C46 C 0.5313 0.47709 0.96374 0.0
H47 H 0.52562 0.38735 0.99939 0.0
C48 C 0.53678 0.49465 0.92004 0.0
C49 C 0.49618 0.50514 0.89567 0.0
C50 C 0.48532 0.47343 0.98423 0.0
H51 H 0.48029 0.45977 0.01798 0.0
C52 C 0.44516 0.4861 0.96068 0.0
H53 H 0.57183 0.49654 0.90357 0.0
C54 C 0.45024 0.50104 0.91624 0.0
H55 H 0.41838 0.50875 0.89773 0.0
H56 H 0.4097 0.48284 0.97645 0.0
H57 H 0.86838 0.74555 0.35834 0.0
C58 C 0.85201 0.73017 0.38855 0.0
C59 C 0.87592 0.74063 0.43029 0.0
C60 C 0.8049 0.70152 0.38499 0.0
H61 H 0.86109 0.73844 0.50182 0.0
C62 C 0.84792 0.7268 0.46879 0.0
C63 C 0.80051 0.70011 0.46564 0.0
C64 C 0.77973 0.68606 0.424 0.0
C65 C 0.78253 0.68737 0.34043 0.0
H66 H 0.7435 0.66388 0.42232 0.0
C67 C 0.81262 0.6777 0.30523 0.0
C68 C 0.79241 0.66281 0.26338 0.0
C69 C 0.7314 0.68234 0.33276 0.0
H70 H 0.70707 0.6905 0.35873 0.0
C71 C 0.71106 0.66701 0.29109 0.0
H72 H 0.85199 0.68056 0.31033 0.0
C73 C 0.74135 0.65693 0.25652 0.0
H74 H 0.72517 0.64505 0.22439 0.0
H75 H 0.67172 0.66301 0.28558 0.0
H76 H 0.86 0.87416 0.90688 0.0
C77 C 0.87784 0.88777 0.87632 0.0
C78 C 0.9183 0.86774 0.86101 0.0
C79 C 0.85788 0.92211 0.85057 0.0
H80 H 0.97063 0.86811 0.80775 0.0
C81 C 0.9401 0.884 0.82025 0.0
C82 C 0.9209 0.91928 0.79474 0.0
C83 C 0.88001 0.93801 0.81013 0.0
C84 C 0.81063 0.93711 0.86283 0.0
H85 H 0.86464 0.96433 0.78989 0.0
C86 C 0.80297 0.95492 0.90581 0.0
C87 C 0.75742 0.96854 0.91621 0.0
C88 C 0.77231 0.93285 0.83084 0.0
H89 H 0.77707 0.91866 0.79777 0.0
C90 C 0.72724 0.94611 0.8413 0.0
H91 H 0.83222 0.95874 0.93074 0.0
C92 C 0.7198 0.96393 0.88367 0.0
H93 H 0.68458 0.97432 0.89115 0.0
H94 H 0.69797 0.94258 0.81647 0.0
H95 H 0.7201 0.18073 0.49835 0.0
C96 C 0.70342 0.17384 0.46548 0.0
C97 C 0.72614 0.14776 0.43407 0.0
C98 C 0.65874 0.18995 0.45523 0.0
H99 H 0.72118 0.11683 0.36788 0.0
C100 C 0.7041 0.13771 0.39194 0.0
C101 C 0.65939 0.15319 0.38112 0.0
C102 C 0.63702 0.17984 0.41271 0.0
C103 C 0.63271 0.21206 0.49105 0.0
H104 H 0.6019 0.19074 0.40487 0.0
C105 C 0.62009 0.25927 0.48723 0.0
C106 C 0.59852 0.28003 0.52357 0.0
C107 C 0.6221 0.18568 0.53072 0.0
H108 H 0.63118 0.14932 0.53434 0.0
C109 C 0.59979 0.20578 0.56607 0.0
H110 H 0.62841 0.28026 0.45703 0.0
C111 C 0.58833 0.25272 0.56268 0.0
H112 H 0.57167 0.268 0.59078 0.0
H113 H 0.59182 0.18506 0.59643 0.0
H114 H 0.42257 0.70895 0.21616 0.0
C115 C 0.38574 0.70639 0.20217 0.0
C116 C 0.37306 0.74582 0.17821 0.0
C117 C 0.35132 0.66354 0.20747 0.0
H118 H 0.31621 0.7729 0.14034 0.0
C119 C 0.32588 0.74254 0.15938 0.0
C120 C 0.29189 0.69946 0.16308 0.0
C121 C 0.30451 0.65998 0.18732 0.0
C122 C 0.3644 0.62306 0.23462 0.0
H123 H 0.2778 0.62687 0.19071 0.0
C124 C 0.38669 0.63306 0.27675 0.0
C125 C 0.39919 0.59518 0.30301 0.0
C126 C 0.35475 0.57459 0.21896 0.0
H127 H 0.33781 0.56608 0.18646 0.0
C128 C 0.36763 0.53678 0.24503 0.0
H129 H 0.39339 0.67016 0.28965 0.0
C130 C 0.38973 0.54694 0.28698 0.0
H131 H 0.39897 0.51726 0.30714 0.0
H132 H 0.36026 0.49952 0.23279 0.0
H133 H 0.22384 0.45126 0.70193 0.0
C134 C 0.19987 0.42363 0.6827 0.0
C135 C 0.20346 0.42225 0.63604 0.0
C136 C 0.16732 0.38799 0.7049 0.0
H137 H 0.17607 0.38368 0.57578 0.0
C138 C 0.17259 0.38589 0.61169 0.0
C139 C 0.14211 0.34869 0.63433 0.0
C140 C 0.13854 0.35053 0.68076 0.0
C141 C 0.1651 0.38837 0.7536 0.0
H142 H 0.11534 0.32135 0.69822 0.0
C143 C 0.14203 0.42312 0.77477 0.0
C144 C 0.1375 0.42242 0.82113 0.0
C145 C 0.18423 0.3531 0.77885 0.0
H146 H 0.20194 0.32585 0.76262 0.0
C147 C 0.18046 0.35294 0.82528 0.0
H148 H 0.12647 0.44985 0.75518 0.0
C149 C 0.15696 0.38741 0.84647 0.0
H150 H 0.15338 0.38648 0.88242 0.0
H151 H 0.19524 0.32577 0.84479 0.0
O152 O 0.02442 0.13991 0.56608 0.0
Zn153 Zn 0.98784 0.07359 0.55002 0.0
O154 O 0.02789 0.042 0.50898 0.0
Zn155 Zn 0.99147 0.02596 0.4527 0.0
Zn156 Zn 0.09117 0.08263 0.49651 0.0
Zn157 Zn 0.04282 0.9836 0.53771 0.0
O158 O 0.97511 0.95192 0.44684 0.0
O159 O 0.02423 0.92646 0.49815 0.0
O160 O 0.92421 0.08462 0.52037 0.0
O161 O 0.9277 0.0537 0.45212 0.0
O162 O 0.03112 0.05597 0.39912 0.0
O163 O 0.10059 0.09342 0.43086 0.0
O164 O 0.15019 0.05655 0.52257 0.0
O165 O 0.97301 0.03493 0.60765 0.0
O166 O 0.11339 0.98831 0.55389 0.0
O167 O 0.00764 0.9693 0.59581 0.0
C168 C 0.06446 0.16459 0.55243 0.0
C169 C 0.99325 0.91781 0.46621 0.0
C170 C 0.07388 0.08173 0.39627 0.0
C171 C 0.90604 0.07556 0.48135 0.0
C172 C 0.15194 0.01871 0.54604 0.0
C173 C 0.98294 0.99365 0.62013 0.0
O174 O 0.09238 0.14741 0.52533 0.0
O175 O 0.52092 0.15455 0.04074 0.0
Zn176 Zn 0.48621 0.08644 0.05225 0.0
O177 O 0.52767 0.05461 0.093 0.0
Zn178 Zn 0.54059 0.99489 0.06502 0.0
Zn179 Zn 0.59157 0.09526 0.10618 0.0
Zn180 Zn 0.49283 0.03959 0.1488 0.0
O181 O 0.51817 0.93678 0.10302 0.0
O182 O 0.47366 0.96687 0.15436 0.0
O183 O 0.47251 0.04942 0.99279 0.0
O184 O 0.50574 0.98292 0.00577 0.0
O185 O 0.61107 0.99865 0.04946 0.0
O186 O 0.64852 0.06972 0.07665 0.0
O187 O 0.6042 0.10368 0.17276 0.0
O188 O 0.42193 0.09595 0.08146 0.0
O189 O 0.53439 0.06662 0.20243 0.0
O190 O 0.43041 0.06843 0.1503 0.0
C191 C 0.56079 0.1796 0.05558 0.0
C192 C 0.48806 0.93089 0.13509 0.0
C193 C 0.64941 0.03063 0.05451 0.0
C194 C 0.48223 0.00799 0.98046 0.0
C195 C 0.57759 0.09116 0.2066 0.0
C196 C 0.40636 0.08851 0.12115 0.0
O197 O 0.59034 0.16179 0.08132 0.0
O198 O 0.55148 0.59131 0.69767 0.0
Zn199 Zn 0.55861 0.62747 0.63884 0.0
O200 O 0.51503 0.59068 0.59424 0.0
Zn201 Zn 0.55087 0.57883 0.54159 0.0
Zn202 Zn 0.48779 0.52624 0.61615 0.0
Zn203 Zn 0.46279 0.62844 0.57896 0.0
O204 O 0.51419 0.59534 0.48741 0.0
O205 O 0.46229 0.64237 0.51275 0.0
O206 O 0.6287 0.64117 0.61677 0.0
O207 O 0.61709 0.61901 0.54521 0.0
O208 O 0.56182 0.50881 0.53439 0.0
O209 O 0.51579 0.47045 0.58766 0.0
O210 O 0.41564 0.51497 0.6064 0.0
O211 O 0.53837 0.69277 0.65308 0.0
O212 O 0.39636 0.58688 0.5871 0.0
O213 O 0.46668 0.69009 0.61769 0.0
C214 C 0.52444 0.55163 0.70937 0.0
C215 C 0.48135 0.6219 0.48078 0.0
C216 C 0.54506 0.46987 0.55527 0.0
C217 C 0.64429 0.63869 0.5771 0.0
C218 C 0.38392 0.54189 0.59661 0.0
C219 C 0.49965 0.71088 0.64499 0.0
O220 O 0.49803 0.52384 0.68162 0.0
O221 O 0.92402 0.58194 0.11515 0.0
Zn222 Zn 0.94768 0.54671 0.06423 0.0
O223 O 0.98935 0.59364 0.02685 0.0
Zn224 Zn 0.96068 0.59378 0.96707 0.0
Zn225 Zn 0.99751 0.66017 0.05129 0.0
Zn226 Zn 0.05199 0.57179 0.02421 0.0
O227 O 0.99772 0.55755 0.92452 0.0
O228 O 0.06764 0.55578 0.96229 0.0
O229 O 0.88508 0.52141 0.0323 0.0
O230 O 0.88949 0.56189 0.96802 0.0
O231 O 0.96127 0.66238 0.94468 0.0
O232 O 0.98188 0.70934 0.00443 0.0
O233 O 0.06704 0.6806 0.0755 0.0
O234 O 0.97924 0.48956 0.08681 0.0
O235 O 0.10456 0.62024 0.0519 0.0
O236 O 0.05321 0.50952 0.05768 0.0
C237 C 0.92547 0.62684 0.12475 0.0
C238 C 0.04107 0.54737 0.92728 0.0
C239 C 0.96869 0.70425 0.96345 0.0
C240 C 0.86574 0.53292 0.99596 0.0
C241 C 0.1052 0.66038 0.07252 0.0
C242 C 0.02265 0.481 0.08074 0.0
O243 O 0.95108 0.66094 0.10265 0.0
C244 C 0.11118 0.09391 0.27323 0.0
C245 C 0.13853 0.1421 0.27348 0.0
C246 C 0.11279 0.1528 0.35025 0.0
C247 C 0.09237 0.10237 0.35253 0.0
N248 N 0.07894 0.0228 0.31718 0.0
N249 N 0.17448 0.21315 0.31668 0.0
C250 C 0.09306 0.07226 0.31419 0.0
C251 C 0.14182 0.17046 0.31321 0.0
N252 N 0.10158 0.06917 0.23381 0.0
N253 N 0.1032 0.18438 0.38277 0.0
H254 H 0.19856 0.22642 0.29136 0.0
H255 H 0.18143 0.23251 0.34656 0.0
H256 H 0.07982 0.17356 0.40928 0.0
H257 H 0.1137 0.22215 0.38045 0.0
H258 H 0.07785 0.03589 0.23108 0.0
H259 H 0.1135 0.08416 0.20317 0.0
H260 H 0.08363 0.99877 0.29146 0.0
H261 H 0.06682 0.00523 0.34667 0.0
C262 C 0.47711 0.99011 0.8537 0.0
C263 C 0.4456 0.94425 0.85017 0.0
C264 C 0.43305 0.9441 0.93123 0.0
C265 C 0.46732 0.98815 0.93522 0.0
N266 N 0.52797 0.0494 0.90147 0.0
N267 N 0.39904 0.87388 0.88566 0.0
C268 C 0.49092 0.01029 0.89674 0.0
C269 C 0.42527 0.92012 0.88905 0.0
N270 N 0.49284 0.01494 0.81582 0.0
N271 N 0.40647 0.92625 0.96754 0.0
H272 H 0.3919 0.85552 0.85528 0.0
H273 H 0.38777 0.8521 0.91308 0.0
H274 H 0.41049 0.94346 0.99866 0.0
H275 H 0.3774 0.89708 0.9661 0.0
H276 H 0.51095 0.05099 0.81585 0.0
H277 H 0.48497 0.0005 0.78387 0.0
H278 H 0.55045 0.06369 0.87543 0.0
H279 H 0.53884 0.06552 0.93225 0.0
C280 C 0.49256 0.56215 0.831 0.0
C281 C 0.50174 0.51664 0.84754 0.0
C282 C 0.5316 0.49668 0.77429 0.0
C283 C 0.51822 0.54017 0.75708 0.0
N284 N 0.47078 0.60527 0.76587 0.0
N285 N 0.51768 0.43515 0.83183 0.0
C286 C 0.4944 0.5705 0.78448 0.0
C287 C 0.51776 0.48221 0.81828 0.0
N288 N 0.48358 0.598 0.85953 0.0
N289 N 0.55806 0.46964 0.74895 0.0
H290 H 0.50543 0.42239 0.8631 0.0
H291 H 0.52472 0.40754 0.81046 0.0
H292 H 0.56876 0.47929 0.71646 0.0
H293 H 0.57303 0.44021 0.76152 0.0
H294 H 0.4813 0.63336 0.84893 0.0
H295 H 0.4832 0.59392 0.89411 0.0
H296 H 0.44868 0.62488 0.7842 0.0
H297 H 0.46879 0.6106 0.73149 0.0
C298 C 0.8301 0.68311 0.18841 0.0
C299 C 0.82562 0.65337 0.22707 0.0
C300 C 0.89359 0.61402 0.20214 0.0
C301 C 0.89351 0.63892 0.16085 0.0
N302 N 0.85278 0.68871 0.11092 0.0
N303 N 0.84599 0.58306 0.2661 0.0
C304 C 0.8594 0.67129 0.15283 0.0
C305 C 0.8553 0.61656 0.23261 0.0
N306 N 0.8078 0.72355 0.18609 0.0
N307 N 0.93106 0.58928 0.21293 0.0
H308 H 0.8171 0.5827 0.28827 0.0
H309 H 0.86365 0.55273 0.26893 0.0
H310 H 0.961 0.58834 0.19221 0.0
H311 H 0.93512 0.57429 0.24436 0.0
H312 H 0.8142 0.74903 0.16043 0.0
H313 H 0.78685 0.73429 0.21185 0.0
H314 H 0.82464 0.70821 0.10287 0.0
H315 H 0.87164 0.67949 0.08314 0.0
C316 C 0.32393 0.16478 0.1814 0.0
C317 C 0.27663 0.14208 0.166 0.0
C318 C 0.31438 0.08594 0.11893 0.0
C319 C 0.36157 0.10768 0.13534 0.0
N320 N 0.4124 0.16654 0.18264 0.0
N321 N 0.22535 0.07919 0.12351 0.0
C322 C 0.36659 0.14677 0.16675 0.0
C323 C 0.27146 0.10211 0.13564 0.0
N324 N 0.32791 0.20422 0.20957 0.0
N325 N 0.3108 0.05006 0.0871 0.0
H326 H 0.19337 0.09112 0.13391 0.0
H327 H 0.21813 0.04695 0.10509 0.0
H328 H 0.34109 0.03572 0.07582 0.0
H329 H 0.27847 0.03578 0.07012 0.0
H330 H 0.36084 0.22646 0.21821 0.0
H331 H 0.29762 0.21629 0.22357 0.0
H332 H 0.41894 0.19079 0.20936 0.0
H333 H 0.44482 0.15767 0.16989 0.0
C334 C 0.23833 0.94346 0.59748 0.0
C335 C 0.24953 0.97129 0.63705 0.0
C336 C 0.21985 0.0411 0.60233 0.0
C337 C 0.1983 0.00951 0.56765 0.0
N338 N 0.19493 0.93526 0.52579 0.0
N339 N 0.25719 0.04783 0.6765 0.0
C340 C 0.21111 0.96234 0.56281 0.0
C341 C 0.24325 0.02099 0.63881 0.0
N342 N 0.25252 0.89868 0.59402 0.0
N343 N 0.2172 0.08981 0.60066 0.0
H344 H 0.27662 0.03468 0.70269 0.0
H345 H 0.24825 0.0822 0.6827 0.0
H346 H 0.20142 0.10564 0.57384 0.0
H347 H 0.23488 0.11548 0.62336 0.0
H348 H 0.24767 0.87691 0.56552 0.0
H349 H 0.27221 0.88432 0.61929 0.0
H350 H 0.1985 0.89887 0.52111 0.0
H351 H 0.17736 0.94997 0.4992 0.0
C352 C 0.73984 0.46902 0.95662 0.0
C353 C 0.71096 0.48225 0.99206 0.0
C354 C 0.78173 0.53809 0.02192 0.0
C355 C 0.81208 0.51907 0.99079 0.0
N356 N 0.82173 0.46529 0.92958 0.0
N357 N 0.70417 0.52633 0.06051 0.0
C358 C 0.79159 0.48462 0.95798 0.0
C359 C 0.73169 0.51635 0.0251 0.0
N360 N 0.71756 0.44208 0.92154 0.0
N361 N 0.80071 0.5776 0.04778 0.0
H362 H 0.66702 0.51171 0.06368 0.0
H363 H 0.71891 0.54632 0.08837 0.0
H364 H 0.83718 0.59499 0.04579 0.0
H365 H 0.77939 0.59607 0.06802 0.0
H366 H 0.73584 0.43505 0.8927 0.0
H367 H 0.67965 0.43026 0.91956 0.0
H368 H 0.80963 0.43595 0.90829 0.0
H369 H 0.85973 0.47669 0.92925 0.0
C370 C 0.74241 0.72359 0.52194 0.0
C371 C 0.7708 0.68901 0.50608 0.0
C372 C 0.72703 0.62587 0.55412 0.0
C373 C 0.69532 0.65888 0.56606 0.0
N374 N 0.68069 0.74137 0.5739 0.0
N375 N 0.80067 0.61284 0.51537 0.0
C376 C 0.70618 0.70881 0.55453 0.0
C377 C 0.76681 0.64195 0.52531 0.0
N378 N 0.74809 0.76935 0.50377 0.0
N379 N 0.71708 0.57862 0.56861 0.0
H380 H 0.83003 0.62411 0.49414 0.0
H381 H 0.80203 0.57932 0.53046 0.0
H382 H 0.68962 0.56723 0.59175 0.0
H383 H 0.73487 0.55074 0.55734 0.0
H384 H 0.72489 0.7945 0.51006 0.0
H385 H 0.77512 0.78172 0.48057 0.0
H386 H 0.68889 0.77904 0.56957 0.0
H387 H 0.6538 0.73073 0.5977 0.0
C388 C 0.07453 0.39641 0.16199 0.0
C389 C 0.09713 0.36879 0.13103 0.0
C390 C 0.0533 0.40211 0.06958 0.0
C391 C 0.03896 0.43665 0.09954 0.0
N392 N 0.03438 0.46676 0.1746 0.0
N393 N 0.10717 0.34295 0.05552 0.0
C394 C 0.04804 0.43309 0.14607 0.0
C395 C 0.08537 0.37015 0.08488 0.0
N396 N 0.07932 0.38785 0.20658 0.0
N397 N 0.03613 0.40021 0.02649 0.0
H398 H 0.12917 0.31775 0.0659 0.0
H399 H 0.10527 0.34669 0.02102 0.0
H400 H 0.01226 0.42305 0.01474 0.0
H401 H 0.04176 0.37347 0.00363 0.0
H402 H 0.06065 0.40366 0.23112 0.0
H403 H 0.09875 0.36121 0.21867 0.0
H404 H 0.04503 0.46991 0.20807 0.0
H405 H 0.01423 0.49351 0.16426 0.0
C406 C 0.59713 0.29679 0.99046 0.0
C407 C 0.59222 0.33181 0.02401 0.0
C408 C 0.56851 0.26696 0.07859 0.0
C409 C 0.57178 0.23189 0.04463 0.0
N410 N 0.58549 0.21136 0.96817 0.0
N411 N 0.5702 0.35223 0.09835 0.0
C412 C 0.58504 0.24623 1.00048 0.0
C413 C 0.57721 0.31745 0.06773 0.0
N414 N 0.61408 0.31214 0.94928 0.0
N415 N 0.5571 0.25178 0.12119 0.0
H416 H 0.57826 0.38966 0.09206 0.0
H417 H 0.55426 0.34455 0.12931 0.0
H418 H 0.5466 0.21515 0.12976 0.0
H419 H 0.55969 0.27495 0.14873 0.0
H420 H 0.62382 0.28913 0.92475 0.0
H421 H 0.62084 0.3488 0.93991 0.0
H422 H 0.58935 0.21884 0.93431 0.0
H423 H 0.57973 0.17397 0.97485 0.0
C424 C 0.94684 0.78204 0.47763 0.0
C425 C 0.9263 0.77184 0.43486 0.0
C426 C 0.97072 0.85018 0.40932 0.0
C427 C 0.97497 0.86606 0.45466 0.0
N428 N 0.96257 0.84469 0.53327 0.0
N429 N 0.95546 0.77965 0.35991 0.0
C430 C 0.96327 0.83113 0.48945 0.0
C431 C 0.94849 0.8011 0.39972 0.0
N432 N 0.95087 0.74484 0.50635 0.0
N433 N 0.98777 0.88146 0.3758 0.0
H434 H 0.94682 0.74176 0.3558 0.0
H435 H 0.97511 0.79777 0.33375 0.0
H436 H 0.00864 0.91585 0.38172 0.0
H437 H 0.98016 0.87355 0.34219 0.0
H438 H 0.96891 0.75047 0.53722 0.0
H439 H 0.94004 0.70839 0.49666 0.0
H440 H 0.9505 0.81973 0.55837 0.0
H441 H 0.96775 0.88085 0.54415 0.0
C442 C 0.47261 0.83899 0.6728 0.0
C443 C 0.4583 0.83243 0.71809 0.0
C444 C 0.48484 0.75223 0.71768 0.0
C445 C 0.4908 0.75499 0.67059 0.0
N446 N 0.48955 0.80132 0.60271 0.0
N447 N 0.44162 0.77768 0.78073 0.0
C448 C 0.48437 0.79853 0.64794 0.0
C449 C 0.46231 0.78785 0.7399 0.0
N450 N 0.47627 0.88427 0.65399 0.0
N451 N 0.50064 0.71586 0.7417 0.0
H452 H 0.42267 0.80142 0.79767 0.0
H453 H 0.43862 0.7434 0.79564 0.0
H454 H 0.51743 0.68875 0.72761 0.0
H455 H 0.50184 0.71571 0.77648 0.0
H456 H 0.49079 0.89271 0.62254 0.0
H457 H 0.46908 0.91473 0.67162 0.0
H458 H 0.47956 0.82951 0.58356 0.0
H459 H 0.50175 0.77408 0.58395 0.0
C460 C 0.97453 0.98007 0.74677 0.0
C461 C 0.94105 0.93554 0.7503 0.0
C462 C 0.93275 0.9307 0.66852 0.0
C463 C 0.9678 0.97416 0.66496 0.0
N464 N 0.02892 0.03543 0.6998 0.0
N465 N 0.89357 0.86443 0.71535 0.0
C466 C 0.99057 0.99759 0.70388 0.0
C467 C 0.92193 0.90953 0.71133 0.0
N468 N 0.99014 0.00618 0.78451 0.0
N469 N 0.90824 0.91088 0.63109 0.0
H470 H 0.88385 0.84844 0.74611 0.0
H471 H 0.88273 0.84114 0.68848 0.0
H472 H 0.91492 0.92561 0.59933 0.0
H473 H 0.87864 0.88227 0.63163 0.0
H474 H 0.00946 0.04174 0.78413 0.0
H475 H 0.98131 0.99327 0.81656 0.0
H476 H 0.05073 0.05053 0.72658 0.0
H477 H 0.04169 0.04941 0.66907 0.0
C478 C 0.635 0.17293 0.30259 0.0
C479 C 0.63493 0.13831 0.33738 0.0
C480 C 0.59978 0.0723 0.28588 0.0
C481 C 0.59666 0.10732 0.25188 0.0
N482 N 0.60095 0.192 0.23103 0.0
N483 N 0.60793 0.05684 0.36502 0.0
C484 C 0.61138 0.15799 0.26111 0.0
C485 C 0.61441 0.0885 0.32986 0.0
N486 N 0.65902 0.21974 0.3086 0.0
N487 N 0.59105 0.02352 0.27575 0.0
H488 H 0.61783 0.06748 0.39774 0.0
H489 H 0.58857 0.02135 0.36248 0.0
H490 H 0.58128 0.01009 0.24379 0.0
H491 H 0.5979 0.99651 0.29796 0.0
H492 H 0.66521 0.24506 0.28282 0.0
H493 H 0.67624 0.23223 0.33863 0.0
H494 H 0.60617 0.22935 0.23784 0.0
H495 H 0.58254 0.18269 0.20082 0.0
C496 C 0.46968 0.6273 0.35484 0.0
C497 C 0.41963 0.60587 0.34856 0.0
C498 C 0.40955 0.59691 0.42913 0.0
C499 C 0.45879 0.62106 0.43574 0.0
N500 N 0.53314 0.66673 0.40605 0.0
N501 N 0.33898 0.58098 0.37923 0.0
C502 C 0.48811 0.63861 0.39885 0.0
C503 C 0.38862 0.59414 0.38559 0.0
N504 N 0.49991 0.63522 0.31889 0.0
N505 N 0.38373 0.57366 0.46378 0.0
H506 H 0.32217 0.5782 0.34771 0.0
H507 H 0.31405 0.57726 0.40529 0.0
H508 H 0.39773 0.57326 0.49619 0.0
H509 H 0.35004 0.55071 0.45959 0.0
H510 H 0.53786 0.64579 0.3216 0.0
H511 H 0.48752 0.62775 0.28616 0.0
H512 H 0.55447 0.68454 0.38072 0.0
H513 H 0.54734 0.67579 0.43799 0.0
C514 C 0.13148 0.50619 0.84953 0.0
C515 C 0.10962 0.4567 0.84288 0.0
C516 C 0.03803 0.46893 0.88578 0.0
C517 C 0.05952 0.5187 0.89198 0.0
N518 N 0.12002 0.58767 0.87186 0.0
N519 N 0.03745 0.39432 0.84367 0.0
C520 C 0.10415 0.53831 0.87109 0.0
C521 C 0.06127 0.4392 0.85738 0.0
N522 N 0.17896 0.52185 0.83702 0.0
N523 N 0.99747 0.44907 0.90933 0.0
H524 H 0.05353 0.37132 0.82297 0.0
H525 H 1.00031 0.38187 0.84938 0.0
H526 H 0.97885 0.46922 0.93059 0.0
H527 H 0.98435 0.41166 0.91043 0.0
H528 H 0.19872 0.55605 0.84536 0.0
H529 H 0.2 0.49936 0.82082 0.0
H530 H 0.15003 0.60493 0.85397 0.0
H531 H 0.10019 0.6119 0.88723 0.0
C532 C 0.74348 0.03941 0.96243 0.0
C533 C 0.74782 0.98936 0.96033 0.0
C534 C 0.70902 0.97664 0.03324 0.0
C535 C 0.69375 0.02288 0.02957 0.0
N536 N 0.69708 0.09957 0.99004 0.0
N537 N 0.73759 0.90992 0.99459 0.0
C538 C 0.71235 0.05538 0.99478 0.0
C539 C 0.73253 0.95804 0.99656 0.0
N540 N 0.76826 0.07122 0.93259 0.0
N541 N 0.7001 0.95048 0.07167 0.0
H542 H 0.75583 0.89558 0.96873 0.0
H543 H 0.72184 0.88383 0.01736 0.0
H544 H 0.6833 0.96401 0.09894 0.0
H545 H 0.71343 0.91813 0.07807 0.0
H546 H 0.77023 0.10899 0.93459 0.0
H547 H 0.79102 0.05989 0.90851 0.0
H548 H 0.70416 0.12143 0.96189 0.0
H549 H 0.67493 0.11362 0.01284 0.0
C550 C 0.77032 0.07919 0.4576 0.0
C551 C 0.77233 0.12913 0.446 0.0
C552 C 0.86156 0.14432 0.46003 0.0
C553 C 0.85999 0.09375 0.46882 0.0
N554 N 0.8147 0.01171 0.4709 0.0
N555 N 0.81981 0.20794 0.42985 0.0
C556 C 0.81487 0.06075 0.46597 0.0
C557 C 0.81797 0.16141 0.44559 0.0
N558 N 0.72566 0.04986 0.46219 0.0
N559 N 0.90474 0.17611 0.4658 0.0
H560 H 0.78861 0.22182 0.41939 0.0
H561 H 0.85239 0.23173 0.42392 0.0
H562 H 0.93802 0.16476 0.47376 0.0
H563 H 0.90727 0.21396 0.46535 0.0
H564 H 0.72124 0.01468 0.47522 0.0
H565 H 0.69233 0.06198 0.45615 0.0
H566 H 0.78415 0.98513 0.46418 0.0
H567 H 0.84623 0.99712 0.47896 0.0
C568 C 0.20027 0.69427 0.16505 0.0
C569 C 0.24357 0.69527 0.1399 0.0
C570 C 0.19494 0.69051 0.07068 0.0
C571 C 0.1514 0.68119 0.09589 0.0
N572 N 0.11211 0.66895 0.1676 0.0
N573 N 0.2822 0.68849 0.06881 0.0
C574 C 0.15373 0.68232 0.14328 0.0
C575 C 0.24106 0.69229 0.09262 0.0
N576 N 0.20365 0.70527 0.20957 0.0
N577 N 0.19197 0.69781 0.0257 0.0
H578 H 0.31655 0.68825 0.08368 0.0
H579 H 0.28145 0.68107 0.03471 0.0
H580 H 0.15845 0.69731 0.00891 0.0
H581 H 0.22256 0.7092 0.00603 0.0
H582 H 0.17348 0.71001 0.22863 0.0
H583 H 0.23723 0.71407 0.22659 0.0
H584 H 0.11266 0.66328 0.20194 0.0
H585 H 0.07712 0.65994 0.15329 0.0
C586 C 0.28108 0.43776 0.59075 0.0
C587 C 0.2435 0.45607 0.61427 0.0
C588 C 0.29463 0.53695 0.6183 0.0
C589 C 0.33179 0.51825 0.59462 0.0
N590 N 0.35066 0.4582 0.54228 0.0
N591 N 0.2079 0.52628 0.63561 0.0
C592 C 0.3213 0.47122 0.575 0.0
C593 C 0.24797 0.50698 0.6227 0.0
N594 N 0.28142 0.38871 0.58691 0.0
N595 N 0.3044 0.58123 0.63943 0.0
H596 H 0.17315 0.50496 0.63843 0.0
H597 H 0.2082 0.56376 0.63882 0.0
H598 H 0.33811 0.60437 0.63806 0.0
H599 H 0.27988 0.5934 0.66126 0.0
H600 H 0.31101 0.37464 0.57376 0.0
H601 H 0.25527 0.362 0.60099 0.0
H602 H 0.34232 0.42534 0.52469 0.0
H603 H 0.38004 0.48267 0.52953 0.0
C604 C 0.9005 0.78065 0.88686 0.0
C605 C 0.9335 0.82564 0.88554 0.0
C606 C 0.9924 0.78985 0.93231 0.0
C607 C 0.95685 0.74695 0.93769 0.0
N608 N 0.87254 0.70688 0.92832 0.0
N609 N 0.00823 0.87575 0.91198 0.0
C610 C 0.90964 0.7438 0.91717 0.0
C611 C 0.97883 0.83102 0.90963 0.0
N612 N 0.8609 0.77253 0.85825 0.0
N613 N 0.03956 0.79067 0.94729 0.0
H614 H 0.99966 0.90646 0.89556 0.0
H615 H 0.03902 0.88328 0.93293 0.0
H616 H 0.05099 0.76114 0.96346 0.0
H617 H 0.06829 0.81889 0.94026 0.0
H618 H 0.83851 0.73857 0.85463 0.0
H619 H 0.8534 0.79819 0.83482 0.0
H620 H 0.83619 0.70575 0.91781 0.0
H621 H 0.87672 0.6803 0.952 0.0
C622 C 0.42341 0.79964 0.12432 0.0
C623 C 0.41002 0.78951 0.1691 0.0
C624 C 0.45991 0.86685 0.19233 0.0
C625 C 0.46475 0.88081 0.14684 0.0
N626 N 0.4407 0.86297 0.06945 0.0
N627 N 0.4117 0.81524 0.24621 0.0
C628 C 0.44421 0.84777 0.11261 0.0
C629 C 0.42755 0.82337 0.20348 0.0
N630 N 0.41599 0.76327 0.09296 0.0
N631 N 0.48686 0.89449 0.22463 0.0
H632 H 0.38782 0.78388 0.25568 0.0
H633 H 0.41923 0.84135 0.27147 0.0
H634 H 0.51215 0.92572 0.21738 0.0
H635 H 0.48791 0.88365 0.25785 0.0
H636 H 0.42894 0.7681 0.06049 0.0
H637 H 0.40194 0.72708 0.10089 0.0
H638 H 0.42162 0.84092 0.04461 0.0
H639 H 0.45134 0.89898 0.05928 0.0
C640 C 0.14664 0.26185 0.61807 0.0
C641 C 0.12236 0.30259 0.61124 0.0
C642 C 0.06096 0.25346 0.56299 0.0
C643 C 0.08288 0.21197 0.5733 0.0
N644 N 0.13982 0.17393 0.61755 0.0
N645 N 0.05403 0.33723 0.58181 0.0
C646 C 0.12389 0.21537 0.60273 0.0
C647 C 0.0788 0.29852 0.58488 0.0
N648 N 0.19205 0.26778 0.63832 0.0
N649 N 0.02419 0.24999 0.53149 0.0
H650 H 0.06682 0.37099 0.59683 0.0
H651 H 0.01937 0.33506 0.56697 0.0
H652 H 0.01002 0.21726 0.51531 0.0
H653 H 0.01006 0.27996 0.51914 0.0
H654 H 0.21377 0.24042 0.63945 0.0
H655 H 0.21016 0.30124 0.65059 0.0
H656 H 0.16598 0.17396 0.64297 0.0
H657 H 0.12364 0.13881 0.60759 0.0
C658 C 0.53766 0.338 0.51546 0.0
C659 C 0.58698 0.33078 0.52259 0.0
C660 C 0.60954 0.41562 0.54898 0.0
C661 C 0.5602 0.42289 0.54178 0.0
N662 N 0.47979 0.3951 0.50979 0.0
N663 N 0.67186 0.3644 0.53757 0.0
C664 C 0.52497 0.38523 0.52247 0.0
C665 C 0.62361 0.37034 0.53635 0.0
N666 N 0.50268 0.29918 0.50325 0.0
N667 N 0.64225 0.45101 0.57022 0.0
H668 H 0.68322 0.33143 0.52962 0.0
H669 H 0.70101 0.39293 0.54281 0.0
H670 H 0.63334 0.48447 0.58014 0.0
H671 H 0.67712 0.44613 0.58107 0.0
H672 H 0.46509 0.30007 0.50295 0.0
H673 H 0.51122 0.26495 0.49528 0.0
H674 H 0.45403 0.37099 0.49151 0.0
H675 H 0.46934 0.42923 0.51442 0.0
loop_
_geom_bond_atom_site_label_1
_geom_bond_atom_site_label_2
_geom_bond_distance
_geom_bond_site_symmetry_2
_ccdc_geom_bond_type
H0 C1 0.949 . S
C1 H0 0.949 . S
C1 C2 1.395 . S
C1 C3 1.391 . S
C2 C1 1.395 . S
C2 C5 1.390 . S
C3 C1 1.391 . S
C3 C7 1.387 . S
C3 C8 1.491 . S
H4 C5 0.950 . S
C5 C2 1.390 . S
C5 H4 0.950 . S
C5 C6 1.378 . S
C6 C5 1.378 . S
C6 C7 1.409 . S
C7 C3 1.387 . S
C7 C6 1.409 . S
C7 H9 0.951 . S
C8 C3 1.491 . S
C8 C10 1.382 . S
C8 C12 1.404 . S
H9 C7 0.951 . S
C10 C8 1.382 . S
C10 C11 1.390 . S
C10 H15 0.949 . S
C11 C10 1.390 . S
C11 C16 1.399 . S
C12 C8 1.404 . S
C12 H13 0.950 . S
C12 C14 1.375 . S
H13 C12 0.950 . S
C14 C12 1.375 . S
C14 C16 1.382 . S
C14 H18 0.950 . S
H15 C10 0.949 . S
C16 C11 1.399 . S
C16 C14 1.382 . S
C16 H17 0.952 . S
H17 C16 0.952 . S
H18 C14 0.950 . S
H19 C20 0.949 . S
C20 H19 0.949 . S
C20 C21 1.395 . S
C20 C22 1.391 . S
C21 C20 1.395 . S
C21 C24 1.390 . S
C22 C20 1.391 . S
C22 C26 1.387 . S
C22 C27 1.491 . S
H23 C24 0.950 . S
C24 C21 1.390 . S
C24 H23 0.950 . S
C24 C25 1.378 . S
C25 C24 1.378 . S
C25 C26 1.409 . S
C26 C22 1.387 . S
C26 C25 1.409 . S
C26 H28 0.951 . S
C27 C22 1.491 . S
C27 C29 1.382 . S
C27 C31 1.404 . S
H28 C26 0.951 . S
C29 C27 1.382 . S
C29 C30 1.390 . S
C29 H34 0.949 . S
C30 C29 1.390 . S
C30 C35 1.399 . S
C31 C27 1.404 . S
C31 H32 0.950 . S
C31 C33 1.375 . S
H32 C31 0.950 . S
C33 C31 1.375 . S
C33 C35 1.382 . S
C33 H37 0.950 . S
H34 C29 0.949 . S
C35 C30 1.399 . S
C35 C33 1.382 . S
C35 H36 0.952 . S
H36 C35 0.952 . S
H37 C33 0.950 . S
H38 C39 0.949 . S
C39 H38 0.949 . S
C39 C40 1.395 . S
C39 C41 1.391 . S
C40 C39 1.395 . S
C40 C43 1.390 1_556 S
C41 C39 1.391 . S
C41 C45 1.387 . S
C41 C46 1.491 . S
H42 C43 0.950 . S
C43 C40 1.390 1_554 S
C43 H42 0.950 . S
C43 C44 1.378 1_554 S
C44 C43 1.378 1_556 S
C44 C45 1.409 . S
C45 C41 1.387 . S
C45 C44 1.409 . S
C45 H47 0.951 . S
C46 C41 1.491 . S
C46 C48 1.382 . S
C46 C50 1.404 . S
H47 C45 0.951 . S
C48 C46 1.382 . S
C48 C49 1.390 . S
C48 H53 0.949 . S
C49 C48 1.390 . S
C49 C54 1.399 . S
C50 C46 1.404 . S
C50 H51 0.950 . S
C50 C52 1.375 . S
H51 C50 0.950 . S
C52 C50 1.375 . S
C52 C54 1.382 . S
C52 H56 0.950 . S
H53 C48 0.949 . S
C54 C49 1.399 . S
C54 C52 1.382 . S
C54 H55 0.952 . S
H55 C54 0.952 . S
H56 C52 0.950 . S
H57 C58 0.949 . S
C58 H57 0.949 . S
C58 C59 1.395 . S
C58 C60 1.391 . S
C59 C58 1.395 . S
C59 C62 1.390 . S
C60 C58 1.391 . S
C60 C64 1.387 . S
C60 C65 1.491 . S
H61 C62 0.950 . S
C62 C59 1.390 . S
C62 H61 0.950 . S
C62 C63 1.378 . S
C63 C62 1.378 . S
C63 C64 1.409 . S
C64 C60 1.387 . S
C64 C63 1.409 . S
C64 H66 0.951 . S
C65 C60 1.491 . S
C65 C67 1.382 . S
C65 C69 1.404 . S
H66 C64 0.951 . S
C67 C65 1.382 . S
C67 C68 1.390 . S
C67 H72 0.949 . S
C68 C67 1.390 . S
C68 C73 1.399 . S
C69 C65 1.404 . S
C69 H70 0.950 . S
C69 C71 1.375 . S
H70 C69 0.950 . S
C71 C69 1.375 . S
C71 C73 1.382 . S
C71 H75 0.950 . S
H72 C67 0.949 . S
C73 C68 1.399 . S
C73 C71 1.382 . S
C73 H74 0.952 . S
H74 C73 0.952 . S
H75 C71 0.950 . S
H76 C77 0.949 . S
C77 H76 0.949 . S
C77 C78 1.395 . S
C77 C79 1.381 1_565 S
C78 C77 1.395 . S
C78 C81 1.390 . S
C79 C77 1.381 1_545 S
C79 C83 1.391 . S
C79 C84 1.498 . S
H80 C81 0.950 1_455 S
C81 C78 1.390 . S
C81 H80 0.950 1_655 S
C81 C82 1.378 1_565 S
C82 C81 1.378 1_545 S
C82 C83 1.409 . S
C83 C79 1.391 . S
C83 C82 1.409 . S
C83 H85 0.951 . S
C84 C79 1.498 . S
C84 C86 1.382 . S
C84 C88 1.404 . S
H85 C83 0.951 . S
C86 C84 1.382 . S
C86 C87 1.390 . S
C86 H91 0.949 1_556 S
C87 C86 1.390 . S
C87 C92 1.399 . S
C88 C84 1.404 . S
C88 H89 0.950 . S
C88 C90 1.375 . S
H89 C88 0.950 . S
C90 C88 1.375 . S
C90 C92 1.382 . S
C90 H94 0.950 . S
H91 C86 0.949 1_554 S
C92 C87 1.399 . S
C92 C90 1.382 . S
C92 H93 0.952 . S
H93 C92 0.952 . S
H94 C90 0.950 . S
H95 C96 0.949 . S
C96 H95 0.949 . S
C96 C97 1.395 . S
C96 C98 1.391 . S
C97 C96 1.395 . S
C97 C100 1.390 . S
C98 C96 1.391 . S
C98 C102 1.387 . S
C98 C103 1.491 . S
H99 C100 0.950 . S
C100 C97 1.390 . S
C100 H99 0.950 . S
C100 C101 1.378 . S
C101 C100 1.378 . S
C101 C102 1.409 . S
C102 C98 1.387 . S
C102 C101 1.409 . S
C102 H104 0.951 . S
C103 C98 1.491 . S
C103 C105 1.382 . S
C103 C107 1.404 . S
H104 C102 0.951 . S
C105 C103 1.382 . S
C105 C106 1.390 . S
C105 H110 0.949 . S
C106 C105 1.390 . S
C106 C111 1.399 . S
C107 C103 1.404 . S
C107 H108 0.950 . S
C107 C109 1.375 . S
H108 C107 0.950 . S
C109 C107 1.375 . S
C109 C111 1.382 . S
C109 H113 0.950 . S
H110 C105 0.949 . S
C111 C106 1.399 . S
C111 C109 1.382 . S
C111 H112 0.952 . S
H112 C111 0.952 . S
H113 C109 0.950 . S
H114 C115 0.949 . S
C115 H114 0.949 . S
C115 C116 1.395 . S
C115 C117 1.391 . S
C116 C115 1.395 . S
C116 C119 1.390 . S
C117 C115 1.391 . S
C117 C121 1.387 . S
C117 C122 1.491 . S
H118 C119 0.950 . S
C119 C116 1.390 . S
C119 H118 0.950 . S
C119 C120 1.378 . S
C120 C119 1.378 . S
C120 C121 1.409 . S
C121 C117 1.387 . S
C121 C120 1.409 . S
C121 H123 0.951 . S
C122 C117 1.491 . S
C122 C124 1.382 . S
C122 C126 1.404 . S
H123 C121 0.951 . S
C124 C122 1.382 . S
C124 C125 1.390 . S
C124 H129 0.949 . S
C125 C124 1.390 . S
C125 C130 1.399 . S
C126 C122 1.404 . S
C126 H127 0.950 . S
C126 C128 1.375 . S
H127 C126 0.950 . S
C128 C126 1.375 . S
C128 C130 1.382 . S
C128 H132 0.950 . S
H129 C124 0.949 . S
C130 C125 1.399 . S
C130 C128 1.382 . S
C130 H131 0.952 . S
H131 C130 0.952 . S
H132 C128 0.950 . S
H133 C134 0.949 . S
C134 H133 0.949 . S
C134 C135 1.395 . S
C134 C136 1.391 . S
C135 C134 1.395 . S
C135 C138 1.390 . S
C136 C134 1.391 . S
C136 C140 1.387 . S
C136 C141 1.491 . S
H137 C138 0.950 . S
C138 C135 1.390 . S
C138 H137 0.950 . S
C138 C139 1.378 . S
C139 C138 1.378 . S
C139 C140 1.409 . S
C140 C136 1.387 . S
C140 C139 1.409 . S
C140 H142 0.951 . S
C141 C136 1.491 . S
C141 C143 1.382 . S
C141 C145 1.404 . S
H142 C140 0.951 . S
C143 C141 1.382 . S
C143 C144 1.390 . S
C143 H148 0.949 . S
C144 C143 1.390 . S
C144 C149 1.399 . S
C145 C141 1.404 . S
C145 H146 0.950 . S
C145 C147 1.375 . S
H146 C145 0.950 . S
C147 C145 1.375 . S
C147 C149 1.382 . S
C147 H151 0.950 . S
H148 C143 0.949 . S
C149 C144 1.399 . S
C149 C147 1.382 . S
C149 H150 0.952 . S
H150 C149 0.952 . S
H151 C147 0.950 . S
O152 Zn153 1.948 1_455 S
O152 C168 1.242 . S
Zn153 O152 1.948 1_655 S
Zn153 O154 1.949 1_655 S
Zn153 O160 1.919 . S
Zn153 O165 1.924 . S
O154 Zn153 1.949 1_455 S
O154 Zn155 1.923 1_455 S
O154 Zn156 1.950 . S
O154 Zn157 1.945 1_545 S
Zn155 O154 1.923 1_655 S
Zn155 O158 1.933 1_545 S
Zn155 O161 1.941 . S
Zn155 O162 1.965 1_655 S
Zn156 O154 1.950 . S
Zn156 O163 1.938 . S
Zn156 O164 1.906 . S
Zn156 O174 1.953 . S
Zn157 O154 1.945 1_565 S
Zn157 O159 1.932 1_455 S
Zn157 O166 1.977 . S
Zn157 O167 1.910 1_455 S
O158 Zn155 1.933 1_565 S
O158 C169 1.226 . S
O159 Zn157 1.932 1_655 S
O159 C169 1.307 . S
O160 Zn153 1.919 . S
O160 C171 1.253 . S
O161 Zn155 1.941 . S
O161 C171 1.283 . S
O162 Zn155 1.965 1_455 S
O162 C170 1.303 . S
O163 Zn156 1.938 . S
O163 C170 1.247 . S
O164 Zn156 1.906 . S
O164 C172 1.304 . S
O165 Zn153 1.924 . S
O165 C173 1.311 . S
O166 Zn157 1.977 . S
O166 C172 1.272 1_565 S
O167 Zn157 1.910 1_655 S
O167 C173 1.231 1_565 S
C168 O152 1.242 . S
C168 O174 1.298 . S
C169 O158 1.226 . S
C169 O159 1.307 . S
C170 O162 1.303 . S
C170 O163 1.247 . S
C171 O160 1.253 . S
C171 O161 1.283 . S
C172 O164 1.304 . S
C172 O166 1.272 1_545 S
C173 O165 1.311 . S
C173 O167 1.231 1_545 S
O174 Zn156 1.953 . S
O174 C168 1.298 . S
O175 Zn176 1.953 . S
O175 C191 1.225 . S
Zn176 O175 1.953 . S
Zn176 O177 1.949 . S
Zn176 O183 1.919 1_554 S
Zn176 O188 1.924 . S
O177 Zn176 1.949 . S
O177 Zn178 1.923 1_545 S
O177 Zn179 1.950 . S
O177 Zn180 1.945 . S
Zn178 O177 1.923 1_565 S
Zn178 O181 1.933 . S
Zn178 O184 1.937 1_554 S
Zn178 O185 1.965 . S
Zn179 O177 1.950 . S
Zn179 O186 1.938 . S
Zn179 O187 1.906 . S
Zn179 O197 1.953 . S
Zn180 O177 1.945 . S
Zn180 O182 1.932 1_545 S
Zn180 O189 1.977 . S
Zn180 O190 1.910 . S
O181 Zn178 1.933 . S
O181 C192 1.226 . S
O182 Zn180 1.932 1_565 S
O182 C192 1.307 . S
O183 Zn176 1.919 1_556 S
O183 C194 1.253 1_545 S
O184 Zn178 1.937 1_556 S
O184 C194 1.285 . S
O185 Zn178 1.965 . S
O185 C193 1.303 1_565 S
O186 Zn179 1.938 . S
O186 C193 1.247 . S
O187 Zn179 1.906 . S
O187 C195 1.304 . S
O188 Zn176 1.924 . S
O188 C196 1.311 . S
O189 Zn180 1.977 . S
O189 C195 1.272 . S
O190 Zn180 1.910 . S
O190 C196 1.231 . S
C191 O175 1.225 . S
C191 O197 1.298 . S
C192 O181 1.226 . S
C192 O182 1.307 . S
C193 O185 1.303 1_545 S
C193 O186 1.247 . S
C194 O183 1.253 1_565 S
C194 O184 1.285 . S
C195 O187 1.304 . S
C195 O189 1.272 . S
C196 O188 1.311 . S
C196 O190 1.231 . S
O197 Zn179 1.953 . S
O197 C191 1.298 . S
O198 Zn199 1.953 . S
O198 C214 1.225 . S
Zn199 O198 1.953 . S
Zn199 O200 1.949 . S
Zn199 O206 1.919 . S
Zn199 O211 1.924 . S
O200 Zn199 1.949 . S
O200 Zn201 1.923 . S
O200 Zn202 1.950 . S
O200 Zn203 1.945 . S
Zn201 O200 1.923 . S
Zn201 O204 1.933 . S
Zn201 O207 1.941 . S
Zn201 O208 1.965 . S
Zn202 O200 1.950 . S
Zn202 O209 1.938 . S
Zn202 O210 1.906 . S
Zn202 O220 1.953 . S
Zn203 O200 1.945 . S
Zn203 O205 1.932 . S
Zn203 O212 1.977 . S
Zn203 O213 1.910 . S
O204 Zn201 1.933 . S
O204 C215 1.226 . S
O205 Zn203 1.932 . S
O205 C215 1.307 . S
O206 Zn199 1.919 . S
O206 C217 1.253 . S
O207 Zn201 1.941 . S
O207 C217 1.283 . S
O208 Zn201 1.965 . S
O208 C216 1.303 . S
O209 Zn202 1.938 . S
O209 C216 1.247 . S
O210 Zn202 1.906 . S
O210 C218 1.304 . S
O211 Zn199 1.924 . S
O211 C219 1.311 . S
O212 Zn203 1.977 . S
O212 C218 1.272 . S
O213 Zn203 1.910 . S
O213 C219 1.231 . S
C214 O198 1.225 . S
C214 O220 1.298 . S
C215 O204 1.226 . S
C215 O205 1.307 . S
C216 O208 1.303 . S
C216 O209 1.247 . S
C217 O206 1.253 . S
C217 O207 1.283 . S
C218 O210 1.304 . S
C218 O212 1.272 . S
C219 O211 1.311 . S
C219 O213 1.231 . S
O220 Zn202 1.953 . S
O220 C214 1.298 . S
O221 Zn222 1.953 . S
O221 C237 1.225 . S
Zn222 O221 1.953 . S
Zn222 O223 1.949 1_655 S
Zn222 O229 1.919 . S
Zn222 O234 1.924 . S
O223 Zn222 1.949 1_455 S
O223 Zn224 1.923 1_454 S
O223 Zn225 1.950 . S
O223 Zn226 1.945 . S
Zn224 O223 1.923 1_656 S
Zn224 O227 1.933 1_655 S
Zn224 O230 1.941 . S
Zn224 O231 1.965 . S
Zn225 O223 1.950 . S
Zn225 O232 1.938 . S
Zn225 O233 1.906 . S
Zn225 O243 1.953 . S
Zn226 O223 1.945 . S
Zn226 O228 1.932 1_554 S
Zn226 O235 1.977 . S
Zn226 O236 1.910 . S
O227 Zn224 1.933 1_455 S
O227 C238 1.226 . S
O228 Zn226 1.932 1_556 S
O228 C238 1.307 . S
O229 Zn222 1.919 . S
O229 C240 1.253 1_554 S
O230 Zn224 1.941 . S
O230 C240 1.283 . S
O231 Zn224 1.965 . S
O231 C239 1.303 1_656 S
O232 Zn225 1.938 . S
O232 C239 1.247 . S
O233 Zn225 1.906 . S
O233 C241 1.304 . S
O234 Zn222 1.924 . S
O234 C242 1.311 1_655 S
O235 Zn226 1.977 . S
O235 C241 1.272 . S
O236 Zn226 1.910 . S
O236 C242 1.231 . S
C237 O221 1.225 . S
C237 O243 1.298 1_655 S
C238 O227 1.226 . S
C238 O228 1.307 . S
C239 O231 1.303 1_454 S
C239 O232 1.247 . S
C240 O229 1.253 1_556 S
C240 O230 1.283 . S
C241 O233 1.304 . S
C241 O235 1.272 . S
C242 O234 1.311 1_455 S
C242 O236 1.231 . S
O243 Zn225 1.953 . S
O243 C237 1.298 1_455 S
C244 C245 1.363 . S
C244 C250 1.379 . S
C244 N252 1.356 . S
C245 C244 1.363 . S
C245 C251 1.363 . S
C246 C247 1.363 . S
C246 C251 1.379 . S
C246 N253 1.356 . S
C247 C246 1.363 . S
C247 C250 1.363 . S
N248 C250 1.354 . S
N248 H260 0.986 1_455 S
N248 H261 0.984 1_455 S
N249 C251 1.356 . S
N249 H254 0.984 . S
N249 H255 0.985 . S
C250 C244 1.379 . S
C250 C247 1.363 . S
C250 N248 1.354 . S
C251 C245 1.363 . S
C251 C246 1.379 . S
C251 N249 1.356 . S
N252 C244 1.356 . S
N252 H258 0.984 . S
N252 H259 0.984 . S
N253 C246 1.356 . S
N253 H256 0.984 . S
N253 H257 0.985 . S
H254 N249 0.984 . S
H255 N249 0.985 . S
H256 N253 0.984 . S
H257 N253 0.985 . S
H258 N252 0.984 . S
H259 N252 0.984 . S
H260 N248 0.986 1_655 S
H261 N248 0.984 1_655 S
C262 C263 1.363 . S
C262 C268 1.379 . S
C262 N270 1.356 1_565 S
C263 C262 1.363 . S
C263 C269 1.363 . S
C264 C265 1.363 . S
C264 C269 1.379 . S
C264 N271 1.356 . S
C265 C264 1.363 . S
C265 C268 1.363 . S
N266 C268 1.356 1_545 S
N266 H278 0.984 . S
N266 H279 0.985 . S
N267 C269 1.356 . S
N267 H272 0.984 . S
N267 H273 0.985 . S
C268 C262 1.379 . S
C268 C265 1.363 . S
C268 N266 1.356 1_565 S
C269 C263 1.363 . S
C269 C264 1.379 . S
C269 N267 1.356 . S
N270 C262 1.356 1_545 S
N270 H276 0.984 . S
N270 H277 0.984 1_545 S
N271 C264 1.356 . S
N271 H274 0.984 . S
N271 H275 0.985 . S
H272 N267 0.984 . S
H273 N267 0.985 . S
H274 N271 0.984 . S
H275 N271 0.985 . S
H276 N270 0.984 . S
H277 N270 0.984 1_565 S
H278 N266 0.984 . S
H279 N266 0.985 . S
C280 C281 1.363 . S
C280 C286 1.379 . S
C280 N288 1.356 . S
C281 C280 1.363 . S
C281 C287 1.363 . S
C282 C283 1.363 . S
C282 C287 1.379 . S
C282 N289 1.356 . S
C283 C282 1.363 . S
C283 C286 1.363 . S
N284 C286 1.356 . S
N284 H296 0.984 . S
N284 H297 0.985 . S
N285 C287 1.356 . S
N285 H290 0.984 . S
N285 H291 0.985 . S
C286 C280 1.379 . S
C286 C283 1.363 . S
C286 N284 1.356 . S
C287 C281 1.363 . S
C287 C282 1.379 . S
C287 N285 1.356 . S
N288 C280 1.356 . S
N288 H294 0.984 . S
N288 H295 0.984 . S
N289 C282 1.356 . S
N289 H292 0.984 . S
N289 H293 0.985 . S
H290 N285 0.984 . S
H291 N285 0.985 . S
H292 N289 0.984 . S
H293 N289 0.985 . S
H294 N288 0.984 . S
H295 N288 0.984 . S
H296 N284 0.984 . S
H297 N284 0.985 . S
C298 C299 1.363 . S
C298 C304 1.379 . S
C298 N306 1.356 . S
C299 C298 1.363 . S
C299 C305 1.363 . S
C300 C301 1.363 . S
C300 C305 1.379 . S
C300 N307 1.356 1_655 S
C301 C300 1.363 . S
C301 C304 1.363 . S
N302 C304 1.356 . S
N302 H314 0.984 . S
N302 H315 0.985 . S
N303 C305 1.356 . S
N303 H308 0.984 . S
N303 H309 0.985 1_655 S
C304 C298 1.379 . S
C304 C301 1.363 . S
C304 N302 1.356 . S
C305 C299 1.363 . S
C305 C300 1.379 . S
C305 N303 1.356 . S
N306 C298 1.356 . S
N306 H312 0.984 . S
N306 H313 0.984 . S
N307 C300 1.356 1_455 S
N307 H310 0.984 . S
N307 H311 0.985 . S
H308 N303 0.984 . S
H309 N303 0.985 1_455 S
H310 N307 0.984 . S
H311 N307 0.985 . S
H312 N306 0.984 . S
H313 N306 0.984 . S
H314 N302 0.984 . S
H315 N302 0.985 . S
C316 C317 1.363 . S
C316 C322 1.379 . S
C316 N324 1.356 . S
C317 C316 1.363 . S
C317 C323 1.363 . S
C318 C319 1.363 . S
C318 C323 1.379 . S
C318 N325 1.356 . S
C319 C318 1.363 . S
C319 C322 1.363 . S
N320 C322 1.356 . S
N320 H332 0.984 . S
N320 H333 0.985 . S
N321 C323 1.356 . S
N321 H326 0.984 . S
N321 H327 0.985 . S
C322 C316 1.379 . S
C322 C319 1.363 . S
C322 N320 1.356 . S
C323 C317 1.363 . S
C323 C318 1.379 . S
C323 N321 1.356 . S
N324 C316 1.356 . S
N324 H330 0.984 . S
N324 H331 0.984 . S
N325 C318 1.356 . S
N325 H328 0.984 . S
N325 H329 0.985 . S
H326 N321 0.984 . S
H327 N321 0.985 . S
H328 N325 0.984 . S
H329 N325 0.985 . S
H330 N324 0.984 . S
H331 N324 0.984 . S
H332 N320 0.984 . S
H333 N320 0.985 . S
C334 C335 1.363 . S
C334 C340 1.379 . S
C334 N342 1.356 . S
C335 C334 1.363 . S
C335 C341 1.363 1_565 S
C336 C337 1.363 1_545 S
C336 C341 1.379 . S
C336 N343 1.356 . S
C337 C336 1.363 1_565 S
C337 C340 1.363 . S
N338 C340 1.356 . S
N338 H350 0.984 . S
N338 H351 0.985 . S
N339 C341 1.356 . S
N339 H344 0.984 . S
N339 H345 0.985 . S
C340 C334 1.379 . S
C340 C337 1.363 . S
C340 N338 1.356 . S
C341 C335 1.363 1_545 S
C341 C336 1.379 . S
C341 N339 1.356 . S
N342 C334 1.356 . S
N342 H348 0.984 . S
N342 H349 0.984 . S
N343 C336 1.356 . S
N343 H346 0.984 . S
N343 H347 0.985 . S
H344 N339 0.984 . S
H345 N339 0.985 . S
H346 N343 0.984 . S
H347 N343 0.985 . S
H348 N342 0.984 . S
H349 N342 0.984 . S
H350 N338 0.984 . S
H351 N338 0.985 . S
C352 C353 1.363 . S
C352 C358 1.379 . S
C352 N360 1.356 . S
C353 C352 1.363 . S
C353 C359 1.363 . S
C354 C355 1.363 . S
C354 C359 1.379 . S
C354 N361 1.356 . S
C355 C354 1.363 . S
C355 C358 1.363 . S
N356 C358 1.356 . S
N356 H368 0.984 . S
N356 H369 0.985 . S
N357 C359 1.356 1_554 S
N357 H362 0.984 . S
N357 H363 0.985 . S
C358 C352 1.379 . S
C358 C355 1.363 . S
C358 N356 1.356 . S
C359 C353 1.363 . S
C359 C354 1.379 . S
C359 N357 1.356 1_556 S
N360 C352 1.356 . S
N360 H366 0.984 . S
N360 H367 0.984 . S
N361 C354 1.356 . S
N361 H364 0.984 . S
N361 H365 0.985 1_556 S
H362 N357 0.984 . S
H363 N357 0.985 . S
H364 N361 0.984 . S
H365 N361 0.985 1_554 S
H366 N360 0.984 . S
H367 N360 0.984 . S
H368 N356 0.984 . S
H369 N356 0.985 . S
C370 C371 1.363 . S
C370 C376 1.379 . S
C370 N378 1.356 . S
C371 C370 1.363 . S
C371 C377 1.363 . S
C372 C373 1.363 . S
C372 C377 1.379 . S
C372 N379 1.356 . S
C373 C372 1.363 . S
C373 C376 1.363 . S
N374 C376 1.356 . S
N374 H386 0.984 . S
N374 H387 0.985 . S
N375 C377 1.356 . S
N375 H380 0.984 . S
N375 H381 0.985 . S
C376 C370 1.379 . S
C376 C373 1.363 . S
C376 N374 1.356 . S
C377 C371 1.363 . S
C377 C372 1.379 . S
C377 N375 1.356 . S
N378 C370 1.356 . S
N378 H384 0.984 . S
N378 H385 0.984 . S
N379 C372 1.356 . S
N379 H382 0.984 . S
N379 H383 0.985 . S
H380 N375 0.984 . S
H381 N375 0.985 . S
H382 N379 0.984 . S
H383 N379 0.985 . S
H384 N378 0.984 . S
H385 N378 0.984 . S
H386 N374 0.984 . S
H387 N374 0.985 . S
C388 C389 1.363 . S
C388 C394 1.379 . S
C388 N396 1.356 . S
C389 C388 1.363 . S
C389 C395 1.363 . S
C390 C391 1.363 . S
C390 C395 1.379 . S
C390 N397 1.356 . S
C391 C390 1.363 . S
C391 C394 1.363 . S
N392 C394 1.356 . S
N392 H404 0.984 . S
N392 H405 0.985 . S
N393 C395 1.356 . S
N393 H398 0.984 . S
N393 H399 0.985 . S
C394 C388 1.379 . S
C394 C391 1.363 . S
C394 N392 1.356 . S
C395 C389 1.363 . S
C395 C390 1.379 . S
C395 N393 1.356 . S
N396 C388 1.356 . S
N396 H402 0.984 . S
N396 H403 0.984 . S
N397 C390 1.356 . S
N397 H400 0.984 . S
N397 H401 0.985 1_554 S
H398 N393 0.984 . S
H399 N393 0.985 . S
H400 N397 0.984 . S
H401 N397 0.985 1_556 S
H402 N396 0.984 . S
H403 N396 0.984 . S
H404 N392 0.984 . S
H405 N392 0.985 . S
C406 C407 1.363 1_556 S
C406 C412 1.379 . S
C406 N414 1.356 . S
C407 C406 1.363 1_554 S
C407 C413 1.363 . S
C408 C409 1.363 . S
C408 C413 1.379 . S
C408 N415 1.356 . S
C409 C408 1.363 . S
C409 C412 1.363 1_554 S
N410 C412 1.356 . S
N410 H422 0.984 . S
N410 H423 0.985 . S
N411 C413 1.356 . S
N411 H416 0.984 . S
N411 H417 0.985 . S
C412 C406 1.379 . S
C412 C409 1.363 1_556 S
C412 N410 1.356 . S
C413 C407 1.363 . S
C413 C408 1.379 . S
C413 N411 1.356 . S
N414 C406 1.356 . S
N414 H420 0.984 . S
N414 H421 0.984 . S
N415 C408 1.356 . S
N415 H418 0.984 . S
N415 H419 0.985 . S
H416 N411 0.984 . S
H417 N411 0.985 . S
H418 N415 0.984 . S
H419 N415 0.985 . S
H420 N414 0.984 . S
H421 N414 0.984 . S
H422 N410 0.984 . S
H423 N410 0.985 . S
C424 C425 1.363 . S
C424 C430 1.379 . S
C424 N432 1.356 . S
C425 C424 1.363 . S
C425 C431 1.363 . S
C426 C427 1.363 . S
C426 C431 1.379 . S
C426 N433 1.356 . S
C427 C426 1.363 . S
C427 C430 1.363 . S
N428 C430 1.356 . S
N428 H440 0.984 . S
N428 H441 0.985 . S
N429 C431 1.356 . S
N429 H434 0.984 . S
N429 H435 0.985 . S
C430 C424 1.379 . S
C430 C427 1.363 . S
C430 N428 1.356 . S
C431 C425 1.363 . S
C431 C426 1.379 . S
C431 N429 1.356 . S
N432 C424 1.356 . S
N432 H438 0.984 . S
N432 H439 0.984 . S
N433 C426 1.356 . S
N433 H436 0.984 . S
N433 H437 0.985 1_655 S
H434 N429 0.984 . S
H435 N429 0.985 . S
H436 N433 0.984 . S
H437 N433 0.985 1_455 S
H438 N432 0.984 . S
H439 N432 0.984 . S
H440 N428 0.984 . S
H441 N428 0.985 . S
C442 C443 1.363 . S
C442 C448 1.379 . S
C442 N450 1.356 . S
C443 C442 1.363 . S
C443 C449 1.363 . S
C444 C445 1.363 . S
C444 C449 1.379 . S
C444 N451 1.356 . S
C445 C444 1.363 . S
C445 C448 1.363 . S
N446 C448 1.356 . S
N446 H458 0.984 . S
N446 H459 0.985 . S
N447 C449 1.356 . S
N447 H452 0.984 . S
N447 H453 0.985 . S
C448 C442 1.379 . S
C448 C445 1.363 . S
C448 N446 1.356 . S
C449 C443 1.363 . S
C449 C444 1.379 . S
C449 N447 1.356 . S
N450 C442 1.356 . S
N450 H456 0.984 . S
N450 H457 0.984 . S
N451 C444 1.356 . S
N451 H454 0.984 . S
N451 H455 0.985 . S
H452 N447 0.984 . S
H453 N447 0.985 . S
H454 N451 0.984 . S
H455 N451 0.985 . S
H456 N450 0.984 . S
H457 N450 0.984 . S
H458 N446 0.984 . S
H459 N446 0.985 . S
C460 C461 1.363 . S
C460 C466 1.379 . S
C460 N468 1.356 . S
C461 C460 1.363 . S
C461 C467 1.363 1_545 S
C462 C463 1.363 1_565 S
C462 C467 1.379 . S
C462 N469 1.356 . S
C463 C462 1.363 1_545 S
C463 C466 1.363 . S
N464 C466 1.356 . S
N464 H476 0.984 . S
N464 H477 0.985 . S
N465 C467 1.356 . S
N465 H470 0.984 . S
N465 H471 0.985 . S
C466 C460 1.379 . S
C466 C463 1.363 . S
C466 N464 1.356 . S
C467 C461 1.363 1_565 S
C467 C462 1.379 . S
C467 N465 1.356 . S
N468 C460 1.356 . S
N468 H474 0.984 . S
N468 H475 0.984 . S
N469 C462 1.356 . S
N469 H472 0.984 . S
N469 H473 0.985 . S
H470 N465 0.984 . S
H471 N465 0.985 . S
H472 N469 0.984 . S
H473 N469 0.985 . S
H474 N468 0.984 . S
H475 N468 0.984 . S
H476 N464 0.984 . S
H477 N464 0.985 . S
C478 C479 1.363 . S
C478 C484 1.379 . S
C478 N486 1.356 . S
C479 C478 1.363 . S
C479 C485 1.363 . S
C480 C481 1.363 . S
C480 C485 1.379 . S
C480 N487 1.356 . S
C481 C480 1.363 . S
C481 C484 1.363 . S
N482 C484 1.356 . S
N482 H494 0.984 . S
N482 H495 0.985 . S
N483 C485 1.356 . S
N483 H488 0.984 . S
N483 H489 0.985 1_545 S
C484 C478 1.379 . S
C484 C481 1.363 . S
C484 N482 1.356 . S
C485 C479 1.363 . S
C485 C480 1.379 . S
C485 N483 1.356 . S
N486 C478 1.356 . S
N486 H492 0.984 . S
N486 H493 0.984 . S
N487 C480 1.356 . S
N487 H490 0.984 . S
N487 H491 0.985 1_545 S
H488 N483 0.984 . S
H489 N483 0.985 1_565 S
H490 N487 0.984 . S
H491 N487 0.985 1_565 S
H492 N486 0.984 . S
H493 N486 0.984 . S
H494 N482 0.984 . S
H495 N482 0.985 . S
C496 C497 1.363 . S
C496 C502 1.379 . S
C496 N504 1.356 . S
C497 C496 1.363 . S
C497 C503 1.363 . S
C498 C499 1.363 . S
C498 C503 1.379 . S
C498 N505 1.356 . S
C499 C498 1.363 . S
C499 C502 1.363 . S
N500 C502 1.356 . S
N500 H512 0.984 . S
N500 H513 0.985 . S
N501 C503 1.356 . S
N501 H506 0.984 . S
N501 H507 0.985 . S
C502 C496 1.379 . S
C502 C499 1.363 . S
C502 N500 1.356 . S
C503 C497 1.363 . S
C503 C498 1.379 . S
C503 N501 1.356 . S
N504 C496 1.356 . S
N504 H510 0.984 . S
N504 H511 0.984 . S
N505 C498 1.356 . S
N505 H508 0.984 . S
N505 H509 0.985 . S
H506 N501 0.984 . S
H507 N501 0.985 . S
H508 N505 0.984 . S
H509 N505 0.985 . S
H510 N504 0.984 . S
H511 N504 0.984 . S
H512 N500 0.984 . S
H513 N500 0.985 . S
C514 C515 1.363 . S
C514 C520 1.379 . S
C514 N522 1.356 . S
C515 C514 1.363 . S
C515 C521 1.363 . S
C516 C517 1.363 . S
C516 C521 1.379 . S
C516 N523 1.356 . S
C517 C516 1.363 . S
C517 C520 1.363 . S
N518 C520 1.356 . S
N518 H530 0.984 . S
N518 H531 0.985 . S
N519 C521 1.356 . S
N519 H524 0.984 . S
N519 H525 0.985 . S
C520 C514 1.379 . S
C520 C517 1.363 . S
C520 N518 1.356 . S
C521 C515 1.363 . S
C521 C516 1.379 . S
C521 N519 1.356 . S
N522 C514 1.356 . S
N522 H528 0.984 . S
N522 H529 0.984 . S
N523 C516 1.356 . S
N523 H526 0.984 . S
N523 H527 0.985 . S
H524 N519 0.984 . S
H525 N519 0.985 . S
H526 N523 0.984 . S
H527 N523 0.985 . S
H528 N522 0.984 . S
H529 N522 0.984 . S
H530 N518 0.984 . S
H531 N518 0.985 . S
C532 C533 1.363 . S
C532 C538 1.379 . S
C532 N540 1.356 . S
C533 C532 1.363 . S
C533 C539 1.363 1_545 S
C534 C535 1.363 1_565 S
C534 C539 1.379 . S
C534 N541 1.356 . S
C535 C534 1.363 1_545 S
C535 C538 1.363 . S
N536 C538 1.356 . S
N536 H548 0.984 . S
N536 H549 0.985 . S
N537 C539 1.356 . S
N537 H542 0.984 . S
N537 H543 0.985 . S
C538 C532 1.379 . S
C538 C535 1.363 . S
C538 N536 1.356 . S
C539 C533 1.363 1_565 S
C539 C534 1.379 . S
C539 N537 1.356 . S
N540 C532 1.356 . S
N540 H546 0.984 . S
N540 H547 0.984 . S
N541 C534 1.356 . S
N541 H544 0.984 . S
N541 H545 0.985 . S
H542 N537 0.984 . S
H543 N537 0.985 . S
H544 N541 0.984 . S
H545 N541 0.985 . S
H546 N540 0.984 . S
H547 N540 0.984 . S
H548 N536 0.984 . S
H549 N536 0.985 . S
C550 C551 1.363 . S
C550 C556 1.379 . S
C550 N558 1.356 . S
C551 C550 1.363 . S
C551 C557 1.363 . S
C552 C553 1.363 . S
C552 C557 1.379 . S
C552 N559 1.356 . S
C553 C552 1.363 . S
C553 C556 1.363 . S
N554 C556 1.356 1_565 S
N554 H566 0.984 . S
N554 H567 0.985 . S
N555 C557 1.356 . S
N555 H560 0.984 . S
N555 H561 0.985 . S
C556 C550 1.379 . S
C556 C553 1.363 . S
C556 N554 1.356 1_545 S
C557 C551 1.363 . S
C557 C552 1.379 . S
C557 N555 1.356 . S
N558 C550 1.356 . S
N558 H564 0.984 1_545 S
N558 H565 0.984 . S
N559 C552 1.356 . S
N559 H562 0.984 . S
N559 H563 0.985 . S
H560 N555 0.984 . S
H561 N555 0.985 . S
H562 N559 0.984 . S
H563 N559 0.985 . S
H564 N558 0.984 1_565 S
H565 N558 0.984 . S
H566 N554 0.984 . S
H567 N554 0.985 . S
C568 C569 1.363 . S
C568 C574 1.379 . S
C568 N576 1.356 . S
C569 C568 1.363 . S
C569 C575 1.363 . S
C570 C571 1.363 . S
C570 C575 1.379 . S
C570 N577 1.356 . S
C571 C570 1.363 . S
C571 C574 1.363 . S
N572 C574 1.356 . S
N572 H584 0.984 . S
N572 H585 0.985 . S
N573 C575 1.356 . S
N573 H578 0.984 . S
N573 H579 0.985 . S
C574 C568 1.379 . S
C574 C571 1.363 . S
C574 N572 1.356 . S
C575 C569 1.363 . S
C575 C570 1.379 . S
C575 N573 1.356 . S
N576 C568 1.356 . S
N576 H582 0.984 . S
N576 H583 0.984 . S
N577 C570 1.356 . S
N577 H580 0.984 . S
N577 H581 0.985 . S
H578 N573 0.984 . S
H579 N573 0.985 . S
H580 N577 0.984 . S
H581 N577 0.985 . S
H582 N576 0.984 . S
H583 N576 0.984 . S
H584 N572 0.984 . S
H585 N572 0.985 . S
C586 C587 1.363 . S
C586 C592 1.379 . S
C586 N594 1.356 . S
C587 C586 1.363 . S
C587 C593 1.363 . S
C588 C589 1.363 . S
C588 C593 1.379 . S
C588 N595 1.356 . S
C589 C588 1.363 . S
C589 C592 1.363 . S
N590 C592 1.356 . S
N590 H602 0.984 . S
N590 H603 0.985 . S
N591 C593 1.356 . S
N591 H596 0.984 . S
N591 H597 0.985 . S
C592 C586 1.379 . S
C592 C589 1.363 . S
C592 N590 1.356 . S
C593 C587 1.363 . S
C593 C588 1.379 . S
C593 N591 1.356 . S
N594 C586 1.356 . S
N594 H600 0.984 . S
N594 H601 0.984 . S
N595 C588 1.356 . S
N595 H598 0.984 . S
N595 H599 0.985 . S
H596 N591 0.984 . S
H597 N591 0.985 . S
H598 N595 0.984 . S
H599 N595 0.985 . S
H600 N594 0.984 . S
H601 N594 0.984 . S
H602 N590 0.984 . S
H603 N590 0.985 . S
C604 C605 1.363 . S
C604 C610 1.379 . S
C604 N612 1.356 . S
C605 C604 1.363 . S
C605 C611 1.365 1_556 S
C606 C607 1.363 1_454 S
C606 C611 1.378 1_455 S
C606 N613 1.356 . S
C607 C606 1.363 1_656 S
C607 C610 1.363 . S
N608 C610 1.356 . S
N608 H620 0.984 . S
N608 H621 0.985 . S
N609 C611 1.356 1_455 S
N609 H614 0.984 . S
N609 H615 0.985 . S
C610 C604 1.379 . S
C610 C607 1.363 . S
C610 N608 1.356 . S
C611 C605 1.365 1_554 S
C611 C606 1.378 1_655 S
C611 N609 1.356 1_655 S
N612 C604 1.356 . S
N612 H618 0.984 . S
N612 H619 0.984 . S
N613 C606 1.356 . S
N613 H616 0.984 . S
N613 H617 0.985 . S
H614 N609 0.984 . S
H615 N609 0.985 . S
H616 N613 0.984 . S
H617 N613 0.985 . S
H618 N612 0.984 . S
H619 N612 0.984 . S
H620 N608 0.984 . S
H621 N608 0.985 . S
C622 C623 1.363 . S
C622 C628 1.379 . S
C622 N630 1.356 . S
C623 C622 1.363 . S
C623 C629 1.363 . S
C624 C625 1.363 . S
C624 C629 1.379 . S
C624 N631 1.356 . S
C625 C624 1.363 . S
C625 C628 1.363 . S
N626 C628 1.356 . S
N626 H638 0.984 . S
N626 H639 0.985 . S
N627 C629 1.356 . S
N627 H632 0.984 . S
N627 H633 0.985 . S
C628 C622 1.379 . S
C628 C625 1.363 . S
C628 N626 1.356 . S
C629 C623 1.363 . S
C629 C624 1.379 . S
C629 N627 1.356 . S
N630 C622 1.356 . S
N630 H636 0.984 . S
N630 H637 0.984 . S
N631 C624 1.356 . S
N631 H634 0.984 . S
N631 H635 0.985 . S
H632 N627 0.984 . S
H633 N627 0.985 . S
H634 N631 0.984 . S
H635 N631 0.985 . S
H636 N630 0.984 . S
H637 N630 0.984 . S
H638 N626 0.984 . S
H639 N626 0.985 . S
C640 C641 1.363 . S
C640 C646 1.379 . S
C640 N648 1.356 . S
C641 C640 1.363 . S
C641 C647 1.363 . S
C642 C643 1.363 . S
C642 C647 1.379 . S
C642 N649 1.356 . S
C643 C642 1.363 . S
C643 C646 1.363 . S
N644 C646 1.356 . S
N644 H656 0.984 . S
N644 H657 0.985 . S
N645 C647 1.356 . S
N645 H650 0.984 . S
N645 H651 0.985 . S
C646 C640 1.379 . S
C646 C643 1.363 . S
C646 N644 1.356 . S
C647 C641 1.363 . S
C647 C642 1.379 . S
C647 N645 1.356 . S
N648 C640 1.356 . S
N648 H654 0.984 . S
N648 H655 0.984 . S
N649 C642 1.356 . S
N649 H652 0.984 . S
N649 H653 0.991 . S
H650 N645 0.984 . S
H651 N645 0.985 . S
H652 N649 0.984 . S
H653 N649 0.991 . S
H654 N648 0.984 . S
H655 N648 0.984 . S
H656 N644 0.984 . S
H657 N644 0.985 . S
C658 C659 1.363 . S
C658 C664 1.379 . S
C658 N666 1.356 . S
C659 C658 1.363 . S
C659 C665 1.363 . S
C660 C661 1.363 . S
C660 C665 1.379 . S
C660 N667 1.356 . S
C661 C660 1.363 . S
C661 C664 1.363 . S
N662 C664 1.356 . S
N662 H674 0.984 . S
N662 H675 0.985 . S
N663 C665 1.356 . S
N663 H668 0.984 . S
N663 H669 0.985 . S
C664 C658 1.379 . S
C664 C661 1.363 . S
C664 N662 1.356 . S
C665 C659 1.363 . S
C665 C660 1.379 . S
C665 N663 1.356 . S
N666 C658 1.356 . S
N666 H672 0.984 . S
N666 H673 0.984 . S
N667 C660 1.356 . S
N667 H670 0.984 . S
N667 H671 0.985 . S
H668 N663 0.984 . S
H669 N663 0.985 . S
H670 N667 0.984 . S
H671 N667 0.985 . S
H672 N666 0.984 . S
H673 N666 0.984 . S
H674 N662 0.984 . S
H675 N662 0.985 . S
C245 C6 1.823 . S
C247 C170 1.780 . S
C263 C21 2.092 . S
C265 C194 2.009 . S
C283 C214 1.031 . S
C281 C49 1.009 . S
C299 C68 1.195 . S
C301 C237 1.359 . S
C319 C196 2.207 . S
C317 C2 2.226 . S
C337 C172 1.406 1_565 S
C335 C30 1.289 . S
C355 C240 1.532 . S
C353 C40 1.628 . S
C373 C217 1.389 . S
C371 C63 1.413 . S
C389 C11 1.348 . S
C391 C242 1.506 . S
C409 C191 1.766 . S
C407 C44 1.741 1_554 S
C425 C59 1.309 . S
C427 C169 1.327 . S
C443 C25 1.727 . S
C445 C219 1.706 . S
C463 C173 2.056 . S
C461 C82 2.008 . S
C479 C101 1.830 . S
C481 C195 1.866 . S
C497 C125 1.538 . S
C499 C215 1.581 . S
C515 C144 1.185 . S
C517 C238 1.381 . S
C533 C87 1.188 1_554 S
C535 C193 1.388 . S
C553 C171 2.070 . S
C551 C97 2.065 . S
C571 C241 1.365 . S
C569 C120 1.456 . S
C589 C218 1.454 . S
C587 C135 1.432 . S
C605 C78 2.060 . S
C607 C239 2.035 1_656 S
C625 C192 1.275 . S
C623 C116 1.246 . S
C643 C168 1.727 . S
C641 C139 1.677 . S
C659 C106 1.635 . S
C661 C216 1.704 . S
