# Generated by pormake.
# Topology eea, (3,6)-cn, num edge types: 1
# Building blocks:
#     Node 0, Type 0, BuildingBlock: CUQRIR_clean_linker_1, # of connection points: 3
#     Node 1, Type 0, BuildingBlock: CUQRIR_clean_linker_1, # of connection points: 3
#     Node 2, Type 0, BuildingBlock: CUQRIR_clean_linker_1, # of connection points: 3
#     Node 3, Type 0, BuildingBlock: CUQRIR_clean_linker_1, # of connection points: 3
#     Node 4, Type 0, BuildingBlock: CUQRIR_clean_linker_1, # of connection points: 3
#     Node 5, Type 0, BuildingBlock: CUQRIR_clean_linker_1, # of connection points: 3
#     Node 6, Type 0, BuildingBlock: CUQRIR_clean_linker_1, # of connection points: 3
#     Node 7, Type 0, BuildingBlock: CUQRIR_clean_linker_1, # of connection points: 3
#     Node 8, Type 0, BuildingBlock: CUQRIR_clean_linker_1, # of connection points: 3
#     Node 9, Type 0, BuildingBlock: CUQRIR_clean_linker_1, # of connection points: 3
#     Node 10, Type 0, BuildingBlock: CUQRIR_clean_linker_1, # of connection points: 3
#     Node 11, Type 0, BuildingBlock: CUQRIR_clean_linker_1, # of connection points: 3
#     Node 12, Type 0, BuildingBlock: CUQRIR_clean_linker_1, # of connection points: 3
#     Node 13, Type 0, BuildingBlock: CUQRIR_clean_linker_1, # of connection points: 3
#     Node 14, Type 0, BuildingBlock: CUQRIR_clean_linker_1, # of connection points: 3
#     Node 15, Type 0, BuildingBlock: CUQRIR_clean_linker_1, # of connection points: 3
#     Node 16, Type 0, BuildingBlock: CUQRIR_clean_linker_1, # of connection points: 3
#     Node 17, Type 0, BuildingBlock: CUQRIR_clean_linker_1, # of connection points: 3
#     Node 18, Type 1, BuildingBlock: CUWYAW_clean_sbu_0, # of connection points: 6
#     Node 19, Type 1, BuildingBlock: CUWYAW_clean_sbu_0, # of connection points: 6
#     Node 20, Type 1, BuildingBlock: CUWYAW_clean_sbu_0, # of connection points: 6
#     Node 21, Type 1, BuildingBlock: CUWYAW_clean_sbu_0, # of connection points: 6
#     Node 22, Type 1, BuildingBlock: CUWYAW_clean_sbu_0, # of connection points: 6
#     Node 23, Type 1, BuildingBlock: CUWYAW_clean_sbu_0, # of connection points: 6
#     Node 24, Type 1, BuildingBlock: CUWYAW_clean_sbu_0, # of connection points: 6
#     Node 25, Type 1, BuildingBlock: CUWYAW_clean_sbu_0, # of connection points: 6
#     Node 26, Type 1, BuildingBlock: CUWYAW_clean_sbu_0, # of connection points: 6
#     Edge 27, Type (0, 1), BuildingBlock: MIFKUJ_clean_linker_0, # of connection points: 2
#     Edge 28, Type (0, 1), BuildingBlock: MIFKUJ_clean_linker_0, # of connection points: 2
#     Edge 29, Type (0, 1), BuildingBlock: MIFKUJ_clean_linker_0, # of connection points: 2
#     Edge 30, Type (0, 1), BuildingBlock: MIFKUJ_clean_linker_0, # of connection points: 2
#     Edge 31, Type (0, 1), BuildingBlock: MIFKUJ_clean_linker_0, # of connection points: 2
#     Edge 32, Type (0, 1), BuildingBlock: MIFKUJ_clean_linker_0, # of connection points: 2
#     Edge 33, Type (0, 1), BuildingBlock: MIFKUJ_clean_linker_0, # of connection points: 2
#     Edge 34, Type (0, 1), BuildingBlock: MIFKUJ_clean_linker_0, # of connection points: 2
#     Edge 35, Type (0, 1), BuildingBlock: MIFKUJ_clean_linker_0, # of connection points: 2
#     Edge 36, Type (0, 1), BuildingBlock: MIFKUJ_clean_linker_0, # of connection points: 2
#     Edge 37, Type (0, 1), BuildingBlock: MIFKUJ_clean_linker_0, # of connection points: 2
#     Edge 38, Type (0, 1), BuildingBlock: MIFKUJ_clean_linker_0, # of connection points: 2
#     Edge 39, Type (0, 1), BuildingBlock: MIFKUJ_clean_linker_0, # of connection points: 2
#     Edge 40, Type (0, 1), BuildingBlock: MIFKUJ_clean_linker_0, # of connection points: 2
#     Edge 41, Type (0, 1), BuildingBlock: MIFKUJ_clean_linker_0, # of connection points: 2
#     Edge 42, Type (0, 1), BuildingBlock: MIFKUJ_clean_linker_0, # of connection points: 2
#     Edge 43, Type (0, 1), BuildingBlock: MIFKUJ_clean_linker_0, # of connection points: 2
#     Edge 44, Type (0, 1), BuildingBlock: MIFKUJ_clean_linker_0, # of connection points: 2
#     Edge 45, Type (0, 1), BuildingBlock: MIFKUJ_clean_linker_0, # of connection points: 2
#     Edge 46, Type (0, 1), BuildingBlock: MIFKUJ_clean_linker_0, # of connection points: 2
#     Edge 47, Type (0, 1), BuildingBlock: MIFKUJ_clean_linker_0, # of connection points: 2
#     Edge 48, Type (0, 1), BuildingBlock: MIFKUJ_clean_linker_0, # of connection points: 2
#     Edge 49, Type (0, 1), BuildingBlock: MIFKUJ_clean_linker_0, # of connection points: 2
#     Edge 50, Type (0, 1), BuildingBlock: MIFKUJ_clean_linker_0, # of connection points: 2
#     Edge 51, Type (0, 1), BuildingBlock: MIFKUJ_clean_linker_0, # of connection points: 2
#     Edge 52, Type (0, 1), BuildingBlock: MIFKUJ_clean_linker_0, # of connection points: 2
#     Edge 53, Type (0, 1), BuildingBlock: MIFKUJ_clean_linker_0, # of connection points: 2
#     Edge 54, Type (0, 1), BuildingBlock: MIFKUJ_clean_linker_0, # of connection points: 2
#     Edge 55, Type (0, 1), BuildingBlock: MIFKUJ_clean_linker_0, # of connection points: 2
#     Edge 56, Type (0, 1), BuildingBlock: MIFKUJ_clean_linker_0, # of connection points: 2
#     Edge 57, Type (0, 1), BuildingBlock: MIFKUJ_clean_linker_0, # of connection points: 2
#     Edge 58, Type (0, 1), BuildingBlock: MIFKUJ_clean_linker_0, # of connection points: 2
#     Edge 59, Type (0, 1), BuildingBlock: MIFKUJ_clean_linker_0, # of connection points: 2
#     Edge 60, Type (0, 1), BuildingBlock: MIFKUJ_clean_linker_0, # of connection points: 2
#     Edge 61, Type (0, 1), BuildingBlock: MIFKUJ_clean_linker_0, # of connection points: 2
#     Edge 62, Type (0, 1), BuildingBlock: MIFKUJ_clean_linker_0, # of connection points: 2
#     Edge 63, Type (0, 1), BuildingBlock: MIFKUJ_clean_linker_0, # of connection points: 2
#     Edge 64, Type (0, 1), BuildingBlock: MIFKUJ_clean_linker_0, # of connection points: 2
#     Edge 65, Type (0, 1), BuildingBlock: MIFKUJ_clean_linker_0, # of connection points: 2
#     Edge 66, Type (0, 1), BuildingBlock: MIFKUJ_clean_linker_0, # of connection points: 2
#     Edge 67, Type (0, 1), BuildingBlock: MIFKUJ_clean_linker_0, # of connection points: 2
#     Edge 68, Type (0, 1), BuildingBlock: MIFKUJ_clean_linker_0, # of connection points: 2
#     Edge 69, Type (0, 1), BuildingBlock: MIFKUJ_clean_linker_0, # of connection points: 2
#     Edge 70, Type (0, 1), BuildingBlock: MIFKUJ_clean_linker_0, # of connection points: 2
#     Edge 71, Type (0, 1), BuildingBlock: MIFKUJ_clean_linker_0, # of connection points: 2
#     Edge 72, Type (0, 1), BuildingBlock: MIFKUJ_clean_linker_0, # of connection points: 2
#     Edge 73, Type (0, 1), BuildingBlock: MIFKUJ_clean_linker_0, # of connection points: 2
#     Edge 74, Type (0, 1), BuildingBlock: MIFKUJ_clean_linker_0, # of connection points: 2
#     Edge 75, Type (0, 1), BuildingBlock: MIFKUJ_clean_linker_0, # of connection points: 2
#     Edge 76, Type (0, 1), BuildingBlock: MIFKUJ_clean_linker_0, # of connection points: 2
#     Edge 77, Type (0, 1), BuildingBlock: MIFKUJ_clean_linker_0, # of connection points: 2
#     Edge 78, Type (0, 1), BuildingBlock: MIFKUJ_clean_linker_0, # of connection points: 2
#     Edge 79, Type (0, 1), BuildingBlock: MIFKUJ_clean_linker_0, # of connection points: 2
#     Edge 80, Type (0, 1), BuildingBlock: MIFKUJ_clean_linker_0, # of connection points: 2
# Relax obj value: 0.103
# Max RMSD: 0.235
# Mean RMSD: 0.171
data_MOF--net-eea--node1-CUWYAW_clean_sbu_0--node2-CUQRIR_clean_linker_1--edge1-MIFKUJ_clean_linker_0
_symmetry_space_group_name_H-M    P1
_symmetry_Int_Tables_number       1
_symmetry_cell_setting            triclinic
loop_
_symmetry_equiv_pos_as_xyz
'x, y, z'
_cell_length_a     64.90845
_cell_length_b     66.757264
_cell_length_c     82.892842
_cell_angle_alpha  87.41198
_cell_angle_beta   93.466723
_cell_angle_gamma 118.69804
loop_
_atom_site_label
_atom_site_type_symbol
_atom_site_fract_x
_atom_site_fract_y
_atom_site_fract_z
_atom_type_partial_charge
C0 C 0.20497 0.09837 0.401 0.0
N1 N 0.21097 0.11529 0.41167 0.0
N2 N 0.20766 0.08092 0.40797 0.0
C3 C 0.19711 0.09923 0.38368 0.0
C4 C 0.21529 0.08784 0.42335 0.0
N5 N 0.21728 0.1087 0.42559 0.0
C6 C 0.22065 0.07409 0.43619 0.0
H7 H 0.17773 0.09205 0.38293 0.0
H8 H 0.20184 0.089 0.37597 0.0
H9 H 0.2051 0.11711 0.37902 0.0
H10 H 0.23908 0.07765 0.43522 0.0
H11 H 0.2089 0.05554 0.43448 0.0
H12 H 0.21883 0.07859 0.44852 0.0
C13 C 0.90401 0.10898 0.41403 0.0
N14 N 0.91533 0.12683 0.42423 0.0
N15 N 0.88419 0.09218 0.42054 0.0
C16 C 0.9133 0.10721 0.39826 0.0
C17 C 0.88392 0.10051 0.43511 0.0
N18 N 0.90284 0.1214 0.4374 0.0
C19 C 0.86468 0.08866 0.44689 0.0
H20 H 0.90659 0.11468 0.38843 0.0
H21 H 0.90741 0.08912 0.39543 0.0
H22 H 0.9328 0.1168 0.39863 0.0
H23 H 0.8692 0.07778 0.45527 0.0
H24 H 0.84759 0.07768 0.44051 0.0
H25 H 0.86275 0.10109 0.45423 0.0
C26 C 0.92785 0.84153 0.42956 0.0
N27 N 0.94063 0.834 0.43896 0.0
N28 N 0.91322 0.84506 0.43857 0.0
C29 C 0.92824 0.8439 0.41142 0.0
C30 C 0.91782 0.83969 0.45381 0.0
N31 N 0.93469 0.83326 0.45411 0.0
C32 C 0.90367 0.8378 0.46807 0.0
H33 H 0.92535 0.8584 0.40724 0.0
H34 H 0.91377 0.82811 0.40604 0.0
H35 H 0.94523 0.84669 0.40701 0.0
H36 H 0.89139 0.81951 0.47057 0.0
H37 H 0.89342 0.84707 0.46572 0.0
H38 H 0.91544 0.8448 0.47897 0.0
C39 C 0.12637 0.26789 0.62525 0.0
N40 N 0.14179 0.26889 0.61452 0.0
N41 N 0.10947 0.27173 0.6177 0.0
C42 C 0.12689 0.26184 0.64293 0.0
C43 C 0.11529 0.2753 0.60203 0.0
N44 N 0.135 0.27378 0.60014 0.0
C45 C 0.10048 0.27804 0.58835 0.0
H46 H 0.1147 0.24336 0.64476 0.0
H47 H 0.12091 0.27145 0.65021 0.0
H48 H 0.14483 0.26564 0.6474 0.0
H49 H 0.11181 0.29113 0.57953 0.0
H50 H 0.08782 0.283 0.59283 0.0
H51 H 0.0906 0.2616 0.58196 0.0
C52 C 0.80886 0.90864 0.62454 0.0
N53 N 0.80265 0.89225 0.61331 0.0
N54 N 0.80224 0.92435 0.61937 0.0
C55 C 0.81965 0.90843 0.64108 0.0
C56 C 0.79173 0.91696 0.60463 0.0
N57 N 0.79177 0.89738 0.60099 0.0
C58 C 0.78291 0.92977 0.59336 0.0
H59 H 0.81517 0.91773 0.64979 0.0
H60 H 0.83905 0.91703 0.64038 0.0
H61 H 0.81357 0.89066 0.64561 0.0
H62 H 0.79219 0.94829 0.59594 0.0
H63 H 0.76387 0.9231 0.59502 0.0
H64 H 0.78528 0.92738 0.58057 0.0
C65 C 0.1058 0.91516 0.61918 0.0
N66 N 0.09359 0.89745 0.60897 0.0
N67 N 0.1247 0.9323 0.61197 0.0
C68 C 0.09814 0.91657 0.63567 0.0
C69 C 0.12343 0.92435 0.59697 0.0
N70 N 0.10446 0.90341 0.59507 0.0
C71 C 0.14187 0.93608 0.58462 0.0
H72 H 0.10406 0.93458 0.63878 0.0
H73 H 0.10605 0.90929 0.64479 0.0
H74 H 0.07873 0.90668 0.63626 0.0
H75 H 0.15938 0.94692 0.59053 0.0
H76 H 0.137 0.94705 0.57661 0.0
H77 H 0.14304 0.92345 0.57702 0.0
C78 C 0.87413 0.43676 0.73737 0.0
N79 N 0.88021 0.45435 0.74747 0.0
N80 N 0.87782 0.42015 0.74477 0.0
C81 C 0.86497 0.43596 0.72019 0.0
C82 C 0.88621 0.42822 0.7598 0.0
N83 N 0.88762 0.44895 0.76146 0.0
C84 C 0.89179 0.41544 0.77326 0.0
H85 H 0.84554 0.42823 0.72005 0.0
H86 H 0.86954 0.42535 0.71276 0.0
H87 H 0.87214 0.45342 0.7148 0.0
H88 H 0.89318 0.40073 0.76888 0.0
H89 H 0.8776 0.4089 0.78201 0.0
H90 H 0.90844 0.42719 0.77982 0.0
C91 C 0.57083 0.44824 0.74477 0.0
N92 N 0.58255 0.46479 0.7559 0.0
N93 N 0.55134 0.43059 0.75101 0.0
C94 C 0.57832 0.4494 0.72778 0.0
C95 C 0.55174 0.43707 0.76634 0.0
N96 N 0.57061 0.45773 0.76933 0.0
C97 C 0.53408 0.42292 0.77866 0.0
H98 H 0.58682 0.4672 0.723 0.0
H99 H 0.56313 0.43864 0.7196 0.0
H100 H 0.59135 0.44311 0.72782 0.0
H101 H 0.52641 0.40441 0.77631 0.0
H102 H 0.51972 0.42749 0.77806 0.0
H103 H 0.54234 0.42641 0.79102 0.0
C104 C 0.57741 0.14086 0.76214 0.0
N105 N 0.5908 0.13445 0.77185 0.0
N106 N 0.5577 0.13668 0.76954 0.0
C107 C 0.58235 0.14893 0.74486 0.0
C108 C 0.55941 0.12729 0.78399 0.0
N109 N 0.57948 0.12573 0.78534 0.0
C110 C 0.54089 0.11861 0.79637 0.0
H111 H 0.60091 0.16234 0.74388 0.0
H112 H 0.57068 0.1558 0.73993 0.0
H113 H 0.57959 0.13434 0.73745 0.0
H114 H 0.52801 0.10056 0.79379 0.0
H115 H 0.5313 0.12863 0.79583 0.0
H116 H 0.5488 0.11942 0.80874 0.0
C117 C 0.77835 0.56036 0.95341 0.0
N118 N 0.79201 0.56434 0.94067 0.0
N119 N 0.75678 0.55695 0.94826 0.0
C120 C 0.78524 0.55781 0.97074 0.0
C121 C 0.75762 0.55874 0.93197 0.0
N122 N 0.77896 0.56295 0.92736 0.0
C123 C 0.73824 0.55807 0.9207 0.0
H124 H 0.76952 0.547 0.9778 0.0
H125 H 0.79465 0.57493 0.97625 0.0
H126 H 0.79711 0.55012 0.9715 0.0
H127 H 0.72689 0.56321 0.92691 0.0
H128 H 0.72723 0.54036 0.91641 0.0
H129 H 0.74552 0.56944 0.91 0.0
C130 C 0.4673 0.23633 0.95849 0.0
N131 N 0.46127 0.21965 0.94756 0.0
N132 N 0.46137 0.25231 0.95266 0.0
C133 C 0.47734 0.23609 0.97529 0.0
C134 C 0.4515 0.24468 0.93779 0.0
N135 N 0.45114 0.22473 0.93478 0.0
C136 C 0.44396 0.25764 0.92565 0.0
H137 H 0.47241 0.24534 0.98374 0.0
H138 H 0.4968 0.24465 0.97499 0.0
H139 H 0.47114 0.21832 0.97984 0.0
H140 H 0.45386 0.27627 0.9278 0.0
H141 H 0.42495 0.25178 0.92674 0.0
H142 H 0.44671 0.25445 0.91314 0.0
C143 C 0.77101 0.24612 0.95317 0.0
N144 N 0.75932 0.22819 0.94306 0.0
N145 N 0.78987 0.26343 0.94601 0.0
C146 C 0.76285 0.24755 0.96947 0.0
C147 C 0.7891 0.25529 0.93114 0.0
N148 N 0.77046 0.23414 0.92927 0.0
C149 C 0.80767 0.26712 0.91889 0.0
H150 H 0.76834 0.26553 0.97239 0.0
H151 H 0.77078 0.24059 0.97881 0.0
H152 H 0.74344 0.23737 0.96986 0.0
H153 H 0.82501 0.27836 0.92486 0.0
H154 H 0.80255 0.27767 0.91061 0.0
H155 H 0.80935 0.25454 0.91153 0.0
C156 C 0.53381 0.76485 0.07152 0.0
N157 N 0.54069 0.78242 0.08184 0.0
N158 N 0.53773 0.74805 0.07839 0.0
C159 C 0.52525 0.76497 0.05425 0.0
C160 C 0.54734 0.75612 0.09324 0.0
N161 N 0.54939 0.77704 0.09526 0.0
C162 C 0.55299 0.74282 0.10627 0.0
H163 H 0.50583 0.75751 0.0538 0.0
H164 H 0.52987 0.75462 0.04661 0.0
H165 H 0.53289 0.78265 0.04922 0.0
H166 H 0.57173 0.74718 0.10573 0.0
H167 H 0.54191 0.72416 0.10463 0.0
H168 H 0.55028 0.74726 0.11842 0.0
C169 C 0.23858 0.77789 0.07969 0.0
N170 N 0.24991 0.79377 0.09132 0.0
N171 N 0.22149 0.75826 0.08605 0.0
C172 C 0.24509 0.78101 0.06231 0.0
C173 C 0.2228 0.76269 0.10196 0.0
N174 N 0.24016 0.78413 0.10523 0.0
C175 C 0.20617 0.74652 0.11416 0.0
H176 H 0.23739 0.79091 0.05578 0.0
H177 H 0.23831 0.76434 0.05634 0.0
H178 H 0.26446 0.79076 0.06145 0.0
H179 H 0.21502 0.73813 0.12129 0.0
H180 H 0.18984 0.73313 0.10822 0.0
H181 H 0.2015 0.75593 0.12265 0.0
C182 C 0.26293 0.50675 0.1001 0.0
N183 N 0.27367 0.49747 0.10993 0.0
N184 N 0.24211 0.5024 0.10594 0.0
C185 C 0.27126 0.5175 0.08378 0.0
C186 C 0.24056 0.49015 0.1197 0.0
N187 N 0.25961 0.48695 0.12202 0.0
C188 C 0.21939 0.47948 0.12999 0.0
H189 H 0.26139 0.52626 0.07878 0.0
H190 H 0.26879 0.50396 0.07542 0.0
H191 H 0.29022 0.53008 0.08456 0.0
H192 H 0.20586 0.4634 0.12436 0.0
H193 H 0.2116 0.49094 0.1308 0.0
H194 H 0.224 0.47559 0.14241 0.0
C195 C 0.45533 0.91962 0.2948 0.0
N196 N 0.46904 0.92267 0.28222 0.0
N197 N 0.43498 0.91916 0.28944 0.0
C198 C 0.4615 0.91635 0.31217 0.0
C199 C 0.43654 0.92156 0.27321 0.0
N200 N 0.45716 0.92357 0.26884 0.0
C201 C 0.41762 0.92145 0.26171 0.0
H202 H 0.46906 0.90452 0.313 0.0
H203 H 0.44615 0.90974 0.31988 0.0
H204 H 0.47497 0.93304 0.31702 0.0
H205 H 0.41802 0.93822 0.26215 0.0
H206 H 0.40006 0.9081 0.26546 0.0
H207 H 0.42005 0.91851 0.24908 0.0
C208 C 0.13873 0.56927 0.28972 0.0
N209 N 0.13366 0.55297 0.2786 0.0
N210 N 0.13319 0.58541 0.28366 0.0
C211 C 0.14683 0.56826 0.30699 0.0
C212 C 0.12445 0.57828 0.26851 0.0
N213 N 0.12447 0.55852 0.2655 0.0
C214 C 0.11742 0.59145 0.25621 0.0
H215 H 0.14064 0.57691 0.31505 0.0
H216 H 0.16633 0.5771 0.30785 0.0
H217 H 0.14028 0.55031 0.31124 0.0
H218 H 0.12067 0.58845 0.24379 0.0
H219 H 0.12723 0.61005 0.25854 0.0
H220 H 0.09834 0.5856 0.25692 0.0
C221 C 0.43625 0.57947 0.28726 0.0
N222 N 0.42408 0.5624 0.27655 0.0
N223 N 0.45472 0.59724 0.28022 0.0
C224 C 0.43041 0.57865 0.30464 0.0
C225 C 0.45321 0.59052 0.26484 0.0
N226 N 0.43451 0.56952 0.26253 0.0
C227 C 0.47095 0.60399 0.25241 0.0
H228 H 0.43679 0.59603 0.30931 0.0
H229 H 0.43917 0.57041 0.31204 0.0
H230 H 0.41116 0.56851 0.30605 0.0
H231 H 0.48562 0.59989 0.25391 0.0
H232 H 0.47825 0.6226 0.25417 0.0
H233 H 0.46323 0.59969 0.23994 0.0
C234 C 0.53553 0.02148 0.06106 0.0
Eu235 Eu 0.51887 0.01472 0.03128 0.0
C236 C 0.52934 0.00858 0.07634 0.0
C237 C 0.54186 0.0189 0.09061 0.0
C238 C 0.5359 1.0069 0.1053 0.0
C239 C 0.51724 0.98438 0.10595 0.0
C240 C 0.50465 0.97417 0.09154 0.0
C241 C 0.51083 0.98611 0.07683 0.0
C242 C 0.50611 0.04287 0.01387 0.0
C243 C 0.46298 0.97654 0.02994 0.0
C244 C 0.48087 0.9907 0.96958 0.0
Eu245 Eu 0.49476 0.99625 0.9999 0.0
C246 C 0.49332 1.00237 0.95493 0.0
C247 C 0.4916 0.98949 0.94154 0.0
C248 C 0.50594 0.99985 0.92848 0.0
C249 C 0.52239 0.02327 0.92863 0.0
C250 C 0.52372 0.03618 0.94196 0.0
C251 C 0.50923 0.02587 0.95494 0.0
C252 C 0.50652 0.96752 0.01739 0.0
C253 C 0.55075 0.03505 1.00126 0.0
O254 O 0.5429 0.01318 0.05013 0.0
O255 O 0.52069 0.02817 0.05508 0.0
O256 O 0.52574 0.0499 0.02227 0.0
O257 O 0.49364 0.02153 0.01552 0.0
O258 O 0.48337 0.98506 0.03829 0.0
O259 O 0.46213 0.9814 0.01437 0.0
O260 O 0.47619 1.00281 0.97927 0.0
O261 O 0.48911 0.97842 0.97736 0.0
O262 O 0.4871 0.96103 0.00878 0.0
O263 O 0.51958 0.98888 0.01586 0.0
O264 O 0.5306 0.0252 0.99271 0.0
O265 O 0.55149 0.03113 0.01694 0.0
H266 H 0.55616 0.03629 0.0904 0.0
H267 H 0.54562 0.01548 0.1162 0.0
H268 H 0.49023 0.95686 0.09158 0.0
H269 H 0.50116 0.97784 0.06586 0.0
H270 H 0.47968 0.97127 0.94141 0.0
H271 H 0.50465 0.98934 0.91849 0.0
H272 H 0.53603 0.05426 0.94242 0.0
H273 H 0.51095 0.03619 0.96517 0.0
C274 C 0.99691 0.52333 0.05911 0.0
Eu275 Eu 0.99985 0.51536 0.02904 0.0
C276 C 0.00875 0.52296 0.07488 0.0
C277 C 0.99513 0.50982 0.08771 0.0
C278 C 0.00573 0.50912 0.10277 0.0
C279 C 0.03028 0.52176 0.10545 0.0
C280 C 0.04396 0.53477 0.09249 0.0
C281 C 0.03333 0.53531 0.07736 0.0
C282 C 0.96857 0.47741 0.01285 0.0
C283 C 0.03731 0.4957 0.02809 0.0
C284 C 0.01931 0.50169 0.96723 0.0
Eu285 Eu 0.01658 0.5098 0.99732 0.0
C286 C 0.00661 0.50093 0.95155 0.0
C287 C 0.00906 0.52103 0.94367 0.0
C288 C 0.99777 0.52011 0.92857 0.0
C289 C 0.98372 0.49909 0.92098 0.0
C290 C 0.98097 0.47897 0.92899 0.0
C291 C 0.99236 0.4799 0.94406 0.0
C292 C 0.04742 0.5477 0.01374 0.0
C293 C 0.98077 0.5312 0.99825 0.0
O294 O 0.00907 0.53939 0.04862 0.0
O295 O 0.98386 0.50354 0.05239 0.0
O296 O 0.96277 0.48981 0.02115 0.0
O297 O 0.99061 0.4849 0.01401 0.0
O298 O 0.02873 0.50649 0.0361 0.0
O299 O 0.03238 0.49166 0.01253 0.0
O300 O 0.00795 0.48558 0.97789 0.0
O301 O 0.0319 0.52168 0.97384 0.0
O302 O 0.05364 0.53539 0.00569 0.0
O303 O 0.02547 0.54016 0.01217 0.0
O304 O 0.98807 0.51926 0.9903 0.0
O305 O 0.98583 0.53509 0.01382 0.0
H306 H 0.97618 0.50001 0.08607 0.0
H307 H 0.99461 0.49851 0.11228 0.0
H308 H 0.06286 0.54493 0.09409 0.0
H309 H 0.04435 0.54549 0.06766 0.0
H310 H 0.01984 0.53756 0.94908 0.0
H311 H 1.00004 0.5359 0.92283 0.0
H312 H 0.97051 0.46251 0.92341 0.0
H313 H 0.99024 0.46414 0.94977 0.0
C314 C 0.47855 0.48372 0.9694 0.0
Eu315 Eu 0.48675 0.4948 0.99993 0.0
C316 C 0.49061 0.48527 0.95445 0.0
C317 C 0.51465 0.49176 0.95461 0.0
C318 C 0.5255 0.49305 0.94014 0.0
C319 C 0.51249 0.48784 0.92523 0.0
C320 C 0.48837 0.48127 0.92526 0.0
C321 C 0.47762 0.48005 0.93968 0.0
C322 C 0.49472 0.5344 0.01313 0.0
C323 C 0.54264 0.51453 0.0112 0.0
C324 C 0.50959 0.50694 0.06692 0.0
Eu325 Eu 0.50253 0.49966 0.03587 0.0
C326 C 0.49802 0.50855 0.08133 0.0
C327 C 0.49278 0.49211 0.09381 0.0
C328 C 0.48311 0.49376 0.10798 0.0
C329 C 0.47868 0.51212 0.1102 0.0
C330 C 0.48376 0.52852 0.09761 0.0
C331 C 0.49327 0.52674 0.08333 0.0
C332 C 0.4952 0.46063 0.02192 0.0
C333 C 0.44834 0.48516 0.02502 0.0
O334 O 0.47956 0.47024 0.98102 0.0
O335 O 0.48072 0.50276 0.9748 0.0
O336 O 0.47848 0.52386 1.00198 0.0
O337 O 0.50696 0.52447 0.01602 0.0
O338 O 0.52571 0.50517 0.9998 0.0
O339 O 0.53835 0.51686 0.02614 0.0
O340 O 0.51606 0.52335 0.05596 0.0
O341 O 0.50116 0.48673 0.06062 0.0
O342 O 0.51215 0.47178 0.03244 0.0
O343 O 0.48234 0.47 0.0197 0.0
O344 O 0.46609 0.49579 0.03551 0.0
O345 O 0.45105 0.47921 0.01064 0.0
H346 H 0.52498 0.49579 0.96589 0.0
H347 H 0.54412 0.49837 0.94063 0.0
H348 H 0.47759 0.47665 0.91416 0.0
H349 H 0.45901 0.47485 0.9393 0.0
H350 H 0.4963 0.47795 0.09264 0.0
H351 H 0.47901 0.48051 0.11718 0.0
H352 H 0.481 0.5431 0.09894 0.0
H353 H 0.49726 0.53982 0.074 0.0
C354 C 0.20265 0.34995 0.39344 0.0
Eu355 Eu 0.18585 0.34509 0.36372 0.0
C356 C 0.19672 0.33721 0.40893 0.0
C357 C 0.19593 0.34834 0.42262 0.0
C358 C 0.19034 0.33683 0.4375 0.0
C359 C 0.18559 0.31397 0.439 0.0
C360 C 0.18653 0.30281 0.42531 0.0
C361 C 0.1919 0.3143 0.41034 0.0
C362 C 0.17397 0.37432 0.34713 0.0
C363 C 0.12969 0.30746 0.36185 0.0
C364 C 0.14758 0.32228 0.30147 0.0
Eu365 Eu 0.1615 0.3277 0.33178 0.0
C366 C 0.15875 0.33477 0.28657 0.0
C367 C 0.1653 0.32397 0.27533 0.0
C368 C 0.17843 0.33621 0.26215 0.0
C369 C 0.18503 0.35946 0.25984 0.0
C370 C 0.17761 0.37001 0.27072 0.0
C371 C 0.16477 0.35787 0.28403 0.0
C372 C 0.17329 0.29878 0.34886 0.0
C373 C 0.21706 0.36689 0.33341 0.0
O374 O 0.20942 0.34167 0.38208 0.0
O375 O 0.1886 0.35787 0.38793 0.0
O376 O 0.19294 0.38071 0.35622 0.0
O377 O 0.16125 0.35288 0.348 0.0
O378 O 0.14995 0.31582 0.37036 0.0
O379 O 0.12899 0.31253 0.3463 0.0
O380 O 0.14137 0.33283 0.31151 0.0
O381 O 0.15762 0.3113 0.30888 0.0
O382 O 0.15368 0.29231 0.34052 0.0
O383 O 0.18628 0.3201 0.3474 0.0
O384 O 0.19685 0.35745 0.32492 0.0
O385 O 0.21809 0.36211 0.34896 0.0
H386 H 0.19967 0.36601 0.42181 0.0
H387 H 0.19002 0.34592 0.4479 0.0
H388 H 0.1828 0.28515 0.42614 0.0
H389 H 0.19225 0.30526 0.39992 0.0
H390 H 0.16081 0.30616 0.27699 0.0
H391 H 0.18348 0.32749 0.2538 0.0
H392 H 0.18227 0.38784 0.2692 0.0
H393 H 0.1601 0.36676 0.2925 0.0
C394 C 0.66164 0.85229 0.39474 0.0
Eu395 Eu 0.66473 0.84653 0.36423 0.0
C396 C 0.67407 0.8524 0.41032 0.0
C397 C 0.66085 0.84011 0.42352 0.0
C398 C 0.67192 0.84018 0.43853 0.0
C399 C 0.69655 0.85272 0.44075 0.0
C400 C 0.70983 0.86471 0.42738 0.0
C401 C 0.69872 0.86451 0.41229 0.0
C402 C 0.63382 0.80915 0.34736 0.0
C403 C 0.70442 0.83017 0.36104 0.0
C404 C 0.68135 0.83493 0.30092 0.0
Eu405 Eu 0.68026 0.84304 0.33128 0.0
C406 C 0.66765 0.83287 0.28549 0.0
C407 C 0.67665 0.85048 0.27375 0.0
C408 C 0.66454 0.84849 0.25885 0.0
C409 C 0.64323 0.82873 0.25524 0.0
C410 C 0.63412 0.81115 0.26703 0.0
C411 C 0.64617 0.81319 0.28199 0.0
C412 C 0.71127 0.88089 0.34766 0.0
C413 C 0.64405 0.86355 0.33485 0.0
O414 O 0.67267 0.86917 0.38452 0.0
O415 O 0.64994 0.83259 0.38766 0.0
O416 O 0.62771 0.82081 0.35619 0.0
O417 O 0.6559 0.81717 0.34823 0.0
O418 O 0.69496 0.83927 0.36992 0.0
O419 O 0.6993 0.82696 0.3454 0.0
O420 O 0.67178 0.81881 0.31195 0.0
O421 O 0.69285 0.85529 0.30713 0.0
O422 O 0.71736 0.86995 0.33809 0.0
O423 O 0.68914 0.87238 0.34726 0.0
O424 O 0.65104 0.85221 0.32592 0.0
O425 O 0.64987 0.86661 0.35041 0.0
H426 H 0.64185 0.83048 0.42224 0.0
H427 H 0.6611 0.83032 0.4484 0.0
H428 H 0.72878 0.87471 0.42864 0.0
H429 H 0.70939 0.874 0.40226 0.0
H430 H 0.69327 0.86573 0.276 0.0
H431 H 0.67223 0.86221 0.24999 0.0
H432 H 0.61763 0.79579 0.26469 0.0
H433 H 0.63872 0.79925 0.29072 0.0
C434 C 0.14218 0.81416 0.30331 0.0
Eu435 Eu 0.14892 0.82299 0.33422 0.0
C436 C 0.1555 0.81515 0.28897 0.0
C437 C 0.16474 0.8346 0.27873 0.0
C438 C 0.17566 0.83494 0.26455 0.0
C439 C 0.17756 0.81578 0.26014 0.0
C440 C 0.1686 0.79643 0.27052 0.0
C441 C 0.15767 0.79609 0.2847 0.0
C442 C 0.15464 0.86095 0.34879 0.0
C443 C 0.20542 0.84465 0.34425 0.0
C444 C 0.17368 0.83686 0.40073 0.0
Eu445 Eu 0.16645 0.82761 0.36998 0.0
C446 C 0.16061 0.83721 0.41477 0.0
C447 C 0.14739 0.81729 0.42399 0.0
C448 C 0.13679 0.81819 0.43798 0.0
C449 C 0.13917 0.83903 0.44314 0.0
C450 C 0.1519 0.85883 0.43369 0.0
C451 C 0.16256 0.85795 0.41974 0.0
C452 C 0.16172 0.79027 0.35511 0.0
C453 C 0.11024 0.80689 0.36041 0.0
O454 O 0.13933 0.79881 0.31463 0.0
O455 O 0.14598 0.83355 0.30925 0.0
O456 O 0.13808 0.85002 0.33791 0.0
O457 O 0.16808 0.85219 0.35071 0.0
O458 O 0.18801 0.83449 0.3333 0.0
O459 O 0.20171 0.84657 0.35942 0.0
O460 O 0.17755 0.85228 0.38929 0.0
O461 O 0.16866 0.81696 0.39503 0.0
O462 O 0.17823 0.80139 0.36598 0.0
O463 O 0.14773 0.79844 0.35338 0.0
O464 O 0.12787 0.81656 0.37117 0.0
O465 O 0.11329 0.80524 0.345 0.0
H466 H 0.16324 0.84953 0.28152 0.0
H467 H 0.18259 0.85026 0.25702 0.0
H468 H 0.16939 0.78123 0.26745 0.0
H469 H 0.15049 0.78069 0.29215 0.0
H470 H 0.14557 0.80102 0.42059 0.0
H471 H 0.1269 0.80255 0.44484 0.0
H472 H 0.15437 0.87522 0.43737 0.0
H473 H 0.17278 0.87366 0.41302 0.0
C474 C 0.86668 0.68556 0.72337 0.0
Eu475 Eu 0.85208 0.68062 0.6932 0.0
C476 C 0.85798 0.67257 0.73856 0.0
C477 C 0.85032 0.68165 0.75032 0.0
C478 C 0.84188 0.66971 0.76476 0.0
C479 C 0.84124 0.64854 0.76787 0.0
C480 C 0.84867 0.63931 0.75602 0.0
C481 C 0.85694 0.65119 0.74148 0.0
C482 C 0.84086 0.70992 0.67606 0.0
C483 C 0.79612 0.64274 0.69117 0.0
C484 C 0.81535 0.6582 0.63095 0.0
Eu485 Eu 0.82844 0.66306 0.66142 0.0
C486 C 0.82714 0.67078 0.61618 0.0
C487 C 0.8392 0.66273 0.60712 0.0
C488 C 0.85218 0.6755 0.59403 0.0
C489 C 0.85308 0.69643 0.58958 0.0
C490 C 0.84048 0.7042 0.59832 0.0
C491 C 0.82765 0.69153 0.6115 0.0
C492 C 0.84002 0.63412 0.67874 0.0
C493 C 0.88443 0.70152 0.66354 0.0
O494 O 0.87387 0.67662 0.71273 0.0
O495 O 0.85436 0.6948 0.71676 0.0
O496 O 0.85991 0.71619 0.68502 0.0
O497 O 0.8278 0.68853 0.67717 0.0
O498 O 0.81633 0.65108 0.69968 0.0
O499 O 0.79548 0.64785 0.67563 0.0
O500 O 0.80928 0.66899 0.64087 0.0
O501 O 0.82452 0.64658 0.63856 0.0
O502 O 0.82055 0.62766 0.6702 0.0
O503 O 0.85302 0.65546 0.67731 0.0
O504 O 0.86437 0.69233 0.65485 0.0
O505 O 0.88495 0.69683 0.67913 0.0
H506 H 0.85083 0.69804 0.74834 0.0
H507 H 0.83584 0.67709 0.7735 0.0
H508 H 0.8486 0.62314 0.75811 0.0
H509 H 0.86263 0.64367 0.73261 0.0
H510 H 0.83899 0.64672 0.61033 0.0
H511 H 0.86148 0.66898 0.58736 0.0
H512 H 0.841 0.72037 0.59522 0.0
H513 H 0.81856 0.69824 0.61819 0.0
C514 C 0.3309 0.18743 0.72718 0.0
Eu515 Eu 0.3331 0.18264 0.69633 0.0
C516 C 0.34344 0.18691 0.74251 0.0
C517 C 0.33107 0.18021 0.75677 0.0
C518 C 0.34229 0.1792 0.77147 0.0
C519 C 0.36618 0.18488 0.77224 0.0
C520 C 0.37853 0.19135 0.75789 0.0
C521 C 0.36725 0.19238 0.74313 0.0
C522 C 0.3025 0.14552 0.6791 0.0
C523 C 0.37283 0.16709 0.69132 0.0
C524 C 0.34842 0.17263 0.63212 0.0
Eu525 Eu 0.34795 0.18079 0.66257 0.0
C526 C 0.33494 0.17077 0.61662 0.0
C527 C 0.3392 0.19032 0.60719 0.0
C528 C 0.32784 0.18831 0.59198 0.0
C529 C 0.31201 0.16671 0.58578 0.0
C530 C 0.30737 0.14718 0.59538 0.0
C531 C 0.31875 0.14919 0.61058 0.0
C532 C 0.37888 0.21824 0.6794 0.0
C533 C 0.31087 0.19995 0.66782 0.0
O534 O 0.342 0.20462 0.71718 0.0
O535 O 0.31914 0.16798 0.7198 0.0
O536 O 0.29612 0.15556 0.68919 0.0
O537 O 0.32462 0.15429 0.67949 0.0
O538 O 0.36424 0.17646 0.7007 0.0
O539 O 0.36651 0.16356 0.67586 0.0
O540 O 0.33823 0.15657 0.64307 0.0
O541 O 0.36061 0.1929 0.63841 0.0
O542 O 0.38499 0.20782 0.66937 0.0
O543 O 0.35669 0.20934 0.67933 0.0
O544 O 0.31919 0.19077 0.65797 0.0
O545 O 0.31582 0.20123 0.68354 0.0
H546 H 0.31267 0.17584 0.75653 0.0
H547 H 0.33237 0.17439 0.78233 0.0
H548 H 0.39685 0.19551 0.75809 0.0
H549 H 0.3771 0.19746 0.73225 0.0
H550 H 0.35163 0.20722 0.61141 0.0
H551 H 0.3316 0.20372 0.58502 0.0
H552 H 0.29552 0.13026 0.59092 0.0
H553 H 0.31523 0.13378 0.61747 0.0
C554 C 0.81692 0.15746 0.63748 0.0
Eu555 Eu 0.82476 0.1653 0.66852 0.0
C556 C 0.82918 0.15853 0.62259 0.0
C557 C 0.83576 0.17717 0.6117 0.0
C558 C 0.84547 0.17746 0.59698 0.0
C559 C 0.84873 0.15905 0.59272 0.0
C560 C 0.84231 0.14051 0.60366 0.0
C561 C 0.83267 0.14021 0.61841 0.0
C562 C 0.83223 0.20428 0.68261 0.0
C563 C 0.88067 0.18509 0.67847 0.0
C564 C 0.84943 0.17787 0.735 0.0
Eu565 Eu 0.84169 0.16997 0.70399 0.0
C566 C 0.83724 0.17791 0.74947 0.0
C567 C 0.84758 0.17766 0.76475 0.0
C568 C 0.83663 0.1776 0.77878 0.0
C569 C 0.81498 0.17776 0.77788 0.0
C570 C 0.80461 0.17805 0.76249 0.0
C571 C 0.81562 0.17805 0.74839 0.0
C572 C 0.83508 0.13124 0.68989 0.0
C573 C 0.78655 0.15286 0.69408 0.0
O574 O 0.81436 0.1418 0.64844 0.0
O575 O 0.82151 0.1768 0.64387 0.0
O576 O 0.81498 0.1931 0.67227 0.0
O577 O 0.84514 0.19498 0.68458 0.0
O578 O 0.86312 0.17394 0.66784 0.0
O579 O 0.87703 0.18869 0.6933 0.0
O580 O 0.85323 0.19377 0.72397 0.0
O581 O 0.84306 0.15799 0.72878 0.0
O582 O 0.85192 0.14258 0.70046 0.0
O583 O 0.82174 0.14014 0.6878 0.0
O584 O 0.80444 0.16398 0.70438 0.0
O585 O 0.78932 0.14764 0.6795 0.0
H586 H 0.83306 0.19143 0.61442 0.0
H587 H 0.85034 0.19209 0.5889 0.0
H588 H 0.84403 0.12585 0.60057 0.0
H589 H 0.82747 0.12538 0.62633 0.0
H590 H 0.86427 0.17759 0.76585 0.0
H591 H 0.84537 0.1778 0.79037 0.0
H592 H 0.7879 0.17805 0.76133 0.0
H593 H 0.80727 0.17819 0.7367 0.0
H594 H 0.25347 0.82834 0.07149 0.0
H595 H 0.28986 0.86193 0.06347 0.0
H596 H 0.32974 0.84186 0.09762 0.0
H597 H 0.29305 0.80838 0.10578 0.0
H598 H 0.34958 0.88798 0.09587 0.0
H599 H 0.32384 0.82802 0.05757 0.0
H600 H 0.2957 0.79895 0.03867 0.0
H601 H 0.28946 0.85107 0.00993 0.0
H602 H 0.31744 0.88045 0.02874 0.0
H603 H 0.4592 0.95102 0.05755 0.0
H604 H 0.42354 0.92213 0.06994 0.0
H605 H 0.38135 0.93547 0.03327 0.0
H606 H 0.41712 0.96366 0.02038 0.0
H607 H 0.36295 0.89263 0.03721 0.0
H608 H 0.39074 0.95326 0.0759 0.0
H609 H 0.4198 0.98147 0.09493 0.0
H610 H 0.42331 0.92761 0.1232 0.0
H611 H 0.39447 0.89909 0.10423 0.0
C612 C 0.26998 0.83145 0.07751 0.0
C613 C 0.27051 0.81577 0.08919 0.0
C614 C 0.29082 0.85054 0.07286 0.0
C615 C 0.31277 0.85426 0.07962 0.0
C616 C 0.31314 0.83941 0.09212 0.0
C617 C 0.29219 0.82034 0.09685 0.0
C618 C 0.33518 0.87253 0.0728 0.0
C619 C 0.3526 0.8889 0.08306 0.0
C620 C 0.33923 0.874 0.05606 0.0
C621 C 0.32257 0.8564 0.04464 0.0
C622 C 0.31637 0.83326 0.04727 0.0
C623 C 0.30047 0.81674 0.03656 0.0
C624 C 0.29074 0.82315 0.02314 0.0
C625 C 0.29698 0.84612 0.02035 0.0
C626 C 0.31289 0.86273 0.03101 0.0
C627 C 0.44234 0.948 0.05219 0.0
C628 C 0.4411 0.95984 0.03798 0.0
C629 C 0.42184 0.93147 0.05939 0.0
C630 C 0.39946 0.92671 0.05283 0.0
C631 C 0.39825 0.93869 0.03868 0.0
C632 C 0.41877 0.95492 0.0313 0.0
C633 C 0.37734 0.90858 0.06018 0.0
C634 C 0.35997 0.892 0.05001 0.0
C635 C 0.37349 0.90693 0.07702 0.0
C636 C 0.39058 0.92405 0.08856 0.0
C637 C 0.39779 0.94744 0.08613 0.0
C638 C 0.41422 0.96348 0.09691 0.0
C639 C 0.42344 0.95634 0.11024 0.0
C640 C 0.41617 0.93312 0.11286 0.0
C641 C 0.39976 0.91701 0.10211 0.0
H642 H 0.43619 0.96878 0.11855 0.0
H643 H 0.2784 0.81032 0.01488 0.0
H644 H 0.2188 0.52434 0.11428 0.0
H645 H 0.18309 0.52213 0.10049 0.0
H646 H 0.18713 0.48073 0.06361 0.0
H647 H 0.22202 0.48202 0.07782 0.0
H648 H 0.17729 0.52006 0.05322 0.0
H649 H 0.15255 0.45264 0.08833 0.0
H650 H 0.15163 0.43384 0.11477 0.0
H651 H 0.12068 0.47052 0.13529 0.0
H652 H 0.12189 0.48992 0.10902 0.0
H653 H 0.06505 0.48041 0.01516 0.0
H654 H 0.09963 0.47995 0.02827 0.0
H655 H 0.08623 0.5021 0.0727 0.0
H656 H 0.05149 0.50205 0.05992 0.0
H657 H 0.10136 0.47245 0.07921 0.0
H658 H 0.12655 0.541 0.04718 0.0
H659 H 0.12973 0.56442 0.02262 0.0
H660 H 0.16072 0.53072 0.99827 0.0
H661 H 0.15773 0.50708 0.0227 0.0
C662 C 0.21197 0.51487 0.10322 0.0
C663 C 0.22288 0.50329 0.09706 0.0
C664 C 0.19179 0.51369 0.09535 0.0
C665 C 0.18262 0.50124 0.0811 0.0
C666 C 0.19411 0.4905 0.07456 0.0
C667 C 0.21396 0.49128 0.08261 0.0
C668 C 0.16025 0.49826 0.07351 0.0
C669 C 0.16062 0.50943 0.05874 0.0
C670 C 0.13874 0.48493 0.08106 0.0
C671 C 0.13756 0.47292 0.09676 0.0
C672 C 0.14576 0.45686 0.09851 0.0
C673 C 0.14516 0.44607 0.11346 0.0
C674 C 0.13616 0.45102 0.12671 0.0
C675 C 0.12768 0.46673 0.12502 0.0
C676 C 0.12832 0.47762 0.1101 0.0
C677 C 0.06919 0.48471 0.02781 0.0
C678 C 0.05565 0.49148 0.03644 0.0
C679 C 0.08906 0.48463 0.03524 0.0
C680 C 0.09575 0.49148 0.05134 0.0
C681 C 0.08146 0.49688 0.06024 0.0
C682 C 0.06159 0.49687 0.05287 0.0
C683 C 0.11823 0.49414 0.05875 0.0
C684 C 0.11795 0.48298 0.07356 0.0
C685 C 0.13991 0.50796 0.05142 0.0
C686 C 0.14167 0.52208 0.03669 0.0
C687 C 0.13388 0.53846 0.03655 0.0
C688 C 0.13568 0.55181 0.02267 0.0
C689 C 0.14527 0.54895 0.00887 0.0
C690 C 0.15323 0.53287 0.00896 0.0
C691 C 0.15155 0.51953 0.02282 0.0
H692 H 0.14657 0.55923 0.99812 0.0
H693 H 0.13571 0.44265 0.13828 0.0
H694 H 0.56805 0.73119 0.07777 0.0
H695 H 0.56009 0.69419 0.06768 0.0
H696 H 0.48959 0.67993 0.05266 0.0
H697 H 0.49724 0.7165 0.06378 0.0
H698 H 0.48779 0.64266 0.06506 0.0
H699 H 0.53515 0.69691 0.02544 0.0
H700 H 0.56918 0.73135 0.01505 0.0
H701 H 0.6153 0.70518 0.03281 0.0
H702 H 0.58157 0.67071 0.04351 0.0
H703 H 0.46716 0.55487 0.00998 0.0
H704 H 0.47419 0.59064 0.02186 0.0
H705 H 0.53894 0.59835 0.04484 0.0
H706 H 0.53189 0.56238 0.03303 0.0
H707 H 0.5432 0.63821 0.02852 0.0
H708 H 0.49296 0.58187 0.06667 0.0
H709 H 0.4572 0.54668 0.07403 0.0
H710 H 0.41442 0.57658 0.05632 0.0
H711 H 0.44986 0.61176 0.04845 0.0
C712 C 0.55081 0.72005 0.07243 0.0
C713 C 0.53326 0.7267 0.07156 0.0
C714 C 0.54631 0.69898 0.0665 0.0
C715 C 0.52431 0.68426 0.05913 0.0
C716 C 0.50672 0.69091 0.05824 0.0
C717 C 0.51115 0.71191 0.06441 0.0
C718 C 0.51979 0.66203 0.05236 0.0
C719 C 0.49979 0.64178 0.05692 0.0
C720 C 0.53552 0.66064 0.04187 0.0
C721 C 0.55585 0.68132 0.03542 0.0
C722 C 0.55257 0.69857 0.02723 0.0
C723 C 0.5718 0.71809 0.02127 0.0
C724 C 0.59439 0.72047 0.02331 0.0
C725 C 0.59779 0.70332 0.03127 0.0
C726 C 0.57862 0.68378 0.03727 0.0
C727 C 0.48286 0.56414 0.01761 0.0
C728 C 0.49898 0.55584 0.0206 0.0
C729 C 0.48682 0.58454 0.02443 0.0
C730 C 0.50703 0.59711 0.03431 0.0
C731 C 0.52322 0.58891 0.03726 0.0
C732 C 0.51915 0.56835 0.03056 0.0
C733 C 0.5114 0.61903 0.04129 0.0
C734 C 0.53132 0.63917 0.03673 0.0
C735 C 0.4954 0.62031 0.05154 0.0
C736 C 0.47411 0.59945 0.05685 0.0
C737 C 0.47594 0.58093 0.06426 0.0
C738 C 0.45572 0.56097 0.06853 0.0
C739 C 0.43357 0.5594 0.06565 0.0
C740 C 0.43159 0.57782 0.05854 0.0
C741 C 0.45175 0.59778 0.05417 0.0
H742 H 0.41794 0.54392 0.06894 0.0
H743 H 0.60926 0.7356 0.01868 0.0
H744 H 0.80589 0.30517 0.93158 0.0
H745 H 0.83744 0.34158 0.94154 0.0
H746 H 0.84294 0.30805 0.9861 0.0
H747 H 0.81294 0.27133 0.97541 0.0
H748 H 0.84444 0.36883 0.96284 0.0
H749 H 0.89626 0.33384 1.00431 0.0
H750 H 0.90505 0.30171 0.00519 0.0
H751 H 0.89299 0.29516 0.95372 0.0
H752 H 0.88443 0.32743 0.95251 0.0
H753 H 0.92109 0.45631 0.01483 0.0
H754 H 0.89179 0.42061 1.00273 0.0
H755 H 0.9467 0.41385 0.98075 0.0
H756 H 0.9763 0.44908 0.99378 0.0
H757 H 0.9172 0.37447 0.98998 0.0
H758 H 0.90813 0.43106 0.95908 0.0
H759 H 0.90317 0.46514 0.95358 0.0
H760 H 0.83614 0.43173 0.97538 0.0
H761 H 0.84087 0.39756 0.98128 0.0
C762 C 0.81413 0.30555 0.94339 0.0
C763 C 0.80712 0.28527 0.95259 0.0
C764 C 0.83203 0.32647 0.9492 0.0
C765 C 0.84317 0.3278 0.96453 0.0
C766 C 0.83534 0.30764 0.97405 0.0
C767 C 0.81782 0.28662 0.96805 0.0
C768 C 0.86286 0.35018 0.97047 0.0
C769 C 0.86032 0.36997 0.96876 0.0
C770 C 0.88414 0.3522 0.97775 0.0
C771 C 0.88947 0.3329 0.97835 0.0
C772 C 0.89557 0.3256 0.99317 0.0
C773 C 0.9005 0.30735 0.99373 0.0
C774 C 0.89951 0.29636 0.97953 0.0
C775 C 0.89367 0.30364 0.96472 0.0
C776 C 0.88876 0.32189 0.9641 0.0
C777 C 0.92698 0.44724 0.00742 0.0
C778 C 0.95107 0.45569 0.00515 0.0
C779 C 0.91011 0.42684 1.00036 0.0
C780 C 0.91677 0.41457 0.99043 0.0
C781 C 0.94093 0.42291 0.98826 0.0
C782 C 0.95789 0.44318 0.99562 0.0
C783 C 0.89852 0.39293 0.98265 0.0
C784 C 0.90133 0.37331 0.98402 0.0
C785 C 0.878 0.39132 0.97435 0.0
C786 C 0.87496 0.41179 0.97075 0.0
C787 C 0.8924 0.43102 0.96281 0.0
C788 C 0.88963 0.45036 0.95961 0.0
C789 C 0.86938 0.45062 0.96416 0.0
C790 C 0.85183 0.43151 0.97188 0.0
C791 C 0.85455 0.41214 0.97515 0.0
H792 H 0.86726 0.4656 0.96167 0.0
H793 H 0.90331 0.28222 0.97999 0.0
H794 H 0.75812 0.58546 0.97056 0.0
H795 H 0.72498 0.58119 0.986 0.0
H796 H 0.67993 0.51714 0.96264 0.0
H797 H 0.71311 0.52153 0.94729 0.0
H798 H 0.68319 0.57806 0.97298 0.0
H799 H 0.64133 0.48148 0.9903 0.0
H800 H 0.65424 0.45294 0.99781 0.0
H801 H 0.72122 0.50613 0.01508 0.0
H802 H 0.70859 0.53495 0.00792 0.0
H803 H 0.56058 0.52303 0.98121 0.0
H804 H 0.60086 0.53404 0.97458 0.0
H805 H 0.62025 0.53441 0.02531 0.0
H806 H 0.57997 0.52334 0.03209 0.0
H807 H 0.63446 0.50988 0.00672 0.0
H808 H 0.63978 0.58351 0.00709 0.0
H809 H 0.6275 0.61268 1.00034 0.0
H810 H 0.6356 0.60733 0.94994 0.0
H811 H 0.64759 0.57786 0.95637 0.0
C812 C 0.74114 0.57041 0.96898 0.0
C813 C 0.73785 0.55377 0.95789 0.0
C814 C 0.72233 0.56802 0.97768 0.0
C815 C 0.70016 0.54879 0.9755 0.0
C816 C 0.69702 0.53195 0.9646 0.0
C817 C 0.71578 0.53446 0.95582 0.0
C818 C 0.67985 0.54678 0.98388 0.0
C819 C 0.67262 0.56328 0.98049 0.0
C820 C 0.66643 0.52768 0.99387 0.0
C821 C 0.67405 0.5104 0.99846 0.0
C822 C 0.65876 0.48708 0.99579 0.0
C823 C 0.66604 0.47085 0.99997 0.0
C824 C 0.68855 0.47772 0.00688 0.0
C825 C 0.70381 0.50083 0.00967 0.0
C826 C 0.69661 0.51713 0.00554 0.0
C827 C 0.57341 0.52549 0.99096 0.0
C828 C 0.56713 0.52225 0.00716 0.0
C829 C 0.59642 0.53193 0.98716 0.0
C830 C 0.61343 0.53513 0.99949 0.0
C831 C 0.60729 0.53205 0.01567 0.0
C832 C 0.58433 0.52582 0.01949 0.0
C833 C 0.63738 0.54073 0.99533 0.0
C834 C 0.64525 0.52487 0.99946 0.0
C835 C 0.65151 0.56053 0.98615 0.0
C836 C 0.64445 0.57836 0.98222 0.0
C837 C 0.63878 0.58843 0.99456 0.0
C838 C 0.6319 0.60504 0.99079 0.0
C839 C 0.63074 0.61183 0.97472 0.0
C840 C 0.6365 0.60205 0.96238 0.0
C841 C 0.64337 0.58541 0.96609 0.0
H842 H 0.6254 0.62469 0.97182 0.0
H843 H 0.69416 0.46513 0.01009 0.0
H844 H 0.4267 0.17595 0.94892 0.0
H845 H 0.43122 0.14225 0.95711 0.0
H846 H 0.50656 0.18455 0.95984 0.0
H847 H 0.50187 0.21814 0.95192 0.0
H848 H 0.4909 0.14059 0.94578 0.0
H849 H 0.47941 0.17408 0.99274 0.0
H850 H 0.45787 0.18781 0.00856 0.0
H851 H 0.39791 0.12078 0.00823 0.0
H852 H 0.41898 0.10675 0.99213 0.0
H853 H 0.53489 0.08574 1.00263 0.0
H854 H 0.52386 0.11203 0.98786 0.0
H855 H 0.45074 0.06135 0.98906 0.0
H856 H 0.46179 0.03465 1.00355 0.0
H857 H 0.46092 0.1059 0.99933 0.0
H858 H 0.47185 0.07095 0.95472 0.0
H859 H 0.49069 0.0563 0.93714 0.0
H860 H 0.54882 0.12375 0.93197 0.0
H861 H 0.53046 0.13885 0.9496 0.0
C862 C 0.44416 0.1778 0.95096 0.0
C863 C 0.46396 0.19946 0.94981 0.0
C864 C 0.44676 0.15866 0.9557 0.0
C865 C 0.46925 0.16089 0.9592 0.0
C866 C 0.48907 0.18238 0.95718 0.0
C867 C 0.48643 0.20153 0.95268 0.0
C868 C 0.47218 0.14134 0.9661 0.0
C869 C 0.48451 0.13311 0.95754 0.0
C870 C 0.46322 0.13108 0.98122 0.0
C871 C 0.45066 0.13943 0.99107 0.0
C872 C 0.46156 0.16231 0.99592 0.0
C873 C 0.44945 0.17015 0.00495 0.0
C874 C 0.42651 0.15519 0.00936 0.0
C875 C 0.41566 0.13236 0.00478 0.0
C876 C 0.42768 0.12445 0.9957 0.0
C877 C 0.51646 0.08014 0.99967 0.0
C878 C 0.49918 0.0582 1.00433 0.0
C879 C 0.51019 0.09515 0.99116 0.0
C880 C 0.48647 0.08869 0.98733 0.0
C881 C 0.46914 0.06671 0.99189 0.0
C882 C 0.47547 0.05147 1.00013 0.0
C883 C 0.47998 0.10536 0.97912 0.0
C884 C 0.4671 0.11316 0.98748 0.0
C885 C 0.48823 0.11505 0.96375 0.0
C886 C 0.49988 0.106 0.95364 0.0
C887 C 0.48883 0.08263 0.95002 0.0
C888 C 0.4994 0.07425 0.93999 0.0
C889 C 0.52103 0.08908 0.93349 0.0
C890 C 0.53213 0.11229 0.93704 0.0
C891 C 0.52163 0.12078 0.94702 0.0
H892 H 0.52913 0.08264 0.92562 0.0
H893 H 0.41716 0.16129 0.01636 0.0
H894 H 0.75423 0.19983 0.96851 0.0
H895 H 0.71851 0.16525 0.97604 0.0
H896 H 0.68204 0.17297 0.93295 0.0
H897 H 0.71783 0.2081 0.9257 0.0
H898 H 0.65531 0.16348 0.95836 0.0
H899 H 0.69828 0.13073 0.9367 0.0
H900 H 0.73259 0.12513 0.93315 0.0
H901 H 0.73147 0.10385 0.9829 0.0
H902 H 0.69737 0.10969 0.98683 0.0
H903 H 0.55444 0.05471 0.97103 0.0
H904 H 0.58934 0.08541 0.95889 0.0
H905 H 0.63121 0.08645 1.00158 0.0
H906 H 0.59632 0.05558 0.01373 0.0
H907 H 0.65422 0.09041 0.97406 0.0
H908 H 0.61016 0.1232 0.99515 0.0
H909 H 0.57627 0.12965 0.99808 0.0
H910 H 0.58013 0.1525 0.94858 0.0
H911 H 0.61306 0.14479 0.945 0.0
C912 C 0.73859 0.19405 0.96064 0.0
C913 C 0.73876 0.20665 0.94656 0.0
C914 C 0.71819 0.17419 0.96488 0.0
C915 C 0.69746 0.16624 0.95503 0.0
C916 C 0.69773 0.17865 0.94077 0.0
C917 C 0.71821 0.19859 0.93654 0.0
C918 C 0.67543 0.14552 0.96001 0.0
C919 C 0.65493 0.14735 0.96147 0.0
C920 C 0.67495 0.12454 0.96441 0.0
C921 C 0.69536 0.12083 0.96209 0.0
C922 C 0.70544 0.12502 0.94692 0.0
C923 C 0.72485 0.12178 0.94483 0.0
C924 C 0.73423 0.11418 0.9578 0.0
C925 C 0.72419 0.10976 0.97287 0.0
C926 C 0.70481 0.11301 0.97503 0.0
C927 C 0.57108 0.06119 0.97776 0.0
C928 C 0.57243 0.05253 0.99338 0.0
C929 C 0.59108 0.07893 0.97083 0.0
C930 C 0.61299 0.08852 0.97936 0.0
C931 C 0.61456 0.07942 0.99474 0.0
C932 C 0.59452 0.06176 1.0017 0.0
C933 C 0.63413 0.10841 0.97253 0.0
C934 C 0.65448 0.10644 0.97076 0.0
C935 C 0.63437 0.12921 0.96772 0.0
C936 C 0.61391 0.13302 0.96973 0.0
C937 C 0.60346 0.12907 0.98476 0.0
C938 C 0.58435 0.1329 0.98653 0.0
C939 C 0.57588 0.14123 0.97347 0.0
C940 C 0.58645 0.14568 0.95861 0.0
C941 C 0.60525 0.14145 0.95667 0.0
H942 H 0.56126 0.14444 0.97491 0.0
H943 H 0.74926 0.11168 0.95617 0.0
H944 H 0.80745 0.54102 0.92381 0.0
H945 H 0.84502 0.54092 0.92844 0.0
H946 H 0.86618 0.59305 0.96422 0.0
H947 H 0.82924 0.59416 0.95872 0.0
H948 H 0.90364 0.59773 0.95013 0.0
H949 H 0.83616 0.53631 0.97408 0.0
H950 H 0.79641 0.50318 0.97461 0.0
H951 H 0.81775 0.46603 0.94479 0.0
H952 H 0.85751 0.49917 0.94377 0.0
H953 H 0.96718 0.56159 0.00814 0.0
H954 H 0.93961 0.57231 0.99385 0.0
H955 H 0.93199 0.52891 0.95443 0.0
H956 H 0.95955 0.51831 0.9684 0.0
H957 H 0.88953 0.52042 0.96815 0.0
H958 H 0.95961 0.58286 0.94744 0.0
H959 H 0.99924 0.61614 0.94962 0.0
H960 H 0.97281 0.6513 0.97705 0.0
H961 H 0.93306 0.61807 0.97524 0.0
C962 C 0.82053 0.553 0.9322 0.0
C963 C 0.81544 0.56723 0.94121 0.0
C964 C 0.84186 0.55283 0.93495 0.0
C965 C 0.85805 0.56647 0.94704 0.0
C966 C 0.85384 0.5822 0.95497 0.0
C967 C 0.8327 0.58266 0.95198 0.0
C968 C 0.87769 0.56234 0.95292 0.0
C969 C 0.90057 0.58085 0.95411 0.0
C970 C 0.87366 0.54028 0.9581 0.0
C971 C 0.84971 0.52035 0.95865 0.0
C972 C 0.83231 0.52117 0.96749 0.0
C973 C 0.80978 0.50238 0.96789 0.0
C974 C 0.80452 0.48254 0.95968 0.0
C975 C 0.82181 0.48144 0.95108 0.0
C976 C 0.84434 0.50024 0.95057 0.0
C977 C 0.95981 0.55453 0.99636 0.0
C978 C 0.96543 0.53902 0.98945 0.0
C979 C 0.94423 0.56078 0.98818 0.0
C980 C 0.93396 0.55145 0.97309 0.0
C981 C 0.93988 0.53634 0.96604 0.0
C982 C 0.95562 0.53031 0.97408 0.0
C983 C 0.91539 0.55574 0.9653 0.0
C984 C 0.89266 0.53723 0.9639 0.0
C985 C 0.91953 0.57783 0.9603 0.0
C986 C 0.94339 0.59788 0.96133 0.0
C987 C 0.96228 0.5976 0.95406 0.0
C988 C 0.98476 0.61648 0.9552 0.0
C989 C 0.98855 0.6358 0.9635 0.0
C990 C 0.96985 0.63631 0.97064 0.0
C991 C 0.94734 0.61746 0.96954 0.0
H992 H 0.00597 0.6504 0.96437 0.0
H993 H 0.78708 0.46799 0.96003 0.0
H994 H 0.50124 0.28526 0.96694 0.0
H995 H 0.50661 0.32059 0.9789 0.0
H996 H 0.43383 0.30092 0.9671 0.0
H997 H 0.42832 0.26532 0.95566 0.0
H998 H 0.46526 0.34665 0.95808 0.0
H999 H 0.44914 0.29627 1.00463 0.0
H1000 H 0.45534 0.26962 0.02326 0.0
H1001 H 0.52596 0.32171 0.03448 0.0
H1002 H 0.5203 0.34859 0.0157 0.0
H1003 H 0.45699 0.43081 1.00341 0.0
H1004 H 0.4509 0.3953 0.99144 0.0
H1005 H 0.51919 0.40771 0.01072 0.0
H1006 H 0.525 0.44274 0.02299 0.0
H1007 H 0.48962 0.36526 0.01571 0.0
H1008 H 0.50773 0.41545 0.96953 0.0
H1009 H 0.50404 0.44265 0.95001 0.0
H1010 H 0.4331 0.39258 0.93733 0.0
H1011 H 0.4363 0.3651 0.95688 0.0
C1012 C 0.48636 0.28838 0.96715 0.0
C1013 C 0.46438 0.27261 0.96037 0.0
C1014 C 0.48944 0.30859 0.97388 0.0
C1015 C 0.47062 0.31344 0.97387 0.0
C1016 C 0.44864 0.29764 0.96715 0.0
C1017 C 0.4455 0.27734 0.96061 0.0
C1018 C 0.47381 0.33498 0.98085 0.0
C1019 C 0.47029 0.35062 0.97073 0.0
C1020 C 0.481 0.34044 0.99723 0.0
C1021 C 0.48436 0.32437 0.00864 0.0
C1022 C 0.46605 0.30199 0.01096 0.0
C1023 C 0.46946 0.28685 0.02157 0.0
C1024 C 0.49105 0.29395 0.03002 0.0
C1025 C 0.50926 0.31623 0.02791 0.0
C1026 C 0.50595 0.33143 0.0173 0.0
C1027 C 0.4707 0.42596 0.00501 0.0
C1028 C 0.49146 0.43953 0.01413 0.0
C1029 C 0.46727 0.40571 0.99811 0.0
C1030 C 0.48468 0.39882 1.00002 0.0
C1031 C 0.50545 0.41251 0.00908 0.0
C1032 C 0.50878 0.4326 0.01606 0.0
C1033 C 0.48117 0.37714 0.99294 0.0
C1034 C 0.48459 0.3614 1.00305 0.0
C1035 C 0.47424 0.37176 0.97647 0.0
C1036 C 0.47218 0.38829 0.96479 0.0
C1037 C 0.49127 0.4103 0.96269 0.0
C1038 C 0.48928 0.42576 0.9516 0.0
C1039 C 0.46832 0.41938 0.94248 0.0
C1040 C 0.44932 0.3975 0.94442 0.0
C1041 C 0.45122 0.38197 0.95548 0.0
H1042 H 0.46682 0.43131 0.93386 0.0
H1043 H 0.49366 0.2822 0.03822 0.0
H1044 H 0.18669 0.75268 0.06425 0.0
H1045 H 0.15685 0.71654 0.05211 0.0
H1046 H 0.18993 0.68097 0.07755 0.0
H1047 H 0.21935 0.71706 0.08994 0.0
H1048 H 0.17683 0.66927 0.04353 0.0
H1049 H 0.14408 0.6759 0.09244 0.0
H1050 H 0.13189 0.69562 0.11107 0.0
H1051 H 0.08351 0.69824 0.07444 0.0
H1052 H 0.09573 0.67889 0.05547 0.0
H1053 H 0.08882 0.5561 0.02901 0.0
H1054 H 0.11809 0.59124 0.04204 0.0
H1055 H 0.07387 0.62222 0.03024 0.0
H1056 H 0.04388 0.58635 0.01817 0.0
H1057 H 0.09336 0.63702 0.05732 0.0
H1058 H 0.1257 0.63237 0.00796 0.0
H1059 H 0.13834 0.61467 0.98797 0.0
H1060 H 0.18733 0.61035 0.02326 0.0
H1061 H 0.17483 0.62784 0.04352 0.0
C1062 C 0.18759 0.73712 0.06707 0.0
C1063 C 0.20521 0.7375 0.07793 0.0
C1064 C 0.17057 0.71652 0.06021 0.0
C1065 C 0.17109 0.696 0.06396 0.0
C1066 C 0.18918 0.69655 0.07446 0.0
C1067 C 0.20593 0.71708 0.08152 0.0
C1068 C 0.15243 0.67387 0.05729 0.0
C1069 C 0.15861 0.66206 0.04666 0.0
C1070 C 0.12855 0.66475 0.06103 0.0
C1071 C 0.121 0.67616 0.07248 0.0
C1072 C 0.13099 0.68086 0.0883 0.0
C1073 C 0.12406 0.69194 0.09894 0.0
C1074 C 0.10698 0.69823 0.09393 0.0
C1075 C 0.09676 0.69339 0.07829 0.0
C1076 C 0.10368 0.68236 0.0676 0.0
C1077 C 0.08539 0.57043 0.02927 0.0
C1078 C 0.06429 0.56866 0.02239 0.0
C1079 C 0.10221 0.59064 0.03662 0.0
C1080 C 0.09877 0.60992 0.03671 0.0
C1081 C 0.07722 0.60781 0.03027 0.0
C1082 C 0.06007 0.58732 0.02333 0.0
C1083 C 0.11759 0.63221 0.04337 0.0
C1084 C 0.11151 0.64413 0.05405 0.0
C1085 C 0.14155 0.64165 0.03945 0.0
C1086 C 0.14922 0.63128 0.02727 0.0
C1087 C 0.1391 0.62756 0.01147 0.0
C1088 C 0.14626 0.61759 1.00009 0.0
C1089 C 0.16365 0.61143 1.00434 0.0
C1090 C 0.17391 0.6152 0.01998 0.0
C1091 C 0.16681 0.62516 0.03141 0.0
H1092 H 0.16919 0.60374 0.99551 0.0
H1093 H 0.10163 0.70681 0.10218 0.0
H1094 H 0.31842 0.5292 0.10532 0.0
H1095 H 0.34716 0.52356 0.09086 0.0
H1096 H 0.2995 0.45114 0.08962 0.0
H1097 H 0.27049 0.45697 0.10356 0.0
H1098 H 0.35377 0.46892 0.09599 0.0
H1099 H 0.29398 0.4713 0.05763 0.0
H1100 H 0.26965 0.48837 0.04657 0.0
H1101 H 0.33178 0.55274 0.03994 0.0
H1102 H 0.35647 0.53594 0.05085 0.0
H1103 H 0.40902 0.44626 0.03342 0.0
H1104 H 0.37615 0.44472 0.04778 0.0
H1105 H 0.40566 0.5178 0.04183 0.0
H1106 H 0.43826 0.51925 0.02764 0.0
H1107 H 0.35831 0.49697 0.03909 0.0
H1108 H 0.41857 0.49599 0.07413 0.0
H1109 H 0.44512 0.48151 0.08471 0.0
H1110 H 0.38629 0.41927 0.10044 0.0
H1111 H 0.35909 0.43284 0.08899 0.0
C1112 C 0.31445 0.51208 0.10227 0.0
C1113 C 0.29239 0.49353 0.10536 0.0
C1114 C 0.33075 0.50886 0.09406 0.0
C1115 C 0.32524 0.48697 0.0891 0.0
C1116 C 0.304 0.46813 0.09341 0.0
C1117 C 0.28757 0.47142 0.10142 0.0
C1118 C 0.34041 0.48425 0.07783 0.0
C1119 C 0.35451 0.4746 0.08346 0.0
C1120 C 0.34174 0.49232 0.06167 0.0
C1121 C 0.327 0.50244 0.05513 0.0
C1122 C 0.30241 0.48911 0.05386 0.0
C1123 C 0.28859 0.4987 0.04755 0.0
C1124 C 0.29916 0.52165 0.04261 0.0
C1125 C 0.32361 0.53499 0.0438 0.0
C1126 C 0.33753 0.52542 0.04997 0.0
C1127 C 0.40784 0.46176 0.03467 0.0
C1128 C 0.42576 0.48281 0.02929 0.0
C1129 C 0.38929 0.46094 0.04299 0.0
C1130 C 0.38866 0.4812 0.04602 0.0
C1131 C 0.40577 0.50199 0.0396 0.0
C1132 C 0.42429 0.5028 0.03143 0.0
C1133 C 0.37167 0.48134 0.05711 0.0
C1134 C 0.35734 0.49078 0.0515 0.0
C1135 C 0.3705 0.47342 0.07338 0.0
C1136 C 0.38675 0.46527 0.08044 0.0
C1137 C 0.41122 0.47907 0.07963 0.0
C1138 C 0.42642 0.47105 0.08583 0.0
C1139 C 0.41748 0.44954 0.09336 0.0
C1140 C 0.39322 0.43592 0.09459 0.0
C1141 C 0.37787 0.44371 0.08814 0.0
H1142 H 0.42935 0.44343 0.09823 0.0
H1143 H 0.2884 0.52907 0.03782 0.0
H1144 H 0.502 0.78568 0.07251 0.0
H1145 H 0.50009 0.82027 0.06361 0.0
H1146 H 0.57432 0.86087 0.07512 0.0
H1147 H 0.57615 0.82598 0.084 0.0
H1148 H 0.54836 0.88268 0.08301 0.0
H1149 H 0.55737 0.84698 0.0373 0.0
H1150 H 0.54819 0.81471 0.01968 0.0
H1151 H 0.47863 0.80572 0.00957 0.0
H1152 H 0.48724 0.83768 0.02739 0.0
H1153 H 0.54858 0.97573 0.03318 0.0
H1154 H 0.55824 0.94726 0.04632 0.0
H1155 H 0.4876 0.89416 0.0352 0.0
H1156 H 0.47813 0.92222 0.02198 0.0
H1157 H 0.51805 0.88162 0.02647 0.0
H1158 H 0.50584 0.9073 0.07901 0.0
H1159 H 0.51297 0.93652 0.09895 0.0
H1160 H 0.5875 0.9647 0.09503 0.0
H1161 H 0.58072 0.93486 0.07561 0.0
C1162 C 0.51782 0.80204 0.07326 0.0
C1163 C 0.53925 0.8032 0.07874 0.0
C1164 C 0.51676 0.82179 0.06818 0.0
C1165 C 0.53715 0.84318 0.0684 0.0
C1166 C 0.55838 0.84458 0.07477 0.0
C1167 C 0.55942 0.8247 0.07987 0.0
C1168 C 0.53629 0.8636 0.06101 0.0
C1169 C 0.54213 0.88261 0.07055 0.0
C1170 C 0.528 0.86357 0.04479 0.0
C1171 C 0.52291 0.84465 0.03377 0.0
C1172 C 0.54007 0.83805 0.03139 0.0
C1173 C 0.53497 0.81981 0.02137 0.0
C1174 C 0.51283 0.80815 0.01353 0.0
C1175 C 0.49577 0.81476 0.01566 0.0
C1176 C 0.50076 0.83295 0.02571 0.0
C1177 C 0.53513 0.958 0.03367 0.0
C1178 C 0.51268 0.9512 0.02638 0.0
C1179 C 0.5406 0.94173 0.04128 0.0
C1180 C 0.52364 0.91844 0.04181 0.0
C1181 C 0.50108 0.91191 0.0349 0.0
C1182 C 0.49567 0.92803 0.02732 0.0
C1183 C 0.52936 0.90044 0.04861 0.0
C1184 C 0.52454 0.88185 0.03887 0.0
C1185 C 0.5386 0.90089 0.06458 0.0
C1186 C 0.54279 0.91915 0.07578 0.0
C1187 C 0.52373 0.91984 0.08236 0.0
C1188 C 0.52771 0.93645 0.09359 0.0
C1189 C 0.55067 0.95272 0.09805 0.0
C1190 C 0.56972 0.95217 0.09149 0.0
C1191 C 0.56583 0.93529 0.08049 0.0
H1192 H 0.55372 0.96566 0.10668 0.0
H1193 H 0.50891 0.79402 0.00578 0.0
H1194 H 0.95738 0.1447 0.44096 0.0
H1195 H 0.99462 0.17692 0.43224 0.0
H1196 H 0.9579 0.18812 0.39065 0.0
H1197 H 0.92093 0.15603 0.39942 0.0
H1198 H 0.99577 0.18615 0.38169 0.0
H1199 H 0.98037 0.22577 0.42298 0.0
H1200 H 0.97256 0.23185 0.45052 0.0
H1201 H 0.03697 0.2338 0.46849 0.0
H1202 H 0.04508 0.22757 0.44099 0.0
H1203 H 0.08414 0.28942 0.34959 0.0
H1204 H 0.04844 0.26015 0.36183 0.0
H1205 H 0.0896 0.25701 0.40375 0.0
H1206 H 0.1253 0.28674 0.39177 0.0
H1207 H 0.0509 0.25385 0.41351 0.0
H1208 H 0.06802 0.21553 0.37384 0.0
H1209 H 0.07743 0.20855 0.34698 0.0
H1210 H 0.01179 0.20164 0.32698 0.0
H1211 H 0.00212 0.2089 0.3537 0.0
C1212 C 0.95728 0.15452 0.43023 0.0
C1213 C 0.93633 0.14802 0.42089 0.0
C1214 C 0.97855 0.17285 0.42517 0.0
C1215 C 0.97922 0.18506 0.41071 0.0
C1216 C 0.95802 0.179 0.40177 0.0
C1217 C 0.93687 0.16077 0.40682 0.0
C1218 C 1.00194 0.20325 0.40429 0.0
C1219 C 0.00764 0.2011 0.38859 0.0
C1220 C 0.01808 0.22235 0.41345 0.0
C1221 C 0.01319 0.22598 0.42997 0.0
C1222 C 0.99277 0.22731 0.43283 0.0
C1223 C 0.98832 0.23082 0.44845 0.0
C1224 C 0.00423 0.23312 0.4613 0.0
C1225 C 0.02466 0.23197 0.45854 0.0
C1226 C 0.0292 0.22849 0.44293 0.0
C1227 C 0.08563 0.28261 0.36145 0.0
C1228 C 0.1077 0.29048 0.36963 0.0
C1229 C 0.06515 0.26571 0.36843 0.0
C1230 C 0.0662 0.25591 0.38365 0.0
C1231 C 0.08818 0.26414 0.392 0.0
C1232 C 0.10865 0.2812 0.3851 0.0
C1233 C 0.04447 0.23701 0.39075 0.0
C1234 C 0.03903 0.23892 0.40659 0.0
C1235 C 0.02877 0.21742 0.38183 0.0
C1236 C 0.03445 0.21298 0.36574 0.0
C1237 C 0.05567 0.21269 0.36369 0.0
C1238 C 0.06103 0.20866 0.34849 0.0
C1239 C 0.04524 0.20471 0.33527 0.0
C1240 C 0.02402 0.20473 0.33723 0.0
C1241 C 0.01857 0.20878 0.3524 0.0
H1242 H 0.04943 0.20159 0.32352 0.0
H1243 H 1.00083 0.23587 0.47339 0.0
H1244 H 0.86969 0.80996 0.4402 0.0
H1245 H 0.83363 0.80769 0.42734 0.0
H1246 H 0.87317 0.87719 0.4098 0.0
H1247 H 0.90923 0.87949 0.42309 0.0
H1248 H 0.82995 0.86793 0.41994 0.0
H1249 H 0.86151 0.83509 0.38542 0.0
H1250 H 0.87746 0.80973 0.37879 0.0
H1251 H 0.81203 0.75098 0.39005 0.0
H1252 H 0.79584 0.77602 0.39706 0.0
H1253 H 0.74041 0.82884 0.34639 0.0
H1254 H 0.77629 0.83145 0.35976 0.0
H1255 H 0.74788 0.82695 0.40634 0.0
H1256 H 0.71233 0.82487 0.39312 0.0
H1257 H 0.78785 0.80648 0.37994 0.0
H1258 H 0.79152 0.86311 0.4326 0.0
H1259 H 0.7783 0.89105 0.43813 0.0
H1260 H 0.77671 0.90649 0.38739 0.0
H1261 H 0.79049 0.87913 0.38156 0.0
C1262 C 0.87044 0.82483 0.43387 0.0
C1263 C 0.89196 0.8449 0.43255 0.0
C1264 C 0.84999 0.82351 0.42646 0.0
C1265 C 0.85084 0.84217 0.41743 0.0
C1266 C 0.8722 0.86261 0.41669 0.0
C1267 C 0.89269 0.86393 0.42418 0.0
C1268 C 0.82966 0.83978 0.40807 0.0
C1269 C 0.82069 0.85451 0.41121 0.0
C1270 C 0.81799 0.82259 0.3964 0.0
C1271 C 0.82752 0.80745 0.39189 0.0
C1272 C 0.85057 0.81677 0.38658 0.0
C1273 C 0.85965 0.80245 0.38275 0.0
C1274 C 0.84578 0.77876 0.38402 0.0
C1275 C 0.82277 0.76934 0.38908 0.0
C1276 C 0.81362 0.78359 0.39298 0.0
C1277 C 0.74162 0.8279 0.35947 0.0
C1278 C 0.72368 0.82685 0.36871 0.0
C1279 C 0.76216 0.82951 0.36709 0.0
C1280 C 0.76498 0.82999 0.38404 0.0
C1281 C 0.74633 0.82722 0.39325 0.0
C1282 C 0.72596 0.82586 0.38567 0.0
C1283 C 0.78769 0.83425 0.39209 0.0
C1284 C 0.79703 0.81991 0.38868 0.0
C1285 C 0.79993 0.85213 0.40327 0.0
C1286 C 0.79183 0.86885 0.40664 0.0
C1287 C 0.78848 0.87256 0.42262 0.0
C1288 C 0.78092 0.88833 0.42581 0.0
C1289 C 0.77665 0.90053 0.4131 0.0
C1290 C 0.78001 0.89703 0.3972 0.0
C1291 C 0.7877 0.88139 0.39395 0.0
H1292 H 0.77074 0.91269 0.41558 0.0
H1293 H 0.85284 0.7677 0.38105 0.0
H1294 H 0.16755 0.05088 0.39226 0.0
H1295 H 0.15875 0.01381 0.38158 0.0
H1296 H 0.22781 0.02518 0.39812 0.0
H1297 H 0.237 0.06283 0.40783 0.0
H1298 H 0.2182 1.0058 0.37071 0.0
H1299 H 0.17591 0.98992 0.4189 0.0
H1300 H 0.14851 0.99109 0.43771 0.0
H1301 H 0.09138 0.95856 0.40267 0.0
H1302 H 0.11851 0.95751 0.38354 0.0
H1303 H 0.19278 0.8896 0.36763 0.0
H1304 H 0.20177 0.927 0.37771 0.0
H1305 H 0.13718 0.92 0.35493 0.0
H1306 H 0.12788 0.88238 0.34509 0.0
H1307 H 0.14468 0.9368 0.38559 0.0
H1308 H 0.18925 0.95342 0.33752 0.0
H1309 H 0.21753 0.95083 0.3203 0.0
H1310 H 0.27172 0.98031 0.35769 0.0
H1311 H 0.24367 0.98289 0.37521 0.0
C1312 C 0.18092 0.04555 0.39334 0.0
C1313 C 0.20288 0.0596 0.40097 0.0
C1314 C 0.17581 0.02424 0.38744 0.0
C1315 C 0.1924 0.01632 0.38935 0.0
C1316 C 0.2146 0.03071 0.39657 0.0
C1317 C 0.2198 0.05213 0.40226 0.0
C1318 C 0.18659 0.99305 0.38397 0.0
C1319 C 0.20225 0.99072 0.37417 0.0
C1320 C 0.16566 0.97321 0.38826 0.0
C1321 C 0.14931 0.9739 0.39971 0.0
C1322 C 0.15754 0.9832 0.41515 0.0
C1323 C 0.14205 0.98382 0.42588 0.0
C1324 C 0.11823 0.97498 0.42137 0.0
C1325 C 0.10984 0.96545 0.40613 0.0
C1326 C 0.12527 0.96484 0.39534 0.0
C1327 C 0.1804 0.89595 0.36489 0.0
C1328 C 0.15965 0.8831 0.35553 0.0
C1329 C 0.18564 0.9174 0.37056 0.0
C1330 C 0.17031 0.92648 0.3669 0.0
C1331 C 0.14934 0.91342 0.35784 0.0
C1332 C 0.14406 0.89194 0.3522 0.0
C1333 C 0.17621 0.94966 0.37237 0.0
C1334 C 0.1606 0.95193 0.38218 0.0
C1335 C 0.19734 0.96935 0.36833 0.0
C1336 C 0.21432 0.96819 0.35771 0.0
C1337 C 0.20716 0.95926 0.3421 0.0
C1338 C 0.22316 0.95781 0.33228 0.0
C1339 C 0.2464 0.96537 0.33791 0.0
C1340 C 0.25371 0.97447 0.35335 0.0
C1341 C 0.23779 0.97596 0.36321 0.0
H1342 H 0.25874 0.96423 0.33028 0.0
H1343 H 0.10626 0.97545 0.42969 0.0
H1344 H 0.45026 0.6322 0.29148 0.0
H1345 H 0.48196 0.66841 0.30213 0.0
H1346 H 0.53239 0.64524 0.29508 0.0
H1347 H 0.5005 0.60892 0.28477 0.0
H1348 H 0.542 0.66616 0.32316 0.0
H1349 H 0.52696 0.68387 0.26891 0.0
H1350 H 0.50344 0.68592 0.24503 0.0
H1351 H 0.48368 0.72798 0.27084 0.0
H1352 H 0.50683 0.72592 0.29497 0.0
H1353 H 0.64218 0.7774 0.33319 0.0
H1354 H 0.61298 0.74135 0.32078 0.0
H1355 H 0.55777 0.75707 0.3303 0.0
H1356 H 0.58674 0.7929 0.34269 0.0
H1357 H 0.55246 0.74003 0.2998 0.0
H1358 H 0.56695 0.72024 0.35456 0.0
H1359 H 0.59175 0.71849 0.37774 0.0
H1360 H 0.61419 0.68057 0.34964 0.0
H1361 H 0.58976 0.68238 0.32621 0.0
C1362 C 0.46811 0.63485 0.29245 0.0
C1363 C 0.47303 0.61784 0.28748 0.0
C1364 C 0.48625 0.65557 0.29836 0.0
C1365 C 0.50972 0.65977 0.29925 0.0
C1366 C 0.51451 0.64251 0.29453 0.0
C1367 C 0.49636 0.62181 0.28863 0.0
C1368 C 0.52923 0.68215 0.30502 0.0
C1369 C 0.54446 0.68227 0.31787 0.0
C1370 C 0.53246 0.70332 0.29828 0.0
C1371 C 0.51843 0.70453 0.28381 0.0
C1372 C 0.51742 0.69339 0.26955 0.0
C1373 C 0.50419 0.69458 0.25596 0.0
C1374 C 0.49199 0.70698 0.25644 0.0
C1375 C 0.49308 0.71831 0.2705 0.0
C1376 C 0.50627 0.71716 0.28413 0.0
C1377 C 0.62383 0.77318 0.33255 0.0
C1378 C 0.61673 0.7879 0.33902 0.0
C1379 C 0.60714 0.75255 0.32551 0.0
C1380 C 0.58309 0.74634 0.32473 0.0
C1381 C 0.57616 0.76141 0.33076 0.0
C1382 C 0.59275 0.78187 0.3379 0.0
C1383 C 0.56495 0.72398 0.31803 0.0
C1384 C 0.55002 0.72387 0.30501 0.0
C1385 C 0.56214 0.70284 0.3245 0.0
C1386 C 0.57674 0.70167 0.33858 0.0
C1387 C 0.57733 0.7117 0.35328 0.0
C1388 C 0.59129 0.71066 0.36647 0.0
C1389 C 0.60459 0.69949 0.36515 0.0
C1390 C 0.60391 0.68926 0.35064 0.0
C1391 C 0.59 0.69027 0.33741 0.0
H1392 H 0.61539 0.6987 0.37537 0.0
H1393 H 0.48176 0.7079 0.2459 0.0
H1394 H 0.40856 0.88082 0.30633 0.0
H1395 H 0.37085 0.87045 0.31808 0.0
H1396 H 0.37753 0.93593 0.30278 0.0
H1397 H 0.41582 0.94658 0.29181 0.0
H1398 H 0.35693 0.92346 0.33071 0.0
H1399 H 0.34722 0.88946 0.27947 0.0
H1400 H 0.35319 0.86698 0.25924 0.0
H1401 H 0.32105 0.80709 0.28973 0.0
H1402 H 0.31526 0.82932 0.31028 0.0
H1403 H 0.22076 0.85209 0.31352 0.0
H1404 H 0.26115 0.86759 0.30529 0.0
H1405 H 0.28542 0.87324 0.35537 0.0
H1406 H 0.24517 0.85841 0.36371 0.0
H1407 H 0.29056 0.85198 0.30909 0.0
H1408 H 0.34039 0.91765 0.36005 0.0
H1409 H 0.33369 0.943 0.37727 0.0
H1410 H 0.28355 0.94468 0.34176 0.0
H1411 H 0.2902 0.91966 0.32422 0.0
C1412 C 0.40221 0.89316 0.30602 0.0
C1413 C 0.41487 0.91447 0.29834 0.0
C1414 C 0.38067 0.88722 0.31254 0.0
C1415 C 0.37123 0.90229 0.31103 0.0
C1416 C 0.38449 0.92406 0.30407 0.0
C1417 C 0.40619 0.9301 0.29775 0.0
C1418 C 0.34679 0.89464 0.31543 0.0
C1419 C 0.3424 0.9078 0.32605 0.0
C1420 C 0.32778 0.87461 0.30889 0.0
C1421 C 0.33101 0.86111 0.29648 0.0
C1422 C 0.34156 0.87153 0.28191 0.0
C1423 C 0.34491 0.85883 0.27038 0.0
C1424 C 0.33754 0.83563 0.27321 0.0
C1425 C 0.32677 0.82507 0.28756 0.0
C1426 C 0.32345 0.83771 0.29916 0.0
C1427 C 0.23471 0.85673 0.32279 0.0
C1428 C 0.22981 0.85411 0.33926 0.0
C1429 C 0.25777 0.86555 0.31806 0.0
C1430 C 0.27631 0.87178 0.32972 0.0
C1431 C 0.27143 0.86898 0.34618 0.0
C1432 C 0.24841 0.86041 0.35092 0.0
C1433 C 0.30066 0.88056 0.32462 0.0
C1434 C 0.30505 0.86761 0.31383 0.0
C1435 C 0.31949 0.90121 0.33054 0.0
C1436 C 0.31564 0.91658 0.3409 0.0
C1437 C 0.32801 0.92352 0.35588 0.0
C1438 C 0.32421 0.93782 0.3657 0.0
C1439 C 0.30815 0.94539 0.36063 0.0
C1440 C 0.29592 0.93875 0.3457 0.0
C1441 C 0.29969 0.92448 0.33582 0.0
H1442 H 0.3052 0.95643 0.36826 0.0
H1443 H 0.34014 0.82583 0.26427 0.0
H1444 H 0.10187 0.50858 0.27307 0.0
H1445 H 0.10708 0.47505 0.27988 0.0
H1446 H 0.17847 0.51945 0.29686 0.0
H1447 H 0.17364 0.55274 0.28902 0.0
H1448 H 0.17807 0.48541 0.28403 0.0
H1449 H 0.12916 0.49248 0.32247 0.0
H1450 H 0.09466 0.49479 0.33111 0.0
H1451 H 0.04878 0.42866 0.31148 0.0
H1452 H 0.08303 0.4261 0.30254 0.0
H1453 H 0.20078 0.42032 0.34479 0.0
H1454 H 0.19225 0.44756 0.32924 0.0
H1455 H 0.1263 0.39239 0.31162 0.0
H1456 H 0.13458 0.36492 0.32764 0.0
H1457 H 0.12099 0.42776 0.3211 0.0
H1458 H 0.17501 0.41997 0.28792 0.0
H1459 H 0.21213 0.42007 0.28269 0.0
H1460 H 0.25139 0.49054 0.29554 0.0
H1461 H 0.21476 0.49086 0.30131 0.0
C1462 C 0.11882 0.51109 0.27785 0.0
C1463 C 0.13728 0.53323 0.28072 0.0
C1464 C 0.12172 0.49193 0.28196 0.0
C1465 C 0.14302 0.49456 0.28933 0.0
C1466 C 0.16181 0.51678 0.29133 0.0
C1467 C 0.15901 0.53584 0.28699 0.0
C1468 C 0.14558 0.47451 0.2958 0.0
C1469 C 0.16561 0.47286 0.29218 0.0
C1470 C 0.12919 0.45777 0.30625 0.0
C1471 C 0.10861 0.45922 0.31167 0.0
C1472 C 0.1117 0.4785 0.31991 0.0
C1473 C 0.0922 0.47985 0.32487 0.0
C1474 C 0.06954 0.46191 0.3218 0.0
C1475 C 0.06634 0.44256 0.31381 0.0
C1476 C 0.08578 0.44115 0.3088 0.0
C1477 C 0.18444 0.41393 0.3376 0.0
C1478 C 0.16835 0.39045 0.33743 0.0
C1479 C 0.17966 0.42955 0.32859 0.0
C1480 C 0.15881 0.42208 0.31898 0.0
C1481 C 0.14259 0.39859 0.31885 0.0
C1482 C 0.14734 0.3829 0.32796 0.0
C1483 C 0.15374 0.43901 0.30964 0.0
C1484 C 0.13324 0.44004 0.31271 0.0
C1485 C 0.17002 0.45551 0.29901 0.0
C1486 C 0.19205 0.4554 0.29512 0.0
C1487 C 0.19155 0.43547 0.28971 0.0
C1488 C 0.21249 0.43544 0.28665 0.0
C1489 C 0.23401 0.45526 0.28876 0.0
C1490 C 0.23469 0.4752 0.29391 0.0
C1491 C 0.21385 0.47532 0.29708 0.0
H1492 H 0.25014 0.45517 0.28635 0.0
H1493 H 0.05446 0.46298 0.32565 0.0
H1494 H 0.38189 0.54385 0.26023 0.0
H1495 H 0.34626 0.50856 0.26732 0.0
H1496 H 0.38486 0.4968 0.30748 0.0
H1497 H 0.42049 0.53156 0.29998 0.0
H1498 H 0.35609 0.4576 0.29402 0.0
H1499 H 0.34863 0.52128 0.31185 0.0
H1500 H 0.34715 0.55749 0.30888 0.0
H1501 H 0.28777 0.52633 0.27531 0.0
H1502 H 0.28919 0.49008 0.27793 0.0
H1503 H 0.26276 0.38685 0.34547 0.0
H1504 H 0.29746 0.4181 0.33342 0.0
H1505 H 0.25477 0.41936 0.29189 0.0
H1506 H 0.21994 0.38813 0.30383 0.0
H1507 H 0.2844 0.46287 0.30438 0.0
H1508 H 0.29088 0.39816 0.28801 0.0
H1509 H 0.29225 0.36201 0.29216 0.0
H1510 H 0.3533 0.39523 0.32407 0.0
H1511 H 0.3521 0.43153 0.32028 0.0
C1512 C 0.38274 0.53345 0.27038 0.0
C1513 C 0.4038 0.54053 0.27969 0.0
C1514 C 0.36236 0.51342 0.27455 0.0
C1515 C 0.36263 0.50014 0.28818 0.0
C1516 C 0.38403 0.50673 0.297 0.0
C1517 C 0.40436 0.52667 0.29279 0.0
C1518 C 0.34063 0.47986 0.29364 0.0
C1519 C 0.34049 0.45885 0.29635 0.0
C1520 C 0.31998 0.48118 0.29648 0.0
C1521 C 0.31918 0.50303 0.29492 0.0
C1522 C 0.3354 0.52221 0.30373 0.0
C1523 C 0.33455 0.54275 0.30213 0.0
C1524 C 0.31743 0.54425 0.29187 0.0
C1525 C 0.30108 0.52519 0.28322 0.0
C1526 C 0.3019 0.50465 0.28475 0.0
C1527 C 0.26074 0.39363 0.33371 0.0
C1528 C 0.2385 0.38484 0.32563 0.0
C1529 C 0.28064 0.4115 0.32682 0.0
C1530 C 0.2788 0.42111 0.31171 0.0
C1531 C 0.25666 0.41232 0.30357 0.0
C1532 C 0.23677 0.3943 0.31039 0.0
C1533 C 0.29988 0.44069 0.30466 0.0
C1534 C 0.29988 0.46157 0.30176 0.0
C1535 C 0.32043 0.43929 0.30174 0.0
C1536 C 0.32128 0.41752 0.30397 0.0
C1537 C 0.30449 0.39772 0.29601 0.0
C1538 C 0.30525 0.3772 0.29828 0.0
C1539 C 0.32281 0.37631 0.3084 0.0
C1540 C 0.33969 0.39594 0.31624 0.0
C1541 C 0.339 0.4165 0.31403 0.0
H1542 H 0.32337 0.3604 0.31014 0.0
H1543 H 0.31679 0.56015 0.29066 0.0
H1544 H 0.47923 0.89503 0.26551 0.0
H1545 H 0.51389 0.88975 0.26965 0.0
H1546 H 0.54168 0.94174 0.30599 0.0
H1547 H 0.5081 0.94864 0.30051 0.0
H1548 H 0.57667 0.94193 0.29239 0.0
H1549 H 0.50584 0.8838 0.31526 0.0
H1550 H 0.46424 0.85405 0.31487 0.0
H1551 H 0.4787 0.81501 0.28189 0.0
H1552 H 0.52034 0.84474 0.2819 0.0
H1553 H 0.6332 0.89476 0.34675 0.0
H1554 H 0.60706 0.90843 0.33406 0.0
H1555 H 0.59421 0.86575 0.29308 0.0
H1556 H 0.62039 0.85214 0.30555 0.0
H1557 H 0.55325 0.86114 0.3071 0.0
H1558 H 0.6271 0.92015 0.28791 0.0
H1559 H 0.66845 0.94997 0.29149 0.0
H1560 H 0.64784 0.98741 0.32158 0.0
H1561 H 0.60637 0.95764 0.31837 0.0
C1562 C 0.49322 0.90599 0.27385 0.0
C1563 C 0.4909 0.92199 0.28289 0.0
C1564 C 0.51285 0.90273 0.27641 0.0
C1565 C 0.52998 0.91476 0.28856 0.0
C1566 C 0.52856 0.93202 0.2967 0.0
C1567 C 0.50925 0.93574 0.29376 0.0
C1568 C 0.54775 0.90768 0.29404 0.0
C1569 C 0.57153 0.92428 0.29566 0.0
C1570 C 0.5411 0.88463 0.29832 0.0
C1571 C 0.51614 0.86659 0.29845 0.0
C1572 C 0.50012 0.86893 0.30786 0.0
C1573 C 0.47653 0.85208 0.3077 0.0
C1574 C 0.46882 0.83268 0.29833 0.0
C1575 C 0.48469 0.83007 0.28912 0.0
C1576 C 0.50829 0.84691 0.2892 0.0
C1577 C 0.62489 0.88837 0.33501 0.0
C1578 C 0.6288 0.87234 0.32717 0.0
C1579 C 0.6101 0.89629 0.32775 0.0
C1580 C 0.59889 0.88817 0.31261 0.0
C1581 C 0.60281 0.87225 0.30475 0.0
C1582 C 0.61779 0.86453 0.31189 0.0
C1583 C 0.58204 0.89534 0.30539 0.0
C1584 C 0.5584 0.87872 0.30358 0.0
C1585 C 0.58878 0.9184 0.30135 0.0
C1586 C 0.61364 0.93657 0.303 0.0
C1587 C 0.63139 0.93467 0.29537 0.0
C1588 C 0.65486 0.95157 0.29732 0.0
C1589 C 0.66078 0.97054 0.30679 0.0
C1590 C 0.64323 0.9727 0.31426 0.0
C1591 C 0.61974 0.95583 0.31236 0.0
H1592 H 0.67896 0.98358 0.30831 0.0
H1593 H 0.45056 0.81964 0.29822 0.0
H1594 H 0.10008 0.59862 0.28566 0.0
H1595 H 0.10513 0.63393 0.29731 0.0
H1596 H 0.1771 0.65263 0.31131 0.0
H1597 H 0.17221 0.6176 0.29916 0.0
H1598 H 0.15256 0.65872 0.33584 0.0
H1599 H 0.16693 0.67822 0.27961 0.0
H1600 H 0.15788 0.67359 0.25026 0.0
H1601 H 0.09598 0.68011 0.25556 0.0
H1602 H 0.10448 0.68446 0.285 0.0
H1603 H 0.19261 0.77359 0.35584 0.0
H1604 H 0.18764 0.73897 0.34337 0.0
H1605 H 0.11906 0.72539 0.32396 0.0
H1606 H 0.12421 0.76039 0.33621 0.0
H1607 H 0.14143 0.71637 0.30205 0.0
H1608 H 0.12594 0.69635 0.35779 0.0
H1609 H 0.13374 0.70031 0.38727 0.0
H1610 H 0.19581 0.69366 0.38319 0.0
H1611 H 0.18855 0.68998 0.35364 0.0
C1612 C 0.117 0.61038 0.29112 0.0
C1613 C 0.13581 0.60551 0.29142 0.0
C1614 C 0.11986 0.63049 0.2978 0.0
C1615 C 0.14157 0.64605 0.30504 0.0
C1616 C 0.16021 0.6409 0.30577 0.0
C1617 C 0.1574 0.62088 0.29891 0.0
C1618 C 0.14478 0.66767 0.31185 0.0
C1619 C 0.15045 0.67148 0.32842 0.0
C1620 C 0.14135 0.68401 0.30225 0.0
C1621 C 0.13621 0.6814 0.28454 0.0
C1622 C 0.15127 0.67845 0.27455 0.0
C1623 C 0.14626 0.67592 0.25789 0.0
C1624 C 0.12632 0.67647 0.25107 0.0
C1625 C 0.11139 0.67964 0.26088 0.0
C1626 C 0.11631 0.68215 0.27754 0.0
C1627 C 0.17648 0.76324 0.34889 0.0
C1628 C 0.15874 0.76962 0.34708 0.0
C1629 C 0.17361 0.74339 0.34182 0.0
C1630 C 0.15278 0.72926 0.33295 0.0
C1631 C 0.13525 0.73592 0.33079 0.0
C1632 C 0.13818 0.7559 0.3378 0.0
C1633 C 0.14929 0.70751 0.32609 0.0
C1634 C 0.14354 0.70363 0.3095 0.0
C1635 C 0.15244 0.69098 0.3357 0.0
C1636 C 0.15682 0.69311 0.35348 0.0
C1637 C 0.14135 0.69591 0.36316 0.0
C1638 C 0.14566 0.69807 0.37989 0.0
C1639 C 0.16529 0.69729 0.3871 0.0
C1640 C 0.18063 0.69429 0.37759 0.0
C1641 C 0.17641 0.69214 0.36085 0.0
H1642 H 0.1686 0.69897 0.40005 0.0
H1643 H 0.12246 0.67449 0.23817 0.0
H1644 H 0.86592 0.05008 0.4347 0.0
H1645 H 0.83541 0.01409 0.4234 0.0
H1646 H 0.83438 0.04927 0.3786 0.0
H1647 H 0.86337 0.08555 0.39052 0.0
H1648 H 0.79255 0.02087 0.38357 0.0
H1649 H 0.86276 0.01356 0.38596 0.0
H1650 H 0.89779 0.01274 0.39851 0.0
H1651 H 0.85406 0.95745 0.42997 0.0
H1652 H 0.8188 0.95815 0.41776 0.0
H1653 H 0.75876 0.90313 0.34577 0.0
H1654 H 0.78724 0.93875 0.35848 0.0
H1655 H 0.73116 0.94208 0.38159 0.0
H1656 H 0.70239 0.9069 0.36812 0.0
H1657 H 0.80109 0.95087 0.38762 0.0
H1658 H 0.74561 0.99746 0.38772 0.0
H1659 H 0.71265 0.99853 0.37196 0.0
H1660 H 0.73127 0.97675 0.32982 0.0
H1661 H 0.76451 0.97583 0.34527 0.0
C1662 C 0.85894 0.05013 0.42252 0.0
C1663 C 0.86705 0.07067 0.41351 0.0
C1664 C 0.8417 0.02946 0.41594 0.0
C1665 C 0.83269 0.02865 0.39996 0.0
C1666 C 0.84092 0.04922 0.39093 0.0
C1667 C 0.85776 0.06997 0.39766 0.0
C1668 C 0.8146 1.00654 0.39267 0.0
C1669 C 0.79452 1.00561 0.38449 0.0
C1670 C 0.81696 0.98643 0.39364 0.0
C1671 C 0.83818 0.98612 0.40108 0.0
C1672 C 0.86064 1.00137 0.39565 0.0
C1673 C 0.88053 1.0009 0.40269 0.0
C1674 C 0.87816 0.98511 0.41507 0.0
C1675 C 0.85588 0.96972 0.42041 0.0
C1676 C 0.83594 0.97014 0.41344 0.0
C1677 C 0.75245 0.9115 0.35349 0.0
C1678 C 0.72829 0.90223 0.35589 0.0
C1679 C 0.7688 0.93187 0.36083 0.0
C1680 C 0.76148 0.94338 0.37093 0.0
C1681 C 0.73733 0.93384 0.37364 0.0
C1682 C 0.72087 0.9136 0.36605 0.0
C1683 C 0.77924 0.96532 0.37847 0.0
C1684 C 0.79916 0.96615 0.38676 0.0
C1685 C 0.77708 0.98547 0.37719 0.0
C1686 C 0.75738 0.98634 0.36771 0.0
C1687 C 0.74272 0.99299 0.37508 0.0
C1688 C 0.72398 0.99355 0.3662 0.0
C1689 C 0.71981 0.98763 0.34991 0.0
C1690 C 0.73446 0.98124 0.34245 0.0
C1691 C 0.75323 0.98068 0.35127 0.0
H1692 H 0.70527 0.98804 0.34307 0.0
H1693 H 0.89359 0.98477 0.42049 0.0
H1694 H 0.92994 0.80233 0.41631 0.0
H1695 H 0.95707 0.79204 0.40452 0.0
H1696 H 0.01202 0.83505 0.43869 0.0
H1697 H 0.98498 0.84642 0.44977 0.0
H1698 H 0.02925 0.84342 0.4113 0.0
H1699 H 0.98404 0.77478 0.43992 0.0
H1700 H 0.94823 0.74147 0.44945 0.0
H1701 H 0.92981 0.71585 0.40123 0.0
H1702 H 0.96504 0.74941 0.39124 0.0
H1703 H 0.09162 0.78065 0.38683 0.0
H1704 H 0.05876 0.77814 0.40142 0.0
H1705 H 0.04464 0.81596 0.3628 0.0
H1706 H 0.07725 0.81801 0.34795 0.0
H1707 H 0.00938 0.76502 0.39574 0.0
H1708 H 0.04917 0.86258 0.38269 0.0
H1709 H 0.08797 0.89553 0.37726 0.0
H1710 H 0.12231 0.86106 0.40204 0.0
H1711 H 0.08385 0.82822 0.40791 0.0
C1712 C 0.94785 0.80959 0.42122 0.0
C1713 C 0.9557 0.82562 0.43359 0.0
C1714 C 0.96326 0.80345 0.41468 0.0
C1715 C 0.98663 0.81262 0.42077 0.0
C1716 C 0.99411 0.82777 0.43375 0.0
C1717 C 0.97872 0.83418 0.44013 0.0
C1718 C 0.00355 0.8077 0.41276 0.0
C1719 C 0.02482 0.82623 0.408 0.0
C1720 C 0.99823 0.78521 0.40879 0.0
C1721 C 0.97717 0.76476 0.41479 0.0
C1722 C 0.97229 0.76215 0.43131 0.0
C1723 C 0.95209 0.74321 0.4368 0.0
C1724 C 0.93681 0.72653 0.42598 0.0
C1725 C 0.94167 0.72878 0.40961 0.0
C1726 C 0.96174 0.74779 0.40401 0.0
C1727 C 0.08078 0.7875 0.38115 0.0
C1728 C 0.08673 0.79939 0.36627 0.0
C1729 C 0.06208 0.78607 0.38949 0.0
C1730 C 0.0495 0.79704 0.38324 0.0
C1731 C 0.05422 0.80738 0.36778 0.0
C1732 C 0.07267 0.80841 0.35926 0.0
C1733 C 0.03418 0.80078 0.39383 0.0
C1734 C 0.01351 0.7821 0.39911 0.0
C1735 C 0.04043 0.82296 0.39894 0.0
C1736 C 0.06362 0.84281 0.39553 0.0
C1737 C 0.06501 0.86208 0.387 0.0
C1738 C 0.08694 0.88074 0.38387 0.0
C1739 C 0.10756 0.88033 0.38928 0.0
C1740 C 0.10633 0.86131 0.39783 0.0
C1741 C 0.08448 0.84267 0.40104 0.0
H1742 H 0.1245 0.89478 0.38694 0.0
H1743 H 0.9212 0.71186 0.43028 0.0
H1744 H 0.24599 0.15757 0.40538 0.0
H1745 H 0.24181 0.19137 0.39712 0.0
H1746 H 0.16695 0.15223 0.40286 0.0
H1747 H 0.17135 0.11852 0.4108 0.0
H1748 H 0.17579 0.17372 0.37459 0.0
H1749 H 0.20578 0.1953 0.42944 0.0
H1750 H 0.23465 0.20351 0.45229 0.0
H1751 H 0.28787 0.2574 0.42464 0.0
H1752 H 0.25949 0.24924 0.40146 0.0
H1753 H 0.14266 0.25804 0.36174 0.0
H1754 H 0.15113 0.22946 0.37533 0.0
H1755 H 0.22545 0.27416 0.3706 0.0
H1756 H 0.21693 0.30349 0.35769 0.0
H1757 H 0.21908 0.25101 0.39802 0.0
H1758 H 0.19186 0.22966 0.34336 0.0
H1759 H 0.16502 0.22184 0.3193 0.0
H1760 H 0.10913 0.16795 0.34524 0.0
H1761 H 0.13557 0.17563 0.36952 0.0
C1762 C 0.22881 0.15652 0.40519 0.0
C1763 C 0.209 0.13575 0.40888 0.0
C1764 C 0.22638 0.17575 0.40048 0.0
C1765 C 0.20406 0.17449 0.39949 0.0
C1766 C 0.18435 0.15372 0.40355 0.0
C1767 C 0.18681 0.13453 0.40816 0.0
C1768 C 0.20086 0.19417 0.39316 0.0
C1769 C 0.18502 0.19051 0.37991 0.0
C1770 C 0.21359 0.21641 0.39961 0.0
C1771 C 0.23054 0.22151 0.41365 0.0
C1772 C 0.22367 0.20879 0.42818 0.0
C1773 C 0.23995 0.21344 0.4412 0.0
C1774 C 0.26306 0.23092 0.43992 0.0
C1775 C 0.26996 0.24384 0.42561 0.0
C1776 C 0.25379 0.23921 0.41253 0.0
C1777 C 0.16083 0.26187 0.36373 0.0
C1778 C 0.17914 0.28279 0.35841 0.0
C1779 C 0.16567 0.24546 0.37145 0.0
C1780 C 0.18891 0.24924 0.37354 0.0
C1781 C 0.20736 0.27068 0.36899 0.0
C1782 C 0.2025 0.28741 0.36158 0.0
C1783 C 0.19362 0.23035 0.37968 0.0
C1784 C 0.20982 0.23418 0.39277 0.0
C1785 C 0.1815 0.20826 0.37295 0.0
C1786 C 0.16565 0.20334 0.35829 0.0
C1787 C 0.17382 0.21621 0.34395 0.0
C1788 C 0.15868 0.21179 0.33028 0.0
C1789 C 0.13537 0.19443 0.33076 0.0
C1790 C 0.12718 0.18139 0.34489 0.0
C1791 C 0.14224 0.18575 0.35861 0.0
H1792 H 0.12367 0.19106 0.32016 0.0
H1793 H 0.27562 0.23448 0.45002 0.0
H1794 H 0.58722 0.50215 0.73921 0.0
H1795 H 0.62411 0.53463 0.73046 0.0
H1796 H 0.66344 0.50667 0.75773 0.0
H1797 H 0.62632 0.47426 0.76652 0.0
H1798 H 0.68642 0.55392 0.75875 0.0
H1799 H 0.6519 0.49659 0.71827 0.0
H1800 H 0.62007 0.47003 0.6999 0.0
H1801 H 0.61642 0.52645 0.67551 0.0
H1802 H 0.64805 0.55335 0.6939 0.0
H1803 H 0.79236 0.61403 0.71666 0.0
H1804 H 0.75681 0.58523 0.7292 0.0
H1805 H 0.71476 0.60468 0.6966 0.0
H1806 H 0.75039 0.63258 0.68332 0.0
H1807 H 0.6932 0.56176 0.69923 0.0
H1808 H 0.72987 0.61966 0.74003 0.0
H1809 H 0.76297 0.64516 0.75811 0.0
H1810 H 0.76352 0.58706 0.7821 0.0
H1811 H 0.73071 0.56123 0.76399 0.0
C1812 C 0.60381 0.50338 0.74365 0.0
C1813 C 0.60405 0.48587 0.75355 0.0
C1814 C 0.62488 0.52179 0.73857 0.0
C1815 C 0.64669 0.52301 0.7432 0.0
C1816 C 0.64694 0.50619 0.75395 0.0
C1817 C 0.62579 0.48773 0.75902 0.0
C1818 C 0.66885 0.5407 0.73578 0.0
C1819 C 0.68799 0.55556 0.74574 0.0
C1820 C 0.67098 0.54306 0.71879 0.0
C1821 C 0.65219 0.52697 0.70756 0.0
C1822 C 0.64422 0.50333 0.70905 0.0
C1823 C 0.62623 0.48821 0.69863 0.0
C1824 C 0.61619 0.49654 0.68657 0.0
C1825 C 0.62419 0.52002 0.68487 0.0
C1826 C 0.64217 0.53521 0.69528 0.0
C1827 C 0.77554 0.61228 0.71221 0.0
C1828 C 0.77426 0.62579 0.69906 0.0
C1829 C 0.75512 0.59583 0.7195 0.0
C1830 C 0.73284 0.59297 0.71426 0.0
C1831 C 0.73159 0.60646 0.70104 0.0
C1832 C 0.752 0.62251 0.69344 0.0
C1833 C 0.71085 0.57551 0.72214 0.0
C1834 C 0.69169 0.56046 0.71225 0.0
C1835 C 0.70883 0.57299 0.73921 0.0
C1836 C 0.72795 0.58851 0.75053 0.0
C1837 C 0.73709 0.61233 0.74913 0.0
C1838 C 0.75584 0.62684 0.75936 0.0
C1839 C 0.76545 0.61774 0.77117 0.0
C1840 C 0.75615 0.5941 0.77289 0.0
C1841 C 0.73746 0.57951 0.76266 0.0
H1842 H 0.78005 0.62901 0.77902 0.0
H1843 H 0.60224 0.4848 0.67852 0.0
H1844 H 0.52798 0.10872 0.74687 0.0
H1845 H 0.49412 0.11067 0.7335 0.0
H1846 H 0.50859 0.16835 0.76268 0.0
H1847 H 0.54223 0.16597 0.77616 0.0
H1848 H 0.46179 0.13864 0.75983 0.0
H1849 H 0.52659 0.17611 0.7247 0.0
H1850 H 0.55876 0.1785 0.70895 0.0
H1851 H 0.509 0.12303 0.6796 0.0
H1852 H 0.47655 0.12 0.6954 0.0
H1853 H 0.40337 0.1891 0.71608 0.0
H1854 H 0.43341 0.18113 0.72885 0.0
H1855 H 0.4145 0.12642 0.69561 0.0
H1856 H 0.38457 0.13491 0.6823 0.0
H1857 H 0.46127 0.15082 0.7003 0.0
H1858 H 0.39593 0.11524 0.73487 0.0
H1859 H 0.3643 0.11402 0.75062 0.0
H1860 H 0.41544 0.16716 0.781 0.0
H1861 H 0.44741 0.16891 0.7653 0.0
C1862 C 0.52365 0.12163 0.7504 0.0
C1863 C 0.53741 0.13728 0.76235 0.0
C1864 C 0.50448 0.12279 0.74281 0.0
C1865 C 0.49906 0.13983 0.74699 0.0
C1866 C 0.51251 0.15509 0.7593 0.0
C1867 C 0.53164 0.15383 0.76693 0.0
C1868 C 0.47998 0.14234 0.7381 0.0
C1869 C 0.46173 0.14146 0.74684 0.0
C1870 C 0.47973 0.14552 0.7211 0.0
C1871 C 0.49916 0.14767 0.71134 0.0
C1872 C 0.52252 0.16432 0.71495 0.0
C1873 C 0.5408 0.16579 0.70602 0.0
C1874 C 0.53593 0.15089 0.69331 0.0
C1875 C 0.51275 0.13454 0.68947 0.0
C1876 C 0.4944 0.13293 0.69841 0.0
C1877 C 0.40548 0.17527 0.71151 0.0
C1878 C 0.39137 0.16231 0.6984 0.0
C1879 C 0.42265 0.17073 0.71884 0.0
C1880 C 0.42573 0.15277 0.71347 0.0
C1881 C 0.4122 0.14021 0.70003 0.0
C1882 C 0.39515 0.14503 0.69247 0.0
C1883 C 0.44315 0.14733 0.72205 0.0
C1884 C 0.46113 0.14769 0.71326 0.0
C1885 C 0.4432 0.14377 0.73903 0.0
C1886 C 0.42407 0.14226 0.74885 0.0
C1887 C 0.40044 0.1267 0.74489 0.0
C1888 C 0.38246 0.12593 0.7538 0.0
C1889 C 0.38787 0.14051 0.76679 0.0
C1890 C 0.41129 0.15586 0.77094 0.0
C1891 C 0.42936 0.15671 0.76206 0.0
H1892 H 0.3739 0.13988 0.77365 0.0
H1893 H 0.55012 0.15205 0.68642 0.0
H1894 H 0.90958 0.40598 0.74063 0.0
H1895 H 0.9019 0.3689 0.73051 0.0
H1896 H 0.82815 0.349 0.72383 0.0
H1897 H 0.83595 0.38602 0.73435 0.0
H1898 H 0.83379 0.31453 0.73748 0.0
H1899 H 0.86411 0.36498 0.69174 0.0
H1900 H 0.89239 0.39924 0.67701 0.0
H1901 H 0.94594 0.37947 0.68666 0.0
H1902 H 0.91806 0.34524 0.70166 0.0
H1903 H 0.80219 0.22173 0.68424 0.0
H1904 H 0.81033 0.25818 0.69569 0.0
H1905 H 0.88132 0.27243 0.70879 0.0
H1906 H 0.8731 0.23571 0.69762 0.0
H1907 H 0.87734 0.30936 0.69206 0.0
H1908 H 0.84785 0.25988 0.73826 0.0
H1909 H 0.81989 0.2253 0.75279 0.0
H1910 H 0.7649 0.24273 0.74167 0.0
H1911 H 0.79263 0.27752 0.72704 0.0
C1912 C 0.89178 0.39359 0.737 0.0
C1913 C 0.87332 0.39865 0.7383 0.0
C1914 C 0.88738 0.37249 0.73115 0.0
C1915 C 0.86444 0.35613 0.72627 0.0
C1916 C 0.84597 0.36127 0.72752 0.0
C1917 C 0.8504 0.3824 0.73341 0.0
C1918 C 0.85975 0.33368 0.71993 0.0
C1919 C 0.8431 0.31346 0.7274 0.0
C1920 C 0.87226 0.33212 0.70702 0.0
C1921 C 0.88905 0.35266 0.69796 0.0
C1922 C 0.88196 0.36803 0.69083 0.0
C1923 C 0.89792 0.38743 0.68241 0.0
C1924 C 0.92097 0.39156 0.68093 0.0
C1925 C 0.92809 0.37626 0.68783 0.0
C1926 C 0.91222 0.35685 0.69628 0.0
C1927 C 0.8195 0.2326 0.68962 0.0
C1928 C 0.83704 0.22595 0.69 0.0
C1929 C 0.82411 0.25338 0.69618 0.0
C1930 C 0.84644 0.26803 0.70308 0.0
C1931 C 0.86399 0.2614 0.70349 0.0
C1932 C 0.85926 0.24042 0.69717 0.0
C1933 C 0.85145 0.2904 0.7096 0.0
C1934 C 0.8681 0.31054 0.70214 0.0
C1935 C 0.83897 0.29188 0.7225 0.0
C1936 C 0.82226 0.27118 0.73143 0.0
C1937 C 0.82976 0.25626 0.73882 0.0
C1938 C 0.81395 0.23664 0.7471 0.0
C1939 C 0.79057 0.23172 0.74808 0.0
C1940 C 0.78301 0.24654 0.74088 0.0
C1941 C 0.79878 0.26626 0.73263 0.0
H1942 H 0.77835 0.21647 0.75446 0.0
H1943 H 0.93329 0.40659 0.67441 0.0
H1944 H 0.14878 0.93917 0.6409 0.0
H1945 H 0.17919 0.97571 0.65191 0.0
H1946 H 0.172 0.01075 0.60875 0.0
H1947 H 0.1408 0.97439 0.5981 0.0
H1948 H 0.22028 0.02338 0.61915 0.0
H1949 H 0.14933 0.01619 0.63975 0.0
H1950 H 0.11217 0.99653 0.65389 0.0
H1951 H 0.14973 0.99331 0.69752 0.0
H1952 H 0.18711 0.01263 0.68355 0.0
H1953 H 0.28889 0.13741 0.64729 0.0
H1954 H 0.25881 0.10157 0.63531 0.0
H1955 H 0.24921 0.0682 0.68223 0.0
H1956 H 0.27829 0.10445 0.69424 0.0
H1957 H 0.20901 0.05449 0.66911 0.0
H1958 H 0.27988 0.06059 0.64907 0.0
H1959 H 0.31743 0.0799 0.63534 0.0
H1960 H 0.28121 0.08438 0.59138 0.0
H1961 H 0.24345 0.06532 0.60491 0.0
C1962 C 0.15344 0.95471 0.6339 0.0
C1963 C 0.14235 0.95389 0.61864 0.0
C1964 C 0.17095 0.97556 0.64012 0.0
C1965 C 0.17798 0.99601 0.63113 0.0
C1966 C 0.16704 0.99521 0.61585 0.0
C1967 C 0.14925 0.97443 0.60976 0.0
C1968 C 0.19646 0.01824 0.63779 0.0
C1969 C 0.21777 0.03034 0.62998 0.0
C1970 C 0.19341 0.02711 0.6521 0.0
C1971 C 0.17099 0.01563 0.66056 0.0
C1972 C 0.14965 0.0111 0.65232 0.0
C1973 C 0.12854 1.00005 0.66031 0.0
C1974 C 0.12858 0.99362 0.67658 0.0
C1975 C 0.14973 0.99827 0.68491 0.0
C1976 C 0.17088 0.00928 0.67696 0.0
C1977 C 0.28049 0.12229 0.65494 0.0
C1978 C 0.28605 0.1235 0.67161 0.0
C1979 C 0.26333 0.10174 0.6481 0.0
C1980 C 0.25183 0.08179 0.65774 0.0
C1981 C 0.25768 0.08315 0.67444 0.0
C1982 C 0.27443 0.10382 0.68131 0.0
C1983 C 0.23325 0.05973 0.65064 0.0
C1984 C 0.21176 0.04761 0.65833 0.0
C1985 C 0.23628 0.05073 0.63631 0.0
C1986 C 0.25887 0.06168 0.62804 0.0
C1987 C 0.27994 0.06576 0.63649 0.0
C1988 C 0.30125 0.07666 0.62874 0.0
C1989 C 0.30171 0.08339 0.6125 0.0
C1990 C 0.28083 0.07915 0.60396 0.0
C1991 C 0.25946 0.06827 0.61165 0.0
H1992 H 0.31823 0.09189 0.60654 0.0
H1993 H 0.11222 0.98508 0.68275 0.0
H1994 H 0.0683 0.23654 0.6083 0.0
H1995 H 0.02983 0.22476 0.6193 0.0
H1996 H 0.06179 0.28101 0.65225 0.0
H1997 H 0.10034 0.29305 0.64089 0.0
H1998 H 0.0318 0.23794 0.66681 0.0
H1999 H 0.03029 0.28521 0.62196 0.0
H2000 H 0.03457 0.29855 0.59352 0.0
H2001 H 0.98014 0.23259 0.57855 0.0
H2002 H 0.97579 0.21872 0.60687 0.0
H2003 H 0.92084 0.21833 0.69292 0.0
H2004 H 0.9607 0.2354 0.68324 0.0
H2005 H 0.93522 0.18981 0.64282 0.0
H2006 H 0.89528 0.17317 0.65215 0.0
H2007 H 0.96328 0.23121 0.63277 0.0
H2008 H 0.96658 0.18237 0.67605 0.0
H2009 H 0.96251 0.1669 0.70395 0.0
H2010 H 0.01327 0.233 0.72133 0.0
H2011 H 0.01741 0.24894 0.69354 0.0
C2012 C 0.06692 0.24649 0.61773 0.0
C2013 C 0.08698 0.26567 0.62379 0.0
C2014 C 0.04508 0.23979 0.62401 0.0
C2015 C 0.04304 0.25213 0.6365 0.0
C2016 C 0.0631 0.27132 0.6426 0.0
C2017 C 0.08497 0.27816 0.63617 0.0
C2018 C 0.01991 0.24446 0.64335 0.0
C2019 C 0.01686 0.23685 0.6595 0.0
C2020 C 1.00043 0.24251 0.6336 0.0
C2021 C 0.00284 0.25088 0.61655 0.0
C2022 C 0.01935 0.27349 0.61259 0.0
C2023 C 0.02178 0.28116 0.59649 0.0
C2024 C 0.00767 0.26642 0.58423 0.0
C2025 C 0.99107 0.24399 0.58805 0.0
C2026 C 0.9886 0.23622 0.60414 0.0
C2027 C 0.92378 0.21182 0.68205 0.0
C2028 C 0.90496 0.19443 0.67329 0.0
C2029 C 0.94657 0.22156 0.67655 0.0
C2030 C 0.95096 0.21376 0.66237 0.0
C2031 C 0.93221 0.19616 0.65375 0.0
C2032 C 0.90941 0.18663 0.65912 0.0
C2033 C 0.97497 0.22427 0.65623 0.0
C2034 C 0.9782 0.23246 0.64018 0.0
C2035 C 0.99455 0.22645 0.66603 0.0
C2036 C 0.99211 0.2169 0.68274 0.0
C2037 C 0.97673 0.19365 0.68584 0.0
C2038 C 0.97444 0.18479 0.70163 0.0
C2039 C 0.98757 0.19897 0.71441 0.0
C2040 C 0.00307 0.22204 0.71142 0.0
C2041 C 0.00541 0.23099 0.69566 0.0
H2042 H 0.98577 0.19208 0.72663 0.0
H2043 H 0.00957 0.27239 0.57178 0.0
H2044 H 0.84288 0.89084 0.62108 0.0
H2045 H 0.84713 0.85693 0.62775 0.0
H2046 H 0.77345 0.81399 0.61547 0.0
H2047 H 0.76908 0.84822 0.60959 0.0
H2048 H 0.78372 0.79988 0.64287 0.0
H2049 H 0.81877 0.8162 0.59163 0.0
H2050 H 0.84503 0.8402 0.5703 0.0
H2051 H 0.90524 0.85617 0.60228 0.0
H2052 H 0.87931 0.83248 0.62385 0.0
H2053 H 0.80006 0.70142 0.65856 0.0
H2054 H 0.79141 0.72949 0.64372 0.0
H2055 H 0.86051 0.78322 0.65752 0.0
H2056 H 0.86934 0.75541 0.672 0.0
H2057 H 0.84904 0.78808 0.62587 0.0
H2058 H 0.81304 0.77444 0.67761 0.0
H2059 H 0.78652 0.75048 0.69884 0.0
H2060 H 0.72727 0.72918 0.6651 0.0
H2061 H 0.75352 0.7528 0.64361 0.0
C2062 C 0.82767 0.87413 0.6197 0.0
C2063 C 0.80565 0.87212 0.61492 0.0
C2064 C 0.83013 0.85469 0.62334 0.0
C2065 C 0.81068 0.8327 0.62198 0.0
C2066 C 0.78877 0.83068 0.61662 0.0
C2067 C 0.78629 0.85021 0.61311 0.0
C2068 C 0.81299 0.81212 0.62732 0.0
C2069 C 0.79768 0.79704 0.63883 0.0
C2070 C 0.83141 0.80845 0.62234 0.0
C2071 C 0.84709 0.82259 0.60937 0.0
C2072 C 0.83761 0.82492 0.59413 0.0
C2073 C 0.85243 0.83847 0.582 0.0
C2074 C 0.87679 0.84977 0.58495 0.0
C2075 C 0.88637 0.84746 0.60002 0.0
C2076 C 0.87163 0.83388 0.61218 0.0
C2077 C 0.81341 0.7192 0.65831 0.0
C2078 C 0.83529 0.72623 0.66656 0.0
C2079 C 0.80846 0.73524 0.64985 0.0
C2080 C 0.8253 0.75855 0.64952 0.0
C2081 C 0.84731 0.76538 0.65745 0.0
C2082 C 0.85224 0.74945 0.66586 0.0
C2083 C 0.81998 0.77616 0.64154 0.0
C2084 C 0.8348 0.79071 0.62962 0.0
C2085 C 0.80103 0.77927 0.64606 0.0
C2086 C 0.78526 0.76515 0.65897 0.0
C2087 C 0.79438 0.7645 0.67469 0.0
C2088 C 0.7794 0.75101 0.68677 0.0
C2089 C 0.75523 0.73826 0.6833 0.0
C2090 C 0.746 0.73902 0.66776 0.0
C2091 C 0.76091 0.75246 0.65563 0.0
H2092 H 0.74366 0.72783 0.69267 0.0
H2093 H 0.88823 0.86023 0.57553 0.0
H2094 H 0.08802 0.86857 0.63418 0.0
H2095 H 0.05211 0.83391 0.6413 0.0
H2096 H 0.01607 0.8431 0.5985 0.0
H2097 H 0.05202 0.87833 0.5917 0.0
H2098 H 0.98872 0.83207 0.62375 0.0
H2099 H 0.03309 0.80147 0.60112 0.0
H2100 H 0.06791 0.79677 0.59738 0.0
H2101 H 0.066 0.77308 0.64658 0.0
H2102 H 0.0314 0.77801 0.6507 0.0
H2103 H 0.88866 0.72176 0.63344 0.0
H2104 H 0.92376 0.75339 0.62211 0.0
H2105 H 0.96465 0.75359 0.66512 0.0
H2106 H 0.92964 0.722 0.67658 0.0
H2107 H 0.98848 0.75885 0.63747 0.0
H2108 H 0.94441 0.79079 0.65996 0.0
H2109 H 0.90968 0.79575 0.66334 0.0
H2110 H 0.91101 0.81729 0.61367 0.0
H2111 H 0.94535 0.81175 0.60981 0.0
C2112 C 0.07241 0.86315 0.62632 0.0
C2113 C 0.07276 0.87613 0.61242 0.0
C2114 C 0.05191 0.84324 0.63031 0.0
C2115 C 0.03128 0.83562 0.62038 0.0
C2116 C 0.03169 0.84851 0.60637 0.0
C2117 C 0.05225 0.86851 0.6024 0.0
C2118 C 0.00929 0.81454 0.62491 0.0
C2119 C 0.98857 0.81595 0.62645 0.0
C2120 C 0.00906 0.79351 0.62872 0.0
C2121 C 0.02974 0.79029 0.62626 0.0
C2122 C 0.04019 0.79541 0.61118 0.0
C2123 C 0.05988 0.79269 0.60898 0.0
C2124 C 0.06918 0.78467 0.62174 0.0
C2125 C 0.05878 0.7793 0.63671 0.0
C2126 C 0.03911 0.78204 0.63898 0.0
C2127 C 0.90515 0.72834 0.64046 0.0
C2128 C 0.90622 0.7193 0.65599 0.0
C2129 C 0.92522 0.74654 0.63396 0.0
C2130 C 0.94688 0.75611 0.64281 0.0
C2131 C 0.94818 0.74657 0.65806 0.0
C2132 C 0.92809 0.7285 0.66462 0.0
C2133 C 0.96802 0.77646 0.63647 0.0
C2134 C 0.98858 0.77491 0.63461 0.0
C2135 C 0.96804 0.79731 0.63226 0.0
C2136 C 0.94728 0.80052 0.63453 0.0
C2137 C 0.93712 0.79627 0.64968 0.0
C2138 C 0.9175 0.79919 0.65169 0.0
C2139 C 0.90808 0.8067 0.6387 0.0
C2140 C 0.91826 0.81133 0.62368 0.0
C2141 C 0.93778 0.80826 0.62157 0.0
H2142 H 0.89298 0.80906 0.6403 0.0
H2143 H 0.08443 0.78257 0.62002 0.0
H2144 H 0.18678 0.29384 0.606 0.0
H2145 H 0.21892 0.28451 0.61192 0.0
H2146 H 0.17068 0.22202 0.63583 0.0
H2147 H 0.13846 0.23063 0.6291 0.0
H2148 H 0.22353 0.26612 0.65129 0.0
H2149 H 0.17713 0.20421 0.61095 0.0
H2150 H 0.15961 0.19426 0.5833 0.0
H2151 H 0.22672 0.23878 0.56367 0.0
H2152 H 0.24447 0.24941 0.59124 0.0
H2153 H 0.27509 0.20126 0.6823 0.0
H2154 H 0.24889 0.21534 0.67074 0.0
H2155 H 0.28634 0.23395 0.62651 0.0
H2156 H 0.3116 0.21841 0.63774 0.0
H2157 H 0.24364 0.21805 0.6185 0.0
H2158 H 0.29288 0.27459 0.65597 0.0
H2159 H 0.31402 0.29072 0.68185 0.0
H2160 H 0.24833 0.26492 0.70491 0.0
H2161 H 0.22678 0.24835 0.67922 0.0
C2162 C 0.18312 0.27799 0.61229 0.0
C2163 C 0.1604 0.26313 0.61742 0.0
C2164 C 0.20137 0.27273 0.61568 0.0
C2165 C 0.197 0.25262 0.62429 0.0
C2166 C 0.17425 0.23759 0.62914 0.0
C2167 C 0.15599 0.24262 0.62548 0.0
C2168 C 0.2163 0.24772 0.62923 0.0
C2169 C 0.22797 0.25554 0.64423 0.0
C2170 C 0.22262 0.23484 0.6196 0.0
C2171 C 0.21202 0.22785 0.60312 0.0
C2172 C 0.18807 0.21207 0.60073 0.0
C2173 C 0.17812 0.20628 0.58508 0.0
C2174 C 0.19202 0.21595 0.57173 0.0
C2175 C 0.21595 0.23132 0.57402 0.0
C2176 C 0.22596 0.23725 0.58965 0.0
C2177 C 0.27775 0.20843 0.67014 0.0
C2178 C 0.29543 0.20893 0.66095 0.0
C2179 C 0.26288 0.21663 0.66355 0.0
C2180 C 0.26598 0.22631 0.64787 0.0
C2181 C 0.28361 0.22667 0.63864 0.0
C2182 C 0.29807 0.21785 0.64507 0.0
C2183 C 0.25048 0.23559 0.6411 0.0
C2184 C 0.23957 0.22879 0.62566 0.0
C2185 C 0.24535 0.25005 0.65018 0.0
C2186 C 0.25822 0.2601 0.66567 0.0
C2187 C 0.28294 0.27224 0.66658 0.0
C2188 C 0.29499 0.28148 0.68122 0.0
C2189 C 0.28252 0.27882 0.69502 0.0
C2190 C 0.25796 0.26696 0.69421 0.0
C2191 C 0.24582 0.25767 0.6796 0.0
H2192 H 0.29189 0.28597 0.70635 0.0
H2193 H 0.18428 0.21149 0.55962 0.0
H2194 H 0.84346 0.9596 0.62955 0.0
H2195 H 0.84935 0.99478 0.64216 0.0
H2196 H 0.77434 0.96945 0.63988 0.0
H2197 H 0.7686 0.93441 0.62722 0.0
H2198 H 0.83659 0.0271 0.62985 0.0
H2199 H 0.76138 0.98871 0.67435 0.0
H2200 H 0.7391 0.9531 0.69007 0.0
H2201 H 0.79789 0.94014 0.6911 0.0
H2202 H 0.82062 0.97583 0.67561 0.0
H2203 H 0.80244 0.10574 0.66616 0.0
H2204 H 0.79785 0.0709 0.65383 0.0
H2205 H 0.85278 0.07195 0.68626 0.0
H2206 H 0.85851 0.10743 0.69786 0.0
H2207 H 0.80177 0.0269 0.68156 0.0
H2208 H 0.87213 0.08623 0.65728 0.0
H2209 H 0.89529 0.12128 0.64134 0.0
H2210 H 0.84914 0.0917 0.59976 0.0
H2211 H 0.82488 0.05699 0.61573 0.0
C2212 C 0.82832 0.96159 0.6319 0.0
C2213 C 0.80561 0.94443 0.6275 0.0
C2214 C 0.83165 0.98166 0.63899 0.0
C2215 C 0.81228 0.98474 0.64202 0.0
C2216 C 0.78954 0.96742 0.63777 0.0
C2217 C 0.78625 0.94748 0.63053 0.0
C2218 C 0.81588 1.00621 0.64938 0.0
C2219 C 0.82896 0.02705 0.64115 0.0
C2220 C 0.80597 1.00617 0.66415 0.0
C2221 C 0.79259 0.98483 0.67367 0.0
C2222 C 0.76957 0.9783 0.67799 0.0
C2223 C 0.75687 0.9581 0.68685 0.0
C2224 C 0.76705 0.94432 0.69153 0.0
C2225 C 0.78999 0.95077 0.68741 0.0
C2226 C 0.80278 0.97098 0.67857 0.0
C2227 C 0.81383 0.09879 0.67042 0.0
C2228 C 0.83117 0.10962 0.68274 0.0
C2229 C 0.81109 0.07882 0.66345 0.0
C2230 C 0.82517 0.06902 0.66902 0.0
C2231 C 0.84189 0.07936 0.68169 0.0
C2232 C 0.84512 0.09964 0.6883 0.0
C2233 C 0.82225 0.04772 0.66192 0.0
C2234 C 0.80924 0.02691 0.6702 0.0
C2235 C 0.83229 0.04781 0.64721 0.0
C2236 C 0.8463 0.06918 0.63785 0.0
C2237 C 0.86646 0.08744 0.6449 0.0
C2238 C 0.87986 0.10725 0.63583 0.0
C2239 C 0.87358 0.10882 0.61959 0.0
C2240 C 0.85385 0.09059 0.6124 0.0
C2241 C 0.84018 0.07091 0.62148 0.0
H2242 H 0.88408 0.12409 0.61256 0.0
H2243 H 0.75717 0.92868 0.69838 0.0
H2244 H 0.55889 0.40005 0.73541 0.0
H2245 H 0.52901 0.36407 0.72329 0.0
H2246 H 0.47433 0.37784 0.73762 0.0
H2247 H 0.50423 0.41403 0.74933 0.0
H2248 H 0.4647 0.3329 0.7449 0.0
H2249 H 0.48831 0.38503 0.69919 0.0
H2250 H 0.51695 0.41358 0.68084 0.0
H2251 H 0.53894 0.36529 0.66819 0.0
H2252 H 0.51068 0.33655 0.68668 0.0
H2253 H 0.36988 0.24608 0.69803 0.0
H2254 H 0.39866 0.28215 0.71055 0.0
H2255 H 0.45515 0.27462 0.69191 0.0
H2256 H 0.42655 0.23887 0.67932 0.0
H2257 H 0.4634 0.31688 0.68689 0.0
H2258 H 0.44389 0.26615 0.73262 0.0
H2259 H 0.41799 0.2368 0.75174 0.0
H2260 H 0.39046 0.28059 0.76478 0.0
H2261 H 0.41638 0.31033 0.7457 0.0
C2262 C 0.5405 0.39549 0.73575 0.0
C2263 C 0.53387 0.40983 0.74328 0.0
C2264 C 0.52342 0.3749 0.72891 0.0
C2265 C 0.49934 0.36818 0.72951 0.0
C2266 C 0.49273 0.38252 0.73706 0.0
C2267 C 0.50981 0.40319 0.74375 0.0
C2268 C 0.48106 0.34629 0.72223 0.0
C2269 C 0.46419 0.32954 0.73216 0.0
C2270 C 0.48073 0.34154 0.7057 0.0
C2271 C 0.49753 0.35871 0.69444 0.0
C2272 C 0.49938 0.38055 0.69259 0.0
C2273 C 0.51553 0.39676 0.68215 0.0
C2274 C 0.5298 0.39127 0.67339 0.0
C2275 C 0.5279 0.36953 0.67501 0.0
C2276 C 0.5118 0.35326 0.68545 0.0
C2277 C 0.38844 0.25209 0.6967 0.0
C2278 C 0.39592 0.23964 0.68765 0.0
C2279 C 0.40492 0.27269 0.7039 0.0
C2280 C 0.42922 0.2812 0.70227 0.0
C2281 C 0.4366 0.2686 0.69332 0.0
C2282 C 0.42018 0.24808 0.68615 0.0
C2283 C 0.447 0.30338 0.70956 0.0
C2284 C 0.46379 0.32022 0.69962 0.0
C2285 C 0.44748 0.30807 0.72612 0.0
C2286 C 0.43186 0.29034 0.73761 0.0
C2287 C 0.43219 0.26946 0.73948 0.0
C2288 C 0.41752 0.25276 0.75033 0.0
C2289 C 0.40241 0.25671 0.75939 0.0
C2290 C 0.40211 0.2775 0.75771 0.0
C2291 C 0.41685 0.29433 0.74692 0.0
H2292 H 0.39102 0.24372 0.76776 0.0
H2293 H 0.54229 0.40385 0.66531 0.0
H2294 H 0.63316 0.16975 0.76648 0.0
H2295 H 0.66494 0.1683 0.75286 0.0
H2296 H 0.62498 0.09471 0.75236 0.0
H2297 H 0.59319 0.09637 0.76607 0.0
H2298 H 0.67467 0.11217 0.75795 0.0
H2299 H 0.62053 0.12029 0.71984 0.0
H2300 H 0.59584 0.13698 0.70889 0.0
H2301 H 0.65718 0.20249 0.70429 0.0
H2302 H 0.68225 0.18621 0.7153 0.0
H2303 H 0.74549 0.11239 0.69333 0.0
H2304 H 0.70883 0.10451 0.70602 0.0
H2305 H 0.73962 0.17545 0.71861 0.0
H2306 H 0.77619 0.18314 0.70652 0.0
H2307 H 0.69026 0.15328 0.70489 0.0
H2308 H 0.74314 0.14597 0.74626 0.0
H2309 H 0.76802 0.12964 0.75755 0.0
H2310 H 0.70859 0.06233 0.75588 0.0
H2311 H 0.68342 0.07824 0.74434 0.0
C2312 C 0.6316 0.15334 0.76379 0.0
C2313 C 0.611 0.1332 0.76712 0.0
C2314 C 0.64956 0.15247 0.756 0.0
C2315 C 0.64703 0.13141 0.75137 0.0
C2316 C 0.62716 0.11111 0.75581 0.0
C2317 C 0.60914 0.11202 0.76363 0.0
C2318 C 0.66416 0.13098 0.74064 0.0
C2319 C 0.67778 0.12073 0.74621 0.0
C2320 C 0.6682 0.14225 0.72536 0.0
C2321 C 0.65325 0.15206 0.71848 0.0
C2322 C 0.62875 0.13828 0.71656 0.0
C2323 C 0.61469 0.14766 0.71033 0.0
C2324 C 0.62492 0.1708 0.70596 0.0
C2325 C 0.64927 0.18457 0.7077 0.0
C2326 C 0.66343 0.17526 0.71389 0.0
C2327 C 0.74409 0.12627 0.69853 0.0
C2328 C 0.7634 0.14832 0.699 0.0
C2329 C 0.72334 0.12177 0.70581 0.0
C2330 C 0.7217 0.13944 0.71323 0.0
C2331 C 0.7406 0.16167 0.71289 0.0
C2332 C 0.7614 0.16602 0.70601 0.0
C2333 C 0.70102 0.13485 0.72232 0.0
C2334 C 0.68677 0.14424 0.71646 0.0
C2335 C 0.69639 0.12276 0.73727 0.0
C2336 C 0.71149 0.11323 0.74423 0.0
C2337 C 0.73544 0.12766 0.74814 0.0
C2338 C 0.74958 0.1185 0.75462 0.0
C2339 C 0.73991 0.09497 0.75737 0.0
C2340 C 0.71606 0.08055 0.7537 0.0
C2341 C 0.70185 0.08962 0.74719 0.0
H2342 H 0.75088 0.08791 0.7624 0.0
H2343 H 0.61399 0.17803 0.70119 0.0
H2344 H 0.91486 0.49751 0.74302 0.0
H2345 H 0.91021 0.53063 0.73359 0.0
H2346 H 0.83482 0.48879 0.73349 0.0
H2347 H 0.83969 0.45583 0.74296 0.0
H2348 H 0.84886 0.51182 0.70527 0.0
H2349 H 0.86639 0.52993 0.7619 0.0
H2350 H 0.8909 0.53748 0.7871 0.0
H2351 H 0.94717 0.59558 0.76464 0.0
H2352 H 0.9233 0.58799 0.73911 0.0
H2353 H 0.8097 0.59119 0.68852 0.0
H2354 H 0.8186 0.56318 0.70255 0.0
H2355 H 0.89246 0.6123 0.70436 0.0
H2356 H 0.88337 0.64089 0.69079 0.0
H2357 H 0.88227 0.58718 0.73132 0.0
H2358 H 0.86814 0.57 0.67535 0.0
H2359 H 0.84697 0.56264 0.64874 0.0
H2360 H 0.78819 0.50381 0.66846 0.0
H2361 H 0.80889 0.51099 0.69526 0.0
C2362 C 0.89739 0.49571 0.74147 0.0
C2363 C 0.87761 0.47439 0.74403 0.0
C2364 C 0.8947 0.51454 0.73597 0.0
C2365 C 0.87214 0.51232 0.73293 0.0
C2366 C 0.85239 0.491 0.73578 0.0
C2367 C 0.85512 0.47224 0.74127 0.0
C2368 C 0.86893 0.53164 0.72582 0.0
C2369 C 0.85588 0.52817 0.71111 0.0
C2370 C 0.87899 0.55339 0.73303 0.0
C2371 C 0.89311 0.55825 0.74852 0.0
C2372 C 0.88405 0.54422 0.76228 0.0
C2373 C 0.89782 0.54851 0.77664 0.0
C2374 C 0.92055 0.56699 0.77749 0.0
C2375 C 0.92956 0.58125 0.76397 0.0
C2376 C 0.91593 0.57695 0.74954 0.0
C2377 C 0.82785 0.59609 0.69197 0.0
C2378 C 0.84589 0.61809 0.68829 0.0
C2379 C 0.83294 0.58001 0.69996 0.0
C2380 C 0.8563 0.58531 0.70414 0.0
C2381 C 0.87432 0.60767 0.70115 0.0
C2382 C 0.86914 0.62398 0.69335 0.0
C2383 C 0.86167 0.56711 0.71096 0.0
C2384 C 0.87521 0.57081 0.72551 0.0
C2385 C 0.85247 0.54563 0.70347 0.0
C2386 C 0.84 0.54115 0.68735 0.0
C2387 C 0.85064 0.55558 0.67404 0.0
C2388 C 0.83873 0.55143 0.65892 0.0
C2389 C 0.81623 0.5328 0.65692 0.0
C2390 C 0.80561 0.51824 0.67003 0.0
C2391 C 0.81743 0.52233 0.68519 0.0
H2392 H 0.80704 0.52961 0.6452 0.0
H2393 H 0.93117 0.57027 0.78862 0.0
H2394 H 0.44286 0.89199 0.24593 0.0
H2395 H 0.45402 0.89864 0.21753 0.0
H2396 H 0.49972 0.96998 0.2273 0.0
H2397 H 0.48886 0.96303 0.25578 0.0
H2398 H 0.4657 0.95966 0.19999 0.0
H2399 H 0.52471 0.9412 0.2229 0.0
H2400 H 0.53774 0.91676 0.23861 0.0
H2401 H 0.5002 0.86278 0.20479 0.0
H2402 H 0.48644 0.88672 0.18908 0.0
H2403 H 0.54656 0.98442 0.13111 0.0
H2404 H 0.53573 0.96887 0.15836 0.0
H2405 H 0.46231 0.93975 0.14354 0.0
H2406 H 0.47297 0.95618 0.11644 0.0
H2407 H 0.50961 0.9275 0.17338 0.0
H2408 H 0.43459 0.94897 0.17223 0.0
H2409 H 0.42088 0.97298 0.15653 0.0
H2410 H 0.49232 0.02245 0.14761 0.0
H2411 H 0.50642 0.9988 0.16335 0.0
C2412 C 0.45556 0.90893 0.24192 0.0
C2413 C 0.46524 0.92705 0.25275 0.0
C2414 C 0.46186 0.91273 0.22583 0.0
C2415 C 0.47763 0.93479 0.22042 0.0
C2416 C 0.48751 0.95286 0.23133 0.0
C2417 C 0.48148 0.94894 0.24748 0.0
C2418 C 0.48316 0.9392 0.20322 0.0
C2419 C 0.47526 0.95261 0.19416 0.0
C2420 C 0.49555 0.92988 0.1957 0.0
C2421 C 0.50433 0.91568 0.2049 0.0
C2422 C 0.51905 0.92405 0.21888 0.0
C2423 C 0.52659 0.91029 0.22779 0.0
C2424 C 0.51976 0.88821 0.22272 0.0
C2425 C 0.50545 0.87988 0.20871 0.0
C2426 C 0.49777 0.89354 0.1998 0.0
C2427 C 0.5281 0.97466 0.13362 0.0
C2428 C 0.51064 0.972 0.1217 0.0
C2429 C 0.52195 0.9655 0.14914 0.0
C2430 C 0.49825 0.95349 0.15301 0.0
C2431 C 0.48073 0.94924 0.14082 0.0
C2432 C 0.48686 0.95856 0.12532 0.0
C2433 C 0.49213 0.94798 0.17013 0.0
C2434 C 0.49988 0.93438 0.17919 0.0
C2435 C 0.47968 0.95721 0.17773 0.0
C2436 C 0.47151 0.97208 0.16888 0.0
C2437 C 0.44735 0.96506 0.16702 0.0
C2438 C 0.43952 0.97857 0.15808 0.0
C2439 C 0.45572 0.99922 0.15106 0.0
C2440 C 0.47979 1.00645 0.15303 0.0
C2441 C 0.48771 0.993 0.16195 0.0
H2442 H 0.44961 0.00961 0.1441 0.0
H2443 H 0.52561 0.87758 0.22963 0.0
H2444 H 0.07994 0.53838 0.25398 0.0
H2445 H 0.06618 0.52563 0.22633 0.0
H2446 H 0.13599 0.53909 0.21558 0.0
H2447 H 0.14971 0.55228 0.24345 0.0
H2448 H 0.12032 0.55908 0.19366 0.0
H2449 H 0.08909 0.48403 0.21546 0.0
H2450 H 0.06791 0.45211 0.23453 0.0
H2451 H 0.00365 0.45385 0.22188 0.0
H2452 H 0.0245 0.48605 0.20293 0.0
H2453 H 0.07277 0.52276 0.11298 0.0
H2454 H 0.09106 0.52361 0.13985 0.0
H2455 H 0.03116 0.52077 0.1618 0.0
H2456 H 0.01312 0.5207 0.13513 0.0
H2457 H 0.04586 0.49109 0.17678 0.0
H2458 H 0.07964 0.57034 0.15872 0.0
H2459 H 0.10115 0.60253 0.13989 0.0
H2460 H 0.16137 0.59184 0.14562 0.0
H2461 H 0.14007 0.55937 0.16434 0.0
C2462 C 0.09206 0.53784 0.24581 0.0
C2463 C 0.11573 0.54603 0.25073 0.0
C2464 C 0.08425 0.53058 0.23001 0.0
C2465 C 0.09998 0.53121 0.21881 0.0
C2466 C 0.1235 0.53836 0.22399 0.0
C2467 C 0.1313 0.54565 0.23989 0.0
C2468 C 0.09217 0.52671 0.20144 0.0
C2469 C 0.10438 0.5439 0.18992 0.0
C2470 C 0.07115 0.5071 0.19651 0.0
C2471 C 0.05842 0.48757 0.20781 0.0
C2472 C 0.07047 0.47772 0.21681 0.0
C2473 C 0.05852 0.45956 0.2276 0.0
C2474 C 0.03446 0.45097 0.22943 0.0
C2475 C 0.02229 0.46051 0.22045 0.0
C2476 C 0.03416 0.4787 0.20966 0.0
C2477 C 0.06355 0.52253 0.1235 0.0
C2478 C 0.0414 0.52168 0.12179 0.0
C2479 C 0.07398 0.52285 0.13887 0.0
C2480 C 0.06247 0.52225 0.15284 0.0
C2481 C 0.04027 0.52104 0.15119 0.0
C2482 C 0.02993 0.52091 0.13588 0.0
C2483 C 0.07373 0.52368 0.16923 0.0
C2484 C 0.06211 0.50596 0.18052 0.0
C2485 C 0.09535 0.54271 0.17394 0.0
C2486 C 0.10817 0.56226 0.16276 0.0
C2487 C 0.09739 0.57473 0.15585 0.0
C2488 C 0.10956 0.59305 0.14522 0.0
C2489 C 0.13259 0.59918 0.14152 0.0
C2490 C 0.14352 0.58704 0.14848 0.0
C2491 C 0.13141 0.56869 0.1591 0.0
H2492 H 0.14198 0.61337 0.13329 0.0
H2493 H 0.02523 0.43691 0.23779 0.0
H2494 H 0.44587 0.53652 0.25813 0.0
H2495 H 0.4472 0.52137 0.23195 0.0
H2496 H 0.41503 0.55902 0.20833 0.0
H2497 H 0.41364 0.57394 0.23462 0.0
H2498 H 0.40086 0.51706 0.19346 0.0
H2499 H 0.4731 0.58389 0.20944 0.0
H2500 H 0.50708 0.60732 0.22765 0.0
H2501 H 0.52736 0.55474 0.22993 0.0
H2502 H 0.4936 0.53109 0.21158 0.0
H2503 H 0.44777 0.52851 0.11513 0.0
H2504 H 0.43501 0.53416 0.14092 0.0
H2505 H 0.47517 0.50558 0.16629 0.0
H2506 H 0.48921 0.50134 0.14082 0.0
H2507 H 0.48337 0.54221 0.18022 0.0
H2508 H 0.41248 0.47701 0.16092 0.0
H2509 H 0.37951 0.4556 0.14145 0.0
H2510 H 0.35602 0.50536 0.14482 0.0
H2511 H 0.38913 0.52732 0.16409 0.0
C2512 C 0.43829 0.54076 0.24739 0.0
C2513 C 0.42954 0.55619 0.24825 0.0
C2514 C 0.43922 0.53232 0.23244 0.0
C2515 C 0.43153 0.53934 0.21812 0.0
C2516 C 0.42103 0.55334 0.21918 0.0
C2517 C 0.42016 0.56179 0.23415 0.0
C2518 C 0.43708 0.53441 0.20206 0.0
C2519 C 0.41888 0.52262 0.19048 0.0
C2520 C 0.46056 0.54158 0.19818 0.0
C2521 C 0.48074 0.55566 0.20929 0.0
C2522 C 0.48474 0.57728 0.21391 0.0
C2523 C 0.50398 0.59062 0.22421 0.0
C2524 C 0.51926 0.58246 0.23004 0.0
C2525 C 0.51546 0.56101 0.22545 0.0
C2526 C 0.49635 0.54768 0.21504 0.0
C2527 C 0.45404 0.52357 0.1262 0.0
C2528 C 0.4696 0.51446 0.12578 0.0
C2529 C 0.44641 0.52649 0.14096 0.0
C2530 C 0.45384 0.52003 0.15563 0.0
C2531 C 0.46907 0.51064 0.15519 0.0
C2532 C 0.47691 0.50799 0.14052 0.0
C2533 C 0.44714 0.52429 0.17154 0.0
C2534 C 0.46524 0.53627 0.18313 0.0
C2535 C 0.42356 0.51731 0.17529 0.0
C2536 C 0.40346 0.50395 0.16384 0.0
C2537 C 0.4004 0.4835 0.15742 0.0
C2538 C 0.38167 0.47125 0.14642 0.0
C2539 C 0.36572 0.47915 0.14186 0.0
C2540 C 0.36842 0.49928 0.14834 0.0
C2541 C 0.38716 0.51163 0.1593 0.0
H2542 H 0.35124 0.46966 0.13334 0.0
H2543 H 0.53411 0.59278 0.23806 0.0
H2544 H 0.86295 0.43808 0.78823 0.0
H2545 H 0.87834 0.45324 0.81523 0.0
H2546 H 0.94337 0.50338 0.79489 0.0
H2547 H 0.92819 0.48715 0.76807 0.0
H2548 H 0.95289 0.48226 0.81781 0.0
H2549 H 0.90355 0.51729 0.81443 0.0
H2550 H 0.86719 0.52038 0.81016 0.0
H2551 H 0.83494 0.4706 0.84792 0.0
H2552 H 0.87093 0.46699 0.85237 0.0
H2553 H 0.00325 0.52724 0.89487 0.0
H2554 H 0.98586 0.52457 0.86751 0.0
H2555 H 0.92199 0.46603 0.88234 0.0
H2556 H 0.93914 0.46885 0.90985 0.0
H2557 H 0.9133 0.49583 0.86211 0.0
H2558 H 0.96103 0.45827 0.86311 0.0
H2559 H 0.99756 0.45571 0.86802 0.0
H2560 H 0.03278 0.51124 0.83438 0.0
H2561 H 0.99652 0.51433 0.82945 0.0
C2562 C 0.88021 0.45284 0.78956 0.0
C2563 C 0.8943 0.46173 0.77614 0.0
C2564 C 0.88902 0.46158 0.80496 0.0
C2565 C 0.91205 0.47966 0.80721 0.0
C2566 C 0.92555 0.4895 0.79354 0.0
C2567 C 0.91681 0.48049 0.77817 0.0
C2568 C 0.92305 0.486 0.82384 0.0
C2569 C 0.94442 0.48579 0.82735 0.0
C2570 C 0.91179 0.48992 0.83654 0.0
C2571 C 0.88993 0.49173 0.83364 0.0
C2572 C 0.88864 0.50682 0.82172 0.0
C2573 C 0.86812 0.5087 0.81929 0.0
C2574 C 0.84878 0.49563 0.8287 0.0
C2575 C 0.84992 0.48068 0.84062 0.0
C2576 C 0.87039 0.47874 0.84312 0.0
C2577 C 0.98537 0.514 0.89239 0.0
C2578 C 0.97263 0.49818 0.90455 0.0
C2579 C 0.9755 0.51242 0.87671 0.0
C2580 C 0.95269 0.49498 0.87283 0.0
C2581 C 0.93963 0.47961 0.88505 0.0
C2582 C 0.94953 0.48111 0.90073 0.0
C2583 C 0.9429 0.49203 0.85587 0.0
C2584 C 0.9218 0.49271 0.85239 0.0
C2585 C 0.95437 0.48859 0.84314 0.0
C2586 C 0.97615 0.4867 0.84606 0.0
C2587 C 0.97662 0.47006 0.85687 0.0
C2588 C 0.99726 0.46849 0.85963 0.0
C2589 C 0.0175 0.48335 0.85156 0.0
C2590 C 0.01711 0.49977 0.84066 0.0
C2591 C 0.99651 0.50143 0.83787 0.0
H2592 H 0.03346 0.48211 0.85371 0.0
H2593 H 0.83293 0.49712 0.82678 0.0
H2594 H 0.59867 0.45896 0.79497 0.0
H2595 H 0.59603 0.46953 0.82254 0.0
H2596 H 0.54702 0.49255 0.80456 0.0
H2597 H 0.5501 0.48224 0.7771 0.0
H2598 H 0.57413 0.51905 0.82881 0.0
H2599 H 0.52722 0.43709 0.82075 0.0
H2600 H 0.52049 0.39861 0.81427 0.0
H2601 H 0.57194 0.40361 0.85123 0.0
H2602 H 0.57882 0.44205 0.85801 0.0
H2603 H 0.50396 0.50253 0.89529 0.0
H2604 H 0.52031 0.50221 0.86967 0.0
H2605 H 0.56373 0.47656 0.89407 0.0
H2606 H 0.54653 0.47575 0.91973 0.0
H2607 H 0.54475 0.45367 0.8678 0.0
H2608 H 0.58663 0.53318 0.87889 0.0
H2609 H 0.59183 0.57082 0.88606 0.0
H2610 H 0.55048 0.5711 0.8437 0.0
H2611 H 0.54475 0.5333 0.83638 0.0
C2612 C 0.58822 0.46723 0.79691 0.0
C2613 C 0.57494 0.47025 0.78397 0.0
C2614 C 0.58635 0.4729 0.81266 0.0
C2615 C 0.57093 0.48143 0.81575 0.0
C2616 C 0.55903 0.486 0.80258 0.0
C2617 C 0.56093 0.48035 0.78687 0.0
C2618 C 0.56559 0.48385 0.83265 0.0
C2619 C 0.56761 0.50472 0.83732 0.0
C2620 C 0.55758 0.46539 0.84398 0.0
C2621 C 0.55372 0.44249 0.83975 0.0
C2622 C 0.53719 0.43002 0.82742 0.0
C2623 C 0.53329 0.4082 0.82374 0.0
C2624 C 0.54588 0.39874 0.83227 0.0
C2625 C 0.56226 0.41099 0.8446 0.0
C2626 C 0.5661 0.43275 0.84841 0.0
C2627 C 0.5169 0.49668 0.89527 0.0
C2628 C 0.52377 0.48906 0.90969 0.0
C2629 C 0.52653 0.49683 0.88056 0.0
C2630 C 0.5436 0.48969 0.87985 0.0
C2631 C 0.55071 0.48228 0.89424 0.0
C2632 C 0.54097 0.48202 0.90897 0.0
C2633 C 0.55301 0.48882 0.86398 0.0
C2634 C 0.55165 0.46818 0.85946 0.0
C2635 C 0.56165 0.50753 0.85282 0.0
C2636 C 0.56512 0.53031 0.85715 0.0
C2637 C 0.57851 0.54119 0.87116 0.0
C2638 C 0.58157 0.56257 0.87524 0.0
C2639 C 0.57145 0.57332 0.86536 0.0
C2640 C 0.55829 0.56274 0.85135 0.0
C2641 C 0.55516 0.54135 0.84721 0.0
H2642 H 0.57384 0.58987 0.86855 0.0
H2643 H 0.54288 0.38188 0.82936 0.0
H2644 H 0.61886 0.1453 0.80451 0.0
H2645 H 0.62664 0.12885 0.82987 0.0
H2646 H 0.56238 0.06599 0.82068 0.0
H2647 H 0.5554 0.08222 0.79538 0.0
H2648 H 0.60148 0.11886 0.85446 0.0
H2649 H 0.55886 0.02111 0.83852 0.0
H2650 H 0.56213 0.99813 0.8174 0.0
H2651 H 0.62989 0.05324 0.80596 0.0
H2652 H 0.62728 0.07647 0.8272 0.0
H2653 H 0.51102 0.01595 0.89642 0.0
H2654 H 0.53624 0.03437 0.87382 0.0
H2655 H 0.59436 0.07401 0.907 0.0
H2656 H 0.56918 0.05538 0.92983 0.0
H2657 H 0.57792 0.03708 0.86478 0.0
H2658 H 0.6263 0.12411 0.88944 0.0
H2659 H 0.62454 0.14863 0.9102 0.0
H2660 H 0.54944 0.11678 0.90279 0.0
H2661 H 0.55081 0.09182 0.88231 0.0
C2662 C 0.60699 0.12772 0.8078 0.0
C2663 C 0.58642 0.11498 0.79833 0.0
C2664 C 0.61135 0.11836 0.82222 0.0
C2665 C 0.5952 0.09609 0.82721 0.0
C2666 C 0.57546 0.08297 0.81704 0.0
C2667 C 0.57124 0.09229 0.80268 0.0
C2668 C 0.5963 0.08766 0.84396 0.0
C2669 C 0.59722 0.10119 0.85676 0.0
C2670 C 0.59109 0.06473 0.84717 0.0
C2671 C 0.59287 0.05058 0.83452 0.0
C2672 C 0.5746 0.02829 0.83165 0.0
C2673 C 0.5763 0.01522 0.8196 0.0
C2674 C 0.5962 0.02421 0.81034 0.0
C2675 C 0.61446 0.0463 0.81312 0.0
C2676 C 0.61287 0.05943 0.82516 0.0
C2677 C 0.52925 0.0283 0.89897 0.0
C2678 C 0.53805 0.0342 0.91494 0.0
C2679 C 0.54367 0.03882 0.88603 0.0
C2680 C 0.56717 0.05555 0.88873 0.0
C2681 C 0.57623 0.06126 0.90465 0.0
C2682 C 0.56177 0.05069 0.91766 0.0
C2683 C 0.58123 0.06781 0.87462 0.0
C2684 C 0.5833 0.055 0.86246 0.0
C2685 C 0.58971 0.09149 0.87206 0.0
C2686 C 0.58865 0.10608 0.8845 0.0
C2687 C 0.60944 0.12232 0.89234 0.0
C2688 C 0.6085 0.13622 0.90409 0.0
C2689 C 0.58689 0.13419 0.90789 0.0
C2690 C 0.56616 0.11821 0.89999 0.0
C2691 C 0.56698 0.10412 0.88836 0.0
H2692 H 0.58623 0.14508 0.9169 0.0
H2693 H 0.59746 0.01408 0.80101 0.0
H2694 H 0.1297 0.23602 0.58611 0.0
H2695 H 0.14114 0.23362 0.55871 0.0
H2696 H 0.17119 0.30679 0.55298 0.0
H2697 H 0.15959 0.30893 0.58024 0.0
H2698 H 0.12522 0.24738 0.53054 0.0
H2699 H 0.21965 0.32596 0.53019 0.0
H2700 H 0.25379 0.34469 0.54928 0.0
H2701 H 0.23109 0.28194 0.57645 0.0
H2702 H 0.19719 0.26257 0.55725 0.0
H2703 H 0.15431 0.31304 0.45978 0.0
H2704 H 0.14718 0.29659 0.48707 0.0
H2705 H 0.19652 0.27161 0.48159 0.0
H2706 H 0.20393 0.28835 0.45414 0.0
H2707 H 0.2049 0.29491 0.5097 0.0
H2708 H 0.13985 0.2336 0.48345 0.0
H2709 H 0.10518 0.21518 0.46473 0.0
H2710 H 0.06903 0.24175 0.4912 0.0
H2711 H 0.1036 0.26065 0.50991 0.0
C2712 C 0.13909 0.25148 0.57896 0.0
C2713 C 0.14388 0.27265 0.58499 0.0
C2714 C 0.14552 0.25014 0.56342 0.0
C2715 C 0.15709 0.27004 0.5539 0.0
C2716 C 0.16253 0.29128 0.56022 0.0
C2717 C 0.15591 0.29255 0.57567 0.0
C2718 C 0.1619 0.2688 0.53687 0.0
C2719 C 0.14267 0.25746 0.52596 0.0
C2720 C 0.18478 0.28151 0.53103 0.0
C2721 C 0.20576 0.29281 0.54226 0.0
C2722 C 0.22207 0.31604 0.5401 0.0
C2723 C 0.24139 0.32678 0.55096 0.0
C2724 C 0.24461 0.3145 0.56405 0.0
C2725 C 0.22859 0.2914 0.56628 0.0
C2726 C 0.20933 0.28053 0.5554 0.0
C2727 C 0.16351 0.30389 0.46434 0.0
C2728 C 0.17975 0.30205 0.45491 0.0
C2729 C 0.15928 0.29434 0.47988 0.0
C2730 C 0.17117 0.2827 0.48629 0.0
C2731 C 0.18708 0.28042 0.4768 0.0
C2732 C 0.1912 0.28986 0.46114 0.0
C2733 C 0.16802 0.2746 0.50335 0.0
C2734 C 0.18755 0.28423 0.51427 0.0
C2735 C 0.14542 0.2602 0.50922 0.0
C2736 C 0.1244 0.24861 0.49809 0.0
C2737 C 0.12456 0.23563 0.48524 0.0
C2738 C 0.10491 0.22509 0.47462 0.0
C2739 C 0.08491 0.22731 0.47675 0.0
C2740 C 0.08451 0.24003 0.48954 0.0
C2741 C 0.10413 0.25063 0.50019 0.0
H2742 H 0.06973 0.21915 0.46851 0.0
H2743 H 0.25952 0.32288 0.57249 0.0
H2744 H 0.74757 0.87961 0.58858 0.0
H2745 H 0.73397 0.86623 0.56103 0.0
H2746 H 0.80264 0.87514 0.55175 0.0
H2747 H 0.81633 0.88918 0.57944 0.0
H2748 H 0.78869 0.89435 0.52808 0.0
H2749 H 0.75422 0.82144 0.5533 0.0
H2750 H 0.73205 0.79164 0.5735 0.0
H2751 H 0.66943 0.79562 0.55911 0.0
H2752 H 0.6913 0.82574 0.539 0.0
H2753 H 0.73859 0.85288 0.44851 0.0
H2754 H 0.7573 0.85513 0.47544 0.0
H2755 H 0.69923 0.85675 0.49686 0.0
H2756 H 0.68074 0.85506 0.47014 0.0
H2757 H 0.71216 0.82732 0.51331 0.0
H2758 H 0.7504 0.90531 0.49134 0.0
H2759 H 0.77295 0.93396 0.47055 0.0
H2760 H 0.82954 0.91806 0.47848 0.0
H2761 H 0.80716 0.8891 0.49918 0.0
C2762 C 0.75953 0.8782 0.58072 0.0
C2763 C 0.78291 0.88534 0.58601 0.0
C2764 C 0.75179 0.8705 0.565 0.0
C2765 C 0.76721 0.8695 0.55425 0.0
C2766 C 0.7904 0.87573 0.55979 0.0
C2767 C 0.79816 0.8835 0.5756 0.0
C2768 C 0.75936 0.86368 0.537 0.0
C2769 C 0.77223 0.87938 0.52484 0.0
C2770 C 0.73782 0.84423 0.53266 0.0
C2771 C 0.72446 0.82597 0.54467 0.0
C2772 C 0.73575 0.81608 0.5545 0.0
C2773 C 0.72323 0.79911 0.56594 0.0
C2774 C 0.69935 0.79176 0.5676 0.0
C2775 C 0.68793 0.80133 0.55781 0.0
C2776 C 0.70038 0.81834 0.54637 0.0
C2777 C 0.72987 0.85389 0.45893 0.0
C2778 C 0.70807 0.85374 0.45708 0.0
C2779 C 0.74054 0.85503 0.47434 0.0
C2780 C 0.72966 0.85609 0.48819 0.0
C2781 C 0.70785 0.85571 0.48638 0.0
C2782 C 0.69726 0.85468 0.47104 0.0
C2783 C 0.74108 0.85836 0.50463 0.0
C2784 C 0.72885 0.842 0.51659 0.0
C2785 C 0.76331 0.87702 0.50874 0.0
C2786 C 0.77703 0.89491 0.49668 0.0
C2787 C 0.76761 0.90787 0.48859 0.0
C2788 C 0.78035 0.92415 0.47683 0.0
C2789 C 0.80263 0.92777 0.47316 0.0
C2790 C 0.81226 0.9152 0.48132 0.0
C2791 C 0.79957 0.89887 0.49308 0.0
H2792 H 0.81245 0.94034 0.46402 0.0
H2793 H 0.68969 0.77862 0.57646 0.0
H2794 H 0.10454 0.86334 0.59218 0.0
H2795 H 0.10321 0.84524 0.56661 0.0
H2796 H 0.0905 0.89574 0.54021 0.0
H2797 H 0.09184 0.91362 0.56576 0.0
H2798 H 0.06635 0.85274 0.52596 0.0
H2799 H 0.14533 0.90525 0.54617 0.0
H2800 H 0.17827 0.91957 0.56656 0.0
H2801 H 0.17856 0.85537 0.56691 0.0
H2802 H 0.14548 0.84061 0.5466 0.0
H2803 H 0.1174 0.86411 0.44994 0.0
H2804 H 0.10497 0.86873 0.47619 0.0
H2805 H 0.1266 0.8215 0.49797 0.0
H2806 H 0.1397 0.81735 0.47192 0.0
H2807 H 0.14335 0.85821 0.51546 0.0
H2808 H 0.06883 0.80772 0.49184 0.0
H2809 H 0.03584 0.79283 0.47159 0.0
H2810 H 0.02545 0.85079 0.47784 0.0
H2811 H 0.05895 0.86649 0.49777 0.0
C2812 C 0.1007 0.86999 0.58092 0.0
C2813 C 0.0983 0.88978 0.5808 0.0
C2814 C 0.10009 0.85981 0.56633 0.0
C2815 C 0.09706 0.86932 0.55145 0.0
C2816 C 0.09284 0.88807 0.55149 0.0
C2817 C 0.0936 0.89828 0.56604 0.0
C2818 C 0.10103 0.86165 0.53587 0.0
C2819 C 0.08319 0.85401 0.52358 0.0
C2820 C 0.12284 0.86285 0.53289 0.0
C2821 C 0.14279 0.87175 0.54502 0.0
C2822 C 0.15232 0.89415 0.55068 0.0
C2823 C 0.17103 0.90234 0.56221 0.0
C2824 C 0.18043 0.88835 0.56807 0.0
C2825 C 0.17122 0.86617 0.56238 0.0
C2826 C 0.15252 0.85788 0.55085 0.0
C2827 C 0.11947 0.85467 0.46031 0.0
C2828 C 0.12963 0.84039 0.45878 0.0
C2829 C 0.11212 0.85714 0.4753 0.0
C2830 C 0.11466 0.84534 0.4891 0.0
C2831 C 0.12437 0.83075 0.48753 0.0
C2832 C 0.13169 0.82825 0.47256 0.0
C2833 C 0.10872 0.84937 0.50534 0.0
C2834 C 0.12631 0.85654 0.51778 0.0
C2835 C 0.08662 0.8476 0.5084 0.0
C2836 C 0.06664 0.83843 0.49622 0.0
C2837 C 0.05977 0.81749 0.48875 0.0
C2838 C 0.04095 0.8089 0.47733 0.0
C2839 C 0.02857 0.82086 0.47343 0.0
C2840 C 0.03509 0.84155 0.48087 0.0
C2841 C 0.05403 0.85034 0.49221 0.0
H2842 H 0.01384 0.81401 0.46472 0.0
H2843 H 0.19491 0.89473 0.577 0.0
H2844 H 0.52588 0.7887 0.11538 0.0
H2845 H 0.53963 0.80395 0.14277 0.0
H2846 H 0.60709 0.8088 0.13512 0.0
H2847 H 0.59333 0.79394 0.10787 0.0
H2848 H 0.55156 0.78385 0.16701 0.0
H2849 H 0.65011 0.84945 0.15754 0.0
H2850 H 0.67367 0.87848 0.1373 0.0
H2851 H 0.61313 0.88485 0.12059 0.0
H2852 H 0.58929 0.85615 0.14089 0.0
H2853 H 0.62307 0.79108 0.23613 0.0
H2854 H 0.60466 0.78741 0.20908 0.0
H2855 H 0.61739 0.85697 0.21048 0.0
H2856 H 0.63611 0.86082 0.23754 0.0
H2857 H 0.62851 0.84992 0.18243 0.0
H2858 H 0.56129 0.81092 0.21403 0.0
H2859 H 0.53628 0.78358 0.2346 0.0
H2860 H 0.53083 0.72774 0.20758 0.0
H2861 H 0.55609 0.75476 0.18694 0.0
C2862 C 0.54386 0.79382 0.11947 0.0
C2863 C 0.55869 0.7904 0.10964 0.0
C2864 C 0.55164 0.80227 0.13511 0.0
C2865 C 0.57445 0.80761 0.14104 0.0
C2866 C 0.58958 0.8052 0.13081 0.0
C2867 C 0.58177 0.79673 0.11526 0.0
C2868 C 0.58193 0.81365 0.15829 0.0
C2869 C 0.56828 0.79842 0.17038 0.0
C2870 C 0.60352 0.83291 0.16279 0.0
C2871 C 0.61787 0.85051 0.1507 0.0
C2872 C 0.64185 0.85714 0.14963 0.0
C2873 C 0.65525 0.87353 0.13812 0.0
C2874 C 0.64489 0.88346 0.12764 0.0
C2875 C 0.62112 0.87709 0.12868 0.0
C2876 C 0.60765 0.86075 0.14018 0.0
C2877 C 0.62167 0.80551 0.23079 0.0
C2878 C 0.63101 0.82622 0.23905 0.0
C2879 C 0.61111 0.80339 0.21529 0.0
C2880 C 0.60931 0.82182 0.20776 0.0
C2881 C 0.61854 0.8425 0.216 0.0
C2882 C 0.62927 0.84468 0.23147 0.0
C2883 C 0.59856 0.81964 0.19107 0.0
C2884 C 0.61161 0.83555 0.17908 0.0
C2885 C 0.57619 0.80128 0.18672 0.0
C2886 C 0.56071 0.7849 0.19898 0.0
C2887 C 0.55487 0.79282 0.21251 0.0
C2888 C 0.54063 0.77738 0.22418 0.0
C2889 C 0.53201 0.75394 0.2224 0.0
C2890 C 0.53753 0.7459 0.20893 0.0
C2891 C 0.55178 0.76127 0.19723 0.0
H2892 H 0.52103 0.74203 0.23146 0.0
H2893 H 0.6553 0.89612 0.11873 0.0
H2894 H 0.22907 0.81666 0.11205 0.0
H2895 H 0.22388 0.82638 0.13919 0.0
H2896 H 0.25315 0.78467 0.16017 0.0
H2897 H 0.25754 0.77456 0.13296 0.0
H2898 H 0.21365 0.77268 0.17295 0.0
H2899 H 0.2809 0.84507 0.16376 0.0
H2900 H 0.30548 0.88093 0.14899 0.0
H2901 H 0.25196 0.9009 0.15128 0.0
H2902 H 0.22688 0.86499 0.16586 0.0
H2903 H 0.20633 0.79743 0.25424 0.0
H2904 H 0.22213 0.79598 0.22853 0.0
H2905 H 0.18884 0.83258 0.20496 0.0
H2906 H 0.17286 0.834 0.23059 0.0
H2907 H 0.23256 0.84813 0.19422 0.0
H2908 H 0.16472 0.77445 0.20197 0.0
H2909 H 0.14043 0.73862 0.2169 0.0
H2910 H 0.1962 0.72131 0.21739 0.0
H2911 H 0.22095 0.7572 0.20265 0.0
C2912 C 0.23527 0.81043 0.12251 0.0
C2913 C 0.24404 0.7952 0.1205 0.0
C2914 C 0.23219 0.81584 0.13804 0.0
C2915 C 0.23812 0.8063 0.15188 0.0
C2916 C 0.24834 0.79223 0.14978 0.0
C2917 C 0.25118 0.78669 0.13426 0.0
C2918 C 0.23153 0.80904 0.16835 0.0
C2919 C 0.21825 0.78927 0.17768 0.0
C2920 C 0.23684 0.83056 0.17449 0.0
C2921 C 0.25192 0.85223 0.16579 0.0
C2922 C 0.27429 0.85702 0.16101 0.0
C2923 C 0.28833 0.87737 0.15268 0.0
C2924 C 0.28026 0.89316 0.14917 0.0
C2925 C 0.25817 0.88864 0.154 0.0
C2926 C 0.24404 0.86831 0.16231 0.0
C2927 C 0.20225 0.80509 0.24359 0.0
C2928 C 0.18815 0.81572 0.24457 0.0
C2929 C 0.21138 0.80431 0.22887 0.0
C2930 C 0.2065 0.81395 0.21468 0.0
C2931 C 0.19294 0.82506 0.21569 0.0
C2932 C 0.18384 0.82589 0.23041 0.0
C2933 C 0.21484 0.81181 0.19873 0.0
C2934 C 0.22826 0.83162 0.18949 0.0
C2935 C 0.20974 0.79033 0.19266 0.0
C2936 C 0.19477 0.76862 0.20135 0.0
C2937 C 0.17186 0.76307 0.20535 0.0
C2938 C 0.158 0.74275 0.21377 0.0
C2939 C 0.1668 0.72773 0.21813 0.0
C2940 C 0.18943 0.73297 0.21403 0.0
C2941 C 0.20337 0.75329 0.20563 0.0
H2942 H 0.15606 0.71202 0.22465 0.0
H2943 H 0.29116 0.9089 0.14272 0.0
H2944 H 0.2952 0.50044 0.14443 0.0
H2945 H 0.29647 0.4786 0.16887 0.0
H2946 H 0.23203 0.42067 0.15191 0.0
H2947 H 0.23153 0.44223 0.12748 0.0
H2948 H 0.2671 0.46626 0.19096 0.0
H2949 H 0.22268 0.37171 0.16759 0.0
H2950 H 0.22734 0.35134 0.14521 0.0
H2951 H 0.29785 0.40537 0.13953 0.0
H2952 H 0.29382 0.42591 0.16206 0.0
H2953 H 0.18024 0.39083 0.23993 0.0
H2954 H 0.20504 0.41318 0.21793 0.0
H2955 H 0.24835 0.3807 0.22698 0.0
H2956 H 0.22354 0.35823 0.24915 0.0
H2957 H 0.23973 0.38297 0.19547 0.0
H2958 H 0.27021 0.43514 0.23724 0.0
H2959 H 0.27028 0.45621 0.26084 0.0
H2960 H 0.23755 0.48889 0.23173 0.0
H2961 H 0.23683 0.4676 0.20797 0.0
C2962 C 0.28187 0.48278 0.14582 0.0
C2963 C 0.26304 0.47297 0.13442 0.0
C2964 C 0.28249 0.47036 0.15974 0.0
C2965 C 0.26433 0.44795 0.1623 0.0
C2966 C 0.2465 0.43772 0.15019 0.0
C2967 C 0.24601 0.45006 0.13631 0.0
C2968 C 0.26164 0.43639 0.17838 0.0
C2969 C 0.26151 0.44813 0.19198 0.0
C2970 C 0.25529 0.41294 0.17997 0.0
C2971 C 0.2579 0.4004 0.16654 0.0
C2972 C 0.23927 0.37917 0.16169 0.0
C2973 C 0.24178 0.36761 0.14893 0.0
C2974 C 0.26286 0.37706 0.14095 0.0
C2975 C 0.28151 0.39809 0.14571 0.0
C2976 C 0.27911 0.40971 0.15846 0.0
C2977 C 0.19516 0.38858 0.23736 0.0
C2978 C 0.19995 0.3728 0.2463 0.0
C2979 C 0.20935 0.40138 0.22479 0.0
C2980 C 0.22877 0.39886 0.22097 0.0
C2981 C 0.23349 0.38295 0.22975 0.0
C2982 C 0.21924 0.37007 0.24234 0.0
C2983 C 0.24352 0.41256 0.20749 0.0
C2984 C 0.24597 0.40122 0.19449 0.0
C2985 C 0.25287 0.43655 0.20662 0.0
C2986 C 0.25342 0.44969 0.2208 0.0
C2987 C 0.26289 0.44671 0.23587 0.0
C2988 C 0.26305 0.45872 0.24929 0.0
C2989 C 0.25394 0.47393 0.2478 0.0
C2990 C 0.24464 0.47713 0.23287 0.0
C2991 C 0.24438 0.46511 0.2194 0.0
H2992 H 0.2541 0.48326 0.25818 0.0
H2993 H 0.26475 0.36809 0.13107 0.0
H2994 H 0.763 0.53498 0.90201 0.0
H2995 H 0.77374 0.54572 0.87369 0.0
H2996 H 0.82316 0.61416 0.88846 0.0
H2997 H 0.81273 0.60316 0.91674 0.0
H2998 H 0.78568 0.60799 0.86329 0.0
H2999 H 0.84579 0.5865 0.87795 0.0
H3000 H 0.86024 0.56009 0.88824 0.0
H3001 H 0.82053 0.51343 0.85029 0.0
H3002 H 0.80544 0.53939 0.83995 0.0
H3003 H 0.85167 0.66772 0.7976 0.0
H3004 H 0.83885 0.64873 0.82366 0.0
H3005 H 0.80163 0.58353 0.80038 0.0
H3006 H 0.81394 0.60256 0.77399 0.0
H3007 H 0.82865 0.58332 0.82847 0.0
H3008 H 0.76923 0.60351 0.81301 0.0
H3009 H 0.75237 0.62797 0.80264 0.0
H3010 H 0.788 0.67457 0.84137 0.0
H3011 H 0.80513 0.65041 0.85198 0.0
C3012 C 0.77647 0.55212 0.8991 0.0
C3013 C 0.78717 0.56835 0.91127 0.0
C3014 C 0.78258 0.55822 0.88306 0.0
C3015 C 0.7992 0.58069 0.87911 0.0
C3016 C 0.81034 0.59673 0.89137 0.0
C3017 C 0.80452 0.5905 0.90741 0.0
C3018 C 0.80356 0.58807 0.86207 0.0
C3019 C 0.79526 0.60278 0.8557 0.0
C3020 C 0.81513 0.58037 0.8521 0.0
C3021 C 0.82421 0.56476 0.85831 0.0
C3022 C 0.83989 0.57049 0.87191 0.0
C3023 C 0.84826 0.55562 0.87772 0.0
C3024 C 0.84127 0.53507 0.86993 0.0
C3025 C 0.82592 0.52935 0.85631 0.0
C3026 C 0.81744 0.54413 0.85048 0.0
C3027 C 0.8405 0.64938 0.79794 0.0
C3028 C 0.83364 0.63668 0.78369 0.0
C3029 C 0.8333 0.63854 0.81286 0.0
C3030 C 0.81914 0.61479 0.81388 0.0
C3031 C 0.81259 0.6019 0.79978 0.0
C3032 C 0.8197 0.61279 0.78476 0.0
C3033 C 0.81134 0.60378 0.82983 0.0
C3034 C 0.81885 0.58832 0.836 0.0
C3035 C 0.79871 0.61051 0.83961 0.0
C3036 C 0.78861 0.62523 0.83322 0.0
C3037 C 0.77363 0.61906 0.81925 0.0
C3038 C 0.76398 0.63285 0.81335 0.0
C3039 C 0.76921 0.65286 0.82129 0.0
C3040 C 0.784 0.65908 0.83521 0.0
C3041 C 0.79362 0.64531 0.84121 0.0
H3042 H 0.76173 0.66352 0.81669 0.0
H3043 H 0.8478 0.5236 0.87443 0.0
H3044 H 0.40671 0.20573 0.92286 0.0
H3045 H 0.39335 0.19358 0.89497 0.0
H3046 H 0.46264 0.20475 0.88511 0.0
H3047 H 0.47587 0.21691 0.9132 0.0
H3048 H 0.4116 0.22272 0.86959 0.0
H3049 H 0.4554 0.16993 0.85189 0.0
H3050 H 0.46833 0.14344 0.86459 0.0
H3051 H 0.41607 0.1233 0.90007 0.0
H3052 H 0.40259 0.14938 0.88745 0.0
H3053 H 0.40841 0.21809 0.78444 0.0
H3054 H 0.42536 0.22031 0.81198 0.0
H3055 H 0.36795 0.15403 0.82347 0.0
H3056 H 0.35083 0.15178 0.79599 0.0
H3057 H 0.41382 0.16261 0.8378 0.0
H3058 H 0.36143 0.19576 0.8326 0.0
H3059 H 0.34773 0.22167 0.81995 0.0
H3060 H 0.41483 0.27944 0.83141 0.0
H3061 H 0.42904 0.25379 0.8439 0.0
C3062 C 0.41878 0.20483 0.91483 0.0
C3063 C 0.44221 0.21213 0.92005 0.0
C3064 C 0.41125 0.1981 0.8989 0.0
C3065 C 0.42702 0.19843 0.88788 0.0
C3066 C 0.45011 0.20422 0.8934 0.0
C3067 C 0.45764 0.21101 0.90942 0.0
C3068 C 0.41981 0.19498 0.87039 0.0
C3069 C 0.41216 0.20957 0.86269 0.0
C3070 C 0.42057 0.17791 0.8613 0.0
C3071 C 0.42817 0.1618 0.86881 0.0
C3072 C 0.4466 0.15977 0.86236 0.0
C3073 C 0.45404 0.14484 0.86955 0.0
C3074 C 0.44309 0.13176 0.88316 0.0
C3075 C 0.4246 0.13351 0.88957 0.0
C3076 C 0.41708 0.14839 0.88241 0.0
C3077 C 0.39967 0.20379 0.79273 0.0
C3078 C 0.37815 0.18487 0.78812 0.0
C3079 C 0.40937 0.20507 0.80845 0.0
C3080 C 0.39785 0.18737 0.81979 0.0
C3081 C 0.37715 0.16784 0.81491 0.0
C3082 C 0.36728 0.16668 0.79927 0.0
C3083 C 0.40573 0.19037 0.83714 0.0
C3084 C 0.4135 0.17581 0.84476 0.0
C3085 C 0.40501 0.2074 0.84627 0.0
C3086 C 0.39636 0.22285 0.83903 0.0
C3087 C 0.37331 0.21397 0.83231 0.0
C3088 C 0.36545 0.22861 0.82519 0.0
C3089 C 0.38042 0.25218 0.82484 0.0
C3090 C 0.40326 0.26117 0.83166 0.0
C3091 C 0.41123 0.2466 0.83878 0.0
H3092 H 0.37431 0.26349 0.81931 0.0
H3093 H 0.44889 0.12024 0.88873 0.0
H3094 H 0.75539 0.24245 0.90024 0.0
H3095 H 0.75525 0.2254 0.87461 0.0
H3096 H 0.77479 0.1791 0.90054 0.0
H3097 H 0.77472 0.19628 0.92622 0.0
H3098 H 0.80506 0.20308 0.87732 0.0
H3099 H 0.72244 0.15867 0.87999 0.0
H3100 H 0.68148 0.15006 0.88322 0.0
H3101 H 0.68508 0.19213 0.84161 0.0
H3102 H 0.72622 0.20134 0.83828 0.0
H3103 H 0.81152 0.15326 0.80595 0.0
H3104 H 0.79729 0.15676 0.83172 0.0
H3105 H 0.77863 0.20618 0.81016 0.0
H3106 H 0.79302 0.20287 0.78425 0.0
H3107 H 0.74552 0.17662 0.83173 0.0
H3108 H 0.82968 0.22402 0.83139 0.0
H3109 H 0.87042 0.23189 0.82814 0.0
H3110 H 0.86313 0.18309 0.86595 0.0
H3111 H 0.8222 0.17469 0.86927 0.0
C3112 C 0.75877 0.22806 0.90042 0.0
C3113 C 0.76483 0.22045 0.91508 0.0
C3114 C 0.75875 0.21834 0.88581 0.0
C3115 C 0.76498 0.2009 0.88559 0.0
C3116 C 0.76986 0.19247 0.90039 0.0
C3117 C 0.76963 0.2021 0.91504 0.0
C3118 C 0.76923 0.19365 0.86991 0.0
C3119 C 0.79183 0.19681 0.86749 0.0
C3120 C 0.75221 0.18605 0.85688 0.0
C3121 C 0.72755 0.18087 0.85897 0.0
C3122 C 0.71461 0.16631 0.87162 0.0
C3123 C 0.69133 0.16127 0.87346 0.0
C3124 C 0.6807 0.17057 0.86265 0.0
C3125 C 0.69334 0.18495 0.84998 0.0
C3126 C 0.71665 0.19007 0.84811 0.0
C3127 C 0.80435 0.16486 0.80664 0.0
C3128 C 0.80378 0.17805 0.79305 0.0
C3129 C 0.79611 0.16677 0.8214 0.0
C3130 C 0.78721 0.182 0.82299 0.0
C3131 C 0.78544 0.19432 0.80925 0.0
C3132 C 0.79367 0.19239 0.79443 0.0
C3133 C 0.78133 0.18619 0.83921 0.0
C3134 C 0.75857 0.18262 0.84167 0.0
C3135 C 0.79815 0.19339 0.85235 0.0
C3136 C 0.82281 0.19855 0.85046 0.0
C3137 C 0.83671 0.21485 0.83893 0.0
C3138 C 0.85984 0.21942 0.83708 0.0
C3139 C 0.86934 0.20795 0.8468 0.0
C3140 C 0.85574 0.19193 0.85841 0.0
C3141 C 0.83258 0.18726 0.86029 0.0
H3142 H 0.88725 0.21152 0.84535 0.0
H3143 H 0.66265 0.1666 0.86406 0.0
H3144 H 0.19248 0.09916 0.45224 0.0
H3145 H 0.20793 0.11467 0.47918 0.0
H3146 H 0.27438 0.16191 0.4591 0.0
H3147 H 0.25895 0.14547 0.43229 0.0
H3148 H 0.28168 0.14019 0.48328 0.0
H3149 H 0.23611 0.179 0.47601 0.0
H3150 H 0.20064 0.18309 0.4696 0.0
H3151 H 0.16551 0.13674 0.50856 0.0
H3152 H 0.20056 0.13207 0.51506 0.0
H3153 H 0.33295 0.19083 0.55848 0.0
H3154 H 0.31594 0.18602 0.53091 0.0
H3155 H 0.24996 0.13236 0.54749 0.0
H3156 H 0.26668 0.13749 0.57525 0.0
H3157 H 0.2435 0.16061 0.52489 0.0
H3158 H 0.28717 0.11915 0.53032 0.0
H3159 H 0.32214 0.11436 0.53686 0.0
H3160 H 0.36042 0.1655 0.50111 0.0
H3161 H 0.32574 0.17082 0.49452 0.0
C3162 C 0.21013 0.1133 0.45362 0.0
C3163 C 0.22459 0.12125 0.44036 0.0
C3164 C 0.21898 0.12223 0.46898 0.0
C3165 C 0.24236 0.13961 0.47126 0.0
C3166 C 0.25631 0.14852 0.4577 0.0
C3167 C 0.2475 0.13935 0.44238 0.0
C3168 C 0.25298 0.1465 0.48789 0.0
C3169 C 0.27356 0.14517 0.49223 0.0
C3170 C 0.24206 0.15228 0.49982 0.0
C3171 C 0.22093 0.15506 0.49594 0.0
C3172 C 0.22075 0.16954 0.48313 0.0
C3173 C 0.20074 0.17199 0.47949 0.0
C3174 C 0.18085 0.16016 0.48865 0.0
C3175 C 0.18093 0.14588 0.50147 0.0
C3176 C 0.20087 0.14335 0.50515 0.0
C3177 C 0.31469 0.17826 0.55634 0.0
C3178 C 0.30121 0.1645 0.56911 0.0
C3179 C 0.30505 0.17541 0.54053 0.0
C3180 C 0.28174 0.15866 0.53709 0.0
C3181 C 0.26799 0.14536 0.54985 0.0
C3182 C 0.27765 0.14817 0.56569 0.0
C3183 C 0.27209 0.15432 0.5201 0.0
C3184 C 0.2517 0.15597 0.51578 0.0
C3185 C 0.28311 0.14879 0.50815 0.0
C3186 C 0.30395 0.14556 0.51206 0.0
C3187 C 0.3031 0.12951 0.52395 0.0
C3188 C 0.32286 0.12667 0.52765 0.0
C3189 C 0.34351 0.13967 0.51944 0.0
C3190 C 0.34442 0.15548 0.50748 0.0
C3191 C 0.32472 0.1584 0.50375 0.0
H3192 H 0.35878 0.13744 0.52232 0.0
H3193 H 0.16539 0.16209 0.48581 0.0
H3194 H 0.88696 0.15079 0.44298 0.0
H3195 H 0.8832 0.16258 0.46974 0.0
H3196 H 0.92437 0.13234 0.49109 0.0
H3197 H 0.92715 0.11987 0.46429 0.0
H3198 H 0.88597 0.11615 0.5058 0.0
H3199 H 0.94362 0.19441 0.49361 0.0
H3200 H 0.96183 0.2307 0.47806 0.0
H3201 H 0.8972 0.23371 0.47686 0.0
H3202 H 0.87876 0.19775 0.49284 0.0
H3203 H 0.88093 0.14527 0.58615 0.0
H3204 H 0.89505 0.14347 0.55984 0.0
H3205 H 0.85168 0.1701 0.53672 0.0
H3206 H 0.83772 0.17219 0.56303 0.0
H3207 H 0.89281 0.18919 0.52335 0.0
H3208 H 0.83579 0.11222 0.53658 0.0
H3209 H 0.81805 0.0774 0.55374 0.0
H3210 H 0.88083 0.07129 0.55246 0.0
H3211 H 0.89909 0.10629 0.53548 0.0
C3212 C 0.89611 0.14771 0.45334 0.0
C3213 C 0.90775 0.13488 0.45162 0.0
C3214 C 0.8939 0.15433 0.46869 0.0
C3215 C 0.90355 0.14846 0.48261 0.0
C3216 C 0.9167 0.13709 0.48064 0.0
C3217 C 0.91865 0.13027 0.46532 0.0
C3218 C 0.89739 0.15142 0.49916 0.0
C3219 C 0.88799 0.1323 0.50971 0.0
C3220 C 0.89902 0.17214 0.50423 0.0
C3221 C 0.90978 0.19332 0.49424 0.0
C3222 C 0.93326 0.20273 0.4899 0.0
C3223 C 0.94363 0.22326 0.48106 0.0
C3224 C 0.93063 0.23436 0.47628 0.0
C3225 C 0.90724 0.22506 0.4805 0.0
C3226 C 0.89687 0.2047 0.48956 0.0
C3227 C 0.87434 0.15069 0.57546 0.0
C3228 C 0.85808 0.15877 0.57673 0.0
C3229 C 0.88243 0.14965 0.56039 0.0
C3230 C 0.87419 0.15632 0.54618 0.0
C3231 C 0.85835 0.16486 0.54746 0.0
C3232 C 0.8504 0.16608 0.56254 0.0
C3233 C 0.88173 0.15404 0.52997 0.0
C3234 C 0.89111 0.17314 0.51947 0.0
C3235 C 0.87997 0.13326 0.52491 0.0
C3236 C 0.86889 0.112 0.53489 0.0
C3237 C 0.84586 0.10353 0.54004 0.0
C3238 C 0.83571 0.08376 0.54973 0.0
C3239 C 0.84833 0.07218 0.55423 0.0
C3240 C 0.87109 0.0803 0.54899 0.0
C3241 C 0.88135 0.1001 0.53932 0.0
H3242 H 0.84045 0.05689 0.56175 0.0
H3243 H 0.93872 0.25023 0.46939 0.0
H3244 H 0.96087 0.8507 0.48134 0.0
H3245 H 0.95977 0.82903 0.50634 0.0
H3246 H 0.91491 0.76617 0.48145 0.0
H3247 H 0.9169 0.78798 0.45654 0.0
H3248 H 0.92309 0.80739 0.5219 0.0
H3249 H 0.91278 0.72029 0.49982 0.0
H3250 H 0.93224 0.70712 0.48156 0.0
H3251 H 0.99468 0.77212 0.48448 0.0
H3252 H 0.97581 0.7857 0.50289 0.0
H3253 H 0.84005 0.71711 0.56505 0.0
H3254 H 0.86404 0.74161 0.54336 0.0
H3255 H 0.9223 0.73183 0.56168 0.0
H3256 H 0.89816 0.70697 0.5834 0.0
H3257 H 0.91935 0.73154 0.52905 0.0
H3258 H 0.92257 0.77968 0.5697 0.0
H3259 H 0.9057 0.79183 0.59053 0.0
H3260 H 0.86663 0.80874 0.55393 0.0
H3261 H 0.88263 0.79587 0.53281 0.0
C3262 C 0.95167 0.83221 0.48121 0.0
C3263 C 0.93903 0.82082 0.46722 0.0
C3264 C 0.95088 0.81984 0.49544 0.0
C3265 C 0.93722 0.79591 0.49586 0.0
C3266 C 0.92597 0.78453 0.48146 0.0
C3267 C 0.92701 0.79692 0.46723 0.0
C3268 C 0.93142 0.78316 0.51156 0.0
C3269 C 0.92267 0.79099 0.52351 0.0
C3270 C 0.93139 0.762 0.514 0.0
C3271 C 0.9428 0.75404 0.50274 0.0
C3272 C 0.93072 0.73177 0.49665 0.0
C3273 C 0.94165 0.72424 0.48625 0.0
C3274 C 0.96471 0.73878 0.4819 0.0
C3275 C 0.97683 0.76092 0.48785 0.0
C3276 C 0.966 0.76856 0.49824 0.0
C3277 C 0.85796 0.72018 0.56446 0.0
C3278 C 0.86732 0.71032 0.57597 0.0
C3279 C 0.87165 0.73413 0.55205 0.0
C3280 C 0.89508 0.73883 0.55107 0.0
C3281 C 0.90428 0.72844 0.56224 0.0
C3282 C 0.89048 0.71427 0.57461 0.0
C3283 C 0.90997 0.75532 0.53866 0.0
C3284 C 0.92037 0.7482 0.52747 0.0
C3285 C 0.91232 0.77751 0.53717 0.0
C3286 C 0.90371 0.78665 0.54966 0.0
C3287 C 0.91035 0.78595 0.56606 0.0
C3288 C 0.90091 0.79294 0.57794 0.0
C3289 C 0.8851 0.80105 0.57357 0.0
C3290 C 0.87887 0.80241 0.55728 0.0
C3291 C 0.8881 0.79524 0.54534 0.0
H3292 H 0.8776 0.80616 0.58282 0.0
H3293 H 0.97317 0.73291 0.47387 0.0
loop_
_geom_bond_atom_site_label_1
_geom_bond_atom_site_label_2
_geom_bond_distance
_geom_bond_site_symmetry_2
_ccdc_geom_bond_type
C0 N1 1.317 . S
C0 N2 1.348 . S
C0 C3 1.485 . S
N1 C0 1.317 . S
N1 N5 1.370 . S
N2 C0 1.348 . S
N2 C4 1.346 . S
C3 C0 1.485 . S
C3 H7 0.960 . S
C3 H8 0.961 . S
C3 H9 0.960 . S
C4 N2 1.346 . S
C4 N5 1.307 . S
C4 C6 1.486 . S
N5 N1 1.370 . S
N5 C4 1.307 . S
C6 C4 1.486 . S
C6 H10 0.960 . S
C6 H11 0.960 . S
C6 H12 0.959 . S
H7 C3 0.960 . S
H8 C3 0.961 . S
H9 C3 0.960 . S
H10 C6 0.960 . S
H11 C6 0.960 . S
H12 C6 0.959 . S
C13 N14 1.317 . S
C13 N15 1.348 . S
C13 C16 1.485 . S
N14 C13 1.317 . S
N14 N18 1.370 . S
N15 C13 1.348 . S
N15 C17 1.346 . S
C16 C13 1.485 . S
C16 H20 0.960 . S
C16 H21 0.961 . S
C16 H22 0.960 . S
C17 N15 1.346 . S
C17 N18 1.307 . S
C17 C19 1.486 . S
N18 N14 1.370 . S
N18 C17 1.307 . S
C19 C17 1.486 . S
C19 H23 0.960 . S
C19 H24 0.960 . S
C19 H25 0.959 . S
H20 C16 0.960 . S
H21 C16 0.961 . S
H22 C16 0.960 . S
H23 C19 0.960 . S
H24 C19 0.960 . S
H25 C19 0.959 . S
C26 N27 1.317 . S
C26 N28 1.348 . S
C26 C29 1.485 . S
N27 C26 1.317 . S
N27 N31 1.370 . S
N28 C26 1.348 . S
N28 C30 1.346 . S
C29 C26 1.485 . S
C29 H33 0.960 . S
C29 H34 0.961 . S
C29 H35 0.960 . S
C30 N28 1.346 . S
C30 N31 1.307 . S
C30 C32 1.486 . S
N31 N27 1.370 . S
N31 C30 1.307 . S
C32 C30 1.486 . S
C32 H36 0.960 . S
C32 H37 0.960 . S
C32 H38 0.959 . S
H33 C29 0.960 . S
H34 C29 0.961 . S
H35 C29 0.960 . S
H36 C32 0.960 . S
H37 C32 0.960 . S
H38 C32 0.959 . S
C39 N40 1.317 . S
C39 N41 1.348 . S
C39 C42 1.485 . S
N40 C39 1.317 . S
N40 N44 1.370 . S
N41 C39 1.348 . S
N41 C43 1.346 . S
C42 C39 1.485 . S
C42 H46 0.960 . S
C42 H47 0.961 . S
C42 H48 0.960 . S
C43 N41 1.346 . S
C43 N44 1.307 . S
C43 C45 1.486 . S
N44 N40 1.370 . S
N44 C43 1.307 . S
C45 C43 1.486 . S
C45 H49 0.960 . S
C45 H50 0.960 . S
C45 H51 0.959 . S
H46 C42 0.960 . S
H47 C42 0.961 . S
H48 C42 0.960 . S
H49 C45 0.960 . S
H50 C45 0.960 . S
H51 C45 0.959 . S
C52 N53 1.317 . S
C52 N54 1.348 . S
C52 C55 1.485 . S
N53 C52 1.317 . S
N53 N57 1.370 . S
N54 C52 1.348 . S
N54 C56 1.346 . S
C55 C52 1.485 . S
C55 H59 0.960 . S
C55 H60 0.961 . S
C55 H61 0.960 . S
C56 N54 1.346 . S
C56 N57 1.307 . S
C56 C58 1.486 . S
N57 N53 1.370 . S
N57 C56 1.307 . S
C58 C56 1.486 . S
C58 H62 0.960 . S
C58 H63 0.960 . S
C58 H64 0.959 . S
H59 C55 0.960 . S
H60 C55 0.961 . S
H61 C55 0.960 . S
H62 C58 0.960 . S
H63 C58 0.960 . S
H64 C58 0.959 . S
C65 N66 1.317 . S
C65 N67 1.348 . S
C65 C68 1.485 . S
N66 C65 1.317 . S
N66 N70 1.370 . S
N67 C65 1.348 . S
N67 C69 1.346 . S
C68 C65 1.485 . S
C68 H72 0.960 . S
C68 H73 0.961 . S
C68 H74 0.960 . S
C69 N67 1.346 . S
C69 N70 1.307 . S
C69 C71 1.486 . S
N70 N66 1.370 . S
N70 C69 1.307 . S
C71 C69 1.486 . S
C71 H75 0.960 . S
C71 H76 0.960 . S
C71 H77 0.959 . S
H72 C68 0.960 . S
H73 C68 0.961 . S
H74 C68 0.960 . S
H75 C71 0.960 . S
H76 C71 0.960 . S
H77 C71 0.959 . S
C78 N79 1.317 . S
C78 N80 1.348 . S
C78 C81 1.485 . S
N79 C78 1.317 . S
N79 N83 1.370 . S
N80 C78 1.348 . S
N80 C82 1.346 . S
C81 C78 1.485 . S
C81 H85 0.960 . S
C81 H86 0.961 . S
C81 H87 0.960 . S
C82 N80 1.346 . S
C82 N83 1.307 . S
C82 C84 1.486 . S
N83 N79 1.370 . S
N83 C82 1.307 . S
C84 C82 1.486 . S
C84 H88 0.960 . S
C84 H89 0.960 . S
C84 H90 0.959 . S
H85 C81 0.960 . S
H86 C81 0.961 . S
H87 C81 0.960 . S
H88 C84 0.960 . S
H89 C84 0.960 . S
H90 C84 0.959 . S
C91 N92 1.317 . S
C91 N93 1.348 . S
C91 C94 1.485 . S
N92 C91 1.317 . S
N92 N96 1.370 . S
N93 C91 1.348 . S
N93 C95 1.346 . S
C94 C91 1.485 . S
C94 H98 0.960 . S
C94 H99 0.961 . S
C94 H100 0.960 . S
C95 N93 1.346 . S
C95 N96 1.307 . S
C95 C97 1.486 . S
N96 N92 1.370 . S
N96 C95 1.307 . S
C97 C95 1.486 . S
C97 H101 0.960 . S
C97 H102 0.960 . S
C97 H103 0.959 . S
H98 C94 0.960 . S
H99 C94 0.961 . S
H100 C94 0.960 . S
H101 C97 0.960 . S
H102 C97 0.960 . S
H103 C97 0.959 . S
C104 N105 1.317 . S
C104 N106 1.348 . S
C104 C107 1.485 . S
N105 C104 1.317 . S
N105 N109 1.370 . S
N106 C104 1.348 . S
N106 C108 1.346 . S
C107 C104 1.485 . S
C107 H111 0.960 . S
C107 H112 0.961 . S
C107 H113 0.960 . S
C108 N106 1.346 . S
C108 N109 1.307 . S
C108 C110 1.486 . S
N109 N105 1.370 . S
N109 C108 1.307 . S
C110 C108 1.486 . S
C110 H114 0.960 . S
C110 H115 0.960 . S
C110 H116 0.959 . S
H111 C107 0.960 . S
H112 C107 0.961 . S
H113 C107 0.960 . S
H114 C110 0.960 . S
H115 C110 0.960 . S
H116 C110 0.959 . S
C117 N118 1.317 . S
C117 N119 1.348 . S
C117 C120 1.485 . S
N118 C117 1.317 . S
N118 N122 1.370 . S
N119 C117 1.348 . S
N119 C121 1.346 . S
C120 C117 1.485 . S
C120 H124 0.960 . S
C120 H125 0.961 . S
C120 H126 0.960 . S
C121 N119 1.346 . S
C121 N122 1.307 . S
C121 C123 1.486 . S
N122 N118 1.370 . S
N122 C121 1.307 . S
C123 C121 1.486 . S
C123 H127 0.960 . S
C123 H128 0.960 . S
C123 H129 0.959 . S
H124 C120 0.960 . S
H125 C120 0.961 . S
H126 C120 0.960 . S
H127 C123 0.960 . S
H128 C123 0.960 . S
H129 C123 0.959 . S
C130 N131 1.317 . S
C130 N132 1.348 . S
C130 C133 1.437 1_556 S
N131 C130 1.317 . S
N131 N135 1.370 . S
N132 C130 1.348 . S
N132 C134 1.346 . S
C133 C130 1.437 1_554 S
C133 H137 0.997 . S
C133 H138 0.979 . S
C133 H139 0.958 . S
C134 N132 1.346 . S
C134 N135 1.307 . S
C134 C136 1.486 . S
N135 N131 1.370 . S
N135 C134 1.307 . S
C136 C134 1.486 . S
C136 H140 0.960 . S
C136 H141 0.960 . S
C136 H142 0.959 . S
H137 C133 0.997 . S
H138 C133 0.979 . S
H139 C133 0.958 . S
H140 C136 0.960 . S
H141 C136 0.960 . S
H142 C136 0.959 . S
C143 N144 1.317 . S
C143 N145 1.348 . S
C143 C146 1.485 . S
N144 C143 1.317 . S
N144 N148 1.370 . S
N145 C143 1.348 . S
N145 C147 1.346 . S
C146 C143 1.485 . S
C146 H150 0.960 . S
C146 H151 0.961 1_556 S
C146 H152 0.978 . S
C147 N145 1.346 . S
C147 N148 1.307 . S
C147 C149 1.486 . S
N148 N144 1.370 . S
N148 C147 1.307 . S
C149 C147 1.486 . S
C149 H153 0.960 . S
C149 H154 0.960 . S
C149 H155 0.959 . S
H150 C146 0.960 . S
H151 C146 0.961 1_554 S
H152 C146 0.978 . S
H153 C149 0.960 . S
H154 C149 0.960 . S
H155 C149 0.959 . S
C156 N157 1.317 . S
C156 N158 1.348 . S
C156 C159 1.485 . S
N157 C156 1.317 . S
N157 N161 1.370 . S
N158 C156 1.348 . S
N158 C160 1.346 . S
C159 C156 1.485 . S
C159 H163 0.960 . S
C159 H164 0.961 . S
C159 H165 0.960 . S
C160 N158 1.346 . S
C160 N161 1.307 . S
C160 C162 1.486 . S
N161 N157 1.370 . S
N161 C160 1.307 . S
C162 C160 1.486 . S
C162 H166 0.960 . S
C162 H167 0.960 . S
C162 H168 0.959 . S
H163 C159 0.960 . S
H164 C159 0.961 . S
H165 C159 0.960 . S
H166 C162 0.960 . S
H167 C162 0.960 . S
H168 C162 0.959 . S
C169 N170 1.317 . S
C169 N171 1.348 . S
C169 C172 1.485 . S
N170 C169 1.317 . S
N170 N174 1.370 . S
N171 C169 1.348 . S
N171 C173 1.346 . S
C172 C169 1.485 . S
C172 H176 0.960 . S
C172 H177 0.961 . S
C172 H178 0.960 . S
C173 N171 1.346 . S
C173 N174 1.307 . S
C173 C175 1.486 . S
N174 N170 1.370 . S
N174 C173 1.307 . S
C175 C173 1.486 . S
C175 H179 0.960 . S
C175 H180 0.960 . S
C175 H181 0.959 . S
H176 C172 0.960 . S
H177 C172 0.961 . S
H178 C172 0.960 . S
H179 C175 0.960 . S
H180 C175 0.960 . S
H181 C175 0.959 . S
C182 N183 1.317 . S
C182 N184 1.348 . S
C182 C185 1.485 . S
N183 C182 1.317 . S
N183 N187 1.370 . S
N184 C182 1.348 . S
N184 C186 1.346 . S
C185 C182 1.485 . S
C185 H189 0.960 . S
C185 H190 0.961 . S
C185 H191 0.960 . S
C186 N184 1.346 . S
C186 N187 1.307 . S
C186 C188 1.486 . S
N187 N183 1.370 . S
N187 C186 1.307 . S
C188 C186 1.486 . S
C188 H192 0.960 . S
C188 H193 0.960 . S
C188 H194 0.959 . S
H189 C185 0.960 . S
H190 C185 0.961 . S
H191 C185 0.960 . S
H192 C188 0.960 . S
H193 C188 0.960 . S
H194 C188 0.959 . S
C195 N196 1.317 . S
C195 N197 1.348 . S
C195 C198 1.485 . S
N196 C195 1.317 . S
N196 N200 1.370 . S
N197 C195 1.348 . S
N197 C199 1.346 . S
C198 C195 1.485 . S
C198 H202 0.960 . S
C198 H203 0.961 . S
C198 H204 0.960 . S
C199 N197 1.346 . S
C199 N200 1.307 . S
C199 C201 1.486 . S
N200 N196 1.370 . S
N200 C199 1.307 . S
C201 C199 1.486 . S
C201 H205 0.960 . S
C201 H206 0.960 . S
C201 H207 0.959 . S
H202 C198 0.960 . S
H203 C198 0.961 . S
H204 C198 0.960 . S
H205 C201 0.960 . S
H206 C201 0.960 . S
H207 C201 0.959 . S
C208 N209 1.317 . S
C208 N210 1.348 . S
C208 C211 1.485 . S
N209 C208 1.317 . S
N209 N213 1.370 . S
N210 C208 1.348 . S
N210 C212 1.346 . S
C211 C208 1.485 . S
C211 H215 0.960 . S
C211 H216 0.961 . S
C211 H217 0.960 . S
C212 N210 1.346 . S
C212 N213 1.307 . S
C212 C214 1.486 . S
N213 N209 1.370 . S
N213 C212 1.307 . S
C214 C212 1.486 . S
C214 H218 0.960 . S
C214 H219 0.960 . S
C214 H220 0.959 . S
H215 C211 0.960 . S
H216 C211 0.961 . S
H217 C211 0.960 . S
H218 C214 0.960 . S
H219 C214 0.960 . S
H220 C214 0.959 . S
C221 N222 1.317 . S
C221 N223 1.348 . S
C221 C224 1.485 . S
N222 C221 1.317 . S
N222 N226 1.370 . S
N223 C221 1.348 . S
N223 C225 1.346 . S
C224 C221 1.485 . S
C224 H228 0.960 . S
C224 H229 0.961 . S
C224 H230 0.960 . S
C225 N223 1.346 . S
C225 N226 1.307 . S
C225 C227 1.486 . S
N226 N222 1.370 . S
N226 C225 1.307 . S
C227 C225 1.486 . S
C227 H231 0.960 . S
C227 H232 0.960 . S
C227 H233 0.959 . S
H228 C224 0.960 . S
H229 C224 0.961 . S
H230 C224 0.960 . S
H231 C227 0.960 . S
H232 C227 0.960 . S
H233 C227 0.959 . S
C234 Eu235 2.835 1_565 S
C234 C236 1.500 . S
C234 O254 1.257 . S
C234 O255 1.260 1_565 S
Eu235 C234 2.835 1_545 S
Eu235 O254 2.473 1_545 S
Eu235 O255 2.480 . S
Eu235 O256 2.430 . S
Eu235 O257 2.670 . S
Eu235 O258 2.394 1_545 S
Eu235 O263 2.355 1_545 S
Eu235 O265 2.374 . S
C236 C234 1.500 . S
C236 C237 1.377 . S
C236 C241 1.377 . S
C237 C236 1.377 . S
C237 C238 1.395 . S
C237 H266 0.931 1_565 S
C238 C237 1.395 . S
C238 C239 1.383 . S
C238 H267 0.931 . S
C239 C238 1.383 . S
C239 C240 1.394 . S
C240 C239 1.394 . S
C240 C241 1.378 . S
C240 H268 0.931 . S
C241 C236 1.377 . S
C241 C240 1.378 . S
C241 H269 0.931 . S
C242 O256 1.259 . S
C242 O257 1.270 . S
C243 O258 1.251 . S
C243 O259 1.251 . S
C244 Eu245 2.835 1_545 S
C244 C246 1.500 . S
C244 O260 1.257 . S
C244 O261 1.260 1_545 S
Eu245 C244 2.835 1_565 S
Eu245 O257 2.355 1_566 S
Eu245 O259 2.374 1_556 S
Eu245 O260 2.473 1_565 S
Eu245 O261 2.480 . S
Eu245 O262 2.430 . S
Eu245 O263 2.670 1_556 S
Eu245 O264 2.394 1_565 S
C246 C244 1.500 . S
C246 C247 1.377 . S
C246 C251 1.377 . S
C247 C246 1.377 . S
C247 C248 1.395 . S
C247 H270 0.885 1_545 S
C248 C247 1.395 . S
C248 C249 1.383 . S
C248 H271 0.931 . S
C249 C248 1.383 . S
C249 C250 1.394 . S
C250 C249 1.394 . S
C250 C251 1.378 . S
C250 H272 0.931 . S
C251 C246 1.377 . S
C251 C250 1.378 . S
C251 H273 0.931 . S
C252 O262 1.259 1_554 S
C252 O263 1.270 . S
C253 O264 1.251 1_554 S
C253 O265 1.251 . S
O254 C234 1.257 . S
O254 Eu235 2.473 1_565 S
O255 C234 1.260 1_545 S
O255 Eu235 2.480 . S
O256 Eu235 2.430 . S
O256 C242 1.259 . S
O257 Eu235 2.670 . S
O257 C242 1.270 . S
O257 Eu245 2.355 1_544 S
O258 Eu235 2.394 1_565 S
O258 C243 1.251 . S
O259 C243 1.251 . S
O259 Eu245 2.374 1_554 S
O260 C244 1.257 . S
O260 Eu245 2.473 1_545 S
O261 C244 1.260 1_565 S
O261 Eu245 2.480 . S
O262 Eu245 2.430 . S
O262 C252 1.259 1_556 S
O263 Eu235 2.355 1_565 S
O263 Eu245 2.670 1_554 S
O263 C252 1.270 . S
O264 Eu245 2.394 1_545 S
O264 C253 1.251 1_556 S
O265 Eu235 2.374 . S
O265 C253 1.251 . S
H266 C237 0.931 1_545 S
H267 C238 0.931 . S
H268 C240 0.931 . S
H269 C241 0.931 . S
H270 C247 0.885 1_565 S
H271 C248 0.931 . S
H272 C250 0.931 . S
H273 C251 0.931 . S
C274 Eu275 2.835 1_455 S
C274 C276 1.500 . S
C274 O294 1.257 . S
C274 O295 1.260 1_455 S
Eu275 C274 2.835 1_655 S
Eu275 O294 2.473 1_655 S
Eu275 O295 2.480 . S
Eu275 O296 2.430 . S
Eu275 O297 2.670 1_554 S
Eu275 O298 2.394 1_655 S
Eu275 O303 2.355 1_655 S
Eu275 O305 2.374 . S
C276 C274 1.500 . S
C276 C277 1.377 . S
C276 C281 1.377 . S
C277 C276 1.377 . S
C277 C278 1.395 . S
C277 H306 0.931 1_455 S
C278 C277 1.395 . S
C278 C279 1.383 . S
C278 H307 0.931 . S
C279 C278 1.383 . S
C279 C280 1.394 . S
C280 C279 1.394 . S
C280 C281 1.378 . S
C280 H308 0.931 . S
C281 C276 1.377 . S
C281 C280 1.378 . S
C281 H309 0.931 . S
C282 O296 1.259 . S
C282 O297 1.270 1_554 S
C283 O298 1.251 . S
C283 O299 1.251 . S
C284 Eu285 2.835 . S
C284 C286 1.500 1_455 S
C284 O300 1.257 1_455 S
C284 O301 1.260 . S
Eu285 C284 2.835 . S
Eu285 O297 2.355 1_455 S
Eu285 O299 2.374 1_556 S
Eu285 O300 2.473 1_455 S
Eu285 O301 2.480 . S
Eu285 O302 2.430 . S
Eu285 O303 2.670 1_556 S
Eu285 O304 2.394 1_455 S
C286 C284 1.500 1_655 S
C286 C287 1.377 1_655 S
C286 C291 1.377 . S
C287 C286 1.377 1_455 S
C287 C288 1.395 . S
C287 H310 0.931 . S
C288 C287 1.395 . S
C288 C289 1.383 1_455 S
C288 H311 0.931 . S
C289 C288 1.383 1_655 S
C289 C290 1.394 . S
C290 C289 1.394 . S
C290 C291 1.378 . S
C290 H312 0.931 . S
C291 C286 1.377 . S
C291 C290 1.378 . S
C291 H313 0.931 . S
C292 O302 1.259 1_554 S
C292 O303 1.270 . S
C293 O304 1.251 . S
C293 O305 1.251 1_556 S
O294 C274 1.257 . S
O294 Eu275 2.473 1_455 S
O295 C274 1.260 1_655 S
O295 Eu275 2.480 . S
O296 Eu275 2.430 . S
O296 C282 1.259 . S
O297 Eu275 2.670 1_556 S
O297 C282 1.270 1_556 S
O297 Eu285 2.355 1_655 S
O298 Eu275 2.394 1_455 S
O298 C283 1.251 . S
O299 C283 1.251 . S
O299 Eu285 2.374 1_554 S
O300 C284 1.257 1_655 S
O300 Eu285 2.473 1_655 S
O301 C284 1.260 . S
O301 Eu285 2.480 . S
O302 Eu285 2.430 . S
O302 C292 1.259 1_556 S
O303 Eu275 2.355 1_455 S
O303 Eu285 2.670 1_554 S
O303 C292 1.270 . S
O304 Eu285 2.394 1_655 S
O304 C293 1.251 . S
O305 Eu275 2.374 . S
O305 C293 1.251 1_554 S
H306 C277 0.931 1_655 S
H307 C278 0.931 . S
H308 C280 0.931 . S
H309 C281 0.931 . S
H310 C287 0.931 . S
H311 C288 0.931 . S
H312 C290 0.931 . S
H313 C291 0.931 . S
C314 Eu315 2.835 . S
C314 C316 1.500 . S
C314 O334 1.257 . S
C314 O335 1.260 . S
Eu315 C314 2.835 . S
Eu315 O334 2.473 . S
Eu315 O335 2.480 . S
Eu315 O336 2.430 1_556 S
Eu315 O337 2.670 1_556 S
Eu315 O338 2.395 . S
Eu315 O343 2.355 1_556 S
Eu315 O345 2.374 1_556 S
C316 C314 1.500 . S
C316 C317 1.377 . S
C316 C321 1.377 . S
C317 C316 1.377 . S
C317 C318 1.395 . S
C317 H346 0.931 . S
C318 C317 1.395 . S
C318 C319 1.383 . S
C318 H347 0.931 . S
C319 C318 1.383 . S
C319 C320 1.394 . S
C320 C319 1.394 . S
C320 C321 1.378 . S
C320 H348 0.931 . S
C321 C316 1.377 . S
C321 C320 1.378 . S
C321 H349 0.931 . S
C322 O336 1.259 . S
C322 O337 1.270 . S
C323 O338 1.227 1_554 S
C323 O339 1.251 . S
C324 Eu325 2.835 . S
C324 C326 1.500 . S
C324 O340 1.257 . S
C324 O341 1.260 . S
Eu325 C324 2.835 . S
Eu325 O337 2.355 . S
Eu325 O339 2.374 . S
Eu325 O340 2.473 . S
Eu325 O341 2.480 . S
Eu325 O342 2.430 . S
Eu325 O343 2.670 . S
Eu325 O344 2.394 . S
C326 C324 1.500 . S
C326 C327 1.377 . S
C326 C331 1.377 . S
C327 C326 1.377 . S
C327 C328 1.395 . S
C327 H350 0.931 . S
C328 C327 1.395 . S
C328 C329 1.383 . S
C328 H351 0.931 . S
C329 C328 1.383 . S
C329 C330 1.394 . S
C330 C329 1.394 . S
C330 C331 1.378 . S
C330 H352 0.931 . S
C331 C326 1.377 . S
C331 C330 1.378 . S
C331 H353 0.931 . S
C332 O342 1.259 . S
C332 O343 1.270 . S
C333 O344 1.251 . S
C333 O345 1.251 . S
O334 C314 1.257 . S
O334 Eu315 2.473 . S
O335 C314 1.260 . S
O335 Eu315 2.480 . S
O336 Eu315 2.430 1_554 S
O336 C322 1.259 . S
O337 Eu315 2.670 1_554 S
O337 C322 1.270 . S
O337 Eu325 2.355 . S
O338 Eu315 2.395 . S
O338 C323 1.227 1_556 S
O339 C323 1.251 . S
O339 Eu325 2.374 . S
O340 C324 1.257 . S
O340 Eu325 2.473 . S
O341 C324 1.260 . S
O341 Eu325 2.480 . S
O342 Eu325 2.430 . S
O342 C332 1.259 . S
O343 Eu315 2.355 1_554 S
O343 Eu325 2.670 . S
O343 C332 1.270 . S
O344 Eu325 2.394 . S
O344 C333 1.251 . S
O345 Eu315 2.374 1_554 S
O345 C333 1.251 . S
H346 C317 0.931 . S
H347 C318 0.931 . S
H348 C320 0.931 . S
H349 C321 0.931 . S
H350 C327 0.931 . S
H351 C328 0.931 . S
H352 C330 0.931 . S
H353 C331 0.931 . S
C354 Eu355 2.835 . S
C354 C356 1.500 . S
C354 O374 1.257 . S
C354 O375 1.260 . S
Eu355 C354 2.835 . S
Eu355 O374 2.473 . S
Eu355 O375 2.480 . S
Eu355 O376 2.430 . S
Eu355 O377 2.670 . S
Eu355 O378 2.394 . S
Eu355 O383 2.355 . S
Eu355 O385 2.374 . S
C356 C354 1.500 . S
C356 C357 1.377 . S
C356 C361 1.377 . S
C357 C356 1.377 . S
C357 C358 1.395 . S
C357 H386 0.931 . S
C358 C357 1.395 . S
C358 C359 1.383 . S
C358 H387 0.931 . S
C359 C358 1.383 . S
C359 C360 1.394 . S
C360 C359 1.394 . S
C360 C361 1.378 . S
C360 H388 0.931 . S
C361 C356 1.377 . S
C361 C360 1.378 . S
C361 H389 0.931 . S
C362 O376 1.259 . S
C362 O377 1.270 . S
C363 O378 1.251 . S
C363 O379 1.251 . S
C364 Eu365 2.835 . S
C364 C366 1.500 . S
C364 O380 1.257 . S
C364 O381 1.260 . S
Eu365 C364 2.835 . S
Eu365 O377 2.355 . S
Eu365 O379 2.374 . S
Eu365 O380 2.473 . S
Eu365 O381 2.480 . S
Eu365 O382 2.430 . S
Eu365 O383 2.670 . S
Eu365 O384 2.394 . S
C366 C364 1.500 . S
C366 C367 1.377 . S
C366 C371 1.377 . S
C367 C366 1.377 . S
C367 C368 1.395 . S
C367 H390 0.931 . S
C368 C367 1.395 . S
C368 C369 1.383 . S
C368 H391 0.931 . S
C369 C368 1.383 . S
C369 C370 1.394 . S
C370 C369 1.394 . S
C370 C371 1.378 . S
C370 H392 0.931 . S
C371 C366 1.377 . S
C371 C370 1.378 . S
C371 H393 0.931 . S
C372 O382 1.259 . S
C372 O383 1.270 . S
C373 O384 1.251 . S
C373 O385 1.251 . S
O374 C354 1.257 . S
O374 Eu355 2.473 . S
O375 C354 1.260 . S
O375 Eu355 2.480 . S
O376 Eu355 2.430 . S
O376 C362 1.259 . S
O377 Eu355 2.670 . S
O377 C362 1.270 . S
O377 Eu365 2.355 . S
O378 Eu355 2.394 . S
O378 C363 1.251 . S
O379 C363 1.251 . S
O379 Eu365 2.374 . S
O380 C364 1.257 . S
O380 Eu365 2.473 . S
O381 C364 1.260 . S
O381 Eu365 2.480 . S
O382 Eu365 2.430 . S
O382 C372 1.259 . S
O383 Eu355 2.355 . S
O383 Eu365 2.670 . S
O383 C372 1.270 . S
O384 Eu365 2.394 . S
O384 C373 1.251 . S
O385 Eu355 2.374 . S
O385 C373 1.251 . S
H386 C357 0.931 . S
H387 C358 0.931 . S
H388 C360 0.931 . S
H389 C361 0.931 . S
H390 C367 0.931 . S
H391 C368 0.931 . S
H392 C370 0.931 . S
H393 C371 0.931 . S
C394 Eu395 2.835 . S
C394 C396 1.500 . S
C394 O414 1.257 . S
C394 O415 1.260 . S
Eu395 C394 2.835 . S
Eu395 O414 2.473 . S
Eu395 O415 2.480 . S
Eu395 O416 2.430 . S
Eu395 O417 2.670 . S
Eu395 O418 2.394 . S
Eu395 O423 2.355 . S
Eu395 O425 2.374 . S
C396 C394 1.500 . S
C396 C397 1.377 . S
C396 C401 1.377 . S
C397 C396 1.377 . S
C397 C398 1.395 . S
C397 H426 0.931 . S
C398 C397 1.395 . S
C398 C399 1.383 . S
C398 H427 0.931 . S
C399 C398 1.383 . S
C399 C400 1.394 . S
C400 C399 1.394 . S
C400 C401 1.378 . S
C400 H428 0.931 . S
C401 C396 1.377 . S
C401 C400 1.378 . S
C401 H429 0.931 . S
C402 O416 1.259 . S
C402 O417 1.270 . S
C403 O418 1.251 . S
C403 O419 1.251 . S
C404 Eu405 2.835 . S
C404 C406 1.500 . S
C404 O420 1.257 . S
C404 O421 1.260 . S
Eu405 C404 2.835 . S
Eu405 O417 2.355 . S
Eu405 O419 2.374 . S
Eu405 O420 2.473 . S
Eu405 O421 2.480 . S
Eu405 O422 2.430 . S
Eu405 O423 2.670 . S
Eu405 O424 2.394 . S
C406 C404 1.500 . S
C406 C407 1.377 . S
C406 C411 1.377 . S
C407 C406 1.377 . S
C407 C408 1.395 . S
C407 H430 0.931 . S
C408 C407 1.395 . S
C408 C409 1.383 . S
C408 H431 0.931 . S
C409 C408 1.383 . S
C409 C410 1.394 . S
C410 C409 1.394 . S
C410 C411 1.378 . S
C410 H432 0.931 . S
C411 C406 1.377 . S
C411 C410 1.378 . S
C411 H433 0.931 . S
C412 O422 1.259 . S
C412 O423 1.270 . S
C413 O424 1.251 . S
C413 O425 1.251 . S
O414 C394 1.257 . S
O414 Eu395 2.473 . S
O415 C394 1.260 . S
O415 Eu395 2.480 . S
O416 Eu395 2.430 . S
O416 C402 1.259 . S
O417 Eu395 2.670 . S
O417 C402 1.270 . S
O417 Eu405 2.355 . S
O418 Eu395 2.394 . S
O418 C403 1.251 . S
O419 C403 1.251 . S
O419 Eu405 2.374 . S
O420 C404 1.257 . S
O420 Eu405 2.473 . S
O421 C404 1.260 . S
O421 Eu405 2.480 . S
O422 Eu405 2.430 . S
O422 C412 1.259 . S
O423 Eu395 2.355 . S
O423 Eu405 2.670 . S
O423 C412 1.270 . S
O424 Eu405 2.394 . S
O424 C413 1.251 . S
O425 Eu395 2.374 . S
O425 C413 1.251 . S
H426 C397 0.931 . S
H427 C398 0.931 . S
H428 C400 0.931 . S
H429 C401 0.931 . S
H430 C407 0.931 . S
H431 C408 0.931 . S
H432 C410 0.931 . S
H433 C411 0.931 . S
C434 Eu435 2.835 . S
C434 C436 1.500 . S
C434 O454 1.257 . S
C434 O455 1.260 . S
Eu435 C434 2.835 . S
Eu435 O454 2.473 . S
Eu435 O455 2.480 . S
Eu435 O456 2.430 . S
Eu435 O457 2.670 . S
Eu435 O458 2.394 . S
Eu435 O463 2.355 . S
Eu435 O465 2.374 . S
C436 C434 1.500 . S
C436 C437 1.377 . S
C436 C441 1.377 . S
C437 C436 1.377 . S
C437 C438 1.395 . S
C437 H466 0.931 . S
C438 C437 1.395 . S
C438 C439 1.383 . S
C438 H467 0.931 . S
C439 C438 1.383 . S
C439 C440 1.394 . S
C440 C439 1.394 . S
C440 C441 1.378 . S
C440 H468 0.931 . S
C441 C436 1.377 . S
C441 C440 1.378 . S
C441 H469 0.931 . S
C442 O456 1.259 . S
C442 O457 1.270 . S
C443 O458 1.251 . S
C443 O459 1.251 . S
C444 Eu445 2.835 . S
C444 C446 1.500 . S
C444 O460 1.257 . S
C444 O461 1.260 . S
Eu445 C444 2.835 . S
Eu445 O457 2.355 . S
Eu445 O459 2.374 . S
Eu445 O460 2.473 . S
Eu445 O461 2.480 . S
Eu445 O462 2.430 . S
Eu445 O463 2.670 . S
Eu445 O464 2.394 . S
C446 C444 1.500 . S
C446 C447 1.377 . S
C446 C451 1.377 . S
C447 C446 1.377 . S
C447 C448 1.395 . S
C447 H470 0.931 . S
C448 C447 1.395 . S
C448 C449 1.383 . S
C448 H471 0.931 . S
C449 C448 1.383 . S
C449 C450 1.394 . S
C450 C449 1.394 . S
C450 C451 1.378 . S
C450 H472 0.931 . S
C451 C446 1.377 . S
C451 C450 1.378 . S
C451 H473 0.931 . S
C452 O462 1.259 . S
C452 O463 1.270 . S
C453 O464 1.251 . S
C453 O465 1.251 . S
O454 C434 1.257 . S
O454 Eu435 2.473 . S
O455 C434 1.260 . S
O455 Eu435 2.480 . S
O456 Eu435 2.430 . S
O456 C442 1.259 . S
O457 Eu435 2.670 . S
O457 C442 1.270 . S
O457 Eu445 2.355 . S
O458 Eu435 2.394 . S
O458 C443 1.251 . S
O459 C443 1.251 . S
O459 Eu445 2.374 . S
O460 C444 1.257 . S
O460 Eu445 2.473 . S
O461 C444 1.260 . S
O461 Eu445 2.480 . S
O462 Eu445 2.430 . S
O462 C452 1.259 . S
O463 Eu435 2.355 . S
O463 Eu445 2.670 . S
O463 C452 1.270 . S
O464 Eu445 2.394 . S
O464 C453 1.251 . S
O465 Eu435 2.374 . S
O465 C453 1.251 . S
H466 C437 0.931 . S
H467 C438 0.931 . S
H468 C440 0.931 . S
H469 C441 0.931 . S
H470 C447 0.931 . S
H471 C448 0.931 . S
H472 C450 0.931 . S
H473 C451 0.931 . S
C474 Eu475 2.835 . S
C474 C476 1.500 . S
C474 O494 1.257 . S
C474 O495 1.260 . S
Eu475 C474 2.835 . S
Eu475 O494 2.473 . S
Eu475 O495 2.480 . S
Eu475 O496 2.430 . S
Eu475 O497 2.670 . S
Eu475 O498 2.394 . S
Eu475 O503 2.355 . S
Eu475 O505 2.374 . S
C476 C474 1.500 . S
C476 C477 1.377 . S
C476 C481 1.377 . S
C477 C476 1.377 . S
C477 C478 1.395 . S
C477 H506 0.931 . S
C478 C477 1.395 . S
C478 C479 1.383 . S
C478 H507 0.931 . S
C479 C478 1.383 . S
C479 C480 1.394 . S
C480 C479 1.394 . S
C480 C481 1.378 . S
C480 H508 0.931 . S
C481 C476 1.377 . S
C481 C480 1.378 . S
C481 H509 0.931 . S
C482 O496 1.259 . S
C482 O497 1.270 . S
C483 O498 1.251 . S
C483 O499 1.251 . S
C484 Eu485 2.835 . S
C484 C486 1.500 . S
C484 O500 1.257 . S
C484 O501 1.260 . S
Eu485 C484 2.835 . S
Eu485 O497 2.355 . S
Eu485 O499 2.374 . S
Eu485 O500 2.473 . S
Eu485 O501 2.480 . S
Eu485 O502 2.430 . S
Eu485 O503 2.670 . S
Eu485 O504 2.394 . S
C486 C484 1.500 . S
C486 C487 1.377 . S
C486 C491 1.377 . S
C487 C486 1.377 . S
C487 C488 1.395 . S
C487 H510 0.931 . S
C488 C487 1.395 . S
C488 C489 1.383 . S
C488 H511 0.931 . S
C489 C488 1.383 . S
C489 C490 1.394 . S
C490 C489 1.394 . S
C490 C491 1.378 . S
C490 H512 0.931 . S
C491 C486 1.377 . S
C491 C490 1.378 . S
C491 H513 0.931 . S
C492 O502 1.259 . S
C492 O503 1.270 . S
C493 O504 1.251 . S
C493 O505 1.251 . S
O494 C474 1.257 . S
O494 Eu475 2.473 . S
O495 C474 1.260 . S
O495 Eu475 2.480 . S
O496 Eu475 2.430 . S
O496 C482 1.259 . S
O497 Eu475 2.670 . S
O497 C482 1.270 . S
O497 Eu485 2.355 . S
O498 Eu475 2.394 . S
O498 C483 1.251 . S
O499 C483 1.251 . S
O499 Eu485 2.374 . S
O500 C484 1.257 . S
O500 Eu485 2.473 . S
O501 C484 1.260 . S
O501 Eu485 2.480 . S
O502 Eu485 2.430 . S
O502 C492 1.259 . S
O503 Eu475 2.355 . S
O503 Eu485 2.670 . S
O503 C492 1.270 . S
O504 Eu485 2.394 . S
O504 C493 1.251 . S
O505 Eu475 2.374 . S
O505 C493 1.251 . S
H506 C477 0.931 . S
H507 C478 0.931 . S
H508 C480 0.931 . S
H509 C481 0.931 . S
H510 C487 0.931 . S
H511 C488 0.931 . S
H512 C490 0.931 . S
H513 C491 0.931 . S
C514 Eu515 2.835 . S
C514 C516 1.500 . S
C514 O534 1.257 . S
C514 O535 1.260 . S
Eu515 C514 2.835 . S
Eu515 O534 2.473 . S
Eu515 O535 2.480 . S
Eu515 O536 2.430 . S
Eu515 O537 2.670 . S
Eu515 O538 2.394 . S
Eu515 O543 2.355 . S
Eu515 O545 2.374 . S
C516 C514 1.500 . S
C516 C517 1.377 . S
C516 C521 1.377 . S
C517 C516 1.377 . S
C517 C518 1.395 . S
C517 H546 0.931 . S
C518 C517 1.395 . S
C518 C519 1.383 . S
C518 H547 0.931 . S
C519 C518 1.383 . S
C519 C520 1.394 . S
C520 C519 1.394 . S
C520 C521 1.378 . S
C520 H548 0.931 . S
C521 C516 1.377 . S
C521 C520 1.378 . S
C521 H549 0.931 . S
C522 O536 1.259 . S
C522 O537 1.270 . S
C523 O538 1.251 . S
C523 O539 1.251 . S
C524 Eu525 2.835 . S
C524 C526 1.500 . S
C524 O540 1.257 . S
C524 O541 1.260 . S
Eu525 C524 2.835 . S
Eu525 O537 2.355 . S
Eu525 O539 2.374 . S
Eu525 O540 2.473 . S
Eu525 O541 2.480 . S
Eu525 O542 2.430 . S
Eu525 O543 2.670 . S
Eu525 O544 2.394 . S
C526 C524 1.500 . S
C526 C527 1.377 . S
C526 C531 1.377 . S
C527 C526 1.377 . S
C527 C528 1.395 . S
C527 H550 0.931 . S
C528 C527 1.395 . S
C528 C529 1.383 . S
C528 H551 0.931 . S
C529 C528 1.383 . S
C529 C530 1.394 . S
C530 C529 1.394 . S
C530 C531 1.378 . S
C530 H552 0.931 . S
C531 C526 1.377 . S
C531 C530 1.378 . S
C531 H553 0.931 . S
C532 O542 1.259 . S
C532 O543 1.270 . S
C533 O544 1.251 . S
C533 O545 1.251 . S
O534 C514 1.257 . S
O534 Eu515 2.473 . S
O535 C514 1.260 . S
O535 Eu515 2.480 . S
O536 Eu515 2.430 . S
O536 C522 1.259 . S
O537 Eu515 2.670 . S
O537 C522 1.270 . S
O537 Eu525 2.355 . S
O538 Eu515 2.394 . S
O538 C523 1.251 . S
O539 C523 1.251 . S
O539 Eu525 2.374 . S
O540 C524 1.257 . S
O540 Eu525 2.473 . S
O541 C524 1.260 . S
O541 Eu525 2.480 . S
O542 Eu525 2.430 . S
O542 C532 1.259 . S
O543 Eu515 2.355 . S
O543 Eu525 2.670 . S
O543 C532 1.270 . S
O544 Eu525 2.394 . S
O544 C533 1.251 . S
O545 Eu515 2.374 . S
O545 C533 1.251 . S
H546 C517 0.931 . S
H547 C518 0.931 . S
H548 C520 0.931 . S
H549 C521 0.931 . S
H550 C527 0.931 . S
H551 C528 0.931 . S
H552 C530 0.931 . S
H553 C531 0.931 . S
C554 Eu555 2.835 . S
C554 C556 1.500 . S
C554 O574 1.257 . S
C554 O575 1.260 . S
Eu555 C554 2.835 . S
Eu555 O574 2.473 . S
Eu555 O575 2.480 . S
Eu555 O576 2.430 . S
Eu555 O577 2.670 . S
Eu555 O578 2.394 . S
Eu555 O583 2.355 . S
Eu555 O585 2.374 . S
C556 C554 1.500 . S
C556 C557 1.377 . S
C556 C561 1.377 . S
C557 C556 1.377 . S
C557 C558 1.395 . S
C557 H586 0.931 . S
C558 C557 1.395 . S
C558 C559 1.383 . S
C558 H587 0.931 . S
C559 C558 1.383 . S
C559 C560 1.394 . S
C560 C559 1.394 . S
C560 C561 1.378 . S
C560 H588 0.931 . S
C561 C556 1.377 . S
C561 C560 1.378 . S
C561 H589 0.931 . S
C562 O576 1.259 . S
C562 O577 1.270 . S
C563 O578 1.251 . S
C563 O579 1.251 . S
C564 Eu565 2.835 . S
C564 C566 1.500 . S
C564 O580 1.257 . S
C564 O581 1.260 . S
Eu565 C564 2.835 . S
Eu565 O577 2.355 . S
Eu565 O579 2.374 . S
Eu565 O580 2.473 . S
Eu565 O581 2.480 . S
Eu565 O582 2.430 . S
Eu565 O583 2.670 . S
Eu565 O584 2.394 . S
C566 C564 1.500 . S
C566 C567 1.377 . S
C566 C571 1.377 . S
C567 C566 1.377 . S
C567 C568 1.395 . S
C567 H590 0.931 . S
C568 C567 1.395 . S
C568 C569 1.383 . S
C568 H591 0.931 . S
C569 C568 1.383 . S
C569 C570 1.394 . S
C570 C569 1.394 . S
C570 C571 1.378 . S
C570 H592 0.931 . S
C571 C566 1.377 . S
C571 C570 1.378 . S
C571 H593 0.931 . S
C572 O582 1.259 . S
C572 O583 1.270 . S
C573 O584 1.251 . S
C573 O585 1.251 . S
O574 C554 1.257 . S
O574 Eu555 2.473 . S
O575 C554 1.260 . S
O575 Eu555 2.480 . S
O576 Eu555 2.430 . S
O576 C562 1.259 . S
O577 Eu555 2.670 . S
O577 C562 1.270 . S
O577 Eu565 2.355 . S
O578 Eu555 2.394 . S
O578 C563 1.251 . S
O579 C563 1.251 . S
O579 Eu565 2.374 . S
O580 C564 1.257 . S
O580 Eu565 2.473 . S
O581 C564 1.260 . S
O581 Eu565 2.480 . S
O582 Eu565 2.430 . S
O582 C572 1.259 . S
O583 Eu555 2.355 . S
O583 Eu565 2.670 . S
O583 C572 1.270 . S
O584 Eu565 2.394 . S
O584 C573 1.251 . S
O585 Eu555 2.374 . S
O585 C573 1.251 . S
H586 C557 0.931 . S
H587 C558 0.931 . S
H588 C560 0.931 . S
H589 C561 0.931 . S
H590 C567 0.931 . S
H591 C568 0.931 . S
H592 C570 0.931 . S
H593 C571 0.931 . S
H594 C612 0.951 . S
H595 C614 0.951 . S
H596 C616 0.950 . S
H597 C617 0.950 . S
H598 C619 0.950 . S
H599 C622 0.950 . S
H600 C623 0.950 . S
H601 C625 0.950 . S
H602 C626 0.941 1_556 S
H603 C627 0.951 . S
H604 C629 0.951 . S
H605 C631 0.950 . S
H606 C632 0.950 . S
H607 C634 0.950 . S
H608 C637 0.950 . S
H609 C638 0.950 . S
H610 C640 0.950 . S
H611 C641 0.950 . S
C612 H594 0.951 . S
C612 C613 1.366 . S
C612 C614 1.388 . S
C613 C612 1.366 . S
C613 C617 1.385 . S
C614 H595 0.951 . S
C614 C612 1.388 . S
C614 C615 1.366 . S
C615 C614 1.366 . S
C615 C616 1.414 . S
C615 C618 1.499 . S
C616 H596 0.950 . S
C616 C615 1.414 . S
C616 C617 1.374 . S
C617 H597 0.950 . S
C617 C613 1.385 . S
C617 C616 1.374 . S
C618 C615 1.499 . S
C618 C619 1.373 . S
C618 C620 1.389 . S
C619 H598 0.950 . S
C619 C618 1.373 . S
C619 C635 1.377 . S
C620 C618 1.389 . S
C620 C621 1.524 . S
C620 C634 1.377 . S
C621 C620 1.524 . S
C621 C622 1.397 . S
C621 C626 1.363 . S
C622 H599 0.950 . S
C622 C621 1.397 . S
C622 C623 1.334 . S
C623 H600 0.950 . S
C623 C622 1.334 . S
C623 C624 1.287 1_554 S
C624 C623 1.287 1_556 S
C624 C625 1.524 . S
C624 H643 0.913 . S
C625 H601 0.950 . S
C625 C624 1.524 . S
C625 C626 1.415 1_556 S
C626 H602 0.941 1_554 S
C626 C621 1.363 . S
C626 C625 1.415 1_554 S
C627 H603 0.951 . S
C627 C628 1.366 . S
C627 C629 1.388 . S
C628 C627 1.366 . S
C628 C632 1.385 . S
C629 H604 0.951 . S
C629 C627 1.388 . S
C629 C630 1.366 . S
C630 C629 1.366 . S
C630 C631 1.414 . S
C630 C633 1.499 . S
C631 H605 0.950 . S
C631 C630 1.414 . S
C631 C632 1.374 . S
C632 H606 0.950 . S
C632 C628 1.385 . S
C632 C631 1.374 . S
C633 C630 1.499 . S
C633 C634 1.373 . S
C633 C635 1.389 . S
C634 H607 0.950 . S
C634 C620 1.377 . S
C634 C633 1.373 . S
C635 C619 1.377 . S
C635 C633 1.389 . S
C635 C636 1.524 . S
C636 C635 1.524 . S
C636 C637 1.397 . S
C636 C641 1.363 . S
C637 H608 0.950 . S
C637 C636 1.397 . S
C637 C638 1.334 . S
C638 H609 0.950 . S
C638 C637 1.334 . S
C638 C639 1.287 . S
C639 C638 1.287 . S
C639 C640 1.524 . S
C639 H642 0.999 . S
C640 H610 0.950 . S
C640 C639 1.524 . S
C640 C641 1.415 . S
C641 H611 0.950 . S
C641 C636 1.363 . S
C641 C640 1.415 . S
H642 C639 0.999 . S
H643 C624 0.913 . S
H644 C662 0.951 . S
H645 C664 0.951 . S
H646 C666 0.950 . S
H647 C667 0.950 . S
H648 C669 0.950 . S
H649 C672 0.950 . S
H650 C673 0.950 . S
H651 C675 0.950 . S
H652 C676 0.950 . S
H653 C677 0.951 . S
H654 C679 0.951 . S
H655 C681 0.950 . S
H656 C682 0.950 . S
H657 C684 0.950 . S
H658 C687 0.950 . S
H659 C688 0.950 . S
H660 C690 0.950 . S
H661 C691 0.950 . S
C662 H644 0.951 . S
C662 C663 1.366 . S
C662 C664 1.388 . S
C663 C662 1.366 . S
C663 C667 1.385 . S
C664 H645 0.951 . S
C664 C662 1.388 . S
C664 C665 1.366 . S
C665 C664 1.366 . S
C665 C666 1.414 . S
C665 C668 1.499 . S
C666 H646 0.950 . S
C666 C665 1.414 . S
C666 C667 1.374 . S
C667 H647 0.950 . S
C667 C663 1.385 . S
C667 C666 1.374 . S
C668 C665 1.499 . S
C668 C669 1.373 . S
C668 C670 1.389 . S
C669 H648 0.950 . S
C669 C668 1.373 . S
C669 C685 1.377 . S
C670 C668 1.389 . S
C670 C671 1.524 . S
C670 C684 1.377 . S
C671 C670 1.524 . S
C671 C672 1.397 . S
C671 C676 1.363 . S
C672 H649 0.950 . S
C672 C671 1.397 . S
C672 C673 1.334 . S
C673 H650 0.950 . S
C673 C672 1.334 . S
C673 C674 1.287 . S
C674 C673 1.287 . S
C674 C675 1.524 . S
C674 H693 0.913 . S
C675 H651 0.950 . S
C675 C674 1.524 . S
C675 C676 1.415 . S
C676 H652 0.950 . S
C676 C671 1.363 . S
C676 C675 1.415 . S
C677 H653 0.951 . S
C677 C678 1.366 . S
C677 C679 1.388 . S
C678 C677 1.366 . S
C678 C682 1.385 . S
C679 H654 0.951 . S
C679 C677 1.388 . S
C679 C680 1.366 . S
C680 C679 1.366 . S
C680 C681 1.414 . S
C680 C683 1.499 . S
C681 H655 0.950 . S
C681 C680 1.414 . S
C681 C682 1.374 . S
C682 H656 0.950 . S
C682 C678 1.385 . S
C682 C681 1.374 . S
C683 C680 1.499 . S
C683 C684 1.373 . S
C683 C685 1.389 . S
C684 H657 0.950 . S
C684 C670 1.377 . S
C684 C683 1.373 . S
C685 C669 1.377 . S
C685 C683 1.389 . S
C685 C686 1.524 . S
C686 C685 1.524 . S
C686 C687 1.397 . S
C686 C691 1.363 . S
C687 H658 0.950 . S
C687 C686 1.397 . S
C687 C688 1.334 . S
C688 H659 0.950 . S
C688 C687 1.334 . S
C688 C689 1.287 . S
C689 C688 1.287 . S
C689 C690 1.524 1_554 S
C689 H692 0.999 1_554 S
C690 H660 0.950 . S
C690 C689 1.524 1_556 S
C690 C691 1.415 1_556 S
C691 H661 0.950 . S
C691 C686 1.363 . S
C691 C690 1.415 1_554 S
H692 C689 0.999 1_556 S
H693 C674 0.913 . S
H694 C712 0.951 . S
H695 C714 0.951 . S
H696 C716 0.950 . S
H697 C717 0.950 . S
H698 C719 0.950 . S
H699 C722 0.950 . S
H700 C723 0.950 . S
H701 C725 0.950 . S
H702 C726 0.950 . S
H703 C727 0.951 . S
H704 C729 0.951 . S
H705 C731 0.950 . S
H706 C732 0.950 . S
H707 C734 0.950 . S
H708 C737 0.950 . S
H709 C738 0.950 . S
H710 C740 0.950 . S
H711 C741 0.950 . S
C712 H694 0.951 . S
C712 C713 1.366 . S
C712 C714 1.388 . S
C713 C712 1.366 . S
C713 C717 1.385 . S
C714 H695 0.951 . S
C714 C712 1.388 . S
C714 C715 1.366 . S
C715 C714 1.366 . S
C715 C716 1.414 . S
C715 C718 1.499 . S
C716 H696 0.950 . S
C716 C715 1.414 . S
C716 C717 1.374 . S
C717 H697 0.950 . S
C717 C713 1.385 . S
C717 C716 1.374 . S
C718 C715 1.499 . S
C718 C719 1.373 . S
C718 C720 1.389 . S
C719 H698 0.950 . S
C719 C718 1.373 . S
C719 C735 1.377 . S
C720 C718 1.389 . S
C720 C721 1.524 . S
C720 C734 1.377 . S
C721 C720 1.524 . S
C721 C722 1.397 . S
C721 C726 1.363 . S
C722 H699 0.950 . S
C722 C721 1.397 . S
C722 C723 1.334 . S
C723 H700 0.950 . S
C723 C722 1.334 . S
C723 C724 1.287 . S
C724 C723 1.287 . S
C724 C725 1.524 . S
C724 H743 0.913 . S
C725 H701 0.950 . S
C725 C724 1.524 . S
C725 C726 1.415 . S
C726 H702 0.950 . S
C726 C721 1.363 . S
C726 C725 1.415 . S
C727 H703 0.951 . S
C727 C728 1.366 . S
C727 C729 1.388 . S
C728 C727 1.366 . S
C728 C732 1.385 . S
C729 H704 0.951 . S
C729 C727 1.388 . S
C729 C730 1.366 . S
C730 C729 1.366 . S
C730 C731 1.414 . S
C730 C733 1.499 . S
C731 H705 0.950 . S
C731 C730 1.414 . S
C731 C732 1.374 . S
C732 H706 0.950 . S
C732 C728 1.385 . S
C732 C731 1.374 . S
C733 C730 1.499 . S
C733 C734 1.373 . S
C733 C735 1.389 . S
C734 H707 0.950 . S
C734 C720 1.377 . S
C734 C733 1.373 . S
C735 C719 1.377 . S
C735 C733 1.389 . S
C735 C736 1.524 . S
C736 C735 1.524 . S
C736 C737 1.397 . S
C736 C741 1.363 . S
C737 H708 0.950 . S
C737 C736 1.397 . S
C737 C738 1.334 . S
C738 H709 0.950 . S
C738 C737 1.334 . S
C738 C739 1.287 . S
C739 C738 1.287 . S
C739 C740 1.524 . S
C739 H742 0.999 . S
C740 H710 0.950 . S
C740 C739 1.524 . S
C740 C741 1.415 . S
C741 H711 0.950 . S
C741 C736 1.363 . S
C741 C740 1.415 . S
H742 C739 0.999 . S
H743 C724 0.913 . S
H744 C762 0.951 . S
H745 C764 0.951 . S
H746 C766 0.950 1_554 S
H747 C767 0.950 1_554 S
H748 C769 0.950 1_554 S
H749 C772 0.950 . S
H750 C773 0.950 . S
H751 C775 0.950 . S
H752 C776 0.950 . S
H753 C777 0.951 . S
H754 C779 0.951 . S
H755 C781 0.950 . S
H756 C782 0.950 . S
H757 C784 0.950 . S
H758 C787 0.950 1_556 S
H759 C788 0.950 . S
H760 C790 0.950 . S
H761 C791 0.950 . S
C762 H744 0.951 . S
C762 C763 1.366 . S
C762 C764 1.388 . S
C763 C762 1.366 . S
C763 C767 1.385 . S
C764 H745 0.951 . S
C764 C762 1.388 . S
C764 C765 1.366 . S
C765 C764 1.366 . S
C765 C766 1.414 . S
C765 C768 1.499 . S
C766 H746 0.950 1_556 S
C766 C765 1.414 . S
C766 C767 1.374 . S
C767 H747 0.950 1_556 S
C767 C763 1.385 . S
C767 C766 1.374 . S
C768 C765 1.499 . S
C768 C769 1.373 . S
C768 C770 1.389 . S
C769 H748 0.950 1_556 S
C769 C768 1.373 . S
C769 C785 1.377 . S
C770 C768 1.389 . S
C770 C771 1.524 . S
C770 C784 1.377 . S
C771 C770 1.524 . S
C771 C772 1.397 . S
C771 C776 1.363 . S
C772 H749 0.950 . S
C772 C771 1.397 . S
C772 C773 1.334 . S
C773 H750 0.950 . S
C773 C772 1.334 . S
C773 C774 1.287 . S
C774 C773 1.287 . S
C774 C775 1.524 . S
C774 H793 0.913 . S
C775 H751 0.950 . S
C775 C774 1.524 . S
C775 C776 1.415 . S
C776 H752 0.950 . S
C776 C771 1.363 . S
C776 C775 1.415 . S
C777 H753 0.951 . S
C777 C778 1.366 1_554 S
C777 C779 1.388 . S
C778 C777 1.366 1_556 S
C778 C782 1.385 . S
C779 H754 0.951 . S
C779 C777 1.388 . S
C779 C780 1.366 1_554 S
C780 C779 1.366 1_556 S
C780 C781 1.414 . S
C780 C783 1.499 . S
C781 H755 0.950 . S
C781 C780 1.414 . S
C781 C782 1.374 . S
C782 H756 0.950 . S
C782 C778 1.385 . S
C782 C781 1.374 . S
C783 C780 1.499 . S
C783 C784 1.373 . S
C783 C785 1.389 . S
C784 H757 0.950 . S
C784 C770 1.377 . S
C784 C783 1.373 . S
C785 C769 1.377 . S
C785 C783 1.389 . S
C785 C786 1.524 1_556 S
C786 C785 1.524 1_554 S
C786 C787 1.397 . S
C786 C791 1.363 . S
C787 H758 0.950 1_554 S
C787 C786 1.397 . S
C787 C788 1.334 . S
C788 H759 0.950 . S
C788 C787 1.334 . S
C788 C789 1.287 . S
C789 C788 1.287 . S
C789 C790 1.524 . S
C789 H792 0.999 . S
C790 H760 0.950 . S
C790 C789 1.524 . S
C790 C791 1.415 . S
C791 H761 0.950 . S
C791 C786 1.363 . S
C791 C790 1.415 . S
H792 C789 0.999 . S
H793 C774 0.913 . S
H794 C812 0.951 . S
H795 C814 0.951 . S
H796 C816 0.950 . S
H797 C817 0.950 . S
H798 C819 0.950 . S
H799 C822 0.950 . S
H800 C823 0.950 . S
H801 C825 0.950 1_554 S
H802 C826 0.950 1_554 S
H803 C827 0.951 . S
H804 C829 0.951 . S
H805 C831 0.950 . S
H806 C832 0.950 . S
H807 C834 0.950 . S
H808 C837 0.950 . S
H809 C838 0.950 . S
H810 C840 0.950 . S
H811 C841 0.950 . S
C812 H794 0.951 . S
C812 C813 1.366 . S
C812 C814 1.388 . S
C813 C812 1.366 . S
C813 C817 1.385 . S
C814 H795 0.951 . S
C814 C812 1.388 . S
C814 C815 1.366 . S
C815 C814 1.366 . S
C815 C816 1.414 . S
C815 C818 1.499 . S
C816 H796 0.950 . S
C816 C815 1.414 . S
C816 C817 1.374 . S
C817 H797 0.950 . S
C817 C813 1.385 . S
C817 C816 1.374 . S
C818 C815 1.499 . S
C818 C819 1.373 . S
C818 C820 1.389 . S
C819 H798 0.950 . S
C819 C818 1.373 . S
C819 C835 1.377 . S
C820 C818 1.389 . S
C820 C821 1.524 . S
C820 C834 1.377 . S
C821 C820 1.524 . S
C821 C822 1.397 . S
C821 C826 1.363 . S
C822 H799 0.950 . S
C822 C821 1.397 . S
C822 C823 1.334 . S
C823 H800 0.950 . S
C823 C822 1.334 . S
C823 C824 1.287 . S
C824 C823 1.287 . S
C824 C825 1.524 . S
C824 H843 0.913 . S
C825 H801 0.950 1_556 S
C825 C824 1.524 . S
C825 C826 1.415 . S
C826 H802 0.950 1_556 S
C826 C821 1.363 . S
C826 C825 1.415 . S
C827 H803 0.951 . S
C827 C828 1.366 1_556 S
C827 C829 1.388 . S
C828 C827 1.366 1_554 S
C828 C832 1.385 . S
C829 H804 0.951 . S
C829 C827 1.388 . S
C829 C830 1.366 . S
C830 C829 1.366 . S
C830 C831 1.414 1_556 S
C830 C833 1.499 . S
C831 H805 0.950 . S
C831 C830 1.414 1_554 S
C831 C832 1.374 . S
C832 H806 0.950 . S
C832 C828 1.385 . S
C832 C831 1.374 . S
C833 C830 1.499 . S
C833 C834 1.373 . S
C833 C835 1.389 . S
C834 H807 0.950 . S
C834 C820 1.377 . S
C834 C833 1.373 . S
C835 C819 1.377 . S
C835 C833 1.389 . S
C835 C836 1.524 . S
C836 C835 1.524 . S
C836 C837 1.397 . S
C836 C841 1.363 . S
C837 H808 0.950 . S
C837 C836 1.397 . S
C837 C838 1.334 . S
C838 H809 0.950 . S
C838 C837 1.334 . S
C838 C839 1.287 . S
C839 C838 1.287 . S
C839 C840 1.524 . S
C839 H842 0.999 . S
C840 H810 0.950 . S
C840 C839 1.524 . S
C840 C841 1.415 . S
C841 H811 0.950 . S
C841 C836 1.363 . S
C841 C840 1.415 . S
H842 C839 0.999 . S
H843 C824 0.913 . S
H844 C862 0.951 . S
H845 C864 0.951 . S
H846 C866 0.950 . S
H847 C867 0.950 . S
H848 C869 0.950 . S
H849 C872 0.950 . S
H850 C873 0.950 . S
H851 C875 0.950 . S
H852 C876 0.950 . S
H853 C877 0.951 . S
H854 C879 0.951 . S
H855 C881 0.950 . S
H856 C882 0.950 . S
H857 C884 0.950 1_554 S
H858 C887 0.950 . S
H859 C888 0.950 . S
H860 C890 0.950 . S
H861 C891 0.950 . S
C862 H844 0.951 . S
C862 C863 1.366 . S
C862 C864 1.388 . S
C863 C862 1.366 . S
C863 C867 1.385 . S
C864 H845 0.951 . S
C864 C862 1.388 . S
C864 C865 1.366 . S
C865 C864 1.366 . S
C865 C866 1.414 . S
C865 C868 1.499 . S
C866 H846 0.950 . S
C866 C865 1.414 . S
C866 C867 1.374 . S
C867 H847 0.950 . S
C867 C863 1.385 . S
C867 C866 1.374 . S
C868 C865 1.499 . S
C868 C869 1.373 . S
C868 C870 1.389 . S
C869 H848 0.950 . S
C869 C868 1.373 . S
C869 C885 1.377 . S
C870 C868 1.389 . S
C870 C871 1.524 1_556 S
C870 C884 1.377 . S
C871 C870 1.524 1_554 S
C871 C872 1.397 . S
C871 C876 1.363 1_554 S
C872 H849 0.950 . S
C872 C871 1.397 . S
C872 C873 1.334 . S
C873 H850 0.950 . S
C873 C872 1.334 . S
C873 C874 1.287 . S
C874 C873 1.287 . S
C874 C875 1.524 . S
C874 H893 0.913 . S
C875 H851 0.950 . S
C875 C874 1.524 . S
C875 C876 1.415 1_554 S
C876 H852 0.950 . S
C876 C871 1.363 1_556 S
C876 C875 1.415 1_556 S
C877 H853 0.951 . S
C877 C878 1.366 . S
C877 C879 1.388 . S
C878 C877 1.366 . S
C878 C882 1.385 1_554 S
C879 H854 0.951 . S
C879 C877 1.388 . S
C879 C880 1.366 1_554 S
C880 C879 1.366 1_556 S
C880 C881 1.414 . S
C880 C883 1.499 . S
C881 H855 0.950 . S
C881 C880 1.414 . S
C881 C882 1.374 . S
C882 H856 0.950 . S
C882 C878 1.385 1_556 S
C882 C881 1.374 . S
C883 C880 1.499 . S
C883 C884 1.373 . S
C883 C885 1.389 . S
C884 H857 0.950 1_556 S
C884 C870 1.377 . S
C884 C883 1.373 . S
C885 C869 1.377 . S
C885 C883 1.389 . S
C885 C886 1.524 . S
C886 C885 1.524 . S
C886 C887 1.397 . S
C886 C891 1.363 . S
C887 H858 0.950 . S
C887 C886 1.397 . S
C887 C888 1.334 . S
C888 H859 0.950 . S
C888 C887 1.334 . S
C888 C889 1.287 . S
C889 C888 1.287 . S
C889 C890 1.524 . S
C889 H892 0.999 . S
C890 H860 0.950 . S
C890 C889 1.524 . S
C890 C891 1.415 . S
C891 H861 0.950 . S
C891 C886 1.363 . S
C891 C890 1.415 . S
H892 C889 0.999 . S
H893 C874 0.913 . S
H894 C912 0.951 . S
H895 C914 0.951 . S
H896 C916 0.950 . S
H897 C917 0.950 . S
H898 C919 0.950 . S
H899 C922 0.950 . S
H900 C923 0.950 . S
H901 C925 0.950 . S
H902 C926 0.950 . S
H903 C927 0.951 . S
H904 C929 0.951 . S
H905 C931 0.950 . S
H906 C932 0.950 . S
H907 C934 0.950 . S
H908 C937 0.950 . S
H909 C938 0.950 . S
H910 C940 0.950 . S
H911 C941 0.950 . S
C912 H894 0.951 . S
C912 C913 1.366 . S
C912 C914 1.388 . S
C913 C912 1.366 . S
C913 C917 1.385 . S
C914 H895 0.951 . S
C914 C912 1.388 . S
C914 C915 1.366 . S
C915 C914 1.366 . S
C915 C916 1.414 . S
C915 C918 1.499 . S
C916 H896 0.950 . S
C916 C915 1.414 . S
C916 C917 1.374 . S
C917 H897 0.950 . S
C917 C913 1.385 . S
C917 C916 1.374 . S
C918 C915 1.499 . S
C918 C919 1.373 . S
C918 C920 1.389 . S
C919 H898 0.950 . S
C919 C918 1.373 . S
C919 C935 1.377 . S
C920 C918 1.389 . S
C920 C921 1.524 . S
C920 C934 1.377 . S
C921 C920 1.524 . S
C921 C922 1.397 . S
C921 C926 1.363 . S
C922 H899 0.950 . S
C922 C921 1.397 . S
C922 C923 1.334 . S
C923 H900 0.950 . S
C923 C922 1.334 . S
C923 C924 1.287 . S
C924 C923 1.287 . S
C924 C925 1.524 . S
C924 H943 0.913 . S
C925 H901 0.950 . S
C925 C924 1.524 . S
C925 C926 1.415 . S
C926 H902 0.950 . S
C926 C921 1.363 . S
C926 C925 1.415 . S
C927 H903 0.951 . S
C927 C928 1.367 . S
C927 C929 1.388 . S
C928 C927 1.367 . S
C928 C932 1.384 1_556 S
C929 H904 0.951 . S
C929 C927 1.388 . S
C929 C930 1.366 . S
C930 C929 1.366 . S
C930 C931 1.414 1_556 S
C930 C933 1.499 . S
C931 H905 0.950 . S
C931 C930 1.414 1_554 S
C931 C932 1.374 . S
C932 H906 0.950 . S
C932 C928 1.384 1_554 S
C932 C931 1.374 . S
C933 C930 1.499 . S
C933 C934 1.373 . S
C933 C935 1.389 . S
C934 H907 0.950 . S
C934 C920 1.377 . S
C934 C933 1.373 . S
C935 C919 1.377 . S
C935 C933 1.389 . S
C935 C936 1.524 . S
C936 C935 1.524 . S
C936 C937 1.397 1_556 S
C936 C941 1.363 . S
C937 H908 0.950 . S
C937 C936 1.397 1_554 S
C937 C938 1.334 . S
C938 H909 0.950 . S
C938 C937 1.334 . S
C938 C939 1.287 . S
C939 C938 1.287 . S
C939 C940 1.524 1_554 S
C939 H942 0.999 . S
C940 H910 0.950 . S
C940 C939 1.524 1_556 S
C940 C941 1.415 . S
C941 H911 0.950 . S
C941 C936 1.363 . S
C941 C940 1.415 . S
H942 C939 0.999 . S
H943 C924 0.913 . S
H944 C962 0.951 . S
H945 C964 0.951 . S
H946 C966 0.950 . S
H947 C967 0.950 . S
H948 C969 0.950 . S
H949 C972 0.950 . S
H950 C973 0.950 . S
H951 C975 0.950 . S
H952 C976 0.950 . S
H953 C977 0.951 1_554 S
H954 C979 0.951 . S
H955 C981 0.950 . S
H956 C982 0.950 . S
H957 C984 0.950 . S
H958 C987 0.950 . S
H959 C988 0.950 . S
H960 C990 0.950 . S
H961 C991 0.932 1_554 S
C962 H944 0.951 . S
C962 C963 1.366 . S
C962 C964 1.388 . S
C963 C962 1.366 . S
C963 C967 1.385 . S
C964 H945 0.951 . S
C964 C962 1.388 . S
C964 C965 1.366 . S
C965 C964 1.366 . S
C965 C966 1.414 . S
C965 C968 1.499 . S
C966 H946 0.950 . S
C966 C965 1.414 . S
C966 C967 1.374 . S
C967 H947 0.950 . S
C967 C963 1.385 . S
C967 C966 1.374 . S
C968 C965 1.499 . S
C968 C969 1.373 . S
C968 C970 1.389 . S
C969 H948 0.950 . S
C969 C968 1.373 . S
C969 C985 1.377 . S
C970 C968 1.389 . S
C970 C971 1.524 . S
C970 C984 1.377 . S
C971 C970 1.524 . S
C971 C972 1.397 . S
C971 C976 1.363 . S
C972 H949 0.950 . S
C972 C971 1.397 . S
C972 C973 1.334 . S
C973 H950 0.950 . S
C973 C972 1.334 . S
C973 C974 1.287 . S
C974 C973 1.287 . S
C974 C975 1.524 . S
C974 H993 0.913 . S
C975 H951 0.950 . S
C975 C974 1.524 . S
C975 C976 1.415 . S
C976 H952 0.950 . S
C976 C971 1.363 . S
C976 C975 1.415 . S
C977 H953 0.951 1_556 S
C977 C978 1.366 . S
C977 C979 1.388 . S
C978 C977 1.366 . S
C978 C982 1.385 . S
C979 H954 0.951 . S
C979 C977 1.388 . S
C979 C980 1.366 . S
C980 C979 1.366 . S
C980 C981 1.414 . S
C980 C983 1.499 . S
C981 H955 0.950 . S
C981 C980 1.414 . S
C981 C982 1.374 . S
C982 H956 0.950 . S
C982 C978 1.385 . S
C982 C981 1.374 . S
C983 C980 1.499 . S
C983 C984 1.373 . S
C983 C985 1.389 . S
C984 H957 0.950 . S
C984 C970 1.377 . S
C984 C983 1.373 . S
C985 C969 1.377 . S
C985 C983 1.389 . S
C985 C986 1.524 . S
C986 C985 1.524 . S
C986 C987 1.397 . S
C986 C991 1.363 . S
C987 H958 0.950 . S
C987 C986 1.397 . S
C987 C988 1.334 . S
C988 H959 0.950 . S
C988 C987 1.334 . S
C988 C989 1.287 . S
C989 C988 1.287 . S
C989 C990 1.524 1_556 S
C989 H992 0.999 1_556 S
C990 H960 0.950 . S
C990 C989 1.524 1_554 S
C990 C991 1.415 1_554 S
C991 H961 0.932 1_556 S
C991 C986 1.363 . S
C991 C990 1.415 1_556 S
H992 C989 0.999 1_554 S
H993 C974 0.913 . S
H994 C1012 0.951 . S
H995 C1014 0.951 . S
H996 C1016 0.950 . S
H997 C1017 0.950 . S
H998 C1019 0.950 . S
H999 C1022 0.950 . S
H1000 C1023 0.950 . S
H1001 C1025 0.950 . S
H1002 C1026 0.950 . S
H1003 C1027 0.951 . S
H1004 C1029 0.951 . S
H1005 C1031 0.950 . S
H1006 C1032 0.950 . S
H1007 C1034 0.950 . S
H1008 C1037 0.950 . S
H1009 C1038 0.950 . S
H1010 C1040 0.950 . S
H1011 C1041 0.950 . S
C1012 H994 0.951 . S
C1012 C1013 1.366 . S
C1012 C1014 1.388 . S
C1013 C1012 1.366 . S
C1013 C1017 1.385 . S
C1014 H995 0.951 . S
C1014 C1012 1.388 . S
C1014 C1015 1.366 . S
C1015 C1014 1.366 . S
C1015 C1016 1.414 . S
C1015 C1018 1.499 . S
C1016 H996 0.950 . S
C1016 C1015 1.414 . S
C1016 C1017 1.374 . S
C1017 H997 0.950 . S
C1017 C1013 1.385 . S
C1017 C1016 1.374 . S
C1018 C1015 1.499 . S
C1018 C1019 1.373 . S
C1018 C1020 1.389 1_556 S
C1019 H998 0.950 . S
C1019 C1018 1.373 . S
C1019 C1035 1.377 . S
C1020 C1018 1.389 1_554 S
C1020 C1021 1.524 . S
C1020 C1034 1.377 . S
C1021 C1020 1.524 . S
C1021 C1022 1.397 . S
C1021 C1026 1.363 . S
C1022 H999 0.950 . S
C1022 C1021 1.397 . S
C1022 C1023 1.334 . S
C1023 H1000 0.950 . S
C1023 C1022 1.334 . S
C1023 C1024 1.287 . S
C1024 C1023 1.287 . S
C1024 C1025 1.524 . S
C1024 H1043 0.913 . S
C1025 H1001 0.950 . S
C1025 C1024 1.524 . S
C1025 C1026 1.415 . S
C1026 H1002 0.950 . S
C1026 C1021 1.363 . S
C1026 C1025 1.415 . S
C1027 H1003 0.951 . S
C1027 C1028 1.366 . S
C1027 C1029 1.388 . S
C1028 C1027 1.366 . S
C1028 C1032 1.385 . S
C1029 H1004 0.951 . S
C1029 C1027 1.388 . S
C1029 C1030 1.366 . S
C1030 C1029 1.366 . S
C1030 C1031 1.414 . S
C1030 C1033 1.499 . S
C1031 H1005 0.950 . S
C1031 C1030 1.414 . S
C1031 C1032 1.374 . S
C1032 H1006 0.950 . S
C1032 C1028 1.385 . S
C1032 C1031 1.374 . S
C1033 C1030 1.499 . S
C1033 C1034 1.373 . S
C1033 C1035 1.389 1_554 S
C1034 H1007 0.950 . S
C1034 C1020 1.377 . S
C1034 C1033 1.373 . S
C1035 C1019 1.377 . S
C1035 C1033 1.389 1_556 S
C1035 C1036 1.524 . S
C1036 C1035 1.524 . S
C1036 C1037 1.397 . S
C1036 C1041 1.363 . S
C1037 H1008 0.950 . S
C1037 C1036 1.397 . S
C1037 C1038 1.334 . S
C1038 H1009 0.950 . S
C1038 C1037 1.334 . S
C1038 C1039 1.287 . S
C1039 C1038 1.287 . S
C1039 C1040 1.524 . S
C1039 H1042 0.999 . S
C1040 H1010 0.950 . S
C1040 C1039 1.524 . S
C1040 C1041 1.415 . S
C1041 H1011 0.950 . S
C1041 C1036 1.363 . S
C1041 C1040 1.415 . S
H1042 C1039 0.999 . S
H1043 C1024 0.913 . S
H1044 C1062 0.951 . S
H1045 C1064 0.951 . S
H1046 C1066 0.950 . S
H1047 C1067 0.950 . S
H1048 C1069 0.950 . S
H1049 C1072 0.950 . S
H1050 C1073 0.950 . S
H1051 C1075 0.950 . S
H1052 C1076 0.950 . S
H1053 C1077 0.951 . S
H1054 C1079 0.951 . S
H1055 C1081 0.950 . S
H1056 C1082 0.950 1_556 S
H1057 C1084 0.950 . S
H1058 C1087 0.950 . S
H1059 C1088 0.950 1_556 S
H1060 C1090 0.950 . S
H1061 C1091 0.950 . S
C1062 H1044 0.951 . S
C1062 C1063 1.366 . S
C1062 C1064 1.388 . S
C1063 C1062 1.366 . S
C1063 C1067 1.385 . S
C1064 H1045 0.951 . S
C1064 C1062 1.388 . S
C1064 C1065 1.366 . S
C1065 C1064 1.366 . S
C1065 C1066 1.414 . S
C1065 C1068 1.499 . S
C1066 H1046 0.950 . S
C1066 C1065 1.414 . S
C1066 C1067 1.374 . S
C1067 H1047 0.950 . S
C1067 C1063 1.385 . S
C1067 C1066 1.374 . S
C1068 C1065 1.499 . S
C1068 C1069 1.373 . S
C1068 C1070 1.389 . S
C1069 H1048 0.950 . S
C1069 C1068 1.373 . S
C1069 C1085 1.377 . S
C1070 C1068 1.389 . S
C1070 C1071 1.524 . S
C1070 C1084 1.377 . S
C1071 C1070 1.524 . S
C1071 C1072 1.397 . S
C1071 C1076 1.363 . S
C1072 H1049 0.950 . S
C1072 C1071 1.397 . S
C1072 C1073 1.334 . S
C1073 H1050 0.950 . S
C1073 C1072 1.334 . S
C1073 C1074 1.287 . S
C1074 C1073 1.287 . S
C1074 C1075 1.524 . S
C1074 H1093 0.913 . S
C1075 H1051 0.950 . S
C1075 C1074 1.524 . S
C1075 C1076 1.415 . S
C1076 H1052 0.950 . S
C1076 C1071 1.363 . S
C1076 C1075 1.415 . S
C1077 H1053 0.951 . S
C1077 C1078 1.366 . S
C1077 C1079 1.388 . S
C1078 C1077 1.366 . S
C1078 C1082 1.385 . S
C1079 H1054 0.951 . S
C1079 C1077 1.388 . S
C1079 C1080 1.366 . S
C1080 C1079 1.366 . S
C1080 C1081 1.414 . S
C1080 C1083 1.499 . S
C1081 H1055 0.950 . S
C1081 C1080 1.414 . S
C1081 C1082 1.374 . S
C1082 H1056 0.950 1_554 S
C1082 C1078 1.385 . S
C1082 C1081 1.374 . S
C1083 C1080 1.499 . S
C1083 C1084 1.373 . S
C1083 C1085 1.389 . S
C1084 H1057 0.950 . S
C1084 C1070 1.377 . S
C1084 C1083 1.373 . S
C1085 C1069 1.377 . S
C1085 C1083 1.389 . S
C1085 C1086 1.524 . S
C1086 C1085 1.524 . S
C1086 C1087 1.397 . S
C1086 C1091 1.363 . S
C1087 H1058 0.950 . S
C1087 C1086 1.397 . S
C1087 C1088 1.334 . S
C1088 H1059 0.950 1_554 S
C1088 C1087 1.334 . S
C1088 C1089 1.287 . S
C1089 C1088 1.287 . S
C1089 C1090 1.524 . S
C1089 H1092 0.999 . S
C1090 H1060 0.950 . S
C1090 C1089 1.524 . S
C1090 C1091 1.415 . S
C1091 H1061 0.950 . S
C1091 C1086 1.363 . S
C1091 C1090 1.415 . S
H1092 C1089 0.999 . S
H1093 C1074 0.913 . S
H1094 C1112 0.951 . S
H1095 C1114 0.951 . S
H1096 C1116 0.950 . S
H1097 C1117 0.950 . S
H1098 C1119 0.950 . S
H1099 C1122 0.950 . S
H1100 C1123 0.950 . S
H1101 C1125 0.950 . S
H1102 C1126 0.950 . S
H1103 C1127 0.951 . S
H1104 C1129 0.951 . S
H1105 C1131 0.950 . S
H1106 C1132 0.950 . S
H1107 C1134 0.950 . S
H1108 C1137 0.950 . S
H1109 C1138 0.950 . S
H1110 C1140 0.950 . S
H1111 C1141 0.950 . S
C1112 H1094 0.951 . S
C1112 C1113 1.366 . S
C1112 C1114 1.388 . S
C1113 C1112 1.366 . S
C1113 C1117 1.385 . S
C1114 H1095 0.951 . S
C1114 C1112 1.388 . S
C1114 C1115 1.366 . S
C1115 C1114 1.366 . S
C1115 C1116 1.414 . S
C1115 C1118 1.499 . S
C1116 H1096 0.950 . S
C1116 C1115 1.414 . S
C1116 C1117 1.374 . S
C1117 H1097 0.950 . S
C1117 C1113 1.385 . S
C1117 C1116 1.374 . S
C1118 C1115 1.499 . S
C1118 C1119 1.373 . S
C1118 C1120 1.389 . S
C1119 H1098 0.950 . S
C1119 C1118 1.373 . S
C1119 C1135 1.377 . S
C1120 C1118 1.389 . S
C1120 C1121 1.524 . S
C1120 C1134 1.377 . S
C1121 C1120 1.524 . S
C1121 C1122 1.397 . S
C1121 C1126 1.363 . S
C1122 H1099 0.950 . S
C1122 C1121 1.397 . S
C1122 C1123 1.334 . S
C1123 H1100 0.950 . S
C1123 C1122 1.334 . S
C1123 C1124 1.287 . S
C1124 C1123 1.287 . S
C1124 C1125 1.524 . S
C1124 H1143 0.913 . S
C1125 H1101 0.950 . S
C1125 C1124 1.524 . S
C1125 C1126 1.415 . S
C1126 H1102 0.950 . S
C1126 C1121 1.363 . S
C1126 C1125 1.415 . S
C1127 H1103 0.951 . S
C1127 C1128 1.366 . S
C1127 C1129 1.388 . S
C1128 C1127 1.366 . S
C1128 C1132 1.385 . S
C1129 H1104 0.951 . S
C1129 C1127 1.388 . S
C1129 C1130 1.366 . S
C1130 C1129 1.366 . S
C1130 C1131 1.414 . S
C1130 C1133 1.499 . S
C1131 H1105 0.950 . S
C1131 C1130 1.414 . S
C1131 C1132 1.374 . S
C1132 H1106 0.950 . S
C1132 C1128 1.385 . S
C1132 C1131 1.374 . S
C1133 C1130 1.499 . S
C1133 C1134 1.373 . S
C1133 C1135 1.389 . S
C1134 H1107 0.950 . S
C1134 C1120 1.377 . S
C1134 C1133 1.373 . S
C1135 C1119 1.377 . S
C1135 C1133 1.389 . S
C1135 C1136 1.524 . S
C1136 C1135 1.524 . S
C1136 C1137 1.397 . S
C1136 C1141 1.363 . S
C1137 H1108 0.950 . S
C1137 C1136 1.397 . S
C1137 C1138 1.334 . S
C1138 H1109 0.950 . S
C1138 C1137 1.334 . S
C1138 C1139 1.287 . S
C1139 C1138 1.287 . S
C1139 C1140 1.524 . S
C1139 H1142 0.999 . S
C1140 H1110 0.950 . S
C1140 C1139 1.524 . S
C1140 C1141 1.415 . S
C1141 H1111 0.950 . S
C1141 C1136 1.363 . S
C1141 C1140 1.415 . S
H1142 C1139 0.999 . S
H1143 C1124 0.913 . S
H1144 C1162 0.951 . S
H1145 C1164 0.951 . S
H1146 C1166 0.950 . S
H1147 C1167 0.950 . S
H1148 C1169 0.950 . S
H1149 C1172 0.960 . S
H1150 C1173 0.950 . S
H1151 C1175 0.950 . S
H1152 C1176 0.950 . S
H1153 C1177 0.951 . S
H1154 C1179 0.951 . S
H1155 C1181 0.950 . S
H1156 C1182 0.950 . S
H1157 C1184 0.950 . S
H1158 C1187 0.950 . S
H1159 C1188 0.950 . S
H1160 C1190 0.950 . S
H1161 C1191 0.950 . S
C1162 H1144 0.951 . S
C1162 C1163 1.366 . S
C1162 C1164 1.388 . S
C1163 C1162 1.366 . S
C1163 C1167 1.385 . S
C1164 H1145 0.951 . S
C1164 C1162 1.388 . S
C1164 C1165 1.366 . S
C1165 C1164 1.366 . S
C1165 C1166 1.414 . S
C1165 C1168 1.499 . S
C1166 H1146 0.950 . S
C1166 C1165 1.414 . S
C1166 C1167 1.374 . S
C1167 H1147 0.950 . S
C1167 C1163 1.385 . S
C1167 C1166 1.374 . S
C1168 C1165 1.499 . S
C1168 C1169 1.373 . S
C1168 C1170 1.389 . S
C1169 H1148 0.950 . S
C1169 C1168 1.373 . S
C1169 C1185 1.377 . S
C1170 C1168 1.389 . S
C1170 C1171 1.524 . S
C1170 C1184 1.377 . S
C1171 C1170 1.524 . S
C1171 C1172 1.435 . S
C1171 C1176 1.363 . S
C1172 H1149 0.960 . S
C1172 C1171 1.435 . S
C1172 C1173 1.290 1_554 S
C1173 H1150 0.950 . S
C1173 C1172 1.290 1_556 S
C1173 C1174 1.287 . S
C1174 C1173 1.287 . S
C1174 C1175 1.524 . S
C1174 H1193 0.913 . S
C1175 H1151 0.950 . S
C1175 C1174 1.524 . S
C1175 C1176 1.415 1_556 S
C1176 H1152 0.950 . S
C1176 C1171 1.363 . S
C1176 C1175 1.415 1_554 S
C1177 H1153 0.951 . S
C1177 C1178 1.366 . S
C1177 C1179 1.388 . S
C1178 C1177 1.366 . S
C1178 C1182 1.385 . S
C1179 H1154 0.951 . S
C1179 C1177 1.388 . S
C1179 C1180 1.366 . S
C1180 C1179 1.366 . S
C1180 C1181 1.414 . S
C1180 C1183 1.499 . S
C1181 H1155 0.950 . S
C1181 C1180 1.414 . S
C1181 C1182 1.374 . S
C1182 H1156 0.950 . S
C1182 C1178 1.385 . S
C1182 C1181 1.374 . S
C1183 C1180 1.499 . S
C1183 C1184 1.373 . S
C1183 C1185 1.389 . S
C1184 H1157 0.950 . S
C1184 C1170 1.377 . S
C1184 C1183 1.373 . S
C1185 C1169 1.377 . S
C1185 C1183 1.389 . S
C1185 C1186 1.524 . S
C1186 C1185 1.524 . S
C1186 C1187 1.397 . S
C1186 C1191 1.363 . S
C1187 H1158 0.950 . S
C1187 C1186 1.397 . S
C1187 C1188 1.334 . S
C1188 H1159 0.950 . S
C1188 C1187 1.334 . S
C1188 C1189 1.287 . S
C1189 C1188 1.287 . S
C1189 C1190 1.524 . S
C1189 H1192 0.999 . S
C1190 H1160 0.950 . S
C1190 C1189 1.524 . S
C1190 C1191 1.415 . S
C1191 H1161 0.950 . S
C1191 C1186 1.363 . S
C1191 C1190 1.415 . S
H1192 C1189 0.999 . S
H1193 C1174 0.913 . S
H1194 C1212 0.951 . S
H1195 C1214 0.951 . S
H1196 C1216 0.950 . S
H1197 C1217 0.950 . S
H1198 C1219 0.950 . S
H1199 C1222 0.950 . S
H1200 C1223 0.950 . S
H1201 C1225 0.950 . S
H1202 C1226 0.950 . S
H1203 C1227 0.951 . S
H1204 C1229 0.951 . S
H1205 C1231 0.950 . S
H1206 C1232 0.950 . S
H1207 C1234 0.950 . S
H1208 C1237 0.950 . S
H1209 C1238 0.950 . S
H1210 C1240 0.950 . S
H1211 C1241 0.950 1_655 S
C1212 H1194 0.951 . S
C1212 C1213 1.366 . S
C1212 C1214 1.388 . S
C1213 C1212 1.366 . S
C1213 C1217 1.385 . S
C1214 H1195 0.951 . S
C1214 C1212 1.388 . S
C1214 C1215 1.366 . S
C1215 C1214 1.366 . S
C1215 C1216 1.414 . S
C1215 C1218 1.499 . S
C1216 H1196 0.950 . S
C1216 C1215 1.414 . S
C1216 C1217 1.374 . S
C1217 H1197 0.950 . S
C1217 C1213 1.385 . S
C1217 C1216 1.374 . S
C1218 C1215 1.499 . S
C1218 C1219 1.373 . S
C1218 C1220 1.389 1_655 S
C1219 H1198 0.950 . S
C1219 C1218 1.373 . S
C1219 C1235 1.377 1_655 S
C1220 C1218 1.389 1_455 S
C1220 C1221 1.524 . S
C1220 C1234 1.377 . S
C1221 C1220 1.524 . S
C1221 C1222 1.397 1_455 S
C1221 C1226 1.363 . S
C1222 H1199 0.950 . S
C1222 C1221 1.397 1_655 S
C1222 C1223 1.334 . S
C1223 H1200 0.950 . S
C1223 C1222 1.334 . S
C1223 C1224 1.287 . S
C1224 C1223 1.287 . S
C1224 C1225 1.524 1_655 S
C1224 H1243 0.913 . S
C1225 H1201 0.950 . S
C1225 C1224 1.524 1_455 S
C1225 C1226 1.415 . S
C1226 H1202 0.950 . S
C1226 C1221 1.363 . S
C1226 C1225 1.415 . S
C1227 H1203 0.951 . S
C1227 C1228 1.366 . S
C1227 C1229 1.388 . S
C1228 C1227 1.366 . S
C1228 C1232 1.385 . S
C1229 H1204 0.951 . S
C1229 C1227 1.388 . S
C1229 C1230 1.366 . S
C1230 C1229 1.366 . S
C1230 C1231 1.414 . S
C1230 C1233 1.499 . S
C1231 H1205 0.950 . S
C1231 C1230 1.414 . S
C1231 C1232 1.374 . S
C1232 H1206 0.950 . S
C1232 C1228 1.385 . S
C1232 C1231 1.374 . S
C1233 C1230 1.499 . S
C1233 C1234 1.373 . S
C1233 C1235 1.389 . S
C1234 H1207 0.950 . S
C1234 C1220 1.377 . S
C1234 C1233 1.373 . S
C1235 C1219 1.377 1_455 S
C1235 C1233 1.389 . S
C1235 C1236 1.524 . S
C1236 C1235 1.524 . S
C1236 C1237 1.397 . S
C1236 C1241 1.363 . S
C1237 H1208 0.950 . S
C1237 C1236 1.397 . S
C1237 C1238 1.334 . S
C1238 H1209 0.950 . S
C1238 C1237 1.334 . S
C1238 C1239 1.287 . S
C1239 C1238 1.287 . S
C1239 C1240 1.524 . S
C1239 H1242 0.999 . S
C1240 H1210 0.950 . S
C1240 C1239 1.524 . S
C1240 C1241 1.415 . S
C1241 H1211 0.950 1_455 S
C1241 C1236 1.363 . S
C1241 C1240 1.415 . S
H1242 C1239 0.999 . S
H1243 C1224 0.913 . S
H1244 C1262 0.951 . S
H1245 C1264 0.951 . S
H1246 C1266 0.950 . S
H1247 C1267 0.950 . S
H1248 C1269 0.950 . S
H1249 C1272 0.950 . S
H1250 C1273 0.950 . S
H1251 C1275 0.950 . S
H1252 C1276 0.950 . S
H1253 C1277 0.951 . S
H1254 C1279 0.951 . S
H1255 C1281 0.950 . S
H1256 C1282 0.950 . S
H1257 C1284 0.950 . S
H1258 C1287 0.950 . S
H1259 C1288 0.950 . S
H1260 C1290 0.950 . S
H1261 C1291 0.950 . S
C1262 H1244 0.951 . S
C1262 C1263 1.366 . S
C1262 C1264 1.388 . S
C1263 C1262 1.366 . S
C1263 C1267 1.385 . S
C1264 H1245 0.951 . S
C1264 C1262 1.388 . S
C1264 C1265 1.366 . S
C1265 C1264 1.366 . S
C1265 C1266 1.414 . S
C1265 C1268 1.499 . S
C1266 H1246 0.950 . S
C1266 C1265 1.414 . S
C1266 C1267 1.374 . S
C1267 H1247 0.950 . S
C1267 C1263 1.385 . S
C1267 C1266 1.374 . S
C1268 C1265 1.499 . S
C1268 C1269 1.373 . S
C1268 C1270 1.389 . S
C1269 H1248 0.950 . S
C1269 C1268 1.373 . S
C1269 C1285 1.377 . S
C1270 C1268 1.389 . S
C1270 C1271 1.524 . S
C1270 C1284 1.377 . S
C1271 C1270 1.524 . S
C1271 C1272 1.397 . S
C1271 C1276 1.363 . S
C1272 H1249 0.950 . S
C1272 C1271 1.397 . S
C1272 C1273 1.334 . S
C1273 H1250 0.950 . S
C1273 C1272 1.334 . S
C1273 C1274 1.287 . S
C1274 C1273 1.287 . S
C1274 C1275 1.524 . S
C1274 H1293 0.913 . S
C1275 H1251 0.950 . S
C1275 C1274 1.524 . S
C1275 C1276 1.415 . S
C1276 H1252 0.950 . S
C1276 C1271 1.363 . S
C1276 C1275 1.415 . S
C1277 H1253 0.951 . S
C1277 C1278 1.366 . S
C1277 C1279 1.388 . S
C1278 C1277 1.366 . S
C1278 C1282 1.385 . S
C1279 H1254 0.951 . S
C1279 C1277 1.388 . S
C1279 C1280 1.366 . S
C1280 C1279 1.366 . S
C1280 C1281 1.414 . S
C1280 C1283 1.499 . S
C1281 H1255 0.950 . S
C1281 C1280 1.414 . S
C1281 C1282 1.374 . S
C1282 H1256 0.950 . S
C1282 C1278 1.385 . S
C1282 C1281 1.374 . S
C1283 C1280 1.499 . S
C1283 C1284 1.373 . S
C1283 C1285 1.389 . S
C1284 H1257 0.950 . S
C1284 C1270 1.377 . S
C1284 C1283 1.373 . S
C1285 C1269 1.377 . S
C1285 C1283 1.389 . S
C1285 C1286 1.524 . S
C1286 C1285 1.524 . S
C1286 C1287 1.397 . S
C1286 C1291 1.363 . S
C1287 H1258 0.950 . S
C1287 C1286 1.397 . S
C1287 C1288 1.334 . S
C1288 H1259 0.950 . S
C1288 C1287 1.334 . S
C1288 C1289 1.287 . S
C1289 C1288 1.287 . S
C1289 C1290 1.524 . S
C1289 H1292 0.999 . S
C1290 H1260 0.950 . S
C1290 C1289 1.524 . S
C1290 C1291 1.415 . S
C1291 H1261 0.950 . S
C1291 C1286 1.363 . S
C1291 C1290 1.415 . S
H1292 C1289 0.999 . S
H1293 C1274 0.913 . S
H1294 C1312 0.951 . S
H1295 C1314 0.951 . S
H1296 C1316 0.950 . S
H1297 C1317 0.950 . S
H1298 C1319 0.950 . S
H1299 C1322 0.950 . S
H1300 C1323 0.950 . S
H1301 C1325 0.950 1_565 S
H1302 C1326 0.950 . S
H1303 C1327 0.951 . S
H1304 C1329 0.951 . S
H1305 C1331 0.950 . S
H1306 C1332 0.950 . S
H1307 C1334 0.950 . S
H1308 C1337 0.950 . S
H1309 C1338 0.950 . S
H1310 C1340 0.950 . S
H1311 C1341 0.950 . S
C1312 H1294 0.951 . S
C1312 C1313 1.366 . S
C1312 C1314 1.388 . S
C1313 C1312 1.366 . S
C1313 C1317 1.385 . S
C1314 H1295 0.951 . S
C1314 C1312 1.388 . S
C1314 C1315 1.366 . S
C1315 C1314 1.366 . S
C1315 C1316 1.414 . S
C1315 C1318 1.499 . S
C1316 H1296 0.950 . S
C1316 C1315 1.414 . S
C1316 C1317 1.374 . S
C1317 H1297 0.950 . S
C1317 C1313 1.385 . S
C1317 C1316 1.374 . S
C1318 C1315 1.499 . S
C1318 C1319 1.373 . S
C1318 C1320 1.389 1_545 S
C1319 H1298 0.950 . S
C1319 C1318 1.373 . S
C1319 C1335 1.377 1_545 S
C1320 C1318 1.389 1_565 S
C1320 C1321 1.524 1_565 S
C1320 C1334 1.377 . S
C1321 C1320 1.524 1_545 S
C1321 C1322 1.397 . S
C1321 C1326 1.363 1_545 S
C1322 H1299 0.950 . S
C1322 C1321 1.397 . S
C1322 C1323 1.334 . S
C1323 H1300 0.950 . S
C1323 C1322 1.334 . S
C1323 C1324 1.287 . S
C1324 C1323 1.287 . S
C1324 C1325 1.524 . S
C1324 H1343 0.913 . S
C1325 H1301 0.950 1_545 S
C1325 C1324 1.524 . S
C1325 C1326 1.415 1_545 S
C1326 H1302 0.950 . S
C1326 C1321 1.363 1_565 S
C1326 C1325 1.415 1_565 S
C1327 H1303 0.951 . S
C1327 C1328 1.366 . S
C1327 C1329 1.388 . S
C1328 C1327 1.366 . S
C1328 C1332 1.385 . S
C1329 H1304 0.951 . S
C1329 C1327 1.388 . S
C1329 C1330 1.366 . S
C1330 C1329 1.366 . S
C1330 C1331 1.414 . S
C1330 C1333 1.499 . S
C1331 H1305 0.950 . S
C1331 C1330 1.414 . S
C1331 C1332 1.374 . S
C1332 H1306 0.950 . S
C1332 C1328 1.385 . S
C1332 C1331 1.374 . S
C1333 C1330 1.499 . S
C1333 C1334 1.373 . S
C1333 C1335 1.389 . S
C1334 H1307 0.950 . S
C1334 C1320 1.377 . S
C1334 C1333 1.373 . S
C1335 C1319 1.377 1_565 S
C1335 C1333 1.389 . S
C1335 C1336 1.524 . S
C1336 C1335 1.524 . S
C1336 C1337 1.397 . S
C1336 C1341 1.363 . S
C1337 H1308 0.950 . S
C1337 C1336 1.397 . S
C1337 C1338 1.334 . S
C1338 H1309 0.950 . S
C1338 C1337 1.334 . S
C1338 C1339 1.287 . S
C1339 C1338 1.287 . S
C1339 C1340 1.524 . S
C1339 H1342 0.999 . S
C1340 H1310 0.950 . S
C1340 C1339 1.524 . S
C1340 C1341 1.415 . S
C1341 H1311 0.950 . S
C1341 C1336 1.363 . S
C1341 C1340 1.415 . S
H1342 C1339 0.999 . S
H1343 C1324 0.913 . S
H1344 C1362 0.951 . S
H1345 C1364 0.951 . S
H1346 C1366 0.950 . S
H1347 C1367 0.950 . S
H1348 C1369 0.950 . S
H1349 C1372 0.950 . S
H1350 C1373 0.950 . S
H1351 C1375 0.950 . S
H1352 C1376 0.950 . S
H1353 C1377 0.951 . S
H1354 C1379 0.951 . S
H1355 C1381 0.950 . S
H1356 C1382 0.950 . S
H1357 C1384 0.950 . S
H1358 C1387 0.950 . S
H1359 C1388 0.950 . S
H1360 C1390 0.950 . S
H1361 C1391 0.950 . S
C1362 H1344 0.951 . S
C1362 C1363 1.366 . S
C1362 C1364 1.388 . S
C1363 C1362 1.366 . S
C1363 C1367 1.385 . S
C1364 H1345 0.951 . S
C1364 C1362 1.388 . S
C1364 C1365 1.366 . S
C1365 C1364 1.366 . S
C1365 C1366 1.414 . S
C1365 C1368 1.499 . S
C1366 H1346 0.950 . S
C1366 C1365 1.414 . S
C1366 C1367 1.374 . S
C1367 H1347 0.950 . S
C1367 C1363 1.385 . S
C1367 C1366 1.374 . S
C1368 C1365 1.499 . S
C1368 C1369 1.373 . S
C1368 C1370 1.389 . S
C1369 H1348 0.950 . S
C1369 C1368 1.373 . S
C1369 C1385 1.377 . S
C1370 C1368 1.389 . S
C1370 C1371 1.524 . S
C1370 C1384 1.377 . S
C1371 C1370 1.524 . S
C1371 C1372 1.397 . S
C1371 C1376 1.363 . S
C1372 H1349 0.950 . S
C1372 C1371 1.397 . S
C1372 C1373 1.334 . S
C1373 H1350 0.950 . S
C1373 C1372 1.334 . S
C1373 C1374 1.287 . S
C1374 C1373 1.287 . S
C1374 C1375 1.524 . S
C1374 H1393 0.913 . S
C1375 H1351 0.950 . S
C1375 C1374 1.524 . S
C1375 C1376 1.415 . S
C1376 H1352 0.950 . S
C1376 C1371 1.363 . S
C1376 C1375 1.415 . S
C1377 H1353 0.951 . S
C1377 C1378 1.366 . S
C1377 C1379 1.388 . S
C1378 C1377 1.366 . S
C1378 C1382 1.385 . S
C1379 H1354 0.951 . S
C1379 C1377 1.388 . S
C1379 C1380 1.366 . S
C1380 C1379 1.366 . S
C1380 C1381 1.414 . S
C1380 C1383 1.499 . S
C1381 H1355 0.950 . S
C1381 C1380 1.414 . S
C1381 C1382 1.374 . S
C1382 H1356 0.950 . S
C1382 C1378 1.385 . S
C1382 C1381 1.374 . S
C1383 C1380 1.499 . S
C1383 C1384 1.373 . S
C1383 C1385 1.389 . S
C1384 H1357 0.950 . S
C1384 C1370 1.377 . S
C1384 C1383 1.373 . S
C1385 C1369 1.377 . S
C1385 C1383 1.389 . S
C1385 C1386 1.524 . S
C1386 C1385 1.524 . S
C1386 C1387 1.397 . S
C1386 C1391 1.363 . S
C1387 H1358 0.950 . S
C1387 C1386 1.397 . S
C1387 C1388 1.334 . S
C1388 H1359 0.950 . S
C1388 C1387 1.334 . S
C1388 C1389 1.287 . S
C1389 C1388 1.287 . S
C1389 C1390 1.524 . S
C1389 H1392 0.999 . S
C1390 H1360 0.950 . S
C1390 C1389 1.524 . S
C1390 C1391 1.415 . S
C1391 H1361 0.950 . S
C1391 C1386 1.363 . S
C1391 C1390 1.415 . S
H1392 C1389 0.999 . S
H1393 C1374 0.913 . S
H1394 C1412 0.951 . S
H1395 C1414 0.951 . S
H1396 C1416 0.950 . S
H1397 C1417 0.950 . S
H1398 C1419 0.950 . S
H1399 C1422 0.950 . S
H1400 C1423 0.950 . S
H1401 C1425 0.950 . S
H1402 C1426 0.950 . S
H1403 C1427 0.951 . S
H1404 C1429 0.951 . S
H1405 C1431 0.950 . S
H1406 C1432 0.950 . S
H1407 C1434 0.950 . S
H1408 C1437 0.950 . S
H1409 C1438 0.950 . S
H1410 C1440 0.950 . S
H1411 C1441 0.950 . S
C1412 H1394 0.951 . S
C1412 C1413 1.366 . S
C1412 C1414 1.388 . S
C1413 C1412 1.366 . S
C1413 C1417 1.385 . S
C1414 H1395 0.951 . S
C1414 C1412 1.388 . S
C1414 C1415 1.366 . S
C1415 C1414 1.366 . S
C1415 C1416 1.414 . S
C1415 C1418 1.499 . S
C1416 H1396 0.950 . S
C1416 C1415 1.414 . S
C1416 C1417 1.374 . S
C1417 H1397 0.950 . S
C1417 C1413 1.385 . S
C1417 C1416 1.374 . S
C1418 C1415 1.499 . S
C1418 C1419 1.373 . S
C1418 C1420 1.389 . S
C1419 H1398 0.950 . S
C1419 C1418 1.373 . S
C1419 C1435 1.377 . S
C1420 C1418 1.389 . S
C1420 C1421 1.524 . S
C1420 C1434 1.377 . S
C1421 C1420 1.524 . S
C1421 C1422 1.397 . S
C1421 C1426 1.363 . S
C1422 H1399 0.950 . S
C1422 C1421 1.397 . S
C1422 C1423 1.334 . S
C1423 H1400 0.950 . S
C1423 C1422 1.334 . S
C1423 C1424 1.287 . S
C1424 C1423 1.287 . S
C1424 C1425 1.524 . S
C1424 H1443 0.913 . S
C1425 H1401 0.950 . S
C1425 C1424 1.524 . S
C1425 C1426 1.415 . S
C1426 H1402 0.950 . S
C1426 C1421 1.363 . S
C1426 C1425 1.415 . S
C1427 H1403 0.951 . S
C1427 C1428 1.366 . S
C1427 C1429 1.388 . S
C1428 C1427 1.366 . S
C1428 C1432 1.385 . S
C1429 H1404 0.951 . S
C1429 C1427 1.388 . S
C1429 C1430 1.366 . S
C1430 C1429 1.366 . S
C1430 C1431 1.414 . S
C1430 C1433 1.499 . S
C1431 H1405 0.950 . S
C1431 C1430 1.414 . S
C1431 C1432 1.374 . S
C1432 H1406 0.950 . S
C1432 C1428 1.385 . S
C1432 C1431 1.374 . S
C1433 C1430 1.499 . S
C1433 C1434 1.373 . S
C1433 C1435 1.389 . S
C1434 H1407 0.950 . S
C1434 C1420 1.377 . S
C1434 C1433 1.373 . S
C1435 C1419 1.377 . S
C1435 C1433 1.389 . S
C1435 C1436 1.524 . S
C1436 C1435 1.524 . S
C1436 C1437 1.397 . S
C1436 C1441 1.363 . S
C1437 H1408 0.950 . S
C1437 C1436 1.397 . S
C1437 C1438 1.334 . S
C1438 H1409 0.950 . S
C1438 C1437 1.334 . S
C1438 C1439 1.287 . S
C1439 C1438 1.287 . S
C1439 C1440 1.524 . S
C1439 H1442 0.999 . S
C1440 H1410 0.950 . S
C1440 C1439 1.524 . S
C1440 C1441 1.415 . S
C1441 H1411 0.950 . S
C1441 C1436 1.363 . S
C1441 C1440 1.415 . S
H1442 C1439 0.999 . S
H1443 C1424 0.913 . S
H1444 C1462 0.951 . S
H1445 C1464 0.951 . S
H1446 C1466 0.950 . S
H1447 C1467 0.950 . S
H1448 C1469 0.950 . S
H1449 C1472 0.950 . S
H1450 C1473 0.950 . S
H1451 C1475 0.950 . S
H1452 C1476 0.950 . S
H1453 C1477 0.951 . S
H1454 C1479 0.951 . S
H1455 C1481 0.950 . S
H1456 C1482 0.950 . S
H1457 C1484 0.950 . S
H1458 C1487 0.950 . S
H1459 C1488 0.950 . S
H1460 C1490 0.950 . S
H1461 C1491 0.950 . S
C1462 H1444 0.951 . S
C1462 C1463 1.366 . S
C1462 C1464 1.388 . S
C1463 C1462 1.366 . S
C1463 C1467 1.385 . S
C1464 H1445 0.951 . S
C1464 C1462 1.388 . S
C1464 C1465 1.366 . S
C1465 C1464 1.366 . S
C1465 C1466 1.414 . S
C1465 C1468 1.499 . S
C1466 H1446 0.950 . S
C1466 C1465 1.414 . S
C1466 C1467 1.374 . S
C1467 H1447 0.950 . S
C1467 C1463 1.385 . S
C1467 C1466 1.374 . S
C1468 C1465 1.499 . S
C1468 C1469 1.373 . S
C1468 C1470 1.389 . S
C1469 H1448 0.950 . S
C1469 C1468 1.373 . S
C1469 C1485 1.377 . S
C1470 C1468 1.389 . S
C1470 C1471 1.524 . S
C1470 C1484 1.377 . S
C1471 C1470 1.524 . S
C1471 C1472 1.397 . S
C1471 C1476 1.363 . S
C1472 H1449 0.950 . S
C1472 C1471 1.397 . S
C1472 C1473 1.334 . S
C1473 H1450 0.950 . S
C1473 C1472 1.334 . S
C1473 C1474 1.287 . S
C1474 C1473 1.287 . S
C1474 C1475 1.524 . S
C1474 H1493 0.913 . S
C1475 H1451 0.950 . S
C1475 C1474 1.524 . S
C1475 C1476 1.415 . S
C1476 H1452 0.950 . S
C1476 C1471 1.363 . S
C1476 C1475 1.415 . S
C1477 H1453 0.951 . S
C1477 C1478 1.366 . S
C1477 C1479 1.388 . S
C1478 C1477 1.366 . S
C1478 C1482 1.385 . S
C1479 H1454 0.951 . S
C1479 C1477 1.388 . S
C1479 C1480 1.366 . S
C1480 C1479 1.366 . S
C1480 C1481 1.414 . S
C1480 C1483 1.499 . S
C1481 H1455 0.950 . S
C1481 C1480 1.414 . S
C1481 C1482 1.374 . S
C1482 H1456 0.950 . S
C1482 C1478 1.385 . S
C1482 C1481 1.374 . S
C1483 C1480 1.499 . S
C1483 C1484 1.373 . S
C1483 C1485 1.389 . S
C1484 H1457 0.950 . S
C1484 C1470 1.377 . S
C1484 C1483 1.373 . S
C1485 C1469 1.377 . S
C1485 C1483 1.389 . S
C1485 C1486 1.524 . S
C1486 C1485 1.524 . S
C1486 C1487 1.397 . S
C1486 C1491 1.363 . S
C1487 H1458 0.950 . S
C1487 C1486 1.397 . S
C1487 C1488 1.334 . S
C1488 H1459 0.950 . S
C1488 C1487 1.334 . S
C1488 C1489 1.287 . S
C1489 C1488 1.287 . S
C1489 C1490 1.524 . S
C1489 H1492 0.999 . S
C1490 H1460 0.950 . S
C1490 C1489 1.524 . S
C1490 C1491 1.415 . S
C1491 H1461 0.950 . S
C1491 C1486 1.363 . S
C1491 C1490 1.415 . S
H1492 C1489 0.999 . S
H1493 C1474 0.913 . S
H1494 C1512 0.951 . S
H1495 C1514 0.951 . S
H1496 C1516 0.950 . S
H1497 C1517 0.950 . S
H1498 C1519 0.950 . S
H1499 C1522 0.950 . S
H1500 C1523 0.950 . S
H1501 C1525 0.950 . S
H1502 C1526 0.950 . S
H1503 C1527 0.951 . S
H1504 C1529 0.951 . S
H1505 C1531 0.950 . S
H1506 C1532 0.950 . S
H1507 C1534 0.950 . S
H1508 C1537 0.950 . S
H1509 C1538 0.950 . S
H1510 C1540 0.950 . S
H1511 C1541 0.950 . S
C1512 H1494 0.951 . S
C1512 C1513 1.366 . S
C1512 C1514 1.388 . S
C1513 C1512 1.366 . S
C1513 C1517 1.385 . S
C1514 H1495 0.951 . S
C1514 C1512 1.388 . S
C1514 C1515 1.366 . S
C1515 C1514 1.366 . S
C1515 C1516 1.414 . S
C1515 C1518 1.499 . S
C1516 H1496 0.950 . S
C1516 C1515 1.414 . S
C1516 C1517 1.374 . S
C1517 H1497 0.950 . S
C1517 C1513 1.385 . S
C1517 C1516 1.374 . S
C1518 C1515 1.499 . S
C1518 C1519 1.373 . S
C1518 C1520 1.389 . S
C1519 H1498 0.950 . S
C1519 C1518 1.373 . S
C1519 C1535 1.377 . S
C1520 C1518 1.389 . S
C1520 C1521 1.524 . S
C1520 C1534 1.377 . S
C1521 C1520 1.524 . S
C1521 C1522 1.397 . S
C1521 C1526 1.363 . S
C1522 H1499 0.950 . S
C1522 C1521 1.397 . S
C1522 C1523 1.334 . S
C1523 H1500 0.950 . S
C1523 C1522 1.334 . S
C1523 C1524 1.287 . S
C1524 C1523 1.287 . S
C1524 C1525 1.524 . S
C1524 H1543 0.913 . S
C1525 H1501 0.950 . S
C1525 C1524 1.524 . S
C1525 C1526 1.415 . S
C1526 H1502 0.950 . S
C1526 C1521 1.363 . S
C1526 C1525 1.415 . S
C1527 H1503 0.951 . S
C1527 C1528 1.366 . S
C1527 C1529 1.388 . S
C1528 C1527 1.366 . S
C1528 C1532 1.385 . S
C1529 H1504 0.951 . S
C1529 C1527 1.388 . S
C1529 C1530 1.366 . S
C1530 C1529 1.366 . S
C1530 C1531 1.414 . S
C1530 C1533 1.499 . S
C1531 H1505 0.950 . S
C1531 C1530 1.414 . S
C1531 C1532 1.374 . S
C1532 H1506 0.950 . S
C1532 C1528 1.385 . S
C1532 C1531 1.374 . S
C1533 C1530 1.499 . S
C1533 C1534 1.373 . S
C1533 C1535 1.389 . S
C1534 H1507 0.950 . S
C1534 C1520 1.377 . S
C1534 C1533 1.373 . S
C1535 C1519 1.377 . S
C1535 C1533 1.389 . S
C1535 C1536 1.524 . S
C1536 C1535 1.524 . S
C1536 C1537 1.397 . S
C1536 C1541 1.363 . S
C1537 H1508 0.950 . S
C1537 C1536 1.397 . S
C1537 C1538 1.334 . S
C1538 H1509 0.950 . S
C1538 C1537 1.334 . S
C1538 C1539 1.287 . S
C1539 C1538 1.287 . S
C1539 C1540 1.524 . S
C1539 H1542 0.999 . S
C1540 H1510 0.950 . S
C1540 C1539 1.524 . S
C1540 C1541 1.415 . S
C1541 H1511 0.950 . S
C1541 C1536 1.363 . S
C1541 C1540 1.415 . S
H1542 C1539 0.999 . S
H1543 C1524 0.913 . S
H1544 C1562 0.951 . S
H1545 C1564 0.951 . S
H1546 C1566 0.950 . S
H1547 C1567 0.950 . S
H1548 C1569 0.950 . S
H1549 C1572 0.950 . S
H1550 C1573 0.950 . S
H1551 C1575 0.950 . S
H1552 C1576 0.950 . S
H1553 C1577 0.951 . S
H1554 C1579 0.951 . S
H1555 C1581 0.950 . S
H1556 C1582 0.950 . S
H1557 C1584 0.950 . S
H1558 C1587 0.950 . S
H1559 C1588 0.950 . S
H1560 C1590 0.950 . S
H1561 C1591 0.950 . S
C1562 H1544 0.951 . S
C1562 C1563 1.366 . S
C1562 C1564 1.388 . S
C1563 C1562 1.366 . S
C1563 C1567 1.385 . S
C1564 H1545 0.951 . S
C1564 C1562 1.388 . S
C1564 C1565 1.366 . S
C1565 C1564 1.366 . S
C1565 C1566 1.414 . S
C1565 C1568 1.499 . S
C1566 H1546 0.950 . S
C1566 C1565 1.414 . S
C1566 C1567 1.374 . S
C1567 H1547 0.950 . S
C1567 C1563 1.385 . S
C1567 C1566 1.374 . S
C1568 C1565 1.499 . S
C1568 C1569 1.373 . S
C1568 C1570 1.389 . S
C1569 H1548 0.950 . S
C1569 C1568 1.373 . S
C1569 C1585 1.377 . S
C1570 C1568 1.389 . S
C1570 C1571 1.524 . S
C1570 C1584 1.377 . S
C1571 C1570 1.524 . S
C1571 C1572 1.397 . S
C1571 C1576 1.363 . S
C1572 H1549 0.950 . S
C1572 C1571 1.397 . S
C1572 C1573 1.334 . S
C1573 H1550 0.950 . S
C1573 C1572 1.334 . S
C1573 C1574 1.287 . S
C1574 C1573 1.287 . S
C1574 C1575 1.524 . S
C1574 H1593 0.913 . S
C1575 H1551 0.950 . S
C1575 C1574 1.524 . S
C1575 C1576 1.415 . S
C1576 H1552 0.950 . S
C1576 C1571 1.363 . S
C1576 C1575 1.415 . S
C1577 H1553 0.951 . S
C1577 C1578 1.366 . S
C1577 C1579 1.388 . S
C1578 C1577 1.366 . S
C1578 C1582 1.385 . S
C1579 H1554 0.951 . S
C1579 C1577 1.388 . S
C1579 C1580 1.366 . S
C1580 C1579 1.366 . S
C1580 C1581 1.414 . S
C1580 C1583 1.499 . S
C1581 H1555 0.950 . S
C1581 C1580 1.414 . S
C1581 C1582 1.374 . S
C1582 H1556 0.950 . S
C1582 C1578 1.385 . S
C1582 C1581 1.374 . S
C1583 C1580 1.499 . S
C1583 C1584 1.373 . S
C1583 C1585 1.389 . S
C1584 H1557 0.950 . S
C1584 C1570 1.377 . S
C1584 C1583 1.373 . S
C1585 C1569 1.377 . S
C1585 C1583 1.389 . S
C1585 C1586 1.524 . S
C1586 C1585 1.524 . S
C1586 C1587 1.397 . S
C1586 C1591 1.363 . S
C1587 H1558 0.950 . S
C1587 C1586 1.397 . S
C1587 C1588 1.334 . S
C1588 H1559 0.950 . S
C1588 C1587 1.334 . S
C1588 C1589 1.287 . S
C1589 C1588 1.287 . S
C1589 C1590 1.524 . S
C1589 H1592 0.999 . S
C1590 H1560 0.950 . S
C1590 C1589 1.524 . S
C1590 C1591 1.415 . S
C1591 H1561 0.950 . S
C1591 C1586 1.363 . S
C1591 C1590 1.415 . S
H1592 C1589 0.999 . S
H1593 C1574 0.913 . S
H1594 C1612 0.951 . S
H1595 C1614 0.951 . S
H1596 C1616 0.950 . S
H1597 C1617 0.950 . S
H1598 C1619 0.950 . S
H1599 C1622 0.950 . S
H1600 C1623 0.950 . S
H1601 C1625 0.950 . S
H1602 C1626 0.950 . S
H1603 C1627 0.951 . S
H1604 C1629 0.951 . S
H1605 C1631 0.950 . S
H1606 C1632 0.950 . S
H1607 C1634 0.950 . S
H1608 C1637 0.950 . S
H1609 C1638 0.950 . S
H1610 C1640 0.950 . S
H1611 C1641 0.950 . S
C1612 H1594 0.951 . S
C1612 C1613 1.366 . S
C1612 C1614 1.388 . S
C1613 C1612 1.366 . S
C1613 C1617 1.385 . S
C1614 H1595 0.951 . S
C1614 C1612 1.388 . S
C1614 C1615 1.366 . S
C1615 C1614 1.366 . S
C1615 C1616 1.414 . S
C1615 C1618 1.499 . S
C1616 H1596 0.950 . S
C1616 C1615 1.414 . S
C1616 C1617 1.374 . S
C1617 H1597 0.950 . S
C1617 C1613 1.385 . S
C1617 C1616 1.374 . S
C1618 C1615 1.499 . S
C1618 C1619 1.373 . S
C1618 C1620 1.389 . S
C1619 H1598 0.950 . S
C1619 C1618 1.373 . S
C1619 C1635 1.377 . S
C1620 C1618 1.389 . S
C1620 C1621 1.524 . S
C1620 C1634 1.377 . S
C1621 C1620 1.524 . S
C1621 C1622 1.397 . S
C1621 C1626 1.363 . S
C1622 H1599 0.950 . S
C1622 C1621 1.397 . S
C1622 C1623 1.334 . S
C1623 H1600 0.950 . S
C1623 C1622 1.334 . S
C1623 C1624 1.287 . S
C1624 C1623 1.287 . S
C1624 C1625 1.524 . S
C1624 H1643 0.913 . S
C1625 H1601 0.950 . S
C1625 C1624 1.524 . S
C1625 C1626 1.415 . S
C1626 H1602 0.950 . S
C1626 C1621 1.363 . S
C1626 C1625 1.415 . S
C1627 H1603 0.951 . S
C1627 C1628 1.366 . S
C1627 C1629 1.388 . S
C1628 C1627 1.366 . S
C1628 C1632 1.385 . S
C1629 H1604 0.951 . S
C1629 C1627 1.388 . S
C1629 C1630 1.366 . S
C1630 C1629 1.366 . S
C1630 C1631 1.414 . S
C1630 C1633 1.499 . S
C1631 H1605 0.950 . S
C1631 C1630 1.414 . S
C1631 C1632 1.374 . S
C1632 H1606 0.950 . S
C1632 C1628 1.385 . S
C1632 C1631 1.374 . S
C1633 C1630 1.499 . S
C1633 C1634 1.373 . S
C1633 C1635 1.389 . S
C1634 H1607 0.950 . S
C1634 C1620 1.377 . S
C1634 C1633 1.373 . S
C1635 C1619 1.377 . S
C1635 C1633 1.389 . S
C1635 C1636 1.524 . S
C1636 C1635 1.524 . S
C1636 C1637 1.397 . S
C1636 C1641 1.363 . S
C1637 H1608 0.950 . S
C1637 C1636 1.397 . S
C1637 C1638 1.334 . S
C1638 H1609 0.950 . S
C1638 C1637 1.334 . S
C1638 C1639 1.287 . S
C1639 C1638 1.287 . S
C1639 C1640 1.524 . S
C1639 H1642 0.999 . S
C1640 H1610 0.950 . S
C1640 C1639 1.524 . S
C1640 C1641 1.415 . S
C1641 H1611 0.950 . S
C1641 C1636 1.363 . S
C1641 C1640 1.415 . S
H1642 C1639 0.999 . S
H1643 C1624 0.913 . S
H1644 C1662 0.951 . S
H1645 C1664 0.951 . S
H1646 C1666 0.950 . S
H1647 C1667 0.950 . S
H1648 C1669 0.950 . S
H1649 C1672 0.950 . S
H1650 C1673 0.950 . S
H1651 C1675 0.950 . S
H1652 C1676 0.950 . S
H1653 C1677 0.951 . S
H1654 C1679 0.951 . S
H1655 C1681 0.950 . S
H1656 C1682 0.950 . S
H1657 C1684 0.950 . S
H1658 C1687 0.950 . S
H1659 C1688 0.950 . S
H1660 C1690 0.950 . S
H1661 C1691 0.950 . S
C1662 H1644 0.951 . S
C1662 C1663 1.366 . S
C1662 C1664 1.388 . S
C1663 C1662 1.366 . S
C1663 C1667 1.385 . S
C1664 H1645 0.951 . S
C1664 C1662 1.388 . S
C1664 C1665 1.366 . S
C1665 C1664 1.366 . S
C1665 C1666 1.414 . S
C1665 C1668 1.499 . S
C1666 H1646 0.950 . S
C1666 C1665 1.414 . S
C1666 C1667 1.374 . S
C1667 H1647 0.950 . S
C1667 C1663 1.385 . S
C1667 C1666 1.374 . S
C1668 C1665 1.499 . S
C1668 C1669 1.373 . S
C1668 C1670 1.389 . S
C1669 H1648 0.950 . S
C1669 C1668 1.373 . S
C1669 C1685 1.377 1_545 S
C1670 C1668 1.389 . S
C1670 C1671 1.524 . S
C1670 C1684 1.377 1_545 S
C1671 C1670 1.524 . S
C1671 C1672 1.397 . S
C1671 C1676 1.363 1_545 S
C1672 H1649 0.950 . S
C1672 C1671 1.397 . S
C1672 C1673 1.334 . S
C1673 H1650 0.950 . S
C1673 C1672 1.334 . S
C1673 C1674 1.287 . S
C1674 C1673 1.287 . S
C1674 C1675 1.524 1_545 S
C1674 H1693 0.913 . S
C1675 H1651 0.950 . S
C1675 C1674 1.524 1_565 S
C1675 C1676 1.415 . S
C1676 H1652 0.950 . S
C1676 C1671 1.363 1_565 S
C1676 C1675 1.415 . S
C1677 H1653 0.951 . S
C1677 C1678 1.366 . S
C1677 C1679 1.388 . S
C1678 C1677 1.366 . S
C1678 C1682 1.385 . S
C1679 H1654 0.951 . S
C1679 C1677 1.388 . S
C1679 C1680 1.366 . S
C1680 C1679 1.366 . S
C1680 C1681 1.414 . S
C1680 C1683 1.499 . S
C1681 H1655 0.950 . S
C1681 C1680 1.414 . S
C1681 C1682 1.374 . S
C1682 H1656 0.950 . S
C1682 C1678 1.385 . S
C1682 C1681 1.374 . S
C1683 C1680 1.499 . S
C1683 C1684 1.373 . S
C1683 C1685 1.389 . S
C1684 H1657 0.950 . S
C1684 C1670 1.377 1_565 S
C1684 C1683 1.373 . S
C1685 C1669 1.377 1_565 S
C1685 C1683 1.389 . S
C1685 C1686 1.524 . S
C1686 C1685 1.524 . S
C1686 C1687 1.397 . S
C1686 C1691 1.363 1_565 S
C1687 H1658 0.950 . S
C1687 C1686 1.397 . S
C1687 C1688 1.334 . S
C1688 H1659 0.950 . S
C1688 C1687 1.334 . S
C1688 C1689 1.287 . S
C1689 C1688 1.287 . S
C1689 C1690 1.524 1_565 S
C1689 H1692 0.999 . S
C1690 H1660 0.950 . S
C1690 C1689 1.524 1_545 S
C1690 C1691 1.415 . S
C1691 H1661 0.950 . S
C1691 C1686 1.363 1_545 S
C1691 C1690 1.415 . S
H1692 C1689 0.999 . S
H1693 C1674 0.913 . S
H1694 C1712 0.951 . S
H1695 C1714 0.951 . S
H1696 C1716 0.950 . S
H1697 C1717 0.950 . S
H1698 C1719 0.950 . S
H1699 C1722 0.950 . S
H1700 C1723 0.950 . S
H1701 C1725 0.950 . S
H1702 C1726 0.950 . S
H1703 C1727 0.951 . S
H1704 C1729 0.951 . S
H1705 C1731 0.950 . S
H1706 C1732 0.950 . S
H1707 C1734 0.950 . S
H1708 C1737 0.950 . S
H1709 C1738 0.950 . S
H1710 C1740 0.950 . S
H1711 C1741 0.950 . S
C1712 H1694 0.951 . S
C1712 C1713 1.366 . S
C1712 C1714 1.388 . S
C1713 C1712 1.366 . S
C1713 C1717 1.385 . S
C1714 H1695 0.951 . S
C1714 C1712 1.388 . S
C1714 C1715 1.366 . S
C1715 C1714 1.366 . S
C1715 C1716 1.414 . S
C1715 C1718 1.499 . S
C1716 H1696 0.950 . S
C1716 C1715 1.414 . S
C1716 C1717 1.374 . S
C1717 H1697 0.950 . S
C1717 C1713 1.385 . S
C1717 C1716 1.374 . S
C1718 C1715 1.499 . S
C1718 C1719 1.373 1_655 S
C1718 C1720 1.402 . S
C1719 H1698 0.950 . S
C1719 C1718 1.373 1_455 S
C1719 C1735 1.377 . S
C1720 C1718 1.402 . S
C1720 C1721 1.531 . S
C1720 C1734 1.356 1_655 S
C1721 C1720 1.531 . S
C1721 C1722 1.397 . S
C1721 C1726 1.363 . S
C1722 H1699 0.950 . S
C1722 C1721 1.397 . S
C1722 C1723 1.334 . S
C1723 H1700 0.950 . S
C1723 C1722 1.334 . S
C1723 C1724 1.287 . S
C1724 C1723 1.287 . S
C1724 C1725 1.524 . S
C1724 H1743 0.913 . S
C1725 H1701 0.950 . S
C1725 C1724 1.524 . S
C1725 C1726 1.415 . S
C1726 H1702 0.950 . S
C1726 C1721 1.363 . S
C1726 C1725 1.415 . S
C1727 H1703 0.951 . S
C1727 C1728 1.366 . S
C1727 C1729 1.388 . S
C1728 C1727 1.366 . S
C1728 C1732 1.385 . S
C1729 H1704 0.951 . S
C1729 C1727 1.388 . S
C1729 C1730 1.366 . S
C1730 C1729 1.366 . S
C1730 C1731 1.414 . S
C1730 C1733 1.499 . S
C1731 H1705 0.950 . S
C1731 C1730 1.414 . S
C1731 C1732 1.374 . S
C1732 H1706 0.950 . S
C1732 C1728 1.385 . S
C1732 C1731 1.374 . S
C1733 C1730 1.499 . S
C1733 C1734 1.373 . S
C1733 C1735 1.389 . S
C1734 H1707 0.950 . S
C1734 C1720 1.356 1_455 S
C1734 C1733 1.373 . S
C1735 C1719 1.377 . S
C1735 C1733 1.389 . S
C1735 C1736 1.524 . S
C1736 C1735 1.524 . S
C1736 C1737 1.397 . S
C1736 C1741 1.363 . S
C1737 H1708 0.950 . S
C1737 C1736 1.397 . S
C1737 C1738 1.334 . S
C1738 H1709 0.950 . S
C1738 C1737 1.334 . S
C1738 C1739 1.287 . S
C1739 C1738 1.287 . S
C1739 C1740 1.524 . S
C1739 H1742 0.999 . S
C1740 H1710 0.950 . S
C1740 C1739 1.524 . S
C1740 C1741 1.415 . S
C1741 H1711 0.950 . S
C1741 C1736 1.363 . S
C1741 C1740 1.415 . S
H1742 C1739 0.999 . S
H1743 C1724 0.913 . S
H1744 C1762 0.951 . S
H1745 C1764 0.951 . S
H1746 C1766 0.950 . S
H1747 C1767 0.950 . S
H1748 C1769 0.950 . S
H1749 C1772 0.950 . S
H1750 C1773 0.950 . S
H1751 C1775 0.950 . S
H1752 C1776 0.950 . S
H1753 C1777 0.951 . S
H1754 C1779 0.951 . S
H1755 C1781 0.950 . S
H1756 C1782 0.950 . S
H1757 C1784 0.950 . S
H1758 C1787 0.950 . S
H1759 C1788 0.950 . S
H1760 C1790 0.950 . S
H1761 C1791 0.950 . S
C1762 H1744 0.951 . S
C1762 C1763 1.366 . S
C1762 C1764 1.388 . S
C1763 C1762 1.366 . S
C1763 C1767 1.385 . S
C1764 H1745 0.951 . S
C1764 C1762 1.388 . S
C1764 C1765 1.366 . S
C1765 C1764 1.366 . S
C1765 C1766 1.414 . S
C1765 C1768 1.499 . S
C1766 H1746 0.950 . S
C1766 C1765 1.414 . S
C1766 C1767 1.374 . S
C1767 H1747 0.950 . S
C1767 C1763 1.385 . S
C1767 C1766 1.374 . S
C1768 C1765 1.499 . S
C1768 C1769 1.373 . S
C1768 C1770 1.389 . S
C1769 H1748 0.950 . S
C1769 C1768 1.373 . S
C1769 C1785 1.377 . S
C1770 C1768 1.389 . S
C1770 C1771 1.524 . S
C1770 C1784 1.377 . S
C1771 C1770 1.524 . S
C1771 C1772 1.397 . S
C1771 C1776 1.363 . S
C1772 H1749 0.950 . S
C1772 C1771 1.397 . S
C1772 C1773 1.334 . S
C1773 H1750 0.950 . S
C1773 C1772 1.334 . S
C1773 C1774 1.287 . S
C1774 C1773 1.287 . S
C1774 C1775 1.524 . S
C1774 H1793 0.913 . S
C1775 H1751 0.950 . S
C1775 C1774 1.524 . S
C1775 C1776 1.415 . S
C1776 H1752 0.950 . S
C1776 C1771 1.363 . S
C1776 C1775 1.415 . S
C1777 H1753 0.951 . S
C1777 C1778 1.366 . S
C1777 C1779 1.388 . S
C1778 C1777 1.366 . S
C1778 C1782 1.385 . S
C1779 H1754 0.951 . S
C1779 C1777 1.388 . S
C1779 C1780 1.366 . S
C1780 C1779 1.366 . S
C1780 C1781 1.414 . S
C1780 C1783 1.499 . S
C1781 H1755 0.950 . S
C1781 C1780 1.414 . S
C1781 C1782 1.374 . S
C1782 H1756 0.950 . S
C1782 C1778 1.385 . S
C1782 C1781 1.374 . S
C1783 C1780 1.499 . S
C1783 C1784 1.373 . S
C1783 C1785 1.389 . S
C1784 H1757 0.950 . S
C1784 C1770 1.377 . S
C1784 C1783 1.373 . S
C1785 C1769 1.377 . S
C1785 C1783 1.389 . S
C1785 C1786 1.524 . S
C1786 C1785 1.524 . S
C1786 C1787 1.397 . S
C1786 C1791 1.363 . S
C1787 H1758 0.950 . S
C1787 C1786 1.397 . S
C1787 C1788 1.334 . S
C1788 H1759 0.950 . S
C1788 C1787 1.334 . S
C1788 C1789 1.287 . S
C1789 C1788 1.287 . S
C1789 C1790 1.524 . S
C1789 H1792 0.999 . S
C1790 H1760 0.950 . S
C1790 C1789 1.524 . S
C1790 C1791 1.415 . S
C1791 H1761 0.950 . S
C1791 C1786 1.363 . S
C1791 C1790 1.415 . S
H1792 C1789 0.999 . S
H1793 C1774 0.913 . S
H1794 C1812 0.951 . S
H1795 C1814 0.951 . S
H1796 C1816 0.950 . S
H1797 C1817 0.950 . S
H1798 C1819 0.950 . S
H1799 C1822 0.950 . S
H1800 C1823 0.950 . S
H1801 C1825 0.950 . S
H1802 C1826 0.950 . S
H1803 C1827 0.951 . S
H1804 C1829 0.951 . S
H1805 C1831 0.950 . S
H1806 C1832 0.950 . S
H1807 C1834 0.950 . S
H1808 C1837 0.950 . S
H1809 C1838 0.950 . S
H1810 C1840 0.950 . S
H1811 C1841 0.950 . S
C1812 H1794 0.951 . S
C1812 C1813 1.366 . S
C1812 C1814 1.388 . S
C1813 C1812 1.366 . S
C1813 C1817 1.385 . S
C1814 H1795 0.951 . S
C1814 C1812 1.388 . S
C1814 C1815 1.366 . S
C1815 C1814 1.366 . S
C1815 C1816 1.414 . S
C1815 C1818 1.499 . S
C1816 H1796 0.950 . S
C1816 C1815 1.414 . S
C1816 C1817 1.374 . S
C1817 H1797 0.950 . S
C1817 C1813 1.385 . S
C1817 C1816 1.374 . S
C1818 C1815 1.499 . S
C1818 C1819 1.373 . S
C1818 C1820 1.389 . S
C1819 H1798 0.950 . S
C1819 C1818 1.373 . S
C1819 C1835 1.377 . S
C1820 C1818 1.389 . S
C1820 C1821 1.524 . S
C1820 C1834 1.377 . S
C1821 C1820 1.524 . S
C1821 C1822 1.397 . S
C1821 C1826 1.363 . S
C1822 H1799 0.950 . S
C1822 C1821 1.397 . S
C1822 C1823 1.334 . S
C1823 H1800 0.950 . S
C1823 C1822 1.334 . S
C1823 C1824 1.287 . S
C1824 C1823 1.287 . S
C1824 C1825 1.524 . S
C1824 H1843 0.913 . S
C1825 H1801 0.950 . S
C1825 C1824 1.524 . S
C1825 C1826 1.415 . S
C1826 H1802 0.950 . S
C1826 C1821 1.363 . S
C1826 C1825 1.415 . S
C1827 H1803 0.951 . S
C1827 C1828 1.366 . S
C1827 C1829 1.388 . S
C1828 C1827 1.366 . S
C1828 C1832 1.385 . S
C1829 H1804 0.951 . S
C1829 C1827 1.388 . S
C1829 C1830 1.366 . S
C1830 C1829 1.366 . S
C1830 C1831 1.414 . S
C1830 C1833 1.499 . S
C1831 H1805 0.950 . S
C1831 C1830 1.414 . S
C1831 C1832 1.374 . S
C1832 H1806 0.950 . S
C1832 C1828 1.385 . S
C1832 C1831 1.374 . S
C1833 C1830 1.499 . S
C1833 C1834 1.373 . S
C1833 C1835 1.389 . S
C1834 H1807 0.950 . S
C1834 C1820 1.377 . S
C1834 C1833 1.373 . S
C1835 C1819 1.377 . S
C1835 C1833 1.389 . S
C1835 C1836 1.524 . S
C1836 C1835 1.524 . S
C1836 C1837 1.397 . S
C1836 C1841 1.363 . S
C1837 H1808 0.950 . S
C1837 C1836 1.397 . S
C1837 C1838 1.334 . S
C1838 H1809 0.950 . S
C1838 C1837 1.334 . S
C1838 C1839 1.287 . S
C1839 C1838 1.287 . S
C1839 C1840 1.524 . S
C1839 H1842 0.999 . S
C1840 H1810 0.950 . S
C1840 C1839 1.524 . S
C1840 C1841 1.415 . S
C1841 H1811 0.950 . S
C1841 C1836 1.363 . S
C1841 C1840 1.415 . S
H1842 C1839 0.999 . S
H1843 C1824 0.913 . S
H1844 C1862 0.951 . S
H1845 C1864 0.951 . S
H1846 C1866 0.950 . S
H1847 C1867 0.950 . S
H1848 C1869 0.950 . S
H1849 C1872 0.950 . S
H1850 C1873 0.950 . S
H1851 C1875 0.950 . S
H1852 C1876 0.950 . S
H1853 C1877 0.951 . S
H1854 C1879 0.951 . S
H1855 C1881 0.950 . S
H1856 C1882 0.950 . S
H1857 C1884 0.950 . S
H1858 C1887 0.950 . S
H1859 C1888 0.950 . S
H1860 C1890 0.950 . S
H1861 C1891 0.950 . S
C1862 H1844 0.951 . S
C1862 C1863 1.366 . S
C1862 C1864 1.388 . S
C1863 C1862 1.366 . S
C1863 C1867 1.385 . S
C1864 H1845 0.951 . S
C1864 C1862 1.388 . S
C1864 C1865 1.366 . S
C1865 C1864 1.366 . S
C1865 C1866 1.414 . S
C1865 C1868 1.499 . S
C1866 H1846 0.950 . S
C1866 C1865 1.414 . S
C1866 C1867 1.374 . S
C1867 H1847 0.950 . S
C1867 C1863 1.385 . S
C1867 C1866 1.374 . S
C1868 C1865 1.499 . S
C1868 C1869 1.373 . S
C1868 C1870 1.389 . S
C1869 H1848 0.950 . S
C1869 C1868 1.373 . S
C1869 C1885 1.377 . S
C1870 C1868 1.389 . S
C1870 C1871 1.524 . S
C1870 C1884 1.377 . S
C1871 C1870 1.524 . S
C1871 C1872 1.397 . S
C1871 C1876 1.363 . S
C1872 H1849 0.950 . S
C1872 C1871 1.397 . S
C1872 C1873 1.334 . S
C1873 H1850 0.950 . S
C1873 C1872 1.334 . S
C1873 C1874 1.287 . S
C1874 C1873 1.287 . S
C1874 C1875 1.524 . S
C1874 H1893 0.913 . S
C1875 H1851 0.950 . S
C1875 C1874 1.524 . S
C1875 C1876 1.415 . S
C1876 H1852 0.950 . S
C1876 C1871 1.363 . S
C1876 C1875 1.415 . S
C1877 H1853 0.951 . S
C1877 C1878 1.366 . S
C1877 C1879 1.388 . S
C1878 C1877 1.366 . S
C1878 C1882 1.385 . S
C1879 H1854 0.951 . S
C1879 C1877 1.388 . S
C1879 C1880 1.366 . S
C1880 C1879 1.366 . S
C1880 C1881 1.414 . S
C1880 C1883 1.499 . S
C1881 H1855 0.950 . S
C1881 C1880 1.414 . S
C1881 C1882 1.374 . S
C1882 H1856 0.950 . S
C1882 C1878 1.385 . S
C1882 C1881 1.374 . S
C1883 C1880 1.499 . S
C1883 C1884 1.373 . S
C1883 C1885 1.389 . S
C1884 H1857 0.950 . S
C1884 C1870 1.377 . S
C1884 C1883 1.373 . S
C1885 C1869 1.377 . S
C1885 C1883 1.389 . S
C1885 C1886 1.524 . S
C1886 C1885 1.524 . S
C1886 C1887 1.397 . S
C1886 C1891 1.363 . S
C1887 H1858 0.950 . S
C1887 C1886 1.397 . S
C1887 C1888 1.334 . S
C1888 H1859 0.950 . S
C1888 C1887 1.334 . S
C1888 C1889 1.287 . S
C1889 C1888 1.287 . S
C1889 C1890 1.524 . S
C1889 H1892 0.999 . S
C1890 H1860 0.950 . S
C1890 C1889 1.524 . S
C1890 C1891 1.415 . S
C1891 H1861 0.950 . S
C1891 C1886 1.363 . S
C1891 C1890 1.415 . S
H1892 C1889 0.999 . S
H1893 C1874 0.913 . S
H1894 C1912 0.951 . S
H1895 C1914 0.951 . S
H1896 C1916 0.950 . S
H1897 C1917 0.950 . S
H1898 C1919 0.950 . S
H1899 C1922 0.950 . S
H1900 C1923 0.950 . S
H1901 C1925 0.950 . S
H1902 C1926 0.950 . S
H1903 C1927 0.951 . S
H1904 C1929 0.951 . S
H1905 C1931 0.950 . S
H1906 C1932 0.950 . S
H1907 C1934 0.950 . S
H1908 C1937 0.950 . S
H1909 C1938 0.950 . S
H1910 C1940 0.950 . S
H1911 C1941 0.950 . S
C1912 H1894 0.951 . S
C1912 C1913 1.366 . S
C1912 C1914 1.388 . S
C1913 C1912 1.366 . S
C1913 C1917 1.385 . S
C1914 H1895 0.951 . S
C1914 C1912 1.388 . S
C1914 C1915 1.366 . S
C1915 C1914 1.366 . S
C1915 C1916 1.414 . S
C1915 C1918 1.499 . S
C1916 H1896 0.950 . S
C1916 C1915 1.414 . S
C1916 C1917 1.374 . S
C1917 H1897 0.950 . S
C1917 C1913 1.385 . S
C1917 C1916 1.374 . S
C1918 C1915 1.499 . S
C1918 C1919 1.373 . S
C1918 C1920 1.389 . S
C1919 H1898 0.950 . S
C1919 C1918 1.373 . S
C1919 C1935 1.377 . S
C1920 C1918 1.389 . S
C1920 C1921 1.524 . S
C1920 C1934 1.377 . S
C1921 C1920 1.524 . S
C1921 C1922 1.397 . S
C1921 C1926 1.363 . S
C1922 H1899 0.950 . S
C1922 C1921 1.397 . S
C1922 C1923 1.334 . S
C1923 H1900 0.950 . S
C1923 C1922 1.334 . S
C1923 C1924 1.287 . S
C1924 C1923 1.287 . S
C1924 C1925 1.524 . S
C1924 H1943 0.913 . S
C1925 H1901 0.950 . S
C1925 C1924 1.524 . S
C1925 C1926 1.415 . S
C1926 H1902 0.950 . S
C1926 C1921 1.363 . S
C1926 C1925 1.415 . S
C1927 H1903 0.951 . S
C1927 C1928 1.366 . S
C1927 C1929 1.388 . S
C1928 C1927 1.366 . S
C1928 C1932 1.385 . S
C1929 H1904 0.951 . S
C1929 C1927 1.388 . S
C1929 C1930 1.366 . S
C1930 C1929 1.366 . S
C1930 C1931 1.414 . S
C1930 C1933 1.499 . S
C1931 H1905 0.950 . S
C1931 C1930 1.414 . S
C1931 C1932 1.374 . S
C1932 H1906 0.950 . S
C1932 C1928 1.385 . S
C1932 C1931 1.374 . S
C1933 C1930 1.499 . S
C1933 C1934 1.373 . S
C1933 C1935 1.389 . S
C1934 H1907 0.950 . S
C1934 C1920 1.377 . S
C1934 C1933 1.373 . S
C1935 C1919 1.377 . S
C1935 C1933 1.389 . S
C1935 C1936 1.524 . S
C1936 C1935 1.524 . S
C1936 C1937 1.397 . S
C1936 C1941 1.363 . S
C1937 H1908 0.950 . S
C1937 C1936 1.397 . S
C1937 C1938 1.334 . S
C1938 H1909 0.950 . S
C1938 C1937 1.334 . S
C1938 C1939 1.287 . S
C1939 C1938 1.287 . S
C1939 C1940 1.524 . S
C1939 H1942 0.999 . S
C1940 H1910 0.950 . S
C1940 C1939 1.524 . S
C1940 C1941 1.415 . S
C1941 H1911 0.950 . S
C1941 C1936 1.363 . S
C1941 C1940 1.415 . S
H1942 C1939 0.999 . S
H1943 C1924 0.913 . S
H1944 C1962 0.951 . S
H1945 C1964 0.951 . S
H1946 C1966 0.950 . S
H1947 C1967 0.950 . S
H1948 C1969 0.965 . S
H1949 C1972 0.950 . S
H1950 C1973 0.950 . S
H1951 C1975 0.950 . S
H1952 C1976 0.950 . S
H1953 C1977 0.951 . S
H1954 C1979 0.951 . S
H1955 C1981 0.950 . S
H1956 C1982 0.950 . S
H1957 C1984 0.950 . S
H1958 C1987 0.950 . S
H1959 C1988 0.950 . S
H1960 C1990 0.950 . S
H1961 C1991 0.950 . S
C1962 H1944 0.951 . S
C1962 C1963 1.366 . S
C1962 C1964 1.388 . S
C1963 C1962 1.366 . S
C1963 C1967 1.385 . S
C1964 H1945 0.951 . S
C1964 C1962 1.388 . S
C1964 C1965 1.366 . S
C1965 C1964 1.366 . S
C1965 C1966 1.414 . S
C1965 C1968 1.499 . S
C1966 H1946 0.950 . S
C1966 C1965 1.414 . S
C1966 C1967 1.374 . S
C1967 H1947 0.950 . S
C1967 C1963 1.385 . S
C1967 C1966 1.374 . S
C1968 C1965 1.499 . S
C1968 C1969 1.373 1_565 S
C1968 C1970 1.389 1_565 S
C1969 H1948 0.965 . S
C1969 C1968 1.373 1_545 S
C1969 C1985 1.377 . S
C1970 C1968 1.389 1_545 S
C1970 C1971 1.529 1_545 S
C1970 C1984 1.377 . S
C1971 C1970 1.529 1_565 S
C1971 C1972 1.404 . S
C1971 C1976 1.350 1_565 S
C1972 H1949 0.950 . S
C1972 C1971 1.404 . S
C1972 C1973 1.334 . S
C1973 H1950 0.950 . S
C1973 C1972 1.334 . S
C1973 C1974 1.287 . S
C1974 C1973 1.287 . S
C1974 C1975 1.524 . S
C1974 H1993 0.913 . S
C1975 H1951 0.950 . S
C1975 C1974 1.524 . S
C1975 C1976 1.415 1_565 S
C1976 H1952 0.950 . S
C1976 C1971 1.350 1_545 S
C1976 C1975 1.415 1_545 S
C1977 H1953 0.951 . S
C1977 C1978 1.366 . S
C1977 C1979 1.388 . S
C1978 C1977 1.366 . S
C1978 C1982 1.385 . S
C1979 H1954 0.951 . S
C1979 C1977 1.388 . S
C1979 C1980 1.366 . S
C1980 C1979 1.366 . S
C1980 C1981 1.414 . S
C1980 C1983 1.499 . S
C1981 H1955 0.950 . S
C1981 C1980 1.414 . S
C1981 C1982 1.374 . S
C1982 H1956 0.950 . S
C1982 C1978 1.385 . S
C1982 C1981 1.374 . S
C1983 C1980 1.499 . S
C1983 C1984 1.373 . S
C1983 C1985 1.389 . S
C1984 H1957 0.950 . S
C1984 C1970 1.377 . S
C1984 C1983 1.373 . S
C1985 C1969 1.377 . S
C1985 C1983 1.389 . S
C1985 C1986 1.524 . S
C1986 C1985 1.524 . S
C1986 C1987 1.397 . S
C1986 C1991 1.363 . S
C1987 H1958 0.950 . S
C1987 C1986 1.397 . S
C1987 C1988 1.334 . S
C1988 H1959 0.950 . S
C1988 C1987 1.334 . S
C1988 C1989 1.287 . S
C1989 C1988 1.287 . S
C1989 C1990 1.524 . S
C1989 H1992 0.999 . S
C1990 H1960 0.950 . S
C1990 C1989 1.524 . S
C1990 C1991 1.415 . S
C1991 H1961 0.950 . S
C1991 C1986 1.363 . S
C1991 C1990 1.415 . S
H1992 C1989 0.999 . S
H1993 C1974 0.913 . S
H1994 C2012 0.951 . S
H1995 C2014 0.951 . S
H1996 C2016 0.950 . S
H1997 C2017 0.950 . S
H1998 C2019 0.950 1_455 S
H1999 C2022 0.950 1_455 S
H2000 C2023 0.950 1_455 S
H2001 C2025 0.950 . S
H2002 C2026 0.950 . S
H2003 C2027 0.951 . S
H2004 C2029 0.951 . S
H2005 C2031 0.950 . S
H2006 C2032 0.950 . S
H2007 C2034 0.950 . S
H2008 C2037 0.950 . S
H2009 C2038 0.950 . S
H2010 C2040 0.950 . S
H2011 C2041 0.950 . S
C2012 H1994 0.951 . S
C2012 C2013 1.366 . S
C2012 C2014 1.388 . S
C2013 C2012 1.366 . S
C2013 C2017 1.385 . S
C2014 H1995 0.951 . S
C2014 C2012 1.388 . S
C2014 C2015 1.366 . S
C2015 C2014 1.366 . S
C2015 C2016 1.414 . S
C2015 C2018 1.499 1_455 S
C2016 H1996 0.950 . S
C2016 C2015 1.414 . S
C2016 C2017 1.374 . S
C2017 H1997 0.950 . S
C2017 C2013 1.385 . S
C2017 C2016 1.374 . S
C2018 C2015 1.499 1_655 S
C2018 C2019 1.373 . S
C2018 C2020 1.389 . S
C2019 H1998 0.950 1_655 S
C2019 C2018 1.373 . S
C2019 C2035 1.377 . S
C2020 C2018 1.389 . S
C2020 C2021 1.524 . S
C2020 C2034 1.377 . S
C2021 C2020 1.524 . S
C2021 C2022 1.397 . S
C2021 C2026 1.363 . S
C2022 H1999 0.950 1_655 S
C2022 C2021 1.397 . S
C2022 C2023 1.334 . S
C2023 H2000 0.950 1_655 S
C2023 C2022 1.334 . S
C2023 C2024 1.287 . S
C2024 C2023 1.287 . S
C2024 C2025 1.524 . S
C2024 H2043 0.913 . S
C2025 H2001 0.950 . S
C2025 C2024 1.524 . S
C2025 C2026 1.415 . S
C2026 H2002 0.950 . S
C2026 C2021 1.363 . S
C2026 C2025 1.415 . S
C2027 H2003 0.951 . S
C2027 C2028 1.366 . S
C2027 C2029 1.388 . S
C2028 C2027 1.366 . S
C2028 C2032 1.385 . S
C2029 H2004 0.951 . S
C2029 C2027 1.388 . S
C2029 C2030 1.366 . S
C2030 C2029 1.366 . S
C2030 C2031 1.414 . S
C2030 C2033 1.499 . S
C2031 H2005 0.950 . S
C2031 C2030 1.414 . S
C2031 C2032 1.374 . S
C2032 H2006 0.950 . S
C2032 C2028 1.385 . S
C2032 C2031 1.374 . S
C2033 C2030 1.499 . S
C2033 C2034 1.373 . S
C2033 C2035 1.389 . S
C2034 H2007 0.950 . S
C2034 C2020 1.377 . S
C2034 C2033 1.373 . S
C2035 C2019 1.377 . S
C2035 C2033 1.389 . S
C2035 C2036 1.524 . S
C2036 C2035 1.524 . S
C2036 C2037 1.397 . S
C2036 C2041 1.363 . S
C2037 H2008 0.950 . S
C2037 C2036 1.397 . S
C2037 C2038 1.334 . S
C2038 H2009 0.950 . S
C2038 C2037 1.334 . S
C2038 C2039 1.287 . S
C2039 C2038 1.287 . S
C2039 C2040 1.524 . S
C2039 H2042 0.999 . S
C2040 H2010 0.950 . S
C2040 C2039 1.524 . S
C2040 C2041 1.415 . S
C2041 H2011 0.950 . S
C2041 C2036 1.363 . S
C2041 C2040 1.415 . S
H2042 C2039 0.999 . S
H2043 C2024 0.913 . S
H2044 C2062 0.951 . S
H2045 C2064 0.951 . S
H2046 C2066 0.950 . S
H2047 C2067 0.950 . S
H2048 C2069 0.950 . S
H2049 C2072 0.950 . S
H2050 C2073 0.950 . S
H2051 C2075 0.950 . S
H2052 C2076 0.950 . S
H2053 C2077 0.951 . S
H2054 C2079 0.951 . S
H2055 C2081 0.950 . S
H2056 C2082 0.950 . S
H2057 C2084 0.950 . S
H2058 C2087 0.950 . S
H2059 C2088 0.950 . S
H2060 C2090 0.950 . S
H2061 C2091 0.950 . S
C2062 H2044 0.951 . S
C2062 C2063 1.366 . S
C2062 C2064 1.388 . S
C2063 C2062 1.366 . S
C2063 C2067 1.385 . S
C2064 H2045 0.951 . S
C2064 C2062 1.388 . S
C2064 C2065 1.366 . S
C2065 C2064 1.366 . S
C2065 C2066 1.414 . S
C2065 C2068 1.499 . S
C2066 H2046 0.950 . S
C2066 C2065 1.414 . S
C2066 C2067 1.374 . S
C2067 H2047 0.950 . S
C2067 C2063 1.385 . S
C2067 C2066 1.374 . S
C2068 C2065 1.499 . S
C2068 C2069 1.373 . S
C2068 C2070 1.389 . S
C2069 H2048 0.950 . S
C2069 C2068 1.373 . S
C2069 C2085 1.377 . S
C2070 C2068 1.389 . S
C2070 C2071 1.524 . S
C2070 C2084 1.377 . S
C2071 C2070 1.524 . S
C2071 C2072 1.397 . S
C2071 C2076 1.363 . S
C2072 H2049 0.950 . S
C2072 C2071 1.397 . S
C2072 C2073 1.334 . S
C2073 H2050 0.950 . S
C2073 C2072 1.334 . S
C2073 C2074 1.287 . S
C2074 C2073 1.287 . S
C2074 C2075 1.524 . S
C2074 H2093 0.913 . S
C2075 H2051 0.950 . S
C2075 C2074 1.524 . S
C2075 C2076 1.415 . S
C2076 H2052 0.950 . S
C2076 C2071 1.363 . S
C2076 C2075 1.415 . S
C2077 H2053 0.951 . S
C2077 C2078 1.366 . S
C2077 C2079 1.388 . S
C2078 C2077 1.366 . S
C2078 C2082 1.385 . S
C2079 H2054 0.951 . S
C2079 C2077 1.388 . S
C2079 C2080 1.366 . S
C2080 C2079 1.366 . S
C2080 C2081 1.414 . S
C2080 C2083 1.499 . S
C2081 H2055 0.950 . S
C2081 C2080 1.414 . S
C2081 C2082 1.374 . S
C2082 H2056 0.950 . S
C2082 C2078 1.385 . S
C2082 C2081 1.374 . S
C2083 C2080 1.499 . S
C2083 C2084 1.373 . S
C2083 C2085 1.389 . S
C2084 H2057 0.950 . S
C2084 C2070 1.377 . S
C2084 C2083 1.373 . S
C2085 C2069 1.377 . S
C2085 C2083 1.389 . S
C2085 C2086 1.524 . S
C2086 C2085 1.524 . S
C2086 C2087 1.397 . S
C2086 C2091 1.363 . S
C2087 H2058 0.950 . S
C2087 C2086 1.397 . S
C2087 C2088 1.334 . S
C2088 H2059 0.950 . S
C2088 C2087 1.334 . S
C2088 C2089 1.287 . S
C2089 C2088 1.287 . S
C2089 C2090 1.524 . S
C2089 H2092 0.999 . S
C2090 H2060 0.950 . S
C2090 C2089 1.524 . S
C2090 C2091 1.415 . S
C2091 H2061 0.950 . S
C2091 C2086 1.363 . S
C2091 C2090 1.415 . S
H2092 C2089 0.999 . S
H2093 C2074 0.913 . S
H2094 C2112 0.951 . S
H2095 C2114 0.951 . S
H2096 C2116 0.950 . S
H2097 C2117 0.950 . S
H2098 C2119 0.950 . S
H2099 C2122 0.950 . S
H2100 C2123 0.950 . S
H2101 C2125 0.950 . S
H2102 C2126 0.950 . S
H2103 C2127 0.951 . S
H2104 C2129 0.951 . S
H2105 C2131 0.950 . S
H2106 C2132 0.950 . S
H2107 C2134 0.950 . S
H2108 C2137 0.950 . S
H2109 C2138 0.950 . S
H2110 C2140 0.950 . S
H2111 C2141 0.950 . S
C2112 H2094 0.951 . S
C2112 C2113 1.366 . S
C2112 C2114 1.388 . S
C2113 C2112 1.366 . S
C2113 C2117 1.385 . S
C2114 H2095 0.951 . S
C2114 C2112 1.388 . S
C2114 C2115 1.366 . S
C2115 C2114 1.366 . S
C2115 C2116 1.414 . S
C2115 C2118 1.499 . S
C2116 H2096 0.950 . S
C2116 C2115 1.414 . S
C2116 C2117 1.374 . S
C2117 H2097 0.950 . S
C2117 C2113 1.385 . S
C2117 C2116 1.374 . S
C2118 C2115 1.499 . S
C2118 C2119 1.373 . S
C2118 C2120 1.389 . S
C2119 H2098 0.950 . S
C2119 C2118 1.373 . S
C2119 C2135 1.377 . S
C2120 C2118 1.389 . S
C2120 C2121 1.524 . S
C2120 C2134 1.377 . S
C2121 C2120 1.524 . S
C2121 C2122 1.397 . S
C2121 C2126 1.363 . S
C2122 H2099 0.950 . S
C2122 C2121 1.397 . S
C2122 C2123 1.334 . S
C2123 H2100 0.950 . S
C2123 C2122 1.334 . S
C2123 C2124 1.287 . S
C2124 C2123 1.287 . S
C2124 C2125 1.524 . S
C2124 H2143 0.913 . S
C2125 H2101 0.950 . S
C2125 C2124 1.524 . S
C2125 C2126 1.415 . S
C2126 H2102 0.950 . S
C2126 C2121 1.363 . S
C2126 C2125 1.415 . S
C2127 H2103 0.951 . S
C2127 C2128 1.366 . S
C2127 C2129 1.388 . S
C2128 C2127 1.366 . S
C2128 C2132 1.385 . S
C2129 H2104 0.951 . S
C2129 C2127 1.388 . S
C2129 C2130 1.366 . S
C2130 C2129 1.366 . S
C2130 C2131 1.414 . S
C2130 C2133 1.499 . S
C2131 H2105 0.950 . S
C2131 C2130 1.414 . S
C2131 C2132 1.374 . S
C2132 H2106 0.950 . S
C2132 C2128 1.385 . S
C2132 C2131 1.374 . S
C2133 C2130 1.499 . S
C2133 C2134 1.373 1_655 S
C2133 C2135 1.389 1_655 S
C2134 H2107 0.950 . S
C2134 C2120 1.377 . S
C2134 C2133 1.373 1_455 S
C2135 C2119 1.377 . S
C2135 C2133 1.389 1_455 S
C2135 C2136 1.524 1_455 S
C2136 C2135 1.524 1_655 S
C2136 C2137 1.397 . S
C2136 C2141 1.363 . S
C2137 H2108 0.950 . S
C2137 C2136 1.397 . S
C2137 C2138 1.334 . S
C2138 H2109 0.950 . S
C2138 C2137 1.334 . S
C2138 C2139 1.287 . S
C2139 C2138 1.287 . S
C2139 C2140 1.524 . S
C2139 H2142 0.999 . S
C2140 H2110 0.950 . S
C2140 C2139 1.524 . S
C2140 C2141 1.415 . S
C2141 H2111 0.950 . S
C2141 C2136 1.363 . S
C2141 C2140 1.415 . S
H2142 C2139 0.999 . S
H2143 C2124 0.913 . S
H2144 C2162 0.951 . S
H2145 C2164 0.951 . S
H2146 C2166 0.950 . S
H2147 C2167 0.950 . S
H2148 C2169 0.950 . S
H2149 C2172 0.950 . S
H2150 C2173 0.950 . S
H2151 C2175 0.950 . S
H2152 C2176 0.950 . S
H2153 C2177 0.951 . S
H2154 C2179 0.951 . S
H2155 C2181 0.950 . S
H2156 C2182 0.950 . S
H2157 C2184 0.950 . S
H2158 C2187 0.950 . S
H2159 C2188 0.950 . S
H2160 C2190 0.950 . S
H2161 C2191 0.950 . S
C2162 H2144 0.951 . S
C2162 C2163 1.366 . S
C2162 C2164 1.388 . S
C2163 C2162 1.366 . S
C2163 C2167 1.385 . S
C2164 H2145 0.951 . S
C2164 C2162 1.388 . S
C2164 C2165 1.366 . S
C2165 C2164 1.366 . S
C2165 C2166 1.414 . S
C2165 C2168 1.499 . S
C2166 H2146 0.950 . S
C2166 C2165 1.414 . S
C2166 C2167 1.374 . S
C2167 H2147 0.950 . S
C2167 C2163 1.385 . S
C2167 C2166 1.374 . S
C2168 C2165 1.499 . S
C2168 C2169 1.373 . S
C2168 C2170 1.389 . S
C2169 H2148 0.950 . S
C2169 C2168 1.373 . S
C2169 C2185 1.377 . S
C2170 C2168 1.389 . S
C2170 C2171 1.524 . S
C2170 C2184 1.377 . S
C2171 C2170 1.524 . S
C2171 C2172 1.397 . S
C2171 C2176 1.363 . S
C2172 H2149 0.950 . S
C2172 C2171 1.397 . S
C2172 C2173 1.334 . S
C2173 H2150 0.950 . S
C2173 C2172 1.334 . S
C2173 C2174 1.287 . S
C2174 C2173 1.287 . S
C2174 C2175 1.524 . S
C2174 H2193 0.913 . S
C2175 H2151 0.950 . S
C2175 C2174 1.524 . S
C2175 C2176 1.415 . S
C2176 H2152 0.950 . S
C2176 C2171 1.363 . S
C2176 C2175 1.415 . S
C2177 H2153 0.951 . S
C2177 C2178 1.366 . S
C2177 C2179 1.388 . S
C2178 C2177 1.366 . S
C2178 C2182 1.385 . S
C2179 H2154 0.951 . S
C2179 C2177 1.388 . S
C2179 C2180 1.366 . S
C2180 C2179 1.366 . S
C2180 C2181 1.414 . S
C2180 C2183 1.499 . S
C2181 H2155 0.950 . S
C2181 C2180 1.414 . S
C2181 C2182 1.374 . S
C2182 H2156 0.950 . S
C2182 C2178 1.385 . S
C2182 C2181 1.374 . S
C2183 C2180 1.499 . S
C2183 C2184 1.373 . S
C2183 C2185 1.389 . S
C2184 H2157 0.950 . S
C2184 C2170 1.377 . S
C2184 C2183 1.373 . S
C2185 C2169 1.377 . S
C2185 C2183 1.389 . S
C2185 C2186 1.524 . S
C2186 C2185 1.524 . S
C2186 C2187 1.397 . S
C2186 C2191 1.363 . S
C2187 H2158 0.950 . S
C2187 C2186 1.397 . S
C2187 C2188 1.334 . S
C2188 H2159 0.950 . S
C2188 C2187 1.334 . S
C2188 C2189 1.287 . S
C2189 C2188 1.287 . S
C2189 C2190 1.524 . S
C2189 H2192 0.999 . S
C2190 H2160 0.950 . S
C2190 C2189 1.524 . S
C2190 C2191 1.415 . S
C2191 H2161 0.950 . S
C2191 C2186 1.363 . S
C2191 C2190 1.415 . S
H2192 C2189 0.999 . S
H2193 C2174 0.913 . S
H2194 C2212 0.951 . S
H2195 C2214 0.951 . S
H2196 C2216 0.950 . S
H2197 C2217 0.950 . S
H2198 C2219 0.950 . S
H2199 C2222 0.950 . S
H2200 C2223 0.950 . S
H2201 C2225 0.950 . S
H2202 C2226 0.950 . S
H2203 C2227 0.951 . S
H2204 C2229 0.951 . S
H2205 C2231 0.950 . S
H2206 C2232 0.950 . S
H2207 C2234 0.950 . S
H2208 C2237 0.950 . S
H2209 C2238 0.950 . S
H2210 C2240 0.950 . S
H2211 C2241 0.950 . S
C2212 H2194 0.951 . S
C2212 C2213 1.366 . S
C2212 C2214 1.388 . S
C2213 C2212 1.366 . S
C2213 C2217 1.385 . S
C2214 H2195 0.951 . S
C2214 C2212 1.388 . S
C2214 C2215 1.366 . S
C2215 C2214 1.366 . S
C2215 C2216 1.414 . S
C2215 C2218 1.499 . S
C2216 H2196 0.950 . S
C2216 C2215 1.414 . S
C2216 C2217 1.374 . S
C2217 H2197 0.950 . S
C2217 C2213 1.385 . S
C2217 C2216 1.374 . S
C2218 C2215 1.499 . S
C2218 C2219 1.373 . S
C2218 C2220 1.389 . S
C2219 H2198 0.950 . S
C2219 C2218 1.373 . S
C2219 C2235 1.377 1_565 S
C2220 C2218 1.389 . S
C2220 C2221 1.524 . S
C2220 C2234 1.377 1_565 S
C2221 C2220 1.524 . S
C2221 C2222 1.397 . S
C2221 C2226 1.363 . S
C2222 H2199 0.950 . S
C2222 C2221 1.397 . S
C2222 C2223 1.334 . S
C2223 H2200 0.950 . S
C2223 C2222 1.334 . S
C2223 C2224 1.287 . S
C2224 C2223 1.287 . S
C2224 C2225 1.524 . S
C2224 H2243 0.913 . S
C2225 H2201 0.950 . S
C2225 C2224 1.524 . S
C2225 C2226 1.415 . S
C2226 H2202 0.950 . S
C2226 C2221 1.363 . S
C2226 C2225 1.415 . S
C2227 H2203 0.951 . S
C2227 C2228 1.366 . S
C2227 C2229 1.388 . S
C2228 C2227 1.366 . S
C2228 C2232 1.385 . S
C2229 H2204 0.951 . S
C2229 C2227 1.388 . S
C2229 C2230 1.366 . S
C2230 C2229 1.366 . S
C2230 C2231 1.414 . S
C2230 C2233 1.499 . S
C2231 H2205 0.950 . S
C2231 C2230 1.414 . S
C2231 C2232 1.374 . S
C2232 H2206 0.950 . S
C2232 C2228 1.385 . S
C2232 C2231 1.374 . S
C2233 C2230 1.499 . S
C2233 C2234 1.373 . S
C2233 C2235 1.389 . S
C2234 H2207 0.950 . S
C2234 C2220 1.377 1_545 S
C2234 C2233 1.373 . S
C2235 C2219 1.377 1_545 S
C2235 C2233 1.389 . S
C2235 C2236 1.524 . S
C2236 C2235 1.524 . S
C2236 C2237 1.397 . S
C2236 C2241 1.363 . S
C2237 H2208 0.950 . S
C2237 C2236 1.397 . S
C2237 C2238 1.334 . S
C2238 H2209 0.950 . S
C2238 C2237 1.334 . S
C2238 C2239 1.287 . S
C2239 C2238 1.287 . S
C2239 C2240 1.524 . S
C2239 H2242 0.999 . S
C2240 H2210 0.950 . S
C2240 C2239 1.524 . S
C2240 C2241 1.415 . S
C2241 H2211 0.950 . S
C2241 C2236 1.363 . S
C2241 C2240 1.415 . S
H2242 C2239 0.999 . S
H2243 C2224 0.913 . S
H2244 C2262 0.951 . S
H2245 C2264 0.951 . S
H2246 C2266 0.950 . S
H2247 C2267 0.950 . S
H2248 C2269 0.950 . S
H2249 C2272 0.950 . S
H2250 C2273 0.950 . S
H2251 C2275 0.950 . S
H2252 C2276 0.950 . S
H2253 C2277 0.951 . S
H2254 C2279 0.951 . S
H2255 C2281 0.950 . S
H2256 C2282 0.950 . S
H2257 C2284 0.950 . S
H2258 C2287 0.950 . S
H2259 C2288 0.950 . S
H2260 C2290 0.950 . S
H2261 C2291 0.950 . S
C2262 H2244 0.951 . S
C2262 C2263 1.366 . S
C2262 C2264 1.388 . S
C2263 C2262 1.366 . S
C2263 C2267 1.385 . S
C2264 H2245 0.951 . S
C2264 C2262 1.388 . S
C2264 C2265 1.366 . S
C2265 C2264 1.366 . S
C2265 C2266 1.414 . S
C2265 C2268 1.499 . S
C2266 H2246 0.950 . S
C2266 C2265 1.414 . S
C2266 C2267 1.374 . S
C2267 H2247 0.950 . S
C2267 C2263 1.385 . S
C2267 C2266 1.374 . S
C2268 C2265 1.499 . S
C2268 C2269 1.373 . S
C2268 C2270 1.389 . S
C2269 H2248 0.950 . S
C2269 C2268 1.373 . S
C2269 C2285 1.377 . S
C2270 C2268 1.389 . S
C2270 C2271 1.524 . S
C2270 C2284 1.377 . S
C2271 C2270 1.524 . S
C2271 C2272 1.397 . S
C2271 C2276 1.363 . S
C2272 H2249 0.950 . S
C2272 C2271 1.397 . S
C2272 C2273 1.334 . S
C2273 H2250 0.950 . S
C2273 C2272 1.334 . S
C2273 C2274 1.287 . S
C2274 C2273 1.287 . S
C2274 C2275 1.524 . S
C2274 H2293 0.913 . S
C2275 H2251 0.950 . S
C2275 C2274 1.524 . S
C2275 C2276 1.415 . S
C2276 H2252 0.950 . S
C2276 C2271 1.363 . S
C2276 C2275 1.415 . S
C2277 H2253 0.951 . S
C2277 C2278 1.366 . S
C2277 C2279 1.388 . S
C2278 C2277 1.366 . S
C2278 C2282 1.385 . S
C2279 H2254 0.951 . S
C2279 C2277 1.388 . S
C2279 C2280 1.366 . S
C2280 C2279 1.366 . S
C2280 C2281 1.414 . S
C2280 C2283 1.499 . S
C2281 H2255 0.950 . S
C2281 C2280 1.414 . S
C2281 C2282 1.374 . S
C2282 H2256 0.950 . S
C2282 C2278 1.385 . S
C2282 C2281 1.374 . S
C2283 C2280 1.499 . S
C2283 C2284 1.373 . S
C2283 C2285 1.389 . S
C2284 H2257 0.950 . S
C2284 C2270 1.377 . S
C2284 C2283 1.373 . S
C2285 C2269 1.377 . S
C2285 C2283 1.389 . S
C2285 C2286 1.524 . S
C2286 C2285 1.524 . S
C2286 C2287 1.397 . S
C2286 C2291 1.363 . S
C2287 H2258 0.950 . S
C2287 C2286 1.397 . S
C2287 C2288 1.334 . S
C2288 H2259 0.950 . S
C2288 C2287 1.334 . S
C2288 C2289 1.287 . S
C2289 C2288 1.287 . S
C2289 C2290 1.524 . S
C2289 H2292 0.999 . S
C2290 H2260 0.950 . S
C2290 C2289 1.524 . S
C2290 C2291 1.415 . S
C2291 H2261 0.950 . S
C2291 C2286 1.363 . S
C2291 C2290 1.415 . S
H2292 C2289 0.999 . S
H2293 C2274 0.913 . S
H2294 C2312 0.951 . S
H2295 C2314 0.951 . S
H2296 C2316 0.950 . S
H2297 C2317 0.950 . S
H2298 C2319 0.950 . S
H2299 C2322 0.950 . S
H2300 C2323 0.950 . S
H2301 C2325 0.950 . S
H2302 C2326 0.950 . S
H2303 C2327 0.951 . S
H2304 C2329 0.951 . S
H2305 C2331 0.950 . S
H2306 C2332 0.950 . S
H2307 C2334 0.950 . S
H2308 C2337 0.950 . S
H2309 C2338 0.950 . S
H2310 C2340 0.950 . S
H2311 C2341 0.950 . S
C2312 H2294 0.951 . S
C2312 C2313 1.366 . S
C2312 C2314 1.388 . S
C2313 C2312 1.366 . S
C2313 C2317 1.385 . S
C2314 H2295 0.951 . S
C2314 C2312 1.388 . S
C2314 C2315 1.366 . S
C2315 C2314 1.366 . S
C2315 C2316 1.414 . S
C2315 C2318 1.499 . S
C2316 H2296 0.950 . S
C2316 C2315 1.414 . S
C2316 C2317 1.374 . S
C2317 H2297 0.950 . S
C2317 C2313 1.385 . S
C2317 C2316 1.374 . S
C2318 C2315 1.499 . S
C2318 C2319 1.373 . S
C2318 C2320 1.389 . S
C2319 H2298 0.950 . S
C2319 C2318 1.373 . S
C2319 C2335 1.377 . S
C2320 C2318 1.389 . S
C2320 C2321 1.524 . S
C2320 C2334 1.377 . S
C2321 C2320 1.524 . S
C2321 C2322 1.397 . S
C2321 C2326 1.363 . S
C2322 H2299 0.950 . S
C2322 C2321 1.397 . S
C2322 C2323 1.334 . S
C2323 H2300 0.950 . S
C2323 C2322 1.334 . S
C2323 C2324 1.287 . S
C2324 C2323 1.287 . S
C2324 C2325 1.524 . S
C2324 H2343 0.913 . S
C2325 H2301 0.950 . S
C2325 C2324 1.524 . S
C2325 C2326 1.415 . S
C2326 H2302 0.950 . S
C2326 C2321 1.363 . S
C2326 C2325 1.415 . S
C2327 H2303 0.951 . S
C2327 C2328 1.366 . S
C2327 C2329 1.388 . S
C2328 C2327 1.366 . S
C2328 C2332 1.385 . S
C2329 H2304 0.951 . S
C2329 C2327 1.388 . S
C2329 C2330 1.366 . S
C2330 C2329 1.366 . S
C2330 C2331 1.414 . S
C2330 C2333 1.499 . S
C2331 H2305 0.950 . S
C2331 C2330 1.414 . S
C2331 C2332 1.374 . S
C2332 H2306 0.950 . S
C2332 C2328 1.385 . S
C2332 C2331 1.374 . S
C2333 C2330 1.499 . S
C2333 C2334 1.373 . S
C2333 C2335 1.389 . S
C2334 H2307 0.950 . S
C2334 C2320 1.377 . S
C2334 C2333 1.373 . S
C2335 C2319 1.377 . S
C2335 C2333 1.389 . S
C2335 C2336 1.524 . S
C2336 C2335 1.524 . S
C2336 C2337 1.397 . S
C2336 C2341 1.363 . S
C2337 H2308 0.950 . S
C2337 C2336 1.397 . S
C2337 C2338 1.334 . S
C2338 H2309 0.950 . S
C2338 C2337 1.334 . S
C2338 C2339 1.287 . S
C2339 C2338 1.287 . S
C2339 C2340 1.524 . S
C2339 H2342 0.999 . S
C2340 H2310 0.950 . S
C2340 C2339 1.524 . S
C2340 C2341 1.415 . S
C2341 H2311 0.950 . S
C2341 C2336 1.363 . S
C2341 C2340 1.415 . S
H2342 C2339 0.999 . S
H2343 C2324 0.913 . S
H2344 C2362 0.951 . S
H2345 C2364 0.951 . S
H2346 C2366 0.950 . S
H2347 C2367 0.950 . S
H2348 C2369 0.950 . S
H2349 C2372 0.950 . S
H2350 C2373 0.950 . S
H2351 C2375 0.950 . S
H2352 C2376 0.950 . S
H2353 C2377 0.951 . S
H2354 C2379 0.951 . S
H2355 C2381 0.950 . S
H2356 C2382 0.950 . S
H2357 C2384 0.950 . S
H2358 C2387 0.950 . S
H2359 C2388 0.950 . S
H2360 C2390 0.950 . S
H2361 C2391 0.950 . S
C2362 H2344 0.951 . S
C2362 C2363 1.366 . S
C2362 C2364 1.388 . S
C2363 C2362 1.366 . S
C2363 C2367 1.385 . S
C2364 H2345 0.951 . S
C2364 C2362 1.388 . S
C2364 C2365 1.366 . S
C2365 C2364 1.366 . S
C2365 C2366 1.414 . S
C2365 C2368 1.499 . S
C2366 H2346 0.950 . S
C2366 C2365 1.414 . S
C2366 C2367 1.374 . S
C2367 H2347 0.950 . S
C2367 C2363 1.385 . S
C2367 C2366 1.374 . S
C2368 C2365 1.499 . S
C2368 C2369 1.373 . S
C2368 C2370 1.389 . S
C2369 H2348 0.950 . S
C2369 C2368 1.373 . S
C2369 C2385 1.377 . S
C2370 C2368 1.389 . S
C2370 C2371 1.524 . S
C2370 C2384 1.377 . S
C2371 C2370 1.524 . S
C2371 C2372 1.397 . S
C2371 C2376 1.363 . S
C2372 H2349 0.950 . S
C2372 C2371 1.397 . S
C2372 C2373 1.334 . S
C2373 H2350 0.950 . S
C2373 C2372 1.334 . S
C2373 C2374 1.287 . S
C2374 C2373 1.287 . S
C2374 C2375 1.524 . S
C2374 H2393 0.913 . S
C2375 H2351 0.950 . S
C2375 C2374 1.524 . S
C2375 C2376 1.415 . S
C2376 H2352 0.950 . S
C2376 C2371 1.363 . S
C2376 C2375 1.415 . S
C2377 H2353 0.951 . S
C2377 C2378 1.366 . S
C2377 C2379 1.388 . S
C2378 C2377 1.366 . S
C2378 C2382 1.385 . S
C2379 H2354 0.951 . S
C2379 C2377 1.388 . S
C2379 C2380 1.366 . S
C2380 C2379 1.366 . S
C2380 C2381 1.414 . S
C2380 C2383 1.499 . S
C2381 H2355 0.950 . S
C2381 C2380 1.414 . S
C2381 C2382 1.374 . S
C2382 H2356 0.950 . S
C2382 C2378 1.385 . S
C2382 C2381 1.374 . S
C2383 C2380 1.499 . S
C2383 C2384 1.373 . S
C2383 C2385 1.389 . S
C2384 H2357 0.950 . S
C2384 C2370 1.377 . S
C2384 C2383 1.373 . S
C2385 C2369 1.377 . S
C2385 C2383 1.389 . S
C2385 C2386 1.524 . S
C2386 C2385 1.524 . S
C2386 C2387 1.397 . S
C2386 C2391 1.363 . S
C2387 H2358 0.950 . S
C2387 C2386 1.397 . S
C2387 C2388 1.334 . S
C2388 H2359 0.950 . S
C2388 C2387 1.334 . S
C2388 C2389 1.287 . S
C2389 C2388 1.287 . S
C2389 C2390 1.524 . S
C2389 H2392 0.999 . S
C2390 H2360 0.950 . S
C2390 C2389 1.524 . S
C2390 C2391 1.415 . S
C2391 H2361 0.950 . S
C2391 C2386 1.363 . S
C2391 C2390 1.415 . S
H2392 C2389 0.999 . S
H2393 C2374 0.913 . S
H2394 C2412 0.951 . S
H2395 C2414 0.951 . S
H2396 C2416 0.950 . S
H2397 C2417 0.950 . S
H2398 C2419 0.950 . S
H2399 C2422 0.950 . S
H2400 C2423 0.950 . S
H2401 C2425 0.950 . S
H2402 C2426 0.950 . S
H2403 C2427 0.951 . S
H2404 C2429 0.951 . S
H2405 C2431 0.950 . S
H2406 C2432 0.950 . S
H2407 C2434 0.950 . S
H2408 C2437 0.950 . S
H2409 C2438 0.950 . S
H2410 C2440 0.950 . S
H2411 C2441 0.950 . S
C2412 H2394 0.951 . S
C2412 C2413 1.366 . S
C2412 C2414 1.388 . S
C2413 C2412 1.366 . S
C2413 C2417 1.385 . S
C2414 H2395 0.951 . S
C2414 C2412 1.388 . S
C2414 C2415 1.366 . S
C2415 C2414 1.366 . S
C2415 C2416 1.414 . S
C2415 C2418 1.499 . S
C2416 H2396 0.950 . S
C2416 C2415 1.414 . S
C2416 C2417 1.374 . S
C2417 H2397 0.950 . S
C2417 C2413 1.385 . S
C2417 C2416 1.374 . S
C2418 C2415 1.499 . S
C2418 C2419 1.373 . S
C2418 C2420 1.389 . S
C2419 H2398 0.950 . S
C2419 C2418 1.373 . S
C2419 C2435 1.377 . S
C2420 C2418 1.389 . S
C2420 C2421 1.524 . S
C2420 C2434 1.377 . S
C2421 C2420 1.524 . S
C2421 C2422 1.397 . S
C2421 C2426 1.363 . S
C2422 H2399 0.950 . S
C2422 C2421 1.397 . S
C2422 C2423 1.334 . S
C2423 H2400 0.950 . S
C2423 C2422 1.334 . S
C2423 C2424 1.287 . S
C2424 C2423 1.287 . S
C2424 C2425 1.524 . S
C2424 H2443 0.913 . S
C2425 H2401 0.950 . S
C2425 C2424 1.524 . S
C2425 C2426 1.415 . S
C2426 H2402 0.950 . S
C2426 C2421 1.363 . S
C2426 C2425 1.415 . S
C2427 H2403 0.951 . S
C2427 C2428 1.366 . S
C2427 C2429 1.388 . S
C2428 C2427 1.366 . S
C2428 C2432 1.385 . S
C2429 H2404 0.951 . S
C2429 C2427 1.388 . S
C2429 C2430 1.366 . S
C2430 C2429 1.366 . S
C2430 C2431 1.414 . S
C2430 C2433 1.499 . S
C2431 H2405 0.950 . S
C2431 C2430 1.414 . S
C2431 C2432 1.374 . S
C2432 H2406 0.950 . S
C2432 C2428 1.385 . S
C2432 C2431 1.374 . S
C2433 C2430 1.499 . S
C2433 C2434 1.373 . S
C2433 C2435 1.389 . S
C2434 H2407 0.950 . S
C2434 C2420 1.377 . S
C2434 C2433 1.373 . S
C2435 C2419 1.377 . S
C2435 C2433 1.389 . S
C2435 C2436 1.524 . S
C2436 C2435 1.524 . S
C2436 C2437 1.397 . S
C2436 C2441 1.363 . S
C2437 H2408 0.950 . S
C2437 C2436 1.397 . S
C2437 C2438 1.334 . S
C2438 H2409 0.950 . S
C2438 C2437 1.334 . S
C2438 C2439 1.287 . S
C2439 C2438 1.287 . S
C2439 C2440 1.524 1_565 S
C2439 H2442 0.999 1_565 S
C2440 H2410 0.950 . S
C2440 C2439 1.524 1_545 S
C2440 C2441 1.415 1_545 S
C2441 H2411 0.950 . S
C2441 C2436 1.363 . S
C2441 C2440 1.415 1_565 S
H2442 C2439 0.999 1_545 S
H2443 C2424 0.913 . S
H2444 C2462 0.951 . S
H2445 C2464 0.951 . S
H2446 C2466 0.950 . S
H2447 C2467 0.950 . S
H2448 C2469 0.950 . S
H2449 C2472 0.950 . S
H2450 C2473 0.950 . S
H2451 C2475 0.950 . S
H2452 C2476 0.950 1_655 S
H2453 C2477 0.951 . S
H2454 C2479 0.951 . S
H2455 C2481 0.950 . S
H2456 C2482 0.950 . S
H2457 C2484 0.950 . S
H2458 C2487 0.950 . S
H2459 C2488 0.950 . S
H2460 C2490 0.950 . S
H2461 C2491 0.950 . S
C2462 H2444 0.951 . S
C2462 C2463 1.366 . S
C2462 C2464 1.388 . S
C2463 C2462 1.366 . S
C2463 C2467 1.385 . S
C2464 H2445 0.951 . S
C2464 C2462 1.388 . S
C2464 C2465 1.366 . S
C2465 C2464 1.366 . S
C2465 C2466 1.414 . S
C2465 C2468 1.499 . S
C2466 H2446 0.950 . S
C2466 C2465 1.414 . S
C2466 C2467 1.374 . S
C2467 H2447 0.950 . S
C2467 C2463 1.385 . S
C2467 C2466 1.374 . S
C2468 C2465 1.499 . S
C2468 C2469 1.373 . S
C2468 C2470 1.389 . S
C2469 H2448 0.950 . S
C2469 C2468 1.373 . S
C2469 C2485 1.377 . S
C2470 C2468 1.389 . S
C2470 C2471 1.524 . S
C2470 C2484 1.377 . S
C2471 C2470 1.524 . S
C2471 C2472 1.397 . S
C2471 C2476 1.363 . S
C2472 H2449 0.950 . S
C2472 C2471 1.397 . S
C2472 C2473 1.334 . S
C2473 H2450 0.950 . S
C2473 C2472 1.334 . S
C2473 C2474 1.287 . S
C2474 C2473 1.287 . S
C2474 C2475 1.524 1_455 S
C2474 H2493 0.913 . S
C2475 H2451 0.950 . S
C2475 C2474 1.524 1_655 S
C2475 C2476 1.415 1_655 S
C2476 H2452 0.950 1_455 S
C2476 C2471 1.363 . S
C2476 C2475 1.415 1_455 S
C2477 H2453 0.951 . S
C2477 C2478 1.366 . S
C2477 C2479 1.388 . S
C2478 C2477 1.366 . S
C2478 C2482 1.385 . S
C2479 H2454 0.951 . S
C2479 C2477 1.388 . S
C2479 C2480 1.366 . S
C2480 C2479 1.366 . S
C2480 C2481 1.414 . S
C2480 C2483 1.499 . S
C2481 H2455 0.950 . S
C2481 C2480 1.414 . S
C2481 C2482 1.374 . S
C2482 H2456 0.950 . S
C2482 C2478 1.385 . S
C2482 C2481 1.374 . S
C2483 C2480 1.499 . S
C2483 C2484 1.373 . S
C2483 C2485 1.389 . S
C2484 H2457 0.950 . S
C2484 C2470 1.377 . S
C2484 C2483 1.373 . S
C2485 C2469 1.377 . S
C2485 C2483 1.389 . S
C2485 C2486 1.524 . S
C2486 C2485 1.524 . S
C2486 C2487 1.397 . S
C2486 C2491 1.363 . S
C2487 H2458 0.950 . S
C2487 C2486 1.397 . S
C2487 C2488 1.334 . S
C2488 H2459 0.950 . S
C2488 C2487 1.334 . S
C2488 C2489 1.287 . S
C2489 C2488 1.287 . S
C2489 C2490 1.524 . S
C2489 H2492 0.999 . S
C2490 H2460 0.950 . S
C2490 C2489 1.524 . S
C2490 C2491 1.415 . S
C2491 H2461 0.950 . S
C2491 C2486 1.363 . S
C2491 C2490 1.415 . S
H2492 C2489 0.999 . S
H2493 C2474 0.913 . S
H2494 C2512 0.951 . S
H2495 C2514 0.951 . S
H2496 C2516 0.950 . S
H2497 C2517 0.950 . S
H2498 C2519 0.950 . S
H2499 C2522 0.950 . S
H2500 C2523 0.950 . S
H2501 C2525 0.950 . S
H2502 C2526 0.950 . S
H2503 C2527 0.951 . S
H2504 C2529 0.951 . S
H2505 C2531 0.950 . S
H2506 C2532 0.950 . S
H2507 C2534 0.950 . S
H2508 C2537 0.950 . S
H2509 C2538 0.950 . S
H2510 C2540 0.950 . S
H2511 C2541 0.950 . S
C2512 H2494 0.951 . S
C2512 C2513 1.366 . S
C2512 C2514 1.388 . S
C2513 C2512 1.366 . S
C2513 C2517 1.385 . S
C2514 H2495 0.951 . S
C2514 C2512 1.388 . S
C2514 C2515 1.366 . S
C2515 C2514 1.366 . S
C2515 C2516 1.414 . S
C2515 C2518 1.499 . S
C2516 H2496 0.950 . S
C2516 C2515 1.414 . S
C2516 C2517 1.374 . S
C2517 H2497 0.950 . S
C2517 C2513 1.385 . S
C2517 C2516 1.374 . S
C2518 C2515 1.499 . S
C2518 C2519 1.373 . S
C2518 C2520 1.389 . S
C2519 H2498 0.950 . S
C2519 C2518 1.373 . S
C2519 C2535 1.377 . S
C2520 C2518 1.389 . S
C2520 C2521 1.524 . S
C2520 C2534 1.377 . S
C2521 C2520 1.524 . S
C2521 C2522 1.397 . S
C2521 C2526 1.363 . S
C2522 H2499 0.950 . S
C2522 C2521 1.397 . S
C2522 C2523 1.334 . S
C2523 H2500 0.950 . S
C2523 C2522 1.334 . S
C2523 C2524 1.287 . S
C2524 C2523 1.287 . S
C2524 C2525 1.524 . S
C2524 H2543 0.913 . S
C2525 H2501 0.950 . S
C2525 C2524 1.524 . S
C2525 C2526 1.415 . S
C2526 H2502 0.950 . S
C2526 C2521 1.363 . S
C2526 C2525 1.415 . S
C2527 H2503 0.951 . S
C2527 C2528 1.366 . S
C2527 C2529 1.388 . S
C2528 C2527 1.366 . S
C2528 C2532 1.385 . S
C2529 H2504 0.951 . S
C2529 C2527 1.388 . S
C2529 C2530 1.366 . S
C2530 C2529 1.366 . S
C2530 C2531 1.414 . S
C2530 C2533 1.499 . S
C2531 H2505 0.950 . S
C2531 C2530 1.414 . S
C2531 C2532 1.374 . S
C2532 H2506 0.950 . S
C2532 C2528 1.385 . S
C2532 C2531 1.374 . S
C2533 C2530 1.499 . S
C2533 C2534 1.373 . S
C2533 C2535 1.389 . S
C2534 H2507 0.950 . S
C2534 C2520 1.377 . S
C2534 C2533 1.373 . S
C2535 C2519 1.377 . S
C2535 C2533 1.389 . S
C2535 C2536 1.524 . S
C2536 C2535 1.524 . S
C2536 C2537 1.397 . S
C2536 C2541 1.363 . S
C2537 H2508 0.950 . S
C2537 C2536 1.397 . S
C2537 C2538 1.334 . S
C2538 H2509 0.950 . S
C2538 C2537 1.334 . S
C2538 C2539 1.287 . S
C2539 C2538 1.287 . S
C2539 C2540 1.524 . S
C2539 H2542 0.999 . S
C2540 H2510 0.950 . S
C2540 C2539 1.524 . S
C2540 C2541 1.415 . S
C2541 H2511 0.950 . S
C2541 C2536 1.363 . S
C2541 C2540 1.415 . S
H2542 C2539 0.999 . S
H2543 C2524 0.913 . S
H2544 C2562 0.951 . S
H2545 C2564 0.951 . S
H2546 C2566 0.950 . S
H2547 C2567 0.950 . S
H2548 C2569 0.904 1_455 S
H2549 C2572 0.950 . S
H2550 C2573 0.950 . S
H2551 C2575 0.950 . S
H2552 C2576 0.950 . S
H2553 C2577 0.951 1_455 S
H2554 C2579 0.951 1_455 S
H2555 C2581 0.950 . S
H2556 C2582 0.950 . S
H2557 C2584 0.950 . S
H2558 C2587 0.950 1_655 S
H2559 C2588 0.950 . S
H2560 C2590 0.950 . S
H2561 C2591 0.950 . S
C2562 H2544 0.951 . S
C2562 C2563 1.366 . S
C2562 C2564 1.388 . S
C2563 C2562 1.366 . S
C2563 C2567 1.385 . S
C2564 H2545 0.951 . S
C2564 C2562 1.388 . S
C2564 C2565 1.366 . S
C2565 C2564 1.366 . S
C2565 C2566 1.414 . S
C2565 C2568 1.499 . S
C2566 H2546 0.950 . S
C2566 C2565 1.414 . S
C2566 C2567 1.374 . S
C2567 H2547 0.950 . S
C2567 C2563 1.385 . S
C2567 C2566 1.374 . S
C2568 C2565 1.499 . S
C2568 C2569 1.373 . S
C2568 C2570 1.389 . S
C2569 H2548 0.904 1_655 S
C2569 C2568 1.373 . S
C2569 C2585 1.377 . S
C2570 C2568 1.389 . S
C2570 C2571 1.524 . S
C2570 C2584 1.377 . S
C2571 C2570 1.524 . S
C2571 C2572 1.397 . S
C2571 C2576 1.363 . S
C2572 H2549 0.950 . S
C2572 C2571 1.397 . S
C2572 C2573 1.334 . S
C2573 H2550 0.950 . S
C2573 C2572 1.334 . S
C2573 C2574 1.287 . S
C2574 C2573 1.287 . S
C2574 C2575 1.524 . S
C2574 H2593 0.913 . S
C2575 H2551 0.950 . S
C2575 C2574 1.524 . S
C2575 C2576 1.415 . S
C2576 H2552 0.950 . S
C2576 C2571 1.363 . S
C2576 C2575 1.415 . S
C2577 H2553 0.951 1_655 S
C2577 C2578 1.366 . S
C2577 C2579 1.388 . S
C2578 C2577 1.366 . S
C2578 C2582 1.385 . S
C2579 H2554 0.951 1_655 S
C2579 C2577 1.388 . S
C2579 C2580 1.366 . S
C2580 C2579 1.366 . S
C2580 C2581 1.414 . S
C2580 C2583 1.499 . S
C2581 H2555 0.950 . S
C2581 C2580 1.414 . S
C2581 C2582 1.374 . S
C2582 H2556 0.950 . S
C2582 C2578 1.385 . S
C2582 C2581 1.374 . S
C2583 C2580 1.499 . S
C2583 C2584 1.373 . S
C2583 C2585 1.389 . S
C2584 H2557 0.950 . S
C2584 C2570 1.377 . S
C2584 C2583 1.373 . S
C2585 C2569 1.377 . S
C2585 C2583 1.389 . S
C2585 C2586 1.524 1_655 S
C2586 C2585 1.524 1_455 S
C2586 C2587 1.397 . S
C2586 C2591 1.363 . S
C2587 H2558 0.950 1_455 S
C2587 C2586 1.397 . S
C2587 C2588 1.334 . S
C2588 H2559 0.950 . S
C2588 C2587 1.334 . S
C2588 C2589 1.287 . S
C2589 C2588 1.287 . S
C2589 C2590 1.524 . S
C2589 H2592 0.999 . S
C2590 H2560 0.950 . S
C2590 C2589 1.524 . S
C2590 C2591 1.415 . S
C2591 H2561 0.950 . S
C2591 C2586 1.363 . S
C2591 C2590 1.415 . S
H2592 C2589 0.999 . S
H2593 C2574 0.913 . S
H2594 C2612 0.951 . S
H2595 C2614 0.951 . S
H2596 C2616 0.950 . S
H2597 C2617 0.950 . S
H2598 C2619 0.950 . S
H2599 C2622 0.950 . S
H2600 C2623 0.950 . S
H2601 C2625 0.950 . S
H2602 C2626 0.950 . S
H2603 C2627 0.951 . S
H2604 C2629 0.951 . S
H2605 C2631 0.950 . S
H2606 C2632 0.950 . S
H2607 C2634 0.950 . S
H2608 C2637 0.950 . S
H2609 C2638 0.950 . S
H2610 C2640 0.950 . S
H2611 C2641 0.950 . S
C2612 H2594 0.951 . S
C2612 C2613 1.366 . S
C2612 C2614 1.388 . S
C2613 C2612 1.366 . S
C2613 C2617 1.385 . S
C2614 H2595 0.951 . S
C2614 C2612 1.388 . S
C2614 C2615 1.366 . S
C2615 C2614 1.366 . S
C2615 C2616 1.414 . S
C2615 C2618 1.499 . S
C2616 H2596 0.950 . S
C2616 C2615 1.414 . S
C2616 C2617 1.374 . S
C2617 H2597 0.950 . S
C2617 C2613 1.385 . S
C2617 C2616 1.374 . S
C2618 C2615 1.499 . S
C2618 C2619 1.373 . S
C2618 C2620 1.389 . S
C2619 H2598 0.950 . S
C2619 C2618 1.373 . S
C2619 C2635 1.377 . S
C2620 C2618 1.389 . S
C2620 C2621 1.524 . S
C2620 C2634 1.377 . S
C2621 C2620 1.524 . S
C2621 C2622 1.397 . S
C2621 C2626 1.363 . S
C2622 H2599 0.950 . S
C2622 C2621 1.397 . S
C2622 C2623 1.334 . S
C2623 H2600 0.950 . S
C2623 C2622 1.334 . S
C2623 C2624 1.287 . S
C2624 C2623 1.287 . S
C2624 C2625 1.524 . S
C2624 H2643 0.913 . S
C2625 H2601 0.950 . S
C2625 C2624 1.524 . S
C2625 C2626 1.415 . S
C2626 H2602 0.950 . S
C2626 C2621 1.363 . S
C2626 C2625 1.415 . S
C2627 H2603 0.951 . S
C2627 C2628 1.366 . S
C2627 C2629 1.388 . S
C2628 C2627 1.366 . S
C2628 C2632 1.385 . S
C2629 H2604 0.951 . S
C2629 C2627 1.388 . S
C2629 C2630 1.366 . S
C2630 C2629 1.366 . S
C2630 C2631 1.414 . S
C2630 C2633 1.499 . S
C2631 H2605 0.950 . S
C2631 C2630 1.414 . S
C2631 C2632 1.374 . S
C2632 H2606 0.950 . S
C2632 C2628 1.385 . S
C2632 C2631 1.374 . S
C2633 C2630 1.499 . S
C2633 C2634 1.373 . S
C2633 C2635 1.389 . S
C2634 H2607 0.950 . S
C2634 C2620 1.377 . S
C2634 C2633 1.373 . S
C2635 C2619 1.377 . S
C2635 C2633 1.389 . S
C2635 C2636 1.524 . S
C2636 C2635 1.524 . S
C2636 C2637 1.397 . S
C2636 C2641 1.363 . S
C2637 H2608 0.950 . S
C2637 C2636 1.397 . S
C2637 C2638 1.334 . S
C2638 H2609 0.950 . S
C2638 C2637 1.334 . S
C2638 C2639 1.287 . S
C2639 C2638 1.287 . S
C2639 C2640 1.524 . S
C2639 H2642 0.999 . S
C2640 H2610 0.950 . S
C2640 C2639 1.524 . S
C2640 C2641 1.415 . S
C2641 H2611 0.950 . S
C2641 C2636 1.363 . S
C2641 C2640 1.415 . S
H2642 C2639 0.999 . S
H2643 C2624 0.913 . S
H2644 C2662 0.951 . S
H2645 C2664 0.951 . S
H2646 C2666 0.950 . S
H2647 C2667 0.950 . S
H2648 C2669 0.950 . S
H2649 C2672 0.950 . S
H2650 C2673 0.950 . S
H2651 C2675 0.950 . S
H2652 C2676 0.950 . S
H2653 C2677 0.951 . S
H2654 C2679 0.951 . S
H2655 C2681 0.950 . S
H2656 C2682 0.950 . S
H2657 C2684 0.950 . S
H2658 C2687 0.950 . S
H2659 C2688 0.950 . S
H2660 C2690 0.950 . S
H2661 C2691 0.950 . S
C2662 H2644 0.951 . S
C2662 C2663 1.366 . S
C2662 C2664 1.388 . S
C2663 C2662 1.366 . S
C2663 C2667 1.385 . S
C2664 H2645 0.951 . S
C2664 C2662 1.388 . S
C2664 C2665 1.366 . S
C2665 C2664 1.366 . S
C2665 C2666 1.414 . S
C2665 C2668 1.499 . S
C2666 H2646 0.950 . S
C2666 C2665 1.414 . S
C2666 C2667 1.374 . S
C2667 H2647 0.950 . S
C2667 C2663 1.385 . S
C2667 C2666 1.374 . S
C2668 C2665 1.499 . S
C2668 C2669 1.373 . S
C2668 C2670 1.389 . S
C2669 H2648 0.950 . S
C2669 C2668 1.373 . S
C2669 C2685 1.377 . S
C2670 C2668 1.389 . S
C2670 C2671 1.524 . S
C2670 C2684 1.377 . S
C2671 C2670 1.524 . S
C2671 C2672 1.397 . S
C2671 C2676 1.363 . S
C2672 H2649 0.950 . S
C2672 C2671 1.397 . S
C2672 C2673 1.334 . S
C2673 H2650 0.950 . S
C2673 C2672 1.334 . S
C2673 C2674 1.287 . S
C2674 C2673 1.287 . S
C2674 C2675 1.524 . S
C2674 H2693 0.913 . S
C2675 H2651 0.950 . S
C2675 C2674 1.524 . S
C2675 C2676 1.415 . S
C2676 H2652 0.950 . S
C2676 C2671 1.363 . S
C2676 C2675 1.415 . S
C2677 H2653 0.951 . S
C2677 C2678 1.366 . S
C2677 C2679 1.388 . S
C2678 C2677 1.366 . S
C2678 C2682 1.385 . S
C2679 H2654 0.951 . S
C2679 C2677 1.388 . S
C2679 C2680 1.366 . S
C2680 C2679 1.366 . S
C2680 C2681 1.414 . S
C2680 C2683 1.499 . S
C2681 H2655 0.950 . S
C2681 C2680 1.414 . S
C2681 C2682 1.374 . S
C2682 H2656 0.950 . S
C2682 C2678 1.385 . S
C2682 C2681 1.374 . S
C2683 C2680 1.499 . S
C2683 C2684 1.373 . S
C2683 C2685 1.389 . S
C2684 H2657 0.950 . S
C2684 C2670 1.377 . S
C2684 C2683 1.373 . S
C2685 C2669 1.377 . S
C2685 C2683 1.389 . S
C2685 C2686 1.524 . S
C2686 C2685 1.524 . S
C2686 C2687 1.397 . S
C2686 C2691 1.363 . S
C2687 H2658 0.950 . S
C2687 C2686 1.397 . S
C2687 C2688 1.334 . S
C2688 H2659 0.950 . S
C2688 C2687 1.334 . S
C2688 C2689 1.287 . S
C2689 C2688 1.287 . S
C2689 C2690 1.524 . S
C2689 H2692 0.999 . S
C2690 H2660 0.950 . S
C2690 C2689 1.524 . S
C2690 C2691 1.415 . S
C2691 H2661 0.950 . S
C2691 C2686 1.363 . S
C2691 C2690 1.415 . S
H2692 C2689 0.999 . S
H2693 C2674 0.913 . S
H2694 C2712 0.951 . S
H2695 C2714 0.951 . S
H2696 C2716 0.950 . S
H2697 C2717 0.950 . S
H2698 C2719 0.950 . S
H2699 C2722 0.950 . S
H2700 C2723 0.950 . S
H2701 C2725 0.950 . S
H2702 C2726 0.950 . S
H2703 C2727 0.951 . S
H2704 C2729 0.951 . S
H2705 C2731 0.950 . S
H2706 C2732 0.950 . S
H2707 C2734 0.950 . S
H2708 C2737 0.950 . S
H2709 C2738 0.950 . S
H2710 C2740 0.950 . S
H2711 C2741 0.950 . S
C2712 H2694 0.951 . S
C2712 C2713 1.366 . S
C2712 C2714 1.388 . S
C2713 C2712 1.366 . S
C2713 C2717 1.385 . S
C2714 H2695 0.951 . S
C2714 C2712 1.388 . S
C2714 C2715 1.366 . S
C2715 C2714 1.366 . S
C2715 C2716 1.414 . S
C2715 C2718 1.499 . S
C2716 H2696 0.950 . S
C2716 C2715 1.414 . S
C2716 C2717 1.374 . S
C2717 H2697 0.950 . S
C2717 C2713 1.385 . S
C2717 C2716 1.374 . S
C2718 C2715 1.499 . S
C2718 C2719 1.373 . S
C2718 C2720 1.389 . S
C2719 H2698 0.950 . S
C2719 C2718 1.373 . S
C2719 C2735 1.377 . S
C2720 C2718 1.389 . S
C2720 C2721 1.524 . S
C2720 C2734 1.377 . S
C2721 C2720 1.524 . S
C2721 C2722 1.397 . S
C2721 C2726 1.363 . S
C2722 H2699 0.950 . S
C2722 C2721 1.397 . S
C2722 C2723 1.334 . S
C2723 H2700 0.950 . S
C2723 C2722 1.334 . S
C2723 C2724 1.287 . S
C2724 C2723 1.287 . S
C2724 C2725 1.524 . S
C2724 H2743 0.913 . S
C2725 H2701 0.950 . S
C2725 C2724 1.524 . S
C2725 C2726 1.415 . S
C2726 H2702 0.950 . S
C2726 C2721 1.363 . S
C2726 C2725 1.415 . S
C2727 H2703 0.951 . S
C2727 C2728 1.366 . S
C2727 C2729 1.388 . S
C2728 C2727 1.366 . S
C2728 C2732 1.385 . S
C2729 H2704 0.951 . S
C2729 C2727 1.388 . S
C2729 C2730 1.366 . S
C2730 C2729 1.366 . S
C2730 C2731 1.414 . S
C2730 C2733 1.499 . S
C2731 H2705 0.950 . S
C2731 C2730 1.414 . S
C2731 C2732 1.374 . S
C2732 H2706 0.950 . S
C2732 C2728 1.385 . S
C2732 C2731 1.374 . S
C2733 C2730 1.499 . S
C2733 C2734 1.373 . S
C2733 C2735 1.389 . S
C2734 H2707 0.950 . S
C2734 C2720 1.377 . S
C2734 C2733 1.373 . S
C2735 C2719 1.377 . S
C2735 C2733 1.389 . S
C2735 C2736 1.524 . S
C2736 C2735 1.524 . S
C2736 C2737 1.397 . S
C2736 C2741 1.363 . S
C2737 H2708 0.950 . S
C2737 C2736 1.397 . S
C2737 C2738 1.334 . S
C2738 H2709 0.950 . S
C2738 C2737 1.334 . S
C2738 C2739 1.287 . S
C2739 C2738 1.287 . S
C2739 C2740 1.524 . S
C2739 H2742 0.999 . S
C2740 H2710 0.950 . S
C2740 C2739 1.524 . S
C2740 C2741 1.415 . S
C2741 H2711 0.950 . S
C2741 C2736 1.363 . S
C2741 C2740 1.415 . S
H2742 C2739 0.999 . S
H2743 C2724 0.913 . S
H2744 C2762 0.951 . S
H2745 C2764 0.951 . S
H2746 C2766 0.950 . S
H2747 C2767 0.950 . S
H2748 C2769 0.950 . S
H2749 C2772 0.950 . S
H2750 C2773 0.950 . S
H2751 C2775 0.950 . S
H2752 C2776 0.950 . S
H2753 C2777 0.951 . S
H2754 C2779 0.951 . S
H2755 C2781 0.950 . S
H2756 C2782 0.950 . S
H2757 C2784 0.950 . S
H2758 C2787 0.950 . S
H2759 C2788 0.950 . S
H2760 C2790 0.950 . S
H2761 C2791 0.950 . S
C2762 H2744 0.951 . S
C2762 C2763 1.366 . S
C2762 C2764 1.388 . S
C2763 C2762 1.366 . S
C2763 C2767 1.385 . S
C2764 H2745 0.951 . S
C2764 C2762 1.388 . S
C2764 C2765 1.366 . S
C2765 C2764 1.366 . S
C2765 C2766 1.414 . S
C2765 C2768 1.499 . S
C2766 H2746 0.950 . S
C2766 C2765 1.414 . S
C2766 C2767 1.374 . S
C2767 H2747 0.950 . S
C2767 C2763 1.385 . S
C2767 C2766 1.374 . S
C2768 C2765 1.499 . S
C2768 C2769 1.373 . S
C2768 C2770 1.389 . S
C2769 H2748 0.950 . S
C2769 C2768 1.373 . S
C2769 C2785 1.377 . S
C2770 C2768 1.389 . S
C2770 C2771 1.524 . S
C2770 C2784 1.377 . S
C2771 C2770 1.524 . S
C2771 C2772 1.397 . S
C2771 C2776 1.363 . S
C2772 H2749 0.950 . S
C2772 C2771 1.397 . S
C2772 C2773 1.334 . S
C2773 H2750 0.950 . S
C2773 C2772 1.334 . S
C2773 C2774 1.287 . S
C2774 C2773 1.287 . S
C2774 C2775 1.524 . S
C2774 H2793 0.913 . S
C2775 H2751 0.950 . S
C2775 C2774 1.524 . S
C2775 C2776 1.415 . S
C2776 H2752 0.950 . S
C2776 C2771 1.363 . S
C2776 C2775 1.415 . S
C2777 H2753 0.951 . S
C2777 C2778 1.366 . S
C2777 C2779 1.388 . S
C2778 C2777 1.366 . S
C2778 C2782 1.385 . S
C2779 H2754 0.951 . S
C2779 C2777 1.388 . S
C2779 C2780 1.366 . S
C2780 C2779 1.366 . S
C2780 C2781 1.414 . S
C2780 C2783 1.499 . S
C2781 H2755 0.950 . S
C2781 C2780 1.414 . S
C2781 C2782 1.374 . S
C2782 H2756 0.950 . S
C2782 C2778 1.385 . S
C2782 C2781 1.374 . S
C2783 C2780 1.499 . S
C2783 C2784 1.373 . S
C2783 C2785 1.389 . S
C2784 H2757 0.950 . S
C2784 C2770 1.377 . S
C2784 C2783 1.373 . S
C2785 C2769 1.377 . S
C2785 C2783 1.389 . S
C2785 C2786 1.524 . S
C2786 C2785 1.524 . S
C2786 C2787 1.397 . S
C2786 C2791 1.363 . S
C2787 H2758 0.950 . S
C2787 C2786 1.397 . S
C2787 C2788 1.334 . S
C2788 H2759 0.950 . S
C2788 C2787 1.334 . S
C2788 C2789 1.287 . S
C2789 C2788 1.287 . S
C2789 C2790 1.524 . S
C2789 H2792 0.999 . S
C2790 H2760 0.950 . S
C2790 C2789 1.524 . S
C2790 C2791 1.415 . S
C2791 H2761 0.950 . S
C2791 C2786 1.363 . S
C2791 C2790 1.415 . S
H2792 C2789 0.999 . S
H2793 C2774 0.913 . S
H2794 C2812 0.951 . S
H2795 C2814 0.951 . S
H2796 C2816 0.950 . S
H2797 C2817 0.950 . S
H2798 C2819 0.950 . S
H2799 C2822 0.950 . S
H2800 C2823 0.950 . S
H2801 C2825 0.950 . S
H2802 C2826 0.950 . S
H2803 C2827 0.951 . S
H2804 C2829 0.951 . S
H2805 C2831 0.950 . S
H2806 C2832 0.950 . S
H2807 C2834 0.950 . S
H2808 C2837 0.950 . S
H2809 C2838 0.950 . S
H2810 C2840 0.950 . S
H2811 C2841 0.950 . S
C2812 H2794 0.951 . S
C2812 C2813 1.366 . S
C2812 C2814 1.388 . S
C2813 C2812 1.366 . S
C2813 C2817 1.385 . S
C2814 H2795 0.951 . S
C2814 C2812 1.388 . S
C2814 C2815 1.366 . S
C2815 C2814 1.366 . S
C2815 C2816 1.414 . S
C2815 C2818 1.499 . S
C2816 H2796 0.950 . S
C2816 C2815 1.414 . S
C2816 C2817 1.374 . S
C2817 H2797 0.950 . S
C2817 C2813 1.385 . S
C2817 C2816 1.374 . S
C2818 C2815 1.499 . S
C2818 C2819 1.373 . S
C2818 C2820 1.389 . S
C2819 H2798 0.950 . S
C2819 C2818 1.373 . S
C2819 C2835 1.377 . S
C2820 C2818 1.389 . S
C2820 C2821 1.524 . S
C2820 C2834 1.377 . S
C2821 C2820 1.524 . S
C2821 C2822 1.397 . S
C2821 C2826 1.363 . S
C2822 H2799 0.950 . S
C2822 C2821 1.397 . S
C2822 C2823 1.334 . S
C2823 H2800 0.950 . S
C2823 C2822 1.334 . S
C2823 C2824 1.287 . S
C2824 C2823 1.287 . S
C2824 C2825 1.524 . S
C2824 H2843 0.913 . S
C2825 H2801 0.950 . S
C2825 C2824 1.524 . S
C2825 C2826 1.415 . S
C2826 H2802 0.950 . S
C2826 C2821 1.363 . S
C2826 C2825 1.415 . S
C2827 H2803 0.951 . S
C2827 C2828 1.366 . S
C2827 C2829 1.388 . S
C2828 C2827 1.366 . S
C2828 C2832 1.385 . S
C2829 H2804 0.951 . S
C2829 C2827 1.388 . S
C2829 C2830 1.366 . S
C2830 C2829 1.366 . S
C2830 C2831 1.414 . S
C2830 C2833 1.499 . S
C2831 H2805 0.950 . S
C2831 C2830 1.414 . S
C2831 C2832 1.374 . S
C2832 H2806 0.950 . S
C2832 C2828 1.385 . S
C2832 C2831 1.374 . S
C2833 C2830 1.499 . S
C2833 C2834 1.373 . S
C2833 C2835 1.389 . S
C2834 H2807 0.950 . S
C2834 C2820 1.377 . S
C2834 C2833 1.373 . S
C2835 C2819 1.377 . S
C2835 C2833 1.389 . S
C2835 C2836 1.524 . S
C2836 C2835 1.524 . S
C2836 C2837 1.397 . S
C2836 C2841 1.363 . S
C2837 H2808 0.950 . S
C2837 C2836 1.397 . S
C2837 C2838 1.334 . S
C2838 H2809 0.950 . S
C2838 C2837 1.334 . S
C2838 C2839 1.287 . S
C2839 C2838 1.287 . S
C2839 C2840 1.524 . S
C2839 H2842 0.999 . S
C2840 H2810 0.950 . S
C2840 C2839 1.524 . S
C2840 C2841 1.415 . S
C2841 H2811 0.950 . S
C2841 C2836 1.363 . S
C2841 C2840 1.415 . S
H2842 C2839 0.999 . S
H2843 C2824 0.913 . S
H2844 C2862 0.951 . S
H2845 C2864 0.951 . S
H2846 C2866 0.950 . S
H2847 C2867 0.950 . S
H2848 C2869 0.950 . S
H2849 C2872 0.950 . S
H2850 C2873 0.950 . S
H2851 C2875 0.950 . S
H2852 C2876 0.950 . S
H2853 C2877 0.951 . S
H2854 C2879 0.951 . S
H2855 C2881 0.950 . S
H2856 C2882 0.950 . S
H2857 C2884 0.950 . S
H2858 C2887 0.950 . S
H2859 C2888 0.950 . S
H2860 C2890 0.950 . S
H2861 C2891 0.950 . S
C2862 H2844 0.951 . S
C2862 C2863 1.366 . S
C2862 C2864 1.388 . S
C2863 C2862 1.366 . S
C2863 C2867 1.385 . S
C2864 H2845 0.951 . S
C2864 C2862 1.388 . S
C2864 C2865 1.366 . S
C2865 C2864 1.366 . S
C2865 C2866 1.414 . S
C2865 C2868 1.499 . S
C2866 H2846 0.950 . S
C2866 C2865 1.414 . S
C2866 C2867 1.374 . S
C2867 H2847 0.950 . S
C2867 C2863 1.385 . S
C2867 C2866 1.374 . S
C2868 C2865 1.499 . S
C2868 C2869 1.373 . S
C2868 C2870 1.389 . S
C2869 H2848 0.950 . S
C2869 C2868 1.373 . S
C2869 C2885 1.377 . S
C2870 C2868 1.389 . S
C2870 C2871 1.524 . S
C2870 C2884 1.377 . S
C2871 C2870 1.524 . S
C2871 C2872 1.397 . S
C2871 C2876 1.363 . S
C2872 H2849 0.950 . S
C2872 C2871 1.397 . S
C2872 C2873 1.334 . S
C2873 H2850 0.950 . S
C2873 C2872 1.334 . S
C2873 C2874 1.287 . S
C2874 C2873 1.287 . S
C2874 C2875 1.524 . S
C2874 H2893 0.913 . S
C2875 H2851 0.950 . S
C2875 C2874 1.524 . S
C2875 C2876 1.415 . S
C2876 H2852 0.950 . S
C2876 C2871 1.363 . S
C2876 C2875 1.415 . S
C2877 H2853 0.951 . S
C2877 C2878 1.366 . S
C2877 C2879 1.388 . S
C2878 C2877 1.366 . S
C2878 C2882 1.385 . S
C2879 H2854 0.951 . S
C2879 C2877 1.388 . S
C2879 C2880 1.366 . S
C2880 C2879 1.366 . S
C2880 C2881 1.414 . S
C2880 C2883 1.499 . S
C2881 H2855 0.950 . S
C2881 C2880 1.414 . S
C2881 C2882 1.374 . S
C2882 H2856 0.950 . S
C2882 C2878 1.385 . S
C2882 C2881 1.374 . S
C2883 C2880 1.499 . S
C2883 C2884 1.373 . S
C2883 C2885 1.389 . S
C2884 H2857 0.950 . S
C2884 C2870 1.377 . S
C2884 C2883 1.373 . S
C2885 C2869 1.377 . S
C2885 C2883 1.389 . S
C2885 C2886 1.524 . S
C2886 C2885 1.524 . S
C2886 C2887 1.397 . S
C2886 C2891 1.363 . S
C2887 H2858 0.950 . S
C2887 C2886 1.397 . S
C2887 C2888 1.334 . S
C2888 H2859 0.950 . S
C2888 C2887 1.334 . S
C2888 C2889 1.287 . S
C2889 C2888 1.287 . S
C2889 C2890 1.524 . S
C2889 H2892 0.999 . S
C2890 H2860 0.950 . S
C2890 C2889 1.524 . S
C2890 C2891 1.415 . S
C2891 H2861 0.950 . S
C2891 C2886 1.363 . S
C2891 C2890 1.415 . S
H2892 C2889 0.999 . S
H2893 C2874 0.913 . S
H2894 C2912 0.951 . S
H2895 C2914 0.951 . S
H2896 C2916 0.950 . S
H2897 C2917 0.950 . S
H2898 C2919 0.950 . S
H2899 C2922 0.950 . S
H2900 C2923 0.950 . S
H2901 C2925 0.950 . S
H2902 C2926 0.950 . S
H2903 C2927 0.951 . S
H2904 C2929 0.951 . S
H2905 C2931 0.950 . S
H2906 C2932 0.950 . S
H2907 C2934 0.950 . S
H2908 C2937 0.950 . S
H2909 C2938 0.950 . S
H2910 C2940 0.950 . S
H2911 C2941 0.950 . S
C2912 H2894 0.951 . S
C2912 C2913 1.366 . S
C2912 C2914 1.388 . S
C2913 C2912 1.366 . S
C2913 C2917 1.385 . S
C2914 H2895 0.951 . S
C2914 C2912 1.388 . S
C2914 C2915 1.366 . S
C2915 C2914 1.366 . S
C2915 C2916 1.414 . S
C2915 C2918 1.499 . S
C2916 H2896 0.950 . S
C2916 C2915 1.414 . S
C2916 C2917 1.374 . S
C2917 H2897 0.950 . S
C2917 C2913 1.385 . S
C2917 C2916 1.374 . S
C2918 C2915 1.499 . S
C2918 C2919 1.373 . S
C2918 C2920 1.389 . S
C2919 H2898 0.950 . S
C2919 C2918 1.373 . S
C2919 C2935 1.377 . S
C2920 C2918 1.389 . S
C2920 C2921 1.524 . S
C2920 C2934 1.377 . S
C2921 C2920 1.524 . S
C2921 C2922 1.397 . S
C2921 C2926 1.363 . S
C2922 H2899 0.950 . S
C2922 C2921 1.397 . S
C2922 C2923 1.334 . S
C2923 H2900 0.950 . S
C2923 C2922 1.334 . S
C2923 C2924 1.287 . S
C2924 C2923 1.287 . S
C2924 C2925 1.524 . S
C2924 H2943 0.913 . S
C2925 H2901 0.950 . S
C2925 C2924 1.524 . S
C2925 C2926 1.415 . S
C2926 H2902 0.950 . S
C2926 C2921 1.363 . S
C2926 C2925 1.415 . S
C2927 H2903 0.951 . S
C2927 C2928 1.366 . S
C2927 C2929 1.388 . S
C2928 C2927 1.366 . S
C2928 C2932 1.385 . S
C2929 H2904 0.951 . S
C2929 C2927 1.388 . S
C2929 C2930 1.366 . S
C2930 C2929 1.366 . S
C2930 C2931 1.414 . S
C2930 C2933 1.499 . S
C2931 H2905 0.950 . S
C2931 C2930 1.414 . S
C2931 C2932 1.374 . S
C2932 H2906 0.950 . S
C2932 C2928 1.385 . S
C2932 C2931 1.374 . S
C2933 C2930 1.499 . S
C2933 C2934 1.373 . S
C2933 C2935 1.389 . S
C2934 H2907 0.950 . S
C2934 C2920 1.377 . S
C2934 C2933 1.373 . S
C2935 C2919 1.377 . S
C2935 C2933 1.389 . S
C2935 C2936 1.524 . S
C2936 C2935 1.524 . S
C2936 C2937 1.397 . S
C2936 C2941 1.363 . S
C2937 H2908 0.950 . S
C2937 C2936 1.397 . S
C2937 C2938 1.334 . S
C2938 H2909 0.950 . S
C2938 C2937 1.334 . S
C2938 C2939 1.287 . S
C2939 C2938 1.287 . S
C2939 C2940 1.524 . S
C2939 H2942 0.999 . S
C2940 H2910 0.950 . S
C2940 C2939 1.524 . S
C2940 C2941 1.415 . S
C2941 H2911 0.950 . S
C2941 C2936 1.363 . S
C2941 C2940 1.415 . S
H2942 C2939 0.999 . S
H2943 C2924 0.913 . S
H2944 C2962 0.951 . S
H2945 C2964 0.951 . S
H2946 C2966 0.950 . S
H2947 C2967 0.950 . S
H2948 C2969 0.950 . S
H2949 C2972 0.950 . S
H2950 C2973 0.950 . S
H2951 C2975 0.950 . S
H2952 C2976 0.950 . S
H2953 C2977 0.951 . S
H2954 C2979 0.951 . S
H2955 C2981 0.950 . S
H2956 C2982 0.950 . S
H2957 C2984 0.950 . S
H2958 C2987 0.950 . S
H2959 C2988 0.950 . S
H2960 C2990 0.950 . S
H2961 C2991 0.950 . S
C2962 H2944 0.951 . S
C2962 C2963 1.366 . S
C2962 C2964 1.388 . S
C2963 C2962 1.366 . S
C2963 C2967 1.385 . S
C2964 H2945 0.951 . S
C2964 C2962 1.388 . S
C2964 C2965 1.366 . S
C2965 C2964 1.366 . S
C2965 C2966 1.414 . S
C2965 C2968 1.499 . S
C2966 H2946 0.950 . S
C2966 C2965 1.414 . S
C2966 C2967 1.374 . S
C2967 H2947 0.950 . S
C2967 C2963 1.385 . S
C2967 C2966 1.374 . S
C2968 C2965 1.499 . S
C2968 C2969 1.373 . S
C2968 C2970 1.389 . S
C2969 H2948 0.950 . S
C2969 C2968 1.373 . S
C2969 C2985 1.377 . S
C2970 C2968 1.389 . S
C2970 C2971 1.524 . S
C2970 C2984 1.377 . S
C2971 C2970 1.524 . S
C2971 C2972 1.397 . S
C2971 C2976 1.363 . S
C2972 H2949 0.950 . S
C2972 C2971 1.397 . S
C2972 C2973 1.334 . S
C2973 H2950 0.950 . S
C2973 C2972 1.334 . S
C2973 C2974 1.287 . S
C2974 C2973 1.287 . S
C2974 C2975 1.524 . S
C2974 H2993 0.913 . S
C2975 H2951 0.950 . S
C2975 C2974 1.524 . S
C2975 C2976 1.415 . S
C2976 H2952 0.950 . S
C2976 C2971 1.363 . S
C2976 C2975 1.415 . S
C2977 H2953 0.951 . S
C2977 C2978 1.366 . S
C2977 C2979 1.388 . S
C2978 C2977 1.366 . S
C2978 C2982 1.385 . S
C2979 H2954 0.951 . S
C2979 C2977 1.388 . S
C2979 C2980 1.366 . S
C2980 C2979 1.366 . S
C2980 C2981 1.414 . S
C2980 C2983 1.499 . S
C2981 H2955 0.950 . S
C2981 C2980 1.414 . S
C2981 C2982 1.374 . S
C2982 H2956 0.950 . S
C2982 C2978 1.385 . S
C2982 C2981 1.374 . S
C2983 C2980 1.499 . S
C2983 C2984 1.373 . S
C2983 C2985 1.389 . S
C2984 H2957 0.950 . S
C2984 C2970 1.377 . S
C2984 C2983 1.373 . S
C2985 C2969 1.377 . S
C2985 C2983 1.389 . S
C2985 C2986 1.524 . S
C2986 C2985 1.524 . S
C2986 C2987 1.397 . S
C2986 C2991 1.363 . S
C2987 H2958 0.950 . S
C2987 C2986 1.397 . S
C2987 C2988 1.334 . S
C2988 H2959 0.950 . S
C2988 C2987 1.334 . S
C2988 C2989 1.287 . S
C2989 C2988 1.287 . S
C2989 C2990 1.524 . S
C2989 H2992 0.999 . S
C2990 H2960 0.950 . S
C2990 C2989 1.524 . S
C2990 C2991 1.415 . S
C2991 H2961 0.950 . S
C2991 C2986 1.363 . S
C2991 C2990 1.415 . S
H2992 C2989 0.999 . S
H2993 C2974 0.913 . S
H2994 C3012 0.951 . S
H2995 C3014 0.951 . S
H2996 C3016 0.950 . S
H2997 C3017 0.950 . S
H2998 C3019 0.950 . S
H2999 C3022 0.950 . S
H3000 C3023 0.950 . S
H3001 C3025 0.950 . S
H3002 C3026 0.950 . S
H3003 C3027 0.951 . S
H3004 C3029 0.951 . S
H3005 C3031 0.950 . S
H3006 C3032 0.950 . S
H3007 C3034 0.950 . S
H3008 C3037 0.950 . S
H3009 C3038 0.950 . S
H3010 C3040 0.950 . S
H3011 C3041 0.950 . S
C3012 H2994 0.951 . S
C3012 C3013 1.366 . S
C3012 C3014 1.388 . S
C3013 C3012 1.366 . S
C3013 C3017 1.385 . S
C3014 H2995 0.951 . S
C3014 C3012 1.388 . S
C3014 C3015 1.366 . S
C3015 C3014 1.366 . S
C3015 C3016 1.414 . S
C3015 C3018 1.499 . S
C3016 H2996 0.950 . S
C3016 C3015 1.414 . S
C3016 C3017 1.374 . S
C3017 H2997 0.950 . S
C3017 C3013 1.385 . S
C3017 C3016 1.374 . S
C3018 C3015 1.499 . S
C3018 C3019 1.373 . S
C3018 C3020 1.389 . S
C3019 H2998 0.950 . S
C3019 C3018 1.373 . S
C3019 C3035 1.377 . S
C3020 C3018 1.389 . S
C3020 C3021 1.524 . S
C3020 C3034 1.377 . S
C3021 C3020 1.524 . S
C3021 C3022 1.397 . S
C3021 C3026 1.363 . S
C3022 H2999 0.950 . S
C3022 C3021 1.397 . S
C3022 C3023 1.334 . S
C3023 H3000 0.950 . S
C3023 C3022 1.334 . S
C3023 C3024 1.287 . S
C3024 C3023 1.287 . S
C3024 C3025 1.524 . S
C3024 H3043 0.913 . S
C3025 H3001 0.950 . S
C3025 C3024 1.524 . S
C3025 C3026 1.415 . S
C3026 H3002 0.950 . S
C3026 C3021 1.363 . S
C3026 C3025 1.415 . S
C3027 H3003 0.951 . S
C3027 C3028 1.366 . S
C3027 C3029 1.388 . S
C3028 C3027 1.366 . S
C3028 C3032 1.385 . S
C3029 H3004 0.951 . S
C3029 C3027 1.388 . S
C3029 C3030 1.366 . S
C3030 C3029 1.366 . S
C3030 C3031 1.414 . S
C3030 C3033 1.499 . S
C3031 H3005 0.950 . S
C3031 C3030 1.414 . S
C3031 C3032 1.374 . S
C3032 H3006 0.950 . S
C3032 C3028 1.385 . S
C3032 C3031 1.374 . S
C3033 C3030 1.499 . S
C3033 C3034 1.373 . S
C3033 C3035 1.389 . S
C3034 H3007 0.950 . S
C3034 C3020 1.377 . S
C3034 C3033 1.373 . S
C3035 C3019 1.377 . S
C3035 C3033 1.389 . S
C3035 C3036 1.524 . S
C3036 C3035 1.524 . S
C3036 C3037 1.397 . S
C3036 C3041 1.363 . S
C3037 H3008 0.950 . S
C3037 C3036 1.397 . S
C3037 C3038 1.334 . S
C3038 H3009 0.950 . S
C3038 C3037 1.334 . S
C3038 C3039 1.287 . S
C3039 C3038 1.287 . S
C3039 C3040 1.524 . S
C3039 H3042 0.999 . S
C3040 H3010 0.950 . S
C3040 C3039 1.524 . S
C3040 C3041 1.415 . S
C3041 H3011 0.950 . S
C3041 C3036 1.363 . S
C3041 C3040 1.415 . S
H3042 C3039 0.999 . S
H3043 C3024 0.913 . S
H3044 C3062 0.951 . S
H3045 C3064 0.951 . S
H3046 C3066 0.950 . S
H3047 C3067 0.950 . S
H3048 C3069 0.950 . S
H3049 C3072 0.950 . S
H3050 C3073 0.950 . S
H3051 C3075 0.950 . S
H3052 C3076 0.950 . S
H3053 C3077 0.951 . S
H3054 C3079 0.951 . S
H3055 C3081 0.950 . S
H3056 C3082 0.950 . S
H3057 C3084 0.950 . S
H3058 C3087 0.950 . S
H3059 C3088 0.950 . S
H3060 C3090 0.950 . S
H3061 C3091 0.950 . S
C3062 H3044 0.951 . S
C3062 C3063 1.366 . S
C3062 C3064 1.388 . S
C3063 C3062 1.366 . S
C3063 C3067 1.385 . S
C3064 H3045 0.951 . S
C3064 C3062 1.388 . S
C3064 C3065 1.366 . S
C3065 C3064 1.366 . S
C3065 C3066 1.414 . S
C3065 C3068 1.499 . S
C3066 H3046 0.950 . S
C3066 C3065 1.414 . S
C3066 C3067 1.374 . S
C3067 H3047 0.950 . S
C3067 C3063 1.385 . S
C3067 C3066 1.374 . S
C3068 C3065 1.499 . S
C3068 C3069 1.373 . S
C3068 C3070 1.389 . S
C3069 H3048 0.950 . S
C3069 C3068 1.373 . S
C3069 C3085 1.377 . S
C3070 C3068 1.389 . S
C3070 C3071 1.524 . S
C3070 C3084 1.377 . S
C3071 C3070 1.524 . S
C3071 C3072 1.397 . S
C3071 C3076 1.363 . S
C3072 H3049 0.950 . S
C3072 C3071 1.397 . S
C3072 C3073 1.334 . S
C3073 H3050 0.950 . S
C3073 C3072 1.334 . S
C3073 C3074 1.287 . S
C3074 C3073 1.287 . S
C3074 C3075 1.524 . S
C3074 H3093 0.913 . S
C3075 H3051 0.950 . S
C3075 C3074 1.524 . S
C3075 C3076 1.415 . S
C3076 H3052 0.950 . S
C3076 C3071 1.363 . S
C3076 C3075 1.415 . S
C3077 H3053 0.951 . S
C3077 C3078 1.366 . S
C3077 C3079 1.388 . S
C3078 C3077 1.366 . S
C3078 C3082 1.385 . S
C3079 H3054 0.951 . S
C3079 C3077 1.388 . S
C3079 C3080 1.366 . S
C3080 C3079 1.366 . S
C3080 C3081 1.414 . S
C3080 C3083 1.499 . S
C3081 H3055 0.950 . S
C3081 C3080 1.414 . S
C3081 C3082 1.374 . S
C3082 H3056 0.950 . S
C3082 C3078 1.385 . S
C3082 C3081 1.374 . S
C3083 C3080 1.499 . S
C3083 C3084 1.373 . S
C3083 C3085 1.389 . S
C3084 H3057 0.950 . S
C3084 C3070 1.377 . S
C3084 C3083 1.373 . S
C3085 C3069 1.377 . S
C3085 C3083 1.389 . S
C3085 C3086 1.524 . S
C3086 C3085 1.524 . S
C3086 C3087 1.397 . S
C3086 C3091 1.363 . S
C3087 H3058 0.950 . S
C3087 C3086 1.397 . S
C3087 C3088 1.334 . S
C3088 H3059 0.950 . S
C3088 C3087 1.334 . S
C3088 C3089 1.287 . S
C3089 C3088 1.287 . S
C3089 C3090 1.524 . S
C3089 H3092 0.999 . S
C3090 H3060 0.950 . S
C3090 C3089 1.524 . S
C3090 C3091 1.415 . S
C3091 H3061 0.950 . S
C3091 C3086 1.363 . S
C3091 C3090 1.415 . S
H3092 C3089 0.999 . S
H3093 C3074 0.913 . S
H3094 C3112 0.951 . S
H3095 C3114 0.951 . S
H3096 C3116 0.950 . S
H3097 C3117 0.950 . S
H3098 C3119 0.950 . S
H3099 C3122 0.950 . S
H3100 C3123 0.950 . S
H3101 C3125 0.950 . S
H3102 C3126 0.950 . S
H3103 C3127 0.951 . S
H3104 C3129 0.951 . S
H3105 C3131 0.950 . S
H3106 C3132 0.950 . S
H3107 C3134 0.950 . S
H3108 C3137 0.950 . S
H3109 C3138 0.950 . S
H3110 C3140 0.950 . S
H3111 C3141 0.950 . S
C3112 H3094 0.951 . S
C3112 C3113 1.366 . S
C3112 C3114 1.388 . S
C3113 C3112 1.366 . S
C3113 C3117 1.385 . S
C3114 H3095 0.951 . S
C3114 C3112 1.388 . S
C3114 C3115 1.366 . S
C3115 C3114 1.366 . S
C3115 C3116 1.414 . S
C3115 C3118 1.499 . S
C3116 H3096 0.950 . S
C3116 C3115 1.414 . S
C3116 C3117 1.374 . S
C3117 H3097 0.950 . S
C3117 C3113 1.385 . S
C3117 C3116 1.374 . S
C3118 C3115 1.499 . S
C3118 C3119 1.373 . S
C3118 C3120 1.389 . S
C3119 H3098 0.950 . S
C3119 C3118 1.373 . S
C3119 C3135 1.377 . S
C3120 C3118 1.389 . S
C3120 C3121 1.524 . S
C3120 C3134 1.377 . S
C3121 C3120 1.524 . S
C3121 C3122 1.397 . S
C3121 C3126 1.363 . S
C3122 H3099 0.950 . S
C3122 C3121 1.397 . S
C3122 C3123 1.334 . S
C3123 H3100 0.950 . S
C3123 C3122 1.334 . S
C3123 C3124 1.287 . S
C3124 C3123 1.287 . S
C3124 C3125 1.524 . S
C3124 H3143 0.913 . S
C3125 H3101 0.950 . S
C3125 C3124 1.524 . S
C3125 C3126 1.415 . S
C3126 H3102 0.950 . S
C3126 C3121 1.363 . S
C3126 C3125 1.415 . S
C3127 H3103 0.951 . S
C3127 C3128 1.366 . S
C3127 C3129 1.388 . S
C3128 C3127 1.366 . S
C3128 C3132 1.385 . S
C3129 H3104 0.951 . S
C3129 C3127 1.388 . S
C3129 C3130 1.366 . S
C3130 C3129 1.366 . S
C3130 C3131 1.414 . S
C3130 C3133 1.499 . S
C3131 H3105 0.950 . S
C3131 C3130 1.414 . S
C3131 C3132 1.374 . S
C3132 H3106 0.950 . S
C3132 C3128 1.385 . S
C3132 C3131 1.374 . S
C3133 C3130 1.499 . S
C3133 C3134 1.373 . S
C3133 C3135 1.389 . S
C3134 H3107 0.950 . S
C3134 C3120 1.377 . S
C3134 C3133 1.373 . S
C3135 C3119 1.377 . S
C3135 C3133 1.389 . S
C3135 C3136 1.524 . S
C3136 C3135 1.524 . S
C3136 C3137 1.397 . S
C3136 C3141 1.363 . S
C3137 H3108 0.950 . S
C3137 C3136 1.397 . S
C3137 C3138 1.334 . S
C3138 H3109 0.950 . S
C3138 C3137 1.334 . S
C3138 C3139 1.287 . S
C3139 C3138 1.287 . S
C3139 C3140 1.524 . S
C3139 H3142 0.999 . S
C3140 H3110 0.950 . S
C3140 C3139 1.524 . S
C3140 C3141 1.415 . S
C3141 H3111 0.950 . S
C3141 C3136 1.363 . S
C3141 C3140 1.415 . S
H3142 C3139 0.999 . S
H3143 C3124 0.913 . S
H3144 C3162 0.951 . S
H3145 C3164 0.951 . S
H3146 C3166 0.950 . S
H3147 C3167 0.950 . S
H3148 C3169 0.950 . S
H3149 C3172 0.950 . S
H3150 C3173 0.950 . S
H3151 C3175 0.950 . S
H3152 C3176 0.950 . S
H3153 C3177 0.951 . S
H3154 C3179 0.951 . S
H3155 C3181 0.950 . S
H3156 C3182 0.950 . S
H3157 C3184 0.950 . S
H3158 C3187 0.950 . S
H3159 C3188 0.950 . S
H3160 C3190 0.950 . S
H3161 C3191 0.950 . S
C3162 H3144 0.951 . S
C3162 C3163 1.366 . S
C3162 C3164 1.388 . S
C3163 C3162 1.366 . S
C3163 C3167 1.385 . S
C3164 H3145 0.951 . S
C3164 C3162 1.388 . S
C3164 C3165 1.366 . S
C3165 C3164 1.366 . S
C3165 C3166 1.414 . S
C3165 C3168 1.499 . S
C3166 H3146 0.950 . S
C3166 C3165 1.414 . S
C3166 C3167 1.374 . S
C3167 H3147 0.950 . S
C3167 C3163 1.385 . S
C3167 C3166 1.374 . S
C3168 C3165 1.499 . S
C3168 C3169 1.373 . S
C3168 C3170 1.389 . S
C3169 H3148 0.950 . S
C3169 C3168 1.373 . S
C3169 C3185 1.377 . S
C3170 C3168 1.389 . S
C3170 C3171 1.524 . S
C3170 C3184 1.377 . S
C3171 C3170 1.524 . S
C3171 C3172 1.397 . S
C3171 C3176 1.363 . S
C3172 H3149 0.950 . S
C3172 C3171 1.397 . S
C3172 C3173 1.334 . S
C3173 H3150 0.950 . S
C3173 C3172 1.334 . S
C3173 C3174 1.287 . S
C3174 C3173 1.287 . S
C3174 C3175 1.524 . S
C3174 H3193 0.913 . S
C3175 H3151 0.950 . S
C3175 C3174 1.524 . S
C3175 C3176 1.415 . S
C3176 H3152 0.950 . S
C3176 C3171 1.363 . S
C3176 C3175 1.415 . S
C3177 H3153 0.951 . S
C3177 C3178 1.366 . S
C3177 C3179 1.388 . S
C3178 C3177 1.366 . S
C3178 C3182 1.385 . S
C3179 H3154 0.951 . S
C3179 C3177 1.388 . S
C3179 C3180 1.366 . S
C3180 C3179 1.366 . S
C3180 C3181 1.414 . S
C3180 C3183 1.499 . S
C3181 H3155 0.950 . S
C3181 C3180 1.414 . S
C3181 C3182 1.374 . S
C3182 H3156 0.950 . S
C3182 C3178 1.385 . S
C3182 C3181 1.374 . S
C3183 C3180 1.499 . S
C3183 C3184 1.373 . S
C3183 C3185 1.389 . S
C3184 H3157 0.950 . S
C3184 C3170 1.377 . S
C3184 C3183 1.373 . S
C3185 C3169 1.377 . S
C3185 C3183 1.389 . S
C3185 C3186 1.524 . S
C3186 C3185 1.524 . S
C3186 C3187 1.397 . S
C3186 C3191 1.363 . S
C3187 H3158 0.950 . S
C3187 C3186 1.397 . S
C3187 C3188 1.334 . S
C3188 H3159 0.950 . S
C3188 C3187 1.334 . S
C3188 C3189 1.287 . S
C3189 C3188 1.287 . S
C3189 C3190 1.524 . S
C3189 H3192 0.999 . S
C3190 H3160 0.950 . S
C3190 C3189 1.524 . S
C3190 C3191 1.415 . S
C3191 H3161 0.950 . S
C3191 C3186 1.363 . S
C3191 C3190 1.415 . S
H3192 C3189 0.999 . S
H3193 C3174 0.913 . S
H3194 C3212 0.951 . S
H3195 C3214 0.951 . S
H3196 C3216 0.950 . S
H3197 C3217 0.950 . S
H3198 C3219 0.950 . S
H3199 C3222 0.950 . S
H3200 C3223 0.950 . S
H3201 C3225 0.950 . S
H3202 C3226 0.950 . S
H3203 C3227 0.951 . S
H3204 C3229 0.951 . S
H3205 C3231 0.950 . S
H3206 C3232 0.950 . S
H3207 C3234 0.950 . S
H3208 C3237 0.950 . S
H3209 C3238 0.950 . S
H3210 C3240 0.950 . S
H3211 C3241 0.950 . S
C3212 H3194 0.951 . S
C3212 C3213 1.366 . S
C3212 C3214 1.388 . S
C3213 C3212 1.366 . S
C3213 C3217 1.385 . S
C3214 H3195 0.951 . S
C3214 C3212 1.388 . S
C3214 C3215 1.366 . S
C3215 C3214 1.366 . S
C3215 C3216 1.414 . S
C3215 C3218 1.499 . S
C3216 H3196 0.950 . S
C3216 C3215 1.414 . S
C3216 C3217 1.374 . S
C3217 H3197 0.950 . S
C3217 C3213 1.385 . S
C3217 C3216 1.374 . S
C3218 C3215 1.499 . S
C3218 C3219 1.373 . S
C3218 C3220 1.389 . S
C3219 H3198 0.950 . S
C3219 C3218 1.373 . S
C3219 C3235 1.377 . S
C3220 C3218 1.389 . S
C3220 C3221 1.524 . S
C3220 C3234 1.377 . S
C3221 C3220 1.524 . S
C3221 C3222 1.397 . S
C3221 C3226 1.363 . S
C3222 H3199 0.950 . S
C3222 C3221 1.397 . S
C3222 C3223 1.334 . S
C3223 H3200 0.950 . S
C3223 C3222 1.334 . S
C3223 C3224 1.287 . S
C3224 C3223 1.287 . S
C3224 C3225 1.524 . S
C3224 H3243 0.913 . S
C3225 H3201 0.950 . S
C3225 C3224 1.524 . S
C3225 C3226 1.415 . S
C3226 H3202 0.950 . S
C3226 C3221 1.363 . S
C3226 C3225 1.415 . S
C3227 H3203 0.951 . S
C3227 C3228 1.366 . S
C3227 C3229 1.388 . S
C3228 C3227 1.366 . S
C3228 C3232 1.385 . S
C3229 H3204 0.951 . S
C3229 C3227 1.388 . S
C3229 C3230 1.366 . S
C3230 C3229 1.366 . S
C3230 C3231 1.414 . S
C3230 C3233 1.499 . S
C3231 H3205 0.950 . S
C3231 C3230 1.414 . S
C3231 C3232 1.374 . S
C3232 H3206 0.950 . S
C3232 C3228 1.385 . S
C3232 C3231 1.374 . S
C3233 C3230 1.499 . S
C3233 C3234 1.373 . S
C3233 C3235 1.389 . S
C3234 H3207 0.950 . S
C3234 C3220 1.377 . S
C3234 C3233 1.373 . S
C3235 C3219 1.377 . S
C3235 C3233 1.389 . S
C3235 C3236 1.524 . S
C3236 C3235 1.524 . S
C3236 C3237 1.397 . S
C3236 C3241 1.363 . S
C3237 H3208 0.950 . S
C3237 C3236 1.397 . S
C3237 C3238 1.334 . S
C3238 H3209 0.950 . S
C3238 C3237 1.334 . S
C3238 C3239 1.287 . S
C3239 C3238 1.287 . S
C3239 C3240 1.524 . S
C3239 H3242 0.999 . S
C3240 H3210 0.950 . S
C3240 C3239 1.524 . S
C3240 C3241 1.415 . S
C3241 H3211 0.950 . S
C3241 C3236 1.363 . S
C3241 C3240 1.415 . S
H3242 C3239 0.999 . S
H3243 C3224 0.913 . S
H3244 C3262 0.951 . S
H3245 C3264 0.951 . S
H3246 C3266 0.950 . S
H3247 C3267 0.950 . S
H3248 C3269 0.950 . S
H3249 C3272 0.950 . S
H3250 C3273 0.950 . S
H3251 C3275 0.950 . S
H3252 C3276 0.950 . S
H3253 C3277 0.951 . S
H3254 C3279 0.951 . S
H3255 C3281 0.950 . S
H3256 C3282 0.950 . S
H3257 C3284 0.950 . S
H3258 C3287 0.950 . S
H3259 C3288 0.950 . S
H3260 C3290 0.950 . S
H3261 C3291 0.950 . S
C3262 H3244 0.951 . S
C3262 C3263 1.366 . S
C3262 C3264 1.388 . S
C3263 C3262 1.366 . S
C3263 C3267 1.385 . S
C3264 H3245 0.951 . S
C3264 C3262 1.388 . S
C3264 C3265 1.366 . S
C3265 C3264 1.366 . S
C3265 C3266 1.414 . S
C3265 C3268 1.499 . S
C3266 H3246 0.950 . S
C3266 C3265 1.414 . S
C3266 C3267 1.374 . S
C3267 H3247 0.950 . S
C3267 C3263 1.385 . S
C3267 C3266 1.374 . S
C3268 C3265 1.499 . S
C3268 C3269 1.373 . S
C3268 C3270 1.389 . S
C3269 H3248 0.950 . S
C3269 C3268 1.373 . S
C3269 C3285 1.377 . S
C3270 C3268 1.389 . S
C3270 C3271 1.524 . S
C3270 C3284 1.377 . S
C3271 C3270 1.524 . S
C3271 C3272 1.397 . S
C3271 C3276 1.363 . S
C3272 H3249 0.950 . S
C3272 C3271 1.397 . S
C3272 C3273 1.334 . S
C3273 H3250 0.950 . S
C3273 C3272 1.334 . S
C3273 C3274 1.287 . S
C3274 C3273 1.287 . S
C3274 C3275 1.524 . S
C3274 H3293 0.913 . S
C3275 H3251 0.950 . S
C3275 C3274 1.524 . S
C3275 C3276 1.415 . S
C3276 H3252 0.950 . S
C3276 C3271 1.363 . S
C3276 C3275 1.415 . S
C3277 H3253 0.951 . S
C3277 C3278 1.366 . S
C3277 C3279 1.388 . S
C3278 C3277 1.366 . S
C3278 C3282 1.385 . S
C3279 H3254 0.951 . S
C3279 C3277 1.388 . S
C3279 C3280 1.366 . S
C3280 C3279 1.366 . S
C3280 C3281 1.414 . S
C3280 C3283 1.499 . S
C3281 H3255 0.950 . S
C3281 C3280 1.414 . S
C3281 C3282 1.374 . S
C3282 H3256 0.950 . S
C3282 C3278 1.385 . S
C3282 C3281 1.374 . S
C3283 C3280 1.499 . S
C3283 C3284 1.373 . S
C3283 C3285 1.389 . S
C3284 H3257 0.950 . S
C3284 C3270 1.377 . S
C3284 C3283 1.373 . S
C3285 C3269 1.377 . S
C3285 C3283 1.389 . S
C3285 C3286 1.524 . S
C3286 C3285 1.524 . S
C3286 C3287 1.397 . S
C3286 C3291 1.363 . S
C3287 H3258 0.950 . S
C3287 C3286 1.397 . S
C3287 C3288 1.334 . S
C3288 H3259 0.950 . S
C3288 C3287 1.334 . S
C3288 C3289 1.287 . S
C3289 C3288 1.287 . S
C3289 C3290 1.524 . S
C3289 H3292 0.999 . S
C3290 H3260 0.950 . S
C3290 C3289 1.524 . S
C3290 C3291 1.415 . S
C3291 H3261 0.950 . S
C3291 C3286 1.363 . S
C3291 C3290 1.415 . S
H3292 C3289 0.999 . S
H3293 C3274 0.913 . S
C613 N170 2.191 . S
C628 C243 2.203 . S
C663 N184 1.074 . S
C678 C283 1.064 . S
C713 N158 1.696 . S
C728 C322 1.670 . S
C763 N145 1.553 . S
C778 C282 1.523 1_556 S
C828 C323 0.708 . S
C813 N119 0.705 . S
C863 N131 1.892 . S
C878 C242 1.908 . S
C928 C253 1.793 1_556 S
C913 N144 1.802 . S
C978 C293 1.672 . S
C963 N118 1.685 . S
C1013 N132 1.564 . S
C1028 C332 1.559 . S
C1063 N171 1.459 . S
C1078 C292 1.445 . S
C1113 N183 1.284 . S
C1128 C333 1.285 . S
C1178 C252 1.428 . S
C1163 N157 1.455 . S
C1228 C363 2.203 . S
C1213 N14 2.190 . S
C1263 N28 1.074 . S
C1278 C403 1.064 . S
C1313 N2 1.697 . S
C1328 C442 1.670 . S
C1363 N223 1.554 . S
C1378 C402 1.523 . S
C1413 N197 0.705 . S
C1428 C443 0.708 . S
C1463 N209 1.892 . S
C1478 C362 1.908 . S
C1513 N222 1.802 . S
C1528 C373 1.794 . S
C1563 N196 1.685 . S
C1578 C413 1.672 . S
C1628 C452 1.560 . S
C1613 N210 1.565 . S
C1663 N15 1.459 . S
C1678 C412 1.444 . S
C1728 C453 1.285 . S
C1713 N27 1.284 . S
C1763 N1 1.454 . S
C1778 C372 1.428 . S
C1828 C483 2.202 . S
C1813 N92 2.190 . S
C1863 N106 1.074 . S
C1878 C523 1.064 . S
C1928 C562 1.670 . S
C1913 N80 1.696 . S
C1978 C522 1.522 . S
C1963 N67 1.553 . S
C2028 C563 0.707 . S
C2013 N41 0.705 . S
C2063 N53 1.892 . S
C2078 C482 1.908 . S
C2113 N66 1.802 . S
C2128 C493 1.794 . S
C2163 N40 1.685 . S
C2178 C533 1.672 . S
C2228 C572 1.559 . S
C2213 N54 1.564 . S
C2263 N93 1.459 . S
C2278 C532 1.444 . S
C2313 N105 1.284 . S
C2328 C573 1.285 . S
C2363 N79 1.455 . S
C2378 C492 1.429 . S
C2413 N200 0.885 . S
C2428 C239 0.891 . S
C2478 C279 2.151 . S
C2463 N213 2.111 . S
C2513 N226 1.577 . S
C2528 C329 1.596 . S
C2563 N83 1.828 . S
C2578 C289 1.841 . S
C2613 N96 1.901 . S
C2628 C319 1.945 . S
C2678 C249 1.023 . S
C2663 N109 1.020 . S
C2713 N44 0.886 . S
C2728 C359 0.891 . S
C2763 N57 2.111 . S
C2778 C399 2.151 . S
C2813 N70 1.577 . S
C2828 C449 1.596 . S
C2863 N161 1.828 . S
C2878 C409 1.840 . S
C2928 C439 1.945 . S
C2913 N174 1.900 . S
C2963 N187 1.020 . S
C2978 C369 1.023 . S
C3013 N122 0.885 . S
C3028 C479 0.891 . S
C3063 N135 2.111 . S
C3078 C519 2.151 . S
C3128 C569 1.596 . S
C3113 N148 1.577 . S
C3163 N5 1.828 . S
C3178 C529 1.841 . S
C3213 N18 1.900 . S
C3228 C559 1.946 . S
C3263 N31 1.020 . S
C3278 C489 1.023 . S
