# Generated by pormake.
# Topology rtl, (3,6)-cn, num edge types: 1
# Building blocks:
#     Node 0, Type 0, BuildingBlock: BELTOD_clean_linker_0, # of connection points: 3
#     Node 1, Type 0, BuildingBlock: BELTOD_clean_linker_0, # of connection points: 3
#     Node 2, Type 0, BuildingBlock: BELTOD_clean_linker_0, # of connection points: 3
#     Node 3, Type 0, BuildingBlock: BELTOD_clean_linker_0, # of connection points: 3
#     Node 4, Type 1, BuildingBlock: KUMBUR_clean_sbu_1, # of connection points: 6
#     Node 5, Type 1, BuildingBlock: KUMBUR_clean_sbu_1, # of connection points: 6
#     Edge 6, Type (0, 1), BuildingBlock: ZUJKAS_clean_linker_0, # of connection points: 2
#     Edge 7, Type (0, 1), BuildingBlock: ZUJKAS_clean_linker_0, # of connection points: 2
#     Edge 8, Type (0, 1), BuildingBlock: ZUJKAS_clean_linker_0, # of connection points: 2
#     Edge 9, Type (0, 1), BuildingBlock: ZUJKAS_clean_linker_0, # of connection points: 2
#     Edge 10, Type (0, 1), BuildingBlock: ZUJKAS_clean_linker_0, # of connection points: 2
#     Edge 11, Type (0, 1), BuildingBlock: ZUJKAS_clean_linker_0, # of connection points: 2
#     Edge 12, Type (0, 1), BuildingBlock: ZUJKAS_clean_linker_0, # of connection points: 2
#     Edge 13, Type (0, 1), BuildingBlock: ZUJKAS_clean_linker_0, # of connection points: 2
#     Edge 14, Type (0, 1), BuildingBlock: ZUJKAS_clean_linker_0, # of connection points: 2
#     Edge 15, Type (0, 1), BuildingBlock: ZUJKAS_clean_linker_0, # of connection points: 2
#     Edge 16, Type (0, 1), BuildingBlock: ZUJKAS_clean_linker_0, # of connection points: 2
#     Edge 17, Type (0, 1), BuildingBlock: ZUJKAS_clean_linker_0, # of connection points: 2
# Relax obj value: 0.018
# Max RMSD: 0.085
# Mean RMSD: 0.057
data_MOF--net-rtl--node1-KUMBUR_clean_sbu_1--node2-BELTOD_clean_linker_0--edge1-ZUJKAS_clean_linker_0
_symmetry_space_group_name_H-M    P1
_symmetry_Int_Tables_number       1
_symmetry_cell_setting            triclinic
loop_
_symmetry_equiv_pos_as_xyz
'x, y, z'
_cell_length_a     46.886957
_cell_length_b     47.32427
_cell_length_c     40.312178
_cell_angle_alpha  80.73834
_cell_angle_beta   99.706599
_cell_angle_gamma 90.400892
loop_
_atom_site_label
_atom_site_type_symbol
_atom_site_fract_x
_atom_site_fract_y
_atom_site_fract_z
_atom_type_partial_charge
P0 P 0.25055 0.88747 0.02299 0.0
H1 H 0.26706 0.89653 0.09342 0.0
H2 H 0.23921 0.8995 0.13893 0.0
H3 H 0.16154 0.87919 0.07347 0.0
H4 H 0.1895 0.8765 0.02804 0.0
H5 H 0.29108 0.87096 0.98249 0.0
H6 H 0.31649 0.82603 0.98253 0.0
H7 H 0.27733 0.78589 0.06742 0.0
H8 H 0.25194 0.83101 0.06725 0.0
H9 H 0.22561 0.9413 0.98356 0.0
H10 H 0.22255 0.85182 0.97395 0.0
O11 O 0.27491 0.91324 0.02567 0.0
H12 H 0.19456 0.95324 0.92774 0.0
H13 H 0.19163 0.86358 0.91821 0.0
C14 C 0.23023 0.88694 0.05717 0.0
C15 C 0.24406 0.89261 0.08896 0.0
C16 C 0.22814 0.89411 0.11501 0.0
C17 C 0.19809 0.88988 0.10968 0.0
C18 C 0.18454 0.8831 0.07814 0.0
C19 C 0.20053 0.88148 0.05217 0.0
C20 C 0.26981 0.85434 0.02494 0.0
C21 C 0.28808 0.85251 1.00121 0.0
C22 C 0.3024 0.82678 1.0011 0.0
C23 C 0.29882 0.80241 0.0249 0.0
C24 C 0.28068 0.80439 0.04895 0.0
C25 C 0.26613 0.83016 0.04884 0.0
C26 C 0.22698 0.89581 0.98243 0.0
C27 C 0.21829 0.92425 0.96939 0.0
C28 C 0.2004 0.93101 0.93764 0.0
C29 C 0.1909 0.90936 0.91847 0.0
C30 C 0.19905 0.88076 0.93212 0.0
C31 C 0.21674 0.87403 0.96398 0.0
P32 P 0.71125 0.66733 0.6083 0.0
H33 H 0.7274 0.67066 0.54149 0.0
H34 H 0.70261 0.65834 0.48754 0.0
H35 H 0.62608 0.63787 0.53253 0.0
H36 H 0.65077 0.65106 0.58608 0.0
H37 H 0.75793 0.69096 0.65186 0.0
H38 H 0.78425 0.73561 0.6447 0.0
H39 H 0.72391 0.76629 0.55258 0.0
H40 H 0.69786 0.72133 0.55981 0.0
H41 H 0.69799 0.61309 0.64653 0.0
H42 H 0.67846 0.70231 0.64423 0.0
O43 O 0.73933 0.64431 0.6168 0.0
H44 H 0.67121 0.59993 0.69338 0.0
H45 H 0.65174 0.68931 0.69179 0.0
C46 C 0.69101 0.6617 0.5678 0.0
C47 C 0.70513 0.66391 0.53955 0.0
C48 C 0.69099 0.65664 0.50881 0.0
C49 C 0.66244 0.64677 0.50578 0.0
C50 C 0.64798 0.64558 0.53386 0.0
C51 C 0.66216 0.65298 0.56464 0.0
C52 C 0.7263 0.70261 0.60608 0.0
C53 C 0.75009 0.70751 0.63044 0.0
C54 C 0.76506 0.73314 0.62635 0.0
C55 C 0.75644 0.75445 0.5978 0.0
C56 C 0.73148 0.7501 0.57449 0.0
C57 C 0.71646 0.72443 0.57868 0.0
C58 C 0.69072 0.65868 0.64244 0.0
C59 C 0.68809 0.62989 0.65635 0.0
C60 C 0.67284 0.6224 0.68325 0.0
C61 C 0.65969 0.64358 0.69674 0.0
C62 C 0.66162 0.67248 0.682 0.0
C63 C 0.67701 0.67996 0.65498 0.0
P64 P 0.82791 0.20055 0.02437 0.0
H65 H 0.82544 0.22628 0.95362 0.0
H66 H 0.83324 0.20692 0.90309 0.0
H67 H 0.84004 0.12154 0.96156 0.0
H68 H 0.83142 0.14098 0.01161 0.0
H69 H 0.81357 0.24256 0.06395 0.0
H70 H 0.76963 0.27015 0.06313 0.0
H71 H 0.72506 0.22826 0.98214 0.0
H72 H 0.76942 0.20073 0.98302 0.0
H73 H 0.88013 0.16781 0.05666 0.0
H74 H 0.79305 0.17558 0.07604 0.0
O75 O 0.85449 0.22417 0.02615 0.0
H76 H 0.89316 0.13573 0.11108 0.0
H77 H 0.80598 0.14361 0.13058 0.0
C78 C 0.82825 0.18516 0.98641 0.0
C79 C 0.82809 0.20334 0.95533 0.0
C80 C 0.83273 0.19226 0.92656 0.0
C81 C 0.83772 0.16272 0.92842 0.0
C82 C 0.83616 0.14436 0.95919 0.0
C83 C 0.83143 0.15551 0.98796 0.0
C84 C 0.79484 0.21999 0.02323 0.0
C85 C 0.79434 0.23933 0.046 0.0
C86 C 0.76912 0.2549 0.04569 0.0
C87 C 0.74383 0.25138 0.02258 0.0
C88 C 0.7443 0.23165 0.99999 0.0
C89 C 0.7696 0.2159 1.00049 0.0
C90 C 0.8358 0.17438 0.06256 0.0
C91 C 0.86375 0.16236 0.0725 0.0
C92 C 0.87111 0.14391 0.1035 0.0
C93 C 0.85062 0.1373 0.12519 0.0
C94 C 0.8223 0.14862 0.11457 0.0
C95 C 0.81489 0.16688 0.08336 0.0
P96 P 0.37408 0.27312 0.47708 0.0
H97 H 0.39696 0.25794 0.54939 0.0
H98 H 0.40138 0.28407 0.59725 0.0
H99 H 0.3603 0.3583 0.52981 0.0
H100 H 0.35688 0.33211 0.48166 0.0
H101 H 0.35946 0.2141 0.46983 0.0
H102 H 0.31484 0.18739 0.47093 0.0
H103 H 0.26891 0.26462 0.4771 0.0
H104 H 0.31397 0.29136 0.47649 0.0
H105 H 0.42464 0.28255 0.44389 0.0
H106 H 0.33573 0.31239 0.4237 0.0
O107 O 0.40054 0.24822 0.48737 0.0
H108 H 0.4327 0.31059 0.39017 0.0
H109 H 0.34385 0.34095 0.36966 0.0
C110 C 0.37716 0.29326 0.51182 0.0
C111 C 0.38913 0.27994 0.54479 0.0
C112 C 0.39136 0.29486 0.57229 0.0
C113 C 0.38122 0.32338 0.56752 0.0
C114 C 0.36879 0.33655 0.53438 0.0
C115 C 0.36672 0.32158 0.50679 0.0
C116 C 0.34016 0.25469 0.47348 0.0
C117 C 0.33984 0.22542 0.47126 0.0
C118 C 0.31432 0.21011 0.472 0.0
C119 C 0.28848 0.22385 0.47449 0.0
C120 C 0.28851 0.25349 0.47512 0.0
C121 C 0.31423 0.26877 0.47481 0.0
C122 C 0.37942 0.29492 0.43759 0.0
C123 C 0.40675 0.29505 0.42785 0.0
C124 C 0.41136 0.31107 0.39704 0.0
C125 C 0.38883 0.32772 0.37548 0.0
C126 C 0.36162 0.3283 0.38575 0.0
C127 C 0.35692 0.31191 0.41654 0.0
Tb128 Tb 0.02702 0.97666 0.50565 0.0
C129 C 0.93903 0.07399 0.48525 0.0
N130 N 0.96724 0.07367 0.50008 0.0
C131 C 0.97381 0.11902 0.46626 0.0
C132 C 0.92732 0.09621 0.45899 0.0
C133 C 0.98446 0.09629 0.49206 0.0
C134 C 0.94523 0.11877 0.44927 0.0
C135 C 0.89223 0.05202 0.48348 0.0
C136 C 0.92191 0.05221 0.49726 0.0
C137 C 0.88059 0.07329 0.45608 0.0
C138 C 0.89811 0.09539 0.44388 0.0
Tb139 Tb 0.98309 0.03536 0.54098 0.0
N140 N 0.93398 0.03241 0.5241 0.0
C141 C 0.875 0.03118 0.49857 0.0
C142 C 0.91665 0.01394 0.54092 0.0
C143 C 0.88716 0.01243 0.52787 0.0
H144 H 0.00656 0.09643 0.50511 0.0
H145 H 0.87376 0.99714 0.54078 0.0
H146 H 0.98635 0.91776 0.51372 0.0
H147 H 0.14057 0.98854 0.55077 0.0
H148 H 0.92531 1.00058 0.56473 0.0
H149 H 0.85209 0.03023 0.48876 0.0
H150 H 0.09327 0.00111 0.51344 0.0
H151 H 0.98766 0.13662 0.45939 0.0
H152 H 0.85789 0.07333 0.44487 0.0
H153 H 0.88871 0.11206 0.42334 0.0
H154 H 0.98674 0.87316 0.55465 0.0
H155 H 0.93707 0.13632 0.42921 0.0
H156 H 0.14521 0.94584 0.59599 0.0
N157 N 0.02594 0.93256 0.53902 0.0
C158 C 0.05027 0.92472 0.56221 0.0
C159 C 0.00455 0.88774 0.55752 0.0
C160 C 0.05208 0.8988 0.58532 0.0
C161 C 0.00407 0.91351 0.53483 0.0
C162 C 0.02839 0.88064 0.5834 0.0
N163 N 0.07159 0.96633 0.53801 0.0
C164 C 0.09524 0.98248 0.53312 0.0
C165 C 0.10051 0.93391 0.58312 0.0
C166 C 0.07417 0.94186 0.56114 0.0
C167 C 0.12453 0.95121 0.57961 0.0
C168 C 0.12199 0.97536 0.55414 0.0
H169 H 0.02886 0.86053 0.60069 0.0
H170 H 0.07947 0.87176 0.6269 0.0
H171 H 0.12191 0.9026 0.62501 0.0
O172 O 0.04393 0.98709 0.46014 0.0
O173 O 0.04343 0.99192 0.55386 0.0
O174 O 0.00284 0.99808 0.57633 0.0
O175 O 0.03638 0.94345 0.47995 0.0
O176 O 0.04 0.02143 0.49342 0.0
O177 O 0.02814 0.04555 0.53565 0.0
O178 O 0.96046 0.05205 0.57486 0.0
O179 O 0.98612 0.03903 0.48662 0.0
O180 O 0.98507 0.99281 0.4767 0.0
O181 O 0.00452 0.06304 0.57224 0.0
O182 O 0.97268 0.9898 0.55422 0.0
O183 O 0.98107 0.96844 0.50888 0.0
C184 C 0.03003 0.99008 0.58009 0.0
C185 C 0.02958 0.95632 0.42042 0.0
C186 C 0.03352 0.94723 0.3634 0.0
C187 C 0.0031 0.9479 0.35514 0.0
C188 C 0.99933 0.95658 0.41181 0.0
C189 C 0.98619 0.95259 0.37922 0.0
C190 C 0.04658 0.95169 0.39623 0.0
C191 C 0.04359 0.04238 0.51182 0.0
C192 C 0.04361 0.96082 0.45453 0.0
C193 C 0.0778 0.89139 0.60861 0.0
C194 C 0.10201 0.9089 0.60747 0.0
C195 C 0.97798 0.01998 0.46685 0.0
C196 C 0.99082 0.05656 0.62667 0.0
C197 C 0.97816 0.05663 0.68308 0.0
C198 C 0.00428 0.04175 0.69789 0.0
C199 C 0.01686 0.0419 0.64214 0.0
C200 C 0.97158 0.06392 0.64728 0.0
C201 C 0.02343 0.03447 0.67751 0.0
C202 C 0.96697 0.97027 0.53421 0.0
C203 C 0.98336 0.06388 0.58916 0.0
H204 H 0.99233 0.94423 0.3303 0.0
H205 H 0.98593 0.95964 0.43035 0.0
H206 H 0.96282 0.95285 0.37271 0.0
H207 H 0.06996 0.95174 0.40298 0.0
H208 H 0.01023 0.03623 0.72532 0.0
H209 H 0.03223 0.03621 0.62697 0.0
H210 H 0.95141 0.07507 0.6354 0.0
H211 H 0.04355 0.0232 0.68918 0.0
Tb212 Tb 0.46289 0.48899 0.99121 0.0
C213 C 0.5844 0.53385 0.02754 0.0
N214 N 0.57204 0.51131 0.04479 0.0
C215 C 0.61507 0.48278 0.0491 0.0
C216 C 0.61205 0.53131 0.01885 0.0
C217 C 0.58781 0.48662 0.05764 0.0
C218 C 0.62698 0.50501 0.02892 0.0
C219 C 0.58329 0.58481 0.00623 0.0
C220 C 0.57032 0.56018 0.02129 0.0
C221 C 0.61016 0.58218 0.99589 0.0
C222 C 0.62446 0.55543 1.00203 0.0
Tb223 Tb 0.52665 0.51987 0.05552 0.0
N224 N 0.5443 0.5618 0.03141 0.0
C225 C 0.56917 0.61135 0.00291 0.0
C226 C 0.53124 0.58776 0.0302 0.0
C227 C 0.54325 0.61288 0.01544 0.0
H228 H 0.57974 0.47002 0.0751 0.0
H229 H 0.53253 0.63337 0.01375 0.0
H230 H 0.40498 0.52198 0.00325 0.0
H231 H 0.48735 0.37574 1.0008 0.0
H232 H 0.51132 0.58893 0.04008 0.0
H233 H 0.57842 0.63082 0.99148 0.0
H234 H 0.49122 0.42697 0.97917 0.0
H235 H 0.62714 0.46293 0.05878 0.0
H236 H 0.62041 0.6008 0.98398 0.0
H237 H 0.64557 0.55386 0.99483 0.0
H238 H 0.36188 0.50962 0.03035 0.0
H239 H 0.6483 0.50214 0.02281 0.0
H240 H 0.45047 0.35936 0.0365 0.0
N241 N 0.42235 0.4795 0.01493 0.0
C242 C 0.41805 0.45169 0.02725 0.0
C243 C 0.37765 0.49316 0.0299 0.0
C244 C 0.39402 0.44361 0.04309 0.0
C245 C 0.40204 0.50012 0.01467 0.0
C246 C 0.37383 0.46484 0.04463 0.0
N247 N 0.45956 0.44027 0.00608 0.0
C248 C 0.4762 0.42048 0.99635 0.0
C249 C 0.43384 0.40218 0.03507 0.0
C250 C 0.43773 0.43143 0.02333 0.0
C251 C 0.45268 0.38205 0.02794 0.0
C252 C 0.47358 0.39122 0.00789 0.0
H253 H 0.35501 0.45952 0.05655 0.0
H254 H 0.37267 0.408 0.06904 0.0
H255 H 0.40755 0.37164 0.06195 0.0
O256 O 0.44283 0.47032 0.94869 0.0
O257 O 0.45933 0.49033 0.04481 0.0
O258 O 0.50531 0.48054 0.07365 0.0
O259 O 0.439 0.51602 0.94958 0.0
O260 O 0.50704 0.47148 0.99546 0.0
O261 O 0.52904 0.47417 0.05077 0.0
O262 O 0.51594 0.53704 0.09698 0.0
O263 O 0.51519 0.5402 1.00166 0.0
O264 O 0.50248 0.50323 0.97213 0.0
O265 O 0.55919 0.52255 0.09774 0.0
O266 O 0.4836 0.53979 0.04948 0.0
O267 O 0.45892 0.53441 0.99568 0.0
C268 C 0.47723 0.47815 0.07185 0.0
C269 C 0.41383 0.49961 0.89875 0.0
C270 C 0.39845 0.48627 0.84237 0.0
C271 C 0.3799 0.51053 0.83354 0.0
C272 C 0.39524 0.52374 0.88918 0.0
C273 C 0.37828 0.52902 0.85684 0.0
C274 C 0.41514 0.48069 0.87538 0.0
C275 C 0.52638 0.46244 0.02287 0.0
C276 C 0.43227 0.49505 0.93273 0.0
C277 C 0.39079 0.41467 0.05634 0.0
C278 C 0.4107 0.39398 0.05239 0.0
C279 C 0.51515 0.5278 0.97476 0.0
C280 C 0.54272 0.51752 0.15026 0.0
C281 C 0.54967 0.5193 0.21133 0.0
C282 C 0.5443 0.48977 0.21746 0.0
C283 C 0.53803 0.48804 0.15699 0.0
C284 C 0.54858 0.53307 0.17742 0.0
C285 C 0.53858 0.4743 0.19042 0.0
C286 C 0.46348 0.54772 0.02245 0.0
C287 C 0.5416 0.53225 0.11507 0.0
H288 H 0.36645 0.51513 0.8086 0.0
H289 H 0.39376 0.53855 0.90674 0.0
H290 H 0.36391 0.54761 0.84975 0.0
H291 H 0.42976 0.46224 0.88243 0.0
H292 H 0.54527 0.47844 0.24322 0.0
H293 H 0.53419 0.47567 0.13641 0.0
H294 H 0.5522 0.55588 0.17208 0.0
H295 H 0.53492 0.45152 0.19542 0.0
H296 H 0.23336 0.23542 0.43929 0.0
H297 H 0.19036 0.20619 0.44401 0.0
H298 H 0.24098 0.1453 0.52274 0.0
H299 H 0.28402 0.1739 0.51727 0.0
H300 H 0.20888 0.11823 0.47894 0.0
H301 H 0.13931 0.19848 0.51482 0.0
H302 H 0.15123 0.21056 0.47502 0.0
H303 H 0.17728 0.20394 0.51385 0.0
C304 C 0.23517 0.2159 0.45775 0.0
C305 C 0.26202 0.2069 0.47785 0.0
C306 C 0.21057 0.19928 0.46058 0.0
C307 C 0.21224 0.1737 0.48414 0.0
C308 C 0.23906 0.16489 0.50437 0.0
H309 H 0.06923 0.07806 0.55467 0.0
H310 H 0.10974 0.10983 0.54694 0.0
C311 C 0.26367 0.18123 0.5012 0.0
C312 C 0.18648 0.15544 0.48707 0.0
H313 H 0.11672 0.15558 0.50159 0.0
C314 C 0.18876 0.12642 0.48398 0.0
C315 C 0.16029 0.16595 0.49412 0.0
C316 C 0.15691 0.19635 0.5 0.0
C317 C 0.16574 0.10767 0.48772 0.0
C318 C 0.13921 0.1184 0.49353 0.0
C319 C 0.13691 0.1474 0.49673 0.0
C320 C 0.11393 0.0997 0.49747 0.0
C321 C 0.17051 0.07636 0.48648 0.0
C322 C 0.10234 0.08377 0.47198 0.0
C323 C 0.07942 0.06527 0.47654 0.0
C324 C 0.06718 0.06275 0.5064 0.0
C325 C 0.07813 0.07947 0.53136 0.0
C326 C 0.10131 0.09768 0.52697 0.0
H327 H 0.19389 0.07031 0.49213 0.0
H328 H 0.15928 0.06248 0.50495 0.0
H329 H 0.16184 0.07199 0.46048 0.0
H330 H 0.11109 0.08557 0.44855 0.0
H331 H 0.07126 0.05299 0.45661 0.0
H332 H 0.32807 0.76562 0.07917 0.0
H333 H 0.35484 0.72165 0.07781 0.0
H334 H 0.33009 0.73331 0.96839 0.0
H335 H 0.30363 0.77739 0.96955 0.0
H336 H 0.33716 0.67183 0.05502 0.0
H337 H 0.4172 0.72469 0.97985 0.0
H338 H 0.39331 0.74457 0.99876 0.0
H339 H 0.38036 0.73183 0.95933 0.0
C340 C 0.32823 0.75871 0.05486 0.0
C341 C 0.314 0.77509 0.02443 0.0
C342 C 0.34359 0.73365 0.0541 0.0
C343 C 0.34496 0.72453 0.02293 0.0
C344 C 0.33002 0.74038 0.99263 0.0
H345 H 0.42517 0.57669 0.96902 0.0
H346 H 0.39537 0.61898 0.96903 0.0
C347 C 0.31485 0.76551 0.99334 0.0
C348 C 0.36189 0.69835 0.02214 0.0
H349 H 0.41767 0.67383 0.98907 0.0
C350 C 0.35482 0.67229 0.04071 0.0
C351 C 0.38498 0.699 0.00346 0.0
C352 C 0.39464 0.72656 0.98448 0.0
C353 C 0.37 0.6468 0.04076 0.0
C354 C 0.39291 0.64749 0.02195 0.0
C355 C 0.39993 0.67345 0.00327 0.0
C356 C 0.41045 0.62159 0.02216 0.0
C357 C 0.36127 0.61924 0.0606 0.0
C358 C 0.42893 0.60931 0.05198 0.0
C359 C 0.4461 0.5853 0.05206 0.0
C360 C 0.44507 0.57308 0.02228 0.0
C361 C 0.42645 0.58547 0.99242 0.0
C362 C 0.40942 0.60964 0.99234 0.0
H363 H 0.33965 0.62121 0.06791 0.0
H364 H 0.36093 0.60153 0.04551 0.0
H365 H 0.37736 0.61337 0.08428 0.0
H366 H 0.43028 0.61849 0.07512 0.0
H367 H 0.46016 0.57635 0.07551 0.0
H368 H 0.7707 0.77958 0.53685 0.0
H369 H 0.80449 0.81837 0.52687 0.0
H370 H 0.8179 0.82562 0.63359 0.0
H371 H 0.78394 0.78694 0.64383 0.0
H372 H 0.80567 0.87558 0.53935 0.0
H373 H 0.89991 0.81117 0.61578 0.0
H374 H 0.86561 0.79543 0.60225 0.0
H375 H 0.87023 0.81435 0.63797 0.0
C376 C 0.78041 0.78974 0.55814 0.0
C377 C 0.77471 0.77998 0.59122 0.0
C378 C 0.79986 0.81182 0.5524 0.0
C379 C 0.81412 0.82451 0.57958 0.0
C380 C 0.80763 0.81568 0.61237 0.0
H381 H 0.94986 0.95053 0.59503 0.0
H382 H 0.91179 0.91623 0.60581 0.0
C383 C 0.78819 0.79357 0.61817 0.0
C384 C 0.83636 0.84641 0.5737 0.0
H385 H 0.90842 0.85943 0.59445 0.0
C386 C 0.82814 0.87207 0.55136 0.0
C387 C 0.86569 0.84175 0.58936 0.0
C388 C 0.87605 0.81411 0.61246 0.0
C389 C 0.8484 0.89336 0.54462 0.0
C390 C 0.87774 0.88861 0.56016 0.0
C391 C 0.88591 0.86303 0.58262 0.0
C392 C 0.90038 0.9098 0.5533 0.0
C393 C 0.83817 0.92097 0.5214 0.0
C394 C 0.90686 0.91729 0.52029 0.0
C395 C 0.92855 0.93691 0.51407 0.0
C396 C 0.94421 0.9493 0.54079 0.0
C397 C 0.93792 0.94153 0.57388 0.0
C398 C 0.91626 0.9219 0.58009 0.0
H399 H 0.81441 0.92432 0.51877 0.0
H400 H 0.84924 0.93962 0.53102 0.0
H401 H 0.8433 0.92026 0.49567 0.0
H402 H 0.8953 0.90777 0.49936 0.0
H403 H 0.93297 0.94249 0.48832 0.0
H404 H 0.72088 0.26376 0.07668 0.0
H405 H 0.68056 0.29661 0.07545 0.0
H406 H 0.66712 0.3119 0.9655 0.0
H407 H 0.70753 0.27908 0.96652 0.0
H408 H 0.67904 0.3543 0.04713 0.0
H409 H 0.58486 0.29841 0.98586 0.0
H410 H 0.6191 0.28039 0.00402 0.0
H411 H 0.61469 0.30268 0.96289 0.0
C412 C 0.70921 0.27396 0.05222 0.0
C413 C 0.71748 0.26893 0.02169 0.0
C414 C 0.68611 0.29262 0.05156 0.0
C415 C 0.67069 0.3065 0.0204 0.0
C416 C 0.67835 0.30096 0.98982 0.0
H417 H 0.5446 0.44706 0.96739 0.0
H418 H 0.57888 0.40838 0.96656 0.0
C419 C 0.70146 0.28223 0.99045 0.0
C420 C 0.64824 0.32848 0.02012 0.0
H421 H 0.57662 0.34634 0.9934 0.0
C422 C 0.6566 0.35245 0.03561 0.0
C423 C 0.61906 0.32612 0.00476 0.0
C424 C 0.60874 0.30042 0.98867 0.0
C425 C 0.63663 0.37429 0.0359 0.0
C426 C 0.60745 0.37187 0.02077 0.0
C427 C 0.59904 0.34802 0.00507 0.0
C428 C 0.58547 0.39406 0.02107 0.0
C429 C 0.64699 0.40021 0.05156 0.0
C430 C 0.57745 0.39834 0.05191 0.0
C431 C 0.55783 0.42027 0.05244 0.0
C432 C 0.54599 0.43833 0.02213 0.0
C433 C 0.55343 0.43347 0.99114 0.0
C434 C 0.57298 0.41145 0.99061 0.0
H435 H 0.67099 0.40105 0.05693 0.0
H436 H 0.63845 0.4201 0.03426 0.0
H437 H 0.63882 0.39968 0.07592 0.0
H438 H 0.58656 0.38483 0.07561 0.0
H439 H 0.55208 0.42324 0.07659 0.0
H440 H 0.21141 0.87116 0.17861 0.0
H441 H 0.18353 0.87924 0.22257 0.0
H442 H 0.11831 0.92585 0.14524 0.0
H443 H 0.14594 0.91779 0.10125 0.0
H444 H 0.16774 0.93038 0.23904 0.0
H445 H 0.07 0.86979 0.19819 0.0
H446 H 0.10345 0.86635 0.18251 0.0
H447 H 0.07913 0.89624 0.16467 0.0
C448 C 0.19109 0.88306 0.17098 0.0
C449 C 0.18078 0.89367 0.13641 0.0
C450 C 0.17515 0.88759 0.19611 0.0
C451 C 0.14861 0.90274 0.18714 0.0
C452 C 0.13835 0.91345 0.15268 0.0
H453 H 0.02488 0.96733 0.29467 0.0
H454 H 0.05358 0.95631 0.25282 0.0
C455 C 0.15418 0.90883 0.12755 0.0
C456 C 0.13218 0.90837 0.21388 0.0
H457 H 0.06618 0.90023 0.23904 0.0
C458 C 0.14562 0.92358 0.23923 0.0
C459 C 0.10331 0.89949 0.21406 0.0
C460 C 0.08819 0.88182 0.1886 0.0
C461 C 0.13072 0.93077 0.26425 0.0
C462 C 0.10174 0.92226 0.26407 0.0
C463 C 0.08837 0.90685 0.23895 0.0
C464 C 0.08482 0.92922 0.2897 0.0
C465 C 0.14582 0.94803 0.29016 0.0
C466 C 0.0928 0.91746 0.32424 0.0
C467 C 0.07633 0.92352 0.3482 0.0
C468 C 0.0515 0.94141 0.33804 0.0
C469 C 0.04365 0.9532 0.30334 0.0
C470 C 0.06009 0.94705 0.2794 0.0
H471 H 0.16563 0.95816 0.28236 0.0
H472 H 0.13112 0.96503 0.29411 0.0
H473 H 0.15228 0.93371 0.31493 0.0
H474 H 0.11152 0.90323 0.3326 0.0
H475 H 0.08271 0.91366 0.37458 0.0
H476 H 0.677 0.60383 0.75363 0.0
H477 H 0.65071 0.58771 0.8004 0.0
H478 H 0.58183 0.64869 0.75431 0.0
H479 H 0.60775 0.6645 0.70676 0.0
H480 H 0.63136 0.61815 0.84694 0.0
H481 H 0.54003 0.57177 0.76743 0.0
H482 H 0.57354 0.58152 0.75256 0.0
H483 H 0.54721 0.60871 0.75326 0.0
C484 C 0.65616 0.61371 0.75326 0.0
C485 C 0.64432 0.63523 0.7262 0.0
C486 C 0.64126 0.6046 0.78017 0.0
C487 C 0.61413 0.61669 0.78062 0.0
C488 C 0.60254 0.63874 0.75419 0.0
H489 H 0.52326 0.58504 0.95593 0.0
H490 H 0.5473 0.60806 0.90944 0.0
C491 C 0.6175 0.64794 0.72721 0.0
C492 C 0.59804 0.60575 0.80865 0.0
H493 H 0.53747 0.56958 0.82575 0.0
C494 C 0.61073 0.60772 0.84232 0.0
C495 C 0.57132 0.59179 0.80256 0.0
C496 C 0.55723 0.58803 0.76707 0.0
C497 C 0.59746 0.59601 0.87007 0.0
C498 C 0.57068 0.58222 0.86396 0.0
C499 C 0.55792 0.58035 0.83031 0.0
C500 C 0.55618 0.5685 0.89227 0.0
C501 C 0.61263 0.59759 0.9058 0.0
C502 C 0.55279 0.53871 0.89772 0.0
C503 C 0.53936 0.52554 0.92447 0.0
C504 C 0.52899 0.54193 0.94622 0.0
C505 C 0.53184 0.57181 0.94026 0.0
C506 C 0.54543 0.58499 0.9136 0.0
H507 H 0.63543 0.60434 0.90645 0.0
H508 H 0.60107 0.61333 0.91665 0.0
H509 H 0.6124 0.57646 0.92236 0.0
H510 H 0.56084 0.52561 0.88146 0.0
H511 H 0.53741 0.50246 0.92837 0.0
H512 H 0.88349 0.08786 0.14269 0.0
H513 H 0.9017 0.06244 0.20021 0.0
H514 H 0.85684 0.12343 0.24285 0.0
H515 H 0.83828 0.14859 0.18554 0.0
H516 H 0.93685 0.08317 0.24914 0.0
H517 H 0.83603 0.04949 0.29698 0.0
H518 H 0.83673 0.06209 0.25241 0.0
H519 H 0.83559 0.0872 0.28135 0.0
C520 C 0.87724 0.0956 0.16435 0.0
C521 C 0.85939 0.12016 0.15962 0.0
C522 C 0.88759 0.08103 0.19717 0.0
C523 C 0.88031 0.09076 0.22586 0.0
C524 C 0.86209 0.11501 0.22113 0.0
H525 H 0.98055 0.07205 0.42742 0.0
H526 H 0.95593 0.08766 0.36893 0.0
C527 C 0.85156 0.12944 0.18833 0.0
C528 C 0.89378 0.07717 0.26072 0.0
H529 H 0.87875 0.04969 0.33945 0.0
C530 C 0.92411 0.07554 0.26876 0.0
C531 C 0.87719 0.06685 0.28625 0.0
C532 C 0.84459 0.0662 0.27873 0.0
C533 C 0.9383 0.06486 0.30185 0.0
C534 C 0.92172 0.05621 0.32781 0.0
C535 C 0.8914 0.05677 0.31958 0.0
C536 C 0.93553 0.04705 0.36376 0.0
C537 C 0.97094 0.06287 0.3087 0.0
C538 C 0.9314 0.01939 0.38065 0.0
C539 C 0.94503 0.01063 0.41435 0.0
C540 C 0.96292 0.02944 0.43165 0.0
C541 C 0.96663 0.05724 0.41485 0.0
C542 C 0.95288 0.06605 0.38129 0.0
H543 H 0.97983 0.06245 0.28492 0.0
H544 H 0.97962 0.08189 0.31962 0.0
H545 H 0.97879 0.0434 0.32724 0.0
H546 H 0.91793 0.00448 0.36763 0.0
H547 H 0.94149 0.98919 0.42688 0.0
H548 H 0.39454 0.37984 0.56911 0.0
H549 H 0.39936 0.40528 0.61787 0.0
H550 H 0.37972 0.32804 0.68191 0.0
H551 H 0.37346 0.30279 0.63299 0.0
H552 H 0.35081 0.3738 0.69276 0.0
H553 H 0.46645 0.40007 0.69598 0.0
H554 H 0.44457 0.41273 0.65537 0.0
H555 H 0.44868 0.37484 0.67063 0.0
C556 C 0.39095 0.36829 0.59346 0.0
C557 C 0.38378 0.33916 0.59706 0.0
C558 C 0.39416 0.38279 0.62147 0.0
C559 C 0.39059 0.36842 0.65378 0.0
C560 C 0.38292 0.33951 0.65735 0.0
H561 H 0.39822 0.4275 0.8512 0.0
H562 H 0.39786 0.39695 0.80728 0.0
C563 C 0.37956 0.32503 0.62934 0.0
C564 C 0.394 0.38371 0.68364 0.0
H565 H 0.44079 0.42416 0.73004 0.0
C566 C 0.37059 0.38455 0.70113 0.0
C567 C 0.41989 0.39762 0.69471 0.0
C568 C 0.44643 0.39606 0.67842 0.0
C569 C 0.37201 0.39973 0.72857 0.0
C570 C 0.3976 0.41425 0.73899 0.0
C571 C 0.42119 0.41302 0.72194 0.0
C572 C 0.39965 0.43219 0.76624 0.0
C573 C 0.34581 0.40095 0.74553 0.0
C574 C 0.40164 0.46197 0.75788 0.0
C575 C 0.40189 0.47938 0.7828 0.0
C576 C 0.40037 0.46734 0.81671 0.0
C577 C 0.39946 0.43738 0.82533 0.0
C578 C 0.39902 0.41994 0.80024 0.0
H579 H 0.32621 0.39277 0.73074 0.0
H580 H 0.35008 0.38766 0.77123 0.0
H581 H 0.3413 0.42325 0.74879 0.0
H582 H 0.40235 0.47182 0.73184 0.0
H583 H 0.40308 0.50235 0.77546 0.0
H584 H 0.68731 0.61449 0.46753 0.0
H585 H 0.66466 0.59599 0.41654 0.0
H586 H 0.58319 0.63508 0.42215 0.0
H587 H 0.60598 0.65455 0.47279 0.0
H588 H 0.61859 0.55883 0.41158 0.0
H589 H 0.5925 0.66113 0.32217 0.0
H590 H 0.6176 0.6589 0.36179 0.0
H591 H 0.57931 0.65862 0.36189 0.0
C592 C 0.6647 0.61967 0.45761 0.0
C593 C 0.64854 0.63624 0.47415 0.0
C594 C 0.65173 0.60886 0.42859 0.0
C595 C 0.62233 0.6144 0.41532 0.0
C596 C 0.60603 0.63093 0.43165 0.0
H597 H 0.52558 0.51535 0.26934 0.0
H598 H 0.54092 0.53928 0.31875 0.0
C599 C 0.61902 0.64178 0.46078 0.0
C600 C 0.60874 0.6018 0.38519 0.0
H601 H 0.57628 0.61862 0.30182 0.0
C602 C 0.60922 0.57189 0.38761 0.0
C603 C 0.59677 0.61892 0.35389 0.0
C604 C 0.59665 0.65119 0.3495 0.0
C605 C 0.59826 0.55858 0.35954 0.0
C606 C 0.58604 0.57566 0.32831 0.0
C607 C 0.58543 0.60559 0.32589 0.0
C608 C 0.57516 0.56279 0.29747 0.0
C609 C 0.60068 0.52639 0.36327 0.0
C610 C 0.58867 0.5688 0.26868 0.0
C611 C 0.57995 0.55519 0.24042 0.0
C612 C 0.55746 0.53534 0.24035 0.0
C613 C 0.54332 0.53011 0.26883 0.0
C614 C 0.55203 0.54379 0.29706 0.0
H615 H 0.61635 0.51711 0.38625 0.0
H616 H 0.57923 0.51706 0.36576 0.0
H617 H 0.60754 0.51991 0.34049 0.0
H618 H 0.60656 0.58341 0.26848 0.0
H619 H 0.59149 0.55951 0.21909 0.0
H620 H 0.87587 0.18657 0.88842 0.0
H621 H 0.89434 0.1668 0.84374 0.0
H622 H 0.84068 0.0931 0.85906 0.0
H623 H 0.82145 0.1131 0.90352 0.0
H624 H 0.92386 0.11253 0.8555 0.0
H625 H 0.827 0.11944 0.75332 0.0
H626 H 0.83025 0.14066 0.78719 0.0
H627 H 0.82213 0.10335 0.79553 0.0
C628 C 0.86742 0.16648 0.8818 0.0
C629 C 0.84704 0.15149 0.89945 0.0
C630 C 0.87818 0.15512 0.85641 0.0
C631 C 0.86871 0.12863 0.84794 0.0
C632 C 0.84797 0.11377 0.86494 0.0
H633 H 0.96317 0.02502 0.74049 0.0
H634 H 0.93468 0.04086 0.77992 0.0
C635 C 0.83721 0.12511 0.89051 0.0
C636 C 0.88221 0.11588 0.82298 0.0
H637 H 0.86919 0.09729 0.74342 0.0
C638 C 0.9119 0.10907 0.83105 0.0
C639 C 0.86652 0.11159 0.79108 0.0
C640 C 0.83474 0.11928 0.78096 0.0
C641 C 0.92643 0.0982 0.80799 0.0
C642 C 0.91076 0.09379 0.77613 0.0
C643 C 0.88103 0.10053 0.768 0.0
C644 C 0.92537 0.08318 0.75059 0.0
C645 C 0.9586 0.09218 0.81752 0.0
C646 C 0.9288 0.10148 0.72056 0.0
C647 C 0.94523 0.09258 0.69807 0.0
C648 C 0.95842 0.06516 0.70519 0.0
C649 C 0.95381 0.04647 0.7346 0.0
C650 C 0.93743 0.05541 0.75708 0.0
H651 H 0.96834 0.10185 0.84006 0.0
H652 H 0.9626 0.06869 0.82374 0.0
H653 H 0.96977 0.10054 0.79585 0.0
H654 H 0.91965 0.12302 0.71517 0.0
H655 H 0.94852 0.10758 0.67582 0.0
H656 H 0.37394 0.38369 0.3485 0.0
H657 H 0.38518 0.41117 0.29526 0.0
H658 H 0.4267 0.33635 0.27486 0.0
H659 H 0.41567 0.30886 0.32788 0.0
H660 H 0.44707 0.41562 0.27843 0.0
H661 H 0.3658 0.36999 0.18522 0.0
H662 H 0.36103 0.37028 0.22875 0.0
H663 H 0.38585 0.34508 0.2196 0.0
C664 C 0.38516 0.37306 0.33244 0.0
C665 C 0.39399 0.34415 0.3424 0.0
C666 C 0.39167 0.38878 0.30217 0.0
C667 C 0.40663 0.37571 0.28112 0.0
C668 C 0.41498 0.34676 0.29067 0.0
H669 H 0.50375 0.43587 0.12125 0.0
H670 H 0.48576 0.41262 0.17231 0.0
C671 C 0.4088 0.33115 0.32104 0.0
C672 C 0.41469 0.39245 0.2498 0.0
H673 H 0.4016 0.39926 0.16286 0.0
C674 C 0.43699 0.41226 0.25315 0.0
C675 C 0.40145 0.388 0.21691 0.0
C676 C 0.37705 0.36734 0.21213 0.0
C677 C 0.44693 0.4272 0.22438 0.0
C678 C 0.43425 0.42213 0.19152 0.0
C679 C 0.41137 0.40296 0.18812 0.0
C680 C 0.44493 0.43611 0.16045 0.0
C681 C 0.47115 0.44808 0.22931 0.0
C682 C 0.42778 0.45676 0.13671 0.0
C683 C 0.43824 0.47043 0.10784 0.0
C684 C 0.4658 0.46332 0.10193 0.0
C685 C 0.48263 0.44215 0.1254 0.0
C686 C 0.47235 0.42877 0.15448 0.0
H687 H 0.47398 0.45448 0.25499 0.0
H688 H 0.49168 0.43784 0.22665 0.0
H689 H 0.46716 0.46762 0.20968 0.0
H690 H 0.40653 0.46267 0.14085 0.0
H691 H 0.42496 0.48693 0.09048 0.0
H692 H 0.19752 0.88893 0.86057 0.0
H693 H 0.16942 0.90221 0.80327 0.0
H694 H 0.11589 0.9591 0.84126 0.0
H695 H 0.14418 0.94618 0.89858 0.0
H696 H 0.11231 0.89713 0.7785 0.0
H697 H 0.14196 0.01162 0.76286 0.0
H698 H 0.16013 0.98525 0.79712 0.0
H699 H 0.12562 1.00027 0.79984 0.0
C700 C 0.17964 0.90414 0.85674 0.0
C701 C 0.17314 0.91666 0.88401 0.0
C702 C 0.16367 0.91177 0.82399 0.0
C703 C 0.14089 0.93202 0.81787 0.0
C704 C 0.13386 0.94399 0.84522 0.0
H705 H 0.00858 0.96455 0.63594 0.0
H706 H 0.03536 0.9498 0.69383 0.0
C707 C 0.14997 0.93654 0.87795 0.0
C708 C 0.12454 0.94052 0.78285 0.0
H709 H 0.10549 0.9981 0.72018 0.0
C710 C 0.11085 0.91919 0.76572 0.0
C711 C 0.12303 0.96927 0.76602 0.0
C712 C 0.1387 0.99289 0.78223 0.0
C713 C 0.09542 0.9259 0.73235 0.0
C714 C 0.09315 0.95475 0.71603 0.0
C715 C 0.10706 0.97603 0.73297 0.0
C716 C 0.07692 0.9633 0.68107 0.0
C717 C 0.08217 0.90202 0.71456 0.0
C718 C 0.09132 0.97636 0.65499 0.0
C719 C 0.07606 0.98502 0.6221 0.0
C720 C 0.04617 0.98068 0.61473 0.0
C721 C 0.03169 0.9679 0.64093 0.0
C722 C 0.04696 0.95928 0.67388 0.0
H723 H 0.09168 0.88077 0.72722 0.0
H724 H 0.05859 0.90161 0.71508 0.0
H725 H 0.08519 0.90542 0.68747 0.0
H726 H 0.1144 0.97987 0.66012 0.0
H727 H 0.08757 0.99548 0.60255 0.0
loop_
_geom_bond_atom_site_label_1
_geom_bond_atom_site_label_2
_geom_bond_distance
_geom_bond_site_symmetry_2
_ccdc_geom_bond_type
P0 O11 1.490 . S
P0 C14 1.812 . S
P0 C20 1.803 . S
P0 C26 1.819 1_554 S
H1 C15 0.941 . S
H2 C16 0.939 . S
H3 C18 0.940 . S
H4 C19 0.940 . S
H5 C21 0.939 . S
H6 C22 0.942 . S
H7 C24 0.940 . S
H8 C25 0.939 . S
H9 C27 0.941 . S
H10 C31 0.939 . S
O11 P0 1.490 . S
H12 C28 0.939 . S
H13 C30 0.940 . S
C14 P0 1.812 . S
C14 C15 1.389 . S
C14 C19 1.391 . S
C15 H1 0.941 . S
C15 C14 1.389 . S
C15 C16 1.397 . S
C16 H2 0.939 . S
C16 C15 1.397 . S
C16 C17 1.378 . S
C17 C16 1.378 . S
C17 C18 1.378 . S
C18 H3 0.940 . S
C18 C17 1.378 . S
C18 C19 1.396 . S
C19 H4 0.940 . S
C19 C14 1.391 . S
C19 C18 1.396 . S
C20 P0 1.803 . S
C20 C21 1.378 . S
C20 C25 1.400 . S
C21 H5 0.939 . S
C21 C20 1.378 . S
C21 C22 1.361 . S
C22 H6 0.942 . S
C22 C21 1.361 . S
C22 C23 1.369 . S
C23 C22 1.369 . S
C23 C24 1.404 . S
C24 H7 0.940 . S
C24 C23 1.404 . S
C24 C25 1.389 . S
C25 H8 0.939 . S
C25 C20 1.400 . S
C25 C24 1.389 . S
C26 P0 1.819 1_556 S
C26 C27 1.391 . S
C26 C31 1.391 . S
C27 H9 0.941 . S
C27 C26 1.391 . S
C27 C28 1.396 . S
C28 H12 0.939 . S
C28 C27 1.396 . S
C28 C29 1.397 . S
C29 C28 1.397 . S
C29 C30 1.385 . S
C30 H13 0.940 . S
C30 C29 1.385 . S
C30 C31 1.388 . S
C31 H10 0.939 . S
C31 C26 1.391 . S
C31 C30 1.388 . S
P32 O43 1.490 . S
P32 C46 1.812 . S
P32 C52 1.803 . S
P32 C58 1.819 . S
H33 C47 0.941 . S
H34 C48 0.939 . S
H35 C50 0.940 . S
H36 C51 0.940 . S
H37 C53 0.939 . S
H38 C54 0.942 . S
H39 C56 0.940 . S
H40 C57 0.939 . S
H41 C59 0.941 . S
H42 C63 0.939 . S
O43 P32 1.490 . S
H44 C60 0.939 . S
H45 C62 0.940 . S
C46 P32 1.812 . S
C46 C47 1.389 . S
C46 C51 1.391 . S
C47 H33 0.941 . S
C47 C46 1.389 . S
C47 C48 1.397 . S
C48 H34 0.939 . S
C48 C47 1.397 . S
C48 C49 1.378 . S
C49 C48 1.378 . S
C49 C50 1.378 . S
C50 H35 0.940 . S
C50 C49 1.378 . S
C50 C51 1.396 . S
C51 H36 0.940 . S
C51 C46 1.391 . S
C51 C50 1.396 . S
C52 P32 1.803 . S
C52 C53 1.378 . S
C52 C57 1.400 . S
C53 H37 0.939 . S
C53 C52 1.378 . S
C53 C54 1.361 . S
C54 H38 0.942 . S
C54 C53 1.361 . S
C54 C55 1.369 . S
C55 C54 1.369 . S
C55 C56 1.404 . S
C56 H39 0.940 . S
C56 C55 1.404 . S
C56 C57 1.389 . S
C57 H40 0.939 . S
C57 C52 1.400 . S
C57 C56 1.389 . S
C58 P32 1.819 . S
C58 C59 1.391 . S
C58 C63 1.391 . S
C59 H41 0.941 . S
C59 C58 1.391 . S
C59 C60 1.396 . S
C60 H44 0.939 . S
C60 C59 1.396 . S
C60 C61 1.397 . S
C61 C60 1.397 . S
C61 C62 1.385 . S
C62 H45 0.940 . S
C62 C61 1.385 . S
C62 C63 1.388 . S
C63 H42 0.939 . S
C63 C58 1.391 . S
C63 C62 1.388 . S
P64 O75 1.490 . S
P64 C78 1.812 1_554 S
P64 C84 1.803 . S
P64 C90 1.819 . S
H65 C79 0.941 . S
H66 C80 0.939 . S
H67 C82 0.940 . S
H68 C83 0.940 1_554 S
H69 C85 0.939 . S
H70 C86 0.942 . S
H71 C88 0.940 1_556 S
H72 C89 0.949 . S
H73 C91 0.941 . S
H74 C95 0.939 . S
O75 P64 1.490 . S
H76 C92 0.939 . S
H77 C94 0.940 . S
C78 P64 1.812 1_556 S
C78 C79 1.389 . S
C78 C83 1.391 . S
C79 H65 0.941 . S
C79 C78 1.389 . S
C79 C80 1.397 . S
C80 H66 0.939 . S
C80 C79 1.397 . S
C80 C81 1.378 . S
C81 C80 1.378 . S
C81 C82 1.378 . S
C82 H67 0.940 . S
C82 C81 1.378 . S
C82 C83 1.396 . S
C83 H68 0.940 1_556 S
C83 C78 1.391 . S
C83 C82 1.396 . S
C84 P64 1.803 . S
C84 C85 1.378 . S
C84 C89 1.400 . S
C85 H69 0.939 . S
C85 C84 1.378 . S
C85 C86 1.361 . S
C86 H70 0.942 . S
C86 C85 1.361 . S
C86 C87 1.369 . S
C87 C86 1.369 . S
C87 C88 1.404 . S
C88 H71 0.940 1_554 S
C88 C87 1.404 . S
C88 C89 1.389 . S
C89 H72 0.949 . S
C89 C84 1.400 . S
C89 C88 1.389 . S
C90 P64 1.819 . S
C90 C91 1.391 . S
C90 C95 1.391 . S
C91 H73 0.941 . S
C91 C90 1.391 . S
C91 C92 1.396 . S
C92 H76 0.939 . S
C92 C91 1.396 . S
C92 C93 1.397 . S
C93 C92 1.397 . S
C93 C94 1.385 . S
C94 H77 0.940 . S
C94 C93 1.385 . S
C94 C95 1.388 . S
C95 H74 0.939 . S
C95 C90 1.391 . S
C95 C94 1.388 . S
P96 O107 1.490 . S
P96 C110 1.812 . S
P96 C116 1.803 . S
P96 C122 1.819 . S
H97 C111 0.941 . S
H98 C112 0.939 . S
H99 C114 0.940 . S
H100 C115 0.940 . S
H101 C117 0.939 . S
H102 C118 0.942 . S
H103 C120 0.940 . S
H104 C121 0.939 . S
H105 C123 0.941 . S
H106 C127 0.939 . S
O107 P96 1.490 . S
H108 C124 0.939 . S
H109 C126 0.940 . S
C110 P96 1.812 . S
C110 C111 1.389 . S
C110 C115 1.391 . S
C111 H97 0.941 . S
C111 C110 1.389 . S
C111 C112 1.397 . S
C112 H98 0.939 . S
C112 C111 1.397 . S
C112 C113 1.378 . S
C113 C112 1.378 . S
C113 C114 1.378 . S
C114 H99 0.940 . S
C114 C113 1.378 . S
C114 C115 1.396 . S
C115 H100 0.940 . S
C115 C110 1.391 . S
C115 C114 1.396 . S
C116 P96 1.803 . S
C116 C117 1.378 . S
C116 C121 1.400 . S
C117 H101 0.939 . S
C117 C116 1.378 . S
C117 C118 1.361 . S
C118 H102 0.942 . S
C118 C117 1.361 . S
C118 C119 1.369 . S
C119 C118 1.369 . S
C119 C120 1.404 . S
C120 H103 0.940 . S
C120 C119 1.404 . S
C120 C121 1.389 . S
C121 H104 0.939 . S
C121 C116 1.400 . S
C121 C120 1.389 . S
C122 P96 1.819 . S
C122 C123 1.391 . S
C122 C127 1.391 . S
C123 H105 0.941 . S
C123 C122 1.391 . S
C123 C124 1.396 . S
C124 H108 0.939 . S
C124 C123 1.396 . S
C124 C125 1.397 . S
C125 C124 1.397 . S
C125 C126 1.385 . S
C126 H109 0.940 . S
C126 C125 1.385 . S
C126 C127 1.388 . S
C127 H106 0.939 . S
C127 C122 1.391 . S
C127 C126 1.388 . S
Tb128 N157 2.617 . S
Tb128 N163 2.572 . S
Tb128 O172 2.465 . S
Tb128 O173 2.387 . S
Tb128 O175 2.428 . S
Tb128 O176 2.308 1_565 S
Tb128 O180 2.348 1_455 S
Tb128 O183 2.393 1_455 S
Tb128 C192 2.802 . S
C129 N130 1.379 . S
C129 C132 1.416 . S
C129 C136 1.424 . S
N130 C129 1.379 . S
N130 C133 1.334 1_655 S
N130 Tb139 2.617 . S
C131 C133 1.390 1_655 S
C131 C134 1.347 . S
C131 H151 0.922 1_655 S
C132 C129 1.416 . S
C132 C134 1.416 . S
C132 C138 1.448 . S
C133 N130 1.334 1_455 S
C133 C131 1.390 1_455 S
C133 H144 0.930 . S
C134 C131 1.347 . S
C134 C132 1.416 . S
C134 H155 0.930 . S
C135 C136 1.413 . S
C135 C137 1.427 . S
C135 C141 1.416 . S
C136 C129 1.424 . S
C136 C135 1.413 . S
C136 N140 1.361 . S
C137 C135 1.427 . S
C137 C138 1.328 . S
C137 H152 0.929 . S
C138 C132 1.448 . S
C138 C137 1.328 . S
C138 H153 0.930 . S
Tb139 N130 2.617 . S
Tb139 N140 2.572 . S
Tb139 O174 2.349 1_655 S
Tb139 O177 2.393 1_655 S
Tb139 O178 2.465 . S
Tb139 O179 2.387 . S
Tb139 O181 2.428 . S
Tb139 O182 2.308 1_545 S
Tb139 C203 2.802 . S
N140 C136 1.361 . S
N140 Tb139 2.572 . S
N140 C142 1.340 . S
C141 C135 1.416 . S
C141 C143 1.332 . S
C141 H149 0.931 . S
C142 N140 1.340 . S
C142 C143 1.407 . S
C142 H148 0.930 . S
C143 C141 1.332 . S
C143 C142 1.407 . S
C143 H145 0.929 . S
H144 C133 0.930 . S
H145 C143 0.929 . S
H146 C161 0.930 1_655 S
H147 C168 0.929 . S
H148 C142 0.930 . S
H149 C141 0.931 . S
H150 C164 0.930 . S
H151 C131 0.922 1_455 S
H152 C137 0.929 . S
H153 C138 0.930 . S
H154 C159 0.930 1_655 S
H155 C134 0.930 . S
H156 C167 0.931 . S
N157 Tb128 2.617 . S
N157 C158 1.379 . S
N157 C161 1.334 . S
C158 N157 1.379 . S
C158 C160 1.416 . S
C158 C166 1.424 . S
C159 H154 0.930 1_455 S
C159 C161 1.390 . S
C159 C162 1.339 . S
C160 C158 1.416 . S
C160 C162 1.416 . S
C160 C193 1.448 . S
C161 H146 0.930 1_455 S
C161 N157 1.334 . S
C161 C159 1.390 . S
C162 C159 1.339 . S
C162 C160 1.416 . S
C162 H169 0.930 . S
N163 Tb128 2.572 . S
N163 C164 1.340 . S
N163 C166 1.361 . S
C164 H150 0.930 . S
C164 N163 1.340 . S
C164 C168 1.407 . S
C165 C166 1.413 . S
C165 C167 1.416 . S
C165 C194 1.427 . S
C166 C158 1.424 . S
C166 N163 1.361 . S
C166 C165 1.413 . S
C167 H156 0.931 . S
C167 C165 1.416 . S
C167 C168 1.332 . S
C168 H147 0.929 . S
C168 C164 1.407 . S
C168 C167 1.332 . S
H169 C162 0.930 . S
H170 C193 0.930 . S
H171 C194 0.929 . S
O172 Tb128 2.465 . S
O172 C192 1.264 . S
O173 Tb128 2.387 . S
O173 C184 1.264 . S
O174 Tb139 2.349 1_455 S
O174 C184 1.243 1_545 S
O175 Tb128 2.428 . S
O175 C192 1.256 . S
O176 Tb128 2.308 1_545 S
O176 C191 1.266 . S
O177 Tb139 2.393 1_455 S
O177 C191 1.248 . S
O178 Tb139 2.465 . S
O178 C203 1.264 . S
O179 Tb139 2.387 . S
O179 C195 1.264 . S
O180 Tb128 2.348 1_655 S
O180 C195 1.245 1_565 S
O181 Tb139 2.428 . S
O181 C203 1.256 . S
O182 Tb139 2.308 1_565 S
O182 C202 1.266 . S
O183 Tb128 2.393 1_655 S
O183 C202 1.248 . S
C184 O173 1.264 . S
C184 O174 1.243 1_565 S
C185 C188 1.399 . S
C185 C190 1.383 . S
C185 C192 1.496 . S
C186 C187 1.399 . S
C186 C190 1.389 . S
C187 C186 1.399 . S
C187 C189 1.380 . S
C187 H204 0.929 . S
C188 C185 1.399 . S
C188 C189 1.392 . S
C188 H205 0.929 . S
C189 C187 1.380 . S
C189 C188 1.392 . S
C189 H206 0.929 . S
C190 C185 1.383 . S
C190 C186 1.389 . S
C190 H207 0.931 . S
C191 O176 1.266 . S
C191 O177 1.248 . S
C192 Tb128 2.802 . S
C192 O172 1.264 . S
C192 O175 1.256 . S
C192 C185 1.496 . S
C193 C160 1.448 . S
C193 H170 0.930 . S
C193 C194 1.328 . S
C194 C165 1.427 . S
C194 H171 0.929 . S
C194 C193 1.328 . S
C195 O179 1.264 . S
C195 O180 1.245 1_545 S
C196 C199 1.399 . S
C196 C200 1.383 . S
C196 C203 1.496 . S
C197 C198 1.399 . S
C197 C200 1.389 . S
C198 C197 1.399 . S
C198 C201 1.380 . S
C198 H208 0.929 . S
C199 C196 1.399 . S
C199 C201 1.392 . S
C199 H209 0.929 . S
C200 C196 1.383 . S
C200 C197 1.389 . S
C200 H210 0.931 . S
C201 C198 1.380 . S
C201 C199 1.392 . S
C201 H211 0.929 . S
C202 O182 1.266 . S
C202 O183 1.248 . S
C203 Tb139 2.802 . S
C203 O178 1.264 . S
C203 O181 1.256 . S
C203 C196 1.496 . S
H204 C187 0.929 . S
H205 C188 0.929 . S
H206 C189 0.929 . S
H207 C190 0.931 . S
H208 C198 0.929 . S
H209 C199 0.929 . S
H210 C200 0.931 . S
H211 C201 0.929 . S
Tb212 N241 2.617 . S
Tb212 N247 2.572 1_556 S
Tb212 O256 2.465 . S
Tb212 O257 2.387 1_556 S
Tb212 O259 2.428 . S
Tb212 O260 2.308 1_556 S
Tb212 O264 2.349 . S
Tb212 O267 2.393 . S
Tb212 C276 2.802 . S
C213 N214 1.379 . S
C213 C216 1.416 . S
C213 C220 1.424 . S
N214 C213 1.379 . S
N214 C217 1.334 . S
N214 Tb223 2.617 . S
C215 C217 1.390 . S
C215 C218 1.339 . S
C215 H235 0.930 . S
C216 C213 1.416 . S
C216 C218 1.416 . S
C216 C222 1.448 . S
C217 N214 1.334 . S
C217 C215 1.390 . S
C217 H228 0.930 . S
C218 C215 1.339 . S
C218 C216 1.416 . S
C218 H239 0.930 . S
C219 C220 1.413 . S
C219 C221 1.427 . S
C219 C225 1.416 . S
C220 C213 1.424 . S
C220 C219 1.413 . S
C220 N224 1.361 . S
C221 C219 1.427 . S
C221 C222 1.328 . S
C221 H236 0.929 . S
C222 C216 1.448 . S
C222 C221 1.328 . S
C222 H237 0.930 . S
Tb223 N214 2.617 . S
Tb223 N224 2.572 . S
Tb223 O258 2.349 . S
Tb223 O261 2.393 . S
Tb223 O262 2.465 . S
Tb223 O263 2.387 1_554 S
Tb223 O265 2.428 . S
Tb223 O266 2.308 . S
Tb223 C287 2.802 . S
N224 C220 1.361 . S
N224 Tb223 2.572 . S
N224 C226 1.340 . S
C225 C219 1.416 . S
C225 C227 1.332 . S
C225 H233 0.931 . S
C226 N224 1.340 . S
C226 C227 1.407 . S
C226 H232 0.930 . S
C227 C225 1.332 . S
C227 C226 1.407 . S
C227 H229 0.929 . S
H228 C217 0.930 . S
H229 C227 0.929 . S
H230 C245 0.930 . S
H231 C252 0.929 . S
H232 C226 0.930 . S
H233 C225 0.931 . S
H234 C248 0.930 . S
H235 C215 0.930 . S
H236 C221 0.929 . S
H237 C222 0.930 . S
H238 C243 0.930 . S
H239 C218 0.930 . S
H240 C251 0.931 . S
N241 Tb212 2.617 . S
N241 C242 1.379 1_556 S
N241 C245 1.334 . S
C242 N241 1.379 1_554 S
C242 C244 1.416 . S
C242 C250 1.424 . S
C243 H238 0.930 . S
C243 C245 1.390 . S
C243 C246 1.339 1_556 S
C244 C242 1.416 . S
C244 C246 1.416 . S
C244 C277 1.448 . S
C245 H230 0.930 . S
C245 N241 1.334 . S
C245 C243 1.390 . S
C246 C243 1.339 1_554 S
C246 C244 1.416 . S
C246 H253 0.930 . S
N247 Tb212 2.572 1_554 S
N247 C248 1.340 . S
N247 C250 1.361 . S
C248 H234 0.930 . S
C248 N247 1.340 . S
C248 C252 1.407 . S
C249 C250 1.413 . S
C249 C251 1.416 . S
C249 C278 1.427 . S
C250 C242 1.424 . S
C250 N247 1.361 . S
C250 C249 1.413 . S
C251 H240 0.931 . S
C251 C249 1.416 . S
C251 C252 1.332 . S
C252 H231 0.929 . S
C252 C248 1.407 . S
C252 C251 1.332 . S
H253 C246 0.930 . S
H254 C277 0.930 . S
H255 C278 0.929 . S
O256 Tb212 2.465 . S
O256 C276 1.264 . S
O257 Tb212 2.387 1_554 S
O257 C268 1.264 . S
O258 Tb223 2.349 . S
O258 C268 1.243 . S
O259 Tb212 2.428 . S
O259 C276 1.256 . S
O260 Tb212 2.308 1_554 S
O260 C275 1.266 . S
O261 Tb223 2.393 . S
O261 C275 1.248 . S
O262 Tb223 2.465 . S
O262 C287 1.264 . S
O263 Tb223 2.387 1_556 S
O263 C279 1.264 . S
O264 Tb212 2.349 . S
O264 C279 1.243 . S
O265 Tb223 2.428 . S
O265 C287 1.256 . S
O266 Tb223 2.308 . S
O266 C286 1.266 . S
O267 Tb212 2.393 . S
O267 C286 1.248 1_556 S
C268 O257 1.264 . S
C268 O258 1.243 . S
C269 C272 1.399 . S
C269 C274 1.383 . S
C269 C276 1.496 . S
C270 C271 1.399 . S
C270 C274 1.389 . S
C271 C270 1.399 . S
C271 C273 1.380 . S
C271 H288 0.929 . S
C272 C269 1.399 . S
C272 C273 1.392 . S
C272 H289 0.929 . S
C273 C271 1.380 . S
C273 C272 1.392 . S
C273 H290 0.929 . S
C274 C269 1.383 . S
C274 C270 1.389 . S
C274 H291 0.931 . S
C275 O260 1.266 . S
C275 O261 1.248 . S
C276 Tb212 2.802 . S
C276 O256 1.264 . S
C276 O259 1.256 . S
C276 C269 1.496 . S
C277 C244 1.448 . S
C277 H254 0.930 . S
C277 C278 1.328 . S
C278 C249 1.427 . S
C278 H255 0.929 . S
C278 C277 1.328 . S
C279 O263 1.264 . S
C279 O264 1.243 . S
C280 C283 1.399 . S
C280 C284 1.383 . S
C280 C287 1.496 . S
C281 C282 1.399 . S
C281 C284 1.389 . S
C282 C281 1.399 . S
C282 C285 1.380 . S
C282 H292 0.929 . S
C283 C280 1.399 . S
C283 C285 1.392 . S
C283 H293 0.929 . S
C284 C280 1.383 . S
C284 C281 1.389 . S
C284 H294 0.931 . S
C285 C282 1.380 . S
C285 C283 1.392 . S
C285 H295 0.929 . S
C286 O266 1.266 . S
C286 O267 1.248 1_554 S
C287 Tb223 2.802 . S
C287 O262 1.264 . S
C287 O265 1.256 . S
C287 C280 1.496 . S
H288 C271 0.929 . S
H289 C272 0.929 . S
H290 C273 0.929 . S
H291 C274 0.931 . S
H292 C282 0.929 . S
H293 C283 0.929 . S
H294 C284 0.931 . S
H295 C285 0.929 . S
H296 C304 0.929 . S
H297 C306 0.930 . S
H298 C308 0.930 . S
H299 C311 0.929 . S
H300 C314 0.930 . S
H301 C316 0.960 . S
H302 C316 0.960 . S
H303 C316 0.960 . S
C304 H296 0.929 . S
C304 C305 1.377 . S
C304 C306 1.384 . S
C305 C304 1.377 . S
C305 C311 1.390 . S
C306 H297 0.930 . S
C306 C304 1.384 . S
C306 C307 1.372 . S
C307 C306 1.372 . S
C307 C308 1.400 . S
C307 C312 1.490 . S
C308 H298 0.930 . S
C308 C307 1.400 . S
C308 C311 1.386 . S
H309 C325 0.930 . S
H310 C326 0.931 . S
C311 H299 0.929 . S
C311 C305 1.390 . S
C311 C308 1.386 . S
C312 C307 1.490 . S
C312 C314 1.395 . S
C312 C315 1.403 . S
H313 C319 0.930 . S
C314 H300 0.930 . S
C314 C312 1.395 . S
C314 C317 1.403 . S
C315 C312 1.403 . S
C315 C316 1.524 . S
C315 C319 1.400 . S
C316 H301 0.960 . S
C316 H302 0.960 . S
C316 H303 0.960 . S
C316 C315 1.524 . S
C317 C314 1.403 . S
C317 C318 1.392 . S
C317 C321 1.495 . S
C318 C317 1.392 . S
C318 C319 1.385 . S
C318 C320 1.478 . S
C319 H313 0.930 . S
C319 C315 1.400 . S
C319 C318 1.385 . S
C320 C318 1.478 . S
C320 C322 1.381 . S
C320 C326 1.383 . S
C321 C317 1.495 . S
C321 H327 0.959 . S
C321 H328 0.961 . S
C321 H329 0.960 . S
C322 C320 1.381 . S
C322 C323 1.394 . S
C322 H330 0.930 . S
C323 C322 1.394 . S
C323 C324 1.383 . S
C323 H331 0.929 . S
C324 C323 1.383 . S
C324 C325 1.377 . S
C325 H309 0.930 . S
C325 C324 1.377 . S
C325 C326 1.379 . S
C326 H310 0.931 . S
C326 C320 1.383 . S
C326 C325 1.379 . S
H327 C321 0.959 . S
H328 C321 0.961 . S
H329 C321 0.960 . S
H330 C322 0.930 . S
H331 C323 0.929 . S
H332 C340 0.929 . S
H333 C342 0.930 . S
H334 C344 0.930 1_556 S
H335 C347 0.929 1_556 S
H336 C350 0.930 . S
H337 C352 0.960 . S
H338 C352 0.960 1_554 S
H339 C352 0.960 . S
C340 H332 0.929 . S
C340 C341 1.377 . S
C340 C342 1.384 . S
C341 C340 1.377 . S
C341 C347 1.390 . S
C342 H333 0.930 . S
C342 C340 1.384 . S
C342 C343 1.372 . S
C343 C342 1.372 . S
C343 C344 1.400 . S
C343 C348 1.490 . S
C344 H334 0.930 1_554 S
C344 C343 1.400 . S
C344 C347 1.386 . S
H345 C361 0.935 . S
H346 C362 0.931 1_556 S
C347 H335 0.929 1_554 S
C347 C341 1.390 . S
C347 C344 1.386 . S
C348 C343 1.490 . S
C348 C350 1.395 . S
C348 C351 1.403 . S
H349 C355 0.930 . S
C350 H336 0.930 . S
C350 C348 1.395 . S
C350 C353 1.403 . S
C351 C348 1.403 . S
C351 C352 1.524 1_554 S
C351 C355 1.400 . S
C352 H337 0.960 . S
C352 H338 0.960 1_556 S
C352 H339 0.960 . S
C352 C351 1.524 1_556 S
C353 C350 1.403 . S
C353 C354 1.392 . S
C353 C357 1.495 . S
C354 C353 1.392 . S
C354 C355 1.385 . S
C354 C356 1.478 . S
C355 H349 0.930 . S
C355 C351 1.400 . S
C355 C354 1.385 . S
C356 C354 1.478 . S
C356 C358 1.381 . S
C356 C362 1.383 . S
C357 C353 1.495 . S
C357 H363 0.959 . S
C357 H364 0.961 . S
C357 H365 0.960 . S
C358 C356 1.381 . S
C358 C359 1.394 . S
C358 H366 0.930 . S
C359 C358 1.394 . S
C359 C360 1.383 . S
C359 H367 0.929 . S
C360 C359 1.383 . S
C360 C361 1.373 1_554 S
C361 H345 0.935 . S
C361 C360 1.373 1_556 S
C361 C362 1.378 1_556 S
C362 H346 0.931 1_554 S
C362 C356 1.383 . S
C362 C361 1.378 1_554 S
H363 C357 0.959 . S
H364 C357 0.961 . S
H365 C357 0.960 . S
H366 C358 0.930 . S
H367 C359 0.929 . S
H368 C376 0.929 . S
H369 C378 0.930 . S
H370 C380 0.930 . S
H371 C383 0.929 . S
H372 C386 0.930 . S
H373 C388 0.960 . S
H374 C388 0.960 . S
H375 C388 0.960 . S
C376 H368 0.929 . S
C376 C377 1.377 . S
C376 C378 1.384 . S
C377 C376 1.377 . S
C377 C383 1.390 . S
C378 H369 0.930 . S
C378 C376 1.384 . S
C378 C379 1.372 . S
C379 C378 1.372 . S
C379 C380 1.400 . S
C379 C384 1.490 . S
C380 H370 0.930 . S
C380 C379 1.400 . S
C380 C383 1.386 . S
H381 C397 0.930 . S
H382 C398 0.931 . S
C383 H371 0.929 . S
C383 C377 1.390 . S
C383 C380 1.386 . S
C384 C379 1.490 . S
C384 C386 1.395 . S
C384 C387 1.403 . S
H385 C391 0.930 . S
C386 H372 0.930 . S
C386 C384 1.395 . S
C386 C389 1.403 . S
C387 C384 1.403 . S
C387 C388 1.524 . S
C387 C391 1.400 . S
C388 H373 0.960 . S
C388 H374 0.960 . S
C388 H375 0.960 . S
C388 C387 1.524 . S
C389 C386 1.403 . S
C389 C390 1.392 . S
C389 C393 1.495 . S
C390 C389 1.392 . S
C390 C391 1.385 . S
C390 C392 1.478 . S
C391 H385 0.930 . S
C391 C387 1.400 . S
C391 C390 1.385 . S
C392 C390 1.478 . S
C392 C394 1.381 . S
C392 C398 1.383 . S
C393 C389 1.495 . S
C393 H399 0.959 . S
C393 H400 0.961 . S
C393 H401 0.960 . S
C394 C392 1.381 . S
C394 C395 1.394 . S
C394 H402 0.930 . S
C395 C394 1.394 . S
C395 C396 1.383 . S
C395 H403 0.929 . S
C396 C395 1.383 . S
C396 C397 1.377 . S
C397 H381 0.930 . S
C397 C396 1.377 . S
C397 C398 1.379 . S
C398 H382 0.931 . S
C398 C392 1.383 . S
C398 C397 1.379 . S
H399 C393 0.959 . S
H400 C393 0.961 . S
H401 C393 0.960 . S
H402 C394 0.930 . S
H403 C395 0.929 . S
H404 C412 0.929 . S
H405 C414 0.930 . S
H406 C416 0.930 . S
H407 C419 0.929 . S
H408 C422 0.930 . S
H409 C424 0.960 . S
H410 C424 0.960 . S
H411 C424 0.960 . S
C412 H404 0.929 . S
C412 C413 1.377 . S
C412 C414 1.384 . S
C413 C412 1.377 . S
C413 C419 1.390 1_554 S
C414 H405 0.930 . S
C414 C412 1.384 . S
C414 C415 1.372 . S
C415 C414 1.372 . S
C415 C416 1.400 1_554 S
C415 C420 1.490 . S
C416 H406 0.930 . S
C416 C415 1.400 1_556 S
C416 C419 1.386 . S
H417 C433 0.930 . S
H418 C434 0.949 . S
C419 H407 0.929 . S
C419 C413 1.390 1_556 S
C419 C416 1.386 . S
C420 C415 1.490 . S
C420 C422 1.395 . S
C420 C423 1.403 1_554 S
H421 C427 0.930 . S
C422 H408 0.930 . S
C422 C420 1.395 . S
C422 C425 1.403 . S
C423 C420 1.403 1_556 S
C423 C424 1.524 . S
C423 C427 1.400 . S
C424 H409 0.960 . S
C424 H410 0.960 . S
C424 H411 0.960 . S
C424 C423 1.524 . S
C425 C422 1.403 . S
C425 C426 1.392 . S
C425 C429 1.495 . S
C426 C425 1.392 . S
C426 C427 1.385 1_554 S
C426 C428 1.478 . S
C427 H421 0.930 . S
C427 C423 1.400 . S
C427 C426 1.385 1_556 S
C428 C426 1.478 . S
C428 C430 1.381 . S
C428 C434 1.369 1_554 S
C429 C425 1.495 . S
C429 H435 0.959 . S
C429 H436 0.961 . S
C429 H437 0.960 . S
C430 C428 1.381 . S
C430 C431 1.394 . S
C430 H438 0.930 . S
C431 C430 1.394 . S
C431 C432 1.383 . S
C431 H439 0.929 . S
C432 C431 1.383 . S
C432 C433 1.377 1_554 S
C433 H417 0.930 . S
C433 C432 1.377 1_556 S
C433 C434 1.375 . S
C434 H418 0.949 . S
C434 C428 1.369 1_556 S
C434 C433 1.375 . S
H435 C429 0.959 . S
H436 C429 0.961 . S
H437 C429 0.960 . S
H438 C430 0.930 . S
H439 C431 0.929 . S
H440 C448 0.929 . S
H441 C450 0.930 . S
H442 C452 0.930 . S
H443 C455 0.929 . S
H444 C458 0.930 . S
H445 C460 0.960 . S
H446 C460 0.960 . S
H447 C460 0.960 . S
C448 H440 0.929 . S
C448 C449 1.377 . S
C448 C450 1.384 . S
C449 C448 1.377 . S
C449 C455 1.390 . S
C450 H441 0.930 . S
C450 C448 1.384 . S
C450 C451 1.372 . S
C451 C450 1.372 . S
C451 C452 1.400 . S
C451 C456 1.490 . S
C452 H442 0.930 . S
C452 C451 1.400 . S
C452 C455 1.386 . S
H453 C469 0.930 . S
H454 C470 0.931 . S
C455 H443 0.929 . S
C455 C449 1.390 . S
C455 C452 1.386 . S
C456 C451 1.490 . S
C456 C458 1.395 . S
C456 C459 1.403 . S
H457 C463 0.930 . S
C458 H444 0.930 . S
C458 C456 1.395 . S
C458 C461 1.403 . S
C459 C456 1.403 . S
C459 C460 1.524 . S
C459 C463 1.400 . S
C460 H445 0.960 . S
C460 H446 0.960 . S
C460 H447 0.960 . S
C460 C459 1.524 . S
C461 C458 1.403 . S
C461 C462 1.392 . S
C461 C465 1.495 . S
C462 C461 1.392 . S
C462 C463 1.385 . S
C462 C464 1.478 . S
C463 H457 0.930 . S
C463 C459 1.400 . S
C463 C462 1.385 . S
C464 C462 1.478 . S
C464 C466 1.381 . S
C464 C470 1.383 . S
C465 C461 1.495 . S
C465 H471 0.959 . S
C465 H472 0.961 . S
C465 H473 0.960 . S
C466 C464 1.381 . S
C466 C467 1.394 . S
C466 H474 0.930 . S
C467 C466 1.394 . S
C467 C468 1.383 . S
C467 H475 0.929 . S
C468 C467 1.383 . S
C468 C469 1.377 . S
C469 H453 0.930 . S
C469 C468 1.377 . S
C469 C470 1.379 . S
C470 H454 0.931 . S
C470 C464 1.383 . S
C470 C469 1.379 . S
H471 C465 0.959 . S
H472 C465 0.961 . S
H473 C465 0.960 . S
H474 C466 0.930 . S
H475 C467 0.929 . S
H476 C484 0.929 . S
H477 C486 0.930 . S
H478 C488 0.930 . S
H479 C491 0.929 . S
H480 C494 0.930 . S
H481 C496 0.960 . S
H482 C496 0.960 . S
H483 C496 0.960 . S
C484 H476 0.929 . S
C484 C485 1.377 . S
C484 C486 1.384 . S
C485 C484 1.377 . S
C485 C491 1.390 . S
C486 H477 0.930 . S
C486 C484 1.384 . S
C486 C487 1.372 . S
C487 C486 1.372 . S
C487 C488 1.400 . S
C487 C492 1.490 . S
C488 H478 0.930 . S
C488 C487 1.400 . S
C488 C491 1.386 . S
H489 C505 0.930 . S
H490 C506 0.931 . S
C491 H479 0.929 . S
C491 C485 1.390 . S
C491 C488 1.386 . S
C492 C487 1.490 . S
C492 C494 1.395 . S
C492 C495 1.403 . S
H493 C499 0.930 . S
C494 H480 0.930 . S
C494 C492 1.395 . S
C494 C497 1.403 . S
C495 C492 1.403 . S
C495 C496 1.524 . S
C495 C499 1.400 . S
C496 H481 0.960 . S
C496 H482 0.960 . S
C496 H483 0.960 . S
C496 C495 1.524 . S
C497 C494 1.403 . S
C497 C498 1.392 . S
C497 C501 1.495 . S
C498 C497 1.392 . S
C498 C499 1.385 . S
C498 C500 1.478 . S
C499 H493 0.930 . S
C499 C495 1.400 . S
C499 C498 1.385 . S
C500 C498 1.478 . S
C500 C502 1.381 . S
C500 C506 1.383 . S
C501 C497 1.495 . S
C501 H507 0.959 . S
C501 H508 0.961 . S
C501 H509 0.960 . S
C502 C500 1.381 . S
C502 C503 1.394 . S
C502 H510 0.930 . S
C503 C502 1.394 . S
C503 C504 1.383 . S
C503 H511 0.929 . S
C504 C503 1.383 . S
C504 C505 1.377 . S
C505 H489 0.930 . S
C505 C504 1.377 . S
C505 C506 1.379 . S
C506 H490 0.931 . S
C506 C500 1.383 . S
C506 C505 1.379 . S
H507 C501 0.959 . S
H508 C501 0.961 . S
H509 C501 0.960 . S
H510 C502 0.930 . S
H511 C503 0.929 . S
H512 C520 0.929 . S
H513 C522 0.930 . S
H514 C524 0.930 . S
H515 C527 0.929 . S
H516 C530 0.930 . S
H517 C532 0.960 . S
H518 C532 0.960 . S
H519 C532 0.960 . S
C520 H512 0.929 . S
C520 C521 1.377 . S
C520 C522 1.384 . S
C521 C520 1.377 . S
C521 C527 1.390 . S
C522 H513 0.930 . S
C522 C520 1.384 . S
C522 C523 1.372 . S
C523 C522 1.372 . S
C523 C524 1.400 . S
C523 C528 1.490 . S
C524 H514 0.930 . S
C524 C523 1.400 . S
C524 C527 1.386 . S
H525 C541 0.930 . S
H526 C542 0.931 . S
C527 H515 0.929 . S
C527 C521 1.390 . S
C527 C524 1.386 . S
C528 C523 1.490 . S
C528 C530 1.395 . S
C528 C531 1.403 . S
H529 C535 0.930 . S
C530 H516 0.930 . S
C530 C528 1.395 . S
C530 C533 1.403 . S
C531 C528 1.403 . S
C531 C532 1.524 . S
C531 C535 1.400 . S
C532 H517 0.960 . S
C532 H518 0.960 . S
C532 H519 0.960 . S
C532 C531 1.524 . S
C533 C530 1.403 . S
C533 C534 1.392 . S
C533 C537 1.495 . S
C534 C533 1.392 . S
C534 C535 1.385 . S
C534 C536 1.478 . S
C535 H529 0.930 . S
C535 C531 1.400 . S
C535 C534 1.385 . S
C536 C534 1.478 . S
C536 C538 1.381 . S
C536 C542 1.383 . S
C537 C533 1.495 . S
C537 H543 0.959 . S
C537 H544 0.961 . S
C537 H545 0.960 . S
C538 C536 1.381 . S
C538 C539 1.394 . S
C538 H546 0.930 . S
C539 C538 1.394 . S
C539 C540 1.383 . S
C539 H547 0.929 . S
C540 C539 1.383 . S
C540 C541 1.377 . S
C541 H525 0.930 . S
C541 C540 1.377 . S
C541 C542 1.379 . S
C542 H526 0.931 . S
C542 C536 1.383 . S
C542 C541 1.379 . S
H543 C537 0.959 . S
H544 C537 0.961 . S
H545 C537 0.960 . S
H546 C538 0.930 . S
H547 C539 0.929 . S
H548 C556 0.929 . S
H549 C558 0.930 . S
H550 C560 0.930 . S
H551 C563 0.929 . S
H552 C566 0.930 . S
H553 C568 0.960 . S
H554 C568 0.960 . S
H555 C568 0.960 . S
C556 H548 0.929 . S
C556 C557 1.377 . S
C556 C558 1.384 . S
C557 C556 1.377 . S
C557 C563 1.390 . S
C558 H549 0.930 . S
C558 C556 1.384 . S
C558 C559 1.372 . S
C559 C558 1.372 . S
C559 C560 1.400 . S
C559 C564 1.490 . S
C560 H550 0.930 . S
C560 C559 1.400 . S
C560 C563 1.386 . S
H561 C577 0.930 . S
H562 C578 0.931 . S
C563 H551 0.929 . S
C563 C557 1.390 . S
C563 C560 1.386 . S
C564 C559 1.490 . S
C564 C566 1.395 . S
C564 C567 1.403 . S
H565 C571 0.930 . S
C566 H552 0.930 . S
C566 C564 1.395 . S
C566 C569 1.403 . S
C567 C564 1.403 . S
C567 C568 1.524 . S
C567 C571 1.400 . S
C568 H553 0.960 . S
C568 H554 0.960 . S
C568 H555 0.960 . S
C568 C567 1.524 . S
C569 C566 1.403 . S
C569 C570 1.392 . S
C569 C573 1.495 . S
C570 C569 1.392 . S
C570 C571 1.385 . S
C570 C572 1.478 . S
C571 H565 0.930 . S
C571 C567 1.400 . S
C571 C570 1.385 . S
C572 C570 1.478 . S
C572 C574 1.381 . S
C572 C578 1.383 . S
C573 C569 1.495 . S
C573 H579 0.959 . S
C573 H580 0.961 . S
C573 H581 0.960 . S
C574 C572 1.381 . S
C574 C575 1.394 . S
C574 H582 0.930 . S
C575 C574 1.394 . S
C575 C576 1.383 . S
C575 H583 0.929 . S
C576 C575 1.383 . S
C576 C577 1.377 . S
C577 H561 0.930 . S
C577 C576 1.377 . S
C577 C578 1.379 . S
C578 H562 0.931 . S
C578 C572 1.383 . S
C578 C577 1.379 . S
H579 C573 0.959 . S
H580 C573 0.961 . S
H581 C573 0.960 . S
H582 C574 0.930 . S
H583 C575 0.929 . S
H584 C592 0.929 . S
H585 C594 0.930 . S
H586 C596 0.930 . S
H587 C599 0.929 . S
H588 C602 0.930 . S
H589 C604 0.960 . S
H590 C604 0.960 . S
H591 C604 0.960 . S
C592 H584 0.929 . S
C592 C593 1.377 . S
C592 C594 1.384 . S
C593 C592 1.377 . S
C593 C599 1.390 . S
C594 H585 0.930 . S
C594 C592 1.384 . S
C594 C595 1.372 . S
C595 C594 1.372 . S
C595 C596 1.400 . S
C595 C600 1.490 . S
C596 H586 0.930 . S
C596 C595 1.400 . S
C596 C599 1.386 . S
H597 C613 0.930 . S
H598 C614 0.931 . S
C599 H587 0.929 . S
C599 C593 1.390 . S
C599 C596 1.386 . S
C600 C595 1.490 . S
C600 C602 1.395 . S
C600 C603 1.403 . S
H601 C607 0.930 . S
C602 H588 0.930 . S
C602 C600 1.395 . S
C602 C605 1.403 . S
C603 C600 1.403 . S
C603 C604 1.524 . S
C603 C607 1.400 . S
C604 H589 0.960 . S
C604 H590 0.960 . S
C604 H591 0.960 . S
C604 C603 1.524 . S
C605 C602 1.403 . S
C605 C606 1.392 . S
C605 C609 1.495 . S
C606 C605 1.392 . S
C606 C607 1.385 . S
C606 C608 1.478 . S
C607 H601 0.930 . S
C607 C603 1.400 . S
C607 C606 1.385 . S
C608 C606 1.478 . S
C608 C610 1.381 . S
C608 C614 1.383 . S
C609 C605 1.495 . S
C609 H615 0.959 . S
C609 H616 0.961 . S
C609 H617 0.960 . S
C610 C608 1.381 . S
C610 C611 1.394 . S
C610 H618 0.930 . S
C611 C610 1.394 . S
C611 C612 1.383 . S
C611 H619 0.929 . S
C612 C611 1.383 . S
C612 C613 1.377 . S
C613 H597 0.930 . S
C613 C612 1.377 . S
C613 C614 1.379 . S
C614 H598 0.931 . S
C614 C608 1.383 . S
C614 C613 1.379 . S
H615 C609 0.959 . S
H616 C609 0.961 . S
H617 C609 0.960 . S
H618 C610 0.930 . S
H619 C611 0.929 . S
H620 C628 0.929 . S
H621 C630 0.930 . S
H622 C632 0.930 . S
H623 C635 0.929 . S
H624 C638 0.930 . S
H625 C640 0.960 . S
H626 C640 0.960 . S
H627 C640 0.960 . S
C628 H620 0.929 . S
C628 C629 1.377 . S
C628 C630 1.384 . S
C629 C628 1.377 . S
C629 C635 1.390 . S
C630 H621 0.930 . S
C630 C628 1.384 . S
C630 C631 1.372 . S
C631 C630 1.372 . S
C631 C632 1.400 . S
C631 C636 1.490 . S
C632 H622 0.930 . S
C632 C631 1.400 . S
C632 C635 1.386 . S
H633 C649 0.930 . S
H634 C650 0.931 . S
C635 H623 0.929 . S
C635 C629 1.390 . S
C635 C632 1.386 . S
C636 C631 1.490 . S
C636 C638 1.395 . S
C636 C639 1.403 . S
H637 C643 0.930 . S
C638 H624 0.930 . S
C638 C636 1.395 . S
C638 C641 1.403 . S
C639 C636 1.403 . S
C639 C640 1.524 . S
C639 C643 1.400 . S
C640 H625 0.960 . S
C640 H626 0.960 . S
C640 H627 0.960 . S
C640 C639 1.524 . S
C641 C638 1.403 . S
C641 C642 1.392 . S
C641 C645 1.495 . S
C642 C641 1.392 . S
C642 C643 1.385 . S
C642 C644 1.478 . S
C643 H637 0.930 . S
C643 C639 1.400 . S
C643 C642 1.385 . S
C644 C642 1.478 . S
C644 C646 1.381 . S
C644 C650 1.383 . S
C645 C641 1.495 . S
C645 H651 0.959 . S
C645 H652 0.961 . S
C645 H653 0.960 . S
C646 C644 1.381 . S
C646 C647 1.394 . S
C646 H654 0.930 . S
C647 C646 1.394 . S
C647 C648 1.383 . S
C647 H655 0.929 . S
C648 C647 1.383 . S
C648 C649 1.377 . S
C649 H633 0.930 . S
C649 C648 1.377 . S
C649 C650 1.379 . S
C650 H634 0.931 . S
C650 C644 1.383 . S
C650 C649 1.379 . S
H651 C645 0.959 . S
H652 C645 0.961 . S
H653 C645 0.960 . S
H654 C646 0.930 . S
H655 C647 0.929 . S
H656 C664 0.929 . S
H657 C666 0.930 . S
H658 C668 0.930 . S
H659 C671 0.929 . S
H660 C674 0.930 . S
H661 C676 0.960 . S
H662 C676 0.960 . S
H663 C676 0.960 . S
C664 H656 0.929 . S
C664 C665 1.377 . S
C664 C666 1.384 . S
C665 C664 1.377 . S
C665 C671 1.390 . S
C666 H657 0.930 . S
C666 C664 1.384 . S
C666 C667 1.372 . S
C667 C666 1.372 . S
C667 C668 1.400 . S
C667 C672 1.490 . S
C668 H658 0.930 . S
C668 C667 1.400 . S
C668 C671 1.386 . S
H669 C685 0.930 . S
H670 C686 0.931 . S
C671 H659 0.929 . S
C671 C665 1.390 . S
C671 C668 1.386 . S
C672 C667 1.490 . S
C672 C674 1.395 . S
C672 C675 1.403 . S
H673 C679 0.930 . S
C674 H660 0.930 . S
C674 C672 1.395 . S
C674 C677 1.403 . S
C675 C672 1.403 . S
C675 C676 1.524 . S
C675 C679 1.400 . S
C676 H661 0.960 . S
C676 H662 0.960 . S
C676 H663 0.960 . S
C676 C675 1.524 . S
C677 C674 1.403 . S
C677 C678 1.392 . S
C677 C681 1.495 . S
C678 C677 1.392 . S
C678 C679 1.385 . S
C678 C680 1.478 . S
C679 H673 0.930 . S
C679 C675 1.400 . S
C679 C678 1.385 . S
C680 C678 1.478 . S
C680 C682 1.381 . S
C680 C686 1.383 . S
C681 C677 1.495 . S
C681 H687 0.959 . S
C681 H688 0.961 . S
C681 H689 0.960 . S
C682 C680 1.381 . S
C682 C683 1.394 . S
C682 H690 0.930 . S
C683 C682 1.394 . S
C683 C684 1.383 . S
C683 H691 0.929 . S
C684 C683 1.383 . S
C684 C685 1.377 . S
C685 H669 0.930 . S
C685 C684 1.377 . S
C685 C686 1.379 . S
C686 H670 0.931 . S
C686 C680 1.383 . S
C686 C685 1.379 . S
H687 C681 0.959 . S
H688 C681 0.961 . S
H689 C681 0.960 . S
H690 C682 0.930 . S
H691 C683 0.929 . S
H692 C700 0.929 . S
H693 C702 0.930 . S
H694 C704 0.930 . S
H695 C707 0.929 . S
H696 C710 0.930 . S
H697 C712 0.960 1_545 S
H698 C712 0.960 . S
H699 C712 0.960 . S
C700 H692 0.929 . S
C700 C701 1.377 . S
C700 C702 1.384 . S
C701 C700 1.377 . S
C701 C707 1.390 . S
C702 H693 0.930 . S
C702 C700 1.384 . S
C702 C703 1.372 . S
C703 C702 1.372 . S
C703 C704 1.400 . S
C703 C708 1.490 . S
C704 H694 0.930 . S
C704 C703 1.400 . S
C704 C707 1.386 . S
H705 C721 0.930 . S
H706 C722 0.931 . S
C707 H695 0.929 . S
C707 C701 1.390 . S
C707 C704 1.386 . S
C708 C703 1.490 . S
C708 C710 1.395 . S
C708 C711 1.403 . S
H709 C715 0.930 . S
C710 H696 0.930 . S
C710 C708 1.395 . S
C710 C713 1.403 . S
C711 C708 1.403 . S
C711 C712 1.524 . S
C711 C715 1.400 . S
C712 H697 0.960 1_565 S
C712 H698 0.960 . S
C712 H699 0.960 . S
C712 C711 1.524 . S
C713 C710 1.403 . S
C713 C714 1.392 . S
C713 C717 1.495 . S
C714 C713 1.392 . S
C714 C715 1.385 . S
C714 C716 1.478 . S
C715 H709 0.930 . S
C715 C711 1.400 . S
C715 C714 1.385 . S
C716 C714 1.478 . S
C716 C718 1.381 . S
C716 C722 1.383 . S
C717 C713 1.495 . S
C717 H723 0.959 . S
C717 H724 0.961 . S
C717 H725 0.960 . S
C718 C716 1.381 . S
C718 C719 1.394 . S
C718 H726 0.930 . S
C719 C718 1.394 . S
C719 C720 1.383 . S
C719 H727 0.929 . S
C720 C719 1.383 . S
C720 C721 1.377 . S
C721 H705 0.930 . S
C721 C720 1.377 . S
C721 C722 1.379 . S
C722 H706 0.931 . S
C722 C716 1.383 . S
C722 C721 1.379 . S
H723 C717 0.959 . S
H724 C717 0.961 . S
H725 C717 0.960 . S
H726 C718 0.930 . S
H727 C719 0.929 . S
C324 C191 1.624 . S
C305 C119 1.614 . S
C341 C23 1.604 . S
C360 C286 1.593 . S
C377 C55 1.562 . S
C396 C202 1.606 . S
C413 C87 1.544 . S
C432 C275 1.572 . S
C468 C186 1.433 . S
C449 C17 1.550 . S
C504 C279 1.601 . S
C485 C61 1.537 . S
C521 C93 1.508 . S
C540 C195 1.581 . S
C557 C113 1.532 . S
C576 C270 1.361 . S
C612 C281 1.372 . S
C593 C49 1.497 . S
C648 C197 1.374 . S
C629 C81 1.506 . S
C684 C268 1.601 . S
C665 C125 1.596 . S
C701 C29 1.576 . S
C720 C184 1.584 . S
