# Generated by pormake.
# Topology sqc, (4,8)-cn, num edge types: 1
# Building blocks:
#     Node 0, Type 0, BuildingBlock: NAWXER_clean_linker_0, # of connection points: 4
#     Node 1, Type 0, BuildingBlock: NAWXER_clean_linker_0, # of connection points: 4
#     Node 2, Type 0, BuildingBlock: NAWXER_clean_linker_0, # of connection points: 4
#     Node 3, Type 0, BuildingBlock: NAWXER_clean_linker_0, # of connection points: 4
#     Node 4, Type 0, BuildingBlock: NAWXER_clean_linker_0, # of connection points: 4
#     Node 5, Type 0, BuildingBlock: NAWXER_clean_linker_0, # of connection points: 4
#     Node 6, Type 0, BuildingBlock: NAWXER_clean_linker_0, # of connection points: 4
#     Node 7, Type 0, BuildingBlock: NAWXER_clean_linker_0, # of connection points: 4
#     Node 8, Type 1, BuildingBlock: TAGTUT_clean_sbu_3, # of connection points: 8
#     Node 9, Type 1, BuildingBlock: TAGTUT_clean_sbu_3, # of connection points: 8
#     Node 10, Type 1, BuildingBlock: TAGTUT_clean_sbu_3, # of connection points: 8
#     Node 11, Type 1, BuildingBlock: TAGTUT_clean_sbu_3, # of connection points: 8
#     Edge 12, Type (0, 1), BuildingBlock: CIFDUS_clean_linker_0, # of connection points: 2
#     Edge 13, Type (0, 1), BuildingBlock: CIFDUS_clean_linker_0, # of connection points: 2
#     Edge 14, Type (0, 1), BuildingBlock: CIFDUS_clean_linker_0, # of connection points: 2
#     Edge 15, Type (0, 1), BuildingBlock: CIFDUS_clean_linker_0, # of connection points: 2
#     Edge 16, Type (0, 1), BuildingBlock: CIFDUS_clean_linker_0, # of connection points: 2
#     Edge 17, Type (0, 1), BuildingBlock: CIFDUS_clean_linker_0, # of connection points: 2
#     Edge 18, Type (0, 1), BuildingBlock: CIFDUS_clean_linker_0, # of connection points: 2
#     Edge 19, Type (0, 1), BuildingBlock: CIFDUS_clean_linker_0, # of connection points: 2
#     Edge 20, Type (0, 1), BuildingBlock: CIFDUS_clean_linker_0, # of connection points: 2
#     Edge 21, Type (0, 1), BuildingBlock: CIFDUS_clean_linker_0, # of connection points: 2
#     Edge 22, Type (0, 1), BuildingBlock: CIFDUS_clean_linker_0, # of connection points: 2
#     Edge 23, Type (0, 1), BuildingBlock: CIFDUS_clean_linker_0, # of connection points: 2
#     Edge 24, Type (0, 1), BuildingBlock: CIFDUS_clean_linker_0, # of connection points: 2
#     Edge 25, Type (0, 1), BuildingBlock: CIFDUS_clean_linker_0, # of connection points: 2
#     Edge 26, Type (0, 1), BuildingBlock: CIFDUS_clean_linker_0, # of connection points: 2
#     Edge 27, Type (0, 1), BuildingBlock: CIFDUS_clean_linker_0, # of connection points: 2
#     Edge 28, Type (0, 1), BuildingBlock: CIFDUS_clean_linker_0, # of connection points: 2
#     Edge 29, Type (0, 1), BuildingBlock: CIFDUS_clean_linker_0, # of connection points: 2
#     Edge 30, Type (0, 1), BuildingBlock: CIFDUS_clean_linker_0, # of connection points: 2
#     Edge 31, Type (0, 1), BuildingBlock: CIFDUS_clean_linker_0, # of connection points: 2
#     Edge 32, Type (0, 1), BuildingBlock: CIFDUS_clean_linker_0, # of connection points: 2
#     Edge 33, Type (0, 1), BuildingBlock: CIFDUS_clean_linker_0, # of connection points: 2
#     Edge 34, Type (0, 1), BuildingBlock: CIFDUS_clean_linker_0, # of connection points: 2
#     Edge 35, Type (0, 1), BuildingBlock: CIFDUS_clean_linker_0, # of connection points: 2
#     Edge 36, Type (0, 1), BuildingBlock: CIFDUS_clean_linker_0, # of connection points: 2
#     Edge 37, Type (0, 1), BuildingBlock: CIFDUS_clean_linker_0, # of connection points: 2
#     Edge 38, Type (0, 1), BuildingBlock: CIFDUS_clean_linker_0, # of connection points: 2
#     Edge 39, Type (0, 1), BuildingBlock: CIFDUS_clean_linker_0, # of connection points: 2
#     Edge 40, Type (0, 1), BuildingBlock: CIFDUS_clean_linker_0, # of connection points: 2
#     Edge 41, Type (0, 1), BuildingBlock: CIFDUS_clean_linker_0, # of connection points: 2
#     Edge 42, Type (0, 1), BuildingBlock: CIFDUS_clean_linker_0, # of connection points: 2
#     Edge 43, Type (0, 1), BuildingBlock: CIFDUS_clean_linker_0, # of connection points: 2
# Relax obj value: 0.134
# Max RMSD: 0.255
# Mean RMSD: 0.159
data_MOF--net-sqc--node1-TAGTUT_clean_sbu_3--node2-NAWXER_clean_linker_0--edge1-CIFDUS_clean_linker_0
_symmetry_space_group_name_H-M    P1
_symmetry_Int_Tables_number       1
_symmetry_cell_setting            triclinic
loop_
_symmetry_equiv_pos_as_xyz
'x, y, z'
_cell_length_a     25.367721
_cell_length_b     25.334261
_cell_length_c     78.028062
_cell_angle_alpha  90.944102
_cell_angle_beta   89.939635
_cell_angle_gamma 90.088876
loop_
_atom_site_label
_atom_site_type_symbol
_atom_site_fract_x
_atom_site_fract_y
_atom_site_fract_z
_atom_type_partial_charge
C0 C 0.2386 -0.00222 0.46404 0.0
C1 C 0.25007 0.94385 0.46618 0.0
C2 C 0.19108 0.01918 0.46994 0.0
C3 C 0.15372 0.98713 0.47798 0.0
C4 C 0.21244 0.91202 0.4744 0.0
C5 C 0.16452 0.93337 0.48006 0.0
C6 C 0.1034 0.00957 0.48424 0.0
C7 C 0.23033 0.06595 0.52057 0.0
C8 C 0.23661 0.12118 0.52111 0.0
C9 C 0.18678 0.04291 0.51245 0.0
C10 C 0.14878 0.07455 0.50457 0.0
C11 C 0.19864 0.15272 0.51308 0.0
C12 C 0.15501 0.12959 0.50498 0.0
C13 C 0.10121 0.05086 0.49661 0.0
C14 C 0.8723 0.04635 0.51612 0.0
C15 C 0.86439 0.09986 0.52037 0.0
C16 C 0.91822 0.03008 0.5077 0.0
C17 C 0.95694 0.06704 0.50311 0.0
C18 C 0.90297 0.13688 0.51562 0.0
C19 C 0.94888 0.12057 0.50716 0.0
C20 C 0.00734 0.04942 0.49528 0.0
C21 C 0.88802 0.01907 0.45431 0.0
C22 C 0.87454 0.96565 0.45214 0.0
C23 C 0.93149 0.03364 0.46428 0.0
C24 C 0.96259 0.99501 0.47208 0.0
C25 C 0.90511 0.92701 0.46018 0.0
C26 C 0.94927 0.94158 0.46991 0.0
C27 C 0.00973 0.01084 0.48205 0.0
H28 H 0.26572 0.02341 0.45741 0.0
H29 H 0.18318 0.06069 0.46803 0.0
H30 H 0.21993 0.87059 0.47652 0.0
H31 H 0.13617 0.90807 0.48631 0.0
H32 H 0.25803 0.04052 0.52699 0.0
H33 H 0.1821 0.00044 0.51273 0.0
H34 H 0.2024 0.19531 0.51319 0.0
H35 H 0.12602 0.15475 0.49904 0.0
H36 H 0.84337 0.01687 0.51956 0.0
H37 H 0.92404 0.98831 0.50524 0.0
H38 H 0.89859 0.17828 0.51899 0.0
H39 H 0.97842 0.14972 0.50394 0.0
H40 H 0.86525 0.04945 0.44812 0.0
H41 H 0.94151 0.07509 0.46561 0.0
H42 H 0.89585 0.88551 0.45845 0.0
H43 H 0.97293 0.91123 0.47577 0.0
N44 N 0.05758 0.99147 0.47723 0.0
N45 N 0.05323 0.06881 0.50182 0.0
C46 C 0.4162 0.5339 0.72248 0.0
C47 C 0.41242 0.53239 0.70454 0.0
C48 C 0.38937 0.57272 0.73197 0.0
C49 C 0.35724 0.60946 0.72362 0.0
C50 C 0.38009 0.56868 0.69624 0.0
C51 C 0.35258 0.60668 0.70569 0.0
C52 C 0.33407 0.65523 0.73287 0.0
C53 C 0.25357 0.51738 0.7568 0.0
C54 C 0.26162 0.51148 0.77448 0.0
C55 C 0.27086 0.56274 0.74855 0.0
C56 C 0.29712 0.60302 0.75776 0.0
C57 C 0.28907 0.55118 0.78361 0.0
C58 C 0.3063 0.5967 0.77534 0.0
C59 C 0.31095 0.65328 0.74936 0.0
C60 C 0.23621 0.87644 0.76149 0.0
C61 C 0.26639 0.89266 0.77573 0.0
C62 C 0.24694 0.82851 0.75308 0.0
C63 C 0.28779 0.796 0.75883 0.0
C64 C 0.30672 0.85949 0.78159 0.0
C65 C 0.3171 0.8114 0.77326 0.0
C66 C 0.3017 0.7471 0.74941 0.0
C67 C 0.38857 0.86156 0.71129 0.0
C68 C 0.35026 0.87623 0.69928 0.0
C69 C 0.37782 0.82204 0.72305 0.0
C70 C 0.32873 0.79672 0.72293 0.0
C71 C 0.30033 0.85223 0.69967 0.0
C72 C 0.28987 0.81225 0.71131 0.0
C73 C 0.32158 0.74817 0.73263 0.0
H74 H 0.44115 0.50614 0.72908 0.0
H75 H 0.3953 0.57506 0.74569 0.0
H76 H 0.37615 0.56764 0.68241 0.0
H77 H 0.32839 0.63471 0.69892 0.0
H78 H 0.23258 0.4875 0.74942 0.0
H79 H 0.26201 0.56707 0.73507 0.0
H80 H 0.29511 0.54819 0.7973 0.0
H81 H 0.326 0.62742 0.78274 0.0
H82 H 0.20487 0.90117 0.75671 0.0
H83 H 0.22347 0.81689 0.74206 0.0
H84 H 0.32998 0.87055 0.79272 0.0
H85 H 0.34872 0.78671 0.77788 0.0
H86 H 0.42719 0.87987 0.71132 0.0
H87 H 0.40851 0.80968 0.73176 0.0
H88 H 0.27032 0.8626 0.69046 0.0
H89 H 0.25222 0.79204 0.71081 0.0
N90 N 0.33777 0.70258 0.72513 0.0
N91 N 0.2967 0.69964 0.75722 0.0
C92 C 0.46522 0.96383 0.95918 0.0
C93 C 0.45919 0.01699 0.95462 0.0
C94 C 0.50776 0.94837 0.96927 0.0
C95 C 0.54495 0.98582 0.9749 0.0
C96 C 0.49493 0.05471 0.9611 0.0
C97 C 0.53759 0.03919 0.97104 0.0
C98 C 0.59541 0.96898 0.98234 0.0
C99 C 0.49783 0.94415 0.02976 0.0
C100 C 0.48453 0.89113 0.03284 0.0
C101 C 0.53207 0.95708 0.01653 0.0
C102 C 0.55498 0.91736 0.00633 0.0
C103 C 0.50609 0.85149 0.02205 0.0
C104 C 0.54181 0.86449 0.00911 0.0
C105 C 0.59961 0.9312 0.99529 0.0
C106 C 0.7971 0.93735 0.02769 0.0
C107 C 0.8283 0.89367 0.02279 0.0
C108 C 0.75503 0.95312 0.01757 0.0
C109 C 0.74266 0.92518 0.00252 0.0
C110 C 0.81648 0.86664 0.00733 0.0
C111 C 0.77338 0.88182 -0.00259 0.0
C112 C 0.69311 0.93713 0.99383 0.0
C113 C 0.81584 0.01008 0.95894 0.0
C114 C 0.81242 0.06545 0.95822 0.0
C115 C 0.77682 0.981 0.96716 0.0
C116 C 0.73403 0.00685 0.97492 0.0
C117 C 0.77014 0.09128 0.96635 0.0
C118 C 0.73122 0.06218 0.97459 0.0
C119 C 0.68883 0.97696 0.98156 0.0
H120 H 0.43863 0.93374 0.95427 0.0
H121 H 0.51326 0.90681 0.97176 0.0
H122 H 0.49067 0.0961 0.95814 0.0
H123 H 0.56586 0.06873 0.97527 0.0
H124 H 0.48368 0.9759 0.03798 0.0
H125 H 0.54318 -0.00196 0.01493 0.0
H126 H 0.49615 0.81034 0.02374 0.0
H127 H 0.55996 0.83329 0.00151 0.0
H128 H 0.80364 0.95831 0.03969 0.0
H129 H 0.73067 0.98587 0.02188 0.0
H130 H 0.83988 0.83328 0.00302 0.0
H131 H 0.76344 0.85922 0.98596 0.0
H132 H 0.84743 0.98901 0.95247 0.0
H133 H 0.77879 0.93835 0.96666 0.0
H134 H 0.76674 0.13388 0.96609 0.0
H135 H 0.6982 0.08284 0.98041 0.0
N136 N 0.64017 0.99075 0.97609 0.0
N137 N 0.64833 0.91647 0.0005 0.0
C138 C 0.26339 0.10763 0.22625 0.0
C139 C 0.20914 0.09927 0.22336 0.0
C140 C 0.28098 0.15254 0.23525 0.0
C141 C 0.24473 0.19009 0.24135 0.0
C142 C 0.17302 0.1359 0.23038 0.0
C143 C 0.1907 0.18129 0.239 0.0
C144 C 0.26293 0.24054 0.24889 0.0
C145 C 0.28072 0.11596 0.28956 0.0
C146 C 0.32666 0.11972 0.29965 0.0
C147 C 0.26687 0.15658 0.27847 0.0
C148 C 0.3 0.20074 0.27658 0.0
C149 C 0.35777 0.16548 0.29845 0.0
C150 C 0.34525 0.20465 0.2869 0.0
C151 C 0.28807 0.24526 0.26498 0.0
C152 C 0.34456 0.4426 0.29188 0.0
C153 C 0.37936 0.47292 0.28214 0.0
C154 C 0.31834 0.3997 0.28444 0.0
C155 C 0.32666 0.38605 0.26715 0.0
C156 C 0.38772 0.45979 0.26481 0.0
C157 C 0.36228 0.41593 0.25743 0.0
C158 C 0.30168 0.33744 0.26023 0.0
C159 C 0.27158 0.40791 0.20279 0.0
C160 C 0.26156 0.46017 0.20833 0.0
C161 C 0.27622 0.36727 0.21452 0.0
C162 C 0.26984 0.3772 0.23213 0.0
C163 C 0.25433 0.46986 0.22603 0.0
C164 C 0.25699 0.42864 0.23771 0.0
C165 C 0.27596 0.3329 0.24422 0.0
H166 H 0.29253 0.08094 0.22086 0.0
H167 H 0.32292 0.15906 0.23683 0.0
H168 H 0.13096 0.13034 0.22884 0.0
H169 H 0.1622 0.20988 0.2437 0.0
H170 H 0.25539 0.08163 0.2901 0.0
H171 H 0.22988 0.1533 0.27172 0.0
H172 H 0.39205 0.17165 0.30648 0.0
H173 H 0.37138 0.23841 0.28616 0.0
H174 H 0.33751 0.45229 0.30527 0.0
H175 H 0.29172 0.37682 0.29227 0.0
H176 H 0.41485 0.48261 0.25716 0.0
H177 H 0.37096 0.40502 0.24425 0.0
H178 H 0.2752 0.39775 0.18932 0.0
H179 H 0.28506 0.32785 0.20975 0.0
H180 H 0.24674 0.50922 0.23099 0.0
H181 H 0.24928 0.43731 0.2511 0.0
N182 N 0.25769 0.28445 0.23923 0.0
N183 N 0.30598 0.29369 0.26988 0.0
C184 C 0.93776 0.03813 0.23479 0.0
C185 C 0.92542 0.02588 0.21765 0.0
C186 C 0.91304 0.08073 0.24313 0.0
C187 C 0.87483 0.11036 0.23449 0.0
C188 C 0.88675 0.05506 0.20919 0.0
C189 C 0.86169 0.09684 0.21753 0.0
C190 C 0.85271 0.1593 0.24193 0.0
C191 C 0.79751 0.02854 0.27542 0.0
C192 C 0.80171 0.03627 0.29329 0.0
C193 C 0.80633 0.07007 0.26421 0.0
C194 C 0.82309 0.11979 0.27039 0.0
C195 C 0.81679 0.08675 0.29945 0.0
C196 C 0.82789 0.12759 0.28817 0.0
C197 C 0.83205 0.16489 0.2587 0.0
C198 C 0.75515 0.39077 0.26001 0.0
C199 C 0.78099 0.41009 0.27475 0.0
C200 C 0.76729 0.34069 0.25332 0.0
C201 C 0.80522 0.30921 0.26134 0.0
C202 C 0.81835 0.37808 0.28285 0.0
C203 C 0.83003 0.32793 0.27628 0.0
C204 C 0.82062 0.25741 0.25406 0.0
C205 C 0.88259 0.37824 0.21657 0.0
C206 C 0.86899 0.36807 0.19938 0.0
C207 C 0.87152 0.3411 0.22911 0.0
C208 C 0.84521 0.29396 0.22471 0.0
C209 C 0.84248 0.32123 0.195 0.0
C210 C 0.83051 0.28462 0.20757 0.0
C211 C 0.839 0.25089 0.23711 0.0
H212 H 0.96755 0.0159 0.24149 0.0
H213 H 0.92472 0.09136 0.25608 0.0
H214 H 0.87612 0.04568 0.19604 0.0
H215 H 0.83259 0.11934 0.2106 0.0
H216 H 0.78681 0.9906 0.2699 0.0
H217 H 0.799 0.06303 0.25072 0.0
H218 H 0.81886 0.09565 0.31304 0.0
H219 H 0.83954 0.1657 0.29342 0.0
H220 H 0.72595 0.41455 0.25361 0.0
H221 H 0.74729 0.32662 0.24186 0.0
H222 H 0.838 0.39153 0.29445 0.0
H223 H 0.85923 0.30412 0.28267 0.0
H224 H 0.9038 0.41389 0.22016 0.0
H225 H 0.88545 0.34841 0.24204 0.0
H226 H 0.83156 0.31273 0.18182 0.0
H227 H 0.81082 0.24824 0.20382 0.0
N228 N 0.85447 0.20225 0.23185 0.0
N229 N 0.81766 0.2142 0.26419 0.0
C230 C 0.74644 0.96831 0.73186 0.0
C231 C 0.75282 0.9674 0.71395 0.0
C232 C 0.75693 0.92349 0.74144 0.0
C233 C 0.77612 0.87721 0.73345 0.0
C234 C 0.77136 0.92072 0.70596 0.0
C235 C 0.78297 0.87623 0.71561 0.0
C236 C 0.78582 0.82889 0.74344 0.0
C237 C 0.89559 0.95083 0.76708 0.0
C238 C 0.88867 0.95956 0.78476 0.0
C239 C 0.86946 0.90906 0.75875 0.0
C240 C 0.83486 0.87651 0.76792 0.0
C241 C 0.85463 0.92667 0.79391 0.0
C242 C 0.82796 0.88566 0.78558 0.0
C243 C 0.80932 0.82982 0.75986 0.0
C244 C 0.83657 0.60731 0.77983 0.0
C245 C 0.82716 0.61523 0.79743 0.0
C246 C 0.82194 0.64579 0.76814 0.0
C247 C 0.79668 0.69207 0.7739 0.0
C248 C 0.79985 0.66031 0.80306 0.0
C249 C 0.78461 0.69832 0.79138 0.0
C250 C 0.79118 0.73808 0.76272 0.0
C251 C 0.69047 0.61179 0.73784 0.0
C252 C 0.71441 0.59189 0.72284 0.0
C253 C 0.70864 0.65878 0.74547 0.0
C254 C 0.75027 0.68694 0.738 0.0
C255 C 0.75616 0.62009 0.71545 0.0
C256 C 0.7735 0.66756 0.72286 0.0
C257 C 0.77036 0.73618 0.74599 0.0
H258 H 0.73262 0.00345 0.73854 0.0
H259 H 0.74915 0.92496 0.75508 0.0
H260 H 0.77547 0.91782 0.69217 0.0
H261 H 0.79682 0.84079 0.70909 0.0
H262 H 0.92197 0.97561 0.75981 0.0
H263 H 0.87701 0.90174 0.74526 0.0
H264 H 0.84821 0.93306 0.80752 0.0
H265 H 0.80191 0.86087 0.79298 0.0
H266 H 0.85817 0.57301 0.77526 0.0
H267 H 0.83345 0.64075 0.75485 0.0
H268 H 0.79193 0.66696 0.81657 0.0
H269 H 0.76553 0.73393 0.79612 0.0
H270 H 0.65799 0.59085 0.74367 0.0
H271 H 0.69002 0.67335 0.75711 0.0
H272 H 0.77468 0.60589 0.70374 0.0
H273 H 0.80563 0.68879 0.71693 0.0
N274 N 0.76813 0.78172 0.73699 0.0
N275 N 0.81018 0.7846 0.76885 0.0
C276 C 0.73654 0.4566 0.97404 0.0
C277 C 0.73509 0.40468 0.96722 0.0
C278 C 0.69129 0.48035 0.98087 0.0
C279 C 0.64395 0.45182 0.98224 0.0
C280 C 0.68686 0.37705 0.96798 0.0
C281 C 0.64233 0.40003 0.97556 0.0
C282 C 0.59509 0.4752 0.98983 0.0
C283 C 0.72201 0.5084 0.02952 0.0
C284 C 0.73656 0.5621 0.02906 0.0
C285 C 0.67536 0.49076 0.02177 0.0
C286 C 0.64216 0.52653 0.01355 0.0
C287 C 0.70275 0.59766 0.0208 0.0
C288 C 0.65571 0.58014 0.01335 0.0
C289 C 0.59413 0.50844 0.0046 0.0
C290 C 0.37326 0.48972 0.02829 0.0
C291 C 0.36271 0.54109 0.0343 0.0
C292 C 0.41673 0.48 0.01769 0.0
C293 C 0.4508 0.52137 0.0132 0.0
C294 C 0.39565 0.58275 0.02935 0.0
C295 C 0.43981 0.57285 0.01904 0.0
C296 C 0.50012 0.50989 0.00373 0.0
C297 C 0.37501 0.49937 0.96303 0.0
C298 C 0.37091 0.45054 0.95446 0.0
C299 C 0.41606 0.5085 0.97468 0.0
C300 C 0.45322 0.46867 0.978 0.0
C301 C 0.40696 0.41034 0.95808 0.0
C302 C 0.4478 0.41933 0.96974 0.0
C303 C 0.50101 0.47999 0.98835 0.0
H304 H 0.77242 0.47966 0.97406 0.0
H305 H 0.69369 0.52136 0.98479 0.0
H306 H 0.68264 0.33789 0.96243 0.0
H307 H 0.60624 0.37715 0.97606 0.0
H308 H 0.74622 0.47996 0.03607 0.0
H309 H 0.66523 0.44923 0.02213 0.0
H310 H 0.71279 0.63905 0.01987 0.0
H311 H 0.63061 0.60823 0.00696 0.0
H312 H 0.34871 0.45702 0.0322 0.0
H313 H 0.42501 0.4398 0.01358 0.0
H314 H 0.38856 0.62253 0.03411 0.0
H315 H 0.46584 0.60519 0.01585 0.0
H316 H 0.34806 0.5311 0.96011 0.0
H317 H 0.4202 0.54752 0.98039 0.0
H318 H 0.40463 0.37259 0.95139 0.0
H319 H 0.47611 0.38818 0.97193 0.0
N320 N 0.54832 0.46299 0.98221 0.0
N321 N 0.54673 0.52402 0.01108 0.0
C322 C 0.96418 0.51798 0.53118 0.0
C323 C 0.95485 0.46752 0.53774 0.0
C324 C 0.00676 0.52658 0.52021 0.0
C325 C 0.04024 0.48469 0.51542 0.0
C326 C 0.98756 0.42543 0.53257 0.0
C327 C 0.02999 0.43402 0.52159 0.0
C328 C 0.08948 0.49458 0.50589 0.0
C329 C 0.96482 0.53142 0.46684 0.0
C330 C 0.96847 0.58077 0.45889 0.0
C331 C 0.00405 0.51489 0.47809 0.0
C332 C 0.04701 0.54801 0.48203 0.0
C333 C 0.01111 0.61407 0.46309 0.0
C334 C 0.04967 0.59798 0.47458 0.0
C335 C 0.0929 0.52871 0.49183 0.0
C336 C 0.31925 0.52884 0.47056 0.0
C337 C 0.32263 0.58298 0.46682 0.0
C338 C 0.27625 0.5091 0.47967 0.0
C339 C 0.23652 0.54338 0.48552 0.0
C340 C 0.28361 0.61727 0.47322 0.0
C341 C 0.2411 0.59764 0.48247 0.0
C342 C 0.18681 0.52348 0.49286 0.0
C343 C 0.31156 0.46824 0.52989 0.0
C344 C 0.31073 0.41365 0.53299 0.0
C345 C 0.27096 0.49189 0.52073 0.0
C346 C 0.22922 0.46125 0.51423 0.0
C347 C 0.26935 0.38294 0.52621 0.0
C348 C 0.22886 0.40661 0.51699 0.0
C349 C 0.18326 0.48598 0.506 0.0
H350 H 0.93996 0.55121 0.53511 0.0
H351 H 0.01475 0.5664 0.51608 0.0
H352 H 0.98079 0.38595 0.53722 0.0
H353 H 0.05548 0.40121 0.51816 0.0
H354 H 0.93219 0.50499 0.46413 0.0
H355 H 0.00166 0.4754 0.48312 0.0
H356 H 0.01599 0.65191 0.45704 0.0
H357 H 0.08265 0.62411 0.4772 0.0
H358 H 0.34907 0.50144 0.46602 0.0
H359 H 0.27308 0.46694 0.48149 0.0
H360 H 0.28441 0.65897 0.4704 0.0
H361 H 0.21065 0.6248 0.48675 0.0
H362 H 0.34321 0.4929 0.53481 0.0
H363 H 0.27147 0.53429 0.51919 0.0
H364 H 0.26724 0.34096 0.52855 0.0
H365 H 0.19666 0.38232 0.51225 0.0
N366 N 0.13472 0.47365 0.51214 0.0
N367 N 0.14147 0.54242 0.48616 0.0
C368 C 0.14767 0.66346 0.14365 0.0
C369 C 0.95392 0.60739 0.14067 0.0
C370 C 0.95237 0.68444 0.09171 0.0
Mg371 Mg 0.20875 0.76315 0.12836 0.0
Mg372 Mg 0.14725 0.86916 0.11545 0.0
O373 O 0.15325 0.79599 0.11364 0.0
Mg374 Mg 0.09252 0.75208 0.12061 0.0
O375 O 0.03606 0.70348 0.128 0.0
Mg376 Mg 0.05667 0.63846 0.11484 0.0
Mg377 Mg 0.96542 0.72257 0.12879 0.0
C378 C 0.04254 0.84356 0.09541 0.0
O379 O 0.061 0.81319 0.14006 0.0
O380 O 0.2678 0.81563 0.11298 0.0
O381 O 0.97409 0.79595 0.14296 0.0
O382 O 0.20309 0.82812 0.15036 0.0
O383 O 0.22178 0.88627 0.10435 0.0
O384 O 0.14796 0.8907 0.1417 0.0
O385 O 0.12084 0.68935 0.10115 0.0
O386 O 0.20712 0.69942 0.10718 0.0
C387 C 0.16946 0.67633 0.09896 0.0
C388 C 0.26435 0.85927 0.10481 0.0
O389 O 0.04298 0.79526 0.10026 0.0
O390 O 0.9938 0.59426 0.13132 0.0
O391 O 0.07609 0.87795 0.10078 0.0
O392 O 0.99149 0.65312 0.09399 0.0
O393 O 0.93709 0.6549 0.14179 0.0
O394 O 0.93885 0.71871 0.10303 0.0
O395 O 0.14377 0.71301 0.14082 0.0
O396 O 0.1188 0.62924 0.13581 0.0
C397 C 0.17677 0.8706 0.15322 0.0
C398 C 0.01536 0.82345 0.14633 0.0
C399 C 0.67365 0.80803 0.39527 0.0
C400 C 0.75557 0.6232 0.38554 0.0
C401 C 0.66945 0.62636 0.3369 0.0
Mg402 Mg 0.56528 0.85689 0.38146 0.0
Mg403 Mg 0.46521 0.78551 0.36636 0.0
O404 O 0.5378 0.79783 0.36651 0.0
Mg405 Mg 0.59042 0.74276 0.37216 0.0
O406 O 0.64778 0.69265 0.37768 0.0
Mg407 Mg 0.70599 0.72606 0.36409 0.0
Mg408 Mg 0.63831 0.61994 0.37441 0.0
C409 C 0.50441 0.68365 0.34597 0.0
O410 O 0.53798 0.69827 0.39133 0.0
O411 O 0.50687 0.91012 0.36696 0.0
O412 O 0.56459 0.6135 0.38823 0.0
O413 O 0.50093 0.84196 0.4025 0.0
O414 O 0.44137 0.8599 0.356 0.0
O415 O 0.44215 0.78312 0.39261 0.0
O416 O 0.64491 0.78292 0.35278 0.0
O417 O 0.6271 0.8668 0.36044 0.0
C418 C 0.65269 0.83276 0.35141 0.0
C419 C 0.46451 0.9045 0.35811 0.0
O420 O 0.5517 0.68867 0.35167 0.0
O421 O 0.76019 0.66806 0.37824 0.0
O422 O 0.46643 0.71433 0.35049 0.0
O423 O 0.69787 0.66639 0.34107 0.0
O424 O 0.71244 0.59677 0.38555 0.0
O425 O 0.63848 0.60476 0.34755 0.0
O426 O 0.6245 0.79798 0.39298 0.0
O427 O 0.70969 0.78491 0.38643 0.0
C428 C 0.45996 0.81293 0.40461 0.0
C429 C 0.53327 0.64876 0.39442 0.0
C430 C 0.66019 0.15012 0.63989 0.0
C431 C 0.47345 0.07112 0.63136 0.0
C432 C 0.46989 0.17014 0.58612 0.0
Mg433 Mg 0.70918 0.2613 0.62899 0.0
Mg434 Mg 0.63783 0.36593 0.61978 0.0
O435 O 0.64906 0.29388 0.61619 0.0
Mg436 Mg 0.59383 0.24009 0.62072 0.0
O437 O 0.54388 0.18141 0.62524 0.0
Mg438 Mg 0.57416 0.12598 0.60946 0.0
Mg439 Mg 0.4712 0.19134 0.62464 0.0
C440 C 0.53189 0.33532 0.60034 0.0
O441 O 0.55286 0.28763 0.64237 0.0
O442 O 0.76171 0.32423 0.61625 0.0
O443 O 0.46864 0.25813 0.64217 0.0
O444 O 0.69903 0.31752 0.65291 0.0
O445 O 0.71035 0.39167 0.60811 0.0
O446 O 0.64089 0.38046 0.64672 0.0
O447 O 0.63036 0.19011 0.59906 0.0
O448 O 0.71512 0.20713 0.60535 0.0
C449 C 0.6798 0.18367 0.59628 0.0
C450 C 0.75523 0.36856 0.60878 0.0
O451 O 0.5386 0.28552 0.60249 0.0
O452 O 0.51675 0.06727 0.62282 0.0
O453 O 0.56266 0.37071 0.60679 0.0
O454 O 0.51115 0.14177 0.58826 0.0
O455 O 0.44946 0.11512 0.63357 0.0
O456 O 0.45012 0.19763 0.59836 0.0
O457 O 0.65029 0.19966 0.63915 0.0
O458 O 0.63566 0.11592 0.63058 0.0
C459 C 0.67148 0.35797 0.65728 0.0
C460 C 0.50511 0.28878 0.6479 0.0
C461 C 0.17665 0.32256 0.88881 0.0
C462 C 0.26376 0.13351 0.88489 0.0
C463 C 0.16874 0.11889 0.8386 0.0
Mg464 Mg 0.06174 0.35975 0.87442 0.0
Mg465 Mg 0.96479 0.27434 0.86816 0.0
O466 O 0.03512 0.29215 0.86403 0.0
Mg467 Mg 0.09271 0.24404 0.87088 0.0
O468 O 0.15397 0.20001 0.87734 0.0
Mg469 Mg 0.20834 0.22823 0.86108 0.0
Mg470 Mg 0.14447 0.12714 0.87636 0.0
C471 C 0.00539 0.1683 0.85089 0.0
O472 O 0.04618 0.20644 0.8932 0.0
O473 O 0.99391 0.39995 0.85927 0.0
O474 O 0.07799 0.12324 0.89332 0.0
O475 O 0.0056 0.35517 0.89782 0.0
O476 O 0.93189 0.33792 0.85412 0.0
O477 O 0.94846 0.28862 0.89484 0.0
O478 O 0.14208 0.27703 0.84877 0.0
O479 O 0.11622 0.36133 0.8512 0.0
C480 C 0.14428 0.32524 0.84404 0.0
C481 C 0.94997 0.38479 0.85254 0.0
O482 O 0.0538 0.17975 0.85399 0.0
O483 O 0.26819 0.17639 0.87634 0.0
O484 O 0.9665 0.19664 0.85612 0.0
O485 O 0.19821 0.15952 0.84088 0.0
O486 O 0.2202 0.10829 0.88604 0.0
O487 O 0.13822 0.10238 0.85031 0.0
O488 O 0.12753 0.31034 0.88768 0.0
O489 O 0.21231 0.29616 0.88071 0.0
C490 C 0.96764 0.32712 0.90355 0.0
C491 C 0.04655 0.15911 0.89895 0.0
H492 H 0.26426 0.84583 0.45166 0.0
H493 H 0.34835 0.98947 0.46453 0.0
H494 H 0.42502 0.95757 0.44863 0.0
H495 H 0.46337 0.89432 0.42792 0.0
H496 H 0.37927 0.75041 0.41553 0.0
H497 H 0.30876 0.77594 0.43519 0.0
C498 C 0.29971 0.86974 0.45146 0.0
C499 C 0.29966 0.92072 0.45897 0.0
C500 C 0.34396 0.85103 0.4424 0.0
C501 C 0.34631 0.95087 0.45839 0.0
C502 C 0.39049 0.93247 0.44942 0.0
C503 C 0.43037 0.86781 0.42986 0.0
C504 C 0.42618 0.82106 0.41995 0.0
C505 C 0.38908 0.8834 0.44086 0.0
C506 C 0.38317 0.7871 0.42275 0.0
C507 C 0.34257 0.80181 0.43393 0.0
H508 H 0.43587 0.87571 0.67856 0.0
H509 H 0.29306 0.9618 0.68976 0.0
H510 H 0.31606 0.0269 0.66816 0.0
H511 H 0.37943 0.06212 0.64767 0.0
H512 H 0.52316 0.97679 0.63666 0.0
H513 H 0.49653 0.90785 0.65641 0.0
C514 C 0.40994 0.90886 0.67626 0.0
C515 C 0.36328 0.91459 0.68585 0.0
C516 C 0.42336 0.9459 0.66383 0.0
C517 C 0.32927 0.95684 0.68253 0.0
C518 C 0.34242 0.99398 0.67022 0.0
C519 C 0.40477 0.02818 0.64941 0.0
C520 C 0.45353 0.025 0.64082 0.0
C521 C 0.38971 0.98926 0.66098 0.0
C522 C 0.48546 0.98035 0.64309 0.0
C523 C 0.47046 0.94109 0.65449 0.0
H524 H 0.46742 0.0862 0.9284 0.0
H525 H 0.35724 0.9825 0.95343 0.0
H526 H 0.28894 0.0066 0.93307 0.0
H527 H 0.25993 0.05855 0.90905 0.0
H528 H 0.3672 0.16682 0.88473 0.0
H529 H 0.43762 0.13941 0.90412 0.0
C530 C 0.42827 0.06936 0.92954 0.0
C531 C 0.4174 0.03268 0.94247 0.0
C532 C 0.38893 0.08397 0.91793 0.0
C533 C 0.36681 0.01037 0.94352 0.0
C534 C 0.3277 0.02427 0.93192 0.0
C535 C 0.29878 0.07601 0.90778 0.0
C536 C 0.30828 0.11464 0.89537 0.0
C537 C 0.33835 0.06107 0.91915 0.0
C538 C 0.35884 0.13695 0.89413 0.0
C539 C 0.399 0.12143 0.90525 0.0
H540 H 0.24929 -0.00122 0.21916 0.0
H541 H 0.12747 0.1025 0.20061 0.0
H542 H 0.10235 0.03711 0.17917 0.0
H543 H 0.12186 0.95682 0.16325 0.0
H544 H 0.24616 0.85349 0.1798 0.0
H545 H 0.26391 0.91291 0.20426 0.0
C546 C 0.21724 0.00713 0.21044 0.0
C547 C 0.19065 0.056 0.2116 0.0
C548 C 0.20385 0.96977 0.1976 0.0
C549 C 0.14836 0.06529 0.20037 0.0
C550 C 0.1342 0.02803 0.18789 0.0
C551 C 0.15215 0.9464 0.17235 0.0
C552 C 0.1828 0.90082 0.16957 0.0
C553 C 0.16262 0.98097 0.18609 0.0
C554 C 0.22202 0.88838 0.18156 0.0
C555 C 0.23234 0.92251 0.19551 0.0
H556 H 0.33915 0.08914 0.52281 0.0
H557 H 0.23201 0.20806 0.54231 0.0
H558 H 0.2991 0.23978 0.5623 0.0
H559 H 0.38235 0.2249 0.57717 0.0
H560 H 0.48848 0.10346 0.55874 0.0
H561 H 0.42767 0.08183 0.53542 0.0
C562 C 0.33059 0.12218 0.53138 0.0
C563 C 0.28023 0.14547 0.53125 0.0
C564 C 0.36891 0.13941 0.54319 0.0
C565 C 0.27033 0.18929 0.54209 0.0
C566 C 0.30856 0.20721 0.55366 0.0
C567 C 0.39273 0.19421 0.56791 0.0
C568 C 0.43951 0.16514 0.56995 0.0
C569 C 0.35716 0.18124 0.55476 0.0
C570 C 0.45259 0.12623 0.55761 0.0
C571 C 0.41766 0.1136 0.54431 0.0
H572 H 0.17098 0.93129 0.78549 0.0
H573 H 0.33716 0.96747 0.78627 0.0
H574 H 0.32018 0.04664 0.80372 0.0
H575 H 0.2593 0.09976 0.82135 0.0
H576 H 0.09403 0.06023 0.82207 0.0
H577 H 0.10897 0.98918 0.80106 0.0
C578 C 0.20331 0.9571 0.78922 0.0
C579 C 0.25528 0.94336 0.78477 0.0
C580 C 0.19333 0.00198 0.7995 0.0
C581 C 0.2969 0.97684 0.7898 0.0
C582 C 0.28719 0.02219 0.7997 0.0
C583 C 0.2264 0.07651 0.81652 0.0
C584 C 0.17567 0.08497 0.82323 0.0
C585 C 0.23573 0.03442 0.80499 0.0
C586 C 0.13344 0.0541 0.81711 0.0
C587 C 0.14205 0.01336 0.80518 0.0
H588 H 0.40323 0.94927 0.046 0.0
H589 H 0.48672 0.8026 0.05301 0.0
H590 H 0.42839 0.78109 0.07674 0.0
H591 H 0.35156 0.80291 0.09495 0.0
H592 H 0.27448 0.95353 0.08898 0.0
H593 H 0.33492 0.97561 0.06605 0.0
C594 C 0.40994 0.91312 0.05289 0.0
C595 C 0.44947 0.87768 0.04749 0.0
C596 C 0.37783 0.90191 0.06695 0.0
C597 C 0.45591 0.83029 0.05647 0.0
C598 C 0.42299 0.81818 0.07025 0.0
C599 C 0.34868 0.841 0.08889 0.0
C600 C 0.308 0.87611 0.09357 0.0
C601 C 0.38357 0.85361 0.07555 0.0
C602 C 0.30496 0.92537 0.08555 0.0
C603 C 0.33935 0.93804 0.07234 0.0
H604 H 0.42665 0.09171 0.30849 0.0
H605 H 0.26369 0.04921 0.31712 0.0
H606 H 0.29181 0.97841 0.33581 0.0
H607 H 0.36321 0.9287 0.34988 0.0
H608 H 0.52423 0.98055 0.34389 0.0
H609 H 0.49577 0.04973 0.32467 0.0
C610 C 0.39674 0.06833 0.31476 0.0
C611 C 0.34292 0.0765 0.31129 0.0
C612 C 0.41285 0.02965 0.32619 0.0
C613 C 0.30548 0.04365 0.31917 0.0
C614 C 0.32146 0.0034 0.33006 0.0
C615 C 0.39182 0.95561 0.34448 0.0
C616 C 0.44565 0.94967 0.34824 0.0
C617 C 0.37509 0.99608 0.33367 0.0
C618 C 0.4825 0.98477 0.3413 0.0
C619 C 0.46634 0.02401 0.3302 0.0
H620 H 0.82271 0.05035 0.54792 0.0
H621 H 0.80284 0.18754 0.51652 0.0
H622 H 0.73533 0.2214 0.53615 0.0
H623 H 0.69099 0.21748 0.56419 0.0
H624 H 0.71472 0.08296 0.59624 0.0
H625 H 0.77025 0.04133 0.57413 0.0
C626 C 0.80264 0.08695 0.5451 0.0
C627 C 0.81825 0.11665 0.53087 0.0
C628 C 0.76435 0.10644 0.55655 0.0
C629 C 0.79227 0.1644 0.52756 0.0
C630 C 0.7535 0.18366 0.53873 0.0
C631 C 0.70678 0.17815 0.56595 0.0
C632 C 0.6983 0.15255 0.58152 0.0
C633 C 0.74039 0.15579 0.55353 0.0
C634 C 0.72006 0.10252 0.5841 0.0
C635 C 0.75227 0.07918 0.57158 0.0
H636 H 0.73298 0.95295 0.28817 0.0
H637 H 0.83865 0.02061 0.32616 0.0
H638 H 0.80506 0.95983 0.3473 0.0
H639 H 0.73867 0.8939 0.35581 0.0
H640 H 0.6409 0.82007 0.3172 0.0
H641 H 0.68085 0.8752 0.29518 0.0
C642 C 0.75041 0.95383 0.30082 0.0
C643 C 0.78742 0.99327 0.30547 0.0
C644 C 0.73263 0.91714 0.31283 0.0
C645 C 0.80839 0.99288 0.3222 0.0
C646 C 0.78975 0.95747 0.33434 0.0
C647 C 0.72759 0.8888 0.34245 0.0
C648 C 0.68723 0.85324 0.338 0.0
C649 C 0.75078 0.9205 0.32992 0.0
C650 C 0.67252 0.84687 0.32078 0.0
C651 C 0.69486 0.87883 0.30827 0.0
H652 H 0.89271 0.95389 0.043 0.0
H653 H 0.8606 0.79164 0.02851 0.0
H654 H 0.92624 0.76205 0.04896 0.0
H655 H 0.98638 0.78164 0.07307 0.0
H656 H 0.01288 0.94399 0.08857 0.0
H657 H 0.95269 0.97358 0.06648 0.0
C658 C 0.89895 0.91191 0.04453 0.0
C659 C 0.8709 0.87526 0.03432 0.0
C660 C 0.93427 0.89487 0.05701 0.0
C661 C 0.88164 0.82108 0.03604 0.0
C662 C 0.91846 0.80391 0.04802 0.0
C663 C 0.97849 0.82341 0.07173 0.0
C664 C 0.00371 0.86045 0.08256 0.0
C665 C 0.94385 0.84036 0.05893 0.0
C666 C 0.99392 0.91457 0.08043 0.0
C667 C 0.95959 0.93162 0.06778 0.0
H668 H 0.94693 0.95458 0.81373 0.0
H669 H 0.8898 0.06284 0.77597 0.0
H670 H 0.92381 0.13752 0.79292 0.0
H671 H 0.96268 0.17202 0.81969 0.0
H672 H 0.02201 0.06446 0.8572 0.0
H673 H 0.99409 0.98893 0.83921 0.0
C674 C 0.94248 0.99457 0.8092 0.0
C675 C 0.91554 0.00357 0.79379 0.0
C676 C 0.96197 0.03709 0.81902 0.0
C677 C 0.91054 0.05523 0.7878 0.0
C678 C 0.92962 0.09782 0.79753 0.0
C679 C 0.96979 0.1319 0.82377 0.0
C680 C 0.99359 0.12311 0.83966 0.0
C681 C 0.95424 0.08923 0.81333 0.0
C682 C 0.00343 0.07151 0.84495 0.0
C683 C 0.98744 0.02861 0.83472 0.0
H684 H 0.78931 0.90359 0.45872 0.0
H685 H 0.86473 0.99253 0.41891 0.0
H686 H 0.80169 0.958 0.39789 0.0
H687 H 0.73354 0.89317 0.39023 0.0
H688 H 0.65677 0.80433 0.42966 0.0
H689 H 0.71073 0.8491 0.4516 0.0
C690 C 0.79121 0.91586 0.44548 0.0
C691 C 0.83178 0.94991 0.44025 0.0
C692 C 0.75456 0.89607 0.43348 0.0
C693 C 0.83377 0.96628 0.42316 0.0
C694 C 0.79788 0.94648 0.41115 0.0
C695 C 0.72745 0.88516 0.40371 0.0
C696 C 0.69148 0.84592 0.40845 0.0
C697 C 0.75916 0.91023 0.41608 0.0
C698 C 0.68385 0.83511 0.42584 0.0
C699 C 0.71524 0.8601 0.43832 0.0
H700 H 0.97747 0.0334 0.18775 0.0
H701 H 0.93173 0.92267 0.22641 0.0
H702 H 0.9599 0.84899 0.20783 0.0
H703 H 0.98693 0.81654 0.17922 0.0
H704 H 0.03246 0.92719 0.14057 0.0
H705 H 0.01443 0.00115 0.16042 0.0
C706 C 0.9746 0.99308 0.19215 0.0
C707 C 0.95213 0.98292 0.20821 0.0
C708 C 0.98988 0.95132 0.18132 0.0
C709 C 0.94903 0.93097 0.21404 0.0
C710 C 0.96463 0.88903 0.20338 0.0
C711 C 0.99341 0.85697 0.17532 0.0
C712 C 0.01022 0.86718 0.15859 0.0
C713 C 0.98337 0.89877 0.1868 0.0
C714 C 0.0192 0.91911 0.15347 0.0
C715 C 0.00886 0.96111 0.16477 0.0
H716 H 0.91823 0.05316 0.95777 0.0
H717 H 0.7929 0.14466 0.93573 0.0
H718 H 0.85557 0.18629 0.91636 0.0
H719 H 0.94482 0.18975 0.90375 0.0
H720 H 0.06833 0.09436 0.92507 0.0
H721 H 0.00766 0.06094 0.94658 0.0
C722 C 0.90476 0.08245 0.94878 0.0
C723 C 0.85112 0.09544 0.94805 0.0
C724 C 0.94068 0.10531 0.93749 0.0
C725 C 0.83418 0.13418 0.93659 0.0
C726 C 0.86992 0.15775 0.92543 0.0
C727 C 0.95852 0.16269 0.91337 0.0
C728 C 0.01069 0.14447 0.91288 0.0
C729 C 0.9231 0.14278 0.92551 0.0
C730 C 0.02803 0.10849 0.92516 0.0
C731 C 0.99347 0.08943 0.93746 0.0
H732 H 0.79812 0.00352 0.6845 0.0
H733 H 0.67006 0.03487 0.71979 0.0
H734 H 0.63727 0.1036 0.70129 0.0
H735 H 0.63665 0.14532 0.67316 0.0
H736 H 0.75641 0.10525 0.63611 0.0
H737 H 0.80083 0.04965 0.65709 0.0
C738 C 0.76303 0.02531 0.68818 0.0
C739 C 0.73656 0.01337 0.70352 0.0
C740 C 0.74281 0.06336 0.67708 0.0
C741 C 0.69189 0.04325 0.70822 0.0
C742 C 0.67266 0.08243 0.69755 0.0
C743 C 0.67352 0.12578 0.66998 0.0
C744 C 0.69413 0.1298 0.65339 0.0
C745 C 0.69683 0.09168 0.68174 0.0
C746 C 0.74077 0.10322 0.64901 0.0
C747 C 0.76567 0.07106 0.66092 0.0
H748 H 0.81784 0.45528 0.95149 0.0
H749 H 0.76107 0.29876 0.96326 0.0
H750 H 0.83054 0.26031 0.94565 0.0
H751 H 0.90289 0.27153 0.92471 0.0
H752 H 0.96438 0.42774 0.91601 0.0
H753 H 0.89936 0.46532 0.9356 0.0
C754 C 0.82098 0.41271 0.95085 0.0
C755 C 0.78235 0.38058 0.95851 0.0
C756 C 0.86251 0.39046 0.94131 0.0
C757 C 0.78815 0.32526 0.957 0.0
C758 C 0.82855 0.30289 0.94707 0.0
C759 C 0.90273 0.31361 0.92742 0.0
C760 C 0.93791 0.34674 0.91869 0.0
C761 C 0.86514 0.3352 0.93879 0.0
C762 C 0.93781 0.40118 0.92252 0.0
C763 C 0.90021 0.42288 0.9336 0.0
H764 H 0.84793 0.47231 0.19835 0.0
H765 H 0.9253 0.34626 0.17047 0.0
H766 H 0.95679 0.40882 0.14914 0.0
H767 H 0.96604 0.50029 0.13939 0.0
H768 H 0.88586 0.62555 0.16712 0.0
H769 H 0.85141 0.56236 0.18739 0.0
C770 C 0.87151 0.45874 0.18754 0.0
C771 C 0.88475 0.40521 0.18596 0.0
C772 C 0.88897 0.4947 0.17532 0.0
C773 C 0.91467 0.38752 0.17184 0.0
C774 C 0.93278 0.42322 0.15971 0.0
C775 C 0.94072 0.51368 0.14978 0.0
C776 C 0.92904 0.56766 0.15177 0.0
C777 C 0.92072 0.47705 0.16145 0.0
C778 C 0.89565 0.58426 0.16524 0.0
C779 C 0.876 0.54819 0.17692 0.0
H780 H 0.91898 0.51802 0.43498 0.0
H781 H 0.92994 0.67986 0.45311 0.0
H782 H 0.87019 0.70725 0.4306 0.0
H783 H 0.81249 0.68534 0.40649 0.0
H784 H 0.79198 0.523 0.39046 0.0
H785 H 0.85769 0.49544 0.41159 0.0
C786 C 0.90774 0.55918 0.43424 0.0
C787 C 0.92947 0.59677 0.44574 0.0
C788 C 0.87193 0.57457 0.42157 0.0
C789 C 0.91492 0.65009 0.44427 0.0
C790 C 0.88045 0.66585 0.43145 0.0
C791 C 0.82313 0.64401 0.40744 0.0
C792 C 0.79849 0.60622 0.3968 0.0
C793 C 0.85881 0.62847 0.42005 0.0
C794 C 0.81112 0.55266 0.39846 0.0
C795 C 0.84836 0.537 0.41056 0.0
H796 H 0.76992 0.50427 0.71387 0.0
H797 H 0.61414 0.57167 0.71242 0.0
H798 H 0.58399 0.49886 0.69392 0.0
H799 H 0.60591 0.42401 0.67477 0.0
H800 H 0.76144 0.35583 0.67641 0.0
H801 H 0.78743 0.42008 0.69852 0.0
C802 C 0.72918 0.50234 0.70969 0.0
C803 C 0.69442 0.54344 0.71421 0.0
C804 C 0.71219 0.46042 0.69905 0.0
C805 C 0.64154 0.54044 0.70901 0.0
C806 C 0.62439 0.499 0.69837 0.0
C807 C 0.64502 0.42234 0.6803 0.0
C808 C 0.68189 0.38575 0.67376 0.0
C809 C 0.65988 0.45985 0.69282 0.0
C810 C 0.73229 0.38359 0.68118 0.0
C811 C 0.74737 0.42073 0.69371 0.0
H812 H 0.75232 0.6561 0.04587 0.0
H813 H 0.83214 0.5114 0.03164 0.0
H814 H 0.9092 0.53933 0.04816 0.0
H815 H 0.95064 0.60141 0.06878 0.0
H816 H 0.87006 0.74642 0.08224 0.0
H817 H 0.79794 0.72272 0.06314 0.0
C818 C 0.78689 0.63103 0.04595 0.0
C819 C 0.78571 0.58124 0.03767 0.0
C820 C 0.83134 0.64754 0.05528 0.0
C821 C 0.83105 0.54928 0.03825 0.0
C822 C 0.87547 0.56544 0.04758 0.0
C823 C 0.91791 0.6284 0.06725 0.0
C824 C 0.91571 0.67533 0.07715 0.0
C825 C 0.87561 0.614 0.05648 0.0
C826 C 0.87273 0.70968 0.07499 0.0
C827 C 0.83119 0.69611 0.0641 0.0
H828 H 0.68336 0.4491 0.2811 0.0
H829 H 0.84847 0.48731 0.28573 0.0
H830 H 0.82691 0.56597 0.30288 0.0
H831 H 0.76229 0.61495 0.3203 0.0
H832 H 0.59798 0.57241 0.31743 0.0
H833 H 0.61757 0.50552 0.29545 0.0
C834 C 0.71445 0.47546 0.28549 0.0
C835 C 0.7674 0.4622 0.28239 0.0
C836 C 0.70182 0.51973 0.29573 0.0
C837 C 0.80744 0.49639 0.28824 0.0
C838 C 0.79513 0.54136 0.298 0.0
C839 C 0.73062 0.59224 0.31442 0.0
C840 C 0.67885 0.59811 0.32053 0.0
C841 C 0.74261 0.55225 0.30238 0.0
C842 C 0.63817 0.5681 0.31299 0.0
C843 C 0.64944 0.52968 0.30051 0.0
H844 H 0.96202 0.41263 0.56707 0.0
H845 H 0.85347 0.50411 0.53717 0.0
H846 H 0.78312 0.48655 0.5578 0.0
H847 H 0.7512 0.43949 0.58305 0.0
H848 H 0.8595 0.34491 0.61214 0.0
H849 H 0.9314 0.36968 0.59311 0.0
C850 C 0.92287 0.42851 0.56504 0.0
C851 C 0.91268 0.45896 0.55052 0.0
C852 C 0.8827 0.4178 0.5768 0.0
C853 C 0.86221 0.48051 0.54826 0.0
C854 C 0.822 0.47036 0.56001 0.0
C855 C 0.7907 0.42503 0.58542 0.0
C856 C 0.79989 0.39017 0.59894 0.0
C857 C 0.83164 0.4384 0.57419 0.0
C858 C 0.85128 0.37153 0.60176 0.0
C859 C 0.8924 0.38552 0.59086 0.0
H860 H 0.81747 0.50891 0.7982 0.0
H861 H 0.88895 0.64153 0.82459 0.0
H862 H 0.93288 0.58202 0.84435 0.0
H863 H 0.95369 0.49198 0.85333 0.0
H864 H 0.8796 0.3595 0.82745 0.0
H865 H 0.83389 0.41915 0.80833 0.0
C866 C 0.8425 0.52454 0.80835 0.0
C867 C 0.85021 0.57916 0.81 0.0
C868 C 0.86725 0.49021 0.81969 0.0
C869 C 0.88227 0.59942 0.82323 0.0
C870 C 0.90756 0.56549 0.83445 0.0
C871 C 0.92743 0.47627 0.84353 0.0
C872 C 0.92031 0.42152 0.84174 0.0
C873 C 0.90078 0.51078 0.83268 0.0
C874 C 0.88565 0.40161 0.82913 0.0
C875 C 0.8596 0.43562 0.81814 0.0
H876 H 0.27053 0.59486 0.03104 0.0
H877 H 0.36481 0.50886 0.06698 0.0
H878 H 0.30622 0.53605 0.09042 0.0
H879 H 0.23658 0.59511 0.10109 0.0
H880 H 0.14051 0.6801 0.06544 0.0
H881 H 0.19002 0.6413 0.04135 0.0
C882 C 0.27728 0.58131 0.04397 0.0
C883 C 0.32188 0.55049 0.04745 0.0
C884 C 0.24313 0.59682 0.05735 0.0
C885 C 0.33057 0.5327 0.06414 0.0
C886 C 0.29723 0.54832 0.0775 0.0
C887 C 0.22536 0.60349 0.08799 0.0
C888 C 0.18528 0.64026 0.08494 0.0
C889 C 0.25447 0.58175 0.07433 0.0
C890 C 0.17093 0.65131 0.06801 0.0
C891 C 0.19975 0.62976 0.05427 0.0
H892 H 0.30412 0.44938 0.79934 0.0
H893 H 0.16165 0.47498 0.77045 0.0
H894 H 0.11501 0.41106 0.78782 0.0
H895 H 0.11116 0.35786 0.81366 0.0
H896 H 0.25138 0.33306 0.84342 0.0
H897 H 0.30285 0.38587 0.8232 0.0
C898 C 0.26306 0.44039 0.79676 0.0
C899 C 0.23634 0.46723 0.78369 0.0
C900 C 0.23614 0.40373 0.80695 0.0
C901 C 0.1833 0.4547 0.78032 0.0
C902 C 0.15644 0.41834 0.79032 0.0
C903 C 0.15341 0.36256 0.81531 0.0
C904 C 0.17787 0.34144 0.82976 0.0
C905 C 0.18202 0.39385 0.80394 0.0
C906 C 0.23224 0.34829 0.83213 0.0
C907 C 0.26135 0.37905 0.82071 0.0
H908 H 0.34972 0.45387 0.56265 0.0
H909 H 0.36186 0.31891 0.52844 0.0
H910 H 0.42946 0.28075 0.54682 0.0
H911 H 0.48687 0.28715 0.57244 0.0
H912 H 0.47662 0.42523 0.60541 0.0
H913 H 0.40617 0.46049 0.58778 0.0
C914 C 0.36743 0.41629 0.55912 0.0
C915 C 0.35124 0.38961 0.54411 0.0
C916 C 0.40622 0.39484 0.56965 0.0
C917 C 0.37356 0.34023 0.53997 0.0
C918 C 0.4122 0.31838 0.55047 0.0
C919 C 0.46874 0.32466 0.5758 0.0
C920 C 0.48687 0.35367 0.59014 0.0
C921 C 0.42894 0.34541 0.56535 0.0
C922 C 0.46353 0.40245 0.59433 0.0
C923 C 0.42326 0.42263 0.58428 0.0
H924 H 0.44674 0.46979 0.30875 0.0
H925 H 0.37165 0.57638 0.27397 0.0
H926 H 0.40635 0.65226 0.29034 0.0
H927 H 0.45163 0.68755 0.31605 0.0
H928 H 0.52917 0.58081 0.35025 0.0
H929 H 0.50027 0.50529 0.33262 0.0
C930 C 0.43879 0.50974 0.30468 0.0
C931 C 0.40662 0.518 0.29036 0.0
C932 C 0.45894 0.5528 0.3141 0.0
C933 C 0.39655 0.56955 0.28499 0.0
C934 C 0.41607 0.61273 0.29438 0.0
C935 C 0.4626 0.64769 0.31945 0.0
C936 C 0.49219 0.63927 0.33434 0.0
C937 C 0.44627 0.60476 0.30918 0.0
C938 C 0.50665 0.58784 0.33872 0.0
C939 C 0.48991 0.5448 0.32872 0.0
H940 H 0.26684 0.42432 0.95592 0.0
H941 H 0.39364 0.45882 0.92106 0.0
H942 H 0.33899 0.43164 0.89669 0.0
H943 H 0.26125 0.38522 0.88599 0.0
H944 H 0.13506 0.34563 0.92051 0.0
H945 H 0.18219 0.3892 0.94428 0.0
C946 C 0.28167 0.42692 0.94292 0.0
C947 C 0.33394 0.44304 0.94011 0.0
C948 C 0.25023 0.41021 0.92899 0.0
C949 C 0.35341 0.44629 0.92335 0.0
C950 C 0.32228 0.43071 0.90947 0.0
C951 C 0.24345 0.3874 0.89864 0.0
C952 C 0.1953 0.36173 0.90161 0.0
C953 C 0.27147 0.41076 0.91222 0.0
C954 C 0.17216 0.36524 0.91795 0.0
C955 C 0.19942 0.38954 0.93157 0.0
H956 H 0.40603 0.42677 0.70709 0.0
H957 H 0.482 0.5502 0.67882 0.0
H958 H 0.52255 0.4845 0.65959 0.0
H959 H 0.53006 0.39231 0.64945 0.0
H960 H 0.44688 0.27005 0.67616 0.0
H961 H 0.41572 0.33454 0.69751 0.0
C962 C 0.43223 0.43894 0.69688 0.0
C963 C 0.44137 0.49274 0.69429 0.0
C964 C 0.45374 0.40121 0.68559 0.0
C965 C 0.47452 0.50867 0.68091 0.0
C966 C 0.49752 0.47127 0.66994 0.0
C967 C 0.50586 0.37995 0.66014 0.0
C968 C 0.49081 0.32694 0.66141 0.0
C969 C 0.48656 0.41749 0.67195 0.0
C970 C 0.45867 0.31099 0.67503 0.0
C971 C 0.44091 0.34772 0.6872 0.0
H972 H 0.36089 0.53468 0.43817 0.0
H973 H 0.37622 0.67726 0.46886 0.0
H974 H 0.43962 0.71221 0.44836 0.0
H975 H 0.49205 0.70136 0.42191 0.0
H976 H 0.48062 0.55583 0.39262 0.0
H977 H 0.41446 0.52277 0.41248 0.0
C978 C 0.37877 0.57298 0.4406 0.0
C979 C 0.36394 0.60307 0.4551 0.0
C980 C 0.41566 0.59246 0.42895 0.0
C981 C 0.38656 0.65333 0.45773 0.0
C982 C 0.42293 0.67333 0.44604 0.0
C983 C 0.47465 0.66264 0.41984 0.0
C984 C 0.49094 0.63103 0.40587 0.0
C985 C 0.43768 0.64326 0.43158 0.0
C986 C 0.46872 0.58069 0.40337 0.0
C987 C 0.431 0.56176 0.41471 0.0
H988 H 0.20123 0.55034 0.2107 0.0
H989 H 0.31079 0.46897 0.17697 0.0
H990 H 0.28962 0.5294 0.15416 0.0
H991 H 0.23099 0.59784 0.14267 0.0
H992 H 0.12884 0.68445 0.17705 0.0
H993 H 0.15837 0.63096 0.20105 0.0
C994 C 0.22206 0.54638 0.19863 0.0
C995 C 0.25607 0.50323 0.19554 0.0
C996 C 0.21133 0.5826 0.18566 0.0
C997 C 0.28226 0.49975 0.17961 0.0
C998 C 0.27079 0.53485 0.16654 0.0
C999 C 0.21693 0.60616 0.15558 0.0
C1000 C 0.17813 0.64476 0.15825 0.0
C1001 C 0.23399 0.57522 0.16924 0.0
C1002 C 0.15939 0.65524 0.17487 0.0
C1003 C 0.17572 0.62421 0.18851 0.0
loop_
_geom_bond_atom_site_label_1
_geom_bond_atom_site_label_2
_geom_bond_distance
_geom_bond_site_symmetry_2
_ccdc_geom_bond_type
C0 C1 1.384 . S
C0 C2 1.384 . S
C0 H28 0.931 1_565 S
C1 C0 1.384 . S
C1 C4 1.382 . S
C2 C0 1.384 . S
C2 C3 1.381 . S
C2 H29 0.930 1_565 S
C3 C2 1.381 . S
C3 C5 1.381 . S
C3 C6 1.487 . S
C4 C1 1.382 . S
C4 C5 1.387 . S
C4 H30 0.930 . S
C5 C3 1.381 . S
C5 C4 1.387 . S
C5 H31 0.931 . S
C6 C3 1.487 . S
C6 C13 1.399 1_565 S
C6 N44 1.343 . S
C7 C8 1.384 . S
C7 C9 1.384 . S
C7 H32 0.931 1_545 S
C8 C7 1.384 . S
C8 C11 1.382 . S
C9 C7 1.384 . S
C9 C10 1.381 . S
C9 H33 0.930 1_545 S
C10 C9 1.381 . S
C10 C12 1.381 . S
C10 C13 1.487 . S
C11 C8 1.382 . S
C11 C12 1.387 . S
C11 H34 0.930 . S
C12 C10 1.381 . S
C12 C11 1.387 . S
C12 H35 0.931 . S
C13 C6 1.399 1_545 S
C13 C10 1.487 . S
C13 N45 1.343 . S
C14 C15 1.384 . S
C14 C16 1.384 . S
C14 H36 0.931 1_545 S
C15 C14 1.384 . S
C15 C18 1.382 . S
C16 C14 1.384 . S
C16 C17 1.381 . S
C16 H37 0.930 1_545 S
C17 C16 1.381 . S
C17 C19 1.381 . S
C17 C20 1.487 . S
C18 C15 1.382 . S
C18 C19 1.387 . S
C18 H38 0.930 . S
C19 C17 1.381 . S
C19 C18 1.387 . S
C19 H39 0.931 . S
C20 C17 1.487 . S
C20 C27 1.399 1_545 S
C20 N45 1.343 1_655 S
C21 C22 1.384 . S
C21 C23 1.384 . S
C21 H40 0.931 1_565 S
C22 C21 1.384 . S
C22 C25 1.382 . S
C23 C21 1.384 . S
C23 C24 1.381 . S
C23 H41 0.930 1_565 S
C24 C23 1.381 . S
C24 C26 1.381 . S
C24 C27 1.487 . S
C25 C22 1.382 . S
C25 C26 1.387 . S
C25 H42 0.930 . S
C26 C24 1.381 . S
C26 C25 1.387 . S
C26 H43 0.931 . S
C27 C20 1.399 1_565 S
C27 C24 1.487 . S
C27 N44 1.343 1_655 S
H28 C0 0.931 1_545 S
H29 C2 0.930 1_545 S
H30 C4 0.930 . S
H31 C5 0.931 . S
H32 C7 0.931 1_565 S
H33 C9 0.930 1_565 S
H34 C11 0.930 . S
H35 C12 0.931 . S
H36 C14 0.931 1_565 S
H37 C16 0.930 1_565 S
H38 C18 0.930 . S
H39 C19 0.931 . S
H40 C21 0.931 1_545 S
H41 C23 0.930 1_545 S
H42 C25 0.930 . S
H43 C26 0.931 . S
N44 C6 1.343 . S
N44 C27 1.343 1_455 S
N45 C13 1.343 . S
N45 C20 1.343 1_455 S
C46 C47 1.384 . S
C46 C48 1.384 . S
C46 H74 0.931 . S
C47 C46 1.384 . S
C47 C50 1.382 . S
C48 C46 1.384 . S
C48 C49 1.381 . S
C48 H75 0.930 . S
C49 C48 1.381 . S
C49 C51 1.381 . S
C49 C52 1.487 . S
C50 C47 1.382 . S
C50 C51 1.387 . S
C50 H76 0.930 . S
C51 C49 1.381 . S
C51 C50 1.387 . S
C51 H77 0.931 . S
C52 C49 1.487 . S
C52 C59 1.399 . S
C52 N90 1.343 . S
C53 C54 1.384 . S
C53 C55 1.384 . S
C53 H78 0.931 . S
C54 C53 1.384 . S
C54 C57 1.382 . S
C55 C53 1.384 . S
C55 C56 1.381 . S
C55 H79 0.930 . S
C56 C55 1.381 . S
C56 C58 1.381 . S
C56 C59 1.487 . S
C57 C54 1.382 . S
C57 C58 1.387 . S
C57 H80 0.930 . S
C58 C56 1.381 . S
C58 C57 1.387 . S
C58 H81 0.931 . S
C59 C52 1.399 . S
C59 C56 1.487 . S
C59 N91 1.343 . S
C60 C61 1.384 . S
C60 C62 1.384 . S
C60 H82 0.931 . S
C61 C60 1.384 . S
C61 C64 1.382 . S
C62 C60 1.384 . S
C62 C63 1.381 . S
C62 H83 0.930 . S
C63 C62 1.381 . S
C63 C65 1.381 . S
C63 C66 1.487 . S
C64 C61 1.382 . S
C64 C65 1.387 . S
C64 H84 0.930 . S
C65 C63 1.381 . S
C65 C64 1.387 . S
C65 H85 0.931 . S
C66 C63 1.487 . S
C66 C73 1.399 . S
C66 N91 1.343 . S
C67 C68 1.384 . S
C67 C69 1.384 . S
C67 H86 0.931 . S
C68 C67 1.384 . S
C68 C71 1.382 . S
C69 C67 1.384 . S
C69 C70 1.381 . S
C69 H87 0.930 . S
C70 C69 1.381 . S
C70 C72 1.381 . S
C70 C73 1.487 . S
C71 C68 1.382 . S
C71 C72 1.387 . S
C71 H88 0.930 . S
C72 C70 1.381 . S
C72 C71 1.387 . S
C72 H89 0.931 . S
C73 C66 1.399 . S
C73 C70 1.487 . S
C73 N90 1.343 . S
H74 C46 0.931 . S
H75 C48 0.930 . S
H76 C50 0.930 . S
H77 C51 0.931 . S
H78 C53 0.931 . S
H79 C55 0.930 . S
H80 C57 0.930 . S
H81 C58 0.931 . S
H82 C60 0.931 . S
H83 C62 0.930 . S
H84 C64 0.930 . S
H85 C65 0.931 . S
H86 C67 0.931 . S
H87 C69 0.930 . S
H88 C71 0.930 . S
H89 C72 0.931 . S
N90 C52 1.343 . S
N90 C73 1.343 . S
N91 C59 1.343 . S
N91 C66 1.343 . S
C92 C93 1.384 . S
C92 C94 1.384 . S
C92 H120 0.931 1_545 S
C93 C92 1.384 . S
C93 C96 1.382 . S
C94 C92 1.384 . S
C94 C95 1.381 . S
C94 H121 0.930 1_545 S
C95 C94 1.381 . S
C95 C97 1.381 . S
C95 C98 1.487 . S
C96 C93 1.382 . S
C96 C97 1.387 . S
C96 H122 0.930 . S
C97 C95 1.381 . S
C97 C96 1.387 . S
C97 H123 0.931 . S
C98 C95 1.487 . S
C98 C105 1.399 1_546 S
C98 N136 1.343 . S
C99 C100 1.384 . S
C99 C101 1.384 . S
C99 H124 0.931 1_565 S
C100 C99 1.384 . S
C100 C103 1.382 . S
C101 C99 1.384 . S
C101 C102 1.381 . S
C101 H125 0.930 1_565 S
C102 C101 1.381 . S
C102 C104 1.381 . S
C102 C105 1.487 . S
C103 C100 1.382 . S
C103 C104 1.387 . S
C103 H126 0.930 . S
C104 C102 1.381 . S
C104 C103 1.387 . S
C104 H127 0.931 . S
C105 C98 1.399 1_564 S
C105 C102 1.487 . S
C105 N137 1.343 . S
C106 C107 1.384 . S
C106 C108 1.384 . S
C106 H128 0.931 1_565 S
C107 C106 1.384 . S
C107 C110 1.382 . S
C108 C106 1.384 . S
C108 C109 1.381 . S
C108 H129 0.930 1_565 S
C109 C108 1.381 . S
C109 C111 1.381 . S
C109 C112 1.487 . S
C110 C107 1.382 . S
C110 C111 1.387 . S
C110 H130 0.930 . S
C111 C109 1.381 . S
C111 C110 1.387 . S
C111 H131 0.931 . S
C112 C109 1.487 . S
C112 C119 1.399 1_564 S
C112 N137 1.343 . S
C113 C114 1.384 . S
C113 C115 1.384 . S
C113 H132 0.931 1_545 S
C114 C113 1.384 . S
C114 C117 1.382 . S
C115 C113 1.384 . S
C115 C116 1.381 . S
C115 H133 0.930 1_545 S
C116 C115 1.381 . S
C116 C118 1.381 . S
C116 C119 1.487 . S
C117 C114 1.382 . S
C117 C118 1.387 . S
C117 H134 0.930 . S
C118 C116 1.381 . S
C118 C117 1.387 . S
C118 H135 0.931 . S
C119 C112 1.399 1_546 S
C119 C116 1.487 . S
C119 N136 1.343 . S
H120 C92 0.931 1_565 S
H121 C94 0.930 1_565 S
H122 C96 0.930 . S
H123 C97 0.931 . S
H124 C99 0.931 1_545 S
H125 C101 0.930 1_545 S
H126 C103 0.930 . S
H127 C104 0.931 . S
H128 C106 0.931 1_545 S
H129 C108 0.930 1_545 S
H130 C110 0.930 . S
H131 C111 0.931 . S
H132 C113 0.931 1_565 S
H133 C115 0.930 1_565 S
H134 C117 0.930 . S
H135 C118 0.931 . S
N136 C98 1.343 . S
N136 C119 1.343 . S
N137 C105 1.343 . S
N137 C112 1.343 . S
C138 C139 1.384 . S
C138 C140 1.384 . S
C138 H166 0.931 . S
C139 C138 1.384 . S
C139 C142 1.382 . S
C140 C138 1.384 . S
C140 C141 1.381 . S
C140 H167 0.930 . S
C141 C140 1.381 . S
C141 C143 1.381 . S
C141 C144 1.487 . S
C142 C139 1.382 . S
C142 C143 1.387 . S
C142 H168 0.930 . S
C143 C141 1.381 . S
C143 C142 1.387 . S
C143 H169 0.931 . S
C144 C141 1.487 . S
C144 C151 1.399 . S
C144 N182 1.343 . S
C145 C146 1.384 . S
C145 C147 1.384 . S
C145 H170 0.931 . S
C146 C145 1.384 . S
C146 C149 1.382 . S
C147 C145 1.384 . S
C147 C148 1.381 . S
C147 H171 0.930 . S
C148 C147 1.381 . S
C148 C150 1.381 . S
C148 C151 1.487 . S
C149 C146 1.382 . S
C149 C150 1.387 . S
C149 H172 0.930 . S
C150 C148 1.381 . S
C150 C149 1.387 . S
C150 H173 0.931 . S
C151 C144 1.399 . S
C151 C148 1.487 . S
C151 N183 1.343 . S
C152 C153 1.384 . S
C152 C154 1.384 . S
C152 H174 0.931 . S
C153 C152 1.384 . S
C153 C156 1.382 . S
C154 C152 1.384 . S
C154 C155 1.381 . S
C154 H175 0.930 . S
C155 C154 1.381 . S
C155 C157 1.381 . S
C155 C158 1.487 . S
C156 C153 1.382 . S
C156 C157 1.387 . S
C156 H176 0.930 . S
C157 C155 1.381 . S
C157 C156 1.387 . S
C157 H177 0.931 . S
C158 C155 1.487 . S
C158 C165 1.399 . S
C158 N183 1.343 . S
C159 C160 1.384 . S
C159 C161 1.384 . S
C159 H178 0.931 . S
C160 C159 1.384 . S
C160 C163 1.382 . S
C161 C159 1.384 . S
C161 C162 1.381 . S
C161 H179 0.930 . S
C162 C161 1.381 . S
C162 C164 1.381 . S
C162 C165 1.487 . S
C163 C160 1.382 . S
C163 C164 1.387 . S
C163 H180 0.930 . S
C164 C162 1.381 . S
C164 C163 1.387 . S
C164 H181 0.931 . S
C165 C158 1.399 . S
C165 C162 1.487 . S
C165 N182 1.343 . S
H166 C138 0.931 . S
H167 C140 0.930 . S
H168 C142 0.930 . S
H169 C143 0.931 . S
H170 C145 0.931 . S
H171 C147 0.930 . S
H172 C149 0.930 . S
H173 C150 0.931 . S
H174 C152 0.931 . S
H175 C154 0.930 . S
H176 C156 0.930 . S
H177 C157 0.931 . S
H178 C159 0.931 . S
H179 C161 0.930 . S
H180 C163 0.930 . S
H181 C164 0.931 . S
N182 C144 1.343 . S
N182 C165 1.343 . S
N183 C151 1.343 . S
N183 C158 1.343 . S
C184 C185 1.384 1_545 S
C184 C186 1.384 . S
C184 H212 0.931 1_545 S
C185 C184 1.384 1_565 S
C185 C188 1.376 1_565 S
C186 C184 1.384 . S
C186 C187 1.381 . S
C186 H213 0.930 . S
C187 C186 1.381 . S
C187 C189 1.381 . S
C187 C190 1.487 . S
C188 C185 1.376 1_545 S
C188 C189 1.387 . S
C188 H214 0.930 . S
C189 C187 1.381 . S
C189 C188 1.387 . S
C189 H215 0.931 . S
C190 C187 1.487 . S
C190 C197 1.399 . S
C190 N228 1.343 . S
C191 C192 1.384 . S
C191 C193 1.384 . S
C191 H216 0.931 1_545 S
C192 C191 1.384 . S
C192 C195 1.382 . S
C193 C191 1.384 . S
C193 C194 1.381 . S
C193 H217 0.930 . S
C194 C193 1.381 . S
C194 C196 1.381 . S
C194 C197 1.487 . S
C195 C192 1.382 . S
C195 C196 1.387 . S
C195 H218 0.930 . S
C196 C194 1.381 . S
C196 C195 1.387 . S
C196 H219 0.931 . S
C197 C190 1.399 . S
C197 C194 1.487 . S
C197 N229 1.343 . S
C198 C199 1.384 . S
C198 C200 1.384 . S
C198 H220 0.931 . S
C199 C198 1.384 . S
C199 C202 1.382 . S
C200 C198 1.384 . S
C200 C201 1.381 . S
C200 H221 0.930 . S
C201 C200 1.381 . S
C201 C203 1.381 . S
C201 C204 1.487 . S
C202 C199 1.382 . S
C202 C203 1.387 . S
C202 H222 0.930 . S
C203 C201 1.381 . S
C203 C202 1.387 . S
C203 H223 0.931 . S
C204 C201 1.487 . S
C204 C211 1.399 . S
C204 N229 1.343 . S
C205 C206 1.384 . S
C205 C207 1.384 . S
C205 H224 0.931 . S
C206 C205 1.384 . S
C206 C209 1.382 . S
C207 C205 1.384 . S
C207 C208 1.381 . S
C207 H225 0.930 . S
C208 C207 1.381 . S
C208 C210 1.381 . S
C208 C211 1.487 . S
C209 C206 1.382 . S
C209 C210 1.387 . S
C209 H226 0.930 . S
C210 C208 1.381 . S
C210 C209 1.387 . S
C210 H227 0.931 . S
C211 C204 1.399 . S
C211 C208 1.487 . S
C211 N228 1.343 . S
H212 C184 0.931 1_565 S
H213 C186 0.930 . S
H214 C188 0.930 . S
H215 C189 0.931 . S
H216 C191 0.931 1_565 S
H217 C193 0.930 . S
H218 C195 0.930 . S
H219 C196 0.931 . S
H220 C198 0.931 . S
H221 C200 0.930 . S
H222 C202 0.930 . S
H223 C203 0.931 . S
H224 C205 0.931 . S
H225 C207 0.930 . S
H226 C209 0.930 . S
H227 C210 0.931 . S
N228 C190 1.343 . S
N228 C211 1.343 . S
N229 C197 1.343 . S
N229 C204 1.343 . S
C230 C231 1.384 . S
C230 C232 1.384 . S
C230 H258 0.931 1_565 S
C231 C230 1.384 . S
C231 C234 1.382 . S
C232 C230 1.384 . S
C232 C233 1.381 . S
C232 H259 0.930 . S
C233 C232 1.381 . S
C233 C235 1.381 . S
C233 C236 1.487 . S
C234 C231 1.382 . S
C234 C235 1.387 . S
C234 H260 0.930 . S
C235 C233 1.381 . S
C235 C234 1.387 . S
C235 H261 0.931 . S
C236 C233 1.487 . S
C236 C243 1.399 . S
C236 N274 1.343 . S
C237 C238 1.384 1_565 S
C237 C239 1.384 . S
C237 H262 0.931 1_565 S
C238 C237 1.384 1_545 S
C238 C241 1.376 1_545 S
C239 C237 1.384 . S
C239 C240 1.381 . S
C239 H263 0.930 . S
C240 C239 1.381 . S
C240 C242 1.381 . S
C240 C243 1.487 . S
C241 C238 1.376 1_565 S
C241 C242 1.387 . S
C241 H264 0.930 . S
C242 C240 1.381 . S
C242 C241 1.387 . S
C242 H265 0.931 . S
C243 C236 1.399 . S
C243 C240 1.487 . S
C243 N275 1.343 . S
C244 C245 1.384 . S
C244 C246 1.384 . S
C244 H266 0.931 . S
C245 C244 1.384 . S
C245 C248 1.382 . S
C246 C244 1.384 . S
C246 C247 1.381 . S
C246 H267 0.930 . S
C247 C246 1.381 . S
C247 C249 1.381 . S
C247 C250 1.487 . S
C248 C245 1.382 . S
C248 C249 1.387 . S
C248 H268 0.930 . S
C249 C247 1.381 . S
C249 C248 1.387 . S
C249 H269 0.931 . S
C250 C247 1.487 . S
C250 C257 1.399 . S
C250 N275 1.343 . S
C251 C252 1.384 . S
C251 C253 1.384 . S
C251 H270 0.931 . S
C252 C251 1.384 . S
C252 C255 1.382 . S
C253 C251 1.384 . S
C253 C254 1.381 . S
C253 H271 0.930 . S
C254 C253 1.381 . S
C254 C256 1.381 . S
C254 C257 1.487 . S
C255 C252 1.382 . S
C255 C256 1.387 . S
C255 H272 0.930 . S
C256 C254 1.381 . S
C256 C255 1.387 . S
C256 H273 0.931 . S
C257 C250 1.399 . S
C257 C254 1.487 . S
C257 N274 1.343 . S
H258 C230 0.931 1_545 S
H259 C232 0.930 . S
H260 C234 0.930 . S
H261 C235 0.931 . S
H262 C237 0.931 1_545 S
H263 C239 0.930 . S
H264 C241 0.930 . S
H265 C242 0.931 . S
H266 C244 0.931 . S
H267 C246 0.930 . S
H268 C248 0.930 . S
H269 C249 0.931 . S
H270 C251 0.931 . S
H271 C253 0.930 . S
H272 C255 0.930 . S
H273 C256 0.931 . S
N274 C236 1.343 . S
N274 C257 1.343 . S
N275 C243 1.343 . S
N275 C250 1.343 . S
C276 C277 1.384 . S
C276 C278 1.384 . S
C276 H304 0.931 . S
C277 C276 1.384 . S
C277 C280 1.382 . S
C278 C276 1.384 . S
C278 C279 1.381 . S
C278 H305 0.930 . S
C279 C278 1.381 . S
C279 C281 1.381 . S
C279 C282 1.487 . S
C280 C277 1.382 . S
C280 C281 1.387 . S
C280 H306 0.930 . S
C281 C279 1.381 . S
C281 C280 1.387 . S
C281 H307 0.931 . S
C282 C279 1.487 . S
C282 C289 1.399 1_556 S
C282 N320 1.343 . S
C283 C284 1.384 . S
C283 C285 1.384 . S
C283 H308 0.931 . S
C284 C283 1.384 . S
C284 C287 1.382 . S
C285 C283 1.384 . S
C285 C286 1.381 . S
C285 H309 0.930 . S
C286 C285 1.381 . S
C286 C288 1.381 . S
C286 C289 1.487 . S
C287 C284 1.382 . S
C287 C288 1.387 . S
C287 H310 0.930 . S
C288 C286 1.381 . S
C288 C287 1.387 . S
C288 H311 0.931 . S
C289 C282 1.399 1_554 S
C289 C286 1.487 . S
C289 N321 1.343 . S
C290 C291 1.384 . S
C290 C292 1.384 . S
C290 H312 0.931 . S
C291 C290 1.384 . S
C291 C294 1.382 . S
C292 C290 1.384 . S
C292 C293 1.381 . S
C292 H313 0.930 . S
C293 C292 1.381 . S
C293 C295 1.381 . S
C293 C296 1.487 . S
C294 C291 1.382 . S
C294 C295 1.387 . S
C294 H314 0.930 . S
C295 C293 1.381 . S
C295 C294 1.387 . S
C295 H315 0.931 . S
C296 C293 1.487 . S
C296 C303 1.399 1_554 S
C296 N321 1.343 . S
C297 C298 1.384 . S
C297 C299 1.384 . S
C297 H316 0.931 . S
C298 C297 1.384 . S
C298 C301 1.382 . S
C299 C297 1.384 . S
C299 C300 1.381 . S
C299 H317 0.930 . S
C300 C299 1.381 . S
C300 C302 1.381 . S
C300 C303 1.487 . S
C301 C298 1.382 . S
C301 C302 1.387 . S
C301 H318 0.930 . S
C302 C300 1.381 . S
C302 C301 1.387 . S
C302 H319 0.931 . S
C303 C296 1.399 1_556 S
C303 C300 1.487 . S
C303 N320 1.343 . S
H304 C276 0.931 . S
H305 C278 0.930 . S
H306 C280 0.930 . S
H307 C281 0.931 . S
H308 C283 0.931 . S
H309 C285 0.930 . S
H310 C287 0.930 . S
H311 C288 0.931 . S
H312 C290 0.931 . S
H313 C292 0.930 . S
H314 C294 0.930 . S
H315 C295 0.931 . S
H316 C297 0.931 . S
H317 C299 0.930 . S
H318 C301 0.930 . S
H319 C302 0.931 . S
N320 C282 1.343 . S
N320 C303 1.343 . S
N321 C289 1.343 . S
N321 C296 1.343 . S
C322 C323 1.384 . S
C322 C324 1.384 1_655 S
C322 H350 0.931 . S
C323 C322 1.384 . S
C323 C326 1.382 1_655 S
C324 C322 1.384 1_455 S
C324 C325 1.381 . S
C324 H351 0.930 . S
C325 C324 1.381 . S
C325 C327 1.381 . S
C325 C328 1.487 . S
C326 C323 1.382 1_455 S
C326 C327 1.387 . S
C326 H352 0.930 . S
C327 C325 1.381 . S
C327 C326 1.387 . S
C327 H353 0.931 . S
C328 C325 1.487 . S
C328 C335 1.399 . S
C328 N366 1.343 . S
C329 C330 1.384 . S
C329 C331 1.384 1_655 S
C329 H354 0.931 . S
C330 C329 1.384 . S
C330 C333 1.382 1_655 S
C331 C329 1.384 1_455 S
C331 C332 1.381 . S
C331 H355 0.930 . S
C332 C331 1.381 . S
C332 C334 1.381 . S
C332 C335 1.487 . S
C333 C330 1.382 1_455 S
C333 C334 1.387 . S
C333 H356 0.930 . S
C334 C332 1.381 . S
C334 C333 1.387 . S
C334 H357 0.931 . S
C335 C328 1.399 . S
C335 C332 1.487 . S
C335 N367 1.343 . S
C336 C337 1.384 . S
C336 C338 1.384 . S
C336 H358 0.931 . S
C337 C336 1.384 . S
C337 C340 1.382 . S
C338 C336 1.384 . S
C338 C339 1.381 . S
C338 H359 0.930 . S
C339 C338 1.381 . S
C339 C341 1.381 . S
C339 C342 1.487 . S
C340 C337 1.382 . S
C340 C341 1.387 . S
C340 H360 0.930 . S
C341 C339 1.381 . S
C341 C340 1.387 . S
C341 H361 0.931 . S
C342 C339 1.487 . S
C342 C349 1.399 . S
C342 N367 1.343 . S
C343 C344 1.384 . S
C343 C345 1.384 . S
C343 H362 0.931 . S
C344 C343 1.384 . S
C344 C347 1.382 . S
C345 C343 1.384 . S
C345 C346 1.381 . S
C345 H363 0.930 . S
C346 C345 1.381 . S
C346 C348 1.381 . S
C346 C349 1.487 . S
C347 C344 1.382 . S
C347 C348 1.387 . S
C347 H364 0.930 . S
C348 C346 1.381 . S
C348 C347 1.387 . S
C348 H365 0.931 . S
C349 C342 1.399 . S
C349 C346 1.487 . S
C349 N366 1.343 . S
H350 C322 0.931 . S
H351 C324 0.930 . S
H352 C326 0.930 . S
H353 C327 0.931 . S
H354 C329 0.931 . S
H355 C331 0.930 . S
H356 C333 0.930 . S
H357 C334 0.931 . S
H358 C336 0.931 . S
H359 C338 0.930 . S
H360 C340 0.930 . S
H361 C341 0.931 . S
H362 C343 0.931 . S
H363 C345 0.930 . S
H364 C347 0.930 . S
H365 C348 0.931 . S
N366 C328 1.343 . S
N366 C349 1.343 . S
N367 C335 1.343 . S
N367 C342 1.343 . S
C368 O395 1.312 . S
C368 O396 1.208 . S
C369 O390 1.331 1_655 S
C369 O393 1.244 . S
C370 O392 1.264 1_655 S
C370 O394 1.273 . S
Mg371 O373 1.936 . S
Mg371 O380 2.081 . S
Mg371 O382 2.023 . S
Mg371 O386 2.031 . S
Mg371 O395 2.291 . S
Mg372 O373 1.963 . S
Mg372 O383 1.942 . S
Mg372 O384 1.955 . S
Mg372 O391 1.986 . S
O373 Mg371 1.936 . S
O373 Mg372 1.963 . S
O373 Mg374 1.915 . S
Mg374 O373 1.915 . S
Mg374 O375 1.915 . S
Mg374 O379 2.013 . S
Mg374 O385 2.114 . S
Mg374 O389 2.013 . S
Mg374 O395 2.114 . S
O375 Mg374 1.915 . S
O375 Mg376 1.936 . S
O375 Mg377 1.963 1_455 S
Mg376 O375 1.936 . S
Mg376 O385 2.291 . S
Mg376 O390 2.081 . S
Mg376 O392 2.023 . S
Mg376 O396 2.031 . S
Mg377 O375 1.963 1_655 S
Mg377 O381 1.986 . S
Mg377 O393 1.942 . S
Mg377 O394 1.955 . S
C378 O389 1.191 . S
C378 O391 1.307 . S
O379 Mg374 2.013 . S
O379 C398 1.191 . S
O380 Mg371 2.081 . S
O380 C388 1.331 . S
O381 Mg377 1.986 . S
O381 C398 1.307 1_655 S
O382 Mg371 2.023 . S
O382 C397 1.264 . S
O383 Mg372 1.942 . S
O383 C388 1.244 . S
O384 Mg372 1.955 . S
O384 C397 1.273 . S
O385 Mg374 2.114 . S
O385 Mg376 2.291 . S
O385 C387 1.312 . S
O386 Mg371 2.031 . S
O386 C387 1.208 . S
C387 O385 1.312 . S
C387 O386 1.208 . S
C388 O380 1.331 . S
C388 O383 1.244 . S
O389 Mg374 2.013 . S
O389 C378 1.191 . S
O390 C369 1.331 1_455 S
O390 Mg376 2.081 . S
O391 Mg372 1.986 . S
O391 C378 1.307 . S
O392 C370 1.264 1_455 S
O392 Mg376 2.023 . S
O393 C369 1.244 . S
O393 Mg377 1.942 . S
O394 C370 1.273 . S
O394 Mg377 1.955 . S
O395 C368 1.312 . S
O395 Mg371 2.291 . S
O395 Mg374 2.114 . S
O396 C368 1.208 . S
O396 Mg376 2.031 . S
C397 O382 1.264 . S
C397 O384 1.273 . S
C398 O379 1.191 . S
C398 O381 1.307 1_455 S
C399 O426 1.312 . S
C399 O427 1.208 . S
C400 O421 1.331 . S
C400 O424 1.244 . S
C401 O423 1.264 . S
C401 O425 1.273 . S
Mg402 O404 1.936 . S
Mg402 O411 2.081 . S
Mg402 O413 2.023 . S
Mg402 O417 2.031 . S
Mg402 O426 2.291 . S
Mg403 O404 1.963 . S
Mg403 O414 1.942 . S
Mg403 O415 1.955 . S
Mg403 O422 1.986 . S
O404 Mg402 1.936 . S
O404 Mg403 1.963 . S
O404 Mg405 1.915 . S
Mg405 O404 1.915 . S
Mg405 O406 1.915 . S
Mg405 O410 2.013 . S
Mg405 O416 2.114 . S
Mg405 O420 2.013 . S
Mg405 O426 2.114 . S
O406 Mg405 1.915 . S
O406 Mg407 1.936 . S
O406 Mg408 1.963 . S
Mg407 O406 1.936 . S
Mg407 O416 2.291 . S
Mg407 O421 2.081 . S
Mg407 O423 2.023 . S
Mg407 O427 2.031 . S
Mg408 O406 1.963 . S
Mg408 O412 1.986 . S
Mg408 O424 1.942 . S
Mg408 O425 1.955 . S
C409 O420 1.191 . S
C409 O422 1.307 . S
O410 Mg405 2.013 . S
O410 C429 1.191 . S
O411 Mg402 2.081 . S
O411 C419 1.331 . S
O412 Mg408 1.986 . S
O412 C429 1.307 . S
O413 Mg402 2.023 . S
O413 C428 1.264 . S
O414 Mg403 1.942 . S
O414 C419 1.244 . S
O415 Mg403 1.955 . S
O415 C428 1.273 . S
O416 Mg405 2.114 . S
O416 Mg407 2.291 . S
O416 C418 1.312 . S
O417 Mg402 2.031 . S
O417 C418 1.208 . S
C418 O416 1.312 . S
C418 O417 1.208 . S
C419 O411 1.331 . S
C419 O414 1.244 . S
O420 Mg405 2.013 . S
O420 C409 1.191 . S
O421 C400 1.331 . S
O421 Mg407 2.081 . S
O422 Mg403 1.986 . S
O422 C409 1.307 . S
O423 C401 1.264 . S
O423 Mg407 2.023 . S
O424 C400 1.244 . S
O424 Mg408 1.942 . S
O425 C401 1.273 . S
O425 Mg408 1.955 . S
O426 C399 1.312 . S
O426 Mg402 2.291 . S
O426 Mg405 2.114 . S
O427 C399 1.208 . S
O427 Mg407 2.031 . S
C428 O413 1.264 . S
C428 O415 1.273 . S
C429 O410 1.191 . S
C429 O412 1.307 . S
C430 O457 1.312 . S
C430 O458 1.208 . S
C431 O452 1.331 . S
C431 O455 1.244 . S
C432 O454 1.264 . S
C432 O456 1.273 . S
Mg433 O435 1.936 . S
Mg433 O442 2.081 . S
Mg433 O444 2.023 . S
Mg433 O448 2.031 . S
Mg433 O457 2.291 . S
Mg434 O435 1.963 . S
Mg434 O445 1.942 . S
Mg434 O446 1.955 . S
Mg434 O453 1.986 . S
O435 Mg433 1.936 . S
O435 Mg434 1.963 . S
O435 Mg436 1.915 . S
Mg436 O435 1.915 . S
Mg436 O437 1.915 . S
Mg436 O441 2.013 . S
Mg436 O447 2.114 . S
Mg436 O451 2.013 . S
Mg436 O457 2.114 . S
O437 Mg436 1.915 . S
O437 Mg438 1.936 . S
O437 Mg439 1.963 . S
Mg438 O437 1.936 . S
Mg438 O447 2.291 . S
Mg438 O452 2.081 . S
Mg438 O454 2.023 . S
Mg438 O458 2.031 . S
Mg439 O437 1.963 . S
Mg439 O443 1.986 . S
Mg439 O455 1.942 . S
Mg439 O456 1.955 . S
C440 O451 1.191 . S
C440 O453 1.307 . S
O441 Mg436 2.013 . S
O441 C460 1.191 . S
O442 Mg433 2.081 . S
O442 C450 1.331 . S
O443 Mg439 1.986 . S
O443 C460 1.307 . S
O444 Mg433 2.023 . S
O444 C459 1.264 . S
O445 Mg434 1.942 . S
O445 C450 1.244 . S
O446 Mg434 1.955 . S
O446 C459 1.273 . S
O447 Mg436 2.114 . S
O447 Mg438 2.291 . S
O447 C449 1.312 . S
O448 Mg433 2.031 . S
O448 C449 1.208 . S
C449 O447 1.312 . S
C449 O448 1.208 . S
C450 O442 1.331 . S
C450 O445 1.244 . S
O451 Mg436 2.013 . S
O451 C440 1.191 . S
O452 C431 1.331 . S
O452 Mg438 2.081 . S
O453 Mg434 1.986 . S
O453 C440 1.307 . S
O454 C432 1.264 . S
O454 Mg438 2.023 . S
O455 C431 1.244 . S
O455 Mg439 1.942 . S
O456 C432 1.273 . S
O456 Mg439 1.955 . S
O457 C430 1.312 . S
O457 Mg433 2.291 . S
O457 Mg436 2.114 . S
O458 C430 1.208 . S
O458 Mg438 2.031 . S
C459 O444 1.264 . S
C459 O446 1.273 . S
C460 O441 1.191 . S
C460 O443 1.307 . S
C461 O488 1.312 . S
C461 O489 1.208 . S
C462 O483 1.331 . S
C462 O486 1.244 . S
C463 O485 1.264 . S
C463 O487 1.273 . S
Mg464 O466 1.936 . S
Mg464 O473 2.081 . S
Mg464 O475 2.023 . S
Mg464 O479 2.031 . S
Mg464 O488 2.291 . S
Mg465 O466 1.963 1_655 S
Mg465 O476 1.942 . S
Mg465 O477 1.955 . S
Mg465 O484 1.986 . S
O466 Mg464 1.936 . S
O466 Mg465 1.963 1_455 S
O466 Mg467 1.915 . S
Mg467 O466 1.915 . S
Mg467 O468 1.915 . S
Mg467 O472 2.013 . S
Mg467 O478 2.114 . S
Mg467 O482 2.013 . S
Mg467 O488 2.114 . S
O468 Mg467 1.915 . S
O468 Mg469 1.936 . S
O468 Mg470 1.963 . S
Mg469 O468 1.936 . S
Mg469 O478 2.291 . S
Mg469 O483 2.081 . S
Mg469 O485 2.023 . S
Mg469 O489 2.031 . S
Mg470 O468 1.963 . S
Mg470 O474 1.986 . S
Mg470 O486 1.942 . S
Mg470 O487 1.955 . S
C471 O482 1.191 . S
C471 O484 1.307 1_455 S
O472 Mg467 2.013 . S
O472 C491 1.191 . S
O473 Mg464 2.081 . S
O473 C481 1.331 1_455 S
O474 Mg470 1.986 . S
O474 C491 1.307 . S
O475 Mg464 2.023 . S
O475 C490 1.264 1_455 S
O476 Mg465 1.942 . S
O476 C481 1.244 . S
O477 Mg465 1.955 . S
O477 C490 1.273 . S
O478 Mg467 2.114 . S
O478 Mg469 2.291 . S
O478 C480 1.312 . S
O479 Mg464 2.031 . S
O479 C480 1.208 . S
C480 O478 1.312 . S
C480 O479 1.208 . S
C481 O473 1.331 1_655 S
C481 O476 1.244 . S
O482 Mg467 2.013 . S
O482 C471 1.191 . S
O483 C462 1.331 . S
O483 Mg469 2.081 . S
O484 Mg465 1.986 . S
O484 C471 1.307 1_655 S
O485 C463 1.264 . S
O485 Mg469 2.023 . S
O486 C462 1.244 . S
O486 Mg470 1.942 . S
O487 C463 1.273 . S
O487 Mg470 1.955 . S
O488 C461 1.312 . S
O488 Mg464 2.291 . S
O488 Mg467 2.114 . S
O489 C461 1.208 . S
O489 Mg469 2.031 . S
C490 O475 1.264 1_655 S
C490 O477 1.273 . S
C491 O472 1.191 . S
C491 O474 1.307 . S
H492 C498 0.930 . S
H493 C501 0.930 . S
H494 C502 0.930 . S
H495 C503 0.930 . S
H496 C506 0.930 . S
H497 C507 0.930 . S
C498 H492 0.930 . S
C498 C499 1.355 . S
C498 C500 1.415 . S
C499 C498 1.355 . S
C499 C501 1.419 . S
C500 C498 1.415 . S
C500 C505 1.425 . S
C500 C507 1.409 . S
C501 H493 0.930 . S
C501 C499 1.419 . S
C501 C502 1.362 . S
C502 H494 0.930 . S
C502 C501 1.362 . S
C502 C505 1.409 . S
C503 H495 0.930 . S
C503 C504 1.355 . S
C503 C505 1.415 . S
C504 C503 1.355 . S
C504 C506 1.419 . S
C505 C500 1.425 . S
C505 C502 1.409 . S
C505 C503 1.415 . S
C506 H496 0.930 . S
C506 C504 1.419 . S
C506 C507 1.362 . S
C507 H497 0.930 . S
C507 C500 1.409 . S
C507 C506 1.362 . S
H508 C514 0.930 . S
H509 C517 0.930 . S
H510 C518 0.930 . S
H511 C519 0.930 . S
H512 C522 0.930 . S
H513 C523 0.930 . S
C514 H508 0.930 . S
C514 C515 1.355 . S
C514 C516 1.415 . S
C515 C514 1.355 . S
C515 C517 1.419 . S
C516 C514 1.415 . S
C516 C521 1.425 1_565 S
C516 C523 1.409 1_565 S
C517 H509 0.930 . S
C517 C515 1.419 . S
C517 C518 1.362 . S
C518 H510 0.930 . S
C518 C517 1.362 . S
C518 C521 1.409 1_565 S
C519 H511 0.930 . S
C519 C520 1.355 . S
C519 C521 1.415 . S
C520 C519 1.355 . S
C520 C522 1.419 . S
C521 C516 1.425 1_545 S
C521 C518 1.409 1_545 S
C521 C519 1.415 . S
C522 H512 0.930 . S
C522 C520 1.419 . S
C522 C523 1.362 . S
C523 H513 0.930 . S
C523 C516 1.409 1_545 S
C523 C522 1.362 . S
H524 C530 0.930 . S
H525 C533 0.930 . S
H526 C534 0.930 . S
H527 C535 0.930 . S
H528 C538 0.930 . S
H529 C539 0.930 . S
C530 H524 0.930 . S
C530 C531 1.355 . S
C530 C532 1.415 . S
C531 C530 1.355 . S
C531 C533 1.419 . S
C532 C530 1.415 . S
C532 C537 1.425 . S
C532 C539 1.409 . S
C533 H525 0.930 . S
C533 C531 1.419 . S
C533 C534 1.362 . S
C534 H526 0.930 . S
C534 C533 1.362 . S
C534 C537 1.409 . S
C535 H527 0.930 . S
C535 C536 1.355 . S
C535 C537 1.415 . S
C536 C535 1.355 . S
C536 C538 1.419 . S
C537 C532 1.425 . S
C537 C534 1.409 . S
C537 C535 1.415 . S
C538 H528 0.930 . S
C538 C536 1.419 . S
C538 C539 1.362 . S
C539 H529 0.930 . S
C539 C532 1.409 . S
C539 C538 1.362 . S
H540 C546 0.930 . S
H541 C549 0.930 . S
H542 C550 0.930 . S
H543 C551 0.930 . S
H544 C554 0.930 . S
H545 C555 0.930 . S
C546 H540 0.930 . S
C546 C547 1.355 . S
C546 C548 1.415 1_545 S
C547 C546 1.355 . S
C547 C549 1.419 . S
C548 C546 1.415 1_565 S
C548 C553 1.425 1_565 S
C548 C555 1.409 . S
C549 H541 0.930 . S
C549 C547 1.419 . S
C549 C550 1.362 . S
C550 H542 0.930 . S
C550 C549 1.362 . S
C550 C553 1.409 . S
C551 H543 0.930 . S
C551 C552 1.355 . S
C551 C553 1.415 1_565 S
C552 C551 1.355 . S
C552 C554 1.419 . S
C553 C548 1.425 1_545 S
C553 C550 1.409 . S
C553 C551 1.415 1_545 S
C554 H544 0.930 . S
C554 C552 1.419 . S
C554 C555 1.362 . S
C555 H545 0.930 . S
C555 C548 1.409 . S
C555 C554 1.362 . S
H556 C562 0.930 . S
H557 C565 0.930 . S
H558 C566 0.930 . S
H559 C567 0.930 . S
H560 C570 0.930 . S
H561 C571 0.930 . S
C562 H556 0.930 . S
C562 C563 1.355 . S
C562 C564 1.415 . S
C563 C562 1.355 . S
C563 C565 1.419 . S
C564 C562 1.415 . S
C564 C569 1.425 . S
C564 C571 1.409 . S
C565 H557 0.930 . S
C565 C563 1.419 . S
C565 C566 1.362 . S
C566 H558 0.930 . S
C566 C565 1.362 . S
C566 C569 1.409 . S
C567 H559 0.930 . S
C567 C568 1.355 . S
C567 C569 1.415 . S
C568 C567 1.355 . S
C568 C570 1.419 . S
C569 C564 1.425 . S
C569 C566 1.409 . S
C569 C567 1.415 . S
C570 H560 0.930 . S
C570 C568 1.419 . S
C570 C571 1.362 . S
C571 H561 0.930 . S
C571 C564 1.409 . S
C571 C570 1.362 . S
H572 C578 0.930 . S
H573 C581 0.930 . S
H574 C582 0.930 . S
H575 C583 0.930 . S
H576 C586 0.930 . S
H577 C587 0.930 . S
C578 H572 0.930 . S
C578 C579 1.355 . S
C578 C580 1.415 . S
C579 C578 1.355 . S
C579 C581 1.419 . S
C580 C578 1.415 . S
C580 C585 1.425 1_565 S
C580 C587 1.409 . S
C581 H573 0.930 . S
C581 C579 1.419 . S
C581 C582 1.362 1_565 S
C582 H574 0.930 . S
C582 C581 1.362 1_545 S
C582 C585 1.409 . S
C583 H575 0.930 . S
C583 C584 1.355 . S
C583 C585 1.415 . S
C584 C583 1.355 . S
C584 C586 1.419 . S
C585 C580 1.425 1_545 S
C585 C582 1.409 . S
C585 C583 1.415 . S
C586 H576 0.930 . S
C586 C584 1.419 . S
C586 C587 1.362 1_545 S
C587 H577 0.930 . S
C587 C580 1.409 . S
C587 C586 1.362 1_565 S
H588 C594 0.930 . S
H589 C597 0.930 . S
H590 C598 0.930 . S
H591 C599 0.930 . S
H592 C602 0.930 . S
H593 C603 0.930 . S
C594 H588 0.930 . S
C594 C595 1.355 . S
C594 C596 1.415 . S
C595 C594 1.355 . S
C595 C597 1.419 . S
C596 C594 1.415 . S
C596 C601 1.425 . S
C596 C603 1.409 . S
C597 H589 0.930 . S
C597 C595 1.419 . S
C597 C598 1.362 . S
C598 H590 0.930 . S
C598 C597 1.362 . S
C598 C601 1.409 . S
C599 H591 0.930 . S
C599 C600 1.355 . S
C599 C601 1.415 . S
C600 C599 1.355 . S
C600 C602 1.419 . S
C601 C596 1.425 . S
C601 C598 1.409 . S
C601 C599 1.415 . S
C602 H592 0.930 . S
C602 C600 1.419 . S
C602 C603 1.362 . S
C603 H593 0.930 . S
C603 C596 1.409 . S
C603 C602 1.362 . S
H604 C610 0.930 . S
H605 C613 0.930 . S
H606 C614 0.930 1_565 S
H607 C615 0.930 . S
H608 C618 0.930 . S
H609 C619 0.930 1_545 S
C610 H604 0.930 . S
C610 C611 1.355 . S
C610 C612 1.415 . S
C611 C610 1.355 . S
C611 C613 1.419 . S
C612 C610 1.415 . S
C612 C617 1.425 1_545 S
C612 C619 1.409 1_545 S
C613 H605 0.930 . S
C613 C611 1.419 . S
C613 C614 1.362 . S
C614 H606 0.930 1_545 S
C614 C613 1.362 . S
C614 C617 1.409 1_545 S
C615 H607 0.930 . S
C615 C616 1.355 . S
C615 C617 1.415 . S
C616 C615 1.355 . S
C616 C618 1.419 . S
C617 C612 1.425 1_565 S
C617 C614 1.409 1_565 S
C617 C615 1.415 . S
C618 H608 0.930 . S
C618 C616 1.419 . S
C618 C619 1.362 . S
C619 H609 0.930 1_565 S
C619 C612 1.409 1_565 S
C619 C618 1.362 . S
H620 C626 0.930 . S
H621 C629 0.930 . S
H622 C630 0.930 . S
H623 C631 0.930 . S
H624 C634 0.930 . S
H625 C635 0.930 . S
C626 H620 0.930 . S
C626 C627 1.355 . S
C626 C628 1.415 . S
C627 C626 1.355 . S
C627 C629 1.419 . S
C628 C626 1.415 . S
C628 C633 1.425 . S
C628 C635 1.409 . S
C629 H621 0.930 . S
C629 C627 1.419 . S
C629 C630 1.362 . S
C630 H622 0.930 . S
C630 C629 1.362 . S
C630 C633 1.409 . S
C631 H623 0.930 . S
C631 C632 1.355 . S
C631 C633 1.415 . S
C632 C631 1.355 . S
C632 C634 1.419 . S
C633 C628 1.425 . S
C633 C630 1.409 . S
C633 C631 1.415 . S
C634 H624 0.930 . S
C634 C632 1.419 . S
C634 C635 1.362 . S
C635 H625 0.930 . S
C635 C628 1.409 . S
C635 C634 1.362 . S
H636 C642 0.930 . S
H637 C645 0.930 . S
H638 C646 0.930 . S
H639 C647 0.930 . S
H640 C650 0.930 . S
H641 C651 0.930 . S
C642 H636 0.930 . S
C642 C643 1.355 . S
C642 C644 1.415 . S
C643 C642 1.355 . S
C643 C645 1.419 . S
C644 C642 1.415 . S
C644 C649 1.425 . S
C644 C651 1.409 . S
C645 H637 0.930 . S
C645 C643 1.419 . S
C645 C646 1.362 . S
C646 H638 0.930 . S
C646 C645 1.362 . S
C646 C649 1.409 . S
C647 H639 0.930 . S
C647 C648 1.355 . S
C647 C649 1.415 . S
C648 C647 1.355 . S
C648 C650 1.419 . S
C649 C644 1.425 . S
C649 C646 1.409 . S
C649 C647 1.415 . S
C650 H640 0.930 . S
C650 C648 1.419 . S
C650 C651 1.362 . S
C651 H641 0.930 . S
C651 C644 1.409 . S
C651 C650 1.362 . S
H652 C658 0.930 . S
H653 C661 0.930 . S
H654 C662 0.930 . S
H655 C663 0.930 . S
H656 C666 0.930 . S
H657 C667 0.930 . S
C658 H652 0.930 . S
C658 C659 1.355 . S
C658 C660 1.415 . S
C659 C658 1.355 . S
C659 C661 1.419 . S
C660 C658 1.415 . S
C660 C665 1.425 . S
C660 C667 1.409 1_655 S
C661 H653 0.930 . S
C661 C659 1.419 . S
C661 C662 1.362 . S
C662 H654 0.930 . S
C662 C661 1.362 . S
C662 C665 1.409 . S
C663 H655 0.930 . S
C663 C664 1.355 1_655 S
C663 C665 1.415 . S
C664 C663 1.355 1_455 S
C664 C666 1.419 . S
C665 C660 1.425 . S
C665 C662 1.409 . S
C665 C663 1.415 . S
C666 H656 0.930 . S
C666 C664 1.419 . S
C666 C667 1.362 . S
C667 H657 0.930 . S
C667 C660 1.409 1_455 S
C667 C666 1.362 . S
H668 C674 0.930 1_565 S
H669 C677 0.930 . S
H670 C678 0.930 . S
H671 C679 0.930 . S
H672 C682 0.930 . S
H673 C683 0.930 . S
C674 H668 0.930 1_545 S
C674 C675 1.355 . S
C674 C676 1.415 . S
C675 C674 1.355 . S
C675 C677 1.419 . S
C676 C674 1.415 . S
C676 C681 1.425 . S
C676 C683 1.409 . S
C677 H669 0.930 . S
C677 C675 1.419 . S
C677 C678 1.362 . S
C678 H670 0.930 . S
C678 C677 1.362 . S
C678 C681 1.409 . S
C679 H671 0.930 . S
C679 C680 1.355 1_655 S
C679 C681 1.415 . S
C680 C679 1.355 1_455 S
C680 C682 1.419 . S
C681 C676 1.425 . S
C681 C678 1.409 . S
C681 C679 1.415 . S
C682 H672 0.930 . S
C682 C680 1.419 . S
C682 C683 1.362 1_455 S
C683 H673 0.930 . S
C683 C676 1.409 . S
C683 C682 1.362 1_655 S
H684 C690 0.930 . S
H685 C693 0.930 . S
H686 C694 0.930 . S
H687 C695 0.930 . S
H688 C698 0.930 . S
H689 C699 0.930 . S
C690 H684 0.930 . S
C690 C691 1.355 . S
C690 C692 1.415 . S
C691 C690 1.355 . S
C691 C693 1.419 . S
C692 C690 1.415 . S
C692 C697 1.425 . S
C692 C699 1.409 . S
C693 H685 0.930 . S
C693 C691 1.419 . S
C693 C694 1.362 . S
C694 H686 0.930 . S
C694 C693 1.362 . S
C694 C697 1.409 . S
C695 H687 0.930 . S
C695 C696 1.355 . S
C695 C697 1.415 . S
C696 C695 1.355 . S
C696 C698 1.419 . S
C697 C692 1.425 . S
C697 C694 1.409 . S
C697 C695 1.415 . S
C698 H688 0.930 . S
C698 C696 1.419 . S
C698 C699 1.362 . S
C699 H689 0.930 . S
C699 C692 1.409 . S
C699 C698 1.362 . S
H700 C706 0.930 1_545 S
H701 C709 0.930 . S
H702 C710 0.930 . S
H703 C711 0.930 . S
H704 C714 0.930 . S
H705 C715 0.930 1_455 S
C706 H700 0.930 1_565 S
C706 C707 1.355 . S
C706 C708 1.415 . S
C707 C706 1.355 . S
C707 C709 1.419 . S
C708 C706 1.415 . S
C708 C713 1.425 . S
C708 C715 1.409 . S
C709 H701 0.930 . S
C709 C707 1.419 . S
C709 C710 1.362 . S
C710 H702 0.930 . S
C710 C709 1.362 . S
C710 C713 1.409 . S
C711 H703 0.930 . S
C711 C712 1.355 1_655 S
C711 C713 1.415 . S
C712 C711 1.355 1_455 S
C712 C714 1.419 . S
C713 C708 1.425 . S
C713 C710 1.409 . S
C713 C711 1.415 . S
C714 H704 0.930 . S
C714 C712 1.419 . S
C714 C715 1.362 1_455 S
C715 H705 0.930 1_655 S
C715 C708 1.409 . S
C715 C714 1.362 1_655 S
H716 C722 0.930 . S
H717 C725 0.930 . S
H718 C726 0.930 . S
H719 C727 0.930 . S
H720 C730 0.930 . S
H721 C731 0.930 . S
C722 H716 0.930 . S
C722 C723 1.355 . S
C722 C724 1.415 . S
C723 C722 1.355 . S
C723 C725 1.419 . S
C724 C722 1.415 . S
C724 C729 1.425 . S
C724 C731 1.409 1_655 S
C725 H717 0.930 . S
C725 C723 1.419 . S
C725 C726 1.362 . S
C726 H718 0.930 . S
C726 C725 1.362 . S
C726 C729 1.409 . S
C727 H719 0.930 . S
C727 C728 1.355 1_655 S
C727 C729 1.415 . S
C728 C727 1.355 1_455 S
C728 C730 1.419 . S
C729 C724 1.425 . S
C729 C726 1.409 . S
C729 C727 1.415 . S
C730 H720 0.930 . S
C730 C728 1.419 . S
C730 C731 1.362 . S
C731 H721 0.930 . S
C731 C724 1.409 1_455 S
C731 C730 1.362 . S
H732 C738 0.930 . S
H733 C741 0.930 1_565 S
H734 C742 0.930 . S
H735 C743 0.930 . S
H736 C746 0.930 . S
H737 C747 0.930 . S
C738 H732 0.930 . S
C738 C739 1.355 . S
C738 C740 1.415 . S
C739 C738 1.355 . S
C739 C741 1.419 . S
C740 C738 1.415 . S
C740 C745 1.425 . S
C740 C747 1.409 . S
C741 H733 0.930 1_545 S
C741 C739 1.419 . S
C741 C742 1.362 . S
C742 H734 0.930 . S
C742 C741 1.362 . S
C742 C745 1.409 . S
C743 H735 0.930 . S
C743 C744 1.355 . S
C743 C745 1.415 . S
C744 C743 1.355 . S
C744 C746 1.419 . S
C745 C740 1.425 . S
C745 C742 1.409 . S
C745 C743 1.415 . S
C746 H736 0.930 . S
C746 C744 1.419 . S
C746 C747 1.362 . S
C747 H737 0.930 . S
C747 C740 1.409 . S
C747 C746 1.362 . S
H748 C754 0.930 . S
H749 C757 0.930 . S
H750 C758 0.930 . S
H751 C759 0.930 . S
H752 C762 0.930 . S
H753 C763 0.930 . S
C754 H748 0.930 . S
C754 C755 1.355 . S
C754 C756 1.415 . S
C755 C754 1.355 . S
C755 C757 1.419 . S
C756 C754 1.415 . S
C756 C761 1.425 . S
C756 C763 1.409 . S
C757 H749 0.930 . S
C757 C755 1.419 . S
C757 C758 1.362 . S
C758 H750 0.930 . S
C758 C757 1.362 . S
C758 C761 1.409 . S
C759 H751 0.930 . S
C759 C760 1.355 . S
C759 C761 1.415 . S
C760 C759 1.355 . S
C760 C762 1.419 . S
C761 C756 1.425 . S
C761 C758 1.409 . S
C761 C759 1.415 . S
C762 H752 0.930 . S
C762 C760 1.419 . S
C762 C763 1.362 . S
C763 H753 0.930 . S
C763 C756 1.409 . S
C763 C762 1.362 . S
H764 C770 0.930 . S
H765 C773 0.930 . S
H766 C774 0.930 . S
H767 C775 0.930 . S
H768 C778 0.930 . S
H769 C779 0.930 . S
C770 H764 0.930 . S
C770 C771 1.355 . S
C770 C772 1.415 . S
C771 C770 1.355 . S
C771 C773 1.419 . S
C772 C770 1.415 . S
C772 C777 1.425 . S
C772 C779 1.409 . S
C773 H765 0.930 . S
C773 C771 1.419 . S
C773 C774 1.362 . S
C774 H766 0.930 . S
C774 C773 1.362 . S
C774 C777 1.409 . S
C775 H767 0.930 . S
C775 C776 1.355 . S
C775 C777 1.415 . S
C776 C775 1.355 . S
C776 C778 1.419 . S
C777 C772 1.425 . S
C777 C774 1.409 . S
C777 C775 1.415 . S
C778 H768 0.930 . S
C778 C776 1.419 . S
C778 C779 1.362 . S
C779 H769 0.930 . S
C779 C772 1.409 . S
C779 C778 1.362 . S
H780 C786 0.930 . S
H781 C789 0.930 . S
H782 C790 0.930 . S
H783 C791 0.930 . S
H784 C794 0.930 . S
H785 C795 0.930 . S
C786 H780 0.930 . S
C786 C787 1.355 . S
C786 C788 1.415 . S
C787 C786 1.355 . S
C787 C789 1.419 . S
C788 C786 1.415 . S
C788 C793 1.425 . S
C788 C795 1.409 . S
C789 H781 0.930 . S
C789 C787 1.419 . S
C789 C790 1.362 . S
C790 H782 0.930 . S
C790 C789 1.362 . S
C790 C793 1.409 . S
C791 H783 0.930 . S
C791 C792 1.355 . S
C791 C793 1.415 . S
C792 C791 1.355 . S
C792 C794 1.419 . S
C793 C788 1.425 . S
C793 C790 1.409 . S
C793 C791 1.415 . S
C794 H784 0.930 . S
C794 C792 1.419 . S
C794 C795 1.362 . S
C795 H785 0.930 . S
C795 C788 1.409 . S
C795 C794 1.362 . S
H796 C802 0.930 . S
H797 C805 0.930 . S
H798 C806 0.930 . S
H799 C807 0.930 . S
H800 C810 0.930 . S
H801 C811 0.930 . S
C802 H796 0.930 . S
C802 C803 1.355 . S
C802 C804 1.415 . S
C803 C802 1.355 . S
C803 C805 1.419 . S
C804 C802 1.415 . S
C804 C809 1.425 . S
C804 C811 1.409 . S
C805 H797 0.930 . S
C805 C803 1.419 . S
C805 C806 1.362 . S
C806 H798 0.930 . S
C806 C805 1.362 . S
C806 C809 1.409 . S
C807 H799 0.930 . S
C807 C808 1.355 . S
C807 C809 1.415 . S
C808 C807 1.355 . S
C808 C810 1.419 . S
C809 C804 1.425 . S
C809 C806 1.409 . S
C809 C807 1.415 . S
C810 H800 0.930 . S
C810 C808 1.419 . S
C810 C811 1.362 . S
C811 H801 0.930 . S
C811 C804 1.409 . S
C811 C810 1.362 . S
H812 C818 0.930 . S
H813 C821 0.930 . S
H814 C822 0.930 . S
H815 C823 0.930 . S
H816 C826 0.930 . S
H817 C827 0.930 . S
C818 H812 0.930 . S
C818 C819 1.355 . S
C818 C820 1.415 . S
C819 C818 1.355 . S
C819 C821 1.419 . S
C820 C818 1.415 . S
C820 C825 1.425 . S
C820 C827 1.409 . S
C821 H813 0.930 . S
C821 C819 1.419 . S
C821 C822 1.362 . S
C822 H814 0.930 . S
C822 C821 1.362 . S
C822 C825 1.409 . S
C823 H815 0.930 . S
C823 C824 1.355 . S
C823 C825 1.415 . S
C824 C823 1.355 . S
C824 C826 1.419 . S
C825 C820 1.425 . S
C825 C822 1.409 . S
C825 C823 1.415 . S
C826 H816 0.930 . S
C826 C824 1.419 . S
C826 C827 1.362 . S
C827 H817 0.930 . S
C827 C820 1.409 . S
C827 C826 1.362 . S
H828 C834 0.930 . S
H829 C837 0.930 . S
H830 C838 0.930 . S
H831 C839 0.930 . S
H832 C842 0.930 . S
H833 C843 0.930 . S
C834 H828 0.930 . S
C834 C835 1.355 . S
C834 C836 1.415 . S
C835 C834 1.355 . S
C835 C837 1.419 . S
C836 C834 1.415 . S
C836 C841 1.425 . S
C836 C843 1.409 . S
C837 H829 0.930 . S
C837 C835 1.419 . S
C837 C838 1.362 . S
C838 H830 0.930 . S
C838 C837 1.362 . S
C838 C841 1.409 . S
C839 H831 0.930 . S
C839 C840 1.355 . S
C839 C841 1.415 . S
C840 C839 1.355 . S
C840 C842 1.419 . S
C841 C836 1.425 . S
C841 C838 1.409 . S
C841 C839 1.415 . S
C842 H832 0.930 . S
C842 C840 1.419 . S
C842 C843 1.362 . S
C843 H833 0.930 . S
C843 C836 1.409 . S
C843 C842 1.362 . S
H844 C850 0.930 . S
H845 C853 0.930 . S
H846 C854 0.930 . S
H847 C855 0.930 . S
H848 C858 0.930 . S
H849 C859 0.930 . S
C850 H844 0.930 . S
C850 C851 1.355 . S
C850 C852 1.415 . S
C851 C850 1.355 . S
C851 C853 1.419 . S
C852 C850 1.415 . S
C852 C857 1.425 . S
C852 C859 1.409 . S
C853 H845 0.930 . S
C853 C851 1.419 . S
C853 C854 1.362 . S
C854 H846 0.930 . S
C854 C853 1.362 . S
C854 C857 1.409 . S
C855 H847 0.930 . S
C855 C856 1.355 . S
C855 C857 1.415 . S
C856 C855 1.355 . S
C856 C858 1.419 . S
C857 C852 1.425 . S
C857 C854 1.409 . S
C857 C855 1.415 . S
C858 H848 0.930 . S
C858 C856 1.419 . S
C858 C859 1.362 . S
C859 H849 0.930 . S
C859 C852 1.409 . S
C859 C858 1.362 . S
H860 C866 0.930 . S
H861 C869 0.930 . S
H862 C870 0.930 . S
H863 C871 0.930 . S
H864 C874 0.930 . S
H865 C875 0.930 . S
C866 H860 0.930 . S
C866 C867 1.355 . S
C866 C868 1.415 . S
C867 C866 1.355 . S
C867 C869 1.419 . S
C868 C866 1.415 . S
C868 C873 1.425 . S
C868 C875 1.409 . S
C869 H861 0.930 . S
C869 C867 1.419 . S
C869 C870 1.362 . S
C870 H862 0.930 . S
C870 C869 1.362 . S
C870 C873 1.409 . S
C871 H863 0.930 . S
C871 C872 1.355 . S
C871 C873 1.415 . S
C872 C871 1.355 . S
C872 C874 1.419 . S
C873 C868 1.425 . S
C873 C870 1.409 . S
C873 C871 1.415 . S
C874 H864 0.930 . S
C874 C872 1.419 . S
C874 C875 1.362 . S
C875 H865 0.930 . S
C875 C868 1.409 . S
C875 C874 1.362 . S
H876 C882 0.930 . S
H877 C885 0.930 . S
H878 C886 0.930 . S
H879 C887 0.930 . S
H880 C890 0.930 . S
H881 C891 0.930 . S
C882 H876 0.930 . S
C882 C883 1.355 . S
C882 C884 1.415 . S
C883 C882 1.355 . S
C883 C885 1.419 . S
C884 C882 1.415 . S
C884 C889 1.425 . S
C884 C891 1.409 . S
C885 H877 0.930 . S
C885 C883 1.419 . S
C885 C886 1.362 . S
C886 H878 0.930 . S
C886 C885 1.362 . S
C886 C889 1.409 . S
C887 H879 0.930 . S
C887 C888 1.355 . S
C887 C889 1.415 . S
C888 C887 1.355 . S
C888 C890 1.419 . S
C889 C884 1.425 . S
C889 C886 1.409 . S
C889 C887 1.415 . S
C890 H880 0.930 . S
C890 C888 1.419 . S
C890 C891 1.362 . S
C891 H881 0.930 . S
C891 C884 1.409 . S
C891 C890 1.362 . S
H892 C898 0.930 . S
H893 C901 0.930 . S
H894 C902 0.930 . S
H895 C903 0.930 . S
H896 C906 0.930 . S
H897 C907 0.930 . S
C898 H892 0.930 . S
C898 C899 1.355 . S
C898 C900 1.415 . S
C899 C898 1.355 . S
C899 C901 1.419 . S
C900 C898 1.415 . S
C900 C905 1.425 . S
C900 C907 1.409 . S
C901 H893 0.930 . S
C901 C899 1.419 . S
C901 C902 1.362 . S
C902 H894 0.930 . S
C902 C901 1.362 . S
C902 C905 1.409 . S
C903 H895 0.930 . S
C903 C904 1.355 . S
C903 C905 1.415 . S
C904 C903 1.355 . S
C904 C906 1.419 . S
C905 C900 1.425 . S
C905 C902 1.409 . S
C905 C903 1.415 . S
C906 H896 0.930 . S
C906 C904 1.419 . S
C906 C907 1.362 . S
C907 H897 0.930 . S
C907 C900 1.409 . S
C907 C906 1.362 . S
H908 C914 0.930 . S
H909 C917 0.930 . S
H910 C918 0.930 . S
H911 C919 0.930 . S
H912 C922 0.930 . S
H913 C923 0.930 . S
C914 H908 0.930 . S
C914 C915 1.355 . S
C914 C916 1.415 . S
C915 C914 1.355 . S
C915 C917 1.419 . S
C916 C914 1.415 . S
C916 C921 1.425 . S
C916 C923 1.409 . S
C917 H909 0.930 . S
C917 C915 1.419 . S
C917 C918 1.362 . S
C918 H910 0.930 . S
C918 C917 1.362 . S
C918 C921 1.409 . S
C919 H911 0.930 . S
C919 C920 1.355 . S
C919 C921 1.415 . S
C920 C919 1.355 . S
C920 C922 1.419 . S
C921 C916 1.425 . S
C921 C918 1.409 . S
C921 C919 1.415 . S
C922 H912 0.930 . S
C922 C920 1.419 . S
C922 C923 1.362 . S
C923 H913 0.930 . S
C923 C916 1.409 . S
C923 C922 1.362 . S
H924 C930 0.930 . S
H925 C933 0.930 . S
H926 C934 0.930 . S
H927 C935 0.930 . S
H928 C938 0.930 . S
H929 C939 0.930 . S
C930 H924 0.930 . S
C930 C931 1.355 . S
C930 C932 1.415 . S
C931 C930 1.355 . S
C931 C933 1.419 . S
C932 C930 1.415 . S
C932 C937 1.425 . S
C932 C939 1.409 . S
C933 H925 0.930 . S
C933 C931 1.419 . S
C933 C934 1.362 . S
C934 H926 0.930 . S
C934 C933 1.362 . S
C934 C937 1.409 . S
C935 H927 0.930 . S
C935 C936 1.355 . S
C935 C937 1.415 . S
C936 C935 1.355 . S
C936 C938 1.419 . S
C937 C932 1.425 . S
C937 C934 1.409 . S
C937 C935 1.415 . S
C938 H928 0.930 . S
C938 C936 1.419 . S
C938 C939 1.362 . S
C939 H929 0.930 . S
C939 C932 1.409 . S
C939 C938 1.362 . S
H940 C946 0.930 . S
H941 C949 0.930 . S
H942 C950 0.930 . S
H943 C951 0.930 . S
H944 C954 0.930 . S
H945 C955 0.930 . S
C946 H940 0.930 . S
C946 C947 1.355 . S
C946 C948 1.415 . S
C947 C946 1.355 . S
C947 C949 1.419 . S
C948 C946 1.415 . S
C948 C953 1.425 . S
C948 C955 1.409 . S
C949 H941 0.930 . S
C949 C947 1.419 . S
C949 C950 1.362 . S
C950 H942 0.930 . S
C950 C949 1.362 . S
C950 C953 1.409 . S
C951 H943 0.930 . S
C951 C952 1.355 . S
C951 C953 1.415 . S
C952 C951 1.355 . S
C952 C954 1.419 . S
C953 C948 1.425 . S
C953 C950 1.409 . S
C953 C951 1.415 . S
C954 H944 0.930 . S
C954 C952 1.419 . S
C954 C955 1.362 . S
C955 H945 0.930 . S
C955 C948 1.409 . S
C955 C954 1.362 . S
H956 C962 0.930 . S
H957 C965 0.930 . S
H958 C966 0.930 . S
H959 C967 0.930 . S
H960 C970 0.930 . S
H961 C971 0.930 . S
C962 H956 0.930 . S
C962 C963 1.355 . S
C962 C964 1.415 . S
C963 C962 1.355 . S
C963 C965 1.419 . S
C964 C962 1.415 . S
C964 C969 1.425 . S
C964 C971 1.409 . S
C965 H957 0.930 . S
C965 C963 1.419 . S
C965 C966 1.362 . S
C966 H958 0.930 . S
C966 C965 1.362 . S
C966 C969 1.409 . S
C967 H959 0.930 . S
C967 C968 1.355 . S
C967 C969 1.415 . S
C968 C967 1.355 . S
C968 C970 1.419 . S
C969 C964 1.425 . S
C969 C966 1.409 . S
C969 C967 1.415 . S
C970 H960 0.930 . S
C970 C968 1.419 . S
C970 C971 1.362 . S
C971 H961 0.930 . S
C971 C964 1.409 . S
C971 C970 1.362 . S
H972 C978 0.930 . S
H973 C981 0.930 . S
H974 C982 0.930 . S
H975 C983 0.930 . S
H976 C986 0.930 . S
H977 C987 0.930 . S
C978 H972 0.930 . S
C978 C979 1.355 . S
C978 C980 1.415 . S
C979 C978 1.355 . S
C979 C981 1.419 . S
C980 C978 1.415 . S
C980 C985 1.425 . S
C980 C987 1.409 . S
C981 H973 0.930 . S
C981 C979 1.419 . S
C981 C982 1.362 . S
C982 H974 0.930 . S
C982 C981 1.362 . S
C982 C985 1.409 . S
C983 H975 0.930 . S
C983 C984 1.355 . S
C983 C985 1.415 . S
C984 C983 1.355 . S
C984 C986 1.419 . S
C985 C980 1.425 . S
C985 C982 1.409 . S
C985 C983 1.415 . S
C986 H976 0.930 . S
C986 C984 1.419 . S
C986 C987 1.362 . S
C987 H977 0.930 . S
C987 C980 1.409 . S
C987 C986 1.362 . S
H988 C994 0.930 . S
H989 C997 0.930 . S
H990 C998 0.930 . S
H991 C999 0.930 . S
H992 C1002 0.930 . S
H993 C1003 0.930 . S
C994 H988 0.930 . S
C994 C995 1.355 . S
C994 C996 1.415 . S
C995 C994 1.355 . S
C995 C997 1.419 . S
C996 C994 1.415 . S
C996 C1001 1.425 . S
C996 C1003 1.409 . S
C997 H989 0.930 . S
C997 C995 1.419 . S
C997 C998 1.362 . S
C998 H990 0.930 . S
C998 C997 1.362 . S
C998 C1001 1.409 . S
C999 H991 0.930 . S
C999 C1000 1.355 . S
C999 C1001 1.415 . S
C1000 C999 1.355 . S
C1000 C1002 1.419 . S
C1001 C996 1.425 . S
C1001 C998 1.409 . S
C1001 C999 1.415 . S
C1002 H992 0.930 . S
C1002 C1000 1.419 . S
C1002 C1003 1.362 . S
C1003 H993 0.930 . S
C1003 C996 1.409 . S
C1003 C1002 1.362 . S
C504 C428 1.735 . S
C499 C1 1.820 . S
C515 C68 1.721 . S
C520 C431 1.694 . S
C531 C93 1.710 . S
C536 C462 1.653 . S
C552 C397 1.754 . S
C547 C139 1.794 . S
C568 C432 1.785 . S
C563 C8 1.819 . S
C584 C463 1.713 . S
C579 C61 1.795 . S
C600 C388 1.698 . S
C595 C100 1.727 . S
C616 C419 1.685 . S
C611 C146 1.733 . S
C627 C15 1.350 . S
C632 C449 1.216 . S
C643 C192 1.314 1_565 S
C648 C418 1.282 . S
C659 C107 1.247 . S
C664 C378 1.229 . S
C680 C471 1.266 . S
C675 C238 1.291 . S
C696 C399 1.292 . S
C691 C22 1.337 . S
C707 C185 1.290 . S
C712 C398 1.266 . S
C723 C114 1.242 . S
C728 C491 1.247 . S
C744 C430 1.299 . S
C739 C231 1.317 1_545 S
C755 C277 1.820 . S
C760 C490 1.738 . S
C771 C206 1.728 . S
C776 C369 1.722 . S
C787 C330 1.722 . S
C792 C400 1.664 . S
C803 C252 1.802 . S
C808 C459 1.746 . S
C824 C370 1.732 . S
C819 C284 1.817 . S
C835 C199 1.790 . S
C840 C401 1.706 . S
C851 C323 1.710 . S
C856 C450 1.656 . S
C872 C481 1.718 . S
C867 C245 1.725 . S
C883 C291 1.330 . S
C888 C387 1.310 . S
C899 C54 1.338 . S
C904 C480 1.206 . S
C915 C344 1.256 . S
C920 C440 1.222 . S
C936 C409 1.281 . S
C931 C153 1.282 . S
C952 C461 1.315 . S
C947 C298 1.330 . S
C968 C460 1.243 . S
C963 C47 1.268 . S
C984 C429 1.222 . S
C979 C337 1.258 . S
C1000 C368 1.212 . S
C995 C160 1.336 . S
