# Generated by pormake.
# Topology apo, (3,6)-cn, num edge types: 1
# Building blocks:
#     Node 0, Type 0, BuildingBlock: VETTIZ_charged_linker_0, # of connection points: 3
#     Node 1, Type 0, BuildingBlock: VETTIZ_charged_linker_0, # of connection points: 3
#     Node 2, Type 0, BuildingBlock: VETTIZ_charged_linker_0, # of connection points: 3
#     Node 3, Type 0, BuildingBlock: VETTIZ_charged_linker_0, # of connection points: 3
#     Node 4, Type 0, BuildingBlock: VETTIZ_charged_linker_0, # of connection points: 3
#     Node 5, Type 0, BuildingBlock: VETTIZ_charged_linker_0, # of connection points: 3
#     Node 6, Type 0, BuildingBlock: VETTIZ_charged_linker_0, # of connection points: 3
#     Node 7, Type 0, BuildingBlock: VETTIZ_charged_linker_0, # of connection points: 3
#     Node 8, Type 1, BuildingBlock: KUMBUR_clean_sbu_1, # of connection points: 6
#     Node 9, Type 1, BuildingBlock: KUMBUR_clean_sbu_1, # of connection points: 6
#     Node 10, Type 1, BuildingBlock: KUMBUR_clean_sbu_1, # of connection points: 6
#     Node 11, Type 1, BuildingBlock: KUMBUR_clean_sbu_1, # of connection points: 6
#     Edge 12, Type (0, 1), BuildingBlock: KIFKEQ_clean_linker_1, # of connection points: 2
#     Edge 13, Type (0, 1), BuildingBlock: KIFKEQ_clean_linker_1, # of connection points: 2
#     Edge 14, Type (0, 1), BuildingBlock: KIFKEQ_clean_linker_1, # of connection points: 2
#     Edge 15, Type (0, 1), BuildingBlock: KIFKEQ_clean_linker_1, # of connection points: 2
#     Edge 16, Type (0, 1), BuildingBlock: KIFKEQ_clean_linker_1, # of connection points: 2
#     Edge 17, Type (0, 1), BuildingBlock: KIFKEQ_clean_linker_1, # of connection points: 2
#     Edge 18, Type (0, 1), BuildingBlock: KIFKEQ_clean_linker_1, # of connection points: 2
#     Edge 19, Type (0, 1), BuildingBlock: KIFKEQ_clean_linker_1, # of connection points: 2
#     Edge 20, Type (0, 1), BuildingBlock: KIFKEQ_clean_linker_1, # of connection points: 2
#     Edge 21, Type (0, 1), BuildingBlock: KIFKEQ_clean_linker_1, # of connection points: 2
#     Edge 22, Type (0, 1), BuildingBlock: KIFKEQ_clean_linker_1, # of connection points: 2
#     Edge 23, Type (0, 1), BuildingBlock: KIFKEQ_clean_linker_1, # of connection points: 2
#     Edge 24, Type (0, 1), BuildingBlock: KIFKEQ_clean_linker_1, # of connection points: 2
#     Edge 25, Type (0, 1), BuildingBlock: KIFKEQ_clean_linker_1, # of connection points: 2
#     Edge 26, Type (0, 1), BuildingBlock: KIFKEQ_clean_linker_1, # of connection points: 2
#     Edge 27, Type (0, 1), BuildingBlock: KIFKEQ_clean_linker_1, # of connection points: 2
#     Edge 28, Type (0, 1), BuildingBlock: KIFKEQ_clean_linker_1, # of connection points: 2
#     Edge 29, Type (0, 1), BuildingBlock: KIFKEQ_clean_linker_1, # of connection points: 2
#     Edge 30, Type (0, 1), BuildingBlock: KIFKEQ_clean_linker_1, # of connection points: 2
#     Edge 31, Type (0, 1), BuildingBlock: KIFKEQ_clean_linker_1, # of connection points: 2
#     Edge 32, Type (0, 1), BuildingBlock: KIFKEQ_clean_linker_1, # of connection points: 2
#     Edge 33, Type (0, 1), BuildingBlock: KIFKEQ_clean_linker_1, # of connection points: 2
#     Edge 34, Type (0, 1), BuildingBlock: KIFKEQ_clean_linker_1, # of connection points: 2
#     Edge 35, Type (0, 1), BuildingBlock: KIFKEQ_clean_linker_1, # of connection points: 2
# Relax obj value: 0.010
# Max RMSD: 0.095
# Mean RMSD: 0.075
data_MOF--net-apo--node1-KUMBUR_clean_sbu_1--node2-VETTIZ_charged_linker_0--edge1-KIFKEQ_clean_linker_1
_symmetry_space_group_name_H-M    P1
_symmetry_Int_Tables_number       1
_symmetry_cell_setting            triclinic
loop_
_symmetry_equiv_pos_as_xyz
'x, y, z'
_cell_length_a     29.394743
_cell_length_b     52.804481
_cell_length_c     64.671866
_cell_angle_alpha  90.010349
_cell_angle_beta   89.962459
_cell_angle_gamma 90.263262
loop_
_atom_site_label
_atom_site_type_symbol
_atom_site_fract_x
_atom_site_fract_y
_atom_site_fract_z
_atom_type_partial_charge
C0 C 0.29518 0.36393 0.48451 0.0
C1 C 0.3217 0.38106 0.49615 0.0
C2 C 0.334 0.40445 0.48716 0.0
C3 C 0.29747 0.3925 0.45499 0.0
C4 C 0.28362 0.36998 0.46399 0.0
C5 C 0.25726 0.3536 0.44905 0.0
H6 H 0.18976 0.33143 0.35011 0.0
C7 C 0.2829 0.39235 0.43307 0.0
C8 C 0.25914 0.36957 0.42946 0.0
H9 H 0.16445 0.28446 0.40356 0.0
H10 H 0.20106 0.31566 0.42563 0.0
H11 H 0.16136 0.3838 0.37312 0.0
H12 H 0.28829 0.34705 0.36032 0.0
H13 H 0.29867 0.37954 0.35723 0.0
H14 H 0.25743 0.36401 0.34086 0.0
H15 H 0.18613 0.38287 0.34778 0.0
H16 H 0.19978 0.40776 0.36592 0.0
C17 C 0.20805 0.35075 0.45727 0.0
C18 C 0.28281 0.32823 0.44653 0.0
C19 C 0.33123 0.46435 0.38487 0.0
C20 C 0.32498 0.46849 0.3635 0.0
C21 C 0.30064 0.45022 0.35197 0.0
C22 C 0.28261 0.42854 0.36139 0.0
C23 C 0.28908 0.42467 0.38265 0.0
C24 C 0.31299 0.44239 0.39408 0.0
C25 C 0.31687 0.4347 0.41647 0.0
C26 C 0.29109 0.40959 0.41653 0.0
C27 C 0.27512 0.40386 0.39663 0.0
C28 C 0.29275 0.45492 0.42988 0.0
C29 C 0.36802 0.43121 0.42143 0.0
C30 C 0.19221 0.32786 0.36657 0.0
C31 C 0.17485 0.30536 0.37509 0.0
C32 C 0.17774 0.30165 0.39665 0.0
C33 C 0.19914 0.31975 0.4094 0.0
C34 C 0.21748 0.3419 0.40052 0.0
C35 C 0.21283 0.34583 0.37949 0.0
C36 C 0.23263 0.37072 0.37268 0.0
C37 C 0.25104 0.38092 0.39295 0.0
C38 C 0.24249 0.36396 0.40927 0.0
C39 C 0.19327 0.38724 0.36426 0.0
C40 C 0.27107 0.36529 0.35684 0.0
H41 H 0.33233 0.4284 0.4609 0.0
H42 H 0.28487 0.34589 0.49101 0.0
H43 H 0.32011 0.3316 0.44529 0.0
H44 H 0.27335 0.31788 0.43237 0.0
H45 H 0.27678 0.31567 0.46005 0.0
H46 H 0.19643 0.3686 0.4647 0.0
H47 H 0.2057 0.33543 0.469 0.0
H48 H 0.18311 0.34704 0.44486 0.0
H49 H 0.34953 0.47796 0.39428 0.0
H50 H 0.29606 0.45243 0.33546 0.0
H51 H 0.26469 0.41549 0.35161 0.0
H52 H 0.26306 0.46306 0.42158 0.0
H53 H 0.31618 0.47079 0.43374 0.0
H54 H 0.27843 0.44702 0.44432 0.0
H55 H 0.38597 0.4222 0.4082 0.0
H56 H 0.37422 0.4185 0.43464 0.0
H57 H 0.38478 0.44973 0.42448 0.0
H58 H 0.35325 0.41829 0.49596 0.0
C59 C 0.3218 0.41031 0.46678 0.0
C60 C 0.31744 0.1729 0.86629 0.0
C61 C 0.33266 0.19608 0.87454 0.0
C62 C 0.32718 0.20049 0.89593 0.0
C63 C 0.28947 0.15965 0.90005 0.0
C64 C 0.29627 0.15508 0.87923 0.0
C65 C 0.27724 0.12989 0.8726 0.0
H66 H 0.15012 0.02582 0.89282 0.0
C67 C 0.26398 0.13773 0.90879 0.0
C68 C 0.2568 0.12029 0.8927 0.0
H69 H 0.2152 0.04796 0.83555 0.0
H70 H 0.24891 0.08395 0.85224 0.0
H71 H 0.24203 0.04099 0.92286 0.0
H72 H 0.11814 0.07944 0.90635 0.0
H73 H 0.12941 0.086 0.93246 0.0
H74 H 0.11867 0.05377 0.92455 0.0
H75 H 0.18695 0.03069 0.93155 0.0
H76 H 0.21849 0.05476 0.94524 0.0
C77 C 0.31741 0.11313 0.86534 0.0
C78 C 0.24041 0.13478 0.85591 0.0
C79 C 0.21362 0.13851 0.98422 0.0
C80 C 0.18666 0.12197 0.99607 0.0
C81 C 0.16991 0.09957 0.98696 0.0
C82 C 0.17983 0.09367 0.96627 0.0
C83 C 0.20627 0.11055 0.95442 0.0
C84 C 0.22268 0.13255 0.96344 0.0
C85 C 0.24889 0.14866 0.94832 0.0
C86 C 0.246 0.13265 0.92882 0.0
C87 C 0.22099 0.11025 0.93246 0.0
C88 C 0.29841 0.15118 0.95618 0.0
C89 C 0.22368 0.1742 0.94593 0.0
C90 C 0.17209 0.03831 0.884 0.0
C91 C 0.17913 0.03424 0.86264 0.0
C92 C 0.20813 0.05094 0.85181 0.0
C93 C 0.22794 0.07186 0.86159 0.0
C94 C 0.21887 0.07645 0.88256 0.0
C95 C 0.19228 0.05955 0.89361 0.0
C96 C 0.18697 0.06776 0.91588 0.0
C97 C 0.21373 0.0926 0.91607 0.0
C98 C 0.23213 0.09751 0.89644 0.0
C99 C 0.20944 0.04751 0.92977 0.0
C100 C 0.1357 0.07185 0.92025 0.0
H101 H 0.30174 0.18716 0.92474 0.0
H102 H 0.32171 0.16872 0.85001 0.0
H103 H 0.22183 0.15267 0.85911 0.0
H104 H 0.21362 0.12008 0.85551 0.0
H105 H 0.25585 0.13647 0.84029 0.0
H106 H 0.34894 0.11755 0.87418 0.0
H107 H 0.32499 0.11618 0.8487 0.0
H108 H 0.31138 0.09272 0.86811 0.0
H109 H 0.22663 0.15592 0.99088 0.0
H110 H 0.14919 0.08659 0.99595 0.0
H111 H 0.16617 0.0763 0.96024 0.0
H112 H 0.31049 0.13288 0.96265 0.0
H113 H 0.301 0.16566 0.9686 0.0
H114 H 0.32278 0.15596 0.94378 0.0
H115 H 0.18618 0.17141 0.94687 0.0
H116 H 0.22943 0.18321 0.93075 0.0
H117 H 0.23361 0.18768 0.95833 0.0
H118 H 0.33847 0.2182 0.90268 0.0
C119 C 0.3056 0.18247 0.90869 0.0
C120 C 0.79815 0.13849 0.52784 0.0
C121 C 0.82528 0.12133 0.51655 0.0
C122 C 0.84211 0.0997 0.52664 0.0
C123 C 0.80602 0.11246 0.55869 0.0
C124 C 0.78934 0.1338 0.54894 0.0
C125 C 0.76347 0.15055 0.56382 0.0
H126 H 0.69206 0.17193 0.66272 0.0
C127 C 0.7918 0.11313 0.58063 0.0
C128 C 0.7669 0.13548 0.58388 0.0
H129 H 0.6732 0.22061 0.60973 0.0
H130 H 0.71079 0.18988 0.58782 0.0
H131 H 0.66482 0.12103 0.63989 0.0
H132 H 0.79326 0.15668 0.65286 0.0
H133 H 0.80013 0.1242 0.65768 0.0
H134 H 0.75886 0.14181 0.67236 0.0
H135 H 0.69087 0.11934 0.66492 0.0
H136 H 0.7027 0.09626 0.64502 0.0
C137 C 0.71377 0.15259 0.55625 0.0
C138 C 0.78864 0.17629 0.56527 0.0
C139 C 0.83765 0.04123 0.62888 0.0
C140 C 0.82848 0.03634 0.64987 0.0
C141 C 0.80174 0.0536 0.66112 0.0
C142 C 0.78477 0.07551 0.65177 0.0
C143 C 0.79425 0.08026 0.63082 0.0
C144 C 0.81982 0.06313 0.61966 0.0
C145 C 0.8253 0.07111 0.59743 0.0
C146 C 0.79928 0.09597 0.59722 0.0
C147 C 0.78149 0.10124 0.61685 0.0
C148 C 0.80211 0.05079 0.58366 0.0
C149 C 0.87674 0.0751 0.59309 0.0
C150 C 0.69547 0.17595 0.64637 0.0
C151 C 0.67964 0.19885 0.63805 0.0
C152 C 0.68561 0.2033 0.61666 0.0
C153 C 0.70741 0.18541 0.60394 0.0
C154 C 0.72387 0.16283 0.61266 0.0
C155 C 0.7173 0.15842 0.63354 0.0
C156 C 0.73678 0.1336 0.64039 0.0
C157 C 0.75688 0.1239 0.62031 0.0
C158 C 0.7494 0.141 0.60399 0.0
C159 C 0.69706 0.1166 0.64812 0.0
C160 C 0.77404 0.13912 0.65678 0.0
H161 H 0.84644 0.07826 0.55415 0.0
H162 H 0.78509 0.15542 0.52054 0.0
H163 H 0.82613 0.1735 0.56515 0.0
H164 H 0.78152 0.18651 0.57977 0.0
H165 H 0.77987 0.18867 0.55198 0.0
H166 H 0.70095 0.1338 0.551 0.0
H167 H 0.71112 0.16593 0.54302 0.0
H168 H 0.69017 0.15869 0.56853 0.0
H169 H 0.85785 0.0282 0.61981 0.0
H170 H 0.79468 0.05037 0.67736 0.0
H171 H 0.7652 0.08799 0.66132 0.0
H172 H 0.77067 0.04337 0.59116 0.0
H173 H 0.82508 0.03448 0.58094 0.0
H174 H 0.79063 0.05828 0.56862 0.0
H175 H 0.89493 0.08164 0.60722 0.0
H176 H 0.88342 0.09007 0.58153 0.0
H177 H 0.89303 0.05725 0.58793 0.0
H178 H 0.86265 0.08612 0.51827 0.0
C179 C 0.83251 0.09512 0.5475 0.0
C180 C 0.81133 0.32788 0.14663 0.0
C181 C 0.82505 0.30454 0.13836 0.0
C182 C 0.81683 0.2996 0.11723 0.0
C183 C 0.78077 0.34069 0.11325 0.0
C184 C 0.78908 0.34543 0.13396 0.0
C185 C 0.7702 0.37041 0.14087 0.0
H186 H 0.64807 0.47568 0.12055 0.0
C187 C 0.75554 0.36267 0.10469 0.0
C188 C 0.74928 0.38004 0.12095 0.0
H189 H 0.71164 0.45397 0.17805 0.0
H190 H 0.74191 0.41642 0.16195 0.0
H191 H 0.73455 0.46229 0.09267 0.0
H192 H 0.61255 0.42099 0.10729 0.0
H193 H 0.62357 0.41579 0.08094 0.0
H194 H 0.61348 0.44757 0.09 0.0
H195 H 0.68127 0.46893 0.08035 0.0
H196 H 0.72002 0.44557 0.07017 0.0
C197 C 0.81037 0.38734 0.14812 0.0
C198 C 0.73366 0.36515 0.15766 0.0
C199 C 0.70614 0.36534 0.02871 0.0
C200 C 0.68205 0.38351 0.01702 0.0
C201 C 0.66741 0.40579 0.02698 0.0
C202 C 0.67634 0.41002 0.04794 0.0
C203 C 0.70023 0.39181 0.05938 0.0
C204 C 0.71501 0.36994 0.0498 0.0
C205 C 0.74001 0.35286 0.0647 0.0
C206 C 0.73784 0.36822 0.08464 0.0
C207 C 0.7142 0.39096 0.08134 0.0
C208 C 0.78945 0.34981 0.05694 0.0
C209 C 0.71331 0.32763 0.06643 0.0
C210 C 0.66845 0.46275 0.12961 0.0
C211 C 0.67739 0.46767 0.1506 0.0
C212 C 0.70459 0.45063 0.16183 0.0
C213 C 0.72198 0.42878 0.15246 0.0
C214 C 0.71246 0.42392 0.13152 0.0
C215 C 0.68669 0.44097 0.12038 0.0
C216 C 0.68158 0.43314 0.09811 0.0
C217 C 0.70736 0.40824 0.0979 0.0
C218 C 0.72516 0.4029 0.11752 0.0
C219 C 0.70517 0.4535 0.08447 0.0
C220 C 0.63021 0.42929 0.09364 0.0
H221 H 0.78997 0.31277 0.08866 0.0
H222 H 0.81653 0.33213 0.16285 0.0
H223 H 0.71432 0.34751 0.15412 0.0
H224 H 0.70754 0.38005 0.15861 0.0
H225 H 0.74949 0.36275 0.17313 0.0
H226 H 0.84171 0.38334 0.13906 0.0
H227 H 0.81835 0.38401 0.16468 0.0
H228 H 0.8041 0.40774 0.14569 0.0
H229 H 0.71816 0.34806 0.02158 0.0
H230 H 0.64814 0.4199 0.01861 0.0
H231 H 0.66387 0.42731 0.05447 0.0
H232 H 0.80333 0.36831 0.05157 0.0
H233 H 0.79106 0.33635 0.04376 0.0
H234 H 0.81288 0.34334 0.06914 0.0
H235 H 0.676 0.33105 0.06601 0.0
H236 H 0.71933 0.3177 0.08118 0.0
H237 H 0.72178 0.31473 0.05342 0.0
H238 H 0.82736 0.2818 0.11046 0.0
C239 C 0.79511 0.3176 0.10461 0.0
C240 C 0.69827 0.55047 0.64781 0.0
C241 C 0.67249 0.52989 0.64032 0.0
C242 C 0.66198 0.52894 0.61905 0.0
C243 C 0.70097 0.56903 0.61338 0.0
C244 C 0.71229 0.56961 0.63412 0.0
C245 C 0.7396 0.59282 0.63963 0.0
H246 H 0.82965 0.70653 0.61283 0.0
C247 C 0.71929 0.59237 0.60358 0.0
C248 C 0.74222 0.60628 0.61888 0.0
H249 H 0.82896 0.66997 0.67258 0.0
H250 H 0.79223 0.63329 0.65802 0.0
H251 H 0.85306 0.65344 0.58504 0.0
H252 H 0.72843 0.6916 0.60122 0.0
H253 H 0.72456 0.68174 0.57534 0.0
H254 H 0.7676 0.70446 0.58262 0.0
H255 H 0.83864 0.6841 0.57504 0.0
H256 H 0.81808 0.65548 0.56297 0.0
C257 C 0.78712 0.58411 0.6471 0.0
C258 C 0.71214 0.6082 0.65579 0.0
C259 C 0.68297 0.61102 0.52823 0.0
C260 C 0.69249 0.63155 0.51499 0.0
C261 C 0.7196 0.65165 0.5226 0.0
C262 C 0.73633 0.65143 0.54298 0.0
C263 C 0.72565 0.631 0.55611 0.0
C264 C 0.69974 0.61114 0.54854 0.0
C265 C 0.69147 0.591 0.56458 0.0
C266 C 0.71592 0.60219 0.58315 0.0
C267 C 0.73611 0.62565 0.57816 0.0
C268 C 0.71428 0.56625 0.55709 0.0
C269 C 0.63945 0.5888 0.56817 0.0
C270 C 0.82203 0.6904 0.62259 0.0
C271 C 0.832 0.69109 0.6439 0.0
C272 C 0.82125 0.66989 0.65619 0.0
C273 C 0.79983 0.64861 0.64769 0.0
C274 C 0.78828 0.64846 0.62662 0.0
C275 C 0.79984 0.66893 0.61431 0.0
C276 C 0.7833 0.66543 0.59236 0.0
C277 C 0.75982 0.63966 0.59369 0.0
C278 C 0.76298 0.62989 0.61385 0.0
C279 C 0.82526 0.66471 0.57794 0.0
C280 C 0.74939 0.68694 0.58741 0.0
H281 H 0.66623 0.54665 0.58966 0.0
H282 H 0.70746 0.55164 0.664 0.0
H283 H 0.67492 0.60645 0.65294 0.0
H284 H 0.71901 0.62875 0.65509 0.0
H285 H 0.7188 0.60134 0.67173 0.0
H286 H 0.79835 0.56693 0.63856 0.0
H287 H 0.78668 0.57935 0.66383 0.0
H288 H 0.81411 0.5983 0.64416 0.0
H289 H 0.662 0.59533 0.52307 0.0
H290 H 0.72829 0.66749 0.5127 0.0
H291 H 0.75678 0.66726 0.54778 0.0
H292 H 0.7468 0.57041 0.54893 0.0
H293 H 0.6919 0.55578 0.54617 0.0
H294 H 0.72381 0.55355 0.56993 0.0
H295 H 0.62292 0.60766 0.56692 0.0
H296 H 0.63054 0.58199 0.58379 0.0
H297 H 0.62339 0.57614 0.55653 0.0
H298 H 0.64194 0.51342 0.61288 0.0
C299 C 0.67596 0.54835 0.60559 0.0
C300 C 0.68241 0.83078 0.14469 0.0
C301 C 0.66933 0.8072 0.13653 0.0
C302 C 0.67718 0.80223 0.11541 0.0
C303 C 0.7122 0.8437 0.11117 0.0
C304 C 0.70411 0.84853 0.13187 0.0
C305 C 0.72332 0.87365 0.13857 0.0
H306 H 0.84839 0.97846 0.11787 0.0
C307 C 0.73732 0.8657 0.10246 0.0
C308 C 0.74383 0.88329 0.11848 0.0
H309 H 0.78747 0.95525 0.17576 0.0
H310 H 0.75325 0.91922 0.15918 0.0
H311 H 0.88105 0.92437 0.10402 0.0
H312 H 0.75701 0.9634 0.08877 0.0
H313 H 0.77779 0.94885 0.0662 0.0
H314 H 0.81143 0.973 0.07878 0.0
H315 H 0.88008 0.95087 0.08665 0.0
H316 H 0.86959 0.91905 0.07772 0.0
C317 C 0.76026 0.86855 0.15518 0.0
C318 C 0.6834 0.89047 0.14599 0.0
C319 C 0.78829 0.86485 0.02714 0.0
C320 C 0.81354 0.88198 0.01508 0.0
C321 C 0.8282 0.90497 0.02391 0.0
C322 C 0.81829 0.91078 0.04461 0.0
C323 C 0.79357 0.89334 0.05668 0.0
C324 C 0.77866 0.8709 0.04784 0.0
C325 C 0.75308 0.85458 0.06303 0.0
C326 C 0.75515 0.87082 0.08241 0.0
C327 C 0.77902 0.89354 0.07864 0.0
C328 C 0.77936 0.82939 0.0656 0.0
C329 C 0.7037 0.85136 0.05512 0.0
C330 C 0.82723 0.96571 0.12684 0.0
C331 C 0.82117 0.96953 0.14826 0.0
C332 C 0.79343 0.95248 0.15938 0.0
C333 C 0.77347 0.93153 0.14969 0.0
C334 C 0.78141 0.92724 0.12857 0.0
C335 C 0.8072 0.94437 0.11736 0.0
C336 C 0.81205 0.93629 0.09505 0.0
C337 C 0.7859 0.91128 0.09498 0.0
C338 C 0.76806 0.90619 0.11471 0.0
C339 C 0.86328 0.93256 0.09041 0.0
C340 C 0.78872 0.95642 0.08133 0.0
H341 H 0.70302 0.81552 0.08671 0.0
H342 H 0.67733 0.83498 0.16093 0.0
H343 H 0.65201 0.88652 0.13691 0.0
H344 H 0.68997 0.91091 0.14371 0.0
H345 H 0.6754 0.88694 0.16253 0.0
H346 H 0.77834 0.85049 0.15201 0.0
H347 H 0.74504 0.86709 0.17086 0.0
H348 H 0.78749 0.88302 0.1554 0.0
H349 H 0.77658 0.84708 0.02062 0.0
H350 H 0.8475 0.91842 0.01473 0.0
H351 H 0.83056 0.92855 0.05047 0.0
H352 H 0.81669 0.8325 0.06407 0.0
H353 H 0.76906 0.81539 0.05365 0.0
H354 H 0.77504 0.82086 0.08106 0.0
H355 H 0.69079 0.86951 0.04869 0.0
H356 H 0.67952 0.84616 0.06749 0.0
H357 H 0.70183 0.83691 0.04266 0.0
H358 H 0.66711 0.78421 0.1088 0.0
C359 C 0.69808 0.82043 0.10265 0.0
C360 C 0.19254 0.95052 0.36166 0.0
C361 C 0.16722 0.97124 0.36899 0.0
C362 C 0.15676 0.97237 0.3903 0.0
C363 C 0.19517 0.93242 0.39621 0.0
C364 C 0.20594 0.93148 0.37543 0.0
C365 C 0.2322 0.90807 0.36994 0.0
H366 H 0.32063 0.79478 0.39667 0.0
C367 C 0.21317 0.90923 0.40615 0.0
C368 C 0.23508 0.89498 0.39082 0.0
H369 H 0.31922 0.83147 0.33692 0.0
H370 H 0.283 0.86785 0.3516 0.0
H371 H 0.34551 0.84828 0.42425 0.0
H372 H 0.21957 0.81003 0.40921 0.0
H373 H 0.21712 0.82011 0.43508 0.0
H374 H 0.25918 0.79716 0.42749 0.0
H375 H 0.33151 0.81735 0.43398 0.0
H376 H 0.31148 0.84559 0.44662 0.0
C377 C 0.27975 0.91641 0.36194 0.0
C378 C 0.20346 0.89259 0.35423 0.0
C379 C 0.1819 0.89291 0.48242 0.0
C380 C 0.19097 0.87243 0.49569 0.0
C381 C 0.21601 0.85175 0.48786 0.0
C382 C 0.23115 0.85131 0.46723 0.0
C383 C 0.22096 0.87167 0.45406 0.0
C384 C 0.19688 0.89207 0.46179 0.0
C385 C 0.18795 0.91173 0.44547 0.0
C386 C 0.21059 0.89986 0.42673 0.0
C387 C 0.23011 0.87635 0.43178 0.0
C388 C 0.21194 0.93664 0.45203 0.0
C389 C 0.13574 0.91398 0.44268 0.0
C390 C 0.31286 0.81087 0.38693 0.0
C391 C 0.32236 0.81021 0.36554 0.0
C392 C 0.31165 0.83141 0.35333 0.0
C393 C 0.2906 0.85258 0.36192 0.0
C394 C 0.27958 0.85273 0.38303 0.0
C395 C 0.29115 0.83233 0.39533 0.0
C396 C 0.27552 0.83606 0.41742 0.0
C397 C 0.25262 0.86192 0.41616 0.0
C398 C 0.25524 0.8714 0.3959 0.0
C399 C 0.31803 0.83673 0.43146 0.0
C400 C 0.24125 0.81471 0.42279 0.0
H401 H 0.16155 0.95523 0.41988 0.0
H402 H 0.20205 0.94912 0.34552 0.0
H403 H 0.16645 0.89451 0.35748 0.0
H404 H 0.20977 0.87201 0.35502 0.0
H405 H 0.20946 0.89921 0.33815 0.0
H406 H 0.29113 0.9343 0.36948 0.0
H407 H 0.27929 0.91978 0.34498 0.0
H408 H 0.30674 0.90263 0.36564 0.0
H409 H 0.16241 0.90898 0.4878 0.0
H410 H 0.22411 0.83586 0.49776 0.0
H411 H 0.2499 0.83501 0.46228 0.0
H412 H 0.24486 0.93264 0.45984 0.0
H413 H 0.19058 0.9476 0.46298 0.0
H414 H 0.22097 0.94883 0.43875 0.0
H415 H 0.11885 0.89522 0.44458 0.0
H416 H 0.12582 0.9203 0.42707 0.0
H417 H 0.12089 0.92704 0.4543 0.0
H418 H 0.1369 0.98785 0.39647 0.0
C419 C 0.17075 0.95322 0.4039 0.0
C420 C 0.19142 0.67359 0.86423 0.0
C421 C 0.17679 0.69697 0.87205 0.0
C422 C 0.18231 0.70183 0.89342 0.0
C423 C 0.21899 0.66095 0.89819 0.0
C424 C 0.21233 0.65614 0.87738 0.0
C425 C 0.23143 0.63117 0.87078 0.0
H426 H 0.35264 0.52627 0.89176 0.0
C427 C 0.24381 0.639 0.90715 0.0
C428 C 0.25096 0.62162 0.89097 0.0
H429 H 0.29617 0.55025 0.83332 0.0
H430 H 0.26189 0.58636 0.84973 0.0
H431 H 0.38696 0.57985 0.90519 0.0
H432 H 0.26364 0.53971 0.91957 0.0
H433 H 0.27935 0.55578 0.94224 0.0
H434 H 0.317 0.53226 0.93149 0.0
H435 H 0.38509 0.55411 0.92328 0.0
H436 H 0.37513 0.58637 0.93121 0.0
C437 C 0.269 0.63634 0.85438 0.0
C438 C 0.1915 0.61429 0.86315 0.0
C439 C 0.29358 0.63682 0.98324 0.0
C440 C 0.31854 0.61893 0.9949 0.0
C441 C 0.33288 0.59655 0.98497 0.0
C442 C 0.32283 0.59196 0.96417 0.0
C443 C 0.2985 0.60999 0.95275 0.0
C444 C 0.28399 0.63197 0.96223 0.0
C445 C 0.25886 0.64895 0.94725 0.0
C446 C 0.26089 0.63345 0.92735 0.0
C447 C 0.28438 0.61067 0.93082 0.0
C448 C 0.28548 0.67415 0.94536 0.0
C449 C 0.20952 0.65212 0.95503 0.0
C450 C 0.33242 0.53923 0.88263 0.0
C451 C 0.32724 0.5356 0.86122 0.0
C452 C 0.30102 0.55289 0.84979 0.0
C453 C 0.28116 0.57386 0.85937 0.0
C454 C 0.28806 0.57789 0.88063 0.0
C455 C 0.31284 0.56058 0.89195 0.0
C456 C 0.31736 0.56838 0.91425 0.0
C457 C 0.29157 0.59331 0.91435 0.0
C458 C 0.27466 0.59873 0.89461 0.0
C459 C 0.36868 0.57226 0.91895 0.0
C460 C 0.29349 0.54801 0.92774 0.0
H461 H 0.20698 0.68885 0.92253 0.0
H462 H 0.18701 0.6689 0.84804 0.0
H463 H 0.16011 0.6179 0.8723 0.0
H464 H 0.19803 0.59384 0.86512 0.0
H465 H 0.18349 0.61813 0.84667 0.0
H466 H 0.28602 0.65491 0.85711 0.0
H467 H 0.25456 0.63673 0.83852 0.0
H468 H 0.29699 0.62247 0.85491 0.0
H469 H 0.28162 0.65416 0.99028 0.0
H470 H 0.35295 0.58264 0.99315 0.0
H471 H 0.33506 0.57458 0.95771 0.0
H472 H 0.32271 0.67056 0.94456 0.0
H473 H 0.27904 0.68653 0.95893 0.0
H474 H 0.27724 0.6847 0.93115 0.0
H475 H 0.19545 0.63364 0.96034 0.0
H476 H 0.18621 0.65876 0.94284 0.0
H477 H 0.20811 0.66553 0.96825 0.0
H478 H 0.17141 0.7197 0.89992 0.0
C479 C 0.20328 0.68396 0.90651 0.0
Tb480 Tb 0.05836 0.1415 0.23652 0.0
C481 C 0.85295 0.12423 0.26175 0.0
N482 N 0.87776 0.146 0.26155 0.0
C483 C 0.81439 0.16841 0.24716 0.0
C484 C 0.80779 0.12365 0.25446 0.0
C485 C 0.85906 0.16806 0.25458 0.0
C486 C 0.78865 0.14611 0.24705 0.0
C487 C 0.84849 0.07947 0.26993 0.0
C488 C 0.87314 0.10242 0.26928 0.0
C489 C 0.80352 0.07873 0.2626 0.0
C490 C 0.78322 0.10077 0.25488 0.0
Tb491 Tb 0.94958 0.14315 0.27474 0.0
N492 N 0.91689 0.10381 0.27608 0.0
C493 C 0.86953 0.05808 0.27829 0.0
C494 C 0.93624 0.08348 0.28557 0.0
C495 C 0.9134 0.0602 0.28639 0.0
H496 H 0.87801 0.18559 0.25527 0.0
H497 H 0.92928 0.04405 0.29368 0.0
H498 H 0.12779 0.09739 0.25571 0.0
H499 H 0.07796 0.2421 0.2241 0.0
H500 H 0.96838 0.08524 0.29328 0.0
H501 H 0.85175 0.04009 0.27912 0.0
H502 H 0.03662 0.20163 0.22389 0.0
H503 H 0.79969 0.18594 0.24172 0.0
H504 H 0.78402 0.06128 0.263 0.0
H505 H 0.74842 0.09994 0.24939 0.0
H506 H 0.20588 0.09596 0.26938 0.0
H507 H 0.75398 0.14648 0.24138 0.0
H508 H 0.15729 0.24399 0.23675 0.0
N509 N 0.129 0.13724 0.25049 0.0
C510 C 0.15435 0.15885 0.25078 0.0
C511 C 0.19168 0.11379 0.26434 0.0
C512 C 0.19963 0.15872 0.25791 0.0
C513 C 0.14706 0.11477 0.25693 0.0
C514 C 0.21811 0.13584 0.26481 0.0
N515 N 0.09006 0.18091 0.23802 0.0
C516 C 0.07017 0.20223 0.23039 0.0
C517 C 0.15979 0.20404 0.24415 0.0
C518 C 0.13446 0.18133 0.24414 0.0
C519 C 0.13888 0.22618 0.23712 0.0
C520 C 0.09399 0.22522 0.2301 0.0
H521 H 0.2528 0.13495 0.27041 0.0
H522 H 0.2599 0.18158 0.26321 0.0
H523 H 0.22519 0.22117 0.25104 0.0
O524 O 0.05879 0.14893 0.20427 0.0
O525 O 0.06562 0.16026 0.26698 0.0
O526 O 0.99472 0.17597 0.27383 0.0
O527 O 0.1087 0.12484 0.21815 0.0
O528 O 0.99558 0.15941 0.22525 0.0
O529 O 0.96003 0.17574 0.25422 0.0
O530 O 0.95198 0.13825 0.30778 0.0
O531 O 0.94121 0.12316 0.24486 0.0
O532 O 0.01254 0.10871 0.23492 0.0
O533 O 0.90446 0.16384 0.29285 0.0
O534 O 0.01254 0.12393 0.28476 0.0
O535 O 0.04665 0.10765 0.25524 0.0
C536 C 0.03858 0.17551 0.2773 0.0
C537 C 0.09567 0.11872 0.18242 0.0
C538 C 0.10843 0.11457 0.14516 0.0
C539 C 0.10879 0.08813 0.14743 0.0
C540 C 0.09576 0.09219 0.18421 0.0
C541 C 0.10259 0.07706 0.16681 0.0
C542 C 0.10218 0.12988 0.16277 0.0
C543 C 0.96586 0.17461 0.23403 0.0
C544 C 0.09437 0.13486 0.20107 0.0
C545 C 0.22494 0.18134 0.25791 0.0
C546 C 0.20514 0.20391 0.251 0.0
C547 C 0.96771 0.10804 0.23401 0.0
C548 C 0.90015 0.16354 0.3301 0.0
C549 C 0.88491 0.1594 0.36725 0.0
C550 C 0.86289 0.18291 0.36688 0.0
C551 C 0.87777 0.18703 0.33036 0.0
C552 C 0.90372 0.14959 0.34876 0.0
C553 C 0.85935 0.19657 0.34858 0.0
C554 C 0.03923 0.10754 0.27532 0.0
C555 C 0.91909 0.15447 0.31012 0.0
H556 H 0.11441 0.07602 0.13414 0.0
H557 H 0.09164 0.08314 0.19913 0.0
H558 H 0.10351 0.05666 0.16837 0.0
H559 H 0.10285 0.15033 0.16123 0.0
H560 H 0.84818 0.19068 0.38087 0.0
H561 H 0.8746 0.19823 0.31641 0.0
H562 H 0.92072 0.13143 0.34891 0.0
H563 H 0.84223 0.21467 0.34852 0.0
Tb564 Tb 0.45068 0.36344 0.73691 0.0
C565 C 0.65594 0.37903 0.76392 0.0
N566 N 0.63087 0.35737 0.7628 0.0
C567 C 0.69413 0.33559 0.74767 0.0
C568 C 0.70112 0.37989 0.75664 0.0
C569 C 0.64945 0.33566 0.75511 0.0
C570 C 0.72004 0.35782 0.74835 0.0
C571 C 0.66094 0.42322 0.77394 0.0
C572 C 0.63591 0.40047 0.77228 0.0
C573 C 0.7059 0.42423 0.76659 0.0
C574 C 0.72591 0.40264 0.75793 0.0
Tb575 Tb 0.55908 0.35972 0.77608 0.0
N576 N 0.59181 0.39898 0.77869 0.0
C577 C 0.64014 0.44419 0.78311 0.0
C578 C 0.57233 0.41898 0.78863 0.0
C579 C 0.59582 0.44195 0.7907 0.0
H580 H 0.63045 0.31816 0.75528 0.0
H581 H 0.57991 0.45783 0.79838 0.0
H582 H 0.38035 0.40537 0.75805 0.0
H583 H 0.42865 0.26538 0.71504 0.0
H584 H 0.53944 0.41724 0.79566 0.0
H585 H 0.65822 0.46201 0.78472 0.0
H586 H 0.4708 0.30535 0.71868 0.0
H587 H 0.70872 0.31832 0.74162 0.0
H588 H 0.72558 0.44159 0.76763 0.0
H589 H 0.76067 0.40368 0.7524 0.0
H590 H 0.30174 0.4059 0.77118 0.0
H591 H 0.7547 0.35767 0.74265 0.0
H592 H 0.34895 0.2623 0.72711 0.0
N593 N 0.37916 0.36626 0.75039 0.0
C594 C 0.35337 0.34493 0.74877 0.0
C595 C 0.31599 0.38853 0.76514 0.0
C596 C 0.30775 0.34453 0.75551 0.0
C597 C 0.36096 0.38805 0.75811 0.0
C598 C 0.28927 0.36666 0.7639 0.0
N599 N 0.41746 0.3244 0.73441 0.0
C600 C 0.43707 0.30411 0.72494 0.0
C601 C 0.34709 0.30102 0.7381 0.0
C602 C 0.37297 0.32339 0.74032 0.0
C603 C 0.36768 0.27985 0.72914 0.0
C604 C 0.41277 0.28147 0.72243 0.0
H605 H 0.25432 0.36714 0.7692 0.0
H606 H 0.24688 0.32152 0.75856 0.0
H607 H 0.28123 0.28346 0.74325 0.0
O608 O 0.44876 0.35873 0.70393 0.0
O609 O 0.44104 0.34211 0.7661 0.0
O610 O 0.51236 0.32755 0.77501 0.0
O611 O 0.40645 0.3861 0.72 0.0
O612 O 0.51354 0.34548 0.72597 0.0
O613 O 0.54821 0.32786 0.75474 0.0
O614 O 0.55897 0.36433 0.80898 0.0
O615 O 0.5689 0.38097 0.74693 0.0
O616 O 0.49789 0.39553 0.7372 0.0
O617 O 0.60326 0.33737 0.79353 0.0
O618 O 0.49609 0.378 0.78677 0.0
O619 O 0.46288 0.39543 0.75766 0.0
C620 C 0.46807 0.32791 0.77744 0.0
C621 C 0.39606 0.38491 0.68296 0.0
C622 C 0.38296 0.38292 0.6456 0.0
C623 C 0.35242 0.40315 0.64734 0.0
C624 C 0.36526 0.40521 0.68408 0.0
C625 C 0.34368 0.41418 0.66642 0.0
C626 C 0.40491 0.37364 0.6635 0.0
C627 C 0.54167 0.32923 0.73457 0.0
C628 C 0.41748 0.37606 0.70242 0.0
C629 C 0.28202 0.32219 0.75352 0.0
C630 C 0.3016 0.30051 0.7448 0.0
C631 C 0.5424 0.39532 0.73549 0.0
C632 C 0.6103 0.33868 0.83085 0.0
C633 C 0.62363 0.34283 0.8681 0.0
C634 C 0.64982 0.32071 0.86756 0.0
C635 C 0.63699 0.31664 0.83088 0.0
C636 C 0.6037 0.35193 0.84966 0.0
C637 C 0.65649 0.30777 0.84908 0.0
C638 C 0.46919 0.39459 0.7778 0.0
C639 C 0.59058 0.34729 0.81094 0.0
H640 H 0.33533 0.41049 0.63377 0.0
H641 H 0.35764 0.4143 0.69868 0.0
H642 H 0.3201 0.42981 0.66754 0.0
H643 H 0.42855 0.35803 0.66225 0.0
H644 H 0.66556 0.31355 0.88153 0.0
H645 H 0.64286 0.30609 0.81677 0.0
H646 H 0.58361 0.36908 0.84996 0.0
H647 H 0.677 0.2908 0.84886 0.0
Tb648 Tb 0.05684 0.86133 0.73487 0.0
C649 C 0.85335 0.8437 0.76092 0.0
N650 N 0.87907 0.86522 0.76146 0.0
C651 C 0.81504 0.88934 0.74956 0.0
C652 C 0.80771 0.84416 0.75417 0.0
C653 C 0.85968 0.88809 0.75691 0.0
C654 C 0.7891 0.86725 0.74793 0.0
C655 C 0.84465 0.7994 0.77043 0.0
C656 C 0.87151 0.82151 0.76888 0.0
C657 C 0.79981 0.79958 0.76298 0.0
C658 C 0.78143 0.82188 0.75482 0.0
Tb659 Tb 0.95033 0.86022 0.77524 0.0
N660 N 0.91496 0.82194 0.77606 0.0
C661 C 0.86323 0.77804 0.78003 0.0
C662 C 0.9322 0.80176 0.78665 0.0
C663 C 0.90702 0.77932 0.78838 0.0
H664 H 0.87766 0.90567 0.75952 0.0
H665 H 0.92113 0.76319 0.7964 0.0
H666 H 0.12747 0.817 0.75251 0.0
H667 H 0.08482 0.95999 0.71607 0.0
H668 H 0.9653 0.80304 0.79377 0.0
H669 H 0.84362 0.76072 0.78158 0.0
H670 H 0.0432 0.91946 0.71563 0.0
H671 H 0.80024 0.90747 0.7457 0.0
H672 H 0.77869 0.78275 0.76394 0.0
H673 H 0.74635 0.8219 0.74969 0.0
H674 H 0.20348 0.81549 0.76822 0.0
H675 H 0.75416 0.8684 0.7427 0.0
H676 H 0.1603 0.96278 0.73284 0.0
N677 N 0.12723 0.85717 0.74935 0.0
C678 C 0.15264 0.87872 0.75019 0.0
C679 C 0.18933 0.83347 0.76351 0.0
C680 C 0.19699 0.87862 0.75849 0.0
C681 C 0.14568 0.8345 0.75498 0.0
C682 C 0.21492 0.85567 0.76551 0.0
N683 N 0.09192 0.90003 0.73386 0.0
C684 C 0.07467 0.92071 0.72403 0.0
C685 C 0.16016 0.92345 0.74229 0.0
C686 C 0.13442 0.90086 0.7422 0.0
C687 C 0.14152 0.94508 0.7332 0.0
C688 C 0.09882 0.94361 0.72381 0.0
H689 H 0.2489 0.85477 0.77196 0.0
H690 H 0.25641 0.90153 0.76544 0.0
H691 H 0.22421 0.94077 0.75123 0.0
O692 O 0.08198 0.87008 0.70501 0.0
O693 O 0.06342 0.87943 0.76566 0.0
O694 O 0.99205 0.89466 0.77412 0.0
O695 O 0.08295 0.83137 0.71675 0.0
O696 O 0.99693 0.88332 0.72527 0.0
O697 O 0.95318 0.89344 0.7545 0.0
O698 O 0.96452 0.8579 0.80733 0.0
O699 O 0.95793 0.82911 0.75266 0.0
O700 O 0.98909 0.84946 0.72494 0.0
O701 O 0.89965 0.87039 0.79647 0.0
O702 O 0.01604 0.84454 0.78403 0.0
O703 O 0.04808 0.8274 0.75458 0.0
C704 C 0.03679 0.89601 0.77491 0.0
C705 C 0.11301 0.83797 0.68175 0.0
C706 C 0.12811 0.84273 0.64463 0.0
C707 C 0.15271 0.82004 0.64504 0.0
C708 C 0.13775 0.81529 0.6816 0.0
C709 C 0.15758 0.8065 0.66339 0.0
C710 C 0.1084 0.85186 0.66311 0.0
C711 C 0.96516 0.89649 0.73492 0.0
C712 C 0.09223 0.8466 0.70142 0.0
C713 C 0.22231 0.90122 0.75908 0.0
C714 C 0.20396 0.92358 0.75099 0.0
C715 C 0.96615 0.83047 0.7327 0.0
C716 C 0.9192 0.88252 0.83035 0.0
C717 C 0.90099 0.88829 0.86691 0.0
C718 C 0.89953 0.91457 0.86373 0.0
C719 C 0.91779 0.90884 0.82749 0.0
C720 C 0.9108 0.87227 0.85013 0.0
C721 C 0.90788 0.92474 0.84414 0.0
C722 C 0.04039 0.82711 0.77475 0.0
C723 C 0.92404 0.8653 0.8126 0.0
H724 H 0.1682 0.81276 0.63105 0.0
H725 H 0.14204 0.80438 0.69565 0.0
H726 H 0.17672 0.78904 0.66349 0.0
H727 H 0.08922 0.86934 0.66289 0.0
H728 H 0.89133 0.92718 0.8764 0.0
H729 H 0.92328 0.91701 0.81232 0.0
H730 H 0.91103 0.85192 0.85238 0.0
H731 H 0.90606 0.94501 0.84182 0.0
Tb732 Tb 0.44769 0.64386 0.23519 0.0
C733 C 0.65381 0.65705 0.26144 0.0
N734 N 0.62766 0.63578 0.26068 0.0
C735 C 0.69016 0.61239 0.24654 0.0
C736 C 0.69931 0.65685 0.25456 0.0
C737 C 0.64516 0.61352 0.25348 0.0
C738 C 0.71738 0.63413 0.24708 0.0
C739 C 0.65995 0.70195 0.269 0.0
C740 C 0.63431 0.67934 0.26857 0.0
C741 C 0.70548 0.70178 0.26237 0.0
C742 C 0.72511 0.67929 0.25519 0.0
Tb743 Tb 0.55627 0.63978 0.27403 0.0
N744 N 0.58971 0.67895 0.27436 0.0
C745 C 0.63902 0.72409 0.27599 0.0
C746 C 0.56979 0.7003 0.28198 0.0
C747 C 0.59383 0.72321 0.28261 0.0
H748 H 0.62501 0.59638 0.25371 0.0
H749 H 0.57765 0.74012 0.28848 0.0
H750 H 0.37515 0.68529 0.25507 0.0
H751 H 0.42739 0.54608 0.21206 0.0
H752 H 0.53592 0.69986 0.28807 0.0
H753 H 0.65754 0.74187 0.27655 0.0
H754 H 0.46677 0.58706 0.2145 0.0
H755 H 0.70396 0.59469 0.24095 0.0
H756 H 0.72574 0.71897 0.26264 0.0
H757 H 0.76018 0.67949 0.25002 0.0
H758 H 0.29647 0.68513 0.26825 0.0
H759 H 0.75226 0.63318 0.24171 0.0
H760 H 0.34935 0.54141 0.22595 0.0
N761 N 0.37519 0.64611 0.2477 0.0
C762 C 0.35029 0.62444 0.2465 0.0
C763 C 0.31131 0.66785 0.26234 0.0
C764 C 0.30485 0.62353 0.25345 0.0
C765 C 0.35623 0.6678 0.25521 0.0
C766 C 0.28552 0.6456 0.26153 0.0
N767 N 0.41498 0.60464 0.23223 0.0
C768 C 0.43445 0.58488 0.22199 0.0
C769 C 0.34605 0.58017 0.23674 0.0
C770 C 0.37082 0.60299 0.23848 0.0
C771 C 0.36725 0.55927 0.22767 0.0
C772 C 0.41142 0.56177 0.21997 0.0
H773 H 0.25068 0.64571 0.26701 0.0
H774 H 0.24531 0.59963 0.25734 0.0
H775 H 0.28126 0.56171 0.24256 0.0
O776 O 0.44946 0.64012 0.20221 0.0
O777 O 0.43694 0.62327 0.26459 0.0
O778 O 0.50782 0.60823 0.27342 0.0
O779 O 0.40437 0.66664 0.21761 0.0
O780 O 0.51031 0.62485 0.22445 0.0
O781 O 0.54268 0.60748 0.2538 0.0
O782 O 0.56008 0.64588 0.30696 0.0
O783 O 0.56573 0.65987 0.24423 0.0
O784 O 0.49475 0.67569 0.23777 0.0
O785 O 0.59957 0.61703 0.29119 0.0
O786 O 0.4944 0.65822 0.28566 0.0
O787 O 0.45792 0.67535 0.25708 0.0
C788 C 0.46348 0.60885 0.27599 0.0
C789 C 0.39885 0.66607 0.18019 0.0
C790 C 0.38595 0.66234 0.14282 0.0
C791 C 0.36001 0.68456 0.14348 0.0
C792 C 0.37243 0.68821 0.18022 0.0
C793 C 0.35323 0.69732 0.16203 0.0
C794 C 0.40545 0.65295 0.16129 0.0
C795 C 0.5377 0.60863 0.23362 0.0
C796 C 0.41769 0.65705 0.20018 0.0
C797 C 0.28028 0.60072 0.25209 0.0
C798 C 0.3008 0.5791 0.24372 0.0
C799 C 0.53844 0.67497 0.23386 0.0
C800 C 0.61438 0.62013 0.32772 0.0
C801 C 0.62553 0.61973 0.36528 0.0
C802 C 0.66293 0.60364 0.36261 0.0
C803 C 0.65231 0.60412 0.32569 0.0
C804 C 0.60113 0.62819 0.34774 0.0
C805 C 0.67625 0.59599 0.34298 0.0
C806 C 0.46501 0.67397 0.27726 0.0
C807 C 0.59058 0.62814 0.30856 0.0
H808 H 0.34439 0.69191 0.12955 0.0
H809 H 0.36643 0.69861 0.19439 0.0
H810 H 0.33282 0.71432 0.16233 0.0
H811 H 0.42523 0.63569 0.16094 0.0
H812 H 0.68216 0.59709 0.37586 0.0
H813 H 0.66385 0.59786 0.31063 0.0
H814 H 0.57227 0.64066 0.34967 0.0
H815 H 0.70536 0.58371 0.34114 0.0
H816 H 0.16062 0.02236 0.37608 0.0
H817 H 0.1375 0.96585 0.32893 0.0
H818 H 0.13046 0.05456 0.35353 0.0
H819 H 0.11226 0.99835 0.30536 0.0
H820 H 0.02809 0.05674 0.27189 0.0
H821 H 0.05867 0.02407 0.29425 0.0
H822 H 0.13528 0.08144 0.32753 0.0
H823 H 0.09961 0.11398 0.30655 0.0
C824 C 0.14933 0.0168 0.3608 0.0
C825 C 0.15123 0.99136 0.3545 0.0
C826 C 0.13275 0.03551 0.34752 0.0
C827 C 0.11853 0.02956 0.32724 0.0
C828 C 0.12162 0.00407 0.32084 0.0
C829 C 0.13714 0.98527 0.33432 0.0
C830 C 0.05133 0.06214 0.28414 0.0
C831 C 0.06105 0.08773 0.28782 0.0
C832 C 0.06951 0.04338 0.29693 0.0
C833 C 0.09977 0.04965 0.31314 0.0
C834 C 0.11101 0.07548 0.31595 0.0
C835 C 0.09106 0.09429 0.30375 0.0
H836 H 0.38225 0.53912 0.82772 0.0
H837 H 0.32501 0.48501 0.87049 0.0
H838 H 0.41852 0.50502 0.80868 0.0
H839 H 0.35948 0.45041 0.85085 0.0
H840 H 0.45857 0.39537 0.81994 0.0
H841 H 0.42695 0.42928 0.84111 0.0
H842 H 0.40014 0.47273 0.78579 0.0
H843 H 0.43435 0.43977 0.76498 0.0
C844 C 0.37722 0.5198 0.83291 0.0
C845 C 0.35057 0.51462 0.85042 0.0
C846 C 0.39772 0.50019 0.82193 0.0
C847 C 0.39143 0.47479 0.82795 0.0
C848 C 0.36548 0.46969 0.84582 0.0
C849 C 0.34553 0.48945 0.85704 0.0
C850 C 0.44605 0.41224 0.81236 0.0
C851 C 0.44859 0.41473 0.79074 0.0
C852 C 0.42756 0.43163 0.82448 0.0
C853 C 0.41096 0.45389 0.81524 0.0
C854 C 0.4133 0.45617 0.79359 0.0
C855 C 0.43234 0.43702 0.78155 0.0
H856 H 0.67372 0.47845 0.63472 0.0
H857 H 0.63287 0.53592 0.67828 0.0
H858 H 0.6446 0.44565 0.65784 0.0
H859 H 0.60251 0.50332 0.70118 0.0
H860 H 0.58651 0.43854 0.74658 0.0
H861 H 0.62105 0.47031 0.72405 0.0
H862 H 0.57637 0.42759 0.67066 0.0
H863 H 0.54388 0.39534 0.69359 0.0
C864 C 0.6582 0.48407 0.64919 0.0
C865 C 0.65564 0.5098 0.65465 0.0
C866 C 0.6413 0.46526 0.66245 0.0
C867 C 0.62094 0.47168 0.68146 0.0
C868 C 0.61862 0.49748 0.68691 0.0
C869 C 0.63594 0.51625 0.67374 0.0
C870 C 0.58526 0.43573 0.73007 0.0
C871 C 0.5637 0.41431 0.72181 0.0
C872 C 0.60427 0.45415 0.71707 0.0
C873 C 0.60172 0.45166 0.6954 0.0
C874 C 0.57981 0.43006 0.6872 0.0
C875 C 0.56089 0.41164 0.70029 0.0
H876 H 0.86866 0.9659 0.18417 0.0
H877 H 0.82722 0.02007 0.13799 0.0
H878 H 0.90356 0.99973 0.20435 0.0
H879 H 0.86276 0.05423 0.15827 0.0
H880 H 0.88422 0.10892 0.21513 0.0
H881 H 0.85015 0.07609 0.19312 0.0
H882 H 0.96889 0.02946 0.20184 0.0
H883 H 0.00291 0.06218 0.22357 0.0
C884 C 0.86709 0.98509 0.17832 0.0
C885 C 0.84489 0.99033 0.15955 0.0
C886 C 0.88738 0.00447 0.18982 0.0
C887 C 0.88583 0.0297 0.18297 0.0
C888 C 0.86411 0.035 0.16406 0.0
C889 C 0.84416 0.01546 0.15237 0.0
C890 C 0.90293 0.09162 0.21233 0.0
C891 C 0.94627 0.08815 0.22105 0.0
C892 C 0.88361 0.07294 0.1996 0.0
C893 C 0.90686 0.05018 0.19569 0.0
C894 C 0.95001 0.04671 0.2046 0.0
C895 C 0.9696 0.06551 0.21698 0.0
H896 H 0.78309 0.00219 0.67395 0.0
H897 H 0.91645 0.01984 0.64982 0.0
H898 H 0.81527 0.96743 0.69418 0.0
H899 H 0.94875 0.98517 0.67025 0.0
H900 H 0.98831 0.94629 0.73317 0.0
H901 H 0.95584 0.97874 0.7105 0.0
H902 H 0.85729 0.92443 0.68809 0.0
H903 H 0.89164 0.89162 0.70999 0.0
C904 C 0.81923 0.99848 0.67289 0.0
C905 C 0.84734 0.01375 0.66042 0.0
C906 C 0.83756 0.97856 0.68438 0.0
C907 C 0.8845 0.97378 0.6839 0.0
C908 C 0.91249 0.98864 0.67104 0.0
C909 C 0.89401 0.0083 0.65925 0.0
C910 C 0.95998 0.94133 0.72324 0.0
C911 C 0.94271 0.91654 0.72299 0.0
C912 C 0.94148 0.95981 0.71028 0.0
C913 C 0.90438 0.95399 0.69739 0.0
C914 C 0.88601 0.92936 0.6978 0.0
C915 C 0.90546 0.91068 0.71031 0.0
H916 H 0.7218 0.50322 0.17375 0.0
H917 H 0.58857 0.4824 0.15126 0.0
H918 H 0.68843 0.53862 0.19304 0.0
H919 H 0.55514 0.51744 0.17096 0.0
H920 H 0.52255 0.55803 0.23559 0.0
H921 H 0.55585 0.52498 0.21369 0.0
H922 H 0.63725 0.58144 0.18248 0.0
H923 H 0.60165 0.61476 0.2036 0.0
C924 C 0.68544 0.50633 0.17288 0.0
C925 C 0.65771 0.4901 0.16106 0.0
C926 C 0.66646 0.52657 0.18382 0.0
C927 C 0.6193 0.53061 0.18349 0.0
C928 C 0.59161 0.51461 0.17148 0.0
C929 C 0.61071 0.49471 0.16017 0.0
C930 C 0.54731 0.56332 0.22393 0.0
C931 C 0.55916 0.58883 0.22094 0.0
C932 C 0.5662 0.5445 0.21142 0.0
C933 C 0.59878 0.55077 0.19635 0.0
C934 C 0.61189 0.57622 0.19389 0.0
C935 C 0.59158 0.59519 0.20587 0.0
H936 H 0.28546 0.49651 0.33288 0.0
H937 H 0.40711 0.49254 0.37004 0.0
H938 H 0.3185 0.53026 0.31274 0.0
H939 H 0.43885 0.52837 0.35134 0.0
H940 H 0.50669 0.57479 0.301 0.0
H941 H 0.47332 0.54274 0.323 0.0
H942 H 0.33895 0.56998 0.30717 0.0
H943 H 0.37276 0.60092 0.2843 0.0
C944 C 0.31929 0.50304 0.3369 0.0
C945 C 0.34382 0.49139 0.3529 0.0
C946 C 0.33818 0.52297 0.32551 0.0
C947 C 0.38193 0.5325 0.33006 0.0
C948 C 0.40567 0.52147 0.34677 0.0
C949 C 0.38706 0.50109 0.35788 0.0
C950 C 0.46995 0.57375 0.30204 0.0
C951 C 0.44247 0.59011 0.29034 0.0
C952 C 0.45055 0.55543 0.31501 0.0
C953 C 0.40292 0.5531 0.31701 0.0
C954 C 0.37561 0.57023 0.3058 0.0
C955 C 0.39507 0.58831 0.29262 0.0
H956 H 0.13747 0.03759 0.82516 0.0
H957 H 0.16681 0.9842 0.87386 0.0
H958 H 0.10348 0.00394 0.80461 0.0
H959 H 0.1316 0.95027 0.85325 0.0
H960 H 0.11555 0.8937 0.79744 0.0
H961 H 0.14773 0.92648 0.82007 0.0
H962 H 0.03641 0.97605 0.80454 0.0
H963 H 0.00422 0.94328 0.7822 0.0
C964 C 0.1366 0.01862 0.83152 0.0
C965 C 0.15537 0.01358 0.85109 0.0
C966 C 0.11667 0.99934 0.81978 0.0
C967 C 0.11489 0.97436 0.82722 0.0
C968 C 0.1329 0.96927 0.84697 0.0
C969 C 0.15265 0.98873 0.85886 0.0
C970 C 0.09814 0.91165 0.79886 0.0
C971 C 0.05741 0.91597 0.78806 0.0
C972 C 0.11629 0.93032 0.81196 0.0
C973 C 0.09462 0.95389 0.81416 0.0
C974 C 0.05409 0.95818 0.80315 0.0
C975 C 0.03554 0.93938 0.7904 0.0
H976 H 0.1057 0.13802 0.01144 0.0
H977 H 0.24236 0.11913 0.02956 0.0
H978 H 0.08503 0.14456 0.04771 0.0
H979 H 0.2217 0.12443 0.06594 0.0
H980 H 0.18116 0.14199 0.13076 0.0
H981 H 0.19985 0.15047 0.09441 0.0
H982 H 0.07067 0.11799 0.07615 0.0
H983 H 0.05228 0.11014 0.11227 0.0
C984 C 0.13131 0.1354 0.02329 0.0
C985 C 0.17546 0.12796 0.01785 0.0
C986 C 0.11953 0.13902 0.04407 0.0
C987 C 0.15149 0.1348 0.05994 0.0
C988 C 0.19625 0.12824 0.05427 0.0
C989 C 0.20812 0.12497 0.03345 0.0
C990 C 0.15636 0.13747 0.11892 0.0
C991 C 0.11536 0.12535 0.12421 0.0
C992 C 0.16721 0.14201 0.09808 0.0
C993 C 0.13718 0.13452 0.08218 0.0
C994 C 0.09469 0.12418 0.0878 0.0
C995 C 0.08406 0.11957 0.10853 0.0
H996 H 0.40683 0.38712 0.51224 0.0
H997 H 0.27234 0.36057 0.52814 0.0
H998 H 0.43204 0.3798 0.54751 0.0
H999 H 0.29648 0.35443 0.56379 0.0
H1000 H 0.34365 0.34165 0.62741 0.0
H1001 H 0.33562 0.33499 0.59016 0.0
H1002 H 0.4272 0.39801 0.57919 0.0
H1003 H 0.43662 0.40333 0.61614 0.0
C1004 C 0.38256 0.37978 0.52337 0.0
C1005 C 0.33741 0.37476 0.51745 0.0
C1006 C 0.39696 0.37564 0.5437 0.0
C1007 C 0.36636 0.36685 0.55891 0.0
C1008 C 0.32152 0.36089 0.55269 0.0
C1009 C 0.30738 0.3646 0.5322 0.0
C1010 C 0.3637 0.35314 0.61691 0.0
C1011 C 0.3911 0.37284 0.62458 0.0
C1012 C 0.35837 0.34977 0.59551 0.0
C1013 C 0.37964 0.36639 0.58135 0.0
C1014 C 0.41025 0.38462 0.58927 0.0
C1015 C 0.41594 0.38772 0.61058 0.0
H1016 H 0.65396 0.33973 0.99783 0.0
H1017 H 0.685 0.41829 0.98554 0.0
H1018 H 0.63322 0.33378 0.96166 0.0
H1019 H 0.66216 0.41274 0.94965 0.0
H1020 H 0.6738 0.38258 0.88204 0.0
H1021 H 0.68545 0.39423 0.9182 0.0
H1022 H 0.57768 0.34275 0.93618 0.0
H1023 H 0.5676 0.33061 0.89997 0.0
C1024 C 0.65645 0.35573 0.98741 0.0
C1025 C 0.67114 0.37948 0.99468 0.0
C1026 C 0.64375 0.35247 0.96668 0.0
C1027 C 0.64538 0.37286 0.95261 0.0
C1028 C 0.66053 0.39654 0.95989 0.0
C1029 C 0.67331 0.39978 0.98058 0.0
C1030 C 0.65156 0.37453 0.8937 0.0
C1031 C 0.61952 0.35593 0.88826 0.0
C1032 C 0.65835 0.38105 0.9145 0.0
C1033 C 0.63322 0.36903 0.93031 0.0
C1034 C 0.59858 0.3519 0.92456 0.0
C1035 C 0.59209 0.34528 0.90378 0.0
H1036 H 0.90937 0.12047 0.49875 0.0
H1037 H 0.76759 0.13138 0.48433 0.0
H1038 H 0.92883 0.1247 0.46215 0.0
H1039 H 0.7869 0.13575 0.44763 0.0
H1040 H 0.82744 0.12276 0.38141 0.0
H1041 H 0.81497 0.11131 0.41773 0.0
H1042 H 0.93075 0.15716 0.43524 0.0
H1043 H 0.94307 0.16827 0.39897 0.0
C1044 C 0.88237 0.12382 0.4877 0.0
C1045 C 0.83695 0.12564 0.4944 0.0
C1046 C 0.89351 0.12629 0.46673 0.0
C1047 C 0.85945 0.13033 0.45185 0.0
C1048 C 0.81396 0.13224 0.4586 0.0
C1049 C 0.80289 0.13009 0.47964 0.0
C1050 C 0.8512 0.1295 0.39299 0.0
C1051 C 0.88666 0.14604 0.3874 0.0
C1052 C 0.84363 0.12336 0.41383 0.0
C1053 C 0.87134 0.13368 0.4295 0.0
C1054 C 0.90882 0.14876 0.42365 0.0
C1055 C 0.91618 0.15499 0.40284 0.0
H1056 H 0.88848 0.85798 1.00021 0.0
H1057 H 0.76376 0.89349 0.98111 0.0
H1058 H 0.91021 0.85206 0.96388 0.0
H1059 H 0.78531 0.88809 0.94484 0.0
H1060 H 0.82176 0.86698 0.88037 0.0
H1061 H 0.79956 0.85904 0.91638 0.0
H1062 H 0.9347 0.88034 0.93634 0.0
H1063 H 0.95647 0.88802 0.9004 0.0
C1064 C 0.86557 0.86422 0.98815 0.0
C1065 C 0.82458 0.8762 0.99328 0.0
C1066 C 0.87798 0.86095 0.96738 0.0
C1067 C 0.84959 0.86963 0.95136 0.0
C1068 C 0.80773 0.8808 0.95669 0.0
C1069 C 0.79544 0.88409 0.97743 0.0
C1070 C 0.84688 0.86925 0.89249 0.0
C1071 C 0.89071 0.87817 0.88776 0.0
C1072 C 0.83416 0.86494 0.9131 0.0
C1073 C 0.86509 0.86945 0.92934 0.0
C1074 C 0.90998 0.87657 0.92431 0.0
C1075 C 0.92252 0.88105 0.90374 0.0
H1076 H 0.68634 0.592 0.4877 0.0
H1077 H 0.65749 0.67182 0.49319 0.0
H1078 H 0.65747 0.59225 0.45252 0.0
H1079 H 0.62839 0.6721 0.45776 0.0
H1080 H 0.64781 0.66357 0.38505 0.0
H1081 H 0.65655 0.66834 0.42248 0.0
H1082 H 0.59027 0.596 0.43159 0.0
H1083 H 0.58268 0.59121 0.39418 0.0
C1084 C 0.67321 0.60957 0.48152 0.0
C1085 C 0.67433 0.63188 0.49338 0.0
C1086 C 0.65638 0.60971 0.46129 0.0
C1087 C 0.64006 0.63216 0.45224 0.0
C1088 C 0.64092 0.65449 0.46412 0.0
C1089 C 0.6578 0.65435 0.48443 0.0
C1090 C 0.63331 0.64929 0.39516 0.0
C1091 C 0.61429 0.62712 0.38678 0.0
C1092 C 0.6386 0.65188 0.41663 0.0
C1093 C 0.62521 0.63223 0.4301 0.0
C1094 C 0.60206 0.61122 0.42169 0.0
C1095 C 0.5969 0.60864 0.40028 0.0
H1096 H 0.3419 0.66386 0.01386 0.0
H1097 H 0.3238 0.58412 0.02654 0.0
H1098 H 0.36483 0.6707 0.04955 0.0
H1099 H 0.3498 0.59065 0.06179 0.0
H1100 H 0.34253 0.61947 0.12993 0.0
H1101 H 0.32886 0.60722 0.09403 0.0
H1102 H 0.42337 0.66508 0.07371 0.0
H1103 H 0.43518 0.67777 0.10961 0.0
C1104 C 0.34276 0.64775 0.02421 0.0
C1105 C 0.331 0.62342 0.0171 0.0
C1106 C 0.35686 0.65158 0.04469 0.0
C1107 C 0.35996 0.63119 0.05871 0.0
C1108 C 0.34778 0.6069 0.05163 0.0
C1109 C 0.33329 0.6031 0.03121 0.0
C1110 C 0.36151 0.62889 0.11777 0.0
C1111 C 0.39006 0.64945 0.12252 0.0
C1112 C 0.35353 0.62202 0.09711 0.0
C1113 C 0.37403 0.63558 0.08074 0.0
C1114 C 0.40574 0.6547 0.08575 0.0
C1115 C 0.41332 0.66168 0.10636 0.0
H1116 H 0.19115 0.91129 0.52415 0.0
H1117 H 0.15115 0.83312 0.5165 0.0
H1118 H 0.16584 0.90993 0.56022 0.0
H1119 H 0.12714 0.83147 0.55244 0.0
H1120 H 0.06658 0.83311 0.61432 0.0
H1121 H 0.0736 0.84468 0.57784 0.0
H1122 H 0.19037 0.89134 0.59246 0.0
H1123 H 0.1822 0.88013 0.62898 0.0
C1124 C 0.17664 0.89387 0.53011 0.0
C1125 C 0.17371 0.87221 0.51746 0.0
C1126 C 0.16237 0.89304 0.55085 0.0
C1127 C 0.14438 0.87058 0.55941 0.0
C1128 C 0.14018 0.84923 0.54647 0.0
C1129 C 0.15466 0.85003 0.52586 0.0
C1130 C 0.09256 0.84663 0.60977 0.0
C1131 C 0.12366 0.85587 0.62444 0.0
C1132 C 0.0971 0.85299 0.58883 0.0
C1133 C 0.13332 0.86846 0.582 0.0
C1134 C 0.16205 0.87941 0.59702 0.0
C1135 C 0.15736 0.87308 0.61801 0.0
H1136 H 0.09199 0.28175 0.37841 0.0
H1137 H 0.21283 0.28482 0.34062 0.0
H1138 H 0.05898 0.25012 0.35506 0.0
H1139 H 0.17996 0.25356 0.31712 0.0
H1140 H 0.12681 0.17878 0.29093 0.0
H1141 H 0.15944 0.20958 0.31475 0.0
H1142 H 0.02842 0.24564 0.32062 0.0
H1143 H 0.99567 0.21467 0.29695 0.0
C1144 C 0.11153 0.27552 0.36516 0.0
C1145 C 0.15494 0.28569 0.36133 0.0
C1146 C 0.09252 0.2576 0.35166 0.0
C1147 C 0.11676 0.24922 0.33415 0.0
C1148 C 0.16044 0.2593 0.33052 0.0
C1149 C 0.17918 0.27737 0.34389 0.0
C1150 C 0.10499 0.19337 0.29715 0.0
C1151 C 0.05866 0.1943 0.29182 0.0
C1152 C 0.12374 0.2111 0.31084 0.0
C1153 C 0.09664 0.23019 0.31965 0.0
C1154 C 0.05024 0.23104 0.31439 0.0
C1155 C 0.0315 0.21332 0.30068 0.0
H1156 H 0.30024 0.21227 0.83736 0.0
H1157 H 0.40996 0.22458 0.88045 0.0
H1158 H 0.33139 0.2445 0.81468 0.0
H1159 H 0.4434 0.25582 0.85721 0.0
H1160 H 0.47797 0.32557 0.81912 0.0
H1161 H 0.44472 0.29483 0.84297 0.0
H1162 H 0.38345 0.25564 0.79105 0.0
H1163 H 0.41462 0.2874 0.7679 0.0
C1164 C 0.33155 0.22169 0.84183 0.0
C1165 C 0.35264 0.2158 0.8607 0.0
C1166 C 0.34985 0.24017 0.82869 0.0
C1167 C 0.39056 0.25302 0.83373 0.0
C1168 C 0.41168 0.24696 0.8527 0.0
C1169 C 0.3927 0.22882 0.86608 0.0
C1170 C 0.45679 0.31048 0.81301 0.0
C1171 C 0.44768 0.3092 0.79175 0.0
C1172 C 0.43803 0.29257 0.82663 0.0
C1173 C 0.41066 0.27245 0.81925 0.0
C1174 C 0.40276 0.27108 0.79773 0.0
C1175 C 0.42068 0.28933 0.78426 0.0
H1176 H 0.6194 0.19106 0.66995 0.0
H1177 H 0.69192 0.25036 0.63763 0.0
H1178 H 0.58737 0.22238 0.69348 0.0
H1179 H 0.66004 0.28166 0.66119 0.0
H1180 H 0.55724 0.33335 0.69318 0.0
H1181 H 0.5895 0.30194 0.66992 0.0
H1182 H 0.60816 0.25088 0.72139 0.0
H1183 H 0.57467 0.28222 0.74464 0.0
C1184 C 0.62871 0.21077 0.6679 0.0
C1185 C 0.65827 0.21815 0.65183 0.0
C1186 C 0.61041 0.22874 0.68146 0.0
C1187 C 0.62115 0.2546 0.67932 0.0
C1188 C 0.65044 0.26199 0.66315 0.0
C1189 C 0.66869 0.24402 0.64958 0.0
C1190 C 0.56827 0.31543 0.69956 0.0
C1191 C 0.56359 0.31036 0.7208 0.0
C1192 C 0.5871 0.29746 0.68622 0.0
C1193 C 0.6016 0.27383 0.69372 0.0
C1194 C 0.59699 0.26877 0.71501 0.0
C1195 C 0.57825 0.28683 0.7284 0.0
H1196 H 0.89452 0.31109 0.16605 0.0
H1197 H 0.80285 0.25442 0.14179 0.0
H1198 H 0.92736 0.27973 0.18936 0.0
H1199 H 0.83444 0.22318 0.16553 0.0
H1200 H 0.93376 0.16729 0.19512 0.0
H1201 H 0.89986 0.19844 0.17199 0.0
H1202 H 0.91223 0.25542 0.2197 0.0
H1203 H 0.94664 0.22411 0.24268 0.0
C1204 C 0.88126 0.29192 0.16579 0.0
C1205 C 0.84627 0.28518 0.152 0.0
C1206 C 0.89985 0.27395 0.17926 0.0
C1207 C 0.88357 0.24882 0.17946 0.0
C1208 C 0.8485 0.24216 0.16562 0.0
C1209 C 0.8303 0.26007 0.15199 0.0
C1210 C 0.92912 0.18649 0.20062 0.0
C1211 C 0.94281 0.19332 0.22064 0.0
C1212 C 0.90937 0.20435 0.18743 0.0
C1213 C 0.90331 0.22959 0.19387 0.0
C1214 C 0.91676 0.23629 0.21407 0.0
C1215 C 0.93602 0.21831 0.22735 0.0
H1216 H 0.79297 0.71825 0.6745 0.0
H1217 H 0.91347 0.71534 0.63657 0.0
H1218 H 0.82597 0.75277 0.69459 0.0
H1219 H 0.94763 0.74968 0.65715 0.0
H1220 H 0.9761 0.82683 0.69046 0.0
H1221 H 0.94415 0.79466 0.66735 0.0
H1222 H 0.88551 0.75613 0.71996 0.0
H1223 H 0.9181 0.78766 0.74281 0.0
C1224 C 0.82656 0.72517 0.67043 0.0
C1225 C 0.85077 0.71409 0.65408 0.0
C1226 C 0.84569 0.74481 0.68203 0.0
C1227 C 0.88988 0.75375 0.67779 0.0
C1228 C 0.91348 0.74335 0.66082 0.0
C1229 C 0.89401 0.72372 0.64903 0.0
C1230 C 0.95624 0.81153 0.69709 0.0
C1231 C 0.94842 0.8104 0.71858 0.0
C1232 C 0.93811 0.793 0.68381 0.0
C1233 C 0.91136 0.77303 0.69169 0.0
C1234 C 0.90477 0.77159 0.71321 0.0
C1235 C 0.92336 0.78984 0.72642 0.0
H1236 H 0.59484 0.81124 0.16152 0.0
H1237 H 0.69923 0.75903 0.14258 0.0
H1238 H 0.56347 0.77929 0.18498 0.0
H1239 H 0.66791 0.72688 0.16584 0.0
H1240 H 0.62854 0.68437 0.22473 0.0
H1241 H 0.65967 0.71657 0.20175 0.0
H1242 H 0.52344 0.73963 0.18555 0.0
H1243 H 0.49239 0.70829 0.2093 0.0
C1244 C 0.61093 0.79285 0.16238 0.0
C1245 C 0.64929 0.78753 0.15021 0.0
C1246 C 0.59287 0.77446 0.17571 0.0
C1247 C 0.61311 0.75041 0.17738 0.0
C1248 C 0.65163 0.74521 0.16516 0.0
C1249 C 0.66934 0.76351 0.15166 0.0
C1250 C 0.60519 0.69648 0.21651 0.0
C1251 C 0.55793 0.69395 0.21927 0.0
C1252 C 0.62307 0.71481 0.20308 0.0
C1253 C 0.59415 0.73087 0.19177 0.0
C1254 C 0.54685 0.72802 0.19428 0.0
C1255 C 0.52902 0.70988 0.20786 0.0
H1256 H 0.40098 0.7844 0.37462 0.0
H1257 H 0.28678 0.78516 0.33278 0.0
H1258 H 0.43639 0.75072 0.35392 0.0
H1259 H 0.32148 0.75161 0.31235 0.0
H1260 H 0.42318 0.71843 0.26641 0.0
H1261 H 0.38822 0.74955 0.28914 0.0
H1262 H 0.42721 0.70543 0.34239 0.0
H1263 H 0.46127 0.67382 0.31961 0.0
C1264 C 0.38311 0.77699 0.36127 0.0
C1265 C 0.34133 0.78746 0.3552 0.0
C1266 C 0.40334 0.7578 0.34939 0.0
C1267 C 0.38204 0.74877 0.33129 0.0
C1268 C 0.3393 0.75853 0.32589 0.0
C1269 C 0.31927 0.77763 0.33766 0.0
C1270 C 0.42355 0.71502 0.28292 0.0
C1271 C 0.44395 0.69319 0.29109 0.0
C1272 C 0.40371 0.73298 0.29598 0.0
C1273 C 0.40443 0.72983 0.31759 0.0
C1274 C 0.42606 0.70842 0.32583 0.0
C1275 C 0.4454 0.69026 0.31273 0.0
H1276 H 0.10346 0.72818 0.87852 0.0
H1277 H 0.20506 0.70916 0.8329 0.0
H1278 H 0.07028 0.7586 0.85452 0.0
H1279 H 0.1722 0.7396 0.80899 0.0
H1280 H 0.07518 0.78037 0.76406 0.0
H1281 H 0.10729 0.74846 0.78733 0.0
H1282 H 0.08625 0.79867 0.83919 0.0
H1283 H 0.05398 0.83001 0.81624 0.0
C1284 C 0.11899 0.73064 0.86346 0.0
C1285 C 0.15692 0.71614 0.8577 0.0
C1286 C 0.09995 0.74808 0.84964 0.0
C1287 C 0.11849 0.75162 0.82972 0.0
C1288 C 0.15645 0.73712 0.824 0.0
C1289 C 0.17539 0.71967 0.83779 0.0
C1290 C 0.07777 0.78458 0.78041 0.0
C1291 C 0.062 0.80776 0.78822 0.0
C1292 C 0.09617 0.76632 0.79378 0.0
C1293 C 0.09912 0.77085 0.81525 0.0
C1294 C 0.08371 0.79419 0.82289 0.0
C1295 C 0.0654 0.8123 0.80961 0.0
loop_
_geom_bond_atom_site_label_1
_geom_bond_atom_site_label_2
_geom_bond_distance
_geom_bond_site_symmetry_2
_ccdc_geom_bond_type
C0 C1 1.391 . S
C0 C4 1.391 . S
C0 H42 0.948 . S
C1 C0 1.391 . S
C1 C2 1.391 . S
C2 C1 1.391 . S
C2 H58 0.947 . S
C2 C59 1.392 . S
C3 C4 1.391 . S
C3 C7 1.397 . S
C3 C59 1.419 . S
C4 C0 1.391 . S
C4 C3 1.391 . S
C4 C5 1.399 . S
C5 C4 1.399 . S
C5 C8 1.396 . S
C5 C17 1.453 . S
C5 C18 1.684 . S
H6 C30 0.948 . S
C7 C3 1.397 . S
C7 C8 1.394 . S
C7 C26 1.723 . S
C8 C5 1.396 . S
C8 C7 1.394 . S
C8 C38 1.723 . S
H9 C32 0.947 . S
H10 C33 0.948 . S
H11 C39 0.982 . S
H12 C40 0.979 . S
H13 C40 0.980 . S
H14 C40 0.983 . S
H15 C39 0.979 . S
H16 C39 0.977 . S
C17 C5 1.453 . S
C17 H46 0.982 . S
C17 H47 0.979 . S
C17 H48 0.977 . S
C18 C5 1.684 . S
C18 H43 0.979 . S
C18 H44 0.980 . S
C18 H45 0.983 . S
C19 C20 1.391 . S
C19 C24 1.391 . S
C19 H49 0.948 . S
C20 C19 1.391 . S
C20 C21 1.391 . S
C21 C20 1.391 . S
C21 C22 1.392 . S
C21 H50 0.947 . S
C22 C21 1.392 . S
C22 C23 1.419 . S
C22 H51 0.948 . S
C23 C22 1.419 . S
C23 C24 1.391 . S
C23 C27 1.397 . S
C24 C19 1.391 . S
C24 C23 1.391 . S
C24 C25 1.399 . S
C25 C24 1.399 . S
C25 C26 1.396 . S
C25 C28 1.453 . S
C25 C29 1.684 . S
C26 C7 1.723 . S
C26 C25 1.396 . S
C26 C27 1.394 . S
C27 C23 1.397 . S
C27 C26 1.394 . S
C27 C37 1.723 . S
C28 C25 1.453 . S
C28 H52 0.982 . S
C28 H53 0.979 . S
C28 H54 0.977 . S
C29 C25 1.684 . S
C29 H55 0.979 . S
C29 H56 0.980 . S
C29 H57 0.983 . S
C30 H6 0.948 . S
C30 C31 1.391 . S
C30 C35 1.391 . S
C31 C30 1.391 . S
C31 C32 1.391 . S
C32 H9 0.947 . S
C32 C31 1.391 . S
C32 C33 1.392 . S
C33 H10 0.948 . S
C33 C32 1.392 . S
C33 C34 1.419 . S
C34 C33 1.419 . S
C34 C35 1.391 . S
C34 C38 1.397 . S
C35 C30 1.391 . S
C35 C34 1.391 . S
C35 C36 1.399 . S
C36 C35 1.399 . S
C36 C37 1.396 . S
C36 C39 1.453 . S
C36 C40 1.684 . S
C37 C27 1.723 . S
C37 C36 1.396 . S
C37 C38 1.394 . S
C38 C8 1.723 . S
C38 C34 1.397 . S
C38 C37 1.394 . S
C39 H11 0.982 . S
C39 H15 0.979 . S
C39 H16 0.977 . S
C39 C36 1.453 . S
C40 H12 0.979 . S
C40 H13 0.980 . S
C40 H14 0.983 . S
C40 C36 1.684 . S
H41 C59 0.948 . S
H42 C0 0.948 . S
H43 C18 0.979 . S
H44 C18 0.980 . S
H45 C18 0.983 . S
H46 C17 0.982 . S
H47 C17 0.979 . S
H48 C17 0.977 . S
H49 C19 0.948 . S
H50 C21 0.947 . S
H51 C22 0.948 . S
H52 C28 0.982 . S
H53 C28 0.979 . S
H54 C28 0.977 . S
H55 C29 0.979 . S
H56 C29 0.980 . S
H57 C29 0.983 . S
H58 C2 0.947 . S
C59 C2 1.392 . S
C59 C3 1.419 . S
C59 H41 0.948 . S
C60 C61 1.391 . S
C60 C64 1.391 . S
C60 H102 0.948 . S
C61 C60 1.391 . S
C61 C62 1.391 . S
C62 C61 1.391 . S
C62 H118 0.947 . S
C62 C119 1.392 . S
C63 C64 1.391 . S
C63 C67 1.397 . S
C63 C119 1.419 . S
C64 C60 1.391 . S
C64 C63 1.391 . S
C64 C65 1.399 . S
C65 C64 1.399 . S
C65 C68 1.396 . S
C65 C77 1.453 . S
C65 C78 1.684 . S
H66 C90 0.948 . S
C67 C63 1.397 . S
C67 C68 1.394 . S
C67 C86 1.723 . S
C68 C65 1.396 . S
C68 C67 1.394 . S
C68 C98 1.723 . S
H69 C92 0.947 . S
H70 C93 0.948 . S
H71 C99 0.982 . S
H72 C100 0.979 . S
H73 C100 0.980 . S
H74 C100 0.983 . S
H75 C99 0.979 . S
H76 C99 0.977 . S
C77 C65 1.453 . S
C77 H106 0.982 . S
C77 H107 0.979 . S
C77 H108 0.977 . S
C78 C65 1.684 . S
C78 H103 0.979 . S
C78 H104 0.980 . S
C78 H105 0.983 . S
C79 C80 1.391 . S
C79 C84 1.391 . S
C79 H109 0.948 . S
C80 C79 1.391 . S
C80 C81 1.391 . S
C81 C80 1.391 . S
C81 C82 1.392 . S
C81 H110 0.947 . S
C82 C81 1.392 . S
C82 C83 1.419 . S
C82 H111 0.948 . S
C83 C82 1.419 . S
C83 C84 1.391 . S
C83 C87 1.397 . S
C84 C79 1.391 . S
C84 C83 1.391 . S
C84 C85 1.399 . S
C85 C84 1.399 . S
C85 C86 1.396 . S
C85 C88 1.453 . S
C85 C89 1.684 . S
C86 C67 1.723 . S
C86 C85 1.396 . S
C86 C87 1.394 . S
C87 C83 1.397 . S
C87 C86 1.394 . S
C87 C97 1.723 . S
C88 C85 1.453 . S
C88 H112 0.982 . S
C88 H113 0.979 . S
C88 H114 0.977 . S
C89 C85 1.684 . S
C89 H115 0.979 . S
C89 H116 0.980 . S
C89 H117 0.983 . S
C90 H66 0.948 . S
C90 C91 1.391 . S
C90 C95 1.391 . S
C91 C90 1.391 . S
C91 C92 1.391 . S
C92 H69 0.947 . S
C92 C91 1.391 . S
C92 C93 1.392 . S
C93 H70 0.948 . S
C93 C92 1.392 . S
C93 C94 1.419 . S
C94 C93 1.419 . S
C94 C95 1.391 . S
C94 C98 1.397 . S
C95 C90 1.391 . S
C95 C94 1.391 . S
C95 C96 1.399 . S
C96 C95 1.399 . S
C96 C97 1.396 . S
C96 C99 1.453 . S
C96 C100 1.684 . S
C97 C87 1.723 . S
C97 C96 1.396 . S
C97 C98 1.394 . S
C98 C68 1.723 . S
C98 C94 1.397 . S
C98 C97 1.394 . S
C99 H71 0.982 . S
C99 H75 0.979 . S
C99 H76 0.977 . S
C99 C96 1.453 . S
C100 H72 0.979 . S
C100 H73 0.980 . S
C100 H74 0.983 . S
C100 C96 1.684 . S
H101 C119 0.948 . S
H102 C60 0.948 . S
H103 C78 0.979 . S
H104 C78 0.980 . S
H105 C78 0.983 . S
H106 C77 0.982 . S
H107 C77 0.979 . S
H108 C77 0.977 . S
H109 C79 0.948 . S
H110 C81 0.947 . S
H111 C82 0.948 . S
H112 C88 0.982 . S
H113 C88 0.979 . S
H114 C88 0.977 . S
H115 C89 0.979 . S
H116 C89 0.980 . S
H117 C89 0.983 . S
H118 C62 0.947 . S
C119 C62 1.392 . S
C119 C63 1.419 . S
C119 H101 0.948 . S
C120 C121 1.391 . S
C120 C124 1.391 . S
C120 H162 0.948 . S
C121 C120 1.391 . S
C121 C122 1.391 . S
C122 C121 1.391 . S
C122 H178 0.947 . S
C122 C179 1.392 . S
C123 C124 1.391 . S
C123 C127 1.397 . S
C123 C179 1.419 . S
C124 C120 1.391 . S
C124 C123 1.391 . S
C124 C125 1.399 . S
C125 C124 1.399 . S
C125 C128 1.396 . S
C125 C137 1.453 . S
C125 C138 1.684 . S
H126 C150 0.948 . S
C127 C123 1.397 . S
C127 C128 1.394 . S
C127 C146 1.723 . S
C128 C125 1.396 . S
C128 C127 1.394 . S
C128 C158 1.723 . S
H129 C152 0.947 . S
H130 C153 0.948 . S
H131 C159 0.982 . S
H132 C160 0.979 . S
H133 C160 0.980 . S
H134 C160 0.983 . S
H135 C159 0.979 . S
H136 C159 0.977 . S
C137 C125 1.453 . S
C137 H166 0.982 . S
C137 H167 0.979 . S
C137 H168 0.977 . S
C138 C125 1.684 . S
C138 H163 0.979 . S
C138 H164 0.980 . S
C138 H165 0.983 . S
C139 C140 1.391 . S
C139 C144 1.391 . S
C139 H169 0.948 . S
C140 C139 1.391 . S
C140 C141 1.391 . S
C141 C140 1.391 . S
C141 C142 1.392 . S
C141 H170 0.947 . S
C142 C141 1.392 . S
C142 C143 1.419 . S
C142 H171 0.948 . S
C143 C142 1.419 . S
C143 C144 1.391 . S
C143 C147 1.397 . S
C144 C139 1.391 . S
C144 C143 1.391 . S
C144 C145 1.399 . S
C145 C144 1.399 . S
C145 C146 1.396 . S
C145 C148 1.453 . S
C145 C149 1.684 . S
C146 C127 1.723 . S
C146 C145 1.396 . S
C146 C147 1.394 . S
C147 C143 1.397 . S
C147 C146 1.394 . S
C147 C157 1.723 . S
C148 C145 1.453 . S
C148 H172 0.982 . S
C148 H173 0.979 . S
C148 H174 0.977 . S
C149 C145 1.684 . S
C149 H175 0.979 . S
C149 H176 0.980 . S
C149 H177 0.983 . S
C150 H126 0.948 . S
C150 C151 1.391 . S
C150 C155 1.391 . S
C151 C150 1.391 . S
C151 C152 1.391 . S
C152 H129 0.947 . S
C152 C151 1.391 . S
C152 C153 1.392 . S
C153 H130 0.948 . S
C153 C152 1.392 . S
C153 C154 1.419 . S
C154 C153 1.419 . S
C154 C155 1.391 . S
C154 C158 1.397 . S
C155 C150 1.391 . S
C155 C154 1.391 . S
C155 C156 1.399 . S
C156 C155 1.399 . S
C156 C157 1.396 . S
C156 C159 1.453 . S
C156 C160 1.684 . S
C157 C147 1.723 . S
C157 C156 1.396 . S
C157 C158 1.394 . S
C158 C128 1.723 . S
C158 C154 1.397 . S
C158 C157 1.394 . S
C159 H131 0.982 . S
C159 H135 0.979 . S
C159 H136 0.977 . S
C159 C156 1.453 . S
C160 H132 0.979 . S
C160 H133 0.980 . S
C160 H134 0.983 . S
C160 C156 1.684 . S
H161 C179 0.948 . S
H162 C120 0.948 . S
H163 C138 0.979 . S
H164 C138 0.980 . S
H165 C138 0.983 . S
H166 C137 0.982 . S
H167 C137 0.979 . S
H168 C137 0.977 . S
H169 C139 0.948 . S
H170 C141 0.947 . S
H171 C142 0.948 . S
H172 C148 0.982 . S
H173 C148 0.979 . S
H174 C148 0.977 . S
H175 C149 0.979 . S
H176 C149 0.980 . S
H177 C149 0.983 . S
H178 C122 0.947 . S
C179 C122 1.392 . S
C179 C123 1.419 . S
C179 H161 0.948 . S
C180 C181 1.391 . S
C180 C184 1.391 . S
C180 H222 0.948 . S
C181 C180 1.391 . S
C181 C182 1.391 . S
C182 C181 1.391 . S
C182 H238 0.947 . S
C182 C239 1.392 . S
C183 C184 1.391 . S
C183 C187 1.397 . S
C183 C239 1.419 . S
C184 C180 1.391 . S
C184 C183 1.391 . S
C184 C185 1.399 . S
C185 C184 1.399 . S
C185 C188 1.396 . S
C185 C197 1.453 . S
C185 C198 1.684 . S
H186 C210 0.948 . S
C187 C183 1.397 . S
C187 C188 1.394 . S
C187 C206 1.723 . S
C188 C185 1.396 . S
C188 C187 1.394 . S
C188 C218 1.723 . S
H189 C212 0.947 . S
H190 C213 0.948 . S
H191 C219 0.982 . S
H192 C220 0.979 . S
H193 C220 0.980 . S
H194 C220 0.983 . S
H195 C219 0.979 . S
H196 C219 0.977 . S
C197 C185 1.453 . S
C197 H226 0.982 . S
C197 H227 0.979 . S
C197 H228 0.977 . S
C198 C185 1.684 . S
C198 H223 0.979 . S
C198 H224 0.980 . S
C198 H225 0.983 . S
C199 C200 1.391 . S
C199 C204 1.391 . S
C199 H229 0.948 . S
C200 C199 1.391 . S
C200 C201 1.391 . S
C201 C200 1.391 . S
C201 C202 1.392 . S
C201 H230 0.947 . S
C202 C201 1.392 . S
C202 C203 1.419 . S
C202 H231 0.948 . S
C203 C202 1.419 . S
C203 C204 1.391 . S
C203 C207 1.397 . S
C204 C199 1.391 . S
C204 C203 1.391 . S
C204 C205 1.399 . S
C205 C204 1.399 . S
C205 C206 1.396 . S
C205 C208 1.453 . S
C205 C209 1.684 . S
C206 C187 1.723 . S
C206 C205 1.396 . S
C206 C207 1.394 . S
C207 C203 1.397 . S
C207 C206 1.394 . S
C207 C217 1.723 . S
C208 C205 1.453 . S
C208 H232 0.982 . S
C208 H233 0.979 . S
C208 H234 0.977 . S
C209 C205 1.684 . S
C209 H235 0.979 . S
C209 H236 0.980 . S
C209 H237 0.983 . S
C210 H186 0.948 . S
C210 C211 1.391 . S
C210 C215 1.391 . S
C211 C210 1.391 . S
C211 C212 1.391 . S
C212 H189 0.947 . S
C212 C211 1.391 . S
C212 C213 1.392 . S
C213 H190 0.948 . S
C213 C212 1.392 . S
C213 C214 1.419 . S
C214 C213 1.419 . S
C214 C215 1.391 . S
C214 C218 1.397 . S
C215 C210 1.391 . S
C215 C214 1.391 . S
C215 C216 1.399 . S
C216 C215 1.399 . S
C216 C217 1.396 . S
C216 C219 1.453 . S
C216 C220 1.684 . S
C217 C207 1.723 . S
C217 C216 1.396 . S
C217 C218 1.394 . S
C218 C188 1.723 . S
C218 C214 1.397 . S
C218 C217 1.394 . S
C219 H191 0.982 . S
C219 H195 0.979 . S
C219 H196 0.977 . S
C219 C216 1.453 . S
C220 H192 0.979 . S
C220 H193 0.980 . S
C220 H194 0.983 . S
C220 C216 1.684 . S
H221 C239 0.948 . S
H222 C180 0.948 . S
H223 C198 0.979 . S
H224 C198 0.980 . S
H225 C198 0.983 . S
H226 C197 0.982 . S
H227 C197 0.979 . S
H228 C197 0.977 . S
H229 C199 0.948 . S
H230 C201 0.947 . S
H231 C202 0.948 . S
H232 C208 0.982 . S
H233 C208 0.979 . S
H234 C208 0.977 . S
H235 C209 0.979 . S
H236 C209 0.980 . S
H237 C209 0.983 . S
H238 C182 0.947 . S
C239 C182 1.392 . S
C239 C183 1.419 . S
C239 H221 0.948 . S
C240 C241 1.391 . S
C240 C244 1.391 . S
C240 H282 0.948 . S
C241 C240 1.391 . S
C241 C242 1.391 . S
C242 C241 1.391 . S
C242 H298 0.947 . S
C242 C299 1.392 . S
C243 C244 1.391 . S
C243 C247 1.397 . S
C243 C299 1.419 . S
C244 C240 1.391 . S
C244 C243 1.391 . S
C244 C245 1.399 . S
C245 C244 1.399 . S
C245 C248 1.396 . S
C245 C257 1.453 . S
C245 C258 1.684 . S
H246 C270 0.948 . S
C247 C243 1.397 . S
C247 C248 1.394 . S
C247 C266 1.723 . S
C248 C245 1.396 . S
C248 C247 1.394 . S
C248 C278 1.723 . S
H249 C272 0.947 . S
H250 C273 0.948 . S
H251 C279 0.982 . S
H252 C280 0.979 . S
H253 C280 0.980 . S
H254 C280 0.983 . S
H255 C279 0.979 . S
H256 C279 0.977 . S
C257 C245 1.453 . S
C257 H286 0.982 . S
C257 H287 0.979 . S
C257 H288 0.977 . S
C258 C245 1.684 . S
C258 H283 0.979 . S
C258 H284 0.980 . S
C258 H285 0.983 . S
C259 C260 1.391 . S
C259 C264 1.391 . S
C259 H289 0.948 . S
C260 C259 1.391 . S
C260 C261 1.391 . S
C261 C260 1.391 . S
C261 C262 1.392 . S
C261 H290 0.947 . S
C262 C261 1.392 . S
C262 C263 1.419 . S
C262 H291 0.948 . S
C263 C262 1.419 . S
C263 C264 1.391 . S
C263 C267 1.397 . S
C264 C259 1.391 . S
C264 C263 1.391 . S
C264 C265 1.399 . S
C265 C264 1.399 . S
C265 C266 1.396 . S
C265 C268 1.453 . S
C265 C269 1.684 . S
C266 C247 1.723 . S
C266 C265 1.396 . S
C266 C267 1.394 . S
C267 C263 1.397 . S
C267 C266 1.394 . S
C267 C277 1.723 . S
C268 C265 1.453 . S
C268 H292 0.982 . S
C268 H293 0.979 . S
C268 H294 0.977 . S
C269 C265 1.684 . S
C269 H295 0.979 . S
C269 H296 0.980 . S
C269 H297 0.983 . S
C270 H246 0.948 . S
C270 C271 1.391 . S
C270 C275 1.391 . S
C271 C270 1.391 . S
C271 C272 1.391 . S
C272 H249 0.947 . S
C272 C271 1.391 . S
C272 C273 1.392 . S
C273 H250 0.948 . S
C273 C272 1.392 . S
C273 C274 1.419 . S
C274 C273 1.419 . S
C274 C275 1.391 . S
C274 C278 1.397 . S
C275 C270 1.391 . S
C275 C274 1.391 . S
C275 C276 1.399 . S
C276 C275 1.399 . S
C276 C277 1.396 . S
C276 C279 1.453 . S
C276 C280 1.684 . S
C277 C267 1.723 . S
C277 C276 1.396 . S
C277 C278 1.394 . S
C278 C248 1.723 . S
C278 C274 1.397 . S
C278 C277 1.394 . S
C279 H251 0.982 . S
C279 H255 0.979 . S
C279 H256 0.977 . S
C279 C276 1.453 . S
C280 H252 0.979 . S
C280 H253 0.980 . S
C280 H254 0.983 . S
C280 C276 1.684 . S
H281 C299 0.948 . S
H282 C240 0.948 . S
H283 C258 0.979 . S
H284 C258 0.980 . S
H285 C258 0.983 . S
H286 C257 0.982 . S
H287 C257 0.979 . S
H288 C257 0.977 . S
H289 C259 0.948 . S
H290 C261 0.947 . S
H291 C262 0.948 . S
H292 C268 0.982 . S
H293 C268 0.979 . S
H294 C268 0.977 . S
H295 C269 0.979 . S
H296 C269 0.980 . S
H297 C269 0.983 . S
H298 C242 0.947 . S
C299 C242 1.392 . S
C299 C243 1.419 . S
C299 H281 0.948 . S
C300 C301 1.391 . S
C300 C304 1.391 . S
C300 H342 0.948 . S
C301 C300 1.391 . S
C301 C302 1.391 . S
C302 C301 1.391 . S
C302 H358 0.947 . S
C302 C359 1.392 . S
C303 C304 1.391 . S
C303 C307 1.397 . S
C303 C359 1.419 . S
C304 C300 1.391 . S
C304 C303 1.391 . S
C304 C305 1.399 . S
C305 C304 1.399 . S
C305 C308 1.396 . S
C305 C317 1.453 . S
C305 C318 1.684 . S
H306 C330 0.948 . S
C307 C303 1.397 . S
C307 C308 1.394 . S
C307 C326 1.723 . S
C308 C305 1.396 . S
C308 C307 1.394 . S
C308 C338 1.723 . S
H309 C332 0.947 . S
H310 C333 0.948 . S
H311 C339 0.982 . S
H312 C340 0.979 . S
H313 C340 0.980 . S
H314 C340 0.983 . S
H315 C339 0.979 . S
H316 C339 0.977 . S
C317 C305 1.453 . S
C317 H346 0.982 . S
C317 H347 0.979 . S
C317 H348 0.977 . S
C318 C305 1.684 . S
C318 H343 0.979 . S
C318 H344 0.980 . S
C318 H345 0.983 . S
C319 C320 1.391 . S
C319 C324 1.391 . S
C319 H349 0.948 . S
C320 C319 1.391 . S
C320 C321 1.391 . S
C321 C320 1.391 . S
C321 C322 1.392 . S
C321 H350 0.947 . S
C322 C321 1.392 . S
C322 C323 1.419 . S
C322 H351 0.948 . S
C323 C322 1.419 . S
C323 C324 1.391 . S
C323 C327 1.397 . S
C324 C319 1.391 . S
C324 C323 1.391 . S
C324 C325 1.399 . S
C325 C324 1.399 . S
C325 C326 1.396 . S
C325 C328 1.453 . S
C325 C329 1.684 . S
C326 C307 1.723 . S
C326 C325 1.396 . S
C326 C327 1.394 . S
C327 C323 1.397 . S
C327 C326 1.394 . S
C327 C337 1.723 . S
C328 C325 1.453 . S
C328 H352 0.982 . S
C328 H353 0.979 . S
C328 H354 0.977 . S
C329 C325 1.684 . S
C329 H355 0.979 . S
C329 H356 0.980 . S
C329 H357 0.983 . S
C330 H306 0.948 . S
C330 C331 1.391 . S
C330 C335 1.391 . S
C331 C330 1.391 . S
C331 C332 1.391 . S
C332 H309 0.947 . S
C332 C331 1.391 . S
C332 C333 1.392 . S
C333 H310 0.948 . S
C333 C332 1.392 . S
C333 C334 1.419 . S
C334 C333 1.419 . S
C334 C335 1.391 . S
C334 C338 1.397 . S
C335 C330 1.391 . S
C335 C334 1.391 . S
C335 C336 1.399 . S
C336 C335 1.399 . S
C336 C337 1.396 . S
C336 C339 1.453 . S
C336 C340 1.684 . S
C337 C327 1.723 . S
C337 C336 1.396 . S
C337 C338 1.394 . S
C338 C308 1.723 . S
C338 C334 1.397 . S
C338 C337 1.394 . S
C339 H311 0.982 . S
C339 H315 0.979 . S
C339 H316 0.977 . S
C339 C336 1.453 . S
C340 H312 0.979 . S
C340 H313 0.980 . S
C340 H314 0.983 . S
C340 C336 1.684 . S
H341 C359 0.948 . S
H342 C300 0.948 . S
H343 C318 0.979 . S
H344 C318 0.980 . S
H345 C318 0.983 . S
H346 C317 0.982 . S
H347 C317 0.979 . S
H348 C317 0.977 . S
H349 C319 0.948 . S
H350 C321 0.947 . S
H351 C322 0.948 . S
H352 C328 0.982 . S
H353 C328 0.979 . S
H354 C328 0.977 . S
H355 C329 0.979 . S
H356 C329 0.980 . S
H357 C329 0.983 . S
H358 C302 0.947 . S
C359 C302 1.392 . S
C359 C303 1.419 . S
C359 H341 0.948 . S
C360 C361 1.391 . S
C360 C364 1.391 . S
C360 H402 0.948 . S
C361 C360 1.391 . S
C361 C362 1.391 . S
C362 C361 1.391 . S
C362 H418 0.947 . S
C362 C419 1.392 . S
C363 C364 1.391 . S
C363 C367 1.397 . S
C363 C419 1.419 . S
C364 C360 1.391 . S
C364 C363 1.391 . S
C364 C365 1.399 . S
C365 C364 1.399 . S
C365 C368 1.396 . S
C365 C377 1.453 . S
C365 C378 1.684 . S
H366 C390 0.948 . S
C367 C363 1.397 . S
C367 C368 1.394 . S
C367 C386 1.723 . S
C368 C365 1.396 . S
C368 C367 1.394 . S
C368 C398 1.723 . S
H369 C392 0.947 . S
H370 C393 0.948 . S
H371 C399 0.982 . S
H372 C400 0.979 . S
H373 C400 0.980 . S
H374 C400 0.983 . S
H375 C399 0.979 . S
H376 C399 0.977 . S
C377 C365 1.453 . S
C377 H406 0.982 . S
C377 H407 0.979 . S
C377 H408 0.977 . S
C378 C365 1.684 . S
C378 H403 0.979 . S
C378 H404 0.980 . S
C378 H405 0.983 . S
C379 C380 1.391 . S
C379 C384 1.391 . S
C379 H409 0.948 . S
C380 C379 1.391 . S
C380 C381 1.391 . S
C381 C380 1.391 . S
C381 C382 1.392 . S
C381 H410 0.947 . S
C382 C381 1.392 . S
C382 C383 1.419 . S
C382 H411 0.948 . S
C383 C382 1.419 . S
C383 C384 1.391 . S
C383 C387 1.397 . S
C384 C379 1.391 . S
C384 C383 1.391 . S
C384 C385 1.399 . S
C385 C384 1.399 . S
C385 C386 1.396 . S
C385 C388 1.453 . S
C385 C389 1.684 . S
C386 C367 1.723 . S
C386 C385 1.396 . S
C386 C387 1.394 . S
C387 C383 1.397 . S
C387 C386 1.394 . S
C387 C397 1.723 . S
C388 C385 1.453 . S
C388 H412 0.982 . S
C388 H413 0.979 . S
C388 H414 0.977 . S
C389 C385 1.684 . S
C389 H415 0.979 . S
C389 H416 0.980 . S
C389 H417 0.983 . S
C390 H366 0.948 . S
C390 C391 1.391 . S
C390 C395 1.391 . S
C391 C390 1.391 . S
C391 C392 1.391 . S
C392 H369 0.947 . S
C392 C391 1.391 . S
C392 C393 1.392 . S
C393 H370 0.948 . S
C393 C392 1.392 . S
C393 C394 1.419 . S
C394 C393 1.419 . S
C394 C395 1.391 . S
C394 C398 1.397 . S
C395 C390 1.391 . S
C395 C394 1.391 . S
C395 C396 1.399 . S
C396 C395 1.399 . S
C396 C397 1.396 . S
C396 C399 1.453 . S
C396 C400 1.684 . S
C397 C387 1.723 . S
C397 C396 1.396 . S
C397 C398 1.394 . S
C398 C368 1.723 . S
C398 C394 1.397 . S
C398 C397 1.394 . S
C399 H371 0.982 . S
C399 H375 0.979 . S
C399 H376 0.977 . S
C399 C396 1.453 . S
C400 H372 0.979 . S
C400 H373 0.980 . S
C400 H374 0.983 . S
C400 C396 1.684 . S
H401 C419 0.948 . S
H402 C360 0.948 . S
H403 C378 0.979 . S
H404 C378 0.980 . S
H405 C378 0.983 . S
H406 C377 0.982 . S
H407 C377 0.979 . S
H408 C377 0.977 . S
H409 C379 0.948 . S
H410 C381 0.947 . S
H411 C382 0.948 . S
H412 C388 0.982 . S
H413 C388 0.979 . S
H414 C388 0.977 . S
H415 C389 0.979 . S
H416 C389 0.980 . S
H417 C389 0.983 . S
H418 C362 0.947 . S
C419 C362 1.392 . S
C419 C363 1.419 . S
C419 H401 0.948 . S
C420 C421 1.391 . S
C420 C424 1.391 . S
C420 H462 0.948 . S
C421 C420 1.391 . S
C421 C422 1.391 . S
C422 C421 1.391 . S
C422 H478 0.947 . S
C422 C479 1.392 . S
C423 C424 1.391 . S
C423 C427 1.397 . S
C423 C479 1.419 . S
C424 C420 1.391 . S
C424 C423 1.391 . S
C424 C425 1.399 . S
C425 C424 1.399 . S
C425 C428 1.396 . S
C425 C437 1.453 . S
C425 C438 1.684 . S
H426 C450 0.948 . S
C427 C423 1.397 . S
C427 C428 1.394 . S
C427 C446 1.723 . S
C428 C425 1.396 . S
C428 C427 1.394 . S
C428 C458 1.723 . S
H429 C452 0.947 . S
H430 C453 0.948 . S
H431 C459 0.982 . S
H432 C460 0.979 . S
H433 C460 0.980 . S
H434 C460 0.983 . S
H435 C459 0.979 . S
H436 C459 0.977 . S
C437 C425 1.453 . S
C437 H466 0.982 . S
C437 H467 0.979 . S
C437 H468 0.977 . S
C438 C425 1.684 . S
C438 H463 0.979 . S
C438 H464 0.980 . S
C438 H465 0.983 . S
C439 C440 1.391 . S
C439 C444 1.391 . S
C439 H469 0.948 . S
C440 C439 1.391 . S
C440 C441 1.391 . S
C441 C440 1.391 . S
C441 C442 1.392 . S
C441 H470 0.947 . S
C442 C441 1.392 . S
C442 C443 1.419 . S
C442 H471 0.948 . S
C443 C442 1.419 . S
C443 C444 1.391 . S
C443 C447 1.397 . S
C444 C439 1.391 . S
C444 C443 1.391 . S
C444 C445 1.399 . S
C445 C444 1.399 . S
C445 C446 1.396 . S
C445 C448 1.453 . S
C445 C449 1.684 . S
C446 C427 1.723 . S
C446 C445 1.396 . S
C446 C447 1.394 . S
C447 C443 1.397 . S
C447 C446 1.394 . S
C447 C457 1.723 . S
C448 C445 1.453 . S
C448 H472 0.982 . S
C448 H473 0.979 . S
C448 H474 0.977 . S
C449 C445 1.684 . S
C449 H475 0.979 . S
C449 H476 0.980 . S
C449 H477 0.983 . S
C450 H426 0.948 . S
C450 C451 1.391 . S
C450 C455 1.391 . S
C451 C450 1.391 . S
C451 C452 1.391 . S
C452 H429 0.947 . S
C452 C451 1.391 . S
C452 C453 1.392 . S
C453 H430 0.948 . S
C453 C452 1.392 . S
C453 C454 1.419 . S
C454 C453 1.419 . S
C454 C455 1.391 . S
C454 C458 1.397 . S
C455 C450 1.391 . S
C455 C454 1.391 . S
C455 C456 1.399 . S
C456 C455 1.399 . S
C456 C457 1.396 . S
C456 C459 1.453 . S
C456 C460 1.684 . S
C457 C447 1.723 . S
C457 C456 1.396 . S
C457 C458 1.394 . S
C458 C428 1.723 . S
C458 C454 1.397 . S
C458 C457 1.394 . S
C459 H431 0.982 . S
C459 H435 0.979 . S
C459 H436 0.977 . S
C459 C456 1.453 . S
C460 H432 0.979 . S
C460 H433 0.980 . S
C460 H434 0.983 . S
C460 C456 1.684 . S
H461 C479 0.948 . S
H462 C420 0.948 . S
H463 C438 0.979 . S
H464 C438 0.980 . S
H465 C438 0.983 . S
H466 C437 0.982 . S
H467 C437 0.979 . S
H468 C437 0.977 . S
H469 C439 0.948 . S
H470 C441 0.947 . S
H471 C442 0.948 . S
H472 C448 0.982 . S
H473 C448 0.979 . S
H474 C448 0.977 . S
H475 C449 0.979 . S
H476 C449 0.980 . S
H477 C449 0.983 . S
H478 C422 0.947 . S
C479 C422 1.392 . S
C479 C423 1.419 . S
C479 H461 0.948 . S
Tb480 N509 2.617 . S
Tb480 N515 2.572 . S
Tb480 O524 2.465 . S
Tb480 O525 2.387 . S
Tb480 O527 2.428 . S
Tb480 O528 2.308 . S
Tb480 O532 2.349 . S
Tb480 O535 2.393 . S
Tb480 C544 2.802 . S
C481 N482 1.379 . S
C481 C484 1.416 . S
C481 C488 1.424 . S
N482 C481 1.379 . S
N482 C485 1.334 . S
N482 Tb491 2.617 . S
C483 C485 1.390 . S
C483 C486 1.339 . S
C483 H503 0.930 . S
C484 C481 1.416 . S
C484 C486 1.416 . S
C484 C490 1.448 . S
C485 N482 1.334 . S
C485 C483 1.390 . S
C485 H496 0.930 . S
C486 C483 1.339 . S
C486 C484 1.416 . S
C486 H507 0.930 . S
C487 C488 1.413 . S
C487 C489 1.427 . S
C487 C493 1.416 . S
C488 C481 1.424 . S
C488 C487 1.413 . S
C488 N492 1.361 . S
C489 C487 1.427 . S
C489 C490 1.328 . S
C489 H504 0.929 . S
C490 C484 1.448 . S
C490 C489 1.328 . S
C490 H505 0.930 . S
Tb491 N482 2.617 . S
Tb491 N492 2.572 . S
Tb491 O526 2.330 1_655 S
Tb491 O529 2.393 . S
Tb491 O530 2.465 . S
Tb491 O531 2.387 . S
Tb491 O533 2.428 . S
Tb491 O534 2.308 1_655 S
Tb491 C555 2.802 . S
N492 C488 1.361 . S
N492 Tb491 2.572 . S
N492 C494 1.340 . S
C493 C487 1.416 . S
C493 C495 1.332 . S
C493 H501 0.931 . S
C494 N492 1.340 . S
C494 C495 1.407 . S
C494 H500 0.930 . S
C495 C493 1.332 . S
C495 C494 1.407 . S
C495 H497 0.929 . S
H496 C485 0.930 . S
H497 C495 0.929 . S
H498 C513 0.930 . S
H499 C520 0.929 . S
H500 C494 0.930 . S
H501 C493 0.931 . S
H502 C516 0.930 . S
H503 C483 0.930 . S
H504 C489 0.929 . S
H505 C490 0.930 . S
H506 C511 0.930 . S
H507 C486 0.930 . S
H508 C519 0.931 . S
N509 Tb480 2.617 . S
N509 C510 1.379 . S
N509 C513 1.334 . S
C510 N509 1.379 . S
C510 C512 1.416 . S
C510 C518 1.424 . S
C511 H506 0.930 . S
C511 C513 1.390 . S
C511 C514 1.339 . S
C512 C510 1.416 . S
C512 C514 1.416 . S
C512 C545 1.448 . S
C513 H498 0.930 . S
C513 N509 1.334 . S
C513 C511 1.390 . S
C514 C511 1.339 . S
C514 C512 1.416 . S
C514 H521 0.930 . S
N515 Tb480 2.572 . S
N515 C516 1.340 . S
N515 C518 1.361 . S
C516 H502 0.930 . S
C516 N515 1.340 . S
C516 C520 1.407 . S
C517 C518 1.413 . S
C517 C519 1.416 . S
C517 C546 1.427 . S
C518 C510 1.424 . S
C518 N515 1.361 . S
C518 C517 1.413 . S
C519 H508 0.931 . S
C519 C517 1.416 . S
C519 C520 1.332 . S
C520 H499 0.929 . S
C520 C516 1.407 . S
C520 C519 1.332 . S
H521 C514 0.930 . S
H522 C545 0.930 . S
H523 C546 0.929 . S
O524 Tb480 2.465 . S
O524 C544 1.264 . S
O525 Tb480 2.387 . S
O525 C536 1.264 . S
O526 Tb491 2.330 1_455 S
O526 C536 1.268 . S
O527 Tb480 2.428 . S
O527 C544 1.256 . S
O528 Tb480 2.308 . S
O528 C543 1.266 1_455 S
O529 Tb491 2.393 . S
O529 C543 1.248 . S
O530 Tb491 2.465 . S
O530 C555 1.264 . S
O531 Tb491 2.387 . S
O531 C547 1.264 . S
O532 Tb480 2.349 . S
O532 C547 1.243 1_455 S
O533 Tb491 2.428 . S
O533 C555 1.256 . S
O534 Tb491 2.308 1_455 S
O534 C554 1.266 . S
O535 Tb480 2.393 . S
O535 C554 1.248 . S
C536 O525 1.264 . S
C536 O526 1.268 . S
C537 C540 1.399 . S
C537 C542 1.383 . S
C537 C544 1.496 . S
C538 C539 1.399 . S
C538 C542 1.389 . S
C539 C538 1.399 . S
C539 C541 1.380 . S
C539 H556 0.929 . S
C540 C537 1.399 . S
C540 C541 1.392 . S
C540 H557 0.929 . S
C541 C539 1.380 . S
C541 C540 1.392 . S
C541 H558 0.929 . S
C542 C537 1.383 . S
C542 C538 1.389 . S
C542 H559 0.931 . S
C543 O528 1.266 1_655 S
C543 O529 1.248 . S
C544 Tb480 2.802 . S
C544 O524 1.264 . S
C544 O527 1.256 . S
C544 C537 1.496 . S
C545 C512 1.448 . S
C545 H522 0.930 . S
C545 C546 1.328 . S
C546 C517 1.427 . S
C546 H523 0.929 . S
C546 C545 1.328 . S
C547 O531 1.264 . S
C547 O532 1.243 1_655 S
C548 C551 1.399 . S
C548 C552 1.383 . S
C548 C555 1.496 . S
C549 C550 1.399 . S
C549 C552 1.389 . S
C550 C549 1.399 . S
C550 C553 1.380 . S
C550 H560 0.929 . S
C551 C548 1.399 . S
C551 C553 1.392 . S
C551 H561 0.929 . S
C552 C548 1.383 . S
C552 C549 1.389 . S
C552 H562 0.931 . S
C553 C550 1.380 . S
C553 C551 1.392 . S
C553 H563 0.929 . S
C554 O534 1.266 . S
C554 O535 1.248 . S
C555 Tb491 2.802 . S
C555 O530 1.264 . S
C555 O533 1.256 . S
C555 C548 1.496 . S
H556 C539 0.929 . S
H557 C540 0.929 . S
H558 C541 0.929 . S
H559 C542 0.931 . S
H560 C550 0.929 . S
H561 C551 0.929 . S
H562 C552 0.931 . S
H563 C553 0.929 . S
Tb564 N593 2.617 . S
Tb564 N599 2.572 . S
Tb564 O608 2.465 . S
Tb564 O609 2.387 . S
Tb564 O611 2.428 . S
Tb564 O612 2.308 . S
Tb564 O616 2.349 . S
Tb564 O619 2.393 . S
Tb564 C628 2.802 . S
C565 N566 1.379 . S
C565 C568 1.416 . S
C565 C572 1.424 . S
N566 C565 1.379 . S
N566 C569 1.334 . S
N566 Tb575 2.617 . S
C567 C569 1.390 . S
C567 C570 1.339 . S
C567 H587 0.930 . S
C568 C565 1.416 . S
C568 C570 1.416 . S
C568 C574 1.448 . S
C569 N566 1.334 . S
C569 C567 1.390 . S
C569 H580 0.930 . S
C570 C567 1.339 . S
C570 C568 1.416 . S
C570 H591 0.930 . S
C571 C572 1.413 . S
C571 C573 1.427 . S
C571 C577 1.416 . S
C572 C565 1.424 . S
C572 C571 1.413 . S
C572 N576 1.361 . S
C573 C571 1.427 . S
C573 C574 1.328 . S
C573 H588 0.929 . S
C574 C568 1.448 . S
C574 C573 1.328 . S
C574 H589 0.930 . S
Tb575 N566 2.617 . S
Tb575 N576 2.572 . S
Tb575 O610 2.349 . S
Tb575 O613 2.393 . S
Tb575 O614 2.465 . S
Tb575 O615 2.387 . S
Tb575 O617 2.428 . S
Tb575 O618 2.308 . S
Tb575 C639 2.802 . S
N576 C572 1.361 . S
N576 Tb575 2.572 . S
N576 C578 1.340 . S
C577 C571 1.416 . S
C577 C579 1.332 . S
C577 H585 0.931 . S
C578 N576 1.340 . S
C578 C579 1.407 . S
C578 H584 0.930 . S
C579 C577 1.332 . S
C579 C578 1.407 . S
C579 H581 0.929 . S
H580 C569 0.930 . S
H581 C579 0.929 . S
H582 C597 0.930 . S
H583 C604 0.929 . S
H584 C578 0.930 . S
H585 C577 0.931 . S
H586 C600 0.930 . S
H587 C567 0.930 . S
H588 C573 0.929 . S
H589 C574 0.930 . S
H590 C595 0.930 . S
H591 C570 0.930 . S
H592 C603 0.931 . S
N593 Tb564 2.617 . S
N593 C594 1.379 . S
N593 C597 1.334 . S
C594 N593 1.379 . S
C594 C596 1.416 . S
C594 C602 1.424 . S
C595 H590 0.930 . S
C595 C597 1.390 . S
C595 C598 1.339 . S
C596 C594 1.416 . S
C596 C598 1.416 . S
C596 C629 1.448 . S
C597 H582 0.930 . S
C597 N593 1.334 . S
C597 C595 1.390 . S
C598 C595 1.339 . S
C598 C596 1.416 . S
C598 H605 0.930 . S
N599 Tb564 2.572 . S
N599 C600 1.340 . S
N599 C602 1.361 . S
C600 H586 0.930 . S
C600 N599 1.340 . S
C600 C604 1.407 . S
C601 C602 1.413 . S
C601 C603 1.416 . S
C601 C630 1.427 . S
C602 C594 1.424 . S
C602 N599 1.361 . S
C602 C601 1.413 . S
C603 H592 0.931 . S
C603 C601 1.416 . S
C603 C604 1.332 . S
C604 H583 0.929 . S
C604 C600 1.407 . S
C604 C603 1.332 . S
H605 C598 0.930 . S
H606 C629 0.930 . S
H607 C630 0.929 . S
O608 Tb564 2.465 . S
O608 C628 1.264 . S
O609 Tb564 2.387 . S
O609 C620 1.264 . S
O610 Tb575 2.349 . S
O610 C620 1.243 . S
O611 Tb564 2.428 . S
O611 C628 1.256 . S
O612 Tb564 2.308 . S
O612 C627 1.266 . S
O613 Tb575 2.393 . S
O613 C627 1.248 . S
O614 Tb575 2.465 . S
O614 C639 1.264 . S
O615 Tb575 2.387 . S
O615 C631 1.264 . S
O616 Tb564 2.349 . S
O616 C631 1.243 . S
O617 Tb575 2.428 . S
O617 C639 1.256 . S
O618 Tb575 2.308 . S
O618 C638 1.266 . S
O619 Tb564 2.393 . S
O619 C638 1.248 . S
C620 O609 1.264 . S
C620 O610 1.243 . S
C621 C624 1.399 . S
C621 C626 1.383 . S
C621 C628 1.496 . S
C622 C623 1.399 . S
C622 C626 1.389 . S
C623 C622 1.399 . S
C623 C625 1.380 . S
C623 H640 0.929 . S
C624 C621 1.399 . S
C624 C625 1.392 . S
C624 H641 0.929 . S
C625 C623 1.380 . S
C625 C624 1.392 . S
C625 H642 0.929 . S
C626 C621 1.383 . S
C626 C622 1.389 . S
C626 H643 0.931 . S
C627 O612 1.266 . S
C627 O613 1.248 . S
C628 Tb564 2.802 . S
C628 O608 1.264 . S
C628 O611 1.256 . S
C628 C621 1.496 . S
C629 C596 1.448 . S
C629 H606 0.930 . S
C629 C630 1.328 . S
C630 C601 1.427 . S
C630 H607 0.929 . S
C630 C629 1.328 . S
C631 O615 1.264 . S
C631 O616 1.243 . S
C632 C635 1.399 . S
C632 C636 1.383 . S
C632 C639 1.496 . S
C633 C634 1.399 . S
C633 C636 1.389 . S
C634 C633 1.399 . S
C634 C637 1.380 . S
C634 H644 0.929 . S
C635 C632 1.399 . S
C635 C637 1.392 . S
C635 H645 0.929 . S
C636 C632 1.383 . S
C636 C633 1.389 . S
C636 H646 0.931 . S
C637 C634 1.380 . S
C637 C635 1.392 . S
C637 H647 0.929 . S
C638 O618 1.266 . S
C638 O619 1.248 . S
C639 Tb575 2.802 . S
C639 O614 1.264 . S
C639 O617 1.256 . S
C639 C632 1.496 . S
H640 C623 0.929 . S
H641 C624 0.929 . S
H642 C625 0.929 . S
H643 C626 0.931 . S
H644 C634 0.929 . S
H645 C635 0.929 . S
H646 C636 0.931 . S
H647 C637 0.929 . S
Tb648 N677 2.617 . S
Tb648 N683 2.572 . S
Tb648 O692 2.465 . S
Tb648 O693 2.387 . S
Tb648 O695 2.428 . S
Tb648 O696 2.308 . S
Tb648 O700 2.349 . S
Tb648 O703 2.393 . S
Tb648 C712 2.802 . S
C649 N650 1.379 . S
C649 C652 1.416 . S
C649 C656 1.424 . S
N650 C649 1.379 . S
N650 C653 1.334 . S
N650 Tb659 2.617 . S
C651 C653 1.390 . S
C651 C654 1.339 . S
C651 H671 0.930 . S
C652 C649 1.416 . S
C652 C654 1.416 . S
C652 C658 1.448 . S
C653 N650 1.334 . S
C653 C651 1.390 . S
C653 H664 0.930 . S
C654 C651 1.339 . S
C654 C652 1.416 . S
C654 H675 0.930 . S
C655 C656 1.413 . S
C655 C657 1.427 . S
C655 C661 1.416 . S
C656 C649 1.424 . S
C656 C655 1.413 . S
C656 N660 1.361 . S
C657 C655 1.427 . S
C657 C658 1.328 . S
C657 H672 0.929 . S
C658 C652 1.448 . S
C658 C657 1.328 . S
C658 H673 0.930 . S
Tb659 N650 2.617 . S
Tb659 N660 2.572 . S
Tb659 O694 2.349 1_655 S
Tb659 O697 2.393 . S
Tb659 O698 2.465 . S
Tb659 O699 2.387 . S
Tb659 O701 2.428 . S
Tb659 O702 2.308 1_655 S
Tb659 C723 2.802 . S
N660 C656 1.361 . S
N660 Tb659 2.572 . S
N660 C662 1.340 . S
C661 C655 1.416 . S
C661 C663 1.332 . S
C661 H669 0.931 . S
C662 N660 1.340 . S
C662 C663 1.407 . S
C662 H668 0.930 . S
C663 C661 1.332 . S
C663 C662 1.407 . S
C663 H665 0.929 . S
H664 C653 0.930 . S
H665 C663 0.929 . S
H666 C681 0.930 . S
H667 C688 0.929 . S
H668 C662 0.930 . S
H669 C661 0.931 . S
H670 C684 0.930 . S
H671 C651 0.930 . S
H672 C657 0.929 . S
H673 C658 0.930 . S
H674 C679 0.930 . S
H675 C654 0.930 . S
H676 C687 0.931 . S
N677 Tb648 2.617 . S
N677 C678 1.379 . S
N677 C681 1.334 . S
C678 N677 1.379 . S
C678 C680 1.416 . S
C678 C686 1.424 . S
C679 H674 0.930 . S
C679 C681 1.390 . S
C679 C682 1.339 . S
C680 C678 1.416 . S
C680 C682 1.416 . S
C680 C713 1.448 . S
C681 H666 0.930 . S
C681 N677 1.334 . S
C681 C679 1.390 . S
C682 C679 1.339 . S
C682 C680 1.416 . S
C682 H689 0.930 . S
N683 Tb648 2.572 . S
N683 C684 1.340 . S
N683 C686 1.361 . S
C684 H670 0.930 . S
C684 N683 1.340 . S
C684 C688 1.407 . S
C685 C686 1.413 . S
C685 C687 1.416 . S
C685 C714 1.427 . S
C686 C678 1.424 . S
C686 N683 1.361 . S
C686 C685 1.413 . S
C687 H676 0.931 . S
C687 C685 1.416 . S
C687 C688 1.332 . S
C688 H667 0.929 . S
C688 C684 1.407 . S
C688 C687 1.332 . S
H689 C682 0.930 . S
H690 C713 0.930 . S
H691 C714 0.929 . S
O692 Tb648 2.465 . S
O692 C712 1.264 . S
O693 Tb648 2.387 . S
O693 C704 1.264 . S
O694 Tb659 2.349 1_455 S
O694 C704 1.243 . S
O695 Tb648 2.428 . S
O695 C712 1.256 . S
O696 Tb648 2.308 . S
O696 C711 1.266 1_455 S
O697 Tb659 2.393 . S
O697 C711 1.248 . S
O698 Tb659 2.465 . S
O698 C723 1.264 . S
O699 Tb659 2.387 . S
O699 C715 1.264 . S
O700 Tb648 2.349 . S
O700 C715 1.243 1_455 S
O701 Tb659 2.428 . S
O701 C723 1.256 . S
O702 Tb659 2.308 1_455 S
O702 C722 1.266 . S
O703 Tb648 2.393 . S
O703 C722 1.248 . S
C704 O693 1.264 . S
C704 O694 1.243 . S
C705 C708 1.399 . S
C705 C710 1.383 . S
C705 C712 1.496 . S
C706 C707 1.399 . S
C706 C710 1.389 . S
C707 C706 1.399 . S
C707 C709 1.380 . S
C707 H724 0.929 . S
C708 C705 1.399 . S
C708 C709 1.392 . S
C708 H725 0.929 . S
C709 C707 1.380 . S
C709 C708 1.392 . S
C709 H726 0.929 . S
C710 C705 1.383 . S
C710 C706 1.389 . S
C710 H727 0.931 . S
C711 O696 1.266 1_655 S
C711 O697 1.248 . S
C712 Tb648 2.802 . S
C712 O692 1.264 . S
C712 O695 1.256 . S
C712 C705 1.496 . S
C713 C680 1.448 . S
C713 H690 0.930 . S
C713 C714 1.328 . S
C714 C685 1.427 . S
C714 H691 0.929 . S
C714 C713 1.328 . S
C715 O699 1.264 . S
C715 O700 1.243 1_655 S
C716 C719 1.399 . S
C716 C720 1.383 . S
C716 C723 1.496 . S
C717 C718 1.399 . S
C717 C720 1.389 . S
C718 C717 1.399 . S
C718 C721 1.380 . S
C718 H728 0.929 . S
C719 C716 1.399 . S
C719 C721 1.392 . S
C719 H729 0.929 . S
C720 C716 1.383 . S
C720 C717 1.389 . S
C720 H730 0.931 . S
C721 C718 1.380 . S
C721 C719 1.392 . S
C721 H731 0.929 . S
C722 O702 1.266 . S
C722 O703 1.248 . S
C723 Tb659 2.802 . S
C723 O698 1.264 . S
C723 O701 1.256 . S
C723 C716 1.496 . S
H724 C707 0.929 . S
H725 C708 0.929 . S
H726 C709 0.929 . S
H727 C710 0.931 . S
H728 C718 0.929 . S
H729 C719 0.929 . S
H730 C720 0.931 . S
H731 C721 0.929 . S
Tb732 N761 2.617 . S
Tb732 N767 2.572 . S
Tb732 O776 2.465 . S
Tb732 O777 2.387 . S
Tb732 O779 2.428 . S
Tb732 O780 2.308 . S
Tb732 O784 2.349 . S
Tb732 O787 2.393 . S
Tb732 C796 2.802 . S
C733 N734 1.379 . S
C733 C736 1.416 . S
C733 C740 1.424 . S
N734 C733 1.379 . S
N734 C737 1.334 . S
N734 Tb743 2.617 . S
C735 C737 1.390 . S
C735 C738 1.339 . S
C735 H755 0.930 . S
C736 C733 1.416 . S
C736 C738 1.416 . S
C736 C742 1.448 . S
C737 N734 1.334 . S
C737 C735 1.390 . S
C737 H748 0.930 . S
C738 C735 1.339 . S
C738 C736 1.416 . S
C738 H759 0.930 . S
C739 C740 1.413 . S
C739 C741 1.427 . S
C739 C745 1.416 . S
C740 C733 1.424 . S
C740 C739 1.413 . S
C740 N744 1.361 . S
C741 C739 1.427 . S
C741 C742 1.328 . S
C741 H756 0.929 . S
C742 C736 1.448 . S
C742 C741 1.328 . S
C742 H757 0.930 . S
Tb743 N734 2.617 . S
Tb743 N744 2.572 . S
Tb743 O778 2.349 . S
Tb743 O781 2.393 . S
Tb743 O782 2.465 . S
Tb743 O783 2.387 . S
Tb743 O785 2.428 . S
Tb743 O786 2.308 . S
Tb743 C807 2.802 . S
N744 C740 1.361 . S
N744 Tb743 2.572 . S
N744 C746 1.340 . S
C745 C739 1.416 . S
C745 C747 1.332 . S
C745 H753 0.931 . S
C746 N744 1.340 . S
C746 C747 1.407 . S
C746 H752 0.930 . S
C747 C745 1.332 . S
C747 C746 1.407 . S
C747 H749 0.929 . S
H748 C737 0.930 . S
H749 C747 0.929 . S
H750 C765 0.930 . S
H751 C772 0.929 . S
H752 C746 0.930 . S
H753 C745 0.931 . S
H754 C768 0.930 . S
H755 C735 0.930 . S
H756 C741 0.929 . S
H757 C742 0.930 . S
H758 C763 0.930 . S
H759 C738 0.930 . S
H760 C771 0.931 . S
N761 Tb732 2.617 . S
N761 C762 1.379 . S
N761 C765 1.334 . S
C762 N761 1.379 . S
C762 C764 1.416 . S
C762 C770 1.424 . S
C763 H758 0.930 . S
C763 C765 1.390 . S
C763 C766 1.339 . S
C764 C762 1.416 . S
C764 C766 1.416 . S
C764 C797 1.448 . S
C765 H750 0.930 . S
C765 N761 1.334 . S
C765 C763 1.390 . S
C766 C763 1.339 . S
C766 C764 1.416 . S
C766 H773 0.930 . S
N767 Tb732 2.572 . S
N767 C768 1.340 . S
N767 C770 1.361 . S
C768 H754 0.930 . S
C768 N767 1.340 . S
C768 C772 1.407 . S
C769 C770 1.413 . S
C769 C771 1.416 . S
C769 C798 1.427 . S
C770 C762 1.424 . S
C770 N767 1.361 . S
C770 C769 1.413 . S
C771 H760 0.931 . S
C771 C769 1.416 . S
C771 C772 1.332 . S
C772 H751 0.929 . S
C772 C768 1.407 . S
C772 C771 1.332 . S
H773 C766 0.930 . S
H774 C797 0.930 . S
H775 C798 0.929 . S
O776 Tb732 2.465 . S
O776 C796 1.264 . S
O777 Tb732 2.387 . S
O777 C788 1.264 . S
O778 Tb743 2.349 . S
O778 C788 1.243 . S
O779 Tb732 2.428 . S
O779 C796 1.256 . S
O780 Tb732 2.308 . S
O780 C795 1.266 . S
O781 Tb743 2.393 . S
O781 C795 1.248 . S
O782 Tb743 2.465 . S
O782 C807 1.264 . S
O783 Tb743 2.387 . S
O783 C799 1.264 . S
O784 Tb732 2.349 . S
O784 C799 1.243 . S
O785 Tb743 2.428 . S
O785 C807 1.256 . S
O786 Tb743 2.308 . S
O786 C806 1.266 . S
O787 Tb732 2.393 . S
O787 C806 1.248 . S
C788 O777 1.264 . S
C788 O778 1.243 . S
C789 C792 1.399 . S
C789 C794 1.383 . S
C789 C796 1.496 . S
C790 C791 1.399 . S
C790 C794 1.389 . S
C791 C790 1.399 . S
C791 C793 1.380 . S
C791 H808 0.929 . S
C792 C789 1.399 . S
C792 C793 1.392 . S
C792 H809 0.929 . S
C793 C791 1.380 . S
C793 C792 1.392 . S
C793 H810 0.929 . S
C794 C789 1.383 . S
C794 C790 1.389 . S
C794 H811 0.931 . S
C795 O780 1.266 . S
C795 O781 1.248 . S
C796 Tb732 2.802 . S
C796 O776 1.264 . S
C796 O779 1.256 . S
C796 C789 1.496 . S
C797 C764 1.448 . S
C797 H774 0.930 . S
C797 C798 1.328 . S
C798 C769 1.427 . S
C798 H775 0.929 . S
C798 C797 1.328 . S
C799 O783 1.264 . S
C799 O784 1.243 . S
C800 C803 1.399 . S
C800 C804 1.383 . S
C800 C807 1.496 . S
C801 C802 1.399 . S
C801 C804 1.389 . S
C802 C801 1.399 . S
C802 C805 1.380 . S
C802 H812 0.929 . S
C803 C800 1.399 . S
C803 C805 1.392 . S
C803 H813 0.929 . S
C804 C800 1.383 . S
C804 C801 1.389 . S
C804 H814 0.931 . S
C805 C802 1.380 . S
C805 C803 1.392 . S
C805 H815 0.929 . S
C806 O786 1.266 . S
C806 O787 1.248 . S
C807 Tb743 2.802 . S
C807 O782 1.264 . S
C807 O785 1.256 . S
C807 C800 1.496 . S
H808 C791 0.929 . S
H809 C792 0.929 . S
H810 C793 0.929 . S
H811 C794 0.931 . S
H812 C802 0.929 . S
H813 C803 0.929 . S
H814 C804 0.931 . S
H815 C805 0.929 . S
H816 C824 0.950 . S
H817 C829 0.950 . S
H818 C826 0.950 . S
H819 C828 0.950 1_565 S
H820 C830 0.950 . S
H821 C832 0.950 . S
H822 C834 0.950 . S
H823 C835 0.950 . S
C824 H816 0.950 . S
C824 C825 1.386 1_545 S
C824 C826 1.391 . S
C825 C824 1.386 1_565 S
C825 C829 1.393 . S
C826 H818 0.950 . S
C826 C824 1.391 . S
C826 C827 1.400 . S
C827 C826 1.400 . S
C827 C828 1.398 . S
C827 C833 1.491 . S
C828 H819 0.950 1_545 S
C828 C827 1.398 . S
C828 C829 1.391 1_545 S
C829 H817 0.950 . S
C829 C825 1.393 . S
C829 C828 1.391 1_565 S
C830 H820 0.950 . S
C830 C831 1.386 . S
C830 C832 1.391 . S
C831 C830 1.386 . S
C831 C835 1.393 . S
C832 H821 0.950 . S
C832 C830 1.391 . S
C832 C833 1.400 . S
C833 C827 1.491 . S
C833 C832 1.400 . S
C833 C834 1.398 . S
C834 H822 0.950 . S
C834 C833 1.398 . S
C834 C835 1.391 . S
C835 H823 0.950 . S
C835 C831 1.393 . S
C835 C834 1.391 . S
H836 C844 0.950 . S
H837 C849 0.950 . S
H838 C846 0.950 . S
H839 C848 0.950 . S
H840 C850 0.950 . S
H841 C852 0.950 . S
H842 C854 0.950 . S
H843 C855 0.950 . S
C844 H836 0.950 . S
C844 C845 1.386 . S
C844 C846 1.391 . S
C845 C844 1.386 . S
C845 C849 1.393 . S
C846 H838 0.950 . S
C846 C844 1.391 . S
C846 C847 1.400 . S
C847 C846 1.400 . S
C847 C848 1.398 . S
C847 C853 1.491 . S
C848 H839 0.950 . S
C848 C847 1.398 . S
C848 C849 1.391 . S
C849 H837 0.950 . S
C849 C845 1.393 . S
C849 C848 1.391 . S
C850 H840 0.950 . S
C850 C851 1.386 . S
C850 C852 1.391 . S
C851 C850 1.386 . S
C851 C855 1.393 . S
C852 H841 0.950 . S
C852 C850 1.391 . S
C852 C853 1.400 . S
C853 C847 1.491 . S
C853 C852 1.400 . S
C853 C854 1.398 . S
C854 H842 0.950 . S
C854 C853 1.398 . S
C854 C855 1.391 . S
C855 H843 0.950 . S
C855 C851 1.393 . S
C855 C854 1.391 . S
H856 C864 0.950 . S
H857 C869 0.950 . S
H858 C866 0.950 . S
H859 C868 0.950 . S
H860 C870 0.950 . S
H861 C872 0.950 . S
H862 C874 0.950 . S
H863 C875 0.950 . S
C864 H856 0.950 . S
C864 C865 1.386 . S
C864 C866 1.391 . S
C865 C864 1.386 . S
C865 C869 1.393 . S
C866 H858 0.950 . S
C866 C864 1.391 . S
C866 C867 1.400 . S
C867 C866 1.400 . S
C867 C868 1.398 . S
C867 C873 1.491 . S
C868 H859 0.950 . S
C868 C867 1.398 . S
C868 C869 1.391 . S
C869 H857 0.950 . S
C869 C865 1.393 . S
C869 C868 1.391 . S
C870 H860 0.950 . S
C870 C871 1.386 . S
C870 C872 1.391 . S
C871 C870 1.386 . S
C871 C875 1.393 . S
C872 H861 0.950 . S
C872 C870 1.391 . S
C872 C873 1.400 . S
C873 C867 1.491 . S
C873 C872 1.400 . S
C873 C874 1.398 . S
C874 H862 0.950 . S
C874 C873 1.398 . S
C874 C875 1.391 . S
C875 H863 0.950 . S
C875 C871 1.393 . S
C875 C874 1.391 . S
H876 C884 0.950 . S
H877 C889 0.950 . S
H878 C886 0.950 1_565 S
H879 C888 0.950 . S
H880 C890 0.950 . S
H881 C892 0.950 . S
H882 C894 0.950 . S
H883 C895 0.950 . S
C884 H876 0.950 . S
C884 C885 1.386 . S
C884 C886 1.391 1_565 S
C885 C884 1.386 . S
C885 C889 1.393 1_565 S
C886 H878 0.950 1_545 S
C886 C884 1.391 1_545 S
C886 C887 1.400 . S
C887 C886 1.400 . S
C887 C888 1.398 . S
C887 C893 1.491 . S
C888 H879 0.950 . S
C888 C887 1.398 . S
C888 C889 1.391 . S
C889 H877 0.950 . S
C889 C885 1.393 1_545 S
C889 C888 1.391 . S
C890 H880 0.950 . S
C890 C891 1.386 . S
C890 C892 1.391 . S
C891 C890 1.386 . S
C891 C895 1.393 . S
C892 H881 0.950 . S
C892 C890 1.391 . S
C892 C893 1.400 . S
C893 C887 1.491 . S
C893 C892 1.400 . S
C893 C894 1.398 . S
C894 H882 0.950 . S
C894 C893 1.398 . S
C894 C895 1.391 . S
C895 H883 0.950 . S
C895 C891 1.393 . S
C895 C894 1.391 . S
H896 C904 0.950 . S
H897 C909 0.950 . S
H898 C906 0.950 . S
H899 C908 0.950 . S
H900 C910 0.950 1_455 S
H901 C912 0.950 . S
H902 C914 0.950 . S
H903 C915 0.950 . S
C904 H896 0.950 . S
C904 C905 1.386 1_565 S
C904 C906 1.391 . S
C905 C904 1.386 1_545 S
C905 C909 1.393 . S
C906 H898 0.950 . S
C906 C904 1.391 . S
C906 C907 1.400 . S
C907 C906 1.400 . S
C907 C908 1.398 . S
C907 C913 1.491 . S
C908 H899 0.950 . S
C908 C907 1.398 . S
C908 C909 1.391 1_565 S
C909 H897 0.950 . S
C909 C905 1.393 . S
C909 C908 1.391 1_545 S
C910 H900 0.950 1_655 S
C910 C911 1.386 . S
C910 C912 1.391 . S
C911 C910 1.386 . S
C911 C915 1.393 . S
C912 H901 0.950 . S
C912 C910 1.391 . S
C912 C913 1.400 . S
C913 C907 1.491 . S
C913 C912 1.400 . S
C913 C914 1.398 . S
C914 H902 0.950 . S
C914 C913 1.398 . S
C914 C915 1.391 . S
C915 H903 0.950 . S
C915 C911 1.393 . S
C915 C914 1.391 . S
H916 C924 0.950 . S
H917 C929 0.950 . S
H918 C926 0.950 . S
H919 C928 0.950 . S
H920 C930 0.950 . S
H921 C932 0.950 . S
H922 C934 0.950 . S
H923 C935 0.950 . S
C924 H916 0.950 . S
C924 C925 1.386 . S
C924 C926 1.391 . S
C925 C924 1.386 . S
C925 C929 1.393 . S
C926 H918 0.950 . S
C926 C924 1.391 . S
C926 C927 1.400 . S
C927 C926 1.400 . S
C927 C928 1.398 . S
C927 C933 1.491 . S
C928 H919 0.950 . S
C928 C927 1.398 . S
C928 C929 1.391 . S
C929 H917 0.950 . S
C929 C925 1.393 . S
C929 C928 1.391 . S
C930 H920 0.950 . S
C930 C931 1.386 . S
C930 C932 1.391 . S
C931 C930 1.386 . S
C931 C935 1.393 . S
C932 H921 0.950 . S
C932 C930 1.391 . S
C932 C933 1.400 . S
C933 C927 1.491 . S
C933 C932 1.400 . S
C933 C934 1.398 . S
C934 H922 0.950 . S
C934 C933 1.398 . S
C934 C935 1.391 . S
C935 H923 0.950 . S
C935 C931 1.393 . S
C935 C934 1.391 . S
H936 C944 0.950 . S
H937 C949 0.950 . S
H938 C946 0.950 . S
H939 C948 0.950 . S
H940 C950 0.950 . S
H941 C952 0.950 . S
H942 C954 0.950 . S
H943 C955 0.950 . S
C944 H936 0.950 . S
C944 C945 1.386 . S
C944 C946 1.391 . S
C945 C944 1.386 . S
C945 C949 1.393 . S
C946 H938 0.950 . S
C946 C944 1.391 . S
C946 C947 1.400 . S
C947 C946 1.400 . S
C947 C948 1.398 . S
C947 C953 1.491 . S
C948 H939 0.950 . S
C948 C947 1.398 . S
C948 C949 1.391 . S
C949 H937 0.950 . S
C949 C945 1.393 . S
C949 C948 1.391 . S
C950 H940 0.950 . S
C950 C951 1.386 . S
C950 C952 1.391 . S
C951 C950 1.386 . S
C951 C955 1.393 . S
C952 H941 0.950 . S
C952 C950 1.391 . S
C952 C953 1.400 . S
C953 C947 1.491 . S
C953 C952 1.400 . S
C953 C954 1.398 . S
C954 H942 0.950 . S
C954 C953 1.398 . S
C954 C955 1.391 . S
C955 H943 0.950 . S
C955 C951 1.393 . S
C955 C954 1.391 . S
H956 C964 0.950 . S
H957 C969 0.950 . S
H958 C966 0.950 1_545 S
H959 C968 0.950 . S
H960 C970 0.950 . S
H961 C972 0.950 . S
H962 C974 0.950 . S
H963 C975 0.950 . S
C964 H956 0.950 . S
C964 C965 1.386 . S
C964 C966 1.391 1_545 S
C965 C964 1.386 . S
C965 C969 1.393 1_545 S
C966 H958 0.950 1_565 S
C966 C964 1.391 1_565 S
C966 C967 1.400 . S
C967 C966 1.400 . S
C967 C968 1.398 . S
C967 C973 1.491 . S
C968 H959 0.950 . S
C968 C967 1.398 . S
C968 C969 1.391 . S
C969 H957 0.950 . S
C969 C965 1.393 1_565 S
C969 C968 1.391 . S
C970 H960 0.950 . S
C970 C971 1.386 . S
C970 C972 1.391 . S
C971 C970 1.386 . S
C971 C975 1.393 . S
C972 H961 0.950 . S
C972 C970 1.391 . S
C972 C973 1.400 . S
C973 C967 1.491 . S
C973 C972 1.400 . S
C973 C974 1.398 . S
C974 H962 0.950 . S
C974 C973 1.398 . S
C974 C975 1.391 . S
C975 H963 0.950 . S
C975 C971 1.393 . S
C975 C974 1.391 . S
H976 C984 0.950 . S
H977 C989 0.950 . S
H978 C986 0.950 . S
H979 C988 0.950 . S
H980 C990 0.950 . S
H981 C992 0.950 . S
H982 C994 0.950 . S
H983 C995 0.950 . S
C984 H976 0.950 . S
C984 C985 1.386 . S
C984 C986 1.391 . S
C985 C984 1.386 . S
C985 C989 1.393 . S
C986 H978 0.950 . S
C986 C984 1.391 . S
C986 C987 1.400 . S
C987 C986 1.400 . S
C987 C988 1.398 . S
C987 C993 1.491 . S
C988 H979 0.950 . S
C988 C987 1.398 . S
C988 C989 1.391 . S
C989 H977 0.950 . S
C989 C985 1.393 . S
C989 C988 1.391 . S
C990 H980 0.950 . S
C990 C991 1.386 . S
C990 C992 1.391 . S
C991 C990 1.386 . S
C991 C995 1.393 . S
C992 H981 0.950 . S
C992 C990 1.391 . S
C992 C993 1.400 . S
C993 C987 1.491 . S
C993 C992 1.400 . S
C993 C994 1.398 . S
C994 H982 0.950 . S
C994 C993 1.398 . S
C994 C995 1.391 . S
C995 H983 0.950 . S
C995 C991 1.393 . S
C995 C994 1.391 . S
H996 C1004 0.950 . S
H997 C1009 0.950 . S
H998 C1006 0.950 . S
H999 C1008 0.950 . S
H1000 C1010 0.950 . S
H1001 C1012 0.950 . S
H1002 C1014 0.950 . S
H1003 C1015 0.950 . S
C1004 H996 0.950 . S
C1004 C1005 1.386 . S
C1004 C1006 1.391 . S
C1005 C1004 1.386 . S
C1005 C1009 1.393 . S
C1006 H998 0.950 . S
C1006 C1004 1.391 . S
C1006 C1007 1.400 . S
C1007 C1006 1.400 . S
C1007 C1008 1.398 . S
C1007 C1013 1.491 . S
C1008 H999 0.950 . S
C1008 C1007 1.398 . S
C1008 C1009 1.391 . S
C1009 H997 0.950 . S
C1009 C1005 1.393 . S
C1009 C1008 1.391 . S
C1010 H1000 0.950 . S
C1010 C1011 1.386 . S
C1010 C1012 1.391 . S
C1011 C1010 1.386 . S
C1011 C1015 1.393 . S
C1012 H1001 0.950 . S
C1012 C1010 1.391 . S
C1012 C1013 1.400 . S
C1013 C1007 1.491 . S
C1013 C1012 1.400 . S
C1013 C1014 1.398 . S
C1014 H1002 0.950 . S
C1014 C1013 1.398 . S
C1014 C1015 1.391 . S
C1015 H1003 0.950 . S
C1015 C1011 1.393 . S
C1015 C1014 1.391 . S
H1016 C1024 0.950 . S
H1017 C1029 0.950 . S
H1018 C1026 0.950 . S
H1019 C1028 0.950 . S
H1020 C1030 0.950 . S
H1021 C1032 0.950 . S
H1022 C1034 0.950 . S
H1023 C1035 0.950 . S
C1024 H1016 0.950 . S
C1024 C1025 1.386 . S
C1024 C1026 1.391 . S
C1025 C1024 1.386 . S
C1025 C1029 1.393 . S
C1026 H1018 0.950 . S
C1026 C1024 1.391 . S
C1026 C1027 1.400 . S
C1027 C1026 1.400 . S
C1027 C1028 1.398 . S
C1027 C1033 1.491 . S
C1028 H1019 0.950 . S
C1028 C1027 1.398 . S
C1028 C1029 1.391 . S
C1029 H1017 0.950 . S
C1029 C1025 1.393 . S
C1029 C1028 1.391 . S
C1030 H1020 0.950 . S
C1030 C1031 1.386 . S
C1030 C1032 1.391 . S
C1031 C1030 1.386 . S
C1031 C1035 1.393 . S
C1032 H1021 0.950 . S
C1032 C1030 1.391 . S
C1032 C1033 1.400 . S
C1033 C1027 1.491 . S
C1033 C1032 1.400 . S
C1033 C1034 1.398 . S
C1034 H1022 0.950 . S
C1034 C1033 1.398 . S
C1034 C1035 1.391 . S
C1035 H1023 0.950 . S
C1035 C1031 1.393 . S
C1035 C1034 1.391 . S
H1036 C1044 0.950 . S
H1037 C1049 0.950 . S
H1038 C1046 0.950 . S
H1039 C1048 0.950 . S
H1040 C1050 0.950 . S
H1041 C1052 0.950 . S
H1042 C1054 0.950 . S
H1043 C1055 0.950 . S
C1044 H1036 0.950 . S
C1044 C1045 1.386 . S
C1044 C1046 1.391 . S
C1045 C1044 1.386 . S
C1045 C1049 1.393 . S
C1046 H1038 0.950 . S
C1046 C1044 1.391 . S
C1046 C1047 1.400 . S
C1047 C1046 1.400 . S
C1047 C1048 1.398 . S
C1047 C1053 1.491 . S
C1048 H1039 0.950 . S
C1048 C1047 1.398 . S
C1048 C1049 1.391 . S
C1049 H1037 0.950 . S
C1049 C1045 1.393 . S
C1049 C1048 1.391 . S
C1050 H1040 0.950 . S
C1050 C1051 1.386 . S
C1050 C1052 1.391 . S
C1051 C1050 1.386 . S
C1051 C1055 1.393 . S
C1052 H1041 0.950 . S
C1052 C1050 1.391 . S
C1052 C1053 1.400 . S
C1053 C1047 1.491 . S
C1053 C1052 1.400 . S
C1053 C1054 1.398 . S
C1054 H1042 0.950 . S
C1054 C1053 1.398 . S
C1054 C1055 1.391 . S
C1055 H1043 0.950 . S
C1055 C1051 1.393 . S
C1055 C1054 1.391 . S
H1056 C1064 0.950 . S
H1057 C1069 0.950 . S
H1058 C1066 0.950 . S
H1059 C1068 0.950 . S
H1060 C1070 0.950 . S
H1061 C1072 0.950 . S
H1062 C1074 0.950 . S
H1063 C1075 0.950 . S
C1064 H1056 0.950 . S
C1064 C1065 1.386 . S
C1064 C1066 1.391 . S
C1065 C1064 1.386 . S
C1065 C1069 1.393 . S
C1066 H1058 0.950 . S
C1066 C1064 1.391 . S
C1066 C1067 1.400 . S
C1067 C1066 1.400 . S
C1067 C1068 1.398 . S
C1067 C1073 1.491 . S
C1068 H1059 0.950 . S
C1068 C1067 1.398 . S
C1068 C1069 1.391 . S
C1069 H1057 0.950 . S
C1069 C1065 1.393 . S
C1069 C1068 1.391 . S
C1070 H1060 0.950 . S
C1070 C1071 1.386 . S
C1070 C1072 1.391 . S
C1071 C1070 1.386 . S
C1071 C1075 1.393 . S
C1072 H1061 0.950 . S
C1072 C1070 1.391 . S
C1072 C1073 1.400 . S
C1073 C1067 1.491 . S
C1073 C1072 1.400 . S
C1073 C1074 1.398 . S
C1074 H1062 0.950 . S
C1074 C1073 1.398 . S
C1074 C1075 1.391 . S
C1075 H1063 0.950 . S
C1075 C1071 1.393 . S
C1075 C1074 1.391 . S
H1076 C1084 0.950 . S
H1077 C1089 0.950 . S
H1078 C1086 0.950 . S
H1079 C1088 0.950 . S
H1080 C1090 0.950 . S
H1081 C1092 0.950 . S
H1082 C1094 0.950 . S
H1083 C1095 0.950 . S
C1084 H1076 0.950 . S
C1084 C1085 1.386 . S
C1084 C1086 1.391 . S
C1085 C1084 1.386 . S
C1085 C1089 1.393 . S
C1086 H1078 0.950 . S
C1086 C1084 1.391 . S
C1086 C1087 1.400 . S
C1087 C1086 1.400 . S
C1087 C1088 1.398 . S
C1087 C1093 1.491 . S
C1088 H1079 0.950 . S
C1088 C1087 1.398 . S
C1088 C1089 1.391 . S
C1089 H1077 0.950 . S
C1089 C1085 1.393 . S
C1089 C1088 1.391 . S
C1090 H1080 0.950 . S
C1090 C1091 1.386 . S
C1090 C1092 1.391 . S
C1091 C1090 1.386 . S
C1091 C1095 1.393 . S
C1092 H1081 0.950 . S
C1092 C1090 1.391 . S
C1092 C1093 1.400 . S
C1093 C1087 1.491 . S
C1093 C1092 1.400 . S
C1093 C1094 1.398 . S
C1094 H1082 0.950 . S
C1094 C1093 1.398 . S
C1094 C1095 1.391 . S
C1095 H1083 0.950 . S
C1095 C1091 1.393 . S
C1095 C1094 1.391 . S
H1096 C1104 0.950 . S
H1097 C1109 0.950 . S
H1098 C1106 0.950 . S
H1099 C1108 0.950 . S
H1100 C1110 0.950 . S
H1101 C1112 0.950 . S
H1102 C1114 0.950 . S
H1103 C1115 0.950 . S
C1104 H1096 0.950 . S
C1104 C1105 1.386 . S
C1104 C1106 1.391 . S
C1105 C1104 1.386 . S
C1105 C1109 1.393 . S
C1106 H1098 0.950 . S
C1106 C1104 1.391 . S
C1106 C1107 1.400 . S
C1107 C1106 1.400 . S
C1107 C1108 1.398 . S
C1107 C1113 1.491 . S
C1108 H1099 0.950 . S
C1108 C1107 1.398 . S
C1108 C1109 1.391 . S
C1109 H1097 0.950 . S
C1109 C1105 1.393 . S
C1109 C1108 1.391 . S
C1110 H1100 0.950 . S
C1110 C1111 1.386 . S
C1110 C1112 1.391 . S
C1111 C1110 1.386 . S
C1111 C1115 1.393 . S
C1112 H1101 0.950 . S
C1112 C1110 1.391 . S
C1112 C1113 1.400 . S
C1113 C1107 1.491 . S
C1113 C1112 1.400 . S
C1113 C1114 1.398 . S
C1114 H1102 0.950 . S
C1114 C1113 1.398 . S
C1114 C1115 1.391 . S
C1115 H1103 0.950 . S
C1115 C1111 1.393 . S
C1115 C1114 1.391 . S
H1116 C1124 0.950 . S
H1117 C1129 0.950 . S
H1118 C1126 0.950 . S
H1119 C1128 0.950 . S
H1120 C1130 0.950 . S
H1121 C1132 0.950 . S
H1122 C1134 0.950 . S
H1123 C1135 0.950 . S
C1124 H1116 0.950 . S
C1124 C1125 1.386 . S
C1124 C1126 1.391 . S
C1125 C1124 1.386 . S
C1125 C1129 1.393 . S
C1126 H1118 0.950 . S
C1126 C1124 1.391 . S
C1126 C1127 1.400 . S
C1127 C1126 1.400 . S
C1127 C1128 1.398 . S
C1127 C1133 1.491 . S
C1128 H1119 0.950 . S
C1128 C1127 1.398 . S
C1128 C1129 1.391 . S
C1129 H1117 0.950 . S
C1129 C1125 1.393 . S
C1129 C1128 1.391 . S
C1130 H1120 0.950 . S
C1130 C1131 1.386 . S
C1130 C1132 1.391 . S
C1131 C1130 1.386 . S
C1131 C1135 1.393 . S
C1132 H1121 0.950 . S
C1132 C1130 1.391 . S
C1132 C1133 1.400 . S
C1133 C1127 1.491 . S
C1133 C1132 1.400 . S
C1133 C1134 1.398 . S
C1134 H1122 0.950 . S
C1134 C1133 1.398 . S
C1134 C1135 1.391 . S
C1135 H1123 0.950 . S
C1135 C1131 1.393 . S
C1135 C1134 1.391 . S
H1136 C1144 0.950 . S
H1137 C1149 0.950 . S
H1138 C1146 0.950 . S
H1139 C1148 0.950 . S
H1140 C1150 0.950 . S
H1141 C1152 0.950 . S
H1142 C1154 0.950 . S
H1143 C1155 0.950 1_655 S
C1144 H1136 0.950 . S
C1144 C1145 1.386 . S
C1144 C1146 1.391 . S
C1145 C1144 1.386 . S
C1145 C1149 1.393 . S
C1146 H1138 0.950 . S
C1146 C1144 1.391 . S
C1146 C1147 1.400 . S
C1147 C1146 1.400 . S
C1147 C1148 1.398 . S
C1147 C1153 1.491 . S
C1148 H1139 0.950 . S
C1148 C1147 1.398 . S
C1148 C1149 1.391 . S
C1149 H1137 0.950 . S
C1149 C1145 1.393 . S
C1149 C1148 1.391 . S
C1150 H1140 0.950 . S
C1150 C1151 1.386 . S
C1150 C1152 1.391 . S
C1151 C1150 1.386 . S
C1151 C1155 1.393 . S
C1152 H1141 0.950 . S
C1152 C1150 1.391 . S
C1152 C1153 1.400 . S
C1153 C1147 1.491 . S
C1153 C1152 1.400 . S
C1153 C1154 1.398 . S
C1154 H1142 0.950 . S
C1154 C1153 1.398 . S
C1154 C1155 1.391 . S
C1155 H1143 0.950 1_455 S
C1155 C1151 1.393 . S
C1155 C1154 1.391 . S
H1156 C1164 0.950 . S
H1157 C1169 0.950 . S
H1158 C1166 0.950 . S
H1159 C1168 0.950 . S
H1160 C1170 0.950 . S
H1161 C1172 0.950 . S
H1162 C1174 0.950 . S
H1163 C1175 0.950 . S
C1164 H1156 0.950 . S
C1164 C1165 1.386 . S
C1164 C1166 1.391 . S
C1165 C1164 1.386 . S
C1165 C1169 1.393 . S
C1166 H1158 0.950 . S
C1166 C1164 1.391 . S
C1166 C1167 1.400 . S
C1167 C1166 1.400 . S
C1167 C1168 1.398 . S
C1167 C1173 1.491 . S
C1168 H1159 0.950 . S
C1168 C1167 1.398 . S
C1168 C1169 1.391 . S
C1169 H1157 0.950 . S
C1169 C1165 1.393 . S
C1169 C1168 1.391 . S
C1170 H1160 0.950 . S
C1170 C1171 1.386 . S
C1170 C1172 1.391 . S
C1171 C1170 1.386 . S
C1171 C1175 1.393 . S
C1172 H1161 0.950 . S
C1172 C1170 1.391 . S
C1172 C1173 1.400 . S
C1173 C1167 1.491 . S
C1173 C1172 1.400 . S
C1173 C1174 1.398 . S
C1174 H1162 0.950 . S
C1174 C1173 1.398 . S
C1174 C1175 1.391 . S
C1175 H1163 0.950 . S
C1175 C1171 1.393 . S
C1175 C1174 1.391 . S
H1176 C1184 0.950 . S
H1177 C1189 0.950 . S
H1178 C1186 0.950 . S
H1179 C1188 0.950 . S
H1180 C1190 0.950 . S
H1181 C1192 0.950 . S
H1182 C1194 0.950 . S
H1183 C1195 0.950 . S
C1184 H1176 0.950 . S
C1184 C1185 1.386 . S
C1184 C1186 1.391 . S
C1185 C1184 1.386 . S
C1185 C1189 1.393 . S
C1186 H1178 0.950 . S
C1186 C1184 1.391 . S
C1186 C1187 1.400 . S
C1187 C1186 1.400 . S
C1187 C1188 1.398 . S
C1187 C1193 1.491 . S
C1188 H1179 0.950 . S
C1188 C1187 1.398 . S
C1188 C1189 1.391 . S
C1189 H1177 0.950 . S
C1189 C1185 1.393 . S
C1189 C1188 1.391 . S
C1190 H1180 0.950 . S
C1190 C1191 1.386 . S
C1190 C1192 1.391 . S
C1191 C1190 1.386 . S
C1191 C1195 1.393 . S
C1192 H1181 0.950 . S
C1192 C1190 1.391 . S
C1192 C1193 1.400 . S
C1193 C1187 1.491 . S
C1193 C1192 1.400 . S
C1193 C1194 1.398 . S
C1194 H1182 0.950 . S
C1194 C1193 1.398 . S
C1194 C1195 1.391 . S
C1195 H1183 0.950 . S
C1195 C1191 1.393 . S
C1195 C1194 1.391 . S
H1196 C1204 0.950 . S
H1197 C1209 0.950 . S
H1198 C1206 0.950 . S
H1199 C1208 0.950 . S
H1200 C1210 0.950 . S
H1201 C1212 0.950 . S
H1202 C1214 0.950 . S
H1203 C1215 0.950 . S
C1204 H1196 0.950 . S
C1204 C1205 1.386 . S
C1204 C1206 1.391 . S
C1205 C1204 1.386 . S
C1205 C1209 1.393 . S
C1206 H1198 0.950 . S
C1206 C1204 1.391 . S
C1206 C1207 1.400 . S
C1207 C1206 1.400 . S
C1207 C1208 1.398 . S
C1207 C1213 1.491 . S
C1208 H1199 0.950 . S
C1208 C1207 1.398 . S
C1208 C1209 1.391 . S
C1209 H1197 0.950 . S
C1209 C1205 1.393 . S
C1209 C1208 1.391 . S
C1210 H1200 0.950 . S
C1210 C1211 1.386 . S
C1210 C1212 1.391 . S
C1211 C1210 1.386 . S
C1211 C1215 1.393 . S
C1212 H1201 0.950 . S
C1212 C1210 1.391 . S
C1212 C1213 1.400 . S
C1213 C1207 1.491 . S
C1213 C1212 1.400 . S
C1213 C1214 1.398 . S
C1214 H1202 0.950 . S
C1214 C1213 1.398 . S
C1214 C1215 1.391 . S
C1215 H1203 0.950 . S
C1215 C1211 1.393 . S
C1215 C1214 1.391 . S
H1216 C1224 0.950 . S
H1217 C1229 0.950 . S
H1218 C1226 0.950 . S
H1219 C1228 0.950 . S
H1220 C1230 0.950 . S
H1221 C1232 0.950 . S
H1222 C1234 0.950 . S
H1223 C1235 0.950 . S
C1224 H1216 0.950 . S
C1224 C1225 1.386 . S
C1224 C1226 1.391 . S
C1225 C1224 1.386 . S
C1225 C1229 1.393 . S
C1226 H1218 0.950 . S
C1226 C1224 1.391 . S
C1226 C1227 1.400 . S
C1227 C1226 1.400 . S
C1227 C1228 1.398 . S
C1227 C1233 1.491 . S
C1228 H1219 0.950 . S
C1228 C1227 1.398 . S
C1228 C1229 1.391 . S
C1229 H1217 0.950 . S
C1229 C1225 1.393 . S
C1229 C1228 1.391 . S
C1230 H1220 0.950 . S
C1230 C1231 1.386 . S
C1230 C1232 1.391 . S
C1231 C1230 1.386 . S
C1231 C1235 1.393 . S
C1232 H1221 0.950 . S
C1232 C1230 1.391 . S
C1232 C1233 1.400 . S
C1233 C1227 1.491 . S
C1233 C1232 1.400 . S
C1233 C1234 1.398 . S
C1234 H1222 0.950 . S
C1234 C1233 1.398 . S
C1234 C1235 1.391 . S
C1235 H1223 0.950 . S
C1235 C1231 1.393 . S
C1235 C1234 1.391 . S
H1236 C1244 0.950 . S
H1237 C1249 0.950 . S
H1238 C1246 0.950 . S
H1239 C1248 0.950 . S
H1240 C1250 0.950 . S
H1241 C1252 0.950 . S
H1242 C1254 0.950 . S
H1243 C1255 0.950 . S
C1244 H1236 0.950 . S
C1244 C1245 1.386 . S
C1244 C1246 1.391 . S
C1245 C1244 1.386 . S
C1245 C1249 1.393 . S
C1246 H1238 0.950 . S
C1246 C1244 1.391 . S
C1246 C1247 1.400 . S
C1247 C1246 1.400 . S
C1247 C1248 1.398 . S
C1247 C1253 1.491 . S
C1248 H1239 0.950 . S
C1248 C1247 1.398 . S
C1248 C1249 1.391 . S
C1249 H1237 0.950 . S
C1249 C1245 1.393 . S
C1249 C1248 1.391 . S
C1250 H1240 0.950 . S
C1250 C1251 1.386 . S
C1250 C1252 1.391 . S
C1251 C1250 1.386 . S
C1251 C1255 1.393 . S
C1252 H1241 0.950 . S
C1252 C1250 1.391 . S
C1252 C1253 1.400 . S
C1253 C1247 1.491 . S
C1253 C1252 1.400 . S
C1253 C1254 1.398 . S
C1254 H1242 0.950 . S
C1254 C1253 1.398 . S
C1254 C1255 1.391 . S
C1255 H1243 0.950 . S
C1255 C1251 1.393 . S
C1255 C1254 1.391 . S
H1256 C1264 0.950 . S
H1257 C1269 0.950 . S
H1258 C1266 0.950 . S
H1259 C1268 0.950 . S
H1260 C1270 0.950 . S
H1261 C1272 0.950 . S
H1262 C1274 0.950 . S
H1263 C1275 0.950 . S
C1264 H1256 0.950 . S
C1264 C1265 1.386 . S
C1264 C1266 1.391 . S
C1265 C1264 1.386 . S
C1265 C1269 1.393 . S
C1266 H1258 0.950 . S
C1266 C1264 1.391 . S
C1266 C1267 1.400 . S
C1267 C1266 1.400 . S
C1267 C1268 1.398 . S
C1267 C1273 1.491 . S
C1268 H1259 0.950 . S
C1268 C1267 1.398 . S
C1268 C1269 1.391 . S
C1269 H1257 0.950 . S
C1269 C1265 1.393 . S
C1269 C1268 1.391 . S
C1270 H1260 0.950 . S
C1270 C1271 1.386 . S
C1270 C1272 1.391 . S
C1271 C1270 1.386 . S
C1271 C1275 1.393 . S
C1272 H1261 0.950 . S
C1272 C1270 1.391 . S
C1272 C1273 1.400 . S
C1273 C1267 1.491 . S
C1273 C1272 1.400 . S
C1273 C1274 1.398 . S
C1274 H1262 0.950 . S
C1274 C1273 1.398 . S
C1274 C1275 1.391 . S
C1275 H1263 0.950 . S
C1275 C1271 1.393 . S
C1275 C1274 1.391 . S
H1276 C1284 0.950 . S
H1277 C1289 0.950 . S
H1278 C1286 0.950 . S
H1279 C1288 0.950 . S
H1280 C1290 0.950 . S
H1281 C1292 0.950 . S
H1282 C1294 0.950 . S
H1283 C1295 0.950 . S
C1284 H1276 0.950 . S
C1284 C1285 1.386 . S
C1284 C1286 1.391 . S
C1285 C1284 1.386 . S
C1285 C1289 1.393 . S
C1286 H1278 0.950 . S
C1286 C1284 1.391 . S
C1286 C1287 1.400 . S
C1287 C1286 1.400 . S
C1287 C1288 1.398 . S
C1287 C1293 1.491 . S
C1288 H1279 0.950 . S
C1288 C1287 1.398 . S
C1288 C1289 1.391 . S
C1289 H1277 0.950 . S
C1289 C1285 1.393 . S
C1289 C1288 1.391 . S
C1290 H1280 0.950 . S
C1290 C1291 1.386 . S
C1290 C1292 1.391 . S
C1291 C1290 1.386 . S
C1291 C1295 1.393 . S
C1292 H1281 0.950 . S
C1292 C1290 1.391 . S
C1292 C1293 1.400 . S
C1293 C1287 1.491 . S
C1293 C1292 1.400 . S
C1293 C1294 1.398 . S
C1294 H1282 0.950 . S
C1294 C1293 1.398 . S
C1294 C1295 1.391 . S
C1295 H1283 0.950 . S
C1295 C1291 1.393 . S
C1295 C1294 1.391 . S
C825 C361 1.450 . S
C831 C554 1.461 . S
C851 C638 1.450 . S
C845 C451 1.459 . S
C871 C631 1.463 . S
C865 C241 1.445 . S
C885 C331 1.452 . S
C891 C547 1.463 . S
C911 C711 1.446 . S
C905 C140 1.445 . S
C931 C795 1.445 . S
C925 C211 1.445 . S
C945 C20 1.435 . S
C951 C788 1.466 . S
C965 C91 1.423 . S
C971 C704 1.463 . S
C991 C538 1.351 . S
C985 C80 1.470 1_554 S
C1011 C622 1.360 . S
C1005 C1 1.482 . S
C1031 C633 1.385 . S
C1025 C200 1.488 1_556 S
C1051 C549 1.392 . S
C1045 C121 1.494 . S
C1071 C717 1.333 . S
C1065 C320 1.506 1_556 S
C1085 C260 1.483 . S
C1091 C801 1.321 . S
C1111 C790 1.423 . S
C1105 C440 1.523 1_554 S
C1125 C380 1.511 . S
C1131 C706 1.385 . S
C1151 C536 1.578 . S
C1145 C31 1.562 . S
C1171 C620 1.584 . S
C1165 C61 1.550 . S
C1185 C151 1.542 . S
C1191 C627 1.561 . S
C1211 C543 1.563 . S
C1205 C181 1.545 . S
C1231 C715 1.579 . S
C1225 C271 1.518 . S
C1245 C301 1.579 . S
C1251 C799 1.585 . S
C1265 C391 1.511 . S
C1271 C806 1.555 . S
C1285 C421 1.570 . S
C1291 C722 1.558 . S
