# Generated by pormake.
# Topology llj, (12,3)-cn, num edge types: 1
# Building blocks:
#     Node 0, Type 0, BuildingBlock: QEWDON_clean_sbu_0, # of connection points: 12
#     Node 1, Type 0, BuildingBlock: QEWDON_clean_sbu_0, # of connection points: 12
#     Node 2, Type 1, BuildingBlock: MIDCAF_clean_linker_0, # of connection points: 3
#     Node 3, Type 1, BuildingBlock: MIDCAF_clean_linker_0, # of connection points: 3
#     Node 4, Type 1, BuildingBlock: MIDCAF_clean_linker_0, # of connection points: 3
#     Node 5, Type 1, BuildingBlock: MIDCAF_clean_linker_0, # of connection points: 3
#     Node 6, Type 1, BuildingBlock: MIDCAF_clean_linker_0, # of connection points: 3
#     Node 7, Type 1, BuildingBlock: MIDCAF_clean_linker_0, # of connection points: 3
#     Node 8, Type 1, BuildingBlock: MIDCAF_clean_linker_0, # of connection points: 3
#     Node 9, Type 1, BuildingBlock: MIDCAF_clean_linker_0, # of connection points: 3
#     Edge 10, Type (0, 1), BuildingBlock: XIVTED_clean_linker_0, # of connection points: 2
#     Edge 11, Type (0, 1), BuildingBlock: XIVTED_clean_linker_0, # of connection points: 2
#     Edge 12, Type (0, 1), BuildingBlock: XIVTED_clean_linker_0, # of connection points: 2
#     Edge 13, Type (0, 1), BuildingBlock: XIVTED_clean_linker_0, # of connection points: 2
#     Edge 14, Type (0, 1), BuildingBlock: XIVTED_clean_linker_0, # of connection points: 2
#     Edge 15, Type (0, 1), BuildingBlock: XIVTED_clean_linker_0, # of connection points: 2
#     Edge 16, Type (0, 1), BuildingBlock: XIVTED_clean_linker_0, # of connection points: 2
#     Edge 17, Type (0, 1), BuildingBlock: XIVTED_clean_linker_0, # of connection points: 2
#     Edge 18, Type (0, 1), BuildingBlock: XIVTED_clean_linker_0, # of connection points: 2
#     Edge 19, Type (0, 1), BuildingBlock: XIVTED_clean_linker_0, # of connection points: 2
#     Edge 20, Type (0, 1), BuildingBlock: XIVTED_clean_linker_0, # of connection points: 2
#     Edge 21, Type (0, 1), BuildingBlock: XIVTED_clean_linker_0, # of connection points: 2
#     Edge 22, Type (0, 1), BuildingBlock: XIVTED_clean_linker_0, # of connection points: 2
#     Edge 23, Type (0, 1), BuildingBlock: XIVTED_clean_linker_0, # of connection points: 2
#     Edge 24, Type (0, 1), BuildingBlock: XIVTED_clean_linker_0, # of connection points: 2
#     Edge 25, Type (0, 1), BuildingBlock: XIVTED_clean_linker_0, # of connection points: 2
#     Edge 26, Type (0, 1), BuildingBlock: XIVTED_clean_linker_0, # of connection points: 2
#     Edge 27, Type (0, 1), BuildingBlock: XIVTED_clean_linker_0, # of connection points: 2
#     Edge 28, Type (0, 1), BuildingBlock: XIVTED_clean_linker_0, # of connection points: 2
#     Edge 29, Type (0, 1), BuildingBlock: XIVTED_clean_linker_0, # of connection points: 2
#     Edge 30, Type (0, 1), BuildingBlock: XIVTED_clean_linker_0, # of connection points: 2
#     Edge 31, Type (0, 1), BuildingBlock: XIVTED_clean_linker_0, # of connection points: 2
#     Edge 32, Type (0, 1), BuildingBlock: XIVTED_clean_linker_0, # of connection points: 2
#     Edge 33, Type (0, 1), BuildingBlock: XIVTED_clean_linker_0, # of connection points: 2
# Relax obj value: 0.011
# Max RMSD: 0.055
# Mean RMSD: 0.051
data_MOF--net-llj--node1-QEWDON_clean_sbu_0--node2-MIDCAF_clean_linker_0--edge1-XIVTED_clean_linker_0
_symmetry_space_group_name_H-M    P1
_symmetry_Int_Tables_number       1
_symmetry_cell_setting            triclinic
loop_
_symmetry_equiv_pos_as_xyz
'x, y, z'
_cell_length_a     45.034726
_cell_length_b     45.001065
_cell_length_c     31.472489
_cell_angle_alpha  89.862057
_cell_angle_beta   89.966204
_cell_angle_gamma 90.017604
loop_
_atom_site_label
_atom_site_type_symbol
_atom_site_fract_x
_atom_site_fract_y
_atom_site_fract_z
_atom_type_partial_charge
Zn0 Zn 0.94907 0.03371 0.98043 0.0
Zn1 Zn 0.94981 0.03249 0.08131 0.0
O2 O 0.97541 0.02532 0.03086 0.0
H3 H 0.996 0.01937 0.03011 0.0
C4 C 0.9162 0.96538 0.90377 0.0
O5 O 0.93825 0.97799 0.92423 0.0
Zn6 Zn 0.03661 0.95864 0.0821 0.0
Zn7 Zn 0.04097 0.95899 0.98342 0.0
O8 O 0.01088 0.96107 0.03087 0.0
H9 H 0.9903 0.9668 0.02846 0.0
Zn10 Zn 0.92645 0.92359 0.97043 0.0
O11 O 0.93104 0.95351 0.01705 0.0
Zn12 Zn 0.93247 0.93076 0.07098 0.0
H13 H 0.93238 0.9748 0.01348 0.0
Zn14 Zn 0.05986 0.06957 0.96181 0.0
O15 O 0.05252 0.03971 0.00854 0.0
H16 H 0.05101 0.0184 0.00547 0.0
Zn17 Zn 0.05186 0.06224 0.06266 0.0
C18 C 0.07585 0.02716 0.89759 0.0
O19 O 0.05555 0.01218 0.91861 0.0
O20 O 0.91584 0.06336 0.9958 0.0
O21 O 0.91878 0.06398 0.06654 0.0
O22 O 0.07656 0.93268 0.00039 0.0
O23 O 0.07006 0.92904 0.07048 0.0
O24 O 0.91491 0.88205 0.99231 0.0
O25 O 0.91777 0.88782 0.06256 0.0
C26 C 0.00194 0.05563 0.12245 0.0
O27 O 0.07169 0.11077 0.98426 0.0
O28 O 0.06703 0.10485 0.05429 0.0
O29 O 0.02246 0.95502 0.92338 0.0
C30 C 0.90741 0.07334 0.03176 0.0
O31 O 0.97155 0.03938 0.92353 0.0
C32 C 0.9844 0.93829 0.12774 0.0
O33 O 0.90654 0.9404 0.9166 0.0
C34 C 0.08406 0.92213 0.03651 0.0
O35 O 0.0821 0.0534 0.90931 0.0
C36 C 0.91117 0.98057 0.11619 0.0
O37 O 0.97615 0.04546 0.13033 0.0
O38 O 0.00968 0.05949 0.084 0.0
C39 C 0.91215 0.87182 0.02994 0.0
O40 O 0.01083 0.94759 0.1332 0.0
O41 O 0.97528 0.93352 0.09018 0.0
C42 C 0.07388 0.01297 0.10995 0.0
O43 O 0.90646 0.95286 0.11215 0.0
O44 O 0.93123 0.9923 0.09309 0.0
C45 C 0.07377 0.1208 0.02199 0.0
O46 O 0.07825 0.04052 0.10359 0.0
O47 O 0.0534 0.00022 0.08881 0.0
C48 C 0.00425 0.93375 0.91856 0.0
O49 O -0.00025 0.91538 0.95046 0.0
C50 C 0.98816 0.0621 0.92036 0.0
O51 O 0.98937 0.08084 0.95227 0.0
Zn52 Zn 0.45971 0.54162 0.4806 0.0
Zn53 Zn 0.46103 0.54184 0.57942 0.0
O54 O 0.48754 0.53527 0.52996 0.0
H55 H 0.50651 0.5253 0.52939 0.0
C56 C 0.42706 0.47427 0.39108 0.0
O57 O 0.44964 0.48602 0.41139 0.0
Zn58 Zn 0.54365 0.46168 0.57861 0.0
Zn59 Zn 0.54957 0.45987 0.47939 0.0
O60 O 0.51942 0.46537 0.52617 0.0
H61 H 0.49963 0.47329 0.5229 0.0
Zn62 Zn 0.43229 0.4343 0.46189 0.0
O63 O 0.43774 0.46432 0.50865 0.0
Zn64 Zn 0.43678 0.44166 0.56291 0.0
H65 H 0.44224 0.48517 0.50503 0.0
Zn66 Zn 0.57263 0.57266 0.4652 0.0
O67 O 0.56439 0.54261 0.51107 0.0
H68 H 0.56131 0.52156 0.50707 0.0
Zn69 Zn 0.56566 0.56384 0.5662 0.0
C70 C 0.58849 0.53001 0.4017 0.0
O71 O 0.56763 0.51557 0.4224 0.0
O72 O 0.42732 0.5726 0.49461 0.0
O73 O 0.43132 0.57463 0.56514 0.0
O74 O 0.58399 0.43282 0.49888 0.0
O75 O 0.57692 0.43158 0.56901 0.0
O76 O 0.4176 0.39369 0.48331 0.0
O77 O 0.41948 0.39976 0.55352 0.0
C78 C 0.51377 0.55892 0.62526 0.0
O79 O 0.58485 0.61338 0.48882 0.0
O80 O 0.58219 0.6063 0.55889 0.0
O81 O 0.53017 0.45237 0.42081 0.0
C82 C 0.41969 0.58361 0.53034 0.0
O83 O 0.48048 0.54227 0.42194 0.0
C84 C 0.48942 0.44283 0.62195 0.0
O85 O 0.41508 0.45091 0.40591 0.0
C86 C 0.59095 0.42322 0.53575 0.0
O87 O 0.59508 0.55623 0.41314 0.0
C88 C 0.41807 0.49228 0.60825 0.0
O89 O 0.48675 0.55151 0.63064 0.0
O90 O 0.52324 0.56291 0.5876 0.0
C91 C 0.41339 0.38395 0.52091 0.0
O92 O 0.51665 0.44938 0.62741 0.0
O93 O 0.47923 0.44201 0.58429 0.0
C94 C 0.58312 0.5119 0.60878 0.0
O95 O 0.41126 0.46512 0.60313 0.0
O96 O 0.44024 0.50239 0.58765 0.0
C97 C 0.58807 0.62278 0.52672 0.0
O98 O 0.59105 0.53888 0.60503 0.0
O99 O 0.56105 0.50276 0.58724 0.0
C100 C 0.51039 0.43225 0.42098 0.0
O101 O 0.50539 0.41755 0.45641 0.0
C102 C 0.49886 0.56315 0.41522 0.0
O103 O 0.50242 0.58361 0.44451 0.0
C104 C 0.36516 0.43063 0.14492 0.0
C105 C 0.36736 0.41033 0.17888 0.0
C106 C 0.35022 0.38416 0.17742 0.0
C107 C 0.33223 0.37799 0.1424 0.0
H108 H 0.24776 0.34217 0.10255 0.0
H109 H 0.20718 0.30651 0.1054 0.0
H110 H 0.21537 0.29226 0.97015 0.0
H111 H 0.25529 0.32853 0.96702 0.0
H112 H 0.31015 0.35988 0.91681 0.0
H113 H 0.33709 0.3714 0.85167 0.0
H114 H 0.37448 0.44931 0.91139 0.0
H115 H 0.34855 0.4371 0.97687 0.0
H116 H 0.34716 0.43977 0.08326 0.0
H117 H 0.37733 0.45138 0.1453 0.0
H118 H 0.35157 0.36768 0.20245 0.0
H119 H 0.32015 0.35717 0.14173 0.0
N120 N 0.29273 0.36948 0.06942 0.0
N121 N 0.291 0.36908 0.99487 0.0
N122 N 0.32621 0.39845 0.0301 0.0
C123 C 0.27996 0.35969 0.03288 0.0
C124 C 0.31404 0.38859 0.99329 0.0
C125 C 0.31579 0.38893 0.06821 0.0
C126 C 0.2549 0.33827 0.03454 0.0
C127 C 0.24087 0.33152 0.07335 0.0
C128 C 0.21763 0.31093 0.07505 0.0
C129 C 0.20793 0.29644 0.03804 0.0
C130 C 0.22185 0.30335 -0.00079 0.0
C131 C 0.24495 0.32406 0.99745 0.0
C132 C 0.32743 0.3974 0.95217 0.0
C133 C 0.32388 0.37964 0.91585 0.0
C134 C 0.33928 0.38633 0.8784 0.0
C135 C 0.3583 0.41113 0.87628 0.0
C136 C 0.36069 0.42961 0.91211 0.0
C137 C 0.34563 0.42272 0.94963 0.0
C138 C 0.3314 0.39751 0.1076 0.0
C139 C 0.34765 0.42412 0.10948 0.0
C140 C 0.69075 0.44723 0.11593 0.0
C141 C 0.69176 0.43367 0.1561 0.0
C142 C 0.70417 0.40514 0.15999 0.0
C143 C 0.71442 0.39002 0.12417 0.0
H144 H 0.7507 0.31097 0.08462 0.0
H145 H 0.77502 0.26297 0.09078 0.0
H146 H 0.79102 0.2628 0.95533 0.0
H147 H 0.76575 0.31038 0.94893 0.0
H148 H 0.73204 0.36153 0.89028 0.0
H149 H 0.7105 0.37848 0.82282 0.0
H150 H 0.65371 0.4391 0.89107 0.0
H151 H 0.675 0.42268 0.95789 0.0
H152 H 0.69895 0.44289 0.04942 0.0
H153 H 0.68113 0.46913 0.11194 0.0
H154 H 0.70553 0.39433 0.19072 0.0
H155 H 0.7232 0.36778 0.12814 0.0
N156 N 0.73479 0.35974 0.04799 0.0
N157 N 0.73197 0.35398 0.97392 0.0
N158 N 0.71132 0.39594 0.00647 0.0
C159 C 0.74093 0.34364 0.01253 0.0
C160 C 0.71703 0.38014 0.97076 0.0
C161 C 0.72019 0.38606 0.04511 0.0
C162 C 0.75626 0.31461 0.01625 0.0
C163 C 0.75942 0.30075 0.0561 0.0
C164 C 0.77351 0.27321 0.05969 0.0
C165 C 0.78504 0.25893 0.02358 0.0
C166 C 0.78196 0.27285 0.98374 0.0
C167 C 0.76763 0.30029 0.98009 0.0
C168 C 0.70523 0.39068 0.92951 0.0
C169 C 0.71502 0.37852 0.89081 0.0
C170 C 0.70282 0.38824 0.85227 0.0
C171 C 0.68031 0.40984 0.85197 0.0
C172 C 0.67077 0.42213 0.89053 0.0
C173 C 0.68318 0.41281 0.9288 0.0
C174 C 0.71223 0.40306 0.08367 0.0
C175 C 0.70078 0.43206 0.08007 0.0
C176 C 0.65469 0.54376 0.90417 0.0
C177 C 0.65546 0.56458 0.87075 0.0
C178 C 0.67346 0.58998 0.87525 0.0
C179 C 0.68924 0.59501 0.9128 0.0
H180 H 0.75733 0.64408 0.96629 0.0
H181 H 0.79272 0.68453 0.97182 0.0
H182 H 0.79701 0.67168 0.10779 0.0
H183 H 0.76082 0.63159 0.10246 0.0
H184 H 0.71159 0.59064 0.14704 0.0
H185 H 0.68035 0.58208 0.20902 0.0
H186 H 0.61502 0.53903 0.12971 0.0
H187 H 0.64656 0.54656 0.06814 0.0
H188 H 0.66824 0.53299 0.96753 0.0
H189 H 0.64176 0.52356 0.90153 0.0
H190 H 0.6744 0.60674 0.85056 0.0
H191 H 0.70197 0.61533 0.91574 0.0
N192 N 0.72237 0.60267 0.992 0.0
N193 N 0.72014 0.59961 0.06637 0.0
N194 N 0.68787 0.57104 0.02474 0.0
C195 C 0.73276 0.61118 0.03069 0.0
C196 C 0.69768 0.57948 0.06366 0.0
C197 C 0.70012 0.58239 0.9888 0.0
C198 C 0.75601 0.63453 0.03393 0.0
C199 C 0.7659 0.64965 0.99741 0.0
C200 C 0.78643 0.67283 0.00056 0.0
C201 C 0.79782 0.68146 0.04028 0.0
C202 C 0.78841 0.66595 0.07675 0.0
C203 C 0.76775 0.6428 0.07363 0.0
C204 C 0.68137 0.56989 0.10234 0.0
C205 C 0.6908 0.57889 0.14288 0.0
C206 C 0.67277 0.57416 0.17843 0.0
C207 C 0.64479 0.56055 0.17422 0.0
C208 C 0.63639 0.54958 0.13423 0.0
C209 C 0.6545 0.5541 0.09875 0.0
C210 C 0.68702 0.57502 0.947 0.0
C211 C 0.67008 0.54904 0.94195 0.0
C212 C 0.30936 0.57875 0.87614 0.0
C213 C 0.312 0.59765 0.84079 0.0
C214 C 0.30611 0.62813 0.84569 0.0
C215 C 0.29834 0.63954 0.88551 0.0
H216 H 0.24809 0.7054 0.94919 0.0
H217 H 0.22088 0.75134 0.95931 0.0
H218 H 0.23933 0.74789 0.09395 0.0
H219 H 0.26603 0.70133 0.08409 0.0
H220 H 0.30388 0.64616 0.12109 0.0
H221 H 0.32531 0.61819 0.18015 0.0
H222 H 0.33918 0.54303 0.09742 0.0
H223 H 0.31755 0.57058 0.03866 0.0
H224 H 0.30085 0.575 0.94263 0.0
H225 H 0.3141 0.55522 0.87345 0.0
H226 H 0.30788 0.64314 0.81885 0.0
H227 H 0.29452 0.66319 0.88862 0.0
N228 N 0.27852 0.65954 0.96994 0.0
N229 N 0.28433 0.65475 0.04383 0.0
N230 N 0.3011 0.61713 -0.00148 0.0
C231 C 0.27455 0.67064 0.00973 0.0
C232 C 0.29764 0.62792 0.03837 0.0
C233 C 0.29172 0.63273 0.96419 0.0
C234 C 0.25921 0.69949 0.01583 0.0
C235 C 0.24654 0.71442 0.98099 0.0
C236 C 0.23106 0.74096 0.98675 0.0
C237 C 0.22794 0.7534 0.02745 0.0
C238 C 0.24099 0.73874 0.06225 0.0
C239 C 0.25643 0.71208 0.05652 0.0
C240 C 0.30909 0.61072 0.07504 0.0
C241 C 0.31128 0.6236 0.11555 0.0
C242 C 0.32374 0.60766 0.14932 0.0
C243 C 0.33403 0.57847 0.14333 0.0
C244 C 0.33122 0.56538 0.10311 0.0
C245 C 0.31897 0.58132 0.06935 0.0
C246 C 0.29685 0.62071 0.92116 0.0
C247 C 0.30201 0.59015 0.91588 0.0
C248 C 0.85627 0.94831 0.646 0.0
C249 C 0.85901 0.92604 0.67733 0.0
C250 C 0.84207 0.89992 0.67294 0.0
C251 C 0.82345 0.89588 0.63806 0.0
H252 H 0.73971 0.8606 0.60161 0.0
H253 H 0.70328 0.82073 0.60453 0.0
H254 H 0.70709 0.81271 0.46783 0.0
H255 H 0.74283 0.85315 0.46475 0.0
H256 H 0.78245 0.8979 0.4121 0.0
H257 H 0.80743 0.90813 0.34501 0.0
H258 H 0.87235 0.96158 0.41089 0.0
H259 H 0.84713 0.952 0.47775 0.0
H260 H 0.83701 0.96109 0.58631 0.0
H261 H 0.86835 0.96902 0.64863 0.0
H262 H 0.84392 0.88188 0.69558 0.0
H263 H 0.81143 0.87512 0.63533 0.0
N264 N 0.78194 0.89148 0.56779 0.0
N265 N 0.77768 0.89426 0.49368 0.0
N266 N 0.81393 0.92239 0.52894 0.0
C267 C 0.76807 0.88307 0.53146 0.0
C268 C 0.80052 0.91405 0.49214 0.0
C269 C 0.80475 0.91121 0.56684 0.0
C270 C 0.74438 0.86009 0.53293 0.0
C271 C 0.73264 0.85051 0.57209 0.0
C272 C 0.71183 0.82747 0.57382 0.0
C273 C 0.7023 0.81329 0.53647 0.0
C274 C 0.71355 0.82333 0.49724 0.0
C275 C 0.73424 0.84649 0.49548 0.0
C276 C 0.81299 0.92371 0.45061 0.0
C277 C 0.80176 0.91224 0.41229 0.0
C278 C 0.81619 0.91797 0.37376 0.0
C279 C 0.84216 0.93532 0.37259 0.0
C280 C 0.85232 0.94826 0.4105 0.0
C281 C 0.83792 0.94255 0.44902 0.0
C282 C 0.82176 0.9175 0.60597 0.0
C283 C 0.8381 0.94392 0.61044 0.0
C284 C 0.18026 0.94345 0.61424 0.0
C285 C 0.18024 0.92914 0.65391 0.0
C286 C 0.19296 0.9007 0.65741 0.0
C287 C 0.20479 0.88656 0.6217 0.0
H288 H 0.24705 0.80989 0.58079 0.0
H289 H 0.27433 0.76335 0.58582 0.0
H290 H 0.29326 0.7676 0.45129 0.0
H291 H 0.26524 0.81358 0.44596 0.0
H292 H 0.21378 0.85353 0.3909 0.0
H293 H 0.19498 0.8735 0.3237 0.0
H294 H 0.17779 0.95766 0.38463 0.0
H295 H 0.19669 0.93809 0.45119 0.0
H296 H 0.191 0.94083 0.54834 0.0
H297 H 0.17039 0.96524 0.61044 0.0
H298 H 0.19357 0.88928 0.68774 0.0
H299 H 0.21395 0.86445 0.62532 0.0
N300 N 0.22901 0.85865 0.54566 0.0
N301 N 0.2304 0.85563 0.47115 0.0
N302 N 0.20755 0.89618 0.50423 0.0
C303 C 0.2374 0.84399 0.50984 0.0
C304 C 0.21548 0.88178 0.46819 0.0
C305 C 0.21414 0.88486 0.54303 0.0
C306 C 0.2539 0.81555 0.51295 0.0
C307 C 0.25698 0.8009 0.55223 0.0
C308 C 0.27277 0.77424 0.55518 0.0
C309 C 0.28604 0.76166 0.51898 0.0
C310 C 0.28291 0.77632 0.47971 0.0
C311 C 0.26696 0.80285 0.4767 0.0
C312 C 0.20659 0.89415 0.42649 0.0
C313 C 0.20633 0.8764 0.38977 0.0
C314 C 0.19539 0.88774 0.35139 0.0
C315 C 0.18489 0.91711 0.34895 0.0
C316 C 0.18603 0.93505 0.38535 0.0
C317 C 0.19668 0.92371 0.42363 0.0
C318 C 0.20393 0.90051 0.58171 0.0
C319 C 0.19191 0.9293 0.57856 0.0
C320 C 0.13096 0.0724 0.40422 0.0
C321 C 0.14149 0.08465 0.36596 0.0
C322 C 0.16637 0.10357 0.36726 0.0
C323 C 0.17978 0.11074 0.40605 0.0
H324 H 0.23992 0.16821 0.46113 0.0
H325 H 0.27786 0.20644 0.46507 0.0
H326 H 0.28251 0.19489 0.60126 0.0
H327 H 0.24382 0.15718 0.59752 0.0
H328 H 0.18972 0.12335 0.64385 0.0
H329 H 0.1604 0.1115 0.70679 0.0
H330 H 0.09954 0.06083 0.62941 0.0
H331 H 0.12911 0.07184 0.56696 0.0
H332 H 0.13506 0.07001 0.47161 0.0
H333 H 0.11159 0.05812 0.40464 0.0
H334 H 0.1753 0.11311 0.33833 0.0
H335 H 0.19853 0.12582 0.40596 0.0
N336 N 0.204 0.12788 0.48842 0.0
N337 N 0.20088 0.12748 0.56293 0.0
N338 N 0.168 0.09882 0.52253 0.0
C339 C 0.21422 0.13741 0.52676 0.0
C340 C 0.17774 0.10811 0.56105 0.0
C341 C 0.18095 0.10844 0.48608 0.0
C342 C 0.23863 0.15959 0.52902 0.0
C343 C 0.24909 0.17364 0.49196 0.0
C344 C 0.27107 0.19552 0.49419 0.0
C345 C 0.28336 0.20384 0.5335 0.0
C346 C 0.27327 0.18942 0.57051 0.0
C347 C 0.25115 0.16763 0.56831 0.0
C348 C 0.16169 0.09884 0.60013 0.0
C349 C 0.17028 0.1094 0.64031 0.0
C350 C 0.15335 0.10274 0.6764 0.0
C351 C 0.12741 0.08544 0.67316 0.0
C352 C 0.11951 0.07396 0.63326 0.0
C353 C 0.13644 0.08051 0.59726 0.0
C354 C 0.1686 0.09915 0.44442 0.0
C355 C 0.14434 0.07948 0.44285 0.0
C356 C 0.80523 0.06457 0.39277 0.0
C357 C 0.80688 0.08203 0.35583 0.0
C358 C 0.7988 0.11219 0.35798 0.0
C359 C 0.78995 0.12476 0.39664 0.0
H360 H 0.74277 0.19514 0.4554 0.0
H361 H 0.71851 0.24308 0.46228 0.0
H362 H 0.73535 0.24214 0.59743 0.0
H363 H 0.75898 0.19373 0.59083 0.0
H364 H 0.79285 0.13738 0.63238 0.0
H365 H 0.8128 0.10991 0.69301 0.0
H366 H 0.82278 0.03197 0.61443 0.0
H367 H 0.80255 0.059 0.55425 0.0
H368 H 0.79617 0.06295 0.45914 0.0
H369 H 0.81166 0.04138 0.39239 0.0
H370 H 0.79962 0.12612 0.32989 0.0
H371 H 0.78449 0.14818 0.39757 0.0
N372 N 0.77102 0.14832 0.47951 0.0
N373 N 0.77446 0.14498 0.55394 0.0
N374 N 0.79061 0.10561 0.51142 0.0
C375 C 0.76648 0.16053 0.51856 0.0
C376 C 0.78649 0.11741 0.55049 0.0
C377 C 0.78306 0.12077 0.47583 0.0
C378 C 0.75277 0.19039 0.52256 0.0
C379 C 0.74146 0.20513 0.48661 0.0
C380 C 0.72768 0.2328 0.49052 0.0
C381 C 0.72497 0.24655 0.53043 0.0
C382 C 0.73667 0.23203 0.5663 0.0
C383 C 0.75036 0.20428 0.56244 0.0
C384 C 0.79628 0.10051 0.58836 0.0
C385 C 0.79899 0.11431 0.62817 0.0
C386 C 0.81061 0.09865 0.6628 0.0
C387 C 0.81951 0.06885 0.65835 0.0
C388 C 0.8159 0.05482 0.61894 0.0
C389 C 0.80447 0.07046 0.58435 0.0
C390 C 0.78932 0.10741 0.43384 0.0
C391 C 0.79657 0.07708 0.43123 0.0
H392 H 0.07955 0.1653 0.96336 0.0
H393 H 0.19774 0.25454 0.10021 0.0
H394 H 0.09913 0.14384 0.09413 0.0
H395 H 0.16339 0.28604 0.9802 0.0
H396 H 0.16033 0.21528 0.10026 0.0
H397 H 0.10831 0.21094 0.9704 0.0
C398 C 0.08961 0.17037 0.99376 0.0
C399 C 0.08715 0.15055 0.02809 0.0
C400 C 0.16081 0.23095 0.07411 0.0
C401 C 0.12056 0.20268 0.03619 0.0
C402 C 0.18212 0.25351 0.07411 0.0
C403 C 0.18399 0.2736 0.03994 0.0
C404 C 0.14132 0.22822 0.03953 0.0
C405 C 0.16331 0.27074 0.00677 0.0
C406 C 0.10605 0.19647 -0.00225 0.0
C407 C 0.10049 0.15843 0.06679 0.0
N408 N 0.14306 0.24835 0.00724 0.0
N409 N 0.11699 0.18368 0.06962 0.0
H410 H 0.87201 0.09296 0.96688 0.0
H411 H 0.82218 0.23986 0.0874 0.0
H412 H 0.89287 0.10963 0.09859 0.0
H413 H 0.78337 0.21146 0.96877 0.0
H414 H 0.84847 0.19257 0.09209 0.0
H415 H 0.83963 0.13641 0.9668 0.0
C416 C 0.86962 0.10562 0.99591 0.0
C417 C 0.8854 0.09775 0.03272 0.0
C418 C 0.83404 0.19662 0.06518 0.0
C419 C 0.84852 0.14777 0.03267 0.0
C420 C 0.81889 0.22361 0.06252 0.0
C421 C 0.80054 0.22983 0.02751 0.0
C422 C 0.83112 0.17574 0.0324 0.0
C423 C 0.79768 0.20799 0.99593 0.0
C424 C 0.85108 0.13043 0.99584 0.0
C425 C 0.88123 0.11491 0.06945 0.0
N426 N 0.81294 0.18203 -0.00099 0.0
N427 N 0.86344 0.13931 0.06836 0.0
H428 H 0.91139 0.82732 0.97122 0.0
H429 H 0.80013 0.72468 0.10204 0.0
H430 H 0.88572 0.84677 0.10035 0.0
H431 H 0.84294 0.69718 0.98582 0.0
H432 H 0.83191 0.76872 0.10349 0.0
H433 H 0.88715 0.77908 0.97707 0.0
C434 C 0.90084 0.82134 0.00099 0.0
C435 C 0.90041 0.84126 0.03525 0.0
C436 C 0.83451 0.7529 0.07789 0.0
C437 C 0.87221 0.78595 0.04201 0.0
C438 C 0.81645 0.72762 0.07711 0.0
C439 C 0.81858 0.70719 0.04351 0.0
C440 C 0.85474 0.75797 0.04467 0.0
C441 C 0.83995 0.71255 0.01185 0.0
C442 C 0.88702 0.79372 0.00433 0.0
C443 C 0.88658 0.83214 0.07313 0.0
N444 N 0.85696 0.73748 0.01304 0.0
N445 N 0.87269 0.80528 0.07532 0.0
H446 H 0.12464 0.90952 0.97458 0.0
H447 H 0.18933 0.76691 0.09229 0.0
H448 H 0.0998 0.88535 0.10264 0.0
H449 H 0.22604 0.8028 0.97623 0.0
H450 H 0.1575 0.81068 0.0982 0.0
H451 H 0.16268 0.87108 0.9757 0.0
C452 C 0.12727 0.89622 0.00307 0.0
C453 C 0.10877 0.9005 0.03843 0.0
C454 C 0.17271 0.80908 0.07165 0.0
C455 C 0.15231 0.85618 0.0398 0.0
C456 C 0.19103 0.78415 0.06834 0.0
C457 C 0.21025 0.78097 0.03346 0.0
C458 C 0.17344 0.8309 0.03971 0.0
C459 C 0.21114 0.80392 0.00317 0.0
C460 C 0.14909 0.87429 0.00371 0.0
C461 C 0.11346 0.88275 0.07458 0.0
N462 N 0.19283 0.82775 0.00682 0.0
N463 N 0.13458 0.86113 0.07417 0.0
H464 H 0.61444 0.64637 0.59801 0.0
H465 H 0.65696 0.7992 0.48157 0.0
H466 H 0.59004 0.66806 0.46898 0.0
H467 H 0.70027 0.76826 0.59579 0.0
H468 H 0.62586 0.75478 0.48237 0.0
H469 H 0.63926 0.69478 0.60373 0.0
C470 C 0.61397 0.66142 0.5711 0.0
C471 C 0.60038 0.65302 0.53283 0.0
C472 C 0.64207 0.7578 0.50739 0.0
C473 C 0.62865 0.7083 0.53917 0.0
C474 C 0.65998 0.78311 0.50684 0.0
C475 C 0.68158 0.78746 0.5384 0.0
C476 C 0.64559 0.73661 0.53983 0.0
C477 C 0.68383 0.76608 0.57094 0.0
C478 C 0.62826 0.68896 0.57432 0.0
C479 C 0.60051 0.67342 0.49896 0.0
N480 N 0.66618 0.74153 0.57069 0.0
N481 N 0.61448 0.7 0.50289 0.0
H482 H 0.40343 0.61869 0.59778 0.0
H483 H 0.28838 0.71555 0.46203 0.0
H484 H 0.38551 0.60412 0.46463 0.0
H485 H 0.32339 0.74363 0.5832 0.0
H486 H 0.31897 0.67089 0.4662 0.0
H487 H 0.36891 0.6607 0.59678 0.0
C488 C 0.39215 0.62419 0.5684 0.0
C489 C 0.3976 0.60797 0.53113 0.0
C490 C 0.31989 0.68681 0.49192 0.0
C491 C 0.35802 0.65591 0.52989 0.0
C492 C 0.30255 0.71242 0.48948 0.0
C493 C 0.30343 0.73362 0.52214 0.0
C494 C 0.33819 0.68215 0.5274 0.0
C495 C 0.32171 0.72786 0.55742 0.0
C496 C 0.37252 0.64822 0.56786 0.0
C497 C 0.38223 0.61609 0.49405 0.0
N498 N 0.33841 0.70273 0.55906 0.0
N499 N 0.3632 0.63949 0.49438 0.0
H500 H 0.40865 0.33964 0.46213 0.0
H501 H 0.28945 0.24724 0.59444 0.0
H502 H 0.38509 0.36128 0.59138 0.0
H503 H 0.32889 0.21588 0.47777 0.0
H504 H 0.32476 0.28847 0.59502 0.0
H505 H 0.38016 0.29375 0.4681 0.0
C506 C 0.39769 0.33462 0.49195 0.0
C507 C 0.39911 0.35449 0.52622 0.0
C508 C 0.32582 0.27242 0.56949 0.0
C509 C 0.36606 0.30195 0.5331 0.0
C510 C 0.30573 0.24874 0.5692 0.0
C511 C 0.30594 0.22804 0.5358 0.0
C512 C 0.34618 0.27565 0.53598 0.0
C513 C 0.32737 0.23156 0.5037 0.0
C514 C 0.38143 0.30835 0.49534 0.0
C515 C 0.3846 0.34664 0.56414 0.0
N516 N 0.34642 0.25498 0.50443 0.0
N517 N 0.36837 0.32115 0.5664 0.0
H518 H 0.60537 0.38846 0.60472 0.0
H519 H 0.72685 0.29456 0.47646 0.0
H520 H 0.63068 0.40623 0.47473 0.0
H521 H 0.68707 0.2646 0.59386 0.0
H522 H 0.69761 0.34011 0.4808 0.0
H523 H 0.64142 0.34772 0.60675 0.0
C524 C 0.61868 0.38403 0.57677 0.0
C525 C 0.6147 0.40058 0.53931 0.0
C526 C 0.69541 0.32363 0.50574 0.0
C527 C 0.65595 0.35407 0.54151 0.0
C528 C 0.71199 0.29753 0.50318 0.0
C529 C 0.7092 0.27546 0.53456 0.0
C530 C 0.67589 0.32787 0.54001 0.0
C531 C 0.69012 0.28099 0.56903 0.0
C532 C 0.63917 0.36071 0.57792 0.0
C533 C 0.63269 0.39388 0.50414 0.0
N534 N 0.67406 0.30655 0.57068 0.0
N535 N 0.65239 0.37109 0.50605 0.0
H536 H 0.01094 0.01907 0.19016 0.0
H537 H 0.12992 0.12402 0.30122 0.0
H538 H 0.04233 0.10017 0.13278 0.0
H539 H 0.1156 0.03273 0.33859 0.0
H540 H 0.09825 0.11606 0.23935 0.0
H541 H 0.04829 0.02433 0.24609 0.0
C542 C 0.02561 0.03808 0.18961 0.0
C543 C 0.02368 0.0592 0.15699 0.0
C544 C 0.10227 0.0977 0.2609 0.0
C545 C 0.06635 0.06554 0.22071 0.0
C546 C 0.12054 0.10216 0.29613 0.0
C547 C 0.12524 0.07911 0.32557 0.0
C548 C 0.0883 0.0701 0.2552 0.0
C549 C 0.11208 0.05137 0.3174 0.0
C550 C 0.0471 0.04097 0.22125 0.0
C551 C 0.04336 0.08333 0.15732 0.0
N552 N 0.09399 0.04774 0.28327 0.0
N553 N 0.06381 0.08596 0.18885 0.0
H554 H 0.91898 0.03859 0.14195 0.0
H555 H 0.79469 0.02724 0.3225 0.0
H556 H 0.86449 0.96116 0.16366 0.0
H557 H 0.8462 0.10653 0.29914 0.0
H558 H 0.81865 0.00363 0.2619 0.0
H559 H 0.89124 0.06491 0.19681 0.0
C560 C 0.90103 0.02722 0.15777 0.0
C561 C 0.894 0.9977 0.14781 0.0
C562 C 0.82454 0.0263 0.26971 0.0
C563 C 0.86233 0.0275 0.21118 0.0
C564 C 0.81092 0.03976 0.30441 0.0
C565 C 0.81859 0.06885 0.31608 0.0
C566 C 0.84603 0.04199 0.24637 0.0
C567 C 0.83943 0.08417 0.29108 0.0
C568 C 0.88523 0.04223 0.18929 0.0
C569 C 0.87069 0.98395 0.17008 0.0
N570 N 0.85261 0.07047 0.25756 0.0
N571 N 0.8558 0.99892 0.20075 0.0
H572 H 0.94241 0.89616 0.14394 0.0
H573 H 0.87219 0.98397 0.34087 0.0
H574 H 0.97875 0.97779 0.19265 0.0
H575 H 0.8536 0.89172 0.31431 0.0
H576 H 0.90634 0.985 0.28027 0.0
H577 H 0.90535 0.89651 0.20109 0.0
C578 C 0.94262 0.91405 0.16689 0.0
C579 C 0.96353 0.93701 0.16375 0.0
C580 C 0.89471 0.96458 0.28774 0.0
C581 C 0.92123 0.9378 0.22873 0.0
C582 C 0.87521 0.96396 0.32229 0.0
C583 C 0.86016 0.93763 0.33303 0.0
C584 C 0.89918 0.9387 0.26371 0.0
C585 C 0.86446 0.9126 0.30714 0.0
C586 C 0.92151 0.9143 0.19939 0.0
C587 C 0.96306 0.95965 0.19425 0.0
N588 N 0.88367 0.91371 0.27389 0.0
N589 N 0.94209 0.95963 0.22533 0.0
H590 H 0.12221 0.03436 0.15169 0.0
H591 H 0.14549 0.88954 0.29566 0.0
H592 H 0.06701 0.95629 0.14257 0.0
H593 H 0.19341 0.97172 0.31259 0.0
H594 H 0.11998 0.91141 0.23442 0.0
H595 H 0.15128 0.0099 0.20658 0.0
C596 C 0.11632 0.01189 0.16081 0.0
C597 C 0.09223 0.9972 0.14183 0.0
C598 C 0.1362 0.92457 0.25141 0.0
C599 C 0.12562 0.96898 0.20507 0.0
C600 C 0.15094 0.91203 0.28612 0.0
C601 C 0.17147 0.92891 0.30937 0.0
C602 C 0.14214 0.95415 0.23985 0.0
C603 C 0.17743 0.95806 0.29594 0.0
C604 C 0.13299 0.99794 0.19227 0.0
C605 C 0.08563 0.96825 0.15544 0.0
N606 N 0.16275 0.96978 0.2622 0.0
N607 N 0.10221 0.95506 0.18626 0.0
H608 H 0.11906 0.05173 0.84716 0.0
H609 H 0.14344 0.90332 0.71238 0.0
H610 H 0.06762 0.97164 0.86473 0.0
H611 H 0.18357 0.98737 0.67925 0.0
H612 H 0.118 0.92739 0.77151 0.0
H613 H 0.14493 0.02812 0.78785 0.0
C614 C 0.11325 0.02916 0.83863 0.0
C615 C 0.09127 0.01355 0.86111 0.0
C616 C 0.13238 0.94059 0.75133 0.0
C617 C 0.12084 0.98641 0.79347 0.0
C618 C 0.14713 0.92679 0.71782 0.0
C619 C 0.16573 0.94334 0.69095 0.0
C620 C 0.13635 0.97115 0.75825 0.0
C621 C 0.16924 0.97383 0.69902 0.0
C622 C 0.12801 0.01572 0.80476 0.0
C623 C 0.08449 0.98447 0.84844 0.0
N624 N 0.15472 0.98675 0.73201 0.0
N625 N 0.09929 0.97181 0.81557 0.0
H626 H 0.02483 0.10898 0.90315 0.0
H627 H 0.09607 0.03525 0.69592 0.0
H628 H 0.99513 0.02526 0.85168 0.0
H629 H 0.11318 0.12549 0.7354 0.0
H630 H 0.06074 0.03 0.75451 0.0
H631 H 0.05862 0.11454 0.84309 0.0
C632 C 0.02525 0.09184 0.87906 0.0
C633 C 0.00722 0.06653 0.88259 0.0
C634 C 0.07219 0.05096 0.75022 0.0
C635 C 0.04611 0.07266 0.81377 0.0
C636 C 0.09237 0.054 0.71678 0.0
C637 C 0.1076 0.08092 0.71049 0.0
C638 C 0.06734 0.07493 0.77787 0.0
C639 C 0.10234 0.10418 0.73921 0.0
C640 C 0.0446 0.09502 0.84475 0.0
C641 C 0.00873 0.04506 0.85033 0.0
N642 N 0.08268 0.10064 0.77156 0.0
N643 N 0.028 0.04852 0.8174 0.0
H644 H 0.93644 0.01445 0.86153 0.0
H645 H 0.80991 0.01136 0.68423 0.0
H646 H 0.86578 0.94961 0.86088 0.0
H647 H 0.8618 0.08942 0.71309 0.0
H648 H 0.83475 0.98496 0.74229 0.0
H649 H 0.91364 0.03895 0.80041 0.0
C650 C 0.91608 0.00542 0.84864 0.0
C651 C 0.90287 0.98008 0.86647 0.0
C652 C 0.84053 0.00792 0.736 0.0
C653 C 0.87685 0.00782 0.79641 0.0
C654 C 0.8265 0.02295 0.70281 0.0
C655 C 0.83362 0.05273 0.69411 0.0
C656 C 0.86199 0.02273 0.76038 0.0
C657 C 0.85524 0.06667 0.71921 0.0
C658 C 0.90313 0.01938 0.81372 0.0
C659 C 0.87668 0.96914 0.84814 0.0
N660 N 0.86871 0.05153 0.75117 0.0
N661 N 0.86451 0.98306 0.81402 0.0
H662 H 0.00494 0.96993 0.848 0.0
H663 H 0.85384 0.9042 0.75881 0.0
H664 H 0.96156 0.8926 0.90076 0.0
H665 H 0.91329 0.95486 0.67866 0.0
H666 H 0.89133 0.90409 0.81422 0.0
H667 H 0.97016 0.9687 0.78803 0.0
C668 C 0.98834 0.95253 0.84677 0.0
C669 C 0.98595 0.93151 0.87969 0.0
C670 C 0.89617 0.91519 0.78444 0.0
C671 C 0.94619 0.93012 0.8115 0.0
C672 C 0.87476 0.91521 0.75257 0.0
C673 C 0.88041 0.92903 0.71329 0.0
C674 C 0.92323 0.92992 0.77785 0.0
C675 C 0.90765 0.94404 0.7083 0.0
C676 C 0.96858 0.95183 0.81253 0.0
C677 C 0.96416 0.90936 0.8763 0.0
N678 N 0.92802 0.94415 0.74024 0.0
N679 N 0.94496 0.90943 0.84308 0.0
H680 H 0.51122 0.52464 0.69673 0.0
H681 H 0.66704 0.5802 0.7875 0.0
H682 H 0.56279 0.59374 0.63678 0.0
H683 H 0.59925 0.54083 0.86695 0.0
H684 H 0.63283 0.57808 0.72731 0.0
H685 H 0.54689 0.52359 0.7555 0.0
C686 C 0.53 0.53969 0.69608 0.0
C687 C 0.53433 0.55911 0.66171 0.0
C688 C 0.62559 0.56982 0.75796 0.0
C689 C 0.57522 0.55783 0.7284 0.0
C690 C 0.64505 0.5711 0.79243 0.0
C691 C 0.63607 0.56092 0.83271 0.0
C692 C 0.59701 0.55801 0.76358 0.0
C693 C 0.60746 0.54863 0.8366 0.0
C694 C 0.55038 0.53898 0.72946 0.0
C695 C 0.55901 0.57809 0.66233 0.0
N696 N 0.58897 0.54758 0.80254 0.0
N697 N 0.57867 0.57686 0.69503 0.0
H698 H 0.43039 0.54831 0.63895 0.0
H699 H 0.29409 0.54699 0.80053 0.0
H700 H 0.36516 0.47825 0.6451 0.0
H701 H 0.35513 0.62045 0.78885 0.0
H702 H 0.31745 0.52353 0.73916 0.0
H703 H 0.40116 0.57704 0.6894 0.0
C704 C 0.40977 0.53913 0.65027 0.0
C705 C 0.40024 0.5109 0.63736 0.0
C706 C 0.32556 0.54494 0.74965 0.0
C707 C 0.3668 0.5434 0.69605 0.0
C708 C 0.31224 0.5583 0.7847 0.0
C709 C 0.32289 0.58554 0.79996 0.0
C710 C 0.34992 0.55877 0.72993 0.0
C711 C 0.34619 0.59947 0.77798 0.0
C712 C 0.39308 0.55551 0.67935 0.0
C713 C 0.37349 0.4999 0.65412 0.0
N714 N 0.35919 0.58575 0.74435 0.0
N715 N 0.35782 0.51609 0.68273 0.0
H716 H 0.49667 0.46598 0.70128 0.0
H717 H 0.34326 0.40311 0.79212 0.0
H718 H 0.43833 0.41007 0.62807 0.0
H719 H 0.41543 0.43228 0.87223 0.0
H720 H 0.37477 0.41122 0.72981 0.0
H721 H 0.46412 0.45947 0.76285 0.0
C722 C 0.47692 0.4524 0.6981 0.0
C723 C 0.46985 0.43893 0.65924 0.0
C724 C 0.38361 0.41587 0.76109 0.0
C725 C 0.43251 0.43147 0.72947 0.0
C726 C 0.36569 0.41115 0.79673 0.0
C727 C 0.3766 0.417 0.8377 0.0
C728 C 0.41259 0.42674 0.76635 0.0
C729 C 0.40574 0.42793 0.84141 0.0
C730 C 0.45835 0.44874 0.73322 0.0
C731 C 0.44411 0.42149 0.65701 0.0
N732 N 0.42266 0.43246 0.80626 0.0
N733 N 0.42625 0.41835 0.69156 0.0
H734 H 0.64268 0.50849 0.62364 0.0
H735 H 0.62133 0.41328 0.8344 0.0
H736 H 0.55858 0.47302 0.66432 0.0
H737 H 0.70751 0.42914 0.77906 0.0
H738 H 0.5981 0.43442 0.77115 0.0
H739 H 0.6674 0.47936 0.67939 0.0
C740 C 0.62954 0.49404 0.64381 0.0
C741 C 0.59867 0.49232 0.6388 0.0
C742 C 0.62209 0.43303 0.77252 0.0
C743 C 0.62646 0.45962 0.70284 0.0
C744 C 0.63532 0.42106 0.80866 0.0
C745 C 0.66632 0.41971 0.8119 0.0
C746 C 0.64 0.44411 0.73956 0.0
C747 C 0.6835 0.42978 0.7776 0.0
C748 C 0.64359 0.47743 0.6755 0.0
C749 C 0.58248 0.47381 0.66601 0.0
N750 N 0.6701 0.44194 0.74295 0.0
N751 N 0.59652 0.45834 0.69712 0.0
H752 H 0.57744 0.47564 0.36697 0.0
H753 H 0.69676 0.49202 0.18066 0.0
H754 H 0.6344 0.55235 0.35406 0.0
H755 H 0.65514 0.40903 0.21543 0.0
H756 H 0.67199 0.51596 0.24089 0.0
H757 H 0.60322 0.45238 0.30763 0.0
C758 C 0.59547 0.48755 0.35178 0.0
C759 C 0.60392 0.51589 0.36567 0.0
C760 C 0.66841 0.4925 0.23537 0.0
C761 C 0.6335 0.48939 0.29762 0.0
C762 C 0.68246 0.47886 0.20102 0.0
C763 C 0.67814 0.44845 0.19328 0.0
C764 C 0.64952 0.4757 0.26161 0.0
C765 C 0.65945 0.43241 0.22065 0.0
C766 C 0.6102 0.47424 0.31791 0.0
C767 C 0.62728 0.53039 0.34452 0.0
N768 N 0.64571 0.44626 0.25343 0.0
N769 N 0.64126 0.51698 0.31144 0.0
H770 H 0.50371 0.51992 0.35409 0.0
H771 H 0.63546 0.60424 0.23295 0.0
H772 H 0.53747 0.60623 0.38925 0.0
H773 H 0.60462 0.51693 0.19715 0.0
H774 H 0.59859 0.60537 0.28926 0.0
H775 H 0.5384 0.51907 0.29416 0.0
C776 C 0.51813 0.53885 0.34891 0.0
C777 C 0.51775 0.56318 0.3768 0.0
C778 C 0.59981 0.58593 0.26912 0.0
C779 C 0.55753 0.56226 0.30851 0.0
C780 C 0.62119 0.58509 0.23719 0.0
C781 C 0.62338 0.56036 0.21026 0.0
C782 C 0.58023 0.56193 0.27434 0.0
C783 C 0.60357 0.53662 0.21678 0.0
C784 C 0.53798 0.5383 0.31476 0.0
C785 C 0.53705 0.58698 0.36871 0.0
N786 N 0.58284 0.53798 0.24819 0.0
N787 N 0.55621 0.58585 0.33546 0.0
H788 H 0.44635 0.5253 0.35264 0.0
H789 H 0.32612 0.52011 0.16606 0.0
H790 H 0.38112 0.45548 0.34086 0.0
H791 H 0.37498 0.59904 0.20022 0.0
H792 H 0.35078 0.4932 0.22379 0.0
H793 H 0.42512 0.54968 0.29035 0.0
C794 C 0.42764 0.51502 0.33689 0.0
C795 C 0.41534 0.48844 0.3522 0.0
C796 C 0.35601 0.51643 0.21868 0.0
C797 C 0.39099 0.51619 0.28081 0.0
C798 C 0.34207 0.53176 0.18566 0.0
C799 C 0.34837 0.56193 0.17854 0.0
C800 C 0.37652 0.53135 0.24457 0.0
C801 C 0.3691 0.57595 0.20504 0.0
C802 C 0.4155 0.52898 0.30136 0.0
C803 C 0.39119 0.47605 0.33029 0.0
N804 N 0.38246 0.56054 0.23686 0.0
N805 N 0.37977 0.49005 0.29569 0.0
H806 H 0.46545 0.39202 0.41267 0.0
H807 H 0.42216 0.43765 0.17603 0.0
H808 H 0.51169 0.46119 0.34399 0.0
H809 H 0.36161 0.39448 0.26315 0.0
H810 H 0.45799 0.44266 0.23367 0.0
H811 H 0.43112 0.38695 0.35324 0.0
C812 C 0.46856 0.40598 0.38494 0.0
C813 C 0.49135 0.42723 0.38345 0.0
C814 C 0.43682 0.43211 0.24003 0.0
C815 C 0.45197 0.4216 0.31538 0.0
C816 C 0.41613 0.42949 0.20724 0.0
C817 C 0.38865 0.41543 0.2144 0.0
C818 C 0.4303 0.42015 0.28012 0.0
C819 C 0.38265 0.40481 0.25556 0.0
C820 C 0.44885 0.40315 0.35111 0.0
C821 C 0.49433 0.44463 0.34657 0.0
N822 N 0.40338 0.40715 0.28668 0.0
N823 N 0.47476 0.4415 0.31399 0.0
loop_
_geom_bond_atom_site_label_1
_geom_bond_atom_site_label_2
_geom_bond_distance
_geom_bond_site_symmetry_2
_ccdc_geom_bond_type
Zn0 O2 1.933 1_556 S
Zn0 O20 1.985 . S
Zn0 O31 1.955 . S
Zn1 O2 1.911 . S
Zn1 O21 1.970 . S
Zn1 O37 1.945 . S
Zn1 O44 1.981 . S
O2 Zn0 1.933 1_554 S
O2 Zn1 1.911 . S
O2 H3 0.841 1_655 S
H3 O2 0.841 1_455 S
C4 O5 1.246 . S
C4 O33 1.276 1_545 S
O5 C4 1.246 . S
Zn6 O8 1.911 . S
Zn6 O23 1.970 . S
Zn6 O40 1.945 . S
Zn6 O47 1.981 . S
Zn7 O8 1.933 1_556 S
Zn7 O22 1.985 . S
Zn7 O29 1.955 . S
O8 Zn6 1.911 . S
O8 Zn7 1.933 1_554 S
O8 H9 0.841 1_455 S
H9 O8 0.841 1_655 S
Zn10 O11 1.933 1_556 S
Zn10 O24 1.985 . S
Zn10 O33 1.955 . S
O11 Zn10 1.933 1_554 S
O11 Zn12 1.911 . S
O11 H13 0.841 1_565 S
Zn12 O11 1.911 . S
Zn12 O25 1.970 . S
Zn12 O41 1.981 . S
Zn12 O43 1.945 . S
H13 O11 0.841 1_545 S
Zn14 O15 1.933 1_556 S
Zn14 O27 1.985 . S
Zn14 O35 1.955 . S
O15 Zn14 1.933 1_554 S
O15 H16 0.841 1_545 S
O15 Zn17 1.911 . S
H16 O15 0.841 1_565 S
Zn17 O15 1.911 . S
Zn17 O28 1.970 . S
Zn17 O38 1.981 . S
Zn17 O46 1.945 . S
C18 O19 1.246 . S
C18 O35 1.276 1_565 S
O19 C18 1.246 . S
O20 Zn0 1.985 . S
O20 C30 1.245 1_556 S
O21 Zn1 1.970 . S
O21 C30 1.263 . S
O22 Zn7 1.985 . S
O22 C34 1.245 1_556 S
O23 Zn6 1.970 . S
O23 C34 1.263 . S
O24 Zn10 1.985 . S
O24 C39 1.245 1_556 S
O25 Zn12 1.970 . S
O25 C39 1.263 . S
C26 O37 1.262 1_455 S
C26 O38 1.245 . S
O27 Zn14 1.985 . S
O27 C45 1.245 1_556 S
O28 Zn17 1.970 . S
O28 C45 1.263 . S
O29 Zn7 1.955 . S
O29 C48 1.276 1_455 S
C30 O20 1.245 1_554 S
C30 O21 1.263 . S
O31 Zn0 1.955 . S
O31 C50 1.276 1_655 S
C32 O40 1.262 1_655 S
C32 O41 1.245 . S
O33 C4 1.276 1_565 S
O33 Zn10 1.955 . S
C34 O22 1.245 1_554 S
C34 O23 1.263 . S
O35 Zn14 1.955 . S
O35 C18 1.276 1_545 S
C36 O43 1.262 1_545 S
C36 O44 1.245 . S
O37 Zn1 1.945 . S
O37 C26 1.262 1_655 S
O38 Zn17 1.981 . S
O38 C26 1.245 . S
C39 O24 1.245 1_554 S
C39 O25 1.263 . S
O40 Zn6 1.945 . S
O40 C32 1.262 1_455 S
O41 Zn12 1.981 . S
O41 C32 1.245 . S
C42 O46 1.262 1_565 S
C42 O47 1.245 . S
O43 Zn12 1.945 . S
O43 C36 1.262 1_565 S
O44 Zn1 1.981 . S
O44 C36 1.245 . S
C45 O27 1.245 1_554 S
C45 O28 1.263 . S
O46 Zn17 1.945 . S
O46 C42 1.262 1_545 S
O47 Zn6 1.981 . S
O47 C42 1.245 . S
C48 O29 1.276 1_655 S
C48 O49 1.246 . S
O49 C48 1.246 . S
C50 O31 1.276 1_455 S
C50 O51 1.246 . S
O51 C50 1.246 . S
Zn52 O54 1.933 . S
Zn52 O72 1.985 . S
Zn52 O83 1.955 . S
Zn53 O54 1.911 . S
Zn53 O73 1.970 . S
Zn53 O89 1.945 . S
Zn53 O96 1.981 . S
O54 Zn52 1.933 . S
O54 Zn53 1.911 . S
O54 H55 0.841 . S
H55 O54 0.841 . S
C56 O57 1.246 . S
C56 O85 1.276 . S
O57 C56 1.246 . S
Zn58 O60 1.911 . S
Zn58 O75 1.970 . S
Zn58 O92 1.945 . S
Zn58 O99 1.981 . S
Zn59 O60 1.933 . S
Zn59 O74 1.985 . S
Zn59 O81 1.955 . S
O60 Zn58 1.911 . S
O60 Zn59 1.933 . S
O60 H61 0.841 . S
H61 O60 0.841 . S
Zn62 O63 1.933 . S
Zn62 O76 1.985 . S
Zn62 O85 1.955 . S
O63 Zn62 1.933 . S
O63 Zn64 1.911 . S
O63 H65 0.841 . S
Zn64 O63 1.911 . S
Zn64 O77 1.970 . S
Zn64 O93 1.981 . S
Zn64 O95 1.945 . S
H65 O63 0.841 . S
Zn66 O67 1.933 . S
Zn66 O79 1.985 . S
Zn66 O87 1.955 . S
O67 Zn66 1.933 . S
O67 H68 0.841 . S
O67 Zn69 1.911 . S
H68 O67 0.841 . S
Zn69 O67 1.911 . S
Zn69 O80 1.970 . S
Zn69 O90 1.981 . S
Zn69 O98 1.945 . S
C70 O71 1.246 . S
C70 O87 1.276 . S
O71 C70 1.246 . S
O72 Zn52 1.985 . S
O72 C82 1.245 . S
O73 Zn53 1.970 . S
O73 C82 1.263 . S
O74 Zn59 1.985 . S
O74 C86 1.245 . S
O75 Zn58 1.970 . S
O75 C86 1.263 . S
O76 Zn62 1.985 . S
O76 C91 1.245 . S
O77 Zn64 1.970 . S
O77 C91 1.263 . S
C78 O89 1.262 . S
C78 O90 1.245 . S
O79 Zn66 1.985 . S
O79 C97 1.245 . S
O80 Zn69 1.970 . S
O80 C97 1.263 . S
O81 Zn59 1.955 . S
O81 C100 1.276 . S
C82 O72 1.245 . S
C82 O73 1.263 . S
O83 Zn52 1.955 . S
O83 C102 1.276 . S
C84 O92 1.262 . S
C84 O93 1.245 . S
O85 C56 1.276 . S
O85 Zn62 1.955 . S
C86 O74 1.245 . S
C86 O75 1.263 . S
O87 Zn66 1.955 . S
O87 C70 1.276 . S
C88 O95 1.262 . S
C88 O96 1.245 . S
O89 Zn53 1.945 . S
O89 C78 1.262 . S
O90 Zn69 1.981 . S
O90 C78 1.245 . S
C91 O76 1.245 . S
C91 O77 1.263 . S
O92 Zn58 1.945 . S
O92 C84 1.262 . S
O93 Zn64 1.981 . S
O93 C84 1.245 . S
C94 O98 1.262 . S
C94 O99 1.245 . S
O95 Zn64 1.945 . S
O95 C88 1.262 . S
O96 Zn53 1.981 . S
O96 C88 1.245 . S
C97 O79 1.245 . S
C97 O80 1.263 . S
O98 Zn69 1.945 . S
O98 C94 1.262 . S
O99 Zn58 1.981 . S
O99 C94 1.245 . S
C100 O81 1.276 . S
C100 O101 1.246 . S
O101 C100 1.246 . S
C102 O83 1.276 . S
C102 O103 1.246 . S
O103 C102 1.246 . S
C104 C105 1.384 . S
C104 H117 0.947 . S
C104 C139 1.382 . S
C105 C104 1.384 . S
C105 C106 1.378 . S
C106 C105 1.378 . S
C106 C107 1.378 . S
C106 H118 0.952 . S
C107 C106 1.378 . S
C107 H119 0.950 . S
C107 C138 1.383 . S
H108 C127 0.947 . S
H109 C128 0.946 . S
H110 C130 0.953 . S
H111 C131 0.945 . S
H112 C133 0.952 . S
H113 C134 0.949 . S
H114 C136 0.950 . S
H115 C137 0.948 . S
H116 C139 0.951 . S
H117 C104 0.947 . S
H118 C106 0.952 . S
H119 C107 0.950 . S
N120 C123 1.382 . S
N120 C125 1.363 . S
N121 C123 1.371 1_556 S
N121 C124 1.372 . S
N122 C124 1.361 1_554 S
N122 C125 1.377 . S
C123 N120 1.382 . S
C123 N121 1.371 1_554 S
C123 C126 1.480 . S
C124 N121 1.372 . S
C124 N122 1.361 1_556 S
C124 C132 1.457 . S
C125 N120 1.363 . S
C125 N122 1.377 . S
C125 C138 1.479 . S
C126 C123 1.480 . S
C126 C127 1.383 . S
C126 C131 1.385 1_554 S
C127 H108 0.947 . S
C127 C126 1.383 . S
C127 C128 1.388 . S
C128 H109 0.946 . S
C128 C127 1.388 . S
C128 C129 1.384 . S
C129 C128 1.384 . S
C129 C130 1.377 1_554 S
C130 H110 0.953 . S
C130 C129 1.377 1_556 S
C130 C131 1.369 . S
C131 H111 0.945 . S
C131 C126 1.385 1_556 S
C131 C130 1.369 . S
C132 C124 1.457 . S
C132 C133 1.372 . S
C132 C137 1.364 . S
C133 H112 0.952 . S
C133 C132 1.372 . S
C133 C134 1.389 . S
C134 H113 0.949 . S
C134 C133 1.389 . S
C134 C135 1.387 . S
C135 C134 1.387 . S
C135 C136 1.372 . S
C136 H114 0.950 . S
C136 C135 1.372 . S
C136 C137 1.379 . S
C137 H115 0.948 . S
C137 C132 1.364 . S
C137 C136 1.379 . S
C138 C107 1.383 . S
C138 C125 1.479 . S
C138 C139 1.398 . S
C139 C104 1.382 . S
C139 H116 0.951 . S
C139 C138 1.398 . S
C140 C141 1.384 . S
C140 H153 0.947 . S
C140 C175 1.382 . S
C141 C140 1.384 . S
C141 C142 1.378 . S
C142 C141 1.378 . S
C142 C143 1.378 . S
C142 H154 0.952 . S
C143 C142 1.378 . S
C143 H155 0.950 . S
C143 C174 1.383 . S
H144 C163 0.947 . S
H145 C164 0.946 . S
H146 C166 0.953 . S
H147 C167 0.945 . S
H148 C169 0.952 . S
H149 C170 0.949 . S
H150 C172 0.950 . S
H151 C173 0.948 . S
H152 C175 0.951 . S
H153 C140 0.947 . S
H154 C142 0.952 . S
H155 C143 0.950 . S
N156 C159 1.382 . S
N156 C161 1.363 . S
N157 C159 1.371 1_556 S
N157 C160 1.372 . S
N158 C160 1.361 1_554 S
N158 C161 1.377 . S
C159 N156 1.382 . S
C159 N157 1.371 1_554 S
C159 C162 1.480 . S
C160 N157 1.372 . S
C160 N158 1.361 1_556 S
C160 C168 1.457 . S
C161 N156 1.363 . S
C161 N158 1.377 . S
C161 C174 1.479 . S
C162 C159 1.480 . S
C162 C163 1.383 . S
C162 C167 1.385 1_554 S
C163 H144 0.947 . S
C163 C162 1.383 . S
C163 C164 1.388 . S
C164 H145 0.946 . S
C164 C163 1.388 . S
C164 C165 1.384 . S
C165 C164 1.384 . S
C165 C166 1.377 1_554 S
C166 H146 0.953 . S
C166 C165 1.377 1_556 S
C166 C167 1.369 . S
C167 H147 0.945 . S
C167 C162 1.385 1_556 S
C167 C166 1.369 . S
C168 C160 1.457 . S
C168 C169 1.372 . S
C168 C173 1.364 . S
C169 H148 0.952 . S
C169 C168 1.372 . S
C169 C170 1.389 . S
C170 H149 0.949 . S
C170 C169 1.389 . S
C170 C171 1.387 . S
C171 C170 1.387 . S
C171 C172 1.372 . S
C172 H150 0.950 . S
C172 C171 1.372 . S
C172 C173 1.379 . S
C173 H151 0.948 . S
C173 C168 1.364 . S
C173 C172 1.379 . S
C174 C143 1.383 . S
C174 C161 1.479 . S
C174 C175 1.398 . S
C175 C140 1.382 . S
C175 H152 0.951 . S
C175 C174 1.398 . S
C176 C177 1.384 . S
C176 H189 0.947 . S
C176 C211 1.382 . S
C177 C176 1.384 . S
C177 C178 1.378 . S
C178 C177 1.378 . S
C178 C179 1.378 . S
C178 H190 0.952 . S
C179 C178 1.378 . S
C179 H191 0.950 . S
C179 C210 1.383 . S
H180 C199 0.947 . S
H181 C200 0.946 . S
H182 C202 0.953 . S
H183 C203 0.945 . S
H184 C205 0.952 . S
H185 C206 0.949 . S
H186 C208 0.950 . S
H187 C209 0.948 . S
H188 C211 0.951 . S
H189 C176 0.947 . S
H190 C178 0.952 . S
H191 C179 0.950 . S
N192 C195 1.382 1_556 S
N192 C197 1.363 . S
N193 C195 1.371 . S
N193 C196 1.372 . S
N194 C196 1.361 . S
N194 C197 1.377 1_554 S
C195 N192 1.382 1_554 S
C195 N193 1.371 . S
C195 C198 1.480 . S
C196 N193 1.372 . S
C196 N194 1.361 . S
C196 C204 1.457 . S
C197 N192 1.363 . S
C197 N194 1.377 1_556 S
C197 C210 1.479 . S
C198 C195 1.480 . S
C198 C199 1.383 1_554 S
C198 C203 1.385 . S
C199 H180 0.947 . S
C199 C198 1.383 1_556 S
C199 C200 1.388 . S
C200 H181 0.946 . S
C200 C199 1.388 . S
C200 C201 1.384 1_556 S
C201 C200 1.384 1_554 S
C201 C202 1.377 . S
C202 H182 0.953 . S
C202 C201 1.377 . S
C202 C203 1.369 . S
C203 H183 0.945 . S
C203 C198 1.385 . S
C203 C202 1.369 . S
C204 C196 1.457 . S
C204 C205 1.372 . S
C204 C209 1.364 . S
C205 H184 0.952 . S
C205 C204 1.372 . S
C205 C206 1.389 . S
C206 H185 0.949 . S
C206 C205 1.389 . S
C206 C207 1.387 . S
C207 C206 1.387 . S
C207 C208 1.372 . S
C208 H186 0.950 . S
C208 C207 1.372 . S
C208 C209 1.379 . S
C209 H187 0.948 . S
C209 C204 1.364 . S
C209 C208 1.379 . S
C210 C179 1.383 . S
C210 C197 1.479 . S
C210 C211 1.398 . S
C211 C176 1.382 . S
C211 H188 0.951 . S
C211 C210 1.398 . S
C212 C213 1.384 . S
C212 H225 0.947 . S
C212 C247 1.382 . S
C213 C212 1.384 . S
C213 C214 1.378 . S
C214 C213 1.378 . S
C214 C215 1.378 . S
C214 H226 0.952 . S
C215 C214 1.378 . S
C215 H227 0.950 . S
C215 C246 1.383 . S
H216 C235 0.947 . S
H217 C236 0.946 . S
H218 C238 0.953 . S
H219 C239 0.945 . S
H220 C241 0.952 . S
H221 C242 0.949 . S
H222 C244 0.950 . S
H223 C245 0.948 . S
H224 C247 0.951 . S
H225 C212 0.947 . S
H226 C214 0.952 . S
H227 C215 0.950 . S
N228 C231 1.382 1_556 S
N228 C233 1.363 . S
N229 C231 1.371 . S
N229 C232 1.372 . S
N230 C232 1.361 . S
N230 C233 1.377 1_554 S
C231 N228 1.382 1_554 S
C231 N229 1.371 . S
C231 C234 1.480 . S
C232 N229 1.372 . S
C232 N230 1.361 . S
C232 C240 1.457 . S
C233 N228 1.363 . S
C233 N230 1.377 1_556 S
C233 C246 1.479 . S
C234 C231 1.480 . S
C234 C235 1.383 1_554 S
C234 C239 1.385 . S
C235 H216 0.947 . S
C235 C234 1.383 1_556 S
C235 C236 1.388 . S
C236 H217 0.946 . S
C236 C235 1.388 . S
C236 C237 1.384 1_556 S
C237 C236 1.384 1_554 S
C237 C238 1.377 . S
C238 H218 0.953 . S
C238 C237 1.377 . S
C238 C239 1.369 . S
C239 H219 0.945 . S
C239 C234 1.385 . S
C239 C238 1.369 . S
C240 C232 1.457 . S
C240 C241 1.372 . S
C240 C245 1.364 . S
C241 H220 0.952 . S
C241 C240 1.372 . S
C241 C242 1.389 . S
C242 H221 0.949 . S
C242 C241 1.389 . S
C242 C243 1.387 . S
C243 C242 1.387 . S
C243 C244 1.372 . S
C244 H222 0.950 . S
C244 C243 1.372 . S
C244 C245 1.379 . S
C245 H223 0.948 . S
C245 C240 1.364 . S
C245 C244 1.379 . S
C246 C215 1.383 . S
C246 C233 1.479 . S
C246 C247 1.398 . S
C247 C212 1.382 . S
C247 H224 0.951 . S
C247 C246 1.398 . S
C248 C249 1.384 . S
C248 H261 0.947 . S
C248 C283 1.382 . S
C249 C248 1.384 . S
C249 C250 1.378 . S
C250 C249 1.378 . S
C250 C251 1.378 . S
C250 H262 0.952 . S
C251 C250 1.378 . S
C251 H263 0.950 . S
C251 C282 1.383 . S
H252 C271 0.947 . S
H253 C272 0.946 . S
H254 C274 0.953 . S
H255 C275 0.945 . S
H256 C277 0.952 . S
H257 C278 0.949 . S
H258 C280 0.950 . S
H259 C281 0.948 . S
H260 C283 0.951 . S
H261 C248 0.947 . S
H262 C250 0.952 . S
H263 C251 0.950 . S
N264 C267 1.382 . S
N264 C269 1.363 . S
N265 C267 1.371 . S
N265 C268 1.372 . S
N266 C268 1.361 . S
N266 C269 1.377 . S
C267 N264 1.382 . S
C267 N265 1.371 . S
C267 C270 1.480 . S
C268 N265 1.372 . S
C268 N266 1.361 . S
C268 C276 1.457 . S
C269 N264 1.363 . S
C269 N266 1.377 . S
C269 C282 1.479 . S
C270 C267 1.480 . S
C270 C271 1.383 . S
C270 C275 1.385 . S
C271 H252 0.947 . S
C271 C270 1.383 . S
C271 C272 1.388 . S
C272 H253 0.946 . S
C272 C271 1.388 . S
C272 C273 1.384 . S
C273 C272 1.384 . S
C273 C274 1.377 . S
C274 H254 0.953 . S
C274 C273 1.377 . S
C274 C275 1.369 . S
C275 H255 0.945 . S
C275 C270 1.385 . S
C275 C274 1.369 . S
C276 C268 1.457 . S
C276 C277 1.372 . S
C276 C281 1.364 . S
C277 H256 0.952 . S
C277 C276 1.372 . S
C277 C278 1.389 . S
C278 H257 0.949 . S
C278 C277 1.389 . S
C278 C279 1.387 . S
C279 C278 1.387 . S
C279 C280 1.372 . S
C280 H258 0.950 . S
C280 C279 1.372 . S
C280 C281 1.379 . S
C281 H259 0.948 . S
C281 C276 1.364 . S
C281 C280 1.379 . S
C282 C251 1.383 . S
C282 C269 1.479 . S
C282 C283 1.398 . S
C283 C248 1.382 . S
C283 H260 0.951 . S
C283 C282 1.398 . S
C284 C285 1.384 . S
C284 H297 0.947 . S
C284 C319 1.382 . S
C285 C284 1.384 . S
C285 C286 1.378 . S
C286 C285 1.378 . S
C286 C287 1.378 . S
C286 H298 0.952 . S
C287 C286 1.378 . S
C287 H299 0.950 . S
C287 C318 1.383 . S
H288 C307 0.947 . S
H289 C308 0.946 . S
H290 C310 0.953 . S
H291 C311 0.945 . S
H292 C313 0.952 . S
H293 C314 0.949 . S
H294 C316 0.950 . S
H295 C317 0.948 . S
H296 C319 0.951 . S
H297 C284 0.947 . S
H298 C286 0.952 . S
H299 C287 0.950 . S
N300 C303 1.382 . S
N300 C305 1.363 . S
N301 C303 1.371 . S
N301 C304 1.372 . S
N302 C304 1.361 . S
N302 C305 1.377 . S
C303 N300 1.382 . S
C303 N301 1.371 . S
C303 C306 1.480 . S
C304 N301 1.372 . S
C304 N302 1.361 . S
C304 C312 1.457 . S
C305 N300 1.363 . S
C305 N302 1.377 . S
C305 C318 1.479 . S
C306 C303 1.480 . S
C306 C307 1.383 . S
C306 C311 1.385 . S
C307 H288 0.947 . S
C307 C306 1.383 . S
C307 C308 1.388 . S
C308 H289 0.946 . S
C308 C307 1.388 . S
C308 C309 1.384 . S
C309 C308 1.384 . S
C309 C310 1.377 . S
C310 H290 0.953 . S
C310 C309 1.377 . S
C310 C311 1.369 . S
C311 H291 0.945 . S
C311 C306 1.385 . S
C311 C310 1.369 . S
C312 C304 1.457 . S
C312 C313 1.372 . S
C312 C317 1.364 . S
C313 H292 0.952 . S
C313 C312 1.372 . S
C313 C314 1.389 . S
C314 H293 0.949 . S
C314 C313 1.389 . S
C314 C315 1.387 . S
C315 C314 1.387 . S
C315 C316 1.372 . S
C316 H294 0.950 . S
C316 C315 1.372 . S
C316 C317 1.379 . S
C317 H295 0.948 . S
C317 C312 1.364 . S
C317 C316 1.379 . S
C318 C287 1.383 . S
C318 C305 1.479 . S
C318 C319 1.398 . S
C319 C284 1.382 . S
C319 H296 0.951 . S
C319 C318 1.398 . S
C320 C321 1.384 . S
C320 H333 0.947 . S
C320 C355 1.382 . S
C321 C320 1.384 . S
C321 C322 1.378 . S
C322 C321 1.378 . S
C322 C323 1.378 . S
C322 H334 0.952 . S
C323 C322 1.378 . S
C323 H335 0.950 . S
C323 C354 1.383 . S
H324 C343 0.947 . S
H325 C344 0.946 . S
H326 C346 0.953 . S
H327 C347 0.945 . S
H328 C349 0.952 . S
H329 C350 0.949 . S
H330 C352 0.950 . S
H331 C353 0.948 . S
H332 C355 0.951 . S
H333 C320 0.947 . S
H334 C322 0.952 . S
H335 C323 0.950 . S
N336 C339 1.382 . S
N336 C341 1.363 . S
N337 C339 1.371 . S
N337 C340 1.372 . S
N338 C340 1.361 . S
N338 C341 1.377 . S
C339 N336 1.382 . S
C339 N337 1.371 . S
C339 C342 1.480 . S
C340 N337 1.372 . S
C340 N338 1.361 . S
C340 C348 1.457 . S
C341 N336 1.363 . S
C341 N338 1.377 . S
C341 C354 1.479 . S
C342 C339 1.480 . S
C342 C343 1.383 . S
C342 C347 1.385 . S
C343 H324 0.947 . S
C343 C342 1.383 . S
C343 C344 1.388 . S
C344 H325 0.946 . S
C344 C343 1.388 . S
C344 C345 1.384 . S
C345 C344 1.384 . S
C345 C346 1.377 . S
C346 H326 0.953 . S
C346 C345 1.377 . S
C346 C347 1.369 . S
C347 H327 0.945 . S
C347 C342 1.385 . S
C347 C346 1.369 . S
C348 C340 1.457 . S
C348 C349 1.372 . S
C348 C353 1.364 . S
C349 H328 0.952 . S
C349 C348 1.372 . S
C349 C350 1.389 . S
C350 H329 0.949 . S
C350 C349 1.389 . S
C350 C351 1.387 . S
C351 C350 1.387 . S
C351 C352 1.372 . S
C352 H330 0.950 . S
C352 C351 1.372 . S
C352 C353 1.379 . S
C353 H331 0.948 . S
C353 C348 1.364 . S
C353 C352 1.379 . S
C354 C323 1.383 . S
C354 C341 1.479 . S
C354 C355 1.398 . S
C355 C320 1.382 . S
C355 H332 0.951 . S
C355 C354 1.398 . S
C356 C357 1.384 . S
C356 H369 0.947 . S
C356 C391 1.382 . S
C357 C356 1.384 . S
C357 C358 1.378 . S
C358 C357 1.378 . S
C358 C359 1.378 . S
C358 H370 0.952 . S
C359 C358 1.378 . S
C359 H371 0.950 . S
C359 C390 1.383 . S
H360 C379 0.947 . S
H361 C380 0.946 . S
H362 C382 0.953 . S
H363 C383 0.945 . S
H364 C385 0.952 . S
H365 C386 0.949 . S
H366 C388 0.950 . S
H367 C389 0.948 . S
H368 C391 0.951 . S
H369 C356 0.947 . S
H370 C358 0.952 . S
H371 C359 0.950 . S
N372 C375 1.382 . S
N372 C377 1.363 . S
N373 C375 1.371 . S
N373 C376 1.372 . S
N374 C376 1.361 . S
N374 C377 1.377 . S
C375 N372 1.382 . S
C375 N373 1.371 . S
C375 C378 1.480 . S
C376 N373 1.372 . S
C376 N374 1.361 . S
C376 C384 1.457 . S
C377 N372 1.363 . S
C377 N374 1.377 . S
C377 C390 1.479 . S
C378 C375 1.480 . S
C378 C379 1.383 . S
C378 C383 1.385 . S
C379 H360 0.947 . S
C379 C378 1.383 . S
C379 C380 1.388 . S
C380 H361 0.946 . S
C380 C379 1.388 . S
C380 C381 1.384 . S
C381 C380 1.384 . S
C381 C382 1.377 . S
C382 H362 0.953 . S
C382 C381 1.377 . S
C382 C383 1.369 . S
C383 H363 0.945 . S
C383 C378 1.385 . S
C383 C382 1.369 . S
C384 C376 1.457 . S
C384 C385 1.372 . S
C384 C389 1.364 . S
C385 H364 0.952 . S
C385 C384 1.372 . S
C385 C386 1.389 . S
C386 H365 0.949 . S
C386 C385 1.389 . S
C386 C387 1.387 . S
C387 C386 1.387 . S
C387 C388 1.372 . S
C388 H366 0.950 . S
C388 C387 1.372 . S
C388 C389 1.379 . S
C389 H367 0.948 . S
C389 C384 1.364 . S
C389 C388 1.379 . S
C390 C359 1.383 . S
C390 C377 1.479 . S
C390 C391 1.398 . S
C391 C356 1.382 . S
C391 H368 0.951 . S
C391 C390 1.398 . S
H392 C398 0.930 . S
H393 C402 0.930 . S
H394 C407 0.929 . S
H395 C405 0.929 . S
H396 C400 0.929 . S
H397 C406 0.929 . S
C398 H392 0.930 . S
C398 C399 1.367 1_556 S
C398 C406 1.378 . S
C399 C398 1.367 1_554 S
C399 C407 1.433 . S
C400 H396 0.929 . S
C400 C402 1.378 . S
C400 C404 1.350 . S
C401 C404 1.463 . S
C401 C406 1.350 1_554 S
C401 N409 1.427 . S
C402 H393 0.930 . S
C402 C400 1.378 . S
C402 C403 1.367 . S
C403 C402 1.367 . S
C403 C405 1.433 1_554 S
C404 C400 1.350 . S
C404 C401 1.463 . S
C404 N408 1.427 1_554 S
C405 H395 0.929 . S
C405 C403 1.433 1_556 S
C405 N408 1.384 . S
C406 H397 0.929 . S
C406 C398 1.378 . S
C406 C401 1.350 1_556 S
C407 H394 0.929 . S
C407 C399 1.433 . S
C407 N409 1.384 . S
N408 C404 1.427 1_556 S
N408 C405 1.384 . S
N409 C401 1.427 . S
N409 C407 1.384 . S
H410 C416 0.930 . S
H411 C420 0.930 . S
H412 C425 0.929 . S
H413 C423 0.929 . S
H414 C418 0.929 . S
H415 C424 0.929 . S
C416 H410 0.930 . S
C416 C417 1.367 1_556 S
C416 C424 1.378 . S
C417 C416 1.367 1_554 S
C417 C425 1.433 . S
C418 H414 0.929 . S
C418 C420 1.378 . S
C418 C422 1.350 . S
C419 C422 1.463 . S
C419 C424 1.350 1_554 S
C419 N427 1.427 . S
C420 H411 0.930 . S
C420 C418 1.378 . S
C420 C421 1.367 . S
C421 C420 1.367 . S
C421 C423 1.433 1_554 S
C422 C418 1.350 . S
C422 C419 1.463 . S
C422 N426 1.427 1_554 S
C423 H413 0.929 . S
C423 C421 1.433 1_556 S
C423 N426 1.384 . S
C424 H415 0.929 . S
C424 C416 1.378 . S
C424 C419 1.350 1_556 S
C425 H412 0.929 . S
C425 C417 1.433 . S
C425 N427 1.384 . S
N426 C422 1.427 1_556 S
N426 C423 1.384 . S
N427 C419 1.427 . S
N427 C425 1.384 . S
H428 C434 0.930 . S
H429 C438 0.930 . S
H430 C443 0.929 . S
H431 C441 0.929 . S
H432 C436 0.929 . S
H433 C442 0.929 . S
C434 H428 0.930 . S
C434 C435 1.367 1_556 S
C434 C442 1.378 . S
C435 C434 1.367 1_554 S
C435 C443 1.433 . S
C436 H432 0.929 . S
C436 C438 1.378 . S
C436 C440 1.350 . S
C437 C440 1.463 . S
C437 C442 1.350 1_554 S
C437 N445 1.427 . S
C438 H429 0.930 . S
C438 C436 1.378 . S
C438 C439 1.367 . S
C439 C438 1.367 . S
C439 C441 1.433 1_554 S
C440 C436 1.350 . S
C440 C437 1.463 . S
C440 N444 1.427 1_554 S
C441 H431 0.929 . S
C441 C439 1.433 1_556 S
C441 N444 1.384 . S
C442 H433 0.929 . S
C442 C434 1.378 . S
C442 C437 1.350 1_556 S
C443 H430 0.929 . S
C443 C435 1.433 . S
C443 N445 1.384 . S
N444 C440 1.427 1_556 S
N444 C441 1.384 . S
N445 C437 1.427 . S
N445 C443 1.384 . S
H446 C452 0.930 1_556 S
H447 C456 0.930 . S
H448 C461 0.929 . S
H449 C459 0.929 1_556 S
H450 C454 0.929 . S
H451 C460 0.929 1_556 S
C452 H446 0.930 1_554 S
C452 C453 1.367 . S
C452 C460 1.378 . S
C453 C452 1.367 . S
C453 C461 1.433 . S
C454 H450 0.929 . S
C454 C456 1.378 . S
C454 C458 1.350 . S
C455 C458 1.463 . S
C455 C460 1.350 . S
C455 N463 1.427 . S
C456 H447 0.930 . S
C456 C454 1.378 . S
C456 C457 1.367 . S
C457 C456 1.367 . S
C457 C459 1.433 . S
C458 C454 1.350 . S
C458 C455 1.463 . S
C458 N462 1.427 . S
C459 H449 0.929 1_554 S
C459 C457 1.433 . S
C459 N462 1.384 . S
C460 H451 0.929 1_554 S
C460 C452 1.378 . S
C460 C455 1.350 . S
C461 H448 0.929 . S
C461 C453 1.433 . S
C461 N463 1.384 . S
N462 C458 1.427 . S
N462 C459 1.384 . S
N463 C455 1.427 . S
N463 C461 1.384 . S
H464 C470 0.930 . S
H465 C474 0.930 . S
H466 C479 0.929 . S
H467 C477 0.929 . S
H468 C472 0.929 . S
H469 C478 0.929 . S
C470 H464 0.930 . S
C470 C471 1.367 . S
C470 C478 1.378 . S
C471 C470 1.367 . S
C471 C479 1.433 . S
C472 H468 0.929 . S
C472 C474 1.378 . S
C472 C476 1.350 . S
C473 C476 1.463 . S
C473 C478 1.350 . S
C473 N481 1.427 . S
C474 H465 0.930 . S
C474 C472 1.378 . S
C474 C475 1.367 . S
C475 C474 1.367 . S
C475 C477 1.433 . S
C476 C472 1.350 . S
C476 C473 1.463 . S
C476 N480 1.427 . S
C477 H467 0.929 . S
C477 C475 1.433 . S
C477 N480 1.384 . S
C478 H469 0.929 . S
C478 C470 1.378 . S
C478 C473 1.350 . S
C479 H466 0.929 . S
C479 C471 1.433 . S
C479 N481 1.384 . S
N480 C476 1.427 . S
N480 C477 1.384 . S
N481 C473 1.427 . S
N481 C479 1.384 . S
H482 C488 0.930 . S
H483 C492 0.930 . S
H484 C497 0.929 . S
H485 C495 0.929 . S
H486 C490 0.929 . S
H487 C496 0.929 . S
C488 H482 0.930 . S
C488 C489 1.367 . S
C488 C496 1.378 . S
C489 C488 1.367 . S
C489 C497 1.433 . S
C490 H486 0.929 . S
C490 C492 1.378 . S
C490 C494 1.350 . S
C491 C494 1.463 . S
C491 C496 1.350 . S
C491 N499 1.427 . S
C492 H483 0.930 . S
C492 C490 1.378 . S
C492 C493 1.367 . S
C493 C492 1.367 . S
C493 C495 1.433 . S
C494 C490 1.350 . S
C494 C491 1.463 . S
C494 N498 1.427 . S
C495 H485 0.929 . S
C495 C493 1.433 . S
C495 N498 1.384 . S
C496 H487 0.929 . S
C496 C488 1.378 . S
C496 C491 1.350 . S
C497 H484 0.929 . S
C497 C489 1.433 . S
C497 N499 1.384 . S
N498 C494 1.427 . S
N498 C495 1.384 . S
N499 C491 1.427 . S
N499 C497 1.384 . S
H500 C506 0.930 . S
H501 C510 0.930 . S
H502 C515 0.929 . S
H503 C513 0.929 . S
H504 C508 0.929 . S
H505 C514 0.929 . S
C506 H500 0.930 . S
C506 C507 1.367 . S
C506 C514 1.378 . S
C507 C506 1.367 . S
C507 C515 1.433 . S
C508 H504 0.929 . S
C508 C510 1.378 . S
C508 C512 1.350 . S
C509 C512 1.463 . S
C509 C514 1.350 . S
C509 N517 1.427 . S
C510 H501 0.930 . S
C510 C508 1.378 . S
C510 C511 1.367 . S
C511 C510 1.367 . S
C511 C513 1.433 . S
C512 C508 1.350 . S
C512 C509 1.463 . S
C512 N516 1.427 . S
C513 H503 0.929 . S
C513 C511 1.433 . S
C513 N516 1.384 . S
C514 H505 0.929 . S
C514 C506 1.378 . S
C514 C509 1.350 . S
C515 H502 0.929 . S
C515 C507 1.433 . S
C515 N517 1.384 . S
N516 C512 1.427 . S
N516 C513 1.384 . S
N517 C509 1.427 . S
N517 C515 1.384 . S
H518 C524 0.930 . S
H519 C528 0.930 . S
H520 C533 0.929 . S
H521 C531 0.929 . S
H522 C526 0.929 . S
H523 C532 0.929 . S
C524 H518 0.930 . S
C524 C525 1.367 . S
C524 C532 1.378 . S
C525 C524 1.367 . S
C525 C533 1.433 . S
C526 H522 0.929 . S
C526 C528 1.378 . S
C526 C530 1.350 . S
C527 C530 1.463 . S
C527 C532 1.350 . S
C527 N535 1.427 . S
C528 H519 0.930 . S
C528 C526 1.378 . S
C528 C529 1.367 . S
C529 C528 1.367 . S
C529 C531 1.433 . S
C530 C526 1.350 . S
C530 C527 1.463 . S
C530 N534 1.427 . S
C531 H521 0.929 . S
C531 C529 1.433 . S
C531 N534 1.384 . S
C532 H523 0.929 . S
C532 C524 1.378 . S
C532 C527 1.350 . S
C533 H520 0.929 . S
C533 C525 1.433 . S
C533 N535 1.384 . S
N534 C530 1.427 . S
N534 C531 1.384 . S
N535 C527 1.427 . S
N535 C533 1.384 . S
H536 C542 0.930 . S
H537 C546 0.930 . S
H538 C551 0.929 . S
H539 C549 0.929 . S
H540 C544 0.929 . S
H541 C550 0.929 . S
C542 H536 0.930 . S
C542 C543 1.367 . S
C542 C550 1.378 . S
C543 C542 1.367 . S
C543 C551 1.433 . S
C544 H540 0.929 . S
C544 C546 1.378 . S
C544 C548 1.350 . S
C545 C548 1.463 . S
C545 C550 1.350 . S
C545 N553 1.427 . S
C546 H537 0.930 . S
C546 C544 1.378 . S
C546 C547 1.367 . S
C547 C546 1.367 . S
C547 C549 1.433 . S
C548 C544 1.350 . S
C548 C545 1.463 . S
C548 N552 1.427 . S
C549 H539 0.929 . S
C549 C547 1.433 . S
C549 N552 1.384 . S
C550 H541 0.929 . S
C550 C542 1.378 . S
C550 C545 1.350 . S
C551 H538 0.929 . S
C551 C543 1.433 . S
C551 N553 1.384 . S
N552 C548 1.427 . S
N552 C549 1.384 . S
N553 C545 1.427 . S
N553 C551 1.384 . S
H554 C560 0.930 . S
H555 C564 0.930 . S
H556 C569 0.929 1_565 S
H557 C567 0.929 . S
H558 C562 0.929 . S
H559 C568 0.929 . S
C560 H554 0.930 . S
C560 C561 1.367 . S
C560 C568 1.378 . S
C561 C560 1.367 . S
C561 C569 1.433 . S
C562 H558 0.929 . S
C562 C564 1.378 . S
C562 C566 1.350 . S
C563 C566 1.463 . S
C563 C568 1.350 . S
C563 N571 1.427 . S
C564 H555 0.930 . S
C564 C562 1.378 . S
C564 C565 1.367 . S
C565 C564 1.367 . S
C565 C567 1.433 . S
C566 C562 1.350 . S
C566 C563 1.463 . S
C566 N570 1.427 . S
C567 H557 0.929 . S
C567 C565 1.433 . S
C567 N570 1.384 . S
C568 H559 0.929 . S
C568 C560 1.378 . S
C568 C563 1.350 . S
C569 H556 0.929 1_545 S
C569 C561 1.433 . S
C569 N571 1.384 . S
N570 C566 1.427 . S
N570 C567 1.384 . S
N571 C563 1.427 . S
N571 C569 1.384 . S
H572 C578 0.930 . S
H573 C582 0.930 . S
H574 C587 0.929 . S
H575 C585 0.929 . S
H576 C580 0.929 . S
H577 C586 0.929 . S
C578 H572 0.930 . S
C578 C579 1.367 . S
C578 C586 1.378 . S
C579 C578 1.367 . S
C579 C587 1.433 . S
C580 H576 0.929 . S
C580 C582 1.378 . S
C580 C584 1.350 . S
C581 C584 1.463 . S
C581 C586 1.350 . S
C581 N589 1.427 . S
C582 H573 0.930 . S
C582 C580 1.378 . S
C582 C583 1.367 . S
C583 C582 1.367 . S
C583 C585 1.433 . S
C584 C580 1.350 . S
C584 C581 1.463 . S
C584 N588 1.427 . S
C585 H575 0.929 . S
C585 C583 1.433 . S
C585 N588 1.384 . S
C586 H577 0.929 . S
C586 C578 1.378 . S
C586 C581 1.350 . S
C587 H574 0.929 . S
C587 C579 1.433 . S
C587 N589 1.384 . S
N588 C584 1.427 . S
N588 C585 1.384 . S
N589 C581 1.427 . S
N589 C587 1.384 . S
H590 C596 0.930 . S
H591 C600 0.930 . S
H592 C605 0.929 . S
H593 C603 0.929 . S
H594 C598 0.929 . S
H595 C604 0.929 . S
C596 H590 0.930 . S
C596 C597 1.367 . S
C596 C604 1.378 . S
C597 C596 1.367 . S
C597 C605 1.433 . S
C598 H594 0.929 . S
C598 C600 1.378 . S
C598 C602 1.350 . S
C599 C602 1.463 . S
C599 C604 1.350 . S
C599 N607 1.427 . S
C600 H591 0.930 . S
C600 C598 1.378 . S
C600 C601 1.367 . S
C601 C600 1.367 . S
C601 C603 1.433 . S
C602 C598 1.350 . S
C602 C599 1.463 . S
C602 N606 1.427 . S
C603 H593 0.929 . S
C603 C601 1.433 . S
C603 N606 1.384 . S
C604 H595 0.929 . S
C604 C596 1.378 . S
C604 C599 1.350 . S
C605 H592 0.929 . S
C605 C597 1.433 . S
C605 N607 1.384 . S
N606 C602 1.427 . S
N606 C603 1.384 . S
N607 C599 1.427 . S
N607 C605 1.384 . S
H608 C614 0.930 1_545 S
H609 C618 0.930 . S
H610 C623 0.929 . S
H611 C621 0.929 . S
H612 C616 0.929 . S
H613 C622 0.929 1_545 S
C614 H608 0.930 1_565 S
C614 C615 1.367 . S
C614 C622 1.378 . S
C615 C614 1.367 . S
C615 C623 1.433 . S
C616 H612 0.929 . S
C616 C618 1.378 . S
C616 C620 1.350 . S
C617 C620 1.463 . S
C617 C622 1.350 . S
C617 N625 1.427 . S
C618 H609 0.930 . S
C618 C616 1.378 . S
C618 C619 1.367 . S
C619 C618 1.367 . S
C619 C621 1.433 . S
C620 C616 1.350 . S
C620 C617 1.463 . S
C620 N624 1.427 . S
C621 H611 0.929 . S
C621 C619 1.433 . S
C621 N624 1.384 . S
C622 H613 0.929 1_565 S
C622 C614 1.378 . S
C622 C617 1.350 . S
C623 H610 0.929 . S
C623 C615 1.433 . S
C623 N625 1.384 . S
N624 C620 1.427 . S
N624 C621 1.384 . S
N625 C617 1.427 . S
N625 C623 1.384 . S
H626 C632 0.930 . S
H627 C636 0.930 . S
H628 C641 0.929 . S
H629 C639 0.929 . S
H630 C634 0.929 . S
H631 C640 0.929 . S
C632 H626 0.930 . S
C632 C633 1.367 . S
C632 C640 1.378 . S
C633 C632 1.367 . S
C633 C641 1.433 . S
C634 H630 0.929 . S
C634 C636 1.378 . S
C634 C638 1.350 . S
C635 C638 1.463 . S
C635 C640 1.350 . S
C635 N643 1.427 . S
C636 H627 0.930 . S
C636 C634 1.378 . S
C636 C637 1.367 . S
C637 C636 1.367 . S
C637 C639 1.433 . S
C638 C634 1.350 . S
C638 C635 1.463 . S
C638 N642 1.427 . S
C639 H629 0.929 . S
C639 C637 1.433 . S
C639 N642 1.384 . S
C640 H631 0.929 . S
C640 C632 1.378 . S
C640 C635 1.350 . S
C641 H628 0.929 . S
C641 C633 1.433 . S
C641 N643 1.384 . S
N642 C638 1.427 . S
N642 C639 1.384 . S
N643 C635 1.427 . S
N643 C641 1.384 . S
H644 C650 0.930 . S
H645 C654 0.930 . S
H646 C659 0.929 . S
H647 C657 0.929 . S
H648 C652 0.929 . S
H649 C658 0.929 . S
C650 H644 0.930 . S
C650 C651 1.367 . S
C650 C658 1.378 . S
C651 C650 1.367 . S
C651 C659 1.433 . S
C652 H648 0.929 . S
C652 C654 1.378 . S
C652 C656 1.350 . S
C653 C656 1.463 . S
C653 C658 1.350 . S
C653 N661 1.427 . S
C654 H645 0.930 . S
C654 C652 1.378 . S
C654 C655 1.367 . S
C655 C654 1.367 . S
C655 C657 1.433 . S
C656 C652 1.350 . S
C656 C653 1.463 . S
C656 N660 1.427 . S
C657 H647 0.929 . S
C657 C655 1.433 . S
C657 N660 1.384 . S
C658 H649 0.929 . S
C658 C650 1.378 . S
C658 C653 1.350 . S
C659 H646 0.929 . S
C659 C651 1.433 . S
C659 N661 1.384 . S
N660 C656 1.427 . S
N660 C657 1.384 . S
N661 C653 1.427 . S
N661 C659 1.384 . S
H662 C668 0.930 . S
H663 C672 0.930 . S
H664 C677 0.929 . S
H665 C675 0.929 . S
H666 C670 0.929 . S
H667 C676 0.929 . S
C668 H662 0.930 . S
C668 C669 1.367 . S
C668 C676 1.378 . S
C669 C668 1.367 . S
C669 C677 1.433 . S
C670 H666 0.929 . S
C670 C672 1.378 . S
C670 C674 1.350 . S
C671 C674 1.463 . S
C671 C676 1.350 . S
C671 N679 1.427 . S
C672 H663 0.930 . S
C672 C670 1.378 . S
C672 C673 1.367 . S
C673 C672 1.367 . S
C673 C675 1.433 . S
C674 C670 1.350 . S
C674 C671 1.463 . S
C674 N678 1.427 . S
C675 H665 0.929 . S
C675 C673 1.433 . S
C675 N678 1.384 . S
C676 H667 0.929 . S
C676 C668 1.378 . S
C676 C671 1.350 . S
C677 H664 0.929 . S
C677 C669 1.433 . S
C677 N679 1.384 . S
N678 C674 1.427 . S
N678 C675 1.384 . S
N679 C671 1.427 . S
N679 C677 1.384 . S
H680 C686 0.930 . S
H681 C690 0.930 . S
H682 C695 0.929 . S
H683 C693 0.929 . S
H684 C688 0.929 . S
H685 C694 0.929 . S
C686 H680 0.930 . S
C686 C687 1.367 . S
C686 C694 1.378 . S
C687 C686 1.367 . S
C687 C695 1.433 . S
C688 H684 0.929 . S
C688 C690 1.378 . S
C688 C692 1.350 . S
C689 C692 1.463 . S
C689 C694 1.350 . S
C689 N697 1.427 . S
C690 H681 0.930 . S
C690 C688 1.378 . S
C690 C691 1.367 . S
C691 C690 1.367 . S
C691 C693 1.433 . S
C692 C688 1.350 . S
C692 C689 1.463 . S
C692 N696 1.427 . S
C693 H683 0.929 . S
C693 C691 1.433 . S
C693 N696 1.384 . S
C694 H685 0.929 . S
C694 C686 1.378 . S
C694 C689 1.350 . S
C695 H682 0.929 . S
C695 C687 1.433 . S
C695 N697 1.384 . S
N696 C692 1.427 . S
N696 C693 1.384 . S
N697 C689 1.427 . S
N697 C695 1.384 . S
H698 C704 0.930 . S
H699 C708 0.930 . S
H700 C713 0.929 . S
H701 C711 0.929 . S
H702 C706 0.929 . S
H703 C712 0.929 . S
C704 H698 0.930 . S
C704 C705 1.367 . S
C704 C712 1.378 . S
C705 C704 1.367 . S
C705 C713 1.433 . S
C706 H702 0.929 . S
C706 C708 1.378 . S
C706 C710 1.350 . S
C707 C710 1.463 . S
C707 C712 1.350 . S
C707 N715 1.427 . S
C708 H699 0.930 . S
C708 C706 1.378 . S
C708 C709 1.367 . S
C709 C708 1.367 . S
C709 C711 1.433 . S
C710 C706 1.350 . S
C710 C707 1.463 . S
C710 N714 1.427 . S
C711 H701 0.929 . S
C711 C709 1.433 . S
C711 N714 1.384 . S
C712 H703 0.929 . S
C712 C704 1.378 . S
C712 C707 1.350 . S
C713 H700 0.929 . S
C713 C705 1.433 . S
C713 N715 1.384 . S
N714 C710 1.427 . S
N714 C711 1.384 . S
N715 C707 1.427 . S
N715 C713 1.384 . S
H716 C722 0.930 . S
H717 C726 0.930 . S
H718 C731 0.929 . S
H719 C729 0.929 . S
H720 C724 0.929 . S
H721 C730 0.929 . S
C722 H716 0.930 . S
C722 C723 1.367 . S
C722 C730 1.378 . S
C723 C722 1.367 . S
C723 C731 1.433 . S
C724 H720 0.929 . S
C724 C726 1.378 . S
C724 C728 1.350 . S
C725 C728 1.463 . S
C725 C730 1.350 . S
C725 N733 1.427 . S
C726 H717 0.930 . S
C726 C724 1.378 . S
C726 C727 1.367 . S
C727 C726 1.367 . S
C727 C729 1.433 . S
C728 C724 1.350 . S
C728 C725 1.463 . S
C728 N732 1.427 . S
C729 H719 0.929 . S
C729 C727 1.433 . S
C729 N732 1.384 . S
C730 H721 0.929 . S
C730 C722 1.378 . S
C730 C725 1.350 . S
C731 H718 0.929 . S
C731 C723 1.433 . S
C731 N733 1.384 . S
N732 C728 1.427 . S
N732 C729 1.384 . S
N733 C725 1.427 . S
N733 C731 1.384 . S
H734 C740 0.930 . S
H735 C744 0.930 . S
H736 C749 0.929 . S
H737 C747 0.929 . S
H738 C742 0.929 . S
H739 C748 0.929 . S
C740 H734 0.930 . S
C740 C741 1.367 . S
C740 C748 1.378 . S
C741 C740 1.367 . S
C741 C749 1.433 . S
C742 H738 0.929 . S
C742 C744 1.378 . S
C742 C746 1.350 . S
C743 C746 1.463 . S
C743 C748 1.350 . S
C743 N751 1.427 . S
C744 H735 0.930 . S
C744 C742 1.378 . S
C744 C745 1.367 . S
C745 C744 1.367 . S
C745 C747 1.433 . S
C746 C742 1.350 . S
C746 C743 1.463 . S
C746 N750 1.427 . S
C747 H737 0.929 . S
C747 C745 1.433 . S
C747 N750 1.384 . S
C748 H739 0.929 . S
C748 C740 1.378 . S
C748 C743 1.350 . S
C749 H736 0.929 . S
C749 C741 1.433 . S
C749 N751 1.384 . S
N750 C746 1.427 . S
N750 C747 1.384 . S
N751 C743 1.427 . S
N751 C749 1.384 . S
H752 C758 0.930 . S
H753 C762 0.930 . S
H754 C767 0.929 . S
H755 C765 0.929 . S
H756 C760 0.929 . S
H757 C766 0.929 . S
C758 H752 0.930 . S
C758 C759 1.367 . S
C758 C766 1.378 . S
C759 C758 1.367 . S
C759 C767 1.433 . S
C760 H756 0.929 . S
C760 C762 1.378 . S
C760 C764 1.350 . S
C761 C764 1.463 . S
C761 C766 1.350 . S
C761 N769 1.427 . S
C762 H753 0.930 . S
C762 C760 1.378 . S
C762 C763 1.367 . S
C763 C762 1.367 . S
C763 C765 1.433 . S
C764 C760 1.350 . S
C764 C761 1.463 . S
C764 N768 1.427 . S
C765 H755 0.929 . S
C765 C763 1.433 . S
C765 N768 1.384 . S
C766 H757 0.929 . S
C766 C758 1.378 . S
C766 C761 1.350 . S
C767 H754 0.929 . S
C767 C759 1.433 . S
C767 N769 1.384 . S
N768 C764 1.427 . S
N768 C765 1.384 . S
N769 C761 1.427 . S
N769 C767 1.384 . S
H770 C776 0.930 . S
H771 C780 0.930 . S
H772 C785 0.929 . S
H773 C783 0.929 . S
H774 C778 0.929 . S
H775 C784 0.929 . S
C776 H770 0.930 . S
C776 C777 1.367 . S
C776 C784 1.378 . S
C777 C776 1.367 . S
C777 C785 1.433 . S
C778 H774 0.929 . S
C778 C780 1.378 . S
C778 C782 1.350 . S
C779 C782 1.463 . S
C779 C784 1.350 . S
C779 N787 1.427 . S
C780 H771 0.930 . S
C780 C778 1.378 . S
C780 C781 1.367 . S
C781 C780 1.367 . S
C781 C783 1.433 . S
C782 C778 1.350 . S
C782 C779 1.463 . S
C782 N786 1.427 . S
C783 H773 0.929 . S
C783 C781 1.433 . S
C783 N786 1.384 . S
C784 H775 0.929 . S
C784 C776 1.378 . S
C784 C779 1.350 . S
C785 H772 0.929 . S
C785 C777 1.433 . S
C785 N787 1.384 . S
N786 C782 1.427 . S
N786 C783 1.384 . S
N787 C779 1.427 . S
N787 C785 1.384 . S
H788 C794 0.930 . S
H789 C798 0.930 . S
H790 C803 0.929 . S
H791 C801 0.929 . S
H792 C796 0.929 . S
H793 C802 0.929 . S
C794 H788 0.930 . S
C794 C795 1.367 . S
C794 C802 1.378 . S
C795 C794 1.367 . S
C795 C803 1.433 . S
C796 H792 0.929 . S
C796 C798 1.378 . S
C796 C800 1.350 . S
C797 C800 1.463 . S
C797 C802 1.350 . S
C797 N805 1.427 . S
C798 H789 0.930 . S
C798 C796 1.378 . S
C798 C799 1.367 . S
C799 C798 1.367 . S
C799 C801 1.433 . S
C800 C796 1.350 . S
C800 C797 1.463 . S
C800 N804 1.427 . S
C801 H791 0.929 . S
C801 C799 1.433 . S
C801 N804 1.384 . S
C802 H793 0.929 . S
C802 C794 1.378 . S
C802 C797 1.350 . S
C803 H790 0.929 . S
C803 C795 1.433 . S
C803 N805 1.384 . S
N804 C800 1.427 . S
N804 C801 1.384 . S
N805 C797 1.427 . S
N805 C803 1.384 . S
H806 C812 0.930 . S
H807 C816 0.930 . S
H808 C821 0.929 . S
H809 C819 0.929 . S
H810 C814 0.929 . S
H811 C820 0.929 . S
C812 H806 0.930 . S
C812 C813 1.367 . S
C812 C820 1.378 . S
C813 C812 1.367 . S
C813 C821 1.433 . S
C814 H810 0.929 . S
C814 C816 1.378 . S
C814 C818 1.350 . S
C815 C818 1.463 . S
C815 C820 1.350 . S
C815 N823 1.427 . S
C816 H807 0.930 . S
C816 C814 1.378 . S
C816 C817 1.367 . S
C817 C816 1.367 . S
C817 C819 1.433 . S
C818 C814 1.350 . S
C818 C815 1.463 . S
C818 N822 1.427 . S
C819 H809 0.929 . S
C819 C817 1.433 . S
C819 N822 1.384 . S
C820 H811 0.929 . S
C820 C812 1.378 . S
C820 C815 1.350 . S
C821 H808 0.929 . S
C821 C813 1.433 . S
C821 N823 1.384 . S
N822 C818 1.427 . S
N822 C819 1.384 . S
N823 C815 1.427 . S
N823 C821 1.384 . S
C399 C45 1.628 . S
C403 C129 1.657 . S
C417 C30 1.629 . S
C421 C165 1.658 . S
C435 C39 1.631 . S
C439 C201 1.617 . S
C457 C237 1.620 . S
C453 C34 1.633 . S
C471 C97 1.624 . S
C475 C273 1.654 . S
C493 C309 1.655 . S
C489 C82 1.627 . S
C511 C345 1.620 . S
C507 C91 1.633 . S
C529 C381 1.611 . S
C525 C86 1.624 . S
C547 C321 1.529 . S
C543 C26 1.494 . S
C565 C357 1.529 . S
C561 C36 1.491 . S
C583 C279 1.553 . S
C579 C32 1.485 . S
C601 C315 1.554 . S
C597 C42 1.485 . S
C615 C18 1.562 . S
C619 C285 1.651 . S
C637 C351 1.605 . S
C633 C50 1.563 . S
C651 C4 1.567 . S
C655 C387 1.608 . S
C669 C48 1.568 . S
C673 C249 1.654 . S
C691 C177 1.522 . S
C687 C78 1.482 . S
C705 C88 1.495 . S
C709 C213 1.532 . S
C727 C135 1.555 . S
C723 C84 1.486 . S
C745 C171 1.554 . S
C741 C94 1.485 . S
C763 C141 1.655 . S
C759 C70 1.571 . S
C781 C207 1.614 . S
C777 C102 1.574 . S
C795 C56 1.577 . S
C799 C243 1.616 . S
C813 C100 1.571 . S
C817 C105 1.656 . S
