# Generated by pormake.
# Topology dag, (6,3)-cn, num edge types: 1
# Building blocks:
#     Node 0, Type 0, BuildingBlock: OJICUG_clean_sbu_0, # of connection points: 6
#     Node 1, Type 0, BuildingBlock: OJICUG_clean_sbu_0, # of connection points: 6
#     Node 2, Type 0, BuildingBlock: OJICUG_clean_sbu_0, # of connection points: 6
#     Node 3, Type 0, BuildingBlock: OJICUG_clean_sbu_0, # of connection points: 6
#     Node 4, Type 1, BuildingBlock: VETTIZ_charged_linker_0, # of connection points: 3
#     Node 5, Type 1, BuildingBlock: VETTIZ_charged_linker_0, # of connection points: 3
#     Node 6, Type 1, BuildingBlock: VETTIZ_charged_linker_0, # of connection points: 3
#     Node 7, Type 1, BuildingBlock: VETTIZ_charged_linker_0, # of connection points: 3
#     Node 8, Type 1, BuildingBlock: VETTIZ_charged_linker_0, # of connection points: 3
#     Node 9, Type 1, BuildingBlock: VETTIZ_charged_linker_0, # of connection points: 3
#     Node 10, Type 1, BuildingBlock: VETTIZ_charged_linker_0, # of connection points: 3
#     Node 11, Type 1, BuildingBlock: VETTIZ_charged_linker_0, # of connection points: 3
#     Edge 12, Type (0, 1), BuildingBlock: XIVTED_clean_linker_0, # of connection points: 2
#     Edge 13, Type (0, 1), BuildingBlock: XIVTED_clean_linker_0, # of connection points: 2
#     Edge 14, Type (0, 1), BuildingBlock: XIVTED_clean_linker_0, # of connection points: 2
#     Edge 15, Type (0, 1), BuildingBlock: XIVTED_clean_linker_0, # of connection points: 2
#     Edge 16, Type (0, 1), BuildingBlock: XIVTED_clean_linker_0, # of connection points: 2
#     Edge 17, Type (0, 1), BuildingBlock: XIVTED_clean_linker_0, # of connection points: 2
#     Edge 18, Type (0, 1), BuildingBlock: XIVTED_clean_linker_0, # of connection points: 2
#     Edge 19, Type (0, 1), BuildingBlock: XIVTED_clean_linker_0, # of connection points: 2
#     Edge 20, Type (0, 1), BuildingBlock: XIVTED_clean_linker_0, # of connection points: 2
#     Edge 21, Type (0, 1), BuildingBlock: XIVTED_clean_linker_0, # of connection points: 2
#     Edge 22, Type (0, 1), BuildingBlock: XIVTED_clean_linker_0, # of connection points: 2
#     Edge 23, Type (0, 1), BuildingBlock: XIVTED_clean_linker_0, # of connection points: 2
#     Edge 24, Type (0, 1), BuildingBlock: XIVTED_clean_linker_0, # of connection points: 2
#     Edge 25, Type (0, 1), BuildingBlock: XIVTED_clean_linker_0, # of connection points: 2
#     Edge 26, Type (0, 1), BuildingBlock: XIVTED_clean_linker_0, # of connection points: 2
#     Edge 27, Type (0, 1), BuildingBlock: XIVTED_clean_linker_0, # of connection points: 2
#     Edge 28, Type (0, 1), BuildingBlock: XIVTED_clean_linker_0, # of connection points: 2
#     Edge 29, Type (0, 1), BuildingBlock: XIVTED_clean_linker_0, # of connection points: 2
#     Edge 30, Type (0, 1), BuildingBlock: XIVTED_clean_linker_0, # of connection points: 2
#     Edge 31, Type (0, 1), BuildingBlock: XIVTED_clean_linker_0, # of connection points: 2
#     Edge 32, Type (0, 1), BuildingBlock: XIVTED_clean_linker_0, # of connection points: 2
#     Edge 33, Type (0, 1), BuildingBlock: XIVTED_clean_linker_0, # of connection points: 2
#     Edge 34, Type (0, 1), BuildingBlock: XIVTED_clean_linker_0, # of connection points: 2
#     Edge 35, Type (0, 1), BuildingBlock: XIVTED_clean_linker_0, # of connection points: 2
# Relax obj value: 0.268
# Max RMSD: 0.196
# Mean RMSD: 0.162
data_MOF--net-dag--node1-OJICUG_clean_sbu_0--node2-VETTIZ_charged_linker_0--edge1-XIVTED_clean_linker_0
_symmetry_space_group_name_H-M    P1
_symmetry_Int_Tables_number       1
_symmetry_cell_setting            triclinic
loop_
_symmetry_equiv_pos_as_xyz
'x, y, z'
_cell_length_a     45.630223
_cell_length_b     45.485815
_cell_length_c     47.561238
_cell_angle_alpha  89.999487
_cell_angle_beta   89.987067
_cell_angle_gamma 89.990243
loop_
_atom_site_label
_atom_site_type_symbol
_atom_site_fract_x
_atom_site_fract_y
_atom_site_fract_z
_atom_type_partial_charge
Sc0 Sc 0.13981 0.82191 0.00697 0.0
Sc1 Sc 0.16883 0.75054 0.00088 0.0
Sc2 Sc 0.21476 0.81324 0.99324 0.0
O3 O 0.17453 0.7952 0.00036 0.0
C4 C 0.17367 0.85701 0.9588 0.0
C5 C 0.11076 0.77182 0.96969 0.0
C6 C 0.21137 0.76044 0.94867 0.0
C7 C 0.12983 0.7709 0.05234 0.0
C8 C 0.18984 0.85509 0.04137 0.0
C9 C 0.23077 0.75804 0.03155 0.0
O10 O 0.15082 0.85069 0.9728 0.0
O11 O 0.1284 0.75172 0.97724 0.0
O12 O 0.22222 0.78423 0.95817 0.0
O13 O 0.12544 0.79632 0.04216 0.0
O14 O 0.21107 0.84466 0.02718 0.0
O15 O 0.20823 0.74332 0.02466 0.0
O16 O 0.16325 0.84852 0.03663 0.0
O17 O 0.14532 0.75134 0.04036 0.0
O18 O 0.23574 0.78384 0.02248 0.0
O19 O 0.11281 0.79828 0.97784 0.0
O20 O 0.19846 0.84524 0.96353 0.0
O21 O 0.19174 0.74581 0.96154 0.0
Sc22 Sc 0.71793 0.68063 0.48745 0.0
Sc23 Sc 0.66395 0.73621 0.49568 0.0
Sc24 Sc 0.65146 0.66486 0.52101 0.0
O25 O 0.6778 0.6939 0.50125 0.0
C26 C 0.67694 0.62743 0.46936 0.0
C27 C 0.69998 0.72606 0.43919 0.0
C28 C 0.60604 0.7008 0.48241 0.0
C29 C 0.72991 0.74237 0.51764 0.0
C30 C 0.71316 0.6429 0.5438 0.0
C31 C 0.63883 0.7218 0.55704 0.0
O32 O 0.69999 0.64285 0.46591 0.0
O33 O 0.68126 0.7399 0.45378 0.0
O34 O 0.61363 0.67977 0.49842 0.0
O35 O 0.73822 0.7172 0.50886 0.0
O36 O 0.68567 0.64609 0.54613 0.0
O37 O 0.64408 0.73923 0.53679 0.0
O38 O 0.72771 0.65377 0.52359 0.0
O39 O 0.70409 0.75239 0.51391 0.0
O40 O 0.64249 0.69419 0.55524 0.0
O41 O 0.71449 0.70446 0.44867 0.0
O42 O 0.658 0.63273 0.48837 0.0
O43 O 0.62251 0.72282 0.47751 0.0
Sc44 Sc 0.83192 0.24873 0.98764 0.0
Sc45 Sc 0.78861 0.18423 0.99426 0.0
Sc46 Sc 0.86333 0.17908 0.97744 0.0
O47 O 0.82788 0.20403 0.98647 0.0
C48 C 0.87059 0.23137 0.93404 0.0
C49 C 0.77094 0.23896 0.95578 0.0
C50 C 0.81342 0.14194 0.94658 0.0
C51 C 0.78844 0.23696 0.03879 0.0
C52 C 0.89185 0.22968 0.01545 0.0
C53 C 0.83388 0.14375 0.028 0.0
O54 O 0.85803 0.25048 0.94946 0.0
O55 O 0.76617 0.21325 0.96538 0.0
O56 O 0.83976 0.14962 0.95071 0.0
O57 O 0.807 0.25267 0.02578 0.0
O58 O 0.89241 0.20516 0.00272 0.0
O59 O 0.80811 0.15353 0.02356 0.0
O60 O 0.87061 0.2476 0.0136 0.0
O61 O 0.77969 0.21223 0.02968 0.0
O62 O 0.85597 0.15126 0.0133 0.0
O63 O 0.79335 0.25418 0.96225 0.0
O64 O 0.87298 0.2045 0.94086 0.0
O65 O 0.79214 0.15267 0.9604 0.0
Sc66 Sc 0.34064 0.33394 0.46734 0.0
Sc67 Sc 0.27368 0.31922 0.50083 0.0
Sc68 Sc 0.32596 0.26226 0.49105 0.0
O69 O 0.31338 0.30511 0.48643 0.0
C70 C 0.35115 0.27696 0.42998 0.0
C71 C 0.27904 0.35573 0.44374 0.0
C72 C 0.25891 0.25721 0.47234 0.0
C73 C 0.31512 0.37244 0.51808 0.0
C74 C 0.3851 0.29617 0.50504 0.0
C75 C 0.29252 0.27394 0.54889 0.0
O76 O 0.34994 0.30462 0.43323 0.0
O77 O 0.26411 0.34527 0.46395 0.0
O78 O 0.28473 0.24681 0.47461 0.0
O79 O 0.33428 0.36655 0.49949 0.0
O80 O 0.36838 0.27397 0.50792 0.0
O81 O 0.27803 0.29588 0.53998 0.0
O82 O 0.37797 0.31861 0.49065 0.0
O83 O 0.29197 0.35726 0.52149 0.0
O84 O 0.31018 0.25959 0.53351 0.0
O85 O 0.30661 0.35264 0.44186 0.0
O86 O 0.34407 0.25888 0.44919 0.0
O87 O 0.25175 0.28273 0.48098 0.0
C88 C 0.17727 0.04348 0.17988 0.0
C89 C 0.17547 0.03584 0.15129 0.0
C90 C 0.16141 0.0551 0.13242 0.0
C91 C 0.14959 0.08807 0.17069 0.0
C92 C 0.16447 0.06983 0.18904 0.0
C93 C 0.16491 0.08191 0.21852 0.0
H94 H 0.12156 0.1871 0.31011 0.0
C95 C 0.13744 0.11282 0.187 0.0
C96 C 0.14652 0.10955 0.21499 0.0
H97 H 0.18464 0.11725 0.32345 0.0
H98 H 0.1755 0.09897 0.27691 0.0
H99 H 0.14719 0.20536 0.25252 0.0
H100 H 0.07418 0.1489 0.27206 0.0
H101 H 0.06384 0.17137 0.24367 0.0
H102 H 0.07295 0.18801 0.27697 0.0
H103 H 0.11285 0.21952 0.26501 0.0
H104 H 0.11939 0.21313 0.22813 0.0
C105 C 0.19713 0.08903 0.22646 0.0
C106 C 0.14991 0.05938 0.2382 0.0
C107 C 0.06933 0.18532 0.13923 0.0
C108 C 0.05256 0.20916 0.14901 0.0
C109 C 0.05467 0.21733 0.17754 0.0
C110 C 0.07293 0.20173 0.19603 0.0
C111 C 0.0892 0.17766 0.18593 0.0
C112 C 0.0873 0.16997 0.15791 0.0
C113 C 0.10536 0.14334 0.15089 0.0
C114 C 0.1185 0.13624 0.17936 0.0
C115 C 0.10899 0.15637 0.19978 0.0
C116 C 0.12911 0.15251 0.12925 0.0
C117 C 0.0843 0.11886 0.14058 0.0
C118 C 0.13353 0.16789 0.30316 0.0
C119 C 0.154 0.15385 0.3208 0.0
C120 C 0.16843 0.12845 0.31075 0.0
C121 C 0.16349 0.11806 0.28343 0.0
C122 C 0.14427 0.13338 0.26567 0.0
C123 C 0.12953 0.15775 0.27568 0.0
C124 C 0.11155 0.17253 0.25327 0.0
C125 C 0.1185 0.15339 0.22803 0.0
C126 C 0.13729 0.13022 0.23553 0.0
C127 C 0.12302 0.20439 0.24949 0.0
C128 C 0.07887 0.17039 0.26183 0.0
H129 H 0.13761 0.09453 0.12662 0.0
H130 H 0.18833 0.02923 0.19473 0.0
H131 H 0.12919 0.05123 0.22864 0.0
H132 H 0.14372 0.06881 0.25873 0.0
H133 H 0.16435 0.04012 0.24194 0.0
H134 H 0.21102 0.09238 0.20749 0.0
H135 H 0.20713 0.07094 0.23887 0.0
H136 H 0.19914 0.10985 0.23836 0.0
H137 H 0.06774 0.17794 0.11764 0.0
H138 H 0.04207 0.23567 0.18558 0.0
H139 H 0.07346 0.20887 0.21753 0.0
H140 H 0.13561 0.1759 0.13212 0.0
H141 H 0.12102 0.15002 0.10736 0.0
H142 H 0.14974 0.14002 0.1317 0.0
H143 H 0.06358 0.11904 0.15293 0.0
H144 H 0.09319 0.0965 0.14332 0.0
H145 H 0.07846 0.12205 0.11811 0.0
H146 H 0.15959 0.04952 0.11034 0.0
C147 C 0.14844 0.0811 0.14196 0.0
C148 C 0.33188 0.57776 0.63382 0.0
C149 C 0.35053 0.56525 0.61348 0.0
C150 C 0.37524 0.5813 0.60443 0.0
C151 C 0.36404 0.6201 0.63748 0.0
C152 C 0.33899 0.60519 0.6454 0.0
C153 C 0.32205 0.62147 0.66767 0.0
H154 H 0.31734 0.73235 0.76208 0.0
C155 C 0.36618 0.64701 0.65464 0.0
C156 C 0.34143 0.64826 0.67209 0.0
H157 H 0.25321 0.66365 0.74903 0.0
H158 H 0.28096 0.64554 0.70939 0.0
H159 H 0.37295 0.69271 0.75358 0.0
H160 H 0.32587 0.74831 0.69584 0.0
H161 H 0.36334 0.75226 0.6882 0.0
H162 H 0.34969 0.76307 0.72233 0.0
H163 H 0.37319 0.7321 0.75598 0.0
H164 H 0.39883 0.71271 0.73406 0.0
C165 C 0.32065 0.60173 0.69419 0.0
C166 C 0.29174 0.6299 0.6554 0.0
C167 C 0.45942 0.70723 0.6515 0.0
C168 C 0.46888 0.73229 0.66603 0.0
C169 C 0.44951 0.74692 0.68426 0.0
C170 C 0.42119 0.73577 0.68883 0.0
C171 C 0.41239 0.70984 0.67495 0.0
C172 C 0.4312 0.6965 0.65612 0.0
C173 C 0.41813 0.6697 0.64262 0.0
C174 C 0.38854 0.66853 0.65705 0.0
C175 C 0.38542 0.69184 0.67617 0.0
C176 C 0.43763 0.64298 0.65037 0.0
C177 C 0.41524 0.67547 0.61058 0.0
C178 C 0.30887 0.71377 0.75038 0.0
C179 C 0.28309 0.69934 0.75882 0.0
C180 C 0.27324 0.6749 0.74323 0.0
C181 C 0.28935 0.66446 0.72019 0.0
C182 C 0.31572 0.67845 0.71279 0.0
C183 C 0.32472 0.70305 0.72745 0.0
C184 C 0.35338 0.71499 0.71692 0.0
C185 C 0.36028 0.69334 0.69363 0.0
C186 C 0.33828 0.67183 0.69144 0.0
C187 C 0.3759 0.71332 0.74129 0.0
C188 C 0.34807 0.74639 0.70535 0.0
H189 H 0.40138 0.6194 0.60874 0.0
H190 H 0.31266 0.56613 0.64121 0.0
H191 H 0.29326 0.63435 0.63244 0.0
H192 H 0.28292 0.65042 0.66451 0.0
H193 H 0.27559 0.61191 0.65843 0.0
H194 H 0.34197 0.59041 0.69765 0.0
H195 H 0.3035 0.58456 0.69196 0.0
H196 H 0.31657 0.61413 0.71371 0.0
H197 H 0.47393 0.69601 0.63698 0.0
H198 H 0.45653 0.76648 0.69536 0.0
H199 H 0.40744 0.74743 0.70335 0.0
H200 H 0.44424 0.644 0.67287 0.0
H201 H 0.45793 0.64265 0.63748 0.0
H202 H 0.42645 0.62166 0.64795 0.0
H203 H 0.41359 0.69939 0.60589 0.0
H204 H 0.39497 0.66591 0.60163 0.0
H205 H 0.43448 0.66682 0.59891 0.0
H206 H 0.3895 0.57269 0.58819 0.0
C207 C 0.38204 0.60858 0.61627 0.0
C208 C 0.79512 0.83327 0.25885 0.0
C209 C 0.79727 0.80537 0.2715 0.0
C210 C 0.82325 0.78895 0.26794 0.0
C211 C 0.84487 0.82867 0.24132 0.0
C212 C 0.81917 0.84451 0.24402 0.0
C213 C 0.82122 0.87429 0.23034 0.0
H214 H 0.90351 0.97476 0.16119 0.0
C215 C 0.86645 0.8473 0.22676 0.0
C216 C 0.85289 0.8742 0.22046 0.0
H217 H 0.81029 0.97755 0.17794 0.0
H218 H 0.81378 0.93202 0.20363 0.0
H219 H 0.92471 0.94907 0.22067 0.0
H220 H 0.90255 0.90824 0.14189 0.0
H221 H 0.93486 0.89174 0.1542 0.0
H222 H 0.93466 0.93046 0.14675 0.0
H223 H 0.9495 0.9491 0.19139 0.0
H224 H 0.94883 0.91929 0.21651 0.0
C225 C 0.81576 0.89806 0.25304 0.0
C226 C 0.79933 0.87518 0.20541 0.0
C227 C 0.96773 0.80718 0.20453 0.0
C228 C 0.99269 0.82003 0.19237 0.0
C229 C 0.99278 0.85048 0.18683 0.0
C230 C 0.96785 0.86759 0.19183 0.0
C231 C 0.94247 0.85413 0.20238 0.0
C232 C 0.94302 0.8247 0.20961 0.0
C233 C 0.91454 0.81476 0.22237 0.0
C234 C 0.89634 0.84263 0.21989 0.0
C235 C 0.91269 0.86543 0.20778 0.0
C236 C 0.92034 0.80613 0.25346 0.0
C237 C 0.90199 0.78962 0.20401 0.0
C238 C 0.88375 0.96565 0.17029 0.0
C239 C 0.85655 0.97989 0.16721 0.0
C240 C 0.83162 0.96737 0.1801 0.0
C241 C 0.83359 0.94065 0.19473 0.0
C242 C 0.86068 0.92605 0.19629 0.0
C243 C 0.88521 0.9387 0.18434 0.0
C244 C 0.91173 0.91919 0.1862 0.0
C245 C 0.89899 0.89254 0.20099 0.0
C246 C 0.86918 0.89681 0.20709 0.0
C247 C 0.93512 0.93488 0.20444 0.0
C248 C 0.92179 0.91202 0.1558 0.0
H249 H 0.86618 0.78698 0.25135 0.0
H250 H 0.77539 0.84632 0.2609 0.0
H251 H 0.79515 0.8528 0.19686 0.0
H252 H 0.80781 0.88781 0.18729 0.0
H253 H 0.77788 0.88448 0.21197 0.0
H254 H 0.8278 0.89259 0.27269 0.0
H255 H 0.79208 0.89963 0.25828 0.0
H256 H 0.82361 0.92004 0.24675 0.0
H257 H 0.96727 0.78392 0.20941 0.0
H258 H 0.01171 0.86086 0.17732 0.0
H259 H 0.96903 0.89046 0.18647 0.0
H260 H 0.94034 0.81699 0.2619 0.0
H261 H 0.92347 0.78203 0.25573 0.0
H262 H 0.90253 0.81335 0.26769 0.0
H263 H 0.90442 0.79492 0.18128 0.0
H264 H 0.87832 0.78599 0.20729 0.0
H265 H 0.91374 0.76865 0.20804 0.0
H266 H 0.82581 0.76764 0.27779 0.0
C267 C 0.84695 0.80041 0.25291 0.0
C268 C 0.67166 0.30928 0.76045 0.0
C269 C 0.69221 0.32044 0.77975 0.0
C270 C 0.71112 0.34328 0.77121 0.0
C271 C 0.68887 0.34371 0.72509 0.0
C272 C 0.6704 0.32122 0.7333 0.0
C273 C 0.64972 0.3123 0.71018 0.0
H274 H 0.59728 0.33614 0.57915 0.0
C275 C 0.68226 0.35105 0.69558 0.0
C276 C 0.65953 0.33254 0.68656 0.0
H277 H 0.5629 0.27781 0.64297 0.0
H278 H 0.60396 0.28904 0.67303 0.0
H279 H 0.61034 0.38824 0.62149 0.0
H280 H 0.66565 0.3206 0.58699 0.0
H281 H 0.68756 0.35219 0.59009 0.0
H282 H 0.656 0.35269 0.56712 0.0
H283 H 0.62014 0.38619 0.58497 0.0
H284 H 0.64304 0.40471 0.60998 0.0
C285 C 0.61801 0.31907 0.72002 0.0
C286 C 0.65539 0.2796 0.703 0.0
C287 C 0.73201 0.43845 0.64942 0.0
C288 C 0.72978 0.45076 0.62241 0.0
C289 C 0.71406 0.4355 0.60147 0.0
C290 C 0.69912 0.40945 0.60784 0.0
C291 C 0.69972 0.39862 0.63547 0.0
C292 C 0.71703 0.4123 0.6554 0.0
C293 C 0.71619 0.39665 0.68324 0.0
C294 C 0.69424 0.37236 0.67708 0.0
C295 C 0.68427 0.37399 0.64924 0.0
C296 C 0.70457 0.41845 0.70567 0.0
C297 C 0.74726 0.38433 0.68937 0.0
C298 C 0.59857 0.32572 0.59958 0.0
C299 C 0.57651 0.30635 0.60876 0.0
C300 C 0.57955 0.29272 0.63525 0.0
C301 C 0.60326 0.29957 0.65286 0.0
C302 C 0.624 0.3205 0.64407 0.0
C303 C 0.62174 0.33276 0.6176 0.0
C304 C 0.64481 0.35568 0.61224 0.0
C305 C 0.66102 0.35558 0.64009 0.0
C306 C 0.64875 0.33492 0.65864 0.0
C307 C 0.62902 0.38532 0.6067 0.0
C308 C 0.66452 0.34503 0.58773 0.0
H309 H 0.72459 0.37222 0.73892 0.0
H310 H 0.65672 0.29185 0.7664 0.0
H311 H 0.67931 0.27484 0.70291 0.0
H312 H 0.64756 0.27346 0.68184 0.0
H313 H 0.64498 0.26489 0.71875 0.0
H314 H 0.61751 0.3381 0.73473 0.0
H315 H 0.60826 0.29996 0.73115 0.0
H316 H 0.60343 0.32566 0.70259 0.0
H317 H 0.74437 0.44946 0.66577 0.0
H318 H 0.71193 0.44456 0.58051 0.0
H319 H 0.68676 0.39937 0.59127 0.0
H320 H 0.68586 0.4314 0.69718 0.0
H321 H 0.72192 0.4342 0.7121 0.0
H322 H 0.69601 0.40751 0.72465 0.0
H323 H 0.75992 0.38076 0.66967 0.0
H324 H 0.7466 0.36245 0.69954 0.0
H325 H 0.76011 0.39966 0.70273 0.0
H326 H 0.72757 0.35188 0.78542 0.0
C327 C 0.70959 0.3549 0.74405 0.0
C328 C 0.65361 0.42843 0.34445 0.0
C329 C 0.6349 0.44141 0.36447 0.0
C330 C 0.60912 0.42641 0.37237 0.0
C331 C 0.61996 0.3874 0.33941 0.0
C332 C 0.64576 0.40145 0.33232 0.0
C333 C 0.66285 0.38468 0.3105 0.0
H334 H 0.66851 0.27193 0.218 0.0
C335 C 0.61764 0.36043 0.32233 0.0
C336 C 0.64286 0.35845 0.30556 0.0
H337 H 0.73318 0.34001 0.23158 0.0
H338 H 0.70424 0.35968 0.26967 0.0
H339 H 0.658 0.25775 0.28381 0.0
H340 H 0.61247 0.31272 0.22438 0.0
H341 H 0.58621 0.2927 0.24348 0.0
H342 H 0.61255 0.2733 0.22235 0.0
H343 H 0.63412 0.24267 0.25753 0.0
H344 H 0.62043 0.25468 0.29129 0.0
C345 C 0.69255 0.37539 0.32357 0.0
C346 C 0.66556 0.40434 0.28402 0.0
C347 C 0.52447 0.3 0.32624 0.0
C348 C 0.51544 0.27418 0.3127 0.0
C349 C 0.53482 0.25948 0.29455 0.0
C350 C 0.56285 0.27106 0.2893 0.0
C351 C 0.57139 0.29745 0.30252 0.0
C352 C 0.55246 0.31109 0.32105 0.0
C353 C 0.56541 0.3382 0.33408 0.0
C354 C 0.59511 0.33909 0.31984 0.0
C355 C 0.59838 0.31542 0.30117 0.0
C356 C 0.56806 0.33314 0.36626 0.0
C357 C 0.54599 0.36474 0.32566 0.0
C358 C 0.67676 0.29076 0.22946 0.0
C359 C 0.70312 0.30451 0.22161 0.0
C360 C 0.71273 0.32927 0.23689 0.0
C361 C 0.69593 0.34062 0.25906 0.0
C362 C 0.66915 0.32718 0.26597 0.0
C363 C 0.66025 0.30236 0.25157 0.0
C364 C 0.6312 0.29096 0.26168 0.0
C365 C 0.6239 0.31328 0.28428 0.0
C366 C 0.64611 0.33455 0.2866 0.0
C367 C 0.63591 0.25981 0.27409 0.0
C368 C 0.60933 0.29222 0.23679 0.0
H369 H 0.58154 0.38953 0.36676 0.0
H370 H 0.67358 0.43928 0.33786 0.0
H371 H 0.64481 0.41654 0.28018 0.0
H372 H 0.66947 0.39175 0.26457 0.0
H373 H 0.68336 0.42079 0.28656 0.0
H374 H 0.69016 0.37074 0.34643 0.0
H375 H 0.70921 0.39303 0.32122 0.0
H376 H 0.70121 0.35477 0.31452 0.0
H377 H 0.50997 0.3113 0.3407 0.0
H378 H 0.52812 0.23936 0.2842 0.0
H379 H 0.57666 0.2592 0.27499 0.0
H380 H 0.57011 0.30935 0.37137 0.0
H381 H 0.54853 0.34165 0.37757 0.0
H382 H 0.58804 0.34323 0.37525 0.0
H383 H 0.53929 0.36308 0.30322 0.0
H384 H 0.55732 0.38606 0.32742 0.0
H385 H 0.52573 0.36554 0.33859 0.0
H386 H 0.59469 0.43539 0.38829 0.0
C387 C 0.60158 0.39959 0.35998 0.0
C388 C 0.20068 0.20847 0.74062 0.0
C389 C 0.22724 0.19502 0.73286 0.0
C390 C 0.23522 0.1683 0.74584 0.0
C391 C 0.18922 0.16751 0.77133 0.0
C392 C 0.18214 0.19444 0.75976 0.0
C393 C 0.15248 0.20515 0.76891 0.0
H394 H 0.02329 0.17671 0.83243 0.0
C395 C 0.16394 0.15757 0.78823 0.0
C396 C 0.14241 0.17963 0.78697 0.0
H397 H 0.05045 0.25787 0.79324 0.0
H398 H 0.09831 0.23686 0.78345 0.0
H399 H 0.05451 0.13129 0.78814 0.0
H400 H 0.07956 0.16918 0.86733 0.0
H401 H 0.09508 0.13392 0.86687 0.0
H402 H 0.05572 0.13792 0.86543 0.0
H403 H 0.03746 0.12209 0.82101 0.0
H404 H 0.06973 0.10315 0.80889 0.0
C405 C 0.13312 0.20896 0.74239 0.0
C406 C 0.15664 0.23364 0.78637 0.0
C407 C 0.16426 0.05571 0.83266 0.0
C408 C 0.14315 0.04004 0.8482 0.0
C409 C 0.11587 0.05342 0.85377 0.0
C410 C 0.1096 0.08171 0.84395 0.0
C411 C 0.13079 0.097 0.82835 0.0
C412 C 0.15762 0.08407 0.823 0.0
C413 C 0.17736 0.10378 0.80602 0.0
C414 C 0.15807 0.13078 0.80252 0.0
C415 C 0.13078 0.12652 0.81547 0.0
C416 C 0.18358 0.08834 0.77759 0.0
C417 C 0.20507 0.11051 0.82369 0.0
C418 C 0.03946 0.18974 0.82132 0.0
C419 C 0.03313 0.21863 0.81292 0.0
C420 C 0.05493 0.23542 0.79952 0.0
C421 C 0.0826 0.22319 0.79397 0.0
C422 C 0.08853 0.19406 0.80229 0.0
C423 C 0.06723 0.17808 0.81614 0.0
C424 C 0.07789 0.14832 0.82527 0.0
C425 C 0.10903 0.14878 0.81417 0.0
C426 C 0.11498 0.17538 0.80037 0.0
C427 C 0.05893 0.1248 0.8103 0.0
C428 C 0.07691 0.14697 0.85787 0.0
H429 H 0.22344 0.13395 0.77379 0.0
H430 H 0.19361 0.22881 0.73095 0.0
H431 H 0.1784 0.23406 0.79692 0.0
H432 H 0.14061 0.2355 0.80375 0.0
H433 H 0.15517 0.25351 0.77287 0.0
H434 H 0.13617 0.19011 0.72778 0.0
H435 H 0.13897 0.22938 0.73086 0.0
H436 H 0.10947 0.20954 0.74708 0.0
H437 H 0.18536 0.04605 0.82784 0.0
H438 H 0.09942 0.04218 0.86617 0.0
H439 H 0.08845 0.09056 0.84895 0.0
H440 H 0.16372 0.07664 0.76989 0.0
H441 H 0.20139 0.07184 0.77975 0.0
H442 H 0.1893 0.10378 0.76058 0.0
H443 H 0.19951 0.11245 0.84639 0.0
H444 H 0.21527 0.13177 0.81819 0.0
H445 H 0.22163 0.09276 0.8215 0.0
H446 H 0.2558 0.15771 0.74071 0.0
C447 C 0.21639 0.15451 0.76505 0.0
C448 C 0.30335 0.66001 0.21908 0.0
C449 C 0.32029 0.68264 0.20711 0.0
C450 C 0.34257 0.69576 0.22339 0.0
C451 C 0.33013 0.66453 0.26291 0.0
C452 C 0.30862 0.65135 0.24684 0.0
C453 C 0.29259 0.62764 0.26263 0.0
H454 H 0.27703 0.54816 0.38181 0.0
C455 C 0.32925 0.65119 0.29118 0.0
C456 C 0.30714 0.62972 0.29124 0.0
H457 H 0.236 0.53317 0.30126 0.0
H458 H 0.25815 0.57765 0.283 0.0
H459 H 0.33871 0.56199 0.35656 0.0
H460 H 0.26935 0.6193 0.38398 0.0
H461 H 0.30233 0.63706 0.39257 0.0
H462 H 0.29375 0.60199 0.40848 0.0
H463 H 0.32794 0.56586 0.39269 0.0
H464 H 0.35441 0.58999 0.37703 0.0
C465 C 0.29884 0.5978 0.24796 0.0
C466 C 0.25973 0.63597 0.26408 0.0
C467 C 0.4046 0.68024 0.36472 0.0
C468 C 0.40899 0.6714 0.39277 0.0
C469 C 0.38732 0.65411 0.406 0.0
C470 C 0.36301 0.64386 0.39102 0.0
C471 C 0.36021 0.65091 0.36244 0.0
C472 C 0.38003 0.66989 0.35007 0.0
C473 C 0.37238 0.6763 0.31991 0.0
C474 C 0.34576 0.65668 0.3159 0.0
C475 C 0.33907 0.64151 0.34076 0.0
C476 C 0.39839 0.66651 0.30117 0.0
C477 C 0.36452 0.70937 0.31749 0.0
C478 C 0.27215 0.55495 0.36048 0.0
C479 C 0.25459 0.53739 0.34298 0.0
C480 C 0.24946 0.54643 0.31509 0.0
C481 C 0.26251 0.5721 0.30452 0.0
C482 C 0.28138 0.58853 0.32186 0.0
C483 C 0.28562 0.58004 0.34946 0.0
C484 C 0.3081 0.59865 0.36421 0.0
C485 C 0.31701 0.61948 0.34079 0.0
C486 C 0.30118 0.61356 0.31612 0.0
C487 C 0.33366 0.57827 0.37334 0.0
C488 C 0.29285 0.61503 0.38875 0.0
H489 H 0.36475 0.69775 0.26248 0.0
H490 H 0.28582 0.64964 0.20738 0.0
H491 H 0.25712 0.65972 0.26908 0.0
H492 H 0.24779 0.62408 0.28076 0.0
H493 H 0.24869 0.63175 0.24366 0.0
H494 H 0.31996 0.59824 0.23626 0.0
H495 H 0.28134 0.5922 0.23264 0.0
H496 H 0.30135 0.5795 0.26308 0.0
H497 H 0.42059 0.69372 0.35392 0.0
H498 H 0.38954 0.64781 0.42786 0.0
H499 H 0.34778 0.63011 0.40206 0.0
H500 H 0.40737 0.64512 0.30856 0.0
H501 H 0.41643 0.6829 0.30181 0.0
H502 H 0.39214 0.66284 0.27905 0.0
H503 H 0.35561 0.71806 0.33763 0.0
H504 H 0.347 0.71359 0.30194 0.0
H505 H 0.38407 0.72274 0.31203 0.0
H506 H 0.35625 0.71292 0.21462 0.0
C507 C 0.34752 0.68688 0.2512 0.0
C508 C 0.80271 0.93396 0.83501 0.0
C509 C 0.81191 0.94433 0.86135 0.0
C510 C 0.8285 0.92594 0.879 0.0
C511 C 0.82959 0.88856 0.84283 0.0
C512 C 0.81199 0.90607 0.82606 0.0
C513 C 0.80698 0.89264 0.79752 0.0
H514 H 0.8463 0.79119 0.70083 0.0
C515 C 0.8388 0.86281 0.82614 0.0
C516 C 0.82564 0.86502 0.79955 0.0
H517 H 0.77891 0.85785 0.69361 0.0
H518 H 0.78823 0.87321 0.74121 0.0
H519 H 0.89261 0.82851 0.73546 0.0
H520 H 0.82436 0.76899 0.76101 0.0
H521 H 0.85466 0.76209 0.78279 0.0
H522 H 0.85791 0.75653 0.74535 0.0
H523 H 0.89561 0.78942 0.73121 0.0
H524 H 0.90672 0.80746 0.76324 0.0
C525 C 0.81874 0.91427 0.77502 0.0
C526 C 0.77395 0.88535 0.79462 0.0
C527 C 0.91652 0.79424 0.86526 0.0
C528 C 0.93375 0.77221 0.85281 0.0
C529 C 0.92728 0.76288 0.82528 0.0
C530 C 0.90455 0.77607 0.80998 0.0
C531 C 0.8885 0.79921 0.82217 0.0
C532 C 0.89434 0.80764 0.84951 0.0
C533 C 0.87679 0.83409 0.85828 0.0
C534 C 0.85919 0.83996 0.83178 0.0
C535 C 0.86614 0.81947 0.81076 0.0
C536 C 0.89845 0.85949 0.86514 0.0
C537 C 0.85678 0.82498 0.88307 0.0
C538 C 0.83331 0.80897 0.70938 0.0
C539 C 0.812 0.82342 0.69302 0.0
C540 C 0.79598 0.84671 0.70528 0.0
C541 C 0.80116 0.85543 0.73311 0.0
C542 C 0.8225 0.8407 0.74905 0.0
C543 C 0.83778 0.81759 0.73726 0.0
C544 C 0.85839 0.80332 0.75778 0.0
C545 C 0.85296 0.82173 0.78384 0.0
C546 C 0.83237 0.84398 0.77845 0.0
C547 C 0.89004 0.80706 0.74645 0.0
C548 C 0.84865 0.77096 0.76196 0.0
H549 H 0.85033 0.88526 0.88414 0.0
H550 H 0.79018 0.94796 0.82105 0.0
H551 H 0.76381 0.8808 0.81545 0.0
H552 H 0.77004 0.86514 0.78223 0.0
H553 H 0.76173 0.9039 0.78496 0.0
H554 H 0.84039 0.92326 0.78148 0.0
H555 H 0.8035 0.93308 0.77213 0.0
H556 H 0.82242 0.90393 0.75437 0.0
H557 H 0.92157 0.80237 0.88612 0.0
H558 H 0.94042 0.74598 0.81534 0.0
H559 H 0.90106 0.76842 0.78892 0.0
H560 H 0.91972 0.85668 0.85399 0.0
H561 H 0.90327 0.86056 0.888 0.0
H562 H 0.89046 0.88118 0.858 0.0
H563 H 0.84719 0.80283 0.87932 0.0
H564 H 0.83783 0.83982 0.88585 0.0
H565 H 0.86934 0.82401 0.90305 0.0
H566 H 0.83575 0.93375 0.89938 0.0
C567 C 0.83712 0.89797 0.87001 0.0
H568 H 0.23381 0.89603 0.0425 0.0
H569 H 0.16378 0.98168 0.1731 0.0
H570 H 0.15872 0.8654 0.08923 0.0
H571 H 0.21066 0.02471 0.10599 0.0
H572 H 0.17418 0.93404 0.15112 0.0
H573 H 0.23744 0.93829 0.07445 0.0
C574 C 0.21854 0.89784 0.05986 0.0
C575 C 0.19568 0.8775 0.06306 0.0
C576 C 0.18263 0.9539 0.14152 0.0
C577 C 0.19981 0.9254 0.09953 0.0
C578 C 0.17688 0.981 0.15411 0.0
C579 C 0.18614 0.00706 0.14111 0.0
C580 C 0.19801 0.95293 0.11596 0.0
C581 C 0.20284 0.00506 0.11641 0.0
C582 C 0.22053 0.92198 0.07793 0.0
C583 C 0.17639 0.88089 0.08581 0.0
N584 N 0.20807 0.97843 0.10448 0.0
N585 N 0.17877 0.90452 0.10309 0.0
H586 H 0.63562 0.69667 0.60917 0.0
H587 H 0.48829 0.78079 0.63792 0.0
H588 H 0.60735 0.77281 0.5623 0.0
H589 H 0.51795 0.70478 0.68377 0.0
H590 H 0.53814 0.78768 0.61965 0.0
H591 H 0.60041 0.70887 0.64588 0.0
C592 C 0.62241 0.71632 0.60688 0.0
C593 C 0.62379 0.73325 0.58228 0.0
C594 C 0.534 0.77002 0.63439 0.0
C595 C 0.58293 0.747 0.62391 0.0
C596 C 0.50564 0.76625 0.6449 0.0
C597 C 0.49928 0.74207 0.66204 0.0
C598 C 0.55577 0.74918 0.64091 0.0
C599 C 0.52219 0.72358 0.67039 0.0
C600 C 0.60227 0.7233 0.62786 0.0
C601 C 0.60664 0.75883 0.58071 0.0
N602 N 0.54934 0.7272 0.65935 0.0
N603 N 0.58633 0.76451 0.6009 0.0
H604 H 0.88207 0.10934 0.03695 0.0
H605 H 0.82027 0.02819 0.17337 0.0
H606 H 0.79612 0.12808 0.07062 0.0
H607 H 0.88644 0.99166 0.1185 0.0
H608 H 0.8151 0.06981 0.14099 0.0
H609 H 0.88845 0.07145 0.0726 0.0
C610 C 0.86457 0.10565 0.05193 0.0
C611 C 0.83839 0.12181 0.0506 0.0
C612 C 0.83082 0.05267 0.13626 0.0
C613 C 0.84569 0.07836 0.09158 0.0
C614 C 0.83373 0.02884 0.15464 0.0
C615 C 0.85393 0.00627 0.14884 0.0
C616 C 0.84845 0.05409 0.11212 0.0
C617 C 0.87106 0.00869 0.12438 0.0
C618 C 0.86822 0.08391 0.07223 0.0
C619 C 0.81655 0.11597 0.07069 0.0
N620 N 0.86796 0.03213 0.10702 0.0
N621 N 0.82068 0.09467 0.09038 0.0
H622 H 0.42535 0.34059 0.50558 0.0
H623 H 0.54312 0.25633 0.60069 0.0
H624 H 0.41114 0.25248 0.5367 0.0
H625 H 0.54717 0.34847 0.57906 0.0
H626 H 0.49683 0.2525 0.57468 0.0
H627 H 0.47237 0.34164 0.52931 0.0
C628 C 0.43208 0.32137 0.51737 0.0
C629 C 0.41406 0.29642 0.51918 0.0
C630 C 0.50802 0.27347 0.57557 0.0
C631 C 0.46831 0.29758 0.54663 0.0
C632 C 0.53438 0.27571 0.59046 0.0
C633 C 0.54926 0.30273 0.59195 0.0
C634 C 0.49652 0.29842 0.56209 0.0
C635 C 0.53697 0.32702 0.57805 0.0
C636 C 0.45904 0.32203 0.531 0.0
C637 C 0.42422 0.27223 0.5348 0.0
N638 N 0.51141 0.32426 0.56379 0.0
N639 N 0.45069 0.27342 0.54798 0.0
H640 H 0.71714 0.59597 0.43847 0.0
H641 H 0.59673 0.48602 0.37664 0.0
H642 H 0.62487 0.60059 0.45814 0.0
H643 H 0.68863 0.46363 0.3804 0.0
H644 H 0.60748 0.53255 0.39973 0.0
H645 H 0.70769 0.55175 0.41026 0.0
C646 C 0.69491 0.58785 0.43667 0.0
C647 C 0.67178 0.60185 0.45083 0.0
C648 C 0.62531 0.51748 0.39548 0.0
C649 C 0.66089 0.55162 0.41859 0.0
C650 C 0.61918 0.49079 0.38243 0.0
C651 C 0.64173 0.47057 0.37696 0.0
C652 C 0.65425 0.52428 0.40297 0.0
C653 C 0.67055 0.47853 0.38413 0.0
C654 C 0.68958 0.56259 0.4207 0.0
C655 C 0.64341 0.59035 0.44784 0.0
N656 N 0.67599 0.50474 0.39689 0.0
N657 N 0.63879 0.56596 0.43206 0.0
H658 H 0.90431 0.28029 0.92501 0.0
H659 H 0.97982 0.19748 0.79778 0.0
H660 H 0.87133 0.2023 0.88441 0.0
H661 H 0.02102 0.26728 0.84452 0.0
H662 H 0.93283 0.21033 0.81906 0.0
H663 H 0.93937 0.28666 0.88626 0.0
C664 C 0.90379 0.26513 0.90744 0.0
C665 C 0.8854 0.24045 0.90799 0.0
C666 C 0.95196 0.22332 0.82427 0.0
C667 C 0.92529 0.24735 0.86405 0.0
C668 C 0.97871 0.21601 0.81206 0.0
C669 C 0.00419 0.2311 0.81984 0.0
C670 C 0.95087 0.24539 0.84493 0.0
C671 C 0.00175 0.25507 0.8382 0.0
C672 C 0.92389 0.26864 0.88546 0.0
C673 C 0.88557 0.22134 0.88491 0.0
N674 N 0.9756 0.26109 0.8507 0.0
N675 N 0.90552 0.22495 0.86408 0.0
H676 H 0.29451 0.36594 0.38918 0.0
H677 H 0.22758 0.52299 0.39253 0.0
H678 H 0.23183 0.39165 0.45248 0.0
H679 H 0.26214 0.48484 0.31645 0.0
H680 H 0.22381 0.47374 0.41295 0.0
H681 H 0.27834 0.40692 0.35988 0.0
C682 C 0.27687 0.37986 0.39662 0.0
C683 C 0.26475 0.37566 0.42342 0.0
C684 C 0.2315 0.47603 0.39153 0.0
C685 C 0.24662 0.42303 0.39035 0.0
C686 C 0.23368 0.50413 0.37991 0.0
C687 C 0.24545 0.50794 0.35291 0.0
C688 C 0.24182 0.4517 0.37624 0.0
C689 C 0.25294 0.48283 0.33735 0.0
C690 C 0.2676 0.40325 0.37988 0.0
C691 C 0.24182 0.3942 0.43198 0.0
N692 N 0.25162 0.45582 0.34947 0.0
N693 N 0.23398 0.41755 0.41578 0.0
H694 H 0.06949 0.72854 0.97451 0.0
H695 H 0.98905 0.77241 0.83179 0.0
H696 H 0.09819 0.79921 0.92076 0.0
H697 H 0.93985 0.75098 0.90646 0.0
H698 H 0.03462 0.76563 0.85826 0.0
H699 H 0.0267 0.72118 0.94353 0.0
C700 C 0.06701 0.74205 0.9559 0.0
C701 C 0.08704 0.76459 0.95006 0.0
C702 C 0.01381 0.7618 0.86862 0.0
C703 C 0.03919 0.75593 0.91468 0.0
C704 C 0.98789 0.76543 0.85354 0.0
C705 C 0.96078 0.76236 0.86708 0.0
C706 C 0.01254 0.75462 0.89726 0.0
C707 C 0.96042 0.75371 0.89541 0.0
C708 C 0.04271 0.73792 0.93841 0.0
C709 C 0.08299 0.78174 0.92593 0.0
N710 N 0.98601 0.75027 0.90969 0.0
N711 N 0.05952 0.77701 0.90904 0.0
H712 H 0.84993 0.12241 0.90531 0.0
H713 H 0.76138 0.97386 0.87535 0.0
H714 H 0.76559 0.10505 0.943 0.0
H715 H 0.85441 0.98515 0.8643 0.0
H716 H 0.75779 0.02559 0.89084 0.0
H717 H 0.8463 0.07644 0.87946 0.0
C718 C 0.83042 0.10911 0.90788 0.0
C719 C 0.80829 0.11734 0.9268 0.0
C720 C 0.77888 0.01673 0.88476 0.0
C721 C 0.80417 0.06435 0.89736 0.0
C722 C 0.7809 0.98739 0.87595 0.0
C723 C 0.80826 0.9755 0.86889 0.0
C724 C 0.80437 0.03407 0.88593 0.0
C725 C 0.83299 0.99363 0.86986 0.0
C726 C 0.82841 0.08279 0.89315 0.0
C727 C 0.78328 0.09942 0.92881 0.0
N728 N 0.83047 0.02198 0.87826 0.0
N729 N 0.78207 0.07346 0.91458 0.0
H730 H 0.38131 0.22539 0.42258 0.0
H731 H 0.46448 0.29779 0.2945 0.0
H732 H 0.35393 0.30378 0.37875 0.0
H733 H 0.49936 0.22714 0.3446 0.0
H734 H 0.41599 0.28886 0.31465 0.0
H735 H 0.41578 0.2149 0.38443 0.0
C736 C 0.38188 0.2399 0.40453 0.0
C737 C 0.36534 0.26592 0.40414 0.0
C738 C 0.43401 0.27473 0.32074 0.0
C739 C 0.40479 0.25421 0.3607 0.0
C740 C 0.46157 0.27974 0.30911 0.0
C741 C 0.48567 0.26324 0.31815 0.0
C742 C 0.43081 0.25358 0.34207 0.0
C743 C 0.48111 0.24026 0.33722 0.0
C744 C 0.40168 0.23398 0.38283 0.0
C745 C 0.36684 0.28386 0.3802 0.0
N746 N 0.45426 0.23648 0.34907 0.0
N747 N 0.38663 0.27794 0.35969 0.0
H748 H 0.21773 0.89052 0.9359 0.0
H749 H 0.10624 0.99261 0.85025 0.0
H750 H 0.12415 0.87685 0.93276 0.0
H751 H 0.19441 0.01917 0.87118 0.0
H752 H 0.11515 0.94529 0.8728 0.0
H753 H 0.21206 0.93281 0.9044 0.0
C754 C 0.19607 0.89614 0.9283 0.0
C755 C 0.17133 0.88033 0.93724 0.0
C756 C 0.13262 0.9614 0.8723 0.0
C757 C 0.16475 0.92855 0.90128 0.0
C758 C 0.12751 0.98849 0.85955 0.0
C759 C 0.14944 0.01013 0.85922 0.0
C760 C 0.15991 0.95575 0.88479 0.0
C761 C 0.17686 0.00317 0.8709 0.0
C762 C 0.19285 0.92034 0.91045 0.0
C763 C 0.14379 0.88862 0.92673 0.0
N764 N 0.18125 0.97665 0.88344 0.0
N765 N 0.14125 0.91221 0.90944 0.0
H766 H 0.5783 0.7405 0.44708 0.0
H767 H 0.43964 0.63486 0.42737 0.0
H768 H 0.56651 0.65632 0.48769 0.0
H769 H 0.44306 0.72176 0.39088 0.0
H770 H 0.48648 0.64365 0.44965 0.0
H771 H 0.52943 0.73516 0.42585 0.0
C772 C 0.56554 0.72098 0.45156 0.0
C773 C 0.57667 0.69882 0.46919 0.0
C774 C 0.47703 0.66097 0.43693 0.0
C775 C 0.52099 0.69266 0.44508 0.0
C776 C 0.45 0.65605 0.42436 0.0
C777 C 0.43709 0.6777 0.4074 0.0
C778 C 0.49169 0.68769 0.43245 0.0
C779 C 0.45225 0.70435 0.40364 0.0
C780 C 0.53767 0.71799 0.43949 0.0
C781 C 0.55909 0.67404 0.47428 0.0
N782 N 0.47883 0.7086 0.41604 0.0
N783 N 0.53231 0.67168 0.46229 0.0
H784 H 0.27423 0.4039 0.548 0.0
H785 H 0.39076 0.52241 0.60173 0.0
H786 H 0.36651 0.40128 0.52799 0.0
H787 H 0.29768 0.53954 0.59985 0.0
H788 H 0.38191 0.47422 0.58117 0.0
H789 H 0.28229 0.44986 0.57384 0.0
C790 C 0.29621 0.4128 0.54928 0.0
C791 C 0.31971 0.39884 0.53566 0.0
C792 C 0.3634 0.4885 0.58527 0.0
C793 C 0.32901 0.45119 0.56514 0.0
C794 C 0.36844 0.51614 0.59685 0.0
C795 C 0.34497 0.53533 0.60214 0.0
C796 C 0.33466 0.47973 0.57907 0.0
C797 C 0.31643 0.52548 0.5962 0.0
C798 C 0.30073 0.43908 0.56388 0.0
C799 C 0.3477 0.41142 0.53792 0.0
N800 N 0.31207 0.49837 0.58487 0.0
N801 N 0.35154 0.43685 0.55234 0.0
H802 H 0.08733 0.73128 0.06674 0.0
H803 H 0.05137 0.82948 0.19973 0.0
H804 H 0.14299 0.79923 0.10028 0.0
H805 H 0.99 0.76945 0.16159 0.0
H806 H 0.09093 0.80659 0.17294 0.0
H807 H 0.05777 0.73315 0.10996 0.0
C808 C 0.09387 0.74578 0.08369 0.0
C809 C 0.1173 0.76528 0.08016 0.0
C810 C 0.06892 0.79796 0.17084 0.0
C811 C 0.0837 0.76799 0.12901 0.0
C812 C 0.04638 0.81103 0.18614 0.0
C813 C 0.01738 0.80173 0.18235 0.0
C814 C 0.0623 0.77583 0.15121 0.0
C815 C 0.01209 0.77741 0.16491 0.0
C816 C 0.07697 0.74702 0.10822 0.0
C817 C 0.12488 0.78398 0.10235 0.0
N818 N 0.03425 0.76571 0.14944 0.0
N819 N 0.10789 0.78517 0.12569 0.0
H820 H 0.6974 0.62805 0.59738 0.0
H821 H 0.76048 0.47103 0.57674 0.0
H822 H 0.76075 0.60828 0.53274 0.0
H823 H 0.72191 0.49942 0.65496 0.0
H824 H 0.76715 0.52252 0.5633 0.0
H825 H 0.71228 0.58373 0.62251 0.0
C826 C 0.71499 0.61476 0.58885 0.0
C827 C 0.72749 0.62154 0.56271 0.0
C828 C 0.7579 0.51752 0.58372 0.0
C829 C 0.74408 0.57036 0.59092 0.0
C830 C 0.75401 0.48814 0.59132 0.0
C831 C 0.74024 0.48102 0.61679 0.0
C832 C 0.74734 0.53986 0.60145 0.0
C833 C 0.73257 0.50397 0.63509 0.0
C834 C 0.72349 0.58942 0.60319 0.0
C835 C 0.75038 0.60373 0.55274 0.0
N836 N 0.73561 0.53237 0.62679 0.0
N837 N 0.75741 0.5785 0.56649 0.0
H838 H 0.8912 0.25812 0.06626 0.0
H839 H 0.06056 0.22391 0.09369 0.0
H840 H 0.94913 0.21692 0.00638 0.0
H841 H 0.9963 0.22718 0.16027 0.0
H842 H 0.02258 0.2379 0.06008 0.0
H843 H 0.93254 0.26263 0.09924 0.0
C844 C 0.91274 0.25063 0.05987 0.0
C845 C 0.91683 0.23679 0.03381 0.0
C846 C 0.01695 0.23602 0.08214 0.0
C847 C 0.96383 0.24217 0.07094 0.0
C848 C 0.03855 0.22795 0.10131 0.0
C849 C 0.03144 0.22364 0.12973 0.0
C850 C 0.98805 0.23998 0.09143 0.0
C851 C 0.00275 0.23009 0.13855 0.0
C852 C 0.93619 0.2531 0.07866 0.0
C853 C 0.94505 0.22734 0.02647 0.0
N854 N 0.98194 0.23753 0.11936 0.0
N855 N 0.96746 0.23009 0.04499 0.0
H856 H 0.23558 0.7005 0.04768 0.0
H857 H 0.321 0.73945 0.18764 0.0
H858 H 0.27076 0.78684 0.06459 0.0
H859 H 0.3045 0.65028 0.16074 0.0
H860 H 0.30547 0.75695 0.14153 0.0
H861 H 0.26311 0.68125 0.08759 0.0
C862 C 0.24937 0.71536 0.05959 0.0
C863 C 0.25059 0.74541 0.05297 0.0
C864 C 0.30558 0.73352 0.1456 0.0
C865 C 0.28192 0.72354 0.09892 0.0
C866 C 0.31459 0.72347 0.17192 0.0
C867 C 0.31377 0.69332 0.17826 0.0
C868 C 0.29536 0.71334 0.12554 0.0
C869 C 0.30484 0.67376 0.15708 0.0
C870 C 0.26514 0.70433 0.08236 0.0
C871 C 0.26906 0.76355 0.06898 0.0
N872 N 0.29567 0.68413 0.13179 0.0
N873 N 0.28366 0.75241 0.09149 0.0
H874 H 0.72524 0.7997 0.53524 0.0
H875 H 0.81403 0.7671 0.67211 0.0
H876 H 0.7788 0.72201 0.54465 0.0
H877 H 0.79502 0.85648 0.6471 0.0
H878 H 0.80133 0.7506 0.62516 0.0
H879 H 0.75091 0.82199 0.57503 0.0
C880 C 0.74279 0.78756 0.54525 0.0
C881 C 0.74954 0.75873 0.53683 0.0
C882 C 0.8003 0.77388 0.62984 0.0
C883 C 0.7785 0.7839 0.58263 0.0
C884 C 0.80769 0.78343 0.65672 0.0
C885 C 0.80561 0.81335 0.66385 0.0
C886 C 0.7901 0.7942 0.60994 0.0
C887 C 0.79638 0.83314 0.6429 0.0
C888 C 0.75742 0.80031 0.56797 0.0
C889 C 0.77265 0.74417 0.55049 0.0
N890 N 0.78859 0.82317 0.617 0.0
N891 N 0.78587 0.75668 0.57308 0.0
H892 H 0.79445 0.29171 0.06235 0.0
H893 H 0.71285 0.24757 0.205 0.0
H894 H 0.7573 0.20589 0.07801 0.0
H895 H 0.73028 0.33744 0.18095 0.0
H896 H 0.73506 0.231 0.16108 0.0
H897 H 0.7765 0.30797 0.1082 0.0
C898 C 0.78251 0.27628 0.07538 0.0
C899 C 0.77723 0.24742 0.0662 0.0
C900 C 0.73413 0.25434 0.16549 0.0
C901 C 0.75691 0.26586 0.11878 0.0
C902 C 0.72141 0.26383 0.19053 0.0
C903 C 0.71943 0.29397 0.19658 0.0
C904 C 0.7451 0.2751 0.14636 0.0
C905 C 0.73152 0.31398 0.1773 0.0
C906 C 0.77229 0.2856 0.10155 0.0
C907 C 0.76169 0.22841 0.08406 0.0
N908 N 0.74371 0.30419 0.15298 0.0
N909 N 0.75213 0.23796 0.1095 0.0
H910 H 0.26615 0.30399 0.59198 0.0
H911 H 0.25615 0.16509 0.6912 0.0
H912 H 0.30896 0.22169 0.57279 0.0
H913 H 0.23778 0.25315 0.72031 0.0
H914 H 0.27763 0.18557 0.64864 0.0
H915 H 0.25646 0.2861 0.63949 0.0
C916 C 0.27363 0.28221 0.59777 0.0
C917 C 0.28811 0.26419 0.57825 0.0
C918 C 0.26928 0.20044 0.66452 0.0
C919 C 0.27703 0.24359 0.63258 0.0
C920 C 0.25718 0.18876 0.689 0.0
C921 C 0.24474 0.20738 0.70931 0.0
C922 C 0.26858 0.23094 0.66008 0.0
C923 C 0.2464 0.23789 0.70493 0.0
C924 C 0.26824 0.27209 0.62496 0.0
C925 C 0.29759 0.2363 0.58707 0.0
N926 N 0.25766 0.2487 0.6806 0.0
N927 N 0.29157 0.22672 0.61349 0.0
H928 H 0.72519 0.69506 0.39638 0.0
H929 H 0.76467 0.83669 0.30958 0.0
H930 H 0.68964 0.78048 0.41649 0.0
H931 H 0.77706 0.74883 0.27731 0.0
H932 H 0.73334 0.81682 0.34651 0.0
H933 H 0.74121 0.71401 0.35096 0.0
C934 C 0.72052 0.71776 0.39112 0.0
C935 C 0.70645 0.73634 0.4104 0.0
C936 C 0.7425 0.80194 0.33106 0.0
C937 C 0.72495 0.75827 0.35851 0.0
C938 C 0.76028 0.8133 0.30981 0.0
C939 C 0.77399 0.79434 0.29057 0.0
C940 C 0.73872 0.7714 0.33328 0.0
C941 C 0.76764 0.76418 0.29217 0.0
C942 C 0.72954 0.72853 0.36511 0.0
C943 C 0.70059 0.76544 0.40231 0.0
N944 N 0.75088 0.75359 0.31345 0.0
N945 N 0.71033 0.77567 0.37714 0.0
H946 H 0.761 0.29669 0.94393 0.0
H947 H 0.69055 0.2624 0.79556 0.0
H948 H 0.73573 0.20915 0.91874 0.0
H949 H 0.70024 0.34997 0.82922 0.0
H950 H 0.70205 0.24225 0.84197 0.0
H951 H 0.73422 0.31659 0.90394 0.0
C952 C 0.74948 0.28168 0.93014 0.0
C953 C 0.75088 0.25121 0.93444 0.0
C954 C 0.70124 0.26588 0.83929 0.0
C955 C 0.7205 0.2738 0.88827 0.0
C956 C 0.69457 0.2774 0.81282 0.0
C957 C 0.69498 0.30791 0.8084 0.0
C958 C 0.70852 0.28504 0.86138 0.0
C959 C 0.70046 0.32629 0.8315 0.0
C960 C 0.73412 0.29304 0.90731 0.0
C961 C 0.73526 0.23279 0.91611 0.0
N962 N 0.70738 0.31457 0.85687 0.0
N963 N 0.72112 0.24434 0.89349 0.0
H964 H 0.20807 0.2769 0.4484 0.0
H965 H 0.17226 0.12625 0.36966 0.0
H966 H 0.25987 0.1983 0.45985 0.0
H967 H 0.15584 0.21249 0.3347 0.0
H968 H 0.19286 0.14973 0.41154 0.0
H969 H 0.17636 0.24997 0.41603 0.0
C970 C 0.21248 0.25384 0.44456 0.0
C971 C 0.23697 0.23995 0.45651 0.0
C972 C 0.18426 0.16332 0.39476 0.0
C973 C 0.20068 0.20913 0.4196 0.0
C974 C 0.17269 0.15001 0.37073 0.0
C975 C 0.16253 0.16728 0.3482 0.0
C976 C 0.18517 0.19407 0.39651 0.0
C977 C 0.16293 0.19803 0.35142 0.0
C978 C 0.19443 0.23857 0.426 0.0
C979 C 0.2415 0.20999 0.45076 0.0
N980 N 0.1742 0.21038 0.375 0.0
N981 N 0.22365 0.1956 0.4325 0.0
H982 H 0.20199 0.70672 0.92377 0.0
H983 H 0.27318 0.75546 0.77753 0.0
H984 H 0.24174 0.79155 0.9091 0.0
H985 H 0.25877 0.66456 0.79977 0.0
H986 H 0.25421 0.77016 0.82339 0.0
H987 H 0.21618 0.69181 0.87619 0.0
C988 C 0.21375 0.72217 0.91062 0.0
C989 C 0.22083 0.75038 0.92053 0.0
C990 C 0.25506 0.747 0.81816 0.0
C991 C 0.23668 0.7336 0.86608 0.0
C992 C 0.26591 0.73859 0.792 0.0
C993 C 0.26792 0.70871 0.78491 0.0
C994 C 0.24598 0.72542 0.83736 0.0
C995 C 0.25748 0.68785 0.80426 0.0
C996 C 0.2218 0.71365 0.88349 0.0
C997 C 0.23603 0.7695 0.90252 0.0
N998 N 0.24711 0.69659 0.8297 0.0
N999 N 0.24334 0.76079 0.87616 0.0
loop_
_geom_bond_atom_site_label_1
_geom_bond_atom_site_label_2
_geom_bond_distance
_geom_bond_site_symmetry_2
_ccdc_geom_bond_type
Sc0 O3 2.025 . S
Sc0 O10 2.105 1_554 S
Sc0 O13 2.105 . S
Sc0 O16 2.105 . S
Sc0 O19 2.105 1_554 S
Sc1 O3 2.025 . S
Sc1 O11 2.105 1_554 S
Sc1 O15 2.105 . S
Sc1 O17 2.105 . S
Sc1 O21 2.105 1_554 S
Sc2 O3 2.025 . S
Sc2 O12 2.105 1_554 S
Sc2 O14 2.105 . S
Sc2 O18 2.105 . S
Sc2 O20 2.105 1_554 S
O3 Sc0 2.025 . S
O3 Sc1 2.025 . S
O3 Sc2 2.025 . S
C4 O10 1.268 . S
C4 O20 1.268 . S
C5 O11 1.268 . S
C5 O19 1.268 . S
C6 O12 1.268 . S
C6 O21 1.268 . S
C7 O13 1.268 . S
C7 O17 1.268 . S
C8 O14 1.268 . S
C8 O16 1.268 . S
C9 O15 1.268 . S
C9 O18 1.268 . S
O10 Sc0 2.105 1_556 S
O10 C4 1.268 . S
O11 Sc1 2.105 1_556 S
O11 C5 1.268 . S
O12 Sc2 2.105 1_556 S
O12 C6 1.268 . S
O13 Sc0 2.105 . S
O13 C7 1.268 . S
O14 Sc2 2.105 . S
O14 C8 1.268 . S
O15 Sc1 2.105 . S
O15 C9 1.268 . S
O16 Sc0 2.105 . S
O16 C8 1.268 . S
O17 Sc1 2.105 . S
O17 C7 1.268 . S
O18 Sc2 2.105 . S
O18 C9 1.268 . S
O19 Sc0 2.105 1_556 S
O19 C5 1.268 . S
O20 Sc2 2.105 1_556 S
O20 C4 1.268 . S
O21 Sc1 2.105 1_556 S
O21 C6 1.268 . S
Sc22 O25 2.025 . S
Sc22 O32 2.105 . S
Sc22 O35 2.105 . S
Sc22 O38 2.105 . S
Sc22 O41 2.105 . S
Sc23 O25 2.025 . S
Sc23 O33 2.105 . S
Sc23 O37 2.105 . S
Sc23 O39 2.105 . S
Sc23 O43 2.105 . S
Sc24 O25 2.025 . S
Sc24 O34 2.105 . S
Sc24 O36 2.105 . S
Sc24 O40 2.105 . S
Sc24 O42 2.105 . S
O25 Sc22 2.025 . S
O25 Sc23 2.025 . S
O25 Sc24 2.025 . S
C26 O32 1.268 . S
C26 O42 1.268 . S
C27 O33 1.268 . S
C27 O41 1.268 . S
C28 O34 1.268 . S
C28 O43 1.268 . S
C29 O35 1.268 . S
C29 O39 1.268 . S
C30 O36 1.268 . S
C30 O38 1.268 . S
C31 O37 1.268 . S
C31 O40 1.268 . S
O32 Sc22 2.105 . S
O32 C26 1.268 . S
O33 Sc23 2.105 . S
O33 C27 1.268 . S
O34 Sc24 2.105 . S
O34 C28 1.268 . S
O35 Sc22 2.105 . S
O35 C29 1.268 . S
O36 Sc24 2.105 . S
O36 C30 1.268 . S
O37 Sc23 2.105 . S
O37 C31 1.268 . S
O38 Sc22 2.105 . S
O38 C30 1.268 . S
O39 Sc23 2.105 . S
O39 C29 1.268 . S
O40 Sc24 2.105 . S
O40 C31 1.268 . S
O41 Sc22 2.105 . S
O41 C27 1.268 . S
O42 Sc24 2.105 . S
O42 C26 1.268 . S
O43 Sc23 2.105 . S
O43 C28 1.268 . S
Sc44 O47 2.025 . S
Sc44 O54 2.105 1_554 S
Sc44 O57 2.105 . S
Sc44 O60 2.105 . S
Sc44 O63 2.105 1_554 S
Sc45 O47 2.025 . S
Sc45 O55 2.105 1_554 S
Sc45 O59 2.105 . S
Sc45 O61 2.105 . S
Sc45 O65 2.105 1_554 S
Sc46 O47 2.025 . S
Sc46 O56 2.105 1_554 S
Sc46 O58 2.105 . S
Sc46 O62 2.105 . S
Sc46 O64 2.105 1_554 S
O47 Sc44 2.025 . S
O47 Sc45 2.025 . S
O47 Sc46 2.025 . S
C48 O54 1.268 . S
C48 O64 1.268 . S
C49 O55 1.268 . S
C49 O63 1.268 . S
C50 O56 1.268 . S
C50 O65 1.268 . S
C51 O57 1.268 . S
C51 O61 1.268 . S
C52 O58 1.268 . S
C52 O60 1.268 . S
C53 O59 1.268 . S
C53 O62 1.268 . S
O54 Sc44 2.105 1_556 S
O54 C48 1.268 . S
O55 Sc45 2.105 1_556 S
O55 C49 1.268 . S
O56 Sc46 2.105 1_556 S
O56 C50 1.268 . S
O57 Sc44 2.105 . S
O57 C51 1.268 . S
O58 Sc46 2.105 . S
O58 C52 1.268 . S
O59 Sc45 2.105 . S
O59 C53 1.268 . S
O60 Sc44 2.105 . S
O60 C52 1.268 . S
O61 Sc45 2.105 . S
O61 C51 1.268 . S
O62 Sc46 2.105 . S
O62 C53 1.268 . S
O63 Sc44 2.105 1_556 S
O63 C49 1.268 . S
O64 Sc46 2.105 1_556 S
O64 C48 1.268 . S
O65 Sc45 2.105 1_556 S
O65 C50 1.268 . S
Sc66 O69 2.025 . S
Sc66 O76 2.105 . S
Sc66 O79 2.105 . S
Sc66 O82 2.105 . S
Sc66 O85 2.105 . S
Sc67 O69 2.025 . S
Sc67 O77 2.105 . S
Sc67 O81 2.105 . S
Sc67 O83 2.105 . S
Sc67 O87 2.105 . S
Sc68 O69 2.025 . S
Sc68 O78 2.105 . S
Sc68 O80 2.105 . S
Sc68 O84 2.105 . S
Sc68 O86 2.105 . S
O69 Sc66 2.025 . S
O69 Sc67 2.025 . S
O69 Sc68 2.025 . S
C70 O76 1.268 . S
C70 O86 1.268 . S
C71 O77 1.268 . S
C71 O85 1.268 . S
C72 O78 1.268 . S
C72 O87 1.268 . S
C73 O79 1.268 . S
C73 O83 1.268 . S
C74 O80 1.268 . S
C74 O82 1.268 . S
C75 O81 1.268 . S
C75 O84 1.268 . S
O76 Sc66 2.105 . S
O76 C70 1.268 . S
O77 Sc67 2.105 . S
O77 C71 1.268 . S
O78 Sc68 2.105 . S
O78 C72 1.268 . S
O79 Sc66 2.105 . S
O79 C73 1.268 . S
O80 Sc68 2.105 . S
O80 C74 1.268 . S
O81 Sc67 2.105 . S
O81 C75 1.268 . S
O82 Sc66 2.105 . S
O82 C74 1.268 . S
O83 Sc67 2.105 . S
O83 C73 1.268 . S
O84 Sc68 2.105 . S
O84 C75 1.268 . S
O85 Sc66 2.105 . S
O85 C71 1.268 . S
O86 Sc68 2.105 . S
O86 C70 1.268 . S
O87 Sc67 2.105 . S
O87 C72 1.268 . S
C88 C89 1.391 . S
C88 C92 1.391 . S
C88 H130 0.948 . S
C89 C88 1.391 . S
C89 C90 1.391 . S
C90 C89 1.391 . S
C90 H146 0.947 . S
C90 C147 1.392 . S
C91 C92 1.391 . S
C91 C95 1.397 . S
C91 C147 1.419 . S
C92 C88 1.391 . S
C92 C91 1.391 . S
C92 C93 1.399 . S
C93 C92 1.399 . S
C93 C96 1.396 . S
C93 C105 1.453 . S
C93 C106 1.684 . S
H94 C118 0.948 . S
C95 C91 1.397 . S
C95 C96 1.394 . S
C95 C114 1.723 . S
C96 C93 1.396 . S
C96 C95 1.394 . S
C96 C126 1.723 . S
H97 C120 0.947 . S
H98 C121 0.948 . S
H99 C127 0.982 . S
H100 C128 0.979 . S
H101 C128 0.980 . S
H102 C128 0.983 . S
H103 C127 0.979 . S
H104 C127 0.977 . S
C105 C93 1.453 . S
C105 H134 0.982 . S
C105 H135 0.979 . S
C105 H136 0.977 . S
C106 C93 1.684 . S
C106 H131 0.979 . S
C106 H132 0.980 . S
C106 H133 0.983 . S
C107 C108 1.391 . S
C107 C112 1.391 . S
C107 H137 0.948 . S
C108 C107 1.391 . S
C108 C109 1.391 . S
C109 C108 1.391 . S
C109 C110 1.392 . S
C109 H138 0.947 . S
C110 C109 1.392 . S
C110 C111 1.419 . S
C110 H139 0.948 . S
C111 C110 1.419 . S
C111 C112 1.391 . S
C111 C115 1.397 . S
C112 C107 1.391 . S
C112 C111 1.391 . S
C112 C113 1.399 . S
C113 C112 1.399 . S
C113 C114 1.396 . S
C113 C116 1.453 . S
C113 C117 1.684 . S
C114 C95 1.723 . S
C114 C113 1.396 . S
C114 C115 1.394 . S
C115 C111 1.397 . S
C115 C114 1.394 . S
C115 C125 1.723 . S
C116 C113 1.453 . S
C116 H140 0.982 . S
C116 H141 0.979 . S
C116 H142 0.977 . S
C117 C113 1.684 . S
C117 H143 0.979 . S
C117 H144 0.980 . S
C117 H145 0.983 . S
C118 H94 0.948 . S
C118 C119 1.391 . S
C118 C123 1.391 . S
C119 C118 1.391 . S
C119 C120 1.391 . S
C120 H97 0.947 . S
C120 C119 1.391 . S
C120 C121 1.392 . S
C121 H98 0.948 . S
C121 C120 1.392 . S
C121 C122 1.419 . S
C122 C121 1.419 . S
C122 C123 1.391 . S
C122 C126 1.397 . S
C123 C118 1.391 . S
C123 C122 1.391 . S
C123 C124 1.399 . S
C124 C123 1.399 . S
C124 C125 1.396 . S
C124 C127 1.453 . S
C124 C128 1.684 . S
C125 C115 1.723 . S
C125 C124 1.396 . S
C125 C126 1.394 . S
C126 C96 1.723 . S
C126 C122 1.397 . S
C126 C125 1.394 . S
C127 H99 0.982 . S
C127 H103 0.979 . S
C127 H104 0.977 . S
C127 C124 1.453 . S
C128 H100 0.979 . S
C128 H101 0.980 . S
C128 H102 0.983 . S
C128 C124 1.684 . S
H129 C147 0.948 . S
H130 C88 0.948 . S
H131 C106 0.979 . S
H132 C106 0.980 . S
H133 C106 0.983 . S
H134 C105 0.982 . S
H135 C105 0.979 . S
H136 C105 0.977 . S
H137 C107 0.948 . S
H138 C109 0.947 . S
H139 C110 0.948 . S
H140 C116 0.982 . S
H141 C116 0.979 . S
H142 C116 0.977 . S
H143 C117 0.979 . S
H144 C117 0.980 . S
H145 C117 0.983 . S
H146 C90 0.947 . S
C147 C90 1.392 . S
C147 C91 1.419 . S
C147 H129 0.948 . S
C148 C149 1.391 . S
C148 C152 1.391 . S
C148 H190 0.948 . S
C149 C148 1.391 . S
C149 C150 1.391 . S
C150 C149 1.391 . S
C150 H206 0.947 . S
C150 C207 1.392 . S
C151 C152 1.391 . S
C151 C155 1.397 . S
C151 C207 1.419 . S
C152 C148 1.391 . S
C152 C151 1.391 . S
C152 C153 1.399 . S
C153 C152 1.399 . S
C153 C156 1.396 . S
C153 C165 1.453 . S
C153 C166 1.684 . S
H154 C178 0.948 . S
C155 C151 1.397 . S
C155 C156 1.394 . S
C155 C174 1.723 . S
C156 C153 1.396 . S
C156 C155 1.394 . S
C156 C186 1.723 . S
H157 C180 0.947 . S
H158 C181 0.948 . S
H159 C187 0.982 . S
H160 C188 0.979 . S
H161 C188 0.980 . S
H162 C188 0.983 . S
H163 C187 0.979 . S
H164 C187 0.977 . S
C165 C153 1.453 . S
C165 H194 0.982 . S
C165 H195 0.979 . S
C165 H196 0.977 . S
C166 C153 1.684 . S
C166 H191 0.979 . S
C166 H192 0.980 . S
C166 H193 0.983 . S
C167 C168 1.391 . S
C167 C172 1.391 . S
C167 H197 0.948 . S
C168 C167 1.391 . S
C168 C169 1.391 . S
C169 C168 1.391 . S
C169 C170 1.392 . S
C169 H198 0.947 . S
C170 C169 1.392 . S
C170 C171 1.419 . S
C170 H199 0.948 . S
C171 C170 1.419 . S
C171 C172 1.391 . S
C171 C175 1.397 . S
C172 C167 1.391 . S
C172 C171 1.391 . S
C172 C173 1.399 . S
C173 C172 1.399 . S
C173 C174 1.396 . S
C173 C176 1.453 . S
C173 C177 1.684 . S
C174 C155 1.723 . S
C174 C173 1.396 . S
C174 C175 1.394 . S
C175 C171 1.397 . S
C175 C174 1.394 . S
C175 C185 1.723 . S
C176 C173 1.453 . S
C176 H200 0.982 . S
C176 H201 0.979 . S
C176 H202 0.977 . S
C177 C173 1.684 . S
C177 H203 0.979 . S
C177 H204 0.980 . S
C177 H205 0.983 . S
C178 H154 0.948 . S
C178 C179 1.391 . S
C178 C183 1.391 . S
C179 C178 1.391 . S
C179 C180 1.391 . S
C180 H157 0.947 . S
C180 C179 1.391 . S
C180 C181 1.392 . S
C181 H158 0.948 . S
C181 C180 1.392 . S
C181 C182 1.419 . S
C182 C181 1.419 . S
C182 C183 1.391 . S
C182 C186 1.397 . S
C183 C178 1.391 . S
C183 C182 1.391 . S
C183 C184 1.399 . S
C184 C183 1.399 . S
C184 C185 1.396 . S
C184 C187 1.453 . S
C184 C188 1.684 . S
C185 C175 1.723 . S
C185 C184 1.396 . S
C185 C186 1.394 . S
C186 C156 1.723 . S
C186 C182 1.397 . S
C186 C185 1.394 . S
C187 H159 0.982 . S
C187 H163 0.979 . S
C187 H164 0.977 . S
C187 C184 1.453 . S
C188 H160 0.979 . S
C188 H161 0.980 . S
C188 H162 0.983 . S
C188 C184 1.684 . S
H189 C207 0.948 . S
H190 C148 0.948 . S
H191 C166 0.979 . S
H192 C166 0.980 . S
H193 C166 0.983 . S
H194 C165 0.982 . S
H195 C165 0.979 . S
H196 C165 0.977 . S
H197 C167 0.948 . S
H198 C169 0.947 . S
H199 C170 0.948 . S
H200 C176 0.982 . S
H201 C176 0.979 . S
H202 C176 0.977 . S
H203 C177 0.979 . S
H204 C177 0.980 . S
H205 C177 0.983 . S
H206 C150 0.947 . S
C207 C150 1.392 . S
C207 C151 1.419 . S
C207 H189 0.948 . S
C208 C209 1.391 . S
C208 C212 1.391 . S
C208 H250 0.948 . S
C209 C208 1.391 . S
C209 C210 1.391 . S
C210 C209 1.391 . S
C210 H266 0.947 . S
C210 C267 1.392 . S
C211 C212 1.391 . S
C211 C215 1.397 . S
C211 C267 1.419 . S
C212 C208 1.391 . S
C212 C211 1.391 . S
C212 C213 1.399 . S
C213 C212 1.399 . S
C213 C216 1.396 . S
C213 C225 1.453 . S
C213 C226 1.684 . S
H214 C238 0.948 . S
C215 C211 1.397 . S
C215 C216 1.394 . S
C215 C234 1.723 . S
C216 C213 1.396 . S
C216 C215 1.394 . S
C216 C246 1.723 . S
H217 C240 0.947 . S
H218 C241 0.948 . S
H219 C247 0.982 . S
H220 C248 0.979 . S
H221 C248 0.980 . S
H222 C248 0.983 . S
H223 C247 0.979 . S
H224 C247 0.977 . S
C225 C213 1.453 . S
C225 H254 0.982 . S
C225 H255 0.979 . S
C225 H256 0.977 . S
C226 C213 1.684 . S
C226 H251 0.979 . S
C226 H252 0.980 . S
C226 H253 0.983 . S
C227 C228 1.391 . S
C227 C232 1.391 . S
C227 H257 0.948 . S
C228 C227 1.391 . S
C228 C229 1.391 . S
C229 C228 1.391 . S
C229 C230 1.392 . S
C229 H258 0.947 . S
C230 C229 1.392 . S
C230 C231 1.419 . S
C230 H259 0.948 . S
C231 C230 1.419 . S
C231 C232 1.391 . S
C231 C235 1.397 . S
C232 C227 1.391 . S
C232 C231 1.391 . S
C232 C233 1.399 . S
C233 C232 1.399 . S
C233 C234 1.396 . S
C233 C236 1.453 . S
C233 C237 1.684 . S
C234 C215 1.723 . S
C234 C233 1.396 . S
C234 C235 1.394 . S
C235 C231 1.397 . S
C235 C234 1.394 . S
C235 C245 1.723 . S
C236 C233 1.453 . S
C236 H260 0.982 . S
C236 H261 0.979 . S
C236 H262 0.977 . S
C237 C233 1.684 . S
C237 H263 0.979 . S
C237 H264 0.980 . S
C237 H265 0.983 . S
C238 H214 0.948 . S
C238 C239 1.391 . S
C238 C243 1.391 . S
C239 C238 1.391 . S
C239 C240 1.391 . S
C240 H217 0.947 . S
C240 C239 1.391 . S
C240 C241 1.392 . S
C241 H218 0.948 . S
C241 C240 1.392 . S
C241 C242 1.419 . S
C242 C241 1.419 . S
C242 C243 1.391 . S
C242 C246 1.397 . S
C243 C238 1.391 . S
C243 C242 1.391 . S
C243 C244 1.399 . S
C244 C243 1.399 . S
C244 C245 1.396 . S
C244 C247 1.453 . S
C244 C248 1.684 . S
C245 C235 1.723 . S
C245 C244 1.396 . S
C245 C246 1.394 . S
C246 C216 1.723 . S
C246 C242 1.397 . S
C246 C245 1.394 . S
C247 H219 0.982 . S
C247 H223 0.979 . S
C247 H224 0.977 . S
C247 C244 1.453 . S
C248 H220 0.979 . S
C248 H221 0.980 . S
C248 H222 0.983 . S
C248 C244 1.684 . S
H249 C267 0.948 . S
H250 C208 0.948 . S
H251 C226 0.979 . S
H252 C226 0.980 . S
H253 C226 0.983 . S
H254 C225 0.982 . S
H255 C225 0.979 . S
H256 C225 0.977 . S
H257 C227 0.948 . S
H258 C229 0.947 . S
H259 C230 0.948 . S
H260 C236 0.982 . S
H261 C236 0.979 . S
H262 C236 0.977 . S
H263 C237 0.979 . S
H264 C237 0.980 . S
H265 C237 0.983 . S
H266 C210 0.947 . S
C267 C210 1.392 . S
C267 C211 1.419 . S
C267 H249 0.948 . S
C268 C269 1.391 . S
C268 C272 1.391 . S
C268 H310 0.948 . S
C269 C268 1.391 . S
C269 C270 1.391 . S
C270 C269 1.391 . S
C270 H326 0.947 . S
C270 C327 1.392 . S
C271 C272 1.391 . S
C271 C275 1.397 . S
C271 C327 1.419 . S
C272 C268 1.391 . S
C272 C271 1.391 . S
C272 C273 1.399 . S
C273 C272 1.399 . S
C273 C276 1.396 . S
C273 C285 1.453 . S
C273 C286 1.684 . S
H274 C298 0.948 . S
C275 C271 1.397 . S
C275 C276 1.394 . S
C275 C294 1.723 . S
C276 C273 1.396 . S
C276 C275 1.394 . S
C276 C306 1.723 . S
H277 C300 0.947 . S
H278 C301 0.948 . S
H279 C307 0.982 . S
H280 C308 0.979 . S
H281 C308 0.980 . S
H282 C308 0.983 . S
H283 C307 0.979 . S
H284 C307 0.977 . S
C285 C273 1.453 . S
C285 H314 0.982 . S
C285 H315 0.979 . S
C285 H316 0.977 . S
C286 C273 1.684 . S
C286 H311 0.979 . S
C286 H312 0.980 . S
C286 H313 0.983 . S
C287 C288 1.391 . S
C287 C292 1.391 . S
C287 H317 0.948 . S
C288 C287 1.391 . S
C288 C289 1.391 . S
C289 C288 1.391 . S
C289 C290 1.392 . S
C289 H318 0.947 . S
C290 C289 1.392 . S
C290 C291 1.419 . S
C290 H319 0.948 . S
C291 C290 1.419 . S
C291 C292 1.391 . S
C291 C295 1.397 . S
C292 C287 1.391 . S
C292 C291 1.391 . S
C292 C293 1.399 . S
C293 C292 1.399 . S
C293 C294 1.396 . S
C293 C296 1.453 . S
C293 C297 1.684 . S
C294 C275 1.723 . S
C294 C293 1.396 . S
C294 C295 1.394 . S
C295 C291 1.397 . S
C295 C294 1.394 . S
C295 C305 1.723 . S
C296 C293 1.453 . S
C296 H320 0.982 . S
C296 H321 0.979 . S
C296 H322 0.977 . S
C297 C293 1.684 . S
C297 H323 0.979 . S
C297 H324 0.980 . S
C297 H325 0.983 . S
C298 H274 0.948 . S
C298 C299 1.391 . S
C298 C303 1.391 . S
C299 C298 1.391 . S
C299 C300 1.391 . S
C300 H277 0.947 . S
C300 C299 1.391 . S
C300 C301 1.392 . S
C301 H278 0.948 . S
C301 C300 1.392 . S
C301 C302 1.419 . S
C302 C301 1.419 . S
C302 C303 1.391 . S
C302 C306 1.397 . S
C303 C298 1.391 . S
C303 C302 1.391 . S
C303 C304 1.399 . S
C304 C303 1.399 . S
C304 C305 1.396 . S
C304 C307 1.453 . S
C304 C308 1.684 . S
C305 C295 1.723 . S
C305 C304 1.396 . S
C305 C306 1.394 . S
C306 C276 1.723 . S
C306 C302 1.397 . S
C306 C305 1.394 . S
C307 H279 0.982 . S
C307 H283 0.979 . S
C307 H284 0.977 . S
C307 C304 1.453 . S
C308 H280 0.979 . S
C308 H281 0.980 . S
C308 H282 0.983 . S
C308 C304 1.684 . S
H309 C327 0.948 . S
H310 C268 0.948 . S
H311 C286 0.979 . S
H312 C286 0.980 . S
H313 C286 0.983 . S
H314 C285 0.982 . S
H315 C285 0.979 . S
H316 C285 0.977 . S
H317 C287 0.948 . S
H318 C289 0.947 . S
H319 C290 0.948 . S
H320 C296 0.982 . S
H321 C296 0.979 . S
H322 C296 0.977 . S
H323 C297 0.979 . S
H324 C297 0.980 . S
H325 C297 0.983 . S
H326 C270 0.947 . S
C327 C270 1.392 . S
C327 C271 1.419 . S
C327 H309 0.948 . S
C328 C329 1.391 . S
C328 C332 1.391 . S
C328 H370 0.948 . S
C329 C328 1.391 . S
C329 C330 1.391 . S
C330 C329 1.391 . S
C330 H386 0.947 . S
C330 C387 1.392 . S
C331 C332 1.391 . S
C331 C335 1.397 . S
C331 C387 1.419 . S
C332 C328 1.391 . S
C332 C331 1.391 . S
C332 C333 1.399 . S
C333 C332 1.399 . S
C333 C336 1.396 . S
C333 C345 1.453 . S
C333 C346 1.684 . S
H334 C358 0.948 . S
C335 C331 1.397 . S
C335 C336 1.394 . S
C335 C354 1.723 . S
C336 C333 1.396 . S
C336 C335 1.394 . S
C336 C366 1.723 . S
H337 C360 0.947 . S
H338 C361 0.948 . S
H339 C367 0.982 . S
H340 C368 0.979 . S
H341 C368 0.980 . S
H342 C368 0.983 . S
H343 C367 0.979 . S
H344 C367 0.977 . S
C345 C333 1.453 . S
C345 H374 0.982 . S
C345 H375 0.979 . S
C345 H376 0.977 . S
C346 C333 1.684 . S
C346 H371 0.979 . S
C346 H372 0.980 . S
C346 H373 0.983 . S
C347 C348 1.391 . S
C347 C352 1.391 . S
C347 H377 0.948 . S
C348 C347 1.391 . S
C348 C349 1.391 . S
C349 C348 1.391 . S
C349 C350 1.392 . S
C349 H378 0.947 . S
C350 C349 1.392 . S
C350 C351 1.419 . S
C350 H379 0.948 . S
C351 C350 1.419 . S
C351 C352 1.391 . S
C351 C355 1.397 . S
C352 C347 1.391 . S
C352 C351 1.391 . S
C352 C353 1.399 . S
C353 C352 1.399 . S
C353 C354 1.396 . S
C353 C356 1.453 . S
C353 C357 1.684 . S
C354 C335 1.723 . S
C354 C353 1.396 . S
C354 C355 1.394 . S
C355 C351 1.397 . S
C355 C354 1.394 . S
C355 C365 1.723 . S
C356 C353 1.453 . S
C356 H380 0.982 . S
C356 H381 0.979 . S
C356 H382 0.977 . S
C357 C353 1.684 . S
C357 H383 0.979 . S
C357 H384 0.980 . S
C357 H385 0.983 . S
C358 H334 0.948 . S
C358 C359 1.391 . S
C358 C363 1.391 . S
C359 C358 1.391 . S
C359 C360 1.391 . S
C360 H337 0.947 . S
C360 C359 1.391 . S
C360 C361 1.392 . S
C361 H338 0.948 . S
C361 C360 1.392 . S
C361 C362 1.419 . S
C362 C361 1.419 . S
C362 C363 1.391 . S
C362 C366 1.397 . S
C363 C358 1.391 . S
C363 C362 1.391 . S
C363 C364 1.399 . S
C364 C363 1.399 . S
C364 C365 1.396 . S
C364 C367 1.453 . S
C364 C368 1.684 . S
C365 C355 1.723 . S
C365 C364 1.396 . S
C365 C366 1.394 . S
C366 C336 1.723 . S
C366 C362 1.397 . S
C366 C365 1.394 . S
C367 H339 0.982 . S
C367 H343 0.979 . S
C367 H344 0.977 . S
C367 C364 1.453 . S
C368 H340 0.979 . S
C368 H341 0.980 . S
C368 H342 0.983 . S
C368 C364 1.684 . S
H369 C387 0.948 . S
H370 C328 0.948 . S
H371 C346 0.979 . S
H372 C346 0.980 . S
H373 C346 0.983 . S
H374 C345 0.982 . S
H375 C345 0.979 . S
H376 C345 0.977 . S
H377 C347 0.948 . S
H378 C349 0.947 . S
H379 C350 0.948 . S
H380 C356 0.982 . S
H381 C356 0.979 . S
H382 C356 0.977 . S
H383 C357 0.979 . S
H384 C357 0.980 . S
H385 C357 0.983 . S
H386 C330 0.947 . S
C387 C330 1.392 . S
C387 C331 1.419 . S
C387 H369 0.948 . S
C388 C389 1.391 . S
C388 C392 1.391 . S
C388 H430 0.948 . S
C389 C388 1.391 . S
C389 C390 1.391 . S
C390 C389 1.391 . S
C390 H446 0.947 . S
C390 C447 1.392 . S
C391 C392 1.391 . S
C391 C395 1.397 . S
C391 C447 1.419 . S
C392 C388 1.391 . S
C392 C391 1.391 . S
C392 C393 1.399 . S
C393 C392 1.399 . S
C393 C396 1.396 . S
C393 C405 1.453 . S
C393 C406 1.684 . S
H394 C418 0.948 . S
C395 C391 1.397 . S
C395 C396 1.394 . S
C395 C414 1.723 . S
C396 C393 1.396 . S
C396 C395 1.394 . S
C396 C426 1.723 . S
H397 C420 0.947 . S
H398 C421 0.948 . S
H399 C427 0.982 . S
H400 C428 0.979 . S
H401 C428 0.980 . S
H402 C428 0.983 . S
H403 C427 0.979 . S
H404 C427 0.977 . S
C405 C393 1.453 . S
C405 H434 0.982 . S
C405 H435 0.979 . S
C405 H436 0.977 . S
C406 C393 1.684 . S
C406 H431 0.979 . S
C406 H432 0.980 . S
C406 H433 0.983 . S
C407 C408 1.391 . S
C407 C412 1.391 . S
C407 H437 0.948 . S
C408 C407 1.391 . S
C408 C409 1.391 . S
C409 C408 1.391 . S
C409 C410 1.392 . S
C409 H438 0.947 . S
C410 C409 1.392 . S
C410 C411 1.419 . S
C410 H439 0.948 . S
C411 C410 1.419 . S
C411 C412 1.391 . S
C411 C415 1.397 . S
C412 C407 1.391 . S
C412 C411 1.391 . S
C412 C413 1.399 . S
C413 C412 1.399 . S
C413 C414 1.396 . S
C413 C416 1.453 . S
C413 C417 1.684 . S
C414 C395 1.723 . S
C414 C413 1.396 . S
C414 C415 1.394 . S
C415 C411 1.397 . S
C415 C414 1.394 . S
C415 C425 1.723 . S
C416 C413 1.453 . S
C416 H440 0.982 . S
C416 H441 0.979 . S
C416 H442 0.977 . S
C417 C413 1.684 . S
C417 H443 0.979 . S
C417 H444 0.980 . S
C417 H445 0.983 . S
C418 H394 0.948 . S
C418 C419 1.391 . S
C418 C423 1.391 . S
C419 C418 1.391 . S
C419 C420 1.391 . S
C420 H397 0.947 . S
C420 C419 1.391 . S
C420 C421 1.392 . S
C421 H398 0.948 . S
C421 C420 1.392 . S
C421 C422 1.419 . S
C422 C421 1.419 . S
C422 C423 1.391 . S
C422 C426 1.397 . S
C423 C418 1.391 . S
C423 C422 1.391 . S
C423 C424 1.399 . S
C424 C423 1.399 . S
C424 C425 1.396 . S
C424 C427 1.453 . S
C424 C428 1.684 . S
C425 C415 1.723 . S
C425 C424 1.396 . S
C425 C426 1.394 . S
C426 C396 1.723 . S
C426 C422 1.397 . S
C426 C425 1.394 . S
C427 H399 0.982 . S
C427 H403 0.979 . S
C427 H404 0.977 . S
C427 C424 1.453 . S
C428 H400 0.979 . S
C428 H401 0.980 . S
C428 H402 0.983 . S
C428 C424 1.684 . S
H429 C447 0.948 . S
H430 C388 0.948 . S
H431 C406 0.979 . S
H432 C406 0.980 . S
H433 C406 0.983 . S
H434 C405 0.982 . S
H435 C405 0.979 . S
H436 C405 0.977 . S
H437 C407 0.948 . S
H438 C409 0.947 . S
H439 C410 0.948 . S
H440 C416 0.982 . S
H441 C416 0.979 . S
H442 C416 0.977 . S
H443 C417 0.979 . S
H444 C417 0.980 . S
H445 C417 0.983 . S
H446 C390 0.947 . S
C447 C390 1.392 . S
C447 C391 1.419 . S
C447 H429 0.948 . S
C448 C449 1.391 . S
C448 C452 1.391 . S
C448 H490 0.948 . S
C449 C448 1.391 . S
C449 C450 1.391 . S
C450 C449 1.391 . S
C450 H506 0.947 . S
C450 C507 1.392 . S
C451 C452 1.391 . S
C451 C455 1.397 . S
C451 C507 1.419 . S
C452 C448 1.391 . S
C452 C451 1.391 . S
C452 C453 1.399 . S
C453 C452 1.399 . S
C453 C456 1.396 . S
C453 C465 1.453 . S
C453 C466 1.684 . S
H454 C478 0.948 . S
C455 C451 1.397 . S
C455 C456 1.394 . S
C455 C474 1.723 . S
C456 C453 1.396 . S
C456 C455 1.394 . S
C456 C486 1.723 . S
H457 C480 0.947 . S
H458 C481 0.948 . S
H459 C487 0.982 . S
H460 C488 0.979 . S
H461 C488 0.980 . S
H462 C488 0.983 . S
H463 C487 0.979 . S
H464 C487 0.977 . S
C465 C453 1.453 . S
C465 H494 0.982 . S
C465 H495 0.979 . S
C465 H496 0.977 . S
C466 C453 1.684 . S
C466 H491 0.979 . S
C466 H492 0.980 . S
C466 H493 0.983 . S
C467 C468 1.391 . S
C467 C472 1.391 . S
C467 H497 0.948 . S
C468 C467 1.391 . S
C468 C469 1.391 . S
C469 C468 1.391 . S
C469 C470 1.392 . S
C469 H498 0.947 . S
C470 C469 1.392 . S
C470 C471 1.419 . S
C470 H499 0.948 . S
C471 C470 1.419 . S
C471 C472 1.391 . S
C471 C475 1.397 . S
C472 C467 1.391 . S
C472 C471 1.391 . S
C472 C473 1.399 . S
C473 C472 1.399 . S
C473 C474 1.396 . S
C473 C476 1.453 . S
C473 C477 1.684 . S
C474 C455 1.723 . S
C474 C473 1.396 . S
C474 C475 1.394 . S
C475 C471 1.397 . S
C475 C474 1.394 . S
C475 C485 1.723 . S
C476 C473 1.453 . S
C476 H500 0.982 . S
C476 H501 0.979 . S
C476 H502 0.977 . S
C477 C473 1.684 . S
C477 H503 0.979 . S
C477 H504 0.980 . S
C477 H505 0.983 . S
C478 H454 0.948 . S
C478 C479 1.391 . S
C478 C483 1.391 . S
C479 C478 1.391 . S
C479 C480 1.391 . S
C480 H457 0.947 . S
C480 C479 1.391 . S
C480 C481 1.392 . S
C481 H458 0.948 . S
C481 C480 1.392 . S
C481 C482 1.419 . S
C482 C481 1.419 . S
C482 C483 1.391 . S
C482 C486 1.397 . S
C483 C478 1.391 . S
C483 C482 1.391 . S
C483 C484 1.399 . S
C484 C483 1.399 . S
C484 C485 1.396 . S
C484 C487 1.453 . S
C484 C488 1.684 . S
C485 C475 1.723 . S
C485 C484 1.396 . S
C485 C486 1.394 . S
C486 C456 1.723 . S
C486 C482 1.397 . S
C486 C485 1.394 . S
C487 H459 0.982 . S
C487 H463 0.979 . S
C487 H464 0.977 . S
C487 C484 1.453 . S
C488 H460 0.979 . S
C488 H461 0.980 . S
C488 H462 0.983 . S
C488 C484 1.684 . S
H489 C507 0.948 . S
H490 C448 0.948 . S
H491 C466 0.979 . S
H492 C466 0.980 . S
H493 C466 0.983 . S
H494 C465 0.982 . S
H495 C465 0.979 . S
H496 C465 0.977 . S
H497 C467 0.948 . S
H498 C469 0.947 . S
H499 C470 0.948 . S
H500 C476 0.982 . S
H501 C476 0.979 . S
H502 C476 0.977 . S
H503 C477 0.979 . S
H504 C477 0.980 . S
H505 C477 0.983 . S
H506 C450 0.947 . S
C507 C450 1.392 . S
C507 C451 1.419 . S
C507 H489 0.948 . S
C508 C509 1.391 . S
C508 C512 1.391 . S
C508 H550 0.948 . S
C509 C508 1.391 . S
C509 C510 1.391 . S
C510 C509 1.391 . S
C510 H566 0.947 . S
C510 C567 1.392 . S
C511 C512 1.391 . S
C511 C515 1.397 . S
C511 C567 1.419 . S
C512 C508 1.391 . S
C512 C511 1.391 . S
C512 C513 1.399 . S
C513 C512 1.399 . S
C513 C516 1.396 . S
C513 C525 1.453 . S
C513 C526 1.684 . S
H514 C538 0.948 . S
C515 C511 1.397 . S
C515 C516 1.394 . S
C515 C534 1.723 . S
C516 C513 1.396 . S
C516 C515 1.394 . S
C516 C546 1.723 . S
H517 C540 0.947 . S
H518 C541 0.948 . S
H519 C547 0.982 . S
H520 C548 0.979 . S
H521 C548 0.980 . S
H522 C548 0.983 . S
H523 C547 0.979 . S
H524 C547 0.977 . S
C525 C513 1.453 . S
C525 H554 0.982 . S
C525 H555 0.979 . S
C525 H556 0.977 . S
C526 C513 1.684 . S
C526 H551 0.979 . S
C526 H552 0.980 . S
C526 H553 0.983 . S
C527 C528 1.391 . S
C527 C532 1.391 . S
C527 H557 0.948 . S
C528 C527 1.391 . S
C528 C529 1.391 . S
C529 C528 1.391 . S
C529 C530 1.392 . S
C529 H558 0.947 . S
C530 C529 1.392 . S
C530 C531 1.419 . S
C530 H559 0.948 . S
C531 C530 1.419 . S
C531 C532 1.391 . S
C531 C535 1.397 . S
C532 C527 1.391 . S
C532 C531 1.391 . S
C532 C533 1.399 . S
C533 C532 1.399 . S
C533 C534 1.396 . S
C533 C536 1.453 . S
C533 C537 1.684 . S
C534 C515 1.723 . S
C534 C533 1.396 . S
C534 C535 1.394 . S
C535 C531 1.397 . S
C535 C534 1.394 . S
C535 C545 1.723 . S
C536 C533 1.453 . S
C536 H560 0.982 . S
C536 H561 0.979 . S
C536 H562 0.977 . S
C537 C533 1.684 . S
C537 H563 0.979 . S
C537 H564 0.980 . S
C537 H565 0.983 . S
C538 H514 0.948 . S
C538 C539 1.391 . S
C538 C543 1.391 . S
C539 C538 1.391 . S
C539 C540 1.391 . S
C540 H517 0.947 . S
C540 C539 1.391 . S
C540 C541 1.392 . S
C541 H518 0.948 . S
C541 C540 1.392 . S
C541 C542 1.419 . S
C542 C541 1.419 . S
C542 C543 1.391 . S
C542 C546 1.397 . S
C543 C538 1.391 . S
C543 C542 1.391 . S
C543 C544 1.399 . S
C544 C543 1.399 . S
C544 C545 1.396 . S
C544 C547 1.453 . S
C544 C548 1.684 . S
C545 C535 1.723 . S
C545 C544 1.396 . S
C545 C546 1.394 . S
C546 C516 1.723 . S
C546 C542 1.397 . S
C546 C545 1.394 . S
C547 H519 0.982 . S
C547 H523 0.979 . S
C547 H524 0.977 . S
C547 C544 1.453 . S
C548 H520 0.979 . S
C548 H521 0.980 . S
C548 H522 0.983 . S
C548 C544 1.684 . S
H549 C567 0.948 . S
H550 C508 0.948 . S
H551 C526 0.979 . S
H552 C526 0.980 . S
H553 C526 0.983 . S
H554 C525 0.982 . S
H555 C525 0.979 . S
H556 C525 0.977 . S
H557 C527 0.948 . S
H558 C529 0.947 . S
H559 C530 0.948 . S
H560 C536 0.982 . S
H561 C536 0.979 . S
H562 C536 0.977 . S
H563 C537 0.979 . S
H564 C537 0.980 . S
H565 C537 0.983 . S
H566 C510 0.947 . S
C567 C510 1.392 . S
C567 C511 1.419 . S
C567 H549 0.948 . S
H568 C574 0.930 . S
H569 C578 0.930 . S
H570 C583 0.929 . S
H571 C581 0.929 . S
H572 C576 0.929 . S
H573 C582 0.929 . S
C574 H568 0.930 . S
C574 C575 1.367 . S
C574 C582 1.378 . S
C575 C574 1.367 . S
C575 C583 1.433 . S
C576 H572 0.929 . S
C576 C578 1.378 1_565 S
C576 C580 1.350 . S
C577 C580 1.463 . S
C577 C582 1.350 . S
C577 N585 1.427 . S
C578 H569 0.930 . S
C578 C576 1.378 1_545 S
C578 C579 1.367 . S
C579 C578 1.367 . S
C579 C581 1.433 . S
C580 C576 1.350 . S
C580 C577 1.463 . S
C580 N584 1.427 . S
C581 H571 0.929 . S
C581 C579 1.433 . S
C581 N584 1.384 1_545 S
C582 H573 0.929 . S
C582 C574 1.378 . S
C582 C577 1.350 . S
C583 H570 0.929 . S
C583 C575 1.433 . S
C583 N585 1.384 . S
N584 C580 1.427 . S
N584 C581 1.384 1_565 S
N585 C577 1.427 . S
N585 C583 1.384 . S
H586 C592 0.930 . S
H587 C596 0.930 . S
H588 C601 0.929 . S
H589 C599 0.929 . S
H590 C594 0.929 . S
H591 C600 0.929 . S
C592 H586 0.930 . S
C592 C593 1.367 . S
C592 C600 1.378 . S
C593 C592 1.367 . S
C593 C601 1.433 . S
C594 H590 0.929 . S
C594 C596 1.378 . S
C594 C598 1.350 . S
C595 C598 1.463 . S
C595 C600 1.350 . S
C595 N603 1.427 . S
C596 H587 0.930 . S
C596 C594 1.378 . S
C596 C597 1.367 . S
C597 C596 1.367 . S
C597 C599 1.433 . S
C598 C594 1.350 . S
C598 C595 1.463 . S
C598 N602 1.427 . S
C599 H589 0.929 . S
C599 C597 1.433 . S
C599 N602 1.384 . S
C600 H591 0.929 . S
C600 C592 1.378 . S
C600 C595 1.350 . S
C601 H588 0.929 . S
C601 C593 1.433 . S
C601 N603 1.384 . S
N602 C598 1.427 . S
N602 C599 1.384 . S
N603 C595 1.427 . S
N603 C601 1.384 . S
H604 C610 0.930 . S
H605 C614 0.930 . S
H606 C619 0.929 . S
H607 C617 0.929 . S
H608 C612 0.929 . S
H609 C618 0.929 . S
C610 H604 0.930 . S
C610 C611 1.367 . S
C610 C618 1.378 . S
C611 C610 1.367 . S
C611 C619 1.433 . S
C612 H608 0.929 . S
C612 C614 1.378 . S
C612 C616 1.350 . S
C613 C616 1.463 . S
C613 C618 1.350 . S
C613 N621 1.427 . S
C614 H605 0.930 . S
C614 C612 1.378 . S
C614 C615 1.367 1_545 S
C615 C614 1.367 1_565 S
C615 C617 1.433 . S
C616 C612 1.350 . S
C616 C613 1.463 . S
C616 N620 1.427 . S
C617 H607 0.929 . S
C617 C615 1.433 . S
C617 N620 1.384 1_565 S
C618 H609 0.929 . S
C618 C610 1.378 . S
C618 C613 1.350 . S
C619 H606 0.929 . S
C619 C611 1.433 . S
C619 N621 1.384 . S
N620 C616 1.427 . S
N620 C617 1.384 1_545 S
N621 C613 1.427 . S
N621 C619 1.384 . S
H622 C628 0.930 . S
H623 C632 0.930 . S
H624 C637 0.929 . S
H625 C635 0.929 . S
H626 C630 0.929 . S
H627 C636 0.929 . S
C628 H622 0.930 . S
C628 C629 1.367 . S
C628 C636 1.378 . S
C629 C628 1.367 . S
C629 C637 1.433 . S
C630 H626 0.929 . S
C630 C632 1.378 . S
C630 C634 1.350 . S
C631 C634 1.463 . S
C631 C636 1.350 . S
C631 N639 1.427 . S
C632 H623 0.930 . S
C632 C630 1.378 . S
C632 C633 1.367 . S
C633 C632 1.367 . S
C633 C635 1.433 . S
C634 C630 1.350 . S
C634 C631 1.463 . S
C634 N638 1.427 . S
C635 H625 0.929 . S
C635 C633 1.433 . S
C635 N638 1.384 . S
C636 H627 0.929 . S
C636 C628 1.378 . S
C636 C631 1.350 . S
C637 H624 0.929 . S
C637 C629 1.433 . S
C637 N639 1.384 . S
N638 C634 1.427 . S
N638 C635 1.384 . S
N639 C631 1.427 . S
N639 C637 1.384 . S
H640 C646 0.930 . S
H641 C650 0.930 . S
H642 C655 0.929 . S
H643 C653 0.929 . S
H644 C648 0.929 . S
H645 C654 0.929 . S
C646 H640 0.930 . S
C646 C647 1.367 . S
C646 C654 1.378 . S
C647 C646 1.367 . S
C647 C655 1.433 . S
C648 H644 0.929 . S
C648 C650 1.378 . S
C648 C652 1.350 . S
C649 C652 1.463 . S
C649 C654 1.350 . S
C649 N657 1.427 . S
C650 H641 0.930 . S
C650 C648 1.378 . S
C650 C651 1.367 . S
C651 C650 1.367 . S
C651 C653 1.433 . S
C652 C648 1.350 . S
C652 C649 1.463 . S
C652 N656 1.427 . S
C653 H643 0.929 . S
C653 C651 1.433 . S
C653 N656 1.384 . S
C654 H645 0.929 . S
C654 C646 1.378 . S
C654 C649 1.350 . S
C655 H642 0.929 . S
C655 C647 1.433 . S
C655 N657 1.384 . S
N656 C652 1.427 . S
N656 C653 1.384 . S
N657 C649 1.427 . S
N657 C655 1.384 . S
H658 C664 0.930 . S
H659 C668 0.930 . S
H660 C673 0.929 . S
H661 C671 0.929 . S
H662 C666 0.929 . S
H663 C672 0.929 . S
C664 H658 0.930 . S
C664 C665 1.367 . S
C664 C672 1.378 . S
C665 C664 1.367 . S
C665 C673 1.433 . S
C666 H662 0.929 . S
C666 C668 1.378 . S
C666 C670 1.350 . S
C667 C670 1.463 . S
C667 C672 1.350 . S
C667 N675 1.427 . S
C668 H659 0.930 . S
C668 C666 1.378 . S
C668 C669 1.367 1_655 S
C669 C668 1.367 1_455 S
C669 C671 1.433 . S
C670 C666 1.350 . S
C670 C667 1.463 . S
C670 N674 1.427 . S
C671 H661 0.929 . S
C671 C669 1.433 . S
C671 N674 1.384 1_455 S
C672 H663 0.929 . S
C672 C664 1.378 . S
C672 C667 1.350 . S
C673 H660 0.929 . S
C673 C665 1.433 . S
C673 N675 1.384 . S
N674 C670 1.427 . S
N674 C671 1.384 1_655 S
N675 C667 1.427 . S
N675 C673 1.384 . S
H676 C682 0.930 . S
H677 C686 0.930 . S
H678 C691 0.929 . S
H679 C689 0.929 . S
H680 C684 0.929 . S
H681 C690 0.929 . S
C682 H676 0.930 . S
C682 C683 1.367 . S
C682 C690 1.378 . S
C683 C682 1.367 . S
C683 C691 1.433 . S
C684 H680 0.929 . S
C684 C686 1.378 . S
C684 C688 1.350 . S
C685 C688 1.463 . S
C685 C690 1.350 . S
C685 N693 1.427 . S
C686 H677 0.930 . S
C686 C684 1.378 . S
C686 C687 1.367 . S
C687 C686 1.367 . S
C687 C689 1.433 . S
C688 C684 1.350 . S
C688 C685 1.463 . S
C688 N692 1.427 . S
C689 H679 0.929 . S
C689 C687 1.433 . S
C689 N692 1.384 . S
C690 H681 0.929 . S
C690 C682 1.378 . S
C690 C685 1.350 . S
C691 H678 0.929 . S
C691 C683 1.433 . S
C691 N693 1.384 . S
N692 C688 1.427 . S
N692 C689 1.384 . S
N693 C685 1.427 . S
N693 C691 1.384 . S
H694 C700 0.930 . S
H695 C704 0.930 . S
H696 C709 0.929 . S
H697 C707 0.929 . S
H698 C702 0.929 . S
H699 C708 0.929 . S
C700 H694 0.930 . S
C700 C701 1.367 . S
C700 C708 1.378 . S
C701 C700 1.367 . S
C701 C709 1.433 . S
C702 H698 0.929 . S
C702 C704 1.378 1_455 S
C702 C706 1.350 . S
C703 C706 1.463 . S
C703 C708 1.350 . S
C703 N711 1.427 . S
C704 H695 0.930 . S
C704 C702 1.378 1_655 S
C704 C705 1.367 . S
C705 C704 1.367 . S
C705 C707 1.433 . S
C706 C702 1.350 . S
C706 C703 1.463 . S
C706 N710 1.427 . S
C707 H697 0.929 . S
C707 C705 1.433 . S
C707 N710 1.384 1_655 S
C708 H699 0.929 . S
C708 C700 1.378 . S
C708 C703 1.350 . S
C709 H696 0.929 . S
C709 C701 1.433 . S
C709 N711 1.384 . S
N710 C706 1.427 . S
N710 C707 1.384 1_455 S
N711 C703 1.427 . S
N711 C709 1.384 . S
H712 C718 0.930 . S
H713 C722 0.930 . S
H714 C727 0.929 . S
H715 C725 0.933 . S
H716 C720 0.929 . S
H717 C726 0.929 . S
C718 H712 0.930 . S
C718 C719 1.367 . S
C718 C726 1.378 . S
C719 C718 1.367 . S
C719 C727 1.433 . S
C720 H716 0.929 . S
C720 C722 1.378 1_545 S
C720 C724 1.350 . S
C721 C724 1.463 . S
C721 C726 1.350 . S
C721 N729 1.427 . S
C722 H713 0.930 . S
C722 C720 1.378 1_565 S
C722 C723 1.367 . S
C723 C722 1.367 . S
C723 C725 1.445 . S
C724 C720 1.350 . S
C724 C721 1.463 . S
C724 N728 1.427 . S
C725 H715 0.933 . S
C725 C723 1.445 . S
C725 N728 1.369 1_565 S
C726 H717 0.929 . S
C726 C718 1.378 . S
C726 C721 1.350 . S
C727 H714 0.929 . S
C727 C719 1.433 . S
C727 N729 1.384 . S
N728 C724 1.427 . S
N728 C725 1.369 1_545 S
N729 C721 1.427 . S
N729 C727 1.384 . S
H730 C736 0.930 . S
H731 C740 0.930 . S
H732 C745 0.929 . S
H733 C743 0.929 . S
H734 C738 0.929 . S
H735 C744 0.929 . S
C736 H730 0.930 . S
C736 C737 1.367 . S
C736 C744 1.378 . S
C737 C736 1.367 . S
C737 C745 1.433 . S
C738 H734 0.929 . S
C738 C740 1.378 . S
C738 C742 1.350 . S
C739 C742 1.463 . S
C739 C744 1.350 . S
C739 N747 1.427 . S
C740 H731 0.930 . S
C740 C738 1.378 . S
C740 C741 1.367 . S
C741 C740 1.367 . S
C741 C743 1.433 . S
C742 C738 1.350 . S
C742 C739 1.463 . S
C742 N746 1.427 . S
C743 H733 0.929 . S
C743 C741 1.433 . S
C743 N746 1.384 . S
C744 H735 0.929 . S
C744 C736 1.378 . S
C744 C739 1.350 . S
C745 H732 0.929 . S
C745 C737 1.433 . S
C745 N747 1.384 . S
N746 C742 1.427 . S
N746 C743 1.384 . S
N747 C739 1.427 . S
N747 C745 1.384 . S
H748 C754 0.930 . S
H749 C758 0.930 . S
H750 C763 0.929 . S
H751 C761 0.929 . S
H752 C756 0.929 . S
H753 C762 0.929 . S
C754 H748 0.930 . S
C754 C755 1.367 . S
C754 C762 1.378 . S
C755 C754 1.367 . S
C755 C763 1.433 . S
C756 H752 0.929 . S
C756 C758 1.378 1_565 S
C756 C760 1.350 . S
C757 C760 1.463 . S
C757 C762 1.350 . S
C757 N765 1.427 . S
C758 H749 0.930 . S
C758 C756 1.378 1_545 S
C758 C759 1.367 . S
C759 C758 1.367 . S
C759 C761 1.433 . S
C760 C756 1.350 . S
C760 C757 1.463 . S
C760 N764 1.427 . S
C761 H751 0.929 . S
C761 C759 1.433 . S
C761 N764 1.384 1_545 S
C762 H753 0.929 . S
C762 C754 1.378 . S
C762 C757 1.350 . S
C763 H750 0.929 . S
C763 C755 1.433 . S
C763 N765 1.384 . S
N764 C760 1.427 . S
N764 C761 1.384 1_565 S
N765 C757 1.427 . S
N765 C763 1.384 . S
H766 C772 0.930 . S
H767 C776 0.930 . S
H768 C781 0.929 . S
H769 C779 0.929 . S
H770 C774 0.929 . S
H771 C780 0.929 . S
C772 H766 0.930 . S
C772 C773 1.367 . S
C772 C780 1.378 . S
C773 C772 1.367 . S
C773 C781 1.433 . S
C774 H770 0.929 . S
C774 C776 1.378 . S
C774 C778 1.350 . S
C775 C778 1.463 . S
C775 C780 1.350 . S
C775 N783 1.427 . S
C776 H767 0.930 . S
C776 C774 1.378 . S
C776 C777 1.367 . S
C777 C776 1.367 . S
C777 C779 1.433 . S
C778 C774 1.350 . S
C778 C775 1.463 . S
C778 N782 1.427 . S
C779 H769 0.929 . S
C779 C777 1.433 . S
C779 N782 1.384 . S
C780 H771 0.929 . S
C780 C772 1.378 . S
C780 C775 1.350 . S
C781 H768 0.929 . S
C781 C773 1.433 . S
C781 N783 1.384 . S
N782 C778 1.427 . S
N782 C779 1.384 . S
N783 C775 1.427 . S
N783 C781 1.384 . S
H784 C790 0.930 . S
H785 C794 0.930 . S
H786 C799 0.929 . S
H787 C797 0.929 . S
H788 C792 0.929 . S
H789 C798 0.929 . S
C790 H784 0.930 . S
C790 C791 1.367 . S
C790 C798 1.378 . S
C791 C790 1.367 . S
C791 C799 1.433 . S
C792 H788 0.929 . S
C792 C794 1.378 . S
C792 C796 1.350 . S
C793 C796 1.463 . S
C793 C798 1.350 . S
C793 N801 1.427 . S
C794 H785 0.930 . S
C794 C792 1.378 . S
C794 C795 1.367 . S
C795 C794 1.367 . S
C795 C797 1.433 . S
C796 C792 1.350 . S
C796 C793 1.463 . S
C796 N800 1.427 . S
C797 H787 0.929 . S
C797 C795 1.433 . S
C797 N800 1.384 . S
C798 H789 0.929 . S
C798 C790 1.378 . S
C798 C793 1.350 . S
C799 H786 0.929 . S
C799 C791 1.433 . S
C799 N801 1.384 . S
N800 C796 1.427 . S
N800 C797 1.384 . S
N801 C793 1.427 . S
N801 C799 1.384 . S
H802 C808 0.930 . S
H803 C812 0.930 . S
H804 C817 0.929 . S
H805 C815 0.929 . S
H806 C810 0.929 . S
H807 C816 0.929 . S
C808 H802 0.930 . S
C808 C809 1.367 . S
C808 C816 1.378 . S
C809 C808 1.367 . S
C809 C817 1.433 . S
C810 H806 0.929 . S
C810 C812 1.378 . S
C810 C814 1.350 . S
C811 C814 1.463 . S
C811 C816 1.350 . S
C811 N819 1.427 . S
C812 H803 0.930 . S
C812 C810 1.378 . S
C812 C813 1.367 1_455 S
C813 C812 1.367 1_655 S
C813 C815 1.433 . S
C814 C810 1.350 . S
C814 C811 1.463 . S
C814 N818 1.427 1_455 S
C815 H805 0.929 . S
C815 C813 1.433 . S
C815 N818 1.384 . S
C816 H807 0.929 . S
C816 C808 1.378 . S
C816 C811 1.350 . S
C817 H804 0.929 . S
C817 C809 1.433 . S
C817 N819 1.384 . S
N818 C814 1.427 1_655 S
N818 C815 1.384 . S
N819 C811 1.427 . S
N819 C817 1.384 . S
H820 C826 0.930 . S
H821 C830 0.930 . S
H822 C835 0.929 . S
H823 C833 0.929 . S
H824 C828 0.929 . S
H825 C834 0.929 . S
C826 H820 0.930 . S
C826 C827 1.367 . S
C826 C834 1.378 . S
C827 C826 1.367 . S
C827 C835 1.433 . S
C828 H824 0.929 . S
C828 C830 1.378 . S
C828 C832 1.350 . S
C829 C832 1.463 . S
C829 C834 1.350 . S
C829 N837 1.427 . S
C830 H821 0.930 . S
C830 C828 1.378 . S
C830 C831 1.367 . S
C831 C830 1.367 . S
C831 C833 1.433 . S
C832 C828 1.350 . S
C832 C829 1.463 . S
C832 N836 1.427 . S
C833 H823 0.929 . S
C833 C831 1.433 . S
C833 N836 1.384 . S
C834 H825 0.929 . S
C834 C826 1.378 . S
C834 C829 1.350 . S
C835 H822 0.929 . S
C835 C827 1.433 . S
C835 N837 1.384 . S
N836 C832 1.427 . S
N836 C833 1.384 . S
N837 C829 1.427 . S
N837 C835 1.384 . S
H838 C844 0.930 . S
H839 C848 0.930 . S
H840 C853 0.929 . S
H841 C851 0.929 . S
H842 C846 0.927 1_455 S
H843 C852 0.929 . S
C844 H838 0.930 . S
C844 C845 1.367 . S
C844 C852 1.378 . S
C845 C844 1.367 . S
C845 C853 1.433 . S
C846 H842 0.927 1_655 S
C846 C848 1.361 1_655 S
C846 C850 1.369 . S
C847 C850 1.463 . S
C847 C852 1.350 . S
C847 N855 1.427 . S
C848 H839 0.930 . S
C848 C846 1.361 1_455 S
C848 C849 1.367 . S
C849 C848 1.367 . S
C849 C851 1.433 1_455 S
C850 C846 1.369 . S
C850 C847 1.463 . S
C850 N854 1.427 . S
C851 H841 0.929 . S
C851 C849 1.433 1_655 S
C851 N854 1.384 . S
C852 H843 0.929 . S
C852 C844 1.378 . S
C852 C847 1.350 . S
C853 H840 0.929 . S
C853 C845 1.433 . S
C853 N855 1.384 . S
N854 C850 1.427 . S
N854 C851 1.384 . S
N855 C847 1.427 . S
N855 C853 1.384 . S
H856 C862 0.930 . S
H857 C866 0.930 . S
H858 C871 0.929 . S
H859 C869 0.929 . S
H860 C864 0.929 . S
H861 C870 0.929 . S
C862 H856 0.930 . S
C862 C863 1.367 . S
C862 C870 1.378 . S
C863 C862 1.367 . S
C863 C871 1.433 . S
C864 H860 0.929 . S
C864 C866 1.378 . S
C864 C868 1.350 . S
C865 C868 1.463 . S
C865 C870 1.350 . S
C865 N873 1.427 . S
C866 H857 0.930 . S
C866 C864 1.378 . S
C866 C867 1.367 . S
C867 C866 1.367 . S
C867 C869 1.433 . S
C868 C864 1.350 . S
C868 C865 1.463 . S
C868 N872 1.427 . S
C869 H859 0.929 . S
C869 C867 1.433 . S
C869 N872 1.384 . S
C870 H861 0.929 . S
C870 C862 1.378 . S
C870 C865 1.350 . S
C871 H858 0.929 . S
C871 C863 1.433 . S
C871 N873 1.384 . S
N872 C868 1.427 . S
N872 C869 1.384 . S
N873 C865 1.427 . S
N873 C871 1.384 . S
H874 C880 0.930 . S
H875 C884 0.930 . S
H876 C889 0.929 . S
H877 C887 0.929 . S
H878 C882 0.929 . S
H879 C888 0.929 . S
C880 H874 0.930 . S
C880 C881 1.367 . S
C880 C888 1.378 . S
C881 C880 1.367 . S
C881 C889 1.433 . S
C882 H878 0.929 . S
C882 C884 1.378 . S
C882 C886 1.350 . S
C883 C886 1.463 . S
C883 C888 1.350 . S
C883 N891 1.427 . S
C884 H875 0.930 . S
C884 C882 1.378 . S
C884 C885 1.367 . S
C885 C884 1.367 . S
C885 C887 1.433 . S
C886 C882 1.350 . S
C886 C883 1.463 . S
C886 N890 1.427 . S
C887 H877 0.929 . S
C887 C885 1.433 . S
C887 N890 1.384 . S
C888 H879 0.929 . S
C888 C880 1.378 . S
C888 C883 1.350 . S
C889 H876 0.929 . S
C889 C881 1.433 . S
C889 N891 1.384 . S
N890 C886 1.427 . S
N890 C887 1.384 . S
N891 C883 1.427 . S
N891 C889 1.384 . S
H892 C898 0.930 . S
H893 C902 0.930 . S
H894 C907 0.929 . S
H895 C905 0.929 . S
H896 C900 0.929 . S
H897 C906 0.929 . S
C898 H892 0.930 . S
C898 C899 1.367 . S
C898 C906 1.378 . S
C899 C898 1.367 . S
C899 C907 1.433 . S
C900 H896 0.929 . S
C900 C902 1.378 . S
C900 C904 1.350 . S
C901 C904 1.463 . S
C901 C906 1.350 . S
C901 N909 1.427 . S
C902 H893 0.930 . S
C902 C900 1.378 . S
C902 C903 1.367 . S
C903 C902 1.367 . S
C903 C905 1.433 . S
C904 C900 1.350 . S
C904 C901 1.463 . S
C904 N908 1.427 . S
C905 H895 0.929 . S
C905 C903 1.433 . S
C905 N908 1.384 . S
C906 H897 0.929 . S
C906 C898 1.378 . S
C906 C901 1.350 . S
C907 H894 0.929 . S
C907 C899 1.433 . S
C907 N909 1.384 . S
N908 C904 1.427 . S
N908 C905 1.384 . S
N909 C901 1.427 . S
N909 C907 1.384 . S
H910 C916 0.930 . S
H911 C920 0.930 . S
H912 C925 0.929 . S
H913 C923 0.929 . S
H914 C918 0.929 . S
H915 C924 0.929 . S
C916 H910 0.930 . S
C916 C917 1.367 . S
C916 C924 1.378 . S
C917 C916 1.367 . S
C917 C925 1.433 . S
C918 H914 0.929 . S
C918 C920 1.378 . S
C918 C922 1.350 . S
C919 C922 1.463 . S
C919 C924 1.350 . S
C919 N927 1.427 . S
C920 H911 0.930 . S
C920 C918 1.378 . S
C920 C921 1.367 . S
C921 C920 1.367 . S
C921 C923 1.433 . S
C922 C918 1.350 . S
C922 C919 1.463 . S
C922 N926 1.427 . S
C923 H913 0.929 . S
C923 C921 1.433 . S
C923 N926 1.384 . S
C924 H915 0.929 . S
C924 C916 1.378 . S
C924 C919 1.350 . S
C925 H912 0.929 . S
C925 C917 1.433 . S
C925 N927 1.384 . S
N926 C922 1.427 . S
N926 C923 1.384 . S
N927 C919 1.427 . S
N927 C925 1.384 . S
H928 C934 0.930 . S
H929 C938 0.930 . S
H930 C943 0.929 . S
H931 C941 0.929 . S
H932 C936 0.929 . S
H933 C942 0.929 . S
C934 H928 0.930 . S
C934 C935 1.367 . S
C934 C942 1.378 . S
C935 C934 1.367 . S
C935 C943 1.433 . S
C936 H932 0.929 . S
C936 C938 1.378 . S
C936 C940 1.350 . S
C937 C940 1.463 . S
C937 C942 1.350 . S
C937 N945 1.427 . S
C938 H929 0.930 . S
C938 C936 1.378 . S
C938 C939 1.367 . S
C939 C938 1.367 . S
C939 C941 1.433 . S
C940 C936 1.350 . S
C940 C937 1.463 . S
C940 N944 1.427 . S
C941 H931 0.929 . S
C941 C939 1.433 . S
C941 N944 1.384 . S
C942 H933 0.929 . S
C942 C934 1.378 . S
C942 C937 1.350 . S
C943 H930 0.929 . S
C943 C935 1.433 . S
C943 N945 1.384 . S
N944 C940 1.427 . S
N944 C941 1.384 . S
N945 C937 1.427 . S
N945 C943 1.384 . S
H946 C952 0.930 . S
H947 C956 0.930 . S
H948 C961 0.929 . S
H949 C959 0.929 . S
H950 C954 0.929 . S
H951 C960 0.929 . S
C952 H946 0.930 . S
C952 C953 1.367 . S
C952 C960 1.378 . S
C953 C952 1.367 . S
C953 C961 1.433 . S
C954 H950 0.929 . S
C954 C956 1.378 . S
C954 C958 1.350 . S
C955 C958 1.463 . S
C955 C960 1.350 . S
C955 N963 1.427 . S
C956 H947 0.930 . S
C956 C954 1.378 . S
C956 C957 1.367 . S
C957 C956 1.367 . S
C957 C959 1.433 . S
C958 C954 1.350 . S
C958 C955 1.463 . S
C958 N962 1.427 . S
C959 H949 0.929 . S
C959 C957 1.433 . S
C959 N962 1.384 . S
C960 H951 0.929 . S
C960 C952 1.378 . S
C960 C955 1.350 . S
C961 H948 0.929 . S
C961 C953 1.433 . S
C961 N963 1.384 . S
N962 C958 1.427 . S
N962 C959 1.384 . S
N963 C955 1.427 . S
N963 C961 1.384 . S
H964 C970 0.930 . S
H965 C974 0.930 . S
H966 C979 0.929 . S
H967 C977 0.929 . S
H968 C972 0.929 . S
H969 C978 0.929 . S
C970 H964 0.930 . S
C970 C971 1.367 . S
C970 C978 1.378 . S
C971 C970 1.367 . S
C971 C979 1.433 . S
C972 H968 0.929 . S
C972 C974 1.378 . S
C972 C976 1.350 . S
C973 C976 1.463 . S
C973 C978 1.350 . S
C973 N981 1.427 . S
C974 H965 0.930 . S
C974 C972 1.378 . S
C974 C975 1.367 . S
C975 C974 1.367 . S
C975 C977 1.433 . S
C976 C972 1.350 . S
C976 C973 1.463 . S
C976 N980 1.427 . S
C977 H967 0.929 . S
C977 C975 1.433 . S
C977 N980 1.384 . S
C978 H969 0.929 . S
C978 C970 1.378 . S
C978 C973 1.350 . S
C979 H966 0.929 . S
C979 C971 1.433 . S
C979 N981 1.384 . S
N980 C976 1.427 . S
N980 C977 1.384 . S
N981 C973 1.427 . S
N981 C979 1.384 . S
H982 C988 0.930 . S
H983 C992 0.930 . S
H984 C997 0.929 . S
H985 C995 0.929 . S
H986 C990 0.929 . S
H987 C996 0.929 . S
C988 H982 0.930 . S
C988 C989 1.367 . S
C988 C996 1.378 . S
C989 C988 1.367 . S
C989 C997 1.433 . S
C990 H986 0.929 . S
C990 C992 1.378 . S
C990 C994 1.350 . S
C991 C994 1.463 . S
C991 C996 1.350 . S
C991 N999 1.427 . S
C992 H983 0.930 . S
C992 C990 1.378 . S
C992 C993 1.367 . S
C993 C992 1.367 . S
C993 C995 1.433 . S
C994 C990 1.350 . S
C994 C991 1.463 . S
C994 N998 1.427 . S
C995 H985 0.929 . S
C995 C993 1.433 . S
C995 N998 1.384 . S
C996 H987 0.929 . S
C996 C988 1.378 . S
C996 C991 1.350 . S
C997 H984 0.929 . S
C997 C989 1.433 . S
C997 N999 1.384 . S
N998 C994 1.427 . S
N998 C995 1.384 . S
N999 C991 1.427 . S
N999 C997 1.384 . S
C575 C8 1.354 . S
C579 C89 1.238 . S
C593 C31 1.356 . S
C597 C168 1.359 . S
C611 C53 1.347 . S
C615 C239 1.363 . S
C633 C299 1.358 . S
C629 C74 1.357 . S
C651 C329 1.260 . S
C647 C26 1.346 . S
C665 C48 1.347 . S
C669 C419 1.368 . S
C683 C71 1.357 . S
C687 C479 1.357 . S
C701 C5 1.351 . S
C705 C528 1.364 . S
C719 C50 1.353 . S
C723 C509 1.259 . S
C741 C348 1.357 . S
C737 C70 1.354 . S
C759 C408 1.242 . S
C755 C4 1.358 . S
C773 C28 1.347 . S
C777 C468 1.266 . S
C795 C149 1.257 . S
C791 C73 1.347 . S
C809 C7 1.346 . S
C813 C228 1.263 . S
C831 C288 1.255 . S
C827 C30 1.354 . S
C849 C108 1.359 . S
C845 C52 1.353 . S
C867 C449 1.019 . S
C863 C9 1.026 . S
C885 C539 1.027 . S
C881 C29 1.030 . S
C899 C51 1.029 . S
C903 C359 1.019 . S
C921 C389 1.019 . S
C917 C75 1.033 . S
C939 C209 1.027 . S
C935 C27 1.034 . S
C953 C49 1.031 . S
C957 C269 1.032 . S
C975 C119 1.008 . S
C971 C72 1.034 . S
C993 C179 1.027 . S
C989 C6 1.034 . S
