# Generated by pormake.
# Topology pto, (3,4)-cn, num edge types: 1
# Building blocks:
#     Node 0, Type 0, BuildingBlock: PAMTOO_clean_linker_0, # of connection points: 3
#     Node 1, Type 0, BuildingBlock: PAMTOO_clean_linker_0, # of connection points: 3
#     Node 2, Type 0, BuildingBlock: PAMTOO_clean_linker_0, # of connection points: 3
#     Node 3, Type 0, BuildingBlock: PAMTOO_clean_linker_0, # of connection points: 3
#     Node 4, Type 0, BuildingBlock: PAMTOO_clean_linker_0, # of connection points: 3
#     Node 5, Type 0, BuildingBlock: PAMTOO_clean_linker_0, # of connection points: 3
#     Node 6, Type 0, BuildingBlock: PAMTOO_clean_linker_0, # of connection points: 3
#     Node 7, Type 0, BuildingBlock: PAMTOO_clean_linker_0, # of connection points: 3
#     Node 8, Type 1, BuildingBlock: NAWXER_clean_sbu_0, # of connection points: 4
#     Node 9, Type 1, BuildingBlock: NAWXER_clean_sbu_0, # of connection points: 4
#     Node 10, Type 1, BuildingBlock: NAWXER_clean_sbu_0, # of connection points: 4
#     Node 11, Type 1, BuildingBlock: NAWXER_clean_sbu_0, # of connection points: 4
#     Node 12, Type 1, BuildingBlock: NAWXER_clean_sbu_0, # of connection points: 4
#     Node 13, Type 1, BuildingBlock: NAWXER_clean_sbu_0, # of connection points: 4
#     Edge 14, Type (0, 1), BuildingBlock: EZIPEK_clean_linker_0, # of connection points: 2
#     Edge 15, Type (0, 1), BuildingBlock: EZIPEK_clean_linker_0, # of connection points: 2
#     Edge 16, Type (0, 1), BuildingBlock: EZIPEK_clean_linker_0, # of connection points: 2
#     Edge 17, Type (0, 1), BuildingBlock: EZIPEK_clean_linker_0, # of connection points: 2
#     Edge 18, Type (0, 1), BuildingBlock: EZIPEK_clean_linker_0, # of connection points: 2
#     Edge 19, Type (0, 1), BuildingBlock: EZIPEK_clean_linker_0, # of connection points: 2
#     Edge 20, Type (0, 1), BuildingBlock: EZIPEK_clean_linker_0, # of connection points: 2
#     Edge 21, Type (0, 1), BuildingBlock: EZIPEK_clean_linker_0, # of connection points: 2
#     Edge 22, Type (0, 1), BuildingBlock: EZIPEK_clean_linker_0, # of connection points: 2
#     Edge 23, Type (0, 1), BuildingBlock: EZIPEK_clean_linker_0, # of connection points: 2
#     Edge 24, Type (0, 1), BuildingBlock: EZIPEK_clean_linker_0, # of connection points: 2
#     Edge 25, Type (0, 1), BuildingBlock: EZIPEK_clean_linker_0, # of connection points: 2
#     Edge 26, Type (0, 1), BuildingBlock: EZIPEK_clean_linker_0, # of connection points: 2
#     Edge 27, Type (0, 1), BuildingBlock: EZIPEK_clean_linker_0, # of connection points: 2
#     Edge 28, Type (0, 1), BuildingBlock: EZIPEK_clean_linker_0, # of connection points: 2
#     Edge 29, Type (0, 1), BuildingBlock: EZIPEK_clean_linker_0, # of connection points: 2
#     Edge 30, Type (0, 1), BuildingBlock: EZIPEK_clean_linker_0, # of connection points: 2
#     Edge 31, Type (0, 1), BuildingBlock: EZIPEK_clean_linker_0, # of connection points: 2
#     Edge 32, Type (0, 1), BuildingBlock: EZIPEK_clean_linker_0, # of connection points: 2
#     Edge 33, Type (0, 1), BuildingBlock: EZIPEK_clean_linker_0, # of connection points: 2
#     Edge 34, Type (0, 1), BuildingBlock: EZIPEK_clean_linker_0, # of connection points: 2
#     Edge 35, Type (0, 1), BuildingBlock: EZIPEK_clean_linker_0, # of connection points: 2
#     Edge 36, Type (0, 1), BuildingBlock: EZIPEK_clean_linker_0, # of connection points: 2
#     Edge 37, Type (0, 1), BuildingBlock: EZIPEK_clean_linker_0, # of connection points: 2
# Relax obj value: 0.018
# Max RMSD: 0.149
# Mean RMSD: 0.063
data_MOF--net-pto--node1-NAWXER_clean_sbu_0--node2-PAMTOO_clean_linker_0--edge1-EZIPEK_clean_linker_0
_symmetry_space_group_name_H-M    P1
_symmetry_Int_Tables_number       1
_symmetry_cell_setting            triclinic
loop_
_symmetry_equiv_pos_as_xyz
'x, y, z'
_cell_length_a     31.233869
_cell_length_b     28.019883
_cell_length_c     27.166856
_cell_angle_alpha  81.631087
_cell_angle_beta   83.540487
_cell_angle_gamma 100.08615
loop_
_atom_site_label
_atom_site_type_symbol
_atom_site_fract_x
_atom_site_fract_y
_atom_site_fract_z
_atom_type_partial_charge
H0 H 0.19127 0.31035 0.39487 0.0
H1 H 0.32585 0.31468 0.33459 0.0
H2 H 0.25764 0.42365 0.27175 0.0
H3 H 0.31085 0.37839 0.1984 0.0
C4 C 0.33823 0.37443 0.22053 0.0
O5 O 0.33109 0.39188 0.265 0.0
H6 H 0.33759 0.33415 0.22834 0.0
C7 C 0.22024 0.32708 0.36802 0.0
C8 C 0.21992 0.36956 0.33315 0.0
C9 C 0.25872 0.30713 0.3687 0.0
C10 C 0.29625 0.32982 0.33442 0.0
C11 C 0.2955 0.37132 0.29922 0.0
C12 C 0.25759 0.3911 0.29878 0.0
H13 H 0.22831 0.80026 0.77276 0.0
H14 H 0.2819 0.7091 0.8825 0.0
H15 H 0.35539 0.8517 0.81362 0.0
H16 H 0.40525 0.766 0.83774 0.0
C17 C 0.38518 0.75036 0.87488 0.0
O18 O 0.35138 0.77504 0.88345 0.0
H19 H 0.3723 0.71161 0.87155 0.0
C20 C 0.25453 0.79412 0.79443 0.0
C21 C 0.29309 0.83033 0.7876 0.0
C22 C 0.25018 0.7496 0.82822 0.0
C23 C 0.28438 0.74288 0.85628 0.0
C24 C 0.32155 0.77996 0.85184 0.0
C25 C 0.32629 0.8233 0.81707 0.0
H26 H 0.68873 0.79557 0.3349 0.0
H27 H 0.76068 0.69721 0.26909 0.0
H28 H 0.81557 0.78004 0.37587 0.0
H29 H 0.87404 0.77592 0.27223 0.0
C30 C 0.86113 0.73621 0.27333 0.0
O31 O 0.82909 0.71773 0.31438 0.0
H32 H 0.84676 0.73601 0.23778 0.0
C33 C 0.71708 0.77813 0.33225 0.0
C34 C 0.75086 0.79034 0.36097 0.0
C35 C 0.72062 0.74469 0.29885 0.0
C36 C 0.75756 0.72267 0.29515 0.0
C37 C 0.79219 0.73629 0.32179 0.0
C38 C 0.78872 0.76975 0.3551 0.0
H39 H 0.77548 0.35446 0.87481 0.0
H40 H 0.70285 0.26861 0.78147 0.0
H41 H 0.84289 0.28122 0.77063 0.0
H42 H 0.71826 0.18128 0.77332 0.0
C43 C 0.75352 0.1869 0.7574 0.0
O44 O 0.77027 0.2366 0.74154 0.0
H45 H 0.76924 0.17247 0.78962 0.0
C46 C 0.77448 0.33046 0.84685 0.0
C47 C 0.81401 0.32161 0.82345 0.0
C48 C 0.73413 0.31191 0.83188 0.0
C49 C 0.7336 0.28255 0.79411 0.0
C50 C 0.77226 0.26881 0.77439 0.0
C51 C 0.81269 0.28911 0.7884 0.0
H52 H 0.76532 0.85881 0.81826 0.0
H53 H 0.79659 0.74348 0.92324 0.0
H54 H 0.87143 0.78675 0.77597 0.0
H55 H 0.82419 0.67327 0.83394 0.0
C56 C 0.85396 0.68062 0.85253 0.0
O57 O 0.86244 0.72841 0.86161 0.0
H58 H 0.84515 0.65534 0.88919 0.0
C59 C 0.78556 0.83202 0.82769 0.0
C60 C 0.81965 0.82649 0.79186 0.0
C61 C 0.77704 0.80222 0.87533 0.0
C62 C 0.80297 0.76694 0.88676 0.0
C63 C 0.83678 0.76137 0.85067 0.0
C64 C 0.84516 0.79123 0.80356 0.0
H65 H 0.85515 0.28171 0.35582 0.0
H66 H 0.74515 0.21762 0.28972 0.0
H67 H 0.78308 0.37483 0.27174 0.0
H68 H 0.69205 0.33787 0.28273 0.0
C69 C 0.68862 0.30502 0.26423 0.0
O70 O 0.73067 0.30175 0.24493 0.0
H71 H 0.67374 0.27249 0.29354 0.0
C72 C 0.82955 0.28632 0.33266 0.0
C73 C 0.82325 0.33367 0.31459 0.0
C74 C 0.80054 0.24471 0.32562 0.0
C75 C 0.76768 0.24983 0.29525 0.0
C76 C 0.76226 0.29683 0.27455 0.0
C77 C 0.78898 0.33867 0.28569 0.0
H78 H 0.18665 0.29708 0.73802 0.0
H79 H 0.24228 0.36758 0.85329 0.0
H80 H 0.28033 0.23486 0.81852 0.0
H81 H 0.27785 0.24011 0.91863 0.0
C82 C 0.29159 0.27957 0.91803 0.0
O83 O 0.29658 0.30607 0.86999 0.0
H84 H 0.26616 0.2914 0.94286 0.0
C85 C 0.20814 0.29798 0.76673 0.0
C86 C 0.23242 0.26082 0.7755 0.0
C87 C 0.21055 0.33573 0.79546 0.0
C88 C 0.2394 0.33781 0.83176 0.0
C89 C 0.26519 0.30172 0.83943 0.0
C90 C 0.2607 0.26282 0.81221 0.0
H91 H 0.1899 0.79313 0.44192 0.0
H92 H 0.28276 0.73849 0.34655 0.0
H93 H 0.31764 0.88239 0.38546 0.0
H94 H 0.33182 0.85721 0.26769 0.0
C95 C 0.34731 0.82584 0.2807 0.0
O96 O 0.34431 0.81837 0.33263 0.0
H97 H 0.3273 0.79366 0.2689 0.0
C98 C 0.22236 0.7977 0.42072 0.0
C99 C 0.25299 0.84113 0.41831 0.0
C100 C 0.23278 0.76085 0.39466 0.0
C101 C 0.27484 0.76677 0.3673 0.0
C102 C 0.30517 0.81117 0.36268 0.0
C103 C 0.29416 0.84835 0.38837 0.0
C104 C 0.95916 0.4827 0.35892 0.0
C105 C 0.08672 0.6084 0.3756 0.0
O106 O 0.96727 0.49634 0.40028 0.0
Zn107 Zn 0.02205 0.54331 0.37331 0.0
O108 O 0.98617 0.50076 0.31882 0.0
Zn109 Zn 0.04432 0.55376 0.2927 0.0
O110 O 0.08473 0.51358 0.26872 0.0
O111 O 0.06706 0.49829 0.35152 0.0
O112 O 0.08511 0.59724 0.3319 0.0
O113 O 0.05657 0.5868 0.41155 0.0
O114 O 0.99433 0.59485 0.32992 0.0
O115 O 0.02248 0.60554 0.25034 0.0
C116 C 0.08867 0.4904 0.31149 0.0
C117 C 0.99655 0.61651 0.28481 0.0
C118 C 0.97206 0.45225 0.84898 0.0
C119 C 0.09951 0.58801 0.84347 0.0
O120 O 0.98718 0.46432 0.88812 0.0
Zn121 Zn 0.03593 0.51742 0.85312 0.0
O122 O 0.99059 0.47471 0.8054 0.0
Zn123 Zn 0.04356 0.53139 0.77024 0.0
O124 O 0.08155 0.49535 0.7344 0.0
O125 O 0.0782 0.47793 0.81719 0.0
O126 O 0.09054 0.57616 0.8017 0.0
O127 O 0.07575 0.56392 0.8837 0.0
O128 O 1.0004 0.56751 0.82216 0.0
O129 O 0.01191 0.58137 0.73938 0.0
C130 C 0.09323 0.47224 0.7731 0.0
C131 C 0.99314 0.58986 0.78054 0.0
C132 C 0.29464 1.00194 0.63961 0.0
C133 C 0.27668 0.13507 0.50646 0.0
O134 O 0.25502 0.00542 0.63518 0.0
Zn135 Zn 0.21913 0.04859 0.5919 0.0
O136 O 0.32604 0.03206 0.61097 0.0
Zn137 Zn 0.28983 0.06934 0.57072 0.0
O138 O 0.26254 0.10858 0.62278 0.0
O139 O 0.19233 0.07802 0.64555 0.0
O140 O 0.31317 0.12347 0.51508 0.0
O141 O 0.24062 0.11012 0.53186 0.0
O142 O 0.18692 0.99841 0.55963 0.0
O143 O 0.25865 0.0141 0.53464 0.0
C144 C 0.2264 0.10877 0.64978 0.0
C145 C 0.22027 0.98997 0.53322 0.0
C146 C 0.59531 0.73507 0.15993 0.0
C147 C 0.49957 0.75455 0.03062 0.0
O148 O 0.56952 0.70021 0.14679 0.0
Zn149 Zn 0.54649 0.74187 0.09637 0.0
O150 O 0.59713 0.77963 0.13946 0.0
Zn151 Zn 0.56783 0.8204 0.085 0.0
O152 O 0.53722 0.85865 0.1269 0.0
O153 O 0.50744 0.77964 0.14167 0.0
O154 O 0.51943 0.79534 0.04038 0.0
O155 O 0.50596 0.71425 0.05415 0.0
O156 O 0.6038 0.76914 0.04248 0.0
O157 O 0.61872 0.84997 0.03353 0.0
C158 C 0.50719 0.82337 0.15048 0.0
C159 C 0.62782 0.81034 0.02114 0.0
C160 C 0.82848 0.95086 0.60394 0.0
C161 C 0.81115 0.07477 0.46689 0.0
O162 O 0.78835 0.95311 0.60032 0.0
Zn163 Zn 0.75155 0.99273 0.55385 0.0
O164 O 0.85921 0.97771 0.57179 0.0
Zn165 Zn 0.82166 0.01183 0.53346 0.0
O166 O 0.7946 0.05177 0.58736 0.0
O167 O 0.72259 0.02621 0.60237 0.0
O168 O 0.8472 0.06381 0.47765 0.0
O169 O 0.77459 0.05133 0.49228 0.0
O170 O 0.7187 0.94163 0.52322 0.0
O171 O 0.78995 0.95618 0.49656 0.0
C172 C 0.75704 0.05408 0.61041 0.0
C173 C 0.75111 0.93256 0.49582 0.0
C174 C 0.57918 0.31964 0.10318 0.0
C175 C 0.45582 0.29988 1.00476 0.0
O176 O 0.55056 0.28089 0.10428 0.0
Zn177 Zn 0.51932 0.30673 0.05202 0.0
O178 O 0.57829 0.35835 0.07193 0.0
Zn179 Zn 0.53747 0.38222 0.01724 0.0
O180 O 0.51397 0.43295 0.04767 0.0
O181 O 0.48983 0.35718 0.08907 0.0
O182 O 0.47894 0.34347 0.99618 0.0
O183 O 0.46788 0.26607 0.03333 0.0
O184 O 0.56817 0.32106 0.98747 0.0
O185 O 0.57681 0.39915 0.95419 0.0
C186 C 0.48965 0.40327 0.08417 0.0
C187 C 0.58709 0.35736 0.95316 0.0
C188 C 0.1497 0.3842 0.30136 0.0
C189 C 0.1818 0.39482 0.33336 0.0
C190 C 0.15538 0.46993 0.34635 0.0
C191 C 0.1214 0.45796 0.31692 0.0
N192 N 0.08138 0.39962 0.27344 0.0
N193 N 0.20964 0.44169 0.39446 0.0
C194 C 0.11717 0.41389 0.29631 0.0
C195 C 0.18263 0.43566 0.35865 0.0
N196 N 0.1511 0.34654 0.2748 0.0
N197 N 0.16334 0.51536 0.36013 0.0
H198 H 0.23043 0.4175 0.40399 0.0
H199 H 0.20845 0.4678 0.41796 0.0
H200 H 0.14562 0.54251 0.3498 0.0
H201 H 0.19035 0.52809 0.37717 0.0
H202 H 0.13209 0.34043 0.24637 0.0
H203 H 0.1732 0.32283 0.2794 0.0
H204 H 0.07397 0.36545 0.26231 0.0
H205 H 0.0571 0.42052 0.269 0.0
C206 C 0.19504 0.69416 0.79022 0.0
C207 C 0.21052 0.70939 0.83345 0.0
C208 C 0.15678 0.64077 0.88513 0.0
C209 C 0.13633 0.63127 0.84216 0.0
N210 N 0.12899 0.66832 0.75677 0.0
N211 N 0.19528 0.70502 0.92355 0.0
C212 C 0.15318 0.66366 0.79549 0.0
C213 C 0.18802 0.68524 0.8815 0.0
N214 N 0.22024 0.70735 0.74415 0.0
N215 N 0.14897 0.60724 0.92849 0.0
H216 H 0.21557 0.73912 0.92214 0.0
H217 H 0.17699 0.69025 0.95868 0.0
H218 H 0.13066 0.57187 0.93213 0.0
H219 H 0.16598 0.61242 0.95881 0.0
H220 H 0.21045 0.69377 0.71253 0.0
H221 H 0.25265 0.72647 0.73889 0.0
H222 H 0.14049 0.69374 0.72384 0.0
H223 H 0.09567 0.6535 0.75998 0.0
C224 C 0.93145 0.71762 0.30462 0.0
C225 C 0.89757 0.70646 0.27494 0.0
C226 C 0.93505 0.64469 0.24254 0.0
C227 C 0.96706 0.65264 0.27532 0.0
N228 N 0.99162 0.69288 0.34337 0.0
N229 N 0.86023 0.6476 0.22946 0.0
C230 C 0.96427 0.68831 0.30766 0.0
C231 C 0.89745 0.66684 0.24759 0.0
N232 N 0.93215 0.75583 0.33088 0.0
N233 N 0.93949 0.61506 0.20729 0.0
H234 H 0.83059 0.65943 0.23581 0.0
H235 H 0.85696 0.61554 0.21384 0.0
H236 H 0.96496 0.59592 0.20318 0.0
H237 H 0.91963 0.6128 0.17902 0.0
H238 H 0.95974 0.77129 0.34553 0.0
H239 H 0.90587 0.77358 0.33693 0.0
H240 H 0.98675 0.71218 0.37284 0.0
H241 H 0.01773 0.67481 0.34622 0.0
C242 C 0.86279 0.40427 0.81206 0.0
C243 C 0.85592 0.35311 0.83054 0.0
C244 C 0.92538 0.36624 0.86602 0.0
C245 C 0.92961 0.4178 0.85136 0.0
N246 N 0.89606 0.48599 0.82271 0.0
N247 N 0.87726 0.2857 0.88133 0.0
C248 C 0.8962 0.43674 0.82833 0.0
C249 C 0.88624 0.33407 0.85945 0.0
N250 N 0.83853 0.42175 0.77717 0.0
N251 N 0.95928 0.34798 0.88432 0.0
H252 H 0.84937 0.26126 0.87645 0.0
H253 H 0.89578 0.27071 0.90691 0.0
H254 H 0.98771 0.37064 0.8906 0.0
H255 H 0.96032 0.31067 0.89034 0.0
H256 H 0.84495 0.4582 0.75902 0.0
H257 H 0.81527 0.39877 0.76215 0.0
H258 H 0.8704 0.50137 0.81008 0.0
H259 H 0.91917 0.51058 0.83618 0.0
C260 C 0.25521 0.21577 0.38938 0.0
C261 C 0.26088 0.26244 0.40503 0.0
C262 C 0.28259 0.22641 0.48438 0.0
C263 C 0.27487 0.17932 0.46973 0.0
N264 N 0.25021 0.12746 0.41117 0.0
N265 N 0.27535 0.31219 0.4687 0.0
C266 C 0.26013 0.17356 0.42298 0.0
C267 C 0.27329 0.26772 0.45297 0.0
N268 N 0.24612 0.21214 0.34181 0.0
N269 N 0.29922 0.23156 0.52824 0.0
H270 H 0.26974 0.34336 0.44627 0.0
H271 H 0.27968 0.31783 0.50496 0.0
H272 H 0.30512 0.202 0.55287 0.0
H273 H 0.3099 0.26524 0.53907 0.0
H274 H 0.24665 0.18079 0.32559 0.0
H275 H 0.24006 0.24162 0.31717 0.0
H276 H 0.23426 0.11946 0.38087 0.0
H277 H 0.25621 0.0963 0.43329 0.0
C278 C 0.40055 0.71944 0.96336 0.0
C279 C 0.41265 0.75341 0.91743 0.0
C280 C 0.48086 0.78876 0.94598 0.0
C281 C 0.46905 0.75509 0.99222 0.0
N282 N 0.4111 0.6999 0.0505 0.0
N283 N 0.45447 0.83283 0.87621 0.0
C284 C 0.42708 0.7234 1.00249 0.0
C285 C 0.44974 0.79192 0.91214 0.0
N286 N 0.36335 0.68389 0.97022 0.0
N287 N 0.52215 0.81684 0.93292 0.0
H288 H 0.43108 0.83847 0.8526 0.0
H289 H 0.47877 0.86401 0.8742 0.0
H290 H 0.54661 0.81739 0.95582 0.0
H291 H 0.53344 0.8368 0.89693 0.0
H292 H 0.35661 0.65386 0.99935 0.0
H293 H 0.33966 0.68327 0.9461 0.0
H294 H 0.37907 0.6803 0.06136 0.0
H295 H 0.428 0.70451 0.08097 0.0
C296 C 0.7306 0.81051 0.44693 0.0
C297 C 0.74755 0.82686 0.39532 0.0
C298 C 0.757 0.91264 0.40878 0.0
C299 C 0.74503 0.89611 0.46129 0.0
N300 N 0.72428 0.82946 0.53156 0.0
N301 N 0.78039 0.89285 0.32718 0.0
C302 C 0.7324 0.84506 0.48072 0.0
C303 C 0.76156 0.87782 0.3762 0.0
N304 N 0.7123 0.76199 0.46346 0.0
N305 N 0.76279 0.96171 0.38998 0.0
H306 H 0.78321 0.86858 0.30182 0.0
H307 H 0.79599 0.92887 0.31239 0.0
H308 H 0.75895 0.98808 0.41272 0.0
H309 H 0.76739 0.97594 0.35177 0.0
H310 H 0.69511 0.74849 0.49931 0.0
H311 H 0.71135 0.73556 0.44001 0.0
H312 H 0.72021 0.79281 0.54834 0.0
H313 H 0.72454 0.85357 0.55742 0.0
C314 C 0.65617 0.28787 0.87822 0.0
C315 C 0.69301 0.32482 0.85546 0.0
C316 C 0.66008 0.38561 0.89472 0.0
C317 C 0.62152 0.34941 0.91403 0.0
N318 N 0.57797 0.27152 0.90509 0.0
N319 N 0.72059 0.41171 0.82698 0.0
C320 C 0.61791 0.30227 0.89953 0.0
C321 C 0.69177 0.37471 0.85859 0.0
N322 N 0.65809 0.23915 0.88255 0.0
N323 N 0.66871 0.42875 0.91285 0.0
H324 H 0.74257 0.4049 0.79822 0.0
H325 H 0.71874 0.44867 0.82562 0.0
H326 H 0.64917 0.43743 0.94253 0.0
H327 H 0.6985 0.45359 0.90222 0.0
H328 H 0.63283 0.21156 0.90283 0.0
H329 H 0.6864 0.22651 0.87105 0.0
H330 H 0.57372 0.23814 0.89182 0.0
H331 H 0.54869 0.28234 0.91675 0.0
C332 C 0.28042 0.91651 0.76499 0.0
C333 C 0.29803 0.8765 0.75054 0.0
C334 C 0.31836 0.92104 0.66363 0.0
C335 C 0.30187 0.96176 0.67835 0.0
N336 N 0.27326 1.00158 0.74415 0.0
N337 N 0.34022 0.84305 0.68897 0.0
C338 C 0.28481 0.9604 0.72948 0.0
C339 C 0.31922 0.87967 0.70074 0.0
N340 N 0.25821 0.91188 0.81235 0.0
N341 N 0.33048 0.92045 0.61379 0.0
H342 H 0.34012 0.81144 0.71459 0.0
H343 H 0.36039 0.84552 0.65511 0.0
H344 H 0.33066 0.94999 0.58553 0.0
H345 H 0.33736 0.88949 0.5999 0.0
H346 H 0.23974 0.93691 0.8236 0.0
H347 H 0.25593 0.8812 0.84005 0.0
H348 H 0.26532 0.00534 0.78144 0.0
H349 H 0.27478 0.03377 0.71899 0.0
C350 C 0.64483 0.71038 0.28073 0.0
C351 C 0.68829 0.73685 0.26327 0.0
C352 C 0.67215 0.74484 0.17681 0.0
C353 C 0.62717 0.72597 0.19486 0.0
N354 N 0.56943 0.69203 0.26404 0.0
N355 N 0.74154 0.78618 0.19522 0.0
C356 C 0.61311 0.70843 0.24684 0.0
C357 C 0.70163 0.75567 0.21136 0.0
N358 N 0.63417 0.68654 0.32934 0.0
N359 N 0.68665 0.75204 0.12641 0.0
H360 H 0.7638 0.79667 0.21937 0.0
H361 H 0.7508 0.80504 0.15852 0.0
H362 H 0.66583 0.74304 0.10028 0.0
H363 H 0.71976 0.76166 0.11127 0.0
H364 H 0.60432 0.66276 0.34306 0.0
H365 H 0.65664 0.68743 0.35502 0.0
H366 H 0.55649 0.68454 0.30199 0.0
H367 H 0.54567 0.68833 0.24006 0.0
C368 C 0.72773 0.15753 0.67838 0.0
C369 C 0.75781 0.15789 0.71416 0.0
C370 C 0.78341 0.08796 0.68456 0.0
C371 C 0.75514 0.08869 0.64715 0.0
N372 N 0.70742 0.13148 0.60127 0.0
N373 N 0.82537 0.13581 0.73622 0.0
C374 C 0.72913 0.1255 0.64202 0.0
C375 C 0.78918 0.12701 0.71253 0.0
N376 N 0.69761 0.18747 0.67925 0.0
N377 N 0.8033 0.04873 0.69523 0.0
H378 H 0.83274 0.16655 0.75351 0.0
H379 H 0.85086 0.11643 0.73277 0.0
H380 H 0.79796 0.01794 0.67767 0.0
H381 H 0.8208 0.04436 0.72553 0.0
H382 H 0.6712 0.18419 0.65893 0.0
H383 H 0.69786 0.21446 0.70194 0.0
H384 H 0.69204 0.16108 0.59237 0.0
H385 H 0.70799 0.10928 0.57366 0.0
C386 C 0.42159 0.38682 0.20683 0.0
C387 C 0.38263 0.39982 0.19136 0.0
C388 C 0.42231 0.43737 0.10804 0.0
C389 C 0.45957 0.4191 0.12182 0.0
N390 N 0.50065 0.39625 0.18768 0.0
N391 N 0.35235 0.45739 0.13724 0.0
C392 C 0.46114 0.40096 0.17277 0.0
C393 C 0.38514 0.43199 0.14521 0.0
N394 N 0.4204 0.35872 0.25267 0.0
N395 N 0.42112 0.45657 0.05919 0.0
H396 H 0.32628 0.45635 0.16526 0.0
H397 H 0.35389 0.48383 0.10554 0.0
H398 H 0.44824 0.46264 0.03139 0.0
H399 H 0.39263 0.46438 0.04598 0.0
H400 H 0.44649 0.34289 0.26318 0.0
H401 H 0.39261 0.34937 0.27971 0.0
H402 H 0.50514 0.38653 0.22496 0.0
H403 H 0.52959 0.40746 0.16247 0.0
C404 C 0.93369 0.6703 0.84727 0.0
C405 C 0.89485 0.66878 0.82437 0.0
C406 C 0.92589 0.6252 0.76093 0.0
C407 C 0.96441 0.62678 0.78422 0.0
N408 N 0.01118 0.66869 0.83569 0.0
N409 N 0.8637 0.66381 0.7471 0.0
C410 C 0.97039 0.65586 0.82241 0.0
C411 C 0.89396 0.65245 0.77711 0.0
N412 N 0.9352 0.68282 0.89395 0.0
N413 N 0.91832 0.59594 0.72561 0.0
H414 H 0.84264 0.68753 0.75521 0.0
H415 H 0.86379 0.65529 0.711 0.0
H416 H 0.94096 0.57602 0.7122 0.0
H417 H 0.88826 0.58916 0.71213 0.0
H418 H 0.9612 0.67879 0.91413 0.0
H419 H 0.90931 0.69321 0.91468 0.0
H420 H 0.0182 0.69332 0.86032 0.0
H421 H 0.03874 0.65882 0.8177 0.0
C422 C 0.85955 0.37613 0.37945 0.0
C423 C 0.85188 0.37688 0.32862 0.0
C424 C 0.9005 0.45713 0.30736 0.0
C425 C 0.91758 0.44935 0.35365 0.0
N426 N 0.91432 0.39568 0.43319 0.0
N427 N 0.87338 0.41667 0.2417 0.0
C428 C 0.89713 0.40754 0.39005 0.0
C429 C 0.87432 0.41719 0.29174 0.0
N430 N 0.83072 0.34609 0.41758 0.0
N431 N 0.90838 0.50282 0.27873 0.0
H432 H 0.85792 0.38647 0.22774 0.0
H433 H 0.89245 0.44428 0.21399 0.0
H434 H 0.92398 0.53389 0.29131 0.0
H435 H 0.89413 0.51038 0.24625 0.0
H436 H 0.83336 0.34694 0.45537 0.0
H437 H 0.80152 0.32489 0.41132 0.0
H438 H 0.90235 0.36273 0.458 0.0
H439 H 0.9428 0.41588 0.44203 0.0
C440 C 0.13541 0.35577 0.80553 0.0
C441 C 0.18098 0.37156 0.788 0.0
C442 C 0.16861 0.45344 0.75421 0.0
C443 C 0.12282 0.43667 0.7696 0.0
N444 N 0.06156 0.36973 0.79966 0.0
N445 N 0.24025 0.43193 0.73775 0.0
C446 C 0.10595 0.38703 0.79199 0.0
C447 C 0.19741 0.41942 0.75989 0.0
N448 N 0.1205 0.3116 0.83674 0.0
N449 N 0.18474 0.50223 0.73642 0.0
H450 H 0.2624 0.40823 0.74184 0.0
H451 H 0.25299 0.46426 0.71239 0.0
H452 H 0.16455 0.52788 0.73057 0.0
H453 H 0.2181 0.5178 0.73035 0.0
H454 H 0.08838 0.30033 0.85499 0.0
H455 H 0.14117 0.28791 0.84813 0.0
H456 H 0.04717 0.33279 0.81149 0.0
H457 H 0.03918 0.39171 0.78942 0.0
C458 C 0.18369 0.67822 0.4277 0.0
C459 C 0.19698 0.72026 0.38958 0.0
C460 C 0.13563 0.69162 0.34576 0.0
C461 C 0.12381 0.64742 0.38201 0.0
N462 N 0.14319 0.59431 0.45092 0.0
N463 N 0.19012 0.76412 0.30849 0.0
C464 C 0.14947 0.63957 0.42146 0.0
C465 C 0.17436 0.72595 0.34747 0.0
N466 N 0.2036 0.67538 0.47004 0.0
N467 N 0.10906 0.7023 0.31061 0.0
H468 H 0.21663 0.79224 0.30918 0.0
H469 H 0.17902 0.76611 0.27364 0.0
H470 H 0.08159 0.67822 0.30484 0.0
H471 H 0.11235 0.73698 0.28903 0.0
H472 H 0.19203 0.64854 0.50176 0.0
H473 H 0.23005 0.70194 0.47474 0.0
H474 H 0.16394 0.58498 0.47662 0.0
H475 H 0.11993 0.56434 0.44634 0.0
C476 C 0.80816 0.83768 0.70159 0.0
C477 C 0.82792 0.85654 0.74106 0.0
C478 C 0.85817 0.93528 0.68576 0.0
C479 C 0.83727 0.91677 0.64673 0.0
N480 N 0.80382 0.84753 0.61216 0.0
N481 N 0.87985 0.91776 0.7686 0.0
C482 C 0.816 0.86686 0.65305 0.0
C483 C 0.85576 0.9036 0.73234 0.0
N484 N 0.78061 0.7927 0.71103 0.0
N485 N 0.87803 0.98371 0.67943 0.0
H486 H 0.8779 0.89587 0.80361 0.0
H487 H 0.9042 0.94934 0.76283 0.0
H488 H 0.88142 0.00786 0.64562 0.0
H489 H 0.88904 1.00091 0.70839 0.0
H490 H 0.76126 0.77936 0.68534 0.0
H491 H 0.77478 0.76974 0.74593 0.0
H492 H 0.7915 0.81036 0.61307 0.0
H493 H 0.81015 0.86816 0.57598 0.0
C494 C 0.63667 0.34737 0.21464 0.0
C495 C 0.65961 0.30804 0.22244 0.0
C496 C 0.63337 0.27867 0.1476 0.0
C497 C 0.61249 0.31972 0.13897 0.0
N498 N 0.61162 0.40309 0.15377 0.0
N499 N 0.671 0.22943 0.20299 0.0
C500 C 0.61946 0.35718 0.16899 0.0
C501 C 0.65573 0.27182 0.1905 0.0
N502 N 0.62761 0.37311 0.25234 0.0
N503 N 0.63446 0.24829 0.11254 0.0
H504 H 0.68591 0.22209 0.23493 0.0
H505 H 0.66545 0.19929 0.18468 0.0
H506 H 0.62103 0.25439 0.07925 0.0
H507 H 0.65244 0.22033 0.11331 0.0
H508 H 0.60749 0.39913 0.24943 0.0
H509 H 0.63376 0.36339 0.28898 0.0
H510 H 0.62055 0.43229 0.17274 0.0
H511 H 0.60176 0.41444 0.11949 0.0
C512 C 0.18874 0.19246 0.73946 0.0
C513 C 0.2298 0.221 0.74452 0.0
C514 C 0.26671 0.16769 0.69916 0.0
C515 C 0.22613 0.14531 0.68502 0.0
N516 N 0.1492 0.15025 0.68236 0.0
N517 N 0.30752 0.24428 0.71359 0.0
C518 C 0.18708 0.16131 0.70257 0.0
C519 C 0.26871 0.21139 0.71949 0.0
N520 N 0.15148 0.19417 0.77011 0.0
N521 N 0.30308 0.1468 0.69589 0.0
H522 H 0.31004 0.27854 0.72492 0.0
H523 H 0.33584 0.2397 0.69196 0.0
H524 H 0.30311 0.11197 0.68708 0.0
H525 H 0.33179 0.16133 0.70921 0.0
H526 H 0.12155 0.17086 0.77001 0.0
H527 H 0.15165 0.21464 0.79924 0.0
H528 H 0.12146 0.16461 0.69238 0.0
H529 H 0.14699 0.13313 0.65102 0.0
C530 C 0.41671 0.7907 0.26183 0.0
C531 C 0.39464 0.83102 0.25545 0.0
C532 C 0.44928 0.87033 0.18208 0.0
C533 C 0.4721 0.83074 0.18945 0.0
N534 N 0.48632 0.76452 0.24893 0.0
N535 N 0.40238 0.91756 0.22266 0.0
C536 C 0.4586 0.79449 0.23341 0.0
C537 C 0.41495 0.87365 0.2199 0.0
N538 N 0.39739 0.74798 0.29347 0.0
N539 N 0.458 0.90315 0.13814 0.0
H540 H 0.38045 0.9226 0.25247 0.0
H541 H 0.41842 0.95025 0.19946 0.0
H542 H 0.48104 0.90116 0.10809 0.0
H543 H 0.43894 0.92949 0.12969 0.0
H544 H 0.4103 0.71601 0.29476 0.0
H545 H 0.367 0.74306 0.31562 0.0
H546 H 0.47942 0.7401 0.28291 0.0
H547 H 0.51841 0.76865 0.231 0.0
C548 C 0.8226 0.16219 0.34259 0.0
C549 C 0.79977 0.19782 0.35893 0.0
C550 C 0.7912 0.15635 0.44581 0.0
C551 C 0.81047 0.11821 0.42938 0.0
N552 N 0.83885 0.08039 0.36171 0.0
N553 N 0.75348 0.22289 0.42375 0.0
C554 C 0.82473 0.11982 0.37756 0.0
C555 C 0.78115 0.19287 0.40983 0.0
N556 N 0.84296 0.16947 0.29416 0.0
N557 N 0.78452 0.15912 0.49586 0.0
H558 H 0.74503 0.25013 0.3983 0.0
H559 H 0.73555 0.21758 0.4595 0.0
H560 H 0.7935 0.13433 0.52342 0.0
H561 H 0.77468 0.18894 0.50952 0.0
H562 H 0.86413 0.14764 0.28133 0.0
H563 H 0.84059 0.1993 0.26741 0.0
H564 H 0.84528 0.07725 0.32399 0.0
H565 H 0.84115 0.04906 0.38642 0.0
C566 C 0.36643 0.25495 0.92706 0.0
C567 C 0.33578 0.28563 0.93804 0.0
C568 C 0.38158 0.31961 0.99707 0.0
C569 C 0.41333 0.29127 0.98436 0.0
N570 N 0.43967 0.23751 0.93166 0.0
N571 N 0.32371 0.35925 0.96962 0.0
C572 C 0.40668 0.26017 0.948 0.0
C573 C 0.34619 0.32161 0.96888 0.0
N574 N 0.35736 0.22103 0.89639 0.0
N575 N 0.38436 0.34349 0.03735 0.0
H576 H 0.29976 0.36456 0.94668 0.0
H577 H 0.33275 0.38875 0.98812 0.0
H578 H 0.40882 0.34131 0.06024 0.0
H579 H 0.35969 0.36067 0.05132 0.0
H580 H 0.37483 0.19301 0.89283 0.0
H581 H 0.33148 0.21975 0.8753 0.0
H582 H 0.43935 0.21917 0.901 0.0
H583 H 0.46909 0.23986 0.9467 0.0
C584 C 0.2452 0.87191 0.50014 0.0
C585 C 0.24126 0.87845 0.44817 0.0
C586 C 0.21387 0.95462 0.45436 0.0
C587 C 0.21758 0.94773 0.50627 0.0
N588 N 0.22707 0.89567 0.58122 0.0
N589 N 0.21465 0.92017 0.37726 0.0
C590 C 0.23 0.9048 0.52998 0.0
C591 C 0.22329 0.91806 0.42568 0.0
N592 N 0.26497 0.8353 0.52049 0.0
N593 N 0.20278 0.99694 0.43238 0.0
H594 H 0.2221 0.89461 0.35491 0.0
H595 H 0.19756 0.94518 0.36021 0.0
H596 H 0.19312 0.02269 0.45324 0.0
H597 H 0.2047 0.00746 0.39372 0.0
H598 H 0.27331 0.83186 0.55669 0.0
H599 H 0.2762 0.81018 0.4999 0.0
H600 H 0.23205 0.86313 0.60156 0.0
H601 H 0.2156 0.91906 0.60394 0.0
C602 C 0.69715 0.77679 0.91058 0.0
C603 C 0.7389 0.80561 0.91201 0.0
C604 C 0.70884 0.83565 0.98662 0.0
C605 C 0.66602 0.8104 0.98254 0.0
N606 N 0.61867 0.76199 0.93563 0.0
N607 N 0.78379 0.86804 0.94619 0.0
C608 C 0.66001 0.78228 0.94318 0.0
C609 C 0.74447 0.83686 0.94839 0.0
N610 N 0.69312 0.74308 0.87881 0.0
N611 N 0.71621 0.85567 0.02862 0.0
H612 H 0.81092 0.86887 0.91965 0.0
H613 H 0.78846 0.89564 0.96803 0.0
H614 H 0.69165 0.85386 0.05855 0.0
H615 H 0.74746 0.86969 0.03623 0.0
H616 H 0.66497 0.71641 0.88056 0.0
H617 H 0.7191 0.7391 0.85301 0.0
H618 H 0.61196 0.74708 0.90374 0.0
H619 H 0.59037 0.76319 0.95906 0.0
loop_
_geom_bond_atom_site_label_1
_geom_bond_atom_site_label_2
_geom_bond_distance
_geom_bond_site_symmetry_2
_ccdc_geom_bond_type
H0 C7 0.929 . S
H1 C10 0.930 . S
H2 C12 0.929 . S
H3 C4 0.969 . S
C4 H3 0.969 . S
C4 O5 1.550 . S
C4 H6 0.973 . S
O5 C4 1.550 . S
O5 C11 1.412 . S
H6 C4 0.973 . S
C7 H0 0.929 . S
C7 C8 1.400 . S
C7 C9 1.364 . S
C8 C7 1.400 . S
C8 C12 1.377 . S
C9 C7 1.364 . S
C9 C10 1.374 . S
C10 H1 0.930 . S
C10 C9 1.374 . S
C10 C11 1.383 . S
C11 O5 1.412 . S
C11 C10 1.383 . S
C11 C12 1.394 . S
C12 H2 0.929 . S
C12 C8 1.377 . S
C12 C11 1.394 . S
H13 C20 0.929 . S
H14 C23 0.930 . S
H15 C25 0.929 . S
H16 C17 0.969 . S
C17 H16 0.969 . S
C17 O18 1.550 . S
C17 H19 0.973 . S
O18 C17 1.550 . S
O18 C24 1.412 . S
H19 C17 0.973 . S
C20 H13 0.929 . S
C20 C21 1.400 . S
C20 C22 1.364 . S
C21 C20 1.400 . S
C21 C25 1.377 . S
C22 C20 1.364 . S
C22 C23 1.374 . S
C23 H14 0.930 . S
C23 C22 1.374 . S
C23 C24 1.383 . S
C24 O18 1.412 . S
C24 C23 1.383 . S
C24 C25 1.394 . S
C25 H15 0.929 . S
C25 C21 1.377 . S
C25 C24 1.394 . S
H26 C33 0.929 . S
H27 C36 0.930 . S
H28 C38 0.929 . S
H29 C30 0.969 . S
C30 H29 0.969 . S
C30 O31 1.550 . S
C30 H32 0.973 . S
O31 C30 1.550 . S
O31 C37 1.412 . S
H32 C30 0.973 . S
C33 H26 0.929 . S
C33 C34 1.400 . S
C33 C35 1.364 . S
C34 C33 1.400 . S
C34 C38 1.377 . S
C35 C33 1.364 . S
C35 C36 1.374 . S
C36 H27 0.930 . S
C36 C35 1.374 . S
C36 C37 1.383 . S
C37 O31 1.412 . S
C37 C36 1.383 . S
C37 C38 1.394 . S
C38 H28 0.929 . S
C38 C34 1.377 . S
C38 C37 1.394 . S
H39 C46 0.929 . S
H40 C49 0.930 . S
H41 C51 0.929 . S
H42 C43 0.969 . S
C43 H42 0.969 . S
C43 O44 1.550 . S
C43 H45 0.973 . S
O44 C43 1.550 . S
O44 C50 1.412 . S
H45 C43 0.973 . S
C46 H39 0.929 . S
C46 C47 1.400 . S
C46 C48 1.364 . S
C47 C46 1.400 . S
C47 C51 1.377 . S
C48 C46 1.364 . S
C48 C49 1.374 . S
C49 H40 0.930 . S
C49 C48 1.374 . S
C49 C50 1.383 . S
C50 O44 1.412 . S
C50 C49 1.383 . S
C50 C51 1.394 . S
C51 H41 0.929 . S
C51 C47 1.377 . S
C51 C50 1.394 . S
H52 C59 0.929 . S
H53 C62 0.930 . S
H54 C64 0.929 . S
H55 C56 0.969 . S
C56 H55 0.969 . S
C56 O57 1.550 . S
C56 H58 0.973 . S
O57 C56 1.550 . S
O57 C63 1.412 . S
H58 C56 0.973 . S
C59 H52 0.929 . S
C59 C60 1.400 . S
C59 C61 1.364 . S
C60 C59 1.400 . S
C60 C64 1.377 . S
C61 C59 1.364 . S
C61 C62 1.374 . S
C62 H53 0.930 . S
C62 C61 1.374 . S
C62 C63 1.383 . S
C63 O57 1.412 . S
C63 C62 1.383 . S
C63 C64 1.394 . S
C64 H54 0.929 . S
C64 C60 1.377 . S
C64 C63 1.394 . S
H65 C72 0.929 . S
H66 C75 0.930 . S
H67 C77 0.929 . S
H68 C69 0.969 . S
C69 H68 0.969 . S
C69 O70 1.550 . S
C69 H71 0.973 . S
O70 C69 1.550 . S
O70 C76 1.412 . S
H71 C69 0.973 . S
C72 H65 0.929 . S
C72 C73 1.400 . S
C72 C74 1.364 . S
C73 C72 1.400 . S
C73 C77 1.377 . S
C74 C72 1.364 . S
C74 C75 1.374 . S
C75 H66 0.930 . S
C75 C74 1.374 . S
C75 C76 1.383 . S
C76 O70 1.412 . S
C76 C75 1.383 . S
C76 C77 1.394 . S
C77 H67 0.929 . S
C77 C73 1.377 . S
C77 C76 1.394 . S
H78 C85 0.929 . S
H79 C88 0.930 . S
H80 C90 0.929 . S
H81 C82 0.969 . S
C82 H81 0.969 . S
C82 O83 1.550 . S
C82 H84 0.973 . S
O83 C82 1.550 . S
O83 C89 1.412 . S
H84 C82 0.973 . S
C85 H78 0.929 . S
C85 C86 1.400 . S
C85 C87 1.364 . S
C86 C85 1.400 . S
C86 C90 1.377 . S
C87 C85 1.364 . S
C87 C88 1.374 . S
C88 H79 0.930 . S
C88 C87 1.374 . S
C88 C89 1.383 . S
C89 O83 1.412 . S
C89 C88 1.383 . S
C89 C90 1.394 . S
C90 H80 0.929 . S
C90 C86 1.377 . S
C90 C89 1.394 . S
H91 C98 0.929 . S
H92 C101 0.930 . S
H93 C103 0.929 . S
H94 C95 0.969 . S
C95 H94 0.969 . S
C95 O96 1.550 . S
C95 H97 0.973 . S
O96 C95 1.550 . S
O96 C102 1.412 . S
H97 C95 0.973 . S
C98 H91 0.929 . S
C98 C99 1.400 . S
C98 C100 1.364 . S
C99 C98 1.400 . S
C99 C103 1.377 . S
C100 C98 1.364 . S
C100 C101 1.374 . S
C101 H92 0.930 . S
C101 C100 1.374 . S
C101 C102 1.383 . S
C102 O96 1.412 . S
C102 C101 1.383 . S
C102 C103 1.394 . S
C103 H93 0.929 . S
C103 C99 1.377 . S
C103 C102 1.394 . S
C104 O106 1.247 . S
C104 O108 1.258 . S
C105 O112 1.247 . S
C105 O113 1.258 . S
O106 C104 1.247 . S
O106 Zn107 2.028 1_655 S
Zn107 O106 2.028 1_455 S
Zn107 O111 2.035 . S
Zn107 O113 2.035 . S
Zn107 O114 2.028 1_455 S
O108 C104 1.258 . S
O108 Zn109 2.035 1_655 S
Zn109 O108 2.035 1_455 S
Zn109 O110 2.028 . S
Zn109 O112 2.028 . S
Zn109 O115 2.035 1_455 S
O110 Zn109 2.028 . S
O110 C116 1.247 . S
O111 Zn107 2.035 . S
O111 C116 1.258 . S
O112 C105 1.247 . S
O112 Zn109 2.028 . S
O113 C105 1.258 . S
O113 Zn107 2.035 . S
O114 Zn107 2.028 1_655 S
O114 C117 1.247 . S
O115 Zn109 2.035 1_655 S
O115 C117 1.258 . S
C116 O110 1.247 . S
C116 O111 1.258 . S
C117 O114 1.247 . S
C117 O115 1.258 . S
C118 O120 1.247 . S
C118 O122 1.250 1_655 S
C119 O126 1.247 . S
C119 O127 1.258 . S
O120 C118 1.247 . S
O120 Zn121 2.028 1_655 S
Zn121 O120 2.028 1_455 S
Zn121 O125 2.035 . S
Zn121 O127 2.035 . S
Zn121 O128 2.028 1_455 S
O122 C118 1.250 1_455 S
O122 Zn123 2.050 . S
Zn123 O122 2.050 . S
Zn123 O124 2.028 . S
Zn123 O126 2.028 . S
Zn123 O129 2.035 . S
O124 Zn123 2.028 . S
O124 C130 1.247 . S
O125 Zn121 2.035 . S
O125 C130 1.258 . S
O126 C119 1.247 . S
O126 Zn123 2.028 . S
O127 C119 1.258 . S
O127 Zn121 2.035 . S
O128 Zn121 2.028 1_655 S
O128 C131 1.247 . S
O129 Zn123 2.035 . S
O129 C131 1.258 1_455 S
C130 O124 1.247 . S
C130 O125 1.258 . S
C131 O128 1.247 . S
C131 O129 1.258 1_655 S
C132 O134 1.247 . S
C132 O136 1.258 . S
C133 O140 1.247 . S
C133 O141 1.258 . S
O134 C132 1.247 . S
O134 Zn135 2.028 1_565 S
Zn135 O134 2.028 1_545 S
Zn135 O139 2.035 . S
Zn135 O141 2.035 . S
Zn135 O142 2.028 1_545 S
O136 C132 1.258 . S
O136 Zn137 2.035 1_565 S
Zn137 O136 2.035 1_545 S
Zn137 O138 2.028 . S
Zn137 O140 2.028 . S
Zn137 O143 2.035 1_545 S
O138 Zn137 2.028 . S
O138 C144 1.247 . S
O139 Zn135 2.035 . S
O139 C144 1.258 . S
O140 C133 1.247 . S
O140 Zn137 2.028 . S
O141 C133 1.258 . S
O141 Zn135 2.035 . S
O142 Zn135 2.028 1_565 S
O142 C145 1.247 . S
O143 Zn137 2.035 1_565 S
O143 C145 1.258 . S
C144 O138 1.247 . S
C144 O139 1.258 . S
C145 O142 1.247 . S
C145 O143 1.258 . S
C146 O148 1.247 . S
C146 O150 1.258 . S
C147 O154 1.247 . S
C147 O155 1.258 . S
O148 C146 1.247 . S
O148 Zn149 2.028 . S
Zn149 O148 2.028 . S
Zn149 O153 2.035 . S
Zn149 O155 2.035 . S
Zn149 O156 2.028 . S
O150 C146 1.258 . S
O150 Zn151 2.035 . S
Zn151 O150 2.035 . S
Zn151 O152 2.028 . S
Zn151 O154 2.028 . S
Zn151 O157 2.035 . S
O152 Zn151 2.028 . S
O152 C158 1.247 . S
O153 Zn149 2.035 . S
O153 C158 1.258 . S
O154 C147 1.247 . S
O154 Zn151 2.028 . S
O155 C147 1.258 . S
O155 Zn149 2.035 . S
O156 Zn149 2.028 . S
O156 C159 1.247 . S
O157 Zn151 2.035 . S
O157 C159 1.258 . S
C158 O152 1.247 . S
C158 O153 1.258 . S
C159 O156 1.247 . S
C159 O157 1.258 . S
C160 O162 1.247 . S
C160 O164 1.258 . S
C161 O168 1.247 . S
C161 O169 1.258 . S
O162 C160 1.247 . S
O162 Zn163 2.028 . S
Zn163 O162 2.028 . S
Zn163 O167 2.035 1_565 S
Zn163 O169 2.035 1_565 S
Zn163 O170 2.028 . S
O164 C160 1.258 . S
O164 Zn165 2.035 1_565 S
Zn165 O164 2.035 1_545 S
Zn165 O166 2.028 . S
Zn165 O168 2.028 . S
Zn165 O171 2.035 1_545 S
O166 Zn165 2.028 . S
O166 C172 1.247 . S
O167 Zn163 2.035 1_545 S
O167 C172 1.258 . S
O168 C161 1.247 . S
O168 Zn165 2.028 . S
O169 C161 1.258 . S
O169 Zn163 2.035 1_545 S
O170 Zn163 2.028 . S
O170 C173 1.247 . S
O171 Zn165 2.035 1_565 S
O171 C173 1.258 . S
C172 O166 1.247 . S
C172 O167 1.258 . S
C173 O170 1.247 . S
C173 O171 1.258 . S
C174 O176 1.247 . S
C174 O178 1.258 . S
C175 O182 1.247 . S
C175 O183 1.258 . S
O176 C174 1.247 . S
O176 Zn177 2.028 . S
Zn177 O176 2.028 . S
Zn177 O181 2.035 . S
Zn177 O183 2.035 1_554 S
Zn177 O184 2.028 1_554 S
O178 C174 1.258 . S
O178 Zn179 2.035 1_554 S
Zn179 O178 2.035 1_556 S
Zn179 O180 2.028 1_556 S
Zn179 O182 2.028 . S
Zn179 O185 2.035 . S
O180 Zn179 2.028 1_554 S
O180 C186 1.247 . S
O181 Zn177 2.035 . S
O181 C186 1.258 . S
O182 C175 1.247 . S
O182 Zn179 2.028 . S
O183 C175 1.258 . S
O183 Zn177 2.035 1_556 S
O184 Zn177 2.028 1_556 S
O184 C187 1.247 . S
O185 Zn179 2.035 . S
O185 C187 1.258 . S
C186 O180 1.247 . S
C186 O181 1.258 . S
C187 O184 1.247 . S
C187 O185 1.258 . S
C188 C189 1.363 . S
C188 C194 1.379 . S
C188 N196 1.356 . S
C189 C188 1.363 . S
C189 C195 1.363 . S
C190 C191 1.363 . S
C190 C195 1.379 . S
C190 N197 1.356 . S
C191 C190 1.363 . S
C191 C194 1.363 . S
N192 C194 1.356 . S
N192 H204 0.984 . S
N192 H205 0.985 . S
N193 C195 1.356 . S
N193 H198 0.984 . S
N193 H199 0.985 . S
C194 C188 1.379 . S
C194 C191 1.363 . S
C194 N192 1.356 . S
C195 C189 1.363 . S
C195 C190 1.379 . S
C195 N193 1.356 . S
N196 C188 1.356 . S
N196 H202 0.984 . S
N196 H203 0.984 . S
N197 C190 1.356 . S
N197 H200 0.984 . S
N197 H201 0.985 . S
H198 N193 0.984 . S
H199 N193 0.985 . S
H200 N197 0.984 . S
H201 N197 0.985 . S
H202 N196 0.984 . S
H203 N196 0.984 . S
H204 N192 0.984 . S
H205 N192 0.985 . S
C206 C207 1.363 . S
C206 C212 1.379 . S
C206 N214 1.356 . S
C207 C206 1.363 . S
C207 C213 1.363 . S
C208 C209 1.363 . S
C208 C213 1.379 . S
C208 N215 1.356 . S
C209 C208 1.363 . S
C209 C212 1.363 . S
N210 C212 1.356 . S
N210 H222 0.984 . S
N210 H223 0.985 . S
N211 C213 1.356 . S
N211 H216 0.984 . S
N211 H217 0.985 . S
C212 C206 1.379 . S
C212 C209 1.363 . S
C212 N210 1.356 . S
C213 C207 1.363 . S
C213 C208 1.379 . S
C213 N211 1.356 . S
N214 C206 1.356 . S
N214 H220 0.984 . S
N214 H221 0.984 . S
N215 C208 1.356 . S
N215 H218 0.984 . S
N215 H219 0.985 . S
H216 N211 0.984 . S
H217 N211 0.985 . S
H218 N215 0.984 . S
H219 N215 0.985 . S
H220 N214 0.984 . S
H221 N214 0.984 . S
H222 N210 0.984 . S
H223 N210 0.985 . S
C224 C225 1.363 . S
C224 C230 1.379 . S
C224 N232 1.356 . S
C225 C224 1.363 . S
C225 C231 1.363 . S
C226 C227 1.363 . S
C226 C231 1.379 . S
C226 N233 1.356 . S
C227 C226 1.363 . S
C227 C230 1.363 . S
N228 C230 1.356 . S
N228 H240 0.984 . S
N228 H241 0.985 . S
N229 C231 1.356 . S
N229 H234 0.984 . S
N229 H235 0.985 . S
C230 C224 1.379 . S
C230 C227 1.363 . S
C230 N228 1.356 . S
C231 C225 1.363 . S
C231 C226 1.379 . S
C231 N229 1.356 . S
N232 C224 1.356 . S
N232 H238 0.984 . S
N232 H239 0.984 . S
N233 C226 1.356 . S
N233 H236 0.984 . S
N233 H237 0.985 . S
H234 N229 0.984 . S
H235 N229 0.985 . S
H236 N233 0.984 . S
H237 N233 0.985 . S
H238 N232 0.984 . S
H239 N232 0.984 . S
H240 N228 0.984 . S
H241 N228 0.985 . S
C242 C243 1.363 . S
C242 C248 1.379 . S
C242 N250 1.356 . S
C243 C242 1.363 . S
C243 C249 1.363 . S
C244 C245 1.363 . S
C244 C249 1.379 . S
C244 N251 1.356 . S
C245 C244 1.363 . S
C245 C248 1.363 . S
N246 C248 1.356 . S
N246 H258 0.984 . S
N246 H259 0.985 . S
N247 C249 1.356 . S
N247 H252 0.984 . S
N247 H253 0.985 . S
C248 C242 1.379 . S
C248 C245 1.363 . S
C248 N246 1.356 . S
C249 C243 1.363 . S
C249 C244 1.379 . S
C249 N247 1.356 . S
N250 C242 1.356 . S
N250 H256 0.984 . S
N250 H257 0.984 . S
N251 C244 1.356 . S
N251 H254 0.984 . S
N251 H255 0.985 . S
H252 N247 0.984 . S
H253 N247 0.985 . S
H254 N251 0.984 . S
H255 N251 0.985 . S
H256 N250 0.984 . S
H257 N250 0.984 . S
H258 N246 0.984 . S
H259 N246 0.985 . S
C260 C261 1.363 . S
C260 C266 1.379 . S
C260 N268 1.356 . S
C261 C260 1.363 . S
C261 C267 1.363 . S
C262 C263 1.363 . S
C262 C267 1.379 . S
C262 N269 1.356 . S
C263 C262 1.363 . S
C263 C266 1.363 . S
N264 C266 1.356 . S
N264 H276 0.984 . S
N264 H277 0.985 . S
N265 C267 1.356 . S
N265 H270 0.984 . S
N265 H271 0.985 . S
C266 C260 1.379 . S
C266 C263 1.363 . S
C266 N264 1.356 . S
C267 C261 1.363 . S
C267 C262 1.379 . S
C267 N265 1.356 . S
N268 C260 1.356 . S
N268 H274 0.984 . S
N268 H275 0.984 . S
N269 C262 1.356 . S
N269 H272 0.984 . S
N269 H273 0.985 . S
H270 N265 0.984 . S
H271 N265 0.985 . S
H272 N269 0.984 . S
H273 N269 0.985 . S
H274 N268 0.984 . S
H275 N268 0.984 . S
H276 N264 0.984 . S
H277 N264 0.985 . S
C278 C279 1.363 . S
C278 C284 1.379 1_556 S
C278 N286 1.356 . S
C279 C278 1.363 . S
C279 C285 1.363 . S
C280 C281 1.363 . S
C280 C285 1.379 . S
C280 N287 1.356 . S
C281 C280 1.363 . S
C281 C284 1.363 1_556 S
N282 C284 1.356 . S
N282 H294 0.984 . S
N282 H295 0.985 . S
N283 C285 1.356 . S
N283 H288 0.984 . S
N283 H289 0.985 . S
C284 C278 1.379 1_554 S
C284 C281 1.363 1_554 S
C284 N282 1.356 . S
C285 C279 1.363 . S
C285 C280 1.379 . S
C285 N283 1.356 . S
N286 C278 1.356 . S
N286 H292 0.984 1_556 S
N286 H293 0.984 . S
N287 C280 1.356 . S
N287 H290 0.984 . S
N287 H291 0.985 . S
H288 N283 0.984 . S
H289 N283 0.985 . S
H290 N287 0.984 . S
H291 N287 0.985 . S
H292 N286 0.984 1_554 S
H293 N286 0.984 . S
H294 N282 0.984 . S
H295 N282 0.985 . S
C296 C297 1.363 . S
C296 C302 1.379 . S
C296 N304 1.356 . S
C297 C296 1.363 . S
C297 C303 1.363 . S
C298 C299 1.363 . S
C298 C303 1.379 . S
C298 N305 1.356 . S
C299 C298 1.363 . S
C299 C302 1.363 . S
N300 C302 1.356 . S
N300 H312 0.984 . S
N300 H313 0.985 . S
N301 C303 1.356 . S
N301 H306 0.984 . S
N301 H307 0.985 . S
C302 C296 1.379 . S
C302 C299 1.363 . S
C302 N300 1.356 . S
C303 C297 1.363 . S
C303 C298 1.379 . S
C303 N301 1.356 . S
N304 C296 1.356 . S
N304 H310 0.984 . S
N304 H311 0.984 . S
N305 C298 1.356 . S
N305 H308 0.984 . S
N305 H309 0.985 . S
H306 N301 0.984 . S
H307 N301 0.985 . S
H308 N305 0.984 . S
H309 N305 0.985 . S
H310 N304 0.984 . S
H311 N304 0.984 . S
H312 N300 0.984 . S
H313 N300 0.985 . S
C314 C315 1.363 . S
C314 C320 1.379 . S
C314 N322 1.356 . S
C315 C314 1.363 . S
C315 C321 1.363 . S
C316 C317 1.363 . S
C316 C321 1.379 . S
C316 N323 1.356 . S
C317 C316 1.363 . S
C317 C320 1.363 . S
N318 C320 1.356 . S
N318 H330 0.984 . S
N318 H331 0.985 . S
N319 C321 1.356 . S
N319 H324 0.984 . S
N319 H325 0.985 . S
C320 C314 1.379 . S
C320 C317 1.363 . S
C320 N318 1.356 . S
C321 C315 1.363 . S
C321 C316 1.379 . S
C321 N319 1.356 . S
N322 C314 1.356 . S
N322 H328 0.984 . S
N322 H329 0.984 . S
N323 C316 1.356 . S
N323 H326 0.984 . S
N323 H327 0.985 . S
H324 N319 0.984 . S
H325 N319 0.985 . S
H326 N323 0.984 . S
H327 N323 0.985 . S
H328 N322 0.984 . S
H329 N322 0.984 . S
H330 N318 0.984 . S
H331 N318 0.985 . S
C332 C333 1.363 . S
C332 C338 1.379 . S
C332 N340 1.356 . S
C333 C332 1.363 . S
C333 C339 1.363 . S
C334 C335 1.363 . S
C334 C339 1.379 . S
C334 N341 1.356 . S
C335 C334 1.363 . S
C335 C338 1.363 . S
N336 C338 1.356 . S
N336 H348 0.984 . S
N336 H349 0.985 . S
N337 C339 1.356 . S
N337 H342 0.984 . S
N337 H343 0.985 . S
C338 C332 1.379 . S
C338 C335 1.363 . S
C338 N336 1.356 . S
C339 C333 1.363 . S
C339 C334 1.379 . S
C339 N337 1.356 . S
N340 C332 1.356 . S
N340 H346 0.984 . S
N340 H347 0.984 . S
N341 C334 1.356 . S
N341 H344 0.984 . S
N341 H345 0.985 . S
H342 N337 0.984 . S
H343 N337 0.985 . S
H344 N341 0.984 . S
H345 N341 0.985 . S
H346 N340 0.984 . S
H347 N340 0.984 . S
H348 N336 0.984 . S
H349 N336 0.985 . S
C350 C351 1.363 . S
C350 C356 1.379 . S
C350 N358 1.356 . S
C351 C350 1.363 . S
C351 C357 1.363 . S
C352 C353 1.363 . S
C352 C357 1.379 . S
C352 N359 1.356 . S
C353 C352 1.363 . S
C353 C356 1.363 . S
N354 C356 1.356 . S
N354 H366 0.984 . S
N354 H367 0.985 . S
N355 C357 1.356 . S
N355 H360 0.984 . S
N355 H361 0.985 . S
C356 C350 1.379 . S
C356 C353 1.363 . S
C356 N354 1.356 . S
C357 C351 1.363 . S
C357 C352 1.379 . S
C357 N355 1.356 . S
N358 C350 1.356 . S
N358 H364 0.984 . S
N358 H365 0.984 . S
N359 C352 1.356 . S
N359 H362 0.984 . S
N359 H363 0.985 . S
H360 N355 0.984 . S
H361 N355 0.985 . S
H362 N359 0.984 . S
H363 N359 0.985 . S
H364 N358 0.984 . S
H365 N358 0.984 . S
H366 N354 0.984 . S
H367 N354 0.985 . S
C368 C369 1.363 . S
C368 C374 1.379 . S
C368 N376 1.356 . S
C369 C368 1.363 . S
C369 C375 1.363 . S
C370 C371 1.363 . S
C370 C375 1.379 . S
C370 N377 1.356 . S
C371 C370 1.363 . S
C371 C374 1.363 . S
N372 C374 1.356 . S
N372 H384 0.984 . S
N372 H385 0.985 . S
N373 C375 1.356 . S
N373 H378 0.984 . S
N373 H379 0.985 . S
C374 C368 1.379 . S
C374 C371 1.363 . S
C374 N372 1.356 . S
C375 C369 1.363 . S
C375 C370 1.379 . S
C375 N373 1.356 . S
N376 C368 1.356 . S
N376 H382 0.984 . S
N376 H383 0.984 . S
N377 C370 1.356 . S
N377 H380 0.984 . S
N377 H381 0.985 . S
H378 N373 0.984 . S
H379 N373 0.985 . S
H380 N377 0.984 . S
H381 N377 0.985 . S
H382 N376 0.984 . S
H383 N376 0.984 . S
H384 N372 0.984 . S
H385 N372 0.985 . S
C386 C387 1.363 . S
C386 C392 1.379 . S
C386 N394 1.356 . S
C387 C386 1.363 . S
C387 C393 1.363 . S
C388 C389 1.363 . S
C388 C393 1.379 . S
C388 N395 1.356 . S
C389 C388 1.363 . S
C389 C392 1.363 . S
N390 C392 1.356 . S
N390 H402 0.984 . S
N390 H403 0.985 . S
N391 C393 1.356 . S
N391 H396 0.984 . S
N391 H397 0.985 . S
C392 C386 1.379 . S
C392 C389 1.363 . S
C392 N390 1.356 . S
C393 C387 1.363 . S
C393 C388 1.379 . S
C393 N391 1.356 . S
N394 C386 1.356 . S
N394 H400 0.984 . S
N394 H401 0.984 . S
N395 C388 1.356 . S
N395 H398 0.984 . S
N395 H399 0.985 . S
H396 N391 0.984 . S
H397 N391 0.985 . S
H398 N395 0.984 . S
H399 N395 0.985 . S
H400 N394 0.984 . S
H401 N394 0.984 . S
H402 N390 0.984 . S
H403 N390 0.985 . S
C404 C405 1.363 . S
C404 C410 1.379 . S
C404 N412 1.356 . S
C405 C404 1.363 . S
C405 C411 1.363 . S
C406 C407 1.363 . S
C406 C411 1.379 . S
C406 N413 1.356 . S
C407 C406 1.363 . S
C407 C410 1.363 . S
N408 C410 1.356 . S
N408 H420 0.984 . S
N408 H421 0.985 . S
N409 C411 1.356 . S
N409 H414 0.984 . S
N409 H415 0.985 . S
C410 C404 1.379 . S
C410 C407 1.363 . S
C410 N408 1.356 . S
C411 C405 1.363 . S
C411 C406 1.379 . S
C411 N409 1.356 . S
N412 C404 1.356 . S
N412 H418 0.984 . S
N412 H419 0.984 . S
N413 C406 1.356 . S
N413 H416 0.984 . S
N413 H417 0.985 . S
H414 N409 0.984 . S
H415 N409 0.985 . S
H416 N413 0.984 . S
H417 N413 0.985 . S
H418 N412 0.984 . S
H419 N412 0.984 . S
H420 N408 0.984 . S
H421 N408 0.985 . S
C422 C423 1.363 . S
C422 C428 1.379 . S
C422 N430 1.356 . S
C423 C422 1.363 . S
C423 C429 1.363 . S
C424 C425 1.363 . S
C424 C429 1.379 . S
C424 N431 1.356 . S
C425 C424 1.363 . S
C425 C428 1.363 . S
N426 C428 1.356 . S
N426 H438 0.984 . S
N426 H439 0.985 . S
N427 C429 1.356 . S
N427 H432 0.984 . S
N427 H433 0.985 . S
C428 C422 1.379 . S
C428 C425 1.363 . S
C428 N426 1.356 . S
C429 C423 1.363 . S
C429 C424 1.379 . S
C429 N427 1.356 . S
N430 C422 1.356 . S
N430 H436 0.984 . S
N430 H437 0.984 . S
N431 C424 1.356 . S
N431 H434 0.984 . S
N431 H435 0.985 . S
H432 N427 0.984 . S
H433 N427 0.985 . S
H434 N431 0.984 . S
H435 N431 0.985 . S
H436 N430 0.984 . S
H437 N430 0.984 . S
H438 N426 0.984 . S
H439 N426 0.985 . S
C440 C441 1.363 . S
C440 C446 1.379 . S
C440 N448 1.356 . S
C441 C440 1.363 . S
C441 C447 1.363 . S
C442 C443 1.363 . S
C442 C447 1.379 . S
C442 N449 1.356 . S
C443 C442 1.363 . S
C443 C446 1.363 . S
N444 C446 1.356 . S
N444 H456 0.984 . S
N444 H457 0.985 . S
N445 C447 1.356 . S
N445 H450 0.984 . S
N445 H451 0.985 . S
C446 C440 1.379 . S
C446 C443 1.363 . S
C446 N444 1.356 . S
C447 C441 1.363 . S
C447 C442 1.379 . S
C447 N445 1.356 . S
N448 C440 1.356 . S
N448 H454 0.984 . S
N448 H455 0.984 . S
N449 C442 1.356 . S
N449 H452 0.984 . S
N449 H453 0.985 . S
H450 N445 0.984 . S
H451 N445 0.985 . S
H452 N449 0.984 . S
H453 N449 0.985 . S
H454 N448 0.984 . S
H455 N448 0.984 . S
H456 N444 0.984 . S
H457 N444 0.985 . S
C458 C459 1.363 . S
C458 C464 1.379 . S
C458 N466 1.356 . S
C459 C458 1.363 . S
C459 C465 1.363 . S
C460 C461 1.363 . S
C460 C465 1.379 . S
C460 N467 1.356 . S
C461 C460 1.363 . S
C461 C464 1.363 . S
N462 C464 1.356 . S
N462 H474 0.984 . S
N462 H475 0.985 . S
N463 C465 1.356 . S
N463 H468 0.984 . S
N463 H469 0.985 . S
C464 C458 1.379 . S
C464 C461 1.363 . S
C464 N462 1.356 . S
C465 C459 1.363 . S
C465 C460 1.379 . S
C465 N463 1.356 . S
N466 C458 1.356 . S
N466 H472 0.984 . S
N466 H473 0.984 . S
N467 C460 1.356 . S
N467 H470 0.984 . S
N467 H471 0.985 . S
H468 N463 0.984 . S
H469 N463 0.985 . S
H470 N467 0.984 . S
H471 N467 0.985 . S
H472 N466 0.984 . S
H473 N466 0.984 . S
H474 N462 0.984 . S
H475 N462 0.985 . S
C476 C477 1.363 . S
C476 C482 1.379 . S
C476 N484 1.356 . S
C477 C476 1.363 . S
C477 C483 1.363 . S
C478 C479 1.363 . S
C478 C483 1.379 . S
C478 N485 1.356 . S
C479 C478 1.363 . S
C479 C482 1.363 . S
N480 C482 1.356 . S
N480 H492 0.984 . S
N480 H493 0.985 . S
N481 C483 1.356 . S
N481 H486 0.984 . S
N481 H487 0.985 . S
C482 C476 1.379 . S
C482 C479 1.363 . S
C482 N480 1.356 . S
C483 C477 1.363 . S
C483 C478 1.379 . S
C483 N481 1.356 . S
N484 C476 1.356 . S
N484 H490 0.984 . S
N484 H491 0.984 . S
N485 C478 1.356 . S
N485 H488 0.984 . S
N485 H489 0.985 . S
H486 N481 0.984 . S
H487 N481 0.985 . S
H488 N485 0.984 . S
H489 N485 0.985 . S
H490 N484 0.984 . S
H491 N484 0.984 . S
H492 N480 0.984 . S
H493 N480 0.985 . S
C494 C495 1.363 . S
C494 C500 1.379 . S
C494 N502 1.356 . S
C495 C494 1.363 . S
C495 C501 1.363 . S
C496 C497 1.363 . S
C496 C501 1.379 . S
C496 N503 1.356 . S
C497 C496 1.363 . S
C497 C500 1.363 . S
N498 C500 1.356 . S
N498 H510 0.984 . S
N498 H511 0.985 . S
N499 C501 1.356 . S
N499 H504 0.984 . S
N499 H505 0.985 . S
C500 C494 1.379 . S
C500 C497 1.363 . S
C500 N498 1.356 . S
C501 C495 1.363 . S
C501 C496 1.379 . S
C501 N499 1.356 . S
N502 C494 1.356 . S
N502 H508 0.984 . S
N502 H509 0.984 . S
N503 C496 1.356 . S
N503 H506 0.984 . S
N503 H507 0.985 1_554 S
H504 N499 0.984 . S
H505 N499 0.985 . S
H506 N503 0.984 . S
H507 N503 0.985 1_556 S
H508 N502 0.984 . S
H509 N502 0.984 . S
H510 N498 0.984 . S
H511 N498 0.985 . S
C512 C513 1.363 . S
C512 C518 1.379 . S
C512 N520 1.356 . S
C513 C512 1.363 . S
C513 C519 1.363 . S
C514 C515 1.363 . S
C514 C519 1.379 . S
C514 N521 1.356 . S
C515 C514 1.363 . S
C515 C518 1.363 . S
N516 C518 1.356 . S
N516 H528 0.984 . S
N516 H529 0.985 . S
N517 C519 1.356 . S
N517 H522 0.984 . S
N517 H523 0.985 . S
C518 C512 1.379 . S
C518 C515 1.363 . S
C518 N516 1.356 . S
C519 C513 1.363 . S
C519 C514 1.379 . S
C519 N517 1.356 . S
N520 C512 1.356 . S
N520 H526 0.984 . S
N520 H527 0.984 . S
N521 C514 1.356 . S
N521 H524 0.984 . S
N521 H525 0.985 . S
H522 N517 0.984 . S
H523 N517 0.985 . S
H524 N521 0.984 . S
H525 N521 0.985 . S
H526 N520 0.984 . S
H527 N520 0.984 . S
H528 N516 0.984 . S
H529 N516 0.985 . S
C530 C531 1.363 . S
C530 C536 1.379 . S
C530 N538 1.356 . S
C531 C530 1.363 . S
C531 C537 1.363 . S
C532 C533 1.363 . S
C532 C537 1.379 . S
C532 N539 1.356 . S
C533 C532 1.363 . S
C533 C536 1.363 . S
N534 C536 1.356 . S
N534 H546 0.984 . S
N534 H547 0.985 . S
N535 C537 1.356 . S
N535 H540 0.984 . S
N535 H541 0.985 . S
C536 C530 1.379 . S
C536 C533 1.363 . S
C536 N534 1.356 . S
C537 C531 1.363 . S
C537 C532 1.379 . S
C537 N535 1.356 . S
N538 C530 1.356 . S
N538 H544 0.984 . S
N538 H545 0.984 . S
N539 C532 1.356 . S
N539 H542 0.984 . S
N539 H543 0.985 . S
H540 N535 0.984 . S
H541 N535 0.985 . S
H542 N539 0.984 . S
H543 N539 0.985 . S
H544 N538 0.984 . S
H545 N538 0.984 . S
H546 N534 0.984 . S
H547 N534 0.985 . S
C548 C549 1.363 . S
C548 C554 1.379 . S
C548 N556 1.356 . S
C549 C548 1.363 . S
C549 C555 1.363 . S
C550 C551 1.363 . S
C550 C555 1.379 . S
C550 N557 1.356 . S
C551 C550 1.363 . S
C551 C554 1.363 . S
N552 C554 1.356 . S
N552 H564 0.984 . S
N552 H565 0.985 . S
N553 C555 1.356 . S
N553 H558 0.984 . S
N553 H559 0.985 . S
C554 C548 1.379 . S
C554 C551 1.363 . S
C554 N552 1.356 . S
C555 C549 1.363 . S
C555 C550 1.379 . S
C555 N553 1.356 . S
N556 C548 1.356 . S
N556 H562 0.984 . S
N556 H563 0.984 . S
N557 C550 1.356 . S
N557 H560 0.984 . S
N557 H561 0.985 . S
H558 N553 0.984 . S
H559 N553 0.985 . S
H560 N557 0.984 . S
H561 N557 0.985 . S
H562 N556 0.984 . S
H563 N556 0.984 . S
H564 N552 0.984 . S
H565 N552 0.985 . S
C566 C567 1.363 . S
C566 C572 1.379 . S
C566 N574 1.356 . S
C567 C566 1.363 . S
C567 C573 1.363 . S
C568 C569 1.363 . S
C568 C573 1.379 . S
C568 N575 1.356 . S
C569 C568 1.363 . S
C569 C572 1.363 . S
N570 C572 1.356 . S
N570 H582 0.984 . S
N570 H583 0.985 . S
N571 C573 1.356 . S
N571 H576 0.984 . S
N571 H577 0.985 . S
C572 C566 1.379 . S
C572 C569 1.363 . S
C572 N570 1.356 . S
C573 C567 1.363 . S
C573 C568 1.379 . S
C573 N571 1.356 . S
N574 C566 1.356 . S
N574 H580 0.984 . S
N574 H581 0.984 . S
N575 C568 1.356 . S
N575 H578 0.984 . S
N575 H579 0.985 . S
H576 N571 0.984 . S
H577 N571 0.985 . S
H578 N575 0.984 . S
H579 N575 0.985 . S
H580 N574 0.984 . S
H581 N574 0.984 . S
H582 N570 0.984 . S
H583 N570 0.985 . S
C584 C585 1.363 . S
C584 C590 1.379 . S
C584 N592 1.356 . S
C585 C584 1.363 . S
C585 C591 1.363 . S
C586 C587 1.363 . S
C586 C591 1.379 . S
C586 N593 1.356 . S
C587 C586 1.363 . S
C587 C590 1.363 . S
N588 C590 1.356 . S
N588 H600 0.984 . S
N588 H601 0.985 . S
N589 C591 1.356 . S
N589 H594 0.984 . S
N589 H595 0.985 . S
C590 C584 1.379 . S
C590 C587 1.363 . S
C590 N588 1.356 . S
C591 C585 1.363 . S
C591 C586 1.379 . S
C591 N589 1.356 . S
N592 C584 1.356 . S
N592 H598 0.984 . S
N592 H599 0.984 . S
N593 C586 1.356 . S
N593 H596 0.984 . S
N593 H597 0.985 . S
H594 N589 0.984 . S
H595 N589 0.985 . S
H596 N593 0.984 . S
H597 N593 0.985 . S
H598 N592 0.984 . S
H599 N592 0.984 . S
H600 N588 0.984 . S
H601 N588 0.985 . S
C602 C603 1.363 . S
C602 C608 1.379 . S
C602 N610 1.356 . S
C603 C602 1.363 . S
C603 C609 1.363 . S
C604 C605 1.363 . S
C604 C609 1.379 . S
C604 N611 1.356 . S
C605 C604 1.363 . S
C605 C608 1.363 . S
N606 C608 1.356 . S
N606 H618 0.984 . S
N606 H619 0.985 1_556 S
N607 C609 1.356 . S
N607 H612 0.984 . S
N607 H613 0.985 . S
C608 C602 1.379 . S
C608 C605 1.363 . S
C608 N606 1.356 . S
C609 C603 1.363 . S
C609 C604 1.379 . S
C609 N607 1.356 . S
N610 C602 1.356 . S
N610 H616 0.984 . S
N610 H617 0.984 . S
N611 C604 1.356 . S
N611 H614 0.993 . S
N611 H615 0.985 . S
H612 N607 0.984 . S
H613 N607 0.985 . S
H614 N611 0.993 . S
H615 N611 0.985 . S
H616 N610 0.984 . S
H617 N610 0.984 . S
H618 N606 0.984 . S
H619 N606 0.985 1_554 S
C191 C116 1.612 . S
C189 C8 1.630 . S
C209 C119 1.564 . S
C207 C22 1.554 . S
C227 C117 1.584 . S
C225 C30 1.617 . S
C245 C118 1.431 . S
C243 C47 1.431 . S
C263 C133 1.670 . S
C261 C9 1.685 . S
C281 C147 1.607 1_556 S
C279 C17 1.569 . S
C297 C34 1.542 . S
C299 C173 1.525 . S
C317 C187 1.591 . S
C315 C48 1.590 . S
C335 C132 1.680 . S
C333 C21 1.704 . S
C351 C35 1.624 . S
C353 C146 1.643 . S
C371 C172 1.407 . S
C369 C43 1.352 . S
C389 C186 1.571 . S
C387 C4 1.554 . S
C405 C56 1.410 . S
C407 C131 1.463 . S
C425 C104 1.592 . S
C423 C73 1.597 . S
C441 C87 1.607 . S
C443 C130 1.605 . S
C459 C100 1.707 . S
C461 C105 1.686 . S
C479 C160 1.611 . S
C477 C60 1.629 . S
C497 C174 1.518 . S
C495 C69 1.464 . S
C515 C144 1.739 . S
C513 C86 1.766 . S
C531 C95 1.420 . S
C533 C158 1.489 . S
C551 C161 1.624 . S
C549 C74 1.650 . S
C569 C175 1.501 . S
C567 C82 1.441 . S
C587 C145 1.774 . S
C585 C99 1.796 . S
C603 C61 1.538 . S
C605 C159 1.550 1_556 S
