# Generated by pormake.
# Topology eea, (3,6)-cn, num edge types: 1
# Building blocks:
#     Node 0, Type 0, BuildingBlock: KAKCAD_clean_linker_0, # of connection points: 3
#     Node 1, Type 0, BuildingBlock: KAKCAD_clean_linker_0, # of connection points: 3
#     Node 2, Type 0, BuildingBlock: KAKCAD_clean_linker_0, # of connection points: 3
#     Node 3, Type 0, BuildingBlock: KAKCAD_clean_linker_0, # of connection points: 3
#     Node 4, Type 0, BuildingBlock: KAKCAD_clean_linker_0, # of connection points: 3
#     Node 5, Type 0, BuildingBlock: KAKCAD_clean_linker_0, # of connection points: 3
#     Node 6, Type 0, BuildingBlock: KAKCAD_clean_linker_0, # of connection points: 3
#     Node 7, Type 0, BuildingBlock: KAKCAD_clean_linker_0, # of connection points: 3
#     Node 8, Type 0, BuildingBlock: KAKCAD_clean_linker_0, # of connection points: 3
#     Node 9, Type 0, BuildingBlock: KAKCAD_clean_linker_0, # of connection points: 3
#     Node 10, Type 0, BuildingBlock: KAKCAD_clean_linker_0, # of connection points: 3
#     Node 11, Type 0, BuildingBlock: KAKCAD_clean_linker_0, # of connection points: 3
#     Node 12, Type 0, BuildingBlock: KAKCAD_clean_linker_0, # of connection points: 3
#     Node 13, Type 0, BuildingBlock: KAKCAD_clean_linker_0, # of connection points: 3
#     Node 14, Type 0, BuildingBlock: KAKCAD_clean_linker_0, # of connection points: 3
#     Node 15, Type 0, BuildingBlock: KAKCAD_clean_linker_0, # of connection points: 3
#     Node 16, Type 0, BuildingBlock: KAKCAD_clean_linker_0, # of connection points: 3
#     Node 17, Type 0, BuildingBlock: KAKCAD_clean_linker_0, # of connection points: 3
#     Node 18, Type 1, BuildingBlock: KUMBOL_clean_sbu_0, # of connection points: 6
#     Node 19, Type 1, BuildingBlock: KUMBOL_clean_sbu_0, # of connection points: 6
#     Node 20, Type 1, BuildingBlock: KUMBOL_clean_sbu_0, # of connection points: 6
#     Node 21, Type 1, BuildingBlock: KUMBOL_clean_sbu_0, # of connection points: 6
#     Node 22, Type 1, BuildingBlock: KUMBOL_clean_sbu_0, # of connection points: 6
#     Node 23, Type 1, BuildingBlock: KUMBOL_clean_sbu_0, # of connection points: 6
#     Node 24, Type 1, BuildingBlock: KUMBOL_clean_sbu_0, # of connection points: 6
#     Node 25, Type 1, BuildingBlock: KUMBOL_clean_sbu_0, # of connection points: 6
#     Node 26, Type 1, BuildingBlock: KUMBOL_clean_sbu_0, # of connection points: 6
#     Edge 27, Type (0, 1), None
#     Edge 28, Type (0, 1), None
#     Edge 29, Type (0, 1), None
#     Edge 30, Type (0, 1), None
#     Edge 31, Type (0, 1), None
#     Edge 32, Type (0, 1), None
#     Edge 33, Type (0, 1), None
#     Edge 34, Type (0, 1), None
#     Edge 35, Type (0, 1), None
#     Edge 36, Type (0, 1), None
#     Edge 37, Type (0, 1), None
#     Edge 38, Type (0, 1), None
#     Edge 39, Type (0, 1), None
#     Edge 40, Type (0, 1), None
#     Edge 41, Type (0, 1), None
#     Edge 42, Type (0, 1), None
#     Edge 43, Type (0, 1), None
#     Edge 44, Type (0, 1), None
#     Edge 45, Type (0, 1), None
#     Edge 46, Type (0, 1), None
#     Edge 47, Type (0, 1), None
#     Edge 48, Type (0, 1), None
#     Edge 49, Type (0, 1), None
#     Edge 50, Type (0, 1), None
#     Edge 51, Type (0, 1), None
#     Edge 52, Type (0, 1), None
#     Edge 53, Type (0, 1), None
#     Edge 54, Type (0, 1), None
#     Edge 55, Type (0, 1), None
#     Edge 56, Type (0, 1), None
#     Edge 57, Type (0, 1), None
#     Edge 58, Type (0, 1), None
#     Edge 59, Type (0, 1), None
#     Edge 60, Type (0, 1), None
#     Edge 61, Type (0, 1), None
#     Edge 62, Type (0, 1), None
#     Edge 63, Type (0, 1), None
#     Edge 64, Type (0, 1), None
#     Edge 65, Type (0, 1), None
#     Edge 66, Type (0, 1), None
#     Edge 67, Type (0, 1), None
#     Edge 68, Type (0, 1), None
#     Edge 69, Type (0, 1), None
#     Edge 70, Type (0, 1), None
#     Edge 71, Type (0, 1), None
#     Edge 72, Type (0, 1), None
#     Edge 73, Type (0, 1), None
#     Edge 74, Type (0, 1), None
#     Edge 75, Type (0, 1), None
#     Edge 76, Type (0, 1), None
#     Edge 77, Type (0, 1), None
#     Edge 78, Type (0, 1), None
#     Edge 79, Type (0, 1), None
#     Edge 80, Type (0, 1), None
# Relax obj value: 0.007
# Max RMSD: 0.108
# Mean RMSD: 0.092
data_MOF--net-eea--node1-KUMBOL_clean_sbu_0--node2-KAKCAD_clean_linker_0--edge1-none
_symmetry_space_group_name_H-M    P1
_symmetry_Int_Tables_number       1
_symmetry_cell_setting            triclinic
loop_
_symmetry_equiv_pos_as_xyz
'x, y, z'
_cell_length_a     33.246693
_cell_length_b     34.63228
_cell_length_c     53.76337
_cell_angle_alpha  89.658462
_cell_angle_beta   89.526264
_cell_angle_gamma 120.06111
loop_
_atom_site_label
_atom_site_type_symbol
_atom_site_fract_x
_atom_site_fract_y
_atom_site_fract_z
_atom_type_partial_charge
C0 C 0.33279 0.1782 0.51533 0.0
C1 C 0.36744 0.16676 0.51882 0.0
C2 C 0.30825 0.16825 0.49309 0.0
C3 C 0.31776 0.14659 0.47384 0.0
C4 C 0.35295 0.13586 0.47717 0.0
C5 C 0.37751 0.14583 0.49939 0.0
C6 C 0.29036 0.13422 0.45059 0.0
C7 C 0.27892 0.16392 0.43908 0.0
C8 C 0.25262 0.15206 0.4172 0.0
C9 C 0.23843 0.11016 0.40671 0.0
C10 C 0.24978 0.08014 0.41783 0.0
C11 C 0.2753 0.09233 0.43994 0.0
C12 C 0.23546 0.03628 0.40625 0.0
C13 C 0.19231 0.01213 0.3944 0.0
C14 C 0.26521 0.01838 0.40679 0.0
C15 C 0.25192 0.97716 0.39613 0.0
C16 C 0.20892 0.95321 0.38429 0.0
C17 C 0.23963 0.18315 0.40533 0.0
C18 C 0.22773 0.20953 0.42 0.0
C19 C 0.23825 0.18619 0.37925 0.0
C20 C 0.22469 0.21438 0.36816 0.0
C21 C 0.21293 0.24058 0.38288 0.0
C22 C 0.21494 0.23824 0.40886 0.0
C23 C 0.17936 0.97119 0.38334 0.0
H24 H 0.32458 0.19484 0.52982 0.0
H25 H 0.28113 0.17669 0.49118 0.0
H26 H 0.36152 0.11966 0.46257 0.0
H27 H 0.4037 0.13624 0.50154 0.0
H28 H 0.29141 0.19669 0.4469 0.0
H29 H 0.2827 0.06876 0.44921 0.0
H30 H 0.21845 0.10087 0.38979 0.0
H31 H 0.16814 0.02445 0.39395 0.0
H32 H 0.29911 0.03641 0.41523 0.0
H33 H 0.27565 0.96434 0.39695 0.0
H34 H 0.22759 0.20757 0.44011 0.0
H35 H 0.24826 0.16727 0.36731 0.0
H36 H 0.14582 0.95325 0.37448 0.0
H37 H 0.20582 0.25808 0.42062 0.0
H38 H 0.22476 0.2166 0.34813 0.0
C39 C 0.85484 0.20168 0.49946 0.0
C40 C 0.83818 0.17041 0.51918 0.0
C41 C 0.86946 0.19217 0.477 0.0
C42 C 0.86744 0.15102 0.47364 0.0
C43 C 0.85127 0.11993 0.49345 0.0
C44 C 0.83702 0.1296 0.51601 0.0
C45 C 0.8813 0.1402 0.44939 0.0
C46 C 0.92158 0.17197 0.43667 0.0
C47 C 0.93466 0.16201 0.41371 0.0
C48 C 0.90712 0.11953 0.4035 0.0
C49 C 0.86585 0.08747 0.41562 0.0
C50 C 0.85351 0.09828 0.43861 0.0
C51 C 0.8345 0.04346 0.40397 0.0
C52 C 0.82852 0.03993 0.37801 0.0
C53 C 0.80874 0.00483 0.4188 0.0
C54 C 0.77722 0.96422 0.40804 0.0
C55 C 0.77152 0.96099 0.38218 0.0
C56 C 0.97657 0.19685 0.40029 0.0
C57 C 0.98253 0.23964 0.397 0.0
C58 C 0.01186 0.18867 0.392 0.0
C59 C 0.05356 0.22352 0.382 0.0
C60 C 0.05996 0.26671 0.37963 0.0
C61 C 0.0237 0.27411 0.38677 0.0
C62 C 0.79757 -0.00094 0.36725 0.0
H63 H 0.85661 0.2336 0.5014 0.0
H64 H 0.88144 0.21671 0.46207 0.0
H65 H 0.84968 0.08808 0.49152 0.0
H66 H 0.8241 0.1047 0.53077 0.0
H67 H 0.94329 0.20444 0.44483 0.0
H68 H 0.82122 0.07466 0.44781 0.0
H69 H 0.91755 0.11189 0.38591 0.0
H70 H 0.84675 0.06894 0.36596 0.0
H71 H 0.81294 0.0058 0.43877 0.0
H72 H 0.75777 0.93511 0.41992 0.0
H73 H 0.95567 0.2467 0.40292 0.0
H74 H 0.0081 0.15593 0.39436 0.0
H75 H 0.7929 0.99765 0.34735 0.0
H76 H 0.02787 0.30714 0.38523 0.0
H77 H 0.08133 0.21713 0.3771 0.0
C78 C 0.87771 0.70208 0.51336 0.0
C79 C 0.8317 0.66734 0.51748 0.0
C80 C 0.89109 0.72547 0.49051 0.0
C81 C 0.85866 0.71506 0.47136 0.0
C82 C 0.81258 0.68077 0.47573 0.0
C83 C 0.79935 0.65734 0.49839 0.0
C84 C 0.87227 0.73933 0.44681 0.0
C85 C 0.91382 0.74883 0.4345 0.0
C86 C 0.92527 0.76919 0.41065 0.0
C87 C 0.89472 0.78103 0.39926 0.0
C88 C 0.85253 0.77102 0.41119 0.0
C89 C 0.84213 0.75076 0.43492 0.0
C90 C 0.81659 0.7777 0.39868 0.0
C91 C 0.82454 0.82047 0.39237 0.0
C92 C 0.77183 0.74085 0.39557 0.0
C93 C 0.73554 0.74652 0.38697 0.0
C94 C 0.74295 0.78918 0.38111 0.0
C95 C 0.9674 0.77432 0.39733 0.0
C96 C 1.00339 0.81613 0.3888 0.0
C97 C 0.97336 0.73711 0.39501 0.0
C98 C 0.01498 0.74175 0.38573 0.0
C99 C 0.05213 0.78374 0.37857 0.0
C100 C 0.04566 0.82092 0.37977 0.0
C101 C 0.78786 0.82623 0.3839 0.0
H102 H 0.90362 0.7105 0.52757 0.0
H103 H 0.92678 0.75188 0.48789 0.0
H104 H 0.78668 0.67134 0.46141 0.0
H105 H 0.76352 0.63118 0.50093 0.0
H106 H 0.9368 0.73912 0.44316 0.0
H107 H 0.80991 0.74356 0.4441 0.0
H108 H 0.90248 0.79564 0.38072 0.0
H109 H 0.85854 0.8495 0.39492 0.0
H110 H 0.76463 0.70756 0.40044 0.0
H111 H 0.70125 0.71745 0.38529 0.0
H112 H 0.99982 0.84543 0.39039 0.0
H113 H 0.94617 0.70442 0.40117 0.0
H114 H 0.79433 0.85963 0.38013 0.0
H115 H 0.07384 0.85388 0.37487 0.0
H116 H 0.01886 0.7125 0.38514 0.0
C117 C 0.18107 0.29147 0.52813 0.0
C118 C 0.17601 0.32908 0.52452 0.0
C119 C 0.16821 0.26789 0.55089 0.0
C120 C 0.14924 0.28087 0.57048 0.0
C121 C 0.14282 0.3176 0.56652 0.0
C122 C 0.15625 0.34149 0.54394 0.0
C123 C 0.13787 0.25747 0.59527 0.0
C124 C 0.16952 0.2475 0.60669 0.0
C125 C 0.16069 0.2277 0.63058 0.0
C126 C 0.11851 0.2165 0.64298 0.0
C127 C 0.08659 0.22697 0.63204 0.0
C128 C 0.09671 0.24732 0.60823 0.0
C129 C 0.04416 0.22033 0.64569 0.0
C130 C 0.00841 0.17776 0.6534 0.0
C131 C 0.03744 0.25693 0.64888 0.0
C132 C 0.99545 0.2511 0.65835 0.0
C133 C 0.95865 0.20846 0.66483 0.0
C134 C 0.19785 0.22243 0.6428 0.0
C135 C 0.19057 0.18038 0.65031 0.0
C136 C 0.24262 0.25972 0.64493 0.0
C137 C 0.27955 0.25511 0.65363 0.0
C138 C 0.27285 0.21309 0.66051 0.0
C139 C 0.22792 0.17565 0.65874 0.0
C140 C 0.96575 0.17177 0.66265 0.0
H141 H 0.19636 0.28113 0.51363 0.0
H142 H 0.17332 0.23956 0.55322 0.0
H143 H 0.12868 0.3288 0.58118 0.0
H144 H 0.15151 0.37007 0.54175 0.0
H145 H 0.20205 0.25645 0.59726 0.0
H146 H 0.07224 0.25529 0.59975 0.0
H147 H 0.11177 0.20203 0.66154 0.0
H148 H 0.01255 0.1489 0.65106 0.0
H149 H 0.06435 0.29012 0.64326 0.0
H150 H 0.99109 0.28 0.65973 0.0
H151 H 0.15655 0.151 0.64863 0.0
H152 H 0.2493 0.29253 0.63928 0.0
H153 H 0.93783 0.1384 0.6671 0.0
H154 H 0.22186 0.14263 0.6632 0.0
H155 H 0.31381 0.28445 0.65446 0.0
C156 C 0.63971 0.79668 0.54175 0.0
C157 C 0.65287 0.82855 0.52249 0.0
C158 C 0.66555 0.80698 0.56359 0.0
C159 C 0.70461 0.84953 0.5667 0.0
C160 C 0.71772 0.88132 0.54743 0.0
C161 C 0.69227 0.87088 0.52552 0.0
C162 C 0.73089 0.86144 0.59025 0.0
C163 C 0.74468 0.83297 0.6011 0.0
C164 C 0.76965 0.84447 0.62348 0.0
C165 C 0.78069 0.88501 0.63479 0.0
C166 C 0.76713 0.9138 0.62418 0.0
C167 C 0.74213 0.90164 0.60194 0.0
C168 C 0.77897 0.95649 0.63639 0.0
C169 C 0.77759 0.95897 0.66247 0.0
C170 C 0.79193 0.99518 0.62206 0.0
C171 C 0.80313 0.03529 0.63355 0.0
C172 C 0.8024 0.0377 0.65956 0.0
C173 C 0.78358 0.81404 0.63535 0.0
C174 C 0.75383 0.7676 0.63473 0.0
C175 C 0.82612 0.83106 0.6479 0.0
C176 C 0.83837 0.80233 0.65963 0.0
C177 C 0.80874 0.75597 0.65866 0.0
C178 C 0.76641 0.73896 0.64608 0.0
C179 C 0.78951 -0.0007 0.67392 0.0
H180 H 0.60973 0.76367 0.5398 0.0
H181 H 0.65451 0.78197 0.57824 0.0
H182 H 0.74785 0.91429 0.54927 0.0
H183 H 0.70308 0.89617 0.51104 0.0
H184 H 0.73679 0.80236 0.59178 0.0
H185 H 0.73031 0.92298 0.59396 0.0
H186 H 0.79976 0.89414 0.65201 0.0
H187 H 0.76666 0.92964 0.67408 0.0
H188 H 0.79411 0.99471 0.60197 0.0
H189 H 0.81327 0.06468 0.62209 0.0
H190 H 0.72041 0.75324 0.62576 0.0
H191 H 0.85035 0.8666 0.64844 0.0
H192 H 0.78737 4e-05 0.69393 0.0
H193 H 0.7426 0.70338 0.64513 0.0
H194 H 0.87145 0.81641 0.66897 0.0
C195 C 0.13612 0.81959 0.52917 0.0
C196 C 0.18285 0.83166 0.52509 0.0
C197 C 0.12182 0.82875 0.5519 0.0
C198 C 0.15407 0.85063 0.57089 0.0
C199 C 0.20081 0.86297 0.56667 0.0
C200 C 0.21498 0.85353 0.5441 0.0
C201 C 0.13948 0.86079 0.59508 0.0
C202 C 0.09941 0.8285 0.60771 0.0
C203 C 0.08668 0.83755 0.63107 0.0
C204 C 0.11446 0.87967 0.64177 0.0
C205 C 0.15518 0.91228 0.62949 0.0
C206 C 0.16678 0.90257 0.60603 0.0
C207 C 0.18674 0.95614 0.64111 0.0
C208 C 0.1691 0.97975 0.65405 0.0
C209 C 0.23526 0.97535 0.63863 0.0
C210 C 0.26531 0.01749 0.64817 0.0
C211 C 0.24774 0.04142 0.66074 0.0
C212 C 0.045 0.80203 0.64433 0.0
C213 C 0.00905 0.80931 0.65244 0.0
C214 C 0.03944 0.75928 0.64711 0.0
C215 C 0.99798 0.724 0.65662 0.0
C216 C 0.96104 0.73055 0.66352 0.0
C217 C 0.96709 0.77368 0.66166 0.0
C218 C 0.19928 0.02196 0.66375 0.0
H219 H 0.11049 0.80244 0.51495 0.0
H220 H 0.08563 0.8191 0.55454 0.0
H221 H 0.22645 0.87949 0.58098 0.0
H222 H 0.2513 0.86367 0.54147 0.0
H223 H 0.07834 0.79595 0.59952 0.0
H224 H 0.19717 0.92788 0.59606 0.0
H225 H 0.1053 0.88629 0.66001 0.0
H226 H 0.13197 0.96616 0.65614 0.0
H227 H 0.25019 0.95775 0.62928 0.0
H228 H 0.30239 0.03119 0.64574 0.0
H229 H 0.01243 0.84195 0.6504 0.0
H230 H 0.06677 0.75286 0.64123 0.0
H231 H 0.18456 0.03969 0.67315 0.0
H232 H 0.93885 0.77952 0.66626 0.0
H233 H 0.99407 0.69103 0.65767 0.0
C234 C 0.99946 0.51155 0.84866 0.0
C235 C 0.03411 0.50011 0.85215 0.0
C236 C 0.97492 0.5016 0.82642 0.0
C237 C 0.98443 0.47994 0.80717 0.0
C238 C 0.01963 0.46922 0.8105 0.0
C239 C 0.04419 0.47919 0.83272 0.0
C240 C 0.95703 0.46757 0.78393 0.0
C241 C 0.94559 0.49727 0.77241 0.0
C242 C 0.91929 0.48541 0.75053 0.0
C243 C 0.9051 0.4435 0.74005 0.0
C244 C 0.91646 0.41348 0.75116 0.0
C245 C 0.94198 0.42567 0.77327 0.0
C246 C 0.90214 0.36962 0.73959 0.0
C247 C 0.85899 0.34547 0.72773 0.0
C248 C 0.93189 0.35173 0.74013 0.0
C249 C 0.9186 0.31051 0.72947 0.0
C250 C 0.8756 0.28655 0.71763 0.0
C251 C 0.90629 0.51649 0.73866 0.0
C252 C 0.89439 0.54287 0.75333 0.0
C253 C 0.90491 0.51953 0.71258 0.0
C254 C 0.89134 0.54771 0.7015 0.0
C255 C 0.87958 0.57391 0.71621 0.0
C256 C 0.88159 0.57157 0.7422 0.0
C257 C 0.84604 0.30454 0.71667 0.0
H258 H 0.99125 0.52819 0.86316 0.0
H259 H 0.9478 0.51003 0.82452 0.0
H260 H 0.02819 0.45301 0.7959 0.0
H261 H 0.07038 0.4696 0.83487 0.0
H262 H 0.95808 0.53003 0.78024 0.0
H263 H 0.94938 0.40211 0.78255 0.0
H264 H 0.88512 0.43421 0.72313 0.0
H265 H 0.83482 0.35779 0.72728 0.0
H266 H 0.96579 0.36976 0.74856 0.0
H267 H 0.94233 0.29768 0.73028 0.0
H268 H 0.89425 0.54091 0.77344 0.0
H269 H 0.91492 0.5006 0.70064 0.0
H270 H 0.8125 0.2866 0.70781 0.0
H271 H 0.87248 0.59141 0.75395 0.0
H272 H 0.89142 0.54993 0.68146 0.0
C273 C 0.52149 0.535 0.83279 0.0
C274 C 0.50483 0.50373 0.85252 0.0
C275 C 0.53611 0.52549 0.81033 0.0
C276 C 0.53409 0.48433 0.80697 0.0
C277 C 0.51792 0.45325 0.82678 0.0
C278 C 0.50367 0.46292 0.84934 0.0
C279 C 0.54795 0.47352 0.78272 0.0
C280 C 0.58823 0.5053 0.77 0.0
C281 C 0.60132 0.49534 0.74704 0.0
C282 C 0.57377 0.45285 0.73683 0.0
C283 C 0.5325 0.42079 0.74895 0.0
C284 C 0.52016 0.4316 0.77194 0.0
C285 C 0.50116 0.37677 0.7373 0.0
C286 C 0.49518 0.37324 0.71134 0.0
C287 C 0.4754 0.33815 0.75213 0.0
C288 C 0.44388 0.29753 0.74137 0.0
C289 C 0.43818 0.29431 0.71552 0.0
C290 C 0.64322 0.53017 0.73363 0.0
C291 C 0.64918 0.57296 0.73033 0.0
C292 C 0.67851 0.52199 0.72533 0.0
C293 C 0.72021 0.55685 0.71534 0.0
C294 C 0.72661 0.60004 0.71297 0.0
C295 C 0.69035 0.60744 0.7201 0.0
C296 C 0.46424 0.33237 0.70059 0.0
H297 H 0.52326 0.56692 0.83473 0.0
H298 H 0.54808 0.55003 0.7954 0.0
H299 H 0.51634 0.4214 0.82485 0.0
H300 H 0.49075 0.43802 0.8641 0.0
H301 H 0.60994 0.53776 0.77816 0.0
H302 H 0.48787 0.40798 0.78114 0.0
H303 H 0.5842 0.44521 0.71924 0.0
H304 H 0.51342 0.40225 0.69929 0.0
H305 H 0.47959 0.33913 0.7721 0.0
H306 H 0.42443 0.26843 0.75325 0.0
H307 H 0.62231 0.58003 0.73625 0.0
H308 H 0.67476 0.48926 0.7277 0.0
H309 H 0.45958 0.33096 0.68069 0.0
H310 H 0.69452 0.64047 0.71857 0.0
H311 H 0.74798 0.55046 0.71043 0.0
C312 C 0.54438 0.03541 0.84669 0.0
C313 C 0.49838 0.00066 0.85081 0.0
C314 C 0.55776 0.0588 0.82384 0.0
C315 C 0.52533 0.04838 0.80469 0.0
C316 C 0.47926 0.01409 0.80906 0.0
C317 C 0.46603 0.99066 0.83172 0.0
C318 C 0.53895 0.07266 0.78015 0.0
C319 C 0.5805 0.08216 0.76783 0.0
C320 C 0.59194 0.10253 0.74398 0.0
C321 C 0.56139 0.11436 0.73259 0.0
C322 C 0.5192 0.10435 0.74452 0.0
C323 C 0.5088 0.08409 0.76825 0.0
C324 C 0.48325 0.11102 0.73202 0.0
C325 C 0.4912 0.15379 0.7257 0.0
C326 C 0.43849 0.07417 0.72891 0.0
C327 C 0.4022 0.07984 0.72031 0.0
C328 C 0.40961 0.12249 0.71445 0.0
C329 C 0.63407 0.10766 0.73066 0.0
C330 C 0.67007 0.14947 0.72213 0.0
C331 C 0.64004 0.07046 0.72834 0.0
C332 C 0.68166 0.07509 0.71906 0.0
C333 C 0.71881 0.11709 0.7119 0.0
C334 C 0.71233 0.15426 0.7131 0.0
C335 C 0.45452 0.15954 0.71724 0.0
H336 H 0.5703 0.04384 0.8609 0.0
H337 H 0.59345 0.08521 0.82123 0.0
H338 H 0.45336 0.00466 0.79474 0.0
H339 H 0.4302 0.9645 0.83426 0.0
H340 H 0.60348 0.07246 0.77649 0.0
H341 H 0.47658 0.07688 0.77743 0.0
H342 H 0.56914 0.12897 0.71405 0.0
H343 H 0.5252 0.18282 0.72825 0.0
H344 H 0.4313 0.04088 0.73378 0.0
H345 H 0.36791 0.05077 0.71863 0.0
H346 H 0.66649 0.17877 0.72372 0.0
H347 H 0.61285 0.03776 0.73449 0.0
H348 H 0.46099 0.19295 0.71346 0.0
H349 H 0.74051 0.18723 0.7082 0.0
H350 H 0.68554 0.04585 0.71847 0.0
C351 C 0.84773 0.6248 0.86146 0.0
C352 C 0.84267 0.66241 0.85785 0.0
C353 C 0.83487 0.60122 0.88423 0.0
C354 C 0.8159 0.6142 0.90381 0.0
C355 C 0.80949 0.65094 0.89985 0.0
C356 C 0.82291 0.67482 0.87727 0.0
C357 C 0.80453 0.5908 0.9286 0.0
C358 C 0.83619 0.58084 0.94002 0.0
C359 C 0.82735 0.56104 0.96391 0.0
C360 C 0.78517 0.54984 0.97631 0.0
C361 C 0.75326 0.5603 0.96537 0.0
C362 C 0.76337 0.58065 0.94156 0.0
C363 C 0.71083 0.55366 0.97902 0.0
C364 C 0.67508 0.51109 0.98674 0.0
C365 C 0.7041 0.59026 0.98221 0.0
C366 C 0.66211 0.58443 0.99168 0.0
C367 C 0.62532 0.5418 0.99817 0.0
C368 C 0.86451 0.55576 0.97614 0.0
C369 C 0.85724 0.51372 0.98364 0.0
C370 C 0.90929 0.59306 0.97826 0.0
C371 C 0.94621 0.58844 0.98696 0.0
C372 C 0.93952 0.54642 0.99384 0.0
C373 C 0.89458 0.50899 0.99207 0.0
C374 C 0.63241 0.50511 0.99598 0.0
H375 H 0.86302 0.61446 0.84696 0.0
H376 H 0.83998 0.57289 0.88656 0.0
H377 H 0.79535 0.66214 0.91451 0.0
H378 H 0.81818 0.7034 0.87508 0.0
H379 H 0.86871 0.58979 0.93059 0.0
H380 H 0.7389 0.58862 0.93309 0.0
H381 H 0.77844 0.53536 0.99487 0.0
H382 H 0.67921 0.48223 0.9844 0.0
H383 H 0.73101 0.62345 0.97659 0.0
H384 H 0.65775 0.61333 0.99307 0.0
H385 H 0.82321 0.48433 0.98197 0.0
H386 H 0.91597 0.62586 0.97261 0.0
H387 H 0.60449 0.47174 1.00043 0.0
H388 H 0.88853 0.47597 0.99653 0.0
H389 H 0.98048 0.61779 0.98779 0.0
C390 C 0.30638 0.13002 0.87508 0.0
C391 C 0.31954 0.16189 0.85583 0.0
C392 C 0.33221 0.14032 0.89693 0.0
C393 C 0.37127 0.18286 0.90003 0.0
C394 C 0.38439 0.21466 0.88076 0.0
C395 C 0.35894 0.20422 0.85885 0.0
C396 C 0.39755 0.19477 0.92358 0.0
C397 C 0.41135 0.1663 0.93443 0.0
C398 C 0.43632 0.1778 0.95681 0.0
C399 C 0.44735 0.21834 0.96812 0.0
C400 C 0.43379 0.24713 0.95752 0.0
C401 C 0.40879 0.23497 0.93528 0.0
C402 C 0.44564 0.28983 0.96973 0.0
C403 C 0.44425 0.29231 0.99581 0.0
C404 C 0.4586 0.32852 0.95539 0.0
C405 C 0.46979 0.36863 0.96688 0.0
C406 C 0.46907 0.37103 0.9929 0.0
C407 C 0.45024 0.14737 0.96869 0.0
C408 C 0.42049 0.10094 0.96807 0.0
C409 C 0.49278 0.1644 0.98124 0.0
C410 C 0.50504 0.13567 0.99296 0.0
C411 C 0.4754 0.08931 0.992 0.0
C412 C 0.43307 0.07229 0.97941 0.0
C413 C 0.45617 0.33263 1.00726 0.0
H414 H 0.27639 0.097 0.87314 0.0
H415 H 0.32117 0.11531 0.91157 0.0
H416 H 0.41451 0.24762 0.8826 0.0
H417 H 0.36974 0.2295 0.84438 0.0
H418 H 0.40346 0.13569 0.92511 0.0
H419 H 0.39697 0.25631 0.9273 0.0
H420 H 0.46642 0.22748 0.98534 0.0
H421 H 0.43332 0.26298 1.00742 0.0
H422 H 0.46077 0.32804 0.9353 0.0
H423 H 0.47994 0.39801 0.95542 0.0
H424 H 0.38708 0.08658 0.95909 0.0
H425 H 0.51701 0.19993 0.98177 0.0
H426 H 0.45403 0.33338 0.02726 0.0
H427 H 0.40926 0.03671 0.97846 0.0
H428 H 0.53811 0.14974 1.00231 0.0
C429 C 0.80279 0.15292 0.86251 0.0
C430 C 0.84952 0.16499 0.85843 0.0
C431 C 0.78849 0.16208 0.88524 0.0
C432 C 0.82074 0.18397 0.90422 0.0
C433 C 0.86748 0.1963 0.9 0.0
C434 C 0.88165 0.18686 0.87743 0.0
C435 C 0.80615 0.19412 0.92842 0.0
C436 C 0.76608 0.16183 0.94105 0.0
C437 C 0.75335 0.17088 0.9644 0.0
C438 C 0.78112 0.21301 0.9751 0.0
C439 C 0.82185 0.24561 0.96283 0.0
C440 C 0.83345 0.2359 0.93937 0.0
C441 C 0.85341 0.28947 0.97444 0.0
C442 C 0.83576 0.31309 0.98738 0.0
C443 C 0.90193 0.30868 0.97196 0.0
C444 C 0.93198 0.35083 0.98151 0.0
C445 C 0.91441 0.37476 0.99408 0.0
C446 C 0.71167 0.13536 0.97766 0.0
C447 C 0.67571 0.14265 0.98578 0.0
C448 C 0.70611 0.09261 0.98045 0.0
C449 C 0.66464 0.05733 0.98995 0.0
C450 C 0.62771 0.06389 0.99685 0.0
C451 C 0.63376 0.10702 0.99499 0.0
C452 C 0.86595 0.3553 0.99708 0.0
H453 H 0.77716 0.13577 0.84828 0.0
H454 H 0.7523 0.15243 0.88787 0.0
H455 H 0.89311 0.21283 0.91431 0.0
H456 H 0.91797 0.197 0.8748 0.0
H457 H 0.74501 0.12929 0.93285 0.0
H458 H 0.86384 0.26121 0.92939 0.0
H459 H 0.77197 0.21963 0.99334 0.0
H460 H 0.79864 0.2995 0.98947 0.0
H461 H 0.91686 0.29108 0.96262 0.0
H462 H 0.96905 0.36452 0.97907 0.0
H463 H 0.67909 0.17528 0.98373 0.0
H464 H 0.73343 0.08619 0.97456 0.0
H465 H 0.85122 0.37302 1.00648 0.0
H466 H 0.60552 0.11286 0.99959 0.0
H467 H 0.66074 0.02436 0.991 0.0
C468 C 0.66611 0.84488 0.182 0.0
C469 C 0.70077 0.83345 0.18548 0.0
C470 C 0.64157 0.83493 0.15976 0.0
C471 C 0.65109 0.81328 0.14051 0.0
C472 C 0.68629 0.80256 0.14383 0.0
C473 C 0.71085 0.81253 0.16605 0.0
C474 C 0.62369 0.8009 0.11726 0.0
C475 C 0.61225 0.8306 0.10575 0.0
C476 C 0.58595 0.81874 0.08387 0.0
C477 C 0.57176 0.77684 0.07338 0.0
C478 C 0.58312 0.74682 0.0845 0.0
C479 C 0.60864 0.75901 0.1066 0.0
C480 C 0.5688 0.70296 0.07292 0.0
C481 C 0.52565 0.67881 0.06106 0.0
C482 C 0.59855 0.68506 0.07346 0.0
C483 C 0.58526 0.64384 0.0628 0.0
C484 C 0.54227 0.61989 0.05096 0.0
C485 C 0.57295 0.84982 0.072 0.0
C486 C 0.56105 0.8762 0.08666 0.0
C487 C 0.57157 0.85286 0.04591 0.0
C488 C 0.558 0.88105 0.03483 0.0
C489 C 0.54625 0.90725 0.04954 0.0
C490 C 0.54825 0.9049 0.07553 0.0
C491 C 0.5127 0.63787 0.05001 0.0
H492 H 0.6579 0.86151 0.19649 0.0
H493 H 0.61445 0.84335 0.15785 0.0
H494 H 0.69486 0.78636 0.12924 0.0
H495 H 0.73705 0.80295 0.1682 0.0
H496 H 0.62473 0.86336 0.11357 0.0
H497 H 0.61604 0.73544 0.11588 0.0
H498 H 0.55178 0.76754 0.05646 0.0
H499 H 0.50148 0.69113 0.06061 0.0
H500 H 0.63245 0.70309 0.0819 0.0
H501 H 0.60899 0.63102 0.06362 0.0
H502 H 0.5609 0.87424 0.10678 0.0
H503 H 0.58159 0.83394 0.03397 0.0
H504 H 0.47917 0.61993 0.04115 0.0
H505 H 0.53913 0.92474 0.08729 0.0
H506 H 0.55808 0.88327 1.01479 0.0
C507 C 0.18814 0.86833 0.16612 0.0
C508 C 0.17149 0.83707 0.18585 0.0
C509 C 0.20276 0.85882 0.14366 0.0
C510 C 0.20075 0.81767 0.1403 0.0
C511 C 0.18458 0.78658 0.16012 0.0
C512 C 0.17033 0.79626 0.18267 0.0
C513 C 0.21461 0.80685 0.11606 0.0
C514 C 0.25489 0.83863 0.10334 0.0
C515 C 0.26798 0.82867 0.08038 0.0
C516 C 0.24044 0.78619 0.07017 0.0
C517 C 0.19917 0.75413 0.08228 0.0
C518 C 0.18682 0.76494 0.10527 0.0
C519 C 0.16783 0.71011 0.07064 0.0
C520 C 0.16185 0.70658 0.04467 0.0
C521 C 0.14206 0.67148 0.08546 0.0
C522 C 0.11055 0.63087 0.0747 0.0
C523 C 0.10485 0.62764 0.04885 0.0
C524 C 0.30988 0.86351 0.06696 0.0
C525 C 0.31584 0.9063 0.06367 0.0
C526 C 0.34517 0.85533 0.05867 0.0
C527 C 0.38687 0.89019 0.04867 0.0
C528 C 0.39328 0.93337 0.0463 0.0
C529 C 0.35701 0.94077 0.05343 0.0
C530 C 0.13091 0.66571 0.03392 0.0
H531 H 0.1899 0.90025 0.16806 0.0
H532 H 0.21473 0.88336 0.12873 0.0
H533 H 0.183 0.75474 0.15819 0.0
H534 H 0.15742 0.77136 0.19744 0.0
H535 H 0.2766 0.8711 0.11149 0.0
H536 H 0.15453 0.74132 0.11447 0.0
H537 H 0.25087 0.77855 0.05258 0.0
H538 H 0.18009 0.73559 0.03263 0.0
H539 H 0.14626 0.67246 0.10544 0.0
H540 H 0.09109 0.60177 0.08658 0.0
H541 H 0.28898 0.91336 0.06958 0.0
H542 H 0.34142 0.8226 0.06103 0.0
H543 H 0.12624 0.66429 1.01402 0.0
H544 H 0.36118 0.97381 0.0519 0.0
H545 H 0.41465 0.8838 0.04376 0.0
C546 C 0.21106 0.36874 0.18002 0.0
C547 C 0.16505 0.334 0.18415 0.0
C548 C 0.22444 0.39213 0.15718 0.0
C549 C 0.192 0.38172 0.13802 0.0
C550 C 0.14593 0.34743 0.14239 0.0
C551 C 0.1327 0.324 0.16505 0.0
C552 C 0.20562 0.406 0.11348 0.0
C553 C 0.24716 0.4155 0.10116 0.0
C554 C 0.25861 0.43587 0.07731 0.0
C555 C 0.22806 0.44769 0.06593 0.0
C556 C 0.18587 0.43768 0.07786 0.0
C557 C 0.17547 0.41742 0.10158 0.0
C558 C 0.14992 0.44436 0.06535 0.0
C559 C 0.15787 0.48713 0.05903 0.0
C560 C 0.10516 0.40751 0.06225 0.0
C561 C 0.06886 0.41317 0.05364 0.0
C562 C 0.07628 0.45583 0.04779 0.0
C563 C 0.30074 0.441 0.064 0.0
C564 C 0.33673 0.48281 0.05546 0.0
C565 C 0.3067 0.40379 0.06167 0.0
C566 C 0.34832 0.40843 0.05239 0.0
C567 C 0.38547 0.45042 0.04524 0.0
C568 C 0.379 0.4876 0.04643 0.0
C569 C 0.12119 0.49288 0.05057 0.0
H570 H 0.23697 0.37717 0.19423 0.0
H571 H 0.26013 0.41855 0.15456 0.0
H572 H 0.12003 0.338 0.12807 0.0
H573 H 0.09687 0.29783 0.16759 0.0
H574 H 0.27015 0.4058 0.10982 0.0
H575 H 0.14325 0.41022 0.11077 0.0
H576 H 0.23581 0.46231 0.04739 0.0
H577 H 0.19187 0.51615 0.06158 0.0
H578 H 0.09797 0.37421 0.06711 0.0
H579 H 0.03458 0.3841 0.05196 0.0
H580 H 0.33316 0.51211 0.05706 0.0
H581 H 0.27951 0.37109 0.06782 0.0
H582 H 0.12766 0.52628 0.0468 0.0
H583 H 0.40718 0.52056 0.04153 0.0
H584 H 0.3522 0.37918 0.0518 0.0
C585 C 0.51439 0.95814 0.19479 0.0
C586 C 0.50933 0.99575 0.19119 0.0
C587 C 0.50153 0.93456 0.21756 0.0
C588 C 0.48256 0.94754 0.23715 0.0
C589 C 0.47615 0.98428 0.23318 0.0
C590 C 0.48958 0.00816 0.21061 0.0
C591 C 0.47119 0.92414 0.26193 0.0
C592 C 0.50284 0.91417 0.27336 0.0
C593 C 0.494 0.89437 0.29725 0.0
C594 C 0.45182 0.88317 0.30964 0.0
C595 C 0.41991 0.89364 0.2987 0.0
C596 C 0.43003 0.91399 0.27489 0.0
C597 C 0.37748 0.887 0.31235 0.0
C598 C 0.34173 0.84443 0.32007 0.0
C599 C 0.37075 0.9236 0.31554 0.0
C600 C 0.32876 0.91776 0.32501 0.0
C601 C 0.29197 0.87513 0.3315 0.0
C602 C 0.53116 0.8891 0.30947 0.0
C603 C 0.52389 0.84705 0.31697 0.0
C604 C 0.57594 0.9264 0.3116 0.0
C605 C 0.61286 0.92178 0.3203 0.0
C606 C 0.60617 0.87976 0.32718 0.0
C607 C 0.56124 0.84232 0.32541 0.0
C608 C 0.29907 0.83844 0.32931 0.0
H609 H 0.52968 0.9478 0.1803 0.0
H610 H 0.50664 0.90623 0.21989 0.0
H611 H 0.46201 0.99548 0.24785 0.0
H612 H 0.48484 0.03674 0.20841 0.0
H613 H 0.53537 0.92312 0.26393 0.0
H614 H 0.40556 0.92196 0.26642 0.0
H615 H 0.44509 0.8687 0.32821 0.0
H616 H 0.34587 0.81557 0.31773 0.0
H617 H 0.39766 0.95679 0.30992 0.0
H618 H 0.3244 0.94667 0.32639 0.0
H619 H 0.48987 0.81766 0.3153 0.0
H620 H 0.58262 0.9592 0.30596 0.0
H621 H 0.27115 0.80507 0.33376 0.0
H622 H 0.55518 0.8093 0.32986 0.0
H623 H 0.64713 0.95113 0.32113 0.0
C624 C 0.97305 0.46335 0.20842 0.0
C625 C 0.98621 0.49522 0.18916 0.0
C626 C 0.99889 0.47364 0.23026 0.0
C627 C 0.03795 0.51619 0.23336 0.0
C628 C 0.05106 0.54798 0.21409 0.0
C629 C 0.02561 0.53754 0.19219 0.0
C630 C 0.06423 0.5281 0.25691 0.0
C631 C 0.07803 0.49963 0.26776 0.0
C632 C 0.103 0.51113 0.29014 0.0
C633 C 0.11404 0.55167 0.30145 0.0
C634 C 0.10048 0.58046 0.29085 0.0
C635 C 0.07548 0.5683 0.26861 0.0
C636 C 0.11232 0.62315 0.30306 0.0
C637 C 0.11094 0.62563 0.32914 0.0
C638 C 0.12528 0.66184 0.28872 0.0
C639 C 0.13648 0.70196 0.30021 0.0
C640 C 0.13576 0.70436 0.32623 0.0
C641 C 0.11693 0.4807 0.30201 0.0
C642 C 0.08718 0.43427 0.3014 0.0
C643 C 0.15947 0.49773 0.31456 0.0
C644 C 0.17173 0.469 0.32629 0.0
C645 C 0.14209 0.42264 0.32533 0.0
C646 C 0.09976 0.40562 0.31274 0.0
C647 C 0.12286 0.66596 0.34059 0.0
H648 H 0.94307 0.43033 0.20647 0.0
H649 H 0.98785 0.44863 0.2449 0.0
H650 H 0.08119 0.58095 0.21593 0.0
H651 H 0.03641 0.56283 0.17771 0.0
H652 H 0.07014 0.46902 0.25844 0.0
H653 H 0.06366 0.58964 0.26063 0.0
H654 H 0.13311 0.56081 0.31867 0.0
H655 H 0.10001 0.5963 0.34075 0.0
H656 H 0.12746 0.66137 0.26863 0.0
H657 H 0.14663 0.73134 0.28875 0.0
H658 H 0.05376 0.4199 0.29243 0.0
H659 H 0.1837 0.53326 0.3151 0.0
H660 H 0.12073 0.6667 0.36059 0.0
H661 H 0.07595 0.37004 0.31179 0.0
H662 H 0.2048 0.48307 0.33563 0.0
C663 C 0.46947 0.48627 0.19584 0.0
C664 C 0.5162 0.49833 0.19176 0.0
C665 C 0.45518 0.49542 0.21857 0.0
C666 C 0.48743 0.51731 0.23756 0.0
C667 C 0.53416 0.52964 0.23333 0.0
C668 C 0.54833 0.52021 0.21077 0.0
C669 C 0.47284 0.52746 0.26175 0.0
C670 C 0.43277 0.49517 0.27438 0.0
C671 C 0.42004 0.50422 0.29774 0.0
C672 C 0.44782 0.54635 0.30844 0.0
C673 C 0.48854 0.57895 0.29616 0.0
C674 C 0.50014 0.56924 0.2727 0.0
C675 C 0.5201 0.62281 0.30778 0.0
C676 C 0.50245 0.64643 0.32072 0.0
C677 C 0.56862 0.64203 0.3053 0.0
C678 C 0.59867 0.68417 0.31484 0.0
C679 C 0.5811 0.7081 0.32741 0.0
C680 C 0.37836 0.4687 0.311 0.0
C681 C 0.3424 0.47599 0.31911 0.0
C682 C 0.3728 0.42595 0.31378 0.0
C683 C 0.33133 0.39067 0.32329 0.0
C684 C 0.2944 0.39723 0.33019 0.0
C685 C 0.30045 0.44036 0.32833 0.0
C686 C 0.53264 0.68864 0.33041 0.0
H687 H 0.44384 0.46911 0.18162 0.0
H688 H 0.41899 0.48578 0.22121 0.0
H689 H 0.5598 0.54617 0.24765 0.0
H690 H 0.58466 0.53034 0.20813 0.0
H691 H 0.4117 0.46263 0.26619 0.0
H692 H 0.53053 0.59455 0.26273 0.0
H693 H 0.43866 0.55297 0.32668 0.0
H694 H 0.46533 0.63284 0.3228 0.0
H695 H 0.58355 0.62442 0.29596 0.0
H696 H 0.63575 0.69787 0.31241 0.0
H697 H 0.34578 0.50862 0.31707 0.0
H698 H 0.40012 0.41953 0.30789 0.0
H699 H 0.51791 0.70637 0.33981 0.0
H700 H 0.27221 0.44619 0.33293 0.0
H701 H 0.32743 0.3577 0.32434 0.0
Gd702 Gd 0.53017 0.03136 0.04997 0.0
Gd703 Gd 0.49025 0.96543 0.99178 0.0
C704 C 0.3497 0.83614 0.98869 0.0
C705 C 0.3728 0.78081 0.98109 0.0
C706 C 0.43114 0.85937 0.98412 0.0
C707 C 0.39691 0.86986 0.98849 0.0
C708 C 0.41955 0.81492 0.97963 0.0
C709 C 0.33789 0.79141 0.98566 0.0
C710 C 0.3158 0.84857 0.99103 0.0
C711 C 0.32937 0.89374 0.99197 0.0
N712 N 0.4097 0.91346 0.99091 0.0
C713 C 0.37667 0.92591 0.99143 0.0
H714 H 0.3864 0.96057 0.99232 0.0
C715 C 0.5101 0.88549 0.9745 0.0
N716 N 0.4757 0.89322 0.98253 0.0
C717 C 0.50049 0.84195 0.96996 0.0
C718 C 0.45511 0.80638 0.97293 0.0
H719 H 0.54528 0.91284 0.97227 0.0
H720 H 0.30185 0.76498 0.98603 0.0
H721 H 0.63213 0.03282 0.05157 0.0
H722 H 0.27916 0.82371 0.99138 0.0
H723 H 0.30344 0.90384 0.99319 0.0
H724 H 0.36318 0.74637 0.97798 0.0
H725 H 0.47541 0.08765 0.06307 0.0
H726 H 0.74194 0.16861 0.05395 0.0
H727 H 0.71565 0.08803 0.05233 0.0
H728 H 0.6611 0.25018 0.06194 0.0
H729 H 0.5281 0.83588 0.96422 0.0
H730 H 0.44769 0.77271 0.96931 0.0
H731 H 0.72125 0.229 0.05732 0.0
H732 H 0.49453 0.16577 0.06888 0.0
N733 N 0.61078 0.08143 0.05212 0.0
C734 C 0.7051 0.14447 0.05366 0.0
C735 C 0.69039 0.09902 0.05279 0.0
C736 C 0.67204 0.15814 0.05481 0.0
C737 C 0.62452 0.12534 0.05422 0.0
C738 C 0.64284 0.06776 0.05239 0.0
N739 N 0.54568 0.10451 0.05703 0.0
C740 C 0.59086 0.13727 0.05673 0.0
C741 C 0.52197 0.15824 0.06537 0.0
C742 C 0.56825 0.1926 0.06402 0.0
C743 C 0.51127 0.11406 0.06215 0.0
C744 C 0.60347 0.1823 0.06 0.0
H745 H 0.57647 0.22679 0.06659 0.0
O746 O 0.4923 0.01934 0.08501 0.0
O747 O 0.47399 0.97142 0.03145 0.0
O748 O 0.4672 0.01675 0.99535 0.0
O749 O 0.52076 0.07323 0.02076 0.0
O750 O 0.45392 0.00795 0.05336 0.0
O751 O 0.55429 0.01401 0.08351 0.0
O752 O 0.52724 0.98057 0.95623 0.0
O753 O 0.54642 0.02433 1.01076 0.0
O754 O 0.55062 0.97796 0.04827 0.0
O755 O 0.50486 0.92413 0.01883 0.0
O756 O 0.56701 0.99 0.9877 0.0
O757 O 0.46451 0.98409 0.95941 0.0
C758 C 0.43915 0.97243 0.04026 0.0
C759 C 0.65069 0.21534 0.05968 0.0
C760 C 0.68493 0.20328 0.05706 0.0
C761 C 0.5209 0.01159 0.09756 0.0
C762 C 0.53359 0.03176 0.12244 0.0
C763 C 0.56047 0.07815 0.12483 0.0
C764 C 0.51722 0.00452 0.14406 0.0
C765 C 0.52694 0.02368 0.16797 0.0
C766 C 0.57059 0.09727 0.14838 0.0
C767 C 0.55386 0.0704 0.16975 0.0
C768 C 0.48885 0.05848 1.00321 0.0
C769 C 0.5816 0.02427 1.00182 0.0
C770 C 0.4973 0.98748 0.94453 0.0
C771 C 0.48288 0.96668 0.9199 0.0
C772 C 0.45403 0.92038 0.9181 0.0
C773 C 0.4981 0.99315 0.89799 0.0
C774 C 0.48406 0.9734 0.87435 0.0
C775 C 0.44049 0.9006 0.89485 0.0
C776 C 0.45527 0.92674 0.87318 0.0
C777 C 0.53312 0.93797 0.03813 0.0
H778 H 0.57333 0.09957 0.1085 0.0
H779 H 0.49612 0.96864 0.14224 0.0
H780 H 0.59137 0.13314 0.15008 0.0
H781 H 0.56246 0.08622 0.18776 0.0
H782 H 0.44199 0.89955 0.93466 0.0
H783 H 0.52009 0.02901 0.89939 0.0
H784 H 0.41838 0.86478 0.89361 0.0
H785 H 0.44441 0.91028 0.85542 0.0
Gd786 Gd 0.97236 0.48836 0.04899 0.0
Gd787 Gd 0.04472 0.51493 0.99211 0.0
C788 C 0.18053 0.51225 0.99514 0.0
C789 C 0.23827 0.59076 0.98991 0.0
C790 C 0.15595 0.5662 0.98787 0.0
C791 C 0.14502 0.52286 0.99257 0.0
C792 C 0.20266 0.60044 0.98542 0.0
C793 C 0.22711 0.54672 0.99506 0.0
C794 C 0.16814 0.46732 0.99709 0.0
C795 C 0.12139 0.43437 0.99553 0.0
N796 N 0.09958 0.49071 0.99314 0.0
C797 C 0.08739 0.44672 0.9933 0.0
H798 H 0.05138 0.42092 0.99266 0.0
C799 C 0.12936 0.61475 0.97501 0.0
N800 N 0.1206 0.57425 0.98405 0.0
C801 C 0.17517 0.64987 0.97214 0.0
C802 C 0.21202 0.64295 0.9779 0.0
H803 H 0.10095 0.62043 0.97096 0.0
H804 H 0.25467 0.5395 0.99843 0.0
H805 H 0.97719 0.58825 0.04935 0.0
H806 H 0.19438 0.45772 0.9991 0.0
H807 H 0.11144 0.39947 0.99645 0.0
H808 H 0.27444 0.61678 0.98884 0.0
H809 H 0.90722 0.38003 0.06346 0.0
H810 H 0.83832 0.56468 0.04639 0.0
H811 H 0.92309 0.61701 0.04754 0.0
H812 H 0.74495 0.40557 0.05329 0.0
H813 H 0.18199 0.68231 0.96573 0.0
H814 H 0.24745 0.67022 0.97578 0.0
H815 H 0.7725 0.48584 0.04738 0.0
H816 H 0.82374 0.32312 0.06759 0.0
N817 N 0.92389 0.51985 0.04921 0.0
C818 C 0.86197 0.55177 0.04747 0.0
C819 C 0.90977 0.58139 0.04815 0.0
C820 C 0.84524 0.50583 0.0488 0.0
C821 C 0.87746 0.49073 0.05005 0.0
C822 C 0.9404 0.56481 0.04925 0.0
N823 N 0.89424 0.43274 0.05478 0.0
C824 C 0.86214 0.44575 0.05285 0.0
C825 C 0.83406 0.35745 0.0633 0.0
C826 C 0.80039 0.36979 0.05976 0.0
C827 C 0.88118 0.38968 0.06106 0.0
C828 C 0.81424 0.41454 0.05484 0.0
H829 H 0.76391 0.34476 0.06143 0.0
O830 O 0.9772 0.46034 0.0842 0.0
O831 O 0.03686 0.49487 0.03206 0.0
O832 O 0.99045 0.44084 0.99585 0.0
O833 O 0.93042 0.43665 0.02052 0.0
O834 O 0.99731 0.439 0.05408 0.0
O835 O 0.98554 0.52667 0.08284 0.0
O836 O 0.03367 0.5349 0.95562 0.0
O837 O 0.98092 0.50905 1.00937 0.0
O838 O 0.03042 0.56098 0.04851 0.0
O839 O 0.08632 0.5712 1.01829 0.0
O840 O 0.01791 0.56277 0.98588 0.0
O841 O 0.03121 0.47166 0.96046 0.0
C842 C 0.03562 0.46078 0.04153 0.0
C843 C 0.78194 0.42914 0.05234 0.0
C844 C 0.79749 0.47472 0.04916 0.0
C845 C 0.98364 0.49489 0.09686 0.0
C846 C 0.95792 0.48534 0.12048 0.0
C847 C 0.90932 0.46467 0.12129 0.0
C848 C 0.98276 0.49537 0.14269 0.0
C849 C 0.95942 0.4844 0.16581 0.0
C850 C 0.88583 0.45369 0.14421 0.0
C851 C 0.91063 0.46323 0.16638 0.0
C852 C 0.94654 0.41978 1.00382 0.0
C853 C 0.98095 0.54227 0.99956 0.0
C854 C 0.03013 0.49989 0.94475 0.0
C855 C 0.05695 0.50824 0.92158 0.0
C856 C 0.10484 0.52389 0.92185 0.0
C857 C 0.03412 0.5008 0.89882 0.0
C858 C 0.05878 0.50887 0.8762 0.0
C859 C 0.12964 0.53208 0.8995 0.0
C860 C 0.10686 0.52463 0.87678 0.0
C861 C 0.07193 0.58455 0.0377 0.0
H862 H 0.88963 0.45672 0.10432 0.0
H863 H 0.02033 0.5109 0.14194 0.0
H864 H 0.84829 0.43761 0.1448 0.0
H865 H 0.89177 0.45464 0.18394 0.0
H866 H 0.12296 0.52972 0.93925 0.0
H867 H 0.99694 0.48807 0.8988 0.0
H868 H 0.16664 0.54428 0.89977 0.0
H869 H 0.12693 0.5316 0.8597 0.0
Gd870 Gd 0.48826 0.51162 0.9933 0.0
Gd871 Gd 0.52265 0.47999 0.0514 0.0
C872 C 0.65671 0.47466 0.05867 0.0
C873 C 0.6273 0.39595 0.06734 0.0
C874 C 0.57381 0.42364 0.06108 0.0
C875 C 0.61067 0.46614 0.05697 0.0
C876 C 0.58164 0.38818 0.06687 0.0
C877 C 0.66474 0.43916 0.06338 0.0
C878 C 0.69316 0.51882 0.05675 0.0
C879 C 0.68309 0.55324 0.05439 0.0
N880 N 0.60147 0.49975 0.05344 0.0
C881 C 0.63677 0.54309 0.05329 0.0
H882 H 0.62953 0.57006 0.05164 0.0
C883 C 0.4934 0.378 0.06914 0.0
N884 N 0.53036 0.41777 0.06142 0.0
C885 C 0.49927 0.34163 0.0747 0.0
C886 C 0.54352 0.34654 0.07319 0.0
H887 H 0.45905 0.37385 0.07045 0.0
H888 H 0.69967 0.44494 0.06504 0.0
H889 H 0.38478 0.41684 0.99154 0.0
H890 H 0.72904 0.52682 0.05789 0.0
H891 H 0.71095 0.58761 0.05351 0.0
H892 H 0.63408 0.36915 0.07168 0.0
H893 H 0.54752 0.62187 0.98343 0.0
H894 H 0.27941 0.45094 0.97967 0.0
H895 H 0.3025 0.39398 0.98616 0.0
H896 H 0.36533 0.61008 0.971 0.0
H897 H 0.46968 0.3099 0.0802 0.0
H898 H 0.54808 0.31846 0.07775 0.0
H899 H 0.30366 0.53126 0.97263 0.0
H900 H 0.53159 0.6832 0.97527 0.0
N901 N 0.40845 0.48646 0.98956 0.0
C902 C 0.31568 0.46127 0.98239 0.0
C903 C 0.32857 0.42904 0.98599 0.0
C904 C 0.34988 0.50643 0.98175 0.0
C905 C 0.39653 0.51817 0.98561 0.0
C906 C 0.37543 0.44224 0.98909 0.0
N907 N 0.4761 0.57203 0.98622 0.0
C908 C 0.43142 0.56236 0.98405 0.0
C909 C 0.50308 0.64939 0.97777 0.0
C910 C 0.45723 0.64017 0.97608 0.0
C911 C 0.51198 0.61461 0.98239 0.0
C912 C 0.42073 0.59614 0.97876 0.0
H913 H 0.45043 0.66708 0.9721 0.0
O914 O 0.5259 0.53811 0.9584 0.0
O915 O 0.54288 0.50242 1.01189 0.0
O916 O 0.54934 0.5544 0.04774 0.0
O917 O 0.49589 0.56047 0.02284 0.0
O918 O 0.56537 0.55961 0.99063 0.0
O919 O 0.46439 0.47244 0.95962 0.0
O920 O 0.4861 0.46099 0.08707 0.0
O921 O 0.46816 0.48828 0.03228 0.0
O922 O 0.46547 0.43794 0.99439 0.0
O923 O 0.50891 0.4257 0.02433 0.0
O924 O 0.44508 0.43306 0.05483 0.0
O925 O 0.55118 0.52301 0.08339 0.0
C926 C 0.57884 0.53677 1.00352 0.0
C927 C 0.37425 0.5847 0.97533 0.0
C928 C 0.33901 0.53989 0.97654 0.0
C929 C 0.49703 0.50343 0.94566 0.0
C930 C 0.4829 0.51259 0.92148 0.0
C931 C 0.4541 0.53129 0.92015 0.0
C932 C 0.49934 0.50338 0.89939 0.0
C933 C 0.48753 0.51325 0.87601 0.0
C934 C 0.44211 0.54102 0.89709 0.0
C935 C 0.45874 0.53222 0.87516 0.0
C936 C 0.52817 0.57603 0.04011 0.0
C937 C 0.43184 0.45468 0.04075 0.0
C938 C 0.51829 0.49552 0.09853 0.0
C939 C 0.53315 0.48657 0.12253 0.0
C940 C 0.56356 0.4696 0.12338 0.0
C941 C 0.51704 0.49536 0.14487 0.0
C942 C 0.53164 0.48769 0.168 0.0
C943 C 0.57771 0.46143 0.14619 0.0
C944 C 0.562 0.47044 0.16836 0.0
C945 C 0.48157 0.41361 1.00473 0.0
H946 H 0.44103 0.53849 0.93687 0.0
H947 H 0.52194 0.48925 0.90044 0.0
H948 H 0.41982 0.55544 0.89621 0.0
H949 H 0.44856 0.53971 0.85751 0.0
H950 H 0.5765 0.46287 0.10645 0.0
H951 H 0.49397 0.509 0.1442 0.0
H952 H 0.60109 0.44819 0.14669 0.0
H953 H 0.57339 0.46364 0.18583 0.0
Gd954 Gd 0.19685 0.3647 0.3833 0.0
Gd955 Gd 0.15694 0.29876 0.32511 0.0
C956 C 0.01638 0.16947 0.32202 0.0
C957 C 0.03949 0.11415 0.31442 0.0
C958 C 0.09783 0.1927 0.31745 0.0
C959 C 0.0636 0.20319 0.32182 0.0
C960 C 0.08624 0.14825 0.31296 0.0
C961 C 1.00458 0.12474 0.319 0.0
C962 C 0.98249 0.1819 0.32437 0.0
C963 C 0.99605 0.22707 0.3253 0.0
N964 N 0.07639 0.24679 0.32424 0.0
C965 C 0.04335 0.25925 0.32477 0.0
H966 H 0.05309 0.2939 0.32566 0.0
C967 C 0.17679 0.21883 0.30783 0.0
N968 N 0.14239 0.22656 0.31586 0.0
C969 C 0.16718 0.17529 0.3033 0.0
C970 C 0.1218 0.13972 0.30626 0.0
H971 H 0.21197 0.24618 0.3056 0.0
H972 H 0.96854 0.09831 0.31937 0.0
H973 H 0.29882 0.36616 0.3849 0.0
H974 H 0.94585 0.15705 0.32472 0.0
H975 H 0.97012 0.23717 0.32652 0.0
H976 H 0.02987 0.0797 0.31131 0.0
H977 H 0.14209 0.42098 0.3964 0.0
H978 H 0.40863 0.50195 0.38729 0.0
H979 H 0.38234 0.42136 0.38567 0.0
H980 H 0.32778 0.58352 0.39528 0.0
H981 H 0.19479 0.16922 0.29756 0.0
H982 H 0.11438 0.10604 0.30264 0.0
H983 H 0.38793 0.56234 0.39065 0.0
H984 H 0.16121 0.4991 0.40221 0.0
N985 N 0.27746 0.41477 0.38546 0.0
C986 C 0.37179 0.47781 0.38699 0.0
C987 C 0.35708 0.43236 0.38613 0.0
C988 C 0.33872 0.49147 0.38815 0.0
C989 C 0.29121 0.45867 0.38755 0.0
C990 C 0.30953 0.4011 0.38572 0.0
N991 N 0.21236 0.43785 0.39036 0.0
C992 C 0.25754 0.47061 0.39006 0.0
C993 C 0.18865 0.49158 0.39871 0.0
C994 C 0.23493 0.52593 0.39735 0.0
C995 C 0.17795 0.44739 0.39548 0.0
C996 C 0.27015 0.51564 0.39333 0.0
H997 H 0.24315 0.56012 0.39992 0.0
O998 O 0.15898 0.35267 0.41834 0.0
O999 O 0.14068 0.30475 0.36479 0.0
O1000 O 0.13389 0.35008 0.32868 0.0
O1001 O 0.18745 0.40657 0.35409 0.0
O1002 O 0.1206 0.34129 0.3867 0.0
O1003 O 0.22098 0.34735 0.41685 0.0
O1004 O 0.19393 0.3139 0.28956 0.0
O1005 O 0.21311 0.35766 0.3441 0.0
O1006 O 0.21731 0.31129 0.3816 0.0
O1007 O 0.17155 0.25747 0.35217 0.0
O1008 O 0.2337 0.32334 0.32103 0.0
O1009 O 0.1312 0.31743 0.29274 0.0
C1010 C 0.10583 0.30577 0.37359 0.0
C1011 C 0.31737 0.54868 0.39302 0.0
C1012 C 0.35161 0.53662 0.3904 0.0
C1013 C 0.18759 0.34492 0.4309 0.0
C1014 C 0.20027 0.3651 0.45577 0.0
C1015 C 0.22715 0.41149 0.45816 0.0
C1016 C 0.1839 0.33785 0.47739 0.0
C1017 C 0.19361 0.35701 0.5013 0.0
C1018 C 0.23727 0.4306 0.48171 0.0
C1019 C 0.22054 0.40374 0.50309 0.0
C1020 C 0.15554 0.39181 0.33654 0.0
C1021 C 0.24828 0.3576 0.33516 0.0
C1022 C 0.16399 0.32081 0.27787 0.0
C1023 C 0.14956 0.30001 0.25323 0.0
C1024 C 0.12071 0.25372 0.25143 0.0
C1025 C 0.16478 0.32649 0.23132 0.0
C1026 C 0.15073 0.30674 0.20768 0.0
C1027 C 0.10717 0.23393 0.22819 0.0
C1028 C 0.12195 0.26008 0.20651 0.0
C1029 C 0.19981 0.27131 0.37146 0.0
H1030 H 0.24001 0.4329 0.44183 0.0
H1031 H 0.16281 0.30197 0.47557 0.0
H1032 H 0.25804 0.46648 0.48342 0.0
H1033 H 0.22913 0.41955 0.5211 0.0
H1034 H 0.10867 0.23289 0.26799 0.0
H1035 H 0.18677 0.36235 0.23272 0.0
H1036 H 0.08506 0.19812 0.22694 0.0
H1037 H 0.11109 0.24362 0.18875 0.0
Gd1038 Gd 0.63903 0.82171 0.38233 0.0
Gd1039 Gd 0.71139 0.84828 0.32544 0.0
C1040 C 0.84727 0.84573 0.32847 0.0
C1041 C 0.90495 0.92425 0.32322 0.0
C1042 C 0.82261 0.89962 0.32119 0.0
C1043 C 0.81173 0.85631 0.3259 0.0
C1044 C 0.86932 0.93389 0.31873 0.0
C1045 C 0.89383 0.88023 0.32837 0.0
C1046 C 0.83491 0.8008 0.33042 0.0
C1047 C 0.78817 0.76783 0.32887 0.0
N1048 N 0.76629 0.82413 0.32647 0.0
C1049 C 0.75414 0.78014 0.32663 0.0
H1050 H 0.71814 0.75433 0.32599 0.0
C1051 C 0.79597 0.94812 0.30832 0.0
N1052 N 0.78724 0.90764 0.31736 0.0
C1053 C 0.84176 0.98326 0.30545 0.0
C1054 C 0.87864 0.97639 0.31121 0.0
H1055 H 0.76754 0.95377 0.30427 0.0
H1056 H 0.92142 0.87304 0.33175 0.0
H1057 H 0.64386 0.9216 0.38269 0.0
H1058 H 0.86117 0.79124 0.33243 0.0
H1059 H 0.77825 0.73294 0.32978 0.0
H1060 H 0.94112 0.95029 0.32215 0.0
H1061 H 0.57389 0.71338 0.39678 0.0
H1062 H 0.50499 0.89802 0.37972 0.0
H1063 H 0.58976 0.95036 0.38088 0.0
H1064 H 0.41162 0.73892 0.38662 0.0
H1065 H 0.84855 0.01569 0.29903 0.0
H1066 H 0.91406 0.00367 0.30907 0.0
H1067 H 0.43917 0.81919 0.38072 0.0
H1068 H 0.49041 0.65646 0.40091 0.0
N1069 N 0.59056 0.85319 0.38255 0.0
C1070 C 0.52864 0.88511 0.38081 0.0
C1071 C 0.57643 0.91473 0.38149 0.0
C1072 C 0.51191 0.83917 0.38214 0.0
C1073 C 0.54413 0.82408 0.38339 0.0
C1074 C 0.60707 0.89815 0.38259 0.0
N1075 N 0.56091 0.76609 0.38811 0.0
C1076 C 0.52881 0.77909 0.38618 0.0
C1077 C 0.50073 0.69079 0.39663 0.0
C1078 C 0.46706 0.70313 0.39309 0.0
C1079 C 0.54785 0.72302 0.39439 0.0
C1080 C 0.48092 0.74788 0.38817 0.0
H1081 H 0.43058 0.6781 0.39476 0.0
O1082 O 0.64386 0.79368 0.41753 0.0
O1083 O 0.70353 0.82823 0.36539 0.0
O1084 O 0.65714 0.77419 0.32919 0.0
O1085 O 0.5971 0.77 0.35385 0.0
O1086 O 0.66399 0.77235 0.38741 0.0
O1087 O 0.65222 0.86001 0.41617 0.0
O1088 O 0.70029 0.86821 0.28895 0.0
O1089 O 0.64759 0.84239 0.3427 0.0
O1090 O 0.69709 0.89433 0.38185 0.0
O1091 O 0.75298 0.90456 0.35162 0.0
O1092 O 0.68456 0.89611 0.31921 0.0
O1093 O 0.6979 0.80501 0.2938 0.0
C1094 C 0.70229 0.79413 0.37486 0.0
C1095 C 0.44861 0.76248 0.38568 0.0
C1096 C 0.46416 0.80807 0.38249 0.0
C1097 C 0.65031 0.82823 0.43019 0.0
C1098 C 0.62459 0.81868 0.45381 0.0
C1099 C 0.57599 0.79801 0.45462 0.0
C1100 C 0.64943 0.8287 0.47602 0.0
C1101 C 0.62608 0.81774 0.49914 0.0
C1102 C 0.5525 0.78703 0.47754 0.0
C1103 C 0.57729 0.79657 0.49971 0.0
C1104 C 0.61323 0.75313 0.33715 0.0
C1105 C 0.6476 0.87561 0.33289 0.0
C1106 C 0.69679 0.83322 0.27808 0.0
C1107 C 0.72361 0.84157 0.25491 0.0
C1108 C 0.7715 0.85724 0.25518 0.0
C1109 C 0.70078 0.83413 0.23216 0.0
C1110 C 0.72544 0.84221 0.20953 0.0
C1111 C 0.7963 0.86544 0.23283 0.0
C1112 C 0.77352 0.85799 0.21012 0.0
C1113 C 0.7386 0.9179 0.37103 0.0
H1114 H 0.5563 0.79006 0.43765 0.0
H1115 H 0.687 0.84424 0.47527 0.0
H1116 H 0.51496 0.77095 0.47813 0.0
H1117 H 0.55844 0.78798 0.51727 0.0
H1118 H 0.78962 0.86307 0.27259 0.0
H1119 H 0.6636 0.82139 0.23213 0.0
H1120 H 0.83331 0.87765 0.2331 0.0
H1121 H 0.7936 0.86497 0.19303 0.0
Gd1122 Gd 0.15491 0.84493 0.32663 0.0
Gd1123 Gd 0.18931 0.81331 0.38473 0.0
C1124 C 0.32338 0.80799 0.392 0.0
C1125 C 0.29397 0.72928 0.40067 0.0
C1126 C 0.24048 0.75697 0.39442 0.0
C1127 C 0.27733 0.79947 0.39031 0.0
C1128 C 0.24831 0.72151 0.40021 0.0
C1129 C 0.33141 0.77249 0.39671 0.0
C1130 C 0.35983 0.85215 0.39008 0.0
C1131 C 0.34975 0.88657 0.38772 0.0
N1132 N 0.26812 0.83308 0.38678 0.0
C1133 C 0.30343 0.87642 0.38662 0.0
H1134 H 0.29619 0.90339 0.38497 0.0
C1135 C 0.16006 0.71132 0.40248 0.0
N1136 N 0.19702 0.75109 0.39476 0.0
C1137 C 0.16594 0.67496 0.40804 0.0
C1138 C 0.21019 0.67987 0.40653 0.0
H1139 H 0.12571 0.70717 0.40378 0.0
H1140 H 0.36633 0.77827 0.39837 0.0
H1141 H 0.05147 0.75009 0.32487 0.0
H1142 H 0.3957 0.86015 0.39122 0.0
H1143 H 0.37761 0.92094 0.38684 0.0
H1144 H 0.30075 0.70249 0.40502 0.0
H1145 H 0.21407 0.95518 0.31676 0.0
H1146 H 0.94601 0.78406 0.31301 0.0
H1147 H 0.96917 0.72715 0.3195 0.0
H1148 H 0.03178 0.9432 0.30436 0.0
H1149 H 0.13634 0.64323 0.41355 0.0
H1150 H 0.21475 0.65179 0.41109 0.0
H1151 H 0.97017 0.86436 0.30599 0.0
H1152 H 0.19805 0.01646 0.30861 0.0
N1153 N 0.07508 0.8197 0.32289 0.0
C1154 C 0.98228 0.79443 0.31573 0.0
C1155 C 0.99522 0.76223 0.31933 0.0
C1156 C 0.01645 0.83959 0.31509 0.0
C1157 C 0.06311 0.85138 0.31895 0.0
C1158 C 0.04209 0.77547 0.32243 0.0
N1159 N 0.14267 0.90529 0.31956 0.0
C1160 C 0.09797 0.89558 0.31739 0.0
C1161 C 0.16957 0.98264 0.3111 0.0
C1162 C 0.1237 0.97338 0.30942 0.0
C1163 C 0.17851 0.94789 0.31572 0.0
C1164 C 0.08723 0.92933 0.3121 0.0
H1165 H 0.11687 0.00026 0.30544 0.0
O1166 O 0.19255 0.87147 0.29174 0.0
O1167 O 0.20953 0.83575 0.34522 0.0
O1168 O 0.216 0.88773 0.38108 0.0
O1169 O 0.16254 0.89379 0.35617 0.0
O1170 O 0.23201 0.89293 0.32397 0.0
O1171 O 0.13108 0.80577 0.29294 0.0
O1172 O 0.15275 0.79432 0.42041 0.0
O1173 O 0.13482 0.82159 0.36562 0.0
O1174 O 0.13216 0.77126 0.32772 0.0
O1175 O 0.17558 0.75902 0.35767 0.0
O1176 O 0.11174 0.76638 0.38816 0.0
O1177 O 0.21784 0.85634 0.41672 0.0
C1178 C 0.24549 0.8701 0.33685 0.0
C1179 C 0.04074 0.91785 0.30868 0.0
C1180 C 1.00554 0.87302 0.30989 0.0
C1181 C 0.1637 0.83678 0.27899 0.0
C1182 C 0.14957 0.84594 0.25481 0.0
C1183 C 0.12076 0.86463 0.25348 0.0
C1184 C 0.16601 0.83672 0.23273 0.0
C1185 C 0.15418 0.84658 0.20935 0.0
C1186 C 0.10876 0.87435 0.23042 0.0
C1187 C 0.12539 0.86555 0.20849 0.0
C1188 C 0.19483 0.90935 0.37344 0.0
C1189 C 0.0985 0.78799 0.37409 0.0
C1190 C 0.18495 0.82885 0.43186 0.0
C1191 C 0.19981 0.8199 0.45587 0.0
C1192 C 0.23021 0.80293 0.45671 0.0
C1193 C 0.18369 0.82869 0.4782 0.0
C1194 C 0.19829 0.82101 0.50133 0.0
C1195 C 0.24437 0.79475 0.47952 0.0
C1196 C 0.22865 0.80377 0.5017 0.0
C1197 C 0.14825 0.74693 0.33806 0.0
H1198 H 0.10768 0.87182 0.2702 0.0
H1199 H 0.18861 0.8226 0.23378 0.0
H1200 H 0.08647 0.88876 0.22954 0.0
H1201 H 0.1152 0.87303 0.19084 0.0
H1202 H 0.24316 0.7962 0.43979 0.0
H1203 H 0.16062 0.84232 0.47753 0.0
H1204 H 0.26774 0.78152 0.48002 0.0
H1205 H 0.24004 0.79696 0.51916 0.0
Gd1206 Gd 0.8635 0.69803 0.71664 0.0
Gd1207 Gd 0.82359 0.63209 0.65845 0.0
C1208 C 0.68303 0.5028 0.65535 0.0
C1209 C 0.70614 0.44748 0.64775 0.0
C1210 C 0.76448 0.52604 0.65078 0.0
C1211 C 0.73025 0.53652 0.65515 0.0
C1212 C 0.75288 0.48158 0.64629 0.0
C1213 C 0.67123 0.45807 0.65233 0.0
C1214 C 0.64913 0.51523 0.6577 0.0
C1215 C 0.6627 0.5604 0.65863 0.0
N1216 N 0.74304 0.58012 0.65757 0.0
C1217 C 0.71 0.59258 0.6581 0.0
H1218 H 0.71974 0.62723 0.65899 0.0
C1219 C 0.84343 0.55216 0.64117 0.0
N1220 N 0.80903 0.55989 0.64919 0.0
C1221 C 0.83383 0.50862 0.63663 0.0
C1222 C 0.78844 0.47305 0.6396 0.0
H1223 H 0.87862 0.57951 0.63893 0.0
H1224 H 0.63519 0.43164 0.6527 0.0
H1225 H 0.96547 0.69949 0.71823 0.0
H1226 H 0.61249 0.49038 0.65805 0.0
H1227 H 0.63677 0.5705 0.65986 0.0
H1228 H 0.69652 0.41303 0.64464 0.0
H1229 H 0.80874 0.75431 0.72973 0.0
H1230 H 0.07528 0.83527 0.72062 0.0
H1231 H 0.04899 0.75469 0.719 0.0
H1232 H 0.99443 0.91685 0.72861 0.0
H1233 H 0.86143 0.50255 0.63089 0.0
H1234 H 0.78103 0.43937 0.63597 0.0
H1235 H 0.05459 0.89567 0.72399 0.0
H1236 H 0.82786 0.83243 0.73554 0.0
N1237 N 0.94411 0.7481 0.71879 0.0
C1238 C 0.03844 0.81113 0.72032 0.0
C1239 C 0.02373 0.76569 0.71946 0.0
C1240 C 1.00537 0.8248 0.72148 0.0
C1241 C 0.95786 0.792 0.72088 0.0
C1242 C 0.97618 0.73443 0.71906 0.0
N1243 N 0.87901 0.77118 0.72369 0.0
C1244 C 0.92419 0.80394 0.7234 0.0
C1245 C 0.8553 0.82491 0.73204 0.0
C1246 C 0.90158 0.85926 0.73068 0.0
C1247 C 0.8446 0.78073 0.72882 0.0
C1248 C 0.9368 0.84897 0.72666 0.0
H1249 H 0.9098 0.89345 0.73326 0.0
O1250 O 0.82563 0.686 0.75167 0.0
O1251 O 0.80733 0.63808 0.69812 0.0
O1252 O 0.80054 0.68342 0.66202 0.0
O1253 O 0.8541 0.7399 0.68743 0.0
O1254 O 0.78725 0.67462 0.72003 0.0
O1255 O 0.88763 0.68068 0.75018 0.0
O1256 O 0.86057 0.64723 0.6229 0.0
O1257 O 0.87975 0.69099 0.67743 0.0
O1258 O 0.88396 0.64462 0.71493 0.0
O1259 O 0.8382 0.5908 0.6855 0.0
O1260 O 0.90034 0.65667 0.65436 0.0
O1261 O 0.79785 0.65076 0.62607 0.0
C1262 C 0.77248 0.6391 0.70693 0.0
C1263 C 0.98402 0.88201 0.72635 0.0
C1264 C 0.01827 0.86995 0.72373 0.0
C1265 C 0.85424 0.67825 0.76423 0.0
C1266 C 0.86692 0.69843 0.78911 0.0
C1267 C 0.8938 0.74482 0.7915 0.0
C1268 C 0.85056 0.67118 0.81072 0.0
C1269 C 0.86027 0.69034 0.83464 0.0
C1270 C 0.90393 0.76394 0.81504 0.0
C1271 C 0.8872 0.73707 0.83642 0.0
C1272 C 0.82219 0.72514 0.66988 0.0
C1273 C 0.91493 0.69093 0.66849 0.0
C1274 C 0.83063 0.65414 0.6112 0.0
C1275 C 0.81621 0.63335 0.58657 0.0
C1276 C 0.78735 0.58705 0.58476 0.0
C1277 C 0.83143 0.65982 0.56465 0.0
C1278 C 0.81738 0.64007 0.54102 0.0
C1279 C 0.77382 0.56727 0.56152 0.0
C1280 C 0.78859 0.59341 0.53985 0.0
C1281 C 0.86646 0.60464 0.70479 0.0
H1282 H 0.90667 0.76623 0.77516 0.0
H1283 H 0.82946 0.6353 0.80891 0.0
H1284 H 0.9247 0.79981 0.81675 0.0
H1285 H 0.89579 0.75289 0.85443 0.0
H1286 H 0.77531 0.56622 0.60133 0.0
H1287 H 0.85342 0.69568 0.56606 0.0
H1288 H 0.7517 0.53145 0.56028 0.0
H1289 H 0.77773 0.57695 0.52209 0.0
Gd1290 Gd 0.30569 0.15503 0.71566 0.0
Gd1291 Gd 0.37806 0.18159 0.65878 0.0
C1292 C 0.51387 0.17892 0.66181 0.0
C1293 C 0.5716 0.25742 0.65658 0.0
C1294 C 0.48928 0.23286 0.65454 0.0
C1295 C 0.47836 0.18953 0.65924 0.0
C1296 C 0.536 0.2671 0.65208 0.0
C1297 C 0.56045 0.21339 0.66172 0.0
C1298 C 0.50147 0.13398 0.66376 0.0
C1299 C 0.45473 0.10103 0.6622 0.0
N1300 N 0.43291 0.15738 0.65981 0.0
C1301 C 0.42073 0.11338 0.65997 0.0
H1302 H 0.38472 0.08759 0.65932 0.0
C1303 C 0.4627 0.28141 0.64167 0.0
N1304 N 0.45393 0.24091 0.65071 0.0
C1305 C 0.5085 0.31653 0.63881 0.0
C1306 C 0.54535 0.30962 0.64457 0.0
H1307 H 0.43429 0.28709 0.63762 0.0
H1308 H 0.58801 0.20617 0.6651 0.0
H1309 H 0.31052 0.25492 0.71602 0.0
H1310 H 0.52771 0.12439 0.66577 0.0
H1311 H 0.44477 0.06613 0.66311 0.0
H1312 H 0.60778 0.28345 0.65551 0.0
H1313 H 0.24055 0.0467 0.73012 0.0
H1314 H 0.17165 0.23134 0.71305 0.0
H1315 H 0.25642 0.28368 0.7142 0.0
H1316 H 0.07828 0.07224 0.71996 0.0
H1317 H 0.51533 0.34897 0.6324 0.0
H1318 H 0.58078 0.33688 0.64244 0.0
H1319 H 0.10583 0.15251 0.71405 0.0
H1320 H 0.15707 0.98978 0.73425 0.0
N1321 N 0.25722 0.18651 0.71588 0.0
C1322 C 0.19531 0.21843 0.71414 0.0
C1323 C 0.2431 0.24805 0.71482 0.0
C1324 C 0.17857 0.17249 0.71547 0.0
C1325 C 0.21079 0.1574 0.71672 0.0
C1326 C 0.27374 0.23147 0.71591 0.0
N1327 N 0.22758 0.09941 0.72144 0.0
C1328 C 0.19547 0.11241 0.71951 0.0
C1329 C 0.16739 0.02412 0.72997 0.0
C1330 C 0.13372 0.03645 0.72643 0.0
C1331 C 0.21451 0.05634 0.72773 0.0
C1332 C 0.14758 0.0812 0.7215 0.0
H1333 H 0.09724 0.01142 0.7281 0.0
O1334 O 0.31053 0.12701 0.75086 0.0
O1335 O 0.37019 0.16154 0.69872 0.0
O1336 O 0.32379 0.10751 0.66252 0.0
O1337 O 0.26375 0.10332 0.68718 0.0
O1338 O 0.33064 0.10567 0.72075 0.0
O1339 O 0.31888 0.19334 0.74951 0.0
O1340 O 0.367 0.20157 0.62228 0.0
O1341 O 0.31426 0.17571 0.67604 0.0
O1342 O 0.36375 0.22765 0.71518 0.0
O1343 O 0.41965 0.23787 0.68496 0.0
O1344 O 0.35124 0.22943 0.65254 0.0
O1345 O 0.36454 0.13832 0.62713 0.0
C1346 C 0.36895 0.12745 0.7082 0.0
C1347 C 0.11527 0.0958 0.71901 0.0
C1348 C 0.13082 0.14139 0.71582 0.0
C1349 C 0.31697 0.16156 0.76353 0.0
C1350 C 0.29125 0.15201 0.78715 0.0
C1351 C 0.24265 0.13134 0.78796 0.0
C1352 C 0.31609 0.16204 0.80936 0.0
C1353 C 0.29275 0.15107 0.83247 0.0
C1354 C 0.21916 0.12036 0.81087 0.0
C1355 C 0.24396 0.12991 0.83304 0.0
C1356 C 0.27987 0.08645 0.67048 0.0
C1357 C 0.31428 0.20893 0.66622 0.0
C1358 C 0.36346 0.16656 0.61142 0.0
C1359 C 0.39028 0.1749 0.58825 0.0
C1360 C 0.43817 0.19055 0.58852 0.0
C1361 C 0.36745 0.16745 0.56549 0.0
C1362 C 0.39211 0.17552 0.54287 0.0
C1363 C 0.46297 0.19873 0.56617 0.0
C1364 C 0.44019 0.19128 0.54345 0.0
C1365 C 0.40527 0.25121 0.70436 0.0
H1366 H 0.22297 0.12339 0.77098 0.0
H1367 H 0.35366 0.17757 0.80861 0.0
H1368 H 0.18162 0.10428 0.81146 0.0
H1369 H 0.2251 0.12131 0.85061 0.0
H1370 H 0.45629 0.19638 0.60592 0.0
H1371 H 0.33027 0.15473 0.56547 0.0
H1372 H 0.49997 0.21094 0.56644 0.0
H1373 H 0.46026 0.19825 0.52637 0.0
Gd1374 Gd 0.8216 0.17829 0.65997 0.0
Gd1375 Gd 0.85598 0.14665 0.71806 0.0
C1376 C 0.99005 0.14132 0.72534 0.0
C1377 C 0.96063 0.06261 0.734 0.0
C1378 C 0.90715 0.0903 0.72775 0.0
C1379 C 0.944 0.13281 0.72364 0.0
C1380 C 0.91498 0.05485 0.73354 0.0
C1381 C 0.99808 0.10582 0.73005 0.0
C1382 C 0.0265 0.18549 0.72342 0.0
C1383 C 0.01642 0.21991 0.72106 0.0
N1384 N 0.9348 0.16641 0.72011 0.0
C1385 C 0.97011 0.20976 0.71996 0.0
H1386 H 0.96287 0.23673 0.71831 0.0
C1387 C 0.82673 0.04466 0.73581 0.0
N1388 N 0.86369 0.08443 0.72809 0.0
C1389 C 0.8326 0.0083 0.74137 0.0
C1390 C 0.87686 0.01321 0.73986 0.0
H1391 H 0.79238 0.04051 0.73711 0.0
H1392 H 0.033 0.1116 0.73171 0.0
H1393 H 0.71812 0.0835 0.6582 0.0
H1394 H 0.06237 0.19348 0.72456 0.0
H1395 H 0.04428 0.25428 0.72018 0.0
H1396 H 0.96742 0.03582 0.73835 0.0
H1397 H 0.88086 0.28854 0.6501 0.0
H1398 H 0.61275 0.1176 0.64633 0.0
H1399 H 0.63583 0.06064 0.65283 0.0
H1400 H 0.69866 0.27674 0.63767 0.0
H1401 H 0.80301 0.97657 0.74687 0.0
H1402 H 0.88141 0.98512 0.74442 0.0
H1403 H 0.63699 0.19792 0.6393 0.0
H1404 H 0.86492 0.34987 0.64194 0.0
N1405 N 0.74178 0.15313 0.65622 0.0
C1406 C 0.64901 0.12794 0.64906 0.0
C1407 C 0.66191 0.0957 0.65266 0.0
C1408 C 0.68321 0.17309 0.64842 0.0
C1409 C 0.72987 0.18483 0.65228 0.0
C1410 C 0.70877 0.10891 0.65576 0.0
N1411 N 0.80944 0.23869 0.65289 0.0
C1412 C 0.76476 0.22903 0.65071 0.0
C1413 C 0.83642 0.31606 0.64444 0.0
C1414 C 0.79056 0.30684 0.64275 0.0
C1415 C 0.84531 0.28128 0.64906 0.0
C1416 C 0.75406 0.2628 0.64543 0.0
H1417 H 0.78376 0.33374 0.63877 0.0
O1418 O 0.85924 0.20478 0.62507 0.0
O1419 O 0.87621 0.16909 0.67856 0.0
O1420 O 0.88268 0.22107 0.71441 0.0
O1421 O 0.82923 0.22713 0.68951 0.0
O1422 O 0.8987 0.22627 0.6573 0.0
O1423 O 0.79773 0.13911 0.62628 0.0
O1424 O 0.81943 0.12766 0.75374 0.0
O1425 O 0.8015 0.15494 0.69895 0.0
O1426 O 0.79881 0.10461 0.66106 0.0
O1427 O 0.84225 0.09236 0.691 0.0
O1428 O 0.77842 0.09973 0.72149 0.0
O1429 O 0.88451 0.18968 0.75006 0.0
C1430 C 0.91218 0.20343 0.67018 0.0
C1431 C 0.70758 0.25136 0.642 0.0
C1432 C 0.67235 0.20655 0.64321 0.0
C1433 C 0.83037 0.1701 0.61232 0.0
C1434 C 0.81625 0.17927 0.58814 0.0
C1435 C 0.78745 0.19797 0.58682 0.0
C1436 C 0.83269 0.17005 0.56606 0.0
C1437 C 0.82087 0.17993 0.54268 0.0
C1438 C 0.77545 0.2077 0.56376 0.0
C1439 C 0.79209 0.1989 0.54183 0.0
C1440 C 0.86151 0.2427 0.70678 0.0
C1441 C 0.76517 0.12134 0.70742 0.0
C1442 C 0.85162 0.16218 0.7652 0.0
C1443 C 0.86648 0.15324 0.7892 0.0
C1444 C 0.89688 0.13627 0.79005 0.0
C1445 C 0.85036 0.16202 0.81153 0.0
C1446 C 0.86496 0.15435 0.83466 0.0
C1447 C 0.91104 0.12809 0.81286 0.0
C1448 C 0.89532 0.1371 0.83503 0.0
C1449 C 0.81491 0.08027 0.6714 0.0
H1450 H 0.77437 0.20516 0.60353 0.0
H1451 H 0.85528 0.15593 0.56711 0.0
H1452 H 0.75317 0.22212 0.56288 0.0
H1453 H 0.78191 0.2064 0.52417 0.0
H1454 H 0.90983 0.12953 0.77312 0.0
H1455 H 0.82729 0.17566 0.81086 0.0
H1456 H 0.93441 0.11485 0.81336 0.0
H1457 H 0.90671 0.1303 0.8525 0.0
loop_
_geom_bond_atom_site_label_1
_geom_bond_atom_site_label_2
_geom_bond_distance
_geom_bond_site_symmetry_2
_ccdc_geom_bond_type
C0 C1 1.386 . S
C0 C2 1.397 . S
C0 H24 0.931 . S
C1 C0 1.386 . S
C1 C5 1.397 . S
C2 C0 1.397 . S
C2 C3 1.384 . S
C2 H25 0.930 . S
C3 C2 1.384 . S
C3 C4 1.377 . S
C3 C6 1.481 . S
C4 C3 1.377 . S
C4 C5 1.389 . S
C4 H26 0.929 . S
C5 C1 1.397 . S
C5 C4 1.389 . S
C5 H27 0.931 . S
C6 C3 1.481 . S
C6 C7 1.387 . S
C6 C11 1.390 . S
C7 C6 1.387 . S
C7 C8 1.401 . S
C7 H28 0.930 . S
C8 C7 1.401 . S
C8 C9 1.376 . S
C8 C17 1.511 . S
C9 C8 1.376 . S
C9 C10 1.392 . S
C9 H30 0.931 . S
C10 C9 1.392 . S
C10 C11 1.361 . S
C10 C12 1.500 . S
C11 C6 1.390 . S
C11 C10 1.361 . S
C11 H29 0.931 . S
C12 C10 1.500 . S
C12 C13 1.371 . S
C12 C14 1.365 . S
C13 C12 1.371 . S
C13 C23 1.386 1_545 S
C13 H31 0.931 . S
C14 C12 1.365 . S
C14 C15 1.409 1_545 S
C14 H32 0.929 . S
C15 C14 1.409 1_565 S
C15 C16 1.380 . S
C15 H33 0.930 . S
C16 C15 1.380 . S
C16 C23 1.357 . S
C17 C8 1.511 . S
C17 C18 1.341 . S
C17 C19 1.371 . S
C18 C17 1.341 . S
C18 C22 1.394 . S
C18 H34 0.930 . S
C19 C17 1.371 . S
C19 C20 1.392 . S
C19 H35 0.931 . S
C20 C19 1.392 . S
C20 C21 1.331 . S
C20 H38 0.932 . S
C21 C20 1.331 . S
C21 C22 1.336 . S
C22 C18 1.394 . S
C22 C21 1.336 . S
C22 H37 0.929 . S
C23 C13 1.386 1_565 S
C23 C16 1.357 . S
C23 H36 0.928 . S
H24 C0 0.931 . S
H25 C2 0.930 . S
H26 C4 0.929 . S
H27 C5 0.931 . S
H28 C7 0.930 . S
H29 C11 0.931 . S
H30 C9 0.931 . S
H31 C13 0.931 . S
H32 C14 0.929 . S
H33 C15 0.930 . S
H34 C18 0.930 . S
H35 C19 0.931 . S
H36 C23 0.928 . S
H37 C22 0.929 . S
H38 C20 0.932 . S
C39 C40 1.386 . S
C39 C41 1.397 . S
C39 H63 0.931 . S
C40 C39 1.386 . S
C40 C44 1.397 . S
C41 C39 1.397 . S
C41 C42 1.384 . S
C41 H64 0.930 . S
C42 C41 1.384 . S
C42 C43 1.377 . S
C42 C45 1.481 . S
C43 C42 1.377 . S
C43 C44 1.389 . S
C43 H65 0.929 . S
C44 C40 1.397 . S
C44 C43 1.389 . S
C44 H66 0.931 . S
C45 C42 1.481 . S
C45 C46 1.387 . S
C45 C50 1.390 . S
C46 C45 1.387 . S
C46 C47 1.401 . S
C46 H67 0.930 . S
C47 C46 1.401 . S
C47 C48 1.376 . S
C47 C56 1.511 . S
C48 C47 1.376 . S
C48 C49 1.392 . S
C48 H69 0.931 . S
C49 C48 1.392 . S
C49 C50 1.361 . S
C49 C51 1.500 . S
C50 C45 1.390 . S
C50 C49 1.361 . S
C50 H68 0.931 . S
C51 C49 1.500 . S
C51 C52 1.371 . S
C51 C53 1.365 . S
C52 C51 1.371 . S
C52 C62 1.386 . S
C52 H70 0.931 . S
C53 C51 1.365 . S
C53 C54 1.409 1_545 S
C53 H71 0.929 . S
C54 C53 1.409 1_565 S
C54 C55 1.380 . S
C54 H72 0.930 . S
C55 C54 1.380 . S
C55 C62 1.357 1_565 S
C56 C47 1.511 . S
C56 C57 1.341 . S
C56 C58 1.371 . S
C57 C56 1.341 . S
C57 C61 1.394 1_655 S
C57 H73 0.930 . S
C58 C56 1.371 . S
C58 C59 1.392 1_655 S
C58 H74 0.931 . S
C59 C58 1.392 1_455 S
C59 C60 1.331 . S
C59 H77 0.932 . S
C60 C59 1.331 . S
C60 C61 1.336 . S
C61 C57 1.394 1_455 S
C61 C60 1.336 . S
C61 H76 0.929 . S
C62 C52 1.386 . S
C62 C55 1.357 1_545 S
C62 H75 0.928 . S
H63 C39 0.931 . S
H64 C41 0.930 . S
H65 C43 0.929 . S
H66 C44 0.931 . S
H67 C46 0.930 . S
H68 C50 0.931 . S
H69 C48 0.931 . S
H70 C52 0.931 . S
H71 C53 0.929 . S
H72 C54 0.930 . S
H73 C57 0.930 . S
H74 C58 0.931 . S
H75 C62 0.928 . S
H76 C61 0.929 . S
H77 C59 0.932 . S
C78 C79 1.386 . S
C78 C80 1.397 . S
C78 H102 0.931 . S
C79 C78 1.386 . S
C79 C83 1.397 . S
C80 C78 1.397 . S
C80 C81 1.384 . S
C80 H103 0.930 . S
C81 C80 1.384 . S
C81 C82 1.377 . S
C81 C84 1.481 . S
C82 C81 1.377 . S
C82 C83 1.389 . S
C82 H104 0.929 . S
C83 C79 1.397 . S
C83 C82 1.389 . S
C83 H105 0.931 . S
C84 C81 1.481 . S
C84 C85 1.387 . S
C84 C89 1.390 . S
C85 C84 1.387 . S
C85 C86 1.401 . S
C85 H106 0.930 . S
C86 C85 1.401 . S
C86 C87 1.376 . S
C86 C95 1.511 . S
C87 C86 1.376 . S
C87 C88 1.392 . S
C87 H108 0.931 . S
C88 C87 1.392 . S
C88 C89 1.361 . S
C88 C90 1.500 . S
C89 C84 1.390 . S
C89 C88 1.361 . S
C89 H107 0.931 . S
C90 C88 1.500 . S
C90 C91 1.371 . S
C90 C92 1.365 . S
C91 C90 1.371 . S
C91 C101 1.386 . S
C91 H109 0.931 . S
C92 C90 1.365 . S
C92 C93 1.409 . S
C92 H110 0.929 . S
C93 C92 1.409 . S
C93 C94 1.380 . S
C93 H111 0.930 . S
C94 C93 1.380 . S
C94 C101 1.357 . S
C95 C86 1.511 . S
C95 C96 1.341 1_655 S
C95 C97 1.371 . S
C96 C95 1.341 1_455 S
C96 C100 1.394 . S
C96 H112 0.930 . S
C97 C95 1.371 . S
C97 C98 1.392 1_655 S
C97 H113 0.931 . S
C98 C97 1.392 1_455 S
C98 C99 1.331 . S
C98 H116 0.932 . S
C99 C98 1.331 . S
C99 C100 1.336 . S
C100 C96 1.394 . S
C100 C99 1.336 . S
C100 H115 0.929 . S
C101 C91 1.386 . S
C101 C94 1.357 . S
C101 H114 0.928 . S
H102 C78 0.931 . S
H103 C80 0.930 . S
H104 C82 0.929 . S
H105 C83 0.931 . S
H106 C85 0.930 . S
H107 C89 0.931 . S
H108 C87 0.931 . S
H109 C91 0.931 . S
H110 C92 0.929 . S
H111 C93 0.930 . S
H112 C96 0.930 . S
H113 C97 0.931 . S
H114 C101 0.928 . S
H115 C100 0.929 . S
H116 C98 0.932 . S
C117 C118 1.386 . S
C117 C119 1.397 . S
C117 H141 0.931 . S
C118 C117 1.386 . S
C118 C122 1.397 . S
C119 C117 1.397 . S
C119 C120 1.384 . S
C119 H142 0.930 . S
C120 C119 1.384 . S
C120 C121 1.377 . S
C120 C123 1.481 . S
C121 C120 1.377 . S
C121 C122 1.389 . S
C121 H143 0.929 . S
C122 C118 1.397 . S
C122 C121 1.389 . S
C122 H144 0.931 . S
C123 C120 1.481 . S
C123 C124 1.387 . S
C123 C128 1.390 . S
C124 C123 1.387 . S
C124 C125 1.401 . S
C124 H145 0.930 . S
C125 C124 1.401 . S
C125 C126 1.376 . S
C125 C134 1.511 . S
C126 C125 1.376 . S
C126 C127 1.392 . S
C126 H147 0.931 . S
C127 C126 1.392 . S
C127 C128 1.361 . S
C127 C129 1.500 . S
C128 C123 1.390 . S
C128 C127 1.361 . S
C128 H146 0.931 . S
C129 C127 1.500 . S
C129 C130 1.371 . S
C129 C131 1.365 . S
C130 C129 1.371 . S
C130 C140 1.386 1_455 S
C130 H148 0.931 . S
C131 C129 1.365 . S
C131 C132 1.409 1_455 S
C131 H149 0.929 . S
C132 C131 1.409 1_655 S
C132 C133 1.380 . S
C132 H150 0.930 . S
C133 C132 1.380 . S
C133 C140 1.357 . S
C134 C125 1.511 . S
C134 C135 1.341 . S
C134 C136 1.371 . S
C135 C134 1.341 . S
C135 C139 1.394 . S
C135 H151 0.930 . S
C136 C134 1.371 . S
C136 C137 1.392 . S
C136 H152 0.931 . S
C137 C136 1.392 . S
C137 C138 1.331 . S
C137 H155 0.932 . S
C138 C137 1.331 . S
C138 C139 1.336 . S
C139 C135 1.394 . S
C139 C138 1.336 . S
C139 H154 0.929 . S
C140 C130 1.386 1_655 S
C140 C133 1.357 . S
C140 H153 0.928 . S
H141 C117 0.931 . S
H142 C119 0.930 . S
H143 C121 0.929 . S
H144 C122 0.931 . S
H145 C124 0.930 . S
H146 C128 0.931 . S
H147 C126 0.931 . S
H148 C130 0.931 . S
H149 C131 0.929 . S
H150 C132 0.930 . S
H151 C135 0.930 . S
H152 C136 0.931 . S
H153 C140 0.928 . S
H154 C139 0.929 . S
H155 C137 0.932 . S
C156 C157 1.386 . S
C156 C158 1.397 . S
C156 H180 0.931 . S
C157 C156 1.386 . S
C157 C161 1.397 . S
C158 C156 1.397 . S
C158 C159 1.384 . S
C158 H181 0.930 . S
C159 C158 1.384 . S
C159 C160 1.377 . S
C159 C162 1.481 . S
C160 C159 1.377 . S
C160 C161 1.389 . S
C160 H182 0.929 . S
C161 C157 1.397 . S
C161 C160 1.389 . S
C161 H183 0.931 . S
C162 C159 1.481 . S
C162 C163 1.387 . S
C162 C167 1.390 . S
C163 C162 1.387 . S
C163 C164 1.401 . S
C163 H184 0.930 . S
C164 C163 1.401 . S
C164 C165 1.376 . S
C164 C173 1.511 . S
C165 C164 1.376 . S
C165 C166 1.392 . S
C165 H186 0.931 . S
C166 C165 1.392 . S
C166 C167 1.361 . S
C166 C168 1.500 . S
C167 C162 1.390 . S
C167 C166 1.361 . S
C167 H185 0.931 . S
C168 C166 1.500 . S
C168 C169 1.371 . S
C168 C170 1.365 . S
C169 C168 1.371 . S
C169 C179 1.386 . S
C169 H187 0.931 . S
C170 C168 1.365 . S
C170 C171 1.409 1_565 S
C170 H188 0.929 . S
C171 C170 1.409 1_545 S
C171 C172 1.380 . S
C171 H189 0.930 . S
C172 C171 1.380 . S
C172 C179 1.357 1_545 S
C173 C164 1.511 . S
C173 C174 1.341 . S
C173 C175 1.371 . S
C174 C173 1.341 . S
C174 C178 1.394 . S
C174 H190 0.930 . S
C175 C173 1.371 . S
C175 C176 1.392 . S
C175 H191 0.931 . S
C176 C175 1.392 . S
C176 C177 1.331 . S
C176 H194 0.932 . S
C177 C176 1.331 . S
C177 C178 1.336 . S
C178 C174 1.394 . S
C178 C177 1.336 . S
C178 H193 0.929 . S
C179 C169 1.386 . S
C179 C172 1.357 1_565 S
C179 H192 0.928 . S
H180 C156 0.931 . S
H181 C158 0.930 . S
H182 C160 0.929 . S
H183 C161 0.931 . S
H184 C163 0.930 . S
H185 C167 0.931 . S
H186 C165 0.931 . S
H187 C169 0.931 . S
H188 C170 0.929 . S
H189 C171 0.930 . S
H190 C174 0.930 . S
H191 C175 0.931 . S
H192 C179 0.928 . S
H193 C178 0.929 . S
H194 C176 0.932 . S
C195 C196 1.386 . S
C195 C197 1.397 . S
C195 H219 0.931 . S
C196 C195 1.386 . S
C196 C200 1.397 . S
C197 C195 1.397 . S
C197 C198 1.384 . S
C197 H220 0.930 . S
C198 C197 1.384 . S
C198 C199 1.377 . S
C198 C201 1.481 . S
C199 C198 1.377 . S
C199 C200 1.389 . S
C199 H221 0.929 . S
C200 C196 1.397 . S
C200 C199 1.389 . S
C200 H222 0.931 . S
C201 C198 1.481 . S
C201 C202 1.387 . S
C201 C206 1.390 . S
C202 C201 1.387 . S
C202 C203 1.401 . S
C202 H223 0.930 . S
C203 C202 1.401 . S
C203 C204 1.376 . S
C203 C212 1.511 . S
C204 C203 1.376 . S
C204 C205 1.392 . S
C204 H225 0.931 . S
C205 C204 1.392 . S
C205 C206 1.361 . S
C205 C207 1.500 . S
C206 C201 1.390 . S
C206 C205 1.361 . S
C206 H224 0.931 . S
C207 C205 1.500 . S
C207 C208 1.371 . S
C207 C209 1.365 . S
C208 C207 1.371 . S
C208 C218 1.386 1_565 S
C208 H226 0.931 . S
C209 C207 1.365 . S
C209 C210 1.409 1_565 S
C209 H227 0.929 . S
C210 C209 1.409 1_545 S
C210 C211 1.380 . S
C210 H228 0.930 . S
C211 C210 1.380 . S
C211 C218 1.357 . S
C212 C203 1.511 . S
C212 C213 1.341 1_455 S
C212 C214 1.371 . S
C213 C212 1.341 1_655 S
C213 C217 1.394 . S
C213 H229 0.930 . S
C214 C212 1.371 . S
C214 C215 1.392 1_455 S
C214 H230 0.931 . S
C215 C214 1.392 1_655 S
C215 C216 1.331 . S
C215 H233 0.932 . S
C216 C215 1.331 . S
C216 C217 1.336 . S
C217 C213 1.394 . S
C217 C216 1.336 . S
C217 H232 0.929 . S
C218 C208 1.386 1_545 S
C218 C211 1.357 . S
C218 H231 0.928 . S
H219 C195 0.931 . S
H220 C197 0.930 . S
H221 C199 0.929 . S
H222 C200 0.931 . S
H223 C202 0.930 . S
H224 C206 0.931 . S
H225 C204 0.931 . S
H226 C208 0.931 . S
H227 C209 0.929 . S
H228 C210 0.930 . S
H229 C213 0.930 . S
H230 C214 0.931 . S
H231 C218 0.928 . S
H232 C217 0.929 . S
H233 C215 0.932 . S
C234 C235 1.386 . S
C234 C236 1.397 . S
C234 H258 0.931 . S
C235 C234 1.386 . S
C235 C239 1.397 . S
C236 C234 1.397 . S
C236 C237 1.384 . S
C236 H259 0.930 . S
C237 C236 1.384 . S
C237 C238 1.377 . S
C237 C240 1.481 . S
C238 C237 1.377 . S
C238 C239 1.389 . S
C238 H260 0.929 . S
C239 C235 1.397 . S
C239 C238 1.389 . S
C239 H261 0.931 1_655 S
C240 C237 1.481 . S
C240 C241 1.387 . S
C240 C245 1.390 . S
C241 C240 1.387 . S
C241 C242 1.401 . S
C241 H262 0.930 . S
C242 C241 1.401 . S
C242 C243 1.376 . S
C242 C251 1.511 . S
C243 C242 1.376 . S
C243 C244 1.392 . S
C243 H264 0.931 . S
C244 C243 1.392 . S
C244 C245 1.361 . S
C244 C246 1.500 . S
C245 C240 1.390 . S
C245 C244 1.361 . S
C245 H263 0.931 . S
C246 C244 1.500 . S
C246 C247 1.371 . S
C246 C248 1.365 . S
C247 C246 1.371 . S
C247 C257 1.386 . S
C247 H265 0.931 . S
C248 C246 1.365 . S
C248 C249 1.409 . S
C248 H266 0.929 . S
C249 C248 1.409 . S
C249 C250 1.380 . S
C249 H267 0.930 . S
C250 C249 1.380 . S
C250 C257 1.357 . S
C251 C242 1.511 . S
C251 C252 1.341 . S
C251 C253 1.371 . S
C252 C251 1.341 . S
C252 C256 1.394 . S
C252 H268 0.930 . S
C253 C251 1.371 . S
C253 C254 1.392 . S
C253 H269 0.931 . S
C254 C253 1.392 . S
C254 C255 1.331 . S
C254 H272 0.932 . S
C255 C254 1.331 . S
C255 C256 1.336 . S
C256 C252 1.394 . S
C256 C255 1.336 . S
C256 H271 0.929 . S
C257 C247 1.386 . S
C257 C250 1.357 . S
C257 H270 0.928 . S
H258 C234 0.931 . S
H259 C236 0.930 . S
H260 C238 0.929 . S
H261 C239 0.931 1_455 S
H262 C241 0.930 . S
H263 C245 0.931 . S
H264 C243 0.931 . S
H265 C247 0.931 . S
H266 C248 0.929 . S
H267 C249 0.930 . S
H268 C252 0.930 . S
H269 C253 0.931 . S
H270 C257 0.928 . S
H271 C256 0.929 . S
H272 C254 0.932 . S
C273 C274 1.386 . S
C273 C275 1.397 . S
C273 H297 0.931 . S
C274 C273 1.386 . S
C274 C278 1.397 . S
C275 C273 1.397 . S
C275 C276 1.384 . S
C275 H298 0.930 . S
C276 C275 1.384 . S
C276 C277 1.377 . S
C276 C279 1.481 . S
C277 C276 1.377 . S
C277 C278 1.389 . S
C277 H299 0.929 . S
C278 C274 1.397 . S
C278 C277 1.389 . S
C278 H300 0.931 . S
C279 C276 1.481 . S
C279 C280 1.387 . S
C279 C284 1.390 . S
C280 C279 1.387 . S
C280 C281 1.401 . S
C280 H301 0.930 . S
C281 C280 1.401 . S
C281 C282 1.376 . S
C281 C290 1.511 . S
C282 C281 1.376 . S
C282 C283 1.392 . S
C282 H303 0.931 . S
C283 C282 1.392 . S
C283 C284 1.361 . S
C283 C285 1.500 . S
C284 C279 1.390 . S
C284 C283 1.361 . S
C284 H302 0.931 . S
C285 C283 1.500 . S
C285 C286 1.371 . S
C285 C287 1.365 . S
C286 C285 1.371 . S
C286 C296 1.386 . S
C286 H304 0.931 . S
C287 C285 1.365 . S
C287 C288 1.409 . S
C287 H305 0.929 . S
C288 C287 1.409 . S
C288 C289 1.380 . S
C288 H306 0.930 . S
C289 C288 1.380 . S
C289 C296 1.357 . S
C290 C281 1.511 . S
C290 C291 1.341 . S
C290 C292 1.371 . S
C291 C290 1.341 . S
C291 C295 1.394 . S
C291 H307 0.930 . S
C292 C290 1.371 . S
C292 C293 1.392 . S
C292 H308 0.931 . S
C293 C292 1.392 . S
C293 C294 1.331 . S
C293 H311 0.932 . S
C294 C293 1.331 . S
C294 C295 1.336 . S
C295 C291 1.394 . S
C295 C294 1.336 . S
C295 H310 0.929 . S
C296 C286 1.386 . S
C296 C289 1.357 . S
C296 H309 0.928 . S
H297 C273 0.931 . S
H298 C275 0.930 . S
H299 C277 0.929 . S
H300 C278 0.931 . S
H301 C280 0.930 . S
H302 C284 0.931 . S
H303 C282 0.931 . S
H304 C286 0.931 . S
H305 C287 0.929 . S
H306 C288 0.930 . S
H307 C291 0.930 . S
H308 C292 0.931 . S
H309 C296 0.928 . S
H310 C295 0.929 . S
H311 C293 0.932 . S
C312 C313 1.386 . S
C312 C314 1.397 . S
C312 H336 0.931 . S
C313 C312 1.386 . S
C313 C317 1.397 . S
C314 C312 1.397 . S
C314 C315 1.384 . S
C314 H337 0.930 . S
C315 C314 1.384 . S
C315 C316 1.377 . S
C315 C318 1.481 . S
C316 C315 1.377 . S
C316 C317 1.389 . S
C316 H338 0.929 . S
C317 C313 1.397 . S
C317 C316 1.389 . S
C317 H339 0.931 . S
C318 C315 1.481 . S
C318 C319 1.387 . S
C318 C323 1.390 . S
C319 C318 1.387 . S
C319 C320 1.401 . S
C319 H340 0.930 . S
C320 C319 1.401 . S
C320 C321 1.376 . S
C320 C329 1.511 . S
C321 C320 1.376 . S
C321 C322 1.392 . S
C321 H342 0.931 . S
C322 C321 1.392 . S
C322 C323 1.361 . S
C322 C324 1.500 . S
C323 C318 1.390 . S
C323 C322 1.361 . S
C323 H341 0.931 . S
C324 C322 1.500 . S
C324 C325 1.371 . S
C324 C326 1.365 . S
C325 C324 1.371 . S
C325 C335 1.386 . S
C325 H343 0.931 . S
C326 C324 1.365 . S
C326 C327 1.409 . S
C326 H344 0.929 . S
C327 C326 1.409 . S
C327 C328 1.380 . S
C327 H345 0.930 . S
C328 C327 1.380 . S
C328 C335 1.357 . S
C329 C320 1.511 . S
C329 C330 1.341 . S
C329 C331 1.371 . S
C330 C329 1.341 . S
C330 C334 1.394 . S
C330 H346 0.930 . S
C331 C329 1.371 . S
C331 C332 1.392 . S
C331 H347 0.931 . S
C332 C331 1.392 . S
C332 C333 1.331 . S
C332 H350 0.932 . S
C333 C332 1.331 . S
C333 C334 1.336 . S
C334 C330 1.394 . S
C334 C333 1.336 . S
C334 H349 0.929 . S
C335 C325 1.386 . S
C335 C328 1.357 . S
C335 H348 0.928 . S
H336 C312 0.931 . S
H337 C314 0.930 . S
H338 C316 0.929 . S
H339 C317 0.931 . S
H340 C319 0.930 . S
H341 C323 0.931 . S
H342 C321 0.931 . S
H343 C325 0.931 . S
H344 C326 0.929 . S
H345 C327 0.930 . S
H346 C330 0.930 . S
H347 C331 0.931 . S
H348 C335 0.928 . S
H349 C334 0.929 . S
H350 C332 0.932 . S
C351 C352 1.386 . S
C351 C353 1.397 . S
C351 H375 0.931 . S
C352 C351 1.386 . S
C352 C356 1.397 . S
C353 C351 1.397 . S
C353 C354 1.384 . S
C353 H376 0.930 . S
C354 C353 1.384 . S
C354 C355 1.377 . S
C354 C357 1.481 . S
C355 C354 1.377 . S
C355 C356 1.389 . S
C355 H377 0.929 . S
C356 C352 1.397 . S
C356 C355 1.389 . S
C356 H378 0.931 . S
C357 C354 1.481 . S
C357 C358 1.387 . S
C357 C362 1.390 . S
C358 C357 1.387 . S
C358 C359 1.401 . S
C358 H379 0.930 . S
C359 C358 1.401 . S
C359 C360 1.376 . S
C359 C368 1.511 . S
C360 C359 1.376 . S
C360 C361 1.392 . S
C360 H381 0.931 . S
C361 C360 1.392 . S
C361 C362 1.361 . S
C361 C363 1.500 . S
C362 C357 1.390 . S
C362 C361 1.361 . S
C362 H380 0.931 . S
C363 C361 1.500 . S
C363 C364 1.371 . S
C363 C365 1.365 . S
C364 C363 1.371 . S
C364 C374 1.386 . S
C364 H382 0.931 . S
C365 C363 1.365 . S
C365 C366 1.409 . S
C365 H383 0.929 . S
C366 C365 1.409 . S
C366 C367 1.380 . S
C366 H384 0.930 . S
C367 C366 1.380 . S
C367 C374 1.357 . S
C368 C359 1.511 . S
C368 C369 1.341 . S
C368 C370 1.371 . S
C369 C368 1.341 . S
C369 C373 1.394 . S
C369 H385 0.930 . S
C370 C368 1.371 . S
C370 C371 1.392 . S
C370 H386 0.931 . S
C371 C370 1.392 . S
C371 C372 1.331 . S
C371 H389 0.932 1_556 S
C372 C371 1.331 . S
C372 C373 1.336 . S
C373 C369 1.394 . S
C373 C372 1.336 . S
C373 H388 0.929 . S
C374 C364 1.386 . S
C374 C367 1.357 . S
C374 H387 0.928 . S
H375 C351 0.931 . S
H376 C353 0.930 . S
H377 C355 0.929 . S
H378 C356 0.931 . S
H379 C358 0.930 . S
H380 C362 0.931 . S
H381 C360 0.931 . S
H382 C364 0.931 . S
H383 C365 0.929 . S
H384 C366 0.930 . S
H385 C369 0.930 . S
H386 C370 0.931 . S
H387 C374 0.928 . S
H388 C373 0.929 . S
H389 C371 0.932 1_554 S
C390 C391 1.386 . S
C390 C392 1.397 . S
C390 H414 0.931 . S
C391 C390 1.386 . S
C391 C395 1.397 . S
C392 C390 1.397 . S
C392 C393 1.384 . S
C392 H415 0.930 . S
C393 C392 1.384 . S
C393 C394 1.377 . S
C393 C396 1.481 . S
C394 C393 1.377 . S
C394 C395 1.389 . S
C394 H416 0.929 . S
C395 C391 1.397 . S
C395 C394 1.389 . S
C395 H417 0.931 . S
C396 C393 1.481 . S
C396 C397 1.387 . S
C396 C401 1.390 . S
C397 C396 1.387 . S
C397 C398 1.401 . S
C397 H418 0.930 . S
C398 C397 1.401 . S
C398 C399 1.376 . S
C398 C407 1.511 . S
C399 C398 1.376 . S
C399 C400 1.392 . S
C399 H420 0.931 . S
C400 C399 1.392 . S
C400 C401 1.361 . S
C400 C402 1.500 . S
C401 C396 1.390 . S
C401 C400 1.361 . S
C401 H419 0.931 . S
C402 C400 1.500 . S
C402 C403 1.371 . S
C402 C404 1.365 . S
C403 C402 1.371 . S
C403 C413 1.386 . S
C403 H421 0.931 . S
C404 C402 1.365 . S
C404 C405 1.409 . S
C404 H422 0.929 . S
C405 C404 1.409 . S
C405 C406 1.380 . S
C405 H423 0.930 . S
C406 C405 1.380 . S
C406 C413 1.357 . S
C407 C398 1.511 . S
C407 C408 1.341 . S
C407 C409 1.371 . S
C408 C407 1.341 . S
C408 C412 1.394 . S
C408 H424 0.930 . S
C409 C407 1.371 . S
C409 C410 1.392 . S
C409 H425 0.931 . S
C410 C409 1.392 . S
C410 C411 1.331 . S
C410 H428 0.932 1_556 S
C411 C410 1.331 . S
C411 C412 1.336 . S
C412 C408 1.394 . S
C412 C411 1.336 . S
C412 H427 0.929 . S
C413 C403 1.386 . S
C413 C406 1.357 . S
C413 H426 0.928 1_556 S
H414 C390 0.931 . S
H415 C392 0.930 . S
H416 C394 0.929 . S
H417 C395 0.931 . S
H418 C397 0.930 . S
H419 C401 0.931 . S
H420 C399 0.931 . S
H421 C403 0.931 . S
H422 C404 0.929 . S
H423 C405 0.930 . S
H424 C408 0.930 . S
H425 C409 0.931 . S
H426 C413 0.928 1_554 S
H427 C412 0.929 . S
H428 C410 0.932 1_554 S
C429 C430 1.386 . S
C429 C431 1.397 . S
C429 H453 0.931 . S
C430 C429 1.386 . S
C430 C434 1.397 . S
C431 C429 1.397 . S
C431 C432 1.384 . S
C431 H454 0.930 . S
C432 C431 1.384 . S
C432 C433 1.377 . S
C432 C435 1.481 . S
C433 C432 1.377 . S
C433 C434 1.389 . S
C433 H455 0.929 . S
C434 C430 1.397 . S
C434 C433 1.389 . S
C434 H456 0.931 . S
C435 C432 1.481 . S
C435 C436 1.387 . S
C435 C440 1.390 . S
C436 C435 1.387 . S
C436 C437 1.401 . S
C436 H457 0.930 . S
C437 C436 1.401 . S
C437 C438 1.376 . S
C437 C446 1.511 . S
C438 C437 1.376 . S
C438 C439 1.392 . S
C438 H459 0.931 . S
C439 C438 1.392 . S
C439 C440 1.361 . S
C439 C441 1.500 . S
C440 C435 1.390 . S
C440 C439 1.361 . S
C440 H458 0.931 . S
C441 C439 1.500 . S
C441 C442 1.371 . S
C441 C443 1.365 . S
C442 C441 1.371 . S
C442 C452 1.386 . S
C442 H460 0.931 . S
C443 C441 1.365 . S
C443 C444 1.409 . S
C443 H461 0.929 . S
C444 C443 1.409 . S
C444 C445 1.380 . S
C444 H462 0.930 . S
C445 C444 1.380 . S
C445 C452 1.357 . S
C446 C437 1.511 . S
C446 C447 1.341 . S
C446 C448 1.371 . S
C447 C446 1.341 . S
C447 C451 1.394 . S
C447 H463 0.930 . S
C448 C446 1.371 . S
C448 C449 1.392 . S
C448 H464 0.931 . S
C449 C448 1.392 . S
C449 C450 1.331 . S
C449 H467 0.932 1_556 S
C450 C449 1.331 . S
C450 C451 1.336 . S
C451 C447 1.394 . S
C451 C450 1.336 . S
C451 H466 0.929 . S
C452 C442 1.386 . S
C452 C445 1.357 . S
C452 H465 0.934 . S
H453 C429 0.931 . S
H454 C431 0.930 . S
H455 C433 0.929 . S
H456 C434 0.931 . S
H457 C436 0.930 . S
H458 C440 0.931 . S
H459 C438 0.931 . S
H460 C442 0.931 . S
H461 C443 0.929 . S
H462 C444 0.930 . S
H463 C447 0.930 . S
H464 C448 0.931 . S
H465 C452 0.934 . S
H466 C451 0.929 . S
H467 C449 0.932 1_554 S
C468 C469 1.386 . S
C468 C470 1.397 . S
C468 H492 0.931 . S
C469 C468 1.386 . S
C469 C473 1.397 . S
C470 C468 1.397 . S
C470 C471 1.384 . S
C470 H493 0.930 . S
C471 C470 1.384 . S
C471 C472 1.377 . S
C471 C474 1.481 . S
C472 C471 1.377 . S
C472 C473 1.389 . S
C472 H494 0.929 . S
C473 C469 1.397 . S
C473 C472 1.389 . S
C473 H495 0.931 . S
C474 C471 1.481 . S
C474 C475 1.387 . S
C474 C479 1.390 . S
C475 C474 1.387 . S
C475 C476 1.401 . S
C475 H496 0.930 . S
C476 C475 1.401 . S
C476 C477 1.376 . S
C476 C485 1.511 . S
C477 C476 1.376 . S
C477 C478 1.392 . S
C477 H498 0.931 . S
C478 C477 1.392 . S
C478 C479 1.361 . S
C478 C480 1.500 . S
C479 C474 1.390 . S
C479 C478 1.361 . S
C479 H497 0.931 . S
C480 C478 1.500 . S
C480 C481 1.371 . S
C480 C482 1.365 . S
C481 C480 1.371 . S
C481 C491 1.386 . S
C481 H499 0.931 . S
C482 C480 1.365 . S
C482 C483 1.409 . S
C482 H500 0.929 . S
C483 C482 1.409 . S
C483 C484 1.380 . S
C483 H501 0.930 . S
C484 C483 1.380 . S
C484 C491 1.357 . S
C485 C476 1.511 . S
C485 C486 1.341 . S
C485 C487 1.371 . S
C486 C485 1.341 . S
C486 C490 1.394 . S
C486 H502 0.930 . S
C487 C485 1.371 . S
C487 C488 1.392 . S
C487 H503 0.931 . S
C488 C487 1.392 . S
C488 C489 1.331 . S
C488 H506 0.932 1_554 S
C489 C488 1.331 . S
C489 C490 1.336 . S
C490 C486 1.394 . S
C490 C489 1.336 . S
C490 H505 0.929 . S
C491 C481 1.386 . S
C491 C484 1.357 . S
C491 H504 0.928 . S
H492 C468 0.931 . S
H493 C470 0.930 . S
H494 C472 0.929 . S
H495 C473 0.931 . S
H496 C475 0.930 . S
H497 C479 0.931 . S
H498 C477 0.931 . S
H499 C481 0.931 . S
H500 C482 0.929 . S
H501 C483 0.930 . S
H502 C486 0.930 . S
H503 C487 0.931 . S
H504 C491 0.928 . S
H505 C490 0.929 . S
H506 C488 0.932 1_556 S
C507 C508 1.386 . S
C507 C509 1.397 . S
C507 H531 0.931 . S
C508 C507 1.386 . S
C508 C512 1.397 . S
C509 C507 1.397 . S
C509 C510 1.384 . S
C509 H532 0.930 . S
C510 C509 1.384 . S
C510 C511 1.377 . S
C510 C513 1.481 . S
C511 C510 1.377 . S
C511 C512 1.389 . S
C511 H533 0.929 . S
C512 C508 1.397 . S
C512 C511 1.389 . S
C512 H534 0.931 . S
C513 C510 1.481 . S
C513 C514 1.387 . S
C513 C518 1.390 . S
C514 C513 1.387 . S
C514 C515 1.401 . S
C514 H535 0.930 . S
C515 C514 1.401 . S
C515 C516 1.376 . S
C515 C524 1.511 . S
C516 C515 1.376 . S
C516 C517 1.392 . S
C516 H537 0.931 . S
C517 C516 1.392 . S
C517 C518 1.361 . S
C517 C519 1.500 . S
C518 C513 1.390 . S
C518 C517 1.361 . S
C518 H536 0.931 . S
C519 C517 1.500 . S
C519 C520 1.371 . S
C519 C521 1.365 . S
C520 C519 1.371 . S
C520 C530 1.386 . S
C520 H538 0.931 . S
C521 C519 1.365 . S
C521 C522 1.409 . S
C521 H539 0.929 . S
C522 C521 1.409 . S
C522 C523 1.380 . S
C522 H540 0.930 . S
C523 C522 1.380 . S
C523 C530 1.357 . S
C524 C515 1.511 . S
C524 C525 1.341 . S
C524 C526 1.371 . S
C525 C524 1.341 . S
C525 C529 1.394 . S
C525 H541 0.930 . S
C526 C524 1.371 . S
C526 C527 1.392 . S
C526 H542 0.931 . S
C527 C526 1.392 . S
C527 C528 1.331 . S
C527 H545 0.932 . S
C528 C527 1.331 . S
C528 C529 1.336 . S
C529 C525 1.394 . S
C529 C528 1.336 . S
C529 H544 0.929 . S
C530 C520 1.386 . S
C530 C523 1.357 . S
C530 H543 0.928 1_554 S
H531 C507 0.931 . S
H532 C509 0.930 . S
H533 C511 0.929 . S
H534 C512 0.931 . S
H535 C514 0.930 . S
H536 C518 0.931 . S
H537 C516 0.931 . S
H538 C520 0.931 . S
H539 C521 0.929 . S
H540 C522 0.930 . S
H541 C525 0.930 . S
H542 C526 0.931 . S
H543 C530 0.928 1_556 S
H544 C529 0.929 . S
H545 C527 0.932 . S
C546 C547 1.386 . S
C546 C548 1.397 . S
C546 H570 0.931 . S
C547 C546 1.386 . S
C547 C551 1.397 . S
C548 C546 1.397 . S
C548 C549 1.384 . S
C548 H571 0.930 . S
C549 C548 1.384 . S
C549 C550 1.377 . S
C549 C552 1.481 . S
C550 C549 1.377 . S
C550 C551 1.389 . S
C550 H572 0.929 . S
C551 C547 1.397 . S
C551 C550 1.389 . S
C551 H573 0.931 . S
C552 C549 1.481 . S
C552 C553 1.387 . S
C552 C557 1.390 . S
C553 C552 1.387 . S
C553 C554 1.401 . S
C553 H574 0.930 . S
C554 C553 1.401 . S
C554 C555 1.376 . S
C554 C563 1.511 . S
C555 C554 1.376 . S
C555 C556 1.392 . S
C555 H576 0.931 . S
C556 C555 1.392 . S
C556 C557 1.361 . S
C556 C558 1.500 . S
C557 C552 1.390 . S
C557 C556 1.361 . S
C557 H575 0.931 . S
C558 C556 1.500 . S
C558 C559 1.371 . S
C558 C560 1.365 . S
C559 C558 1.371 . S
C559 C569 1.386 . S
C559 H577 0.931 . S
C560 C558 1.365 . S
C560 C561 1.409 . S
C560 H578 0.929 . S
C561 C560 1.409 . S
C561 C562 1.380 . S
C561 H579 0.930 . S
C562 C561 1.380 . S
C562 C569 1.357 . S
C563 C554 1.511 . S
C563 C564 1.341 . S
C563 C565 1.371 . S
C564 C563 1.341 . S
C564 C568 1.394 . S
C564 H580 0.930 . S
C565 C563 1.371 . S
C565 C566 1.392 . S
C565 H581 0.931 . S
C566 C565 1.392 . S
C566 C567 1.331 . S
C566 H584 0.932 1_554 S
C567 C566 1.331 . S
C567 C568 1.336 . S
C568 C564 1.394 . S
C568 C567 1.336 . S
C568 H583 0.929 . S
C569 C559 1.386 . S
C569 C562 1.357 . S
C569 H582 0.928 . S
H570 C546 0.931 . S
H571 C548 0.930 . S
H572 C550 0.929 . S
H573 C551 0.931 . S
H574 C553 0.930 . S
H575 C557 0.931 . S
H576 C555 0.931 . S
H577 C559 0.931 . S
H578 C560 0.929 . S
H579 C561 0.930 . S
H580 C564 0.930 . S
H581 C565 0.931 . S
H582 C569 0.928 . S
H583 C568 0.929 . S
H584 C566 0.932 1_556 S
C585 C586 1.386 . S
C585 C587 1.397 . S
C585 H609 0.931 . S
C586 C585 1.386 . S
C586 C590 1.397 . S
C587 C585 1.397 . S
C587 C588 1.384 . S
C587 H610 0.930 . S
C588 C587 1.384 . S
C588 C589 1.377 . S
C588 C591 1.481 . S
C589 C588 1.377 . S
C589 C590 1.389 . S
C589 H611 0.929 . S
C590 C586 1.397 . S
C590 C589 1.389 . S
C590 H612 0.931 . S
C591 C588 1.481 . S
C591 C592 1.387 . S
C591 C596 1.390 . S
C592 C591 1.387 . S
C592 C593 1.401 . S
C592 H613 0.930 . S
C593 C592 1.401 . S
C593 C594 1.376 . S
C593 C602 1.511 . S
C594 C593 1.376 . S
C594 C595 1.392 . S
C594 H615 0.931 . S
C595 C594 1.392 . S
C595 C596 1.361 . S
C595 C597 1.500 . S
C596 C591 1.390 . S
C596 C595 1.361 . S
C596 H614 0.931 . S
C597 C595 1.500 . S
C597 C598 1.371 . S
C597 C599 1.365 . S
C598 C597 1.371 . S
C598 C608 1.386 . S
C598 H616 0.931 . S
C599 C597 1.365 . S
C599 C600 1.409 . S
C599 H617 0.929 . S
C600 C599 1.409 . S
C600 C601 1.380 . S
C600 H618 0.930 . S
C601 C600 1.380 . S
C601 C608 1.357 . S
C602 C593 1.511 . S
C602 C603 1.341 . S
C602 C604 1.371 . S
C603 C602 1.341 . S
C603 C607 1.394 . S
C603 H619 0.930 . S
C604 C602 1.371 . S
C604 C605 1.392 . S
C604 H620 0.931 . S
C605 C604 1.392 . S
C605 C606 1.331 . S
C605 H623 0.932 . S
C606 C605 1.331 . S
C606 C607 1.336 . S
C607 C603 1.394 . S
C607 C606 1.336 . S
C607 H622 0.929 . S
C608 C598 1.386 . S
C608 C601 1.357 . S
C608 H621 0.928 . S
H609 C585 0.931 . S
H610 C587 0.930 . S
H611 C589 0.929 . S
H612 C590 0.931 . S
H613 C592 0.930 . S
H614 C596 0.931 . S
H615 C594 0.931 . S
H616 C598 0.931 . S
H617 C599 0.929 . S
H618 C600 0.930 . S
H619 C603 0.930 . S
H620 C604 0.931 . S
H621 C608 0.928 . S
H622 C607 0.929 . S
H623 C605 0.932 . S
C624 C625 1.386 . S
C624 C626 1.397 . S
C624 H648 0.931 1_455 S
C625 C624 1.386 . S
C625 C629 1.397 . S
C626 C624 1.397 . S
C626 C627 1.384 . S
C626 H649 0.930 . S
C627 C626 1.384 . S
C627 C628 1.377 . S
C627 C630 1.481 . S
C628 C627 1.377 . S
C628 C629 1.389 . S
C628 H650 0.929 . S
C629 C625 1.397 . S
C629 C628 1.389 . S
C629 H651 0.931 . S
C630 C627 1.481 . S
C630 C631 1.387 . S
C630 C635 1.390 . S
C631 C630 1.387 . S
C631 C632 1.401 . S
C631 H652 0.930 . S
C632 C631 1.401 . S
C632 C633 1.376 . S
C632 C641 1.511 . S
C633 C632 1.376 . S
C633 C634 1.392 . S
C633 H654 0.931 . S
C634 C633 1.392 . S
C634 C635 1.361 . S
C634 C636 1.500 . S
C635 C630 1.390 . S
C635 C634 1.361 . S
C635 H653 0.931 . S
C636 C634 1.500 . S
C636 C637 1.371 . S
C636 C638 1.365 . S
C637 C636 1.371 . S
C637 C647 1.386 . S
C637 H655 0.931 . S
C638 C636 1.365 . S
C638 C639 1.409 . S
C638 H656 0.929 . S
C639 C638 1.409 . S
C639 C640 1.380 . S
C639 H657 0.930 . S
C640 C639 1.380 . S
C640 C647 1.357 . S
C641 C632 1.511 . S
C641 C642 1.341 . S
C641 C643 1.371 . S
C642 C641 1.341 . S
C642 C646 1.394 . S
C642 H658 0.930 . S
C643 C641 1.371 . S
C643 C644 1.392 . S
C643 H659 0.931 . S
C644 C643 1.392 . S
C644 C645 1.331 . S
C644 H662 0.932 . S
C645 C644 1.331 . S
C645 C646 1.336 . S
C646 C642 1.394 . S
C646 C645 1.336 . S
C646 H661 0.929 . S
C647 C637 1.386 . S
C647 C640 1.357 . S
C647 H660 0.928 . S
H648 C624 0.931 1_655 S
H649 C626 0.930 . S
H650 C628 0.929 . S
H651 C629 0.931 . S
H652 C631 0.930 . S
H653 C635 0.931 . S
H654 C633 0.931 . S
H655 C637 0.931 . S
H656 C638 0.929 . S
H657 C639 0.930 . S
H658 C642 0.930 . S
H659 C643 0.931 . S
H660 C647 0.928 . S
H661 C646 0.929 . S
H662 C644 0.932 . S
C663 C664 1.386 . S
C663 C665 1.397 . S
C663 H687 0.931 . S
C664 C663 1.386 . S
C664 C668 1.397 . S
C665 C663 1.397 . S
C665 C666 1.384 . S
C665 H688 0.930 . S
C666 C665 1.384 . S
C666 C667 1.377 . S
C666 C669 1.481 . S
C667 C666 1.377 . S
C667 C668 1.389 . S
C667 H689 0.929 . S
C668 C664 1.397 . S
C668 C667 1.389 . S
C668 H690 0.931 . S
C669 C666 1.481 . S
C669 C670 1.387 . S
C669 C674 1.390 . S
C670 C669 1.387 . S
C670 C671 1.401 . S
C670 H691 0.930 . S
C671 C670 1.401 . S
C671 C672 1.376 . S
C671 C680 1.511 . S
C672 C671 1.376 . S
C672 C673 1.392 . S
C672 H693 0.931 . S
C673 C672 1.392 . S
C673 C674 1.361 . S
C673 C675 1.500 . S
C674 C669 1.390 . S
C674 C673 1.361 . S
C674 H692 0.931 . S
C675 C673 1.500 . S
C675 C676 1.371 . S
C675 C677 1.365 . S
C676 C675 1.371 . S
C676 C686 1.386 . S
C676 H694 0.931 . S
C677 C675 1.365 . S
C677 C678 1.409 . S
C677 H695 0.929 . S
C678 C677 1.409 . S
C678 C679 1.380 . S
C678 H696 0.930 . S
C679 C678 1.380 . S
C679 C686 1.357 . S
C680 C671 1.511 . S
C680 C681 1.341 . S
C680 C682 1.371 . S
C681 C680 1.341 . S
C681 C685 1.394 . S
C681 H697 0.930 . S
C682 C680 1.371 . S
C682 C683 1.392 . S
C682 H698 0.931 . S
C683 C682 1.392 . S
C683 C684 1.331 . S
C683 H701 0.932 . S
C684 C683 1.331 . S
C684 C685 1.336 . S
C685 C681 1.394 . S
C685 C684 1.336 . S
C685 H700 0.929 . S
C686 C676 1.386 . S
C686 C679 1.357 . S
C686 H699 0.928 . S
H687 C663 0.931 . S
H688 C665 0.930 . S
H689 C667 0.929 . S
H690 C668 0.931 . S
H691 C670 0.930 . S
H692 C674 0.931 . S
H693 C672 0.931 . S
H694 C676 0.931 . S
H695 C677 0.929 . S
H696 C678 0.930 . S
H697 C681 0.930 . S
H698 C682 0.931 . S
H699 C686 0.928 . S
H700 C685 0.929 . S
H701 C683 0.932 . S
Gd702 N733 2.661 . S
Gd702 N739 2.601 . S
Gd702 O746 2.545 . S
Gd702 O747 2.606 1_545 S
Gd702 O749 2.429 . S
Gd702 O750 2.545 1_545 S
Gd702 O751 2.412 . S
Gd702 O753 2.362 1_554 S
Gd702 O754 2.324 1_545 S
Gd702 C761 2.828 . S
Gd703 N712 2.661 . S
Gd703 N716 2.601 . S
Gd703 O747 2.362 1_556 S
Gd703 O748 2.324 1_565 S
Gd703 O752 2.545 . S
Gd703 O753 2.606 1_565 S
Gd703 O755 2.429 . S
Gd703 O756 2.545 1_565 S
Gd703 O757 2.412 . S
Gd703 C770 2.828 . S
C704 C707 1.417 . S
C704 C709 1.431 . S
C704 C710 1.412 . S
C705 C708 1.437 . S
C705 C709 1.317 . S
C705 H724 0.929 . S
C706 C707 1.426 . S
C706 C708 1.413 . S
C706 N716 1.359 . S
C707 C704 1.417 . S
C707 C706 1.426 . S
C707 N712 1.350 . S
C708 C705 1.437 . S
C708 C706 1.413 . S
C708 C718 1.391 . S
C709 C704 1.431 . S
C709 C705 1.317 . S
C709 H720 0.930 . S
C710 C704 1.412 . S
C710 C711 1.355 . S
C710 H722 0.930 . S
C711 C710 1.355 . S
C711 C713 1.402 . S
C711 H723 0.930 . S
N712 Gd703 2.661 . S
N712 C707 1.350 . S
N712 C713 1.307 . S
C713 C711 1.402 . S
C713 N712 1.307 . S
C713 H714 0.930 . S
H714 C713 0.930 . S
C715 N716 1.334 . S
C715 C717 1.394 . S
C715 H719 0.930 . S
N716 Gd703 2.601 . S
N716 C706 1.359 . S
N716 C715 1.334 . S
C717 C715 1.394 . S
C717 C718 1.359 . S
C717 H729 0.930 . S
C718 C708 1.391 . S
C718 C717 1.359 . S
C718 H730 0.929 . S
H719 C715 0.930 . S
H720 C709 0.930 . S
H721 C738 0.930 . S
H722 C710 0.930 . S
H723 C711 0.930 . S
H724 C705 0.929 . S
H725 C743 0.930 . S
H726 C734 0.930 . S
H727 C735 0.930 . S
H728 C759 0.929 . S
H729 C717 0.930 . S
H730 C718 0.929 . S
H731 C760 0.930 . S
H732 C741 0.930 . S
N733 Gd702 2.661 . S
N733 C737 1.350 . S
N733 C738 1.307 . S
C734 H726 0.930 . S
C734 C735 1.355 . S
C734 C736 1.412 . S
C735 H727 0.930 . S
C735 C734 1.355 . S
C735 C738 1.402 . S
C736 C734 1.412 . S
C736 C737 1.417 . S
C736 C760 1.431 . S
C737 N733 1.350 . S
C737 C736 1.417 . S
C737 C740 1.426 . S
C738 H721 0.930 . S
C738 N733 1.307 . S
C738 C735 1.402 . S
N739 Gd702 2.601 . S
N739 C740 1.359 . S
N739 C743 1.334 . S
C740 C737 1.426 . S
C740 N739 1.359 . S
C740 C744 1.413 . S
C741 H732 0.930 . S
C741 C742 1.359 . S
C741 C743 1.394 . S
C742 C741 1.359 . S
C742 C744 1.391 . S
C742 H745 0.929 . S
C743 H725 0.930 . S
C743 N739 1.334 . S
C743 C741 1.394 . S
C744 C740 1.413 . S
C744 C742 1.391 . S
C744 C759 1.437 . S
H745 C742 0.929 . S
O746 Gd702 2.545 . S
O746 C761 1.258 . S
O747 Gd702 2.606 1_565 S
O747 Gd703 2.362 1_554 S
O747 C758 1.284 . S
O748 Gd703 2.324 1_545 S
O748 C768 1.254 . S
O749 Gd702 2.429 . S
O749 C768 1.268 1_554 S
O750 Gd702 2.545 1_565 S
O750 C758 1.250 . S
O751 Gd702 2.412 . S
O751 C761 1.252 . S
O752 Gd703 2.545 . S
O752 C770 1.258 . S
O753 Gd702 2.362 1_556 S
O753 Gd703 2.606 1_545 S
O753 C769 1.284 . S
O754 Gd702 2.324 1_565 S
O754 C777 1.254 . S
O755 Gd703 2.429 . S
O755 C777 1.268 1_556 S
O756 Gd703 2.545 1_545 S
O756 C769 1.250 . S
O757 Gd703 2.412 . S
O757 C770 1.252 . S
C758 O747 1.284 . S
C758 O750 1.250 . S
C759 H728 0.929 . S
C759 C744 1.437 . S
C759 C760 1.317 . S
C760 H731 0.930 . S
C760 C736 1.431 . S
C760 C759 1.317 . S
C761 Gd702 2.828 . S
C761 O746 1.258 . S
C761 O751 1.252 . S
C761 C762 1.497 . S
C762 C761 1.497 . S
C762 C763 1.395 . S
C762 C764 1.380 1_545 S
C763 C762 1.395 . S
C763 C766 1.398 . S
C763 H778 0.930 . S
C764 C762 1.380 1_565 S
C764 C765 1.391 . S
C764 H779 0.930 . S
C765 C764 1.391 . S
C765 C767 1.387 1_565 S
C766 C763 1.398 . S
C766 C767 1.380 . S
C766 H780 0.930 . S
C767 C765 1.387 1_545 S
C767 C766 1.380 . S
C767 H781 0.930 . S
C768 O748 1.254 . S
C768 O749 1.268 1_556 S
C769 O753 1.284 . S
C769 O756 1.250 . S
C770 Gd703 2.828 . S
C770 O752 1.258 . S
C770 O757 1.252 . S
C770 C771 1.497 . S
C771 C770 1.497 . S
C771 C772 1.395 . S
C771 C773 1.380 1_565 S
C772 C771 1.395 . S
C772 C775 1.398 . S
C772 H782 0.930 . S
C773 C771 1.380 1_545 S
C773 C774 1.391 . S
C773 H783 0.930 . S
C774 C773 1.391 . S
C774 C776 1.387 1_545 S
C775 C772 1.398 . S
C775 C776 1.380 . S
C775 H784 0.930 . S
C776 C774 1.387 1_565 S
C776 C775 1.380 . S
C776 H785 0.930 . S
C777 O754 1.254 . S
C777 O755 1.268 1_554 S
H778 C763 0.930 . S
H779 C764 0.930 . S
H780 C766 0.930 . S
H781 C767 0.930 . S
H782 C772 0.930 . S
H783 C773 0.930 . S
H784 C775 0.930 . S
H785 C776 0.930 . S
Gd786 N817 2.661 . S
Gd786 N823 2.601 . S
Gd786 O830 2.545 . S
Gd786 O831 2.606 1_655 S
Gd786 O833 2.429 . S
Gd786 O834 2.545 1_655 S
Gd786 O835 2.412 . S
Gd786 O837 2.362 1_554 S
Gd786 O838 2.324 1_655 S
Gd786 C845 2.828 . S
Gd787 N796 2.661 . S
Gd787 N800 2.601 . S
Gd787 O831 2.362 1_556 S
Gd787 O832 2.324 1_455 S
Gd787 O836 2.545 . S
Gd787 O837 2.606 1_455 S
Gd787 O839 2.429 . S
Gd787 O840 2.545 1_455 S
Gd787 O841 2.412 . S
Gd787 C854 2.828 . S
C788 C791 1.417 . S
C788 C793 1.431 . S
C788 C794 1.412 . S
C789 C792 1.437 . S
C789 C793 1.317 . S
C789 H808 0.929 . S
C790 C791 1.426 . S
C790 C792 1.413 . S
C790 N800 1.359 . S
C791 C788 1.417 . S
C791 C790 1.426 . S
C791 N796 1.350 . S
C792 C789 1.437 . S
C792 C790 1.413 . S
C792 C802 1.391 . S
C793 C788 1.431 . S
C793 C789 1.317 . S
C793 H804 0.930 . S
C794 C788 1.412 . S
C794 C795 1.355 . S
C794 H806 0.930 . S
C795 C794 1.355 . S
C795 C797 1.402 . S
C795 H807 0.930 . S
N796 Gd787 2.661 . S
N796 C791 1.350 . S
N796 C797 1.307 . S
C797 C795 1.402 . S
C797 N796 1.307 . S
C797 H798 0.930 . S
H798 C797 0.930 . S
C799 N800 1.334 . S
C799 C801 1.394 . S
C799 H803 0.930 . S
N800 Gd787 2.601 . S
N800 C790 1.359 . S
N800 C799 1.334 . S
C801 C799 1.394 . S
C801 C802 1.359 . S
C801 H813 0.930 . S
C802 C792 1.391 . S
C802 C801 1.359 . S
C802 H814 0.929 . S
H803 C799 0.930 . S
H804 C793 0.930 . S
H805 C822 0.930 . S
H806 C794 0.930 . S
H807 C795 0.930 . S
H808 C789 0.929 . S
H809 C827 0.930 . S
H810 C818 0.930 . S
H811 C819 0.930 . S
H812 C843 0.929 . S
H813 C801 0.930 . S
H814 C802 0.929 . S
H815 C844 0.930 . S
H816 C825 0.930 . S
N817 Gd786 2.661 . S
N817 C821 1.350 . S
N817 C822 1.307 . S
C818 H810 0.930 . S
C818 C819 1.355 . S
C818 C820 1.412 . S
C819 H811 0.930 . S
C819 C818 1.355 . S
C819 C822 1.402 . S
C820 C818 1.412 . S
C820 C821 1.417 . S
C820 C844 1.431 . S
C821 N817 1.350 . S
C821 C820 1.417 . S
C821 C824 1.426 . S
C822 H805 0.930 . S
C822 N817 1.307 . S
C822 C819 1.402 . S
N823 Gd786 2.601 . S
N823 C824 1.359 . S
N823 C827 1.334 . S
C824 C821 1.426 . S
C824 N823 1.359 . S
C824 C828 1.413 . S
C825 H816 0.930 . S
C825 C826 1.359 . S
C825 C827 1.394 . S
C826 C825 1.359 . S
C826 C828 1.391 . S
C826 H829 0.929 . S
C827 H809 0.930 . S
C827 N823 1.334 . S
C827 C825 1.394 . S
C828 C824 1.413 . S
C828 C826 1.391 . S
C828 C843 1.437 . S
H829 C826 0.929 . S
O830 Gd786 2.545 . S
O830 C845 1.258 . S
O831 Gd786 2.606 1_455 S
O831 Gd787 2.362 1_554 S
O831 C842 1.284 . S
O832 Gd787 2.324 1_655 S
O832 C852 1.254 . S
O833 Gd786 2.429 . S
O833 C852 1.268 1_554 S
O834 Gd786 2.545 1_455 S
O834 C842 1.250 . S
O835 Gd786 2.412 . S
O835 C845 1.252 . S
O836 Gd787 2.545 . S
O836 C854 1.258 . S
O837 Gd786 2.362 1_556 S
O837 Gd787 2.606 1_655 S
O837 C853 1.284 . S
O838 Gd786 2.324 1_455 S
O838 C861 1.254 . S
O839 Gd787 2.429 . S
O839 C861 1.268 1_556 S
O840 Gd787 2.545 1_655 S
O840 C853 1.250 . S
O841 Gd787 2.412 . S
O841 C854 1.252 . S
C842 O831 1.284 . S
C842 O834 1.250 . S
C843 H812 0.929 . S
C843 C828 1.437 . S
C843 C844 1.317 . S
C844 H815 0.930 . S
C844 C820 1.431 . S
C844 C843 1.317 . S
C845 Gd786 2.828 . S
C845 O830 1.258 . S
C845 O835 1.252 . S
C845 C846 1.497 . S
C846 C845 1.497 . S
C846 C847 1.395 . S
C846 C848 1.380 1_655 S
C847 C846 1.395 . S
C847 C850 1.398 . S
C847 H862 0.930 . S
C848 C846 1.380 1_455 S
C848 C849 1.391 . S
C848 H863 0.930 . S
C849 C848 1.391 . S
C849 C851 1.387 1_455 S
C850 C847 1.398 . S
C850 C851 1.380 . S
C850 H864 0.930 . S
C851 C849 1.387 1_655 S
C851 C850 1.380 . S
C851 H865 0.930 . S
C852 O832 1.254 . S
C852 O833 1.268 1_556 S
C853 O837 1.284 . S
C853 O840 1.250 . S
C854 Gd787 2.828 . S
C854 O836 1.258 . S
C854 O841 1.252 . S
C854 C855 1.497 . S
C855 C854 1.497 . S
C855 C856 1.395 . S
C855 C857 1.380 1_455 S
C856 C855 1.395 . S
C856 C859 1.398 . S
C856 H866 0.930 . S
C857 C855 1.380 1_655 S
C857 C858 1.391 . S
C857 H867 0.930 . S
C858 C857 1.391 . S
C858 C860 1.387 1_655 S
C859 C856 1.398 . S
C859 C860 1.380 . S
C859 H868 0.930 . S
C860 C858 1.387 1_455 S
C860 C859 1.380 . S
C860 H869 0.930 . S
C861 O838 1.254 . S
C861 O839 1.268 1_554 S
H862 C847 0.930 . S
H863 C848 0.930 . S
H864 C850 0.930 . S
H865 C851 0.930 . S
H866 C856 0.930 . S
H867 C857 0.930 . S
H868 C859 0.930 . S
H869 C860 0.930 . S
Gd870 N901 2.661 . S
Gd870 N907 2.601 . S
Gd870 O914 2.545 . S
Gd870 O915 2.606 . S
Gd870 O917 2.429 . S
Gd870 O918 2.545 . S
Gd870 O919 2.412 . S
Gd870 O921 2.362 1_556 S
Gd870 O922 2.324 . S
Gd870 C929 2.828 . S
Gd871 N880 2.661 . S
Gd871 N884 2.601 . S
Gd871 O915 2.362 1_554 S
Gd871 O916 2.324 . S
Gd871 O920 2.545 . S
Gd871 O921 2.606 . S
Gd871 O923 2.429 . S
Gd871 O924 2.545 . S
Gd871 O925 2.412 . S
Gd871 C938 2.828 . S
C872 C875 1.417 . S
C872 C877 1.431 . S
C872 C878 1.412 . S
C873 C876 1.437 . S
C873 C877 1.317 . S
C873 H892 0.929 . S
C874 C875 1.426 . S
C874 C876 1.413 . S
C874 N884 1.359 . S
C875 C872 1.417 . S
C875 C874 1.426 . S
C875 N880 1.350 . S
C876 C873 1.437 . S
C876 C874 1.413 . S
C876 C886 1.391 . S
C877 C872 1.431 . S
C877 C873 1.317 . S
C877 H888 0.930 . S
C878 C872 1.412 . S
C878 C879 1.355 . S
C878 H890 0.930 . S
C879 C878 1.355 . S
C879 C881 1.402 . S
C879 H891 0.930 . S
N880 Gd871 2.661 . S
N880 C875 1.350 . S
N880 C881 1.307 . S
C881 C879 1.402 . S
C881 N880 1.307 . S
C881 H882 0.930 . S
H882 C881 0.930 . S
C883 N884 1.334 . S
C883 C885 1.394 . S
C883 H887 0.930 . S
N884 Gd871 2.601 . S
N884 C874 1.359 . S
N884 C883 1.334 . S
C885 C883 1.394 . S
C885 C886 1.359 . S
C885 H897 0.930 . S
C886 C876 1.391 . S
C886 C885 1.359 . S
C886 H898 0.929 . S
H887 C883 0.930 . S
H888 C877 0.930 . S
H889 C906 0.930 . S
H890 C878 0.930 . S
H891 C879 0.930 . S
H892 C873 0.929 . S
H893 C911 0.930 . S
H894 C902 0.930 . S
H895 C903 0.930 . S
H896 C927 0.929 . S
H897 C885 0.930 . S
H898 C886 0.929 . S
H899 C928 0.930 . S
H900 C909 0.930 . S
N901 Gd870 2.661 . S
N901 C905 1.350 . S
N901 C906 1.307 . S
C902 H894 0.930 . S
C902 C903 1.355 . S
C902 C904 1.412 . S
C903 H895 0.930 . S
C903 C902 1.355 . S
C903 C906 1.402 . S
C904 C902 1.412 . S
C904 C905 1.417 . S
C904 C928 1.431 . S
C905 N901 1.350 . S
C905 C904 1.417 . S
C905 C908 1.426 . S
C906 H889 0.930 . S
C906 N901 1.307 . S
C906 C903 1.402 . S
N907 Gd870 2.601 . S
N907 C908 1.359 . S
N907 C911 1.334 . S
C908 C905 1.426 . S
C908 N907 1.359 . S
C908 C912 1.413 . S
C909 H900 0.930 . S
C909 C910 1.359 . S
C909 C911 1.394 . S
C910 C909 1.359 . S
C910 C912 1.391 . S
C910 H913 0.929 . S
C911 H893 0.930 . S
C911 N907 1.334 . S
C911 C909 1.394 . S
C912 C908 1.413 . S
C912 C910 1.391 . S
C912 C927 1.437 . S
H913 C910 0.929 . S
O914 Gd870 2.545 . S
O914 C929 1.258 . S
O915 Gd870 2.606 . S
O915 Gd871 2.362 1_556 S
O915 C926 1.284 . S
O916 Gd871 2.324 . S
O916 C936 1.254 . S
O917 Gd870 2.429 . S
O917 C936 1.268 1_556 S
O918 Gd870 2.545 . S
O918 C926 1.250 . S
O919 Gd870 2.412 . S
O919 C929 1.252 . S
O920 Gd871 2.545 . S
O920 C938 1.258 . S
O921 Gd870 2.362 1_554 S
O921 Gd871 2.606 . S
O921 C937 1.284 . S
O922 Gd870 2.324 . S
O922 C945 1.254 . S
O923 Gd871 2.429 . S
O923 C945 1.268 1_554 S
O924 Gd871 2.545 . S
O924 C937 1.250 . S
O925 Gd871 2.412 . S
O925 C938 1.252 . S
C926 O915 1.284 . S
C926 O918 1.250 . S
C927 H896 0.929 . S
C927 C912 1.437 . S
C927 C928 1.317 . S
C928 H899 0.930 . S
C928 C904 1.431 . S
C928 C927 1.317 . S
C929 Gd870 2.828 . S
C929 O914 1.258 . S
C929 O919 1.252 . S
C929 C930 1.497 . S
C930 C929 1.497 . S
C930 C931 1.395 . S
C930 C932 1.380 . S
C931 C930 1.395 . S
C931 C934 1.398 . S
C931 H946 0.930 . S
C932 C930 1.380 . S
C932 C933 1.391 . S
C932 H947 0.930 . S
C933 C932 1.391 . S
C933 C935 1.387 . S
C934 C931 1.398 . S
C934 C935 1.380 . S
C934 H948 0.930 . S
C935 C933 1.387 . S
C935 C934 1.380 . S
C935 H949 0.930 . S
C936 O916 1.254 . S
C936 O917 1.268 1_554 S
C937 O921 1.284 . S
C937 O924 1.250 . S
C938 Gd871 2.828 . S
C938 O920 1.258 . S
C938 O925 1.252 . S
C938 C939 1.497 . S
C939 C938 1.497 . S
C939 C940 1.395 . S
C939 C941 1.380 . S
C940 C939 1.395 . S
C940 C943 1.398 . S
C940 H950 0.930 . S
C941 C939 1.380 . S
C941 C942 1.391 . S
C941 H951 0.930 . S
C942 C941 1.391 . S
C942 C944 1.387 . S
C943 C940 1.398 . S
C943 C944 1.380 . S
C943 H952 0.930 . S
C944 C942 1.387 . S
C944 C943 1.380 . S
C944 H953 0.930 . S
C945 O922 1.254 . S
C945 O923 1.268 1_556 S
H946 C931 0.930 . S
H947 C932 0.930 . S
H948 C934 0.930 . S
H949 C935 0.930 . S
H950 C940 0.930 . S
H951 C941 0.930 . S
H952 C943 0.930 . S
H953 C944 0.930 . S
Gd954 N985 2.661 . S
Gd954 N991 2.601 . S
Gd954 O998 2.545 . S
Gd954 O999 2.606 . S
Gd954 O1001 2.429 . S
Gd954 O1002 2.545 . S
Gd954 O1003 2.412 . S
Gd954 O1005 2.362 . S
Gd954 O1006 2.324 . S
Gd954 C1013 2.828 . S
Gd955 N964 2.661 . S
Gd955 N968 2.601 . S
Gd955 O999 2.362 . S
Gd955 O1000 2.324 . S
Gd955 O1004 2.545 . S
Gd955 O1005 2.606 . S
Gd955 O1007 2.429 . S
Gd955 O1008 2.545 . S
Gd955 O1009 2.412 . S
Gd955 C1022 2.828 . S
C956 C959 1.417 1_655 S
C956 C961 1.431 . S
C956 C962 1.412 . S
C957 C960 1.437 1_655 S
C957 C961 1.317 . S
C957 H976 0.929 . S
C958 C959 1.426 . S
C958 C960 1.413 . S
C958 N968 1.359 . S
C959 C956 1.417 1_455 S
C959 C958 1.426 . S
C959 N964 1.350 . S
C960 C957 1.437 1_455 S
C960 C958 1.413 . S
C960 C970 1.391 . S
C961 C956 1.431 . S
C961 C957 1.317 . S
C961 H972 0.930 . S
C962 C956 1.412 . S
C962 C963 1.355 . S
C962 H974 0.930 . S
C963 C962 1.355 . S
C963 C965 1.402 1_655 S
C963 H975 0.930 . S
N964 Gd955 2.661 . S
N964 C959 1.350 . S
N964 C965 1.307 . S
C965 C963 1.402 1_455 S
C965 N964 1.307 . S
C965 H966 0.930 . S
H966 C965 0.930 . S
C967 N968 1.334 . S
C967 C969 1.394 . S
C967 H971 0.930 . S
N968 Gd955 2.601 . S
N968 C958 1.359 . S
N968 C967 1.334 . S
C969 C967 1.394 . S
C969 C970 1.359 . S
C969 H981 0.930 . S
C970 C960 1.391 . S
C970 C969 1.359 . S
C970 H982 0.929 . S
H971 C967 0.930 . S
H972 C961 0.930 . S
H973 C990 0.930 . S
H974 C962 0.930 . S
H975 C963 0.930 . S
H976 C957 0.929 . S
H977 C995 0.930 . S
H978 C986 0.930 . S
H979 C987 0.930 . S
H980 C1011 0.929 . S
H981 C969 0.930 . S
H982 C970 0.929 . S
H983 C1012 0.930 . S
H984 C993 0.930 . S
N985 Gd954 2.661 . S
N985 C989 1.350 . S
N985 C990 1.307 . S
C986 H978 0.930 . S
C986 C987 1.355 . S
C986 C988 1.412 . S
C987 H979 0.930 . S
C987 C986 1.355 . S
C987 C990 1.402 . S
C988 C986 1.412 . S
C988 C989 1.417 . S
C988 C1012 1.431 . S
C989 N985 1.350 . S
C989 C988 1.417 . S
C989 C992 1.426 . S
C990 H973 0.930 . S
C990 N985 1.307 . S
C990 C987 1.402 . S
N991 Gd954 2.601 . S
N991 C992 1.359 . S
N991 C995 1.334 . S
C992 C989 1.426 . S
C992 N991 1.359 . S
C992 C996 1.413 . S
C993 H984 0.930 . S
C993 C994 1.359 . S
C993 C995 1.394 . S
C994 C993 1.359 . S
C994 C996 1.391 . S
C994 H997 0.929 . S
C995 H977 0.930 . S
C995 N991 1.334 . S
C995 C993 1.394 . S
C996 C992 1.413 . S
C996 C994 1.391 . S
C996 C1011 1.437 . S
H997 C994 0.929 . S
O998 Gd954 2.545 . S
O998 C1013 1.258 . S
O999 Gd954 2.606 . S
O999 Gd955 2.362 . S
O999 C1010 1.284 . S
O1000 Gd955 2.324 . S
O1000 C1020 1.254 . S
O1001 Gd954 2.429 . S
O1001 C1020 1.268 . S
O1002 Gd954 2.545 . S
O1002 C1010 1.250 . S
O1003 Gd954 2.412 . S
O1003 C1013 1.252 . S
O1004 Gd955 2.545 . S
O1004 C1022 1.258 . S
O1005 Gd954 2.362 . S
O1005 Gd955 2.606 . S
O1005 C1021 1.284 . S
O1006 Gd954 2.324 . S
O1006 C1029 1.254 . S
O1007 Gd955 2.429 . S
O1007 C1029 1.268 . S
O1008 Gd955 2.545 . S
O1008 C1021 1.250 . S
O1009 Gd955 2.412 . S
O1009 C1022 1.252 . S
C1010 O999 1.284 . S
C1010 O1002 1.250 . S
C1011 H980 0.929 . S
C1011 C996 1.437 . S
C1011 C1012 1.317 . S
C1012 H983 0.930 . S
C1012 C988 1.431 . S
C1012 C1011 1.317 . S
C1013 Gd954 2.828 . S
C1013 O998 1.258 . S
C1013 O1003 1.252 . S
C1013 C1014 1.497 . S
C1014 C1013 1.497 . S
C1014 C1015 1.395 . S
C1014 C1016 1.380 . S
C1015 C1014 1.395 . S
C1015 C1018 1.398 . S
C1015 H1030 0.930 . S
C1016 C1014 1.380 . S
C1016 C1017 1.391 . S
C1016 H1031 0.930 . S
C1017 C1016 1.391 . S
C1017 C1019 1.387 . S
C1018 C1015 1.398 . S
C1018 C1019 1.380 . S
C1018 H1032 0.930 . S
C1019 C1017 1.387 . S
C1019 C1018 1.380 . S
C1019 H1033 0.930 . S
C1020 O1000 1.254 . S
C1020 O1001 1.268 . S
C1021 O1005 1.284 . S
C1021 O1008 1.250 . S
C1022 Gd955 2.828 . S
C1022 O1004 1.258 . S
C1022 O1009 1.252 . S
C1022 C1023 1.497 . S
C1023 C1022 1.497 . S
C1023 C1024 1.395 . S
C1023 C1025 1.380 . S
C1024 C1023 1.395 . S
C1024 C1027 1.398 . S
C1024 H1034 0.930 . S
C1025 C1023 1.380 . S
C1025 C1026 1.391 . S
C1025 H1035 0.930 . S
C1026 C1025 1.391 . S
C1026 C1028 1.387 . S
C1027 C1024 1.398 . S
C1027 C1028 1.380 . S
C1027 H1036 0.930 . S
C1028 C1026 1.387 . S
C1028 C1027 1.380 . S
C1028 H1037 0.930 . S
C1029 O1006 1.254 . S
C1029 O1007 1.268 . S
H1030 C1015 0.930 . S
H1031 C1016 0.930 . S
H1032 C1018 0.930 . S
H1033 C1019 0.930 . S
H1034 C1024 0.930 . S
H1035 C1025 0.930 . S
H1036 C1027 0.930 . S
H1037 C1028 0.930 . S
Gd1038 N1069 2.661 . S
Gd1038 N1075 2.601 . S
Gd1038 O1082 2.545 . S
Gd1038 O1083 2.606 . S
Gd1038 O1085 2.429 . S
Gd1038 O1086 2.545 . S
Gd1038 O1087 2.412 . S
Gd1038 O1089 2.362 . S
Gd1038 O1090 2.324 . S
Gd1038 C1097 2.828 . S
Gd1039 N1048 2.661 . S
Gd1039 N1052 2.601 . S
Gd1039 O1083 2.362 . S
Gd1039 O1084 2.324 . S
Gd1039 O1088 2.545 . S
Gd1039 O1089 2.606 . S
Gd1039 O1091 2.429 . S
Gd1039 O1092 2.545 . S
Gd1039 O1093 2.412 . S
Gd1039 C1106 2.828 . S
C1040 C1043 1.417 . S
C1040 C1045 1.431 . S
C1040 C1046 1.412 . S
C1041 C1044 1.437 . S
C1041 C1045 1.317 . S
C1041 H1060 0.929 . S
C1042 C1043 1.426 . S
C1042 C1044 1.413 . S
C1042 N1052 1.359 . S
C1043 C1040 1.417 . S
C1043 C1042 1.426 . S
C1043 N1048 1.350 . S
C1044 C1041 1.437 . S
C1044 C1042 1.413 . S
C1044 C1054 1.391 . S
C1045 C1040 1.431 . S
C1045 C1041 1.317 . S
C1045 H1056 0.930 . S
C1046 C1040 1.412 . S
C1046 C1047 1.355 . S
C1046 H1058 0.930 . S
C1047 C1046 1.355 . S
C1047 C1049 1.402 . S
C1047 H1059 0.930 . S
N1048 Gd1039 2.661 . S
N1048 C1043 1.350 . S
N1048 C1049 1.307 . S
C1049 C1047 1.402 . S
C1049 N1048 1.307 . S
C1049 H1050 0.930 . S
H1050 C1049 0.930 . S
C1051 N1052 1.334 . S
C1051 C1053 1.394 . S
C1051 H1055 0.930 . S
N1052 Gd1039 2.601 . S
N1052 C1042 1.359 . S
N1052 C1051 1.334 . S
C1053 C1051 1.394 . S
C1053 C1054 1.359 . S
C1053 H1065 0.930 . S
C1054 C1044 1.391 . S
C1054 C1053 1.359 . S
C1054 H1066 0.929 . S
H1055 C1051 0.930 . S
H1056 C1045 0.930 . S
H1057 C1074 0.930 . S
H1058 C1046 0.930 . S
H1059 C1047 0.930 . S
H1060 C1041 0.929 . S
H1061 C1079 0.930 . S
H1062 C1070 0.930 . S
H1063 C1071 0.930 . S
H1064 C1095 0.929 . S
H1065 C1053 0.930 . S
H1066 C1054 0.929 . S
H1067 C1096 0.930 . S
H1068 C1077 0.930 . S
N1069 Gd1038 2.661 . S
N1069 C1073 1.350 . S
N1069 C1074 1.307 . S
C1070 H1062 0.930 . S
C1070 C1071 1.355 . S
C1070 C1072 1.412 . S
C1071 H1063 0.930 . S
C1071 C1070 1.355 . S
C1071 C1074 1.402 . S
C1072 C1070 1.412 . S
C1072 C1073 1.417 . S
C1072 C1096 1.431 . S
C1073 N1069 1.350 . S
C1073 C1072 1.417 . S
C1073 C1076 1.426 . S
C1074 H1057 0.930 . S
C1074 N1069 1.307 . S
C1074 C1071 1.402 . S
N1075 Gd1038 2.601 . S
N1075 C1076 1.359 . S
N1075 C1079 1.334 . S
C1076 C1073 1.426 . S
C1076 N1075 1.359 . S
C1076 C1080 1.413 . S
C1077 H1068 0.930 . S
C1077 C1078 1.359 . S
C1077 C1079 1.394 . S
C1078 C1077 1.359 . S
C1078 C1080 1.391 . S
C1078 H1081 0.929 . S
C1079 H1061 0.930 . S
C1079 N1075 1.334 . S
C1079 C1077 1.394 . S
C1080 C1076 1.413 . S
C1080 C1078 1.391 . S
C1080 C1095 1.437 . S
H1081 C1078 0.929 . S
O1082 Gd1038 2.545 . S
O1082 C1097 1.258 . S
O1083 Gd1038 2.606 . S
O1083 Gd1039 2.362 . S
O1083 C1094 1.284 . S
O1084 Gd1039 2.324 . S
O1084 C1104 1.254 . S
O1085 Gd1038 2.429 . S
O1085 C1104 1.268 . S
O1086 Gd1038 2.545 . S
O1086 C1094 1.250 . S
O1087 Gd1038 2.412 . S
O1087 C1097 1.252 . S
O1088 Gd1039 2.545 . S
O1088 C1106 1.258 . S
O1089 Gd1038 2.362 . S
O1089 Gd1039 2.606 . S
O1089 C1105 1.284 . S
O1090 Gd1038 2.324 . S
O1090 C1113 1.254 . S
O1091 Gd1039 2.429 . S
O1091 C1113 1.268 . S
O1092 Gd1039 2.545 . S
O1092 C1105 1.250 . S
O1093 Gd1039 2.412 . S
O1093 C1106 1.252 . S
C1094 O1083 1.284 . S
C1094 O1086 1.250 . S
C1095 H1064 0.929 . S
C1095 C1080 1.437 . S
C1095 C1096 1.317 . S
C1096 H1067 0.930 . S
C1096 C1072 1.431 . S
C1096 C1095 1.317 . S
C1097 Gd1038 2.828 . S
C1097 O1082 1.258 . S
C1097 O1087 1.252 . S
C1097 C1098 1.497 . S
C1098 C1097 1.497 . S
C1098 C1099 1.395 . S
C1098 C1100 1.380 . S
C1099 C1098 1.395 . S
C1099 C1102 1.398 . S
C1099 H1114 0.930 . S
C1100 C1098 1.380 . S
C1100 C1101 1.391 . S
C1100 H1115 0.930 . S
C1101 C1100 1.391 . S
C1101 C1103 1.387 . S
C1102 C1099 1.398 . S
C1102 C1103 1.380 . S
C1102 H1116 0.930 . S
C1103 C1101 1.387 . S
C1103 C1102 1.380 . S
C1103 H1117 0.930 . S
C1104 O1084 1.254 . S
C1104 O1085 1.268 . S
C1105 O1089 1.284 . S
C1105 O1092 1.250 . S
C1106 Gd1039 2.828 . S
C1106 O1088 1.258 . S
C1106 O1093 1.252 . S
C1106 C1107 1.497 . S
C1107 C1106 1.497 . S
C1107 C1108 1.395 . S
C1107 C1109 1.380 . S
C1108 C1107 1.395 . S
C1108 C1111 1.398 . S
C1108 H1118 0.930 . S
C1109 C1107 1.380 . S
C1109 C1110 1.391 . S
C1109 H1119 0.930 . S
C1110 C1109 1.391 . S
C1110 C1112 1.387 . S
C1111 C1108 1.398 . S
C1111 C1112 1.380 . S
C1111 H1120 0.930 . S
C1112 C1110 1.387 . S
C1112 C1111 1.380 . S
C1112 H1121 0.930 . S
C1113 O1090 1.254 . S
C1113 O1091 1.268 . S
H1114 C1099 0.930 . S
H1115 C1100 0.930 . S
H1116 C1102 0.930 . S
H1117 C1103 0.930 . S
H1118 C1108 0.930 . S
H1119 C1109 0.930 . S
H1120 C1111 0.930 . S
H1121 C1112 0.930 . S
Gd1122 N1153 2.661 . S
Gd1122 N1159 2.601 . S
Gd1122 O1166 2.545 . S
Gd1122 O1167 2.606 . S
Gd1122 O1169 2.429 . S
Gd1122 O1170 2.545 . S
Gd1122 O1171 2.412 . S
Gd1122 O1173 2.362 . S
Gd1122 O1174 2.324 . S
Gd1122 C1181 2.828 . S
Gd1123 N1132 2.661 . S
Gd1123 N1136 2.601 . S
Gd1123 O1167 2.362 . S
Gd1123 O1168 2.324 . S
Gd1123 O1172 2.545 . S
Gd1123 O1173 2.606 . S
Gd1123 O1175 2.429 . S
Gd1123 O1176 2.545 . S
Gd1123 O1177 2.412 . S
Gd1123 C1190 2.828 . S
C1124 C1127 1.417 . S
C1124 C1129 1.431 . S
C1124 C1130 1.412 . S
C1125 C1128 1.437 . S
C1125 C1129 1.317 . S
C1125 H1144 0.929 . S
C1126 C1127 1.426 . S
C1126 C1128 1.413 . S
C1126 N1136 1.359 . S
C1127 C1124 1.417 . S
C1127 C1126 1.426 . S
C1127 N1132 1.350 . S
C1128 C1125 1.437 . S
C1128 C1126 1.413 . S
C1128 C1138 1.391 . S
C1129 C1124 1.431 . S
C1129 C1125 1.317 . S
C1129 H1140 0.930 . S
C1130 C1124 1.412 . S
C1130 C1131 1.355 . S
C1130 H1142 0.930 . S
C1131 C1130 1.355 . S
C1131 C1133 1.402 . S
C1131 H1143 0.930 . S
N1132 Gd1123 2.661 . S
N1132 C1127 1.350 . S
N1132 C1133 1.307 . S
C1133 C1131 1.402 . S
C1133 N1132 1.307 . S
C1133 H1134 0.930 . S
H1134 C1133 0.930 . S
C1135 N1136 1.334 . S
C1135 C1137 1.394 . S
C1135 H1139 0.930 . S
N1136 Gd1123 2.601 . S
N1136 C1126 1.359 . S
N1136 C1135 1.334 . S
C1137 C1135 1.394 . S
C1137 C1138 1.359 . S
C1137 H1149 0.930 . S
C1138 C1128 1.391 . S
C1138 C1137 1.359 . S
C1138 H1150 0.929 . S
H1139 C1135 0.930 . S
H1140 C1129 0.930 . S
H1141 C1158 0.930 . S
H1142 C1130 0.930 . S
H1143 C1131 0.930 . S
H1144 C1125 0.929 . S
H1145 C1163 0.930 . S
H1146 C1154 0.930 . S
H1147 C1155 0.930 . S
H1148 C1179 0.929 . S
H1149 C1137 0.930 . S
H1150 C1138 0.929 . S
H1151 C1180 0.930 . S
H1152 C1161 0.930 . S
N1153 Gd1122 2.661 . S
N1153 C1157 1.350 . S
N1153 C1158 1.307 . S
C1154 H1146 0.930 . S
C1154 C1155 1.355 . S
C1154 C1156 1.412 . S
C1155 H1147 0.930 . S
C1155 C1154 1.355 . S
C1155 C1158 1.402 1_655 S
C1156 C1154 1.412 . S
C1156 C1157 1.417 1_655 S
C1156 C1180 1.431 . S
C1157 N1153 1.350 . S
C1157 C1156 1.417 1_455 S
C1157 C1160 1.426 . S
C1158 H1141 0.930 . S
C1158 N1153 1.307 . S
C1158 C1155 1.402 1_455 S
N1159 Gd1122 2.601 . S
N1159 C1160 1.359 . S
N1159 C1163 1.334 . S
C1160 C1157 1.426 . S
C1160 N1159 1.359 . S
C1160 C1164 1.413 . S
C1161 H1152 0.930 . S
C1161 C1162 1.359 . S
C1161 C1163 1.394 . S
C1162 C1161 1.359 . S
C1162 C1164 1.391 . S
C1162 H1165 0.929 . S
C1163 H1145 0.930 . S
C1163 N1159 1.334 . S
C1163 C1161 1.394 . S
C1164 C1160 1.413 . S
C1164 C1162 1.391 . S
C1164 C1179 1.437 1_455 S
H1165 C1162 0.929 . S
O1166 Gd1122 2.545 . S
O1166 C1181 1.258 . S
O1167 Gd1122 2.606 . S
O1167 Gd1123 2.362 . S
O1167 C1178 1.284 . S
O1168 Gd1123 2.324 . S
O1168 C1188 1.254 . S
O1169 Gd1122 2.429 . S
O1169 C1188 1.268 . S
O1170 Gd1122 2.545 . S
O1170 C1178 1.250 . S
O1171 Gd1122 2.412 . S
O1171 C1181 1.252 . S
O1172 Gd1123 2.545 . S
O1172 C1190 1.258 . S
O1173 Gd1122 2.362 . S
O1173 Gd1123 2.606 . S
O1173 C1189 1.284 . S
O1174 Gd1122 2.324 . S
O1174 C1197 1.254 . S
O1175 Gd1123 2.429 . S
O1175 C1197 1.268 . S
O1176 Gd1123 2.545 . S
O1176 C1189 1.250 . S
O1177 Gd1123 2.412 . S
O1177 C1190 1.252 . S
C1178 O1167 1.284 . S
C1178 O1170 1.250 . S
C1179 H1148 0.929 . S
C1179 C1164 1.437 1_655 S
C1179 C1180 1.317 . S
C1180 H1151 0.930 . S
C1180 C1156 1.431 . S
C1180 C1179 1.317 . S
C1181 Gd1122 2.828 . S
C1181 O1166 1.258 . S
C1181 O1171 1.252 . S
C1181 C1182 1.497 . S
C1182 C1181 1.497 . S
C1182 C1183 1.395 . S
C1182 C1184 1.380 . S
C1183 C1182 1.395 . S
C1183 C1186 1.398 . S
C1183 H1198 0.930 . S
C1184 C1182 1.380 . S
C1184 C1185 1.391 . S
C1184 H1199 0.930 . S
C1185 C1184 1.391 . S
C1185 C1187 1.387 . S
C1186 C1183 1.398 . S
C1186 C1187 1.380 . S
C1186 H1200 0.930 . S
C1187 C1185 1.387 . S
C1187 C1186 1.380 . S
C1187 H1201 0.930 . S
C1188 O1168 1.254 . S
C1188 O1169 1.268 . S
C1189 O1173 1.284 . S
C1189 O1176 1.250 . S
C1190 Gd1123 2.828 . S
C1190 O1172 1.258 . S
C1190 O1177 1.252 . S
C1190 C1191 1.497 . S
C1191 C1190 1.497 . S
C1191 C1192 1.395 . S
C1191 C1193 1.380 . S
C1192 C1191 1.395 . S
C1192 C1195 1.398 . S
C1192 H1202 0.930 . S
C1193 C1191 1.380 . S
C1193 C1194 1.391 . S
C1193 H1203 0.930 . S
C1194 C1193 1.391 . S
C1194 C1196 1.387 . S
C1195 C1192 1.398 . S
C1195 C1196 1.380 . S
C1195 H1204 0.930 . S
C1196 C1194 1.387 . S
C1196 C1195 1.380 . S
C1196 H1205 0.930 . S
C1197 O1174 1.254 . S
C1197 O1175 1.268 . S
H1198 C1183 0.930 . S
H1199 C1184 0.930 . S
H1200 C1186 0.930 . S
H1201 C1187 0.930 . S
H1202 C1192 0.930 . S
H1203 C1193 0.930 . S
H1204 C1195 0.930 . S
H1205 C1196 0.930 . S
Gd1206 N1237 2.661 . S
Gd1206 N1243 2.601 . S
Gd1206 O1250 2.545 . S
Gd1206 O1251 2.606 . S
Gd1206 O1253 2.429 . S
Gd1206 O1254 2.545 . S
Gd1206 O1255 2.412 . S
Gd1206 O1257 2.362 . S
Gd1206 O1258 2.324 . S
Gd1206 C1265 2.828 . S
Gd1207 N1216 2.661 . S
Gd1207 N1220 2.601 . S
Gd1207 O1251 2.362 . S
Gd1207 O1252 2.324 . S
Gd1207 O1256 2.545 . S
Gd1207 O1257 2.606 . S
Gd1207 O1259 2.429 . S
Gd1207 O1260 2.545 . S
Gd1207 O1261 2.412 . S
Gd1207 C1274 2.828 . S
C1208 C1211 1.417 . S
C1208 C1213 1.431 . S
C1208 C1214 1.412 . S
C1209 C1212 1.437 . S
C1209 C1213 1.317 . S
C1209 H1228 0.929 . S
C1210 C1211 1.426 . S
C1210 C1212 1.413 . S
C1210 N1220 1.359 . S
C1211 C1208 1.417 . S
C1211 C1210 1.426 . S
C1211 N1216 1.350 . S
C1212 C1209 1.437 . S
C1212 C1210 1.413 . S
C1212 C1222 1.391 . S
C1213 C1208 1.431 . S
C1213 C1209 1.317 . S
C1213 H1224 0.930 . S
C1214 C1208 1.412 . S
C1214 C1215 1.355 . S
C1214 H1226 0.930 . S
C1215 C1214 1.355 . S
C1215 C1217 1.402 . S
C1215 H1227 0.930 . S
N1216 Gd1207 2.661 . S
N1216 C1211 1.350 . S
N1216 C1217 1.307 . S
C1217 C1215 1.402 . S
C1217 N1216 1.307 . S
C1217 H1218 0.930 . S
H1218 C1217 0.930 . S
C1219 N1220 1.334 . S
C1219 C1221 1.394 . S
C1219 H1223 0.930 . S
N1220 Gd1207 2.601 . S
N1220 C1210 1.359 . S
N1220 C1219 1.334 . S
C1221 C1219 1.394 . S
C1221 C1222 1.359 . S
C1221 H1233 0.930 . S
C1222 C1212 1.391 . S
C1222 C1221 1.359 . S
C1222 H1234 0.929 . S
H1223 C1219 0.930 . S
H1224 C1213 0.930 . S
H1225 C1242 0.930 . S
H1226 C1214 0.930 . S
H1227 C1215 0.930 . S
H1228 C1209 0.929 . S
H1229 C1247 0.930 . S
H1230 C1238 0.930 . S
H1231 C1239 0.930 . S
H1232 C1263 0.929 . S
H1233 C1221 0.930 . S
H1234 C1222 0.929 . S
H1235 C1264 0.930 . S
H1236 C1245 0.930 . S
N1237 Gd1206 2.661 . S
N1237 C1241 1.350 . S
N1237 C1242 1.307 . S
C1238 H1230 0.930 . S
C1238 C1239 1.355 . S
C1238 C1240 1.412 . S
C1239 H1231 0.930 . S
C1239 C1238 1.355 . S
C1239 C1242 1.402 1_455 S
C1240 C1238 1.412 . S
C1240 C1241 1.417 1_455 S
C1240 C1264 1.431 . S
C1241 N1237 1.350 . S
C1241 C1240 1.417 1_655 S
C1241 C1244 1.426 . S
C1242 H1225 0.930 . S
C1242 N1237 1.307 . S
C1242 C1239 1.402 1_655 S
N1243 Gd1206 2.601 . S
N1243 C1244 1.359 . S
N1243 C1247 1.334 . S
C1244 C1241 1.426 . S
C1244 N1243 1.359 . S
C1244 C1248 1.413 . S
C1245 H1236 0.930 . S
C1245 C1246 1.359 . S
C1245 C1247 1.394 . S
C1246 C1245 1.359 . S
C1246 C1248 1.391 . S
C1246 H1249 0.929 . S
C1247 H1229 0.930 . S
C1247 N1243 1.334 . S
C1247 C1245 1.394 . S
C1248 C1244 1.413 . S
C1248 C1246 1.391 . S
C1248 C1263 1.437 1_655 S
H1249 C1246 0.929 . S
O1250 Gd1206 2.545 . S
O1250 C1265 1.258 . S
O1251 Gd1206 2.606 . S
O1251 Gd1207 2.362 . S
O1251 C1262 1.284 . S
O1252 Gd1207 2.324 . S
O1252 C1272 1.254 . S
O1253 Gd1206 2.429 . S
O1253 C1272 1.268 . S
O1254 Gd1206 2.545 . S
O1254 C1262 1.250 . S
O1255 Gd1206 2.412 . S
O1255 C1265 1.252 . S
O1256 Gd1207 2.545 . S
O1256 C1274 1.258 . S
O1257 Gd1206 2.362 . S
O1257 Gd1207 2.606 . S
O1257 C1273 1.284 . S
O1258 Gd1206 2.324 . S
O1258 C1281 1.254 . S
O1259 Gd1207 2.429 . S
O1259 C1281 1.268 . S
O1260 Gd1207 2.545 . S
O1260 C1273 1.250 . S
O1261 Gd1207 2.412 . S
O1261 C1274 1.252 . S
C1262 O1251 1.284 . S
C1262 O1254 1.250 . S
C1263 H1232 0.929 . S
C1263 C1248 1.437 1_455 S
C1263 C1264 1.317 . S
C1264 H1235 0.930 . S
C1264 C1240 1.431 . S
C1264 C1263 1.317 . S
C1265 Gd1206 2.828 . S
C1265 O1250 1.258 . S
C1265 O1255 1.252 . S
C1265 C1266 1.497 . S
C1266 C1265 1.497 . S
C1266 C1267 1.395 . S
C1266 C1268 1.380 . S
C1267 C1266 1.395 . S
C1267 C1270 1.398 . S
C1267 H1282 0.930 . S
C1268 C1266 1.380 . S
C1268 C1269 1.391 . S
C1268 H1283 0.930 . S
C1269 C1268 1.391 . S
C1269 C1271 1.387 . S
C1270 C1267 1.398 . S
C1270 C1271 1.380 . S
C1270 H1284 0.930 . S
C1271 C1269 1.387 . S
C1271 C1270 1.380 . S
C1271 H1285 0.930 . S
C1272 O1252 1.254 . S
C1272 O1253 1.268 . S
C1273 O1257 1.284 . S
C1273 O1260 1.250 . S
C1274 Gd1207 2.828 . S
C1274 O1256 1.258 . S
C1274 O1261 1.252 . S
C1274 C1275 1.497 . S
C1275 C1274 1.497 . S
C1275 C1276 1.395 . S
C1275 C1277 1.380 . S
C1276 C1275 1.395 . S
C1276 C1279 1.398 . S
C1276 H1286 0.930 . S
C1277 C1275 1.380 . S
C1277 C1278 1.391 . S
C1277 H1287 0.930 . S
C1278 C1277 1.391 . S
C1278 C1280 1.387 . S
C1279 C1276 1.398 . S
C1279 C1280 1.380 . S
C1279 H1288 0.930 . S
C1280 C1278 1.387 . S
C1280 C1279 1.380 . S
C1280 H1289 0.930 . S
C1281 O1258 1.254 . S
C1281 O1259 1.268 . S
H1282 C1267 0.930 . S
H1283 C1268 0.930 . S
H1284 C1270 0.930 . S
H1285 C1271 0.930 . S
H1286 C1276 0.930 . S
H1287 C1277 0.930 . S
H1288 C1279 0.930 . S
H1289 C1280 0.930 . S
Gd1290 N1321 2.661 . S
Gd1290 N1327 2.601 . S
Gd1290 O1334 2.545 . S
Gd1290 O1335 2.606 . S
Gd1290 O1337 2.429 . S
Gd1290 O1338 2.545 . S
Gd1290 O1339 2.412 . S
Gd1290 O1341 2.362 . S
Gd1290 O1342 2.324 . S
Gd1290 C1349 2.828 . S
Gd1291 N1300 2.661 . S
Gd1291 N1304 2.601 . S
Gd1291 O1335 2.362 . S
Gd1291 O1336 2.324 . S
Gd1291 O1340 2.545 . S
Gd1291 O1341 2.606 . S
Gd1291 O1343 2.429 . S
Gd1291 O1344 2.545 . S
Gd1291 O1345 2.412 . S
Gd1291 C1358 2.828 . S
C1292 C1295 1.417 . S
C1292 C1297 1.431 . S
C1292 C1298 1.412 . S
C1293 C1296 1.437 . S
C1293 C1297 1.317 . S
C1293 H1312 0.929 . S
C1294 C1295 1.426 . S
C1294 C1296 1.413 . S
C1294 N1304 1.359 . S
C1295 C1292 1.417 . S
C1295 C1294 1.426 . S
C1295 N1300 1.350 . S
C1296 C1293 1.437 . S
C1296 C1294 1.413 . S
C1296 C1306 1.391 . S
C1297 C1292 1.431 . S
C1297 C1293 1.317 . S
C1297 H1308 0.930 . S
C1298 C1292 1.412 . S
C1298 C1299 1.355 . S
C1298 H1310 0.930 . S
C1299 C1298 1.355 . S
C1299 C1301 1.402 . S
C1299 H1311 0.930 . S
N1300 Gd1291 2.661 . S
N1300 C1295 1.350 . S
N1300 C1301 1.307 . S
C1301 C1299 1.402 . S
C1301 N1300 1.307 . S
C1301 H1302 0.930 . S
H1302 C1301 0.930 . S
C1303 N1304 1.334 . S
C1303 C1305 1.394 . S
C1303 H1307 0.930 . S
N1304 Gd1291 2.601 . S
N1304 C1294 1.359 . S
N1304 C1303 1.334 . S
C1305 C1303 1.394 . S
C1305 C1306 1.359 . S
C1305 H1317 0.930 . S
C1306 C1296 1.391 . S
C1306 C1305 1.359 . S
C1306 H1318 0.929 . S
H1307 C1303 0.930 . S
H1308 C1297 0.930 . S
H1309 C1326 0.930 . S
H1310 C1298 0.930 . S
H1311 C1299 0.930 . S
H1312 C1293 0.929 . S
H1313 C1331 0.930 . S
H1314 C1322 0.930 . S
H1315 C1323 0.930 . S
H1316 C1347 0.929 . S
H1317 C1305 0.930 . S
H1318 C1306 0.929 . S
H1319 C1348 0.930 . S
H1320 C1329 0.930 . S
N1321 Gd1290 2.661 . S
N1321 C1325 1.350 . S
N1321 C1326 1.307 . S
C1322 H1314 0.930 . S
C1322 C1323 1.355 . S
C1322 C1324 1.412 . S
C1323 H1315 0.930 . S
C1323 C1322 1.355 . S
C1323 C1326 1.402 . S
C1324 C1322 1.412 . S
C1324 C1325 1.417 . S
C1324 C1348 1.431 . S
C1325 N1321 1.350 . S
C1325 C1324 1.417 . S
C1325 C1328 1.426 . S
C1326 H1309 0.930 . S
C1326 N1321 1.307 . S
C1326 C1323 1.402 . S
N1327 Gd1290 2.601 . S
N1327 C1328 1.359 . S
N1327 C1331 1.334 . S
C1328 C1325 1.426 . S
C1328 N1327 1.359 . S
C1328 C1332 1.413 . S
C1329 H1320 0.930 . S
C1329 C1330 1.359 . S
C1329 C1331 1.394 . S
C1330 C1329 1.359 . S
C1330 C1332 1.391 . S
C1330 H1333 0.929 . S
C1331 H1313 0.930 . S
C1331 N1327 1.334 . S
C1331 C1329 1.394 . S
C1332 C1328 1.413 . S
C1332 C1330 1.391 . S
C1332 C1347 1.437 . S
H1333 C1330 0.929 . S
O1334 Gd1290 2.545 . S
O1334 C1349 1.258 . S
O1335 Gd1290 2.606 . S
O1335 Gd1291 2.362 . S
O1335 C1346 1.284 . S
O1336 Gd1291 2.324 . S
O1336 C1356 1.254 . S
O1337 Gd1290 2.429 . S
O1337 C1356 1.268 . S
O1338 Gd1290 2.545 . S
O1338 C1346 1.250 . S
O1339 Gd1290 2.412 . S
O1339 C1349 1.252 . S
O1340 Gd1291 2.545 . S
O1340 C1358 1.258 . S
O1341 Gd1290 2.362 . S
O1341 Gd1291 2.606 . S
O1341 C1357 1.284 . S
O1342 Gd1290 2.324 . S
O1342 C1365 1.254 . S
O1343 Gd1291 2.429 . S
O1343 C1365 1.268 . S
O1344 Gd1291 2.545 . S
O1344 C1357 1.250 . S
O1345 Gd1291 2.412 . S
O1345 C1358 1.252 . S
C1346 O1335 1.284 . S
C1346 O1338 1.250 . S
C1347 H1316 0.929 . S
C1347 C1332 1.437 . S
C1347 C1348 1.317 . S
C1348 H1319 0.930 . S
C1348 C1324 1.431 . S
C1348 C1347 1.317 . S
C1349 Gd1290 2.828 . S
C1349 O1334 1.258 . S
C1349 O1339 1.252 . S
C1349 C1350 1.497 . S
C1350 C1349 1.497 . S
C1350 C1351 1.395 . S
C1350 C1352 1.380 . S
C1351 C1350 1.395 . S
C1351 C1354 1.398 . S
C1351 H1366 0.930 . S
C1352 C1350 1.380 . S
C1352 C1353 1.391 . S
C1352 H1367 0.930 . S
C1353 C1352 1.391 . S
C1353 C1355 1.387 . S
C1354 C1351 1.398 . S
C1354 C1355 1.380 . S
C1354 H1368 0.930 . S
C1355 C1353 1.387 . S
C1355 C1354 1.380 . S
C1355 H1369 0.930 . S
C1356 O1336 1.254 . S
C1356 O1337 1.268 . S
C1357 O1341 1.284 . S
C1357 O1344 1.250 . S
C1358 Gd1291 2.828 . S
C1358 O1340 1.258 . S
C1358 O1345 1.252 . S
C1358 C1359 1.497 . S
C1359 C1358 1.497 . S
C1359 C1360 1.395 . S
C1359 C1361 1.380 . S
C1360 C1359 1.395 . S
C1360 C1363 1.398 . S
C1360 H1370 0.930 . S
C1361 C1359 1.380 . S
C1361 C1362 1.391 . S
C1361 H1371 0.930 . S
C1362 C1361 1.391 . S
C1362 C1364 1.387 . S
C1363 C1360 1.398 . S
C1363 C1364 1.380 . S
C1363 H1372 0.930 . S
C1364 C1362 1.387 . S
C1364 C1363 1.380 . S
C1364 H1373 0.930 . S
C1365 O1342 1.254 . S
C1365 O1343 1.268 . S
H1366 C1351 0.930 . S
H1367 C1352 0.930 . S
H1368 C1354 0.930 . S
H1369 C1355 0.930 . S
H1370 C1360 0.930 . S
H1371 C1361 0.930 . S
H1372 C1363 0.930 . S
H1373 C1364 0.930 . S
Gd1374 N1405 2.661 . S
Gd1374 N1411 2.601 . S
Gd1374 O1418 2.545 . S
Gd1374 O1419 2.606 . S
Gd1374 O1421 2.429 . S
Gd1374 O1422 2.545 . S
Gd1374 O1423 2.412 . S
Gd1374 O1425 2.362 . S
Gd1374 O1426 2.324 . S
Gd1374 C1433 2.828 . S
Gd1375 N1384 2.661 . S
Gd1375 N1388 2.601 . S
Gd1375 O1419 2.362 . S
Gd1375 O1420 2.324 . S
Gd1375 O1424 2.545 . S
Gd1375 O1425 2.606 . S
Gd1375 O1427 2.429 . S
Gd1375 O1428 2.545 . S
Gd1375 O1429 2.412 . S
Gd1375 C1442 2.828 . S
C1376 C1379 1.417 1_455 S
C1376 C1381 1.431 . S
C1376 C1382 1.412 . S
C1377 C1380 1.437 1_455 S
C1377 C1381 1.317 . S
C1377 H1396 0.929 . S
C1378 C1379 1.426 . S
C1378 C1380 1.413 . S
C1378 N1388 1.359 . S
C1379 C1376 1.417 1_655 S
C1379 C1378 1.426 . S
C1379 N1384 1.350 . S
C1380 C1377 1.437 1_655 S
C1380 C1378 1.413 . S
C1380 C1390 1.391 . S
C1381 C1376 1.431 . S
C1381 C1377 1.317 . S
C1381 H1392 0.930 . S
C1382 C1376 1.412 . S
C1382 C1383 1.355 . S
C1382 H1394 0.930 . S
C1383 C1382 1.355 . S
C1383 C1385 1.402 1_455 S
C1383 H1395 0.930 . S
N1384 Gd1375 2.661 . S
N1384 C1379 1.350 . S
N1384 C1385 1.307 . S
C1385 C1383 1.402 1_655 S
C1385 N1384 1.307 . S
C1385 H1386 0.930 . S
H1386 C1385 0.930 . S
C1387 N1388 1.334 . S
C1387 C1389 1.394 . S
C1387 H1391 0.930 . S
N1388 Gd1375 2.601 . S
N1388 C1378 1.359 . S
N1388 C1387 1.334 . S
C1389 C1387 1.394 . S
C1389 C1390 1.359 . S
C1389 H1401 0.930 . S
C1390 C1380 1.391 . S
C1390 C1389 1.359 . S
C1390 H1402 0.929 . S
H1391 C1387 0.930 . S
H1392 C1381 0.930 . S
H1393 C1410 0.930 . S
H1394 C1382 0.930 . S
H1395 C1383 0.930 . S
H1396 C1377 0.929 . S
H1397 C1415 0.930 . S
H1398 C1406 0.930 . S
H1399 C1407 0.930 . S
H1400 C1431 0.929 . S
H1401 C1389 0.930 . S
H1402 C1390 0.929 . S
H1403 C1432 0.930 . S
H1404 C1413 0.930 . S
N1405 Gd1374 2.661 . S
N1405 C1409 1.350 . S
N1405 C1410 1.307 . S
C1406 H1398 0.930 . S
C1406 C1407 1.355 . S
C1406 C1408 1.412 . S
C1407 H1399 0.930 . S
C1407 C1406 1.355 . S
C1407 C1410 1.402 . S
C1408 C1406 1.412 . S
C1408 C1409 1.417 . S
C1408 C1432 1.431 . S
C1409 N1405 1.350 . S
C1409 C1408 1.417 . S
C1409 C1412 1.426 . S
C1410 H1393 0.930 . S
C1410 N1405 1.307 . S
C1410 C1407 1.402 . S
N1411 Gd1374 2.601 . S
N1411 C1412 1.359 . S
N1411 C1415 1.334 . S
C1412 C1409 1.426 . S
C1412 N1411 1.359 . S
C1412 C1416 1.413 . S
C1413 H1404 0.930 . S
C1413 C1414 1.359 . S
C1413 C1415 1.394 . S
C1414 C1413 1.359 . S
C1414 C1416 1.391 . S
C1414 H1417 0.929 . S
C1415 H1397 0.930 . S
C1415 N1411 1.334 . S
C1415 C1413 1.394 . S
C1416 C1412 1.413 . S
C1416 C1414 1.391 . S
C1416 C1431 1.437 . S
H1417 C1414 0.929 . S
O1418 Gd1374 2.545 . S
O1418 C1433 1.258 . S
O1419 Gd1374 2.606 . S
O1419 Gd1375 2.362 . S
O1419 C1430 1.284 . S
O1420 Gd1375 2.324 . S
O1420 C1440 1.254 . S
O1421 Gd1374 2.429 . S
O1421 C1440 1.268 . S
O1422 Gd1374 2.545 . S
O1422 C1430 1.250 . S
O1423 Gd1374 2.412 . S
O1423 C1433 1.252 . S
O1424 Gd1375 2.545 . S
O1424 C1442 1.258 . S
O1425 Gd1374 2.362 . S
O1425 Gd1375 2.606 . S
O1425 C1441 1.284 . S
O1426 Gd1374 2.324 . S
O1426 C1449 1.254 . S
O1427 Gd1375 2.429 . S
O1427 C1449 1.268 . S
O1428 Gd1375 2.545 . S
O1428 C1441 1.250 . S
O1429 Gd1375 2.412 . S
O1429 C1442 1.252 . S
C1430 O1419 1.284 . S
C1430 O1422 1.250 . S
C1431 H1400 0.929 . S
C1431 C1416 1.437 . S
C1431 C1432 1.317 . S
C1432 H1403 0.930 . S
C1432 C1408 1.431 . S
C1432 C1431 1.317 . S
C1433 Gd1374 2.828 . S
C1433 O1418 1.258 . S
C1433 O1423 1.252 . S
C1433 C1434 1.497 . S
C1434 C1433 1.497 . S
C1434 C1435 1.395 . S
C1434 C1436 1.380 . S
C1435 C1434 1.395 . S
C1435 C1438 1.398 . S
C1435 H1450 0.930 . S
C1436 C1434 1.380 . S
C1436 C1437 1.391 . S
C1436 H1451 0.930 . S
C1437 C1436 1.391 . S
C1437 C1439 1.387 . S
C1438 C1435 1.398 . S
C1438 C1439 1.380 . S
C1438 H1452 0.930 . S
C1439 C1437 1.387 . S
C1439 C1438 1.380 . S
C1439 H1453 0.930 . S
C1440 O1420 1.254 . S
C1440 O1421 1.268 . S
C1441 O1425 1.284 . S
C1441 O1428 1.250 . S
C1442 Gd1375 2.828 . S
C1442 O1424 1.258 . S
C1442 O1429 1.252 . S
C1442 C1443 1.497 . S
C1443 C1442 1.497 . S
C1443 C1444 1.395 . S
C1443 C1445 1.380 . S
C1444 C1443 1.395 . S
C1444 C1447 1.398 . S
C1444 H1454 0.930 . S
C1445 C1443 1.380 . S
C1445 C1446 1.391 . S
C1445 H1455 0.930 . S
C1446 C1445 1.391 . S
C1446 C1448 1.387 . S
C1447 C1444 1.398 . S
C1447 C1448 1.380 . S
C1447 H1456 0.930 . S
C1448 C1446 1.387 . S
C1448 C1447 1.380 . S
C1448 H1457 0.930 . S
C1449 O1426 1.254 . S
C1449 O1427 1.268 . S
H1450 C1435 0.930 . S
H1451 C1436 0.930 . S
H1452 C1438 0.930 . S
H1453 C1439 0.930 . S
H1454 C1444 0.930 . S
H1455 C1445 0.930 . S
H1456 C1447 0.930 . S
H1457 C1448 0.930 . S
C528 C758 1.561 . S
C562 C842 1.568 . S
C484 C936 1.571 . S
C445 C852 1.453 . S
C926 C367 1.466 . S
C411 C768 1.479 . S
C769 C450 1.557 . S
C853 C372 1.550 . S
C406 C945 1.562 . S
C523 C861 1.445 . S
C567 C937 1.446 . S
C777 C489 1.480 . S
C1010 C60 1.561 . S
C94 C1094 1.568 . S
C16 C1188 1.571 . S
C679 C1104 1.453 . S
C601 C1178 1.467 . S
C645 C1020 1.479 . S
C684 C1021 1.557 . S
C606 C1105 1.550 . S
C1197 C640 1.563 . S
C55 C1113 1.444 . S
C1189 C99 1.446 . S
C21 C1029 1.480 . S
C1262 C294 1.561 . S
C328 C1346 1.568 . S
C1440 C250 1.571 . S
C1356 C211 1.452 . S
C1430 C133 1.466 . S
C177 C1272 1.479 . S
C216 C1273 1.557 . S
C138 C1357 1.550 . S
C1449 C172 1.562 . S
C289 C1365 1.445 . S
C333 C1441 1.447 . S
C255 C1281 1.480 . S
C586 C765 1.604 . S
C849 C625 1.393 . S
C664 C942 1.465 . S
C235 C858 1.406 . S
C274 C933 1.447 . S
C774 C313 1.609 . S
C118 C1017 1.605 . S
C157 C1101 1.393 . S
C196 C1194 1.465 . S
C469 C1110 1.406 . S
C1185 C508 1.447 . S
C547 C1026 1.609 . S
C352 C1269 1.605 . S
C391 C1353 1.393 . S
C1446 C430 1.465 . S
C1 C1362 1.406 . S
C40 C1437 1.447 . S
C79 C1278 1.609 . S
