# Generated by pormake.
# Topology zzz, (3,6)-cn, num edge types: 1
# Building blocks:
#     Node 0, Type 0, BuildingBlock: CUQRIR_clean_linker_1, # of connection points: 3
#     Node 1, Type 0, BuildingBlock: CUQRIR_clean_linker_1, # of connection points: 3
#     Node 2, Type 0, BuildingBlock: CUQRIR_clean_linker_1, # of connection points: 3
#     Node 3, Type 0, BuildingBlock: CUQRIR_clean_linker_1, # of connection points: 3
#     Node 4, Type 0, BuildingBlock: CUQRIR_clean_linker_1, # of connection points: 3
#     Node 5, Type 0, BuildingBlock: CUQRIR_clean_linker_1, # of connection points: 3
#     Node 6, Type 0, BuildingBlock: CUQRIR_clean_linker_1, # of connection points: 3
#     Node 7, Type 0, BuildingBlock: CUQRIR_clean_linker_1, # of connection points: 3
#     Node 8, Type 1, BuildingBlock: BETGAK_clean_sbu_0, # of connection points: 6
#     Node 9, Type 1, BuildingBlock: BETGAK_clean_sbu_0, # of connection points: 6
#     Node 10, Type 1, BuildingBlock: BETGAK_clean_sbu_0, # of connection points: 6
#     Node 11, Type 1, BuildingBlock: BETGAK_clean_sbu_0, # of connection points: 6
#     Edge 12, Type (0, 1), BuildingBlock: EZIPEK_clean_linker_0, # of connection points: 2
#     Edge 13, Type (0, 1), BuildingBlock: EZIPEK_clean_linker_0, # of connection points: 2
#     Edge 14, Type (0, 1), BuildingBlock: EZIPEK_clean_linker_0, # of connection points: 2
#     Edge 15, Type (0, 1), BuildingBlock: EZIPEK_clean_linker_0, # of connection points: 2
#     Edge 16, Type (0, 1), BuildingBlock: EZIPEK_clean_linker_0, # of connection points: 2
#     Edge 17, Type (0, 1), BuildingBlock: EZIPEK_clean_linker_0, # of connection points: 2
#     Edge 18, Type (0, 1), BuildingBlock: EZIPEK_clean_linker_0, # of connection points: 2
#     Edge 19, Type (0, 1), BuildingBlock: EZIPEK_clean_linker_0, # of connection points: 2
#     Edge 20, Type (0, 1), BuildingBlock: EZIPEK_clean_linker_0, # of connection points: 2
#     Edge 21, Type (0, 1), BuildingBlock: EZIPEK_clean_linker_0, # of connection points: 2
#     Edge 22, Type (0, 1), BuildingBlock: EZIPEK_clean_linker_0, # of connection points: 2
#     Edge 23, Type (0, 1), BuildingBlock: EZIPEK_clean_linker_0, # of connection points: 2
#     Edge 24, Type (0, 1), BuildingBlock: EZIPEK_clean_linker_0, # of connection points: 2
#     Edge 25, Type (0, 1), BuildingBlock: EZIPEK_clean_linker_0, # of connection points: 2
#     Edge 26, Type (0, 1), BuildingBlock: EZIPEK_clean_linker_0, # of connection points: 2
#     Edge 27, Type (0, 1), BuildingBlock: EZIPEK_clean_linker_0, # of connection points: 2
#     Edge 28, Type (0, 1), BuildingBlock: EZIPEK_clean_linker_0, # of connection points: 2
#     Edge 29, Type (0, 1), BuildingBlock: EZIPEK_clean_linker_0, # of connection points: 2
#     Edge 30, Type (0, 1), BuildingBlock: EZIPEK_clean_linker_0, # of connection points: 2
#     Edge 31, Type (0, 1), BuildingBlock: EZIPEK_clean_linker_0, # of connection points: 2
#     Edge 32, Type (0, 1), BuildingBlock: EZIPEK_clean_linker_0, # of connection points: 2
#     Edge 33, Type (0, 1), BuildingBlock: EZIPEK_clean_linker_0, # of connection points: 2
#     Edge 34, Type (0, 1), BuildingBlock: EZIPEK_clean_linker_0, # of connection points: 2
#     Edge 35, Type (0, 1), BuildingBlock: EZIPEK_clean_linker_0, # of connection points: 2
# Relax obj value: 0.463
# Max RMSD: 0.226
# Mean RMSD: 0.155
data_MOF--net-zzz--node1-BETGAK_clean_sbu_0--node2-CUQRIR_clean_linker_1--edge1-EZIPEK_clean_linker_0
_symmetry_space_group_name_H-M    P1
_symmetry_Int_Tables_number       1
_symmetry_cell_setting            triclinic
loop_
_symmetry_equiv_pos_as_xyz
'x, y, z'
_cell_length_a     35.267318
_cell_length_b     35.33366
_cell_length_c     9.2210482
_cell_angle_alpha  89.424699
_cell_angle_beta   89.384885
_cell_angle_gamma 89.951601
loop_
_atom_site_label
_atom_site_type_symbol
_atom_site_fract_x
_atom_site_fract_y
_atom_site_fract_z
_atom_type_partial_charge
C0 C 0.7619 0.52755 0.40583 0.0
N1 N 0.79835 0.51203 0.40887 0.0
N2 N 0.74193 0.51878 0.27934 0.0
C3 C 0.74501 0.54839 0.53119 0.0
C4 C 0.7687 0.49856 0.20687 0.0
N5 N 0.80006 0.49241 0.28692 0.0
C6 C 0.7655 0.4856 0.05176 0.0
H7 H 0.75296 0.53413 0.63431 0.0
H8 H 0.71368 0.54998 0.52271 0.0
H9 H 0.75688 0.57746 0.53274 0.0
H10 H 0.74321 0.50124 0.99204 0.0
H11 H 0.75954 0.45479 0.04991 0.0
H12 H 0.79286 0.49004 0.99364 0.0
C13 C 0.99433 0.75555 0.3824 0.0
N14 N 1.01458 0.78928 0.39119 0.0
N15 N 1.003 0.73501 0.25837 0.0
C16 C 0.96807 0.74129 0.49893 0.0
C17 C 0.02866 0.75805 0.1928 0.0
N18 N 0.03777 0.78858 0.27526 0.0
C19 C 0.04477 0.75047 0.04365 0.0
H20 H 0.98354 0.72058 0.56761 0.0
H21 H 0.94374 0.72641 0.4498 0.0
H22 H 0.95787 0.76475 0.56831 0.0
H23 H 0.0214 0.74304 0.96947 0.0
H24 H 0.06413 0.72573 0.0477 0.0
H25 H 0.06007 0.77543 0.99858 0.0
C26 C 0.78848 1.00847 0.44391 0.0
N27 N 0.7514 0.0223 0.44491 0.0
N28 N 0.80741 1.01462 0.31095 0.0
C29 C 0.8069 0.9923 0.57604 0.0
C30 C 0.77948 0.03147 0.23345 0.0
N31 N 0.74829 0.03831 0.31513 0.0
C32 C 0.78154 0.04057 0.07291 0.0
H33 H 0.83824 0.9922 0.56369 0.0
H34 H 0.79673 0.96289 0.59359 0.0
H35 H 0.79846 1.00895 0.67263 0.0
H36 H 0.80461 0.02486 0.01728 0.0
H37 H 0.7855 0.07147 0.05641 0.0
H38 H 0.75446 0.03304 0.02063 0.0
C39 C 0.5359 0.78082 0.39806 0.0
N40 N 0.51066 0.7533 0.44798 0.0
N41 N 0.51781 0.81181 0.33475 0.0
C42 C 0.57801 0.77644 0.40437 0.0
C43 C 0.48093 0.80159 0.34921 0.0
N44 N 0.47665 0.76684 0.41208 0.0
C45 C 0.44858 0.82407 0.28647 0.0
H46 H 0.58634 0.76909 0.5169 0.0
H47 H 0.59263 0.8027 0.36787 0.0
H48 H 0.58682 0.75268 0.33383 0.0
H49 H 0.44361 0.81564 0.1729 0.0
H50 H 0.4555 0.85453 0.28328 0.0
H51 H 0.42214 0.81898 0.34986 0.0
C52 C 0.28837 0.50301 0.30311 0.0
N53 N 0.25428 0.522 0.2784 0.0
N54 N 0.30776 0.51631 0.42388 0.0
C55 C 0.30397 0.47363 0.20308 0.0
C56 C 0.28334 0.54356 0.47016 0.0
N57 N 0.25344 0.54866 0.37982 0.0
C58 C 0.28704 0.56385 0.61261 0.0
H59 H 0.29139 0.44576 0.23187 0.0
H60 H 0.33525 0.47158 0.21278 0.0
H61 H 0.29618 0.48047 0.08948 0.0
H62 H 0.30209 0.59111 0.59626 0.0
H63 H 0.3031 0.54645 0.69182 0.0
H64 H 0.25857 0.57016 0.65869 0.0
C65 C 0.03382 0.28195 0.27065 0.0
N66 N 1.01919 0.24507 0.27248 0.0
N67 N 0.02759 0.30147 0.40147 0.0
C68 C 0.05058 0.29978 0.13698 0.0
C69 C 1.01028 0.27378 0.48088 0.0
N70 N 1.00256 0.24269 0.40193 0.0
C71 C 1.00165 0.27577 0.64159 0.0
H72 H 0.08016 0.28963 0.12291 0.0
H73 H 0.05054 0.3311 0.14494 0.0
H74 H 0.03442 0.29094 0.04041 0.0
H75 H 0.97083 0.28031 0.65949 0.0
H76 H 1.01801 0.29836 0.69517 0.0
H77 H 1.00885 0.24841 0.69452 0.0
C78 C 0.2492 0.03848 0.24791 0.0
N79 N 0.28178 1.01627 0.23795 0.0
N80 N 0.22341 0.02506 0.3523 0.0
C81 C 0.2422 0.07261 0.15503 0.0
C82 C 0.24149 0.99404 0.40281 0.0
N83 N 0.27514 0.98861 0.33415 0.0
C84 C 0.22654 0.96897 0.52424 0.0
H85 H 0.25199 0.0981 0.21301 0.0
H86 H 0.2114 0.07581 0.13439 0.0
H87 H 0.2582 0.07057 0.0511 0.0
H88 H 0.21076 0.94503 0.47668 0.0
H89 H 0.20705 0.98466 0.59728 0.0
H90 H 0.24989 0.95694 0.58979 0.0
C91 C 0.51112 0.25139 0.26409 0.0
N92 N 0.52492 0.28834 0.26244 0.0
N93 N 0.51817 0.23219 0.39498 0.0
C94 C 0.49392 0.23342 0.13423 0.0
C95 C 0.53556 0.25981 0.47085 0.0
N96 N 0.54175 0.29122 0.38956 0.0
C97 C 0.54571 0.25729 0.62955 0.0
H98 H 0.4643 0.24356 0.12306 0.0
H99 H 0.494 0.20211 0.14491 0.0
H100 H 0.50974 0.24219 0.03477 0.0
H101 H 0.57669 0.25283 0.64038 0.0
H102 H 0.53004 0.23436 0.68708 0.0
H103 H 0.5389 0.28434 0.68393 0.0
La104 La 0.04124 1.00721 0.90714 0.0
La105 La 0.99113 0.02565 0.73412 0.0
C106 C 0.08746 0.96833 0.04878 0.0
C107 C 0.1082 0.93344 1.00685 0.0
C108 C 0.14804 0.93198 1.01006 0.0
C109 C 0.16584 0.89726 0.03981 0.0
C110 C 0.14375 0.86425 0.04734 0.0
C111 C 0.10851 0.86545 0.977 0.0
C112 C 0.08878 0.89968 0.97879 0.0
C113 C 0.07756 0.03676 0.67111 0.0
C114 C 1.01333 0.94098 0.69093 0.0
C115 C 0.94928 0.0487 0.5304 0.0
C116 C 0.91885 0.07436 0.49 0.0
C117 C 0.88908 0.08355 0.58594 0.0
C118 C 0.87173 0.11905 0.57274 0.0
C119 C 0.88649 0.14468 0.4695 0.0
C120 C 0.90541 0.12987 0.34827 0.0
C121 C 0.92388 0.09542 0.36249 0.0
C122 C 0.95389 1.00053 0.98027 0.0
C123 C 1.01876 0.09199 0.964 0.0
O124 O 0.09708 0.99943 0.98191 0.0
O125 O 0.05076 0.96573 0.06739 0.0
O126 O 0.08168 0.04666 0.80408 0.0
O127 O 0.04997 1.01297 0.67374 0.0
O128 O 0.02663 0.9487 0.82114 0.0
O129 O 1.00121 0.97093 0.62009 0.0
O130 O 0.9407 0.02084 0.61739 0.0
O131 O 0.98164 0.06428 0.56367 0.0
O132 O 0.9485 0.98999 0.84874 0.0
O133 O 0.98277 0.02246 0.97122 0.0
O134 O 1.00131 0.08445 0.83769 0.0
O135 O 0.03471 0.06198 0.02687 0.0
H136 H 0.16451 0.9577 1.01039 0.0
H137 H 0.19461 0.89717 0.07951 0.0
H138 H 0.09196 0.83981 0.96688 0.0
H139 H 0.05831 0.899 0.96781 0.0
H140 H 0.88297 0.06609 0.68025 0.0
H141 H 0.85434 0.12914 0.66184 0.0
H142 H 0.9144 0.14854 0.26135 0.0
H143 H 0.94529 0.08766 0.28289 0.0
La144 La 0.52338 0.04156 0.95156 0.0
La145 La 0.51228 0.99626 0.74591 0.0
C146 C 0.53803 0.07886 0.17682 0.0
C147 C 0.56275 0.10843 0.22986 0.0
C148 C 0.57325 0.13968 0.14267 0.0
C149 C 0.60894 0.156 0.16176 0.0
C150 C 0.63344 0.1392 0.26246 0.0
C151 C 0.61791 0.11689 0.37479 0.0
C152 C 0.58287 0.10024 0.35568 0.0
C153 C 0.50447 0.08381 0.71096 0.0
C154 C 0.59747 0.0216 0.74469 0.0
C155 C 0.49729 0.95988 0.51829 0.0
C156 C 0.47217 0.93126 0.45983 0.0
C157 C 0.45368 0.93989 0.33052 0.0
C158 C 0.41825 0.9244 0.30661 0.0
C159 C 0.40106 0.90266 0.41728 0.0
C160 C 0.42362 0.88594 0.52439 0.0
C161 C 0.46006 0.90017 0.54425 0.0
C162 C 0.53238 0.95408 0.98632 0.0
C163 C 0.43845 1.01568 0.95243 0.0
O164 O 0.51293 0.08881 0.0818 0.0
O165 O 0.55475 0.0471 0.14209 0.0
O166 O 0.48981 0.086 0.83907 0.0
O167 O 0.52768 0.05608 0.71985 0.0
O168 O 0.5858 0.03389 0.8756 0.0
O169 O 0.57005 1.00949 0.66183 0.0
O170 O 0.52093 0.94874 0.61674 0.0
O171 O 0.48161 0.99222 0.55215 0.0
O172 O 0.54597 0.95178 0.85645 0.0
O173 O 0.50881 0.98159 0.97882 0.0
O174 O 0.44976 1.00407 0.82031 0.0
O175 O 0.46615 0.02674 0.03604 0.0
H176 H 0.557 0.14749 0.04801 0.0
H177 H 0.62006 0.17473 0.07789 0.0
H178 H 0.63609 0.10505 0.45687 0.0
H179 H 0.5743 0.07723 0.4275 0.0
H180 H 0.46379 0.96247 0.25972 0.0
H181 H 0.40142 0.93619 0.21971 0.0
H182 H 0.41114 0.86769 0.60701 0.0
H183 H 0.47605 0.89081 0.63647 0.0
La184 La 0.50362 0.52879 0.9664 0.0
La185 La 0.54412 0.51403 0.75338 0.0
C186 C 0.47396 0.55597 0.19316 0.0
C187 C 0.44945 0.5874 0.23466 0.0
C188 C 0.41884 0.59918 0.14942 0.0
C189 C 0.39739 0.63067 0.19007 0.0
C190 C 0.40678 0.6513 0.31483 0.0
C191 C 0.43734 0.63849 0.40018 0.0
C192 C 0.45787 0.60658 0.36143 0.0
C193 C 0.45495 0.50831 0.74973 0.0
C194 C 0.51964 0.59807 0.73829 0.0
C195 C 0.57925 0.49837 0.52146 0.0
C196 C 0.61046 0.47597 0.46481 0.0
C197 C 0.64152 0.46608 0.55166 0.0
C198 C 0.65883 0.43088 0.53138 0.0
C199 C 0.64279 0.40617 0.43099 0.0
C200 C 0.62093 0.42143 0.31852 0.0
C201 C 0.60363 0.45619 0.33773 0.0
C202 C 0.59126 0.53322 0.97923 0.0
C203 C 0.52383 0.44226 0.96866 0.0
O204 O 0.45872 0.52934 0.11715 0.0
O205 O 0.50758 0.56516 0.14451 0.0
O206 O 0.45423 0.49691 0.88297 0.0
O207 O 0.48408 0.52993 0.73991 0.0
O208 O 0.51501 0.58918 0.87861 0.0
O209 O 0.52392 0.56811 0.6573 0.0
O210 O 0.58807 0.52615 0.60566 0.0
O211 O 0.55004 0.47925 0.57144 0.0
O212 O 0.59106 0.54758 0.8502 0.0
O213 O 0.56292 0.51068 0.9803 0.0
O214 O 0.53479 0.45268 0.83401 0.0
O215 O 0.51375 0.47055 0.053 0.0
H216 H 0.41185 0.58444 0.05078 0.0
H217 H 0.374 0.63908 0.12234 0.0
H218 H 0.44626 0.6535 0.49555 0.0
H219 H 0.48107 0.59727 0.42881 0.0
H220 H 0.6482 0.48217 0.64737 0.0
H221 H 0.67739 0.42004 0.61493 0.0
H222 H 0.60994 0.4032 0.23592 0.0
H223 H 0.5808 0.46442 0.26611 0.0
La224 La 1.01896 0.49432 0.94448 0.0
La225 La 0.03569 0.53968 0.75797 0.0
C226 C 0.9979 0.45598 0.1646 0.0
C227 C 0.97576 0.42361 0.21541 0.0
C228 C 0.96945 0.39198 0.12773 0.0
C229 C 0.93562 0.3717 0.14597 0.0
C230 C 0.90868 0.38533 0.24569 0.0
C231 C 0.92183 0.40668 0.36223 0.0
C232 C 0.95462 0.42788 0.34303 0.0
C233 C 0.04218 0.45138 0.70882 0.0
C234 C 0.95126 0.51647 0.71324 0.0
C235 C 0.07202 0.58307 0.59239 0.0
C236 C 0.10362 0.60909 0.62436 0.0
C237 C 0.09975 0.64809 0.5995 0.0
C238 C 0.13211 0.66955 0.56419 0.0
C239 C 0.16776 0.6519 0.56704 0.0
C240 C 0.17086 0.61934 0.65554 0.0
C241 C 0.13938 0.59545 0.6648 0.0
C242 C 1.00658 0.58224 0.9793 0.0
C243 C 0.10387 0.51665 0.97429 0.0
O244 O 0.02781 0.44871 0.0869 0.0
O245 O 0.9791 0.48496 0.11286 0.0
O246 O 0.05323 0.44866 0.84126 0.0
O247 O 0.02041 0.48047 0.7102 0.0
O248 O 0.95918 0.50256 0.84628 0.0
O249 O 0.98121 0.52993 0.6417 0.0
O250 O 0.03905 0.59185 0.64627 0.0
O251 O 0.0788 0.54681 0.60129 0.0
O252 O 0.99671 0.58274 0.84538 0.0
O253 O 0.03052 0.55462 0.98797 0.0
O254 O 0.09539 0.52742 0.84056 0.0
O255 O 0.07411 0.50657 0.05151 0.0
H256 H 0.98746 0.38636 0.03486 0.0
H257 H 0.92716 0.35248 0.06149 0.0
H258 H 0.90239 0.41466 0.44779 0.0
H259 H 0.96049 0.45069 0.41732 0.0
H260 H 0.0719 0.66046 0.58901 0.0
H261 H 0.12869 0.69686 0.51184 0.0
H262 H 0.19844 0.60674 0.67372 0.0
H263 H 0.14383 0.56594 0.69172 0.0
C264 C 0.15347 1.01055 0.37221 0.0
C265 C 0.18412 0.03565 0.40004 0.0
C266 C 0.1408 0.06775 0.57751 0.0
C267 C 0.11156 0.03977 0.56064 0.0
N268 N 0.08697 0.9919 0.40538 0.0
N269 N 0.20727 0.08642 0.54344 0.0
C270 C 0.11708 1.01338 0.4467 0.0
C271 C 0.17752 0.06412 0.50542 0.0
N272 N 0.16019 0.98234 0.277 0.0
N273 N 0.1327 0.09934 0.65616 0.0
H274 H 0.2336 0.08475 0.49114 0.0
H275 H 0.20664 0.10456 0.6317 0.0
H276 H 0.10575 0.10469 0.69883 0.0
H277 H 0.15098 0.12233 0.66379 0.0
H278 H 0.14197 0.95991 0.26449 0.0
H279 H 0.18537 0.98047 0.21723 0.0
H280 H 0.08823 0.96993 0.33219 0.0
H281 H 0.05916 0.99837 0.4343 0.0
C282 C 0.5467 0.17456 0.52057 0.0
C283 C 0.5152 0.19176 0.44783 0.0
C284 C 0.47845 0.13376 0.52445 0.0
C285 C 0.50874 0.11986 0.6131 0.0
N286 N 0.56733 0.13668 0.72628 0.0
N287 N 0.44792 0.18855 0.4104 0.0
C288 C 0.54157 0.1431 0.61966 0.0
C289 C 0.48022 0.1713 0.45676 0.0
N290 N 0.58216 0.18853 0.49536 0.0
N291 N 0.4476 0.1112 0.50513 0.0
H292 H 0.44789 0.21611 0.36923 0.0
H293 H 0.421 0.177 0.42586 0.0
H294 H 0.44515 0.08452 0.554 0.0
H295 H 0.42626 0.11763 0.43157 0.0
H296 H 0.60645 0.17781 0.5442 0.0
H297 H 0.58745 0.2084 0.41385 0.0
H298 H 0.5896 0.15514 0.74718 0.0
H299 H 0.56401 0.11523 0.80383 0.0
C300 C 0.36095 0.47674 0.54672 0.0
C301 C 0.34738 0.51114 0.48304 0.0
C302 C 0.40164 0.54383 0.60664 0.0
C303 C 0.41829 0.50917 0.65417 0.0
N304 N 0.41372 0.4411 0.65282 0.0
N305 N 0.36176 0.57523 0.4292 0.0
C306 C 0.3978 0.47522 0.6189 0.0
C307 C 0.3703 0.54373 0.50645 0.0
N308 N 0.33792 0.44583 0.5455 0.0
N309 N 0.4145 0.57713 0.66172 0.0
H310 H 0.34708 0.57292 0.33255 0.0
H311 H 0.37042 0.60207 0.45678 0.0
H312 H 0.43598 0.57852 0.73802 0.0
H313 H 0.40099 0.60299 0.64586 0.0
H314 H 0.34376 0.42088 0.60206 0.0
H315 H 0.31136 0.44649 0.4969 0.0
H316 H 0.40273 0.41537 0.61872 0.0
H317 H 0.43972 0.43879 0.70515 0.0
C318 C 0.99991 0.35923 0.5323 0.0
C319 C 0.03076 0.34216 0.45288 0.0
C320 C 0.06735 0.40116 0.51845 0.0
C321 C 0.03775 0.41495 0.61278 0.0
N322 N 0.98074 0.39686 0.73947 0.0
N323 N 0.09751 0.34674 0.4003 0.0
C324 C 1.00554 0.39094 0.62776 0.0
C325 C 0.06545 0.36341 0.4531 0.0
N326 N 0.96432 0.34516 0.5165 0.0
N327 N 0.09778 0.42402 0.49163 0.0
H328 H 0.09751 0.31923 0.36076 0.0
H329 H 0.12437 0.35868 0.40876 0.0
H330 H 0.10033 0.45066 0.53852 0.0
H331 H 0.11859 0.41785 0.41449 0.0
H332 H 0.94051 0.3559 0.56981 0.0
H333 H 0.95826 0.32544 0.43764 0.0
H334 H 0.95946 0.37766 0.76825 0.0
H335 H 0.98353 0.41927 0.81121 0.0
C336 C 0.86862 0.97695 0.24991 0.0
C337 C 0.84787 1.01177 0.25657 0.0
C338 C 0.89575 0.0381 0.07853 0.0
C339 C 0.91907 1.00524 0.08506 0.0
N340 N 0.9285 0.94427 0.19671 0.0
N341 N 0.84987 0.07835 0.19979 0.0
C342 C 0.90576 0.97511 0.17791 0.0
C343 C 0.8645 0.04312 0.17892 0.0
N344 N 0.85193 0.94485 0.30295 0.0
N345 N 0.9018 0.064 0.97018 0.0
H346 H 0.83033 0.08368 0.28221 0.0
H347 H 0.85966 0.10254 0.1461 0.0
H348 H 0.92362 0.06142 0.89383 0.0
H349 H 0.88309 0.08607 0.94768 0.0
H350 H 0.86348 0.91795 0.2899 0.0
H351 H 0.82476 0.94494 0.34839 0.0
H352 H 0.92264 0.92293 0.27224 0.0
H353 H 0.95486 0.94182 0.14499 0.0
C354 C 0.54446 0.8794 0.30989 0.0
C355 C 0.53059 0.84544 0.24634 0.0
C356 C 0.51377 0.88408 0.0288 0.0
C357 C 0.52943 0.91794 0.08528 0.0
N358 N 0.56532 0.9455 0.27762 0.0
N359 N 0.51751 0.81559 0.02124 0.0
C360 C 0.54675 0.91476 0.22537 0.0
C361 C 0.52017 0.84806 0.09823 0.0
N362 N 0.55531 0.8778 0.45119 0.0
N363 N 0.49066 0.88629 0.91186 0.0
H364 H 0.52659 0.7899 0.06541 0.0
H365 H 0.51215 0.8154 0.91031 0.0
H366 H 0.48287 0.91222 0.86596 0.0
H367 H 0.47556 0.86302 0.8745 0.0
H368 H 0.56552 0.90077 0.50829 0.0
H369 H 0.55349 0.85282 0.51221 0.0
H370 H 0.58117 0.94513 0.37211 0.0
H371 H 0.56622 0.97123 0.22118 0.0
C372 C 0.68285 0.55865 0.20856 0.0
C373 C 0.7014 0.52289 0.22832 0.0
C374 C 0.65037 0.49567 0.07101 0.0
C375 C 0.62868 0.52964 0.06965 0.0
N376 N 0.62475 0.59387 0.15234 0.0
N377 N 0.69474 0.45558 0.20042 0.0
C378 C 0.64511 0.56113 0.14393 0.0
C379 C 0.68222 0.49102 0.16713 0.0
N380 N 0.70216 0.59074 0.24193 0.0
N381 N 0.64224 0.46826 0.97326 0.0
H382 H 0.71426 0.451 0.28217 0.0
H383 H 0.68338 0.43093 0.15796 0.0
H384 H 0.62099 0.47154 0.89642 0.0
H385 H 0.65938 0.44461 0.95686 0.0
H386 H 0.69238 0.61785 0.21752 0.0
H387 H 0.7297 0.58997 0.28157 0.0
H388 H 0.633 0.6168 0.21464 0.0
H389 H 0.59808 0.59684 0.10553 0.0
C390 C 0.0264 0.66732 0.24939 0.0
C391 C 0.99775 0.69427 0.21684 0.0
C392 C 0.97069 0.64507 0.05121 0.0
C393 C 1.00152 0.61887 0.07602 0.0
N394 N 0.05164 0.60314 0.24042 0.0
N395 N 0.94442 0.70936 0.07035 0.0
C396 C 0.02733 0.62959 0.18674 0.0
C397 C 0.97025 0.68297 0.11382 0.0
N398 N 0.05494 0.67908 0.33494 0.0
N399 N 0.94005 0.63281 0.97556 0.0
H400 H 0.94289 0.73606 0.11769 0.0
H401 H 0.92642 0.70582 0.9828 0.0
H402 H 0.93733 0.60499 0.94058 0.0
H403 H 0.91531 0.64851 0.96289 0.0
H404 H 0.08075 0.66553 0.33687 0.0
H405 H 0.0537 0.70394 0.39488 0.0
H406 H 0.06886 0.6081 0.32846 0.0
H407 H 0.05171 0.57498 0.2093 0.0
C408 C 0.93306 0.23351 0.39124 0.0
C409 C 0.96964 0.22024 0.43303 0.0
C410 C 0.94016 0.17318 0.58824 0.0
C411 C 0.905 0.1797 0.51927 0.0
N412 N 0.86576 0.2191 0.37262 0.0
N413 N 1.00863 0.17634 0.56247 0.0
C414 C 0.90054 0.21189 0.43012 0.0
C415 C 0.97334 0.18956 0.52896 0.0
N416 N 0.92964 0.26632 0.31349 0.0
N417 N 0.94183 0.14974 0.70529 0.0
H418 H 0.03329 0.18895 0.52137 0.0
H419 H 1.01349 0.15135 0.62013 0.0
H420 H 0.91751 0.14093 0.76106 0.0
H421 H 0.96715 0.14285 0.75472 0.0
H422 H 0.90383 0.27947 0.29252 0.0
H423 H 0.95304 0.2813 0.27439 0.0
H424 H 0.86073 0.23937 0.2924 0.0
H425 H 0.84201 0.20326 0.40439 0.0
C426 C 0.30267 0.92467 0.33112 0.0
C427 C 0.30273 0.96217 0.38282 0.0
C428 C 0.35841 0.94961 0.52633 0.0
C429 C 0.36228 0.91436 0.45346 0.0
N430 N 0.3352 0.8651 0.30993 0.0
N431 N 0.32162 1.00656 0.56375 0.0
C432 C 0.33294 0.90055 0.36626 0.0
C433 C 0.32774 0.97337 0.49199 0.0
N434 N 0.27425 0.91147 0.247 0.0
N435 N 0.38634 0.96226 0.61493 0.0
H436 H 0.30004 0.02541 0.5365 0.0
H437 H 0.33586 1.01417 0.65735 0.0
H438 H 0.4072 0.94476 0.65688 0.0
H439 H 0.38916 0.99033 0.64614 0.0
H440 H 0.25051 0.92752 0.21906 0.0
H441 H 0.25051 0.92752 0.21906 0.0
H442 H 0.31464 0.85437 0.24082 0.0
H443 H 0.35728 0.84665 0.33635 0.0
C444 C 0.60901 0.31012 0.36995 0.0
C445 C 0.57137 0.31742 0.41936 0.0
C446 C 0.59361 0.37036 0.55693 0.0
C447 C 0.62872 0.36895 0.48059 0.0
N448 N 0.67192 0.33615 0.32501 0.0
N449 N 0.52672 0.35492 0.55206 0.0
C450 C 0.63749 0.33759 0.39359 0.0
C451 C 0.56336 0.3477 0.51113 0.0
N452 N 0.61716 0.27737 0.29927 0.0
N453 N 0.5888 0.39468 0.66853 0.0
H454 H 0.50428 0.33742 0.52325 0.0
H455 H 0.51813 0.37949 0.60452 0.0
H456 H 0.61136 0.40899 0.71445 0.0
H457 H 0.56358 0.39647 0.72659 0.0
H458 H 0.64462 0.2687 0.27351 0.0
H459 H 0.59626 0.25807 0.27158 0.0
H460 H 0.67889 0.31652 0.24557 0.0
H461 H 0.69307 0.35599 0.34609 0.0
C462 C 0.24976 0.61936 0.38062 0.0
C463 C 0.23145 0.58334 0.37362 0.0
C464 C 0.1739 0.61827 0.34454 0.0
C465 C 0.18856 0.64818 0.42674 0.0
N466 N 0.24498 0.68164 0.48885 0.0
N467 N 0.17081 0.55125 0.38505 0.0
C468 C 0.22831 0.65076 0.43044 0.0
C469 C 0.19167 0.58305 0.36174 0.0
N470 N 0.28591 0.62377 0.33194 0.0
N471 N 0.14167 0.62249 0.26871 0.0
H472 H 0.18316 0.52667 0.4267 0.0
H473 H 0.14125 0.55151 0.38003 0.0
H474 H 0.13244 0.64963 0.24174 0.0
H475 H 0.12879 0.59968 0.21819 0.0
H476 H 0.29993 0.64976 0.3322 0.0
H477 H 0.29836 0.60267 0.26975 0.0
H478 H 0.27416 0.68333 0.50515 0.0
H479 H 0.22864 0.70448 0.52468 0.0
C480 C 0.10796 0.78483 0.23787 0.0
C481 C 0.07467 0.80684 0.26537 0.0
C482 C 0.11665 0.86016 0.28497 0.0
C483 C 0.14223 0.84307 0.18752 0.0
N484 N 0.16804 0.78467 0.10423 0.0
N485 N 0.04942 0.8705 0.27673 0.0
C486 C 0.14069 0.80341 0.17985 0.0
C487 C 0.07927 0.84623 0.28366 0.0
N488 N 0.10734 0.74707 0.2663 0.0
N489 N 0.12593 0.89284 0.35101 0.0
H490 H 0.02263 0.86125 0.24606 0.0
H491 H 0.05292 0.89976 0.2838 0.0
H492 H 0.15408 0.90202 0.35037 0.0
H493 H 0.1065 0.90775 0.4143 0.0
H494 H 0.13091 0.72948 0.25489 0.0
H495 H 0.13091 0.72948 0.25489 0.0
H496 H 0.16626 0.756 0.07964 0.0
H497 H 0.19156 0.79912 0.06159 0.0
C498 C 0.72903 0.10552 0.32761 0.0
C499 C 0.72217 0.06783 0.28127 0.0
C500 C 0.66908 0.08974 0.14124 0.0
C501 C 0.67057 0.12501 0.21307 0.0
N502 N 0.70532 0.16907 0.35553 0.0
N503 N 0.68459 0.02299 0.1539 0.0
C504 C 0.70216 0.13393 0.29745 0.0
C505 C 0.69194 0.05967 0.18991 0.0
N506 N 0.75998 0.11476 0.40623 0.0
N507 N 0.6445 0.08463 0.03116 0.0
H508 H 0.70192 1.00059 0.18641 0.0
H509 H 0.65998 1.01436 0.10229 0.0
H510 H 0.62933 0.10685 0.98523 0.0
H511 H 0.64343 0.05956 0.97421 0.0
H512 H 0.78048 0.09525 0.43872 0.0
H513 H 0.78048 0.09525 0.43872 0.0
H514 H 0.72769 0.17655 0.42274 0.0
H515 H 0.68556 0.19036 0.33316 0.0
C516 C 0.41994 0.73256 0.50894 0.0
C517 C 0.44353 0.74379 0.39063 0.0
C518 C 0.39839 0.71455 0.23074 0.0
C519 C 0.38965 0.68914 0.34273 0.0
N520 N 0.37463 0.68495 0.59559 0.0
N521 N 0.45365 0.74425 0.12993 0.0
C522 C 0.39305 0.70319 0.4851 0.0
C523 C 0.43181 0.73535 0.24738 0.0
N524 N 0.42286 0.75015 0.63887 0.0
N525 N 0.37806 0.71503 0.10637 0.0
H526 H 0.48161 0.75274 0.1409 0.0
H527 H 0.44482 0.73971 0.02422 0.0
H528 H 0.35323 0.69915 0.09788 0.0
H529 H 0.3838 0.73396 0.02143 0.0
H530 H 0.40548 0.74391 0.72792 0.0
H531 H 0.44064 0.77346 0.65128 0.0
H532 H 0.37886 0.69083 0.70467 0.0
H533 H 0.35567 0.66303 0.57407 0.0
C534 C 0.85598 0.46714 0.1657 0.0
C535 C 0.82516 0.46134 0.26023 0.0
C536 C 0.84 0.39364 0.27825 0.0
C537 C 0.87231 0.40036 0.19103 0.0
N538 N 0.89972 0.43803 0.99891 0.0
N539 N 0.78145 0.41817 0.37883 0.0
C540 C 0.87588 0.43525 0.11488 0.0
C541 C 0.81485 0.42411 0.30659 0.0
N542 N 0.8658 0.50311 0.1247 0.0
N543 N 0.83577 0.3591 0.34377 0.0
H544 H 0.76415 0.4404 0.41178 0.0
H545 H 0.77046 0.3914 0.40175 0.0
H546 H 0.85414 0.33674 0.31979 0.0
H547 H 0.8154 0.35317 0.42332 0.0
H548 H 0.89059 0.50984 0.06784 0.0
H549 H 0.85037 0.52674 0.15808 0.0
H550 H 0.90488 0.46341 0.94531 0.0
H551 H 0.91069 0.41416 0.94802 0.0
C552 C 0.9915 0.19799 0.08914 0.0
C553 C 0.0227 0.21096 0.17291 0.0
C554 C 0.05405 0.1486 0.10284 0.0
C555 C 0.02043 0.1335 0.03625 0.0
N556 N 0.95345 0.14425 0.01667 0.0
N557 N 0.08281 0.19344 0.2719 0.0
C558 C 0.98833 0.15864 0.04305 0.0
C559 C 0.05363 0.18457 0.18278 0.0
N560 N 0.96494 0.22375 0.04803 0.0
N561 N 0.08734 0.1294 0.08594 0.0
H562 H 0.08401 0.21925 0.3257 0.0
H563 H 0.1041 0.17434 0.2998 0.0
H564 H 0.08947 0.10461 0.02619 0.0
H565 H 0.11341 0.14005 0.11833 0.0
H566 H 0.94287 0.21731 0.97813 0.0
H567 H 0.96862 0.25251 0.0676 0.0
H568 H 0.92854 0.15999 0.02509 0.0
H569 H 0.94971 0.11569 0.99607 0.0
C570 C 0.34634 0.04787 0.17789 0.0
C571 C 0.31833 0.01971 0.14991 0.0
C572 C 0.36877 0.98753 0.99644 0.0
C573 C 0.39581 1.01751 0.01252 0.0
N574 N 0.40375 0.08126 0.09953 0.0
N575 N 0.30232 0.96752 0.99872 0.0
C576 C 0.38253 0.04898 0.09828 0.0
C577 C 0.32961 0.9911 0.04888 0.0
N578 N 0.33913 0.07326 0.28505 0.0
N579 N 0.38092 0.95404 0.94066 0.0
H580 H 0.27391 0.97071 0.02911 0.0
H581 H 0.3072 0.94816 0.91603 0.0
H582 H 0.40919 0.94936 0.91186 0.0
H583 H 0.36402 0.92987 0.93857 0.0
H584 H 0.35957 0.09162 0.32468 0.0
H585 H 0.31347 0.07369 0.3422 0.0
H586 H 0.39455 0.10624 0.14754 0.0
H587 H 0.42853 0.08451 0.0382 0.0
C588 C 0.55074 0.33475 0.07067 0.0
C589 C 0.52031 0.32206 0.16175 0.0
C590 C 0.48909 0.38489 0.10293 0.0
C591 C 0.52214 0.39969 0.02875 0.0
N592 N 0.58824 0.38789 0.98225 0.0
N593 N 0.46103 0.33861 0.273 0.0
C594 C 0.55378 0.37405 0.02258 0.0
C595 C 0.48966 0.3483 0.17936 0.0
N596 N 0.57688 0.30881 0.02672 0.0
N597 N 0.45626 0.40528 0.09717 0.0
H598 H 0.4598 0.31208 0.32365 0.0
H599 H 0.44013 0.35747 0.30706 0.0
H600 H 0.45423 0.43094 0.04108 0.0
H601 H 0.43028 0.3951 0.13544 0.0
H602 H 0.59823 0.31497 0.95111 0.0
H603 H 0.57388 0.28016 0.05295 0.0
H604 H 0.61325 0.37222 0.98841 0.0
H605 H 0.59187 0.41636 0.95712 0.0
C606 C 0.21049 0.54409 0.0747 0.0
C607 C 0.22207 0.51517 0.1743 0.0
C608 C 0.15997 0.48302 0.11583 0.0
C609 C 0.1457 0.51533 0.0372 0.0
N610 N 0.15809 0.58033 0.97418 0.0
N611 N 0.20399 0.45743 0.29582 0.0
C612 C 0.17159 0.54651 0.02314 0.0
C613 C 0.1959 0.48439 0.19391 0.0
N614 N 0.23672 0.57034 0.03222 0.0
N615 N 0.13962 0.45021 0.11374 0.0
H616 H 0.22906 0.45763 0.35459 0.0
H617 H 0.18474 0.43678 0.32993 0.0
H618 H 0.11425 0.44771 0.05765 0.0
H619 H 0.14973 0.42461 0.15481 0.0
H620 H 0.23174 0.59048 0.9513 0.0
H621 H 0.26463 0.56912 0.06874 0.0
H622 H 0.17395 0.6052 0.975 0.0
H623 H 0.12948 0.58446 0.95126 0.0
C624 C 0.04128 0.83565 0.57764 0.0
C625 C 1.0103 0.82266 0.49226 0.0
C626 C 0.97827 0.88456 0.55912 0.0
C627 C 1.0118 0.89959 0.62514 0.0
N628 N 0.07849 0.88679 0.66472 0.0
N629 N 0.9497 0.8392 0.39307 0.0
C630 C 0.04365 0.87423 0.62718 0.0
C631 C 0.97869 0.84829 0.48294 0.0
N632 N 0.07099 0.81229 0.60546 0.0
N633 N 0.9452 0.90437 0.57243 0.0
H634 H 0.94898 0.81384 0.33645 0.0
H635 H 0.92788 0.85777 0.36648 0.0
H636 H 0.94337 0.92995 0.62736 0.0
H637 H 0.91899 0.89375 0.54163 0.0
H638 H 0.07158 0.78395 0.57411 0.0
H639 H 0.07158 0.78395 0.57411 0.0
H640 H 0.08441 0.9151 0.68619 0.0
H641 H 0.08441 0.9151 0.68619 0.0
C642 C 0.70478 0.04915 0.632 0.0
C643 C 0.71765 1.01825 0.54702 0.0
C644 C 0.65545 0.98676 0.61661 0.0
C645 C 0.64034 0.02009 0.68568 0.0
N646 N 0.6511 0.08662 0.71682 0.0
N647 N 0.7013 0.95821 0.44766 0.0
C648 C 0.66554 0.05209 0.68353 0.0
C649 C 0.69172 0.98725 0.53713 0.0
N650 N 0.7311 0.07567 0.66422 0.0
N651 N 0.63565 0.95372 0.63015 0.0
H652 H 0.72758 0.95701 0.39472 0.0
H653 H 0.68249 0.93694 0.41877 0.0
H654 H 0.61038 0.95162 0.68923 0.0
H655 H 0.64606 0.92771 0.59555 0.0
H656 H 0.72614 0.09821 0.73411 0.0
H657 H 0.72614 0.09821 0.73411 0.0
H658 H 0.666 0.11186 0.70272 0.0
H659 H 0.62261 0.08996 0.74327 0.0
C660 C 0.50699 0.71004 0.67347 0.0
C661 C 0.51703 0.71583 0.52448 0.0
C662 C 0.53652 0.64746 0.5265 0.0
C663 C 0.51987 0.63964 0.66821 0.0
N664 N 0.48136 0.66732 0.85833 0.0
N665 N 0.53496 0.68709 0.30452 0.0
C666 C 0.50316 0.67215 0.73671 0.0
C667 C 0.52987 0.68331 0.45019 0.0
N668 N 0.50235 0.74106 0.75794 0.0
N669 N 0.56116 0.62203 0.46732 0.0
H670 H 0.54122 0.66459 0.23589 0.0
H671 H 0.54122 0.66459 0.23589 0.0
H672 H 0.57109 0.59847 0.52375 0.0
H673 H 0.57625 0.62739 0.37172 0.0
H674 H 0.49938 0.73917 0.87026 0.0
H675 H 0.50576 0.76842 0.716 0.0
H676 H 0.46543 0.68921 0.90241 0.0
H677 H 0.47514 0.64101 0.90397 0.0
C678 C 0.84598 0.48651 0.59494 0.0
C679 C 0.83235 0.51697 0.50705 0.0
C680 C 0.89422 0.54978 0.56972 0.0
C681 C 0.90974 0.51696 0.64268 0.0
N682 N 0.89821 0.45021 0.6825 0.0
N683 N 0.84827 0.57686 0.39863 0.0
C684 C 0.88488 0.48471 0.64413 0.0
C685 C 0.85797 0.54838 0.49184 0.0
N686 N 0.82161 0.45821 0.63254 0.0
N687 N 0.91334 0.5832 0.57852 0.0
H688 H 0.82229 0.57726 0.3455 0.0
H689 H 0.86681 0.59838 0.36675 0.0
H690 H 0.93856 0.58587 0.63534 0.0
H691 H 0.90241 0.60891 0.54181 0.0
H692 H 0.8299 0.43484 0.69482 0.0
H693 H 0.79265 0.46064 0.61299 0.0
H694 H 0.92662 0.44528 0.70556 0.0
H695 H 0.92662 0.44528 0.70556 0.0
loop_
_geom_bond_atom_site_label_1
_geom_bond_atom_site_label_2
_geom_bond_distance
_geom_bond_site_symmetry_2
_ccdc_geom_bond_type
C0 N1 1.317 . S
C0 N2 1.348 . S
C0 C3 1.485 . S
N1 C0 1.317 . S
N1 N5 1.370 . S
N2 C0 1.348 . S
N2 C4 1.346 . S
C3 C0 1.485 . S
C3 H7 0.960 . S
C3 H8 0.961 . S
C3 H9 0.960 . S
C4 N2 1.346 . S
C4 N5 1.307 . S
C4 C6 1.486 . S
N5 N1 1.370 . S
N5 C4 1.307 . S
C6 C4 1.486 . S
C6 H10 0.960 . S
C6 H11 0.960 . S
C6 H12 0.959 . S
H7 C3 0.960 . S
H8 C3 0.961 . S
H9 C3 0.960 . S
H10 C6 0.960 . S
H11 C6 0.960 . S
H12 C6 0.959 . S
C13 N14 1.317 . S
C13 N15 1.348 . S
C13 C16 1.485 . S
N14 C13 1.317 . S
N14 N18 1.371 . S
N15 C13 1.348 . S
N15 C17 1.346 1_655 S
C16 C13 1.485 . S
C16 H20 0.960 1_655 S
C16 H21 0.961 . S
C16 H22 0.960 . S
C17 N15 1.346 1_455 S
C17 N18 1.307 1_455 S
C17 C19 1.486 . S
N18 N14 1.371 . S
N18 C17 1.307 1_655 S
C19 C17 1.486 . S
C19 H23 0.960 1_455 S
C19 H24 0.960 . S
C19 H25 0.959 . S
H20 C16 0.960 1_455 S
H21 C16 0.961 . S
H22 C16 0.960 . S
H23 C19 0.960 1_655 S
H24 C19 0.960 . S
H25 C19 0.959 . S
C26 N27 1.317 . S
C26 N28 1.348 . S
C26 C29 1.485 . S
N27 C26 1.317 . S
N27 N31 1.371 . S
N28 C26 1.348 . S
N28 C30 1.346 1_565 S
C29 C26 1.485 . S
C29 H33 0.960 1_565 S
C29 H34 0.961 . S
C29 H35 0.960 . S
C30 N28 1.346 1_545 S
C30 N31 1.307 1_545 S
C30 C32 1.486 . S
N31 N27 1.371 . S
N31 C30 1.307 1_565 S
C32 C30 1.486 . S
C32 H36 0.960 1_545 S
C32 H37 0.960 . S
C32 H38 0.959 . S
H33 C29 0.960 1_545 S
H34 C29 0.961 . S
H35 C29 0.960 . S
H36 C32 0.960 1_565 S
H37 C32 0.960 . S
H38 C32 0.959 . S
C39 N40 1.317 . S
C39 N41 1.348 . S
C39 C42 1.485 . S
N40 C39 1.317 . S
N40 N44 1.370 . S
N41 C39 1.348 . S
N41 C43 1.346 . S
C42 C39 1.485 . S
C42 H46 0.960 . S
C42 H47 0.961 . S
C42 H48 0.960 . S
C43 N41 1.346 . S
C43 N44 1.307 . S
C43 C45 1.486 . S
N44 N40 1.370 . S
N44 C43 1.307 . S
C45 C43 1.486 . S
C45 H49 0.960 . S
C45 H50 0.960 . S
C45 H51 0.959 . S
H46 C42 0.960 . S
H47 C42 0.961 . S
H48 C42 0.960 . S
H49 C45 0.960 . S
H50 C45 0.960 . S
H51 C45 0.959 . S
C52 N53 1.317 . S
C52 N54 1.348 1_556 S
C52 C55 1.485 . S
N53 C52 1.317 . S
N53 N57 1.370 1_556 S
N54 C52 1.348 1_554 S
N54 C56 1.346 . S
C55 C52 1.485 . S
C55 H59 0.960 . S
C55 H60 0.961 . S
C55 H61 0.960 . S
C56 N54 1.346 . S
C56 N57 1.307 . S
C56 C58 1.486 . S
N57 N53 1.370 1_554 S
N57 C56 1.307 . S
C58 C56 1.486 . S
C58 H62 0.960 . S
C58 H63 0.960 . S
C58 H64 0.959 . S
H59 C55 0.960 . S
H60 C55 0.961 . S
H61 C55 0.960 . S
H62 C58 0.960 . S
H63 C58 0.960 . S
H64 C58 0.959 . S
C65 N66 1.317 . S
C65 N67 1.350 1_556 S
C65 C68 1.485 . S
N66 C65 1.317 . S
N66 N70 1.371 1_556 S
N67 C65 1.350 1_554 S
N67 C69 1.345 1_655 S
C68 C65 1.485 . S
C68 H72 0.960 1_655 S
C68 H73 0.961 . S
C68 H74 0.960 . S
C69 N67 1.345 1_455 S
C69 N70 1.307 1_455 S
C69 C71 1.487 . S
N70 N66 1.371 1_554 S
N70 C69 1.307 1_655 S
C71 C69 1.487 . S
C71 H75 0.960 1_455 S
C71 H76 0.960 . S
C71 H77 0.959 . S
H72 C68 0.960 1_455 S
H73 C68 0.961 . S
H74 C68 0.960 . S
H75 C71 0.960 1_655 S
H76 C71 0.960 . S
H77 C71 0.959 . S
C78 N79 1.317 . S
C78 N80 1.350 1_556 S
C78 C81 1.485 . S
N79 C78 1.317 . S
N79 N83 1.371 1_556 S
N80 C78 1.350 1_554 S
N80 C82 1.345 1_565 S
C81 C78 1.485 . S
C81 H85 0.960 1_565 S
C81 H86 0.961 . S
C81 H87 0.960 . S
C82 N80 1.345 1_545 S
C82 N83 1.307 1_545 S
C82 C84 1.487 . S
N83 N79 1.371 1_554 S
N83 C82 1.307 1_565 S
C84 C82 1.487 . S
C84 H88 0.960 1_545 S
C84 H89 0.960 . S
C84 H90 0.959 . S
H85 C81 0.960 1_545 S
H86 C81 0.961 . S
H87 C81 0.960 . S
H88 C84 0.960 1_565 S
H89 C84 0.960 . S
H90 C84 0.959 . S
C91 N92 1.317 . S
C91 N93 1.348 1_556 S
C91 C94 1.485 . S
N92 C91 1.317 . S
N92 N96 1.370 1_556 S
N93 C91 1.348 1_554 S
N93 C95 1.346 . S
C94 C91 1.485 . S
C94 H98 0.960 . S
C94 H99 0.961 . S
C94 H100 0.960 . S
C95 N93 1.346 . S
C95 N96 1.307 . S
C95 C97 1.486 . S
N96 N92 1.370 1_554 S
N96 C95 1.307 . S
C97 C95 1.486 . S
C97 H101 0.960 . S
C97 H102 0.960 . S
C97 H103 0.959 . S
H98 C94 0.960 . S
H99 C94 0.961 . S
H100 C94 0.960 . S
H101 C97 0.960 . S
H102 C97 0.960 . S
H103 C97 0.959 . S
La104 C106 2.928 1_556 S
La104 O124 2.521 1_556 S
La104 O125 2.628 1_556 S
La104 O126 2.554 . S
La104 O127 2.757 1_565 S
La104 O128 2.470 . S
La104 O133 2.482 1_455 S
La104 O135 2.503 1_565 S
La105 C115 2.928 . S
La105 O127 2.482 1_655 S
La105 O129 2.503 1_545 S
La105 O130 2.521 . S
La105 O131 2.628 . S
La105 O132 2.554 . S
La105 O133 2.757 1_545 S
La105 O134 2.470 . S
C106 La104 2.928 1_554 S
C106 C107 1.503 . S
C106 O124 1.261 . S
C106 O125 1.243 . S
C107 C106 1.503 . S
C107 C108 1.394 . S
C107 C112 1.373 . S
C108 C107 1.394 . S
C108 C109 1.380 . S
C108 H136 0.930 . S
C109 C108 1.380 . S
C109 C110 1.376 . S
C109 H137 0.930 . S
C110 C109 1.376 . S
C110 C111 1.370 . S
C111 C110 1.370 . S
C111 C112 1.396 . S
C111 H138 0.929 . S
C112 C107 1.373 . S
C112 C111 1.396 . S
C112 H139 0.929 1_455 S
C113 O126 1.240 . S
C113 O127 1.289 1_565 S
C114 O128 1.258 1_655 S
C114 O129 1.256 . S
C115 La105 2.928 . S
C115 C116 1.503 . S
C115 O130 1.261 . S
C115 O131 1.243 . S
C116 C115 1.503 . S
C116 C117 1.394 . S
C116 C121 1.373 . S
C117 C116 1.394 . S
C117 C118 1.380 . S
C117 H140 0.930 . S
C118 C117 1.380 . S
C118 C119 1.376 . S
C118 H141 0.930 . S
C119 C118 1.376 . S
C119 C120 1.370 . S
C120 C119 1.370 . S
C120 C121 1.396 . S
C120 H142 0.929 . S
C121 C116 1.373 . S
C121 C120 1.396 . S
C121 H143 0.929 1_655 S
C122 O132 1.240 . S
C122 O133 1.289 1_545 S
C123 O134 1.258 1_455 S
C123 O135 1.256 . S
O124 La104 2.521 1_554 S
O124 C106 1.261 . S
O125 La104 2.628 1_554 S
O125 C106 1.243 . S
O126 La104 2.554 . S
O126 C113 1.240 . S
O127 La104 2.757 1_545 S
O127 La105 2.482 1_455 S
O127 C113 1.289 1_545 S
O128 La104 2.470 . S
O128 C114 1.258 1_455 S
O129 La105 2.503 1_565 S
O129 C114 1.256 . S
O130 La105 2.521 . S
O130 C115 1.261 . S
O131 La105 2.628 . S
O131 C115 1.243 . S
O132 La105 2.554 . S
O132 C122 1.240 . S
O133 La104 2.482 1_655 S
O133 La105 2.757 1_565 S
O133 C122 1.289 1_565 S
O134 La105 2.470 . S
O134 C123 1.258 1_655 S
O135 La104 2.503 1_545 S
O135 C123 1.256 . S
H136 C108 0.930 . S
H137 C109 0.930 . S
H138 C111 0.929 . S
H139 C112 0.929 1_655 S
H140 C117 0.930 . S
H141 C118 0.930 . S
H142 C120 0.929 . S
H143 C121 0.929 1_455 S
La144 C146 2.928 1_556 S
La144 O164 2.521 1_556 S
La144 O165 2.628 1_556 S
La144 O166 2.554 . S
La144 O167 2.757 . S
La144 O168 2.470 . S
La144 O173 2.482 1_545 S
La144 O175 2.503 . S
La145 C155 2.928 . S
La145 O167 2.482 1_565 S
La145 O169 2.503 . S
La145 O170 2.521 . S
La145 O171 2.628 . S
La145 O172 2.554 . S
La145 O173 2.757 . S
La145 O174 2.470 . S
C146 La144 2.928 1_554 S
C146 C147 1.503 . S
C146 O164 1.261 . S
C146 O165 1.243 . S
C147 C146 1.503 . S
C147 C148 1.394 . S
C147 C152 1.373 . S
C148 C147 1.394 . S
C148 C149 1.380 . S
C148 H176 0.930 . S
C149 C148 1.380 . S
C149 C150 1.376 . S
C149 H177 0.930 . S
C150 C149 1.376 . S
C150 C151 1.370 . S
C151 C150 1.370 . S
C151 C152 1.396 . S
C151 H178 0.929 . S
C152 C147 1.373 . S
C152 C151 1.396 . S
C152 H179 0.929 1_545 S
C153 O166 1.240 . S
C153 O167 1.289 . S
C154 O168 1.258 1_565 S
C154 O169 1.256 . S
C155 La145 2.928 . S
C155 C156 1.503 . S
C155 O170 1.261 . S
C155 O171 1.243 . S
C156 C155 1.503 . S
C156 C157 1.394 . S
C156 C161 1.373 . S
C157 C156 1.394 . S
C157 C158 1.380 . S
C157 H180 0.930 . S
C158 C157 1.380 . S
C158 C159 1.376 . S
C158 H181 0.930 . S
C159 C158 1.376 . S
C159 C160 1.370 . S
C160 C159 1.370 . S
C160 C161 1.396 . S
C160 H182 0.929 . S
C161 C156 1.373 . S
C161 C160 1.396 . S
C161 H183 0.929 1_565 S
C162 O172 1.240 . S
C162 O173 1.289 . S
C163 O174 1.258 1_545 S
C163 O175 1.256 . S
O164 La144 2.521 1_554 S
O164 C146 1.261 . S
O165 La144 2.628 1_554 S
O165 C146 1.243 . S
O166 La144 2.554 . S
O166 C153 1.240 . S
O167 La144 2.757 . S
O167 La145 2.482 1_545 S
O167 C153 1.289 . S
O168 La144 2.470 . S
O168 C154 1.258 1_545 S
O169 La145 2.503 . S
O169 C154 1.256 . S
O170 La145 2.521 . S
O170 C155 1.261 . S
O171 La145 2.628 . S
O171 C155 1.243 . S
O172 La145 2.554 . S
O172 C162 1.240 . S
O173 La144 2.482 1_565 S
O173 La145 2.757 . S
O173 C162 1.289 . S
O174 La145 2.470 . S
O174 C163 1.258 1_565 S
O175 La144 2.503 . S
O175 C163 1.256 . S
H176 C148 0.930 . S
H177 C149 0.930 . S
H178 C151 0.929 . S
H179 C152 0.929 1_565 S
H180 C157 0.930 . S
H181 C158 0.930 . S
H182 C160 0.929 . S
H183 C161 0.929 1_545 S
La184 C186 2.926 1_556 S
La184 O204 2.519 1_556 S
La184 O205 2.625 1_556 S
La184 O206 2.557 . S
La184 O207 2.761 . S
La184 O208 2.473 . S
La184 O213 2.483 . S
La184 O215 2.503 . S
La185 C195 2.928 . S
La185 O207 2.482 . S
La185 O209 2.503 . S
La185 O210 2.521 . S
La185 O211 2.628 . S
La185 O212 2.554 . S
La185 O213 2.757 . S
La185 O214 2.470 . S
C186 La184 2.926 1_554 S
C186 C187 1.503 . S
C186 O204 1.261 . S
C186 O205 1.243 . S
C187 C186 1.503 . S
C187 C188 1.394 . S
C187 C192 1.373 . S
C188 C187 1.394 . S
C188 C189 1.380 . S
C188 H216 0.930 . S
C189 C188 1.380 . S
C189 C190 1.376 . S
C189 H217 0.930 . S
C190 C189 1.376 . S
C190 C191 1.370 . S
C191 C190 1.370 . S
C191 C192 1.396 . S
C191 H218 0.929 . S
C192 C187 1.373 . S
C192 C191 1.396 . S
C192 H219 0.929 . S
C193 O206 1.240 . S
C193 O207 1.289 . S
C194 O208 1.258 . S
C194 O209 1.256 . S
C195 La185 2.928 . S
C195 C196 1.503 . S
C195 O210 1.261 . S
C195 O211 1.243 . S
C196 C195 1.503 . S
C196 C197 1.394 . S
C196 C201 1.373 . S
C197 C196 1.394 . S
C197 C198 1.380 . S
C197 H220 0.930 . S
C198 C197 1.380 . S
C198 C199 1.376 . S
C198 H221 0.930 . S
C199 C198 1.376 . S
C199 C200 1.370 . S
C200 C199 1.370 . S
C200 C201 1.396 . S
C200 H222 0.929 . S
C201 C196 1.373 . S
C201 C200 1.396 . S
C201 H223 0.929 . S
C202 O212 1.240 . S
C202 O213 1.289 . S
C203 O214 1.258 . S
C203 O215 1.256 . S
O204 La184 2.519 1_554 S
O204 C186 1.261 . S
O205 La184 2.625 1_554 S
O205 C186 1.243 . S
O206 La184 2.557 . S
O206 C193 1.240 . S
O207 La184 2.761 . S
O207 La185 2.482 . S
O207 C193 1.289 . S
O208 La184 2.473 . S
O208 C194 1.258 . S
O209 La185 2.503 . S
O209 C194 1.256 . S
O210 La185 2.521 . S
O210 C195 1.261 . S
O211 La185 2.628 . S
O211 C195 1.243 . S
O212 La185 2.554 . S
O212 C202 1.240 . S
O213 La184 2.483 . S
O213 La185 2.757 . S
O213 C202 1.289 . S
O214 La185 2.470 . S
O214 C203 1.258 . S
O215 La184 2.503 . S
O215 C203 1.256 . S
H216 C188 0.930 . S
H217 C189 0.930 . S
H218 C191 0.929 . S
H219 C192 0.929 . S
H220 C197 0.930 . S
H221 C198 0.930 . S
H222 C200 0.929 . S
H223 C201 0.929 . S
La224 C226 2.929 1_556 S
La224 O244 2.521 1_556 S
La224 O245 2.628 1_556 S
La224 O246 2.553 . S
La224 O247 2.756 1_655 S
La224 O248 2.470 . S
La224 O253 2.482 . S
La224 O255 2.503 1_655 S
La225 C235 2.928 . S
La225 O247 2.482 . S
La225 O249 2.503 1_455 S
La225 O250 2.521 . S
La225 O251 2.628 . S
La225 O252 2.554 . S
La225 O253 2.757 1_455 S
La225 O254 2.470 . S
C226 La224 2.929 1_554 S
C226 C227 1.503 . S
C226 O244 1.261 . S
C226 O245 1.243 . S
C227 C226 1.503 . S
C227 C228 1.394 . S
C227 C232 1.373 . S
C228 C227 1.394 . S
C228 C229 1.380 . S
C228 H256 0.930 . S
C229 C228 1.380 . S
C229 C230 1.376 . S
C229 H257 0.930 . S
C230 C229 1.376 . S
C230 C231 1.370 . S
C231 C230 1.370 . S
C231 C232 1.396 . S
C231 H258 0.929 . S
C232 C227 1.373 . S
C232 C231 1.396 . S
C232 H259 0.929 . S
C233 O246 1.247 . S
C233 O247 1.285 1_655 S
C234 O248 1.258 . S
C234 O249 1.256 . S
C235 La225 2.928 . S
C235 C236 1.503 . S
C235 O250 1.261 . S
C235 O251 1.243 . S
C236 C235 1.503 . S
C236 C237 1.394 . S
C236 C241 1.373 . S
C237 C236 1.394 . S
C237 C238 1.380 . S
C237 H260 0.930 . S
C238 C237 1.380 . S
C238 C239 1.376 . S
C238 H261 0.930 . S
C239 C238 1.376 . S
C239 C240 1.370 . S
C240 C239 1.370 . S
C240 C241 1.396 . S
C240 H262 0.929 . S
C241 C236 1.373 . S
C241 C240 1.396 . S
C241 H263 0.929 . S
C242 O252 1.250 . S
C242 O253 1.283 1_455 S
C243 O254 1.258 . S
C243 O255 1.256 . S
O244 La224 2.521 1_554 S
O244 C226 1.261 . S
O245 La224 2.628 1_554 S
O245 C226 1.243 . S
O246 La224 2.553 . S
O246 C233 1.247 . S
O247 La224 2.756 1_455 S
O247 La225 2.482 . S
O247 C233 1.285 1_455 S
O248 La224 2.470 . S
O248 C234 1.258 . S
O249 La225 2.503 1_655 S
O249 C234 1.256 . S
O250 La225 2.521 . S
O250 C235 1.261 . S
O251 La225 2.628 . S
O251 C235 1.243 . S
O252 La225 2.554 . S
O252 C242 1.250 . S
O253 La224 2.482 . S
O253 La225 2.757 1_655 S
O253 C242 1.283 1_655 S
O254 La225 2.470 . S
O254 C243 1.258 . S
O255 La224 2.503 1_455 S
O255 C243 1.256 . S
H256 C228 0.930 . S
H257 C229 0.930 . S
H258 C231 0.929 . S
H259 C232 0.929 . S
H260 C237 0.930 . S
H261 C238 0.930 . S
H262 C240 0.929 . S
H263 C241 0.929 . S
C264 C265 1.361 1_565 S
C264 C270 1.379 . S
C264 N272 1.356 . S
C265 C264 1.361 1_545 S
C265 C271 1.365 . S
C266 C267 1.369 . S
C266 C271 1.379 . S
C266 N273 1.356 . S
C267 C266 1.369 . S
C267 C270 1.356 1_545 S
N268 C270 1.356 . S
N268 H280 0.984 . S
N268 H281 0.985 . S
N269 C271 1.356 . S
N269 H274 0.984 . S
N269 H275 0.985 . S
C270 C264 1.379 . S
C270 C267 1.356 1_565 S
C270 N268 1.356 . S
C271 C265 1.365 . S
C271 C266 1.379 . S
C271 N269 1.356 . S
N272 C264 1.356 . S
N272 H278 0.984 . S
N272 H279 0.984 . S
N273 C266 1.356 . S
N273 H276 0.984 . S
N273 H277 0.985 . S
H274 N269 0.984 . S
H275 N269 0.985 . S
H276 N273 0.984 . S
H277 N273 0.985 . S
H278 N272 0.984 . S
H279 N272 0.984 . S
H280 N268 0.984 . S
H281 N268 0.985 . S
C282 C283 1.363 . S
C282 C288 1.379 . S
C282 N290 1.356 . S
C283 C282 1.363 . S
C283 C289 1.363 . S
C284 C285 1.363 . S
C284 C289 1.379 . S
C284 N291 1.356 . S
C285 C284 1.363 . S
C285 C288 1.363 . S
N286 C288 1.356 . S
N286 H298 0.984 . S
N286 H299 0.985 . S
N287 C289 1.356 . S
N287 H292 0.984 . S
N287 H293 0.985 . S
C288 C282 1.379 . S
C288 C285 1.363 . S
C288 N286 1.356 . S
C289 C283 1.363 . S
C289 C284 1.379 . S
C289 N287 1.356 . S
N290 C282 1.356 . S
N290 H296 0.984 . S
N290 H297 0.984 . S
N291 C284 1.356 . S
N291 H294 0.984 . S
N291 H295 0.985 . S
H292 N287 0.984 . S
H293 N287 0.985 . S
H294 N291 0.984 . S
H295 N291 0.985 . S
H296 N290 0.984 . S
H297 N290 0.984 . S
H298 N286 0.984 . S
H299 N286 0.985 . S
C300 C301 1.363 . S
C300 C306 1.379 . S
C300 N308 1.356 . S
C301 C300 1.363 . S
C301 C307 1.363 . S
C302 C303 1.363 . S
C302 C307 1.379 . S
C302 N309 1.356 . S
C303 C302 1.363 . S
C303 C306 1.363 . S
N304 C306 1.356 . S
N304 H316 0.984 . S
N304 H317 0.985 . S
N305 C307 1.356 . S
N305 H310 0.984 . S
N305 H311 0.985 . S
C306 C300 1.379 . S
C306 C303 1.363 . S
C306 N304 1.356 . S
C307 C301 1.363 . S
C307 C302 1.379 . S
C307 N305 1.356 . S
N308 C300 1.356 . S
N308 H314 0.984 . S
N308 H315 0.984 . S
N309 C302 1.356 . S
N309 H312 0.984 . S
N309 H313 0.985 . S
H310 N305 0.984 . S
H311 N305 0.985 . S
H312 N309 0.984 . S
H313 N309 0.985 . S
H314 N308 0.984 . S
H315 N308 0.984 . S
H316 N304 0.984 . S
H317 N304 0.985 . S
C318 C319 1.354 1_655 S
C318 C324 1.379 . S
C318 N326 1.356 . S
C319 C318 1.354 1_455 S
C319 C325 1.373 . S
C320 C321 1.363 . S
C320 C325 1.379 . S
C320 N327 1.356 . S
C321 C320 1.363 . S
C321 C324 1.363 1_455 S
N322 C324 1.356 . S
N322 H334 0.984 . S
N322 H335 0.985 . S
N323 C325 1.356 . S
N323 H328 0.984 . S
N323 H329 0.985 . S
C324 C318 1.379 . S
C324 C321 1.363 1_655 S
C324 N322 1.356 . S
C325 C319 1.373 . S
C325 C320 1.379 . S
C325 N323 1.356 . S
N326 C318 1.356 . S
N326 H332 0.984 . S
N326 H333 0.984 . S
N327 C320 1.356 . S
N327 H330 0.984 . S
N327 H331 0.985 . S
H328 N323 0.984 . S
H329 N323 0.985 . S
H330 N327 0.984 . S
H331 N327 0.985 . S
H332 N326 0.984 . S
H333 N326 0.984 . S
H334 N322 0.984 . S
H335 N322 0.985 . S
C336 C337 1.365 1_565 S
C336 C342 1.379 . S
C336 N344 1.356 . S
C337 C336 1.365 1_545 S
C337 C343 1.361 . S
C338 C339 1.362 1_545 S
C338 C343 1.379 . S
C338 N345 1.356 . S
C339 C338 1.362 1_565 S
C339 C342 1.364 . S
N340 C342 1.356 . S
N340 H352 0.984 . S
N340 H353 0.985 . S
N341 C343 1.356 . S
N341 H346 0.984 . S
N341 H347 0.985 . S
C342 C336 1.379 . S
C342 C339 1.364 . S
C342 N340 1.356 . S
C343 C337 1.361 . S
C343 C338 1.379 . S
C343 N341 1.356 . S
N344 C336 1.356 . S
N344 H350 0.984 . S
N344 H351 0.984 . S
N345 C338 1.356 . S
N345 H348 0.984 . S
N345 H349 0.985 . S
H346 N341 0.984 . S
H347 N341 0.985 . S
H348 N345 0.984 . S
H349 N345 0.985 . S
H350 N344 0.984 . S
H351 N344 0.984 . S
H352 N340 0.984 . S
H353 N340 0.985 . S
C354 C355 1.363 . S
C354 C360 1.379 . S
C354 N362 1.356 . S
C355 C354 1.363 . S
C355 C361 1.363 . S
C356 C357 1.363 . S
C356 C361 1.379 . S
C356 N363 1.356 . S
C357 C356 1.363 . S
C357 C360 1.363 . S
N358 C360 1.356 . S
N358 H370 0.984 . S
N358 H371 0.985 . S
N359 C361 1.356 . S
N359 H364 0.984 . S
N359 H365 0.985 . S
C360 C354 1.379 . S
C360 C357 1.363 . S
C360 N358 1.356 . S
C361 C355 1.363 . S
C361 C356 1.379 . S
C361 N359 1.356 . S
N362 C354 1.356 . S
N362 H368 0.984 . S
N362 H369 0.984 . S
N363 C356 1.356 . S
N363 H366 0.984 1_554 S
N363 H367 0.985 . S
H364 N359 0.984 . S
H365 N359 0.985 . S
H366 N363 0.984 1_556 S
H367 N363 0.985 . S
H368 N362 0.984 . S
H369 N362 0.984 . S
H370 N358 0.984 . S
H371 N358 0.985 . S
C372 C373 1.363 . S
C372 C378 1.379 . S
C372 N380 1.356 . S
C373 C372 1.363 . S
C373 C379 1.363 . S
C374 C375 1.363 . S
C374 C379 1.379 . S
C374 N381 1.356 . S
C375 C374 1.363 . S
C375 C378 1.363 . S
N376 C378 1.356 . S
N376 H388 0.984 . S
N376 H389 0.985 . S
N377 C379 1.356 . S
N377 H382 0.984 . S
N377 H383 0.985 . S
C378 C372 1.379 . S
C378 C375 1.363 . S
C378 N376 1.356 . S
C379 C373 1.363 . S
C379 C374 1.379 . S
C379 N377 1.356 . S
N380 C372 1.356 . S
N380 H386 0.984 . S
N380 H387 0.984 . S
N381 C374 1.356 . S
N381 H384 0.984 . S
N381 H385 0.985 . S
H382 N377 0.984 . S
H383 N377 0.985 . S
H384 N381 0.984 . S
H385 N381 0.985 . S
H386 N380 0.984 . S
H387 N380 0.984 . S
H388 N376 0.984 . S
H389 N376 0.985 . S
C390 C391 1.343 1_455 S
C390 C396 1.379 . S
C390 N398 1.356 . S
C391 C390 1.343 1_655 S
C391 C397 1.383 . S
C392 C393 1.363 . S
C392 C397 1.379 . S
C392 N399 1.356 . S
C393 C392 1.363 . S
C393 C396 1.363 1_655 S
N394 C396 1.356 . S
N394 H406 0.984 . S
N394 H407 0.985 . S
N395 C397 1.356 . S
N395 H400 0.984 . S
N395 H401 0.985 . S
C396 C390 1.379 . S
C396 C393 1.363 1_455 S
C396 N394 1.356 . S
C397 C391 1.383 . S
C397 C392 1.379 . S
C397 N395 1.356 . S
N398 C390 1.356 . S
N398 H404 0.984 . S
N398 H405 0.984 . S
N399 C392 1.356 . S
N399 H402 0.984 . S
N399 H403 0.985 . S
H400 N395 0.984 . S
H401 N395 0.985 . S
H402 N399 0.984 . S
H403 N399 0.985 . S
H404 N398 0.984 . S
H405 N398 0.984 . S
H406 N394 0.984 . S
H407 N394 0.985 . S
C408 C409 1.363 . S
C408 C414 1.379 . S
C408 N416 1.356 1_554 S
C409 C408 1.363 . S
C409 C415 1.363 . S
C410 C411 1.363 . S
C410 C415 1.379 . S
C410 N417 1.356 . S
C411 C410 1.363 . S
C411 C414 1.363 . S
N412 C414 1.356 . S
N412 H424 0.984 1_554 S
N412 H425 0.985 . S
N413 C415 1.356 1_455 S
N413 H418 0.984 . S
N413 H419 0.985 . S
C414 C408 1.379 . S
C414 C411 1.363 . S
C414 N412 1.356 . S
C415 C409 1.363 . S
C415 C410 1.379 . S
C415 N413 1.356 1_655 S
N416 C408 1.356 1_556 S
N416 H422 0.984 . S
N416 H423 0.984 1_655 S
N417 C410 1.356 . S
N417 H420 0.984 . S
N417 H421 0.985 . S
H418 N413 0.984 . S
H419 N413 0.985 . S
H420 N417 0.984 . S
H421 N417 0.985 . S
H422 N416 0.984 . S
H423 N416 0.984 1_455 S
H424 N412 0.984 1_556 S
H425 N412 0.985 . S
C426 C427 1.363 . S
C426 C432 1.379 . S
C426 N434 1.356 . S
C427 C426 1.363 . S
C427 C433 1.363 1_565 S
C428 C429 1.363 . S
C428 C433 1.379 1_565 S
C428 N435 1.356 . S
C429 C428 1.363 . S
C429 C432 1.363 . S
N430 C432 1.356 . S
N430 H442 0.984 . S
N430 H443 0.985 . S
N431 C433 1.356 . S
N431 H436 0.984 . S
N431 H437 0.985 . S
C432 C426 1.379 . S
C432 C429 1.363 . S
C432 N430 1.356 . S
C433 C427 1.363 1_545 S
C433 C428 1.379 1_545 S
C433 N431 1.356 . S
N434 C426 1.356 . S
N434 H440 0.984 . S
N434 H441 0.984 . S
N435 C428 1.356 . S
N435 H438 0.984 . S
N435 H439 0.985 . S
H436 N431 0.984 . S
H437 N431 0.985 . S
H438 N435 0.984 . S
H439 N435 0.985 . S
H440 N434 0.984 . S
H441 N434 0.984 . S
H442 N430 0.984 . S
H443 N430 0.985 . S
C444 C445 1.363 . S
C444 C450 1.379 . S
C444 N452 1.356 . S
C445 C444 1.363 . S
C445 C451 1.363 . S
C446 C447 1.363 . S
C446 C451 1.379 . S
C446 N453 1.356 . S
C447 C446 1.363 . S
C447 C450 1.363 . S
N448 C450 1.356 . S
N448 H460 0.984 . S
N448 H461 0.985 . S
N449 C451 1.356 . S
N449 H454 0.984 . S
N449 H455 0.985 . S
C450 C444 1.379 . S
C450 C447 1.363 . S
C450 N448 1.356 . S
C451 C445 1.363 . S
C451 C446 1.379 . S
C451 N449 1.356 . S
N452 C444 1.356 . S
N452 H458 0.984 . S
N452 H459 0.984 . S
N453 C446 1.356 . S
N453 H456 0.984 . S
N453 H457 0.985 . S
H454 N449 0.984 . S
H455 N449 0.985 . S
H456 N453 0.984 . S
H457 N453 0.985 . S
H458 N452 0.984 . S
H459 N452 0.984 . S
H460 N448 0.984 . S
H461 N448 0.985 . S
C462 C463 1.363 . S
C462 C468 1.379 . S
C462 N470 1.356 . S
C463 C462 1.363 . S
C463 C469 1.363 . S
C464 C465 1.363 . S
C464 C469 1.379 . S
C464 N471 1.356 . S
C465 C464 1.363 . S
C465 C468 1.363 . S
N466 C468 1.356 . S
N466 H478 0.984 . S
N466 H479 0.985 . S
N467 C469 1.356 1_556 S
N467 H472 0.984 . S
N467 H473 0.985 . S
C468 C462 1.379 . S
C468 C465 1.363 . S
C468 N466 1.356 . S
C469 C463 1.363 . S
C469 C464 1.379 . S
C469 N467 1.356 1_554 S
N470 C462 1.356 . S
N470 H476 0.984 . S
N470 H477 0.984 . S
N471 C464 1.356 . S
N471 H474 0.984 . S
N471 H475 0.985 . S
H472 N467 0.984 . S
H473 N467 0.985 . S
H474 N471 0.984 . S
H475 N471 0.985 . S
H476 N470 0.984 . S
H477 N470 0.984 . S
H478 N466 0.984 . S
H479 N466 0.985 . S
C480 C481 1.363 . S
C480 C486 1.379 . S
C480 N488 1.356 . S
C481 C480 1.363 . S
C481 C487 1.363 . S
C482 C483 1.363 . S
C482 C487 1.379 . S
C482 N489 1.356 . S
C483 C482 1.363 . S
C483 C486 1.363 . S
N484 C486 1.356 . S
N484 H496 0.984 . S
N484 H497 0.985 . S
N485 C487 1.356 1_655 S
N485 H490 0.984 . S
N485 H491 0.985 . S
C486 C480 1.379 . S
C486 C483 1.363 . S
C486 N484 1.356 . S
C487 C481 1.363 . S
C487 C482 1.379 . S
C487 N485 1.356 1_455 S
N488 C480 1.356 . S
N488 H494 0.984 . S
N488 H495 0.984 1_455 S
N489 C482 1.356 . S
N489 H492 0.984 . S
N489 H493 0.985 . S
H490 N485 0.984 . S
H491 N485 0.985 . S
H492 N489 0.984 . S
H493 N489 0.985 . S
H494 N488 0.984 . S
H495 N488 0.984 1_655 S
H496 N484 0.984 . S
H497 N484 0.985 . S
C498 C499 1.363 . S
C498 C504 1.379 . S
C498 N506 1.356 . S
C499 C498 1.363 . S
C499 C505 1.363 . S
C500 C501 1.363 . S
C500 C505 1.379 . S
C500 N507 1.356 . S
C501 C500 1.363 . S
C501 C504 1.363 . S
N502 C504 1.356 . S
N502 H514 0.984 . S
N502 H515 0.985 . S
N503 C505 1.356 1_565 S
N503 H508 0.984 . S
N503 H509 0.985 . S
C504 C498 1.379 . S
C504 C501 1.363 . S
C504 N502 1.356 . S
C505 C499 1.363 . S
C505 C500 1.379 . S
C505 N503 1.356 1_545 S
N506 C498 1.356 . S
N506 H512 0.984 . S
N506 H513 1.005 . S
N507 C500 1.356 . S
N507 H510 0.984 . S
N507 H511 0.985 . S
H508 N503 0.984 . S
H509 N503 0.985 . S
H510 N507 0.984 . S
H511 N507 0.985 . S
H512 N506 0.984 . S
H513 N506 1.005 . S
H514 N502 0.984 . S
H515 N502 0.985 . S
C516 C517 1.363 . S
C516 C522 1.379 . S
C516 N524 1.356 . S
C517 C516 1.363 . S
C517 C523 1.363 . S
C518 C519 1.363 . S
C518 C523 1.379 . S
C518 N525 1.356 . S
C519 C518 1.363 . S
C519 C522 1.363 . S
N520 C522 1.356 . S
N520 H532 0.984 . S
N520 H533 0.985 . S
N521 C523 1.356 . S
N521 H526 0.984 . S
N521 H527 0.985 . S
C522 C516 1.379 . S
C522 C519 1.363 . S
C522 N520 1.356 . S
C523 C517 1.363 . S
C523 C518 1.379 . S
C523 N521 1.356 . S
N524 C516 1.356 . S
N524 H530 0.984 . S
N524 H531 0.984 . S
N525 C518 1.356 . S
N525 H528 0.984 . S
N525 H529 0.985 . S
H526 N521 0.984 . S
H527 N521 0.985 . S
H528 N525 0.984 . S
H529 N525 0.985 . S
H530 N524 0.984 . S
H531 N524 0.984 . S
H532 N520 0.984 . S
H533 N520 0.985 . S
C534 C535 1.363 . S
C534 C540 1.379 . S
C534 N542 1.356 . S
C535 C534 1.363 . S
C535 C541 1.363 . S
C536 C537 1.363 . S
C536 C541 1.379 . S
C536 N543 1.356 . S
C537 C536 1.363 . S
C537 C540 1.363 . S
N538 C540 1.356 . S
N538 H550 0.984 . S
N538 H551 0.985 . S
N539 C541 1.356 . S
N539 H544 0.984 . S
N539 H545 0.985 . S
C540 C534 1.379 . S
C540 C537 1.363 . S
C540 N538 1.356 . S
C541 C535 1.363 . S
C541 C536 1.379 . S
C541 N539 1.356 . S
N542 C534 1.356 . S
N542 H548 0.984 . S
N542 H549 0.984 . S
N543 C536 1.356 . S
N543 H546 0.984 . S
N543 H547 0.985 . S
H544 N539 0.984 . S
H545 N539 0.985 . S
H546 N543 0.984 . S
H547 N543 0.985 . S
H548 N542 0.984 . S
H549 N542 0.984 . S
H550 N538 0.984 . S
H551 N538 0.985 . S
C552 C553 1.363 1_655 S
C552 C558 1.379 . S
C552 N560 1.356 . S
C553 C552 1.363 1_455 S
C553 C559 1.363 1_556 S
C554 C555 1.363 1_554 S
C554 C559 1.379 . S
C554 N561 1.356 . S
C555 C554 1.363 1_556 S
C555 C558 1.363 1_455 S
N556 C558 1.356 . S
N556 H568 0.984 . S
N556 H569 0.985 . S
N557 C559 1.356 . S
N557 H562 0.984 . S
N557 H563 0.985 . S
C558 C552 1.379 . S
C558 C555 1.363 1_655 S
C558 N556 1.356 . S
C559 C553 1.363 1_554 S
C559 C554 1.379 . S
C559 N557 1.356 . S
N560 C552 1.356 . S
N560 H566 0.984 . S
N560 H567 0.984 . S
N561 C554 1.356 . S
N561 H564 0.984 . S
N561 H565 0.985 . S
H562 N557 0.984 . S
H563 N557 0.985 . S
H564 N561 0.984 . S
H565 N561 0.985 . S
H566 N560 0.984 . S
H567 N560 0.984 . S
H568 N556 0.984 . S
H569 N556 0.985 . S
C570 C571 1.363 1_554 S
C570 C576 1.379 . S
C570 N578 1.356 . S
C571 C570 1.363 1_556 S
C571 C577 1.363 1_545 S
C572 C573 1.363 1_565 S
C572 C577 1.379 . S
C572 N579 1.356 . S
C573 C572 1.363 1_545 S
C573 C576 1.363 1_556 S
N574 C576 1.356 . S
N574 H586 0.984 . S
N574 H587 0.985 . S
N575 C577 1.356 . S
N575 H580 0.984 . S
N575 H581 0.985 . S
C576 C570 1.379 . S
C576 C573 1.363 1_554 S
C576 N574 1.356 . S
C577 C571 1.363 1_565 S
C577 C572 1.379 . S
C577 N575 1.356 . S
N578 C570 1.356 . S
N578 H584 0.984 . S
N578 H585 0.984 . S
N579 C572 1.356 . S
N579 H582 0.984 . S
N579 H583 0.985 . S
H580 N575 0.984 . S
H581 N575 0.985 . S
H582 N579 0.984 . S
H583 N579 0.985 . S
H584 N578 0.984 . S
H585 N578 0.984 . S
H586 N574 0.984 . S
H587 N574 0.985 . S
C588 C589 1.363 . S
C588 C594 1.379 . S
C588 N596 1.356 . S
C589 C588 1.363 . S
C589 C595 1.363 1_556 S
C590 C591 1.363 1_554 S
C590 C595 1.379 . S
C590 N597 1.356 . S
C591 C590 1.363 1_556 S
C591 C594 1.363 . S
N592 C594 1.356 . S
N592 H604 0.984 . S
N592 H605 0.985 . S
N593 C595 1.356 . S
N593 H598 0.984 . S
N593 H599 0.985 . S
C594 C588 1.379 . S
C594 C591 1.363 . S
C594 N592 1.356 . S
C595 C589 1.363 1_554 S
C595 C590 1.379 . S
C595 N593 1.356 . S
N596 C588 1.356 . S
N596 H602 0.984 . S
N596 H603 0.984 . S
N597 C590 1.356 . S
N597 H600 0.984 . S
N597 H601 0.985 . S
H598 N593 0.984 . S
H599 N593 0.985 . S
H600 N597 0.984 . S
H601 N597 0.985 . S
H602 N596 0.984 . S
H603 N596 0.984 . S
H604 N592 0.984 . S
H605 N592 0.985 . S
C606 C607 1.363 . S
C606 C612 1.379 . S
C606 N614 1.356 . S
C607 C606 1.363 . S
C607 C613 1.363 . S
C608 C609 1.363 . S
C608 C613 1.379 . S
C608 N615 1.356 1_556 S
C609 C608 1.363 . S
C609 C612 1.363 . S
N610 C612 1.356 . S
N610 H622 0.984 . S
N610 H623 0.985 . S
N611 C613 1.356 1_554 S
N611 H616 0.984 . S
N611 H617 0.985 . S
C612 C606 1.379 . S
C612 C609 1.363 . S
C612 N610 1.356 . S
C613 C607 1.363 . S
C613 C608 1.379 . S
C613 N611 1.356 1_556 S
N614 C606 1.356 . S
N614 H620 0.984 . S
N614 H621 0.984 . S
N615 C608 1.356 1_554 S
N615 H618 0.984 . S
N615 H619 0.985 . S
H616 N611 0.984 . S
H617 N611 0.985 . S
H618 N615 0.984 . S
H619 N615 0.985 . S
H620 N614 0.984 . S
H621 N614 0.984 . S
H622 N610 0.984 . S
H623 N610 0.985 . S
C624 C625 1.363 1_455 S
C624 C630 1.379 . S
C624 N632 1.356 . S
C625 C624 1.363 1_655 S
C625 C631 1.363 . S
C626 C627 1.363 . S
C626 C631 1.379 . S
C626 N633 1.356 . S
C627 C626 1.363 . S
C627 C630 1.363 1_655 S
N628 C630 1.356 . S
N628 H640 0.984 . S
N628 H641 0.985 . S
N629 C631 1.356 . S
N629 H634 0.984 . S
N629 H635 0.985 1_556 S
C630 C624 1.379 . S
C630 C627 1.363 1_455 S
C630 N628 1.356 . S
C631 C625 1.363 . S
C631 C626 1.379 . S
C631 N629 1.356 . S
N632 C624 1.356 . S
N632 H638 0.984 . S
N632 H639 0.984 . S
N633 C626 1.356 . S
N633 H636 0.984 . S
N633 H637 0.985 1_556 S
H634 N629 0.984 . S
H635 N629 0.985 1_554 S
H636 N633 0.984 . S
H637 N633 0.985 1_554 S
H638 N632 0.984 . S
H639 N632 0.984 . S
H640 N628 0.984 . S
H641 N628 0.985 . S
C642 C643 1.363 1_545 S
C642 C648 1.379 . S
C642 N650 1.356 . S
C643 C642 1.363 1_565 S
C643 C649 1.363 . S
C644 C645 1.363 . S
C644 C649 1.379 . S
C644 N651 1.356 . S
C645 C644 1.363 . S
C645 C648 1.363 1_565 S
N646 C648 1.356 . S
N646 H658 0.984 . S
N646 H659 0.985 . S
N647 C649 1.356 . S
N647 H652 0.984 . S
N647 H653 0.985 1_556 S
C648 C642 1.379 . S
C648 C645 1.363 1_545 S
C648 N646 1.356 . S
C649 C643 1.363 . S
C649 C644 1.379 . S
C649 N647 1.356 . S
N650 C642 1.356 . S
N650 H656 0.984 . S
N650 H657 0.984 . S
N651 C644 1.356 . S
N651 H654 0.984 . S
N651 H655 0.985 1_556 S
H652 N647 0.984 . S
H653 N647 0.985 1_554 S
H654 N651 0.984 . S
H655 N651 0.985 1_554 S
H656 N650 0.984 . S
H657 N650 0.984 . S
H658 N646 0.984 . S
H659 N646 0.985 . S
C660 C661 1.363 . S
C660 C666 1.379 . S
C660 N668 1.356 . S
C661 C660 1.363 . S
C661 C667 1.363 . S
C662 C663 1.363 . S
C662 C667 1.379 . S
C662 N669 1.356 . S
C663 C662 1.363 . S
C663 C666 1.363 . S
N664 C666 1.356 . S
N664 H676 0.984 1_556 S
N664 H677 0.985 . S
N665 C667 1.356 . S
N665 H670 0.984 . S
N665 H671 0.985 . S
C666 C660 1.379 . S
C666 C663 1.363 . S
C666 N664 1.356 . S
C667 C661 1.363 . S
C667 C662 1.379 . S
C667 N665 1.356 . S
N668 C660 1.356 . S
N668 H674 0.984 1_556 S
N668 H675 0.984 . S
N669 C662 1.356 . S
N669 H672 0.984 . S
N669 H673 0.985 . S
H670 N665 0.984 . S
H671 N665 0.985 . S
H672 N669 0.984 . S
H673 N669 0.985 . S
H674 N668 0.984 1_554 S
H675 N668 0.984 . S
H676 N664 0.984 1_554 S
H677 N664 0.985 . S
C678 C679 1.363 . S
C678 C684 1.379 . S
C678 N686 1.356 . S
C679 C678 1.363 . S
C679 C685 1.363 . S
C680 C681 1.363 . S
C680 C685 1.379 . S
C680 N687 1.356 . S
C681 C680 1.363 . S
C681 C684 1.363 . S
N682 C684 1.356 . S
N682 H694 0.984 . S
N682 H695 0.985 . S
N683 C685 1.356 . S
N683 H688 0.984 . S
N683 H689 0.985 1_556 S
C684 C678 1.379 . S
C684 C681 1.363 . S
C684 N682 1.356 . S
C685 C679 1.363 . S
C685 C680 1.379 . S
C685 N683 1.356 . S
N686 C678 1.356 . S
N686 H692 0.984 . S
N686 H693 0.984 . S
N687 C680 1.356 . S
N687 H690 0.984 . S
N687 H691 0.985 1_556 S
H688 N683 0.984 . S
H689 N683 0.985 1_554 S
H690 N687 0.984 . S
H691 N687 0.985 1_554 S
H692 N686 0.984 . S
H693 N686 0.984 . S
H694 N682 0.984 . S
H695 N682 0.985 . S
C265 N80 2.007 1_545 S
C267 C113 2.183 1_545 S
C285 C153 2.204 . S
C283 N93 2.029 . S
C303 C193 2.218 . S
C301 N54 2.049 . S
C321 C233 2.199 1_455 S
C319 N67 2.025 1_455 S
C339 C122 2.186 1_564 S
C337 N28 2.011 1_545 S
C355 N41 2.027 . S
C357 C162 2.205 1_554 S
C373 N2 2.043 . S
C375 C202 2.217 1_554 S
C391 N15 2.026 . S
C393 C242 2.200 1_654 S
C411 C119 0.838 . S
C409 N70 0.859 . S
C429 C159 0.834 . S
C427 N83 0.854 . S
C447 C199 0.828 . S
C445 N96 0.849 . S
C463 N57 0.854 . S
C465 C239 0.828 . S
C481 N18 0.863 1_455 S
C483 C110 0.841 . S
C501 C150 0.834 . S
C499 N31 0.856 1_545 S
C519 C190 0.828 . S
C517 N44 0.852 . S
C535 N5 0.857 . S
C537 C230 0.832 . S
C553 N66 2.430 1_455 S
C555 C123 2.532 . S
C571 N79 2.385 1_545 S
C573 C163 2.487 . S
C591 C203 2.470 . S
C589 N92 2.375 . S
C609 C243 2.519 . S
C607 N53 2.417 . S
C625 N14 2.417 . S
C627 C114 2.540 . S
C645 C154 2.487 . S
C643 N27 2.371 . S
C663 C194 2.471 . S
C661 N40 2.353 . S
C679 N1 2.399 . S
C681 C234 2.522 . S
