# Generated by pormake.
# Topology zzz, (3,6)-cn, num edge types: 1
# Building blocks:
#     Node 0, Type 0, BuildingBlock: CUQRIR_clean_linker_1, # of connection points: 3
#     Node 1, Type 0, BuildingBlock: CUQRIR_clean_linker_1, # of connection points: 3
#     Node 2, Type 0, BuildingBlock: CUQRIR_clean_linker_1, # of connection points: 3
#     Node 3, Type 0, BuildingBlock: CUQRIR_clean_linker_1, # of connection points: 3
#     Node 4, Type 0, BuildingBlock: CUQRIR_clean_linker_1, # of connection points: 3
#     Node 5, Type 0, BuildingBlock: CUQRIR_clean_linker_1, # of connection points: 3
#     Node 6, Type 0, BuildingBlock: CUQRIR_clean_linker_1, # of connection points: 3
#     Node 7, Type 0, BuildingBlock: CUQRIR_clean_linker_1, # of connection points: 3
#     Node 8, Type 1, BuildingBlock: VOLQOD_clean_sbu_1, # of connection points: 6
#     Node 9, Type 1, BuildingBlock: VOLQOD_clean_sbu_1, # of connection points: 6
#     Node 10, Type 1, BuildingBlock: VOLQOD_clean_sbu_1, # of connection points: 6
#     Node 11, Type 1, BuildingBlock: VOLQOD_clean_sbu_1, # of connection points: 6
#     Edge 12, Type (0, 1), BuildingBlock: CIFDUS_clean_linker_0, # of connection points: 2
#     Edge 13, Type (0, 1), BuildingBlock: CIFDUS_clean_linker_0, # of connection points: 2
#     Edge 14, Type (0, 1), BuildingBlock: CIFDUS_clean_linker_0, # of connection points: 2
#     Edge 15, Type (0, 1), BuildingBlock: CIFDUS_clean_linker_0, # of connection points: 2
#     Edge 16, Type (0, 1), BuildingBlock: CIFDUS_clean_linker_0, # of connection points: 2
#     Edge 17, Type (0, 1), BuildingBlock: CIFDUS_clean_linker_0, # of connection points: 2
#     Edge 18, Type (0, 1), BuildingBlock: CIFDUS_clean_linker_0, # of connection points: 2
#     Edge 19, Type (0, 1), BuildingBlock: CIFDUS_clean_linker_0, # of connection points: 2
#     Edge 20, Type (0, 1), BuildingBlock: CIFDUS_clean_linker_0, # of connection points: 2
#     Edge 21, Type (0, 1), BuildingBlock: CIFDUS_clean_linker_0, # of connection points: 2
#     Edge 22, Type (0, 1), BuildingBlock: CIFDUS_clean_linker_0, # of connection points: 2
#     Edge 23, Type (0, 1), BuildingBlock: CIFDUS_clean_linker_0, # of connection points: 2
#     Edge 24, Type (0, 1), BuildingBlock: CIFDUS_clean_linker_0, # of connection points: 2
#     Edge 25, Type (0, 1), BuildingBlock: CIFDUS_clean_linker_0, # of connection points: 2
#     Edge 26, Type (0, 1), BuildingBlock: CIFDUS_clean_linker_0, # of connection points: 2
#     Edge 27, Type (0, 1), BuildingBlock: CIFDUS_clean_linker_0, # of connection points: 2
#     Edge 28, Type (0, 1), BuildingBlock: CIFDUS_clean_linker_0, # of connection points: 2
#     Edge 29, Type (0, 1), BuildingBlock: CIFDUS_clean_linker_0, # of connection points: 2
#     Edge 30, Type (0, 1), BuildingBlock: CIFDUS_clean_linker_0, # of connection points: 2
#     Edge 31, Type (0, 1), BuildingBlock: CIFDUS_clean_linker_0, # of connection points: 2
#     Edge 32, Type (0, 1), BuildingBlock: CIFDUS_clean_linker_0, # of connection points: 2
#     Edge 33, Type (0, 1), BuildingBlock: CIFDUS_clean_linker_0, # of connection points: 2
#     Edge 34, Type (0, 1), BuildingBlock: CIFDUS_clean_linker_0, # of connection points: 2
#     Edge 35, Type (0, 1), BuildingBlock: CIFDUS_clean_linker_0, # of connection points: 2
# Relax obj value: 0.213
# Max RMSD: 0.241
# Mean RMSD: 0.126
data_MOF--net-zzz--node1-VOLQOD_clean_sbu_1--node2-CUQRIR_clean_linker_1--edge1-CIFDUS_clean_linker_0
_symmetry_space_group_name_H-M    P1
_symmetry_Int_Tables_number       1
_symmetry_cell_setting            triclinic
loop_
_symmetry_equiv_pos_as_xyz
'x, y, z'
_cell_length_a     42.104682
_cell_length_b     41.917338
_cell_length_c     13.647723
_cell_angle_alpha  90.439294
_cell_angle_beta   89.699182
_cell_angle_gamma 90.722757
loop_
_atom_site_label
_atom_site_type_symbol
_atom_site_fract_x
_atom_site_fract_y
_atom_site_fract_z
_atom_type_partial_charge
C0 C 0.75382 0.51365 0.16226 0.0
N1 N 0.78516 0.508 0.17367 0.0
N2 N 0.74497 0.50746 0.06836 0.0
C3 C 0.73175 0.52372 0.2431 0.0
C4 C 0.7721 0.49816 0.02337 0.0
N5 N 0.79636 0.49824 0.08753 0.0
C6 C 0.77548 0.49176 0.91509 0.0
H7 H 0.74045 0.51559 0.31522 0.0
H8 H 0.70742 0.51414 0.23027 0.0
H9 H 0.73069 0.55015 0.2447 0.0
H10 H 0.75759 0.50509 0.87291 0.0
H11 H 0.77184 0.46588 0.90093 0.0
H12 H 0.79957 0.49859 0.88867 0.0
C13 C 0.00355 0.73923 0.17618 0.0
N14 N 0.00765 0.7712 0.18267 0.0
N15 N 0.00646 0.72936 0.08138 0.0
C16 C 0.99573 0.71805 0.26138 0.0
C17 C 0.01277 0.75663 0.03154 0.0
N18 N 0.01348 0.78188 0.09324 0.0
C19 C 0.01834 0.75882 0.92278 0.0
H20 H 0.01815 0.70904 0.29256 0.0
H21 H 0.98094 0.69733 0.23759 0.0
H22 H 0.98309 0.73149 0.31972 0.0
H23 H 0.02926 0.73671 0.89374 0.0
H24 H 0.03403 0.77943 0.90497 0.0
H25 H 0.99527 0.76236 0.88577 0.0
C26 C 0.75338 0.01615 0.16641 0.0
N27 N 0.72298 0.0253 0.17979 0.0
N28 N 0.76996 0.03841 0.11512 0.0
C29 C 0.76614 0.9844 0.1966 0.0
C30 C 0.74852 0.06166 0.09946 0.0
N31 N 0.71966 0.05356 0.13723 0.0
C32 C 0.75562 0.09163 0.04266 0.0
H33 H 0.79248 0.98433 0.19375 0.0
H34 H 0.75671 0.96565 0.14643 0.0
H35 H 0.75805 0.97849 0.27183 0.0
H36 H 0.7605 0.08534 0.96493 0.0
H37 H 0.77715 0.10362 0.07224 0.0
H38 H 0.73579 0.10875 0.04703 0.0
C39 C 0.51131 0.75867 0.22833 0.0
N40 N 0.51088 0.72637 0.22514 0.0
N41 N 0.50439 0.77051 0.13884 0.0
C42 C 0.51771 0.77849 0.31813 0.0
C43 C 0.49992 0.74445 0.08146 0.0
N44 N 0.50369 0.71775 0.13399 0.0
C45 C 0.49274 0.74508 0.97363 0.0
H46 H 0.50834 0.76633 0.38439 0.0
H47 H 0.507 0.80243 0.31169 0.0
H48 H 0.54377 0.78155 0.32649 0.0
H49 H 0.50105 0.7677 0.93987 0.0
H50 H 0.46666 0.74297 0.96377 0.0
H51 H 0.50393 0.72464 0.9352 0.0
C52 C 0.26167 0.51608 0.15334 0.0
N53 N 0.23022 0.51946 0.1371 0.0
N54 N 0.26771 0.51559 0.25122 0.0
C55 C 0.28641 0.51483 0.07373 0.0
C56 C 0.23862 0.51869 0.29334 0.0
N57 N 0.21611 0.52144 0.22411 0.0
C58 C 0.23153 0.5148 0.40103 0.0
H59 H 0.28988 0.48966 0.05086 0.0
H60 H 0.30941 0.52476 0.10003 0.0
H61 H 0.27855 0.52834 0.00875 0.0
H62 H 0.234 0.53835 0.43804 0.0
H63 H 0.24827 0.49799 0.43509 0.0
H64 H 0.20694 0.5059 0.41356 0.0
C65 C 0.05533 0.24564 0.14864 0.0
N66 N 0.05337 0.21356 0.13876 0.0
N67 N 0.04991 0.25435 0.2431 0.0
C68 C 0.05959 0.26842 0.06534 0.0
C69 C 0.04382 0.22652 0.28935 0.0
N70 N 0.04573 0.20181 0.22581 0.0
C71 C 0.03314 0.22388 0.3944 0.0
H72 H 0.07496 0.25787 0.00759 0.0
H73 H 0.06999 0.29138 0.09153 0.0
H74 H 0.03602 0.27314 0.03286 0.0
H75 H 0.00776 0.23053 0.39973 0.0
H76 H 0.04695 0.2406 0.4415 0.0
H77 H 0.03589 0.19924 0.42199 0.0
C78 C 0.25387 0.00932 0.17291 0.0
N79 N 0.28596 0.0078 0.17194 0.0
N80 N 0.24231 0.00381 0.26459 0.0
C81 C 0.23411 0.01668 0.08494 0.0
C82 C 0.26864 0.99818 0.3184 0.0
N83 N 0.29498 0.00056 0.26194 0.0
C84 C 0.26857 0.99006 0.42579 0.0
H85 H 0.21196 0.02895 0.10696 0.0
H86 H 0.22764 0.994 0.04718 0.0
H87 H 0.24774 0.03175 0.03263 0.0
H88 H 0.24696 0.97605 0.44549 0.0
H89 H 0.26876 0.01251 0.46936 0.0
H90 H 0.28975 0.97635 0.44657 0.0
C91 C 0.46336 0.23775 0.13926 0.0
N92 N 0.45991 0.26987 0.13712 0.0
N93 N 0.45874 0.22675 0.23171 0.0
C94 C 0.47394 0.21755 0.05406 0.0
C95 C 0.4523 0.2534 0.28464 0.0
N96 N 0.45343 0.27949 0.22777 0.0
C97 C 0.44617 0.2545 0.39334 0.0
H98 H 0.45655 0.19788 0.04176 0.0
H99 H 0.49711 0.20664 0.07141 0.0
H100 H 0.47618 0.23155 0.98573 0.0
H101 H 0.4687 0.26011 0.432 0.0
H102 H 0.43654 0.23135 0.41992 0.0
H103 H 0.42916 0.27373 0.41124 0.0
O104 O 0.07229 0.0077 0.6405 0.0
Zn105 Zn 0.0324 0.0062 0.72474 0.0
O106 O 0.9941 0.99806 0.64384 0.0
Zn107 Zn 0.96647 0.03476 0.6488 0.0
Zn108 Zn 0.00751 0.98893 0.51003 0.0
Zn109 Zn 0.96857 0.962 0.68919 0.0
O110 O 0.92466 0.02597 0.71594 0.0
O111 O 0.92534 0.97384 0.74169 0.0
O112 O 0.03018 0.04961 0.79306 0.0
O113 O 0.98602 0.06917 0.73024 0.0
O114 O 0.96133 0.05326 0.5153 0.0
O115 O 0.99036 0.02183 0.41929 0.0
O116 O 0.99602 0.94411 0.46929 0.0
O117 O 0.03701 0.9706 0.82474 0.0
O118 O 0.96482 0.92623 0.58923 0.0
O119 O 0.99168 0.94377 0.80024 0.0
C120 C 0.07733 0.00147 0.55024 0.0
C121 C 0.91179 0.00069 0.74948 0.0
C122 C 0.97313 0.04631 0.43184 0.0
C123 C 0.01035 0.07216 0.78435 0.0
C124 C 0.9787 0.92229 0.50705 0.0
C125 C 0.01761 0.94804 0.84613 0.0
O126 O 0.05475 0.99311 0.49379 0.0
O127 O 0.49812 0.07832 0.64904 0.0
Zn128 Zn 0.50172 0.04443 0.75304 0.0
O129 O 0.51122 0.00281 0.68976 0.0
Zn130 Zn 0.47743 0.97201 0.71849 0.0
Zn131 Zn 0.51547 0.00743 0.54782 0.0
Zn132 Zn 0.55077 0.98593 0.73828 0.0
O133 O 0.49309 0.93501 0.79725 0.0
O134 O 0.54455 0.94552 0.81515 0.0
O135 O 0.45968 0.0425 0.82978 0.0
O136 O 0.44385 0.99267 0.80022 0.0
O137 O 0.45466 0.95753 0.59608 0.0
O138 O 0.48072 0.98388 0.47958 0.0
O139 O 0.55859 0.99458 0.49564 0.0
O140 O 0.53833 0.05955 0.83991 0.0
O141 O 0.58312 0.97951 0.63066 0.0
O142 O 0.57081 0.01835 0.82478 0.0
C143 C 0.50176 0.07813 0.55627 0.0
C144 C 0.52014 0.92815 0.83217 0.0
C145 C 0.45814 0.96554 0.50685 0.0
C146 C 0.43926 0.0199 0.83917 0.0
C147 C 0.5832 0.9844 0.53868 0.0
C148 C 0.56434 0.04578 0.85906 0.0
O149 O 0.50877 0.05288 0.50921 0.0
O150 O 0.42399 0.50035 0.67675 0.0
Zn151 Zn 0.46416 0.49429 0.75704 0.0
O152 O 0.50268 0.49502 0.67285 0.0
Zn153 Zn 0.52754 0.45664 0.68866 0.0
Zn154 Zn 0.49002 0.49768 0.53745 0.0
Zn155 Zn 0.52998 0.53168 0.70236 0.0
O156 O 0.57108 0.46631 0.74214 0.0
O157 O 0.57392 0.51924 0.74446 0.0
O158 O 0.46059 0.45122 0.82576 0.0
O159 O 0.50537 0.4273 0.78195 0.0
O160 O 0.53023 0.43124 0.5633 0.0
O161 O 0.50386 0.46063 0.45727 0.0
O162 O 0.50226 0.53953 0.48002 0.0
O163 O 0.46573 0.53067 0.85684 0.0
O164 O 0.53003 0.565 0.5948 0.0
O165 O 0.51182 0.55377 0.81715 0.0
C166 C 0.41997 0.49933 0.58431 0.0
C167 C 0.58621 0.49217 0.76039 0.0
C168 C 0.51888 0.43551 0.47824 0.0
C169 C 0.47912 0.42732 0.82854 0.0
C170 C 0.5168 0.56436 0.51107 0.0
C171 C 0.48709 0.55205 0.8706 0.0
O172 O 0.44322 0.49684 0.5255 0.0
O173 O 0.94982 0.51869 0.5198 0.0
Zn174 Zn 0.99293 0.52839 0.58408 0.0
O175 O 0.00746 0.49085 0.65984 0.0
Zn176 Zn 0.01029 0.50166 0.79719 0.0
Zn177 Zn 0.97853 0.45483 0.64184 0.0
Zn178 Zn 0.04935 0.47676 0.62118 0.0
O179 O 0.05444 0.50063 0.84935 0.0
O180 O 0.08352 0.48684 0.72038 0.0
O181 O 0.98815 0.56757 0.67324 0.0
O182 O 0.99911 0.54685 0.81807 0.0
O183 O 0.97932 0.47648 0.87642 0.0
O184 O 0.9565 0.44373 0.76852 0.0
O185 O 0.99981 0.4166 0.58035 0.0
O186 O 0.02586 0.53908 0.47755 0.0
O187 O 0.05081 0.43065 0.58224 0.0
O188 O 0.06092 0.50065 0.5033 0.0
C189 C 0.93397 0.49258 0.51288 0.0
C190 C 0.08129 0.49606 0.80905 0.0
C191 C 0.95873 0.45508 0.85509 0.0
C192 C 0.99152 0.57043 0.76579 0.0
C193 C 0.02889 0.41039 0.56378 0.0
C194 C 0.05113 0.52421 0.45447 0.0
O195 O 0.94349 0.46718 0.55309 0.0
H196 H 0.21828 0.03434 0.42123 0.0
H197 H 0.19347 0.97059 0.18423 0.0
H198 H 0.1394 0.96507 0.24989 0.0
H199 H 0.10023 0.9762 0.38001 0.0
H200 H 0.12711 0.03586 0.62593 0.0
H201 H 0.17976 0.04422 0.55375 0.0
C202 C 0.20104 0.01908 0.38457 0.0
C203 C 0.20977 0.00283 0.29824 0.0
C204 C 0.17061 0.01488 0.42537 0.0
C205 C 0.1871 0.98367 0.24997 0.0
C206 C 0.15636 0.98023 0.28819 0.0
C207 C 0.1176 0.99103 0.41788 0.0
C208 C 0.10971 0.00535 0.50839 0.0
C209 C 0.148 0.99537 0.37665 0.0
C210 C 0.1326 0.02434 0.55667 0.0
C211 C 0.16265 0.0293 0.51515 0.0
H212 H 0.49982 0.21553 0.37533 0.0
H213 H 0.43487 0.16912 0.17611 0.0
H214 H 0.44475 0.11761 0.25423 0.0
H215 H 0.46896 0.08683 0.3885 0.0
H216 H 0.52678 0.13599 0.60291 0.0
H217 H 0.52182 0.18584 0.51233 0.0
C218 C 0.48761 0.19415 0.34981 0.0
C219 C 0.46653 0.196 0.27069 0.0
C220 C 0.4918 0.16536 0.39904 0.0
C221 C 0.45152 0.16809 0.23608 0.0
C222 C 0.45687 0.13881 0.28157 0.0
C223 C 0.48048 0.10853 0.41483 0.0
C224 C 0.49826 0.10799 0.50177 0.0
C225 C 0.4765 0.1373 0.36437 0.0
C226 C 0.51285 0.1361 0.53636 0.0
C227 C 0.51014 0.16446 0.48446 0.0
H228 H 0.29076 0.54584 0.41064 0.0
H229 H 0.31035 0.47015 0.20447 0.0
H230 H 0.35936 0.45808 0.29083 0.0
H231 H 0.39637 0.46889 0.42592 0.0
H232 H 0.37342 0.53973 0.64482 0.0
H233 H 0.32484 0.55277 0.55592 0.0
C234 C 0.30557 0.52644 0.38553 0.0
C235 C 0.2972 0.50926 0.30034 0.0
C236 C 0.33262 0.51835 0.43913 0.0
C237 C 0.31679 0.48443 0.2678 0.0
C238 C 0.34452 0.47716 0.31815 0.0
C239 C 0.38044 0.48688 0.45473 0.0
C240 C 0.38829 0.5034 0.54143 0.0
C241 C 0.35258 0.49392 0.40399 0.0
C242 C 0.36756 0.52652 0.57867 0.0
C243 C 0.34005 0.53419 0.52732 0.0
H244 H 0.08615 0.28637 0.37037 0.0
H245 H 0.9993 0.29038 0.20728 0.0
H246 H 0.984 0.33903 0.29628 0.0
H247 H 0.99466 0.37884 0.42591 0.0
H248 H 0.08276 0.37598 0.58519 0.0
H249 H 0.09832 0.32813 0.4938 0.0
C250 C 0.06425 0.29848 0.3536 0.0
C251 C 0.0439 0.28547 0.28247 0.0
C252 C 0.05567 0.32605 0.40575 0.0
C253 C 0.01534 0.30064 0.26105 0.0
C254 C 0.00653 0.32809 0.3126 0.0
C255 C 0.01711 0.3675 0.44115 0.0
C256 C 0.03733 0.38046 0.51318 0.0
C257 C 0.02627 0.34066 0.38634 0.0
C258 C 0.06672 0.36615 0.53062 0.0
C259 C 0.07568 0.33895 0.47814 0.0
H260 H 0.78263 0.99179 0.98596 0.0
H261 H 0.82243 0.0758 0.12353 0.0
H262 H 0.86925 0.07281 0.01639 0.0
H263 H 0.89822 0.04666 0.8816 0.0
H264 H 0.861 0.95957 0.7545 0.0
H265 H 0.81369 0.96308 0.85963 0.0
C266 C 0.80191 0.009 0.99339 0.0
C267 C 0.79918 0.03415 0.06157 0.0
C268 C 0.82888 0.0067 0.93281 0.0
C269 C 0.82399 0.05659 0.07034 0.0
C270 C 0.85067 0.05482 0.0093 0.0
C271 C 0.87956 0.02864 0.87641 0.0
C272 C 0.88261 0.00324 0.80923 0.0
C273 C 0.85315 0.03022 0.93941 0.0
C274 C 0.85886 0.9795 0.80501 0.0
C275 C 0.83194 0.98146 0.86526 0.0
H276 H 0.55326 0.80703 0.08319 0.0
H277 H 0.45179 0.80452 0.11686 0.0
H278 H 0.44747 0.85459 0.02599 0.0
H279 H 0.47246 0.89595 0.92442 0.0
H280 H 0.57435 0.89794 0.88706 0.0
H281 H 0.57886 0.85114 0.99151 0.0
C282 C 0.53046 0.81823 0.07287 0.0
C283 C 0.50288 0.80293 0.10742 0.0
C284 C 0.52828 0.84634 0.01815 0.0
C285 C 0.47319 0.81665 0.09206 0.0
C286 C 0.47078 0.84489 0.03925 0.0
C287 C 0.49567 0.88617 0.93905 0.0
C288 C 0.52297 0.90014 0.89676 0.0
C289 C 0.49811 0.85943 -0.00042 0.0
C290 C 0.55292 0.8875 0.91804 0.0
C291 C 0.55554 0.86078 0.97795 0.0
H292 H 0.7149 0.46073 0.97161 0.0
H293 H 0.70651 0.55845 0.06537 0.0
H294 H 0.65653 0.56299 0.97459 0.0
H295 H 0.61628 0.53918 0.86461 0.0
H296 H 0.62553 0.44113 0.77035 0.0
H297 H 0.67467 0.43682 0.86304 0.0
C298 C 0.70194 0.48291 0.97203 0.0
C299 C 0.71407 0.50924 0.02453 0.0
C300 C 0.67382 0.48537 0.91832 0.0
C301 C 0.69722 0.53787 0.02604 0.0
C302 C 0.66894 0.54049 0.9734 0.0
C303 C 0.62923 0.51698 0.86343 0.0
C304 C 0.61735 0.49058 0.80989 0.0
C305 C 0.65724 0.51448 0.91826 0.0
C306 C 0.63417 0.46183 0.81058 0.0
C307 C 0.6622 0.45929 0.8639 0.0
H308 H 0.97121 0.71056 0.92702 0.0
H309 H 0.03594 0.6769 0.14543 0.0
H310 H 0.03503 0.62377 0.06988 0.0
H311 H 0.01886 0.58835 0.93593 0.0
H312 H 0.9588 0.62313 0.70581 0.0
H313 H 0.95564 0.675 0.78973 0.0
C314 C 0.98525 0.69158 0.95739 0.0
C315 C 0.00371 0.69754 0.04144 0.0
C316 C 0.98577 0.66164 0.91066 0.0
C317 C 0.02125 0.67267 0.0817 0.0
C318 C 0.02099 0.64248 0.03785 0.0
C319 C 0.00483 0.60716 0.90426 0.0
C320 C 0.98891 0.60187 0.81496 0.0
C321 C 0.00375 0.63689 0.95153 0.0
C322 C 0.9713 0.62666 0.7743 0.0
C323 C 0.96943 0.65622 0.82241 0.0
H324 H 0.98681 0.1837 0.27509 0.0
H325 H 0.08006 0.14861 0.20857 0.0
H326 H 0.06195 0.09378 0.23964 0.0
H327 H 0.02221 0.0579 0.31014 0.0
H328 H 0.93085 0.09402 0.39856 0.0
H329 H 0.94485 0.14626 0.33085 0.0
C330 C 0.00294 0.16385 0.26771 0.0
C331 C 0.03475 0.16973 0.24193 0.0
C332 C 0.9925 0.13275 0.28834 0.0
C333 C 0.05557 0.14423 0.22949 0.0
C334 C 0.04518 0.11307 0.24695 0.0
C335 C 0.00484 0.07681 0.31133 0.0
C336 C 0.9756 0.07223 0.35983 0.0
C337 C 0.01396 0.10721 0.27929 0.0
C338 C 0.9535 0.09706 0.36154 0.0
C339 C 0.9617 0.12702 0.32428 0.0
H340 H 0.32275 0.94692 0.32267 0.0
H341 H 0.3388 0.04698 0.27163 0.0
H342 H 0.39425 0.04224 0.32033 0.0
H343 H 0.43576 0.01139 0.39461 0.0
H344 H 0.41741 0.91425 0.48188 0.0
H345 H 0.36523 0.91552 0.40177 0.0
C346 C 0.33864 0.96747 0.32257 0.0
C347 C 0.32732 0.99716 0.29225 0.0
C348 C 0.36985 0.9649 0.35713 0.0
C349 C 0.34759 0.02386 0.29223 0.0
C350 C 0.37907 0.02116 0.32081 0.0
C351 C 0.42075 0.99013 0.39361 0.0
C352 C 0.4305 0.96253 0.44203 0.0
C353 C 0.39024 0.99195 0.35493 0.0
C354 C 0.41043 0.93555 0.44348 0.0
C355 C 0.38058 0.93644 0.39873 0.0
H356 H 0.50966 0.29853 0.29325 0.0
H357 H 0.41449 0.32984 0.24057 0.0
H358 H 0.42887 0.38392 0.29683 0.0
H359 H 0.46741 0.42039 0.37268 0.0
H360 H 0.56087 0.38726 0.4457 0.0
H361 H 0.54886 0.33563 0.36758 0.0
C362 C 0.4923 0.31742 0.29469 0.0
C363 C 0.46121 0.31082 0.26363 0.0
C364 C 0.50063 0.34786 0.3294 0.0
C365 C 0.4385 0.33488 0.2646 0.0
C366 C 0.44679 0.36559 0.2963 0.0
C367 C 0.48549 0.40219 0.36899 0.0
C368 C 0.51517 0.40762 0.41327 0.0
C369 C 0.47769 0.37219 0.32983 0.0
C370 C 0.53804 0.38358 0.41083 0.0
C371 C 0.53104 0.35407 0.36725 0.0
H372 H 0.18031 0.56811 0.29816 0.0
H373 H 0.17717 0.47229 0.18349 0.0
H374 H 0.12014 0.46845 0.21887 0.0
H375 H 0.07441 0.48907 0.30843 0.0
H376 H 0.07802 0.58327 0.4359 0.0
H377 H 0.13102 0.59216 0.36519 0.0
C378 C 0.16678 0.54667 0.28054 0.0
C379 C 0.18242 0.52026 0.24032 0.0
C380 C 0.13417 0.5447 0.30193 0.0
C381 C 0.1652 0.49257 0.21573 0.0
C382 C 0.13277 0.49052 0.23537 0.0
C383 C 0.08629 0.51208 0.31658 0.0
C384 C 0.07271 0.53544 0.37725 0.0
C385 C 0.11731 0.51603 0.28148 0.0
C386 C 0.08804 0.56513 0.38841 0.0
C387 C 0.11861 0.56987 0.34996 0.0
H388 H 0.06095 0.82039 0.03128 0.0
H389 H 0.96107 0.81631 0.09839 0.0
H390 H 0.95518 0.8718 0.04829 0.0
H391 H 0.97692 0.91824 0.96555 0.0
H392 H 0.07584 0.92215 0.88348 0.0
H393 H 0.08431 0.87048 0.96235 0.0
C394 C 0.03811 0.83201 0.03478 0.0
C395 C 0.01126 0.81472 0.06631 0.0
C396 C 0.03494 0.86373 0.00411 0.0
C397 C 0.98174 0.82955 0.07303 0.0
C398 C 0.97847 0.8611 0.04482 0.0
C399 C 0.00052 0.90812 0.9671 0.0
C400 C 0.02563 0.92354 0.91806 0.0
C401 C 0.00469 0.87804 0.0077 0.0
C402 C 0.0562 0.91061 0.92129 0.0
C403 C 0.06089 0.88089 0.96492 0.0
H404 H 0.70277 0.06817 0.9548 0.0
H405 H 0.66821 0.06673 0.25217 0.0
H406 H 0.61336 0.06949 0.19278 0.0
H407 H 0.57625 0.06059 0.05179 0.0
H408 H 0.61325 0.06871 0.75778 0.0
H409 H 0.66661 0.07739 0.82077 0.0
C410 C 0.68357 0.07047 0.00739 0.0
C411 C 0.68948 0.06634 0.10751 0.0
C412 C 0.65257 0.07325 0.97304 0.0
C413 C 0.66407 0.06895 0.17431 0.0
C414 C 0.63275 0.07052 0.14036 0.0
C415 C 0.59581 0.0659 0.00228 0.0
C416 C 0.59118 0.06374 0.90052 0.0
C417 C 0.62669 0.0709 0.03923 0.0
C418 C 0.61653 0.07034 0.83643 0.0
C419 C 0.64706 0.07495 0.87229 0.0
H420 H 0.45453 0.68276 0.0679 0.0
H421 H 0.55503 0.68143 0.12156 0.0
H422 H 0.55786 0.62659 0.05871 0.0
H423 H 0.53244 0.58143 0.97559 0.0
H424 H 0.43175 0.58183 0.92023 0.0
H425 H 0.42768 0.63424 0.00037 0.0
C426 C 0.47686 0.67019 0.06518 0.0
C427 C 0.50473 0.68574 0.09656 0.0
C428 C 0.47805 0.63862 0.03049 0.0
C429 C 0.5336 0.66959 0.09585 0.0
C430 C 0.5351 0.63838 0.06075 0.0
C431 C 0.50948 0.59271 0.98313 0.0
C432 C 0.48249 0.57814 0.94163 0.0
C433 C 0.50758 0.62293 0.02642 0.0
C434 C 0.45279 0.59264 0.95237 0.0
C435 C 0.45057 0.62276 0.99676 0.0
H436 H 0.81939 0.44477 0.00622 0.0
H437 H 0.84627 0.53709 0.1211 0.0
H438 H 0.90199 0.52669 0.08488 0.0
H439 H 0.94123 0.49517 -0.00033 0.0
H440 H 0.91373 0.40699 0.85637 0.0
H441 H 0.86032 0.41115 0.92691 0.0
C442 C 0.83764 0.46241 0.023 0.0
C443 C 0.82909 0.49155 0.06643 0.0
C444 C 0.86941 0.45683 0.9974 0.0
C445 C 0.85261 0.51434 0.08905 0.0
C446 C 0.88435 0.50843 0.06801 0.0
C447 C 0.92395 0.47626 0.98598 0.0
C448 C 0.93137 0.45095 0.92206 0.0
C449 C 0.89287 0.48014 0.01988 0.0
C450 C 0.90855 0.42678 0.90517 0.0
C451 C 0.87791 0.42939 0.94434 0.0
H452 H 0.00189 0.19783 0.03812 0.0
H453 H 0.1028 0.1855 0.05045 0.0
H454 H 0.09902 0.13984 0.93689 0.0
H455 H 0.06555 0.09961 0.85076 0.0
H456 H 0.96406 0.11264 0.84147 0.0
H457 H 0.96923 0.16158 0.93752 0.0
C458 C 0.02303 0.18583 0.0121 0.0
C459 C 0.05257 0.19495 0.05026 0.0
C460 C 0.02036 0.15917 0.95 0.0
C461 C 0.07997 0.17902 0.01943 0.0
C462 C 0.07767 0.15266 0.95623 0.0
C463 C 0.04466 0.11328 0.86954 0.0
C464 C 0.01447 0.1023 0.84005 0.0
C465 C 0.0478 0.14179 0.92397 0.0
C466 C 0.98759 0.12051 0.8635 0.0
C467 C 0.99048 0.14856 0.91829 0.0
H468 H 0.32226 0.05688 0.11008 0.0
H469 H 0.29772 0.95877 0.0519 0.0
H470 H 0.34245 0.95442 0.93686 0.0
H471 H 0.39154 0.97676 0.86853 0.0
H472 H 0.41939 0.07387 0.93705 0.0
H473 H 0.37089 0.08032 0.03471 0.0
C474 C 0.32664 0.03481 0.07073 0.0
C475 C 0.30701 0.0081 0.08861 0.0
C476 C 0.35337 0.03218 0.00898 0.0
C477 C 0.31248 0.97958 0.03764 0.0
C478 C 0.33824 0.97705 0.97326 0.0
C479 C 0.38708 -0.00052 0.90425 0.0
C480 C 0.40938 0.02472 0.89589 0.0
C481 C 0.3594 0.00289 0.9609 0.0
C482 C 0.40285 0.05396 0.94255 0.0
C483 C 0.37504 0.0577 -0.00179 0.0
H484 H 0.41974 0.31225 0.06729 0.0
H485 H 0.51507 0.27786 0.0379 0.0
H486 H 0.52924 0.32358 0.93438 0.0
H487 H 0.51564 0.37582 0.86707 0.0
H488 H 0.42134 0.4129 0.91159 0.0
H489 H 0.40578 0.36421 0.99778 0.0
C490 C 0.4434 0.31467 0.03633 0.0
C491 C 0.46625 0.29174 0.05842 0.0
C492 C 0.4517 0.34192 0.98255 0.0
C493 C 0.49698 0.29489 0.01938 0.0
C494 C 0.50514 0.32129 0.96193 0.0
C495 C 0.49162 0.3733 0.89527 0.0
C496 C 0.46973 0.39816 0.88309 0.0
C497 C 0.48292 0.34539 0.94547 0.0
C498 C 0.43875 0.39436 0.92049 0.0
C499 C 0.42977 0.36642 0.96921 0.0
H500 H 0.18661 0.55922 0.07248 0.0
H501 H 0.23435 0.4719 0.00245 0.0
H502 H 0.19342 0.45821 0.88147 0.0
H503 H 0.13903 0.46698 0.81765 0.0
H504 H 0.08756 0.54961 0.91684 0.0
H505 H 0.13386 0.5687 0.00735 0.0
C506 C 0.18827 0.53759 0.02871 0.0
C507 C 0.21316 0.51656 0.04619 0.0
C508 C 0.16315 0.52848 0.96759 0.0
C509 C 0.21554 0.48865 0.98916 0.0
C510 C 0.19175 0.48051 0.92172 0.0
C511 C 0.13821 0.48921 0.85872 0.0
C512 C 0.10996 0.5067 0.86186 0.0
C513 C 0.16462 0.49949 0.91398 0.0
C514 C 0.10895 0.53549 0.91507 0.0
C515 C 0.13547 0.54659 0.96598 0.0
H516 H 0.95695 0.79121 0.28506 0.0
H517 H 0.05856 0.79884 0.26131 0.0
H518 H 0.05867 0.84683 0.36441 0.0
H519 H 0.02915 0.89017 0.44209 0.0
H520 H 0.92741 0.88313 0.47092 0.0
H521 H 0.9276 0.83142 0.38444 0.0
C522 C 0.97905 0.80275 0.30657 0.0
C523 C 0.00782 0.79155 0.26769 0.0
C524 C 0.97868 0.83086 0.36362 0.0
C525 C 0.03639 0.80694 0.29278 0.0
C526 C 0.03633 0.83458 0.35005 0.0
C527 C 0.00706 0.87718 0.42966 0.0
C528 C 0.97824 0.89053 0.4602 0.0
C529 C 0.00753 0.84741 0.38246 0.0
C530 C 0.94979 0.87331 0.44651 0.0
C531 C 0.94996 0.84379 0.3975 0.0
H532 H 0.71912 0.01372 0.37101 0.0
H533 H 0.67108 0.99788 0.09755 0.0
H534 H 0.62294 0.98033 0.18527 0.0
H535 H 0.59274 0.97718 0.34126 0.0
H536 H 0.64253 0.99032 0.61463 0.0
H537 H 0.69195 0.00046 0.52607 0.0
C538 C 0.69838 0.00537 0.33115 0.0
C539 C 0.69811 0.00758 0.22877 0.0
C540 C 0.67108 0.9952 0.38215 0.0
C541 C 0.67139 0.9966 0.17676 0.0
C542 C 0.64393 0.9868 0.22692 0.0
C543 C 0.61456 0.98158 0.38134 0.0
C544 C 0.61378 0.98345 0.4844 0.0
C545 C 0.64312 0.98722 0.32984 0.0
C546 C 0.64235 0.98877 0.53536 0.0
C547 C 0.67067 0.99479 0.48477 0.0
H548 H 0.46897 0.68201 0.27434 0.0
H549 H 0.56118 0.71986 0.34725 0.0
H550 H 0.57137 0.67296 0.44992 0.0
H551 H 0.55546 0.618 0.50349 0.0
H552 H 0.4662 0.57851 0.40113 0.0
H553 H 0.454 0.62828 0.32145 0.0
C554 C 0.49114 0.68 0.31382 0.0
C555 C 0.51429 0.70397 0.30366 0.0
C556 C 0.49772 0.65207 0.3644 0.0
C557 C 0.54288 0.70168 0.35537 0.0
C558 C 0.54886 0.67464 0.4123 0.0
C559 C 0.5335 0.62039 0.46325 0.0
C560 C 0.51199 0.59441 0.45744 0.0
C561 C 0.52682 0.64911 0.41462 0.0
C562 C 0.48351 0.59782 0.40531 0.0
C563 C 0.47624 0.62644 0.36061 0.0
H564 H 0.81329 0.4596 0.25916 0.0
H565 H 0.8008 0.56095 0.2774 0.0
H566 H 0.84637 0.56584 0.389 0.0
H567 H 0.89391 0.54131 0.46398 0.0
H568 H 0.90595 0.43938 0.43788 0.0
H569 H 0.85699 0.43464 0.34548 0.0
C570 C 0.82002 0.48251 0.29077 0.0
C571 C 0.80397 0.50983 0.26123 0.0
C572 C 0.84683 0.48509 0.35067 0.0
C573 C 0.81273 0.53962 0.30088 0.0
C574 C 0.83911 0.5424 0.36289 0.0
C575 C 0.88574 0.51811 0.43812 0.0
C576 C 0.90385 0.49081 0.45711 0.0
C577 C 0.85713 0.51539 0.38517 0.0
C578 C 0.89265 0.46083 0.42428 0.0
C579 C 0.86453 0.45801 0.37158 0.0
loop_
_geom_bond_atom_site_label_1
_geom_bond_atom_site_label_2
_geom_bond_distance
_geom_bond_site_symmetry_2
_ccdc_geom_bond_type
C0 N1 1.317 . S
C0 N2 1.348 1_554 S
C0 C3 1.485 . S
N1 C0 1.317 . S
N1 N5 1.370 1_554 S
N2 C0 1.348 1_556 S
N2 C4 1.346 . S
C3 C0 1.485 . S
C3 H7 0.960 . S
C3 H8 0.961 . S
C3 H9 0.960 . S
C4 N2 1.346 . S
C4 N5 1.307 . S
C4 C6 1.486 . S
N5 N1 1.370 1_556 S
N5 C4 1.307 . S
C6 C4 1.486 . S
C6 H10 0.960 . S
C6 H11 0.960 . S
C6 H12 0.959 . S
H7 C3 0.960 . S
H8 C3 0.961 . S
H9 C3 0.960 . S
H10 C6 0.960 . S
H11 C6 0.960 . S
H12 C6 0.959 . S
C13 N14 1.317 . S
C13 N15 1.348 . S
C13 C16 1.485 . S
N14 C13 1.317 . S
N14 N18 1.370 1_655 S
N15 C13 1.348 . S
N15 C17 1.346 . S
C16 C13 1.485 . S
C16 H20 0.960 1_655 S
C16 H21 0.961 . S
C16 H22 0.960 . S
C17 N15 1.346 . S
C17 N18 1.307 1_655 S
C17 C19 1.486 1_654 S
N18 N14 1.370 1_455 S
N18 C17 1.307 1_455 S
C19 C17 1.486 1_456 S
C19 H23 0.932 1_455 S
C19 H24 0.982 . S
C19 H25 0.965 . S
H20 C16 0.960 1_455 S
H21 C16 0.961 . S
H22 C16 0.960 . S
H23 C19 0.932 1_655 S
H24 C19 0.982 . S
H25 C19 0.965 . S
C26 N27 1.317 . S
C26 N28 1.348 . S
C26 C29 1.485 . S
N27 C26 1.317 . S
N27 N31 1.371 . S
N28 C26 1.348 . S
N28 C30 1.346 1_564 S
C29 C26 1.485 . S
C29 H33 0.960 1_565 S
C29 H34 0.961 . S
C29 H35 0.960 . S
C30 N28 1.346 1_546 S
C30 N31 1.307 1_546 S
C30 C32 1.485 . S
N31 N27 1.371 . S
N31 C30 1.307 1_564 S
C32 C30 1.485 . S
C32 H36 0.927 1_545 S
C32 H37 0.987 . S
C32 H38 0.967 . S
H33 C29 0.960 1_545 S
H34 C29 0.961 . S
H35 C29 0.960 . S
H36 C32 0.927 1_565 S
H37 C32 0.987 . S
H38 C32 0.967 . S
C39 N40 1.317 . S
C39 N41 1.348 . S
C39 C42 1.485 . S
N40 C39 1.317 . S
N40 N44 1.370 1_554 S
N41 C39 1.348 . S
N41 C43 1.346 1_554 S
C42 C39 1.485 . S
C42 H46 0.960 . S
C42 H47 0.961 . S
C42 H48 0.960 . S
C43 N41 1.346 1_556 S
C43 N44 1.307 . S
C43 C45 1.486 . S
N44 N40 1.370 1_556 S
N44 C43 1.307 . S
C45 C43 1.486 . S
C45 H49 0.960 . S
C45 H50 0.960 . S
C45 H51 0.959 . S
H46 C42 0.960 . S
H47 C42 0.961 . S
H48 C42 0.960 . S
H49 C45 0.960 . S
H50 C45 0.960 . S
H51 C45 0.959 . S
C52 N53 1.317 . S
C52 N54 1.348 . S
C52 C55 1.485 . S
N53 C52 1.317 . S
N53 N57 1.370 . S
N54 C52 1.348 . S
N54 C56 1.346 . S
C55 C52 1.485 . S
C55 H59 0.960 . S
C55 H60 0.961 . S
C55 H61 0.960 . S
C56 N54 1.346 . S
C56 N57 1.307 . S
C56 C58 1.486 . S
N57 N53 1.370 . S
N57 C56 1.307 . S
C58 C56 1.486 . S
C58 H62 0.960 . S
C58 H63 0.960 . S
C58 H64 0.959 . S
H59 C55 0.960 . S
H60 C55 0.961 . S
H61 C55 0.960 . S
H62 C58 0.960 . S
H63 C58 0.960 . S
H64 C58 0.959 . S
C65 N66 1.317 . S
C65 N67 1.348 . S
C65 C68 1.485 . S
N66 C65 1.317 . S
N66 N70 1.370 . S
N67 C65 1.348 . S
N67 C69 1.346 . S
C68 C65 1.485 . S
C68 H72 0.960 . S
C68 H73 0.961 . S
C68 H74 0.960 . S
C69 N67 1.346 . S
C69 N70 1.307 . S
C69 C71 1.486 . S
N70 N66 1.370 . S
N70 C69 1.307 . S
C71 C69 1.486 . S
C71 H75 0.960 . S
C71 H76 0.960 . S
C71 H77 0.959 . S
H72 C68 0.960 . S
H73 C68 0.961 . S
H74 C68 0.960 . S
H75 C71 0.960 . S
H76 C71 0.960 . S
H77 C71 0.959 . S
C78 N79 1.317 . S
C78 N80 1.348 . S
C78 C81 1.485 . S
N79 C78 1.317 . S
N79 N83 1.370 . S
N80 C78 1.348 . S
N80 C82 1.346 . S
C81 C78 1.485 . S
C81 H85 0.960 . S
C81 H86 0.961 1_545 S
C81 H87 0.960 1_545 S
C82 N80 1.346 . S
C82 N83 1.307 . S
C82 C84 1.486 . S
N83 N79 1.370 . S
N83 C82 1.307 . S
C84 C82 1.486 . S
C84 H88 0.960 1_545 S
C84 H89 0.960 . S
C84 H90 0.959 . S
H85 C81 0.960 . S
H86 C81 0.961 1_565 S
H87 C81 0.960 1_565 S
H88 C84 0.960 1_565 S
H89 C84 0.960 . S
H90 C84 0.959 . S
C91 N92 1.317 . S
C91 N93 1.348 . S
C91 C94 1.485 . S
N92 C91 1.317 . S
N92 N96 1.370 . S
N93 C91 1.348 . S
N93 C95 1.346 . S
C94 C91 1.485 . S
C94 H98 0.960 . S
C94 H99 0.961 . S
C94 H100 0.960 . S
C95 N93 1.346 . S
C95 N96 1.307 . S
C95 C97 1.486 . S
N96 N92 1.370 . S
N96 C95 1.307 . S
C97 C95 1.486 . S
C97 H101 0.960 . S
C97 H102 0.960 . S
C97 H103 0.959 . S
H98 C94 0.960 . S
H99 C94 0.961 . S
H100 C94 0.960 . S
H101 C97 0.960 . S
H102 C97 0.960 . S
H103 C97 0.959 . S
O104 Zn105 1.953 . S
O104 C120 1.225 1_545 S
Zn105 O104 1.953 . S
Zn105 O106 1.948 1_545 S
Zn105 O112 1.919 . S
Zn105 O117 1.924 1_545 S
O106 Zn105 1.948 1_565 S
O106 Zn107 1.900 1_465 S
O106 Zn108 1.953 . S
O106 Zn109 1.967 1_455 S
Zn107 O106 1.900 1_645 S
Zn107 O110 1.933 . S
Zn107 O113 1.941 1_655 S
Zn107 O114 1.965 . S
Zn108 O106 1.953 . S
Zn108 O115 1.938 1_565 S
Zn108 O116 1.906 . S
Zn108 O126 1.953 . S
Zn109 O106 1.967 1_655 S
Zn109 O111 1.932 . S
Zn109 O118 1.977 . S
Zn109 O119 1.910 1_655 S
O110 Zn107 1.933 . S
O110 C121 1.226 . S
O111 Zn109 1.932 . S
O111 C121 1.307 1_565 S
O112 Zn105 1.919 . S
O112 C123 1.253 . S
O113 Zn107 1.941 1_455 S
O113 C123 1.283 . S
O114 Zn107 1.965 . S
O114 C122 1.303 1_655 S
O115 Zn108 1.938 1_545 S
O115 C122 1.247 . S
O116 Zn108 1.906 . S
O116 C124 1.304 1_455 S
O117 Zn105 1.924 1_565 S
O117 C125 1.311 . S
O118 Zn109 1.977 . S
O118 C124 1.272 . S
O119 Zn109 1.910 1_455 S
O119 C125 1.231 . S
C120 O104 1.225 1_565 S
C120 O126 1.298 . S
C121 O110 1.226 . S
C121 O111 1.307 1_545 S
C122 O114 1.303 1_455 S
C122 O115 1.247 . S
C123 O112 1.253 . S
C123 O113 1.283 . S
C124 O116 1.304 1_655 S
C124 O118 1.272 . S
C125 O117 1.311 . S
C125 O119 1.231 . S
O126 Zn108 1.953 . S
O126 C120 1.298 . S
O127 Zn128 1.953 . S
O127 C143 1.225 . S
Zn128 O127 1.953 . S
Zn128 O129 1.949 . S
Zn128 O135 1.919 . S
Zn128 O140 1.924 . S
O129 Zn128 1.949 . S
O129 Zn130 1.923 1_545 S
O129 Zn131 1.950 . S
O129 Zn132 1.945 1_545 S
Zn130 O129 1.923 1_565 S
Zn130 O133 1.933 . S
Zn130 O136 1.941 . S
Zn130 O137 1.965 . S
Zn131 O129 1.950 . S
Zn131 O138 1.938 . S
Zn131 O139 1.906 . S
Zn131 O149 1.953 . S
Zn132 O129 1.945 1_565 S
Zn132 O134 1.932 . S
Zn132 O141 1.977 . S
Zn132 O142 1.910 1_565 S
O133 Zn130 1.933 . S
O133 C144 1.226 . S
O134 Zn132 1.932 . S
O134 C144 1.307 . S
O135 Zn128 1.919 . S
O135 C146 1.253 . S
O136 Zn130 1.941 . S
O136 C146 1.283 1_565 S
O137 Zn130 1.965 . S
O137 C145 1.303 1_565 S
O138 Zn131 1.938 . S
O138 C145 1.247 . S
O139 Zn131 1.906 . S
O139 C147 1.304 1_545 S
O140 Zn128 1.924 . S
O140 C148 1.311 . S
O141 Zn132 1.977 . S
O141 C147 1.272 . S
O142 Zn132 1.910 1_545 S
O142 C148 1.231 . S
C143 O127 1.225 . S
C143 O149 1.298 . S
C144 O133 1.226 . S
C144 O134 1.307 . S
C145 O137 1.303 1_545 S
C145 O138 1.247 . S
C146 O135 1.253 . S
C146 O136 1.283 1_545 S
C147 O139 1.304 1_565 S
C147 O141 1.272 . S
C148 O140 1.311 . S
C148 O142 1.231 . S
O149 Zn131 1.953 . S
O149 C143 1.298 . S
O150 Zn151 1.953 . S
O150 C166 1.225 . S
Zn151 O150 1.953 . S
Zn151 O152 1.949 . S
Zn151 O158 1.919 . S
Zn151 O163 1.924 . S
O152 Zn151 1.949 . S
O152 Zn153 1.923 . S
O152 Zn154 1.950 . S
O152 Zn155 1.945 . S
Zn153 O152 1.923 . S
Zn153 O156 1.933 . S
Zn153 O159 1.941 . S
Zn153 O160 1.965 . S
Zn154 O152 1.950 . S
Zn154 O161 1.938 . S
Zn154 O162 1.906 . S
Zn154 O172 1.953 . S
Zn155 O152 1.945 . S
Zn155 O157 1.932 . S
Zn155 O164 1.977 . S
Zn155 O165 1.910 . S
O156 Zn153 1.933 . S
O156 C167 1.226 . S
O157 Zn155 1.932 . S
O157 C167 1.307 . S
O158 Zn151 1.919 . S
O158 C169 1.253 . S
O159 Zn153 1.941 . S
O159 C169 1.283 . S
O160 Zn153 1.965 . S
O160 C168 1.303 . S
O161 Zn154 1.938 . S
O161 C168 1.247 . S
O162 Zn154 1.906 . S
O162 C170 1.304 . S
O163 Zn151 1.924 . S
O163 C171 1.311 . S
O164 Zn155 1.977 . S
O164 C170 1.272 . S
O165 Zn155 1.910 . S
O165 C171 1.231 . S
C166 O150 1.225 . S
C166 O172 1.298 . S
C167 O156 1.226 . S
C167 O157 1.307 . S
C168 O160 1.303 . S
C168 O161 1.247 . S
C169 O158 1.253 . S
C169 O159 1.283 . S
C170 O162 1.304 . S
C170 O164 1.272 . S
C171 O163 1.311 . S
C171 O165 1.231 . S
O172 Zn154 1.953 . S
O172 C166 1.298 . S
O173 Zn174 1.925 1_655 S
O173 C189 1.225 . S
Zn174 O173 1.925 1_455 S
Zn174 O175 1.949 . S
Zn174 O181 1.919 . S
Zn174 O186 1.954 . S
O175 Zn174 1.949 . S
O175 Zn176 1.918 1_455 S
O175 Zn177 1.928 1_455 S
O175 Zn178 1.973 . S
Zn176 O175 1.918 1_655 S
Zn176 O179 1.933 1_655 S
Zn176 O182 1.941 . S
Zn176 O183 1.965 . S
Zn177 O175 1.928 1_655 S
Zn177 O184 1.938 . S
Zn177 O185 1.906 . S
Zn177 O195 1.953 . S
Zn178 O175 1.973 . S
Zn178 O180 1.932 . S
Zn178 O187 1.977 . S
Zn178 O188 1.910 . S
O179 Zn176 1.933 1_455 S
O179 C190 1.226 . S
O180 Zn178 1.932 . S
O180 C190 1.307 . S
O181 Zn174 1.919 . S
O181 C192 1.253 . S
O182 Zn176 1.941 . S
O182 C192 1.282 1_655 S
O183 Zn176 1.965 . S
O183 C191 1.303 . S
O184 Zn177 1.938 . S
O184 C191 1.247 . S
O185 Zn177 1.906 . S
O185 C193 1.304 1_655 S
O186 Zn174 1.954 . S
O186 C194 1.311 . S
O187 Zn178 1.977 . S
O187 C193 1.272 . S
O188 Zn178 1.910 . S
O188 C194 1.231 . S
C189 O173 1.225 . S
C189 O195 1.298 . S
C190 O179 1.226 . S
C190 O180 1.307 . S
C191 O183 1.303 . S
C191 O184 1.247 . S
C192 O181 1.253 . S
C192 O182 1.282 1_455 S
C193 O185 1.304 1_455 S
C193 O187 1.272 . S
C194 O186 1.311 . S
C194 O188 1.231 . S
O195 Zn177 1.953 . S
O195 C189 1.298 . S
H196 C202 0.930 . S
H197 C205 0.929 1_565 S
H198 C206 0.930 . S
H199 C207 0.930 . S
H200 C210 0.930 . S
H201 C211 0.930 . S
C202 H196 0.930 . S
C202 C203 1.355 . S
C202 C204 1.415 . S
C203 C202 1.355 . S
C203 C205 1.423 . S
C204 C202 1.415 . S
C204 C209 1.428 . S
C204 C211 1.409 . S
C205 H197 0.929 1_545 S
C205 C203 1.423 . S
C205 C206 1.360 1_545 S
C206 H198 0.930 . S
C206 C205 1.360 1_565 S
C206 C209 1.408 1_565 S
C207 H199 0.930 . S
C207 C208 1.354 1_565 S
C207 C209 1.414 1_565 S
C208 C207 1.354 1_545 S
C208 C210 1.420 . S
C209 C204 1.428 . S
C209 C206 1.408 1_545 S
C209 C207 1.414 1_545 S
C210 H200 0.930 . S
C210 C208 1.420 . S
C210 C211 1.362 . S
C211 H201 0.930 . S
C211 C204 1.409 . S
C211 C210 1.362 . S
H212 C218 0.930 . S
H213 C221 0.930 . S
H214 C222 0.930 . S
H215 C223 0.930 . S
H216 C226 0.930 . S
H217 C227 0.930 . S
C218 H212 0.930 . S
C218 C219 1.355 . S
C218 C220 1.415 . S
C219 C218 1.355 . S
C219 C221 1.419 . S
C220 C218 1.415 . S
C220 C225 1.425 . S
C220 C227 1.409 . S
C221 H213 0.930 . S
C221 C219 1.419 . S
C221 C222 1.362 . S
C222 H214 0.930 . S
C222 C221 1.362 . S
C222 C225 1.409 . S
C223 H215 0.930 . S
C223 C224 1.355 . S
C223 C225 1.415 . S
C224 C223 1.355 . S
C224 C226 1.419 . S
C225 C220 1.425 . S
C225 C222 1.409 . S
C225 C223 1.415 . S
C226 H216 0.930 . S
C226 C224 1.419 . S
C226 C227 1.362 . S
C227 H217 0.930 . S
C227 C220 1.409 . S
C227 C226 1.362 . S
H228 C234 0.930 . S
H229 C237 0.930 . S
H230 C238 0.930 . S
H231 C239 0.930 . S
H232 C242 0.930 . S
H233 C243 0.930 . S
C234 H228 0.930 . S
C234 C235 1.355 . S
C234 C236 1.415 . S
C235 C234 1.355 . S
C235 C237 1.419 . S
C236 C234 1.415 . S
C236 C241 1.425 . S
C236 C243 1.409 . S
C237 H229 0.930 . S
C237 C235 1.419 . S
C237 C238 1.362 . S
C238 H230 0.930 . S
C238 C237 1.362 . S
C238 C241 1.409 . S
C239 H231 0.930 . S
C239 C240 1.355 . S
C239 C241 1.415 . S
C240 C239 1.355 . S
C240 C242 1.419 . S
C241 C236 1.425 . S
C241 C238 1.409 . S
C241 C239 1.415 . S
C242 H232 0.930 . S
C242 C240 1.419 . S
C242 C243 1.362 . S
C243 H233 0.930 . S
C243 C236 1.409 . S
C243 C242 1.362 . S
H244 C250 0.930 . S
H245 C253 0.930 1_655 S
H246 C254 0.930 . S
H247 C255 0.930 1_655 S
H248 C258 0.930 . S
H249 C259 0.930 . S
C250 H244 0.930 . S
C250 C251 1.355 . S
C250 C252 1.415 . S
C251 C250 1.355 . S
C251 C253 1.419 . S
C252 C250 1.415 . S
C252 C257 1.425 . S
C252 C259 1.409 . S
C253 H245 0.930 1_455 S
C253 C251 1.419 . S
C253 C254 1.362 1_455 S
C254 H246 0.930 . S
C254 C253 1.362 1_655 S
C254 C257 1.409 1_655 S
C255 H247 0.930 1_455 S
C255 C256 1.355 . S
C255 C257 1.415 . S
C256 C255 1.355 . S
C256 C258 1.419 . S
C257 C252 1.425 . S
C257 C254 1.409 1_455 S
C257 C255 1.415 . S
C258 H248 0.930 . S
C258 C256 1.419 . S
C258 C259 1.362 . S
C259 H249 0.930 . S
C259 C252 1.409 . S
C259 C258 1.362 . S
H260 C266 0.930 . S
H261 C269 0.930 . S
H262 C270 0.930 . S
H263 C271 0.930 . S
H264 C274 0.930 . S
H265 C275 0.930 . S
C266 H260 0.930 . S
C266 C267 1.339 1_566 S
C266 C268 1.415 . S
C267 C266 1.339 1_544 S
C267 C269 1.440 . S
C268 C266 1.415 . S
C268 C273 1.425 1_565 S
C268 C275 1.409 . S
C269 H261 0.930 . S
C269 C267 1.440 . S
C269 C270 1.362 . S
C270 H262 0.930 . S
C270 C269 1.362 . S
C270 C273 1.409 1_554 S
C271 H263 0.930 . S
C271 C272 1.355 . S
C271 C273 1.415 . S
C272 C271 1.355 . S
C272 C274 1.419 1_545 S
C273 C268 1.425 1_545 S
C273 C270 1.409 1_556 S
C273 C271 1.415 . S
C274 H264 0.930 . S
C274 C272 1.419 1_565 S
C274 C275 1.362 . S
C275 H265 0.930 . S
C275 C268 1.409 . S
C275 C274 1.362 . S
H276 C282 0.930 1_554 S
H277 C285 0.930 . S
H278 C286 0.930 . S
H279 C287 0.930 . S
H280 C290 0.930 . S
H281 C291 0.930 . S
C282 H276 0.930 1_556 S
C282 C283 1.355 . S
C282 C284 1.415 . S
C283 C282 1.355 . S
C283 C285 1.419 . S
C284 C282 1.415 . S
C284 C289 1.425 . S
C284 C291 1.409 . S
C285 H277 0.930 . S
C285 C283 1.419 . S
C285 C286 1.362 . S
C286 H278 0.930 . S
C286 C285 1.362 . S
C286 C289 1.409 . S
C287 H279 0.930 . S
C287 C288 1.355 . S
C287 C289 1.415 . S
C288 C287 1.355 . S
C288 C290 1.419 . S
C289 C284 1.425 . S
C289 C286 1.409 . S
C289 C287 1.415 . S
C290 H280 0.930 . S
C290 C288 1.419 . S
C290 C291 1.362 . S
C291 H281 0.930 . S
C291 C284 1.409 . S
C291 C290 1.362 . S
H292 C298 0.921 1_554 S
H293 C301 0.930 . S
H294 C302 0.930 . S
H295 C303 0.930 . S
H296 C306 0.930 . S
H297 C307 0.930 . S
C298 H292 0.921 1_556 S
C298 C299 1.355 . S
C298 C300 1.415 . S
C299 C298 1.355 . S
C299 C301 1.419 . S
C300 C298 1.415 . S
C300 C305 1.425 . S
C300 C307 1.409 . S
C301 H293 0.930 . S
C301 C299 1.419 . S
C301 C302 1.362 . S
C302 H294 0.930 . S
C302 C301 1.362 . S
C302 C305 1.409 . S
C303 H295 0.930 . S
C303 C304 1.355 . S
C303 C305 1.415 . S
C304 C303 1.355 . S
C304 C306 1.419 . S
C305 C300 1.425 . S
C305 C302 1.409 . S
C305 C303 1.415 . S
C306 H296 0.930 . S
C306 C304 1.419 . S
C306 C307 1.362 . S
C307 H297 0.930 . S
C307 C300 1.409 . S
C307 C306 1.362 . S
H308 C314 0.930 . S
H309 C317 0.930 . S
H310 C318 0.930 . S
H311 C319 0.930 . S
H312 C322 0.930 . S
H313 C323 0.930 1_554 S
C314 H308 0.930 . S
C314 C315 1.355 1_655 S
C314 C316 1.415 1_554 S
C315 C314 1.355 1_455 S
C315 C317 1.419 1_554 S
C316 C314 1.415 1_556 S
C316 C321 1.425 1_655 S
C316 C323 1.409 . S
C317 H309 0.930 . S
C317 C315 1.419 1_556 S
C317 C318 1.362 . S
C318 H310 0.930 . S
C318 C317 1.362 . S
C318 C321 1.409 . S
C319 H311 0.930 . S
C319 C320 1.355 . S
C319 C321 1.415 . S
C320 C319 1.355 . S
C320 C322 1.419 1_455 S
C321 C316 1.425 1_455 S
C321 C318 1.409 . S
C321 C319 1.415 . S
C322 H312 0.930 . S
C322 C320 1.419 1_655 S
C322 C323 1.362 . S
C323 H313 0.930 1_556 S
C323 C316 1.409 . S
C323 C322 1.362 . S
H324 C330 0.930 . S
H325 C333 0.930 . S
H326 C334 0.930 . S
H327 C335 0.930 . S
H328 C338 0.930 . S
H329 C339 0.930 . S
C330 H324 0.930 . S
C330 C331 1.355 . S
C330 C332 1.415 . S
C331 C330 1.355 . S
C331 C333 1.419 . S
C332 C330 1.415 . S
C332 C337 1.425 . S
C332 C339 1.409 . S
C333 H325 0.930 . S
C333 C331 1.419 . S
C333 C334 1.362 . S
C334 H326 0.930 . S
C334 C333 1.362 . S
C334 C337 1.409 . S
C335 H327 0.930 . S
C335 C336 1.355 . S
C335 C337 1.415 . S
C336 C335 1.355 . S
C336 C338 1.419 . S
C337 C332 1.425 . S
C337 C334 1.409 . S
C337 C335 1.415 . S
C338 H328 0.930 . S
C338 C336 1.419 . S
C338 C339 1.362 . S
C339 H329 0.930 . S
C339 C332 1.409 . S
C339 C338 1.362 . S
H340 C346 0.930 1_565 S
H341 C349 0.930 . S
H342 C350 0.930 . S
H343 C351 0.930 . S
H344 C354 0.930 . S
H345 C355 0.930 . S
C346 H340 0.930 1_545 S
C346 C347 1.355 . S
C346 C348 1.415 . S
C347 C346 1.355 . S
C347 C349 1.419 . S
C348 C346 1.415 . S
C348 C353 1.425 . S
C348 C355 1.409 1_545 S
C349 H341 0.930 . S
C349 C347 1.419 . S
C349 C350 1.362 . S
C350 H342 0.930 . S
C350 C349 1.362 . S
C350 C353 1.409 . S
C351 H343 0.930 . S
C351 C352 1.355 . S
C351 C353 1.415 . S
C352 C351 1.355 . S
C352 C354 1.419 1_545 S
C353 C348 1.425 . S
C353 C350 1.409 . S
C353 C351 1.415 . S
C354 H344 0.930 . S
C354 C352 1.419 1_565 S
C354 C355 1.362 . S
C355 H345 0.930 . S
C355 C348 1.409 1_565 S
C355 C354 1.362 . S
H356 C362 0.930 . S
H357 C365 0.930 . S
H358 C366 0.930 . S
H359 C367 0.930 . S
H360 C370 0.930 . S
H361 C371 0.930 . S
C362 H356 0.930 . S
C362 C363 1.355 . S
C362 C364 1.415 . S
C363 C362 1.355 . S
C363 C365 1.419 . S
C364 C362 1.415 . S
C364 C369 1.425 . S
C364 C371 1.409 . S
C365 H357 0.930 . S
C365 C363 1.419 . S
C365 C366 1.362 . S
C366 H358 0.930 . S
C366 C365 1.362 . S
C366 C369 1.409 . S
C367 H359 0.930 . S
C367 C368 1.355 . S
C367 C369 1.415 . S
C368 C367 1.355 . S
C368 C370 1.419 . S
C369 C364 1.425 . S
C369 C366 1.409 . S
C369 C367 1.415 . S
C370 H360 0.930 . S
C370 C368 1.419 . S
C370 C371 1.362 . S
C371 H361 0.930 . S
C371 C364 1.409 . S
C371 C370 1.362 . S
H372 C378 0.930 . S
H373 C381 0.930 . S
H374 C382 0.930 . S
H375 C383 0.930 . S
H376 C386 0.930 . S
H377 C387 0.930 . S
C378 H372 0.930 . S
C378 C379 1.355 . S
C378 C380 1.415 . S
C379 C378 1.355 . S
C379 C381 1.419 . S
C380 C378 1.415 . S
C380 C385 1.425 . S
C380 C387 1.409 . S
C381 H373 0.930 . S
C381 C379 1.419 . S
C381 C382 1.362 . S
C382 H374 0.930 . S
C382 C381 1.362 . S
C382 C385 1.409 . S
C383 H375 0.930 . S
C383 C384 1.355 . S
C383 C385 1.415 . S
C384 C383 1.355 . S
C384 C386 1.419 . S
C385 C380 1.425 . S
C385 C382 1.409 . S
C385 C383 1.415 . S
C386 H376 0.930 . S
C386 C384 1.419 . S
C386 C387 1.362 . S
C387 H377 0.930 . S
C387 C380 1.409 . S
C387 C386 1.362 . S
H388 C394 0.930 . S
H389 C397 0.930 . S
H390 C398 0.930 . S
H391 C399 0.930 . S
H392 C402 0.930 . S
H393 C403 0.930 . S
C394 H388 0.930 . S
C394 C395 1.355 1_455 S
C394 C396 1.415 . S
C395 C394 1.355 1_655 S
C395 C397 1.419 1_554 S
C396 C394 1.415 . S
C396 C401 1.425 1_554 S
C396 C403 1.409 . S
C397 H389 0.930 . S
C397 C395 1.419 1_556 S
C397 C398 1.362 . S
C398 H390 0.930 . S
C398 C397 1.362 . S
C398 C401 1.409 1_655 S
C399 H391 0.930 . S
C399 C400 1.355 . S
C399 C401 1.415 . S
C400 C399 1.355 . S
C400 C402 1.419 . S
C401 C396 1.425 1_556 S
C401 C398 1.409 1_455 S
C401 C399 1.415 . S
C402 H392 0.930 . S
C402 C400 1.419 . S
C402 C403 1.362 1_556 S
C403 H393 0.930 . S
C403 C396 1.409 . S
C403 C402 1.362 1_554 S
H404 C410 0.930 1_565 S
H405 C413 0.930 . S
H406 C414 0.930 . S
H407 C415 0.930 . S
H408 C418 0.930 . S
H409 C419 0.940 . S
C410 H404 0.930 1_545 S
C410 C411 1.355 1_556 S
C410 C412 1.415 . S
C411 C410 1.355 1_554 S
C411 C413 1.419 . S
C412 C410 1.415 . S
C412 C417 1.425 . S
C412 C419 1.409 . S
C413 H405 0.930 . S
C413 C411 1.419 . S
C413 C414 1.362 . S
C414 H406 0.930 . S
C414 C413 1.362 . S
C414 C417 1.409 1_554 S
C415 H407 0.930 . S
C415 C416 1.355 . S
C415 C417 1.415 . S
C416 C415 1.355 . S
C416 C418 1.419 . S
C417 C412 1.425 . S
C417 C414 1.409 1_556 S
C417 C415 1.415 . S
C418 H408 0.930 . S
C418 C416 1.419 . S
C418 C419 1.362 . S
C419 H409 0.940 . S
C419 C412 1.409 . S
C419 C418 1.362 . S
H420 C426 0.930 . S
H421 C429 0.930 . S
H422 C430 0.930 . S
H423 C431 0.930 . S
H424 C434 0.930 . S
H425 C435 0.930 . S
C426 H420 0.930 . S
C426 C427 1.355 . S
C426 C428 1.415 . S
C427 C426 1.355 . S
C427 C429 1.419 . S
C428 C426 1.415 . S
C428 C433 1.425 . S
C428 C435 1.409 . S
C429 H421 0.930 . S
C429 C427 1.419 . S
C429 C430 1.362 . S
C430 H422 0.930 . S
C430 C429 1.362 . S
C430 C433 1.409 . S
C431 H423 0.930 . S
C431 C432 1.355 . S
C431 C433 1.415 . S
C432 C431 1.355 . S
C432 C434 1.419 . S
C433 C428 1.425 . S
C433 C430 1.409 . S
C433 C431 1.415 . S
C434 H424 0.930 . S
C434 C432 1.419 . S
C434 C435 1.362 . S
C435 H425 0.930 . S
C435 C428 1.409 . S
C435 C434 1.362 . S
H436 C442 0.930 . S
H437 C445 0.930 . S
H438 C446 0.930 1_554 S
H439 C447 0.930 . S
H440 C450 0.930 . S
H441 C451 0.930 . S
C442 H436 0.930 . S
C442 C443 1.355 . S
C442 C444 1.415 . S
C443 C442 1.355 . S
C443 C445 1.419 1_556 S
C444 C442 1.415 . S
C444 C449 1.425 . S
C444 C451 1.409 . S
C445 H437 0.930 . S
C445 C443 1.419 1_554 S
C445 C446 1.362 1_554 S
C446 H438 0.930 1_556 S
C446 C445 1.362 1_556 S
C446 C449 1.409 . S
C447 H439 0.930 . S
C447 C448 1.355 . S
C447 C449 1.415 . S
C448 C447 1.355 . S
C448 C450 1.419 . S
C449 C444 1.425 . S
C449 C446 1.409 . S
C449 C447 1.415 . S
C450 H440 0.930 . S
C450 C448 1.419 . S
C450 C451 1.362 . S
C451 H441 0.930 . S
C451 C444 1.409 . S
C451 C450 1.362 . S
H452 C458 0.930 1_655 S
H453 C461 0.930 . S
H454 C462 0.930 . S
H455 C463 0.930 . S
H456 C466 0.930 . S
H457 C467 0.930 . S
C458 H452 0.930 1_455 S
C458 C459 1.355 . S
C458 C460 1.415 . S
C459 C458 1.355 . S
C459 C461 1.419 . S
C460 C458 1.415 . S
C460 C465 1.425 . S
C460 C467 1.409 1_455 S
C461 H453 0.930 . S
C461 C459 1.419 . S
C461 C462 1.362 . S
C462 H454 0.930 . S
C462 C461 1.362 . S
C462 C465 1.409 . S
C463 H455 0.930 . S
C463 C464 1.355 1_554 S
C463 C465 1.415 . S
C464 C463 1.355 1_556 S
C464 C466 1.419 1_455 S
C465 C460 1.425 . S
C465 C462 1.409 . S
C465 C463 1.415 . S
C466 H456 0.930 . S
C466 C464 1.419 1_655 S
C466 C467 1.362 1_556 S
C467 H457 0.930 . S
C467 C460 1.409 1_655 S
C467 C466 1.362 1_554 S
H468 C474 0.930 . S
H469 C477 0.930 . S
H470 C478 0.930 1_556 S
H471 C479 0.930 . S
H472 C482 0.930 . S
H473 C483 0.930 . S
C474 H468 0.930 . S
C474 C475 1.355 . S
C474 C476 1.415 . S
C475 C474 1.355 . S
C475 C477 1.419 1_545 S
C476 C474 1.415 . S
C476 C481 1.425 1_545 S
C476 C483 1.409 . S
C477 H469 0.930 . S
C477 C475 1.419 1_565 S
C477 C478 1.362 . S
C478 H470 0.930 1_554 S
C478 C477 1.362 . S
C478 C481 1.409 . S
C479 H471 0.930 . S
C479 C480 1.355 1_565 S
C479 C481 1.415 1_556 S
C480 C479 1.355 1_545 S
C480 C482 1.419 1_556 S
C481 C476 1.425 1_565 S
C481 C478 1.409 . S
C481 C479 1.415 1_554 S
C482 H472 0.930 . S
C482 C480 1.419 1_554 S
C482 C483 1.362 . S
C483 H473 0.930 . S
C483 C476 1.409 . S
C483 C482 1.362 . S
H484 C490 0.930 . S
H485 C493 0.930 . S
H486 C494 0.930 . S
H487 C495 0.930 . S
H488 C498 0.930 . S
H489 C499 0.930 . S
C490 H484 0.930 . S
C490 C491 1.355 . S
C490 C492 1.415 . S
C491 C490 1.355 . S
C491 C493 1.419 . S
C492 C490 1.415 . S
C492 C497 1.425 . S
C492 C499 1.409 1_554 S
C493 H485 0.930 . S
C493 C491 1.419 . S
C493 C494 1.362 . S
C494 H486 0.930 . S
C494 C493 1.362 . S
C494 C497 1.409 . S
C495 H487 0.930 . S
C495 C496 1.355 . S
C495 C497 1.415 1_556 S
C496 C495 1.355 . S
C496 C498 1.419 . S
C497 C492 1.425 . S
C497 C494 1.409 . S
C497 C495 1.415 1_554 S
C498 H488 0.930 . S
C498 C496 1.419 . S
C498 C499 1.362 . S
C499 H489 0.930 . S
C499 C492 1.409 1_556 S
C499 C498 1.362 . S
H500 C506 0.930 . S
H501 C509 0.930 . S
H502 C510 0.930 . S
H503 C511 0.930 . S
H504 C514 0.930 . S
H505 C515 0.930 . S
C506 H500 0.930 . S
C506 C507 1.355 . S
C506 C508 1.415 . S
C507 C506 1.355 . S
C507 C509 1.419 . S
C508 C506 1.415 . S
C508 C513 1.425 1_554 S
C508 C515 1.409 . S
C509 H501 0.930 . S
C509 C507 1.419 . S
C509 C510 1.362 1_554 S
C510 H502 0.930 . S
C510 C509 1.362 1_556 S
C510 C513 1.409 . S
C511 H503 0.930 . S
C511 C512 1.355 . S
C511 C513 1.415 . S
C512 C511 1.355 . S
C512 C514 1.419 1_556 S
C513 C508 1.425 1_556 S
C513 C510 1.409 . S
C513 C511 1.415 . S
C514 H504 0.930 . S
C514 C512 1.419 1_554 S
C514 C515 1.362 . S
C515 H505 0.930 . S
C515 C508 1.409 . S
C515 C514 1.362 . S
H516 C522 0.930 . S
H517 C525 0.930 . S
H518 C526 0.930 . S
H519 C527 0.930 . S
H520 C530 0.930 . S
H521 C531 0.930 . S
C522 H516 0.930 . S
C522 C523 1.368 . S
C522 C524 1.415 . S
C523 C522 1.368 . S
C523 C525 1.410 1_655 S
C524 C522 1.415 . S
C524 C529 1.425 . S
C524 C531 1.409 . S
C525 H517 0.930 . S
C525 C523 1.410 1_455 S
C525 C526 1.362 . S
C526 H518 0.930 . S
C526 C525 1.362 . S
C526 C529 1.409 1_455 S
C527 H519 0.930 . S
C527 C528 1.355 . S
C527 C529 1.415 . S
C528 C527 1.355 . S
C528 C530 1.419 . S
C529 C524 1.425 . S
C529 C526 1.409 1_655 S
C529 C527 1.415 . S
C530 H520 0.930 . S
C530 C528 1.419 . S
C530 C531 1.362 . S
C531 H521 0.930 . S
C531 C524 1.409 . S
C531 C530 1.362 . S
H532 C538 0.930 . S
H533 C541 0.930 . S
H534 C542 0.930 . S
H535 C543 0.930 . S
H536 C546 0.930 . S
H537 C547 0.930 . S
C538 H532 0.930 . S
C538 C539 1.355 1_545 S
C538 C540 1.415 1_545 S
C539 C538 1.355 1_565 S
C539 C541 1.419 . S
C540 C538 1.415 1_565 S
C540 C545 1.425 . S
C540 C547 1.409 1_565 S
C541 H533 0.930 . S
C541 C539 1.419 . S
C541 C542 1.362 . S
C542 H534 0.930 . S
C542 C541 1.362 . S
C542 C545 1.409 . S
C543 H535 0.930 . S
C543 C544 1.355 . S
C543 C545 1.415 . S
C544 C543 1.355 . S
C544 C546 1.419 1_565 S
C545 C540 1.425 . S
C545 C542 1.409 . S
C545 C543 1.415 . S
C546 H536 0.930 . S
C546 C544 1.419 1_545 S
C546 C547 1.362 . S
C547 H537 0.930 . S
C547 C540 1.409 1_545 S
C547 C546 1.362 . S
H548 C554 0.930 . S
H549 C557 0.930 . S
H550 C558 0.930 . S
H551 C559 0.930 . S
H552 C562 0.930 . S
H553 C563 0.930 . S
C554 H548 0.930 . S
C554 C555 1.355 . S
C554 C556 1.415 . S
C555 C554 1.355 . S
C555 C557 1.419 . S
C556 C554 1.415 . S
C556 C561 1.425 . S
C556 C563 1.409 . S
C557 H549 0.930 . S
C557 C555 1.419 . S
C557 C558 1.362 . S
C558 H550 0.930 . S
C558 C557 1.362 . S
C558 C561 1.409 . S
C559 H551 0.930 . S
C559 C560 1.355 . S
C559 C561 1.415 . S
C560 C559 1.355 . S
C560 C562 1.419 . S
C561 C556 1.425 . S
C561 C558 1.409 . S
C561 C559 1.415 . S
C562 H552 0.930 . S
C562 C560 1.419 . S
C562 C563 1.362 . S
C563 H553 0.930 . S
C563 C556 1.409 . S
C563 C562 1.362 . S
H564 C570 0.930 . S
H565 C573 0.930 . S
H566 C574 0.930 . S
H567 C575 0.930 . S
H568 C578 0.930 . S
H569 C579 0.930 . S
C570 H564 0.930 . S
C570 C571 1.355 . S
C570 C572 1.415 . S
C571 C570 1.355 . S
C571 C573 1.419 . S
C572 C570 1.415 . S
C572 C577 1.425 . S
C572 C579 1.409 . S
C573 H565 0.930 . S
C573 C571 1.419 . S
C573 C574 1.362 . S
C574 H566 0.930 . S
C574 C573 1.362 . S
C574 C577 1.409 . S
C575 H567 0.930 . S
C575 C576 1.355 . S
C575 C577 1.415 . S
C576 C575 1.355 . S
C576 C578 1.419 . S
C577 C572 1.425 . S
C577 C574 1.409 . S
C577 C575 1.415 . S
C578 H568 0.930 . S
C578 C576 1.419 . S
C578 C579 1.362 . S
C579 H569 0.930 . S
C579 C572 1.409 . S
C579 C578 1.362 . S
C203 N80 1.622 . S
C208 C120 1.623 1_545 S
C224 C143 1.639 . S
C219 N93 1.637 . S
C240 C166 1.657 . S
C235 N54 1.655 . S
C256 C193 1.524 . S
C251 N67 1.583 . S
C272 C121 1.579 . S
C267 N28 1.577 1_545 S
C283 N41 1.506 1_556 S
C288 C144 1.514 . S
C299 N2 1.494 . S
C304 C167 1.502 . S
C315 N15 1.578 1_455 S
C320 C192 1.564 . S
C336 C122 0.598 . S
C331 N70 0.591 . S
C352 C145 0.592 . S
C347 N83 0.584 . S
C368 C168 0.566 . S
C363 N96 0.617 . S
C379 N57 0.779 . S
C384 C194 0.833 . S
C395 N18 0.872 1_655 S
C400 C125 0.901 . S
C416 C148 0.758 . S
C411 N31 0.819 1_545 S
C432 C171 0.876 . S
C427 N44 0.837 . S
C443 N5 0.585 . S
C448 C191 0.600 . S
C459 N66 1.592 . S
C464 C123 1.536 . S
C475 N79 1.574 . S
C480 C146 1.534 . S
C496 C169 1.518 . S
C491 N92 1.567 . S
C512 C190 1.421 . S
C507 N53 1.435 . S
C523 N14 1.693 . S
C528 C124 1.598 . S
C544 C147 1.510 . S
C539 N27 1.625 . S
C560 C170 1.460 . S
C555 N40 1.595 . S
C571 N1 1.717 . S
C576 C189 1.718 . S
