# Generated by pormake.
# Topology apo, (3,6)-cn, num edge types: 1
# Building blocks:
#     Node 0, Type 0, BuildingBlock: KAKCAD_clean_linker_0, # of connection points: 3
#     Node 1, Type 0, BuildingBlock: KAKCAD_clean_linker_0, # of connection points: 3
#     Node 2, Type 0, BuildingBlock: KAKCAD_clean_linker_0, # of connection points: 3
#     Node 3, Type 0, BuildingBlock: KAKCAD_clean_linker_0, # of connection points: 3
#     Node 4, Type 0, BuildingBlock: KAKCAD_clean_linker_0, # of connection points: 3
#     Node 5, Type 0, BuildingBlock: KAKCAD_clean_linker_0, # of connection points: 3
#     Node 6, Type 0, BuildingBlock: KAKCAD_clean_linker_0, # of connection points: 3
#     Node 7, Type 0, BuildingBlock: KAKCAD_clean_linker_0, # of connection points: 3
#     Node 8, Type 1, BuildingBlock: MIDCAF_clean_sbu_0, # of connection points: 6
#     Node 9, Type 1, BuildingBlock: MIDCAF_clean_sbu_0, # of connection points: 6
#     Node 10, Type 1, BuildingBlock: MIDCAF_clean_sbu_0, # of connection points: 6
#     Node 11, Type 1, BuildingBlock: MIDCAF_clean_sbu_0, # of connection points: 6
#     Edge 12, Type (0, 1), BuildingBlock: EZIPEK_clean_linker_0, # of connection points: 2
#     Edge 13, Type (0, 1), BuildingBlock: EZIPEK_clean_linker_0, # of connection points: 2
#     Edge 14, Type (0, 1), BuildingBlock: EZIPEK_clean_linker_0, # of connection points: 2
#     Edge 15, Type (0, 1), BuildingBlock: EZIPEK_clean_linker_0, # of connection points: 2
#     Edge 16, Type (0, 1), BuildingBlock: EZIPEK_clean_linker_0, # of connection points: 2
#     Edge 17, Type (0, 1), BuildingBlock: EZIPEK_clean_linker_0, # of connection points: 2
#     Edge 18, Type (0, 1), BuildingBlock: EZIPEK_clean_linker_0, # of connection points: 2
#     Edge 19, Type (0, 1), BuildingBlock: EZIPEK_clean_linker_0, # of connection points: 2
#     Edge 20, Type (0, 1), BuildingBlock: EZIPEK_clean_linker_0, # of connection points: 2
#     Edge 21, Type (0, 1), BuildingBlock: EZIPEK_clean_linker_0, # of connection points: 2
#     Edge 22, Type (0, 1), BuildingBlock: EZIPEK_clean_linker_0, # of connection points: 2
#     Edge 23, Type (0, 1), BuildingBlock: EZIPEK_clean_linker_0, # of connection points: 2
#     Edge 24, Type (0, 1), BuildingBlock: EZIPEK_clean_linker_0, # of connection points: 2
#     Edge 25, Type (0, 1), BuildingBlock: EZIPEK_clean_linker_0, # of connection points: 2
#     Edge 26, Type (0, 1), BuildingBlock: EZIPEK_clean_linker_0, # of connection points: 2
#     Edge 27, Type (0, 1), BuildingBlock: EZIPEK_clean_linker_0, # of connection points: 2
#     Edge 28, Type (0, 1), BuildingBlock: EZIPEK_clean_linker_0, # of connection points: 2
#     Edge 29, Type (0, 1), BuildingBlock: EZIPEK_clean_linker_0, # of connection points: 2
#     Edge 30, Type (0, 1), BuildingBlock: EZIPEK_clean_linker_0, # of connection points: 2
#     Edge 31, Type (0, 1), BuildingBlock: EZIPEK_clean_linker_0, # of connection points: 2
#     Edge 32, Type (0, 1), BuildingBlock: EZIPEK_clean_linker_0, # of connection points: 2
#     Edge 33, Type (0, 1), BuildingBlock: EZIPEK_clean_linker_0, # of connection points: 2
#     Edge 34, Type (0, 1), BuildingBlock: EZIPEK_clean_linker_0, # of connection points: 2
#     Edge 35, Type (0, 1), BuildingBlock: EZIPEK_clean_linker_0, # of connection points: 2
# Relax obj value: 0.085
# Max RMSD: 0.099
# Mean RMSD: 0.090
data_MOF--net-apo--node1-MIDCAF_clean_sbu_0--node2-KAKCAD_clean_linker_0--edge1-EZIPEK_clean_linker_0
_symmetry_space_group_name_H-M    P1
_symmetry_Int_Tables_number       1
_symmetry_cell_setting            triclinic
loop_
_symmetry_equiv_pos_as_xyz
'x, y, z'
_cell_length_a     33.281327
_cell_length_b     39.751713
_cell_length_c     34.947428
_cell_angle_alpha  89.891777
_cell_angle_beta   89.881281
_cell_angle_gamma 90.197118
loop_
_atom_site_label
_atom_site_type_symbol
_atom_site_fract_x
_atom_site_fract_y
_atom_site_fract_z
_atom_type_partial_charge
C0 C 0.38618 0.4304 0.33339 0.0
C1 C 0.42833 0.4319 0.33283 0.0
C2 C 0.36642 0.40169 0.34685 0.0
C3 C 0.38852 0.37419 0.3605 0.0
C4 C 0.43069 0.37513 0.35862 0.0
C5 C 0.45049 0.40362 0.34425 0.0
C6 C 0.36744 0.34559 0.37887 0.0
C7 C 0.33709 0.32826 0.35935 0.0
C8 C 0.31539 0.30224 0.37734 0.0
C9 C 0.32405 0.29423 0.41584 0.0
C10 C 0.35418 0.31173 0.43601 0.0
C11 C 0.3759 0.3372 0.41695 0.0
C12 C 0.36232 0.30483 0.47732 0.0
C13 C 0.33073 0.29894 0.50347 0.0
C14 C 0.40185 0.30661 0.49142 0.0
C15 C 0.40937 0.30478 0.53064 0.0
C16 C 0.3777 0.30076 0.55678 0.0
C17 C 0.2833 0.2841 0.3559 0.0
C18 C 0.28852 0.27594 0.31696 0.0
C19 C 0.24684 0.27544 0.37389 0.0
C20 C 0.21654 0.25891 0.35355 0.0
C21 C 0.22203 0.25072 0.31486 0.0
C22 C 0.25809 0.25953 0.29658 0.0
C23 C 0.33841 0.29669 0.54289 0.0
H24 H 0.36857 0.45193 0.32455 0.0
H25 H 0.33389 0.40152 0.34816 0.0
H26 H 0.44825 0.35405 0.36881 0.0
H27 H 0.48303 0.40425 0.34371 0.0
H28 H 0.33006 0.33548 0.3302 0.0
H29 H 0.39831 0.35174 0.43221 0.0
H30 H 0.30777 0.27405 0.42992 0.0
H31 H 0.29992 0.29754 0.49372 0.0
H32 H 0.42704 0.31023 0.47217 0.0
H33 H 0.43998 0.30747 0.54073 0.0
H34 H 0.31635 0.28186 0.30229 0.0
H35 H 0.24148 0.28182 0.40357 0.0
H36 H 0.3136 0.29323 0.56263 0.0
H37 H 0.26283 0.25327 0.26677 0.0
H38 H 0.1888 0.25233 0.36805 0.0
C39 C 0.14077 0.06366 0.81298 0.0
C40 C 0.10212 0.052 0.82194 0.0
C41 C 0.15502 0.09364 0.8286 0.0
C42 C 0.1307 0.11289 0.85322 0.0
C43 C 0.09125 0.10174 0.86086 0.0
C44 C 0.07713 0.07143 0.84544 0.0
C45 C 0.1474 0.14362 0.87181 0.0
C46 C 0.17429 0.16438 0.85174 0.0
C47 C 0.19352 0.19154 0.86964 0.0
C48 C 0.18431 0.19897 0.90804 0.0
C49 C 0.1567 0.1789 0.92863 0.0
C50 C 0.13868 0.15116 0.91022 0.0
C51 C 0.14736 0.18573 0.96969 0.0
C52 C 0.17789 0.19406 0.99597 0.0
C53 C 0.10778 0.18206 0.98332 0.0
C54 C 0.09916 0.18519 0.02228 0.0
C55 C 0.12983 0.19214 0.04856 0.0
C56 C 0.2241 0.21101 0.84779 0.0
C57 C 0.25331 0.19407 0.82634 0.0
C58 C 0.22402 0.24619 0.84736 0.0
C59 C 0.25131 0.26396 0.82434 0.0
C60 C 0.27897 0.24718 0.80003 0.0
C61 C 0.28071 0.21175 0.8036 0.0
C62 C 0.16917 0.19727 0.03512 0.0
H63 H 0.16063 0.04865 0.79535 0.0
H64 H 0.18576 0.10094 0.82257 0.0
H65 H 0.07154 0.11613 0.87924 0.0
H66 H 0.04729 0.06256 0.85286 0.0
H67 H 0.18054 0.15936 0.82184 0.0
H68 H 0.11904 0.13458 0.92636 0.0
H69 H 0.19893 0.22005 0.92193 0.0
H70 H 0.20873 0.19685 0.98651 0.0
H71 H 0.08342 0.17626 0.96388 0.0
H72 H 0.06857 0.18137 0.03209 0.0
H73 H 0.25534 0.16688 0.82754 0.0
H74 H 0.20256 0.26003 0.86449 0.0
H75 H 0.19322 0.2027 0.05503 0.0
H76 H 0.3036 0.19689 0.79004 0.0
H77 H 0.25081 0.29102 0.82677 0.0
C78 C 0.86675 0.06755 0.71556 0.0
C79 C 0.90455 0.05457 0.70606 0.0
C80 C 0.85355 0.09757 0.6992 0.0
C81 C 0.87812 0.11549 0.67332 0.0
C82 C 0.91694 0.1032 0.66549 0.0
C83 C 0.92997 0.07287 0.68161 0.0
C84 C 0.86223 0.14574 0.65317 0.0
C85 C 0.83636 0.16796 0.67223 0.0
C86 C 0.81792 0.19469 0.65278 0.0
C87 C 0.82665 0.19978 0.61373 0.0
C88 C 0.85308 0.17823 0.59411 0.0
C89 C 0.87048 0.15117 0.61415 0.0
C90 C 0.86184 0.18307 0.55251 0.0
C91 C 0.83132 0.19208 0.52653 0.0
C92 C 0.9008 0.17745 0.53824 0.0
C93 C 0.90877 0.17961 0.49905 0.0
C94 C 0.87808 0.18754 0.47317 0.0
C95 C 0.78771 0.21573 0.67302 0.0
C96 C 0.7936 0.22548 0.71138 0.0
C97 C 0.75147 0.22431 0.65491 0.0
C98 C 0.72167 0.24177 0.67478 0.0
C99 C 0.72749 0.251 0.71309 0.0
C100 C 0.76365 0.24285 0.7313 0.0
C101 C 0.83942 0.19439 0.48718 0.0
H102 H 0.84657 0.05343 0.73396 0.0
H103 H 0.82327 0.10577 0.70547 0.0
H104 H 0.93689 0.11659 0.64621 0.0
H105 H 0.95915 0.063 0.67382 0.0
H106 H 0.82955 0.16382 0.70219 0.0
H107 H 0.88915 0.13341 0.59885 0.0
H108 H 0.81314 0.22075 0.59872 0.0
H109 H 0.80091 0.19634 0.53642 0.0
H110 H 0.92521 0.17114 0.55737 0.0
H111 H 0.93888 0.17451 0.48879 0.0
H112 H 0.82132 0.21957 0.72607 0.0
H113 H 0.74562 0.21673 0.62569 0.0
H114 H 0.81538 0.20064 0.46759 0.0
H115 H 0.76863 0.24994 0.76083 0.0
H116 H 0.69384 0.24788 0.66035 0.0
C117 C 0.61801 0.433 0.19171 0.0
C118 C 0.57583 0.43343 0.19183 0.0
C119 C 0.63873 0.4045 0.17943 0.0
C120 C 0.61759 0.37613 0.16652 0.0
C121 C 0.57537 0.37607 0.16788 0.0
C122 C 0.55461 0.40435 0.18106 0.0
C123 C 0.63971 0.34754 0.14966 0.0
C124 C 0.67036 0.33169 0.1702 0.0
C125 C 0.69276 0.30552 0.15373 0.0
C126 C 0.68448 0.29564 0.11577 0.0
C127 C 0.65402 0.31168 0.09456 0.0
C128 C 0.63163 0.33741 0.11209 0.0
C129 C 0.64626 0.30325 0.05362 0.0
C130 C 0.67812 0.29856 0.02754 0.0
C131 C 0.60666 0.30298 0.0396 0.0
C132 C 0.59918 0.30058 1.00042 0.0
C133 C 0.63103 0.29808 0.97428 0.0
C134 C 0.72446 0.2887 0.17674 0.0
C135 C 0.75132 0.30777 0.19876 0.0
C136 C 0.72742 0.25361 0.17784 0.0
C137 C 0.75536 0.23795 0.20179 0.0
C138 C 0.78081 0.25673 0.22638 0.0
C139 C 0.7795 0.29216 0.22248 0.0
C140 C 0.67053 0.29581 0.98815 0.0
H141 H 0.63491 0.45514 0.20006 0.0
H142 H 0.67127 0.40512 0.17854 0.0
H143 H 0.55853 0.35431 0.15827 0.0
H144 H 0.52206 0.40414 0.1813 0.0
H145 H 0.6763 0.33946 0.19938 0.0
H146 H 0.60891 0.35076 0.09594 0.0
H147 H 0.7019 0.27574 0.10272 0.0
H148 H 0.70897 0.29873 0.0373 0.0
H149 H 0.58136 0.30572 0.05887 0.0
H150 H 0.56846 0.30192 0.99034 0.0
H151 H 0.75089 0.335 0.1973 0.0
H152 H 0.7077 0.23814 0.16057 0.0
H153 H 0.69549 0.29361 0.96838 0.0
H154 H 0.80022 0.30868 0.23666 0.0
H155 H 0.75708 0.21086 0.20016 0.0
C156 C 0.57701 0.59156 0.71502 0.0
C157 C 0.57461 0.56031 0.69647 0.0
C158 C 0.59747 0.61845 0.69762 0.0
C159 C 0.615 0.6145 0.66122 0.0
C160 C 0.61153 0.58336 0.64255 0.0
C161 C 0.59162 0.55657 0.66003 0.0
C162 C 0.63843 0.64193 0.64281 0.0
C163 C 0.6684 0.65908 0.66311 0.0
C164 C 0.6944 0.68175 0.64435 0.0
C165 C 0.6896 0.68731 0.60471 0.0
C166 C 0.65895 0.67099 0.58408 0.0
C167 C 0.63318 0.64879 0.60379 0.0
C168 C 0.65385 0.67628 0.54199 0.0
C169 C 0.66106 0.70786 0.52474 0.0
C170 C 0.63988 0.64979 0.51882 0.0
C171 C 0.6301 0.65533 0.48059 0.0
C172 C 0.63501 0.68724 0.46407 0.0
C173 C 0.72754 0.69854 0.66575 0.0
C174 C 0.73884 0.73181 0.65694 0.0
C175 C 0.74871 0.6813 0.69465 0.0
C176 C 0.78075 0.69674 0.71367 0.0
C177 C 0.79276 0.72942 0.70359 0.0
C178 C 0.77122 0.747 0.67555 0.0
C179 C 0.65233 0.71312 0.48591 0.0
H180 H 0.56377 0.59485 0.74309 0.0
H181 H 0.59958 0.64225 0.71252 0.0
H182 H 0.62517 0.57942 0.61475 0.0
H183 H 0.58998 0.53263 0.64531 0.0
H184 H 0.67206 0.65404 0.69338 0.0
H185 H 0.60881 0.63643 0.5888 0.0
H186 H 0.71062 0.70345 0.58966 0.0
H187 H 0.67193 0.72888 0.54145 0.0
H188 H 0.63562 0.62472 0.53033 0.0
H189 H 0.6176 0.63476 0.46408 0.0
H190 H 0.72278 0.74613 0.63551 0.0
H191 H 0.74133 0.65553 0.70191 0.0
H192 H 0.65707 0.73779 0.47346 0.0
H193 H 0.77992 0.77237 0.66764 0.0
H194 H 0.79706 0.68285 0.73531 0.0
C195 C 0.82407 0.80561 0.97971 0.0
C196 C 0.86326 0.80844 0.96508 0.0
C197 C 0.81735 0.80739 0.0193 0.0
C198 C 0.84976 0.81182 0.04471 0.0
C199 C 0.88905 0.81236 0.02985 0.0
C200 C 0.89568 0.81078 0.99048 0.0
C201 C 0.84276 0.81897 0.086 0.0
C202 C 0.81338 0.80145 0.10717 0.0
C203 C 0.80554 0.80981 0.14569 0.0
C204 C 0.82723 0.83625 0.16267 0.0
C205 C 0.85681 0.85368 0.14199 0.0
C206 C 0.86459 0.84482 0.10393 0.0
C207 C 0.87759 0.883 0.15888 0.0
C208 C 0.85513 0.91041 0.1722 0.0
C209 C 0.91976 0.8849 0.15905 0.0
C210 C 0.93916 0.91421 0.17137 0.0
C211 C 0.91654 0.9423 0.18253 0.0
C212 C 0.77431 0.79141 0.16804 0.0
C213 C 0.73768 0.7823 0.15089 0.0
C214 C 0.7808 0.78285 0.20669 0.0
C215 C 0.75161 0.76509 0.22745 0.0
C216 C 0.71557 0.75551 0.20982 0.0
C217 C 0.70864 0.76451 0.1716 0.0
C218 C 0.87446 0.93992 0.18366 0.0
H219 H 0.79872 0.80368 0.96045 0.0
H220 H 0.78672 0.80701 0.02981 0.0
H221 H 0.9147 0.81505 0.04864 0.0
H222 H 0.92616 0.81268 0.97968 0.0
H223 H 0.79705 0.78102 0.09378 0.0
H224 H 0.88644 0.85931 0.08771 0.0
H225 H 0.82075 0.84369 0.19186 0.0
H226 H 0.82259 0.90953 0.17209 0.0
H227 H 0.9376 0.86395 0.14899 0.0
H228 H 0.97166 0.91554 0.17064 0.0
H229 H 0.73137 0.78903 0.12147 0.0
H230 H 0.80881 0.78923 0.22068 0.0
H231 H 0.85653 0.9613 0.19232 0.0
H232 H 0.68088 0.75732 0.15763 0.0
H233 H 0.75742 0.75818 0.25691 0.0
C234 C 0.07856 0.90593 0.29937 0.0
C235 C 0.0767 0.93734 0.3176 0.0
C236 C 0.09965 0.87933 0.31639 0.0
C237 C 0.11846 0.88375 0.35208 0.0
C238 C 0.1161 0.91522 0.37017 0.0
C239 C 0.09549 0.94169 0.35309 0.0
C240 C 0.14095 0.85611 0.37086 0.0
C241 C 0.1696 0.83746 0.3506 0.0
C242 C 0.19373 0.81366 0.36947 0.0
C243 C 0.18899 0.80898 0.4093 0.0
C244 C 0.16019 0.82735 0.43011 0.0
C245 C 0.13571 0.85018 0.41012 0.0
C246 C 0.15562 0.82353 0.47259 0.0
C247 C 0.16252 0.79258 0.49128 0.0
C248 C 0.14293 0.85105 0.49486 0.0
C249 C 0.13402 0.84711 0.53358 0.0
C250 C 0.13888 0.81589 0.55168 0.0
C251 C 0.22467 0.79447 0.34776 0.0
C252 C 0.21675 0.7825 0.31056 0.0
C253 C 0.26243 0.78789 0.36411 0.0
C254 C 0.29102 0.76904 0.34433 0.0
C255 C 0.28263 0.75654 0.30771 0.0
C256 C 0.24559 0.76386 0.29061 0.0
C257 C 0.155 0.78902 0.53064 0.0
H258 H 0.064 0.90216 0.27201 0.0
H259 H 0.10088 0.85527 0.30195 0.0
H260 H 0.13073 0.91954 0.3974 0.0
H261 H 0.09436 0.96578 0.36753 0.0
H262 H 0.17425 0.84255 0.32043 0.0
H263 H 0.11225 0.8637 0.42504 0.0
H264 H 0.208 0.79118 0.42408 0.0
H265 H 0.17235 0.77073 0.47546 0.0
H266 H 0.13912 0.87576 0.48238 0.0
H267 H 0.12249 0.86846 0.54935 0.0
H268 H 0.18792 0.7869 0.29717 0.0
H269 H 0.27003 0.79737 0.39222 0.0
H270 H 0.15976 0.76485 0.54423 0.0
H271 H 0.2387 0.75443 0.26231 0.0
H272 H 0.31963 0.76384 0.35781 0.0
C273 C 0.33047 0.69373 0.03946 0.0
C274 C 0.36959 0.69179 0.05421 0.0
C275 C 0.32401 0.69112 0.99993 0.0
C276 C 0.35667 0.6871 0.97459 0.0
C277 C 0.39586 0.68761 0.98955 0.0
C278 C 0.4022 0.68974 0.02889 0.0
C279 C 0.35019 0.67982 0.93323 0.0
C280 C 0.31938 0.69558 0.91238 0.0
C281 C 0.31232 0.68735 0.87366 0.0
C282 C 0.33653 0.66279 0.85621 0.0
C283 C 0.36682 0.64652 0.87683 0.0
C284 C 0.37381 0.65535 0.91498 0.0
C285 C 0.38817 0.61756 0.8601 0.0
C286 C 0.36608 0.5893 0.8484 0.0
C287 C 0.43035 0.61666 0.85882 0.0
C288 C 0.45016 0.5875 0.84684 0.0
C289 C 0.42794 0.55858 0.83738 0.0
C290 C 0.2788 0.70336 0.85197 0.0
C291 C 0.26763 0.73685 0.85935 0.0
C292 C 0.25706 0.68511 0.82422 0.0
C293 C 0.22472 0.69976 0.80498 0.0
C294 C 0.21258 0.73253 0.81403 0.0
C295 C 0.23467 0.75112 0.84085 0.0
C296 C 0.38581 0.55997 0.83744 0.0
H297 H 0.30496 0.6956 0.05863 0.0
H298 H 0.29341 0.69068 0.98949 0.0
H299 H 0.42174 0.68545 0.97088 0.0
H300 H 0.43266 0.68868 0.03972 0.0
H301 H 0.30055 0.71388 0.92659 0.0
H302 H 0.39635 0.6417 0.93104 0.0
H303 H 0.33191 0.65599 0.82654 0.0
H304 H 0.33354 0.58941 0.84943 0.0
H305 H 0.44786 0.63828 0.86774 0.0
H306 H 0.48269 0.58694 0.84657 0.0
H307 H 0.28415 0.75211 0.87958 0.0
H308 H 0.26413 0.65914 0.818 0.0
H309 H 0.36816 0.53797 0.83005 0.0
H310 H 0.22603 0.77664 0.84787 0.0
H311 H 0.20814 0.68511 0.78417 0.0
Zn312 Zn 0.03449 0.13273 0.32527 0.0
Zn313 Zn 0.96275 0.14673 0.18827 0.0
Zn314 Zn 0.99991 0.14222 0.25707 0.0
C315 C 0.04165 0.173 0.18125 0.0
C316 C 0.96614 0.079 0.20714 0.0
O317 O 0.95988 0.16482 0.30109 0.0
O318 O 0.98958 0.15129 0.35569 0.0
C319 C 0.08515 0.17424 0.28097 0.0
O320 O 0.04279 0.16758 0.21763 0.0
O321 O 0.01054 0.16606 0.16217 0.0
O322 O 0.95136 0.09791 0.18179 0.0
O323 O 0.98589 0.09152 0.23544 0.0
O324 O 0.08131 0.1618 0.31403 0.0
O325 O 0.05846 0.16884 0.25499 0.0
O326 O 0.00891 0.08786 0.26809 0.0
O327 O 0.04154 0.0833 0.32301 0.0
C328 C 0.02634 0.06979 0.29377 0.0
O329 O 0.94353 0.17077 0.2648 0.0
O330 O 0.91872 0.17619 0.20621 0.0
C331 C 0.96069 0.1646 0.33798 0.0
C332 C 0.91668 0.1821 0.24162 0.0
Zn333 Zn 0.53641 0.36245 0.69719 0.0
Zn334 Zn 0.46726 0.35407 0.83793 0.0
Zn335 Zn 0.50309 0.35591 0.76738 0.0
C336 C 0.4743 0.42126 0.81643 0.0
C337 C 0.41774 0.31994 0.78584 0.0
O338 O 0.56135 0.3296 0.76952 0.0
O339 O 0.58425 0.3354 0.7102 0.0
C340 C 0.52842 0.4267 0.7258 0.0
O341 O 0.49147 0.40734 0.78746 0.0
O342 O 0.46049 0.40358 0.84351 0.0
O343 O 0.42028 0.32719 0.82091 0.0
O344 O 0.44544 0.32889 0.76206 0.0
O345 O 0.54183 0.41218 0.69638 0.0
O346 O 0.51266 0.40956 0.75334 0.0
O347 O 0.46198 0.33184 0.72536 0.0
O348 O 0.49139 0.34096 0.6693 0.0
C349 C 0.46242 0.32929 0.68859 0.0
O350 O 0.54541 0.33035 0.80679 0.0
O351 O 0.51392 0.33203 0.86276 0.0
C352 C 0.58825 0.3241 0.74375 0.0
C353 C 0.54437 0.32436 0.84305 0.0
Zn354 Zn 0.02736 0.85436 0.82441 0.0
Zn355 Zn 0.97458 0.85739 0.69673 0.0
Zn356 Zn 0.00146 0.85501 0.76026 0.0
C357 C 0.95499 0.91858 0.73026 0.0
C358 C 0.92885 0.81016 0.73317 0.0
O359 O 0.05708 0.82531 0.75764 0.0
O360 O 0.06088 0.81353 0.81929 0.0
C361 C 0.04871 0.91676 0.79397 0.0
O362 O 0.98341 0.90853 0.75253 0.0
O363 O 0.94558 0.90015 0.70233 0.0
O364 O 0.94029 0.81657 0.6995 0.0
O365 O 0.94581 0.8249 0.76168 0.0
O366 O 0.05727 0.89715 0.82114 0.0
O367 O 0.02045 0.90786 0.77086 0.0
O368 O 0.9559 0.83179 0.79928 0.0
O369 O 0.97753 0.85125 0.85472 0.0
C370 C 0.95093 0.83629 0.8355 0.0
O371 O 0.04555 0.83225 0.71962 0.0
O372 O 0.02388 0.85478 0.66569 0.0
C373 C 0.0733 0.80915 0.78554 0.0
C374 C 0.05009 0.83825 0.68359 0.0
Zn375 Zn 0.53196 0.63549 0.19049 0.0
Zn376 Zn 0.46464 0.63472 0.32971 0.0
Zn377 Zn 0.49887 0.63717 0.26059 0.0
C378 C 0.54037 0.66609 0.33687 0.0
C379 C 0.47181 0.56887 0.3062 0.0
O380 O 0.45604 0.66117 0.22077 0.0
O381 O 0.4851 0.65534 0.16404 0.0
C382 C 0.58228 0.67386 0.23739 0.0
O383 O 0.54087 0.66263 0.30022 0.0
O384 O 0.51084 0.65564 0.35633 0.0
O385 O 0.45703 0.58544 0.33355 0.0
O386 O 0.48921 0.58413 0.27809 0.0
O387 O 0.57824 0.66448 0.20314 0.0
O388 O 0.55629 0.6654 0.26309 0.0
O389 O 0.50991 0.58437 0.24361 0.0
O390 O 0.54063 0.58626 0.1874 0.0
C391 C 0.52717 0.56945 0.21531 0.0
O392 O 0.44102 0.66467 0.25775 0.0
O393 O 0.41779 0.66297 0.31721 0.0
C394 C 0.45578 0.66494 0.18415 0.0
C395 C 0.41445 0.67271 0.28299 0.0
C396 C 0.01937 0.97739 0.31825 0.0
C397 C 0.05532 0.96645 0.30056 0.0
C398 C 0.05966 0.01961 0.26519 0.0
C399 C 0.02959 0.03294 0.28953 0.0
N400 N 0.97833 0.02484 0.33738 0.0
N401 N 0.10937 0.9759 0.25577 0.0
C402 C 0.00813 0.01171 0.31503 0.0
C403 C 0.07481 0.98686 0.27277 0.0
N404 N 0.99658 0.9549 0.33848 0.0
N405 N 0.0744 0.0386 0.23568 0.0
H406 H 0.12079 0.9518 0.26002 0.0
H407 H 0.12783 0.99113 0.23896 0.0
H408 H 0.06448 0.06296 0.23005 0.0
H409 H 0.09372 0.02928 0.2148 0.0
H410 H 0.96838 0.96042 0.3497 0.0
H411 H 0.0045 0.92959 0.34092 0.0
H412 H 0.96454 0.01178 0.35969 0.0
H413 H 0.96834 0.04956 0.33436 0.0
C414 C 0.46865 0.50836 0.85835 0.0
C415 C 0.44792 0.526 0.82904 0.0
C416 C 0.44754 0.47541 0.78934 0.0
C417 C 0.46957 0.4582 0.81803 0.0
N418 N 0.51157 0.46123 0.87398 0.0
N419 N 0.42893 0.52941 0.76267 0.0
C420 C 0.48368 0.47573 0.85059 0.0
C421 C 0.44132 0.51053 0.79309 0.0
N422 N 0.47166 0.52155 0.89433 0.0
N423 N 0.42999 0.45806 0.76004 0.0
H424 H 0.42473 0.55536 0.76455 0.0
H425 H 0.42692 0.51993 0.73495 0.0
H426 H 0.43254 0.43212 0.75667 0.0
H427 H 0.41001 0.46907 0.74086 0.0
H428 H 0.48258 0.50794 0.91757 0.0
H429 H 0.46004 0.54489 0.90194 0.0
H430 H 0.52564 0.47412 0.89619 0.0
H431 H 0.52369 0.43752 0.86856 0.0
C432 C 0.51893 0.51834 0.69824 0.0
C433 C 0.55506 0.53061 0.71446 0.0
C434 C 0.56228 0.47826 0.75088 0.0
C435 C 0.53167 0.4637 0.72809 0.0
N436 N 0.47856 0.46952 0.6819 0.0
N437 N 0.61133 0.52312 0.757 0.0
C438 C 0.50882 0.48383 0.70273 0.0
C439 C 0.57625 0.51117 0.74185 0.0
N440 N 0.49479 0.53983 0.67829 0.0
N441 N 0.57866 0.46032 0.78033 0.0
H442 H 0.6222 0.54729 0.75159 0.0
H443 H 0.63086 0.50855 0.77325 0.0
H444 H 0.56994 0.43577 0.78691 0.0
H445 H 0.59825 0.47069 0.80031 0.0
H446 H 0.46644 0.53333 0.66811 0.0
H447 H 0.50177 0.5653 0.67502 0.0
H448 H 0.46372 0.48172 0.6597 0.0
H449 H 0.46918 0.4447 0.68608 0.0
C450 C 0.93173 0.98936 0.22797 0.0
C451 C 0.93619 0.97508 0.19107 0.0
C452 C 0.97173 0.02582 0.16984 0.0
C453 C 0.96007 0.04224 0.204 0.0
N454 N 0.92398 0.0407 0.2641 0.0
N455 N 0.95619 0.98169 0.12481 0.0
C456 C 0.93919 0.02424 0.23302 0.0
C457 C 0.95551 0.99363 0.16146 0.0
N458 N 0.92047 0.96955 0.25814 0.0
N459 N 0.99856 0.04089 0.14556 0.0
H460 H 0.94359 0.95873 0.11685 0.0
H461 H 0.96605 0.99601 0.1016 0.0
H462 H 0.01162 0.06424 0.15136 0.0
H463 H 0.01097 0.0287 0.12198 0.0
H464 H 0.92037 0.97802 0.28635 0.0
H465 H 0.91528 0.94376 0.25533 0.0
H466 H 0.90479 0.02928 0.28386 0.0
H467 H 0.92769 0.06643 0.26859 0.0
C468 C 0.93964 0.01252 0.7488 0.0
C469 C 0.91445 0.01949 0.71695 0.0
C470 C 0.90253 0.95947 0.70851 0.0
C471 C 0.93495 0.95236 0.73345 0.0
N472 N 0.96579 0.96998 0.79229 0.0
N473 N 0.87311 -0.00072 0.66489 0.0
C474 C 0.94851 0.97828 0.75821 0.0
C475 C 0.89595 0.99288 0.69655 0.0
N476 N 0.95504 0.03857 0.76965 0.0
N477 N 0.87583 0.93469 0.69899 0.0
H478 H 0.86741 0.02347 0.65471 0.0
H479 H 0.86275 0.98031 0.64684 0.0
H480 H 0.87658 0.91092 0.71173 0.0
H481 H 0.84977 0.93916 0.68332 0.0
H482 H 0.97591 0.0357 0.79151 0.0
H483 H 0.94806 0.06365 0.76392 0.0
H484 H 0.97526 0.98736 0.81258 0.0
H485 H 0.96575 0.94536 0.80253 0.0
C486 C 0.55943 0.47964 0.23799 0.0
C487 C 0.55463 0.46528 0.20116 0.0
C488 C 0.51774 0.51531 0.18088 0.0
C489 C 0.53087 0.53232 0.21418 0.0
N490 N 0.5671 0.53107 0.27412 0.0
N491 N 0.53202 0.47115 0.13566 0.0
C492 C 0.55185 0.5145 0.24313 0.0
C493 C 0.53392 0.48329 0.17218 0.0
N494 N 0.57139 0.45994 0.26789 0.0
N495 N 0.48972 0.52982 0.15765 0.0
H496 H 0.54448 0.4483 0.12736 0.0
H497 H 0.52112 0.48522 0.11276 0.0
H498 H 0.47661 0.553 0.16391 0.0
H499 H 0.47641 0.51725 0.13478 0.0
H500 H 0.57172 0.4683 0.29613 0.0
H501 H 0.57687 0.43424 0.26483 0.0
H502 H 0.58616 0.51978 0.29391 0.0
H503 H 0.56348 0.55678 0.27857 0.0
C504 C 0.4686 0.48323 0.35115 0.0
C505 C 0.44848 0.46416 0.32263 0.0
C506 C 0.44956 0.51278 0.27945 0.0
C507 C 0.46978 0.53167 0.30802 0.0
N508 N 0.51097 0.53138 0.36457 0.0
N509 N 0.43173 0.45729 0.2561 0.0
C510 C 0.48356 0.5156 0.34168 0.0
C511 C 0.44313 0.4778 0.28546 0.0
N512 N 0.47098 0.47169 0.38794 0.0
N513 N 0.43398 0.52842 0.24798 0.0
H514 H 0.42708 0.43151 0.25983 0.0
H515 H 0.43101 0.46517 0.22765 0.0
H516 H 0.43699 0.55412 0.24284 0.0
H517 H 0.41536 0.51631 0.2284 0.0
H518 H 0.48138 0.48644 0.41049 0.0
H519 H 0.45939 0.44859 0.39681 0.0
H520 H 0.52477 0.5196 0.38771 0.0
H521 H 0.52311 0.55491 0.35778 0.0
C522 C 0.10731 0.99016 0.83186 0.0
C523 C 0.09057 0.01726 0.81104 0.0
C524 C 0.05711 0.97709 0.76797 0.0
C525 C 0.06924 0.95057 0.79265 0.0
N526 N 0.12655 0.93193 0.82911 0.0
N527 N 0.05244 0.03763 0.75733 0.0
C528 C 0.10061 0.957 0.81908 0.0
C529 C 0.06642 0.01107 0.77826 0.0
N530 N 0.12881 0.99587 0.86453 0.0
N531 N 0.04074 0.9696 0.73324 0.0
H532 H 0.05973 0.06253 0.76373 0.0
H533 H 0.03224 0.03538 0.73481 0.0
H534 H 0.04069 0.94521 0.72241 0.0
H535 H 0.03214 0.98742 0.71308 0.0
H536 H 0.13785 0.97653 0.88274 0.0
H537 H 0.13455 0.01986 0.87528 0.0
H538 H 0.15189 0.93598 0.84598 0.0
H539 H 0.12628 0.9085 0.81567 0.0
C540 C 0.12498 0.16217 0.11191 0.0
C541 C 0.11999 0.19211 0.0902 0.0
C542 C 0.07623 0.21533 0.14005 0.0
C543 C 0.07752 0.184 0.15931 0.0
N544 N 0.11201 0.13211 0.1714 0.0
N545 N 0.10114 0.25036 0.08782 0.0
C546 C 0.10545 0.15912 0.14805 0.0
C547 C 0.09923 0.21994 0.10598 0.0
N548 N 0.14591 0.13584 0.0967 0.0
N549 N 0.05131 0.23984 0.15357 0.0
H550 H 0.11801 0.25401 0.06292 0.0
H551 H 0.08879 0.27239 0.09864 0.0
H552 H 0.03601 0.23722 0.17955 0.0
H553 H 0.04523 0.26217 0.13919 0.0
H554 H 0.14668 0.1119 0.10876 0.0
H555 H 0.16136 0.13749 0.07078 0.0
H556 H 0.13427 0.11427 0.16665 0.0
H557 H 0.09735 0.1292 0.19758 0.0
C558 C 0.37895 0.33257 0.61922 0.0
C559 C 0.3867 0.30251 0.59852 0.0
C560 C 0.43277 0.28364 0.64876 0.0
C561 C 0.42812 0.31508 0.66708 0.0
N562 N 0.38743 0.36367 0.67859 0.0
N563 N 0.41018 0.2454 0.59888 0.0
C564 C 0.39751 0.33737 0.65545 0.0
C565 C 0.40982 0.27651 0.61538 0.0
N566 N 0.35663 0.35761 0.60302 0.0
N567 N 0.46076 0.26159 0.66226 0.0
H568 H 0.39329 0.23989 0.57452 0.0
H569 H 0.42419 0.22455 0.61089 0.0
H570 H 0.47642 0.26599 0.68764 0.0
H571 H 0.46919 0.2397 0.64811 0.0
H572 H 0.35402 0.3816 0.61464 0.0
H573 H 0.34234 0.35511 0.57669 0.0
H574 H 0.36312 0.37946 0.67346 0.0
H575 H 0.40119 0.36753 0.70504 0.0
C576 C 0.60109 0.27326 0.91489 0.0
C577 C 0.62197 0.30021 0.93256 0.0
C578 C 0.60834 0.33585 0.87671 0.0
C579 C 0.57989 0.31185 0.8641 0.0
N580 N 0.55229 0.25615 0.8668 0.0
N581 N 0.64735 0.35718 0.92992 0.0
C582 C 0.57794 0.2797 0.88143 0.0
C583 C 0.62722 0.33124 0.91282 0.0
N584 N 0.60301 0.24187 0.93071 0.0
N585 N 0.61599 0.36358 0.8547 0.0
H586 H 0.66191 0.35483 0.95614 0.0
H587 H 0.64789 0.38163 0.9192 0.0
H588 H 0.60182 0.36755 0.8285 0.0
H589 H 0.63883 0.38078 0.86046 0.0
H590 H 0.59066 0.22047 0.91823 0.0
H591 H 0.62005 0.23688 0.95511 0.0
H592 H 0.54572 0.23332 0.88005 0.0
H593 H 0.53676 0.26016 0.84126 0.0
C594 C 0.8786 0.15821 0.40931 0.0
C595 C 0.88721 0.18733 0.43139 0.0
C596 C 0.93223 0.20834 0.38105 0.0
C597 C 0.92705 0.1776 0.36131 0.0
N598 N 0.88674 0.12881 0.34874 0.0
N599 N 0.912 0.24414 0.4341 0.0
C600 C 0.89683 0.1546 0.37268 0.0
C601 C 0.91046 0.21393 0.41558 0.0
N602 N 0.85544 0.13304 0.42451 0.0
N603 N 0.9596 0.23117 0.36757 0.0
H604 H 0.89605 0.24856 0.45934 0.0
H605 H 0.92625 0.26544 0.42321 0.0
H606 H 0.97417 0.22794 0.34134 0.0
H607 H 0.96845 0.25264 0.38234 0.0
H608 H 0.85183 0.10955 0.41189 0.0
H609 H 0.84107 0.13509 0.45093 0.0
H610 H 0.86281 0.11242 0.35362 0.0
H611 H 0.90035 0.12581 0.32203 0.0
C612 C 0.86859 0.84394 0.90579 0.0
C613 C 0.87137 0.81178 0.92338 0.0
C614 C 0.91328 0.79147 0.87058 0.0
C615 C 0.91458 0.82467 0.85596 0.0
N616 N 0.88393 0.87884 0.85029 0.0
N617 N 0.88521 0.75275 0.91775 0.0
C618 C 0.88845 0.84955 0.87031 0.0
C619 C 0.88973 0.78465 0.9038 0.0
N620 N 0.84971 0.86966 0.92439 0.0
N621 N 0.93661 0.76729 0.85406 0.0
H622 H 0.86791 0.7476 0.94205 0.0
H623 H 0.89569 0.73134 0.90394 0.0
H624 H 0.95266 0.77169 0.82884 0.0
H625 H 0.94075 0.74335 0.86542 0.0
H626 H 0.85074 0.89461 0.91537 0.0
H627 H 0.83415 0.86631 0.95003 0.0
H628 H 0.86312 0.89732 0.85731 0.0
H629 H 0.89882 0.88309 0.82438 0.0
C630 C 0.63561 0.67263 0.39454 0.0
C631 C 0.61978 0.69273 0.42445 0.0
C632 C 0.56427 0.70888 0.38251 0.0
C633 C 0.57398 0.68184 0.35806 0.0
N634 N 0.62033 0.6385 0.339 0.0
N635 N 0.56811 0.73079 0.44679 0.0
C636 C 0.61077 0.6645 0.36277 0.0
C637 C 0.58448 0.71199 0.41806 0.0
N638 N 0.67385 0.66061 0.39736 0.0
N639 N 0.53457 0.73063 0.37211 0.0
H640 H 0.58124 0.73354 0.47359 0.0
H641 H 0.53989 0.74192 0.44489 0.0
H642 H 0.51955 0.72833 0.34601 0.0
H643 H 0.52798 0.75251 0.38721 0.0
H644 H 0.68833 0.64788 0.37528 0.0
H645 H 0.69231 0.66644 0.42057 0.0
H646 H 0.64441 0.62237 0.34373 0.0
H647 H 0.60281 0.63196 0.31549 0.0
C648 C 0.39851 0.7167 0.11372 0.0
C649 C 0.3776 0.6898 0.09602 0.0
C650 C 0.39134 0.65402 0.15159 0.0
C651 C 0.42018 0.67778 0.16379 0.0
N652 N 0.44822 0.73336 0.1611 0.0
N653 N 0.35174 0.63295 0.09869 0.0
C654 C 0.42209 0.71003 0.14677 0.0
C655 C 0.37219 0.65877 0.11568 0.0
N656 N 0.39636 0.74818 0.09817 0.0
N657 N 0.3837 0.62639 0.17375 0.0
H658 H 0.33698 0.63542 0.0726 0.0
H659 H 0.35106 0.60852 0.10944 0.0
H660 H 0.39808 0.62254 0.19989 0.0
H661 H 0.36073 0.60926 0.16818 0.0
H662 H 0.4088 0.7695 0.11073 0.0
H663 H 0.37899 0.75325 0.074 0.0
H664 H 0.45461 0.75625 0.14791 0.0
H665 H 0.46438 0.72907 0.18621 0.0
C666 C 0.09122 0.79182 0.6015 0.0
C667 C 0.12517 0.81218 0.59221 0.0
C668 C 0.11773 0.84259 0.65273 0.0
C669 C 0.08292 0.82336 0.66086 0.0
N670 N 0.04529 0.77258 0.65113 0.0
N671 N 0.17856 0.84798 0.61476 0.0
C672 C 0.0732 0.79516 0.63818 0.0
C673 C 0.14128 0.83433 0.62013 0.0
N674 N 0.07372 0.77176 0.57449 0.0
N675 N 0.12654 0.87013 0.67448 0.0
H676 H 0.19631 0.84194 0.59109 0.0
H677 H 0.19318 0.86241 0.63537 0.0
H678 H 0.10962 0.87661 0.69852 0.0
H679 H 0.149 0.88739 0.66747 0.0
H680 H 0.04629 0.7596 0.57869 0.0
H681 H 0.08466 0.76919 0.54676 0.0
H682 H 0.03903 0.74996 0.63732 0.0
H683 H 0.03157 0.77511 0.67788 0.0
C684 C 0.15464 0.24907 0.28285 0.0
C685 C 0.19001 0.23195 0.29426 0.0
C686 C 0.1591 0.17817 0.2768 0.0
C687 C 0.12162 0.19456 0.27356 0.0
N688 N 0.08296 0.24544 0.2701 0.0
N689 N 0.22718 0.18027 0.30119 0.0
C690 C 0.11933 0.23011 0.27459 0.0
C691 C 0.19298 0.19653 0.29008 0.0
N692 N 0.155 0.28338 0.2803 0.0
N693 N 0.16171 0.14482 0.2678 0.0
H694 H 0.25282 0.19288 0.31062 0.0
H695 H 0.22953 0.15423 0.30312 0.0
H696 H 0.13688 0.1311 0.25826 0.0
H697 H 0.18868 0.1317 0.26635 0.0
H698 H 0.13136 0.29743 0.26929 0.0
H699 H 0.18057 0.29768 0.28633 0.0
H700 H 0.07802 0.27089 0.27507 0.0
H701 H 0.05709 0.23219 0.26247 0.0
C702 C 0.34361 0.2516 0.75973 0.0
C703 C 0.30899 0.26684 0.77568 0.0
C704 C 0.34376 0.32091 0.77472 0.0
C705 C 0.3807 0.30329 0.77251 0.0
N706 N 0.4162 0.25234 0.75638 0.0
N707 N 0.2715 0.31758 0.766 0.0
C708 C 0.38087 0.26887 0.76215 0.0
C709 C 0.3073 0.30233 0.77327 0.0
N710 N 0.33979 0.22355 0.73772 0.0
N711 N 0.34364 0.35497 0.77965 0.0
H712 H 0.24549 0.30342 0.76118 0.0
H713 H 0.26863 0.34326 0.76075 0.0
H714 H 0.36993 0.36936 0.77871 0.0
H715 H 0.31771 0.36856 0.78581 0.0
H716 H 0.36372 0.21302 0.72269 0.0
H717 H 0.31148 0.21402 0.73059 0.0
H718 H 0.41759 0.22636 0.75256 0.0
H719 H 0.44402 0.26448 0.7572 0.0
C720 C 0.66044 0.25156 0.74574 0.0
C721 C 0.6952 0.2694 0.73354 0.0
C722 C 0.66224 0.32271 0.74841 0.0
C723 C 0.62535 0.30524 0.75215 0.0
N724 N 0.58857 0.25335 0.75815 0.0
N725 N 0.73076 0.32183 0.72476 0.0
C726 C 0.62438 0.26965 0.75296 0.0
C727 C 0.69693 0.30497 0.73622 0.0
N728 N 0.66209 0.21741 0.74991 0.0
N729 N 0.66349 0.35642 0.75587 0.0
H730 H 0.75699 0.30962 0.71631 0.0
H731 H 0.73231 0.34785 0.72172 0.0
H732 H 0.63806 0.36965 0.76471 0.0
H733 H 0.68992 0.37047 0.75678 0.0
H734 H 0.6389 0.20299 0.7615 0.0
H735 H 0.68826 0.20376 0.74466 0.0
H736 H 0.58464 0.22756 0.75456 0.0
H737 H 0.56213 0.26605 0.76494 0.0
C738 C 0.84724 0.25421 0.2641 0.0
C739 C 0.81114 0.2387 0.25173 0.0
C740 C 0.84353 0.18387 0.25706 0.0
C741 C 0.88127 0.20049 0.25577 0.0
N742 N 0.91988 0.25133 0.26453 0.0
N743 N 0.77151 0.18984 0.26648 0.0
C744 C 0.88349 0.23562 0.26195 0.0
C745 C 0.80801 0.20357 0.25784 0.0
N746 N 0.84591 0.28383 0.28353 0.0
N747 N 0.84173 0.14959 0.25538 0.0
H748 H 0.74606 0.20493 0.26955 0.0
H749 H 0.76741 0.16474 0.27417 0.0
H750 H 0.86745 0.13464 0.25623 0.0
H751 H 0.81502 0.13623 0.25187 0.0
H752 H 0.87123 0.295 0.29565 0.0
H753 H 0.81857 0.29385 0.29267 0.0
H754 H 0.92284 0.27745 0.26507 0.0
H755 H 0.94692 0.2381 0.26456 0.0
C756 C 0.86787 0.73437 0.70994 0.0
C757 C 0.8289 0.74525 0.72087 0.0
C758 C 0.85757 0.79562 0.75073 0.0
C759 C 0.8962 0.78529 0.73835 0.0
N760 N 0.93984 0.74055 0.71858 0.0
N761 N 0.78776 0.7801 0.7612 0.0
C762 C 0.90182 0.75301 0.72233 0.0
C763 C 0.8242 0.77383 0.7447 0.0
N764 N 0.87241 0.7078 0.68554 0.0
N765 N 0.8523 0.82703 0.7657 0.0
H766 H 0.76293 0.76438 0.7572 0.0
H767 H 0.78316 0.79884 0.78152 0.0
H768 H 0.87607 0.84349 0.77091 0.0
H769 H 0.82421 0.8375 0.77101 0.0
H770 H 0.8998 0.70136 0.67315 0.0
H771 H 0.8484 0.69357 0.67531 0.0
H772 H 0.94592 0.71599 0.71009 0.0
H773 H 0.9651 0.75388 0.72787 0.0
C774 C 0.6498 0.74966 0.24417 0.0
C775 C 0.68537 0.73447 0.23013 0.0
C776 C 0.65618 0.67869 0.24094 0.0
C777 C 0.61834 0.69396 0.24668 0.0
N778 N 0.57849 0.74332 0.2579 0.0
N779 N 0.72428 0.68471 0.21707 0.0
C780 C 0.61513 0.7293 0.2506 0.0
C781 C 0.6895 0.69896 0.23004 0.0
N782 N 0.64931 0.78354 0.2507 0.0
N783 N 0.65965 0.64464 0.24513 0.0
H784 H 0.74964 0.69879 0.2097 0.0
H785 H 0.72758 0.6591 0.21187 0.0
H786 H 0.63519 0.62945 0.2526 0.0
H787 H 0.68691 0.63191 0.24459 0.0
H788 H 0.62547 0.79609 0.26354 0.0
H789 H 0.67447 0.79876 0.246 0.0
H790 H 0.57282 0.76902 0.25675 0.0
H791 H 0.55309 0.72885 0.26412 0.0
C792 C 0.30792 0.69932 0.28893 0.0
C793 C 0.31277 0.73482 0.28846 0.0
C794 C 0.3834 0.72879 0.26975 0.0
C795 C 0.37916 0.69345 0.2733 0.0
N796 N 0.33629 0.64486 0.27292 0.0
N797 N 0.35038 0.78323 0.26741 0.0
C798 C 0.34078 0.67872 0.27808 0.0
C799 C 0.34901 0.7495 0.27487 0.0
N800 N 0.27305 0.68529 0.30232 0.0
N801 N 0.42064 0.74252 0.26414 0.0
H802 H 0.32541 0.79873 0.27102 0.0
H803 H 0.37479 0.79522 0.25459 0.0
H804 H 0.44607 0.7279 0.25917 0.0
H805 H 0.4267 0.76818 0.26586 0.0
H806 H 0.26953 0.65968 0.30766 0.0
H807 H 0.24814 0.69947 0.3103 0.0
H808 H 0.30856 0.63267 0.27281 0.0
H809 H 0.36034 0.62956 0.26496 0.0
C810 C 0.17975 0.77722 0.77445 0.0
C811 C 0.17595 0.74754 0.79679 0.0
C812 C 0.10278 0.75264 0.79386 0.0
C813 C 0.10723 0.78582 0.77984 0.0
N814 N 0.15037 0.83095 0.75816 0.0
N815 N 0.13316 0.70778 0.83027 0.0
C816 C 0.14575 0.79828 0.76956 0.0
C817 C 0.13723 0.73495 0.80652 0.0
N818 N 0.21596 0.78535 0.7584 0.0
N819 N 0.06537 0.73847 0.79577 0.0
H820 H 0.15743 0.69452 0.84137 0.0
H821 H 0.10565 0.70005 0.84159 0.0
H822 H 0.03976 0.75115 0.78639 0.0
H823 H 0.06041 0.7133 0.80274 0.0
H824 H 0.21976 0.80515 0.73914 0.0
H825 H 0.24126 0.77013 0.76143 0.0
H826 H 0.1783 0.84242 0.75448 0.0
H827 H 0.12629 0.84737 0.7551 0.0
loop_
_geom_bond_atom_site_label_1
_geom_bond_atom_site_label_2
_geom_bond_distance
_geom_bond_site_symmetry_2
_ccdc_geom_bond_type
C0 C1 1.386 . S
C0 C2 1.397 . S
C0 H24 0.931 . S
C1 C0 1.386 . S
C1 C5 1.397 . S
C2 C0 1.397 . S
C2 C3 1.384 . S
C2 H25 0.930 . S
C3 C2 1.384 . S
C3 C4 1.377 . S
C3 C6 1.481 . S
C4 C3 1.377 . S
C4 C5 1.389 . S
C4 H26 0.929 . S
C5 C1 1.397 . S
C5 C4 1.389 . S
C5 H27 0.931 . S
C6 C3 1.481 . S
C6 C7 1.387 . S
C6 C11 1.390 . S
C7 C6 1.387 . S
C7 C8 1.401 . S
C7 H28 0.930 . S
C8 C7 1.401 . S
C8 C9 1.376 . S
C8 C17 1.511 . S
C9 C8 1.376 . S
C9 C10 1.392 . S
C9 H30 0.931 . S
C10 C9 1.392 . S
C10 C11 1.361 . S
C10 C12 1.500 . S
C11 C6 1.390 . S
C11 C10 1.361 . S
C11 H29 0.931 . S
C12 C10 1.500 . S
C12 C13 1.371 . S
C12 C14 1.365 . S
C13 C12 1.371 . S
C13 C23 1.386 . S
C13 H31 0.931 . S
C14 C12 1.365 . S
C14 C15 1.409 . S
C14 H32 0.929 . S
C15 C14 1.409 . S
C15 C16 1.380 . S
C15 H33 0.930 . S
C16 C15 1.380 . S
C16 C23 1.357 . S
C17 C8 1.511 . S
C17 C18 1.341 . S
C17 C19 1.371 . S
C18 C17 1.341 . S
C18 C22 1.394 . S
C18 H34 0.930 . S
C19 C17 1.371 . S
C19 C20 1.392 . S
C19 H35 0.931 . S
C20 C19 1.392 . S
C20 C21 1.331 . S
C20 H38 0.932 . S
C21 C20 1.331 . S
C21 C22 1.336 . S
C22 C18 1.394 . S
C22 C21 1.336 . S
C22 H37 0.929 . S
C23 C13 1.386 . S
C23 C16 1.357 . S
C23 H36 0.928 . S
H24 C0 0.931 . S
H25 C2 0.930 . S
H26 C4 0.929 . S
H27 C5 0.931 . S
H28 C7 0.930 . S
H29 C11 0.931 . S
H30 C9 0.931 . S
H31 C13 0.931 . S
H32 C14 0.929 . S
H33 C15 0.930 . S
H34 C18 0.930 . S
H35 C19 0.931 . S
H36 C23 0.928 . S
H37 C22 0.929 . S
H38 C20 0.932 . S
C39 C40 1.386 . S
C39 C41 1.397 . S
C39 H63 0.931 . S
C40 C39 1.386 . S
C40 C44 1.397 . S
C41 C39 1.397 . S
C41 C42 1.384 . S
C41 H64 0.930 . S
C42 C41 1.384 . S
C42 C43 1.377 . S
C42 C45 1.481 . S
C43 C42 1.377 . S
C43 C44 1.389 . S
C43 H65 0.929 . S
C44 C40 1.397 . S
C44 C43 1.389 . S
C44 H66 0.931 . S
C45 C42 1.481 . S
C45 C46 1.387 . S
C45 C50 1.390 . S
C46 C45 1.387 . S
C46 C47 1.401 . S
C46 H67 0.930 . S
C47 C46 1.401 . S
C47 C48 1.376 . S
C47 C56 1.511 . S
C48 C47 1.376 . S
C48 C49 1.392 . S
C48 H69 0.931 . S
C49 C48 1.392 . S
C49 C50 1.361 . S
C49 C51 1.500 . S
C50 C45 1.390 . S
C50 C49 1.361 . S
C50 H68 0.931 . S
C51 C49 1.500 . S
C51 C52 1.371 . S
C51 C53 1.365 . S
C52 C51 1.371 . S
C52 C62 1.386 1_556 S
C52 H70 0.931 . S
C53 C51 1.365 . S
C53 C54 1.409 1_556 S
C53 H71 0.929 . S
C54 C53 1.409 1_554 S
C54 C55 1.380 . S
C54 H72 0.930 . S
C55 C54 1.380 . S
C55 C62 1.357 . S
C56 C47 1.511 . S
C56 C57 1.341 . S
C56 C58 1.371 . S
C57 C56 1.341 . S
C57 C61 1.394 . S
C57 H73 0.930 . S
C58 C56 1.371 . S
C58 C59 1.392 . S
C58 H74 0.931 . S
C59 C58 1.392 . S
C59 C60 1.331 . S
C59 H77 0.932 . S
C60 C59 1.331 . S
C60 C61 1.336 . S
C61 C57 1.394 . S
C61 C60 1.336 . S
C61 H76 0.929 . S
C62 C52 1.386 1_554 S
C62 C55 1.357 . S
C62 H75 0.928 . S
H63 C39 0.931 . S
H64 C41 0.930 . S
H65 C43 0.929 . S
H66 C44 0.931 . S
H67 C46 0.930 . S
H68 C50 0.931 . S
H69 C48 0.931 . S
H70 C52 0.931 . S
H71 C53 0.929 . S
H72 C54 0.930 . S
H73 C57 0.930 . S
H74 C58 0.931 . S
H75 C62 0.928 . S
H76 C61 0.929 . S
H77 C59 0.932 . S
C78 C79 1.386 . S
C78 C80 1.397 . S
C78 H102 0.931 . S
C79 C78 1.386 . S
C79 C83 1.397 . S
C80 C78 1.397 . S
C80 C81 1.384 . S
C80 H103 0.930 . S
C81 C80 1.384 . S
C81 C82 1.377 . S
C81 C84 1.481 . S
C82 C81 1.377 . S
C82 C83 1.389 . S
C82 H104 0.929 . S
C83 C79 1.397 . S
C83 C82 1.389 . S
C83 H105 0.931 . S
C84 C81 1.481 . S
C84 C85 1.387 . S
C84 C89 1.390 . S
C85 C84 1.387 . S
C85 C86 1.401 . S
C85 H106 0.930 . S
C86 C85 1.401 . S
C86 C87 1.376 . S
C86 C95 1.511 . S
C87 C86 1.376 . S
C87 C88 1.392 . S
C87 H108 0.931 . S
C88 C87 1.392 . S
C88 C89 1.361 . S
C88 C90 1.500 . S
C89 C84 1.390 . S
C89 C88 1.361 . S
C89 H107 0.931 . S
C90 C88 1.500 . S
C90 C91 1.371 . S
C90 C92 1.365 . S
C91 C90 1.371 . S
C91 C101 1.386 . S
C91 H109 0.931 . S
C92 C90 1.365 . S
C92 C93 1.409 . S
C92 H110 0.929 . S
C93 C92 1.409 . S
C93 C94 1.380 . S
C93 H111 0.930 . S
C94 C93 1.380 . S
C94 C101 1.357 . S
C95 C86 1.511 . S
C95 C96 1.341 . S
C95 C97 1.371 . S
C96 C95 1.341 . S
C96 C100 1.394 . S
C96 H112 0.930 . S
C97 C95 1.371 . S
C97 C98 1.392 . S
C97 H113 0.931 . S
C98 C97 1.392 . S
C98 C99 1.331 . S
C98 H116 0.932 . S
C99 C98 1.331 . S
C99 C100 1.336 . S
C100 C96 1.394 . S
C100 C99 1.336 . S
C100 H115 0.929 . S
C101 C91 1.386 . S
C101 C94 1.357 . S
C101 H114 0.928 . S
H102 C78 0.931 . S
H103 C80 0.930 . S
H104 C82 0.929 . S
H105 C83 0.931 . S
H106 C85 0.930 . S
H107 C89 0.931 . S
H108 C87 0.931 . S
H109 C91 0.931 . S
H110 C92 0.929 . S
H111 C93 0.930 . S
H112 C96 0.930 . S
H113 C97 0.931 . S
H114 C101 0.928 . S
H115 C100 0.929 . S
H116 C98 0.932 . S
C117 C118 1.386 . S
C117 C119 1.397 . S
C117 H141 0.931 . S
C118 C117 1.386 . S
C118 C122 1.397 . S
C119 C117 1.397 . S
C119 C120 1.384 . S
C119 H142 0.930 . S
C120 C119 1.384 . S
C120 C121 1.377 . S
C120 C123 1.481 . S
C121 C120 1.377 . S
C121 C122 1.389 . S
C121 H143 0.929 . S
C122 C118 1.397 . S
C122 C121 1.389 . S
C122 H144 0.931 . S
C123 C120 1.481 . S
C123 C124 1.387 . S
C123 C128 1.390 . S
C124 C123 1.387 . S
C124 C125 1.401 . S
C124 H145 0.930 . S
C125 C124 1.401 . S
C125 C126 1.376 . S
C125 C134 1.511 . S
C126 C125 1.376 . S
C126 C127 1.392 . S
C126 H147 0.931 . S
C127 C126 1.392 . S
C127 C128 1.361 . S
C127 C129 1.500 . S
C128 C123 1.390 . S
C128 C127 1.361 . S
C128 H146 0.931 . S
C129 C127 1.500 . S
C129 C130 1.371 . S
C129 C131 1.365 . S
C130 C129 1.371 . S
C130 C140 1.386 1_554 S
C130 H148 0.931 . S
C131 C129 1.365 . S
C131 C132 1.409 1_554 S
C131 H149 0.929 . S
C132 C131 1.409 1_556 S
C132 C133 1.380 . S
C132 H150 0.930 . S
C133 C132 1.380 . S
C133 C140 1.357 . S
C134 C125 1.511 . S
C134 C135 1.341 . S
C134 C136 1.371 . S
C135 C134 1.341 . S
C135 C139 1.394 . S
C135 H151 0.930 . S
C136 C134 1.371 . S
C136 C137 1.392 . S
C136 H152 0.931 . S
C137 C136 1.392 . S
C137 C138 1.331 . S
C137 H155 0.932 . S
C138 C137 1.331 . S
C138 C139 1.336 . S
C139 C135 1.394 . S
C139 C138 1.336 . S
C139 H154 0.929 . S
C140 C130 1.386 1_556 S
C140 C133 1.357 . S
C140 H153 0.928 . S
H141 C117 0.931 . S
H142 C119 0.930 . S
H143 C121 0.929 . S
H144 C122 0.931 . S
H145 C124 0.930 . S
H146 C128 0.931 . S
H147 C126 0.931 . S
H148 C130 0.931 . S
H149 C131 0.929 . S
H150 C132 0.930 . S
H151 C135 0.930 . S
H152 C136 0.931 . S
H153 C140 0.928 . S
H154 C139 0.929 . S
H155 C137 0.932 . S
C156 C157 1.386 . S
C156 C158 1.397 . S
C156 H180 0.931 . S
C157 C156 1.386 . S
C157 C161 1.397 . S
C158 C156 1.397 . S
C158 C159 1.384 . S
C158 H181 0.930 . S
C159 C158 1.384 . S
C159 C160 1.377 . S
C159 C162 1.481 . S
C160 C159 1.377 . S
C160 C161 1.389 . S
C160 H182 0.929 . S
C161 C157 1.397 . S
C161 C160 1.389 . S
C161 H183 0.931 . S
C162 C159 1.481 . S
C162 C163 1.387 . S
C162 C167 1.390 . S
C163 C162 1.387 . S
C163 C164 1.401 . S
C163 H184 0.930 . S
C164 C163 1.401 . S
C164 C165 1.376 . S
C164 C173 1.511 . S
C165 C164 1.376 . S
C165 C166 1.392 . S
C165 H186 0.931 . S
C166 C165 1.392 . S
C166 C167 1.361 . S
C166 C168 1.500 . S
C167 C162 1.390 . S
C167 C166 1.361 . S
C167 H185 0.931 . S
C168 C166 1.500 . S
C168 C169 1.371 . S
C168 C170 1.365 . S
C169 C168 1.371 . S
C169 C179 1.386 . S
C169 H187 0.931 . S
C170 C168 1.365 . S
C170 C171 1.409 . S
C170 H188 0.929 . S
C171 C170 1.409 . S
C171 C172 1.380 . S
C171 H189 0.930 . S
C172 C171 1.380 . S
C172 C179 1.357 . S
C173 C164 1.511 . S
C173 C174 1.341 . S
C173 C175 1.371 . S
C174 C173 1.341 . S
C174 C178 1.394 . S
C174 H190 0.930 . S
C175 C173 1.371 . S
C175 C176 1.392 . S
C175 H191 0.931 . S
C176 C175 1.392 . S
C176 C177 1.331 . S
C176 H194 0.932 . S
C177 C176 1.331 . S
C177 C178 1.336 . S
C178 C174 1.394 . S
C178 C177 1.336 . S
C178 H193 0.929 . S
C179 C169 1.386 . S
C179 C172 1.357 . S
C179 H192 0.928 . S
H180 C156 0.931 . S
H181 C158 0.930 . S
H182 C160 0.929 . S
H183 C161 0.931 . S
H184 C163 0.930 . S
H185 C167 0.931 . S
H186 C165 0.931 . S
H187 C169 0.931 . S
H188 C170 0.929 . S
H189 C171 0.930 . S
H190 C174 0.930 . S
H191 C175 0.931 . S
H192 C179 0.928 . S
H193 C178 0.929 . S
H194 C176 0.932 . S
C195 C196 1.386 . S
C195 C197 1.397 1_556 S
C195 H219 0.931 . S
C196 C195 1.386 . S
C196 C200 1.397 . S
C197 C195 1.397 1_554 S
C197 C198 1.384 . S
C197 H220 0.930 . S
C198 C197 1.384 . S
C198 C199 1.377 . S
C198 C201 1.481 . S
C199 C198 1.377 . S
C199 C200 1.389 1_554 S
C199 H221 0.929 . S
C200 C196 1.397 . S
C200 C199 1.389 1_556 S
C200 H222 0.931 . S
C201 C198 1.481 . S
C201 C202 1.387 . S
C201 C206 1.390 . S
C202 C201 1.387 . S
C202 C203 1.401 . S
C202 H223 0.930 . S
C203 C202 1.401 . S
C203 C204 1.376 . S
C203 C212 1.511 . S
C204 C203 1.376 . S
C204 C205 1.392 . S
C204 H225 0.931 . S
C205 C204 1.392 . S
C205 C206 1.361 . S
C205 C207 1.500 . S
C206 C201 1.390 . S
C206 C205 1.361 . S
C206 H224 0.931 . S
C207 C205 1.500 . S
C207 C208 1.371 . S
C207 C209 1.365 . S
C208 C207 1.371 . S
C208 C218 1.386 . S
C208 H226 0.931 . S
C209 C207 1.365 . S
C209 C210 1.409 . S
C209 H227 0.929 . S
C210 C209 1.409 . S
C210 C211 1.380 . S
C210 H228 0.930 . S
C211 C210 1.380 . S
C211 C218 1.357 . S
C212 C203 1.511 . S
C212 C213 1.341 . S
C212 C214 1.371 . S
C213 C212 1.341 . S
C213 C217 1.394 . S
C213 H229 0.930 . S
C214 C212 1.371 . S
C214 C215 1.392 . S
C214 H230 0.931 . S
C215 C214 1.392 . S
C215 C216 1.331 . S
C215 H233 0.932 . S
C216 C215 1.331 . S
C216 C217 1.336 . S
C217 C213 1.394 . S
C217 C216 1.336 . S
C217 H232 0.929 . S
C218 C208 1.386 . S
C218 C211 1.357 . S
C218 H231 0.928 . S
H219 C195 0.931 . S
H220 C197 0.930 . S
H221 C199 0.929 . S
H222 C200 0.931 . S
H223 C202 0.930 . S
H224 C206 0.931 . S
H225 C204 0.931 . S
H226 C208 0.931 . S
H227 C209 0.929 . S
H228 C210 0.930 . S
H229 C213 0.930 . S
H230 C214 0.931 . S
H231 C218 0.928 . S
H232 C217 0.929 . S
H233 C215 0.932 . S
C234 C235 1.386 . S
C234 C236 1.397 . S
C234 H258 0.931 . S
C235 C234 1.386 . S
C235 C239 1.397 . S
C236 C234 1.397 . S
C236 C237 1.384 . S
C236 H259 0.930 . S
C237 C236 1.384 . S
C237 C238 1.377 . S
C237 C240 1.481 . S
C238 C237 1.377 . S
C238 C239 1.389 . S
C238 H260 0.929 . S
C239 C235 1.397 . S
C239 C238 1.389 . S
C239 H261 0.931 . S
C240 C237 1.481 . S
C240 C241 1.387 . S
C240 C245 1.390 . S
C241 C240 1.387 . S
C241 C242 1.401 . S
C241 H262 0.930 . S
C242 C241 1.401 . S
C242 C243 1.376 . S
C242 C251 1.511 . S
C243 C242 1.376 . S
C243 C244 1.392 . S
C243 H264 0.931 . S
C244 C243 1.392 . S
C244 C245 1.361 . S
C244 C246 1.500 . S
C245 C240 1.390 . S
C245 C244 1.361 . S
C245 H263 0.931 . S
C246 C244 1.500 . S
C246 C247 1.371 . S
C246 C248 1.365 . S
C247 C246 1.371 . S
C247 C257 1.386 . S
C247 H265 0.931 . S
C248 C246 1.365 . S
C248 C249 1.409 . S
C248 H266 0.929 . S
C249 C248 1.409 . S
C249 C250 1.380 . S
C249 H267 0.930 . S
C250 C249 1.380 . S
C250 C257 1.357 . S
C251 C242 1.511 . S
C251 C252 1.341 . S
C251 C253 1.371 . S
C252 C251 1.341 . S
C252 C256 1.394 . S
C252 H268 0.930 . S
C253 C251 1.371 . S
C253 C254 1.392 . S
C253 H269 0.931 . S
C254 C253 1.392 . S
C254 C255 1.331 . S
C254 H272 0.932 . S
C255 C254 1.331 . S
C255 C256 1.336 . S
C256 C252 1.394 . S
C256 C255 1.336 . S
C256 H271 0.929 . S
C257 C247 1.386 . S
C257 C250 1.357 . S
C257 H270 0.928 . S
H258 C234 0.931 . S
H259 C236 0.930 . S
H260 C238 0.929 . S
H261 C239 0.931 . S
H262 C241 0.930 . S
H263 C245 0.931 . S
H264 C243 0.931 . S
H265 C247 0.931 . S
H266 C248 0.929 . S
H267 C249 0.930 . S
H268 C252 0.930 . S
H269 C253 0.931 . S
H270 C257 0.928 . S
H271 C256 0.929 . S
H272 C254 0.932 . S
C273 C274 1.386 . S
C273 C275 1.397 1_554 S
C273 H297 0.931 . S
C274 C273 1.386 . S
C274 C278 1.397 . S
C275 C273 1.397 1_556 S
C275 C276 1.384 . S
C275 H298 0.930 . S
C276 C275 1.384 . S
C276 C277 1.377 . S
C276 C279 1.481 . S
C277 C276 1.377 . S
C277 C278 1.389 1_556 S
C277 H299 0.929 . S
C278 C274 1.397 . S
C278 C277 1.389 1_554 S
C278 H300 0.931 . S
C279 C276 1.481 . S
C279 C280 1.387 . S
C279 C284 1.390 . S
C280 C279 1.387 . S
C280 C281 1.401 . S
C280 H301 0.930 . S
C281 C280 1.401 . S
C281 C282 1.376 . S
C281 C290 1.511 . S
C282 C281 1.376 . S
C282 C283 1.392 . S
C282 H303 0.931 . S
C283 C282 1.392 . S
C283 C284 1.361 . S
C283 C285 1.500 . S
C284 C279 1.390 . S
C284 C283 1.361 . S
C284 H302 0.931 . S
C285 C283 1.500 . S
C285 C286 1.371 . S
C285 C287 1.365 . S
C286 C285 1.371 . S
C286 C296 1.386 . S
C286 H304 0.931 . S
C287 C285 1.365 . S
C287 C288 1.409 . S
C287 H305 0.929 . S
C288 C287 1.409 . S
C288 C289 1.380 . S
C288 H306 0.930 . S
C289 C288 1.380 . S
C289 C296 1.357 . S
C290 C281 1.511 . S
C290 C291 1.341 . S
C290 C292 1.371 . S
C291 C290 1.341 . S
C291 C295 1.394 . S
C291 H307 0.930 . S
C292 C290 1.371 . S
C292 C293 1.392 . S
C292 H308 0.931 . S
C293 C292 1.392 . S
C293 C294 1.331 . S
C293 H311 0.932 . S
C294 C293 1.331 . S
C294 C295 1.336 . S
C295 C291 1.394 . S
C295 C294 1.336 . S
C295 H310 0.929 . S
C296 C286 1.386 . S
C296 C289 1.357 . S
C296 H309 0.928 . S
H297 C273 0.931 . S
H298 C275 0.930 . S
H299 C277 0.929 . S
H300 C278 0.931 . S
H301 C280 0.930 . S
H302 C284 0.931 . S
H303 C282 0.931 . S
H304 C286 0.931 . S
H305 C287 0.929 . S
H306 C288 0.930 . S
H307 C291 0.930 . S
H308 C292 0.931 . S
H309 C296 0.928 . S
H310 C295 0.929 . S
H311 C293 0.932 . S
Zn312 O318 1.920 1_455 S
Zn312 O324 1.898 . S
Zn312 O327 1.905 . S
Zn313 O321 1.905 1_655 S
Zn313 O322 1.898 . S
Zn313 O330 1.920 . S
Zn314 O317 2.080 1_455 S
Zn314 O320 2.114 . S
Zn314 O323 2.120 1_455 S
Zn314 O325 2.120 . S
Zn314 O326 2.114 . S
Zn314 O329 2.080 1_455 S
C315 O320 1.166 . S
C315 O321 1.182 . S
C316 O322 1.167 . S
C316 O323 1.299 . S
O317 Zn314 2.080 1_655 S
O317 C331 1.305 . S
O318 Zn312 1.920 1_655 S
O318 C331 1.234 . S
C319 O324 1.167 . S
C319 O325 1.299 . S
O320 Zn314 2.114 . S
O320 C315 1.166 . S
O321 Zn313 1.905 1_455 S
O321 C315 1.182 . S
O322 Zn313 1.898 . S
O322 C316 1.167 . S
O323 Zn314 2.120 1_655 S
O323 C316 1.299 . S
O324 Zn312 1.898 . S
O324 C319 1.167 . S
O325 Zn314 2.120 . S
O325 C319 1.299 . S
O326 Zn314 2.114 . S
O326 C328 1.166 . S
O327 Zn312 1.905 . S
O327 C328 1.182 . S
C328 O326 1.166 . S
C328 O327 1.182 . S
O329 Zn314 2.080 1_655 S
O329 C332 1.305 . S
O330 Zn313 1.920 . S
O330 C332 1.234 . S
C331 O317 1.305 . S
C331 O318 1.234 . S
C332 O329 1.305 . S
C332 O330 1.234 . S
Zn333 O339 1.920 . S
Zn333 O345 1.898 . S
Zn333 O348 1.905 . S
Zn334 O342 1.905 . S
Zn334 O343 1.898 . S
Zn334 O351 1.920 . S
Zn335 O338 2.080 . S
Zn335 O341 2.114 . S
Zn335 O344 2.120 . S
Zn335 O346 2.120 . S
Zn335 O347 2.114 . S
Zn335 O350 2.080 . S
C336 O341 1.166 . S
C336 O342 1.182 . S
C337 O343 1.167 . S
C337 O344 1.299 . S
O338 Zn335 2.080 . S
O338 C352 1.305 . S
O339 Zn333 1.920 . S
O339 C352 1.234 . S
C340 O345 1.167 . S
C340 O346 1.299 . S
O341 Zn335 2.114 . S
O341 C336 1.166 . S
O342 Zn334 1.905 . S
O342 C336 1.182 . S
O343 Zn334 1.898 . S
O343 C337 1.167 . S
O344 Zn335 2.120 . S
O344 C337 1.299 . S
O345 Zn333 1.898 . S
O345 C340 1.167 . S
O346 Zn335 2.120 . S
O346 C340 1.299 . S
O347 Zn335 2.114 . S
O347 C349 1.166 . S
O348 Zn333 1.905 . S
O348 C349 1.182 . S
C349 O347 1.166 . S
C349 O348 1.182 . S
O350 Zn335 2.080 . S
O350 C353 1.305 . S
O351 Zn334 1.920 . S
O351 C353 1.234 . S
C352 O338 1.305 . S
C352 O339 1.234 . S
C353 O350 1.305 . S
C353 O351 1.234 . S
Zn354 O360 1.920 . S
Zn354 O366 1.898 . S
Zn354 O369 1.905 1_455 S
Zn355 O363 1.905 . S
Zn355 O364 1.898 . S
Zn355 O372 1.920 1_655 S
Zn356 O359 2.093 . S
Zn356 O362 2.100 1_455 S
Zn356 O365 2.108 1_455 S
Zn356 O367 2.134 . S
Zn356 O368 2.104 1_455 S
Zn356 O371 2.091 . S
C357 O362 1.166 . S
C357 O363 1.182 . S
C358 O364 1.167 . S
C358 O365 1.299 . S
O359 Zn356 2.093 . S
O359 C373 1.305 . S
O360 Zn354 1.920 . S
O360 C373 1.234 . S
C361 O366 1.167 . S
C361 O367 1.299 . S
O362 Zn356 2.100 1_655 S
O362 C357 1.166 . S
O363 Zn355 1.905 . S
O363 C357 1.182 . S
O364 Zn355 1.898 . S
O364 C358 1.167 . S
O365 Zn356 2.108 1_655 S
O365 C358 1.299 . S
O366 Zn354 1.898 . S
O366 C361 1.167 . S
O367 Zn356 2.134 . S
O367 C361 1.299 . S
O368 Zn356 2.104 1_655 S
O368 C370 1.166 . S
O369 Zn354 1.905 1_655 S
O369 C370 1.182 . S
C370 O368 1.166 . S
C370 O369 1.182 . S
O371 Zn356 2.091 . S
O371 C374 1.305 . S
O372 Zn355 1.920 1_455 S
O372 C374 1.234 . S
C373 O359 1.305 . S
C373 O360 1.234 . S
C374 O371 1.305 . S
C374 O372 1.234 . S
Zn375 O381 1.920 . S
Zn375 O387 1.898 . S
Zn375 O390 1.905 . S
Zn376 O384 1.905 . S
Zn376 O385 1.898 . S
Zn376 O393 1.920 . S
Zn377 O380 2.080 . S
Zn377 O383 2.114 . S
Zn377 O386 2.120 . S
Zn377 O388 2.120 . S
Zn377 O389 2.114 . S
Zn377 O392 2.080 . S
C378 O383 1.166 . S
C378 O384 1.182 . S
C379 O385 1.167 . S
C379 O386 1.299 . S
O380 Zn377 2.080 . S
O380 C394 1.305 . S
O381 Zn375 1.920 . S
O381 C394 1.234 . S
C382 O387 1.167 . S
C382 O388 1.299 . S
O383 Zn377 2.114 . S
O383 C378 1.166 . S
O384 Zn376 1.905 . S
O384 C378 1.182 . S
O385 Zn376 1.898 . S
O385 C379 1.167 . S
O386 Zn377 2.120 . S
O386 C379 1.299 . S
O387 Zn375 1.898 . S
O387 C382 1.167 . S
O388 Zn377 2.120 . S
O388 C382 1.299 . S
O389 Zn377 2.114 . S
O389 C391 1.166 . S
O390 Zn375 1.905 . S
O390 C391 1.182 . S
C391 O389 1.166 . S
C391 O390 1.182 . S
O392 Zn377 2.080 . S
O392 C395 1.305 . S
O393 Zn376 1.920 . S
O393 C395 1.234 . S
C394 O380 1.305 . S
C394 O381 1.234 . S
C395 O392 1.305 . S
C395 O393 1.234 . S
C396 C397 1.363 1_545 S
C396 C402 1.379 . S
C396 N404 1.356 1_545 S
C397 C396 1.363 1_565 S
C397 C403 1.363 1_565 S
C398 C399 1.363 . S
C398 C403 1.379 . S
C398 N405 1.356 . S
C399 C398 1.363 . S
C399 C402 1.363 . S
N400 C402 1.356 . S
N400 H412 0.984 . S
N400 H413 0.985 . S
N401 C403 1.356 1_565 S
N401 H406 0.984 . S
N401 H407 0.985 1_565 S
C402 C396 1.379 . S
C402 C399 1.363 . S
C402 N400 1.356 . S
C403 C397 1.363 1_545 S
C403 C398 1.379 . S
C403 N401 1.356 1_545 S
N404 C396 1.356 1_565 S
N404 H410 0.984 . S
N404 H411 0.984 . S
N405 C398 1.356 . S
N405 H408 0.984 . S
N405 H409 0.985 . S
H406 N401 0.984 . S
H407 N401 0.985 1_545 S
H408 N405 0.984 . S
H409 N405 0.985 . S
H410 N404 0.984 . S
H411 N404 0.984 . S
H412 N400 0.984 . S
H413 N400 0.985 . S
C414 C415 1.363 . S
C414 C420 1.379 . S
C414 N422 1.356 . S
C415 C414 1.363 . S
C415 C421 1.363 . S
C416 C417 1.363 . S
C416 C421 1.379 . S
C416 N423 1.356 . S
C417 C416 1.363 . S
C417 C420 1.363 . S
N418 C420 1.356 . S
N418 H430 0.984 . S
N418 H431 0.985 . S
N419 C421 1.356 . S
N419 H424 0.984 . S
N419 H425 0.985 . S
C420 C414 1.379 . S
C420 C417 1.363 . S
C420 N418 1.356 . S
C421 C415 1.363 . S
C421 C416 1.379 . S
C421 N419 1.356 . S
N422 C414 1.356 . S
N422 H428 0.984 . S
N422 H429 0.984 . S
N423 C416 1.356 . S
N423 H426 0.984 . S
N423 H427 0.985 . S
H424 N419 0.984 . S
H425 N419 0.985 . S
H426 N423 0.984 . S
H427 N423 0.985 . S
H428 N422 0.984 . S
H429 N422 0.984 . S
H430 N418 0.984 . S
H431 N418 0.985 . S
C432 C433 1.363 . S
C432 C438 1.379 . S
C432 N440 1.356 . S
C433 C432 1.363 . S
C433 C439 1.363 . S
C434 C435 1.363 . S
C434 C439 1.379 . S
C434 N441 1.356 . S
C435 C434 1.363 . S
C435 C438 1.363 . S
N436 C438 1.356 . S
N436 H448 0.984 . S
N436 H449 0.985 . S
N437 C439 1.356 . S
N437 H442 0.984 . S
N437 H443 0.985 . S
C438 C432 1.379 . S
C438 C435 1.363 . S
C438 N436 1.356 . S
C439 C433 1.363 . S
C439 C434 1.379 . S
C439 N437 1.356 . S
N440 C432 1.356 . S
N440 H446 0.984 . S
N440 H447 0.984 . S
N441 C434 1.356 . S
N441 H444 0.984 . S
N441 H445 0.985 . S
H442 N437 0.984 . S
H443 N437 0.985 . S
H444 N441 0.984 . S
H445 N441 0.985 . S
H446 N440 0.984 . S
H447 N440 0.984 . S
H448 N436 0.984 . S
H449 N436 0.985 . S
C450 C451 1.363 1_545 S
C450 C456 1.379 . S
C450 N458 1.356 1_545 S
C451 C450 1.363 1_565 S
C451 C457 1.361 1_565 S
C452 C453 1.363 . S
C452 C457 1.385 . S
C452 N459 1.356 . S
C453 C452 1.363 . S
C453 C456 1.363 . S
N454 C456 1.356 . S
N454 H466 0.984 . S
N454 H467 0.985 . S
N455 C457 1.351 1_565 S
N455 H460 0.984 . S
N455 H461 0.985 . S
C456 C450 1.379 . S
C456 C453 1.363 . S
C456 N454 1.356 . S
C457 C451 1.361 1_545 S
C457 C452 1.385 . S
C457 N455 1.351 1_545 S
N458 C450 1.356 1_565 S
N458 H464 0.984 1_565 S
N458 H465 0.984 . S
N459 C452 1.356 . S
N459 H462 0.984 . S
N459 H463 0.985 . S
H460 N455 0.984 . S
H461 N455 0.985 . S
H462 N459 0.984 . S
H463 N459 0.985 . S
H464 N458 0.984 1_545 S
H465 N458 0.984 . S
H466 N454 0.984 . S
H467 N454 0.985 . S
C468 C469 1.369 . S
C468 C474 1.354 1_545 S
C468 N476 1.381 . S
C469 C468 1.369 . S
C469 C475 1.363 1_545 S
C470 C471 1.363 . S
C470 C475 1.379 . S
C470 N477 1.356 . S
C471 C470 1.363 . S
C471 C474 1.363 . S
N472 C474 1.356 . S
N472 H484 0.984 . S
N472 H485 0.985 . S
N473 C475 1.356 . S
N473 H478 0.984 1_565 S
N473 H479 0.985 . S
C474 C468 1.354 1_565 S
C474 C471 1.363 . S
C474 N472 1.356 . S
C475 C469 1.363 1_565 S
C475 C470 1.379 . S
C475 N473 1.356 . S
N476 C468 1.381 . S
N476 H482 0.984 . S
N476 H483 0.984 . S
N477 C470 1.356 . S
N477 H480 0.984 . S
N477 H481 0.985 . S
H478 N473 0.984 1_545 S
H479 N473 0.985 . S
H480 N477 0.984 . S
H481 N477 0.985 . S
H482 N476 0.984 . S
H483 N476 0.984 . S
H484 N472 0.984 . S
H485 N472 0.985 . S
C486 C487 1.363 . S
C486 C492 1.379 . S
C486 N494 1.356 . S
C487 C486 1.363 . S
C487 C493 1.363 . S
C488 C489 1.363 . S
C488 C493 1.379 . S
C488 N495 1.356 . S
C489 C488 1.363 . S
C489 C492 1.363 . S
N490 C492 1.356 . S
N490 H502 0.984 . S
N490 H503 0.985 . S
N491 C493 1.356 . S
N491 H496 0.984 . S
N491 H497 0.985 . S
C492 C486 1.379 . S
C492 C489 1.363 . S
C492 N490 1.356 . S
C493 C487 1.363 . S
C493 C488 1.379 . S
C493 N491 1.356 . S
N494 C486 1.356 . S
N494 H500 0.984 . S
N494 H501 0.984 . S
N495 C488 1.356 . S
N495 H498 0.984 . S
N495 H499 0.985 . S
H496 N491 0.984 . S
H497 N491 0.985 . S
H498 N495 0.984 . S
H499 N495 0.985 . S
H500 N494 0.984 . S
H501 N494 0.984 . S
H502 N490 0.984 . S
H503 N490 0.985 . S
C504 C505 1.363 . S
C504 C510 1.379 . S
C504 N512 1.356 . S
C505 C504 1.363 . S
C505 C511 1.363 . S
C506 C507 1.363 . S
C506 C511 1.379 . S
C506 N513 1.356 . S
C507 C506 1.363 . S
C507 C510 1.363 . S
N508 C510 1.356 . S
N508 H520 0.984 . S
N508 H521 0.985 . S
N509 C511 1.356 . S
N509 H514 0.984 . S
N509 H515 0.985 . S
C510 C504 1.379 . S
C510 C507 1.363 . S
C510 N508 1.356 . S
C511 C505 1.363 . S
C511 C506 1.379 . S
C511 N509 1.356 . S
N512 C504 1.356 . S
N512 H518 0.984 . S
N512 H519 0.984 . S
N513 C506 1.356 . S
N513 H516 0.984 . S
N513 H517 0.985 . S
H514 N509 0.984 . S
H515 N509 0.985 . S
H516 N513 0.984 . S
H517 N513 0.985 . S
H518 N512 0.984 . S
H519 N512 0.984 . S
H520 N508 0.984 . S
H521 N508 0.985 . S
C522 C523 1.363 1_565 S
C522 C528 1.379 . S
C522 N530 1.356 1_565 S
C523 C522 1.363 1_545 S
C523 C529 1.363 . S
C524 C525 1.363 . S
C524 C529 1.379 1_565 S
C524 N531 1.356 . S
C525 C524 1.363 . S
C525 C528 1.363 . S
N526 C528 1.356 . S
N526 H538 0.984 . S
N526 H539 0.985 . S
N527 C529 1.356 . S
N527 H532 0.984 . S
N527 H533 0.985 . S
C528 C522 1.379 . S
C528 C525 1.363 . S
C528 N526 1.356 . S
C529 C523 1.363 . S
C529 C524 1.379 1_545 S
C529 N527 1.356 . S
N530 C522 1.356 1_545 S
N530 H536 0.984 1_545 S
N530 H537 0.984 . S
N531 C524 1.356 . S
N531 H534 0.984 . S
N531 H535 0.985 . S
H532 N527 0.984 . S
H533 N527 0.985 . S
H534 N531 0.984 . S
H535 N531 0.985 . S
H536 N530 0.984 1_565 S
H537 N530 0.984 . S
H538 N526 0.984 . S
H539 N526 0.985 . S
C540 C541 1.363 . S
C540 C546 1.379 . S
C540 N548 1.356 . S
C541 C540 1.363 . S
C541 C547 1.363 . S
C542 C543 1.363 . S
C542 C547 1.379 . S
C542 N549 1.356 . S
C543 C542 1.363 . S
C543 C546 1.363 . S
N544 C546 1.356 . S
N544 H556 0.984 . S
N544 H557 0.985 . S
N545 C547 1.356 . S
N545 H550 0.984 . S
N545 H551 0.985 . S
C546 C540 1.379 . S
C546 C543 1.363 . S
C546 N544 1.356 . S
C547 C541 1.363 . S
C547 C542 1.379 . S
C547 N545 1.356 . S
N548 C540 1.356 . S
N548 H554 0.984 . S
N548 H555 0.984 . S
N549 C542 1.356 . S
N549 H552 0.984 . S
N549 H553 0.985 . S
H550 N545 0.984 . S
H551 N545 0.985 . S
H552 N549 0.984 . S
H553 N549 0.985 . S
H554 N548 0.984 . S
H555 N548 0.984 . S
H556 N544 0.984 . S
H557 N544 0.985 . S
C558 C559 1.363 . S
C558 C564 1.379 . S
C558 N566 1.356 . S
C559 C558 1.363 . S
C559 C565 1.363 . S
C560 C561 1.363 . S
C560 C565 1.379 . S
C560 N567 1.356 . S
C561 C560 1.363 . S
C561 C564 1.363 . S
N562 C564 1.356 . S
N562 H574 0.984 . S
N562 H575 0.985 . S
N563 C565 1.356 . S
N563 H568 0.984 . S
N563 H569 0.985 . S
C564 C558 1.379 . S
C564 C561 1.363 . S
C564 N562 1.356 . S
C565 C559 1.363 . S
C565 C560 1.379 . S
C565 N563 1.356 . S
N566 C558 1.356 . S
N566 H572 0.984 . S
N566 H573 0.984 . S
N567 C560 1.356 . S
N567 H570 0.984 . S
N567 H571 0.985 . S
H568 N563 0.984 . S
H569 N563 0.985 . S
H570 N567 0.984 . S
H571 N567 0.985 . S
H572 N566 0.984 . S
H573 N566 0.984 . S
H574 N562 0.984 . S
H575 N562 0.985 . S
C576 C577 1.363 . S
C576 C582 1.379 . S
C576 N584 1.356 . S
C577 C576 1.363 . S
C577 C583 1.363 . S
C578 C579 1.363 . S
C578 C583 1.379 . S
C578 N585 1.356 . S
C579 C578 1.363 . S
C579 C582 1.363 . S
N580 C582 1.356 . S
N580 H592 0.984 . S
N580 H593 0.985 . S
N581 C583 1.356 . S
N581 H586 0.984 . S
N581 H587 0.985 . S
C582 C576 1.379 . S
C582 C579 1.363 . S
C582 N580 1.356 . S
C583 C577 1.363 . S
C583 C578 1.379 . S
C583 N581 1.356 . S
N584 C576 1.356 . S
N584 H590 0.984 . S
N584 H591 0.984 . S
N585 C578 1.356 . S
N585 H588 0.984 . S
N585 H589 0.985 . S
H586 N581 0.984 . S
H587 N581 0.985 . S
H588 N585 0.984 . S
H589 N585 0.985 . S
H590 N584 0.984 . S
H591 N584 0.984 . S
H592 N580 0.984 . S
H593 N580 0.985 . S
C594 C595 1.363 . S
C594 C600 1.379 . S
C594 N602 1.356 . S
C595 C594 1.363 . S
C595 C601 1.363 . S
C596 C597 1.363 . S
C596 C601 1.379 . S
C596 N603 1.356 . S
C597 C596 1.363 . S
C597 C600 1.363 . S
N598 C600 1.356 . S
N598 H610 0.984 . S
N598 H611 0.985 . S
N599 C601 1.356 . S
N599 H604 0.984 . S
N599 H605 0.985 . S
C600 C594 1.379 . S
C600 C597 1.363 . S
C600 N598 1.356 . S
C601 C595 1.363 . S
C601 C596 1.379 . S
C601 N599 1.356 . S
N602 C594 1.356 . S
N602 H608 0.984 . S
N602 H609 0.984 . S
N603 C596 1.356 . S
N603 H606 0.984 . S
N603 H607 0.985 . S
H604 N599 0.984 . S
H605 N599 0.985 . S
H606 N603 0.984 . S
H607 N603 0.985 . S
H608 N602 0.984 . S
H609 N602 0.984 . S
H610 N598 0.984 . S
H611 N598 0.985 . S
C612 C613 1.363 . S
C612 C618 1.379 . S
C612 N620 1.356 . S
C613 C612 1.363 . S
C613 C619 1.363 . S
C614 C615 1.363 . S
C614 C619 1.379 . S
C614 N621 1.356 . S
C615 C614 1.363 . S
C615 C618 1.363 . S
N616 C618 1.356 . S
N616 H628 0.984 . S
N616 H629 0.985 . S
N617 C619 1.356 . S
N617 H622 0.984 . S
N617 H623 0.985 . S
C618 C612 1.379 . S
C618 C615 1.363 . S
C618 N616 1.356 . S
C619 C613 1.363 . S
C619 C614 1.379 . S
C619 N617 1.356 . S
N620 C612 1.356 . S
N620 H626 0.984 . S
N620 H627 0.984 . S
N621 C614 1.356 . S
N621 H624 0.984 . S
N621 H625 0.985 . S
H622 N617 0.984 . S
H623 N617 0.985 . S
H624 N621 0.984 . S
H625 N621 0.985 . S
H626 N620 0.984 . S
H627 N620 0.984 . S
H628 N616 0.984 . S
H629 N616 0.985 . S
C630 C631 1.363 . S
C630 C636 1.379 . S
C630 N638 1.356 . S
C631 C630 1.363 . S
C631 C637 1.363 . S
C632 C633 1.363 . S
C632 C637 1.379 . S
C632 N639 1.356 . S
C633 C632 1.363 . S
C633 C636 1.363 . S
N634 C636 1.356 . S
N634 H646 0.984 . S
N634 H647 0.985 . S
N635 C637 1.356 . S
N635 H640 0.984 . S
N635 H641 0.985 . S
C636 C630 1.379 . S
C636 C633 1.363 . S
C636 N634 1.356 . S
C637 C631 1.363 . S
C637 C632 1.379 . S
C637 N635 1.356 . S
N638 C630 1.356 . S
N638 H644 0.984 . S
N638 H645 0.984 . S
N639 C632 1.356 . S
N639 H642 0.984 . S
N639 H643 0.985 . S
H640 N635 0.984 . S
H641 N635 0.985 . S
H642 N639 0.984 . S
H643 N639 0.985 . S
H644 N638 0.984 . S
H645 N638 0.984 . S
H646 N634 0.984 . S
H647 N634 0.985 . S
C648 C649 1.363 . S
C648 C654 1.379 . S
C648 N656 1.356 . S
C649 C648 1.363 . S
C649 C655 1.363 . S
C650 C651 1.363 . S
C650 C655 1.379 . S
C650 N657 1.356 . S
C651 C650 1.363 . S
C651 C654 1.363 . S
N652 C654 1.356 . S
N652 H664 0.984 . S
N652 H665 0.985 . S
N653 C655 1.356 . S
N653 H658 0.984 . S
N653 H659 0.985 . S
C654 C648 1.379 . S
C654 C651 1.363 . S
C654 N652 1.356 . S
C655 C649 1.363 . S
C655 C650 1.379 . S
C655 N653 1.356 . S
N656 C648 1.356 . S
N656 H662 0.984 . S
N656 H663 0.984 . S
N657 C650 1.356 . S
N657 H660 0.984 . S
N657 H661 0.985 . S
H658 N653 0.984 . S
H659 N653 0.985 . S
H660 N657 0.984 . S
H661 N657 0.985 . S
H662 N656 0.984 . S
H663 N656 0.984 . S
H664 N652 0.984 . S
H665 N652 0.985 . S
C666 C667 1.363 . S
C666 C672 1.379 . S
C666 N674 1.356 . S
C667 C666 1.363 . S
C667 C673 1.363 . S
C668 C669 1.363 . S
C668 C673 1.379 . S
C668 N675 1.356 . S
C669 C668 1.363 . S
C669 C672 1.363 . S
N670 C672 1.356 . S
N670 H682 0.984 . S
N670 H683 0.985 . S
N671 C673 1.356 . S
N671 H676 0.984 . S
N671 H677 0.985 . S
C672 C666 1.379 . S
C672 C669 1.363 . S
C672 N670 1.356 . S
C673 C667 1.363 . S
C673 C668 1.379 . S
C673 N671 1.356 . S
N674 C666 1.356 . S
N674 H680 0.984 . S
N674 H681 0.984 . S
N675 C668 1.356 . S
N675 H678 0.984 . S
N675 H679 0.985 . S
H676 N671 0.984 . S
H677 N671 0.985 . S
H678 N675 0.984 . S
H679 N675 0.985 . S
H680 N674 0.984 . S
H681 N674 0.984 . S
H682 N670 0.984 . S
H683 N670 0.985 . S
C684 C685 1.363 . S
C684 C690 1.379 . S
C684 N692 1.356 . S
C685 C684 1.363 . S
C685 C691 1.363 . S
C686 C687 1.363 . S
C686 C691 1.379 . S
C686 N693 1.356 . S
C687 C686 1.363 . S
C687 C690 1.363 . S
N688 C690 1.356 . S
N688 H700 0.984 . S
N688 H701 0.985 . S
N689 C691 1.356 . S
N689 H694 0.984 . S
N689 H695 0.985 . S
C690 C684 1.379 . S
C690 C687 1.363 . S
C690 N688 1.356 . S
C691 C685 1.363 . S
C691 C686 1.379 . S
C691 N689 1.356 . S
N692 C684 1.356 . S
N692 H698 0.984 . S
N692 H699 0.984 . S
N693 C686 1.356 . S
N693 H696 0.984 . S
N693 H697 0.985 . S
H694 N689 0.984 . S
H695 N689 0.985 . S
H696 N693 0.984 . S
H697 N693 0.985 . S
H698 N692 0.984 . S
H699 N692 0.984 . S
H700 N688 0.984 . S
H701 N688 0.985 . S
C702 C703 1.363 . S
C702 C708 1.379 . S
C702 N710 1.356 . S
C703 C702 1.363 . S
C703 C709 1.363 . S
C704 C705 1.363 . S
C704 C709 1.379 . S
C704 N711 1.356 . S
C705 C704 1.363 . S
C705 C708 1.363 . S
N706 C708 1.356 . S
N706 H718 0.984 . S
N706 H719 0.985 . S
N707 C709 1.356 . S
N707 H712 0.984 . S
N707 H713 0.985 . S
C708 C702 1.379 . S
C708 C705 1.363 . S
C708 N706 1.356 . S
C709 C703 1.363 . S
C709 C704 1.379 . S
C709 N707 1.356 . S
N710 C702 1.356 . S
N710 H716 0.984 . S
N710 H717 0.984 . S
N711 C704 1.356 . S
N711 H714 0.984 . S
N711 H715 0.985 . S
H712 N707 0.984 . S
H713 N707 0.985 . S
H714 N711 0.984 . S
H715 N711 0.985 . S
H716 N710 0.984 . S
H717 N710 0.984 . S
H718 N706 0.984 . S
H719 N706 0.985 . S
C720 C721 1.363 . S
C720 C726 1.379 . S
C720 N728 1.356 . S
C721 C720 1.363 . S
C721 C727 1.363 . S
C722 C723 1.363 . S
C722 C727 1.379 . S
C722 N729 1.356 . S
C723 C722 1.363 . S
C723 C726 1.363 . S
N724 C726 1.356 . S
N724 H736 0.984 . S
N724 H737 0.985 . S
N725 C727 1.356 . S
N725 H730 0.984 . S
N725 H731 0.985 . S
C726 C720 1.379 . S
C726 C723 1.363 . S
C726 N724 1.356 . S
C727 C721 1.363 . S
C727 C722 1.379 . S
C727 N725 1.356 . S
N728 C720 1.356 . S
N728 H734 0.984 . S
N728 H735 0.984 . S
N729 C722 1.356 . S
N729 H732 0.984 . S
N729 H733 0.985 . S
H730 N725 0.984 . S
H731 N725 0.985 . S
H732 N729 0.984 . S
H733 N729 0.985 . S
H734 N728 0.984 . S
H735 N728 0.984 . S
H736 N724 0.984 . S
H737 N724 0.985 . S
C738 C739 1.363 . S
C738 C744 1.379 . S
C738 N746 1.356 . S
C739 C738 1.363 . S
C739 C745 1.363 . S
C740 C741 1.363 . S
C740 C745 1.379 . S
C740 N747 1.356 . S
C741 C740 1.363 . S
C741 C744 1.363 . S
N742 C744 1.356 . S
N742 H754 0.984 . S
N742 H755 0.985 . S
N743 C745 1.356 . S
N743 H748 0.984 . S
N743 H749 0.985 . S
C744 C738 1.379 . S
C744 C741 1.363 . S
C744 N742 1.356 . S
C745 C739 1.363 . S
C745 C740 1.379 . S
C745 N743 1.356 . S
N746 C738 1.356 . S
N746 H752 0.984 . S
N746 H753 0.984 . S
N747 C740 1.356 . S
N747 H750 0.984 . S
N747 H751 0.985 . S
H748 N743 0.984 . S
H749 N743 0.985 . S
H750 N747 0.984 . S
H751 N747 0.985 . S
H752 N746 0.984 . S
H753 N746 0.984 . S
H754 N742 0.984 . S
H755 N742 0.985 . S
C756 C757 1.363 . S
C756 C762 1.379 . S
C756 N764 1.356 . S
C757 C756 1.363 . S
C757 C763 1.363 . S
C758 C759 1.363 . S
C758 C763 1.379 . S
C758 N765 1.356 . S
C759 C758 1.363 . S
C759 C762 1.363 . S
N760 C762 1.356 . S
N760 H772 0.984 . S
N760 H773 0.985 . S
N761 C763 1.356 . S
N761 H766 0.984 . S
N761 H767 0.985 . S
C762 C756 1.379 . S
C762 C759 1.363 . S
C762 N760 1.356 . S
C763 C757 1.363 . S
C763 C758 1.379 . S
C763 N761 1.356 . S
N764 C756 1.356 . S
N764 H770 0.984 . S
N764 H771 0.984 . S
N765 C758 1.356 . S
N765 H768 0.984 . S
N765 H769 0.985 . S
H766 N761 0.984 . S
H767 N761 0.985 . S
H768 N765 0.984 . S
H769 N765 0.985 . S
H770 N764 0.984 . S
H771 N764 0.984 . S
H772 N760 0.984 . S
H773 N760 0.985 . S
C774 C775 1.363 . S
C774 C780 1.379 . S
C774 N782 1.356 . S
C775 C774 1.363 . S
C775 C781 1.363 . S
C776 C777 1.363 . S
C776 C781 1.379 . S
C776 N783 1.356 . S
C777 C776 1.363 . S
C777 C780 1.363 . S
N778 C780 1.356 . S
N778 H790 0.984 . S
N778 H791 0.985 . S
N779 C781 1.356 . S
N779 H784 0.984 . S
N779 H785 0.985 . S
C780 C774 1.379 . S
C780 C777 1.363 . S
C780 N778 1.356 . S
C781 C775 1.363 . S
C781 C776 1.379 . S
C781 N779 1.356 . S
N782 C774 1.356 . S
N782 H788 0.984 . S
N782 H789 0.984 . S
N783 C776 1.356 . S
N783 H786 0.984 . S
N783 H787 0.985 . S
H784 N779 0.984 . S
H785 N779 0.985 . S
H786 N783 0.984 . S
H787 N783 0.985 . S
H788 N782 0.984 . S
H789 N782 0.984 . S
H790 N778 0.984 . S
H791 N778 0.985 . S
C792 C793 1.363 . S
C792 C798 1.379 . S
C792 N800 1.356 . S
C793 C792 1.363 . S
C793 C799 1.363 . S
C794 C795 1.363 . S
C794 C799 1.379 . S
C794 N801 1.356 . S
C795 C794 1.363 . S
C795 C798 1.363 . S
N796 C798 1.356 . S
N796 H808 0.984 . S
N796 H809 0.985 . S
N797 C799 1.356 . S
N797 H802 0.984 . S
N797 H803 0.985 . S
C798 C792 1.379 . S
C798 C795 1.363 . S
C798 N796 1.356 . S
C799 C793 1.363 . S
C799 C794 1.379 . S
C799 N797 1.356 . S
N800 C792 1.356 . S
N800 H806 0.984 . S
N800 H807 0.984 . S
N801 C794 1.356 . S
N801 H804 0.984 . S
N801 H805 0.985 . S
H802 N797 0.984 . S
H803 N797 0.985 . S
H804 N801 0.984 . S
H805 N801 0.985 . S
H806 N800 0.984 . S
H807 N800 0.984 . S
H808 N796 0.984 . S
H809 N796 0.985 . S
C810 C811 1.363 . S
C810 C816 1.379 . S
C810 N818 1.356 . S
C811 C810 1.363 . S
C811 C817 1.363 . S
C812 C813 1.363 . S
C812 C817 1.379 . S
C812 N819 1.356 . S
C813 C812 1.363 . S
C813 C816 1.363 . S
N814 C816 1.356 . S
N814 H826 0.984 . S
N814 H827 0.985 . S
N815 C817 1.356 . S
N815 H820 0.984 . S
N815 H821 0.985 . S
C816 C810 1.379 . S
C816 C813 1.363 . S
C816 N814 1.356 . S
C817 C811 1.363 . S
C817 C812 1.379 . S
C817 N815 1.356 . S
N818 C810 1.356 . S
N818 H824 0.984 . S
N818 H825 0.984 . S
N819 C812 1.356 . S
N819 H822 0.984 . S
N819 H823 0.985 . S
H820 N815 0.984 . S
H821 N815 0.985 . S
H822 N819 0.984 . S
H823 N819 0.985 . S
H824 N818 0.984 . S
H825 N818 0.984 . S
H826 N814 0.984 . S
H827 N814 0.985 . S
C397 C235 1.495 . S
C399 C328 1.494 . S
C417 C336 1.485 . S
C415 C289 1.485 . S
C435 C340 1.476 . S
C433 C157 1.485 . S
C451 C211 1.474 . S
C453 C316 1.467 . S
C471 C357 1.492 . S
C469 C79 1.490 . S
C489 C391 1.494 . S
C487 C118 1.493 . S
C505 C1 1.479 . S
C507 C379 1.474 . S
C523 C40 1.482 . S
C525 C361 1.476 . S
C543 C315 1.339 . S
C541 C55 1.479 . S
C561 C349 1.341 . S
C559 C16 1.481 . S
C579 C353 1.339 . S
C577 C133 1.480 . S
C597 C331 1.341 . S
C595 C94 1.482 . S
C615 C370 1.347 . S
C613 C196 1.485 . S
C631 C172 1.483 . S
C633 C378 1.344 . S
C651 C394 1.346 . S
C649 C274 1.486 . S
C667 C250 1.484 . S
C669 C374 1.344 . S
C687 C319 1.310 . S
C685 C21 1.509 . S
C705 C337 1.313 . S
C703 C60 1.511 . S
C721 C99 1.496 . S
C723 C352 1.309 . S
C741 C332 1.312 . S
C739 C138 1.499 . S
C759 C358 1.314 . S
C757 C177 1.519 . S
C775 C216 1.509 . S
C777 C382 1.311 . S
C793 C255 1.505 . S
C795 C395 1.313 . S
C811 C294 1.497 . S
C813 C373 1.309 . S
