# Generated by pormake.
# Topology tsx, (6,3)-cn, num edge types: 1
# Building blocks:
#     Node 0, Type 0, BuildingBlock: VOLQOD_clean_sbu_1, # of connection points: 6
#     Node 1, Type 0, BuildingBlock: VOLQOD_clean_sbu_1, # of connection points: 6
#     Node 2, Type 1, BuildingBlock: BELTOD_clean_linker_0, # of connection points: 3
#     Node 3, Type 1, BuildingBlock: BELTOD_clean_linker_0, # of connection points: 3
#     Node 4, Type 1, BuildingBlock: BELTOD_clean_linker_0, # of connection points: 3
#     Node 5, Type 1, BuildingBlock: BELTOD_clean_linker_0, # of connection points: 3
#     Edge 6, Type (0, 1), BuildingBlock: OJICUG_clean_linker_0, # of connection points: 2
#     Edge 7, Type (0, 1), BuildingBlock: OJICUG_clean_linker_0, # of connection points: 2
#     Edge 8, Type (0, 1), BuildingBlock: OJICUG_clean_linker_0, # of connection points: 2
#     Edge 9, Type (0, 1), BuildingBlock: OJICUG_clean_linker_0, # of connection points: 2
#     Edge 10, Type (0, 1), BuildingBlock: OJICUG_clean_linker_0, # of connection points: 2
#     Edge 11, Type (0, 1), BuildingBlock: OJICUG_clean_linker_0, # of connection points: 2
#     Edge 12, Type (0, 1), BuildingBlock: OJICUG_clean_linker_0, # of connection points: 2
#     Edge 13, Type (0, 1), BuildingBlock: OJICUG_clean_linker_0, # of connection points: 2
#     Edge 14, Type (0, 1), BuildingBlock: OJICUG_clean_linker_0, # of connection points: 2
#     Edge 15, Type (0, 1), BuildingBlock: OJICUG_clean_linker_0, # of connection points: 2
#     Edge 16, Type (0, 1), BuildingBlock: OJICUG_clean_linker_0, # of connection points: 2
#     Edge 17, Type (0, 1), BuildingBlock: OJICUG_clean_linker_0, # of connection points: 2
# Relax obj value: 0.067
# Max RMSD: 0.102
# Mean RMSD: 0.074
data_MOF--net-tsx--node1-VOLQOD_clean_sbu_1--node2-BELTOD_clean_linker_0--edge1-OJICUG_clean_linker_0
_symmetry_space_group_name_H-M    P1
_symmetry_Int_Tables_number       1
_symmetry_cell_setting            triclinic
loop_
_symmetry_equiv_pos_as_xyz
'x, y, z'
_cell_length_a     18.059883
_cell_length_b     18.611278
_cell_length_c     34.373321
_cell_angle_alpha  90.804958
_cell_angle_beta   91.161977
_cell_angle_gamma 90.192155
loop_
_atom_site_label
_atom_site_type_symbol
_atom_site_fract_x
_atom_site_fract_y
_atom_site_fract_z
_atom_type_partial_charge
O0 O 0.0339 0.98048 0.10708 0.0
Zn1 Zn 0.06506 0.97462 0.05182 0.0
O2 O 0.98326 -0.00537 0.0161 0.0
Zn3 Zn 0.966 0.91113 0.98247 0.0
Zn4 Zn 0.89455 0.01661 0.04641 0.0
Zn5 Zn 0.00978 0.07477 0.98316 0.0
O6 O 0.97295 0.9343 0.92583 0.0
O7 O 0.01942 0.04468 0.92673 0.0
O8 O 0.11045 0.8785 0.04173 0.0
O9 O 0.04334 0.8355 0.99192 0.0
O10 O 0.86742 0.86765 0.99248 0.0
O11 O 0.81869 0.93616 0.03882 0.0
O12 O 0.84911 0.11085 0.02871 0.0
O13 O 0.14573 0.04764 0.0467 0.0
O14 O 0.93004 0.1485 0.98544 0.0
O15 O 0.10602 0.12116 1.00061 0.0
C16 C 0.97673 0.00407 0.12401 0.0
C17 C -0.00078 0.98801 0.90817 0.0
C18 C 0.81544 0.88172 0.01582 0.0
C19 C 0.09663 0.82951 0.01644 0.0
C20 C 0.87037 0.15685 1.00407 0.0
C21 C 0.15459 0.10289 0.02591 0.0
O22 O 0.91965 0.02409 0.10457 0.0
O23 O 0.51946 0.46988 0.60607 0.0
Zn24 Zn 0.55604 0.47427 0.55188 0.0
O25 O 0.4768 0.49109 0.51435 0.0
Zn26 Zn 0.46516 0.40777 0.48025 0.0
Zn27 Zn 0.38565 0.5105 0.54314 0.0
Zn28 Zn 0.50415 0.57051 0.48139 0.0
O29 O 0.46727 0.43219 0.42336 0.0
O30 O 0.51888 0.54046 0.42537 0.0
O31 O 0.61189 0.38454 0.53949 0.0
O32 O 0.54907 0.33845 0.48887 0.0
O33 O 0.37048 0.35812 0.49112 0.0
O34 O 0.31269 0.42754 0.53399 0.0
O35 O 0.34022 0.60477 0.52496 0.0
O36 O 0.62832 0.55586 0.55226 0.0
O37 O 0.42206 0.64148 0.48179 0.0
O38 O 0.59608 0.62133 0.50121 0.0
C39 C 0.46139 0.49326 0.62222 0.0
C40 C 0.49613 0.48532 0.40627 0.0
C41 C 0.31531 0.37098 0.51257 0.0
C42 C 0.60292 0.33611 0.51333 0.0
C43 C 0.36186 0.64993 0.49991 0.0
C44 C 0.63837 0.60952 0.53046 0.0
O45 O 0.40665 0.51644 0.60197 0.0
P46 P 0.07388 0.10506 0.41805 0.0
H47 H 0.04193 0.2139 0.47719 0.0
H48 H 0.92678 0.25228 0.50655 0.0
H49 H 0.81104 0.0764 0.44805 0.0
H50 H 0.92645 0.04021 0.4176 0.0
H51 H 0.22872 0.06553 0.41608 0.0
H52 H 0.29688 0.96138 0.43948 0.0
H53 H 0.09623 0.87743 0.48838 0.0
H54 H 0.02939 0.98374 0.46675 0.0
H55 H 0.02275 0.19283 0.35358 0.0
H56 H 0.06464 0.96831 0.37385 0.0
O57 O 0.12824 0.17774 0.41774 0.0
H58 H 0.99039 0.16509 0.28547 0.0
H59 H 0.03179 0.94013 0.3061 0.0
C60 C -0.00809 0.12569 0.44441 0.0
C61 C -0.00815 0.18334 0.47095 0.0
C62 C 0.92596 0.20464 0.4881 0.0
C63 C 0.85924 0.16797 0.47924 0.0
C64 C 0.86102 0.10679 0.45478 0.0
C65 C 0.92689 0.08597 0.43741 0.0
C66 C 0.12436 0.03276 0.44002 0.0
C67 C 0.19982 0.02546 0.43262 0.0
C68 C 0.23849 0.96552 0.44571 0.0
C69 C 0.20178 0.91063 0.46549 0.0
C70 C 0.12637 0.91909 0.47376 0.0
C71 C 0.08793 0.97976 0.46111 0.0
C72 C 0.04791 0.08299 0.36846 0.0
C73 C 0.02483 0.13757 0.34335 0.0
C74 C 0.00561 0.12153 0.30457 0.0
C75 C 0.00901 0.05045 0.29031 0.0
C76 C 0.02976 -0.00443 0.31604 0.0
C77 C 0.0487 0.01166 0.35482 0.0
P78 P 0.09495 0.91236 0.61292 0.0
H79 H 0.0641 0.81643 0.54701 0.0
H80 H 0.95187 0.75306 0.52446 0.0
H81 H 0.82924 0.8547 0.61652 0.0
H82 H 0.94088 0.91988 0.63811 0.0
H83 H 0.22651 0.95668 0.57172 0.0
H84 H 0.25937 0.06698 0.53908 0.0
H85 H 0.04115 0.15195 0.55991 0.0
H86 H 0.00766 0.03952 0.59207 0.0
H87 H 0.09625 0.81905 0.67945 0.0
H88 H 0.07115 0.04597 0.65929 0.0
O89 O 0.16322 0.85291 0.60794 0.0
H90 H 0.07388 0.83895 0.74849 0.0
H91 H 0.04599 0.06599 0.72798 0.0
C92 C 0.01101 0.87169 0.59455 0.0
C93 C 0.0128 0.82614 0.56182 0.0
C94 C 0.94878 0.79015 0.54895 0.0
C95 C 0.88246 0.79882 0.56904 0.0
C96 C 0.8801 0.84682 0.60086 0.0
C97 C 0.94385 0.88374 0.61325 0.0
C98 C 0.1152 0.99062 0.58498 0.0
C99 C 0.18522 -0.0016 0.56886 0.0
C100 C 0.20375 0.0614 0.5499 0.0
C101 C 0.15287 0.11823 0.54721 0.0
C102 C 0.08149 0.10915 0.5619 0.0
C103 C 0.06249 0.04521 0.58027 0.0
C104 C 0.08609 0.93092 0.6642 0.0
C105 C 0.08646 0.87328 0.68994 0.0
C106 C 0.07272 0.88467 0.72935 0.0
C107 C 0.05743 0.95404 0.74378 0.0
C108 C 0.05822 0.01199 0.71793 0.0
C109 C 0.07231 0.00049 0.67846 0.0
P110 P 0.55339 0.5905 0.91666 0.0
H111 H 0.52519 0.69295 0.97928 0.0
H112 H 0.41184 0.73001 0.01075 0.0
H113 H 0.29163 0.56062 0.949 0.0
H114 H 0.40541 0.52596 0.91641 0.0
H115 H 0.71223 0.56823 0.92289 0.0
H116 H 0.78733 0.47076 0.94861 0.0
H117 H 0.58872 0.36038 0.98342 0.0
H118 H 0.51412 0.45991 0.9589 0.0
H119 H 0.49718 0.67627 0.85265 0.0
H120 H 0.54687 0.45321 0.87256 0.0
O121 O 0.60419 0.66547 0.91527 0.0
H122 H 0.46486 0.64803 0.78471 0.0
H123 H 0.51333 0.42421 0.80493 0.0
C124 C 0.47273 0.60864 0.94457 0.0
C125 C 0.47451 0.6635 0.97278 0.0
C126 C 0.40962 0.68394 0.99117 0.0
C127 C 0.34206 0.64902 0.98195 0.0
C128 C 0.34223 0.5898 0.95604 0.0
C129 C 0.40716 0.56989 0.9374 0.0
C130 C 0.60779 0.5214 0.93914 0.0
C131 C 0.68492 0.52362 0.9366 0.0
C132 C 0.72773 0.46745 0.95103 0.0
C133 C 0.69401 0.4071 0.9675 0.0
C134 C 0.61656 0.40616 0.97112 0.0
C135 C 0.57376 0.46291 0.95694 0.0
C136 C 0.5261 0.56722 0.86736 0.0
C137 C 0.50073 0.62111 0.8424 0.0
C138 C 0.48149 0.60473 0.80367 0.0
C139 C 0.48693 0.53388 0.78924 0.0
C140 C 0.50969 0.47951 0.81491 0.0
C141 C 0.52891 0.49603 0.85366 0.0
P142 P 0.59987 0.42123 0.11058 0.0
H143 H 0.59455 0.2722 0.08242 0.0
H144 H 0.49351 0.19705 0.05661 0.0
H145 H 0.34493 0.37814 0.06356 0.0
H146 H 0.4465 0.45321 0.08878 0.0
H147 H 0.70902 0.46207 0.05387 0.0
H148 H 0.7376 0.57541 0.02327 0.0
H149 H 0.54569 0.67213 0.0756 0.0
H150 H 0.51815 0.55796 0.10696 0.0
H151 H 0.53536 0.32924 0.16863 0.0
H152 H 0.61761 0.54658 0.1638 0.0
O153 O 0.67884 0.37488 0.11084 0.0
H154 H 0.51001 0.3458 0.23738 0.0
H155 H 0.58688 0.56587 0.23167 0.0
C156 C 0.52814 0.36846 0.08715 0.0
C157 C 0.54065 0.29614 0.07768 0.0
C158 C 0.48273 0.25309 0.06317 0.0
C159 C 0.41124 0.28165 0.05819 0.0
C160 C 0.39959 0.35483 0.06656 0.0
C161 C 0.45759 0.39779 0.0811 0.0
C162 C 0.61306 0.50238 0.08375 0.0
C163 C 0.67261 0.50734 0.05853 0.0
C164 C 0.6883 0.57214 0.04058 0.0
C165 C 0.6443 0.63313 0.04737 0.0
C166 C 0.58123 0.62639 0.07035 0.0
C167 C 0.56545 0.5612 0.08822 0.0
C168 C 0.57602 0.43732 0.16062 0.0
C169 C 0.54612 0.38126 0.18213 0.0
C170 C 0.53115 0.3911 0.22157 0.0
C171 C 0.54531 0.45762 0.2404 0.0
C172 C 0.57567 0.51366 0.21856 0.0
C173 C 0.59208 0.50314 0.17929 0.0
C174 C 0.27842 0.12426 0.0578 0.0
C175 C 0.22205 0.14721 0.03211 0.0
H176 H 0.38189 0.14881 0.0862 0.0
C177 C 0.23011 0.21346 0.01344 0.0
H178 H 0.27418 0.07349 0.07263 0.0
C179 C 0.29235 0.25663 0.02116 0.0
C180 C 0.34788 0.23413 0.04747 0.0
H181 H 0.1878 0.23261 0.99339 0.0
H182 H 0.29685 0.30779 0.00673 0.0
C183 C 0.34059 0.16718 0.06535 0.0
C184 C 0.207 0.76014 0.03976 0.0
C185 C 0.15 0.77011 0.01192 0.0
H186 H 0.31158 0.71147 0.05278 0.0
C187 C 0.15066 0.72955 0.97716 0.0
H188 H 0.20743 0.78973 0.06713 0.0
C189 C 0.21086 0.68572 0.96869 0.0
C190 C 0.27129 0.68084 0.99499 0.0
H191 H 0.10745 0.73568 0.95515 0.0
H192 H 0.2123 0.6602 0.94021 0.0
C193 C 0.26688 0.7156 0.03145 0.0
C194 C 0.71463 0.82411 0.05366 0.0
C195 C 0.75578 0.82774 0.01949 0.0
H196 H 0.64663 0.75899 0.08933 0.0
C197 C 0.74745 0.77267 0.99128 0.0
H198 H 0.71955 0.8658 0.07588 0.0
C199 C 0.70528 0.71174 0.99887 0.0
C200 C 0.67068 0.70455 0.03481 0.0
H201 H 0.77732 0.77445 0.96429 0.0
H202 H 0.7037 0.66827 0.97763 0.0
C203 C 0.67251 0.7629 0.06129 0.0
C204 C 0.76612 0.24156 0.01973 0.0
C205 C 0.82475 0.22093 0.99573 0.0
H206 H 0.67974 0.31789 0.03021 0.0
C207 C 0.83993 0.2622 0.9629 0.0
H208 H 0.75319 0.21101 0.04533 0.0
C209 C 0.79759 0.32231 0.95407 0.0
C210 C 0.7393 0.34355 0.97805 0.0
H211 H 0.88409 0.24756 0.94348 0.0
H212 H 0.80987 0.35137 0.92789 0.0
C213 C 0.72392 0.30254 0.01103 0.0
C214 C 0.72775 0.66444 0.57838 0.0
C215 C 0.69956 0.65966 0.54004 0.0
H216 H 0.8072 0.71339 0.61752 0.0
C217 C 0.73052 0.70281 0.51129 0.0
H218 H 0.70466 0.63217 0.60119 0.0
C219 C 0.7899 0.7487 0.52063 0.0
C220 C 0.81784 0.75322 0.55899 0.0
H221 H 0.70984 0.70004 0.4815 0.0
H222 H 0.81394 0.78069 0.49799 0.0
C223 C 0.78593 0.71124 0.58782 0.0
C224 C 0.66445 0.24108 0.47355 0.0
C225 C 0.6613 0.2815 0.50828 0.0
H226 H 0.72981 0.1744 0.43691 0.0
C227 C 0.71924 0.27545 0.53597 0.0
H228 H 0.62071 0.24435 0.45162 0.0
C229 C 0.78164 0.23425 0.52777 0.0
C230 C 0.78758 0.19878 0.4916 0.0
H231 H 0.71798 0.30511 0.56329 0.0
H232 H 0.82654 0.23267 0.5491 0.0
C233 C 0.72707 0.20046 0.46521 0.0
C234 C 0.26137 0.25316 0.49108 0.0
C235 C 0.25873 0.31376 0.51594 0.0
H236 H 0.22948 0.14373 0.48159 0.0
C237 C 0.20925 0.31359 0.547 0.0
H238 H 0.29781 0.25177 0.46644 0.0
C239 C 0.16906 0.25134 0.55527 0.0
C240 C 0.17818 0.18848 0.53272 0.0
H241 H 0.20555 0.35953 0.56655 0.0
H242 H 0.1357 0.25069 0.5811 0.0
C243 C 0.22198 0.19112 0.49959 0.0
C244 C 0.26724 0.74295 0.51798 0.0
C245 C 0.31742 0.71442 0.49119 0.0
H246 H 0.19296 0.82909 0.53139 0.0
C247 C 0.32778 0.7499 0.45591 0.0
H248 H 0.25853 0.71697 0.54552 0.0
C249 C 0.28975 0.81293 0.44769 0.0
C250 C 0.24099 0.84284 0.47474 0.0
H251 H 0.36535 0.72885 0.43441 0.0
H252 H 0.29832 0.83798 0.41988 0.0
C253 C 0.22964 0.80694 0.50988 0.0
C254 C 0.92936 0.05525 0.18699 0.0
C255 C 0.97952 0.01124 0.16702 0.0
H256 H 0.89913 0.10217 0.24179 0.0
C257 C 0.03626 0.97711 0.18837 0.0
H258 H 0.8851 0.08235 0.1714 0.0
C259 C 0.04418 0.98835 0.22843 0.0
C260 C -0.00419 0.03428 0.24826 0.0
H261 H 0.07575 0.9426 0.174 0.0
H262 H 0.08998 0.96294 0.24365 0.0
C263 C 0.9377 0.06699 0.22721 0.0
C264 C 0.9814 0.92324 0.84432 0.0
C265 C 0.01008 0.98244 0.8656 0.0
H266 H 0.97241 0.86878 0.78929 0.0
C267 C 0.05209 0.03402 0.84614 0.0
H268 H 0.94828 0.88278 0.85826 0.0
C269 C 0.0668 0.02543 0.80653 0.0
C270 C 0.03956 0.96524 0.78549 0.0
H271 H 0.07525 0.08014 0.86169 0.0
H272 H 0.10117 0.06497 0.79267 0.0
C273 C -0.00426 0.9149 0.80477 0.0
C274 C 0.51668 0.46225 0.68706 0.0
C275 C 0.46122 0.4976 0.66537 0.0
H276 H 0.5684 0.44628 0.74266 0.0
C277 C 0.41028 0.54092 0.68522 0.0
H278 H 0.55675 0.42819 0.67282 0.0
C279 C 0.41697 0.55117 0.72565 0.0
C280 C 0.47433 0.51785 0.74704 0.0
H281 H 0.36691 0.56889 0.66942 0.0
H282 H 0.37793 0.58606 0.74008 0.0
C283 C 0.5231 0.47218 0.72729 0.0
C284 C 0.56336 0.51987 0.34632 0.0
C285 C 0.50607 0.4814 0.36368 0.0
H286 H 0.62264 0.54061 0.29456 0.0
C287 C 0.46014 0.43706 0.34019 0.0
H288 H 0.60012 0.55396 0.36378 0.0
C289 C 0.47158 0.43089 0.30017 0.0
C290 C 0.5304 0.46758 0.28276 0.0
H291 H 0.41504 0.40729 0.35271 0.0
H292 H 0.43405 0.39725 0.28297 0.0
C293 C 0.57591 0.51247 0.30646 0.0
loop_
_geom_bond_atom_site_label_1
_geom_bond_atom_site_label_2
_geom_bond_distance
_geom_bond_site_symmetry_2
_ccdc_geom_bond_type
O0 Zn1 1.953 . S
O0 C16 1.225 1_565 S
Zn1 O0 1.953 . S
Zn1 O2 1.949 1_565 S
Zn1 O8 1.919 . S
Zn1 O13 1.924 1_565 S
O2 Zn1 1.949 1_545 S
O2 Zn3 1.923 1_444 S
O2 Zn4 1.950 1_455 S
O2 Zn5 1.945 1_554 S
Zn3 O2 1.923 1_666 S
Zn3 O6 1.933 . S
Zn3 O9 1.941 1_655 S
Zn3 O10 1.965 . S
Zn4 O2 1.950 1_655 S
Zn4 O11 1.938 1_545 S
Zn4 O12 1.906 . S
Zn4 O22 1.953 . S
Zn5 O2 1.945 1_556 S
Zn5 O7 1.932 . S
Zn5 O14 1.977 1_455 S
Zn5 O15 1.910 . S
O6 Zn3 1.933 . S
O6 C17 1.226 1_665 S
O7 Zn5 1.932 . S
O7 C17 1.307 . S
O8 Zn1 1.919 . S
O8 C19 1.253 1_554 S
O9 Zn3 1.941 1_455 S
O9 C19 1.283 . S
O10 Zn3 1.965 . S
O10 C18 1.303 1_556 S
O11 Zn4 1.938 1_565 S
O11 C18 1.247 . S
O12 Zn4 1.906 . S
O12 C20 1.304 1_554 S
O13 Zn1 1.924 1_545 S
O13 C21 1.311 . S
O14 Zn5 1.977 1_655 S
O14 C20 1.272 . S
O15 Zn5 1.910 . S
O15 C21 1.231 1_556 S
C16 O0 1.225 1_545 S
C16 O22 1.298 1_455 S
C17 O6 1.226 1_445 S
C17 O7 1.307 . S
C18 O10 1.303 1_554 S
C18 O11 1.247 . S
C19 O8 1.253 1_556 S
C19 O9 1.283 . S
C20 O12 1.304 1_556 S
C20 O14 1.272 . S
C21 O13 1.311 . S
C21 O15 1.231 1_554 S
O22 Zn4 1.953 . S
O22 C16 1.298 1_655 S
O23 Zn24 1.953 . S
O23 C39 1.225 . S
Zn24 O23 1.953 . S
Zn24 O25 1.949 . S
Zn24 O31 1.919 . S
Zn24 O36 1.924 . S
O25 Zn24 1.949 . S
O25 Zn26 1.923 . S
O25 Zn27 1.950 . S
O25 Zn28 1.945 . S
Zn26 O25 1.923 . S
Zn26 O29 1.933 . S
Zn26 O32 1.941 . S
Zn26 O33 1.965 . S
Zn27 O25 1.950 . S
Zn27 O34 1.938 . S
Zn27 O35 1.906 . S
Zn27 O45 1.953 . S
Zn28 O25 1.945 . S
Zn28 O30 1.932 . S
Zn28 O37 1.977 . S
Zn28 O38 1.910 . S
O29 Zn26 1.933 . S
O29 C40 1.226 . S
O30 Zn28 1.932 . S
O30 C40 1.307 . S
O31 Zn24 1.919 . S
O31 C42 1.253 . S
O32 Zn26 1.941 . S
O32 C42 1.283 . S
O33 Zn26 1.965 . S
O33 C41 1.303 . S
O34 Zn27 1.938 . S
O34 C41 1.247 . S
O35 Zn27 1.906 . S
O35 C43 1.304 . S
O36 Zn24 1.924 . S
O36 C44 1.311 . S
O37 Zn28 1.977 . S
O37 C43 1.272 . S
O38 Zn28 1.910 . S
O38 C44 1.231 . S
C39 O23 1.225 . S
C39 O45 1.298 . S
C40 O29 1.226 . S
C40 O30 1.307 . S
C41 O33 1.303 . S
C41 O34 1.247 . S
C42 O31 1.253 . S
C42 O32 1.283 . S
C43 O35 1.304 . S
C43 O37 1.272 . S
C44 O36 1.311 . S
C44 O38 1.231 . S
O45 Zn27 1.953 . S
O45 C39 1.298 . S
P46 O57 1.490 . S
P46 C60 1.812 1_455 S
P46 C66 1.803 1_545 S
P46 C72 1.819 . S
H47 C61 0.941 1_455 S
H48 C62 0.939 . S
H49 C64 0.940 . S
H50 C65 0.940 . S
H51 C67 0.939 1_545 S
H52 C68 0.942 . S
H53 C70 0.940 . S
H54 C71 0.939 . S
H55 C73 0.941 . S
H56 C77 0.939 . S
O57 P46 1.490 . S
H58 C74 0.939 . S
H59 C76 0.940 . S
C60 P46 1.812 1_655 S
C60 C61 1.389 . S
C60 C65 1.391 . S
C61 H47 0.941 1_655 S
C61 C60 1.389 . S
C61 C62 1.397 . S
C62 H48 0.939 . S
C62 C61 1.397 . S
C62 C63 1.378 . S
C63 C62 1.378 . S
C63 C64 1.378 . S
C64 H49 0.940 . S
C64 C63 1.378 . S
C64 C65 1.396 . S
C65 H50 0.940 . S
C65 C60 1.391 . S
C65 C64 1.396 . S
C66 P46 1.803 1_565 S
C66 C67 1.378 . S
C66 C71 1.400 . S
C67 H51 0.939 1_565 S
C67 C66 1.378 . S
C67 C68 1.361 . S
C68 H52 0.942 . S
C68 C67 1.361 . S
C68 C69 1.369 . S
C69 C68 1.369 . S
C69 C70 1.404 . S
C70 H53 0.940 . S
C70 C69 1.404 . S
C70 C71 1.389 . S
C71 H54 0.939 . S
C71 C66 1.400 . S
C71 C70 1.389 . S
C72 P46 1.819 . S
C72 C73 1.391 . S
C72 C77 1.391 1_545 S
C73 H55 0.941 . S
C73 C72 1.391 . S
C73 C74 1.396 . S
C74 H58 0.939 . S
C74 C73 1.396 . S
C74 C75 1.397 . S
C75 C74 1.397 . S
C75 C76 1.385 1_545 S
C76 H59 0.940 . S
C76 C75 1.385 1_565 S
C76 C77 1.388 . S
C77 H56 0.939 . S
C77 C72 1.391 1_565 S
C77 C76 1.388 . S
P78 O89 1.490 . S
P78 C92 1.812 . S
P78 C98 1.803 1_565 S
P78 C104 1.819 . S
H79 C93 0.941 . S
H80 C94 0.939 . S
H81 C96 0.940 . S
H82 C97 0.940 . S
H83 C99 0.939 . S
H84 C100 0.942 . S
H85 C102 0.940 . S
H86 C103 0.939 . S
H87 C105 0.941 . S
H88 C109 0.939 . S
O89 P78 1.490 . S
H90 C106 0.939 . S
H91 C108 0.940 . S
C92 P78 1.812 . S
C92 C93 1.389 . S
C92 C97 1.391 1_455 S
C93 H79 0.941 . S
C93 C92 1.389 . S
C93 C94 1.397 1_455 S
C94 H80 0.939 . S
C94 C93 1.397 1_655 S
C94 C95 1.378 . S
C95 C94 1.378 . S
C95 C96 1.378 . S
C96 H81 0.940 . S
C96 C95 1.378 . S
C96 C97 1.396 . S
C97 H82 0.940 . S
C97 C92 1.391 1_655 S
C97 C96 1.396 . S
C98 P78 1.803 1_545 S
C98 C99 1.378 . S
C98 C103 1.400 . S
C99 H83 0.939 . S
C99 C98 1.378 . S
C99 C100 1.361 . S
C100 H84 0.942 . S
C100 C99 1.361 . S
C100 C101 1.369 . S
C101 C100 1.369 . S
C101 C102 1.404 . S
C102 H85 0.940 . S
C102 C101 1.404 . S
C102 C103 1.389 . S
C103 H86 0.939 . S
C103 C98 1.400 . S
C103 C102 1.389 . S
C104 P78 1.819 . S
C104 C105 1.391 . S
C104 C109 1.391 1_565 S
C105 H87 0.941 . S
C105 C104 1.391 . S
C105 C106 1.396 . S
C106 H90 0.939 . S
C106 C105 1.396 . S
C106 C107 1.397 . S
C107 C106 1.397 . S
C107 C108 1.385 1_565 S
C108 H91 0.940 . S
C108 C107 1.385 1_545 S
C108 C109 1.388 . S
C109 H88 0.939 . S
C109 C104 1.391 1_545 S
C109 C108 1.388 . S
P110 O121 1.490 . S
P110 C124 1.812 . S
P110 C130 1.803 . S
P110 C136 1.819 . S
H111 C125 0.941 . S
H112 C126 0.939 . S
H113 C128 0.940 . S
H114 C129 0.940 . S
H115 C131 0.939 . S
H116 C132 0.942 . S
H117 C134 0.940 . S
H118 C135 0.939 . S
H119 C137 0.941 . S
H120 C141 0.939 . S
O121 P110 1.490 . S
H122 C138 0.939 . S
H123 C140 0.940 . S
C124 P110 1.812 . S
C124 C125 1.389 . S
C124 C129 1.391 . S
C125 H111 0.941 . S
C125 C124 1.389 . S
C125 C126 1.397 . S
C126 H112 0.939 . S
C126 C125 1.397 . S
C126 C127 1.378 . S
C127 C126 1.378 . S
C127 C128 1.378 . S
C128 H113 0.940 . S
C128 C127 1.378 . S
C128 C129 1.396 . S
C129 H114 0.940 . S
C129 C124 1.391 . S
C129 C128 1.396 . S
C130 P110 1.803 . S
C130 C131 1.378 . S
C130 C135 1.400 . S
C131 H115 0.939 . S
C131 C130 1.378 . S
C131 C132 1.361 . S
C132 H116 0.942 . S
C132 C131 1.361 . S
C132 C133 1.369 . S
C133 C132 1.369 . S
C133 C134 1.404 . S
C134 H117 0.940 . S
C134 C133 1.404 . S
C134 C135 1.389 . S
C135 H118 0.939 . S
C135 C130 1.400 . S
C135 C134 1.389 . S
C136 P110 1.819 . S
C136 C137 1.391 . S
C136 C141 1.391 . S
C137 H119 0.941 . S
C137 C136 1.391 . S
C137 C138 1.396 . S
C138 H122 0.939 . S
C138 C137 1.396 . S
C138 C139 1.397 . S
C139 C138 1.397 . S
C139 C140 1.385 . S
C140 H123 0.940 . S
C140 C139 1.385 . S
C140 C141 1.388 . S
C141 H120 0.939 . S
C141 C136 1.391 . S
C141 C140 1.388 . S
P142 O153 1.490 . S
P142 C156 1.812 . S
P142 C162 1.803 . S
P142 C168 1.819 . S
H143 C157 0.941 . S
H144 C158 0.939 . S
H145 C160 0.940 . S
H146 C161 0.940 . S
H147 C163 0.939 . S
H148 C164 0.942 . S
H149 C166 0.940 . S
H150 C167 0.939 . S
H151 C169 0.941 . S
H152 C173 0.939 . S
O153 P142 1.490 . S
H154 C170 0.939 . S
H155 C172 0.940 . S
C156 P142 1.812 . S
C156 C157 1.389 . S
C156 C161 1.391 . S
C157 H143 0.941 . S
C157 C156 1.389 . S
C157 C158 1.397 . S
C158 H144 0.939 . S
C158 C157 1.397 . S
C158 C159 1.378 . S
C159 C158 1.378 . S
C159 C160 1.378 . S
C160 H145 0.940 . S
C160 C159 1.378 . S
C160 C161 1.396 . S
C161 H146 0.940 . S
C161 C156 1.391 . S
C161 C160 1.396 . S
C162 P142 1.803 . S
C162 C163 1.378 . S
C162 C167 1.400 . S
C163 H147 0.939 . S
C163 C162 1.378 . S
C163 C164 1.361 . S
C164 H148 0.942 . S
C164 C163 1.361 . S
C164 C165 1.369 . S
C165 C164 1.369 . S
C165 C166 1.404 . S
C166 H149 0.940 . S
C166 C165 1.404 . S
C166 C167 1.389 . S
C167 H150 0.939 . S
C167 C162 1.400 . S
C167 C166 1.389 . S
C168 P142 1.819 . S
C168 C169 1.391 . S
C168 C173 1.391 . S
C169 H151 0.941 . S
C169 C168 1.391 . S
C169 C170 1.396 . S
C170 H154 0.939 . S
C170 C169 1.396 . S
C170 C171 1.397 . S
C171 C170 1.397 . S
C171 C172 1.385 . S
C172 H155 0.940 . S
C172 C171 1.385 . S
C172 C173 1.388 . S
C173 H152 0.939 . S
C173 C168 1.391 . S
C173 C172 1.388 . S
C174 C175 1.387 . S
C174 H178 0.950 . S
C174 C183 1.390 . S
C175 C174 1.387 . S
C175 C177 1.387 . S
H176 C183 0.950 . S
C177 C175 1.387 . S
C177 C179 1.390 . S
C177 H181 0.950 . S
H178 C174 0.950 . S
C179 C177 1.390 . S
C179 C180 1.387 . S
C179 H182 0.950 . S
C180 C179 1.387 . S
C180 C183 1.387 . S
H181 C177 0.950 . S
H182 C179 0.950 . S
C183 C174 1.390 . S
C183 H176 0.950 . S
C183 C180 1.387 . S
C184 C185 1.387 1_554 S
C184 H188 0.950 . S
C184 C193 1.390 . S
C185 C184 1.387 1_556 S
C185 C187 1.387 . S
H186 C193 0.950 . S
C187 C185 1.387 . S
C187 C189 1.390 . S
C187 H191 0.950 . S
H188 C184 0.950 . S
C189 C187 1.390 . S
C189 C190 1.387 . S
C189 H192 0.950 . S
C190 C189 1.387 . S
C190 C193 1.387 1_556 S
H191 C187 0.950 . S
H192 C189 0.950 . S
C193 C184 1.390 . S
C193 H186 0.950 . S
C193 C190 1.387 1_554 S
C194 C195 1.387 . S
C194 H198 0.950 . S
C194 C203 1.390 . S
C195 C194 1.387 . S
C195 C197 1.387 . S
H196 C203 0.950 . S
C197 C195 1.387 . S
C197 C199 1.390 . S
C197 H201 0.950 1_554 S
H198 C194 0.950 . S
C199 C197 1.390 . S
C199 C200 1.387 . S
C199 H202 0.950 1_554 S
C200 C199 1.387 . S
C200 C203 1.387 . S
H201 C197 0.950 1_556 S
H202 C199 0.950 1_556 S
C203 C194 1.390 . S
C203 H196 0.950 . S
C203 C200 1.387 . S
C204 C205 1.387 1_554 S
C204 H208 0.950 . S
C204 C213 1.390 . S
C205 C204 1.387 1_556 S
C205 C207 1.387 . S
H206 C213 0.950 . S
C207 C205 1.387 . S
C207 C209 1.390 . S
C207 H211 0.950 . S
H208 C204 0.950 . S
C209 C207 1.390 . S
C209 C210 1.387 . S
C209 H212 0.950 . S
C210 C209 1.387 . S
C210 C213 1.387 1_556 S
H211 C207 0.950 . S
H212 C209 0.950 . S
C213 C204 1.390 . S
C213 H206 0.950 . S
C213 C210 1.387 1_554 S
C214 C215 1.387 . S
C214 H218 0.950 . S
C214 C223 1.390 . S
C215 C214 1.387 . S
C215 C217 1.387 . S
H216 C223 0.950 . S
C217 C215 1.387 . S
C217 C219 1.390 . S
C217 H221 0.950 . S
H218 C214 0.950 . S
C219 C217 1.390 . S
C219 C220 1.387 . S
C219 H222 0.950 . S
C220 C219 1.387 . S
C220 C223 1.387 . S
H221 C217 0.950 . S
H222 C219 0.950 . S
C223 C214 1.390 . S
C223 H216 0.950 . S
C223 C220 1.387 . S
C224 C225 1.387 . S
C224 H228 0.950 . S
C224 C233 1.390 . S
C225 C224 1.387 . S
C225 C227 1.387 . S
H226 C233 0.950 . S
C227 C225 1.387 . S
C227 C229 1.390 . S
C227 H231 0.950 . S
H228 C224 0.950 . S
C229 C227 1.390 . S
C229 C230 1.387 . S
C229 H232 0.950 . S
C230 C229 1.387 . S
C230 C233 1.387 . S
H231 C227 0.950 . S
H232 C229 0.950 . S
C233 C224 1.390 . S
C233 H226 0.950 . S
C233 C230 1.387 . S
C234 C235 1.387 . S
C234 H238 0.950 . S
C234 C243 1.390 . S
C235 C234 1.387 . S
C235 C237 1.387 . S
H236 C243 0.950 . S
C237 C235 1.387 . S
C237 C239 1.390 . S
C237 H241 0.950 . S
H238 C234 0.950 . S
C239 C237 1.390 . S
C239 C240 1.387 . S
C239 H242 0.950 . S
C240 C239 1.387 . S
C240 C243 1.387 . S
H241 C237 0.950 . S
H242 C239 0.950 . S
C243 C234 1.390 . S
C243 H236 0.950 . S
C243 C240 1.387 . S
C244 C245 1.387 . S
C244 H248 0.950 . S
C244 C253 1.390 . S
C245 C244 1.387 . S
C245 C247 1.387 . S
H246 C253 0.950 . S
C247 C245 1.387 . S
C247 C249 1.390 . S
C247 H251 0.950 . S
H248 C244 0.950 . S
C249 C247 1.390 . S
C249 C250 1.387 . S
C249 H252 0.950 . S
C250 C249 1.387 . S
C250 C253 1.387 . S
H251 C247 0.950 . S
H252 C249 0.950 . S
C253 C244 1.390 . S
C253 H246 0.950 . S
C253 C250 1.387 . S
C254 C255 1.387 1_655 S
C254 H258 0.950 . S
C254 C263 1.390 . S
C255 C254 1.387 1_455 S
C255 C257 1.387 1_545 S
H256 C263 0.950 . S
C257 C255 1.387 1_565 S
C257 C259 1.390 . S
C257 H261 0.950 . S
H258 C254 0.950 . S
C259 C257 1.390 . S
C259 C260 1.390 1_565 S
C259 H262 0.950 . S
C260 C259 1.390 1_545 S
C260 C263 1.385 1_455 S
H261 C257 0.950 . S
H262 C259 0.950 . S
C263 C254 1.390 . S
C263 H256 0.950 . S
C263 C260 1.385 1_655 S
C264 C265 1.387 1_665 S
C264 H268 0.950 . S
C264 C273 1.390 . S
C265 C264 1.387 1_445 S
C265 C267 1.387 . S
H266 C273 0.950 . S
C267 C265 1.387 . S
C267 C269 1.390 . S
C267 H271 0.950 . S
H268 C264 0.950 . S
C269 C267 1.390 . S
C269 C270 1.390 . S
C269 H272 0.950 . S
C270 C269 1.390 . S
C270 C273 1.385 1_445 S
H271 C267 0.950 . S
H272 C269 0.950 . S
C273 C264 1.390 . S
C273 H266 0.950 . S
C273 C270 1.385 1_665 S
C274 C275 1.387 . S
C274 H278 0.950 . S
C274 C283 1.390 . S
C275 C274 1.387 . S
C275 C277 1.387 . S
H276 C283 0.950 . S
C277 C275 1.387 . S
C277 C279 1.390 . S
C277 H281 0.950 . S
H278 C274 0.950 . S
C279 C277 1.390 . S
C279 C280 1.387 . S
C279 H282 0.950 . S
C280 C279 1.387 . S
C280 C283 1.387 . S
H281 C277 0.950 . S
H282 C279 0.950 . S
C283 C274 1.390 . S
C283 H276 0.950 . S
C283 C280 1.387 . S
C284 C285 1.387 . S
C284 H288 0.950 . S
C284 C293 1.390 . S
C285 C284 1.387 . S
C285 C287 1.387 . S
H286 C293 0.950 . S
C287 C285 1.387 . S
C287 C289 1.390 . S
C287 H291 0.950 . S
H288 C284 0.950 . S
C289 C287 1.390 . S
C289 C290 1.387 . S
C289 H292 0.950 . S
C290 C289 1.387 . S
C290 C293 1.387 . S
H291 C287 0.950 . S
H292 C289 0.950 . S
C293 C284 1.390 . S
C293 H286 0.950 . S
C293 C290 1.387 . S
C180 C159 1.460 . S
C175 C21 1.471 . S
C185 C19 1.464 . S
C190 C127 1.451 . S
C195 C18 1.445 . S
C200 C165 1.433 . S
C205 C20 1.462 . S
C210 C133 1.433 . S
C215 C44 1.471 . S
C220 C95 1.458 . S
C225 C42 1.464 . S
C230 C63 1.449 . S
C240 C101 1.431 . S
C235 C41 1.443 . S
C250 C69 1.434 . S
C245 C43 1.462 . S
C255 C16 1.499 . S
C260 C75 1.462 . S
C265 C17 1.469 . S
C270 C107 1.439 1_545 S
C280 C139 1.459 . S
C275 C39 1.499 . S
C285 C40 1.469 . S
C290 C171 1.439 . S
