# Generated by pormake.
# Topology apo, (3,6)-cn, num edge types: 1
# Building blocks:
#     Node 0, Type 0, BuildingBlock: ESEHIV_clean_linker_0, # of connection points: 3
#     Node 1, Type 0, BuildingBlock: ESEHIV_clean_linker_0, # of connection points: 3
#     Node 2, Type 0, BuildingBlock: ESEHIV_clean_linker_0, # of connection points: 3
#     Node 3, Type 0, BuildingBlock: ESEHIV_clean_linker_0, # of connection points: 3
#     Node 4, Type 0, BuildingBlock: ESEHIV_clean_linker_0, # of connection points: 3
#     Node 5, Type 0, BuildingBlock: ESEHIV_clean_linker_0, # of connection points: 3
#     Node 6, Type 0, BuildingBlock: ESEHIV_clean_linker_0, # of connection points: 3
#     Node 7, Type 0, BuildingBlock: ESEHIV_clean_linker_0, # of connection points: 3
#     Node 8, Type 1, BuildingBlock: MIDCAF_clean_sbu_0, # of connection points: 6
#     Node 9, Type 1, BuildingBlock: MIDCAF_clean_sbu_0, # of connection points: 6
#     Node 10, Type 1, BuildingBlock: MIDCAF_clean_sbu_0, # of connection points: 6
#     Node 11, Type 1, BuildingBlock: MIDCAF_clean_sbu_0, # of connection points: 6
#     Edge 12, Type (0, 1), BuildingBlock: MIFKUJ_clean_linker_0, # of connection points: 2
#     Edge 13, Type (0, 1), BuildingBlock: MIFKUJ_clean_linker_0, # of connection points: 2
#     Edge 14, Type (0, 1), BuildingBlock: MIFKUJ_clean_linker_0, # of connection points: 2
#     Edge 15, Type (0, 1), BuildingBlock: MIFKUJ_clean_linker_0, # of connection points: 2
#     Edge 16, Type (0, 1), BuildingBlock: MIFKUJ_clean_linker_0, # of connection points: 2
#     Edge 17, Type (0, 1), BuildingBlock: MIFKUJ_clean_linker_0, # of connection points: 2
#     Edge 18, Type (0, 1), BuildingBlock: MIFKUJ_clean_linker_0, # of connection points: 2
#     Edge 19, Type (0, 1), BuildingBlock: MIFKUJ_clean_linker_0, # of connection points: 2
#     Edge 20, Type (0, 1), BuildingBlock: MIFKUJ_clean_linker_0, # of connection points: 2
#     Edge 21, Type (0, 1), BuildingBlock: MIFKUJ_clean_linker_0, # of connection points: 2
#     Edge 22, Type (0, 1), BuildingBlock: MIFKUJ_clean_linker_0, # of connection points: 2
#     Edge 23, Type (0, 1), BuildingBlock: MIFKUJ_clean_linker_0, # of connection points: 2
#     Edge 24, Type (0, 1), BuildingBlock: MIFKUJ_clean_linker_0, # of connection points: 2
#     Edge 25, Type (0, 1), BuildingBlock: MIFKUJ_clean_linker_0, # of connection points: 2
#     Edge 26, Type (0, 1), BuildingBlock: MIFKUJ_clean_linker_0, # of connection points: 2
#     Edge 27, Type (0, 1), BuildingBlock: MIFKUJ_clean_linker_0, # of connection points: 2
#     Edge 28, Type (0, 1), BuildingBlock: MIFKUJ_clean_linker_0, # of connection points: 2
#     Edge 29, Type (0, 1), BuildingBlock: MIFKUJ_clean_linker_0, # of connection points: 2
#     Edge 30, Type (0, 1), BuildingBlock: MIFKUJ_clean_linker_0, # of connection points: 2
#     Edge 31, Type (0, 1), BuildingBlock: MIFKUJ_clean_linker_0, # of connection points: 2
#     Edge 32, Type (0, 1), BuildingBlock: MIFKUJ_clean_linker_0, # of connection points: 2
#     Edge 33, Type (0, 1), BuildingBlock: MIFKUJ_clean_linker_0, # of connection points: 2
#     Edge 34, Type (0, 1), BuildingBlock: MIFKUJ_clean_linker_0, # of connection points: 2
#     Edge 35, Type (0, 1), BuildingBlock: MIFKUJ_clean_linker_0, # of connection points: 2
# Relax obj value: 0.086
# Max RMSD: 0.099
# Mean RMSD: 0.089
data_MOF--net-apo--node1-MIDCAF_clean_sbu_0--node2-ESEHIV_clean_linker_0--edge1-MIFKUJ_clean_linker_0
_symmetry_space_group_name_H-M    P1
_symmetry_Int_Tables_number       1
_symmetry_cell_setting            triclinic
loop_
_symmetry_equiv_pos_as_xyz
'x, y, z'
_cell_length_a     42.921383
_cell_length_b     51.148959
_cell_length_c     45.845883
_cell_angle_alpha  89.942629
_cell_angle_beta   90.0408
_cell_angle_gamma 90.226523
loop_
_atom_site_label
_atom_site_type_symbol
_atom_site_fract_x
_atom_site_fract_y
_atom_site_fract_z
_atom_type_partial_charge
H0 H 0.36361 0.40637 0.4406 0.0
H1 H 0.30957 0.38125 0.36712 0.0
H2 H 0.29546 0.34513 0.45115 0.0
C3 C 0.34615 0.39334 0.4315 0.0
C4 C 0.33081 0.37524 0.44959 0.0
C5 C 0.33861 0.39554 0.40189 0.0
C6 C 0.31504 0.37969 0.39013 0.0
C7 C 0.29935 0.36128 0.40769 0.0
C8 C 0.3074 0.35923 0.43746 0.0
H9 H 0.1339 0.0932 0.93951 0.0
H10 H 0.18689 0.12279 0.86742 0.0
H11 H 0.19917 0.15653 0.95243 0.0
C12 C 0.15049 0.10727 0.93104 0.0
C13 C 0.16495 0.12527 0.95002 0.0
C14 C 0.15778 0.10654 0.90121 0.0
C15 C 0.18107 0.1232 0.89042 0.0
C16 C 0.19635 0.14099 0.90887 0.0
C17 C 0.18779 0.14233 0.93849 0.0
H18 H 0.85701 0.13827 0.60194 0.0
H19 H 0.80526 0.14606 0.68172 0.0
H20 H 0.78907 0.19932 0.61063 0.0
C21 C 0.83981 0.1484 0.61495 0.0
C22 C 0.82392 0.16981 0.60282 0.0
C23 C 0.8333 0.13954 0.64336 0.0
C24 C 0.8108 0.1528 0.65991 0.0
C25 C 0.7949 0.17448 0.64838 0.0
C26 C 0.80157 0.18287 0.61979 0.0
H27 H 0.64316 0.36754 0.10441 0.0
H28 H 0.69537 0.36442 0.18463 0.0
H29 H 0.71154 0.30767 0.11701 0.0
C30 C 0.66061 0.35847 0.11815 0.0
C31 C 0.67666 0.33662 0.10758 0.0
C32 C 0.66738 0.36902 0.14575 0.0
C33 C 0.68978 0.35655 0.16332 0.0
C34 C 0.70542 0.3341 0.15339 0.0
C35 C 0.699 0.32447 0.12526 0.0
H36 H 0.64706 0.59296 0.56079 0.0
H37 H 0.71095 0.65752 0.56868 0.0
H38 H 0.69725 0.60461 0.64086 0.0
C39 C 0.66349 0.60425 0.57366 0.0
C40 C 0.67024 0.59641 0.60236 0.0
C41 C 0.6787 0.62592 0.56111 0.0
C42 C 0.70015 0.64025 0.578 0.0
C43 C 0.70679 0.63306 0.60705 0.0
C44 C 0.692 0.61078 0.61879 0.0
H45 H 0.85387 0.9044 0.06076 0.0
H46 H 0.81342 0.88624 0.14434 0.0
H47 H 0.80039 0.83378 0.07208 0.0
C48 C 0.84008 0.89156 0.07449 0.0
C49 C 0.82753 0.8684 0.06271 0.0
C50 C 0.83527 0.89815 0.10395 0.0
C51 C 0.81737 0.88134 0.12164 0.0
C52 C 0.80475 0.85808 0.11029 0.0
C53 C 0.80994 0.85179 0.08084 0.0
H54 H 0.14174 0.86565 0.41312 0.0
H55 H 0.20427 0.79983 0.41019 0.0
H56 H 0.19399 0.84951 0.33537 0.0
C57 C 0.15786 0.85337 0.40127 0.0
C58 C 0.16575 0.86003 0.37242 0.0
C59 C 0.17141 0.83161 0.41529 0.0
C60 C 0.19351 0.81662 0.39993 0.0
C61 C 0.20212 0.82348 0.37134 0.0
C62 C 0.18792 0.8449 0.35775 0.0
H63 H 0.39192 0.64654 0.89109 0.0
H64 H 0.32533 0.65631 0.82196 0.0
H65 H 0.32232 0.70653 0.89719 0.0
C66 C 0.37217 0.65672 0.88183 0.0
C67 C 0.35855 0.67729 0.8976 0.0
C68 C 0.3604 0.64882 0.85458 0.0
C69 C 0.33478 0.66222 0.84287 0.0
C70 C 0.32103 0.68318 0.8579 0.0
C71 C 0.33299 0.69058 0.88535 0.0
Zn72 Zn 0.02422 0.13813 0.33218 0.0
Zn73 Zn 0.00624 0.17605 0.2417 0.0
Zn74 Zn 0.00797 0.15382 0.2851 0.0
C75 C 0.05565 0.14428 0.23806 0.0
C76 C 0.98118 0.1262 0.23053 0.0
O77 O 0.96419 0.15773 0.30935 0.0
O78 O 0.98363 0.14544 0.35172 0.0
C79 C 0.06366 0.18065 0.31569 0.0
O80 O 0.03511 0.13137 0.25279 0.0
O81 O 0.05265 0.16887 0.23603 0.0
O82 O 0.97578 0.14935 0.22206 0.0
O83 O 1.00043 0.12301 0.25195 0.0
O84 O 0.06033 0.16338 0.33527 0.0
O85 O 0.04495 0.18106 0.29407 0.0
O86 O 0.0198 0.11234 0.27579 0.0
O87 O 0.03137 0.101 0.32112 0.0
C88 C 0.02784 0.09485 0.29465 0.0
O89 O 0.96394 0.17513 0.28172 0.0
O90 O 0.98693 0.20808 0.25962 0.0
C91 C 0.96074 0.15318 0.33668 0.0
C92 C 0.96327 0.19892 0.27266 0.0
Zn93 Zn 0.49867 0.32188 0.74607 0.0
Zn94 Zn 0.46521 0.35954 0.82967 0.0
Zn95 Zn 0.49006 0.34511 0.78705 0.0
C96 C 0.47182 0.40431 0.79497 0.0
C97 C 0.42808 0.31939 0.80775 0.0
O98 O 0.53539 0.32522 0.78851 0.0
O99 O 0.51598 0.29046 0.76706 0.0
C100 C 0.52357 0.37185 0.73589 0.0
O101 O 0.48011 0.38682 0.77627 0.0
O102 O 0.46537 0.39761 0.82081 0.0
O103 O 0.42604 0.33861 0.82495 0.0
O104 O 0.45242 0.31692 0.79199 0.0
O105 O 0.53151 0.34858 0.73018 0.0
O106 O 0.50087 0.37541 0.75393 0.0
O107 O 0.46652 0.36708 0.75205 0.0
O108 O 0.45331 0.32854 0.73462 0.0
C109 C 0.44836 0.35295 0.73599 0.0
O110 O 0.52894 0.34156 0.81754 0.0
O111 O 0.49867 0.34589 0.85592 0.0
C112 C 0.53826 0.3012 0.78073 0.0
C113 C 0.52514 0.34081 0.84528 0.0
Zn114 Zn 0.01152 0.83277 0.79177 0.0
Zn115 Zn 0.96471 0.84398 0.68858 0.0
Zn116 Zn 0.98821 0.83948 0.74023 0.0
C117 C 0.97 0.89465 0.70903 0.0
C118 C 0.9221 0.8142 0.7197 0.0
O119 O 0.03444 0.81916 0.73631 0.0
O120 O 0.05012 0.81454 0.78205 0.0
C121 C 0.00751 0.88685 0.78245 0.0
O122 O 0.97993 0.88194 0.7315 0.0
O123 O 0.96286 0.88248 0.68603 0.0
O124 O 0.92525 0.82526 0.69528 0.0
O125 O 0.94331 0.81695 0.73946 0.0
O126 O 0.01512 0.87041 0.80172 0.0
O127 O 0.99657 0.87904 0.75777 0.0
O128 O 0.95326 0.81917 0.76898 0.0
O129 O 0.97813 0.81279 0.81058 0.0
C130 C 0.95362 0.81076 0.79556 0.0
O131 O 0.02213 0.82273 0.7083 0.0
O132 O 0.99722 0.82563 0.66619 0.0
C133 C 0.05467 0.81124 0.75518 0.0
C134 C 0.02101 0.81894 0.68049 0.0
Zn135 Zn 0.55612 0.64051 0.16609 0.0
Zn136 Zn 0.49235 0.68012 0.29027 0.0
Zn137 Zn 0.51234 0.66326 0.24289 0.0
C138 C 0.55773 0.68652 0.28953 0.0
C139 C 0.47902 0.62652 0.28921 0.0
O140 O 0.48248 0.67891 0.20816 0.0
O141 O 0.51875 0.65902 0.18492 0.0
C142 C 0.58649 0.67503 0.21306 0.0
O143 O 0.5545 0.67939 0.26282 0.0
O144 O 0.53423 0.68776 0.30603 0.0
O145 O 0.4704 0.64684 0.30258 0.0
O146 O 0.49715 0.62838 0.26697 0.0
O147 O 0.58771 0.66218 0.18901 0.0
O148 O 0.56214 0.67545 0.23016 0.0
O149 O 0.51122 0.62071 0.24154 0.0
O150 O 0.52857 0.63317 0.20011 0.0
C151 C 0.52377 0.61445 0.21744 0.0
O152 O 0.4715 0.68945 0.23432 0.0
O153 O 0.46674 0.70957 0.27668 0.0
C154 C 0.49387 0.67225 0.1836 0.0
C155 C 0.45854 0.70697 0.25043 0.0
H156 H 0.10495 0.87628 0.37555 0.0
H157 H 0.08108 0.9135 0.35093 0.0
H158 H 0.16882 0.93172 0.30962 0.0
H159 H 0.19328 0.89551 0.33548 0.0
H160 H 0.14441 0.97428 0.3284 0.0
H161 H 0.10615 0.90373 0.27127 0.0
H162 H 0.08144 0.86108 0.26129 0.0
H163 H 0.99585 0.88815 0.29888 0.0
H164 H 0.02018 0.93086 0.30949 0.0
H165 H 0.07127 0.07788 0.25576 0.0
H166 H 0.09383 0.03377 0.25503 0.0
H167 H 0.02356 0.00751 0.31572 0.0
H168 H 1.0014 0.05141 0.31665 0.0
H169 H 0.04296 0.96774 0.27685 0.0
H170 H 0.08663 0.03418 0.34236 0.0
H171 H 0.11118 0.07706 0.35168 0.0
H172 H 0.18763 0.05667 0.29587 0.0
H173 H 0.16322 0.01379 0.28588 0.0
C174 C 0.11927 0.88834 0.36147 0.0
C175 C 0.15106 0.88277 0.35749 0.0
C176 C 0.10545 0.9094 0.34699 0.0
C177 C 0.12296 0.92514 0.32787 0.0
C178 C 0.15472 0.91975 0.32402 0.0
C179 C 0.16863 0.89886 0.33869 0.0
C180 C 0.1085 0.94802 0.31313 0.0
C181 C 0.12263 0.97264 0.3165 0.0
C182 C 0.0799 0.9461 0.29776 0.0
C183 C 0.06508 0.92047 0.29135 0.0
C184 C 0.08213 0.90054 0.2776 0.0
C185 C 0.06817 0.87636 0.2718 0.0
C186 C 0.03711 0.8719 0.27949 0.0
C187 C 0.01991 0.89164 0.29294 0.0
C188 C 0.03376 0.91585 0.29882 0.0
C189 C 0.05987 0.06232 0.26778 0.0
C190 C 0.03473 0.06782 0.28628 0.0
C191 C 0.07284 0.03722 0.26752 0.0
C192 C 0.06058 0.0175 0.28566 0.0
C193 C 0.03334 0.0224 0.30156 0.0
C194 C 0.02073 0.04746 0.30212 0.0
C195 C 0.07874 0.99369 0.29257 0.0
C196 C 0.06522 0.96903 0.28799 0.0
C197 C 0.10802 0.99545 0.30666 0.0
C198 C 0.12296 0.02096 0.31312 0.0
C199 C 0.10858 0.03892 0.33195 0.0
C200 C 0.12247 0.06321 0.33736 0.0
C201 C 0.15091 0.06962 0.32431 0.0
C202 C 0.16557 0.0517 0.30591 0.0
C203 C 0.15172 0.02742 0.30037 0.0
H204 H 0.16162 0.08843 0.32851 0.0
H205 H 0.02635 0.85316 0.27498 0.0
H206 H 0.36843 0.64223 0.7952 0.0
H207 H 0.3916 0.60476 0.77 0.0
H208 H 0.40911 0.56763 0.85274 0.0
H209 H 0.38432 0.60378 0.87802 0.0
H210 H 0.4629 0.57415 0.80516 0.0
H211 H 0.35472 0.54378 0.8259 0.0
H212 H 0.29787 0.54827 0.81989 0.0
H213 H 0.30835 0.54649 0.72676 0.0
H214 H 0.36536 0.54236 0.73229 0.0
H215 H 0.4894 0.4444 0.8289 0.0
H216 H 0.47716 0.49025 0.82286 0.0
H217 H 0.43659 0.47395 0.73853 0.0
H218 H 0.44744 0.42713 0.74556 0.0
H219 H 0.39818 0.5011 0.7674 0.0
H220 H 0.50452 0.51529 0.74825 0.0
H221 H 0.56162 0.51185 0.75302 0.0
H222 H 0.55755 0.54636 0.83807 0.0
H223 H 0.50047 0.54943 0.8344 0.0
C224 C 0.37675 0.62594 0.80808 0.0
C225 C 0.37459 0.62627 0.8388 0.0
C226 C 0.39025 0.60469 0.7936 0.0
C227 C 0.40223 0.58365 0.8096 0.0
C228 C 0.40027 0.5839 0.84008 0.0
C229 C 0.38626 0.60475 0.85451 0.0
C230 C 0.41662 0.56092 0.79509 0.0
C231 C 0.44901 0.55811 0.79668 0.0
C232 C 0.39842 0.54077 0.7827 0.0
C233 C 0.36425 0.54318 0.77949 0.0
C234 C 0.34492 0.54465 0.80416 0.0
C235 C 0.31267 0.54706 0.80084 0.0
C236 C 0.29951 0.54778 0.77296 0.0
C237 C 0.31858 0.54601 0.74834 0.0
C238 C 0.35084 0.54364 0.75155 0.0
C239 C 0.47853 0.45065 0.80874 0.0
C240 C 0.46968 0.4323 0.78755 0.0
C241 C 0.47185 0.47703 0.80509 0.0
C242 C 0.45651 0.48591 0.77992 0.0
C243 C 0.44879 0.4677 0.758 0.0
C244 C 0.45525 0.44101 0.76184 0.0
C245 C 0.44479 0.51328 0.77918 0.0
C246 C 0.41271 0.51721 0.77472 0.0
C247 C 0.46351 0.53463 0.78855 0.0
C248 C 0.49802 0.53263 0.79099 0.0
C249 C 0.51571 0.52198 0.76809 0.0
C250 C 0.5481 0.52009 0.77058 0.0
C251 C 0.56316 0.52895 0.79571 0.0
C252 C 0.54586 0.5396 0.81854 0.0
C253 C 0.51347 0.54144 0.81627 0.0
H254 H 0.58824 0.52753 0.7975 0.0
H255 H 0.27455 0.54963 0.77043 0.0
H256 H 0.60786 0.58567 0.60489 0.0
H257 H 0.58232 0.54734 0.62685 0.0
H258 H 0.67207 0.51603 0.65015 0.0
H259 H 0.69767 0.55455 0.62877 0.0
H260 H 0.62764 0.47978 0.62064 0.0
H261 H 0.63484 0.54041 0.70216 0.0
H262 H 0.62585 0.58203 0.72788 0.0
H263 H 0.52717 0.57334 0.71551 0.0
H264 H 0.53563 0.53185 0.68933 0.0
H265 H 0.58225 0.37498 0.71289 0.0
H266 H 0.60678 0.41267 0.68924 0.0
H267 H 0.52145 0.45634 0.69891 0.0
H268 H 0.49814 0.41945 0.72449 0.0
H269 H 0.5629 0.4871 0.7097 0.0
H270 H 0.55136 0.42848 0.63017 0.0
H271 H 0.55584 0.38725 0.60269 0.0
H272 H 0.65562 0.39263 0.6066 0.0
H273 H 0.65174 0.43374 0.63444 0.0
C274 C 0.62209 0.57056 0.61466 0.0
C275 C 0.65472 0.57306 0.61519 0.0
C276 C 0.60751 0.54877 0.62726 0.0
C277 C 0.62533 0.5289 0.64016 0.0
C278 C 0.65793 0.53116 0.64031 0.0
C279 C 0.67248 0.55318 0.62823 0.0
C280 C 0.60999 0.50575 0.65352 0.0
C281 C 0.61377 0.48122 0.64035 0.0
C282 C 0.59091 0.5079 0.67849 0.0
C283 C 0.58591 0.53322 0.69345 0.0
C284 C 0.61126 0.54756 0.70457 0.0
C285 C 0.60625 0.57108 0.71933 0.0
C286 C 0.57597 0.58038 0.72323 0.0
C287 C 0.55063 0.56619 0.71235 0.0
C288 C 0.55552 0.54268 0.69754 0.0
C289 C 0.56878 0.39264 0.70984 0.0
C290 C 0.53814 0.39423 0.72044 0.0
C291 C 0.58271 0.41417 0.69604 0.0
C292 C 0.5659 0.43743 0.69153 0.0
C293 C 0.53516 0.43881 0.70199 0.0
C294 C 0.52167 0.41762 0.71658 0.0
C295 C 0.58056 0.46069 0.67713 0.0
C296 C 0.57667 0.4854 0.69001 0.0
C297 C 0.59879 0.45877 0.6514 0.0
C298 C 0.60125 0.43406 0.63464 0.0
C299 C 0.57426 0.42078 0.62535 0.0
C300 C 0.57669 0.39744 0.60968 0.0
C301 C 0.60599 0.38729 0.60297 0.0
C302 C 0.63293 0.4005 0.61185 0.0
C303 C 0.63064 0.42383 0.62755 0.0
H304 H 0.60783 0.36922 0.59084 0.0
H305 H 0.57213 0.59853 0.73476 0.0
H306 H 0.86707 0.90339 0.15532 0.0
H307 H 0.89148 0.94277 0.17525 0.0
H308 H 0.85998 0.98696 0.1007 0.0
H309 H 0.83608 0.94741 0.08039 0.0
H310 H 0.91726 1.00012 0.11251 0.0
H311 H 0.82466 0.99162 0.16964 0.0
H312 H 0.7864 0.96931 0.20122 0.0
H313 H 0.85663 0.95821 0.26677 0.0
H314 H 0.89543 0.98014 0.2354 0.0
H315 H 0.94814 0.12527 0.17911 0.0
H316 H 0.92373 0.08727 0.15568 0.0
H317 H 0.95918 0.0374 0.22386 0.0
H318 H 0.9832 0.0751 0.24741 0.0
H319 H 0.89814 0.02853 0.21428 0.0
H320 H 0.99068 0.03806 0.15572 0.0
H321 H 0.02812 0.05944 0.12251 0.0
H322 H 0.95599 0.06954 0.0586 0.0
H323 H 0.91796 0.04872 0.09164 0.0
C324 C 0.86511 0.92156 0.14331 0.0
C325 C 0.8495 0.92231 0.11635 0.0
C326 C 0.87905 0.9441 0.15474 0.0
C327 C 0.87722 0.96805 0.13975 0.0
C328 C 0.86175 0.96879 0.11273 0.0
C329 C 0.84809 0.94617 0.10113 0.0
C330 C 0.89183 0.99216 0.15203 0.0
C331 C 0.91266 0.00657 0.13462 0.0
C332 C 0.88634 1.00042 0.18106 0.0
C333 C 0.86302 0.98732 0.20005 0.0
C334 C 0.832 0.98426 0.1907 0.0
C335 C 0.81021 0.9717 0.20858 0.0
C336 C 0.81909 0.96229 0.23596 0.0
C337 C 0.84978 0.96548 0.24555 0.0
C338 C 0.87168 0.978 0.22774 0.0
C339 C 0.95087 0.10618 0.18901 0.0
C340 C 0.96766 0.10326 0.21518 0.0
C341 C 0.93701 0.08445 0.17552 0.0
C342 C 0.93968 0.05942 0.18795 0.0
C343 C 0.95675 0.05648 0.21386 0.0
C344 C 0.97065 0.0781 0.22724 0.0
C345 C 0.92373 0.03635 0.17482 0.0
C346 C 0.9026 0.02215 0.19211 0.0
C347 C 0.92873 0.02849 0.1456 0.0
C348 C 0.95139 0.04201 0.12628 0.0
C349 C 0.98269 0.04516 0.13476 0.0
C350 C 0.00405 0.0571 0.11592 0.0
C351 C 0.99444 0.06573 0.08843 0.0
C352 C 0.9634 0.06278 0.07987 0.0
C353 C 0.94193 0.05094 0.09865 0.0
H354 H 0.01105 0.0746 0.07365 0.0
H355 H 0.80219 0.95257 0.24976 0.0
H356 H 0.85452 0.13072 0.69927 0.0
H357 H 0.87955 0.09133 0.71836 0.0
H358 H 0.87433 0.05597 0.63308 0.0
H359 H 0.84781 0.09443 0.61435 0.0
H360 H 0.85765 0.02197 0.67163 0.0
H361 H 0.94487 0.08215 0.66289 0.0
H362 H 0.97282 0.1235 0.6725 0.0
H363 H 0.96889 0.10855 0.76457 0.0
H364 H 0.94117 0.06697 0.7555 0.0
H365 H 0.97232 0.92823 0.66347 0.0
H366 H 0.95227 0.97272 0.66159 0.0
H367 H 0.93393 0.9703 0.75396 0.0
H368 H 0.95343 0.92513 0.75595 0.0
H369 H 0.96036 0.0234 0.72149 0.0
H370 H 0.87602 0.95967 0.72729 0.0
H371 H 0.85125 0.91772 0.71409 0.0
H372 H 0.85132 0.94015 0.6238 0.0
H373 H 0.87662 0.98206 0.63645 0.0
C374 C 0.85844 0.11445 0.68464 0.0
C375 C 0.84923 0.11589 0.65518 0.0
C376 C 0.87313 0.09204 0.69553 0.0
C377 C 0.87923 0.07072 0.67711 0.0
C378 C 0.86999 0.07214 0.64776 0.0
C379 C 0.8551 0.09435 0.63697 0.0
C380 C 0.89456 0.04657 0.68815 0.0
C381 C 0.88008 0.02243 0.68254 0.0
C382 C 0.92354 0.04695 0.70305 0.0
C383 C 0.94072 0.07162 0.70853 0.0
C384 C 0.94995 0.08772 0.68519 0.0
C385 C 0.96585 0.11113 0.69054 0.0
C386 C 0.97271 0.11861 0.71915 0.0
C387 C 0.96378 0.10263 0.74245 0.0
C388 C 0.94804 0.07911 0.73721 0.0
C389 C 0.96471 0.93732 0.68356 0.0
C390 C 0.96439 0.92317 0.70985 0.0
C391 C 0.95339 0.96279 0.68245 0.0
C392 C 0.94155 0.97469 0.70758 0.0
C393 C 0.94321 0.96143 0.73438 0.0
C394 C 0.95441 0.9357 0.73549 0.0
C395 C 0.92357 0.99917 0.70437 0.0
C396 C 0.93756 0.0232 0.71126 0.0
C397 C 0.89421 0.99881 0.6904 0.0
C398 C 0.87843 0.97388 0.6828 0.0
C399 C 0.87098 0.95555 0.7046 0.0
C400 C 0.85681 0.93181 0.69722 0.0
C401 C 0.84977 0.92625 0.66811 0.0
C402 C 0.85681 0.94447 0.64633 0.0
C403 C 0.87103 0.96823 0.6536 0.0
H404 H 0.83882 0.90785 0.66244 0.0
H405 H 0.98492 0.13679 0.72327 0.0
H406 H 0.65211 0.41164 0.11253 0.0
H407 H 0.62612 0.45142 0.12767 0.0
H408 H 0.62313 0.42335 0.21639 0.0
H409 H 0.64735 0.38234 0.20096 0.0
H410 H 0.57057 0.4473 0.20442 0.0
H411 H 0.67743 0.4696 0.19404 0.0
H412 H 0.72896 0.47219 0.17047 0.0
H413 H 0.6901 0.51769 0.1007 0.0
H414 H 0.63821 0.51506 0.12365 0.0
H415 H 0.54017 0.57729 0.25721 0.0
H416 H 0.56276 0.5343 0.24787 0.0
H417 H 0.56027 0.54983 0.15539 0.0
H418 H 0.53709 0.59267 0.16478 0.0
H419 H 0.61703 0.53201 0.17396 0.0
H420 H 0.50839 0.50752 0.18698 0.0
H421 H 0.45922 0.50663 0.21481 0.0
H422 H 0.50495 0.4669 0.28528 0.0
H423 H 0.55451 0.4678 0.25799 0.0
C424 C 0.64548 0.41356 0.1352 0.0
C425 C 0.65183 0.39358 0.15547 0.0
C426 C 0.63097 0.4366 0.14393 0.0
C427 C 0.62316 0.44068 0.1733 0.0
C428 C 0.62909 0.42074 0.19363 0.0
C429 C 0.64328 0.39741 0.18481 0.0
C430 C 0.60918 0.46595 0.18251 0.0
C431 C 0.58098 0.46581 0.19811 0.0
C432 C 0.62265 0.49021 0.17432 0.0
C433 C 0.65386 0.49195 0.16046 0.0
C434 C 0.67982 0.48001 0.17357 0.0
C435 C 0.7091 0.4815 0.16033 0.0
C436 C 0.71279 0.49505 0.13408 0.0
C437 C 0.6872 0.50718 0.12103 0.0
C438 C 0.65785 0.50572 0.13416 0.0
C439 C 0.54356 0.57121 0.23494 0.0
C440 C 0.53628 0.58809 0.21178 0.0
C441 C 0.55674 0.54673 0.22959 0.0
C442 C 0.56289 0.53873 0.2009 0.0
C443 C 0.55564 0.55559 0.1777 0.0
C444 C 0.54243 0.58004 0.18308 0.0
C445 C 0.5781 0.51329 0.19503 0.0
C446 C 0.60668 0.51346 0.18024 0.0
C447 C 0.56526 0.4892 0.20451 0.0
C448 C 0.53522 0.4879 0.22051 0.0
C449 C 0.50799 0.49868 0.20845 0.0
C450 C 0.48005 0.49817 0.22413 0.0
C451 C 0.47898 0.48676 0.25183 0.0
C452 C 0.50582 0.47573 0.26383 0.0
C453 C 0.53383 0.47619 0.24824 0.0
H454 H 0.45735 0.48642 0.26395 0.0
H455 H 0.73548 0.49619 0.12386 0.0
H456 H 0.31347 0.43398 0.36824 0.0
H457 H 0.34116 0.46953 0.34355 0.0
H458 H 0.42912 0.43602 0.36959 0.0
H459 H 0.40128 0.4011 0.39534 0.0
H460 H 0.43156 0.48406 0.38084 0.0
H461 H 0.40354 0.43773 0.29586 0.0
H462 H 0.37032 0.4136 0.26113 0.0
H463 H 0.31352 0.48168 0.24908 0.0
H464 H 0.34615 0.50613 0.28406 0.0
H465 H 0.5116 0.58177 0.29722 0.0
H466 H 0.49098 0.53841 0.3099 0.0
H467 H 0.39839 0.57064 0.31495 0.0
H468 H 0.41905 0.61387 0.30163 0.0
H469 H 0.40437 0.52023 0.28368 0.0
H470 H 0.43452 0.56356 0.37506 0.0
H471 H 0.47371 0.58621 0.40537 0.0
H472 H 0.53396 0.51959 0.39981 0.0
H473 H 0.49526 0.49669 0.3691 0.0
C474 C 0.33871 0.43402 0.36819 0.0
C475 C 0.35529 0.41494 0.38367 0.0
C476 C 0.35458 0.45426 0.35398 0.0
C477 C 0.38734 0.45541 0.35442 0.0
C478 C 0.40389 0.43568 0.36899 0.0
C479 C 0.38801 0.41572 0.38362 0.0
C480 C 0.4041 0.4783 0.34182 0.0
C481 C 0.42594 0.49156 0.35934 0.0
C482 C 0.397 0.48831 0.31376 0.0
C483 C 0.37715 0.4737 0.2928 0.0
C484 C 0.38381 0.44749 0.286 0.0
C485 C 0.36511 0.43377 0.26623 0.0
C486 C 0.33978 0.44608 0.25297 0.0
C487 C 0.33313 0.47216 0.2594 0.0
C488 C 0.35175 0.48598 0.27917 0.0
C489 C 0.48683 0.57933 0.3003 0.0
C490 C 0.46682 0.60083 0.29797 0.0
C491 C 0.47511 0.55473 0.30782 0.0
C492 C 0.44316 0.55139 0.31313 0.0
C493 C 0.42308 0.57286 0.31066 0.0
C494 C 0.43489 0.5975 0.30339 0.0
C495 C 0.43082 0.5259 0.32302 0.0
C496 C 0.40998 0.5123 0.30499 0.0
C497 C 0.43949 0.51515 0.3502 0.0
C498 C 0.4621 0.52849 0.36967 0.0
C499 C 0.45616 0.55378 0.38026 0.0
C500 C 0.47828 0.56666 0.3975 0.0
C501 C 0.50631 0.55435 0.4045 0.0
C502 C 0.51222 0.52909 0.39438 0.0
C503 C 0.49019 0.51614 0.3771 0.0
H504 H 0.52346 0.56439 0.41775 0.0
H505 H 0.32534 0.43542 0.23766 0.0
H506 H 0.18207 0.07603 0.85769 0.0
H507 H 0.15447 0.04418 0.82726 0.0
H508 H 0.06825 0.06314 0.87054 0.0
H509 H 0.09544 0.09558 0.90025 0.0
H510 H 0.12661 0.0015 0.84542 0.0
H511 H 0.00678 0.05174 0.82719 0.0
H512 H 0.98618 0.09599 0.81846 0.0
H513 H 0.07386 0.11972 0.78175 0.0
H514 H 0.09495 0.07557 0.79011 0.0
H515 H 0.00818 0.91127 0.83482 0.0
H516 H 0.03072 0.95399 0.84589 0.0
H517 H 0.04591 0.96796 0.75425 0.0
H518 H 0.02392 0.92474 0.74296 0.0
H519 H 0.02668 0.01474 0.79288 0.0
H520 H 0.1034 0.94708 0.78074 0.0
H521 H 0.12404 0.90263 0.7881 0.0
H522 H 0.12563 0.9149 0.88072 0.0
H523 H 0.10444 0.95929 0.87394 0.0
C524 C 0.15713 0.07379 0.86029 0.0
C525 C 0.14097 0.08821 0.88151 0.0
C526 C 0.14141 0.05551 0.84297 0.0
C527 C 0.10924 0.05142 0.84641 0.0
C528 C 0.09296 0.06625 0.8671 0.0
C529 C 0.10863 0.08452 0.88438 0.0
C530 C 0.0932 0.02995 0.83055 0.0
C531 C 0.10501 0.00456 0.83361 0.0
C532 C 0.0651 0.03383 0.81488 0.0
C533 C 0.0525 0.06037 0.80947 0.0
C534 C 0.02163 0.06636 0.81715 0.0
C535 C 0.0099 0.09145 0.81234 0.0
C536 C 0.02872 0.11067 0.79962 0.0
C537 C 0.05933 0.10484 0.79169 0.0
C538 C 0.07122 0.0798 0.79655 0.0
C539 C 0.01556 0.92369 0.81694 0.0
C540 C 0.01429 0.9147 0.78802 0.0
C541 C 0.02832 0.9481 0.8233 0.0
C542 C 0.04011 0.96394 0.80089 0.0
C543 C 0.03672 0.95599 0.77178 0.0
C544 C 0.02406 0.93138 0.76537 0.0
C545 C 0.05985 0.98663 0.80857 0.0
C546 C 0.04864 0.01201 0.80417 0.0
C547 C 0.0888 0.9829 0.82266 0.0
C548 C 0.10212 0.95642 0.82683 0.0
C549 C 0.10793 0.94023 0.80269 0.0
C550 C 0.11975 0.91506 0.80675 0.0
C551 C 0.12609 0.90595 0.83486 0.0
C552 C 0.12069 0.922 0.85896 0.0
C553 C 0.1088 0.94717 0.85502 0.0
H554 H 0.13527 0.88648 0.83795 0.0
H555 H 0.01955 0.13007 0.79584 0.0
H556 H 0.20192 0.13729 0.99777 0.0
H557 H 0.18761 0.13633 0.04913 0.0
H558 H 0.09502 0.11037 0.02605 0.0
H559 H 0.10787 0.11441 0.97484 0.0
H560 H 0.08777 0.13969 0.06693 0.0
H561 H 0.15814 0.06858 0.05488 0.0
H562 H 0.20669 0.04624 0.04087 0.0
H563 H 0.25837 0.09363 0.10132 0.0
H564 H 0.21017 0.11649 0.11543 0.0
H565 H 0.04393 0.10033 0.20627 0.0
H566 H 0.06917 0.0893 0.16001 0.0
H567 H 0.13876 0.14873 0.17532 0.0
H568 H 0.11322 0.16025 0.22121 0.0
H569 H 0.15787 0.09902 0.14008 0.0
H570 H 0.08114 0.17167 0.14656 0.0
H571 H 0.0294 0.18582 0.16373 0.0
H572 H 0.98593 0.12496 0.11345 0.0
H573 H 0.03762 0.11044 0.09625 0.0
C574 C 0.17829 0.13193 1.00346 0.0
C575 C 0.1563 0.12557 0.98172 0.0
C576 C 0.17028 0.13083 0.03307 0.0
C577 C 0.14044 0.12245 0.04183 0.0
C578 C 0.11832 0.11666 0.02017 0.0
C579 C 0.12596 0.11857 0.99064 0.0
C580 C 0.13185 0.12017 0.07337 0.0
C581 C 0.10312 0.13043 0.08261 0.0
C582 C 0.15156 0.10814 0.09436 0.0
C583 C 0.18059 0.09442 0.08599 0.0
C584 C 0.17989 0.07436 0.06504 0.0
C585 C 0.20734 0.06159 0.0571 0.0
C586 C 0.23561 0.06856 0.07014 0.0
C587 C 0.23646 0.08828 0.09121 0.0
C588 C 0.20908 0.10113 0.0992 0.0
C589 C 0.06546 0.11016 0.20047 0.0
C590 C 0.07652 0.13131 0.21711 0.0
C591 C 0.07984 0.10386 0.17401 0.0
C592 C 0.10565 0.11839 0.16419 0.0
C593 C 0.11896 0.13724 0.18259 0.0
C594 C 0.10431 0.14385 0.20875 0.0
C595 C 0.11418 0.11833 0.13288 0.0
C596 C 0.14277 0.10797 0.12396 0.0
C597 C 0.09404 0.12948 0.11194 0.0
C598 C 0.0631 0.13984 0.12028 0.0
C599 C 0.06052 0.16138 0.13913 0.0
C600 C 0.03124 0.16946 0.1489 0.0
C601 C 0.00438 0.15628 0.13972 0.0
C602 C 0.00674 0.13517 0.12053 0.0
C603 C 0.03598 0.12704 0.11074 0.0
H604 H 0.98176 0.16246 0.14745 0.0
H605 H 0.25683 0.05865 0.06396 0.0
H606 H 0.38906 0.37894 0.47359 0.0
H607 H 0.40322 0.37935 0.52489 0.0
H608 H 0.30714 0.36637 0.54862 0.0
H609 H 0.29234 0.36776 0.49701 0.0
H610 H 0.33149 0.40072 0.58444 0.0
H611 H 0.36244 0.31662 0.55126 0.0
H612 H 0.38776 0.28422 0.51943 0.0
H613 H 0.47726 0.31786 0.53861 0.0
H614 H 0.45243 0.35072 0.57025 0.0
H615 H 0.391 0.33563 0.72051 0.0
H616 H 0.36411 0.34524 0.67456 0.0
H617 H 0.43383 0.40322 0.65396 0.0
H618 H 0.46024 0.39417 0.70023 0.0
H619 H 0.4195 0.34603 0.61858 0.0
H620 H 0.384 0.43217 0.65104 0.0
H621 H 0.35588 0.46098 0.68504 0.0
H622 H 0.27131 0.41803 0.66957 0.0
H623 H 0.29913 0.38867 0.63584 0.0
C624 C 0.37077 0.37646 0.48963 0.0
C625 C 0.33948 0.37345 0.48104 0.0
C626 C 0.37901 0.37637 0.51905 0.0
C627 C 0.35635 0.37251 0.54071 0.0
C628 C 0.32507 0.36932 0.53232 0.0
C629 C 0.3167 0.36978 0.50277 0.0
C630 C 0.3656 0.3719 0.572 0.0
C631 C 0.35054 0.38854 0.59189 0.0
C632 C 0.39047 0.35605 0.58193 0.0
C633 C 0.40553 0.33629 0.56293 0.0
C634 C 0.3875 0.31724 0.54852 0.0
C635 C 0.40177 0.29877 0.53054 0.0
C636 C 0.43409 0.29902 0.52695 0.0
C637 C 0.45222 0.31771 0.54139 0.0
C638 C 0.43807 0.33625 0.55937 0.0
C639 C 0.39968 0.35131 0.7068 0.0
C640 C 0.42749 0.3644 0.71398 0.0
C641 C 0.38437 0.35673 0.68059 0.0
C642 C 0.39692 0.37502 0.66105 0.0
C643 C 0.42352 0.38937 0.66905 0.0
C644 C 0.43848 0.38433 0.69557 0.0
C645 C 0.38601 0.37528 0.63048 0.0
C646 C 0.40058 0.35826 0.6109 0.0
C647 C 0.36045 0.39036 0.62108 0.0
C648 C 0.34375 0.40801 0.64127 0.0
C649 C 0.35952 0.42866 0.65519 0.0
C650 C 0.3436 0.44515 0.67433 0.0
C651 C 0.31185 0.44128 0.67955 0.0
C652 C 0.29592 0.42097 0.66556 0.0
C653 C 0.31175 0.40441 0.64642 0.0
H654 H 0.29956 0.45407 0.69436 0.0
H655 H 0.4451 0.2847 0.51302 0.0
H656 H 0.71802 0.3332 0.0626 0.0
H657 H 0.7058 0.32542 0.01085 0.0
H658 H 0.60936 0.31256 0.03328 0.0
H659 H 0.6214 0.32076 0.08469 0.0
H660 H 0.63287 0.2776 0.98945 0.0
H661 H 0.63051 0.37089 0.01433 0.0
H662 H 0.65508 0.41155 0.03208 0.0
H663 H 0.72454 0.40627 0.96499 0.0
H664 H 0.70061 0.36531 0.94714 0.0
H665 H 0.51791 0.3214 0.89955 0.0
H666 H 0.55751 0.31208 0.93564 0.0
H667 H 0.6294 0.33321 0.87416 0.0
H668 H 0.58909 0.3427 0.83715 0.0
H669 H 0.63569 0.35787 0.92857 0.0
H670 H 0.62658 0.27143 0.89505 0.0
H671 H 0.60035 0.2316 0.87719 0.0
H672 H 0.55296 0.22326 0.95913 0.0
H673 H 0.57845 0.26329 0.97736 0.0
C674 C 0.6944 0.32809 0.05643 0.0
C675 C 0.67059 0.32757 0.07746 0.0
C676 C 0.68745 0.32374 0.02696 0.0
C677 C 0.65666 0.31849 0.01827 0.0
C678 C 0.63328 0.31645 0.03955 0.0
C679 C 0.64011 0.3212 0.06885 0.0
C680 C 0.64772 0.31774 0.98703 0.0
C681 C 0.6337 0.29502 0.97596 0.0
C682 C 0.6499 0.34022 0.96909 0.0
C683 C 0.66407 0.36489 0.97968 0.0
C684 C 0.65119 0.37829 1.00354 0.0
C685 C 0.66496 0.4014 0.01359 0.0
C686 C 0.69142 0.41145 0.99973 0.0
C687 C 0.7041 0.39843 0.97574 0.0
C688 C 0.69045 0.37527 0.96566 0.0
C689 C 0.54212 0.32389 0.89341 0.0
C690 C 0.55035 0.33305 0.86553 0.0
C691 C 0.56481 0.3183 0.91408 0.0
C692 C 0.59645 0.32166 0.90757 0.0
C693 C 0.60506 0.33033 0.87955 0.0
C694 C 0.58211 0.33569 0.85847 0.0
C695 C 0.61949 0.31803 0.9314 0.0
C696 C 0.63604 0.34 0.94133 0.0
C697 C 0.61975 0.29479 0.94822 0.0
C698 C 0.6045 0.27044 0.93759 0.0
C699 C 0.61046 0.26119 0.90924 0.0
C700 C 0.59571 0.23856 0.89904 0.0
C701 C 0.57502 0.2249 0.91702 0.0
C702 C 0.56905 0.23384 0.94525 0.0
C703 C 0.58371 0.25648 0.95555 0.0
H704 H 0.56361 0.20739 0.90908 0.0
H705 H 0.70204 0.42935 0.00753 0.0
H706 H 0.78127 0.18153 0.5601 0.0
H707 H 0.79131 0.18795 0.5079 0.0
H708 H 0.89001 0.18055 0.52354 0.0
H709 H 0.8802 0.17494 0.57558 0.0
H710 H 0.87995 0.21626 0.4822 0.0
H711 H 0.84406 0.12767 0.50388 0.0
H712 H 0.80597 0.09525 0.52197 0.0
H713 H 0.73799 0.12346 0.4609 0.0
H714 H 0.77563 0.15628 0.44271 0.0
H715 H 0.93347 0.12002 0.37421 0.0
H716 H 0.89487 0.1308 0.411 0.0
H717 H 0.88309 0.20705 0.3722 0.0
H718 H 0.92254 0.19622 0.33525 0.0
H719 H 0.83693 0.14614 0.41904 0.0
H720 H 0.87931 0.25031 0.42791 0.0
H721 H 0.92262 0.27862 0.41138 0.0
H722 H 0.98496 0.21317 0.41407 0.0
H723 H 0.94205 0.18461 0.43086 0.0
C724 C 0.80515 0.18194 0.55248 0.0
C725 C 0.82994 0.1774 0.57194 0.0
C726 C 0.81084 0.18544 0.52261 0.0
C727 C 0.8414 0.18438 0.51167 0.0
C728 C 0.86623 0.18143 0.53136 0.0
C729 C 0.86057 0.17796 0.56111 0.0
C730 C 0.84784 0.18384 0.47976 0.0
C731 C 0.87004 0.20125 0.46824 0.0
C732 C 0.835 0.16432 0.46136 0.0
C733 C 0.81245 0.14462 0.47224 0.0
C734 C 0.8209 0.12707 0.49448 0.0
C735 C 0.79942 0.10861 0.50472 0.0
C736 C 0.76954 0.10736 0.49266 0.0
C737 C 0.76112 0.12451 0.47028 0.0
C738 C 0.7825 0.14304 0.46 0.0
C739 C 0.92182 0.13875 0.37288 0.0
C740 C 0.93101 0.15733 0.35203 0.0
C741 C 0.89964 0.1449 0.3939 0.0
C742 C 0.88636 0.16991 0.39476 0.0
C743 C 0.89322 0.18771 0.37215 0.0
C744 C 0.91552 0.18145 0.35087 0.0
C745 C 0.86983 0.17794 0.42185 0.0
C746 C 0.84576 0.16193 0.43256 0.0
C747 C 0.88145 0.19834 0.43974 0.0
C748 C 0.9075 0.21538 0.43035 0.0
C749 C 0.90231 0.24205 0.42506 0.0
C750 C 0.92675 0.25811 0.41564 0.0
C751 C 0.9565 0.24768 0.41161 0.0
C752 C 0.9619 0.22121 0.41715 0.0
C753 C 0.93755 0.20509 0.42663 0.0
H754 H 0.97538 0.26013 0.40425 0.0
H755 H 0.75294 0.09305 0.50061 0.0
H756 H 0.78592 0.84906 0.02259 0.0
H757 H 0.79617 0.83614 0.97207 0.0
H758 H 0.8927 0.85809 0.98242 0.0
H759 H 0.8825 0.8713 0.03269 0.0
H760 H 0.87315 0.8739 0.93146 0.0
H761 H 0.86676 0.79318 0.98586 0.0
H762 H 0.84111 0.7613 0.01844 0.0
H763 H 0.7661 0.75262 0.95714 0.0
H764 H 0.79113 0.78473 0.92436 0.0
H765 H 0.94636 0.77517 0.83893 0.0
H766 H 0.91028 0.7805 0.87946 0.0
H767 H 0.86034 0.83904 0.83069 0.0
H768 H 0.8967 0.83382 0.78997 0.0
H769 H 0.84948 0.78371 0.89796 0.0
H770 H 0.85884 0.89303 0.87346 0.0
H771 H 0.88984 0.92302 0.84263 0.0
H772 H 0.9682 0.87132 0.84831 0.0
H773 H 0.93782 0.8413 0.8795 0.0
C774 C 0.80934 0.85108 0.01409 0.0
C775 C 0.83342 0.86117 0.03171 0.0
C776 C 0.81517 0.84369 0.98519 0.0
C777 C 0.8453 0.84587 0.97341 0.0
C778 C 0.86923 0.85631 0.99087 0.0
C779 C 0.86336 0.86389 0.01965 0.0
C780 C 0.85231 0.83694 0.94316 0.0
C781 C 0.86759 0.85427 0.92411 0.0
C782 C 0.84537 0.81124 0.93342 0.0
C783 C 0.83064 0.79156 0.95282 0.0
C784 C 0.84471 0.78457 0.97941 0.0
C785 C 0.8303 0.76646 0.9979 0.0
C786 C 0.80194 0.75501 0.98992 0.0
C787 C 0.78803 0.76155 0.96333 0.0
C788 C 0.80233 0.77969 0.94478 0.0
C789 C 0.92666 0.78813 0.83619 0.0
C790 C 0.92468 0.80445 0.81156 0.0
C791 C 0.90603 0.79122 0.85947 0.0
C792 C 0.88321 0.81076 0.85849 0.0
C793 C 0.87813 0.82413 0.83207 0.0
C794 C 0.89876 0.82094 0.80864 0.0
C795 C 0.87019 0.82071 0.88644 0.0
C796 C 0.8541 0.80356 0.9051 0.0
C797 C 0.87706 0.84638 0.89621 0.0
C798 C 0.89594 0.86483 0.8785 0.0
C799 C 0.88274 0.88818 0.86825 0.0
C800 C 0.90019 0.90516 0.8507 0.0
C801 C 0.93093 0.89903 0.84341 0.0
C802 C 0.94437 0.87602 0.85388 0.0
C803 C 0.92706 0.85904 0.87151 0.0
H804 H 0.94433 0.91213 0.8297 0.0
H805 H 0.79078 0.74103 1.00429 0.0
H806 H 0.72073 0.63752 0.51804 0.0
H807 H 0.71001 0.64905 0.46716 0.0
H808 H 0.61126 0.64375 0.48407 0.0
H809 H 0.62201 0.63135 0.53459 0.0
H810 H 0.62119 0.62246 0.43528 0.0
H811 H 0.65336 0.70392 0.47719 0.0
H812 H 0.68818 0.73425 0.50354 0.0
H813 H 0.75908 0.7231 0.43876 0.0
H814 H 0.72481 0.69242 0.41221 0.0
H815 H 0.57879 0.72415 0.32605 0.0
H816 H 0.6119 0.715 0.36804 0.0
H817 H 0.63653 0.64058 0.33063 0.0
H818 H 0.60327 0.64983 0.28842 0.0
H819 H 0.66788 0.70043 0.38766 0.0
H820 H 0.62215 0.59353 0.38531 0.0
H821 H 0.57925 0.56744 0.3641 0.0
H822 H 0.52363 0.6366 0.35566 0.0
H823 H 0.56583 0.66298 0.37748 0.0
C824 C 0.69674 0.63895 0.51088 0.0
C825 C 0.6722 0.63355 0.53033 0.0
C826 C 0.69061 0.64562 0.48178 0.0
C827 C 0.65977 0.64761 0.47163 0.0
C828 C 0.63527 0.64226 0.49115 0.0
C829 C 0.64141 0.6352 0.52009 0.0
C830 C 0.6528 0.65491 0.44071 0.0
C831 C 0.63167 0.63939 0.42487 0.0
C832 C 0.66602 0.67722 0.427 0.0
C833 C 0.68667 0.69564 0.44291 0.0
C834 C 0.67647 0.70778 0.46869 0.0
C835 C 0.69609 0.72506 0.48364 0.0
C836 C 0.72586 0.73053 0.47288 0.0
C837 C 0.73604 0.71879 0.4471 0.0
C838 C 0.71653 0.70147 0.43208 0.0
C839 C 0.59278 0.70656 0.32593 0.0
C840 C 0.58831 0.68762 0.30412 0.0
C841 C 0.61152 0.7012 0.35014 0.0
C842 C 0.62588 0.67672 0.35299 0.0
C843 C 0.62518 0.65941 0.32915 0.0
C844 C 0.60655 0.66489 0.30475 0.0
C845 C 0.63643 0.6679 0.38238 0.0
C846 C 0.65806 0.68315 0.39793 0.0
C847 C 0.62276 0.64588 0.39629 0.0
C848 C 0.59742 0.6303 0.38255 0.0
C849 C 0.60079 0.60317 0.37887 0.0
C850 C 0.57656 0.58832 0.36683 0.0
C851 C 0.54881 0.60038 0.35844 0.0
C852 C 0.5452 0.62731 0.36207 0.0
C853 C 0.56927 0.64222 0.37427 0.0
H854 H 0.53004 0.58881 0.34934 0.0
H855 H 0.74101 0.74392 0.48448 0.0
H856 H 0.32543 0.68791 0.94759 0.0
H857 H 0.34588 0.69209 0.9974 0.0
H858 H 0.43952 0.68451 0.96462 0.0
H859 H 0.41944 0.68097 0.91496 0.0
H860 H 0.4256 0.64917 0.00877 0.0
H861 H 0.41503 0.7418 0.98997 0.0
H862 H 0.38618 0.78169 0.97673 0.0
H863 H 0.32439 0.76981 0.04921 0.0
H864 H 0.35264 0.72963 0.06265 0.0
H865 H 0.51998 0.66977 0.12969 0.0
H866 H 0.49451 0.67554 0.08258 0.0
H867 H 0.408 0.69332 0.126 0.0
H868 H 0.4339 0.68851 0.17351 0.0
H869 H 0.41343 0.72267 0.07832 0.0
H870 H 0.42235 0.63178 0.09859 0.0
H871 H 0.44885 0.59106 0.11296 0.0
H872 H 0.50941 0.59752 0.03877 0.0
H873 H 0.48359 0.63853 0.02419 0.0
C874 C 0.35041 0.6878 0.95091 0.0
C875 C 0.37075 0.68378 0.92726 0.0
C876 C 0.36206 0.69007 0.97943 0.0
C877 C 0.39424 0.68841 0.98478 0.0
C878 C 0.4146 0.6856 0.96107 0.0
C879 C 0.40304 0.6835 0.93268 0.0
C880 C 0.40685 0.68772 0.01503 0.0
C881 C 0.42324 0.66538 0.02385 0.0
C882 C 0.40265 0.70838 0.03516 0.0
C883 C 0.38573 0.73255 0.02711 0.0
C884 C 0.39512 0.74756 1.00292 0.0
C885 C 0.37891 0.77025 0.99542 0.0
C886 C 0.35341 0.77824 0.01206 0.0
C887 C 0.34412 0.76358 0.0363 0.0
C888 C 0.36023 0.74086 0.04389 0.0
C889 C 0.49561 0.67519 0.12926 0.0
C890 C 0.47887 0.67842 0.15531 0.0
C891 C 0.481 0.67837 0.10227 0.0
C892 C 0.44907 0.68419 0.10063 0.0
C893 C 0.43258 0.68864 0.12664 0.0
C894 C 0.44739 0.68585 0.15378 0.0
C895 C 0.43296 0.68438 0.07177 0.0
C896 C 0.41572 0.70644 0.06328 0.0
C897 C 0.43587 0.66323 0.052 0.0
C898 C 0.45118 0.63835 0.06043 0.0
C899 C 0.44144 0.6246 0.08542 0.0
C900 C 0.45633 0.60146 0.0936 0.0
C901 C 0.48084 0.59174 0.07682 0.0
C902 C 0.49044 0.60509 0.05176 0.0
C903 C 0.47566 0.62827 0.04351 0.0
H904 H 0.49236 0.57384 0.08321 0.0
H905 H 0.3409 0.79581 0.00622 0.0
H906 H 0.11383 0.8347 0.44088 0.0
H907 H 0.10043 0.82818 0.49206 0.0
H908 H 0.19523 0.8065 0.51095 0.0
H909 H 0.20931 0.81392 0.45975 0.0
H910 H 0.14777 0.77375 0.53862 0.0
H911 H 0.17773 0.86356 0.52994 0.0
H912 H 0.17789 0.90741 0.50753 0.0
H913 H 0.07979 0.91451 0.52383 0.0
H914 H 0.07894 0.87052 0.54592 0.0
H915 H 0.08133 0.83545 0.68546 0.0
H916 H 0.12113 0.83205 0.64712 0.0
H917 H 0.06113 0.78003 0.59863 0.0
H918 H 0.02131 0.78391 0.63637 0.0
H919 H 0.10597 0.85038 0.59192 0.0
H920 H 0.10605 0.74111 0.55499 0.0
H921 H 0.10644 0.69744 0.5778 0.0
H922 H 0.14753 0.72974 0.65528 0.0
H923 H 0.14788 0.77352 0.6328 0.0
C924 C 0.13199 0.82873 0.45584 0.0
C925 C 0.1628 0.82522 0.44609 0.0
C926 C 0.1242 0.82482 0.48511 0.0
C927 C 0.14689 0.81709 0.50536 0.0
C928 C 0.17737 0.81245 0.49565 0.0
C929 C 0.18531 0.81661 0.46632 0.0
C930 C 0.13863 0.81506 0.53676 0.0
C931 C 0.13886 0.79048 0.55044 0.0
C932 C 0.1278 0.83706 0.55239 0.0
C933 C 0.12826 0.86367 0.53944 0.0
C934 C 0.15615 0.8744 0.52857 0.0
C935 C 0.15637 0.89929 0.51595 0.0
C936 C 0.12886 0.91372 0.51422 0.0
C937 C 0.10108 0.90331 0.52518 0.0
C938 C 0.10073 0.87841 0.53779 0.0
C939 C 0.0773 0.82242 0.66723 0.0
C940 C 0.04831 0.80995 0.66378 0.0
C941 C 0.09991 0.82065 0.64523 0.0
C942 C 0.09407 0.80586 0.61994 0.0
C943 C 0.06632 0.79136 0.61801 0.0
C944 C 0.04357 0.79355 0.63961 0.0
C945 C 0.11384 0.80884 0.59351 0.0
C946 C 0.11556 0.83366 0.58053 0.0
C947 C 0.12657 0.78708 0.5787 0.0
C948 C 0.12682 0.76068 0.59221 0.0
C949 C 0.11537 0.7389 0.57682 0.0
C950 C 0.11542 0.71411 0.58971 0.0
C951 C 0.12695 0.71083 0.61799 0.0
C952 C 0.13852 0.73231 0.63341 0.0
C953 C 0.13855 0.75713 0.62061 0.0
H954 H 0.12694 0.69162 0.62793 0.0
H955 H 0.12907 0.93299 0.50443 0.0
H956 H 0.25371 0.37432 0.3684 0.0
H957 H 0.21449 0.3456 0.34648 0.0
H958 H 0.25009 0.2806 0.39622 0.0
H959 H 0.29003 0.30897 0.41745 0.0
H960 H 0.23877 0.26638 0.34096 0.0
H961 H 0.18341 0.31283 0.41628 0.0
H962 H 0.16436 0.35196 0.44198 0.0
H963 H 0.11613 0.37661 0.36466 0.0
H964 H 0.13525 0.33777 0.33838 0.0
H965 H 0.1148 0.17713 0.35034 0.0
H966 H 0.15512 0.2099 0.35855 0.0
H967 H 0.11059 0.26148 0.29699 0.0
H968 H 0.0698 0.22839 0.28841 0.0
H969 H 0.12599 0.2855 0.35064 0.0
H970 H 0.17638 0.23527 0.27746 0.0
H971 H 0.19444 0.19513 0.25317 0.0
H972 H 0.25151 0.17678 0.32731 0.0
H973 H 0.23341 0.21661 0.35228 0.0
C974 C 0.25336 0.35386 0.37451 0.0
C975 C 0.27499 0.34398 0.39479 0.0
C976 C 0.23075 0.33751 0.36212 0.0
C977 C 0.22914 0.31097 0.36988 0.0
C978 C 0.25084 0.30101 0.38992 0.0
C979 C 0.27347 0.31733 0.40228 0.0
C980 C 0.20478 0.29351 0.35737 0.0
C981 C 0.21411 0.27048 0.34325 0.0
C982 C 0.17259 0.29925 0.35949 0.0
C983 C 0.16107 0.32257 0.37527 0.0
C984 C 0.16896 0.32671 0.40469 0.0
C985 C 0.15811 0.34882 0.41937 0.0
C986 C 0.13913 0.36681 0.40493 0.0
C987 C 0.13089 0.36269 0.3758 0.0
C988 C 0.14171 0.34063 0.361 0.0
C989 C 0.11359 0.19534 0.33833 0.0
C990 C 0.08902 0.20018 0.31876 0.0
C991 C 0.13679 0.21402 0.34297 0.0
C992 C 0.13598 0.23805 0.32826 0.0
C993 C 0.11166 0.24299 0.30849 0.0
C994 C 0.08849 0.22407 0.30353 0.0
C995 C 0.16002 0.25815 0.33485 0.0
C996 C 0.15066 0.28163 0.3479 0.0
C997 C 0.19217 0.25279 0.33184 0.0
C998 C 0.20336 0.22888 0.31683 0.0
C999 C 0.1926 0.22259 0.28869 0.0
C1000 C 0.20288 0.19989 0.27478 0.0
C1001 C 0.22407 0.18339 0.28871 0.0
C1002 C 0.23509 0.18958 0.31655 0.0
C1003 C 0.22486 0.21224 0.33058 0.0
H1004 H 0.23199 0.16583 0.2779 0.0
H1005 H 0.13075 0.38391 0.41634 0.0
H1006 H 0.247 0.12609 0.87741 0.0
H1007 H 0.28691 0.15414 0.85516 0.0
H1008 H 0.24134 0.22229 0.88998 0.0
H1009 H 0.20153 0.19421 0.91267 0.0
H1010 H 0.25742 0.22504 0.8284 0.0
H1011 H 0.30342 0.20449 0.92175 0.0
H1012 H 0.32176 0.175 0.96064 0.0
H1013 H 0.38574 0.1393 0.9009 0.0
H1014 H 0.36741 0.16834 0.8615 0.0
H1015 H 0.36794 0.32636 0.8237 0.0
H1016 H 0.32897 0.29288 0.83377 0.0
H1017 H 0.3926 0.23328 0.80467 0.0
H1018 H 0.43214 0.26706 0.79455 0.0
H1019 H 0.36856 0.22204 0.85806 0.0
H1020 H 0.32742 0.24526 0.76597 0.0
H1021 H 0.30961 0.27427 0.72644 0.0
H1022 H 0.23704 0.30378 0.78161 0.0
H1023 H 0.25471 0.27524 0.82168 0.0
C1024 C 0.24562 0.14706 0.8804 0.0
C1025 C 0.22126 0.15802 0.89679 0.0
C1026 C 0.26839 0.16302 0.86772 0.0
C1027 C 0.26702 0.19026 0.87089 0.0
C1028 C 0.24273 0.20129 0.88724 0.0
C1029 C 0.22019 0.18528 0.90035 0.0
C1030 C 0.29092 0.20725 0.85707 0.0
C1031 C 0.28168 0.22461 0.83502 0.0
C1032 C 0.32274 0.20585 0.86494 0.0
C1033 C 0.33376 0.18836 0.88858 0.0
C1034 C 0.32116 0.19016 0.91682 0.0
C1035 C 0.33161 0.17357 0.93898 0.0
C1036 C 0.35483 0.15522 0.93322 0.0
C1037 C 0.36771 0.15348 0.90531 0.0
C1038 C 0.35731 0.17001 0.88306 0.0
C1039 C 0.3735 0.30618 0.81886 0.0
C1040 C 0.40315 0.29932 0.80843 0.0
C1041 C 0.3511 0.28703 0.82453 0.0
C1042 C 0.35776 0.26054 0.81991 0.0
C1043 C 0.38695 0.25363 0.80835 0.0
C1044 C 0.40941 0.27292 0.80238 0.0
C1045 C 0.33504 0.24033 0.82967 0.0
C1046 C 0.34442 0.2223 0.85103 0.0
C1047 C 0.30338 0.24098 0.82097 0.0
C1048 C 0.29256 0.2582 0.79694 0.0
C1049 C 0.30782 0.25808 0.76978 0.0
C1050 C 0.29772 0.27442 0.74725 0.0
C1051 C 0.27224 0.29089 0.75153 0.0
C1052 C 0.25678 0.29101 0.77834 0.0
C1053 C 0.26681 0.27473 0.80096 0.0
H1054 H 0.26446 0.30353 0.73405 0.0
H1055 H 0.36291 0.1424 0.95041 0.0
H1056 H 0.78797 0.22698 0.65803 0.0
H1057 H 0.74765 0.24864 0.68725 0.0
H1058 H 0.70675 0.17362 0.70736 0.0
H1059 H 0.74697 0.15193 0.67838 0.0
H1060 H 0.66391 0.21137 0.6872 0.0
H1061 H 0.74637 0.20336 0.75828 0.0
H1062 H 0.79985 0.20961 0.77674 0.0
H1063 H 0.78971 0.29286 0.76971 0.0
H1064 H 0.73629 0.28709 0.75079 0.0
H1065 H 0.5494 0.24893 0.78319 0.0
H1066 H 0.59738 0.22709 0.76842 0.0
H1067 H 0.64357 0.30186 0.76111 0.0
H1068 H 0.5959 0.32373 0.77715 0.0
H1069 H 0.68511 0.26502 0.77524 0.0
H1070 H 0.60633 0.27522 0.70256 0.0
H1071 H 0.55358 0.27172 0.68156 0.0
H1072 H 0.55788 0.18802 0.68747 0.0
H1073 H 0.61051 0.19104 0.70896 0.0
C1074 C 0.77034 0.21516 0.6687 0.0
C1075 C 0.77062 0.18778 0.66599 0.0
C1076 C 0.7475 0.22751 0.68552 0.0
C1077 C 0.72437 0.2127 0.69965 0.0
C1078 C 0.72448 0.18539 0.69676 0.0
C1079 C 0.74751 0.17303 0.6803 0.0
C1080 C 0.69925 0.22563 0.71651 0.0
C1081 C 0.6685 0.22276 0.70671 0.0
C1082 C 0.7054 0.24129 0.74132 0.0
C1083 C 0.73744 0.24478 0.75284 0.0
C1084 C 0.75563 0.22299 0.76043 0.0
C1085 C 0.78592 0.22645 0.77102 0.0
C1086 C 0.7982 0.25161 0.77432 0.0
C1087 C 0.78018 0.27338 0.76711 0.0
C1088 C 0.74989 0.27003 0.75647 0.0
C1089 C 0.57013 0.26063 0.7795 0.0
C1090 C 0.56884 0.28803 0.78095 0.0
C1091 C 0.59749 0.24815 0.77083 0.0
C1092 C 0.62376 0.26289 0.76263 0.0
C1093 C 0.62351 0.29008 0.76701 0.0
C1094 C 0.59626 0.30257 0.77629 0.0
C1095 C 0.64964 0.25034 0.74623 0.0
C1096 C 0.6805 0.25347 0.75588 0.0
C1097 C 0.64374 0.2353 0.72083 0.0
C1098 C 0.61223 0.23337 0.70764 0.0
C1099 C 0.59594 0.25607 0.69956 0.0
C1100 C 0.56608 0.25418 0.68756 0.0
C1101 C 0.55236 0.22966 0.68325 0.0
C1102 C 0.56852 0.20699 0.69086 0.0
C1103 C 0.59838 0.20878 0.70295 0.0
H1104 H 0.52923 0.22823 0.67395 0.0
H1105 H 0.82165 0.25425 0.78253 0.0
H1106 H 0.75333 0.35688 0.18348 0.0
H1107 H 0.79409 0.33511 0.21189 0.0
H1108 H 0.75177 0.26026 0.19386 0.0
H1109 H 0.71095 0.28194 0.16527 0.0
H1110 H 0.77453 0.26744 0.25421 0.0
H1111 H 0.80784 0.27538 0.1535 0.0
H1112 H 0.81807 0.29976 0.10805 0.0
H1113 H 0.883 0.34935 0.15324 0.0
H1114 H 0.87277 0.32549 0.19909 0.0
H1115 H 0.90333 0.18071 0.27344 0.0
H1116 H 0.85651 0.20558 0.26133 0.0
H1117 H 0.91081 0.27678 0.25975 0.0
H1118 H 0.95777 0.25183 0.2707 0.0
H1119 H 0.88068 0.27305 0.21184 0.0
H1120 H 0.8517 0.26456 0.31168 0.0
H1121 H 0.84251 0.2413 0.35801 0.0
H1122 H 0.77121 0.19484 0.31732 0.0
H1123 H 0.78013 0.21771 0.27063 0.0
C1124 C 0.75247 0.33583 0.18592 0.0
C1125 C 0.72908 0.32108 0.17203 0.0
C1126 C 0.77574 0.32343 0.20213 0.0
C1127 C 0.77591 0.29609 0.20497 0.0
C1128 C 0.75195 0.28138 0.19205 0.0
C1129 C 0.72887 0.29375 0.17551 0.0
C1130 C 0.80256 0.28277 0.21916 0.0
C1131 C 0.79775 0.26844 0.24493 0.0
C1132 C 0.8329 0.28465 0.20738 0.0
C1133 C 0.83928 0.29885 0.17978 0.0
C1134 C 0.82409 0.29163 0.1538 0.0
C1135 C 0.82993 0.30532 0.12796 0.0
C1136 C 0.85111 0.32614 0.12778 0.0
C1137 C 0.86656 0.33325 0.15342 0.0
C1138 C 0.86077 0.31964 0.17934 0.0
C1139 C 0.90508 0.20176 0.27131 0.0
C1140 C 0.93421 0.21432 0.27274 0.0
C1141 C 0.87826 0.21601 0.26442 0.0
C1142 C 0.88005 0.24313 0.25948 0.0
C1143 C 0.90882 0.25588 0.26316 0.0
C1144 C 0.93564 0.24162 0.26956 0.0
C1145 C 0.85302 0.2577 0.24727 0.0
C1146 C 0.85766 0.27219 0.22156 0.0
C1147 C 0.82271 0.25617 0.2594 0.0
C1148 C 0.81677 0.24271 0.28757 0.0
C1149 C 0.83417 0.24928 0.31256 0.0
C1150 C 0.829 0.23618 0.33889 0.0
C1151 C 0.8064 0.21651 0.34058 0.0
C1152 C 0.78875 0.21005 0.31597 0.0
C1153 C 0.7938 0.22313 0.28957 0.0
H1154 H 0.80251 0.20632 0.36097 0.0
H1155 H 0.8556 0.33672 0.10775 0.0
H1156 H 0.7023 0.64488 0.66547 0.0
H1157 H 0.73735 0.67183 0.6948 0.0
H1158 H 0.7948 0.6858 0.61917 0.0
H1159 H 0.76096 0.6576 0.59011 0.0
H1160 H 0.83078 0.67949 0.66409 0.0
H1161 H 0.73884 0.73068 0.64458 0.0
H1162 H 0.68258 0.74032 0.64499 0.0
H1163 H 0.68181 0.73574 0.73852 0.0
H1164 H 0.73803 0.72576 0.73862 0.0
H1165 H 0.86478 0.82046 0.69655 0.0
H1166 H 0.82556 0.78669 0.68927 0.0
H1167 H 0.87869 0.73367 0.74288 0.0
H1168 H 0.91865 0.76773 0.74989 0.0
H1169 H 0.787 0.75557 0.71687 0.0
H1170 H 0.87712 0.67374 0.7086 0.0
H1171 H 0.9338 0.66809 0.70203 0.0
H1172 H 0.93844 0.74012 0.65399 0.0
H1173 H 0.88177 0.74599 0.65997 0.0
C1174 C 0.7227 0.65325 0.65512 0.0
C1175 C 0.72861 0.64906 0.62525 0.0
C1176 C 0.74257 0.66896 0.67192 0.0
C1177 C 0.76856 0.68123 0.65919 0.0
C1178 C 0.7749 0.67663 0.62957 0.0
C1179 C 0.75524 0.66072 0.61283 0.0
C1180 C 0.78867 0.69953 0.67625 0.0
C1181 C 0.82111 0.69595 0.67589 0.0
C1182 C 0.77628 0.72117 0.69161 0.0
C1183 C 0.74252 0.72715 0.69158 0.0
C1184 C 0.72661 0.73153 0.66521 0.0
C1185 C 0.69475 0.73709 0.66536 0.0
C1186 C 0.67861 0.73855 0.69176 0.0
C1187 C 0.69433 0.73454 0.71808 0.0
C1188 C 0.72619 0.72894 0.71805 0.0
C1189 C 0.86771 0.80186 0.70754 0.0
C1190 C 0.89498 0.79658 0.72343 0.0
C1191 C 0.84517 0.78253 0.70341 0.0
C1192 C 0.84942 0.75739 0.71494 0.0
C1193 C 0.87515 0.75281 0.73335 0.0
C1194 C 0.89783 0.77233 0.73759 0.0
C1195 C 0.82905 0.73575 0.70428 0.0
C1196 C 0.79657 0.73868 0.70579 0.0
C1197 C 0.8414 0.71395 0.6892 0.0
C1198 C 0.87535 0.71043 0.68507 0.0
C1199 C 0.89027 0.68831 0.69659 0.0
C1200 C 0.92237 0.68508 0.69296 0.0
C1201 C 0.93973 0.70379 0.6777 0.0
C1202 C 0.92499 0.7257 0.66589 0.0
C1203 C 0.8929 0.72898 0.6694 0.0
H1204 H 0.96458 0.70127 0.67497 0.0
H1205 H 0.65394 0.74287 0.69183 0.0
H1206 H 0.81254 0.80563 0.1174 0.0
H1207 H 0.7796 0.7753 0.14491 0.0
H1208 H 0.72172 0.83946 0.17246 0.0
H1209 H 0.7554 0.87006 0.14562 0.0
H1210 H 0.72652 0.80364 0.21573 0.0
H1211 H 0.70164 0.80209 0.11355 0.0
H1212 H 0.71366 0.79847 0.06111 0.0
H1213 H 0.74769 0.72052 0.07433 0.0
H1214 H 0.7363 0.72383 0.12696 0.0
H1215 H 0.58563 0.72566 0.23234 0.0
H1216 H 0.62738 0.75787 0.22475 0.0
H1217 H 0.68916 0.6962 0.19756 0.0
H1218 H 0.64748 0.66424 0.20455 0.0
H1219 H 0.6822 0.73188 0.15577 0.0
H1220 H 0.70323 0.73285 0.25851 0.0
H1221 H 0.68943 0.737 0.31048 0.0
H1222 H 0.66026 0.81618 0.29612 0.0
H1223 H 0.67331 0.81235 0.24391 0.0
C1224 C 0.79294 0.81328 0.12953 0.0
C1225 C 0.78624 0.84013 0.12905 0.0
C1226 C 0.77414 0.79595 0.14529 0.0
C1227 C 0.74774 0.80499 0.16029 0.0
C1228 C 0.74187 0.83199 0.16102 0.0
C1229 C 0.76104 0.84944 0.1456 0.0
C1230 C 0.72507 0.78604 0.17305 0.0
C1231 C 0.71659 0.78807 0.2026 0.0
C1232 C 0.71223 0.76557 0.15601 0.0
C1233 C 0.71837 0.76329 0.12424 0.0
C1234 C 0.71182 0.78422 0.10529 0.0
C1235 C 0.71852 0.78223 0.07554 0.0
C1236 C 0.73151 0.75931 0.06441 0.0
C1237 C 0.73767 0.73828 0.08299 0.0
C1238 C 0.73107 0.74019 0.11278 0.0
C1239 C 0.60852 0.7189 0.22596 0.0
C1240 C 0.61329 0.69252 0.21878 0.0
C1241 C 0.63236 0.73734 0.22148 0.0
C1242 C 0.66133 0.72951 0.21017 0.0
C1243 C 0.66693 0.70276 0.20597 0.0
C1244 C 0.64316 0.68448 0.21016 0.0
C1245 C 0.68407 0.74901 0.19868 0.0
C1246 C 0.69229 0.74727 0.1691 0.0
C1247 C 0.69633 0.76972 0.21569 0.0
C1248 C 0.68898 0.77223 0.2472 0.0
C1249 C 0.69364 0.75109 0.26636 0.0
C1250 C 0.68598 0.75339 0.29588 0.0
C1251 C 0.67391 0.77682 0.30658 0.0
C1252 C 0.66958 0.79803 0.28779 0.0
C1253 C 0.67712 0.79581 0.25823 0.0
H1254 H 0.66798 0.77856 0.32944 0.0
H1255 H 0.73675 0.75782 0.04138 0.0
H1256 H 0.25502 0.84341 0.34808 0.0
H1257 H 0.29307 0.82123 0.31738 0.0
H1258 H 0.24142 0.74906 0.32623 0.0
H1259 H 0.20376 0.77125 0.35809 0.0
H1260 H 0.30071 0.73901 0.32828 0.0
H1261 H 0.23784 0.78709 0.26264 0.0
H1262 H 0.20978 0.82534 0.24331 0.0
H1263 H 0.29638 0.86656 0.23276 0.0
H1264 H 0.32496 0.82872 0.25247 0.0
H1265 H 0.40545 0.68533 0.22932 0.0
H1266 H 0.35354 0.7038 0.2374 0.0
H1267 H 0.3954 0.77737 0.26181 0.0
H1268 H 0.44712 0.75877 0.25449 0.0
H1269 H 0.33294 0.78117 0.23538 0.0
H1270 H 0.39169 0.73524 0.3123 0.0
H1271 H 0.4196 0.69622 0.32995 0.0
H1272 H 0.33758 0.64941 0.31644 0.0
H1273 H 0.30938 0.68814 0.29818 0.0
C1274 C 0.25197 0.82275 0.34364 0.0
C1275 C 0.22648 0.80902 0.35527 0.0
C1276 C 0.27352 0.81013 0.32585 0.0
C1277 C 0.26964 0.78362 0.31867 0.0
C1278 C 0.24474 0.76958 0.33117 0.0
C1279 C 0.22334 0.78219 0.34943 0.0
C1280 C 0.29199 0.77078 0.29845 0.0
C1281 C 0.3071 0.74792 0.30764 0.0
C1282 C 0.30055 0.78232 0.27142 0.0
C1283 C 0.28354 0.80507 0.25918 0.0
C1284 C 0.2509 0.80436 0.25634 0.0
C1285 C 0.2349 0.82597 0.24531 0.0
C1286 C 0.25129 0.84838 0.23684 0.0
C1287 C 0.28372 0.84919 0.23932 0.0
C1288 C 0.29984 0.82764 0.25039 0.0
C1289 C 0.40345 0.70588 0.2347 0.0
C1290 C 0.43013 0.72069 0.24137 0.0
C1291 C 0.37381 0.71635 0.23955 0.0
C1292 C 0.37073 0.7418 0.25068 0.0
C1293 C 0.39728 0.75771 0.25323 0.0
C1294 C 0.42684 0.74712 0.24892 0.0
C1295 C 0.34178 0.74995 0.26564 0.0
C1296 C 0.32568 0.77196 0.2556 0.0
C1297 C 0.33199 0.7375 0.29169 0.0
C1298 C 0.34856 0.71447 0.30362 0.0
C1299 C 0.37968 0.7166 0.31298 0.0
C1300 C 0.39555 0.69454 0.32307 0.0
C1301 C 0.3804 0.67033 0.32425 0.0
C1302 C 0.3493 0.66816 0.31545 0.0
C1303 C 0.33337 0.69015 0.30523 0.0
H1304 H 0.39272 0.65328 0.33204 0.0
H1305 H 0.23885 0.8651 0.22832 0.0
H1306 H 0.26912 0.66191 0.83266 0.0
H1307 H 0.22688 0.68461 0.80757 0.0
H1308 H 0.27043 0.75876 0.827 0.0
H1309 H 0.31255 0.73604 0.85266 0.0
H1310 H 0.21057 0.7623 0.83521 0.0
H1311 H 0.27366 0.72987 0.75761 0.0
H1312 H 0.30258 0.69677 0.72961 0.0
H1313 H 0.21785 0.65387 0.71484 0.0
H1314 H 0.18847 0.68651 0.74314 0.0
H1315 H 0.11052 0.83478 0.74912 0.0
H1316 H 0.16061 0.81332 0.75756 0.0
H1317 H 0.11504 0.73807 0.75491 0.0
H1318 H 0.06491 0.75964 0.74638 0.0
H1319 H 0.17849 0.73697 0.73504 0.0
H1320 H 0.11705 0.76792 0.81648 0.0
H1321 H 0.08838 0.80143 0.84411 0.0
H1322 H 0.17178 0.84764 0.85128 0.0
H1323 H 0.20077 0.81467 0.82306 0.0
C1324 C 0.26971 0.68306 0.83155 0.0
C1325 C 0.29428 0.69719 0.84447 0.0
C1326 C 0.24561 0.69603 0.81706 0.0
C1327 C 0.24576 0.72342 0.81473 0.0
C1328 C 0.26985 0.73762 0.82831 0.0
C1329 C 0.29385 0.72464 0.84308 0.0
C1330 C 0.22043 0.73721 0.79867 0.0
C1331 C 0.20404 0.75704 0.8131 0.0
C1332 C 0.21134 0.73011 0.76995 0.0
C1333 C 0.2289 0.71054 0.75272 0.0
C1334 C 0.26122 0.71329 0.74857 0.0
C1335 C 0.2777 0.69462 0.73262 0.0
C1336 C 0.26208 0.6732 0.72051 0.0
C1337 C 0.22993 0.67045 0.72426 0.0
C1338 C 0.21334 0.68905 0.74023 0.0
C1339 C 0.11155 0.81362 0.74865 0.0
C1340 C 0.08406 0.79878 0.74676 0.0
C1341 C 0.1401 0.80137 0.75379 0.0
C1342 C 0.14143 0.77413 0.75745 0.0
C1343 C 0.11454 0.75911 0.75218 0.0
C1344 C 0.08594 0.7714 0.74707 0.0
C1345 C 0.16894 0.76194 0.77163 0.0
C1346 C 0.18548 0.74236 0.75697 0.0
C1347 C 0.17833 0.7693 0.80012 0.0
C1348 C 0.16098 0.78899 0.81735 0.0
C1349 C 0.1292 0.78535 0.82371 0.0
C1350 C 0.11289 0.80424 0.83948 0.0
C1351 C 0.12821 0.8267 0.84936 0.0
C1352 C 0.1599 0.83028 0.84353 0.0
C1353 C 0.17628 0.81151 0.82762 0.0
H1354 H 0.11555 0.84129 0.8616 0.0
H1355 H 0.27488 0.65876 0.70818 0.0
loop_
_geom_bond_atom_site_label_1
_geom_bond_atom_site_label_2
_geom_bond_distance
_geom_bond_site_symmetry_2
_ccdc_geom_bond_type
H0 C3 0.931 . S
H1 C6 0.928 . S
H2 C8 0.930 . S
C3 H0 0.931 . S
C3 C4 1.413 . S
C3 C5 1.360 . S
C4 C3 1.413 . S
C4 C8 1.429 . S
C5 C3 1.360 . S
C5 C6 1.372 . S
C6 H1 0.928 . S
C6 C5 1.372 . S
C6 C7 1.404 . S
C7 C6 1.404 . S
C7 C8 1.391 . S
C8 H2 0.930 . S
C8 C4 1.429 . S
C8 C7 1.391 . S
H9 C12 0.931 . S
H10 C15 0.928 . S
H11 C17 0.930 . S
C12 H9 0.931 . S
C12 C13 1.413 . S
C12 C14 1.360 . S
C13 C12 1.413 . S
C13 C17 1.429 . S
C14 C12 1.360 . S
C14 C15 1.372 . S
C15 H10 0.928 . S
C15 C14 1.372 . S
C15 C16 1.404 . S
C16 C15 1.404 . S
C16 C17 1.391 . S
C17 H11 0.930 . S
C17 C13 1.429 . S
C17 C16 1.391 . S
H18 C21 0.931 . S
H19 C24 0.928 . S
H20 C26 0.930 . S
C21 H18 0.931 . S
C21 C22 1.413 . S
C21 C23 1.360 . S
C22 C21 1.413 . S
C22 C26 1.429 . S
C23 C21 1.360 . S
C23 C24 1.372 . S
C24 H19 0.928 . S
C24 C23 1.372 . S
C24 C25 1.404 . S
C25 C24 1.404 . S
C25 C26 1.391 . S
C26 H20 0.930 . S
C26 C22 1.429 . S
C26 C25 1.391 . S
H27 C30 0.931 . S
H28 C33 0.928 . S
H29 C35 0.930 . S
C30 H27 0.931 . S
C30 C31 1.413 . S
C30 C32 1.360 . S
C31 C30 1.413 . S
C31 C35 1.429 . S
C32 C30 1.360 . S
C32 C33 1.372 . S
C33 H28 0.928 . S
C33 C32 1.372 . S
C33 C34 1.404 . S
C34 C33 1.404 . S
C34 C35 1.391 . S
C35 H29 0.930 . S
C35 C31 1.429 . S
C35 C34 1.391 . S
H36 C39 0.931 . S
H37 C42 0.928 . S
H38 C44 0.930 . S
C39 H36 0.931 . S
C39 C40 1.413 . S
C39 C41 1.360 . S
C40 C39 1.413 . S
C40 C44 1.429 . S
C41 C39 1.360 . S
C41 C42 1.372 . S
C42 H37 0.928 . S
C42 C41 1.372 . S
C42 C43 1.404 . S
C43 C42 1.404 . S
C43 C44 1.391 . S
C44 H38 0.930 . S
C44 C40 1.429 . S
C44 C43 1.391 . S
H45 C48 0.931 . S
H46 C51 0.928 . S
H47 C53 0.930 . S
C48 H45 0.931 . S
C48 C49 1.413 . S
C48 C50 1.360 . S
C49 C48 1.413 . S
C49 C53 1.429 . S
C50 C48 1.360 . S
C50 C51 1.372 . S
C51 H46 0.928 . S
C51 C50 1.372 . S
C51 C52 1.404 . S
C52 C51 1.404 . S
C52 C53 1.391 . S
C53 H47 0.930 . S
C53 C49 1.429 . S
C53 C52 1.391 . S
H54 C57 0.931 . S
H55 C60 0.928 . S
H56 C62 0.930 . S
C57 H54 0.931 . S
C57 C58 1.413 . S
C57 C59 1.360 . S
C58 C57 1.413 . S
C58 C62 1.429 . S
C59 C57 1.360 . S
C59 C60 1.372 . S
C60 H55 0.928 . S
C60 C59 1.372 . S
C60 C61 1.404 . S
C61 C60 1.404 . S
C61 C62 1.391 . S
C62 H56 0.930 . S
C62 C58 1.429 . S
C62 C61 1.391 . S
H63 C66 0.931 . S
H64 C69 0.928 . S
H65 C71 0.930 . S
C66 H63 0.931 . S
C66 C67 1.413 . S
C66 C68 1.360 . S
C67 C66 1.413 . S
C67 C71 1.429 . S
C68 C66 1.360 . S
C68 C69 1.372 . S
C69 H64 0.928 . S
C69 C68 1.372 . S
C69 C70 1.404 . S
C70 C69 1.404 . S
C70 C71 1.391 . S
C71 H65 0.930 . S
C71 C67 1.429 . S
C71 C70 1.391 . S
Zn72 O78 1.920 1_455 S
Zn72 O84 1.898 . S
Zn72 O87 1.905 . S
Zn73 O81 1.905 1_655 S
Zn73 O82 1.898 . S
Zn73 O90 1.920 . S
Zn74 O77 2.080 1_455 S
Zn74 O80 2.114 . S
Zn74 O83 2.120 1_455 S
Zn74 O85 2.120 . S
Zn74 O86 2.114 . S
Zn74 O89 2.080 1_455 S
C75 O80 1.166 . S
C75 O81 1.182 . S
C76 O82 1.167 . S
C76 O83 1.299 . S
O77 Zn74 2.080 1_655 S
O77 C91 1.305 . S
O78 Zn72 1.920 1_655 S
O78 C91 1.234 . S
C79 O84 1.167 . S
C79 O85 1.299 . S
O80 Zn74 2.114 . S
O80 C75 1.166 . S
O81 Zn73 1.905 1_455 S
O81 C75 1.182 . S
O82 Zn73 1.898 . S
O82 C76 1.167 . S
O83 Zn74 2.120 1_655 S
O83 C76 1.299 . S
O84 Zn72 1.898 . S
O84 C79 1.167 . S
O85 Zn74 2.120 . S
O85 C79 1.299 . S
O86 Zn74 2.114 . S
O86 C88 1.166 . S
O87 Zn72 1.905 . S
O87 C88 1.182 . S
C88 O86 1.166 . S
C88 O87 1.182 . S
O89 Zn74 2.080 1_655 S
O89 C92 1.305 . S
O90 Zn73 1.920 . S
O90 C92 1.234 . S
C91 O77 1.305 . S
C91 O78 1.234 . S
C92 O89 1.305 . S
C92 O90 1.234 . S
Zn93 O99 1.920 . S
Zn93 O105 1.898 . S
Zn93 O108 1.905 . S
Zn94 O102 1.905 . S
Zn94 O103 1.898 . S
Zn94 O111 1.920 . S
Zn95 O98 2.080 . S
Zn95 O101 2.114 . S
Zn95 O104 2.120 . S
Zn95 O106 2.120 . S
Zn95 O107 2.114 . S
Zn95 O110 2.080 . S
C96 O101 1.166 . S
C96 O102 1.182 . S
C97 O103 1.167 . S
C97 O104 1.299 . S
O98 Zn95 2.080 . S
O98 C112 1.305 . S
O99 Zn93 1.920 . S
O99 C112 1.234 . S
C100 O105 1.167 . S
C100 O106 1.299 . S
O101 Zn95 2.114 . S
O101 C96 1.166 . S
O102 Zn94 1.905 . S
O102 C96 1.182 . S
O103 Zn94 1.898 . S
O103 C97 1.167 . S
O104 Zn95 2.120 . S
O104 C97 1.299 . S
O105 Zn93 1.898 . S
O105 C100 1.167 . S
O106 Zn95 2.120 . S
O106 C100 1.299 . S
O107 Zn95 2.114 . S
O107 C109 1.166 . S
O108 Zn93 1.905 . S
O108 C109 1.182 . S
C109 O107 1.166 . S
C109 O108 1.182 . S
O110 Zn95 2.080 . S
O110 C113 1.305 . S
O111 Zn94 1.920 . S
O111 C113 1.234 . S
C112 O98 1.305 . S
C112 O99 1.234 . S
C113 O110 1.305 . S
C113 O111 1.234 . S
Zn114 O120 1.920 . S
Zn114 O126 1.898 . S
Zn114 O129 1.905 1_455 S
Zn115 O123 1.905 . S
Zn115 O124 1.898 . S
Zn115 O132 1.920 1_655 S
Zn116 O119 2.080 . S
Zn116 O122 2.114 1_455 S
Zn116 O125 2.120 1_455 S
Zn116 O127 2.120 . S
Zn116 O128 2.114 1_455 S
Zn116 O131 2.080 . S
C117 O122 1.166 . S
C117 O123 1.182 . S
C118 O124 1.167 . S
C118 O125 1.299 . S
O119 Zn116 2.080 . S
O119 C133 1.305 . S
O120 Zn114 1.920 . S
O120 C133 1.234 . S
C121 O126 1.167 . S
C121 O127 1.299 . S
O122 Zn116 2.114 1_655 S
O122 C117 1.166 . S
O123 Zn115 1.905 . S
O123 C117 1.182 . S
O124 Zn115 1.898 . S
O124 C118 1.167 . S
O125 Zn116 2.120 1_655 S
O125 C118 1.299 . S
O126 Zn114 1.898 . S
O126 C121 1.167 . S
O127 Zn116 2.120 . S
O127 C121 1.299 . S
O128 Zn116 2.114 1_655 S
O128 C130 1.166 . S
O129 Zn114 1.905 1_655 S
O129 C130 1.182 . S
C130 O128 1.166 . S
C130 O129 1.182 . S
O131 Zn116 2.080 . S
O131 C134 1.305 . S
O132 Zn115 1.920 1_455 S
O132 C134 1.234 . S
C133 O119 1.305 . S
C133 O120 1.234 . S
C134 O131 1.305 . S
C134 O132 1.234 . S
Zn135 O141 1.920 . S
Zn135 O147 1.898 . S
Zn135 O150 1.905 . S
Zn136 O144 1.905 . S
Zn136 O145 1.898 . S
Zn136 O153 1.920 . S
Zn137 O140 2.080 . S
Zn137 O143 2.114 . S
Zn137 O146 2.120 . S
Zn137 O148 2.120 . S
Zn137 O149 2.114 . S
Zn137 O152 2.080 . S
C138 O143 1.166 . S
C138 O144 1.182 . S
C139 O145 1.167 . S
C139 O146 1.299 . S
O140 Zn137 2.080 . S
O140 C154 1.305 . S
O141 Zn135 1.920 . S
O141 C154 1.234 . S
C142 O147 1.167 . S
C142 O148 1.299 . S
O143 Zn137 2.114 . S
O143 C138 1.166 . S
O144 Zn136 1.905 . S
O144 C138 1.182 . S
O145 Zn136 1.898 . S
O145 C139 1.167 . S
O146 Zn137 2.120 . S
O146 C139 1.299 . S
O147 Zn135 1.898 . S
O147 C142 1.167 . S
O148 Zn137 2.120 . S
O148 C142 1.299 . S
O149 Zn137 2.114 . S
O149 C151 1.166 . S
O150 Zn135 1.905 . S
O150 C151 1.182 . S
C151 O149 1.166 . S
C151 O150 1.182 . S
O152 Zn137 2.080 . S
O152 C155 1.305 . S
O153 Zn136 1.920 . S
O153 C155 1.234 . S
C154 O140 1.305 . S
C154 O141 1.234 . S
C155 O152 1.305 . S
C155 O153 1.234 . S
H156 C174 0.951 . S
H157 C176 0.951 . S
H158 C178 0.950 . S
H159 C179 0.950 . S
H160 C181 0.950 . S
H161 C184 0.950 . S
H162 C185 0.950 . S
H163 C187 0.950 . S
H164 C188 0.950 . S
H165 C189 0.951 . S
H166 C191 0.951 . S
H167 C193 0.950 . S
H168 C194 0.950 . S
H169 C196 0.950 . S
H170 C199 0.950 . S
H171 C200 0.950 . S
H172 C202 0.950 . S
H173 C203 0.950 . S
C174 H156 0.951 . S
C174 C175 1.366 . S
C174 C176 1.388 . S
C175 C174 1.366 . S
C175 C179 1.385 . S
C176 H157 0.951 . S
C176 C174 1.388 . S
C176 C177 1.366 . S
C177 C176 1.366 . S
C177 C178 1.414 . S
C177 C180 1.499 . S
C178 H158 0.950 . S
C178 C177 1.414 . S
C178 C179 1.374 . S
C179 H159 0.950 . S
C179 C175 1.385 . S
C179 C178 1.374 . S
C180 C177 1.499 . S
C180 C181 1.373 . S
C180 C182 1.389 . S
C181 H160 0.950 . S
C181 C180 1.373 . S
C181 C197 1.377 1_565 S
C182 C180 1.389 . S
C182 C183 1.524 . S
C182 C196 1.377 . S
C183 C182 1.524 . S
C183 C184 1.397 . S
C183 C188 1.363 . S
C184 H161 0.950 . S
C184 C183 1.397 . S
C184 C185 1.334 . S
C185 H162 0.950 . S
C185 C184 1.334 . S
C185 C186 1.287 . S
C186 C185 1.287 . S
C186 C187 1.524 . S
C186 H205 0.913 . S
C187 H163 0.950 . S
C187 C186 1.524 . S
C187 C188 1.415 . S
C188 H164 0.950 . S
C188 C183 1.363 . S
C188 C187 1.415 . S
C189 H165 0.951 . S
C189 C190 1.366 . S
C189 C191 1.388 . S
C190 C189 1.366 . S
C190 C194 1.385 . S
C191 H166 0.951 . S
C191 C189 1.388 . S
C191 C192 1.366 . S
C192 C191 1.366 . S
C192 C193 1.414 . S
C192 C195 1.499 . S
C193 H167 0.950 . S
C193 C192 1.414 . S
C193 C194 1.374 . S
C194 H168 0.950 . S
C194 C190 1.385 . S
C194 C193 1.374 . S
C195 C192 1.499 . S
C195 C196 1.373 1_545 S
C195 C197 1.389 . S
C196 H169 0.950 . S
C196 C182 1.377 . S
C196 C195 1.373 1_565 S
C197 C181 1.377 1_545 S
C197 C195 1.389 . S
C197 C198 1.524 . S
C198 C197 1.524 . S
C198 C199 1.397 . S
C198 C203 1.363 . S
C199 H170 0.950 . S
C199 C198 1.397 . S
C199 C200 1.334 . S
C200 H171 0.950 . S
C200 C199 1.334 . S
C200 C201 1.287 . S
C201 C200 1.287 . S
C201 C202 1.524 . S
C201 H204 0.999 . S
C202 H172 0.950 . S
C202 C201 1.524 . S
C202 C203 1.415 . S
C203 H173 0.950 . S
C203 C198 1.363 . S
C203 C202 1.415 . S
H204 C201 0.999 . S
H205 C186 0.913 . S
H206 C224 0.951 . S
H207 C226 0.951 . S
H208 C228 0.950 . S
H209 C229 0.950 . S
H210 C231 0.950 . S
H211 C234 0.950 . S
H212 C235 0.950 . S
H213 C237 0.950 . S
H214 C238 0.950 . S
H215 C239 0.951 . S
H216 C241 0.951 . S
H217 C243 0.950 . S
H218 C244 0.950 . S
H219 C246 0.950 . S
H220 C249 0.950 . S
H221 C250 0.950 . S
H222 C252 0.950 . S
H223 C253 0.950 . S
C224 H206 0.951 . S
C224 C225 1.366 . S
C224 C226 1.388 . S
C225 C224 1.366 . S
C225 C229 1.385 . S
C226 H207 0.951 . S
C226 C224 1.388 . S
C226 C227 1.366 . S
C227 C226 1.366 . S
C227 C228 1.414 . S
C227 C230 1.499 . S
C228 H208 0.950 . S
C228 C227 1.414 . S
C228 C229 1.374 . S
C229 H209 0.950 . S
C229 C225 1.385 . S
C229 C228 1.374 . S
C230 C227 1.499 . S
C230 C231 1.373 . S
C230 C232 1.389 . S
C231 H210 0.950 . S
C231 C230 1.373 . S
C231 C247 1.377 . S
C232 C230 1.389 . S
C232 C233 1.524 . S
C232 C246 1.377 . S
C233 C232 1.524 . S
C233 C234 1.397 . S
C233 C238 1.363 . S
C234 H211 0.950 . S
C234 C233 1.397 . S
C234 C235 1.334 . S
C235 H212 0.950 . S
C235 C234 1.334 . S
C235 C236 1.287 . S
C236 C235 1.287 . S
C236 C237 1.524 . S
C236 H255 0.913 . S
C237 H213 0.950 . S
C237 C236 1.524 . S
C237 C238 1.415 . S
C238 H214 0.950 . S
C238 C233 1.363 . S
C238 C237 1.415 . S
C239 H215 0.951 . S
C239 C240 1.366 . S
C239 C241 1.388 . S
C240 C239 1.366 . S
C240 C244 1.385 . S
C241 H216 0.951 . S
C241 C239 1.388 . S
C241 C242 1.366 . S
C242 C241 1.366 . S
C242 C243 1.414 . S
C242 C245 1.499 . S
C243 H217 0.950 . S
C243 C242 1.414 . S
C243 C244 1.374 . S
C244 H218 0.950 . S
C244 C240 1.385 . S
C244 C243 1.374 . S
C245 C242 1.499 . S
C245 C246 1.373 . S
C245 C247 1.389 . S
C246 H219 0.950 . S
C246 C232 1.377 . S
C246 C245 1.373 . S
C247 C231 1.377 . S
C247 C245 1.389 . S
C247 C248 1.524 . S
C248 C247 1.524 . S
C248 C249 1.397 . S
C248 C253 1.363 . S
C249 H220 0.950 . S
C249 C248 1.397 . S
C249 C250 1.334 . S
C250 H221 0.950 . S
C250 C249 1.334 . S
C250 C251 1.287 . S
C251 C250 1.287 . S
C251 C252 1.524 . S
C251 H254 0.999 . S
C252 H222 0.950 . S
C252 C251 1.524 . S
C252 C253 1.415 . S
C253 H223 0.950 . S
C253 C248 1.363 . S
C253 C252 1.415 . S
H254 C251 0.999 . S
H255 C236 0.913 . S
H256 C274 0.951 . S
H257 C276 0.951 . S
H258 C278 0.950 . S
H259 C279 0.950 . S
H260 C281 0.950 . S
H261 C284 0.950 . S
H262 C285 0.950 . S
H263 C287 0.950 . S
H264 C288 0.950 . S
H265 C289 0.951 . S
H266 C291 0.951 . S
H267 C293 0.950 . S
H268 C294 0.950 . S
H269 C296 0.950 . S
H270 C299 0.950 . S
H271 C300 0.950 . S
H272 C302 0.950 . S
H273 C303 0.950 . S
C274 H256 0.951 . S
C274 C275 1.366 . S
C274 C276 1.388 . S
C275 C274 1.366 . S
C275 C279 1.385 . S
C276 H257 0.951 . S
C276 C274 1.388 . S
C276 C277 1.366 . S
C277 C276 1.366 . S
C277 C278 1.414 . S
C277 C280 1.499 . S
C278 H258 0.950 . S
C278 C277 1.414 . S
C278 C279 1.374 . S
C279 H259 0.950 . S
C279 C275 1.385 . S
C279 C278 1.374 . S
C280 C277 1.499 . S
C280 C281 1.373 . S
C280 C282 1.389 . S
C281 H260 0.950 . S
C281 C280 1.373 . S
C281 C297 1.377 . S
C282 C280 1.389 . S
C282 C283 1.524 . S
C282 C296 1.377 . S
C283 C282 1.524 . S
C283 C284 1.397 . S
C283 C288 1.363 . S
C284 H261 0.950 . S
C284 C283 1.397 . S
C284 C285 1.334 . S
C285 H262 0.950 . S
C285 C284 1.334 . S
C285 C286 1.287 . S
C286 C285 1.287 . S
C286 C287 1.524 . S
C286 H305 0.913 . S
C287 H263 0.950 . S
C287 C286 1.524 . S
C287 C288 1.415 . S
C288 H264 0.950 . S
C288 C283 1.363 . S
C288 C287 1.415 . S
C289 H265 0.951 . S
C289 C290 1.366 . S
C289 C291 1.388 . S
C290 C289 1.366 . S
C290 C294 1.385 . S
C291 H266 0.951 . S
C291 C289 1.388 . S
C291 C292 1.366 . S
C292 C291 1.366 . S
C292 C293 1.414 . S
C292 C295 1.499 . S
C293 H267 0.950 . S
C293 C292 1.414 . S
C293 C294 1.374 . S
C294 H268 0.950 . S
C294 C290 1.385 . S
C294 C293 1.374 . S
C295 C292 1.499 . S
C295 C296 1.373 . S
C295 C297 1.389 . S
C296 H269 0.950 . S
C296 C282 1.377 . S
C296 C295 1.373 . S
C297 C281 1.377 . S
C297 C295 1.389 . S
C297 C298 1.524 . S
C298 C297 1.524 . S
C298 C299 1.397 . S
C298 C303 1.363 . S
C299 H270 0.950 . S
C299 C298 1.397 . S
C299 C300 1.334 . S
C300 H271 0.950 . S
C300 C299 1.334 . S
C300 C301 1.287 . S
C301 C300 1.287 . S
C301 C302 1.524 . S
C301 H304 0.999 . S
C302 H272 0.950 . S
C302 C301 1.524 . S
C302 C303 1.415 . S
C303 H273 0.950 . S
C303 C298 1.363 . S
C303 C302 1.415 . S
H304 C301 0.999 . S
H305 C286 0.913 . S
H306 C324 0.951 . S
H307 C326 0.951 . S
H308 C328 0.950 . S
H309 C329 0.950 . S
H310 C331 0.950 . S
H311 C334 0.950 . S
H312 C335 0.950 . S
H313 C337 0.950 . S
H314 C338 0.950 . S
H315 C339 0.951 . S
H316 C341 0.951 . S
H317 C343 0.950 . S
H318 C344 0.950 . S
H319 C346 0.950 . S
H320 C349 0.950 . S
H321 C350 0.950 . S
H322 C352 0.950 . S
H323 C353 0.950 . S
C324 H306 0.951 . S
C324 C325 1.366 . S
C324 C326 1.388 . S
C325 C324 1.366 . S
C325 C329 1.385 . S
C326 H307 0.951 . S
C326 C324 1.388 . S
C326 C327 1.366 . S
C327 C326 1.366 . S
C327 C328 1.414 . S
C327 C330 1.499 . S
C328 H308 0.950 . S
C328 C327 1.414 . S
C328 C329 1.374 . S
C329 H309 0.950 . S
C329 C325 1.385 . S
C329 C328 1.374 . S
C330 C327 1.499 . S
C330 C331 1.373 . S
C330 C332 1.389 . S
C331 H310 0.950 . S
C331 C330 1.373 . S
C331 C347 1.377 1_565 S
C332 C330 1.389 . S
C332 C333 1.524 . S
C332 C346 1.377 . S
C333 C332 1.524 . S
C333 C334 1.397 . S
C333 C338 1.363 . S
C334 H311 0.950 . S
C334 C333 1.397 . S
C334 C335 1.334 . S
C335 H312 0.950 . S
C335 C334 1.334 . S
C335 C336 1.287 . S
C336 C335 1.287 . S
C336 C337 1.524 . S
C336 H355 0.913 . S
C337 H313 0.950 . S
C337 C336 1.524 . S
C337 C338 1.415 . S
C338 H314 0.950 . S
C338 C333 1.363 . S
C338 C337 1.415 . S
C339 H315 0.951 . S
C339 C340 1.366 . S
C339 C341 1.388 . S
C340 C339 1.366 . S
C340 C344 1.385 . S
C341 H316 0.951 . S
C341 C339 1.388 . S
C341 C342 1.366 . S
C342 C341 1.366 . S
C342 C343 1.414 . S
C342 C345 1.499 . S
C343 H317 0.950 . S
C343 C342 1.414 . S
C343 C344 1.374 . S
C344 H318 0.950 . S
C344 C340 1.385 . S
C344 C343 1.374 . S
C345 C342 1.499 . S
C345 C346 1.373 1_545 S
C345 C347 1.389 . S
C346 H319 0.950 . S
C346 C332 1.377 . S
C346 C345 1.373 1_565 S
C347 C331 1.377 1_545 S
C347 C345 1.389 . S
C347 C348 1.524 . S
C348 C347 1.524 . S
C348 C349 1.397 . S
C348 C353 1.363 . S
C349 H320 0.950 . S
C349 C348 1.397 . S
C349 C350 1.334 . S
C350 H321 0.950 . S
C350 C349 1.334 . S
C350 C351 1.287 . S
C351 C350 1.287 . S
C351 C352 1.524 . S
C351 H354 0.999 . S
C352 H322 0.950 . S
C352 C351 1.524 . S
C352 C353 1.415 . S
C353 H323 0.950 . S
C353 C348 1.363 . S
C353 C352 1.415 . S
H354 C351 0.999 . S
H355 C336 0.913 . S
H356 C374 0.951 . S
H357 C376 0.951 . S
H358 C378 0.950 . S
H359 C379 0.950 . S
H360 C381 0.950 . S
H361 C384 0.950 . S
H362 C385 0.950 . S
H363 C387 0.950 . S
H364 C388 0.950 . S
H365 C389 0.951 . S
H366 C391 0.951 . S
H367 C393 0.950 . S
H368 C394 0.950 . S
H369 C396 0.950 . S
H370 C399 0.950 . S
H371 C400 0.950 . S
H372 C402 0.950 . S
H373 C403 0.950 . S
C374 H356 0.951 . S
C374 C375 1.366 . S
C374 C376 1.388 . S
C375 C374 1.366 . S
C375 C379 1.385 . S
C376 H357 0.951 . S
C376 C374 1.388 . S
C376 C377 1.366 . S
C377 C376 1.366 . S
C377 C378 1.414 . S
C377 C380 1.499 . S
C378 H358 0.950 . S
C378 C377 1.414 . S
C378 C379 1.374 . S
C379 H359 0.950 . S
C379 C375 1.385 . S
C379 C378 1.374 . S
C380 C377 1.499 . S
C380 C381 1.373 . S
C380 C382 1.389 . S
C381 H360 0.950 . S
C381 C380 1.373 . S
C381 C397 1.377 1_545 S
C382 C380 1.389 . S
C382 C383 1.524 . S
C382 C396 1.377 . S
C383 C382 1.524 . S
C383 C384 1.397 . S
C383 C388 1.363 . S
C384 H361 0.950 . S
C384 C383 1.397 . S
C384 C385 1.334 . S
C385 H362 0.950 . S
C385 C384 1.334 . S
C385 C386 1.287 . S
C386 C385 1.287 . S
C386 C387 1.524 . S
C386 H405 0.913 . S
C387 H363 0.950 . S
C387 C386 1.524 . S
C387 C388 1.415 . S
C388 H364 0.950 . S
C388 C383 1.363 . S
C388 C387 1.415 . S
C389 H365 0.951 . S
C389 C390 1.366 . S
C389 C391 1.388 . S
C390 C389 1.366 . S
C390 C394 1.385 . S
C391 H366 0.951 . S
C391 C389 1.388 . S
C391 C392 1.366 . S
C392 C391 1.366 . S
C392 C393 1.414 . S
C392 C395 1.499 . S
C393 H367 0.950 . S
C393 C392 1.414 . S
C393 C394 1.374 . S
C394 H368 0.950 . S
C394 C390 1.385 . S
C394 C393 1.374 . S
C395 C392 1.499 . S
C395 C396 1.373 1_565 S
C395 C397 1.389 . S
C396 H369 0.950 . S
C396 C382 1.377 . S
C396 C395 1.373 1_545 S
C397 C381 1.377 1_565 S
C397 C395 1.389 . S
C397 C398 1.524 . S
C398 C397 1.524 . S
C398 C399 1.397 . S
C398 C403 1.363 . S
C399 H370 0.950 . S
C399 C398 1.397 . S
C399 C400 1.334 . S
C400 H371 0.950 . S
C400 C399 1.334 . S
C400 C401 1.287 . S
C401 C400 1.287 . S
C401 C402 1.524 . S
C401 H404 0.999 . S
C402 H372 0.950 . S
C402 C401 1.524 . S
C402 C403 1.415 . S
C403 H373 0.950 . S
C403 C398 1.363 . S
C403 C402 1.415 . S
H404 C401 0.999 . S
H405 C386 0.913 . S
H406 C424 0.951 . S
H407 C426 0.951 . S
H408 C428 0.950 . S
H409 C429 0.950 . S
H410 C431 0.950 . S
H411 C434 0.950 . S
H412 C435 0.950 . S
H413 C437 0.950 . S
H414 C438 0.950 . S
H415 C439 0.951 . S
H416 C441 0.951 . S
H417 C443 0.950 . S
H418 C444 0.950 . S
H419 C446 0.950 . S
H420 C449 0.950 . S
H421 C450 0.950 . S
H422 C452 0.950 . S
H423 C453 0.950 . S
C424 H406 0.951 . S
C424 C425 1.366 . S
C424 C426 1.388 . S
C425 C424 1.366 . S
C425 C429 1.385 . S
C426 H407 0.951 . S
C426 C424 1.388 . S
C426 C427 1.366 . S
C427 C426 1.366 . S
C427 C428 1.414 . S
C427 C430 1.499 . S
C428 H408 0.950 . S
C428 C427 1.414 . S
C428 C429 1.374 . S
C429 H409 0.950 . S
C429 C425 1.385 . S
C429 C428 1.374 . S
C430 C427 1.499 . S
C430 C431 1.373 . S
C430 C432 1.389 . S
C431 H410 0.950 . S
C431 C430 1.373 . S
C431 C447 1.377 . S
C432 C430 1.389 . S
C432 C433 1.524 . S
C432 C446 1.377 . S
C433 C432 1.524 . S
C433 C434 1.397 . S
C433 C438 1.363 . S
C434 H411 0.950 . S
C434 C433 1.397 . S
C434 C435 1.334 . S
C435 H412 0.950 . S
C435 C434 1.334 . S
C435 C436 1.287 . S
C436 C435 1.287 . S
C436 C437 1.524 . S
C436 H455 0.913 . S
C437 H413 0.950 . S
C437 C436 1.524 . S
C437 C438 1.415 . S
C438 H414 0.950 . S
C438 C433 1.363 . S
C438 C437 1.415 . S
C439 H415 0.951 . S
C439 C440 1.366 . S
C439 C441 1.388 . S
C440 C439 1.366 . S
C440 C444 1.385 . S
C441 H416 0.951 . S
C441 C439 1.388 . S
C441 C442 1.366 . S
C442 C441 1.366 . S
C442 C443 1.414 . S
C442 C445 1.499 . S
C443 H417 0.950 . S
C443 C442 1.414 . S
C443 C444 1.374 . S
C444 H418 0.950 . S
C444 C440 1.385 . S
C444 C443 1.374 . S
C445 C442 1.499 . S
C445 C446 1.373 . S
C445 C447 1.389 . S
C446 H419 0.950 . S
C446 C432 1.377 . S
C446 C445 1.373 . S
C447 C431 1.377 . S
C447 C445 1.389 . S
C447 C448 1.524 . S
C448 C447 1.524 . S
C448 C449 1.397 . S
C448 C453 1.363 . S
C449 H420 0.950 . S
C449 C448 1.397 . S
C449 C450 1.334 . S
C450 H421 0.950 . S
C450 C449 1.334 . S
C450 C451 1.287 . S
C451 C450 1.287 . S
C451 C452 1.524 . S
C451 H454 0.999 . S
C452 H422 0.950 . S
C452 C451 1.524 . S
C452 C453 1.415 . S
C453 H423 0.950 . S
C453 C448 1.363 . S
C453 C452 1.415 . S
H454 C451 0.999 . S
H455 C436 0.913 . S
H456 C474 0.951 . S
H457 C476 0.951 . S
H458 C478 0.950 . S
H459 C479 0.950 . S
H460 C481 0.950 . S
H461 C484 0.950 . S
H462 C485 0.950 . S
H463 C487 0.950 . S
H464 C488 0.950 . S
H465 C489 0.951 . S
H466 C491 0.951 . S
H467 C493 0.950 . S
H468 C494 0.950 . S
H469 C496 0.950 . S
H470 C499 0.950 . S
H471 C500 0.950 . S
H472 C502 0.950 . S
H473 C503 0.950 . S
C474 H456 0.951 . S
C474 C475 1.366 . S
C474 C476 1.388 . S
C475 C474 1.366 . S
C475 C479 1.385 . S
C476 H457 0.951 . S
C476 C474 1.388 . S
C476 C477 1.366 . S
C477 C476 1.366 . S
C477 C478 1.414 . S
C477 C480 1.499 . S
C478 H458 0.950 . S
C478 C477 1.414 . S
C478 C479 1.374 . S
C479 H459 0.950 . S
C479 C475 1.385 . S
C479 C478 1.374 . S
C480 C477 1.499 . S
C480 C481 1.373 . S
C480 C482 1.389 . S
C481 H460 0.950 . S
C481 C480 1.373 . S
C481 C497 1.377 . S
C482 C480 1.389 . S
C482 C483 1.524 . S
C482 C496 1.377 . S
C483 C482 1.524 . S
C483 C484 1.397 . S
C483 C488 1.363 . S
C484 H461 0.950 . S
C484 C483 1.397 . S
C484 C485 1.334 . S
C485 H462 0.950 . S
C485 C484 1.334 . S
C485 C486 1.287 . S
C486 C485 1.287 . S
C486 C487 1.524 . S
C486 H505 0.913 . S
C487 H463 0.950 . S
C487 C486 1.524 . S
C487 C488 1.415 . S
C488 H464 0.950 . S
C488 C483 1.363 . S
C488 C487 1.415 . S
C489 H465 0.951 . S
C489 C490 1.366 . S
C489 C491 1.388 . S
C490 C489 1.366 . S
C490 C494 1.385 . S
C491 H466 0.951 . S
C491 C489 1.388 . S
C491 C492 1.366 . S
C492 C491 1.366 . S
C492 C493 1.414 . S
C492 C495 1.499 . S
C493 H467 0.950 . S
C493 C492 1.414 . S
C493 C494 1.374 . S
C494 H468 0.950 . S
C494 C490 1.385 . S
C494 C493 1.374 . S
C495 C492 1.499 . S
C495 C496 1.373 . S
C495 C497 1.389 . S
C496 H469 0.950 . S
C496 C482 1.377 . S
C496 C495 1.373 . S
C497 C481 1.377 . S
C497 C495 1.389 . S
C497 C498 1.524 . S
C498 C497 1.524 . S
C498 C499 1.397 . S
C498 C503 1.363 . S
C499 H470 0.950 . S
C499 C498 1.397 . S
C499 C500 1.334 . S
C500 H471 0.950 . S
C500 C499 1.334 . S
C500 C501 1.287 . S
C501 C500 1.287 . S
C501 C502 1.524 . S
C501 H504 0.999 . S
C502 H472 0.950 . S
C502 C501 1.524 . S
C502 C503 1.415 . S
C503 H473 0.950 . S
C503 C498 1.363 . S
C503 C502 1.415 . S
H504 C501 0.999 . S
H505 C486 0.913 . S
H506 C524 0.951 . S
H507 C526 0.951 . S
H508 C528 0.950 . S
H509 C529 0.950 . S
H510 C531 0.950 . S
H511 C534 0.950 . S
H512 C535 0.950 . S
H513 C537 0.950 . S
H514 C538 0.950 . S
H515 C539 0.951 . S
H516 C541 0.951 . S
H517 C543 0.950 . S
H518 C544 0.950 . S
H519 C546 0.950 . S
H520 C549 0.950 . S
H521 C550 0.950 . S
H522 C552 0.950 . S
H523 C553 0.950 . S
C524 H506 0.951 . S
C524 C525 1.366 . S
C524 C526 1.388 . S
C525 C524 1.366 . S
C525 C529 1.385 . S
C526 H507 0.951 . S
C526 C524 1.388 . S
C526 C527 1.366 . S
C527 C526 1.366 . S
C527 C528 1.414 . S
C527 C530 1.499 . S
C528 H508 0.950 . S
C528 C527 1.414 . S
C528 C529 1.374 . S
C529 H509 0.950 . S
C529 C525 1.385 . S
C529 C528 1.374 . S
C530 C527 1.499 . S
C530 C531 1.373 . S
C530 C532 1.389 . S
C531 H510 0.950 . S
C531 C530 1.373 . S
C531 C547 1.377 1_545 S
C532 C530 1.389 . S
C532 C533 1.524 . S
C532 C546 1.377 . S
C533 C532 1.524 . S
C533 C534 1.397 . S
C533 C538 1.363 . S
C534 H511 0.950 . S
C534 C533 1.397 . S
C534 C535 1.334 . S
C535 H512 0.950 . S
C535 C534 1.334 . S
C535 C536 1.287 . S
C536 C535 1.287 . S
C536 C537 1.524 . S
C536 H555 0.913 . S
C537 H513 0.950 . S
C537 C536 1.524 . S
C537 C538 1.415 . S
C538 H514 0.950 . S
C538 C533 1.363 . S
C538 C537 1.415 . S
C539 H515 0.951 . S
C539 C540 1.366 . S
C539 C541 1.388 . S
C540 C539 1.366 . S
C540 C544 1.385 . S
C541 H516 0.951 . S
C541 C539 1.388 . S
C541 C542 1.366 . S
C542 C541 1.366 . S
C542 C543 1.414 . S
C542 C545 1.499 . S
C543 H517 0.950 . S
C543 C542 1.414 . S
C543 C544 1.374 . S
C544 H518 0.950 . S
C544 C540 1.385 . S
C544 C543 1.374 . S
C545 C542 1.499 . S
C545 C546 1.373 1_565 S
C545 C547 1.389 . S
C546 H519 0.950 . S
C546 C532 1.377 . S
C546 C545 1.373 1_545 S
C547 C531 1.377 1_565 S
C547 C545 1.389 . S
C547 C548 1.524 . S
C548 C547 1.524 . S
C548 C549 1.397 . S
C548 C553 1.363 . S
C549 H520 0.950 . S
C549 C548 1.397 . S
C549 C550 1.334 . S
C550 H521 0.950 . S
C550 C549 1.334 . S
C550 C551 1.287 . S
C551 C550 1.287 . S
C551 C552 1.524 . S
C551 H554 0.999 . S
C552 H522 0.950 . S
C552 C551 1.524 . S
C552 C553 1.415 . S
C553 H523 0.950 . S
C553 C548 1.363 . S
C553 C552 1.415 . S
H554 C551 0.999 . S
H555 C536 0.913 . S
H556 C574 0.951 . S
H557 C576 0.951 1_554 S
H558 C578 0.950 . S
H559 C579 0.950 . S
H560 C581 0.950 . S
H561 C584 0.950 . S
H562 C585 0.950 . S
H563 C587 0.950 . S
H564 C588 0.950 . S
H565 C589 0.951 . S
H566 C591 0.951 . S
H567 C593 0.950 . S
H568 C594 0.950 . S
H569 C596 0.950 . S
H570 C599 0.950 . S
H571 C600 0.945 1_655 S
H572 C602 0.950 . S
H573 C603 0.950 . S
C574 H556 0.951 . S
C574 C575 1.366 . S
C574 C576 1.388 . S
C575 C574 1.366 . S
C575 C579 1.385 . S
C576 H557 0.951 1_556 S
C576 C574 1.388 . S
C576 C577 1.366 1_556 S
C577 C576 1.366 1_554 S
C577 C578 1.414 1_554 S
C577 C580 1.499 . S
C578 H558 0.950 . S
C578 C577 1.414 1_556 S
C578 C579 1.374 . S
C579 H559 0.950 . S
C579 C575 1.385 . S
C579 C578 1.374 . S
C580 C577 1.499 . S
C580 C581 1.373 . S
C580 C582 1.389 . S
C581 H560 0.950 . S
C581 C580 1.373 . S
C581 C597 1.377 . S
C582 C580 1.389 . S
C582 C583 1.524 . S
C582 C596 1.377 . S
C583 C582 1.524 . S
C583 C584 1.397 . S
C583 C588 1.363 . S
C584 H561 0.950 . S
C584 C583 1.397 . S
C584 C585 1.334 . S
C585 H562 0.950 . S
C585 C584 1.334 . S
C585 C586 1.287 . S
C586 C585 1.287 . S
C586 C587 1.524 . S
C586 H605 0.913 . S
C587 H563 0.950 . S
C587 C586 1.524 . S
C587 C588 1.415 . S
C588 H564 0.950 . S
C588 C583 1.363 . S
C588 C587 1.415 . S
C589 H565 0.951 . S
C589 C590 1.366 . S
C589 C591 1.388 . S
C590 C589 1.366 . S
C590 C594 1.385 . S
C591 H566 0.951 . S
C591 C589 1.388 . S
C591 C592 1.366 . S
C592 C591 1.366 . S
C592 C593 1.414 . S
C592 C595 1.499 . S
C593 H567 0.950 . S
C593 C592 1.414 . S
C593 C594 1.374 . S
C594 H568 0.950 . S
C594 C590 1.385 . S
C594 C593 1.374 . S
C595 C592 1.499 . S
C595 C596 1.373 . S
C595 C597 1.389 . S
C596 H569 0.950 . S
C596 C582 1.377 . S
C596 C595 1.373 . S
C597 C581 1.377 . S
C597 C595 1.389 . S
C597 C598 1.524 . S
C598 C597 1.524 . S
C598 C599 1.397 . S
C598 C603 1.363 . S
C599 H570 0.950 . S
C599 C598 1.397 . S
C599 C600 1.359 . S
C600 H571 0.945 1_455 S
C600 C599 1.359 . S
C600 C601 1.268 1_455 S
C601 C600 1.268 1_655 S
C601 C602 1.524 . S
C601 H604 0.999 . S
C602 H572 0.950 . S
C602 C601 1.524 . S
C602 C603 1.415 1_655 S
C603 H573 0.950 . S
C603 C598 1.363 . S
C603 C602 1.415 1_455 S
H604 C601 0.999 . S
H605 C586 0.913 . S
H606 C624 0.951 . S
H607 C626 0.951 . S
H608 C628 0.950 . S
H609 C629 0.950 . S
H610 C631 0.950 . S
H611 C634 0.950 . S
H612 C635 0.950 . S
H613 C637 0.950 . S
H614 C638 0.950 . S
H615 C639 0.951 . S
H616 C641 0.951 . S
H617 C643 0.950 . S
H618 C644 0.950 . S
H619 C646 0.950 . S
H620 C649 0.950 . S
H621 C650 0.950 . S
H622 C652 0.950 . S
H623 C653 0.950 . S
C624 H606 0.951 . S
C624 C625 1.366 . S
C624 C626 1.388 . S
C625 C624 1.366 . S
C625 C629 1.385 . S
C626 H607 0.951 . S
C626 C624 1.388 . S
C626 C627 1.366 . S
C627 C626 1.366 . S
C627 C628 1.414 . S
C627 C630 1.499 . S
C628 H608 0.950 . S
C628 C627 1.414 . S
C628 C629 1.374 . S
C629 H609 0.950 . S
C629 C625 1.385 . S
C629 C628 1.374 . S
C630 C627 1.499 . S
C630 C631 1.373 . S
C630 C632 1.389 . S
C631 H610 0.950 . S
C631 C630 1.373 . S
C631 C647 1.377 . S
C632 C630 1.389 . S
C632 C633 1.524 . S
C632 C646 1.377 . S
C633 C632 1.524 . S
C633 C634 1.397 . S
C633 C638 1.363 . S
C634 H611 0.950 . S
C634 C633 1.397 . S
C634 C635 1.334 . S
C635 H612 0.950 . S
C635 C634 1.334 . S
C635 C636 1.287 . S
C636 C635 1.287 . S
C636 C637 1.524 . S
C636 H655 0.913 . S
C637 H613 0.950 . S
C637 C636 1.524 . S
C637 C638 1.415 . S
C638 H614 0.950 . S
C638 C633 1.363 . S
C638 C637 1.415 . S
C639 H615 0.951 . S
C639 C640 1.366 . S
C639 C641 1.388 . S
C640 C639 1.366 . S
C640 C644 1.385 . S
C641 H616 0.951 . S
C641 C639 1.388 . S
C641 C642 1.366 . S
C642 C641 1.366 . S
C642 C643 1.414 . S
C642 C645 1.499 . S
C643 H617 0.950 . S
C643 C642 1.414 . S
C643 C644 1.374 . S
C644 H618 0.950 . S
C644 C640 1.385 . S
C644 C643 1.374 . S
C645 C642 1.499 . S
C645 C646 1.373 . S
C645 C647 1.389 . S
C646 H619 0.950 . S
C646 C632 1.377 . S
C646 C645 1.373 . S
C647 C631 1.377 . S
C647 C645 1.389 . S
C647 C648 1.524 . S
C648 C647 1.524 . S
C648 C649 1.397 . S
C648 C653 1.363 . S
C649 H620 0.950 . S
C649 C648 1.397 . S
C649 C650 1.334 . S
C650 H621 0.950 . S
C650 C649 1.334 . S
C650 C651 1.287 . S
C651 C650 1.287 . S
C651 C652 1.524 . S
C651 H654 0.999 . S
C652 H622 0.950 . S
C652 C651 1.524 . S
C652 C653 1.415 . S
C653 H623 0.950 . S
C653 C648 1.363 . S
C653 C652 1.415 . S
H654 C651 0.999 . S
H655 C636 0.913 . S
H656 C674 0.951 . S
H657 C676 0.951 1_556 S
H658 C678 0.950 . S
H659 C679 0.950 . S
H660 C681 0.950 . S
H661 C684 0.950 . S
H662 C685 0.950 . S
H663 C687 0.950 . S
H664 C688 0.950 . S
H665 C689 0.951 . S
H666 C691 0.951 . S
H667 C693 0.950 . S
H668 C694 0.950 . S
H669 C696 0.950 . S
H670 C699 0.950 . S
H671 C700 0.950 . S
H672 C702 0.950 . S
H673 C703 0.950 . S
C674 H656 0.951 . S
C674 C675 1.366 . S
C674 C676 1.388 . S
C675 C674 1.366 . S
C675 C679 1.385 . S
C676 H657 0.951 1_554 S
C676 C674 1.388 . S
C676 C677 1.367 . S
C677 C676 1.367 . S
C677 C678 1.423 . S
C677 C680 1.488 1_554 S
C678 H658 0.950 . S
C678 C677 1.423 . S
C678 C679 1.374 . S
C679 H659 0.950 . S
C679 C675 1.385 . S
C679 C678 1.374 . S
C680 C677 1.488 1_556 S
C680 C681 1.373 . S
C680 C682 1.389 . S
C681 H660 0.950 . S
C681 C680 1.373 . S
C681 C697 1.377 . S
C682 C680 1.389 . S
C682 C683 1.524 . S
C682 C696 1.377 . S
C683 C682 1.524 . S
C683 C684 1.397 . S
C683 C688 1.363 . S
C684 H661 0.950 . S
C684 C683 1.397 . S
C684 C685 1.334 . S
C685 H662 0.950 . S
C685 C684 1.334 . S
C685 C686 1.287 . S
C686 C685 1.287 . S
C686 C687 1.524 . S
C686 H705 0.913 . S
C687 H663 0.950 . S
C687 C686 1.524 . S
C687 C688 1.415 . S
C688 H664 0.950 . S
C688 C683 1.363 . S
C688 C687 1.415 . S
C689 H665 0.951 . S
C689 C690 1.366 . S
C689 C691 1.388 . S
C690 C689 1.366 . S
C690 C694 1.385 . S
C691 H666 0.951 . S
C691 C689 1.388 . S
C691 C692 1.366 . S
C692 C691 1.366 . S
C692 C693 1.414 . S
C692 C695 1.499 . S
C693 H667 0.950 . S
C693 C692 1.414 . S
C693 C694 1.374 . S
C694 H668 0.950 . S
C694 C690 1.385 . S
C694 C693 1.374 . S
C695 C692 1.499 . S
C695 C696 1.373 . S
C695 C697 1.389 . S
C696 H669 0.950 . S
C696 C682 1.377 . S
C696 C695 1.373 . S
C697 C681 1.377 . S
C697 C695 1.389 . S
C697 C698 1.524 . S
C698 C697 1.524 . S
C698 C699 1.397 . S
C698 C703 1.363 . S
C699 H670 0.950 . S
C699 C698 1.397 . S
C699 C700 1.334 . S
C700 H671 0.950 . S
C700 C699 1.334 . S
C700 C701 1.287 . S
C701 C700 1.287 . S
C701 C702 1.524 . S
C701 H704 0.999 . S
C702 H672 0.950 . S
C702 C701 1.524 . S
C702 C703 1.415 . S
C703 H673 0.950 . S
C703 C698 1.363 . S
C703 C702 1.415 . S
H704 C701 0.999 . S
H705 C686 0.913 . S
H706 C724 0.951 . S
H707 C726 0.951 . S
H708 C728 0.950 . S
H709 C729 0.950 . S
H710 C731 0.950 . S
H711 C734 0.950 . S
H712 C735 0.950 . S
H713 C737 0.950 . S
H714 C738 0.950 . S
H715 C739 0.951 . S
H716 C741 0.951 . S
H717 C743 0.950 . S
H718 C744 0.950 . S
H719 C746 0.950 . S
H720 C749 0.950 . S
H721 C750 0.950 1_455 S
H722 C752 0.950 . S
H723 C753 0.950 . S
C724 H706 0.951 . S
C724 C725 1.366 . S
C724 C726 1.388 . S
C725 C724 1.366 . S
C725 C729 1.385 . S
C726 H707 0.951 . S
C726 C724 1.388 . S
C726 C727 1.366 . S
C727 C726 1.366 . S
C727 C728 1.414 . S
C727 C730 1.499 . S
C728 H708 0.950 . S
C728 C727 1.414 . S
C728 C729 1.374 . S
C729 H709 0.950 . S
C729 C725 1.385 . S
C729 C728 1.374 . S
C730 C727 1.499 . S
C730 C731 1.373 . S
C730 C732 1.389 . S
C731 H710 0.950 . S
C731 C730 1.373 . S
C731 C747 1.377 . S
C732 C730 1.389 . S
C732 C733 1.524 . S
C732 C746 1.377 . S
C733 C732 1.524 . S
C733 C734 1.397 . S
C733 C738 1.363 . S
C734 H711 0.950 . S
C734 C733 1.397 . S
C734 C735 1.334 . S
C735 H712 0.950 . S
C735 C734 1.334 . S
C735 C736 1.287 . S
C736 C735 1.287 . S
C736 C737 1.524 . S
C736 H755 0.913 . S
C737 H713 0.950 . S
C737 C736 1.524 . S
C737 C738 1.415 . S
C738 H714 0.950 . S
C738 C733 1.363 . S
C738 C737 1.415 . S
C739 H715 0.951 . S
C739 C740 1.366 . S
C739 C741 1.388 . S
C740 C739 1.366 . S
C740 C744 1.385 . S
C741 H716 0.951 . S
C741 C739 1.388 . S
C741 C742 1.366 . S
C742 C741 1.366 . S
C742 C743 1.414 . S
C742 C745 1.499 . S
C743 H717 0.950 . S
C743 C742 1.414 . S
C743 C744 1.374 . S
C744 H718 0.950 . S
C744 C740 1.385 . S
C744 C743 1.374 . S
C745 C742 1.499 . S
C745 C746 1.373 . S
C745 C747 1.389 . S
C746 H719 0.950 . S
C746 C732 1.377 . S
C746 C745 1.373 . S
C747 C731 1.377 . S
C747 C745 1.389 . S
C747 C748 1.524 . S
C748 C747 1.524 . S
C748 C749 1.397 . S
C748 C753 1.363 . S
C749 H720 0.950 . S
C749 C748 1.397 . S
C749 C750 1.334 . S
C750 H721 0.950 1_655 S
C750 C749 1.334 . S
C750 C751 1.287 1_655 S
C751 C750 1.287 1_455 S
C751 C752 1.524 . S
C751 H754 0.999 . S
C752 H722 0.950 . S
C752 C751 1.524 . S
C752 C753 1.415 1_455 S
C753 H723 0.950 . S
C753 C748 1.363 . S
C753 C752 1.415 1_655 S
H754 C751 0.999 . S
H755 C736 0.913 . S
H756 C774 0.951 . S
H757 C776 0.951 1_556 S
H758 C778 0.950 . S
H759 C779 0.950 . S
H760 C781 0.950 . S
H761 C784 0.950 . S
H762 C785 0.950 1_554 S
H763 C787 0.950 . S
H764 C788 0.950 . S
H765 C789 0.951 . S
H766 C791 0.951 . S
H767 C793 0.950 . S
H768 C794 0.950 . S
H769 C796 0.950 . S
H770 C799 0.950 . S
H771 C800 0.950 . S
H772 C802 0.950 . S
H773 C803 0.950 . S
C774 H756 0.951 . S
C774 C775 1.366 . S
C774 C776 1.388 . S
C775 C774 1.366 . S
C775 C779 1.385 . S
C776 H757 0.951 1_554 S
C776 C774 1.388 . S
C776 C777 1.366 1_554 S
C777 C776 1.366 1_556 S
C777 C778 1.414 1_556 S
C777 C780 1.499 . S
C778 H758 0.950 . S
C778 C777 1.414 1_554 S
C778 C779 1.374 . S
C779 H759 0.950 . S
C779 C775 1.385 . S
C779 C778 1.374 . S
C780 C777 1.499 . S
C780 C781 1.373 . S
C780 C782 1.389 . S
C781 H760 0.950 . S
C781 C780 1.373 . S
C781 C797 1.377 . S
C782 C780 1.389 . S
C782 C783 1.524 . S
C782 C796 1.377 . S
C783 C782 1.524 . S
C783 C784 1.397 . S
C783 C788 1.363 . S
C784 H761 0.950 . S
C784 C783 1.397 . S
C784 C785 1.334 . S
C785 H762 0.950 1_556 S
C785 C784 1.334 . S
C785 C786 1.287 . S
C786 C785 1.287 . S
C786 C787 1.524 . S
C786 H805 0.913 . S
C787 H763 0.950 . S
C787 C786 1.524 . S
C787 C788 1.415 . S
C788 H764 0.950 . S
C788 C783 1.363 . S
C788 C787 1.415 . S
C789 H765 0.951 . S
C789 C790 1.366 . S
C789 C791 1.388 . S
C790 C789 1.366 . S
C790 C794 1.385 . S
C791 H766 0.951 . S
C791 C789 1.388 . S
C791 C792 1.366 . S
C792 C791 1.366 . S
C792 C793 1.414 . S
C792 C795 1.499 . S
C793 H767 0.950 . S
C793 C792 1.414 . S
C793 C794 1.374 . S
C794 H768 0.950 . S
C794 C790 1.385 . S
C794 C793 1.374 . S
C795 C792 1.499 . S
C795 C796 1.373 . S
C795 C797 1.389 . S
C796 H769 0.950 . S
C796 C782 1.377 . S
C796 C795 1.373 . S
C797 C781 1.377 . S
C797 C795 1.389 . S
C797 C798 1.524 . S
C798 C797 1.524 . S
C798 C799 1.397 . S
C798 C803 1.363 . S
C799 H770 0.950 . S
C799 C798 1.397 . S
C799 C800 1.334 . S
C800 H771 0.950 . S
C800 C799 1.334 . S
C800 C801 1.287 . S
C801 C800 1.287 . S
C801 C802 1.524 . S
C801 H804 0.999 . S
C802 H772 0.950 . S
C802 C801 1.524 . S
C802 C803 1.415 . S
C803 H773 0.950 . S
C803 C798 1.363 . S
C803 C802 1.415 . S
H804 C801 0.999 . S
H805 C786 0.913 . S
H806 C824 0.951 . S
H807 C826 0.951 . S
H808 C828 0.950 . S
H809 C829 0.950 . S
H810 C831 0.950 . S
H811 C834 0.950 . S
H812 C835 0.950 . S
H813 C837 0.950 . S
H814 C838 0.950 . S
H815 C839 0.951 . S
H816 C841 0.951 . S
H817 C843 0.950 . S
H818 C844 0.950 . S
H819 C846 0.950 . S
H820 C849 0.950 . S
H821 C850 0.950 . S
H822 C852 0.950 . S
H823 C853 0.950 . S
C824 H806 0.951 . S
C824 C825 1.366 . S
C824 C826 1.388 . S
C825 C824 1.366 . S
C825 C829 1.385 . S
C826 H807 0.951 . S
C826 C824 1.388 . S
C826 C827 1.366 . S
C827 C826 1.366 . S
C827 C828 1.414 . S
C827 C830 1.499 . S
C828 H808 0.950 . S
C828 C827 1.414 . S
C828 C829 1.374 . S
C829 H809 0.950 . S
C829 C825 1.385 . S
C829 C828 1.374 . S
C830 C827 1.499 . S
C830 C831 1.373 . S
C830 C832 1.389 . S
C831 H810 0.950 . S
C831 C830 1.373 . S
C831 C847 1.377 . S
C832 C830 1.389 . S
C832 C833 1.524 . S
C832 C846 1.377 . S
C833 C832 1.524 . S
C833 C834 1.397 . S
C833 C838 1.363 . S
C834 H811 0.950 . S
C834 C833 1.397 . S
C834 C835 1.334 . S
C835 H812 0.950 . S
C835 C834 1.334 . S
C835 C836 1.287 . S
C836 C835 1.287 . S
C836 C837 1.524 . S
C836 H855 0.913 . S
C837 H813 0.950 . S
C837 C836 1.524 . S
C837 C838 1.415 . S
C838 H814 0.950 . S
C838 C833 1.363 . S
C838 C837 1.415 . S
C839 H815 0.951 . S
C839 C840 1.366 . S
C839 C841 1.388 . S
C840 C839 1.366 . S
C840 C844 1.385 . S
C841 H816 0.951 . S
C841 C839 1.388 . S
C841 C842 1.366 . S
C842 C841 1.366 . S
C842 C843 1.414 . S
C842 C845 1.499 . S
C843 H817 0.950 . S
C843 C842 1.414 . S
C843 C844 1.374 . S
C844 H818 0.950 . S
C844 C840 1.385 . S
C844 C843 1.374 . S
C845 C842 1.499 . S
C845 C846 1.373 . S
C845 C847 1.389 . S
C846 H819 0.950 . S
C846 C832 1.377 . S
C846 C845 1.373 . S
C847 C831 1.377 . S
C847 C845 1.389 . S
C847 C848 1.524 . S
C848 C847 1.524 . S
C848 C849 1.397 . S
C848 C853 1.363 . S
C849 H820 0.950 . S
C849 C848 1.397 . S
C849 C850 1.334 . S
C850 H821 0.950 . S
C850 C849 1.334 . S
C850 C851 1.287 . S
C851 C850 1.287 . S
C851 C852 1.524 . S
C851 H854 0.999 . S
C852 H822 0.950 . S
C852 C851 1.524 . S
C852 C853 1.415 . S
C853 H823 0.950 . S
C853 C848 1.363 . S
C853 C852 1.415 . S
H854 C851 0.999 . S
H855 C836 0.913 . S
H856 C874 0.951 . S
H857 C876 0.951 1_554 S
H858 C878 0.950 . S
H859 C879 0.950 . S
H860 C881 0.950 . S
H861 C884 0.950 . S
H862 C885 0.950 . S
H863 C887 0.950 . S
H864 C888 0.950 . S
H865 C889 0.951 . S
H866 C891 0.951 . S
H867 C893 0.950 . S
H868 C894 0.950 . S
H869 C896 0.950 . S
H870 C899 0.950 . S
H871 C900 0.950 . S
H872 C902 0.950 . S
H873 C903 0.950 . S
C874 H856 0.951 . S
C874 C875 1.366 . S
C874 C876 1.388 . S
C875 C874 1.366 . S
C875 C879 1.385 . S
C876 H857 0.951 1_556 S
C876 C874 1.388 . S
C876 C877 1.365 . S
C877 C876 1.365 . S
C877 C878 1.412 . S
C877 C880 1.501 1_556 S
C878 H858 0.950 . S
C878 C877 1.412 . S
C878 C879 1.374 . S
C879 H859 0.950 . S
C879 C875 1.385 . S
C879 C878 1.374 . S
C880 C877 1.501 1_554 S
C880 C881 1.373 . S
C880 C882 1.389 . S
C881 H860 0.950 . S
C881 C880 1.373 . S
C881 C897 1.377 . S
C882 C880 1.389 . S
C882 C883 1.524 . S
C882 C896 1.377 . S
C883 C882 1.524 . S
C883 C884 1.397 . S
C883 C888 1.363 . S
C884 H861 0.950 . S
C884 C883 1.397 . S
C884 C885 1.334 . S
C885 H862 0.950 . S
C885 C884 1.334 . S
C885 C886 1.287 . S
C886 C885 1.287 . S
C886 C887 1.524 . S
C886 H905 0.913 . S
C887 H863 0.950 . S
C887 C886 1.524 . S
C887 C888 1.415 . S
C888 H864 0.950 . S
C888 C883 1.363 . S
C888 C887 1.415 . S
C889 H865 0.951 . S
C889 C890 1.366 . S
C889 C891 1.388 . S
C890 C889 1.366 . S
C890 C894 1.385 . S
C891 H866 0.951 . S
C891 C889 1.388 . S
C891 C892 1.366 . S
C892 C891 1.366 . S
C892 C893 1.414 . S
C892 C895 1.499 . S
C893 H867 0.950 . S
C893 C892 1.414 . S
C893 C894 1.374 . S
C894 H868 0.950 . S
C894 C890 1.385 . S
C894 C893 1.374 . S
C895 C892 1.499 . S
C895 C896 1.373 . S
C895 C897 1.389 . S
C896 H869 0.950 . S
C896 C882 1.377 . S
C896 C895 1.373 . S
C897 C881 1.377 . S
C897 C895 1.389 . S
C897 C898 1.524 . S
C898 C897 1.524 . S
C898 C899 1.397 . S
C898 C903 1.363 . S
C899 H870 0.950 . S
C899 C898 1.397 . S
C899 C900 1.334 . S
C900 H871 0.950 . S
C900 C899 1.334 . S
C900 C901 1.287 . S
C901 C900 1.287 . S
C901 C902 1.524 . S
C901 H904 0.999 . S
C902 H872 0.950 . S
C902 C901 1.524 . S
C902 C903 1.415 . S
C903 H873 0.950 . S
C903 C898 1.363 . S
C903 C902 1.415 . S
H904 C901 0.999 . S
H905 C886 0.913 . S
H906 C924 0.951 . S
H907 C926 0.951 . S
H908 C928 0.950 . S
H909 C929 0.950 . S
H910 C931 0.950 . S
H911 C934 0.950 . S
H912 C935 0.950 . S
H913 C937 0.950 . S
H914 C938 0.950 . S
H915 C939 0.951 . S
H916 C941 0.951 . S
H917 C943 0.950 . S
H918 C944 0.950 . S
H919 C946 0.950 . S
H920 C949 0.950 . S
H921 C950 0.950 . S
H922 C952 0.950 . S
H923 C953 0.950 . S
C924 H906 0.951 . S
C924 C925 1.366 . S
C924 C926 1.388 . S
C925 C924 1.366 . S
C925 C929 1.385 . S
C926 H907 0.951 . S
C926 C924 1.388 . S
C926 C927 1.366 . S
C927 C926 1.366 . S
C927 C928 1.414 . S
C927 C930 1.499 . S
C928 H908 0.950 . S
C928 C927 1.414 . S
C928 C929 1.374 . S
C929 H909 0.950 . S
C929 C925 1.385 . S
C929 C928 1.374 . S
C930 C927 1.499 . S
C930 C931 1.373 . S
C930 C932 1.389 . S
C931 H910 0.950 . S
C931 C930 1.373 . S
C931 C947 1.377 . S
C932 C930 1.389 . S
C932 C933 1.524 . S
C932 C946 1.377 . S
C933 C932 1.524 . S
C933 C934 1.397 . S
C933 C938 1.363 . S
C934 H911 0.950 . S
C934 C933 1.397 . S
C934 C935 1.334 . S
C935 H912 0.950 . S
C935 C934 1.334 . S
C935 C936 1.287 . S
C936 C935 1.287 . S
C936 C937 1.524 . S
C936 H955 0.913 . S
C937 H913 0.950 . S
C937 C936 1.524 . S
C937 C938 1.415 . S
C938 H914 0.950 . S
C938 C933 1.363 . S
C938 C937 1.415 . S
C939 H915 0.951 . S
C939 C940 1.366 . S
C939 C941 1.388 . S
C940 C939 1.366 . S
C940 C944 1.385 . S
C941 H916 0.951 . S
C941 C939 1.388 . S
C941 C942 1.366 . S
C942 C941 1.366 . S
C942 C943 1.414 . S
C942 C945 1.499 . S
C943 H917 0.950 . S
C943 C942 1.414 . S
C943 C944 1.374 . S
C944 H918 0.950 . S
C944 C940 1.385 . S
C944 C943 1.374 . S
C945 C942 1.499 . S
C945 C946 1.373 . S
C945 C947 1.389 . S
C946 H919 0.950 . S
C946 C932 1.377 . S
C946 C945 1.373 . S
C947 C931 1.377 . S
C947 C945 1.389 . S
C947 C948 1.524 . S
C948 C947 1.524 . S
C948 C949 1.397 . S
C948 C953 1.363 . S
C949 H920 0.950 . S
C949 C948 1.397 . S
C949 C950 1.334 . S
C950 H921 0.950 . S
C950 C949 1.334 . S
C950 C951 1.287 . S
C951 C950 1.287 . S
C951 C952 1.524 . S
C951 H954 0.999 . S
C952 H922 0.950 . S
C952 C951 1.524 . S
C952 C953 1.415 . S
C953 H923 0.950 . S
C953 C948 1.363 . S
C953 C952 1.415 . S
H954 C951 0.999 . S
H955 C936 0.913 . S
H956 C974 0.951 . S
H957 C976 0.951 . S
H958 C978 0.950 . S
H959 C979 0.950 . S
H960 C981 0.950 . S
H961 C984 0.950 . S
H962 C985 0.950 . S
H963 C987 0.950 . S
H964 C988 0.950 . S
H965 C989 0.951 . S
H966 C991 0.951 . S
H967 C993 0.950 . S
H968 C994 0.950 . S
H969 C996 0.950 . S
H970 C999 0.950 . S
H971 C1000 0.950 . S
H972 C1002 0.950 . S
H973 C1003 0.950 . S
C974 H956 0.951 . S
C974 C975 1.366 . S
C974 C976 1.388 . S
C975 C974 1.366 . S
C975 C979 1.385 . S
C976 H957 0.951 . S
C976 C974 1.388 . S
C976 C977 1.366 . S
C977 C976 1.366 . S
C977 C978 1.414 . S
C977 C980 1.499 . S
C978 H958 0.950 . S
C978 C977 1.414 . S
C978 C979 1.374 . S
C979 H959 0.950 . S
C979 C975 1.385 . S
C979 C978 1.374 . S
C980 C977 1.499 . S
C980 C981 1.373 . S
C980 C982 1.389 . S
C981 H960 0.950 . S
C981 C980 1.373 . S
C981 C997 1.377 . S
C982 C980 1.389 . S
C982 C983 1.524 . S
C982 C996 1.377 . S
C983 C982 1.524 . S
C983 C984 1.397 . S
C983 C988 1.363 . S
C984 H961 0.950 . S
C984 C983 1.397 . S
C984 C985 1.334 . S
C985 H962 0.950 . S
C985 C984 1.334 . S
C985 C986 1.287 . S
C986 C985 1.287 . S
C986 C987 1.524 . S
C986 H1005 0.913 . S
C987 H963 0.950 . S
C987 C986 1.524 . S
C987 C988 1.415 . S
C988 H964 0.950 . S
C988 C983 1.363 . S
C988 C987 1.415 . S
C989 H965 0.951 . S
C989 C990 1.366 . S
C989 C991 1.388 . S
C990 C989 1.366 . S
C990 C994 1.385 . S
C991 H966 0.951 . S
C991 C989 1.388 . S
C991 C992 1.366 . S
C992 C991 1.366 . S
C992 C993 1.414 . S
C992 C995 1.499 . S
C993 H967 0.950 . S
C993 C992 1.414 . S
C993 C994 1.374 . S
C994 H968 0.950 . S
C994 C990 1.385 . S
C994 C993 1.374 . S
C995 C992 1.499 . S
C995 C996 1.373 . S
C995 C997 1.389 . S
C996 H969 0.950 . S
C996 C982 1.377 . S
C996 C995 1.373 . S
C997 C981 1.377 . S
C997 C995 1.389 . S
C997 C998 1.524 . S
C998 C997 1.524 . S
C998 C999 1.397 . S
C998 C1003 1.363 . S
C999 H970 0.950 . S
C999 C998 1.397 . S
C999 C1000 1.334 . S
C1000 H971 0.950 . S
C1000 C999 1.334 . S
C1000 C1001 1.287 . S
C1001 C1000 1.287 . S
C1001 C1002 1.524 . S
C1001 H1004 0.999 . S
C1002 H972 0.950 . S
C1002 C1001 1.524 . S
C1002 C1003 1.415 . S
C1003 H973 0.950 . S
C1003 C998 1.363 . S
C1003 C1002 1.415 . S
H1004 C1001 0.999 . S
H1005 C986 0.913 . S
H1006 C1024 0.951 . S
H1007 C1026 0.951 . S
H1008 C1028 0.950 . S
H1009 C1029 0.950 . S
H1010 C1031 0.950 . S
H1011 C1034 0.950 . S
H1012 C1035 0.950 . S
H1013 C1037 0.950 . S
H1014 C1038 0.950 . S
H1015 C1039 0.951 . S
H1016 C1041 0.951 . S
H1017 C1043 0.950 . S
H1018 C1044 0.950 . S
H1019 C1046 0.950 . S
H1020 C1049 0.950 . S
H1021 C1050 0.950 . S
H1022 C1052 0.950 . S
H1023 C1053 0.950 . S
C1024 H1006 0.951 . S
C1024 C1025 1.366 . S
C1024 C1026 1.388 . S
C1025 C1024 1.366 . S
C1025 C1029 1.385 . S
C1026 H1007 0.951 . S
C1026 C1024 1.388 . S
C1026 C1027 1.366 . S
C1027 C1026 1.366 . S
C1027 C1028 1.414 . S
C1027 C1030 1.499 . S
C1028 H1008 0.950 . S
C1028 C1027 1.414 . S
C1028 C1029 1.374 . S
C1029 H1009 0.950 . S
C1029 C1025 1.385 . S
C1029 C1028 1.374 . S
C1030 C1027 1.499 . S
C1030 C1031 1.373 . S
C1030 C1032 1.389 . S
C1031 H1010 0.950 . S
C1031 C1030 1.373 . S
C1031 C1047 1.377 . S
C1032 C1030 1.389 . S
C1032 C1033 1.524 . S
C1032 C1046 1.377 . S
C1033 C1032 1.524 . S
C1033 C1034 1.397 . S
C1033 C1038 1.363 . S
C1034 H1011 0.950 . S
C1034 C1033 1.397 . S
C1034 C1035 1.334 . S
C1035 H1012 0.950 . S
C1035 C1034 1.334 . S
C1035 C1036 1.287 . S
C1036 C1035 1.287 . S
C1036 C1037 1.524 . S
C1036 H1055 0.913 . S
C1037 H1013 0.950 . S
C1037 C1036 1.524 . S
C1037 C1038 1.415 . S
C1038 H1014 0.950 . S
C1038 C1033 1.363 . S
C1038 C1037 1.415 . S
C1039 H1015 0.951 . S
C1039 C1040 1.366 . S
C1039 C1041 1.388 . S
C1040 C1039 1.366 . S
C1040 C1044 1.385 . S
C1041 H1016 0.951 . S
C1041 C1039 1.388 . S
C1041 C1042 1.366 . S
C1042 C1041 1.366 . S
C1042 C1043 1.414 . S
C1042 C1045 1.499 . S
C1043 H1017 0.950 . S
C1043 C1042 1.414 . S
C1043 C1044 1.374 . S
C1044 H1018 0.950 . S
C1044 C1040 1.385 . S
C1044 C1043 1.374 . S
C1045 C1042 1.499 . S
C1045 C1046 1.373 . S
C1045 C1047 1.389 . S
C1046 H1019 0.950 . S
C1046 C1032 1.377 . S
C1046 C1045 1.373 . S
C1047 C1031 1.377 . S
C1047 C1045 1.389 . S
C1047 C1048 1.524 . S
C1048 C1047 1.524 . S
C1048 C1049 1.397 . S
C1048 C1053 1.363 . S
C1049 H1020 0.950 . S
C1049 C1048 1.397 . S
C1049 C1050 1.334 . S
C1050 H1021 0.950 . S
C1050 C1049 1.334 . S
C1050 C1051 1.287 . S
C1051 C1050 1.287 . S
C1051 C1052 1.524 . S
C1051 H1054 0.999 . S
C1052 H1022 0.950 . S
C1052 C1051 1.524 . S
C1052 C1053 1.415 . S
C1053 H1023 0.950 . S
C1053 C1048 1.363 . S
C1053 C1052 1.415 . S
H1054 C1051 0.999 . S
H1055 C1036 0.913 . S
H1056 C1074 0.951 . S
H1057 C1076 0.951 . S
H1058 C1078 0.950 . S
H1059 C1079 0.950 . S
H1060 C1081 0.950 . S
H1061 C1084 0.950 . S
H1062 C1085 0.950 . S
H1063 C1087 0.950 . S
H1064 C1088 0.950 . S
H1065 C1089 0.951 . S
H1066 C1091 0.951 . S
H1067 C1093 0.950 . S
H1068 C1094 0.950 . S
H1069 C1096 0.950 . S
H1070 C1099 0.950 . S
H1071 C1100 0.950 . S
H1072 C1102 0.950 . S
H1073 C1103 0.950 . S
C1074 H1056 0.951 . S
C1074 C1075 1.366 . S
C1074 C1076 1.388 . S
C1075 C1074 1.366 . S
C1075 C1079 1.385 . S
C1076 H1057 0.951 . S
C1076 C1074 1.388 . S
C1076 C1077 1.366 . S
C1077 C1076 1.366 . S
C1077 C1078 1.414 . S
C1077 C1080 1.499 . S
C1078 H1058 0.950 . S
C1078 C1077 1.414 . S
C1078 C1079 1.374 . S
C1079 H1059 0.950 . S
C1079 C1075 1.385 . S
C1079 C1078 1.374 . S
C1080 C1077 1.499 . S
C1080 C1081 1.373 . S
C1080 C1082 1.389 . S
C1081 H1060 0.950 . S
C1081 C1080 1.373 . S
C1081 C1097 1.377 . S
C1082 C1080 1.389 . S
C1082 C1083 1.524 . S
C1082 C1096 1.377 . S
C1083 C1082 1.524 . S
C1083 C1084 1.397 . S
C1083 C1088 1.363 . S
C1084 H1061 0.950 . S
C1084 C1083 1.397 . S
C1084 C1085 1.334 . S
C1085 H1062 0.950 . S
C1085 C1084 1.334 . S
C1085 C1086 1.287 . S
C1086 C1085 1.287 . S
C1086 C1087 1.524 . S
C1086 H1105 0.913 . S
C1087 H1063 0.950 . S
C1087 C1086 1.524 . S
C1087 C1088 1.415 . S
C1088 H1064 0.950 . S
C1088 C1083 1.363 . S
C1088 C1087 1.415 . S
C1089 H1065 0.951 . S
C1089 C1090 1.366 . S
C1089 C1091 1.388 . S
C1090 C1089 1.366 . S
C1090 C1094 1.385 . S
C1091 H1066 0.951 . S
C1091 C1089 1.388 . S
C1091 C1092 1.366 . S
C1092 C1091 1.366 . S
C1092 C1093 1.414 . S
C1092 C1095 1.499 . S
C1093 H1067 0.950 . S
C1093 C1092 1.414 . S
C1093 C1094 1.374 . S
C1094 H1068 0.950 . S
C1094 C1090 1.385 . S
C1094 C1093 1.374 . S
C1095 C1092 1.499 . S
C1095 C1096 1.373 . S
C1095 C1097 1.389 . S
C1096 H1069 0.950 . S
C1096 C1082 1.377 . S
C1096 C1095 1.373 . S
C1097 C1081 1.377 . S
C1097 C1095 1.389 . S
C1097 C1098 1.524 . S
C1098 C1097 1.524 . S
C1098 C1099 1.397 . S
C1098 C1103 1.363 . S
C1099 H1070 0.950 . S
C1099 C1098 1.397 . S
C1099 C1100 1.334 . S
C1100 H1071 0.950 . S
C1100 C1099 1.334 . S
C1100 C1101 1.287 . S
C1101 C1100 1.287 . S
C1101 C1102 1.524 . S
C1101 H1104 0.999 . S
C1102 H1072 0.950 . S
C1102 C1101 1.524 . S
C1102 C1103 1.415 . S
C1103 H1073 0.950 . S
C1103 C1098 1.363 . S
C1103 C1102 1.415 . S
H1104 C1101 0.999 . S
H1105 C1086 0.913 . S
H1106 C1124 0.951 . S
H1107 C1126 0.951 . S
H1108 C1128 0.950 . S
H1109 C1129 0.950 . S
H1110 C1131 0.950 . S
H1111 C1134 0.950 . S
H1112 C1135 0.950 . S
H1113 C1137 0.950 . S
H1114 C1138 0.950 . S
H1115 C1139 0.951 . S
H1116 C1141 0.951 . S
H1117 C1143 0.950 . S
H1118 C1144 0.950 . S
H1119 C1146 0.950 . S
H1120 C1149 0.950 . S
H1121 C1150 0.950 . S
H1122 C1152 0.950 . S
H1123 C1153 0.950 . S
C1124 H1106 0.951 . S
C1124 C1125 1.366 . S
C1124 C1126 1.388 . S
C1125 C1124 1.366 . S
C1125 C1129 1.385 . S
C1126 H1107 0.951 . S
C1126 C1124 1.388 . S
C1126 C1127 1.366 . S
C1127 C1126 1.366 . S
C1127 C1128 1.414 . S
C1127 C1130 1.499 . S
C1128 H1108 0.950 . S
C1128 C1127 1.414 . S
C1128 C1129 1.374 . S
C1129 H1109 0.950 . S
C1129 C1125 1.385 . S
C1129 C1128 1.374 . S
C1130 C1127 1.499 . S
C1130 C1131 1.373 . S
C1130 C1132 1.389 . S
C1131 H1110 0.950 . S
C1131 C1130 1.373 . S
C1131 C1147 1.377 . S
C1132 C1130 1.389 . S
C1132 C1133 1.524 . S
C1132 C1146 1.377 . S
C1133 C1132 1.524 . S
C1133 C1134 1.397 . S
C1133 C1138 1.363 . S
C1134 H1111 0.950 . S
C1134 C1133 1.397 . S
C1134 C1135 1.334 . S
C1135 H1112 0.950 . S
C1135 C1134 1.334 . S
C1135 C1136 1.287 . S
C1136 C1135 1.287 . S
C1136 C1137 1.524 . S
C1136 H1155 0.913 . S
C1137 H1113 0.950 . S
C1137 C1136 1.524 . S
C1137 C1138 1.415 . S
C1138 H1114 0.950 . S
C1138 C1133 1.363 . S
C1138 C1137 1.415 . S
C1139 H1115 0.951 . S
C1139 C1140 1.366 . S
C1139 C1141 1.388 . S
C1140 C1139 1.366 . S
C1140 C1144 1.385 . S
C1141 H1116 0.951 . S
C1141 C1139 1.388 . S
C1141 C1142 1.366 . S
C1142 C1141 1.366 . S
C1142 C1143 1.414 . S
C1142 C1145 1.499 . S
C1143 H1117 0.950 . S
C1143 C1142 1.414 . S
C1143 C1144 1.374 . S
C1144 H1118 0.950 . S
C1144 C1140 1.385 . S
C1144 C1143 1.374 . S
C1145 C1142 1.499 . S
C1145 C1146 1.373 . S
C1145 C1147 1.389 . S
C1146 H1119 0.950 . S
C1146 C1132 1.377 . S
C1146 C1145 1.373 . S
C1147 C1131 1.377 . S
C1147 C1145 1.389 . S
C1147 C1148 1.524 . S
C1148 C1147 1.524 . S
C1148 C1149 1.397 . S
C1148 C1153 1.363 . S
C1149 H1120 0.950 . S
C1149 C1148 1.397 . S
C1149 C1150 1.334 . S
C1150 H1121 0.950 . S
C1150 C1149 1.334 . S
C1150 C1151 1.287 . S
C1151 C1150 1.287 . S
C1151 C1152 1.524 . S
C1151 H1154 0.999 . S
C1152 H1122 0.950 . S
C1152 C1151 1.524 . S
C1152 C1153 1.415 . S
C1153 H1123 0.950 . S
C1153 C1148 1.363 . S
C1153 C1152 1.415 . S
H1154 C1151 0.999 . S
H1155 C1136 0.913 . S
H1156 C1174 0.951 . S
H1157 C1176 0.951 . S
H1158 C1178 0.950 . S
H1159 C1179 0.950 . S
H1160 C1181 0.950 . S
H1161 C1184 0.950 . S
H1162 C1185 0.950 . S
H1163 C1187 0.950 . S
H1164 C1188 0.950 . S
H1165 C1189 0.951 . S
H1166 C1191 0.951 . S
H1167 C1193 0.950 . S
H1168 C1194 0.950 . S
H1169 C1196 0.950 . S
H1170 C1199 0.950 . S
H1171 C1200 0.950 . S
H1172 C1202 0.950 . S
H1173 C1203 0.950 . S
C1174 H1156 0.951 . S
C1174 C1175 1.366 . S
C1174 C1176 1.388 . S
C1175 C1174 1.366 . S
C1175 C1179 1.385 . S
C1176 H1157 0.951 . S
C1176 C1174 1.388 . S
C1176 C1177 1.366 . S
C1177 C1176 1.366 . S
C1177 C1178 1.414 . S
C1177 C1180 1.499 . S
C1178 H1158 0.950 . S
C1178 C1177 1.414 . S
C1178 C1179 1.374 . S
C1179 H1159 0.950 . S
C1179 C1175 1.385 . S
C1179 C1178 1.374 . S
C1180 C1177 1.499 . S
C1180 C1181 1.373 . S
C1180 C1182 1.389 . S
C1181 H1160 0.950 . S
C1181 C1180 1.373 . S
C1181 C1197 1.377 . S
C1182 C1180 1.389 . S
C1182 C1183 1.524 . S
C1182 C1196 1.377 . S
C1183 C1182 1.524 . S
C1183 C1184 1.397 . S
C1183 C1188 1.363 . S
C1184 H1161 0.950 . S
C1184 C1183 1.397 . S
C1184 C1185 1.334 . S
C1185 H1162 0.950 . S
C1185 C1184 1.334 . S
C1185 C1186 1.287 . S
C1186 C1185 1.287 . S
C1186 C1187 1.524 . S
C1186 H1205 0.913 . S
C1187 H1163 0.950 . S
C1187 C1186 1.524 . S
C1187 C1188 1.415 . S
C1188 H1164 0.950 . S
C1188 C1183 1.363 . S
C1188 C1187 1.415 . S
C1189 H1165 0.951 . S
C1189 C1190 1.366 . S
C1189 C1191 1.388 . S
C1190 C1189 1.366 . S
C1190 C1194 1.385 . S
C1191 H1166 0.951 . S
C1191 C1189 1.388 . S
C1191 C1192 1.366 . S
C1192 C1191 1.366 . S
C1192 C1193 1.414 . S
C1192 C1195 1.499 . S
C1193 H1167 0.950 . S
C1193 C1192 1.414 . S
C1193 C1194 1.374 . S
C1194 H1168 0.950 . S
C1194 C1190 1.385 . S
C1194 C1193 1.374 . S
C1195 C1192 1.499 . S
C1195 C1196 1.373 . S
C1195 C1197 1.389 . S
C1196 H1169 0.950 . S
C1196 C1182 1.377 . S
C1196 C1195 1.373 . S
C1197 C1181 1.377 . S
C1197 C1195 1.389 . S
C1197 C1198 1.524 . S
C1198 C1197 1.524 . S
C1198 C1199 1.397 . S
C1198 C1203 1.363 . S
C1199 H1170 0.950 . S
C1199 C1198 1.397 . S
C1199 C1200 1.334 . S
C1200 H1171 0.950 . S
C1200 C1199 1.334 . S
C1200 C1201 1.287 . S
C1201 C1200 1.287 . S
C1201 C1202 1.524 . S
C1201 H1204 0.999 . S
C1202 H1172 0.950 . S
C1202 C1201 1.524 . S
C1202 C1203 1.415 . S
C1203 H1173 0.950 . S
C1203 C1198 1.363 . S
C1203 C1202 1.415 . S
H1204 C1201 0.999 . S
H1205 C1186 0.913 . S
H1206 C1224 0.951 . S
H1207 C1226 0.951 . S
H1208 C1228 0.950 . S
H1209 C1229 0.950 . S
H1210 C1231 0.950 . S
H1211 C1234 0.950 . S
H1212 C1235 0.950 . S
H1213 C1237 0.950 . S
H1214 C1238 0.950 . S
H1215 C1239 0.951 . S
H1216 C1241 0.951 . S
H1217 C1243 0.950 . S
H1218 C1244 0.950 . S
H1219 C1246 0.950 . S
H1220 C1249 0.950 . S
H1221 C1250 0.950 . S
H1222 C1252 0.950 . S
H1223 C1253 0.950 . S
C1224 H1206 0.951 . S
C1224 C1225 1.366 . S
C1224 C1226 1.388 . S
C1225 C1224 1.366 . S
C1225 C1229 1.385 . S
C1226 H1207 0.951 . S
C1226 C1224 1.388 . S
C1226 C1227 1.366 . S
C1227 C1226 1.366 . S
C1227 C1228 1.414 . S
C1227 C1230 1.499 . S
C1228 H1208 0.950 . S
C1228 C1227 1.414 . S
C1228 C1229 1.374 . S
C1229 H1209 0.950 . S
C1229 C1225 1.385 . S
C1229 C1228 1.374 . S
C1230 C1227 1.499 . S
C1230 C1231 1.373 . S
C1230 C1232 1.389 . S
C1231 H1210 0.950 . S
C1231 C1230 1.373 . S
C1231 C1247 1.377 . S
C1232 C1230 1.389 . S
C1232 C1233 1.524 . S
C1232 C1246 1.377 . S
C1233 C1232 1.524 . S
C1233 C1234 1.397 . S
C1233 C1238 1.363 . S
C1234 H1211 0.950 . S
C1234 C1233 1.397 . S
C1234 C1235 1.334 . S
C1235 H1212 0.950 . S
C1235 C1234 1.334 . S
C1235 C1236 1.287 . S
C1236 C1235 1.287 . S
C1236 C1237 1.524 . S
C1236 H1255 0.913 . S
C1237 H1213 0.950 . S
C1237 C1236 1.524 . S
C1237 C1238 1.415 . S
C1238 H1214 0.950 . S
C1238 C1233 1.363 . S
C1238 C1237 1.415 . S
C1239 H1215 0.951 . S
C1239 C1240 1.366 . S
C1239 C1241 1.388 . S
C1240 C1239 1.366 . S
C1240 C1244 1.385 . S
C1241 H1216 0.951 . S
C1241 C1239 1.388 . S
C1241 C1242 1.366 . S
C1242 C1241 1.366 . S
C1242 C1243 1.414 . S
C1242 C1245 1.499 . S
C1243 H1217 0.950 . S
C1243 C1242 1.414 . S
C1243 C1244 1.374 . S
C1244 H1218 0.950 . S
C1244 C1240 1.385 . S
C1244 C1243 1.374 . S
C1245 C1242 1.499 . S
C1245 C1246 1.373 . S
C1245 C1247 1.389 . S
C1246 H1219 0.950 . S
C1246 C1232 1.377 . S
C1246 C1245 1.373 . S
C1247 C1231 1.377 . S
C1247 C1245 1.389 . S
C1247 C1248 1.524 . S
C1248 C1247 1.524 . S
C1248 C1249 1.397 . S
C1248 C1253 1.363 . S
C1249 H1220 0.950 . S
C1249 C1248 1.397 . S
C1249 C1250 1.334 . S
C1250 H1221 0.950 . S
C1250 C1249 1.334 . S
C1250 C1251 1.287 . S
C1251 C1250 1.287 . S
C1251 C1252 1.524 . S
C1251 H1254 0.999 . S
C1252 H1222 0.950 . S
C1252 C1251 1.524 . S
C1252 C1253 1.415 . S
C1253 H1223 0.950 . S
C1253 C1248 1.363 . S
C1253 C1252 1.415 . S
H1254 C1251 0.999 . S
H1255 C1236 0.913 . S
H1256 C1274 0.951 . S
H1257 C1276 0.951 . S
H1258 C1278 0.950 . S
H1259 C1279 0.950 . S
H1260 C1281 0.950 . S
H1261 C1284 0.950 . S
H1262 C1285 0.950 . S
H1263 C1287 0.950 . S
H1264 C1288 0.950 . S
H1265 C1289 0.951 . S
H1266 C1291 0.951 . S
H1267 C1293 0.950 . S
H1268 C1294 0.950 . S
H1269 C1296 0.950 . S
H1270 C1299 0.950 . S
H1271 C1300 0.950 . S
H1272 C1302 0.950 . S
H1273 C1303 0.950 . S
C1274 H1256 0.951 . S
C1274 C1275 1.366 . S
C1274 C1276 1.388 . S
C1275 C1274 1.366 . S
C1275 C1279 1.385 . S
C1276 H1257 0.951 . S
C1276 C1274 1.388 . S
C1276 C1277 1.366 . S
C1277 C1276 1.366 . S
C1277 C1278 1.414 . S
C1277 C1280 1.499 . S
C1278 H1258 0.950 . S
C1278 C1277 1.414 . S
C1278 C1279 1.374 . S
C1279 H1259 0.950 . S
C1279 C1275 1.385 . S
C1279 C1278 1.374 . S
C1280 C1277 1.499 . S
C1280 C1281 1.373 . S
C1280 C1282 1.389 . S
C1281 H1260 0.950 . S
C1281 C1280 1.373 . S
C1281 C1297 1.377 . S
C1282 C1280 1.389 . S
C1282 C1283 1.524 . S
C1282 C1296 1.377 . S
C1283 C1282 1.524 . S
C1283 C1284 1.397 . S
C1283 C1288 1.363 . S
C1284 H1261 0.950 . S
C1284 C1283 1.397 . S
C1284 C1285 1.334 . S
C1285 H1262 0.950 . S
C1285 C1284 1.334 . S
C1285 C1286 1.287 . S
C1286 C1285 1.287 . S
C1286 C1287 1.524 . S
C1286 H1305 0.913 . S
C1287 H1263 0.950 . S
C1287 C1286 1.524 . S
C1287 C1288 1.415 . S
C1288 H1264 0.950 . S
C1288 C1283 1.363 . S
C1288 C1287 1.415 . S
C1289 H1265 0.951 . S
C1289 C1290 1.366 . S
C1289 C1291 1.388 . S
C1290 C1289 1.366 . S
C1290 C1294 1.385 . S
C1291 H1266 0.951 . S
C1291 C1289 1.388 . S
C1291 C1292 1.366 . S
C1292 C1291 1.366 . S
C1292 C1293 1.414 . S
C1292 C1295 1.499 . S
C1293 H1267 0.950 . S
C1293 C1292 1.414 . S
C1293 C1294 1.374 . S
C1294 H1268 0.950 . S
C1294 C1290 1.385 . S
C1294 C1293 1.374 . S
C1295 C1292 1.499 . S
C1295 C1296 1.373 . S
C1295 C1297 1.389 . S
C1296 H1269 0.950 . S
C1296 C1282 1.377 . S
C1296 C1295 1.373 . S
C1297 C1281 1.377 . S
C1297 C1295 1.389 . S
C1297 C1298 1.524 . S
C1298 C1297 1.524 . S
C1298 C1299 1.397 . S
C1298 C1303 1.363 . S
C1299 H1270 0.950 . S
C1299 C1298 1.397 . S
C1299 C1300 1.334 . S
C1300 H1271 0.950 . S
C1300 C1299 1.334 . S
C1300 C1301 1.287 . S
C1301 C1300 1.287 . S
C1301 C1302 1.524 . S
C1301 H1304 0.999 . S
C1302 H1272 0.950 . S
C1302 C1301 1.524 . S
C1302 C1303 1.415 . S
C1303 H1273 0.950 . S
C1303 C1298 1.363 . S
C1303 C1302 1.415 . S
H1304 C1301 0.999 . S
H1305 C1286 0.913 . S
H1306 C1324 0.951 . S
H1307 C1326 0.951 . S
H1308 C1328 0.950 . S
H1309 C1329 0.950 . S
H1310 C1331 0.950 . S
H1311 C1334 0.950 . S
H1312 C1335 0.950 . S
H1313 C1337 0.950 . S
H1314 C1338 0.950 . S
H1315 C1339 0.951 . S
H1316 C1341 0.951 . S
H1317 C1343 0.950 . S
H1318 C1344 0.950 . S
H1319 C1346 0.950 . S
H1320 C1349 0.950 . S
H1321 C1350 0.950 . S
H1322 C1352 0.950 . S
H1323 C1353 0.950 . S
C1324 H1306 0.951 . S
C1324 C1325 1.366 . S
C1324 C1326 1.388 . S
C1325 C1324 1.366 . S
C1325 C1329 1.385 . S
C1326 H1307 0.951 . S
C1326 C1324 1.388 . S
C1326 C1327 1.366 . S
C1327 C1326 1.366 . S
C1327 C1328 1.414 . S
C1327 C1330 1.499 . S
C1328 H1308 0.950 . S
C1328 C1327 1.414 . S
C1328 C1329 1.374 . S
C1329 H1309 0.950 . S
C1329 C1325 1.385 . S
C1329 C1328 1.374 . S
C1330 C1327 1.499 . S
C1330 C1331 1.373 . S
C1330 C1332 1.389 . S
C1331 H1310 0.950 . S
C1331 C1330 1.373 . S
C1331 C1347 1.377 . S
C1332 C1330 1.389 . S
C1332 C1333 1.524 . S
C1332 C1346 1.377 . S
C1333 C1332 1.524 . S
C1333 C1334 1.397 . S
C1333 C1338 1.363 . S
C1334 H1311 0.950 . S
C1334 C1333 1.397 . S
C1334 C1335 1.334 . S
C1335 H1312 0.950 . S
C1335 C1334 1.334 . S
C1335 C1336 1.287 . S
C1336 C1335 1.287 . S
C1336 C1337 1.524 . S
C1336 H1355 0.913 . S
C1337 H1313 0.950 . S
C1337 C1336 1.524 . S
C1337 C1338 1.415 . S
C1338 H1314 0.950 . S
C1338 C1333 1.363 . S
C1338 C1337 1.415 . S
C1339 H1315 0.951 . S
C1339 C1340 1.366 . S
C1339 C1341 1.388 . S
C1340 C1339 1.366 . S
C1340 C1344 1.385 . S
C1341 H1316 0.951 . S
C1341 C1339 1.388 . S
C1341 C1342 1.366 . S
C1342 C1341 1.366 . S
C1342 C1343 1.414 . S
C1342 C1345 1.499 . S
C1343 H1317 0.950 . S
C1343 C1342 1.414 . S
C1343 C1344 1.374 . S
C1344 H1318 0.950 . S
C1344 C1340 1.385 . S
C1344 C1343 1.374 . S
C1345 C1342 1.499 . S
C1345 C1346 1.373 . S
C1345 C1347 1.389 . S
C1346 H1319 0.950 . S
C1346 C1332 1.377 . S
C1346 C1345 1.373 . S
C1347 C1331 1.377 . S
C1347 C1345 1.389 . S
C1347 C1348 1.524 . S
C1348 C1347 1.524 . S
C1348 C1349 1.397 . S
C1348 C1353 1.363 . S
C1349 H1320 0.950 . S
C1349 C1348 1.397 . S
C1349 C1350 1.334 . S
C1350 H1321 0.950 . S
C1350 C1349 1.334 . S
C1350 C1351 1.287 . S
C1351 C1350 1.287 . S
C1351 C1352 1.524 . S
C1351 H1354 0.999 . S
C1352 H1322 0.950 . S
C1352 C1351 1.524 . S
C1352 C1353 1.415 . S
C1353 H1323 0.950 . S
C1353 C1348 1.363 . S
C1353 C1352 1.415 . S
H1354 C1351 0.999 . S
H1355 C1336 0.913 . S
C175 C58 1.334 . S
C190 C88 1.259 . S
C240 C96 1.263 . S
C225 C68 1.340 . S
C290 C100 1.247 . S
C275 C40 1.329 . S
C325 C50 1.335 . S
C340 C76 1.252 . S
C390 C117 1.262 . S
C375 C23 1.337 . S
C440 C151 1.262 . S
C425 C32 1.338 . S
C475 C5 1.332 . S
C490 C139 1.250 . S
C525 C14 1.333 . S
C540 C121 1.251 . S
C590 C75 1.247 . S
C575 C13 1.407 . S
C640 C109 1.246 . S
C625 C4 1.407 . S
C690 C113 1.250 . S
C675 C31 1.413 . S
C740 C91 1.251 . S
C725 C22 1.414 . S
C790 C130 1.249 . S
C775 C49 1.410 . S
C825 C41 1.409 . S
C840 C138 1.250 . S
C890 C154 1.253 . S
C875 C67 1.416 . S
C925 C59 1.416 . S
C940 C134 1.253 . S
C990 C79 1.309 . S
C975 C7 1.494 . S
C1040 C97 1.308 . S
C1025 C16 1.492 . S
C1075 C25 1.483 . S
C1090 C112 1.308 . S
C1140 C92 1.305 . S
C1125 C34 1.481 . S
C1190 C118 1.310 . S
C1175 C43 1.494 . S
C1225 C52 1.496 . S
C1240 C142 1.311 . S
C1275 C61 1.483 . S
C1290 C155 1.308 . S
C1325 C70 1.486 . S
C1340 C133 1.310 . S
