# Generated by pormake.
# Topology anh, (6,3)-cn, num edge types: 1
# Building blocks:
#     Node 0, Type 0, BuildingBlock: PAMTUU_clean_sbu_0, # of connection points: 6
#     Node 1, Type 0, BuildingBlock: PAMTUU_clean_sbu_0, # of connection points: 6
#     Node 2, Type 0, BuildingBlock: PAMTUU_clean_sbu_0, # of connection points: 6
#     Node 3, Type 1, BuildingBlock: MIDCAF_clean_linker_0, # of connection points: 3
#     Node 4, Type 1, BuildingBlock: MIDCAF_clean_linker_0, # of connection points: 3
#     Node 5, Type 1, BuildingBlock: MIDCAF_clean_linker_0, # of connection points: 3
#     Node 6, Type 1, BuildingBlock: MIDCAF_clean_linker_0, # of connection points: 3
#     Node 7, Type 1, BuildingBlock: MIDCAF_clean_linker_0, # of connection points: 3
#     Node 8, Type 1, BuildingBlock: MIDCAF_clean_linker_0, # of connection points: 3
#     Edge 9, Type (0, 1), BuildingBlock: ZUJKAS_clean_linker_0, # of connection points: 2
#     Edge 10, Type (0, 1), BuildingBlock: ZUJKAS_clean_linker_0, # of connection points: 2
#     Edge 11, Type (0, 1), BuildingBlock: ZUJKAS_clean_linker_0, # of connection points: 2
#     Edge 12, Type (0, 1), BuildingBlock: ZUJKAS_clean_linker_0, # of connection points: 2
#     Edge 13, Type (0, 1), BuildingBlock: ZUJKAS_clean_linker_0, # of connection points: 2
#     Edge 14, Type (0, 1), BuildingBlock: ZUJKAS_clean_linker_0, # of connection points: 2
#     Edge 15, Type (0, 1), BuildingBlock: ZUJKAS_clean_linker_0, # of connection points: 2
#     Edge 16, Type (0, 1), BuildingBlock: ZUJKAS_clean_linker_0, # of connection points: 2
#     Edge 17, Type (0, 1), BuildingBlock: ZUJKAS_clean_linker_0, # of connection points: 2
#     Edge 18, Type (0, 1), BuildingBlock: ZUJKAS_clean_linker_0, # of connection points: 2
#     Edge 19, Type (0, 1), BuildingBlock: ZUJKAS_clean_linker_0, # of connection points: 2
#     Edge 20, Type (0, 1), BuildingBlock: ZUJKAS_clean_linker_0, # of connection points: 2
#     Edge 21, Type (0, 1), BuildingBlock: ZUJKAS_clean_linker_0, # of connection points: 2
#     Edge 22, Type (0, 1), BuildingBlock: ZUJKAS_clean_linker_0, # of connection points: 2
#     Edge 23, Type (0, 1), BuildingBlock: ZUJKAS_clean_linker_0, # of connection points: 2
#     Edge 24, Type (0, 1), BuildingBlock: ZUJKAS_clean_linker_0, # of connection points: 2
#     Edge 25, Type (0, 1), BuildingBlock: ZUJKAS_clean_linker_0, # of connection points: 2
#     Edge 26, Type (0, 1), BuildingBlock: ZUJKAS_clean_linker_0, # of connection points: 2
# Relax obj value: 0.201
# Max RMSD: 0.183
# Mean RMSD: 0.150
data_MOF--net-anh--node1-PAMTUU_clean_sbu_0--node2-MIDCAF_clean_linker_0--edge1-ZUJKAS_clean_linker_0
_symmetry_space_group_name_H-M    P1
_symmetry_Int_Tables_number       1
_symmetry_cell_setting            triclinic
loop_
_symmetry_equiv_pos_as_xyz
'x, y, z'
_cell_length_a     45.7055
_cell_length_b     45.832962
_cell_length_c     81.899213
_cell_angle_alpha  93.262501
_cell_angle_beta   90.632228
_cell_angle_gamma 120.15565
loop_
_atom_site_label
_atom_site_type_symbol
_atom_site_fract_x
_atom_site_fract_y
_atom_site_fract_z
_atom_type_partial_charge
Tb0 Tb 0.07636 0.59649 0.1631 0.0
Tb1 Tb 0.11694 0.55542 0.16302 0.0
C2 C 0.09658 0.57439 0.13054 0.0
C3 C 1.00523 0.60766 0.17016 0.0
C4 C 0.93715 0.5628 0.17681 0.0
C5 C 0.94529 0.58281 0.1633 0.0
C6 C 0.97903 0.60509 0.16004 0.0
C7 C 0.99716 0.58968 0.18436 0.0
C8 C 0.96344 0.56762 0.1877 0.0
C9 C 1.03966 0.62271 0.16407 0.0
O10 O 1.03544 0.54274 0.16037 0.0
O11 O 0.06446 0.51607 0.1673 0.0
O12 O 0.12246 0.577 0.18789 0.0
O13 O 0.07339 0.57853 0.18725 0.0
O14 O 0.15154 0.54422 0.15183 0.0
O15 O 0.12541 0.51908 0.1731 0.0
O16 O 0.15798 0.60886 0.16287 0.0
O17 O 0.12929 0.63758 0.16814 0.0
O18 O 0.09642 0.59955 0.13889 0.0
O19 O 0.09621 0.5498 0.13816 0.0
C20 C 1.03559 0.51529 0.16442 0.0
O21 O 0.06411 0.63062 0.17494 0.0
O22 O 1.042 0.60648 0.151 0.0
C23 C 0.09812 0.57853 0.19544 0.0
C24 C 0.18077 0.52948 0.17053 0.0
C25 C 0.24192 0.53844 0.18391 0.0
C26 C 0.21387 0.50578 0.18052 0.0
C27 C 0.18359 0.50138 0.17387 0.0
C28 C 0.20822 0.56221 0.17442 0.0
C29 C 0.23869 0.56666 0.18098 0.0
C30 C 0.149 0.52395 0.163 0.0
C31 C 0.15797 0.63746 0.16632 0.0
H32 H 0.9258 0.57953 0.15452 0.0
H33 H 0.98468 0.61834 0.14893 0.0
H34 H 1.01685 0.59091 0.19234 0.0
H35 H 0.95806 0.55309 0.19836 0.0
H36 H 0.21573 0.48354 0.18236 0.0
H37 H 0.16254 0.47597 0.17103 0.0
H38 H 0.20628 0.58423 0.17212 0.0
H39 H 0.25987 0.59209 0.18353 0.0
Tb40 Tb 0.55775 0.0463 0.49477 0.0
Tb41 Tb 0.63929 0.08806 0.49955 0.0
C42 C 0.60309 0.06854 0.4646 0.0
C43 C 0.47017 0.98062 0.50005 0.0
C44 C 0.42538 0.92151 0.51517 0.0
C45 C 0.45705 0.92691 0.51033 0.0
C46 C 0.47932 0.95629 0.50293 0.0
C47 C 0.4389 0.97566 0.50504 0.0
C48 C 0.41669 0.94639 0.51258 0.0
C49 C 0.49411 1.0123 0.49301 0.0
O50 O 0.57134 1.006 0.49301 0.0
O51 O 0.62698 1.03557 0.50264 0.0
O52 O 0.61868 0.09124 0.52301 0.0
O53 O 0.57056 0.04024 0.51929 0.0
O54 O 0.68663 0.12038 0.49029 0.0
O55 O 0.68287 0.10214 0.51433 0.0
O56 O 0.62697 0.12848 0.49708 0.0
O57 O 0.56968 0.09913 0.50062 0.0
O58 O 0.57616 0.06628 0.47127 0.0
O59 O 0.62757 0.06971 0.47371 0.0
C60 C 0.59915 1.00655 0.49831 0.0
O61 O 0.5115 0.03771 0.50374 0.0
O62 O 0.51308 1.0102 0.48172 0.0
C63 C 0.59312 0.06518 0.52904 0.0
C64 C 0.72258 0.15902 0.51105 0.0
C65 C 0.75792 0.22935 0.5185 0.0
C66 C 0.77483 0.21292 0.51213 0.0
C67 C 0.75719 0.17798 0.50833 0.0
C68 C 0.70616 0.17492 0.51844 0.0
C69 C 0.72367 0.20982 0.52213 0.0
C70 C 0.70252 0.12395 0.50423 0.0
C71 C 0.59828 0.12811 0.49957 0.0
H72 H 0.46438 0.90812 0.51191 0.0
H73 H 0.50366 0.95995 0.49944 0.0
H74 H 0.43177 0.99454 0.50322 0.0
H75 H 0.39272 0.94326 0.51638 0.0
H76 H 0.80137 0.22727 0.50945 0.0
H77 H 0.77017 0.16605 0.50261 0.0
H78 H 0.67934 0.1606 0.52056 0.0
H79 H 0.7098 0.22166 0.52685 0.0
Tb80 Tb 0.59318 0.54129 0.82679 0.0
Tb81 Tb 0.63321 0.6225 0.83281 0.0
C82 C 0.61497 0.58676 0.79761 0.0
C83 C 0.57364 0.45387 0.82865 0.0
C84 C 0.59304 0.40866 0.83944 0.0
C85 C 0.57305 0.4008 0.82489 0.0
C86 C 0.56336 0.42323 0.81956 0.0
C87 C 0.59373 0.4619 0.84314 0.0
C88 C 0.60312 0.43931 0.84858 0.0
C89 C 0.56454 0.47793 0.82263 0.0
O90 O 0.64738 0.55574 0.82623 0.0
O91 O 0.67452 0.61148 0.83641 0.0
O92 O 0.61217 0.60164 0.85597 0.0
O93 O 0.61333 0.55285 0.85172 0.0
O94 O 0.6472 0.6691 0.82336 0.0
O95 O 0.66123 0.66682 0.8483 0.0
O96 O 0.57984 0.60889 0.82891 0.0
O97 O 0.55273 0.5525 0.83336 0.0
O98 O 0.58955 0.56092 0.80384 0.0
O99 O 0.63942 0.6106 0.80728 0.0
C100 C 0.67524 0.58365 0.83195 0.0
O101 O 0.55639 0.49374 0.83379 0.0
O102 O 0.58505 0.49836 0.81227 0.0
C103 C 0.61228 0.57555 0.86166 0.0
C104 C 0.63801 0.70149 0.84321 0.0
C105 C 0.58785 0.7197 0.84573 0.0
C106 C 0.61589 0.73757 0.83609 0.0
C107 C 0.64082 0.72854 0.83485 0.0
C108 C 0.61139 0.68539 0.85387 0.0
C109 C 0.58661 0.69459 0.8552 0.0
C110 C 0.65715 0.68504 0.83781 0.0
C111 C 0.55196 0.58069 0.83188 0.0
H112 H 0.56465 0.37712 0.81772 0.0
H113 H 0.54803 0.41677 0.80831 0.0
H114 H 0.60234 0.48573 0.8502 0.0
H115 H 0.61872 0.44603 0.85975 0.0
H116 H 0.61758 0.75735 0.82882 0.0
H117 H 0.66084 0.74097 0.82641 0.0
H118 H 0.60822 0.66397 0.86023 0.0
H119 H 0.56516 0.68029 0.86263 0.0
C120 C 0.51034 0.96005 0.20223 0.0
C121 C 0.48557 0.95974 0.19167 0.0
C122 C 0.49364 0.99111 0.18545 0.0
C123 C 0.52471 1.02143 0.18996 0.0
H124 H 0.66703 0.11434 0.18292 0.0
H125 H 0.71759 0.16557 0.17449 0.0
H126 H 0.70321 0.22557 0.21251 0.0
H127 H 0.65359 0.17492 0.22092 0.0
H128 H 0.65821 0.1267 0.25645 0.0
H129 H 0.66136 0.12596 0.28616 0.0
H130 H 0.56029 0.03894 0.2843 0.0
H131 H 0.55771 0.03893 0.25468 0.0
H132 H 0.5582 0.989 0.2156 0.0
H133 H 0.5056 0.93711 0.2076 0.0
H134 H 0.47573 0.9924 0.17719 0.0
H135 H 0.52912 0.04499 0.18544 0.0
N136 N 0.60201 0.08088 0.20122 0.0
N137 N 0.62917 0.10897 0.22675 0.0
N138 N 0.5808 0.05522 0.2259 0.0
C139 C 0.62795 0.10885 0.21009 0.0
C140 C 0.60591 0.08243 0.23475 0.0
C141 C 0.57808 0.05376 0.20929 0.0
C142 C 0.6555 0.14008 0.20254 0.0
C143 C 0.67422 0.13856 0.18925 0.0
C144 C 0.70367 0.1681 0.18454 0.0
C145 C 0.71514 0.20038 0.19274 0.0
C146 C 0.69557 0.20176 0.20565 0.0
C147 C 0.66679 0.17237 0.21051 0.0
C148 C 0.60777 0.0828 0.25303 0.0
C149 C 0.63664 0.10739 0.26237 0.0
C150 C 0.63836 0.10706 0.2795 0.0
C151 C 0.61114 0.0823 0.28783 0.0
C152 C 0.58214 0.05801 0.27845 0.0
C153 C 0.58055 0.05815 0.26135 0.0
C154 C 0.54873 1.02158 0.20101 0.0
C155 C 0.54091 0.99016 0.20686 0.0
C156 C 0.63114 0.48115 0.53568 0.0
C157 C 0.60626 0.45617 0.52449 0.0
C158 C 0.58262 0.46404 0.51756 0.0
C159 C 0.58352 0.49509 0.52194 0.0
H160 H 0.57435 0.60677 0.51326 0.0
H161 H 0.57283 0.65694 0.50478 0.0
H162 H 0.63819 0.71592 0.54667 0.0
H163 H 0.64007 0.66697 0.55474 0.0
H164 H 0.62061 0.6319 0.58828 0.0
H165 H 0.62385 0.63552 0.61806 0.0
H166 H 0.59937 0.53127 0.61712 0.0
H167 H 0.59742 0.52809 0.58733 0.0
H168 H 0.65065 0.52913 0.54933 0.0
H169 H 0.6496 0.47665 0.54165 0.0
H170 H 0.56306 0.44601 0.50881 0.0
H171 H 0.56413 0.49931 0.51683 0.0
N172 N 0.60493 0.57427 0.53336 0.0
N173 N 0.60706 0.60248 0.5588 0.0
N174 N 0.60686 0.55139 0.55826 0.0
C175 C 0.60585 0.60158 0.54214 0.0
C176 C 0.60728 0.57767 0.56697 0.0
C177 C 0.6057 0.54896 0.54159 0.0
C178 C 0.60752 0.63224 0.53471 0.0
C179 C 0.58895 0.63063 0.52044 0.0
C180 C 0.58776 0.65957 0.5157 0.0
C181 C 0.60544 0.69136 0.52492 0.0
C182 C 0.62454 0.69275 0.5389 0.0
C183 C 0.62547 0.66411 0.54364 0.0
C184 C 0.60878 0.5797 0.58527 0.0
C185 C 0.61591 0.6097 0.5944 0.0
C186 C 0.61756 0.61171 0.61157 0.0
C187 C 0.61184 0.5837 0.6202 0.0
C188 C 0.60455 0.55364 0.61104 0.0
C189 C 0.6032 0.55173 0.59386 0.0
C190 C 0.60794 0.51937 0.53354 0.0
C191 C 0.63178 0.51169 0.54014 0.0
C192 C 1.02101 0.60913 0.8714 0.0
C193 C 0.99954 0.58802 0.85808 0.0
C194 C 1.0102 0.56757 0.84932 0.0
C195 C 1.0405 0.5678 0.85397 0.0
H196 H 0.17967 0.61192 0.84965 0.0
H197 H 0.23182 0.61264 0.84134 0.0
H198 H 0.21733 0.54228 0.87752 0.0
H199 H 0.16601 0.54134 0.88547 0.0
H200 H 0.15292 0.56862 0.9217 0.0
H201 H 0.15121 0.56726 0.95143 0.0
H202 H 0.06827 0.58699 0.9508 0.0
H203 H 0.07019 0.58884 0.92117 0.0
H204 H 0.06541 0.62499 0.88681 0.0
H205 H 1.01421 0.62495 0.8788 0.0
H206 H 0.99494 0.55102 0.8389 0.0
H207 H 1.04686 0.55079 0.84732 0.0
N208 N 0.11445 0.58219 0.86723 0.0
N209 N 0.13718 0.57766 0.89242 0.0
N210 N 0.08924 0.58341 0.89211 0.0
C211 C 0.13886 0.5789 0.87584 0.0
C212 C 0.11276 0.57998 0.90067 0.0
C213 C 0.08922 0.58435 0.87554 0.0
C214 C 0.16787 0.5763 0.86821 0.0
C215 C 0.18721 0.59601 0.85555 0.0
C216 C 0.21761 0.59676 0.85094 0.0
C217 C 0.22959 0.57749 0.85865 0.0
C218 C 0.20947 0.5572 0.87094 0.0
C219 C 0.17964 0.55674 0.87561 0.0
C220 C 0.11174 0.5789 0.91889 0.0
C221 C 0.13431 0.57272 0.92786 0.0
C222 C 0.1332 0.57172 0.94496 0.0
C223 C 0.10962 0.57704 0.95361 0.0
C224 C 0.08708 0.58322 0.94464 0.0
C225 C 0.08807 0.58406 0.92756 0.0
C226 C 0.06114 0.58827 0.86766 0.0
C227 C 1.0508 0.60913 0.87607 0.0
C228 C 0.16427 0.62347 0.46598 0.0
C229 C 0.16382 0.63548 0.48211 0.0
C230 C 0.13439 0.63508 0.48726 0.0
C231 C 0.10649 0.62396 0.47639 0.0
H232 H 1.00593 0.61451 0.46928 0.0
H233 H 0.95408 0.58961 0.48428 0.0
H234 H 0.90975 0.50318 0.44872 0.0
H235 H 0.96041 0.52954 0.43329 0.0
H236 H 1.00511 0.55036 0.39748 0.0
H237 H 1.01233 0.54601 0.36805 0.0
H238 H 0.12007 0.61349 0.37584 0.0
H239 H 0.11313 0.61774 0.40519 0.0
H240 H 0.13789 0.60402 0.44266 0.0
H241 H 0.18636 0.62299 0.46169 0.0
H242 H 0.13333 0.6447 0.49949 0.0
H243 H 0.08453 0.62469 0.48069 0.0
N244 N 1.04788 0.59568 0.45405 0.0
N245 N 1.02378 0.58005 0.42729 0.0
N246 N 0.0815 0.59887 0.43212 0.0
C247 C 1.02056 0.58443 0.44359 0.0
C248 C 1.05443 0.58781 0.42145 0.0
C249 C 0.07835 0.60263 0.44844 0.0
C250 C 0.9872 0.57359 0.45032 0.0
C251 C 0.98451 0.59069 0.46447 0.0
C252 C 0.95486 0.57621 0.47312 0.0
C253 C 0.9278 0.54374 0.46812 0.0
C254 C 0.92963 0.52825 0.45307 0.0
C255 C 0.95891 0.54324 0.44417 0.0
C256 C 0.05853 0.58445 0.40367 0.0
C257 C 1.03034 0.56421 0.39292 0.0
C258 C 1.03446 0.56154 0.37611 0.0
C259 C 0.06674 0.57948 0.36973 0.0
C260 C 0.09489 0.59959 0.38046 0.0
C261 C 0.09088 0.60186 0.39726 0.0
C262 C 0.10749 0.61326 0.46008 0.0
C263 C 0.13649 0.61266 0.45506 0.0
C264 C 0.57374 0.12417 0.79699 0.0
C265 C 0.57737 0.11962 0.8136 0.0
C266 C 0.5642 0.08656 0.81847 0.0
C267 C 0.54712 0.05874 0.80708 0.0
H268 H 0.47259 0.95999 0.80451 0.0
H269 H 0.44846 0.90509 0.81535 0.0
H270 H 0.43046 0.85791 0.76623 0.0
H271 H 0.45596 0.91352 0.75527 0.0
H272 H 0.492 0.96248 0.72568 0.0
H273 H 0.50404 0.97131 0.69687 0.0
H274 H 0.55218 0.07938 0.7077 0.0
H275 H 0.54098 0.07073 0.73645 0.0
H276 H 0.5543 0.10095 0.77299 0.0
H277 H 0.58277 0.14916 0.79281 0.0
H278 H 0.56685 0.08212 0.8311 0.0
H279 H 0.53703 1.03359 0.81126 0.0
N280 N 0.50428 1.00274 0.78372 0.0
N281 N 0.49077 0.97964 0.75653 0.0
N282 N 0.52729 0.03798 0.76225 0.0
C283 C 0.48724 0.97543 0.77286 0.0
C284 C 0.51069 1.01099 0.75115 0.0
C285 C 0.52431 1.03403 0.77854 0.0
C286 C 0.46707 0.94134 0.77901 0.0
C287 C 0.46313 0.93799 0.79593 0.0
C288 C 0.44875 0.90627 0.80218 0.0
C289 C 0.43774 0.87697 0.79169 0.0
C290 C 0.43922 0.88004 0.77467 0.0
C291 C 0.45378 0.91192 0.76838 0.0
C292 C 0.51572 1.01587 0.73344 0.0
C293 C 0.50497 0.98812 0.7219 0.0
C294 C 0.51178 0.99318 0.70536 0.0
C295 C 0.52933 1.02608 0.69998 0.0
C296 C 0.53926 0.05374 0.71146 0.0
C297 C 0.53262 0.04871 0.72797 0.0
C298 C 0.54313 0.0634 0.79054 0.0
C299 C 0.55705 0.09644 0.7856 0.0
C300 C 0.62412 0.37907 0.09678 0.0
C301 C 0.62507 0.37514 0.11366 0.0
C302 C 0.60115 0.37754 0.1234 0.0
C303 C 0.57893 0.38666 0.11675 0.0
H304 H 0.53489 0.43846 0.13334 0.0
H305 H 0.51037 0.46031 0.15329 0.0
H306 H 0.46249 0.48273 0.11398 0.0
H307 H 0.48801 0.46202 0.09401 0.0
H308 H 0.51169 0.45777 0.05695 0.0
H309 H 0.52178 0.48127 0.03022 0.0
H310 H 0.60755 0.46657 0.02541 0.0
H311 H 0.5975 0.44287 0.05212 0.0
H312 H 0.60325 0.39312 0.07726 0.0
H313 H 0.64178 0.37673 0.08887 0.0
H314 H 0.60121 0.37495 0.13646 0.0
H315 H 0.56216 0.39002 0.12488 0.0
N316 N 0.54451 0.41916 0.10478 0.0
N317 N 0.53203 0.44521 0.08423 0.0
N318 N 0.56418 0.41921 0.07848 0.0
C319 C 0.52966 0.43665 0.09995 0.0
C320 C 0.54923 0.43658 0.07341 0.0
C321 C 0.56156 0.41006 0.09414 0.0
C322 C 0.5134 0.44847 0.11205 0.0
C323 C 0.51905 0.44797 0.12893 0.0
C324 C 0.50494 0.46046 0.1404 0.0
C325 C 0.4846 0.47347 0.13527 0.0
C326 C 0.47866 0.47362 0.11838 0.0
C327 C 0.49304 0.46144 0.10691 0.0
C328 C 0.55383 0.44849 0.05669 0.0
C329 C 0.53259 0.45932 0.05016 0.0
C330 C 0.53825 0.47267 0.03484 0.0
C331 C 0.56555 0.4759 0.02583 0.0
C332 C 0.58652 0.46466 0.03221 0.0
C333 C 0.58058 0.45085 0.04743 0.0
C334 C 0.58022 0.39383 0.10021 0.0
C335 C 0.60197 0.38842 0.09012 0.0
H336 H 0.25557 0.50483 0.20664 0.0
H337 H 0.30702 0.50118 0.20918 0.0
H338 H 0.35404 0.57636 0.17401 0.0
H339 H 0.303 0.5802 0.17149 0.0
H340 H 0.32323 0.47765 0.18228 0.0
H341 H 0.43473 0.59954 0.20393 0.0
H342 H 0.3919 0.58981 0.20753 0.0
H343 H 0.41061 0.60533 0.18836 0.0
C344 C 0.27731 0.52132 0.19985 0.0
C345 C 0.27516 0.54247 0.1887 0.0
C346 C 0.30673 0.51938 0.2014 0.0
C347 C 0.33445 0.53861 0.19186 0.0
C348 C 0.33334 0.56187 0.1818 0.0
H349 H 0.47609 0.52828 0.13375 0.0
H350 H 0.44339 0.54421 0.1517 0.0
C351 C 0.304 0.56392 0.1803 0.0
C352 C 0.36084 0.52928 0.18952 0.0
H353 H 0.4457 0.56326 0.18496 0.0
C354 C 0.35011 0.49608 0.18334 0.0
C355 C 0.39582 0.55341 0.19083 0.0
C356 C 0.40891 0.58892 0.19819 0.0
C357 C 0.37308 0.48707 0.17709 0.0
C358 C 0.40791 0.51179 0.17744 0.0
C359 C 0.41897 0.5444 0.18467 0.0
C360 C 0.43219 0.50535 0.16841 0.0
C361 C 0.35943 0.45191 0.169 0.0
C362 C 0.43764 0.47894 0.17217 0.0
C363 C 0.4556 0.46918 0.16168 0.0
C364 C 0.46884 0.48606 0.1474 0.0
C365 C 0.46541 0.51412 0.14438 0.0
C366 C 0.44715 0.52359 0.15476 0.0
H367 H 0.33141 0.43814 0.16711 0.0
H368 H 0.37064 0.45299 0.15693 0.0
H369 H 0.3662 0.43705 0.17685 0.0
H370 H 0.42677 0.46493 0.18282 0.0
H371 H 0.45773 0.44746 0.1644 0.0
H372 H 0.75406 0.27175 0.54252 0.0
H373 H 0.77814 0.33325 0.5423 0.0
H374 H 0.82248 0.33227 0.4962 0.0
H375 H 0.7985 0.27143 0.49621 0.0
H376 H 0.8669 0.38268 0.52064 0.0
H377 H 0.74529 0.38127 0.51081 0.0
H378 H 0.74974 0.35964 0.52752 0.0
H379 H 0.74827 0.34371 0.50685 0.0
C380 C 0.76902 0.28475 0.53237 0.0
C381 C 0.77461 0.26677 0.51944 0.0
C382 C 0.78261 0.31976 0.53225 0.0
C383 C 0.80179 0.33709 0.51917 0.0
C384 C 0.80779 0.31928 0.50643 0.0
H385 H 0.86149 0.49317 0.46099 0.0
H386 H 0.82752 0.44796 0.47851 0.0
C387 C 0.79433 0.28452 0.50654 0.0
C388 C 0.81621 0.37388 0.51836 0.0
H389 H 0.79557 0.43202 0.507 0.0
C390 C 0.85148 0.39388 0.51806 0.0
C391 C 0.79574 0.38802 0.51495 0.0
C392 C 0.75762 0.3672 0.51496 0.0
C393 C 0.86691 0.42684 0.51303 0.0
C394 C 0.84639 0.44066 0.5088 0.0
C395 C 0.81119 0.42146 0.51034 0.0
C396 C 0.86059 0.47219 0.50014 0.0
C397 C 0.9047 0.44515 0.51086 0.0
C398 C 0.8888 0.50208 0.50681 0.0
C399 C 0.90927 0.52731 0.49662 0.0
C400 C 0.90111 0.52353 0.47968 0.0
C401 C 0.86958 0.49621 0.47375 0.0
C402 C 0.84974 0.4705 0.48384 0.0
H403 H 0.91544 0.42825 0.51179 0.0
H404 H 0.91078 0.45606 0.49875 0.0
H405 H 0.91759 0.46606 0.52054 0.0
H406 H 0.89689 0.50443 0.51954 0.0
H407 H 0.933 0.54797 0.50188 0.0
H408 H 0.552 0.72808 0.87045 0.0
H409 H 0.50375 0.73748 0.86753 0.0
H410 H 0.50886 0.73053 0.81498 0.0
H411 H 0.55643 0.72099 0.81782 0.0
H412 H 0.50813 0.79189 0.85298 0.0
H413 H 0.40722 0.6752 0.82056 0.0
H414 H 0.44175 0.67653 0.83221 0.0
H415 H 0.44684 0.68797 0.81129 0.0
C416 C 0.54242 0.72817 0.85831 0.0
C417 C 0.55822 0.72443 0.84436 0.0
C418 C 0.51483 0.73331 0.85666 0.0
C419 C 0.50228 0.73399 0.84104 0.0
C420 C 0.5175 0.72922 0.82714 0.0
H421 H 0.45627 0.83181 0.78025 0.0
H422 H 0.45786 0.78846 0.79531 0.0
C423 C 0.54512 0.72445 0.82878 0.0
C424 C 0.47693 0.74467 0.83889 0.0
H425 H 0.41067 0.7283 0.81299 0.0
C426 C 0.48594 0.77757 0.84478 0.0
C427 C 0.44777 0.72574 0.82837 0.0
C428 C 0.43513 0.68924 0.82291 0.0
C429 C 0.46922 0.79359 0.83873 0.0
C430 C 0.4427 0.77599 0.82662 0.0
C431 C 0.43124 0.74182 0.82215 0.0
C432 C 0.43238 0.79477 0.81614 0.0
C433 C 0.48236 0.83032 0.84407 0.0
C434 C 0.41565 0.81121 0.82248 0.0
C435 C 0.41441 0.83601 0.81378 0.0
C436 C 0.4301 0.84479 0.7987 0.0
C437 C 0.44372 0.82569 0.79174 0.0
C438 C 0.44477 0.80088 0.80038 0.0
H439 H 0.50444 0.84075 0.85294 0.0
H440 H 0.49 0.84575 0.83327 0.0
H441 H 0.462 0.83303 0.84993 0.0
H442 H 0.40559 0.80649 0.83457 0.0
H443 H 0.40305 0.84973 0.81933 0.0
H444 H 0.91726 0.49916 0.1862 0.0
H445 H 0.86048 0.44952 0.18329 0.0
H446 H 0.82123 0.51143 0.16673 0.0
H447 H 0.87746 0.56143 0.17045 0.0
H448 H 0.77648 0.46067 0.18552 0.0
H449 H 0.82638 0.40914 0.13695 0.0
H450 H 0.84534 0.41851 0.1573 0.0
H451 H 0.85082 0.45238 0.14537 0.0
C452 C 0.8964 0.50247 0.18243 0.0
C453 C 0.90207 0.53424 0.17821 0.0
C454 C 0.86399 0.47391 0.1806 0.0
C455 C 0.83686 0.47663 0.17434 0.0
C456 C 0.84192 0.50871 0.17143 0.0
H457 H 0.69128 0.41113 0.10612 0.0
H458 H 0.74012 0.42232 0.12304 0.0
C459 C 0.87416 0.53725 0.1734 0.0
C460 C 0.80405 0.44636 0.16899 0.0
H461 H 0.76798 0.38662 0.13696 0.0
C462 C 0.77441 0.4437 0.17521 0.0
C463 C 0.8016 0.42419 0.15559 0.0
C464 C 0.83262 0.42606 0.14828 0.0
C465 C 0.74266 0.42201 0.16734 0.0
C466 C 0.74061 0.40204 0.15305 0.0
C467 C 0.76976 0.402 0.14791 0.0
C468 C 0.71106 0.38811 0.14133 0.0
C469 C 0.71218 0.42322 0.1734 0.0
C470 C 0.6785 0.36363 0.1455 0.0
C471 C 0.65021 0.35698 0.13572 0.0
C472 C 0.65419 0.3747 0.12163 0.0
C473 C 0.6871 0.39673 0.11675 0.0
C474 C 0.71519 0.40332 0.12649 0.0
H475 H 0.71883 0.44229 0.18388 0.0
H476 H 0.70002 0.42935 0.16339 0.0
H477 H 0.69332 0.39809 0.17743 0.0
H478 H 0.67486 0.35111 0.15675 0.0
H479 H 0.62519 0.33936 0.13964 0.0
H480 H 0.35732 0.88474 0.50841 0.0
H481 H 0.31769 0.82856 0.51638 0.0
H482 H 0.39741 0.82719 0.54441 0.0
H483 H 0.4376 0.88431 0.53664 0.0
H484 H 0.36549 0.77301 0.52288 0.0
H485 H 0.26809 0.78455 0.55626 0.0
H486 H 0.27705 0.80869 0.53867 0.0
H487 H 0.31001 0.82043 0.5543 0.0
C488 C 0.36634 0.87316 0.51674 0.0
C489 C 0.40068 0.88908 0.52186 0.0
C490 C 0.34353 0.84095 0.52137 0.0
C491 C 0.35441 0.8239 0.53128 0.0
C492 C 0.38843 0.84008 0.53691 0.0
H493 H 0.16974 0.63228 0.5154 0.0
H494 H 0.21971 0.66868 0.53348 0.0
C495 C 0.41137 0.87254 0.53233 0.0
C496 C 0.33108 0.78755 0.53325 0.0
H497 H 0.2464 0.73462 0.53587 0.0
C498 C 0.3397 0.7643 0.52634 0.0
C499 C 0.29777 0.77574 0.53835 0.0
C500 C 0.28791 0.79876 0.5475 0.0
C501 C 0.31462 0.73074 0.52197 0.0
C502 C 0.28031 0.72078 0.52425 0.0
C503 C 0.27259 0.74244 0.53363 0.0
C504 C 0.25264 0.69293 0.51378 0.0
C505 C 0.32481 0.70717 0.5137 0.0
C506 C 0.25473 0.69399 0.49671 0.0
C507 C 0.22632 0.67365 0.48642 0.0
C508 C 0.19501 0.65187 0.49295 0.0
C509 C 0.19341 0.64918 0.51 0.0
C510 C 0.22198 0.6697 0.52035 0.0
H511 H 0.34901 0.71151 0.51935 0.0
H512 H 0.30509 0.68022 0.51448 0.0
H513 H 0.3291 0.71247 0.50062 0.0
H514 H 0.27768 0.71248 0.49132 0.0
H515 H 0.22844 0.67694 0.47342 0.0
H516 H 0.61999 0.37721 0.82133 0.0
H517 H 0.62952 0.33198 0.82933 0.0
H518 H 0.59828 0.3406 0.878 0.0
H519 H 0.58851 0.38602 0.87002 0.0
H520 H 0.66822 0.32493 0.85866 0.0
H521 H 0.52729 0.24346 0.85557 0.0
H522 H 0.5475 0.2831 0.84604 0.0
H523 H 0.54747 0.28295 0.86793 0.0
C524 C 0.6156 0.36977 0.8338 0.0
C525 C 0.60303 0.38465 0.84499 0.0
C526 C 0.6214 0.34426 0.8384 0.0
C527 C 0.61453 0.33305 0.85422 0.0
C528 C 0.6038 0.3491 0.86575 0.0
H529 H 0.5576 0.1236 0.8448 0.0
H530 H 0.57437 0.17484 0.86228 0.0
C531 C 0.59822 0.37491 0.86117 0.0
C532 C 0.61385 0.30143 0.85747 0.0
H533 H 0.55893 0.21667 0.85287 0.0
C534 C 0.64439 0.30114 0.85792 0.0
C535 C 0.58275 0.27058 0.85683 0.0
C536 C 0.54926 0.26969 0.85655 0.0
C537 C 0.64452 0.27056 0.85627 0.0
C538 C 0.61337 0.23982 0.85349 0.0
C539 C 0.58291 0.24014 0.85485 0.0
C540 C 0.61128 0.20855 0.84596 0.0
C541 C 0.67807 0.27171 0.85681 0.0
C542 C 0.62772 0.21011 0.83136 0.0
C543 C 0.61876 0.18076 0.82153 0.0
C544 C 0.59245 0.14927 0.82581 0.0
C545 C 0.578 0.14736 0.84108 0.0
C546 C 0.58748 0.17673 0.8511 0.0
H547 H 0.69572 0.29146 0.8662 0.0
H548 H 0.67524 0.24702 0.85961 0.0
H549 H 0.68982 0.27873 0.84481 0.0
H550 H 0.64557 0.23421 0.82683 0.0
H551 H 0.63105 0.18306 0.81005 0.0
H552 H 0.54683 0.9398 0.49155 0.0
H553 H 0.54669 0.88693 0.49541 0.0
H554 H 0.65114 0.94431 0.51273 0.0
H555 H 0.65128 0.99699 0.50915 0.0
H556 H 0.58025 0.85663 0.48287 0.0
H557 H 0.61462 0.8827 0.54908 0.0
H558 H 0.60272 0.90817 0.53786 0.0
H559 H 0.64519 0.91528 0.53729 0.0
C560 C 0.56986 0.94135 0.49621 0.0
C561 C 0.59902 0.97339 0.50007 0.0
C562 C 0.56977 0.91076 0.49843 0.0
C563 C 0.59869 0.91077 0.50476 0.0
C564 C 0.62798 0.94277 0.50829 0.0
H565 H 0.6553 0.75946 0.52935 0.0
H566 H 0.65223 0.80978 0.52418 0.0
C567 C 0.62811 0.97329 0.50607 0.0
C568 C 0.59844 0.87773 0.50749 0.0
H569 H 0.61708 0.83635 0.53607 0.0
C570 C 0.58812 0.85228 0.49458 0.0
C571 C 0.60859 0.8711 0.52269 0.0
C572 C 0.61808 0.89557 0.53757 0.0
C573 C 0.58868 0.82172 0.49624 0.0
C574 C 0.59914 0.81524 0.51142 0.0
C575 C 0.60914 0.8406 0.52435 0.0
C576 C 0.60065 0.78308 0.51414 0.0
C577 C 0.57916 0.79722 0.48138 0.0
C578 C 0.5728 0.75008 0.5104 0.0
C579 C 0.57446 0.72067 0.51342 0.0
C580 C 0.60393 0.72283 0.52053 0.0
C581 C 0.63176 0.75592 0.52416 0.0
C582 C 0.6301 0.78519 0.52111 0.0
H583 H 0.58189 0.80987 0.46986 0.0
H584 H 0.59501 0.78516 0.48093 0.0
H585 H 0.55225 0.77709 0.48188 0.0
H586 H 0.54923 0.74687 0.50545 0.0
H587 H 0.55212 0.69615 0.51061 0.0
H588 H 0.73898 0.63597 0.84297 0.0
H589 H 0.79207 0.63544 0.84637 0.0
H590 H 0.74076 0.53017 0.82922 0.0
H591 H 0.68776 0.53071 0.82552 0.0
H592 H 0.81282 0.6035 0.86519 0.0
H593 H 0.82083 0.56201 0.80153 0.0
H594 H 0.79061 0.57473 0.80714 0.0
H595 H 0.78229 0.53282 0.81057 0.0
C596 C 0.73885 0.61266 0.83975 0.0
C597 C 0.70848 0.58348 0.83377 0.0
C598 C 0.76955 0.61236 0.84177 0.0
C599 C 0.77146 0.58296 0.8378 0.0
C600 C 0.74103 0.55367 0.83199 0.0
H601 H 0.93727 0.53407 0.84542 0.0
H602 H 0.88338 0.53258 0.8406 0.0
C603 C 0.71029 0.55395 0.82996 0.0
C604 C 0.80476 0.58287 0.84023 0.0
H605 H 0.86018 0.56316 0.82113 0.0
C606 C 0.82308 0.59481 0.85545 0.0
C607 C 0.81892 0.57144 0.82774 0.0
C608 C 0.80237 0.55983 0.81078 0.0
C609 C 0.85396 0.59515 0.85857 0.0
C610 C 0.86826 0.58397 0.84606 0.0
C611 C 0.84986 0.57181 0.83086 0.0
C612 C 0.90217 0.58511 0.84847 0.0
C613 C 0.87043 0.60667 0.87556 0.0
C614 C 0.9319 0.61521 0.85408 0.0
C615 C 0.96303 0.61619 0.8568 0.0
C616 C 0.96617 0.58712 0.85395 0.0
C617 C 0.93662 0.55721 0.84777 0.0
C618 C 0.90537 0.55626 0.84506 0.0
H619 H 0.85179 0.60397 0.88481 0.0
H620 H 0.8826 0.59209 0.87912 0.0
H621 H 0.89015 0.63383 0.87588 0.0
H622 H 0.93121 0.63836 0.85632 0.0
H623 H 0.98486 0.64013 0.86108 0.0
H624 H 0.16981 0.70315 0.1711 0.0
H625 H 0.22391 0.75661 0.17442 0.0
H626 H 0.27748 0.7017 0.17045 0.0
H627 H 0.22356 0.64837 0.16663 0.0
H628 H 0.27442 0.78505 0.19612 0.0
H629 H 0.33045 0.76971 0.13922 0.0
H630 H 0.2867 0.74153 0.14332 0.0
H631 H 0.31959 0.73558 0.15202 0.0
C632 C 0.19303 0.70228 0.17078 0.0
C633 C 0.19165 0.6708 0.16839 0.0
C634 C 0.22432 0.73321 0.17275 0.0
C635 C 0.25569 0.73416 0.17237 0.0
C636 C 0.25428 0.70262 0.17028 0.0
H637 H 0.47174 0.89318 0.18752 0.0
H638 H 0.41717 0.84075 0.18308 0.0
C639 C 0.22303 0.67171 0.16822 0.0
C640 C 0.28943 0.76774 0.17457 0.0
H641 H 0.36794 0.81439 0.15851 0.0
C642 C 0.29463 0.79136 0.18775 0.0
C643 C 0.31658 0.77695 0.16382 0.0
C644 C 0.31299 0.75479 0.14871 0.0
C645 C 0.32559 0.82263 0.19066 0.0
C646 C 0.35281 0.83161 0.18002 0.0
C647 C 0.34762 0.80809 0.16682 0.0
C648 C 0.38681 0.86473 0.1825 0.0
C649 C 0.32916 0.84535 0.20552 0.0
C650 C 0.38913 0.89674 0.1834 0.0
C651 C 0.42075 0.92722 0.18596 0.0
C652 C 0.45151 0.92709 0.18779 0.0
C653 C 0.44908 0.89499 0.18652 0.0
C654 C 0.41754 0.8646 0.18384 0.0
H655 H 0.31043 0.83129 0.21475 0.0
H656 H 0.35499 0.85732 0.21139 0.0
H657 H 0.32469 0.8657 0.20174 0.0
H658 H 0.36638 0.89829 0.18206 0.0
H659 H 0.42091 0.95096 0.18688 0.0
H660 H 0.65304 0.19395 0.50208 0.0
H661 H 0.6534 0.24756 0.50603 0.0
H662 H 0.54434 0.19298 0.50507 0.0
H663 H 0.54394 0.13934 0.50169 0.0
H664 H 0.63355 0.2815 0.48941 0.0
H665 H 0.55801 0.25241 0.5445 0.0
H666 H 0.5732 0.2254 0.53629 0.0
H667 H 0.53518 0.22225 0.52764 0.0
C668 C 0.629 0.19314 0.50279 0.0
C669 C 0.59844 0.16159 0.50163 0.0
C670 C 0.62923 0.2242 0.50505 0.0
C671 C 0.59894 0.22527 0.5063 0.0
C672 C 0.56837 0.19374 0.50479 0.0
H673 H 0.55024 0.39122 0.51772 0.0
H674 H 0.5486 0.33701 0.51291 0.0
C675 C 0.56813 0.16267 0.50265 0.0
C676 C 0.59944 0.25907 0.50877 0.0
H677 H 0.56768 0.3016 0.53169 0.0
C678 C 0.6192 0.28569 0.49877 0.0
C679 C 0.58095 0.26565 0.52092 0.0
C680 C 0.56094 0.24007 0.53306 0.0
C681 C 0.62042 0.31743 0.50027 0.0
C682 C 0.60176 0.32388 0.51234 0.0
C683 C 0.58196 0.29731 0.52233 0.0
C684 C 0.60286 0.35788 0.51497 0.0
C685 C 0.64121 0.34352 0.48849 0.0
C686 C 0.63373 0.38868 0.51791 0.0
C687 C 0.63475 0.42001 0.52063 0.0
C688 C 0.60492 0.42223 0.52064 0.0
C689 C 0.57398 0.39134 0.51764 0.0
C690 C 0.57298 0.35991 0.515 0.0
H691 H 0.64498 0.33167 0.4771 0.0
H692 H 0.62908 0.35825 0.48513 0.0
H693 H 0.66658 0.3613 0.49433 0.0
H694 H 0.65735 0.38859 0.51837 0.0
H695 H 0.65929 0.44267 0.5227 0.0
H696 H 0.48787 0.5281 0.83828 0.0
H697 H 0.43525 0.52932 0.84199 0.0
H698 H 0.48802 0.63579 0.83454 0.0
H699 H 0.54041 0.63456 0.83051 0.0
H700 H 0.41682 0.56264 0.86436 0.0
H701 H 0.40718 0.60632 0.80384 0.0
H702 H 0.43354 0.58826 0.80774 0.0
H703 H 0.4475 0.63128 0.81467 0.0
C704 C 0.48839 0.5518 0.83726 0.0
C705 C 0.51896 0.58112 0.83389 0.0
C706 C 0.45799 0.55251 0.83945 0.0
C707 C 0.45666 0.58247 0.83824 0.0
C708 C 0.4873 0.61189 0.83507 0.0
H709 H 0.29082 0.63132 0.84905 0.0
H710 H 0.34471 0.63315 0.84422 0.0
C711 C 0.5177 0.61121 0.83288 0.0
C712 C 0.42372 0.58298 0.84079 0.0
H713 H 0.3677 0.60283 0.82306 0.0
C714 C 0.40618 0.57134 0.85523 0.0
C715 C 0.40916 0.59445 0.8291 0.0
C716 C 0.425 0.60554 0.81289 0.0
C717 C 0.37556 0.57124 0.85838 0.0
C718 C 0.36068 0.58228 0.84661 0.0
C719 C 0.37843 0.59427 0.83222 0.0
C720 C 0.32676 0.58097 0.84895 0.0
C721 C 0.36002 0.56011 0.87465 0.0
C722 C 0.29747 0.55092 0.85276 0.0
C723 C 0.2664 0.54979 0.85552 0.0
C724 C 0.26283 0.57859 0.85446 0.0
C725 C 0.29186 0.6084 0.85 0.0
C726 C 0.32309 0.60953 0.84728 0.0
H727 H 0.37925 0.56332 0.88409 0.0
H728 H 0.34784 0.57459 0.87913 0.0
H729 H 0.3405 0.53286 0.87327 0.0
H730 H 0.29845 0.52794 0.85357 0.0
H731 H 0.24495 0.52592 0.85841 0.0
H732 H 0.96953 0.50383 0.16404 0.0
H733 H 0.91647 0.45131 0.16818 0.0
H734 H 0.97195 0.39892 0.17278 0.0
H735 H 1.0249 0.45128 0.16909 0.0
H736 H 0.87955 0.3919 0.15362 0.0
H737 H 0.92044 0.36677 0.21219 0.0
H738 H 0.94565 0.40585 0.2027 0.0
H739 H 0.9476 0.3686 0.1962 0.0
C740 C 0.97061 0.48121 0.16597 0.0
C741 C 1.00221 0.4825 0.1663 0.0
C742 C 0.93992 0.45087 0.16841 0.0
C743 C 0.93941 0.4205 0.17139 0.0
C744 C 0.9709 0.42165 0.17122 0.0
H745 H 0.77739 0.20827 0.18399 0.0
H746 H 0.83001 0.26028 0.17855 0.0
C747 C 1.00154 0.45194 0.16889 0.0
C748 C 0.90624 0.3879 0.17437 0.0
H749 H 0.86927 0.32165 0.19942 0.0
C750 C 0.87742 0.37697 0.16381 0.0
C751 C 0.90248 0.36742 0.18758 0.0
C752 C 0.93056 0.37792 0.20041 0.0
C753 C 0.84604 0.34689 0.16587 0.0
C754 C 0.84263 0.32614 0.17883 0.0
C755 C 0.87138 0.33689 0.18936 0.0
C756 C 0.80959 0.29367 0.1818 0.0
C757 C 0.81679 0.33726 0.1539 0.0
C758 C 0.77978 0.29415 0.18559 0.0
C759 C 0.74951 0.26425 0.18888 0.0
C760 C 0.74749 0.23234 0.18837 0.0
C761 C 0.77729 0.23186 0.18436 0.0
C762 C 0.80775 0.26192 0.18133 0.0
H763 H 0.8254 0.35038 0.14242 0.0
H764 H 0.80247 0.30953 0.15077 0.0
H765 H 0.79924 0.34461 0.15954 0.0
H766 H 0.77999 0.31792 0.1863 0.0
H767 H 0.72749 0.2662 0.19179 0.0
H768 H 0.10181 0.52895 0.10911 0.0
H769 H 0.10475 0.52935 0.07927 0.0
H770 H 0.09563 0.6186 0.08072 0.0
H771 H 0.09333 0.61879 0.11052 0.0
H772 H 0.05989 0.52445 0.05552 0.0
H773 H 0.17835 0.648 0.054 0.0
H774 H 0.16418 0.62642 0.07255 0.0
H775 H 0.14623 0.65063 0.06527 0.0
C776 C 0.10052 0.54875 0.10311 0.0
C777 C 0.09757 0.57399 0.11232 0.0
C778 C 0.10219 0.54893 0.086 0.0
C779 C 0.10109 0.57438 0.07768 0.0
C780 C 0.09746 0.59919 0.08682 0.0
H781 H 0.10034 0.61879 0.97573 0.0
H782 H 0.09771 0.61695 0.00551 0.0
C783 C 0.09591 0.59912 0.10391 0.0
C784 C 0.10312 0.57464 0.05945 0.0
H785 H 0.14735 0.6237 0.02859 0.0
C786 C 0.07917 0.54608 0.04965 0.0
C787 C 0.12828 0.60281 0.0517 0.0
C788 C 0.15593 0.63357 0.06141 0.0
C789 C 0.07918 0.54525 0.03242 0.0
C790 C 0.1041 0.57357 0.02469 0.0
C791 C 0.12815 0.60204 0.03448 0.0
C792 C 0.10552 0.57429 0.00649 0.0
C793 C 1.05194 0.51437 0.02262 0.0
C794 C 0.1112 0.55118 0.99704 0.0
C795 C 0.11266 0.55211 0.97995 0.0
C796 C 0.10849 0.57622 0.97188 0.0
C797 C 0.10314 0.59953 0.98143 0.0
C798 C 0.10184 0.59867 0.99851 0.0
H799 H 1.03019 0.49857 0.03016 0.0
H800 H 1.04247 0.52165 0.01195 0.0
H801 H 0.06264 0.49866 0.01795 0.0
H802 H 0.11471 0.53248 0.00289 0.0
H803 H 0.11661 0.53362 0.97304 0.0
H804 H 0.6587 0.08434 0.44627 0.0
H805 H 0.66284 0.08867 0.41658 0.0
H806 H 0.55729 0.05919 0.41212 0.0
H807 H 0.55323 0.05582 0.4417 0.0
H808 H 0.6329 0.04423 0.39095 0.0
H809 H 0.59752 0.14275 0.38757 0.0
H810 H 0.60703 0.13123 0.40678 0.0
H811 H 0.5656 0.10626 0.39679 0.0
C812 C 0.63638 0.07887 0.43898 0.0
C813 C 0.60571 0.07005 0.44647 0.0
C814 C 0.63878 0.08135 0.42196 0.0
C815 C 0.61059 0.07504 0.41202 0.0
C816 C 0.57974 0.06528 0.41946 0.0
H817 H 0.58406 1.02692 0.30642 0.0
H818 H 0.58496 1.02597 0.33613 0.0
C819 C 0.5774 0.06311 0.43645 0.0
C820 C 0.61316 0.07801 0.3939 0.0
H821 H 0.59656 0.11385 0.36217 0.0
C822 C 0.62517 0.05966 0.38469 0.0
C823 C 0.60373 0.09862 0.38562 0.0
C824 C 0.59311 0.12111 0.39472 0.0
C825 C 0.62711 0.06059 0.36754 0.0
C826 C 0.61588 0.07971 0.35918 0.0
C827 C 0.60476 0.09878 0.36844 0.0
C828 C 0.61536 0.0803 0.34089 0.0
C829 C 0.64181 0.04151 0.35864 0.0
C830 C 0.63107 0.11118 0.33344 0.0
C831 C 0.62987 0.11189 0.31633 0.0
C832 C 0.61286 0.08168 0.30616 0.0
C833 C 0.5971 0.0508 0.3137 0.0
C834 C 0.59808 0.05015 0.3308 0.0
H835 H 0.65899 0.03785 0.36688 0.0
H836 H 0.62093 1.01609 0.35412 0.0
H837 H 0.65613 0.05491 0.34801 0.0
H838 H 0.64433 0.13489 0.34087 0.0
H839 H 0.64182 0.13623 0.31113 0.0
H840 H 0.65786 0.63999 0.77974 0.0
H841 H 0.65807 0.64223 0.74987 0.0
H842 H 0.57535 0.53914 0.74456 0.0
H843 H 0.57433 0.53705 0.77424 0.0
H844 H 0.66906 0.60749 0.72584 0.0
H845 H 0.53848 0.58313 0.71662 0.0
H846 H 0.55928 0.59266 0.73665 0.0
H847 H 0.53938 0.55029 0.7271 0.0
C848 C 0.63959 0.61786 0.77221 0.0
C849 C 0.61586 0.58847 0.77947 0.0
C850 C 0.63975 0.61915 0.7551 0.0
C851 C 0.61623 0.5911 0.74485 0.0
C852 C 0.59309 0.56152 0.7521 0.0
H853 H 0.63473 0.55314 0.64088 0.0
H854 H 0.63604 0.55569 0.67073 0.0
C855 C 0.5927 0.5603 0.76915 0.0
C856 C 0.61626 0.59235 0.72662 0.0
H857 H 0.56496 0.57718 0.69266 0.0
C858 C 0.64633 0.60109 0.71861 0.0
C859 C 0.58683 0.58462 0.71708 0.0
C860 C 0.55429 0.57751 0.72482 0.0
C861 C 0.64756 0.60144 0.70142 0.0
C862 C 0.61766 0.5919 0.69183 0.0
C863 C 0.58783 0.58403 0.69989 0.0
C864 C 0.61669 0.5901 0.67349 0.0
C865 C 0.68115 0.61268 0.69378 0.0
C866 C 0.60416 0.6075 0.66487 0.0
C867 C 0.60254 0.6054 0.6477 0.0
C868 C 0.61345 0.58583 0.63861 0.0
C869 C 0.62577 0.56824 0.64731 0.0
C870 C 0.6271 0.57013 0.66449 0.0
H871 H 0.70269 0.62911 0.70259 0.0
H872 H 0.68314 0.59012 0.69005 0.0
H873 H 0.68366 0.62674 0.68279 0.0
H874 H 0.59562 0.62284 0.67145 0.0
H875 H 0.59223 0.6188 0.64157 0.0
H876 H 0.6366 0.10961 0.55372 0.0
H877 H 0.62982 0.10502 0.58332 0.0
H878 H 0.53409 1.01256 0.57422 0.0
H879 H 0.54076 1.01656 0.54485 0.0
H880 H 0.578 0.10223 0.60227 0.0
H881 H 0.58439 0.98516 0.60556 0.0
H882 H 0.59751 1.0102 0.588 0.0
H883 H 0.55335 0.98088 0.59054 0.0
C884 C 0.61418 0.08826 0.55804 0.0
C885 C 0.58937 0.06332 0.54693 0.0
C886 C 0.61035 0.08569 0.57494 0.0
C887 C 0.58178 0.05809 0.58094 0.0
C888 C 0.55674 1.03359 0.56986 0.0
H889 H 0.48987 0.98994 0.67255 0.0
H890 H 0.50448 0.99927 0.64391 0.0
C891 C 0.56055 1.03606 0.55304 0.0
C892 C 0.57739 0.05501 0.59877 0.0
H893 H 0.56263 1.00097 0.62872 0.0
C894 C 0.57506 0.08033 0.60812 0.0
C895 C 0.57359 1.02639 0.60634 0.0
C896 C 0.57767 0.99927 0.59713 0.0
C897 C 0.56773 0.07713 0.62476 0.0
C898 C 0.56296 0.04803 0.63218 0.0
C899 C 0.56604 1.0231 0.62292 0.0
C900 C 0.5543 0.04272 0.64952 0.0
C901 C 0.56405 0.10432 0.63414 0.0
C902 C 0.57769 0.06383 0.6621 0.0
C903 C 0.56957 0.0584 0.67846 0.0
C904 C 0.53787 1.03172 0.68254 0.0
C905 C 0.5146 1.01048 0.66986 0.0
C906 C 0.52281 1.01588 0.65349 0.0
H907 H 0.56192 0.12166 0.6259 0.0
H908 H 0.54138 0.09291 0.64167 0.0
H909 H 0.58662 0.11954 0.64255 0.0
H910 H 0.60237 0.08428 0.65926 0.0
H911 H 0.58836 0.07482 0.68791 0.0
H912 H 0.61928 0.62071 0.88712 0.0
H913 H 0.61638 0.61168 0.91648 0.0
H914 H 0.59624 0.50995 0.90534 0.0
H915 H 0.59996 0.51892 0.87631 0.0
H916 H 0.56541 0.5667 0.93398 0.0
H917 H 0.67334 0.54481 0.93889 0.0
H918 H 0.66544 0.56207 0.92122 0.0
H919 H 0.64328 0.51701 0.92303 0.0
C920 C 0.61445 0.59652 0.89097 0.0
C921 C 0.61025 0.57068 0.8794 0.0
C922 C 0.6128 0.5914 0.90773 0.0
C923 C 0.60692 0.56041 0.91312 0.0
C924 C 0.6019 0.53442 0.90152 0.0
H925 H 0.5207 0.46127 1.00013 0.0
H926 H 0.53243 0.48603 0.97362 0.0
C927 C 0.60384 0.53957 0.88488 0.0
C928 C 0.6048 0.5544 0.93077 0.0
H929 H 0.6331 0.52333 0.96008 0.0
C930 C 0.58056 0.55771 0.93979 0.0
C931 C 0.62506 0.54339 0.93847 0.0
C932 C 0.65349 0.54199 0.92993 0.0
C933 C 0.57481 0.54857 0.95602 0.0
C934 C 0.59314 0.53486 0.96324 0.0
C935 C 0.6186 0.53327 0.95449 0.0
C936 C 0.58568 0.52092 0.97958 0.0
C937 C 0.54917 0.55375 0.96523 0.0
C938 C 0.61188 0.53144 0.99159 0.0
C939 C 0.60535 0.51678 0.0066 0.0
C940 C 0.57244 0.49145 0.00992 0.0
C941 C 0.5462 0.48106 0.99795 0.0
C942 C 0.55284 0.4954 0.98286 0.0
H943 H 0.54659 0.5746 0.96045 0.0
H944 H 0.52404 0.53032 0.96359 0.0
H945 H 0.5562 0.55963 0.97852 0.0
H946 H 0.63746 0.55094 0.98932 0.0
H947 H 0.62597 0.52543 0.01567 0.0
H948 H 0.06324 0.59874 0.2152 0.0
H949 H 0.06056 0.59815 0.24491 0.0
H950 H 0.12746 0.55731 0.24611 0.0
H951 H 0.13129 0.55908 0.21634 0.0
H952 H 1.03662 0.54648 0.26333 0.0
H953 H 0.17238 0.63315 0.28101 0.0
H954 H 0.15551 0.62825 0.26039 0.0
H955 H 0.16505 0.5975 0.26766 0.0
C956 C 0.07762 0.5899 0.2218 0.0
C957 C 0.09759 0.57908 0.21346 0.0
C958 C 0.07604 0.58954 0.23878 0.0
C959 C 0.09413 0.57809 0.24779 0.0
C960 C 0.11398 0.56708 0.23949 0.0
H961 H 1.04273 0.52323 0.3486 0.0
H962 H 1.05003 0.52107 0.31903 0.0
C963 C 0.116 0.56793 0.22247 0.0
C964 C 0.09104 0.57669 0.26577 0.0
H965 H 0.13638 0.60449 0.30231 0.0
C966 C 0.05844 0.55921 0.27186 0.0
C967 C 0.11951 0.59358 0.27689 0.0
C968 C 0.15505 0.61445 0.27119 0.0
C969 C 1.05345 0.55846 0.28873 0.0
C970 C 0.08195 0.57464 0.29985 0.0
C971 C 0.11458 0.59184 0.29377 0.0
C972 C 0.07846 0.57549 0.31783 0.0
C973 C 1.01762 0.54139 0.2944 0.0
C974 C 0.09309 0.6067 0.32706 0.0
C975 C 0.08952 0.60793 0.34395 0.0
C976 C 0.07102 0.57795 0.35189 0.0
C977 C 0.05668 0.54669 0.3427 0.0
C978 C 0.06072 0.54546 0.32582 0.0
H979 H 0.99934 0.53896 0.28461 0.0
H980 H 1.01021 0.51552 0.29775 0.0
H981 H 1.01537 0.55559 0.30528 0.0
H982 H 0.10692 0.63019 0.32117 0.0
H983 H 0.10068 0.63235 0.35077 0.0
loop_
_geom_bond_atom_site_label_1
_geom_bond_atom_site_label_2
_geom_bond_distance
_geom_bond_site_symmetry_2
_ccdc_geom_bond_type
Tb0 C9 2.764 1_455 S
Tb0 O10 2.325 1_455 S
Tb0 O13 2.303 . S
Tb0 O17 2.322 . S
Tb0 O18 2.349 . S
Tb0 O21 2.415 1_455 S
Tb0 O22 2.399 1_455 S
Tb1 O11 2.322 . S
Tb1 O12 2.349 . S
Tb1 O14 2.415 . S
Tb1 O15 2.399 . S
Tb1 O16 2.325 . S
Tb1 O19 2.303 . S
Tb1 C30 2.764 . S
C2 O18 1.261 . S
C2 O19 1.257 . S
C3 C6 1.358 . S
C3 C7 1.332 . S
C3 C9 1.504 . S
C4 C5 1.373 . S
C4 C8 1.308 . S
C5 C4 1.373 . S
C5 C6 1.429 . S
C5 H32 0.932 . S
C6 C3 1.358 . S
C6 C5 1.429 . S
C6 H33 0.930 . S
C7 C3 1.332 . S
C7 C8 1.394 . S
C7 H34 0.932 . S
C8 C4 1.308 . S
C8 C7 1.394 . S
C8 H35 0.929 . S
C9 Tb0 2.764 1_655 S
C9 C3 1.504 . S
C9 O21 1.239 . S
C9 O22 1.263 . S
O10 Tb0 2.325 1_655 S
O10 C20 1.236 . S
O11 Tb1 2.322 . S
O11 C20 1.257 1_455 S
O12 Tb1 2.349 . S
O12 C23 1.261 . S
O13 Tb0 2.303 . S
O13 C23 1.257 . S
O14 Tb1 2.415 . S
O14 C30 1.239 . S
O15 Tb1 2.399 . S
O15 C30 1.263 . S
O16 Tb1 2.325 . S
O16 C31 1.236 . S
O17 Tb0 2.322 . S
O17 C31 1.257 . S
O18 Tb0 2.349 . S
O18 C2 1.261 . S
O19 Tb1 2.303 . S
O19 C2 1.257 . S
C20 O10 1.236 . S
C20 O11 1.257 1_655 S
O21 Tb0 2.415 1_655 S
O21 C9 1.239 . S
O22 Tb0 2.399 1_655 S
O22 C9 1.263 . S
C23 O12 1.261 . S
C23 O13 1.257 . S
C24 C27 1.358 . S
C24 C28 1.332 . S
C24 C30 1.504 . S
C25 C26 1.373 . S
C25 C29 1.308 . S
C26 C25 1.373 . S
C26 C27 1.429 . S
C26 H36 0.932 . S
C27 C24 1.358 . S
C27 C26 1.429 . S
C27 H37 0.930 . S
C28 C24 1.332 . S
C28 C29 1.394 . S
C28 H38 0.932 . S
C29 C25 1.308 . S
C29 C28 1.394 . S
C29 H39 0.929 . S
C30 Tb1 2.764 . S
C30 O14 1.239 . S
C30 O15 1.263 . S
C30 C24 1.504 . S
C31 O16 1.236 . S
C31 O17 1.257 . S
H32 C5 0.932 . S
H33 C6 0.930 . S
H34 C7 0.932 . S
H35 C8 0.929 . S
H36 C26 0.932 . S
H37 C27 0.930 . S
H38 C28 0.932 . S
H39 C29 0.929 . S
Tb40 C49 2.764 1_545 S
Tb40 O50 2.325 1_545 S
Tb40 O53 2.303 . S
Tb40 O57 2.322 . S
Tb40 O58 2.349 . S
Tb40 O61 2.415 1_545 S
Tb40 O62 2.399 1_545 S
Tb41 O51 2.322 1_545 S
Tb41 O52 2.349 . S
Tb41 O54 2.415 . S
Tb41 O55 2.399 . S
Tb41 O56 2.325 . S
Tb41 O59 2.303 . S
Tb41 C70 2.764 . S
C42 O58 1.261 . S
C42 O59 1.257 . S
C43 C46 1.358 . S
C43 C47 1.332 . S
C43 C49 1.504 . S
C44 C45 1.373 . S
C44 C48 1.308 . S
C45 C44 1.373 . S
C45 C46 1.429 . S
C45 H72 0.932 . S
C46 C43 1.358 . S
C46 C45 1.429 . S
C46 H73 0.930 . S
C47 C43 1.332 . S
C47 C48 1.394 . S
C47 H74 0.932 . S
C48 C44 1.308 . S
C48 C47 1.394 . S
C48 H75 0.929 . S
C49 Tb40 2.764 1_565 S
C49 C43 1.504 . S
C49 O61 1.239 . S
C49 O62 1.263 . S
O50 Tb40 2.325 1_565 S
O50 C60 1.236 . S
O51 Tb41 2.322 1_565 S
O51 C60 1.257 . S
O52 Tb41 2.349 . S
O52 C63 1.261 . S
O53 Tb40 2.303 . S
O53 C63 1.257 . S
O54 Tb41 2.415 . S
O54 C70 1.239 . S
O55 Tb41 2.399 . S
O55 C70 1.263 . S
O56 Tb41 2.325 . S
O56 C71 1.236 . S
O57 Tb40 2.322 . S
O57 C71 1.257 . S
O58 Tb40 2.349 . S
O58 C42 1.261 . S
O59 Tb41 2.303 . S
O59 C42 1.257 . S
C60 O50 1.236 . S
C60 O51 1.257 . S
O61 Tb40 2.415 1_565 S
O61 C49 1.239 . S
O62 Tb40 2.399 1_565 S
O62 C49 1.263 . S
C63 O52 1.261 . S
C63 O53 1.257 . S
C64 C67 1.358 . S
C64 C68 1.332 . S
C64 C70 1.504 . S
C65 C66 1.373 . S
C65 C69 1.308 . S
C66 C65 1.373 . S
C66 C67 1.429 . S
C66 H76 0.932 . S
C67 C64 1.358 . S
C67 C66 1.429 . S
C67 H77 0.930 . S
C68 C64 1.332 . S
C68 C69 1.394 . S
C68 H78 0.932 . S
C69 C65 1.308 . S
C69 C68 1.394 . S
C69 H79 0.929 . S
C70 Tb41 2.764 . S
C70 O54 1.239 . S
C70 O55 1.263 . S
C70 C64 1.504 . S
C71 O56 1.236 . S
C71 O57 1.257 . S
H72 C45 0.932 . S
H73 C46 0.930 . S
H74 C47 0.932 . S
H75 C48 0.929 . S
H76 C66 0.932 . S
H77 C67 0.930 . S
H78 C68 0.932 . S
H79 C69 0.929 . S
Tb80 C89 2.764 . S
Tb80 O90 2.325 . S
Tb80 O93 2.303 . S
Tb80 O97 2.322 . S
Tb80 O98 2.349 . S
Tb80 O101 2.415 . S
Tb80 O102 2.399 . S
Tb81 O91 2.322 . S
Tb81 O92 2.349 . S
Tb81 O94 2.415 . S
Tb81 O95 2.399 . S
Tb81 O96 2.325 . S
Tb81 O99 2.303 . S
Tb81 C110 2.764 . S
C82 O98 1.261 . S
C82 O99 1.257 . S
C83 C86 1.358 . S
C83 C87 1.332 . S
C83 C89 1.504 . S
C84 C85 1.373 . S
C84 C88 1.308 . S
C85 C84 1.373 . S
C85 C86 1.429 . S
C85 H112 0.932 . S
C86 C83 1.358 . S
C86 C85 1.429 . S
C86 H113 0.930 . S
C87 C83 1.332 . S
C87 C88 1.394 . S
C87 H114 0.932 . S
C88 C84 1.308 . S
C88 C87 1.394 . S
C88 H115 0.929 . S
C89 Tb80 2.764 . S
C89 C83 1.504 . S
C89 O101 1.239 . S
C89 O102 1.263 . S
O90 Tb80 2.325 . S
O90 C100 1.236 . S
O91 Tb81 2.322 . S
O91 C100 1.257 . S
O92 Tb81 2.349 . S
O92 C103 1.261 . S
O93 Tb80 2.303 . S
O93 C103 1.257 . S
O94 Tb81 2.415 . S
O94 C110 1.239 . S
O95 Tb81 2.399 . S
O95 C110 1.263 . S
O96 Tb81 2.325 . S
O96 C111 1.236 . S
O97 Tb80 2.322 . S
O97 C111 1.257 . S
O98 Tb80 2.349 . S
O98 C82 1.261 . S
O99 Tb81 2.303 . S
O99 C82 1.257 . S
C100 O90 1.236 . S
C100 O91 1.257 . S
O101 Tb80 2.415 . S
O101 C89 1.239 . S
O102 Tb80 2.399 . S
O102 C89 1.263 . S
C103 O92 1.261 . S
C103 O93 1.257 . S
C104 C107 1.358 . S
C104 C108 1.332 . S
C104 C110 1.504 . S
C105 C106 1.373 . S
C105 C109 1.308 . S
C106 C105 1.373 . S
C106 C107 1.429 . S
C106 H116 0.932 . S
C107 C104 1.358 . S
C107 C106 1.429 . S
C107 H117 0.930 . S
C108 C104 1.332 . S
C108 C109 1.394 . S
C108 H118 0.932 . S
C109 C105 1.308 . S
C109 C108 1.394 . S
C109 H119 0.929 . S
C110 Tb81 2.764 . S
C110 O94 1.239 . S
C110 O95 1.263 . S
C110 C104 1.504 . S
C111 O96 1.236 . S
C111 O97 1.257 . S
H112 C85 0.932 . S
H113 C86 0.930 . S
H114 C87 0.932 . S
H115 C88 0.929 . S
H116 C106 0.932 . S
H117 C107 0.930 . S
H118 C108 0.932 . S
H119 C109 0.929 . S
C120 C121 1.384 . S
C120 H133 0.947 . S
C120 C155 1.382 . S
C121 C120 1.384 . S
C121 C122 1.378 . S
C122 C121 1.378 . S
C122 C123 1.378 . S
C122 H134 0.952 . S
C123 C122 1.378 . S
C123 H135 0.950 . S
C123 C154 1.383 . S
H124 C143 0.947 . S
H125 C144 0.946 . S
H126 C146 0.953 . S
H127 C147 0.945 . S
H128 C149 0.952 . S
H129 C150 0.949 . S
H130 C152 0.950 1_565 S
H131 C153 0.943 1_565 S
H132 C155 0.951 . S
H133 C120 0.947 . S
H134 C122 0.952 . S
H135 C123 0.950 . S
N136 C139 1.382 . S
N136 C141 1.363 1_545 S
N137 C139 1.371 . S
N137 C140 1.372 . S
N138 C140 1.349 1_565 S
N138 C141 1.379 . S
C139 N136 1.382 . S
C139 N137 1.371 . S
C139 C142 1.480 . S
C140 N137 1.372 . S
C140 N138 1.349 1_545 S
C140 C148 1.457 . S
C141 N136 1.363 1_565 S
C141 N138 1.379 . S
C141 C154 1.479 . S
C142 C139 1.480 . S
C142 C143 1.383 . S
C142 C147 1.385 . S
C143 H124 0.947 . S
C143 C142 1.383 . S
C143 C144 1.388 . S
C144 H125 0.946 . S
C144 C143 1.388 . S
C144 C145 1.384 . S
C145 C144 1.384 . S
C145 C146 1.377 . S
C146 H126 0.953 . S
C146 C145 1.377 . S
C146 C147 1.369 . S
C147 H127 0.945 . S
C147 C142 1.385 . S
C147 C146 1.369 . S
C148 C140 1.457 . S
C148 C149 1.372 . S
C148 C153 1.369 . S
C149 H128 0.952 . S
C149 C148 1.372 . S
C149 C150 1.389 . S
C150 H129 0.949 . S
C150 C149 1.389 . S
C150 C151 1.387 . S
C151 C150 1.387 . S
C151 C152 1.372 . S
C152 H130 0.950 1_545 S
C152 C151 1.372 . S
C152 C153 1.379 . S
C153 H131 0.943 1_545 S
C153 C148 1.369 . S
C153 C152 1.379 . S
C154 C123 1.383 . S
C154 C141 1.479 . S
C154 C155 1.398 . S
C155 C120 1.382 . S
C155 H132 0.951 . S
C155 C154 1.398 . S
C156 C157 1.384 . S
C156 H169 0.947 . S
C156 C191 1.382 . S
C157 C156 1.384 . S
C157 C158 1.378 . S
C158 C157 1.378 . S
C158 C159 1.378 . S
C158 H170 0.952 . S
C159 C158 1.378 . S
C159 H171 0.950 . S
C159 C190 1.383 . S
H160 C179 0.947 . S
H161 C180 0.946 . S
H162 C182 0.953 . S
H163 C183 0.945 . S
H164 C185 0.952 . S
H165 C186 0.949 . S
H166 C188 0.950 . S
H167 C189 0.948 . S
H168 C191 0.951 . S
H169 C156 0.947 . S
H170 C158 0.952 . S
H171 C159 0.950 . S
N172 C175 1.382 . S
N172 C177 1.363 . S
N173 C175 1.371 . S
N173 C176 1.372 . S
N174 C176 1.361 . S
N174 C177 1.377 . S
C175 N172 1.382 . S
C175 N173 1.371 . S
C175 C178 1.480 . S
C176 N173 1.372 . S
C176 N174 1.361 . S
C176 C184 1.457 . S
C177 N172 1.363 . S
C177 N174 1.377 . S
C177 C190 1.479 . S
C178 C175 1.480 . S
C178 C179 1.383 . S
C178 C183 1.385 . S
C179 H160 0.947 . S
C179 C178 1.383 . S
C179 C180 1.388 . S
C180 H161 0.946 . S
C180 C179 1.388 . S
C180 C181 1.384 . S
C181 C180 1.384 . S
C181 C182 1.377 . S
C182 H162 0.953 . S
C182 C181 1.377 . S
C182 C183 1.369 . S
C183 H163 0.945 . S
C183 C178 1.385 . S
C183 C182 1.369 . S
C184 C176 1.457 . S
C184 C185 1.372 . S
C184 C189 1.364 . S
C185 H164 0.952 . S
C185 C184 1.372 . S
C185 C186 1.389 . S
C186 H165 0.949 . S
C186 C185 1.389 . S
C186 C187 1.387 . S
C187 C186 1.387 . S
C187 C188 1.372 . S
C188 H166 0.950 . S
C188 C187 1.372 . S
C188 C189 1.379 . S
C189 H167 0.948 . S
C189 C184 1.364 . S
C189 C188 1.379 . S
C190 C159 1.383 . S
C190 C177 1.479 . S
C190 C191 1.398 . S
C191 C156 1.382 . S
C191 H168 0.951 . S
C191 C190 1.398 . S
C192 C193 1.384 . S
C192 H205 0.947 . S
C192 C227 1.382 . S
C193 C192 1.384 . S
C193 C194 1.378 . S
C194 C193 1.378 . S
C194 C195 1.378 1_655 S
C194 H206 0.952 . S
C195 C194 1.378 1_455 S
C195 H207 0.950 . S
C195 C226 1.383 . S
H196 C215 0.947 . S
H197 C216 0.946 . S
H198 C218 0.953 . S
H199 C219 0.945 . S
H200 C221 0.952 . S
H201 C222 0.949 . S
H202 C224 0.950 . S
H203 C225 0.948 . S
H204 C227 0.951 . S
H205 C192 0.947 . S
H206 C194 0.952 . S
H207 C195 0.950 . S
N208 C211 1.382 . S
N208 C213 1.363 . S
N209 C211 1.371 . S
N209 C212 1.372 . S
N210 C212 1.361 . S
N210 C213 1.377 . S
C211 N208 1.382 . S
C211 N209 1.371 . S
C211 C214 1.480 . S
C212 N209 1.372 . S
C212 N210 1.361 . S
C212 C220 1.457 . S
C213 N208 1.363 . S
C213 N210 1.377 . S
C213 C226 1.479 . S
C214 C211 1.480 . S
C214 C215 1.383 . S
C214 C219 1.385 . S
C215 H196 0.947 . S
C215 C214 1.383 . S
C215 C216 1.388 . S
C216 H197 0.946 . S
C216 C215 1.388 . S
C216 C217 1.384 . S
C217 C216 1.384 . S
C217 C218 1.377 . S
C218 H198 0.953 . S
C218 C217 1.377 . S
C218 C219 1.369 . S
C219 H199 0.945 . S
C219 C214 1.385 . S
C219 C218 1.369 . S
C220 C212 1.457 . S
C220 C221 1.372 . S
C220 C225 1.364 . S
C221 H200 0.952 . S
C221 C220 1.372 . S
C221 C222 1.389 . S
C222 H201 0.949 . S
C222 C221 1.389 . S
C222 C223 1.387 . S
C223 C222 1.387 . S
C223 C224 1.372 . S
C224 H202 0.950 . S
C224 C223 1.372 . S
C224 C225 1.379 . S
C225 H203 0.948 . S
C225 C220 1.364 . S
C225 C224 1.379 . S
C226 C195 1.383 . S
C226 C213 1.479 . S
C226 C227 1.398 1_455 S
C227 C192 1.382 . S
C227 H204 0.951 . S
C227 C226 1.398 1_655 S
C228 C229 1.384 . S
C228 H241 0.947 . S
C228 C263 1.382 . S
C229 C228 1.384 . S
C229 C230 1.378 . S
C230 C229 1.378 . S
C230 C231 1.378 . S
C230 H242 0.952 . S
C231 C230 1.378 . S
C231 H243 0.950 . S
C231 C262 1.383 . S
H232 C251 0.947 . S
H233 C252 0.946 . S
H234 C254 0.953 . S
H235 C255 0.945 . S
H236 C257 0.952 . S
H237 C258 0.949 . S
H238 C260 0.950 . S
H239 C261 0.948 . S
H240 C263 0.951 . S
H241 C228 0.947 . S
H242 C230 0.952 . S
H243 C231 0.950 . S
N244 C247 1.382 1_455 S
N244 C249 1.363 . S
N245 C247 1.371 . S
N245 C248 1.372 1_655 S
N246 C248 1.361 . S
N246 C249 1.377 . S
C247 N244 1.382 1_655 S
C247 N245 1.371 . S
C247 C250 1.480 . S
C248 N245 1.372 1_455 S
C248 N246 1.361 . S
C248 C256 1.457 . S
C249 N244 1.363 . S
C249 N246 1.377 . S
C249 C262 1.479 . S
C250 C247 1.480 . S
C250 C251 1.383 . S
C250 C255 1.385 . S
C251 H232 0.947 . S
C251 C250 1.383 . S
C251 C252 1.388 . S
C252 H233 0.946 . S
C252 C251 1.388 . S
C252 C253 1.384 . S
C253 C252 1.384 . S
C253 C254 1.377 . S
C254 H234 0.953 . S
C254 C253 1.377 . S
C254 C255 1.369 . S
C255 H235 0.945 . S
C255 C250 1.385 . S
C255 C254 1.369 . S
C256 C248 1.457 . S
C256 C257 1.372 1_455 S
C256 C261 1.364 . S
C257 H236 0.952 . S
C257 C256 1.372 1_655 S
C257 C258 1.389 . S
C258 H237 0.949 . S
C258 C257 1.389 . S
C258 C259 1.375 1_655 S
C259 C258 1.375 1_455 S
C259 C260 1.383 . S
C260 H238 0.950 . S
C260 C259 1.383 . S
C260 C261 1.379 . S
C261 H239 0.948 . S
C261 C256 1.364 . S
C261 C260 1.379 . S
C262 C231 1.383 . S
C262 C249 1.479 . S
C262 C263 1.398 . S
C263 C228 1.382 . S
C263 H240 0.951 . S
C263 C262 1.398 . S
C264 C265 1.384 . S
C264 H277 0.947 . S
C264 C299 1.382 . S
C265 C264 1.384 . S
C265 C266 1.378 . S
C266 C265 1.378 . S
C266 C267 1.378 . S
C266 H278 0.952 . S
C267 C266 1.378 . S
C267 H279 0.950 . S
C267 C298 1.383 . S
H268 C287 0.947 . S
H269 C288 0.946 . S
H270 C290 0.953 . S
H271 C291 0.945 . S
H272 C293 0.952 . S
H273 C294 0.949 . S
H274 C296 0.950 . S
H275 C297 0.948 . S
H276 C299 0.951 . S
H277 C264 0.947 . S
H278 C266 0.952 . S
H279 C267 0.950 . S
N280 C283 1.382 1_545 S
N280 C285 1.363 . S
N281 C283 1.371 . S
N281 C284 1.372 1_565 S
N282 C284 1.361 . S
N282 C285 1.377 . S
C283 N280 1.382 1_565 S
C283 N281 1.371 . S
C283 C286 1.480 . S
C284 N281 1.372 1_545 S
C284 N282 1.361 . S
C284 C292 1.457 . S
C285 N280 1.363 . S
C285 N282 1.377 . S
C285 C298 1.479 . S
C286 C283 1.480 . S
C286 C287 1.383 . S
C286 C291 1.385 . S
C287 H268 0.947 . S
C287 C286 1.383 . S
C287 C288 1.388 . S
C288 H269 0.946 . S
C288 C287 1.388 . S
C288 C289 1.384 . S
C289 C288 1.384 . S
C289 C290 1.377 . S
C290 H270 0.953 . S
C290 C289 1.377 . S
C290 C291 1.369 . S
C291 H271 0.945 . S
C291 C286 1.385 . S
C291 C290 1.369 . S
C292 C284 1.457 . S
C292 C293 1.372 1_545 S
C292 C297 1.364 . S
C293 H272 0.952 . S
C293 C292 1.372 1_565 S
C293 C294 1.389 . S
C294 H273 0.949 . S
C294 C293 1.389 . S
C294 C295 1.387 . S
C295 C294 1.387 . S
C295 C296 1.372 1_565 S
C296 H274 0.950 . S
C296 C295 1.372 1_545 S
C296 C297 1.379 . S
C297 H275 0.948 . S
C297 C292 1.364 . S
C297 C296 1.379 . S
C298 C267 1.383 . S
C298 C285 1.479 . S
C298 C299 1.398 . S
C299 C264 1.382 . S
C299 H276 0.951 . S
C299 C298 1.398 . S
C300 C301 1.384 . S
C300 H313 0.947 . S
C300 C335 1.382 . S
C301 C300 1.384 . S
C301 C302 1.378 . S
C302 C301 1.378 . S
C302 C303 1.378 . S
C302 H314 0.952 . S
C303 C302 1.378 . S
C303 H315 0.950 . S
C303 C334 1.383 . S
H304 C323 0.947 . S
H305 C324 0.946 . S
H306 C326 0.953 . S
H307 C327 0.945 . S
H308 C329 0.952 . S
H309 C330 0.949 . S
H310 C332 0.950 . S
H311 C333 0.948 . S
H312 C335 0.951 . S
H313 C300 0.947 . S
H314 C302 0.952 . S
H315 C303 0.950 . S
N316 C319 1.382 . S
N316 C321 1.363 . S
N317 C319 1.371 . S
N317 C320 1.372 . S
N318 C320 1.361 . S
N318 C321 1.377 . S
C319 N316 1.382 . S
C319 N317 1.371 . S
C319 C322 1.480 . S
C320 N317 1.372 . S
C320 N318 1.361 . S
C320 C328 1.457 . S
C321 N316 1.363 . S
C321 N318 1.377 . S
C321 C334 1.479 . S
C322 C319 1.480 . S
C322 C323 1.383 . S
C322 C327 1.385 . S
C323 H304 0.947 . S
C323 C322 1.383 . S
C323 C324 1.388 . S
C324 H305 0.946 . S
C324 C323 1.388 . S
C324 C325 1.384 . S
C325 C324 1.384 . S
C325 C326 1.377 . S
C326 H306 0.953 . S
C326 C325 1.377 . S
C326 C327 1.369 . S
C327 H307 0.945 . S
C327 C322 1.385 . S
C327 C326 1.369 . S
C328 C320 1.457 . S
C328 C329 1.372 . S
C328 C333 1.364 . S
C329 H308 0.952 . S
C329 C328 1.372 . S
C329 C330 1.389 . S
C330 H309 0.949 . S
C330 C329 1.389 . S
C330 C331 1.387 . S
C331 C330 1.387 . S
C331 C332 1.372 . S
C332 H310 0.950 . S
C332 C331 1.372 . S
C332 C333 1.379 . S
C333 H311 0.948 . S
C333 C328 1.364 . S
C333 C332 1.379 . S
C334 C303 1.383 . S
C334 C321 1.479 . S
C334 C335 1.398 . S
C335 C300 1.382 . S
C335 H312 0.951 . S
C335 C334 1.398 . S
H336 C344 0.929 . S
H337 C346 0.930 . S
H338 C348 0.930 . S
H339 C351 0.929 . S
H340 C354 0.930 . S
H341 C356 0.960 . S
H342 C356 0.960 . S
H343 C356 0.960 . S
C344 H336 0.929 . S
C344 C345 1.377 . S
C344 C346 1.384 . S
C345 C344 1.377 . S
C345 C351 1.390 . S
C346 H337 0.930 . S
C346 C344 1.384 . S
C346 C347 1.372 . S
C347 C346 1.372 . S
C347 C348 1.400 . S
C347 C352 1.490 . S
C348 H338 0.930 . S
C348 C347 1.400 . S
C348 C351 1.386 . S
H349 C365 0.930 . S
H350 C366 0.931 . S
C351 H339 0.929 . S
C351 C345 1.390 . S
C351 C348 1.386 . S
C352 C347 1.490 . S
C352 C354 1.395 . S
C352 C355 1.403 . S
H353 C359 0.930 . S
C354 H340 0.930 . S
C354 C352 1.395 . S
C354 C357 1.403 . S
C355 C352 1.403 . S
C355 C356 1.524 . S
C355 C359 1.400 . S
C356 H341 0.960 . S
C356 H342 0.960 . S
C356 H343 0.960 . S
C356 C355 1.524 . S
C357 C354 1.403 . S
C357 C358 1.392 . S
C357 C361 1.495 . S
C358 C357 1.392 . S
C358 C359 1.385 . S
C358 C360 1.478 . S
C359 H353 0.930 . S
C359 C355 1.400 . S
C359 C358 1.385 . S
C360 C358 1.478 . S
C360 C362 1.381 . S
C360 C366 1.383 . S
C361 C357 1.495 . S
C361 H367 0.959 . S
C361 H368 0.961 . S
C361 H369 0.960 . S
C362 C360 1.381 . S
C362 C363 1.394 . S
C362 H370 0.930 . S
C363 C362 1.394 . S
C363 C364 1.383 . S
C363 H371 0.929 . S
C364 C363 1.383 . S
C364 C365 1.377 . S
C365 H349 0.930 . S
C365 C364 1.377 . S
C365 C366 1.379 . S
C366 H350 0.931 . S
C366 C360 1.383 . S
C366 C365 1.379 . S
H367 C361 0.959 . S
H368 C361 0.961 . S
H369 C361 0.960 . S
H370 C362 0.930 . S
H371 C363 0.929 . S
H372 C380 0.929 . S
H373 C382 0.930 . S
H374 C384 0.930 . S
H375 C387 0.929 . S
H376 C390 0.930 . S
H377 C392 0.960 . S
H378 C392 0.960 . S
H379 C392 0.960 . S
C380 H372 0.929 . S
C380 C381 1.377 . S
C380 C382 1.384 . S
C381 C380 1.377 . S
C381 C387 1.390 . S
C382 H373 0.930 . S
C382 C380 1.384 . S
C382 C383 1.372 . S
C383 C382 1.372 . S
C383 C384 1.400 . S
C383 C388 1.490 . S
C384 H374 0.930 . S
C384 C383 1.400 . S
C384 C387 1.386 . S
H385 C401 0.930 . S
H386 C402 0.931 . S
C387 H375 0.929 . S
C387 C381 1.390 . S
C387 C384 1.386 . S
C388 C383 1.490 . S
C388 C390 1.395 . S
C388 C391 1.403 . S
H389 C395 0.930 . S
C390 H376 0.930 . S
C390 C388 1.395 . S
C390 C393 1.403 . S
C391 C388 1.403 . S
C391 C392 1.524 . S
C391 C395 1.400 . S
C392 H377 0.960 . S
C392 H378 0.960 . S
C392 H379 0.960 . S
C392 C391 1.524 . S
C393 C390 1.403 . S
C393 C394 1.392 . S
C393 C397 1.495 . S
C394 C393 1.392 . S
C394 C395 1.385 . S
C394 C396 1.478 . S
C395 H389 0.930 . S
C395 C391 1.400 . S
C395 C394 1.385 . S
C396 C394 1.478 . S
C396 C398 1.381 . S
C396 C402 1.383 . S
C397 C393 1.495 . S
C397 H403 0.959 . S
C397 H404 0.961 . S
C397 H405 0.960 . S
C398 C396 1.381 . S
C398 C399 1.394 . S
C398 H406 0.930 . S
C399 C398 1.394 . S
C399 C400 1.383 . S
C399 H407 0.929 . S
C400 C399 1.383 . S
C400 C401 1.377 . S
C401 H385 0.930 . S
C401 C400 1.377 . S
C401 C402 1.379 . S
C402 H386 0.931 . S
C402 C396 1.383 . S
C402 C401 1.379 . S
H403 C397 0.959 . S
H404 C397 0.961 . S
H405 C397 0.960 . S
H406 C398 0.930 . S
H407 C399 0.929 . S
H408 C416 0.929 . S
H409 C418 0.930 . S
H410 C420 0.930 . S
H411 C423 0.929 . S
H412 C426 0.930 . S
H413 C428 0.960 . S
H414 C428 0.960 . S
H415 C428 0.960 . S
C416 H408 0.929 . S
C416 C417 1.377 . S
C416 C418 1.384 . S
C417 C416 1.377 . S
C417 C423 1.390 . S
C418 H409 0.930 . S
C418 C416 1.384 . S
C418 C419 1.372 . S
C419 C418 1.372 . S
C419 C420 1.400 . S
C419 C424 1.490 . S
C420 H410 0.930 . S
C420 C419 1.400 . S
C420 C423 1.386 . S
H421 C437 0.930 . S
H422 C438 0.931 . S
C423 H411 0.929 . S
C423 C417 1.390 . S
C423 C420 1.386 . S
C424 C419 1.490 . S
C424 C426 1.395 . S
C424 C427 1.403 . S
H425 C431 0.930 . S
C426 H412 0.930 . S
C426 C424 1.395 . S
C426 C429 1.403 . S
C427 C424 1.403 . S
C427 C428 1.524 . S
C427 C431 1.400 . S
C428 H413 0.960 . S
C428 H414 0.960 . S
C428 H415 0.960 . S
C428 C427 1.524 . S
C429 C426 1.403 . S
C429 C430 1.392 . S
C429 C433 1.495 . S
C430 C429 1.392 . S
C430 C431 1.385 . S
C430 C432 1.478 . S
C431 H425 0.930 . S
C431 C427 1.400 . S
C431 C430 1.385 . S
C432 C430 1.478 . S
C432 C434 1.381 . S
C432 C438 1.383 . S
C433 C429 1.495 . S
C433 H439 0.959 . S
C433 H440 0.961 . S
C433 H441 0.960 . S
C434 C432 1.381 . S
C434 C435 1.394 . S
C434 H442 0.930 . S
C435 C434 1.394 . S
C435 C436 1.383 . S
C435 H443 0.929 . S
C436 C435 1.383 . S
C436 C437 1.377 . S
C437 H421 0.930 . S
C437 C436 1.377 . S
C437 C438 1.379 . S
C438 H422 0.931 . S
C438 C432 1.383 . S
C438 C437 1.379 . S
H439 C433 0.959 . S
H440 C433 0.961 . S
H441 C433 0.960 . S
H442 C434 0.930 . S
H443 C435 0.929 . S
H444 C452 0.929 . S
H445 C454 0.930 . S
H446 C456 0.930 . S
H447 C459 0.929 . S
H448 C462 0.930 . S
H449 C464 0.960 . S
H450 C464 0.960 . S
H451 C464 0.960 . S
C452 H444 0.929 . S
C452 C453 1.377 . S
C452 C454 1.384 . S
C453 C452 1.377 . S
C453 C459 1.390 . S
C454 H445 0.930 . S
C454 C452 1.384 . S
C454 C455 1.372 . S
C455 C454 1.372 . S
C455 C456 1.400 . S
C455 C460 1.490 . S
C456 H446 0.930 . S
C456 C455 1.400 . S
C456 C459 1.386 . S
H457 C473 0.930 . S
H458 C474 0.931 . S
C459 H447 0.929 . S
C459 C453 1.390 . S
C459 C456 1.386 . S
C460 C455 1.490 . S
C460 C462 1.395 . S
C460 C463 1.403 . S
H461 C467 0.930 . S
C462 H448 0.930 . S
C462 C460 1.395 . S
C462 C465 1.403 . S
C463 C460 1.403 . S
C463 C464 1.524 . S
C463 C467 1.400 . S
C464 H449 0.960 . S
C464 H450 0.960 . S
C464 H451 0.960 . S
C464 C463 1.524 . S
C465 C462 1.403 . S
C465 C466 1.392 . S
C465 C469 1.495 . S
C466 C465 1.392 . S
C466 C467 1.385 . S
C466 C468 1.478 . S
C467 H461 0.930 . S
C467 C463 1.400 . S
C467 C466 1.385 . S
C468 C466 1.478 . S
C468 C470 1.381 . S
C468 C474 1.383 . S
C469 C465 1.495 . S
C469 H475 0.959 . S
C469 H476 0.961 . S
C469 H477 0.960 . S
C470 C468 1.381 . S
C470 C471 1.394 . S
C470 H478 0.930 . S
C471 C470 1.394 . S
C471 C472 1.383 . S
C471 H479 0.929 . S
C472 C471 1.383 . S
C472 C473 1.377 . S
C473 H457 0.930 . S
C473 C472 1.377 . S
C473 C474 1.379 . S
C474 H458 0.931 . S
C474 C468 1.383 . S
C474 C473 1.379 . S
H475 C469 0.959 . S
H476 C469 0.961 . S
H477 C469 0.960 . S
H478 C470 0.930 . S
H479 C471 0.929 . S
H480 C488 0.929 . S
H481 C490 0.930 . S
H482 C492 0.930 . S
H483 C495 0.929 . S
H484 C498 0.930 . S
H485 C500 0.960 . S
H486 C500 0.960 . S
H487 C500 0.960 . S
C488 H480 0.929 . S
C488 C489 1.377 . S
C488 C490 1.384 . S
C489 C488 1.377 . S
C489 C495 1.390 . S
C490 H481 0.930 . S
C490 C488 1.384 . S
C490 C491 1.372 . S
C491 C490 1.372 . S
C491 C492 1.400 . S
C491 C496 1.490 . S
C492 H482 0.930 . S
C492 C491 1.400 . S
C492 C495 1.386 . S
H493 C509 0.930 . S
H494 C510 0.931 . S
C495 H483 0.929 . S
C495 C489 1.390 . S
C495 C492 1.386 . S
C496 C491 1.490 . S
C496 C498 1.395 . S
C496 C499 1.403 . S
H497 C503 0.930 . S
C498 H484 0.930 . S
C498 C496 1.395 . S
C498 C501 1.403 . S
C499 C496 1.403 . S
C499 C500 1.524 . S
C499 C503 1.400 . S
C500 H485 0.960 . S
C500 H486 0.960 . S
C500 H487 0.960 . S
C500 C499 1.524 . S
C501 C498 1.403 . S
C501 C502 1.392 . S
C501 C505 1.495 . S
C502 C501 1.392 . S
C502 C503 1.385 . S
C502 C504 1.478 . S
C503 H497 0.930 . S
C503 C499 1.400 . S
C503 C502 1.385 . S
C504 C502 1.478 . S
C504 C506 1.381 . S
C504 C510 1.383 . S
C505 C501 1.495 . S
C505 H511 0.959 . S
C505 H512 0.961 . S
C505 H513 0.960 . S
C506 C504 1.381 . S
C506 C507 1.394 . S
C506 H514 0.930 . S
C507 C506 1.394 . S
C507 C508 1.383 . S
C507 H515 0.929 . S
C508 C507 1.383 . S
C508 C509 1.377 . S
C509 H493 0.930 . S
C509 C508 1.377 . S
C509 C510 1.379 . S
C510 H494 0.931 . S
C510 C504 1.383 . S
C510 C509 1.379 . S
H511 C505 0.959 . S
H512 C505 0.961 . S
H513 C505 0.960 . S
H514 C506 0.930 . S
H515 C507 0.929 . S
H516 C524 0.929 . S
H517 C526 0.930 . S
H518 C528 0.930 . S
H519 C531 0.929 . S
H520 C534 0.930 . S
H521 C536 0.960 . S
H522 C536 0.960 . S
H523 C536 0.960 . S
C524 H516 0.929 . S
C524 C525 1.377 . S
C524 C526 1.384 . S
C525 C524 1.377 . S
C525 C531 1.390 . S
C526 H517 0.930 . S
C526 C524 1.384 . S
C526 C527 1.372 . S
C527 C526 1.372 . S
C527 C528 1.400 . S
C527 C532 1.490 . S
C528 H518 0.930 . S
C528 C527 1.400 . S
C528 C531 1.386 . S
H529 C545 0.930 . S
H530 C546 0.931 . S
C531 H519 0.929 . S
C531 C525 1.390 . S
C531 C528 1.386 . S
C532 C527 1.490 . S
C532 C534 1.395 . S
C532 C535 1.403 . S
H533 C539 0.930 . S
C534 H520 0.930 . S
C534 C532 1.395 . S
C534 C537 1.403 . S
C535 C532 1.403 . S
C535 C536 1.524 . S
C535 C539 1.400 . S
C536 H521 0.960 . S
C536 H522 0.960 . S
C536 H523 0.960 . S
C536 C535 1.524 . S
C537 C534 1.403 . S
C537 C538 1.392 . S
C537 C541 1.495 . S
C538 C537 1.392 . S
C538 C539 1.385 . S
C538 C540 1.478 . S
C539 H533 0.930 . S
C539 C535 1.400 . S
C539 C538 1.385 . S
C540 C538 1.478 . S
C540 C542 1.381 . S
C540 C546 1.383 . S
C541 C537 1.495 . S
C541 H547 0.959 . S
C541 H548 0.961 . S
C541 H549 0.960 . S
C542 C540 1.381 . S
C542 C543 1.394 . S
C542 H550 0.930 . S
C543 C542 1.394 . S
C543 C544 1.383 . S
C543 H551 0.929 . S
C544 C543 1.383 . S
C544 C545 1.377 . S
C545 H529 0.930 . S
C545 C544 1.377 . S
C545 C546 1.379 . S
C546 H530 0.931 . S
C546 C540 1.383 . S
C546 C545 1.379 . S
H547 C541 0.959 . S
H548 C541 0.961 . S
H549 C541 0.960 . S
H550 C542 0.930 . S
H551 C543 0.929 . S
H552 C560 0.929 . S
H553 C562 0.930 . S
H554 C564 0.930 . S
H555 C567 0.929 . S
H556 C570 0.930 . S
H557 C572 0.960 . S
H558 C572 0.960 . S
H559 C572 0.960 . S
C560 H552 0.929 . S
C560 C561 1.377 . S
C560 C562 1.384 . S
C561 C560 1.377 . S
C561 C567 1.390 . S
C562 H553 0.930 . S
C562 C560 1.384 . S
C562 C563 1.372 . S
C563 C562 1.372 . S
C563 C564 1.400 . S
C563 C568 1.490 . S
C564 H554 0.930 . S
C564 C563 1.400 . S
C564 C567 1.386 . S
H565 C581 0.930 . S
H566 C582 0.931 . S
C567 H555 0.929 . S
C567 C561 1.390 . S
C567 C564 1.386 . S
C568 C563 1.490 . S
C568 C570 1.395 . S
C568 C571 1.403 . S
H569 C575 0.930 . S
C570 H556 0.930 . S
C570 C568 1.395 . S
C570 C573 1.403 . S
C571 C568 1.403 . S
C571 C572 1.524 . S
C571 C575 1.400 . S
C572 H557 0.960 . S
C572 H558 0.960 . S
C572 H559 0.960 . S
C572 C571 1.524 . S
C573 C570 1.403 . S
C573 C574 1.392 . S
C573 C577 1.495 . S
C574 C573 1.392 . S
C574 C575 1.385 . S
C574 C576 1.478 . S
C575 H569 0.930 . S
C575 C571 1.400 . S
C575 C574 1.385 . S
C576 C574 1.478 . S
C576 C578 1.381 . S
C576 C582 1.383 . S
C577 C573 1.495 . S
C577 H583 0.959 . S
C577 H584 0.961 . S
C577 H585 0.960 . S
C578 C576 1.381 . S
C578 C579 1.394 . S
C578 H586 0.930 . S
C579 C578 1.394 . S
C579 C580 1.383 . S
C579 H587 0.929 . S
C580 C579 1.383 . S
C580 C581 1.377 . S
C581 H565 0.930 . S
C581 C580 1.377 . S
C581 C582 1.379 . S
C582 H566 0.931 . S
C582 C576 1.383 . S
C582 C581 1.379 . S
H583 C577 0.959 . S
H584 C577 0.961 . S
H585 C577 0.960 . S
H586 C578 0.930 . S
H587 C579 0.929 . S
H588 C596 0.929 . S
H589 C598 0.930 . S
H590 C600 0.930 . S
H591 C603 0.929 . S
H592 C606 0.930 . S
H593 C608 0.960 . S
H594 C608 0.960 . S
H595 C608 0.960 . S
C596 H588 0.929 . S
C596 C597 1.377 . S
C596 C598 1.384 . S
C597 C596 1.377 . S
C597 C603 1.390 . S
C598 H589 0.930 . S
C598 C596 1.384 . S
C598 C599 1.372 . S
C599 C598 1.372 . S
C599 C600 1.400 . S
C599 C604 1.490 . S
C600 H590 0.930 . S
C600 C599 1.400 . S
C600 C603 1.386 . S
H601 C617 0.930 . S
H602 C618 0.931 . S
C603 H591 0.929 . S
C603 C597 1.390 . S
C603 C600 1.386 . S
C604 C599 1.490 . S
C604 C606 1.395 . S
C604 C607 1.403 . S
H605 C611 0.930 . S
C606 H592 0.930 . S
C606 C604 1.395 . S
C606 C609 1.403 . S
C607 C604 1.403 . S
C607 C608 1.524 . S
C607 C611 1.400 . S
C608 H593 0.960 . S
C608 H594 0.960 . S
C608 H595 0.960 . S
C608 C607 1.524 . S
C609 C606 1.403 . S
C609 C610 1.392 . S
C609 C613 1.495 . S
C610 C609 1.392 . S
C610 C611 1.385 . S
C610 C612 1.478 . S
C611 H605 0.930 . S
C611 C607 1.400 . S
C611 C610 1.385 . S
C612 C610 1.478 . S
C612 C614 1.381 . S
C612 C618 1.383 . S
C613 C609 1.495 . S
C613 H619 0.959 . S
C613 H620 0.961 . S
C613 H621 0.960 . S
C614 C612 1.381 . S
C614 C615 1.394 . S
C614 H622 0.930 . S
C615 C614 1.394 . S
C615 C616 1.383 . S
C615 H623 0.929 . S
C616 C615 1.383 . S
C616 C617 1.377 . S
C617 H601 0.930 . S
C617 C616 1.377 . S
C617 C618 1.379 . S
C618 H602 0.931 . S
C618 C612 1.383 . S
C618 C617 1.379 . S
H619 C613 0.959 . S
H620 C613 0.961 . S
H621 C613 0.960 . S
H622 C614 0.930 . S
H623 C615 0.929 . S
H624 C632 0.929 . S
H625 C634 0.930 . S
H626 C636 0.930 . S
H627 C639 0.929 . S
H628 C642 0.930 . S
H629 C644 0.960 . S
H630 C644 0.960 . S
H631 C644 0.960 . S
C632 H624 0.929 . S
C632 C633 1.377 . S
C632 C634 1.384 . S
C633 C632 1.377 . S
C633 C639 1.390 . S
C634 H625 0.930 . S
C634 C632 1.384 . S
C634 C635 1.372 . S
C635 C634 1.372 . S
C635 C636 1.400 . S
C635 C640 1.490 . S
C636 H626 0.930 . S
C636 C635 1.400 . S
C636 C639 1.386 . S
H637 C653 0.930 . S
H638 C654 0.931 . S
C639 H627 0.929 . S
C639 C633 1.390 . S
C639 C636 1.386 . S
C640 C635 1.490 . S
C640 C642 1.395 . S
C640 C643 1.403 . S
H641 C647 0.930 . S
C642 H628 0.930 . S
C642 C640 1.395 . S
C642 C645 1.403 . S
C643 C640 1.403 . S
C643 C644 1.524 . S
C643 C647 1.400 . S
C644 H629 0.960 . S
C644 H630 0.960 . S
C644 H631 0.960 . S
C644 C643 1.524 . S
C645 C642 1.403 . S
C645 C646 1.392 . S
C645 C649 1.495 . S
C646 C645 1.392 . S
C646 C647 1.385 . S
C646 C648 1.478 . S
C647 H641 0.930 . S
C647 C643 1.400 . S
C647 C646 1.385 . S
C648 C646 1.478 . S
C648 C650 1.381 . S
C648 C654 1.383 . S
C649 C645 1.495 . S
C649 H655 0.959 . S
C649 H656 0.961 . S
C649 H657 0.960 . S
C650 C648 1.381 . S
C650 C651 1.394 . S
C650 H658 0.930 . S
C651 C650 1.394 . S
C651 C652 1.383 . S
C651 H659 0.929 . S
C652 C651 1.383 . S
C652 C653 1.377 . S
C653 H637 0.930 . S
C653 C652 1.377 . S
C653 C654 1.379 . S
C654 H638 0.931 . S
C654 C648 1.383 . S
C654 C653 1.379 . S
H655 C649 0.959 . S
H656 C649 0.961 . S
H657 C649 0.960 . S
H658 C650 0.930 . S
H659 C651 0.929 . S
H660 C668 0.929 . S
H661 C670 0.930 . S
H662 C672 0.930 . S
H663 C675 0.929 . S
H664 C678 0.930 . S
H665 C680 0.960 . S
H666 C680 0.960 . S
H667 C680 0.960 . S
C668 H660 0.929 . S
C668 C669 1.377 . S
C668 C670 1.384 . S
C669 C668 1.377 . S
C669 C675 1.390 . S
C670 H661 0.930 . S
C670 C668 1.384 . S
C670 C671 1.372 . S
C671 C670 1.372 . S
C671 C672 1.400 . S
C671 C676 1.490 . S
C672 H662 0.930 . S
C672 C671 1.400 . S
C672 C675 1.386 . S
H673 C689 0.930 . S
H674 C690 0.931 . S
C675 H663 0.929 . S
C675 C669 1.390 . S
C675 C672 1.386 . S
C676 C671 1.490 . S
C676 C678 1.395 . S
C676 C679 1.403 . S
H677 C683 0.930 . S
C678 H664 0.930 . S
C678 C676 1.395 . S
C678 C681 1.403 . S
C679 C676 1.403 . S
C679 C680 1.524 . S
C679 C683 1.400 . S
C680 H665 0.960 . S
C680 H666 0.960 . S
C680 H667 0.960 . S
C680 C679 1.524 . S
C681 C678 1.403 . S
C681 C682 1.392 . S
C681 C685 1.495 . S
C682 C681 1.392 . S
C682 C683 1.385 . S
C682 C684 1.478 . S
C683 H677 0.930 . S
C683 C679 1.400 . S
C683 C682 1.385 . S
C684 C682 1.478 . S
C684 C686 1.381 . S
C684 C690 1.383 . S
C685 C681 1.495 . S
C685 H691 0.959 . S
C685 H692 0.961 . S
C685 H693 0.960 . S
C686 C684 1.381 . S
C686 C687 1.394 . S
C686 H694 0.930 . S
C687 C686 1.394 . S
C687 C688 1.383 . S
C687 H695 0.929 . S
C688 C687 1.383 . S
C688 C689 1.377 . S
C689 H673 0.930 . S
C689 C688 1.377 . S
C689 C690 1.379 . S
C690 H674 0.931 . S
C690 C684 1.383 . S
C690 C689 1.379 . S
H691 C685 0.959 . S
H692 C685 0.961 . S
H693 C685 0.960 . S
H694 C686 0.930 . S
H695 C687 0.929 . S
H696 C704 0.929 . S
H697 C706 0.930 . S
H698 C708 0.930 . S
H699 C711 0.929 . S
H700 C714 0.930 . S
H701 C716 0.960 . S
H702 C716 0.960 . S
H703 C716 0.960 . S
C704 H696 0.929 . S
C704 C705 1.377 . S
C704 C706 1.384 . S
C705 C704 1.377 . S
C705 C711 1.390 . S
C706 H697 0.930 . S
C706 C704 1.384 . S
C706 C707 1.372 . S
C707 C706 1.372 . S
C707 C708 1.400 . S
C707 C712 1.490 . S
C708 H698 0.930 . S
C708 C707 1.400 . S
C708 C711 1.386 . S
H709 C725 0.930 . S
H710 C726 0.931 . S
C711 H699 0.929 . S
C711 C705 1.390 . S
C711 C708 1.386 . S
C712 C707 1.490 . S
C712 C714 1.395 . S
C712 C715 1.403 . S
H713 C719 0.930 . S
C714 H700 0.930 . S
C714 C712 1.395 . S
C714 C717 1.403 . S
C715 C712 1.403 . S
C715 C716 1.524 . S
C715 C719 1.400 . S
C716 H701 0.960 . S
C716 H702 0.960 . S
C716 H703 0.960 . S
C716 C715 1.524 . S
C717 C714 1.403 . S
C717 C718 1.392 . S
C717 C721 1.495 . S
C718 C717 1.392 . S
C718 C719 1.385 . S
C718 C720 1.478 . S
C719 H713 0.930 . S
C719 C715 1.400 . S
C719 C718 1.385 . S
C720 C718 1.478 . S
C720 C722 1.381 . S
C720 C726 1.383 . S
C721 C717 1.495 . S
C721 H727 0.959 . S
C721 H728 0.961 . S
C721 H729 0.960 . S
C722 C720 1.381 . S
C722 C723 1.394 . S
C722 H730 0.930 . S
C723 C722 1.394 . S
C723 C724 1.383 . S
C723 H731 0.929 . S
C724 C723 1.383 . S
C724 C725 1.377 . S
C725 H709 0.930 . S
C725 C724 1.377 . S
C725 C726 1.379 . S
C726 H710 0.931 . S
C726 C720 1.383 . S
C726 C725 1.379 . S
H727 C721 0.959 . S
H728 C721 0.961 . S
H729 C721 0.960 . S
H730 C722 0.930 . S
H731 C723 0.929 . S
H732 C740 0.929 . S
H733 C742 0.930 . S
H734 C744 0.930 . S
H735 C747 0.929 . S
H736 C750 0.930 . S
H737 C752 0.960 . S
H738 C752 0.960 . S
H739 C752 0.960 . S
C740 H732 0.929 . S
C740 C741 1.377 . S
C740 C742 1.384 . S
C741 C740 1.377 . S
C741 C747 1.390 . S
C742 H733 0.930 . S
C742 C740 1.384 . S
C742 C743 1.372 . S
C743 C742 1.372 . S
C743 C744 1.400 . S
C743 C748 1.490 . S
C744 H734 0.930 . S
C744 C743 1.400 . S
C744 C747 1.386 . S
H745 C761 0.930 . S
H746 C762 0.931 . S
C747 H735 0.929 . S
C747 C741 1.390 . S
C747 C744 1.386 . S
C748 C743 1.490 . S
C748 C750 1.395 . S
C748 C751 1.403 . S
H749 C755 0.930 . S
C750 H736 0.930 . S
C750 C748 1.395 . S
C750 C753 1.403 . S
C751 C748 1.403 . S
C751 C752 1.524 . S
C751 C755 1.400 . S
C752 H737 0.960 . S
C752 H738 0.960 . S
C752 H739 0.960 . S
C752 C751 1.524 . S
C753 C750 1.403 . S
C753 C754 1.392 . S
C753 C757 1.495 . S
C754 C753 1.392 . S
C754 C755 1.385 . S
C754 C756 1.478 . S
C755 H749 0.930 . S
C755 C751 1.400 . S
C755 C754 1.385 . S
C756 C754 1.478 . S
C756 C758 1.381 . S
C756 C762 1.383 . S
C757 C753 1.495 . S
C757 H763 0.959 . S
C757 H764 0.961 . S
C757 H765 0.960 . S
C758 C756 1.381 . S
C758 C759 1.394 . S
C758 H766 0.930 . S
C759 C758 1.394 . S
C759 C760 1.383 . S
C759 H767 0.929 . S
C760 C759 1.383 . S
C760 C761 1.377 . S
C761 H745 0.930 . S
C761 C760 1.377 . S
C761 C762 1.379 . S
C762 H746 0.931 . S
C762 C756 1.383 . S
C762 C761 1.379 . S
H763 C757 0.959 . S
H764 C757 0.961 . S
H765 C757 0.960 . S
H766 C758 0.930 . S
H767 C759 0.929 . S
H768 C776 0.929 . S
H769 C778 0.930 . S
H770 C780 0.930 . S
H771 C783 0.929 . S
H772 C786 0.930 . S
H773 C788 0.960 . S
H774 C788 0.960 . S
H775 C788 0.960 . S
C776 H768 0.929 . S
C776 C777 1.377 . S
C776 C778 1.384 . S
C777 C776 1.377 . S
C777 C783 1.390 . S
C778 H769 0.930 . S
C778 C776 1.384 . S
C778 C779 1.372 . S
C779 C778 1.372 . S
C779 C780 1.400 . S
C779 C784 1.490 . S
C780 H770 0.930 . S
C780 C779 1.400 . S
C780 C783 1.386 . S
H781 C797 0.930 . S
H782 C798 0.931 . S
C783 H771 0.929 . S
C783 C777 1.390 . S
C783 C780 1.386 . S
C784 C779 1.490 . S
C784 C786 1.395 . S
C784 C787 1.403 . S
H785 C791 0.930 . S
C786 H772 0.930 . S
C786 C784 1.395 . S
C786 C789 1.403 . S
C787 C784 1.403 . S
C787 C788 1.524 . S
C787 C791 1.400 . S
C788 H773 0.960 . S
C788 H774 0.960 . S
C788 H775 0.960 . S
C788 C787 1.524 . S
C789 C786 1.403 . S
C789 C790 1.392 . S
C789 C793 1.495 . S
C790 C789 1.392 . S
C790 C791 1.385 . S
C790 C792 1.478 . S
C791 H785 0.930 . S
C791 C787 1.400 . S
C791 C790 1.385 . S
C792 C790 1.478 . S
C792 C794 1.381 . S
C792 C798 1.383 . S
C793 C789 1.495 . S
C793 H799 0.959 . S
C793 H800 0.961 . S
C793 H801 0.960 . S
C794 C792 1.381 . S
C794 C795 1.394 1_554 S
C794 H802 0.930 . S
C795 C794 1.394 1_556 S
C795 C796 1.383 . S
C795 H803 0.929 . S
C796 C795 1.383 . S
C796 C797 1.377 . S
C797 H781 0.930 . S
C797 C796 1.377 . S
C797 C798 1.379 1_556 S
C798 H782 0.931 . S
C798 C792 1.383 . S
C798 C797 1.379 1_554 S
H799 C793 0.959 . S
H800 C793 0.961 . S
H801 C793 0.960 . S
H802 C794 0.930 . S
H803 C795 0.929 . S
H804 C812 0.929 . S
H805 C814 0.930 . S
H806 C816 0.930 1_565 S
H807 C819 0.929 1_565 S
H808 C822 0.930 . S
H809 C824 0.960 . S
H810 C824 0.960 . S
H811 C824 0.960 . S
C812 H804 0.929 . S
C812 C813 1.377 . S
C812 C814 1.384 . S
C813 C812 1.377 . S
C813 C819 1.390 . S
C814 H805 0.930 . S
C814 C812 1.384 . S
C814 C815 1.372 . S
C815 C814 1.372 . S
C815 C816 1.400 . S
C815 C820 1.490 . S
C816 H806 0.930 1_545 S
C816 C815 1.400 . S
C816 C819 1.386 . S
H817 C833 0.930 1_565 S
H818 C834 0.931 1_565 S
C819 H807 0.929 1_545 S
C819 C813 1.390 . S
C819 C816 1.386 . S
C820 C815 1.490 . S
C820 C822 1.395 . S
C820 C823 1.403 . S
H821 C827 0.930 . S
C822 H808 0.930 . S
C822 C820 1.395 . S
C822 C825 1.403 . S
C823 C820 1.403 . S
C823 C824 1.524 . S
C823 C827 1.400 . S
C824 H809 0.960 . S
C824 H810 0.960 . S
C824 H811 0.960 . S
C824 C823 1.524 . S
C825 C822 1.403 . S
C825 C826 1.392 . S
C825 C829 1.495 . S
C826 C825 1.392 . S
C826 C827 1.385 . S
C826 C828 1.478 . S
C827 H821 0.930 . S
C827 C823 1.400 . S
C827 C826 1.385 . S
C828 C826 1.478 . S
C828 C830 1.381 . S
C828 C834 1.383 . S
C829 C825 1.495 . S
C829 H835 0.959 . S
C829 H836 0.961 . S
C829 H837 0.960 . S
C830 C828 1.381 . S
C830 C831 1.394 . S
C830 H838 0.930 . S
C831 C830 1.394 . S
C831 C832 1.383 . S
C831 H839 0.929 . S
C832 C831 1.383 . S
C832 C833 1.377 . S
C833 H817 0.930 1_545 S
C833 C832 1.377 . S
C833 C834 1.379 . S
C834 H818 0.931 1_545 S
C834 C828 1.383 . S
C834 C833 1.379 . S
H835 C829 0.959 . S
H836 C829 0.961 . S
H837 C829 0.960 . S
H838 C830 0.930 . S
H839 C831 0.929 . S
H840 C848 0.929 . S
H841 C850 0.930 . S
H842 C852 0.930 . S
H843 C855 0.929 . S
H844 C858 0.930 . S
H845 C860 0.960 . S
H846 C860 0.960 . S
H847 C860 0.960 . S
C848 H840 0.929 . S
C848 C849 1.377 . S
C848 C850 1.384 . S
C849 C848 1.377 . S
C849 C855 1.390 . S
C850 H841 0.930 . S
C850 C848 1.384 . S
C850 C851 1.372 . S
C851 C850 1.372 . S
C851 C852 1.400 . S
C851 C856 1.490 . S
C852 H842 0.930 . S
C852 C851 1.400 . S
C852 C855 1.386 . S
H853 C869 0.930 . S
H854 C870 0.931 . S
C855 H843 0.929 . S
C855 C849 1.390 . S
C855 C852 1.386 . S
C856 C851 1.490 . S
C856 C858 1.395 . S
C856 C859 1.403 . S
H857 C863 0.930 . S
C858 H844 0.930 . S
C858 C856 1.395 . S
C858 C861 1.403 . S
C859 C856 1.403 . S
C859 C860 1.524 . S
C859 C863 1.400 . S
C860 H845 0.960 . S
C860 H846 0.960 . S
C860 H847 0.960 . S
C860 C859 1.524 . S
C861 C858 1.403 . S
C861 C862 1.392 . S
C861 C865 1.495 . S
C862 C861 1.392 . S
C862 C863 1.385 . S
C862 C864 1.478 . S
C863 H857 0.930 . S
C863 C859 1.400 . S
C863 C862 1.385 . S
C864 C862 1.478 . S
C864 C866 1.381 . S
C864 C870 1.383 . S
C865 C861 1.495 . S
C865 H871 0.959 . S
C865 H872 0.961 . S
C865 H873 0.960 . S
C866 C864 1.381 . S
C866 C867 1.394 . S
C866 H874 0.930 . S
C867 C866 1.394 . S
C867 C868 1.383 . S
C867 H875 0.929 . S
C868 C867 1.383 . S
C868 C869 1.377 . S
C869 H853 0.930 . S
C869 C868 1.377 . S
C869 C870 1.379 . S
C870 H854 0.931 . S
C870 C864 1.383 . S
C870 C869 1.379 . S
H871 C865 0.959 . S
H872 C865 0.961 . S
H873 C865 0.960 . S
H874 C866 0.930 . S
H875 C867 0.929 . S
H876 C884 0.929 . S
H877 C886 0.930 . S
H878 C888 0.930 . S
H879 C891 0.929 . S
H880 C894 0.930 . S
H881 C896 0.960 . S
H882 C896 0.960 1_545 S
H883 C896 0.960 . S
C884 H876 0.929 . S
C884 C885 1.377 . S
C884 C886 1.384 . S
C885 C884 1.377 . S
C885 C891 1.390 1_545 S
C886 H877 0.930 . S
C886 C884 1.384 . S
C886 C887 1.372 . S
C887 C886 1.372 . S
C887 C888 1.400 1_545 S
C887 C892 1.490 . S
C888 H878 0.930 . S
C888 C887 1.400 1_565 S
C888 C891 1.386 . S
H889 C905 0.930 . S
H890 C906 0.931 . S
C891 H879 0.929 . S
C891 C885 1.390 1_565 S
C891 C888 1.386 . S
C892 C887 1.490 . S
C892 C894 1.395 . S
C892 C895 1.403 . S
H893 C899 0.938 . S
C894 H880 0.930 . S
C894 C892 1.395 . S
C894 C897 1.403 . S
C895 C892 1.403 . S
C895 C896 1.524 1_545 S
C895 C899 1.399 1_545 S
C896 H881 0.960 . S
C896 H882 0.960 1_565 S
C896 H883 0.960 . S
C896 C895 1.524 1_565 S
C897 C894 1.403 . S
C897 C898 1.392 . S
C897 C901 1.495 . S
C898 C897 1.392 . S
C898 C899 1.379 1_545 S
C898 C900 1.478 . S
C899 H893 0.938 . S
C899 C895 1.399 1_565 S
C899 C898 1.379 1_565 S
C900 C898 1.478 . S
C900 C902 1.381 . S
C900 C906 1.383 1_545 S
C901 C897 1.495 . S
C901 H907 0.959 . S
C901 H908 0.961 . S
C901 H909 0.960 . S
C902 C900 1.381 . S
C902 C903 1.394 . S
C902 H910 0.930 . S
C903 C902 1.394 . S
C903 C904 1.383 1_545 S
C903 H911 0.929 . S
C904 C903 1.383 1_565 S
C904 C905 1.377 . S
C905 H889 0.930 . S
C905 C904 1.377 . S
C905 C906 1.379 . S
C906 H890 0.931 . S
C906 C900 1.383 1_565 S
C906 C905 1.379 . S
H907 C901 0.959 . S
H908 C901 0.961 . S
H909 C901 0.960 . S
H910 C902 0.930 . S
H911 C903 0.929 . S
H912 C920 0.929 . S
H913 C922 0.930 . S
H914 C924 0.930 . S
H915 C927 0.929 . S
H916 C930 0.930 . S
H917 C932 0.960 . S
H918 C932 0.960 . S
H919 C932 0.960 . S
C920 H912 0.929 . S
C920 C921 1.377 . S
C920 C922 1.384 . S
C921 C920 1.377 . S
C921 C927 1.390 . S
C922 H913 0.930 . S
C922 C920 1.384 . S
C922 C923 1.372 . S
C923 C922 1.372 . S
C923 C924 1.400 . S
C923 C928 1.490 . S
C924 H914 0.930 . S
C924 C923 1.400 . S
C924 C927 1.386 . S
H925 C941 0.930 . S
H926 C942 0.931 . S
C927 H915 0.929 . S
C927 C921 1.390 . S
C927 C924 1.386 . S
C928 C923 1.490 . S
C928 C930 1.395 . S
C928 C931 1.403 . S
H929 C935 0.930 . S
C930 H916 0.930 . S
C930 C928 1.395 . S
C930 C933 1.403 . S
C931 C928 1.403 . S
C931 C932 1.524 . S
C931 C935 1.400 . S
C932 H917 0.960 . S
C932 H918 0.960 . S
C932 H919 0.960 . S
C932 C931 1.524 . S
C933 C930 1.403 . S
C933 C934 1.392 . S
C933 C937 1.495 . S
C934 C933 1.392 . S
C934 C935 1.385 . S
C934 C936 1.478 . S
C935 H929 0.930 . S
C935 C931 1.400 . S
C935 C934 1.385 . S
C936 C934 1.478 . S
C936 C938 1.381 . S
C936 C942 1.383 . S
C937 C933 1.495 . S
C937 H943 0.959 . S
C937 H944 0.961 . S
C937 H945 0.960 . S
C938 C936 1.381 . S
C938 C939 1.394 1_556 S
C938 H946 0.930 . S
C939 C938 1.394 1_554 S
C939 C940 1.383 . S
C939 H947 0.929 . S
C940 C939 1.383 . S
C940 C941 1.377 . S
C941 H925 0.930 . S
C941 C940 1.377 . S
C941 C942 1.379 1_554 S
C942 H926 0.931 . S
C942 C936 1.383 . S
C942 C941 1.379 1_556 S
H943 C937 0.959 . S
H944 C937 0.961 . S
H945 C937 0.960 . S
H946 C938 0.930 . S
H947 C939 0.929 . S
H948 C956 0.929 . S
H949 C958 0.930 . S
H950 C960 0.930 . S
H951 C963 0.929 . S
H952 C966 0.930 . S
H953 C968 0.960 . S
H954 C968 0.960 . S
H955 C968 0.960 . S
C956 H948 0.929 . S
C956 C957 1.377 . S
C956 C958 1.384 . S
C957 C956 1.377 . S
C957 C963 1.390 . S
C958 H949 0.930 . S
C958 C956 1.384 . S
C958 C959 1.372 . S
C959 C958 1.372 . S
C959 C960 1.400 . S
C959 C964 1.490 . S
C960 H950 0.930 . S
C960 C959 1.400 . S
C960 C963 1.386 . S
H961 C977 0.930 . S
H962 C978 0.931 . S
C963 H951 0.929 . S
C963 C957 1.390 . S
C963 C960 1.386 . S
C964 C959 1.490 . S
C964 C966 1.395 1_455 S
C964 C967 1.403 . S
H965 C971 0.930 . S
C966 H952 0.930 . S
C966 C964 1.395 1_655 S
C966 C969 1.403 . S
C967 C964 1.403 . S
C967 C968 1.524 . S
C967 C971 1.400 . S
C968 H953 0.960 . S
C968 H954 0.960 . S
C968 H955 0.960 . S
C968 C967 1.524 . S
C969 C966 1.403 . S
C969 C970 1.392 1_655 S
C969 C973 1.495 . S
C970 C969 1.392 1_455 S
C970 C971 1.385 . S
C970 C972 1.483 . S
C971 H965 0.930 . S
C971 C967 1.400 . S
C971 C970 1.385 . S
C972 C970 1.483 . S
C972 C974 1.370 . S
C972 C978 1.391 1_455 S
C973 C969 1.495 . S
C973 H979 0.959 . S
C973 H980 0.961 . S
C973 H981 0.960 . S
C974 C972 1.370 . S
C974 C975 1.394 . S
C974 H982 0.930 . S
C975 C974 1.394 . S
C975 C976 1.383 1_455 S
C975 H983 0.929 . S
C976 C975 1.383 1_655 S
C976 C977 1.377 . S
C977 H961 0.930 . S
C977 C976 1.377 . S
C977 C978 1.379 . S
C978 H962 0.931 . S
C978 C972 1.391 1_655 S
C978 C977 1.379 . S
H979 C973 0.959 . S
H980 C973 0.961 . S
H981 C973 0.960 . S
H982 C974 0.930 . S
H983 C975 0.929 . S
C345 C25 0.309 . S
C364 C325 0.356 . S
C381 C65 0.266 . S
C400 C253 0.244 . S
C417 C105 0.299 . S
C436 C289 0.363 . S
C453 C4 0.277 . S
C472 C301 0.207 . S
C508 C229 0.234 . S
C489 C44 0.281 . S
C544 C265 0.322 . S
C525 C84 0.312 . S
C561 C60 2.827 . S
C580 C181 2.759 . S
C597 C100 3.034 . S
C616 C193 2.977 . S
C633 C31 3.041 . S
C652 C121 3.000 . S
C688 C157 2.992 . S
C669 C71 3.022 . S
C724 C217 2.750 . S
C705 C111 2.817 . S
C741 C20 2.824 . S
C760 C145 2.762 . S
C796 C223 1.775 . S
C777 C2 1.730 . S
C813 C42 1.740 . S
C832 C151 1.766 . S
C849 C82 1.737 . S
C868 C187 1.780 . S
C904 C295 1.084 . S
C885 C63 1.068 . S
C940 C331 1.121 . S
C921 C103 1.105 . S
C957 C23 1.072 . S
C976 C259 1.095 1_655 S
