# Generated by pormake.
# Topology nom, (4,4)-cn, num edge types: 1
# Building blocks:
#     Node 0, Type 0, BuildingBlock: MIFKUJ_clean_linker_1, # of connection points: 4
#     Node 1, Type 0, BuildingBlock: MIFKUJ_clean_linker_1, # of connection points: 4
#     Node 2, Type 0, BuildingBlock: MIFKUJ_clean_linker_1, # of connection points: 4
#     Node 3, Type 0, BuildingBlock: MIFKUJ_clean_linker_1, # of connection points: 4
#     Node 4, Type 0, BuildingBlock: MIFKUJ_clean_linker_1, # of connection points: 4
#     Node 5, Type 0, BuildingBlock: MIFKUJ_clean_linker_1, # of connection points: 4
#     Node 6, Type 1, BuildingBlock: CEKHIL_clean_sbu_0, # of connection points: 4
#     Node 7, Type 1, BuildingBlock: CEKHIL_clean_sbu_0, # of connection points: 4
#     Node 8, Type 1, BuildingBlock: CEKHIL_clean_sbu_0, # of connection points: 4
#     Node 9, Type 1, BuildingBlock: CEKHIL_clean_sbu_0, # of connection points: 4
#     Node 10, Type 1, BuildingBlock: CEKHIL_clean_sbu_0, # of connection points: 4
#     Node 11, Type 1, BuildingBlock: CEKHIL_clean_sbu_0, # of connection points: 4
#     Edge 12, Type (0, 1), BuildingBlock: XIVTED_clean_linker_0, # of connection points: 2
#     Edge 13, Type (0, 1), BuildingBlock: XIVTED_clean_linker_0, # of connection points: 2
#     Edge 14, Type (0, 1), BuildingBlock: XIVTED_clean_linker_0, # of connection points: 2
#     Edge 15, Type (0, 1), BuildingBlock: XIVTED_clean_linker_0, # of connection points: 2
#     Edge 16, Type (0, 1), BuildingBlock: XIVTED_clean_linker_0, # of connection points: 2
#     Edge 17, Type (0, 1), BuildingBlock: XIVTED_clean_linker_0, # of connection points: 2
#     Edge 18, Type (0, 1), BuildingBlock: XIVTED_clean_linker_0, # of connection points: 2
#     Edge 19, Type (0, 1), BuildingBlock: XIVTED_clean_linker_0, # of connection points: 2
#     Edge 20, Type (0, 1), BuildingBlock: XIVTED_clean_linker_0, # of connection points: 2
#     Edge 21, Type (0, 1), BuildingBlock: XIVTED_clean_linker_0, # of connection points: 2
#     Edge 22, Type (0, 1), BuildingBlock: XIVTED_clean_linker_0, # of connection points: 2
#     Edge 23, Type (0, 1), BuildingBlock: XIVTED_clean_linker_0, # of connection points: 2
#     Edge 24, Type (0, 1), BuildingBlock: XIVTED_clean_linker_0, # of connection points: 2
#     Edge 25, Type (0, 1), BuildingBlock: XIVTED_clean_linker_0, # of connection points: 2
#     Edge 26, Type (0, 1), BuildingBlock: XIVTED_clean_linker_0, # of connection points: 2
#     Edge 27, Type (0, 1), BuildingBlock: XIVTED_clean_linker_0, # of connection points: 2
#     Edge 28, Type (0, 1), BuildingBlock: XIVTED_clean_linker_0, # of connection points: 2
#     Edge 29, Type (0, 1), BuildingBlock: XIVTED_clean_linker_0, # of connection points: 2
#     Edge 30, Type (0, 1), BuildingBlock: XIVTED_clean_linker_0, # of connection points: 2
#     Edge 31, Type (0, 1), BuildingBlock: XIVTED_clean_linker_0, # of connection points: 2
#     Edge 32, Type (0, 1), BuildingBlock: XIVTED_clean_linker_0, # of connection points: 2
#     Edge 33, Type (0, 1), BuildingBlock: XIVTED_clean_linker_0, # of connection points: 2
#     Edge 34, Type (0, 1), BuildingBlock: XIVTED_clean_linker_0, # of connection points: 2
#     Edge 35, Type (0, 1), BuildingBlock: XIVTED_clean_linker_0, # of connection points: 2
# Relax obj value: 0.002
# Max RMSD: 0.100
# Mean RMSD: 0.066
data_MOF--net-nom--node1-CEKHIL_clean_sbu_0--node2-MIFKUJ_clean_linker_1--edge1-XIVTED_clean_linker_0
_symmetry_space_group_name_H-M    P1
_symmetry_Int_Tables_number       1
_symmetry_cell_setting            triclinic
loop_
_symmetry_equiv_pos_as_xyz
'x, y, z'
_cell_length_a     53.959908
_cell_length_b     53.377281
_cell_length_c     56.666632
_cell_angle_alpha  89.996324
_cell_angle_beta   90.008432
_cell_angle_gamma 121.11301
loop_
_atom_site_label
_atom_site_type_symbol
_atom_site_fract_x
_atom_site_fract_y
_atom_site_fract_z
_atom_type_partial_charge
H0 H 0.98404 0.49039 0.29177 0.0
H1 H 0.94898 0.46738 0.25991 0.0
H2 H 0.91477 0.52309 0.27519 0.0
H3 H 0.95059 0.54664 0.30692 0.0
H4 H 0.027 0.54665 0.29986 0.0
H5 H 0.93456 0.47605 0.33376 0.0
H6 H 0.88334 0.45675 0.34045 0.0
H7 H 0.90433 0.5347 0.37994 0.0
H8 H 0.95549 0.55492 0.37127 0.0
H9 H 0.0362 0.58796 0.39662 0.0
H10 H 0.06886 0.60165 0.43033 0.0
H11 H 0.1016 0.54866 0.403 0.0
H12 H 0.06798 0.5341 0.36979 0.0
H13 H 0.99265 0.53813 0.38228 0.0
H14 H 0.08398 0.60859 0.35106 0.0
H15 H 0.13472 0.63388 0.33872 0.0
H16 H 0.11641 0.56062 0.29425 0.0
H17 H 0.06594 0.5348 0.30729 0.0
C18 C 0.96973 0.51999 0.30188 0.0
C19 C 0.96924 0.49792 0.2881 0.0
C20 C 0.949 0.4846 0.27004 0.0
C21 C 0.92884 0.49314 0.26526 0.0
C22 C 0.93006 0.51608 0.27845 0.0
C23 C 0.95037 0.52942 0.29664 0.0
C24 C 0.98987 0.53201 0.32224 0.0
C25 C 0.01956 0.54455 0.31794 0.0
C26 C 0.98006 0.53021 0.34571 0.0
C27 C 0.9489 0.51729 0.35147 0.0
C28 C 0.92812 0.48919 0.34355 0.0
C29 C 0.89872 0.47795 0.34776 0.0
C30 C 0.8894 0.49413 0.36072 0.0
C31 C 0.91045 0.52183 0.36943 0.0
C32 C 0.93983 0.5333 0.36475 0.0
C33 C 0.04984 0.56028 0.3805 0.0
C34 C 0.05028 0.57915 0.39795 0.0
C35 C 0.06919 0.58717 0.41712 0.0
C36 C 0.08808 0.57647 0.41929 0.0
C37 C 0.08725 0.55717 0.40198 0.0
C38 C 0.06825 0.54907 0.38283 0.0
C39 C 0.02994 0.55213 0.35999 0.0
C40 C 1.00027 0.54037 0.36425 0.0
C41 C 0.03982 0.55494 0.33642 0.0
C42 C 0.07107 0.56962 0.33029 0.0
C43 C 0.09098 0.59759 0.33915 0.0
C44 C 0.11995 0.61209 0.33203 0.0
C45 C 0.12937 0.59918 0.31552 0.0
C46 C 0.1096 0.5711 0.30689 0.0
C47 C 0.08078 0.55639 0.31431 0.0
H48 H 0.41417 0.94887 0.51538 0.0
H49 H 0.3831 0.89774 0.52692 0.0
H50 H 0.44593 0.87839 0.49891 0.0
H51 H 0.47661 0.92958 0.48696 0.0
H52 H 0.47166 0.98832 0.53007 0.0
H53 H 0.41899 0.95158 0.45353 0.0
H54 H 0.40101 0.91684 0.42081 0.0
H55 H 0.48686 0.93084 0.41109 0.0
H56 H 0.50476 0.96681 0.443 0.0
H57 H 0.54993 0.06826 0.4579 0.0
H58 H 0.5708 0.11976 0.44649 0.0
H59 H 0.50018 0.12088 0.48133 0.0
H60 H 0.47951 0.06968 0.49257 0.0
H61 H 0.49537 0.01988 0.44652 0.0
H62 H 0.55072 0.06149 0.51593 0.0
H63 H 0.5725 0.09643 0.54811 0.0
H64 H 0.48713 0.07262 0.57277 0.0
H65 H 0.46558 0.03651 0.54099 0.0
C66 C 0.4476 0.94294 0.50029 0.0
C67 C 0.42118 0.93356 0.5117 0.0
C68 C 0.40352 0.90435 0.51836 0.0
C69 C 0.41208 0.88396 0.51397 0.0
C70 C 0.43849 0.8934 0.50229 0.0
C71 C 0.4561 0.92266 0.49552 0.0
C72 C 0.46638 0.97411 0.49382 0.0
C73 C 0.47665 0.99523 0.5118 0.0
C74 C 0.47398 0.98306 0.47014 0.0
C75 C 0.46315 0.9617 0.45056 0.0
C76 C 0.43386 0.94715 0.44422 0.0
C77 C 0.4236 0.92706 0.42563 0.0
C78 C 0.44239 0.9208 0.4132 0.0
C79 C 0.47178 0.93539 0.41985 0.0
C80 C 0.48208 0.95585 0.4382 0.0
C81 C 0.51331 0.06529 0.47617 0.0
C82 C 0.53907 0.0797 0.4631 0.0
C83 C 0.551 0.10907 0.45673 0.0
C84 C 0.53703 0.12422 0.463 0.0
C85 C 0.51126 0.10967 0.47609 0.0
C86 C 0.49956 0.08051 0.48265 0.0
C87 C 0.50001 0.0341 0.48272 0.0
C88 C 0.49072 0.01298 0.46481 0.0
C89 C 0.49382 0.02509 0.50652 0.0
C90 C 0.50658 0.04651 0.52607 0.0
C91 C 0.53673 0.06385 0.52828 0.0
C92 C 0.54914 0.08405 0.54664 0.0
C93 C 0.53166 0.0877 0.56307 0.0
C94 C 0.50134 0.07023 0.56072 0.0
C95 C 0.48893 0.04965 0.5425 0.0
H96 H 0.4986 0.5177 0.70051 0.0
H97 H 0.48878 0.54033 0.73357 0.0
H98 H 0.39681 0.48093 0.72374 0.0
H99 H 0.40707 0.45927 0.68976 0.0
H100 H 0.47973 0.45643 0.6947 0.0
H101 H 0.46425 0.53152 0.66149 0.0
H102 H 0.43441 0.55264 0.65407 0.0
H103 H 0.37495 0.47595 0.61365 0.0
H104 H 0.40377 0.454 0.62287 0.0
H105 H 0.44903 0.41983 0.5963 0.0
H106 H 0.46814 0.40599 0.56294 0.0
H107 H 0.55379 0.45411 0.59345 0.0
H108 H 0.53467 0.46862 0.62643 0.0
H109 H 0.45803 0.46978 0.6122 0.0
H110 H 0.46913 0.39424 0.64109 0.0
H111 H 0.49022 0.36473 0.65152 0.0
H112 H 0.54806 0.43157 0.70035 0.0
H113 H 0.528 0.46183 0.68909 0.0
C114 C 0.45359 0.48687 0.69273 0.0
C115 C 0.47633 0.50951 0.70555 0.0
C116 C 0.47061 0.52229 0.7246 0.0
C117 C 0.44194 0.51232 0.73161 0.0
C118 C 0.41912 0.48942 0.71874 0.0
C119 C 0.42491 0.47686 0.69941 0.0
C120 C 0.4604 0.47416 0.67231 0.0
C121 C 0.47534 0.45957 0.6766 0.0
C122 C 0.4531 0.47698 0.64887 0.0
C123 C 0.43594 0.49083 0.64325 0.0
C124 C 0.44451 0.519 0.65141 0.0
C125 C 0.42758 0.53129 0.64677 0.0
C126 C 0.40206 0.51604 0.63326 0.0
C127 C 0.39403 0.48815 0.62454 0.0
C128 C 0.41072 0.47567 0.62955 0.0
C129 C 0.49032 0.445 0.61401 0.0
C130 C 0.47195 0.42756 0.59573 0.0
C131 C 0.48288 0.41946 0.57677 0.0
C132 C 0.51248 0.42875 0.57562 0.0
C133 C 0.53095 0.44673 0.59371 0.0
C134 C 0.51999 0.4548 0.61269 0.0
C135 C 0.47854 0.45296 0.63448 0.0
C136 C 0.46249 0.46651 0.63024 0.0
C137 C 0.48397 0.4483 0.65806 0.0
C138 C 0.49725 0.43059 0.66398 0.0
C139 C 0.48681 0.40295 0.65363 0.0
C140 C 0.4987 0.38597 0.65971 0.0
C141 C 0.52069 0.39591 0.67674 0.0
C142 C 0.53096 0.42336 0.68729 0.0
C143 C 0.5195 0.44062 0.68085 0.0
H144 H 0.0325 0.52055 0.79101 0.0
H145 H 0.06743 0.54315 0.75904 0.0
H146 H 0.10166 0.4876 0.7749 0.0
H147 H 0.06593 0.4644 0.80672 0.0
H148 H 0.98955 0.46473 0.79936 0.0
H149 H 0.08204 0.53494 0.83336 0.0
H150 H 0.13318 0.55425 0.84055 0.0
H151 H 0.11173 0.47618 0.88006 0.0
H152 H 0.06066 0.45598 0.87095 0.0
H153 H 0.97987 0.42357 0.89622 0.0
H154 H 0.94722 0.41026 0.92989 0.0
H155 H 0.91531 0.46388 0.90233 0.0
H156 H 0.94892 0.47804 0.86915 0.0
H157 H 0.02374 0.47318 0.88183 0.0
H158 H 0.93226 0.40317 0.85061 0.0
H159 H 0.88153 0.37824 0.83831 0.0
H160 H 0.90039 0.45159 0.79373 0.0
H161 H 0.95088 0.47705 0.80672 0.0
C162 C 0.04681 0.49103 0.80143 0.0
C163 C 0.04728 0.51296 0.78746 0.0
C164 C 0.06746 0.52606 0.76933 0.0
C165 C 0.08759 0.51745 0.76467 0.0
C166 C 0.0864 0.49467 0.77806 0.0
C167 C 0.06614 0.48154 0.79631 0.0
C168 C 0.02663 0.47915 0.82178 0.0
C169 C 0.99696 0.46681 0.81746 0.0
C170 C 0.03638 0.4809 0.84527 0.0
C171 C 0.06749 0.49368 0.8511 0.0
C172 C 0.08837 0.52177 0.84326 0.0
C173 C 0.11771 0.53301 0.84776 0.0
C174 C 0.12686 0.51683 0.86091 0.0
C175 C 0.10573 0.48907 0.86944 0.0
C176 C 0.0764 0.4776 0.8645 0.0
C177 C 0.96665 0.45152 0.87999 0.0
C178 C 0.96598 0.4326 0.8975 0.0
C179 C 0.94707 0.42479 0.91664 0.0
C180 C 0.92841 0.43578 0.91873 0.0
C181 C 0.92948 0.45515 0.90137 0.0
C182 C 0.94848 0.46302 0.88224 0.0
C183 C 0.98653 0.45942 0.8595 0.0
C184 C 0.01616 0.47094 0.86379 0.0
C185 C 0.9767 0.45662 0.83592 0.0
C186 C 0.94546 0.44216 0.82978 0.0
C187 C 0.9254 0.41427 0.83867 0.0
C188 C 0.89642 0.39997 0.83159 0.0
C189 C 0.88714 0.41301 0.81506 0.0
C190 C 0.90708 0.44101 0.80638 0.0
C191 C 0.93591 0.45551 0.81377 0.0
H192 H 0.60295 0.06389 0.01538 0.0
H193 H 0.63423 0.11504 0.02681 0.0
H194 H 0.5719 0.1348 0.99827 0.0
H195 H 0.54105 0.0836 0.98642 0.0
H196 H 0.5445 0.02499 0.02998 0.0
H197 H 0.59882 0.0612 0.95335 0.0
H198 H 0.6168 0.09576 0.92049 0.0
H199 H 0.53096 0.08176 0.91068 0.0
H200 H 0.51307 0.04599 0.9427 0.0
H201 H 0.47207 0.94836 0.9516 0.0
H202 H 0.45007 0.89697 0.93972 0.0
H203 H 0.50691 0.88721 0.9874 0.0
H204 H 0.52972 0.93863 0.99841 0.0
H205 H 0.52266 0.99301 0.94642 0.0
H206 H 0.46496 0.95223 0.01515 0.0
H207 H 0.44207 0.91742 0.04731 0.0
H208 H 0.52659 0.94093 0.07399 0.0
H209 H 0.54919 0.97694 0.04234 0.0
C210 C 0.56979 0.07005 1.00003 0.0
C211 C 0.59611 0.07931 0.01155 0.0
C212 C 0.61388 0.10853 0.01815 0.0
C213 C 0.60552 0.12904 0.01358 0.0
C214 C 0.57919 0.1197 0.00178 0.0
C215 C 0.56148 0.09044 0.99507 0.0
C216 C 0.55088 0.03888 0.99365 0.0
C217 C 0.53988 0.01792 0.01172 0.0
C218 C 0.54374 0.02981 0.96996 0.0
C219 C 0.55467 0.05107 0.95031 0.0
C220 C 0.58396 0.06558 0.94398 0.0
C221 C 0.59421 0.08557 0.92531 0.0
C222 C 0.57541 0.09177 0.9128 0.0
C223 C 0.54603 0.07724 0.91948 0.0
C224 C 0.53574 0.0569 0.93789 0.0
C225 C 0.50222 0.94732 0.97625 0.0
C226 C 0.4798 0.93517 0.95949 0.0
C227 C 0.46723 0.90587 0.95274 0.0
C228 C 0.47666 0.88818 0.96284 0.0
C229 C 0.49891 0.90027 0.97969 0.0
C230 C 0.51181 0.92962 0.98608 0.0
C231 C 0.51667 0.97878 0.98275 0.0
C232 C 0.52688 -0.00011 0.96473 0.0
C233 C 0.5223 0.98804 0.00658 0.0
C234 C 0.50873 0.96705 0.02634 0.0
C235 C 0.4785 0.94989 0.028 0.0
C236 C 0.46547 0.92976 0.04633 0.0
C237 C 0.48239 0.92599 0.06328 0.0
C238 C 0.51277 0.94341 0.06156 0.0
C239 C 0.52579 0.96395 0.0434 0.0
H240 H 0.51862 0.49594 0.20008 0.0
H241 H 0.52838 0.47353 0.23335 0.0
H242 H 0.62034 0.53316 0.22383 0.0
H243 H 0.61017 0.55465 0.18966 0.0
H244 H 0.53711 0.55694 0.19425 0.0
H245 H 0.55403 0.48265 0.16126 0.0
H246 H 0.58445 0.46221 0.15385 0.0
H247 H 0.64315 0.53919 0.11339 0.0
H248 H 0.61375 0.56048 0.12261 0.0
H249 H 0.56768 0.59332 0.09566 0.0
H250 H 0.54818 0.6064 0.0621 0.0
H251 H 0.46268 0.558 0.09285 0.0
H252 H 0.48218 0.54419 0.126 0.0
H253 H 0.55942 0.54396 0.11186 0.0
H254 H 0.54716 0.61882 0.14046 0.0
H255 H 0.52571 0.64801 0.15087 0.0
H256 H 0.46833 0.58106 0.19982 0.0
H257 H 0.48874 0.55111 0.18857 0.0
C258 C 0.56365 0.5269 0.19244 0.0
C259 C 0.54088 0.50422 0.20522 0.0
C260 C 0.54656 0.49157 0.22439 0.0
C261 C 0.5752 0.50168 0.23157 0.0
C262 C 0.59805 0.52458 0.21872 0.0
C263 C 0.59231 0.53704 0.19927 0.0
C264 C 0.55685 0.53956 0.17196 0.0
C265 C 0.54163 0.55389 0.17617 0.0
C266 C 0.56437 0.5369 0.14856 0.0
C267 C 0.58191 0.52346 0.14301 0.0
C268 C 0.57373 0.49539 0.15118 0.0
C269 C 0.591 0.48348 0.14654 0.0
C270 C 0.61647 0.499 0.13302 0.0
C271 C 0.62412 0.52679 0.12429 0.0
C272 C 0.6071 0.53889 0.12931 0.0
C273 C 0.52649 0.56804 0.1135 0.0
C274 C 0.54471 0.58537 0.0951 0.0
C275 C 0.53355 0.59304 0.07603 0.0
C276 C 0.50388 0.58343 0.07487 0.0
C277 C 0.48558 0.56561 0.0931 0.0
C278 C 0.49676 0.55795 0.11218 0.0
C279 C 0.53847 0.56039 0.13403 0.0
C280 C 0.55483 0.54716 0.12988 0.0
C281 C 0.53288 0.56498 0.15758 0.0
C282 C 0.51931 0.58244 0.16342 0.0
C283 C 0.5295 0.61001 0.15302 0.0
C284 C 0.5174 0.62681 0.15908 0.0
C285 C 0.49545 0.61675 0.17615 0.0
C286 C 0.4854 0.58936 0.18672 0.0
C287 C 0.49707 0.57228 0.1803 0.0
Co288 Co 0.6295 0.37737 0.39964 0.0
O289 O 0.65805 0.379 0.37845 0.0
O290 O 0.66596 0.41382 0.40393 0.0
C291 C 0.61334 0.33129 0.41193 0.0
O292 O 0.60576 0.38255 0.42527 0.0
Co293 Co 0.56418 0.33272 0.39205 0.0
O294 O 0.5609 0.34285 0.42503 0.0
C295 C 0.59338 0.38635 0.36295 0.0
C296 C 0.67617 0.40406 0.38793 0.0
C297 C 0.58049 0.36649 0.43456 0.0
O298 O 0.61684 0.3958 0.37495 0.0
O299 O 0.57063 0.36121 0.36625 0.0
O300 O 0.63638 0.35316 0.42123 0.0
O301 O 0.60222 0.33765 0.39443 0.0
Co302 Co 0.26273 0.63421 0.59147 0.0
O303 O 0.29181 0.63359 0.61056 0.0
O304 O 0.26115 0.59732 0.58738 0.0
C305 C 0.29214 0.67949 0.57682 0.0
O306 O 0.23106 0.6279 0.56817 0.0
Co307 Co 0.24482 0.6801 0.60081 0.0
O308 O 0.22682 0.66765 0.56919 0.0
C309 C 0.22473 0.62958 0.6329 0.0
C310 C 0.28299 0.60785 0.60188 0.0
C311 C 0.22126 0.64359 0.55979 0.0
O312 O 0.2342 0.61767 0.61856 0.0
O313 O 0.22904 0.65531 0.62984 0.0
O314 O 0.29182 0.65712 0.56743 0.0
O315 O 0.27673 0.67406 0.59563 0.0
Co316 Co 0.64088 0.26448 0.73673 0.0
O317 O 0.63994 0.29191 0.71528 0.0
O318 O 0.60438 0.26291 0.73962 0.0
C319 C 0.68554 0.29537 0.75103 0.0
O320 O 0.63441 0.2344 0.76189 0.0
Co321 Co 0.6859 0.24536 0.73099 0.0
O322 O 0.67322 0.22931 0.76331 0.0
C323 C 0.63674 0.22342 0.6979 0.0
C324 C 0.61433 0.28324 0.72356 0.0
C325 C 0.6493 0.22467 0.77174 0.0
O326 O 0.62466 0.23352 0.71131 0.0
O327 O 0.66224 0.22813 0.70155 0.0
O328 O 0.66332 0.29568 0.75948 0.0
O329 O 0.68042 0.27836 0.73315 0.0
Co330 Co 0.38705 0.63572 0.89998 0.0
O331 O 0.35782 0.63375 0.87947 0.0
O332 O 0.35095 0.59886 0.90447 0.0
C333 C 0.40256 0.68151 0.91266 0.0
O334 O 0.41175 0.63093 0.92491 0.0
Co335 Co 0.45178 0.68137 0.89163 0.0
O336 O 0.45609 0.67138 0.92441 0.0
C337 C 0.42297 0.62784 0.86241 0.0
C338 C 0.34017 0.60851 0.88886 0.0
C339 C 0.43708 0.64745 0.93397 0.0
O340 O 0.39964 0.61798 0.87465 0.0
O341 O 0.44552 0.65314 0.86567 0.0
O342 O 0.38018 0.65925 0.9223 0.0
O343 O 0.41349 0.67569 0.8947 0.0
Co344 Co 0.75397 0.37884 0.09108 0.0
O345 O 0.72484 0.37915 0.11028 0.0
O346 O 0.75516 0.41556 0.08705 0.0
C347 C 0.7248 0.3335 0.07646 0.0
O348 O 0.78564 0.38534 0.06769 0.0
Co349 Co 0.77235 0.3333 0.10048 0.0
O350 O 0.79006 0.3457 0.06877 0.0
C351 C 0.79232 0.38392 0.13241 0.0
C352 C 0.73339 0.40485 0.10163 0.0
C353 C 0.79546 0.36968 0.0593 0.0
O354 O 0.7826 0.39561 0.11809 0.0
O355 O 0.78822 0.35826 0.12941 0.0
O356 O 0.72487 0.35576 0.0671 0.0
O357 O 0.74028 0.33905 0.09525 0.0
Co358 Co 0.37546 0.74814 0.23692 0.0
O359 O 0.37625 0.72079 0.21528 0.0
O360 O 0.41189 0.74955 0.23966 0.0
C361 C 0.3308 0.71729 0.25123 0.0
O362 O 0.38211 0.77808 0.26225 0.0
Co363 Co 0.33064 0.76757 0.23154 0.0
O364 O 0.34348 0.78345 0.26389 0.0
C365 C 0.37979 0.78973 0.19845 0.0
C366 C 0.40185 0.72931 0.22352 0.0
C367 C 0.36737 0.7879 0.27222 0.0
O368 O 0.39173 0.77929 0.21167 0.0
O369 O 0.35435 0.78513 0.20218 0.0
O370 O 0.35299 0.71682 0.25956 0.0
O371 O 0.33593 0.73442 0.23344 0.0
H372 H 0.14626 0.60803 0.26951 0.0
H373 H 0.31564 0.69077 0.29459 0.0
H374 H 0.18027 0.6279 0.34036 0.0
H375 H 0.2796 0.70403 0.23117 0.0
H376 H 0.26651 0.66144 0.31086 0.0
H377 H 0.19565 0.63661 0.2541 0.0
C378 C 0.1642 0.61824 0.2818 0.0
C379 C 0.15929 0.61565 0.30621 0.0
C380 C 0.26947 0.67085 0.29341 0.0
C381 C 0.21571 0.64825 0.28876 0.0
C382 C 0.29739 0.68745 0.2841 0.0
C383 C 0.3016 0.69979 0.26152 0.0
C384 C 0.24568 0.66615 0.27982 0.0
C385 C 0.27729 0.69497 0.24868 0.0
C386 C 0.1923 0.63468 0.27302 0.0
C387 C 0.18323 0.62956 0.32141 0.0
N388 N 0.25034 0.67833 0.25794 0.0
N389 N 0.2105 0.64518 0.31243 0.0
H390 H 0.59296 0.17019 0.46617 0.0
H391 H 0.5613 0.28312 0.40041 0.0
H392 H 0.50783 0.14799 0.44298 0.0
H393 H 0.63811 0.31049 0.44207 0.0
H394 H 0.54265 0.23264 0.41303 0.0
H395 H 0.61155 0.22105 0.45428 0.0
C396 C 0.57825 0.17603 0.45848 0.0
C397 C 0.54883 0.15495 0.45559 0.0
C398 C 0.56353 0.24971 0.41948 0.0
C399 C 0.56984 0.21286 0.44199 0.0
C400 C 0.57419 0.2785 0.41227 0.0
C401 C 0.60127 0.30097 0.42022 0.0
C402 C 0.58024 0.24331 0.43451 0.0
C403 C 0.61707 0.2938 0.43559 0.0
C404 C 0.5888 0.20504 0.45186 0.0
C405 C 0.53061 0.16367 0.44572 0.0
N406 N 0.60641 0.26553 0.44212 0.0
N407 N 0.54142 0.19193 0.43918 0.0
H408 H 0.42021 0.57401 0.62584 0.0
H409 H 0.26624 0.55042 0.5931 0.0
H410 H 0.3426 0.48837 0.629 0.0
H411 H 0.33587 0.63084 0.62239 0.0
H412 H 0.29468 0.52711 0.60073 0.0
H413 H 0.3904 0.59533 0.61891 0.0
C414 C 0.39693 0.55961 0.62527 0.0
C415 C 0.38404 0.52924 0.62826 0.0
C416 C 0.30355 0.54981 0.60555 0.0
C417 C 0.34975 0.55369 0.61961 0.0
C418 C 0.2874 0.5631 0.60119 0.0
C419 C 0.29869 0.59257 0.60717 0.0
C420 C 0.33133 0.56635 0.61548 0.0
C421 C 0.32623 0.60803 0.61759 0.0
C422 C 0.37993 0.57186 0.62116 0.0
C423 C 0.35367 0.51181 0.62653 0.0
N424 N 0.34168 0.59483 0.62122 0.0
N425 N 0.33757 0.52427 0.62225 0.0
H426 H 0.87015 0.40437 0.76907 0.0
H427 H 0.7008 0.32174 0.79445 0.0
H428 H 0.83628 0.3845 0.83996 0.0
H429 H 0.7367 0.30882 0.73081 0.0
H430 H 0.74997 0.35106 0.81065 0.0
H431 H 0.82071 0.37601 0.75373 0.0
C432 C 0.85223 0.39421 0.78139 0.0
C433 C 0.8572 0.39674 0.80579 0.0
C434 C 0.74697 0.34173 0.79317 0.0
C435 C 0.80073 0.36436 0.78841 0.0
C436 C 0.71902 0.32513 0.7839 0.0
C437 C 0.71476 0.31288 0.76128 0.0
C438 C 0.77073 0.34651 0.77949 0.0
C439 C 0.73905 0.31781 0.74835 0.0
C440 C 0.8241 0.37789 0.77264 0.0
C441 C 0.83328 0.38289 0.82102 0.0
N442 N 0.76601 0.33443 0.75757 0.0
N443 N 0.80598 0.36738 0.81207 0.0
H444 H 0.46947 0.86722 0.91788 0.0
H445 H 0.39156 0.69927 0.95455 0.0
H446 H 0.45605 0.83959 0.99065 0.0
H447 H 0.43887 0.73229 0.88937 0.0
H448 H 0.40892 0.74968 0.96704 0.0
H449 H 0.45141 0.81655 0.90577 0.0
C450 C 0.46244 0.85039 0.93126 0.0
C451 C 0.46422 0.85746 0.95527 0.0
C452 C 0.41555 0.74583 0.95005 0.0
C453 C 0.44365 0.79973 0.94162 0.0
C454 C 0.40565 0.71714 0.94291 0.0
C455 C 0.41385 0.71169 0.92092 0.0
C456 C 0.43331 0.76911 0.93489 0.0
C457 C 0.43215 0.73558 0.90651 0.0
C458 C 0.45239 0.82161 0.92437 0.0
C459 C 0.45514 0.83496 0.97196 0.0
N460 N 0.44109 0.76328 0.91366 0.0
N461 N 0.44511 0.80702 0.96482 0.0
H462 H 0.67599 0.52744 0.1287 0.0
H463 H 0.68083 0.38145 0.12275 0.0
H464 H 0.59915 0.4412 0.12578 0.0
H465 H 0.74937 0.46211 0.09286 0.0
H466 H 0.65306 0.40493 0.13018 0.0
H467 H 0.70538 0.5056 0.12075 0.0
C468 C 0.66518 0.50399 0.12624 0.0
C469 C 0.63486 0.48621 0.12802 0.0
C470 C 0.67418 0.41753 0.12202 0.0
C471 C 0.66865 0.46114 0.11958 0.0
C472 C 0.69017 0.40421 0.11789 0.0
C473 C 0.71748 0.41986 0.10713 0.0
C474 C 0.68568 0.44689 0.11569 0.0
C475 C 0.72837 0.44926 0.10113 0.0
C476 C 0.68207 0.49159 0.12183 0.0
C477 C 0.62237 0.45586 0.12514 0.0
N478 N 0.71246 0.46193 0.10559 0.0
N479 N 0.6393 0.44433 0.12123 0.0
H480 H 0.40075 0.83334 0.49148 0.0
H481 H 0.2967 0.72922 0.59421 0.0
H482 H 0.3821 0.86446 0.55547 0.0
H483 H 0.32516 0.69738 0.53653 0.0
H484 H 0.32517 0.77858 0.5783 0.0
H485 H 0.37101 0.7831 0.50602 0.0
C486 C 0.39051 0.82966 0.5086 0.0
C487 C 0.39389 0.85323 0.52223 0.0
C488 C 0.32523 0.76085 0.56907 0.0
C489 C 0.35958 0.7958 0.5388 0.0
C490 C 0.30891 0.73262 0.57813 0.0
C491 C 0.30867 0.7092 0.56671 0.0
C492 C 0.34142 0.76579 0.54837 0.0
C493 C 0.32484 0.71488 0.54591 0.0
C494 C 0.37343 0.80097 0.51682 0.0
C495 C 0.37975 0.84704 0.54413 0.0
N496 N 0.34063 0.74266 0.53739 0.0
N497 N 0.36325 0.819 0.55169 0.0
H498 H 0.52685 0.38004 0.72118 0.0
H499 H 0.62106 0.31246 0.68242 0.0
H500 H 0.54182 0.37022 0.64794 0.0
H501 H 0.57099 0.2856 0.74667 0.0
H502 H 0.59643 0.33818 0.67051 0.0
H503 H 0.54745 0.35006 0.73224 0.0
C504 C 0.53453 0.37158 0.70747 0.0
C505 C 0.53274 0.37758 0.68364 0.0
C506 C 0.59068 0.32646 0.68712 0.0
C507 C 0.5564 0.34362 0.6961 0.0
C508 C 0.60476 0.31187 0.69396 0.0
C509 C 0.59802 0.29692 0.71556 0.0
C510 C 0.5702 0.32667 0.70223 0.0
C511 C 0.5767 0.29678 0.72982 0.0
C512 C 0.54606 0.35436 0.71376 0.0
C513 C 0.54274 0.36595 0.6665 0.0
N514 N 0.56376 0.31177 0.72304 0.0
N515 N 0.55444 0.34975 0.67308 0.0
H516 H 0.15621 0.48715 0.86459 0.0
H517 H 0.31175 0.63062 0.86553 0.0
H518 H 0.16964 0.57424 0.8681 0.0
H519 H 0.29738 0.55202 0.89992 0.0
H520 H 0.25985 0.60738 0.85895 0.0
H521 H 0.20804 0.50802 0.87151 0.0
C522 C 0.16984 0.51056 0.86697 0.0
C523 C 0.15827 0.52889 0.8656 0.0
C524 C 0.26805 0.59518 0.86788 0.0
C525 C 0.21773 0.55279 0.87277 0.0
C526 C 0.2977 0.60832 0.87152 0.0
C527 C 0.30892 0.59324 0.88337 0.0
C528 C 0.24937 0.56652 0.87579 0.0
C529 C 0.28958 0.56442 0.89078 0.0
C530 C 0.19945 0.5224 0.87078 0.0
C531 C 0.17739 0.55916 0.86838 0.0
N532 N 0.26064 0.55188 0.88679 0.0
N533 N 0.20611 0.57012 0.87162 0.0
H534 H 0.61717 0.17964 0.9909 0.0
H535 H 0.72062 0.28392 0.09382 0.0
H536 H 0.63538 0.14857 0.05514 0.0
H537 H 0.69191 0.3155 0.03612 0.0
H538 H 0.69245 0.23455 0.07785 0.0
H539 H 0.64687 0.22989 0.00541 0.0
C540 C 0.62731 0.18333 0.00807 0.0
C541 C 0.62379 0.15978 0.02179 0.0
C542 C 0.69228 0.25223 0.06863 0.0
C543 C 0.65806 0.21721 0.03832 0.0
C544 C 0.70842 0.28047 0.07773 0.0
C545 C 0.70849 0.30381 0.06632 0.0
C546 C 0.6761 0.24723 0.04791 0.0
C547 C 0.69235 0.29806 0.0455 0.0
C548 C 0.64437 0.21203 0.01627 0.0
C549 C 0.63782 0.16597 0.04374 0.0
N550 N 0.67674 0.27029 0.03694 0.0
N551 N 0.6543 0.19403 0.05129 0.0
H552 H 0.48941 0.63258 0.22063 0.0
H553 H 0.39481 0.69998 0.18236 0.0
H554 H 0.47394 0.6422 0.14746 0.0
H555 H 0.44527 0.72688 0.24642 0.0
H556 H 0.41933 0.6742 0.1703 0.0
H557 H 0.46872 0.66244 0.23181 0.0
C558 C 0.48158 0.64096 0.20696 0.0
C559 C 0.48328 0.63495 0.18311 0.0
C560 C 0.42518 0.68594 0.18691 0.0
C561 C 0.45952 0.66878 0.19572 0.0
C562 C 0.41117 0.70057 0.19383 0.0
C563 C 0.41806 0.71555 0.21542 0.0
C564 C 0.44574 0.68574 0.20193 0.0
C565 C 0.43945 0.71569 0.22959 0.0
C566 C 0.47001 0.65812 0.21331 0.0
C567 C 0.4731 0.64649 0.16603 0.0
N568 N 0.45232 0.70067 0.22273 0.0
N569 N 0.46137 0.66263 0.17267 0.0
H570 H 0.86032 0.52409 0.36401 0.0
H571 H 0.70396 0.38147 0.36421 0.0
H572 H 0.84615 0.43669 0.36723 0.0
H573 H 0.71937 0.4603 0.39884 0.0
H574 H 0.75585 0.40424 0.35752 0.0
H575 H 0.80848 0.50352 0.37043 0.0
C576 C 0.84653 0.50066 0.36622 0.0
C577 C 0.85792 0.48217 0.36497 0.0
C578 C 0.74786 0.41659 0.3665 0.0
C579 C 0.79841 0.45862 0.37153 0.0
C580 C 0.71823 0.40372 0.3702 0.0
C581 C 0.70733 0.41901 0.38218 0.0
C582 C 0.7668 0.44516 0.37448 0.0
C583 C 0.72692 0.44775 0.38961 0.0
C584 C 0.8169 0.489 0.36973 0.0
C585 C 0.83857 0.4519 0.36747 0.0
N586 N 0.75581 0.46 0.38557 0.0
N587 N 0.80983 0.44111 0.37043 0.0
H588 H 0.10397 0.5433 0.44525 0.0
H589 H 0.20261 0.67402 0.53409 0.0
H590 H 0.11948 0.6309 0.43923 0.0
H591 H 0.1971 0.5904 0.53677 0.0
H592 H 0.17133 0.65764 0.49967 0.0
H593 H 0.1374 0.55929 0.47879 0.0
C594 C 0.11451 0.56592 0.45085 0.0
C595 C 0.1087 0.58573 0.43944 0.0
C596 C 0.17694 0.64282 0.5077 0.0
C597 C 0.14675 0.60405 0.47798 0.0
C598 C 0.19482 0.65214 0.52748 0.0
C599 C 0.20249 0.63353 0.53851 0.0
C600 C 0.16638 0.61455 0.49876 0.0
C601 C 0.19176 0.6055 0.52889 0.0
C602 C 0.13349 0.57498 0.47008 0.0
C603 C 0.12278 0.61468 0.4477 0.0
N604 N 0.17414 0.59681 0.50961 0.0
N605 N 0.14102 0.62289 0.46644 0.0
H606 H 0.51199 0.08377 0.60872 0.0
H607 H 0.65878 0.21615 0.65694 0.0
H608 H 0.58236 0.14126 0.5624 0.0
H609 H 0.57784 0.18912 0.69215 0.0
H610 H 0.63199 0.18469 0.6236 0.0
H611 H 0.5362 0.11851 0.64097 0.0
C612 C 0.53231 0.10375 0.60516 0.0
C613 C 0.54518 0.1093 0.58268 0.0
C614 C 0.62009 0.18577 0.63857 0.0
C615 C 0.57329 0.14871 0.61982 0.0
C616 C 0.63535 0.20359 0.65765 0.0
C617 C 0.6205 0.20519 0.67736 0.0
C618 C 0.58976 0.16892 0.63937 0.0
C619 C 0.59011 0.18858 0.67725 0.0
C620 C 0.54615 0.12349 0.62366 0.0
C621 C 0.57186 0.13548 0.57946 0.0
N622 N 0.5757 0.17082 0.65863 0.0
N623 N 0.58514 0.15399 0.59785 0.0
H624 H 0.39738 0.52298 0.73784 0.0
H625 H 0.47096 0.62871 0.84646 0.0
H626 H 0.4734 0.53319 0.77254 0.0
H627 H 0.37842 0.58414 0.83652 0.0
H628 H 0.47371 0.59822 0.81573 0.0
H629 H 0.39078 0.54868 0.77081 0.0
C630 C 0.41252 0.53028 0.75241 0.0
C631 C 0.43624 0.52614 0.75213 0.0
C632 C 0.45278 0.59502 0.82033 0.0
C633 C 0.42909 0.55617 0.78954 0.0
C634 C 0.4512 0.61253 0.83776 0.0
C635 C 0.42441 0.60899 0.84402 0.0
C636 C 0.4275 0.57416 0.80867 0.0
C637 C 0.39948 0.58749 0.83227 0.0
C638 C 0.40876 0.54506 0.77116 0.0
C639 C 0.45528 0.53652 0.77149 0.0
N640 N 0.40165 0.57103 0.81493 0.0
N641 N 0.45148 0.55131 0.78921 0.0
H642 H 0.91294 0.46934 0.94463 0.0
H643 H 0.81356 0.33894 0.03344 0.0
H644 H 0.89651 0.38139 0.93861 0.0
H645 H 0.81986 0.42291 0.03628 0.0
H646 H 0.8447 0.35509 0.99897 0.0
H647 H 0.87948 0.45362 0.97815 0.0
C648 C 0.90219 0.4467 0.95023 0.0
C649 C 0.90775 0.42671 0.93883 0.0
C650 C 0.83929 0.37004 0.00704 0.0
C651 C 0.86968 0.40871 0.97733 0.0
C652 C 0.8215 0.36085 0.02685 0.0
C653 C 0.81409 0.37962 0.03795 0.0
C654 C 0.85007 0.39835 0.99812 0.0
C655 C 0.82499 0.40769 0.02834 0.0
C656 C 0.88319 0.4378 0.96944 0.0
C657 C 0.8934 0.39775 0.94708 0.0
N658 N 0.84255 0.41626 0.00902 0.0
N659 N 0.87516 0.38969 0.9658 0.0
H660 H 0.43159 0.8725 0.06171 0.0
H661 H 0.43871 0.82386 0.19303 0.0
H662 H 0.50089 0.92911 0.10925 0.0
H663 H 0.35811 0.79786 0.1576 0.0
H664 H 0.46497 0.85617 0.15961 0.0
H665 H 0.40736 0.83845 0.09419 0.0
C666 C 0.44174 0.87796 0.07893 0.0
C667 C 0.46827 0.90413 0.08266 0.0
C668 C 0.44154 0.84327 0.15922 0.0
C669 C 0.44088 0.86449 0.11977 0.0
C670 C 0.42657 0.82477 0.17816 0.0
C671 C 0.39619 0.8083 0.17812 0.0
C672 C 0.426 0.84471 0.13993 0.0
C673 C 0.38152 0.81037 0.15845 0.0
C674 C 0.42793 0.85833 0.09742 0.0
C675 C 0.48067 0.90922 0.10532 0.0
N676 N 0.39656 0.82813 0.1401 0.0
N677 N 0.46688 0.88958 0.12301 0.0
H678 H 0.61974 0.49109 0.2382 0.0
H679 H 0.54568 0.38637 0.34739 0.0
H680 H 0.54361 0.48116 0.27244 0.0
H681 H 0.63803 0.42964 0.33688 0.0
H682 H 0.54316 0.41693 0.3166 0.0
H683 H 0.62618 0.46557 0.27142 0.0
C684 C 0.60454 0.48389 0.25272 0.0
C685 C 0.58083 0.48804 0.25225 0.0
C686 C 0.56401 0.41985 0.3211 0.0
C687 C 0.58781 0.45825 0.28996 0.0
C688 C 0.56545 0.40231 0.33857 0.0
C689 C 0.59211 0.40544 0.34467 0.0
C690 C 0.58929 0.44034 0.30924 0.0
C691 C 0.61707 0.42662 0.33276 0.0
C692 C 0.60821 0.46922 0.27162 0.0
C693 C 0.56173 0.47781 0.27156 0.0
N694 N 0.61503 0.44311 0.31537 0.0
N695 N 0.56545 0.46314 0.28943 0.0
H696 H 0.38888 0.87054 0.40829 0.0
H697 H 0.4238 0.81966 0.28704 0.0
H698 H 0.47078 0.92202 0.37232 0.0
H699 H 0.33736 0.79717 0.30655 0.0
H700 H 0.44255 0.85097 0.3221 0.0
H701 H 0.37076 0.83731 0.37459 0.0
C702 C 0.40308 0.87505 0.39335 0.0
C703 C 0.43143 0.89947 0.39323 0.0
C704 C 0.41949 0.83909 0.31867 0.0
C705 C 0.4109 0.86077 0.35485 0.0
C706 C 0.40875 0.82114 0.29877 0.0
C707 C 0.37898 0.80592 0.29381 0.0
C708 C 0.40026 0.84137 0.33394 0.0
C709 C 0.36049 0.80872 0.30959 0.0
C710 C 0.39271 0.85588 0.37418 0.0
C711 C 0.44895 0.9034 0.37351 0.0
N712 N 0.37141 0.82601 0.329 0.0
N713 N 0.43842 0.88425 0.35516 0.0
H714 H 0.48744 0.37463 0.55519 0.0
H715 H 0.61133 0.41943 0.45786 0.0
H716 H 0.56345 0.46112 0.55096 0.0
H717 H 0.53223 0.33518 0.46175 0.0
H718 H 0.59624 0.43473 0.49319 0.0
H719 H 0.50537 0.3595 0.52203 0.0
C720 C 0.50786 0.39051 0.5472 0.0
C721 C 0.5238 0.41928 0.55578 0.0
C722 C 0.58229 0.41288 0.4863 0.0
C723 C 0.54477 0.40195 0.51777 0.0
C724 C 0.59092 0.4041 0.46616 0.0
C725 C 0.57296 0.37603 0.45665 0.0
C726 C 0.55559 0.39339 0.49701 0.0
C727 C 0.54674 0.35712 0.46822 0.0
C728 C 0.51821 0.3818 0.52832 0.0
C729 C 0.5505 0.43868 0.54502 0.0
N730 N 0.53888 0.36617 0.48767 0.0
N731 N 0.56009 0.42971 0.5265 0.0
H732 H 0.10704 0.4944 0.73092 0.0
H733 H 0.20947 0.65047 0.67059 0.0
H734 H 0.1199 0.57626 0.75696 0.0
H735 H 0.20019 0.5707 0.6428 0.0
H736 H 0.17854 0.62309 0.70348 0.0
H737 H 0.14288 0.5213 0.69981 0.0
C738 C 0.11754 0.51801 0.7302 0.0
C739 C 0.1102 0.53309 0.74638 0.0
C740 C 0.18326 0.61146 0.69029 0.0
C741 C 0.15102 0.56388 0.71091 0.0
C742 C 0.20097 0.62714 0.67139 0.0
C743 C 0.20731 0.61288 0.6537 0.0
C744 C 0.17148 0.58111 0.69164 0.0
C745 C 0.19583 0.58261 0.65599 0.0
C746 C 0.13789 0.53332 0.71241 0.0
C747 C 0.1244 0.56366 0.74458 0.0
N748 N 0.17827 0.56766 0.67454 0.0
N749 N 0.14396 0.57796 0.72717 0.0
H750 H 0.62892 0.14199 0.90766 0.0
H751 H 0.59297 0.1926 0.78674 0.0
H752 H 0.54688 0.09028 0.87193 0.0
H753 H 0.67967 0.21556 0.80585 0.0
H754 H 0.57456 0.1612 0.82177 0.0
H755 H 0.64681 0.17517 0.87391 0.0
C756 C 0.61464 0.13742 0.89276 0.0
C757 C 0.58631 0.11297 0.89274 0.0
C758 C 0.5976 0.1732 0.81826 0.0
C759 C 0.60657 0.1516 0.85431 0.0
C760 C 0.60814 0.1912 0.79837 0.0
C761 C 0.63788 0.20659 0.79331 0.0
C762 C 0.617 0.17103 0.83341 0.0
C763 C 0.65655 0.20389 0.80897 0.0
C764 C 0.62487 0.15655 0.87357 0.0
C765 C 0.56869 0.10893 0.87306 0.0
N766 N 0.64582 0.18655 0.82837 0.0
N767 N 0.57908 0.12806 0.85469 0.0
H768 H 0.45272 0.55029 0.05061 0.0
H769 H 0.48561 0.67958 0.96072 0.0
H770 H 0.52846 0.6371 0.05359 0.0
H771 H 0.40757 0.5944 0.95729 0.0
H772 H 0.50051 0.66412 0.99547 0.0
H773 H 0.43475 0.56576 0.01732 0.0
C774 C 0.4655 0.57264 0.04437 0.0
C775 C 0.49227 0.59237 0.05485 0.0
C776 C 0.48008 0.64875 0.98721 0.0
C777 C 0.4719 0.61012 0.01666 0.0
C778 C 0.47151 0.65757 0.96726 0.0
C779 C 0.44531 0.63822 0.95586 0.0
C780 C 0.46247 0.62025 0.99597 0.0
C781 C 0.42795 0.61006 0.96544 0.0
C782 C 0.45527 0.5814 0.0253 0.0
C783 C 0.50799 0.62095 0.04584 0.0
N784 N 0.43691 0.60186 0.98488 0.0
N785 N 0.49761 0.6289 0.0273 0.0
H786 H 0.89627 0.43424 0.25834 0.0
H787 H 0.81554 0.44255 0.14254 0.0
H788 H 0.90946 0.51573 0.23106 0.0
H789 H 0.80903 0.36375 0.16971 0.0
H790 H 0.84678 0.46975 0.17609 0.0
H791 H 0.86107 0.40808 0.22728 0.0
C792 C 0.8918 0.44665 0.24572 0.0
C793 C 0.90614 0.47725 0.24709 0.0
C794 C 0.83835 0.44648 0.17468 0.0
C795 C 0.8655 0.44731 0.21138 0.0
C796 C 0.82048 0.43092 0.15558 0.0
C797 C 0.80979 0.40082 0.15313 0.0
C798 C 0.84541 0.43175 0.19147 0.0
C799 C 0.81692 0.38694 0.17062 0.0
C800 C 0.87156 0.43168 0.22801 0.0
C801 C 0.89889 0.49211 0.23061 0.0
N802 N 0.83427 0.4025 0.18891 0.0
N803 N 0.87921 0.47701 0.21329 0.0
loop_
_geom_bond_atom_site_label_1
_geom_bond_atom_site_label_2
_geom_bond_distance
_geom_bond_site_symmetry_2
_ccdc_geom_bond_type
H0 C19 0.949 . S
H1 C20 0.950 . S
H2 C22 0.950 . S
H3 C23 0.950 . S
H4 C25 0.950 . S
H5 C28 0.950 . S
H6 C29 0.950 . S
H7 C31 0.951 . S
H8 C32 0.949 . S
H9 C34 0.949 . S
H10 C35 0.950 . S
H11 C37 0.950 . S
H12 C38 0.950 . S
H13 C40 0.944 1_655 S
H14 C43 0.950 . S
H15 C44 0.950 . S
H16 C46 0.951 . S
H17 C47 0.949 . S
C18 C19 1.376 . S
C18 C23 1.386 . S
C18 C24 1.483 . S
C19 H0 0.949 . S
C19 C18 1.376 . S
C19 C20 1.397 . S
C20 H1 0.950 . S
C20 C19 1.397 . S
C20 C21 1.391 . S
C21 C20 1.391 . S
C21 C22 1.405 . S
C22 H2 0.950 . S
C22 C21 1.405 . S
C22 C23 1.367 . S
C23 H3 0.950 . S
C23 C18 1.386 . S
C23 C22 1.367 . S
C24 C18 1.483 . S
C24 C25 1.382 1_655 S
C24 C26 1.403 . S
C25 H4 0.950 . S
C25 C24 1.382 1_455 S
C25 C41 1.411 . S
C26 C24 1.403 . S
C26 C27 1.489 . S
C26 C40 1.399 1_655 S
C27 C26 1.489 . S
C27 C28 1.383 . S
C27 C32 1.382 . S
C28 H5 0.950 . S
C28 C27 1.383 . S
C28 C29 1.395 . S
C29 H6 0.950 . S
C29 C28 1.395 . S
C29 C30 1.288 . S
C30 C29 1.288 . S
C30 C31 1.392 . S
C31 H7 0.951 . S
C31 C30 1.392 . S
C31 C32 1.392 . S
C32 H8 0.949 . S
C32 C27 1.382 . S
C32 C31 1.392 . S
C33 C34 1.376 . S
C33 C38 1.386 . S
C33 C39 1.483 . S
C34 H9 0.949 . S
C34 C33 1.376 . S
C34 C35 1.397 . S
C35 H10 0.950 . S
C35 C34 1.397 . S
C35 C36 1.391 . S
C36 C35 1.391 . S
C36 C37 1.405 . S
C37 H11 0.950 . S
C37 C36 1.405 . S
C37 C38 1.367 . S
C38 H12 0.950 . S
C38 C33 1.386 . S
C38 C37 1.367 . S
C39 C33 1.483 . S
C39 C40 1.400 . S
C39 C41 1.403 . S
C40 H13 0.944 1_455 S
C40 C26 1.399 1_455 S
C40 C39 1.400 . S
C41 C25 1.411 . S
C41 C39 1.403 . S
C41 C42 1.489 . S
C42 C41 1.489 . S
C42 C43 1.383 . S
C42 C47 1.382 . S
C43 H14 0.950 . S
C43 C42 1.383 . S
C43 C44 1.395 . S
C44 H15 0.950 . S
C44 C43 1.395 . S
C44 C45 1.288 . S
C45 C44 1.288 . S
C45 C46 1.392 . S
C46 H16 0.951 . S
C46 C45 1.392 . S
C46 C47 1.392 . S
C47 H17 0.949 . S
C47 C42 1.382 . S
C47 C46 1.392 . S
H48 C67 0.949 . S
H49 C68 0.950 . S
H50 C70 0.950 . S
H51 C71 0.950 . S
H52 C73 0.960 . S
H53 C76 0.950 . S
H54 C77 0.950 . S
H55 C79 0.951 . S
H56 C80 0.949 . S
H57 C82 0.949 . S
H58 C83 0.950 . S
H59 C85 0.950 . S
H60 C86 0.950 . S
H61 C88 0.950 . S
H62 C91 0.950 . S
H63 C92 0.950 . S
H64 C94 0.951 . S
H65 C95 0.949 . S
C66 C67 1.376 . S
C66 C71 1.386 . S
C66 C72 1.483 . S
C67 H48 0.949 . S
C67 C66 1.376 . S
C67 C68 1.397 . S
C68 H49 0.950 . S
C68 C67 1.397 . S
C68 C69 1.391 . S
C69 C68 1.391 . S
C69 C70 1.405 . S
C70 H50 0.950 . S
C70 C69 1.405 . S
C70 C71 1.367 . S
C71 H51 0.950 . S
C71 C66 1.386 . S
C71 C70 1.367 . S
C72 C66 1.483 . S
C72 C73 1.410 . S
C72 C74 1.403 . S
C73 H52 0.960 . S
C73 C72 1.410 . S
C73 C89 1.374 1_565 S
C74 C72 1.403 . S
C74 C75 1.489 . S
C74 C88 1.411 1_565 S
C75 C74 1.489 . S
C75 C76 1.383 . S
C75 C80 1.382 . S
C76 H53 0.950 . S
C76 C75 1.383 . S
C76 C77 1.395 . S
C77 H54 0.950 . S
C77 C76 1.395 . S
C77 C78 1.288 . S
C78 C77 1.288 . S
C78 C79 1.392 . S
C79 H55 0.951 . S
C79 C78 1.392 . S
C79 C80 1.392 . S
C80 H56 0.949 . S
C80 C75 1.382 . S
C80 C79 1.392 . S
C81 C82 1.376 . S
C81 C86 1.386 . S
C81 C87 1.483 . S
C82 H57 0.949 . S
C82 C81 1.376 . S
C82 C83 1.397 . S
C83 H58 0.950 . S
C83 C82 1.397 . S
C83 C84 1.391 . S
C84 C83 1.391 . S
C84 C85 1.405 . S
C85 H59 0.950 . S
C85 C84 1.405 . S
C85 C86 1.367 . S
C86 H60 0.950 . S
C86 C81 1.386 . S
C86 C85 1.367 . S
C87 C81 1.483 . S
C87 C88 1.382 . S
C87 C89 1.403 . S
C88 H61 0.950 . S
C88 C74 1.411 1_545 S
C88 C87 1.382 . S
C89 C73 1.374 1_545 S
C89 C87 1.403 . S
C89 C90 1.489 . S
C90 C89 1.489 . S
C90 C91 1.383 . S
C90 C95 1.382 . S
C91 H62 0.950 . S
C91 C90 1.383 . S
C91 C92 1.395 . S
C92 H63 0.950 . S
C92 C91 1.395 . S
C92 C93 1.288 . S
C93 C92 1.288 . S
C93 C94 1.392 . S
C94 H64 0.951 . S
C94 C93 1.392 . S
C94 C95 1.392 . S
C95 H65 0.949 . S
C95 C90 1.382 . S
C95 C94 1.392 . S
H96 C115 0.949 . S
H97 C116 0.950 . S
H98 C118 0.950 . S
H99 C119 0.950 . S
H100 C121 0.950 . S
H101 C124 0.950 . S
H102 C125 0.950 . S
H103 C127 0.951 . S
H104 C128 0.949 . S
H105 C130 0.949 . S
H106 C131 0.950 . S
H107 C133 0.950 . S
H108 C134 0.950 . S
H109 C136 0.950 . S
H110 C139 0.950 . S
H111 C140 0.950 . S
H112 C142 0.951 . S
H113 C143 0.949 . S
C114 C115 1.376 . S
C114 C119 1.386 . S
C114 C120 1.483 . S
C115 H96 0.949 . S
C115 C114 1.376 . S
C115 C116 1.397 . S
C116 H97 0.950 . S
C116 C115 1.397 . S
C116 C117 1.391 . S
C117 C116 1.391 . S
C117 C118 1.405 . S
C118 H98 0.950 . S
C118 C117 1.405 . S
C118 C119 1.367 . S
C119 H99 0.950 . S
C119 C114 1.386 . S
C119 C118 1.367 . S
C120 C114 1.483 . S
C120 C121 1.382 . S
C120 C122 1.403 . S
C121 H100 0.950 . S
C121 C120 1.382 . S
C121 C137 1.411 . S
C122 C120 1.403 . S
C122 C123 1.489 . S
C122 C136 1.411 . S
C123 C122 1.489 . S
C123 C124 1.383 . S
C123 C128 1.382 . S
C124 H101 0.950 . S
C124 C123 1.383 . S
C124 C125 1.395 . S
C125 H102 0.950 . S
C125 C124 1.395 . S
C125 C126 1.288 . S
C126 C125 1.288 . S
C126 C127 1.392 . S
C127 H103 0.951 . S
C127 C126 1.392 . S
C127 C128 1.392 . S
C128 H104 0.949 . S
C128 C123 1.382 . S
C128 C127 1.392 . S
C129 C130 1.376 . S
C129 C134 1.386 . S
C129 C135 1.483 . S
C130 H105 0.949 . S
C130 C129 1.376 . S
C130 C131 1.397 . S
C131 H106 0.950 . S
C131 C130 1.397 . S
C131 C132 1.391 . S
C132 C131 1.391 . S
C132 C133 1.405 . S
C133 H107 0.950 . S
C133 C132 1.405 . S
C133 C134 1.367 . S
C134 H108 0.950 . S
C134 C129 1.386 . S
C134 C133 1.367 . S
C135 C129 1.483 . S
C135 C136 1.382 . S
C135 C137 1.403 . S
C136 H109 0.950 . S
C136 C122 1.411 . S
C136 C135 1.382 . S
C137 C121 1.411 . S
C137 C135 1.403 . S
C137 C138 1.489 . S
C138 C137 1.489 . S
C138 C139 1.383 . S
C138 C143 1.382 . S
C139 H110 0.950 . S
C139 C138 1.383 . S
C139 C140 1.395 . S
C140 H111 0.950 . S
C140 C139 1.395 . S
C140 C141 1.288 . S
C141 C140 1.288 . S
C141 C142 1.392 . S
C142 H112 0.951 . S
C142 C141 1.392 . S
C142 C143 1.392 . S
C143 H113 0.949 . S
C143 C138 1.382 . S
C143 C142 1.392 . S
H144 C163 0.949 . S
H145 C164 0.950 . S
H146 C166 0.950 . S
H147 C167 0.950 . S
H148 C169 0.950 . S
H149 C172 0.950 . S
H150 C173 0.950 . S
H151 C175 0.951 . S
H152 C176 0.949 . S
H153 C178 0.949 . S
H154 C179 0.950 . S
H155 C181 0.950 . S
H156 C182 0.950 . S
H157 C184 0.950 . S
H158 C187 0.950 . S
H159 C188 0.950 . S
H160 C190 0.951 . S
H161 C191 0.949 . S
C162 C163 1.376 . S
C162 C167 1.386 . S
C162 C168 1.483 . S
C163 H144 0.949 . S
C163 C162 1.376 . S
C163 C164 1.397 . S
C164 H145 0.950 . S
C164 C163 1.397 . S
C164 C165 1.391 . S
C165 C164 1.391 . S
C165 C166 1.405 . S
C166 H146 0.950 . S
C166 C165 1.405 . S
C166 C167 1.367 . S
C167 H147 0.950 . S
C167 C162 1.386 . S
C167 C166 1.367 . S
C168 C162 1.483 . S
C168 C169 1.382 1_455 S
C168 C170 1.403 . S
C169 H148 0.950 . S
C169 C168 1.382 1_655 S
C169 C185 1.411 . S
C170 C168 1.403 . S
C170 C171 1.489 . S
C170 C184 1.411 . S
C171 C170 1.489 . S
C171 C172 1.383 . S
C171 C176 1.382 . S
C172 H149 0.950 . S
C172 C171 1.383 . S
C172 C173 1.395 . S
C173 H150 0.950 . S
C173 C172 1.395 . S
C173 C174 1.288 . S
C174 C173 1.288 . S
C174 C175 1.392 . S
C175 H151 0.951 . S
C175 C174 1.392 . S
C175 C176 1.392 . S
C176 H152 0.949 . S
C176 C171 1.382 . S
C176 C175 1.392 . S
C177 C178 1.376 . S
C177 C182 1.386 . S
C177 C183 1.483 . S
C178 H153 0.949 . S
C178 C177 1.376 . S
C178 C179 1.397 . S
C179 H154 0.950 . S
C179 C178 1.397 . S
C179 C180 1.391 . S
C180 C179 1.391 . S
C180 C181 1.405 . S
C181 H155 0.950 . S
C181 C180 1.405 . S
C181 C182 1.367 . S
C182 H156 0.950 . S
C182 C177 1.386 . S
C182 C181 1.367 . S
C183 C177 1.483 . S
C183 C184 1.382 1_655 S
C183 C185 1.403 . S
C184 H157 0.950 . S
C184 C170 1.411 . S
C184 C183 1.382 1_455 S
C185 C169 1.411 . S
C185 C183 1.403 . S
C185 C186 1.489 . S
C186 C185 1.489 . S
C186 C187 1.383 . S
C186 C191 1.382 . S
C187 H158 0.950 . S
C187 C186 1.383 . S
C187 C188 1.395 . S
C188 H159 0.950 . S
C188 C187 1.395 . S
C188 C189 1.288 . S
C189 C188 1.288 . S
C189 C190 1.392 . S
C190 H160 0.951 . S
C190 C189 1.392 . S
C190 C191 1.392 . S
C191 H161 0.949 . S
C191 C186 1.382 . S
C191 C190 1.392 . S
H192 C211 0.949 . S
H193 C212 0.950 . S
H194 C214 0.950 . S
H195 C215 0.952 1_556 S
H196 C217 0.950 . S
H197 C220 0.950 . S
H198 C221 0.950 . S
H199 C223 0.951 . S
H200 C224 0.949 . S
H201 C226 0.949 . S
H202 C227 0.950 . S
H203 C229 0.950 . S
H204 C230 0.950 . S
H205 C232 0.950 . S
H206 C235 0.950 . S
H207 C236 0.950 . S
H208 C238 0.951 . S
H209 C239 0.949 . S
C210 C211 1.376 . S
C210 C215 1.385 . S
C210 C216 1.472 1_554 S
C211 H192 0.949 . S
C211 C210 1.376 . S
C211 C212 1.397 . S
C212 H193 0.950 . S
C212 C211 1.397 . S
C212 C213 1.391 . S
C213 C212 1.391 . S
C213 C214 1.405 . S
C214 H194 0.950 . S
C214 C213 1.405 . S
C214 C215 1.366 . S
C215 H195 0.952 1_554 S
C215 C210 1.385 . S
C215 C214 1.366 . S
C216 C210 1.472 1_556 S
C216 C217 1.346 1_556 S
C216 C218 1.449 . S
C217 H196 0.950 . S
C217 C216 1.346 1_554 S
C217 C233 1.411 1_545 S
C218 C216 1.449 . S
C218 C219 1.489 . S
C218 C232 1.411 1_545 S
C219 C218 1.489 . S
C219 C220 1.383 . S
C219 C224 1.382 . S
C220 H197 0.950 . S
C220 C219 1.383 . S
C220 C221 1.395 . S
C221 H198 0.950 . S
C221 C220 1.395 . S
C221 C222 1.288 . S
C222 C221 1.288 . S
C222 C223 1.392 . S
C223 H199 0.951 . S
C223 C222 1.392 . S
C223 C224 1.392 . S
C224 H200 0.949 . S
C224 C219 1.382 . S
C224 C223 1.392 . S
C225 C226 1.376 . S
C225 C230 1.386 . S
C225 C231 1.483 . S
C226 H201 0.949 . S
C226 C225 1.376 . S
C226 C227 1.397 . S
C227 H202 0.950 . S
C227 C226 1.397 . S
C227 C228 1.391 . S
C228 C227 1.391 . S
C228 C229 1.405 . S
C229 H203 0.950 . S
C229 C228 1.405 . S
C229 C230 1.367 . S
C230 H204 0.950 . S
C230 C225 1.386 . S
C230 C229 1.367 . S
C231 C225 1.483 . S
C231 C232 1.382 . S
C231 C233 1.403 1_556 S
C232 H205 0.950 . S
C232 C218 1.411 1_565 S
C232 C231 1.382 . S
C233 C217 1.411 1_565 S
C233 C231 1.403 1_554 S
C233 C234 1.489 . S
C234 C233 1.489 . S
C234 C235 1.383 . S
C234 C239 1.382 . S
C235 H206 0.950 . S
C235 C234 1.383 . S
C235 C236 1.395 . S
C236 H207 0.950 . S
C236 C235 1.395 . S
C236 C237 1.288 . S
C237 C236 1.288 . S
C237 C238 1.392 . S
C238 H208 0.951 . S
C238 C237 1.392 . S
C238 C239 1.392 . S
C239 H209 0.949 . S
C239 C234 1.382 . S
C239 C238 1.392 . S
H240 C259 0.949 . S
H241 C260 0.950 . S
H242 C262 0.950 . S
H243 C263 0.950 . S
H244 C265 0.950 . S
H245 C268 0.950 . S
H246 C269 0.950 . S
H247 C271 0.951 . S
H248 C272 0.949 . S
H249 C274 0.949 . S
H250 C275 0.950 . S
H251 C277 0.950 . S
H252 C278 0.950 . S
H253 C280 0.950 . S
H254 C283 0.950 . S
H255 C284 0.950 . S
H256 C286 0.951 . S
H257 C287 0.949 . S
C258 C259 1.376 . S
C258 C263 1.386 . S
C258 C264 1.483 . S
C259 H240 0.949 . S
C259 C258 1.376 . S
C259 C260 1.397 . S
C260 H241 0.950 . S
C260 C259 1.397 . S
C260 C261 1.391 . S
C261 C260 1.391 . S
C261 C262 1.405 . S
C262 H242 0.950 . S
C262 C261 1.405 . S
C262 C263 1.367 . S
C263 H243 0.950 . S
C263 C258 1.386 . S
C263 C262 1.367 . S
C264 C258 1.483 . S
C264 C265 1.382 . S
C264 C266 1.403 . S
C265 H244 0.950 . S
C265 C264 1.382 . S
C265 C281 1.411 . S
C266 C264 1.403 . S
C266 C267 1.489 . S
C266 C280 1.411 . S
C267 C266 1.489 . S
C267 C268 1.383 . S
C267 C272 1.382 . S
C268 H245 0.950 . S
C268 C267 1.383 . S
C268 C269 1.395 . S
C269 H246 0.950 . S
C269 C268 1.395 . S
C269 C270 1.288 . S
C270 C269 1.288 . S
C270 C271 1.392 . S
C271 H247 0.951 . S
C271 C270 1.392 . S
C271 C272 1.392 . S
C272 H248 0.949 . S
C272 C267 1.382 . S
C272 C271 1.392 . S
C273 C274 1.376 . S
C273 C278 1.386 . S
C273 C279 1.483 . S
C274 H249 0.949 . S
C274 C273 1.376 . S
C274 C275 1.397 . S
C275 H250 0.950 . S
C275 C274 1.397 . S
C275 C276 1.391 . S
C276 C275 1.391 . S
C276 C277 1.405 . S
C277 H251 0.950 . S
C277 C276 1.405 . S
C277 C278 1.367 . S
C278 H252 0.950 . S
C278 C273 1.386 . S
C278 C277 1.367 . S
C279 C273 1.483 . S
C279 C280 1.382 . S
C279 C281 1.403 . S
C280 H253 0.950 . S
C280 C266 1.411 . S
C280 C279 1.382 . S
C281 C265 1.411 . S
C281 C279 1.403 . S
C281 C282 1.489 . S
C282 C281 1.489 . S
C282 C283 1.383 . S
C282 C287 1.382 . S
C283 H254 0.950 . S
C283 C282 1.383 . S
C283 C284 1.395 . S
C284 H255 0.950 . S
C284 C283 1.395 . S
C284 C285 1.288 . S
C285 C284 1.288 . S
C285 C286 1.392 . S
C286 H256 0.951 . S
C286 C285 1.392 . S
C286 C287 1.392 . S
C287 H257 0.949 . S
C287 C282 1.382 . S
C287 C286 1.392 . S
Co288 O289 2.216 . S
Co288 O290 2.091 . S
Co288 O292 2.004 . S
Co288 O298 2.021 . S
Co288 O300 2.137 . S
Co288 O301 2.244 . S
O289 Co288 2.216 . S
O289 C296 1.247 . S
O290 Co288 2.091 . S
O290 C296 1.261 . S
C291 O300 1.247 . S
C291 O301 1.272 . S
O292 Co288 2.004 . S
O292 C297 1.259 . S
Co293 O294 2.061 . S
Co293 O299 2.052 . S
Co293 O301 2.135 . S
O294 Co293 2.061 . S
O294 C297 1.235 . S
C295 O298 1.238 . S
C295 O299 1.241 . S
C296 O289 1.247 . S
C296 O290 1.261 . S
C297 O292 1.259 . S
C297 O294 1.235 . S
O298 Co288 2.021 . S
O298 C295 1.238 . S
O299 Co293 2.052 . S
O299 C295 1.241 . S
O300 Co288 2.137 . S
O300 C291 1.247 . S
O301 Co288 2.244 . S
O301 C291 1.272 . S
O301 Co293 2.135 . S
Co302 O303 2.216 . S
Co302 O304 2.091 . S
Co302 O306 2.004 . S
Co302 O312 2.021 . S
Co302 O314 2.137 . S
Co302 O315 2.244 . S
O303 Co302 2.216 . S
O303 C310 1.247 . S
O304 Co302 2.091 . S
O304 C310 1.261 . S
C305 O314 1.247 . S
C305 O315 1.272 . S
O306 Co302 2.004 . S
O306 C311 1.259 . S
Co307 O308 2.061 . S
Co307 O313 2.052 . S
Co307 O315 2.135 . S
O308 Co307 2.061 . S
O308 C311 1.235 . S
C309 O312 1.238 . S
C309 O313 1.241 . S
C310 O303 1.247 . S
C310 O304 1.261 . S
C311 O306 1.259 . S
C311 O308 1.235 . S
O312 Co302 2.021 . S
O312 C309 1.238 . S
O313 Co307 2.052 . S
O313 C309 1.241 . S
O314 Co302 2.137 . S
O314 C305 1.247 . S
O315 Co302 2.244 . S
O315 C305 1.272 . S
O315 Co307 2.135 . S
Co316 O317 2.216 . S
Co316 O318 2.091 . S
Co316 O320 2.004 . S
Co316 O326 2.021 . S
Co316 O328 2.137 . S
Co316 O329 2.244 . S
O317 Co316 2.216 . S
O317 C324 1.247 . S
O318 Co316 2.091 . S
O318 C324 1.261 . S
C319 O328 1.247 . S
C319 O329 1.272 . S
O320 Co316 2.004 . S
O320 C325 1.259 . S
Co321 O322 2.061 . S
Co321 O327 2.052 . S
Co321 O329 2.135 . S
O322 Co321 2.061 . S
O322 C325 1.235 . S
C323 O326 1.238 . S
C323 O327 1.241 . S
C324 O317 1.247 . S
C324 O318 1.261 . S
C325 O320 1.259 . S
C325 O322 1.235 . S
O326 Co316 2.021 . S
O326 C323 1.238 . S
O327 Co321 2.052 . S
O327 C323 1.241 . S
O328 Co316 2.137 . S
O328 C319 1.247 . S
O329 Co316 2.244 . S
O329 C319 1.272 . S
O329 Co321 2.135 . S
Co330 O331 2.216 . S
Co330 O332 2.091 . S
Co330 O334 2.004 . S
Co330 O340 2.021 . S
Co330 O342 2.137 . S
Co330 O343 2.244 . S
O331 Co330 2.216 . S
O331 C338 1.247 . S
O332 Co330 2.091 . S
O332 C338 1.261 . S
C333 O342 1.247 . S
C333 O343 1.272 . S
O334 Co330 2.004 . S
O334 C339 1.259 . S
Co335 O336 2.061 . S
Co335 O341 2.052 . S
Co335 O343 2.135 . S
O336 Co335 2.061 . S
O336 C339 1.235 . S
C337 O340 1.238 . S
C337 O341 1.241 . S
C338 O331 1.247 . S
C338 O332 1.261 . S
C339 O334 1.259 . S
C339 O336 1.235 . S
O340 Co330 2.021 . S
O340 C337 1.238 . S
O341 Co335 2.052 . S
O341 C337 1.241 . S
O342 Co330 2.137 . S
O342 C333 1.247 . S
O343 Co330 2.244 . S
O343 C333 1.272 . S
O343 Co335 2.135 . S
Co344 O345 2.216 . S
Co344 O346 2.091 . S
Co344 O348 2.004 . S
Co344 O354 2.021 . S
Co344 O356 2.137 . S
Co344 O357 2.244 . S
O345 Co344 2.216 . S
O345 C352 1.247 . S
O346 Co344 2.091 . S
O346 C352 1.261 . S
C347 O356 1.247 . S
C347 O357 1.272 . S
O348 Co344 2.004 . S
O348 C353 1.259 . S
Co349 O350 2.061 . S
Co349 O355 2.052 . S
Co349 O357 2.135 . S
O350 Co349 2.061 . S
O350 C353 1.235 . S
C351 O354 1.238 . S
C351 O355 1.241 . S
C352 O345 1.247 . S
C352 O346 1.261 . S
C353 O348 1.259 . S
C353 O350 1.235 . S
O354 Co344 2.021 . S
O354 C351 1.238 . S
O355 Co349 2.052 . S
O355 C351 1.241 . S
O356 Co344 2.137 . S
O356 C347 1.247 . S
O357 Co344 2.244 . S
O357 C347 1.272 . S
O357 Co349 2.135 . S
Co358 O359 2.216 . S
Co358 O360 2.091 . S
Co358 O362 2.004 . S
Co358 O368 2.021 . S
Co358 O370 2.137 . S
Co358 O371 2.244 . S
O359 Co358 2.216 . S
O359 C366 1.247 . S
O360 Co358 2.091 . S
O360 C366 1.261 . S
C361 O370 1.247 . S
C361 O371 1.272 . S
O362 Co358 2.004 . S
O362 C367 1.259 . S
Co363 O364 2.061 . S
Co363 O369 2.052 . S
Co363 O371 2.135 . S
O364 Co363 2.061 . S
O364 C367 1.235 . S
C365 O368 1.238 . S
C365 O369 1.241 . S
C366 O359 1.247 . S
C366 O360 1.261 . S
C367 O362 1.259 . S
C367 O364 1.235 . S
O368 Co358 2.021 . S
O368 C365 1.238 . S
O369 Co363 2.052 . S
O369 C365 1.241 . S
O370 Co358 2.137 . S
O370 C361 1.247 . S
O371 Co358 2.244 . S
O371 C361 1.272 . S
O371 Co363 2.135 . S
H372 C378 0.930 . S
H373 C382 0.930 . S
H374 C387 0.929 . S
H375 C385 0.929 . S
H376 C380 0.929 . S
H377 C386 0.929 . S
C378 H372 0.930 . S
C378 C379 1.367 . S
C378 C386 1.378 . S
C379 C378 1.367 . S
C379 C387 1.433 . S
C380 H376 0.929 . S
C380 C382 1.378 . S
C380 C384 1.350 . S
C381 C384 1.463 . S
C381 C386 1.350 . S
C381 N389 1.427 . S
C382 H373 0.930 . S
C382 C380 1.378 . S
C382 C383 1.367 . S
C383 C382 1.367 . S
C383 C385 1.433 . S
C384 C380 1.350 . S
C384 C381 1.463 . S
C384 N388 1.427 . S
C385 H375 0.929 . S
C385 C383 1.433 . S
C385 N388 1.384 . S
C386 H377 0.929 . S
C386 C378 1.378 . S
C386 C381 1.350 . S
C387 H374 0.929 . S
C387 C379 1.433 . S
C387 N389 1.384 . S
N388 C384 1.427 . S
N388 C385 1.384 . S
N389 C381 1.427 . S
N389 C387 1.384 . S
H390 C396 0.930 . S
H391 C400 0.930 . S
H392 C405 0.929 . S
H393 C403 0.929 . S
H394 C398 0.929 . S
H395 C404 0.929 . S
C396 H390 0.930 . S
C396 C397 1.367 . S
C396 C404 1.378 . S
C397 C396 1.367 . S
C397 C405 1.433 . S
C398 H394 0.929 . S
C398 C400 1.378 . S
C398 C402 1.350 . S
C399 C402 1.463 . S
C399 C404 1.350 . S
C399 N407 1.427 . S
C400 H391 0.930 . S
C400 C398 1.378 . S
C400 C401 1.367 . S
C401 C400 1.367 . S
C401 C403 1.433 . S
C402 C398 1.350 . S
C402 C399 1.463 . S
C402 N406 1.427 . S
C403 H393 0.929 . S
C403 C401 1.433 . S
C403 N406 1.384 . S
C404 H395 0.929 . S
C404 C396 1.378 . S
C404 C399 1.350 . S
C405 H392 0.929 . S
C405 C397 1.433 . S
C405 N407 1.384 . S
N406 C402 1.427 . S
N406 C403 1.384 . S
N407 C399 1.427 . S
N407 C405 1.384 . S
H408 C414 0.930 . S
H409 C418 0.930 . S
H410 C423 0.929 . S
H411 C421 0.929 . S
H412 C416 0.929 . S
H413 C422 0.929 . S
C414 H408 0.930 . S
C414 C415 1.367 . S
C414 C422 1.378 . S
C415 C414 1.367 . S
C415 C423 1.433 . S
C416 H412 0.929 . S
C416 C418 1.378 . S
C416 C420 1.350 . S
C417 C420 1.463 . S
C417 C422 1.350 . S
C417 N425 1.427 . S
C418 H409 0.930 . S
C418 C416 1.378 . S
C418 C419 1.367 . S
C419 C418 1.367 . S
C419 C421 1.433 . S
C420 C416 1.350 . S
C420 C417 1.463 . S
C420 N424 1.427 . S
C421 H411 0.929 . S
C421 C419 1.433 . S
C421 N424 1.384 . S
C422 H413 0.929 . S
C422 C414 1.378 . S
C422 C417 1.350 . S
C423 H410 0.929 . S
C423 C415 1.433 . S
C423 N425 1.384 . S
N424 C420 1.427 . S
N424 C421 1.384 . S
N425 C417 1.427 . S
N425 C423 1.384 . S
H426 C432 0.930 . S
H427 C436 0.930 . S
H428 C441 0.929 . S
H429 C439 0.929 . S
H430 C434 0.929 . S
H431 C440 0.929 . S
C432 H426 0.930 . S
C432 C433 1.367 . S
C432 C440 1.378 . S
C433 C432 1.367 . S
C433 C441 1.433 . S
C434 H430 0.929 . S
C434 C436 1.378 . S
C434 C438 1.350 . S
C435 C438 1.463 . S
C435 C440 1.350 . S
C435 N443 1.427 . S
C436 H427 0.930 . S
C436 C434 1.378 . S
C436 C437 1.367 . S
C437 C436 1.367 . S
C437 C439 1.433 . S
C438 C434 1.350 . S
C438 C435 1.463 . S
C438 N442 1.427 . S
C439 H429 0.929 . S
C439 C437 1.433 . S
C439 N442 1.384 . S
C440 H431 0.929 . S
C440 C432 1.378 . S
C440 C435 1.350 . S
C441 H428 0.929 . S
C441 C433 1.433 . S
C441 N443 1.384 . S
N442 C438 1.427 . S
N442 C439 1.384 . S
N443 C435 1.427 . S
N443 C441 1.384 . S
H444 C450 0.930 . S
H445 C454 0.930 . S
H446 C459 0.929 . S
H447 C457 0.929 . S
H448 C452 0.929 . S
H449 C458 0.929 . S
C450 H444 0.930 . S
C450 C451 1.367 . S
C450 C458 1.378 . S
C451 C450 1.367 . S
C451 C459 1.433 . S
C452 H448 0.929 . S
C452 C454 1.378 . S
C452 C456 1.350 . S
C453 C456 1.463 . S
C453 C458 1.350 . S
C453 N461 1.427 . S
C454 H445 0.930 . S
C454 C452 1.378 . S
C454 C455 1.367 . S
C455 C454 1.367 . S
C455 C457 1.433 . S
C456 C452 1.350 . S
C456 C453 1.463 . S
C456 N460 1.427 . S
C457 H447 0.929 . S
C457 C455 1.433 . S
C457 N460 1.384 . S
C458 H449 0.929 . S
C458 C450 1.378 . S
C458 C453 1.350 . S
C459 H446 0.929 . S
C459 C451 1.433 . S
C459 N461 1.384 . S
N460 C456 1.427 . S
N460 C457 1.384 . S
N461 C453 1.427 . S
N461 C459 1.384 . S
H462 C468 0.930 . S
H463 C472 0.930 . S
H464 C477 0.929 . S
H465 C475 0.929 . S
H466 C470 0.929 . S
H467 C476 0.929 . S
C468 H462 0.930 . S
C468 C469 1.367 . S
C468 C476 1.378 . S
C469 C468 1.367 . S
C469 C477 1.433 . S
C470 H466 0.929 . S
C470 C472 1.378 . S
C470 C474 1.350 . S
C471 C474 1.463 . S
C471 C476 1.350 . S
C471 N479 1.427 . S
C472 H463 0.930 . S
C472 C470 1.378 . S
C472 C473 1.367 . S
C473 C472 1.367 . S
C473 C475 1.433 . S
C474 C470 1.350 . S
C474 C471 1.463 . S
C474 N478 1.427 . S
C475 H465 0.929 . S
C475 C473 1.433 . S
C475 N478 1.384 . S
C476 H467 0.929 . S
C476 C468 1.378 . S
C476 C471 1.350 . S
C477 H464 0.929 . S
C477 C469 1.433 . S
C477 N479 1.384 . S
N478 C474 1.427 . S
N478 C475 1.384 . S
N479 C471 1.427 . S
N479 C477 1.384 . S
H480 C486 0.930 . S
H481 C490 0.930 . S
H482 C495 0.929 . S
H483 C493 0.929 . S
H484 C488 0.929 . S
H485 C494 0.929 . S
C486 H480 0.930 . S
C486 C487 1.367 . S
C486 C494 1.378 . S
C487 C486 1.367 . S
C487 C495 1.433 . S
C488 H484 0.929 . S
C488 C490 1.378 . S
C488 C492 1.350 . S
C489 C492 1.463 . S
C489 C494 1.350 . S
C489 N497 1.427 . S
C490 H481 0.930 . S
C490 C488 1.378 . S
C490 C491 1.367 . S
C491 C490 1.367 . S
C491 C493 1.433 . S
C492 C488 1.350 . S
C492 C489 1.463 . S
C492 N496 1.427 . S
C493 H483 0.929 . S
C493 C491 1.433 . S
C493 N496 1.384 . S
C494 H485 0.929 . S
C494 C486 1.378 . S
C494 C489 1.350 . S
C495 H482 0.929 . S
C495 C487 1.433 . S
C495 N497 1.384 . S
N496 C492 1.427 . S
N496 C493 1.384 . S
N497 C489 1.427 . S
N497 C495 1.384 . S
H498 C504 0.930 . S
H499 C508 0.930 . S
H500 C513 0.929 . S
H501 C511 0.929 . S
H502 C506 0.929 . S
H503 C512 0.929 . S
C504 H498 0.930 . S
C504 C505 1.367 . S
C504 C512 1.378 . S
C505 C504 1.367 . S
C505 C513 1.433 . S
C506 H502 0.929 . S
C506 C508 1.378 . S
C506 C510 1.350 . S
C507 C510 1.463 . S
C507 C512 1.350 . S
C507 N515 1.427 . S
C508 H499 0.930 . S
C508 C506 1.378 . S
C508 C509 1.367 . S
C509 C508 1.367 . S
C509 C511 1.433 . S
C510 C506 1.350 . S
C510 C507 1.463 . S
C510 N514 1.427 . S
C511 H501 0.929 . S
C511 C509 1.433 . S
C511 N514 1.384 . S
C512 H503 0.929 . S
C512 C504 1.378 . S
C512 C507 1.350 . S
C513 H500 0.929 . S
C513 C505 1.433 . S
C513 N515 1.384 . S
N514 C510 1.427 . S
N514 C511 1.384 . S
N515 C507 1.427 . S
N515 C513 1.384 . S
H516 C522 0.930 . S
H517 C526 0.930 . S
H518 C531 0.929 . S
H519 C529 0.929 . S
H520 C524 0.929 . S
H521 C530 0.929 . S
C522 H516 0.930 . S
C522 C523 1.367 . S
C522 C530 1.378 . S
C523 C522 1.367 . S
C523 C531 1.433 . S
C524 H520 0.929 . S
C524 C526 1.378 . S
C524 C528 1.350 . S
C525 C528 1.463 . S
C525 C530 1.350 . S
C525 N533 1.427 . S
C526 H517 0.930 . S
C526 C524 1.378 . S
C526 C527 1.367 . S
C527 C526 1.367 . S
C527 C529 1.433 . S
C528 C524 1.350 . S
C528 C525 1.463 . S
C528 N532 1.427 . S
C529 H519 0.929 . S
C529 C527 1.433 . S
C529 N532 1.384 . S
C530 H521 0.929 . S
C530 C522 1.378 . S
C530 C525 1.350 . S
C531 H518 0.929 . S
C531 C523 1.433 . S
C531 N533 1.384 . S
N532 C528 1.427 . S
N532 C529 1.384 . S
N533 C525 1.427 . S
N533 C531 1.384 . S
H534 C540 0.930 . S
H535 C544 0.930 . S
H536 C549 0.929 . S
H537 C547 0.929 . S
H538 C542 0.929 . S
H539 C548 0.929 . S
C540 H534 0.930 . S
C540 C541 1.367 . S
C540 C548 1.378 . S
C541 C540 1.367 . S
C541 C549 1.433 . S
C542 H538 0.929 . S
C542 C544 1.378 . S
C542 C546 1.350 . S
C543 C546 1.463 . S
C543 C548 1.350 . S
C543 N551 1.427 . S
C544 H535 0.930 . S
C544 C542 1.378 . S
C544 C545 1.367 . S
C545 C544 1.367 . S
C545 C547 1.433 . S
C546 C542 1.350 . S
C546 C543 1.463 . S
C546 N550 1.427 . S
C547 H537 0.929 . S
C547 C545 1.433 . S
C547 N550 1.384 . S
C548 H539 0.929 . S
C548 C540 1.378 . S
C548 C543 1.350 . S
C549 H536 0.929 . S
C549 C541 1.433 . S
C549 N551 1.384 . S
N550 C546 1.427 . S
N550 C547 1.384 . S
N551 C543 1.427 . S
N551 C549 1.384 . S
H552 C558 0.930 . S
H553 C562 0.930 . S
H554 C567 0.929 . S
H555 C565 0.929 . S
H556 C560 0.929 . S
H557 C566 0.929 . S
C558 H552 0.930 . S
C558 C559 1.367 . S
C558 C566 1.378 . S
C559 C558 1.367 . S
C559 C567 1.433 . S
C560 H556 0.929 . S
C560 C562 1.378 . S
C560 C564 1.350 . S
C561 C564 1.463 . S
C561 C566 1.350 . S
C561 N569 1.427 . S
C562 H553 0.930 . S
C562 C560 1.378 . S
C562 C563 1.367 . S
C563 C562 1.367 . S
C563 C565 1.433 . S
C564 C560 1.350 . S
C564 C561 1.463 . S
C564 N568 1.427 . S
C565 H555 0.929 . S
C565 C563 1.433 . S
C565 N568 1.384 . S
C566 H557 0.929 . S
C566 C558 1.378 . S
C566 C561 1.350 . S
C567 H554 0.929 . S
C567 C559 1.433 . S
C567 N569 1.384 . S
N568 C564 1.427 . S
N568 C565 1.384 . S
N569 C561 1.427 . S
N569 C567 1.384 . S
H570 C576 0.930 . S
H571 C580 0.930 . S
H572 C585 0.929 . S
H573 C583 0.929 . S
H574 C578 0.929 . S
H575 C584 0.929 . S
C576 H570 0.930 . S
C576 C577 1.367 . S
C576 C584 1.378 . S
C577 C576 1.367 . S
C577 C585 1.433 . S
C578 H574 0.929 . S
C578 C580 1.378 . S
C578 C582 1.350 . S
C579 C582 1.463 . S
C579 C584 1.350 . S
C579 N587 1.427 . S
C580 H571 0.930 . S
C580 C578 1.378 . S
C580 C581 1.367 . S
C581 C580 1.367 . S
C581 C583 1.433 . S
C582 C578 1.350 . S
C582 C579 1.463 . S
C582 N586 1.427 . S
C583 H573 0.929 . S
C583 C581 1.433 . S
C583 N586 1.384 . S
C584 H575 0.929 . S
C584 C576 1.378 . S
C584 C579 1.350 . S
C585 H572 0.929 . S
C585 C577 1.433 . S
C585 N587 1.384 . S
N586 C582 1.427 . S
N586 C583 1.384 . S
N587 C579 1.427 . S
N587 C585 1.384 . S
H588 C594 0.930 . S
H589 C598 0.930 . S
H590 C603 0.929 . S
H591 C601 0.929 . S
H592 C596 0.929 . S
H593 C602 0.929 . S
C594 H588 0.930 . S
C594 C595 1.367 . S
C594 C602 1.378 . S
C595 C594 1.367 . S
C595 C603 1.433 . S
C596 H592 0.929 . S
C596 C598 1.378 . S
C596 C600 1.350 . S
C597 C600 1.463 . S
C597 C602 1.350 . S
C597 N605 1.427 . S
C598 H589 0.930 . S
C598 C596 1.378 . S
C598 C599 1.367 . S
C599 C598 1.367 . S
C599 C601 1.433 . S
C600 C596 1.350 . S
C600 C597 1.463 . S
C600 N604 1.427 . S
C601 H591 0.929 . S
C601 C599 1.433 . S
C601 N604 1.384 . S
C602 H593 0.929 . S
C602 C594 1.378 . S
C602 C597 1.350 . S
C603 H590 0.929 . S
C603 C595 1.433 . S
C603 N605 1.384 . S
N604 C600 1.427 . S
N604 C601 1.384 . S
N605 C597 1.427 . S
N605 C603 1.384 . S
H606 C612 0.930 . S
H607 C616 0.930 . S
H608 C621 0.929 . S
H609 C619 0.929 . S
H610 C614 0.929 . S
H611 C620 0.929 . S
C612 H606 0.930 . S
C612 C613 1.367 . S
C612 C620 1.378 . S
C613 C612 1.367 . S
C613 C621 1.433 . S
C614 H610 0.929 . S
C614 C616 1.378 . S
C614 C618 1.350 . S
C615 C618 1.463 . S
C615 C620 1.350 . S
C615 N623 1.427 . S
C616 H607 0.930 . S
C616 C614 1.378 . S
C616 C617 1.367 . S
C617 C616 1.367 . S
C617 C619 1.433 . S
C618 C614 1.350 . S
C618 C615 1.463 . S
C618 N622 1.427 . S
C619 H609 0.929 . S
C619 C617 1.433 . S
C619 N622 1.384 . S
C620 H611 0.929 . S
C620 C612 1.378 . S
C620 C615 1.350 . S
C621 H608 0.929 . S
C621 C613 1.433 . S
C621 N623 1.384 . S
N622 C618 1.427 . S
N622 C619 1.384 . S
N623 C615 1.427 . S
N623 C621 1.384 . S
H624 C630 0.930 . S
H625 C634 0.930 . S
H626 C639 0.929 . S
H627 C637 0.929 . S
H628 C632 0.929 . S
H629 C638 0.929 . S
C630 H624 0.930 . S
C630 C631 1.367 . S
C630 C638 1.378 . S
C631 C630 1.367 . S
C631 C639 1.433 . S
C632 H628 0.929 . S
C632 C634 1.378 . S
C632 C636 1.350 . S
C633 C636 1.463 . S
C633 C638 1.350 . S
C633 N641 1.427 . S
C634 H625 0.930 . S
C634 C632 1.378 . S
C634 C635 1.367 . S
C635 C634 1.367 . S
C635 C637 1.433 . S
C636 C632 1.350 . S
C636 C633 1.463 . S
C636 N640 1.427 . S
C637 H627 0.929 . S
C637 C635 1.433 . S
C637 N640 1.384 . S
C638 H629 0.929 . S
C638 C630 1.378 . S
C638 C633 1.350 . S
C639 H626 0.929 . S
C639 C631 1.433 . S
C639 N641 1.384 . S
N640 C636 1.427 . S
N640 C637 1.384 . S
N641 C633 1.427 . S
N641 C639 1.384 . S
H642 C648 0.930 . S
H643 C652 0.930 . S
H644 C657 0.929 . S
H645 C655 0.929 . S
H646 C650 0.929 . S
H647 C656 0.929 . S
C648 H642 0.930 . S
C648 C649 1.367 . S
C648 C656 1.378 . S
C649 C648 1.367 . S
C649 C657 1.433 . S
C650 H646 0.929 . S
C650 C652 1.378 1_556 S
C650 C654 1.350 . S
C651 C654 1.463 . S
C651 C656 1.350 . S
C651 N659 1.427 . S
C652 H643 0.930 . S
C652 C650 1.378 1_554 S
C652 C653 1.367 . S
C653 C652 1.367 . S
C653 C655 1.433 . S
C654 C650 1.350 . S
C654 C651 1.463 . S
C654 N658 1.427 . S
C655 H645 0.929 . S
C655 C653 1.433 . S
C655 N658 1.384 1_554 S
C656 H647 0.929 . S
C656 C648 1.378 . S
C656 C651 1.350 . S
C657 H644 0.929 . S
C657 C649 1.433 . S
C657 N659 1.384 . S
N658 C654 1.427 . S
N658 C655 1.384 1_556 S
N659 C651 1.427 . S
N659 C657 1.384 . S
H660 C666 0.930 . S
H661 C670 0.930 . S
H662 C675 0.929 . S
H663 C673 0.929 . S
H664 C668 0.929 . S
H665 C674 0.929 . S
C666 H660 0.930 . S
C666 C667 1.367 . S
C666 C674 1.378 . S
C667 C666 1.367 . S
C667 C675 1.433 . S
C668 H664 0.929 . S
C668 C670 1.378 . S
C668 C672 1.350 . S
C669 C672 1.463 . S
C669 C674 1.350 . S
C669 N677 1.427 . S
C670 H661 0.930 . S
C670 C668 1.378 . S
C670 C671 1.367 . S
C671 C670 1.367 . S
C671 C673 1.433 . S
C672 C668 1.350 . S
C672 C669 1.463 . S
C672 N676 1.427 . S
C673 H663 0.929 . S
C673 C671 1.433 . S
C673 N676 1.384 . S
C674 H665 0.929 . S
C674 C666 1.378 . S
C674 C669 1.350 . S
C675 H662 0.929 . S
C675 C667 1.433 . S
C675 N677 1.384 . S
N676 C672 1.427 . S
N676 C673 1.384 . S
N677 C669 1.427 . S
N677 C675 1.384 . S
H678 C684 0.930 . S
H679 C688 0.930 . S
H680 C693 0.929 . S
H681 C691 0.929 . S
H682 C686 0.929 . S
H683 C692 0.929 . S
C684 H678 0.930 . S
C684 C685 1.367 . S
C684 C692 1.378 . S
C685 C684 1.367 . S
C685 C693 1.433 . S
C686 H682 0.929 . S
C686 C688 1.378 . S
C686 C690 1.350 . S
C687 C690 1.463 . S
C687 C692 1.350 . S
C687 N695 1.427 . S
C688 H679 0.930 . S
C688 C686 1.378 . S
C688 C689 1.367 . S
C689 C688 1.367 . S
C689 C691 1.433 . S
C690 C686 1.350 . S
C690 C687 1.463 . S
C690 N694 1.427 . S
C691 H681 0.929 . S
C691 C689 1.433 . S
C691 N694 1.384 . S
C692 H683 0.929 . S
C692 C684 1.378 . S
C692 C687 1.350 . S
C693 H680 0.929 . S
C693 C685 1.433 . S
C693 N695 1.384 . S
N694 C690 1.427 . S
N694 C691 1.384 . S
N695 C687 1.427 . S
N695 C693 1.384 . S
H696 C702 0.930 . S
H697 C706 0.930 . S
H698 C711 0.929 . S
H699 C709 0.929 . S
H700 C704 0.929 . S
H701 C710 0.929 . S
C702 H696 0.930 . S
C702 C703 1.367 . S
C702 C710 1.378 . S
C703 C702 1.367 . S
C703 C711 1.433 . S
C704 H700 0.929 . S
C704 C706 1.378 . S
C704 C708 1.350 . S
C705 C708 1.463 . S
C705 C710 1.350 . S
C705 N713 1.427 . S
C706 H697 0.930 . S
C706 C704 1.378 . S
C706 C707 1.367 . S
C707 C706 1.367 . S
C707 C709 1.433 . S
C708 C704 1.350 . S
C708 C705 1.463 . S
C708 N712 1.427 . S
C709 H699 0.929 . S
C709 C707 1.433 . S
C709 N712 1.384 . S
C710 H701 0.929 . S
C710 C702 1.378 . S
C710 C705 1.350 . S
C711 H698 0.929 . S
C711 C703 1.433 . S
C711 N713 1.384 . S
N712 C708 1.427 . S
N712 C709 1.384 . S
N713 C705 1.427 . S
N713 C711 1.384 . S
H714 C720 0.930 . S
H715 C724 0.930 . S
H716 C729 0.929 . S
H717 C727 0.929 . S
H718 C722 0.929 . S
H719 C728 0.929 . S
C720 H714 0.930 . S
C720 C721 1.367 . S
C720 C728 1.378 . S
C721 C720 1.367 . S
C721 C729 1.433 . S
C722 H718 0.929 . S
C722 C724 1.378 . S
C722 C726 1.350 . S
C723 C726 1.463 . S
C723 C728 1.350 . S
C723 N731 1.427 . S
C724 H715 0.930 . S
C724 C722 1.378 . S
C724 C725 1.367 . S
C725 C724 1.367 . S
C725 C727 1.433 . S
C726 C722 1.350 . S
C726 C723 1.463 . S
C726 N730 1.427 . S
C727 H717 0.929 . S
C727 C725 1.433 . S
C727 N730 1.384 . S
C728 H719 0.929 . S
C728 C720 1.378 . S
C728 C723 1.350 . S
C729 H716 0.929 . S
C729 C721 1.433 . S
C729 N731 1.384 . S
N730 C726 1.427 . S
N730 C727 1.384 . S
N731 C723 1.427 . S
N731 C729 1.384 . S
H732 C738 0.930 . S
H733 C742 0.930 . S
H734 C747 0.929 . S
H735 C745 0.929 . S
H736 C740 0.929 . S
H737 C746 0.929 . S
C738 H732 0.930 . S
C738 C739 1.367 . S
C738 C746 1.378 . S
C739 C738 1.367 . S
C739 C747 1.433 . S
C740 H736 0.929 . S
C740 C742 1.378 . S
C740 C744 1.350 . S
C741 C744 1.463 . S
C741 C746 1.350 . S
C741 N749 1.427 . S
C742 H733 0.930 . S
C742 C740 1.378 . S
C742 C743 1.367 . S
C743 C742 1.367 . S
C743 C745 1.433 . S
C744 C740 1.350 . S
C744 C741 1.463 . S
C744 N748 1.427 . S
C745 H735 0.929 . S
C745 C743 1.433 . S
C745 N748 1.384 . S
C746 H737 0.929 . S
C746 C738 1.378 . S
C746 C741 1.350 . S
C747 H734 0.929 . S
C747 C739 1.433 . S
C747 N749 1.384 . S
N748 C744 1.427 . S
N748 C745 1.384 . S
N749 C741 1.427 . S
N749 C747 1.384 . S
H750 C756 0.930 . S
H751 C760 0.930 . S
H752 C765 0.929 . S
H753 C763 0.929 . S
H754 C758 0.929 . S
H755 C764 0.929 . S
C756 H750 0.930 . S
C756 C757 1.367 . S
C756 C764 1.378 . S
C757 C756 1.367 . S
C757 C765 1.433 . S
C758 H754 0.929 . S
C758 C760 1.378 . S
C758 C762 1.350 . S
C759 C762 1.463 . S
C759 C764 1.350 . S
C759 N767 1.427 . S
C760 H751 0.930 . S
C760 C758 1.378 . S
C760 C761 1.367 . S
C761 C760 1.367 . S
C761 C763 1.433 . S
C762 C758 1.350 . S
C762 C759 1.463 . S
C762 N766 1.427 . S
C763 H753 0.929 . S
C763 C761 1.433 . S
C763 N766 1.384 . S
C764 H755 0.929 . S
C764 C756 1.378 . S
C764 C759 1.350 . S
C765 H752 0.929 . S
C765 C757 1.433 . S
C765 N767 1.384 . S
N766 C762 1.427 . S
N766 C763 1.384 . S
N767 C759 1.427 . S
N767 C765 1.384 . S
H768 C774 0.930 . S
H769 C778 0.930 . S
H770 C783 0.929 . S
H771 C781 0.929 . S
H772 C776 0.929 1_554 S
H773 C782 0.929 . S
C774 H768 0.930 . S
C774 C775 1.367 . S
C774 C782 1.378 . S
C775 C774 1.367 . S
C775 C783 1.433 . S
C776 H772 0.929 1_556 S
C776 C778 1.378 . S
C776 C780 1.350 1_556 S
C777 C780 1.463 . S
C777 C782 1.350 . S
C777 N785 1.427 . S
C778 H769 0.930 . S
C778 C776 1.378 . S
C778 C779 1.367 . S
C779 C778 1.367 . S
C779 C781 1.433 . S
C780 C776 1.350 1_554 S
C780 C777 1.463 . S
C780 N784 1.427 1_554 S
C781 H771 0.929 . S
C781 C779 1.433 . S
C781 N784 1.384 . S
C782 H773 0.929 . S
C782 C774 1.378 . S
C782 C777 1.350 . S
C783 H770 0.929 . S
C783 C775 1.433 . S
C783 N785 1.384 . S
N784 C780 1.427 1_556 S
N784 C781 1.384 . S
N785 C777 1.427 . S
N785 C783 1.384 . S
H786 C792 0.930 . S
H787 C796 0.930 . S
H788 C801 0.929 . S
H789 C799 0.929 . S
H790 C794 0.929 . S
H791 C800 0.929 . S
C792 H786 0.930 . S
C792 C793 1.367 . S
C792 C800 1.378 . S
C793 C792 1.367 . S
C793 C801 1.433 . S
C794 H790 0.929 . S
C794 C796 1.378 . S
C794 C798 1.350 . S
C795 C798 1.463 . S
C795 C800 1.350 . S
C795 N803 1.427 . S
C796 H787 0.930 . S
C796 C794 1.378 . S
C796 C797 1.367 . S
C797 C796 1.367 . S
C797 C799 1.433 . S
C798 C794 1.350 . S
C798 C795 1.463 . S
C798 N802 1.427 . S
C799 H789 0.929 . S
C799 C797 1.433 . S
C799 N802 1.384 . S
C800 H791 0.929 . S
C800 C792 1.378 . S
C800 C795 1.350 . S
C801 H788 0.929 . S
C801 C793 1.433 . S
C801 N803 1.384 . S
N802 C798 1.427 . S
N802 C799 1.384 . S
N803 C795 1.427 . S
N803 C801 1.384 . S
C383 C361 1.614 . S
C379 C45 1.619 . S
C397 C84 1.611 . S
C401 C291 1.615 . S
C415 C126 1.606 . S
C419 C310 1.638 . S
C433 C189 1.620 . S
C437 C319 1.614 . S
C455 C333 1.614 . S
C451 C228 1.614 . S
C469 C270 1.596 . S
C473 C352 1.634 . S
C487 C69 1.577 . S
C491 C305 1.593 . S
C505 C141 1.616 . S
C509 C324 1.616 . S
C523 C174 1.574 . S
C527 C338 1.611 . S
C545 C347 1.594 . S
C541 C213 1.579 . S
C563 C366 1.616 . S
C559 C285 1.617 . S
C581 C296 1.611 . S
C577 C30 1.574 . S
C595 C36 1.505 . S
C599 C311 1.490 . S
C613 C93 1.499 . S
C617 C323 1.479 . S
C635 C337 1.476 . S
C631 C117 1.503 . S
C649 C180 1.504 . S
C653 C353 1.488 . S
C671 C365 1.478 . S
C667 C237 1.501 . S
C689 C295 1.477 . S
C685 C261 1.503 . S
C707 C367 1.500 . S
C703 C78 1.504 . S
C721 C132 1.517 . S
C725 C297 1.511 . S
C743 C309 1.487 . S
C739 C165 1.512 . S
C757 C222 1.504 . S
C761 C325 1.501 . S
C775 C276 1.518 . S
C779 C339 1.505 . S
C793 C21 1.508 . S
C797 C351 1.486 . S
