# Generated by pormake.
# Topology apo, (3,6)-cn, num edge types: 1
# Building blocks:
#     Node 0, Type 0, BuildingBlock: MIDCAF_clean_linker_0, # of connection points: 3
#     Node 1, Type 0, BuildingBlock: MIDCAF_clean_linker_0, # of connection points: 3
#     Node 2, Type 0, BuildingBlock: MIDCAF_clean_linker_0, # of connection points: 3
#     Node 3, Type 0, BuildingBlock: MIDCAF_clean_linker_0, # of connection points: 3
#     Node 4, Type 0, BuildingBlock: MIDCAF_clean_linker_0, # of connection points: 3
#     Node 5, Type 0, BuildingBlock: MIDCAF_clean_linker_0, # of connection points: 3
#     Node 6, Type 0, BuildingBlock: MIDCAF_clean_linker_0, # of connection points: 3
#     Node 7, Type 0, BuildingBlock: MIDCAF_clean_linker_0, # of connection points: 3
#     Node 8, Type 1, BuildingBlock: KUMBUR_clean_sbu_1, # of connection points: 6
#     Node 9, Type 1, BuildingBlock: KUMBUR_clean_sbu_1, # of connection points: 6
#     Node 10, Type 1, BuildingBlock: KUMBUR_clean_sbu_1, # of connection points: 6
#     Node 11, Type 1, BuildingBlock: KUMBUR_clean_sbu_1, # of connection points: 6
#     Edge 12, Type (0, 1), BuildingBlock: ZUJKAS_clean_linker_0, # of connection points: 2
#     Edge 13, Type (0, 1), BuildingBlock: ZUJKAS_clean_linker_0, # of connection points: 2
#     Edge 14, Type (0, 1), BuildingBlock: ZUJKAS_clean_linker_0, # of connection points: 2
#     Edge 15, Type (0, 1), BuildingBlock: ZUJKAS_clean_linker_0, # of connection points: 2
#     Edge 16, Type (0, 1), BuildingBlock: ZUJKAS_clean_linker_0, # of connection points: 2
#     Edge 17, Type (0, 1), BuildingBlock: ZUJKAS_clean_linker_0, # of connection points: 2
#     Edge 18, Type (0, 1), BuildingBlock: ZUJKAS_clean_linker_0, # of connection points: 2
#     Edge 19, Type (0, 1), BuildingBlock: ZUJKAS_clean_linker_0, # of connection points: 2
#     Edge 20, Type (0, 1), BuildingBlock: ZUJKAS_clean_linker_0, # of connection points: 2
#     Edge 21, Type (0, 1), BuildingBlock: ZUJKAS_clean_linker_0, # of connection points: 2
#     Edge 22, Type (0, 1), BuildingBlock: ZUJKAS_clean_linker_0, # of connection points: 2
#     Edge 23, Type (0, 1), BuildingBlock: ZUJKAS_clean_linker_0, # of connection points: 2
#     Edge 24, Type (0, 1), BuildingBlock: ZUJKAS_clean_linker_0, # of connection points: 2
#     Edge 25, Type (0, 1), BuildingBlock: ZUJKAS_clean_linker_0, # of connection points: 2
#     Edge 26, Type (0, 1), BuildingBlock: ZUJKAS_clean_linker_0, # of connection points: 2
#     Edge 27, Type (0, 1), BuildingBlock: ZUJKAS_clean_linker_0, # of connection points: 2
#     Edge 28, Type (0, 1), BuildingBlock: ZUJKAS_clean_linker_0, # of connection points: 2
#     Edge 29, Type (0, 1), BuildingBlock: ZUJKAS_clean_linker_0, # of connection points: 2
#     Edge 30, Type (0, 1), BuildingBlock: ZUJKAS_clean_linker_0, # of connection points: 2
#     Edge 31, Type (0, 1), BuildingBlock: ZUJKAS_clean_linker_0, # of connection points: 2
#     Edge 32, Type (0, 1), BuildingBlock: ZUJKAS_clean_linker_0, # of connection points: 2
#     Edge 33, Type (0, 1), BuildingBlock: ZUJKAS_clean_linker_0, # of connection points: 2
#     Edge 34, Type (0, 1), BuildingBlock: ZUJKAS_clean_linker_0, # of connection points: 2
#     Edge 35, Type (0, 1), BuildingBlock: ZUJKAS_clean_linker_0, # of connection points: 2
# Relax obj value: 0.010
# Max RMSD: 0.083
# Mean RMSD: 0.068
data_MOF--net-apo--node1-KUMBUR_clean_sbu_1--node2-MIDCAF_clean_linker_0--edge1-ZUJKAS_clean_linker_0
_symmetry_space_group_name_H-M    P1
_symmetry_Int_Tables_number       1
_symmetry_cell_setting            triclinic
loop_
_symmetry_equiv_pos_as_xyz
'x, y, z'
_cell_length_a     35.967963
_cell_length_b     64.974513
_cell_length_c     77.336124
_cell_angle_alpha  90.011133
_cell_angle_beta   90.035731
_cell_angle_gamma 90.179291
loop_
_atom_site_label
_atom_site_type_symbol
_atom_site_fract_x
_atom_site_fract_y
_atom_site_fract_z
_atom_type_partial_charge
C0 C 0.33065 0.39455 0.47877 0.0
C1 C 0.32064 0.37734 0.48876 0.0
C2 C 0.29972 0.36153 0.48097 0.0
C3 C 0.28938 0.36284 0.46354 0.0
H4 H 0.24506 0.32866 0.42174 0.0
H5 H 0.2127 0.3011 0.40623 0.0
H6 H 0.19657 0.34168 0.36267 0.0
H7 H 0.22826 0.36915 0.37805 0.0
H8 H 0.27684 0.40807 0.37447 0.0
H9 H 0.29773 0.43736 0.3575 0.0
H10 H 0.34991 0.46346 0.40284 0.0
H11 H 0.32966 0.43392 0.41985 0.0
H12 H 0.32864 0.40942 0.45421 0.0
H13 H 0.34616 0.40718 0.48442 0.0
H14 H 0.29177 0.34801 0.48829 0.0
H15 H 0.27347 0.35034 0.45793 0.0
N16 N 0.26964 0.36625 0.42706 0.0
N17 N 0.27043 0.38487 0.40108 0.0
N18 N 0.29911 0.39851 0.42571 0.0
C19 C 0.26015 0.36783 0.41007 0.0
C20 C 0.28991 0.40027 0.40875 0.0
C21 C 0.28907 0.38161 0.43499 0.0
C22 C 0.23939 0.35114 0.40116 0.0
C23 C 0.23439 0.33174 0.40891 0.0
C24 C 0.21605 0.31591 0.39999 0.0
C25 C 0.20204 0.31923 0.38324 0.0
C26 C 0.2066 0.3387 0.37564 0.0
C27 C 0.22507 0.35442 0.38446 0.0
C28 C 0.30162 0.41853 0.39857 0.0
C29 C 0.29268 0.42004 0.3809 0.0
C30 C 0.30447 0.43693 0.37115 0.0
C31 C 0.32549 0.45276 0.37881 0.0
C32 C 0.33415 0.45139 0.3965 0.0
C33 C 0.32234 0.43448 0.40627 0.0
C34 C 0.29964 0.38004 0.45353 0.0
C35 C 0.32032 0.39588 0.46141 0.0
C36 C 0.17807 0.1095 0.98011 0.0
C37 C 0.18143 0.12853 0.98864 0.0
C38 C 0.19627 0.14537 0.97949 0.0
C39 C 0.20747 0.1432 0.96224 0.0
H40 H 0.25165 0.17521 0.91894 0.0
H41 H 0.28193 0.20245 0.90234 0.0
H42 H 0.31878 0.15745 0.86496 0.0
H43 H 0.28754 0.1305 0.88113 0.0
H44 H 0.24498 0.08834 0.87881 0.0
H45 H 0.22532 0.05843 0.86213 0.0
H46 H 0.14914 0.04131 0.90282 0.0
H47 H 0.16855 0.07132 0.91957 0.0
H48 H 0.18612 0.0924 0.95685 0.0
H49 H 0.16752 0.09607 0.98682 0.0
H50 H 0.19891 0.1603 0.98558 0.0
H51 H 0.21867 0.1565 0.95558 0.0
N52 N 0.23505 0.13679 0.92719 0.0
N53 N 0.23801 0.11642 0.90219 0.0
N54 N 0.20752 0.10397 0.92679 0.0
C55 C 0.24638 0.13422 0.91055 0.0
C56 C 0.21849 0.10126 0.91015 0.0
C57 C 0.2158 0.12163 0.93545 0.0
C58 C 0.26685 0.1507 0.90129 0.0
C59 C 0.26638 0.17115 0.90722 0.0
C60 C 0.28388 0.18676 0.89772 0.0
C61 C 0.30253 0.18222 0.88219 0.0
C62 C 0.30391 0.16164 0.87661 0.0
C63 C 0.28614 0.14613 0.88597 0.0
C64 C 0.20821 0.08234 0.90052 0.0
C65 C 0.22416 0.07818 0.88429 0.0
C66 C 0.2131 0.06095 0.87475 0.0
C67 C 0.18562 0.04757 0.88115 0.0
C68 C 0.17012 0.05149 0.89749 0.0
C69 C 0.18142 0.06862 0.90712 0.0
C70 C 0.20393 0.12415 0.95372 0.0
C71 C 0.18902 0.10736 0.96289 0.0
C72 C 0.8344 0.11209 0.53033 0.0
C73 C 0.81679 0.12695 0.52004 0.0
C74 C 0.7907 0.14016 0.52776 0.0
C75 C 0.78253 0.13857 0.54541 0.0
H76 H 0.74056 0.17232 0.58873 0.0
H77 H 0.7079 0.19866 0.60544 0.0
H78 H 0.70812 0.15862 0.65002 0.0
H79 H 0.73975 0.13239 0.63348 0.0
H80 H 0.78458 0.0935 0.6345 0.0
H81 H 0.80662 0.06389 0.65058 0.0
H82 H 0.85601 0.03927 0.6041 0.0
H83 H 0.83459 0.06921 0.58793 0.0
H84 H 0.8401 0.09864 0.55537 0.0
H85 H 0.85437 0.10157 0.52473 0.0
H86 H 0.77693 0.15191 0.52018 0.0
H87 H 0.76233 0.14899 0.55095 0.0
N88 N 0.77147 0.13626 0.58287 0.0
N89 N 0.77547 0.11708 0.60848 0.0
N90 N 0.80272 0.10453 0.58317 0.0
C91 C 0.76361 0.13413 0.60001 0.0
C92 C 0.79496 0.10221 0.60023 0.0
C93 C 0.79108 0.12146 0.57436 0.0
C94 C 0.74289 0.15018 0.6097 0.0
C95 C 0.73342 0.16911 0.60206 0.0
C96 C 0.7149 0.18425 0.61166 0.0
C97 C 0.70528 0.18072 0.62906 0.0
C98 C 0.71452 0.16176 0.63659 0.0
C99 C 0.73301 0.14672 0.62707 0.0
C100 C 0.80783 0.08383 0.60987 0.0
C101 C 0.80006 0.08181 0.62762 0.0
C102 C 0.81249 0.06472 0.63687 0.0
C103 C 0.83297 0.04918 0.62862 0.0
C104 C 0.84062 0.05109 0.61087 0.0
C105 C 0.82817 0.06822 0.60159 0.0
C106 C 0.79998 0.12358 0.55569 0.0
C107 C 0.826 0.11036 0.5479 0.0
C108 C 0.67589 0.39183 0.02847 0.0
C109 C 0.68651 0.37428 0.01907 0.0
C110 C 0.70639 0.35871 0.02765 0.0
C111 C 0.71532 0.3606 0.0452 0.0
H112 H 0.77047 0.33088 0.08554 0.0
H113 H 0.80365 0.30395 0.1012 0.0
H114 H 0.78947 0.3378 0.14882 0.0
H115 H 0.75739 0.36479 0.13327 0.0
H116 H 0.73039 0.40961 0.13249 0.0
H117 H 0.71002 0.43919 0.14911 0.0
H118 H 0.64371 0.45964 0.10583 0.0
H119 H 0.66488 0.43023 0.08894 0.0
H120 H 0.67592 0.40743 0.05281 0.0
H121 H 0.66018 0.404 0.02234 0.0
H122 H 0.71547 0.34512 0.02076 0.0
H123 H 0.73069 0.34829 0.05132 0.0
N124 N 0.73276 0.36494 0.08166 0.0
N125 N 0.73012 0.38376 0.10748 0.0
N126 N 0.70302 0.39707 0.08233 0.0
C127 C 0.74101 0.36667 0.09878 0.0
C128 C 0.71118 0.39903 0.09942 0.0
C129 C 0.71377 0.3801 0.07333 0.0
C130 C 0.76126 0.3501 0.10808 0.0
C131 C 0.77453 0.33261 0.09934 0.0
C132 C 0.7934 0.31709 0.10834 0.0
C133 C 0.79942 0.31872 0.12628 0.0
C134 C 0.78602 0.33618 0.13497 0.0
C135 C 0.76732 0.35166 0.12601 0.0
C136 C 0.6992 0.41743 0.10935 0.0
C137 C 0.7115 0.42039 0.12644 0.0
C138 C 0.69964 0.43734 0.13605 0.0
C139 C 0.67499 0.45175 0.12888 0.0
C140 C 0.66301 0.44896 0.11171 0.0
C141 C 0.67502 0.43202 0.10204 0.0
C142 C 0.70457 0.37812 0.05464 0.0
C143 C 0.68478 0.39372 0.04602 0.0
C144 C 0.6797 0.60677 0.5317 0.0
C145 C 0.68995 0.62409 0.5219 0.0
C146 C 0.71033 0.6399 0.52999 0.0
C147 C 0.71992 0.63848 0.54751 0.0
H148 H 0.75986 0.67305 0.5902 0.0
H149 H 0.79187 0.70057 0.60595 0.0
H150 H 0.81245 0.65885 0.64831 0.0
H151 H 0.78092 0.63145 0.63271 0.0
H152 H 0.7298 0.59309 0.63652 0.0
H153 H 0.7092 0.56364 0.65334 0.0
H154 H 0.65954 0.537 0.60762 0.0
H155 H 0.67949 0.56674 0.59074 0.0
H156 H 0.68086 0.59169 0.55621 0.0
H157 H 0.66454 0.59415 0.52582 0.0
H158 H 0.71838 0.65354 0.52285 0.0
H159 H 0.73543 0.651 0.55333 0.0
N160 N 0.73828 0.63494 0.58407 0.0
N161 N 0.737 0.6162 0.60998 0.0
N162 N 0.70923 0.60253 0.58512 0.0
C163 C 0.74729 0.63332 0.60111 0.0
C164 C 0.71793 0.60075 0.60214 0.0
C165 C 0.71932 0.61953 0.57595 0.0
C166 C 0.76771 0.65002 0.61018 0.0
C167 C 0.77141 0.66972 0.60283 0.0
C168 C 0.78953 0.68552 0.61188 0.0
C169 C 0.8047 0.68185 0.62835 0.0
C170 C 0.80143 0.6621 0.63557 0.0
C171 C 0.78309 0.64642 0.62663 0.0
C172 C 0.70627 0.58239 0.61223 0.0
C173 C 0.71458 0.58098 0.62997 0.0
C174 C 0.70296 0.56398 0.63964 0.0
C175 C 0.68275 0.54793 0.63183 0.0
C176 C 0.67467 0.54923 0.61407 0.0
C177 C 0.68631 0.56625 0.60437 0.0
C178 C 0.70946 0.62117 0.55733 0.0
C179 C 0.68932 0.60531 0.54915 0.0
C180 C 0.82425 0.89658 0.03074 0.0
C181 C 0.81335 0.87942 0.02088 0.0
C182 C 0.79179 0.86399 0.02882 0.0
C183 C 0.78137 0.86569 0.04618 0.0
H184 H 0.73431 0.83245 0.08711 0.0
H185 H 0.70476 0.80429 0.10304 0.0
H186 H 0.69502 0.8435 0.14789 0.0
H187 H 0.72473 0.87138 0.13227 0.0
H188 H 0.76454 0.91217 0.13434 0.0
H189 H 0.78433 0.94153 0.15148 0.0
H190 H 0.84158 0.96669 0.10715 0.0
H191 H 0.82131 0.93739 0.08977 0.0
H192 H 0.82283 0.91176 0.05524 0.0
H193 H 0.84128 0.90862 0.02512 0.0
H194 H 0.78243 0.85071 0.02155 0.0
H195 H 0.76463 0.85354 0.05181 0.0
N196 N 0.76204 0.86936 0.08245 0.0
N197 N 0.76154 0.88836 0.1082 0.0
N198 N 0.79033 0.90197 0.0836 0.0
C199 C 0.75211 0.87108 0.09936 0.0
C200 C 0.78059 0.90387 0.10048 0.0
C201 C 0.78111 0.8848 0.07446 0.0
C202 C 0.73228 0.85417 0.10842 0.0
C203 C 0.72572 0.83509 0.10034 0.0
C204 C 0.70868 0.81897 0.10944 0.0
C205 C 0.69796 0.82161 0.12678 0.0
C206 C 0.70367 0.84083 0.13466 0.0
C207 C 0.72059 0.85688 0.12563 0.0
C208 C 0.79148 0.92229 0.11065 0.0
C209 C 0.78122 0.92395 0.12815 0.0
C210 C 0.79272 0.94076 0.13804 0.0
C211 C 0.81474 0.95636 0.13071 0.0
C212 C 0.82437 0.95499 0.11313 0.0
C213 C 0.81289 0.93812 0.1032 0.0
C214 C 0.79218 0.8829 0.05603 0.0
C215 C 0.81379 0.89832 0.04808 0.0
C216 C 0.18185 0.89239 0.47932 0.0
C217 C 0.18548 0.8732 0.48756 0.0
C218 C 0.19895 0.85645 0.4779 0.0
C219 C 0.20879 0.85886 0.46052 0.0
H220 H 0.26446 0.82981 0.42007 0.0
H221 H 0.29788 0.80317 0.40419 0.0
H222 H 0.30559 0.84348 0.35992 0.0
H223 H 0.27297 0.87014 0.37574 0.0
H224 H 0.23716 0.91315 0.37611 0.0
H225 H 0.21606 0.94289 0.35984 0.0
H226 H 0.14478 0.96027 0.40233 0.0
H227 H 0.16667 0.93079 0.41886 0.0
H228 H 0.18839 0.90982 0.45608 0.0
H229 H 0.17227 0.90575 0.48638 0.0
H230 H 0.20161 0.84136 0.48372 0.0
H231 H 0.21902 0.84561 0.45351 0.0
N232 N 0.23509 0.86587 0.42543 0.0
N233 N 0.23487 0.88586 0.4002 0.0
N234 N 0.20574 0.8981 0.42522 0.0
C235 C 0.24492 0.86837 0.40857 0.0
C236 C 0.21525 0.90078 0.40838 0.0
C237 C 0.2156 0.88072 0.43387 0.0
C238 C 0.2659 0.85217 0.39922 0.0
C239 C 0.27344 0.83304 0.40698 0.0
C240 C 0.29241 0.81771 0.39785 0.0
C241 C 0.30444 0.8212 0.38079 0.0
C242 C 0.29719 0.84037 0.37312 0.0
C243 C 0.27818 0.85564 0.38219 0.0
C244 C 0.2035 0.91946 0.39879 0.0
C245 C 0.21709 0.92332 0.38206 0.0
C246 C 0.20483 0.94036 0.37266 0.0
C247 C 0.17847 0.95392 0.3797 0.0
C248 C 0.1654 0.95029 0.39657 0.0
C249 C 0.17783 0.93329 0.40602 0.0
C250 C 0.20512 0.87806 0.4523 0.0
C251 C 0.19137 0.89476 0.46191 0.0
C252 C 0.32461 0.60718 0.98104 0.0
C253 C 0.32001 0.62583 0.99 0.0
C254 C 0.30487 0.64274 0.98108 0.0
C255 C 0.29455 0.64102 0.96368 0.0
H256 H 0.2484 0.6737 0.92122 0.0
H257 H 0.21807 0.70105 0.90479 0.0
H258 H 0.1908 0.65741 0.86452 0.0
H259 H 0.22179 0.63041 0.88057 0.0
H260 H 0.25943 0.58683 0.8799 0.0
H261 H 0.28131 0.558 0.86247 0.0
H262 H 0.36635 0.54535 0.90037 0.0
H263 H 0.34442 0.5741 0.91796 0.0
H264 H 0.31837 0.59082 0.95725 0.0
H265 H 0.33553 0.59372 0.98752 0.0
H266 H 0.30141 0.65743 0.98748 0.0
H267 H 0.28312 0.65438 0.95724 0.0
N268 N 0.26888 0.63551 0.92817 0.0
N269 N 0.26846 0.61614 0.90257 0.0
N270 N 0.29835 0.60331 0.92718 0.0
C271 C 0.25864 0.63341 0.9113 0.0
C272 C 0.2884 0.60108 0.91034 0.0
C273 C 0.28854 0.6204 0.93624 0.0
C274 C 0.23792 0.64988 0.90216 0.0
C275 C 0.23574 0.66994 0.9089 0.0
C276 C 0.21824 0.68562 0.8995 0.0
C277 C 0.20237 0.68152 0.88321 0.0
C278 C 0.20354 0.66129 0.8768 0.0
C279 C 0.22118 0.64572 0.88609 0.0
C280 C 0.30027 0.58283 0.90031 0.0
C281 C 0.28266 0.57785 0.8846 0.0
C282 C 0.29502 0.56128 0.87465 0.0
C283 C 0.32557 0.54953 0.88006 0.0
C284 C 0.3429 0.55429 0.89585 0.0
C285 C 0.33019 0.57067 0.90595 0.0
C286 C 0.29931 0.62238 0.95472 0.0
C287 C 0.31451 0.6055 0.96364 0.0
Tb288 Tb 0.04801 0.13954 0.23981 0.0
C289 C 0.87789 0.13123 0.25745 0.0
N290 N 0.89925 0.1485 0.25681 0.0
C291 C 0.85149 0.16601 0.24098 0.0
C292 C 0.84264 0.13053 0.24951 0.0
C293 C 0.88641 0.1659 0.24894 0.0
C294 C 0.82955 0.14823 0.2412 0.0
C295 C 0.87139 0.09553 0.26609 0.0
C296 C 0.89226 0.11393 0.26553 0.0
C297 C 0.83628 0.09471 0.25814 0.0
C298 C 0.82193 0.11217 0.24988 0.0
Tb299 Tb 0.95621 0.14638 0.26969 0.0
N300 N 0.92693 0.1151 0.27259 0.0
C301 C 0.88634 0.07855 0.27471 0.0
C302 C 0.94034 0.09899 0.28205 0.0
C303 C 0.92069 0.08041 0.28296 0.0
H304 H 0.90274 0.17984 0.24913 0.0
H305 H 0.93185 0.06761 0.29024 0.0
H306 H 0.10678 0.11377 0.26441 0.0
H307 H 0.05501 0.21624 0.21193 0.0
H308 H 0.96548 0.10036 0.28943 0.0
H309 H 0.8712 0.06413 0.27545 0.0
H310 H 0.03149 0.18103 0.21448 0.0
H311 H 0.84148 0.17983 0.23474 0.0
H312 H 0.81996 0.08067 0.25834 0.0
H313 H 0.79485 0.1113 0.24378 0.0
H314 H 0.16616 0.12052 0.27956 0.0
H315 H 0.8026 0.14833 0.23493 0.0
H316 H 0.11008 0.22717 0.22877 0.0
N317 N 0.10289 0.14402 0.25413 0.0
C318 C 0.11916 0.16284 0.25254 0.0
C319 C 0.15315 0.13257 0.27205 0.0
C320 C 0.15277 0.16744 0.26109 0.0
C321 C 0.1195 0.1288 0.26353 0.0
C322 C 0.16979 0.15199 0.27089 0.0
N323 N 0.06828 0.17266 0.23496 0.0
C324 C 0.05338 0.18584 0.22306 0.0
C325 C 0.11658 0.19756 0.24121 0.0
C326 C 0.10086 0.17775 0.24294 0.0
C327 C 0.0989 0.2118 0.23047 0.0
C328 C 0.06763 0.20575 0.22106 0.0
H329 H 0.19567 0.15491 0.27765 0.0
H330 H 0.19361 0.19122 0.26634 0.0
H331 H 0.16214 0.21754 0.24881 0.0
O332 O 0.05922 0.13894 0.21278 0.0
O333 O 0.05313 0.15332 0.2657 0.0
O334 O 0.99833 0.17056 0.26811 0.0
O335 O 0.08763 0.11855 0.23066 0.0
O336 O 0.99837 0.1539 0.22831 0.0
O337 O 0.97164 0.17067 0.25144 0.0
O338 O 0.95374 0.14614 0.2974 0.0
O339 O 0.9494 0.12938 0.24531 0.0
O340 O 0.00658 0.1148 0.23929 0.0
O341 O 0.92025 0.16692 0.28174 0.0
O342 O 0.00327 0.12871 0.28039 0.0
O343 O 0.03455 0.11404 0.25713 0.0
C344 C 0.03316 0.16807 0.27248 0.0
C345 C 0.10505 0.11502 0.20053 0.0
C346 C 0.12155 0.11243 0.17002 0.0
C347 C 0.14528 0.09597 0.17388 0.0
C348 C 0.12914 0.09854 0.20412 0.0
C349 C 0.14907 0.08912 0.19086 0.0
C350 C 0.10141 0.12199 0.18335 0.0
C351 C 0.97585 0.16796 0.2347 0.0
C352 C 0.0836 0.1244 0.21477 0.0
C353 C 0.16791 0.18732 0.25978 0.0
C354 C 0.14987 0.20235 0.24988 0.0
C355 C 0.97021 0.11553 0.23764 0.0
C356 C 0.91327 0.17117 0.31245 0.0
C357 C 0.89882 0.17234 0.34331 0.0
C358 C 0.88511 0.19242 0.34115 0.0
C359 C 0.89926 0.19124 0.31068 0.0
C360 C 0.91276 0.16165 0.32883 0.0
C361 C 0.88526 0.20174 0.32494 0.0
C362 C 0.02582 0.11479 0.27368 0.0
C363 C 0.92926 0.16089 0.29715 0.0
H364 H 0.16091 0.08845 0.16372 0.0
H365 H 0.13247 0.09283 0.21718 0.0
H366 H 0.16745 0.07641 0.19375 0.0
H367 H 0.08295 0.13465 0.18033 0.0
H368 H 0.87384 0.20086 0.35203 0.0
H369 H 0.89949 0.19896 0.29827 0.0
H370 H 0.92354 0.1462 0.33036 0.0
H371 H 0.87457 0.21719 0.32344 0.0
Tb372 Tb 0.45958 0.35996 0.73995 0.0
C373 C 0.61304 0.39079 0.7605 0.0
N374 N 0.60198 0.37092 0.75875 0.0
C375 C 0.65602 0.36361 0.74173 0.0
C376 C 0.64522 0.39818 0.75219 0.0
C377 C 0.62358 0.35707 0.7501 0.0
C378 C 0.66664 0.38432 0.74257 0.0
C379 C 0.60257 0.42425 0.77325 0.0
C380 C 0.59191 0.40356 0.77081 0.0
C381 C 0.63367 0.43206 0.76438 0.0
C382 C 0.65502 0.41903 0.75389 0.0
Tb383 Tb 0.5482 0.36177 0.77231 0.0
N384 N 0.56224 0.39532 0.77923 0.0
C385 C 0.58245 0.4362 0.785 0.0
C386 C 0.54504 0.40636 0.79196 0.0
C387 C 0.55406 0.42708 0.79467 0.0
H388 H 0.61543 0.34108 0.74947 0.0
H389 H 0.53953 0.43589 0.80442 0.0
H390 H 0.40281 0.39665 0.75553 0.0
H391 H 0.42985 0.28087 0.72452 0.0
H392 H 0.5247 0.39925 0.8003 0.0
H393 H 0.58966 0.45219 0.78725 0.0
H394 H 0.46483 0.31376 0.72299 0.0
H395 H 0.67274 0.3527 0.73459 0.0
H396 H 0.64202 0.448 0.76591 0.0
H397 H 0.67936 0.42514 0.74741 0.0
H398 H 0.34621 0.39801 0.77327 0.0
H399 H 0.69163 0.38937 0.73599 0.0
H400 H 0.37375 0.27824 0.74298 0.0
N401 N 0.40491 0.36383 0.75496 0.0
C402 C 0.38528 0.34625 0.75778 0.0
C403 C 0.35725 0.38329 0.76927 0.0
C404 C 0.35174 0.34634 0.76721 0.0
C405 C 0.38998 0.38239 0.75954 0.0
C406 C 0.33843 0.36513 0.77344 0.0
N407 N 0.42933 0.32912 0.74072 0.0
C408 C 0.44038 0.31263 0.73106 0.0
C409 C 0.37671 0.31 0.7514 0.0
C410 C 0.39745 0.32835 0.75005 0.0
C411 C 0.38893 0.29265 0.74231 0.0
C412 C 0.42061 0.29406 0.73188 0.0
H413 H 0.31279 0.36589 0.78076 0.0
H414 H 0.30625 0.32757 0.7768 0.0
H415 H 0.32807 0.29574 0.76287 0.0
O416 O 0.4664 0.35718 0.71306 0.0
O417 O 0.47159 0.33443 0.75784 0.0
O418 O 0.49483 0.35047 0.78184 0.0
O419 O 0.41704 0.3706 0.72352 0.0
O420 O 0.51058 0.34513 0.73087 0.0
O421 O 0.54479 0.33479 0.75504 0.0
O422 O 0.57678 0.36358 0.79622 0.0
O423 O 0.5522 0.37292 0.74552 0.0
O424 O 0.49536 0.38726 0.74004 0.0
O425 O 0.57294 0.33471 0.78197 0.0
O426 O 0.49529 0.37525 0.78108 0.0
O427 O 0.46687 0.38747 0.75628 0.0
C428 C 0.47527 0.33571 0.77468 0.0
C429 C 0.43827 0.38312 0.69669 0.0
C430 C 0.43176 0.39469 0.66681 0.0
C431 C 0.44671 0.41391 0.67161 0.0
C432 C 0.45268 0.40245 0.70126 0.0
C433 C 0.45699 0.41773 0.68874 0.0
C434 C 0.42767 0.37932 0.67951 0.0
C435 C 0.5352 0.33315 0.73855 0.0
C436 C 0.43551 0.36654 0.70953 0.0
C437 C 0.33186 0.32786 0.76944 0.0
C438 C 0.34424 0.30974 0.76148 0.0
C439 C 0.53168 0.38725 0.73842 0.0
C440 C 0.60671 0.33369 0.80929 0.0
C441 C 0.62718 0.33078 0.8394 0.0
C442 C 0.64612 0.31258 0.83506 0.0
C443 C 0.62558 0.31541 0.80537 0.0
C444 C 0.60783 0.34145 0.82631 0.0
C445 C 0.64533 0.30502 0.81818 0.0
C446 C 0.47329 0.38833 0.77304 0.0
C447 C 0.58503 0.34415 0.7957 0.0
H448 H 0.44993 0.42609 0.66216 0.0
H449 H 0.46063 0.40568 0.71447 0.0
H450 H 0.46829 0.43259 0.69232 0.0
H451 H 0.41686 0.3643 0.67599 0.0
H452 H 0.66182 0.30422 0.84471 0.0
H453 H 0.62516 0.30917 0.79238 0.0
H454 H 0.59275 0.35536 0.82947 0.0
H455 H 0.66 0.29099 0.81502 0.0
Tb456 Tb 0.05165 0.85932 0.73995 0.0
C457 C 0.88489 0.84533 0.75562 0.0
N458 N 0.90325 0.86359 0.75677 0.0
C459 C 0.85332 0.88052 0.74201 0.0
C460 C 0.85008 0.84388 0.74735 0.0
C461 C 0.88788 0.88115 0.75031 0.0
C462 C 0.8344 0.86179 0.74045 0.0
C463 C 0.88344 0.80874 0.7617 0.0
C464 C 0.90156 0.82797 0.76259 0.0
C465 C 0.8489 0.80714 0.7533 0.0
C466 C 0.83228 0.82467 0.74613 0.0
Tb467 Tb 0.96 0.8627 0.76995 0.0
N468 N 0.93549 0.83005 0.77027 0.0
C469 C 0.90034 0.79176 0.76951 0.0
C470 C 0.95057 0.81384 0.77902 0.0
C471 C 0.93373 0.79442 0.77846 0.0
H472 H 0.90192 0.89573 0.75181 0.0
H473 H 0.94621 0.78157 0.78519 0.0
H474 H 0.10912 0.82505 0.75689 0.0
H475 H 0.06898 0.94031 0.72514 0.0
H476 H 0.9748 0.81577 0.78696 0.0
H477 H 0.88732 0.77671 0.76915 0.0
H478 H 0.03797 0.90676 0.7239 0.0
H479 H 0.84127 0.89448 0.73687 0.0
H480 H 0.83468 0.79245 0.75239 0.0
H481 H 0.80559 0.8232 0.73973 0.0
H482 H 0.17088 0.82501 0.7708 0.0
H483 H 0.80767 0.86134 0.73398 0.0
H484 H 0.12981 0.94382 0.73979 0.0
N485 N 0.10904 0.85728 0.7524 0.0
C486 C 0.12866 0.87516 0.75326 0.0
C487 C 0.15922 0.83926 0.76603 0.0
C488 C 0.16432 0.87584 0.7608 0.0
C489 C 0.12396 0.83937 0.75839 0.0
C490 C 0.17943 0.85759 0.76732 0.0
N491 N 0.078 0.89151 0.73957 0.0
C492 C 0.06311 0.9081 0.73127 0.0
C493 C 0.13221 0.91169 0.74707 0.0
C494 C 0.1127 0.89285 0.74656 0.0
C495 C 0.11574 0.92905 0.73968 0.0
C496 C 0.08128 0.92717 0.73152 0.0
H497 H 0.20677 0.85746 0.77321 0.0
H498 H 0.21103 0.8955 0.76736 0.0
H499 H 0.18296 0.92688 0.7553 0.0
O500 O 0.05221 0.86291 0.71286 0.0
O501 O 0.0564 0.87458 0.76533 0.0
O502 O 0.99877 0.88863 0.77048 0.0
O503 O 0.08939 0.84181 0.7253 0.0
O504 O 0.00229 0.87556 0.73001 0.0
O505 O 0.97122 0.88939 0.75358 0.0
O506 O 0.95869 0.85985 0.79705 0.0
O507 O 0.95606 0.84858 0.74414 0.0
O508 O 0.01277 0.8334 0.73967 0.0
O509 O 0.92051 0.87981 0.78396 0.0
O510 O 0.00966 0.84707 0.78012 0.0
O511 O 0.04056 0.83288 0.75672 0.0
C512 C 0.03482 0.88799 0.77309 0.0
C513 C 0.11122 0.85871 0.70011 0.0
C514 C 0.13575 0.86793 0.67167 0.0
C515 C 0.16835 0.87526 0.67963 0.0
C516 C 0.14442 0.86571 0.7077 0.0
C517 C 0.17265 0.87405 0.69752 0.0
C518 C 0.10717 0.85965 0.68203 0.0
C519 C 0.97908 0.88894 0.73693 0.0
C520 C 0.08048 0.8507 0.71084 0.0
C521 C 0.18363 0.89464 0.76157 0.0
C522 C 0.16762 0.91252 0.75473 0.0
C523 C 0.9769 0.83454 0.7368 0.0
C524 C 0.89976 0.8638 0.80972 0.0
C525 C 0.87435 0.85796 0.83857 0.0
C526 C 0.84471 0.8469 0.83118 0.0
C527 C 0.86956 0.85302 0.80259 0.0
C528 C 0.90182 0.86646 0.82774 0.0
C529 C 0.84227 0.84458 0.81328 0.0
C530 C 0.03322 0.83377 0.7734 0.0
C531 C 0.92992 0.87176 0.79869 0.0
H532 H 0.1909 0.88152 0.67196 0.0
H533 H 0.14879 0.86464 0.72145 0.0
H534 H 0.19808 0.87946 0.7035 0.0
H535 H 0.08174 0.85414 0.67605 0.0
H536 H 0.82312 0.84032 0.83925 0.0
H537 H 0.86696 0.8511 0.78882 0.0
H538 H 0.92505 0.87479 0.83335 0.0
H539 H 0.81915 0.83622 0.80767 0.0
Tb540 Tb 0.45855 0.64108 0.24011 0.0
C541 C 0.63091 0.65087 0.25711 0.0
N542 N 0.60903 0.63389 0.25866 0.0
C543 C 0.65783 0.61283 0.24723 0.0
C544 C 0.66718 0.64952 0.25034 0.0
C545 C 0.62203 0.61495 0.25403 0.0
C546 C 0.6805 0.63019 0.24534 0.0
C547 C 0.63793 0.68785 0.26021 0.0
C548 C 0.61644 0.6698 0.26195 0.0
C549 C 0.6742 0.68657 0.25358 0.0
C550 C 0.68878 0.66746 0.24865 0.0
Tb551 Tb 0.55118 0.63938 0.26974 0.0
N552 N 0.58064 0.67054 0.26763 0.0
C553 C 0.62219 0.70664 0.26506 0.0
C554 C 0.56575 0.68873 0.27306 0.0
C555 C 0.58606 0.70705 0.27165 0.0
H556 H 0.60516 0.60139 0.25598 0.0
H557 H 0.57391 0.72146 0.27576 0.0
H558 H 0.39768 0.66572 0.26446 0.0
H559 H 0.45863 0.5635 0.21395 0.0
H560 H 0.53853 0.68932 0.2787 0.0
H561 H 0.63776 0.72088 0.26393 0.0
H562 H 0.47795 0.59965 0.21539 0.0
H563 H 0.66801 0.59779 0.24355 0.0
H564 H 0.69113 0.70029 0.25213 0.0
H565 H 0.71673 0.66674 0.24347 0.0
H566 H 0.34023 0.6574 0.28058 0.0
H567 H 0.70823 0.6285 0.24007 0.0
H568 H 0.40622 0.55113 0.23189 0.0
N569 N 0.40496 0.63523 0.25511 0.0
C570 C 0.39095 0.6158 0.25426 0.0
C571 C 0.35433 0.64554 0.27329 0.0
C572 C 0.35844 0.61032 0.26334 0.0
C573 C 0.38693 0.65019 0.26423 0.0
C574 C 0.34011 0.6255 0.27292 0.0
N575 N 0.44162 0.60725 0.2362 0.0
C576 C 0.45725 0.59427 0.22435 0.0
C577 C 0.39693 0.58087 0.24373 0.0
C578 C 0.41033 0.60126 0.24477 0.0
C579 C 0.41559 0.56694 0.23306 0.0
C580 C 0.44536 0.57381 0.22303 0.0
H581 H 0.31502 0.62191 0.28007 0.0
H582 H 0.32089 0.58532 0.26974 0.0
H583 H 0.35438 0.55956 0.25243 0.0
O584 O 0.4477 0.64031 0.21298 0.0
O585 O 0.45684 0.62864 0.26658 0.0
O586 O 0.51327 0.613 0.27014 0.0
O587 O 0.41565 0.65951 0.23045 0.0
O588 O 0.50975 0.62735 0.22945 0.0
O589 O 0.53908 0.613 0.25314 0.0
O590 O 0.54994 0.6458 0.29641 0.0
O591 O 0.55562 0.65554 0.24481 0.0
O592 O 0.49669 0.66717 0.23809 0.0
O593 O 0.58907 0.62419 0.28603 0.0
O594 O 0.50265 0.65625 0.27957 0.0
O595 O 0.46822 0.66824 0.25621 0.0
C596 C 0.47735 0.61387 0.27299 0.0
C597 C 0.39809 0.66159 0.20026 0.0
C598 C 0.38198 0.6634 0.16954 0.0
C599 C 0.35578 0.67875 0.1734 0.0
C600 C 0.37165 0.67695 0.20369 0.0
C601 C 0.35066 0.68541 0.19035 0.0
C602 C 0.40299 0.6547 0.18311 0.0
C603 C 0.53321 0.6141 0.23636 0.0
C604 C 0.42098 0.6536 0.21465 0.0
C605 C 0.34566 0.58989 0.26275 0.0
C606 C 0.36486 0.5752 0.25297 0.0
C607 C 0.5329 0.66736 0.23596 0.0
C608 C 0.56734 0.61821 0.31433 0.0
C609 C 0.57104 0.60988 0.3451 0.0
C610 C 0.55096 0.59164 0.34187 0.0
C611 C 0.54774 0.59986 0.31139 0.0
C612 C 0.57899 0.62316 0.33117 0.0
C613 C 0.53942 0.58672 0.32512 0.0
C614 C 0.47796 0.66878 0.27264 0.0
C615 C 0.57561 0.63238 0.3 0.0
H616 H 0.33884 0.68547 0.1633 0.0
H617 H 0.36728 0.68259 0.21671 0.0
H618 H 0.33037 0.69722 0.19314 0.0
H619 H 0.42344 0.64296 0.18028 0.0
H620 H 0.54477 0.58096 0.35223 0.0
H621 H 0.53913 0.59566 0.29848 0.0
H622 H 0.59393 0.63743 0.33341 0.0
H623 H 0.52423 0.57258 0.32275 0.0
H624 H 0.16124 0.95425 0.34522 0.0
H625 H 0.137 0.98277 0.3281 0.0
H626 H 0.13631 0.02133 0.3735 0.0
H627 H 0.16221 0.99314 0.39059 0.0
H628 H 0.07143 0.00292 0.33203 0.0
H629 H 0.18906 0.05787 0.33874 0.0
H630 H 0.19287 0.03107 0.3446 0.0
H631 H 0.17065 0.04897 0.35898 0.0
C632 C 0.15666 0.96891 0.35153 0.0
C633 C 0.16397 0.97142 0.36928 0.0
C634 C 0.14249 0.98515 0.34174 0.0
C635 C 0.13533 0.00427 0.34945 0.0
C636 C 0.14233 0.00684 0.36718 0.0
H637 H 0.03128 0.11557 0.309 0.0
H638 H 0.05743 0.08895 0.32789 0.0
C639 C 0.15669 0.99061 0.37699 0.0
C640 C 0.11922 0.0212 0.33901 0.0
H641 H 0.13431 0.07053 0.32531 0.0
C642 C 0.08523 0.01768 0.33054 0.0
C643 C 0.13726 0.04046 0.33708 0.0
C644 C 0.17464 0.04482 0.34519 0.0
C645 C 0.06874 0.03292 0.32026 0.0
C646 C 0.08681 0.05212 0.31833 0.0
C647 C 0.12054 0.05578 0.32691 0.0
C648 C 0.07155 0.06833 0.30696 0.0
C649 C 0.032 0.02848 0.31158 0.0
C650 C 0.0713 0.06556 0.28899 0.0
C651 C 0.05657 0.0807 0.27819 0.0
C652 C 0.04171 0.09888 0.28519 0.0
C653 C 0.04228 0.10167 0.30323 0.0
C654 C 0.05729 0.08654 0.31402 0.0
H655 H 0.01817 0.01464 0.31708 0.0
H656 H 0.01298 0.04183 0.31284 0.0
H657 H 0.03672 0.02574 0.29759 0.0
H658 H 0.08254 0.05166 0.28332 0.0
H659 H 0.05656 0.07805 0.26436 0.0
H660 H 0.39735 0.54303 0.87034 0.0
H661 H 0.42117 0.51613 0.85121 0.0
H662 H 0.31049 0.49098 0.84615 0.0
H663 H 0.28641 0.51835 0.86479 0.0
H664 H 0.42336 0.47627 0.85429 0.0
H665 H 0.33915 0.4946 0.79644 0.0
H666 H 0.34125 0.51138 0.81499 0.0
H667 H 0.31064 0.48938 0.81494 0.0
C668 C 0.37815 0.53174 0.86513 0.0
C669 C 0.34004 0.53279 0.86896 0.0
C670 C 0.39174 0.51642 0.85417 0.0
C671 C 0.36754 0.50175 0.84694 0.0
C672 C 0.32955 0.50249 0.85111 0.0
H673 H 0.44511 0.38515 0.80546 0.0
H674 H 0.41814 0.41259 0.8231 0.0
C675 C 0.31585 0.51802 0.86185 0.0
C676 C 0.38238 0.48536 0.83548 0.0
H677 H 0.37114 0.46245 0.79606 0.0
C678 C 0.41206 0.47334 0.84152 0.0
C679 C 0.36814 0.48175 0.81867 0.0
C680 C 0.33832 0.49511 0.8108 0.0
C681 C 0.42757 0.45769 0.83134 0.0
C682 C 0.41199 0.45335 0.81491 0.0
C683 C 0.3827 0.46556 0.80875 0.0
C684 C 0.42608 0.43642 0.80384 0.0
C685 C 0.46111 0.44637 0.83818 0.0
C686 C 0.43762 0.44041 0.78681 0.0
C687 C 0.45207 0.42462 0.77656 0.0
C688 C 0.45558 0.40466 0.78329 0.0
C689 C 0.44316 0.40053 0.80013 0.0
C690 C 0.42804 0.41621 0.81023 0.0
H691 H 0.47642 0.45571 0.84791 0.0
H692 H 0.45186 0.43199 0.84462 0.0
H693 H 0.48062 0.44229 0.82761 0.0
H694 H 0.43614 0.45584 0.78155 0.0
H695 H 0.46154 0.42812 0.76359 0.0
H696 H 0.72052 0.52721 0.65719 0.0
H697 H 0.69786 0.49886 0.67518 0.0
H698 H 0.59283 0.50011 0.6483 0.0
H699 H 0.6151 0.52856 0.63036 0.0
H700 H 0.63683 0.49859 0.69726 0.0
H701 H 0.62192 0.43926 0.64612 0.0
H702 H 0.64819 0.46269 0.64297 0.0
H703 H 0.59832 0.4629 0.64131 0.0
C704 C 0.69257 0.52148 0.65512 0.0
C705 C 0.66964 0.53014 0.6423 0.0
C706 C 0.67974 0.50522 0.66536 0.0
C707 C 0.64386 0.49721 0.66292 0.0
C708 C 0.62091 0.50576 0.65014 0.0
H709 H 0.50731 0.4263 0.73285 0.0
H710 H 0.53635 0.45285 0.71484 0.0
C711 C 0.6337 0.52202 0.63989 0.0
C712 C 0.62992 0.48042 0.67418 0.0
H713 H 0.59417 0.43168 0.67339 0.0
C714 C 0.62771 0.48391 0.69206 0.0
C715 C 0.61853 0.46118 0.66739 0.0
C716 C 0.62215 0.45615 0.64842 0.0
C717 C 0.61344 0.46887 0.7033 0.0
C718 C 0.60056 0.45 0.6964 0.0
C719 C 0.60372 0.44627 0.67859 0.0
C720 C 0.58326 0.43402 0.70743 0.0
C721 C 0.61247 0.47321 0.72246 0.0
C722 C 0.59961 0.41452 0.70891 0.0
C723 C 0.58285 0.39929 0.71901 0.0
C724 C 0.54947 0.40331 0.72778 0.0
C725 C 0.53302 0.42279 0.72619 0.0
C726 C 0.54975 0.43801 0.71606 0.0
H727 H 0.63166 0.48594 0.72607 0.0
H728 H 0.58389 0.47777 0.72622 0.0
H729 H 0.62005 0.45928 0.73 0.0
H730 H 0.62535 0.41111 0.70224 0.0
H731 H 0.59575 0.38429 0.7198 0.0
H732 H 0.81788 0.99735 0.12243 0.0
H733 H 0.8414 0.02564 0.14037 0.0
H734 H 0.86582 0.98274 0.18134 0.0
H735 H 0.84254 0.95443 0.16353 0.0
H736 H 0.82981 0.01856 0.19271 0.0
H737 H 0.95169 0.03635 0.15106 0.0
H738 H 0.90752 0.03659 0.1402 0.0
H739 H 0.9251 0.01289 0.14889 0.0
C740 C 0.8285 0.99395 0.13521 0.0
C741 C 0.82842 0.97366 0.14155 0.0
C742 C 0.84188 0.01011 0.14544 0.0
C743 C 0.85569 0.00622 0.1621 0.0
C744 C 0.85521 0.98605 0.16853 0.0
H745 H 0.99948 0.07916 0.22656 0.0
H746 H 0.96969 0.05311 0.20844 0.0
C747 C 0.84179 0.96991 0.15835 0.0
C748 C 0.871 0.02307 0.17286 0.0
H749 H 0.94159 0.05819 0.17501 0.0
C750 C 0.85417 0.0273 0.18884 0.0
C751 C 0.90302 0.03424 0.16782 0.0
C752 C 0.92317 0.02974 0.15114 0.0
C753 C 0.86857 0.04243 0.19997 0.0
C754 C 0.90034 0.05374 0.19483 0.0
C755 C 0.91709 0.04955 0.17883 0.0
C756 C 0.91761 0.06945 0.20613 0.0
C757 C 0.85036 0.04581 0.21732 0.0
C758 C 0.89821 0.08733 0.21073 0.0
C759 C 0.9152 0.1023 0.22105 0.0
C760 C 0.95187 0.09962 0.22694 0.0
C761 C 0.97121 0.08171 0.22224 0.0
C762 C 0.95424 0.06679 0.21191 0.0
H763 H 0.83167 0.03284 0.22088 0.0
H764 H 0.87158 0.04774 0.22763 0.0
H765 H 0.83348 0.06006 0.21682 0.0
H766 H 0.87018 0.08987 0.20609 0.0
H767 H 0.89987 0.11613 0.22409 0.0
H768 H 0.79617 0.02721 0.65354 0.0
H769 H 0.82055 0.99935 0.67148 0.0
H770 H 0.92481 0.00229 0.64408 0.0
H771 H 0.90113 0.03065 0.62647 0.0
H772 H 0.84837 0.96072 0.6625 0.0
H773 H 0.9557 0.00887 0.69482 0.0
H774 H 0.91821 0.01978 0.68233 0.0
H775 H 0.95804 0.00906 0.67162 0.0
C776 C 0.82439 0.02204 0.65141 0.0
C777 C 0.84685 0.0313 0.63869 0.0
C778 C 0.83816 0.00602 0.66158 0.0
C779 C 0.87466 0.99901 0.65928 0.0
C780 C 0.89678 0.00775 0.64626 0.0
H781 H 0.97259 0.88784 0.70175 0.0
H782 H 0.94628 0.91423 0.68285 0.0
C783 C 0.88305 0.02379 0.63608 0.0
C784 C 0.88965 0.98273 0.6707 0.0
H785 H 0.9572 0.97307 0.70061 0.0
C786 C 0.87215 0.96339 0.67085 0.0
C787 C 0.92031 0.9864 0.68175 0.0
C788 C 0.93901 0.0072 0.6828 0.0
C789 C 0.88486 0.9475 0.6816 0.0
C790 C 0.91618 0.951 0.69228 0.0
C791 C 0.93337 0.97041 0.69229 0.0
C792 C 0.93139 0.93481 0.70371 0.0
C793 C 0.86429 0.92722 0.6817 0.0
C794 C 0.93239 0.93785 0.72166 0.0
C795 C 0.94763 0.92287 0.73249 0.0
C796 C 0.96225 0.90463 0.72553 0.0
C797 C 0.96141 0.9017 0.70751 0.0
C798 C 0.94614 0.91668 0.6967 0.0
H799 H 0.83591 0.92869 0.67615 0.0
H800 H 0.87984 0.9159 0.67378 0.0
H801 H 0.86197 0.92102 0.69504 0.0
H802 H 0.92139 0.95183 0.72729 0.0
H803 H 0.94831 0.92571 0.74629 0.0
H804 H 0.65543 0.45185 0.16312 0.0
H805 H 0.63387 0.48087 0.18048 0.0
H806 H 0.6417 0.5206 0.136 0.0
H807 H 0.66406 0.49173 0.11854 0.0
H808 H 0.67113 0.51994 0.18623 0.0
H809 H 0.53351 0.52818 0.15412 0.0
H810 H 0.56121 0.50515 0.15224 0.0
H811 H 0.57331 0.52772 0.14006 0.0
C812 C 0.65296 0.46678 0.15703 0.0
C813 C 0.66152 0.46943 0.1394 0.0
C814 C 0.64043 0.48333 0.16696 0.0
C815 C 0.63587 0.5028 0.15948 0.0
C816 C 0.64449 0.50559 0.14194 0.0
H817 H 0.5487 0.61742 0.20191 0.0
H818 H 0.576 0.59119 0.18302 0.0
C819 C 0.65716 0.48906 0.13198 0.0
C820 C 0.62231 0.52018 0.17012 0.0
H821 H 0.54871 0.55258 0.17559 0.0
C822 C 0.6444 0.52712 0.18391 0.0
C823 C 0.58751 0.52952 0.16699 0.0
C824 C 0.56226 0.52223 0.15264 0.0
C825 C 0.63265 0.54327 0.19466 0.0
C826 C 0.5975 0.55237 0.19173 0.0
C827 C 0.57565 0.54559 0.17779 0.0
C828 C 0.58234 0.56851 0.20329 0.0
C829 C 0.65818 0.5506 0.20889 0.0
C830 C 0.57654 0.56439 0.2209 0.0
C831 C 0.56108 0.57932 0.23168 0.0
C832 C 0.55085 0.59862 0.22503 0.0
C833 C 0.55644 0.6027 0.20738 0.0
C834 C 0.57202 0.58775 0.1966 0.0
H835 H 0.6876 0.54651 0.20622 0.0
H836 H 0.6563 0.56753 0.21065 0.0
H837 H 0.65004 0.5431 0.22122 0.0
H838 H 0.58334 0.54946 0.22625 0.0
H839 H 0.55639 0.57559 0.24516 0.0
H840 H 0.39394 0.47124 0.37972 0.0
H841 H 0.41649 0.49962 0.36178 0.0
H842 H 0.31041 0.50234 0.33588 0.0
H843 H 0.28749 0.47403 0.35386 0.0
H844 H 0.37049 0.5024 0.31327 0.0
H845 H 0.38942 0.56065 0.36499 0.0
H846 H 0.41248 0.53673 0.3693 0.0
H847 H 0.36257 0.53742 0.36809 0.0
C848 C 0.37519 0.47808 0.3704 0.0
C849 C 0.33886 0.47041 0.36827 0.0
C850 C 0.38814 0.49429 0.36015 0.0
C851 C 0.36495 0.50325 0.34767 0.0
C852 C 0.32871 0.49566 0.34548 0.0
H853 H 0.41533 0.61722 0.29296 0.0
H854 H 0.38555 0.5902 0.31021 0.0
C855 C 0.31573 0.47943 0.35571 0.0
C856 C 0.37897 0.52009 0.3365 0.0
H857 H 0.41633 0.56844 0.3376 0.0
C858 C 0.38029 0.5169 0.31856 0.0
C859 C 0.39125 0.53909 0.34343 0.0
C860 C 0.38857 0.54382 0.36249 0.0
C861 C 0.39451 0.53201 0.30738 0.0
C862 C 0.40829 0.55063 0.3144 0.0
C863 C 0.40606 0.55405 0.33229 0.0
C864 C 0.42552 0.56671 0.30344 0.0
C865 C 0.39438 0.52799 0.28816 0.0
C866 C 0.45787 0.56245 0.29397 0.0
C867 C 0.47463 0.57778 0.28398 0.0
C868 C 0.45953 0.59767 0.28345 0.0
C869 C 0.42728 0.60194 0.293 0.0
C870 C 0.4104 0.58658 0.30292 0.0
H871 H 0.37396 0.51584 0.28459 0.0
H872 H 0.38776 0.54221 0.28083 0.0
H873 H 0.42236 0.52269 0.28413 0.0
H874 H 0.47039 0.54732 0.29446 0.0
H875 H 0.49942 0.57407 0.27668 0.0
H876 H 0.11379 0.03583 0.87531 0.0
H877 H 0.09147 0.00784 0.85674 0.0
H878 H 0.20452 0.99205 0.84408 0.0
H879 H 0.22718 0.01999 0.86271 0.0
H880 H 0.11658 0.00337 0.81798 0.0
H881 H 0.14605 0.93726 0.86179 0.0
H882 H 0.13767 0.96286 0.87005 0.0
H883 H 0.18061 0.9572 0.85935 0.0
C884 C 0.13391 0.02623 0.86875 0.0
C885 C 0.17224 0.03006 0.87049 0.0
C886 C 0.12112 0.01037 0.85809 0.0
C887 C 0.1464 0.99792 0.84915 0.0
C888 C 0.18466 0.00149 0.85097 0.0
H889 H 0.10592 0.88914 0.78584 0.0
H890 H 0.13498 0.91639 0.80292 0.0
C891 C 0.19751 0.01748 0.86153 0.0
C892 C 0.13257 0.98156 0.83753 0.0
H893 H 0.11915 0.92968 0.83479 0.0
C894 C 0.11716 0.98723 0.82158 0.0
C895 C 0.13391 0.9606 0.84226 0.0
C896 C 0.1503 0.95394 0.85931 0.0
C897 C 0.1028 0.97239 0.81019 0.0
C898 C 0.10282 0.95142 0.81517 0.0
C899 C 0.11895 0.94576 0.83102 0.0
C900 C 0.08547 0.93517 0.80434 0.0
C901 C 0.08832 0.97933 0.79282 0.0
C902 C 0.04786 0.93651 0.79961 0.0
C903 C 0.03143 0.92118 0.78948 0.0
C904 C 0.05215 0.90403 0.78408 0.0
C905 C 0.08949 0.90242 0.7893 0.0
C906 C 0.10605 0.9179 0.79923 0.0
H907 H 0.10102 0.9942 0.78884 0.0
H908 H 0.09395 0.9677 0.78263 0.0
H909 H 0.05783 0.98163 0.79367 0.0
H910 H 0.03109 0.94936 0.80385 0.0
H911 H 0.00249 0.92283 0.78588 0.0
H912 H 0.12119 0.11101 1.0047 0.0
H913 H 0.10551 0.11192 0.03543 0.0
H914 H 0.19929 0.15172 0.04516 0.0
H915 H 0.21595 0.15046 0.0145 0.0
H916 H 0.15836 0.09903 0.0624 0.0
H917 H 0.10818 0.17936 0.07058 0.0
H918 H 0.10834 0.16644 0.04987 0.0
H919 H 0.15101 0.17595 0.0589 0.0
C920 C 0.13858 0.11996 0.01334 0.0
C921 C 0.17004 0.13054 0.00709 0.0
C922 C 0.12936 0.12059 0.03088 0.0
C923 C 0.15103 0.13203 0.04251 0.0
C924 C 0.18185 0.14307 0.03632 0.0
H925 H 0.16098 0.14255 0.15401 0.0
H926 H 0.16502 0.14869 0.12269 0.0
C927 C 0.19128 0.14235 0.01878 0.0
C928 C 0.14315 0.13099 0.06128 0.0
H929 H 0.11495 0.1594 0.09603 0.0
C930 C 0.14863 0.11217 0.06975 0.0
C931 C 0.13084 0.14824 0.07079 0.0
C932 C 0.12395 0.16866 0.06213 0.0
C933 C 0.14269 0.11018 0.08759 0.0
C934 C 0.12987 0.12735 0.09714 0.0
C935 C 0.12445 0.14622 0.08866 0.0
C936 C 0.12322 0.12598 0.11604 0.0
C937 C 0.15128 0.08984 0.09613 0.0
C938 C 0.09727 0.11185 0.12269 0.0
C939 C 0.09506 0.10834 0.1405 0.0
C940 C 0.11831 0.11917 0.1519 0.0
C941 C 0.14256 0.13423 0.14538 0.0
C942 C 0.14491 0.13767 0.12755 0.0
H943 H 0.16971 0.08016 0.08799 0.0
H944 H 0.16487 0.09219 0.10888 0.0
H945 H 0.12499 0.08123 0.09824 0.0
H946 H 0.07982 0.10293 0.11406 0.0
H947 H 0.0764 0.09654 0.14532 0.0
H948 H 0.38775 0.38787 0.50288 0.0
H949 H 0.4051 0.38835 0.53342 0.0
H950 H 0.29701 0.36457 0.54709 0.0
H951 H 0.27918 0.36425 0.51649 0.0
H952 H 0.36707 0.4111 0.55932 0.0
H953 H 0.3701 0.32738 0.57421 0.0
H954 H 0.37196 0.33715 0.55236 0.0
H955 H 0.32864 0.33669 0.56387 0.0
C956 C 0.36762 0.38273 0.51236 0.0
C957 C 0.33198 0.37614 0.50724 0.0
C958 C 0.37767 0.3829 0.5298 0.0
C959 C 0.35247 0.37635 0.54249 0.0
C960 C 0.31711 0.36935 0.53746 0.0
H961 H 0.3681 0.37602 0.65519 0.0
H962 H 0.34819 0.37117 0.62514 0.0
C963 C 0.30698 0.36918 0.51997 0.0
C964 C 0.36261 0.37813 0.56101 0.0
H965 H 0.37952 0.35026 0.59762 0.0
C966 C 0.36986 0.3978 0.5677 0.0
C967 C 0.36583 0.36076 0.57192 0.0
C968 C 0.35901 0.33925 0.56527 0.0
C969 C 0.38024 0.40063 0.58503 0.0
C970 C 0.38439 0.38324 0.59587 0.0
C971 C 0.37653 0.36356 0.58926 0.0
C972 C 0.39726 0.38525 0.61403 0.0
C973 C 0.38603 0.42228 0.59161 0.0
C974 C 0.43184 0.39432 0.61775 0.0
C975 C 0.44318 0.39719 0.63487 0.0
C976 C 0.42038 0.39079 0.64863 0.0
C977 C 0.38634 0.38104 0.64487 0.0
C978 C 0.37489 0.3783 0.62772 0.0
H979 H 0.37144 0.43375 0.58341 0.0
H980 H 0.37602 0.42391 0.60512 0.0
H981 H 0.41615 0.42601 0.59134 0.0
H982 H 0.45001 0.39929 0.60739 0.0
H983 H 0.46988 0.40437 0.63734 0.0
H984 H 0.68874 0.40398 0.99383 0.0
H985 H 0.67287 0.40033 0.96318 0.0
H986 H 0.64776 0.33612 0.97129 0.0
H987 H 0.6624 0.33977 1.00199 0.0
H988 H 0.70558 0.37497 0.93893 0.0
H989 H 0.55605 0.35601 0.94534 0.0
H990 H 0.58298 0.36677 0.96288 0.0
H991 H 0.58523 0.33967 0.95818 0.0
C992 C 0.67929 0.38915 0.98915 0.0
C993 C 0.67675 0.37218 1.00041 0.0
C994 C 0.67042 0.38707 0.9716 0.0
C995 C 0.65853 0.36804 0.96498 0.0
C996 C 0.65611 0.35107 0.97616 0.0
H997 H 0.61872 0.30802 0.86882 0.0
H998 H 0.62447 0.3195 0.89877 0.0
C999 C 0.66499 0.35312 0.99368 0.0
C1000 C 0.65035 0.3656 0.94625 0.0
H1001 H 0.58404 0.34868 0.91792 0.0
C1002 C 0.67885 0.36951 0.93429 0.0
C1003 C 0.6154 0.35856 0.94022 0.0
C1004 C 0.58304 0.3552 0.95231 0.0
C1005 C 0.67396 0.36558 0.91655 0.0
C1006 C 0.63942 0.35783 0.9106 0.0
C1007 C 0.61053 0.35457 0.9225 0.0
C1008 C 0.63372 0.3515 0.89232 0.0
C1009 C 0.70634 0.36885 0.90445 0.0
C1010 C 0.63613 0.36577 0.87871 0.0
C1011 C 0.63307 0.35921 0.8615 0.0
C1012 C 0.62755 0.33826 0.85761 0.0
C1013 C 0.62374 0.32419 0.87134 0.0
C1014 C 0.62674 0.33075 0.88848 0.0
H1015 H 0.73295 0.37097 0.91154 0.0
H1016 H 0.70928 0.35562 0.89548 0.0
H1017 H 0.70136 0.38286 0.89659 0.0
H1018 H 0.64085 0.38193 0.8814 0.0
H1019 H 0.63611 0.37043 0.85123 0.0
H1020 H 0.7684 0.13135 0.49298 0.0
H1021 H 0.78332 0.13444 0.4622 0.0
H1022 H 0.9002 0.12992 0.47411 0.0
H1023 H 0.8854 0.12649 0.50483 0.0
H1024 H 0.82162 0.1638 0.44648 0.0
H1025 H 0.89238 0.0896 0.43474 0.0
H1026 H 0.86588 0.09457 0.45411 0.0
H1027 H 0.91301 0.10372 0.45224 0.0
C1028 C 0.79727 0.13096 0.48902 0.0
C1029 C 0.82572 0.12863 0.50132 0.0
C1030 C 0.80576 0.13261 0.47142 0.0
C1031 C 0.84286 0.13201 0.46577 0.0
C1032 C 0.87133 0.12978 0.47806 0.0
H1033 H 0.92571 0.18859 0.37316 0.0
H1034 H 0.91371 0.17668 0.40263 0.0
C1035 C 0.86284 0.12795 0.49564 0.0
C1036 C 0.85186 0.13526 0.4472 0.0
H1037 H 0.90065 0.11565 0.41301 0.0
C1038 C 0.83862 0.15315 0.43916 0.0
C1039 C 0.87365 0.12124 0.43751 0.0
C1040 C 0.88672 0.10111 0.44504 0.0
C1041 C 0.84743 0.15774 0.42192 0.0
C1042 C 0.8709 0.14434 0.41254 0.0
C1043 C 0.88317 0.12607 0.42033 0.0
C1044 C 0.88327 0.14948 0.39476 0.0
C1045 C 0.83138 0.17694 0.41389 0.0
C1046 C 0.87207 0.13746 0.38056 0.0
C1047 C 0.87928 0.14415 0.36365 0.0
C1048 C 0.89766 0.16297 0.36078 0.0
C1049 C 0.91106 0.17416 0.37504 0.0
C1050 C 0.90412 0.16742 0.39185 0.0
H1051 H 0.8064 0.18235 0.42099 0.0
H1052 H 0.8525 0.18941 0.4143 0.0
H1053 H 0.82363 0.17425 0.40017 0.0
H1054 H 0.85614 0.12348 0.38255 0.0
H1055 H 0.8686 0.13528 0.35286 0.0
H1056 H 0.81528 0.90997 0.99642 0.0
H1057 H 0.83133 0.9068 0.96577 0.0
H1058 H 0.8512 0.84194 0.97266 0.0
H1059 H 0.83597 0.84498 1.00338 0.0
H1060 H 0.90008 0.88965 0.94964 0.0
H1061 H 0.77022 0.84697 0.93364 0.0
H1062 H 0.77524 0.862 0.95316 0.0
H1063 H 0.79676 0.83719 0.95154 0.0
C1064 C 0.82356 0.89507 0.99149 0.0
C1065 C 0.82411 0.87769 1.00236 0.0
C1066 C 0.8326 0.8933 0.97397 0.0
C1067 C 0.84209 0.87412 0.96698 0.0
C1068 C 0.84346 0.85683 0.97781 0.0
H1069 H 0.87125 0.82803 0.86307 0.0
H1070 H 0.86795 0.8324 0.89446 0.0
C1071 C 0.83455 0.85858 0.99533 0.0
C1072 C 0.84943 0.87202 0.94823 0.0
H1073 H 0.81424 0.85082 0.91135 0.0
C1074 C 0.88139 0.88119 0.9412 0.0
C1075 C 0.82493 0.86098 0.93735 0.0
C1076 C 0.78968 0.85132 0.94421 0.0
C1077 C 0.88997 0.87919 0.92354 0.0
C1078 C 0.86535 0.86816 0.9126 0.0
C1079 C 0.83324 0.85916 0.91971 0.0
C1080 C 0.8719 0.86565 0.89374 0.0
C1081 C 0.92575 0.88844 0.91692 0.0
C1082 C 0.87585 0.88286 0.88286 0.0
C1083 C 0.87836 0.88033 0.86492 0.0
C1084 C 0.87609 0.8606 0.85757 0.0
C1085 C 0.87287 0.8434 0.86846 0.0
C1086 C 0.87099 0.8459 0.88636 0.0
H1087 H 0.94636 0.89055 0.92749 0.0
H1088 H 0.93836 0.87869 0.90671 0.0
H1089 H 0.91992 0.90383 0.91133 0.0
H1090 H 0.87562 0.89828 0.88816 0.0
H1091 H 0.8804 0.89383 0.85675 0.0
H1092 H 0.6234 0.61365 0.50714 0.0
H1093 H 0.60655 0.6145 0.47653 0.0
H1094 H 0.71456 0.63933 0.46405 0.0
H1095 H 0.73209 0.63797 0.49466 0.0
H1096 H 0.60459 0.64819 0.45342 0.0
H1097 H 0.70572 0.58861 0.4324 0.0
H1098 H 0.69388 0.59258 0.45483 0.0
H1099 H 0.72495 0.61006 0.44407 0.0
C1100 C 0.64373 0.61913 0.49788 0.0
C1101 C 0.67924 0.62555 0.50334 0.0
C1102 C 0.63395 0.61975 0.4804 0.0
C1103 C 0.65946 0.62671 0.46799 0.0
C1104 C 0.69465 0.63359 0.47339 0.0
H1105 H 0.63863 0.62558 0.35507 0.0
H1106 H 0.66073 0.63217 0.38453 0.0
C1107 C 0.70448 0.633 0.49091 0.0
C1108 C 0.64902 0.62658 0.44943 0.0
H1109 H 0.66854 0.60362 0.41076 0.0
C1110 C 0.61866 0.63852 0.44407 0.0
C1111 C 0.66755 0.61403 0.43723 0.0
C1112 C 0.69967 0.60044 0.44237 0.0
C1113 C 0.60609 0.63811 0.42687 0.0
C1114 C 0.62391 0.62509 0.41479 0.0
C1115 C 0.6549 0.61357 0.42004 0.0
C1116 C 0.60974 0.62236 0.3969 0.0
C1117 C 0.57394 0.65168 0.42178 0.0
C1118 C 0.57377 0.61461 0.39406 0.0
C1119 C 0.56101 0.61094 0.37727 0.0
C1120 C 0.58404 0.61479 0.36292 0.0
C1121 C 0.61999 0.62271 0.3658 0.0
C1122 C 0.63276 0.62636 0.38263 0.0
H1123 H 0.57103 0.66497 0.43072 0.0
H1124 H 0.5773 0.6576 0.4084 0.0
H1125 H 0.54779 0.6426 0.42237 0.0
H1126 H 0.55577 0.61102 0.40488 0.0
H1127 H 0.53308 0.60501 0.37552 0.0
H1128 H 0.28388 0.64662 0.01586 0.0
H1129 H 0.30188 0.64972 0.0462 0.0
H1130 H 0.39713 0.61113 0.03694 0.0
H1131 H 0.38036 0.60874 0.00638 0.0
H1132 H 0.30951 0.61982 0.07079 0.0
H1133 H 0.44406 0.66037 0.06083 0.0
H1134 H 0.41013 0.65744 0.04381 0.0
H1135 H 0.43966 0.63627 0.04963 0.0
C1136 C 0.30901 0.63906 0.02017 0.0
C1137 C 0.33078 0.62756 0.00857 0.0
C1138 C 0.31908 0.64069 0.03758 0.0
C1139 C 0.35113 0.63088 0.04382 0.0
C1140 C 0.37267 0.61915 0.03238 0.0
H1141 H 0.38457 0.62395 0.15686 0.0
H1142 H 0.38225 0.61339 0.12635 0.0
C1143 C 0.36274 0.6176 0.01492 0.0
C1144 C 0.36149 0.63287 0.06235 0.0
H1145 H 0.42836 0.6517 0.08956 0.0
C1146 C 0.33561 0.62665 0.07491 0.0
C1147 C 0.39552 0.64186 0.06769 0.0
C1148 C 0.42386 0.64955 0.05482 0.0
C1149 C 0.34237 0.62964 0.09262 0.0
C1150 C 0.3763 0.63873 0.09797 0.0
C1151 C 0.40257 0.64451 0.08544 0.0
C1152 C 0.38307 0.64448 0.11629 0.0
C1153 C 0.31238 0.62391 0.10541 0.0
C1154 C 0.38625 0.66535 0.1207 0.0
C1155 C 0.38786 0.67136 0.13801 0.0
C1156 C 0.38642 0.65663 0.15131 0.0
C1157 C 0.38568 0.63563 0.14688 0.0
C1158 C 0.384 0.62961 0.12948 0.0
H1159 H 0.28533 0.62079 0.09897 0.0
H1160 H 0.32077 0.6098 0.11247 0.0
H1161 H 0.30839 0.63639 0.11505 0.0
H1162 H 0.38589 0.67708 0.11074 0.0
H1163 H 0.38904 0.68764 0.14102 0.0
H1164 H 0.22143 0.85005 0.51206 0.0
H1165 H 0.20695 0.84701 0.54277 0.0
H1166 H 0.11531 0.889 0.53645 0.0
H1167 H 0.1282 0.89119 0.50553 0.0
H1168 H 0.20937 0.87627 0.5664 0.0
H1169 H 0.06638 0.84458 0.56456 0.0
H1170 H 0.09596 0.8453 0.54573 0.0
H1171 H 0.07084 0.8679 0.55232 0.0
C1172 C 0.1976 0.85825 0.51707 0.0
C1173 C 0.17595 0.87083 0.50623 0.0
C1174 C 0.18954 0.85662 0.5347 0.0
C1175 C 0.1597 0.86754 0.54192 0.0
C1176 C 0.13793 0.88004 0.53115 0.0
H1177 H 0.14872 0.90056 0.65038 0.0
H1178 H 0.15145 0.90047 0.61876 0.0
C1179 C 0.14576 0.88154 0.51348 0.0
C1180 C 0.1531 0.86691 0.56089 0.0
H1181 H 0.08699 0.85802 0.59177 0.0
C1182 C 0.18265 0.87214 0.57192 0.0
C1183 C 0.11837 0.86128 0.56815 0.0
C1184 C 0.0862 0.85424 0.55708 0.0
C1185 C 0.17836 0.87224 0.58994 0.0
C1186 C 0.14317 0.86758 0.59718 0.0
C1187 C 0.11377 0.86192 0.5862 0.0
C1188 C 0.1368 0.86828 0.61614 0.0
C1189 C 0.21187 0.87697 0.60105 0.0
C1190 C 0.12543 0.85055 0.62512 0.0
C1191 C 0.12325 0.85068 0.64321 0.0
C1192 C 0.1326 0.86851 0.65256 0.0
C1193 C 0.14197 0.88652 0.64348 0.0
C1194 C 0.1437 0.88645 0.62544 0.0
H1195 H 0.23826 0.87422 0.59396 0.0
H1196 H 0.21127 0.89343 0.60486 0.0
H1197 H 0.21194 0.86746 0.61298 0.0
H1198 H 0.11968 0.8364 0.6182 0.0
H1199 H 0.11601 0.83658 0.6499 0.0
H1200 H 0.13872 0.32159 0.36381 0.0
H1201 H 0.11077 0.29467 0.34588 0.0
H1202 H 0.19574 0.25218 0.3622 0.0
H1203 H 0.22384 0.27906 0.38022 0.0
H1204 H 0.14422 0.27428 0.31861 0.0
H1205 H 0.10054 0.21901 0.36956 0.0
H1206 H 0.1134 0.24528 0.37435 0.0
H1207 H 0.1487 0.22632 0.37043 0.0
C1208 C 0.15137 0.30648 0.36364 0.0
C1209 C 0.1835 0.30244 0.37343 0.0
C1210 C 0.13532 0.29111 0.35343 0.0
C1211 C 0.15096 0.27137 0.35284 0.0
C1212 C 0.18276 0.26718 0.36275 0.0
H1213 H 0.0974 0.16319 0.29084 0.0
H1214 H 0.12762 0.18828 0.30991 0.0
C1215 C 0.19878 0.28255 0.37303 0.0
C1216 C 0.13488 0.25555 0.34119 0.0
H1217 H 0.0946 0.20787 0.34048 0.0
C1218 C 0.13328 0.25978 0.3234 0.0
C1219 C 0.12081 0.23661 0.34747 0.0
C1220 C 0.12058 0.23154 0.36651 0.0
C1221 C 0.11808 0.24556 0.3117 0.0
C1222 C 0.1037 0.22675 0.318 0.0
C1223 C 0.1057 0.22235 0.33574 0.0
C1224 C 0.08562 0.21166 0.30639 0.0
C1225 C 0.11782 0.25061 0.29265 0.0
C1226 C 0.05187 0.21648 0.29827 0.0
C1227 C 0.03466 0.20225 0.28733 0.0
C1228 C 0.05099 0.18296 0.28431 0.0
C1229 C 0.08455 0.17807 0.29266 0.0
C1230 C 0.10171 0.19231 0.30364 0.0
H1231 H 0.13709 0.26348 0.28952 0.0
H1232 H 0.12571 0.23695 0.28485 0.0
H1233 H 0.08935 0.25523 0.28876 0.0
H1234 H 0.0388 0.23125 0.30045 0.0
H1235 H 0.00875 0.20643 0.28113 0.0
H1236 H 0.30399 0.18555 0.84688 0.0
H1237 H 0.33422 0.21195 0.82943 0.0
H1238 H 0.3683 0.24377 0.87577 0.0
H1239 H 0.33999 0.21673 0.89341 0.0
H1240 H 0.32134 0.25227 0.82681 0.0
H1241 H 0.46544 0.24021 0.85027 0.0
H1242 H 0.42818 0.22245 0.85502 0.0
H1243 H 0.4332 0.24583 0.8673 0.0
C1244 C 0.3185 0.19793 0.85342 0.0
C1245 C 0.31994 0.19881 0.8716 0.0
C1246 C 0.33546 0.21315 0.84339 0.0
C1247 C 0.35412 0.22966 0.85127 0.0
C1248 C 0.35485 0.23091 0.8694 0.0
H1249 H 0.45714 0.33977 0.80872 0.0
H1250 H 0.4272 0.31418 0.82742 0.0
C1251 C 0.33816 0.21557 0.87947 0.0
C1252 C 0.37224 0.24564 0.84042 0.0
H1253 H 0.45541 0.2693 0.83225 0.0
C1254 C 0.35067 0.25594 0.82799 0.0
C1255 C 0.41061 0.25035 0.84188 0.0
C1256 C 0.43581 0.239 0.85421 0.0
C1257 C 0.36635 0.2709 0.81711 0.0
C1258 C 0.40448 0.2757 0.81874 0.0
C1259 C 0.42607 0.26557 0.83117 0.0
C1260 C 0.42256 0.29105 0.80743 0.0
C1261 C 0.3422 0.28156 0.80393 0.0
C1262 C 0.43021 0.2863 0.79011 0.0
C1263 C 0.44774 0.30075 0.77949 0.0
C1264 C 0.45736 0.32025 0.78594 0.0
C1265 C 0.44996 0.32487 0.80336 0.0
C1266 C 0.43279 0.31033 0.81404 0.0
H1267 H 0.31217 0.27841 0.80603 0.0
H1268 H 0.34692 0.29846 0.80431 0.0
H1269 H 0.3498 0.27609 0.79081 0.0
H1270 H 0.42291 0.27136 0.78488 0.0
H1271 H 0.45417 0.29655 0.76629 0.0
H1272 H 0.71902 0.2223 0.62977 0.0
H1273 H 0.69008 0.24813 0.64846 0.0
H1274 H 0.62081 0.20111 0.67122 0.0
H1275 H 0.64854 0.17539 0.65219 0.0
H1276 H 0.58195 0.23585 0.66397 0.0
H1277 H 0.71085 0.25534 0.6999 0.0
H1278 H 0.71501 0.25833 0.6769 0.0
H1279 H 0.70731 0.23317 0.68593 0.0
C1280 C 0.6973 0.21751 0.6386 0.0
C1281 C 0.68633 0.19674 0.63958 0.0
C1282 C 0.68115 0.23224 0.64944 0.0
C1283 C 0.6539 0.22646 0.66152 0.0
C1284 C 0.64209 0.20588 0.66214 0.0
H1285 H 0.57751 0.30027 0.74906 0.0
H1286 H 0.60597 0.27385 0.73072 0.0
C1287 C 0.65813 0.19117 0.65131 0.0
C1288 C 0.63727 0.24182 0.67341 0.0
H1289 H 0.65831 0.27661 0.7051 0.0
C1290 C 0.59863 0.24472 0.673 0.0
C1291 C 0.65897 0.25309 0.68542 0.0
C1292 C 0.70028 0.24973 0.68724 0.0
C1293 C 0.58118 0.25888 0.68401 0.0
C1294 C 0.60307 0.27082 0.69549 0.0
C1295 C 0.64162 0.2676 0.69618 0.0
C1296 C 0.5865 0.28696 0.70664 0.0
C1297 C 0.53936 0.26066 0.68341 0.0
C1298 C 0.56681 0.30329 0.69918 0.0
C1299 C 0.55034 0.31825 0.70958 0.0
C1300 C 0.55364 0.31739 0.7277 0.0
C1301 C 0.57432 0.30134 0.73516 0.0
C1302 C 0.59061 0.28624 0.7247 0.0
H1303 H 0.52627 0.2465 0.67808 0.0
H1304 H 0.52768 0.26359 0.69647 0.0
H1305 H 0.53162 0.27369 0.67487 0.0
H1306 H 0.56418 0.3045 0.68527 0.0
H1307 H 0.53512 0.33054 0.70334 0.0
H1308 H 0.79392 0.27678 0.12216 0.0
H1309 H 0.82434 0.24995 0.13936 0.0
H1310 H 0.87909 0.29648 0.16993 0.0
H1311 H 0.84985 0.32339 0.15258 0.0
H1312 H 0.91108 0.24728 0.14779 0.0
H1313 H 0.81394 0.25605 0.20334 0.0
H1314 H 0.80099 0.26293 0.1815 0.0
H1315 H 0.83221 0.27909 0.1935 0.0
C1316 C 0.81289 0.28133 0.13236 0.0
C1317 C 0.8192 0.30228 0.13605 0.0
C1318 C 0.83006 0.26598 0.14222 0.0
C1319 C 0.85361 0.27131 0.15597 0.0
C1320 C 0.86067 0.29211 0.15946 0.0
H1321 H 0.9611 0.20844 0.24034 0.0
H1322 H 0.93192 0.23282 0.22046 0.0
C1323 C 0.84373 0.30745 0.14958 0.0
C1324 C 0.87036 0.2552 0.16698 0.0
H1325 H 0.86457 0.23358 0.20708 0.0
C1326 C 0.9009 0.24413 0.16072 0.0
C1327 C 0.85704 0.25135 0.18385 0.0
C1328 C 0.82411 0.26285 0.19103 0.0
C1329 C 0.9192 0.22957 0.17111 0.0
C1330 C 0.90579 0.2256 0.18803 0.0
C1331 C 0.87485 0.23657 0.19414 0.0
C1332 C 0.924 0.21065 0.19985 0.0
C1333 C 0.95351 0.21922 0.16407 0.0
C1334 C 0.92905 0.19001 0.19498 0.0
C1335 C 0.94631 0.17614 0.20624 0.0
C1336 C 0.95789 0.18256 0.22272 0.0
C1337 C 0.95224 0.20308 0.22772 0.0
C1338 C 0.93558 0.21701 0.21637 0.0
H1339 H 0.96612 0.2282 0.15334 0.0
H1340 H 0.9748 0.2171 0.17432 0.0
H1341 H 0.94581 0.20385 0.15891 0.0
H1342 H 0.91938 0.18455 0.18253 0.0
H1343 H 0.94999 0.16031 0.20219 0.0
H1344 H 0.78123 0.72151 0.63301 0.0
H1345 H 0.81057 0.74837 0.65073 0.0
H1346 H 0.89888 0.70655 0.66408 0.0
H1347 H 0.87003 0.67975 0.64628 0.0
H1348 H 0.82821 0.74463 0.68769 0.0
H1349 H 0.95233 0.75986 0.6468 0.0
H1350 H 0.91091 0.7475 0.63854 0.0
H1351 H 0.94321 0.73322 0.65151 0.0
C1352 C 0.80718 0.71816 0.63952 0.0
C1353 C 0.82337 0.69854 0.63824 0.0
C1354 C 0.82374 0.73345 0.64971 0.0
C1355 C 0.85698 0.72946 0.65858 0.0
C1356 C 0.87342 0.70999 0.65717 0.0
H1357 H 0.00345 0.79685 0.72727 0.0
H1358 H 0.97305 0.77135 0.70866 0.0
C1359 C 0.85679 0.69467 0.6471 0.0
C1360 C 0.87399 0.74539 0.66979 0.0
H1361 H 0.95167 0.77513 0.67462 0.0
C1362 C 0.85508 0.75144 0.68481 0.0
C1363 C 0.90912 0.75408 0.666 0.0
C1364 C 0.93006 0.74851 0.64978 0.0
C1365 C 0.87081 0.76568 0.69639 0.0
C1366 C 0.90599 0.77438 0.6926 0.0
C1367 C 0.92475 0.7684 0.67751 0.0
C1368 C 0.92392 0.78973 0.70411 0.0
C1369 C 0.85015 0.7708 0.71282 0.0
C1370 C 0.90659 0.80861 0.70753 0.0
C1371 C 0.92389 0.82318 0.71812 0.0
C1372 C 0.95893 0.81918 0.72544 0.0
C1373 C 0.97647 0.80038 0.72181 0.0
C1374 C 0.95911 0.78579 0.71122 0.0
H1375 H 0.82898 0.75891 0.71601 0.0
H1376 H 0.86959 0.77232 0.72392 0.0
H1377 H 0.83556 0.78569 0.71118 0.0
H1378 H 0.87989 0.8122 0.70182 0.0
H1379 H 0.91004 0.83771 0.72035 0.0
H1380 H 0.71427 0.8105 0.15992 0.0
H1381 H 0.68548 0.78336 0.17719 0.0
H1382 H 0.61578 0.76665 0.13398 0.0
H1383 H 0.64453 0.79391 0.11654 0.0
H1384 H 0.61149 0.77976 0.18598 0.0
H1385 H 0.65924 0.71132 0.14921 0.0
H1386 H 0.67943 0.73656 0.14629 0.0
H1387 H 0.63551 0.73033 0.13649 0.0
C1388 C 0.69277 0.80108 0.15407 0.0
C1389 C 0.68154 0.80441 0.13688 0.0
C1390 C 0.67647 0.78552 0.16395 0.0
C1391 C 0.64873 0.77289 0.15684 0.0
C1392 C 0.63763 0.77599 0.13962 0.0
H1393 H 0.49726 0.69871 0.21915 0.0
H1394 H 0.52432 0.72406 0.19949 0.0
C1395 C 0.65405 0.79157 0.12968 0.0
C1396 C 0.63062 0.75706 0.16778 0.0
H1397 H 0.61631 0.70533 0.17191 0.0
C1398 C 0.6125 0.76348 0.18291 0.0
C1399 C 0.63237 0.73584 0.16382 0.0
C1400 C 0.65295 0.72801 0.14816 0.0
C1401 C 0.59606 0.74925 0.19422 0.0
C1402 C 0.59711 0.72805 0.19008 0.0
C1403 C 0.61529 0.72162 0.17496 0.0
C1404 C 0.58037 0.71228 0.20153 0.0
C1405 C 0.57861 0.75701 0.21072 0.0
C1406 C 0.60268 0.69683 0.20874 0.0
C1407 C 0.58721 0.68212 0.21978 0.0
C1408 C 0.54917 0.68268 0.22395 0.0
C1409 C 0.52675 0.69795 0.21641 0.0
C1410 C 0.5422 0.71255 0.20524 0.0
H1411 H 0.58857 0.77271 0.21408 0.0
H1412 H 0.548 0.75771 0.20904 0.0
H1413 H 0.58471 0.74655 0.22171 0.0
H1414 H 0.63216 0.69624 0.20592 0.0
H1415 H 0.60513 0.67029 0.22497 0.0
H1416 H 0.36466 0.82549 0.35946 0.0
H1417 H 0.39388 0.79913 0.34152 0.0
H1418 H 0.31845 0.75353 0.36197 0.0
H1419 H 0.28823 0.77996 0.37955 0.0
H1420 H 0.42906 0.76291 0.35044 0.0
H1421 H 0.30493 0.74755 0.30968 0.0
H1422 H 0.30838 0.76962 0.32377 0.0
H1423 H 0.29694 0.74475 0.33248 0.0
C1424 C 0.35408 0.80989 0.36005 0.0
C1425 C 0.32385 0.80488 0.37081 0.0
C1426 C 0.37097 0.79481 0.34987 0.0
C1427 C 0.35792 0.77445 0.35018 0.0
C1428 C 0.32849 0.76924 0.36128 0.0
H1429 H 0.4755 0.66888 0.30793 0.0
H1430 H 0.44642 0.6943 0.32679 0.0
C1431 C 0.31154 0.78432 0.37148 0.0
C1432 C 0.37515 0.75876 0.33882 0.0
H1433 H 0.35661 0.7255 0.3057 0.0
C1434 C 0.41326 0.75472 0.34064 0.0
C1435 C 0.35458 0.74835 0.32588 0.0
C1436 C 0.31402 0.75288 0.32267 0.0
C1437 C 0.43132 0.7404 0.32998 0.0
C1438 C 0.4105 0.72952 0.31739 0.0
C1439 C 0.37246 0.73372 0.31546 0.0
C1440 C 0.42773 0.71391 0.30592 0.0
C1441 C 0.47269 0.73743 0.33207 0.0
C1442 C 0.42585 0.7161 0.28788 0.0
C1443 C 0.44206 0.70144 0.27703 0.0
C1444 C 0.4605 0.68431 0.28404 0.0
C1445 C 0.46197 0.68205 0.30211 0.0
C1446 C 0.44549 0.69661 0.31293 0.0
H1447 H 0.48595 0.75082 0.33857 0.0
H1448 H 0.47779 0.72364 0.34017 0.0
H1449 H 0.48639 0.73507 0.31936 0.0
H1450 H 0.4121 0.72927 0.28219 0.0
H1451 H 0.44041 0.70362 0.26316 0.0
H1452 H 0.1593 0.71392 0.89426 0.0
H1453 H 0.13026 0.7407 0.87647 0.0
H1454 H 0.17715 0.71348 0.83062 0.0
H1455 H 0.20709 0.68709 0.8482 0.0
H1456 H 0.16872 0.76875 0.85043 0.0
H1457 H 0.06042 0.71709 0.82271 0.0
H1458 H 0.08425 0.71141 0.84272 0.0
H1459 H 0.10736 0.7076 0.82242 0.0
C1460 C 0.16379 0.71375 0.88041 0.0
C1461 C 0.18527 0.69819 0.87266 0.0
C1462 C 0.14703 0.729 0.87028 0.0
C1463 C 0.15122 0.72885 0.85225 0.0
C1464 C 0.17313 0.71363 0.84451 0.0
H1465 H 0.06607 0.79711 0.76497 0.0
H1466 H 0.09557 0.7725 0.78455 0.0
C1467 C 0.19005 0.6985 0.85459 0.0
C1468 C 0.13275 0.74453 0.84138 0.0
H1469 H 0.06543 0.75043 0.81068 0.0
C1470 C 0.14595 0.76485 0.84182 0.0
C1471 C 0.10329 0.73927 0.83011 0.0
C1472 C 0.08768 0.7177 0.82946 0.0
C1473 C 0.13103 0.78001 0.83089 0.0
C1474 C 0.10149 0.77476 0.81958 0.0
C1475 C 0.08808 0.75444 0.81933 0.0
C1476 C 0.08427 0.79001 0.80776 0.0
C1477 C 0.14791 0.80131 0.83116 0.0
C1478 C 0.06771 0.80792 0.81431 0.0
C1479 C 0.05134 0.82216 0.80312 0.0
C1480 C 0.05086 0.81867 0.78517 0.0
C1481 C 0.06669 0.80049 0.77869 0.0
C1482 C 0.08333 0.78633 0.78987 0.0
H1483 H 0.17641 0.80123 0.83671 0.0
H1484 H 0.14918 0.80798 0.81796 0.0
H1485 H 0.13051 0.81149 0.83933 0.0
H1486 H 0.06715 0.81082 0.82809 0.0
H1487 H 0.03906 0.83591 0.80857 0.0
loop_
_geom_bond_atom_site_label_1
_geom_bond_atom_site_label_2
_geom_bond_distance
_geom_bond_site_symmetry_2
_ccdc_geom_bond_type
C0 C1 1.384 . S
C0 H13 0.947 . S
C0 C35 1.382 . S
C1 C0 1.384 . S
C1 C2 1.378 . S
C2 C1 1.378 . S
C2 C3 1.378 . S
C2 H14 0.952 . S
C3 C2 1.378 . S
C3 H15 0.950 . S
C3 C34 1.383 . S
H4 C23 0.947 . S
H5 C24 0.946 . S
H6 C26 0.953 . S
H7 C27 0.945 . S
H8 C29 0.952 . S
H9 C30 0.949 . S
H10 C32 0.950 . S
H11 C33 0.948 . S
H12 C35 0.951 . S
H13 C0 0.947 . S
H14 C2 0.952 . S
H15 C3 0.950 . S
N16 C19 1.382 . S
N16 C21 1.363 . S
N17 C19 1.371 . S
N17 C20 1.372 . S
N18 C20 1.361 . S
N18 C21 1.377 . S
C19 N16 1.382 . S
C19 N17 1.371 . S
C19 C22 1.480 . S
C20 N17 1.372 . S
C20 N18 1.361 . S
C20 C28 1.457 . S
C21 N16 1.363 . S
C21 N18 1.377 . S
C21 C34 1.479 . S
C22 C19 1.480 . S
C22 C23 1.383 . S
C22 C27 1.385 . S
C23 H4 0.947 . S
C23 C22 1.383 . S
C23 C24 1.388 . S
C24 H5 0.946 . S
C24 C23 1.388 . S
C24 C25 1.384 . S
C25 C24 1.384 . S
C25 C26 1.377 . S
C26 H6 0.953 . S
C26 C25 1.377 . S
C26 C27 1.369 . S
C27 H7 0.945 . S
C27 C22 1.385 . S
C27 C26 1.369 . S
C28 C20 1.457 . S
C28 C29 1.372 . S
C28 C33 1.364 . S
C29 H8 0.952 . S
C29 C28 1.372 . S
C29 C30 1.389 . S
C30 H9 0.949 . S
C30 C29 1.389 . S
C30 C31 1.387 . S
C31 C30 1.387 . S
C31 C32 1.372 . S
C32 H10 0.950 . S
C32 C31 1.372 . S
C32 C33 1.379 . S
C33 H11 0.948 . S
C33 C28 1.364 . S
C33 C32 1.379 . S
C34 C3 1.383 . S
C34 C21 1.479 . S
C34 C35 1.398 . S
C35 C0 1.382 . S
C35 H12 0.951 . S
C35 C34 1.398 . S
C36 C37 1.384 . S
C36 H49 0.947 . S
C36 C71 1.382 . S
C37 C36 1.384 . S
C37 C38 1.378 . S
C38 C37 1.378 . S
C38 C39 1.378 . S
C38 H50 0.952 . S
C39 C38 1.378 . S
C39 H51 0.950 . S
C39 C70 1.383 . S
H40 C59 0.947 . S
H41 C60 0.946 . S
H42 C62 0.953 . S
H43 C63 0.945 . S
H44 C65 0.952 . S
H45 C66 0.949 . S
H46 C68 0.950 . S
H47 C69 0.948 . S
H48 C71 0.951 . S
H49 C36 0.947 . S
H50 C38 0.952 . S
H51 C39 0.950 . S
N52 C55 1.382 . S
N52 C57 1.363 . S
N53 C55 1.371 . S
N53 C56 1.372 . S
N54 C56 1.361 . S
N54 C57 1.377 . S
C55 N52 1.382 . S
C55 N53 1.371 . S
C55 C58 1.480 . S
C56 N53 1.372 . S
C56 N54 1.361 . S
C56 C64 1.457 . S
C57 N52 1.363 . S
C57 N54 1.377 . S
C57 C70 1.479 . S
C58 C55 1.480 . S
C58 C59 1.383 . S
C58 C63 1.385 . S
C59 H40 0.947 . S
C59 C58 1.383 . S
C59 C60 1.388 . S
C60 H41 0.946 . S
C60 C59 1.388 . S
C60 C61 1.384 . S
C61 C60 1.384 . S
C61 C62 1.377 . S
C62 H42 0.953 . S
C62 C61 1.377 . S
C62 C63 1.369 . S
C63 H43 0.945 . S
C63 C58 1.385 . S
C63 C62 1.369 . S
C64 C56 1.457 . S
C64 C65 1.372 . S
C64 C69 1.364 . S
C65 H44 0.952 . S
C65 C64 1.372 . S
C65 C66 1.389 . S
C66 H45 0.949 . S
C66 C65 1.389 . S
C66 C67 1.387 . S
C67 C66 1.387 . S
C67 C68 1.372 . S
C68 H46 0.950 . S
C68 C67 1.372 . S
C68 C69 1.379 . S
C69 H47 0.948 . S
C69 C64 1.364 . S
C69 C68 1.379 . S
C70 C39 1.383 . S
C70 C57 1.479 . S
C70 C71 1.398 . S
C71 C36 1.382 . S
C71 H48 0.951 . S
C71 C70 1.398 . S
C72 C73 1.384 . S
C72 H85 0.947 . S
C72 C107 1.382 . S
C73 C72 1.384 . S
C73 C74 1.378 . S
C74 C73 1.378 . S
C74 C75 1.378 . S
C74 H86 0.952 . S
C75 C74 1.378 . S
C75 H87 0.950 . S
C75 C106 1.383 . S
H76 C95 0.947 . S
H77 C96 0.946 . S
H78 C98 0.953 . S
H79 C99 0.945 . S
H80 C101 0.952 . S
H81 C102 0.949 . S
H82 C104 0.950 . S
H83 C105 0.948 . S
H84 C107 0.951 . S
H85 C72 0.947 . S
H86 C74 0.952 . S
H87 C75 0.950 . S
N88 C91 1.382 . S
N88 C93 1.363 . S
N89 C91 1.371 . S
N89 C92 1.372 . S
N90 C92 1.361 . S
N90 C93 1.377 . S
C91 N88 1.382 . S
C91 N89 1.371 . S
C91 C94 1.480 . S
C92 N89 1.372 . S
C92 N90 1.361 . S
C92 C100 1.457 . S
C93 N88 1.363 . S
C93 N90 1.377 . S
C93 C106 1.479 . S
C94 C91 1.480 . S
C94 C95 1.383 . S
C94 C99 1.385 . S
C95 H76 0.947 . S
C95 C94 1.383 . S
C95 C96 1.388 . S
C96 H77 0.946 . S
C96 C95 1.388 . S
C96 C97 1.384 . S
C97 C96 1.384 . S
C97 C98 1.377 . S
C98 H78 0.953 . S
C98 C97 1.377 . S
C98 C99 1.369 . S
C99 H79 0.945 . S
C99 C94 1.385 . S
C99 C98 1.369 . S
C100 C92 1.457 . S
C100 C101 1.372 . S
C100 C105 1.364 . S
C101 H80 0.952 . S
C101 C100 1.372 . S
C101 C102 1.389 . S
C102 H81 0.949 . S
C102 C101 1.389 . S
C102 C103 1.387 . S
C103 C102 1.387 . S
C103 C104 1.372 . S
C104 H82 0.950 . S
C104 C103 1.372 . S
C104 C105 1.379 . S
C105 H83 0.948 . S
C105 C100 1.364 . S
C105 C104 1.379 . S
C106 C75 1.383 . S
C106 C93 1.479 . S
C106 C107 1.398 . S
C107 C72 1.382 . S
C107 H84 0.951 . S
C107 C106 1.398 . S
C108 C109 1.384 . S
C108 H121 0.947 . S
C108 C143 1.382 . S
C109 C108 1.384 . S
C109 C110 1.378 . S
C110 C109 1.378 . S
C110 C111 1.378 . S
C110 H122 0.952 . S
C111 C110 1.378 . S
C111 H123 0.950 . S
C111 C142 1.383 . S
H112 C131 0.947 . S
H113 C132 0.946 . S
H114 C134 0.953 . S
H115 C135 0.945 . S
H116 C137 0.952 . S
H117 C138 0.949 . S
H118 C140 0.950 . S
H119 C141 0.948 . S
H120 C143 0.951 . S
H121 C108 0.947 . S
H122 C110 0.952 . S
H123 C111 0.950 . S
N124 C127 1.382 . S
N124 C129 1.363 . S
N125 C127 1.371 . S
N125 C128 1.372 . S
N126 C128 1.361 . S
N126 C129 1.377 . S
C127 N124 1.382 . S
C127 N125 1.371 . S
C127 C130 1.480 . S
C128 N125 1.372 . S
C128 N126 1.361 . S
C128 C136 1.457 . S
C129 N124 1.363 . S
C129 N126 1.377 . S
C129 C142 1.479 . S
C130 C127 1.480 . S
C130 C131 1.383 . S
C130 C135 1.385 . S
C131 H112 0.947 . S
C131 C130 1.383 . S
C131 C132 1.388 . S
C132 H113 0.946 . S
C132 C131 1.388 . S
C132 C133 1.384 . S
C133 C132 1.384 . S
C133 C134 1.377 . S
C134 H114 0.953 . S
C134 C133 1.377 . S
C134 C135 1.369 . S
C135 H115 0.945 . S
C135 C130 1.385 . S
C135 C134 1.369 . S
C136 C128 1.457 . S
C136 C137 1.372 . S
C136 C141 1.364 . S
C137 H116 0.952 . S
C137 C136 1.372 . S
C137 C138 1.389 . S
C138 H117 0.949 . S
C138 C137 1.389 . S
C138 C139 1.387 . S
C139 C138 1.387 . S
C139 C140 1.372 . S
C140 H118 0.950 . S
C140 C139 1.372 . S
C140 C141 1.379 . S
C141 H119 0.948 . S
C141 C136 1.364 . S
C141 C140 1.379 . S
C142 C111 1.383 . S
C142 C129 1.479 . S
C142 C143 1.398 . S
C143 C108 1.382 . S
C143 H120 0.951 . S
C143 C142 1.398 . S
C144 C145 1.384 . S
C144 H157 0.947 . S
C144 C179 1.382 . S
C145 C144 1.384 . S
C145 C146 1.378 . S
C146 C145 1.378 . S
C146 C147 1.378 . S
C146 H158 0.952 . S
C147 C146 1.378 . S
C147 H159 0.950 . S
C147 C178 1.383 . S
H148 C167 0.947 . S
H149 C168 0.946 . S
H150 C170 0.953 . S
H151 C171 0.945 . S
H152 C173 0.952 . S
H153 C174 0.949 . S
H154 C176 0.950 . S
H155 C177 0.948 . S
H156 C179 0.951 . S
H157 C144 0.947 . S
H158 C146 0.952 . S
H159 C147 0.950 . S
N160 C163 1.382 . S
N160 C165 1.363 . S
N161 C163 1.371 . S
N161 C164 1.372 . S
N162 C164 1.361 . S
N162 C165 1.377 . S
C163 N160 1.382 . S
C163 N161 1.371 . S
C163 C166 1.480 . S
C164 N161 1.372 . S
C164 N162 1.361 . S
C164 C172 1.457 . S
C165 N160 1.363 . S
C165 N162 1.377 . S
C165 C178 1.479 . S
C166 C163 1.480 . S
C166 C167 1.383 . S
C166 C171 1.385 . S
C167 H148 0.947 . S
C167 C166 1.383 . S
C167 C168 1.388 . S
C168 H149 0.946 . S
C168 C167 1.388 . S
C168 C169 1.384 . S
C169 C168 1.384 . S
C169 C170 1.377 . S
C170 H150 0.953 . S
C170 C169 1.377 . S
C170 C171 1.369 . S
C171 H151 0.945 . S
C171 C166 1.385 . S
C171 C170 1.369 . S
C172 C164 1.457 . S
C172 C173 1.372 . S
C172 C177 1.364 . S
C173 H152 0.952 . S
C173 C172 1.372 . S
C173 C174 1.389 . S
C174 H153 0.949 . S
C174 C173 1.389 . S
C174 C175 1.387 . S
C175 C174 1.387 . S
C175 C176 1.372 . S
C176 H154 0.950 . S
C176 C175 1.372 . S
C176 C177 1.379 . S
C177 H155 0.948 . S
C177 C172 1.364 . S
C177 C176 1.379 . S
C178 C147 1.383 . S
C178 C165 1.479 . S
C178 C179 1.398 . S
C179 C144 1.382 . S
C179 H156 0.951 . S
C179 C178 1.398 . S
C180 C181 1.384 . S
C180 H193 0.947 . S
C180 C215 1.382 . S
C181 C180 1.384 . S
C181 C182 1.378 . S
C182 C181 1.378 . S
C182 C183 1.378 . S
C182 H194 0.952 . S
C183 C182 1.378 . S
C183 H195 0.950 . S
C183 C214 1.383 . S
H184 C203 0.947 . S
H185 C204 0.946 . S
H186 C206 0.953 . S
H187 C207 0.945 . S
H188 C209 0.952 . S
H189 C210 0.949 . S
H190 C212 0.950 . S
H191 C213 0.948 . S
H192 C215 0.951 . S
H193 C180 0.947 . S
H194 C182 0.952 . S
H195 C183 0.950 . S
N196 C199 1.382 . S
N196 C201 1.363 . S
N197 C199 1.371 . S
N197 C200 1.372 . S
N198 C200 1.361 . S
N198 C201 1.377 . S
C199 N196 1.382 . S
C199 N197 1.371 . S
C199 C202 1.480 . S
C200 N197 1.372 . S
C200 N198 1.361 . S
C200 C208 1.457 . S
C201 N196 1.363 . S
C201 N198 1.377 . S
C201 C214 1.479 . S
C202 C199 1.480 . S
C202 C203 1.383 . S
C202 C207 1.385 . S
C203 H184 0.947 . S
C203 C202 1.383 . S
C203 C204 1.388 . S
C204 H185 0.946 . S
C204 C203 1.388 . S
C204 C205 1.384 . S
C205 C204 1.384 . S
C205 C206 1.377 . S
C206 H186 0.953 . S
C206 C205 1.377 . S
C206 C207 1.369 . S
C207 H187 0.945 . S
C207 C202 1.385 . S
C207 C206 1.369 . S
C208 C200 1.457 . S
C208 C209 1.372 . S
C208 C213 1.364 . S
C209 H188 0.952 . S
C209 C208 1.372 . S
C209 C210 1.389 . S
C210 H189 0.949 . S
C210 C209 1.389 . S
C210 C211 1.387 . S
C211 C210 1.387 . S
C211 C212 1.372 . S
C212 H190 0.950 . S
C212 C211 1.372 . S
C212 C213 1.379 . S
C213 H191 0.948 . S
C213 C208 1.364 . S
C213 C212 1.379 . S
C214 C183 1.383 . S
C214 C201 1.479 . S
C214 C215 1.398 . S
C215 C180 1.382 . S
C215 H192 0.951 . S
C215 C214 1.398 . S
C216 C217 1.384 . S
C216 H229 0.947 . S
C216 C251 1.382 . S
C217 C216 1.384 . S
C217 C218 1.378 . S
C218 C217 1.378 . S
C218 C219 1.378 . S
C218 H230 0.952 . S
C219 C218 1.378 . S
C219 H231 0.950 . S
C219 C250 1.383 . S
H220 C239 0.947 . S
H221 C240 0.946 . S
H222 C242 0.953 . S
H223 C243 0.945 . S
H224 C245 0.952 . S
H225 C246 0.949 . S
H226 C248 0.950 . S
H227 C249 0.948 . S
H228 C251 0.951 . S
H229 C216 0.947 . S
H230 C218 0.952 . S
H231 C219 0.950 . S
N232 C235 1.382 . S
N232 C237 1.363 . S
N233 C235 1.371 . S
N233 C236 1.372 . S
N234 C236 1.361 . S
N234 C237 1.377 . S
C235 N232 1.382 . S
C235 N233 1.371 . S
C235 C238 1.480 . S
C236 N233 1.372 . S
C236 N234 1.361 . S
C236 C244 1.457 . S
C237 N232 1.363 . S
C237 N234 1.377 . S
C237 C250 1.479 . S
C238 C235 1.480 . S
C238 C239 1.383 . S
C238 C243 1.385 . S
C239 H220 0.947 . S
C239 C238 1.383 . S
C239 C240 1.388 . S
C240 H221 0.946 . S
C240 C239 1.388 . S
C240 C241 1.384 . S
C241 C240 1.384 . S
C241 C242 1.377 . S
C242 H222 0.953 . S
C242 C241 1.377 . S
C242 C243 1.369 . S
C243 H223 0.945 . S
C243 C238 1.385 . S
C243 C242 1.369 . S
C244 C236 1.457 . S
C244 C245 1.372 . S
C244 C249 1.364 . S
C245 H224 0.952 . S
C245 C244 1.372 . S
C245 C246 1.389 . S
C246 H225 0.949 . S
C246 C245 1.389 . S
C246 C247 1.387 . S
C247 C246 1.387 . S
C247 C248 1.372 . S
C248 H226 0.950 . S
C248 C247 1.372 . S
C248 C249 1.379 . S
C249 H227 0.948 . S
C249 C244 1.364 . S
C249 C248 1.379 . S
C250 C219 1.383 . S
C250 C237 1.479 . S
C250 C251 1.398 . S
C251 C216 1.382 . S
C251 H228 0.951 . S
C251 C250 1.398 . S
C252 C253 1.384 . S
C252 H265 0.947 . S
C252 C287 1.382 . S
C253 C252 1.384 . S
C253 C254 1.378 . S
C254 C253 1.378 . S
C254 C255 1.378 . S
C254 H266 0.952 . S
C255 C254 1.378 . S
C255 H267 0.950 . S
C255 C286 1.383 . S
H256 C275 0.947 . S
H257 C276 0.946 . S
H258 C278 0.953 . S
H259 C279 0.945 . S
H260 C281 0.952 . S
H261 C282 0.949 . S
H262 C284 0.950 . S
H263 C285 0.948 . S
H264 C287 0.951 . S
H265 C252 0.947 . S
H266 C254 0.952 . S
H267 C255 0.950 . S
N268 C271 1.382 . S
N268 C273 1.363 . S
N269 C271 1.371 . S
N269 C272 1.372 . S
N270 C272 1.361 . S
N270 C273 1.377 . S
C271 N268 1.382 . S
C271 N269 1.371 . S
C271 C274 1.480 . S
C272 N269 1.372 . S
C272 N270 1.361 . S
C272 C280 1.457 . S
C273 N268 1.363 . S
C273 N270 1.377 . S
C273 C286 1.479 . S
C274 C271 1.480 . S
C274 C275 1.383 . S
C274 C279 1.385 . S
C275 H256 0.947 . S
C275 C274 1.383 . S
C275 C276 1.388 . S
C276 H257 0.946 . S
C276 C275 1.388 . S
C276 C277 1.384 . S
C277 C276 1.384 . S
C277 C278 1.377 . S
C278 H258 0.953 . S
C278 C277 1.377 . S
C278 C279 1.369 . S
C279 H259 0.945 . S
C279 C274 1.385 . S
C279 C278 1.369 . S
C280 C272 1.457 . S
C280 C281 1.372 . S
C280 C285 1.364 . S
C281 H260 0.952 . S
C281 C280 1.372 . S
C281 C282 1.389 . S
C282 H261 0.949 . S
C282 C281 1.389 . S
C282 C283 1.387 . S
C283 C282 1.387 . S
C283 C284 1.372 . S
C284 H262 0.950 . S
C284 C283 1.372 . S
C284 C285 1.379 . S
C285 H263 0.948 . S
C285 C280 1.364 . S
C285 C284 1.379 . S
C286 C255 1.383 . S
C286 C273 1.479 . S
C286 C287 1.398 . S
C287 C252 1.382 . S
C287 H264 0.951 . S
C287 C286 1.398 . S
Tb288 N317 2.617 . S
Tb288 N323 2.572 . S
Tb288 O332 2.465 . S
Tb288 O333 2.387 . S
Tb288 O335 2.428 . S
Tb288 O336 2.308 . S
Tb288 O340 2.349 . S
Tb288 O343 2.393 . S
Tb288 C352 2.802 . S
C289 N290 1.379 . S
C289 C292 1.416 . S
C289 C296 1.424 . S
N290 C289 1.379 . S
N290 C293 1.334 . S
N290 Tb299 2.617 . S
C291 C293 1.390 . S
C291 C294 1.339 . S
C291 H311 0.930 . S
C292 C289 1.416 . S
C292 C294 1.416 . S
C292 C298 1.448 . S
C293 N290 1.334 . S
C293 C291 1.390 . S
C293 H304 0.930 . S
C294 C291 1.339 . S
C294 C292 1.416 . S
C294 H315 0.930 . S
C295 C296 1.413 . S
C295 C297 1.427 . S
C295 C301 1.416 . S
C296 C289 1.424 . S
C296 C295 1.413 . S
C296 N300 1.361 . S
C297 C295 1.427 . S
C297 C298 1.328 . S
C297 H312 0.929 . S
C298 C292 1.448 . S
C298 C297 1.328 . S
C298 H313 0.930 . S
Tb299 N290 2.617 . S
Tb299 N300 2.572 . S
Tb299 O334 2.349 1_655 S
Tb299 O337 2.393 . S
Tb299 O338 2.465 . S
Tb299 O339 2.387 . S
Tb299 O341 2.428 . S
Tb299 O342 2.308 1_655 S
Tb299 C363 2.802 . S
N300 C296 1.361 . S
N300 Tb299 2.572 . S
N300 C302 1.340 . S
C301 C295 1.416 . S
C301 C303 1.332 . S
C301 H309 0.931 . S
C302 N300 1.340 . S
C302 C303 1.407 . S
C302 H308 0.930 . S
C303 C301 1.332 . S
C303 C302 1.407 . S
C303 H305 0.929 . S
H304 C293 0.930 . S
H305 C303 0.929 . S
H306 C321 0.930 . S
H307 C328 0.929 . S
H308 C302 0.930 . S
H309 C301 0.931 . S
H310 C324 0.930 . S
H311 C291 0.930 . S
H312 C297 0.929 . S
H313 C298 0.930 . S
H314 C319 0.930 . S
H315 C294 0.930 . S
H316 C327 0.931 . S
N317 Tb288 2.617 . S
N317 C318 1.379 . S
N317 C321 1.334 . S
C318 N317 1.379 . S
C318 C320 1.416 . S
C318 C326 1.424 . S
C319 H314 0.930 . S
C319 C321 1.390 . S
C319 C322 1.339 . S
C320 C318 1.416 . S
C320 C322 1.416 . S
C320 C353 1.448 . S
C321 H306 0.930 . S
C321 N317 1.334 . S
C321 C319 1.390 . S
C322 C319 1.339 . S
C322 C320 1.416 . S
C322 H329 0.930 . S
N323 Tb288 2.572 . S
N323 C324 1.340 . S
N323 C326 1.361 . S
C324 H310 0.930 . S
C324 N323 1.340 . S
C324 C328 1.407 . S
C325 C326 1.413 . S
C325 C327 1.416 . S
C325 C354 1.427 . S
C326 C318 1.424 . S
C326 N323 1.361 . S
C326 C325 1.413 . S
C327 H316 0.931 . S
C327 C325 1.416 . S
C327 C328 1.332 . S
C328 H307 0.929 . S
C328 C324 1.407 . S
C328 C327 1.332 . S
H329 C322 0.930 . S
H330 C353 0.930 . S
H331 C354 0.929 . S
O332 Tb288 2.465 . S
O332 C352 1.264 . S
O333 Tb288 2.387 . S
O333 C344 1.264 . S
O334 Tb299 2.349 1_455 S
O334 C344 1.243 . S
O335 Tb288 2.428 . S
O335 C352 1.256 . S
O336 Tb288 2.308 . S
O336 C351 1.266 1_455 S
O337 Tb299 2.393 . S
O337 C351 1.248 . S
O338 Tb299 2.465 . S
O338 C363 1.264 . S
O339 Tb299 2.387 . S
O339 C355 1.264 . S
O340 Tb288 2.349 . S
O340 C355 1.243 1_455 S
O341 Tb299 2.428 . S
O341 C363 1.256 . S
O342 Tb299 2.308 1_455 S
O342 C362 1.266 . S
O343 Tb288 2.393 . S
O343 C362 1.248 . S
C344 O333 1.264 . S
C344 O334 1.243 . S
C345 C348 1.399 . S
C345 C350 1.383 . S
C345 C352 1.496 . S
C346 C347 1.399 . S
C346 C350 1.389 . S
C347 C346 1.399 . S
C347 C349 1.380 . S
C347 H364 0.929 . S
C348 C345 1.399 . S
C348 C349 1.392 . S
C348 H365 0.929 . S
C349 C347 1.380 . S
C349 C348 1.392 . S
C349 H366 0.929 . S
C350 C345 1.383 . S
C350 C346 1.389 . S
C350 H367 0.931 . S
C351 O336 1.266 1_655 S
C351 O337 1.248 . S
C352 Tb288 2.802 . S
C352 O332 1.264 . S
C352 O335 1.256 . S
C352 C345 1.496 . S
C353 C320 1.448 . S
C353 H330 0.930 . S
C353 C354 1.328 . S
C354 C325 1.427 . S
C354 H331 0.929 . S
C354 C353 1.328 . S
C355 O339 1.264 . S
C355 O340 1.243 1_655 S
C356 C359 1.399 . S
C356 C360 1.383 . S
C356 C363 1.496 . S
C357 C358 1.399 . S
C357 C360 1.389 . S
C358 C357 1.399 . S
C358 C361 1.380 . S
C358 H368 0.929 . S
C359 C356 1.399 . S
C359 C361 1.392 . S
C359 H369 0.929 . S
C360 C356 1.383 . S
C360 C357 1.389 . S
C360 H370 0.931 . S
C361 C358 1.380 . S
C361 C359 1.392 . S
C361 H371 0.929 . S
C362 O342 1.266 . S
C362 O343 1.248 . S
C363 Tb299 2.802 . S
C363 O338 1.264 . S
C363 O341 1.256 . S
C363 C356 1.496 . S
H364 C347 0.929 . S
H365 C348 0.929 . S
H366 C349 0.929 . S
H367 C350 0.931 . S
H368 C358 0.929 . S
H369 C359 0.929 . S
H370 C360 0.931 . S
H371 C361 0.929 . S
Tb372 N401 2.617 . S
Tb372 N407 2.572 . S
Tb372 O416 2.465 . S
Tb372 O417 2.387 . S
Tb372 O419 2.428 . S
Tb372 O420 2.308 . S
Tb372 O424 2.349 . S
Tb372 O427 2.393 . S
Tb372 C436 2.802 . S
C373 N374 1.379 . S
C373 C376 1.416 . S
C373 C380 1.424 . S
N374 C373 1.379 . S
N374 C377 1.334 . S
N374 Tb383 2.617 . S
C375 C377 1.390 . S
C375 C378 1.339 . S
C375 H395 0.930 . S
C376 C373 1.416 . S
C376 C378 1.416 . S
C376 C382 1.448 . S
C377 N374 1.334 . S
C377 C375 1.390 . S
C377 H388 0.930 . S
C378 C375 1.339 . S
C378 C376 1.416 . S
C378 H399 0.930 . S
C379 C380 1.413 . S
C379 C381 1.427 . S
C379 C385 1.416 . S
C380 C373 1.424 . S
C380 C379 1.413 . S
C380 N384 1.361 . S
C381 C379 1.427 . S
C381 C382 1.328 . S
C381 H396 0.929 . S
C382 C376 1.448 . S
C382 C381 1.328 . S
C382 H397 0.930 . S
Tb383 N374 2.617 . S
Tb383 N384 2.572 . S
Tb383 O418 2.349 . S
Tb383 O421 2.393 . S
Tb383 O422 2.465 . S
Tb383 O423 2.387 . S
Tb383 O425 2.428 . S
Tb383 O426 2.308 . S
Tb383 C447 2.802 . S
N384 C380 1.361 . S
N384 Tb383 2.572 . S
N384 C386 1.340 . S
C385 C379 1.416 . S
C385 C387 1.332 . S
C385 H393 0.931 . S
C386 N384 1.340 . S
C386 C387 1.407 . S
C386 H392 0.930 . S
C387 C385 1.332 . S
C387 C386 1.407 . S
C387 H389 0.929 . S
H388 C377 0.930 . S
H389 C387 0.929 . S
H390 C405 0.930 . S
H391 C412 0.929 . S
H392 C386 0.930 . S
H393 C385 0.931 . S
H394 C408 0.930 . S
H395 C375 0.930 . S
H396 C381 0.929 . S
H397 C382 0.930 . S
H398 C403 0.930 . S
H399 C378 0.930 . S
H400 C411 0.931 . S
N401 Tb372 2.617 . S
N401 C402 1.379 . S
N401 C405 1.334 . S
C402 N401 1.379 . S
C402 C404 1.416 . S
C402 C410 1.424 . S
C403 H398 0.930 . S
C403 C405 1.390 . S
C403 C406 1.339 . S
C404 C402 1.416 . S
C404 C406 1.416 . S
C404 C437 1.448 . S
C405 H390 0.930 . S
C405 N401 1.334 . S
C405 C403 1.390 . S
C406 C403 1.339 . S
C406 C404 1.416 . S
C406 H413 0.930 . S
N407 Tb372 2.572 . S
N407 C408 1.340 . S
N407 C410 1.361 . S
C408 H394 0.930 . S
C408 N407 1.340 . S
C408 C412 1.407 . S
C409 C410 1.413 . S
C409 C411 1.416 . S
C409 C438 1.427 . S
C410 C402 1.424 . S
C410 N407 1.361 . S
C410 C409 1.413 . S
C411 H400 0.931 . S
C411 C409 1.416 . S
C411 C412 1.332 . S
C412 H391 0.929 . S
C412 C408 1.407 . S
C412 C411 1.332 . S
H413 C406 0.930 . S
H414 C437 0.930 . S
H415 C438 0.929 . S
O416 Tb372 2.465 . S
O416 C436 1.264 . S
O417 Tb372 2.387 . S
O417 C428 1.264 . S
O418 Tb383 2.349 . S
O418 C428 1.243 . S
O419 Tb372 2.428 . S
O419 C436 1.256 . S
O420 Tb372 2.308 . S
O420 C435 1.266 . S
O421 Tb383 2.393 . S
O421 C435 1.248 . S
O422 Tb383 2.465 . S
O422 C447 1.264 . S
O423 Tb383 2.387 . S
O423 C439 1.264 . S
O424 Tb372 2.349 . S
O424 C439 1.243 . S
O425 Tb383 2.428 . S
O425 C447 1.256 . S
O426 Tb383 2.308 . S
O426 C446 1.266 . S
O427 Tb372 2.393 . S
O427 C446 1.248 . S
C428 O417 1.264 . S
C428 O418 1.243 . S
C429 C432 1.399 . S
C429 C434 1.383 . S
C429 C436 1.496 . S
C430 C431 1.399 . S
C430 C434 1.389 . S
C431 C430 1.399 . S
C431 C433 1.380 . S
C431 H448 0.929 . S
C432 C429 1.399 . S
C432 C433 1.392 . S
C432 H449 0.929 . S
C433 C431 1.380 . S
C433 C432 1.392 . S
C433 H450 0.929 . S
C434 C429 1.383 . S
C434 C430 1.389 . S
C434 H451 0.931 . S
C435 O420 1.266 . S
C435 O421 1.248 . S
C436 Tb372 2.802 . S
C436 O416 1.264 . S
C436 O419 1.256 . S
C436 C429 1.496 . S
C437 C404 1.448 . S
C437 H414 0.930 . S
C437 C438 1.328 . S
C438 C409 1.427 . S
C438 H415 0.929 . S
C438 C437 1.328 . S
C439 O423 1.264 . S
C439 O424 1.243 . S
C440 C443 1.399 . S
C440 C444 1.383 . S
C440 C447 1.496 . S
C441 C442 1.399 . S
C441 C444 1.389 . S
C442 C441 1.399 . S
C442 C445 1.380 . S
C442 H452 0.929 . S
C443 C440 1.399 . S
C443 C445 1.392 . S
C443 H453 0.929 . S
C444 C440 1.383 . S
C444 C441 1.389 . S
C444 H454 0.931 . S
C445 C442 1.380 . S
C445 C443 1.392 . S
C445 H455 0.929 . S
C446 O426 1.266 . S
C446 O427 1.248 . S
C447 Tb383 2.802 . S
C447 O422 1.264 . S
C447 O425 1.256 . S
C447 C440 1.496 . S
H448 C431 0.929 . S
H449 C432 0.929 . S
H450 C433 0.929 . S
H451 C434 0.931 . S
H452 C442 0.929 . S
H453 C443 0.929 . S
H454 C444 0.931 . S
H455 C445 0.929 . S
Tb456 N485 2.617 . S
Tb456 N491 2.572 . S
Tb456 O500 2.465 . S
Tb456 O501 2.387 . S
Tb456 O503 2.428 . S
Tb456 O504 2.308 . S
Tb456 O508 2.349 . S
Tb456 O511 2.393 . S
Tb456 C520 2.802 . S
C457 N458 1.379 . S
C457 C460 1.416 . S
C457 C464 1.424 . S
N458 C457 1.379 . S
N458 C461 1.334 . S
N458 Tb467 2.617 . S
C459 C461 1.390 . S
C459 C462 1.339 . S
C459 H479 0.930 . S
C460 C457 1.416 . S
C460 C462 1.416 . S
C460 C466 1.448 . S
C461 N458 1.334 . S
C461 C459 1.390 . S
C461 H472 0.930 . S
C462 C459 1.339 . S
C462 C460 1.416 . S
C462 H483 0.930 . S
C463 C464 1.413 . S
C463 C465 1.427 . S
C463 C469 1.416 . S
C464 C457 1.424 . S
C464 C463 1.413 . S
C464 N468 1.361 . S
C465 C463 1.427 . S
C465 C466 1.328 . S
C465 H480 0.929 . S
C466 C460 1.448 . S
C466 C465 1.328 . S
C466 H481 0.930 . S
Tb467 N458 2.617 . S
Tb467 N468 2.572 . S
Tb467 O502 2.349 1_655 S
Tb467 O505 2.393 . S
Tb467 O506 2.465 . S
Tb467 O507 2.387 . S
Tb467 O509 2.428 . S
Tb467 O510 2.308 1_655 S
Tb467 C531 2.802 . S
N468 C464 1.361 . S
N468 Tb467 2.572 . S
N468 C470 1.340 . S
C469 C463 1.416 . S
C469 C471 1.332 . S
C469 H477 0.931 . S
C470 N468 1.340 . S
C470 C471 1.407 . S
C470 H476 0.930 . S
C471 C469 1.332 . S
C471 C470 1.407 . S
C471 H473 0.929 . S
H472 C461 0.930 . S
H473 C471 0.929 . S
H474 C489 0.930 . S
H475 C496 0.929 . S
H476 C470 0.930 . S
H477 C469 0.931 . S
H478 C492 0.930 . S
H479 C459 0.930 . S
H480 C465 0.929 . S
H481 C466 0.930 . S
H482 C487 0.930 . S
H483 C462 0.930 . S
H484 C495 0.931 . S
N485 Tb456 2.617 . S
N485 C486 1.379 . S
N485 C489 1.334 . S
C486 N485 1.379 . S
C486 C488 1.416 . S
C486 C494 1.424 . S
C487 H482 0.930 . S
C487 C489 1.390 . S
C487 C490 1.339 . S
C488 C486 1.416 . S
C488 C490 1.416 . S
C488 C521 1.448 . S
C489 H474 0.930 . S
C489 N485 1.334 . S
C489 C487 1.390 . S
C490 C487 1.339 . S
C490 C488 1.416 . S
C490 H497 0.930 . S
N491 Tb456 2.572 . S
N491 C492 1.340 . S
N491 C494 1.361 . S
C492 H478 0.930 . S
C492 N491 1.340 . S
C492 C496 1.407 . S
C493 C494 1.413 . S
C493 C495 1.416 . S
C493 C522 1.427 . S
C494 C486 1.424 . S
C494 N491 1.361 . S
C494 C493 1.413 . S
C495 H484 0.931 . S
C495 C493 1.416 . S
C495 C496 1.332 . S
C496 H475 0.929 . S
C496 C492 1.407 . S
C496 C495 1.332 . S
H497 C490 0.930 . S
H498 C521 0.930 . S
H499 C522 0.929 . S
O500 Tb456 2.465 . S
O500 C520 1.264 . S
O501 Tb456 2.387 . S
O501 C512 1.264 . S
O502 Tb467 2.349 1_455 S
O502 C512 1.243 . S
O503 Tb456 2.428 . S
O503 C520 1.256 . S
O504 Tb456 2.308 . S
O504 C519 1.266 1_455 S
O505 Tb467 2.393 . S
O505 C519 1.248 . S
O506 Tb467 2.465 . S
O506 C531 1.264 . S
O507 Tb467 2.387 . S
O507 C523 1.264 . S
O508 Tb456 2.349 . S
O508 C523 1.243 1_455 S
O509 Tb467 2.428 . S
O509 C531 1.256 . S
O510 Tb467 2.308 1_455 S
O510 C530 1.266 . S
O511 Tb456 2.393 . S
O511 C530 1.248 . S
C512 O501 1.264 . S
C512 O502 1.243 . S
C513 C516 1.399 . S
C513 C518 1.383 . S
C513 C520 1.496 . S
C514 C515 1.399 . S
C514 C518 1.389 . S
C515 C514 1.399 . S
C515 C517 1.380 . S
C515 H532 0.929 . S
C516 C513 1.399 . S
C516 C517 1.392 . S
C516 H533 0.929 . S
C517 C515 1.380 . S
C517 C516 1.392 . S
C517 H534 0.929 . S
C518 C513 1.383 . S
C518 C514 1.389 . S
C518 H535 0.931 . S
C519 O504 1.266 1_655 S
C519 O505 1.248 . S
C520 Tb456 2.802 . S
C520 O500 1.264 . S
C520 O503 1.256 . S
C520 C513 1.496 . S
C521 C488 1.448 . S
C521 H498 0.930 . S
C521 C522 1.328 . S
C522 C493 1.427 . S
C522 H499 0.929 . S
C522 C521 1.328 . S
C523 O507 1.264 . S
C523 O508 1.243 1_655 S
C524 C527 1.399 . S
C524 C528 1.383 . S
C524 C531 1.496 . S
C525 C526 1.399 . S
C525 C528 1.389 . S
C526 C525 1.399 . S
C526 C529 1.380 . S
C526 H536 0.929 . S
C527 C524 1.399 . S
C527 C529 1.392 . S
C527 H537 0.929 . S
C528 C524 1.383 . S
C528 C525 1.389 . S
C528 H538 0.931 . S
C529 C526 1.380 . S
C529 C527 1.392 . S
C529 H539 0.929 . S
C530 O510 1.266 . S
C530 O511 1.248 . S
C531 Tb467 2.802 . S
C531 O506 1.264 . S
C531 O509 1.256 . S
C531 C524 1.496 . S
H532 C515 0.929 . S
H533 C516 0.929 . S
H534 C517 0.929 . S
H535 C518 0.931 . S
H536 C526 0.929 . S
H537 C527 0.929 . S
H538 C528 0.931 . S
H539 C529 0.929 . S
Tb540 N569 2.617 . S
Tb540 N575 2.572 . S
Tb540 O584 2.465 . S
Tb540 O585 2.387 . S
Tb540 O587 2.428 . S
Tb540 O588 2.308 . S
Tb540 O592 2.349 . S
Tb540 O595 2.393 . S
Tb540 C604 2.802 . S
C541 N542 1.379 . S
C541 C544 1.416 . S
C541 C548 1.424 . S
N542 C541 1.379 . S
N542 C545 1.334 . S
N542 Tb551 2.617 . S
C543 C545 1.390 . S
C543 C546 1.339 . S
C543 H563 0.930 . S
C544 C541 1.416 . S
C544 C546 1.416 . S
C544 C550 1.448 . S
C545 N542 1.334 . S
C545 C543 1.390 . S
C545 H556 0.930 . S
C546 C543 1.339 . S
C546 C544 1.416 . S
C546 H567 0.930 . S
C547 C548 1.413 . S
C547 C549 1.427 . S
C547 C553 1.416 . S
C548 C541 1.424 . S
C548 C547 1.413 . S
C548 N552 1.361 . S
C549 C547 1.427 . S
C549 C550 1.328 . S
C549 H564 0.929 . S
C550 C544 1.448 . S
C550 C549 1.328 . S
C550 H565 0.930 . S
Tb551 N542 2.617 . S
Tb551 N552 2.572 . S
Tb551 O586 2.349 . S
Tb551 O589 2.393 . S
Tb551 O590 2.465 . S
Tb551 O591 2.387 . S
Tb551 O593 2.428 . S
Tb551 O594 2.308 . S
Tb551 C615 2.802 . S
N552 C548 1.361 . S
N552 Tb551 2.572 . S
N552 C554 1.340 . S
C553 C547 1.416 . S
C553 C555 1.332 . S
C553 H561 0.931 . S
C554 N552 1.340 . S
C554 C555 1.407 . S
C554 H560 0.930 . S
C555 C553 1.332 . S
C555 C554 1.407 . S
C555 H557 0.929 . S
H556 C545 0.930 . S
H557 C555 0.929 . S
H558 C573 0.930 . S
H559 C580 0.929 . S
H560 C554 0.930 . S
H561 C553 0.931 . S
H562 C576 0.930 . S
H563 C543 0.930 . S
H564 C549 0.929 . S
H565 C550 0.930 . S
H566 C571 0.930 . S
H567 C546 0.930 . S
H568 C579 0.931 . S
N569 Tb540 2.617 . S
N569 C570 1.379 . S
N569 C573 1.334 . S
C570 N569 1.379 . S
C570 C572 1.416 . S
C570 C578 1.424 . S
C571 H566 0.930 . S
C571 C573 1.390 . S
C571 C574 1.339 . S
C572 C570 1.416 . S
C572 C574 1.416 . S
C572 C605 1.448 . S
C573 H558 0.930 . S
C573 N569 1.334 . S
C573 C571 1.390 . S
C574 C571 1.339 . S
C574 C572 1.416 . S
C574 H581 0.930 . S
N575 Tb540 2.572 . S
N575 C576 1.340 . S
N575 C578 1.361 . S
C576 H562 0.930 . S
C576 N575 1.340 . S
C576 C580 1.407 . S
C577 C578 1.413 . S
C577 C579 1.416 . S
C577 C606 1.427 . S
C578 C570 1.424 . S
C578 N575 1.361 . S
C578 C577 1.413 . S
C579 H568 0.931 . S
C579 C577 1.416 . S
C579 C580 1.332 . S
C580 H559 0.929 . S
C580 C576 1.407 . S
C580 C579 1.332 . S
H581 C574 0.930 . S
H582 C605 0.930 . S
H583 C606 0.929 . S
O584 Tb540 2.465 . S
O584 C604 1.264 . S
O585 Tb540 2.387 . S
O585 C596 1.264 . S
O586 Tb551 2.349 . S
O586 C596 1.243 . S
O587 Tb540 2.428 . S
O587 C604 1.256 . S
O588 Tb540 2.308 . S
O588 C603 1.266 . S
O589 Tb551 2.393 . S
O589 C603 1.248 . S
O590 Tb551 2.465 . S
O590 C615 1.264 . S
O591 Tb551 2.387 . S
O591 C607 1.264 . S
O592 Tb540 2.349 . S
O592 C607 1.243 . S
O593 Tb551 2.428 . S
O593 C615 1.256 . S
O594 Tb551 2.308 . S
O594 C614 1.266 . S
O595 Tb540 2.393 . S
O595 C614 1.248 . S
C596 O585 1.264 . S
C596 O586 1.243 . S
C597 C600 1.399 . S
C597 C602 1.383 . S
C597 C604 1.496 . S
C598 C599 1.399 . S
C598 C602 1.389 . S
C599 C598 1.399 . S
C599 C601 1.380 . S
C599 H616 0.929 . S
C600 C597 1.399 . S
C600 C601 1.392 . S
C600 H617 0.929 . S
C601 C599 1.380 . S
C601 C600 1.392 . S
C601 H618 0.929 . S
C602 C597 1.383 . S
C602 C598 1.389 . S
C602 H619 0.931 . S
C603 O588 1.266 . S
C603 O589 1.248 . S
C604 Tb540 2.802 . S
C604 O584 1.264 . S
C604 O587 1.256 . S
C604 C597 1.496 . S
C605 C572 1.448 . S
C605 H582 0.930 . S
C605 C606 1.328 . S
C606 C577 1.427 . S
C606 H583 0.929 . S
C606 C605 1.328 . S
C607 O591 1.264 . S
C607 O592 1.243 . S
C608 C611 1.399 . S
C608 C612 1.383 . S
C608 C615 1.496 . S
C609 C610 1.399 . S
C609 C612 1.389 . S
C610 C609 1.399 . S
C610 C613 1.380 . S
C610 H620 0.929 . S
C611 C608 1.399 . S
C611 C613 1.392 . S
C611 H621 0.929 . S
C612 C608 1.383 . S
C612 C609 1.389 . S
C612 H622 0.931 . S
C613 C610 1.380 . S
C613 C611 1.392 . S
C613 H623 0.929 . S
C614 O594 1.266 . S
C614 O595 1.248 . S
C615 Tb551 2.802 . S
C615 O590 1.264 . S
C615 O593 1.256 . S
C615 C608 1.496 . S
H616 C599 0.929 . S
H617 C600 0.929 . S
H618 C601 0.929 . S
H619 C602 0.931 . S
H620 C610 0.929 . S
H621 C611 0.929 . S
H622 C612 0.931 . S
H623 C613 0.929 . S
H624 C632 0.929 . S
H625 C634 0.930 . S
H626 C636 0.930 . S
H627 C639 0.929 . S
H628 C642 0.930 1_565 S
H629 C644 0.960 . S
H630 C644 0.960 . S
H631 C644 0.960 . S
C632 H624 0.929 . S
C632 C633 1.377 . S
C632 C634 1.384 . S
C633 C632 1.377 . S
C633 C639 1.390 . S
C634 H625 0.930 . S
C634 C632 1.384 . S
C634 C635 1.372 . S
C635 C634 1.372 . S
C635 C636 1.400 1_565 S
C635 C640 1.490 1_565 S
C636 H626 0.930 . S
C636 C635 1.400 1_545 S
C636 C639 1.386 1_545 S
H637 C653 0.930 . S
H638 C654 0.931 . S
C639 H627 0.929 . S
C639 C633 1.390 . S
C639 C636 1.386 1_565 S
C640 C635 1.490 1_545 S
C640 C642 1.395 . S
C640 C643 1.403 . S
H641 C647 0.930 . S
C642 H628 0.930 1_545 S
C642 C640 1.395 . S
C642 C645 1.403 . S
C643 C640 1.403 . S
C643 C644 1.524 . S
C643 C647 1.400 . S
C644 H629 0.960 . S
C644 H630 0.960 . S
C644 H631 0.960 . S
C644 C643 1.524 . S
C645 C642 1.403 . S
C645 C646 1.392 . S
C645 C649 1.495 . S
C646 C645 1.392 . S
C646 C647 1.385 . S
C646 C648 1.478 . S
C647 H641 0.930 . S
C647 C643 1.400 . S
C647 C646 1.385 . S
C648 C646 1.478 . S
C648 C650 1.381 . S
C648 C654 1.383 . S
C649 C645 1.495 . S
C649 H655 0.959 . S
C649 H656 0.961 . S
C649 H657 0.960 . S
C650 C648 1.381 . S
C650 C651 1.394 . S
C650 H658 0.930 . S
C651 C650 1.394 . S
C651 C652 1.383 . S
C651 H659 0.929 . S
C652 C651 1.383 . S
C652 C653 1.377 . S
C653 H637 0.930 . S
C653 C652 1.377 . S
C653 C654 1.379 . S
C654 H638 0.931 . S
C654 C648 1.383 . S
C654 C653 1.379 . S
H655 C649 0.959 . S
H656 C649 0.961 . S
H657 C649 0.960 . S
H658 C650 0.930 . S
H659 C651 0.929 . S
H660 C668 0.929 . S
H661 C670 0.930 . S
H662 C672 0.930 . S
H663 C675 0.929 . S
H664 C678 0.930 . S
H665 C680 0.960 . S
H666 C680 0.960 . S
H667 C680 0.960 . S
C668 H660 0.929 . S
C668 C669 1.377 . S
C668 C670 1.384 . S
C669 C668 1.377 . S
C669 C675 1.390 . S
C670 H661 0.930 . S
C670 C668 1.384 . S
C670 C671 1.372 . S
C671 C670 1.372 . S
C671 C672 1.400 . S
C671 C676 1.490 . S
C672 H662 0.930 . S
C672 C671 1.400 . S
C672 C675 1.386 . S
H673 C689 0.930 . S
H674 C690 0.931 . S
C675 H663 0.929 . S
C675 C669 1.390 . S
C675 C672 1.386 . S
C676 C671 1.490 . S
C676 C678 1.395 . S
C676 C679 1.403 . S
H677 C683 0.930 . S
C678 H664 0.930 . S
C678 C676 1.395 . S
C678 C681 1.403 . S
C679 C676 1.403 . S
C679 C680 1.524 . S
C679 C683 1.400 . S
C680 H665 0.960 . S
C680 H666 0.960 . S
C680 H667 0.960 . S
C680 C679 1.524 . S
C681 C678 1.403 . S
C681 C682 1.392 . S
C681 C685 1.495 . S
C682 C681 1.392 . S
C682 C683 1.385 . S
C682 C684 1.478 . S
C683 H677 0.930 . S
C683 C679 1.400 . S
C683 C682 1.385 . S
C684 C682 1.478 . S
C684 C686 1.381 . S
C684 C690 1.383 . S
C685 C681 1.495 . S
C685 H691 0.959 . S
C685 H692 0.961 . S
C685 H693 0.960 . S
C686 C684 1.381 . S
C686 C687 1.394 . S
C686 H694 0.930 . S
C687 C686 1.394 . S
C687 C688 1.383 . S
C687 H695 0.929 . S
C688 C687 1.383 . S
C688 C689 1.377 . S
C689 H673 0.930 . S
C689 C688 1.377 . S
C689 C690 1.379 . S
C690 H674 0.931 . S
C690 C684 1.383 . S
C690 C689 1.379 . S
H691 C685 0.959 . S
H692 C685 0.961 . S
H693 C685 0.960 . S
H694 C686 0.930 . S
H695 C687 0.929 . S
H696 C704 0.929 . S
H697 C706 0.930 . S
H698 C708 0.930 . S
H699 C711 0.929 . S
H700 C714 0.930 . S
H701 C716 0.960 . S
H702 C716 0.960 . S
H703 C716 0.960 . S
C704 H696 0.929 . S
C704 C705 1.377 . S
C704 C706 1.384 . S
C705 C704 1.377 . S
C705 C711 1.390 . S
C706 H697 0.930 . S
C706 C704 1.384 . S
C706 C707 1.372 . S
C707 C706 1.372 . S
C707 C708 1.400 . S
C707 C712 1.490 . S
C708 H698 0.930 . S
C708 C707 1.400 . S
C708 C711 1.386 . S
H709 C725 0.930 . S
H710 C726 0.931 . S
C711 H699 0.929 . S
C711 C705 1.390 . S
C711 C708 1.386 . S
C712 C707 1.490 . S
C712 C714 1.395 . S
C712 C715 1.403 . S
H713 C719 0.930 . S
C714 H700 0.930 . S
C714 C712 1.395 . S
C714 C717 1.403 . S
C715 C712 1.403 . S
C715 C716 1.524 . S
C715 C719 1.400 . S
C716 H701 0.960 . S
C716 H702 0.960 . S
C716 H703 0.960 . S
C716 C715 1.524 . S
C717 C714 1.403 . S
C717 C718 1.392 . S
C717 C721 1.495 . S
C718 C717 1.392 . S
C718 C719 1.385 . S
C718 C720 1.478 . S
C719 H713 0.930 . S
C719 C715 1.400 . S
C719 C718 1.385 . S
C720 C718 1.478 . S
C720 C722 1.381 . S
C720 C726 1.383 . S
C721 C717 1.495 . S
C721 H727 0.959 . S
C721 H728 0.961 . S
C721 H729 0.960 . S
C722 C720 1.381 . S
C722 C723 1.394 . S
C722 H730 0.930 . S
C723 C722 1.394 . S
C723 C724 1.383 . S
C723 H731 0.929 . S
C724 C723 1.383 . S
C724 C725 1.377 . S
C725 H709 0.930 . S
C725 C724 1.377 . S
C725 C726 1.379 . S
C726 H710 0.931 . S
C726 C720 1.383 . S
C726 C725 1.379 . S
H727 C721 0.959 . S
H728 C721 0.961 . S
H729 C721 0.960 . S
H730 C722 0.930 . S
H731 C723 0.929 . S
H732 C740 0.929 . S
H733 C742 0.930 . S
H734 C744 0.930 . S
H735 C747 0.929 . S
H736 C750 0.930 . S
H737 C752 0.960 . S
H738 C752 0.960 . S
H739 C752 0.960 . S
C740 H732 0.929 . S
C740 C741 1.377 . S
C740 C742 1.384 1_565 S
C741 C740 1.377 . S
C741 C747 1.390 . S
C742 H733 0.930 . S
C742 C740 1.384 1_545 S
C742 C743 1.372 . S
C743 C742 1.372 . S
C743 C744 1.400 1_545 S
C743 C748 1.490 . S
C744 H734 0.930 . S
C744 C743 1.400 1_565 S
C744 C747 1.386 . S
H745 C761 0.930 . S
H746 C762 0.931 . S
C747 H735 0.929 . S
C747 C741 1.390 . S
C747 C744 1.386 . S
C748 C743 1.490 . S
C748 C750 1.395 . S
C748 C751 1.403 . S
H749 C755 0.930 . S
C750 H736 0.930 . S
C750 C748 1.395 . S
C750 C753 1.403 . S
C751 C748 1.403 . S
C751 C752 1.524 . S
C751 C755 1.400 . S
C752 H737 0.960 . S
C752 H738 0.960 . S
C752 H739 0.960 . S
C752 C751 1.524 . S
C753 C750 1.403 . S
C753 C754 1.392 . S
C753 C757 1.495 . S
C754 C753 1.392 . S
C754 C755 1.385 . S
C754 C756 1.478 . S
C755 H749 0.930 . S
C755 C751 1.400 . S
C755 C754 1.385 . S
C756 C754 1.478 . S
C756 C758 1.381 . S
C756 C762 1.383 . S
C757 C753 1.495 . S
C757 H763 0.959 . S
C757 H764 0.961 . S
C757 H765 0.960 . S
C758 C756 1.381 . S
C758 C759 1.394 . S
C758 H766 0.930 . S
C759 C758 1.394 . S
C759 C760 1.383 . S
C759 H767 0.929 . S
C760 C759 1.383 . S
C760 C761 1.377 . S
C761 H745 0.930 . S
C761 C760 1.377 . S
C761 C762 1.379 . S
C762 H746 0.931 . S
C762 C756 1.383 . S
C762 C761 1.379 . S
H763 C757 0.959 . S
H764 C757 0.961 . S
H765 C757 0.960 . S
H766 C758 0.930 . S
H767 C759 0.929 . S
H768 C776 0.929 . S
H769 C778 0.915 1_565 S
H770 C780 0.930 . S
H771 C783 0.929 . S
H772 C786 0.930 . S
H773 C788 0.960 . S
H774 C788 0.960 . S
H775 C788 0.960 . S
C776 H768 0.929 . S
C776 C777 1.377 . S
C776 C778 1.384 . S
C777 C776 1.377 . S
C777 C783 1.390 . S
C778 H769 0.915 1_545 S
C778 C776 1.384 . S
C778 C779 1.386 . S
C779 C778 1.386 . S
C779 C780 1.425 . S
C779 C784 1.453 1_545 S
C780 H770 0.930 . S
C780 C779 1.425 . S
C780 C783 1.386 . S
H781 C797 0.930 1_455 S
H782 C798 0.931 . S
C783 H771 0.929 . S
C783 C777 1.390 . S
C783 C780 1.386 . S
C784 C779 1.453 1_565 S
C784 C786 1.395 . S
C784 C787 1.403 . S
H785 C791 0.930 . S
C786 H772 0.930 . S
C786 C784 1.395 . S
C786 C789 1.403 . S
C787 C784 1.403 . S
C787 C788 1.524 1_565 S
C787 C791 1.400 . S
C788 H773 0.960 . S
C788 H774 0.960 . S
C788 H775 0.960 . S
C788 C787 1.524 1_545 S
C789 C786 1.403 . S
C789 C790 1.392 . S
C789 C793 1.495 . S
C790 C789 1.392 . S
C790 C791 1.385 . S
C790 C792 1.478 . S
C791 H785 0.930 . S
C791 C787 1.400 . S
C791 C790 1.385 . S
C792 C790 1.478 . S
C792 C794 1.381 . S
C792 C798 1.383 . S
C793 C789 1.495 . S
C793 H799 0.959 . S
C793 H800 0.961 . S
C793 H801 0.960 . S
C794 C792 1.381 . S
C794 C795 1.394 . S
C794 H802 0.930 . S
C795 C794 1.394 . S
C795 C796 1.383 . S
C795 H803 0.929 . S
C796 C795 1.383 . S
C796 C797 1.377 . S
C797 H781 0.930 1_655 S
C797 C796 1.377 . S
C797 C798 1.379 . S
C798 H782 0.931 . S
C798 C792 1.383 . S
C798 C797 1.379 . S
H799 C793 0.959 . S
H800 C793 0.961 . S
H801 C793 0.960 . S
H802 C794 0.930 . S
H803 C795 0.929 . S
H804 C812 0.929 . S
H805 C814 0.930 . S
H806 C816 0.930 . S
H807 C819 0.929 . S
H808 C822 0.930 . S
H809 C824 0.960 . S
H810 C824 0.960 . S
H811 C824 0.960 . S
C812 H804 0.929 . S
C812 C813 1.377 . S
C812 C814 1.384 . S
C813 C812 1.377 . S
C813 C819 1.390 . S
C814 H805 0.930 . S
C814 C812 1.384 . S
C814 C815 1.372 . S
C815 C814 1.372 . S
C815 C816 1.400 . S
C815 C820 1.490 . S
C816 H806 0.930 . S
C816 C815 1.400 . S
C816 C819 1.386 . S
H817 C833 0.930 . S
H818 C834 0.931 . S
C819 H807 0.929 . S
C819 C813 1.390 . S
C819 C816 1.386 . S
C820 C815 1.490 . S
C820 C822 1.395 . S
C820 C823 1.403 . S
H821 C827 0.930 . S
C822 H808 0.930 . S
C822 C820 1.395 . S
C822 C825 1.403 . S
C823 C820 1.403 . S
C823 C824 1.524 . S
C823 C827 1.400 . S
C824 H809 0.960 . S
C824 H810 0.960 . S
C824 H811 0.960 . S
C824 C823 1.524 . S
C825 C822 1.403 . S
C825 C826 1.392 . S
C825 C829 1.495 . S
C826 C825 1.392 . S
C826 C827 1.385 . S
C826 C828 1.478 . S
C827 H821 0.930 . S
C827 C823 1.400 . S
C827 C826 1.385 . S
C828 C826 1.478 . S
C828 C830 1.381 . S
C828 C834 1.383 . S
C829 C825 1.495 . S
C829 H835 0.959 . S
C829 H836 0.961 . S
C829 H837 0.960 . S
C830 C828 1.381 . S
C830 C831 1.394 . S
C830 H838 0.930 . S
C831 C830 1.394 . S
C831 C832 1.383 . S
C831 H839 0.929 . S
C832 C831 1.383 . S
C832 C833 1.377 . S
C833 H817 0.930 . S
C833 C832 1.377 . S
C833 C834 1.379 . S
C834 H818 0.931 . S
C834 C828 1.383 . S
C834 C833 1.379 . S
H835 C829 0.959 . S
H836 C829 0.961 . S
H837 C829 0.960 . S
H838 C830 0.930 . S
H839 C831 0.929 . S
H840 C848 0.929 . S
H841 C850 0.930 . S
H842 C852 0.930 . S
H843 C855 0.929 . S
H844 C858 0.930 . S
H845 C860 0.960 . S
H846 C860 0.960 . S
H847 C860 0.960 . S
C848 H840 0.929 . S
C848 C849 1.377 . S
C848 C850 1.384 . S
C849 C848 1.377 . S
C849 C855 1.390 . S
C850 H841 0.930 . S
C850 C848 1.384 . S
C850 C851 1.372 . S
C851 C850 1.372 . S
C851 C852 1.400 . S
C851 C856 1.490 . S
C852 H842 0.930 . S
C852 C851 1.400 . S
C852 C855 1.386 . S
H853 C869 0.930 . S
H854 C870 0.931 . S
C855 H843 0.929 . S
C855 C849 1.390 . S
C855 C852 1.386 . S
C856 C851 1.490 . S
C856 C858 1.395 . S
C856 C859 1.403 . S
H857 C863 0.930 . S
C858 H844 0.930 . S
C858 C856 1.395 . S
C858 C861 1.403 . S
C859 C856 1.403 . S
C859 C860 1.524 . S
C859 C863 1.400 . S
C860 H845 0.960 . S
C860 H846 0.960 . S
C860 H847 0.960 . S
C860 C859 1.524 . S
C861 C858 1.403 . S
C861 C862 1.392 . S
C861 C865 1.495 . S
C862 C861 1.392 . S
C862 C863 1.385 . S
C862 C864 1.478 . S
C863 H857 0.930 . S
C863 C859 1.400 . S
C863 C862 1.385 . S
C864 C862 1.478 . S
C864 C866 1.381 . S
C864 C870 1.383 . S
C865 C861 1.495 . S
C865 H871 0.959 . S
C865 H872 0.961 . S
C865 H873 0.960 . S
C866 C864 1.381 . S
C866 C867 1.394 . S
C866 H874 0.930 . S
C867 C866 1.394 . S
C867 C868 1.383 . S
C867 H875 0.929 . S
C868 C867 1.383 . S
C868 C869 1.377 . S
C869 H853 0.930 . S
C869 C868 1.377 . S
C869 C870 1.379 . S
C870 H854 0.931 . S
C870 C864 1.383 . S
C870 C869 1.379 . S
H871 C865 0.959 . S
H872 C865 0.961 . S
H873 C865 0.960 . S
H874 C866 0.930 . S
H875 C867 0.929 . S
H876 C884 0.929 . S
H877 C886 0.930 . S
H878 C888 0.930 . S
H879 C891 0.929 . S
H880 C894 0.930 1_545 S
H881 C896 0.960 . S
H882 C896 0.960 . S
H883 C896 0.960 . S
C884 H876 0.929 . S
C884 C885 1.377 . S
C884 C886 1.384 . S
C885 C884 1.377 . S
C885 C891 1.390 . S
C886 H877 0.930 . S
C886 C884 1.384 . S
C886 C887 1.358 1_545 S
C887 C886 1.358 1_565 S
C887 C888 1.401 . S
C887 C892 1.502 . S
C888 H878 0.930 . S
C888 C887 1.401 . S
C888 C891 1.386 1_565 S
H889 C905 0.930 . S
H890 C906 0.931 . S
C891 H879 0.929 . S
C891 C885 1.390 . S
C891 C888 1.386 1_545 S
C892 C887 1.502 . S
C892 C894 1.395 . S
C892 C895 1.403 . S
H893 C899 0.930 . S
C894 H880 0.930 1_565 S
C894 C892 1.395 . S
C894 C897 1.403 . S
C895 C892 1.403 . S
C895 C896 1.524 . S
C895 C899 1.400 . S
C896 H881 0.960 . S
C896 H882 0.960 . S
C896 H883 0.960 . S
C896 C895 1.524 . S
C897 C894 1.403 . S
C897 C898 1.392 . S
C897 C901 1.495 . S
C898 C897 1.392 . S
C898 C899 1.385 . S
C898 C900 1.478 . S
C899 H893 0.930 . S
C899 C895 1.400 . S
C899 C898 1.385 . S
C900 C898 1.478 . S
C900 C902 1.381 . S
C900 C906 1.383 . S
C901 C897 1.495 . S
C901 H907 0.959 . S
C901 H908 0.961 . S
C901 H909 0.960 . S
C902 C900 1.381 . S
C902 C903 1.394 . S
C902 H910 0.930 . S
C903 C902 1.394 . S
C903 C904 1.383 . S
C903 H911 0.929 . S
C904 C903 1.383 . S
C904 C905 1.377 . S
C905 H889 0.930 . S
C905 C904 1.377 . S
C905 C906 1.379 . S
C906 H890 0.931 . S
C906 C900 1.383 . S
C906 C905 1.379 . S
H907 C901 0.959 . S
H908 C901 0.961 . S
H909 C901 0.960 . S
H910 C902 0.930 . S
H911 C903 0.929 . S
H912 C920 0.929 . S
H913 C922 0.930 . S
H914 C924 0.930 . S
H915 C927 0.929 . S
H916 C930 0.930 . S
H917 C932 0.960 . S
H918 C932 0.960 . S
H919 C932 0.960 . S
C920 H912 0.929 . S
C920 C921 1.377 . S
C920 C922 1.384 . S
C921 C920 1.377 . S
C921 C927 1.390 . S
C922 H913 0.930 . S
C922 C920 1.384 . S
C922 C923 1.372 . S
C923 C922 1.372 . S
C923 C924 1.400 . S
C923 C928 1.490 . S
C924 H914 0.930 . S
C924 C923 1.400 . S
C924 C927 1.386 . S
H925 C941 0.930 . S
H926 C942 0.931 . S
C927 H915 0.929 . S
C927 C921 1.390 . S
C927 C924 1.386 . S
C928 C923 1.490 . S
C928 C930 1.395 . S
C928 C931 1.403 . S
H929 C935 0.930 . S
C930 H916 0.930 . S
C930 C928 1.395 . S
C930 C933 1.403 . S
C931 C928 1.403 . S
C931 C932 1.524 . S
C931 C935 1.400 . S
C932 H917 0.960 . S
C932 H918 0.960 . S
C932 H919 0.960 . S
C932 C931 1.524 . S
C933 C930 1.403 . S
C933 C934 1.392 . S
C933 C937 1.495 . S
C934 C933 1.392 . S
C934 C935 1.385 . S
C934 C936 1.478 . S
C935 H929 0.930 . S
C935 C931 1.400 . S
C935 C934 1.385 . S
C936 C934 1.478 . S
C936 C938 1.381 . S
C936 C942 1.383 . S
C937 C933 1.495 . S
C937 H943 0.959 . S
C937 H944 0.961 . S
C937 H945 0.960 . S
C938 C936 1.381 . S
C938 C939 1.394 . S
C938 H946 0.930 . S
C939 C938 1.394 . S
C939 C940 1.383 . S
C939 H947 0.929 . S
C940 C939 1.383 . S
C940 C941 1.377 . S
C941 H925 0.930 . S
C941 C940 1.377 . S
C941 C942 1.379 . S
C942 H926 0.931 . S
C942 C936 1.383 . S
C942 C941 1.379 . S
H943 C937 0.959 . S
H944 C937 0.961 . S
H945 C937 0.960 . S
H946 C938 0.930 . S
H947 C939 0.929 . S
H948 C956 0.929 . S
H949 C958 0.930 . S
H950 C960 0.930 . S
H951 C963 0.929 . S
H952 C966 0.930 . S
H953 C968 0.960 . S
H954 C968 0.960 . S
H955 C968 0.960 . S
C956 H948 0.929 . S
C956 C957 1.377 . S
C956 C958 1.384 . S
C957 C956 1.377 . S
C957 C963 1.390 . S
C958 H949 0.930 . S
C958 C956 1.384 . S
C958 C959 1.372 . S
C959 C958 1.372 . S
C959 C960 1.400 . S
C959 C964 1.490 . S
C960 H950 0.930 . S
C960 C959 1.400 . S
C960 C963 1.386 . S
H961 C977 0.930 . S
H962 C978 0.931 . S
C963 H951 0.929 . S
C963 C957 1.390 . S
C963 C960 1.386 . S
C964 C959 1.490 . S
C964 C966 1.395 . S
C964 C967 1.403 . S
H965 C971 0.930 . S
C966 H952 0.930 . S
C966 C964 1.395 . S
C966 C969 1.403 . S
C967 C964 1.403 . S
C967 C968 1.524 . S
C967 C971 1.400 . S
C968 H953 0.960 . S
C968 H954 0.960 . S
C968 H955 0.960 . S
C968 C967 1.524 . S
C969 C966 1.403 . S
C969 C970 1.392 . S
C969 C973 1.495 . S
C970 C969 1.392 . S
C970 C971 1.385 . S
C970 C972 1.478 . S
C971 H965 0.930 . S
C971 C967 1.400 . S
C971 C970 1.385 . S
C972 C970 1.478 . S
C972 C974 1.381 . S
C972 C978 1.383 . S
C973 C969 1.495 . S
C973 H979 0.959 . S
C973 H980 0.961 . S
C973 H981 0.960 . S
C974 C972 1.381 . S
C974 C975 1.394 . S
C974 H982 0.930 . S
C975 C974 1.394 . S
C975 C976 1.383 . S
C975 H983 0.929 . S
C976 C975 1.383 . S
C976 C977 1.377 . S
C977 H961 0.930 . S
C977 C976 1.377 . S
C977 C978 1.379 . S
C978 H962 0.931 . S
C978 C972 1.383 . S
C978 C977 1.379 . S
H979 C973 0.959 . S
H980 C973 0.961 . S
H981 C973 0.960 . S
H982 C974 0.930 . S
H983 C975 0.929 . S
H984 C992 0.929 . S
H985 C994 0.930 . S
H986 C996 0.930 . S
H987 C999 0.929 . S
H988 C1002 0.930 . S
H989 C1004 0.960 . S
H990 C1004 0.960 . S
H991 C1004 0.960 . S
C992 H984 0.929 . S
C992 C993 1.377 1_556 S
C992 C994 1.384 . S
C993 C992 1.377 1_554 S
C993 C999 1.390 1_554 S
C994 H985 0.930 . S
C994 C992 1.384 . S
C994 C995 1.372 . S
C995 C994 1.372 . S
C995 C996 1.400 . S
C995 C1000 1.490 . S
C996 H986 0.930 . S
C996 C995 1.400 . S
C996 C999 1.386 . S
H997 C1013 0.930 . S
H998 C1014 0.931 . S
C999 H987 0.929 . S
C999 C993 1.390 1_556 S
C999 C996 1.386 . S
C1000 C995 1.490 . S
C1000 C1002 1.395 . S
C1000 C1003 1.403 . S
H1001 C1007 0.930 . S
C1002 H988 0.930 . S
C1002 C1000 1.395 . S
C1002 C1005 1.403 . S
C1003 C1000 1.403 . S
C1003 C1004 1.524 . S
C1003 C1007 1.400 . S
C1004 H989 0.960 . S
C1004 H990 0.960 . S
C1004 H991 0.960 . S
C1004 C1003 1.524 . S
C1005 C1002 1.403 . S
C1005 C1006 1.392 . S
C1005 C1009 1.495 . S
C1006 C1005 1.392 . S
C1006 C1007 1.385 . S
C1006 C1008 1.478 . S
C1007 H1001 0.930 . S
C1007 C1003 1.400 . S
C1007 C1006 1.385 . S
C1008 C1006 1.478 . S
C1008 C1010 1.381 . S
C1008 C1014 1.383 . S
C1009 C1005 1.495 . S
C1009 H1015 0.959 . S
C1009 H1016 0.961 . S
C1009 H1017 0.960 . S
C1010 C1008 1.381 . S
C1010 C1011 1.394 . S
C1010 H1018 0.930 . S
C1011 C1010 1.394 . S
C1011 C1012 1.383 . S
C1011 H1019 0.929 . S
C1012 C1011 1.383 . S
C1012 C1013 1.377 . S
C1013 H997 0.930 . S
C1013 C1012 1.377 . S
C1013 C1014 1.379 . S
C1014 H998 0.931 . S
C1014 C1008 1.383 . S
C1014 C1013 1.379 . S
H1015 C1009 0.959 . S
H1016 C1009 0.961 . S
H1017 C1009 0.960 . S
H1018 C1010 0.930 . S
H1019 C1011 0.929 . S
H1020 C1028 0.929 . S
H1021 C1030 0.930 . S
H1022 C1032 0.930 . S
H1023 C1035 0.929 . S
H1024 C1038 0.930 . S
H1025 C1040 0.960 . S
H1026 C1040 0.960 . S
H1027 C1040 0.960 . S
C1028 H1020 0.929 . S
C1028 C1029 1.377 . S
C1028 C1030 1.384 . S
C1029 C1028 1.377 . S
C1029 C1035 1.390 . S
C1030 H1021 0.930 . S
C1030 C1028 1.384 . S
C1030 C1031 1.372 . S
C1031 C1030 1.372 . S
C1031 C1032 1.400 . S
C1031 C1036 1.490 . S
C1032 H1022 0.930 . S
C1032 C1031 1.400 . S
C1032 C1035 1.386 . S
H1033 C1049 0.930 . S
H1034 C1050 0.931 . S
C1035 H1023 0.929 . S
C1035 C1029 1.390 . S
C1035 C1032 1.386 . S
C1036 C1031 1.490 . S
C1036 C1038 1.395 . S
C1036 C1039 1.403 . S
H1037 C1043 0.930 . S
C1038 H1024 0.930 . S
C1038 C1036 1.395 . S
C1038 C1041 1.403 . S
C1039 C1036 1.403 . S
C1039 C1040 1.524 . S
C1039 C1043 1.400 . S
C1040 H1025 0.960 . S
C1040 H1026 0.960 . S
C1040 H1027 0.960 . S
C1040 C1039 1.524 . S
C1041 C1038 1.403 . S
C1041 C1042 1.392 . S
C1041 C1045 1.495 . S
C1042 C1041 1.392 . S
C1042 C1043 1.385 . S
C1042 C1044 1.478 . S
C1043 H1037 0.930 . S
C1043 C1039 1.400 . S
C1043 C1042 1.385 . S
C1044 C1042 1.478 . S
C1044 C1046 1.381 . S
C1044 C1050 1.383 . S
C1045 C1041 1.495 . S
C1045 H1051 0.959 . S
C1045 H1052 0.961 . S
C1045 H1053 0.960 . S
C1046 C1044 1.381 . S
C1046 C1047 1.394 . S
C1046 H1054 0.930 . S
C1047 C1046 1.394 . S
C1047 C1048 1.383 . S
C1047 H1055 0.929 . S
C1048 C1047 1.383 . S
C1048 C1049 1.377 . S
C1049 H1033 0.930 . S
C1049 C1048 1.377 . S
C1049 C1050 1.379 . S
C1050 H1034 0.931 . S
C1050 C1044 1.383 . S
C1050 C1049 1.379 . S
H1051 C1045 0.959 . S
H1052 C1045 0.961 . S
H1053 C1045 0.960 . S
H1054 C1046 0.930 . S
H1055 C1047 0.929 . S
H1056 C1064 0.929 . S
H1057 C1066 0.930 . S
H1058 C1068 0.930 . S
H1059 C1071 0.927 1_554 S
H1060 C1074 0.930 . S
H1061 C1076 0.960 . S
H1062 C1076 0.960 . S
H1063 C1076 0.960 . S
C1064 H1056 0.929 . S
C1064 C1065 1.377 . S
C1064 C1066 1.384 . S
C1065 C1064 1.377 . S
C1065 C1071 1.390 . S
C1066 H1057 0.930 . S
C1066 C1064 1.384 . S
C1066 C1067 1.372 . S
C1067 C1066 1.372 . S
C1067 C1068 1.400 . S
C1067 C1072 1.490 . S
C1068 H1058 0.930 . S
C1068 C1067 1.400 . S
C1068 C1071 1.386 . S
H1069 C1085 0.930 . S
H1070 C1086 0.931 . S
C1071 H1059 0.927 1_556 S
C1071 C1065 1.390 . S
C1071 C1068 1.386 . S
C1072 C1067 1.490 . S
C1072 C1074 1.395 . S
C1072 C1075 1.403 . S
H1073 C1079 0.930 . S
C1074 H1060 0.930 . S
C1074 C1072 1.395 . S
C1074 C1077 1.403 . S
C1075 C1072 1.403 . S
C1075 C1076 1.524 . S
C1075 C1079 1.400 . S
C1076 H1061 0.960 . S
C1076 H1062 0.960 . S
C1076 H1063 0.960 . S
C1076 C1075 1.524 . S
C1077 C1074 1.403 . S
C1077 C1078 1.392 . S
C1077 C1081 1.495 . S
C1078 C1077 1.392 . S
C1078 C1079 1.385 . S
C1078 C1080 1.478 . S
C1079 H1073 0.930 . S
C1079 C1075 1.400 . S
C1079 C1078 1.385 . S
C1080 C1078 1.478 . S
C1080 C1082 1.381 . S
C1080 C1086 1.383 . S
C1081 C1077 1.495 . S
C1081 H1087 0.959 . S
C1081 H1088 0.961 . S
C1081 H1089 0.960 . S
C1082 C1080 1.381 . S
C1082 C1083 1.394 . S
C1082 H1090 0.930 . S
C1083 C1082 1.394 . S
C1083 C1084 1.383 . S
C1083 H1091 0.929 . S
C1084 C1083 1.383 . S
C1084 C1085 1.377 . S
C1085 H1069 0.930 . S
C1085 C1084 1.377 . S
C1085 C1086 1.379 . S
C1086 H1070 0.931 . S
C1086 C1080 1.383 . S
C1086 C1085 1.379 . S
H1087 C1081 0.959 . S
H1088 C1081 0.961 . S
H1089 C1081 0.960 . S
H1090 C1082 0.930 . S
H1091 C1083 0.929 . S
H1092 C1100 0.929 . S
H1093 C1102 0.930 . S
H1094 C1104 0.930 . S
H1095 C1107 0.929 . S
H1096 C1110 0.930 . S
H1097 C1112 0.960 . S
H1098 C1112 0.960 . S
H1099 C1112 0.960 . S
C1100 H1092 0.929 . S
C1100 C1101 1.377 . S
C1100 C1102 1.384 . S
C1101 C1100 1.377 . S
C1101 C1107 1.390 . S
C1102 H1093 0.930 . S
C1102 C1100 1.384 . S
C1102 C1103 1.372 . S
C1103 C1102 1.372 . S
C1103 C1104 1.400 . S
C1103 C1108 1.490 . S
C1104 H1094 0.930 . S
C1104 C1103 1.400 . S
C1104 C1107 1.386 . S
H1105 C1121 0.930 . S
H1106 C1122 0.931 . S
C1107 H1095 0.929 . S
C1107 C1101 1.390 . S
C1107 C1104 1.386 . S
C1108 C1103 1.490 . S
C1108 C1110 1.395 . S
C1108 C1111 1.403 . S
H1109 C1115 0.930 . S
C1110 H1096 0.930 . S
C1110 C1108 1.395 . S
C1110 C1113 1.403 . S
C1111 C1108 1.403 . S
C1111 C1112 1.524 . S
C1111 C1115 1.400 . S
C1112 H1097 0.960 . S
C1112 H1098 0.960 . S
C1112 H1099 0.960 . S
C1112 C1111 1.524 . S
C1113 C1110 1.403 . S
C1113 C1114 1.392 . S
C1113 C1117 1.495 . S
C1114 C1113 1.392 . S
C1114 C1115 1.385 . S
C1114 C1116 1.478 . S
C1115 H1109 0.930 . S
C1115 C1111 1.400 . S
C1115 C1114 1.385 . S
C1116 C1114 1.478 . S
C1116 C1118 1.381 . S
C1116 C1122 1.383 . S
C1117 C1113 1.495 . S
C1117 H1123 0.959 . S
C1117 H1124 0.961 . S
C1117 H1125 0.960 . S
C1118 C1116 1.381 . S
C1118 C1119 1.394 . S
C1118 H1126 0.930 . S
C1119 C1118 1.394 . S
C1119 C1120 1.383 . S
C1119 H1127 0.929 . S
C1120 C1119 1.383 . S
C1120 C1121 1.377 . S
C1121 H1105 0.930 . S
C1121 C1120 1.377 . S
C1121 C1122 1.379 . S
C1122 H1106 0.931 . S
C1122 C1116 1.383 . S
C1122 C1121 1.379 . S
H1123 C1117 0.959 . S
H1124 C1117 0.961 . S
H1125 C1117 0.960 . S
H1126 C1118 0.930 . S
H1127 C1119 0.929 . S
H1128 C1136 0.929 . S
H1129 C1138 0.930 . S
H1130 C1140 0.930 . S
H1131 C1143 0.929 1_556 S
H1132 C1146 0.930 . S
H1133 C1148 0.960 . S
H1134 C1148 0.960 . S
H1135 C1148 0.960 . S
C1136 H1128 0.929 . S
C1136 C1137 1.377 1_554 S
C1136 C1138 1.384 . S
C1137 C1136 1.377 1_556 S
C1137 C1143 1.390 1_556 S
C1138 H1129 0.930 . S
C1138 C1136 1.384 . S
C1138 C1139 1.372 . S
C1139 C1138 1.372 . S
C1139 C1140 1.400 . S
C1139 C1144 1.490 . S
C1140 H1130 0.930 . S
C1140 C1139 1.400 . S
C1140 C1143 1.386 . S
H1141 C1157 0.930 . S
H1142 C1158 0.931 . S
C1143 H1131 0.929 1_554 S
C1143 C1137 1.390 1_554 S
C1143 C1140 1.386 . S
C1144 C1139 1.490 . S
C1144 C1146 1.395 . S
C1144 C1147 1.403 . S
H1145 C1151 0.930 . S
C1146 H1132 0.930 . S
C1146 C1144 1.395 . S
C1146 C1149 1.403 . S
C1147 C1144 1.403 . S
C1147 C1148 1.524 . S
C1147 C1151 1.400 . S
C1148 H1133 0.960 . S
C1148 H1134 0.960 . S
C1148 H1135 0.960 . S
C1148 C1147 1.524 . S
C1149 C1146 1.403 . S
C1149 C1150 1.392 . S
C1149 C1153 1.495 . S
C1150 C1149 1.392 . S
C1150 C1151 1.385 . S
C1150 C1152 1.478 . S
C1151 H1145 0.930 . S
C1151 C1147 1.400 . S
C1151 C1150 1.385 . S
C1152 C1150 1.478 . S
C1152 C1154 1.381 . S
C1152 C1158 1.383 . S
C1153 C1149 1.495 . S
C1153 H1159 0.959 . S
C1153 H1160 0.961 . S
C1153 H1161 0.960 . S
C1154 C1152 1.381 . S
C1154 C1155 1.394 . S
C1154 H1162 0.930 . S
C1155 C1154 1.394 . S
C1155 C1156 1.383 . S
C1155 H1163 0.929 . S
C1156 C1155 1.383 . S
C1156 C1157 1.377 . S
C1157 H1141 0.930 . S
C1157 C1156 1.377 . S
C1157 C1158 1.379 . S
C1158 H1142 0.931 . S
C1158 C1152 1.383 . S
C1158 C1157 1.379 . S
H1159 C1153 0.959 . S
H1160 C1153 0.961 . S
H1161 C1153 0.960 . S
H1162 C1154 0.930 . S
H1163 C1155 0.929 . S
H1164 C1172 0.929 . S
H1165 C1174 0.930 . S
H1166 C1176 0.930 . S
H1167 C1179 0.929 . S
H1168 C1182 0.930 . S
H1169 C1184 0.960 . S
H1170 C1184 0.960 . S
H1171 C1184 0.960 . S
C1172 H1164 0.929 . S
C1172 C1173 1.377 . S
C1172 C1174 1.384 . S
C1173 C1172 1.377 . S
C1173 C1179 1.390 . S
C1174 H1165 0.930 . S
C1174 C1172 1.384 . S
C1174 C1175 1.372 . S
C1175 C1174 1.372 . S
C1175 C1176 1.400 . S
C1175 C1180 1.490 . S
C1176 H1166 0.930 . S
C1176 C1175 1.400 . S
C1176 C1179 1.386 . S
H1177 C1193 0.930 . S
H1178 C1194 0.931 . S
C1179 H1167 0.929 . S
C1179 C1173 1.390 . S
C1179 C1176 1.386 . S
C1180 C1175 1.490 . S
C1180 C1182 1.395 . S
C1180 C1183 1.403 . S
H1181 C1187 0.930 . S
C1182 H1168 0.930 . S
C1182 C1180 1.395 . S
C1182 C1185 1.403 . S
C1183 C1180 1.403 . S
C1183 C1184 1.524 . S
C1183 C1187 1.400 . S
C1184 H1169 0.960 . S
C1184 H1170 0.960 . S
C1184 H1171 0.960 . S
C1184 C1183 1.524 . S
C1185 C1182 1.403 . S
C1185 C1186 1.392 . S
C1185 C1189 1.495 . S
C1186 C1185 1.392 . S
C1186 C1187 1.385 . S
C1186 C1188 1.478 . S
C1187 H1181 0.930 . S
C1187 C1183 1.400 . S
C1187 C1186 1.385 . S
C1188 C1186 1.478 . S
C1188 C1190 1.381 . S
C1188 C1194 1.383 . S
C1189 C1185 1.495 . S
C1189 H1195 0.959 . S
C1189 H1196 0.961 . S
C1189 H1197 0.960 . S
C1190 C1188 1.381 . S
C1190 C1191 1.394 . S
C1190 H1198 0.930 . S
C1191 C1190 1.394 . S
C1191 C1192 1.383 . S
C1191 H1199 0.929 . S
C1192 C1191 1.383 . S
C1192 C1193 1.377 . S
C1193 H1177 0.930 . S
C1193 C1192 1.377 . S
C1193 C1194 1.379 . S
C1194 H1178 0.931 . S
C1194 C1188 1.383 . S
C1194 C1193 1.379 . S
H1195 C1189 0.959 . S
H1196 C1189 0.961 . S
H1197 C1189 0.960 . S
H1198 C1190 0.930 . S
H1199 C1191 0.929 . S
H1200 C1208 0.929 . S
H1201 C1210 0.930 . S
H1202 C1212 0.930 . S
H1203 C1215 0.929 . S
H1204 C1218 0.930 . S
H1205 C1220 0.960 . S
H1206 C1220 0.960 . S
H1207 C1220 0.960 . S
C1208 H1200 0.929 . S
C1208 C1209 1.377 . S
C1208 C1210 1.384 . S
C1209 C1208 1.377 . S
C1209 C1215 1.390 . S
C1210 H1201 0.930 . S
C1210 C1208 1.384 . S
C1210 C1211 1.372 . S
C1211 C1210 1.372 . S
C1211 C1212 1.400 . S
C1211 C1216 1.490 . S
C1212 H1202 0.930 . S
C1212 C1211 1.400 . S
C1212 C1215 1.386 . S
H1213 C1229 0.930 . S
H1214 C1230 0.931 . S
C1215 H1203 0.929 . S
C1215 C1209 1.390 . S
C1215 C1212 1.386 . S
C1216 C1211 1.490 . S
C1216 C1218 1.395 . S
C1216 C1219 1.403 . S
H1217 C1223 0.930 . S
C1218 H1204 0.930 . S
C1218 C1216 1.395 . S
C1218 C1221 1.403 . S
C1219 C1216 1.403 . S
C1219 C1220 1.524 . S
C1219 C1223 1.400 . S
C1220 H1205 0.960 . S
C1220 H1206 0.960 . S
C1220 H1207 0.960 . S
C1220 C1219 1.524 . S
C1221 C1218 1.403 . S
C1221 C1222 1.392 . S
C1221 C1225 1.495 . S
C1222 C1221 1.392 . S
C1222 C1223 1.385 . S
C1222 C1224 1.478 . S
C1223 H1217 0.930 . S
C1223 C1219 1.400 . S
C1223 C1222 1.385 . S
C1224 C1222 1.478 . S
C1224 C1226 1.381 . S
C1224 C1230 1.383 . S
C1225 C1221 1.495 . S
C1225 H1231 0.959 . S
C1225 H1232 0.961 . S
C1225 H1233 0.960 . S
C1226 C1224 1.381 . S
C1226 C1227 1.394 . S
C1226 H1234 0.930 . S
C1227 C1226 1.394 . S
C1227 C1228 1.383 . S
C1227 H1235 0.929 . S
C1228 C1227 1.383 . S
C1228 C1229 1.377 . S
C1229 H1213 0.930 . S
C1229 C1228 1.377 . S
C1229 C1230 1.379 . S
C1230 H1214 0.931 . S
C1230 C1224 1.383 . S
C1230 C1229 1.379 . S
H1231 C1225 0.959 . S
H1232 C1225 0.961 . S
H1233 C1225 0.960 . S
H1234 C1226 0.930 . S
H1235 C1227 0.929 . S
H1236 C1244 0.929 . S
H1237 C1246 0.930 . S
H1238 C1248 0.930 . S
H1239 C1251 0.929 . S
H1240 C1254 0.930 . S
H1241 C1256 0.960 . S
H1242 C1256 0.960 . S
H1243 C1256 0.960 . S
C1244 H1236 0.929 . S
C1244 C1245 1.377 . S
C1244 C1246 1.384 . S
C1245 C1244 1.377 . S
C1245 C1251 1.390 . S
C1246 H1237 0.930 . S
C1246 C1244 1.384 . S
C1246 C1247 1.372 . S
C1247 C1246 1.372 . S
C1247 C1248 1.400 . S
C1247 C1252 1.490 . S
C1248 H1238 0.930 . S
C1248 C1247 1.400 . S
C1248 C1251 1.386 . S
H1249 C1265 0.930 . S
H1250 C1266 0.931 . S
C1251 H1239 0.929 . S
C1251 C1245 1.390 . S
C1251 C1248 1.386 . S
C1252 C1247 1.490 . S
C1252 C1254 1.395 . S
C1252 C1255 1.403 . S
H1253 C1259 0.930 . S
C1254 H1240 0.930 . S
C1254 C1252 1.395 . S
C1254 C1257 1.403 . S
C1255 C1252 1.403 . S
C1255 C1256 1.524 . S
C1255 C1259 1.400 . S
C1256 H1241 0.960 . S
C1256 H1242 0.960 . S
C1256 H1243 0.960 . S
C1256 C1255 1.524 . S
C1257 C1254 1.403 . S
C1257 C1258 1.392 . S
C1257 C1261 1.495 . S
C1258 C1257 1.392 . S
C1258 C1259 1.385 . S
C1258 C1260 1.478 . S
C1259 H1253 0.930 . S
C1259 C1255 1.400 . S
C1259 C1258 1.385 . S
C1260 C1258 1.478 . S
C1260 C1262 1.381 . S
C1260 C1266 1.383 . S
C1261 C1257 1.495 . S
C1261 H1267 0.959 . S
C1261 H1268 0.961 . S
C1261 H1269 0.960 . S
C1262 C1260 1.381 . S
C1262 C1263 1.394 . S
C1262 H1270 0.930 . S
C1263 C1262 1.394 . S
C1263 C1264 1.383 . S
C1263 H1271 0.929 . S
C1264 C1263 1.383 . S
C1264 C1265 1.377 . S
C1265 H1249 0.930 . S
C1265 C1264 1.377 . S
C1265 C1266 1.379 . S
C1266 H1250 0.931 . S
C1266 C1260 1.383 . S
C1266 C1265 1.379 . S
H1267 C1261 0.959 . S
H1268 C1261 0.961 . S
H1269 C1261 0.960 . S
H1270 C1262 0.930 . S
H1271 C1263 0.929 . S
H1272 C1280 0.929 . S
H1273 C1282 0.930 . S
H1274 C1284 0.930 . S
H1275 C1287 0.929 . S
H1276 C1290 0.930 . S
H1277 C1292 0.960 . S
H1278 C1292 0.960 . S
H1279 C1292 0.960 . S
C1280 H1272 0.929 . S
C1280 C1281 1.377 . S
C1280 C1282 1.384 . S
C1281 C1280 1.377 . S
C1281 C1287 1.390 . S
C1282 H1273 0.930 . S
C1282 C1280 1.384 . S
C1282 C1283 1.372 . S
C1283 C1282 1.372 . S
C1283 C1284 1.400 . S
C1283 C1288 1.490 . S
C1284 H1274 0.930 . S
C1284 C1283 1.400 . S
C1284 C1287 1.386 . S
H1285 C1301 0.930 . S
H1286 C1302 0.931 . S
C1287 H1275 0.929 . S
C1287 C1281 1.390 . S
C1287 C1284 1.386 . S
C1288 C1283 1.490 . S
C1288 C1290 1.395 . S
C1288 C1291 1.403 . S
H1289 C1295 0.930 . S
C1290 H1276 0.930 . S
C1290 C1288 1.395 . S
C1290 C1293 1.403 . S
C1291 C1288 1.403 . S
C1291 C1292 1.524 . S
C1291 C1295 1.400 . S
C1292 H1277 0.960 . S
C1292 H1278 0.960 . S
C1292 H1279 0.960 . S
C1292 C1291 1.524 . S
C1293 C1290 1.403 . S
C1293 C1294 1.392 . S
C1293 C1297 1.495 . S
C1294 C1293 1.392 . S
C1294 C1295 1.385 . S
C1294 C1296 1.478 . S
C1295 H1289 0.930 . S
C1295 C1291 1.400 . S
C1295 C1294 1.385 . S
C1296 C1294 1.478 . S
C1296 C1298 1.381 . S
C1296 C1302 1.383 . S
C1297 C1293 1.495 . S
C1297 H1303 0.959 . S
C1297 H1304 0.961 . S
C1297 H1305 0.960 . S
C1298 C1296 1.381 . S
C1298 C1299 1.394 . S
C1298 H1306 0.930 . S
C1299 C1298 1.394 . S
C1299 C1300 1.383 . S
C1299 H1307 0.929 . S
C1300 C1299 1.383 . S
C1300 C1301 1.377 . S
C1301 H1285 0.930 . S
C1301 C1300 1.377 . S
C1301 C1302 1.379 . S
C1302 H1286 0.931 . S
C1302 C1296 1.383 . S
C1302 C1301 1.379 . S
H1303 C1297 0.959 . S
H1304 C1297 0.961 . S
H1305 C1297 0.960 . S
H1306 C1298 0.930 . S
H1307 C1299 0.929 . S
H1308 C1316 0.929 . S
H1309 C1318 0.930 . S
H1310 C1320 0.930 . S
H1311 C1323 0.929 . S
H1312 C1326 0.930 . S
H1313 C1328 0.960 . S
H1314 C1328 0.960 . S
H1315 C1328 0.960 . S
C1316 H1308 0.929 . S
C1316 C1317 1.377 . S
C1316 C1318 1.384 . S
C1317 C1316 1.377 . S
C1317 C1323 1.390 . S
C1318 H1309 0.930 . S
C1318 C1316 1.384 . S
C1318 C1319 1.372 . S
C1319 C1318 1.372 . S
C1319 C1320 1.400 . S
C1319 C1324 1.490 . S
C1320 H1310 0.930 . S
C1320 C1319 1.400 . S
C1320 C1323 1.386 . S
H1321 C1337 0.930 1_455 S
H1322 C1338 0.931 . S
C1323 H1311 0.929 . S
C1323 C1317 1.390 . S
C1323 C1320 1.386 . S
C1324 C1319 1.490 . S
C1324 C1326 1.395 . S
C1324 C1327 1.403 . S
H1325 C1331 0.930 . S
C1326 H1312 0.930 . S
C1326 C1324 1.395 . S
C1326 C1329 1.403 . S
C1327 C1324 1.403 . S
C1327 C1328 1.524 . S
C1327 C1331 1.400 . S
C1328 H1313 0.960 . S
C1328 H1314 0.960 . S
C1328 H1315 0.960 . S
C1328 C1327 1.524 . S
C1329 C1326 1.403 . S
C1329 C1330 1.392 . S
C1329 C1333 1.495 . S
C1330 C1329 1.392 . S
C1330 C1331 1.385 . S
C1330 C1332 1.478 . S
C1331 H1325 0.930 . S
C1331 C1327 1.400 . S
C1331 C1330 1.385 . S
C1332 C1330 1.478 . S
C1332 C1334 1.381 . S
C1332 C1338 1.383 . S
C1333 C1329 1.495 . S
C1333 H1339 0.959 . S
C1333 H1340 0.961 . S
C1333 H1341 0.960 . S
C1334 C1332 1.381 . S
C1334 C1335 1.394 . S
C1334 H1342 0.930 . S
C1335 C1334 1.394 . S
C1335 C1336 1.383 . S
C1335 H1343 0.929 . S
C1336 C1335 1.383 . S
C1336 C1337 1.377 . S
C1337 H1321 0.930 1_655 S
C1337 C1336 1.377 . S
C1337 C1338 1.379 . S
C1338 H1322 0.931 . S
C1338 C1332 1.383 . S
C1338 C1337 1.379 . S
H1339 C1333 0.959 . S
H1340 C1333 0.961 . S
H1341 C1333 0.960 . S
H1342 C1334 0.930 . S
H1343 C1335 0.929 . S
H1344 C1352 0.929 . S
H1345 C1354 0.930 . S
H1346 C1356 0.930 . S
H1347 C1359 0.929 . S
H1348 C1362 0.930 . S
H1349 C1364 0.960 . S
H1350 C1364 0.960 . S
H1351 C1364 0.960 . S
C1352 H1344 0.929 . S
C1352 C1353 1.377 . S
C1352 C1354 1.384 . S
C1353 C1352 1.377 . S
C1353 C1359 1.390 . S
C1354 H1345 0.930 . S
C1354 C1352 1.384 . S
C1354 C1355 1.372 . S
C1355 C1354 1.372 . S
C1355 C1356 1.400 . S
C1355 C1360 1.490 . S
C1356 H1346 0.930 . S
C1356 C1355 1.400 . S
C1356 C1359 1.386 . S
H1357 C1373 0.930 . S
H1358 C1374 0.931 . S
C1359 H1347 0.929 . S
C1359 C1353 1.390 . S
C1359 C1356 1.386 . S
C1360 C1355 1.490 . S
C1360 C1362 1.395 . S
C1360 C1363 1.403 . S
H1361 C1367 0.930 . S
C1362 H1348 0.930 . S
C1362 C1360 1.395 . S
C1362 C1365 1.403 . S
C1363 C1360 1.403 . S
C1363 C1364 1.524 . S
C1363 C1367 1.400 . S
C1364 H1349 0.960 . S
C1364 H1350 0.960 . S
C1364 H1351 0.960 . S
C1364 C1363 1.524 . S
C1365 C1362 1.403 . S
C1365 C1366 1.392 . S
C1365 C1369 1.495 . S
C1366 C1365 1.392 . S
C1366 C1367 1.385 . S
C1366 C1368 1.478 . S
C1367 H1361 0.930 . S
C1367 C1363 1.400 . S
C1367 C1366 1.385 . S
C1368 C1366 1.478 . S
C1368 C1370 1.381 . S
C1368 C1374 1.383 . S
C1369 C1365 1.495 . S
C1369 H1375 0.959 . S
C1369 H1376 0.961 . S
C1369 H1377 0.960 . S
C1370 C1368 1.381 . S
C1370 C1371 1.394 . S
C1370 H1378 0.930 . S
C1371 C1370 1.394 . S
C1371 C1372 1.383 . S
C1371 H1379 0.929 . S
C1372 C1371 1.383 . S
C1372 C1373 1.377 . S
C1373 H1357 0.930 . S
C1373 C1372 1.377 . S
C1373 C1374 1.379 . S
C1374 H1358 0.931 . S
C1374 C1368 1.383 . S
C1374 C1373 1.379 . S
H1375 C1369 0.959 . S
H1376 C1369 0.961 . S
H1377 C1369 0.960 . S
H1378 C1370 0.930 . S
H1379 C1371 0.929 . S
H1380 C1388 0.929 . S
H1381 C1390 0.930 . S
H1382 C1392 0.930 . S
H1383 C1395 0.929 . S
H1384 C1398 0.930 . S
H1385 C1400 0.960 . S
H1386 C1400 0.960 . S
H1387 C1400 0.960 . S
C1388 H1380 0.929 . S
C1388 C1389 1.377 . S
C1388 C1390 1.384 . S
C1389 C1388 1.377 . S
C1389 C1395 1.390 . S
C1390 H1381 0.930 . S
C1390 C1388 1.384 . S
C1390 C1391 1.372 . S
C1391 C1390 1.372 . S
C1391 C1392 1.400 . S
C1391 C1396 1.490 . S
C1392 H1382 0.930 . S
C1392 C1391 1.400 . S
C1392 C1395 1.386 . S
H1393 C1409 0.930 . S
H1394 C1410 0.931 . S
C1395 H1383 0.929 . S
C1395 C1389 1.390 . S
C1395 C1392 1.386 . S
C1396 C1391 1.490 . S
C1396 C1398 1.395 . S
C1396 C1399 1.403 . S
H1397 C1403 0.930 . S
C1398 H1384 0.930 . S
C1398 C1396 1.395 . S
C1398 C1401 1.403 . S
C1399 C1396 1.403 . S
C1399 C1400 1.524 . S
C1399 C1403 1.400 . S
C1400 H1385 0.960 . S
C1400 H1386 0.960 . S
C1400 H1387 0.960 . S
C1400 C1399 1.524 . S
C1401 C1398 1.403 . S
C1401 C1402 1.392 . S
C1401 C1405 1.495 . S
C1402 C1401 1.392 . S
C1402 C1403 1.385 . S
C1402 C1404 1.478 . S
C1403 H1397 0.930 . S
C1403 C1399 1.400 . S
C1403 C1402 1.385 . S
C1404 C1402 1.478 . S
C1404 C1406 1.381 . S
C1404 C1410 1.383 . S
C1405 C1401 1.495 . S
C1405 H1411 0.959 . S
C1405 H1412 0.961 . S
C1405 H1413 0.960 . S
C1406 C1404 1.381 . S
C1406 C1407 1.394 . S
C1406 H1414 0.930 . S
C1407 C1406 1.394 . S
C1407 C1408 1.383 . S
C1407 H1415 0.929 . S
C1408 C1407 1.383 . S
C1408 C1409 1.377 . S
C1409 H1393 0.930 . S
C1409 C1408 1.377 . S
C1409 C1410 1.379 . S
C1410 H1394 0.931 . S
C1410 C1404 1.383 . S
C1410 C1409 1.379 . S
H1411 C1405 0.959 . S
H1412 C1405 0.961 . S
H1413 C1405 0.960 . S
H1414 C1406 0.930 . S
H1415 C1407 0.929 . S
H1416 C1424 0.929 . S
H1417 C1426 0.930 . S
H1418 C1428 0.930 . S
H1419 C1431 0.929 . S
H1420 C1434 0.930 . S
H1421 C1436 0.960 . S
H1422 C1436 0.960 . S
H1423 C1436 0.960 . S
C1424 H1416 0.929 . S
C1424 C1425 1.377 . S
C1424 C1426 1.384 . S
C1425 C1424 1.377 . S
C1425 C1431 1.390 . S
C1426 H1417 0.930 . S
C1426 C1424 1.384 . S
C1426 C1427 1.372 . S
C1427 C1426 1.372 . S
C1427 C1428 1.400 . S
C1427 C1432 1.490 . S
C1428 H1418 0.930 . S
C1428 C1427 1.400 . S
C1428 C1431 1.386 . S
H1429 C1445 0.930 . S
H1430 C1446 0.931 . S
C1431 H1419 0.929 . S
C1431 C1425 1.390 . S
C1431 C1428 1.386 . S
C1432 C1427 1.490 . S
C1432 C1434 1.395 . S
C1432 C1435 1.403 . S
H1433 C1439 0.930 . S
C1434 H1420 0.930 . S
C1434 C1432 1.395 . S
C1434 C1437 1.403 . S
C1435 C1432 1.403 . S
C1435 C1436 1.524 . S
C1435 C1439 1.400 . S
C1436 H1421 0.960 . S
C1436 H1422 0.960 . S
C1436 H1423 0.960 . S
C1436 C1435 1.524 . S
C1437 C1434 1.403 . S
C1437 C1438 1.392 . S
C1437 C1441 1.495 . S
C1438 C1437 1.392 . S
C1438 C1439 1.385 . S
C1438 C1440 1.478 . S
C1439 H1433 0.930 . S
C1439 C1435 1.400 . S
C1439 C1438 1.385 . S
C1440 C1438 1.478 . S
C1440 C1442 1.381 . S
C1440 C1446 1.383 . S
C1441 C1437 1.495 . S
C1441 H1447 0.959 . S
C1441 H1448 0.961 . S
C1441 H1449 0.960 . S
C1442 C1440 1.381 . S
C1442 C1443 1.394 . S
C1442 H1450 0.930 . S
C1443 C1442 1.394 . S
C1443 C1444 1.383 . S
C1443 H1451 0.929 . S
C1444 C1443 1.383 . S
C1444 C1445 1.377 . S
C1445 H1429 0.930 . S
C1445 C1444 1.377 . S
C1445 C1446 1.379 . S
C1446 H1430 0.931 . S
C1446 C1440 1.383 . S
C1446 C1445 1.379 . S
H1447 C1441 0.959 . S
H1448 C1441 0.961 . S
H1449 C1441 0.960 . S
H1450 C1442 0.930 . S
H1451 C1443 0.929 . S
H1452 C1460 0.929 . S
H1453 C1462 0.930 . S
H1454 C1464 0.930 . S
H1455 C1467 0.929 . S
H1456 C1470 0.930 . S
H1457 C1472 0.960 . S
H1458 C1472 0.960 . S
H1459 C1472 0.960 . S
C1460 H1452 0.929 . S
C1460 C1461 1.377 . S
C1460 C1462 1.384 . S
C1461 C1460 1.377 . S
C1461 C1467 1.390 . S
C1462 H1453 0.930 . S
C1462 C1460 1.384 . S
C1462 C1463 1.372 . S
C1463 C1462 1.372 . S
C1463 C1464 1.400 . S
C1463 C1468 1.490 . S
C1464 H1454 0.930 . S
C1464 C1463 1.400 . S
C1464 C1467 1.386 . S
H1465 C1481 0.930 . S
H1466 C1482 0.931 . S
C1467 H1455 0.929 . S
C1467 C1461 1.390 . S
C1467 C1464 1.386 . S
C1468 C1463 1.490 . S
C1468 C1470 1.395 . S
C1468 C1471 1.403 . S
H1469 C1475 0.930 . S
C1470 H1456 0.930 . S
C1470 C1468 1.395 . S
C1470 C1473 1.403 . S
C1471 C1468 1.403 . S
C1471 C1472 1.524 . S
C1471 C1475 1.400 . S
C1472 H1457 0.960 . S
C1472 H1458 0.960 . S
C1472 H1459 0.960 . S
C1472 C1471 1.524 . S
C1473 C1470 1.403 . S
C1473 C1474 1.392 . S
C1473 C1477 1.495 . S
C1474 C1473 1.392 . S
C1474 C1475 1.385 . S
C1474 C1476 1.478 . S
C1475 H1469 0.930 . S
C1475 C1471 1.400 . S
C1475 C1474 1.385 . S
C1476 C1474 1.478 . S
C1476 C1478 1.381 . S
C1476 C1482 1.383 . S
C1477 C1473 1.495 . S
C1477 H1483 0.959 . S
C1477 H1484 0.961 . S
C1477 H1485 0.960 . S
C1478 C1476 1.381 . S
C1478 C1479 1.394 . S
C1478 H1486 0.930 . S
C1479 C1478 1.394 . S
C1479 C1480 1.383 . S
C1479 H1487 0.929 . S
C1480 C1479 1.383 . S
C1480 C1481 1.377 . S
C1481 H1465 0.930 . S
C1481 C1480 1.377 . S
C1481 C1482 1.379 . S
C1482 H1466 0.931 . S
C1482 C1476 1.383 . S
C1482 C1481 1.379 . S
H1483 C1477 0.959 . S
H1484 C1477 0.961 . S
H1485 C1477 0.960 . S
H1486 C1478 0.930 . S
H1487 C1479 0.929 . S
C633 C247 1.473 . S
C652 C362 1.445 . S
C688 C446 1.466 . S
C669 C283 1.473 . S
C724 C439 1.463 . S
C705 C175 1.463 . S
C741 C211 1.463 . S
C760 C355 1.458 . S
C796 C519 1.460 . S
C777 C103 1.461 . S
C832 C603 1.437 . S
C813 C139 1.458 . S
C849 C31 1.449 . S
C868 C596 1.463 . S
C885 C67 1.448 . S
C904 C512 1.463 . S
C940 C346 1.295 . S
C921 C37 1.507 1_554 S
C976 C430 1.325 . S
C957 C1 1.507 . S
C1012 C441 1.389 . S
C993 C109 1.534 . S
C1048 C357 1.365 . S
C1029 C73 1.537 . S
C1084 C525 1.346 . S
C1065 C181 1.521 1_556 S
C1101 C145 1.520 . S
C1120 C609 1.386 . S
C1156 C598 1.381 . S
C1137 C253 1.545 . S
C1173 C217 1.544 . S
C1192 C514 1.379 . S
C1228 C344 1.593 . S
C1209 C25 1.572 . S
C1264 C428 1.587 . S
C1245 C61 1.569 . S
C1281 C97 1.556 . S
C1300 C435 1.569 . S
C1336 C351 1.573 . S
C1317 C133 1.555 . S
C1372 C523 1.588 . S
C1353 C169 1.587 . S
C1389 C205 1.584 . S
C1408 C607 1.592 . S
C1425 C241 1.571 . S
C1444 C614 1.573 . S
C1461 C277 1.572 . S
C1480 C530 1.572 . S
