# Generated by pormake.
# Topology pto, (3,4)-cn, num edge types: 1
# Building blocks:
#     Node 0, Type 0, BuildingBlock: ESEHIV_clean_linker_0, # of connection points: 3
#     Node 1, Type 0, BuildingBlock: ESEHIV_clean_linker_0, # of connection points: 3
#     Node 2, Type 0, BuildingBlock: ESEHIV_clean_linker_0, # of connection points: 3
#     Node 3, Type 0, BuildingBlock: ESEHIV_clean_linker_0, # of connection points: 3
#     Node 4, Type 0, BuildingBlock: ESEHIV_clean_linker_0, # of connection points: 3
#     Node 5, Type 0, BuildingBlock: ESEHIV_clean_linker_0, # of connection points: 3
#     Node 6, Type 0, BuildingBlock: ESEHIV_clean_linker_0, # of connection points: 3
#     Node 7, Type 0, BuildingBlock: ESEHIV_clean_linker_0, # of connection points: 3
#     Node 8, Type 1, BuildingBlock: KOZSID_clean_sbu_0, # of connection points: 4
#     Node 9, Type 1, BuildingBlock: KOZSID_clean_sbu_0, # of connection points: 4
#     Node 10, Type 1, BuildingBlock: KOZSID_clean_sbu_0, # of connection points: 4
#     Node 11, Type 1, BuildingBlock: KOZSID_clean_sbu_0, # of connection points: 4
#     Node 12, Type 1, BuildingBlock: KOZSID_clean_sbu_0, # of connection points: 4
#     Node 13, Type 1, BuildingBlock: KOZSID_clean_sbu_0, # of connection points: 4
#     Edge 14, Type (0, 1), BuildingBlock: MIFKUJ_clean_linker_0, # of connection points: 2
#     Edge 15, Type (0, 1), BuildingBlock: MIFKUJ_clean_linker_0, # of connection points: 2
#     Edge 16, Type (0, 1), BuildingBlock: MIFKUJ_clean_linker_0, # of connection points: 2
#     Edge 17, Type (0, 1), BuildingBlock: MIFKUJ_clean_linker_0, # of connection points: 2
#     Edge 18, Type (0, 1), BuildingBlock: MIFKUJ_clean_linker_0, # of connection points: 2
#     Edge 19, Type (0, 1), BuildingBlock: MIFKUJ_clean_linker_0, # of connection points: 2
#     Edge 20, Type (0, 1), BuildingBlock: MIFKUJ_clean_linker_0, # of connection points: 2
#     Edge 21, Type (0, 1), BuildingBlock: MIFKUJ_clean_linker_0, # of connection points: 2
#     Edge 22, Type (0, 1), BuildingBlock: MIFKUJ_clean_linker_0, # of connection points: 2
#     Edge 23, Type (0, 1), BuildingBlock: MIFKUJ_clean_linker_0, # of connection points: 2
#     Edge 24, Type (0, 1), BuildingBlock: MIFKUJ_clean_linker_0, # of connection points: 2
#     Edge 25, Type (0, 1), BuildingBlock: MIFKUJ_clean_linker_0, # of connection points: 2
#     Edge 26, Type (0, 1), BuildingBlock: MIFKUJ_clean_linker_0, # of connection points: 2
#     Edge 27, Type (0, 1), BuildingBlock: MIFKUJ_clean_linker_0, # of connection points: 2
#     Edge 28, Type (0, 1), BuildingBlock: MIFKUJ_clean_linker_0, # of connection points: 2
#     Edge 29, Type (0, 1), BuildingBlock: MIFKUJ_clean_linker_0, # of connection points: 2
#     Edge 30, Type (0, 1), BuildingBlock: MIFKUJ_clean_linker_0, # of connection points: 2
#     Edge 31, Type (0, 1), BuildingBlock: MIFKUJ_clean_linker_0, # of connection points: 2
#     Edge 32, Type (0, 1), BuildingBlock: MIFKUJ_clean_linker_0, # of connection points: 2
#     Edge 33, Type (0, 1), BuildingBlock: MIFKUJ_clean_linker_0, # of connection points: 2
#     Edge 34, Type (0, 1), BuildingBlock: MIFKUJ_clean_linker_0, # of connection points: 2
#     Edge 35, Type (0, 1), BuildingBlock: MIFKUJ_clean_linker_0, # of connection points: 2
#     Edge 36, Type (0, 1), BuildingBlock: MIFKUJ_clean_linker_0, # of connection points: 2
#     Edge 37, Type (0, 1), BuildingBlock: MIFKUJ_clean_linker_0, # of connection points: 2
# Relax obj value: 0.000
# Max RMSD: 0.023
# Mean RMSD: 0.010
data_MOF--net-pto--node1-KOZSID_clean_sbu_0--node2-ESEHIV_clean_linker_0--edge1-MIFKUJ_clean_linker_0
_symmetry_space_group_name_H-M    P1
_symmetry_Int_Tables_number       1
_symmetry_cell_setting            triclinic
loop_
_symmetry_equiv_pos_as_xyz
'x, y, z'
_cell_length_a     47.352528
_cell_length_b     63.918577
_cell_length_c     55.726243
_cell_angle_alpha  88.082
_cell_angle_beta   87.351516
_cell_angle_gamma 92.559811
loop_
_atom_site_label
_atom_site_type_symbol
_atom_site_fract_x
_atom_site_fract_y
_atom_site_fract_z
_atom_type_partial_charge
H0 H 0.27528 0.28901 0.27758 0.0
H1 H 0.29178 0.22444 0.29272 0.0
H2 H 0.2326 0.25598 0.33827 0.0
C3 C 0.27185 0.27491 0.2889 0.0
C4 C 0.25246 0.27466 0.30875 0.0
C5 C 0.28567 0.25671 0.28281 0.0
C6 C 0.2806 0.23833 0.29715 0.0
C7 C 0.26185 0.23798 0.31749 0.0
C8 C 0.24763 0.25619 0.32298 0.0
H9 H 0.25595 0.73629 0.75196 0.0
H10 H 0.27553 0.80169 0.73629 0.0
H11 H 0.22092 0.76657 0.69089 0.0
C12 C 0.25402 0.75017 0.74053 0.0
C13 C 0.23639 0.74936 0.72098 0.0
C14 C 0.26818 0.76902 0.74609 0.0
C15 C 0.26482 0.78713 0.73173 0.0
C16 C 0.24797 0.78652 0.71158 0.0
C17 C 0.23372 0.7675 0.70647 0.0
H18 H 0.74091 0.79556 0.2926 0.0
H19 H 0.807 0.76604 0.32987 0.0
H20 H 0.76914 0.73581 0.2706 0.0
C21 C 0.75437 0.78244 0.29505 0.0
C22 C 0.75279 0.7657 0.27943 0.0
C23 C 0.77413 0.78281 0.3131 0.0
C24 C 0.79203 0.76601 0.31571 0.0
C25 C 0.78997 0.74882 0.30074 0.0
C26 C 0.77048 0.74886 0.2825 0.0
H27 H 0.7435 0.23658 0.75057 0.0
H28 H 0.81001 0.26989 0.70753 0.0
H29 H 0.77271 0.29811 0.76955 0.0
C30 C 0.75747 0.25032 0.74697 0.0
C31 C 0.75628 0.26702 0.76268 0.0
C32 C 0.77674 0.25111 0.7269 0.0
C33 C 0.79451 0.26922 0.72249 0.0
C34 C 0.79321 0.28624 0.73776 0.0
C35 C 0.77412 0.28494 0.75786 0.0
H36 H 0.74316 0.80436 0.74232 0.0
H37 H 0.76137 0.74038 0.75827 0.0
H38 H 0.79723 0.77176 0.6935 0.0
C39 C 0.75394 0.79036 0.73756 0.0
C40 C 0.77079 0.79026 0.71615 0.0
C41 C 0.75006 0.77226 0.75249 0.0
C42 C 0.76369 0.75406 0.74619 0.0
C43 C 0.78107 0.75369 0.72506 0.0
C44 C 0.78418 0.77185 0.70998 0.0
H45 H 0.75341 0.22856 0.29964 0.0
H46 H 0.78083 0.29171 0.27867 0.0
H47 H 0.81846 0.26066 0.33807 0.0
C48 C 0.76702 0.2423 0.30227 0.0
C49 C 0.78628 0.24225 0.32076 0.0
C50 C 0.76528 0.25998 0.28694 0.0
C51 C 0.78231 0.27799 0.29046 0.0
C52 C 0.80126 0.27838 0.30907 0.0
C53 C 0.80345 0.26041 0.32396 0.0
H54 H 0.22731 0.26311 0.70351 0.0
H55 H 0.29069 0.23174 0.74245 0.0
H56 H 0.25999 0.28965 0.76717 0.0
C57 C 0.24129 0.26239 0.71832 0.0
C58 C 0.24207 0.27883 0.73453 0.0
C59 C 0.25841 0.24507 0.72111 0.0
C60 C 0.27678 0.24461 0.74025 0.0
C61 C 0.27716 0.26054 0.75691 0.0
C62 C 0.25968 0.27747 0.7541 0.0
H63 H 0.22433 0.75752 0.32672 0.0
H64 H 0.26301 0.73168 0.26367 0.0
H65 H 0.28559 0.79482 0.2823 0.0
C66 C 0.2389 0.75921 0.31112 0.0
C67 C 0.25459 0.7782 0.30638 0.0
C68 C 0.24183 0.74242 0.29574 0.0
C69 C 0.26075 0.74462 0.2756 0.0
C70 C 0.27668 0.76345 0.27071 0.0
C71 C 0.27345 0.7802 0.28612 0.0
C72 C 0.06062 0.5419 0.35174 0.0
C73 C 0.06685 0.55027 0.37369 0.0
C74 C 0.05028 0.53929 0.39083 0.0
C75 C 0.03464 0.52511 0.37847 0.0
N76 N 0.04054 0.52607 0.35447 0.0
Co77 Co 0.01955 0.51047 0.32964 0.0
N78 N 0.99433 0.49498 0.35485 0.0
C79 C 0.9958 0.49619 0.37893 0.0
C80 C 0.97741 0.48242 0.39178 0.0
C81 C 0.96376 0.47139 0.37489 0.0
C82 C 0.97456 0.47924 0.35264 0.0
N83 N 0.99738 0.49603 0.30471 0.0
C84 C 0.97615 0.48111 0.30727 0.0
C85 C 0.96613 0.47558 0.28523 0.0
C86 C 0.98209 0.48712 0.26809 0.0
C87 C 0.00071 0.49909 0.28061 0.0
N88 N 0.04594 0.52474 0.3045 0.0
C89 C 0.04659 0.52156 0.28061 0.0
C90 C 0.06798 0.53282 0.26794 0.0
C91 C 0.0816 0.54405 0.28471 0.0
C92 C 0.06738 0.53918 0.30668 0.0
N93 N 0.04565 0.48705 0.33123 0.0
C94 C 0.08098 0.45287 0.33348 0.0
C95 C 0.06811 0.45822 0.31229 0.0
C96 C 0.05096 0.47536 0.31147 0.0
C97 C 0.07633 0.46502 0.35349 0.0
C98 C 0.05843 0.48182 0.35208 0.0
N99 N 0.99349 0.53395 0.32798 0.0
C100 C 0.9755 0.56336 0.30596 0.0
C101 C 0.95938 0.56888 0.32613 0.0
C102 C 0.95999 0.55641 0.34711 0.0
C103 C 0.97727 0.53923 0.34771 0.0
C104 C 0.99196 0.54583 0.30715 0.0
H105 H 0.9774 0.53066 0.36446 0.0
H106 H 0.00341 0.54233 0.29098 0.0
H107 H 0.04218 0.47875 0.2946 0.0
H108 H 0.05507 0.49022 0.36812 0.0
C109 C 0.01432 0.5107 0.38884 0.0
C110 C 0.07353 0.54992 0.3287 0.0
C111 C 0.96626 0.47072 0.32996 0.0
C112 C 0.02448 0.51034 0.27037 0.0
H113 H 0.0814 0.56322 0.37709 0.0
H114 H 0.04933 0.54165 0.41 0.0
H115 H 0.97454 0.48044 0.41112 0.0
H116 H 0.94797 0.45879 0.37854 0.0
H117 H 0.94973 0.46382 0.2819 0.0
H118 H 0.98129 0.48602 0.24879 0.0
H119 H 0.07235 0.53353 0.24869 0.0
H120 H 0.0993 0.55518 0.28104 0.0
H121 H 0.07151 0.44931 0.29628 0.0
H122 H 0.08594 0.46129 0.37028 0.0
H123 H 0.97524 0.57248 0.28922 0.0
H124 H 0.94774 0.5602 0.36315 0.0
C125 C 0.05529 0.55011 0.72372 0.0
C126 C 0.06253 0.55759 0.74583 0.0
C127 C 0.04636 0.54615 0.76287 0.0
C128 C 0.03023 0.53244 0.75025 0.0
N129 N 0.03544 0.53415 0.72617 0.0
Co130 Co 0.01528 0.51833 0.70103 0.0
N131 N 0.99122 0.5017 0.72611 0.0
C132 C 0.99245 0.50278 0.75025 0.0
C133 C 0.97439 0.48863 0.76288 0.0
C134 C 0.96122 0.47752 0.7458 0.0
C135 C 0.9721 0.4856 0.72367 0.0
N136 N 0.99411 0.5033 0.67588 0.0
C137 C 0.97383 0.48763 0.67825 0.0
C138 C 0.9647 0.4816 0.65609 0.0
C139 C 0.97998 0.49377 0.6391 0.0
C140 C 0.99746 0.50649 0.65179 0.0
N141 N 0.04039 0.53415 0.676 0.0
C142 C 0.04062 0.53185 0.65196 0.0
C143 C 0.06031 0.54479 0.63934 0.0
C144 C 0.07334 0.55614 0.65633 0.0
C145 C 0.06072 0.54945 0.6784 0.0
N146 N 0.04306 0.49596 0.70198 0.0
C147 C 0.07885 0.462 0.70416 0.0
C148 C 0.06759 0.46826 0.68252 0.0
C149 C 0.05018 0.48533 0.68176 0.0
C150 C 0.07262 0.47334 0.72454 0.0
C151 C 0.05468 0.49005 0.72311 0.0
N152 N 0.98742 0.54068 0.70011 0.0
C153 C 0.96477 0.56828 0.67847 0.0
C154 C 0.94973 0.57358 0.69934 0.0
C155 C 0.95351 0.56198 0.72051 0.0
C156 C 0.9724 0.54582 0.72053 0.0
C157 C 0.98316 0.55178 0.67919 0.0
H158 H 0.9747 0.53792 0.73739 0.0
H159 H 0.9938 0.54841 0.66261 0.0
H160 H 0.04246 0.48945 0.66465 0.0
H161 H 0.05015 0.49768 0.73944 0.0
C162 C 0.01051 0.51747 0.76048 0.0
C163 C 0.06749 0.55898 0.70093 0.0
C164 C 0.96413 0.47706 0.70089 0.0
C165 C 0.01981 0.51936 0.64166 0.0
H166 H 0.07778 0.57013 0.74924 0.0
H167 H 0.04625 0.54772 0.78216 0.0
H168 H 0.97136 0.48651 0.7822 0.0
H169 H 0.94562 0.46474 0.74923 0.0
H170 H 0.9493 0.4692 0.65255 0.0
H171 H 0.97938 0.49276 0.61978 0.0
H172 H 0.06394 0.54641 0.62004 0.0
H173 H 0.08968 0.56839 0.65282 0.0
H174 H 0.07225 0.46005 0.66621 0.0
H175 H 0.08085 0.46894 0.74173 0.0
H176 H 0.96224 0.57673 0.66158 0.0
H177 H 0.94246 0.56568 0.73719 0.0
C178 C 0.26272 0.98075 0.54755 0.0
C179 C 0.289 0.97308 0.55225 0.0
C180 C 0.30858 0.98473 0.53823 0.0
C181 C 0.29327 0.99857 0.52553 0.0
N182 N 0.26507 0.9967 0.53077 0.0
Co183 Co 0.23497 0.01159 0.5137 0.0
N184 N 0.26388 0.02842 0.49279 0.0
C185 C 0.29232 0.02827 0.494 0.0
C186 C 0.30674 0.04257 0.47855 0.0
C187 C 0.28626 0.05273 0.46704 0.0
C188 C 0.26046 0.0439 0.47612 0.0
N189 N 0.20482 0.02538 0.49557 0.0
C190 C 0.20704 0.04021 0.47755 0.0
C191 C 0.18073 0.04512 0.46957 0.0
C192 C 0.16114 0.03313 0.48326 0.0
C193 C 0.17656 0.02156 0.49866 0.0
N194 N 0.20612 0.99589 0.53568 0.0
C195 C 0.17782 0.99804 0.5364 0.0
C196 C 0.16347 0.98612 0.55428 0.0
C197 C 0.1838 0.9756 0.56557 0.0
C198 C 0.20946 0.98151 0.55362 0.0
N199 N 0.23593 0.03458 0.53681 0.0
C200 C 0.23819 0.0687 0.56747 0.0
C201 C 0.21302 0.06261 0.55705 0.0
C202 C 0.21227 0.04549 0.54211 0.0
C203 C 0.26206 0.05722 0.5627 0.0
C204 C 0.26055 0.04044 0.54732 0.0
N205 N 0.23409 0.98861 0.49058 0.0
C206 C 0.20981 0.95884 0.47363 0.0
C207 C 0.23417 0.95425 0.45999 0.0
C208 C 0.25819 0.9676 0.46148 0.0
C209 C 0.25776 0.98441 0.47681 0.0
C210 C 0.21016 0.97605 0.48848 0.0
H211 H 0.27698 0.99364 0.4773 0.0
H212 H 0.19084 0.97871 0.49832 0.0
H213 H 0.19232 0.0415 0.53495 0.0
H214 H 0.2797 0.03265 0.54398 0.0
C215 C 0.30479 0.01379 0.50894 0.0
C216 C 0.23611 0.97215 0.55908 0.0
C217 C 0.23333 0.05095 0.46854 0.0
C218 C 0.16518 0.00941 0.51832 0.0
H219 H 0.29371 0.96021 0.56428 0.0
H220 H 0.33126 0.98312 0.53721 0.0
H221 H 0.32942 0.04525 0.47595 0.0
H222 H 0.28987 0.06526 0.45354 0.0
H223 H 0.17617 0.05666 0.45579 0.0
H224 H 0.13833 0.03349 0.48277 0.0
H225 H 0.14083 0.9847 0.55814 0.0
H226 H 0.18005 0.9644 0.5805 0.0
H227 H 0.19391 0.07094 0.56055 0.0
H228 H 0.28206 0.06149 0.57034 0.0
H229 H 0.19064 0.949 0.47332 0.0
H230 H 0.27741 0.96519 0.45083 0.0
C231 C 0.47173 0.79406 0.04634 0.0
C232 C 0.46545 0.81348 0.0552 0.0
C233 C 0.48225 0.82807 0.04228 0.0
C234 C 0.49804 0.81683 0.02656 0.0
N235 N 0.49213 0.79593 0.02835 0.0
Co236 Co 0.51322 0.7738 0.01133 0.0
N237 N 0.53824 0.79535 0.99258 0.0
C238 C 0.53666 0.8164 0.99326 0.0
C239 C 0.55448 0.82725 0.97676 0.0
C240 C 0.56805 0.81225 0.96451 0.0
C241 C 0.55798 0.793 0.97455 0.0
N242 N 0.53525 0.75165 0.99538 0.0
C243 C 0.55686 0.75341 0.97851 0.0
C244 C 0.56728 0.73401 0.97338 0.0
C245 C 0.55118 0.71944 0.98702 0.0
C246 C 0.53215 0.73073 0.99986 0.0
N247 N 0.4871 0.75225 0.02882 0.0
C248 C 0.48693 0.73126 0.02643 0.0
C249 C 0.46569 0.7205 0.03982 0.0
C250 C 0.4516 0.7355 0.05168 0.0
C251 C 0.4654 0.7546 0.04507 0.0
N252 N 0.48686 0.77429 0.98469 0.0
C253 C 0.45067 0.77495 0.94588 0.0
C254 C 0.46121 0.75619 0.95448 0.0
C255 C 0.47918 0.75622 0.97363 0.0
C256 C 0.45835 0.79337 0.95731 0.0
C257 C 0.47623 0.79267 0.97658 0.0
N258 N 0.5396 0.77329 0.03811 0.0
C259 C 0.55791 0.75543 0.07267 0.0
C260 C 0.5744 0.77318 0.07773 0.0
C261 C 0.57376 0.79087 0.06248 0.0
C262 C 0.55612 0.79067 0.04305 0.0
C263 C 0.54114 0.7557 0.05272 0.0
H264 H 0.55607 0.80487 0.0325 0.0
H265 H 0.52952 0.74147 0.04967 0.0
H266 H 0.48666 0.74142 0.97914 0.0
H267 H 0.48135 0.80723 0.98451 0.0
C268 C 0.51838 0.82546 0.0098 0.0
C269 C 0.45848 0.77426 0.05606 0.0
C270 C 0.56734 0.77291 0.96611 0.0
C271 C 0.50896 0.72207 0.01372 0.0
H272 H 0.45069 0.81687 0.06977 0.0
H273 H 0.48316 0.84486 0.04437 0.0
H274 H 0.557 0.84407 0.97376 0.0
H275 H 0.58333 0.81529 0.94964 0.0
H276 H 0.58431 0.73067 0.96065 0.0
H277 H 0.5525 0.70258 0.9869 0.0
H278 H 0.46159 0.7037 0.04146 0.0
H279 H 0.43376 0.73263 0.0644 0.0
H280 H 0.4555 0.74141 0.94662 0.0
H281 H 0.45103 0.80836 0.95123 0.0
H282 H 0.55818 0.7413 0.08395 0.0
H283 H 0.58633 0.80495 0.06587 0.0
C284 C 0.81902 0.98795 0.55504 0.0
C285 C 0.84531 0.98267 0.56277 0.0
C286 C 0.86498 0.99504 0.54961 0.0
C287 C 0.84965 0.00711 0.53467 0.0
N288 N 0.82135 0.00331 0.53759 0.0
Co289 Co 0.79131 0.01737 0.51956 0.0
N290 N 0.82037 0.03359 0.49817 0.0
C291 C 0.84876 0.03195 0.49795 0.0
C292 C 0.86326 0.04497 0.48114 0.0
C293 C 0.84294 0.05563 0.46999 0.0
C294 C 0.81713 0.04852 0.4808 0.0
N295 N 0.76127 0.03225 0.50238 0.0
C296 C 0.76371 0.0479 0.48528 0.0
C297 C 0.73746 0.05476 0.47924 0.0
C298 C 0.71772 0.04316 0.4932 0.0
C299 C 0.73297 0.03001 0.50695 0.0
N300 N 0.76224 1.00032 0.54008 0.0
C301 C 0.73378 1.00072 0.53903 0.0
C302 C 0.71928 0.98649 0.55448 0.0
C303 C 0.73968 0.97606 0.56579 0.0
C304 C 0.76555 0.9846 0.5565 0.0
N305 N 0.79177 0.04006 0.54313 0.0
C306 C 0.79167 0.07382 0.57438 0.0
C307 C 0.7672 0.0613 0.57176 0.0
C308 C 0.76765 0.04472 0.55605 0.0
C309 C 0.81636 0.06893 0.56155 0.0
C310 C 0.81603 0.05197 0.54637 0.0
N311 N 0.79083 0.99472 0.49602 0.0
C312 C 0.76502 0.97155 0.47049 0.0
C313 C 0.78946 0.96092 0.46464 0.0
C314 C 0.81473 0.9679 0.47442 0.0
C315 C 0.81498 0.98477 0.48973 0.0
C316 C 0.76613 0.98813 0.48616 0.0
H317 H 0.83495 0.9893 0.49648 0.0
H318 H 0.74664 0.99526 0.49015 0.0
H319 H 0.7481 0.03612 0.55448 0.0
H320 H 0.83565 0.04895 0.53732 0.0
C321 C 0.86122 0.01999 0.51565 0.0
C322 C 0.79262 0.97701 0.56362 0.0
C323 C 0.7903 0.05711 0.47471 0.0
C324 C 0.72136 0.01498 0.52374 0.0
H325 H 0.84988 0.97067 0.576 0.0
H326 H 0.88777 0.9946 0.55011 0.0
H327 H 0.88596 0.04704 0.47798 0.0
H328 H 0.8467 0.06768 0.45594 0.0
H329 H 0.73308 0.067 0.46624 0.0
H330 H 0.69496 0.04425 0.49337 0.0
H331 H 0.69658 0.98393 0.55712 0.0
H332 H 0.73597 0.9635 0.57923 0.0
H333 H 0.74754 0.06461 0.58132 0.0
H334 H 0.83592 0.07807 0.56333 0.0
H335 H 0.74498 0.96719 0.46301 0.0
H336 H 0.83426 0.96016 0.47075 0.0
C337 C 0.47568 0.27542 0.05517 0.0
C338 C 0.46453 0.29463 0.06008 0.0
C339 C 0.48012 0.30938 0.0463 0.0
C340 C 0.49959 0.29837 0.0336 0.0
N341 N 0.49724 0.27746 0.03828 0.0
Co342 Co 0.52015 0.25564 0.02259 0.0
N343 N 0.54516 0.27751 0.00446 0.0
C344 C 0.54455 0.2985 0.00662 0.0
C345 C 0.56423 0.3096 0.9919 0.0
C346 C 0.57819 0.29485 0.97951 0.0
C347 C 0.56617 0.27548 0.98745 0.0
N348 N 0.5418 0.23378 0.00561 0.0
C349 C 0.56204 0.23588 0.98757 0.0
C350 C 0.57033 0.21655 0.97986 0.0
C351 C 0.55437 0.20171 0.99318 0.0
C352 C 0.53734 0.21277 0.00818 0.0
N353 N 0.49637 0.2338 0.04199 0.0
C354 C 0.49928 0.21285 0.04202 0.0
C355 C 0.48215 0.20186 0.05893 0.0
C356 C 0.46765 0.21668 0.07071 0.0
C357 C 0.47656 0.23596 0.06002 0.0
N358 N 0.49332 0.25507 0.99623 0.0
C359 C 0.45739 0.25388 0.9574 0.0
C360 C 0.46002 0.23617 0.9723 0.0
C361 C 0.47818 0.23703 0.99136 0.0
C362 C 0.47257 0.27227 0.96244 0.0
C363 C 0.49 0.2726 0.98195 0.0
N364 N 0.54699 0.25619 0.04896 0.0
C365 C 0.5788 0.23848 0.07474 0.0
C366 C 0.58278 0.25645 0.08791 0.0
C367 C 0.56905 0.2744 0.08109 0.0
C368 C 0.55169 0.27403 0.0615 0.0
C369 C 0.56075 0.23862 0.05561 0.0
H370 H 0.54221 0.28836 0.05695 0.0
H371 H 0.5581 0.22424 0.04668 0.0
H372 H 0.47983 0.22284 0.00172 0.0
H373 H 0.50067 0.28723 0.98498 0.0
C374 C 0.52247 0.30731 0.01962 0.0
C375 C 0.46621 0.25591 0.06801 0.0
C376 C 0.57394 0.25575 0.97709 0.0
C377 C 0.51797 0.20395 0.02565 0.0
H378 H 0.44741 0.29774 0.07283 0.0
H379 H 0.47821 0.32619 0.04625 0.0
H380 H 0.56709 0.32646 0.98952 0.0
H381 H 0.5946 0.2981 0.96556 0.0
H382 H 0.58624 0.21351 0.966 0.0
H383 H 0.55513 0.18486 0.99211 0.0
H384 H 0.48065 0.18508 0.06249 0.0
H385 H 0.45258 0.21354 0.08572 0.0
H386 H 0.44861 0.22157 0.96893 0.0
H387 H 0.47078 0.28644 0.95148 0.0
H388 H 0.58907 0.22422 0.07953 0.0
H389 H 0.57193 0.28875 0.09069 0.0
H390 H 0.19542 0.27643 0.31591 0.0
H391 H 0.16804 0.30756 0.32234 0.0
H392 H 0.24523 0.34617 0.3197 0.0
H393 H 0.2728 0.31503 0.3129 0.0
H394 H 0.20148 0.3537 0.35928 0.0
H395 H 0.21417 0.3486 0.27314 0.0
H396 H 0.21261 0.32997 0.23515 0.0
H397 H 0.12311 0.31758 0.24714 0.0
H398 H 0.12422 0.33586 0.28542 0.0
H399 H 0.13591 0.45182 0.34611 0.0
H400 H 0.16671 0.42203 0.34403 0.0
H401 H 0.09675 0.38288 0.32157 0.0
H402 H 0.0665 0.4129 0.32252 0.0
H403 H 0.13963 0.37618 0.29465 0.0
H404 H 0.12509 0.37981 0.38017 0.0
H405 H 0.12486 0.39644 0.41947 0.0
H406 H 0.21456 0.4095 0.41081 0.0
H407 H 0.21527 0.39318 0.37129 0.0
C408 C 0.20655 0.29153 0.31696 0.0
C409 C 0.23619 0.29338 0.3139 0.0
C410 C 0.19092 0.30926 0.32057 0.0
C411 C 0.20468 0.32909 0.32146 0.0
C412 C 0.23431 0.33095 0.31911 0.0
C413 C 0.24996 0.31324 0.3151 0.0
C414 C 0.18785 0.34793 0.32371 0.0
C415 C 0.18821 0.35888 0.34508 0.0
C416 C 0.17009 0.35422 0.30539 0.0
C417 C 0.16934 0.34341 0.28226 0.0
C418 C 0.1942 0.34174 0.26778 0.0
C419 C 0.19339 0.33128 0.24617 0.0
C420 C 0.16779 0.32255 0.23876 0.0
C421 C 0.14293 0.32433 0.25292 0.0
C422 C 0.14363 0.33475 0.27456 0.0
C423 C 0.12717 0.43676 0.34099 0.0
C424 C 0.09895 0.43456 0.33445 0.0
C425 C 0.1447 0.41972 0.33989 0.0
C426 C 0.13404 0.40007 0.33286 0.0
C427 C 0.10556 0.39785 0.32693 0.0
C428 C 0.08826 0.41495 0.32754 0.0
C429 C 0.1527 0.38204 0.33051 0.0
C430 C 0.15282 0.37118 0.30898 0.0
C431 C 0.17054 0.37568 0.3489 0.0
C432 C 0.17018 0.38547 0.37266 0.0
C433 C 0.14473 0.38638 0.38656 0.0
C434 C 0.14452 0.39572 0.40889 0.0
C435 C 0.16967 0.40408 0.4176 0.0
C436 C 0.19509 0.40305 0.40402 0.0
C437 C 0.19542 0.39374 0.38167 0.0
H438 H 0.16946 0.4113 0.4349 0.0
H439 H 0.1672 0.31446 0.22203 0.0
H440 H 0.18025 0.74486 0.71256 0.0
H441 H 0.15239 0.71228 0.70717 0.0
H442 H 0.2274 0.67703 0.71354 0.0
H443 H 0.25543 0.70962 0.71902 0.0
H444 H 0.19184 0.66457 0.67533 0.0
H445 H 0.18592 0.67722 0.76005 0.0
H446 H 0.17687 0.69828 0.79564 0.0
H447 H 0.09069 0.7044 0.77664 0.0
H448 H 0.09937 0.68364 0.7407 0.0
H449 H 0.12499 0.56317 0.69789 0.0
H450 H 0.15447 0.5957 0.69933 0.0
H451 H 0.07908 0.63117 0.70494 0.0
H452 H 0.04977 0.59855 0.70394 0.0
H453 H 0.11551 0.64369 0.73661 0.0
H454 H 0.12007 0.63092 0.65258 0.0
H455 H 0.12825 0.61042 0.61642 0.0
H456 H 0.21545 0.60526 0.63276 0.0
H457 H 0.20768 0.62544 0.66928 0.0
C458 C 0.19085 0.73019 0.71252 0.0
C459 C 0.21998 0.72973 0.71627 0.0
C460 C 0.17492 0.71161 0.70955 0.0
C461 C 0.18785 0.69228 0.7101 0.0
C462 C 0.21707 0.69181 0.71308 0.0
C463 C 0.23298 0.71038 0.71635 0.0
C464 C 0.17057 0.67252 0.70852 0.0
C465 C 0.17537 0.65981 0.68884 0.0
C466 C 0.14869 0.66667 0.7259 0.0
C467 C 0.14338 0.67907 0.74755 0.0
C468 C 0.16511 0.68322 0.76334 0.0
C469 C 0.16004 0.69507 0.7836 0.0
C470 C 0.13324 0.70272 0.78836 0.0
C471 C 0.11145 0.69849 0.77291 0.0
C472 C 0.11643 0.68667 0.7526 0.0
C473 C 0.11492 0.578 0.69927 0.0
C474 C 0.08534 0.57861 0.70068 0.0
C475 C 0.13165 0.59653 0.70001 0.0
C476 C 0.11898 0.61592 0.70199 0.0
C477 C 0.08931 0.61642 0.70338 0.0
C478 C 0.07262 0.59789 0.70272 0.0
C479 C 0.1366 0.63563 0.70331 0.0
C480 C 0.13191 0.64837 0.72301 0.0
C481 C 0.15843 0.64156 0.68583 0.0
C482 C 0.16322 0.62951 0.66381 0.0
C483 C 0.14094 0.62527 0.64858 0.0
C484 C 0.14551 0.61373 0.628 0.0
C485 C 0.17233 0.6065 0.62233 0.0
C486 C 0.19467 0.61085 0.6372 0.0
C487 C 0.1902 0.62234 0.65784 0.0
H488 H 0.17583 0.59758 0.60638 0.0
H489 H 0.12935 0.71188 0.80406 0.0
H490 H 0.77288 0.7076 0.30549 0.0
H491 H 0.80246 0.67747 0.31141 0.0
H492 H 0.87692 0.71898 0.30951 0.0
H493 H 0.84734 0.74923 0.30399 0.0
H494 H 0.87916 0.68223 0.27876 0.0
H495 H 0.85699 0.70107 0.3605 0.0
H496 H 0.82471 0.70914 0.39459 0.0
H497 H 0.78334 0.64817 0.3918 0.0
H498 H 0.81511 0.63985 0.35743 0.0
H499 H 0.9775 0.60866 0.31272 0.0
H500 H 0.94932 0.63974 0.31008 0.0
H501 H 0.87444 0.60229 0.33382 0.0
H502 H 0.90303 0.57139 0.33763 0.0
H503 H 0.87221 0.63766 0.35364 0.0
H504 H 0.89081 0.61805 0.27263 0.0
H505 H 0.91991 0.60878 0.23704 0.0
H506 H 0.96368 0.66913 0.23599 0.0
H507 H 0.9351 0.67866 0.27179 0.0
C508 C 0.79557 0.71025 0.30632 0.0
C509 C 0.8079 0.73068 0.30429 0.0
C510 C 0.81237 0.69309 0.30979 0.0
C511 C 0.8418 0.69606 0.31095 0.0
C512 C 0.85422 0.71642 0.30868 0.0
C513 C 0.83736 0.73364 0.30564 0.0
C514 C 0.8596 0.67784 0.31428 0.0
C515 C 0.87802 0.67262 0.29524 0.0
C516 C 0.85725 0.66498 0.33547 0.0
C517 C 0.83825 0.66992 0.35623 0.0
C518 C 0.84084 0.68945 0.36701 0.0
C519 C 0.82267 0.69406 0.38641 0.0
C520 C 0.80194 0.6792 0.39531 0.0
C521 C 0.79939 0.65968 0.38487 0.0
C522 C 0.81749 0.655 0.36544 0.0
C523 C 0.95503 0.60715 0.31742 0.0
C524 C 0.94232 0.58769 0.32521 0.0
C525 C 0.93889 0.62486 0.31579 0.0
C526 C 0.90956 0.62332 0.32119 0.0
C527 C 0.89698 0.60391 0.32947 0.0
C528 C 0.91326 0.58627 0.3316 0.0
C529 C 0.89203 0.6419 0.31807 0.0
C530 C 0.87353 0.64721 0.33712 0.0
C531 C 0.89388 0.65462 0.29665 0.0
C532 C 0.911 0.64899 0.27503 0.0
C533 C 0.90677 0.62929 0.26491 0.0
C534 C 0.92316 0.624 0.24469 0.0
C535 C 0.94368 0.63834 0.2343 0.0
C536 C 0.9478 0.65803 0.24408 0.0
C537 C 0.9315 0.66339 0.26432 0.0
H538 H 0.95634 0.63421 0.21865 0.0
H539 H 0.78789 0.6828 0.41034 0.0
H540 H 0.80535 0.30706 0.69453 0.0
H541 H 0.83522 0.33901 0.68664 0.0
H542 H 0.85287 0.34064 0.76184 0.0
H543 H 0.82299 0.30877 0.76984 0.0
H544 H 0.84117 0.37839 0.74558 0.0
H545 H 0.90189 0.3246 0.71991 0.0
H546 H 0.91538 0.29387 0.69713 0.0
H547 H 0.90674 0.32849 0.63071 0.0
H548 H 0.89281 0.35935 0.65311 0.0
H549 H 0.98266 0.43815 0.7095 0.0
H550 H 0.95419 0.40504 0.71369 0.0
H551 H 0.87953 0.43799 0.69702 0.0
H552 H 0.90806 0.47112 0.69313 0.0
H553 H 0.92094 0.38263 0.68437 0.0
H554 H 0.82469 0.41722 0.73402 0.0
H555 H 0.81429 0.44723 0.75919 0.0
H556 H 0.89951 0.4492 0.78251 0.0
H557 H 0.91026 0.41899 0.75784 0.0
C558 C 0.81582 0.31413 0.70933 0.0
C559 C 0.81182 0.30538 0.73281 0.0
C560 C 0.83286 0.3324 0.70481 0.0
C561 C 0.84646 0.34215 0.72362 0.0
C562 C 0.84249 0.33345 0.74706 0.0
C563 C 0.82538 0.31524 0.75161 0.0
C564 C 0.86459 0.36156 0.71898 0.0
C565 C 0.85855 0.3793 0.73215 0.0
C566 C 0.88755 0.36271 0.7017 0.0
C567 C 0.89604 0.34421 0.68819 0.0
C568 C 0.90266 0.32561 0.70045 0.0
C569 C 0.91042 0.30817 0.68761 0.0
C570 C 0.91184 0.30921 0.66249 0.0
C571 C 0.90559 0.3277 0.65017 0.0
C572 C 0.89778 0.34518 0.66292 0.0
C573 C 0.96022 0.43814 0.70646 0.0
C574 C 0.94735 0.45694 0.701 0.0
C575 C 0.94403 0.41931 0.70877 0.0
C576 C 0.91473 0.41909 0.70585 0.0
C577 C 0.90206 0.43785 0.69957 0.0
C578 C 0.91827 0.45669 0.69727 0.0
C579 C 0.89723 0.39945 0.71074 0.0
C580 C 0.90341 0.3817 0.69766 0.0
C581 C 0.87477 0.39814 0.72846 0.0
C582 C 0.86833 0.41598 0.74387 0.0
C583 C 0.84115 0.42399 0.74462 0.0
C584 C 0.8352 0.44104 0.75879 0.0
C585 C 0.85625 0.45015 0.77238 0.0
C586 C 0.88325 0.44217 0.77193 0.0
C587 C 0.88928 0.42509 0.75784 0.0
H588 H 0.85161 0.46338 0.7833 0.0
H589 H 0.91785 0.29569 0.65258 0.0
H590 H 0.25523 0.19742 0.30349 0.0
H591 H 0.24855 0.16566 0.3292 0.0
H592 H 0.25052 0.20305 0.39218 0.0
H593 H 0.25812 0.23482 0.36661 0.0
H594 H 0.28251 0.16969 0.39691 0.0
H595 H 0.18829 0.18202 0.37345 0.0
H596 H 0.15103 0.18844 0.34498 0.0
H597 H 0.16567 0.12962 0.31263 0.0
H598 H 0.20332 0.12297 0.3407 0.0
H599 H 0.23235 0.09109 0.48241 0.0
H600 H 0.23459 0.12304 0.45651 0.0
H601 H 0.23564 0.08528 0.3937 0.0
H602 H 0.23304 0.05333 0.41975 0.0
H603 H 0.20162 0.1187 0.38888 0.0
H604 H 0.29585 0.10644 0.41245 0.0
H605 H 0.33232 0.09971 0.44155 0.0
H606 H 0.31745 0.15851 0.47388 0.0
H607 H 0.28046 0.16542 0.44524 0.0
C608 C 0.25443 0.19887 0.32282 0.0
C609 C 0.25716 0.21866 0.33301 0.0
C610 C 0.25034 0.18072 0.33748 0.0
C611 C 0.24873 0.182 0.36261 0.0
C612 C 0.2516 0.2017 0.37283 0.0
C613 C 0.2557 0.21986 0.35819 0.0
C614 C 0.24452 0.16277 0.37827 0.0
C615 C 0.2646 0.1587 0.39538 0.0
C616 C 0.22152 0.14818 0.37588 0.0
C617 C 0.19882 0.1521 0.35903 0.0
C618 C 0.18372 0.17053 0.36014 0.0
C619 C 0.1625 0.17419 0.3441 0.0
C620 C 0.15603 0.15947 0.32696 0.0
C621 C 0.17073 0.14102 0.32589 0.0
C622 C 0.19199 0.13729 0.34187 0.0
C623 C 0.23276 0.08976 0.46307 0.0
C624 C 0.23259 0.07002 0.45286 0.0
C625 C 0.23413 0.1079 0.44832 0.0
C626 C 0.23562 0.10651 0.42319 0.0
C627 C 0.23452 0.08668 0.41304 0.0
C628 C 0.23311 0.06852 0.42782 0.0
C629 C 0.23953 0.12572 0.40753 0.0
C630 C 0.21947 0.12974 0.39041 0.0
C631 C 0.26256 0.14029 0.40989 0.0
C632 C 0.2852 0.13636 0.42683 0.0
C633 C 0.30022 0.11788 0.42586 0.0
C634 C 0.32099 0.11404 0.44227 0.0
C635 C 0.32716 0.12866 0.45958 0.0
C636 C 0.31262 0.14719 0.46047 0.0
C637 C 0.29175 0.15108 0.44415 0.0
H638 H 0.34325 0.12565 0.47228 0.0
H639 H 0.13959 0.16234 0.31456 0.0
H640 H 0.26823 0.79746 0.78159 0.0
H641 H 0.29871 0.79892 0.81583 0.0
H642 H 0.34023 0.74415 0.79157 0.0
H643 H 0.30919 0.74232 0.75769 0.0
H644 H 0.33127 0.74081 0.83776 0.0
H645 H 0.37076 0.79523 0.78343 0.0
H646 H 0.37037 0.82702 0.75715 0.0
H647 H 0.34404 0.86275 0.81744 0.0
H648 H 0.34389 0.83109 0.84404 0.0
H649 H 0.45407 0.75162 0.90552 0.0
H650 H 0.42229 0.75109 0.87227 0.0
H651 H 0.3736 0.79874 0.90526 0.0
H652 H 0.40476 0.79896 0.93908 0.0
H653 H 0.38584 0.80612 0.85547 0.0
H654 H 0.34784 0.75057 0.90966 0.0
H655 H 0.35018 0.71842 0.93507 0.0
H656 H 0.37645 0.68443 0.87337 0.0
H657 H 0.37466 0.71647 0.84763 0.0
C658 C 0.28395 0.78579 0.78356 0.0
C659 C 0.28647 0.76983 0.76696 0.0
C660 C 0.30142 0.78667 0.80308 0.0
C661 C 0.32214 0.77185 0.8061 0.0
C662 C 0.32444 0.75577 0.78964 0.0
C663 C 0.30671 0.75472 0.77031 0.0
C664 C 0.34127 0.77299 0.82649 0.0
C665 C 0.34347 0.75503 0.84139 0.0
C666 C 0.35682 0.79165 0.8316 0.0
C667 C 0.35704 0.81074 0.81568 0.0
C668 C 0.36469 0.80983 0.79105 0.0
C669 C 0.36459 0.82783 0.77611 0.0
C670 C 0.35711 0.84688 0.78561 0.0
C671 C 0.34979 0.84798 0.8101 0.0
C672 C 0.34981 0.83001 0.82512 0.0
C673 C 0.43643 0.76184 0.90593 0.0
C674 C 0.43189 0.77521 0.92516 0.0
C675 C 0.41839 0.76159 0.8868 0.0
C676 C 0.39548 0.77475 0.88643 0.0
C677 C 0.39121 0.78848 0.90523 0.0
C678 C 0.40913 0.78864 0.92449 0.0
C679 C 0.37584 0.77396 0.8665 0.0
C680 C 0.37357 0.79195 0.85175 0.0
C681 C 0.36049 0.75529 0.86134 0.0
C682 C 0.36137 0.73597 0.87676 0.0
C683 C 0.35433 0.73628 0.90154 0.0
C684 C 0.35552 0.71807 0.916 0.0
C685 C 0.36353 0.6994 0.90585 0.0
C686 C 0.37028 0.6989 0.88121 0.0
C687 C 0.36916 0.71708 0.86667 0.0
H688 H 0.36443 0.68532 0.91707 0.0
H689 H 0.35704 0.8608 0.77401 0.0
H690 H 0.82163 0.80571 0.32368 0.0
H691 H 0.82489 0.83602 0.34926 0.0
H692 H 0.73458 0.83045 0.36452 0.0
H693 H 0.73121 0.80064 0.33819 0.0
H694 H 0.74889 0.86926 0.35703 0.0
H695 H 0.78499 0.81461 0.40586 0.0
H696 H 0.81551 0.7856 0.41583 0.0
H697 H 0.88918 0.82717 0.40569 0.0
H698 H 0.85911 0.85638 0.39532 0.0
H699 H 0.74651 0.93087 0.4617 0.0
H700 H 0.74469 0.90116 0.43535 0.0
H701 H 0.8286 0.91866 0.40618 0.0
H702 H 0.83023 0.9491 0.43156 0.0
H703 H 0.81821 0.87439 0.42093 0.0
H704 H 0.77926 0.92924 0.37275 0.0
H705 H 0.74669 0.95747 0.36499 0.0
H706 H 0.67547 0.91381 0.3771 0.0
H707 H 0.70764 0.88537 0.38529 0.0
C708 C 0.80254 0.81093 0.33263 0.0
C709 C 0.77619 0.80083 0.32906 0.0
C710 C 0.80441 0.82819 0.34731 0.0
C711 C 0.78004 0.83537 0.35919 0.0
C712 C 0.75369 0.82526 0.35558 0.0
C713 C 0.75177 0.80822 0.34057 0.0
C714 C 0.78188 0.85366 0.37499 0.0
C715 C 0.76382 0.87018 0.3712 0.0
C716 C 0.80166 0.85515 0.39328 0.0
C717 C 0.81981 0.83763 0.39958 0.0
C718 C 0.80771 0.81753 0.40558 0.0
C719 C 0.82493 0.80106 0.41133 0.0
C720 C 0.85427 0.80453 0.41133 0.0
C721 C 0.86645 0.8245 0.40565 0.0
C722 C 0.84933 0.84102 0.39985 0.0
C723 C 0.76446 0.9287 0.44943 0.0
C724 C 0.78848 0.94258 0.44876 0.0
C725 C 0.76343 0.91157 0.43452 0.0
C726 C 0.78648 0.90779 0.41883 0.0
C727 C 0.81065 0.92131 0.41828 0.0
C728 C 0.81156 0.93865 0.43293 0.0
C729 C 0.78521 0.88973 0.4029 0.0
C730 C 0.80336 0.87333 0.40671 0.0
C731 C 0.76521 0.88817 0.38493 0.0
C732 C 0.74585 0.90522 0.37987 0.0
C733 C 0.75665 0.9257 0.37397 0.0
C734 C 0.73826 0.94173 0.36945 0.0
C735 C 0.70902 0.93745 0.37062 0.0
C736 C 0.69812 0.91711 0.37624 0.0
C737 C 0.71642 0.90102 0.3808 0.0
H738 H 0.69482 0.94988 0.36711 0.0
H739 H 0.86757 0.79176 0.4158 0.0
H740 H 0.76798 0.27782 0.80827 0.0
H741 H 0.73625 0.27514 0.84423 0.0
H742 H 0.66907 0.25005 0.8024 0.0
H743 H 0.70061 0.25307 0.76619 0.0
H744 H 0.65095 0.28012 0.83313 0.0
H745 H 0.70357 0.21778 0.83761 0.0
H746 H 0.74667 0.19752 0.83745 0.0
H747 H 0.77435 0.22956 0.89929 0.0
H748 H 0.73158 0.25024 0.89962 0.0
H749 H 0.5593 0.24572 0.93224 0.0
H750 H 0.58989 0.24645 0.89542 0.0
H751 H 0.66104 0.26718 0.93569 0.0
H752 H 0.63052 0.26577 0.97262 0.0
H753 H 0.6765 0.23853 0.90508 0.0
H754 H 0.62498 0.30142 0.9004 0.0
H755 H 0.58217 0.32202 0.90088 0.0
H756 H 0.55296 0.28973 0.83972 0.0
H757 H 0.59542 0.2687 0.8391 0.0
C758 C 0.74638 0.27191 0.80668 0.0
C759 C 0.7368 0.26562 0.78441 0.0
C760 C 0.72835 0.27023 0.82728 0.0
C761 C 0.7004 0.26219 0.82603 0.0
C762 C 0.6906 0.25622 0.80376 0.0
C763 C 0.70868 0.25781 0.78314 0.0
C764 C 0.68148 0.26001 0.84802 0.0
C765 C 0.65631 0.27079 0.84875 0.0
C766 C 0.68883 0.24821 0.86856 0.0
C767 C 0.71449 0.2357 0.8685 0.0
C768 C 0.71895 0.22063 0.85107 0.0
C769 C 0.7433 0.20904 0.85096 0.0
C770 C 0.76327 0.21228 0.86832 0.0
C771 C 0.75888 0.22708 0.88585 0.0
C772 C 0.73458 0.23873 0.88601 0.0
C773 C 0.58152 0.25034 0.9331 0.0
C774 C 0.59268 0.2559 0.955 0.0
C775 C 0.59892 0.25086 0.91213 0.0
C776 C 0.62768 0.25722 0.91271 0.0
C777 C 0.63892 0.26231 0.93479 0.0
C778 C 0.62155 0.26161 0.95579 0.0
C779 C 0.646 0.25875 0.8903 0.0
C780 C 0.67108 0.24784 0.88946 0.0
C781 C 0.63862 0.27052 0.8697 0.0
C782 C 0.61326 0.28335 0.86984 0.0
C783 C 0.60934 0.29861 0.88715 0.0
C784 C 0.58515 0.31038 0.88744 0.0
C785 C 0.56483 0.30715 0.87038 0.0
C786 C 0.5687 0.29219 0.85294 0.0
C787 C 0.59284 0.28036 0.8526 0.0
H788 H 0.5461 0.31627 0.87064 0.0
H789 H 0.78211 0.2033 0.86821 0.0
H790 H 0.28887 0.81743 0.69928 0.0
H791 H 0.28443 0.84904 0.67417 0.0
H792 H 0.19807 0.83022 0.66155 0.0
H793 H 0.20147 0.79918 0.68792 0.0
H794 H 0.24788 0.84458 0.61843 0.0
H795 H 0.19148 0.86291 0.69081 0.0
H796 H 0.18574 0.86634 0.7347 0.0
H797 H 0.2605 0.90703 0.73346 0.0
H798 H 0.26689 0.90355 0.68957 0.0
H799 H 0.20927 0.93429 0.55307 0.0
H800 H 0.20863 0.90296 0.57956 0.0
H801 H 0.26321 0.93572 0.62729 0.0
H802 H 0.26164 0.96759 0.60182 0.0
H803 H 0.22901 0.91333 0.65322 0.0
H804 H 0.28657 0.89833 0.58381 0.0
H805 H 0.29857 0.895 0.54062 0.0
H806 H 0.23105 0.84838 0.53613 0.0
H807 H 0.21838 0.85165 0.57925 0.0
C808 C 0.26869 0.8201 0.69162 0.0
C809 C 0.24548 0.80566 0.69586 0.0
C810 C 0.26635 0.8381 0.67706 0.0
C811 C 0.24095 0.84186 0.66612 0.0
C812 C 0.21786 0.82747 0.66987 0.0
C813 C 0.21997 0.80965 0.68482 0.0
C814 C 0.23864 0.86091 0.65075 0.0
C815 C 0.24332 0.8596 0.62587 0.0
C816 C 0.23386 0.88051 0.66072 0.0
C817 C 0.22984 0.88276 0.687 0.0
C818 C 0.20685 0.8724 0.69994 0.0
C819 C 0.20344 0.8744 0.7248 0.0
C820 C 0.2228 0.88684 0.73688 0.0
C821 C 0.24555 0.89737 0.72409 0.0
C822 C 0.24906 0.8954 0.69923 0.0
C823 C 0.22089 0.93476 0.56936 0.0
C824 C 0.23585 0.95316 0.57531 0.0
C825 C 0.22081 0.9168 0.58436 0.0
C826 C 0.23656 0.91668 0.60515 0.0
C827 C 0.25103 0.93528 0.61132 0.0
C828 C 0.25037 0.95343 0.59669 0.0
C829 C 0.23797 0.89722 0.62046 0.0
C830 C 0.23336 0.89839 0.64548 0.0
C831 C 0.24361 0.87755 0.6106 0.0
C832 C 0.25136 0.87539 0.58472 0.0
C833 C 0.27418 0.88746 0.57359 0.0
C834 C 0.28111 0.88557 0.54912 0.0
C835 C 0.26554 0.87152 0.53563 0.0
C836 C 0.24307 0.85928 0.5466 0.0
C837 C 0.23601 0.86113 0.57106 0.0
H838 H 0.27093 0.87009 0.51668 0.0
H839 H 0.22013 0.88837 0.75612 0.0
H840 H 0.76603 0.76093 0.23199 0.0
H841 H 0.73433 0.76287 0.19845 0.0
H842 H 0.66421 0.77314 0.24815 0.0
H843 H 0.69601 0.77167 0.28177 0.0
H844 H 0.65623 0.74038 0.21042 0.0
H845 H 0.68568 0.81288 0.22099 0.0
H846 H 0.7212 0.84178 0.22507 0.0
H847 H 0.75874 0.82958 0.15561 0.0
H848 H 0.72368 0.80037 0.15129 0.0
H849 H 0.55693 0.76591 0.12451 0.0
H850 H 0.58609 0.76551 0.15966 0.0
H851 H 0.66088 0.77905 0.11343 0.0
H852 H 0.63137 0.78064 0.07846 0.0
H853 H 0.66611 0.79999 0.15079 0.0
H854 H 0.64032 0.72794 0.13899 0.0
H855 H 0.60806 0.69727 0.13363 0.0
H856 H 0.56774 0.70581 0.203 0.0
H857 H 0.59954 0.73672 0.20864 0.0
C858 C 0.74382 0.7635 0.23572 0.0
C859 C 0.73338 0.76615 0.25938 0.0
C860 C 0.72581 0.76466 0.21661 0.0
C861 C 0.69703 0.76818 0.22091 0.0
C862 C 0.68639 0.77041 0.24456 0.0
C863 C 0.70452 0.76965 0.26365 0.0
C864 C 0.67818 0.7698 0.20057 0.0
C865 C 0.658 0.75353 0.19752 0.0
C866 C 0.6813 0.78664 0.18344 0.0
C867 C 0.70224 0.8043 0.18593 0.0
C868 C 0.70167 0.81623 0.20669 0.0
C869 C 0.72169 0.83269 0.20902 0.0
C870 C 0.74226 0.83747 0.19064 0.0
C871 C 0.74281 0.82584 0.16985 0.0
C872 C 0.72286 0.80934 0.16744 0.0
C873 C 0.57961 0.76884 0.12198 0.0
C874 C 0.59204 0.77319 0.0989 0.0
C875 C 0.5963 0.76848 0.14201 0.0
C876 C 0.62585 0.77177 0.13923 0.0
C877 C 0.63818 0.77641 0.1161 0.0
C878 C 0.62139 0.77727 0.09614 0.0
C879 C 0.64392 0.77045 0.16036 0.0
C880 C 0.66409 0.7868 0.16361 0.0
C881 C 0.64118 0.75341 0.17741 0.0
C882 C 0.62213 0.73477 0.17413 0.0
C883 C 0.62445 0.72336 0.15303 0.0
C884 C 0.60626 0.70592 0.14995 0.0
C885 C 0.58581 0.69963 0.16794 0.0
C886 C 0.58356 0.71073 0.18907 0.0
C887 C 0.60168 0.72819 0.19223 0.0
H888 H 0.57175 0.68612 0.16552 0.0
H889 H 0.75774 0.85023 0.19248 0.0
H890 H 0.78696 0.25173 0.67786 0.0
H891 H 0.7911 0.22196 0.65195 0.0
H892 H 0.77306 0.17952 0.71314 0.0
H893 H 0.7712 0.20912 0.73946 0.0
H894 H 0.81231 0.16457 0.68709 0.0
H895 H 0.72264 0.19177 0.66974 0.0
H896 H 0.68938 0.21853 0.6582 0.0
H897 H 0.73429 0.22846 0.58976 0.0
H898 H 0.76805 0.20194 0.60102 0.0
H899 H 0.77069 0.07502 0.62075 0.0
H900 H 0.76945 0.10548 0.64638 0.0
H901 H 0.80996 0.14426 0.58879 0.0
H902 H 0.81158 0.1138 0.56318 0.0
H903 H 0.7599 0.16089 0.61218 0.0
H904 H 0.84882 0.13177 0.63102 0.0
H905 H 0.87938 0.10352 0.64352 0.0
H906 H 0.8316 0.09551 0.71084 0.0
H907 H 0.80048 0.12351 0.69858 0.0
C908 C 0.78427 0.23608 0.68593 0.0
C909 C 0.7786 0.23294 0.71085 0.0
C910 C 0.78622 0.21902 0.67097 0.0
C911 C 0.78184 0.19843 0.68046 0.0
C912 C 0.77637 0.19523 0.70531 0.0
C913 C 0.77492 0.21225 0.72034 0.0
C914 C 0.7833 0.18018 0.66458 0.0
C915 C 0.80051 0.16371 0.6709 0.0
C916 C 0.76833 0.17908 0.64317 0.0
C917 C 0.74804 0.19502 0.63633 0.0
C918 C 0.72554 0.19977 0.6523 0.0
C919 C 0.70658 0.21488 0.64579 0.0
C920 C 0.70977 0.22523 0.62328 0.0
C921 C 0.73188 0.22045 0.6072 0.0
C922 C 0.75092 0.20537 0.61363 0.0
C923 C 0.77933 0.09005 0.6136 0.0
C924 C 0.79129 0.09209 0.59004 0.0
C925 C 0.7787 0.10738 0.62824 0.0
C926 C 0.78969 0.12705 0.61945 0.0
C927 C 0.80142 0.12918 0.59587 0.0
C928 C 0.80247 0.11179 0.58135 0.0
C929 C 0.78872 0.14546 0.63485 0.0
C930 C 0.77163 0.1619 0.62841 0.0
C931 C 0.80337 0.14636 0.65634 0.0
C932 C 0.82214 0.12959 0.66377 0.0
C933 C 0.84467 0.12385 0.6484 0.0
C934 C 0.86213 0.10791 0.65546 0.0
C935 C 0.85739 0.09769 0.67793 0.0
C936 C 0.83523 0.10342 0.69342 0.0
C937 C 0.81769 0.11934 0.68643 0.0
H938 H 0.87093 0.08536 0.68337 0.0
H939 H 0.69506 0.23692 0.61828 0.0
H940 H 0.33056 0.28374 0.27039 0.0
H941 H 0.36179 0.2838 0.23411 0.0
H942 H 0.31393 0.23026 0.20941 0.0
H943 H 0.28361 0.22963 0.24623 0.0
H944 H 0.36596 0.2248 0.19983 0.0
H945 H 0.30718 0.28252 0.18687 0.0
H946 H 0.28436 0.31542 0.19613 0.0
H947 H 0.36583 0.34761 0.19719 0.0
H948 H 0.38916 0.31481 0.18828 0.0
H949 H 0.41232 0.23913 0.07541 0.0
H950 H 0.38187 0.23958 0.11234 0.0
H951 H 0.44684 0.27575 0.14635 0.0
H952 H 0.47773 0.2746 0.10978 0.0
H953 H 0.38666 0.29021 0.15044 0.0
H954 H 0.44401 0.23005 0.16238 0.0
H955 H 0.46376 0.19681 0.15003 0.0
H956 H 0.37986 0.16881 0.14749 0.0
H957 H 0.35959 0.20205 0.15938 0.0
C958 C 0.32682 0.27201 0.25717 0.0
C959 C 0.30472 0.25671 0.261 0.0
C960 C 0.34453 0.2721 0.23639 0.0
C961 C 0.33994 0.25727 0.21871 0.0
C962 C 0.31796 0.24187 0.22271 0.0
C963 C 0.30063 0.24151 0.24371 0.0
C964 C 0.35807 0.25772 0.19613 0.0
C965 C 0.37013 0.23909 0.18895 0.0
C966 C 0.36387 0.27637 0.1819 0.0
C967 C 0.34992 0.29615 0.18715 0.0
C968 C 0.32023 0.29658 0.18925 0.0
C969 C 0.30721 0.31522 0.19441 0.0
C970 C 0.32364 0.33358 0.19731 0.0
C971 C 0.35313 0.33336 0.19498 0.0
C972 C 0.36627 0.31475 0.18986 0.0
C973 C 0.42005 0.24703 0.09087 0.0
C974 C 0.44736 0.2566 0.09002 0.0
C975 C 0.4027 0.24737 0.11182 0.0
C976 C 0.41223 0.25766 0.13199 0.0
C977 C 0.43918 0.26776 0.13092 0.0
C978 C 0.45675 0.26706 0.11014 0.0
C979 C 0.3943 0.2574 0.15443 0.0
C980 C 0.38235 0.27602 0.16148 0.0
C981 C 0.38809 0.23869 0.16825 0.0
C982 C 0.40028 0.2186 0.16152 0.0
C983 C 0.42976 0.21687 0.15897 0.0
C984 C 0.44105 0.19802 0.15209 0.0
C985 C 0.42307 0.18072 0.14792 0.0
C986 C 0.39376 0.18223 0.1507 0.0
C987 C 0.38236 0.20107 0.15752 0.0
H988 H 0.43185 0.16614 0.14259 0.0
H989 H 0.31352 0.348 0.2013 0.0
H990 H 0.83509 0.7515 0.70542 0.0
H991 H 0.86135 0.72014 0.69797 0.0
H992 H 0.78942 0.68127 0.72511 0.0
H993 H 0.7625 0.71247 0.73177 0.0
H994 H 0.84086 0.67187 0.74592 0.0
H995 H 0.80432 0.68246 0.66757 0.0
H996 H 0.79541 0.70281 0.63053 0.0
H997 H 0.88486 0.71236 0.61531 0.0
H998 H 0.89432 0.69232 0.65246 0.0
H999 H 0.89585 0.57431 0.71887 0.0
H1000 H 0.86537 0.60418 0.72058 0.0
H1001 H 0.93049 0.64301 0.68202 0.0
H1002 H 0.9607 0.61297 0.67969 0.0
H1003 H 0.88126 0.6523 0.66649 0.0
H1004 H 0.91902 0.6441 0.74428 0.0
H1005 H 0.92998 0.62532 0.78185 0.0
H1006 H 0.84127 0.61336 0.79901 0.0
H1007 H 0.82978 0.63182 0.76135 0.0
C1008 C 0.82456 0.7363 0.70933 0.0
C1009 C 0.79662 0.73458 0.71926 0.0
C1010 C 0.8397 0.71839 0.70517 0.0
C1011 C 0.8273 0.69841 0.71097 0.0
C1012 C 0.79938 0.69657 0.72061 0.0
C1013 C 0.78411 0.71445 0.72453 0.0
C1014 C 0.8439 0.67949 0.70795 0.0
C1015 C 0.84933 0.66737 0.72852 0.0
C1016 C 0.85566 0.67408 0.68534 0.0
C1017 C 0.85002 0.68605 0.66292 0.0
C1018 C 0.8221 0.68905 0.65643 0.0
C1019 C 0.81694 0.7005 0.6354 0.0
C1020 C 0.83955 0.70892 0.62061 0.0
C1021 C 0.86737 0.70585 0.6268 0.0
C1022 C 0.87264 0.69443 0.64783 0.0
C1023 C 0.9036 0.58922 0.71072 0.0
C1024 C 0.93069 0.59138 0.69929 0.0
C1025 C 0.88621 0.60629 0.71174 0.0
C1026 C 0.89582 0.62599 0.70184 0.0
C1027 C 0.9226 0.62801 0.68983 0.0
C1028 C 0.93985 0.61085 0.6885 0.0
C1029 C 0.87826 0.64456 0.7045 0.0
C1030 C 0.87271 0.65669 0.6839 0.0
C1031 C 0.86672 0.6502 0.72717 0.0
C1032 C 0.87355 0.63916 0.74988 0.0
C1033 C 0.90185 0.63733 0.75598 0.0
C1034 C 0.90816 0.62677 0.7773 0.0
C1035 C 0.88634 0.6181 0.79277 0.0
C1036 C 0.85815 0.62005 0.78699 0.0
C1037 C 0.85173 0.63057 0.76567 0.0
H1038 H 0.89127 0.60993 0.80927 0.0
H1039 H 0.83552 0.71778 0.60433 0.0
H1040 H 0.85874 0.283 0.30981 0.0
H1041 H 0.88721 0.31545 0.31446 0.0
H1042 H 0.81077 0.34947 0.32265 0.0
H1043 H 0.78248 0.31723 0.31673 0.0
H1044 H 0.84561 0.37133 0.29525 0.0
H1045 H 0.85433 0.33529 0.37135 0.0
H1046 H 0.86506 0.30578 0.39857 0.0
H1047 H 0.95123 0.30868 0.3706 0.0
H1048 H 0.94093 0.33805 0.34299 0.0
H1049 H 0.90965 0.46403 0.33974 0.0
H1050 H 0.8817 0.43081 0.33795 0.0
H1051 H 0.95749 0.39937 0.31753 0.0
H1052 H 0.98537 0.43259 0.31952 0.0
H1053 H 0.92345 0.37648 0.35167 0.0
H1054 H 0.91339 0.41332 0.27582 0.0
H1055 H 0.90191 0.4437 0.25024 0.0
H1056 H 0.81645 0.43988 0.27995 0.0
H1057 H 0.82757 0.40968 0.30603 0.0
C1058 C 0.84814 0.29744 0.31273 0.0
C1059 C 0.81851 0.29771 0.31297 0.0
C1060 C 0.86436 0.31595 0.31552 0.0
C1061 C 0.85118 0.33495 0.31931 0.0
C1062 C 0.82149 0.33509 0.31973 0.0
C1063 C 0.80533 0.31669 0.31642 0.0
C1064 C 0.86822 0.35479 0.32215 0.0
C1065 C 0.86232 0.37247 0.30788 0.0
C1066 C 0.89049 0.35631 0.33824 0.0
C1067 C 0.89678 0.33874 0.35495 0.0
C1068 C 0.87552 0.32955 0.3709 0.0
C1069 C 0.88154 0.31286 0.38641 0.0
C1070 C 0.90879 0.30533 0.38627 0.0
C1071 C 0.93012 0.31451 0.37067 0.0
C1072 C 0.92421 0.33119 0.3551 0.0
C1073 C 0.92019 0.44993 0.33503 0.0
C1074 C 0.94946 0.45062 0.32977 0.0
C1075 C 0.90432 0.43105 0.33395 0.0
C1076 C 0.91752 0.41267 0.32743 0.0
C1077 C 0.94693 0.41335 0.32263 0.0
C1078 C 0.96277 0.43225 0.32367 0.0
C1079 C 0.90058 0.39285 0.32494 0.0
C1080 C 0.9066 0.37523 0.33917 0.0
C1081 C 0.87821 0.39144 0.30903 0.0
C1082 C 0.87138 0.40935 0.29303 0.0
C1083 C 0.8922 0.41904 0.27701 0.0
C1084 C 0.88575 0.43622 0.26241 0.0
C1085 C 0.85848 0.44374 0.2635 0.0
C1086 C 0.83757 0.43405 0.27914 0.0
C1087 C 0.84393 0.4169 0.29383 0.0
H1088 H 0.85353 0.45704 0.25219 0.0
H1089 H 0.9134 0.2924 0.39829 0.0
H1090 H 0.18768 0.28031 0.71933 0.0
H1091 H 0.16016 0.31135 0.71294 0.0
H1092 H 0.22958 0.35065 0.7357 0.0
H1093 H 0.25759 0.31988 0.74142 0.0
H1094 H 0.1773 0.35972 0.75733 0.0
H1095 H 0.21824 0.34898 0.67799 0.0
H1096 H 0.22854 0.32842 0.64222 0.0
H1097 H 0.13959 0.31959 0.63174 0.0
H1098 H 0.12874 0.33986 0.66766 0.0
H1099 H 0.13026 0.45909 0.72388 0.0
H1100 H 0.15817 0.42795 0.72783 0.0
H1101 H 0.09402 0.39165 0.69281 0.0
H1102 H 0.06667 0.42301 0.68798 0.0
H1103 H 0.14294 0.38026 0.67752 0.0
H1104 H 0.10074 0.39005 0.7558 0.0
H1105 H 0.08858 0.40935 0.79216 0.0
H1106 H 0.17675 0.41819 0.80578 0.0
H1107 H 0.18946 0.39918 0.7693 0.0
C1108 C 0.19726 0.29557 0.7227 0.0
C1109 C 0.2249 0.29755 0.73091 0.0
C1110 C 0.18144 0.31327 0.71914 0.0
C1111 C 0.1929 0.33329 0.72376 0.0
C1112 C 0.22031 0.33533 0.73213 0.0
C1113 C 0.23622 0.31769 0.73551 0.0
C1114 C 0.1763 0.35215 0.72003 0.0
C1115 C 0.17004 0.36438 0.73984 0.0
C1116 C 0.16617 0.35782 0.69735 0.0
C1117 C 0.17268 0.34576 0.67565 0.0
C1118 C 0.20087 0.34251 0.66817 0.0
C1119 C 0.2068 0.33093 0.64785 0.0
C1120 C 0.18473 0.32265 0.63475 0.0
C1121 C 0.15666 0.32599 0.64192 0.0
C1122 C 0.15061 0.33753 0.66225 0.0
C1123 C 0.12222 0.44445 0.71698 0.0
C1124 C 0.0963 0.44339 0.70572 0.0
C1125 C 0.13808 0.42664 0.71934 0.0
C1126 C 0.12795 0.40729 0.71109 0.0
C1127 C 0.1023 0.40635 0.69937 0.0
C1128 C 0.08668 0.42425 0.69662 0.0
C1129 C 0.14393 0.38801 0.71485 0.0
C1130 C 0.15008 0.37565 0.69506 0.0
C1131 C 0.15364 0.38204 0.73766 0.0
C1132 C 0.14606 0.39336 0.7597 0.0
C1133 C 0.11754 0.39623 0.76646 0.0
C1134 C 0.11055 0.4071 0.7871 0.0
C1135 C 0.13188 0.41504 0.80123 0.0
C1136 C 0.16025 0.41206 0.79479 0.0
C1137 C 0.16736 0.40122 0.77415 0.0
H1138 H 0.12643 0.42345 0.81721 0.0
H1139 H 0.18937 0.31369 0.61903 0.0
H1140 H 0.20642 0.72288 0.26568 0.0
H1141 H 0.17792 0.69011 0.27366 0.0
H1142 H 0.21128 0.68437 0.34414 0.0
H1143 H 0.23921 0.71751 0.33651 0.0
H1144 H 0.21086 0.64626 0.30691 0.0
H1145 H 0.15506 0.69613 0.35134 0.0
H1146 H 0.13081 0.72936 0.35437 0.0
H1147 H 0.07885 0.71227 0.29633 0.0
H1148 H 0.10315 0.67907 0.29271 0.0
H1149 H 0.124 0.55859 0.34917 0.0
H1150 H 0.15254 0.59156 0.34629 0.0
H1151 H 0.09224 0.6182 0.29952 0.0
H1152 H 0.06257 0.58586 0.30425 0.0
H1153 H 0.10756 0.64651 0.32635 0.0
H1154 H 0.1598 0.59849 0.27975 0.0
H1155 H 0.18396 0.56592 0.27155 0.0
H1156 H 0.24237 0.57948 0.32626 0.0
H1157 H 0.21831 0.61202 0.33502 0.0
C1158 C 0.20761 0.71459 0.28286 0.0
C1159 C 0.22487 0.72262 0.30053 0.0
C1160 C 0.19138 0.69597 0.28738 0.0
C1161 C 0.19259 0.68495 0.30946 0.0
C1162 C 0.21013 0.69274 0.32702 0.0
C1163 C 0.22592 0.71162 0.3227 0.0
C1164 C 0.17536 0.66529 0.31412 0.0
C1165 C 0.18835 0.64618 0.31155 0.0
C1166 C 0.14591 0.66541 0.31924 0.0
C1167 C 0.13114 0.68525 0.32158 0.0
C1168 C 0.13867 0.69957 0.33906 0.0
C1169 C 0.12487 0.71837 0.34092 0.0
C1170 C 0.10336 0.72296 0.3255 0.0
C1171 C 0.09555 0.70872 0.30823 0.0
C1172 C 0.10931 0.6899 0.30628 0.0
C1173 C 0.11673 0.57167 0.33862 0.0
C1174 C 0.09105 0.56986 0.32711 0.0
C1175 C 0.13321 0.5904 0.33668 0.0
C1176 C 0.12492 0.60735 0.32228 0.0
C1177 C 0.09918 0.60545 0.31077 0.0
C1178 C 0.08232 0.58695 0.31332 0.0
C1179 C 0.14291 0.62707 0.31917 0.0
C1180 C 0.13009 0.64633 0.3219 0.0
C1181 C 0.17245 0.62707 0.31352 0.0
C1182 C 0.18707 0.60758 0.3082 0.0
C1183 C 0.17768 0.59446 0.29014 0.0
C1184 C 0.19137 0.57601 0.28538 0.0
C1185 C 0.21464 0.57061 0.29842 0.0
C1186 C 0.22432 0.58367 0.3162 0.0
C1187 C 0.21068 0.60213 0.32106 0.0
H1188 H 0.2252 0.55632 0.29471 0.0
H1189 H 0.0927 0.73752 0.32697 0.0
H1190 H 0.76741 0.7932 0.6673 0.0
H1191 H 0.77269 0.82482 0.64121 0.0
H1192 H 0.78765 0.86209 0.70292 0.0
H1193 H 0.78196 0.83054 0.72911 0.0
H1194 H 0.75247 0.88072 0.67489 0.0
H1195 H 0.84206 0.8493 0.66251 0.0
H1196 H 0.8737 0.82089 0.65262 0.0
H1197 H 0.84087 0.81808 0.58219 0.0
H1198 H 0.80874 0.8463 0.59178 0.0
H1199 H 0.80312 0.97378 0.61118 0.0
H1200 H 0.8014 0.94175 0.63696 0.0
H1201 H 0.78071 0.90495 0.57609 0.0
H1202 H 0.7828 0.937 0.55033 0.0
H1203 H 0.81938 0.88619 0.60352 0.0
H1204 H 0.72985 0.91749 0.61596 0.0
H1205 H 0.69859 0.94618 0.62561 0.0
H1206 H 0.73155 0.94921 0.69598 0.0
H1207 H 0.76341 0.92078 0.68658 0.0
C1208 C 0.77206 0.80812 0.67526 0.0
C1209 C 0.77436 0.8094 0.70023 0.0
C1210 C 0.7751 0.82618 0.66034 0.0
C1211 C 0.78095 0.84583 0.67005 0.0
C1212 C 0.78314 0.84713 0.695 0.0
C1213 C 0.77985 0.8291 0.70995 0.0
C1214 C 0.78433 0.86509 0.65427 0.0
C1215 C 0.76742 0.88201 0.6595 0.0
C1216 C 0.80333 0.86663 0.63382 0.0
C1217 C 0.82281 0.84978 0.62795 0.0
C1218 C 0.84145 0.84253 0.64497 0.0
C1219 C 0.85949 0.82647 0.63941 0.0
C1220 C 0.85925 0.81765 0.61681 0.0
C1221 C 0.84101 0.82491 0.5997 0.0
C1222 C 0.8229 0.84095 0.60518 0.0
C1223 C 0.79847 0.95878 0.60341 0.0
C1224 C 0.79312 0.95764 0.57894 0.0
C1225 C 0.79738 0.94055 0.61807 0.0
C1226 C 0.79065 0.92098 0.60847 0.0
C1227 C 0.78595 0.91986 0.58384 0.0
C1228 C 0.78706 0.93809 0.5692 0.0
C1229 C 0.78766 0.90177 0.62425 0.0
C1230 C 0.80454 0.88488 0.61898 0.0
C1231 C 0.76865 0.90024 0.64467 0.0
C1232 C 0.74921 0.91714 0.65048 0.0
C1233 C 0.73058 0.92437 0.63343 0.0
C1234 C 0.71274 0.94058 0.63886 0.0
C1235 C 0.71312 0.94954 0.66138 0.0
C1236 C 0.7313 0.94227 0.67853 0.0
C1237 C 0.74925 0.92611 0.67317 0.0
H1238 H 0.69929 0.96209 0.66555 0.0
H1239 H 0.87322 0.80522 0.61254 0.0
H1240 H 0.70777 0.25631 0.28965 0.0
H1241 H 0.67592 0.25589 0.2562 0.0
H1242 H 0.74819 0.26097 0.20575 0.0
H1243 H 0.77979 0.2627 0.23929 0.0
H1244 H 0.71154 0.28424 0.18974 0.0
H1245 H 0.70665 0.2133 0.22003 0.0
H1246 H 0.6997 0.18451 0.2506 0.0
H1247 H 0.61369 0.20105 0.26428 0.0
H1248 H 0.62025 0.23015 0.23402 0.0
H1249 H 0.63754 0.24524 0.08913 0.0
H1250 H 0.66798 0.24579 0.12367 0.0
H1251 H 0.5992 0.26759 0.16818 0.0
H1252 H 0.5689 0.26758 0.13354 0.0
H1253 H 0.63301 0.23048 0.18672 0.0
H1254 H 0.64119 0.30231 0.15448 0.0
H1255 H 0.65043 0.32897 0.12171 0.0
H1256 H 0.73402 0.30701 0.10903 0.0
H1257 H 0.72509 0.27998 0.1415 0.0
C1258 C 0.71668 0.25737 0.27137 0.0
C1259 C 0.74606 0.25949 0.26687 0.0
C1260 C 0.69856 0.25697 0.25226 0.0
C1261 C 0.70959 0.25798 0.22834 0.0
C1262 C 0.73908 0.26017 0.22397 0.0
C1263 C 0.75714 0.26108 0.24307 0.0
C1264 C 0.69051 0.25708 0.20785 0.0
C1265 C 0.69464 0.27228 0.18905 0.0
C1266 C 0.66815 0.24164 0.20687 0.0
C1267 C 0.66404 0.22404 0.22492 0.0
C1268 C 0.68631 0.21088 0.22967 0.0
C1269 C 0.68243 0.1945 0.24693 0.0
C1270 C 0.6563 0.19099 0.25943 0.0
C1271 C 0.63394 0.20381 0.25462 0.0
C1272 C 0.63772 0.22024 0.2374 0.0
C1273 C 0.62898 0.2501 0.10632 0.0
C1274 C 0.601 0.25644 0.10876 0.0
C1275 C 0.64631 0.25042 0.12595 0.0
C1276 C 0.63573 0.25672 0.14837 0.0
C1277 C 0.60764 0.26266 0.15098 0.0
C1278 C 0.59048 0.26276 0.13123 0.0
C1279 C 0.65427 0.25755 0.16897 0.0
C1280 C 0.65 0.24235 0.18764 0.0
C1281 C 0.6769 0.27263 0.16959 0.0
C1282 C 0.68235 0.28898 0.15023 0.0
C1283 C 0.66144 0.30303 0.14454 0.0
C1284 C 0.66664 0.31824 0.12606 0.0
C1285 C 0.69277 0.31964 0.11325 0.0
C1286 C 0.71378 0.30588 0.11895 0.0
C1287 C 0.70866 0.29063 0.13739 0.0
H1288 H 0.69676 0.33143 0.09895 0.0
H1289 H 0.65335 0.17831 0.2728 0.0
H1290 H 0.25046 0.24651 0.67237 0.0
H1291 H 0.24636 0.21703 0.64568 0.0
H1292 H 0.25992 0.17404 0.7048 0.0
H1293 H 0.26245 0.20313 0.73196 0.0
H1294 H 0.29419 0.16879 0.65985 0.0
H1295 H 0.19753 0.17571 0.69023 0.0
H1296 H 0.15457 0.19531 0.69808 0.0
H1297 H 0.14955 0.20895 0.62246 0.0
H1298 H 0.19276 0.18969 0.6142 0.0
H1299 H 0.25979 0.0709 0.61187 0.0
H1300 H 0.26303 0.10139 0.63713 0.0
H1301 H 0.22415 0.13859 0.58278 0.0
H1302 H 0.2199 0.10783 0.55792 0.0
H1303 H 0.20346 0.14834 0.62399 0.0
H1304 H 0.29752 0.14182 0.59192 0.0
H1305 H 0.3416 0.12419 0.58193 0.0
H1306 H 0.35371 0.11248 0.65699 0.0
H1307 H 0.30948 0.12978 0.66743 0.0
C1308 C 0.25217 0.23079 0.67986 0.0
C1309 C 0.25678 0.22731 0.70444 0.0
C1310 C 0.25005 0.21399 0.66449 0.0
C1311 C 0.25287 0.19343 0.67332 0.0
C1312 C 0.25788 0.18985 0.69765 0.0
C1313 C 0.25952 0.20657 0.71311 0.0
C1314 C 0.25033 0.17554 0.65726 0.0
C1315 C 0.27433 0.16412 0.65217 0.0
C1316 C 0.22462 0.17001 0.64668 0.0
C1317 C 0.19855 0.18147 0.65163 0.0
C1318 C 0.18742 0.18306 0.6753 0.0
C1319 C 0.16299 0.19407 0.67982 0.0
C1320 C 0.14939 0.20342 0.66079 0.0
C1321 C 0.16014 0.20173 0.63719 0.0
C1322 C 0.18458 0.19076 0.63257 0.0
C1323 C 0.25197 0.08561 0.60536 0.0
C1324 C 0.2397 0.08707 0.58294 0.0
C1325 C 0.25394 0.10306 0.61973 0.0
C1326 C 0.24436 0.12247 0.61169 0.0
C1327 C 0.23174 0.12384 0.5894 0.0
C1328 C 0.22931 0.10628 0.5752 0.0
C1329 C 0.24737 0.14126 0.62659 0.0
C1330 C 0.22345 0.15294 0.6315 0.0
C1331 C 0.27336 0.14729 0.63663 0.0
C1332 C 0.30004 0.13693 0.63044 0.0
C1333 C 0.30948 0.13535 0.60629 0.0
C1334 C 0.33451 0.12544 0.60055 0.0
C1335 C 0.35041 0.11718 0.61881 0.0
C1336 C 0.34135 0.11886 0.64286 0.0
C1337 C 0.31632 0.12874 0.64871 0.0
H1338 H 0.36978 0.10951 0.61433 0.0
H1339 H 0.13047 0.21194 0.66432 0.0
H1340 H 0.27895 0.79393 0.23519 0.0
H1341 H 0.31052 0.79656 0.19886 0.0
H1342 H 0.35072 0.74065 0.22208 0.0
H1343 H 0.31882 0.73772 0.25818 0.0
H1344 H 0.38852 0.77751 0.20431 0.0
H1345 H 0.30799 0.73322 0.18322 0.0
H1346 H 0.25698 0.72528 0.17946 0.0
H1347 H 0.25179 0.77968 0.13281 0.0
H1348 H 0.30273 0.78813 0.13661 0.0
H1349 H 0.46724 0.7546 0.09889 0.0
H1350 H 0.43642 0.75292 0.13539 0.0
H1351 H 0.37777 0.79219 0.10015 0.0
H1352 H 0.40754 0.79224 0.06298 0.0
H1353 H 0.34892 0.76499 0.12487 0.0
H1354 H 0.42743 0.81006 0.14382 0.0
H1355 H 0.47774 0.82056 0.14755 0.0
H1356 H 0.48643 0.76931 0.19807 0.0
H1357 H 0.43624 0.75833 0.1944 0.0
C1358 C 0.29466 0.78231 0.23256 0.0
C1359 C 0.29648 0.7656 0.24935 0.0
C1360 C 0.31258 0.7838 0.21186 0.0
C1361 C 0.33285 0.76878 0.20787 0.0
C1362 C 0.3352 0.75239 0.22492 0.0
C1363 C 0.31694 0.75067 0.2454 0.0
C1364 C 0.35101 0.76979 0.18552 0.0
C1365 C 0.38004 0.77459 0.18692 0.0
C1366 C 0.33963 0.76662 0.16287 0.0
C1367 C 0.30908 0.76143 0.16041 0.0
C1368 C 0.29592 0.7436 0.17234 0.0
C1369 C 0.26703 0.73898 0.17017 0.0
C1370 C 0.25114 0.752 0.15596 0.0
C1371 C 0.26412 0.76963 0.14384 0.0
C1372 C 0.293 0.77433 0.14598 0.0
C1373 C 0.44767 0.76276 0.09901 0.0
C1374 C 0.43985 0.77379 0.07834 0.0
C1375 C 0.4302 0.76202 0.11993 0.0
C1376 C 0.40506 0.77293 0.12087 0.0
C1377 C 0.39711 0.78375 0.10003 0.0
C1378 C 0.41419 0.78395 0.07887 0.0
C1379 C 0.38682 0.77275 0.1434 0.0
C1380 C 0.35765 0.76808 0.14213 0.0
C1381 C 0.39804 0.77651 0.16613 0.0
C1382 C 0.42812 0.78328 0.16868 0.0
C1383 C 0.4401 0.80097 0.15564 0.0
C1384 C 0.4686 0.80701 0.15774 0.0
C1385 C 0.48529 0.79558 0.17299 0.0
C1386 C 0.47348 0.77813 0.18624 0.0
C1387 C 0.445 0.77201 0.18418 0.0
H1388 H 0.50736 0.80026 0.17457 0.0
H1389 H 0.22877 0.7484 0.1543 0.0
H1390 H 0.78532 0.20126 0.30793 0.0
H1391 H 0.78657 0.16998 0.33421 0.0
H1392 H 0.79361 0.20877 0.3957 0.0
H1393 H 0.79195 0.2402 0.36956 0.0
H1394 H 0.83004 0.17636 0.39657 0.0
H1395 H 0.73126 0.1853 0.38492 0.0
H1396 H 0.68947 0.19024 0.3609 0.0
H1397 H 0.7024 0.13172 0.32731 0.0
H1398 H 0.74454 0.12657 0.35089 0.0
H1399 H 0.79631 0.09756 0.48741 0.0
H1400 H 0.79617 0.12918 0.46114 0.0
H1401 H 0.78423 0.09057 0.39997 0.0
H1402 H 0.78386 0.059 0.42647 0.0
H1403 H 0.75047 0.12299 0.39882 0.0
H1404 H 0.84864 0.11354 0.41034 0.0
H1405 H 0.89078 0.10835 0.43383 0.0
H1406 H 0.8798 0.16739 0.46682 0.0
H1407 H 0.83726 0.17276 0.44383 0.0
C1408 C 0.78691 0.20316 0.32707 0.0
C1409 C 0.78829 0.22325 0.33666 0.0
C1410 C 0.78773 0.18526 0.34205 0.0
C1411 C 0.78985 0.18705 0.36694 0.0
C1412 C 0.79197 0.20705 0.37653 0.0
C1413 C 0.79111 0.22499 0.36155 0.0
C1414 C 0.78938 0.16802 0.38297 0.0
C1415 C 0.81249 0.16481 0.39732 0.0
C1416 C 0.76677 0.15272 0.38348 0.0
C1417 C 0.74122 0.15565 0.36951 0.0
C1418 C 0.72531 0.17355 0.37229 0.0
C1419 C 0.70154 0.17638 0.35877 0.0
C1420 C 0.69333 0.16133 0.34254 0.0
C1421 C 0.70881 0.14338 0.33986 0.0
C1422 C 0.73263 0.14049 0.35332 0.0
C1423 C 0.79366 0.09598 0.46834 0.0
C1424 C 0.79018 0.07609 0.45875 0.0
C1425 C 0.79369 0.11395 0.45335 0.0
C1426 C 0.79054 0.11224 0.42852 0.0
C1427 C 0.78673 0.09226 0.41904 0.0
C1428 C 0.78661 0.07429 0.43407 0.0
C1429 C 0.79115 0.13129 0.41246 0.0
C1430 C 0.76805 0.13451 0.39809 0.0
C1431 C 0.81383 0.14654 0.41186 0.0
C1432 C 0.8396 0.14346 0.42552 0.0
C1433 C 0.85508 0.12535 0.42273 0.0
C1434 C 0.87906 0.12238 0.43594 0.0
C1435 C 0.88793 0.13751 0.45184 0.0
C1436 C 0.87288 0.15567 0.45451 0.0
C1437 C 0.84884 0.15869 0.44139 0.0
H1438 H 0.9065 0.13518 0.46205 0.0
H1439 H 0.67494 0.16356 0.33207 0.0
H1440 H 0.33455 0.25941 0.75549 0.0
H1441 H 0.36528 0.25777 0.7896 0.0
H1442 H 0.29175 0.25627 0.83861 0.0
H1443 H 0.26126 0.25917 0.80442 0.0
H1444 H 0.3291 0.27992 0.85574 0.0
H1445 H 0.3316 0.21126 0.82475 0.0
H1446 H 0.338 0.18467 0.79414 0.0
H1447 H 0.42502 0.20569 0.78185 0.0
H1448 H 0.41904 0.23261 0.81216 0.0
H1449 H 0.4018 0.24076 0.95722 0.0
H1450 H 0.37101 0.24114 0.92291 0.0
H1451 H 0.44109 0.26558 0.87658 0.0
H1452 H 0.47178 0.26566 0.9109 0.0
H1453 H 0.40555 0.22943 0.85908 0.0
H1454 H 0.4 0.29884 0.89139 0.0
H1455 H 0.39162 0.32329 0.924 0.0
H1456 H 0.30684 0.29718 0.93619 0.0
H1457 H 0.31488 0.27233 0.90388 0.0
C1458 C 0.32509 0.25874 0.7736 0.0
C1459 C 0.29567 0.25936 0.77747 0.0
C1460 C 0.34258 0.25764 0.79308 0.0
C1461 C 0.33087 0.25645 0.81679 0.0
C1462 C 0.30137 0.25715 0.82057 0.0
C1463 C 0.28394 0.25876 0.80108 0.0
C1464 C 0.34934 0.25485 0.83763 0.0
C1465 C 0.3455 0.26863 0.85653 0.0
C1466 C 0.37107 0.24032 0.83873 0.0
C1467 C 0.37479 0.22408 0.82057 0.0
C1468 C 0.35205 0.2103 0.8154 0.0
C1469 C 0.35561 0.19517 0.79812 0.0
C1470 C 0.38188 0.19353 0.78601 0.0
C1471 C 0.40467 0.207 0.79122 0.0
C1472 C 0.40122 0.22219 0.80846 0.0
C1473 C 0.41059 0.24609 0.93967 0.0
C1474 C 0.43906 0.25325 0.93663 0.0
C1475 C 0.39305 0.24634 0.92017 0.0
C1476 C 0.40386 0.25341 0.89731 0.0
C1477 C 0.43245 0.26005 0.89411 0.0
C1478 C 0.44985 0.2602 0.91368 0.0
C1479 C 0.38513 0.25443 0.87683 0.0
C1480 C 0.38899 0.24058 0.85812 0.0
C1481 C 0.36305 0.26855 0.87612 0.0
C1482 C 0.35815 0.28358 0.89541 0.0
C1483 C 0.37966 0.29818 0.90118 0.0
C1484 C 0.37496 0.31214 0.91958 0.0
C1485 C 0.34874 0.31175 0.93221 0.0
C1486 C 0.32715 0.29744 0.92642 0.0
C1487 C 0.33176 0.28343 0.90806 0.0
H1488 H 0.34514 0.32257 0.94644 0.0
H1489 H 0.38459 0.1818 0.77264 0.0
H1490 H 0.29618 0.80167 0.3265 0.0
H1491 H 0.29054 0.83096 0.35337 0.0
H1492 H 0.19988 0.82418 0.3493 0.0
H1493 H 0.2054 0.79472 0.32258 0.0
H1494 H 0.22382 0.86658 0.34237 0.0
H1495 H 0.22498 0.80701 0.39751 0.0
H1496 H 0.24444 0.77492 0.41457 0.0
H1497 H 0.32046 0.80972 0.43076 0.0
H1498 H 0.30162 0.84197 0.41345 0.0
H1499 H 0.19126 0.93706 0.43409 0.0
H1500 H 0.19258 0.90641 0.40924 0.0
H1501 H 0.28013 0.89926 0.42478 0.0
H1502 H 0.27838 0.92882 0.45111 0.0
H1503 H 0.25548 0.86294 0.42599 0.0
H1504 H 0.25762 0.92164 0.36982 0.0
H1505 H 0.24104 0.9542 0.35135 0.0
H1506 H 0.16287 0.92218 0.33534 0.0
H1507 H 0.17884 0.88949 0.354 0.0
C1508 C 0.27508 0.80648 0.33131 0.0
C1509 C 0.25121 0.79595 0.32254 0.0
C1510 C 0.27188 0.82312 0.3467 0.0
C1511 C 0.24479 0.82963 0.35335 0.0
C1512 C 0.22094 0.81933 0.34436 0.0
C1513 C 0.22411 0.80248 0.32925 0.0
C1514 C 0.24145 0.84723 0.36969 0.0
C1515 C 0.23033 0.86575 0.36078 0.0
C1516 C 0.25069 0.84623 0.39344 0.0
C1517 C 0.26199 0.82687 0.40396 0.0
C1518 C 0.24595 0.80779 0.40451 0.0
C1519 C 0.25685 0.78957 0.41426 0.0
C1520 C 0.2837 0.79027 0.42368 0.0
C1521 C 0.29968 0.8092 0.42342 0.0
C1522 C 0.28889 0.82745 0.41366 0.0
C1523 C 0.21071 0.92882 0.43255 0.0
C1524 C 0.23478 0.93563 0.44456 0.0
C1525 C 0.21154 0.91142 0.41801 0.0
C1526 C 0.23663 0.90071 0.4147 0.0
C1527 C 0.26055 0.9073 0.42689 0.0
C1528 C 0.25961 0.92445 0.44173 0.0
C1529 C 0.23807 0.88258 0.39867 0.0
C1530 C 0.24884 0.86389 0.40762 0.0
C1531 C 0.22894 0.88356 0.3748 0.0
C1532 C 0.2193 0.90318 0.36354 0.0
C1533 C 0.23681 0.92159 0.36252 0.0
C1534 C 0.22754 0.94006 0.35199 0.0
C1535 C 0.20089 0.94027 0.34224 0.0
C1536 C 0.18348 0.922 0.34294 0.0
C1537 C 0.19264 0.90349 0.35347 0.0
H1538 H 0.19375 0.95459 0.33409 0.0
H1539 H 0.2921 0.77615 0.43123 0.0
H1540 H 0.70578 0.74511 0.76584 0.0
H1541 H 0.675 0.74528 0.80252 0.0
H1542 H 0.72262 0.79928 0.82602 0.0
H1543 H 0.75308 0.79947 0.78906 0.0
H1544 H 0.7104 0.76205 0.86143 0.0
H1545 H 0.66637 0.81045 0.80716 0.0
H1546 H 0.64593 0.82044 0.76876 0.0
H1547 H 0.58345 0.76973 0.77879 0.0
H1548 H 0.60383 0.75924 0.8171 0.0
H1549 H 0.62177 0.78891 0.96021 0.0
H1550 H 0.65308 0.78891 0.924 0.0
H1551 H 0.58869 0.7537 0.8879 0.0
H1552 H 0.55672 0.75513 0.92361 0.0
H1553 H 0.61018 0.78111 0.8582 0.0
H1554 H 0.65099 0.73176 0.91084 0.0
H1555 H 0.67082 0.71848 0.94824 0.0
H1556 H 0.73823 0.76579 0.94066 0.0
H1557 H 0.71857 0.77955 0.90337 0.0
C1558 C 0.70965 0.75698 0.77888 0.0
C1559 C 0.73169 0.7723 0.7747 0.0
C1560 C 0.69209 0.75708 0.79972 0.0
C1561 C 0.69662 0.77229 0.81687 0.0
C1562 C 0.71888 0.78742 0.81294 0.0
C1563 C 0.73611 0.78758 0.79186 0.0
C1564 C 0.67786 0.77249 0.83881 0.0
C1565 C 0.68857 0.76647 0.8609 0.0
C1566 C 0.6492 0.77753 0.83779 0.0
C1567 C 0.63682 0.78392 0.81485 0.0
C1568 C 0.64845 0.8013 0.80106 0.0
C1569 C 0.63684 0.80709 0.77934 0.0
C1570 C 0.61346 0.79569 0.7713 0.0
C1571 C 0.60159 0.77852 0.78502 0.0
C1572 C 0.61315 0.77266 0.80674 0.0
C1573 C 0.61437 0.78132 0.94442 0.0
C1574 C 0.58686 0.77219 0.94449 0.0
C1575 C 0.63233 0.78109 0.92383 0.0
C1576 C 0.62351 0.77101 0.90322 0.0
C1577 C 0.59606 0.76162 0.90348 0.0
C1578 C 0.57786 0.76231 0.92388 0.0
C1579 C 0.64257 0.77067 0.88122 0.0
C1580 C 0.63196 0.77664 0.85899 0.0
C1581 C 0.67118 0.76509 0.88206 0.0
C1582 C 0.68315 0.7568 0.90442 0.0
C1583 C 0.66994 0.73942 0.91723 0.0
C1584 C 0.68116 0.7318 0.9384 0.0
C1585 C 0.70573 0.74132 0.94685 0.0
C1586 C 0.71918 0.75845 0.93411 0.0
C1587 C 0.70802 0.76616 0.91294 0.0
H1588 H 0.71439 0.73539 0.96324 0.0
H1589 H 0.60449 0.80019 0.75448 0.0
loop_
_geom_bond_atom_site_label_1
_geom_bond_atom_site_label_2
_geom_bond_distance
_geom_bond_site_symmetry_2
_ccdc_geom_bond_type
H0 C3 0.931 . S
H1 C6 0.928 . S
H2 C8 0.930 . S
C3 H0 0.931 . S
C3 C4 1.413 . S
C3 C5 1.360 . S
C4 C3 1.413 . S
C4 C8 1.429 . S
C5 C3 1.360 . S
C5 C6 1.372 . S
C6 H1 0.928 . S
C6 C5 1.372 . S
C6 C7 1.404 . S
C7 C6 1.404 . S
C7 C8 1.391 . S
C8 H2 0.930 . S
C8 C4 1.429 . S
C8 C7 1.391 . S
H9 C12 0.931 . S
H10 C15 0.928 . S
H11 C17 0.930 . S
C12 H9 0.931 . S
C12 C13 1.413 . S
C12 C14 1.360 . S
C13 C12 1.413 . S
C13 C17 1.429 . S
C14 C12 1.360 . S
C14 C15 1.372 . S
C15 H10 0.928 . S
C15 C14 1.372 . S
C15 C16 1.404 . S
C16 C15 1.404 . S
C16 C17 1.391 . S
C17 H11 0.930 . S
C17 C13 1.429 . S
C17 C16 1.391 . S
H18 C21 0.931 . S
H19 C24 0.928 . S
H20 C26 0.930 . S
C21 H18 0.931 . S
C21 C22 1.413 . S
C21 C23 1.360 . S
C22 C21 1.413 . S
C22 C26 1.429 . S
C23 C21 1.360 . S
C23 C24 1.372 . S
C24 H19 0.928 . S
C24 C23 1.372 . S
C24 C25 1.404 . S
C25 C24 1.404 . S
C25 C26 1.391 . S
C26 H20 0.930 . S
C26 C22 1.429 . S
C26 C25 1.391 . S
H27 C30 0.931 . S
H28 C33 0.928 . S
H29 C35 0.930 . S
C30 H27 0.931 . S
C30 C31 1.413 . S
C30 C32 1.360 . S
C31 C30 1.413 . S
C31 C35 1.429 . S
C32 C30 1.360 . S
C32 C33 1.372 . S
C33 H28 0.928 . S
C33 C32 1.372 . S
C33 C34 1.404 . S
C34 C33 1.404 . S
C34 C35 1.391 . S
C35 H29 0.930 . S
C35 C31 1.429 . S
C35 C34 1.391 . S
H36 C39 0.931 . S
H37 C42 0.928 . S
H38 C44 0.930 . S
C39 H36 0.931 . S
C39 C40 1.413 . S
C39 C41 1.360 . S
C40 C39 1.413 . S
C40 C44 1.429 . S
C41 C39 1.360 . S
C41 C42 1.372 . S
C42 H37 0.928 . S
C42 C41 1.372 . S
C42 C43 1.404 . S
C43 C42 1.404 . S
C43 C44 1.391 . S
C44 H38 0.930 . S
C44 C40 1.429 . S
C44 C43 1.391 . S
H45 C48 0.931 . S
H46 C51 0.928 . S
H47 C53 0.930 . S
C48 H45 0.931 . S
C48 C49 1.413 . S
C48 C50 1.360 . S
C49 C48 1.413 . S
C49 C53 1.429 . S
C50 C48 1.360 . S
C50 C51 1.372 . S
C51 H46 0.928 . S
C51 C50 1.372 . S
C51 C52 1.404 . S
C52 C51 1.404 . S
C52 C53 1.391 . S
C53 H47 0.930 . S
C53 C49 1.429 . S
C53 C52 1.391 . S
H54 C57 0.931 . S
H55 C60 0.928 . S
H56 C62 0.930 . S
C57 H54 0.931 . S
C57 C58 1.413 . S
C57 C59 1.360 . S
C58 C57 1.413 . S
C58 C62 1.429 . S
C59 C57 1.360 . S
C59 C60 1.372 . S
C60 H55 0.928 . S
C60 C59 1.372 . S
C60 C61 1.404 . S
C61 C60 1.404 . S
C61 C62 1.391 . S
C62 H56 0.930 . S
C62 C58 1.429 . S
C62 C61 1.391 . S
H63 C66 0.931 . S
H64 C69 0.928 . S
H65 C71 0.930 . S
C66 H63 0.931 . S
C66 C67 1.413 . S
C66 C68 1.360 . S
C67 C66 1.413 . S
C67 C71 1.429 . S
C68 C66 1.360 . S
C68 C69 1.372 . S
C69 H64 0.928 . S
C69 C68 1.372 . S
C69 C70 1.404 . S
C70 C69 1.404 . S
C70 C71 1.391 . S
C71 H65 0.930 . S
C71 C67 1.429 . S
C71 C70 1.391 . S
C72 C73 1.443 . S
C72 N76 1.376 . S
C72 C110 1.389 . S
C73 C72 1.443 . S
C73 C74 1.340 . S
C73 H113 0.951 . S
C74 C73 1.340 . S
C74 C75 1.439 . S
C74 H114 0.950 . S
C75 C74 1.439 . S
C75 N76 1.374 . S
C75 C109 1.395 . S
N76 C72 1.376 . S
N76 C75 1.374 . S
N76 Co77 2.008 . S
Co77 N76 2.008 . S
Co77 N78 1.984 1_455 S
Co77 N83 2.008 . S
Co77 N88 1.995 . S
Co77 N93 2.282 . S
Co77 N99 2.282 1_455 S
N78 Co77 1.984 1_655 S
N78 C79 1.377 . S
N78 C82 1.395 . S
C79 N78 1.377 . S
C79 C80 1.464 . S
C79 C109 1.374 1_655 S
C80 C79 1.464 . S
C80 C81 1.339 . S
C80 H115 0.949 . S
C81 C80 1.339 . S
C81 C82 1.439 . S
C81 H116 0.950 . S
C82 N78 1.395 . S
C82 C81 1.439 . S
C82 C111 1.392 . S
N83 Co77 2.008 . S
N83 C84 1.376 1_455 S
N83 C87 1.374 . S
C84 N83 1.376 1_655 S
C84 C85 1.443 . S
C84 C111 1.389 . S
C85 C84 1.443 . S
C85 C86 1.340 . S
C85 H117 0.951 . S
C86 C85 1.340 . S
C86 C87 1.439 1_655 S
C86 H118 0.950 . S
C87 N83 1.374 . S
C87 C86 1.439 1_455 S
C87 C112 1.395 . S
N88 Co77 1.995 . S
N88 C89 1.376 . S
N88 C92 1.383 . S
C89 N88 1.376 . S
C89 C90 1.446 . S
C89 C112 1.391 . S
C90 C89 1.446 . S
C90 C91 1.339 . S
C90 H119 0.949 . S
C91 C90 1.339 . S
C91 C92 1.439 . S
C91 H120 0.950 . S
C92 N88 1.383 . S
C92 C91 1.439 . S
C92 C110 1.392 . S
N93 Co77 2.282 . S
N93 C96 1.332 . S
N93 C98 1.332 . S
C94 C95 1.386 . S
C94 C97 1.388 . S
C95 C94 1.386 . S
C95 C96 1.382 . S
C95 H121 0.950 . S
C96 N93 1.332 . S
C96 C95 1.382 . S
C96 H107 0.952 . S
C97 C94 1.388 . S
C97 C98 1.382 . S
C97 H122 0.950 . S
C98 N93 1.332 . S
C98 C97 1.382 . S
C98 H108 0.948 . S
N99 Co77 2.282 1_655 S
N99 C103 1.332 . S
N99 C104 1.332 . S
C100 C101 1.388 . S
C100 C104 1.382 . S
C100 H123 0.950 . S
C101 C100 1.388 . S
C101 C102 1.386 . S
C102 C101 1.386 . S
C102 C103 1.382 . S
C102 H124 0.950 . S
C103 N99 1.332 . S
C103 C102 1.382 . S
C103 H105 0.952 . S
C104 N99 1.332 . S
C104 C100 1.382 . S
C104 H106 0.948 . S
H105 C103 0.952 . S
H106 C104 0.948 . S
H107 C96 0.952 . S
H108 C98 0.948 . S
C109 C75 1.395 . S
C109 C79 1.374 1_455 S
C110 C72 1.389 . S
C110 C92 1.392 . S
C111 C82 1.392 . S
C111 C84 1.389 . S
C112 C87 1.395 . S
C112 C89 1.391 . S
H113 C73 0.951 . S
H114 C74 0.950 . S
H115 C80 0.949 . S
H116 C81 0.950 . S
H117 C85 0.951 . S
H118 C86 0.950 . S
H119 C90 0.949 . S
H120 C91 0.950 . S
H121 C95 0.950 . S
H122 C97 0.950 . S
H123 C100 0.950 . S
H124 C102 0.950 . S
C125 C126 1.443 . S
C125 N129 1.376 . S
C125 C163 1.389 . S
C126 C125 1.443 . S
C126 C127 1.340 . S
C126 H166 0.951 . S
C127 C126 1.340 . S
C127 C128 1.439 . S
C127 H167 0.950 . S
C128 C127 1.439 . S
C128 N129 1.374 . S
C128 C162 1.395 . S
N129 C125 1.376 . S
N129 C128 1.374 . S
N129 Co130 2.008 . S
Co130 N129 2.008 . S
Co130 N131 1.995 1_455 S
Co130 N136 2.008 1_455 S
Co130 N141 1.995 . S
Co130 N146 2.282 . S
Co130 N152 2.282 1_455 S
N131 Co130 1.995 1_655 S
N131 C132 1.376 . S
N131 C135 1.383 . S
C132 N131 1.376 . S
C132 C133 1.446 . S
C132 C162 1.391 1_655 S
C133 C132 1.446 . S
C133 C134 1.339 . S
C133 H168 0.949 . S
C134 C133 1.339 . S
C134 C135 1.439 . S
C134 H169 0.950 . S
C135 N131 1.383 . S
C135 C134 1.439 . S
C135 C164 1.392 . S
N136 Co130 2.008 1_655 S
N136 C137 1.376 . S
N136 C140 1.374 1_655 S
C137 N136 1.376 . S
C137 C138 1.443 . S
C137 C164 1.389 . S
C138 C137 1.443 . S
C138 C139 1.340 . S
C138 H170 0.951 . S
C139 C138 1.340 . S
C139 C140 1.439 1_655 S
C139 H171 0.950 . S
C140 N136 1.374 1_455 S
C140 C139 1.439 1_455 S
C140 C165 1.395 . S
N141 Co130 1.995 . S
N141 C142 1.376 . S
N141 C145 1.383 . S
C142 N141 1.376 . S
C142 C143 1.446 . S
C142 C165 1.391 . S
C143 C142 1.446 . S
C143 C144 1.339 . S
C143 H172 0.949 . S
C144 C143 1.339 . S
C144 C145 1.439 . S
C144 H173 0.950 . S
C145 N141 1.383 . S
C145 C144 1.439 . S
C145 C163 1.392 . S
N146 Co130 2.282 . S
N146 C149 1.332 . S
N146 C151 1.332 . S
C147 C148 1.386 . S
C147 C150 1.388 . S
C148 C147 1.386 . S
C148 C149 1.382 . S
C148 H174 0.950 . S
C149 N146 1.332 . S
C149 C148 1.382 . S
C149 H160 0.952 . S
C150 C147 1.388 . S
C150 C151 1.382 . S
C150 H175 0.950 . S
C151 N146 1.332 . S
C151 C150 1.382 . S
C151 H161 0.948 . S
N152 Co130 2.282 1_655 S
N152 C156 1.332 . S
N152 C157 1.332 . S
C153 C154 1.388 . S
C153 C157 1.382 . S
C153 H176 0.950 . S
C154 C153 1.388 . S
C154 C155 1.386 . S
C155 C154 1.386 . S
C155 C156 1.382 . S
C155 H177 0.950 . S
C156 N152 1.332 . S
C156 C155 1.382 . S
C156 H158 0.952 . S
C157 N152 1.332 . S
C157 C153 1.382 . S
C157 H159 0.948 . S
H158 C156 0.952 . S
H159 C157 0.948 . S
H160 C149 0.952 . S
H161 C151 0.948 . S
C162 C128 1.395 . S
C162 C132 1.391 1_455 S
C163 C125 1.389 . S
C163 C145 1.392 . S
C164 C135 1.392 . S
C164 C137 1.389 . S
C165 C140 1.395 . S
C165 C142 1.391 . S
H166 C126 0.951 . S
H167 C127 0.950 . S
H168 C133 0.949 . S
H169 C134 0.950 . S
H170 C138 0.951 . S
H171 C139 0.950 . S
H172 C143 0.949 . S
H173 C144 0.950 . S
H174 C148 0.950 . S
H175 C150 0.950 . S
H176 C153 0.950 . S
H177 C155 0.950 . S
C178 C179 1.443 . S
C178 N182 1.376 . S
C178 C216 1.389 . S
C179 C178 1.443 . S
C179 C180 1.340 . S
C179 H219 0.951 . S
C180 C179 1.340 . S
C180 C181 1.439 . S
C180 H220 0.950 . S
C181 C180 1.439 . S
C181 N182 1.374 . S
C181 C215 1.395 1_565 S
N182 C178 1.376 . S
N182 C181 1.374 . S
N182 Co183 2.008 1_565 S
Co183 N182 2.008 1_545 S
Co183 N184 1.995 . S
Co183 N189 2.008 . S
Co183 N194 1.995 1_545 S
Co183 N199 2.282 . S
Co183 N205 2.282 1_545 S
N184 Co183 1.995 . S
N184 C185 1.376 . S
N184 C188 1.383 . S
C185 N184 1.376 . S
C185 C186 1.446 . S
C185 C215 1.391 . S
C186 C185 1.446 . S
C186 C187 1.339 . S
C186 H221 0.949 . S
C187 C186 1.339 . S
C187 C188 1.439 . S
C187 H222 0.950 . S
C188 N184 1.383 . S
C188 C187 1.439 . S
C188 C217 1.392 . S
N189 Co183 2.008 . S
N189 C190 1.376 . S
N189 C193 1.374 . S
C190 N189 1.376 . S
C190 C191 1.443 . S
C190 C217 1.389 . S
C191 C190 1.443 . S
C191 C192 1.340 . S
C191 H223 0.951 . S
C192 C191 1.340 . S
C192 C193 1.439 . S
C192 H224 0.950 . S
C193 N189 1.374 . S
C193 C192 1.439 . S
C193 C218 1.395 . S
N194 Co183 1.995 1_565 S
N194 C195 1.376 . S
N194 C198 1.383 . S
C195 N194 1.376 . S
C195 C196 1.446 . S
C195 C218 1.391 1_565 S
C196 C195 1.446 . S
C196 C197 1.339 . S
C196 H225 0.949 . S
C197 C196 1.339 . S
C197 C198 1.439 . S
C197 H226 0.950 . S
C198 N194 1.383 . S
C198 C197 1.439 . S
C198 C216 1.392 . S
N199 Co183 2.282 . S
N199 C202 1.332 . S
N199 C204 1.332 . S
C200 C201 1.386 . S
C200 C203 1.388 . S
C201 C200 1.386 . S
C201 C202 1.382 . S
C201 H227 0.950 . S
C202 N199 1.332 . S
C202 C201 1.382 . S
C202 H213 0.952 . S
C203 C200 1.388 . S
C203 C204 1.382 . S
C203 H228 0.950 . S
C204 N199 1.332 . S
C204 C203 1.382 . S
C204 H214 0.948 . S
N205 Co183 2.282 1_565 S
N205 C209 1.332 . S
N205 C210 1.332 . S
C206 C207 1.388 . S
C206 C210 1.382 . S
C206 H229 0.950 . S
C207 C206 1.388 . S
C207 C208 1.386 . S
C208 C207 1.386 . S
C208 C209 1.382 . S
C208 H230 0.950 . S
C209 N205 1.332 . S
C209 C208 1.382 . S
C209 H211 0.952 . S
C210 N205 1.332 . S
C210 C206 1.382 . S
C210 H212 0.948 . S
H211 C209 0.952 . S
H212 C210 0.948 . S
H213 C202 0.952 . S
H214 C204 0.948 . S
C215 C181 1.395 1_545 S
C215 C185 1.391 . S
C216 C178 1.389 . S
C216 C198 1.392 . S
C217 C188 1.392 . S
C217 C190 1.389 . S
C218 C193 1.395 . S
C218 C195 1.391 1_545 S
H219 C179 0.951 . S
H220 C180 0.950 . S
H221 C186 0.949 . S
H222 C187 0.950 . S
H223 C191 0.951 . S
H224 C192 0.950 . S
H225 C196 0.949 . S
H226 C197 0.950 . S
H227 C201 0.950 . S
H228 C203 0.950 . S
H229 C206 0.950 . S
H230 C208 0.950 . S
C231 C232 1.443 . S
C231 N235 1.376 . S
C231 C269 1.389 . S
C232 C231 1.443 . S
C232 C233 1.340 . S
C232 H272 0.951 . S
C233 C232 1.340 . S
C233 C234 1.439 . S
C233 H273 0.950 . S
C234 C233 1.439 . S
C234 N235 1.374 . S
C234 C268 1.395 . S
N235 C231 1.376 . S
N235 C234 1.374 . S
N235 Co236 2.008 . S
Co236 N235 2.008 . S
Co236 N237 1.995 1_554 S
Co236 N242 2.008 1_554 S
Co236 N247 1.995 . S
Co236 N252 2.282 1_554 S
Co236 N258 2.282 . S
N237 Co236 1.995 1_556 S
N237 C238 1.376 . S
N237 C241 1.383 . S
C238 N237 1.376 . S
C238 C239 1.446 . S
C238 C268 1.391 1_556 S
C239 C238 1.446 . S
C239 C240 1.339 . S
C239 H274 0.949 . S
C240 C239 1.339 . S
C240 C241 1.439 . S
C240 H275 0.950 . S
C241 N237 1.383 . S
C241 C240 1.439 . S
C241 C270 1.392 . S
N242 Co236 2.008 1_556 S
N242 C243 1.376 . S
N242 C246 1.374 . S
C243 N242 1.376 . S
C243 C244 1.443 . S
C243 C270 1.389 . S
C244 C243 1.443 . S
C244 C245 1.340 . S
C244 H276 0.951 . S
C245 C244 1.340 . S
C245 C246 1.439 . S
C245 H277 0.950 . S
C246 N242 1.374 . S
C246 C245 1.439 . S
C246 C271 1.395 1_556 S
N247 Co236 1.995 . S
N247 C248 1.376 . S
N247 C251 1.383 . S
C248 N247 1.376 . S
C248 C249 1.446 . S
C248 C271 1.391 . S
C249 C248 1.446 . S
C249 C250 1.339 . S
C249 H278 0.949 . S
C250 C249 1.339 . S
C250 C251 1.439 . S
C250 H279 0.950 . S
C251 N247 1.383 . S
C251 C250 1.439 . S
C251 C269 1.392 . S
N252 Co236 2.282 1_556 S
N252 C255 1.332 . S
N252 C257 1.332 . S
C253 C254 1.386 . S
C253 C256 1.388 . S
C254 C253 1.386 . S
C254 C255 1.382 . S
C254 H280 0.950 . S
C255 N252 1.332 . S
C255 C254 1.382 . S
C255 H266 0.952 . S
C256 C253 1.388 . S
C256 C257 1.382 . S
C256 H281 0.950 . S
C257 N252 1.332 . S
C257 C256 1.382 . S
C257 H267 0.948 . S
N258 Co236 2.282 . S
N258 C262 1.332 . S
N258 C263 1.332 . S
C259 C260 1.388 . S
C259 C263 1.382 . S
C259 H282 0.950 . S
C260 C259 1.388 . S
C260 C261 1.386 . S
C261 C260 1.386 . S
C261 C262 1.382 . S
C261 H283 0.950 . S
C262 N258 1.332 . S
C262 C261 1.382 . S
C262 H264 0.952 . S
C263 N258 1.332 . S
C263 C259 1.382 . S
C263 H265 0.948 . S
H264 C262 0.952 . S
H265 C263 0.948 . S
H266 C255 0.952 . S
H267 C257 0.948 . S
C268 C234 1.395 . S
C268 C238 1.391 1_554 S
C269 C231 1.389 . S
C269 C251 1.392 . S
C270 C241 1.392 . S
C270 C243 1.389 . S
C271 C246 1.395 1_554 S
C271 C248 1.391 . S
H272 C232 0.951 . S
H273 C233 0.950 . S
H274 C239 0.949 . S
H275 C240 0.950 . S
H276 C244 0.951 . S
H277 C245 0.950 . S
H278 C249 0.949 . S
H279 C250 0.950 . S
H280 C254 0.950 . S
H281 C256 0.950 . S
H282 C259 0.950 . S
H283 C261 0.950 . S
C284 C285 1.443 . S
C284 N288 1.376 1_565 S
C284 C322 1.389 . S
C285 C284 1.443 . S
C285 C286 1.340 . S
C285 H325 0.951 . S
C286 C285 1.340 . S
C286 C287 1.439 1_565 S
C286 H326 0.950 . S
C287 C286 1.439 1_545 S
C287 N288 1.374 . S
C287 C321 1.395 . S
N288 C284 1.376 1_545 S
N288 C287 1.374 . S
N288 Co289 2.008 . S
Co289 N288 2.008 . S
Co289 N290 1.995 . S
Co289 N295 2.008 . S
Co289 N300 1.995 . S
Co289 N305 2.282 . S
Co289 N311 2.282 1_545 S
N290 Co289 1.995 . S
N290 C291 1.376 . S
N290 C294 1.383 . S
C291 N290 1.376 . S
C291 C292 1.446 . S
C291 C321 1.391 . S
C292 C291 1.446 . S
C292 C293 1.339 . S
C292 H327 0.949 . S
C293 C292 1.339 . S
C293 C294 1.439 . S
C293 H328 0.950 . S
C294 N290 1.383 . S
C294 C293 1.439 . S
C294 C323 1.392 . S
N295 Co289 2.008 . S
N295 C296 1.376 . S
N295 C299 1.374 . S
C296 N295 1.376 . S
C296 C297 1.443 . S
C296 C323 1.389 . S
C297 C296 1.443 . S
C297 C298 1.340 . S
C297 H329 0.951 . S
C298 C297 1.340 . S
C298 C299 1.439 . S
C298 H330 0.950 . S
C299 N295 1.374 . S
C299 C298 1.439 . S
C299 C324 1.395 . S
N300 Co289 1.995 . S
N300 C301 1.376 . S
N300 C304 1.383 1_545 S
C301 N300 1.376 . S
C301 C302 1.446 1_545 S
C301 C324 1.391 . S
C302 C301 1.446 1_565 S
C302 C303 1.339 . S
C302 H331 0.949 . S
C303 C302 1.339 . S
C303 C304 1.439 . S
C303 H332 0.950 . S
C304 N300 1.383 1_565 S
C304 C303 1.439 . S
C304 C322 1.392 . S
N305 Co289 2.282 . S
N305 C308 1.332 . S
N305 C310 1.332 . S
C306 C307 1.386 . S
C306 C309 1.388 . S
C307 C306 1.386 . S
C307 C308 1.382 . S
C307 H333 0.950 . S
C308 N305 1.332 . S
C308 C307 1.382 . S
C308 H319 0.952 . S
C309 C306 1.388 . S
C309 C310 1.382 . S
C309 H334 0.950 . S
C310 N305 1.332 . S
C310 C309 1.382 . S
C310 H320 0.948 . S
N311 Co289 2.282 1_565 S
N311 C315 1.332 . S
N311 C316 1.332 . S
C312 C313 1.388 . S
C312 C316 1.382 . S
C312 H335 0.950 . S
C313 C312 1.388 . S
C313 C314 1.386 . S
C314 C313 1.386 . S
C314 C315 1.382 . S
C314 H336 0.950 . S
C315 N311 1.332 . S
C315 C314 1.382 . S
C315 H317 0.952 . S
C316 N311 1.332 . S
C316 C312 1.382 . S
C316 H318 0.948 . S
H317 C315 0.952 . S
H318 C316 0.948 . S
H319 C308 0.952 . S
H320 C310 0.948 . S
C321 C287 1.395 . S
C321 C291 1.391 . S
C322 C284 1.389 . S
C322 C304 1.392 . S
C323 C294 1.392 . S
C323 C296 1.389 . S
C324 C299 1.395 . S
C324 C301 1.391 . S
H325 C285 0.951 . S
H326 C286 0.950 . S
H327 C292 0.949 . S
H328 C293 0.950 . S
H329 C297 0.951 . S
H330 C298 0.950 . S
H331 C302 0.949 . S
H332 C303 0.950 . S
H333 C307 0.950 . S
H334 C309 0.950 . S
H335 C312 0.950 . S
H336 C314 0.950 . S
C337 C338 1.443 . S
C337 N341 1.376 . S
C337 C375 1.389 . S
C338 C337 1.443 . S
C338 C339 1.340 . S
C338 H378 0.951 . S
C339 C338 1.340 . S
C339 C340 1.439 . S
C339 H379 0.950 . S
C340 C339 1.439 . S
C340 N341 1.374 . S
C340 C374 1.395 . S
N341 C337 1.376 . S
N341 C340 1.374 . S
N341 Co342 2.008 . S
Co342 N341 2.008 . S
Co342 N343 1.995 . S
Co342 N348 2.008 . S
Co342 N353 1.995 . S
Co342 N358 2.282 1_554 S
Co342 N364 2.282 . S
N343 Co342 1.995 . S
N343 C344 1.376 . S
N343 C347 1.383 1_554 S
C344 N343 1.376 . S
C344 C345 1.446 1_554 S
C344 C374 1.391 . S
C345 C344 1.446 1_556 S
C345 C346 1.339 . S
C345 H380 0.949 . S
C346 C345 1.339 . S
C346 C347 1.439 . S
C346 H381 0.950 . S
C347 N343 1.383 1_556 S
C347 C346 1.439 . S
C347 C376 1.392 . S
N348 Co342 2.008 . S
N348 C349 1.376 1_554 S
N348 C352 1.374 . S
C349 N348 1.376 1_556 S
C349 C350 1.443 . S
C349 C376 1.389 . S
C350 C349 1.443 . S
C350 C351 1.340 . S
C350 H382 0.951 . S
C351 C350 1.340 . S
C351 C352 1.439 1_556 S
C351 H383 0.950 . S
C352 N348 1.374 . S
C352 C351 1.439 1_554 S
C352 C377 1.395 . S
N353 Co342 1.995 . S
N353 C354 1.376 . S
N353 C357 1.383 . S
C354 N353 1.376 . S
C354 C355 1.446 . S
C354 C377 1.391 . S
C355 C354 1.446 . S
C355 C356 1.339 . S
C355 H384 0.949 . S
C356 C355 1.339 . S
C356 C357 1.439 . S
C356 H385 0.950 . S
C357 N353 1.383 . S
C357 C356 1.439 . S
C357 C375 1.392 . S
N358 Co342 2.282 1_556 S
N358 C361 1.332 . S
N358 C363 1.332 . S
C359 C360 1.386 . S
C359 C362 1.388 . S
C360 C359 1.386 . S
C360 C361 1.382 . S
C360 H386 0.950 . S
C361 N358 1.332 . S
C361 C360 1.382 . S
C361 H372 0.952 . S
C362 C359 1.388 . S
C362 C363 1.382 . S
C362 H387 0.950 . S
C363 N358 1.332 . S
C363 C362 1.382 . S
C363 H373 0.948 . S
N364 Co342 2.282 . S
N364 C368 1.332 . S
N364 C369 1.332 . S
C365 C366 1.388 . S
C365 C369 1.382 . S
C365 H388 0.950 . S
C366 C365 1.388 . S
C366 C367 1.386 . S
C367 C366 1.386 . S
C367 C368 1.382 . S
C367 H389 0.950 . S
C368 N364 1.332 . S
C368 C367 1.382 . S
C368 H370 0.952 . S
C369 N364 1.332 . S
C369 C365 1.382 . S
C369 H371 0.948 . S
H370 C368 0.952 . S
H371 C369 0.948 . S
H372 C361 0.952 . S
H373 C363 0.948 . S
C374 C340 1.395 . S
C374 C344 1.391 . S
C375 C337 1.389 . S
C375 C357 1.392 . S
C376 C347 1.392 . S
C376 C349 1.389 . S
C377 C352 1.395 . S
C377 C354 1.391 . S
H378 C338 0.951 . S
H379 C339 0.950 . S
H380 C345 0.949 . S
H381 C346 0.950 . S
H382 C350 0.951 . S
H383 C351 0.950 . S
H384 C355 0.949 . S
H385 C356 0.950 . S
H386 C360 0.950 . S
H387 C362 0.950 . S
H388 C365 0.950 . S
H389 C367 0.950 . S
H390 C408 0.951 . S
H391 C410 0.951 . S
H392 C412 0.950 . S
H393 C413 0.950 . S
H394 C415 0.950 . S
H395 C418 0.950 . S
H396 C419 0.950 . S
H397 C421 0.950 . S
H398 C422 0.950 . S
H399 C423 0.951 . S
H400 C425 0.951 . S
H401 C427 0.950 . S
H402 C428 0.950 . S
H403 C430 0.950 . S
H404 C433 0.950 . S
H405 C434 0.950 . S
H406 C436 0.950 . S
H407 C437 0.950 . S
C408 H390 0.951 . S
C408 C409 1.366 . S
C408 C410 1.388 . S
C409 C408 1.366 . S
C409 C413 1.385 . S
C410 H391 0.951 . S
C410 C408 1.388 . S
C410 C411 1.366 . S
C411 C410 1.366 . S
C411 C412 1.414 . S
C411 C414 1.499 . S
C412 H392 0.950 . S
C412 C411 1.414 . S
C412 C413 1.374 . S
C413 H393 0.950 . S
C413 C409 1.385 . S
C413 C412 1.374 . S
C414 C411 1.499 . S
C414 C415 1.373 . S
C414 C416 1.389 . S
C415 H394 0.950 . S
C415 C414 1.373 . S
C415 C431 1.377 . S
C416 C414 1.389 . S
C416 C417 1.524 . S
C416 C430 1.377 . S
C417 C416 1.524 . S
C417 C418 1.397 . S
C417 C422 1.363 . S
C418 H395 0.950 . S
C418 C417 1.397 . S
C418 C419 1.334 . S
C419 H396 0.950 . S
C419 C418 1.334 . S
C419 C420 1.287 . S
C420 C419 1.287 . S
C420 C421 1.524 . S
C420 H439 0.913 . S
C421 H397 0.950 . S
C421 C420 1.524 . S
C421 C422 1.415 . S
C422 H398 0.950 . S
C422 C417 1.363 . S
C422 C421 1.415 . S
C423 H399 0.951 . S
C423 C424 1.366 . S
C423 C425 1.388 . S
C424 C423 1.366 . S
C424 C428 1.385 . S
C425 H400 0.951 . S
C425 C423 1.388 . S
C425 C426 1.366 . S
C426 C425 1.366 . S
C426 C427 1.414 . S
C426 C429 1.499 . S
C427 H401 0.950 . S
C427 C426 1.414 . S
C427 C428 1.374 . S
C428 H402 0.950 . S
C428 C424 1.385 . S
C428 C427 1.374 . S
C429 C426 1.499 . S
C429 C430 1.373 . S
C429 C431 1.389 . S
C430 H403 0.950 . S
C430 C416 1.377 . S
C430 C429 1.373 . S
C431 C415 1.377 . S
C431 C429 1.389 . S
C431 C432 1.524 . S
C432 C431 1.524 . S
C432 C433 1.397 . S
C432 C437 1.363 . S
C433 H404 0.950 . S
C433 C432 1.397 . S
C433 C434 1.334 . S
C434 H405 0.950 . S
C434 C433 1.334 . S
C434 C435 1.287 . S
C435 C434 1.287 . S
C435 C436 1.524 . S
C435 H438 0.999 . S
C436 H406 0.950 . S
C436 C435 1.524 . S
C436 C437 1.415 . S
C437 H407 0.950 . S
C437 C432 1.363 . S
C437 C436 1.415 . S
H438 C435 0.999 . S
H439 C420 0.913 . S
H440 C458 0.951 . S
H441 C460 0.951 . S
H442 C462 0.950 . S
H443 C463 0.950 . S
H444 C465 0.950 . S
H445 C468 0.950 . S
H446 C469 0.950 . S
H447 C471 0.950 . S
H448 C472 0.950 . S
H449 C473 0.951 . S
H450 C475 0.951 . S
H451 C477 0.950 . S
H452 C478 0.950 . S
H453 C480 0.950 . S
H454 C483 0.950 . S
H455 C484 0.950 . S
H456 C486 0.950 . S
H457 C487 0.950 . S
C458 H440 0.951 . S
C458 C459 1.366 . S
C458 C460 1.388 . S
C459 C458 1.366 . S
C459 C463 1.385 . S
C460 H441 0.951 . S
C460 C458 1.388 . S
C460 C461 1.366 . S
C461 C460 1.366 . S
C461 C462 1.414 . S
C461 C464 1.499 . S
C462 H442 0.950 . S
C462 C461 1.414 . S
C462 C463 1.374 . S
C463 H443 0.950 . S
C463 C459 1.385 . S
C463 C462 1.374 . S
C464 C461 1.499 . S
C464 C465 1.373 . S
C464 C466 1.389 . S
C465 H444 0.950 . S
C465 C464 1.373 . S
C465 C481 1.377 . S
C466 C464 1.389 . S
C466 C467 1.524 . S
C466 C480 1.377 . S
C467 C466 1.524 . S
C467 C468 1.397 . S
C467 C472 1.363 . S
C468 H445 0.950 . S
C468 C467 1.397 . S
C468 C469 1.334 . S
C469 H446 0.950 . S
C469 C468 1.334 . S
C469 C470 1.287 . S
C470 C469 1.287 . S
C470 C471 1.524 . S
C470 H489 0.913 . S
C471 H447 0.950 . S
C471 C470 1.524 . S
C471 C472 1.415 . S
C472 H448 0.950 . S
C472 C467 1.363 . S
C472 C471 1.415 . S
C473 H449 0.951 . S
C473 C474 1.366 . S
C473 C475 1.388 . S
C474 C473 1.366 . S
C474 C478 1.385 . S
C475 H450 0.951 . S
C475 C473 1.388 . S
C475 C476 1.366 . S
C476 C475 1.366 . S
C476 C477 1.414 . S
C476 C479 1.499 . S
C477 H451 0.950 . S
C477 C476 1.414 . S
C477 C478 1.374 . S
C478 H452 0.950 . S
C478 C474 1.385 . S
C478 C477 1.374 . S
C479 C476 1.499 . S
C479 C480 1.373 . S
C479 C481 1.389 . S
C480 H453 0.950 . S
C480 C466 1.377 . S
C480 C479 1.373 . S
C481 C465 1.377 . S
C481 C479 1.389 . S
C481 C482 1.524 . S
C482 C481 1.524 . S
C482 C483 1.397 . S
C482 C487 1.363 . S
C483 H454 0.950 . S
C483 C482 1.397 . S
C483 C484 1.334 . S
C484 H455 0.950 . S
C484 C483 1.334 . S
C484 C485 1.287 . S
C485 C484 1.287 . S
C485 C486 1.524 . S
C485 H488 0.999 . S
C486 H456 0.950 . S
C486 C485 1.524 . S
C486 C487 1.415 . S
C487 H457 0.950 . S
C487 C482 1.363 . S
C487 C486 1.415 . S
H488 C485 0.999 . S
H489 C470 0.913 . S
H490 C508 0.951 . S
H491 C510 0.951 . S
H492 C512 0.950 . S
H493 C513 0.950 . S
H494 C515 0.950 . S
H495 C518 0.950 . S
H496 C519 0.950 . S
H497 C521 0.950 . S
H498 C522 0.950 . S
H499 C523 0.951 . S
H500 C525 0.951 . S
H501 C527 0.950 . S
H502 C528 0.950 . S
H503 C530 0.950 . S
H504 C533 0.950 . S
H505 C534 0.950 . S
H506 C536 0.950 . S
H507 C537 0.950 . S
C508 H490 0.951 . S
C508 C509 1.366 . S
C508 C510 1.388 . S
C509 C508 1.366 . S
C509 C513 1.385 . S
C510 H491 0.951 . S
C510 C508 1.388 . S
C510 C511 1.366 . S
C511 C510 1.366 . S
C511 C512 1.414 . S
C511 C514 1.499 . S
C512 H492 0.950 . S
C512 C511 1.414 . S
C512 C513 1.374 . S
C513 H493 0.950 . S
C513 C509 1.385 . S
C513 C512 1.374 . S
C514 C511 1.499 . S
C514 C515 1.373 . S
C514 C516 1.389 . S
C515 H494 0.950 . S
C515 C514 1.373 . S
C515 C531 1.377 . S
C516 C514 1.389 . S
C516 C517 1.524 . S
C516 C530 1.377 . S
C517 C516 1.524 . S
C517 C518 1.397 . S
C517 C522 1.363 . S
C518 H495 0.950 . S
C518 C517 1.397 . S
C518 C519 1.334 . S
C519 H496 0.950 . S
C519 C518 1.334 . S
C519 C520 1.287 . S
C520 C519 1.287 . S
C520 C521 1.524 . S
C520 H539 0.913 . S
C521 H497 0.950 . S
C521 C520 1.524 . S
C521 C522 1.415 . S
C522 H498 0.950 . S
C522 C517 1.363 . S
C522 C521 1.415 . S
C523 H499 0.951 . S
C523 C524 1.366 . S
C523 C525 1.388 . S
C524 C523 1.366 . S
C524 C528 1.385 . S
C525 H500 0.951 . S
C525 C523 1.388 . S
C525 C526 1.366 . S
C526 C525 1.366 . S
C526 C527 1.414 . S
C526 C529 1.499 . S
C527 H501 0.950 . S
C527 C526 1.414 . S
C527 C528 1.374 . S
C528 H502 0.950 . S
C528 C524 1.385 . S
C528 C527 1.374 . S
C529 C526 1.499 . S
C529 C530 1.373 . S
C529 C531 1.389 . S
C530 H503 0.950 . S
C530 C516 1.377 . S
C530 C529 1.373 . S
C531 C515 1.377 . S
C531 C529 1.389 . S
C531 C532 1.524 . S
C532 C531 1.524 . S
C532 C533 1.397 . S
C532 C537 1.363 . S
C533 H504 0.950 . S
C533 C532 1.397 . S
C533 C534 1.334 . S
C534 H505 0.950 . S
C534 C533 1.334 . S
C534 C535 1.287 . S
C535 C534 1.287 . S
C535 C536 1.524 . S
C535 H538 0.999 . S
C536 H506 0.950 . S
C536 C535 1.524 . S
C536 C537 1.415 . S
C537 H507 0.950 . S
C537 C532 1.363 . S
C537 C536 1.415 . S
H538 C535 0.999 . S
H539 C520 0.913 . S
H540 C558 0.951 . S
H541 C560 0.951 . S
H542 C562 0.950 . S
H543 C563 0.950 . S
H544 C565 0.950 . S
H545 C568 0.950 . S
H546 C569 0.950 . S
H547 C571 0.950 . S
H548 C572 0.950 . S
H549 C573 0.951 . S
H550 C575 0.951 . S
H551 C577 0.950 . S
H552 C578 0.950 . S
H553 C580 0.950 . S
H554 C583 0.950 . S
H555 C584 0.950 . S
H556 C586 0.950 . S
H557 C587 0.950 . S
C558 H540 0.951 . S
C558 C559 1.366 . S
C558 C560 1.388 . S
C559 C558 1.366 . S
C559 C563 1.385 . S
C560 H541 0.951 . S
C560 C558 1.388 . S
C560 C561 1.366 . S
C561 C560 1.366 . S
C561 C562 1.414 . S
C561 C564 1.499 . S
C562 H542 0.950 . S
C562 C561 1.414 . S
C562 C563 1.374 . S
C563 H543 0.950 . S
C563 C559 1.385 . S
C563 C562 1.374 . S
C564 C561 1.499 . S
C564 C565 1.373 . S
C564 C566 1.389 . S
C565 H544 0.950 . S
C565 C564 1.373 . S
C565 C581 1.377 . S
C566 C564 1.389 . S
C566 C567 1.524 . S
C566 C580 1.377 . S
C567 C566 1.524 . S
C567 C568 1.397 . S
C567 C572 1.363 . S
C568 H545 0.950 . S
C568 C567 1.397 . S
C568 C569 1.334 . S
C569 H546 0.950 . S
C569 C568 1.334 . S
C569 C570 1.287 . S
C570 C569 1.287 . S
C570 C571 1.524 . S
C570 H589 0.913 . S
C571 H547 0.950 . S
C571 C570 1.524 . S
C571 C572 1.415 . S
C572 H548 0.950 . S
C572 C567 1.363 . S
C572 C571 1.415 . S
C573 H549 0.951 . S
C573 C574 1.366 . S
C573 C575 1.388 . S
C574 C573 1.366 . S
C574 C578 1.385 . S
C575 H550 0.951 . S
C575 C573 1.388 . S
C575 C576 1.366 . S
C576 C575 1.366 . S
C576 C577 1.414 . S
C576 C579 1.499 . S
C577 H551 0.950 . S
C577 C576 1.414 . S
C577 C578 1.374 . S
C578 H552 0.950 . S
C578 C574 1.385 . S
C578 C577 1.374 . S
C579 C576 1.499 . S
C579 C580 1.373 . S
C579 C581 1.389 . S
C580 H553 0.950 . S
C580 C566 1.377 . S
C580 C579 1.373 . S
C581 C565 1.377 . S
C581 C579 1.389 . S
C581 C582 1.524 . S
C582 C581 1.524 . S
C582 C583 1.397 . S
C582 C587 1.363 . S
C583 H554 0.950 . S
C583 C582 1.397 . S
C583 C584 1.334 . S
C584 H555 0.950 . S
C584 C583 1.334 . S
C584 C585 1.287 . S
C585 C584 1.287 . S
C585 C586 1.524 . S
C585 H588 0.999 . S
C586 H556 0.950 . S
C586 C585 1.524 . S
C586 C587 1.415 . S
C587 H557 0.950 . S
C587 C582 1.363 . S
C587 C586 1.415 . S
H588 C585 0.999 . S
H589 C570 0.913 . S
H590 C608 0.951 . S
H591 C610 0.951 . S
H592 C612 0.950 . S
H593 C613 0.950 . S
H594 C615 0.950 . S
H595 C618 0.950 . S
H596 C619 0.950 . S
H597 C621 0.950 . S
H598 C622 0.950 . S
H599 C623 0.951 . S
H600 C625 0.951 . S
H601 C627 0.950 . S
H602 C628 0.950 . S
H603 C630 0.950 . S
H604 C633 0.950 . S
H605 C634 0.950 . S
H606 C636 0.950 . S
H607 C637 0.950 . S
C608 H590 0.951 . S
C608 C609 1.366 . S
C608 C610 1.388 . S
C609 C608 1.366 . S
C609 C613 1.385 . S
C610 H591 0.951 . S
C610 C608 1.388 . S
C610 C611 1.366 . S
C611 C610 1.366 . S
C611 C612 1.414 . S
C611 C614 1.499 . S
C612 H592 0.950 . S
C612 C611 1.414 . S
C612 C613 1.374 . S
C613 H593 0.950 . S
C613 C609 1.385 . S
C613 C612 1.374 . S
C614 C611 1.499 . S
C614 C615 1.373 . S
C614 C616 1.389 . S
C615 H594 0.950 . S
C615 C614 1.373 . S
C615 C631 1.377 . S
C616 C614 1.389 . S
C616 C617 1.524 . S
C616 C630 1.377 . S
C617 C616 1.524 . S
C617 C618 1.397 . S
C617 C622 1.363 . S
C618 H595 0.950 . S
C618 C617 1.397 . S
C618 C619 1.334 . S
C619 H596 0.950 . S
C619 C618 1.334 . S
C619 C620 1.287 . S
C620 C619 1.287 . S
C620 C621 1.524 . S
C620 H639 0.913 . S
C621 H597 0.950 . S
C621 C620 1.524 . S
C621 C622 1.415 . S
C622 H598 0.950 . S
C622 C617 1.363 . S
C622 C621 1.415 . S
C623 H599 0.951 . S
C623 C624 1.366 . S
C623 C625 1.388 . S
C624 C623 1.366 . S
C624 C628 1.385 . S
C625 H600 0.951 . S
C625 C623 1.388 . S
C625 C626 1.366 . S
C626 C625 1.366 . S
C626 C627 1.414 . S
C626 C629 1.499 . S
C627 H601 0.950 . S
C627 C626 1.414 . S
C627 C628 1.374 . S
C628 H602 0.950 . S
C628 C624 1.385 . S
C628 C627 1.374 . S
C629 C626 1.499 . S
C629 C630 1.373 . S
C629 C631 1.389 . S
C630 H603 0.950 . S
C630 C616 1.377 . S
C630 C629 1.373 . S
C631 C615 1.377 . S
C631 C629 1.389 . S
C631 C632 1.524 . S
C632 C631 1.524 . S
C632 C633 1.397 . S
C632 C637 1.363 . S
C633 H604 0.950 . S
C633 C632 1.397 . S
C633 C634 1.334 . S
C634 H605 0.950 . S
C634 C633 1.334 . S
C634 C635 1.287 . S
C635 C634 1.287 . S
C635 C636 1.524 . S
C635 H638 0.999 . S
C636 H606 0.950 . S
C636 C635 1.524 . S
C636 C637 1.415 . S
C637 H607 0.950 . S
C637 C632 1.363 . S
C637 C636 1.415 . S
H638 C635 0.999 . S
H639 C620 0.913 . S
H640 C658 0.951 . S
H641 C660 0.951 . S
H642 C662 0.950 . S
H643 C663 0.950 . S
H644 C665 0.950 . S
H645 C668 0.950 . S
H646 C669 0.950 . S
H647 C671 0.950 . S
H648 C672 0.950 . S
H649 C673 0.951 . S
H650 C675 0.951 . S
H651 C677 0.950 . S
H652 C678 0.950 . S
H653 C680 0.950 . S
H654 C683 0.950 . S
H655 C684 0.950 . S
H656 C686 0.950 . S
H657 C687 0.950 . S
C658 H640 0.951 . S
C658 C659 1.366 . S
C658 C660 1.388 . S
C659 C658 1.366 . S
C659 C663 1.385 . S
C660 H641 0.951 . S
C660 C658 1.388 . S
C660 C661 1.366 . S
C661 C660 1.366 . S
C661 C662 1.414 . S
C661 C664 1.499 . S
C662 H642 0.950 . S
C662 C661 1.414 . S
C662 C663 1.374 . S
C663 H643 0.950 . S
C663 C659 1.385 . S
C663 C662 1.374 . S
C664 C661 1.499 . S
C664 C665 1.373 . S
C664 C666 1.389 . S
C665 H644 0.950 . S
C665 C664 1.373 . S
C665 C681 1.377 . S
C666 C664 1.389 . S
C666 C667 1.524 . S
C666 C680 1.377 . S
C667 C666 1.524 . S
C667 C668 1.397 . S
C667 C672 1.363 . S
C668 H645 0.950 . S
C668 C667 1.397 . S
C668 C669 1.334 . S
C669 H646 0.950 . S
C669 C668 1.334 . S
C669 C670 1.287 . S
C670 C669 1.287 . S
C670 C671 1.524 . S
C670 H689 0.913 . S
C671 H647 0.950 . S
C671 C670 1.524 . S
C671 C672 1.415 . S
C672 H648 0.950 . S
C672 C667 1.363 . S
C672 C671 1.415 . S
C673 H649 0.951 . S
C673 C674 1.366 . S
C673 C675 1.388 . S
C674 C673 1.366 . S
C674 C678 1.385 . S
C675 H650 0.951 . S
C675 C673 1.388 . S
C675 C676 1.366 . S
C676 C675 1.366 . S
C676 C677 1.414 . S
C676 C679 1.499 . S
C677 H651 0.950 . S
C677 C676 1.414 . S
C677 C678 1.374 . S
C678 H652 0.950 . S
C678 C674 1.385 . S
C678 C677 1.374 . S
C679 C676 1.499 . S
C679 C680 1.373 . S
C679 C681 1.389 . S
C680 H653 0.950 . S
C680 C666 1.377 . S
C680 C679 1.373 . S
C681 C665 1.377 . S
C681 C679 1.389 . S
C681 C682 1.524 . S
C682 C681 1.524 . S
C682 C683 1.397 . S
C682 C687 1.363 . S
C683 H654 0.950 . S
C683 C682 1.397 . S
C683 C684 1.334 . S
C684 H655 0.950 . S
C684 C683 1.334 . S
C684 C685 1.287 . S
C685 C684 1.287 . S
C685 C686 1.524 . S
C685 H688 0.999 . S
C686 H656 0.950 . S
C686 C685 1.524 . S
C686 C687 1.415 . S
C687 H657 0.950 . S
C687 C682 1.363 . S
C687 C686 1.415 . S
H688 C685 0.999 . S
H689 C670 0.913 . S
H690 C708 0.951 . S
H691 C710 0.951 . S
H692 C712 0.950 . S
H693 C713 0.950 . S
H694 C715 0.950 . S
H695 C718 0.950 . S
H696 C719 0.950 . S
H697 C721 0.950 . S
H698 C722 0.950 . S
H699 C723 0.951 . S
H700 C725 0.951 . S
H701 C727 0.950 . S
H702 C728 0.950 . S
H703 C730 0.950 . S
H704 C733 0.950 . S
H705 C734 0.950 . S
H706 C736 0.950 . S
H707 C737 0.950 . S
C708 H690 0.951 . S
C708 C709 1.366 . S
C708 C710 1.388 . S
C709 C708 1.366 . S
C709 C713 1.385 . S
C710 H691 0.951 . S
C710 C708 1.388 . S
C710 C711 1.366 . S
C711 C710 1.366 . S
C711 C712 1.414 . S
C711 C714 1.499 . S
C712 H692 0.950 . S
C712 C711 1.414 . S
C712 C713 1.374 . S
C713 H693 0.950 . S
C713 C709 1.385 . S
C713 C712 1.374 . S
C714 C711 1.499 . S
C714 C715 1.373 . S
C714 C716 1.389 . S
C715 H694 0.950 . S
C715 C714 1.373 . S
C715 C731 1.377 . S
C716 C714 1.389 . S
C716 C717 1.524 . S
C716 C730 1.377 . S
C717 C716 1.524 . S
C717 C718 1.397 . S
C717 C722 1.363 . S
C718 H695 0.950 . S
C718 C717 1.397 . S
C718 C719 1.334 . S
C719 H696 0.950 . S
C719 C718 1.334 . S
C719 C720 1.287 . S
C720 C719 1.287 . S
C720 C721 1.524 . S
C720 H739 0.913 . S
C721 H697 0.950 . S
C721 C720 1.524 . S
C721 C722 1.415 . S
C722 H698 0.950 . S
C722 C717 1.363 . S
C722 C721 1.415 . S
C723 H699 0.951 . S
C723 C724 1.366 . S
C723 C725 1.388 . S
C724 C723 1.366 . S
C724 C728 1.385 . S
C725 H700 0.951 . S
C725 C723 1.388 . S
C725 C726 1.366 . S
C726 C725 1.366 . S
C726 C727 1.414 . S
C726 C729 1.499 . S
C727 H701 0.950 . S
C727 C726 1.414 . S
C727 C728 1.374 . S
C728 H702 0.950 . S
C728 C724 1.385 . S
C728 C727 1.374 . S
C729 C726 1.499 . S
C729 C730 1.373 . S
C729 C731 1.389 . S
C730 H703 0.950 . S
C730 C716 1.377 . S
C730 C729 1.373 . S
C731 C715 1.377 . S
C731 C729 1.389 . S
C731 C732 1.524 . S
C732 C731 1.524 . S
C732 C733 1.397 . S
C732 C737 1.363 . S
C733 H704 0.950 . S
C733 C732 1.397 . S
C733 C734 1.334 . S
C734 H705 0.950 . S
C734 C733 1.334 . S
C734 C735 1.287 . S
C735 C734 1.287 . S
C735 C736 1.524 . S
C735 H738 0.999 . S
C736 H706 0.950 . S
C736 C735 1.524 . S
C736 C737 1.415 . S
C737 H707 0.950 . S
C737 C732 1.363 . S
C737 C736 1.415 . S
H738 C735 0.999 . S
H739 C720 0.913 . S
H740 C758 0.951 . S
H741 C760 0.951 . S
H742 C762 0.950 . S
H743 C763 0.950 . S
H744 C765 0.950 . S
H745 C768 0.950 . S
H746 C769 0.950 . S
H747 C771 0.950 . S
H748 C772 0.950 . S
H749 C773 0.951 . S
H750 C775 0.951 . S
H751 C777 0.950 . S
H752 C778 0.950 . S
H753 C780 0.950 . S
H754 C783 0.950 . S
H755 C784 0.950 . S
H756 C786 0.950 . S
H757 C787 0.950 . S
C758 H740 0.951 . S
C758 C759 1.366 . S
C758 C760 1.388 . S
C759 C758 1.366 . S
C759 C763 1.385 . S
C760 H741 0.951 . S
C760 C758 1.388 . S
C760 C761 1.366 . S
C761 C760 1.366 . S
C761 C762 1.414 . S
C761 C764 1.499 . S
C762 H742 0.950 . S
C762 C761 1.414 . S
C762 C763 1.374 . S
C763 H743 0.950 . S
C763 C759 1.385 . S
C763 C762 1.374 . S
C764 C761 1.499 . S
C764 C765 1.373 . S
C764 C766 1.389 . S
C765 H744 0.950 . S
C765 C764 1.373 . S
C765 C781 1.377 . S
C766 C764 1.389 . S
C766 C767 1.524 . S
C766 C780 1.377 . S
C767 C766 1.524 . S
C767 C768 1.397 . S
C767 C772 1.363 . S
C768 H745 0.950 . S
C768 C767 1.397 . S
C768 C769 1.334 . S
C769 H746 0.950 . S
C769 C768 1.334 . S
C769 C770 1.287 . S
C770 C769 1.287 . S
C770 C771 1.524 . S
C770 H789 0.913 . S
C771 H747 0.950 . S
C771 C770 1.524 . S
C771 C772 1.415 . S
C772 H748 0.950 . S
C772 C767 1.363 . S
C772 C771 1.415 . S
C773 H749 0.951 . S
C773 C774 1.366 . S
C773 C775 1.388 . S
C774 C773 1.366 . S
C774 C778 1.385 . S
C775 H750 0.951 . S
C775 C773 1.388 . S
C775 C776 1.366 . S
C776 C775 1.366 . S
C776 C777 1.414 . S
C776 C779 1.499 . S
C777 H751 0.950 . S
C777 C776 1.414 . S
C777 C778 1.374 . S
C778 H752 0.950 . S
C778 C774 1.385 . S
C778 C777 1.374 . S
C779 C776 1.499 . S
C779 C780 1.373 . S
C779 C781 1.389 . S
C780 H753 0.950 . S
C780 C766 1.377 . S
C780 C779 1.373 . S
C781 C765 1.377 . S
C781 C779 1.389 . S
C781 C782 1.524 . S
C782 C781 1.524 . S
C782 C783 1.397 . S
C782 C787 1.363 . S
C783 H754 0.950 . S
C783 C782 1.397 . S
C783 C784 1.334 . S
C784 H755 0.950 . S
C784 C783 1.334 . S
C784 C785 1.287 . S
C785 C784 1.287 . S
C785 C786 1.524 . S
C785 H788 0.999 . S
C786 H756 0.950 . S
C786 C785 1.524 . S
C786 C787 1.415 . S
C787 H757 0.950 . S
C787 C782 1.363 . S
C787 C786 1.415 . S
H788 C785 0.999 . S
H789 C770 0.913 . S
H790 C808 0.951 . S
H791 C810 0.951 . S
H792 C812 0.950 . S
H793 C813 0.950 . S
H794 C815 0.950 . S
H795 C818 0.950 . S
H796 C819 0.950 . S
H797 C821 0.950 . S
H798 C822 0.950 . S
H799 C823 0.951 . S
H800 C825 0.951 . S
H801 C827 0.950 . S
H802 C828 0.950 . S
H803 C830 0.950 . S
H804 C833 0.950 . S
H805 C834 0.950 . S
H806 C836 0.950 . S
H807 C837 0.950 . S
C808 H790 0.951 . S
C808 C809 1.366 . S
C808 C810 1.388 . S
C809 C808 1.366 . S
C809 C813 1.385 . S
C810 H791 0.951 . S
C810 C808 1.388 . S
C810 C811 1.366 . S
C811 C810 1.366 . S
C811 C812 1.414 . S
C811 C814 1.499 . S
C812 H792 0.950 . S
C812 C811 1.414 . S
C812 C813 1.374 . S
C813 H793 0.950 . S
C813 C809 1.385 . S
C813 C812 1.374 . S
C814 C811 1.499 . S
C814 C815 1.373 . S
C814 C816 1.389 . S
C815 H794 0.950 . S
C815 C814 1.373 . S
C815 C831 1.377 . S
C816 C814 1.389 . S
C816 C817 1.524 . S
C816 C830 1.377 . S
C817 C816 1.524 . S
C817 C818 1.397 . S
C817 C822 1.363 . S
C818 H795 0.950 . S
C818 C817 1.397 . S
C818 C819 1.334 . S
C819 H796 0.950 . S
C819 C818 1.334 . S
C819 C820 1.287 . S
C820 C819 1.287 . S
C820 C821 1.524 . S
C820 H839 0.913 . S
C821 H797 0.950 . S
C821 C820 1.524 . S
C821 C822 1.415 . S
C822 H798 0.950 . S
C822 C817 1.363 . S
C822 C821 1.415 . S
C823 H799 0.951 . S
C823 C824 1.366 . S
C823 C825 1.388 . S
C824 C823 1.366 . S
C824 C828 1.385 . S
C825 H800 0.951 . S
C825 C823 1.388 . S
C825 C826 1.366 . S
C826 C825 1.366 . S
C826 C827 1.414 . S
C826 C829 1.499 . S
C827 H801 0.950 . S
C827 C826 1.414 . S
C827 C828 1.374 . S
C828 H802 0.950 . S
C828 C824 1.385 . S
C828 C827 1.374 . S
C829 C826 1.499 . S
C829 C830 1.373 . S
C829 C831 1.389 . S
C830 H803 0.950 . S
C830 C816 1.377 . S
C830 C829 1.373 . S
C831 C815 1.377 . S
C831 C829 1.389 . S
C831 C832 1.524 . S
C832 C831 1.524 . S
C832 C833 1.397 . S
C832 C837 1.363 . S
C833 H804 0.950 . S
C833 C832 1.397 . S
C833 C834 1.334 . S
C834 H805 0.950 . S
C834 C833 1.334 . S
C834 C835 1.287 . S
C835 C834 1.287 . S
C835 C836 1.524 . S
C835 H838 0.999 . S
C836 H806 0.950 . S
C836 C835 1.524 . S
C836 C837 1.415 . S
C837 H807 0.950 . S
C837 C832 1.363 . S
C837 C836 1.415 . S
H838 C835 0.999 . S
H839 C820 0.913 . S
H840 C858 0.951 . S
H841 C860 0.951 . S
H842 C862 0.950 . S
H843 C863 0.950 . S
H844 C865 0.950 . S
H845 C868 0.950 . S
H846 C869 0.950 . S
H847 C871 0.950 . S
H848 C872 0.950 . S
H849 C873 0.951 . S
H850 C875 0.951 . S
H851 C877 0.950 . S
H852 C878 0.950 . S
H853 C880 0.950 . S
H854 C883 0.950 . S
H855 C884 0.950 . S
H856 C886 0.950 . S
H857 C887 0.950 . S
C858 H840 0.951 . S
C858 C859 1.366 . S
C858 C860 1.388 . S
C859 C858 1.366 . S
C859 C863 1.385 . S
C860 H841 0.951 . S
C860 C858 1.388 . S
C860 C861 1.366 . S
C861 C860 1.366 . S
C861 C862 1.414 . S
C861 C864 1.499 . S
C862 H842 0.950 . S
C862 C861 1.414 . S
C862 C863 1.374 . S
C863 H843 0.950 . S
C863 C859 1.385 . S
C863 C862 1.374 . S
C864 C861 1.499 . S
C864 C865 1.373 . S
C864 C866 1.389 . S
C865 H844 0.950 . S
C865 C864 1.373 . S
C865 C881 1.377 . S
C866 C864 1.389 . S
C866 C867 1.524 . S
C866 C880 1.377 . S
C867 C866 1.524 . S
C867 C868 1.397 . S
C867 C872 1.363 . S
C868 H845 0.950 . S
C868 C867 1.397 . S
C868 C869 1.334 . S
C869 H846 0.950 . S
C869 C868 1.334 . S
C869 C870 1.287 . S
C870 C869 1.287 . S
C870 C871 1.524 . S
C870 H889 0.913 . S
C871 H847 0.950 . S
C871 C870 1.524 . S
C871 C872 1.415 . S
C872 H848 0.950 . S
C872 C867 1.363 . S
C872 C871 1.415 . S
C873 H849 0.951 . S
C873 C874 1.366 . S
C873 C875 1.388 . S
C874 C873 1.366 . S
C874 C878 1.385 . S
C875 H850 0.951 . S
C875 C873 1.388 . S
C875 C876 1.366 . S
C876 C875 1.366 . S
C876 C877 1.414 . S
C876 C879 1.499 . S
C877 H851 0.950 . S
C877 C876 1.414 . S
C877 C878 1.374 . S
C878 H852 0.950 . S
C878 C874 1.385 . S
C878 C877 1.374 . S
C879 C876 1.499 . S
C879 C880 1.373 . S
C879 C881 1.389 . S
C880 H853 0.950 . S
C880 C866 1.377 . S
C880 C879 1.373 . S
C881 C865 1.377 . S
C881 C879 1.389 . S
C881 C882 1.524 . S
C882 C881 1.524 . S
C882 C883 1.397 . S
C882 C887 1.363 . S
C883 H854 0.950 . S
C883 C882 1.397 . S
C883 C884 1.334 . S
C884 H855 0.950 . S
C884 C883 1.334 . S
C884 C885 1.287 . S
C885 C884 1.287 . S
C885 C886 1.524 . S
C885 H888 0.999 . S
C886 H856 0.950 . S
C886 C885 1.524 . S
C886 C887 1.415 . S
C887 H857 0.950 . S
C887 C882 1.363 . S
C887 C886 1.415 . S
H888 C885 0.999 . S
H889 C870 0.913 . S
H890 C908 0.951 . S
H891 C910 0.951 . S
H892 C912 0.950 . S
H893 C913 0.950 . S
H894 C915 0.950 . S
H895 C918 0.950 . S
H896 C919 0.950 . S
H897 C921 0.950 . S
H898 C922 0.950 . S
H899 C923 0.951 . S
H900 C925 0.951 . S
H901 C927 0.950 . S
H902 C928 0.950 . S
H903 C930 0.950 . S
H904 C933 0.950 . S
H905 C934 0.950 . S
H906 C936 0.950 . S
H907 C937 0.950 . S
C908 H890 0.951 . S
C908 C909 1.366 . S
C908 C910 1.388 . S
C909 C908 1.366 . S
C909 C913 1.385 . S
C910 H891 0.951 . S
C910 C908 1.388 . S
C910 C911 1.366 . S
C911 C910 1.366 . S
C911 C912 1.414 . S
C911 C914 1.499 . S
C912 H892 0.950 . S
C912 C911 1.414 . S
C912 C913 1.374 . S
C913 H893 0.950 . S
C913 C909 1.385 . S
C913 C912 1.374 . S
C914 C911 1.499 . S
C914 C915 1.373 . S
C914 C916 1.389 . S
C915 H894 0.950 . S
C915 C914 1.373 . S
C915 C931 1.377 . S
C916 C914 1.389 . S
C916 C917 1.524 . S
C916 C930 1.377 . S
C917 C916 1.524 . S
C917 C918 1.397 . S
C917 C922 1.363 . S
C918 H895 0.950 . S
C918 C917 1.397 . S
C918 C919 1.334 . S
C919 H896 0.950 . S
C919 C918 1.334 . S
C919 C920 1.287 . S
C920 C919 1.287 . S
C920 C921 1.524 . S
C920 H939 0.913 . S
C921 H897 0.950 . S
C921 C920 1.524 . S
C921 C922 1.415 . S
C922 H898 0.950 . S
C922 C917 1.363 . S
C922 C921 1.415 . S
C923 H899 0.951 . S
C923 C924 1.366 . S
C923 C925 1.388 . S
C924 C923 1.366 . S
C924 C928 1.385 . S
C925 H900 0.951 . S
C925 C923 1.388 . S
C925 C926 1.366 . S
C926 C925 1.366 . S
C926 C927 1.414 . S
C926 C929 1.499 . S
C927 H901 0.950 . S
C927 C926 1.414 . S
C927 C928 1.374 . S
C928 H902 0.950 . S
C928 C924 1.385 . S
C928 C927 1.374 . S
C929 C926 1.499 . S
C929 C930 1.373 . S
C929 C931 1.389 . S
C930 H903 0.950 . S
C930 C916 1.377 . S
C930 C929 1.373 . S
C931 C915 1.377 . S
C931 C929 1.389 . S
C931 C932 1.524 . S
C932 C931 1.524 . S
C932 C933 1.397 . S
C932 C937 1.363 . S
C933 H904 0.950 . S
C933 C932 1.397 . S
C933 C934 1.334 . S
C934 H905 0.950 . S
C934 C933 1.334 . S
C934 C935 1.287 . S
C935 C934 1.287 . S
C935 C936 1.524 . S
C935 H938 0.999 . S
C936 H906 0.950 . S
C936 C935 1.524 . S
C936 C937 1.415 . S
C937 H907 0.950 . S
C937 C932 1.363 . S
C937 C936 1.415 . S
H938 C935 0.999 . S
H939 C920 0.913 . S
H940 C958 0.951 . S
H941 C960 0.951 . S
H942 C962 0.950 . S
H943 C963 0.950 . S
H944 C965 0.950 . S
H945 C968 0.950 . S
H946 C969 0.950 . S
H947 C971 0.950 . S
H948 C972 0.950 . S
H949 C973 0.951 . S
H950 C975 0.951 . S
H951 C977 0.950 . S
H952 C978 0.950 . S
H953 C980 0.950 . S
H954 C983 0.950 . S
H955 C984 0.950 . S
H956 C986 0.950 . S
H957 C987 0.950 . S
C958 H940 0.951 . S
C958 C959 1.366 . S
C958 C960 1.388 . S
C959 C958 1.366 . S
C959 C963 1.385 . S
C960 H941 0.951 . S
C960 C958 1.388 . S
C960 C961 1.366 . S
C961 C960 1.366 . S
C961 C962 1.414 . S
C961 C964 1.499 . S
C962 H942 0.950 . S
C962 C961 1.414 . S
C962 C963 1.374 . S
C963 H943 0.950 . S
C963 C959 1.385 . S
C963 C962 1.374 . S
C964 C961 1.499 . S
C964 C965 1.373 . S
C964 C966 1.389 . S
C965 H944 0.950 . S
C965 C964 1.373 . S
C965 C981 1.377 . S
C966 C964 1.389 . S
C966 C967 1.524 . S
C966 C980 1.377 . S
C967 C966 1.524 . S
C967 C968 1.397 . S
C967 C972 1.363 . S
C968 H945 0.950 . S
C968 C967 1.397 . S
C968 C969 1.334 . S
C969 H946 0.950 . S
C969 C968 1.334 . S
C969 C970 1.287 . S
C970 C969 1.287 . S
C970 C971 1.524 . S
C970 H989 0.913 . S
C971 H947 0.950 . S
C971 C970 1.524 . S
C971 C972 1.415 . S
C972 H948 0.950 . S
C972 C967 1.363 . S
C972 C971 1.415 . S
C973 H949 0.951 . S
C973 C974 1.366 . S
C973 C975 1.388 . S
C974 C973 1.366 . S
C974 C978 1.385 . S
C975 H950 0.951 . S
C975 C973 1.388 . S
C975 C976 1.366 . S
C976 C975 1.366 . S
C976 C977 1.414 . S
C976 C979 1.499 . S
C977 H951 0.950 . S
C977 C976 1.414 . S
C977 C978 1.374 . S
C978 H952 0.950 . S
C978 C974 1.385 . S
C978 C977 1.374 . S
C979 C976 1.499 . S
C979 C980 1.373 . S
C979 C981 1.389 . S
C980 H953 0.950 . S
C980 C966 1.377 . S
C980 C979 1.373 . S
C981 C965 1.377 . S
C981 C979 1.389 . S
C981 C982 1.524 . S
C982 C981 1.524 . S
C982 C983 1.397 . S
C982 C987 1.363 . S
C983 H954 0.950 . S
C983 C982 1.397 . S
C983 C984 1.334 . S
C984 H955 0.950 . S
C984 C983 1.334 . S
C984 C985 1.287 . S
C985 C984 1.287 . S
C985 C986 1.524 . S
C985 H988 0.999 . S
C986 H956 0.950 . S
C986 C985 1.524 . S
C986 C987 1.415 . S
C987 H957 0.950 . S
C987 C982 1.363 . S
C987 C986 1.415 . S
H988 C985 0.999 . S
H989 C970 0.913 . S
H990 C1008 0.951 . S
H991 C1010 0.951 . S
H992 C1012 0.950 . S
H993 C1013 0.950 . S
H994 C1015 0.950 . S
H995 C1018 0.950 . S
H996 C1019 0.950 . S
H997 C1021 0.950 . S
H998 C1022 0.950 . S
H999 C1023 0.951 . S
H1000 C1025 0.951 . S
H1001 C1027 0.950 . S
H1002 C1028 0.950 . S
H1003 C1030 0.950 . S
H1004 C1033 0.950 . S
H1005 C1034 0.950 . S
H1006 C1036 0.950 . S
H1007 C1037 0.950 . S
C1008 H990 0.951 . S
C1008 C1009 1.366 . S
C1008 C1010 1.388 . S
C1009 C1008 1.366 . S
C1009 C1013 1.385 . S
C1010 H991 0.951 . S
C1010 C1008 1.388 . S
C1010 C1011 1.366 . S
C1011 C1010 1.366 . S
C1011 C1012 1.414 . S
C1011 C1014 1.499 . S
C1012 H992 0.950 . S
C1012 C1011 1.414 . S
C1012 C1013 1.374 . S
C1013 H993 0.950 . S
C1013 C1009 1.385 . S
C1013 C1012 1.374 . S
C1014 C1011 1.499 . S
C1014 C1015 1.373 . S
C1014 C1016 1.389 . S
C1015 H994 0.950 . S
C1015 C1014 1.373 . S
C1015 C1031 1.377 . S
C1016 C1014 1.389 . S
C1016 C1017 1.524 . S
C1016 C1030 1.377 . S
C1017 C1016 1.524 . S
C1017 C1018 1.397 . S
C1017 C1022 1.363 . S
C1018 H995 0.950 . S
C1018 C1017 1.397 . S
C1018 C1019 1.334 . S
C1019 H996 0.950 . S
C1019 C1018 1.334 . S
C1019 C1020 1.287 . S
C1020 C1019 1.287 . S
C1020 C1021 1.524 . S
C1020 H1039 0.913 . S
C1021 H997 0.950 . S
C1021 C1020 1.524 . S
C1021 C1022 1.415 . S
C1022 H998 0.950 . S
C1022 C1017 1.363 . S
C1022 C1021 1.415 . S
C1023 H999 0.951 . S
C1023 C1024 1.366 . S
C1023 C1025 1.388 . S
C1024 C1023 1.366 . S
C1024 C1028 1.385 . S
C1025 H1000 0.951 . S
C1025 C1023 1.388 . S
C1025 C1026 1.366 . S
C1026 C1025 1.366 . S
C1026 C1027 1.414 . S
C1026 C1029 1.499 . S
C1027 H1001 0.950 . S
C1027 C1026 1.414 . S
C1027 C1028 1.374 . S
C1028 H1002 0.950 . S
C1028 C1024 1.385 . S
C1028 C1027 1.374 . S
C1029 C1026 1.499 . S
C1029 C1030 1.373 . S
C1029 C1031 1.389 . S
C1030 H1003 0.950 . S
C1030 C1016 1.377 . S
C1030 C1029 1.373 . S
C1031 C1015 1.377 . S
C1031 C1029 1.389 . S
C1031 C1032 1.524 . S
C1032 C1031 1.524 . S
C1032 C1033 1.397 . S
C1032 C1037 1.363 . S
C1033 H1004 0.950 . S
C1033 C1032 1.397 . S
C1033 C1034 1.334 . S
C1034 H1005 0.950 . S
C1034 C1033 1.334 . S
C1034 C1035 1.287 . S
C1035 C1034 1.287 . S
C1035 C1036 1.524 . S
C1035 H1038 0.999 . S
C1036 H1006 0.950 . S
C1036 C1035 1.524 . S
C1036 C1037 1.415 . S
C1037 H1007 0.950 . S
C1037 C1032 1.363 . S
C1037 C1036 1.415 . S
H1038 C1035 0.999 . S
H1039 C1020 0.913 . S
H1040 C1058 0.951 . S
H1041 C1060 0.951 . S
H1042 C1062 0.950 . S
H1043 C1063 0.950 . S
H1044 C1065 0.950 . S
H1045 C1068 0.950 . S
H1046 C1069 0.950 . S
H1047 C1071 0.950 . S
H1048 C1072 0.950 . S
H1049 C1073 0.951 . S
H1050 C1075 0.951 . S
H1051 C1077 0.950 . S
H1052 C1078 0.950 . S
H1053 C1080 0.950 . S
H1054 C1083 0.950 . S
H1055 C1084 0.950 . S
H1056 C1086 0.950 . S
H1057 C1087 0.950 . S
C1058 H1040 0.951 . S
C1058 C1059 1.366 . S
C1058 C1060 1.388 . S
C1059 C1058 1.366 . S
C1059 C1063 1.385 . S
C1060 H1041 0.951 . S
C1060 C1058 1.388 . S
C1060 C1061 1.366 . S
C1061 C1060 1.366 . S
C1061 C1062 1.414 . S
C1061 C1064 1.499 . S
C1062 H1042 0.950 . S
C1062 C1061 1.414 . S
C1062 C1063 1.374 . S
C1063 H1043 0.950 . S
C1063 C1059 1.385 . S
C1063 C1062 1.374 . S
C1064 C1061 1.499 . S
C1064 C1065 1.373 . S
C1064 C1066 1.389 . S
C1065 H1044 0.950 . S
C1065 C1064 1.373 . S
C1065 C1081 1.377 . S
C1066 C1064 1.389 . S
C1066 C1067 1.524 . S
C1066 C1080 1.377 . S
C1067 C1066 1.524 . S
C1067 C1068 1.397 . S
C1067 C1072 1.363 . S
C1068 H1045 0.950 . S
C1068 C1067 1.397 . S
C1068 C1069 1.334 . S
C1069 H1046 0.950 . S
C1069 C1068 1.334 . S
C1069 C1070 1.287 . S
C1070 C1069 1.287 . S
C1070 C1071 1.524 . S
C1070 H1089 0.913 . S
C1071 H1047 0.950 . S
C1071 C1070 1.524 . S
C1071 C1072 1.415 . S
C1072 H1048 0.950 . S
C1072 C1067 1.363 . S
C1072 C1071 1.415 . S
C1073 H1049 0.951 . S
C1073 C1074 1.366 . S
C1073 C1075 1.388 . S
C1074 C1073 1.366 . S
C1074 C1078 1.385 . S
C1075 H1050 0.951 . S
C1075 C1073 1.388 . S
C1075 C1076 1.366 . S
C1076 C1075 1.366 . S
C1076 C1077 1.414 . S
C1076 C1079 1.499 . S
C1077 H1051 0.950 . S
C1077 C1076 1.414 . S
C1077 C1078 1.374 . S
C1078 H1052 0.950 . S
C1078 C1074 1.385 . S
C1078 C1077 1.374 . S
C1079 C1076 1.499 . S
C1079 C1080 1.373 . S
C1079 C1081 1.389 . S
C1080 H1053 0.950 . S
C1080 C1066 1.377 . S
C1080 C1079 1.373 . S
C1081 C1065 1.377 . S
C1081 C1079 1.389 . S
C1081 C1082 1.524 . S
C1082 C1081 1.524 . S
C1082 C1083 1.397 . S
C1082 C1087 1.363 . S
C1083 H1054 0.950 . S
C1083 C1082 1.397 . S
C1083 C1084 1.334 . S
C1084 H1055 0.950 . S
C1084 C1083 1.334 . S
C1084 C1085 1.287 . S
C1085 C1084 1.287 . S
C1085 C1086 1.524 . S
C1085 H1088 0.999 . S
C1086 H1056 0.950 . S
C1086 C1085 1.524 . S
C1086 C1087 1.415 . S
C1087 H1057 0.950 . S
C1087 C1082 1.363 . S
C1087 C1086 1.415 . S
H1088 C1085 0.999 . S
H1089 C1070 0.913 . S
H1090 C1108 0.951 . S
H1091 C1110 0.951 . S
H1092 C1112 0.950 . S
H1093 C1113 0.950 . S
H1094 C1115 0.950 . S
H1095 C1118 0.950 . S
H1096 C1119 0.950 . S
H1097 C1121 0.950 . S
H1098 C1122 0.950 . S
H1099 C1123 0.951 . S
H1100 C1125 0.951 . S
H1101 C1127 0.950 . S
H1102 C1128 0.950 . S
H1103 C1130 0.950 . S
H1104 C1133 0.950 . S
H1105 C1134 0.950 . S
H1106 C1136 0.950 . S
H1107 C1137 0.950 . S
C1108 H1090 0.951 . S
C1108 C1109 1.366 . S
C1108 C1110 1.388 . S
C1109 C1108 1.366 . S
C1109 C1113 1.385 . S
C1110 H1091 0.951 . S
C1110 C1108 1.388 . S
C1110 C1111 1.366 . S
C1111 C1110 1.366 . S
C1111 C1112 1.414 . S
C1111 C1114 1.499 . S
C1112 H1092 0.950 . S
C1112 C1111 1.414 . S
C1112 C1113 1.374 . S
C1113 H1093 0.950 . S
C1113 C1109 1.385 . S
C1113 C1112 1.374 . S
C1114 C1111 1.499 . S
C1114 C1115 1.373 . S
C1114 C1116 1.389 . S
C1115 H1094 0.950 . S
C1115 C1114 1.373 . S
C1115 C1131 1.377 . S
C1116 C1114 1.389 . S
C1116 C1117 1.524 . S
C1116 C1130 1.377 . S
C1117 C1116 1.524 . S
C1117 C1118 1.397 . S
C1117 C1122 1.363 . S
C1118 H1095 0.950 . S
C1118 C1117 1.397 . S
C1118 C1119 1.334 . S
C1119 H1096 0.950 . S
C1119 C1118 1.334 . S
C1119 C1120 1.287 . S
C1120 C1119 1.287 . S
C1120 C1121 1.524 . S
C1120 H1139 0.913 . S
C1121 H1097 0.950 . S
C1121 C1120 1.524 . S
C1121 C1122 1.415 . S
C1122 H1098 0.950 . S
C1122 C1117 1.363 . S
C1122 C1121 1.415 . S
C1123 H1099 0.951 . S
C1123 C1124 1.366 . S
C1123 C1125 1.388 . S
C1124 C1123 1.366 . S
C1124 C1128 1.385 . S
C1125 H1100 0.951 . S
C1125 C1123 1.388 . S
C1125 C1126 1.366 . S
C1126 C1125 1.366 . S
C1126 C1127 1.414 . S
C1126 C1129 1.499 . S
C1127 H1101 0.950 . S
C1127 C1126 1.414 . S
C1127 C1128 1.374 . S
C1128 H1102 0.950 . S
C1128 C1124 1.385 . S
C1128 C1127 1.374 . S
C1129 C1126 1.499 . S
C1129 C1130 1.373 . S
C1129 C1131 1.389 . S
C1130 H1103 0.950 . S
C1130 C1116 1.377 . S
C1130 C1129 1.373 . S
C1131 C1115 1.377 . S
C1131 C1129 1.389 . S
C1131 C1132 1.524 . S
C1132 C1131 1.524 . S
C1132 C1133 1.397 . S
C1132 C1137 1.363 . S
C1133 H1104 0.950 . S
C1133 C1132 1.397 . S
C1133 C1134 1.334 . S
C1134 H1105 0.950 . S
C1134 C1133 1.334 . S
C1134 C1135 1.287 . S
C1135 C1134 1.287 . S
C1135 C1136 1.524 . S
C1135 H1138 0.999 . S
C1136 H1106 0.950 . S
C1136 C1135 1.524 . S
C1136 C1137 1.415 . S
C1137 H1107 0.950 . S
C1137 C1132 1.363 . S
C1137 C1136 1.415 . S
H1138 C1135 0.999 . S
H1139 C1120 0.913 . S
H1140 C1158 0.951 . S
H1141 C1160 0.951 . S
H1142 C1162 0.950 . S
H1143 C1163 0.950 . S
H1144 C1165 0.950 . S
H1145 C1168 0.950 . S
H1146 C1169 0.950 . S
H1147 C1171 0.950 . S
H1148 C1172 0.950 . S
H1149 C1173 0.951 . S
H1150 C1175 0.951 . S
H1151 C1177 0.950 . S
H1152 C1178 0.950 . S
H1153 C1180 0.950 . S
H1154 C1183 0.950 . S
H1155 C1184 0.950 . S
H1156 C1186 0.950 . S
H1157 C1187 0.950 . S
C1158 H1140 0.951 . S
C1158 C1159 1.366 . S
C1158 C1160 1.388 . S
C1159 C1158 1.366 . S
C1159 C1163 1.385 . S
C1160 H1141 0.951 . S
C1160 C1158 1.388 . S
C1160 C1161 1.366 . S
C1161 C1160 1.366 . S
C1161 C1162 1.414 . S
C1161 C1164 1.499 . S
C1162 H1142 0.950 . S
C1162 C1161 1.414 . S
C1162 C1163 1.374 . S
C1163 H1143 0.950 . S
C1163 C1159 1.385 . S
C1163 C1162 1.374 . S
C1164 C1161 1.499 . S
C1164 C1165 1.373 . S
C1164 C1166 1.389 . S
C1165 H1144 0.950 . S
C1165 C1164 1.373 . S
C1165 C1181 1.377 . S
C1166 C1164 1.389 . S
C1166 C1167 1.524 . S
C1166 C1180 1.377 . S
C1167 C1166 1.524 . S
C1167 C1168 1.397 . S
C1167 C1172 1.363 . S
C1168 H1145 0.950 . S
C1168 C1167 1.397 . S
C1168 C1169 1.334 . S
C1169 H1146 0.950 . S
C1169 C1168 1.334 . S
C1169 C1170 1.287 . S
C1170 C1169 1.287 . S
C1170 C1171 1.524 . S
C1170 H1189 0.913 . S
C1171 H1147 0.950 . S
C1171 C1170 1.524 . S
C1171 C1172 1.415 . S
C1172 H1148 0.950 . S
C1172 C1167 1.363 . S
C1172 C1171 1.415 . S
C1173 H1149 0.951 . S
C1173 C1174 1.366 . S
C1173 C1175 1.388 . S
C1174 C1173 1.366 . S
C1174 C1178 1.385 . S
C1175 H1150 0.951 . S
C1175 C1173 1.388 . S
C1175 C1176 1.366 . S
C1176 C1175 1.366 . S
C1176 C1177 1.414 . S
C1176 C1179 1.499 . S
C1177 H1151 0.950 . S
C1177 C1176 1.414 . S
C1177 C1178 1.374 . S
C1178 H1152 0.950 . S
C1178 C1174 1.385 . S
C1178 C1177 1.374 . S
C1179 C1176 1.499 . S
C1179 C1180 1.373 . S
C1179 C1181 1.389 . S
C1180 H1153 0.950 . S
C1180 C1166 1.377 . S
C1180 C1179 1.373 . S
C1181 C1165 1.377 . S
C1181 C1179 1.389 . S
C1181 C1182 1.524 . S
C1182 C1181 1.524 . S
C1182 C1183 1.397 . S
C1182 C1187 1.363 . S
C1183 H1154 0.950 . S
C1183 C1182 1.397 . S
C1183 C1184 1.334 . S
C1184 H1155 0.950 . S
C1184 C1183 1.334 . S
C1184 C1185 1.287 . S
C1185 C1184 1.287 . S
C1185 C1186 1.524 . S
C1185 H1188 0.999 . S
C1186 H1156 0.950 . S
C1186 C1185 1.524 . S
C1186 C1187 1.415 . S
C1187 H1157 0.950 . S
C1187 C1182 1.363 . S
C1187 C1186 1.415 . S
H1188 C1185 0.999 . S
H1189 C1170 0.913 . S
H1190 C1208 0.951 . S
H1191 C1210 0.951 . S
H1192 C1212 0.950 . S
H1193 C1213 0.950 . S
H1194 C1215 0.950 . S
H1195 C1218 0.950 . S
H1196 C1219 0.950 . S
H1197 C1221 0.950 . S
H1198 C1222 0.950 . S
H1199 C1223 0.951 . S
H1200 C1225 0.951 . S
H1201 C1227 0.950 . S
H1202 C1228 0.950 . S
H1203 C1230 0.950 . S
H1204 C1233 0.950 . S
H1205 C1234 0.950 . S
H1206 C1236 0.950 . S
H1207 C1237 0.950 . S
C1208 H1190 0.951 . S
C1208 C1209 1.366 . S
C1208 C1210 1.388 . S
C1209 C1208 1.366 . S
C1209 C1213 1.385 . S
C1210 H1191 0.951 . S
C1210 C1208 1.388 . S
C1210 C1211 1.366 . S
C1211 C1210 1.366 . S
C1211 C1212 1.414 . S
C1211 C1214 1.499 . S
C1212 H1192 0.950 . S
C1212 C1211 1.414 . S
C1212 C1213 1.374 . S
C1213 H1193 0.950 . S
C1213 C1209 1.385 . S
C1213 C1212 1.374 . S
C1214 C1211 1.499 . S
C1214 C1215 1.373 . S
C1214 C1216 1.389 . S
C1215 H1194 0.950 . S
C1215 C1214 1.373 . S
C1215 C1231 1.377 . S
C1216 C1214 1.389 . S
C1216 C1217 1.524 . S
C1216 C1230 1.377 . S
C1217 C1216 1.524 . S
C1217 C1218 1.397 . S
C1217 C1222 1.363 . S
C1218 H1195 0.950 . S
C1218 C1217 1.397 . S
C1218 C1219 1.334 . S
C1219 H1196 0.950 . S
C1219 C1218 1.334 . S
C1219 C1220 1.287 . S
C1220 C1219 1.287 . S
C1220 C1221 1.524 . S
C1220 H1239 0.913 . S
C1221 H1197 0.950 . S
C1221 C1220 1.524 . S
C1221 C1222 1.415 . S
C1222 H1198 0.950 . S
C1222 C1217 1.363 . S
C1222 C1221 1.415 . S
C1223 H1199 0.951 . S
C1223 C1224 1.366 . S
C1223 C1225 1.388 . S
C1224 C1223 1.366 . S
C1224 C1228 1.385 . S
C1225 H1200 0.951 . S
C1225 C1223 1.388 . S
C1225 C1226 1.366 . S
C1226 C1225 1.366 . S
C1226 C1227 1.414 . S
C1226 C1229 1.499 . S
C1227 H1201 0.950 . S
C1227 C1226 1.414 . S
C1227 C1228 1.374 . S
C1228 H1202 0.950 . S
C1228 C1224 1.385 . S
C1228 C1227 1.374 . S
C1229 C1226 1.499 . S
C1229 C1230 1.373 . S
C1229 C1231 1.389 . S
C1230 H1203 0.950 . S
C1230 C1216 1.377 . S
C1230 C1229 1.373 . S
C1231 C1215 1.377 . S
C1231 C1229 1.389 . S
C1231 C1232 1.524 . S
C1232 C1231 1.524 . S
C1232 C1233 1.397 . S
C1232 C1237 1.363 . S
C1233 H1204 0.950 . S
C1233 C1232 1.397 . S
C1233 C1234 1.334 . S
C1234 H1205 0.950 . S
C1234 C1233 1.334 . S
C1234 C1235 1.287 . S
C1235 C1234 1.287 . S
C1235 C1236 1.524 . S
C1235 H1238 0.999 . S
C1236 H1206 0.950 . S
C1236 C1235 1.524 . S
C1236 C1237 1.415 . S
C1237 H1207 0.950 . S
C1237 C1232 1.363 . S
C1237 C1236 1.415 . S
H1238 C1235 0.999 . S
H1239 C1220 0.913 . S
H1240 C1258 0.951 . S
H1241 C1260 0.951 . S
H1242 C1262 0.950 . S
H1243 C1263 0.950 . S
H1244 C1265 0.950 . S
H1245 C1268 0.950 . S
H1246 C1269 0.950 . S
H1247 C1271 0.950 . S
H1248 C1272 0.950 . S
H1249 C1273 0.951 . S
H1250 C1275 0.951 . S
H1251 C1277 0.950 . S
H1252 C1278 0.950 . S
H1253 C1280 0.950 . S
H1254 C1283 0.950 . S
H1255 C1284 0.950 . S
H1256 C1286 0.950 . S
H1257 C1287 0.950 . S
C1258 H1240 0.951 . S
C1258 C1259 1.366 . S
C1258 C1260 1.388 . S
C1259 C1258 1.366 . S
C1259 C1263 1.385 . S
C1260 H1241 0.951 . S
C1260 C1258 1.388 . S
C1260 C1261 1.366 . S
C1261 C1260 1.366 . S
C1261 C1262 1.414 . S
C1261 C1264 1.499 . S
C1262 H1242 0.950 . S
C1262 C1261 1.414 . S
C1262 C1263 1.374 . S
C1263 H1243 0.950 . S
C1263 C1259 1.385 . S
C1263 C1262 1.374 . S
C1264 C1261 1.499 . S
C1264 C1265 1.373 . S
C1264 C1266 1.389 . S
C1265 H1244 0.950 . S
C1265 C1264 1.373 . S
C1265 C1281 1.377 . S
C1266 C1264 1.389 . S
C1266 C1267 1.524 . S
C1266 C1280 1.377 . S
C1267 C1266 1.524 . S
C1267 C1268 1.397 . S
C1267 C1272 1.363 . S
C1268 H1245 0.950 . S
C1268 C1267 1.397 . S
C1268 C1269 1.334 . S
C1269 H1246 0.950 . S
C1269 C1268 1.334 . S
C1269 C1270 1.287 . S
C1270 C1269 1.287 . S
C1270 C1271 1.524 . S
C1270 H1289 0.913 . S
C1271 H1247 0.950 . S
C1271 C1270 1.524 . S
C1271 C1272 1.415 . S
C1272 H1248 0.950 . S
C1272 C1267 1.363 . S
C1272 C1271 1.415 . S
C1273 H1249 0.951 . S
C1273 C1274 1.366 . S
C1273 C1275 1.388 . S
C1274 C1273 1.366 . S
C1274 C1278 1.385 . S
C1275 H1250 0.951 . S
C1275 C1273 1.388 . S
C1275 C1276 1.366 . S
C1276 C1275 1.366 . S
C1276 C1277 1.414 . S
C1276 C1279 1.499 . S
C1277 H1251 0.950 . S
C1277 C1276 1.414 . S
C1277 C1278 1.374 . S
C1278 H1252 0.950 . S
C1278 C1274 1.385 . S
C1278 C1277 1.374 . S
C1279 C1276 1.499 . S
C1279 C1280 1.373 . S
C1279 C1281 1.389 . S
C1280 H1253 0.950 . S
C1280 C1266 1.377 . S
C1280 C1279 1.373 . S
C1281 C1265 1.377 . S
C1281 C1279 1.389 . S
C1281 C1282 1.524 . S
C1282 C1281 1.524 . S
C1282 C1283 1.397 . S
C1282 C1287 1.363 . S
C1283 H1254 0.950 . S
C1283 C1282 1.397 . S
C1283 C1284 1.334 . S
C1284 H1255 0.950 . S
C1284 C1283 1.334 . S
C1284 C1285 1.287 . S
C1285 C1284 1.287 . S
C1285 C1286 1.524 . S
C1285 H1288 0.999 . S
C1286 H1256 0.950 . S
C1286 C1285 1.524 . S
C1286 C1287 1.415 . S
C1287 H1257 0.950 . S
C1287 C1282 1.363 . S
C1287 C1286 1.415 . S
H1288 C1285 0.999 . S
H1289 C1270 0.913 . S
H1290 C1308 0.951 . S
H1291 C1310 0.951 . S
H1292 C1312 0.950 . S
H1293 C1313 0.950 . S
H1294 C1315 0.950 . S
H1295 C1318 0.950 . S
H1296 C1319 0.950 . S
H1297 C1321 0.950 . S
H1298 C1322 0.950 . S
H1299 C1323 0.951 . S
H1300 C1325 0.951 . S
H1301 C1327 0.950 . S
H1302 C1328 0.950 . S
H1303 C1330 0.950 . S
H1304 C1333 0.950 . S
H1305 C1334 0.950 . S
H1306 C1336 0.950 . S
H1307 C1337 0.950 . S
C1308 H1290 0.951 . S
C1308 C1309 1.366 . S
C1308 C1310 1.388 . S
C1309 C1308 1.366 . S
C1309 C1313 1.385 . S
C1310 H1291 0.951 . S
C1310 C1308 1.388 . S
C1310 C1311 1.366 . S
C1311 C1310 1.366 . S
C1311 C1312 1.414 . S
C1311 C1314 1.499 . S
C1312 H1292 0.950 . S
C1312 C1311 1.414 . S
C1312 C1313 1.374 . S
C1313 H1293 0.950 . S
C1313 C1309 1.385 . S
C1313 C1312 1.374 . S
C1314 C1311 1.499 . S
C1314 C1315 1.373 . S
C1314 C1316 1.389 . S
C1315 H1294 0.950 . S
C1315 C1314 1.373 . S
C1315 C1331 1.377 . S
C1316 C1314 1.389 . S
C1316 C1317 1.524 . S
C1316 C1330 1.377 . S
C1317 C1316 1.524 . S
C1317 C1318 1.397 . S
C1317 C1322 1.363 . S
C1318 H1295 0.950 . S
C1318 C1317 1.397 . S
C1318 C1319 1.334 . S
C1319 H1296 0.950 . S
C1319 C1318 1.334 . S
C1319 C1320 1.287 . S
C1320 C1319 1.287 . S
C1320 C1321 1.524 . S
C1320 H1339 0.913 . S
C1321 H1297 0.950 . S
C1321 C1320 1.524 . S
C1321 C1322 1.415 . S
C1322 H1298 0.950 . S
C1322 C1317 1.363 . S
C1322 C1321 1.415 . S
C1323 H1299 0.951 . S
C1323 C1324 1.366 . S
C1323 C1325 1.388 . S
C1324 C1323 1.366 . S
C1324 C1328 1.385 . S
C1325 H1300 0.951 . S
C1325 C1323 1.388 . S
C1325 C1326 1.366 . S
C1326 C1325 1.366 . S
C1326 C1327 1.414 . S
C1326 C1329 1.499 . S
C1327 H1301 0.950 . S
C1327 C1326 1.414 . S
C1327 C1328 1.374 . S
C1328 H1302 0.950 . S
C1328 C1324 1.385 . S
C1328 C1327 1.374 . S
C1329 C1326 1.499 . S
C1329 C1330 1.373 . S
C1329 C1331 1.389 . S
C1330 H1303 0.950 . S
C1330 C1316 1.377 . S
C1330 C1329 1.373 . S
C1331 C1315 1.377 . S
C1331 C1329 1.389 . S
C1331 C1332 1.524 . S
C1332 C1331 1.524 . S
C1332 C1333 1.397 . S
C1332 C1337 1.363 . S
C1333 H1304 0.950 . S
C1333 C1332 1.397 . S
C1333 C1334 1.334 . S
C1334 H1305 0.950 . S
C1334 C1333 1.334 . S
C1334 C1335 1.287 . S
C1335 C1334 1.287 . S
C1335 C1336 1.524 . S
C1335 H1338 0.999 . S
C1336 H1306 0.950 . S
C1336 C1335 1.524 . S
C1336 C1337 1.415 . S
C1337 H1307 0.950 . S
C1337 C1332 1.363 . S
C1337 C1336 1.415 . S
H1338 C1335 0.999 . S
H1339 C1320 0.913 . S
H1340 C1358 0.951 . S
H1341 C1360 0.951 . S
H1342 C1362 0.950 . S
H1343 C1363 0.950 . S
H1344 C1365 0.950 . S
H1345 C1368 0.950 . S
H1346 C1369 0.950 . S
H1347 C1371 0.950 . S
H1348 C1372 0.950 . S
H1349 C1373 0.951 . S
H1350 C1375 0.951 . S
H1351 C1377 0.950 . S
H1352 C1378 0.950 . S
H1353 C1380 0.950 . S
H1354 C1383 0.950 . S
H1355 C1384 0.950 . S
H1356 C1386 0.950 . S
H1357 C1387 0.950 . S
C1358 H1340 0.951 . S
C1358 C1359 1.366 . S
C1358 C1360 1.388 . S
C1359 C1358 1.366 . S
C1359 C1363 1.385 . S
C1360 H1341 0.951 . S
C1360 C1358 1.388 . S
C1360 C1361 1.366 . S
C1361 C1360 1.366 . S
C1361 C1362 1.414 . S
C1361 C1364 1.499 . S
C1362 H1342 0.950 . S
C1362 C1361 1.414 . S
C1362 C1363 1.374 . S
C1363 H1343 0.950 . S
C1363 C1359 1.385 . S
C1363 C1362 1.374 . S
C1364 C1361 1.499 . S
C1364 C1365 1.373 . S
C1364 C1366 1.389 . S
C1365 H1344 0.950 . S
C1365 C1364 1.373 . S
C1365 C1381 1.377 . S
C1366 C1364 1.389 . S
C1366 C1367 1.524 . S
C1366 C1380 1.377 . S
C1367 C1366 1.524 . S
C1367 C1368 1.397 . S
C1367 C1372 1.363 . S
C1368 H1345 0.950 . S
C1368 C1367 1.397 . S
C1368 C1369 1.334 . S
C1369 H1346 0.950 . S
C1369 C1368 1.334 . S
C1369 C1370 1.287 . S
C1370 C1369 1.287 . S
C1370 C1371 1.524 . S
C1370 H1389 0.913 . S
C1371 H1347 0.950 . S
C1371 C1370 1.524 . S
C1371 C1372 1.415 . S
C1372 H1348 0.950 . S
C1372 C1367 1.363 . S
C1372 C1371 1.415 . S
C1373 H1349 0.951 . S
C1373 C1374 1.366 . S
C1373 C1375 1.388 . S
C1374 C1373 1.366 . S
C1374 C1378 1.385 . S
C1375 H1350 0.951 . S
C1375 C1373 1.388 . S
C1375 C1376 1.366 . S
C1376 C1375 1.366 . S
C1376 C1377 1.414 . S
C1376 C1379 1.499 . S
C1377 H1351 0.950 . S
C1377 C1376 1.414 . S
C1377 C1378 1.374 . S
C1378 H1352 0.950 . S
C1378 C1374 1.385 . S
C1378 C1377 1.374 . S
C1379 C1376 1.499 . S
C1379 C1380 1.373 . S
C1379 C1381 1.389 . S
C1380 H1353 0.950 . S
C1380 C1366 1.377 . S
C1380 C1379 1.373 . S
C1381 C1365 1.377 . S
C1381 C1379 1.389 . S
C1381 C1382 1.524 . S
C1382 C1381 1.524 . S
C1382 C1383 1.397 . S
C1382 C1387 1.363 . S
C1383 H1354 0.950 . S
C1383 C1382 1.397 . S
C1383 C1384 1.334 . S
C1384 H1355 0.950 . S
C1384 C1383 1.334 . S
C1384 C1385 1.287 . S
C1385 C1384 1.287 . S
C1385 C1386 1.524 . S
C1385 H1388 0.999 . S
C1386 H1356 0.950 . S
C1386 C1385 1.524 . S
C1386 C1387 1.415 . S
C1387 H1357 0.950 . S
C1387 C1382 1.363 . S
C1387 C1386 1.415 . S
H1388 C1385 0.999 . S
H1389 C1370 0.913 . S
H1390 C1408 0.951 . S
H1391 C1410 0.951 . S
H1392 C1412 0.950 . S
H1393 C1413 0.950 . S
H1394 C1415 0.950 . S
H1395 C1418 0.950 . S
H1396 C1419 0.950 . S
H1397 C1421 0.950 . S
H1398 C1422 0.950 . S
H1399 C1423 0.951 . S
H1400 C1425 0.951 . S
H1401 C1427 0.950 . S
H1402 C1428 0.950 . S
H1403 C1430 0.950 . S
H1404 C1433 0.950 . S
H1405 C1434 0.950 . S
H1406 C1436 0.950 . S
H1407 C1437 0.950 . S
C1408 H1390 0.951 . S
C1408 C1409 1.366 . S
C1408 C1410 1.388 . S
C1409 C1408 1.366 . S
C1409 C1413 1.385 . S
C1410 H1391 0.951 . S
C1410 C1408 1.388 . S
C1410 C1411 1.366 . S
C1411 C1410 1.366 . S
C1411 C1412 1.414 . S
C1411 C1414 1.499 . S
C1412 H1392 0.950 . S
C1412 C1411 1.414 . S
C1412 C1413 1.374 . S
C1413 H1393 0.950 . S
C1413 C1409 1.385 . S
C1413 C1412 1.374 . S
C1414 C1411 1.499 . S
C1414 C1415 1.373 . S
C1414 C1416 1.389 . S
C1415 H1394 0.950 . S
C1415 C1414 1.373 . S
C1415 C1431 1.377 . S
C1416 C1414 1.389 . S
C1416 C1417 1.524 . S
C1416 C1430 1.377 . S
C1417 C1416 1.524 . S
C1417 C1418 1.397 . S
C1417 C1422 1.363 . S
C1418 H1395 0.950 . S
C1418 C1417 1.397 . S
C1418 C1419 1.334 . S
C1419 H1396 0.950 . S
C1419 C1418 1.334 . S
C1419 C1420 1.287 . S
C1420 C1419 1.287 . S
C1420 C1421 1.524 . S
C1420 H1439 0.913 . S
C1421 H1397 0.950 . S
C1421 C1420 1.524 . S
C1421 C1422 1.415 . S
C1422 H1398 0.950 . S
C1422 C1417 1.363 . S
C1422 C1421 1.415 . S
C1423 H1399 0.951 . S
C1423 C1424 1.366 . S
C1423 C1425 1.388 . S
C1424 C1423 1.366 . S
C1424 C1428 1.385 . S
C1425 H1400 0.951 . S
C1425 C1423 1.388 . S
C1425 C1426 1.366 . S
C1426 C1425 1.366 . S
C1426 C1427 1.414 . S
C1426 C1429 1.499 . S
C1427 H1401 0.950 . S
C1427 C1426 1.414 . S
C1427 C1428 1.374 . S
C1428 H1402 0.950 . S
C1428 C1424 1.385 . S
C1428 C1427 1.374 . S
C1429 C1426 1.499 . S
C1429 C1430 1.373 . S
C1429 C1431 1.389 . S
C1430 H1403 0.950 . S
C1430 C1416 1.377 . S
C1430 C1429 1.373 . S
C1431 C1415 1.377 . S
C1431 C1429 1.389 . S
C1431 C1432 1.524 . S
C1432 C1431 1.524 . S
C1432 C1433 1.397 . S
C1432 C1437 1.363 . S
C1433 H1404 0.950 . S
C1433 C1432 1.397 . S
C1433 C1434 1.334 . S
C1434 H1405 0.950 . S
C1434 C1433 1.334 . S
C1434 C1435 1.287 . S
C1435 C1434 1.287 . S
C1435 C1436 1.524 . S
C1435 H1438 0.999 . S
C1436 H1406 0.950 . S
C1436 C1435 1.524 . S
C1436 C1437 1.415 . S
C1437 H1407 0.950 . S
C1437 C1432 1.363 . S
C1437 C1436 1.415 . S
H1438 C1435 0.999 . S
H1439 C1420 0.913 . S
H1440 C1458 0.951 . S
H1441 C1460 0.951 . S
H1442 C1462 0.950 . S
H1443 C1463 0.950 . S
H1444 C1465 0.950 . S
H1445 C1468 0.950 . S
H1446 C1469 0.950 . S
H1447 C1471 0.950 . S
H1448 C1472 0.950 . S
H1449 C1473 0.951 . S
H1450 C1475 0.951 . S
H1451 C1477 0.950 . S
H1452 C1478 0.950 . S
H1453 C1480 0.950 . S
H1454 C1483 0.950 . S
H1455 C1484 0.950 . S
H1456 C1486 0.950 . S
H1457 C1487 0.950 . S
C1458 H1440 0.951 . S
C1458 C1459 1.366 . S
C1458 C1460 1.388 . S
C1459 C1458 1.366 . S
C1459 C1463 1.385 . S
C1460 H1441 0.951 . S
C1460 C1458 1.388 . S
C1460 C1461 1.366 . S
C1461 C1460 1.366 . S
C1461 C1462 1.414 . S
C1461 C1464 1.499 . S
C1462 H1442 0.950 . S
C1462 C1461 1.414 . S
C1462 C1463 1.374 . S
C1463 H1443 0.950 . S
C1463 C1459 1.385 . S
C1463 C1462 1.374 . S
C1464 C1461 1.499 . S
C1464 C1465 1.373 . S
C1464 C1466 1.389 . S
C1465 H1444 0.950 . S
C1465 C1464 1.373 . S
C1465 C1481 1.377 . S
C1466 C1464 1.389 . S
C1466 C1467 1.524 . S
C1466 C1480 1.377 . S
C1467 C1466 1.524 . S
C1467 C1468 1.397 . S
C1467 C1472 1.363 . S
C1468 H1445 0.950 . S
C1468 C1467 1.397 . S
C1468 C1469 1.334 . S
C1469 H1446 0.950 . S
C1469 C1468 1.334 . S
C1469 C1470 1.287 . S
C1470 C1469 1.287 . S
C1470 C1471 1.524 . S
C1470 H1489 0.913 . S
C1471 H1447 0.950 . S
C1471 C1470 1.524 . S
C1471 C1472 1.415 . S
C1472 H1448 0.950 . S
C1472 C1467 1.363 . S
C1472 C1471 1.415 . S
C1473 H1449 0.951 . S
C1473 C1474 1.366 . S
C1473 C1475 1.388 . S
C1474 C1473 1.366 . S
C1474 C1478 1.385 . S
C1475 H1450 0.951 . S
C1475 C1473 1.388 . S
C1475 C1476 1.366 . S
C1476 C1475 1.366 . S
C1476 C1477 1.414 . S
C1476 C1479 1.499 . S
C1477 H1451 0.950 . S
C1477 C1476 1.414 . S
C1477 C1478 1.374 . S
C1478 H1452 0.950 . S
C1478 C1474 1.385 . S
C1478 C1477 1.374 . S
C1479 C1476 1.499 . S
C1479 C1480 1.373 . S
C1479 C1481 1.389 . S
C1480 H1453 0.950 . S
C1480 C1466 1.377 . S
C1480 C1479 1.373 . S
C1481 C1465 1.377 . S
C1481 C1479 1.389 . S
C1481 C1482 1.524 . S
C1482 C1481 1.524 . S
C1482 C1483 1.397 . S
C1482 C1487 1.363 . S
C1483 H1454 0.950 . S
C1483 C1482 1.397 . S
C1483 C1484 1.334 . S
C1484 H1455 0.950 . S
C1484 C1483 1.334 . S
C1484 C1485 1.287 . S
C1485 C1484 1.287 . S
C1485 C1486 1.524 . S
C1485 H1488 0.999 . S
C1486 H1456 0.950 . S
C1486 C1485 1.524 . S
C1486 C1487 1.415 . S
C1487 H1457 0.950 . S
C1487 C1482 1.363 . S
C1487 C1486 1.415 . S
H1488 C1485 0.999 . S
H1489 C1470 0.913 . S
H1490 C1508 0.951 . S
H1491 C1510 0.951 . S
H1492 C1512 0.950 . S
H1493 C1513 0.950 . S
H1494 C1515 0.950 . S
H1495 C1518 0.950 . S
H1496 C1519 0.950 . S
H1497 C1521 0.950 . S
H1498 C1522 0.950 . S
H1499 C1523 0.951 . S
H1500 C1525 0.951 . S
H1501 C1527 0.950 . S
H1502 C1528 0.950 . S
H1503 C1530 0.950 . S
H1504 C1533 0.950 . S
H1505 C1534 0.950 . S
H1506 C1536 0.950 . S
H1507 C1537 0.950 . S
C1508 H1490 0.951 . S
C1508 C1509 1.366 . S
C1508 C1510 1.388 . S
C1509 C1508 1.366 . S
C1509 C1513 1.385 . S
C1510 H1491 0.951 . S
C1510 C1508 1.388 . S
C1510 C1511 1.366 . S
C1511 C1510 1.366 . S
C1511 C1512 1.414 . S
C1511 C1514 1.499 . S
C1512 H1492 0.950 . S
C1512 C1511 1.414 . S
C1512 C1513 1.374 . S
C1513 H1493 0.950 . S
C1513 C1509 1.385 . S
C1513 C1512 1.374 . S
C1514 C1511 1.499 . S
C1514 C1515 1.373 . S
C1514 C1516 1.389 . S
C1515 H1494 0.950 . S
C1515 C1514 1.373 . S
C1515 C1531 1.377 . S
C1516 C1514 1.389 . S
C1516 C1517 1.524 . S
C1516 C1530 1.377 . S
C1517 C1516 1.524 . S
C1517 C1518 1.397 . S
C1517 C1522 1.363 . S
C1518 H1495 0.950 . S
C1518 C1517 1.397 . S
C1518 C1519 1.334 . S
C1519 H1496 0.950 . S
C1519 C1518 1.334 . S
C1519 C1520 1.287 . S
C1520 C1519 1.287 . S
C1520 C1521 1.524 . S
C1520 H1539 0.913 . S
C1521 H1497 0.950 . S
C1521 C1520 1.524 . S
C1521 C1522 1.415 . S
C1522 H1498 0.950 . S
C1522 C1517 1.363 . S
C1522 C1521 1.415 . S
C1523 H1499 0.951 . S
C1523 C1524 1.366 . S
C1523 C1525 1.388 . S
C1524 C1523 1.366 . S
C1524 C1528 1.385 . S
C1525 H1500 0.951 . S
C1525 C1523 1.388 . S
C1525 C1526 1.366 . S
C1526 C1525 1.366 . S
C1526 C1527 1.414 . S
C1526 C1529 1.499 . S
C1527 H1501 0.950 . S
C1527 C1526 1.414 . S
C1527 C1528 1.374 . S
C1528 H1502 0.950 . S
C1528 C1524 1.385 . S
C1528 C1527 1.374 . S
C1529 C1526 1.499 . S
C1529 C1530 1.373 . S
C1529 C1531 1.389 . S
C1530 H1503 0.950 . S
C1530 C1516 1.377 . S
C1530 C1529 1.373 . S
C1531 C1515 1.377 . S
C1531 C1529 1.389 . S
C1531 C1532 1.524 . S
C1532 C1531 1.524 . S
C1532 C1533 1.397 . S
C1532 C1537 1.363 . S
C1533 H1504 0.950 . S
C1533 C1532 1.397 . S
C1533 C1534 1.334 . S
C1534 H1505 0.950 . S
C1534 C1533 1.334 . S
C1534 C1535 1.287 . S
C1535 C1534 1.287 . S
C1535 C1536 1.524 . S
C1535 H1538 0.999 . S
C1536 H1506 0.950 . S
C1536 C1535 1.524 . S
C1536 C1537 1.415 . S
C1537 H1507 0.950 . S
C1537 C1532 1.363 . S
C1537 C1536 1.415 . S
H1538 C1535 0.999 . S
H1539 C1520 0.913 . S
H1540 C1558 0.951 . S
H1541 C1560 0.951 . S
H1542 C1562 0.950 . S
H1543 C1563 0.950 . S
H1544 C1565 0.950 . S
H1545 C1568 0.950 . S
H1546 C1569 0.950 . S
H1547 C1571 0.950 . S
H1548 C1572 0.950 . S
H1549 C1573 0.951 . S
H1550 C1575 0.951 . S
H1551 C1577 0.950 . S
H1552 C1578 0.950 . S
H1553 C1580 0.950 . S
H1554 C1583 0.950 . S
H1555 C1584 0.950 . S
H1556 C1586 0.950 . S
H1557 C1587 0.950 . S
C1558 H1540 0.951 . S
C1558 C1559 1.366 . S
C1558 C1560 1.388 . S
C1559 C1558 1.366 . S
C1559 C1563 1.385 . S
C1560 H1541 0.951 . S
C1560 C1558 1.388 . S
C1560 C1561 1.366 . S
C1561 C1560 1.366 . S
C1561 C1562 1.414 . S
C1561 C1564 1.499 . S
C1562 H1542 0.950 . S
C1562 C1561 1.414 . S
C1562 C1563 1.374 . S
C1563 H1543 0.950 . S
C1563 C1559 1.385 . S
C1563 C1562 1.374 . S
C1564 C1561 1.499 . S
C1564 C1565 1.373 . S
C1564 C1566 1.389 . S
C1565 H1544 0.950 . S
C1565 C1564 1.373 . S
C1565 C1581 1.377 . S
C1566 C1564 1.389 . S
C1566 C1567 1.524 . S
C1566 C1580 1.377 . S
C1567 C1566 1.524 . S
C1567 C1568 1.397 . S
C1567 C1572 1.363 . S
C1568 H1545 0.950 . S
C1568 C1567 1.397 . S
C1568 C1569 1.334 . S
C1569 H1546 0.950 . S
C1569 C1568 1.334 . S
C1569 C1570 1.287 . S
C1570 C1569 1.287 . S
C1570 C1571 1.524 . S
C1570 H1589 0.913 . S
C1571 H1547 0.950 . S
C1571 C1570 1.524 . S
C1571 C1572 1.415 . S
C1572 H1548 0.950 . S
C1572 C1567 1.363 . S
C1572 C1571 1.415 . S
C1573 H1549 0.951 . S
C1573 C1574 1.366 . S
C1573 C1575 1.388 . S
C1574 C1573 1.366 . S
C1574 C1578 1.385 . S
C1575 H1550 0.951 . S
C1575 C1573 1.388 . S
C1575 C1576 1.366 . S
C1576 C1575 1.366 . S
C1576 C1577 1.414 . S
C1576 C1579 1.499 . S
C1577 H1551 0.950 . S
C1577 C1576 1.414 . S
C1577 C1578 1.374 . S
C1578 H1552 0.950 . S
C1578 C1574 1.385 . S
C1578 C1577 1.374 . S
C1579 C1576 1.499 . S
C1579 C1580 1.373 . S
C1579 C1581 1.389 . S
C1580 H1553 0.950 . S
C1580 C1566 1.377 . S
C1580 C1579 1.373 . S
C1581 C1565 1.377 . S
C1581 C1579 1.389 . S
C1581 C1582 1.524 . S
C1582 C1581 1.524 . S
C1582 C1583 1.397 . S
C1582 C1587 1.363 . S
C1583 H1554 0.950 . S
C1583 C1582 1.397 . S
C1583 C1584 1.334 . S
C1584 H1555 0.950 . S
C1584 C1583 1.334 . S
C1584 C1585 1.287 . S
C1585 C1584 1.287 . S
C1585 C1586 1.524 . S
C1585 H1588 0.999 . S
C1586 H1556 0.950 . S
C1586 C1585 1.524 . S
C1586 C1587 1.415 . S
C1587 H1557 0.950 . S
C1587 C1582 1.363 . S
C1587 C1586 1.415 . S
H1588 C1585 0.999 . S
H1589 C1570 0.913 . S
C424 C94 1.551 . S
C409 C4 1.555 . S
C474 C163 1.544 . S
C459 C13 1.550 . S
C524 C101 1.547 . S
C509 C25 1.553 . S
C574 C164 1.545 . S
C559 C34 1.548 . S
C624 C217 1.543 . S
C609 C7 1.545 . S
C674 C253 1.523 . S
C659 C14 1.522 . S
C709 C23 1.535 . S
C724 C313 1.532 . S
C774 C376 1.526 . S
C759 C31 1.526 . S
C824 C216 1.537 . S
C809 C16 1.542 . S
C859 C22 1.526 . S
C874 C260 1.525 . S
C924 C306 1.533 . S
C909 C32 1.534 . S
C974 C375 1.526 . S
C959 C5 1.526 . S
C1009 C43 1.556 . S
C1024 C154 1.553 . S
C1074 C111 1.546 . S
C1059 C52 1.552 . S
C1109 C58 1.555 . S
C1124 C147 1.549 . S
C1159 C68 1.551 . S
C1174 C110 1.547 . S
C1224 C322 1.543 . S
C1209 C40 1.543 . S
C1274 C366 1.517 . S
C1259 C50 1.517 . S
C1324 C200 1.551 . S
C1309 C59 1.555 . S
C1359 C70 1.512 . S
C1374 C269 1.511 . S
C1424 C323 1.538 . S
C1409 C49 1.542 . S
C1474 C359 1.513 . S
C1459 C61 1.513 . S
C1524 C207 1.552 . S
C1509 C67 1.555 . S
C1559 C41 1.518 . S
C1574 C270 1.517 . S
