# Generated by pormake.
# Topology anh, (6,3)-cn, num edge types: 1
# Building blocks:
#     Node 0, Type 0, BuildingBlock: NUHQIS_clean_sbu_0, # of connection points: 6
#     Node 1, Type 0, BuildingBlock: NUHQIS_clean_sbu_0, # of connection points: 6
#     Node 2, Type 0, BuildingBlock: NUHQIS_clean_sbu_0, # of connection points: 6
#     Node 3, Type 1, BuildingBlock: QEWDON_clean_linker_0, # of connection points: 3
#     Node 4, Type 1, BuildingBlock: QEWDON_clean_linker_0, # of connection points: 3
#     Node 5, Type 1, BuildingBlock: QEWDON_clean_linker_0, # of connection points: 3
#     Node 6, Type 1, BuildingBlock: QEWDON_clean_linker_0, # of connection points: 3
#     Node 7, Type 1, BuildingBlock: QEWDON_clean_linker_0, # of connection points: 3
#     Node 8, Type 1, BuildingBlock: QEWDON_clean_linker_0, # of connection points: 3
#     Edge 9, Type (0, 1), BuildingBlock: CIFDUS_clean_linker_0, # of connection points: 2
#     Edge 10, Type (0, 1), BuildingBlock: CIFDUS_clean_linker_0, # of connection points: 2
#     Edge 11, Type (0, 1), BuildingBlock: CIFDUS_clean_linker_0, # of connection points: 2
#     Edge 12, Type (0, 1), BuildingBlock: CIFDUS_clean_linker_0, # of connection points: 2
#     Edge 13, Type (0, 1), BuildingBlock: CIFDUS_clean_linker_0, # of connection points: 2
#     Edge 14, Type (0, 1), BuildingBlock: CIFDUS_clean_linker_0, # of connection points: 2
#     Edge 15, Type (0, 1), BuildingBlock: CIFDUS_clean_linker_0, # of connection points: 2
#     Edge 16, Type (0, 1), BuildingBlock: CIFDUS_clean_linker_0, # of connection points: 2
#     Edge 17, Type (0, 1), BuildingBlock: CIFDUS_clean_linker_0, # of connection points: 2
#     Edge 18, Type (0, 1), BuildingBlock: CIFDUS_clean_linker_0, # of connection points: 2
#     Edge 19, Type (0, 1), BuildingBlock: CIFDUS_clean_linker_0, # of connection points: 2
#     Edge 20, Type (0, 1), BuildingBlock: CIFDUS_clean_linker_0, # of connection points: 2
#     Edge 21, Type (0, 1), BuildingBlock: CIFDUS_clean_linker_0, # of connection points: 2
#     Edge 22, Type (0, 1), BuildingBlock: CIFDUS_clean_linker_0, # of connection points: 2
#     Edge 23, Type (0, 1), BuildingBlock: CIFDUS_clean_linker_0, # of connection points: 2
#     Edge 24, Type (0, 1), BuildingBlock: CIFDUS_clean_linker_0, # of connection points: 2
#     Edge 25, Type (0, 1), BuildingBlock: CIFDUS_clean_linker_0, # of connection points: 2
#     Edge 26, Type (0, 1), BuildingBlock: CIFDUS_clean_linker_0, # of connection points: 2
# Relax obj value: 0.256
# Max RMSD: 0.140
# Mean RMSD: 0.120
data_MOF--net-anh--node1-NUHQIS_clean_sbu_0--node2-QEWDON_clean_linker_0--edge1-CIFDUS_clean_linker_0
_symmetry_space_group_name_H-M    P1
_symmetry_Int_Tables_number       1
_symmetry_cell_setting            triclinic
loop_
_symmetry_equiv_pos_as_xyz
'x, y, z'
_cell_length_a     27.701697
_cell_length_b     27.55285
_cell_length_c     43.219722
_cell_angle_alpha  92.989229
_cell_angle_beta   95.008898
_cell_angle_gamma 119.93797
loop_
_atom_site_label
_atom_site_type_symbol
_atom_site_fract_x
_atom_site_fract_y
_atom_site_fract_z
_atom_type_partial_charge
Tb0 Tb 0.26499 0.65681 0.15417 0.0
Eu1 Eu 0.22096 0.74478 0.15837 0.0
C2 C 0.24957 0.70383 0.2155 0.0
C3 C 1.13478 0.60574 0.15416 0.0
C4 C 0.3819 0.6378 0.15982 0.0
C5 C 0.46921 0.71234 0.18935 0.0
C6 C 0.41561 0.66543 0.18857 0.0
C7 C 0.40627 0.65265 0.13212 0.0
C8 C 0.46012 0.69913 0.13293 0.0
C9 C 0.49062 0.73173 0.16141 0.0
C10 C 0.31995 0.6074 0.15855 0.0
O11 O 0.25599 0.67285 0.10518 0.0
O12 O 0.20106 0.71354 0.10759 0.0
O13 O 0.30895 0.80153 0.14751 0.0
O14 O 0.34031 0.74267 0.16345 0.0
C15 C 0.22482 0.69149 0.09148 0.0
O16 O 0.1871 0.79832 0.14475 0.0
O17 O 0.19936 0.7876 0.19351 0.0
O18 O 0.27383 0.74845 0.20123 0.0
O19 O 0.23163 0.65628 0.19835 0.0
O20 O 0.1744 0.59579 0.14643 0.0
O21 O 1.14569 0.65768 0.16178 0.0
C22 C 0.35043 0.79265 0.15588 0.0
O23 O 0.30196 0.62137 0.18238 0.0
O24 O 0.29151 0.60555 0.13229 0.0
C25 C 1.11154 0.77459 0.17434 0.0
C26 C 0.99621 0.69795 0.17419 0.0
C27 C 1.0172 0.72082 0.14671 0.0
C28 C 1.07407 0.75878 0.14678 0.0
C29 C 1.08996 0.75492 0.20239 0.0
C30 C 1.03263 0.71687 0.20232 0.0
C31 C 0.1724 0.80075 0.17253 0.0
H32 H 0.49171 0.73579 0.21177 0.0
H33 H 0.3985 0.65454 0.21044 0.0
H34 H 0.38203 0.6316 0.10959 0.0
H35 H 0.47661 0.71123 0.11102 0.0
H36 H 0.98952 0.70899 0.12491 0.0
H37 H 1.08894 0.77347 0.12485 0.0
H38 H 1.11778 0.7668 0.2241 0.0
H39 H 1.01708 0.70114 0.22395 0.0
Tb40 Tb 0.73268 0.14226 0.48935 0.0
Eu41 Eu 0.59809 1.08355 0.4748 0.0
C42 C 0.6525 1.07526 0.53992 0.0
C43 C 0.66124 1.0086 0.47537 0.0
C44 C 0.86715 0.26186 0.48935 0.0
C45 C 0.88159 0.35642 0.49766 0.0
C46 C 0.87691 0.30838 0.50964 0.0
C47 C 0.87107 0.26794 0.4574 0.0
C48 C 0.87627 0.31616 0.44547 0.0
C49 C 0.87783 0.35919 0.46525 0.0
C50 C 0.8372 0.20481 0.49961 0.0
O51 O 0.71428 0.12842 0.43818 0.0
O52 O 0.63392 0.13224 0.43463 0.0
O53 O 0.63095 0.16717 0.50385 0.0
O54 O 0.71392 0.21107 0.48474 0.0
C55 C 0.67605 0.13486 0.42178 0.0
O56 O 0.51851 1.03138 0.44461 0.0
O57 O 0.52197 1.08018 0.48682 0.0
O58 O 0.60883 1.04973 0.51848 0.0
O59 O 0.70097 0.11754 0.53431 0.0
O60 O 0.70894 1.05319 0.48825 0.0
O61 O 0.61712 1.01282 0.46494 0.0
C62 C 0.67443 0.21399 0.49803 0.0
O63 O 0.80401 0.19929 0.52047 0.0
O64 O 0.81235 0.16264 0.47752 0.0
C65 C 0.43471 0.99803 0.46902 0.0
C66 C 0.32158 0.91716 0.47204 0.0
C67 C 0.35663 0.902 0.4577 0.0
C68 C 0.41271 0.94211 0.45616 0.0
C69 C 0.40086 1.01226 0.48516 0.0
C70 C 0.34487 0.97219 0.48676 0.0
C71 C 0.49009 1.04343 0.46309 0.0
H72 H 0.88334 0.3891 0.51358 0.0
H73 H 0.87481 0.30531 0.53443 0.0
H74 H 0.86476 0.23343 0.4411 0.0
H75 H 0.87541 0.31812 0.42047 0.0
H76 H 0.33982 0.86015 0.44576 0.0
H77 H 0.43784 0.9299 0.4436 0.0
H78 H 0.41695 1.05518 0.49528 0.0
H79 H 0.31907 0.98496 0.49818 0.0
Tb80 Tb 0.7869 0.72632 0.81419 0.0
Eu81 Eu 0.70645 0.59436 0.8241 0.0
C82 C 0.75974 0.68676 0.87949 0.0
C83 C 0.84124 0.64663 0.82378 0.0
C84 C 0.83595 0.86795 0.84162 0.0
C85 C 0.80008 0.87214 0.89061 0.0
C86 C 0.83247 0.85809 0.87332 0.0
C87 C 0.81444 0.90051 0.82941 0.0
C88 C 0.78262 0.91519 0.84692 0.0
C89 C 0.7718 0.89719 0.87669 0.0
C90 C 0.84605 0.83145 0.81997 0.0
O91 O 0.77472 0.6853 0.76737 0.0
O92 O 0.6955 0.60087 0.7724 0.0
O93 O 0.64962 0.63145 0.82736 0.0
O94 O 0.70118 0.71284 0.80493 0.0
C95 C 0.7312 0.63652 0.75514 0.0
O96 O 0.66212 0.50463 0.80847 0.0
O97 O 0.65422 0.53339 0.85438 0.0
O98 O 0.75858 0.64072 0.86969 0.0
O99 O 0.75611 0.71849 0.85917 0.0
O100 O 0.84776 0.69734 0.82272 0.0
O101 O 0.79108 0.60131 0.82201 0.0
C102 C 0.65442 0.6766 0.81569 0.0
O103 O 0.86192 0.79942 0.8333 0.0
O104 O 0.80638 0.80306 0.79652 0.0
C105 C 0.66053 0.45176 0.84907 0.0
C106 C 0.69276 0.37231 0.8603 0.0
C107 C 0.63558 0.35602 0.85635 0.0
C108 C 0.61948 0.39562 0.85046 0.0
C109 C 0.71755 0.46913 0.85655 0.0
C110 C 0.73369 0.42946 0.86181 0.0
C111 C 0.64501 0.49032 0.83551 0.0
H112 H 0.79251 0.85836 0.91362 0.0
H113 H 0.84915 0.83374 0.88379 0.0
H114 H 0.81656 0.90883 0.80519 0.0
H115 H 0.76079 0.93436 0.83568 0.0
H116 H 0.60345 0.31188 0.85455 0.0
H117 H 0.57532 0.38173 0.84477 0.0
H118 H 0.74956 0.5126 0.85587 0.0
H119 H 0.77793 0.44261 0.86437 0.0
H120 H 0.77265 0.2297 0.23351 0.0
C121 C 0.7386 0.19013 0.22158 0.0
C122 C 0.70558 0.14666 0.23938 0.0
C123 C 0.72441 0.18448 0.18888 0.0
H124 H 0.63341 1.06392 0.23837 0.0
C125 C 0.65935 1.09633 0.2243 0.0
C126 C 0.64408 1.0885 0.19184 0.0
C127 C 0.67723 0.13277 0.1743 0.0
C128 C 0.75294 0.23471 0.1706 0.0
H129 H 0.66553 0.12721 0.14926 0.0
C130 C 0.81162 0.27599 0.17638 0.0
C131 C 0.83489 0.3242 0.15947 0.0
C132 C 0.71916 0.24308 0.14773 0.0
H133 H 0.67425 0.21423 0.14313 0.0
C134 C 0.74194 0.28955 0.13095 0.0
H135 H 0.83871 0.27104 0.19396 0.0
C136 C 0.79889 0.32953 0.13668 0.0
H137 H 0.815 0.3649 0.12294 0.0
H138 H 0.71503 0.2949 0.11346 0.0
H139 H 0.69778 0.65594 0.55472 0.0
C140 C 0.70171 0.62062 0.54622 0.0
C141 C 0.7118 0.58979 0.56831 0.0
C142 C 0.69403 0.60466 0.51381 0.0
H143 H 0.72051 0.51742 0.57501 0.0
C144 C 0.71282 0.54107 0.55795 0.0
C145 C 0.70581 0.52335 0.52595 0.0
C146 C 0.69824 0.55649 0.50412 0.0
C147 C 0.67776 0.6355 0.49045 0.0
H148 H 0.69457 0.54354 0.47959 0.0
C149 C 0.68821 0.69187 0.49725 0.0
C150 C 0.66863 0.71726 0.47524 0.0
C151 C 0.64799 0.60656 0.46102 0.0
H152 H 0.63612 0.56323 0.4547 0.0
C153 C 0.63106 0.63205 0.43906 0.0
H154 H 0.71065 0.71586 0.51951 0.0
C155 C 0.64132 0.68648 0.44593 0.0
H156 H 0.6276 0.70451 0.42795 0.0
H157 H 0.60892 0.60895 0.41651 0.0
H158 H 0.28673 0.68373 0.89485 0.0
C159 C 0.24647 0.67646 0.8843 0.0
C160 C 0.2045 0.66689 0.90359 0.0
C161 C 0.2381 0.6804 0.852 0.0
H162 H 1.12061 0.65293 0.9047 0.0
C163 C 1.15297 0.6602 0.89011 0.0
C164 C 1.14317 0.66509 0.85835 0.0
C165 C 0.1855 0.67409 0.83944 0.0
C166 C 0.28522 0.69573 0.83185 0.0
H167 H 0.17678 0.67599 0.8148 0.0
C168 C 0.32918 0.68271 0.83776 0.0
C169 C 0.37252 0.69882 0.81795 0.0
C170 C 0.28702 0.72594 0.80624 0.0
H171 H 0.25729 0.74 0.80141 0.0
C172 C 0.3276 0.73967 0.78629 0.0
H173 H 0.32988 0.66052 0.85755 0.0
C174 C 0.36918 0.72583 0.79175 0.0
H175 H 0.39884 0.73647 0.775 0.0
H176 H 0.32693 0.76161 0.76634 0.0
H177 H 0.94923 0.65512 0.29779 0.0
C178 C 0.97385 0.68423 0.31836 0.0
C179 C 1.03298 0.71164 0.32197 0.0
C180 C 0.94597 0.69066 0.34259 0.0
H181 H 1.10823 0.76565 0.35433 0.0
C182 C 1.06299 0.74653 0.34985 0.0
C183 C 1.03562 0.75468 0.37348 0.0
C184 C 0.97712 0.72704 0.36986 0.0
C185 C 0.88695 0.64795 0.34362 0.0
H186 H 0.95588 0.7303 0.3891 0.0
C187 C 0.87638 0.60574 0.36304 0.0
C188 C 0.82158 0.56198 0.36455 0.0
C189 C 0.84219 0.64676 0.32513 0.0
H190 H 0.84987 0.67894 0.30972 0.0
C191 C 0.78706 0.6035 0.32662 0.0
H192 H 0.91179 0.60602 0.37614 0.0
C193 C 0.77666 0.56104 0.3461 0.0
H194 H 0.73386 0.52759 0.34665 0.0
H195 H 0.75236 0.60253 0.31241 0.0
H196 H 0.58672 0.96175 0.72052 0.0
C197 C 0.60911 1.00354 0.73324 0.0
C198 C 0.653 1.04844 0.72066 0.0
C199 C 0.59508 1.01275 0.76256 0.0
H200 H 0.71741 0.13603 0.72853 0.0
C201 C 0.68333 1.10183 0.73808 0.0
C202 C 0.66775 0.1123 0.76658 0.0
C203 C 0.62287 1.06744 0.77818 0.0
C204 C 0.55534 0.96601 0.77908 0.0
H205 H 0.60854 1.07462 0.79955 0.0
C206 C 0.57259 0.96442 0.81021 0.0
C207 C 0.53709 0.92317 0.82815 0.0
C208 C 0.50144 0.92453 0.76519 0.0
H209 H 0.48702 0.92485 0.74113 0.0
C210 C 0.46547 0.88277 0.78274 0.0
H211 H 0.61549 0.99473 0.82012 0.0
C212 C 0.48315 0.88177 0.81404 0.0
H213 H 0.45527 0.84841 0.82695 0.0
H214 H 0.42391 0.85086 0.77194 0.0
H215 H 0.7898 0.81359 0.05632 0.0
C216 C 0.78071 0.78351 0.07325 0.0
C217 C 0.75978 0.72634 0.06332 0.0
C218 C 0.79049 0.80228 0.10508 0.0
H219 H 0.72908 0.64369 0.07769 0.0
C220 C 0.74736 0.68788 0.08569 0.0
C221 C 0.76198 0.70658 0.11789 0.0
C222 C 0.78228 0.76408 0.12708 0.0
C223 C 0.80685 0.86109 0.11589 0.0
H224 H 0.79491 0.78085 0.15145 0.0
C225 C 0.77811 0.86976 0.13853 0.0
C226 C 0.78793 0.92368 0.14794 0.0
C227 C 0.84769 0.90791 0.10312 0.0
H228 H 0.87081 0.9025 0.08562 0.0
C229 C 0.85862 0.96225 0.11289 0.0
H230 H 0.74475 0.83357 0.14744 0.0
C231 C 0.82813 0.97017 0.13489 0.0
H232 H 0.83497 1.0119 0.14117 0.0
H233 H 0.88977 0.99811 0.10279 0.0
H234 H 0.58579 0.78002 0.20396 0.0
H235 H 0.51206 0.80974 0.12013 0.0
H236 H 0.60178 0.89273 0.11521 0.0
H237 H 0.70412 0.94022 0.1273 0.0
H238 H 0.77799 0.90693 0.20913 0.0
H239 H 0.68498 0.84562 0.22392 0.0
C240 C 0.58878 0.80535 0.18507 0.0
C241 C 0.54292 0.78691 0.16158 0.0
C242 C 0.64058 0.85321 0.18235 0.0
C243 C 0.54759 0.82105 0.13756 0.0
C244 C 0.59865 0.86915 0.13499 0.0
C245 C 0.69982 0.92236 0.1494 0.0
C246 C 0.74715 0.92621 0.16658 0.0
C247 C 0.64613 0.88358 0.15621 0.0
C248 C 0.74171 0.90383 0.1954 0.0
C249 C 0.6884 0.86743 0.20334 0.0
H250 H 0.80476 0.34575 0.41496 0.0
H251 H 0.93074 0.47153 0.48637 0.0
H252 H 0.91595 0.54376 0.46448 0.0
H253 H 0.87301 0.57222 0.42281 0.0
H254 H 0.75372 0.44827 0.34857 0.0
H255 H 0.75855 0.37372 0.3745 0.0
C256 C 0.82962 0.38913 0.42549 0.0
C257 C 0.86967 0.40347 0.4519 0.0
C258 C 0.82151 0.43049 0.41252 0.0
C259 C 0.89986 0.45943 0.46598 0.0
C260 C 0.89142 0.50071 0.45348 0.0
C261 C 0.84777 0.52879 0.41239 0.0
C262 C 0.81381 0.51589 0.38354 0.0
C263 C 0.85306 0.48682 0.42649 0.0
C264 C 0.78008 0.45933 0.37079 0.0
C265 C 0.78351 0.41683 0.38535 0.0
H266 H 0.74953 0.97721 0.89918 0.0
H267 H 0.6768 0.79823 0.87691 0.0
H268 H 0.58287 0.78544 0.87098 0.0
H269 H 0.53037 0.8307 0.85194 0.0
H270 H 0.60141 1.00904 0.87503 0.0
H271 H 0.68625 1.0164 0.90186 0.0
C272 C 0.71284 0.93525 0.89462 0.0
C273 C 0.71971 0.88895 0.88774 0.0
C274 C 0.65885 0.92829 0.89027 0.0
C275 C 0.67225 0.83451 0.88216 0.0
C276 C 0.6185 0.82724 0.8782 0.0
C277 C 0.56285 0.87051 0.86439 0.0
C278 C 0.56213 0.92002 0.85928 0.0
C279 C 0.61206 0.87452 0.87918 0.0
C280 C 0.60277 0.97073 0.87723 0.0
C281 C 0.65176 0.97519 0.8922 0.0
H282 H 0.92481 0.70456 0.21117 0.0
H283 H 0.93065 0.60329 0.13378 0.0
H284 H 0.83472 0.57478 0.11295 0.0
H285 H 0.77265 0.61246 0.10654 0.0
H286 H 0.76471 0.71418 0.18313 0.0
H287 H 0.83673 0.70634 0.21517 0.0
C288 C 0.9039 0.67369 0.19077 0.0
C289 C 0.93527 0.6586 0.17286 0.0
C290 C 0.84944 0.65937 0.17818 0.0
C291 C 0.90749 0.61706 0.14716 0.0
C292 C 0.85278 0.60113 0.1351 0.0
C293 C 0.78435 0.63147 0.13052 0.0
C294 C 0.76934 0.67096 0.14088 0.0
C295 C 0.82634 0.6274 0.1486 0.0
C296 C 0.78091 0.68919 0.17318 0.0
C297 C 0.82195 0.68446 0.19173 0.0
H298 H 0.24199 0.94411 0.4556 0.0
H299 H 0.26277 0.80348 0.47607 0.0
H300 H 0.16568 0.73788 0.45328 0.0
H301 H 1.0843 0.7219 0.41722 0.0
H302 H 1.06728 0.86271 0.39313 0.0
H303 H 1.15254 0.92716 0.4288 0.0
C304 C 0.2247 0.89919 0.45624 0.0
C305 C 0.25983 0.87859 0.46693 0.0
C306 C 0.16953 0.86187 0.44225 0.0
C307 C 0.23683 0.82024 0.46735 0.0
C308 C 0.18138 0.78277 0.45433 0.0
C309 C 1.09809 0.76643 0.42103 0.0
C310 C 1.0702 0.78801 0.40284 0.0
C311 C 1.14855 0.80317 0.44017 0.0
C312 C 1.08819 0.84555 0.40727 0.0
C313 C 1.1373 0.88232 0.42727 0.0
H314 H 0.73259 0.35979 0.80894 0.0
H315 H 0.68189 0.28715 0.89452 0.0
H316 H 0.68321 0.20273 0.87452 0.0
H317 H 0.68328 0.14485 0.82953 0.0
H318 H 0.71192 0.21244 0.74037 0.0
H319 H 0.73813 0.3043 0.76526 0.0
C320 C 0.72376 0.32614 0.82354 0.0
C321 C 0.70778 0.32928 0.85312 0.0
C322 C 0.72038 0.27665 0.81101 0.0
C323 C 0.69488 0.28533 0.87176 0.0
C324 C 0.69517 0.23713 0.8602 0.0
C325 C 0.69481 0.17938 0.81535 0.0
C326 C 0.69408 0.17056 0.78281 0.0
C327 C 0.7051 0.23131 0.82925 0.0
C328 C 0.71218 0.21707 0.7654 0.0
C329 C 0.72655 0.26989 0.77956 0.0
H330 H 0.73736 0.97707 0.49892 0.0
H331 H 0.57102 0.90855 0.44862 0.0
H332 H 0.55797 0.81431 0.44646 0.0
H333 H 0.59269 0.75035 0.45798 0.0
H334 H 0.75943 0.8159 0.50657 0.0
H335 H 0.77233 0.91107 0.51108 0.0
C336 C 0.6983 0.94162 0.48735 0.0
C337 C 0.65541 0.95093 0.47375 0.0
C338 C 0.69071 0.88643 0.48617 0.0
C339 C 0.60506 0.9037 0.4592 0.0
C340 C 0.59738 0.84933 0.458 0.0
C341 C 0.63226 0.78529 0.46942 0.0
C342 C 0.67527 0.77517 0.48155 0.0
C343 C 0.63982 0.84011 0.47128 0.0
C344 C 0.7253 0.82156 0.49709 0.0
C345 C 0.73289 0.87635 0.4994 0.0
H346 H 0.95024 0.71762 0.8115 0.0
H347 H 0.8482 0.56122 0.84925 0.0
H348 H 0.93041 0.55197 0.86223 0.0
H349 H 1.03295 0.58984 0.86517 0.0
H350 H 1.13483 0.74277 0.82461 0.0
H351 H 1.05197 0.75125 0.81027 0.0
C352 C 0.94587 0.68133 0.82241 0.0
C353 C 0.89236 0.64038 0.82948 0.0
C354 C 0.99378 0.67549 0.82936 0.0
C355 C 0.88814 0.59347 0.84336 0.0
C356 C 0.9355 0.58815 0.85094 0.0
C357 C 1.03699 0.62476 0.85291 0.0
C358 C 1.0906 0.66564 0.84609 0.0
C359 C 0.98872 0.62907 0.84435 0.0
C360 C 1.09443 0.71033 0.82997 0.0
C361 C 1.04691 0.71544 0.82195 0.0
H362 H 0.39516 0.89818 0.13475 0.0
H363 H 0.43996 0.79865 0.19132 0.0
H364 H 0.53479 0.87872 0.20516 0.0
H365 H 0.60452 0.97877 0.2038 0.0
H366 H 0.56093 1.08006 0.14814 0.0
H367 H 0.46774 0.99793 0.13086 0.0
C368 C 0.4258 0.89379 0.14985 0.0
C369 C 0.40979 0.84167 0.16177 0.0
C370 C 0.4811 0.94064 0.15787 0.0
C371 C 0.4506 0.83743 0.18135 0.0
C372 C 0.50509 0.88359 0.18951 0.0
C373 C 0.57483 0.98299 0.18773 0.0
C374 C 0.59024 1.03621 0.17754 0.0
C375 C 0.52077 0.93559 0.17821 0.0
C376 C 0.55101 1.03998 0.15627 0.0
C377 C 0.49724 0.99293 0.14659 0.0
H378 H 0.73386 0.31714 0.47387 0.0
H379 H 0.62091 0.23601 0.54151 0.0
H380 H 0.62075 0.32257 0.55577 0.0
H381 H 0.65103 0.42137 0.54919 0.0
H382 H 0.76001 0.50342 0.48023 0.0
H383 H 0.76241 0.4172 0.46628 0.0
C384 C 0.70939 0.31847 0.49181 0.0
C385 C 0.67749 0.26937 0.50659 0.0
C386 C 0.70831 0.36885 0.49961 0.0
C387 C 0.64576 0.27243 0.52958 0.0
C388 C 0.64559 0.32221 0.53782 0.0
C389 C 0.67559 0.42069 0.53113 0.0
C390 C 0.70551 0.46959 0.516 0.0
C391 C 0.67643 0.37065 0.52298 0.0
C392 C 0.73619 0.46684 0.49227 0.0
C393 C 0.73789 0.4174 0.48437 0.0
H394 H 0.54943 0.61299 0.83542 0.0
H395 H 0.6511 0.76769 0.79578 0.0
H396 H 0.57552 0.78882 0.79493 0.0
H397 H 0.48096 0.76424 0.8047 0.0
H398 H 0.37586 0.60898 0.84279 0.0
H399 H 0.45279 0.58866 0.84591 0.0
C400 C 0.55513 0.65128 0.82648 0.0
C401 C 0.60651 0.68825 0.81531 0.0
C402 C 0.51085 0.66355 0.82604 0.0
C403 C 0.61249 0.73786 0.80418 0.0
C404 C 0.56904 0.75014 0.80371 0.0
C405 C 0.47396 0.72538 0.81341 0.0
C406 C 0.42127 0.68799 0.8231 0.0
C407 C 0.51798 0.71327 0.81442 0.0
C408 C 0.41529 0.63908 0.83529 0.0
C409 C 0.4594 0.62711 0.83679 0.0
H410 H 1.09613 0.49078 0.15373 0.0
H411 H 1.04153 0.61241 0.16177 0.0
H412 H 0.9474 0.53783 0.1676 0.0
H413 H 0.87816 0.43779 0.1678 0.0
H414 H 0.92938 0.31403 0.16011 0.0
H415 H 1.02644 0.38918 0.15738 0.0
C416 C 1.0636 0.50098 0.15655 0.0
C417 C 1.07663 0.55779 0.15679 0.0
C418 C 1.00854 0.4573 0.16018 0.0
C419 C 1.03353 0.56963 0.16111 0.0
C420 C 0.97928 0.5268 0.16453 0.0
C421 C 0.91065 0.42714 0.16591 0.0
C422 C 0.896 0.3699 0.16412 0.0
C423 C 0.96607 0.4705 0.16383 0.0
C424 C 0.93912 0.35742 0.16189 0.0
C425 C 0.99465 0.40053 0.15993 0.0
H426 H 0.26154 0.64608 0.04686 0.0
H427 H 0.17097 0.73483 0.05742 0.0
H428 H 0.15871 0.73619 0.00136 0.0
H429 H 0.17371 0.71381 0.94925 0.0
H430 H 0.26012 0.6218 0.93645 0.0
H431 H 0.27505 0.62152 -0.00681 0.0
C432 C 0.23903 0.66558 0.03689 0.0
C433 C 0.21724 0.69019 0.05672 0.0
C434 C 0.23164 0.66614 0.00409 0.0
C435 C 0.18822 0.71531 0.04312 0.0
C436 C 0.18117 0.7163 0.01087 0.0
C437 C 0.19506 0.69278 0.95865 0.0
C438 C 0.21509 0.66729 0.93829 0.0
C439 C 0.20258 0.69189 -0.00885 0.0
C440 C 0.24437 0.64206 0.95138 0.0
C441 C 0.25263 0.64156 -0.01611 0.0
H442 H 0.76097 0.15522 0.38588 0.0
H443 H 0.59361 0.13075 0.38098 0.0
H444 H 0.59026 0.13625 0.32513 0.0
H445 H 0.63145 0.14235 0.27685 0.0
H446 H 0.79839 0.16813 0.27962 0.0
H447 H 0.80568 0.16862 0.33685 0.0
C448 C 0.72394 0.15135 0.37258 0.0
C449 C 0.67743 0.14199 0.38785 0.0
C450 C 0.72214 0.15485 0.33998 0.0
C451 C 0.63006 0.13775 0.37015 0.0
C452 C 0.62793 0.14083 0.33803 0.0
C453 C 0.66965 0.14862 0.29007 0.0
C454 C 0.71415 0.15479 0.27415 0.0
C455 C 0.67325 0.14858 0.32266 0.0
C456 C 0.76365 0.16343 0.29146 0.0
C457 C 0.76759 0.16332 0.32412 0.0
H458 H 0.77874 0.70326 0.70878 0.0
H459 H 0.6616 0.53196 0.72401 0.0
H460 H 0.64538 0.50277 0.66817 0.0
H461 H 0.66424 0.52505 0.61472 0.0
H462 H 0.77938 0.69604 0.59863 0.0
H463 H 0.79604 0.72603 0.65475 0.0
C464 C 0.74971 0.65955 0.6999 0.0
C465 C 0.72159 0.62 0.72079 0.0
C466 C 0.73999 0.64286 0.66745 0.0
C467 C 0.68379 0.56356 0.70867 0.0
C468 C 0.67447 0.54665 0.67663 0.0
C469 C 0.69321 0.56884 0.62352 0.0
C470 C 0.7207 0.60815 0.60247 0.0
C471 C 0.70236 0.58583 0.6558 0.0
C472 C 0.75737 0.66494 0.61426 0.0
C473 C 0.76712 0.68208 0.64639 0.0
H474 H 0.73329 1.09969 0.58908 0.0
H475 H 0.55356 1.00933 0.5619 0.0
H476 H 0.5383 0.98495 0.61472 0.0
H477 H 0.57501 0.99874 0.66981 0.0
H478 H 0.75407 1.08825 0.69797 0.0
H479 H 0.77045 1.10244 0.64362 0.0
C480 C 0.69087 1.07435 0.59471 0.0
C481 C 0.64478 1.0573 0.57164 0.0
C482 C 0.68211 1.06014 0.62533 0.0
C483 C 0.59 1.02355 0.57918 0.0
C484 C 0.58105 1.00943 0.60945 0.0
C485 C 0.61761 1.01968 0.66397 0.0
C486 C 0.66318 1.04306 0.68788 0.0
C487 C 0.62669 1.02861 0.63285 0.0
C488 C 0.71822 1.07056 0.67993 0.0
C489 C 0.72762 1.07895 0.64891 0.0
H490 H 0.78278 0.64264 0.92964 0.0
H491 H 0.72346 0.75431 0.90282 0.0
H492 H 0.71444 0.77358 0.95698 0.0
H493 H 0.72497 0.76003 0.0121 0.0
H494 H 0.78884 0.65201 0.03951 0.0
H495 H 0.79228 0.62824 -0.01501 0.0
C496 C 0.76786 0.67112 0.93573 0.0
C497 C 0.75474 0.69781 0.9124 0.0
C498 C 0.76274 0.68199 0.96698 0.0
C499 C 0.73511 0.73434 0.9205 0.0
C500 C 0.72944 0.74498 0.95143 0.0
C501 C 0.73983 0.73145 0.00619 0.0
C502 C 0.75653 0.70792 0.02993 0.0
C503 C 0.74353 0.71937 0.97489 0.0
C504 C 0.77471 0.67006 0.02173 0.0
C505 C 0.77738 0.65691 -0.00945 0.0
H506 H 1.14481 0.62551 0.22788 0.0
H507 H 0.28577 0.79171 0.25931 0.0
H508 H 0.22886 0.81063 0.29233 0.0
H509 H 1.13821 0.78371 0.30837 0.0
H510 H 0.99894 0.61393 0.28288 0.0
H511 H 1.05494 0.59445 0.2492 0.0
C512 C 0.16351 0.66514 0.24271 0.0
C513 C 0.21952 0.7072 0.24125 0.0
C514 C 1.13027 0.67606 0.2615 0.0
C515 C 0.24288 0.75865 0.26023 0.0
C516 C 0.21019 0.76977 0.27877 0.0
C517 C 1.1201 0.74168 0.29636 0.0
C518 C 1.06429 0.70035 0.29883 0.0
C519 C 1.1536 0.72931 0.27898 0.0
C520 C 1.04136 0.64723 0.28138 0.0
C521 C 1.07377 0.63555 0.2625 0.0
loop_
_geom_bond_atom_site_label_1
_geom_bond_atom_site_label_2
_geom_bond_distance
_geom_bond_site_symmetry_2
_ccdc_geom_bond_type
Tb0 C10 2.825 . S
Tb0 O11 2.347 . S
Tb0 O14 2.366 . S
Tb0 O19 2.418 . S
Tb0 O20 2.384 1_455 S
Tb0 O23 2.479 . S
Tb0 O24 2.471 . S
Eu1 O12 2.418 . S
Eu1 O13 2.384 . S
Eu1 O16 2.479 1_455 S
Eu1 O17 2.471 1_455 S
Eu1 O18 2.347 . S
Eu1 O21 2.366 1_455 S
Eu1 C31 2.825 1_455 S
C2 O18 1.259 . S
C2 O19 1.265 . S
C3 O20 1.255 . S
C3 O21 1.265 . S
C4 C6 1.380 . S
C4 C7 1.374 . S
C4 C10 1.507 . S
C5 C6 1.384 . S
C5 C9 1.387 . S
C5 H32 0.930 . S
C6 C4 1.380 . S
C6 C5 1.384 . S
C6 H33 0.931 . S
C7 C4 1.374 . S
C7 C8 1.390 . S
C7 H34 0.930 . S
C8 C7 1.390 . S
C8 C9 1.391 . S
C8 H35 0.930 . S
C9 C5 1.387 . S
C9 C8 1.391 . S
C10 Tb0 2.825 . S
C10 C4 1.507 . S
C10 O23 1.238 . S
C10 O24 1.247 . S
O11 Tb0 2.347 . S
O11 C15 1.259 . S
O12 Eu1 2.418 . S
O12 C15 1.265 . S
O13 Eu1 2.384 . S
O13 C22 1.255 . S
O14 Tb0 2.366 . S
O14 C22 1.265 . S
C15 O11 1.259 . S
C15 O12 1.265 . S
O16 Eu1 2.479 1_655 S
O16 C31 1.238 . S
O17 Eu1 2.471 1_655 S
O17 C31 1.247 . S
O18 Eu1 2.347 . S
O18 C2 1.259 . S
O19 Tb0 2.418 . S
O19 C2 1.265 . S
O20 Tb0 2.384 1_655 S
O20 C3 1.255 . S
O21 Eu1 2.366 1_655 S
O21 C3 1.265 . S
C22 O13 1.255 . S
C22 O14 1.265 . S
O23 Tb0 2.479 . S
O23 C10 1.238 . S
O24 Tb0 2.471 . S
O24 C10 1.247 . S
C25 C28 1.380 . S
C25 C29 1.374 . S
C25 C31 1.507 . S
C26 C27 1.387 . S
C26 C30 1.391 . S
C27 C26 1.387 . S
C27 C28 1.384 . S
C27 H36 0.930 . S
C28 C25 1.380 . S
C28 C27 1.384 . S
C28 H37 0.931 . S
C29 C25 1.374 . S
C29 C30 1.390 . S
C29 H38 0.930 . S
C30 C26 1.391 . S
C30 C29 1.390 . S
C30 H39 0.930 . S
C31 Eu1 2.825 1_655 S
C31 O16 1.238 . S
C31 O17 1.247 . S
C31 C25 1.507 . S
H32 C5 0.930 . S
H33 C6 0.931 . S
H34 C7 0.930 . S
H35 C8 0.930 . S
H36 C27 0.930 . S
H37 C28 0.931 . S
H38 C29 0.930 . S
H39 C30 0.930 . S
Tb40 C50 2.825 . S
Tb40 O51 2.347 . S
Tb40 O54 2.366 . S
Tb40 O59 2.418 . S
Tb40 O60 2.384 . S
Tb40 O63 2.479 . S
Tb40 O64 2.471 . S
Eu41 O52 2.418 . S
Eu41 O53 2.384 . S
Eu41 O56 2.479 1_545 S
Eu41 O57 2.471 1_545 S
Eu41 O58 2.347 . S
Eu41 O61 2.366 1_545 S
Eu41 C71 2.825 1_545 S
C42 O58 1.259 . S
C42 O59 1.265 . S
C43 O60 1.255 1_565 S
C43 O61 1.265 . S
C44 C46 1.380 . S
C44 C47 1.374 . S
C44 C50 1.507 . S
C45 C46 1.384 . S
C45 C49 1.387 . S
C45 H72 0.930 . S
C46 C44 1.380 . S
C46 C45 1.384 . S
C46 H73 0.931 . S
C47 C44 1.374 . S
C47 C48 1.390 . S
C47 H74 0.930 . S
C48 C47 1.390 . S
C48 C49 1.391 . S
C48 H75 0.930 . S
C49 C45 1.387 . S
C49 C48 1.391 . S
C50 Tb40 2.825 . S
C50 C44 1.507 . S
C50 O63 1.238 . S
C50 O64 1.247 . S
O51 Tb40 2.347 . S
O51 C55 1.259 . S
O52 Eu41 2.418 . S
O52 C55 1.265 . S
O53 Eu41 2.384 . S
O53 C62 1.255 . S
O54 Tb40 2.366 . S
O54 C62 1.265 . S
C55 O51 1.259 . S
C55 O52 1.265 . S
O56 Eu41 2.479 1_565 S
O56 C71 1.238 . S
O57 Eu41 2.471 1_565 S
O57 C71 1.247 . S
O58 Eu41 2.347 . S
O58 C42 1.259 . S
O59 Tb40 2.418 . S
O59 C42 1.265 . S
O60 Tb40 2.384 . S
O60 C43 1.255 1_545 S
O61 Eu41 2.366 1_565 S
O61 C43 1.265 . S
C62 O53 1.255 . S
C62 O54 1.265 . S
O63 Tb40 2.479 . S
O63 C50 1.238 . S
O64 Tb40 2.471 . S
O64 C50 1.247 . S
C65 C68 1.380 . S
C65 C69 1.374 . S
C65 C71 1.507 . S
C66 C67 1.387 . S
C66 C70 1.391 . S
C67 C66 1.387 . S
C67 C68 1.384 . S
C67 H76 0.930 . S
C68 C65 1.380 . S
C68 C67 1.384 . S
C68 H77 0.931 . S
C69 C65 1.374 . S
C69 C70 1.390 . S
C69 H78 0.930 . S
C70 C66 1.391 . S
C70 C69 1.390 . S
C70 H79 0.930 . S
C71 Eu41 2.825 1_565 S
C71 O56 1.238 . S
C71 O57 1.247 . S
C71 C65 1.507 . S
H72 C45 0.930 . S
H73 C46 0.931 . S
H74 C47 0.930 . S
H75 C48 0.930 . S
H76 C67 0.930 . S
H77 C68 0.931 . S
H78 C69 0.930 . S
H79 C70 0.930 . S
Tb80 C90 2.825 . S
Tb80 O91 2.347 . S
Tb80 O94 2.366 . S
Tb80 O99 2.418 . S
Tb80 O100 2.384 . S
Tb80 O103 2.479 . S
Tb80 O104 2.471 . S
Eu81 O92 2.418 . S
Eu81 O93 2.384 . S
Eu81 O96 2.479 . S
Eu81 O97 2.471 . S
Eu81 O98 2.347 . S
Eu81 O101 2.366 . S
Eu81 C111 2.825 . S
C82 O98 1.259 . S
C82 O99 1.265 . S
C83 O100 1.255 . S
C83 O101 1.265 . S
C84 C86 1.380 . S
C84 C87 1.374 . S
C84 C90 1.507 . S
C85 C86 1.384 . S
C85 C89 1.387 . S
C85 H112 0.930 . S
C86 C84 1.380 . S
C86 C85 1.384 . S
C86 H113 0.931 . S
C87 C84 1.374 . S
C87 C88 1.390 . S
C87 H114 0.930 . S
C88 C87 1.390 . S
C88 C89 1.391 . S
C88 H115 0.930 . S
C89 C85 1.387 . S
C89 C88 1.391 . S
C90 Tb80 2.825 . S
C90 C84 1.507 . S
C90 O103 1.238 . S
C90 O104 1.247 . S
O91 Tb80 2.347 . S
O91 C95 1.259 . S
O92 Eu81 2.418 . S
O92 C95 1.265 . S
O93 Eu81 2.384 . S
O93 C102 1.255 . S
O94 Tb80 2.366 . S
O94 C102 1.265 . S
C95 O91 1.259 . S
C95 O92 1.265 . S
O96 Eu81 2.479 . S
O96 C111 1.238 . S
O97 Eu81 2.471 . S
O97 C111 1.247 . S
O98 Eu81 2.347 . S
O98 C82 1.259 . S
O99 Tb80 2.418 . S
O99 C82 1.265 . S
O100 Tb80 2.384 . S
O100 C83 1.255 . S
O101 Eu81 2.366 . S
O101 C83 1.265 . S
C102 O93 1.255 . S
C102 O94 1.265 . S
O103 Tb80 2.479 . S
O103 C90 1.238 . S
O104 Tb80 2.471 . S
O104 C90 1.247 . S
C105 C108 1.380 . S
C105 C109 1.374 . S
C105 C111 1.507 . S
C106 C107 1.387 . S
C106 C110 1.391 . S
C107 C106 1.387 . S
C107 C108 1.384 . S
C107 H116 0.930 . S
C108 C105 1.380 . S
C108 C107 1.384 . S
C108 H117 0.931 . S
C109 C105 1.374 . S
C109 C110 1.390 . S
C109 H118 0.930 . S
C110 C106 1.391 . S
C110 C109 1.390 . S
C110 H119 0.930 . S
C111 Eu81 2.825 . S
C111 O96 1.238 . S
C111 O97 1.247 . S
C111 C105 1.507 . S
H112 C85 0.930 . S
H113 C86 0.931 . S
H114 C87 0.930 . S
H115 C88 0.930 . S
H116 C107 0.930 . S
H117 C108 0.931 . S
H118 C109 0.930 . S
H119 C110 0.930 . S
H120 C121 0.949 . S
C121 H120 0.949 . S
C121 C122 1.395 . S
C121 C123 1.391 . S
C122 C121 1.395 . S
C122 C125 1.390 . S
C123 C121 1.391 . S
C123 C127 1.387 . S
C123 C128 1.491 . S
H124 C125 0.950 1_565 S
C125 C122 1.390 . S
C125 H124 0.950 1_545 S
C125 C126 1.380 . S
C126 C125 1.380 . S
C126 C127 1.423 . S
C127 C123 1.387 . S
C127 C126 1.423 . S
C127 H129 0.951 . S
C128 C123 1.491 . S
C128 C130 1.382 . S
C128 C132 1.404 . S
H129 C127 0.951 . S
C130 C128 1.382 . S
C130 C131 1.390 . S
C130 H135 0.949 . S
C131 C130 1.390 . S
C131 C136 1.399 . S
C132 C128 1.404 . S
C132 H133 0.950 . S
C132 C134 1.375 . S
H133 C132 0.950 . S
C134 C132 1.375 . S
C134 C136 1.382 . S
C134 H138 0.950 . S
H135 C130 0.949 . S
C136 C131 1.399 . S
C136 C134 1.382 . S
C136 H137 0.952 . S
H137 C136 0.952 . S
H138 C134 0.950 . S
H139 C140 0.949 . S
C140 H139 0.949 . S
C140 C141 1.395 . S
C140 C142 1.391 . S
C141 C140 1.395 . S
C141 C144 1.390 . S
C142 C140 1.391 . S
C142 C146 1.387 . S
C142 C147 1.491 . S
H143 C144 0.950 . S
C144 C141 1.390 . S
C144 H143 0.950 . S
C144 C145 1.378 . S
C145 C144 1.378 . S
C145 C146 1.409 . S
C146 C142 1.387 . S
C146 C145 1.409 . S
C146 H148 0.951 . S
C147 C142 1.491 . S
C147 C149 1.382 . S
C147 C151 1.404 . S
H148 C146 0.951 . S
C149 C147 1.382 . S
C149 C150 1.390 . S
C149 H154 0.949 . S
C150 C149 1.390 . S
C150 C155 1.399 . S
C151 C147 1.404 . S
C151 H152 0.950 . S
C151 C153 1.375 . S
H152 C151 0.950 . S
C153 C151 1.375 . S
C153 C155 1.382 . S
C153 H157 0.950 . S
H154 C149 0.949 . S
C155 C150 1.399 . S
C155 C153 1.382 . S
C155 H156 0.952 . S
H156 C155 0.952 . S
H157 C153 0.950 . S
H158 C159 0.949 . S
C159 H158 0.949 . S
C159 C160 1.395 . S
C159 C161 1.391 . S
C160 C159 1.395 . S
C160 C163 1.390 1_455 S
C161 C159 1.391 . S
C161 C165 1.376 1_455 S
C161 C166 1.491 . S
H162 C163 0.950 . S
C163 C160 1.390 1_655 S
C163 H162 0.950 . S
C163 C164 1.378 . S
C164 C163 1.378 . S
C164 C165 1.420 . S
C165 C161 1.376 1_655 S
C165 C164 1.420 . S
C165 H167 0.952 . S
C166 C161 1.491 . S
C166 C168 1.382 . S
C166 C170 1.404 . S
H167 C165 0.952 . S
C168 C166 1.382 . S
C168 C169 1.390 . S
C168 H173 0.949 . S
C169 C168 1.390 . S
C169 C174 1.399 . S
C170 C166 1.404 . S
C170 H171 0.950 . S
C170 C172 1.375 . S
H171 C170 0.950 . S
C172 C170 1.375 . S
C172 C174 1.382 . S
C172 H176 0.950 . S
H173 C168 0.949 . S
C174 C169 1.399 . S
C174 C172 1.382 . S
C174 H175 0.952 . S
H175 C174 0.952 . S
H176 C172 0.950 . S
H177 C178 0.949 1_655 S
C178 H177 0.949 1_455 S
C178 C179 1.395 . S
C178 C180 1.391 . S
C179 C178 1.395 . S
C179 C182 1.390 . S
C180 C178 1.391 . S
C180 C184 1.387 . S
C180 C185 1.491 1_455 S
H181 C182 0.950 . S
C182 C179 1.390 . S
C182 H181 0.950 . S
C182 C183 1.378 . S
C183 C182 1.378 . S
C183 C184 1.409 . S
C184 C180 1.387 . S
C184 C183 1.409 . S
C184 H186 0.951 . S
C185 C180 1.491 1_655 S
C185 C187 1.382 . S
C185 C189 1.404 . S
H186 C184 0.951 . S
C187 C185 1.382 . S
C187 C188 1.390 . S
C187 H192 0.949 . S
C188 C187 1.390 . S
C188 C193 1.399 . S
C189 C185 1.404 . S
C189 H190 0.950 . S
C189 C191 1.375 . S
H190 C189 0.950 . S
C191 C189 1.375 . S
C191 C193 1.382 . S
C191 H195 0.950 . S
H192 C187 0.949 . S
C193 C188 1.399 . S
C193 C191 1.382 . S
C193 H194 0.952 . S
H194 C193 0.952 . S
H195 C191 0.950 . S
H196 C197 0.949 1_565 S
C197 H196 0.949 1_545 S
C197 C198 1.395 . S
C197 C199 1.391 . S
C198 C197 1.395 . S
C198 C201 1.390 . S
C199 C197 1.391 . S
C199 C203 1.387 . S
C199 C204 1.491 1_545 S
H200 C201 0.950 . S
C201 C198 1.390 . S
C201 H200 0.950 . S
C201 C202 1.378 . S
C202 C201 1.378 . S
C202 C203 1.409 . S
C203 C199 1.387 . S
C203 C202 1.409 . S
C203 H205 0.951 . S
C204 C199 1.491 1_565 S
C204 C206 1.382 . S
C204 C208 1.404 . S
H205 C203 0.951 . S
C206 C204 1.382 . S
C206 C207 1.390 . S
C206 H211 0.949 . S
C207 C206 1.390 . S
C207 C212 1.399 . S
C208 C204 1.404 . S
C208 H209 0.950 . S
C208 C210 1.375 . S
H209 C208 0.950 . S
C210 C208 1.375 . S
C210 C212 1.382 . S
C210 H214 0.950 . S
H211 C206 0.949 . S
C212 C207 1.399 . S
C212 C210 1.382 . S
C212 H213 0.952 . S
H213 C212 0.952 . S
H214 C210 0.950 . S
H215 C216 0.949 . S
C216 H215 0.949 . S
C216 C217 1.395 . S
C216 C218 1.391 . S
C217 C216 1.395 . S
C217 C220 1.390 . S
C218 C216 1.391 . S
C218 C222 1.387 . S
C218 C223 1.491 . S
H219 C220 0.950 . S
C220 C217 1.390 . S
C220 H219 0.950 . S
C220 C221 1.378 . S
C221 C220 1.378 . S
C221 C222 1.409 . S
C222 C218 1.387 . S
C222 C221 1.409 . S
C222 H224 0.951 . S
C223 C218 1.491 . S
C223 C225 1.382 . S
C223 C227 1.404 . S
H224 C222 0.951 . S
C225 C223 1.382 . S
C225 C226 1.390 . S
C225 H230 0.949 . S
C226 C225 1.390 . S
C226 C231 1.399 . S
C227 C223 1.404 . S
C227 H228 0.950 . S
C227 C229 1.375 . S
H228 C227 0.950 . S
C229 C227 1.375 . S
C229 C231 1.382 . S
C229 H233 0.950 . S
H230 C225 0.949 . S
C231 C226 1.399 . S
C231 C229 1.382 . S
C231 H232 0.952 . S
H232 C231 0.952 . S
H233 C229 0.950 . S
H234 C240 0.930 . S
H235 C243 0.930 . S
H236 C244 0.930 . S
H237 C245 0.930 . S
H238 C248 0.930 . S
H239 C249 0.930 . S
C240 H234 0.930 . S
C240 C241 1.355 . S
C240 C242 1.415 . S
C241 C240 1.355 . S
C241 C243 1.419 . S
C242 C240 1.415 . S
C242 C247 1.425 . S
C242 C249 1.409 . S
C243 H235 0.930 . S
C243 C241 1.419 . S
C243 C244 1.362 . S
C244 H236 0.930 . S
C244 C243 1.362 . S
C244 C247 1.409 . S
C245 H237 0.930 . S
C245 C246 1.355 . S
C245 C247 1.415 . S
C246 C245 1.355 . S
C246 C248 1.419 . S
C247 C242 1.425 . S
C247 C244 1.409 . S
C247 C245 1.415 . S
C248 H238 0.930 . S
C248 C246 1.419 . S
C248 C249 1.362 . S
C249 H239 0.930 . S
C249 C242 1.409 . S
C249 C248 1.362 . S
H250 C256 0.930 . S
H251 C259 0.930 . S
H252 C260 0.930 . S
H253 C261 0.930 . S
H254 C264 0.930 . S
H255 C265 0.930 . S
C256 H250 0.930 . S
C256 C257 1.355 . S
C256 C258 1.415 . S
C257 C256 1.355 . S
C257 C259 1.419 . S
C258 C256 1.415 . S
C258 C263 1.425 . S
C258 C265 1.409 . S
C259 H251 0.930 . S
C259 C257 1.419 . S
C259 C260 1.362 . S
C260 H252 0.930 . S
C260 C259 1.362 . S
C260 C263 1.409 . S
C261 H253 0.930 . S
C261 C262 1.355 . S
C261 C263 1.415 . S
C262 C261 1.355 . S
C262 C264 1.419 . S
C263 C258 1.425 . S
C263 C260 1.409 . S
C263 C261 1.415 . S
C264 H254 0.930 . S
C264 C262 1.419 . S
C264 C265 1.362 . S
C265 H255 0.930 . S
C265 C258 1.409 . S
C265 C264 1.362 . S
H266 C272 0.930 . S
H267 C275 0.930 . S
H268 C276 0.930 . S
H269 C277 0.930 . S
H270 C280 0.930 . S
H271 C281 0.930 . S
C272 H266 0.930 . S
C272 C273 1.355 . S
C272 C274 1.415 . S
C273 C272 1.355 . S
C273 C275 1.419 . S
C274 C272 1.415 . S
C274 C279 1.425 . S
C274 C281 1.409 . S
C275 H267 0.930 . S
C275 C273 1.419 . S
C275 C276 1.362 . S
C276 H268 0.930 . S
C276 C275 1.362 . S
C276 C279 1.409 . S
C277 H269 0.930 . S
C277 C278 1.355 . S
C277 C279 1.415 . S
C278 C277 1.355 . S
C278 C280 1.419 . S
C279 C274 1.425 . S
C279 C276 1.409 . S
C279 C277 1.415 . S
C280 H270 0.930 . S
C280 C278 1.419 . S
C280 C281 1.362 . S
C281 H271 0.930 . S
C281 C274 1.409 . S
C281 C280 1.362 . S
H282 C288 0.930 . S
H283 C291 0.930 . S
H284 C292 0.930 . S
H285 C293 0.930 . S
H286 C296 0.930 . S
H287 C297 0.930 . S
C288 H282 0.930 . S
C288 C289 1.355 . S
C288 C290 1.415 . S
C289 C288 1.355 . S
C289 C291 1.419 . S
C290 C288 1.415 . S
C290 C295 1.425 . S
C290 C297 1.409 . S
C291 H283 0.930 . S
C291 C289 1.419 . S
C291 C292 1.362 . S
C292 H284 0.930 . S
C292 C291 1.362 . S
C292 C295 1.409 . S
C293 H285 0.930 . S
C293 C294 1.355 . S
C293 C295 1.415 . S
C294 C293 1.355 . S
C294 C296 1.419 . S
C295 C290 1.425 . S
C295 C292 1.409 . S
C295 C293 1.415 . S
C296 H286 0.930 . S
C296 C294 1.419 . S
C296 C297 1.362 . S
C297 H287 0.930 . S
C297 C290 1.409 . S
C297 C296 1.362 . S
H298 C304 0.930 . S
H299 C307 0.930 . S
H300 C308 0.930 . S
H301 C309 0.930 . S
H302 C312 0.930 . S
H303 C313 0.930 . S
C304 H298 0.930 . S
C304 C305 1.355 . S
C304 C306 1.415 . S
C305 C304 1.355 . S
C305 C307 1.419 . S
C306 C304 1.415 . S
C306 C311 1.425 . S
C306 C313 1.409 . S
C307 H299 0.930 . S
C307 C305 1.419 . S
C307 C308 1.362 . S
C308 H300 0.930 . S
C308 C307 1.362 . S
C308 C311 1.409 . S
C309 H301 0.930 . S
C309 C310 1.355 . S
C309 C311 1.415 . S
C310 C309 1.355 . S
C310 C312 1.419 . S
C311 C306 1.425 . S
C311 C308 1.409 . S
C311 C309 1.415 . S
C312 H302 0.930 . S
C312 C310 1.419 . S
C312 C313 1.362 . S
C313 H303 0.930 . S
C313 C306 1.409 . S
C313 C312 1.362 . S
H314 C320 0.930 . S
H315 C323 0.930 . S
H316 C324 0.930 . S
H317 C325 0.930 . S
H318 C328 0.930 . S
H319 C329 0.930 . S
C320 H314 0.930 . S
C320 C321 1.355 . S
C320 C322 1.415 . S
C321 C320 1.355 . S
C321 C323 1.419 . S
C322 C320 1.415 . S
C322 C327 1.425 . S
C322 C329 1.409 . S
C323 H315 0.930 . S
C323 C321 1.419 . S
C323 C324 1.362 . S
C324 H316 0.930 . S
C324 C323 1.362 . S
C324 C327 1.409 . S
C325 H317 0.930 . S
C325 C326 1.355 . S
C325 C327 1.415 . S
C326 C325 1.355 . S
C326 C328 1.419 . S
C327 C322 1.425 . S
C327 C324 1.409 . S
C327 C325 1.415 . S
C328 H318 0.930 . S
C328 C326 1.419 . S
C328 C329 1.362 . S
C329 H319 0.930 . S
C329 C322 1.409 . S
C329 C328 1.362 . S
H330 C336 0.930 . S
H331 C339 0.930 . S
H332 C340 0.930 . S
H333 C341 0.930 . S
H334 C344 0.930 . S
H335 C345 0.930 . S
C336 H330 0.930 . S
C336 C337 1.355 . S
C336 C338 1.415 . S
C337 C336 1.355 . S
C337 C339 1.419 . S
C338 C336 1.415 . S
C338 C343 1.425 . S
C338 C345 1.409 . S
C339 H331 0.930 . S
C339 C337 1.419 . S
C339 C340 1.362 . S
C340 H332 0.930 . S
C340 C339 1.362 . S
C340 C343 1.409 . S
C341 H333 0.930 . S
C341 C342 1.355 . S
C341 C343 1.415 . S
C342 C341 1.355 . S
C342 C344 1.419 . S
C343 C338 1.425 . S
C343 C340 1.409 . S
C343 C341 1.415 . S
C344 H334 0.930 . S
C344 C342 1.419 . S
C344 C345 1.362 . S
C345 H335 0.930 . S
C345 C338 1.409 . S
C345 C344 1.362 . S
H346 C352 0.930 . S
H347 C355 0.930 . S
H348 C356 0.930 . S
H349 C357 0.930 . S
H350 C360 0.930 . S
H351 C361 0.930 . S
C352 H346 0.930 . S
C352 C353 1.355 . S
C352 C354 1.415 . S
C353 C352 1.355 . S
C353 C355 1.419 . S
C354 C352 1.415 . S
C354 C359 1.425 . S
C354 C361 1.409 . S
C355 H347 0.930 . S
C355 C353 1.419 . S
C355 C356 1.362 . S
C356 H348 0.930 . S
C356 C355 1.362 . S
C356 C359 1.409 . S
C357 H349 0.930 . S
C357 C358 1.355 . S
C357 C359 1.415 . S
C358 C357 1.355 . S
C358 C360 1.419 . S
C359 C354 1.425 . S
C359 C356 1.409 . S
C359 C357 1.415 . S
C360 H350 0.930 . S
C360 C358 1.419 . S
C360 C361 1.362 . S
C361 H351 0.930 . S
C361 C354 1.409 . S
C361 C360 1.362 . S
H362 C368 0.930 . S
H363 C371 0.930 . S
H364 C372 0.930 . S
H365 C373 0.930 . S
H366 C376 0.930 . S
H367 C377 0.930 . S
C368 H362 0.930 . S
C368 C369 1.355 . S
C368 C370 1.415 . S
C369 C368 1.355 . S
C369 C371 1.419 . S
C370 C368 1.415 . S
C370 C375 1.425 . S
C370 C377 1.409 . S
C371 H363 0.930 . S
C371 C369 1.419 . S
C371 C372 1.362 . S
C372 H364 0.930 . S
C372 C371 1.362 . S
C372 C375 1.409 . S
C373 H365 0.930 . S
C373 C374 1.355 . S
C373 C375 1.415 . S
C374 C373 1.355 . S
C374 C376 1.419 . S
C375 C370 1.425 . S
C375 C372 1.409 . S
C375 C373 1.415 . S
C376 H366 0.930 . S
C376 C374 1.419 . S
C376 C377 1.362 . S
C377 H367 0.930 . S
C377 C370 1.409 . S
C377 C376 1.362 . S
H378 C384 0.930 . S
H379 C387 0.930 . S
H380 C388 0.930 . S
H381 C389 0.930 . S
H382 C392 0.930 . S
H383 C393 0.930 . S
C384 H378 0.930 . S
C384 C385 1.355 . S
C384 C386 1.415 . S
C385 C384 1.355 . S
C385 C387 1.419 . S
C386 C384 1.415 . S
C386 C391 1.425 . S
C386 C393 1.409 . S
C387 H379 0.930 . S
C387 C385 1.419 . S
C387 C388 1.362 . S
C388 H380 0.930 . S
C388 C387 1.362 . S
C388 C391 1.409 . S
C389 H381 0.930 . S
C389 C390 1.355 . S
C389 C391 1.415 . S
C390 C389 1.355 . S
C390 C392 1.419 . S
C391 C386 1.425 . S
C391 C388 1.409 . S
C391 C389 1.415 . S
C392 H382 0.930 . S
C392 C390 1.419 . S
C392 C393 1.362 . S
C393 H383 0.930 . S
C393 C386 1.409 . S
C393 C392 1.362 . S
H394 C400 0.930 . S
H395 C403 0.930 . S
H396 C404 0.930 . S
H397 C405 0.930 . S
H398 C408 0.930 . S
H399 C409 0.930 . S
C400 H394 0.930 . S
C400 C401 1.355 . S
C400 C402 1.415 . S
C401 C400 1.355 . S
C401 C403 1.419 . S
C402 C400 1.415 . S
C402 C407 1.425 . S
C402 C409 1.409 . S
C403 H395 0.930 . S
C403 C401 1.419 . S
C403 C404 1.362 . S
C404 H396 0.930 . S
C404 C403 1.362 . S
C404 C407 1.409 . S
C405 H397 0.930 . S
C405 C406 1.355 . S
C405 C407 1.415 . S
C406 C405 1.355 . S
C406 C408 1.419 . S
C407 C402 1.425 . S
C407 C404 1.409 . S
C407 C405 1.415 . S
C408 H398 0.930 . S
C408 C406 1.419 . S
C408 C409 1.362 . S
C409 H399 0.930 . S
C409 C402 1.409 . S
C409 C408 1.362 . S
H410 C416 0.930 . S
H411 C419 0.930 . S
H412 C420 0.930 . S
H413 C421 0.930 . S
H414 C424 0.930 . S
H415 C425 0.930 . S
C416 H410 0.930 . S
C416 C417 1.355 . S
C416 C418 1.415 . S
C417 C416 1.355 . S
C417 C419 1.419 . S
C418 C416 1.415 . S
C418 C423 1.425 . S
C418 C425 1.409 . S
C419 H411 0.930 . S
C419 C417 1.419 . S
C419 C420 1.362 . S
C420 H412 0.930 . S
C420 C419 1.362 . S
C420 C423 1.409 . S
C421 H413 0.930 . S
C421 C422 1.355 . S
C421 C423 1.415 . S
C422 C421 1.355 . S
C422 C424 1.419 . S
C423 C418 1.425 . S
C423 C420 1.409 . S
C423 C421 1.415 . S
C424 H414 0.930 . S
C424 C422 1.419 . S
C424 C425 1.362 . S
C425 H415 0.930 . S
C425 C418 1.409 . S
C425 C424 1.362 . S
H426 C432 0.930 . S
H427 C435 0.939 . S
H428 C436 0.930 1_655 S
H429 C437 0.930 1_655 S
H430 C440 0.930 . S
H431 C441 0.930 . S
C432 H426 0.930 . S
C432 C433 1.355 . S
C432 C434 1.415 . S
C433 C432 1.355 . S
C433 C435 1.419 . S
C434 C432 1.415 . S
C434 C439 1.425 . S
C434 C441 1.409 . S
C435 H427 0.939 . S
C435 C433 1.419 . S
C435 C436 1.362 . S
C436 H428 0.930 1_455 S
C436 C435 1.362 . S
C436 C439 1.409 . S
C437 H429 0.930 1_455 S
C437 C438 1.355 . S
C437 C439 1.415 1_556 S
C438 C437 1.355 . S
C438 C440 1.419 . S
C439 C434 1.425 . S
C439 C436 1.409 . S
C439 C437 1.415 1_554 S
C440 H430 0.930 . S
C440 C438 1.419 . S
C440 C441 1.362 1_556 S
C441 H431 0.930 . S
C441 C434 1.409 . S
C441 C440 1.362 1_554 S
H442 C448 0.930 . S
H443 C451 0.930 . S
H444 C452 0.930 . S
H445 C453 0.930 . S
H446 C456 0.930 1_565 S
H447 C457 0.930 1_565 S
C448 H442 0.930 . S
C448 C449 1.355 . S
C448 C450 1.415 . S
C449 C448 1.355 . S
C449 C451 1.419 . S
C450 C448 1.415 . S
C450 C455 1.425 . S
C450 C457 1.409 . S
C451 H443 0.930 . S
C451 C449 1.419 . S
C451 C452 1.362 . S
C452 H444 0.930 . S
C452 C451 1.362 . S
C452 C455 1.409 . S
C453 H445 0.930 . S
C453 C454 1.355 . S
C453 C455 1.415 . S
C454 C453 1.355 . S
C454 C456 1.419 . S
C455 C450 1.425 . S
C455 C452 1.409 . S
C455 C453 1.415 . S
C456 H446 0.930 1_545 S
C456 C454 1.419 . S
C456 C457 1.362 . S
C457 H447 0.930 1_545 S
C457 C450 1.409 . S
C457 C456 1.362 . S
H458 C464 0.930 . S
H459 C467 0.930 . S
H460 C468 0.930 . S
H461 C469 0.930 . S
H462 C472 0.930 . S
H463 C473 0.930 . S
C464 H458 0.930 . S
C464 C465 1.355 . S
C464 C466 1.415 . S
C465 C464 1.355 . S
C465 C467 1.419 . S
C466 C464 1.415 . S
C466 C471 1.425 . S
C466 C473 1.409 . S
C467 H459 0.930 . S
C467 C465 1.419 . S
C467 C468 1.362 . S
C468 H460 0.930 . S
C468 C467 1.362 . S
C468 C471 1.409 . S
C469 H461 0.930 . S
C469 C470 1.355 . S
C469 C471 1.415 . S
C470 C469 1.355 . S
C470 C472 1.419 . S
C471 C466 1.425 . S
C471 C468 1.409 . S
C471 C469 1.415 . S
C472 H462 0.930 . S
C472 C470 1.419 . S
C472 C473 1.362 . S
C473 H463 0.930 . S
C473 C466 1.409 . S
C473 C472 1.362 . S
H474 C480 0.930 . S
H475 C483 0.930 . S
H476 C484 0.930 . S
H477 C485 0.930 . S
H478 C488 0.930 . S
H479 C489 0.930 . S
C480 H474 0.930 . S
C480 C481 1.355 . S
C480 C482 1.415 . S
C481 C480 1.355 . S
C481 C483 1.419 . S
C482 C480 1.415 . S
C482 C487 1.425 . S
C482 C489 1.409 . S
C483 H475 0.930 . S
C483 C481 1.419 . S
C483 C484 1.362 . S
C484 H476 0.930 . S
C484 C483 1.362 . S
C484 C487 1.409 . S
C485 H477 0.930 . S
C485 C486 1.355 . S
C485 C487 1.415 . S
C486 C485 1.355 . S
C486 C488 1.419 . S
C487 C482 1.425 . S
C487 C484 1.409 . S
C487 C485 1.415 . S
C488 H478 0.930 . S
C488 C486 1.419 . S
C488 C489 1.362 . S
C489 H479 0.930 . S
C489 C482 1.409 . S
C489 C488 1.362 . S
H490 C496 0.930 . S
H491 C499 0.930 . S
H492 C500 0.930 . S
H493 C501 0.930 . S
H494 C504 0.930 . S
H495 C505 0.930 . S
C496 H490 0.930 . S
C496 C497 1.355 . S
C496 C498 1.415 . S
C497 C496 1.355 . S
C497 C499 1.419 . S
C498 C496 1.415 . S
C498 C503 1.425 . S
C498 C505 1.409 1_556 S
C499 H491 0.930 . S
C499 C497 1.419 . S
C499 C500 1.362 . S
C500 H492 0.930 . S
C500 C499 1.362 . S
C500 C503 1.409 . S
C501 H493 0.930 . S
C501 C502 1.355 . S
C501 C503 1.415 1_554 S
C502 C501 1.355 . S
C502 C504 1.419 . S
C503 C498 1.425 . S
C503 C500 1.409 . S
C503 C501 1.415 1_556 S
C504 H494 0.930 . S
C504 C502 1.419 . S
C504 C505 1.362 . S
C505 H495 0.930 . S
C505 C498 1.409 1_554 S
C505 C504 1.362 . S
H506 C512 0.930 . S
H507 C515 0.930 . S
H508 C516 0.930 . S
H509 C517 0.930 . S
H510 C520 0.930 . S
H511 C521 0.930 . S
C512 H506 0.930 . S
C512 C513 1.355 . S
C512 C514 1.415 . S
C513 C512 1.355 . S
C513 C515 1.419 . S
C514 C512 1.415 . S
C514 C519 1.425 . S
C514 C521 1.409 . S
C515 H507 0.930 . S
C515 C513 1.419 . S
C515 C516 1.362 . S
C516 H508 0.930 . S
C516 C515 1.362 . S
C516 C519 1.409 . S
C517 H509 0.930 . S
C517 C518 1.355 . S
C517 C519 1.415 . S
C518 C517 1.355 . S
C518 C520 1.419 . S
C519 C514 1.425 . S
C519 C516 1.409 . S
C519 C517 1.415 . S
C520 H510 0.930 . S
C520 C518 1.419 . S
C520 C521 1.362 . S
C521 H511 0.930 . S
C521 C514 1.409 . S
C521 C520 1.362 . S
C241 C9 0.823 . S
C246 C226 0.859 . S
C257 C49 0.391 . S
C262 C188 0.462 . S
C273 C89 0.475 . S
C278 C207 0.639 . S
C289 C26 0.373 . S
C294 C221 0.235 . S
C310 C183 0.109 . S
C305 C66 0.425 . S
C326 C202 0.173 . S
C321 C106 0.500 . S
C337 C43 3.107 . S
C342 C150 3.022 . S
C353 C83 3.038 . S
C358 C164 2.978 . S
C369 C22 3.074 . S
C374 C126 3.020 1_565 S
C390 C145 3.022 . S
C385 C62 3.065 . S
C406 C169 3.032 . S
C401 C102 3.126 . S
C417 C3 3.111 . S
C422 C131 3.037 . S
C438 C160 1.734 . S
C433 C15 1.697 . S
C449 C55 1.759 . S
C454 C122 1.737 . S
C465 C95 1.716 . S
C470 C141 1.745 . S
C486 C198 1.309 . S
C481 C42 1.313 . S
C502 C217 1.277 . S
C497 C82 1.300 . S
C513 C2 1.292 . S
C518 C179 1.289 . S
