# Generated by pormake.
# Topology sit, (3,6)-cn, num edge types: 1
# Building blocks:
#     Node 0, Type 0, BuildingBlock: INOVEN_clean_linker_0, # of connection points: 3
#     Node 1, Type 0, BuildingBlock: INOVEN_clean_linker_0, # of connection points: 3
#     Node 2, Type 0, BuildingBlock: INOVEN_clean_linker_0, # of connection points: 3
#     Node 3, Type 0, BuildingBlock: INOVEN_clean_linker_0, # of connection points: 3
#     Node 4, Type 1, BuildingBlock: MIDCAF_clean_sbu_0, # of connection points: 6
#     Node 5, Type 1, BuildingBlock: MIDCAF_clean_sbu_0, # of connection points: 6
#     Edge 6, Type (0, 1), BuildingBlock: XUDNAN_clean_linker_2, # of connection points: 2
#     Edge 7, Type (0, 1), BuildingBlock: XUDNAN_clean_linker_2, # of connection points: 2
#     Edge 8, Type (0, 1), BuildingBlock: XUDNAN_clean_linker_2, # of connection points: 2
#     Edge 9, Type (0, 1), BuildingBlock: XUDNAN_clean_linker_2, # of connection points: 2
#     Edge 10, Type (0, 1), BuildingBlock: XUDNAN_clean_linker_2, # of connection points: 2
#     Edge 11, Type (0, 1), BuildingBlock: XUDNAN_clean_linker_2, # of connection points: 2
#     Edge 12, Type (0, 1), BuildingBlock: XUDNAN_clean_linker_2, # of connection points: 2
#     Edge 13, Type (0, 1), BuildingBlock: XUDNAN_clean_linker_2, # of connection points: 2
#     Edge 14, Type (0, 1), BuildingBlock: XUDNAN_clean_linker_2, # of connection points: 2
#     Edge 15, Type (0, 1), BuildingBlock: XUDNAN_clean_linker_2, # of connection points: 2
#     Edge 16, Type (0, 1), BuildingBlock: XUDNAN_clean_linker_2, # of connection points: 2
#     Edge 17, Type (0, 1), BuildingBlock: XUDNAN_clean_linker_2, # of connection points: 2
# Relax obj value: 0.072
# Max RMSD: 0.181
# Mean RMSD: 0.108
data_MOF--net-sit--node1-MIDCAF_clean_sbu_0--node2-INOVEN_clean_linker_0--edge1-XUDNAN_clean_linker_2
_symmetry_space_group_name_H-M    P1
_symmetry_Int_Tables_number       1
_symmetry_cell_setting            triclinic
loop_
_symmetry_equiv_pos_as_xyz
'x, y, z'
_cell_length_a     21.563177
_cell_length_b     31.963698
_cell_length_c     37.294134
_cell_angle_alpha  90.258995
_cell_angle_beta   87.130636
_cell_angle_gamma 85.31362
loop_
_atom_site_label
_atom_site_type_symbol
_atom_site_fract_x
_atom_site_fract_y
_atom_site_fract_z
_atom_type_partial_charge
H0 H -0.01949 0.30397 0.0275 0.0
H1 H 0.051 0.416 0.9848 0.0
H2 H 0.15688 0.34119 0.05971 0.0
N3 N 0.07553 0.28119 0.06672 0.0
N4 N 0.12739 0.26626 0.07614 0.0
C5 C 0.01581 0.32627 0.02659 0.0
C6 C 0.00898 0.36182 0.00481 0.0
C7 C 0.06912 0.3185 0.04623 0.0
C8 C 0.11566 0.3471 0.04449 0.0
C9 C 0.10914 0.38307 0.02286 0.0
C10 C 0.05531 0.39 0.00332 0.0
H11 H 0.91687 0.75189 0.04425 0.0
H12 H 0.03035 0.64933 0.9931 0.0
H13 H 0.11717 0.7473 0.04544 0.0
N14 N 0.01601 0.79353 0.06491 0.0
N15 N 0.96769 0.81323 0.07783 0.0
C16 C 0.96237 0.73591 0.03787 0.0
C17 C 0.96745 0.698 0.01815 0.0
C18 C 0.01693 0.75386 0.04763 0.0
C19 C 0.07532 0.73313 0.03849 0.0
C20 C 0.08019 0.69547 0.01902 0.0
C21 C 0.02635 0.67813 0.00889 0.0
H22 H 0.49007 0.79126 0.50991 0.0
H23 H 0.56516 0.90195 0.4685 0.0
H24 H 0.66702 0.82527 0.54445 0.0
N25 N 0.57964 0.76822 0.55182 0.0
N26 N 0.62831 0.74918 0.56202 0.0
C27 C 0.52682 0.81251 0.50908 0.0
C28 C 0.52208 0.84793 0.48742 0.0
C29 C 0.57902 0.80392 0.52942 0.0
C30 C 0.62697 0.83157 0.52832 0.0
C31 C 0.62163 0.86807 0.50706 0.0
C32 C 0.56904 0.87541 0.48649 0.0
H33 H 0.42474 0.23814 0.52543 0.0
H34 H 0.58693 0.16251 0.48199 0.0
H35 H 0.60728 0.28306 0.52693 0.0
N36 N 0.48754 0.29866 0.5516 0.0
N37 N 0.52102 0.3268 0.56024 0.0
C38 C 0.47449 0.23269 0.51991 0.0
C39 C 0.50003 0.1963 0.50091 0.0
C40 C 0.51318 0.26339 0.53079 0.0
C41 C 0.57725 0.25859 0.52106 0.0
C42 C 0.60297 0.22241 0.50321 0.0
C43 C 0.56515 0.1906 0.49518 0.0
Zn44 Zn 0.08896 0.10213 0.34379 0.0
Zn45 Zn 0.05022 0.96167 0.33748 0.0
Zn46 Zn 0.06523 0.03328 0.34176 0.0
C47 C 0.01597 0.98886 0.27314 0.0
C48 C 0.97057 0.98926 0.39271 0.0
O49 O 0.15397 0.03877 0.36936 0.0
O50 O 0.13434 0.10394 0.3885 0.0
C51 C 0.11288 0.08307 0.27468 0.0
O52 O 0.04789 1.01817 0.28455 0.0
O53 O 0.00124 0.9603 0.29432 0.0
O54 O 0.00345 0.95614 0.38358 0.0
O55 O -0.0188 1.02404 0.37704 0.0
O56 O 0.13757 0.10503 0.29731 0.0
O57 O 0.07515 0.056 0.2856 0.0
O58 O -0.01315 0.06855 0.37246 0.0
O59 O 0.00343 0.12859 0.34641 0.0
C60 C 0.96919 0.10719 0.36618 0.0
O61 O 0.1478 0.99628 0.36148 0.0
O62 O 0.13699 0.93603 0.33448 0.0
C63 C 0.16734 0.06962 0.38919 0.0
C64 C 0.16926 0.95863 0.35265 0.0
Zn65 Zn 0.56133 0.60906 0.83776 0.0
Zn66 Zn 0.5441 0.45224 0.83986 0.0
Zn67 Zn 0.55822 0.52721 0.84157 0.0
C68 C 0.51245 0.47813 0.77403 0.0
C69 C 0.46131 0.48008 0.89243 0.0
O70 O 0.64352 0.53911 0.86836 0.0
O71 O 0.64052 0.60826 0.86272 0.0
C72 C 0.56462 0.58449 0.76806 0.0
O73 O 0.54158 0.50886 0.78534 0.0
O74 O 0.50015 0.4488 0.79496 0.0
O75 O 0.49265 0.44604 0.8843 0.0
O76 O 0.47525 0.51431 0.87686 0.0
O77 O 0.56292 0.61811 0.78595 0.0
O78 O 0.56261 0.54883 0.78409 0.0
O79 O 0.48261 0.55822 0.87631 0.0
O80 O 0.48457 0.62656 0.8668 0.0
C81 C 0.46102 0.59644 0.88263 0.0
O82 O 0.64405 0.4946 0.8616 0.0
O83 O 0.63276 0.43138 0.84028 0.0
C84 C 0.66613 0.5744 0.87436 0.0
C85 C 0.66579 0.45633 0.85545 0.0
H86 H 0.03559 0.22505 0.11073 0.0
H87 H 0.235 0.22578 0.09055 0.0
H88 H 0.2519 0.16559 0.13145 0.0
H89 H 0.03889 0.20961 0.20088 0.0
H90 H -0.02414 0.1759 0.20484 0.0
H91 H -0.02094 0.21267 0.16867 0.0
H92 H 0.9751 0.15187 0.12279 0.0
H93 H 0.97245 0.11477 0.15904 0.0
H94 H 0.03219 0.10745 0.1235 0.0
H95 H 0.24832 0.11529 0.18123 0.0
H96 H 0.22492 0.08072 0.23882 0.0
H97 H 0.02762 0.11015 0.22688 0.0
C98 C 0.08264 0.21164 0.11414 0.0
C99 C 0.13442 0.2295 0.09729 0.0
C100 C 0.19518 0.21202 0.10311 0.0
C101 C 0.20503 0.17777 0.12603 0.0
C102 C 0.15331 0.16121 0.14279 0.0
C103 C 0.0932 0.17745 0.1371 0.0
C104 C 0.04635 0.1575 0.16194 0.0
C105 C 0.00783 0.1909 0.18547 0.0
C106 C 0.00402 0.13134 0.14053 0.0
C107 C 0.08976 0.12947 0.18397 0.0
C108 C 0.15119 0.13131 0.17179 0.0
C109 C 0.20043 0.11252 0.19038 0.0
C110 C 0.1868 0.09287 0.22297 0.0
C111 C 0.12455 0.09193 0.23647 0.0
C112 C 0.07535 0.10905 0.21616 0.0
H113 H 0.89016 0.84591 0.13028 0.0
H114 H 0.05545 0.86844 0.06503 0.0
H115 H 0.07043 0.93069 0.10202 0.0
H116 H 0.84096 0.96092 0.15585 0.0
H117 H 0.81776 0.94588 0.20075 0.0
H118 H 0.80971 0.91092 0.16348 0.0
H119 H 0.87539 0.85179 0.19515 0.0
H120 H 0.8832 0.88635 0.23234 0.0
H121 H 0.95187 0.86147 0.20908 0.0
H122 H 0.0797 0.98098 0.15247 0.0
H123 H 0.08707 1.00945 0.21372 0.0
H124 H 0.9172 0.95399 0.24729 0.0
C125 C 0.92781 0.86519 0.12307 0.0
C126 C 0.97124 0.85273 0.09492 0.0
C127 C 0.02153 0.87758 0.08661 0.0
C128 C 0.03007 0.91322 0.10729 0.0
C129 C -0.0121 0.92373 0.13609 0.0
C130 C 0.93752 0.90045 0.14392 0.0
C131 C 0.90547 0.91355 0.17971 0.0
C132 C 0.83956 0.93405 0.17463 0.0
C133 C 0.90399 0.87608 0.20557 0.0
C134 C 0.94817 0.94558 0.1919 0.0
C135 C -0.00589 0.95229 0.16586 0.0
C136 C 0.04304 0.97686 0.17272 0.0
C137 C 0.04675 0.9932 0.20754 0.0
C138 C 0.00242 0.98416 0.23501 0.0
C139 C 0.95116 0.96182 0.22652 0.0
H140 H 0.52859 0.73033 0.60435 0.0
H141 H 0.72055 0.69026 0.57354 0.0
H142 H 0.71639 0.63035 0.61566 0.0
H143 H 0.5424 0.71539 0.69425 0.0
H144 H 0.46512 0.69889 0.70292 0.0
H145 H 0.48049 0.73227 0.66553 0.0
H146 H 0.43827 0.67804 0.62289 0.0
H147 H 0.42389 0.6441 0.66037 0.0
H148 H 0.47197 0.62451 0.62203 0.0
H149 H 0.69371 0.57942 0.66567 0.0
H150 H 0.66243 0.55156 0.7252 0.0
H151 H 0.48779 0.62826 0.7246 0.0
C152 C 0.56926 0.70828 0.60572 0.0
C153 C 0.62477 0.71423 0.58529 0.0
C154 C 0.6776 0.68571 0.5888 0.0
C155 C 0.67532 0.6515 0.61232 0.0
C156 C 0.61977 0.64652 0.6322 0.0
C157 C 0.56795 0.67458 0.62935 0.0
C158 C 0.51714 0.66658 0.65729 0.0
C159 C 0.50039 0.70557 0.68142 0.0
C160 C 0.4594 0.65246 0.63957 0.0
C161 C 0.54941 0.63095 0.67757 0.0
C162 C 0.60763 0.61858 0.66193 0.0
C163 C 0.64787 0.5884 0.67777 0.0
C164 C 0.62961 0.57242 0.71138 0.0
C165 C 0.57244 0.58747 0.72887 0.0
C166 C 0.53098 0.6156 0.71111 0.0
H167 H 0.59168 0.38303 0.58472 0.0
H168 H 0.40321 0.34548 0.58956 0.0
H169 H 0.37434 0.39753 0.63794 0.0
H170 H 0.6086 0.38629 0.67242 0.0
H171 H 0.6539 0.43118 0.67413 0.0
H172 H 0.65515 0.40071 0.63359 0.0
H173 H 0.62034 0.46766 0.59845 0.0
H174 H 0.61878 0.4984 0.63924 0.0
H175 H 0.55046 0.49912 0.61327 0.0
H176 H 0.37228 0.43966 0.69332 0.0
H177 H 0.3978 0.46625 0.75248 0.0
H178 H 0.58748 0.47858 0.71306 0.0
C179 C 0.54375 0.38735 0.59507 0.0
C180 C 0.49961 0.36087 0.58337 0.0
C181 C 0.4376 0.36583 0.59798 0.0
C182 C 0.42078 0.39553 0.62531 0.0
C183 C 0.46627 0.42016 0.63739 0.0
C184 C 0.52652 0.41671 0.62249 0.0
C185 C 0.56906 0.44152 0.64407 0.0
C186 C 0.62489 0.41322 0.65682 0.0
C187 C 0.59094 0.47889 0.62246 0.0
C188 C 0.52467 0.45649 0.67511 0.0
C189 C 0.46506 0.44506 0.67003 0.0
C190 C 0.41807 0.45 0.69709 0.0
C191 C 0.43293 0.46512 0.73059 0.0
C192 C 0.49413 0.4752 0.73676 0.0
C193 C 0.53984 0.47259 0.70834 0.0
H194 H 0.23499 0.36057 0.01785 0.0
H195 H 0.10005 0.46857 0.01249 0.0
H196 H 0.18133 0.50981 0.98515 0.0
H197 H 0.37329 0.4258 0.03596 0.0
H198 H 0.42527 0.38889 0.01002 0.0
H199 H 0.3597 0.3709 0.03574 0.0
H200 H 0.32289 0.33692 0.97821 0.0
H201 H 0.38705 0.35553 0.95213 0.0
H202 H 0.30843 0.36912 0.93943 0.0
H203 H 0.2666 0.53081 0.94281 0.0
H204 H 0.3566 0.5348 0.89978 0.0
H205 H 0.44261 0.41951 0.94186 0.0
C206 C 0.22302 0.39346 0.01273 0.0
C207 C 0.16069 0.41092 0.01667 0.0
C208 C 0.1471 0.45402 0.00883 0.0
C209 C 0.19309 0.4779 0.99356 0.0
C210 C 0.25308 0.45878 0.98766 0.0
C211 C 0.26878 0.41805 -0.00167 0.0
C212 C 0.3353 0.40379 0.98642 0.0
C213 C 0.37579 0.39696 0.01898 0.0
C214 C 0.33852 0.36403 0.96264 0.0
C215 C 0.3528 0.44161 0.96511 0.0
C216 C 0.30489 0.47313 0.96619 0.0
C217 C 0.30607 0.50767 0.9435 0.0
C218 C 0.35781 0.51017 0.91947 0.0
C219 C 0.40852 0.47925 0.9192 0.0
C220 C 0.40574 0.44467 0.94249 0.0
H221 H 0.93842 0.69444 0.94876 0.0
H222 H 0.87804 0.65764 0.05564 0.0
H223 H 0.79985 0.61484 0.0296 0.0
H224 H 0.78614 0.70327 0.91147 0.0
H225 H 0.81604 0.68348 0.86812 0.0
H226 H 0.86492 0.71114 0.89612 0.0
H227 H 0.94761 0.64728 0.89179 0.0
H228 H 0.89799 0.61904 0.8646 0.0
H229 H 0.92577 0.59628 0.90553 0.0
H230 H 0.73035 0.57475 0.99082 0.0
H231 H 0.66516 0.54925 0.94374 0.0
H232 H 0.77246 0.61298 0.86283 0.0
C233 C 0.90766 0.67804 0.96662 0.0
C234 C 0.91304 0.6796 0.00409 0.0
C235 C 0.87329 0.65731 0.02687 0.0
C236 C 0.82957 0.63258 0.01227 0.0
C237 C 0.82669 0.63068 0.97497 0.0
C238 C 0.86401 0.65346 0.95255 0.0
C239 C 0.85131 0.64697 0.91352 0.0
C240 C 0.8282 0.68868 0.89631 0.0
C241 C 0.90913 0.62616 0.89265 0.0
C242 C 0.80034 0.61731 0.91729 0.0
C243 C 0.78737 0.60767 0.95287 0.0
C244 C 0.74045 0.58188 0.9629 0.0
C245 C 0.70426 0.56707 0.93601 0.0
C246 C 0.7153 0.5782 0.89971 0.0
C247 C 0.76462 0.60294 0.89028 0.0
H248 H 0.93025 0.43242 -0.0026 0.0
H249 H 0.97311 0.30552 0.95662 0.0
H250 H 0.89574 0.31856 0.91032 0.0
H251 H 0.7653 0.43509 0.98582 0.0
H252 H 0.7574 0.48949 0.97322 0.0
H253 H 0.81744 0.4711 0.00251 0.0
H254 H 0.90068 0.49988 0.95941 0.0
H255 H 0.84206 0.51809 0.92908 0.0
H256 H 0.90724 0.48299 0.91308 0.0
H257 H 0.81704 0.34588 0.86774 0.0
H258 H 0.72978 0.38173 0.83691 0.0
H259 H 0.73469 0.49004 0.90677 0.0
C260 C 0.92284 0.40737 0.97882 0.0
C261 C 0.95721 0.36793 0.98045 0.0
C262 C 0.94649 0.33572 0.95595 0.0
C263 C 0.90333 0.34303 0.92937 0.0
C264 C 0.87122 0.38258 0.92794 0.0
C265 C 0.87952 0.414 0.95238 0.0
C266 C 0.83665 0.45294 0.94605 0.0
C267 C 0.79153 0.46272 0.97884 0.0
C268 C 0.8739 0.49069 0.93634 0.0
C269 C 0.80294 0.43844 0.91419 0.0
C270 C 0.82435 0.39802 0.90389 0.0
C271 C 0.79973 0.37749 0.8756 0.0
C272 C 0.75023 0.39823 0.85822 0.0
C273 C 0.72537 0.43893 0.86943 0.0
C274 C 0.75326 0.45952 0.89719 0.0
H275 H 0.12167 0.68582 0.94981 0.0
H276 H 0.17566 0.66315 0.05879 0.0
H277 H 0.27877 0.63098 0.03552 0.0
H278 H 0.20215 0.59178 0.90868 0.0
H279 H 0.22453 0.61865 0.86828 0.0
H280 H 0.15386 0.63633 0.89365 0.0
H281 H 0.19217 0.71091 0.8984 0.0
H282 H 0.26286 0.69354 0.87306 0.0
H283 H 0.26665 0.71728 0.91675 0.0
H284 H 0.37533 0.60112 -0.0004 0.0
H285 H 0.46169 0.58249 0.9543 0.0
H286 H 0.34574 0.63096 0.86991 0.0
C287 C 0.15517 0.67364 0.96866 0.0
C288 C 0.14135 0.6763 0.0059 0.0
C289 C 0.18606 0.661 0.03009 0.0
C290 C 0.24425 0.64261 0.01712 0.0
C291 C 0.25662 0.64046 0.98005 0.0
C292 C 0.21349 0.656 0.95622 0.0
C293 C 0.23934 0.65262 0.91785 0.0
C294 C 0.2028 0.62309 0.89583 0.0
C295 C 0.24033 0.69618 0.90051 0.0
C296 C 0.30427 0.63348 0.92373 0.0
C297 C 0.31302 0.62574 0.95968 0.0
C298 C 0.36914 0.60727 0.97144 0.0
C299 C 0.4177 0.59686 0.94572 0.0
C300 C 0.40964 0.60573 0.90909 0.0
C301 C 0.35256 0.62429 0.89796 0.0
H302 H 0.74913 0.85008 0.50387 0.0
H303 H 0.6063 0.95383 0.50198 0.0
H304 H 0.68428 1.00015 0.47874 0.0
H305 H 0.8776 0.91958 0.53025 0.0
H306 H 0.93528 0.88724 0.50376 0.0
H307 H 0.87018 0.86405 0.52574 0.0
H308 H 0.84228 0.83367 0.46465 0.0
H309 H 0.90634 0.85721 0.44241 0.0
H310 H 0.82852 0.86872 0.42761 0.0
H311 H 0.76842 1.02694 0.43881 0.0
H312 H 0.86273 0.04107 0.40187 0.0
H313 H 0.95544 0.92497 0.43883 0.0
C314 C 0.73472 0.88294 0.50019 0.0
C315 C 0.6712 0.89787 0.50373 0.0
C316 C 0.65436 0.94119 0.4983 0.0
C317 C 0.69838 0.96793 0.48532 0.0
C318 C 0.75973 0.95147 0.47949 0.0
C319 C 0.77861 0.91054 0.48829 0.0
C320 C 0.84697 0.90032 0.47791 0.0
C321 C 0.88474 0.89234 0.51142 0.0
C322 C 0.85652 0.86278 0.45158 0.0
C323 C 0.86216 0.94088 0.45985 0.0
C324 C 0.81111 0.9699 0.46077 0.0
C325 C 0.81048 1.0063 0.44023 0.0
C326 C 0.86424 1.01414 0.41933 0.0
C327 C 0.91756 0.98535 0.41885 0.0
C328 C 0.91633 0.94854 0.43976 0.0
H329 H 0.37968 0.17633 0.5218 0.0
H330 H 0.52689 0.14966 0.4387 0.0
H331 H 0.46352 0.10121 0.40985 0.0
H332 H 0.31202 0.07258 0.52099 0.0
H333 H 0.23327 0.09645 0.52474 0.0
H334 H 0.29501 0.12181 0.54468 0.0
H335 H 0.26631 0.1895 0.50885 0.0
H336 H 0.20434 0.1644 0.48928 0.0
H337 H 0.26321 0.18622 0.4607 0.0
H338 H 0.3822 0.06082 0.3854 0.0
H339 H 0.28264 0.04134 0.36263 0.0
H340 H 0.18329 0.10041 0.4558 0.0
C341 C 0.39925 0.16002 0.49786 0.0
C342 C 0.4602 0.16607 0.48394 0.0
C343 C 0.48243 0.14431 0.45181 0.0
C344 C 0.44635 0.11663 0.43471 0.0
C345 C 0.387 0.11143 0.44918 0.0
C346 C 0.36298 0.13307 0.47963 0.0
C347 C 0.29437 0.12693 0.48618 0.0
C348 C 0.28303 0.10302 0.52124 0.0
C349 C 0.25475 0.16927 0.48623 0.0
C350 C 0.28335 0.10015 0.45378 0.0
C351 C 0.33797 0.0903 0.4335 0.0
C352 C 0.33915 0.0679 0.40122 0.0
C353 C 0.2826 0.0566 0.38863 0.0
C354 C 0.22586 0.06895 0.40778 0.0
C355 C 0.22646 0.08985 0.44119 0.0
H356 H 0.42628 0.90835 0.49619 0.0
H357 H 0.50261 0.80655 0.42603 0.0
H358 H 0.42247 0.82602 0.38231 0.0
H359 H 0.26254 0.89611 0.47742 0.0
H360 H 0.24104 0.95175 0.48054 0.0
H361 H 0.30313 0.92864 0.50643 0.0
H362 H 0.3787 0.98032 0.47814 0.0
H363 H 0.31517 1.00331 0.45355 0.0
H364 H 0.38708 0.98395 0.42993 0.0
H365 H 0.33769 0.85809 0.34582 0.0
H366 H 0.24615 0.89648 0.32058 0.0
H367 H 0.22346 0.97703 0.41509 0.0
C368 C 0.42515 0.88993 0.47182 0.0
C369 C 0.46966 0.85592 0.46417 0.0
C370 C 0.46795 0.8324 0.43216 0.0
C371 C 0.42309 0.84342 0.40723 0.0
C372 C 0.38038 0.87773 0.41514 0.0
C373 C 0.38021 0.90017 0.44692 0.0
C374 C 0.32826 0.93505 0.44917 0.0
C375 C 0.28094 0.9274 0.48022 0.0
C376 C 0.35396 0.97821 0.45285 0.0
C377 C 0.30057 0.92967 0.41309 0.0
C378 C 0.33124 0.89628 0.39402 0.0
C379 C 0.31324 0.88428 0.36043 0.0
C380 C 0.26142 0.90631 0.34631 0.0
C381 C 0.2285 0.94003 0.36569 0.0
C382 C 0.24888 0.95217 0.39928 0.0
H383 H 0.70542 0.1707 0.51873 0.0
H384 H 0.63762 0.26787 0.4466 0.0
H385 H 0.72873 0.2508 0.40499 0.0
H386 H 0.88079 0.18686 0.49587 0.0
H387 H 0.90123 0.13152 0.50125 0.0
H388 H 0.83828 0.15761 0.52868 0.0
H389 H 0.76503 0.10344 0.50763 0.0
H390 H 0.82726 0.07812 0.4797 0.0
H391 H 0.75494 0.09699 0.46031 0.0
H392 H 0.81119 0.21413 0.36646 0.0
H393 H 0.8961 0.16865 0.33664 0.0
H394 H 0.91701 0.09672 0.43436 0.0
C395 C 0.71192 0.18964 0.49505 0.0
C396 C 0.66561 0.22085 0.48578 0.0
C397 C 0.67369 0.24447 0.45423 0.0
C398 C 0.72496 0.23481 0.43042 0.0
C399 C 0.76826 0.20226 0.43922 0.0
C400 C 0.764 0.18117 0.47143 0.0
C401 C 0.81546 0.14604 0.47314 0.0
C402 C 0.86169 0.15612 0.50141 0.0
C403 C 0.78901 0.10358 0.48057 0.0
C404 C 0.84506 0.14798 0.43549 0.0
C405 C 0.81758 0.18122 0.41678 0.0
C406 C 0.83422 0.18864 0.38105 0.0
C407 C 0.88196 0.16237 0.36426 0.0
C408 C 0.91242 0.12896 0.38311 0.0
C409 C 0.89349 0.12148 0.41915 0.0
loop_
_geom_bond_atom_site_label_1
_geom_bond_atom_site_label_2
_geom_bond_distance
_geom_bond_site_symmetry_2
_ccdc_geom_bond_type
H0 C5 0.929 . S
H1 C10 0.931 . S
H2 C8 0.930 . S
N3 N4 1.234 . S
N3 C7 1.453 . S
N4 N3 1.234 . S
C5 H0 0.929 . S
C5 C6 1.373 1_554 S
C5 C7 1.368 . S
C6 C5 1.373 1_556 S
C6 C10 1.397 . S
C7 N3 1.453 . S
C7 C5 1.368 . S
C7 C8 1.373 . S
C8 H2 0.930 . S
C8 C7 1.373 . S
C8 C9 1.371 1_554 S
C9 C8 1.371 1_556 S
C9 C10 1.383 . S
C10 H1 0.931 . S
C10 C6 1.397 . S
C10 C9 1.383 . S
H11 C16 0.929 . S
H12 C21 0.931 . S
H13 C19 0.930 . S
N14 N15 1.234 1_655 S
N14 C18 1.453 . S
N15 N14 1.234 1_455 S
C16 H11 0.929 . S
C16 C17 1.373 1_554 S
C16 C18 1.368 . S
C17 C16 1.373 1_556 S
C17 C21 1.397 1_655 S
C18 N14 1.453 . S
C18 C16 1.368 . S
C18 C19 1.373 1_655 S
C19 H13 0.930 . S
C19 C18 1.373 1_455 S
C19 C20 1.353 1_554 S
C20 C19 1.353 1_556 S
C20 C21 1.394 . S
C21 H12 0.931 . S
C21 C17 1.397 1_455 S
C21 C20 1.394 . S
H22 C27 0.929 . S
H23 C32 0.931 . S
H24 C30 0.930 . S
N25 N26 1.234 . S
N25 C29 1.453 . S
N26 N25 1.234 . S
C27 H22 0.929 . S
C27 C28 1.373 . S
C27 C29 1.368 . S
C28 C27 1.373 . S
C28 C32 1.397 . S
C29 N25 1.453 . S
C29 C27 1.368 . S
C29 C30 1.373 . S
C30 H24 0.930 . S
C30 C29 1.373 . S
C30 C31 1.371 . S
C31 C30 1.371 . S
C31 C32 1.383 . S
C32 H23 0.931 . S
C32 C28 1.397 . S
C32 C31 1.383 . S
H33 C38 0.929 . S
H34 C43 0.931 . S
H35 C41 0.930 . S
N36 N37 1.234 . S
N36 C40 1.453 . S
N37 N36 1.234 . S
C38 H33 0.929 . S
C38 C39 1.373 . S
C38 C40 1.368 . S
C39 C38 1.373 . S
C39 C43 1.397 . S
C40 N36 1.453 . S
C40 C38 1.368 . S
C40 C41 1.373 . S
C41 H35 0.930 . S
C41 C40 1.373 . S
C41 C42 1.371 . S
C42 C41 1.371 . S
C42 C43 1.383 . S
C43 H34 0.931 . S
C43 C39 1.397 . S
C43 C42 1.383 . S
Zn44 O50 1.920 . S
Zn44 O56 1.898 . S
Zn44 O59 1.905 1_455 S
Zn45 O53 1.905 . S
Zn45 O54 1.898 . S
Zn45 O62 1.920 . S
Zn46 O49 2.080 . S
Zn46 O52 2.114 1_545 S
Zn46 O55 2.120 1_545 S
Zn46 O57 2.120 . S
Zn46 O58 2.114 1_455 S
Zn46 O61 2.080 1_545 S
C47 O52 1.166 . S
C47 O53 1.182 . S
C48 O54 1.167 . S
C48 O55 1.299 . S
O49 Zn46 2.080 . S
O49 C63 1.305 . S
O50 Zn44 1.920 . S
O50 C63 1.234 . S
C51 O56 1.167 . S
C51 O57 1.299 . S
O52 Zn46 2.114 1_565 S
O52 C47 1.166 . S
O53 Zn45 1.905 . S
O53 C47 1.182 . S
O54 Zn45 1.898 . S
O54 C48 1.167 . S
O55 Zn46 2.120 1_565 S
O55 C48 1.299 . S
O56 Zn44 1.898 . S
O56 C51 1.167 . S
O57 Zn46 2.120 . S
O57 C51 1.299 . S
O58 Zn46 2.114 1_655 S
O58 C60 1.166 . S
O59 Zn44 1.905 1_655 S
O59 C60 1.182 . S
C60 O58 1.166 . S
C60 O59 1.182 . S
O61 Zn46 2.080 1_565 S
O61 C64 1.305 . S
O62 Zn45 1.920 . S
O62 C64 1.234 . S
C63 O49 1.305 . S
C63 O50 1.234 . S
C64 O61 1.305 . S
C64 O62 1.234 . S
Zn65 O71 1.920 . S
Zn65 O77 1.898 . S
Zn65 O80 1.905 . S
Zn66 O74 1.905 . S
Zn66 O75 1.898 . S
Zn66 O83 1.920 . S
Zn67 O70 2.080 . S
Zn67 O73 2.114 . S
Zn67 O76 2.120 . S
Zn67 O78 2.120 . S
Zn67 O79 2.114 . S
Zn67 O82 2.080 . S
C68 O73 1.166 . S
C68 O74 1.182 . S
C69 O75 1.167 . S
C69 O76 1.299 . S
O70 Zn67 2.080 . S
O70 C84 1.305 . S
O71 Zn65 1.920 . S
O71 C84 1.234 . S
C72 O77 1.167 . S
C72 O78 1.299 . S
O73 Zn67 2.114 . S
O73 C68 1.166 . S
O74 Zn66 1.905 . S
O74 C68 1.182 . S
O75 Zn66 1.898 . S
O75 C69 1.167 . S
O76 Zn67 2.120 . S
O76 C69 1.299 . S
O77 Zn65 1.898 . S
O77 C72 1.167 . S
O78 Zn67 2.120 . S
O78 C72 1.299 . S
O79 Zn67 2.114 . S
O79 C81 1.166 . S
O80 Zn65 1.905 . S
O80 C81 1.182 . S
C81 O79 1.166 . S
C81 O80 1.182 . S
O82 Zn67 2.080 . S
O82 C85 1.305 . S
O83 Zn66 1.920 . S
O83 C85 1.234 . S
C84 O70 1.305 . S
C84 O71 1.234 . S
C85 O82 1.305 . S
C85 O83 1.234 . S
H86 C98 0.930 . S
H87 C100 0.930 . S
H88 C101 0.930 . S
H89 C105 0.959 . S
H90 C105 0.959 . S
H91 C105 0.961 . S
H92 C106 0.960 . S
H93 C106 0.961 . S
H94 C106 0.959 . S
H95 C109 0.929 . S
H96 C110 0.931 . S
H97 C112 0.930 . S
C98 H86 0.930 . S
C98 C99 1.399 . S
C98 C103 1.399 . S
C99 C98 1.399 . S
C99 C100 1.376 . S
C100 H87 0.930 . S
C100 C99 1.376 . S
C100 C101 1.388 . S
C101 H88 0.930 . S
C101 C100 1.388 . S
C101 C102 1.390 . S
C102 C101 1.390 . S
C102 C103 1.394 . S
C102 C108 1.465 . S
C103 C98 1.399 . S
C103 C102 1.394 . S
C103 C104 1.516 . S
C104 C103 1.516 . S
C104 C105 1.502 . S
C104 C106 1.561 . S
C104 C107 1.526 . S
C105 H89 0.959 . S
C105 H90 0.959 . S
C105 H91 0.961 . S
C105 C104 1.502 . S
C106 H92 0.960 . S
C106 H93 0.961 . S
C106 H94 0.959 . S
C106 C104 1.561 . S
C107 C104 1.526 . S
C107 C108 1.396 . S
C107 C112 1.390 . S
C108 C102 1.465 . S
C108 C107 1.396 . S
C108 C109 1.399 . S
C109 H95 0.929 . S
C109 C108 1.399 . S
C109 C110 1.385 . S
C110 H96 0.931 . S
C110 C109 1.385 . S
C110 C111 1.389 . S
C111 C110 1.389 . S
C111 C112 1.387 . S
C112 H97 0.930 . S
C112 C107 1.390 . S
C112 C111 1.387 . S
H113 C125 0.930 . S
H114 C127 0.930 . S
H115 C128 0.930 . S
H116 C132 0.959 . S
H117 C132 0.959 . S
H118 C132 0.961 . S
H119 C133 0.960 . S
H120 C133 0.961 . S
H121 C133 0.959 . S
H122 C136 0.929 . S
H123 C137 0.931 . S
H124 C139 0.930 . S
C125 H113 0.930 . S
C125 C126 1.399 . S
C125 C130 1.399 . S
C126 C125 1.399 . S
C126 C127 1.376 . S
C127 H114 0.930 . S
C127 C126 1.376 . S
C127 C128 1.388 . S
C128 H115 0.930 . S
C128 C127 1.388 . S
C128 C129 1.390 . S
C129 C128 1.390 . S
C129 C130 1.394 . S
C129 C135 1.465 . S
C130 C125 1.399 . S
C130 C129 1.394 . S
C130 C131 1.516 . S
C131 C130 1.516 . S
C131 C132 1.502 1_455 S
C131 C133 1.561 . S
C131 C134 1.526 . S
C132 H116 0.959 . S
C132 H117 0.959 . S
C132 H118 0.961 . S
C132 C131 1.502 1_655 S
C133 H119 0.960 . S
C133 H120 0.961 . S
C133 H121 0.959 . S
C133 C131 1.561 . S
C134 C131 1.526 . S
C134 C135 1.396 . S
C134 C139 1.390 . S
C135 C129 1.465 . S
C135 C134 1.396 . S
C135 C136 1.399 . S
C136 H122 0.929 . S
C136 C135 1.399 . S
C136 C137 1.385 . S
C137 H123 0.931 . S
C137 C136 1.385 . S
C137 C138 1.389 . S
C138 C137 1.389 . S
C138 C139 1.387 . S
C139 H124 0.930 . S
C139 C134 1.390 . S
C139 C138 1.387 . S
H140 C152 0.930 . S
H141 C154 0.930 . S
H142 C155 0.930 . S
H143 C159 0.959 . S
H144 C159 0.959 . S
H145 C159 0.961 . S
H146 C160 0.960 . S
H147 C160 0.961 . S
H148 C160 0.959 . S
H149 C163 0.929 . S
H150 C164 0.931 . S
H151 C166 0.930 . S
C152 H140 0.930 . S
C152 C153 1.399 . S
C152 C157 1.399 . S
C153 C152 1.399 . S
C153 C154 1.376 . S
C154 H141 0.930 . S
C154 C153 1.376 . S
C154 C155 1.388 . S
C155 H142 0.930 . S
C155 C154 1.388 . S
C155 C156 1.390 . S
C156 C155 1.390 . S
C156 C157 1.394 . S
C156 C162 1.465 . S
C157 C152 1.399 . S
C157 C156 1.394 . S
C157 C158 1.516 . S
C158 C157 1.516 . S
C158 C159 1.502 . S
C158 C160 1.561 . S
C158 C161 1.526 . S
C159 H143 0.959 . S
C159 H144 0.959 . S
C159 H145 0.961 . S
C159 C158 1.502 . S
C160 H146 0.960 . S
C160 H147 0.961 . S
C160 H148 0.959 . S
C160 C158 1.561 . S
C161 C158 1.526 . S
C161 C162 1.396 . S
C161 C166 1.390 . S
C162 C156 1.465 . S
C162 C161 1.396 . S
C162 C163 1.399 . S
C163 H149 0.929 . S
C163 C162 1.399 . S
C163 C164 1.385 . S
C164 H150 0.931 . S
C164 C163 1.385 . S
C164 C165 1.389 . S
C165 C164 1.389 . S
C165 C166 1.387 . S
C166 H151 0.930 . S
C166 C161 1.390 . S
C166 C165 1.387 . S
H167 C179 0.930 . S
H168 C181 0.930 . S
H169 C182 0.930 . S
H170 C186 0.959 . S
H171 C186 0.959 . S
H172 C186 0.961 . S
H173 C187 0.960 . S
H174 C187 0.961 . S
H175 C187 0.959 . S
H176 C190 0.929 . S
H177 C191 0.931 . S
H178 C193 0.930 . S
C179 H167 0.930 . S
C179 C180 1.399 . S
C179 C184 1.399 . S
C180 C179 1.399 . S
C180 C181 1.376 . S
C181 H168 0.930 . S
C181 C180 1.376 . S
C181 C182 1.388 . S
C182 H169 0.930 . S
C182 C181 1.388 . S
C182 C183 1.390 . S
C183 C182 1.390 . S
C183 C184 1.394 . S
C183 C189 1.465 . S
C184 C179 1.399 . S
C184 C183 1.394 . S
C184 C185 1.516 . S
C185 C184 1.516 . S
C185 C186 1.502 . S
C185 C187 1.561 . S
C185 C188 1.526 . S
C186 H170 0.959 . S
C186 H171 0.959 . S
C186 H172 0.961 . S
C186 C185 1.502 . S
C187 H173 0.960 . S
C187 H174 0.961 . S
C187 H175 0.959 . S
C187 C185 1.561 . S
C188 C185 1.526 . S
C188 C189 1.396 . S
C188 C193 1.390 . S
C189 C183 1.465 . S
C189 C188 1.396 . S
C189 C190 1.399 . S
C190 H176 0.929 . S
C190 C189 1.399 . S
C190 C191 1.385 . S
C191 H177 0.931 . S
C191 C190 1.385 . S
C191 C192 1.389 . S
C192 C191 1.389 . S
C192 C193 1.387 . S
C193 H178 0.930 . S
C193 C188 1.390 . S
C193 C192 1.387 . S
H194 C206 0.930 . S
H195 C208 0.930 . S
H196 C209 0.930 . S
H197 C213 0.959 1_554 S
H198 C213 0.959 . S
H199 C213 0.961 1_554 S
H200 C214 0.960 . S
H201 C214 0.961 . S
H202 C214 0.959 . S
H203 C217 0.929 . S
H204 C218 0.931 . S
H205 C220 0.930 . S
C206 H194 0.930 . S
C206 C207 1.399 . S
C206 C211 1.399 . S
C207 C206 1.399 . S
C207 C208 1.376 . S
C208 H195 0.930 . S
C208 C207 1.376 . S
C208 C209 1.388 . S
C209 H196 0.930 . S
C209 C208 1.388 . S
C209 C210 1.390 . S
C210 C209 1.390 . S
C210 C211 1.394 . S
C210 C216 1.465 . S
C211 C206 1.399 . S
C211 C210 1.394 . S
C211 C212 1.516 . S
C212 C211 1.516 . S
C212 C213 1.502 . S
C212 C214 1.561 . S
C212 C215 1.526 . S
C213 H197 0.959 1_556 S
C213 H198 0.959 . S
C213 H199 0.961 1_556 S
C213 C212 1.502 . S
C214 H200 0.960 . S
C214 H201 0.961 . S
C214 H202 0.959 . S
C214 C212 1.561 . S
C215 C212 1.526 . S
C215 C216 1.396 . S
C215 C220 1.390 . S
C216 C210 1.465 . S
C216 C215 1.396 . S
C216 C217 1.399 . S
C217 H203 0.929 . S
C217 C216 1.399 . S
C217 C218 1.385 . S
C218 H204 0.931 . S
C218 C217 1.385 . S
C218 C219 1.389 . S
C219 C218 1.389 . S
C219 C220 1.387 . S
C220 H205 0.930 . S
C220 C215 1.390 . S
C220 C219 1.387 . S
H221 C233 0.930 . S
H222 C235 0.930 . S
H223 C236 0.930 . S
H224 C240 0.959 . S
H225 C240 0.959 . S
H226 C240 0.961 . S
H227 C241 0.960 . S
H228 C241 0.961 . S
H229 C241 0.959 . S
H230 C244 0.929 . S
H231 C245 0.931 . S
H232 C247 0.930 . S
C233 H221 0.930 . S
C233 C234 1.399 . S
C233 C238 1.399 . S
C234 C233 1.399 . S
C234 C235 1.376 1_556 S
C235 H222 0.930 . S
C235 C234 1.376 1_554 S
C235 C236 1.388 . S
C236 H223 0.930 . S
C236 C235 1.388 . S
C236 C237 1.390 1_554 S
C237 C236 1.390 1_556 S
C237 C238 1.394 . S
C237 C243 1.465 . S
C238 C233 1.399 . S
C238 C237 1.394 . S
C238 C239 1.516 . S
C239 C238 1.516 . S
C239 C240 1.502 . S
C239 C241 1.561 . S
C239 C242 1.526 . S
C240 H224 0.959 . S
C240 H225 0.959 . S
C240 H226 0.961 . S
C240 C239 1.502 . S
C241 H227 0.960 . S
C241 H228 0.961 . S
C241 H229 0.959 . S
C241 C239 1.561 . S
C242 C239 1.526 . S
C242 C243 1.396 . S
C242 C247 1.390 . S
C243 C237 1.465 . S
C243 C242 1.396 . S
C243 C244 1.399 . S
C244 H230 0.929 . S
C244 C243 1.399 . S
C244 C245 1.385 . S
C245 H231 0.931 . S
C245 C244 1.385 . S
C245 C246 1.389 . S
C246 C245 1.389 . S
C246 C247 1.387 . S
C247 H232 0.930 . S
C247 C242 1.390 . S
C247 C246 1.387 . S
H248 C260 0.932 . S
H249 C262 0.930 . S
H250 C263 0.930 . S
H251 C267 0.959 . S
H252 C267 0.959 . S
H253 C267 0.961 . S
H254 C268 0.960 1_455 S
H255 C268 0.961 . S
H256 C268 0.959 . S
H257 C271 0.929 . S
H258 C272 0.931 . S
H259 C274 0.930 . S
C260 H248 0.932 . S
C260 C261 1.400 . S
C260 C265 1.396 1_455 S
C261 C260 1.400 . S
C261 C262 1.376 1_455 S
C262 H249 0.930 . S
C262 C261 1.376 1_655 S
C262 C263 1.388 . S
C263 H250 0.930 . S
C263 C262 1.388 . S
C263 C264 1.390 . S
C264 C263 1.390 . S
C264 C265 1.394 . S
C264 C270 1.465 . S
C265 C260 1.396 1_655 S
C265 C264 1.394 . S
C265 C266 1.516 . S
C266 C265 1.516 . S
C266 C267 1.502 . S
C266 C268 1.561 . S
C266 C269 1.526 . S
C267 H251 0.959 . S
C267 H252 0.959 . S
C267 H253 0.961 . S
C267 C266 1.502 . S
C268 H254 0.960 1_655 S
C268 H255 0.961 . S
C268 H256 0.959 . S
C268 C266 1.561 . S
C269 C266 1.526 . S
C269 C270 1.396 . S
C269 C274 1.390 . S
C270 C264 1.465 . S
C270 C269 1.396 . S
C270 C271 1.399 . S
C271 H257 0.929 . S
C271 C270 1.399 . S
C271 C272 1.385 . S
C272 H258 0.931 . S
C272 C271 1.385 . S
C272 C273 1.389 . S
C273 C272 1.389 . S
C273 C274 1.387 . S
C274 H259 0.930 . S
C274 C269 1.390 . S
C274 C273 1.387 . S
H275 C287 0.930 . S
H276 C289 0.930 . S
H277 C290 0.907 1_554 S
H278 C294 0.959 . S
H279 C294 0.959 . S
H280 C294 0.961 . S
H281 C295 0.960 . S
H282 C295 0.961 . S
H283 C295 0.959 . S
H284 C298 0.929 . S
H285 C299 0.931 . S
H286 C301 0.930 . S
C287 H275 0.930 . S
C287 C288 1.399 . S
C287 C292 1.399 . S
C288 C287 1.399 . S
C288 C289 1.376 1_556 S
C289 H276 0.930 . S
C289 C288 1.376 1_554 S
C289 C290 1.382 1_554 S
C290 H277 0.907 1_556 S
C290 C289 1.382 1_556 S
C290 C291 1.420 . S
C291 C290 1.420 . S
C291 C292 1.394 . S
C291 C297 1.465 . S
C292 C287 1.399 . S
C292 C291 1.394 . S
C292 C293 1.516 . S
C293 C292 1.516 . S
C293 C294 1.502 . S
C293 C295 1.561 . S
C293 C296 1.526 . S
C294 H278 0.959 . S
C294 H279 0.959 . S
C294 H280 0.961 . S
C294 C293 1.502 . S
C295 H281 0.960 . S
C295 H282 0.961 . S
C295 H283 0.959 . S
C295 C293 1.561 . S
C296 C293 1.526 . S
C296 C297 1.396 . S
C296 C301 1.390 . S
C297 C291 1.465 . S
C297 C296 1.396 . S
C297 C298 1.399 . S
C298 H284 0.929 . S
C298 C297 1.399 . S
C298 C299 1.385 . S
C299 H285 0.931 . S
C299 C298 1.385 . S
C299 C300 1.389 . S
C300 C299 1.389 . S
C300 C301 1.387 . S
C301 H286 0.930 . S
C301 C296 1.390 . S
C301 C300 1.387 . S
H302 C314 0.930 . S
H303 C316 0.930 . S
H304 C317 0.930 . S
H305 C321 0.959 . S
H306 C321 0.959 1_455 S
H307 C321 0.961 . S
H308 C322 0.960 . S
H309 C322 0.961 . S
H310 C322 0.959 . S
H311 C325 0.929 . S
H312 C326 0.931 . S
H313 C328 0.930 1_455 S
C314 H302 0.930 . S
C314 C315 1.399 . S
C314 C319 1.399 . S
C315 C314 1.399 . S
C315 C316 1.376 . S
C316 H303 0.930 . S
C316 C315 1.376 . S
C316 C317 1.388 . S
C317 H304 0.930 . S
C317 C316 1.388 . S
C317 C318 1.390 . S
C318 C317 1.390 . S
C318 C319 1.394 . S
C318 C324 1.465 . S
C319 C314 1.399 . S
C319 C318 1.394 . S
C319 C320 1.516 . S
C320 C319 1.516 . S
C320 C321 1.502 . S
C320 C322 1.561 . S
C320 C323 1.526 . S
C321 H305 0.959 . S
C321 H306 0.959 1_655 S
C321 H307 0.961 . S
C321 C320 1.502 . S
C322 H308 0.960 . S
C322 H309 0.961 . S
C322 H310 0.959 . S
C322 C320 1.561 . S
C323 C320 1.526 . S
C323 C324 1.396 . S
C323 C328 1.390 . S
C324 C318 1.465 . S
C324 C323 1.396 . S
C324 C325 1.399 . S
C325 H311 0.929 . S
C325 C324 1.399 . S
C325 C326 1.385 . S
C326 H312 0.931 . S
C326 C325 1.385 . S
C326 C327 1.389 . S
C327 C326 1.389 . S
C327 C328 1.387 . S
C328 H313 0.930 1_655 S
C328 C323 1.390 . S
C328 C327 1.387 . S
H329 C341 0.930 . S
H330 C343 0.930 . S
H331 C344 0.930 . S
H332 C348 0.959 . S
H333 C348 0.959 . S
H334 C348 0.961 . S
H335 C349 0.960 . S
H336 C349 0.961 . S
H337 C349 0.959 . S
H338 C352 0.929 . S
H339 C353 0.931 . S
H340 C355 0.930 . S
C341 H329 0.930 . S
C341 C342 1.399 . S
C341 C346 1.399 . S
C342 C341 1.399 . S
C342 C343 1.376 . S
C343 H330 0.930 . S
C343 C342 1.376 . S
C343 C344 1.388 . S
C344 H331 0.930 . S
C344 C343 1.388 . S
C344 C345 1.390 . S
C345 C344 1.390 . S
C345 C346 1.394 . S
C345 C351 1.465 . S
C346 C341 1.399 . S
C346 C345 1.394 . S
C346 C347 1.516 . S
C347 C346 1.516 . S
C347 C348 1.502 . S
C347 C349 1.561 . S
C347 C350 1.526 . S
C348 H332 0.959 . S
C348 H333 0.959 . S
C348 H334 0.961 . S
C348 C347 1.502 . S
C349 H335 0.960 . S
C349 H336 0.961 . S
C349 H337 0.959 . S
C349 C347 1.561 . S
C350 C347 1.526 . S
C350 C351 1.396 . S
C350 C355 1.390 . S
C351 C345 1.465 . S
C351 C350 1.396 . S
C351 C352 1.399 . S
C352 H338 0.929 . S
C352 C351 1.399 . S
C352 C353 1.385 . S
C353 H339 0.931 . S
C353 C352 1.385 . S
C353 C354 1.389 . S
C354 C353 1.389 . S
C354 C355 1.387 . S
C355 H340 0.930 . S
C355 C350 1.390 . S
C355 C354 1.387 . S
H356 C368 0.930 . S
H357 C370 0.930 . S
H358 C371 0.930 . S
H359 C375 0.959 . S
H360 C375 0.959 . S
H361 C375 0.961 . S
H362 C376 0.960 . S
H363 C376 0.961 . S
H364 C376 0.959 . S
H365 C379 0.929 . S
H366 C380 0.931 . S
H367 C382 0.930 . S
C368 H356 0.930 . S
C368 C369 1.399 . S
C368 C373 1.399 . S
C369 C368 1.399 . S
C369 C370 1.376 . S
C370 H357 0.930 . S
C370 C369 1.376 . S
C370 C371 1.388 . S
C371 H358 0.930 . S
C371 C370 1.388 . S
C371 C372 1.390 . S
C372 C371 1.390 . S
C372 C373 1.394 . S
C372 C378 1.465 . S
C373 C368 1.399 . S
C373 C372 1.394 . S
C373 C374 1.516 . S
C374 C373 1.516 . S
C374 C375 1.502 . S
C374 C376 1.561 . S
C374 C377 1.526 . S
C375 H359 0.959 . S
C375 H360 0.959 . S
C375 H361 0.961 . S
C375 C374 1.502 . S
C376 H362 0.960 . S
C376 H363 0.961 . S
C376 H364 0.959 . S
C376 C374 1.561 . S
C377 C374 1.526 . S
C377 C378 1.396 . S
C377 C382 1.390 . S
C378 C372 1.465 . S
C378 C377 1.396 . S
C378 C379 1.399 . S
C379 H365 0.929 . S
C379 C378 1.399 . S
C379 C380 1.385 . S
C380 H366 0.931 . S
C380 C379 1.385 . S
C380 C381 1.389 . S
C381 C380 1.389 . S
C381 C382 1.387 . S
C382 H367 0.930 . S
C382 C377 1.390 . S
C382 C381 1.387 . S
H383 C395 0.930 . S
H384 C397 0.930 . S
H385 C398 0.930 . S
H386 C402 0.959 . S
H387 C402 0.959 . S
H388 C402 0.961 . S
H389 C403 0.960 . S
H390 C403 0.961 . S
H391 C403 0.959 . S
H392 C406 0.929 . S
H393 C407 0.931 . S
H394 C409 0.930 . S
C395 H383 0.930 . S
C395 C396 1.399 . S
C395 C400 1.399 . S
C396 C395 1.399 . S
C396 C397 1.376 . S
C397 H384 0.930 . S
C397 C396 1.376 . S
C397 C398 1.388 . S
C398 H385 0.930 . S
C398 C397 1.388 . S
C398 C399 1.390 . S
C399 C398 1.390 . S
C399 C400 1.394 . S
C399 C405 1.465 . S
C400 C395 1.399 . S
C400 C399 1.394 . S
C400 C401 1.516 . S
C401 C400 1.516 . S
C401 C402 1.502 . S
C401 C403 1.561 . S
C401 C404 1.526 . S
C402 H386 0.959 . S
C402 H387 0.959 . S
C402 H388 0.961 . S
C402 C401 1.502 . S
C403 H389 0.960 . S
C403 H390 0.961 . S
C403 H391 0.959 . S
C403 C401 1.561 . S
C404 C401 1.526 . S
C404 C405 1.396 . S
C404 C409 1.390 . S
C405 C399 1.465 . S
C405 C404 1.396 . S
C405 C406 1.399 . S
C406 H392 0.929 . S
C406 C405 1.399 . S
C406 C407 1.385 . S
C407 H393 0.931 . S
C407 C406 1.385 . S
C407 C408 1.389 . S
C408 C407 1.389 . S
C408 C409 1.387 . S
C409 H394 0.930 . S
C409 C404 1.390 . S
C409 C408 1.387 . S
C111 C51 1.371 . S
C99 N4 1.518 . S
C138 C47 1.444 . S
C126 N15 1.490 . S
C165 C72 1.460 . S
C153 N26 1.537 . S
C180 N37 1.515 . S
C192 C68 1.426 . S
C207 C9 1.220 . S
C219 C69 1.160 . S
C246 C84 1.206 . S
C234 C17 1.245 . S
C261 C6 1.724 . S
C273 C85 1.529 . S
C300 C81 1.596 . S
C288 C20 1.760 . S
C327 C48 1.191 1_655 S
C315 C31 1.208 . S
C342 C39 1.254 . S
C354 C63 1.155 . S
C381 C64 1.546 . S
C369 C28 1.720 . S
C408 C60 1.635 . S
C396 C42 1.715 . S
