# Generated by pormake.
# Topology csq, (4,8)-cn, num edge types: 1
# Building blocks:
#     Node 0, Type 0, BuildingBlock: NAWXER_clean_linker_0, # of connection points: 4
#     Node 1, Type 0, BuildingBlock: NAWXER_clean_linker_0, # of connection points: 4
#     Node 2, Type 0, BuildingBlock: NAWXER_clean_linker_0, # of connection points: 4
#     Node 3, Type 0, BuildingBlock: NAWXER_clean_linker_0, # of connection points: 4
#     Node 4, Type 0, BuildingBlock: NAWXER_clean_linker_0, # of connection points: 4
#     Node 5, Type 0, BuildingBlock: NAWXER_clean_linker_0, # of connection points: 4
#     Node 6, Type 1, BuildingBlock: TAGTUT_clean_sbu_1, # of connection points: 8
#     Node 7, Type 1, BuildingBlock: TAGTUT_clean_sbu_1, # of connection points: 8
#     Node 8, Type 1, BuildingBlock: TAGTUT_clean_sbu_1, # of connection points: 8
#     Edge 9, Type (0, 1), BuildingBlock: KIFKEQ_clean_linker_1, # of connection points: 2
#     Edge 10, Type (0, 1), BuildingBlock: KIFKEQ_clean_linker_1, # of connection points: 2
#     Edge 11, Type (0, 1), BuildingBlock: KIFKEQ_clean_linker_1, # of connection points: 2
#     Edge 12, Type (0, 1), BuildingBlock: KIFKEQ_clean_linker_1, # of connection points: 2
#     Edge 13, Type (0, 1), BuildingBlock: KIFKEQ_clean_linker_1, # of connection points: 2
#     Edge 14, Type (0, 1), BuildingBlock: KIFKEQ_clean_linker_1, # of connection points: 2
#     Edge 15, Type (0, 1), BuildingBlock: KIFKEQ_clean_linker_1, # of connection points: 2
#     Edge 16, Type (0, 1), BuildingBlock: KIFKEQ_clean_linker_1, # of connection points: 2
#     Edge 17, Type (0, 1), BuildingBlock: KIFKEQ_clean_linker_1, # of connection points: 2
#     Edge 18, Type (0, 1), BuildingBlock: KIFKEQ_clean_linker_1, # of connection points: 2
#     Edge 19, Type (0, 1), BuildingBlock: KIFKEQ_clean_linker_1, # of connection points: 2
#     Edge 20, Type (0, 1), BuildingBlock: KIFKEQ_clean_linker_1, # of connection points: 2
#     Edge 21, Type (0, 1), BuildingBlock: KIFKEQ_clean_linker_1, # of connection points: 2
#     Edge 22, Type (0, 1), BuildingBlock: KIFKEQ_clean_linker_1, # of connection points: 2
#     Edge 23, Type (0, 1), BuildingBlock: KIFKEQ_clean_linker_1, # of connection points: 2
#     Edge 24, Type (0, 1), BuildingBlock: KIFKEQ_clean_linker_1, # of connection points: 2
#     Edge 25, Type (0, 1), BuildingBlock: KIFKEQ_clean_linker_1, # of connection points: 2
#     Edge 26, Type (0, 1), BuildingBlock: KIFKEQ_clean_linker_1, # of connection points: 2
#     Edge 27, Type (0, 1), BuildingBlock: KIFKEQ_clean_linker_1, # of connection points: 2
#     Edge 28, Type (0, 1), BuildingBlock: KIFKEQ_clean_linker_1, # of connection points: 2
#     Edge 29, Type (0, 1), BuildingBlock: KIFKEQ_clean_linker_1, # of connection points: 2
#     Edge 30, Type (0, 1), BuildingBlock: KIFKEQ_clean_linker_1, # of connection points: 2
#     Edge 31, Type (0, 1), BuildingBlock: KIFKEQ_clean_linker_1, # of connection points: 2
#     Edge 32, Type (0, 1), BuildingBlock: KIFKEQ_clean_linker_1, # of connection points: 2
# Relax obj value: 0.031
# Max RMSD: 0.126
# Mean RMSD: 0.041
data_MOF--net-csq--node1-TAGTUT_clean_sbu_1--node2-NAWXER_clean_linker_0--edge1-KIFKEQ_clean_linker_1
_symmetry_space_group_name_H-M    P1
_symmetry_Int_Tables_number       1
_symmetry_cell_setting            triclinic
loop_
_symmetry_equiv_pos_as_xyz
'x, y, z'
_cell_length_a     62.43902
_cell_length_b     61.786096
_cell_length_c     22.655872
_cell_angle_alpha  92.764499
_cell_angle_beta   91.605757
_cell_angle_gamma 119.97064
loop_
_atom_site_label
_atom_site_type_symbol
_atom_site_fract_x
_atom_site_fract_y
_atom_site_fract_z
_atom_type_partial_charge
C0 C 0.32758 0.50308 0.07463 0.0
C1 C 0.32015 0.48579 0.02494 0.0
C2 C 0.31014 0.50261 0.11291 0.0
C3 C 0.28488 0.48471 0.10255 0.0
C4 C 0.29497 0.46746 0.0158 0.0
C5 C 0.27757 0.46701 0.05396 0.0
C6 C 0.26562 0.48653 0.13586 0.0
C7 C 0.30385 0.46882 0.28319 0.0
C8 C 0.31724 0.48893 0.32602 0.0
C9 C 0.28842 0.47008 0.23935 0.0
C10 C 0.28588 0.49134 0.238 0.0
C11 C 0.31503 0.51045 0.32327 0.0
C12 C 0.29925 0.51148 0.28017 0.0
C13 C 0.26707 0.49143 0.19771 0.0
C14 C 0.16791 0.48069 0.24626 0.0
C15 C 0.17554 0.49794 0.29606 0.0
C16 C 0.18535 0.47953 0.21071 0.0
C17 C 0.21083 0.4959 0.22357 0.0
C18 C 0.201 0.5143 0.30881 0.0
C19 C 0.21841 0.51327 0.27303 0.0
C20 C 0.22979 0.49336 0.19046 0.0
C21 C 0.19284 0.51163 0.0399 0.0
C22 C 0.18206 0.4929 0.99303 0.0
C23 C 0.20662 0.50949 0.0866 0.0
C24 C 0.20979 0.48857 0.08716 0.0
C25 C 0.18443 0.4715 0.99527 0.0
C26 C 0.19832 0.46947 0.04164 0.0
C27 C 0.2283 0.48837 0.12848 0.0
H28 H 0.34685 0.5173 0.08335 0.0
H29 H 0.31631 0.51699 0.14885 0.0
H30 H 0.28848 0.45404 0.97768 0.0
H31 H 0.25819 0.45322 0.04442 0.0
H32 H 0.30473 0.45178 0.28436 0.0
H33 H 0.27774 0.45409 0.20798 0.0
H34 H 0.32547 0.52656 0.35442 0.0
H35 H 0.29733 0.52797 0.27996 0.0
H36 H 0.14844 0.46752 0.23581 0.0
H37 H 0.17884 0.46521 0.17455 0.0
H38 H 0.20748 0.52796 0.34646 0.0
H39 H 0.23792 0.52596 0.28444 0.0
H40 H 0.19154 0.52845 0.03926 0.0
H41 H 0.21586 0.52476 0.12047 0.0
H42 H 0.17591 0.45648 0.96063 0.0
H43 H 0.20072 0.45326 0.04108 0.0
N44 N 0.24621 0.48515 0.10395 0.0
N45 N 0.2492 0.49469 0.22243 0.0
C46 C 0.69289 0.18892 0.23171 0.0
C47 C 0.69999 0.18011 0.28047 0.0
C48 C 0.70995 0.20224 0.18983 0.0
C49 C 0.73438 0.20693 0.196 0.0
C50 C 0.72441 0.18469 0.28597 0.0
C51 C 0.74138 0.19803 0.24444 0.0
C52 C 0.75372 0.2233 0.15687 0.0
C53 C 0.69859 0.15806 0.02879 0.0
C54 C 0.69011 0.16592 0.98054 0.0
C55 C 0.71808 0.1756 0.06767 0.0
C56 C 0.72923 0.20125 0.05905 0.0
C57 C 0.70112 0.19165 0.97291 0.0
C58 C 0.72053 0.20907 0.01153 0.0
C59 C 0.75167 0.2201 0.09427 0.0
C60 C 0.85859 0.28818 0.04178 0.0
C61 C 0.85602 0.29969 0.99221 0.0
C62 C 0.83793 0.27251 0.07233 0.0
C63 C 0.81436 0.26838 0.05451 0.0
C64 C 0.8322 0.29438 0.97247 0.0
C65 C 0.81153 0.27877 0.00327 0.0
C66 C 0.79295 0.25413 0.09074 0.0
C67 C 0.84451 0.326 0.19091 0.0
C68 C 0.85524 0.32399 0.24422 0.0
C69 C 0.82426 0.30502 0.16209 0.0
C70 C 0.81484 0.28135 0.18465 0.0
C71 C 0.84496 0.30045 0.26821 0.0
C72 C 0.82499 0.27934 0.23861 0.0
C73 C 0.79411 0.25886 0.15258 0.0
H74 H 0.67417 0.18557 0.22602 0.0
H75 H 0.70423 0.20944 0.15371 0.0
H76 H 0.73063 0.17853 0.32334 0.0
H77 H 0.76022 0.20171 0.25064 0.0
H78 H 0.69063 0.13834 0.03554 0.0
H79 H 0.72492 0.16909 0.10312 0.0
H80 H 0.69473 0.19838 0.93704 0.0
H81 H 0.72898 0.22878 0.0039 0.0
H82 H 0.87661 0.29147 0.05728 0.0
H83 H 0.84045 0.2641 0.11084 0.0
H84 H 0.82965 0.30305 0.93453 0.0
H85 H 0.79349 0.27567 0.9885 0.0
H86 H 0.8519 0.34372 0.17087 0.0
H87 H 0.81611 0.30731 0.12175 0.0
H88 H 0.85221 0.29829 0.31009 0.0
H89 H 0.81769 0.26138 0.25751 0.0
N90 N 0.77479 0.24285 0.18342 0.0
N91 N 0.77155 0.23542 0.06378 0.0
C92 C 0.56611 0.71281 0.99757 0.0
C93 C 0.54599 0.69272 0.96503 0.0
C94 C 0.56425 0.73323 0.01962 0.0
C95 C 0.54242 0.73398 0.00839 0.0
C96 C 0.52419 0.69354 0.95354 0.0
C97 C 0.52253 0.71425 0.97452 0.0
C98 C 0.54004 0.75473 0.03538 0.0
C99 C 0.51966 0.69646 0.16276 0.0
C100 C 0.53843 0.70288 0.20715 0.0
C101 C 0.51988 0.71473 0.12855 0.0
C102 C 0.53903 0.73976 0.13746 0.0
C103 C 0.55705 0.72817 0.21771 0.0
C104 C 0.55729 0.74648 0.18319 0.0
C105 C 0.54037 0.75855 0.09735 0.0
C106 C 0.52601 0.84793 0.12148 0.0
C107 C 0.54589 0.86411 0.16159 0.0
C108 C 0.52401 0.82568 0.09794 0.0
C109 C 0.54207 0.81941 0.11327 0.0
C110 C 0.56358 0.8574 0.17808 0.0
C111 C 0.56163 0.83519 0.15421 0.0
C112 C 0.54109 0.79686 0.08529 0.0
C113 C 0.56087 0.85317 0.95069 0.0
C114 C 0.53928 0.84779 0.91726 0.0
C115 C 0.56141 0.83488 0.98358 0.0
C116 C 0.54049 0.81086 0.98282 0.0
C117 C 0.51858 0.82352 0.91534 0.0
C118 C 0.51929 0.80508 0.94738 0.0
C119 C 0.53998 0.7926 0.02318 0.0
H120 H 0.58309 0.7125 0.00656 0.0
H121 H 0.57974 0.74837 0.04584 0.0
H122 H 0.50859 0.67826 0.9279 0.0
H123 H 0.50554 0.71456 0.96582 0.0
H124 H 0.50475 0.67728 0.15447 0.0
H125 H 0.5052 0.70925 0.09456 0.0
H126 H 0.57181 0.7337 0.2515 0.0
H127 H 0.57216 0.76572 0.19091 0.0
H128 H 0.51211 0.85257 0.1078 0.0
H129 H 0.50845 0.81346 0.06739 0.0
H130 H 0.5788 0.86919 0.2099 0.0
H131 H 0.57563 0.83054 0.16687 0.0
H132 H 0.57703 0.87177 0.95297 0.0
H133 H 0.57792 0.83965 0.01085 0.0
H134 H 0.5018 0.81891 0.88947 0.0
H135 H 0.50296 0.78665 0.94657 0.0
N136 N 0.5396 0.7717 1.00018 0.0
N137 N 0.54127 0.77971 0.12038 0.0
C138 C 0.84583 0.53725 0.99388 0.0
C139 C 0.83854 0.51913 0.946 0.0
C140 C 0.82817 0.53793 0.02953 0.0
C141 C 0.80288 0.52027 0.01852 0.0
C142 C 0.81326 0.50152 0.93518 0.0
C143 C 0.79567 0.50212 0.97091 0.0
C144 C 0.78346 0.52184 0.05176 0.0
C145 C 0.82351 0.50682 0.20013 0.0
C146 C 0.83373 0.52543 0.24732 0.0
C147 C 0.8089 0.50817 0.15426 0.0
C148 C 0.80426 0.52817 0.15466 0.0
C149 C 0.82978 0.54591 0.24629 0.0
C150 C 0.81503 0.54715 0.20065 0.0
C151 C 0.78502 0.52723 0.11364 0.0
C152 C 0.68768 0.49926 0.18959 0.0
C153 C 0.68981 0.52104 0.21862 0.0
C154 C 0.70512 0.50085 0.14998 0.0
C155 C 0.72533 0.52415 0.13923 0.0
C156 C 0.70975 0.54446 0.20567 0.0
C157 C 0.72754 0.54594 0.16724 0.0
C158 C 0.74587 0.52528 0.10636 0.0
C159 C 0.69991 0.53343 0.96036 0.0
C160 C 0.69044 0.51419 0.91469 0.0
C161 C 0.71633 0.53449 0.00509 0.0
C162 C 0.72352 0.51631 0.00487 0.0
C163 C 0.697 0.49553 0.91574 0.0
C164 C 0.71355 0.49671 0.96019 0.0
C165 C 0.74416 0.51967 0.04485 0.0
H166 H 0.86515 0.55127 0.00296 0.0
H167 H 0.83427 0.55271 0.06448 0.0
H168 H 0.80704 0.48708 0.89932 0.0
H169 H 0.7763 0.48837 0.96107 0.0
H170 H 0.82586 0.4906 0.19989 0.0
H171 H 0.80016 0.4929 0.12024 0.0
H172 H 0.83775 0.56081 0.28127 0.0
H173 H 0.81146 0.56261 0.20209 0.0
H174 H 0.67308 0.48081 0.19887 0.0
H175 H 0.70345 0.48377 0.12983 0.0
H176 H 0.71188 0.56175 0.22558 0.0
H177 H 0.74322 0.5641 0.15996 0.0
H178 H 0.69493 0.5479 0.96093 0.0
H179 H 0.7243 0.55019 0.03802 0.0
H180 H 0.69007 0.48057 0.88097 0.0
H181 H 0.71913 0.48268 0.95876 0.0
N182 N 0.76301 0.51825 0.02009 0.0
N183 N 0.76618 0.52877 0.13832 0.0
C184 C 0.30288 0.83694 0.99444 0.0
C185 C 0.30745 0.82418 0.94789 0.0
C186 C 0.28583 0.82363 0.03617 0.0
C187 C 0.2736 0.7973 0.03315 0.0
C188 C 0.29503 0.79793 0.9444 0.0
C189 C 0.27839 0.78467 0.98667 0.0
C190 C 0.25411 0.78246 0.07407 0.0
C191 C 0.32096 0.82895 0.20166 0.0
C192 C 0.31766 0.84302 0.24744 0.0
C193 C 0.30095 0.81201 0.16337 0.0
C194 C 0.27739 0.80925 0.16942 0.0
C195 C 0.29421 0.84052 0.25285 0.0
C196 C 0.2743 0.82382 0.21422 0.0
C197 C 0.25526 0.78891 0.1356 0.0
C198 C 0.17779 0.71413 0.26388 0.0
C199 C 0.15343 0.70692 0.24389 0.0
C200 C 0.19788 0.73025 0.23213 0.0
C201 C 0.19392 0.73926 0.17977 0.0
C202 C 0.14967 0.71696 0.19291 0.0
C203 C 0.16975 0.73311 0.16138 0.0
C204 C 0.21482 0.75386 0.14262 0.0
C205 C 0.15766 0.70008 0.98862 0.0
C206 C 0.15373 0.6773 0.00874 0.0
C207 C 0.178 0.72268 0.01117 0.0
C208 C 0.19424 0.72273 0.05512 0.0
C209 C 0.17043 0.67732 0.05142 0.0
C210 C 0.19047 0.69996 0.07492 0.0
C211 C 0.21439 0.74657 0.08272 0.0
H212 H 0.31202 0.85721 0.9976 0.0
H213 H 0.28183 0.83395 0.06979 0.0
H214 H 0.29835 0.78767 0.90917 0.0
H215 H 0.26911 0.76439 0.98274 0.0
H216 H 0.3388 0.8303 0.19697 0.0
H217 H 0.30371 0.8004 0.1307 0.0
H218 H 0.29122 0.85133 0.28735 0.0
H219 H 0.25626 0.82184 0.22022 0.0
H220 H 0.18127 0.7066 0.30284 0.0
H221 H 0.2164 0.73485 0.24714 0.0
H222 H 0.13119 0.71218 0.17713 0.0
H223 H 0.16635 0.74042 0.1219 0.0
H224 H 0.14506 0.70034 0.95516 0.0
H225 H 0.18067 0.74013 0.99565 0.0
H226 H 0.16771 0.65989 0.06717 0.0
H227 H 0.20293 0.69977 0.10889 0.0
N228 N 0.23373 0.76125 0.0504 0.0
N229 N 0.23537 0.77447 0.16716 0.0
C230 C 0.48903 0.16393 0.1084 0.0
C231 C 0.46976 0.14888 0.06576 0.0
C232 C 0.49147 0.18627 0.1329 0.0
C233 C 0.47455 0.19379 0.11549 0.0
C234 C 0.45357 0.15709 0.04658 0.0
C235 C 0.45603 0.17943 0.07105 0.0
C236 C 0.4749 0.21555 0.14622 0.0
C237 C 0.45199 0.15361 0.26413 0.0
C238 C 0.4694 0.15937 0.31169 0.0
C239 C 0.45232 0.1726 0.23255 0.0
C240 C 0.47057 0.19771 0.24645 0.0
C241 C 0.48664 0.18473 0.32787 0.0
C242 C 0.48723 0.20371 0.29548 0.0
C243 C 0.47316 0.21752 0.20811 0.0
C244 C 0.45517 0.3047 0.23384 0.0
C245 C 0.47006 0.31757 0.28523 0.0
C246 C 0.456 0.28432 0.20724 0.0
C247 C 0.47246 0.27709 0.2303 0.0
C248 C 0.48567 0.30966 0.30992 0.0
C249 C 0.48691 0.2896 0.28253 0.0
C250 C 0.47458 0.25649 0.20026 0.0
C251 C 0.49817 0.31843 0.08125 0.0
C252 C 0.48065 0.31239 0.03387 0.0
C253 C 0.4977 0.29959 0.11381 0.0
C254 C 0.47955 0.27443 0.09991 0.0
C255 C 0.46338 0.28705 0.01812 0.0
C256 C 0.46293 0.26823 0.05069 0.0
C257 C 0.47686 0.25472 0.13851 0.0
H258 H 0.50181 0.1581 0.12395 0.0
H259 H 0.5061 0.19732 0.1667 0.0
H260 H 0.4389 0.14617 0.01279 0.0
H261 H 0.44292 0.18504 0.05683 0.0
H262 H 0.4385 0.13439 0.24994 0.0
H263 H 0.43879 0.16756 0.19588 0.0
H264 H 0.49987 0.18997 0.36527 0.0
H265 H 0.50122 0.223 0.30754 0.0
H266 H 0.4426 0.31016 0.21487 0.0
H267 H 0.44386 0.2743 0.16842 0.0
H268 H 0.49719 0.31927 0.34987 0.0
H269 H 0.49947 0.28413 0.30154 0.0
H270 H 0.51168 0.33776 0.0945 0.0
H271 H 0.51099 0.30473 0.15107 0.0
H272 H 0.44999 0.2818 0.98105 0.0
H273 H 0.44895 0.2489 0.03892 0.0
N274 N 0.47655 0.23413 0.1136 0.0
N275 N 0.47319 0.23799 0.23297 0.0
C276 C 0.98944 0.4345 0.77388 0.0
C277 C 0.06027 0.4869 0.70494 0.0
C278 C 0.02919 0.55256 0.71834 0.0
Mg279 Mg 0.00789 0.45259 0.64998 0.0
O280 O -0.00193 0.4757 0.67542 0.0
Mg281 Mg 0.01435 0.49614 0.75149 0.0
Mg282 Mg 0.00505 0.5035 0.62436 0.0
O283 O 0.01236 0.53113 0.57249 0.0
Mg284 Mg 0.00419 0.55562 0.59568 0.0
Mg285 Mg 0.9964 0.51069 0.49606 0.0
C286 C 0.98128 0.45495 0.52952 0.0
C287 C 0.04383 0.50458 0.52814 0.0
O288 O -0.00246 0.45742 0.79296 0.0
O289 O 0.99121 0.42833 0.72011 0.0
O290 O 0.05043 0.49638 0.73804 0.0
O291 O 0.04764 0.4699 0.6639 0.0
O292 O 0.9903 0.44404 0.56021 0.0
O293 O 0.98198 0.47522 0.54861 0.0
C294 C 0.96546 0.5 0.72109 0.0
O295 O 0.97115 0.50369 0.66679 0.0
O296 O 0.9788 0.4965 0.75895 0.0
O297 O 0.01477 0.54925 0.45341 0.0
O298 O 0.02205 0.57909 0.52517 0.0
O299 O 0.96109 0.51242 0.50708 0.0
C300 C 0.0236 0.57238 0.47173 0.0
O301 O 0.96482 0.54013 0.57916 0.0
O302 O 0.02122 0.56394 0.68594 0.0
C303 C 0.95188 0.52313 0.53833 0.0
O304 O 0.02772 0.53181 0.70011 0.0
O305 O 0.03884 0.50301 0.583 0.0
O306 O 0.03077 0.50784 0.48898 0.0
C307 C 0.45826 0.0106 0.80551 0.0
C308 C 0.43399 0.94277 0.69647 0.0
C309 C 0.53158 0.97679 0.6769 0.0
Mg310 Mg 0.45109 0.99707 0.6697 0.0
O311 O 0.48442 0.00631 0.68354 0.0
Mg312 Mg 0.49224 0.98801 0.74326 0.0
Mg313 Mg 0.50303 0.00331 0.61695 0.0
O314 O 0.52167 0.00022 0.55067 0.0
Mg315 Mg 0.555 0.00946 0.56534 0.0
Mg316 Mg 0.5137 0.01811 0.49018 0.0
C317 C 0.47431 0.02989 0.55791 0.0
C318 C 0.46352 0.96625 0.51119 0.0
O319 O 0.47347 0.00232 0.80951 0.0
O320 O 0.44789 0.01076 0.75597 0.0
O321 O 0.45509 0.95158 0.72432 0.0
O322 O 0.42866 0.95666 0.66662 0.0
O323 O 0.45639 0.01907 0.59242 0.0
O324 O 0.49414 0.02847 0.56354 0.0
C325 C 0.54252 0.03991 0.7235 0.0
O326 O 0.53795 0.03654 0.66712 0.0
O327 O 0.52809 0.02428 0.75885 0.0
O328 O 0.5328 0.00382 0.42496 0.0
O329 O 0.55848 0.99575 0.47934 0.0
O330 O 0.55094 0.05475 0.50799 0.0
C331 C 0.54825 0.99585 0.42952 0.0
O332 O 0.57728 0.04985 0.56654 0.0
O333 O 0.54996 0.98778 0.64369 0.0
C334 C 0.57207 0.06359 0.53572 0.0
O335 O 0.51175 0.97804 0.66963 0.0
O336 O 0.4682 0.97007 0.56744 0.0
O337 O 0.47784 0.98154 0.47508 0.0
C338 C 0.53508 0.56901 0.45234 0.0
C339 C 0.56537 0.5222 0.49355 0.0
C340 C 0.47324 0.45317 0.53932 0.0
Mg341 Mg 0.55169 0.55539 0.56942 0.0
O342 O 0.51777 0.53109 0.56209 0.0
Mg343 Mg 0.5054 0.50859 0.48761 0.0
Mg344 Mg 0.50531 0.50544 0.62141 0.0
O345 O 0.49301 0.48003 0.68132 0.0
Mg346 Mg 0.45944 0.45508 0.67445 0.0
Mg347 Mg 0.50455 0.50314 0.75512 0.0
C348 C 0.53732 0.55729 0.70377 0.0
C349 C 0.55285 0.50882 0.69127 0.0
O350 O 0.51899 0.5457 0.43979 0.0
O351 O 0.5492 0.57674 0.5 0.0
O352 O 0.54289 0.51127 0.47288 0.0
O353 O 0.57308 0.53879 0.53697 0.0
O354 O 0.55282 0.56727 0.66337 0.0
O355 O 0.51731 0.53604 0.69459 0.0
C356 C 0.45788 0.50329 0.55413 0.0
O357 O 0.46744 0.50234 0.60398 0.0
O358 O 0.46875 0.50588 0.50579 0.0
O359 O 0.49164 0.46678 0.80499 0.0
O360 O 0.46258 0.43464 0.74503 0.0
O361 O 0.46648 0.49994 0.7677 0.0
C362 C 0.47639 0.44322 0.79313 0.0
O363 O 0.43711 0.47065 0.70476 0.0
O364 O 0.45854 0.44318 0.58116 0.0
C365 C 0.44404 0.48788 0.7464 0.0
O366 O 0.49288 0.47487 0.54707 0.0
O367 O 0.54324 0.50841 0.64014 0.0
O368 O 0.54171 0.50688 0.73898 0.0
H369 H 0.17701 0.50192 0.41766 0.0
H370 H 0.13217 0.4957 0.26217 0.0
H371 H 0.14575 0.50178 0.48072 0.0
H372 H 0.10128 0.49596 0.32463 0.0
H373 H 0.03853 0.472 0.43885 0.0
H374 H 0.0708 0.46918 0.38769 0.0
H375 H 0.12608 0.52564 0.51371 0.0
H376 H 0.09313 0.52762 0.56663 0.0
C377 C 0.16058 0.50075 0.39696 0.0
C378 C 0.15697 0.49861 0.33483 0.0
C379 C 0.14268 0.50068 0.43312 0.0
C380 C 0.12079 0.49852 0.40792 0.0
C381 C 0.11755 0.49694 0.34576 0.0
C382 C 0.13531 0.49687 0.30977 0.0
C383 C 0.05756 0.48347 0.45627 0.0
C384 C 0.06344 0.50019 0.50623 0.0
C385 C 0.07611 0.48207 0.4266 0.0
C386 C 0.10116 0.49772 0.44539 0.0
C387 C 0.10698 0.51337 0.49787 0.0
C388 C 0.08819 0.51451 0.52828 0.0
H389 H 0.66664 0.19082 0.33138 0.0
H390 H 0.69343 0.13853 0.33315 0.0
H391 H 0.638 0.16843 0.40704 0.0
H392 H 0.66485 0.11612 0.40798 0.0
H393 H 0.62206 0.08505 0.56261 0.0
H394 H 0.6549 0.11749 0.50939 0.0
H395 H 0.60084 0.12919 0.41512 0.0
H396 H 0.56823 0.09747 0.46937 0.0
C397 C 0.66632 0.17448 0.34768 0.0
C398 C 0.68229 0.16644 0.3261 0.0
C399 C 0.65 0.16171 0.39127 0.0
C400 C 0.64922 0.14056 0.41417 0.0
C401 C 0.66533 0.13268 0.39268 0.0
C402 C 0.68164 0.14545 0.34935 0.0
C403 C 0.61726 0.09513 0.53207 0.0
C404 C 0.59238 0.08818 0.51937 0.0
C405 C 0.63608 0.11354 0.50092 0.0
C406 C 0.63044 0.12541 0.45653 0.0
C407 C 0.60593 0.12041 0.44867 0.0
C408 C 0.58715 0.10209 0.4799 0.0
H409 H 0.52917 0.6565 0.16586 0.0
H410 H 0.54817 0.70462 0.32635 0.0
H411 H 0.52904 0.62384 0.22244 0.0
H412 H 0.54793 0.67194 0.383 0.0
H413 H 0.56974 0.61881 0.45821 0.0
H414 H 0.57118 0.65075 0.39737 0.0
H415 H 0.50543 0.59469 0.29554 0.0
H416 H 0.50422 0.56245 0.35585 0.0
C417 C 0.53313 0.66002 0.21333 0.0
C418 C 0.53864 0.68314 0.24168 0.0
C419 C 0.53304 0.6413 0.24573 0.0
C420 C 0.53848 0.64526 0.30723 0.0
C421 C 0.54406 0.66842 0.33553 0.0
C422 C 0.54418 0.68715 0.30311 0.0
C423 C 0.55562 0.61318 0.42267 0.0
C424 C 0.53677 0.58801 0.41219 0.0
C425 C 0.55638 0.63158 0.38799 0.0
C426 C 0.53828 0.62535 0.34198 0.0
C427 C 0.51978 0.6001 0.33038 0.0
C428 C 0.51904 0.58162 0.36507 0.0
H429 H 0.8666 0.50844 0.24481 0.0
H430 H 0.83251 0.53693 0.36537 0.0
H431 H 0.88918 0.504 0.32799 0.0
H432 H 0.85573 0.533 0.44881 0.0
H433 H 0.9147 0.48112 0.47965 0.0
H434 H 0.88145 0.47909 0.41652 0.0
H435 H 0.90087 0.55353 0.48475 0.0
H436 H 0.93404 0.55546 0.54866 0.0
C437 C 0.86369 0.5135 0.28908 0.0
C438 C 0.84772 0.52303 0.29828 0.0
C439 C 0.87658 0.51089 0.33683 0.0
C440 C 0.87395 0.51786 0.39498 0.0
C441 C 0.85809 0.52749 0.40444 0.0
C442 C 0.84498 0.52992 0.35658 0.0
C443 C 0.91131 0.4967 0.48275 0.0
C444 C 0.92726 0.51866 0.51808 0.0
C445 C 0.89241 0.49561 0.44629 0.0
C446 C 0.88913 0.51645 0.44446 0.0
C447 C 0.90309 0.53723 0.48505 0.0
C448 C 0.92203 0.5383 0.52184 0.0
H449 H 0.36496 0.87694 0.22391 0.0
H450 H 0.31717 0.84664 0.36809 0.0
H451 H 0.39933 0.90406 0.29428 0.0
H452 H 0.35182 0.87335 0.43917 0.0
H453 H 0.41517 0.94782 0.5373 0.0
H454 H 0.37875 0.91619 0.47634 0.0
H455 H 0.42656 0.90228 0.36565 0.0
H456 H 0.46256 0.93454 0.42463 0.0
C457 C 0.36192 0.87592 0.27079 0.0
C458 C 0.33845 0.85968 0.29053 0.0
C459 C 0.38163 0.89135 0.31128 0.0
C460 C 0.37846 0.89067 0.37262 0.0
C461 C 0.35488 0.8745 0.39234 0.0
C462 C 0.33506 0.85921 0.35167 0.0
C463 C 0.41764 0.93747 0.50075 0.0
C464 C 0.44149 0.94356 0.48515 0.0
C465 C 0.39688 0.91942 0.46572 0.0
C466 C 0.39978 0.90712 0.41513 0.0
C467 C 0.42366 0.91195 0.40298 0.0
C468 C 0.44428 0.93018 0.43715 0.0
H469 H 0.46023 0.32268 0.39901 0.0
H470 H 0.47694 0.35993 0.23617 0.0
H471 H 0.45805 0.35761 0.44781 0.0
H472 H 0.47525 0.39537 0.28564 0.0
H473 H 0.43156 0.40935 0.50278 0.0
H474 H 0.42889 0.3773 0.43126 0.0
H475 H 0.50271 0.42811 0.38051 0.0
H476 H 0.50573 0.46035 0.45292 0.0
C477 C 0.46347 0.33841 0.37384 0.0
C478 C 0.46876 0.33875 0.3141 0.0
C479 C 0.46204 0.35825 0.40148 0.0
C480 C 0.46628 0.37897 0.37013 0.0
C481 C 0.47182 0.37949 0.31045 0.0
C482 C 0.47274 0.35932 0.28234 0.0
C483 C 0.44704 0.41401 0.47542 0.0
C484 C 0.46912 0.4372 0.48462 0.0
C485 C 0.44546 0.39562 0.43453 0.0
C486 C 0.46577 0.40018 0.40151 0.0
C487 C 0.48683 0.42421 0.40573 0.0
C488 C 0.48852 0.44264 0.44714 0.0
H489 H 0.57146 0.87813 0.83955 0.0
H490 H 0.50478 0.86231 0.92489 0.0
H491 H 0.5696 0.91069 0.78704 0.0
H492 H 0.50343 0.89578 0.87503 0.0
H493 H 0.49299 0.93682 0.72292 0.0
H494 H 0.49491 0.90646 0.78389 0.0
H495 H 0.57494 0.95071 0.795 0.0
H496 H 0.57287 0.98027 0.73115 0.0
C497 C 0.55656 0.88189 0.84745 0.0
C498 C 0.53819 0.86768 0.88581 0.0
C499 C 0.55556 0.90072 0.81785 0.0
C500 C 0.53641 0.90611 0.82683 0.0
C501 C 0.51821 0.89197 0.86604 0.0
C502 C 0.51898 0.87283 0.8948 0.0
C503 C 0.51097 0.94022 0.73913 0.0
C504 C 0.53278 0.9608 0.72181 0.0
C505 C 0.51211 0.92281 0.77433 0.0
C506 C 0.53511 0.92582 0.79394 0.0
C507 C 0.5569 0.94729 0.77937 0.0
C508 C 0.55574 0.96442 0.74324 0.0
H509 H 0.64733 0.47439 0.86636 0.0
H510 H 0.69715 0.55335 0.85156 0.0
H511 H 0.6186 0.47493 0.79215 0.0
H512 H 0.66863 0.55388 0.77652 0.0
H513 H 0.5912 0.5485 0.74947 0.0
H514 H 0.62899 0.55086 0.78838 0.0
H515 H 0.60867 0.48076 0.69057 0.0
H516 H 0.57038 0.4785 0.6519 0.0
C517 C 0.65236 0.49173 0.84624 0.0
C518 C 0.67419 0.51393 0.8655 0.0
C519 C 0.63602 0.49202 0.80332 0.0
C520 C 0.64129 0.5145 0.77862 0.0
C521 C 0.66389 0.53636 0.79534 0.0
C522 C 0.68013 0.53609 0.83852 0.0
C523 C 0.59537 0.53414 0.73455 0.0
C524 C 0.57814 0.51335 0.69797 0.0
C525 C 0.61703 0.53547 0.75667 0.0
C526 C 0.62171 0.51583 0.7431 0.0
C527 C 0.60538 0.49601 0.70228 0.0
C528 C 0.58367 0.49481 0.67967 0.0
H529 H 0.10503 0.66251 0.01372 0.0
H530 H 0.15495 0.63922 0.94733 0.0
H531 H 0.07015 0.62623 0.95987 0.0
H532 H 0.12053 0.6037 0.89061 0.0
H533 H 0.05603 0.53998 0.7932 0.0
H534 H 0.08258 0.56508 0.87975 0.0
H535 H 0.0581 0.61872 0.859 0.0
H536 H 0.03107 0.59332 0.77507 0.0
C537 C 0.10837 0.64937 0.98793 0.0
C538 C 0.13249 0.65361 0.9837 0.0
C539 C 0.08851 0.62869 0.95693 0.0
C540 C 0.09255 0.61227 0.91989 0.0
C541 C 0.11661 0.61574 0.91902 0.0
C542 C 0.13639 0.63618 0.95104 0.0
C543 C 0.05585 0.55677 0.80822 0.0
C544 C 0.04176 0.56486 0.77659 0.0
C545 C 0.07121 0.57127 0.85757 0.0
C546 C 0.07279 0.59414 0.87601 0.0
C547 C 0.05727 0.60115 0.84679 0.0
C548 C 0.04189 0.58665 0.79793 0.0
H549 H 0.42665 0.10421 0.04606 0.0
H550 H 0.50562 0.13909 0.02961 0.0
H551 H 0.4209 0.06552 0.99662 0.0
H552 H 0.49991 0.10055 0.9801 0.0
H553 H 0.48627 0.02649 0.9105 0.0
H554 H 0.48705 0.05621 0.98667 0.0
H555 H 0.42485 0.05482 0.89426 0.0
H556 H 0.42372 0.0249 0.81905 0.0
C557 C 0.44277 0.10355 0.03208 0.0
C558 C 0.46655 0.12476 0.04089 0.0
C559 C 0.43949 0.08139 0.00407 0.0
C560 C 0.45992 0.08001 0.98426 0.0
C561 C 0.48381 0.10086 0.99563 0.0
C562 C 0.48709 0.12301 0.02373 0.0
C563 C 0.47231 0.03196 0.90736 0.0
C564 C 0.4552 0.02366 0.85816 0.0
C565 C 0.47289 0.04914 0.95076 0.0
C566 C 0.45629 0.05817 0.94592 0.0
C567 C 0.43785 0.04818 0.89947 0.0
C568 C 0.43731 0.03112 0.85606 0.0
H569 H 0.3231 0.44736 0.96732 0.0
H570 H 0.35805 0.52805 0.98275 0.0
H571 H 0.35191 0.45009 0.89375 0.0
H572 H 0.38694 0.53078 0.9092 0.0
H573 H 0.45196 0.52321 0.83512 0.0
H574 H 0.4216 0.52374 0.89915 0.0
H575 H 0.36292 0.4611 0.7927 0.0
H576 H 0.39339 0.46021 0.72905 0.0
C577 C 0.33681 0.46569 0.95472 0.0
C578 C 0.33826 0.48748 0.98122 0.0
C579 C 0.35328 0.46725 0.91228 0.0
C580 C 0.37168 0.49065 0.89518 0.0
C581 C 0.37317 0.51246 0.92171 0.0
C582 C 0.35667 0.51089 0.96414 0.0
C583 C 0.43256 0.50979 0.8246 0.0
C584 C 0.4252 0.49146 0.77721 0.0
C585 C 0.41509 0.51015 0.86137 0.0
C586 C 0.38982 0.4922 0.85172 0.0
C587 C 0.3823 0.47486 0.80216 0.0
C588 C 0.39977 0.47452 0.76525 0.0
H589 H 0.8621 0.30399 0.87347 0.0
H590 H 0.89995 0.3369 0.0445 0.0
H591 H 0.89747 0.3359 0.82537 0.0
H592 H 0.93567 0.36843 0.99629 0.0
H593 H 0.97468 0.43865 0.88474 0.0
H594 H 0.94463 0.40484 0.94023 0.0
H595 H 0.94094 0.35046 0.80706 0.0
H596 H 0.9707 0.38416 0.75105 0.0
C597 C 0.87806 0.31794 0.90073 0.0
C598 C 0.8782 0.31797 0.96272 0.0
C599 C 0.89844 0.33605 0.8732 0.0
C600 C 0.91941 0.35467 0.90706 0.0
C601 C 0.91974 0.35443 0.96905 0.0
C602 C 0.89938 0.33623 0.99658 0.0
C603 C 0.96786 0.41949 0.86779 0.0
C604 C 0.9749 0.41418 0.81297 0.0
C605 C 0.95065 0.40009 0.89973 0.0
C606 C 0.94014 0.37499 0.87756 0.0
C607 C 0.94833 0.36964 0.82466 0.0
C608 C 0.96552 0.38899 0.79277 0.0
H609 H 0.88319 0.52448 0.98131 0.0
H610 H 0.836 0.51147 0.82491 0.0
H611 H 0.91247 0.51996 0.92048 0.0
H612 H 0.86524 0.50642 0.76395 0.0
H613 H 0.94151 0.52432 0.67949 0.0
H614 H 0.91015 0.53007 0.73017 0.0
H615 H 0.90931 0.48251 0.86464 0.0
H616 H 0.94013 0.47679 0.81483 0.0
C617 C 0.87919 0.52093 0.93387 0.0
C618 C 0.85716 0.51814 0.90809 0.0
C619 C 0.89585 0.51811 0.89904 0.0
C620 C 0.89098 0.51251 0.8375 0.0
C621 C 0.86947 0.51072 0.81121 0.0
C622 C 0.85266 0.51338 0.84622 0.0
C623 C 0.93421 0.51475 0.71916 0.0
C624 C 0.94359 0.50043 0.74356 0.0
C625 C 0.91637 0.51811 0.7483 0.0
C626 C 0.90778 0.50725 0.80221 0.0
C627 C 0.91608 0.49171 0.82418 0.0
C628 C 0.93368 0.48834 0.79531 0.0
H629 H 0.29988 0.81729 0.82733 0.0
H630 H 0.35485 0.86252 0.96753 0.0
H631 H 0.32935 0.84084 0.7534 0.0
H632 H 0.38428 0.88571 0.89401 0.0
H633 H 0.43872 0.90798 0.75648 0.0
H634 H 0.40674 0.8754 0.81091 0.0
H635 H 0.35171 0.88852 0.72745 0.0
H636 H 0.38375 0.92152 0.67317 0.0
C637 C 0.31832 0.83214 0.84219 0.0
C638 C 0.32516 0.83818 0.90304 0.0
C639 C 0.33509 0.84557 0.80001 0.0
C640 C 0.35912 0.86486 0.81805 0.0
C641 C 0.36597 0.87067 0.8789 0.0
C642 C 0.34911 0.8576 0.92094 0.0
C643 C 0.41972 0.90349 0.74818 0.0
C644 C 0.41394 0.91786 0.71153 0.0
C645 C 0.40144 0.8849 0.7797 0.0
C646 C 0.37694 0.87996 0.77446 0.0
C647 C 0.37053 0.89211 0.73252 0.0
C648 C 0.38891 0.91096 0.70128 0.0
H649 H 0.51955 0.35525 0.9971 0.0
H650 H 0.43978 0.31502 1.00025 0.0
H651 H 0.51782 0.38788 0.94412 0.0
H652 H 0.43803 0.34761 0.94756 0.0
H653 H 0.50689 0.45226 0.89212 0.0
H654 H 0.5075 0.42141 0.95458 0.0
H655 H 0.44538 0.36215 0.84854 0.0
H656 H 0.44439 0.39276 0.7871 0.0
C657 C 0.50168 0.3535 0.98694 0.0
C658 C 0.47979 0.33245 0.0023 0.0
C659 C 0.50068 0.37223 0.95681 0.0
C660 C 0.47778 0.37029 0.94151 0.0
C661 C 0.45594 0.34944 0.95785 0.0
C662 C 0.45693 0.33074 0.98786 0.0
C663 C 0.49318 0.43268 0.88259 0.0
C664 C 0.47565 0.42501 0.83442 0.0
C665 C 0.49366 0.415 0.9181 0.0
C666 C 0.47656 0.38934 0.90633 0.0
C667 C 0.45864 0.38179 0.85922 0.0
C668 C 0.45818 0.39939 0.82374 0.0
H669 H 0.15068 0.51171 0.99301 0.0
H670 H 0.18368 0.48079 0.87584 0.0
H671 H 0.12775 0.51495 0.9088 0.0
H672 H 0.16028 0.4837 0.79134 0.0
H673 H 0.08035 0.45657 0.69622 0.0
H674 H 0.11548 0.46183 0.75813 0.0
H675 H 0.13236 0.53652 0.81713 0.0
H676 H 0.097 0.53106 0.75622 0.0
C677 C 0.15336 0.50598 0.94919 0.0
C678 C 0.16887 0.49584 0.94127 0.0
C679 C 0.14028 0.50793 0.9008 0.0
C680 C 0.14238 0.49974 0.84334 0.0
C681 C 0.15824 0.49004 0.83513 0.0
C682 C 0.17146 0.48822 0.88359 0.0
C683 C 0.09221 0.47448 0.72041 0.0
C684 C 0.08571 0.4932 0.72254 0.0
C685 C 0.1123 0.47749 0.75606 0.0
C686 C 0.12616 0.49932 0.79377 0.0
C687 C 0.12155 0.51925 0.78971 0.0
C688 C 0.10145 0.51619 0.7545 0.0
H689 H 0.64761 0.12389 0.00589 0.0
H690 H 0.68653 0.16636 0.85972 0.0
H691 H 0.61308 0.09512 0.93767 0.0
H692 H 0.65139 0.13805 0.79159 0.0
H693 H 0.5902 0.06286 0.68744 0.0
H694 H 0.62745 0.09423 0.74684 0.0
H695 H 0.58126 0.09804 0.88075 0.0
H696 H 0.54458 0.06665 0.82256 0.0
C697 C 0.64887 0.127 0.95916 0.0
C698 C 0.66972 0.14754 0.93839 0.0
C699 C 0.62895 0.1107 0.9201 0.0
C700 C 0.62934 0.11459 0.85933 0.0
C701 C 0.65053 0.1346 0.83812 0.0
C702 C 0.67052 0.15094 0.87727 0.0
C703 C 0.58816 0.07094 0.72889 0.0
C704 C 0.56466 0.06226 0.75084 0.0
C705 C 0.6094 0.08875 0.76301 0.0
C706 C 0.60726 0.09809 0.81921 0.0
C707 C 0.58357 0.09064 0.83861 0.0
C708 C 0.56256 0.07285 0.80502 0.0
H709 H 0.57869 0.69369 0.88806 0.0
H710 H 0.51777 0.64387 0.98846 0.0
H711 H 0.57909 0.6581 0.83875 0.0
H712 H 0.51899 0.60795 0.9423 0.0
H713 H 0.50208 0.55442 0.77565 0.0
H714 H 0.50675 0.58559 0.8516 0.0
H715 H 0.58616 0.62481 0.83663 0.0
H716 H 0.58108 0.59422 0.75732 0.0
C717 C 0.56581 0.67502 0.90051 0.0
C718 C 0.548 0.6713 0.94114 0.0
C719 C 0.56615 0.65456 0.87283 0.0
C720 C 0.54896 0.62995 0.88614 0.0
C721 C 0.53212 0.62651 0.92981 0.0
C722 C 0.53144 0.647 0.95648 0.0
C723 C 0.5206 0.56937 0.78955 0.0
C724 C 0.54117 0.57226 0.75973 0.0
C725 C 0.52335 0.58729 0.83355 0.0
C726 C 0.54682 0.60821 0.84954 0.0
C727 C 0.5677 0.60949 0.82401 0.0
C728 C 0.56486 0.59186 0.77894 0.0
H729 H 0.42992 0.11419 0.33685 0.0
H730 H 0.50982 0.15803 0.35815 0.0
H731 H 0.43064 0.08065 0.38635 0.0
H732 H 0.51036 0.12534 0.41239 0.0
H733 H 0.50679 0.05533 0.47313 0.0
H734 H 0.50502 0.08473 0.4079 0.0
H735 H 0.43659 0.07134 0.48125 0.0
H736 H 0.43769 0.04127 0.54356 0.0
C737 C 0.44768 0.11675 0.35201 0.0
C738 C 0.46981 0.13899 0.34347 0.0
C739 C 0.44807 0.09757 0.3813 0.0
C740 C 0.47055 0.10025 0.40396 0.0
C741 C 0.4927 0.12239 0.39502 0.0
C742 C 0.49235 0.14143 0.36484 0.0
C743 C 0.49115 0.05833 0.47447 0.0
C744 C 0.4724 0.04587 0.51368 0.0
C745 C 0.49025 0.07541 0.43749 0.0
C746 C 0.47072 0.08061 0.43937 0.0
C747 C 0.45171 0.0676 0.47755 0.0
C748 C 0.45244 0.05037 0.5138 0.0
H749 H 0.32607 0.50834 0.44178 0.0
H750 H 0.34565 0.46668 0.3171 0.0
H751 H 0.35609 0.50964 0.5155 0.0
H752 H 0.37441 0.46691 0.39183 0.0
H753 H 0.41567 0.45892 0.54075 0.0
H754 H 0.37614 0.4521 0.49783 0.0
H755 H 0.40501 0.532 0.50977 0.0
H756 H 0.44459 0.53869 0.55178 0.0
C757 C 0.33657 0.49931 0.43008 0.0
C758 C 0.3336 0.48766 0.37302 0.0
C759 C 0.35348 0.49982 0.47262 0.0
C760 C 0.3673 0.48819 0.45937 0.0
C761 C 0.36358 0.4756 0.40348 0.0
C762 C 0.34706 0.47548 0.36064 0.0
C763 C 0.41304 0.47486 0.53668 0.0
C764 C 0.4328 0.49927 0.54973 0.0
C765 C 0.3906 0.471 0.51184 0.0
C766 C 0.38772 0.49155 0.5002 0.0
C767 C 0.40673 0.51587 0.51887 0.0
C768 C 0.4293 0.51972 0.54296 0.0
H769 H 0.86519 0.37276 0.25182 0.0
H770 H 0.8946 0.32608 0.30602 0.0
H771 H 0.8999 0.40886 0.305 0.0
H772 H 0.92782 0.36149 0.36372 0.0
H773 H 0.99155 0.42732 0.45053 0.0
H774 H 0.9644 0.39941 0.36798 0.0
H775 H 0.91239 0.42486 0.40219 0.0
H776 H 0.94041 0.45386 0.48164 0.0
C777 C 0.87909 0.37016 0.27473 0.0
C778 C 0.87688 0.34635 0.275 0.0
C779 C 0.89888 0.39087 0.30599 0.0
C780 C 0.91669 0.38822 0.33922 0.0
C781 C 0.9148 0.36452 0.33805 0.0
C782 C 0.89532 0.34396 0.3059 0.0
C783 C 0.97459 0.42733 0.43909 0.0
C784 C 0.96781 0.44236 0.47275 0.0
C785 C 0.95889 0.41119 0.39224 0.0
C786 C 0.93578 0.40924 0.37936 0.0
C787 C 0.93001 0.42582 0.41033 0.0
C788 C 0.94604 0.44243 0.45619 0.0
H789 H 0.58751 0.91026 0.18222 0.0
H790 H 0.50843 0.87072 0.2005 0.0
H791 H 0.59089 0.94745 0.23454 0.0
H792 H 0.51179 0.90782 0.25194 0.0
H793 H 0.52093 0.97984 0.32364 0.0
H794 H 0.52242 0.952 0.2458 0.0
H795 H 0.58554 0.95569 0.33931 0.0
H796 H 0.58434 0.98369 0.41649 0.0
C797 C 0.57085 0.90956 0.19704 0.0
C798 C 0.54774 0.88747 0.18783 0.0
C799 C 0.57278 0.93088 0.22662 0.0
C800 C 0.55162 0.93053 0.24731 0.0
C801 C 0.52839 0.90882 0.23563 0.0
C802 C 0.52647 0.88751 0.20629 0.0
C803 C 0.53554 0.97526 0.32679 0.0
C804 C 0.55225 0.98361 0.37676 0.0
C805 C 0.53628 0.9592 0.28238 0.0
C806 C 0.55386 0.95141 0.28695 0.0
C807 C 0.57184 0.96145 0.33438 0.0
C808 C 0.57102 0.97736 0.37888 0.0
H809 H 0.64039 0.4853 0.22138 0.0
H810 H 0.69788 0.55251 0.31802 0.0
H811 H 0.61152 0.48184 0.29403 0.0
H812 H 0.66814 0.55069 0.38678 0.0
H813 H 0.61367 0.53598 0.52675 0.0
H814 H 0.64377 0.53314 0.46497 0.0
H815 H 0.58761 0.4981 0.32089 0.0
H816 H 0.55766 0.49937 0.38329 0.0
C817 C 0.64702 0.49944 0.25794 0.0
C818 C 0.67172 0.51927 0.26298 0.0
C819 C 0.63016 0.4977 0.2994 0.0
C820 C 0.63715 0.51616 0.34643 0.0
C821 C 0.66191 0.53588 0.35188 0.0
C822 C 0.67896 0.53725 0.31124 0.0
C823 C 0.60775 0.52722 0.48223 0.0
C824 C 0.58324 0.51793 0.46014 0.0
C825 C 0.62508 0.52583 0.44639 0.0
C826 C 0.61841 0.51556 0.38725 0.0
C827 C 0.59363 0.50567 0.36621 0.0
C828 C 0.57631 0.50656 0.40223 0.0
H829 H 0.14821 0.70413 0.36314 0.0
H830 H 0.11034 0.66734 0.19435 0.0
H831 H 0.11413 0.67188 0.41383 0.0
H832 H 0.07582 0.6355 0.24512 0.0
H833 H 0.03908 0.56726 0.36246 0.0
H834 H 0.06848 0.60062 0.30477 0.0
H835 H 0.0707 0.65592 0.43281 0.0
H836 H 0.04168 0.62271 0.49102 0.0
C837 C 0.13252 0.68923 0.3369 0.0
C838 C 0.132 0.68824 0.2748 0.0
C839 C 0.11286 0.67092 0.3659 0.0
C840 C 0.09223 0.65116 0.33346 0.0
C841 C 0.09152 0.65038 0.27133 0.0
C842 C 0.11118 0.66876 0.2423 0.0
C843 C 0.0455 0.58651 0.37784 0.0
C844 C 0.03823 0.59227 0.43179 0.0
C845 C 0.06232 0.60565 0.34466 0.0
C846 C 0.07217 0.63092 0.36467 0.0
C847 C 0.06384 0.63664 0.41687 0.0
C848 C 0.04708 0.61756 0.45004 0.0
loop_
_geom_bond_atom_site_label_1
_geom_bond_atom_site_label_2
_geom_bond_distance
_geom_bond_site_symmetry_2
_ccdc_geom_bond_type
C0 C1 1.384 . S
C0 C2 1.384 . S
C0 H28 0.931 . S
C1 C0 1.384 . S
C1 C4 1.382 . S
C2 C0 1.384 . S
C2 C3 1.381 . S
C2 H29 0.930 . S
C3 C2 1.381 . S
C3 C5 1.381 . S
C3 C6 1.487 . S
C4 C1 1.382 . S
C4 C5 1.387 . S
C4 H30 0.930 1_554 S
C5 C3 1.381 . S
C5 C4 1.387 . S
C5 H31 0.931 . S
C6 C3 1.487 . S
C6 C13 1.399 . S
C6 N44 1.343 . S
C7 C8 1.384 . S
C7 C9 1.384 . S
C7 H32 0.931 . S
C8 C7 1.384 . S
C8 C11 1.382 . S
C9 C7 1.384 . S
C9 C10 1.381 . S
C9 H33 0.930 . S
C10 C9 1.381 . S
C10 C12 1.381 . S
C10 C13 1.487 . S
C11 C8 1.382 . S
C11 C12 1.387 . S
C11 H34 0.930 . S
C12 C10 1.381 . S
C12 C11 1.387 . S
C12 H35 0.931 . S
C13 C6 1.399 . S
C13 C10 1.487 . S
C13 N45 1.343 . S
C14 C15 1.384 . S
C14 C16 1.384 . S
C14 H36 0.931 . S
C15 C14 1.384 . S
C15 C18 1.382 . S
C16 C14 1.384 . S
C16 C17 1.381 . S
C16 H37 0.930 . S
C17 C16 1.381 . S
C17 C19 1.381 . S
C17 C20 1.487 . S
C18 C15 1.382 . S
C18 C19 1.387 . S
C18 H38 0.930 . S
C19 C17 1.381 . S
C19 C18 1.387 . S
C19 H39 0.931 . S
C20 C17 1.487 . S
C20 C27 1.399 . S
C20 N45 1.343 . S
C21 C22 1.384 . S
C21 C23 1.384 . S
C21 H40 0.931 . S
C22 C21 1.384 . S
C22 C25 1.382 . S
C23 C21 1.384 . S
C23 C24 1.381 . S
C23 H41 0.930 . S
C24 C23 1.381 . S
C24 C26 1.381 . S
C24 C27 1.487 . S
C25 C22 1.382 . S
C25 C26 1.387 . S
C25 H42 0.930 1_554 S
C26 C24 1.381 . S
C26 C25 1.387 . S
C26 H43 0.931 . S
C27 C20 1.399 . S
C27 C24 1.487 . S
C27 N44 1.343 . S
H28 C0 0.931 . S
H29 C2 0.930 . S
H30 C4 0.930 1_556 S
H31 C5 0.931 . S
H32 C7 0.931 . S
H33 C9 0.930 . S
H34 C11 0.930 . S
H35 C12 0.931 . S
H36 C14 0.931 . S
H37 C16 0.930 . S
H38 C18 0.930 . S
H39 C19 0.931 . S
H40 C21 0.931 . S
H41 C23 0.930 . S
H42 C25 0.930 1_556 S
H43 C26 0.931 . S
N44 C6 1.343 . S
N44 C27 1.343 . S
N45 C13 1.343 . S
N45 C20 1.343 . S
C46 C47 1.384 . S
C46 C48 1.384 . S
C46 H74 0.931 . S
C47 C46 1.384 . S
C47 C50 1.382 . S
C48 C46 1.384 . S
C48 C49 1.381 . S
C48 H75 0.930 . S
C49 C48 1.381 . S
C49 C51 1.381 . S
C49 C52 1.487 . S
C50 C47 1.382 . S
C50 C51 1.387 . S
C50 H76 0.930 . S
C51 C49 1.381 . S
C51 C50 1.387 . S
C51 H77 0.931 . S
C52 C49 1.487 . S
C52 C59 1.399 . S
C52 N90 1.343 . S
C53 C54 1.384 1_554 S
C53 C55 1.384 . S
C53 H78 0.931 . S
C54 C53 1.384 1_556 S
C54 C57 1.382 . S
C55 C53 1.384 . S
C55 C56 1.381 . S
C55 H79 0.930 . S
C56 C55 1.381 . S
C56 C58 1.381 . S
C56 C59 1.487 . S
C57 C54 1.382 . S
C57 C58 1.387 1_556 S
C57 H80 0.930 . S
C58 C56 1.381 . S
C58 C57 1.387 1_554 S
C58 H81 0.931 . S
C59 C52 1.399 . S
C59 C56 1.487 . S
C59 N91 1.343 . S
C60 C61 1.384 . S
C60 C62 1.384 . S
C60 H82 0.931 . S
C61 C60 1.384 . S
C61 C64 1.382 1_554 S
C62 C60 1.384 . S
C62 C63 1.381 . S
C62 H83 0.930 . S
C63 C62 1.381 . S
C63 C65 1.381 . S
C63 C66 1.487 . S
C64 C61 1.382 1_556 S
C64 C65 1.387 1_556 S
C64 H84 0.930 . S
C65 C63 1.381 . S
C65 C64 1.387 1_554 S
C65 H85 0.931 . S
C66 C63 1.487 . S
C66 C73 1.399 . S
C66 N91 1.343 . S
C67 C68 1.384 . S
C67 C69 1.384 . S
C67 H86 0.931 . S
C68 C67 1.384 . S
C68 C71 1.382 . S
C69 C67 1.384 . S
C69 C70 1.381 . S
C69 H87 0.930 . S
C70 C69 1.381 . S
C70 C72 1.381 . S
C70 C73 1.487 . S
C71 C68 1.382 . S
C71 C72 1.387 . S
C71 H88 0.930 . S
C72 C70 1.381 . S
C72 C71 1.387 . S
C72 H89 0.931 . S
C73 C66 1.399 . S
C73 C70 1.487 . S
C73 N90 1.343 . S
H74 C46 0.931 . S
H75 C48 0.930 . S
H76 C50 0.930 . S
H77 C51 0.931 . S
H78 C53 0.931 . S
H79 C55 0.930 . S
H80 C57 0.930 . S
H81 C58 0.931 . S
H82 C60 0.931 . S
H83 C62 0.930 . S
H84 C64 0.930 . S
H85 C65 0.931 . S
H86 C67 0.931 . S
H87 C69 0.930 . S
H88 C71 0.930 . S
H89 C72 0.931 . S
N90 C52 1.343 . S
N90 C73 1.343 . S
N91 C59 1.343 . S
N91 C66 1.343 . S
C92 C93 1.384 . S
C92 C94 1.384 . S
C92 H120 0.931 . S
C93 C92 1.384 . S
C93 C96 1.382 . S
C94 C92 1.384 . S
C94 C95 1.381 . S
C94 H121 0.930 . S
C95 C94 1.381 . S
C95 C97 1.381 . S
C95 C98 1.487 . S
C96 C93 1.382 . S
C96 C97 1.387 . S
C96 H122 0.930 . S
C97 C95 1.381 . S
C97 C96 1.387 . S
C97 H123 0.931 . S
C98 C95 1.487 . S
C98 C105 1.399 1_556 S
C98 N136 1.343 . S
C99 C100 1.384 . S
C99 C101 1.384 . S
C99 H124 0.931 . S
C100 C99 1.384 . S
C100 C103 1.382 . S
C101 C99 1.384 . S
C101 C102 1.381 . S
C101 H125 0.930 . S
C102 C101 1.381 . S
C102 C104 1.381 . S
C102 C105 1.487 . S
C103 C100 1.382 . S
C103 C104 1.387 . S
C103 H126 0.930 . S
C104 C102 1.381 . S
C104 C103 1.387 . S
C104 H127 0.931 . S
C105 C98 1.399 1_554 S
C105 C102 1.487 . S
C105 N137 1.343 . S
C106 C107 1.384 . S
C106 C108 1.384 . S
C106 H128 0.931 . S
C107 C106 1.384 . S
C107 C110 1.382 . S
C108 C106 1.384 . S
C108 C109 1.381 . S
C108 H129 0.930 . S
C109 C108 1.381 . S
C109 C111 1.381 . S
C109 C112 1.487 . S
C110 C107 1.382 . S
C110 C111 1.387 . S
C110 H130 0.930 . S
C111 C109 1.381 . S
C111 C110 1.387 . S
C111 H131 0.931 . S
C112 C109 1.487 . S
C112 C119 1.399 1_554 S
C112 N137 1.343 . S
C113 C114 1.384 . S
C113 C115 1.384 . S
C113 H132 0.931 . S
C114 C113 1.384 . S
C114 C117 1.382 . S
C115 C113 1.384 . S
C115 C116 1.381 . S
C115 H133 0.930 1_556 S
C116 C115 1.381 . S
C116 C118 1.381 . S
C116 C119 1.487 . S
C117 C114 1.382 . S
C117 C118 1.387 . S
C117 H134 0.930 . S
C118 C116 1.381 . S
C118 C117 1.387 . S
C118 H135 0.931 . S
C119 C112 1.399 1_556 S
C119 C116 1.487 . S
C119 N136 1.343 . S
H120 C92 0.931 . S
H121 C94 0.930 . S
H122 C96 0.930 . S
H123 C97 0.931 . S
H124 C99 0.931 . S
H125 C101 0.930 . S
H126 C103 0.930 . S
H127 C104 0.931 . S
H128 C106 0.931 . S
H129 C108 0.930 . S
H130 C110 0.930 . S
H131 C111 0.931 . S
H132 C113 0.931 . S
H133 C115 0.930 1_554 S
H134 C117 0.930 . S
H135 C118 0.931 . S
N136 C98 1.343 . S
N136 C119 1.343 . S
N137 C105 1.343 . S
N137 C112 1.343 . S
C138 C139 1.384 . S
C138 C140 1.384 1_556 S
C138 H166 0.931 . S
C139 C138 1.384 . S
C139 C142 1.382 . S
C140 C138 1.384 1_554 S
C140 C141 1.381 . S
C140 H167 0.930 . S
C141 C140 1.381 . S
C141 C143 1.381 1_554 S
C141 C144 1.487 . S
C142 C139 1.382 . S
C142 C143 1.387 . S
C142 H168 0.930 . S
C143 C141 1.381 1_556 S
C143 C142 1.387 . S
C143 H169 0.931 . S
C144 C141 1.487 . S
C144 C151 1.399 . S
C144 N182 1.343 . S
C145 C146 1.384 . S
C145 C147 1.384 . S
C145 H170 0.931 . S
C146 C145 1.384 . S
C146 C149 1.382 . S
C147 C145 1.384 . S
C147 C148 1.381 . S
C147 H171 0.930 . S
C148 C147 1.381 . S
C148 C150 1.381 . S
C148 C151 1.487 . S
C149 C146 1.382 . S
C149 C150 1.387 . S
C149 H172 0.930 . S
C150 C148 1.381 . S
C150 C149 1.387 . S
C150 H173 0.931 . S
C151 C144 1.399 . S
C151 C148 1.487 . S
C151 N183 1.343 . S
C152 C153 1.384 . S
C152 C154 1.384 . S
C152 H174 0.931 . S
C153 C152 1.384 . S
C153 C156 1.382 . S
C154 C152 1.384 . S
C154 C155 1.381 . S
C154 H175 0.930 . S
C155 C154 1.381 . S
C155 C157 1.381 . S
C155 C158 1.487 . S
C156 C153 1.382 . S
C156 C157 1.387 . S
C156 H176 0.930 . S
C157 C155 1.381 . S
C157 C156 1.387 . S
C157 H177 0.931 . S
C158 C155 1.487 . S
C158 C165 1.399 . S
C158 N183 1.343 . S
C159 C160 1.384 . S
C159 C161 1.384 1_556 S
C159 H178 0.931 . S
C160 C159 1.384 . S
C160 C163 1.382 . S
C161 C159 1.384 1_554 S
C161 C162 1.381 1_554 S
C161 H179 0.930 . S
C162 C161 1.381 1_556 S
C162 C164 1.381 . S
C162 C165 1.487 1_556 S
C163 C160 1.382 . S
C163 C164 1.387 . S
C163 H180 0.930 . S
C164 C162 1.381 . S
C164 C163 1.387 . S
C164 H181 0.931 . S
C165 C158 1.399 . S
C165 C162 1.487 1_554 S
C165 N182 1.343 . S
H166 C138 0.931 . S
H167 C140 0.930 . S
H168 C142 0.930 . S
H169 C143 0.931 . S
H170 C145 0.931 . S
H171 C147 0.930 . S
H172 C149 0.930 . S
H173 C150 0.931 . S
H174 C152 0.931 . S
H175 C154 0.930 . S
H176 C156 0.930 . S
H177 C157 0.931 . S
H178 C159 0.931 . S
H179 C161 0.930 . S
H180 C163 0.930 . S
H181 C164 0.931 . S
N182 C144 1.343 . S
N182 C165 1.343 . S
N183 C151 1.343 . S
N183 C158 1.343 . S
C184 C185 1.384 1_554 S
C184 C186 1.384 . S
C184 H212 0.931 . S
C185 C184 1.384 1_556 S
C185 C188 1.382 . S
C186 C184 1.384 . S
C186 C187 1.381 . S
C186 H213 0.930 . S
C187 C186 1.381 . S
C187 C189 1.381 1_554 S
C187 C190 1.487 . S
C188 C185 1.382 . S
C188 C189 1.387 . S
C188 H214 0.930 . S
C189 C187 1.381 1_556 S
C189 C188 1.387 . S
C189 H215 0.931 . S
C190 C187 1.487 . S
C190 C197 1.399 . S
C190 N228 1.343 . S
C191 C192 1.384 . S
C191 C193 1.384 . S
C191 H216 0.931 . S
C192 C191 1.384 . S
C192 C195 1.382 . S
C193 C191 1.384 . S
C193 C194 1.381 . S
C193 H217 0.930 . S
C194 C193 1.381 . S
C194 C196 1.381 . S
C194 C197 1.487 . S
C195 C192 1.382 . S
C195 C196 1.387 . S
C195 H218 0.930 . S
C196 C194 1.381 . S
C196 C195 1.387 . S
C196 H219 0.931 . S
C197 C190 1.399 . S
C197 C194 1.487 . S
C197 N229 1.343 . S
C198 C199 1.384 . S
C198 C200 1.384 . S
C198 H220 0.931 . S
C199 C198 1.384 . S
C199 C202 1.382 . S
C200 C198 1.384 . S
C200 C201 1.381 . S
C200 H221 0.930 . S
C201 C200 1.381 . S
C201 C203 1.381 . S
C201 C204 1.487 . S
C202 C199 1.382 . S
C202 C203 1.387 . S
C202 H222 0.930 . S
C203 C201 1.381 . S
C203 C202 1.387 . S
C203 H223 0.931 . S
C204 C201 1.487 . S
C204 C211 1.399 . S
C204 N229 1.343 . S
C205 C206 1.384 . S
C205 C207 1.384 1_556 S
C205 H224 0.931 . S
C206 C205 1.384 . S
C206 C209 1.382 . S
C207 C205 1.384 1_554 S
C207 C208 1.381 . S
C207 H225 0.930 . S
C208 C207 1.381 . S
C208 C210 1.381 1_554 S
C208 C211 1.487 . S
C209 C206 1.382 . S
C209 C210 1.387 . S
C209 H226 0.930 . S
C210 C208 1.381 1_556 S
C210 C209 1.387 . S
C210 H227 0.931 . S
C211 C204 1.399 . S
C211 C208 1.487 . S
C211 N228 1.343 . S
H212 C184 0.931 . S
H213 C186 0.930 . S
H214 C188 0.930 . S
H215 C189 0.931 . S
H216 C191 0.931 . S
H217 C193 0.930 . S
H218 C195 0.930 . S
H219 C196 0.931 . S
H220 C198 0.931 . S
H221 C200 0.930 . S
H222 C202 0.930 . S
H223 C203 0.931 . S
H224 C205 0.931 . S
H225 C207 0.930 . S
H226 C209 0.930 . S
H227 C210 0.931 . S
N228 C190 1.343 . S
N228 C211 1.343 . S
N229 C197 1.343 . S
N229 C204 1.343 . S
C230 C231 1.384 . S
C230 C232 1.384 . S
C230 H258 0.931 . S
C231 C230 1.384 . S
C231 C234 1.382 . S
C232 C230 1.384 . S
C232 C233 1.381 . S
C232 H259 0.930 . S
C233 C232 1.381 . S
C233 C235 1.381 . S
C233 C236 1.487 . S
C234 C231 1.382 . S
C234 C235 1.387 . S
C234 H260 0.930 . S
C235 C233 1.381 . S
C235 C234 1.387 . S
C235 H261 0.931 . S
C236 C233 1.487 . S
C236 C243 1.399 . S
C236 N274 1.343 . S
C237 C238 1.384 . S
C237 C239 1.384 . S
C237 H262 0.931 . S
C238 C237 1.384 . S
C238 C241 1.382 . S
C239 C237 1.384 . S
C239 C240 1.381 . S
C239 H263 0.930 . S
C240 C239 1.381 . S
C240 C242 1.381 . S
C240 C243 1.487 . S
C241 C238 1.382 . S
C241 C242 1.387 . S
C241 H264 0.930 . S
C242 C240 1.381 . S
C242 C241 1.387 . S
C242 H265 0.931 . S
C243 C236 1.399 . S
C243 C240 1.487 . S
C243 N275 1.343 . S
C244 C245 1.384 . S
C244 C246 1.384 . S
C244 H266 0.931 . S
C245 C244 1.384 . S
C245 C248 1.382 . S
C246 C244 1.384 . S
C246 C247 1.381 . S
C246 H267 0.930 . S
C247 C246 1.381 . S
C247 C249 1.381 . S
C247 C250 1.487 . S
C248 C245 1.382 . S
C248 C249 1.387 . S
C248 H268 0.930 . S
C249 C247 1.381 . S
C249 C248 1.387 . S
C249 H269 0.931 . S
C250 C247 1.487 . S
C250 C257 1.399 . S
C250 N275 1.343 . S
C251 C252 1.384 . S
C251 C253 1.384 . S
C251 H270 0.931 . S
C252 C251 1.384 . S
C252 C255 1.382 . S
C253 C251 1.384 . S
C253 C254 1.381 . S
C253 H271 0.930 . S
C254 C253 1.381 . S
C254 C256 1.381 . S
C254 C257 1.487 . S
C255 C252 1.382 . S
C255 C256 1.387 . S
C255 H272 0.930 . S
C256 C254 1.381 . S
C256 C255 1.387 . S
C256 H273 0.931 . S
C257 C250 1.399 . S
C257 C254 1.487 . S
C257 N274 1.343 . S
H258 C230 0.931 . S
H259 C232 0.930 . S
H260 C234 0.930 . S
H261 C235 0.931 . S
H262 C237 0.931 . S
H263 C239 0.930 . S
H264 C241 0.930 . S
H265 C242 0.931 . S
H266 C244 0.931 . S
H267 C246 0.930 . S
H268 C248 0.930 . S
H269 C249 0.931 . S
H270 C251 0.931 . S
H271 C253 0.930 . S
H272 C255 0.930 . S
H273 C256 0.931 . S
N274 C236 1.343 . S
N274 C257 1.343 . S
N275 C243 1.343 . S
N275 C250 1.343 . S
C276 O288 1.241 . S
C276 O289 1.280 . S
C277 O290 1.277 . S
C277 O291 1.245 . S
C278 O302 1.247 . S
C278 O304 1.289 . S
Mg279 O280 1.917 . S
Mg279 O289 1.984 . S
Mg279 O291 1.988 1_655 S
Mg279 O292 2.061 . S
O280 Mg279 1.917 . S
O280 Mg281 1.988 1_655 S
O280 Mg282 1.919 1_655 S
Mg281 O280 1.988 1_455 S
Mg281 O288 2.042 1_455 S
Mg281 O290 2.041 . S
Mg281 O296 2.038 1_455 S
Mg281 O304 2.238 . S
Mg282 O280 1.919 1_455 S
Mg282 O283 1.917 . S
Mg282 O293 2.106 1_455 S
Mg282 O295 2.079 1_455 S
Mg282 O304 2.106 . S
Mg282 O305 2.079 . S
O283 Mg282 1.917 . S
O283 Mg284 1.926 . S
O283 Mg285 1.986 . S
Mg284 O283 1.926 . S
Mg284 O298 1.984 . S
Mg284 O301 1.988 1_455 S
Mg284 O302 2.061 . S
Mg285 O283 1.986 . S
Mg285 O293 2.238 1_455 S
Mg285 O297 2.042 . S
Mg285 O299 2.041 1_455 S
Mg285 O306 2.038 . S
C286 O292 1.247 . S
C286 O293 1.289 . S
C287 O305 1.245 . S
C287 O306 1.274 . S
O288 C276 1.241 . S
O288 Mg281 2.042 1_655 S
O289 C276 1.280 . S
O289 Mg279 1.984 . S
O290 C277 1.277 . S
O290 Mg281 2.041 . S
O291 C277 1.245 . S
O291 Mg279 1.988 1_455 S
O292 Mg279 2.061 . S
O292 C286 1.247 . S
O293 Mg282 2.106 1_655 S
O293 Mg285 2.238 1_655 S
O293 C286 1.289 . S
C294 O295 1.245 . S
C294 O296 1.274 . S
O295 Mg282 2.079 1_655 S
O295 C294 1.245 . S
O296 Mg281 2.038 1_655 S
O296 C294 1.274 . S
O297 Mg285 2.042 . S
O297 C300 1.241 . S
O298 Mg284 1.984 . S
O298 C300 1.280 . S
O299 Mg285 2.041 1_655 S
O299 C303 1.277 . S
C300 O297 1.241 . S
C300 O298 1.280 . S
O301 Mg284 1.988 1_655 S
O301 C303 1.245 . S
O302 C278 1.247 . S
O302 Mg284 2.061 . S
C303 O299 1.277 . S
C303 O301 1.245 . S
O304 C278 1.289 . S
O304 Mg281 2.238 . S
O304 Mg282 2.106 . S
O305 Mg282 2.079 . S
O305 C287 1.245 . S
O306 Mg285 2.038 . S
O306 C287 1.274 . S
C307 O319 1.241 . S
C307 O320 1.280 . S
C308 O321 1.277 . S
C308 O322 1.245 . S
C309 O333 1.247 . S
C309 O335 1.289 . S
Mg310 O311 1.926 . S
Mg310 O320 1.984 . S
Mg310 O322 1.988 1_545 S
Mg310 O323 2.061 . S
O311 Mg310 1.926 . S
O311 Mg312 1.986 . S
O311 Mg313 1.917 . S
Mg312 O311 1.986 . S
Mg312 O319 2.042 . S
Mg312 O321 2.041 1_545 S
Mg312 O327 2.038 . S
Mg312 O335 2.238 1_545 S
Mg313 O311 1.917 . S
Mg313 O314 1.917 1_545 S
Mg313 O324 2.106 . S
Mg313 O326 2.079 . S
Mg313 O335 2.106 1_545 S
Mg313 O336 2.079 1_545 S
O314 Mg313 1.917 1_565 S
O314 Mg315 1.926 . S
O314 Mg316 1.986 1_565 S
Mg315 O314 1.926 . S
Mg315 O329 1.984 . S
Mg315 O332 1.988 1_565 S
Mg315 O333 2.061 . S
Mg316 O314 1.986 1_545 S
Mg316 O324 2.238 . S
Mg316 O328 2.042 1_545 S
Mg316 O330 2.041 . S
Mg316 O337 2.038 1_545 S
C317 O323 1.247 . S
C317 O324 1.289 . S
C318 O336 1.245 . S
C318 O337 1.274 . S
O319 C307 1.241 . S
O319 Mg312 2.042 . S
O320 C307 1.280 . S
O320 Mg310 1.984 . S
O321 C308 1.277 . S
O321 Mg312 2.041 1_565 S
O322 C308 1.245 . S
O322 Mg310 1.988 1_565 S
O323 Mg310 2.061 . S
O323 C317 1.247 . S
O324 Mg313 2.106 . S
O324 Mg316 2.238 . S
O324 C317 1.289 . S
C325 O326 1.245 . S
C325 O327 1.274 . S
O326 Mg313 2.079 . S
O326 C325 1.245 . S
O327 Mg312 2.038 . S
O327 C325 1.274 . S
O328 Mg316 2.042 1_565 S
O328 C331 1.241 . S
O329 Mg315 1.984 . S
O329 C331 1.280 . S
O330 Mg316 2.041 . S
O330 C334 1.277 . S
C331 O328 1.241 . S
C331 O329 1.280 . S
O332 Mg315 1.988 1_545 S
O332 C334 1.245 . S
O333 C309 1.247 . S
O333 Mg315 2.061 . S
C334 O330 1.277 . S
C334 O332 1.245 . S
O335 C309 1.289 . S
O335 Mg312 2.238 1_565 S
O335 Mg313 2.106 1_565 S
O336 Mg313 2.079 1_565 S
O336 C318 1.245 . S
O337 Mg316 2.038 1_565 S
O337 C318 1.274 . S
C338 O350 1.241 . S
C338 O351 1.280 . S
C339 O352 1.277 . S
C339 O353 1.245 . S
C340 O364 1.247 . S
C340 O366 1.289 . S
Mg341 O342 1.926 . S
Mg341 O351 1.984 . S
Mg341 O353 1.988 . S
Mg341 O354 2.061 . S
O342 Mg341 1.926 . S
O342 Mg343 1.986 . S
O342 Mg344 1.917 . S
Mg343 O342 1.986 . S
Mg343 O350 2.042 . S
Mg343 O352 2.041 . S
Mg343 O358 2.038 . S
Mg343 O366 2.238 . S
Mg344 O342 1.917 . S
Mg344 O345 1.917 . S
Mg344 O355 2.106 . S
Mg344 O357 2.079 . S
Mg344 O366 2.106 . S
Mg344 O367 2.079 . S
O345 Mg344 1.917 . S
O345 Mg346 1.926 . S
O345 Mg347 1.986 . S
Mg346 O345 1.926 . S
Mg346 O360 1.984 . S
Mg346 O363 1.988 . S
Mg346 O364 2.061 . S
Mg347 O345 1.986 . S
Mg347 O355 2.238 . S
Mg347 O359 2.042 . S
Mg347 O361 2.041 . S
Mg347 O368 2.038 . S
C348 O354 1.247 . S
C348 O355 1.289 . S
C349 O367 1.245 . S
C349 O368 1.274 . S
O350 C338 1.241 . S
O350 Mg343 2.042 . S
O351 C338 1.280 . S
O351 Mg341 1.984 . S
O352 C339 1.277 . S
O352 Mg343 2.041 . S
O353 C339 1.245 . S
O353 Mg341 1.988 . S
O354 Mg341 2.061 . S
O354 C348 1.247 . S
O355 Mg344 2.106 . S
O355 Mg347 2.238 . S
O355 C348 1.289 . S
C356 O357 1.245 . S
C356 O358 1.274 . S
O357 Mg344 2.079 . S
O357 C356 1.245 . S
O358 Mg343 2.038 . S
O358 C356 1.274 . S
O359 Mg347 2.042 . S
O359 C362 1.241 . S
O360 Mg346 1.984 . S
O360 C362 1.280 . S
O361 Mg347 2.041 . S
O361 C365 1.277 . S
C362 O359 1.241 . S
C362 O360 1.280 . S
O363 Mg346 1.988 . S
O363 C365 1.245 . S
O364 C340 1.247 . S
O364 Mg346 2.061 . S
C365 O361 1.277 . S
C365 O363 1.245 . S
O366 C340 1.289 . S
O366 Mg343 2.238 . S
O366 Mg344 2.106 . S
O367 Mg344 2.079 . S
O367 C349 1.245 . S
O368 Mg347 2.038 . S
O368 C349 1.274 . S
H369 C377 0.950 . S
H370 C382 0.950 . S
H371 C379 0.950 . S
H372 C381 0.950 . S
H373 C383 0.950 . S
H374 C385 0.950 . S
H375 C387 0.950 . S
H376 C388 0.950 . S
C377 H369 0.950 . S
C377 C378 1.386 . S
C377 C379 1.391 . S
C378 C377 1.386 . S
C378 C382 1.393 . S
C379 H371 0.950 . S
C379 C377 1.391 . S
C379 C380 1.400 . S
C380 C379 1.400 . S
C380 C381 1.398 . S
C380 C386 1.491 . S
C381 H372 0.950 . S
C381 C380 1.398 . S
C381 C382 1.391 . S
C382 H370 0.950 . S
C382 C378 1.393 . S
C382 C381 1.391 . S
C383 H373 0.950 . S
C383 C384 1.386 . S
C383 C385 1.391 . S
C384 C383 1.386 . S
C384 C388 1.393 . S
C385 H374 0.950 . S
C385 C383 1.391 . S
C385 C386 1.400 . S
C386 C380 1.491 . S
C386 C385 1.400 . S
C386 C387 1.398 . S
C387 H375 0.950 . S
C387 C386 1.398 . S
C387 C388 1.391 . S
C388 H376 0.950 . S
C388 C384 1.393 . S
C388 C387 1.391 . S
H389 C397 0.950 . S
H390 C402 0.950 . S
H391 C399 0.950 . S
H392 C401 0.950 . S
H393 C403 0.950 . S
H394 C405 0.950 . S
H395 C407 0.950 . S
H396 C408 0.950 . S
C397 H389 0.950 . S
C397 C398 1.386 . S
C397 C399 1.391 . S
C398 C397 1.386 . S
C398 C402 1.393 . S
C399 H391 0.950 . S
C399 C397 1.391 . S
C399 C400 1.400 . S
C400 C399 1.400 . S
C400 C401 1.398 . S
C400 C406 1.491 . S
C401 H392 0.950 . S
C401 C400 1.398 . S
C401 C402 1.391 . S
C402 H390 0.950 . S
C402 C398 1.393 . S
C402 C401 1.391 . S
C403 H393 0.950 . S
C403 C404 1.386 . S
C403 C405 1.391 . S
C404 C403 1.386 . S
C404 C408 1.393 . S
C405 H394 0.950 . S
C405 C403 1.391 . S
C405 C406 1.400 . S
C406 C400 1.491 . S
C406 C405 1.400 . S
C406 C407 1.398 . S
C407 H395 0.950 . S
C407 C406 1.398 . S
C407 C408 1.391 . S
C408 H396 0.950 . S
C408 C404 1.393 . S
C408 C407 1.391 . S
H409 C417 0.950 . S
H410 C422 0.950 . S
H411 C419 0.950 . S
H412 C421 0.950 . S
H413 C423 0.950 . S
H414 C425 0.950 . S
H415 C427 0.950 . S
H416 C428 0.950 . S
C417 H409 0.950 . S
C417 C418 1.386 . S
C417 C419 1.391 . S
C418 C417 1.386 . S
C418 C422 1.393 . S
C419 H411 0.950 . S
C419 C417 1.391 . S
C419 C420 1.400 . S
C420 C419 1.400 . S
C420 C421 1.398 . S
C420 C426 1.491 . S
C421 H412 0.950 . S
C421 C420 1.398 . S
C421 C422 1.391 . S
C422 H410 0.950 . S
C422 C418 1.393 . S
C422 C421 1.391 . S
C423 H413 0.950 . S
C423 C424 1.386 . S
C423 C425 1.391 . S
C424 C423 1.386 . S
C424 C428 1.393 . S
C425 H414 0.950 . S
C425 C423 1.391 . S
C425 C426 1.400 . S
C426 C420 1.491 . S
C426 C425 1.400 . S
C426 C427 1.398 . S
C427 H415 0.950 . S
C427 C426 1.398 . S
C427 C428 1.391 . S
C428 H416 0.950 . S
C428 C424 1.393 . S
C428 C427 1.391 . S
H429 C437 0.950 . S
H430 C442 0.950 . S
H431 C439 0.950 . S
H432 C441 0.950 . S
H433 C443 0.950 . S
H434 C445 0.950 . S
H435 C447 0.950 . S
H436 C448 0.950 . S
C437 H429 0.950 . S
C437 C438 1.386 . S
C437 C439 1.391 . S
C438 C437 1.386 . S
C438 C442 1.393 . S
C439 H431 0.950 . S
C439 C437 1.391 . S
C439 C440 1.400 . S
C440 C439 1.400 . S
C440 C441 1.398 . S
C440 C446 1.491 . S
C441 H432 0.950 . S
C441 C440 1.398 . S
C441 C442 1.391 . S
C442 H430 0.950 . S
C442 C438 1.393 . S
C442 C441 1.391 . S
C443 H433 0.950 . S
C443 C444 1.386 . S
C443 C445 1.391 . S
C444 C443 1.386 . S
C444 C448 1.393 . S
C445 H434 0.950 . S
C445 C443 1.391 . S
C445 C446 1.400 . S
C446 C440 1.491 . S
C446 C445 1.400 . S
C446 C447 1.398 . S
C447 H435 0.950 . S
C447 C446 1.398 . S
C447 C448 1.391 . S
C448 H436 0.950 . S
C448 C444 1.393 . S
C448 C447 1.391 . S
H449 C457 0.950 . S
H450 C462 0.950 . S
H451 C459 0.950 . S
H452 C461 0.950 . S
H453 C463 0.950 . S
H454 C465 0.950 . S
H455 C467 0.950 . S
H456 C468 0.950 . S
C457 H449 0.950 . S
C457 C458 1.386 . S
C457 C459 1.391 . S
C458 C457 1.386 . S
C458 C462 1.393 . S
C459 H451 0.950 . S
C459 C457 1.391 . S
C459 C460 1.400 . S
C460 C459 1.400 . S
C460 C461 1.398 . S
C460 C466 1.491 . S
C461 H452 0.950 . S
C461 C460 1.398 . S
C461 C462 1.391 . S
C462 H450 0.950 . S
C462 C458 1.393 . S
C462 C461 1.391 . S
C463 H453 0.950 . S
C463 C464 1.386 . S
C463 C465 1.391 . S
C464 C463 1.386 . S
C464 C468 1.393 . S
C465 H454 0.950 . S
C465 C463 1.391 . S
C465 C466 1.400 . S
C466 C460 1.491 . S
C466 C465 1.400 . S
C466 C467 1.398 . S
C467 H455 0.950 . S
C467 C466 1.398 . S
C467 C468 1.391 . S
C468 H456 0.950 . S
C468 C464 1.393 . S
C468 C467 1.391 . S
H469 C477 0.950 . S
H470 C482 0.950 . S
H471 C479 0.950 . S
H472 C481 0.950 . S
H473 C483 0.950 . S
H474 C485 0.950 . S
H475 C487 0.950 . S
H476 C488 0.950 . S
C477 H469 0.950 . S
C477 C478 1.386 . S
C477 C479 1.391 . S
C478 C477 1.386 . S
C478 C482 1.393 . S
C479 H471 0.950 . S
C479 C477 1.391 . S
C479 C480 1.400 . S
C480 C479 1.400 . S
C480 C481 1.398 . S
C480 C486 1.491 . S
C481 H472 0.950 . S
C481 C480 1.398 . S
C481 C482 1.391 . S
C482 H470 0.950 . S
C482 C478 1.393 . S
C482 C481 1.391 . S
C483 H473 0.950 . S
C483 C484 1.386 . S
C483 C485 1.391 . S
C484 C483 1.386 . S
C484 C488 1.393 . S
C485 H474 0.950 . S
C485 C483 1.391 . S
C485 C486 1.400 . S
C486 C480 1.491 . S
C486 C485 1.400 . S
C486 C487 1.398 . S
C487 H475 0.950 . S
C487 C486 1.398 . S
C487 C488 1.391 . S
C488 H476 0.950 . S
C488 C484 1.393 . S
C488 C487 1.391 . S
H489 C497 0.950 . S
H490 C502 0.950 . S
H491 C499 0.950 . S
H492 C501 0.950 . S
H493 C503 0.950 . S
H494 C505 0.950 . S
H495 C507 0.950 . S
H496 C508 0.950 . S
C497 H489 0.950 . S
C497 C498 1.386 . S
C497 C499 1.391 . S
C498 C497 1.386 . S
C498 C502 1.393 . S
C499 H491 0.950 . S
C499 C497 1.391 . S
C499 C500 1.400 . S
C500 C499 1.400 . S
C500 C501 1.398 . S
C500 C506 1.491 . S
C501 H492 0.950 . S
C501 C500 1.398 . S
C501 C502 1.391 . S
C502 H490 0.950 . S
C502 C498 1.393 . S
C502 C501 1.391 . S
C503 H493 0.950 . S
C503 C504 1.386 . S
C503 C505 1.391 . S
C504 C503 1.386 . S
C504 C508 1.393 . S
C505 H494 0.950 . S
C505 C503 1.391 . S
C505 C506 1.400 . S
C506 C500 1.491 . S
C506 C505 1.400 . S
C506 C507 1.398 . S
C507 H495 0.950 . S
C507 C506 1.398 . S
C507 C508 1.391 . S
C508 H496 0.950 . S
C508 C504 1.393 . S
C508 C507 1.391 . S
H509 C517 0.950 . S
H510 C522 0.950 . S
H511 C519 0.950 . S
H512 C521 0.950 . S
H513 C523 0.950 . S
H514 C525 0.950 . S
H515 C527 0.950 . S
H516 C528 0.950 . S
C517 H509 0.950 . S
C517 C518 1.386 . S
C517 C519 1.391 . S
C518 C517 1.386 . S
C518 C522 1.393 . S
C519 H511 0.950 . S
C519 C517 1.391 . S
C519 C520 1.400 . S
C520 C519 1.400 . S
C520 C521 1.398 . S
C520 C526 1.491 . S
C521 H512 0.950 . S
C521 C520 1.398 . S
C521 C522 1.391 . S
C522 H510 0.950 . S
C522 C518 1.393 . S
C522 C521 1.391 . S
C523 H513 0.950 . S
C523 C524 1.386 . S
C523 C525 1.391 . S
C524 C523 1.386 . S
C524 C528 1.393 . S
C525 H514 0.950 . S
C525 C523 1.391 . S
C525 C526 1.400 . S
C526 C520 1.491 . S
C526 C525 1.400 . S
C526 C527 1.398 . S
C527 H515 0.950 . S
C527 C526 1.398 . S
C527 C528 1.391 . S
C528 H516 0.950 . S
C528 C524 1.393 . S
C528 C527 1.391 . S
H529 C537 0.950 . S
H530 C542 0.950 . S
H531 C539 0.950 . S
H532 C541 0.950 . S
H533 C543 0.950 . S
H534 C545 0.950 . S
H535 C547 0.950 . S
H536 C548 0.950 . S
C537 H529 0.950 . S
C537 C538 1.386 . S
C537 C539 1.391 . S
C538 C537 1.386 . S
C538 C542 1.393 . S
C539 H531 0.950 . S
C539 C537 1.391 . S
C539 C540 1.400 . S
C540 C539 1.400 . S
C540 C541 1.398 . S
C540 C546 1.491 . S
C541 H532 0.950 . S
C541 C540 1.398 . S
C541 C542 1.391 . S
C542 H530 0.950 . S
C542 C538 1.393 . S
C542 C541 1.391 . S
C543 H533 0.950 . S
C543 C544 1.386 . S
C543 C545 1.391 . S
C544 C543 1.386 . S
C544 C548 1.393 . S
C545 H534 0.950 . S
C545 C543 1.391 . S
C545 C546 1.400 . S
C546 C540 1.491 . S
C546 C545 1.400 . S
C546 C547 1.398 . S
C547 H535 0.950 . S
C547 C546 1.398 . S
C547 C548 1.391 . S
C548 H536 0.950 . S
C548 C544 1.393 . S
C548 C547 1.391 . S
H549 C557 0.950 . S
H550 C562 0.950 . S
H551 C559 0.950 . S
H552 C561 0.950 . S
H553 C563 0.950 . S
H554 C565 0.950 . S
H555 C567 0.950 . S
H556 C568 0.950 . S
C557 H549 0.950 . S
C557 C558 1.386 1_556 S
C557 C559 1.391 . S
C558 C557 1.386 1_554 S
C558 C562 1.393 . S
C559 H551 0.950 . S
C559 C557 1.391 . S
C559 C560 1.400 . S
C560 C559 1.400 . S
C560 C561 1.398 . S
C560 C566 1.491 . S
C561 H552 0.950 . S
C561 C560 1.398 . S
C561 C562 1.391 1_556 S
C562 H550 0.950 . S
C562 C558 1.393 . S
C562 C561 1.391 1_554 S
C563 H553 0.950 . S
C563 C564 1.386 . S
C563 C565 1.391 . S
C564 C563 1.386 . S
C564 C568 1.393 . S
C565 H554 0.950 . S
C565 C563 1.391 . S
C565 C566 1.400 . S
C566 C560 1.491 . S
C566 C565 1.400 . S
C566 C567 1.398 . S
C567 H555 0.950 . S
C567 C566 1.398 . S
C567 C568 1.391 . S
C568 H556 0.950 . S
C568 C564 1.393 . S
C568 C567 1.391 . S
H569 C577 0.950 . S
H570 C582 0.950 . S
H571 C579 0.950 . S
H572 C581 0.950 . S
H573 C583 0.950 . S
H574 C585 0.950 . S
H575 C587 0.950 . S
H576 C588 0.950 . S
C577 H569 0.950 . S
C577 C578 1.386 . S
C577 C579 1.391 . S
C578 C577 1.386 . S
C578 C582 1.393 . S
C579 H571 0.950 . S
C579 C577 1.391 . S
C579 C580 1.400 . S
C580 C579 1.400 . S
C580 C581 1.398 . S
C580 C586 1.491 . S
C581 H572 0.950 . S
C581 C580 1.398 . S
C581 C582 1.391 . S
C582 H570 0.950 . S
C582 C578 1.393 . S
C582 C581 1.391 . S
C583 H573 0.950 . S
C583 C584 1.386 . S
C583 C585 1.391 . S
C584 C583 1.386 . S
C584 C588 1.393 . S
C585 H574 0.950 . S
C585 C583 1.391 . S
C585 C586 1.400 . S
C586 C580 1.491 . S
C586 C585 1.400 . S
C586 C587 1.398 . S
C587 H575 0.950 . S
C587 C586 1.398 . S
C587 C588 1.391 . S
C588 H576 0.950 . S
C588 C584 1.393 . S
C588 C587 1.391 . S
H589 C597 0.950 . S
H590 C602 0.950 1_554 S
H591 C599 0.950 . S
H592 C601 0.950 . S
H593 C603 0.950 . S
H594 C605 0.950 . S
H595 C607 0.950 . S
H596 C608 0.950 . S
C597 H589 0.950 . S
C597 C598 1.386 . S
C597 C599 1.391 . S
C598 C597 1.386 . S
C598 C602 1.393 . S
C599 H591 0.950 . S
C599 C597 1.391 . S
C599 C600 1.400 . S
C600 C599 1.400 . S
C600 C601 1.398 . S
C600 C606 1.491 . S
C601 H592 0.950 . S
C601 C600 1.398 . S
C601 C602 1.391 . S
C602 H590 0.950 1_556 S
C602 C598 1.393 . S
C602 C601 1.391 . S
C603 H593 0.950 . S
C603 C604 1.386 . S
C603 C605 1.391 . S
C604 C603 1.386 . S
C604 C608 1.393 . S
C605 H594 0.950 . S
C605 C603 1.391 . S
C605 C606 1.400 . S
C606 C600 1.491 . S
C606 C605 1.400 . S
C606 C607 1.398 . S
C607 H595 0.950 . S
C607 C606 1.398 . S
C607 C608 1.391 . S
C608 H596 0.950 . S
C608 C604 1.393 . S
C608 C607 1.391 . S
H609 C617 0.950 . S
H610 C622 0.950 . S
H611 C619 0.950 . S
H612 C621 0.950 . S
H613 C623 0.950 . S
H614 C625 0.950 . S
H615 C627 0.950 . S
H616 C628 0.950 . S
C617 H609 0.950 . S
C617 C618 1.386 . S
C617 C619 1.391 . S
C618 C617 1.386 . S
C618 C622 1.393 . S
C619 H611 0.950 . S
C619 C617 1.391 . S
C619 C620 1.400 . S
C620 C619 1.400 . S
C620 C621 1.398 . S
C620 C626 1.491 . S
C621 H612 0.950 . S
C621 C620 1.398 . S
C621 C622 1.391 . S
C622 H610 0.950 . S
C622 C618 1.393 . S
C622 C621 1.391 . S
C623 H613 0.950 . S
C623 C624 1.386 . S
C623 C625 1.391 . S
C624 C623 1.386 . S
C624 C628 1.393 . S
C625 H614 0.950 . S
C625 C623 1.391 . S
C625 C626 1.400 . S
C626 C620 1.491 . S
C626 C625 1.400 . S
C626 C627 1.398 . S
C627 H615 0.950 . S
C627 C626 1.398 . S
C627 C628 1.391 . S
C628 H616 0.950 . S
C628 C624 1.393 . S
C628 C627 1.391 . S
H629 C637 0.950 . S
H630 C642 0.950 . S
H631 C639 0.950 . S
H632 C641 0.950 . S
H633 C643 0.950 . S
H634 C645 0.950 . S
H635 C647 0.950 . S
H636 C648 0.950 . S
C637 H629 0.950 . S
C637 C638 1.386 . S
C637 C639 1.391 . S
C638 C637 1.386 . S
C638 C642 1.393 . S
C639 H631 0.950 . S
C639 C637 1.391 . S
C639 C640 1.400 . S
C640 C639 1.400 . S
C640 C641 1.398 . S
C640 C646 1.491 . S
C641 H632 0.950 . S
C641 C640 1.398 . S
C641 C642 1.391 . S
C642 H630 0.950 . S
C642 C638 1.393 . S
C642 C641 1.391 . S
C643 H633 0.950 . S
C643 C644 1.386 . S
C643 C645 1.391 . S
C644 C643 1.386 . S
C644 C648 1.393 . S
C645 H634 0.950 . S
C645 C643 1.391 . S
C645 C646 1.400 . S
C646 C640 1.491 . S
C646 C645 1.400 . S
C646 C647 1.398 . S
C647 H635 0.950 . S
C647 C646 1.398 . S
C647 C648 1.391 . S
C648 H636 0.950 . S
C648 C644 1.393 . S
C648 C647 1.391 . S
H649 C657 0.950 . S
H650 C662 0.950 . S
H651 C659 0.950 . S
H652 C661 0.950 . S
H653 C663 0.950 . S
H654 C665 0.950 . S
H655 C667 0.950 . S
H656 C668 0.950 . S
C657 H649 0.950 . S
C657 C658 1.386 1_556 S
C657 C659 1.391 . S
C658 C657 1.386 1_554 S
C658 C662 1.393 . S
C659 H651 0.950 . S
C659 C657 1.391 . S
C659 C660 1.400 . S
C660 C659 1.400 . S
C660 C661 1.398 . S
C660 C666 1.491 . S
C661 H652 0.950 . S
C661 C660 1.398 . S
C661 C662 1.391 1_556 S
C662 H650 0.950 . S
C662 C658 1.393 . S
C662 C661 1.391 1_554 S
C663 H653 0.950 . S
C663 C664 1.386 . S
C663 C665 1.391 . S
C664 C663 1.386 . S
C664 C668 1.393 . S
C665 H654 0.950 . S
C665 C663 1.391 . S
C665 C666 1.400 . S
C666 C660 1.491 . S
C666 C665 1.400 . S
C666 C667 1.398 . S
C667 H655 0.950 . S
C667 C666 1.398 . S
C667 C668 1.391 . S
C668 H656 0.950 . S
C668 C664 1.393 . S
C668 C667 1.391 . S
H669 C677 0.950 1_554 S
H670 C682 0.950 . S
H671 C679 0.950 . S
H672 C681 0.950 . S
H673 C683 0.950 . S
H674 C685 0.950 . S
H675 C687 0.950 . S
H676 C688 0.950 . S
C677 H669 0.950 1_556 S
C677 C678 1.386 . S
C677 C679 1.391 . S
C678 C677 1.386 . S
C678 C682 1.393 . S
C679 H671 0.950 . S
C679 C677 1.391 . S
C679 C680 1.400 . S
C680 C679 1.400 . S
C680 C681 1.398 . S
C680 C686 1.491 . S
C681 H672 0.950 . S
C681 C680 1.398 . S
C681 C682 1.391 . S
C682 H670 0.950 . S
C682 C678 1.393 . S
C682 C681 1.391 . S
C683 H673 0.950 . S
C683 C684 1.386 . S
C683 C685 1.391 . S
C684 C683 1.386 . S
C684 C688 1.393 . S
C685 H674 0.950 . S
C685 C683 1.391 . S
C685 C686 1.400 . S
C686 C680 1.491 . S
C686 C685 1.400 . S
C686 C687 1.398 . S
C687 H675 0.950 . S
C687 C686 1.398 . S
C687 C688 1.391 . S
C688 H676 0.950 . S
C688 C684 1.393 . S
C688 C687 1.391 . S
H689 C697 0.950 . S
H690 C702 0.950 . S
H691 C699 0.950 . S
H692 C701 0.950 . S
H693 C703 0.950 . S
H694 C705 0.950 . S
H695 C707 0.950 . S
H696 C708 0.950 . S
C697 H689 0.950 . S
C697 C698 1.386 . S
C697 C699 1.391 . S
C698 C697 1.386 . S
C698 C702 1.393 . S
C699 H691 0.950 . S
C699 C697 1.391 . S
C699 C700 1.400 . S
C700 C699 1.400 . S
C700 C701 1.398 . S
C700 C706 1.491 . S
C701 H692 0.950 . S
C701 C700 1.398 . S
C701 C702 1.391 . S
C702 H690 0.950 . S
C702 C698 1.393 . S
C702 C701 1.391 . S
C703 H693 0.950 . S
C703 C704 1.386 . S
C703 C705 1.391 . S
C704 C703 1.386 . S
C704 C708 1.393 . S
C705 H694 0.950 . S
C705 C703 1.391 . S
C705 C706 1.400 . S
C706 C700 1.491 . S
C706 C705 1.400 . S
C706 C707 1.398 . S
C707 H695 0.950 . S
C707 C706 1.398 . S
C707 C708 1.391 . S
C708 H696 0.950 . S
C708 C704 1.393 . S
C708 C707 1.391 . S
H709 C717 0.950 . S
H710 C722 0.950 . S
H711 C719 0.950 . S
H712 C721 0.950 . S
H713 C723 0.950 . S
H714 C725 0.950 . S
H715 C727 0.950 . S
H716 C728 0.950 . S
C717 H709 0.950 . S
C717 C718 1.386 . S
C717 C719 1.391 . S
C718 C717 1.386 . S
C718 C722 1.393 . S
C719 H711 0.950 . S
C719 C717 1.391 . S
C719 C720 1.400 . S
C720 C719 1.400 . S
C720 C721 1.398 . S
C720 C726 1.491 . S
C721 H712 0.950 . S
C721 C720 1.398 . S
C721 C722 1.391 . S
C722 H710 0.950 . S
C722 C718 1.393 . S
C722 C721 1.391 . S
C723 H713 0.950 . S
C723 C724 1.386 . S
C723 C725 1.391 . S
C724 C723 1.386 . S
C724 C728 1.393 . S
C725 H714 0.950 . S
C725 C723 1.391 . S
C725 C726 1.400 . S
C726 C720 1.491 . S
C726 C725 1.400 . S
C726 C727 1.398 . S
C727 H715 0.950 . S
C727 C726 1.398 . S
C727 C728 1.391 . S
C728 H716 0.950 . S
C728 C724 1.393 . S
C728 C727 1.391 . S
H729 C737 0.950 . S
H730 C742 0.950 . S
H731 C739 0.950 . S
H732 C741 0.950 . S
H733 C743 0.950 . S
H734 C745 0.950 . S
H735 C747 0.950 . S
H736 C748 0.950 . S
C737 H729 0.950 . S
C737 C738 1.386 . S
C737 C739 1.391 . S
C738 C737 1.386 . S
C738 C742 1.393 . S
C739 H731 0.950 . S
C739 C737 1.391 . S
C739 C740 1.400 . S
C740 C739 1.400 . S
C740 C741 1.398 . S
C740 C746 1.491 . S
C741 H732 0.950 . S
C741 C740 1.398 . S
C741 C742 1.391 . S
C742 H730 0.950 . S
C742 C738 1.393 . S
C742 C741 1.391 . S
C743 H733 0.950 . S
C743 C744 1.386 . S
C743 C745 1.391 . S
C744 C743 1.386 . S
C744 C748 1.393 . S
C745 H734 0.950 . S
C745 C743 1.391 . S
C745 C746 1.400 . S
C746 C740 1.491 . S
C746 C745 1.400 . S
C746 C747 1.398 . S
C747 H735 0.950 . S
C747 C746 1.398 . S
C747 C748 1.391 . S
C748 H736 0.950 . S
C748 C744 1.393 . S
C748 C747 1.391 . S
H749 C757 0.950 . S
H750 C762 0.950 . S
H751 C759 0.950 . S
H752 C761 0.950 . S
H753 C763 0.950 . S
H754 C765 0.950 . S
H755 C767 0.950 . S
H756 C768 0.950 . S
C757 H749 0.950 . S
C757 C758 1.386 . S
C757 C759 1.391 . S
C758 C757 1.386 . S
C758 C762 1.393 . S
C759 H751 0.950 . S
C759 C757 1.391 . S
C759 C760 1.400 . S
C760 C759 1.400 . S
C760 C761 1.398 . S
C760 C766 1.491 . S
C761 H752 0.950 . S
C761 C760 1.398 . S
C761 C762 1.391 . S
C762 H750 0.950 . S
C762 C758 1.393 . S
C762 C761 1.391 . S
C763 H753 0.950 . S
C763 C764 1.386 . S
C763 C765 1.391 . S
C764 C763 1.386 . S
C764 C768 1.393 . S
C765 H754 0.950 . S
C765 C763 1.391 . S
C765 C766 1.400 . S
C766 C760 1.491 . S
C766 C765 1.400 . S
C766 C767 1.398 . S
C767 H755 0.950 . S
C767 C766 1.398 . S
C767 C768 1.391 . S
C768 H756 0.950 . S
C768 C764 1.393 . S
C768 C767 1.391 . S
H769 C777 0.950 . S
H770 C782 0.950 . S
H771 C779 0.950 . S
H772 C781 0.950 . S
H773 C783 0.950 . S
H774 C785 0.950 . S
H775 C787 0.950 . S
H776 C788 0.950 . S
C777 H769 0.950 . S
C777 C778 1.386 . S
C777 C779 1.391 . S
C778 C777 1.386 . S
C778 C782 1.393 . S
C779 H771 0.950 . S
C779 C777 1.391 . S
C779 C780 1.400 . S
C780 C779 1.400 . S
C780 C781 1.398 . S
C780 C786 1.491 . S
C781 H772 0.950 . S
C781 C780 1.398 . S
C781 C782 1.391 . S
C782 H770 0.950 . S
C782 C778 1.393 . S
C782 C781 1.391 . S
C783 H773 0.950 . S
C783 C784 1.386 . S
C783 C785 1.391 . S
C784 C783 1.386 . S
C784 C788 1.393 . S
C785 H774 0.950 . S
C785 C783 1.391 . S
C785 C786 1.400 . S
C786 C780 1.491 . S
C786 C785 1.400 . S
C786 C787 1.398 . S
C787 H775 0.950 . S
C787 C786 1.398 . S
C787 C788 1.391 . S
C788 H776 0.950 . S
C788 C784 1.393 . S
C788 C787 1.391 . S
H789 C797 0.950 . S
H790 C802 0.950 . S
H791 C799 0.950 . S
H792 C801 0.950 . S
H793 C803 0.950 . S
H794 C805 0.950 . S
H795 C807 0.950 . S
H796 C808 0.950 . S
C797 H789 0.950 . S
C797 C798 1.386 . S
C797 C799 1.391 . S
C798 C797 1.386 . S
C798 C802 1.393 . S
C799 H791 0.950 . S
C799 C797 1.391 . S
C799 C800 1.400 . S
C800 C799 1.400 . S
C800 C801 1.398 . S
C800 C806 1.491 . S
C801 H792 0.950 . S
C801 C800 1.398 . S
C801 C802 1.391 . S
C802 H790 0.950 . S
C802 C798 1.393 . S
C802 C801 1.391 . S
C803 H793 0.950 . S
C803 C804 1.386 . S
C803 C805 1.391 . S
C804 C803 1.386 . S
C804 C808 1.393 . S
C805 H794 0.950 . S
C805 C803 1.391 . S
C805 C806 1.400 . S
C806 C800 1.491 . S
C806 C805 1.400 . S
C806 C807 1.398 . S
C807 H795 0.950 . S
C807 C806 1.398 . S
C807 C808 1.391 . S
C808 H796 0.950 . S
C808 C804 1.393 . S
C808 C807 1.391 . S
H809 C817 0.950 . S
H810 C822 0.950 . S
H811 C819 0.950 . S
H812 C821 0.950 . S
H813 C823 0.950 . S
H814 C825 0.950 . S
H815 C827 0.950 . S
H816 C828 0.950 . S
C817 H809 0.950 . S
C817 C818 1.386 . S
C817 C819 1.391 . S
C818 C817 1.386 . S
C818 C822 1.393 . S
C819 H811 0.950 . S
C819 C817 1.391 . S
C819 C820 1.400 . S
C820 C819 1.400 . S
C820 C821 1.398 . S
C820 C826 1.491 . S
C821 H812 0.950 . S
C821 C820 1.398 . S
C821 C822 1.391 . S
C822 H810 0.950 . S
C822 C818 1.393 . S
C822 C821 1.391 . S
C823 H813 0.950 . S
C823 C824 1.386 . S
C823 C825 1.391 . S
C824 C823 1.386 . S
C824 C828 1.393 . S
C825 H814 0.950 . S
C825 C823 1.391 . S
C825 C826 1.400 . S
C826 C820 1.491 . S
C826 C825 1.400 . S
C826 C827 1.398 . S
C827 H815 0.950 . S
C827 C826 1.398 . S
C827 C828 1.391 . S
C828 H816 0.950 . S
C828 C824 1.393 . S
C828 C827 1.391 . S
H829 C837 0.950 . S
H830 C842 0.950 . S
H831 C839 0.950 . S
H832 C841 0.950 . S
H833 C843 0.950 . S
H834 C845 0.950 . S
H835 C847 0.950 . S
H836 C848 0.950 . S
C837 H829 0.950 . S
C837 C838 1.386 . S
C837 C839 1.391 . S
C838 C837 1.386 . S
C838 C842 1.393 . S
C839 H831 0.950 . S
C839 C837 1.391 . S
C839 C840 1.400 . S
C840 C839 1.400 . S
C840 C841 1.398 . S
C840 C846 1.491 . S
C841 H832 0.950 . S
C841 C840 1.398 . S
C841 C842 1.391 . S
C842 H830 0.950 . S
C842 C838 1.393 . S
C842 C841 1.391 . S
C843 H833 0.950 . S
C843 C844 1.386 . S
C843 C845 1.391 . S
C844 C843 1.386 . S
C844 C848 1.393 . S
C845 H834 0.950 . S
C845 C843 1.391 . S
C845 C846 1.400 . S
C846 C840 1.491 . S
C846 C845 1.400 . S
C846 C847 1.398 . S
C847 H835 0.950 . S
C847 C846 1.398 . S
C847 C848 1.391 . S
C848 H836 0.950 . S
C848 C844 1.393 . S
C848 C847 1.391 . S
C378 C15 1.858 . S
C384 C287 1.812 . S
C398 C47 1.646 . S
C404 C334 1.621 . S
C424 C338 1.822 . S
C418 C100 1.883 . S
C444 C303 1.527 . S
C438 C146 1.574 . S
C458 C192 1.812 . S
C464 C318 1.733 . S
C484 C340 0.983 . S
C478 C245 1.019 . S
C504 C309 1.419 . S
C498 C114 1.469 . S
C518 C160 1.420 . S
C524 C349 1.403 . S
C544 C278 1.328 . S
C538 C206 1.376 . S
C558 C231 1.490 . S
C564 C307 1.434 . S
C578 C1 1.964 1_556 S
C584 C365 1.899 . S
C604 C276 1.509 . S
C598 C61 1.556 1_556 S
C624 C294 1.803 . S
C618 C139 1.858 . S
C644 C308 1.621 . S
C638 C185 1.639 . S
C664 C362 1.818 . S
C658 C252 1.882 . S
C684 C277 1.516 . S
C678 C22 1.567 1_556 S
C704 C325 1.716 . S
C698 C54 1.784 . S
C718 C93 1.018 . S
C724 C348 0.991 . S
C744 C317 1.412 . S
C738 C238 1.457 . S
C764 C356 1.392 . S
C758 C8 1.437 . S
C784 C286 1.319 . S
C778 C68 1.382 . S
C804 C331 1.440 . S
C798 C107 1.490 . S
C818 C153 1.962 . S
C824 C339 1.901 . S
C838 C199 1.577 . S
C844 C300 1.526 . S
