# Generated by pormake.
# Topology anh, (6,3)-cn, num edge types: 1
# Building blocks:
#     Node 0, Type 0, BuildingBlock: GEDQOX_clean_sbu_0, # of connection points: 6
#     Node 1, Type 0, BuildingBlock: GEDQOX_clean_sbu_0, # of connection points: 6
#     Node 2, Type 0, BuildingBlock: GEDQOX_clean_sbu_0, # of connection points: 6
#     Node 3, Type 1, BuildingBlock: BETDIP_clean_linker_0, # of connection points: 3
#     Node 4, Type 1, BuildingBlock: BETDIP_clean_linker_0, # of connection points: 3
#     Node 5, Type 1, BuildingBlock: BETDIP_clean_linker_0, # of connection points: 3
#     Node 6, Type 1, BuildingBlock: BETDIP_clean_linker_0, # of connection points: 3
#     Node 7, Type 1, BuildingBlock: BETDIP_clean_linker_0, # of connection points: 3
#     Node 8, Type 1, BuildingBlock: BETDIP_clean_linker_0, # of connection points: 3
#     Edge 9, Type (0, 1), BuildingBlock: OJICUG_clean_linker_0, # of connection points: 2
#     Edge 10, Type (0, 1), BuildingBlock: OJICUG_clean_linker_0, # of connection points: 2
#     Edge 11, Type (0, 1), BuildingBlock: OJICUG_clean_linker_0, # of connection points: 2
#     Edge 12, Type (0, 1), BuildingBlock: OJICUG_clean_linker_0, # of connection points: 2
#     Edge 13, Type (0, 1), BuildingBlock: OJICUG_clean_linker_0, # of connection points: 2
#     Edge 14, Type (0, 1), BuildingBlock: OJICUG_clean_linker_0, # of connection points: 2
#     Edge 15, Type (0, 1), BuildingBlock: OJICUG_clean_linker_0, # of connection points: 2
#     Edge 16, Type (0, 1), BuildingBlock: OJICUG_clean_linker_0, # of connection points: 2
#     Edge 17, Type (0, 1), BuildingBlock: OJICUG_clean_linker_0, # of connection points: 2
#     Edge 18, Type (0, 1), BuildingBlock: OJICUG_clean_linker_0, # of connection points: 2
#     Edge 19, Type (0, 1), BuildingBlock: OJICUG_clean_linker_0, # of connection points: 2
#     Edge 20, Type (0, 1), BuildingBlock: OJICUG_clean_linker_0, # of connection points: 2
#     Edge 21, Type (0, 1), BuildingBlock: OJICUG_clean_linker_0, # of connection points: 2
#     Edge 22, Type (0, 1), BuildingBlock: OJICUG_clean_linker_0, # of connection points: 2
#     Edge 23, Type (0, 1), BuildingBlock: OJICUG_clean_linker_0, # of connection points: 2
#     Edge 24, Type (0, 1), BuildingBlock: OJICUG_clean_linker_0, # of connection points: 2
#     Edge 25, Type (0, 1), BuildingBlock: OJICUG_clean_linker_0, # of connection points: 2
#     Edge 26, Type (0, 1), BuildingBlock: OJICUG_clean_linker_0, # of connection points: 2
# Relax obj value: 0.215
# Max RMSD: 0.210
# Mean RMSD: 0.135
data_MOF--net-anh--node1-GEDQOX_clean_sbu_0--node2-BETDIP_clean_linker_0--edge1-OJICUG_clean_linker_0
_symmetry_space_group_name_H-M    P1
_symmetry_Int_Tables_number       1
_symmetry_cell_setting            triclinic
loop_
_symmetry_equiv_pos_as_xyz
'x, y, z'
_cell_length_a     22.830882
_cell_length_b     21.828827
_cell_length_c     36.135187
_cell_angle_alpha  95.103379
_cell_angle_beta   92.087632
_cell_angle_gamma 95.494517
loop_
_atom_site_label
_atom_site_type_symbol
_atom_site_fract_x
_atom_site_fract_y
_atom_site_fract_z
_atom_type_partial_charge
Nd0 Nd 0.14941 0.66178 0.14184 0.0
Nd1 Nd 0.13173 0.52239 0.13439 0.0
C2 C 0.19005 0.77748 0.13474 0.0
C3 C 0.2477 0.81199 0.14553 0.0
C4 C 0.2708 0.85913 0.12469 0.0
C5 C 0.32741 0.88892 0.13351 0.0
C6 C 0.36196 0.87187 0.16331 0.0
C7 C 0.33821 0.82459 0.18411 0.0
C8 C 0.28198 0.79476 0.17516 0.0
C9 C 0.135 0.61271 0.20814 0.0
C10 C 0.27075 0.58112 0.13662 0.0
C11 C 1.09757 0.40564 0.14393 0.0
C12 C 1.04473 0.36971 0.15664 0.0
C13 C 1.04777 0.34412 0.1909 0.0
C14 C 0.99837 0.31115 0.20394 0.0
C15 C 0.94469 0.30244 0.18289 0.0
C16 C 0.94181 0.32716 0.14828 0.0
C17 C 0.99123 0.36059 0.13533 0.0
C18 C 0.14527 0.57676 0.06932 0.0
C19 C 1.0109 0.60135 0.13453 0.0
O20 O 0.19112 0.73283 0.10826 0.0
O21 O 0.15729 0.76137 0.16196 0.0
O22 O 0.1145 0.66358 0.20012 0.0
O23 O 0.16533 0.5912 0.18235 0.0
O24 O 0.24769 0.6351 0.13718 0.0
O25 O 0.23511 0.52927 0.13735 0.0
O26 O 0.12792 0.44365 0.16923 0.0
O27 O 1.09344 0.42858 0.11176 0.0
O28 O 0.16886 0.52649 0.07561 0.0
O29 O 0.11443 0.59337 0.09571 0.0
O30 O 1.03403 0.54974 0.14226 0.0
O31 O 1.04712 0.65072 0.12823 0.0
H32 H 0.24537 0.87231 0.1013 0.0
H33 H 0.34439 0.9246 0.11665 0.0
H34 H 0.36276 0.81088 0.20768 0.0
H35 H 0.26542 0.75784 0.19131 0.0
H36 H 1.08848 0.34988 0.20778 0.0
H37 H 1.00237 0.292 0.23045 0.0
H38 H 0.90102 0.32169 0.13153 0.0
H39 H 0.98727 0.37962 0.10878 0.0
Nd40 Nd 0.54259 0.98332 0.51209 0.0
Nd41 Nd 0.68153 0.99601 0.49513 0.0
C42 C 0.43498 0.94895 0.53245 0.0
C43 C 0.39664 0.89014 0.52709 0.0
C44 C 0.42124 0.83355 0.52381 0.0
C45 C 0.38608 0.77848 0.51305 0.0
C46 C 0.3254 0.77883 0.50498 0.0
C47 C 0.30025 0.83526 0.51007 0.0
C48 C 0.33566 0.89046 0.52095 0.0
C49 C 0.57232 0.99315 0.44015 0.0
C50 C 0.61919 0.85831 0.50609 0.0
C51 C 0.77705 0.02202 0.45824 0.0
C52 C 0.81356 0.07997 0.45304 0.0
C53 C 0.78713 0.13471 0.44917 0.0
C54 C 0.82123 0.18918 0.44319 0.0
C55 C 0.88266 0.19029 0.44083 0.0
C56 C 0.90929 0.13575 0.44553 0.0
C57 C 0.87496 0.08102 0.45153 0.0
C58 C 0.66502 1.01395 0.57061 0.0
C59 C 0.60871 0.12054 0.51316 0.0
O60 O 0.48203 0.95056 0.55455 0.0
O61 O 0.44568 0.97544 0.50202 0.0
O62 O 0.52851 0.01855 0.45485 0.0
O63 O 0.59699 0.9618 0.46274 0.0
O64 O 0.5702 0.8846 0.51314 0.0
O65 O 0.66795 0.88965 0.49604 0.0
O66 O 0.72358 1.01664 0.44305 0.0
O67 O 0.7791 1.0026 0.49153 0.0
O68 O 0.71692 1.01657 0.55681 0.0
O69 O 0.62683 1.00298 0.54443 0.0
O70 O 0.65176 0.09531 0.49531 0.0
O71 O 0.56595 0.08669 0.52809 0.0
H72 H 0.46803 0.83214 0.52813 0.0
H73 H 0.4068 0.73582 0.50984 0.0
H74 H 0.2538 0.8373 0.5037 0.0
H75 H 0.3158 0.9337 0.52298 0.0
H76 H 0.73988 0.1353 0.45032 0.0
H77 H 0.79935 0.23052 0.44033 0.0
H78 H 0.95645 0.13496 0.44361 0.0
H79 H 0.89626 0.03936 0.45451 0.0
Nd80 Nd 0.52845 0.47785 0.81483 0.0
Nd81 Nd 0.65624 0.49781 0.83402 0.0
C82 C 0.42166 0.48621 0.78662 0.0
C83 C 0.38561 0.53915 0.78987 0.0
C84 C 0.39869 0.59067 0.76965 0.0
C85 C 0.37654 0.64688 0.78008 0.0
C86 C 0.34089 0.65228 0.81076 0.0
C87 C 0.32244 0.59909 0.82814 0.0
C88 C 0.34444 0.54297 0.81771 0.0
C89 C 0.55527 0.48606 0.89031 0.0
C90 C 0.59504 0.62161 0.82185 0.0
C91 C 0.7664 0.49827 0.85887 0.0
C92 C 0.82238 0.5327 0.85196 0.0
C93 C 0.87479 0.51324 0.86569 0.0
C94 C 0.92863 0.54511 0.85901 0.0
C95 C 0.93089 0.59697 0.83834 0.0
C96 C 0.87806 0.61547 0.82387 0.0
C97 C 0.82409 0.58336 0.83054 0.0
C98 C 0.63036 0.49702 0.75966 0.0
C99 C 0.5899 0.35582 0.82284 0.0
O100 O 0.46898 0.49331 0.76746 0.0
O101 O 0.43142 0.46054 0.81736 0.0
O102 O 0.51391 0.44732 0.87364 0.0
O103 O 0.57933 0.51985 0.86758 0.0
O104 O 0.54856 0.58261 0.81079 0.0
O105 O 0.64341 0.60158 0.83553 0.0
O106 O 0.74304 0.46155 0.83062 0.0
O107 O 0.72793 0.52934 0.87645 0.0
O108 O 0.67131 0.53446 0.77762 0.0
O109 O 0.60608 0.45964 0.78055 0.0
O110 O 0.63018 0.39399 0.84278 0.0
O111 O 0.548 0.378 0.80362 0.0
H112 H 0.42949 0.58906 0.74757 0.0
H113 H 0.39102 0.68709 0.76602 0.0
H114 H 0.29356 0.60175 0.85125 0.0
H115 H 0.3325 0.50379 0.83327 0.0
H116 H 0.87403 0.47386 0.882 0.0
H117 H 0.96833 0.53049 0.87133 0.0
H118 H 0.87845 0.6552 0.80789 0.0
H119 H 0.78371 0.59829 0.81931 0.0
H120 H 0.61847 0.04998 0.18345 0.0
H121 H 0.69893 0.09448 0.29389 0.0
H122 H 0.54961 0.95945 0.27599 0.0
H123 H 0.73337 0.18101 0.27085 0.0
C124 C 0.74279 0.16792 0.24216 0.0
C125 C 0.62059 0.04296 0.21277 0.0
C126 C 0.57936 0.99986 0.22682 0.0
C127 C 0.66438 0.07746 0.23653 0.0
C128 C 0.66595 0.06879 0.27482 0.0
C129 C 0.62475 0.026 0.28887 0.0
C130 C 0.58238 0.99122 0.26476 0.0
N131 N 0.70645 0.11947 0.22106 0.0
H132 H 0.62446 0.42646 0.49169 0.0
H133 H 0.62444 0.5558 0.58901 0.0
H134 H 0.61332 0.36115 0.60054 0.0
H135 H 0.548 0.5824 0.53879 0.0
C136 C 0.58678 0.59497 0.52339 0.0
C137 C 0.62363 0.43574 0.52161 0.0
C138 C 0.61765 0.38613 0.54435 0.0
C139 C 0.62491 0.49737 0.53773 0.0
C140 C 0.62311 0.50861 0.57658 0.0
C141 C 0.61881 0.45988 0.5994 0.0
C142 C 0.61595 0.39907 0.58301 0.0
N143 N 0.6254 0.5483 0.51539 0.0
H144 H 0.16397 0.81355 0.86073 0.0
H145 H 0.2401 0.80746 0.97108 0.0
H146 H 0.12956 0.65124 0.91862 0.0
H147 H 0.28545 0.92693 0.8711 0.0
C148 C 0.27775 0.88164 0.8812 0.0
C149 C 0.17096 0.78851 0.88484 0.0
C150 C 0.14314 0.72878 0.8859 0.0
C151 C 0.20757 0.81633 0.91508 0.0
C152 C 0.21352 0.78534 0.94726 0.0
C153 C 0.18664 0.72485 0.94794 0.0
C154 C 0.15277 0.69666 0.91703 0.0
N155 N 0.24142 0.87359 0.91198 0.0
H156 H 0.14641 0.52213 0.46416 0.0
H157 H 1.08032 0.46532 0.35167 0.0
H158 H 0.20484 0.62513 0.37374 0.0
H159 H 0.99745 0.43964 0.38379 0.0
C160 C 1.01671 0.41495 0.40527 0.0
C161 C 0.14562 0.52862 0.43476 0.0
C162 C 0.1813 0.57777 0.42185 0.0
C163 C 1.10829 0.48816 0.40976 0.0
C164 C 1.10795 0.49648 0.37151 0.0
C165 C 0.14244 0.54601 0.35867 0.0
C166 C 0.17892 0.58625 0.38382 0.0
N167 N 1.07131 0.43972 0.42348 0.0
H168 H 0.60792 0.0491 0.83512 0.0
H169 H 0.6272 0.93583 0.73302 0.0
H170 H 0.62631 0.13204 0.73172 0.0
H171 H 0.54491 0.88103 0.76854 0.0
C172 C 0.57791 0.87658 0.79038 0.0
C173 C 0.61436 0.04483 0.80548 0.0
C174 C 0.61638 0.09782 0.78555 0.0
C175 C 0.61731 0.98575 0.78651 0.0
C176 C 0.62402 0.98074 0.7478 0.0
C177 C 0.62831 0.03341 0.72816 0.0
C178 C 0.62441 0.0915 0.74714 0.0
N179 N 0.61253 0.93133 0.80594 0.0
H180 H 0.58534 0.59377 0.15716 0.0
H181 H 0.67195 0.55311 0.0545 0.0
H182 H 0.48351 0.54592 0.05377 0.0
H183 H 0.74281 0.63165 0.08425 0.0
C184 C 0.74969 0.60694 0.1086 0.0
C185 C 0.58323 0.58147 0.12743 0.0
C186 C 0.52615 0.57053 0.10771 0.0
C187 C 0.63761 0.57641 0.10818 0.0
C188 C 0.63254 0.55956 0.06957 0.0
C189 C 0.57752 0.54803 0.0501 0.0
C190 C 0.52556 0.55381 0.06927 0.0
N191 N 0.69647 0.58515 0.12683 0.0
C192 C 0.37783 0.63337 0.13429 0.0
C193 C 0.33816 0.57905 0.13412 0.0
H194 H 0.46681 0.67404 0.12754 0.0
C195 C 0.36407 0.52255 0.13001 0.0
H196 H 0.36097 0.67818 0.13717 0.0
C197 C 0.4255 0.52038 0.12486 0.0
C198 C 0.46499 0.57448 0.12419 0.0
H199 H 0.33641 0.4793 0.12944 0.0
H200 H 0.44188 0.4756 0.11966 0.0
C201 C 0.43949 0.63112 0.1293 0.0
C202 C 0.89674 0.28347 0.40508 0.0
C203 C 0.91804 0.24773 0.43217 0.0
H204 H 0.91154 0.36397 0.37565 0.0
C205 C 0.97289 0.26746 0.45062 0.0
H206 H 0.85521 0.26915 0.38987 0.0
C207 C 1.00534 0.32204 0.44234 0.0
C208 C 0.98358 0.35758 0.41532 0.0
H209 H 0.99032 0.24117 0.4718 0.0
H210 H 1.04731 0.33624 0.45702 0.0
C211 C 0.92912 0.33765 0.39679 0.0
C212 C 0.63703 0.73512 0.82909 0.0
C213 C 0.59156 0.68855 0.81682 0.0
H214 H 0.66864 0.83194 0.83101 0.0
C215 C 0.54158 0.70602 0.79805 0.0
H216 H 0.67619 0.72351 0.84362 0.0
C217 C 0.53751 0.7672 0.79079 0.0
C218 C 0.58295 0.81355 0.80229 0.0
H219 H 0.50566 0.67207 0.788 0.0
H220 H 0.49872 0.77812 0.77549 0.0
C221 C 0.63263 0.79725 0.82204 0.0
C222 C 0.91843 0.65215 0.11535 0.0
C223 C 0.94323 0.60317 0.13124 0.0
H224 H 0.84091 0.6912 0.09638 0.0
C225 C 0.90204 0.55606 0.14267 0.0
H226 H 0.94707 0.68948 0.10588 0.0
C227 C 0.83948 0.55782 0.13791 0.0
C228 C 0.81524 0.60638 0.12098 0.0
H229 H 0.91815 0.51708 0.15497 0.0
H230 H 0.81032 0.51982 0.14613 0.0
C231 C 0.8566 0.65326 0.11003 0.0
C232 C 0.31371 0.68553 0.45876 0.0
C233 C 0.2901 0.72207 0.48745 0.0
H234 H 0.2978 0.61083 0.41595 0.0
C235 C 0.23167 0.70636 0.49699 0.0
H236 H 0.35822 0.69666 0.45032 0.0
C237 C 0.19703 0.65665 0.47724 0.0
C238 C 0.22005 0.62243 0.44736 0.0
H239 H 0.21237 0.73335 0.51913 0.0
H240 H 0.15146 0.647 0.48407 0.0
C241 C 0.27906 0.63649 0.43891 0.0
C242 C 0.54773 0.24785 0.80067 0.0
C243 C 0.59355 0.2876 0.81955 0.0
H244 H 0.51901 0.15648 0.77594 0.0
C245 C 0.64421 0.26176 0.83195 0.0
H246 H 0.50791 0.26569 0.79085 0.0
C247 C 0.65024 0.19846 0.82353 0.0
C248 C 0.60558 0.15993 0.80281 0.0
H249 H 0.68042 0.29092 0.84649 0.0
H250 H 0.69105 0.18045 0.83133 0.0
C251 C 0.55378 0.18502 0.79234 0.0
C252 C 0.65152 0.74993 0.49151 0.0
C253 C 0.6172 0.791 0.51132 0.0
H254 H 0.66935 0.65476 0.47942 0.0
C255 C 0.57703 0.76678 0.53612 0.0
H256 H 0.68316 0.76708 0.47234 0.0
C257 C 0.5685 0.70358 0.53955 0.0
C258 C 0.60083 0.66201 0.51906 0.0
H259 H 0.55163 0.79685 0.5531 0.0
H260 H 0.53609 0.68712 0.5585 0.0
C261 C 0.64348 0.68572 0.49543 0.0
C262 C 1.04028 0.60733 0.83302 0.0
C263 C 0.98761 0.63542 0.83649 0.0
H264 H 0.13331 0.61667 0.84539 0.0
C265 C 0.99055 0.69965 0.84559 0.0
H266 H 1.03938 0.55819 0.82508 0.0
C267 C 1.04444 0.73323 0.85652 0.0
C268 C 1.09569 0.7028 0.85868 0.0
H269 H 0.9508 0.72272 0.84838 0.0
H270 H 1.04469 0.78099 0.86772 0.0
C271 C 1.09406 0.64082 0.84418 0.0
C272 C 0.43348 0.96826 0.17255 0.0
C273 C 0.42181 0.9039 0.17367 0.0
H274 H 0.49359 0.04914 0.18804 0.0
C275 C 0.46667 0.8709 0.18742 0.0
H276 H 0.40002 0.99531 0.16238 0.0
C277 C 0.51976 0.90189 0.20242 0.0
C278 C 0.52977 0.96645 0.20338 0.0
H279 H 0.46006 0.82116 0.18776 0.0
H280 H 0.55214 0.87567 0.21474 0.0
C281 C 0.48711 0.9992 0.18716 0.0
C282 C 0.65559 0.22831 0.50481 0.0
C283 C 0.60855 0.18925 0.51681 0.0
H284 H 0.69501 0.32179 0.50339 0.0
C285 C 0.56153 0.21669 0.53341 0.0
H286 H 0.69251 0.20903 0.4918 0.0
C287 C 0.56289 0.28097 0.53965 0.0
C288 C 0.61116 0.31987 0.52943 0.0
H289 H 0.5242 0.18855 0.54267 0.0
H290 H 0.52713 0.30041 0.55403 0.0
C291 C 0.65687 0.29301 0.51105 0.0
C292 C 0.3382 0.72777 0.86619 0.0
C293 C 0.32885 0.7138 0.82763 0.0
H294 H 0.33153 0.7932 0.91305 0.0
C295 C 0.30935 0.759 0.80599 0.0
H296 H 0.35512 0.69467 0.88341 0.0
C297 C 0.29594 0.81583 0.82313 0.0
C298 C 0.30205 0.82776 0.86194 0.0
H299 H 0.30252 0.74955 0.77613 0.0
H300 H 0.27807 0.84899 0.80638 0.0
C301 C 0.32527 0.78427 0.88312 0.0
C302 C 0.87847 0.27928 0.23494 0.0
C303 C 0.89192 0.26842 0.1974 0.0
H304 H 0.82062 0.2562 0.27807 0.0
C305 C 0.85498 0.22455 0.17419 0.0
H306 H 0.90546 0.3133 0.25347 0.0
C307 C 0.80627 0.19169 0.18838 0.0
C308 C 0.7933 0.2025 0.22599 0.0
H309 H 0.86438 0.21479 0.14522 0.0
H310 H 0.77904 0.15777 0.16994 0.0
C311 C 0.82969 0.24683 0.249 0.0
C312 C 0.13374 0.67147 0.03743 0.0
C313 C 0.15982 0.61593 0.03908 0.0
H314 H 0.12477 0.75127 0.00803 0.0
C315 C 0.19982 0.59951 0.0122 0.0
H316 H 1.10231 0.68507 0.05758 0.0
C317 C 0.21204 0.63733 0.98351 0.0
C318 C 0.18556 0.69265 0.982 0.0
H319 H 0.22047 0.55694 0.01285 0.0
H320 H 0.24056 0.62254 0.96184 0.0
C321 C 0.14708 0.70984 0.00945 0.0
C322 C 0.58023 0.05831 0.38719 0.0
C323 C 0.59268 1.00417 0.4029 0.0
H324 H 0.5828 0.10828 0.33869 0.0
C325 C 0.62168 0.9599 0.382 0.0
H326 H 0.55824 0.09329 0.40289 0.0
C327 C 0.63494 0.96817 0.34511 0.0
C328 C 0.62085 0.02158 0.32918 0.0
H329 H 0.63162 0.91779 0.3936 0.0
H330 H 0.65444 0.93214 0.32866 0.0
C331 C 0.59469 0.06719 0.35072 0.0
C332 C 0.58379 0.44365 0.70022 0.0
C333 C 0.62373 0.49009 0.71879 0.0
H334 H 0.55007 0.39837 0.64772 0.0
C335 C 0.65948 0.52876 0.69795 0.0
H336 H 0.55541 0.41355 0.71568 0.0
C337 C 0.6569 0.51982 0.65919 0.0
C338 C 0.6183 0.47216 0.64047 0.0
H339 H 0.69057 0.5651 0.7116 0.0
H340 H 0.68652 0.54903 0.64398 0.0
C341 C 0.58105 0.4348 0.66137 0.0
C342 C 0.60311 0.99059 0.62441 0.0
C343 C 0.65412 0.01998 0.61065 0.0
H344 H 0.5556 0.97066 0.67293 0.0
C345 C 0.6964 0.05358 0.63568 0.0
H346 H 0.57037 0.96373 0.60566 0.0
C347 C 0.68759 0.05835 0.67385 0.0
C348 C 0.63709 0.02822 0.68771 0.0
H349 H 0.73615 0.07654 0.6257 0.0
H350 H 0.7206 0.08489 0.69264 0.0
C351 C 0.59496 0.99408 0.66276 0.0
C352 C 0.60603 0.54588 0.94683 0.0
C353 C 0.56318 0.49929 0.93121 0.0
H354 H 0.644 0.59797 -0.00353 0.0
C355 C 0.52666 0.46718 0.95498 0.0
H356 H 0.63485 0.57143 0.92919 0.0
C357 C 0.53187 0.48238 -0.00648 0.0
C358 C 0.57393 0.52987 0.00919 0.0
H359 H 0.4934 0.43089 0.94378 0.0
H360 H 0.50286 0.45695 0.01109 0.0
C361 C 0.61144 0.56091 0.98538 0.0
C362 C 0.15921 0.53855 0.25453 0.0
C363 C 0.13422 0.59228 0.24597 0.0
H364 H 0.18056 0.48097 0.29747 0.0
C365 C 1.10957 0.62837 0.27436 0.0
H366 H 0.17861 0.51003 0.23316 0.0
C367 C 0.11153 0.61236 0.31083 0.0
C368 C 0.13726 0.55939 0.31951 0.0
H369 H 1.08984 0.66992 0.26861 0.0
H370 H 1.09347 0.64172 0.33242 0.0
C371 C 0.16031 0.52192 0.29113 0.0
loop_
_geom_bond_atom_site_label_1
_geom_bond_atom_site_label_2
_geom_bond_distance
_geom_bond_site_symmetry_2
_ccdc_geom_bond_type
Nd0 C2 2.836 . S
Nd0 O20 2.500 . S
Nd0 O21 2.492 . S
Nd0 O22 2.487 . S
Nd0 O23 2.682 . S
Nd0 O24 2.410 . S
Nd0 O29 2.414 . S
Nd0 O31 2.424 1_455 S
Nd1 C11 2.836 1_455 S
Nd1 O23 2.414 . S
Nd1 O25 2.424 . S
Nd1 O26 2.500 1_455 S
Nd1 O27 2.492 1_455 S
Nd1 O28 2.487 . S
Nd1 O29 2.682 . S
Nd1 O30 2.410 1_455 S
C2 Nd0 2.836 . S
C2 C3 1.498 . S
C2 O20 1.258 . S
C2 O21 1.239 . S
C3 C2 1.498 . S
C3 C4 1.366 . S
C3 C8 1.407 . S
C4 C3 1.366 . S
C4 C5 1.392 . S
C4 H32 0.930 . S
C5 C4 1.392 . S
C5 C6 1.398 . S
C5 H33 0.929 . S
C6 C5 1.398 . S
C6 C7 1.352 . S
C7 C6 1.352 . S
C7 C8 1.384 . S
C7 H34 0.930 . S
C8 C3 1.407 . S
C8 C7 1.384 . S
C8 H35 0.929 . S
C9 O22 1.241 . S
C9 O23 1.273 . S
C10 O24 1.251 . S
C10 O25 1.268 . S
C11 Nd1 2.836 1_655 S
C11 C12 1.498 . S
C11 O26 1.258 . S
C11 O27 1.239 . S
C12 C11 1.498 . S
C12 C13 1.366 . S
C12 C17 1.407 . S
C13 C12 1.366 . S
C13 C14 1.392 . S
C13 H36 0.930 . S
C14 C13 1.392 . S
C14 C15 1.398 . S
C14 H37 0.929 . S
C15 C14 1.398 . S
C15 C16 1.352 . S
C16 C15 1.352 . S
C16 C17 1.384 . S
C16 H38 0.930 . S
C17 C12 1.407 . S
C17 C16 1.384 . S
C17 H39 0.929 . S
C18 O28 1.241 . S
C18 O29 1.273 . S
C19 O30 1.251 . S
C19 O31 1.268 . S
O20 Nd0 2.500 . S
O20 C2 1.258 . S
O21 Nd0 2.492 . S
O21 C2 1.239 . S
O22 Nd0 2.487 . S
O22 C9 1.241 . S
O23 Nd0 2.682 . S
O23 Nd1 2.414 . S
O23 C9 1.273 . S
O24 Nd0 2.410 . S
O24 C10 1.251 . S
O25 Nd1 2.424 . S
O25 C10 1.268 . S
O26 Nd1 2.500 1_655 S
O26 C11 1.258 . S
O27 Nd1 2.492 1_655 S
O27 C11 1.239 . S
O28 Nd1 2.487 . S
O28 C18 1.241 . S
O29 Nd0 2.414 . S
O29 Nd1 2.682 . S
O29 C18 1.273 . S
O30 Nd1 2.410 1_655 S
O30 C19 1.251 . S
O31 Nd0 2.424 1_655 S
O31 C19 1.268 . S
H32 C4 0.930 . S
H33 C5 0.929 . S
H34 C7 0.930 . S
H35 C8 0.929 . S
H36 C13 0.930 . S
H37 C14 0.929 . S
H38 C16 0.930 . S
H39 C17 0.929 . S
Nd40 C42 2.836 1_545 S
Nd40 O60 2.500 1_545 S
Nd40 O61 2.492 1_545 S
Nd40 O62 2.487 . S
Nd40 O63 2.682 . S
Nd40 O64 2.410 1_545 S
Nd40 O69 2.414 . S
Nd40 O71 2.424 . S
Nd41 C51 2.836 . S
Nd41 O63 2.414 . S
Nd41 O65 2.424 1_545 S
Nd41 O66 2.500 . S
Nd41 O67 2.492 . S
Nd41 O68 2.487 . S
Nd41 O69 2.682 . S
Nd41 O70 2.410 . S
C42 Nd40 2.836 1_565 S
C42 C43 1.498 . S
C42 O60 1.258 . S
C42 O61 1.239 . S
C43 C42 1.498 . S
C43 C44 1.366 . S
C43 C48 1.407 . S
C44 C43 1.366 . S
C44 C45 1.392 . S
C44 H72 0.930 . S
C45 C44 1.392 . S
C45 C46 1.398 . S
C45 H73 0.929 . S
C46 C45 1.398 . S
C46 C47 1.352 . S
C47 C46 1.352 . S
C47 C48 1.384 . S
C47 H74 0.930 . S
C48 C43 1.407 . S
C48 C47 1.384 . S
C48 H75 0.929 . S
C49 O62 1.241 . S
C49 O63 1.273 . S
C50 O64 1.251 . S
C50 O65 1.268 . S
C51 Nd41 2.836 . S
C51 C52 1.498 . S
C51 O66 1.258 . S
C51 O67 1.239 . S
C52 C51 1.498 . S
C52 C53 1.366 . S
C52 C57 1.407 . S
C53 C52 1.366 . S
C53 C54 1.392 . S
C53 H76 0.930 . S
C54 C53 1.392 . S
C54 C55 1.398 . S
C54 H77 0.929 . S
C55 C54 1.398 . S
C55 C56 1.352 . S
C56 C55 1.352 . S
C56 C57 1.384 . S
C56 H78 0.930 . S
C57 C52 1.407 . S
C57 C56 1.384 . S
C57 H79 0.929 . S
C58 O68 1.241 . S
C58 O69 1.273 . S
C59 O70 1.251 . S
C59 O71 1.268 . S
O60 Nd40 2.500 1_565 S
O60 C42 1.258 . S
O61 Nd40 2.492 1_565 S
O61 C42 1.239 . S
O62 Nd40 2.487 . S
O62 C49 1.241 . S
O63 Nd40 2.682 . S
O63 Nd41 2.414 . S
O63 C49 1.273 . S
O64 Nd40 2.410 1_565 S
O64 C50 1.251 . S
O65 Nd41 2.424 1_565 S
O65 C50 1.268 . S
O66 Nd41 2.500 . S
O66 C51 1.258 . S
O67 Nd41 2.492 . S
O67 C51 1.239 . S
O68 Nd41 2.487 . S
O68 C58 1.241 . S
O69 Nd40 2.414 . S
O69 Nd41 2.682 . S
O69 C58 1.273 . S
O70 Nd41 2.410 . S
O70 C59 1.251 . S
O71 Nd40 2.424 . S
O71 C59 1.268 . S
H72 C44 0.930 . S
H73 C45 0.929 . S
H74 C47 0.930 . S
H75 C48 0.929 . S
H76 C53 0.930 . S
H77 C54 0.929 . S
H78 C56 0.930 . S
H79 C57 0.929 . S
Nd80 C82 2.836 . S
Nd80 O100 2.500 . S
Nd80 O101 2.492 . S
Nd80 O102 2.487 . S
Nd80 O103 2.682 . S
Nd80 O104 2.410 . S
Nd80 O109 2.414 . S
Nd80 O111 2.424 . S
Nd81 C91 2.836 . S
Nd81 O103 2.414 . S
Nd81 O105 2.424 . S
Nd81 O106 2.500 . S
Nd81 O107 2.492 . S
Nd81 O108 2.487 . S
Nd81 O109 2.682 . S
Nd81 O110 2.410 . S
C82 Nd80 2.836 . S
C82 C83 1.498 . S
C82 O100 1.258 . S
C82 O101 1.239 . S
C83 C82 1.498 . S
C83 C84 1.366 . S
C83 C88 1.407 . S
C84 C83 1.366 . S
C84 C85 1.392 . S
C84 H112 0.930 . S
C85 C84 1.392 . S
C85 C86 1.398 . S
C85 H113 0.929 . S
C86 C85 1.398 . S
C86 C87 1.352 . S
C87 C86 1.352 . S
C87 C88 1.384 . S
C87 H114 0.930 . S
C88 C83 1.407 . S
C88 C87 1.384 . S
C88 H115 0.929 . S
C89 O102 1.241 . S
C89 O103 1.273 . S
C90 O104 1.251 . S
C90 O105 1.268 . S
C91 Nd81 2.836 . S
C91 C92 1.498 . S
C91 O106 1.258 . S
C91 O107 1.239 . S
C92 C91 1.498 . S
C92 C93 1.366 . S
C92 C97 1.407 . S
C93 C92 1.366 . S
C93 C94 1.392 . S
C93 H116 0.930 . S
C94 C93 1.392 . S
C94 C95 1.398 . S
C94 H117 0.929 . S
C95 C94 1.398 . S
C95 C96 1.352 . S
C96 C95 1.352 . S
C96 C97 1.384 . S
C96 H118 0.930 . S
C97 C92 1.407 . S
C97 C96 1.384 . S
C97 H119 0.929 . S
C98 O108 1.241 . S
C98 O109 1.273 . S
C99 O110 1.251 . S
C99 O111 1.268 . S
O100 Nd80 2.500 . S
O100 C82 1.258 . S
O101 Nd80 2.492 . S
O101 C82 1.239 . S
O102 Nd80 2.487 . S
O102 C89 1.241 . S
O103 Nd80 2.682 . S
O103 Nd81 2.414 . S
O103 C89 1.273 . S
O104 Nd80 2.410 . S
O104 C90 1.251 . S
O105 Nd81 2.424 . S
O105 C90 1.268 . S
O106 Nd81 2.500 . S
O106 C91 1.258 . S
O107 Nd81 2.492 . S
O107 C91 1.239 . S
O108 Nd81 2.487 . S
O108 C98 1.241 . S
O109 Nd80 2.414 . S
O109 Nd81 2.682 . S
O109 C98 1.273 . S
O110 Nd81 2.410 . S
O110 C99 1.251 . S
O111 Nd80 2.424 . S
O111 C99 1.268 . S
H112 C84 0.930 . S
H113 C85 0.929 . S
H114 C87 0.930 . S
H115 C88 0.929 . S
H116 C93 0.930 . S
H117 C94 0.929 . S
H118 C96 0.930 . S
H119 C97 0.929 . S
H120 C125 0.930 . S
H121 C128 0.930 . S
H122 C130 0.930 1_565 S
H123 C124 1.016 . S
C124 H123 1.016 . S
C124 N131 1.286 . S
C125 H120 0.930 . S
C125 C126 1.397 1_545 S
C125 C127 1.361 . S
C126 C125 1.397 1_565 S
C126 C130 1.390 1_565 S
C127 C125 1.361 . S
C127 C128 1.393 . S
C127 N131 1.413 . S
C128 H121 0.930 . S
C128 C127 1.393 . S
C128 C129 1.399 . S
C129 C128 1.399 . S
C129 C130 1.381 . S
C130 H122 0.930 1_545 S
C130 C126 1.390 1_545 S
C130 C129 1.381 . S
N131 C124 1.286 . S
N131 C127 1.413 . S
H132 C137 0.930 . S
H133 C140 0.930 . S
H134 C142 0.930 . S
H135 C136 1.016 . S
C136 H135 1.016 . S
C136 N143 1.286 . S
C137 H132 0.930 . S
C137 C138 1.397 . S
C137 C139 1.361 . S
C138 C137 1.397 . S
C138 C142 1.390 . S
C139 C137 1.361 . S
C139 C140 1.393 . S
C139 N143 1.413 . S
C140 H133 0.930 . S
C140 C139 1.393 . S
C140 C141 1.399 . S
C141 C140 1.399 . S
C141 C142 1.381 . S
C142 H134 0.930 . S
C142 C138 1.390 . S
C142 C141 1.381 . S
N143 C136 1.286 . S
N143 C139 1.413 . S
H144 C149 0.930 . S
H145 C152 0.930 . S
H146 C154 0.930 . S
H147 C148 1.016 . S
C148 H147 1.016 . S
C148 N155 1.286 . S
C149 H144 0.930 . S
C149 C150 1.397 1_455 S
C149 C151 1.361 . S
C150 C149 1.397 1_655 S
C150 C154 1.390 . S
C151 C149 1.361 . S
C151 C152 1.393 . S
C151 N155 1.413 . S
C152 H145 0.930 . S
C152 C151 1.393 . S
C152 C153 1.399 . S
C153 C152 1.399 . S
C153 C154 1.381 1_455 S
C154 H146 0.930 . S
C154 C150 1.390 . S
C154 C153 1.381 1_655 S
N155 C148 1.286 . S
N155 C151 1.413 . S
H156 C161 0.930 . S
H157 C164 0.930 . S
H158 C166 0.930 . S
H159 C160 1.016 . S
C160 H159 1.016 . S
C160 N167 1.286 . S
C161 H156 0.930 . S
C161 C162 1.397 . S
C161 C163 1.361 1_455 S
C162 C161 1.397 . S
C162 C166 1.390 . S
C163 C161 1.361 1_655 S
C163 C164 1.393 . S
C163 N167 1.413 . S
C164 H157 0.930 . S
C164 C163 1.393 . S
C164 C165 1.399 1_655 S
C165 C164 1.399 1_455 S
C165 C166 1.381 . S
C166 H158 0.930 . S
C166 C162 1.390 . S
C166 C165 1.381 . S
N167 C160 1.286 . S
N167 C163 1.413 . S
H168 C173 0.930 . S
H169 C176 0.930 . S
H170 C178 0.930 . S
H171 C172 1.016 . S
C172 H171 1.016 . S
C172 N179 1.286 . S
C173 H168 0.930 . S
C173 C174 1.397 . S
C173 C175 1.361 1_545 S
C174 C173 1.397 . S
C174 C178 1.390 . S
C175 C173 1.361 1_565 S
C175 C176 1.393 . S
C175 N179 1.413 . S
C176 H169 0.930 . S
C176 C175 1.393 . S
C176 C177 1.399 1_565 S
C177 C176 1.399 1_545 S
C177 C178 1.381 . S
C178 H170 0.930 . S
C178 C174 1.390 . S
C178 C177 1.381 . S
N179 C172 1.286 . S
N179 C175 1.413 . S
H180 C185 0.930 . S
H181 C188 0.930 . S
H182 C190 0.930 . S
H183 C184 1.016 . S
C184 H183 1.016 . S
C184 N191 1.286 . S
C185 H180 0.930 . S
C185 C186 1.397 . S
C185 C187 1.361 . S
C186 C185 1.397 . S
C186 C190 1.390 . S
C187 C185 1.361 . S
C187 C188 1.393 . S
C187 N191 1.413 . S
C188 H181 0.930 . S
C188 C187 1.393 . S
C188 C189 1.399 . S
C189 C188 1.399 . S
C189 C190 1.381 . S
C190 H182 0.930 . S
C190 C186 1.390 . S
C190 C189 1.381 . S
N191 C184 1.286 . S
N191 C187 1.413 . S
C192 C193 1.387 . S
C192 H196 0.950 . S
C192 C201 1.390 . S
C193 C192 1.387 . S
C193 C195 1.387 . S
H194 C201 0.950 . S
C195 C193 1.387 . S
C195 C197 1.390 . S
C195 H199 0.950 . S
H196 C192 0.950 . S
C197 C195 1.390 . S
C197 C198 1.387 . S
C197 H200 0.950 . S
C198 C197 1.387 . S
C198 C201 1.387 . S
H199 C195 0.950 . S
H200 C197 0.950 . S
C201 C192 1.390 . S
C201 H194 0.950 . S
C201 C198 1.387 . S
C202 C203 1.387 . S
C202 H206 0.950 . S
C202 C211 1.390 . S
C203 C202 1.387 . S
C203 C205 1.387 . S
H204 C211 0.950 . S
C205 C203 1.387 . S
C205 C207 1.390 . S
C205 H209 0.950 . S
H206 C202 0.950 . S
C207 C205 1.390 . S
C207 C208 1.387 . S
C207 H210 0.950 . S
C208 C207 1.387 . S
C208 C211 1.387 . S
H209 C205 0.950 . S
H210 C207 0.950 . S
C211 C202 1.390 . S
C211 H204 0.950 . S
C211 C208 1.387 . S
C212 C213 1.387 . S
C212 H216 0.950 . S
C212 C221 1.390 . S
C213 C212 1.387 . S
C213 C215 1.387 . S
H214 C221 0.950 . S
C215 C213 1.387 . S
C215 C217 1.390 . S
C215 H219 0.950 . S
H216 C212 0.950 . S
C217 C215 1.390 . S
C217 C218 1.387 . S
C217 H220 0.950 . S
C218 C217 1.387 . S
C218 C221 1.387 . S
H219 C215 0.950 . S
H220 C217 0.950 . S
C221 C212 1.390 . S
C221 H214 0.950 . S
C221 C218 1.387 . S
C222 C223 1.387 . S
C222 H226 0.950 . S
C222 C231 1.390 . S
C223 C222 1.387 . S
C223 C225 1.387 . S
H224 C231 0.950 . S
C225 C223 1.387 . S
C225 C227 1.390 . S
C225 H229 0.950 . S
H226 C222 0.950 . S
C227 C225 1.390 . S
C227 C228 1.387 . S
C227 H230 0.950 . S
C228 C227 1.387 . S
C228 C231 1.387 . S
H229 C225 0.950 . S
H230 C227 0.950 . S
C231 C222 1.390 . S
C231 H224 0.950 . S
C231 C228 1.387 . S
C232 C233 1.387 . S
C232 H236 0.950 . S
C232 C241 1.390 . S
C233 C232 1.387 . S
C233 C235 1.387 . S
H234 C241 0.950 . S
C235 C233 1.387 . S
C235 C237 1.390 . S
C235 H239 0.950 . S
H236 C232 0.950 . S
C237 C235 1.390 . S
C237 C238 1.387 . S
C237 H240 0.950 . S
C238 C237 1.387 . S
C238 C241 1.387 . S
H239 C235 0.950 . S
H240 C237 0.950 . S
C241 C232 1.390 . S
C241 H234 0.950 . S
C241 C238 1.387 . S
C242 C243 1.387 . S
C242 H246 0.950 . S
C242 C251 1.390 . S
C243 C242 1.387 . S
C243 C245 1.387 . S
H244 C251 0.950 . S
C245 C243 1.387 . S
C245 C247 1.390 . S
C245 H249 0.950 . S
H246 C242 0.950 . S
C247 C245 1.390 . S
C247 C248 1.387 . S
C247 H250 0.950 . S
C248 C247 1.387 . S
C248 C251 1.387 . S
H249 C245 0.950 . S
H250 C247 0.950 . S
C251 C242 1.390 . S
C251 H244 0.950 . S
C251 C248 1.387 . S
C252 C253 1.387 . S
C252 H256 0.950 . S
C252 C261 1.390 . S
C253 C252 1.387 . S
C253 C255 1.387 . S
H254 C261 0.950 . S
C255 C253 1.387 . S
C255 C257 1.390 . S
C255 H259 0.950 . S
H256 C252 0.950 . S
C257 C255 1.390 . S
C257 C258 1.387 . S
C257 H260 0.950 . S
C258 C257 1.387 . S
C258 C261 1.387 . S
H259 C255 0.950 . S
H260 C257 0.950 . S
C261 C252 1.390 . S
C261 H254 0.950 . S
C261 C258 1.387 . S
C262 C263 1.387 . S
C262 H266 0.950 . S
C262 C271 1.390 . S
C263 C262 1.387 . S
C263 C265 1.387 . S
H264 C271 0.950 . S
C265 C263 1.387 . S
C265 C267 1.390 . S
C265 H269 0.950 . S
H266 C262 0.950 . S
C267 C265 1.390 . S
C267 C268 1.387 . S
C267 H270 0.950 . S
C268 C267 1.387 . S
C268 C271 1.387 . S
H269 C265 0.950 . S
H270 C267 0.950 . S
C271 C262 1.390 . S
C271 H264 0.950 . S
C271 C268 1.387 . S
C272 C273 1.387 . S
C272 H276 0.950 . S
C272 C281 1.390 . S
C273 C272 1.387 . S
C273 C275 1.387 . S
H274 C281 0.950 . S
C275 C273 1.387 . S
C275 C277 1.390 . S
C275 H279 0.950 . S
H276 C272 0.950 . S
C277 C275 1.390 . S
C277 C278 1.387 . S
C277 H280 0.950 . S
C278 C277 1.387 . S
C278 C281 1.387 . S
H279 C275 0.950 . S
H280 C277 0.950 . S
C281 C272 1.390 . S
C281 H274 0.950 . S
C281 C278 1.387 . S
C282 C283 1.387 . S
C282 H286 0.950 . S
C282 C291 1.390 . S
C283 C282 1.387 . S
C283 C285 1.387 . S
H284 C291 0.950 . S
C285 C283 1.387 . S
C285 C287 1.390 . S
C285 H289 0.950 . S
H286 C282 0.950 . S
C287 C285 1.390 . S
C287 C288 1.387 . S
C287 H290 0.950 . S
C288 C287 1.387 . S
C288 C291 1.387 . S
H289 C285 0.950 . S
H290 C287 0.950 . S
C291 C282 1.390 . S
C291 H284 0.950 . S
C291 C288 1.387 . S
C292 C293 1.387 . S
C292 H296 0.950 . S
C292 C301 1.390 . S
C293 C292 1.387 . S
C293 C295 1.387 . S
H294 C301 0.950 . S
C295 C293 1.387 . S
C295 C297 1.390 . S
C295 H299 0.950 . S
H296 C292 0.950 . S
C297 C295 1.390 . S
C297 C298 1.387 . S
C297 H300 0.950 . S
C298 C297 1.387 . S
C298 C301 1.387 . S
H299 C295 0.950 . S
H300 C297 0.950 . S
C301 C292 1.390 . S
C301 H294 0.950 . S
C301 C298 1.387 . S
C302 C303 1.387 . S
C302 H306 0.950 . S
C302 C311 1.390 . S
C303 C302 1.387 . S
C303 C305 1.387 . S
H304 C311 0.950 . S
C305 C303 1.387 . S
C305 C307 1.390 . S
C305 H309 0.950 . S
H306 C302 0.950 . S
C307 C305 1.390 . S
C307 C308 1.387 . S
C307 H310 0.950 . S
C308 C307 1.387 . S
C308 C311 1.387 . S
H309 C305 0.950 . S
H310 C307 0.950 . S
C311 C302 1.390 . S
C311 H304 0.950 . S
C311 C308 1.387 . S
C312 C313 1.387 . S
C312 H316 0.950 . S
C312 C321 1.390 . S
C313 C312 1.387 . S
C313 C315 1.387 . S
H314 C321 0.950 . S
C315 C313 1.387 . S
C315 C317 1.390 1_554 S
C315 H319 0.950 . S
H316 C312 0.950 . S
C317 C315 1.390 1_556 S
C317 C318 1.387 . S
C317 H320 0.950 . S
C318 C317 1.387 . S
C318 C321 1.387 1_556 S
H319 C315 0.950 . S
H320 C317 0.950 . S
C321 C312 1.390 . S
C321 H314 0.950 . S
C321 C318 1.387 1_554 S
C322 C323 1.387 . S
C322 H326 0.950 . S
C322 C331 1.390 . S
C323 C322 1.387 . S
C323 C325 1.387 1_545 S
H324 C331 0.950 . S
C325 C323 1.387 1_565 S
C325 C327 1.390 . S
C325 H329 0.950 . S
H326 C322 0.950 . S
C327 C325 1.390 . S
C327 C328 1.387 1_565 S
C327 H330 0.950 . S
C328 C327 1.387 1_545 S
C328 C331 1.387 . S
H329 C325 0.950 . S
H330 C327 0.950 . S
C331 C322 1.390 . S
C331 H324 0.950 . S
C331 C328 1.387 . S
C332 C333 1.387 . S
C332 H336 0.950 . S
C332 C341 1.390 . S
C333 C332 1.387 . S
C333 C335 1.387 . S
H334 C341 0.950 . S
C335 C333 1.387 . S
C335 C337 1.390 . S
C335 H339 0.950 . S
H336 C332 0.950 . S
C337 C335 1.390 . S
C337 C338 1.387 . S
C337 H340 0.950 . S
C338 C337 1.387 . S
C338 C341 1.387 . S
H339 C335 0.950 . S
H340 C337 0.950 . S
C341 C332 1.390 . S
C341 H334 0.950 . S
C341 C338 1.387 . S
C342 C343 1.387 . S
C342 H346 0.950 1_545 S
C342 C351 1.394 . S
C343 C342 1.387 . S
C343 C345 1.387 . S
H344 C351 0.944 1_565 S
C345 C343 1.387 . S
C345 C347 1.390 . S
C345 H349 0.950 . S
H346 C342 0.950 1_565 S
C347 C345 1.390 . S
C347 C348 1.387 . S
C347 H350 0.950 . S
C348 C347 1.387 . S
C348 C351 1.390 . S
H349 C345 0.950 . S
H350 C347 0.950 . S
C351 C342 1.394 . S
C351 H344 0.944 1_545 S
C351 C348 1.390 . S
C352 C353 1.387 . S
C352 H356 0.950 . S
C352 C361 1.390 1_556 S
C353 C352 1.387 . S
C353 C355 1.387 . S
H354 C361 0.950 . S
C355 C353 1.387 . S
C355 C357 1.390 . S
C355 H359 0.950 . S
H356 C352 0.950 . S
C357 C355 1.390 . S
C357 C358 1.387 1_556 S
C357 H360 0.950 1_556 S
C358 C357 1.387 1_554 S
C358 C361 1.387 . S
H359 C355 0.950 . S
H360 C357 0.950 1_554 S
C361 C352 1.390 1_554 S
C361 H354 0.950 . S
C361 C358 1.387 . S
C362 C363 1.387 . S
C362 H366 0.950 . S
C362 C371 1.390 . S
C363 C362 1.387 . S
C363 C365 1.387 1_455 S
H364 C371 0.950 . S
C365 C363 1.387 1_655 S
C365 C367 1.390 . S
C365 H369 0.950 . S
H366 C362 0.950 . S
C367 C365 1.390 . S
C367 C368 1.387 1_655 S
C367 H370 0.950 . S
C368 C367 1.387 1_455 S
C368 C371 1.387 . S
H369 C365 0.950 . S
H370 C367 0.950 . S
C371 C362 1.390 . S
C371 H364 0.950 . S
C371 C368 1.387 . S
C193 C10 3.325 . S
C198 C186 3.297 . S
C203 C55 1.369 . S
C208 C160 1.406 . S
C213 C90 1.981 . S
C218 C172 1.928 . S
C223 C19 2.917 . S
C228 C184 2.802 . S
C238 C162 1.265 . S
C233 C46 1.229 . S
C248 C174 1.931 . S
C243 C99 1.945 . S
C253 C50 1.966 . S
C258 C136 1.893 . S
C263 C95 1.171 . S
C268 C150 1.304 . S
C273 C6 1.233 . S
C278 C126 1.252 . S
C288 C138 1.876 . S
C283 C59 1.920 . S
C298 C148 0.505 . S
C293 C86 0.648 . S
C303 C15 1.421 . S
C308 C124 1.474 . S
C318 C153 1.188 . S
C313 C18 1.167 . S
C323 C49 1.505 . S
C328 C129 1.515 . S
C333 C98 1.387 . S
C338 C141 1.416 . S
C348 C177 1.453 . S
C343 C58 1.385 . S
C358 C189 1.826 . S
C353 C89 1.717 . S
C363 C9 1.499 . S
C368 C165 1.520 . S
