# Generated by pormake.
# Topology rtl, (3,6)-cn, num edge types: 1
# Building blocks:
#     Node 0, Type 0, BuildingBlock: PAMTOO_clean_linker_0, # of connection points: 3
#     Node 1, Type 0, BuildingBlock: PAMTOO_clean_linker_0, # of connection points: 3
#     Node 2, Type 0, BuildingBlock: PAMTOO_clean_linker_0, # of connection points: 3
#     Node 3, Type 0, BuildingBlock: PAMTOO_clean_linker_0, # of connection points: 3
#     Node 4, Type 1, BuildingBlock: VOLQOD_clean_sbu_1, # of connection points: 6
#     Node 5, Type 1, BuildingBlock: VOLQOD_clean_sbu_1, # of connection points: 6
#     Edge 6, Type (0, 1), BuildingBlock: XUDNAN_clean_linker_2, # of connection points: 2
#     Edge 7, Type (0, 1), BuildingBlock: XUDNAN_clean_linker_2, # of connection points: 2
#     Edge 8, Type (0, 1), BuildingBlock: XUDNAN_clean_linker_2, # of connection points: 2
#     Edge 9, Type (0, 1), BuildingBlock: XUDNAN_clean_linker_2, # of connection points: 2
#     Edge 10, Type (0, 1), BuildingBlock: XUDNAN_clean_linker_2, # of connection points: 2
#     Edge 11, Type (0, 1), BuildingBlock: XUDNAN_clean_linker_2, # of connection points: 2
#     Edge 12, Type (0, 1), BuildingBlock: XUDNAN_clean_linker_2, # of connection points: 2
#     Edge 13, Type (0, 1), BuildingBlock: XUDNAN_clean_linker_2, # of connection points: 2
#     Edge 14, Type (0, 1), BuildingBlock: XUDNAN_clean_linker_2, # of connection points: 2
#     Edge 15, Type (0, 1), BuildingBlock: XUDNAN_clean_linker_2, # of connection points: 2
#     Edge 16, Type (0, 1), BuildingBlock: XUDNAN_clean_linker_2, # of connection points: 2
#     Edge 17, Type (0, 1), BuildingBlock: XUDNAN_clean_linker_2, # of connection points: 2
# Relax obj value: 0.042
# Max RMSD: 0.144
# Mean RMSD: 0.095
data_MOF--net-rtl--node1-VOLQOD_clean_sbu_1--node2-PAMTOO_clean_linker_0--edge1-XUDNAN_clean_linker_2
_symmetry_space_group_name_H-M    P1
_symmetry_Int_Tables_number       1
_symmetry_cell_setting            triclinic
loop_
_symmetry_equiv_pos_as_xyz
'x, y, z'
_cell_length_a     37.411888
_cell_length_b     37.877439
_cell_length_c     21.928999
_cell_angle_alpha  92.588032
_cell_angle_beta   90.233199
_cell_angle_gamma 89.858108
loop_
_atom_site_label
_atom_site_type_symbol
_atom_site_fract_x
_atom_site_fract_y
_atom_site_fract_z
_atom_type_partial_charge
H0 H 0.13657 0.85182 0.96707 0.0
H1 H 0.2078 0.78723 0.06966 0.0
H2 H 0.21914 0.79073 0.87546 0.0
H3 H 0.23182 0.72084 0.91928 0.0
C4 C 0.24009 0.72768 0.96716 0.0
O5 O 0.24431 0.76381 0.97449 0.0
H6 H 0.2189 0.71858 -0.00175 0.0
C7 C 0.1594 0.83419 0.96893 0.0
C8 C 0.17669 0.82325 0.91459 0.0
C9 C 0.17018 0.82136 0.02522 0.0
C10 C 0.19883 0.7973 0.02672 0.0
C11 C 0.21637 0.78638 0.9727 0.0
C12 C 0.20531 0.79932 0.91687 0.0
H13 H 0.65242 0.64061 0.52539 0.0
H14 H 0.71283 0.71985 0.43639 0.0
H15 H 0.70739 0.72207 0.63194 0.0
H16 H 0.69723 0.7908 0.56908 0.0
C17 C 0.71819 0.7868 0.53349 0.0
O18 O 0.73285 0.75351 0.53753 0.0
H19 H 0.70558 0.78925 0.48786 0.0
C20 C 0.66851 0.66441 0.528 0.0
C21 C 0.67803 0.67959 0.5853 0.0
C22 C 0.68088 0.67861 0.47399 0.0
C23 C 0.70316 0.7084 0.4776 0.0
C24 C 0.71229 0.72421 0.5345 0.0
C25 C 0.69997 0.70971 0.5882 0.0
H26 H 0.90658 0.17649 0.00944 0.0
H27 H 0.83813 0.23692 0.89581 0.0
H28 H 0.80757 0.2198 0.08027 0.0
H29 H 0.75556 0.20944 0.97282 0.0
C30 C 0.75929 0.23674 0.95705 0.0
O31 O 0.79053 0.25107 0.9808 0.0
H32 H 0.76088 0.23521 0.9064 0.0
C33 C 0.88236 0.19174 0.00387 0.0
C34 C 0.85805 0.19589 0.05243 0.0
C35 C 0.87517 0.20572 0.94698 0.0
C36 C 0.84413 0.22594 0.93948 0.0
C37 C 0.82033 0.23149 0.98812 0.0
C38 C 0.82706 0.21628 0.04412 0.0
H39 H 0.35493 0.37521 0.5125 0.0
H40 H 0.2988 0.28757 0.58629 0.0
H41 H 0.29019 0.30745 0.39547 0.0
H42 H 0.22351 0.29096 0.45843 0.0
C43 C 0.23355 0.27013 0.48843 0.0
O44 O 0.27004 0.26639 0.48212 0.0
H45 H 0.22712 0.27855 0.53643 0.0
C46 C 0.3368 0.35299 0.50702 0.0
C47 C 0.32296 0.34425 0.4489 0.0
C48 C 0.32852 0.33288 0.55726 0.0
C49 C 0.30607 0.30333 0.54826 0.0
C50 C 0.29224 0.2943 0.49006 0.0
C51 C 0.30103 0.31451 0.44027 0.0
O52 O 0.92176 0.98326 0.51727 0.0
Zn53 Zn 0.95766 0.02148 0.50369 0.0
O54 O 0.00471 1.00154 0.48549 0.0
Zn55 Zn 0.0385 0.01882 0.54857 0.0
Zn56 Zn 0.00177 0.94998 0.48423 0.0
Zn57 Zn 0.02042 0.01591 0.40526 0.0
O58 O 0.0768 0.04861 0.5123 0.0
O59 O 0.06218 0.04947 0.41414 0.0
O60 O 0.95848 0.05411 0.57819 0.0
O61 O 0.01444 0.05135 0.61126 0.0
O62 O 0.06091 0.97828 0.59199 0.0
O63 O 0.03345 0.93127 0.54947 0.0
O64 O 0.02098 0.92809 0.40568 0.0
O65 O 0.93995 0.05001 0.43493 0.0
O66 O 0.03657 0.97391 0.35219 0.0
O67 O 0.98097 0.04188 0.36252 0.0
C68 C 0.9225 0.94963 0.51226 0.0
C69 C 0.0821 0.05942 0.45892 0.0
C70 C 0.05576 0.945 0.58756 0.0
C71 C 0.98276 0.06344 0.61631 0.0
C72 C 0.03478 0.94066 0.35835 0.0
C73 C 0.95134 0.05488 0.38138 0.0
O74 O 0.95114 0.93299 0.4979 0.0
O75 O 0.58725 0.45026 0.0118 0.0
Zn76 Zn 0.56462 0.49881 0.014 0.0
O77 O 0.51259 0.49703 0.01581 0.0
Zn78 Zn 0.49224 0.51581 0.94062 0.0
Zn79 Zn 0.49862 0.44795 0.02421 0.0
Zn80 Zn 0.4955 0.52511 0.08638 0.0
O81 O 0.45593 0.55477 0.96094 0.0
O82 O 0.46375 0.56435 0.06071 0.0
O83 O 0.58067 0.52462 0.94198 0.0
O84 O 0.53159 0.53765 0.89016 0.0
O85 O 0.46692 0.47663 0.89063 0.0
O86 O 0.47127 0.43092 0.95042 0.0
O87 O 0.46683 0.44195 0.09679 0.0
O88 O 0.5842 0.5266 0.08678 0.0
O89 O 0.46502 0.49603 0.13993 0.0
O90 O 0.536 0.54616 0.13643 0.0
C91 C 0.57445 0.41991 0.02157 0.0
C92 C 0.44894 0.57211 0.01071 0.0
C93 C 0.46066 0.44437 0.90138 0.0
C94 C 0.56545 0.53903 0.89744 0.0
C95 C 0.45568 0.46372 0.13838 0.0
C96 C 0.56983 0.54434 0.13088 0.0
O97 O 0.54114 0.41566 0.03019 0.0
H98 H 0.20687 0.2208 0.56442 0.0
H99 H 0.21978 0.24237 0.37344 0.0
H100 H 0.18695 0.18736 0.34409 0.0
H101 H 0.21491 0.12376 0.54657 0.0
H102 H 0.18157 0.11654 0.60377 0.0
H103 H 0.20887 0.15571 0.60916 0.0
H104 H 0.15184 0.19474 0.61323 0.0
H105 H 0.12444 0.15576 0.60793 0.0
H106 H 0.11892 0.1895 0.55324 0.0
H107 H 0.1481 0.13311 0.33642 0.0
H108 H 0.10652 0.08363 0.35056 0.0
H109 H 0.11983 0.09728 0.54703 0.0
C110 C 0.20309 0.21363 0.51647 0.0
C111 C 0.21541 0.23575 0.47099 0.0
C112 C 0.2102 0.22568 0.4087 0.0
C113 C 0.19175 0.19453 0.39174 0.0
C114 C 0.17915 0.17361 0.43774 0.0
C115 C 0.18478 0.18264 0.49883 0.0
C116 C 0.16688 0.15668 0.53936 0.0
C117 C 0.19473 0.137 0.57692 0.0
C118 C 0.13886 0.17529 0.58086 0.0
C119 C 0.14949 0.13217 0.49161 0.0
C120 C 0.15713 0.14217 0.43327 0.0
C121 C 0.14232 0.12474 0.38187 0.0
C122 C 0.11868 0.09669 0.39038 0.0
C123 C 0.11003 0.08637 0.44988 0.0
C124 C 0.12624 0.10409 0.50091 0.0
H125 H 0.27863 0.67913 0.89604 0.0
H126 H 0.27816 0.73443 0.07349 0.0
H127 H 0.33375 0.7033 0.10136 0.0
H128 H 0.3079 0.59637 0.94797 0.0
H129 H 0.3354 0.58559 0.88241 0.0
H130 H 0.29701 0.61384 0.87504 0.0
H131 H 0.33721 0.66227 0.83165 0.0
H132 H 0.37577 0.63415 0.83899 0.0
H133 H 0.37556 0.67791 0.87487 0.0
H134 H 0.3874 0.66469 0.11135 0.0
H135 H 0.43513 0.6199 0.10472 0.0
H136 H 0.40096 0.58895 0.92043 0.0
C137 C 0.29054 0.68492 0.94045 0.0
C138 C 0.27456 0.70948 0.98251 0.0
C139 C 0.2904 0.71599 0.04059 0.0
C140 C 0.32189 0.69848 0.05668 0.0
C141 C 0.33706 0.67447 0.01417 0.0
C142 C 0.32194 0.6676 0.95728 0.0
C143 C 0.34282 0.63942 0.92119 0.0
C144 C 0.31938 0.60688 0.90578 0.0
C145 C 0.35879 0.65434 0.86325 0.0
C146 C 0.37177 0.63119 0.96701 0.0
C147 C 0.36802 0.65191 0.02013 0.0
C148 C 0.39074 0.64845 0.06988 0.0
C149 C 0.41778 0.62284 0.06562 0.0
C150 C 0.42193 0.60086 0.01199 0.0
C151 C 0.39878 0.60552 0.96181 0.0
H152 H 0.78775 0.78565 0.49061 0.0
H153 H 0.71143 0.85202 0.59069 0.0
H154 H 0.75578 0.90032 0.59809 0.0
H155 H 0.86694 0.81596 0.57588 0.0
H156 H 0.8952 0.81415 0.50944 0.0
H157 H 0.85782 0.78447 0.51369 0.0
H158 H 0.83334 0.80655 0.41145 0.0
H159 H 0.87053 0.8364 0.40701 0.0
H160 H 0.82544 0.85313 0.4039 0.0
H161 H 0.80704 0.94204 0.59052 0.0
H162 H 0.86276 0.97426 0.57155 0.0
H163 H 0.90696 0.88029 0.47902 0.0
C164 C 0.78068 0.81014 0.51505 0.0
C165 C 0.7465 0.81489 0.54152 0.0
C166 C 0.73775 0.84767 0.57136 0.0
C167 C 0.7627 0.87522 0.57561 0.0
C168 C 0.79625 0.8696 0.54956 0.0
C169 C 0.8054 0.83784 0.52015 0.0
C170 C 0.84309 0.83898 0.49517 0.0
C171 C 0.86718 0.81178 0.52536 0.0
C172 C 0.84308 0.83344 0.42524 0.0
C173 C 0.85357 0.87644 0.51468 0.0
C174 C 0.82608 0.89363 0.54581 0.0
C175 C 0.82887 0.92879 0.56662 0.0
C176 C 0.86061 0.9469 0.55541 0.0
C177 C 0.88932 0.9298 0.52399 0.0
C178 C 0.88567 0.89401 0.50368 0.0
H179 H 0.75024 0.30748 0.93953 0.0
H180 H 0.69798 0.21756 0.01577 0.0
H181 H 0.6458 0.25509 0.04354 0.0
H182 H 0.71879 0.37327 0.05346 0.0
H183 H 0.71313 0.40709 -0.00104 0.0
H184 H 0.74666 0.37332 0.98659 0.0
H185 H 0.71913 0.35684 0.88049 0.0
H186 H 0.68552 0.39051 0.89254 0.0
H187 H 0.67244 0.34542 0.87486 0.0
H188 H 0.59851 0.30169 0.05889 0.0
H189 H 0.55959 0.35441 0.06274 0.0
H190 H 0.64335 0.41463 0.97889 0.0
C191 C 0.72789 0.29591 0.9626 0.0
C192 C 0.7281 0.2598 0.97604 0.0
C193 C 0.69833 0.24526 0.00554 0.0
C194 C 0.66865 0.26635 0.02145 0.0
C195 C 0.66927 0.3019 0.00764 0.0
C196 C 0.69816 0.31663 0.97913 0.0
C197 C 0.69183 0.35541 0.9686 0.0
C198 C 0.71923 0.37864 0.00403 0.0
C199 C 0.69225 0.36244 0.90005 0.0
C200 C 0.6547 0.36009 -0.00495 0.0
C201 C 0.64218 0.3289 0.01729 0.0
C202 C 0.60811 0.32634 0.04204 0.0
C203 C 0.58618 0.35643 0.0439 0.0
C204 C 0.59844 0.38873 0.02139 0.0
C205 C 0.6333 0.39048 -0.00292 0.0
H206 H 0.14848 0.88829 0.06055 0.0
H207 H 0.14739 0.77991 0.11672 0.0
H208 H 0.11133 0.79835 0.20705 0.0
H209 H 0.15542 0.92963 0.21152 0.0
H210 H 0.12692 0.96624 0.19379 0.0
H211 H 0.15309 0.94435 0.13456 0.0
H212 H 0.09553 0.93282 0.0706 0.0
H213 H 0.06914 0.95442 0.12988 0.0
H214 H 0.05869 0.90985 0.10358 0.0
H215 H 0.07376 0.82853 0.28933 0.0
H216 H 0.04126 0.86861 0.36157 0.0
H217 H 0.0671 0.9573 0.25094 0.0
C218 C 0.14063 0.86841 0.09184 0.0
C219 C 0.15066 0.83264 0.08162 0.0
C220 C 0.14029 0.80751 0.12404 0.0
C221 C 0.11959 0.81769 0.17515 0.0
C222 C 0.10966 0.8531 0.18323 0.0
C223 C 0.12012 0.87812 0.14303 0.0
C224 C 0.10623 0.91449 0.16231 0.0
C225 C 0.13726 0.94018 0.1764 0.0
C226 C 0.08089 0.92872 0.1137 0.0
C227 C 0.0862 0.90605 0.21965 0.0
C228 C 0.08834 0.87048 0.23077 0.0
C229 C 0.07197 0.85644 0.28115 0.0
C230 C 0.05345 0.87946 0.32183 0.0
C231 C 0.05156 0.91619 0.31208 0.0
C232 C 0.06791 0.92941 0.25979 0.0
H233 H 0.61132 0.65416 0.61071 0.0
H234 H 0.71841 0.66583 0.68567 0.0
H235 H 0.70067 0.63187 0.77419 0.0
H236 H 0.56405 0.66053 0.75674 0.0
H237 H 0.53114 0.62808 0.73266 0.0
H238 H 0.55169 0.65523 0.67731 0.0
H239 H 0.57149 0.59892 0.6148 0.0
H240 H 0.55134 0.57159 0.67023 0.0
H241 H 0.5979 0.56597 0.65124 0.0
H242 H 0.673 0.59306 0.84958 0.0
H243 H 0.63586 0.55597 0.91288 0.0
H244 H 0.54591 0.56969 0.79003 0.0
C245 C 0.63094 0.64981 0.64606 0.0
C246 C 0.66627 0.66264 0.64144 0.0
C247 C 0.69112 0.65663 0.68872 0.0
C248 C 0.68135 0.63717 0.73888 0.0
C249 C 0.64659 0.62417 0.74123 0.0
C250 C 0.6216 0.63058 0.69654 0.0
C251 C 0.58619 0.61311 0.70963 0.0
C252 C 0.55651 0.6409 0.7197 0.0
C253 C 0.57616 0.58577 0.65843 0.0
C254 C 0.59535 0.5954 0.76828 0.0
C255 C 0.63037 0.60209 0.78545 0.0
C256 C 0.64545 0.58788 0.83695 0.0
C257 C 0.62407 0.56665 0.87244 0.0
C258 C 0.58782 0.55986 0.8566 0.0
C259 C 0.57342 0.57442 0.80354 0.0
H260 H 0.89022 0.13133 0.06641 0.0
H261 H 0.84152 0.21916 0.17031 0.0
H262 H 0.85538 0.18969 0.26575 0.0
H263 H 0.86667 0.06102 0.16447 0.0
H264 H 0.90919 0.03904 0.15476 0.0
H265 H 0.8913 0.06476 0.09457 0.0
H266 H 0.94928 0.10213 0.09495 0.0
H267 H 0.96738 0.07649 0.15495 0.0
H268 H 0.9643 0.12389 0.16522 0.0
H269 H 0.87672 0.15129 0.35017 0.0
H270 H 0.90793 0.11001 0.41662 0.0
H271 H 0.94835 0.05158 0.25662 0.0
C272 C 0.88262 0.14477 0.10899 0.0
C273 C 0.8648 0.17782 0.11038 0.0
C274 C 0.85465 0.19365 0.16758 0.0
C275 C 0.86257 0.17718 0.22216 0.0
C276 C 0.88091 0.14506 0.21882 0.0
C277 C 0.89107 0.12924 0.16364 0.0
C278 C 0.91308 0.09627 0.17225 0.0
C279 C 0.8939 0.06333 0.14489 0.0
C280 C 0.95073 0.09994 0.14526 0.0
C281 C 0.91422 0.09621 0.24111 0.0
C282 C 0.89487 0.12411 0.26718 0.0
C283 C 0.89195 0.12938 0.33024 0.0
C284 C 0.90967 0.10577 0.36754 0.0
C285 C 0.93062 0.07778 0.34159 0.0
C286 C 0.93268 0.0729 0.27759 0.0
H287 H 0.33972 0.39959 0.60806 0.0
H288 H 0.35412 0.28851 0.64335 0.0
H289 H 0.38649 0.30528 0.73862 0.0
H290 H 0.42638 0.42542 0.65221 0.0
H291 H 0.41325 0.46785 0.68546 0.0
H292 H 0.38713 0.4474 0.62453 0.0
H293 H 0.33047 0.45158 0.6921 0.0
H294 H 0.35635 0.47233 0.75315 0.0
H295 H 0.33112 0.43293 0.7663 0.0
H296 H 0.42101 0.33406 0.82571 0.0
H297 H 0.45467 0.37244 0.89903 0.0
H298 H 0.42095 0.46468 0.80283 0.0
C299 C 0.3495 0.37867 0.63582 0.0
C300 C 0.34437 0.34266 0.61799 0.0
C301 C 0.35719 0.31626 0.65635 0.0
C302 C 0.37584 0.32553 0.71036 0.0
C303 C 0.38144 0.36127 0.72526 0.0
C304 C 0.36855 0.38742 0.6892 0.0
C305 C 0.3801 0.42377 0.71317 0.0
C306 C 0.40308 0.44217 0.66603 0.0
C307 C 0.34757 0.44649 0.73233 0.0
C308 C 0.40207 0.41397 0.76795 0.0
C309 C 0.40216 0.37783 0.77448 0.0
C310 C 0.42096 0.3624 0.82126 0.0
C311 C 0.44004 0.38448 0.86263 0.0
C312 C 0.44051 0.42163 0.85668 0.0
C313 C 0.42125 0.43643 0.80852 0.0
H314 H 0.61441 0.65674 0.43742 0.0
H315 H 0.72442 0.66166 0.37674 0.0
H316 H 0.70787 0.62862 0.28078 0.0
H317 H 0.59703 0.56956 0.38152 0.0
H318 H 0.55163 0.57836 0.35883 0.0
H319 H 0.57176 0.60418 0.42072 0.0
H320 H 0.55772 0.66176 0.3656 0.0
H321 H 0.53729 0.63614 0.30371 0.0
H322 H 0.573 0.66633 0.28849 0.0
H323 H 0.6798 0.59154 0.19496 0.0
H324 H 0.64177 0.55681 0.12232 0.0
H325 H 0.55007 0.57698 0.23977 0.0
C326 C 0.63497 0.65102 0.40375 0.0
C327 C 0.6707 0.66162 0.41435 0.0
C328 C 0.69683 0.65401 0.36911 0.0
C329 C 0.68772 0.63512 0.31475 0.0
C330 C 0.65234 0.6244 0.30636 0.0
C331 C 0.62632 0.63242 0.34935 0.0
C332 C 0.59039 0.61746 0.32989 0.0
C333 C 0.57693 0.59081 0.37545 0.0
C334 C 0.56299 0.6472 0.3214 0.0
C335 C 0.6003 0.59931 0.26949 0.0
C336 C 0.63614 0.60354 0.25673 0.0
C337 C 0.65164 0.5883 0.20423 0.0
C338 C 0.62983 0.56848 0.1634 0.0
C339 C 0.59289 0.56423 0.17524 0.0
C340 C 0.57812 0.57988 0.22915 0.0
H341 H 0.85426 0.17725 0.83641 0.0
H342 H 0.94817 0.2086 0.94166 0.0
H343 H 0.98678 0.17932 0.86324 0.0
H344 H 0.8825 0.09382 0.79651 0.0
H345 H 0.86408 0.09154 0.72036 0.0
H346 H 0.84403 0.12017 0.77829 0.0
H347 H 0.85189 0.17399 0.7108 0.0
H348 H 0.87136 0.14539 0.6519 0.0
H349 H 0.89544 0.18375 0.68103 0.0
H350 H 0.01424 0.13961 0.7816 0.0
H351 H 0.02899 0.09577 0.69871 0.0
H352 H 0.91685 0.09036 0.64709 0.0
C353 C 0.883 0.17922 0.84157 0.0
C354 C 0.89834 0.19543 0.89459 0.0
C355 C 0.93601 0.19642 0.90105 0.0
C356 C 0.9581 0.17989 0.8568 0.0
C357 C 0.94205 0.16273 0.8063 0.0
C358 C 0.90538 0.16273 0.79797 0.0
C359 C 0.89465 0.13974 0.7427 0.0
C360 C 0.86986 0.10954 0.76058 0.0
C361 C 0.87732 0.16206 0.6937 0.0
C362 C 0.93087 0.12589 0.72247 0.0
C363 C 0.9579 0.13967 0.75936 0.0
C364 C 0.99337 0.1291 0.75173 0.0
C365 C 0.00144 0.10399 0.70478 0.0
C366 C 0.97412 0.08965 0.66623 0.0
C367 C 0.93843 0.10097 0.67536 0.0
H368 H 0.35763 0.32475 0.34308 0.0
H369 H 0.31111 0.41458 0.44344 0.0
H370 H 0.33622 0.45474 0.36906 0.0
H371 H 0.43819 0.36411 0.31387 0.0
H372 H 0.44439 0.34474 0.23805 0.0
H373 H 0.41795 0.32219 0.29242 0.0
H374 H 0.36413 0.32027 0.21766 0.0
H375 H 0.39061 0.34234 0.16247 0.0
H376 H 0.34818 0.36068 0.18657 0.0
H377 H 0.37265 0.48537 0.2938 0.0
H378 H 0.41527 0.50494 0.21703 0.0
H379 H 0.43869 0.3954 0.16429 0.0
C380 C 0.3517 0.35274 0.34778 0.0
C381 C 0.33217 0.36675 0.39818 0.0
C382 C 0.3258 0.40356 0.40456 0.0
C383 C 0.33994 0.42648 0.36266 0.0
C384 C 0.36028 0.41208 0.31465 0.0
C385 C 0.36585 0.37606 0.30641 0.0
C386 C 0.3913 0.36787 0.25403 0.0
C387 C 0.42494 0.3486 0.27594 0.0
C388 C 0.37242 0.34653 0.2021 0.0
C389 C 0.39996 0.40493 0.23552 0.0
C390 C 0.38157 0.42997 0.27084 0.0
C391 C 0.38677 0.46604 0.26507 0.0
C392 C 0.41126 0.47688 0.22164 0.0
C393 C 0.43026 0.45172 0.18449 0.0
C394 C 0.42431 0.41528 0.19152 0.0
H395 H 0.15971 0.8911 0.88742 0.0
H396 H 0.16326 0.78381 0.80957 0.0
H397 H 0.1356 0.80402 0.7146 0.0
H398 H 0.07563 0.91346 0.82968 0.0
H399 H 0.08697 0.95843 0.81447 0.0
H400 H 0.10991 0.93618 0.874 0.0
H401 H 0.17082 0.94896 0.8237 0.0
H402 H 0.14806 0.97149 0.76412 0.0
H403 H 0.17803 0.9354 0.74484 0.0
H404 H 0.10208 0.83471 0.6331 0.0
H405 H 0.06883 0.87451 0.56708 0.0
H406 H 0.08862 0.96227 0.69698 0.0
C407 C 0.15503 0.87196 0.85005 0.0
C408 C 0.16361 0.83591 0.85561 0.0
C409 C 0.15724 0.81161 0.80583 0.0
C410 C 0.14142 0.82282 0.75192 0.0
C411 C 0.13256 0.85844 0.74844 0.0
C412 C 0.13954 0.88274 0.79585 0.0
C413 C 0.12637 0.91926 0.78132 0.0
C414 C 0.09804 0.93259 0.82761 0.0
C415 C 0.15769 0.94531 0.7783 0.0
C416 C 0.1101 0.91155 0.71886 0.0
C417 C 0.11396 0.87631 0.70076 0.0
C418 C 0.09934 0.86245 0.64635 0.0
C419 C 0.08034 0.88523 0.60936 0.0
C420 C 0.07633 0.92151 0.62676 0.0
C421 C 0.09167 0.93478 0.68207 0.0
loop_
_geom_bond_atom_site_label_1
_geom_bond_atom_site_label_2
_geom_bond_distance
_geom_bond_site_symmetry_2
_ccdc_geom_bond_type
H0 C7 0.929 . S
H1 C10 0.930 . S
H2 C12 0.929 . S
H3 C4 0.969 . S
C4 H3 0.969 . S
C4 O5 1.550 1_554 S
C4 H6 0.973 . S
O5 C4 1.550 1_556 S
O5 C11 1.412 . S
H6 C4 0.973 . S
C7 H0 0.929 . S
C7 C8 1.400 1_554 S
C7 C9 1.364 . S
C8 C7 1.400 1_556 S
C8 C12 1.377 . S
C9 C7 1.364 . S
C9 C10 1.374 . S
C10 H1 0.930 . S
C10 C9 1.374 . S
C10 C11 1.383 1_554 S
C11 O5 1.412 . S
C11 C10 1.383 1_556 S
C11 C12 1.394 . S
C12 H2 0.929 . S
C12 C8 1.377 . S
C12 C11 1.394 . S
H13 C20 0.929 . S
H14 C23 0.930 . S
H15 C25 0.929 . S
H16 C17 0.969 . S
C17 H16 0.969 . S
C17 O18 1.550 . S
C17 H19 0.973 . S
O18 C17 1.550 . S
O18 C24 1.412 . S
H19 C17 0.973 . S
C20 H13 0.929 . S
C20 C21 1.400 . S
C20 C22 1.364 . S
C21 C20 1.400 . S
C21 C25 1.377 . S
C22 C20 1.364 . S
C22 C23 1.374 . S
C23 H14 0.930 . S
C23 C22 1.374 . S
C23 C24 1.383 . S
C24 O18 1.412 . S
C24 C23 1.383 . S
C24 C25 1.394 . S
C25 H15 0.929 . S
C25 C21 1.377 . S
C25 C24 1.394 . S
H26 C33 0.929 . S
H27 C36 0.930 . S
H28 C38 0.929 . S
H29 C30 0.969 . S
C30 H29 0.969 . S
C30 O31 1.550 1_556 S
C30 H32 0.973 . S
O31 C30 1.550 1_554 S
O31 C37 1.412 . S
H32 C30 0.973 . S
C33 H26 0.929 . S
C33 C34 1.400 . S
C33 C35 1.364 1_554 S
C34 C33 1.400 . S
C34 C38 1.377 . S
C35 C33 1.364 1_556 S
C35 C36 1.374 . S
C36 H27 0.930 . S
C36 C35 1.374 . S
C36 C37 1.383 1_556 S
C37 O31 1.412 . S
C37 C36 1.383 1_554 S
C37 C38 1.394 . S
C38 H28 0.929 . S
C38 C34 1.377 . S
C38 C37 1.394 . S
H39 C46 0.929 . S
H40 C49 0.930 . S
H41 C51 0.929 . S
H42 C43 0.969 . S
C43 H42 0.969 . S
C43 O44 1.550 . S
C43 H45 0.973 . S
O44 C43 1.550 . S
O44 C50 1.412 . S
H45 C43 0.973 . S
C46 H39 0.929 . S
C46 C47 1.400 . S
C46 C48 1.364 . S
C47 C46 1.400 . S
C47 C51 1.377 . S
C48 C46 1.364 . S
C48 C49 1.374 . S
C49 H40 0.930 . S
C49 C48 1.374 . S
C49 C50 1.383 . S
C50 O44 1.412 . S
C50 C49 1.383 . S
C50 C51 1.394 . S
C51 H41 0.929 . S
C51 C47 1.377 . S
C51 C50 1.394 . S
O52 Zn53 1.953 1_565 S
O52 C68 1.225 . S
Zn53 O52 1.953 1_545 S
Zn53 O54 1.949 1_655 S
Zn53 O60 1.919 . S
Zn53 O65 1.924 . S
O54 Zn53 1.949 1_455 S
O54 Zn55 1.923 . S
O54 Zn56 1.950 1_545 S
O54 Zn57 1.945 . S
Zn55 O54 1.923 . S
Zn55 O58 1.933 . S
Zn55 O61 1.949 . S
Zn55 O62 1.965 1_545 S
Zn56 O54 1.950 1_565 S
Zn56 O63 1.938 . S
Zn56 O64 1.906 . S
Zn56 O74 1.953 1_455 S
Zn57 O54 1.945 . S
Zn57 O59 1.932 . S
Zn57 O66 1.977 1_545 S
Zn57 O67 1.910 1_455 S
O58 Zn55 1.933 . S
O58 C69 1.226 . S
O59 Zn57 1.932 . S
O59 C69 1.307 . S
O60 Zn53 1.919 . S
O60 C71 1.253 . S
O61 Zn55 1.949 . S
O61 C71 1.272 1_455 S
O62 Zn55 1.965 1_565 S
O62 C70 1.303 . S
O63 Zn56 1.938 . S
O63 C70 1.247 . S
O64 Zn56 1.906 . S
O64 C72 1.304 . S
O65 Zn53 1.924 . S
O65 C73 1.311 . S
O66 Zn57 1.977 1_565 S
O66 C72 1.272 . S
O67 Zn57 1.910 1_655 S
O67 C73 1.231 . S
C68 O52 1.225 . S
C68 O74 1.298 . S
C69 O58 1.226 . S
C69 O59 1.307 . S
C70 O62 1.303 . S
C70 O63 1.247 . S
C71 O60 1.253 . S
C71 O61 1.272 1_655 S
C72 O64 1.304 . S
C72 O66 1.272 . S
C73 O65 1.311 . S
C73 O67 1.231 . S
O74 Zn56 1.953 1_655 S
O74 C68 1.298 . S
O75 Zn76 1.953 . S
O75 C91 1.225 1_556 S
Zn76 O75 1.953 . S
Zn76 O77 1.949 1_556 S
Zn76 O83 1.919 . S
Zn76 O88 1.924 1_556 S
O77 Zn76 1.949 1_554 S
O77 Zn78 1.923 1_554 S
O77 Zn79 1.950 . S
O77 Zn80 1.945 . S
Zn78 O77 1.923 1_556 S
Zn78 O81 1.933 . S
Zn78 O84 1.941 . S
Zn78 O85 1.965 . S
Zn79 O77 1.950 . S
Zn79 O86 1.938 1_554 S
Zn79 O87 1.906 . S
Zn79 O97 1.953 . S
Zn80 O77 1.945 . S
Zn80 O82 1.932 . S
Zn80 O89 1.977 . S
Zn80 O90 1.910 . S
O81 Zn78 1.933 . S
O81 C92 1.226 1_556 S
O82 Zn80 1.932 . S
O82 C92 1.307 . S
O83 Zn76 1.919 . S
O83 C94 1.253 . S
O84 Zn78 1.941 . S
O84 C94 1.283 . S
O85 Zn78 1.965 . S
O85 C93 1.303 . S
O86 Zn79 1.938 1_556 S
O86 C93 1.247 . S
O87 Zn79 1.906 . S
O87 C95 1.304 . S
O88 Zn76 1.924 1_554 S
O88 C96 1.311 . S
O89 Zn80 1.977 . S
O89 C95 1.272 . S
O90 Zn80 1.910 . S
O90 C96 1.231 . S
C91 O75 1.225 1_554 S
C91 O97 1.298 . S
C92 O81 1.226 1_554 S
C92 O82 1.307 . S
C93 O85 1.303 . S
C93 O86 1.247 . S
C94 O83 1.253 . S
C94 O84 1.283 . S
C95 O87 1.304 . S
C95 O89 1.272 . S
C96 O88 1.311 . S
C96 O90 1.231 . S
O97 Zn79 1.953 . S
O97 C91 1.298 . S
H98 C110 0.930 . S
H99 C112 0.930 . S
H100 C113 0.930 . S
H101 C117 0.959 . S
H102 C117 0.959 . S
H103 C117 0.961 . S
H104 C118 0.960 . S
H105 C118 0.961 . S
H106 C118 0.959 . S
H107 C121 0.929 . S
H108 C122 0.931 . S
H109 C124 0.930 . S
C110 H98 0.930 . S
C110 C111 1.399 . S
C110 C115 1.399 . S
C111 C110 1.399 . S
C111 C112 1.376 . S
C112 H99 0.930 . S
C112 C111 1.376 . S
C112 C113 1.388 . S
C113 H100 0.930 . S
C113 C112 1.388 . S
C113 C114 1.390 . S
C114 C113 1.390 . S
C114 C115 1.394 . S
C114 C120 1.465 . S
C115 C110 1.399 . S
C115 C114 1.394 . S
C115 C116 1.516 . S
C116 C115 1.516 . S
C116 C117 1.502 . S
C116 C118 1.561 . S
C116 C119 1.526 . S
C117 H101 0.959 . S
C117 H102 0.959 . S
C117 H103 0.961 . S
C117 C116 1.502 . S
C118 H104 0.960 . S
C118 H105 0.961 . S
C118 H106 0.959 . S
C118 C116 1.561 . S
C119 C116 1.526 . S
C119 C120 1.396 . S
C119 C124 1.390 . S
C120 C114 1.465 . S
C120 C119 1.396 . S
C120 C121 1.399 . S
C121 H107 0.929 . S
C121 C120 1.399 . S
C121 C122 1.385 . S
C122 H108 0.931 . S
C122 C121 1.385 . S
C122 C123 1.389 . S
C123 C122 1.389 . S
C123 C124 1.387 . S
C124 H109 0.930 . S
C124 C119 1.390 . S
C124 C123 1.387 . S
H125 C137 0.930 . S
H126 C139 0.930 . S
H127 C140 0.930 . S
H128 C144 0.959 . S
H129 C144 0.959 . S
H130 C144 0.961 . S
H131 C145 0.960 . S
H132 C145 0.961 . S
H133 C145 0.959 . S
H134 C148 0.929 . S
H135 C149 0.931 . S
H136 C151 0.930 . S
C137 H125 0.930 . S
C137 C138 1.399 1_556 S
C137 C142 1.399 . S
C138 C137 1.399 1_554 S
C138 C139 1.376 . S
C139 H126 0.930 . S
C139 C138 1.376 . S
C139 C140 1.388 . S
C140 H127 0.930 . S
C140 C139 1.388 . S
C140 C141 1.390 . S
C141 C140 1.390 . S
C141 C142 1.394 1_554 S
C141 C147 1.465 . S
C142 C137 1.399 . S
C142 C141 1.394 1_556 S
C142 C143 1.516 . S
C143 C142 1.516 . S
C143 C144 1.502 . S
C143 C145 1.561 . S
C143 C146 1.526 . S
C144 H128 0.959 . S
C144 H129 0.959 . S
C144 H130 0.961 . S
C144 C143 1.502 . S
C145 H131 0.960 . S
C145 H132 0.961 . S
C145 H133 0.959 . S
C145 C143 1.561 . S
C146 C143 1.526 . S
C146 C147 1.396 1_556 S
C146 C151 1.390 . S
C147 C141 1.465 . S
C147 C146 1.396 1_554 S
C147 C148 1.399 . S
C148 H134 0.929 . S
C148 C147 1.399 . S
C148 C149 1.385 . S
C149 H135 0.931 . S
C149 C148 1.385 . S
C149 C150 1.389 . S
C150 C149 1.389 . S
C150 C151 1.387 1_554 S
C151 H136 0.930 . S
C151 C146 1.390 . S
C151 C150 1.387 1_556 S
H152 C164 0.930 . S
H153 C166 0.930 . S
H154 C167 0.930 . S
H155 C171 0.959 . S
H156 C171 0.959 . S
H157 C171 0.961 . S
H158 C172 0.960 . S
H159 C172 0.961 . S
H160 C172 0.959 . S
H161 C175 0.929 . S
H162 C176 0.931 . S
H163 C178 0.930 . S
C164 H152 0.930 . S
C164 C165 1.399 . S
C164 C169 1.399 . S
C165 C164 1.399 . S
C165 C166 1.376 . S
C166 H153 0.930 . S
C166 C165 1.376 . S
C166 C167 1.388 . S
C167 H154 0.930 . S
C167 C166 1.388 . S
C167 C168 1.390 . S
C168 C167 1.390 . S
C168 C169 1.394 . S
C168 C174 1.465 . S
C169 C164 1.399 . S
C169 C168 1.394 . S
C169 C170 1.516 . S
C170 C169 1.516 . S
C170 C171 1.502 . S
C170 C172 1.561 . S
C170 C173 1.526 . S
C171 H155 0.959 . S
C171 H156 0.959 . S
C171 H157 0.961 . S
C171 C170 1.502 . S
C172 H158 0.960 . S
C172 H159 0.961 . S
C172 H160 0.959 . S
C172 C170 1.561 . S
C173 C170 1.526 . S
C173 C174 1.396 . S
C173 C178 1.390 . S
C174 C168 1.465 . S
C174 C173 1.396 . S
C174 C175 1.399 . S
C175 H161 0.929 . S
C175 C174 1.399 . S
C175 C176 1.385 . S
C176 H162 0.931 . S
C176 C175 1.385 . S
C176 C177 1.389 . S
C177 C176 1.389 . S
C177 C178 1.387 . S
C178 H163 0.930 . S
C178 C173 1.390 . S
C178 C177 1.387 . S
H179 C191 0.930 . S
H180 C193 0.930 . S
H181 C194 0.930 . S
H182 C198 0.959 . S
H183 C198 0.959 . S
H184 C198 0.961 . S
H185 C199 0.960 . S
H186 C199 0.961 . S
H187 C199 0.959 . S
H188 C202 0.929 . S
H189 C203 0.931 . S
H190 C205 0.930 . S
C191 H179 0.930 . S
C191 C192 1.399 1_556 S
C191 C196 1.399 . S
C192 C191 1.399 1_554 S
C192 C193 1.376 . S
C193 H180 0.930 . S
C193 C192 1.376 . S
C193 C194 1.388 . S
C194 H181 0.930 . S
C194 C193 1.388 . S
C194 C195 1.390 . S
C195 C194 1.390 . S
C195 C196 1.394 1_554 S
C195 C201 1.465 . S
C196 C191 1.399 . S
C196 C195 1.394 1_556 S
C196 C197 1.516 . S
C197 C196 1.516 . S
C197 C198 1.502 . S
C197 C199 1.561 . S
C197 C200 1.526 . S
C198 H182 0.959 . S
C198 H183 0.959 . S
C198 H184 0.961 . S
C198 C197 1.502 . S
C199 H185 0.960 . S
C199 H186 0.961 . S
C199 H187 0.959 . S
C199 C197 1.561 . S
C200 C197 1.526 . S
C200 C201 1.396 1_556 S
C200 C205 1.390 . S
C201 C195 1.465 . S
C201 C200 1.396 1_554 S
C201 C202 1.399 . S
C202 H188 0.929 . S
C202 C201 1.399 . S
C202 C203 1.385 . S
C203 H189 0.931 . S
C203 C202 1.385 . S
C203 C204 1.389 . S
C204 C203 1.389 . S
C204 C205 1.387 1_554 S
C205 H190 0.930 . S
C205 C200 1.390 . S
C205 C204 1.387 1_556 S
H206 C218 0.930 . S
H207 C220 0.930 . S
H208 C221 0.930 . S
H209 C225 0.959 . S
H210 C225 0.959 . S
H211 C225 0.961 . S
H212 C226 0.960 . S
H213 C226 0.961 . S
H214 C226 0.959 . S
H215 C229 0.929 . S
H216 C230 0.931 . S
H217 C232 0.930 . S
C218 H206 0.930 . S
C218 C219 1.399 . S
C218 C223 1.399 . S
C219 C218 1.399 . S
C219 C220 1.376 . S
C220 H207 0.930 . S
C220 C219 1.376 . S
C220 C221 1.388 . S
C221 H208 0.930 . S
C221 C220 1.388 . S
C221 C222 1.390 . S
C222 C221 1.390 . S
C222 C223 1.394 . S
C222 C228 1.465 . S
C223 C218 1.399 . S
C223 C222 1.394 . S
C223 C224 1.516 . S
C224 C223 1.516 . S
C224 C225 1.502 . S
C224 C226 1.561 . S
C224 C227 1.526 . S
C225 H209 0.959 . S
C225 H210 0.959 . S
C225 H211 0.961 . S
C225 C224 1.502 . S
C226 H212 0.960 . S
C226 H213 0.961 . S
C226 H214 0.959 . S
C226 C224 1.561 . S
C227 C224 1.526 . S
C227 C228 1.396 . S
C227 C232 1.390 . S
C228 C222 1.465 . S
C228 C227 1.396 . S
C228 C229 1.399 . S
C229 H215 0.929 . S
C229 C228 1.399 . S
C229 C230 1.385 . S
C230 H216 0.931 . S
C230 C229 1.385 . S
C230 C231 1.389 . S
C231 C230 1.389 . S
C231 C232 1.387 . S
C232 H217 0.930 . S
C232 C227 1.390 . S
C232 C231 1.387 . S
H233 C245 0.930 . S
H234 C247 0.930 . S
H235 C248 0.930 . S
H236 C252 0.959 . S
H237 C252 0.959 . S
H238 C252 0.961 . S
H239 C253 0.960 . S
H240 C253 0.961 . S
H241 C253 0.959 . S
H242 C256 0.929 . S
H243 C257 0.931 . S
H244 C259 0.930 . S
C245 H233 0.930 . S
C245 C246 1.399 . S
C245 C250 1.399 . S
C246 C245 1.399 . S
C246 C247 1.376 . S
C247 H234 0.930 . S
C247 C246 1.376 . S
C247 C248 1.388 . S
C248 H235 0.930 . S
C248 C247 1.388 . S
C248 C249 1.390 . S
C249 C248 1.390 . S
C249 C250 1.394 . S
C249 C255 1.465 . S
C250 C245 1.399 . S
C250 C249 1.394 . S
C250 C251 1.516 . S
C251 C250 1.516 . S
C251 C252 1.502 . S
C251 C253 1.561 . S
C251 C254 1.526 . S
C252 H236 0.959 . S
C252 H237 0.959 . S
C252 H238 0.961 . S
C252 C251 1.502 . S
C253 H239 0.960 . S
C253 H240 0.961 . S
C253 H241 0.959 . S
C253 C251 1.561 . S
C254 C251 1.526 . S
C254 C255 1.396 . S
C254 C259 1.390 . S
C255 C249 1.465 . S
C255 C254 1.396 . S
C255 C256 1.399 . S
C256 H242 0.929 . S
C256 C255 1.399 . S
C256 C257 1.385 . S
C257 H243 0.931 . S
C257 C256 1.385 . S
C257 C258 1.389 . S
C258 C257 1.389 . S
C258 C259 1.387 . S
C259 H244 0.930 . S
C259 C254 1.390 . S
C259 C258 1.387 . S
H260 C272 0.930 . S
H261 C274 0.930 . S
H262 C275 0.930 . S
H263 C279 0.959 . S
H264 C279 0.959 . S
H265 C279 0.961 . S
H266 C280 0.960 . S
H267 C280 0.961 . S
H268 C280 0.959 . S
H269 C283 0.929 . S
H270 C284 0.931 . S
H271 C286 0.930 . S
C272 H260 0.930 . S
C272 C273 1.399 . S
C272 C277 1.399 . S
C273 C272 1.399 . S
C273 C274 1.376 . S
C274 H261 0.930 . S
C274 C273 1.376 . S
C274 C275 1.388 . S
C275 H262 0.930 . S
C275 C274 1.388 . S
C275 C276 1.390 . S
C276 C275 1.390 . S
C276 C277 1.394 . S
C276 C282 1.465 . S
C277 C272 1.399 . S
C277 C276 1.394 . S
C277 C278 1.516 . S
C278 C277 1.516 . S
C278 C279 1.502 . S
C278 C280 1.561 . S
C278 C281 1.526 . S
C279 H263 0.959 . S
C279 H264 0.959 . S
C279 H265 0.961 . S
C279 C278 1.502 . S
C280 H266 0.960 . S
C280 H267 0.961 . S
C280 H268 0.959 . S
C280 C278 1.561 . S
C281 C278 1.526 . S
C281 C282 1.396 . S
C281 C286 1.390 . S
C282 C276 1.465 . S
C282 C281 1.396 . S
C282 C283 1.399 . S
C283 H269 0.929 . S
C283 C282 1.399 . S
C283 C284 1.385 . S
C284 H270 0.931 . S
C284 C283 1.385 . S
C284 C285 1.389 . S
C285 C284 1.389 . S
C285 C286 1.387 . S
C286 H271 0.930 . S
C286 C281 1.390 . S
C286 C285 1.387 . S
H287 C299 0.930 . S
H288 C301 0.930 . S
H289 C302 0.930 . S
H290 C306 0.959 . S
H291 C306 0.959 . S
H292 C306 0.961 . S
H293 C307 0.960 . S
H294 C307 0.961 . S
H295 C307 0.959 . S
H296 C310 0.929 . S
H297 C311 0.931 . S
H298 C313 0.930 . S
C299 H287 0.930 . S
C299 C300 1.399 . S
C299 C304 1.399 . S
C300 C299 1.399 . S
C300 C301 1.376 . S
C301 H288 0.930 . S
C301 C300 1.376 . S
C301 C302 1.388 . S
C302 H289 0.930 . S
C302 C301 1.388 . S
C302 C303 1.390 . S
C303 C302 1.390 . S
C303 C304 1.394 . S
C303 C309 1.465 . S
C304 C299 1.399 . S
C304 C303 1.394 . S
C304 C305 1.516 . S
C305 C304 1.516 . S
C305 C306 1.502 . S
C305 C307 1.561 . S
C305 C308 1.526 . S
C306 H290 0.959 . S
C306 H291 0.959 . S
C306 H292 0.961 . S
C306 C305 1.502 . S
C307 H293 0.960 . S
C307 H294 0.961 . S
C307 H295 0.959 . S
C307 C305 1.561 . S
C308 C305 1.526 . S
C308 C309 1.396 . S
C308 C313 1.390 . S
C309 C303 1.465 . S
C309 C308 1.396 . S
C309 C310 1.399 . S
C310 H296 0.929 . S
C310 C309 1.399 . S
C310 C311 1.385 . S
C311 H297 0.931 . S
C311 C310 1.385 . S
C311 C312 1.389 . S
C312 C311 1.389 . S
C312 C313 1.387 . S
C313 H298 0.930 . S
C313 C308 1.390 . S
C313 C312 1.387 . S
H314 C326 0.930 . S
H315 C328 0.930 . S
H316 C329 0.930 . S
H317 C333 0.959 . S
H318 C333 0.959 . S
H319 C333 0.961 . S
H320 C334 0.960 . S
H321 C334 0.961 . S
H322 C334 0.959 . S
H323 C337 0.929 . S
H324 C338 0.931 . S
H325 C340 0.930 . S
C326 H314 0.930 . S
C326 C327 1.399 . S
C326 C331 1.399 . S
C327 C326 1.399 . S
C327 C328 1.376 . S
C328 H315 0.930 . S
C328 C327 1.376 . S
C328 C329 1.388 . S
C329 H316 0.930 . S
C329 C328 1.388 . S
C329 C330 1.390 . S
C330 C329 1.390 . S
C330 C331 1.394 . S
C330 C336 1.465 . S
C331 C326 1.399 . S
C331 C330 1.394 . S
C331 C332 1.516 . S
C332 C331 1.516 . S
C332 C333 1.502 . S
C332 C334 1.561 . S
C332 C335 1.526 . S
C333 H317 0.959 . S
C333 H318 0.959 . S
C333 H319 0.961 . S
C333 C332 1.502 . S
C334 H320 0.960 . S
C334 H321 0.961 . S
C334 H322 0.959 . S
C334 C332 1.561 . S
C335 C332 1.526 . S
C335 C336 1.396 . S
C335 C340 1.390 . S
C336 C330 1.465 . S
C336 C335 1.396 . S
C336 C337 1.399 . S
C337 H323 0.929 . S
C337 C336 1.399 . S
C337 C338 1.385 . S
C338 H324 0.931 . S
C338 C337 1.385 . S
C338 C339 1.389 . S
C339 C338 1.389 . S
C339 C340 1.387 . S
C340 H325 0.930 . S
C340 C335 1.390 . S
C340 C339 1.387 . S
H341 C353 0.930 . S
H342 C355 0.930 . S
H343 C356 0.930 . S
H344 C360 0.959 . S
H345 C360 0.959 . S
H346 C360 0.961 . S
H347 C361 0.960 . S
H348 C361 0.961 . S
H349 C361 0.959 . S
H350 C364 0.929 . S
H351 C365 0.931 1_455 S
H352 C367 0.930 . S
C353 H341 0.930 . S
C353 C354 1.399 . S
C353 C358 1.399 . S
C354 C353 1.399 . S
C354 C355 1.376 . S
C355 H342 0.930 . S
C355 C354 1.376 . S
C355 C356 1.388 . S
C356 H343 0.930 . S
C356 C355 1.388 . S
C356 C357 1.390 . S
C357 C356 1.390 . S
C357 C358 1.394 . S
C357 C363 1.465 . S
C358 C353 1.399 . S
C358 C357 1.394 . S
C358 C359 1.516 . S
C359 C358 1.516 . S
C359 C360 1.502 . S
C359 C361 1.561 . S
C359 C362 1.526 . S
C360 H344 0.959 . S
C360 H345 0.959 . S
C360 H346 0.961 . S
C360 C359 1.502 . S
C361 H347 0.960 . S
C361 H348 0.961 . S
C361 H349 0.959 . S
C361 C359 1.561 . S
C362 C359 1.526 . S
C362 C363 1.396 . S
C362 C367 1.390 . S
C363 C357 1.465 . S
C363 C362 1.396 . S
C363 C364 1.399 . S
C364 H350 0.929 . S
C364 C363 1.399 . S
C364 C365 1.385 . S
C365 H351 0.931 1_655 S
C365 C364 1.385 . S
C365 C366 1.389 . S
C366 C365 1.389 . S
C366 C367 1.387 . S
C367 H352 0.930 . S
C367 C362 1.390 . S
C367 C366 1.387 . S
H368 C380 0.930 . S
H369 C382 0.930 . S
H370 C383 0.930 . S
H371 C387 0.959 . S
H372 C387 0.959 . S
H373 C387 0.961 . S
H374 C388 0.960 . S
H375 C388 0.961 . S
H376 C388 0.959 . S
H377 C391 0.929 . S
H378 C392 0.931 . S
H379 C394 0.930 . S
C380 H368 0.930 . S
C380 C381 1.399 . S
C380 C385 1.399 . S
C381 C380 1.399 . S
C381 C382 1.376 . S
C382 H369 0.930 . S
C382 C381 1.376 . S
C382 C383 1.388 . S
C383 H370 0.930 . S
C383 C382 1.388 . S
C383 C384 1.390 . S
C384 C383 1.390 . S
C384 C385 1.394 . S
C384 C390 1.465 . S
C385 C380 1.399 . S
C385 C384 1.394 . S
C385 C386 1.516 . S
C386 C385 1.516 . S
C386 C387 1.502 . S
C386 C388 1.561 . S
C386 C389 1.526 . S
C387 H371 0.959 . S
C387 H372 0.959 . S
C387 H373 0.961 . S
C387 C386 1.502 . S
C388 H374 0.960 . S
C388 H375 0.961 . S
C388 H376 0.959 . S
C388 C386 1.561 . S
C389 C386 1.526 . S
C389 C390 1.396 . S
C389 C394 1.390 . S
C390 C384 1.465 . S
C390 C389 1.396 . S
C390 C391 1.399 . S
C391 H377 0.929 . S
C391 C390 1.399 . S
C391 C392 1.385 . S
C392 H378 0.931 . S
C392 C391 1.385 . S
C392 C393 1.389 . S
C393 C392 1.389 . S
C393 C394 1.387 . S
C394 H379 0.930 . S
C394 C389 1.390 . S
C394 C393 1.387 . S
H395 C407 0.930 . S
H396 C409 0.930 . S
H397 C410 0.930 . S
H398 C414 0.959 . S
H399 C414 0.959 . S
H400 C414 0.961 . S
H401 C415 0.960 . S
H402 C415 0.961 . S
H403 C415 0.959 . S
H404 C418 0.929 . S
H405 C419 0.931 . S
H406 C421 0.930 . S
C407 H395 0.930 . S
C407 C408 1.399 . S
C407 C412 1.399 . S
C408 C407 1.399 . S
C408 C409 1.376 . S
C409 H396 0.930 . S
C409 C408 1.376 . S
C409 C410 1.388 . S
C410 H397 0.930 . S
C410 C409 1.388 . S
C410 C411 1.390 . S
C411 C410 1.390 . S
C411 C412 1.394 . S
C411 C417 1.465 . S
C412 C407 1.399 . S
C412 C411 1.394 . S
C412 C413 1.516 . S
C413 C412 1.516 . S
C413 C414 1.502 . S
C413 C415 1.561 . S
C413 C416 1.526 . S
C414 H398 0.959 . S
C414 H399 0.959 . S
C414 H400 0.961 . S
C414 C413 1.502 . S
C415 H401 0.960 . S
C415 H402 0.961 . S
C415 H403 0.959 . S
C415 C413 1.561 . S
C416 C413 1.526 . S
C416 C417 1.396 . S
C416 C421 1.390 . S
C417 C411 1.465 . S
C417 C416 1.396 . S
C417 C418 1.399 . S
C418 H404 0.929 . S
C418 C417 1.399 . S
C418 C419 1.385 . S
C419 H405 0.931 . S
C419 C418 1.385 . S
C419 C420 1.389 . S
C420 C419 1.389 . S
C420 C421 1.387 . S
C421 H406 0.930 . S
C421 C416 1.390 . S
C421 C420 1.387 . S
C123 C69 1.479 . S
C111 C43 1.436 . S
C138 C4 1.410 . S
C150 C92 1.481 . S
C165 C17 1.466 . S
C177 C68 1.511 . S
C192 C30 1.479 1_554 S
C204 C91 1.513 . S
C231 C72 1.395 . S
C219 C9 1.422 . S
C258 C94 1.451 . S
C246 C21 1.520 . S
C273 C34 1.487 . S
C285 C73 1.392 . S
C300 C48 1.475 . S
C312 C93 1.490 . S
C339 C96 1.462 . S
C327 C22 1.461 . S
C366 C71 1.496 . S
C354 C35 1.495 . S
C393 C95 1.451 . S
C381 C47 1.479 . S
C408 C8 1.486 . S
C420 C70 1.473 . S
