# Generated by pormake.
# Topology rtl, (3,6)-cn, num edge types: 1
# Building blocks:
#     Node 0, Type 0, BuildingBlock: INOVEN_clean_linker_0, # of connection points: 3
#     Node 1, Type 0, BuildingBlock: INOVEN_clean_linker_0, # of connection points: 3
#     Node 2, Type 0, BuildingBlock: INOVEN_clean_linker_0, # of connection points: 3
#     Node 3, Type 0, BuildingBlock: INOVEN_clean_linker_0, # of connection points: 3
#     Node 4, Type 1, BuildingBlock: FUNLAD_clean_sbu_0, # of connection points: 6
#     Node 5, Type 1, BuildingBlock: FUNLAD_clean_sbu_0, # of connection points: 6
#     Edge 6, Type (0, 1), BuildingBlock: FUNLAD_clean_linker_1, # of connection points: 2
#     Edge 7, Type (0, 1), BuildingBlock: FUNLAD_clean_linker_1, # of connection points: 2
#     Edge 8, Type (0, 1), BuildingBlock: FUNLAD_clean_linker_1, # of connection points: 2
#     Edge 9, Type (0, 1), BuildingBlock: FUNLAD_clean_linker_1, # of connection points: 2
#     Edge 10, Type (0, 1), BuildingBlock: FUNLAD_clean_linker_1, # of connection points: 2
#     Edge 11, Type (0, 1), BuildingBlock: FUNLAD_clean_linker_1, # of connection points: 2
#     Edge 12, Type (0, 1), BuildingBlock: FUNLAD_clean_linker_1, # of connection points: 2
#     Edge 13, Type (0, 1), BuildingBlock: FUNLAD_clean_linker_1, # of connection points: 2
#     Edge 14, Type (0, 1), BuildingBlock: FUNLAD_clean_linker_1, # of connection points: 2
#     Edge 15, Type (0, 1), BuildingBlock: FUNLAD_clean_linker_1, # of connection points: 2
#     Edge 16, Type (0, 1), BuildingBlock: FUNLAD_clean_linker_1, # of connection points: 2
#     Edge 17, Type (0, 1), BuildingBlock: FUNLAD_clean_linker_1, # of connection points: 2
# Relax obj value: 0.003
# Max RMSD: 0.045
# Mean RMSD: 0.029
data_MOF--net-rtl--node1-FUNLAD_clean_sbu_0--node2-INOVEN_clean_linker_0--edge1-FUNLAD_clean_linker_1
_symmetry_space_group_name_H-M    P1
_symmetry_Int_Tables_number       1
_symmetry_cell_setting            triclinic
loop_
_symmetry_equiv_pos_as_xyz
'x, y, z'
_cell_length_a     41.341198
_cell_length_b     41.490038
_cell_length_c     21.836045
_cell_angle_alpha  91.158177
_cell_angle_beta   92.249857
_cell_angle_gamma 90.15361
loop_
_atom_site_label
_atom_site_type_symbol
_atom_site_fract_x
_atom_site_fract_y
_atom_site_fract_z
_atom_type_partial_charge
H0 H 0.18565 0.83136 0.89981 0.0
H1 H 0.1279 0.89057 0.01556 0.0
H2 H 0.20786 0.83706 0.09404 0.0
N3 N 0.22544 0.80971 0.98602 0.0
N4 N 0.24078 0.79674 0.02914 0.0
C5 C 0.18038 0.84088 0.9449 0.0
C6 C 0.15419 0.86186 0.95232 0.0
C7 C 0.19955 0.83143 0.99575 0.0
C8 C 0.19277 0.84368 0.0546 0.0
C9 C 0.16656 0.86463 0.0626 0.0
C10 C 0.14739 0.87341 0.01101 0.0
H11 H 0.67497 0.70986 0.65236 0.0
H12 H 0.62387 0.64052 0.53647 0.0
H13 H 0.6998 0.69758 0.46346 0.0
N14 N 0.71346 0.73176 0.56882 0.0
N15 N 0.73193 0.73984 0.52797 0.0
C16 C 0.67116 0.69792 0.60806 0.0
C17 C 0.64702 0.67421 0.59951 0.0
C18 C 0.69015 0.70672 0.55916 0.0
C19 C 0.68514 0.69117 0.50147 0.0
C20 C 0.66077 0.66776 0.49228 0.0
C21 C 0.64188 0.65949 0.54175 0.0
H22 H 0.85196 0.21232 0.90063 0.0
H23 H 0.89642 0.13497 0.00079 0.0
H24 H 0.82735 0.19641 0.08729 0.0
N25 N 0.8156 0.23393 0.98801 0.0
N26 N 0.79683 0.24168 0.02906 0.0
C27 C 0.85499 0.1987 0.94232 0.0
C28 C 0.87594 0.17222 0.94413 0.0
C29 C 0.83709 0.20737 0.9932 0.0
C30 C 0.8409 0.18976 0.0475 0.0
C31 C 0.8629 0.16404 0.05108 0.0
C32 C 0.87996 0.15515 0.99884 0.0
H33 H 0.32388 0.33435 0.41612 0.0
H34 H 0.39536 0.39263 0.51518 0.0
H35 H 0.34508 0.31849 0.60775 0.0
N36 N 0.30818 0.29836 0.50879 0.0
N37 N 0.30432 0.28032 0.55301 0.0
C38 C 0.33739 0.34061 0.45827 0.0
C39 C 0.36089 0.3651 0.45873 0.0
C40 C 0.33175 0.32342 0.51146 0.0
C41 C 0.34936 0.33146 0.56623 0.0
C42 C 0.37183 0.35686 0.5682 0.0
C43 C 0.37769 0.37335 0.51412 0.0
C44 C 0.04626 0.9806 0.40939 0.0
N45 N 0.06713 0.06938 0.49933 0.0
C46 C 0.09906 0.06171 0.49759 0.0
C47 C 0.1226 0.08596 0.49707 0.0
C48 C 0.11318 0.11855 0.49876 0.0
C49 C 0.08004 0.12565 0.50012 0.0
C50 C 0.05735 0.10066 0.50052 0.0
Zn51 Zn 0.03298 0.03342 0.49905 0.0
C52 C 0.97851 0.04639 0.40891 0.0
N53 N 0.96079 0.95892 0.49731 0.0
C54 C 0.97088 0.92774 0.49788 0.0
C55 C 0.92873 0.96631 0.49681 0.0
C56 C 0.90539 0.94185 0.49715 0.0
C57 C 0.91518 0.90938 0.49829 0.0
C58 C 0.9484 0.90257 0.49814 0.0
Zn59 Zn 0.99484 0.99502 0.49753 0.0
O60 O 0.05779 0.00722 0.43044 0.0
C61 C 0.0499 0.98271 0.5874 0.0
O62 O 0.0198 0.97002 0.4288 0.0
H63 H 0.92121 0.99125 0.49596 0.0
H64 H 0.10633 0.03669 0.49625 0.0
H65 H 0.99645 0.92232 0.49813 0.0
O66 O 0.06003 0.00921 0.56727 0.0
O67 O 0.02311 0.97096 0.56657 0.0
H68 H 0.03184 0.10629 0.50161 0.0
O69 O 0.97046 0.0204 0.56629 0.0
O70 O 0.0075 0.05858 0.56837 0.0
O71 O 0.96742 0.02005 0.42858 0.0
O72 O 1.00546 0.05723 0.43034 0.0
C73 C 0.98146 0.04699 0.58818 0.0
H74 H 0.14765 0.07891 0.49443 0.0
H75 H 0.07172 0.15039 0.5011 0.0
H76 H 0.88013 0.94856 0.49549 0.0
H77 H 0.95696 0.87791 0.49857 0.0
C78 C 0.48074 0.48185 0.93775 0.0
N79 N 0.56793 0.46029 0.03451 0.0
C80 C 0.55816 0.42895 0.03135 0.0
C81 C 0.58084 0.40411 0.03408 0.0
C82 C 0.61399 0.41139 0.03981 0.0
C83 C 0.62347 0.44404 0.04296 0.0
C84 C 0.5999 0.46817 0.04008 0.0
Zn85 Zn 0.53322 0.49555 0.03303 0.0
C86 C 0.54807 0.5481 0.94824 0.0
N87 N 0.45936 0.56798 0.03093 0.0
C88 C 0.4278 0.55866 0.03197 0.0
C89 C 0.46772 0.59974 0.03174 0.0
C90 C 0.4439 0.62357 0.0341 0.0
C91 C 0.41112 0.61456 0.03574 0.0
C92 C 0.40328 0.58165 0.03482 0.0
Zn93 Zn 0.49457 0.53322 0.03141 0.0
O94 O 0.50723 0.47068 0.95992 0.0
C95 C 0.48039 0.48029 0.11677 0.0
O96 O 0.46961 0.50801 0.95927 0.0
H97 H 0.49296 0.60665 0.03154 0.0
H98 H 0.53264 0.42313 0.0272 0.0
H99 H 0.42162 0.53332 0.0313 0.0
O100 O 0.50716 0.47001 0.09785 0.0
O101 O 0.46891 0.50663 0.09674 0.0
H102 H 0.60716 0.49324 0.04295 0.0
O103 O 0.52003 0.55803 0.10344 0.0
O104 O 0.5584 0.52142 0.1056 0.0
O105 O 0.52121 0.55897 0.96624 0.0
O106 O 0.55889 0.52162 0.96866 0.0
C107 C 0.5467 0.54768 0.12598 0.0
H108 H 0.57247 0.37933 0.03178 0.0
H109 H 0.64857 0.45117 0.04877 0.0
H110 H 0.45132 0.6486 0.03637 0.0
H111 H 0.37832 0.57374 0.03633 0.0
H112 H 0.28045 0.23928 0.59019 0.0
C113 C 0.28058 0.25539 0.55159 0.0
H114 H 0.25828 0.26695 0.46604 0.0
H115 H 0.19831 0.12842 0.41344 0.0
H116 H 0.23721 0.13209 0.33351 0.0
H117 H 0.27534 0.17787 0.3317 0.0
H118 H 0.2747 0.22035 0.40951 0.0
C119 C 0.25818 0.25149 0.50558 0.0
C120 C 0.23412 0.22462 0.50557 0.0
C121 C 0.23494 0.19989 0.45985 0.0
C122 C 0.21323 0.17326 0.46133 0.0
C123 C 0.21445 0.14902 0.41486 0.0
C124 C 0.23663 0.15084 0.36865 0.0
C125 C 0.25808 0.17663 0.3676 0.0
C126 C 0.2574 0.2009 0.41256 0.0
H127 H 0.12718 0.16966 0.48855 0.0
C128 C 0.13672 0.14578 0.49801 0.0
H129 H 0.17963 0.11982 0.52044 0.0
H130 H 0.22225 0.27037 0.59423 0.0
H131 H 0.18426 0.26607 0.67545 0.0
H132 H 0.14973 0.21783 0.68284 0.0
H133 H 0.15252 0.17395 0.60829 0.0
C134 C 0.16873 0.14294 0.51042 0.0
C135 C 0.19081 0.17131 0.50859 0.0
C136 C 0.18978 0.19615 0.55408 0.0
C137 C 0.21087 0.22323 0.55165 0.0
C138 C 0.20793 0.24857 0.59551 0.0
C139 C 0.18601 0.24654 0.64212 0.0
C140 C 0.16649 0.21944 0.64614 0.0
C141 C 0.16823 0.19448 0.60279 0.0
H142 H 0.27408 0.77177 0.9702 0.0
C143 C 0.26634 0.77516 0.01695 0.0
H144 H 0.27287 0.76234 0.10908 0.0
H145 H 0.34305 0.64502 0.94484 0.0
H146 H 0.2896 0.63429 0.89938 0.0
H147 H 0.24317 0.6684 0.92567 0.0
H148 H 0.25013 0.71392 0.99615 0.0
C149 C 0.28031 0.75825 0.06237 0.0
C150 C 0.3073 0.7353 0.05131 0.0
C151 C 0.30235 0.70763 0.01264 0.0
C152 C 0.32867 0.6867 1.00057 0.0
C153 C 0.32359 0.66071 0.95818 0.0
C154 C 0.29306 0.65441 0.93133 0.0
C155 C 0.26696 0.6737 0.94589 0.0
C156 C 0.27139 0.69998 0.98607 0.0
H157 H 0.36216 0.63038 0.06015 0.0
C158 C 0.38464 0.63849 0.04114 0.0
H159 H 0.40833 0.67798 0.00206 0.0
H160 H 0.32529 0.78614 0.12727 0.0
H161 H 0.37812 0.7952 0.17677 0.0
H162 H 0.42284 0.75709 0.16073 0.0
H163 H 0.41508 0.70985 0.09463 0.0
C164 C 0.38649 0.66904 0.02197 0.0
C165 C 0.35937 0.69215 0.03048 0.0
C166 C 0.3642 0.71952 0.06976 0.0
C167 C 0.33822 0.74119 0.07992 0.0
C168 C 0.34397 0.76861 0.1186 0.0
C169 C 0.37422 0.77416 0.14725 0.0
C170 C 0.3994 0.75273 0.13816 0.0
C171 C 0.39461 0.7257 0.09997 0.0
H172 H 0.75438 0.77939 0.58104 0.0
C173 C 0.75427 0.76552 0.53821 0.0
H174 H 0.7735 0.75963 0.45126 0.0
H175 H 0.82395 0.90128 0.42359 0.0
H176 H 0.78032 0.8984 0.34613 0.0
H177 H 0.74341 0.85155 0.33894 0.0
H178 H 0.74999 0.80722 0.40885 0.0
C179 C 0.7747 0.77309 0.49452 0.0
C180 C 0.79672 0.80162 0.5006 0.0
C181 C 0.79229 0.82755 0.45975 0.0
C182 C 0.81327 0.85481 0.46444 0.0
C183 C 0.80853 0.88014 0.4225 0.0
C184 C 0.78359 0.8788 0.37774 0.0
C185 C 0.76284 0.85241 0.37365 0.0
C186 C 0.76697 0.82706 0.41405 0.0
H187 H 0.90076 0.8582 0.48531 0.0
C188 C 0.89183 0.88198 0.49786 0.0
H189 H 0.85067 0.90767 0.52704 0.0
H190 H 0.8145 0.7547 0.582 0.0
H191 H 0.85684 0.75858 0.66172 0.0
H192 H 0.89053 0.80759 0.67463 0.0
H193 H 0.88244 0.85277 0.60704 0.0
C194 C 0.86078 0.88462 0.51367 0.0
C195 C 0.83858 0.85622 0.51011 0.0
C196 C 0.84274 0.83055 0.55163 0.0
C197 C 0.82227 0.8029 0.54602 0.0
C198 C 0.82831 0.77685 0.58577 0.0
C199 C 0.85274 0.77865 0.63151 0.0
C200 C 0.87178 0.8062 0.63864 0.0
C201 C 0.86698 0.8319 0.59929 0.0
H202 H 0.77753 0.283 0.9805 0.0
C203 C 0.77594 0.26842 0.02115 0.0
H204 H 0.75302 0.26129 0.10395 0.0
H205 H 0.70144 0.40358 0.13406 0.0
H206 H 0.74073 0.40058 0.21919 0.0
H207 H 0.77668 0.35352 0.23017 0.0
H208 H 0.77342 0.30906 0.15639 0.0
C209 C 0.7539 0.27545 0.06271 0.0
C210 C 0.73187 0.30369 0.05581 0.0
C211 C 0.73429 0.32963 0.0991 0.0
C212 C 0.71387 0.357 0.0923 0.0
C213 C 0.71656 0.38236 0.13664 0.0
C214 C 0.73899 0.38095 0.18579 0.0
C215 C 0.75921 0.35444 0.192 0.0
C216 C 0.75703 0.32904 0.14932 0.0
H217 H 0.6277 0.36039 0.0525 0.0
C218 C 0.63739 0.38423 0.04401 0.0
H219 H 0.68048 0.41006 0.02752 0.0
H220 H 0.71748 0.25637 0.96924 0.0
H221 H 0.67967 0.26031 0.88215 0.0
H222 H 0.64771 0.3097 0.86555 0.0
H223 H 0.65288 0.35516 0.93677 0.0
C224 C 0.66941 0.38698 0.03621 0.0
C225 C 0.69115 0.35849 0.04212 0.0
C226 C 0.68895 0.33273 0.9984 0.0
C227 C 0.70868 0.30493 0.00616 0.0
C228 C 0.70434 0.2787 0.96405 0.0
C229 C 0.68248 0.28052 0.91406 0.0
C230 C 0.66439 0.30827 0.90486 0.0
C231 C 0.66747 0.33413 0.94636 0.0
H232 H 0.18147 0.8828 0.15595 0.0
C233 C 0.16086 0.87919 0.12405 0.0
H234 H 0.11033 0.88531 0.10977 0.0
H235 H 0.10882 0.91713 0.40299 0.0
H236 H 0.12085 0.86037 0.41647 0.0
H237 H 0.13536 0.8258 0.32849 0.0
H238 H 0.13829 0.84785 0.22662 0.0
C239 C 0.13144 0.88936 0.14008 0.0
C240 C 0.12675 0.91033 0.19486 0.0
C241 C 0.12498 0.89696 0.25377 0.0
C242 C 0.11576 0.9167 0.30414 0.0
C243 C 0.11475 0.90296 0.36285 0.0
C244 C 0.1218 0.87049 0.37126 0.0
C245 C 0.13003 0.85104 0.32174 0.0
C246 C 0.13163 0.86399 0.26354 0.0
H247 H 0.05059 0.94044 0.34299 0.0
C248 C 0.06303 0.96154 0.36279 0.0
H249 H 0.10539 0.99021 0.36283 0.0
H250 H 0.13156 0.94415 0.08921 0.0
H251 H 0.12037 1.00103 0.07609 0.0
H252 H 0.10337 0.03504 0.16301 0.0
H253 H 0.09751 0.0124 0.26355 0.0
C254 C 0.09275 0.9689 0.34455 0.0
C255 C 0.10761 0.94952 0.29499 0.0
C256 C 0.11143 0.96332 0.2369 0.0
C257 C 0.12096 0.94367 0.18673 0.0
C258 C 0.12408 0.95792 0.12881 0.0
C259 C 0.11782 0.99055 0.12067 0.0
C260 C 0.10828 0.0097 0.16961 0.0
C261 C 0.10501 0.99638 0.22711 0.0
H262 H 0.60174 0.65674 0.63741 0.0
C263 C 0.62659 0.66374 0.64957 0.0
H264 H 0.66361 0.66318 0.71913 0.0
H265 H 0.56808 0.64613 0.93694 0.0
H266 H 0.59012 0.6994 0.96029 0.0
H267 H 0.62491 0.7265 0.88772 0.0
H268 H 0.63819 0.70032 0.79157 0.0
C269 C 0.63864 0.65729 0.70597 0.0
C270 C 0.61845 0.64044 0.75064 0.0
C271 C 0.61061 0.6562 0.80627 0.0
C272 C 0.5901 0.64076 0.84767 0.0
C273 C 0.58319 0.65685 0.90345 0.0
C274 C 0.59571 0.68744 0.91748 0.0
C275 C 0.61532 0.70269 0.87664 0.0
C276 C 0.62276 0.68739 0.82162 0.0
H277 H 0.59014 0.55532 0.8914 0.0
C278 C 0.56708 0.5656 0.90387 0.0
H279 H 0.53447 0.60424 0.89106 0.0
H280 H 0.63345 0.60052 0.6538 0.0
H281 H 0.60911 0.54867 0.62759 0.0
H282 H 0.5683 0.52495 0.69294 0.0
H283 H 0.5524 0.55259 0.78575 0.0
C284 C 0.55697 0.59306 0.87788 0.0
C285 C 0.57719 0.60971 0.83306 0.0
C286 C 0.58456 0.59418 0.7768 0.0
C287 C 0.60627 0.60894 0.73685 0.0
C288 C 0.61551 0.59148 0.68389 0.0
C289 C 0.60198 0.56147 0.66858 0.0
C290 C 0.57915 0.54805 0.70551 0.0
C291 C 0.57046 0.56408 0.75901 0.0
H292 H 0.84708 0.14493 0.13951 0.0
C293 C 0.8673 0.14625 0.10928 0.0
H294 H 0.91642 0.13427 0.09765 0.0
H295 H 0.91352 0.10806 0.39315 0.0
H296 H 0.9019 0.1651 0.4059 0.0
H297 H 0.89009 0.19885 0.31604 0.0
H298 H 0.88924 0.17573 0.21316 0.0
C299 C 0.89564 0.13254 0.12631 0.0
C300 C 0.89968 0.11235 0.1816 0.0
C301 C 0.90066 0.12654 0.24128 0.0
C302 C 0.90879 0.10739 0.29296 0.0
C303 C 0.90864 0.12182 0.35226 0.0
C304 C 0.90181 0.15445 0.36022 0.0
C305 C 0.89506 0.17343 0.30964 0.0
C306 C 0.89453 0.1598 0.25076 0.0
H307 H 0.97302 0.08592 0.34402 0.0
C308 C 0.9611 0.06461 0.36079 0.0
H309 H 0.91991 0.03437 0.35127 0.0
H310 H 0.89629 0.07698 0.07437 0.0
H311 H 0.90787 0.01996 0.06202 0.0
H312 H 0.9238 0.98725 0.15129 0.0
H313 H 0.92809 0.01128 0.25347 0.0
C314 C 0.93191 0.05604 0.3365 0.0
C315 C 0.9172 0.0745 0.28462 0.0
C316 C 0.91438 0.05993 0.22541 0.0
C317 C 0.90559 0.07888 0.17386 0.0
C318 C 0.90328 0.0638 0.11504 0.0
C319 C 0.90976 0.03108 0.10731 0.0
C320 C 0.9187 0.01265 0.15758 0.0
C321 C 0.92108 0.02677 0.21601 0.0
H322 H 0.39396 0.34637 0.65984 0.0
C323 C 0.38949 0.36533 0.62692 0.0
H324 H 0.39425 0.41512 0.61008 0.0
H325 H 0.42342 0.41342 0.91078 0.0
H326 H 0.36826 0.39411 0.91804 0.0
H327 H 0.33507 0.38013 0.82486 0.0
H328 H 0.35697 0.38478 0.72413 0.0
C329 C 0.39909 0.39562 0.64153 0.0
C330 C 0.41865 0.40363 0.69849 0.0
C331 C 0.40498 0.40164 0.75693 0.0
C332 C 0.42359 0.41109 0.81052 0.0
C333 C 0.40992 0.40767 0.8685 0.0
C334 C 0.37836 0.39645 0.87334 0.0
C335 C 0.35972 0.38847 0.8209 0.0
C336 C 0.3727 0.39106 0.76327 0.0
H337 H 0.44053 0.47635 0.8693 0.0
C338 C 0.4628 0.46529 0.88665 0.0
H339 H 0.49586 0.42705 0.87525 0.0
H340 H 0.45271 0.4088 0.59397 0.0
H341 H 0.50732 0.42948 0.58691 0.0
H342 H 0.53871 0.44793 0.67954 0.0
H343 H 0.51576 0.44555 0.77987 0.0
C344 C 0.47311 0.43791 0.86011 0.0
C345 C 0.45521 0.42386 0.80537 0.0
C346 C 0.4691 0.42519 0.74718 0.0
C347 C 0.45082 0.41501 0.6937 0.0
C348 C 0.46531 0.41662 0.63607 0.0
C349 C 0.49669 0.42837 0.63134 0.0
C350 C 0.51437 0.43872 0.68349 0.0
C351 C 0.50088 0.43721 0.74083 0.0
H352 H 0.67712 0.64835 0.40311 0.0
C353 C 0.65631 0.65098 0.43172 0.0
H354 H 0.60625 0.64167 0.4387 0.0
H355 H 0.61135 0.60989 0.14442 0.0
H356 H 0.62394 0.66664 0.13301 0.0
H357 H 0.63605 0.70168 0.22372 0.0
H358 H 0.63609 0.68015 0.32623 0.0
C359 C 0.62757 0.63868 0.41172 0.0
C360 C 0.62392 0.61756 0.35618 0.0
C361 C 0.62371 0.63073 0.2968 0.0
C362 C 0.61569 0.61079 0.24464 0.0
C363 C 0.61629 0.62426 0.18565 0.0
C364 C 0.62366 0.65672 0.17847 0.0
C365 C 0.63056 0.67643 0.22954 0.0
C366 C 0.63057 0.66374 0.28814 0.0
H367 H 0.55106 0.58773 0.19313 0.0
C368 C 0.56336 0.56652 0.1756 0.0
H369 H 0.60505 0.53726 0.18409 0.0
H370 H 0.62591 0.58407 0.46302 0.0
H371 H 0.61379 0.52728 0.47409 0.0
H372 H 0.59855 0.49302 0.38379 0.0
H373 H 0.59544 0.51533 0.28187 0.0
C374 C 0.59261 0.55876 0.19974 0.0
C375 C 0.60697 0.57805 0.25225 0.0
C376 C 0.60919 0.56445 0.31122 0.0
C377 C 0.61765 0.58426 0.36328 0.0
C378 C 0.61924 0.5702 0.42193 0.0
C379 C 0.61244 0.53761 0.42893 0.0
C380 C 0.60388 0.51832 0.37809 0.0
C381 C 0.60218 0.53145 0.31983 0.0
H382 H 0.89907 0.18218 0.85652 0.0
C383 C 0.89386 0.16333 0.88862 0.0
H384 H 0.89707 0.11336 0.90563 0.0
H385 H 0.9252 0.1159 0.60885 0.0
H386 H 0.87035 0.13591 0.59481 0.0
H387 H 0.83786 0.14975 0.68396 0.0
H388 H 0.86017 0.14427 0.78745 0.0
C389 C 0.90258 0.13284 0.87525 0.0
C390 C 0.92164 0.12456 0.82075 0.0
C391 C 0.90773 0.12704 0.76056 0.0
C392 C 0.92591 0.11768 0.70918 0.0
C393 C 0.91201 0.12158 0.64949 0.0
C394 C 0.88063 0.1332 0.64077 0.0
C395 C 0.86239 0.1411 0.69096 0.0
C396 C 0.87561 0.13804 0.75022 0.0
H397 H 0.94172 0.05239 0.65162 0.0
C398 C 0.96395 0.06347 0.63712 0.0
H399 H 0.99753 0.10152 0.65338 0.0
H400 H 0.95599 0.11809 0.92964 0.0
H401 H 0.01022 0.09656 0.9434 0.0
H402 H 0.04084 0.07833 0.85444 0.0
H403 H 0.01753 0.08179 0.75112 0.0
C404 C 0.97473 0.09069 0.66541 0.0
C405 C 0.95733 0.10453 0.71818 0.0
C406 C 0.97143 0.10258 0.77819 0.0
C407 C 0.95358 0.11265 0.82951 0.0
C408 C 0.96827 0.1104 0.88901 0.0
C409 C 0.99943 0.09816 0.89759 0.0
C410 C 0.01668 0.08793 0.8475 0.0
C411 C 1.00299 0.09006 0.78842 0.0
H412 H 0.34728 0.38468 0.36737 0.0
C413 C 0.36704 0.38238 0.40133 0.0
H414 H 0.41662 0.39184 0.42208 0.0
H415 H 0.41535 0.41838 0.12543 0.0
H416 H 0.40141 0.36178 0.11089 0.0
H417 H 0.38855 0.3284 0.19903 0.0
H418 H 0.38899 0.35149 0.30192 0.0
C419 C 0.39631 0.39455 0.38957 0.0
C420 C 0.40197 0.41448 0.33514 0.0
C421 C 0.40226 0.40029 0.27553 0.0
C422 C 0.41098 0.41918 0.22503 0.0
C423 C 0.41005 0.4048 0.16563 0.0
C424 C 0.40189 0.37241 0.15661 0.0
C425 C 0.39456 0.35365 0.20621 0.0
C426 C 0.39476 0.36726 0.26508 0.0
H427 H 0.47559 0.44019 0.18012 0.0
C428 C 0.46359 0.46161 0.16264 0.0
H429 H 0.42286 0.49202 0.16878 0.0
H430 H 0.40098 0.44975 0.44241 0.0
H431 H 0.4153 0.5062 0.45674 0.0
H432 H 0.43222 0.53843 0.36976 0.0
H433 H 0.43477 0.51446 0.26789 0.0
C434 C 0.43483 0.4702 0.1843 0.0
C435 C 0.42061 0.45181 0.23466 0.0
C436 C 0.41893 0.46632 0.29373 0.0
C437 C 0.40958 0.44764 0.344 0.0
C438 C 0.40832 0.4627 0.4027 0.0
C439 C 0.41639 0.49512 0.41157 0.0
C440 C 0.42588 0.51326 0.36259 0.0
C441 C 0.42723 0.49918 0.3043 0.0
H442 H 0.10833 0.87856 0.90898 0.0
C443 C 0.13338 0.87273 0.90009 0.0
H444 H 0.16994 0.87507 0.83513 0.0
H445 H 0.07243 0.88578 0.6051 0.0
H446 H 0.09639 0.83338 0.58625 0.0
H447 H 0.13266 0.80852 0.66417 0.0
H448 H 0.1455 0.83607 0.76121 0.0
C449 C 0.14488 0.87986 0.84529 0.0
C450 C 0.12367 0.89536 0.7977 0.0
C451 C 0.11614 0.87878 0.74155 0.0
C452 C 0.09482 0.8929 0.69701 0.0
C453 C 0.08818 0.87604 0.64085 0.0
C454 C 0.10178 0.84594 0.62939 0.0
C455 C 0.12223 0.83196 0.67325 0.0
C456 C 0.12941 0.84805 0.72875 0.0
H457 H 0.09245 0.9773 0.6499 0.0
C458 C 0.06951 0.96627 0.6349 0.0
H459 H 0.03768 0.92698 0.64529 0.0
H460 H 0.13721 0.93642 0.89587 0.0
H461 H 0.11111 0.98738 0.91712 0.0
H462 H 0.06941 0.0089 0.84518 0.0
H463 H 0.05431 0.97992 0.75087 0.0
C464 C 0.06004 0.93891 0.66081 0.0
C465 C 0.08086 0.92345 0.70897 0.0
C466 C 0.08787 0.93976 0.76572 0.0
C467 C 0.11026 0.92631 0.80908 0.0
C468 C 0.11894 0.94449 0.86293 0.0
C469 C 0.10437 0.974 0.87546 0.0
C470 C 0.08103 0.98619 0.83484 0.0
C471 C 0.07279 0.9694 0.78057 0.0
loop_
_geom_bond_atom_site_label_1
_geom_bond_atom_site_label_2
_geom_bond_distance
_geom_bond_site_symmetry_2
_ccdc_geom_bond_type
H0 C5 0.929 . S
H1 C10 0.931 . S
H2 C8 0.930 . S
N3 N4 1.234 1_556 S
N3 C7 1.453 1_556 S
N4 N3 1.234 1_554 S
C5 H0 0.929 . S
C5 C6 1.373 . S
C5 C7 1.368 1_556 S
C6 C5 1.373 . S
C6 C10 1.397 1_556 S
C7 N3 1.453 1_554 S
C7 C5 1.368 1_554 S
C7 C8 1.373 . S
C8 H2 0.930 . S
C8 C7 1.373 . S
C8 C9 1.371 . S
C9 C8 1.371 . S
C9 C10 1.383 . S
C10 H1 0.931 . S
C10 C6 1.397 1_554 S
C10 C9 1.383 . S
H11 C16 0.929 . S
H12 C21 0.931 . S
H13 C19 0.930 . S
N14 N15 1.234 . S
N14 C18 1.453 . S
N15 N14 1.234 . S
C16 H11 0.929 . S
C16 C17 1.373 . S
C16 C18 1.368 . S
C17 C16 1.373 . S
C17 C21 1.397 . S
C18 N14 1.453 . S
C18 C16 1.368 . S
C18 C19 1.373 . S
C19 H13 0.930 . S
C19 C18 1.373 . S
C19 C20 1.371 . S
C20 C19 1.371 . S
C20 C21 1.383 . S
C21 H12 0.931 . S
C21 C17 1.397 . S
C21 C20 1.383 . S
H22 C27 0.929 . S
H23 C32 0.931 . S
H24 C30 0.930 . S
N25 N26 1.234 1_556 S
N25 C29 1.453 . S
N26 N25 1.234 1_554 S
C27 H22 0.929 . S
C27 C28 1.373 . S
C27 C29 1.368 . S
C28 C27 1.373 . S
C28 C32 1.397 1_556 S
C29 N25 1.453 . S
C29 C27 1.368 . S
C29 C30 1.373 1_556 S
C30 H24 0.930 . S
C30 C29 1.373 1_554 S
C30 C31 1.371 . S
C31 C30 1.371 . S
C31 C32 1.383 . S
C32 H23 0.931 . S
C32 C28 1.397 1_554 S
C32 C31 1.383 . S
H33 C38 0.929 . S
H34 C43 0.931 . S
H35 C41 0.930 . S
N36 N37 1.234 . S
N36 C40 1.453 . S
N37 N36 1.234 . S
C38 H33 0.929 . S
C38 C39 1.373 . S
C38 C40 1.368 . S
C39 C38 1.373 . S
C39 C43 1.397 . S
C40 N36 1.453 . S
C40 C38 1.368 . S
C40 C41 1.373 . S
C41 H35 0.930 . S
C41 C40 1.373 . S
C41 C42 1.371 . S
C42 C41 1.371 . S
C42 C43 1.383 . S
C43 H34 0.931 . S
C43 C39 1.397 . S
C43 C42 1.383 . S
C44 O60 1.251 1_565 S
C44 O62 1.254 . S
N45 C46 1.333 . S
N45 C50 1.307 . S
N45 Zn51 2.020 . S
C46 N45 1.333 . S
C46 C47 1.379 . S
C46 H64 0.952 . S
C47 C46 1.379 . S
C47 C48 1.390 . S
C47 H74 0.949 . S
C48 C47 1.390 . S
C48 C49 1.357 . S
C49 C48 1.357 . S
C49 C50 1.370 . S
C49 H75 0.950 . S
C50 N45 1.307 . S
C50 C49 1.370 . S
C50 H68 0.948 . S
Zn51 N45 2.020 . S
Zn51 O60 2.039 . S
Zn51 O66 2.034 . S
Zn51 O70 2.025 . S
Zn51 O72 2.024 . S
C52 O71 1.246 . S
C52 O72 1.249 1_655 S
N53 C54 1.307 . S
N53 C55 1.333 . S
N53 Zn59 2.020 . S
C54 N53 1.307 . S
C54 C58 1.370 . S
C54 H65 0.948 . S
C55 N53 1.333 . S
C55 C56 1.379 . S
C55 H63 0.952 . S
C56 C55 1.379 . S
C56 C57 1.390 . S
C56 H76 0.949 . S
C57 C56 1.390 . S
C57 C58 1.357 . S
C58 C54 1.370 . S
C58 C57 1.357 . S
C58 H77 0.950 . S
Zn59 N53 2.020 . S
Zn59 O62 2.025 1_655 S
Zn59 O67 2.024 1_655 S
Zn59 O69 2.039 1_565 S
Zn59 O71 2.034 1_565 S
O60 C44 1.251 1_545 S
O60 Zn51 2.039 . S
C61 O66 1.246 1_565 S
C61 O67 1.249 . S
O62 C44 1.254 . S
O62 Zn59 2.025 1_455 S
H63 C55 0.952 . S
H64 C46 0.952 . S
H65 C54 0.948 . S
O66 Zn51 2.034 . S
O66 C61 1.246 1_545 S
O67 Zn59 2.024 1_455 S
O67 C61 1.249 . S
H68 C50 0.948 . S
O69 Zn59 2.039 1_545 S
O69 C73 1.251 . S
O70 Zn51 2.025 . S
O70 C73 1.254 1_455 S
O71 C52 1.246 . S
O71 Zn59 2.034 1_545 S
O72 Zn51 2.024 . S
O72 C52 1.249 1_455 S
C73 O69 1.251 . S
C73 O70 1.254 1_655 S
H74 C47 0.949 . S
H75 C49 0.950 . S
H76 C56 0.949 . S
H77 C58 0.950 . S
C78 O94 1.251 . S
C78 O96 1.254 . S
N79 C80 1.333 . S
N79 C84 1.307 . S
N79 Zn85 2.020 . S
C80 N79 1.333 . S
C80 C81 1.379 . S
C80 H98 0.952 1_554 S
C81 C80 1.379 . S
C81 C82 1.390 . S
C81 H108 0.949 1_554 S
C82 C81 1.390 . S
C82 C83 1.357 . S
C83 C82 1.357 . S
C83 C84 1.370 . S
C83 H109 0.950 . S
C84 N79 1.307 . S
C84 C83 1.370 . S
C84 H102 0.948 . S
Zn85 N79 2.020 . S
Zn85 O94 2.039 1_554 S
Zn85 O100 2.034 . S
Zn85 O104 2.025 . S
Zn85 O106 2.024 1_554 S
C86 O105 1.246 . S
C86 O106 1.249 . S
N87 C88 1.307 . S
N87 C89 1.333 . S
N87 Zn93 2.020 . S
C88 N87 1.307 . S
C88 C92 1.370 . S
C88 H99 0.952 . S
C89 N87 1.333 . S
C89 C90 1.379 . S
C89 H97 0.952 . S
C90 C89 1.379 . S
C90 C91 1.390 . S
C90 H110 0.949 . S
C91 C90 1.390 . S
C91 C92 1.357 . S
C92 C88 1.370 . S
C92 C91 1.357 . S
C92 H111 0.950 . S
Zn93 N87 2.020 . S
Zn93 O96 2.025 1_554 S
Zn93 O101 2.024 . S
Zn93 O103 2.039 . S
Zn93 O105 2.034 1_554 S
O94 C78 1.251 . S
O94 Zn85 2.039 1_556 S
C95 O100 1.246 . S
C95 O101 1.249 . S
O96 C78 1.254 . S
O96 Zn93 2.025 1_556 S
H97 C89 0.952 . S
H98 C80 0.952 1_556 S
H99 C88 0.952 . S
O100 Zn85 2.034 . S
O100 C95 1.246 . S
O101 Zn93 2.024 . S
O101 C95 1.249 . S
H102 C84 0.948 . S
O103 Zn93 2.039 . S
O103 C107 1.251 . S
O104 Zn85 2.025 . S
O104 C107 1.254 . S
O105 C86 1.246 . S
O105 Zn93 2.034 1_556 S
O106 Zn85 2.024 1_556 S
O106 C86 1.249 . S
C107 O103 1.251 . S
C107 O104 1.254 . S
H108 C81 0.949 1_556 S
H109 C83 0.950 . S
H110 C90 0.949 . S
H111 C92 0.950 . S
H112 C113 0.951 . S
C113 H112 0.951 . S
C113 C119 1.265 . S
H114 C119 0.950 . S
H115 C123 0.949 . S
H116 C124 0.950 . S
H117 C125 0.951 . S
H118 C126 0.951 . S
C119 C113 1.265 . S
C119 H114 0.950 . S
C119 C120 1.478 . S
C120 C119 1.478 . S
C120 C121 1.397 . S
C120 C137 1.394 . S
C121 C120 1.397 . S
C121 C122 1.438 . S
C121 C126 1.429 . S
C122 C121 1.438 . S
C122 C123 1.428 . S
C122 C135 1.394 . S
C123 H115 0.949 . S
C123 C122 1.428 . S
C123 C124 1.345 . S
C124 H116 0.950 . S
C124 C123 1.345 . S
C124 C125 1.424 . S
C125 H117 0.951 . S
C125 C124 1.424 . S
C125 C126 1.347 . S
C126 H118 0.951 . S
C126 C121 1.429 . S
C126 C125 1.347 . S
H127 C128 0.951 . S
C128 H127 0.951 . S
C128 C134 1.265 . S
H129 C134 0.950 . S
H130 C138 0.949 . S
H131 C139 0.950 . S
H132 C140 0.951 . S
H133 C141 0.951 . S
C134 C128 1.265 . S
C134 H129 0.950 . S
C134 C135 1.478 . S
C135 C122 1.394 . S
C135 C134 1.478 . S
C135 C136 1.397 . S
C136 C135 1.397 . S
C136 C137 1.438 . S
C136 C141 1.429 . S
C137 C120 1.394 . S
C137 C136 1.438 . S
C137 C138 1.428 . S
C138 H130 0.949 . S
C138 C137 1.428 . S
C138 C139 1.345 . S
C139 H131 0.950 . S
C139 C138 1.345 . S
C139 C140 1.424 . S
C140 H132 0.951 . S
C140 C139 1.424 . S
C140 C141 1.347 . S
C141 H133 0.951 . S
C141 C136 1.429 . S
C141 C140 1.347 . S
H142 C143 0.951 . S
C143 H142 0.951 . S
C143 C149 1.265 . S
H144 C149 0.950 . S
H145 C153 0.949 . S
H146 C154 0.950 . S
H147 C155 0.951 . S
H148 C156 0.951 . S
C149 C143 1.265 . S
C149 H144 0.950 . S
C149 C150 1.478 . S
C150 C149 1.478 . S
C150 C151 1.397 1_554 S
C150 C167 1.394 . S
C151 C150 1.397 1_556 S
C151 C152 1.438 . S
C151 C156 1.429 . S
C152 C151 1.438 . S
C152 C153 1.428 . S
C152 C165 1.394 1_556 S
C153 H145 0.949 . S
C153 C152 1.428 . S
C153 C154 1.345 . S
C154 H146 0.950 . S
C154 C153 1.345 . S
C154 C155 1.424 . S
C155 H147 0.951 . S
C155 C154 1.424 . S
C155 C156 1.347 . S
C156 H148 0.951 . S
C156 C151 1.429 . S
C156 C155 1.347 . S
H157 C158 0.951 . S
C158 H157 0.951 . S
C158 C164 1.265 . S
H159 C164 0.950 . S
H160 C168 0.949 . S
H161 C169 0.950 . S
H162 C170 0.951 . S
H163 C171 0.951 . S
C164 C158 1.265 . S
C164 H159 0.950 . S
C164 C165 1.478 . S
C165 C152 1.394 1_554 S
C165 C164 1.478 . S
C165 C166 1.397 . S
C166 C165 1.397 . S
C166 C167 1.438 . S
C166 C171 1.429 . S
C167 C150 1.394 . S
C167 C166 1.438 . S
C167 C168 1.428 . S
C168 H160 0.949 . S
C168 C167 1.428 . S
C168 C169 1.345 . S
C169 H161 0.950 . S
C169 C168 1.345 . S
C169 C170 1.424 . S
C170 H162 0.951 . S
C170 C169 1.424 . S
C170 C171 1.347 . S
C171 H163 0.951 . S
C171 C166 1.429 . S
C171 C170 1.347 . S
H172 C173 0.951 . S
C173 H172 0.951 . S
C173 C179 1.265 . S
H174 C179 0.950 . S
H175 C183 0.949 . S
H176 C184 0.950 . S
H177 C185 0.951 . S
H178 C186 0.951 . S
C179 C173 1.265 . S
C179 H174 0.950 . S
C179 C180 1.478 . S
C180 C179 1.478 . S
C180 C181 1.397 . S
C180 C197 1.394 . S
C181 C180 1.397 . S
C181 C182 1.438 . S
C181 C186 1.429 . S
C182 C181 1.438 . S
C182 C183 1.428 . S
C182 C195 1.394 . S
C183 H175 0.949 . S
C183 C182 1.428 . S
C183 C184 1.345 . S
C184 H176 0.950 . S
C184 C183 1.345 . S
C184 C185 1.424 . S
C185 H177 0.951 . S
C185 C184 1.424 . S
C185 C186 1.347 . S
C186 H178 0.951 . S
C186 C181 1.429 . S
C186 C185 1.347 . S
H187 C188 0.951 . S
C188 H187 0.951 . S
C188 C194 1.265 . S
H189 C194 0.950 . S
H190 C198 0.949 . S
H191 C199 0.950 . S
H192 C200 0.951 . S
H193 C201 0.951 . S
C194 C188 1.265 . S
C194 H189 0.950 . S
C194 C195 1.478 . S
C195 C182 1.394 . S
C195 C194 1.478 . S
C195 C196 1.397 . S
C196 C195 1.397 . S
C196 C197 1.438 . S
C196 C201 1.429 . S
C197 C180 1.394 . S
C197 C196 1.438 . S
C197 C198 1.428 . S
C198 H190 0.949 . S
C198 C197 1.428 . S
C198 C199 1.345 . S
C199 H191 0.950 . S
C199 C198 1.345 . S
C199 C200 1.424 . S
C200 H192 0.951 . S
C200 C199 1.424 . S
C200 C201 1.347 . S
C201 H193 0.951 . S
C201 C196 1.429 . S
C201 C200 1.347 . S
H202 C203 0.951 . S
C203 H202 0.951 . S
C203 C209 1.265 . S
H204 C209 0.950 . S
H205 C213 0.949 . S
H206 C214 0.950 . S
H207 C215 0.951 . S
H208 C216 0.951 . S
C209 C203 1.265 . S
C209 H204 0.950 . S
C209 C210 1.478 . S
C210 C209 1.478 . S
C210 C211 1.397 . S
C210 C227 1.394 1_554 S
C211 C210 1.397 . S
C211 C212 1.438 . S
C211 C216 1.429 . S
C212 C211 1.438 . S
C212 C213 1.428 . S
C212 C225 1.394 . S
C213 H205 0.949 . S
C213 C212 1.428 . S
C213 C214 1.345 . S
C214 H206 0.950 . S
C214 C213 1.345 . S
C214 C215 1.424 . S
C215 H207 0.951 . S
C215 C214 1.424 . S
C215 C216 1.347 . S
C216 H208 0.951 . S
C216 C211 1.429 . S
C216 C215 1.347 . S
H217 C218 0.951 . S
C218 H217 0.951 . S
C218 C224 1.265 . S
H219 C224 0.954 . S
H220 C228 0.949 . S
H221 C229 0.950 . S
H222 C230 0.951 . S
H223 C231 0.951 . S
C224 C218 1.265 . S
C224 H219 0.954 . S
C224 C225 1.478 . S
C225 C212 1.394 . S
C225 C224 1.478 . S
C225 C226 1.397 1_554 S
C226 C225 1.397 1_556 S
C226 C227 1.438 . S
C226 C231 1.429 . S
C227 C210 1.394 1_556 S
C227 C226 1.438 . S
C227 C228 1.428 . S
C228 H220 0.949 . S
C228 C227 1.428 . S
C228 C229 1.345 . S
C229 H221 0.950 . S
C229 C228 1.345 . S
C229 C230 1.424 . S
C230 H222 0.951 . S
C230 C229 1.424 . S
C230 C231 1.347 . S
C231 H223 0.951 . S
C231 C226 1.429 . S
C231 C230 1.347 . S
H232 C233 0.951 . S
C233 H232 0.951 . S
C233 C239 1.265 . S
H234 C239 0.950 . S
H235 C243 0.949 . S
H236 C244 0.950 . S
H237 C245 0.951 . S
H238 C246 0.951 . S
C239 C233 1.265 . S
C239 H234 0.950 . S
C239 C240 1.478 . S
C240 C239 1.478 . S
C240 C241 1.397 . S
C240 C257 1.394 . S
C241 C240 1.397 . S
C241 C242 1.438 . S
C241 C246 1.429 . S
C242 C241 1.438 . S
C242 C243 1.428 . S
C242 C255 1.394 . S
C243 H235 0.949 . S
C243 C242 1.428 . S
C243 C244 1.345 . S
C244 H236 0.950 . S
C244 C243 1.345 . S
C244 C245 1.424 . S
C245 H237 0.951 . S
C245 C244 1.424 . S
C245 C246 1.347 . S
C246 H238 0.951 . S
C246 C241 1.429 . S
C246 C245 1.347 . S
H247 C248 0.951 . S
C248 H247 0.951 . S
C248 C254 1.265 . S
H249 C254 0.950 . S
H250 C258 0.949 . S
H251 C259 0.950 . S
H252 C260 0.951 . S
H253 C261 0.970 . S
C254 C248 1.265 . S
C254 H249 0.950 . S
C254 C255 1.478 . S
C255 C242 1.394 . S
C255 C254 1.478 . S
C255 C256 1.397 . S
C256 C255 1.397 . S
C256 C257 1.438 . S
C256 C261 1.429 . S
C257 C240 1.394 . S
C257 C256 1.438 . S
C257 C258 1.428 . S
C258 H250 0.949 . S
C258 C257 1.428 . S
C258 C259 1.345 . S
C259 H251 0.950 . S
C259 C258 1.345 . S
C259 C260 1.424 1_565 S
C260 H252 0.951 . S
C260 C259 1.424 1_545 S
C260 C261 1.347 1_545 S
C261 H253 0.970 . S
C261 C256 1.429 . S
C261 C260 1.347 1_565 S
H262 C263 0.951 . S
C263 H262 0.951 . S
C263 C269 1.265 . S
H264 C269 0.950 . S
H265 C273 0.949 . S
H266 C274 0.950 . S
H267 C275 0.951 . S
H268 C276 0.951 . S
C269 C263 1.265 . S
C269 H264 0.950 . S
C269 C270 1.478 . S
C270 C269 1.478 . S
C270 C271 1.397 . S
C270 C287 1.394 . S
C271 C270 1.397 . S
C271 C272 1.438 . S
C271 C276 1.429 . S
C272 C271 1.438 . S
C272 C273 1.428 . S
C272 C285 1.394 . S
C273 H265 0.949 . S
C273 C272 1.428 . S
C273 C274 1.345 . S
C274 H266 0.950 . S
C274 C273 1.345 . S
C274 C275 1.424 . S
C275 H267 0.951 . S
C275 C274 1.424 . S
C275 C276 1.347 . S
C276 H268 0.951 . S
C276 C271 1.429 . S
C276 C275 1.347 . S
H277 C278 0.951 . S
C278 H277 0.951 . S
C278 C284 1.265 . S
H279 C284 0.950 . S
H280 C288 0.949 . S
H281 C289 0.950 . S
H282 C290 0.951 . S
H283 C291 0.951 . S
C284 C278 1.265 . S
C284 H279 0.950 . S
C284 C285 1.478 . S
C285 C272 1.394 . S
C285 C284 1.478 . S
C285 C286 1.397 . S
C286 C285 1.397 . S
C286 C287 1.438 . S
C286 C291 1.429 . S
C287 C270 1.394 . S
C287 C286 1.438 . S
C287 C288 1.428 . S
C288 H280 0.949 . S
C288 C287 1.428 . S
C288 C289 1.345 . S
C289 H281 0.950 . S
C289 C288 1.345 . S
C289 C290 1.424 . S
C290 H282 0.951 . S
C290 C289 1.424 . S
C290 C291 1.347 . S
C291 H283 0.951 . S
C291 C286 1.429 . S
C291 C290 1.347 . S
H292 C293 0.951 . S
C293 H292 0.951 . S
C293 C299 1.265 . S
H294 C299 0.950 . S
H295 C303 0.949 . S
H296 C304 0.950 . S
H297 C305 0.951 . S
H298 C306 0.951 . S
C299 C293 1.265 . S
C299 H294 0.950 . S
C299 C300 1.478 . S
C300 C299 1.478 . S
C300 C301 1.397 . S
C300 C317 1.394 . S
C301 C300 1.397 . S
C301 C302 1.438 . S
C301 C306 1.429 . S
C302 C301 1.438 . S
C302 C303 1.428 . S
C302 C315 1.394 . S
C303 H295 0.949 . S
C303 C302 1.428 . S
C303 C304 1.345 . S
C304 H296 0.950 . S
C304 C303 1.345 . S
C304 C305 1.424 . S
C305 H297 0.951 . S
C305 C304 1.424 . S
C305 C306 1.347 . S
C306 H298 0.951 . S
C306 C301 1.429 . S
C306 C305 1.347 . S
H307 C308 0.951 . S
C308 H307 0.951 . S
C308 C314 1.265 . S
H309 C314 0.950 . S
H310 C318 0.949 . S
H311 C319 0.950 . S
H312 C320 0.951 1_565 S
H313 C321 0.951 . S
C314 C308 1.265 . S
C314 H309 0.950 . S
C314 C315 1.478 . S
C315 C302 1.394 . S
C315 C314 1.478 . S
C315 C316 1.397 . S
C316 C315 1.397 . S
C316 C317 1.438 . S
C316 C321 1.429 . S
C317 C300 1.394 . S
C317 C316 1.438 . S
C317 C318 1.428 . S
C318 H310 0.949 . S
C318 C317 1.428 . S
C318 C319 1.345 . S
C319 H311 0.950 . S
C319 C318 1.345 . S
C319 C320 1.424 . S
C320 H312 0.951 1_545 S
C320 C319 1.424 . S
C320 C321 1.347 . S
C321 H313 0.951 . S
C321 C316 1.429 . S
C321 C320 1.347 . S
H322 C323 0.951 . S
C323 H322 0.951 . S
C323 C329 1.265 . S
H324 C329 0.950 . S
H325 C333 0.949 . S
H326 C334 0.950 . S
H327 C335 0.951 . S
H328 C336 0.951 . S
C329 C323 1.265 . S
C329 H324 0.950 . S
C329 C330 1.478 . S
C330 C329 1.478 . S
C330 C331 1.397 . S
C330 C347 1.394 . S
C331 C330 1.397 . S
C331 C332 1.438 . S
C331 C336 1.429 . S
C332 C331 1.438 . S
C332 C333 1.428 . S
C332 C345 1.394 . S
C333 H325 0.949 . S
C333 C332 1.428 . S
C333 C334 1.345 . S
C334 H326 0.950 . S
C334 C333 1.345 . S
C334 C335 1.424 . S
C335 H327 0.951 . S
C335 C334 1.424 . S
C335 C336 1.347 . S
C336 H328 0.951 . S
C336 C331 1.429 . S
C336 C335 1.347 . S
H337 C338 0.951 . S
C338 H337 0.951 . S
C338 C344 1.265 . S
H339 C344 0.950 . S
H340 C348 0.949 . S
H341 C349 0.950 . S
H342 C350 0.951 . S
H343 C351 0.951 . S
C344 C338 1.265 . S
C344 H339 0.950 . S
C344 C345 1.478 . S
C345 C332 1.394 . S
C345 C344 1.478 . S
C345 C346 1.397 . S
C346 C345 1.397 . S
C346 C347 1.438 . S
C346 C351 1.429 . S
C347 C330 1.394 . S
C347 C346 1.438 . S
C347 C348 1.428 . S
C348 H340 0.949 . S
C348 C347 1.428 . S
C348 C349 1.345 . S
C349 H341 0.950 . S
C349 C348 1.345 . S
C349 C350 1.424 . S
C350 H342 0.951 . S
C350 C349 1.424 . S
C350 C351 1.347 . S
C351 H343 0.951 . S
C351 C346 1.429 . S
C351 C350 1.347 . S
H352 C353 0.951 . S
C353 H352 0.951 . S
C353 C359 1.265 . S
H354 C359 0.950 . S
H355 C363 0.949 . S
H356 C364 0.950 . S
H357 C365 0.951 . S
H358 C366 0.951 . S
C359 C353 1.265 . S
C359 H354 0.950 . S
C359 C360 1.478 . S
C360 C359 1.478 . S
C360 C361 1.397 . S
C360 C377 1.394 . S
C361 C360 1.397 . S
C361 C362 1.438 . S
C361 C366 1.429 . S
C362 C361 1.438 . S
C362 C363 1.428 . S
C362 C375 1.394 . S
C363 H355 0.949 . S
C363 C362 1.428 . S
C363 C364 1.345 . S
C364 H356 0.950 . S
C364 C363 1.345 . S
C364 C365 1.424 . S
C365 H357 0.951 . S
C365 C364 1.424 . S
C365 C366 1.347 . S
C366 H358 0.951 . S
C366 C361 1.429 . S
C366 C365 1.347 . S
H367 C368 0.951 . S
C368 H367 0.951 . S
C368 C374 1.265 . S
H369 C374 0.950 . S
H370 C378 0.949 . S
H371 C379 0.950 . S
H372 C380 0.951 . S
H373 C381 0.951 . S
C374 C368 1.265 . S
C374 H369 0.950 . S
C374 C375 1.478 . S
C375 C362 1.394 . S
C375 C374 1.478 . S
C375 C376 1.397 . S
C376 C375 1.397 . S
C376 C377 1.438 . S
C376 C381 1.429 . S
C377 C360 1.394 . S
C377 C376 1.438 . S
C377 C378 1.428 . S
C378 H370 0.949 . S
C378 C377 1.428 . S
C378 C379 1.345 . S
C379 H371 0.950 . S
C379 C378 1.345 . S
C379 C380 1.424 . S
C380 H372 0.951 . S
C380 C379 1.424 . S
C380 C381 1.347 . S
C381 H373 0.951 . S
C381 C376 1.429 . S
C381 C380 1.347 . S
H382 C383 0.951 . S
C383 H382 0.951 . S
C383 C389 1.265 . S
H384 C389 0.950 . S
H385 C393 0.949 . S
H386 C394 0.950 . S
H387 C395 0.951 . S
H388 C396 0.951 . S
C389 C383 1.265 . S
C389 H384 0.950 . S
C389 C390 1.478 . S
C390 C389 1.478 . S
C390 C391 1.397 . S
C390 C407 1.394 . S
C391 C390 1.397 . S
C391 C392 1.438 . S
C391 C396 1.429 . S
C392 C391 1.438 . S
C392 C393 1.428 . S
C392 C405 1.394 . S
C393 H385 0.949 . S
C393 C392 1.428 . S
C393 C394 1.345 . S
C394 H386 0.950 . S
C394 C393 1.345 . S
C394 C395 1.424 . S
C395 H387 0.951 . S
C395 C394 1.424 . S
C395 C396 1.347 . S
C396 H388 0.951 . S
C396 C391 1.429 . S
C396 C395 1.347 . S
H397 C398 0.951 . S
C398 H397 0.951 . S
C398 C404 1.265 . S
H399 C404 0.950 . S
H400 C408 0.949 . S
H401 C409 0.950 . S
H402 C410 0.951 1_455 S
H403 C411 0.951 . S
C404 C398 1.265 . S
C404 H399 0.950 . S
C404 C405 1.478 . S
C405 C392 1.394 . S
C405 C404 1.478 . S
C405 C406 1.397 . S
C406 C405 1.397 . S
C406 C407 1.438 . S
C406 C411 1.429 . S
C407 C390 1.394 . S
C407 C406 1.438 . S
C407 C408 1.428 . S
C408 H400 0.949 . S
C408 C407 1.428 . S
C408 C409 1.345 . S
C409 H401 0.950 . S
C409 C408 1.345 . S
C409 C410 1.424 . S
C410 H402 0.951 1_655 S
C410 C409 1.424 . S
C410 C411 1.347 . S
C411 H403 0.951 . S
C411 C406 1.429 . S
C411 C410 1.347 . S
H412 C413 0.951 . S
C413 H412 0.951 . S
C413 C419 1.265 . S
H414 C419 0.950 . S
H415 C423 0.949 . S
H416 C424 0.950 . S
H417 C425 0.951 . S
H418 C426 0.951 . S
C419 C413 1.265 . S
C419 H414 0.950 . S
C419 C420 1.478 . S
C420 C419 1.478 . S
C420 C421 1.397 . S
C420 C437 1.394 . S
C421 C420 1.397 . S
C421 C422 1.438 . S
C421 C426 1.429 . S
C422 C421 1.438 . S
C422 C423 1.428 . S
C422 C435 1.394 . S
C423 H415 0.949 . S
C423 C422 1.428 . S
C423 C424 1.345 . S
C424 H416 0.950 . S
C424 C423 1.345 . S
C424 C425 1.424 . S
C425 H417 0.951 . S
C425 C424 1.424 . S
C425 C426 1.347 . S
C426 H418 0.951 . S
C426 C421 1.429 . S
C426 C425 1.347 . S
H427 C428 0.951 . S
C428 H427 0.951 . S
C428 C434 1.265 . S
H429 C434 0.950 . S
H430 C438 0.949 . S
H431 C439 0.950 . S
H432 C440 0.951 . S
H433 C441 0.951 . S
C434 C428 1.265 . S
C434 H429 0.950 . S
C434 C435 1.478 . S
C435 C422 1.394 . S
C435 C434 1.478 . S
C435 C436 1.397 . S
C436 C435 1.397 . S
C436 C437 1.438 . S
C436 C441 1.429 . S
C437 C420 1.394 . S
C437 C436 1.438 . S
C437 C438 1.428 . S
C438 H430 0.949 . S
C438 C437 1.428 . S
C438 C439 1.345 . S
C439 H431 0.950 . S
C439 C438 1.345 . S
C439 C440 1.424 . S
C440 H432 0.951 . S
C440 C439 1.424 . S
C440 C441 1.347 . S
C441 H433 0.951 . S
C441 C436 1.429 . S
C441 C440 1.347 . S
H442 C443 0.951 . S
C443 H442 0.951 . S
C443 C449 1.265 . S
H444 C449 0.950 . S
H445 C453 0.949 . S
H446 C454 0.950 . S
H447 C455 0.951 . S
H448 C456 0.951 . S
C449 C443 1.265 . S
C449 H444 0.950 . S
C449 C450 1.478 . S
C450 C449 1.478 . S
C450 C451 1.397 . S
C450 C467 1.394 . S
C451 C450 1.397 . S
C451 C452 1.438 . S
C451 C456 1.429 . S
C452 C451 1.438 . S
C452 C453 1.428 . S
C452 C465 1.394 . S
C453 H445 0.949 . S
C453 C452 1.428 . S
C453 C454 1.345 . S
C454 H446 0.950 . S
C454 C453 1.345 . S
C454 C455 1.424 . S
C455 H447 0.951 . S
C455 C454 1.424 . S
C455 C456 1.347 . S
C456 H448 0.951 . S
C456 C451 1.429 . S
C456 C455 1.347 . S
H457 C458 0.951 . S
C458 H457 0.951 . S
C458 C464 1.265 . S
H459 C464 0.950 . S
H460 C468 0.949 . S
H461 C469 0.950 1_545 S
H462 C470 0.951 . S
H463 C471 0.951 1_545 S
C464 C458 1.265 . S
C464 H459 0.950 . S
C464 C465 1.478 . S
C465 C452 1.394 . S
C465 C464 1.478 . S
C465 C466 1.397 . S
C466 C465 1.397 . S
C466 C467 1.438 . S
C466 C471 1.429 . S
C467 C450 1.394 . S
C467 C466 1.438 . S
C467 C468 1.428 . S
C468 H460 0.949 . S
C468 C467 1.428 . S
C468 C469 1.345 . S
C469 H461 0.950 1_565 S
C469 C468 1.345 . S
C469 C470 1.424 1_565 S
C470 H462 0.951 . S
C470 C469 1.424 1_545 S
C470 C471 1.347 1_545 S
C471 H463 0.951 1_565 S
C471 C466 1.429 . S
C471 C470 1.347 1_565 S
C128 C48 1.491 . S
C113 N37 1.491 . S
C143 N4 1.495 . S
C158 C91 1.492 . S
C173 N15 1.494 . S
C188 C57 1.493 . S
C203 N26 1.497 . S
C218 C82 1.498 . S
C248 C44 1.557 . S
C233 C9 1.555 . S
C278 C86 1.525 . S
C263 C17 1.522 . S
C293 C31 1.544 . S
C308 C52 1.548 . S
C323 C42 1.506 . S
C338 C78 1.532 . S
C368 C107 1.459 . S
C353 C20 1.446 . S
C398 C73 1.441 . S
C383 C28 1.430 . S
C428 C95 1.463 . S
C413 C39 1.450 . S
C443 C6 1.424 . S
C458 C61 1.432 . S
