# Generated by pormake.
# Topology anh, (6,3)-cn, num edge types: 1
# Building blocks:
#     Node 0, Type 0, BuildingBlock: BETFEN_clean_sbu_0, # of connection points: 6
#     Node 1, Type 0, BuildingBlock: BETFEN_clean_sbu_0, # of connection points: 6
#     Node 2, Type 0, BuildingBlock: BETFEN_clean_sbu_0, # of connection points: 6
#     Node 3, Type 1, BuildingBlock: MIDCAF_clean_linker_0, # of connection points: 3
#     Node 4, Type 1, BuildingBlock: MIDCAF_clean_linker_0, # of connection points: 3
#     Node 5, Type 1, BuildingBlock: MIDCAF_clean_linker_0, # of connection points: 3
#     Node 6, Type 1, BuildingBlock: MIDCAF_clean_linker_0, # of connection points: 3
#     Node 7, Type 1, BuildingBlock: MIDCAF_clean_linker_0, # of connection points: 3
#     Node 8, Type 1, BuildingBlock: MIDCAF_clean_linker_0, # of connection points: 3
#     Edge 9, Type (0, 1), BuildingBlock: CIFDUS_clean_linker_0, # of connection points: 2
#     Edge 10, Type (0, 1), BuildingBlock: CIFDUS_clean_linker_0, # of connection points: 2
#     Edge 11, Type (0, 1), BuildingBlock: CIFDUS_clean_linker_0, # of connection points: 2
#     Edge 12, Type (0, 1), BuildingBlock: CIFDUS_clean_linker_0, # of connection points: 2
#     Edge 13, Type (0, 1), BuildingBlock: CIFDUS_clean_linker_0, # of connection points: 2
#     Edge 14, Type (0, 1), BuildingBlock: CIFDUS_clean_linker_0, # of connection points: 2
#     Edge 15, Type (0, 1), BuildingBlock: CIFDUS_clean_linker_0, # of connection points: 2
#     Edge 16, Type (0, 1), BuildingBlock: CIFDUS_clean_linker_0, # of connection points: 2
#     Edge 17, Type (0, 1), BuildingBlock: CIFDUS_clean_linker_0, # of connection points: 2
#     Edge 18, Type (0, 1), BuildingBlock: CIFDUS_clean_linker_0, # of connection points: 2
#     Edge 19, Type (0, 1), BuildingBlock: CIFDUS_clean_linker_0, # of connection points: 2
#     Edge 20, Type (0, 1), BuildingBlock: CIFDUS_clean_linker_0, # of connection points: 2
#     Edge 21, Type (0, 1), BuildingBlock: CIFDUS_clean_linker_0, # of connection points: 2
#     Edge 22, Type (0, 1), BuildingBlock: CIFDUS_clean_linker_0, # of connection points: 2
#     Edge 23, Type (0, 1), BuildingBlock: CIFDUS_clean_linker_0, # of connection points: 2
#     Edge 24, Type (0, 1), BuildingBlock: CIFDUS_clean_linker_0, # of connection points: 2
#     Edge 25, Type (0, 1), BuildingBlock: CIFDUS_clean_linker_0, # of connection points: 2
#     Edge 26, Type (0, 1), BuildingBlock: CIFDUS_clean_linker_0, # of connection points: 2
# Relax obj value: 0.196
# Max RMSD: 0.214
# Mean RMSD: 0.160
data_MOF--net-anh--node1-BETFEN_clean_sbu_0--node2-MIDCAF_clean_linker_0--edge1-CIFDUS_clean_linker_0
_symmetry_space_group_name_H-M    P1
_symmetry_Int_Tables_number       1
_symmetry_cell_setting            triclinic
loop_
_symmetry_equiv_pos_as_xyz
'x, y, z'
_cell_length_a     31.911625
_cell_length_b     32.981238
_cell_length_c     60.228529
_cell_angle_alpha  90.559887
_cell_angle_beta   92.014734
_cell_angle_gamma 104.78708
loop_
_atom_site_label
_atom_site_type_symbol
_atom_site_fract_x
_atom_site_fract_y
_atom_site_fract_z
_atom_type_partial_charge
Pr0 Pr 0.05236 0.5466 0.15068 0.0
Pr1 Pr 0.07802 0.64686 0.14063 0.0
C2 C 1.02737 0.47209 0.1708 0.0
C3 C 0.98689 0.43856 0.17313 0.0
C4 C 0.96825 0.41131 0.15528 0.0
C5 C 0.92995 0.37992 0.15785 0.0
C6 C 0.90939 0.3752 0.17828 0.0
C7 C 0.92814 0.40241 0.19611 0.0
C8 C 0.96651 0.43359 0.19358 0.0
C9 C 0.05126 0.56027 0.10473 0.0
C10 C 0.97285 0.59451 0.14147 0.0
C11 C 0.1001 0.72733 0.12833 0.0
C12 C 0.1394 0.76063 0.13435 0.0
C13 C 0.1703 0.75202 0.14946 0.0
C14 C 0.20763 0.78302 0.15569 0.0
C15 C 0.21537 0.82339 0.14672 0.0
C16 C 0.18439 0.83184 0.13138 0.0
C17 C 0.14666 0.80067 0.12527 0.0
C18 C 0.08821 0.62389 0.18462 0.0
C19 C 0.15529 0.59662 0.14287 0.0
O20 O 1.02939 0.50794 0.1808 0.0
O21 O 0.04488 0.47644 0.15135 0.0
O22 O 0.05982 0.58725 0.12016 0.0
O23 O 0.04215 0.52301 0.11309 0.0
O24 O 1.0019 0.62941 0.13627 0.0
O25 O 0.98375 0.5603 0.14822 0.0
O26 O 0.10636 0.69669 0.11591 0.0
O27 O 0.07434 0.7141 0.1447 0.0
O28 O 0.05739 0.6069 0.17125 0.0
O29 O 0.1145 0.65545 0.17559 0.0
O30 O 0.1292 0.56539 0.15337 0.0
O31 O 0.14112 0.62693 0.13347 0.0
H32 H 0.98312 0.41422 0.13928 0.0
H33 H 0.91617 0.35962 0.14377 0.0
H34 H 0.91352 0.39916 0.21217 0.0
H35 H 0.9803 0.45386 0.20768 0.0
H36 H 0.16543 0.72123 0.15658 0.0
H37 H 0.23007 0.77541 0.16787 0.0
H38 H 0.18942 0.86238 0.12395 0.0
H39 H 0.12326 0.80781 0.11347 0.0
Pr40 Pr 0.59188 0.08487 0.51592 0.0
Pr41 Pr 0.49602 0.0639 0.51583 0.0
C42 C 0.67664 0.11711 0.50872 0.0
C43 C 0.70613 0.15797 0.50361 0.0
C44 C 0.7427 0.17456 0.5176 0.0
C45 C 0.77144 0.21289 0.5129 0.0
C46 C 0.76438 0.23528 0.49397 0.0
C47 C 0.72747 0.21867 0.48006 0.0
C48 C 0.69855 0.18053 0.48488 0.0
C49 C 0.55786 0.0698 0.55784 0.0
C50 C 0.54222 0.1641 0.51975 0.0
C51 C 0.41053 1.03014 0.52071 0.0
C52 C 0.38142 0.98918 0.51434 0.0
C53 C 0.33633 0.9833 0.51342 0.0
C54 C 0.30911 0.94497 0.50577 0.0
C55 C 0.32671 0.91195 0.499 0.0
C56 C 0.37195 0.91788 0.5006 0.0
C57 C 0.39893 0.95621 0.50791 0.0
C58 C 0.52898 0.08039 0.47382 0.0
C59 C 0.54626 0.98398 0.51637 0.0
O60 O 0.64828 0.09887 0.49314 0.0
O61 O 0.66101 0.11333 0.52857 0.0
O62 O 0.54578 0.092 0.54333 0.0
O63 O 0.58899 1.05441 0.55114 0.0
O64 O 0.50805 0.13489 0.52579 0.0
O65 O 0.57651 0.15274 0.51243 0.0
O66 O 0.44007 1.02976 0.53627 0.0
O67 O 0.42583 1.05408 0.50419 0.0
O68 O 0.54185 0.05744 0.48779 0.0
O69 O 0.49835 0.09538 0.48132 0.0
O70 O 0.58306 1.01156 0.51227 0.0
O71 O 0.51095 0.997 0.51978 0.0
H72 H 0.74909 0.15777 0.53219 0.0
H73 H 0.79914 0.225 0.52416 0.0
H74 H 0.72131 0.23466 0.46516 0.0
H75 H 0.67053 0.16861 0.47379 0.0
H76 H 0.32226 1.0086 0.51811 0.0
H77 H 0.27448 0.94171 0.50449 0.0
H78 H 0.3867 0.89304 0.49593 0.0
H79 H 0.43359 0.96035 0.5081 0.0
Pr80 Pr 0.53988 0.55805 0.8219 0.0
Pr81 Pr 0.55912 0.64965 0.82788 0.0
C82 C 0.52069 0.47552 0.81333 0.0
C83 C 0.5368 0.44145 0.82317 0.0
C84 C 0.53771 0.43601 0.84633 0.0
C85 C 0.55205 0.40293 0.85541 0.0
C86 C 0.5664 0.37526 0.84154 0.0
C87 C 0.56713 0.38179 0.8185 0.0
C88 C 0.5523 0.41454 0.80939 0.0
C89 C 0.55731 0.58438 0.86625 0.0
C90 C 0.64203 0.60997 0.82764 0.0
C91 C 0.56075 0.72768 0.84114 0.0
C92 C 0.52558 0.74514 0.84904 0.0
C93 C 0.48966 0.74528 0.83492 0.0
C94 C 0.45588 0.76063 0.84246 0.0
C95 C 0.45681 0.77613 0.86437 0.0
C96 C 0.49217 0.77481 0.87874 0.0
C97 C 0.52629 0.75951 0.87112 0.0
C98 C 0.56676 0.62391 0.78413 0.0
C99 C 0.45521 0.5991 0.82172 0.0
O100 O 0.54819 0.50255 0.80165 0.0
O101 O 0.49752 0.49288 0.82608 0.0
O102 O 0.53333 0.59765 0.85267 0.0
O103 O 0.57383 0.55679 0.857 0.0
O104 O 0.62677 0.63881 0.83744 0.0
O105 O 0.61534 0.57845 0.81655 0.0
O106 O 0.57291 0.70115 0.85434 0.0
O107 O 0.55809 0.71613 0.82016 0.0
O108 O 0.5361 0.608 0.7965 0.0
O109 O 0.59543 0.65427 0.7942 0.0
O110 O 0.46801 0.56456 0.81838 0.0
O111 O 0.48354 0.63523 0.82601 0.0
H112 H 0.5267 0.45684 0.85743 0.0
H113 H 0.55111 0.39844 0.8732 0.0
H114 H 0.5773 0.36039 0.80739 0.0
H115 H 0.55223 0.41843 0.79155 0.0
H116 H 0.48766 0.73395 0.81788 0.0
H117 H 0.42998 0.76206 0.83062 0.0
H118 H 0.49393 0.78638 0.89573 0.0
H119 H 0.55333 0.75912 0.88243 0.0
C120 C 0.45541 0.95178 0.21998 0.0
C121 C 0.43881 0.9642 0.2 0.0
C122 C 0.45657 1.00491 0.1924 0.0
C123 C 0.49034 1.03266 0.2046 0.0
H124 H 0.62117 0.12424 0.19903 0.0
H125 H 0.67592 0.18335 0.18449 0.0
H126 H 0.69825 0.24047 0.2501 0.0
H127 H 0.64403 0.18225 0.26453 0.0
H128 H 0.61618 0.12977 0.30543 0.0
H129 H 0.6159 0.12383 0.34566 0.0
H130 H 0.53202 0.99865 0.33895 0.0
H131 H 0.53207 1.00434 0.29849 0.0
H132 H 0.50008 0.96918 0.24783 0.0
H133 H 0.4421 0.92069 0.22631 0.0
H134 H 0.44444 1.01518 0.17699 0.0
H135 H 0.5032 0.06394 0.19843 0.0
N136 N 0.56754 0.08395 0.22948 0.0
N137 N 0.59921 0.10582 0.26476 0.0
N138 N 0.54264 1.04481 0.26101 0.0
C139 C 0.59744 0.11177 0.24251 0.0
C140 C 0.57213 0.07251 0.27418 0.0
C141 C 0.53997 1.05035 0.23869 0.0
C142 C 0.62829 0.14837 0.23296 0.0
C143 C 0.6375 0.14965 0.21027 0.0
C144 C 0.66899 0.18333 0.20197 0.0
C145 C 0.69131 0.2166 0.21614 0.0
C146 C 0.68128 0.21563 0.23868 0.0
C147 C 0.65034 0.18198 0.24698 0.0
C148 C 0.57385 0.06763 0.29864 0.0
C149 C 0.59789 0.10076 0.31242 0.0
C150 C 0.59768 0.09748 0.33551 0.0
C151 C 0.57382 0.06087 0.34541 0.0
C152 C 0.55093 1.02715 0.33173 0.0
C153 C 0.55074 1.03056 0.30857 0.0
C154 C 0.5063 1.02046 0.22485 0.0
C155 C 0.48849 0.97966 0.23234 0.0
C156 C 0.584 0.45048 0.51498 0.0
C157 C 0.56434 0.41627 0.52844 0.0
C158 C 0.54379 0.4257 0.54741 0.0
C159 C 0.54392 0.46713 0.55311 0.0
H160 H 0.60729 0.65999 0.51108 0.0
H161 H 0.60753 0.73187 0.50026 0.0
H162 H 0.5157 0.73591 0.55071 0.0
H163 H 0.51448 0.66475 0.56059 0.0
H164 H 0.54731 0.63984 0.60913 0.0
H165 H 0.55442 0.64675 0.64964 0.0
H166 H 0.62532 0.55164 0.65174 0.0
H167 H 0.61726 0.54359 0.61107 0.0
H168 H 0.60044 0.51775 0.51036 0.0
H169 H 0.59992 0.44497 0.50009 0.0
H170 H 0.52881 0.40114 0.55857 0.0
H171 H 0.52862 0.47239 0.56827 0.0
N172 N 0.56574 0.57944 0.53708 0.0
N173 N 0.57223 0.61982 0.57019 0.0
N174 N 0.5754 0.55008 0.57195 0.0
C175 C 0.56699 0.61713 0.54773 0.0
C176 C 0.57693 0.58698 0.58238 0.0
C177 C 0.56955 0.54533 0.54949 0.0
C178 C 0.5604 0.65592 0.53653 0.0
C179 C 0.58599 0.67577 0.51922 0.0
C180 C 0.58669 0.71757 0.51335 0.0
C181 C 0.56186 0.74088 0.52462 0.0
C182 C 0.5349 0.71984 0.54119 0.0
C183 C 0.53422 0.6785 0.54696 0.0
C184 C 0.58175 0.59116 0.60691 0.0
C185 C 0.56447 0.62038 0.61817 0.0
C186 C 0.56838 0.6243 0.64132 0.0
C187 C 0.59046 0.59978 0.65362 0.0
C188 C 0.60825 0.57091 0.64248 0.0
C189 C 0.60347 0.56625 0.6193 0.0
C190 C 0.56444 0.50146 0.54015 0.0
C191 C 0.58384 0.49241 0.52067 0.0
C192 C 0.90339 0.60744 0.86247 0.0
C193 C 0.88714 0.59048 0.84146 0.0
C194 C 0.91411 0.57305 0.82829 0.0
C195 C 0.95579 0.57176 0.83626 0.0
H196 H 0.11979 0.60906 0.82997 0.0
H197 H 0.18986 0.606 0.81511 0.0
H198 H 0.19744 0.50875 0.86139 0.0
H199 H 0.1284 0.51205 0.87613 0.0
H200 H 0.10494 0.5387 0.92686 0.0
H201 H 0.10667 0.53226 0.96717 0.0
H202 H 1.00419 0.59539 0.97149 0.0
H203 H 1.0021 0.60181 0.93109 0.0
H204 H 0.95516 0.6186 0.88692 0.0
H205 H 0.88361 0.62055 0.8733 0.0
H206 H 0.90283 0.55999 0.81194 0.0
H207 H 0.97524 0.55708 0.82604 0.0
N208 N 0.04527 0.57491 0.8558 0.0
N209 N 0.08316 0.56589 0.8889 0.0
N210 N 1.01546 0.5803 0.89058 0.0
C211 C 0.0811 0.56728 0.86636 0.0
C212 C 0.05072 0.57264 0.90113 0.0
C213 C 1.01206 0.58126 0.86804 0.0
C214 C 0.1186 0.56078 0.85419 0.0
C215 C 0.13604 0.58638 0.83651 0.0
C216 C 0.17632 0.5849 0.82819 0.0
C217 C 0.19937 0.55719 0.8371 0.0
C218 C 0.18054 0.53015 0.85396 0.0
C219 C 0.14094 0.53214 0.86247 0.0
C220 C 0.0532 0.57056 0.9257 0.0
C221 C 0.08294 0.5515 0.93636 0.0
C222 C 0.08386 0.54764 0.95943 0.0
C223 C 0.05548 0.56323 0.9724 0.0
C224 C 1.02659 0.58334 0.96188 0.0
C225 C 1.02524 0.58672 0.93874 0.0
C226 C 0.9711 0.58744 0.85765 0.0
C227 C 0.94457 0.60599 0.8704 0.0
C228 C 0.14727 0.70585 0.43131 0.0
C229 C 0.14765 0.70792 0.45464 0.0
C230 C 0.11959 0.67548 0.46596 0.0
C231 C 0.09176 0.64182 0.45416 0.0
H232 H 0.9996 0.52254 0.45945 0.0
H233 H 0.94512 0.46705 0.4767 0.0
H234 H 0.87009 0.44431 0.41472 0.0
H235 H 0.92438 0.49931 0.39739 0.0
H236 H 0.96979 0.55039 0.35195 0.0
H237 H 0.97539 0.55177 0.31176 0.0
H238 H 0.11543 0.58863 0.31991 0.0
H239 H 0.10924 0.59024 0.36001 0.0
H240 H 0.12039 0.67216 0.40161 0.0
H241 H 0.16771 0.73066 0.42199 0.0
H242 H 0.11935 0.67591 0.48393 0.0
H243 H 0.07048 0.6174 0.46336 0.0
N244 N 1.02957 0.57684 0.42815 0.0
N245 N 1.00351 0.54495 0.39359 0.0
N246 N 0.06428 0.60256 0.39558 0.0
C247 C 1.00055 0.5466 0.41602 0.0
C248 C 0.03557 0.57259 0.38333 0.0
C249 C 0.06133 0.60523 0.41796 0.0
C250 C 0.96641 0.51517 0.42702 0.0
C251 C 0.97127 0.50598 0.44957 0.0
C252 C 0.94026 0.47415 0.45943 0.0
C253 C 0.90348 0.45149 0.44702 0.0
C254 C 0.89797 0.46155 0.4247 0.0
C255 C 0.92924 0.49284 0.41476 0.0
C256 C 0.03905 0.57057 0.35902 0.0
C257 C 1.0017 0.5587 0.34505 0.0
C258 C 1.00504 0.55919 0.32197 0.0
C259 C 0.04592 0.57053 0.31234 0.0
C260 C 0.08331 0.5809 0.32652 0.0
C261 C 0.07987 0.58152 0.34956 0.0
C262 C 0.09154 0.63987 0.4308 0.0
C263 C 0.11981 0.67224 0.41958 0.0
C264 C 0.58474 0.14892 0.80414 0.0
C265 C 0.5797 0.15182 0.82718 0.0
C266 C 0.55043 0.11872 0.83746 0.0
C267 C 0.52317 0.08635 0.82466 0.0
H268 H 0.38592 1.02338 0.82115 0.0
H269 H 0.34232 0.97083 0.84485 0.0
H270 H 0.33527 0.87651 0.79351 0.0
H271 H 0.37708 0.92919 0.76971 0.0
H272 H 0.43569 0.96121 0.72275 0.0
H273 H 0.45118 0.95877 0.68309 0.0
H274 H 0.52662 0.08756 0.68777 0.0
H275 H 0.51198 0.08997 0.72706 0.0
H276 H 0.56109 0.11678 0.77357 0.0
H277 H 0.60658 0.17373 0.79545 0.0
H278 H 0.54647 0.11934 0.85524 0.0
H279 H 0.49912 0.06274 0.83293 0.0
N280 N 0.45519 1.03348 0.79628 0.0
N281 N 0.42976 1.00372 0.76117 0.0
N282 N 0.4968 1.05369 0.76522 0.0
C283 C 0.42391 1.00722 0.78333 0.0
C284 C 0.46608 1.02748 0.75202 0.0
C285 C 0.4919 1.05654 0.78737 0.0
C286 C 0.38638 0.97983 0.79401 0.0
C287 C 0.3735 0.99166 0.81465 0.0
C288 C 0.3483 0.9616 0.82818 0.0
C289 C 0.33691 0.91908 0.82155 0.0
C290 C 0.34376 0.90879 0.79942 0.0
C291 C 0.36829 0.93902 0.78572 0.0
C292 C 0.47271 1.02574 0.72795 0.0
C293 C 0.45531 0.98899 0.71519 0.0
C294 C 0.46432 0.98749 0.69264 0.0
C295 C 0.48994 1.02303 0.68251 0.0
C296 C 0.50652 0.05987 0.6952 0.0
C297 C 0.49829 0.06112 0.71769 0.0
C298 C 0.52528 0.08608 0.80138 0.0
C299 C 0.55798 0.11637 0.79142 0.0
C300 C 0.69451 0.58337 0.1397 0.0
C301 C 0.71388 0.55199 0.13238 0.0
C302 C 0.6894 0.51955 0.11839 0.0
C303 C 0.6477 0.51996 0.11069 0.0
H304 H 0.48768 0.5423 0.14227 0.0
H305 H 0.41604 0.54253 0.15588 0.0
H306 H 0.3893 0.60542 0.09653 0.0
H307 H 0.46009 0.60577 0.08323 0.0
H308 H 0.52918 0.61852 0.04143 0.0
H309 H 0.53856 0.62546 0.00155 0.0
H310 H 0.60472 0.52601 0.00263 0.0
H311 H 0.59809 0.52171 0.04263 0.0
H312 H 0.63888 0.60895 0.13719 0.0
H313 H 0.71256 0.60866 0.15055 0.0
H314 H 0.70347 0.49516 0.1123 0.0
H315 H 0.63074 0.49606 0.09876 0.0
N316 N 0.55466 0.56346 0.11447 0.0
N317 N 0.5241 0.57276 0.07932 0.0
N318 N 0.59252 0.55934 0.08202 0.0
C319 C 0.52087 0.57042 0.10177 0.0
C320 C 0.55966 0.56709 0.06938 0.0
C321 C 0.59065 0.55797 0.10447 0.0
C322 C 0.47976 0.57396 0.11163 0.0
C323 C 0.4667 0.55675 0.13234 0.0
C324 C 0.42551 0.55652 0.14004 0.0
C325 C 0.39685 0.57403 0.12732 0.0
C326 C 0.41059 0.59217 0.10694 0.0
C327 C 0.45129 0.5921 0.09922 0.0
C328 C 0.56305 0.5697 0.04506 0.0
C329 C 0.54572 0.59824 0.03303 0.0
C330 C 0.55094 0.60198 0.01011 0.0
C331 C 0.5726 0.57641 -0.00138 0.0
C332 C 0.58898 0.54717 0.01079 0.0
C333 C 0.58481 0.54431 0.03375 0.0
C334 C 0.62906 0.55223 0.11719 0.0
C335 C 0.65222 0.58326 0.13231 0.0
H336 H 0.19882 0.53583 0.15213 0.0
H337 H 0.21837 0.66349 0.13024 0.0
H338 H 0.29449 0.66841 0.12516 0.0
H339 H 0.35526 0.63627 0.12503 0.0
H340 H 0.33774 0.50849 0.14577 0.0
H341 H 0.26192 0.50431 0.15368 0.0
C342 C 0.21981 0.56476 0.1464 0.0
C343 C 0.20237 0.59897 0.14133 0.0
C344 C 0.2642 0.56754 0.14333 0.0
C345 C 0.23034 0.63631 0.13399 0.0
C346 C 0.27416 0.63933 0.13112 0.0
C347 C 0.33491 0.60743 0.13127 0.0
C348 C 0.3522 0.57265 0.13457 0.0
C349 C 0.2913 0.60503 0.13539 0.0
C350 C 0.32547 0.53589 0.14318 0.0
C351 C 0.28194 0.53336 0.14753 0.0
H352 H 0.74715 0.3058 0.47672 0.0
H353 H 0.853 0.25436 0.4984 0.0
H354 H 0.90509 0.31824 0.48761 0.0
H355 H 0.92085 0.38685 0.46974 0.0
H356 H 0.81534 0.43638 0.44585 0.0
H357 H 0.76284 0.37483 0.45944 0.0
C358 C 0.7816 0.30839 0.47896 0.0
C359 C 0.79598 0.27513 0.48833 0.0
C360 C 0.81148 0.34481 0.4722 0.0
C361 C 0.84084 0.27956 0.49153 0.0
C362 C 0.87075 0.31599 0.4852 0.0
C363 C 0.88635 0.38437 0.46782 0.0
C364 C 0.87188 0.41599 0.45687 0.0
C365 C 0.85645 0.34859 0.47528 0.0
C366 C 0.82714 0.41222 0.45415 0.0
C367 C 0.79718 0.37711 0.46192 0.0
H368 H 0.37007 0.75737 0.85309 0.0
H369 H 0.47125 0.84847 0.88936 0.0
H370 H 0.4295 0.90017 0.88583 0.0
H371 H 0.37996 0.92507 0.86147 0.0
H372 H 0.28514 0.83776 0.81981 0.0
H373 H 0.30795 0.77931 0.83656 0.0
C374 C 0.38243 0.78826 0.86071 0.0
C375 C 0.4247 0.7996 0.87048 0.0
C376 C 0.35979 0.81902 0.85707 0.0
C377 C 0.4393 0.83891 0.88132 0.0
C378 C 0.41558 0.86885 0.87906 0.0
C379 C 0.36257 0.89327 0.85672 0.0
C380 C 0.33238 0.88593 0.83855 0.0
C381 C 0.37794 0.86026 0.86527 0.0
C382 C 0.30966 0.84434 0.83317 0.0
C383 C 0.32302 0.81091 0.84262 0.0
H384 H 0.90308 0.5289 0.14926 0.0
H385 H 0.93663 0.65876 0.13012 0.0
H386 H 0.85996 0.65784 0.12727 0.0
H387 H 0.78296 0.61958 0.12882 0.0
H388 H 0.74941 0.48945 0.14695 0.0
H389 H 0.82633 0.49122 0.15172 0.0
C390 C 0.89377 0.5571 0.14449 0.0
C391 C 0.92593 0.59381 0.13984 0.0
C392 C 0.84945 0.55637 0.14276 0.0
C393 C 0.91286 0.62995 0.13373 0.0
C394 C 0.86889 0.62952 0.13212 0.0
C395 C 0.79252 0.59183 0.13419 0.0
C396 C 0.76047 0.55448 0.13762 0.0
C397 C 0.83687 0.59288 0.13649 0.0
C398 C 0.77343 0.51855 0.14415 0.0
C399 C 0.81741 0.51954 0.14685 0.0
H400 H 0.24634 0.86825 0.51171 0.0
H401 H 0.34367 0.86654 0.46388 0.0
H402 H 0.29845 0.80191 0.44735 0.0
H403 H 0.23077 0.74704 0.44554 0.0
H404 H 0.13051 0.75055 0.49122 0.0
H405 H 0.17757 0.81295 0.50963 0.0
C406 C 0.25753 0.85391 0.49758 0.0
C407 C 0.29858 0.87227 0.48921 0.0
C408 C 0.23091 0.81694 0.48778 0.0
C409 C 0.31269 0.85283 0.47103 0.0
C410 C 0.2867 0.81594 0.46141 0.0
C411 C 0.21897 0.76159 0.45941 0.0
C412 C 0.17699 0.74424 0.46684 0.0
C413 C 0.24569 0.79791 0.46954 0.0
C414 C 0.16279 0.76296 0.48524 0.0
C415 C 0.18956 0.79887 0.49567 0.0
H416 H 0.63523 0.34319 0.83407 0.0
H417 H 0.51523 0.31968 0.86834 0.0
H418 H 0.5158 0.24651 0.87282 0.0
H419 H 0.53932 0.18775 0.85781 0.0
H420 H 0.65826 0.20966 0.82251 0.0
H421 H 0.66973 0.28516 0.82809 0.0
C422 C 0.61002 0.32221 0.84312 0.0
C423 C 0.57467 0.33627 0.85033 0.0
C424 C 0.60993 0.27987 0.84509 0.0
C425 C 0.5426 0.30937 0.86248 0.0
C426 C 0.54273 0.26743 0.86489 0.0
C427 C 0.56891 0.20861 0.85219 0.0
C428 C 0.59679 0.19307 0.83879 0.0
C429 C 0.57466 0.25189 0.85494 0.0
C430 C 0.63526 0.22093 0.83206 0.0
C431 C 0.64179 0.26414 0.83518 0.0
H432 H 0.6093 0.94021 0.50892 0.0
H433 H 0.47642 0.92143 0.52759 0.0
H434 H 0.4689 0.8466 0.53035 0.0
H435 H 0.4992 0.78544 0.52815 0.0
H436 H 0.63295 0.80266 0.51146 0.0
H437 H 0.64014 0.87762 0.50685 0.0
C438 C 0.57864 0.91981 0.51356 0.0
C439 C 0.5434 0.93742 0.51781 0.0
C440 C 0.57439 0.8758 0.51542 0.0
C441 C 0.50415 0.90971 0.52387 0.0
C442 C 0.49974 0.86644 0.52558 0.0
C443 C 0.53024 0.80529 0.5237 0.0
C444 C 0.56544 0.78721 0.5203 0.0
C445 C 0.53458 0.849 0.5215 0.0
C446 C 0.60479 0.81451 0.51396 0.0
C447 C 0.60915 0.85791 0.51151 0.0
H448 H 0.68612 0.55226 0.81502 0.0
H449 H 0.70524 0.6759 0.84446 0.0
H450 H 0.78251 0.68191 0.84952 0.0
H451 H 0.84449 0.65151 0.84727 0.0
H452 H 0.82654 0.52693 0.81949 0.0
H453 H 0.74971 0.52248 0.81157 0.0
C454 C 0.70724 0.58061 0.82241 0.0
C455 C 0.68952 0.61343 0.82946 0.0
C456 C 0.75211 0.58387 0.82551 0.0
C457 C 0.71759 0.64993 0.839 0.0
C458 C 0.76199 0.6535 0.84189 0.0
C459 C 0.82385 0.62327 0.83952 0.0
C460 C 0.8415 0.58949 0.8342 0.0
C461 C 0.77953 0.62052 0.8355 0.0
C462 C 0.81419 0.55362 0.82364 0.0
C463 C 0.77004 0.55089 0.81929 0.0
H464 H 0.29686 0.81393 0.15533 0.0
H465 H 0.22369 0.90745 0.15437 0.0
H466 H 0.28749 0.96015 0.16882 0.0
H467 H 0.3627 0.97849 0.18455 0.0
H468 H 0.43354 0.88338 0.18783 0.0
H469 H 0.37185 0.83237 0.17008 0.0
C470 C 0.29463 0.84574 0.15841 0.0
C471 C 0.25517 0.85641 0.1539 0.0
C472 C 0.33106 0.87562 0.16733 0.0
C473 C 0.25356 0.89822 0.15744 0.0
C474 C 0.29 0.92839 0.16591 0.0
C475 C 0.36472 0.94673 0.18107 0.0
C476 C 0.40253 0.93463 0.18751 0.0
C477 C 0.32873 0.91729 0.17126 0.0
C478 C 0.40463 0.89328 0.18316 0.0
C479 C 0.36941 0.86415 0.173 0.0
H480 H 0.6044 0.23758 0.50883 0.0
H481 H 0.47668 0.1946 0.53501 0.0
H482 H 0.4717 0.26648 0.53899 0.0
H483 H 0.50269 0.34215 0.53569 0.0
H484 H 0.63059 0.38753 0.51033 0.0
H485 H 0.63558 0.3152 0.50503 0.0
C486 C 0.57546 0.24386 0.51539 0.0
C487 C 0.54104 0.20974 0.52164 0.0
C488 C 0.5725 0.28623 0.51772 0.0
C489 C 0.50391 0.21936 0.53004 0.0
C490 C 0.50089 0.26086 0.53235 0.0
C491 C 0.53198 0.33661 0.52914 0.0
C492 C 0.56628 0.37127 0.52361 0.0
C493 C 0.53493 0.29464 0.52637 0.0
C494 C 0.60325 0.36225 0.51461 0.0
C495 C 0.60633 0.32054 0.51173 0.0
H496 H 0.38519 0.53016 0.81975 0.0
H497 H 0.4189 0.66547 0.82382 0.0
H498 H 0.34291 0.66462 0.82702 0.0
H499 H 0.26698 0.62559 0.83134 0.0
H500 H 0.23283 0.49042 0.8281 0.0
H501 H 0.30829 0.49117 0.82178 0.0
C502 C 0.3759 0.55948 0.82109 0.0
C503 C 0.4081 0.59778 0.82166 0.0
C504 C 0.33179 0.55885 0.82317 0.0
C505 C 0.39516 0.63542 0.82346 0.0
C506 C 0.35151 0.63503 0.82529 0.0
C507 C 0.27587 0.59632 0.8288 0.0
C508 C 0.24416 0.55802 0.83026 0.0
C509 C 0.31956 0.59695 0.82551 0.0
C510 C 0.25656 0.52037 0.82726 0.0
C511 C 0.29978 0.52076 0.82364 0.0
H512 H 0.83695 0.38155 0.19905 0.0
H513 H 0.89112 0.29325 0.1641 0.0
H514 H 0.82667 0.23694 0.17103 0.0
H515 H 0.75723 0.21178 0.18945 0.0
H516 H 0.70398 0.30024 0.22487 0.0
H517 H 0.76578 0.35733 0.21545 0.0
C518 C 0.83467 0.34996 0.19298 0.0
C519 C 0.86897 0.34159 0.18124 0.0
C520 C 0.79773 0.31768 0.1972 0.0
C521 C 0.8651 0.30064 0.17308 0.0
C522 C 0.82834 0.26836 0.17714 0.0
C523 C 0.7588 0.24367 0.19475 0.0
C524 C 0.72621 0.25167 0.20799 0.0
C525 C 0.79471 0.27638 0.18945 0.0
C526 C 0.72894 0.29315 0.21492 0.0
C527 C 0.76423 0.32583 0.20953 0.0
H528 H 0.04879 0.50426 0.07172 0.0
H529 H 0.05684 0.63501 0.08414 0.0
H530 H 0.0583 0.64768 0.04405 0.0
H531 H 0.05728 0.62101 0.00538 0.0
H532 H 0.05172 0.49044 0.99375 0.0
H533 H 0.04948 0.47819 0.03365 0.0
C534 C 0.05083 0.53554 0.06564 0.0
C535 C 0.05258 0.56866 0.08075 0.0
C536 C 0.0522 0.54255 0.04274 0.0
C537 C 0.05554 0.60908 0.07274 0.0
C538 C 0.05631 0.61627 0.04986 0.0
C539 C 0.05546 0.58992 0.01166 0.0
C540 C 0.05472 0.55666 -0.0033 0.0
C541 C 0.05462 0.58319 0.03469 0.0
C542 C 0.05277 0.51658 0.00498 0.0
C543 C 0.0513 0.50952 0.02776 0.0
H544 H 0.55832 1.02527 0.44836 0.0
H545 H 0.52588 0.14441 0.44695 0.0
H546 H 0.53944 0.14999 0.40731 0.0
H547 H 0.55607 0.11924 0.37268 0.0
H548 H 0.58393 0.99807 0.37293 0.0
H549 H 0.57623 0.99467 0.41329 0.0
C550 C 0.5548 1.0526 0.43935 0.0
C551 C 0.54124 0.08446 0.45045 0.0
C552 C 0.56133 1.05497 0.41635 0.0
C553 C 0.5362 0.1195 0.43865 0.0
C554 C 0.54387 0.12268 0.41602 0.0
C555 C 0.561 0.09233 0.38163 0.0
C556 C 0.57075 0.05905 0.36992 0.0
C557 C 0.55577 0.09034 0.40464 0.0
C558 C 0.57621 1.02398 0.38162 0.0
C559 C 0.57195 1.02211 0.40468 0.0
H560 H 0.63356 0.64146 0.75581 0.0
H561 H 0.49613 0.58512 0.75851 0.0
H562 H 0.49141 0.57225 0.71843 0.0
H563 H 0.5258 0.57902 0.68228 0.0
H564 H 0.66365 0.63095 0.67935 0.0
H565 H 0.66906 0.64339 0.71976 0.0
C566 C 0.60269 0.6263 0.74756 0.0
C567 C 0.56519 0.61466 0.76002 0.0
C568 C 0.60034 0.61821 0.72448 0.0
C569 C 0.52544 0.59448 0.74925 0.0
C570 C 0.52268 0.58716 0.72633 0.0
C571 C 0.55698 0.59279 0.69061 0.0
C572 C 0.59426 0.6043 0.67808 0.0
C573 C 0.5598 0.59917 0.71375 0.0
C574 C 0.63463 0.62185 0.68885 0.0
C575 C 0.63764 0.62905 0.71187 0.0
H576 H 0.56385 1.01017 0.58773 0.0
H577 H 0.51169 0.11738 0.57765 0.0
H578 H 0.48394 0.11088 0.61503 0.0
H579 H 0.47721 0.0767 0.65112 0.0
H580 H 0.52662 0.96805 0.66128 0.0
H581 H 0.55214 0.97251 0.6232 0.0
C582 C 0.54637 1.032 0.59379 0.0
C583 C 0.54026 0.06451 0.58018 0.0
C584 C 0.52985 1.02765 0.6152 0.0
C585 C 0.51696 0.09224 0.58794 0.0
C586 C 0.50108 0.08855 0.60929 0.0
C587 C 0.49326 1.05384 0.64486 0.0
C588 C 0.50036 1.02228 0.65885 0.0
C589 C 0.50769 1.05666 0.62311 0.0
C590 C 0.52071 0.99247 0.65065 0.0
C591 C 0.53553 0.99523 0.62899 0.0
H592 H 0.61573 0.57103 0.89698 0.0
H593 H 0.49672 0.60958 0.88969 0.0
H594 H 0.49103 0.61097 0.93008 0.0
H595 H 0.51732 0.59645 0.9671 0.0
H596 H 0.64037 0.56469 0.97453 0.0
H597 H 0.64641 0.56456 0.93442 0.0
C598 C 0.58879 0.58006 0.90431 0.0
C599 C 0.55646 0.58971 0.89051 0.0
C600 C 0.58607 0.58139 0.9275 0.0
C601 C 0.52197 0.60193 0.90006 0.0
C602 C 0.51861 0.60256 0.92312 0.0
C603 C 0.54601 0.59036 0.96013 0.0
C604 C 0.57785 0.57977 0.97409 0.0
C605 C 0.55016 0.59173 0.93699 0.0
C606 C 0.61445 0.57153 0.96438 0.0
C607 C 0.61828 0.57189 0.94136 0.0
H608 H 1.02877 0.56725 0.20734 0.0
H609 H 0.14725 0.66516 0.21608 0.0
H610 H 0.14475 0.65725 0.25634 0.0
H611 H 0.10704 0.625 0.28884 0.0
H612 H 0.99283 0.52152 0.27997 0.0
H613 H 0.99564 0.52919 0.23984 0.0
C614 C 0.05467 0.586 0.21799 0.0
C615 C 0.08834 0.61641 0.20873 0.0
C616 C 0.05352 0.58069 0.24107 0.0
C617 C 0.12101 0.64143 0.22282 0.0
C618 C 0.11957 0.63697 0.24583 0.0
C619 C 0.08324 0.60331 0.27827 0.0
C620 C 0.04948 0.57299 0.2877 0.0
C621 C 0.08575 0.60694 0.25514 0.0
C622 C 1.01857 0.54595 0.27341 0.0
C623 C 1.02032 0.55003 0.25037 0.0
loop_
_geom_bond_atom_site_label_1
_geom_bond_atom_site_label_2
_geom_bond_distance
_geom_bond_site_symmetry_2
_ccdc_geom_bond_type
Pr0 C2 2.880 . S
Pr0 O20 2.562 . S
Pr0 O21 2.490 . S
Pr0 O22 2.695 1_655 S
Pr0 O23 2.512 . S
Pr0 O25 2.437 . S
Pr0 O28 2.436 . S
Pr0 O30 2.438 1_655 S
Pr1 C11 2.880 . S
Pr1 O22 2.436 . S
Pr1 O24 2.438 1_455 S
Pr1 O26 2.562 . S
Pr1 O27 2.490 . S
Pr1 O28 2.695 1_455 S
Pr1 O29 2.512 . S
Pr1 O31 2.437 . S
C2 Pr0 2.880 . S
C2 C3 1.491 . S
C2 O20 1.254 . S
C2 O21 1.225 . S
C3 C2 1.491 . S
C3 C4 1.392 . S
C3 C8 1.356 . S
C4 C3 1.392 . S
C4 C5 1.368 . S
C4 H32 0.929 . S
C5 C4 1.368 . S
C5 C6 1.386 . S
C5 H33 0.929 . S
C6 C5 1.386 . S
C6 C7 1.373 . S
C7 C6 1.373 . S
C7 C8 1.409 . S
C7 H34 0.931 . S
C8 C3 1.356 . S
C8 C7 1.409 . S
C8 H35 0.930 . S
C9 O22 1.270 . S
C9 O23 1.248 1_455 S
C10 O24 1.267 . S
C10 O25 1.278 . S
C11 Pr1 2.880 . S
C11 C12 1.491 . S
C11 O26 1.254 . S
C11 O27 1.225 . S
C12 C11 1.491 . S
C12 C13 1.392 . S
C12 C17 1.356 . S
C13 C12 1.392 . S
C13 C14 1.368 . S
C13 H36 0.929 . S
C14 C13 1.368 . S
C14 C15 1.386 . S
C14 H37 0.929 . S
C15 C14 1.386 . S
C15 C16 1.373 . S
C16 C15 1.373 . S
C16 C17 1.409 . S
C16 H38 0.931 . S
C17 C12 1.356 . S
C17 C16 1.409 . S
C17 H39 0.930 . S
C18 O28 1.270 1_455 S
C18 O29 1.248 . S
C19 O30 1.267 . S
C19 O31 1.278 . S
O20 Pr0 2.562 . S
O20 C2 1.254 . S
O21 Pr0 2.490 . S
O21 C2 1.225 . S
O22 Pr0 2.695 1_455 S
O22 Pr1 2.436 . S
O22 C9 1.270 . S
O23 Pr0 2.512 . S
O23 C9 1.248 1_655 S
O24 Pr1 2.438 1_655 S
O24 C10 1.267 . S
O25 Pr0 2.437 . S
O25 C10 1.278 . S
O26 Pr1 2.562 . S
O26 C11 1.254 . S
O27 Pr1 2.490 . S
O27 C11 1.225 . S
O28 Pr0 2.436 . S
O28 Pr1 2.695 1_655 S
O28 C18 1.270 1_655 S
O29 Pr1 2.512 . S
O29 C18 1.248 . S
O30 Pr0 2.438 1_455 S
O30 C19 1.267 . S
O31 Pr1 2.437 . S
O31 C19 1.278 . S
H32 C4 0.929 . S
H33 C5 0.929 . S
H34 C7 0.931 . S
H35 C8 0.930 . S
H36 C13 0.929 . S
H37 C14 0.929 . S
H38 C16 0.931 . S
H39 C17 0.930 . S
Pr40 C42 2.880 . S
Pr40 O60 2.562 . S
Pr40 O61 2.490 . S
Pr40 O62 2.695 . S
Pr40 O63 2.512 . S
Pr40 O65 2.437 . S
Pr40 O68 2.436 . S
Pr40 O70 2.438 1_545 S
Pr41 C51 2.880 . S
Pr41 O62 2.436 1_565 S
Pr41 O64 2.438 1_565 S
Pr41 O66 2.562 . S
Pr41 O67 2.490 . S
Pr41 O68 2.695 1_565 S
Pr41 O69 2.512 . S
Pr41 O71 2.437 . S
C42 Pr40 2.880 . S
C42 C43 1.491 . S
C42 O60 1.254 . S
C42 O61 1.225 . S
C43 C42 1.491 . S
C43 C44 1.392 . S
C43 C48 1.356 . S
C44 C43 1.392 . S
C44 C45 1.368 . S
C44 H72 0.929 . S
C45 C44 1.368 . S
C45 C46 1.386 . S
C45 H73 0.929 . S
C46 C45 1.386 . S
C46 C47 1.373 . S
C47 C46 1.373 . S
C47 C48 1.409 . S
C47 H74 0.931 . S
C48 C43 1.356 . S
C48 C47 1.409 . S
C48 H75 0.930 . S
C49 O62 1.270 . S
C49 O63 1.248 . S
C50 O64 1.267 . S
C50 O65 1.278 . S
C51 Pr41 2.880 . S
C51 C52 1.491 . S
C51 O66 1.254 . S
C51 O67 1.225 . S
C52 C51 1.491 . S
C52 C53 1.392 . S
C52 C57 1.356 . S
C53 C52 1.392 . S
C53 C54 1.368 . S
C53 H76 0.929 . S
C54 C53 1.368 . S
C54 C55 1.386 . S
C54 H77 0.929 . S
C55 C54 1.386 . S
C55 C56 1.373 . S
C56 C55 1.373 . S
C56 C57 1.409 . S
C56 H78 0.931 . S
C57 C52 1.356 . S
C57 C56 1.409 . S
C57 H79 0.930 . S
C58 O68 1.270 . S
C58 O69 1.248 1_545 S
C59 O70 1.267 . S
C59 O71 1.278 . S
O60 Pr40 2.562 . S
O60 C42 1.254 . S
O61 Pr40 2.490 . S
O61 C42 1.225 . S
O62 Pr40 2.695 . S
O62 Pr41 2.436 1_545 S
O62 C49 1.270 . S
O63 Pr40 2.512 . S
O63 C49 1.248 . S
O64 Pr41 2.438 1_545 S
O64 C50 1.267 . S
O65 Pr40 2.437 . S
O65 C50 1.278 . S
O66 Pr41 2.562 . S
O66 C51 1.254 . S
O67 Pr41 2.490 . S
O67 C51 1.225 . S
O68 Pr40 2.436 . S
O68 Pr41 2.695 1_545 S
O68 C58 1.270 . S
O69 Pr41 2.512 . S
O69 C58 1.248 1_565 S
O70 Pr40 2.438 1_565 S
O70 C59 1.267 . S
O71 Pr41 2.437 . S
O71 C59 1.278 . S
H72 C44 0.929 . S
H73 C45 0.929 . S
H74 C47 0.931 . S
H75 C48 0.930 . S
H76 C53 0.929 . S
H77 C54 0.929 . S
H78 C56 0.931 . S
H79 C57 0.930 . S
Pr80 C82 2.880 . S
Pr80 O100 2.562 . S
Pr80 O101 2.490 . S
Pr80 O102 2.695 . S
Pr80 O103 2.512 . S
Pr80 O105 2.437 . S
Pr80 O108 2.436 . S
Pr80 O110 2.438 . S
Pr81 C91 2.880 . S
Pr81 O102 2.436 . S
Pr81 O104 2.438 . S
Pr81 O106 2.562 . S
Pr81 O107 2.490 . S
Pr81 O108 2.695 . S
Pr81 O109 2.512 . S
Pr81 O111 2.437 . S
C82 Pr80 2.880 . S
C82 C83 1.491 . S
C82 O100 1.254 . S
C82 O101 1.225 . S
C83 C82 1.491 . S
C83 C84 1.392 . S
C83 C88 1.356 . S
C84 C83 1.392 . S
C84 C85 1.368 . S
C84 H112 0.929 . S
C85 C84 1.368 . S
C85 C86 1.386 . S
C85 H113 0.929 . S
C86 C85 1.386 . S
C86 C87 1.373 . S
C87 C86 1.373 . S
C87 C88 1.409 . S
C87 H114 0.931 . S
C88 C83 1.356 . S
C88 C87 1.409 . S
C88 H115 0.930 . S
C89 O102 1.270 . S
C89 O103 1.248 . S
C90 O104 1.267 . S
C90 O105 1.278 . S
C91 Pr81 2.880 . S
C91 C92 1.491 . S
C91 O106 1.254 . S
C91 O107 1.225 . S
C92 C91 1.491 . S
C92 C93 1.392 . S
C92 C97 1.356 . S
C93 C92 1.392 . S
C93 C94 1.368 . S
C93 H116 0.929 . S
C94 C93 1.368 . S
C94 C95 1.386 . S
C94 H117 0.929 . S
C95 C94 1.386 . S
C95 C96 1.373 . S
C96 C95 1.373 . S
C96 C97 1.409 . S
C96 H118 0.931 . S
C97 C92 1.356 . S
C97 C96 1.409 . S
C97 H119 0.930 . S
C98 O108 1.270 . S
C98 O109 1.248 . S
C99 O110 1.267 . S
C99 O111 1.278 . S
O100 Pr80 2.562 . S
O100 C82 1.254 . S
O101 Pr80 2.490 . S
O101 C82 1.225 . S
O102 Pr80 2.695 . S
O102 Pr81 2.436 . S
O102 C89 1.270 . S
O103 Pr80 2.512 . S
O103 C89 1.248 . S
O104 Pr81 2.438 . S
O104 C90 1.267 . S
O105 Pr80 2.437 . S
O105 C90 1.278 . S
O106 Pr81 2.562 . S
O106 C91 1.254 . S
O107 Pr81 2.490 . S
O107 C91 1.225 . S
O108 Pr80 2.436 . S
O108 Pr81 2.695 . S
O108 C98 1.270 . S
O109 Pr81 2.512 . S
O109 C98 1.248 . S
O110 Pr80 2.438 . S
O110 C99 1.267 . S
O111 Pr81 2.437 . S
O111 C99 1.278 . S
H112 C84 0.929 . S
H113 C85 0.929 . S
H114 C87 0.931 . S
H115 C88 0.930 . S
H116 C93 0.929 . S
H117 C94 0.929 . S
H118 C96 0.931 . S
H119 C97 0.930 . S
C120 C121 1.384 . S
C120 H133 0.947 . S
C120 C155 1.382 . S
C121 C120 1.384 . S
C121 C122 1.378 . S
C122 C121 1.378 . S
C122 C123 1.378 . S
C122 H134 0.952 . S
C123 C122 1.378 . S
C123 H135 0.950 . S
C123 C154 1.383 . S
H124 C143 0.947 . S
H125 C144 0.946 . S
H126 C146 0.953 . S
H127 C147 0.945 . S
H128 C149 0.952 . S
H129 C150 0.949 . S
H130 C152 0.950 . S
H131 C153 0.948 . S
H132 C155 0.951 . S
H133 C120 0.947 . S
H134 C122 0.952 . S
H135 C123 0.950 . S
N136 C139 1.382 . S
N136 C141 1.363 1_545 S
N137 C139 1.371 . S
N137 C140 1.372 . S
N138 C140 1.361 1_565 S
N138 C141 1.377 . S
C139 N136 1.382 . S
C139 N137 1.371 . S
C139 C142 1.480 . S
C140 N137 1.372 . S
C140 N138 1.361 1_545 S
C140 C148 1.457 . S
C141 N136 1.363 1_565 S
C141 N138 1.377 . S
C141 C154 1.479 . S
C142 C139 1.480 . S
C142 C143 1.383 . S
C142 C147 1.385 . S
C143 H124 0.947 . S
C143 C142 1.383 . S
C143 C144 1.388 . S
C144 H125 0.946 . S
C144 C143 1.388 . S
C144 C145 1.384 . S
C145 C144 1.384 . S
C145 C146 1.377 . S
C146 H126 0.953 . S
C146 C145 1.377 . S
C146 C147 1.369 . S
C147 H127 0.945 . S
C147 C142 1.385 . S
C147 C146 1.369 . S
C148 C140 1.457 . S
C148 C149 1.372 . S
C148 C153 1.364 1_545 S
C149 H128 0.952 . S
C149 C148 1.372 . S
C149 C150 1.389 . S
C150 H129 0.949 . S
C150 C149 1.389 . S
C150 C151 1.387 . S
C151 C150 1.387 . S
C151 C152 1.372 1_545 S
C152 H130 0.950 . S
C152 C151 1.372 1_565 S
C152 C153 1.379 . S
C153 H131 0.948 . S
C153 C148 1.364 1_565 S
C153 C152 1.379 . S
C154 C123 1.383 . S
C154 C141 1.479 . S
C154 C155 1.398 . S
C155 C120 1.382 . S
C155 H132 0.951 . S
C155 C154 1.398 . S
C156 C157 1.384 . S
C156 H169 0.947 . S
C156 C191 1.382 . S
C157 C156 1.384 . S
C157 C158 1.378 . S
C158 C157 1.378 . S
C158 C159 1.378 . S
C158 H170 0.952 . S
C159 C158 1.378 . S
C159 H171 0.950 . S
C159 C190 1.383 . S
H160 C179 0.947 . S
H161 C180 0.946 . S
H162 C182 0.953 . S
H163 C183 0.945 . S
H164 C185 0.952 . S
H165 C186 0.949 . S
H166 C188 0.950 . S
H167 C189 0.948 . S
H168 C191 0.951 . S
H169 C156 0.947 . S
H170 C158 0.952 . S
H171 C159 0.950 . S
N172 C175 1.382 . S
N172 C177 1.363 . S
N173 C175 1.371 . S
N173 C176 1.372 . S
N174 C176 1.361 . S
N174 C177 1.377 . S
C175 N172 1.382 . S
C175 N173 1.371 . S
C175 C178 1.480 . S
C176 N173 1.372 . S
C176 N174 1.361 . S
C176 C184 1.457 . S
C177 N172 1.363 . S
C177 N174 1.377 . S
C177 C190 1.479 . S
C178 C175 1.480 . S
C178 C179 1.383 . S
C178 C183 1.385 . S
C179 H160 0.947 . S
C179 C178 1.383 . S
C179 C180 1.388 . S
C180 H161 0.946 . S
C180 C179 1.388 . S
C180 C181 1.384 . S
C181 C180 1.384 . S
C181 C182 1.377 . S
C182 H162 0.953 . S
C182 C181 1.377 . S
C182 C183 1.369 . S
C183 H163 0.945 . S
C183 C178 1.385 . S
C183 C182 1.369 . S
C184 C176 1.457 . S
C184 C185 1.372 . S
C184 C189 1.364 . S
C185 H164 0.952 . S
C185 C184 1.372 . S
C185 C186 1.389 . S
C186 H165 0.949 . S
C186 C185 1.389 . S
C186 C187 1.387 . S
C187 C186 1.387 . S
C187 C188 1.372 . S
C188 H166 0.950 . S
C188 C187 1.372 . S
C188 C189 1.379 . S
C189 H167 0.948 . S
C189 C184 1.364 . S
C189 C188 1.379 . S
C190 C159 1.383 . S
C190 C177 1.479 . S
C190 C191 1.398 . S
C191 C156 1.382 . S
C191 H168 0.951 . S
C191 C190 1.398 . S
C192 C193 1.384 . S
C192 H205 0.947 . S
C192 C227 1.382 . S
C193 C192 1.384 . S
C193 C194 1.378 . S
C194 C193 1.378 . S
C194 C195 1.378 . S
C194 H206 0.952 . S
C195 C194 1.378 . S
C195 H207 0.950 . S
C195 C226 1.383 . S
H196 C215 0.947 . S
H197 C216 0.946 . S
H198 C218 0.953 . S
H199 C219 0.945 . S
H200 C221 0.952 . S
H201 C222 0.949 . S
H202 C224 0.950 . S
H203 C225 0.948 . S
H204 C227 0.951 . S
H205 C192 0.947 . S
H206 C194 0.952 . S
H207 C195 0.950 . S
N208 C211 1.382 . S
N208 C213 1.363 1_455 S
N209 C211 1.371 . S
N209 C212 1.372 . S
N210 C212 1.361 1_655 S
N210 C213 1.377 . S
C211 N208 1.382 . S
C211 N209 1.371 . S
C211 C214 1.480 . S
C212 N209 1.372 . S
C212 N210 1.361 1_455 S
C212 C220 1.457 . S
C213 N208 1.363 1_655 S
C213 N210 1.377 . S
C213 C226 1.479 . S
C214 C211 1.480 . S
C214 C215 1.383 . S
C214 C219 1.385 . S
C215 H196 0.947 . S
C215 C214 1.383 . S
C215 C216 1.388 . S
C216 H197 0.946 . S
C216 C215 1.388 . S
C216 C217 1.384 . S
C217 C216 1.384 . S
C217 C218 1.377 . S
C218 H198 0.953 . S
C218 C217 1.377 . S
C218 C219 1.369 . S
C219 H199 0.945 . S
C219 C214 1.385 . S
C219 C218 1.369 . S
C220 C212 1.457 . S
C220 C221 1.372 . S
C220 C225 1.364 1_455 S
C221 H200 0.952 . S
C221 C220 1.372 . S
C221 C222 1.389 . S
C222 H201 0.949 . S
C222 C221 1.389 . S
C222 C223 1.387 . S
C223 C222 1.387 . S
C223 C224 1.372 1_455 S
C224 H202 0.950 . S
C224 C223 1.372 1_655 S
C224 C225 1.379 . S
C225 H203 0.948 . S
C225 C220 1.364 1_655 S
C225 C224 1.379 . S
C226 C195 1.383 . S
C226 C213 1.479 . S
C226 C227 1.398 . S
C227 C192 1.382 . S
C227 H204 0.951 . S
C227 C226 1.398 . S
C228 C229 1.384 . S
C228 H241 0.947 . S
C228 C263 1.382 . S
C229 C228 1.384 . S
C229 C230 1.378 . S
C230 C229 1.378 . S
C230 C231 1.378 . S
C230 H242 0.952 . S
C231 C230 1.378 . S
C231 H243 0.950 . S
C231 C262 1.383 . S
H232 C251 0.947 . S
H233 C252 0.946 . S
H234 C254 0.953 . S
H235 C255 0.945 . S
H236 C257 0.952 . S
H237 C258 0.949 . S
H238 C260 0.950 . S
H239 C261 0.948 . S
H240 C263 0.951 . S
H241 C228 0.947 . S
H242 C230 0.952 . S
H243 C231 0.950 . S
N244 C247 1.382 1_455 S
N244 C249 1.363 . S
N245 C247 1.371 . S
N245 C248 1.372 1_655 S
N246 C248 1.361 . S
N246 C249 1.377 . S
C247 N244 1.382 1_655 S
C247 N245 1.371 . S
C247 C250 1.480 . S
C248 N245 1.372 1_455 S
C248 N246 1.361 . S
C248 C256 1.457 . S
C249 N244 1.363 . S
C249 N246 1.377 . S
C249 C262 1.479 . S
C250 C247 1.480 . S
C250 C251 1.383 . S
C250 C255 1.385 . S
C251 H232 0.947 . S
C251 C250 1.383 . S
C251 C252 1.388 . S
C252 H233 0.946 . S
C252 C251 1.388 . S
C252 C253 1.384 . S
C253 C252 1.384 . S
C253 C254 1.377 . S
C254 H234 0.953 . S
C254 C253 1.377 . S
C254 C255 1.369 . S
C255 H235 0.945 . S
C255 C250 1.385 . S
C255 C254 1.369 . S
C256 C248 1.457 . S
C256 C257 1.372 1_455 S
C256 C261 1.364 . S
C257 H236 0.952 . S
C257 C256 1.372 1_655 S
C257 C258 1.389 . S
C258 H237 0.949 . S
C258 C257 1.389 . S
C258 C259 1.387 . S
C259 C258 1.387 . S
C259 C260 1.372 1_655 S
C260 H238 0.950 . S
C260 C259 1.372 1_455 S
C260 C261 1.379 . S
C261 H239 0.948 . S
C261 C256 1.364 . S
C261 C260 1.379 . S
C262 C231 1.383 . S
C262 C249 1.479 . S
C262 C263 1.398 . S
C263 C228 1.382 . S
C263 H240 0.951 . S
C263 C262 1.398 . S
C264 C265 1.384 . S
C264 H277 0.947 . S
C264 C299 1.382 . S
C265 C264 1.384 . S
C265 C266 1.378 . S
C266 C265 1.378 . S
C266 C267 1.378 . S
C266 H278 0.952 . S
C267 C266 1.378 . S
C267 H279 0.950 . S
C267 C298 1.383 . S
H268 C287 0.947 . S
H269 C288 0.946 . S
H270 C290 0.953 . S
H271 C291 0.945 . S
H272 C293 0.952 . S
H273 C294 0.949 . S
H274 C296 0.950 . S
H275 C297 0.948 . S
H276 C299 0.951 . S
H277 C264 0.947 . S
H278 C266 0.952 . S
H279 C267 0.950 . S
N280 C283 1.382 1_545 S
N280 C285 1.363 . S
N281 C283 1.371 . S
N281 C284 1.372 1_565 S
N282 C284 1.361 . S
N282 C285 1.377 . S
C283 N280 1.382 1_565 S
C283 N281 1.371 . S
C283 C286 1.480 . S
C284 N281 1.372 1_545 S
C284 N282 1.361 . S
C284 C292 1.457 . S
C285 N280 1.363 . S
C285 N282 1.377 . S
C285 C298 1.479 . S
C286 C283 1.480 . S
C286 C287 1.383 . S
C286 C291 1.385 . S
C287 H268 0.947 . S
C287 C286 1.383 . S
C287 C288 1.388 . S
C288 H269 0.946 . S
C288 C287 1.388 . S
C288 C289 1.384 . S
C289 C288 1.384 . S
C289 C290 1.377 . S
C290 H270 0.953 . S
C290 C289 1.377 . S
C290 C291 1.369 . S
C291 H271 0.945 . S
C291 C286 1.385 . S
C291 C290 1.369 . S
C292 C284 1.457 . S
C292 C293 1.372 1_545 S
C292 C297 1.364 . S
C293 H272 0.952 . S
C293 C292 1.372 1_565 S
C293 C294 1.389 . S
C294 H273 0.949 . S
C294 C293 1.389 . S
C294 C295 1.387 1_565 S
C295 C294 1.387 1_545 S
C295 C296 1.372 . S
C296 H274 0.950 . S
C296 C295 1.372 . S
C296 C297 1.379 . S
C297 H275 0.948 . S
C297 C292 1.364 . S
C297 C296 1.379 . S
C298 C267 1.383 . S
C298 C285 1.479 . S
C298 C299 1.398 . S
C299 C264 1.382 . S
C299 H276 0.951 . S
C299 C298 1.398 . S
C300 C301 1.384 . S
C300 H313 0.947 . S
C300 C335 1.382 . S
C301 C300 1.384 . S
C301 C302 1.378 . S
C302 C301 1.378 . S
C302 C303 1.378 . S
C302 H314 0.952 . S
C303 C302 1.378 . S
C303 H315 0.950 . S
C303 C334 1.383 . S
H304 C323 0.947 . S
H305 C324 0.946 . S
H306 C326 0.953 . S
H307 C327 0.945 . S
H308 C329 0.952 . S
H309 C330 0.949 . S
H310 C332 0.950 . S
H311 C333 0.948 . S
H312 C335 0.951 . S
H313 C300 0.947 . S
H314 C302 0.952 . S
H315 C303 0.950 . S
N316 C319 1.382 . S
N316 C321 1.363 . S
N317 C319 1.371 . S
N317 C320 1.372 . S
N318 C320 1.361 . S
N318 C321 1.377 . S
C319 N316 1.382 . S
C319 N317 1.371 . S
C319 C322 1.480 . S
C320 N317 1.372 . S
C320 N318 1.361 . S
C320 C328 1.457 . S
C321 N316 1.363 . S
C321 N318 1.377 . S
C321 C334 1.479 . S
C322 C319 1.480 . S
C322 C323 1.383 . S
C322 C327 1.385 . S
C323 H304 0.947 . S
C323 C322 1.383 . S
C323 C324 1.388 . S
C324 H305 0.946 . S
C324 C323 1.388 . S
C324 C325 1.384 . S
C325 C324 1.384 . S
C325 C326 1.377 . S
C326 H306 0.953 . S
C326 C325 1.377 . S
C326 C327 1.369 . S
C327 H307 0.945 . S
C327 C322 1.385 . S
C327 C326 1.369 . S
C328 C320 1.457 . S
C328 C329 1.372 . S
C328 C333 1.364 . S
C329 H308 0.952 . S
C329 C328 1.372 . S
C329 C330 1.389 . S
C330 H309 0.949 . S
C330 C329 1.389 . S
C330 C331 1.387 . S
C331 C330 1.387 . S
C331 C332 1.372 . S
C332 H310 0.950 . S
C332 C331 1.372 . S
C332 C333 1.379 . S
C333 H311 0.948 . S
C333 C328 1.364 . S
C333 C332 1.379 . S
C334 C303 1.383 . S
C334 C321 1.479 . S
C334 C335 1.398 . S
C335 C300 1.382 . S
C335 H312 0.951 . S
C335 C334 1.398 . S
H336 C342 0.930 . S
H337 C345 0.930 . S
H338 C346 0.930 . S
H339 C347 0.930 . S
H340 C350 0.930 . S
H341 C351 0.930 . S
C342 H336 0.930 . S
C342 C343 1.355 . S
C342 C344 1.415 . S
C343 C342 1.355 . S
C343 C345 1.419 . S
C344 C342 1.415 . S
C344 C349 1.425 . S
C344 C351 1.409 . S
C345 H337 0.930 . S
C345 C343 1.419 . S
C345 C346 1.362 . S
C346 H338 0.930 . S
C346 C345 1.362 . S
C346 C349 1.409 . S
C347 H339 0.930 . S
C347 C348 1.355 . S
C347 C349 1.415 . S
C348 C347 1.355 . S
C348 C350 1.419 . S
C349 C344 1.425 . S
C349 C346 1.409 . S
C349 C347 1.415 . S
C350 H340 0.930 . S
C350 C348 1.419 . S
C350 C351 1.362 . S
C351 H341 0.930 . S
C351 C344 1.409 . S
C351 C350 1.362 . S
H352 C358 0.930 . S
H353 C361 0.930 . S
H354 C362 0.930 . S
H355 C363 0.930 . S
H356 C366 0.930 . S
H357 C367 0.930 . S
C358 H352 0.930 . S
C358 C359 1.355 . S
C358 C360 1.415 . S
C359 C358 1.355 . S
C359 C361 1.419 . S
C360 C358 1.415 . S
C360 C365 1.425 . S
C360 C367 1.409 . S
C361 H353 0.930 . S
C361 C359 1.419 . S
C361 C362 1.362 . S
C362 H354 0.930 . S
C362 C361 1.362 . S
C362 C365 1.409 . S
C363 H355 0.930 . S
C363 C364 1.355 . S
C363 C365 1.415 . S
C364 C363 1.355 . S
C364 C366 1.419 . S
C365 C360 1.425 . S
C365 C362 1.409 . S
C365 C363 1.415 . S
C366 H356 0.930 . S
C366 C364 1.419 . S
C366 C367 1.362 . S
C367 H357 0.930 . S
C367 C360 1.409 . S
C367 C366 1.362 . S
H368 C374 0.930 . S
H369 C377 0.930 . S
H370 C378 0.930 . S
H371 C379 0.930 . S
H372 C382 0.930 . S
H373 C383 0.930 . S
C374 H368 0.930 . S
C374 C375 1.355 . S
C374 C376 1.415 . S
C375 C374 1.355 . S
C375 C377 1.419 . S
C376 C374 1.415 . S
C376 C381 1.425 . S
C376 C383 1.409 . S
C377 H369 0.930 . S
C377 C375 1.419 . S
C377 C378 1.362 . S
C378 H370 0.930 . S
C378 C377 1.362 . S
C378 C381 1.409 . S
C379 H371 0.930 . S
C379 C380 1.355 . S
C379 C381 1.415 . S
C380 C379 1.355 . S
C380 C382 1.419 . S
C381 C376 1.425 . S
C381 C378 1.409 . S
C381 C379 1.415 . S
C382 H372 0.930 . S
C382 C380 1.419 . S
C382 C383 1.362 . S
C383 H373 0.930 . S
C383 C376 1.409 . S
C383 C382 1.362 . S
H384 C390 0.930 . S
H385 C393 0.930 . S
H386 C394 0.930 . S
H387 C395 0.930 . S
H388 C398 0.930 . S
H389 C399 0.930 . S
C390 H384 0.930 . S
C390 C391 1.355 . S
C390 C392 1.415 . S
C391 C390 1.355 . S
C391 C393 1.419 . S
C392 C390 1.415 . S
C392 C397 1.425 . S
C392 C399 1.409 . S
C393 H385 0.930 . S
C393 C391 1.419 . S
C393 C394 1.362 . S
C394 H386 0.930 . S
C394 C393 1.362 . S
C394 C397 1.409 . S
C395 H387 0.930 . S
C395 C396 1.355 . S
C395 C397 1.415 . S
C396 C395 1.355 . S
C396 C398 1.419 . S
C397 C392 1.425 . S
C397 C394 1.409 . S
C397 C395 1.415 . S
C398 H388 0.930 . S
C398 C396 1.419 . S
C398 C399 1.362 . S
C399 H389 0.930 . S
C399 C392 1.409 . S
C399 C398 1.362 . S
H400 C406 0.930 . S
H401 C409 0.930 . S
H402 C410 0.930 . S
H403 C411 0.930 . S
H404 C414 0.930 . S
H405 C415 0.930 . S
C406 H400 0.930 . S
C406 C407 1.355 . S
C406 C408 1.415 . S
C407 C406 1.355 . S
C407 C409 1.419 . S
C408 C406 1.415 . S
C408 C413 1.425 . S
C408 C415 1.409 . S
C409 H401 0.930 . S
C409 C407 1.419 . S
C409 C410 1.362 . S
C410 H402 0.930 . S
C410 C409 1.362 . S
C410 C413 1.409 . S
C411 H403 0.930 . S
C411 C412 1.355 . S
C411 C413 1.415 . S
C412 C411 1.355 . S
C412 C414 1.419 . S
C413 C408 1.425 . S
C413 C410 1.409 . S
C413 C411 1.415 . S
C414 H404 0.930 . S
C414 C412 1.419 . S
C414 C415 1.362 . S
C415 H405 0.930 . S
C415 C408 1.409 . S
C415 C414 1.362 . S
H416 C422 0.930 . S
H417 C425 0.930 . S
H418 C426 0.930 . S
H419 C427 0.930 . S
H420 C430 0.930 . S
H421 C431 0.930 . S
C422 H416 0.930 . S
C422 C423 1.355 . S
C422 C424 1.415 . S
C423 C422 1.355 . S
C423 C425 1.419 . S
C424 C422 1.415 . S
C424 C429 1.425 . S
C424 C431 1.409 . S
C425 H417 0.930 . S
C425 C423 1.419 . S
C425 C426 1.362 . S
C426 H418 0.930 . S
C426 C425 1.362 . S
C426 C429 1.409 . S
C427 H419 0.930 . S
C427 C428 1.355 . S
C427 C429 1.415 . S
C428 C427 1.355 . S
C428 C430 1.419 . S
C429 C424 1.425 . S
C429 C426 1.409 . S
C429 C427 1.415 . S
C430 H420 0.930 . S
C430 C428 1.419 . S
C430 C431 1.362 . S
C431 H421 0.930 . S
C431 C424 1.409 . S
C431 C430 1.362 . S
H432 C438 0.930 . S
H433 C441 0.930 . S
H434 C442 0.930 . S
H435 C443 0.930 . S
H436 C446 0.930 . S
H437 C447 0.930 . S
C438 H432 0.930 . S
C438 C439 1.355 . S
C438 C440 1.415 . S
C439 C438 1.355 . S
C439 C441 1.419 . S
C440 C438 1.415 . S
C440 C445 1.425 . S
C440 C447 1.409 . S
C441 H433 0.930 . S
C441 C439 1.419 . S
C441 C442 1.362 . S
C442 H434 0.930 . S
C442 C441 1.362 . S
C442 C445 1.409 . S
C443 H435 0.930 . S
C443 C444 1.355 . S
C443 C445 1.415 . S
C444 C443 1.355 . S
C444 C446 1.419 . S
C445 C440 1.425 . S
C445 C442 1.409 . S
C445 C443 1.415 . S
C446 H436 0.930 . S
C446 C444 1.419 . S
C446 C447 1.362 . S
C447 H437 0.930 . S
C447 C440 1.409 . S
C447 C446 1.362 . S
H448 C454 0.930 . S
H449 C457 0.930 . S
H450 C458 0.930 . S
H451 C459 0.930 . S
H452 C462 0.930 . S
H453 C463 0.930 . S
C454 H448 0.930 . S
C454 C455 1.355 . S
C454 C456 1.415 . S
C455 C454 1.355 . S
C455 C457 1.419 . S
C456 C454 1.415 . S
C456 C461 1.425 . S
C456 C463 1.409 . S
C457 H449 0.930 . S
C457 C455 1.419 . S
C457 C458 1.362 . S
C458 H450 0.930 . S
C458 C457 1.362 . S
C458 C461 1.409 . S
C459 H451 0.930 . S
C459 C460 1.355 . S
C459 C461 1.415 . S
C460 C459 1.355 . S
C460 C462 1.419 . S
C461 C456 1.425 . S
C461 C458 1.409 . S
C461 C459 1.415 . S
C462 H452 0.930 . S
C462 C460 1.419 . S
C462 C463 1.362 . S
C463 H453 0.930 . S
C463 C456 1.409 . S
C463 C462 1.362 . S
H464 C470 0.930 . S
H465 C473 0.930 . S
H466 C474 0.930 . S
H467 C475 0.930 . S
H468 C478 0.930 . S
H469 C479 0.930 . S
C470 H464 0.930 . S
C470 C471 1.355 . S
C470 C472 1.415 . S
C471 C470 1.355 . S
C471 C473 1.419 . S
C472 C470 1.415 . S
C472 C477 1.425 . S
C472 C479 1.409 . S
C473 H465 0.930 . S
C473 C471 1.419 . S
C473 C474 1.362 . S
C474 H466 0.930 . S
C474 C473 1.362 . S
C474 C477 1.409 . S
C475 H467 0.930 . S
C475 C476 1.355 . S
C475 C477 1.415 . S
C476 C475 1.355 . S
C476 C478 1.419 . S
C477 C472 1.425 . S
C477 C474 1.409 . S
C477 C475 1.415 . S
C478 H468 0.930 . S
C478 C476 1.419 . S
C478 C479 1.362 . S
C479 H469 0.930 . S
C479 C472 1.409 . S
C479 C478 1.362 . S
H480 C486 0.930 . S
H481 C489 0.930 . S
H482 C490 0.930 . S
H483 C491 0.930 . S
H484 C494 0.930 . S
H485 C495 0.930 . S
C486 H480 0.930 . S
C486 C487 1.355 . S
C486 C488 1.415 . S
C487 C486 1.355 . S
C487 C489 1.419 . S
C488 C486 1.415 . S
C488 C493 1.425 . S
C488 C495 1.409 . S
C489 H481 0.930 . S
C489 C487 1.419 . S
C489 C490 1.362 . S
C490 H482 0.930 . S
C490 C489 1.362 . S
C490 C493 1.409 . S
C491 H483 0.930 . S
C491 C492 1.355 . S
C491 C493 1.415 . S
C492 C491 1.355 . S
C492 C494 1.419 . S
C493 C488 1.425 . S
C493 C490 1.409 . S
C493 C491 1.415 . S
C494 H484 0.930 . S
C494 C492 1.419 . S
C494 C495 1.362 . S
C495 H485 0.930 . S
C495 C488 1.409 . S
C495 C494 1.362 . S
H496 C502 0.930 . S
H497 C505 0.930 . S
H498 C506 0.930 . S
H499 C507 0.930 . S
H500 C510 0.930 . S
H501 C511 0.930 . S
C502 H496 0.930 . S
C502 C503 1.355 . S
C502 C504 1.415 . S
C503 C502 1.355 . S
C503 C505 1.419 . S
C504 C502 1.415 . S
C504 C509 1.425 . S
C504 C511 1.409 . S
C505 H497 0.930 . S
C505 C503 1.419 . S
C505 C506 1.362 . S
C506 H498 0.930 . S
C506 C505 1.362 . S
C506 C509 1.409 . S
C507 H499 0.930 . S
C507 C508 1.355 . S
C507 C509 1.415 . S
C508 C507 1.355 . S
C508 C510 1.419 . S
C509 C504 1.425 . S
C509 C506 1.409 . S
C509 C507 1.415 . S
C510 H500 0.930 . S
C510 C508 1.419 . S
C510 C511 1.362 . S
C511 H501 0.930 . S
C511 C504 1.409 . S
C511 C510 1.362 . S
H512 C518 0.930 . S
H513 C521 0.930 . S
H514 C522 0.930 . S
H515 C523 0.930 . S
H516 C526 0.930 . S
H517 C527 0.930 . S
C518 H512 0.930 . S
C518 C519 1.355 . S
C518 C520 1.415 . S
C519 C518 1.355 . S
C519 C521 1.419 . S
C520 C518 1.415 . S
C520 C525 1.425 . S
C520 C527 1.409 . S
C521 H513 0.930 . S
C521 C519 1.419 . S
C521 C522 1.362 . S
C522 H514 0.930 . S
C522 C521 1.362 . S
C522 C525 1.409 . S
C523 H515 0.930 . S
C523 C524 1.355 . S
C523 C525 1.415 . S
C524 C523 1.355 . S
C524 C526 1.419 . S
C525 C520 1.425 . S
C525 C522 1.409 . S
C525 C523 1.415 . S
C526 H516 0.930 . S
C526 C524 1.419 . S
C526 C527 1.362 . S
C527 H517 0.930 . S
C527 C520 1.409 . S
C527 C526 1.362 . S
H528 C534 0.930 . S
H529 C537 0.930 . S
H530 C538 0.930 . S
H531 C539 0.930 . S
H532 C542 0.930 . S
H533 C543 0.930 . S
C534 H528 0.930 . S
C534 C535 1.355 . S
C534 C536 1.415 . S
C535 C534 1.355 . S
C535 C537 1.419 . S
C536 C534 1.415 . S
C536 C541 1.425 . S
C536 C543 1.409 . S
C537 H529 0.930 . S
C537 C535 1.419 . S
C537 C538 1.362 . S
C538 H530 0.930 . S
C538 C537 1.362 . S
C538 C541 1.409 . S
C539 H531 0.930 . S
C539 C540 1.355 . S
C539 C541 1.415 . S
C540 C539 1.355 . S
C540 C542 1.419 . S
C541 C536 1.425 . S
C541 C538 1.409 . S
C541 C539 1.415 . S
C542 H532 0.930 . S
C542 C540 1.419 . S
C542 C543 1.362 . S
C543 H533 0.930 . S
C543 C536 1.409 . S
C543 C542 1.362 . S
H544 C550 0.930 . S
H545 C553 0.930 . S
H546 C554 0.930 . S
H547 C555 0.930 . S
H548 C558 0.930 . S
H549 C559 0.930 . S
C550 H544 0.930 . S
C550 C551 1.355 1_565 S
C550 C552 1.415 1_565 S
C551 C550 1.355 1_545 S
C551 C553 1.419 . S
C552 C550 1.415 1_545 S
C552 C557 1.425 . S
C552 C559 1.409 1_545 S
C553 H545 0.930 . S
C553 C551 1.419 . S
C553 C554 1.362 . S
C554 H546 0.930 . S
C554 C553 1.362 . S
C554 C557 1.409 . S
C555 H547 0.930 . S
C555 C556 1.355 . S
C555 C557 1.415 . S
C556 C555 1.355 . S
C556 C558 1.419 1_545 S
C557 C552 1.425 . S
C557 C554 1.409 . S
C557 C555 1.415 . S
C558 H548 0.930 . S
C558 C556 1.419 1_565 S
C558 C559 1.362 . S
C559 H549 0.930 . S
C559 C552 1.409 1_565 S
C559 C558 1.362 . S
H560 C566 0.930 . S
H561 C569 0.930 . S
H562 C570 0.930 . S
H563 C571 0.930 . S
H564 C574 0.930 . S
H565 C575 0.930 . S
C566 H560 0.930 . S
C566 C567 1.355 . S
C566 C568 1.415 . S
C567 C566 1.355 . S
C567 C569 1.419 . S
C568 C566 1.415 . S
C568 C573 1.425 . S
C568 C575 1.409 . S
C569 H561 0.930 . S
C569 C567 1.419 . S
C569 C570 1.362 . S
C570 H562 0.930 . S
C570 C569 1.362 . S
C570 C573 1.409 . S
C571 H563 0.930 . S
C571 C572 1.355 . S
C571 C573 1.415 . S
C572 C571 1.355 . S
C572 C574 1.419 . S
C573 C568 1.425 . S
C573 C570 1.409 . S
C573 C571 1.415 . S
C574 H564 0.930 . S
C574 C572 1.419 . S
C574 C575 1.362 . S
C575 H565 0.930 . S
C575 C568 1.409 . S
C575 C574 1.362 . S
H576 C582 0.930 . S
H577 C585 0.930 . S
H578 C586 0.930 . S
H579 C587 0.930 . S
H580 C590 0.930 . S
H581 C591 0.930 . S
C582 H576 0.930 . S
C582 C583 1.355 1_565 S
C582 C584 1.415 . S
C583 C582 1.355 1_545 S
C583 C585 1.419 . S
C584 C582 1.415 . S
C584 C589 1.425 1_565 S
C584 C591 1.409 . S
C585 H577 0.930 . S
C585 C583 1.419 . S
C585 C586 1.362 . S
C586 H578 0.930 . S
C586 C585 1.362 . S
C586 C589 1.409 . S
C587 H579 0.930 . S
C587 C588 1.355 . S
C587 C589 1.415 . S
C588 C587 1.355 . S
C588 C590 1.419 1_545 S
C589 C584 1.425 1_545 S
C589 C586 1.409 . S
C589 C587 1.415 . S
C590 H580 0.930 . S
C590 C588 1.419 1_565 S
C590 C591 1.362 . S
C591 H581 0.930 . S
C591 C584 1.409 . S
C591 C590 1.362 . S
H592 C598 0.930 . S
H593 C601 0.930 . S
H594 C602 0.930 . S
H595 C603 0.930 . S
H596 C606 0.930 . S
H597 C607 0.930 . S
C598 H592 0.930 . S
C598 C599 1.355 . S
C598 C600 1.415 . S
C599 C598 1.355 . S
C599 C601 1.419 . S
C600 C598 1.415 . S
C600 C605 1.425 . S
C600 C607 1.409 . S
C601 H593 0.930 . S
C601 C599 1.419 . S
C601 C602 1.362 . S
C602 H594 0.930 . S
C602 C601 1.362 . S
C602 C605 1.409 . S
C603 H595 0.930 . S
C603 C604 1.355 . S
C603 C605 1.415 . S
C604 C603 1.355 . S
C604 C606 1.419 . S
C605 C600 1.425 . S
C605 C602 1.409 . S
C605 C603 1.415 . S
C606 H596 0.930 . S
C606 C604 1.419 . S
C606 C607 1.362 . S
C607 H597 0.930 . S
C607 C600 1.409 . S
C607 C606 1.362 . S
H608 C614 0.930 . S
H609 C617 0.930 . S
H610 C618 0.930 . S
H611 C619 0.924 . S
H612 C622 0.930 . S
H613 C623 0.930 . S
C614 H608 0.930 . S
C614 C615 1.355 1_655 S
C614 C616 1.415 . S
C615 C614 1.355 1_455 S
C615 C617 1.419 . S
C616 C614 1.415 . S
C616 C621 1.425 1_655 S
C616 C623 1.409 . S
C617 H609 0.930 . S
C617 C615 1.419 . S
C617 C618 1.362 . S
C618 H610 0.930 . S
C618 C617 1.362 . S
C618 C621 1.409 . S
C619 H611 0.924 . S
C619 C620 1.358 1_455 S
C619 C621 1.418 . S
C620 C619 1.358 1_655 S
C620 C622 1.419 . S
C621 C616 1.425 1_455 S
C621 C618 1.409 . S
C621 C619 1.418 . S
C622 H612 0.930 . S
C622 C620 1.419 . S
C622 C623 1.362 . S
C623 H613 0.930 . S
C623 C616 1.409 . S
C623 C622 1.362 . S
C343 C19 1.957 . S
C348 C325 1.859 . S
C359 C46 1.299 . S
C364 C253 1.280 . S
C375 C95 0.392 . S
C380 C289 0.442 . S
C391 C10 2.063 . S
C396 C301 2.035 . S
C412 C229 1.341 . S
C407 C55 1.334 . S
C428 C265 0.602 . S
C423 C86 0.607 . S
C439 C59 3.137 . S
C444 C181 3.056 . S
C455 C90 2.072 . S
C460 C193 2.043 . S
C471 C15 1.311 . S
C476 C121 1.318 . S
C492 C157 3.010 . S
C487 C50 3.050 . S
C508 C217 1.870 . S
C503 C99 1.957 . S
C519 C6 1.218 . S
C524 C145 1.259 . S
C540 C223 1.349 1_554 S
C535 C9 1.361 . S
C551 C58 1.462 . S
C556 C151 1.488 . S
C567 C98 1.702 . S
C572 C187 1.767 . S
C588 C295 1.047 . S
C583 C49 1.084 . S
C604 C331 1.359 1_556 S
C599 C89 1.279 . S
C615 C18 1.403 . S
C620 C259 1.464 . S
