# Generated by pormake.
# Topology pth, (4,4)-cn, num edge types: 1
# Building blocks:
#     Node 0, Type 0, BuildingBlock: KUFVIS_clean_sbu_0, # of connection points: 4
#     Node 1, Type 0, BuildingBlock: KUFVIS_clean_sbu_0, # of connection points: 4
#     Node 2, Type 0, BuildingBlock: KUFVIS_clean_sbu_0, # of connection points: 4
#     Node 3, Type 1, BuildingBlock: MIFKUJ_clean_linker_1, # of connection points: 4
#     Node 4, Type 1, BuildingBlock: MIFKUJ_clean_linker_1, # of connection points: 4
#     Node 5, Type 1, BuildingBlock: MIFKUJ_clean_linker_1, # of connection points: 4
#     Edge 6, Type (0, 1), BuildingBlock: XIVTED_clean_linker_0, # of connection points: 2
#     Edge 7, Type (0, 1), BuildingBlock: XIVTED_clean_linker_0, # of connection points: 2
#     Edge 8, Type (0, 1), BuildingBlock: XIVTED_clean_linker_0, # of connection points: 2
#     Edge 9, Type (0, 1), BuildingBlock: XIVTED_clean_linker_0, # of connection points: 2
#     Edge 10, Type (0, 1), BuildingBlock: XIVTED_clean_linker_0, # of connection points: 2
#     Edge 11, Type (0, 1), BuildingBlock: XIVTED_clean_linker_0, # of connection points: 2
#     Edge 12, Type (0, 1), BuildingBlock: XIVTED_clean_linker_0, # of connection points: 2
#     Edge 13, Type (0, 1), BuildingBlock: XIVTED_clean_linker_0, # of connection points: 2
#     Edge 14, Type (0, 1), BuildingBlock: XIVTED_clean_linker_0, # of connection points: 2
#     Edge 15, Type (0, 1), BuildingBlock: XIVTED_clean_linker_0, # of connection points: 2
#     Edge 16, Type (0, 1), BuildingBlock: XIVTED_clean_linker_0, # of connection points: 2
#     Edge 17, Type (0, 1), BuildingBlock: XIVTED_clean_linker_0, # of connection points: 2
# Relax obj value: 0.017
# Max RMSD: 0.085
# Mean RMSD: 0.064
data_MOF--net-pth--node1-KUFVIS_clean_sbu_0--node2-MIFKUJ_clean_linker_1--edge1-XIVTED_clean_linker_0
_symmetry_space_group_name_H-M    P1
_symmetry_Int_Tables_number       1
_symmetry_cell_setting            triclinic
loop_
_symmetry_equiv_pos_as_xyz
'x, y, z'
_cell_length_a     29.338183
_cell_length_b     29.411975
_cell_length_c     64.689021
_cell_angle_alpha  90.452094
_cell_angle_beta   91.8268
_cell_angle_gamma 120.21188
loop_
_atom_site_label
_atom_site_type_symbol
_atom_site_fract_x
_atom_site_fract_y
_atom_site_fract_z
_atom_type_partial_charge
Mn0 Mn 0.04143 0.05935 0.04244 0.0
Mn1 Mn 0.9735 0.09974 0.01202 0.0
C2 C 0.98789 0.00624 0.01522 0.0
C3 C 0.04888 0.01652 0.07139 0.0
C4 C 0.08938 0.13804 0.00751 0.0
O5 O 0.04426 0.11838 0.05993 0.0
O6 O 0.99999 0.14331 0.03813 0.0
C7 C 0.88346 0.06854 0.03911 0.0
N8 N 0.90209 0.06617 0.02035 0.0
C9 C 0.81397 0.01113 0.00588 0.0
C10 C 0.79383 0.01328 0.025 0.0
C11 C 0.82875 0.04198 0.0417 0.0
C12 C 0.86885 0.03848 0.00421 0.0
H13 H 0.91013 0.09053 0.05199 0.0
C14 C 0.02539 0.14784 0.05524 0.0
O15 O 0.09037 0.05168 0.06228 0.0
O16 O 0.00333 0.00767 0.06413 0.0
N17 N 0.94477 0.06155 0.98632 0.0
C18 C 0.97058 0.06086 0.96928 0.0
C19 C 0.94135 0.0325 0.95139 0.0
C20 C 0.88594 0.00568 0.95111 0.0
C21 C 0.86024 0.00745 0.96875 0.0
C22 C 0.89146 0.03648 0.98611 0.0
H23 H 0.01313 0.08118 0.96944 0.0
O24 O 0.02615 0.00062 0.02279 0.0
O25 O 0.98142 0.04263 0.02392 0.0
O26 O 0.0943 0.1131 0.02268 0.0
O27 O 0.04581 0.13518 0.00198 0.0
C28 C 0.80489 0.98068 0.96992 0.0
C29 C 0.78177 0.98235 0.98849 0.0
H30 H 0.75166 0.99274 0.02708 0.0
H31 H 0.81352 0.04362 0.05653 0.0
H32 H 0.96148 0.03118 0.93787 0.0
H33 H 0.86352 0.98347 0.93735 0.0
H34 H 0.77973 0.95806 0.95672 0.0
H35 H 0.73918 0.96094 0.9893 0.0
Mn36 Mn 0.00696 0.04728 0.37173 0.0
Mn37 Mn 0.07945 0.16006 0.39999 0.0
C38 C 0.06268 0.0507 0.39845 0.0
C39 C 0.99662 0.99365 0.34316 0.0
C40 C 0.96316 0.08511 0.40608 0.0
O41 O 0.00299 0.10172 0.35376 0.0
O42 O 0.05403 0.17487 0.37339 0.0
C43 C 0.16992 0.21268 0.37271 0.0
N44 N 0.15084 0.19451 0.39166 0.0
C45 C 0.23841 0.22645 0.40637 0.0
C46 C 0.25905 0.24585 0.38704 0.0
C47 C 0.22463 0.23877 0.37013 0.0
C48 C 0.18357 0.20089 0.40801 0.0
H49 H 0.14357 0.20731 0.35968 0.0
C50 C 0.02533 0.1513 0.35712 0.0
O51 O 0.95609 0.98834 0.35278 0.0
O52 O 0.04277 0.03105 0.34974 0.0
N53 N 0.10705 0.15244 0.4261 0.0
C54 C 0.0806 0.12872 0.44336 0.0
C55 C 0.10919 0.13052 0.46148 0.0
C56 C 0.16461 0.15727 0.46176 0.0
C57 C 0.19096 0.18204 0.44391 0.0
C58 C 0.16039 0.17898 0.42631 0.0
H59 H 0.03802 0.10827 0.44324 0.0
O60 O 0.0237 0.00595 0.39159 0.0
O61 O 0.06868 0.09251 0.38924 0.0
O62 O 0.95653 0.05098 0.39218 0.0
O63 O 0.00727 0.12711 0.40999 0.0
C64 C 0.24632 0.20881 0.44276 0.0
C65 C 0.27002 0.2308 0.42398 0.0
H66 H 0.30121 0.26586 0.38497 0.0
H67 H 0.24024 0.25341 0.35514 0.0
H68 H 0.08856 0.1113 0.4752 0.0
H69 H 0.18651 0.15825 0.47573 0.0
H70 H 0.27101 0.21205 0.45615 0.0
H71 H 0.31258 0.25053 0.42321 0.0
Mn72 Mn 0.0349 0.05781 0.70703 0.0
Mn73 Mn 0.99584 0.12767 0.7357 0.0
C74 C 0.0873 0.10928 0.73482 0.0
C75 C 0.079 0.0509 0.67883 0.0
C76 C 0.9506 0.01014 0.73955 0.0
O77 O 0.97721 0.05758 0.68858 0.0
O78 O 0.95679 0.10773 0.70838 0.0
C79 C 0.03829 0.22295 0.71046 0.0
N80 N 0.0357 0.20027 0.72899 0.0
C81 C 0.09492 0.28436 0.74549 0.0
C82 C 0.09794 0.30868 0.72662 0.0
C83 C 0.06959 0.27781 0.70902 0.0
C84 C 0.06285 0.22957 0.74601 0.0
H85 H 0.01668 0.19931 0.6969 0.0
C86 C 0.95098 0.08063 0.69186 0.0
O87 O 0.04228 0.00931 0.68743 0.0
O88 O 0.08855 0.09616 0.68615 0.0
N89 N 0.03026 0.14974 0.76252 0.0
C90 C 0.02529 0.11991 0.77924 0.0
C91 C 0.05244 0.14463 0.79796 0.0
C92 C 0.08396 0.19973 0.79936 0.0
C93 C 0.0879 0.22963 0.78202 0.0
C94 C 0.05965 0.20283 0.76382 0.0
H95 H 0.00112 0.07755 0.77825 0.0
O96 O 0.09245 0.07087 0.72767 0.0
O97 O 0.05194 0.11685 0.72537 0.0
O98 O 0.9791 0.00514 0.72622 0.0
O99 O 0.9535 0.05394 0.74399 0.0
C100 C 0.1196 0.28488 0.78197 0.0
C101 C 0.12321 0.31221 0.7637 0.0
H102 H 0.12226 0.35096 0.72541 0.0
H103 H 0.07194 0.29627 0.69438 0.0
H104 H 0.04921 0.12128 0.81127 0.0
H105 H 0.10527 0.21862 0.81377 0.0
H106 H 0.14203 0.30666 0.7958 0.0
H107 H 0.14835 0.35462 0.76378 0.0
H108 H 0.10812 0.54181 0.17197 0.0
H109 H 0.11374 0.47741 0.14966 0.0
H110 H 0.96327 0.3555 0.17023 0.0
H111 H 0.9568 0.42022 0.19202 0.0
H112 H 0.0448 0.57698 0.17004 0.0
H113 H 0.08423 0.48482 0.22103 0.0
H114 H 0.07871 0.41473 0.24283 0.0
H115 H 0.92804 0.38502 0.26366 0.0
H116 H 0.93266 0.45383 0.24134 0.0
H117 H 0.92246 0.59218 0.23223 0.0
H118 H 0.91195 0.65916 0.2506 0.0
H119 H 0.07963 0.76813 0.24729 0.0
H120 H 0.08896 0.70165 0.22818 0.0
H121 H 0.99542 0.55269 0.24344 0.0
H122 H 0.95084 0.63145 0.18523 0.0
H123 H 0.96029 0.70698 0.16633 0.0
H124 H 0.12847 0.76774 0.1641 0.0
H125 H 0.11781 0.69044 0.18215 0.0
C126 C 0.0322 0.48598 0.18384 0.0
C127 C 0.0763 0.50122 0.17172 0.0
C128 C 0.07955 0.46444 0.159 0.0
C129 C 0.03898 0.41151 0.15825 0.0
C130 C 0.99542 0.39593 0.17071 0.0
C131 C 0.99179 0.43291 0.18321 0.0
C132 C 0.02729 0.52615 0.19615 0.0
C133 C 0.03475 0.57163 0.18618 0.0
C134 C 0.01315 0.5192 0.21717 0.0
C135 C 0.00864 0.47448 0.22935 0.0
C136 C 0.04937 0.46244 0.22988 0.0
C137 C 0.04628 0.42246 0.24238 0.0
C138 C 0.00299 0.39458 0.25494 0.0
C139 C 0.96203 0.40619 0.25424 0.0
C140 C 0.96471 0.44554 0.24151 0.0
C141 C 0.00641 0.64213 0.22883 0.0
C142 C 0.95681 0.6306 0.2355 0.0
C143 C 0.95099 0.66894 0.24607 0.0
C144 C 0.9949 0.71935 0.25045 0.0
C145 C 0.04466 0.73033 0.24385 0.0
C146 C 0.05026 0.69221 0.23307 0.0
C147 C 0.0125 0.60211 0.21719 0.0
C148 C 0.00541 0.55718 0.2273 0.0
C149 C 0.02747 0.60948 0.19645 0.0
C150 C 0.03361 0.65545 0.185 0.0
C151 C 0.98966 0.66109 0.18059 0.0
C152 C 0.99533 0.70466 0.16995 0.0
C153 C 0.04526 0.74393 0.1637 0.0
C154 C 0.08928 0.73807 0.16831 0.0
C155 C 0.08339 0.69403 0.17872 0.0
H156 H 0.60164 0.10688 0.5028 0.0
H157 H 0.67306 0.11317 0.48241 0.0
H158 H 0.64804 0.96646 0.5069 0.0
H159 H 0.57577 0.96004 0.52723 0.0
H160 H 0.49841 0.03231 0.50129 0.0
H161 H 0.64612 0.09966 0.54953 0.0
H162 H 0.71776 0.10382 0.5714 0.0
H163 H 0.60512 0.96558 0.60287 0.0
H164 H 0.53366 0.96031 0.58049 0.0
H165 H 0.3949 0.96089 0.57898 0.0
H166 H 0.32805 0.96516 0.59911 0.0
H167 H 0.3611 0.10855 0.56885 0.0
H168 H 0.42954 0.10525 0.54951 0.0
H169 H 0.49891 0.0261 0.57782 0.0
H170 H 0.34943 0.96956 0.53071 0.0
H171 H 0.28172 0.97665 0.51084 0.0
H172 H 0.40295 0.10098 0.47566 0.0
H173 H 0.47013 0.09789 0.49729 0.0
C174 C 0.58362 0.03318 0.51662 0.0
C175 C 0.61141 0.07597 0.50376 0.0
C176 C 0.65244 0.07969 0.49222 0.0
C177 C 0.66633 0.04045 0.49315 0.0
C178 C 0.63799 0.99713 0.50581 0.0
C179 C 0.59703 0.99361 0.51752 0.0
C180 C 0.54028 0.0303 0.52879 0.0
C181 C 0.49862 0.03148 0.51806 0.0
C182 C 0.54025 0.02778 0.55062 0.0
C183 C 0.5844 0.02915 0.56311 0.0
C184 C 0.63687 0.06937 0.56074 0.0
C185 C 0.67782 0.07188 0.57329 0.0
C186 C 0.66693 0.03499 0.58879 0.0
C187 C 0.61454 0.99467 0.5911 0.0
C188 C 0.57373 0.99167 0.57834 0.0
C189 C 0.41689 0.03241 0.56256 0.0
C190 C 0.38791 0.99339 0.57678 0.0
C191 C 0.34925 0.9956 0.58812 0.0
C192 C 0.33878 0.037 0.58553 0.0
C193 C 0.36832 0.07634 0.5714 0.0
C194 C 0.40719 0.07426 0.56016 0.0
C195 C 0.45739 0.02937 0.55034 0.0
C196 C 0.49836 0.02664 0.56105 0.0
C197 C 0.45727 0.0314 0.52845 0.0
C198 C 0.41519 0.03392 0.51588 0.0
C199 C 0.36146 0.99931 0.51908 0.0
C200 C 0.32253 0.00277 0.50733 0.0
C201 C 0.3363 0.03957 0.49149 0.0
C202 C 0.39024 0.07311 0.488 0.0
C203 C 0.42905 0.07077 0.50019 0.0
H204 H 0.50773 0.42432 0.83843 0.0
H205 H 0.43175 0.35531 0.81818 0.0
H206 H 0.3324 0.41009 0.84295 0.0
H207 H 0.40833 0.47847 0.86347 0.0
H208 H 0.54606 0.53706 0.83629 0.0
H209 H 0.47042 0.39403 0.88336 0.0
H210 H 0.40059 0.32714 0.90394 0.0
H211 H 0.39519 0.44925 0.93928 0.0
H212 H 0.46284 0.51599 0.91804 0.0
H213 H 0.58306 0.64031 0.91687 0.0
H214 H 0.651 0.71285 0.93779 0.0
H215 H 0.7706 0.71271 0.90031 0.0
H216 H 0.70224 0.63616 0.8808 0.0
H217 H 0.55874 0.54659 0.91294 0.0
H218 H 0.61746 0.68684 0.86494 0.0
H219 H 0.67881 0.75811 0.84361 0.0
H220 H 0.70763 0.6484 0.80966 0.0
H221 H 0.64847 0.57793 0.83189 0.0
C222 C 0.46342 0.45615 0.85247 0.0
C223 C 0.46948 0.42116 0.83957 0.0
C224 C 0.42614 0.38173 0.82814 0.0
C225 C 0.37638 0.3775 0.82907 0.0
C226 C 0.37044 0.41272 0.84194 0.0
C227 C 0.4136 0.45155 0.85367 0.0
C228 C 0.50956 0.49859 0.8642 0.0
C229 C 0.5494 0.53901 0.85307 0.0
C230 C 0.51268 0.50137 0.88607 0.0
C231 C 0.47138 0.46021 0.89882 0.0
C232 C 0.45362 0.40651 0.89525 0.0
C233 C 0.41408 0.36831 0.90712 0.0
C234 C 0.39275 0.38322 0.92317 0.0
C235 C 0.4114 0.43685 0.9271 0.0
C236 C 0.45003 0.47493 0.91496 0.0
C237 C 0.63722 0.63272 0.89709 0.0
C238 C 0.62396 0.65548 0.91326 0.0
C239 C 0.66311 0.69784 0.92505 0.0
C240 C 0.71675 0.71957 0.92073 0.0
C241 C 0.72997 0.69693 0.90438 0.0
C242 C 0.69071 0.65351 0.89291 0.0
C243 C 0.59469 0.5866 0.88511 0.0
C244 C 0.55567 0.54498 0.89617 0.0
C245 C 0.59144 0.58354 0.86317 0.0
C246 C 0.62898 0.62714 0.85027 0.0
C247 C 0.63765 0.6783 0.85313 0.0
C248 C 0.67227 0.71894 0.84069 0.0
C249 C 0.69826 0.70914 0.82483 0.0
C250 C 0.68908 0.65769 0.8219 0.0
C251 C 0.65484 0.61718 0.83449 0.0
H252 H 0.02087 0.23681 0.04783 0.0
H253 H 0.02041 0.31217 0.16608 0.0
H254 H 0.04371 0.15174 0.09732 0.0
H255 H 0.06112 0.42381 0.11735 0.0
H256 H 0.02063 0.24873 0.14121 0.0
H257 H 0.02741 0.30202 0.07317 0.0
C258 C 0.02737 0.23188 0.06403 0.0
C259 C 0.03175 0.18872 0.07046 0.0
C260 C 0.02985 0.28726 0.13603 0.0
C261 C 0.03871 0.26305 0.09958 0.0
C262 C 0.02946 0.32328 0.15016 0.0
C263 C 0.04084 0.37326 0.14373 0.0
C264 C 0.0407 0.30105 0.11528 0.0
C265 C 0.0526 0.38586 0.12297 0.0
C266 C 0.0313 0.26925 0.07847 0.0
C267 C 0.04038 0.18455 0.09167 0.0
N268 N 0.05178 0.34985 0.10945 0.0
N269 N 0.04309 0.221 0.10552 0.0
H270 H 0.86345 0.99726 0.40659 0.0
H271 H 0.76303 0.12784 0.48932 0.0
H272 H 0.96007 0.15247 0.43457 0.0
H273 H 0.67059 0.96474 0.46942 0.0
H274 H 0.83443 0.13748 0.46815 0.0
H275 H 0.7909 0.98443 0.42823 0.0
C276 C 0.86946 0.02865 0.4172 0.0
C277 C 0.91807 0.07607 0.41868 0.0
C278 C 0.79865 0.09946 0.4684 0.0
C279 C 0.8353 0.06158 0.44345 0.0
C280 C 0.75776 0.09403 0.48043 0.0
C281 C 0.7107 0.04551 0.48104 0.0
C282 C 0.79256 0.05614 0.45672 0.0
C283 C 0.70638 0.00278 0.46947 0.0
C284 C 0.82808 0.0212 0.42959 0.0
C285 C 0.9235 0.11522 0.4328 0.0
N286 N 0.74671 0.00915 0.45767 0.0
N287 N 0.88272 0.10711 0.44454 0.0
H288 H 0.94637 0.91488 0.7435 0.0
H289 H 0.68719 0.79036 0.80987 0.0
H290 H 0.86736 0.99869 0.7613 0.0
H291 H 0.7912 0.72634 0.80855 0.0
H292 H 0.74738 0.86183 0.78838 0.0
H293 H 0.88389 0.83979 0.76344 0.0
C294 C 0.91579 0.91743 0.75147 0.0
C295 C 0.91229 0.96329 0.75077 0.0
C296 C 0.75704 0.83213 0.7928 0.0
C297 C 0.84074 0.87762 0.77349 0.0
C298 C 0.72282 0.7914 0.80521 0.0
C299 C 0.73419 0.75228 0.81126 0.0
C300 C 0.80293 0.83379 0.78616 0.0
C301 C 0.7804 0.7552 0.80415 0.0
C302 C 0.88033 0.87467 0.76292 0.0
C303 C 0.87192 0.96438 0.76149 0.0
N304 N 0.81307 0.79525 0.79199 0.0
N305 N 0.83777 0.92223 0.77233 0.0
H306 H 0.97367 0.9561 0.09854 0.0
H307 H 0.11284 0.79647 0.13256 0.0
H308 H 0.13206 0.00248 0.08166 0.0
H309 H 0.9908 0.797 0.16808 0.0
H310 H 0.1186 0.86919 0.11269 0.0
H311 H 0.97665 0.89467 0.1231 0.0
C312 C 0.00929 0.95377 0.10018 0.0
C313 C 0.05264 0.98429 0.08803 0.0
C314 C 0.09088 0.85359 0.12495 0.0
C315 C 0.05593 0.91348 0.11577 0.0
C316 C 0.08766 0.81212 0.13642 0.0
C317 C 0.05101 0.79001 0.15205 0.0
C318 C 0.05669 0.87271 0.12886 0.0
C319 C 0.01879 0.81167 0.15591 0.0
C320 C 0.01098 0.91877 0.11421 0.0
C321 C 0.09782 0.97975 0.09078 0.0
N322 N 0.02202 0.85139 0.14427 0.0
N323 N 0.09804 0.94441 0.10416 0.0
H324 H 0.04464 0.99555 0.43367 0.0
H325 H 0.34235 0.12625 0.47249 0.0
H326 H 0.16931 0.10227 0.39526 0.0
H327 H 0.23477 0.96011 0.48055 0.0
H328 H 0.27622 0.12884 0.44962 0.0
H329 H 0.11091 0.99256 0.45703 0.0
C330 C 0.08608 0.01893 0.43039 0.0
C331 C 0.10211 0.05112 0.41315 0.0
C332 C 0.26729 0.09207 0.45658 0.0
C333 C 0.17728 0.04752 0.43941 0.0
C334 C 0.3052 0.09019 0.4695 0.0
C335 C 0.29493 0.04263 0.47847 0.0
C336 C 0.21798 0.04669 0.45309 0.0
C337 C 0.24475 0.99796 0.47442 0.0
C338 C 0.12361 0.01704 0.44359 0.0
C339 C 0.15589 0.07918 0.40902 0.0
N340 N 0.20806 0.00119 0.46215 0.0
N341 N 0.19183 0.07739 0.42226 0.0
H342 H 0.12274 0.08976 0.77118 0.0
H343 H 0.31081 0.39263 0.80286 0.0
H344 H 0.14596 0.21507 0.73098 0.0
H345 H 0.33992 0.27186 0.82577 0.0
H346 H 0.23881 0.32657 0.7802 0.0
H347 H 0.19247 0.15487 0.79509 0.0
C348 C 0.14227 0.13111 0.76756 0.0
C349 C 0.1274 0.1477 0.74966 0.0
C350 C 0.26086 0.31456 0.79025 0.0
C351 C 0.20706 0.2217 0.77649 0.0
C352 C 0.30162 0.35206 0.80323 0.0
C353 C 0.33125 0.33751 0.8161 0.0
C354 C 0.24911 0.26203 0.79045 0.0
C355 C 0.31815 0.28459 0.81592 0.0
C356 C 0.18197 0.16806 0.7811 0.0
C357 C 0.15485 0.20127 0.74516 0.0
N358 N 0.27781 0.2486 0.80334 0.0
N359 N 0.19304 0.23657 0.75862 0.0
H360 H 0.86873 0.09738 0.6974 0.0
H361 H 0.76437 0.05023 0.57969 0.0
H362 H 0.93988 0.05021 0.65072 0.0
H363 H 0.66653 0.03253 0.63087 0.0
H364 H 0.83491 0.06125 0.60442 0.0
H365 H 0.80028 0.08568 0.67201 0.0
C366 C 0.87018 0.08479 0.68177 0.0
C367 C 0.91019 0.07469 0.67621 0.0
C368 C 0.79786 0.05469 0.61017 0.0
C369 C 0.83167 0.06136 0.647 0.0
C370 C 0.75781 0.04865 0.59612 0.0
C371 C 0.70958 0.04027 0.60329 0.0
C372 C 0.78984 0.05339 0.63149 0.0
C373 C 0.70291 0.03835 0.6247 0.0
C374 C 0.83084 0.07784 0.66731 0.0
C375 C 0.90966 0.05819 0.65571 0.0
N376 N 0.7427 0.04524 0.63804 0.0
N377 N 0.87111 0.05228 0.64178 0.0
H378 H 0.00789 0.96599 0.981 0.0
H379 H 0.71064 0.80043 0.93988 0.0
H380 H 0.88092 0.95274 0.01698 0.0
H381 H 0.81865 0.74297 0.93102 0.0
H382 H 0.77664 0.86975 0.96296 0.0
H383 H 0.94266 0.89654 0.95708 0.0
C384 C 0.9662 0.94882 0.98366 0.0
C385 C 0.94929 0.96645 0.00033 0.0
C386 C 0.78574 0.84201 0.95582 0.0
C387 C 0.87524 0.88742 0.97343 0.0
C388 C 0.74794 0.80197 0.94275 0.0
C389 C 0.75835 0.76477 0.93356 0.0
C390 C 0.83499 0.84609 0.95932 0.0
C391 C 0.80861 0.77072 0.93742 0.0
C392 C 0.92923 0.9093 0.97012 0.0
C393 C 0.89515 0.94189 0.00366 0.0
N394 N 0.84512 0.81071 0.94994 0.0
N395 N 0.85983 0.90402 0.99013 0.0
H396 H 0.06876 0.00708 0.31471 0.0
H397 H 0.92908 0.70532 0.28226 0.0
H398 H 0.91322 0.89472 0.33432 0.0
H399 H 0.0479 0.82667 0.24555 0.0
H400 H 0.92407 0.77315 0.30236 0.0
H401 H 0.06396 0.94107 0.29012 0.0
C402 C 0.03336 0.96866 0.31367 0.0
C403 C 0.99138 0.95626 0.32659 0.0
C404 C 0.9509 0.78479 0.28979 0.0
C405 C 0.98602 0.8803 0.29878 0.0
C406 C 0.95368 0.74605 0.2782 0.0
C407 C 0.9893 0.76004 0.26218 0.0
C408 C 0.98446 0.83805 0.28558 0.0
C409 C 0.02077 0.81381 0.25802 0.0
C410 C 0.03061 0.93104 0.29962 0.0
C411 C 0.94641 0.90592 0.32459 0.0
N412 N 0.01799 0.85079 0.26976 0.0
N413 N 0.94519 0.86947 0.31115 0.0
H414 H 0.07131 0.96223 0.66086 0.0
H415 H 0.34193 0.12429 0.60274 0.0
H416 H 0.16207 0.13187 0.6602 0.0
H417 H 0.24212 0.95554 0.59631 0.0
H418 H 0.27534 0.12749 0.6233 0.0
H419 H 0.13192 0.95842 0.63665 0.0
C420 C 0.10364 0.99865 0.65547 0.0
C421 C 0.11173 0.04744 0.66263 0.0
C422 C 0.26784 0.08974 0.61732 0.0
C423 C 0.18154 0.04341 0.63512 0.0
C424 C 0.30582 0.0879 0.60546 0.0
C425 C 0.29785 0.03954 0.59775 0.0
C426 C 0.22146 0.04289 0.62168 0.0
C427 C 0.25051 0.99365 0.60218 0.0
C428 C 0.1383 0.99646 0.64168 0.0
C429 C 0.15433 0.09337 0.65514 0.0
N430 N 0.21425 0.99643 0.6139 0.0
N431 N 0.18778 0.09022 0.64193 0.0
H432 H 0.19435 0.18373 0.01953 0.0
H433 H 0.29974 0.29911 0.90891 0.0
H434 H 0.09084 0.16903 0.96773 0.0
H435 H 0.38883 0.37663 0.96528 0.0
H436 H 0.22676 0.23624 0.92954 0.0
H437 H 0.27055 0.24106 0.99897 0.0
C438 C 0.18763 0.19219 0.00383 0.0
C439 C 0.13611 0.17161 0.99536 0.0
C440 C 0.26244 0.26687 0.93737 0.0
C441 C 0.22275 0.23614 0.9718 0.0
C442 C 0.30406 0.30242 0.92564 0.0
C443 C 0.35006 0.34304 0.93547 0.0
C444 C 0.26734 0.27146 0.95905 0.0
C445 C 0.3537 0.34599 0.95718 0.0
C446 C 0.23103 0.22497 0.99218 0.0
C447 C 0.12973 0.18407 0.97495 0.0
N448 N 0.31287 0.31051 0.96829 0.0
N449 N 0.17251 0.21525 0.96384 0.0
H450 H 0.00144 0.13031 0.31543 0.0
H451 H 0.98268 0.38802 0.29594 0.0
H452 H 0.03316 0.24684 0.36328 0.0
H453 H 0.02158 0.3134 0.24745 0.0
H454 H 0.9847 0.32628 0.32056 0.0
H455 H 0.99309 0.1875 0.28992 0.0
C456 C 0.00629 0.16768 0.32058 0.0
C457 C 0.01819 0.18395 0.3415 0.0
C458 C 0.99263 0.32331 0.30452 0.0
C459 C 0.00816 0.24891 0.31255 0.0
C460 C 0.99114 0.35825 0.29045 0.0
C461 C 0.00201 0.35575 0.26966 0.0
C462 C 0.00435 0.28505 0.29771 0.0
C463 C 0.01334 0.31679 0.2634 0.0
C464 C 0.00178 0.20031 0.30603 0.0
C465 C 0.02434 0.23288 0.34731 0.0
N466 N 0.01403 0.28273 0.27737 0.0
N467 N 0.019 0.26346 0.33295 0.0
loop_
_geom_bond_atom_site_label_1
_geom_bond_atom_site_label_2
_geom_bond_distance
_geom_bond_site_symmetry_2
_ccdc_geom_bond_type
Mn0 O5 2.095 . S
Mn0 O15 2.162 . S
Mn0 O16 2.297 1_545 S
Mn0 O24 2.385 1_545 S
Mn0 O25 2.209 1_455 S
Mn0 O26 2.094 . S
Mn1 O6 2.121 . S
Mn1 N8 2.257 . S
Mn1 N17 2.282 1_554 S
Mn1 O25 2.215 . S
Mn1 O27 2.117 1_655 S
C2 O24 1.234 1_655 S
C2 O25 1.283 1_565 S
C3 O15 1.281 1_565 S
C3 O16 1.236 . S
C4 O26 1.240 . S
C4 O27 1.264 . S
O5 Mn0 2.095 . S
O5 C14 1.250 . S
O6 Mn1 2.121 . S
O6 C14 1.258 1_655 S
C7 N8 1.326 . S
C7 C11 1.460 . S
C7 H13 0.929 . S
N8 Mn1 2.257 . S
N8 C7 1.326 . S
N8 C12 1.362 1_554 S
C9 C10 1.258 1_556 S
C9 C12 1.431 . S
C9 C29 1.449 . S
C10 C9 1.258 1_554 S
C10 C11 1.477 . S
C10 H30 0.931 1_554 S
C11 C7 1.460 . S
C11 C10 1.477 . S
C11 H31 0.930 . S
C12 N8 1.362 1_556 S
C12 C9 1.431 . S
C12 C22 1.476 . S
H13 C7 0.929 . S
C14 O5 1.250 . S
C14 O6 1.258 1_455 S
O15 Mn0 2.162 . S
O15 C3 1.281 1_545 S
O16 Mn0 2.297 1_565 S
O16 C3 1.236 . S
N17 Mn1 2.282 1_556 S
N17 C18 1.328 . S
N17 C22 1.318 . S
C18 N17 1.328 . S
C18 C19 1.457 . S
C18 H23 0.929 1_655 S
C19 C18 1.457 . S
C19 C20 1.291 . S
C19 H32 0.931 . S
C20 C19 1.291 . S
C20 C21 1.373 . S
C20 H33 0.929 . S
C21 C20 1.373 . S
C21 C22 1.396 . S
C21 C28 1.403 . S
C22 C12 1.476 . S
C22 N17 1.318 . S
C22 C21 1.396 . S
H23 C18 0.929 1_455 S
O24 Mn0 2.385 1_565 S
O24 C2 1.234 1_455 S
O25 Mn0 2.209 1_655 S
O25 Mn1 2.215 . S
O25 C2 1.283 1_545 S
O26 Mn0 2.094 . S
O26 C4 1.240 . S
O27 Mn1 2.117 1_455 S
O27 C4 1.264 . S
C28 C21 1.403 . S
C28 C29 1.399 . S
C28 H34 0.929 . S
C29 C9 1.449 . S
C29 C28 1.399 . S
C29 H35 0.930 . S
H30 C10 0.931 1_556 S
H31 C11 0.930 . S
H32 C19 0.931 . S
H33 C20 0.929 . S
H34 C28 0.929 . S
H35 C29 0.930 . S
Mn36 O41 2.095 . S
Mn36 O51 2.162 1_545 S
Mn36 O52 2.297 1_655 S
Mn36 O60 2.385 1_655 S
Mn36 O61 2.209 1_655 S
Mn36 O62 2.094 . S
Mn37 O42 2.121 . S
Mn37 N44 2.257 . S
Mn37 N53 2.282 . S
Mn37 O61 2.215 . S
Mn37 O63 2.117 1_455 S
C38 O60 1.234 . S
C38 O61 1.283 . S
C39 O51 1.281 1_455 S
C39 O52 1.236 1_565 S
C40 O62 1.240 . S
C40 O63 1.264 . S
O41 Mn36 2.095 . S
O41 C50 1.250 1_655 S
O42 Mn37 2.121 . S
O42 C50 1.258 . S
C43 N44 1.326 . S
C43 C47 1.460 . S
C43 H49 0.929 . S
N44 Mn37 2.257 . S
N44 C43 1.326 . S
N44 C48 1.362 . S
C45 C46 1.258 . S
C45 C48 1.431 . S
C45 C65 1.449 . S
C46 C45 1.258 . S
C46 C47 1.477 . S
C46 H66 0.931 . S
C47 C43 1.460 . S
C47 C46 1.477 . S
C47 H67 0.930 . S
C48 N44 1.362 . S
C48 C45 1.431 . S
C48 C58 1.476 . S
H49 C43 0.929 . S
C50 O41 1.250 1_455 S
C50 O42 1.258 . S
O51 Mn36 2.162 1_565 S
O51 C39 1.281 1_655 S
O52 Mn36 2.297 1_455 S
O52 C39 1.236 1_545 S
N53 Mn37 2.282 . S
N53 C54 1.328 . S
N53 C58 1.318 . S
C54 N53 1.328 . S
C54 C55 1.457 . S
C54 H59 0.929 . S
C55 C54 1.457 . S
C55 C56 1.291 . S
C55 H68 0.931 . S
C56 C55 1.291 . S
C56 C57 1.373 . S
C56 H69 0.929 . S
C57 C56 1.373 . S
C57 C58 1.396 . S
C57 C64 1.403 . S
C58 C48 1.476 . S
C58 N53 1.318 . S
C58 C57 1.396 . S
H59 C54 0.929 . S
O60 Mn36 2.385 1_455 S
O60 C38 1.234 . S
O61 Mn36 2.209 1_455 S
O61 Mn37 2.215 . S
O61 C38 1.283 . S
O62 Mn36 2.094 . S
O62 C40 1.240 . S
O63 Mn37 2.117 1_655 S
O63 C40 1.264 . S
C64 C57 1.403 . S
C64 C65 1.399 . S
C64 H70 0.929 . S
C65 C45 1.449 . S
C65 C64 1.399 . S
C65 H71 0.930 . S
H66 C46 0.931 . S
H67 C47 0.930 . S
H68 C55 0.931 . S
H69 C56 0.929 . S
H70 C64 0.929 . S
H71 C65 0.930 . S
Mn72 O77 2.095 1_455 S
Mn72 O87 2.162 . S
Mn72 O88 2.297 . S
Mn72 O96 2.385 . S
Mn72 O97 2.209 . S
Mn72 O98 2.094 1_445 S
Mn73 O78 2.121 . S
Mn73 N80 2.257 . S
Mn73 N89 2.282 1_655 S
Mn73 O97 2.215 1_655 S
Mn73 O99 2.117 . S
C74 O96 1.234 . S
C74 O97 1.283 . S
C75 O87 1.281 . S
C75 O88 1.236 . S
C76 O98 1.240 . S
C76 O99 1.264 1_565 S
O77 Mn72 2.095 1_655 S
O77 C86 1.250 . S
O78 Mn73 2.121 . S
O78 C86 1.258 . S
C79 N80 1.326 . S
C79 C83 1.466 1_655 S
C79 H85 0.929 . S
N80 Mn73 2.257 . S
N80 C79 1.326 . S
N80 C84 1.362 1_655 S
C81 C82 1.258 . S
C81 C84 1.431 . S
C81 C101 1.449 . S
C82 C81 1.258 . S
C82 C83 1.480 . S
C82 H102 0.931 . S
C83 C79 1.466 1_455 S
C83 C82 1.480 . S
C83 H103 0.921 1_455 S
C84 N80 1.362 1_455 S
C84 C81 1.431 . S
C84 C94 1.476 . S
H85 C79 0.929 . S
C86 O77 1.250 . S
C86 O78 1.258 . S
O87 Mn72 2.162 . S
O87 C75 1.281 . S
O88 Mn72 2.297 . S
O88 C75 1.236 . S
N89 Mn73 2.282 1_455 S
N89 C90 1.328 . S
N89 C94 1.318 . S
C90 N89 1.328 . S
C90 C91 1.457 . S
C90 H95 0.929 1_455 S
C91 C90 1.457 . S
C91 C92 1.291 . S
C91 H104 0.931 . S
C92 C91 1.291 . S
C92 C93 1.373 . S
C92 H105 0.929 . S
C93 C92 1.373 . S
C93 C94 1.396 . S
C93 C100 1.403 . S
C94 C84 1.476 . S
C94 N89 1.318 . S
C94 C93 1.396 . S
H95 C90 0.929 1_655 S
O96 Mn72 2.385 . S
O96 C74 1.234 . S
O97 Mn72 2.209 . S
O97 Mn73 2.215 1_455 S
O97 C74 1.283 . S
O98 Mn72 2.094 1_665 S
O98 C76 1.240 . S
O99 Mn73 2.117 . S
O99 C76 1.264 1_545 S
C100 C93 1.403 . S
C100 C101 1.399 . S
C100 H106 0.929 . S
C101 C81 1.449 . S
C101 C100 1.399 . S
C101 H107 0.930 . S
H102 C82 0.931 . S
H103 C83 0.921 1_655 S
H104 C91 0.931 . S
H105 C92 0.929 . S
H106 C100 0.929 . S
H107 C101 0.930 . S
H108 C127 0.949 . S
H109 C128 0.950 . S
H110 C130 0.950 . S
H111 C131 0.950 . S
H112 C133 0.950 . S
H113 C136 0.950 . S
H114 C137 0.950 . S
H115 C139 0.951 . S
H116 C140 0.949 . S
H117 C142 0.949 . S
H118 C143 0.950 . S
H119 C145 0.950 . S
H120 C146 0.950 . S
H121 C148 0.950 . S
H122 C151 0.950 . S
H123 C152 0.950 . S
H124 C154 0.951 . S
H125 C155 0.949 . S
C126 C127 1.376 . S
C126 C131 1.386 1_455 S
C126 C132 1.483 . S
C127 H108 0.949 . S
C127 C126 1.376 . S
C127 C128 1.397 . S
C128 H109 0.950 . S
C128 C127 1.397 . S
C128 C129 1.391 . S
C129 C128 1.391 . S
C129 C130 1.405 1_455 S
C130 H110 0.950 . S
C130 C129 1.405 1_655 S
C130 C131 1.367 . S
C131 H111 0.950 . S
C131 C126 1.386 1_655 S
C131 C130 1.367 . S
C132 C126 1.483 . S
C132 C133 1.382 . S
C132 C134 1.403 . S
C133 H112 0.950 . S
C133 C132 1.382 . S
C133 C149 1.411 . S
C134 C132 1.403 . S
C134 C135 1.489 . S
C134 C148 1.411 . S
C135 C134 1.489 . S
C135 C136 1.383 . S
C135 C140 1.382 1_455 S
C136 H113 0.950 . S
C136 C135 1.383 . S
C136 C137 1.395 . S
C137 H114 0.950 . S
C137 C136 1.395 . S
C137 C138 1.288 . S
C138 C137 1.288 . S
C138 C139 1.392 1_455 S
C139 H115 0.951 . S
C139 C138 1.392 1_655 S
C139 C140 1.392 . S
C140 H116 0.949 . S
C140 C135 1.382 1_655 S
C140 C139 1.392 . S
C141 C142 1.376 1_455 S
C141 C146 1.386 . S
C141 C147 1.483 . S
C142 H117 0.949 . S
C142 C141 1.376 1_655 S
C142 C143 1.397 . S
C143 H118 0.950 . S
C143 C142 1.397 . S
C143 C144 1.391 1_655 S
C144 C143 1.391 1_455 S
C144 C145 1.405 . S
C145 H119 0.950 . S
C145 C144 1.405 . S
C145 C146 1.367 . S
C146 H120 0.950 . S
C146 C141 1.386 . S
C146 C145 1.367 . S
C147 C141 1.483 . S
C147 C148 1.382 . S
C147 C149 1.403 . S
C148 H121 0.950 . S
C148 C134 1.411 . S
C148 C147 1.382 . S
C149 C133 1.411 . S
C149 C147 1.403 . S
C149 C150 1.489 . S
C150 C149 1.489 . S
C150 C151 1.383 1_455 S
C150 C155 1.382 . S
C151 H122 0.950 . S
C151 C150 1.383 1_655 S
C151 C152 1.395 . S
C152 H123 0.950 . S
C152 C151 1.395 . S
C152 C153 1.288 1_655 S
C153 C152 1.288 1_455 S
C153 C154 1.392 . S
C154 H124 0.951 . S
C154 C153 1.392 . S
C154 C155 1.392 . S
C155 H125 0.949 . S
C155 C150 1.382 . S
C155 C154 1.392 . S
H156 C175 0.949 . S
H157 C176 0.950 . S
H158 C178 0.950 . S
H159 C179 0.950 . S
H160 C181 0.950 . S
H161 C184 0.950 . S
H162 C185 0.950 . S
H163 C187 0.951 . S
H164 C188 0.949 . S
H165 C190 0.972 . S
H166 C191 0.963 . S
H167 C193 0.950 . S
H168 C194 0.950 . S
H169 C196 0.950 . S
H170 C199 0.950 . S
H171 C200 0.950 . S
H172 C202 0.951 . S
H173 C203 0.949 . S
C174 C175 1.376 . S
C174 C179 1.386 . S
C174 C180 1.483 . S
C175 H156 0.949 . S
C175 C174 1.376 . S
C175 C176 1.397 . S
C176 H157 0.950 . S
C176 C175 1.397 . S
C176 C177 1.391 . S
C177 C176 1.391 . S
C177 C178 1.405 . S
C178 H158 0.950 . S
C178 C177 1.405 . S
C178 C179 1.367 . S
C179 H159 0.950 . S
C179 C174 1.386 . S
C179 C178 1.367 . S
C180 C174 1.483 . S
C180 C181 1.382 . S
C180 C182 1.403 . S
C181 H160 0.950 . S
C181 C180 1.382 . S
C181 C197 1.411 . S
C182 C180 1.403 . S
C182 C183 1.489 . S
C182 C196 1.411 . S
C183 C182 1.489 . S
C183 C184 1.383 . S
C183 C188 1.382 . S
C184 H161 0.950 . S
C184 C183 1.383 . S
C184 C185 1.395 . S
C185 H162 0.950 . S
C185 C184 1.395 . S
C185 C186 1.288 . S
C186 C185 1.288 . S
C186 C187 1.392 . S
C187 H163 0.951 . S
C187 C186 1.392 . S
C187 C188 1.392 . S
C188 H164 0.949 . S
C188 C183 1.382 . S
C188 C187 1.392 . S
C189 C190 1.376 . S
C189 C194 1.386 . S
C189 C195 1.483 . S
C190 H165 0.972 . S
C190 C189 1.376 . S
C190 C191 1.397 . S
C191 H166 0.963 . S
C191 C190 1.397 . S
C191 C192 1.391 . S
C192 C191 1.391 . S
C192 C193 1.405 . S
C193 H167 0.950 . S
C193 C192 1.405 . S
C193 C194 1.367 . S
C194 H168 0.950 . S
C194 C189 1.386 . S
C194 C193 1.367 . S
C195 C189 1.483 . S
C195 C196 1.382 . S
C195 C197 1.403 . S
C196 H169 0.950 . S
C196 C182 1.411 . S
C196 C195 1.382 . S
C197 C181 1.411 . S
C197 C195 1.403 . S
C197 C198 1.489 . S
C198 C197 1.489 . S
C198 C199 1.383 . S
C198 C203 1.382 . S
C199 H170 0.950 . S
C199 C198 1.383 . S
C199 C200 1.395 . S
C200 H171 0.950 . S
C200 C199 1.395 . S
C200 C201 1.288 . S
C201 C200 1.288 . S
C201 C202 1.392 . S
C202 H172 0.951 . S
C202 C201 1.392 . S
C202 C203 1.392 . S
C203 H173 0.949 . S
C203 C198 1.382 . S
C203 C202 1.392 . S
H204 C223 0.949 . S
H205 C224 0.950 . S
H206 C226 0.950 . S
H207 C227 0.950 . S
H208 C229 0.950 . S
H209 C232 0.950 . S
H210 C233 0.950 . S
H211 C235 0.951 . S
H212 C236 0.949 . S
H213 C238 0.949 . S
H214 C239 0.950 . S
H215 C241 0.950 . S
H216 C242 0.950 . S
H217 C244 0.950 . S
H218 C247 0.950 . S
H219 C248 0.950 . S
H220 C250 0.951 . S
H221 C251 0.949 . S
C222 C223 1.376 . S
C222 C227 1.386 . S
C222 C228 1.483 . S
C223 H204 0.949 . S
C223 C222 1.376 . S
C223 C224 1.397 . S
C224 H205 0.950 . S
C224 C223 1.397 . S
C224 C225 1.391 . S
C225 C224 1.391 . S
C225 C226 1.405 . S
C226 H206 0.950 . S
C226 C225 1.405 . S
C226 C227 1.367 . S
C227 H207 0.950 . S
C227 C222 1.386 . S
C227 C226 1.367 . S
C228 C222 1.483 . S
C228 C229 1.382 . S
C228 C230 1.403 . S
C229 H208 0.950 . S
C229 C228 1.382 . S
C229 C245 1.411 . S
C230 C228 1.403 . S
C230 C231 1.489 . S
C230 C244 1.411 . S
C231 C230 1.489 . S
C231 C232 1.383 . S
C231 C236 1.382 . S
C232 H209 0.950 . S
C232 C231 1.383 . S
C232 C233 1.395 . S
C233 H210 0.950 . S
C233 C232 1.395 . S
C233 C234 1.288 . S
C234 C233 1.288 . S
C234 C235 1.392 . S
C235 H211 0.951 . S
C235 C234 1.392 . S
C235 C236 1.392 . S
C236 H212 0.949 . S
C236 C231 1.382 . S
C236 C235 1.392 . S
C237 C238 1.376 . S
C237 C242 1.386 . S
C237 C243 1.483 . S
C238 H213 0.949 . S
C238 C237 1.376 . S
C238 C239 1.397 . S
C239 H214 0.950 . S
C239 C238 1.397 . S
C239 C240 1.391 . S
C240 C239 1.391 . S
C240 C241 1.405 . S
C241 H215 0.950 . S
C241 C240 1.405 . S
C241 C242 1.367 . S
C242 H216 0.950 . S
C242 C237 1.386 . S
C242 C241 1.367 . S
C243 C237 1.483 . S
C243 C244 1.382 . S
C243 C245 1.403 . S
C244 H217 0.950 . S
C244 C230 1.411 . S
C244 C243 1.382 . S
C245 C229 1.411 . S
C245 C243 1.403 . S
C245 C246 1.489 . S
C246 C245 1.489 . S
C246 C247 1.383 . S
C246 C251 1.382 . S
C247 H218 0.950 . S
C247 C246 1.383 . S
C247 C248 1.395 . S
C248 H219 0.950 . S
C248 C247 1.395 . S
C248 C249 1.288 . S
C249 C248 1.288 . S
C249 C250 1.392 . S
C250 H220 0.951 . S
C250 C249 1.392 . S
C250 C251 1.392 . S
C251 H221 0.949 . S
C251 C246 1.382 . S
C251 C250 1.392 . S
H252 C258 0.930 . S
H253 C262 0.930 1_655 S
H254 C267 0.929 1_655 S
H255 C265 0.929 . S
H256 C260 0.929 1_655 S
H257 C266 0.929 . S
C258 H252 0.930 . S
C258 C259 1.367 . S
C258 C266 1.378 . S
C259 C258 1.367 . S
C259 C267 1.433 . S
C260 H256 0.929 1_455 S
C260 C262 1.378 . S
C260 C264 1.350 . S
C261 C264 1.463 . S
C261 C266 1.350 . S
C261 N269 1.427 . S
C262 H253 0.930 1_455 S
C262 C260 1.378 . S
C262 C263 1.367 . S
C263 C262 1.367 . S
C263 C265 1.433 . S
C264 C260 1.350 . S
C264 C261 1.463 . S
C264 N268 1.427 . S
C265 H255 0.929 . S
C265 C263 1.433 . S
C265 N268 1.384 . S
C266 H257 0.929 . S
C266 C258 1.378 . S
C266 C261 1.350 . S
C267 H254 0.929 1_455 S
C267 C259 1.433 . S
C267 N269 1.384 . S
N268 C264 1.427 . S
N268 C265 1.384 . S
N269 C261 1.427 . S
N269 C267 1.384 . S
H270 C276 0.930 1_565 S
H271 C280 0.930 . S
H272 C285 0.929 . S
H273 C283 0.929 1_565 S
H274 C278 0.929 . S
H275 C284 0.929 1_565 S
C276 H270 0.930 1_545 S
C276 C277 1.367 . S
C276 C284 1.378 . S
C277 C276 1.367 . S
C277 C285 1.433 . S
C278 H274 0.929 . S
C278 C280 1.378 . S
C278 C282 1.350 . S
C279 C282 1.463 . S
C279 C284 1.350 . S
C279 N287 1.427 . S
C280 H271 0.930 . S
C280 C278 1.378 . S
C280 C281 1.367 . S
C281 C280 1.367 . S
C281 C283 1.433 . S
C282 C278 1.350 . S
C282 C279 1.463 . S
C282 N286 1.427 . S
C283 H273 0.929 1_545 S
C283 C281 1.433 . S
C283 N286 1.384 . S
C284 H275 0.929 1_545 S
C284 C276 1.378 . S
C284 C279 1.350 . S
C285 H272 0.929 . S
C285 C277 1.433 . S
C285 N287 1.384 . S
N286 C282 1.427 . S
N286 C283 1.384 . S
N287 C279 1.427 . S
N287 C285 1.384 . S
H288 C294 0.930 . S
H289 C298 0.930 . S
H290 C303 0.929 . S
H291 C301 0.929 . S
H292 C296 0.929 . S
H293 C302 0.929 . S
C294 H288 0.930 . S
C294 C295 1.367 . S
C294 C302 1.378 . S
C295 C294 1.367 . S
C295 C303 1.433 . S
C296 H292 0.929 . S
C296 C298 1.378 . S
C296 C300 1.350 . S
C297 C300 1.463 . S
C297 C302 1.350 . S
C297 N305 1.427 . S
C298 H289 0.930 . S
C298 C296 1.378 . S
C298 C299 1.367 . S
C299 C298 1.367 . S
C299 C301 1.433 . S
C300 C296 1.350 . S
C300 C297 1.463 . S
C300 N304 1.427 . S
C301 H291 0.929 . S
C301 C299 1.433 . S
C301 N304 1.384 . S
C302 H293 0.929 . S
C302 C294 1.378 . S
C302 C297 1.350 . S
C303 H290 0.929 . S
C303 C295 1.433 . S
C303 N305 1.384 . S
N304 C300 1.427 . S
N304 C301 1.384 . S
N305 C297 1.427 . S
N305 C303 1.384 . S
H306 C312 0.930 1_655 S
H307 C316 0.930 . S
H308 C321 0.929 . S
H309 C319 0.929 . S
H310 C314 0.929 . S
H311 C320 0.929 1_655 S
C312 H306 0.930 1_455 S
C312 C313 1.367 . S
C312 C320 1.378 . S
C313 C312 1.367 . S
C313 C321 1.433 . S
C314 H310 0.929 . S
C314 C316 1.378 . S
C314 C318 1.350 . S
C315 C318 1.463 . S
C315 C320 1.350 . S
C315 N323 1.427 . S
C316 H307 0.930 . S
C316 C314 1.378 . S
C316 C317 1.367 . S
C317 C316 1.367 . S
C317 C319 1.433 1_455 S
C318 C314 1.350 . S
C318 C315 1.463 . S
C318 N322 1.427 . S
C319 H309 0.929 . S
C319 C317 1.433 1_655 S
C319 N322 1.384 1_655 S
C320 H311 0.929 1_455 S
C320 C312 1.378 . S
C320 C315 1.350 . S
C321 H308 0.929 . S
C321 C313 1.433 . S
C321 N323 1.384 . S
N322 C318 1.427 . S
N322 C319 1.384 1_455 S
N323 C315 1.427 . S
N323 C321 1.384 . S
H324 C330 0.930 1_565 S
H325 C334 0.930 . S
H326 C339 0.929 . S
H327 C337 0.929 . S
H328 C332 0.929 . S
H329 C338 0.929 1_565 S
C330 H324 0.930 1_545 S
C330 C331 1.367 . S
C330 C338 1.378 . S
C331 C330 1.367 . S
C331 C339 1.433 . S
C332 H328 0.929 . S
C332 C334 1.378 . S
C332 C336 1.350 . S
C333 C336 1.463 . S
C333 C338 1.350 . S
C333 N341 1.427 . S
C334 H325 0.930 . S
C334 C332 1.378 . S
C334 C335 1.367 . S
C335 C334 1.367 . S
C335 C337 1.433 . S
C336 C332 1.350 . S
C336 C333 1.463 . S
C336 N340 1.427 . S
C337 H327 0.929 . S
C337 C335 1.433 . S
C337 N340 1.384 . S
C338 H329 0.929 1_545 S
C338 C330 1.378 . S
C338 C333 1.350 . S
C339 H326 0.929 . S
C339 C331 1.433 . S
C339 N341 1.384 . S
N340 C336 1.427 . S
N340 C337 1.384 . S
N341 C333 1.427 . S
N341 C339 1.384 . S
H342 C348 0.930 . S
H343 C352 0.930 . S
H344 C357 0.929 . S
H345 C355 0.929 . S
H346 C350 0.929 . S
H347 C356 0.929 . S
C348 H342 0.930 . S
C348 C349 1.367 . S
C348 C356 1.378 . S
C349 C348 1.367 . S
C349 C357 1.433 . S
C350 H346 0.929 . S
C350 C352 1.378 . S
C350 C354 1.350 . S
C351 C354 1.463 . S
C351 C356 1.350 . S
C351 N359 1.427 . S
C352 H343 0.930 . S
C352 C350 1.378 . S
C352 C353 1.367 . S
C353 C352 1.367 . S
C353 C355 1.433 . S
C354 C350 1.350 . S
C354 C351 1.463 . S
C354 N358 1.427 . S
C355 H345 0.929 . S
C355 C353 1.433 . S
C355 N358 1.384 . S
C356 H347 0.929 . S
C356 C348 1.378 . S
C356 C351 1.350 . S
C357 H344 0.929 . S
C357 C349 1.433 . S
C357 N359 1.384 . S
N358 C354 1.427 . S
N358 C355 1.384 . S
N359 C351 1.427 . S
N359 C357 1.384 . S
H360 C366 0.930 . S
H361 C370 0.930 . S
H362 C375 0.929 . S
H363 C373 0.929 . S
H364 C368 0.929 . S
H365 C374 0.929 . S
C366 H360 0.930 . S
C366 C367 1.367 . S
C366 C374 1.378 . S
C367 C366 1.367 . S
C367 C375 1.433 . S
C368 H364 0.929 . S
C368 C370 1.378 . S
C368 C372 1.350 . S
C369 C372 1.463 . S
C369 C374 1.350 . S
C369 N377 1.427 . S
C370 H361 0.930 . S
C370 C368 1.378 . S
C370 C371 1.367 . S
C371 C370 1.367 . S
C371 C373 1.433 . S
C372 C368 1.350 . S
C372 C369 1.463 . S
C372 N376 1.427 . S
C373 H363 0.929 . S
C373 C371 1.433 . S
C373 N376 1.384 . S
C374 H365 0.929 . S
C374 C366 1.378 . S
C374 C369 1.350 . S
C375 H362 0.929 . S
C375 C367 1.433 . S
C375 N377 1.384 . S
N376 C372 1.427 . S
N376 C373 1.384 . S
N377 C369 1.427 . S
N377 C375 1.384 . S
H378 C384 0.922 1_554 S
H379 C388 0.930 . S
H380 C393 0.940 . S
H381 C391 0.929 . S
H382 C386 0.929 . S
H383 C392 0.929 . S
C384 H378 0.922 1_556 S
C384 C385 1.365 1_556 S
C384 C392 1.388 . S
C385 C384 1.365 1_554 S
C385 C393 1.433 1_554 S
C386 H382 0.929 . S
C386 C388 1.378 . S
C386 C390 1.350 . S
C387 C390 1.463 . S
C387 C392 1.350 . S
C387 N395 1.427 . S
C388 H379 0.930 . S
C388 C386 1.378 . S
C388 C389 1.367 . S
C389 C388 1.367 . S
C389 C391 1.433 . S
C390 C386 1.350 . S
C390 C387 1.463 . S
C390 N394 1.427 . S
C391 H381 0.929 . S
C391 C389 1.433 . S
C391 N394 1.384 . S
C392 H383 0.929 . S
C392 C384 1.388 . S
C392 C387 1.350 . S
C393 H380 0.940 . S
C393 C385 1.433 1_556 S
C393 N395 1.384 . S
N394 C390 1.427 . S
N394 C391 1.384 . S
N395 C387 1.427 . S
N395 C393 1.384 . S
H396 C402 0.930 . S
H397 C406 0.930 1_655 S
H398 C411 0.929 . S
H399 C409 0.929 . S
H400 C404 0.929 1_655 S
H401 C410 0.929 . S
C402 H396 0.930 . S
C402 C403 1.367 . S
C402 C410 1.378 . S
C403 C402 1.367 . S
C403 C411 1.433 1_455 S
C404 H400 0.929 1_455 S
C404 C406 1.378 . S
C404 C408 1.350 . S
C405 C408 1.463 . S
C405 C410 1.350 . S
C405 N413 1.427 1_455 S
C406 H397 0.930 1_455 S
C406 C404 1.378 . S
C406 C407 1.367 . S
C407 C406 1.367 . S
C407 C409 1.433 . S
C408 C404 1.350 . S
C408 C405 1.463 . S
C408 N412 1.427 . S
C409 H399 0.929 . S
C409 C407 1.433 . S
C409 N412 1.384 . S
C410 H401 0.929 . S
C410 C402 1.378 . S
C410 C405 1.350 . S
C411 H398 0.929 . S
C411 C403 1.433 1_655 S
C411 N413 1.384 . S
N412 C408 1.427 . S
N412 C409 1.384 . S
N413 C405 1.427 1_655 S
N413 C411 1.384 . S
H414 C420 0.930 1_565 S
H415 C424 0.930 . S
H416 C429 0.929 . S
H417 C427 0.929 . S
H418 C422 0.929 . S
H419 C428 0.929 1_565 S
C420 H414 0.930 1_545 S
C420 C421 1.367 . S
C420 C428 1.378 . S
C421 C420 1.367 . S
C421 C429 1.433 . S
C422 H418 0.929 . S
C422 C424 1.378 . S
C422 C426 1.350 . S
C423 C426 1.463 . S
C423 C428 1.350 . S
C423 N431 1.427 . S
C424 H415 0.930 . S
C424 C422 1.378 . S
C424 C425 1.367 . S
C425 C424 1.367 . S
C425 C427 1.433 . S
C426 C422 1.350 . S
C426 C423 1.463 . S
C426 N430 1.427 . S
C427 H417 0.929 . S
C427 C425 1.433 . S
C427 N430 1.384 . S
C428 H419 0.929 1_545 S
C428 C420 1.378 . S
C428 C423 1.350 . S
C429 H416 0.929 . S
C429 C421 1.433 . S
C429 N431 1.384 . S
N430 C426 1.427 . S
N430 C427 1.384 . S
N431 C423 1.427 . S
N431 C429 1.384 . S
H432 C438 0.930 . S
H433 C442 0.930 . S
H434 C447 0.929 . S
H435 C445 0.929 . S
H436 C440 0.929 . S
H437 C446 0.929 . S
C438 H432 0.930 . S
C438 C439 1.367 1_554 S
C438 C446 1.378 1_554 S
C439 C438 1.367 1_556 S
C439 C447 1.433 . S
C440 H436 0.929 . S
C440 C442 1.378 . S
C440 C444 1.350 . S
C441 C444 1.463 . S
C441 C446 1.350 . S
C441 N449 1.427 . S
C442 H433 0.930 . S
C442 C440 1.378 . S
C442 C443 1.367 . S
C443 C442 1.367 . S
C443 C445 1.433 . S
C444 C440 1.350 . S
C444 C441 1.463 . S
C444 N448 1.427 . S
C445 H435 0.929 . S
C445 C443 1.433 . S
C445 N448 1.384 . S
C446 H437 0.929 . S
C446 C438 1.378 1_556 S
C446 C441 1.350 . S
C447 H434 0.929 . S
C447 C439 1.433 . S
C447 N449 1.384 . S
N448 C444 1.427 . S
N448 C445 1.384 . S
N449 C441 1.427 . S
N449 C447 1.384 . S
H450 C456 0.930 . S
H451 C460 0.930 . S
H452 C465 0.929 . S
H453 C463 0.929 1_655 S
H454 C458 0.929 . S
H455 C464 0.927 1_655 S
C456 H450 0.930 . S
C456 C457 1.367 . S
C456 C464 1.378 . S
C457 C456 1.367 . S
C457 C465 1.433 . S
C458 H454 0.929 . S
C458 C460 1.378 . S
C458 C462 1.350 . S
C459 C462 1.463 . S
C459 C464 1.350 . S
C459 N467 1.427 . S
C460 H451 0.930 . S
C460 C458 1.378 . S
C460 C461 1.367 . S
C461 C460 1.367 . S
C461 C463 1.433 . S
C462 C458 1.350 . S
C462 C459 1.463 . S
C462 N466 1.427 . S
C463 H453 0.929 1_455 S
C463 C461 1.433 . S
C463 N466 1.384 . S
C464 H455 0.927 1_455 S
C464 C456 1.378 . S
C464 C459 1.350 . S
C465 H452 0.929 . S
C465 C457 1.433 . S
C465 N467 1.384 . S
N466 C462 1.427 . S
N466 C463 1.384 . S
N467 C459 1.427 . S
N467 C465 1.384 . S
C263 C129 1.494 . S
C259 C14 1.437 . S
C277 C40 1.510 . S
C281 C177 1.524 . S
C295 C76 1.491 . S
C299 C249 1.494 . S
C313 C3 1.483 . S
C317 C153 1.473 . S
C335 C201 1.513 . S
C331 C38 1.500 . S
C349 C74 1.475 . S
C353 C225 1.493 . S
C371 C186 1.465 . S
C367 C86 1.416 . S
C385 C2 1.475 . S
C389 C240 1.494 . S
C407 C144 1.483 . S
C403 C39 1.484 . S
C425 C192 1.483 . S
C421 C75 1.485 . S
C443 C234 1.503 . S
C439 C4 1.488 1_556 S
C457 C50 1.450 . S
C461 C138 1.489 . S
