# Generated by pormake.
# Topology ctn, (3,4)-cn, num edge types: 1
# Building blocks:
#     Node 0, Type 0, BuildingBlock: CUQRIR_clean_linker_1, # of connection points: 3
#     Node 1, Type 0, BuildingBlock: CUQRIR_clean_linker_1, # of connection points: 3
#     Node 2, Type 0, BuildingBlock: CUQRIR_clean_linker_1, # of connection points: 3
#     Node 3, Type 0, BuildingBlock: CUQRIR_clean_linker_1, # of connection points: 3
#     Node 4, Type 0, BuildingBlock: CUQRIR_clean_linker_1, # of connection points: 3
#     Node 5, Type 0, BuildingBlock: CUQRIR_clean_linker_1, # of connection points: 3
#     Node 6, Type 0, BuildingBlock: CUQRIR_clean_linker_1, # of connection points: 3
#     Node 7, Type 0, BuildingBlock: CUQRIR_clean_linker_1, # of connection points: 3
#     Node 8, Type 0, BuildingBlock: CUQRIR_clean_linker_1, # of connection points: 3
#     Node 9, Type 0, BuildingBlock: CUQRIR_clean_linker_1, # of connection points: 3
#     Node 10, Type 0, BuildingBlock: CUQRIR_clean_linker_1, # of connection points: 3
#     Node 11, Type 0, BuildingBlock: CUQRIR_clean_linker_1, # of connection points: 3
#     Node 12, Type 0, BuildingBlock: CUQRIR_clean_linker_1, # of connection points: 3
#     Node 13, Type 0, BuildingBlock: CUQRIR_clean_linker_1, # of connection points: 3
#     Node 14, Type 0, BuildingBlock: CUQRIR_clean_linker_1, # of connection points: 3
#     Node 15, Type 0, BuildingBlock: CUQRIR_clean_linker_1, # of connection points: 3
#     Node 16, Type 1, BuildingBlock: QUQFOY_clean_sbu_1, # of connection points: 4
#     Node 17, Type 1, BuildingBlock: QUQFOY_clean_sbu_1, # of connection points: 4
#     Node 18, Type 1, BuildingBlock: QUQFOY_clean_sbu_1, # of connection points: 4
#     Node 19, Type 1, BuildingBlock: QUQFOY_clean_sbu_1, # of connection points: 4
#     Node 20, Type 1, BuildingBlock: QUQFOY_clean_sbu_1, # of connection points: 4
#     Node 21, Type 1, BuildingBlock: QUQFOY_clean_sbu_1, # of connection points: 4
#     Node 22, Type 1, BuildingBlock: QUQFOY_clean_sbu_1, # of connection points: 4
#     Node 23, Type 1, BuildingBlock: QUQFOY_clean_sbu_1, # of connection points: 4
#     Node 24, Type 1, BuildingBlock: QUQFOY_clean_sbu_1, # of connection points: 4
#     Node 25, Type 1, BuildingBlock: QUQFOY_clean_sbu_1, # of connection points: 4
#     Node 26, Type 1, BuildingBlock: QUQFOY_clean_sbu_1, # of connection points: 4
#     Node 27, Type 1, BuildingBlock: QUQFOY_clean_sbu_1, # of connection points: 4
#     Edge 28, Type (0, 1), BuildingBlock: AJUNOK_clean_linker_0, # of connection points: 2
#     Edge 29, Type (0, 1), BuildingBlock: AJUNOK_clean_linker_0, # of connection points: 2
#     Edge 30, Type (0, 1), BuildingBlock: AJUNOK_clean_linker_0, # of connection points: 2
#     Edge 31, Type (0, 1), BuildingBlock: AJUNOK_clean_linker_0, # of connection points: 2
#     Edge 32, Type (0, 1), BuildingBlock: AJUNOK_clean_linker_0, # of connection points: 2
#     Edge 33, Type (0, 1), BuildingBlock: AJUNOK_clean_linker_0, # of connection points: 2
#     Edge 34, Type (0, 1), BuildingBlock: AJUNOK_clean_linker_0, # of connection points: 2
#     Edge 35, Type (0, 1), BuildingBlock: AJUNOK_clean_linker_0, # of connection points: 2
#     Edge 36, Type (0, 1), BuildingBlock: AJUNOK_clean_linker_0, # of connection points: 2
#     Edge 37, Type (0, 1), BuildingBlock: AJUNOK_clean_linker_0, # of connection points: 2
#     Edge 38, Type (0, 1), BuildingBlock: AJUNOK_clean_linker_0, # of connection points: 2
#     Edge 39, Type (0, 1), BuildingBlock: AJUNOK_clean_linker_0, # of connection points: 2
#     Edge 40, Type (0, 1), BuildingBlock: AJUNOK_clean_linker_0, # of connection points: 2
#     Edge 41, Type (0, 1), BuildingBlock: AJUNOK_clean_linker_0, # of connection points: 2
#     Edge 42, Type (0, 1), BuildingBlock: AJUNOK_clean_linker_0, # of connection points: 2
#     Edge 43, Type (0, 1), BuildingBlock: AJUNOK_clean_linker_0, # of connection points: 2
#     Edge 44, Type (0, 1), BuildingBlock: AJUNOK_clean_linker_0, # of connection points: 2
#     Edge 45, Type (0, 1), BuildingBlock: AJUNOK_clean_linker_0, # of connection points: 2
#     Edge 46, Type (0, 1), BuildingBlock: AJUNOK_clean_linker_0, # of connection points: 2
#     Edge 47, Type (0, 1), BuildingBlock: AJUNOK_clean_linker_0, # of connection points: 2
#     Edge 48, Type (0, 1), BuildingBlock: AJUNOK_clean_linker_0, # of connection points: 2
#     Edge 49, Type (0, 1), BuildingBlock: AJUNOK_clean_linker_0, # of connection points: 2
#     Edge 50, Type (0, 1), BuildingBlock: AJUNOK_clean_linker_0, # of connection points: 2
#     Edge 51, Type (0, 1), BuildingBlock: AJUNOK_clean_linker_0, # of connection points: 2
#     Edge 52, Type (0, 1), BuildingBlock: AJUNOK_clean_linker_0, # of connection points: 2
#     Edge 53, Type (0, 1), BuildingBlock: AJUNOK_clean_linker_0, # of connection points: 2
#     Edge 54, Type (0, 1), BuildingBlock: AJUNOK_clean_linker_0, # of connection points: 2
#     Edge 55, Type (0, 1), BuildingBlock: AJUNOK_clean_linker_0, # of connection points: 2
#     Edge 56, Type (0, 1), BuildingBlock: AJUNOK_clean_linker_0, # of connection points: 2
#     Edge 57, Type (0, 1), BuildingBlock: AJUNOK_clean_linker_0, # of connection points: 2
#     Edge 58, Type (0, 1), BuildingBlock: AJUNOK_clean_linker_0, # of connection points: 2
#     Edge 59, Type (0, 1), BuildingBlock: AJUNOK_clean_linker_0, # of connection points: 2
#     Edge 60, Type (0, 1), BuildingBlock: AJUNOK_clean_linker_0, # of connection points: 2
#     Edge 61, Type (0, 1), BuildingBlock: AJUNOK_clean_linker_0, # of connection points: 2
#     Edge 62, Type (0, 1), BuildingBlock: AJUNOK_clean_linker_0, # of connection points: 2
#     Edge 63, Type (0, 1), BuildingBlock: AJUNOK_clean_linker_0, # of connection points: 2
#     Edge 64, Type (0, 1), BuildingBlock: AJUNOK_clean_linker_0, # of connection points: 2
#     Edge 65, Type (0, 1), BuildingBlock: AJUNOK_clean_linker_0, # of connection points: 2
#     Edge 66, Type (0, 1), BuildingBlock: AJUNOK_clean_linker_0, # of connection points: 2
#     Edge 67, Type (0, 1), BuildingBlock: AJUNOK_clean_linker_0, # of connection points: 2
#     Edge 68, Type (0, 1), BuildingBlock: AJUNOK_clean_linker_0, # of connection points: 2
#     Edge 69, Type (0, 1), BuildingBlock: AJUNOK_clean_linker_0, # of connection points: 2
#     Edge 70, Type (0, 1), BuildingBlock: AJUNOK_clean_linker_0, # of connection points: 2
#     Edge 71, Type (0, 1), BuildingBlock: AJUNOK_clean_linker_0, # of connection points: 2
#     Edge 72, Type (0, 1), BuildingBlock: AJUNOK_clean_linker_0, # of connection points: 2
#     Edge 73, Type (0, 1), BuildingBlock: AJUNOK_clean_linker_0, # of connection points: 2
#     Edge 74, Type (0, 1), BuildingBlock: AJUNOK_clean_linker_0, # of connection points: 2
#     Edge 75, Type (0, 1), BuildingBlock: AJUNOK_clean_linker_0, # of connection points: 2
# Relax obj value: 0.113
# Max RMSD: 0.207
# Mean RMSD: 0.152
data_MOF--net-ctn--node1-QUQFOY_clean_sbu_1--node2-CUQRIR_clean_linker_1--edge1-AJUNOK_clean_linker_0
_symmetry_space_group_name_H-M    P1
_symmetry_Int_Tables_number       1
_symmetry_cell_setting            triclinic
loop_
_symmetry_equiv_pos_as_xyz
'x, y, z'
_cell_length_a     37.499975
_cell_length_b     34.266453
_cell_length_c     35.567489
_cell_angle_alpha  100.92301
_cell_angle_beta   88.434409
_cell_angle_gamma 98.73704
loop_
_atom_site_label
_atom_site_type_symbol
_atom_site_fract_x
_atom_site_fract_y
_atom_site_fract_z
_atom_type_partial_charge
C0 C 0.05813 0.06623 0.12035 0.0
N1 N 0.06884 0.07126 0.08464 0.0
N2 N 0.02737 0.08175 0.13012 0.0
C3 C 0.07582 0.04266 0.14432 0.0
C4 C 0.01955 0.09633 0.09917 0.0
N5 N 0.04434 0.08945 0.0712 0.0
C6 C 0.98637 0.11521 0.09555 0.0
H7 H 0.07762 0.01218 0.12761 0.0
H8 H 0.06103 0.04002 0.17135 0.0
H9 H 0.10367 0.05786 0.15174 0.0
H10 H 0.97613 0.12805 0.12403 0.0
H11 H 0.96491 0.09187 0.0808 0.0
H12 H 0.99219 0.13934 0.07841 0.0
C13 C 0.27567 0.75744 0.25192 0.0
N14 N 0.28949 0.73693 0.27558 0.0
N15 N 0.2998 0.7894 0.2462 0.0
C16 C 0.23928 0.74496 0.23281 0.0
C17 C 0.32904 0.78707 0.2668 0.0
N18 N 0.32284 0.75503 0.28465 0.0
C19 C 0.36306 0.81706 0.27045 0.0
H20 H 0.2313 0.7119 0.22793 0.0
H21 H 0.23908 0.75515 0.20504 0.0
H22 H 0.21883 0.75878 0.25183 0.0
H23 H 0.35698 0.84719 0.26802 0.0
H24 H 0.38172 0.80759 0.24691 0.0
H25 H 0.37671 0.81894 0.29816 0.0
C26 C 0.96577 0.52566 0.0992 0.0
N27 N 0.98416 0.49493 0.10164 0.0
N28 N 0.93862 0.51332 0.07333 0.0
C29 C 0.97448 0.56791 0.12143 0.0
C30 C 0.94059 0.47386 0.06082 0.0
N31 N 0.96797 0.46257 0.07818 0.0
C32 C 0.91681 0.44657 0.03023 0.0
H33 H 0.94952 0.58122 0.12905 0.0
H34 H 0.99105 0.58668 0.10327 0.0
H35 H 0.98956 0.5689 0.14806 0.0
H36 H 0.93253 0.44101 0.00337 0.0
H37 H 0.89267 0.45979 0.02476 0.0
H38 H 0.9079 0.41713 0.03875 0.0
C39 C 0.70323 0.75469 0.2546 0.0
N40 N 0.73129 0.77897 0.24238 0.0
N41 N 0.6927 0.77113 0.29003 0.0
C42 C 0.68337 0.71762 0.23013 0.0
C43 C 0.71505 0.80637 0.29864 0.0
N44 N 0.73806 0.81155 0.2695 0.0
C45 C 0.71272 0.83669 0.33494 0.0
H46 H 0.66959 0.72643 0.2065 0.0
H47 H 0.66311 0.70109 0.247 0.0
H48 H 0.70279 0.69758 0.21704 0.0
H49 H 0.70471 0.82114 0.35923 0.0
H50 H 0.69169 0.85532 0.33159 0.0
H51 H 0.73885 0.85664 0.34159 0.0
C52 C 0.01671 0.00679 0.52671 0.0
N53 N 0.04943 0.00846 0.54294 0.0
N54 N 0.01973 0.02718 0.49747 0.0
C55 C 0.98242 0.98176 0.53673 0.0
C56 C 0.0554 0.04058 0.49577 0.0
N57 N 0.07361 0.02892 0.52302 0.0
C58 C 0.07253 0.06509 0.46727 0.0
H59 H 0.96325 0.97347 0.51231 0.0
H60 H 0.96928 0.99937 0.56116 0.0
H61 H 0.98819 0.95389 0.54537 0.0
H62 H 0.09508 0.08787 0.4806 0.0
H63 H 0.05253 0.08048 0.45564 0.0
H64 H 0.0837 0.04484 0.44325 0.0
C65 C 0.1924 0.761 0.83378 0.0
N66 N 0.21343 0.74451 0.85483 0.0
N67 N 0.19229 0.7427 0.79666 0.0
C68 C 0.17109 0.79447 0.84941 0.0
C69 C 0.2142 0.71456 0.79574 0.0
N70 N 0.22784 0.71634 0.83105 0.0
C71 C 0.22051 0.68383 0.76099 0.0
H72 H 0.1433 0.78125 0.85605 0.0
H73 H 0.16905 0.81373 0.82806 0.0
H74 H 0.18357 0.81365 0.87582 0.0
H75 H 0.24804 0.69194 0.74991 0.0
H76 H 0.20085 0.68246 0.73788 0.0
H77 H 0.21893 0.65377 0.76883 0.0
C78 C 0.94395 0.55563 0.45151 0.0
N79 N 0.97063 0.58736 0.45432 0.0
N80 N 0.91491 0.56612 0.47197 0.0
C81 C 0.94649 0.51399 0.4298 0.0
C82 C 0.92477 0.60537 0.4873 0.0
N83 N 0.95857 0.61861 0.47613 0.0
C84 C 0.90363 0.62924 0.51766 0.0
H85 H 0.91926 0.4973 0.42151 0.0
H86 H 0.95927 0.49745 0.4484 0.0
H87 H 0.96337 0.51522 0.40381 0.0
H88 H 0.87917 0.61087 0.52672 0.0
H89 H 0.89534 0.65454 0.50636 0.0
H90 H 0.92084 0.64228 0.54319 0.0
C91 C 0.7825 0.81912 0.85004 0.0
N92 N 0.81085 0.79888 0.84052 0.0
N93 N 0.78136 0.84675 0.82775 0.0
C94 C 0.75519 0.81097 0.8805 0.0
C95 C 0.80993 0.84265 0.80409 0.0
N96 N 0.82788 0.8133 0.81143 0.0
C97 C 0.82185 0.86961 0.77578 0.0
H98 H 0.72974 0.82233 0.87611 0.0
H99 H 0.76647 0.82616 0.90896 0.0
H100 H 0.74928 0.77825 0.88055 0.0
H101 H 0.8516 0.87357 0.77226 0.0
H102 H 0.81331 0.89957 0.78502 0.0
H103 H 0.80921 0.85578 0.74761 0.0
C104 C 0.28011 0.31767 0.34833 0.0
N105 N 0.30874 0.29788 0.33883 0.0
N106 N 0.27925 0.34613 0.32689 0.0
C107 C 0.25272 0.30889 0.37852 0.0
C108 C 0.30833 0.34306 0.30382 0.0
N109 N 0.32636 0.31359 0.31072 0.0
C110 C 0.32064 0.3711 0.27657 0.0
H111 H 0.24693 0.27608 0.3781 0.0
H112 H 0.22723 0.32023 0.37423 0.0
H113 H 0.26383 0.3237 0.40714 0.0
H114 H 0.35041 0.37506 0.27329 0.0
H115 H 0.31214 0.40097 0.28664 0.0
H116 H 0.30817 0.35822 0.24812 0.0
C117 C 0.46369 0.02358 0.59889 0.0
N118 N 0.48104 0.99227 0.60206 0.0
N119 N 0.43663 0.01172 0.57288 0.0
C120 C 0.47375 0.066 0.62031 0.0
C121 C 0.43766 0.97199 0.56086 0.0
N122 N 0.46441 0.96004 0.5787 0.0
C123 C 0.41385 0.94514 0.53 0.0
H124 H 0.45047 0.08273 0.6231 0.0
H125 H 0.49525 0.08191 0.60431 0.0
H126 H 0.48409 0.06624 0.6493 0.0
H127 H 0.43013 0.93794 0.50377 0.0
H128 H 0.39083 0.95945 0.52319 0.0
H129 H 0.4031 0.91642 0.53908 0.0
C130 C 0.20361 0.25463 0.7543 0.0
N131 N 0.23152 0.2792 0.74222 0.0
N132 N 0.19287 0.27085 0.78971 0.0
C133 C 0.18407 0.21744 0.72971 0.0
C134 C 0.21493 0.30629 0.79844 0.0
N135 N 0.23795 0.31179 0.76938 0.0
C136 C 0.21226 0.33646 0.83478 0.0
H137 H 0.17021 0.22615 0.70607 0.0
H138 H 0.16391 0.20067 0.74648 0.0
H139 H 0.20369 0.19765 0.71664 0.0
H140 H 0.20478 0.32075 0.85907 0.0
H141 H 0.19069 0.35446 0.83159 0.0
H142 H 0.23809 0.357 0.84134 0.0
C143 C 0.77561 0.25866 0.75271 0.0
N144 N 0.78873 0.23748 0.77631 0.0
N145 N 0.79927 0.29184 0.7495 0.0
C146 C 0.74082 0.24567 0.73057 0.0
C147 C 0.82725 0.29012 0.77215 0.0
N148 N 0.8208 0.25716 0.78863 0.0
C149 C 0.86095 0.32052 0.7779 0.0
H150 H 0.74697 0.23312 0.7004 0.0
H151 H 0.72668 0.2718 0.73052 0.0
H152 H 0.72254 0.22263 0.74276 0.0
H153 H 0.85574 0.3499 0.77219 0.0
H154 H 0.88206 0.30981 0.75781 0.0
H155 H 0.87132 0.32435 0.80751 0.0
C156 C 0.5578 0.56545 0.62024 0.0
N157 N 0.568 0.5694 0.58413 0.0
N158 N 0.52756 0.58195 0.63032 0.0
C159 C 0.57558 0.54226 0.6445 0.0
C160 C 0.5194 0.59576 0.59901 0.0
N161 N 0.5436 0.58771 0.57067 0.0
C162 C 0.48618 0.6146 0.59526 0.0
H163 H 0.57663 0.51136 0.62838 0.0
H164 H 0.56135 0.54071 0.67203 0.0
H165 H 0.60371 0.55702 0.65101 0.0
H166 H 0.4915 0.63746 0.5767 0.0
H167 H 0.47669 0.62895 0.62354 0.0
H168 H 0.46424 0.59088 0.5821 0.0
C169 C 0.51612 0.50634 0.0267 0.0
N170 N 0.54911 0.50755 0.04211 0.0
N171 N 0.51866 0.52672 0.9975 0.0
C172 C 0.48192 0.48179 0.03757 0.0
C173 C 0.55429 0.53985 0.99506 0.0
N174 N 0.573 0.52788 0.02172 0.0
C175 C 0.57086 0.56407 0.9661 0.0
H176 H 0.48734 0.452 0.0419 0.0
H177 H 0.46059 0.47734 0.01552 0.0
H178 H 0.47176 0.49759 0.06498 0.0
H179 H 0.59314 0.58737 0.97923 0.0
H180 H 0.55045 0.57872 0.95421 0.0
H181 H 0.58232 0.54384 0.94228 0.0
C182 C 0.69417 0.26163 0.33398 0.0
N183 N 0.71709 0.24647 0.35407 0.0
N184 N 0.69303 0.24308 0.29692 0.0
C185 C 0.67192 0.29386 0.35065 0.0
C186 C 0.71626 0.21613 0.295 0.0
N187 N 0.73167 0.21892 0.32966 0.0
C188 C 0.72196 0.18534 0.26003 0.0
H189 H 0.64617 0.27959 0.36159 0.0
H190 H 0.66543 0.3108 0.32876 0.0
H191 H 0.68636 0.31536 0.37467 0.0
H192 H 0.69942 0.18059 0.23934 0.0
H193 H 0.72503 0.15633 0.2682 0.0
H194 H 0.74712 0.19606 0.24555 0.0
C195 C 0.44426 0.05363 0.95031 0.0
N196 N 0.47164 0.08477 0.95416 0.0
N197 N 0.41554 0.06416 0.97133 0.0
C198 C 0.44552 0.01254 0.92666 0.0
C199 C 0.42623 0.10284 0.98805 0.0
N200 N 0.46024 0.11573 0.97723 0.0
C201 C 0.4056 0.12626 0.01924 0.0
H202 H 0.46329 0.01432 0.90139 0.0
H203 H 0.41802 0.99779 0.91703 0.0
H204 H 0.45638 0.9937 0.94444 0.0
H205 H 0.38029 0.10833 0.02699 0.0
H206 H 0.39885 0.15316 0.00951 0.0
H207 H 0.42269 0.13688 0.04524 0.0
O208 O 0.25803 0.84953 0.02141 0.0
Cd209 Cd 0.27116 0.89573 0.06705 0.0
Cd210 Cd 0.21835 0.92647 0.02595 0.0
O211 O 0.20714 0.86565 1.00312 0.0
O212 O 0.3044 0.87216 0.09642 0.0
O213 O 0.25342 0.89035 0.12048 0.0
C214 C 0.28189 0.87452 0.12441 0.0
C215 C 0.1732 0.96786 0.03687 0.0
C216 C 0.2297 0.84104 1.001 0.0
C217 C 0.29721 0.96287 0.02636 0.0
O218 O 0.26654 0.95629 0.01019 0.0
O219 O 0.30312 0.94522 0.05346 0.0
O220 O 0.1812 0.95158 1.00264 0.0
O221 O 0.18942 0.95907 0.06505 0.0
O222 O 0.1968 0.57888 0.32838 0.0
Cd223 Cd 0.16253 0.52829 0.33616 0.0
Cd224 Cd 0.12387 0.54947 0.27727 0.0
O225 O 0.17413 0.58339 0.27291 0.0
O226 O 0.19159 0.5002 0.36567 0.0
O227 O 0.17163 0.47415 0.30712 0.0
C228 C 0.19018 0.47138 0.33637 0.0
C229 C 0.09055 0.52569 0.21996 0.0
C230 C 0.19835 0.59446 0.29865 0.0
C231 C 0.09269 0.55727 0.35845 0.0
O232 O 0.09264 0.56625 0.32529 0.0
O233 O 0.11669 0.53813 0.36742 0.0
O234 O 0.0972 0.56332 0.23471 0.0
O235 O 0.10301 0.50086 0.23742 0.0
O236 O 0.78889 0.71014 0.97873 0.0
Cd237 Cd 0.76772 0.68587 0.02603 0.0
Cd238 Cd 0.79307 0.61901 0.98151 0.0
O239 O 0.80332 0.65595 0.94083 0.0
O240 O 0.75005 0.73179 0.061 0.0
O241 O 0.7926 0.70034 0.0775 0.0
C242 C 0.77137 0.72698 0.08697 0.0
C243 C 0.84026 0.59583 0.00777 0.0
C244 C 0.80096 0.69328 0.94685 0.0
C245 C 0.71731 0.60432 0.00864 0.0
O246 O 0.74186 0.58864 0.98853 0.0
O247 O 0.72269 0.64147 0.02376 0.0
O248 O 0.82799 0.57975 0.97392 0.0
O249 O 0.82621 0.62591 0.02657 0.0
O250 O 0.92485 0.0222 0.34868 0.0
Cd251 Cd 0.89756 0.01862 0.29909 0.0
Cd252 Cd 0.84535 0.04262 0.35028 0.0
O253 O 0.88415 0.04225 0.39087 0.0
O254 O 0.93473 0.00622 0.26014 0.0
O255 O 0.90979 0.0617 0.26728 0.0
C256 C 0.93201 0.03938 0.24936 0.0
C257 C 0.81878 0.10006 0.35048 0.0
C258 C 0.91522 0.03221 0.38319 0.0
C259 C 0.82804 0.96299 0.29605 0.0
O260 O 0.81695 0.98839 0.32294 0.0
O261 O 0.85957 0.96932 0.2827 0.0
O262 O 0.80883 0.07642 0.37433 0.0
O263 O 0.84464 0.09145 0.32704 0.0
O264 O 0.28917 0.21093 0.47888 0.0
Cd265 Cd 0.26831 0.18659 0.52614 0.0
Cd266 Cd 0.29294 0.1195 0.48076 0.0
O267 O 0.30306 0.15687 0.44032 0.0
O268 O 0.25067 0.23252 0.56104 0.0
O269 O 0.29335 0.20123 0.57751 0.0
C270 C 0.27209 0.22782 0.58697 0.0
C271 C 0.34006 0.09601 0.50685 0.0
C272 C 0.30108 0.19431 0.44683 0.0
C273 C 0.21755 0.1052 0.50909 0.0
O274 O 0.24172 0.08937 0.48845 0.0
O275 O 0.2233 0.14233 0.52421 0.0
O276 O 0.32774 0.08007 0.47299 0.0
O277 O 0.32622 0.12623 0.52567 0.0
O278 O 0.42356 0.52064 0.84779 0.0
Cd279 Cd 0.39641 0.51956 0.79871 0.0
Cd280 Cd 0.34467 0.54231 0.85134 0.0
O281 O 0.38409 0.54144 0.89116 0.0
O282 O 0.43364 0.50771 0.75964 0.0
O283 O 0.40978 0.56395 0.76854 0.0
C284 C 0.43194 0.54179 0.75026 0.0
C285 C 0.31593 0.59862 0.85338 0.0
C286 C 0.41457 0.53016 0.88255 0.0
C287 C 0.32718 0.46365 0.79546 0.0
O288 O 0.31667 0.48805 0.8236 0.0
O289 O 0.35817 0.47082 0.78108 0.0
O290 O 0.30746 0.57426 0.87687 0.0
O291 O 0.34191 0.59169 0.82952 0.0
O292 O 0.76034 0.35064 0.52257 0.0
Cd293 Cd 0.77258 0.39666 0.56855 0.0
Cd294 Cd 0.71918 0.42631 0.5268 0.0
O295 O 0.70952 0.36569 0.5029 0.0
O296 O 0.80687 0.3734 0.5969 0.0
O297 O 0.75583 0.39012 0.62208 0.0
C298 C 0.78472 0.3747 0.62518 0.0
C299 C 0.67319 0.46662 0.53732 0.0
C300 C 0.73272 0.34184 0.50109 0.0
C301 C 0.79766 0.4644 0.52823 0.0
O302 O 0.76706 0.45726 0.51186 0.0
O303 O 0.8038 0.44682 0.55531 0.0
O304 O 0.6818 0.45083 0.50316 0.0
O305 O 0.68922 0.45787 0.56565 0.0
O306 O 0.69734 0.07759 0.8251 0.0
Cd307 Cd 0.66319 0.02722 0.83376 0.0
Cd308 Cd 0.62338 0.04852 0.77574 0.0
O309 O 0.67376 0.08162 0.76998 0.0
O310 O 0.69277 1.00018 0.86374 0.0
O311 O 0.67257 0.97282 0.80557 0.0
C312 C 0.69139 0.97088 0.8349 0.0
C313 C 0.58882 0.02354 0.71945 0.0
C314 C 0.69855 0.09274 0.79513 0.0
C315 C 0.59348 0.0563 0.85724 0.0
O316 O 0.593 0.06584 0.82435 0.0
O317 O 0.61761 0.03692 0.86549 0.0
O318 O 0.59582 0.06138 0.73329 0.0
O319 O 0.60191 0.99925 0.73709 0.0
O320 O 0.97395 0.27964 0.99495 0.0
Cd321 Cd 0.96992 0.22652 0.95514 0.0
Cd322 Cd 0.00854 0.2702 0.91048 0.0
O323 O 0.00979 0.3146 0.95925 0.0
O324 O 0.96594 0.17939 0.98139 0.0
O325 O 0.01431 0.19927 0.94882 0.0
C326 C 0.99836 0.17517 0.96995 0.0
C327 C 0.06125 0.26471 0.87477 0.0
C328 C 0.99283 0.31257 0.99049 0.0
C329 C 0.93278 0.23378 0.88438 0.0
O330 O 0.96202 0.25556 0.87814 0.0
O331 O 0.92949 0.21777 0.914 0.0
O332 O 0.04318 0.29376 0.87462 0.0
O333 O 0.0499 0.23898 0.89619 0.0
O334 O 0.47172 0.77703 0.4945 0.0
Cd335 Cd 0.46899 0.72433 0.45422 0.0
Cd336 Cd 0.50844 0.76928 0.41131 0.0
O337 O 0.50871 0.81292 0.46055 0.0
O338 O 0.46432 0.67669 0.47984 0.0
O339 O 0.5136 0.69737 0.449 0.0
C340 C 0.49698 0.67266 0.46917 0.0
C341 C 0.56151 0.76474 0.37606 0.0
C342 C 0.49073 0.81024 0.49107 0.0
C343 C 0.43338 0.73252 0.38296 0.0
O344 O 0.46256 0.75505 0.37799 0.0
O345 O 0.42957 0.71559 0.412 0.0
O346 O 0.54345 0.79391 0.37647 0.0
O347 O 0.55004 0.73843 0.39686 0.0
O348 O 0.97611 0.77818 0.7163 0.0
Cd349 Cd 0.02019 0.77117 0.68036 0.0
Cd350 Cd 0.99314 0.82801 0.64585 0.0
O351 O 0.95432 0.82264 0.68927 0.0
O352 O 0.04568 0.7352 0.7039 0.0
O353 O 0.0704 0.79647 0.69804 0.0
C354 C 0.07317 0.76311 0.70881 0.0
C355 C 0.02142 0.89002 0.6324 0.0
C356 C 0.95236 0.80057 0.71467 0.0
C357 C 1.00101 0.74889 0.59564 0.0
O358 O 0.98976 0.78244 0.59814 0.0
O359 O 0.01359 0.73959 0.62499 0.0
O360 O 0.98762 0.87749 0.62559 0.0
O361 O 0.0392 0.86851 0.64892 0.0
O362 O 0.47533 0.27967 0.2169 0.0
Cd363 Cd 0.51972 0.27168 0.18177 0.0
Cd364 Cd 0.49199 0.32629 0.14419 0.0
O365 O 0.45248 0.32126 0.18703 0.0
O366 O 0.54322 0.23488 0.2063 0.0
O367 O 0.5701 0.29527 0.20035 0.0
C368 C 0.57141 0.26178 0.21151 0.0
C369 C 0.52066 0.388 0.13053 0.0
C370 C 0.4509 0.30075 0.21367 0.0
C371 C 0.50198 0.24676 0.0965 0.0
O372 O 0.49027 0.27981 0.09728 0.0
O373 O 0.51384 0.23893 0.12688 0.0
O374 O 0.4871 0.37514 0.1226 0.0
O375 O 0.53789 0.36701 0.14828 0.0
C376 C 0.25353 0.77693 0.90864 0.0
C377 C 0.21961 0.75679 0.89533 0.0
C378 C 0.25726 0.80131 0.94514 0.0
C379 C 0.22695 0.8067 0.96881 0.0
H380 H 0.27649 0.77673 0.88951 0.0
H381 H 0.28332 0.81893 0.9533 0.0
S382 S 0.13403 0.75308 0.94981 0.0
N383 N 0.15685 0.73727 0.91093 0.0
N384 N 0.16332 0.78493 0.9788 0.0
C385 C 0.19372 0.7834 0.95725 0.0
C386 C 0.19024 0.75774 0.92066 0.0
C387 C 0.01133 0.60329 0.40249 0.0
C388 C 0.00513 0.58711 0.43582 0.0
C389 C 0.04032 0.59441 0.3782 0.0
C390 C 0.06418 0.569 0.38651 0.0
H391 H 0.99236 0.62096 0.39408 0.0
H392 H 0.04331 0.60657 0.35213 0.0
S393 S 0.06052 0.52223 0.47297 0.0
N394 N 0.02573 0.54707 0.47762 0.0
N395 N 0.08058 0.53035 0.43265 0.0
C396 C 0.05916 0.55452 0.42116 0.0
C397 C 0.02954 0.56357 0.44564 0.0
C398 C 0.83108 0.78419 0.90043 0.0
C399 C 0.82099 0.77031 0.86182 0.0
C400 C 0.82613 0.75862 0.92731 0.0
C401 C 0.81155 0.71775 0.91659 0.0
H402 H 0.83954 0.81604 0.91055 0.0
H403 H 0.83218 0.77145 0.9571 0.0
S404 S 0.78474 0.66549 0.81803 0.0
N405 N 0.79833 0.71261 0.81365 0.0
N406 N 0.79046 0.66378 0.86358 0.0
C407 C 0.80445 0.70265 0.87737 0.0
C408 C 0.80891 0.72907 0.85013 0.0
C409 C 0.99724 0.0113 0.43148 0.0
C410 C 0.99267 0.02817 0.47002 0.0
C411 C 0.9719 0.01274 0.40394 0.0
C412 C 0.94081 0.03099 0.4139 0.0
H413 H 0.0207 0.99691 0.42268 0.0
H414 H 0.97686 0.99927 0.37455 0.0
S415 S 0.91677 0.07935 0.51184 0.0
N416 N 0.95543 0.06351 0.5174 0.0
N417 N 0.90704 0.06608 0.46571 0.0
C418 C 0.93577 0.04758 0.45271 0.0
C419 C 0.96187 0.04617 0.48076 0.0
C420 C 0.27032 0.24367 0.69523 0.0
C421 C 0.24782 0.27322 0.70496 0.0
C422 C 0.28065 0.2314 0.65713 0.0
C423 C 0.26832 0.24794 0.62741 0.0
H424 H 0.27836 0.22857 0.71705 0.0
H425 H 0.29641 0.20695 0.65071 0.0
S426 S 0.21196 0.32978 0.63952 0.0
N427 N 0.216 0.32118 0.68323 0.0
N428 N 0.2352 0.29859 0.61143 0.0
C429 C 0.2477 0.27954 0.63744 0.0
C430 C 0.23744 0.29204 0.6763 0.0
C431 C 0.48653 0.53364 0.65948 0.0
C432 C 0.50302 0.57331 0.66024 0.0
C433 C 0.46306 0.52403 0.68859 0.0
C434 C 0.45474 0.55397 0.71898 0.0
H435 H 0.49226 0.50993 0.63635 0.0
H436 H 0.45135 0.49288 0.68728 0.0
S437 S 0.49095 0.66257 0.73342 0.0
N438 N 0.51003 0.6427 0.69333 0.0
N439 N 0.46459 0.62502 0.74788 0.0
C440 C 0.47043 0.59401 0.71955 0.0
C441 C 0.49497 0.6036 0.69017 0.0
C442 C 0.77231 0.34138 0.72162 0.0
C443 C 0.79865 0.31615 0.72074 0.0
C444 C 0.7686 0.36127 0.69114 0.0
C445 C 0.79128 0.3567 0.65882 0.0
H446 H 0.75393 0.34485 0.74562 0.0
H447 H 0.74734 0.37965 0.6926 0.0
S448 S 0.865 0.29397 0.64374 0.0
N449 N 0.84775 0.28765 0.68573 0.0
N450 N 0.84183 0.32543 0.6288 0.0
C451 C 0.81853 0.33237 0.65843 0.0
C452 C 0.82196 0.312 0.68931 0.0
C453 C 0.54184 0.02312 0.6265 0.0
C454 C 0.51138 0.99366 0.62676 0.0
C455 C 0.56783 0.03125 0.65569 0.0
C456 C 0.56496 0.00928 0.68555 0.0
H457 H 0.54456 0.04143 0.60461 0.0
H458 H 0.58974 0.0558 0.65557 0.0
S459 S 0.49209 0.92643 0.69737 0.0
N460 N 0.48078 0.94113 0.65827 0.0
N461 N 0.53069 0.95475 0.71203 0.0
C462 C 0.53614 0.97764 0.68452 0.0
C463 C 0.50913 0.97011 0.65529 0.0
C464 C 0.84083 0.24598 0.85082 0.0
C465 C 0.84596 0.24341 0.8112 0.0
C466 C 0.86814 0.23939 0.87422 0.0
C467 C 0.90173 0.23113 0.85874 0.0
H468 H 0.81647 0.25543 0.86406 0.0
H469 H 0.86386 0.24363 0.90488 0.0
S470 S 0.927 0.21773 0.75609 0.0
N471 N 0.88545 0.22845 0.75706 0.0
N472 N 0.93747 0.21792 0.80096 0.0
C473 C 0.90644 0.22679 0.8189 0.0
C474 C 0.87839 0.23254 0.79514 0.0
C475 C 0.50569 0.92037 0.53932 0.0
C476 C 0.47766 0.92243 0.56619 0.0
C477 C 0.5114 0.88345 0.51692 0.0
C478 C 0.48918 0.84722 0.52061 0.0
H479 H 0.52133 0.94784 0.5335 0.0
H480 H 0.53204 0.88374 0.49503 0.0
S481 S 0.4151 0.83687 0.59124 0.0
N482 N 0.42988 0.8856 0.59826 0.0
N483 N 0.4406 0.81592 0.55698 0.0
C484 C 0.46305 0.84878 0.54993 0.0
C485 C 0.45727 0.88647 0.5725 0.0
C486 C 0.13031 0.28242 0.79813 0.0
C487 C 0.15821 0.26261 0.80677 0.0
C488 C 0.09865 0.28194 0.81977 0.0
C489 C 0.09378 0.26143 0.85071 0.0
H490 H 0.1339 0.29996 0.7756 0.0
H491 H 0.07821 0.29858 0.81269 0.0
S492 S 0.15887 0.20328 0.88325 0.0
N493 N 0.17922 0.22106 0.84686 0.0
N494 N 0.11921 0.21913 0.88758 0.0
C495 C 0.12102 0.23994 0.85848 0.0
C496 C 0.15345 0.24084 0.8365 0.0
C497 C 0.5621 0.63431 0.52709 0.0
C498 C 0.54194 0.5981 0.53347 0.0
C499 C 0.54932 0.65664 0.5023 0.0
C500 C 0.51573 0.64356 0.48379 0.0
H501 H 0.58547 0.64768 0.54477 0.0
H502 H 0.56385 0.68619 0.50095 0.0
S503 S 0.45697 0.54665 0.48482 0.0
N504 N 0.49056 0.5468 0.51396 0.0
N505 N 0.46586 0.58911 0.46846 0.0
C506 C 0.49772 0.60519 0.48639 0.0
C507 C 0.51121 0.58217 0.51074 0.0
C508 C 0.85525 0.78959 0.74936 0.0
C509 C 0.85844 0.80021 0.78953 0.0
C510 C 0.88573 0.78953 0.72551 0.0
C511 C 0.92077 0.79881 0.74087 0.0
H512 H 0.82879 0.78405 0.73625 0.0
H513 H 0.88183 0.78288 0.69476 0.0
S514 S 0.94412 0.8248 0.84415 0.0
N515 N 0.89954 0.81845 0.84356 0.0
N516 N 0.95701 0.81566 0.7989 0.0
C517 C 0.92446 0.80654 0.78102 0.0
C518 C 0.89326 0.80775 0.80533 0.0
C519 C 0.0698 0.9506 0.56299 0.0
C520 C 0.05578 0.987 0.57272 0.0
C521 C 0.06184 0.92041 0.58524 0.0
C522 C 0.03926 0.92564 0.61756 0.0
H523 H 0.08364 0.9438 0.53596 0.0
H524 H 0.07045 0.89149 0.57498 0.0
S525 S 1.0008 0.01788 0.65813 0.0
N526 N 0.02297 0.02868 0.61972 0.0
N527 N 0.00677 0.97162 0.66057 0.0
C528 C 0.02805 0.96324 0.62945 0.0
C529 C 0.03689 0.99413 0.6074 0.0
C530 C 0.13489 0.71627 0.76381 0.0
C531 C 0.16608 0.74489 0.76888 0.0
C532 C 0.1055 0.72194 0.7432 0.0
C533 C 0.10617 0.75675 0.72731 0.0
H534 H 0.1327 0.69031 0.77747 0.0
H535 H 0.08159 0.69949 0.74103 0.0
S536 S 0.18361 0.83888 0.73034 0.0
N537 N 0.19758 0.80747 0.75466 0.0
N538 N 0.14218 0.81888 0.71598 0.0
C539 C 0.13809 0.78476 0.73083 0.0
C540 C 0.16812 0.77862 0.75161 0.0
C541 C 0.00229 0.65034 0.52624 0.0
C542 C 0.98033 0.65413 0.49627 0.0
C543 C 0.0109 0.68222 0.55714 0.0
C544 C 0.99777 0.71903 0.55913 0.0
H545 H 0.00955 0.62129 0.52778 0.0
H546 H 0.0259 0.67687 0.5808 0.0
S547 S 0.94529 0.74585 0.48318 0.0
N548 N 0.95037 0.69856 0.46702 0.0
N549 N 0.96653 0.75905 0.52478 0.0
C550 C 0.97923 0.72446 0.527 0.0
C551 C 0.97064 0.69188 0.49557 0.0
C552 C 0.79837 0.85088 0.26859 0.0
C553 C 0.76084 0.84835 0.26627 0.0
C554 C 0.82036 0.88845 0.27607 0.0
C555 C 0.80519 0.92432 0.28214 0.0
H556 H 0.81038 0.82383 0.26712 0.0
H557 H 0.84911 0.88941 0.27955 0.0
S558 S 0.70881 0.93288 0.27212 0.0
N559 N 0.70991 0.884 0.26468 0.0
N560 N 0.75098 0.95476 0.28036 0.0
C561 C 0.76795 0.92194 0.27705 0.0
C562 C 0.74582 0.88382 0.26854 0.0
C563 C 0.74515 0.16657 0.36368 0.0
C564 C 0.75607 0.19355 0.33903 0.0
C565 C 0.7664 0.13745 0.36843 0.0
C566 C 0.79925 0.13429 0.34854 0.0
H567 H 0.71931 0.1669 0.37799 0.0
H568 H 0.75623 0.11631 0.38669 0.0
S569 S 0.84148 0.2022 0.28456 0.0
N570 N 0.80294 0.2185 0.29768 0.0
N571 N 0.84299 0.16375 0.30603 0.0
C572 C 0.81121 0.16277 0.32538 0.0
C573 C 0.78957 0.19239 0.32075 0.0
C574 C 0.39188 0.01043 0.00591 0.0
C575 C 0.38578 0.03763 0.9828 0.0
C576 C 0.36299 0.98674 0.02032 0.0
C577 C 0.32706 0.98943 0.01186 0.0
H578 H 0.41918 0.00812 0.01339 0.0
H579 H 0.36894 0.96602 0.03799 0.0
S580 S 0.29776 0.0573 0.95266 0.0
N581 N 0.34228 0.06678 0.95219 0.0
N582 N 0.28739 0.02222 0.97888 0.0
C583 C 0.32084 0.01667 0.98848 0.0
C584 C 0.35039 0.04082 0.97403 0.0
C585 C 0.23415 0.37824 0.29935 0.0
C586 C 0.2554 0.37585 0.33049 0.0
C587 C 0.21225 0.40847 0.30185 0.0
C588 C 0.21103 0.43754 0.33556 0.0
H589 H 0.23485 0.3568 0.27283 0.0
H590 H 0.19677 0.40949 0.27688 0.0
S591 S 0.26232 0.44369 0.42506 0.0
N592 N 0.27438 0.40455 0.39564 0.0
N593 N 0.23312 0.46108 0.40104 0.0
C594 C 0.23196 0.43484 0.3671 0.0
C595 C 0.25419 0.40409 0.36438 0.0
C596 C 0.12526 0.07601 0.5522 0.0
C597 C 0.11196 0.03921 0.52877 0.0
C598 C 0.15986 0.09634 0.54644 0.0
C599 C 0.18262 0.08059 0.51693 0.0
H600 H 0.10751 0.09086 0.57277 0.0
H601 H 0.16813 0.12551 0.56424 0.0
S602 S 0.16123 0.9826 0.45046 0.0
N603 N 0.12474 0.98619 0.4772 0.0
N604 N 0.19004 0.02353 0.46649 0.0
C605 C 0.17054 0.04215 0.49531 0.0
C606 C 0.13523 0.02167 0.50126 0.0
C607 C 0.75698 0.19422 0.81825 0.0
C608 C 0.77281 0.19845 0.78278 0.0
C609 C 0.73475 0.15858 0.82267 0.0
C610 C 0.72681 0.12668 0.79137 0.0
H611 H 0.75998 0.21942 0.84196 0.0
H612 H 0.72181 0.15703 0.85007 0.0
S613 S 0.76448 0.12197 0.69353 0.0
N614 N 0.78207 0.16682 0.71701 0.0
N615 N 0.73867 0.10049 0.72459 0.0
C616 C 0.74377 0.12998 0.75622 0.0
C617 C 0.76722 0.16574 0.75212 0.0
C618 C 0.38903 0.05523 0.57959 0.0
C619 C 0.41524 0.03637 0.55718 0.0
C620 C 0.36587 0.0763 0.56351 0.0
C621 C 0.36764 0.07828 0.52429 0.0
H622 H 0.38585 0.05266 0.60941 0.0
H623 H 0.3454 0.08955 0.5815 0.0
S624 S 0.43365 0.03642 0.4544 0.0
N625 N 0.44363 0.02363 0.49492 0.0
N626 N 0.39918 0.06151 0.46412 0.0
C627 C 0.39443 0.06038 0.50193 0.0
C628 C 0.41845 0.03984 0.51853 0.0
C629 C 0.63136 0.55952 0.57814 0.0
C630 C 0.59605 0.55002 0.56336 0.0
C631 C 0.65633 0.53256 0.56907 0.0
C632 C 0.64725 0.4957 0.54385 0.0
H633 H 0.63864 0.58657 0.59936 0.0
H634 H 0.68262 0.54017 0.58267 0.0
S635 S 0.55968 0.45849 0.49421 0.0
N636 N 0.554 0.50221 0.52075 0.0
N637 N 0.60174 0.45264 0.50145 0.0
C638 C 0.61312 0.48733 0.5263 0.0
C639 C 0.58734 0.51433 0.53647 0.0
C640 C 0.69492 0.25963 0.42014 0.0
C641 C 0.72412 0.25883 0.39444 0.0
C642 C 0.69828 0.2846 0.4563 0.0
C643 C 0.73139 0.30806 0.46839 0.0
H644 H 0.66851 0.24386 0.41068 0.0
H645 H 0.67444 0.28736 0.47393 0.0
S646 S 0.81738 0.31073 0.41411 0.0
N647 N 0.78778 0.27977 0.38486 0.0
N648 N 0.79509 0.32476 0.45386 0.0
C649 C 0.7618 0.30363 0.4447 0.0
C650 C 0.75798 0.2792 0.40743 0.0
C651 C 0.51419 0.10396 0.90482 0.0
C652 C 0.50621 0.08414 0.93574 0.0
C653 C 0.5431 0.09562 0.88016 0.0
C654 C 0.56518 0.06732 0.88579 0.0
H655 H 0.49662 0.12418 0.89841 0.0
H656 H 0.54748 0.11065 0.85587 0.0
S657 S 0.55651 0.00992 0.9652 0.0
N658 N 0.52324 0.03697 0.97226 0.0
N659 N 0.57803 0.02162 0.9268 0.0
C660 C 0.55847 0.04904 0.91813 0.0
C661 C 0.52887 0.05736 0.94287 0.0
C662 C 0.30663 0.22879 0.35036 0.0
C663 C 0.31958 0.27013 0.36068 0.0
C664 C 0.30311 0.2035 0.3778 0.0
C665 C 0.31151 0.21901 0.41672 0.0
H666 H 0.29631 0.21673 0.32171 0.0
H667 H 0.29114 0.17237 0.36902 0.0
S668 S 0.35033 0.32433 0.45717 0.0
N669 N 0.34414 0.32433 0.41139 0.0
N670 N 0.33706 0.27762 0.46294 0.0
C671 C 0.32693 0.25966 0.42661 0.0
C672 C 0.33118 0.28493 0.3986 0.0
C673 C 0.46308 0.54827 0.97838 0.0
C674 C 0.49165 0.52599 0.96951 0.0
C675 C 0.43761 0.549 0.95034 0.0
C676 C 0.4402 0.52754 0.91266 0.0
H677 H 0.4609 0.56565 0.00691 0.0
H678 H 0.41631 0.56714 0.95799 0.0
S679 S 0.50877 0.46144 0.87718 0.0
N680 N 0.51997 0.47997 0.92229 0.0
N681 N 0.47269 0.48099 0.8693 0.0
C682 C 0.4683 0.50413 0.90416 0.0
C683 C 0.4939 0.50344 0.93269 0.0
C684 C 0.76975 0.74301 0.19529 0.0
C685 C 0.74745 0.77275 0.20504 0.0
C686 C 0.77994 0.73057 0.15715 0.0
C687 C 0.76763 0.74712 0.12742 0.0
H688 H 0.77778 0.72793 0.21712 0.0
H689 H 0.79558 0.70603 0.15073 0.0
S690 S 0.71164 0.8293 0.13954 0.0
N691 N 0.71577 0.8208 0.18329 0.0
N692 N 0.73467 0.79789 0.11144 0.0
C693 C 0.74715 0.77885 0.13746 0.0
C694 C 0.73705 0.79153 0.17634 0.0
C695 C 0.99403 0.1012 0.18974 0.0
C696 C 0.00227 0.07164 0.15908 0.0
C697 C 0.96993 0.09099 0.21846 0.0
C698 C 0.95411 0.05084 0.21735 0.0
H699 H 0.00663 0.13211 0.19161 0.0
H700 H 0.96464 0.11427 0.24222 0.0
S701 S 0.96495 0.9635 0.14081 0.0
N702 N 0.99095 1.00184 0.12741 0.0
N703 N 0.94665 0.98206 0.18181 0.0
C704 C 0.96157 0.02137 0.18616 0.0
C705 C 0.98545 0.03193 0.15685 0.0
C706 C 0.32131 0.8142 0.18785 0.0
C707 C 0.29729 0.81489 0.21879 0.0
C708 C 0.31679 0.83488 0.15831 0.0
C709 C 0.28787 0.85688 0.15844 0.0
H710 H 0.34291 0.79622 0.18577 0.0
H711 H 0.33551 0.83239 0.13455 0.0
S712 S 0.21953 0.87082 0.23546 0.0
N713 N 0.24542 0.84149 0.24978 0.0
N714 N 0.23623 0.88005 0.19402 0.0
C715 C 0.26446 0.85902 0.1902 0.0
C716 C 0.26932 0.83808 0.2204 0.0
C717 C 0.01208 0.47341 0.15496 0.0
C718 C 0.0147 0.49654 0.12602 0.0
C719 C 0.03832 0.48089 0.18408 0.0
C720 C 0.06762 0.51214 0.18531 0.0
H721 H 0.98851 0.45116 0.15634 0.0
H722 H 0.03434 0.46401 0.20709 0.0
S723 S 0.08979 0.57611 0.11222 0.0
N724 N 0.05158 0.54734 0.09703 0.0
N725 N 0.09992 0.56282 0.15247 0.0
C726 C 0.07174 0.53339 0.15496 0.0
C727 C 0.04557 0.52514 0.12504 0.0
C728 C 0.34163 0.7422 0.34679 0.0
C729 C 0.3481 0.74182 0.30762 0.0
C730 C 0.36856 0.73585 0.37078 0.0
C731 C 0.40302 0.72976 0.35638 0.0
H732 H 0.31645 0.74978 0.35938 0.0
H733 H 0.36319 0.73851 0.40118 0.0
S734 S 0.43167 0.72096 0.25491 0.0
N735 N 0.38968 0.73011 0.25475 0.0
N736 N 0.44089 0.72003 0.29986 0.0
C737 C 0.40903 0.72718 0.31687 0.0
C738 C 0.38142 0.73277 0.29247 0.0
C739 C 0.00782 0.42335 0.03632 0.0
C740 C 0.98187 0.42544 0.06547 0.0
C741 C 0.01305 0.3863 0.01391 0.0
C742 C 0.99232 0.34996 0.01978 0.0
H743 H 0.02197 0.45082 0.02886 0.0
H744 H 0.03192 0.38652 0.99033 0.0
S745 S 0.92441 0.33992 0.09678 0.0
N746 N 0.93811 0.38878 0.10206 0.0
N747 N 0.94778 0.31878 0.06057 0.0
C748 C 0.96851 0.35169 0.05127 0.0
C749 C 0.96332 0.38954 0.07395 0.0
C750 C 0.6307 0.78435 0.30001 0.0
C751 C 0.65811 0.76319 0.30734 0.0
C752 C 0.59921 0.78379 0.32192 0.0
C753 C 0.59401 0.76186 0.35184 0.0
H754 H 0.63454 0.80288 0.27829 0.0
H755 H 0.57916 0.8014 0.31581 0.0
S756 S 0.65774 0.69989 0.38069 0.0
N757 N 0.67829 0.7189 0.34505 0.0
N758 N 0.61858 0.71683 0.38626 0.0
C759 C 0.62075 0.73911 0.35828 0.0
C760 C 0.65301 0.74008 0.33601 0.0
C761 C 0.0119 0.08545 0.01171 0.0
C762 C 0.043 0.10049 0.03425 0.0
C763 C 0.99893 0.10844 0.9879 0.0
C764 C 0.01755 0.14642 0.98457 0.0
H765 H 0.99498 0.05831 0.01658 0.0
H766 H 0.9728 0.09784 0.9744 0.0
S767 S 0.10471 0.1947 0.03066 0.0
N768 N 0.0949 0.15242 0.04723 0.0
N769 N 0.07192 0.1948 1.00058 0.0
C770 C 0.05141 0.15897 1.00251 0.0
C771 C 0.06401 0.13598 0.02763 0.0
C772 C 0.35372 0.291 0.24835 0.0
C773 C 0.35692 0.30085 0.28856 0.0
C774 C 0.38418 0.29094 0.22447 0.0
C775 C 0.41923 0.29943 0.23981 0.0
H776 H 0.32727 0.28597 0.23527 0.0
H777 H 0.38026 0.28477 0.19373 0.0
S778 S 0.44264 0.32366 0.34312 0.0
N779 N 0.39808 0.31788 0.34255 0.0
N780 N 0.45547 0.31499 0.29783 0.0
C781 C 0.4229 0.30655 0.27996 0.0
C782 C 0.39174 0.3078 0.30431 0.0
C783 C 0.53721 0.49166 0.10603 0.0
C784 C 0.55578 0.485 0.07096 0.0
C785 C 0.5284 0.461 0.12745 0.0
C786 C 0.53909 0.42308 0.11527 0.0
H787 H 0.52583 0.51922 0.11456 0.0
H788 H 0.51097 0.46606 0.15213 0.0
S789 S 0.59237 0.39206 0.02848 0.0
N790 N 0.58717 0.43877 0.02704 0.0
N791 N 0.57254 0.3819 0.0683 0.0
C792 C 0.56103 0.41749 0.0826 0.0
C793 C 0.56917 0.44841 0.06031 0.0
C794 C 0.66606 0.27727 0.25253 0.0
C795 C 0.66533 0.24396 0.27031 0.0
C796 C 0.63581 0.28245 0.23274 0.0
C797 C 0.60392 0.2544 0.23018 0.0
H798 H 0.68963 0.3002 0.25548 0.0
H799 H 0.63715 0.3091 0.22023 0.0
S800 S 0.58986 0.16115 0.27122 0.0
N801 N 0.63143 0.18227 0.28371 0.0
N802 N 0.57455 0.19097 0.24607 0.0
C803 C 0.60365 0.22008 0.24678 0.0
C804 C 0.63439 0.21512 0.26697 0.0
C805 C 0.47219 0.18877 0.99776 0.0
C806 C 0.48224 0.15091 0.99777 0.0
C807 C 0.48076 0.22074 0.0287 0.0
C808 C 0.49978 0.21586 0.06071 0.0
H809 H 0.45441 0.19232 0.97555 0.0
H810 H 0.47014 0.24842 0.02866 0.0
S811 S 0.53818 0.12443 0.07051 0.0
N812 N 0.51611 0.11179 0.02945 0.0
N813 N 0.53363 0.17179 0.08705 0.0
C814 C 0.51352 0.17939 0.05877 0.0
C815 C 0.50455 0.14697 0.02732 0.0
C816 C 0.29803 0.35155 0.76787 0.0
C817 C 0.26044 0.3488 0.76619 0.0
C818 C 0.31987 0.38922 0.77506 0.0
C819 C 0.30448 0.42495 0.78147 0.0
H820 H 0.31025 0.32459 0.7661 0.0
H821 H 0.3487 0.39038 0.77812 0.0
S822 S 0.20781 0.43295 0.773 0.0
N823 N 0.20916 0.38411 0.76539 0.0
N824 N 0.24998 0.45505 0.78067 0.0
C825 C 0.26715 0.42235 0.77699 0.0
C826 C 0.24516 0.38414 0.76874 0.0
C827 C 0.28496 0.68848 0.8227 0.0
C828 C 0.25154 0.69056 0.84115 0.0
C829 C 0.30629 0.65966 0.82796 0.0
C830 C 0.29497 0.63189 0.85203 0.0
H831 H 0.29414 0.70867 0.80324 0.0
H832 H 0.33137 0.65854 0.81223 0.0
S833 S 0.20979 0.62646 0.90812 0.0
N834 N 0.20832 0.66363 0.88496 0.0
N835 N 0.24841 0.60991 0.89592 0.0
C836 C 0.26211 0.63494 0.87193 0.0
C837 C 0.24039 0.66418 0.86626 0.0
C838 C 0.8919 0.51311 0.50771 0.0
C839 C 0.88543 0.53964 0.48403 0.0
C840 C 0.86326 0.48937 0.52245 0.0
C841 C 0.82722 0.49133 0.51377 0.0
H842 H 0.91929 0.51133 0.51532 0.0
H843 H 0.8695 0.46911 0.54046 0.0
S844 S 0.79696 0.5574 0.45323 0.0
N845 N 0.84144 0.56746 0.45274 0.0
N846 N 0.78703 0.52285 0.4801 0.0
C847 C 0.82063 0.51799 0.48992 0.0
C848 C 0.84991 0.54217 0.47512 0.0
C849 C 0.7359 0.87779 0.79949 0.0
C850 C 0.75742 0.87634 0.83073 0.0
C851 C 0.71376 0.90773 0.80143 0.0
C852 C 0.71256 0.93741 0.83467 0.0
H853 H 0.73653 0.85581 0.77332 0.0
H854 H 0.69805 0.90802 0.77641 0.0
S855 S 0.76449 0.94609 0.92424 0.0
N856 N 0.77666 0.90658 0.89548 0.0
N857 N 0.73496 0.96257 0.89985 0.0
C858 C 0.73377 0.93566 0.86632 0.0
C859 C 0.75625 0.90522 0.86416 0.0
C860 C 0.62548 0.57309 0.05178 0.0
C861 C 0.61152 0.53778 0.0265 0.0
C862 C 0.66015 0.5936 0.04651 0.0
C863 C 0.68233 0.57946 0.01575 0.0
H864 H 0.60821 0.58679 0.0737 0.0
H865 H 0.66899 0.62167 0.06585 0.0
S866 S 0.65894 0.48613 0.94339 0.0
N867 N 0.62294 0.48822 0.97108 0.0
N868 N 0.68841 0.5257 0.96155 0.0
C869 C 0.66957 0.54248 0.99197 0.0
C870 C 0.63417 0.52189 0.9973 0.0
C871 C 0.27242 0.66367 0.25955 0.0
C872 C 0.27229 0.69999 0.28562 0.0
C873 C 0.24916 0.62883 0.26445 0.0
C874 C 0.22589 0.62928 0.29612 0.0
H875 H 0.28907 0.66299 0.23414 0.0
H876 H 0.24865 0.60175 0.24293 0.0
S877 S 0.21566 0.71702 0.37218 0.0
N878 N 0.24671 0.73466 0.34333 0.0
N879 N 0.20461 0.66867 0.35414 0.0
C880 C 0.22673 0.66502 0.32317 0.0
C881 C 0.24958 0.70061 0.31752 0.0
C882 C 0.89017 0.55575 0.0803 0.0
C883 C 0.91668 0.53754 0.05781 0.0
C884 C 0.86653 0.57637 0.06432 0.0
C885 C 0.86817 0.57852 0.02514 0.0
H886 H 0.88705 0.55295 0.11007 0.0
H887 H 0.84584 0.58912 0.08235 0.0
S888 S 0.93484 0.53839 0.95511 0.0
N889 N 0.94518 0.52565 0.99554 0.0
N890 N 0.89988 0.56268 0.96494 0.0
C891 C 0.89524 0.56128 1.00272 0.0
C892 C 0.91971 0.5412 0.0192 0.0
C893 C 0.13206 0.06087 0.07898 0.0
C894 C 0.09692 0.05211 0.06376 0.0
C895 C 0.15679 0.03368 0.0696 0.0
C896 C 0.14763 0.99735 0.04361 0.0
H897 H 0.13934 0.08744 0.10077 0.0
H898 H 0.18291 0.04065 0.08356 0.0
S899 S 0.06051 0.96242 0.99246 0.0
N900 N 0.055 0.0058 0.01978 0.0
N901 N 0.10229 0.95575 0.99998 0.0
C902 C 0.11373 0.98984 0.02559 0.0
C903 C 0.08819 0.01709 0.03605 0.0
loop_
_geom_bond_atom_site_label_1
_geom_bond_atom_site_label_2
_geom_bond_distance
_geom_bond_site_symmetry_2
_ccdc_geom_bond_type
C0 N1 1.317 . S
C0 N2 1.348 . S
C0 C3 1.485 . S
N1 C0 1.317 . S
N1 N5 1.370 . S
N2 C0 1.348 . S
N2 C4 1.346 . S
C3 C0 1.485 . S
C3 H7 0.960 . S
C3 H8 0.961 . S
C3 H9 0.960 . S
C4 N2 1.346 . S
C4 N5 1.307 . S
C4 C6 1.486 . S
N5 N1 1.370 . S
N5 C4 1.307 . S
C6 C4 1.486 . S
C6 H10 0.960 . S
C6 H11 0.960 . S
C6 H12 0.959 . S
H7 C3 0.960 . S
H8 C3 0.961 . S
H9 C3 0.960 . S
H10 C6 0.960 . S
H11 C6 0.960 . S
H12 C6 0.959 . S
C13 N14 1.317 . S
C13 N15 1.348 . S
C13 C16 1.485 . S
N14 C13 1.317 . S
N14 N18 1.370 . S
N15 C13 1.348 . S
N15 C17 1.346 . S
C16 C13 1.485 . S
C16 H20 0.960 . S
C16 H21 0.961 . S
C16 H22 0.960 . S
C17 N15 1.346 . S
C17 N18 1.307 . S
C17 C19 1.486 . S
N18 N14 1.370 . S
N18 C17 1.307 . S
C19 C17 1.486 . S
C19 H23 0.960 . S
C19 H24 0.960 . S
C19 H25 0.959 . S
H20 C16 0.960 . S
H21 C16 0.961 . S
H22 C16 0.960 . S
H23 C19 0.960 . S
H24 C19 0.960 . S
H25 C19 0.959 . S
C26 N27 1.317 . S
C26 N28 1.348 . S
C26 C29 1.485 . S
N27 C26 1.317 . S
N27 N31 1.370 . S
N28 C26 1.348 . S
N28 C30 1.346 . S
C29 C26 1.485 . S
C29 H33 0.960 . S
C29 H34 0.961 . S
C29 H35 0.960 . S
C30 N28 1.346 . S
C30 N31 1.307 . S
C30 C32 1.486 . S
N31 N27 1.370 . S
N31 C30 1.307 . S
C32 C30 1.486 . S
C32 H36 0.960 . S
C32 H37 0.960 . S
C32 H38 0.959 . S
H33 C29 0.960 . S
H34 C29 0.961 . S
H35 C29 0.960 . S
H36 C32 0.960 . S
H37 C32 0.960 . S
H38 C32 0.959 . S
C39 N40 1.317 . S
C39 N41 1.348 . S
C39 C42 1.485 . S
N40 C39 1.317 . S
N40 N44 1.370 . S
N41 C39 1.348 . S
N41 C43 1.346 . S
C42 C39 1.485 . S
C42 H46 0.960 . S
C42 H47 0.961 . S
C42 H48 0.960 . S
C43 N41 1.346 . S
C43 N44 1.307 . S
C43 C45 1.486 . S
N44 N40 1.370 . S
N44 C43 1.307 . S
C45 C43 1.486 . S
C45 H49 0.960 . S
C45 H50 0.960 . S
C45 H51 0.959 . S
H46 C42 0.960 . S
H47 C42 0.961 . S
H48 C42 0.960 . S
H49 C45 0.960 . S
H50 C45 0.960 . S
H51 C45 0.959 . S
C52 N53 1.317 . S
C52 N54 1.348 . S
C52 C55 1.485 . S
N53 C52 1.317 . S
N53 N57 1.370 . S
N54 C52 1.348 . S
N54 C56 1.346 . S
C55 C52 1.485 . S
C55 H59 0.960 . S
C55 H60 0.961 1_455 S
C55 H61 0.960 . S
C56 N54 1.346 . S
C56 N57 1.307 . S
C56 C58 1.486 1_565 S
N57 N53 1.370 . S
N57 C56 1.307 . S
C58 C56 1.486 1_545 S
C58 H62 0.960 . S
C58 H63 0.960 . S
C58 H64 0.959 . S
H59 C55 0.960 . S
H60 C55 0.961 1_655 S
H61 C55 0.960 . S
H62 C58 0.960 . S
H63 C58 0.960 . S
H64 C58 0.959 . S
C65 N66 1.317 . S
C65 N67 1.348 . S
C65 C68 1.485 . S
N66 C65 1.317 . S
N66 N70 1.370 . S
N67 C65 1.348 . S
N67 C69 1.346 . S
C68 C65 1.485 . S
C68 H72 0.960 . S
C68 H73 0.961 . S
C68 H74 0.960 . S
C69 N67 1.346 . S
C69 N70 1.307 . S
C69 C71 1.486 . S
N70 N66 1.370 . S
N70 C69 1.307 . S
C71 C69 1.486 . S
C71 H75 0.960 . S
C71 H76 0.960 . S
C71 H77 0.959 . S
H72 C68 0.960 . S
H73 C68 0.961 . S
H74 C68 0.960 . S
H75 C71 0.960 . S
H76 C71 0.960 . S
H77 C71 0.959 . S
C78 N79 1.317 . S
C78 N80 1.348 . S
C78 C81 1.485 . S
N79 C78 1.317 . S
N79 N83 1.370 . S
N80 C78 1.348 . S
N80 C82 1.346 . S
C81 C78 1.485 . S
C81 H85 0.960 . S
C81 H86 0.961 . S
C81 H87 0.960 . S
C82 N80 1.346 . S
C82 N83 1.307 . S
C82 C84 1.486 . S
N83 N79 1.370 . S
N83 C82 1.307 . S
C84 C82 1.486 . S
C84 H88 0.960 . S
C84 H89 0.960 . S
C84 H90 0.959 . S
H85 C81 0.960 . S
H86 C81 0.961 . S
H87 C81 0.960 . S
H88 C84 0.960 . S
H89 C84 0.960 . S
H90 C84 0.959 . S
C91 N92 1.317 . S
C91 N93 1.348 . S
C91 C94 1.485 . S
N92 C91 1.317 . S
N92 N96 1.370 . S
N93 C91 1.348 . S
N93 C95 1.346 . S
C94 C91 1.485 . S
C94 H98 0.960 . S
C94 H99 0.961 . S
C94 H100 0.960 . S
C95 N93 1.346 . S
C95 N96 1.307 . S
C95 C97 1.486 . S
N96 N92 1.370 . S
N96 C95 1.307 . S
C97 C95 1.486 . S
C97 H101 0.960 . S
C97 H102 0.960 . S
C97 H103 0.959 . S
H98 C94 0.960 . S
H99 C94 0.961 . S
H100 C94 0.960 . S
H101 C97 0.960 . S
H102 C97 0.960 . S
H103 C97 0.959 . S
C104 N105 1.317 . S
C104 N106 1.348 . S
C104 C107 1.485 . S
N105 C104 1.317 . S
N105 N109 1.370 . S
N106 C104 1.348 . S
N106 C108 1.346 . S
C107 C104 1.485 . S
C107 H111 0.960 . S
C107 H112 0.961 . S
C107 H113 0.960 . S
C108 N106 1.346 . S
C108 N109 1.307 . S
C108 C110 1.486 . S
N109 N105 1.370 . S
N109 C108 1.307 . S
C110 C108 1.486 . S
C110 H114 0.960 . S
C110 H115 0.960 . S
C110 H116 0.959 . S
H111 C107 0.960 . S
H112 C107 0.961 . S
H113 C107 0.960 . S
H114 C110 0.960 . S
H115 C110 0.960 . S
H116 C110 0.959 . S
C117 N118 1.317 . S
C117 N119 1.348 . S
C117 C120 1.485 . S
N118 C117 1.317 . S
N118 N122 1.370 . S
N119 C117 1.348 . S
N119 C121 1.346 . S
C120 C117 1.485 . S
C120 H124 0.960 . S
C120 H125 0.961 1_565 S
C120 H126 0.960 . S
C121 N119 1.346 . S
C121 N122 1.307 . S
C121 C123 1.486 . S
N122 N118 1.370 . S
N122 C121 1.307 . S
C123 C121 1.486 . S
C123 H127 0.960 . S
C123 H128 0.960 . S
C123 H129 0.959 . S
H124 C120 0.960 . S
H125 C120 0.961 1_545 S
H126 C120 0.960 . S
H127 C123 0.960 . S
H128 C123 0.960 . S
H129 C123 0.959 . S
C130 N131 1.317 . S
C130 N132 1.348 . S
C130 C133 1.485 . S
N131 C130 1.317 . S
N131 N135 1.370 . S
N132 C130 1.348 . S
N132 C134 1.346 . S
C133 C130 1.485 . S
C133 H137 0.960 . S
C133 H138 0.961 . S
C133 H139 0.960 . S
C134 N132 1.346 . S
C134 N135 1.307 . S
C134 C136 1.486 . S
N135 N131 1.370 . S
N135 C134 1.307 . S
C136 C134 1.486 . S
C136 H140 0.960 . S
C136 H141 0.960 . S
C136 H142 0.959 . S
H137 C133 0.960 . S
H138 C133 0.961 . S
H139 C133 0.960 . S
H140 C136 0.960 . S
H141 C136 0.960 . S
H142 C136 0.959 . S
C143 N144 1.317 . S
C143 N145 1.348 . S
C143 C146 1.485 . S
N144 C143 1.317 . S
N144 N148 1.370 . S
N145 C143 1.348 . S
N145 C147 1.346 . S
C146 C143 1.485 . S
C146 H150 0.960 . S
C146 H151 0.961 . S
C146 H152 0.960 . S
C147 N145 1.346 . S
C147 N148 1.307 . S
C147 C149 1.486 . S
N148 N144 1.370 . S
N148 C147 1.307 . S
C149 C147 1.486 . S
C149 H153 0.960 . S
C149 H154 0.960 . S
C149 H155 0.959 . S
H150 C146 0.960 . S
H151 C146 0.961 . S
H152 C146 0.960 . S
H153 C149 0.960 . S
H154 C149 0.960 . S
H155 C149 0.959 . S
C156 N157 1.317 . S
C156 N158 1.348 . S
C156 C159 1.485 . S
N157 C156 1.317 . S
N157 N161 1.370 . S
N158 C156 1.348 . S
N158 C160 1.346 . S
C159 C156 1.485 . S
C159 H163 0.960 . S
C159 H164 0.961 . S
C159 H165 0.960 . S
C160 N158 1.346 . S
C160 N161 1.307 . S
C160 C162 1.486 . S
N161 N157 1.370 . S
N161 C160 1.307 . S
C162 C160 1.486 . S
C162 H166 0.960 . S
C162 H167 0.960 . S
C162 H168 0.959 . S
H163 C159 0.960 . S
H164 C159 0.961 . S
H165 C159 0.960 . S
H166 C162 0.960 . S
H167 C162 0.960 . S
H168 C162 0.959 . S
C169 N170 1.317 . S
C169 N171 1.348 . S
C169 C172 1.485 . S
N170 C169 1.317 . S
N170 N174 1.370 . S
N171 C169 1.348 . S
N171 C173 1.346 . S
C172 C169 1.485 . S
C172 H176 0.960 . S
C172 H177 0.961 . S
C172 H178 0.960 . S
C173 N171 1.346 . S
C173 N174 1.307 . S
C173 C175 1.486 . S
N174 N170 1.370 . S
N174 C173 1.307 . S
C175 C173 1.486 . S
C175 H179 0.960 . S
C175 H180 0.960 . S
C175 H181 0.959 . S
H176 C172 0.960 . S
H177 C172 0.961 . S
H178 C172 0.960 . S
H179 C175 0.960 . S
H180 C175 0.960 . S
H181 C175 0.959 . S
C182 N183 1.317 . S
C182 N184 1.348 . S
C182 C185 1.485 . S
N183 C182 1.317 . S
N183 N187 1.370 . S
N184 C182 1.348 . S
N184 C186 1.346 . S
C185 C182 1.485 . S
C185 H189 0.960 . S
C185 H190 0.961 . S
C185 H191 0.960 . S
C186 N184 1.346 . S
C186 N187 1.307 . S
C186 C188 1.486 . S
N187 N183 1.370 . S
N187 C186 1.307 . S
C188 C186 1.486 . S
C188 H192 0.960 . S
C188 H193 0.960 . S
C188 H194 0.959 . S
H189 C185 0.960 . S
H190 C185 0.961 . S
H191 C185 0.960 . S
H192 C188 0.960 . S
H193 C188 0.960 . S
H194 C188 0.959 . S
C195 N196 1.317 . S
C195 N197 1.348 . S
C195 C198 1.485 . S
N196 C195 1.317 . S
N196 N200 1.370 . S
N197 C195 1.348 . S
N197 C199 1.346 . S
C198 C195 1.485 . S
C198 H202 0.960 . S
C198 H203 0.961 . S
C198 H204 0.960 . S
C199 N197 1.346 . S
C199 N200 1.307 . S
C199 C201 1.486 1_556 S
N200 N196 1.370 . S
N200 C199 1.307 . S
C201 C199 1.486 1_554 S
C201 H205 0.960 . S
C201 H206 0.960 . S
C201 H207 0.959 . S
H202 C198 0.960 . S
H203 C198 0.961 . S
H204 C198 0.960 . S
H205 C201 0.960 . S
H206 C201 0.960 . S
H207 C201 0.959 . S
O208 Cd209 2.223 . S
O208 C216 1.315 . S
Cd209 O208 2.223 . S
Cd209 O212 2.297 . S
Cd209 O213 2.439 . S
Cd209 O219 2.240 . S
Cd210 O211 2.240 . S
Cd210 O218 2.223 . S
Cd210 O220 2.297 1_565 S
Cd210 O221 2.439 . S
O211 Cd210 2.240 . S
O211 C216 1.279 . S
O212 Cd209 2.297 . S
O212 C214 1.247 . S
O213 Cd209 2.439 . S
O213 C214 1.208 . S
C214 O212 1.247 . S
C214 O213 1.208 . S
C215 O220 1.247 . S
C215 O221 1.208 1_545 S
C216 O208 1.315 . S
C216 O211 1.279 . S
C217 O218 1.315 . S
C217 O219 1.279 . S
O218 Cd210 2.223 . S
O218 C217 1.315 . S
O219 Cd209 2.240 . S
O219 C217 1.279 . S
O220 Cd210 2.297 1_545 S
O220 C215 1.247 . S
O221 Cd210 2.439 . S
O221 C215 1.208 1_565 S
O222 Cd223 2.223 . S
O222 C230 1.315 . S
Cd223 O222 2.223 . S
Cd223 O226 2.297 . S
Cd223 O227 2.439 . S
Cd223 O233 2.240 . S
Cd224 O225 2.240 . S
Cd224 O232 2.223 . S
Cd224 O234 2.297 . S
Cd224 O235 2.439 . S
O225 Cd224 2.240 . S
O225 C230 1.279 . S
O226 Cd223 2.297 . S
O226 C228 1.247 . S
O227 Cd223 2.439 . S
O227 C228 1.208 . S
C228 O226 1.247 . S
C228 O227 1.208 . S
C229 O234 1.247 . S
C229 O235 1.208 . S
C230 O222 1.315 . S
C230 O225 1.279 . S
C231 O232 1.315 . S
C231 O233 1.279 . S
O232 Cd224 2.223 . S
O232 C231 1.315 . S
O233 Cd223 2.240 . S
O233 C231 1.279 . S
O234 Cd224 2.297 . S
O234 C229 1.247 . S
O235 Cd224 2.439 . S
O235 C229 1.208 . S
O236 Cd237 2.223 1_556 S
O236 C244 1.315 . S
Cd237 O236 2.223 1_554 S
Cd237 O240 2.297 . S
Cd237 O241 2.439 . S
Cd237 O247 2.240 . S
Cd238 O239 2.240 . S
Cd238 O246 2.223 . S
Cd238 O248 2.297 . S
Cd238 O249 2.439 1_556 S
O239 Cd238 2.240 . S
O239 C244 1.279 . S
O240 Cd237 2.297 . S
O240 C242 1.247 . S
O241 Cd237 2.439 . S
O241 C242 1.208 . S
C242 O240 1.247 . S
C242 O241 1.208 . S
C243 O248 1.247 1_554 S
C243 O249 1.208 . S
C244 O236 1.315 . S
C244 O239 1.279 . S
C245 O246 1.315 . S
C245 O247 1.279 1_556 S
O246 Cd238 2.223 . S
O246 C245 1.315 . S
O247 Cd237 2.240 . S
O247 C245 1.279 1_554 S
O248 Cd238 2.297 . S
O248 C243 1.247 1_556 S
O249 Cd238 2.439 1_554 S
O249 C243 1.208 . S
O250 Cd251 2.223 . S
O250 C258 1.315 . S
Cd251 O250 2.223 . S
Cd251 O254 2.297 . S
Cd251 O255 2.439 . S
Cd251 O261 2.240 . S
Cd252 O253 2.240 . S
Cd252 O260 2.223 . S
Cd252 O262 2.297 . S
Cd252 O263 2.439 . S
O253 Cd252 2.240 . S
O253 C258 1.279 . S
O254 Cd251 2.297 . S
O254 C256 1.247 . S
O255 Cd251 2.439 . S
O255 C256 1.208 . S
C256 O254 1.247 . S
C256 O255 1.208 . S
C257 O262 1.247 . S
C257 O263 1.208 . S
C258 O250 1.315 . S
C258 O253 1.279 . S
C259 O260 1.315 . S
C259 O261 1.279 . S
O260 Cd252 2.223 . S
O260 C259 1.315 . S
O261 Cd251 2.240 . S
O261 C259 1.279 . S
O262 Cd252 2.297 . S
O262 C257 1.247 . S
O263 Cd252 2.439 . S
O263 C257 1.208 . S
O264 Cd265 2.223 . S
O264 C272 1.315 . S
Cd265 O264 2.223 . S
Cd265 O268 2.297 . S
Cd265 O269 2.439 . S
Cd265 O275 2.240 . S
Cd266 O267 2.240 . S
Cd266 O274 2.223 . S
Cd266 O276 2.297 . S
Cd266 O277 2.439 . S
O267 Cd266 2.240 . S
O267 C272 1.279 . S
O268 Cd265 2.297 . S
O268 C270 1.247 . S
O269 Cd265 2.439 . S
O269 C270 1.208 . S
C270 O268 1.247 . S
C270 O269 1.208 . S
C271 O276 1.247 . S
C271 O277 1.208 . S
C272 O264 1.315 . S
C272 O267 1.279 . S
C273 O274 1.315 . S
C273 O275 1.279 . S
O274 Cd266 2.223 . S
O274 C273 1.315 . S
O275 Cd265 2.240 . S
O275 C273 1.279 . S
O276 Cd266 2.297 . S
O276 C271 1.247 . S
O277 Cd266 2.439 . S
O277 C271 1.208 . S
O278 Cd279 2.223 . S
O278 C286 1.315 . S
Cd279 O278 2.223 . S
Cd279 O282 2.297 . S
Cd279 O283 2.439 . S
Cd279 O289 2.240 . S
Cd280 O281 2.240 . S
Cd280 O288 2.223 . S
Cd280 O290 2.297 . S
Cd280 O291 2.439 . S
O281 Cd280 2.240 . S
O281 C286 1.279 . S
O282 Cd279 2.297 . S
O282 C284 1.247 . S
O283 Cd279 2.439 . S
O283 C284 1.208 . S
C284 O282 1.247 . S
C284 O283 1.208 . S
C285 O290 1.247 . S
C285 O291 1.208 . S
C286 O278 1.315 . S
C286 O281 1.279 . S
C287 O288 1.315 . S
C287 O289 1.279 . S
O288 Cd280 2.223 . S
O288 C287 1.315 . S
O289 Cd279 2.240 . S
O289 C287 1.279 . S
O290 Cd280 2.297 . S
O290 C285 1.247 . S
O291 Cd280 2.439 . S
O291 C285 1.208 . S
O292 Cd293 2.223 . S
O292 C300 1.315 . S
Cd293 O292 2.223 . S
Cd293 O296 2.297 . S
Cd293 O297 2.439 . S
Cd293 O303 2.240 . S
Cd294 O295 2.240 . S
Cd294 O302 2.223 . S
Cd294 O304 2.297 . S
Cd294 O305 2.439 . S
O295 Cd294 2.240 . S
O295 C300 1.279 . S
O296 Cd293 2.297 . S
O296 C298 1.247 . S
O297 Cd293 2.439 . S
O297 C298 1.208 . S
C298 O296 1.247 . S
C298 O297 1.208 . S
C299 O304 1.247 . S
C299 O305 1.208 . S
C300 O292 1.315 . S
C300 O295 1.279 . S
C301 O302 1.315 . S
C301 O303 1.279 . S
O302 Cd294 2.223 . S
O302 C301 1.315 . S
O303 Cd293 2.240 . S
O303 C301 1.279 . S
O304 Cd294 2.297 . S
O304 C299 1.247 . S
O305 Cd294 2.439 . S
O305 C299 1.208 . S
O306 Cd307 2.223 1_545 S
O306 C314 1.315 . S
Cd307 O306 2.223 1_565 S
Cd307 O310 2.297 . S
Cd307 O311 2.439 . S
Cd307 O317 2.240 1_565 S
Cd308 O309 2.240 . S
Cd308 O316 2.223 . S
Cd308 O318 2.297 . S
Cd308 O319 2.439 1_545 S
O309 Cd308 2.240 . S
O309 C314 1.279 . S
O310 Cd307 2.297 . S
O310 C312 1.247 . S
O311 Cd307 2.439 . S
O311 C312 1.208 . S
C312 O310 1.247 . S
C312 O311 1.208 . S
C313 O318 1.247 1_565 S
C313 O319 1.208 . S
C314 O306 1.315 . S
C314 O309 1.279 . S
C315 O316 1.315 . S
C315 O317 1.279 . S
O316 Cd308 2.223 . S
O316 C315 1.315 . S
O317 Cd307 2.240 1_545 S
O317 C315 1.279 . S
O318 Cd308 2.297 . S
O318 C313 1.247 1_545 S
O319 Cd308 2.439 1_565 S
O319 C313 1.208 . S
O320 Cd321 2.223 . S
O320 C328 1.315 . S
Cd321 O320 2.223 . S
Cd321 O324 2.297 1_556 S
Cd321 O325 2.439 1_655 S
Cd321 O331 2.240 . S
Cd322 O323 2.240 1_455 S
Cd322 O330 2.223 1_455 S
Cd322 O332 2.297 . S
Cd322 O333 2.439 . S
O323 Cd322 2.240 1_655 S
O323 C328 1.279 . S
O324 Cd321 2.297 1_554 S
O324 C326 1.247 1_654 S
O325 Cd321 2.439 1_455 S
O325 C326 1.208 . S
C326 O324 1.247 1_456 S
C326 O325 1.208 . S
C327 O332 1.247 . S
C327 O333 1.208 . S
C328 O320 1.315 . S
C328 O323 1.279 . S
C329 O330 1.315 . S
C329 O331 1.279 . S
O330 Cd322 2.223 1_655 S
O330 C329 1.315 . S
O331 Cd321 2.240 . S
O331 C329 1.279 . S
O332 Cd322 2.297 . S
O332 C327 1.247 . S
O333 Cd322 2.439 . S
O333 C327 1.208 . S
O334 Cd335 2.223 . S
O334 C342 1.315 . S
Cd335 O334 2.223 . S
Cd335 O338 2.297 . S
Cd335 O339 2.439 . S
Cd335 O345 2.240 . S
Cd336 O337 2.240 . S
Cd336 O344 2.223 . S
Cd336 O346 2.297 . S
Cd336 O347 2.439 . S
O337 Cd336 2.240 . S
O337 C342 1.279 . S
O338 Cd335 2.297 . S
O338 C340 1.247 . S
O339 Cd335 2.439 . S
O339 C340 1.208 . S
C340 O338 1.247 . S
C340 O339 1.208 . S
C341 O346 1.247 . S
C341 O347 1.208 . S
C342 O334 1.315 . S
C342 O337 1.279 . S
C343 O344 1.315 . S
C343 O345 1.279 . S
O344 Cd336 2.223 . S
O344 C343 1.315 . S
O345 Cd335 2.240 . S
O345 C343 1.279 . S
O346 Cd336 2.297 . S
O346 C341 1.247 . S
O347 Cd336 2.439 . S
O347 C341 1.208 . S
O348 Cd349 2.223 1_655 S
O348 C356 1.315 . S
Cd349 O348 2.223 1_455 S
Cd349 O352 2.297 . S
Cd349 O353 2.439 . S
Cd349 O359 2.240 . S
Cd350 O351 2.240 . S
Cd350 O358 2.223 . S
Cd350 O360 2.297 1_655 S
Cd350 O361 2.439 1_655 S
O351 Cd350 2.240 . S
O351 C356 1.279 . S
O352 Cd349 2.297 . S
O352 C354 1.247 . S
O353 Cd349 2.439 . S
O353 C354 1.208 . S
C354 O352 1.247 . S
C354 O353 1.208 . S
C355 O360 1.247 . S
C355 O361 1.208 . S
C356 O348 1.315 . S
C356 O351 1.279 . S
C357 O358 1.315 . S
C357 O359 1.279 1_655 S
O358 Cd350 2.223 . S
O358 C357 1.315 . S
O359 Cd349 2.240 . S
O359 C357 1.279 1_455 S
O360 Cd350 2.297 1_455 S
O360 C355 1.247 . S
O361 Cd350 2.439 1_455 S
O361 C355 1.208 . S
O362 Cd363 2.223 . S
O362 C370 1.315 . S
Cd363 O362 2.223 . S
Cd363 O366 2.297 . S
Cd363 O367 2.439 . S
Cd363 O373 2.240 . S
Cd364 O365 2.240 . S
Cd364 O372 2.223 . S
Cd364 O374 2.297 . S
Cd364 O375 2.439 . S
O365 Cd364 2.240 . S
O365 C370 1.279 . S
O366 Cd363 2.297 . S
O366 C368 1.247 . S
O367 Cd363 2.439 . S
O367 C368 1.208 . S
C368 O366 1.247 . S
C368 O367 1.208 . S
C369 O374 1.247 . S
C369 O375 1.208 . S
C370 O362 1.315 . S
C370 O365 1.279 . S
C371 O372 1.315 . S
C371 O373 1.279 . S
O372 Cd364 2.223 . S
O372 C371 1.315 . S
O373 Cd363 2.240 . S
O373 C371 1.279 . S
O374 Cd364 2.297 . S
O374 C369 1.247 . S
O375 Cd364 2.439 . S
O375 C369 1.208 . S
C376 C377 1.369 . S
C376 C378 1.419 . S
C376 H380 0.930 . S
C377 C376 1.369 . S
C377 C386 1.429 . S
C378 C376 1.419 . S
C378 C379 1.363 . S
C378 H381 0.929 . S
C379 C378 1.363 . S
C379 C385 1.428 . S
H380 C376 0.930 . S
H381 C378 0.929 . S
S382 N383 1.613 . S
S382 N384 1.610 . S
N383 S382 1.613 . S
N383 C386 1.350 . S
N384 S382 1.610 . S
N384 C385 1.351 . S
C385 C379 1.428 . S
C385 N384 1.351 . S
C385 C386 1.434 . S
C386 C377 1.429 . S
C386 N383 1.350 . S
C386 C385 1.434 . S
C387 C388 1.369 1_455 S
C387 C389 1.419 . S
C387 H391 0.930 . S
C388 C387 1.369 1_655 S
C388 C397 1.429 . S
C389 C387 1.419 . S
C389 C390 1.363 . S
C389 H392 0.929 . S
C390 C389 1.363 . S
C390 C396 1.428 . S
H391 C387 0.930 . S
H392 C389 0.929 . S
S393 N394 1.613 . S
S393 N395 1.610 1_655 S
N394 S393 1.613 . S
N394 C397 1.350 . S
N395 S393 1.610 1_455 S
N395 C396 1.351 . S
C396 C390 1.428 . S
C396 N395 1.351 . S
C396 C397 1.434 1_455 S
C397 C388 1.429 . S
C397 N394 1.350 . S
C397 C396 1.434 1_655 S
C398 C399 1.369 . S
C398 C400 1.419 . S
C398 H402 0.930 . S
C399 C398 1.369 . S
C399 C408 1.429 . S
C400 C398 1.419 . S
C400 C401 1.363 . S
C400 H403 0.929 . S
C401 C400 1.363 . S
C401 C407 1.428 . S
H402 C398 0.930 . S
H403 C400 0.929 . S
S404 N405 1.613 . S
S404 N406 1.610 . S
N405 S404 1.613 . S
N405 C408 1.350 . S
N406 S404 1.610 . S
N406 C407 1.351 . S
C407 C401 1.428 . S
C407 N406 1.351 . S
C407 C408 1.434 . S
C408 C399 1.429 . S
C408 N405 1.350 . S
C408 C407 1.434 . S
C409 C410 1.369 1_655 S
C409 C411 1.419 . S
C409 H413 0.930 . S
C410 C409 1.369 1_455 S
C410 C419 1.429 1_565 S
C411 C409 1.419 . S
C411 C412 1.363 1_565 S
C411 H414 0.929 . S
C412 C411 1.363 1_545 S
C412 C418 1.428 . S
H413 C409 0.930 . S
H414 C411 0.929 . S
S415 N416 1.613 . S
S415 N417 1.610 1_455 S
N416 S415 1.613 . S
N416 C419 1.350 . S
N417 S415 1.610 1_655 S
N417 C418 1.351 . S
C418 C412 1.428 . S
C418 N417 1.351 . S
C418 C419 1.434 1_655 S
C419 C410 1.429 1_545 S
C419 N416 1.350 . S
C419 C418 1.434 1_455 S
C420 C421 1.369 . S
C420 C422 1.419 . S
C420 H424 0.930 . S
C421 C420 1.369 . S
C421 C430 1.429 . S
C422 C420 1.419 . S
C422 C423 1.363 . S
C422 H425 0.929 . S
C423 C422 1.363 . S
C423 C429 1.428 . S
H424 C420 0.930 . S
H425 C422 0.929 . S
S426 N427 1.613 . S
S426 N428 1.610 . S
N427 S426 1.613 . S
N427 C430 1.350 . S
N428 S426 1.610 . S
N428 C429 1.351 . S
C429 C423 1.428 . S
C429 N428 1.351 . S
C429 C430 1.434 . S
C430 C421 1.429 . S
C430 N427 1.350 . S
C430 C429 1.434 . S
C431 C432 1.369 . S
C431 C433 1.419 . S
C431 H435 0.930 . S
C432 C431 1.369 . S
C432 C441 1.429 . S
C433 C431 1.419 . S
C433 C434 1.363 . S
C433 H436 0.929 . S
C434 C433 1.363 . S
C434 C440 1.428 . S
H435 C431 0.930 . S
H436 C433 0.929 . S
S437 N438 1.613 . S
S437 N439 1.610 . S
N438 S437 1.613 . S
N438 C441 1.350 . S
N439 S437 1.610 . S
N439 C440 1.351 . S
C440 C434 1.428 . S
C440 N439 1.351 . S
C440 C441 1.434 . S
C441 C432 1.429 . S
C441 N438 1.350 . S
C441 C440 1.434 . S
C442 C443 1.369 . S
C442 C444 1.419 . S
C442 H446 0.930 . S
C443 C442 1.369 . S
C443 C452 1.429 . S
C444 C442 1.419 . S
C444 C445 1.363 . S
C444 H447 0.929 . S
C445 C444 1.363 . S
C445 C451 1.428 . S
H446 C442 0.930 . S
H447 C444 0.929 . S
S448 N449 1.613 . S
S448 N450 1.610 . S
N449 S448 1.613 . S
N449 C452 1.350 . S
N450 S448 1.610 . S
N450 C451 1.351 . S
C451 C445 1.428 . S
C451 N450 1.351 . S
C451 C452 1.434 . S
C452 C443 1.429 . S
C452 N449 1.350 . S
C452 C451 1.434 . S
C453 C454 1.369 . S
C453 C455 1.419 . S
C453 H457 0.930 . S
C454 C453 1.369 . S
C454 C463 1.429 . S
C455 C453 1.419 . S
C455 C456 1.363 . S
C455 H458 0.914 1_565 S
C456 C455 1.363 . S
C456 C462 1.428 . S
H457 C453 0.930 . S
H458 C455 0.914 1_545 S
S459 N460 1.613 . S
S459 N461 1.610 . S
N460 S459 1.613 . S
N460 C463 1.350 . S
N461 S459 1.610 . S
N461 C462 1.351 . S
C462 C456 1.428 . S
C462 N461 1.351 . S
C462 C463 1.434 . S
C463 C454 1.429 . S
C463 N460 1.350 . S
C463 C462 1.434 . S
C464 C465 1.369 . S
C464 C466 1.419 . S
C464 H468 0.930 . S
C465 C464 1.369 . S
C465 C474 1.429 . S
C466 C464 1.419 . S
C466 C467 1.363 . S
C466 H469 0.929 . S
C467 C466 1.363 . S
C467 C473 1.428 . S
H468 C464 0.930 . S
H469 C466 0.929 . S
S470 N471 1.613 . S
S470 N472 1.610 . S
N471 S470 1.613 . S
N471 C474 1.350 . S
N472 S470 1.610 . S
N472 C473 1.351 . S
C473 C467 1.428 . S
C473 N472 1.351 . S
C473 C474 1.434 . S
C474 C465 1.429 . S
C474 N471 1.350 . S
C474 C473 1.434 . S
C475 C476 1.369 . S
C475 C477 1.419 . S
C475 H479 0.930 . S
C476 C475 1.369 . S
C476 C485 1.429 . S
C477 C475 1.419 . S
C477 C478 1.363 . S
C477 H480 0.929 . S
C478 C477 1.363 . S
C478 C484 1.428 . S
H479 C475 0.930 . S
H480 C477 0.929 . S
S481 N482 1.613 . S
S481 N483 1.610 . S
N482 S481 1.613 . S
N482 C485 1.350 . S
N483 S481 1.610 . S
N483 C484 1.351 . S
C484 C478 1.428 . S
C484 N483 1.351 . S
C484 C485 1.434 . S
C485 C476 1.429 . S
C485 N482 1.350 . S
C485 C484 1.434 . S
C486 C487 1.369 . S
C486 C488 1.419 . S
C486 H490 0.930 . S
C487 C486 1.369 . S
C487 C496 1.429 . S
C488 C486 1.419 . S
C488 C489 1.363 . S
C488 H491 0.929 . S
C489 C488 1.363 . S
C489 C495 1.428 . S
H490 C486 0.930 . S
H491 C488 0.929 . S
S492 N493 1.613 . S
S492 N494 1.610 . S
N493 S492 1.613 . S
N493 C496 1.350 . S
N494 S492 1.610 . S
N494 C495 1.351 . S
C495 C489 1.428 . S
C495 N494 1.351 . S
C495 C496 1.434 . S
C496 C487 1.429 . S
C496 N493 1.350 . S
C496 C495 1.434 . S
C497 C498 1.369 . S
C497 C499 1.419 . S
C497 H501 0.930 . S
C498 C497 1.369 . S
C498 C507 1.429 . S
C499 C497 1.419 . S
C499 C500 1.363 . S
C499 H502 0.929 . S
C500 C499 1.363 . S
C500 C506 1.428 . S
H501 C497 0.930 . S
H502 C499 0.929 . S
S503 N504 1.613 . S
S503 N505 1.610 . S
N504 S503 1.613 . S
N504 C507 1.350 . S
N505 S503 1.610 . S
N505 C506 1.351 . S
C506 C500 1.428 . S
C506 N505 1.351 . S
C506 C507 1.434 . S
C507 C498 1.429 . S
C507 N504 1.350 . S
C507 C506 1.434 . S
C508 C509 1.369 . S
C508 C510 1.419 . S
C508 H512 0.930 . S
C509 C508 1.369 . S
C509 C518 1.429 . S
C510 C508 1.419 . S
C510 C511 1.363 . S
C510 H513 0.929 . S
C511 C510 1.363 . S
C511 C517 1.428 . S
H512 C508 0.930 . S
H513 C510 0.929 . S
S514 N515 1.613 . S
S514 N516 1.610 . S
N515 S514 1.613 . S
N515 C518 1.350 . S
N516 S514 1.610 . S
N516 C517 1.351 . S
C517 C511 1.428 . S
C517 N516 1.351 . S
C517 C518 1.434 . S
C518 C509 1.429 . S
C518 N515 1.350 . S
C518 C517 1.434 . S
C519 C520 1.369 . S
C519 C521 1.419 . S
C519 H523 0.930 . S
C520 C519 1.369 . S
C520 C529 1.429 . S
C521 C519 1.419 . S
C521 C522 1.363 . S
C521 H524 0.929 . S
C522 C521 1.363 . S
C522 C528 1.428 . S
H523 C519 0.930 . S
H524 C521 0.929 . S
S525 N526 1.613 . S
S525 N527 1.610 . S
N526 S525 1.613 . S
N526 C529 1.350 . S
N527 S525 1.610 . S
N527 C528 1.351 . S
C528 C522 1.428 . S
C528 N527 1.351 . S
C528 C529 1.434 . S
C529 C520 1.429 . S
C529 N526 1.350 . S
C529 C528 1.434 . S
C530 C531 1.369 . S
C530 C532 1.419 . S
C530 H534 0.930 . S
C531 C530 1.369 . S
C531 C540 1.429 . S
C532 C530 1.419 . S
C532 C533 1.363 . S
C532 H535 0.929 . S
C533 C532 1.363 . S
C533 C539 1.428 . S
H534 C530 0.930 . S
H535 C532 0.929 . S
S536 N537 1.613 . S
S536 N538 1.610 . S
N537 S536 1.613 . S
N537 C540 1.350 . S
N538 S536 1.610 . S
N538 C539 1.351 . S
C539 C533 1.428 . S
C539 N538 1.351 . S
C539 C540 1.434 . S
C540 C531 1.429 . S
C540 N537 1.350 . S
C540 C539 1.434 . S
C541 C542 1.369 . S
C541 C543 1.419 . S
C541 H545 0.930 1_655 S
C542 C541 1.369 . S
C542 C551 1.429 . S
C543 C541 1.419 . S
C543 C544 1.363 . S
C543 H546 0.929 1_655 S
C544 C543 1.363 . S
C544 C550 1.428 . S
H545 C541 0.930 1_455 S
H546 C543 0.929 1_455 S
S547 N548 1.613 . S
S547 N549 1.610 . S
N548 S547 1.613 . S
N548 C551 1.350 . S
N549 S547 1.610 . S
N549 C550 1.351 . S
C550 C544 1.428 . S
C550 N549 1.351 . S
C550 C551 1.434 . S
C551 C542 1.429 . S
C551 N548 1.350 . S
C551 C550 1.434 . S
C552 C553 1.369 . S
C552 C554 1.419 . S
C552 H556 0.930 . S
C553 C552 1.369 . S
C553 C562 1.429 . S
C554 C552 1.419 . S
C554 C555 1.363 . S
C554 H557 0.929 . S
C555 C554 1.363 . S
C555 C561 1.428 . S
H556 C552 0.930 . S
H557 C554 0.929 . S
S558 N559 1.613 . S
S558 N560 1.610 . S
N559 S558 1.613 . S
N559 C562 1.350 . S
N560 S558 1.610 . S
N560 C561 1.351 . S
C561 C555 1.428 . S
C561 N560 1.351 . S
C561 C562 1.434 . S
C562 C553 1.429 . S
C562 N559 1.350 . S
C562 C561 1.434 . S
C563 C564 1.369 . S
C563 C565 1.419 . S
C563 H567 0.930 . S
C564 C563 1.369 . S
C564 C573 1.429 . S
C565 C563 1.419 . S
C565 C566 1.363 . S
C565 H568 0.929 . S
C566 C565 1.363 . S
C566 C572 1.428 . S
H567 C563 0.930 . S
H568 C565 0.929 . S
S569 N570 1.613 . S
S569 N571 1.610 . S
N570 S569 1.613 . S
N570 C573 1.350 . S
N571 S569 1.610 . S
N571 C572 1.351 . S
C572 C566 1.428 . S
C572 N571 1.351 . S
C572 C573 1.434 . S
C573 C564 1.429 . S
C573 N570 1.350 . S
C573 C572 1.434 . S
C574 C575 1.369 . S
C574 C576 1.419 1_545 S
C574 H578 0.930 1_545 S
C575 C574 1.369 . S
C575 C584 1.429 1_556 S
C576 C574 1.419 1_565 S
C576 C577 1.363 1_556 S
C576 H579 0.929 . S
C577 C576 1.363 1_554 S
C577 C583 1.428 1_565 S
H578 C574 0.930 1_565 S
H579 C576 0.929 . S
S580 N581 1.613 . S
S580 N582 1.610 . S
N581 S580 1.613 . S
N581 C584 1.350 . S
N582 S580 1.610 . S
N582 C583 1.351 . S
C583 C577 1.428 1_545 S
C583 N582 1.351 . S
C583 C584 1.434 . S
C584 C575 1.429 1_554 S
C584 N581 1.350 . S
C584 C583 1.434 . S
C585 C586 1.369 . S
C585 C587 1.419 . S
C585 H589 0.930 . S
C586 C585 1.369 . S
C586 C595 1.429 . S
C587 C585 1.419 . S
C587 C588 1.363 . S
C587 H590 0.929 . S
C588 C587 1.363 . S
C588 C594 1.428 . S
H589 C585 0.930 . S
H590 C587 0.929 . S
S591 N592 1.613 . S
S591 N593 1.610 . S
N592 S591 1.613 . S
N592 C595 1.350 . S
N593 S591 1.610 . S
N593 C594 1.351 . S
C594 C588 1.428 . S
C594 N593 1.351 . S
C594 C595 1.434 . S
C595 C586 1.429 . S
C595 N592 1.350 . S
C595 C594 1.434 . S
C596 C597 1.369 1_545 S
C596 C598 1.419 . S
C596 H600 0.930 . S
C597 C596 1.369 1_565 S
C597 C606 1.429 . S
C598 C596 1.419 . S
C598 C599 1.363 . S
C598 H601 0.929 . S
C599 C598 1.363 . S
C599 C605 1.428 . S
H600 C596 0.930 . S
H601 C598 0.929 . S
S602 N603 1.613 . S
S602 N604 1.610 1_565 S
N603 S602 1.613 . S
N603 C606 1.350 . S
N604 S602 1.610 1_545 S
N604 C605 1.351 . S
C605 C599 1.428 . S
C605 N604 1.351 . S
C605 C606 1.434 1_545 S
C606 C597 1.429 . S
C606 N603 1.350 . S
C606 C605 1.434 1_565 S
C607 C608 1.369 . S
C607 C609 1.419 . S
C607 H611 0.930 . S
C608 C607 1.369 . S
C608 C617 1.429 . S
C609 C607 1.419 . S
C609 C610 1.363 . S
C609 H612 0.929 . S
C610 C609 1.363 . S
C610 C616 1.428 . S
H611 C607 0.930 . S
H612 C609 0.929 . S
S613 N614 1.613 . S
S613 N615 1.610 . S
N614 S613 1.613 . S
N614 C617 1.350 . S
N615 S613 1.610 . S
N615 C616 1.351 . S
C616 C610 1.428 . S
C616 N615 1.351 . S
C616 C617 1.434 . S
C617 C608 1.429 . S
C617 N614 1.350 . S
C617 C616 1.434 . S
C618 C619 1.369 1_545 S
C618 C620 1.419 . S
C618 H622 0.929 1_545 S
C619 C618 1.369 1_565 S
C619 C628 1.429 . S
C620 C618 1.419 . S
C620 C621 1.363 . S
C620 H623 0.929 . S
C621 C620 1.363 . S
C621 C627 1.428 . S
H622 C618 0.929 1_565 S
H623 C620 0.929 . S
S624 N625 1.613 . S
S624 N626 1.610 1_565 S
N625 S624 1.613 . S
N625 C628 1.350 . S
N626 S624 1.610 1_545 S
N626 C627 1.351 . S
C627 C621 1.428 . S
C627 N626 1.351 . S
C627 C628 1.434 1_545 S
C628 C619 1.429 . S
C628 N625 1.350 . S
C628 C627 1.434 1_565 S
C629 C630 1.369 . S
C629 C631 1.419 . S
C629 H633 0.930 . S
C630 C629 1.369 . S
C630 C639 1.429 . S
C631 C629 1.419 . S
C631 C632 1.363 . S
C631 H634 0.929 . S
C632 C631 1.363 . S
C632 C638 1.428 . S
H633 C629 0.930 . S
H634 C631 0.929 . S
S635 N636 1.613 . S
S635 N637 1.610 . S
N636 S635 1.613 . S
N636 C639 1.350 . S
N637 S635 1.610 . S
N637 C638 1.351 . S
C638 C632 1.428 . S
C638 N637 1.351 . S
C638 C639 1.434 . S
C639 C630 1.429 . S
C639 N636 1.350 . S
C639 C638 1.434 . S
C640 C641 1.369 . S
C640 C642 1.419 . S
C640 H644 0.930 . S
C641 C640 1.369 . S
C641 C650 1.429 . S
C642 C640 1.419 . S
C642 C643 1.363 . S
C642 H645 0.929 . S
C643 C642 1.363 . S
C643 C649 1.428 . S
H644 C640 0.930 . S
H645 C642 0.929 . S
S646 N647 1.613 . S
S646 N648 1.610 . S
N647 S646 1.613 . S
N647 C650 1.350 . S
N648 S646 1.610 . S
N648 C649 1.351 . S
C649 C643 1.428 . S
C649 N648 1.351 . S
C649 C650 1.434 . S
C650 C641 1.429 . S
C650 N647 1.350 . S
C650 C649 1.434 . S
C651 C652 1.369 . S
C651 C653 1.419 . S
C651 H655 0.930 . S
C652 C651 1.369 . S
C652 C661 1.429 . S
C653 C651 1.419 . S
C653 C654 1.363 . S
C653 H656 0.929 . S
C654 C653 1.363 . S
C654 C660 1.428 . S
H655 C651 0.930 . S
H656 C653 0.929 . S
S657 N658 1.613 . S
S657 N659 1.610 . S
N658 S657 1.613 . S
N658 C661 1.350 . S
N659 S657 1.610 . S
N659 C660 1.351 . S
C660 C654 1.428 . S
C660 N659 1.351 . S
C660 C661 1.434 . S
C661 C652 1.429 . S
C661 N658 1.350 . S
C661 C660 1.434 . S
C662 C663 1.369 . S
C662 C664 1.419 . S
C662 H666 0.930 . S
C663 C662 1.369 . S
C663 C672 1.429 . S
C664 C662 1.419 . S
C664 C665 1.363 . S
C664 H667 0.929 . S
C665 C664 1.363 . S
C665 C671 1.428 . S
H666 C662 0.930 . S
H667 C664 0.929 . S
S668 N669 1.613 . S
S668 N670 1.610 . S
N669 S668 1.613 . S
N669 C672 1.350 . S
N670 S668 1.610 . S
N670 C671 1.351 . S
C671 C665 1.428 . S
C671 N670 1.351 . S
C671 C672 1.434 . S
C672 C663 1.429 . S
C672 N669 1.350 . S
C672 C671 1.434 . S
C673 C674 1.369 . S
C673 C675 1.419 . S
C673 H677 0.930 . S
C674 C673 1.369 . S
C674 C683 1.429 . S
C675 C673 1.419 . S
C675 C676 1.363 . S
C675 H678 0.929 . S
C676 C675 1.363 . S
C676 C682 1.428 . S
H677 C673 0.930 . S
H678 C675 0.929 . S
S679 N680 1.613 . S
S679 N681 1.610 . S
N680 S679 1.613 . S
N680 C683 1.350 . S
N681 S679 1.610 . S
N681 C682 1.351 . S
C682 C676 1.428 . S
C682 N681 1.351 . S
C682 C683 1.434 . S
C683 C674 1.429 . S
C683 N680 1.350 . S
C683 C682 1.434 . S
C684 C685 1.369 . S
C684 C686 1.419 . S
C684 H688 0.930 . S
C685 C684 1.369 . S
C685 C694 1.429 . S
C686 C684 1.419 . S
C686 C687 1.363 . S
C686 H689 0.929 . S
C687 C686 1.363 . S
C687 C693 1.428 . S
H688 C684 0.930 . S
H689 C686 0.929 . S
S690 N691 1.613 . S
S690 N692 1.610 . S
N691 S690 1.613 . S
N691 C694 1.350 . S
N692 S690 1.610 . S
N692 C693 1.351 . S
C693 C687 1.428 . S
C693 N692 1.351 . S
C693 C694 1.434 . S
C694 C685 1.429 . S
C694 N691 1.350 . S
C694 C693 1.434 . S
C695 C696 1.369 . S
C695 C697 1.419 1_455 S
C695 H699 0.930 . S
C696 C695 1.369 . S
C696 C705 1.429 . S
C697 C695 1.419 1_655 S
C697 C698 1.363 . S
C697 H700 0.929 . S
C698 C697 1.363 . S
C698 C704 1.428 1_655 S
H699 C695 0.930 . S
H700 C697 0.929 . S
S701 N702 1.613 . S
S701 N703 1.610 . S
N702 S701 1.613 . S
N702 C705 1.350 . S
N703 S701 1.610 . S
N703 C704 1.351 . S
C704 C698 1.428 1_455 S
C704 N703 1.351 . S
C704 C705 1.434 . S
C705 C696 1.429 . S
C705 N702 1.350 . S
C705 C704 1.434 . S
C706 C707 1.369 . S
C706 C708 1.419 . S
C706 H710 0.930 . S
C707 C706 1.369 . S
C707 C716 1.429 . S
C708 C706 1.419 . S
C708 C709 1.363 . S
C708 H711 0.929 . S
C709 C708 1.363 . S
C709 C715 1.428 . S
H710 C706 0.930 . S
H711 C708 0.929 . S
S712 N713 1.613 . S
S712 N714 1.610 . S
N713 S712 1.613 . S
N713 C716 1.350 . S
N714 S712 1.610 . S
N714 C715 1.351 . S
C715 C709 1.428 . S
C715 N714 1.351 . S
C715 C716 1.434 . S
C716 C707 1.429 . S
C716 N713 1.350 . S
C716 C715 1.434 . S
C717 C718 1.369 . S
C717 C719 1.419 . S
C717 H721 0.930 . S
C718 C717 1.369 . S
C718 C727 1.429 . S
C719 C717 1.419 . S
C719 C720 1.363 1_655 S
C719 H722 0.929 . S
C720 C719 1.363 1_455 S
C720 C726 1.428 . S
H721 C717 0.930 . S
H722 C719 0.929 . S
S723 N724 1.613 . S
S723 N725 1.610 . S
N724 S723 1.613 . S
N724 C727 1.350 1_455 S
N725 S723 1.610 . S
N725 C726 1.351 . S
C726 C720 1.428 . S
C726 N725 1.351 . S
C726 C727 1.434 1_455 S
C727 C718 1.429 . S
C727 N724 1.350 1_655 S
C727 C726 1.434 1_655 S
C728 C729 1.369 . S
C728 C730 1.419 . S
C728 H732 0.930 . S
C729 C728 1.369 . S
C729 C738 1.429 . S
C730 C728 1.419 . S
C730 C731 1.363 . S
C730 H733 0.929 . S
C731 C730 1.363 . S
C731 C737 1.428 . S
H732 C728 0.930 . S
H733 C730 0.929 . S
S734 N735 1.613 . S
S734 N736 1.610 . S
N735 S734 1.613 . S
N735 C738 1.350 . S
N736 S734 1.610 . S
N736 C737 1.351 . S
C737 C731 1.428 . S
C737 N736 1.351 . S
C737 C738 1.434 . S
C738 C729 1.429 . S
C738 N735 1.350 . S
C738 C737 1.434 . S
C739 C740 1.369 . S
C739 C741 1.419 . S
C739 H743 0.930 . S
C740 C739 1.369 . S
C740 C749 1.429 . S
C741 C739 1.419 . S
C741 C742 1.363 . S
C741 H744 0.929 1_554 S
C742 C741 1.363 . S
C742 C748 1.428 . S
H743 C739 0.930 . S
H744 C741 0.929 1_556 S
S745 N746 1.613 . S
S745 N747 1.610 . S
N746 S745 1.613 . S
N746 C749 1.350 . S
N747 S745 1.610 . S
N747 C748 1.351 . S
C748 C742 1.428 . S
C748 N747 1.351 . S
C748 C749 1.434 . S
C749 C740 1.429 . S
C749 N746 1.350 . S
C749 C748 1.434 . S
C750 C751 1.369 . S
C750 C752 1.419 . S
C750 H754 0.930 . S
C751 C750 1.369 . S
C751 C760 1.429 . S
C752 C750 1.419 . S
C752 C753 1.363 . S
C752 H755 0.929 . S
C753 C752 1.363 . S
C753 C759 1.428 . S
H754 C750 0.930 . S
H755 C752 0.929 . S
S756 N757 1.613 . S
S756 N758 1.610 . S
N757 S756 1.613 . S
N757 C760 1.350 . S
N758 S756 1.610 . S
N758 C759 1.351 . S
C759 C753 1.428 . S
C759 N758 1.351 . S
C759 C760 1.434 . S
C760 C751 1.429 . S
C760 N757 1.350 . S
C760 C759 1.434 . S
C761 C762 1.369 . S
C761 C763 1.419 . S
C761 H765 0.930 . S
C762 C761 1.369 . S
C762 C771 1.429 . S
C763 C761 1.419 . S
C763 C764 1.363 . S
C763 H766 0.929 . S
C764 C763 1.363 . S
C764 C770 1.428 . S
H765 C761 0.930 . S
H766 C763 0.929 . S
S767 N768 1.613 . S
S767 N769 1.610 . S
N768 S767 1.613 . S
N768 C771 1.350 . S
N769 S767 1.610 . S
N769 C770 1.351 . S
C770 C764 1.428 . S
C770 N769 1.351 . S
C770 C771 1.434 . S
C771 C762 1.429 . S
C771 N768 1.350 . S
C771 C770 1.434 . S
C772 C773 1.369 . S
C772 C774 1.419 . S
C772 H776 0.930 . S
C773 C772 1.369 . S
C773 C782 1.429 . S
C774 C772 1.419 . S
C774 C775 1.363 . S
C774 H777 0.929 . S
C775 C774 1.363 . S
C775 C781 1.428 . S
H776 C772 0.930 . S
H777 C774 0.929 . S
S778 N779 1.613 . S
S778 N780 1.610 . S
N779 S778 1.613 . S
N779 C782 1.350 . S
N780 S778 1.610 . S
N780 C781 1.351 . S
C781 C775 1.428 . S
C781 N780 1.351 . S
C781 C782 1.434 . S
C782 C773 1.429 . S
C782 N779 1.350 . S
C782 C781 1.434 . S
C783 C784 1.369 1_554 S
C783 C785 1.419 . S
C783 H787 0.930 . S
C784 C783 1.369 1_556 S
C784 C793 1.429 . S
C785 C783 1.419 . S
C785 C786 1.363 . S
C785 H788 0.929 . S
C786 C785 1.363 . S
C786 C792 1.451 . S
H787 C783 0.930 . S
H788 C785 0.929 . S
S789 N790 1.613 . S
S789 N791 1.610 . S
N790 S789 1.613 . S
N790 C793 1.350 . S
N791 S789 1.610 . S
N791 C792 1.351 1_556 S
C792 C786 1.451 . S
C792 N791 1.351 1_554 S
C792 C793 1.409 1_554 S
C793 C784 1.429 . S
C793 N790 1.350 . S
C793 C792 1.409 1_556 S
C794 C795 1.369 . S
C794 C796 1.419 . S
C794 H798 0.930 . S
C795 C794 1.369 . S
C795 C804 1.429 . S
C796 C794 1.419 . S
C796 C797 1.363 . S
C796 H799 0.929 . S
C797 C796 1.363 . S
C797 C803 1.428 . S
H798 C794 0.930 . S
H799 C796 0.929 . S
S800 N801 1.613 . S
S800 N802 1.610 . S
N801 S800 1.613 . S
N801 C804 1.350 . S
N802 S800 1.610 . S
N802 C803 1.351 . S
C803 C797 1.428 . S
C803 N802 1.351 . S
C803 C804 1.434 . S
C804 C795 1.429 . S
C804 N801 1.350 . S
C804 C803 1.434 . S
C805 C806 1.369 . S
C805 C807 1.419 1_556 S
C805 H809 0.930 . S
C806 C805 1.369 . S
C806 C815 1.429 1_556 S
C807 C805 1.419 1_554 S
C807 C808 1.363 . S
C807 H810 0.929 . S
C808 C807 1.363 . S
C808 C814 1.428 . S
H809 C805 0.930 . S
H810 C807 0.929 . S
S811 N812 1.613 . S
S811 N813 1.610 . S
N812 S811 1.613 . S
N812 C815 1.350 . S
N813 S811 1.610 . S
N813 C814 1.351 . S
C814 C808 1.428 . S
C814 N813 1.351 . S
C814 C815 1.434 . S
C815 C806 1.429 1_554 S
C815 N812 1.350 . S
C815 C814 1.434 . S
C816 C817 1.369 . S
C816 C818 1.419 . S
C816 H820 0.930 . S
C817 C816 1.369 . S
C817 C826 1.429 . S
C818 C816 1.419 . S
C818 C819 1.363 . S
C818 H821 0.929 . S
C819 C818 1.363 . S
C819 C825 1.428 . S
H820 C816 0.930 . S
H821 C818 0.929 . S
S822 N823 1.613 . S
S822 N824 1.610 . S
N823 S822 1.613 . S
N823 C826 1.350 . S
N824 S822 1.610 . S
N824 C825 1.351 . S
C825 C819 1.428 . S
C825 N824 1.351 . S
C825 C826 1.434 . S
C826 C817 1.429 . S
C826 N823 1.350 . S
C826 C825 1.434 . S
C827 C828 1.369 . S
C827 C829 1.419 . S
C827 H831 0.930 . S
C828 C827 1.369 . S
C828 C837 1.429 . S
C829 C827 1.419 . S
C829 C830 1.363 . S
C829 H832 0.929 . S
C830 C829 1.363 . S
C830 C836 1.428 . S
H831 C827 0.930 . S
H832 C829 0.929 . S
S833 N834 1.613 . S
S833 N835 1.610 . S
N834 S833 1.613 . S
N834 C837 1.350 . S
N835 S833 1.610 . S
N835 C836 1.351 . S
C836 C830 1.428 . S
C836 N835 1.351 . S
C836 C837 1.434 . S
C837 C828 1.429 . S
C837 N834 1.350 . S
C837 C836 1.434 . S
C838 C839 1.369 . S
C838 C840 1.419 . S
C838 H842 0.930 . S
C839 C838 1.369 . S
C839 C848 1.429 . S
C840 C838 1.419 . S
C840 C841 1.363 . S
C840 H843 0.929 . S
C841 C840 1.363 . S
C841 C847 1.428 . S
H842 C838 0.930 . S
H843 C840 0.929 . S
S844 N845 1.613 . S
S844 N846 1.610 . S
N845 S844 1.613 . S
N845 C848 1.350 . S
N846 S844 1.610 . S
N846 C847 1.351 . S
C847 C841 1.428 . S
C847 N846 1.351 . S
C847 C848 1.434 . S
C848 C839 1.429 . S
C848 N845 1.350 . S
C848 C847 1.434 . S
C849 C850 1.369 . S
C849 C851 1.419 . S
C849 H853 0.930 . S
C850 C849 1.369 . S
C850 C859 1.429 . S
C851 C849 1.419 . S
C851 C852 1.363 . S
C851 H854 0.929 . S
C852 C851 1.363 . S
C852 C858 1.428 . S
H853 C849 0.930 . S
H854 C851 0.929 . S
S855 N856 1.613 . S
S855 N857 1.610 . S
N856 S855 1.613 . S
N856 C859 1.350 . S
N857 S855 1.610 . S
N857 C858 1.351 . S
C858 C852 1.428 . S
C858 N857 1.351 . S
C858 C859 1.434 . S
C859 C850 1.429 . S
C859 N856 1.350 . S
C859 C858 1.434 . S
C860 C861 1.369 . S
C860 C862 1.419 . S
C860 H864 0.930 . S
C861 C860 1.369 . S
C861 C870 1.429 . S
C862 C860 1.419 . S
C862 C863 1.363 . S
C862 H865 0.929 . S
C863 C862 1.363 . S
C863 C869 1.428 . S
H864 C860 0.930 . S
H865 C862 0.929 . S
S866 N867 1.613 . S
S866 N868 1.610 . S
N867 S866 1.613 . S
N867 C870 1.350 . S
N868 S866 1.610 . S
N868 C869 1.351 . S
C869 C863 1.428 . S
C869 N868 1.351 . S
C869 C870 1.434 . S
C870 C861 1.429 . S
C870 N867 1.350 . S
C870 C869 1.434 . S
C871 C872 1.369 . S
C871 C873 1.419 . S
C871 H875 0.930 . S
C872 C871 1.369 . S
C872 C881 1.429 . S
C873 C871 1.419 . S
C873 C874 1.363 . S
C873 H876 0.929 . S
C874 C873 1.363 . S
C874 C880 1.428 . S
H875 C871 0.930 . S
H876 C873 0.929 . S
S877 N878 1.613 . S
S877 N879 1.610 . S
N878 S877 1.613 . S
N878 C881 1.350 . S
N879 S877 1.610 . S
N879 C880 1.351 . S
C880 C874 1.428 . S
C880 N879 1.351 . S
C880 C881 1.434 . S
C881 C872 1.429 . S
C881 N878 1.350 . S
C881 C880 1.434 . S
C882 C883 1.369 . S
C882 C884 1.419 . S
C882 H886 0.930 . S
C883 C882 1.369 . S
C883 C892 1.429 . S
C884 C882 1.419 . S
C884 C885 1.363 . S
C884 H887 0.929 . S
C885 C884 1.363 . S
C885 C891 1.428 . S
H886 C882 0.930 . S
H887 C884 0.929 . S
S888 N889 1.613 1_556 S
S888 N890 1.610 . S
N889 S888 1.613 1_554 S
N889 C892 1.350 . S
N890 S888 1.610 . S
N890 C891 1.351 1_556 S
C891 C885 1.428 . S
C891 N890 1.351 1_554 S
C891 C892 1.434 . S
C892 C883 1.429 . S
C892 N889 1.350 . S
C892 C891 1.434 . S
C893 C894 1.369 . S
C893 C895 1.419 . S
C893 H897 0.930 . S
C894 C893 1.369 . S
C894 C903 1.429 . S
C895 C893 1.419 . S
C895 C896 1.363 . S
C895 H898 0.929 . S
C896 C895 1.363 . S
C896 C902 1.428 . S
H897 C893 0.930 . S
H898 C895 0.929 . S
S899 N900 1.613 . S
S899 N901 1.610 1_545 S
N900 S899 1.613 . S
N900 C903 1.350 . S
N901 S899 1.610 1_565 S
N901 C902 1.351 1_565 S
C902 C896 1.428 . S
C902 N901 1.351 1_545 S
C902 C903 1.434 . S
C903 C894 1.429 . S
C903 N900 1.350 . S
C903 C902 1.434 . S
C379 C216 1.445 1_556 S
C377 N66 1.429 . S
C390 C231 1.694 . S
C388 N79 1.714 . S
C399 N92 1.784 . S
C401 C244 1.824 . S
C412 C258 1.412 . S
C410 N54 1.489 . S
C423 C270 1.630 . S
C421 N131 1.752 . S
C434 C284 1.159 . S
C432 N158 1.167 . S
C443 N145 1.689 . S
C445 C298 1.651 . S
C456 C313 1.599 . S
C454 N118 1.614 . S
C465 N148 1.865 . S
C467 C329 1.812 . S
C478 C342 1.523 . S
C476 N122 1.503 . S
C487 N132 1.503 . S
C489 C327 1.416 . S
C500 C340 1.605 . S
C498 N161 1.542 . S
C509 N96 2.012 . S
C511 C356 2.030 . S
C520 N53 1.644 . S
C522 C355 1.618 . S
C531 N67 1.385 . S
C533 C354 1.306 . S
C542 N83 1.360 . S
C544 C357 1.404 . S
C553 N44 1.602 . S
C555 C259 1.649 1_565 S
C564 N187 1.475 . S
C566 C257 1.481 . S
C577 C217 1.322 . S
C575 N197 1.319 . S
C588 C228 1.496 . S
C586 N106 1.509 . S
C597 N57 1.833 . S
C599 C273 1.855 . S
C610 C314 1.777 . S
C608 N144 1.771 . S
C621 C271 1.476 . S
C619 N119 1.434 . S
C632 C299 1.629 . S
C630 N157 1.638 . S
C643 C300 1.444 . S
C641 N183 1.434 . S
C652 N196 1.718 . S
C654 C315 1.697 . S
C663 N105 1.784 . S
C665 C272 1.825 . S
C676 C286 1.409 . S
C674 N171 1.495 . S
C685 N40 1.752 . S
C687 C242 1.630 . S
C698 C256 1.158 . S
C696 N2 1.164 . S
C709 C214 1.651 . S
C707 N15 1.690 . S
C720 C229 1.596 . S
C718 N27 1.610 . S
C729 N18 1.864 . S
C731 C343 1.810 . S
C740 N31 1.505 . S
C742 C328 1.522 1_554 S
C751 N41 1.505 . S
C753 C341 1.413 . S
C762 N5 1.538 . S
C764 C326 1.600 1_554 S
C775 C370 2.030 . S
C773 N109 2.012 . S
C786 C369 1.616 . S
C784 N170 1.647 . S
C797 C368 1.304 . S
C795 N184 1.386 . S
C806 N200 1.354 . S
C808 C371 1.408 . S
C817 N135 1.601 . S
C819 C287 1.649 . S
C830 C285 1.481 . S
C828 N70 1.473 . S
C841 C301 1.321 . S
C839 N80 1.324 . S
C852 C312 1.496 . S
C850 N93 1.509 . S
C861 N174 1.834 . S
C863 C245 1.854 . S
C874 C230 1.778 . S
C872 N14 1.772 . S
C883 N28 1.436 . S
C885 C243 1.475 . S
C896 C215 1.633 . S
C894 N1 1.636 . S
