# Generated by pormake.
# Topology zzz, (3,6)-cn, num edge types: 1
# Building blocks:
#     Node 0, Type 0, BuildingBlock: INOVEN_clean_linker_0, # of connection points: 3
#     Node 1, Type 0, BuildingBlock: INOVEN_clean_linker_0, # of connection points: 3
#     Node 2, Type 0, BuildingBlock: INOVEN_clean_linker_0, # of connection points: 3
#     Node 3, Type 0, BuildingBlock: INOVEN_clean_linker_0, # of connection points: 3
#     Node 4, Type 0, BuildingBlock: INOVEN_clean_linker_0, # of connection points: 3
#     Node 5, Type 0, BuildingBlock: INOVEN_clean_linker_0, # of connection points: 3
#     Node 6, Type 0, BuildingBlock: INOVEN_clean_linker_0, # of connection points: 3
#     Node 7, Type 0, BuildingBlock: INOVEN_clean_linker_0, # of connection points: 3
#     Node 8, Type 1, BuildingBlock: FUNLAD_clean_sbu_0, # of connection points: 6
#     Node 9, Type 1, BuildingBlock: FUNLAD_clean_sbu_0, # of connection points: 6
#     Node 10, Type 1, BuildingBlock: FUNLAD_clean_sbu_0, # of connection points: 6
#     Node 11, Type 1, BuildingBlock: FUNLAD_clean_sbu_0, # of connection points: 6
#     Edge 12, Type (0, 1), BuildingBlock: AJUNOK_clean_linker_0, # of connection points: 2
#     Edge 13, Type (0, 1), BuildingBlock: AJUNOK_clean_linker_0, # of connection points: 2
#     Edge 14, Type (0, 1), BuildingBlock: AJUNOK_clean_linker_0, # of connection points: 2
#     Edge 15, Type (0, 1), BuildingBlock: AJUNOK_clean_linker_0, # of connection points: 2
#     Edge 16, Type (0, 1), BuildingBlock: AJUNOK_clean_linker_0, # of connection points: 2
#     Edge 17, Type (0, 1), BuildingBlock: AJUNOK_clean_linker_0, # of connection points: 2
#     Edge 18, Type (0, 1), BuildingBlock: AJUNOK_clean_linker_0, # of connection points: 2
#     Edge 19, Type (0, 1), BuildingBlock: AJUNOK_clean_linker_0, # of connection points: 2
#     Edge 20, Type (0, 1), BuildingBlock: AJUNOK_clean_linker_0, # of connection points: 2
#     Edge 21, Type (0, 1), BuildingBlock: AJUNOK_clean_linker_0, # of connection points: 2
#     Edge 22, Type (0, 1), BuildingBlock: AJUNOK_clean_linker_0, # of connection points: 2
#     Edge 23, Type (0, 1), BuildingBlock: AJUNOK_clean_linker_0, # of connection points: 2
#     Edge 24, Type (0, 1), BuildingBlock: AJUNOK_clean_linker_0, # of connection points: 2
#     Edge 25, Type (0, 1), BuildingBlock: AJUNOK_clean_linker_0, # of connection points: 2
#     Edge 26, Type (0, 1), BuildingBlock: AJUNOK_clean_linker_0, # of connection points: 2
#     Edge 27, Type (0, 1), BuildingBlock: AJUNOK_clean_linker_0, # of connection points: 2
#     Edge 28, Type (0, 1), BuildingBlock: AJUNOK_clean_linker_0, # of connection points: 2
#     Edge 29, Type (0, 1), BuildingBlock: AJUNOK_clean_linker_0, # of connection points: 2
#     Edge 30, Type (0, 1), BuildingBlock: AJUNOK_clean_linker_0, # of connection points: 2
#     Edge 31, Type (0, 1), BuildingBlock: AJUNOK_clean_linker_0, # of connection points: 2
#     Edge 32, Type (0, 1), BuildingBlock: AJUNOK_clean_linker_0, # of connection points: 2
#     Edge 33, Type (0, 1), BuildingBlock: AJUNOK_clean_linker_0, # of connection points: 2
#     Edge 34, Type (0, 1), BuildingBlock: AJUNOK_clean_linker_0, # of connection points: 2
#     Edge 35, Type (0, 1), BuildingBlock: AJUNOK_clean_linker_0, # of connection points: 2
# Relax obj value: 0.113
# Max RMSD: 0.176
# Mean RMSD: 0.095
data_MOF--net-zzz--node1-FUNLAD_clean_sbu_0--node2-INOVEN_clean_linker_0--edge1-AJUNOK_clean_linker_0
_symmetry_space_group_name_H-M    P1
_symmetry_Int_Tables_number       1
_symmetry_cell_setting            triclinic
loop_
_symmetry_equiv_pos_as_xyz
'x, y, z'
_cell_length_a     37.623998
_cell_length_b     43.728089
_cell_length_c     13.159462
_cell_angle_alpha  83.262484
_cell_angle_beta   82.626692
_cell_angle_gamma 89.853251
loop_
_atom_site_label
_atom_site_type_symbol
_atom_site_fract_x
_atom_site_fract_y
_atom_site_fract_z
_atom_type_partial_charge
H0 H 0.80928 0.49358 0.48464 0.0
H1 H 0.9161 0.46296 0.39148 0.0
H2 H 0.83581 0.45902 0.19122 0.0
N3 N 0.78476 0.48582 0.30302 0.0
N4 N 0.78493 0.49776 0.21183 0.0
C5 C 0.82799 0.48264 0.43099 0.0
C6 C 0.86334 0.47654 0.45256 0.0
C7 C 0.81802 0.47621 0.33584 0.0
C8 C 0.8431 0.46315 0.26562 0.0
C9 C 0.87863 0.45921 0.28378 0.0
C10 C 0.88818 0.46473 0.37878 0.0
H11 H 0.98236 0.77248 0.31038 0.0
H12 H 0.02286 0.86521 0.23626 0.0
H13 H 0.04941 0.7998 0.02179 0.0
N14 N 1.01144 0.75224 0.13448 0.0
N15 N 0.02345 0.74627 0.04619 0.0
C16 C 0.99858 0.78962 0.25867 0.0
C17 C 1.00123 0.81972 0.28424 0.0
C18 C 1.01606 0.78214 0.16368 0.0
C19 C 0.03637 0.80503 0.09589 0.0
C20 C 0.03862 0.83513 0.12146 0.0
C21 C 0.02187 0.84181 0.21669 0.0
H22 H 0.77318 1.00091 0.328 0.0
H23 H 0.66868 0.01705 0.23395 0.0
H24 H 0.75982 0.01697 0.00395 0.0
N25 N 0.80962 0.0064 0.13492 0.0
N26 N 0.82232 0.00525 0.04276 0.0
C27 C 0.75636 0.00597 0.2674 0.0
C28 C 0.71892 0.00892 0.29279 0.0
C29 C 0.77176 0.0092 0.16243 0.0
C30 C 0.74901 0.01505 0.08485 0.0
C31 C 0.71207 0.01824 0.11112 0.0
C32 C 0.69753 0.01548 0.21428 0.0
H33 H 0.55864 0.69433 0.31966 0.0
H34 H 0.53434 0.60565 0.23334 0.0
H35 H 0.51726 0.68739 0.03193 0.0
N36 N 0.54164 0.72746 0.14807 0.0
N37 N 0.54487 0.73957 0.05643 0.0
C38 C 0.54908 0.68051 0.26535 0.0
C39 C 0.5479 0.64819 0.28646 0.0
C40 C 0.53882 0.69486 0.17206 0.0
C41 C 0.52587 0.67659 0.1029 0.0
C42 C 0.52373 0.64443 0.12538 0.0
C43 C 0.53507 0.63056 0.21667 0.0
H44 H 0.25943 0.51614 0.06781 0.0
H45 H 0.15017 0.54043 0.16079 0.0
H46 H 0.23003 0.55517 0.35301 0.0
N47 N 0.28424 0.52966 0.24259 0.0
N48 N 0.29254 0.54013 0.32089 0.0
C49 C 0.23985 0.52658 0.12045 0.0
C50 C 0.20395 0.52956 0.1002 0.0
C51 C 0.24977 0.53631 0.21162 0.0
C52 C 0.22345 0.54887 0.28032 0.0
C53 C 0.18749 0.54931 0.26434 0.0
C54 C 0.1782 0.54087 0.17245 0.0
H55 H 0.10282 0.24369 0.19859 0.0
H56 H 0.09553 0.14575 0.28343 0.0
H57 H 0.06069 0.20649 0.50791 0.0
N58 N 0.08343 0.25864 0.38982 0.0
N59 N 0.08744 0.26306 0.47966 0.0
C60 C 0.0975 0.22405 0.25693 0.0
C61 C 0.10124 0.19397 0.22953 0.0
C62 C 0.08572 0.22848 0.36011 0.0
C63 C 0.07335 0.20297 0.43151 0.0
C64 C 0.07505 0.17327 0.40149 0.0
C65 C 0.09295 0.16895 0.3051 0.0
H66 H 0.30968 0.00968 0.1928 0.0
H67 H 0.41404 0.99279 0.28716 0.0
H68 H 0.32306 0.99402 0.51703 0.0
N69 N 0.27324 1.00458 0.38579 0.0
N70 N 0.26043 0.00574 0.47786 0.0
C71 C 0.3265 0.00477 0.25347 0.0
C72 C 0.36393 1.00168 0.22815 0.0
C73 C 0.3111 1.00175 0.35846 0.0
C74 C 0.33382 0.99582 0.43612 0.0
C75 C 0.37064 0.99206 0.40971 0.0
C76 C 0.38524 0.99489 0.30666 0.0
H77 H 0.52178 0.31167 0.19851 0.0
H78 H 0.54501 0.40114 0.28065 0.0
H79 H 0.56095 0.32042 0.48812 0.0
N80 N 0.53746 0.27957 0.37392 0.0
N81 N 0.53237 0.26833 0.46649 0.0
C82 C 0.53087 0.32586 0.25249 0.0
C83 C 0.53224 0.35813 0.22922 0.0
C84 C 0.54043 0.31208 0.34739 0.0
C85 C 0.55277 0.33085 0.41609 0.0
C86 C 0.55486 0.36295 0.39194 0.0
C87 C 0.5443 0.37626 0.29888 0.0
C88 C 0.05528 0.95306 0.8798 0.0
N89 N 1.016 0.96444 0.5998 0.0
C90 C 0.0407 0.94332 0.57065 0.0
C91 C 0.03021 0.91657 0.53423 0.0
C92 C 0.99374 0.91069 0.53029 0.0
C93 C 0.96887 0.93334 0.55723 0.0
C94 C 0.98071 0.96038 0.59029 0.0
Zn95 Zn 0.0315 0.9955 0.69229 0.0
C96 C 0.9708 1.00403 0.86009 0.0
N97 N 0.0628 0.04804 0.91661 0.0
C98 C 0.09337 0.05098 0.95992 0.0
C99 C 0.0391 0.07156 0.91153 0.0
C100 C 0.04749 0.10022 0.93709 0.0
C101 C 0.07821 0.10441 0.98409 0.0
C102 C 0.10098 0.07876 -0.0023 0.0
Zn103 Zn 0.05079 0.01541 0.82419 0.0
O104 O 0.04378 0.95709 0.79275 0.0
C105 C 0.11167 0.00705 0.65857 0.0
O106 O 0.06206 0.97642 0.92407 0.0
H107 H 1.01467 0.06926 0.87798 0.0
H108 H 0.06842 0.94611 0.58134 0.0
H109 H 0.11226 0.0323 0.96252 0.0
O110 O 0.08601 0.99732 0.61601 0.0
O111 O 0.10471 0.01593 0.74787 0.0
H112 H 0.96124 0.9772 0.61382 0.0
O113 O 0.04073 0.053 0.7188 0.0
O114 O 0.01989 0.03448 0.59113 0.0
O115 O 0.99646 0.01405 0.90124 0.0
O116 O 0.97778 0.99493 0.77157 0.0
C117 C 0.02915 0.05754 0.63251 0.0
H118 H 0.05058 0.90024 0.51178 0.0
H119 H 0.94045 0.92985 0.55661 0.0
H120 H 0.03025 0.11889 0.91503 0.0
H121 H 0.12485 0.08013 0.03487 0.0
C122 C 0.49074 0.99353 0.63651 0.0
N123 N 0.53794 0.07624 0.6909 0.0
C124 C 0.53363 0.08469 0.59025 0.0
C125 C 0.53154 0.11578 0.55188 0.0
C126 C 0.53463 0.13872 0.61673 0.0
C127 C 0.5402 0.12931 0.71952 0.0
C128 C 0.54124 0.09792 0.75546 0.0
Zn129 Zn 0.54013 0.02974 0.74316 0.0
C130 C 0.48244 0.00811 0.90853 0.0
N131 N 0.54454 0.93185 0.83099 0.0
C132 C 0.54104 0.90984 0.76776 0.0
C133 C 0.54847 0.92386 0.93212 0.0
C134 C 0.54939 0.89292 0.97289 0.0
C135 C 0.54498 0.86963 0.91036 0.0
C136 C 0.54092 0.87855 0.80613 0.0
Zn137 Zn 0.54262 0.97828 0.77785 0.0
O138 O 0.50217 0.02015 0.64676 0.0
C139 C 0.6002 0.99965 0.61219 0.0
O140 O 0.50484 0.96985 0.6796 0.0
H141 H 0.55083 0.9415 0.98197 0.0
H142 H 0.53173 0.06731 0.53913 0.0
H143 H 0.53797 0.9165 0.68762 0.0
O144 O 0.58465 0.02493 0.62773 0.0
O145 O 0.58681 0.97459 0.6612 0.0
H146 H 0.54493 0.09092 0.83494 0.0
O147 O 0.58059 0.98783 0.87358 0.0
O148 O 0.57804 0.03816 0.84163 0.0
O149 O 0.49836 0.98304 0.89294 0.0
O150 O 0.49567 0.03332 0.86019 0.0
C151 C 0.59233 0.01436 0.88336 0.0
H152 H 0.52723 0.12172 0.47221 0.0
H153 H 0.54419 0.14597 0.77179 0.0
H154 H 0.55382 0.88743 0.05258 0.0
H155 H 0.53726 0.86154 0.75474 0.0
C156 C 0.56614 0.45984 0.63956 0.0
N157 N 0.46548 0.50082 0.67304 0.0
C158 C 0.47189 0.50155 0.56842 0.0
C159 C 0.44388 0.50481 0.50834 0.0
C160 C 0.40872 0.50751 0.55579 0.0
C161 C 0.40255 0.50586 0.66416 0.0
C162 C 0.43149 0.50243 0.72174 0.0
Zn163 Zn 0.51046 0.50208 0.74684 0.0
C164 C 0.51933 0.45391 0.90515 0.0
N165 N 0.6125 0.50729 0.84812 0.0
C166 C 0.64699 0.50648 0.80249 0.0
C167 C 0.60497 0.50839 0.95177 0.0
C168 C 0.63229 0.50923 0.01339 0.0
C169 C 0.66811 0.50831 0.96922 0.0
C170 C 0.67536 0.50673 0.86208 0.0
Zn171 Zn 0.56798 0.50517 0.77245 0.0
O172 O 0.53417 0.4693 0.65428 0.0
C173 C 0.5596 0.55311 0.61368 0.0
O174 O 0.59074 0.47208 0.67961 0.0
H175 H 0.5775 0.50827 0.98785 0.0
H176 H 0.49906 0.50099 0.5304 0.0
H177 H 0.65248 0.50512 0.72042 0.0
O178 O 0.52893 0.54017 0.63644 0.0
O179 O 0.58588 0.54215 0.65756 0.0
H180 H 0.42694 0.50213 0.8047 0.0
O181 O 0.54432 0.53872 0.86167 0.0
O182 O 0.48746 0.53457 0.84228 0.0
O183 O 0.54949 0.46774 0.88407 0.0
O184 O 0.49299 0.46419 0.86005 0.0
C185 C 0.51226 0.54769 0.8787 0.0
H186 H 0.44997 0.50674 0.4251 0.0
H187 H 0.37572 0.50796 0.70364 0.0
H188 H 0.62533 0.5105 0.09523 0.0
H189 H 0.70256 0.50503 0.82493 0.0
C190 C 0.073 0.52778 0.59723 0.0
N191 N 0.05009 0.43585 0.71685 0.0
C192 C 0.05139 0.43405 0.61386 0.0
C193 C 0.05872 0.40623 0.57397 0.0
C194 C 0.06373 0.37951 0.64065 0.0
C195 C 0.06103 0.3818 0.74722 0.0
C196 C 0.05475 0.41039 0.78361 0.0
Zn197 Zn 0.04025 0.47812 0.76749 0.0
C198 C 0.09837 0.50235 0.85855 0.0
N199 N 0.01946 0.56963 0.83519 0.0
C200 C 1.00816 0.5938 0.77304 0.0
C201 C 0.02705 0.57305 0.93167 0.0
C202 C 0.02462 0.60179 0.9678 0.0
C203 C 1.01425 0.62737 0.9042 0.0
C204 C 1.0052 0.62303 0.80641 0.0
Zn205 Zn 0.02831 0.52737 0.78525 0.0
O206 O 0.07007 0.49941 0.6316 0.0
C207 C 0.97052 0.50301 0.69266 0.0
O208 O 0.0557 0.54759 0.64577 0.0
H209 H 0.03593 0.55355 0.98002 0.0
H210 H 0.04676 0.45426 0.56188 0.0
H211 H 1.00212 0.59053 0.69682 0.0
O212 O 0.9916 0.48026 0.69997 0.0
O213 O 0.97925 0.52841 0.72145 0.0
H214 H 0.0533 0.41215 0.86531 0.0
O215 O 1.00037 0.50677 0.9241 0.0
O216 O 1.01076 0.45816 0.90469 0.0
O217 O 0.07816 0.52551 0.8466 0.0
O218 O 0.08836 0.47642 0.83672 0.0
C219 C 0.99542 0.47836 0.95598 0.0
H220 H 0.06057 0.40577 0.49136 0.0
H221 H 0.06324 0.36172 0.80242 0.0
H222 H 0.03198 0.60417 0.04346 0.0
H223 H 0.99639 0.64208 0.75581 0.0
C224 C 0.21373 0.01263 0.6178 0.0
C225 C 0.22315 0.00739 0.51469 0.0
C226 C 0.17784 0.01292 0.66259 0.0
C227 C 0.1495 0.00756 0.60636 0.0
H228 H 0.23461 0.0163 0.66479 0.0
H229 H 0.17239 0.0169 0.74278 0.0
S230 S 0.15963 0.99299 0.33131 0.0
N231 N 0.20122 0.99713 0.35579 0.0
N232 N 0.13362 0.99732 0.43962 0.0
C233 C 0.15852 1.00248 0.50205 0.0
C234 C 0.19532 1.00247 0.45613 0.0
C235 C 0.54817 0.21467 0.43812 0.0
C236 C 0.53107 0.23612 0.49909 0.0
C237 C 0.54904 0.18327 0.47649 0.0
C238 C 0.53254 0.17212 0.57661 0.0
H239 H 0.56182 0.22229 0.36184 0.0
H240 H 0.5635 0.16777 0.42804 0.0
S241 S 0.48157 0.21941 0.76124 0.0
N242 N 0.49641 0.24444 0.66094 0.0
N243 N 0.49611 0.18549 0.73162 0.0
C244 C 0.51442 0.19351 0.63632 0.0
C245 C 0.51421 0.22543 0.59781 0.0
C246 C 0.32976 0.5485 0.45112 0.0
C247 C 0.32367 0.53246 0.36865 0.0
C248 C 0.35701 0.54006 0.51153 0.0
C249 C 0.37932 0.51505 0.49179 0.0
H250 H 0.31265 0.56751 0.47023 0.0
H251 H 0.36074 0.55337 0.57389 0.0
S252 S 0.37377 0.46463 0.28613 0.0
N253 N 0.34166 0.48992 0.27067 0.0
N254 N 0.39319 0.47387 0.38424 0.0
C255 C 0.37372 0.49879 0.40865 0.0
C256 C 0.34578 0.50747 0.34699 0.0
C257 C 0.05912 0.31396 0.47512 0.0
C258 C 0.08294 0.29238 0.51522 0.0
C259 C 0.05296 0.3419 0.51664 0.0
C260 C 0.07087 0.34953 0.59845 0.0
H261 H 0.04441 0.30886 0.41348 0.0
H262 H 0.03349 0.35736 0.48539 0.0
S263 S 0.13798 0.30098 0.72367 0.0
N264 N 0.12487 0.28013 0.63813 0.0
N265 N 0.11538 0.33337 0.71252 0.0
C266 C 0.09544 0.32818 0.63702 0.0
C267 C 0.10093 0.29946 0.5962 0.0
C268 C 0.86878 0.99871 0.90192 0.0
C269 C 0.85956 1.00359 0.00545 0.0
C270 C 0.90461 0.99844 0.85663 0.0
C271 C 0.93306 1.00347 0.91278 0.0
H272 H 0.84779 0.99531 0.85501 0.0
H273 H 0.90992 0.99475 0.77614 0.0
S274 S 0.92351 0.01676 0.18897 0.0
N275 N 0.88182 0.01297 0.16479 0.0
N276 N 0.94932 0.01284 0.07994 0.0
C277 C 0.92425 0.00814 0.01753 0.0
C278 C 0.88752 0.00811 0.06398 0.0
C279 C 0.56269 0.78327 0.92866 0.0
C280 C 0.54597 0.77199 0.02729 0.0
C281 C 0.5627 0.81476 0.89239 0.0
C282 C 0.54517 0.83628 0.95262 0.0
H283 H 0.57594 0.76746 0.87907 0.0
H284 H 0.57666 0.82223 0.81637 0.0
S285 S 0.49428 0.81776 0.21428 0.0
N286 N 0.51018 0.78431 0.18405 0.0
N287 N 0.50859 0.84329 0.11487 0.0
C288 C 0.52776 0.82508 0.05158 0.0
C289 C 0.52845 0.793 0.08918 0.0
C290 C 0.72155 0.48762 0.19517 0.0
C291 C 0.75385 0.50401 0.16266 0.0
C292 C 0.69376 0.48955 0.13282 0.0
C293 C 0.6973 0.50796 0.03618 0.0
H294 H 0.71843 0.47209 0.26623 0.0
H295 H 0.66987 0.47559 0.15891 0.0
S296 S 0.77584 0.55743 0.92322 0.0
N297 N 0.78739 0.54013 0.03239 0.0
N298 N 0.7349 0.54489 0.91683 0.0
C299 C 0.72901 0.52544 0.00589 0.0
C300 C 0.75726 0.52317 0.06889 0.0
C301 C 1.00179 0.69209 0.07519 0.0
C302 C 0.01967 0.71701 0.01189 0.0
C303 C 0.99948 0.66327 0.039 0.0
C304 C 1.01478 0.65852 0.93857 0.0
H305 H 0.98984 0.69474 0.15294 0.0
H306 H 0.98573 0.64454 0.09007 0.0
S307 S 0.06487 0.71675 0.74541 0.0
N308 N 0.05273 0.73538 0.84622 0.0
N309 N 0.04898 0.6813 0.77809 0.0
C310 C 0.03243 0.68346 0.875 0.0
C311 C 0.03471 0.71265 0.91192 0.0
C312 C 0.0614 0.13995 0.56889 0.0
C313 C 0.05628 0.14659 0.46536 0.0
C314 C 0.04966 0.11188 0.62446 0.0
C315 C 0.0328 0.08917 0.57815 0.0
H316 H 0.07648 0.15566 0.60539 0.0
H317 H 0.05609 0.10735 0.70262 0.0
S318 S 1.00594 0.09866 0.3153 0.0
N319 N 0.02717 0.13107 0.32388 0.0
N320 N 1.00667 0.07745 0.42747 0.0
C321 C 0.02458 0.09674 0.47753 0.0
C322 C 0.03597 0.12566 0.42136 0.0
C323 C 0.40376 0.01478 0.53282 0.0
C324 C 0.39577 0.98877 0.48681 0.0
C325 C 0.43457 0.01588 0.58132 0.0
C326 C 0.45828 0.99089 0.58611 0.0
H327 H 0.38732 0.03512 0.5256 0.0
H328 H 0.4401 0.03675 0.6138 0.0
S329 S 0.4473 0.91651 0.48379 0.0
N330 N 0.41243 0.93692 0.45277 0.0
N331 N 0.47014 0.93854 0.54686 0.0
C332 C 0.44943 0.96405 0.54532 0.0
C333 C 0.4182 0.96312 0.49482 0.0
C334 C 0.58871 0.40864 0.43073 0.0
C335 C 0.56513 0.38343 0.46583 0.0
C336 C 0.59204 0.43253 0.49161 0.0
C337 C 0.57189 0.43176 0.58911 0.0
H338 H 0.60297 0.4108 0.35324 0.0
H339 H 0.60822 0.45265 0.45926 0.0
S340 S 0.50995 0.36963 0.72174 0.0
N341 N 0.524 0.35815 0.60844 0.0
N342 N 0.53067 0.40279 0.72276 0.0
C343 C 0.55063 0.40562 0.62831 0.0
C344 C 0.5472 0.38142 0.56676 0.0
C345 C 0.16314 0.52826 0.44112 0.0
C346 C 0.15952 0.54924 0.35376 0.0
C347 C 0.13494 0.5223 0.51988 0.0
C348 C 0.10205 0.53715 0.51487 0.0
H349 H 0.18731 0.51496 0.44639 0.0
H350 H 0.13873 0.50535 0.58454 0.0
S351 S 0.07949 0.59593 0.30776 0.0
N352 N 0.12117 0.58633 0.26927 0.0
N353 N 0.0677 0.57523 0.42049 0.0
C354 C 0.09835 0.55941 0.43126 0.0
C355 C 0.1272 0.56532 0.34956 0.0
C356 C 0.07171 0.88542 0.07567 0.0
C357 C 0.05208 0.86144 0.04481 0.0
C358 C 0.07414 0.91482 0.01969 0.0
C359 C 0.05756 0.92109 0.92995 0.0
H360 H 0.083 0.88202 0.14782 0.0
H361 H 0.08771 0.93302 0.04943 0.0
S362 S 1.00718 0.86492 0.80895 0.0
N363 N 0.01867 0.84516 0.91402 0.0
N364 N 0.02431 0.89971 0.8063 0.0
C365 C 0.04076 0.89644 0.89312 0.0
C366 C 0.03792 0.86673 0.95091 0.0
C367 C 0.66173 0.04449 0.03229 0.0
C368 C 0.68686 0.02058 0.03387 0.0
C369 C 0.63148 0.04285 0.98107 0.0
C370 C 0.62512 0.01692 0.93211 0.0
H371 H 0.66464 0.06381 0.07524 0.0
H372 H 0.61224 0.06131 0.98368 0.0
S373 S 0.68499 0.94982 0.90535 0.0
N374 N 0.70507 0.97162 0.97564 0.0
N375 N 0.64831 0.96829 0.87932 0.0
C376 C 0.65114 0.99368 0.92852 0.0
C377 C 0.68207 0.99561 0.97931 0.0
C378 C 0.48914 0.59931 0.08599 0.0
C379 C 0.51292 0.62438 0.05108 0.0
C380 C 0.48588 0.57534 0.02534 0.0
C381 C 0.50639 0.57589 0.92845 0.0
H382 H 0.4748 0.59723 0.16338 0.0
H383 H 0.46957 0.5553 0.05765 0.0
S384 S 0.56876 0.6378 0.79628 0.0
N385 N 0.55437 0.64948 0.90904 0.0
N386 N 0.54804 0.60464 0.7953 0.0
C387 C 0.52777 0.60197 0.88927 0.0
C388 C 0.53104 0.62628 0.95048 0.0
C389 C 0.90572 0.48227 0.112 0.0
C390 C 0.90689 0.45916 0.19514 0.0
C391 C 0.93456 0.4876 0.03501 0.0
C392 C 0.96572 0.47 0.03749 0.0
H393 H 0.88305 0.49754 0.10882 0.0
H394 H 0.93258 0.5061 0.97354 0.0
S395 S 0.98151 0.40524 0.23347 0.0
N396 N 0.941 0.41739 0.27317 0.0
N397 N 0.99566 0.42729 0.12501 0.0
C398 C 0.96689 0.4458 0.11687 0.0
C399 C 0.93739 0.44052 0.19692 0.0
C400 C 0.12858 0.1686 0.08159 0.0
C401 C 0.10065 0.18654 0.12349 0.0
C402 C 0.12139 0.14359 0.0291 0.0
C403 C 0.08586 0.13493 0.02 0.0
H404 H 0.15546 0.17152 0.10052 0.0
H405 H 0.14378 0.12982 0.00202 0.0
S406 S 1.00424 0.17926 0.10286 0.0
N407 N 0.03787 0.19892 0.13302 0.0
N408 N 0.0228 0.1498 0.04993 0.0
C409 C 0.05824 0.15524 0.05202 0.0
C410 C 0.06624 0.18194 0.09797 0.0
C411 C 0.4022 0.03327 0.08692 0.0
C412 C 0.38354 0.00537 0.12235 0.0
C413 C 0.43344 0.03431 0.01501 0.0
C414 C 0.44757 0.00734 0.97732 0.0
H415 H 0.39435 0.05393 0.12176 0.0
H416 H 0.44767 0.05607 -0.00654 0.0
S417 S 0.40599 0.92916 0.03695 0.0
N418 N 0.3794 0.9509 0.1073 0.0
N419 N 0.43769 0.95247 0.97249 0.0
C420 C 0.42755 0.97973 0.00664 0.0
C421 C 0.39563 0.97887 0.07872 0.0
C422 C 0.55093 0.38143 0.05038 0.0
C423 C 0.52309 0.37443 0.1313 0.0
C424 C 0.5482 0.40611 0.97392 0.0
C425 C 0.51747 0.42467 0.97518 0.0
H426 H 0.57618 0.36946 0.05115 0.0
H427 H 0.57121 0.41171 0.91622 0.0
S428 S 0.43531 0.41306 0.16323 0.0
N429 N 0.46258 0.3859 0.20352 0.0
N430 N 0.45706 0.43204 0.05758 0.0
C431 C 0.48816 0.41617 0.05028 0.0
C432 C 0.49113 0.39113 0.12912 0.0
C433 C 0.1738 0.48928 0.0234 0.0
C434 C 0.19022 0.51864 0.01051 0.0
C435 C 0.14572 0.48307 0.9675 0.0
C436 C 0.13292 0.50624 0.89848 0.0
H437 H 0.18012 0.47212 0.08457 0.0
H438 H 0.13198 0.46097 0.98515 0.0
S439 S 0.17151 0.58488 0.82365 0.0
N440 N 0.19523 0.56938 0.91333 0.0
N441 N 0.14264 0.55794 0.80822 0.0
C442 C 0.15168 0.53454 0.87731 0.0
C443 C 0.1804 0.54065 0.93318 0.0
C444 C 1.00113 0.82907 0.4639 0.0
C445 C 0.98237 0.83069 0.3781 0.0
C446 C 1.00128 0.85402 0.52166 0.0
C447 C 0.98289 0.88136 0.49467 0.0
H448 H 0.01989 0.81062 0.47699 0.0
H449 H 0.01891 0.85304 0.58081 0.0
S450 S 0.92144 0.89249 0.2945 0.0
N451 N 0.93781 0.85771 0.28545 0.0
N452 N 0.93924 0.90539 0.38986 0.0
C453 C 0.95923 0.88088 0.42024 0.0
C454 C 0.95836 0.85503 0.36376 0.0
C455 C 0.68486 0.03043 0.44064 0.0
C456 C 0.69923 1.00429 0.39847 0.0
C457 C 0.65344 0.02844 0.51138 0.0
C458 C 0.63499 1.00019 0.54312 0.0
H459 H 0.69617 0.05302 0.41163 0.0
H460 H 0.64281 0.04954 0.53811 0.0
S461 S 0.66396 0.92439 0.4634 0.0
N462 N 0.6944 0.949 0.39912 0.0
N463 N 0.63581 0.94493 0.53397 0.0
C464 C 0.6507 0.97348 0.50761 0.0
C465 C 0.6827 0.97562 0.4351 0.0
C466 C 0.53187 0.62721 0.46933 0.0
C467 C 0.55794 0.63137 0.38252 0.0
C468 C 0.53405 0.60276 0.54711 0.0
C469 C 0.56261 0.58185 0.54155 0.0
H470 H 0.50805 0.64124 0.4727 0.0
H471 H 0.51215 0.59922 0.60954 0.0
S472 S 0.63956 0.58477 0.33489 0.0
N473 N 0.61446 0.61411 0.29846 0.0
N474 N 0.61911 0.5686 0.44692 0.0
C475 C 0.59041 0.5873 0.45959 0.0
C476 C 0.58789 0.61197 0.37936 0.0
C477 C 0.89178 0.46323 0.61016 0.0
C478 C 0.87816 0.48626 0.54251 0.0
C479 C 0.92033 0.46947 0.66345 0.0
C480 C 0.93614 0.49903 0.65177 0.0
H481 H 0.8828 0.43956 0.61356 0.0
H482 H 0.93147 0.45051 0.70944 0.0
S483 S 0.90666 0.56828 0.49557 0.0
N484 N 0.87983 0.5404 0.47517 0.0
N485 N 0.93304 0.55243 0.57774 0.0
C486 C 0.92029 0.52299 0.593 0.0
C487 C 0.89132 0.51652 0.5379 0.0
loop_
_geom_bond_atom_site_label_1
_geom_bond_atom_site_label_2
_geom_bond_distance
_geom_bond_site_symmetry_2
_ccdc_geom_bond_type
H0 C5 0.929 . S
H1 C10 0.931 . S
H2 C8 0.930 . S
N3 N4 1.234 . S
N3 C7 1.453 . S
N4 N3 1.234 . S
C5 H0 0.929 . S
C5 C6 1.373 . S
C5 C7 1.368 . S
C6 C5 1.373 . S
C6 C10 1.397 . S
C7 N3 1.453 . S
C7 C5 1.368 . S
C7 C8 1.373 . S
C8 H2 0.930 . S
C8 C7 1.373 . S
C8 C9 1.371 . S
C9 C8 1.371 . S
C9 C10 1.383 . S
C10 H1 0.931 . S
C10 C6 1.397 . S
C10 C9 1.383 . S
H11 C16 0.929 . S
H12 C21 0.931 . S
H13 C19 0.930 . S
N14 N15 1.234 1_554 S
N14 C18 1.453 . S
N15 N14 1.234 1_556 S
C16 H11 0.929 . S
C16 C17 1.373 . S
C16 C18 1.368 . S
C17 C16 1.373 . S
C17 C21 1.397 . S
C18 N14 1.453 . S
C18 C16 1.368 . S
C18 C19 1.373 1_554 S
C19 H13 0.930 . S
C19 C18 1.373 1_556 S
C19 C20 1.371 . S
C20 C19 1.371 . S
C20 C21 1.383 1_556 S
C21 H12 0.931 . S
C21 C17 1.397 . S
C21 C20 1.383 1_554 S
H22 C27 0.929 . S
H23 C32 0.931 . S
H24 C30 0.930 1_556 S
N25 N26 1.221 1_545 S
N25 C29 1.453 . S
N26 N25 1.221 1_565 S
C27 H22 0.929 . S
C27 C28 1.373 . S
C27 C29 1.368 . S
C28 C27 1.373 . S
C28 C32 1.397 1_545 S
C29 N25 1.453 . S
C29 C27 1.368 . S
C29 C30 1.373 . S
C30 H24 0.930 1_554 S
C30 C29 1.373 . S
C30 C31 1.374 . S
C31 C30 1.374 . S
C31 C32 1.384 1_545 S
C32 H23 0.931 . S
C32 C28 1.397 1_565 S
C32 C31 1.384 1_565 S
H33 C38 0.929 . S
H34 C43 0.931 . S
H35 C41 0.930 1_556 S
N36 N37 1.234 . S
N36 C40 1.453 . S
N37 N36 1.234 . S
C38 H33 0.929 . S
C38 C39 1.373 . S
C38 C40 1.368 . S
C39 C38 1.373 . S
C39 C43 1.397 . S
C40 N36 1.453 . S
C40 C38 1.368 . S
C40 C41 1.373 . S
C41 H35 0.930 1_554 S
C41 C40 1.373 . S
C41 C42 1.371 . S
C42 C41 1.371 . S
C42 C43 1.383 . S
C43 H34 0.931 . S
C43 C39 1.397 . S
C43 C42 1.383 . S
H44 C49 0.929 . S
H45 C54 0.931 . S
H46 C52 0.930 . S
N47 N48 1.234 . S
N47 C51 1.453 . S
N48 N47 1.234 . S
C49 H44 0.929 . S
C49 C50 1.373 . S
C49 C51 1.368 . S
C50 C49 1.373 . S
C50 C54 1.397 . S
C51 N47 1.453 . S
C51 C49 1.368 . S
C51 C52 1.373 . S
C52 H46 0.930 . S
C52 C51 1.373 . S
C52 C53 1.371 . S
C53 C52 1.371 . S
C53 C54 1.383 . S
C54 H45 0.931 . S
C54 C50 1.397 . S
C54 C53 1.383 . S
H55 C60 0.929 . S
H56 C65 0.931 . S
H57 C63 0.930 . S
N58 N59 1.234 . S
N58 C62 1.453 . S
N59 N58 1.234 . S
C60 H55 0.929 . S
C60 C61 1.373 . S
C60 C62 1.368 . S
C61 C60 1.373 . S
C61 C65 1.397 . S
C62 N58 1.453 . S
C62 C60 1.368 . S
C62 C63 1.373 . S
C63 H57 0.930 . S
C63 C62 1.373 . S
C63 C64 1.371 . S
C64 C63 1.371 . S
C64 C65 1.383 . S
C65 H56 0.931 . S
C65 C61 1.397 . S
C65 C64 1.383 . S
H66 C71 0.929 . S
H67 C76 0.931 . S
H68 C74 0.930 . S
N69 N70 1.229 1_545 S
N69 C73 1.453 . S
N70 N69 1.229 1_565 S
C71 H66 0.929 . S
C71 C72 1.373 . S
C71 C73 1.368 . S
C72 C71 1.373 . S
C72 C76 1.397 1_545 S
C73 N69 1.453 . S
C73 C71 1.368 . S
C73 C74 1.373 . S
C74 H68 0.930 . S
C74 C73 1.373 . S
C74 C75 1.375 . S
C75 C74 1.375 . S
C75 C76 1.378 1_545 S
C76 H67 0.931 . S
C76 C72 1.397 1_565 S
C76 C75 1.378 1_565 S
H77 C82 0.929 . S
H78 C87 0.931 . S
H79 C85 0.930 . S
N80 N81 1.234 . S
N80 C84 1.453 . S
N81 N80 1.234 . S
C82 H77 0.929 . S
C82 C83 1.373 . S
C82 C84 1.368 . S
C83 C82 1.373 . S
C83 C87 1.397 . S
C84 N80 1.453 . S
C84 C82 1.368 . S
C84 C85 1.373 . S
C85 H79 0.930 . S
C85 C84 1.373 . S
C85 C86 1.371 . S
C86 C85 1.371 . S
C86 C87 1.383 . S
C87 H78 0.931 . S
C87 C83 1.397 . S
C87 C86 1.383 . S
C88 O104 1.251 . S
C88 O106 1.254 . S
N89 C90 1.333 . S
N89 C94 1.307 1_455 S
N89 Zn95 2.020 . S
C90 N89 1.333 . S
C90 C91 1.379 . S
C90 H108 0.952 . S
C91 C90 1.379 . S
C91 C92 1.390 1_455 S
C91 H118 0.949 . S
C92 C91 1.390 1_655 S
C92 C93 1.357 . S
C93 C92 1.357 . S
C93 C94 1.370 . S
C93 H119 0.950 . S
C94 N89 1.307 1_655 S
C94 C93 1.370 . S
C94 H112 0.948 1_565 S
Zn95 N89 2.020 . S
Zn95 O104 2.039 . S
Zn95 O110 2.034 . S
Zn95 O114 2.025 1_565 S
Zn95 O116 2.024 1_455 S
C96 O115 1.246 . S
C96 O116 1.249 1_545 S
N97 C98 1.307 1_556 S
N97 C99 1.334 . S
N97 Zn103 2.020 . S
C98 N97 1.307 1_554 S
C98 C102 1.370 . S
C98 H109 0.948 1_545 S
C99 N97 1.334 . S
C99 C100 1.373 1_556 S
C99 H107 0.957 . S
C100 C99 1.373 1_554 S
C100 C101 1.390 . S
C100 H120 0.949 . S
C101 C100 1.390 . S
C101 C102 1.357 . S
C102 C98 1.370 . S
C102 C101 1.357 . S
C102 H121 0.950 . S
Zn103 N97 2.020 . S
Zn103 O106 2.025 1_545 S
Zn103 O111 2.024 . S
Zn103 O113 2.039 . S
Zn103 O115 2.034 1_455 S
O104 C88 1.251 . S
O104 Zn95 2.039 . S
C105 O110 1.246 . S
C105 O111 1.249 1_565 S
O106 C88 1.254 . S
O106 Zn103 2.025 1_565 S
H107 C99 0.957 . S
H108 C90 0.952 . S
H109 C98 0.948 1_565 S
O110 Zn95 2.034 . S
O110 C105 1.246 . S
O111 Zn103 2.024 . S
O111 C105 1.249 1_545 S
H112 C94 0.948 1_545 S
O113 Zn103 2.039 . S
O113 C117 1.251 . S
O114 Zn95 2.025 1_545 S
O114 C117 1.254 . S
O115 C96 1.246 . S
O115 Zn103 2.034 1_655 S
O116 Zn95 2.024 1_655 S
O116 C96 1.249 1_565 S
C117 O113 1.251 . S
C117 O114 1.254 . S
H118 C91 0.949 . S
H119 C93 0.950 . S
H120 C100 0.949 . S
H121 C102 0.950 . S
C122 O138 1.251 1_565 S
C122 O140 1.254 . S
N123 C124 1.333 . S
N123 C128 1.307 . S
N123 Zn129 2.020 . S
C124 N123 1.333 . S
C124 C125 1.379 . S
C124 H142 0.952 . S
C125 C124 1.379 . S
C125 C126 1.390 . S
C125 H152 0.949 . S
C126 C125 1.390 . S
C126 C127 1.357 . S
C127 C126 1.357 . S
C127 C128 1.370 . S
C127 H153 0.950 . S
C128 N123 1.307 . S
C128 C127 1.370 . S
C128 H146 0.948 . S
Zn129 N123 2.020 . S
Zn129 O138 2.039 . S
Zn129 O144 2.034 . S
Zn129 O148 2.025 . S
Zn129 O150 2.024 . S
C130 O149 1.246 1_545 S
C130 O150 1.249 . S
N131 C132 1.307 . S
N131 C133 1.333 . S
N131 Zn137 2.020 . S
C132 N131 1.307 . S
C132 C136 1.370 . S
C132 H143 0.948 . S
C133 N131 1.333 . S
C133 C134 1.379 . S
C133 H141 0.952 . S
C134 C133 1.379 . S
C134 C135 1.390 . S
C134 H154 0.949 1_556 S
C135 C134 1.390 . S
C135 C136 1.357 . S
C136 C132 1.370 . S
C136 C135 1.357 . S
C136 H155 0.950 . S
Zn137 N131 2.020 . S
Zn137 O140 2.025 . S
Zn137 O145 2.024 . S
Zn137 O147 2.039 . S
Zn137 O149 2.034 . S
O138 C122 1.251 1_545 S
O138 Zn129 2.039 . S
C139 O144 1.246 1_565 S
C139 O145 1.249 . S
O140 C122 1.254 . S
O140 Zn137 2.025 . S
H141 C133 0.952 . S
H142 C124 0.952 . S
H143 C132 0.948 . S
O144 Zn129 2.034 . S
O144 C139 1.246 1_545 S
O145 Zn137 2.024 . S
O145 C139 1.249 . S
H146 C128 0.948 . S
O147 Zn137 2.039 . S
O147 C151 1.251 1_565 S
O148 Zn129 2.025 . S
O148 C151 1.254 . S
O149 C130 1.246 1_565 S
O149 Zn137 2.034 . S
O150 Zn129 2.024 . S
O150 C130 1.249 . S
C151 O147 1.251 1_545 S
C151 O148 1.254 . S
H152 C125 0.949 . S
H153 C127 0.950 . S
H154 C134 0.949 1_554 S
H155 C136 0.950 . S
C156 O172 1.251 . S
C156 O174 1.254 . S
N157 C158 1.333 . S
N157 C162 1.307 . S
N157 Zn163 2.020 . S
C158 N157 1.333 . S
C158 C159 1.379 . S
C158 H176 0.952 . S
C159 C158 1.379 . S
C159 C160 1.390 . S
C159 H186 0.949 . S
C160 C159 1.390 . S
C160 C161 1.357 . S
C161 C160 1.357 . S
C161 C162 1.370 . S
C161 H187 0.950 . S
C162 N157 1.307 . S
C162 C161 1.370 . S
C162 H180 0.948 . S
Zn163 N157 2.020 . S
Zn163 O172 2.039 . S
Zn163 O178 2.034 . S
Zn163 O182 2.025 . S
Zn163 O184 2.024 . S
C164 O183 1.246 . S
C164 O184 1.249 . S
N165 C166 1.307 . S
N165 C167 1.333 . S
N165 Zn171 2.020 . S
C166 N165 1.307 . S
C166 C170 1.370 . S
C166 H177 0.948 . S
C167 N165 1.333 . S
C167 C168 1.379 . S
C167 H175 0.952 . S
C168 C167 1.379 . S
C168 C169 1.390 . S
C168 H188 0.949 . S
C169 C168 1.390 . S
C169 C170 1.357 . S
C170 C166 1.370 . S
C170 C169 1.357 . S
C170 H189 0.950 . S
Zn171 N165 2.020 . S
Zn171 O174 2.025 . S
Zn171 O179 2.024 . S
Zn171 O181 2.039 . S
Zn171 O183 2.034 . S
O172 C156 1.251 . S
O172 Zn163 2.039 . S
C173 O178 1.246 . S
C173 O179 1.249 . S
O174 C156 1.254 . S
O174 Zn171 2.025 . S
H175 C167 0.952 . S
H176 C158 0.952 . S
H177 C166 0.948 . S
O178 Zn163 2.034 . S
O178 C173 1.246 . S
O179 Zn171 2.024 . S
O179 C173 1.249 . S
H180 C162 0.948 . S
O181 Zn171 2.039 . S
O181 C185 1.251 . S
O182 Zn163 2.025 . S
O182 C185 1.254 . S
O183 C164 1.246 . S
O183 Zn171 2.034 . S
O184 Zn163 2.024 . S
O184 C164 1.249 . S
C185 O181 1.251 . S
C185 O182 1.254 . S
H186 C159 0.949 . S
H187 C161 0.950 . S
H188 C168 0.949 . S
H189 C170 0.950 . S
C190 O206 1.251 . S
C190 O208 1.254 . S
N191 C192 1.333 . S
N191 C196 1.307 . S
N191 Zn197 2.020 . S
C192 N191 1.333 . S
C192 C193 1.379 . S
C192 H210 0.952 . S
C193 C192 1.379 . S
C193 C194 1.390 . S
C193 H220 0.949 . S
C194 C193 1.390 . S
C194 C195 1.357 . S
C195 C194 1.357 . S
C195 C196 1.370 . S
C195 H221 0.950 . S
C196 N191 1.307 . S
C196 C195 1.370 . S
C196 H214 0.948 . S
Zn197 N191 2.020 . S
Zn197 O206 2.039 . S
Zn197 O212 2.034 1_455 S
Zn197 O216 2.025 1_455 S
Zn197 O218 2.024 . S
C198 O217 1.246 . S
C198 O218 1.249 . S
N199 C200 1.307 . S
N199 C201 1.333 . S
N199 Zn205 2.020 . S
C200 N199 1.307 . S
C200 C204 1.370 . S
C200 H211 0.948 . S
C201 N199 1.333 . S
C201 C202 1.379 1_455 S
C201 H209 0.952 1_455 S
C202 C201 1.379 1_655 S
C202 C203 1.390 1_655 S
C202 H222 0.949 . S
C203 C202 1.390 1_455 S
C203 C204 1.357 . S
C204 C200 1.370 . S
C204 C203 1.357 . S
C204 H223 0.950 . S
Zn205 N199 2.020 . S
Zn205 O208 2.025 . S
Zn205 O213 2.024 1_455 S
Zn205 O215 2.039 1_455 S
Zn205 O217 2.034 . S
O206 C190 1.251 . S
O206 Zn197 2.039 . S
C207 O212 1.246 . S
C207 O213 1.249 . S
O208 C190 1.254 . S
O208 Zn205 2.025 . S
H209 C201 0.952 1_655 S
H210 C192 0.952 . S
H211 C200 0.948 . S
O212 Zn197 2.034 1_655 S
O212 C207 1.246 . S
O213 Zn205 2.024 1_655 S
O213 C207 1.249 . S
H214 C196 0.948 . S
O215 Zn205 2.039 1_655 S
O215 C219 1.251 . S
O216 Zn197 2.025 1_655 S
O216 C219 1.254 . S
O217 C198 1.246 . S
O217 Zn205 2.034 . S
O218 Zn197 2.024 . S
O218 C198 1.249 . S
C219 O215 1.251 . S
C219 O216 1.254 . S
H220 C193 0.949 . S
H221 C195 0.950 . S
H222 C202 0.949 . S
H223 C204 0.950 . S
C224 C225 1.359 1_545 S
C224 C226 1.419 . S
C224 H228 0.930 . S
C225 C224 1.359 1_565 S
C225 C234 1.439 . S
C226 C224 1.419 . S
C226 C227 1.363 1_545 S
C226 H229 0.929 . S
C227 C226 1.363 1_565 S
C227 C233 1.428 . S
H228 C224 0.930 . S
H229 C226 0.929 . S
S230 N231 1.613 . S
S230 N232 1.610 . S
N231 S230 1.613 . S
N231 C234 1.350 . S
N232 S230 1.610 . S
N232 C233 1.351 . S
C233 C227 1.428 . S
C233 N232 1.351 . S
C233 C234 1.434 . S
C234 C225 1.439 . S
C234 N231 1.350 . S
C234 C233 1.434 . S
C235 C236 1.369 . S
C235 C237 1.419 . S
C235 H239 0.930 . S
C236 C235 1.369 . S
C236 C245 1.429 . S
C237 C235 1.419 . S
C237 C238 1.363 . S
C237 H240 0.929 . S
C238 C237 1.363 . S
C238 C244 1.428 . S
H239 C235 0.930 . S
H240 C237 0.929 . S
S241 N242 1.613 . S
S241 N243 1.610 . S
N242 S241 1.613 . S
N242 C245 1.350 . S
N243 S241 1.610 . S
N243 C244 1.351 . S
C244 C238 1.428 . S
C244 N243 1.351 . S
C244 C245 1.434 . S
C245 C236 1.429 . S
C245 N242 1.350 . S
C245 C244 1.434 . S
C246 C247 1.369 . S
C246 C248 1.419 . S
C246 H250 0.930 . S
C247 C246 1.369 . S
C247 C256 1.429 . S
C248 C246 1.419 . S
C248 C249 1.363 . S
C248 H251 0.929 . S
C249 C248 1.363 . S
C249 C255 1.428 . S
H250 C246 0.930 . S
H251 C248 0.929 . S
S252 N253 1.613 . S
S252 N254 1.610 . S
N253 S252 1.613 . S
N253 C256 1.350 . S
N254 S252 1.610 . S
N254 C255 1.351 . S
C255 C249 1.428 . S
C255 N254 1.351 . S
C255 C256 1.434 . S
C256 C247 1.429 . S
C256 N253 1.350 . S
C256 C255 1.434 . S
C257 C258 1.369 . S
C257 C259 1.419 . S
C257 H261 0.930 . S
C258 C257 1.369 . S
C258 C267 1.429 . S
C259 C257 1.419 . S
C259 C260 1.363 . S
C259 H262 0.929 1_455 S
C260 C259 1.363 . S
C260 C266 1.428 . S
H261 C257 0.930 . S
H262 C259 0.929 1_655 S
S263 N264 1.613 . S
S263 N265 1.610 . S
N264 S263 1.613 . S
N264 C267 1.350 . S
N265 S263 1.610 . S
N265 C266 1.351 . S
C266 C260 1.428 . S
C266 N265 1.351 . S
C266 C267 1.434 . S
C267 C258 1.429 . S
C267 N264 1.350 . S
C267 C266 1.434 . S
C268 C269 1.369 1_565 S
C268 C270 1.419 . S
C268 H272 0.930 . S
C269 C268 1.369 1_545 S
C269 C278 1.429 1_556 S
C270 C268 1.419 . S
C270 C271 1.363 1_565 S
C270 H273 0.929 . S
C271 C270 1.363 1_545 S
C271 C277 1.428 . S
H272 C268 0.930 . S
H273 C270 0.929 . S
S274 N275 1.613 . S
S274 N276 1.610 . S
N275 S274 1.613 . S
N275 C278 1.350 . S
N276 S274 1.610 . S
N276 C277 1.351 1_554 S
C277 C271 1.428 . S
C277 N276 1.351 1_556 S
C277 C278 1.434 1_556 S
C278 C269 1.429 1_554 S
C278 N275 1.350 . S
C278 C277 1.434 1_554 S
C279 C280 1.369 1_556 S
C279 C281 1.419 . S
C279 H283 0.930 . S
C280 C279 1.369 1_554 S
C280 C289 1.429 . S
C281 C279 1.419 . S
C281 C282 1.363 . S
C281 H284 0.929 . S
C282 C281 1.363 . S
C282 C288 1.428 1_556 S
H283 C279 0.930 . S
H284 C281 0.929 . S
S285 N286 1.613 . S
S285 N287 1.610 . S
N286 S285 1.613 . S
N286 C289 1.350 . S
N287 S285 1.610 . S
N287 C288 1.351 . S
C288 C282 1.428 1_554 S
C288 N287 1.351 . S
C288 C289 1.434 . S
C289 C280 1.429 . S
C289 N286 1.350 . S
C289 C288 1.434 . S
C290 C291 1.369 . S
C290 C292 1.419 1_554 S
C290 H294 0.930 . S
C291 C290 1.369 . S
C291 C300 1.429 . S
C292 C290 1.419 1_556 S
C292 C293 1.363 . S
C292 H295 0.929 . S
C293 C292 1.363 . S
C293 C299 1.428 . S
H294 C290 0.930 . S
H295 C292 0.929 . S
S296 N297 1.613 . S
S296 N298 1.610 1_554 S
N297 S296 1.613 . S
N297 C300 1.350 . S
N298 S296 1.610 1_556 S
N298 C299 1.351 . S
C299 C293 1.428 . S
C299 N298 1.351 . S
C299 C300 1.434 1_556 S
C300 C291 1.429 . S
C300 N297 1.350 . S
C300 C299 1.434 1_554 S
C301 C302 1.369 . S
C301 C303 1.419 . S
C301 H305 0.930 . S
C302 C301 1.369 . S
C302 C311 1.429 1_655 S
C303 C301 1.419 . S
C303 C304 1.363 1_655 S
C303 H306 0.929 . S
C304 C303 1.363 1_455 S
C304 C310 1.428 . S
H305 C301 0.930 . S
H306 C303 0.929 . S
S307 N308 1.613 . S
S307 N309 1.610 . S
N308 S307 1.613 . S
N308 C311 1.350 . S
N309 S307 1.610 . S
N309 C310 1.351 . S
C310 C304 1.428 . S
C310 N309 1.351 . S
C310 C311 1.434 . S
C311 C302 1.429 1_455 S
C311 N308 1.350 . S
C311 C310 1.434 . S
C312 C313 1.369 . S
C312 C314 1.419 . S
C312 H316 0.930 . S
C313 C312 1.369 . S
C313 C322 1.429 . S
C314 C312 1.419 . S
C314 C315 1.363 . S
C314 H317 0.929 . S
C315 C314 1.363 . S
C315 C321 1.428 . S
H316 C312 0.930 . S
H317 C314 0.929 . S
S318 N319 1.613 1_655 S
S318 N320 1.610 . S
N319 S318 1.613 1_455 S
N319 C322 1.350 . S
N320 S318 1.610 . S
N320 C321 1.351 1_655 S
C321 C315 1.428 . S
C321 N320 1.351 1_455 S
C321 C322 1.434 . S
C322 C313 1.429 . S
C322 N319 1.350 . S
C322 C321 1.434 . S
C323 C324 1.338 1_545 S
C323 C325 1.419 . S
C323 H327 0.930 . S
C324 C323 1.338 1_565 S
C324 C333 1.461 . S
C325 C323 1.419 . S
C325 C326 1.363 1_545 S
C325 H328 0.929 . S
C326 C325 1.363 1_565 S
C326 C332 1.428 . S
H327 C323 0.930 . S
H328 C325 0.929 . S
S329 N330 1.613 . S
S329 N331 1.610 . S
N330 S329 1.613 . S
N330 C333 1.350 . S
N331 S329 1.610 . S
N331 C332 1.351 . S
C332 C326 1.428 . S
C332 N331 1.351 . S
C332 C333 1.434 . S
C333 C324 1.461 . S
C333 N330 1.350 . S
C333 C332 1.434 . S
C334 C335 1.369 . S
C334 C336 1.419 . S
C334 H338 0.930 . S
C335 C334 1.369 . S
C335 C344 1.429 . S
C336 C334 1.419 . S
C336 C337 1.363 . S
C336 H339 0.929 . S
C337 C336 1.363 . S
C337 C343 1.428 . S
H338 C334 0.930 . S
H339 C336 0.929 . S
S340 N341 1.613 . S
S340 N342 1.610 . S
N341 S340 1.613 . S
N341 C344 1.350 . S
N342 S340 1.610 . S
N342 C343 1.351 . S
C343 C337 1.428 . S
C343 N342 1.351 . S
C343 C344 1.434 . S
C344 C335 1.429 . S
C344 N341 1.350 . S
C344 C343 1.434 . S
C345 C346 1.369 . S
C345 C347 1.419 . S
C345 H349 0.930 . S
C346 C345 1.369 . S
C346 C355 1.429 . S
C347 C345 1.419 . S
C347 C348 1.363 . S
C347 H350 0.929 . S
C348 C347 1.363 . S
C348 C354 1.428 . S
H349 C345 0.930 . S
H350 C347 0.929 . S
S351 N352 1.613 . S
S351 N353 1.610 . S
N352 S351 1.613 . S
N352 C355 1.350 . S
N353 S351 1.610 . S
N353 C354 1.351 . S
C354 C348 1.428 . S
C354 N353 1.351 . S
C354 C355 1.434 . S
C355 C346 1.429 . S
C355 N352 1.350 . S
C355 C354 1.434 . S
C356 C357 1.369 1_455 S
C356 C358 1.419 . S
C356 H360 0.930 1_556 S
C357 C356 1.369 1_655 S
C357 C366 1.429 . S
C358 C356 1.419 . S
C358 C359 1.363 . S
C358 H361 0.929 1_556 S
C359 C358 1.363 . S
C359 C365 1.428 1_455 S
H360 C356 0.930 1_554 S
H361 C358 0.929 1_554 S
S362 N363 1.613 . S
S362 N364 1.610 . S
N363 S362 1.613 . S
N363 C366 1.350 . S
N364 S362 1.610 . S
N364 C365 1.351 . S
C365 C359 1.428 1_655 S
C365 N364 1.351 . S
C365 C366 1.434 . S
C366 C357 1.429 . S
C366 N363 1.350 . S
C366 C365 1.434 . S
C367 C368 1.374 1_556 S
C367 C369 1.419 . S
C367 H371 0.930 . S
C368 C367 1.374 1_554 S
C368 C377 1.424 1_545 S
C369 C367 1.419 . S
C369 C370 1.363 . S
C369 H372 0.929 . S
C370 C369 1.363 . S
C370 C376 1.428 1_546 S
H371 C367 0.930 . S
H372 C369 0.929 . S
S373 N374 1.613 . S
S373 N375 1.610 . S
N374 S373 1.613 . S
N374 C377 1.350 . S
N375 S373 1.610 . S
N375 C376 1.351 . S
C376 C370 1.428 1_564 S
C376 N375 1.351 . S
C376 C377 1.434 . S
C377 C368 1.424 1_565 S
C377 N374 1.350 . S
C377 C376 1.434 . S
C378 C379 1.369 1_556 S
C378 C380 1.419 . S
C378 H382 0.930 . S
C379 C378 1.369 1_554 S
C379 C388 1.429 . S
C380 C378 1.419 . S
C380 C381 1.363 . S
C380 H383 0.929 . S
C381 C380 1.363 . S
C381 C387 1.428 . S
H382 C378 0.930 . S
H383 C380 0.929 . S
S384 N385 1.613 . S
S384 N386 1.610 1_554 S
N385 S384 1.613 . S
N385 C388 1.350 . S
N386 S384 1.610 1_556 S
N386 C387 1.351 . S
C387 C381 1.428 . S
C387 N386 1.351 . S
C387 C388 1.434 1_556 S
C388 C379 1.429 . S
C388 N385 1.350 . S
C388 C387 1.434 1_554 S
C389 C390 1.369 . S
C389 C391 1.419 1_554 S
C389 H393 0.930 . S
C390 C389 1.369 . S
C390 C399 1.429 . S
C391 C389 1.419 1_556 S
C391 C392 1.363 . S
C391 H394 0.929 . S
C392 C391 1.363 . S
C392 C398 1.426 1_556 S
H393 C389 0.930 . S
H394 C391 0.929 . S
S395 N396 1.613 . S
S395 N397 1.610 . S
N396 S395 1.613 . S
N396 C399 1.350 . S
N397 S395 1.610 . S
N397 C398 1.351 . S
C398 C392 1.426 1_554 S
C398 N397 1.351 . S
C398 C399 1.437 . S
C399 C390 1.429 . S
C399 N396 1.350 . S
C399 C398 1.437 . S
C400 C401 1.369 . S
C400 C402 1.419 . S
C400 H404 0.930 . S
C401 C400 1.369 . S
C401 C410 1.429 . S
C402 C400 1.419 . S
C402 C403 1.363 . S
C402 H405 0.929 . S
C403 C402 1.363 . S
C403 C409 1.428 . S
H404 C400 0.930 . S
H405 C402 0.929 . S
S406 N407 1.613 . S
S406 N408 1.610 . S
N407 S406 1.613 . S
N407 C410 1.350 . S
N408 S406 1.610 . S
N408 C409 1.351 . S
C409 C403 1.428 . S
C409 N408 1.351 . S
C409 C410 1.434 . S
C410 C401 1.429 . S
C410 N407 1.350 . S
C410 C409 1.434 . S
C411 C412 1.378 . S
C411 C413 1.419 . S
C411 H415 0.930 . S
C412 C411 1.378 . S
C412 C421 1.419 1_545 S
C413 C411 1.419 . S
C413 C414 1.363 . S
C413 H416 0.929 . S
C414 C413 1.363 . S
C414 C420 1.428 1_545 S
H415 C411 0.930 . S
H416 C413 0.929 . S
S417 N418 1.613 1_556 S
S417 N419 1.610 . S
N418 S417 1.613 1_554 S
N418 C421 1.350 . S
N419 S417 1.610 . S
N419 C420 1.351 1_556 S
C420 C414 1.428 1_565 S
C420 N419 1.351 1_554 S
C420 C421 1.434 . S
C421 C412 1.419 1_565 S
C421 N418 1.350 . S
C421 C420 1.434 . S
C422 C423 1.369 . S
C422 C424 1.419 . S
C422 H426 0.930 . S
C423 C422 1.369 . S
C423 C432 1.429 . S
C424 C422 1.419 . S
C424 C425 1.363 . S
C424 H427 0.929 . S
C425 C424 1.363 . S
C425 C431 1.428 . S
H426 C422 0.930 . S
H427 C424 0.929 . S
S428 N429 1.613 1_556 S
S428 N430 1.610 . S
N429 S428 1.613 1_554 S
N429 C432 1.350 . S
N430 S428 1.610 . S
N430 C431 1.351 1_556 S
C431 C425 1.428 . S
C431 N430 1.351 1_554 S
C431 C432 1.434 . S
C432 C423 1.429 . S
C432 N429 1.350 . S
C432 C431 1.434 . S
C433 C434 1.369 . S
C433 C435 1.419 1_554 S
C433 H437 0.930 . S
C434 C433 1.369 . S
C434 C443 1.429 . S
C435 C433 1.419 1_556 S
C435 C436 1.363 . S
C435 H438 0.929 . S
C436 C435 1.363 . S
C436 C442 1.428 1_556 S
H437 C433 0.930 . S
H438 C435 0.929 . S
S439 N440 1.613 . S
S439 N441 1.610 . S
N440 S439 1.613 . S
N440 C443 1.350 . S
N441 S439 1.610 . S
N441 C442 1.351 . S
C442 C436 1.428 1_554 S
C442 N441 1.351 . S
C442 C443 1.434 . S
C443 C434 1.429 . S
C443 N440 1.350 . S
C443 C442 1.434 . S
C444 C445 1.369 . S
C444 C446 1.420 . S
C444 H448 0.930 1_655 S
C445 C444 1.369 . S
C445 C454 1.429 . S
C446 C444 1.420 . S
C446 C447 1.366 . S
C446 H449 0.925 1_655 S
C447 C446 1.366 . S
C447 C453 1.428 . S
H448 C444 0.930 1_455 S
H449 C446 0.925 1_455 S
S450 N451 1.613 . S
S450 N452 1.610 . S
N451 S450 1.613 . S
N451 C454 1.350 . S
N452 S450 1.610 . S
N452 C453 1.351 . S
C453 C447 1.428 . S
C453 N452 1.351 . S
C453 C454 1.434 . S
C454 C445 1.429 . S
C454 N451 1.350 . S
C454 C453 1.434 . S
C455 C456 1.369 1_545 S
C455 C457 1.419 . S
C455 H459 0.930 . S
C456 C455 1.369 1_565 S
C456 C465 1.429 . S
C457 C455 1.419 . S
C457 C458 1.363 1_545 S
C457 H460 0.929 . S
C458 C457 1.363 1_565 S
C458 C464 1.428 . S
H459 C455 0.930 . S
H460 C457 0.929 . S
S461 N462 1.613 . S
S461 N463 1.610 . S
N462 S461 1.613 . S
N462 C465 1.350 . S
N463 S461 1.610 . S
N463 C464 1.351 . S
C464 C458 1.428 . S
C464 N463 1.351 . S
C464 C465 1.434 . S
C465 C456 1.429 . S
C465 N462 1.350 . S
C465 C464 1.434 . S
C466 C467 1.369 . S
C466 C468 1.419 . S
C466 H470 0.930 . S
C467 C466 1.369 . S
C467 C476 1.429 . S
C468 C466 1.419 . S
C468 C469 1.363 . S
C468 H471 0.929 . S
C469 C468 1.363 . S
C469 C475 1.428 . S
H470 C466 0.930 . S
H471 C468 0.929 . S
S472 N473 1.613 . S
S472 N474 1.610 . S
N473 S472 1.613 . S
N473 C476 1.350 . S
N474 S472 1.610 . S
N474 C475 1.351 . S
C475 C469 1.428 . S
C475 N474 1.351 . S
C475 C476 1.434 . S
C476 C467 1.429 . S
C476 N473 1.350 . S
C476 C475 1.434 . S
C477 C478 1.369 . S
C477 C479 1.419 . S
C477 H481 0.930 . S
C478 C477 1.369 . S
C478 C487 1.429 . S
C479 C477 1.419 . S
C479 C480 1.363 . S
C479 H482 0.929 . S
C480 C479 1.363 . S
C480 C486 1.428 . S
H481 C477 0.930 . S
H482 C479 0.929 . S
S483 N484 1.613 . S
S483 N485 1.610 . S
N484 S483 1.613 . S
N484 C487 1.350 . S
N485 S483 1.610 . S
N485 C486 1.351 . S
C486 C480 1.428 . S
C486 N485 1.351 . S
C486 C487 1.434 . S
C487 C478 1.429 . S
C487 N484 1.350 . S
C487 C486 1.434 . S
C225 N70 1.843 . S
C227 C105 1.872 . S
C238 C126 1.533 . S
C236 N81 1.496 . S
C249 C160 1.470 . S
C247 N48 1.404 . S
C260 C194 1.554 . S
C258 N59 1.529 . S
C271 C96 1.872 . S
C269 N26 1.842 1_546 S
C280 N37 1.510 . S
C282 C135 1.535 . S
C291 N4 1.416 . S
C293 C169 1.464 . S
C302 N15 1.533 . S
C304 C203 1.556 . S
C315 C117 0.875 . S
C313 C64 0.822 . S
C326 C122 1.275 . S
C324 C75 1.241 1_565 S
C337 C156 1.184 . S
C335 C86 1.165 . S
C346 C53 0.622 . S
C348 C190 0.626 . S
C357 C20 0.835 . S
C359 C88 0.870 . S
C370 C151 1.274 . S
C368 C31 1.232 . S
C381 C185 1.182 . S
C379 C42 1.164 . S
C390 C9 0.620 . S
C392 C219 0.626 . S
C401 C61 1.340 . S
C403 C101 1.382 . S
C412 C72 1.723 . S
C414 C130 1.764 1_554 S
C425 C164 1.543 1_554 S
C423 C83 1.520 . S
C436 C198 1.605 . S
C434 C50 1.556 . S
C445 C17 1.333 . S
C447 C92 1.388 . S
C458 C139 1.764 . S
C456 C28 1.722 1_565 S
C469 C173 1.543 . S
C467 C39 1.512 . S
C478 C6 1.564 . S
C480 C207 1.606 . S
