# Generated by pormake.
# Topology eea, (3,6)-cn, num edge types: 1
# Building blocks:
#     Node 0, Type 0, BuildingBlock: KAKCAD_clean_linker_0, # of connection points: 3
#     Node 1, Type 0, BuildingBlock: KAKCAD_clean_linker_0, # of connection points: 3
#     Node 2, Type 0, BuildingBlock: KAKCAD_clean_linker_0, # of connection points: 3
#     Node 3, Type 0, BuildingBlock: KAKCAD_clean_linker_0, # of connection points: 3
#     Node 4, Type 0, BuildingBlock: KAKCAD_clean_linker_0, # of connection points: 3
#     Node 5, Type 0, BuildingBlock: KAKCAD_clean_linker_0, # of connection points: 3
#     Node 6, Type 0, BuildingBlock: KAKCAD_clean_linker_0, # of connection points: 3
#     Node 7, Type 0, BuildingBlock: KAKCAD_clean_linker_0, # of connection points: 3
#     Node 8, Type 0, BuildingBlock: KAKCAD_clean_linker_0, # of connection points: 3
#     Node 9, Type 0, BuildingBlock: KAKCAD_clean_linker_0, # of connection points: 3
#     Node 10, Type 0, BuildingBlock: KAKCAD_clean_linker_0, # of connection points: 3
#     Node 11, Type 0, BuildingBlock: KAKCAD_clean_linker_0, # of connection points: 3
#     Node 12, Type 0, BuildingBlock: KAKCAD_clean_linker_0, # of connection points: 3
#     Node 13, Type 0, BuildingBlock: KAKCAD_clean_linker_0, # of connection points: 3
#     Node 14, Type 0, BuildingBlock: KAKCAD_clean_linker_0, # of connection points: 3
#     Node 15, Type 0, BuildingBlock: KAKCAD_clean_linker_0, # of connection points: 3
#     Node 16, Type 0, BuildingBlock: KAKCAD_clean_linker_0, # of connection points: 3
#     Node 17, Type 0, BuildingBlock: KAKCAD_clean_linker_0, # of connection points: 3
#     Node 18, Type 1, BuildingBlock: KUMJIN_clean_sbu_0, # of connection points: 6
#     Node 19, Type 1, BuildingBlock: KUMJIN_clean_sbu_0, # of connection points: 6
#     Node 20, Type 1, BuildingBlock: KUMJIN_clean_sbu_0, # of connection points: 6
#     Node 21, Type 1, BuildingBlock: KUMJIN_clean_sbu_0, # of connection points: 6
#     Node 22, Type 1, BuildingBlock: KUMJIN_clean_sbu_0, # of connection points: 6
#     Node 23, Type 1, BuildingBlock: KUMJIN_clean_sbu_0, # of connection points: 6
#     Node 24, Type 1, BuildingBlock: KUMJIN_clean_sbu_0, # of connection points: 6
#     Node 25, Type 1, BuildingBlock: KUMJIN_clean_sbu_0, # of connection points: 6
#     Node 26, Type 1, BuildingBlock: KUMJIN_clean_sbu_0, # of connection points: 6
#     Edge 27, Type (0, 1), BuildingBlock: XIVTED_clean_linker_0, # of connection points: 2
#     Edge 28, Type (0, 1), BuildingBlock: XIVTED_clean_linker_0, # of connection points: 2
#     Edge 29, Type (0, 1), BuildingBlock: XIVTED_clean_linker_0, # of connection points: 2
#     Edge 30, Type (0, 1), BuildingBlock: XIVTED_clean_linker_0, # of connection points: 2
#     Edge 31, Type (0, 1), BuildingBlock: XIVTED_clean_linker_0, # of connection points: 2
#     Edge 32, Type (0, 1), BuildingBlock: XIVTED_clean_linker_0, # of connection points: 2
#     Edge 33, Type (0, 1), BuildingBlock: XIVTED_clean_linker_0, # of connection points: 2
#     Edge 34, Type (0, 1), BuildingBlock: XIVTED_clean_linker_0, # of connection points: 2
#     Edge 35, Type (0, 1), BuildingBlock: XIVTED_clean_linker_0, # of connection points: 2
#     Edge 36, Type (0, 1), BuildingBlock: XIVTED_clean_linker_0, # of connection points: 2
#     Edge 37, Type (0, 1), BuildingBlock: XIVTED_clean_linker_0, # of connection points: 2
#     Edge 38, Type (0, 1), BuildingBlock: XIVTED_clean_linker_0, # of connection points: 2
#     Edge 39, Type (0, 1), BuildingBlock: XIVTED_clean_linker_0, # of connection points: 2
#     Edge 40, Type (0, 1), BuildingBlock: XIVTED_clean_linker_0, # of connection points: 2
#     Edge 41, Type (0, 1), BuildingBlock: XIVTED_clean_linker_0, # of connection points: 2
#     Edge 42, Type (0, 1), BuildingBlock: XIVTED_clean_linker_0, # of connection points: 2
#     Edge 43, Type (0, 1), BuildingBlock: XIVTED_clean_linker_0, # of connection points: 2
#     Edge 44, Type (0, 1), BuildingBlock: XIVTED_clean_linker_0, # of connection points: 2
#     Edge 45, Type (0, 1), BuildingBlock: XIVTED_clean_linker_0, # of connection points: 2
#     Edge 46, Type (0, 1), BuildingBlock: XIVTED_clean_linker_0, # of connection points: 2
#     Edge 47, Type (0, 1), BuildingBlock: XIVTED_clean_linker_0, # of connection points: 2
#     Edge 48, Type (0, 1), BuildingBlock: XIVTED_clean_linker_0, # of connection points: 2
#     Edge 49, Type (0, 1), BuildingBlock: XIVTED_clean_linker_0, # of connection points: 2
#     Edge 50, Type (0, 1), BuildingBlock: XIVTED_clean_linker_0, # of connection points: 2
#     Edge 51, Type (0, 1), BuildingBlock: XIVTED_clean_linker_0, # of connection points: 2
#     Edge 52, Type (0, 1), BuildingBlock: XIVTED_clean_linker_0, # of connection points: 2
#     Edge 53, Type (0, 1), BuildingBlock: XIVTED_clean_linker_0, # of connection points: 2
#     Edge 54, Type (0, 1), BuildingBlock: XIVTED_clean_linker_0, # of connection points: 2
#     Edge 55, Type (0, 1), BuildingBlock: XIVTED_clean_linker_0, # of connection points: 2
#     Edge 56, Type (0, 1), BuildingBlock: XIVTED_clean_linker_0, # of connection points: 2
#     Edge 57, Type (0, 1), BuildingBlock: XIVTED_clean_linker_0, # of connection points: 2
#     Edge 58, Type (0, 1), BuildingBlock: XIVTED_clean_linker_0, # of connection points: 2
#     Edge 59, Type (0, 1), BuildingBlock: XIVTED_clean_linker_0, # of connection points: 2
#     Edge 60, Type (0, 1), BuildingBlock: XIVTED_clean_linker_0, # of connection points: 2
#     Edge 61, Type (0, 1), BuildingBlock: XIVTED_clean_linker_0, # of connection points: 2
#     Edge 62, Type (0, 1), BuildingBlock: XIVTED_clean_linker_0, # of connection points: 2
#     Edge 63, Type (0, 1), BuildingBlock: XIVTED_clean_linker_0, # of connection points: 2
#     Edge 64, Type (0, 1), BuildingBlock: XIVTED_clean_linker_0, # of connection points: 2
#     Edge 65, Type (0, 1), BuildingBlock: XIVTED_clean_linker_0, # of connection points: 2
#     Edge 66, Type (0, 1), BuildingBlock: XIVTED_clean_linker_0, # of connection points: 2
#     Edge 67, Type (0, 1), BuildingBlock: XIVTED_clean_linker_0, # of connection points: 2
#     Edge 68, Type (0, 1), BuildingBlock: XIVTED_clean_linker_0, # of connection points: 2
#     Edge 69, Type (0, 1), BuildingBlock: XIVTED_clean_linker_0, # of connection points: 2
#     Edge 70, Type (0, 1), BuildingBlock: XIVTED_clean_linker_0, # of connection points: 2
#     Edge 71, Type (0, 1), BuildingBlock: XIVTED_clean_linker_0, # of connection points: 2
#     Edge 72, Type (0, 1), BuildingBlock: XIVTED_clean_linker_0, # of connection points: 2
#     Edge 73, Type (0, 1), BuildingBlock: XIVTED_clean_linker_0, # of connection points: 2
#     Edge 74, Type (0, 1), BuildingBlock: XIVTED_clean_linker_0, # of connection points: 2
#     Edge 75, Type (0, 1), BuildingBlock: XIVTED_clean_linker_0, # of connection points: 2
#     Edge 76, Type (0, 1), BuildingBlock: XIVTED_clean_linker_0, # of connection points: 2
#     Edge 77, Type (0, 1), BuildingBlock: XIVTED_clean_linker_0, # of connection points: 2
#     Edge 78, Type (0, 1), BuildingBlock: XIVTED_clean_linker_0, # of connection points: 2
#     Edge 79, Type (0, 1), BuildingBlock: XIVTED_clean_linker_0, # of connection points: 2
#     Edge 80, Type (0, 1), BuildingBlock: XIVTED_clean_linker_0, # of connection points: 2
# Relax obj value: 0.009
# Max RMSD: 0.094
# Mean RMSD: 0.062
data_MOF--net-eea--node1-KUMJIN_clean_sbu_0--node2-KAKCAD_clean_linker_0--edge1-XIVTED_clean_linker_0
_symmetry_space_group_name_H-M    P1
_symmetry_Int_Tables_number       1
_symmetry_cell_setting            triclinic
loop_
_symmetry_equiv_pos_as_xyz
'x, y, z'
_cell_length_a     62.873892
_cell_length_b     64.170229
_cell_length_c     88.885151
_cell_angle_alpha  90.372552
_cell_angle_beta   90.076221
_cell_angle_gamma 120.02798
loop_
_atom_site_label
_atom_site_type_symbol
_atom_site_fract_x
_atom_site_fract_y
_atom_site_fract_z
_atom_type_partial_charge
C0 C 0.28382 0.15318 0.48456 0.0
C1 C 0.30057 0.14556 0.48818 0.0
C2 C 0.27221 0.14768 0.47049 0.0
C3 C 0.27745 0.1348 0.45964 0.0
C4 C 0.29473 0.12772 0.46324 0.0
C5 C 0.30596 0.13283 0.4774 0.0
C6 C 0.26467 0.1284 0.44476 0.0
C7 C 0.25845 0.14412 0.43755 0.0
C8 C 0.24631 0.13798 0.42357 0.0
C9 C 0.24023 0.11592 0.41675 0.0
C10 C 0.24625 0.10006 0.42377 0.0
C11 C 0.25843 0.10634 0.4377 0.0
C12 C 0.23965 0.07677 0.41659 0.0
C13 C 0.2151 0.06037 0.41281 0.0
C14 C 0.25786 0.0708 0.41352 0.0
C15 C 0.25164 0.04884 0.40661 0.0
C16 C 0.22706 0.03232 0.40299 0.0
C17 C 0.24006 0.15467 0.416 0.0
C18 C 0.22614 0.16311 0.42347 0.0
C19 C 0.24774 0.162 0.40118 0.0
C20 C 0.24176 0.1777 0.39398 0.0
C21 C 0.22756 0.18589 0.40137 0.0
C22 C 0.21972 0.17841 0.41615 0.0
C23 C 0.20881 0.03819 0.40621 0.0
H24 H 0.27923 0.16285 0.49276 0.0
H25 H 0.25874 0.15309 0.46828 0.0
H26 H 0.29972 0.1183 0.45511 0.0
H27 H 0.31905 0.12702 0.47989 0.0
H28 H 0.26354 0.16143 0.44257 0.0
H29 H 0.26239 0.09363 0.44319 0.0
H30 H 0.2308 0.11108 0.40597 0.0
H31 H 0.20078 0.06463 0.41514 0.0
H32 H 0.27691 0.08325 0.41632 0.0
H33 H 0.26598 0.04461 0.40427 0.0
H34 H 0.21995 0.15758 0.43488 0.0
H35 H 0.25856 0.15576 0.39523 0.0
H36 H 0.18975 0.02573 0.40344 0.0
H37 H 0.20887 0.18463 0.42209 0.0
H38 H 0.24793 0.18318 0.38256 0.0
C39 C 0.87686 0.15988 0.47718 0.0
C40 C 0.87008 0.14249 0.48854 0.0
C41 C 0.88238 0.15546 0.46267 0.0
C42 C 0.88095 0.13345 0.4591 0.0
C43 C 0.8744 0.11614 0.47042 0.0
C44 C 0.8692 0.12066 0.48497 0.0
C45 C 0.88569 0.12821 0.44354 0.0
C46 C 0.90663 0.14498 0.43568 0.0
C47 C 0.91131 0.1399 0.42101 0.0
C48 C 0.89454 0.11771 0.41426 0.0
C49 C 0.87331 0.10076 0.42189 0.0
C50 C 0.86912 0.10628 0.43654 0.0
C51 C 0.85545 0.07739 0.41458 0.0
C52 C 0.85042 0.07605 0.39904 0.0
C53 C 0.84314 0.05618 0.42309 0.0
C54 C 0.82616 0.03436 0.4163 0.0
C55 C 0.82136 0.0331 0.4008 0.0
C56 C 0.93369 0.15769 0.41274 0.0
C57 C 0.94199 0.18248 0.41375 0.0
C58 C 0.94687 0.15004 0.40367 0.0
C59 C 0.96769 0.1667 0.39579 0.0
C60 C 0.97601 0.1915 0.39681 0.0
C61 C 0.96288 0.19915 0.40594 0.0
C62 C 0.83373 0.05413 0.39222 0.0
H63 H 0.87737 0.17674 0.47936 0.0
H64 H 0.88716 0.16904 0.45412 0.0
H65 H 0.87347 0.09913 0.46803 0.0
H66 H 0.86462 0.10702 0.49343 0.0
H67 H 0.91963 0.16172 0.44118 0.0
H68 H 0.85258 0.09375 0.44245 0.0
H69 H 0.89803 0.11365 0.403 0.0
H70 H 0.85909 0.09199 0.39214 0.0
H71 H 0.84682 0.0563 0.43501 0.0
H72 H 0.81709 0.01834 0.42315 0.0
H73 H 0.93219 0.18905 0.42048 0.0
H74 H 0.94127 0.13114 0.40275 0.0
H75 H 0.83018 0.0537 0.38026 0.0
H76 H 0.96888 0.21809 0.40721 0.0
H77 H 0.97713 0.16006 0.38877 0.0
C78 C 0.89002 0.74239 0.48187 0.0
C79 C 0.86562 0.72541 0.48562 0.0
C80 C 0.89575 0.75323 0.46765 0.0
C81 C 0.87726 0.74732 0.45676 0.0
C82 C 0.85291 0.73028 0.46054 0.0
C83 C 0.84717 0.71967 0.47474 0.0
C84 C 0.88306 0.75862 0.44151 0.0
C85 C 0.90482 0.76368 0.43397 0.0
C86 C 0.90951 0.77304 0.41928 0.0
C87 C 0.89208 0.77727 0.41208 0.0
C88 C 0.87035 0.77266 0.41943 0.0
C89 C 0.86629 0.76369 0.4342 0.0
C90 C 0.85158 0.77668 0.41169 0.0
C91 C 0.85856 0.79667 0.40233 0.0
C92 C 0.82635 0.7605 0.41371 0.0
C93 C 0.80864 0.76431 0.40674 0.0
C94 C 0.81556 0.78431 0.39741 0.0
C95 C 0.93238 0.77789 0.4113 0.0
C96 C 0.95538 0.79045 0.41853 0.0
C97 C 0.93139 0.77002 0.39637 0.0
C98 C 0.95283 0.77437 0.38891 0.0
C99 C 0.97585 0.78701 0.39612 0.0
C100 C 0.97688 0.79512 0.41099 0.0
C101 C 0.8408 0.80042 0.39527 0.0
H102 H 0.90483 0.74715 0.48983 0.0
H103 H 0.91468 0.76641 0.46527 0.0
H104 H 0.83814 0.72484 0.45245 0.0
H105 H 0.8281 0.70705 0.47719 0.0
H106 H 0.91777 0.75954 0.43928 0.0
H107 H 0.85002 0.76089 0.44011 0.0
H108 H 0.89543 0.78406 0.40069 0.0
H109 H 0.87778 0.80964 0.40059 0.0
H110 H 0.8202 0.7447 0.42064 0.0
H111 H 0.78946 0.75166 0.40888 0.0
H112 H 0.95677 0.79688 0.42999 0.0
H113 H 0.91395 0.76015 0.39052 0.0
H114 H 0.84689 0.81588 0.38805 0.0
H115 H 0.99428 0.80471 0.41691 0.0
H116 H 0.95142 0.768 0.37744 0.0
C117 C 0.14195 0.25133 0.53363 0.0
C118 C 0.14192 0.27279 0.53057 0.0
C119 C 0.13623 0.24127 0.54803 0.0
C120 C 0.12989 0.25217 0.5596 0.0
C121 C 0.12933 0.27333 0.55645 0.0
C122 C 0.13551 0.28365 0.54213 0.0
C123 C 0.12456 0.24191 0.57503 0.0
C124 C 0.14093 0.23618 0.58218 0.0
C125 C 0.13666 0.22733 0.59696 0.0
C126 C 0.11532 0.22354 0.60442 0.0
C127 C 0.09837 0.22862 0.59736 0.0
C128 C 0.10339 0.23818 0.58272 0.0
C129 C 0.07535 0.22361 0.60525 0.0
C130 C 0.06174 0.20222 0.61341 0.0
C131 C 0.06675 0.24005 0.60471 0.0
C132 C 0.04516 0.23526 0.61218 0.0
C133 C 0.0315 0.21381 0.62029 0.0
C134 C 0.15475 0.22252 0.60473 0.0
C135 C 0.16439 0.20955 0.59746 0.0
C136 C 0.1627 0.23112 0.61945 0.0
C137 C 0.18013 0.22711 0.62666 0.0
C138 C 0.18976 0.21411 0.6194 0.0
C139 C 0.18157 0.20524 0.60476 0.0
C140 C 0.0401 0.19737 0.62079 0.0
H141 H 0.14694 0.24263 0.52497 0.0
H142 H 0.13671 0.22489 0.55012 0.0
H143 H 0.12465 0.2822 0.56517 0.0
H144 H 0.13521 0.30012 0.54008 0.0
H145 H 0.1575 0.23945 0.57643 0.0
H146 H 0.09048 0.24209 0.57712 0.0
H147 H 0.1119 0.2166 0.61578 0.0
H148 H 0.06766 0.18903 0.61395 0.0
H149 H 0.07686 0.25677 0.59863 0.0
H150 H 0.03897 0.24822 0.61141 0.0
H151 H 0.15852 0.20259 0.58616 0.0
H152 H 0.15574 0.24132 0.6253 0.0
H153 H 0.0302 0.18078 0.62703 0.0
H154 H 0.18879 0.19533 0.59883 0.0
H155 H 0.18597 0.23405 0.63797 0.0
C156 C 0.69129 0.83349 0.54216 0.0
C157 C 0.69773 0.8526 0.53213 0.0
C158 C 0.7017 0.83785 0.55658 0.0
C159 C 0.71872 0.86141 0.56131 0.0
C160 C 0.72491 0.88048 0.55132 0.0
C161 C 0.71452 0.87615 0.53695 0.0
C162 C 0.73063 0.86625 0.57641 0.0
C163 C 0.73883 0.85117 0.58223 0.0
C164 C 0.75201 0.85694 0.59584 0.0
C165 C 0.75708 0.87806 0.60362 0.0
C166 C 0.74855 0.89313 0.59823 0.0
C167 C 0.73499 0.88678 0.5847 0.0
C168 C 0.75455 0.91584 0.60642 0.0
C169 C 0.75704 0.91748 0.6222 0.0
C170 C 0.75855 0.93637 0.59849 0.0
C171 C 0.76491 0.95785 0.60605 0.0
C172 C 0.76824 0.95976 0.62178 0.0
C173 C 0.76071 0.84107 0.60199 0.0
C174 C 0.74467 0.81614 0.60292 0.0
C175 C 0.78484 0.85085 0.60746 0.0
C176 C 0.79268 0.83606 0.61394 0.0
C177 C 0.77652 0.81114 0.61519 0.0
C178 C 0.75244 0.80135 0.60951 0.0
C179 C 0.76409 0.93918 0.62974 0.0
H180 H 0.67855 0.81511 0.53877 0.0
H181 H 0.69638 0.82277 0.56404 0.0
H182 H 0.73819 0.89882 0.55449 0.0
H183 H 0.71963 0.89133 0.52961 0.0
H184 H 0.73582 0.83541 0.57591 0.0
H185 H 0.72768 0.89777 0.58056 0.0
H186 H 0.76785 0.88273 0.61388 0.0
H187 H 0.75362 0.90201 0.62882 0.0
H188 H 0.75724 0.93614 0.58634 0.0
H189 H 0.76722 0.97295 0.59946 0.0
H190 H 0.72589 0.80817 0.59894 0.0
H191 H 0.79771 0.86999 0.60669 0.0
H192 H 0.76666 0.9398 0.64181 0.0
H193 H 0.73936 0.78231 0.61047 0.0
H194 H 0.81148 0.84416 0.6179 0.0
C195 C 0.11856 0.8437 0.53484 0.0
C196 C 0.14316 0.85158 0.53107 0.0
C197 C 0.11259 0.84944 0.54885 0.0
C198 C 0.13103 0.86306 0.55952 0.0
C199 C 0.15557 0.87052 0.55585 0.0
C200 C 0.16156 0.865 0.54181 0.0
C201 C 0.12482 0.87005 0.57423 0.0
C202 C 0.10324 0.85407 0.58196 0.0
C203 C 0.09684 0.86088 0.59559 0.0
C204 C 0.11271 0.88402 0.60152 0.0
C205 C 0.13472 0.89989 0.59424 0.0
C206 C 0.14046 0.89288 0.58056 0.0
C207 C 0.15208 0.92366 0.60105 0.0
C208 C 0.14374 0.93883 0.60659 0.0
C209 C 0.17719 0.93118 0.60217 0.0
C210 C 0.19363 0.95335 0.60878 0.0
C211 C 0.1854 0.96869 0.61429 0.0
C212 C 0.07387 0.84372 0.6037 0.0
C213 C 0.05265 0.82721 0.59567 0.0
C214 C 0.07297 0.84345 0.61956 0.0
C215 C 0.05157 0.8271 0.62712 0.0
C216 C 0.03077 0.81031 0.61902 0.0
C217 C 0.03148 0.81055 0.60324 0.0
C218 C 0.16022 0.96116 0.61306 0.0
H219 H 0.10381 0.83302 0.527 0.0
H220 H 0.09351 0.84356 0.55118 0.0
H221 H 0.17027 0.8807 0.56384 0.0
H222 H 0.18074 0.87168 0.53931 0.0
H223 H 0.09174 0.83607 0.5775 0.0
H224 H 0.15698 0.90556 0.57469 0.0
H225 H 0.10815 0.88972 0.61193 0.0
H226 H 0.1245 0.93358 0.60573 0.0
H227 H 0.18408 0.91969 0.59818 0.0
H228 H 0.21273 0.95823 0.60979 0.0
H229 H 0.05229 0.82713 0.58349 0.0
H230 H 0.08895 0.85546 0.62622 0.0
H231 H 0.15322 0.97261 0.61691 0.0
H232 H 0.01556 0.79788 0.59675 0.0
H233 H 0.05153 0.82708 0.63931 0.0
C234 C 0.9479 0.48091 0.81626 0.0
C235 C 0.96801 0.47755 0.81907 0.0
C236 C 0.93793 0.47762 0.80178 0.0
C237 C 0.94775 0.47073 0.78984 0.0
C238 C 0.9679 0.4675 0.79261 0.0
C239 C 0.97797 0.47095 0.80703 0.0
C240 C 0.93703 0.46676 0.7745 0.0
C241 C 0.93126 0.48331 0.76816 0.0
C242 C 0.92216 0.48002 0.7534 0.0
C243 C 0.91857 0.45991 0.74502 0.0
C244 C 0.92331 0.44264 0.75138 0.0
C245 C 0.93271 0.44636 0.76613 0.0
C246 C 0.91762 0.42037 0.74286 0.0
C247 C 0.89676 0.409 0.73349 0.0
C248 C 0.93249 0.40986 0.74436 0.0
C249 C 0.92628 0.38822 0.73702 0.0
C250 C 0.90522 0.3767 0.72781 0.0
C251 C 0.91593 0.49731 0.7467 0.0
C252 C 0.89955 0.50282 0.75401 0.0
C253 C 0.92557 0.50764 0.73268 0.0
C254 C 0.91889 0.52322 0.72604 0.0
C255 C 0.90211 0.52834 0.7332 0.0
C256 C 0.89251 0.51804 0.74724 0.0
C257 C 0.89078 0.3876 0.72596 0.0
H258 H 0.93954 0.48566 0.8253 0.0
H259 H 0.92224 0.48 0.79999 0.0
H260 H 0.97609 0.46256 0.78355 0.0
H261 H 0.99376 0.46869 0.8087 0.0
H262 H 0.93447 0.4991 0.77453 0.0
H263 H 0.93604 0.43302 0.77132 0.0
H264 H 0.9117 0.4576 0.73359 0.0
H265 H 0.88464 0.41631 0.73218 0.0
H266 H 0.94892 0.41827 0.75128 0.0
H267 H 0.93773 0.38029 0.73887 0.0
H268 H 0.89179 0.49491 0.76479 0.0
H269 H 0.93827 0.50365 0.72687 0.0
H270 H 0.8747 0.37956 0.71875 0.0
H271 H 0.87966 0.52187 0.753 0.0
H272 H 0.92645 0.53088 0.71518 0.0
C273 C 0.55039 0.49971 0.81391 0.0
C274 C 0.53868 0.48102 0.82441 0.0
C275 C 0.55583 0.49505 0.79942 0.0
C276 C 0.54978 0.47159 0.79508 0.0
C277 C 0.53857 0.45304 0.80568 0.0
C278 C 0.53299 0.45765 0.82009 0.0
C279 C 0.55456 0.46619 0.77949 0.0
C280 C 0.57616 0.48222 0.77182 0.0
C281 C 0.58073 0.47684 0.7572 0.0
C282 C 0.56357 0.45486 0.75042 0.0
C283 C 0.54179 0.43861 0.75784 0.0
C284 C 0.53737 0.44472 0.77226 0.0
C285 C 0.52367 0.41521 0.75064 0.0
C286 C 0.51959 0.41331 0.73499 0.0
C287 C 0.51024 0.39449 0.75941 0.0
C288 C 0.49305 0.37264 0.75278 0.0
C289 C 0.48912 0.37064 0.73712 0.0
C290 C 0.60322 0.49427 0.74889 0.0
C291 C 0.6116 0.51909 0.74962 0.0
C292 C 0.61609 0.48625 0.73984 0.0
C293 C 0.63658 0.50257 0.73156 0.0
C294 C 0.64479 0.52738 0.73216 0.0
C295 C 0.63212 0.53541 0.74139 0.0
C296 C 0.50275 0.39131 0.72832 0.0
H297 H 0.55538 0.518 0.81686 0.0
H298 H 0.56432 0.50977 0.79154 0.0
H299 H 0.53402 0.43482 0.80286 0.0
H300 H 0.5237 0.44269 0.82773 0.0
H301 H 0.5897 0.49866 0.77736 0.0
H302 H 0.52018 0.43289 0.77781 0.0
H303 H 0.56717 0.45048 0.73928 0.0
H304 H 0.52923 0.42886 0.72783 0.0
H305 H 0.51307 0.39499 0.77145 0.0
H306 H 0.48271 0.35737 0.76005 0.0
H307 H 0.60203 0.52592 0.75634 0.0
H308 H 0.61039 0.46731 0.73915 0.0
H309 H 0.50066 0.39057 0.71621 0.0
H310 H 0.63812 0.5544 0.74236 0.0
H311 H 0.64573 0.49567 0.72451 0.0
C312 C 0.5569 0.07672 0.81584 0.0
C313 C 0.53261 0.06115 0.82037 0.0
C314 C 0.56186 0.08735 0.80161 0.0
C315 C 0.54265 0.08235 0.79142 0.0
C316 C 0.51832 0.06657 0.796 0.0
C317 C 0.51338 0.05629 0.81033 0.0
C318 C 0.54797 0.09356 0.77614 0.0
C319 C 0.56924 0.09795 0.76828 0.0
C320 C 0.57491 0.10915 0.7541 0.0
C321 C 0.55819 0.11502 0.7475 0.0
C322 C 0.53635 0.11005 0.75488 0.0
C323 C 0.53178 0.09986 0.76932 0.0
C324 C 0.51794 0.11491 0.74743 0.0
C325 C 0.52531 0.13554 0.73861 0.0
C326 C 0.49265 0.0986 0.74896 0.0
C327 C 0.47524 0.10277 0.74193 0.0
C328 C 0.48255 0.12329 0.73302 0.0
C329 C 0.59825 0.11461 0.74627 0.0
C330 C 0.61968 0.12062 0.75462 0.0
C331 C 0.59947 0.11391 0.73043 0.0
C332 C 0.6214 0.11913 0.72323 0.0
C333 C 0.64246 0.12461 0.73168 0.0
C334 C 0.64137 0.12525 0.74743 0.0
C335 C 0.50785 0.13966 0.73149 0.0
H336 H 0.57209 0.08098 0.82341 0.0
H337 H 0.58079 0.09975 0.79871 0.0
H338 H 0.50301 0.0618 0.78845 0.0
H339 H 0.49448 0.04411 0.81345 0.0
H340 H 0.58118 0.09211 0.77311 0.0
H341 H 0.51567 0.09719 0.77536 0.0
H342 H 0.56205 0.12336 0.73655 0.0
H343 H 0.5446 0.14865 0.73728 0.0
H344 H 0.48621 0.08235 0.75547 0.0
H345 H 0.45597 0.08993 0.74362 0.0
H346 H 0.61989 0.12203 0.76677 0.0
H347 H 0.58341 0.10894 0.72353 0.0
H348 H 0.51424 0.15556 0.72463 0.0
H349 H 0.65748 0.12971 0.75418 0.0
H350 H 0.62176 0.11837 0.71106 0.0
C351 C 0.81271 0.58894 0.86804 0.0
C352 C 0.80578 0.60567 0.86355 0.0
C353 C 0.80663 0.57853 0.88232 0.0
C354 C 0.79369 0.58475 0.89263 0.0
C355 C 0.78643 0.60126 0.88804 0.0
C356 C 0.7923 0.61149 0.87366 0.0
C357 C 0.78825 0.57428 0.90813 0.0
C358 C 0.80555 0.57032 0.91575 0.0
C359 C 0.80064 0.55958 0.93006 0.0
C360 C 0.77816 0.55361 0.93699 0.0
C361 C 0.76086 0.55814 0.92987 0.0
C362 C 0.76597 0.5682 0.91536 0.0
C363 C 0.7375 0.5524 0.93767 0.0
C364 C 0.71497 0.5416 0.92984 0.0
C365 C 0.7376 0.5578 0.95305 0.0
C366 C 0.71581 0.55265 0.96039 0.0
C367 C 0.69326 0.54182 0.95257 0.0
C368 C 0.81899 0.55459 0.93763 0.0
C369 C 0.8342 0.54878 0.92906 0.0
C370 C 0.8217 0.55575 0.95343 0.0
C371 C 0.83912 0.55137 0.96037 0.0
C372 C 0.85461 0.54625 0.9517 0.0
C373 C 0.85195 0.54497 0.93599 0.0
C374 C 0.69314 0.53632 0.9372 0.0
H375 H 0.82272 0.58372 0.86045 0.0
H376 H 0.81204 0.56547 0.88522 0.0
H377 H 0.77671 0.60676 0.89567 0.0
H378 H 0.78687 0.62448 0.87061 0.0
H379 H 0.8232 0.5761 0.9106 0.0
H380 H 0.75257 0.57135 0.90972 0.0
H381 H 0.77375 0.54485 0.94783 0.0
H382 H 0.71414 0.53699 0.91803 0.0
H383 H 0.75463 0.56631 0.95941 0.0
H384 H 0.71661 0.55694 0.97225 0.0
H385 H 0.83238 0.54698 0.91694 0.0
H386 H 0.81074 0.56052 0.96048 0.0
H387 H 0.67619 0.52822 0.93077 0.0
H388 H 0.86348 0.54076 0.92905 0.0
H389 H 0.84094 0.55263 0.97252 0.0
C390 C 0.36525 0.16879 0.87524 0.0
C391 C 0.36992 0.18789 0.86561 0.0
C392 C 0.3764 0.17332 0.88944 0.0
C393 C 0.39262 0.19706 0.89428 0.0
C394 C 0.39745 0.21611 0.88452 0.0
C395 C 0.38615 0.21158 0.87041 0.0
C396 C 0.4046 0.20209 0.90937 0.0
C397 C 0.41299 0.18719 0.91528 0.0
C398 C 0.4251 0.19247 0.92927 0.0
C399 C 0.42891 0.21292 0.93736 0.0
C400 C 0.42043 0.22789 0.93178 0.0
C401 C 0.40811 0.22218 0.91784 0.0
C402 C 0.42476 0.24967 0.94037 0.0
C403 C 0.423 0.24928 0.95616 0.0
C404 C 0.43102 0.27117 0.93282 0.0
C405 C 0.43535 0.29172 0.94084 0.0
C406 C 0.43374 0.29134 0.9566 0.0
C407 C 0.43377 0.17663 0.93551 0.0
C408 C 0.41816 0.15157 0.93567 0.0
C409 C 0.45746 0.1865 0.94173 0.0
C410 C 0.46531 0.17163 0.9481 0.0
C411 C 0.44957 0.14654 0.9485 0.0
C412 C 0.42592 0.1367 0.94215 0.0
C413 C 0.42757 0.26994 0.9642 0.0
H414 H 0.35263 0.15035 0.8719 0.0
H415 H 0.37199 0.15824 0.89672 0.0
H416 H 0.41024 0.23458 0.8877 0.0
H417 H 0.39043 0.22665 0.86314 0.0
H418 H 0.41078 0.17184 0.90881 0.0
H419 H 0.40089 0.23324 0.91366 0.0
H420 H 0.43853 0.21716 0.94806 0.0
H421 H 0.41783 0.23294 0.96233 0.0
H422 H 0.43302 0.27229 0.9207 0.0
H423 H 0.44044 0.30808 0.9347 0.0
H424 H 0.3997 0.1435 0.93111 0.0
H425 H 0.47 0.20576 0.94158 0.0
H426 H 0.42595 0.26908 0.97634 0.0
H427 H 0.41313 0.11752 0.94248 0.0
H428 H 0.48379 0.17982 0.95261 0.0
C429 C 0.77785 0.17268 0.86265 0.0
C430 C 0.80205 0.18255 0.85742 0.0
C431 C 0.77311 0.17906 0.87683 0.0
C432 C 0.79249 0.19518 0.8863 0.0
C433 C 0.81674 0.20492 0.88102 0.0
C434 C 0.82143 0.19885 0.86673 0.0
C435 C 0.78745 0.20176 0.90157 0.0
C436 C 0.76761 0.18479 0.91024 0.0
C437 C 0.76237 0.19089 0.92448 0.0
C438 C 0.77793 0.21422 0.93022 0.0
C439 C 0.79823 0.23134 0.922 0.0
C440 C 0.80251 0.22503 0.90759 0.0
C441 C 0.81526 0.25556 0.92869 0.0
C442 C 0.80633 0.26738 0.93791 0.0
C443 C 0.84077 0.26665 0.92641 0.0
C444 C 0.85688 0.28868 0.93334 0.0
C445 C 0.84801 0.30017 0.94291 0.0
C446 C 0.74063 0.17303 0.93335 0.0
C447 C 0.71877 0.1561 0.92604 0.0
C448 C 0.7413 0.17302 0.94922 0.0
C449 C 0.72066 0.15693 0.95748 0.0
C450 C 0.69905 0.14004 0.95009 0.0
C451 C 0.69835 0.13965 0.93431 0.0
C452 C 0.82246 0.28926 0.94499 0.0
H453 H 0.76252 0.16024 0.85566 0.0
H454 H 0.75417 0.17152 0.88027 0.0
H455 H 0.83225 0.21698 0.888 0.0
H456 H 0.8403 0.2065 0.86308 0.0
H457 H 0.75652 0.16657 0.90602 0.0
H458 H 0.81741 0.2385 0.90093 0.0
H459 H 0.77431 0.2191 0.94119 0.0
H460 H 0.78681 0.2597 0.93974 0.0
H461 H 0.84844 0.25806 0.91953 0.0
H462 H 0.87635 0.29666 0.93119 0.0
H463 H 0.71719 0.15572 0.9139 0.0
H464 H 0.75785 0.18526 0.95535 0.0
H465 H 0.81482 0.29731 0.95236 0.0
H466 H 0.68181 0.12684 0.92836 0.0
H467 H 0.72173 0.15736 0.96965 0.0
C468 C 0.62548 0.82244 0.14971 0.0
C469 C 0.64126 0.81355 0.15311 0.0
C470 C 0.61396 0.81787 0.13565 0.0
C471 C 0.61832 0.80464 0.1246 0.0
C472 C 0.6347 0.79635 0.12795 0.0
C473 C 0.64585 0.80055 0.1421 0.0
C474 C 0.60541 0.79901 0.10978 0.0
C475 C 0.60035 0.81566 0.10278 0.0
C476 C 0.58757 0.81013 0.089 0.0
C477 C 0.58049 0.7879 0.082 0.0
C478 C 0.58561 0.77112 0.08868 0.0
C479 C 0.59773 0.7767 0.10267 0.0
C480 C 0.57834 0.74776 0.08107 0.0
C481 C 0.55591 0.7352 0.07323 0.0
C482 C 0.59395 0.73796 0.08146 0.0
C483 C 0.58728 0.71615 0.07422 0.0
C484 C 0.56495 0.70368 0.06625 0.0
C485 C 0.58114 0.82731 0.08206 0.0
C486 C 0.57325 0.84024 0.09107 0.0
C487 C 0.58214 0.83041 0.06637 0.0
C488 C 0.57506 0.84576 0.05984 0.0
C489 C 0.56709 0.85856 0.06886 0.0
C490 C 0.56641 0.85577 0.08454 0.0
C491 C 0.54937 0.71353 0.06584 0.0
H492 H 0.62151 0.83233 0.1581 0.0
H493 H 0.60119 0.82421 0.13361 0.0
H494 H 0.63899 0.7866 0.11964 0.0
H495 H 0.65818 0.79376 0.14443 0.0
H496 H 0.6067 0.83315 0.10793 0.0
H497 H 0.60066 0.76335 0.1082 0.0
H498 H 0.57086 0.78359 0.07131 0.0
H499 H 0.54326 0.74201 0.07286 0.0
H500 H 0.6115 0.74728 0.08724 0.0
H501 H 0.59959 0.70899 0.07502 0.0
H502 H 0.57185 0.83799 0.10316 0.0
H503 H 0.58854 0.82109 0.05912 0.0
H504 H 0.53218 0.70464 0.05967 0.0
H505 H 0.56009 0.86522 0.09174 0.0
H506 H 0.5761 0.84785 0.04773 0.0
C507 C 0.20972 0.82908 0.14005 0.0
C508 C 0.2037 0.81245 0.15182 0.0
C509 C 0.21549 0.82424 0.12572 0.0
C510 C 0.215 0.8025 0.12274 0.0
C511 C 0.20917 0.78593 0.13443 0.0
C512 C 0.20381 0.79092 0.14882 0.0
C513 C 0.2199 0.79675 0.10738 0.0
C514 C 0.24096 0.81324 0.09951 0.0
C515 C 0.24577 0.80773 0.08499 0.0
C516 C 0.22896 0.78541 0.0784 0.0
C517 C 0.2076 0.76874 0.08605 0.0
C518 C 0.20335 0.77466 0.10057 0.0
C519 C 0.1896 0.74531 0.07887 0.0
C520 C 0.1846 0.74375 0.06333 0.0
C521 C 0.17702 0.7243 0.08754 0.0
C522 C 0.15974 0.70247 0.0809 0.0
C523 C 0.15491 0.701 0.06538 0.0
C524 C 0.26828 0.82526 0.07671 0.0
C525 C 0.27673 0.85009 0.07753 0.0
C526 C 0.2815 0.81733 0.06791 0.0
C527 C 0.30254 0.83379 0.06011 0.0
C528 C 0.31103 0.85864 0.06096 0.0
C529 C 0.29784 0.86654 0.06981 0.0
C530 C 0.1676 0.72182 0.05665 0.0
H531 H 0.20945 0.84566 0.14177 0.0
H532 H 0.21971 0.83722 0.11685 0.0
H533 H 0.20895 0.76914 0.13246 0.0
H534 H 0.19989 0.77788 0.15759 0.0
H535 H 0.25392 0.8301 0.1049 0.0
H536 H 0.18674 0.76236 0.10651 0.0
H537 H 0.23251 0.78103 0.06724 0.0
H538 H 0.19349 0.75955 0.05631 0.0
H539 H 0.18067 0.72459 0.09947 0.0
H540 H 0.15045 0.68661 0.08786 0.0
H541 H 0.26691 0.85687 0.08404 0.0
H542 H 0.27576 0.79839 0.06715 0.0
H543 H 0.16404 0.72123 0.04469 0.0
H544 H 0.30396 0.88553 0.07096 0.0
H545 H 0.31203 0.82696 0.05331 0.0
C546 C 0.21559 0.40417 0.149 0.0
C547 C 0.19111 0.3874 0.1527 0.0
C548 C 0.22146 0.41528 0.1349 0.0
C549 C 0.20306 0.4098 0.12401 0.0
C550 C 0.17862 0.39293 0.1277 0.0
C551 C 0.17273 0.38205 0.14183 0.0
C552 C 0.20924 0.42167 0.10894 0.0
C553 C 0.23119 0.42694 0.10161 0.0
C554 C 0.23737 0.43842 0.0875 0.0
C555 C 0.22057 0.44386 0.08052 0.0
C556 C 0.19813 0.43811 0.08741 0.0
C557 C 0.19301 0.42756 0.10175 0.0
C558 C 0.17964 0.44246 0.07958 0.0
C559 C 0.18684 0.46326 0.07096 0.0
C560 C 0.15442 0.42558 0.08066 0.0
C561 C 0.1369 0.42941 0.07347 0.0
C562 C 0.14401 0.45016 0.06483 0.0
C563 C 0.26123 0.44446 0.08011 0.0
C564 C 0.28235 0.45065 0.08884 0.0
C565 C 0.2632 0.444 0.06431 0.0
C566 C 0.28553 0.44955 0.05751 0.0
C567 C 0.30628 0.45517 0.06633 0.0
C568 C 0.30446 0.45563 0.08205 0.0
C569 C 0.16926 0.46705 0.06368 0.0
H570 H 0.23037 0.40859 0.15692 0.0
H571 H 0.24046 0.42837 0.13261 0.0
H572 H 0.16392 0.38789 0.1196 0.0
H573 H 0.15361 0.36958 0.14425 0.0
H574 H 0.24322 0.42149 0.10677 0.0
H575 H 0.17638 0.42422 0.10743 0.0
H576 H 0.22482 0.45243 0.06963 0.0
H577 H 0.20605 0.47678 0.06997 0.0
H578 H 0.14812 0.40917 0.08699 0.0
H579 H 0.11768 0.41614 0.07486 0.0
H580 H 0.28198 0.45188 0.10098 0.0
H581 H 0.24741 0.43891 0.05712 0.0
H582 H 0.17552 0.48313 0.05702 0.0
H583 H 0.32029 0.46018 0.0891 0.0
H584 H 0.28643 0.4489 0.04536 0.0
C585 C 0.47677 0.92009 0.20029 0.0
C586 C 0.47608 0.94134 0.19773 0.0
C587 C 0.47111 0.90925 0.21447 0.0
C588 C 0.46416 0.91917 0.22634 0.0
C589 C 0.46298 0.94014 0.2237 0.0
C590 C 0.4691 0.95123 0.2096 0.0
C591 C 0.45865 0.9079 0.24149 0.0
C592 C 0.47511 0.90209 0.24839 0.0
C593 C 0.47031 0.89136 0.2627 0.0
C594 C 0.44842 0.88649 0.27005 0.0
C595 C 0.43177 0.89246 0.26344 0.0
C596 C 0.43715 0.90318 0.24912 0.0
C597 C 0.40893 0.88776 0.27154 0.0
C598 C 0.39537 0.86677 0.28008 0.0
C599 C 0.40054 0.90437 0.27085 0.0
C600 C 0.37924 0.90011 0.27843 0.0
C601 C 0.36571 0.87918 0.28703 0.0
C602 C 0.48842 0.88579 0.27003 0.0
C603 C 0.50294 0.8793 0.26129 0.0
C604 C 0.49185 0.88745 0.28578 0.0
C605 C 0.50933 0.88297 0.29251 0.0
C606 C 0.52419 0.87724 0.28366 0.0
C607 C 0.52079 0.8754 0.268 0.0
C608 C 0.3741 0.86256 0.28773 0.0
H609 H 0.48223 0.91213 0.1914 0.0
H610 H 0.47205 0.89303 0.21615 0.0
H611 H 0.45781 0.94825 0.23265 0.0
H612 H 0.46826 0.96751 0.20794 0.0
H613 H 0.49211 0.9067 0.24268 0.0
H614 H 0.42432 0.90738 0.2437 0.0
H615 H 0.44435 0.87817 0.28101 0.0
H616 H 0.40102 0.8534 0.28076 0.0
H617 H 0.41058 0.92088 0.26456 0.0
H618 H 0.37326 0.91319 0.27737 0.0
H619 H 0.50058 0.87716 0.24921 0.0
H620 H 0.48151 0.89282 0.29295 0.0
H621 H 0.36439 0.84636 0.29433 0.0
H622 H 0.53188 0.87076 0.26094 0.0
H623 H 0.51175 0.88469 0.30461 0.0
C624 C 0.02964 0.50162 0.2072 0.0
C625 C 0.04001 0.51723 0.19496 0.0
C626 C 0.04198 0.50702 0.22104 0.0
C627 C 0.06459 0.52836 0.22293 0.0
C628 C 0.07484 0.54402 0.21072 0.0
C629 C 0.06278 0.53839 0.19682 0.0
C630 C 0.07746 0.53458 0.23763 0.0
C631 C 0.08285 0.51837 0.24485 0.0
C632 C 0.0962 0.5248 0.25843 0.0
C633 C 0.10358 0.54746 0.26491 0.0
C634 C 0.09776 0.56366 0.25804 0.0
C635 C 0.08485 0.55708 0.2443 0.0
C636 C 0.10493 0.58727 0.26527 0.0
C637 C 0.10364 0.58916 0.28098 0.0
C638 C 0.11289 0.60808 0.25654 0.0
C639 C 0.11921 0.63014 0.26334 0.0
C640 C 0.11797 0.63194 0.27903 0.0
C641 C 0.10274 0.50807 0.2658 0.0
C642 C 0.08512 0.48365 0.26751 0.0
C643 C 0.12665 0.51652 0.27133 0.0
C644 C 0.13281 0.50089 0.27845 0.0
C645 C 0.11516 0.47647 0.28029 0.0
C646 C 0.09122 0.46805 0.27473 0.0
C647 C 0.11021 0.61126 0.28779 0.0
H648 H 0.01214 0.48515 0.206 0.0
H649 H 0.0337 0.49474 0.23034 0.0
H650 H 0.09232 0.56053 0.2119 0.0
H651 H 0.07106 0.55078 0.18757 0.0
H652 H 0.07741 0.50109 0.23961 0.0
H653 H 0.07999 0.56923 0.2389 0.0
H654 H 0.11388 0.55244 0.27538 0.0
H655 H 0.09714 0.57346 0.28804 0.0
H656 H 0.11452 0.60741 0.24444 0.0
H657 H 0.12541 0.64587 0.25634 0.0
H658 H 0.06647 0.47672 0.26351 0.0
H659 H 0.14071 0.53519 0.26998 0.0
H660 H 0.10877 0.61208 0.2999 0.0
H661 H 0.07704 0.44945 0.27615 0.0
H662 H 0.15153 0.50793 0.28231 0.0
C663 C 0.45047 0.50938 0.19767 0.0
C664 C 0.47477 0.51541 0.1943 0.0
C665 C 0.44447 0.51435 0.21192 0.0
C666 C 0.46262 0.5256 0.22313 0.0
C667 C 0.48679 0.5313 0.21984 0.0
C668 C 0.49276 0.52621 0.20565 0.0
C669 C 0.45659 0.53187 0.23811 0.0
C670 C 0.43531 0.51538 0.24585 0.0
C671 C 0.42956 0.52122 0.26003 0.0
C672 C 0.4457 0.54399 0.26639 0.0
C673 C 0.46724 0.56069 0.25892 0.0
C674 C 0.47234 0.55445 0.24472 0.0
C675 C 0.48453 0.58448 0.26603 0.0
C676 C 0.47572 0.59691 0.27475 0.0
C677 C 0.5101 0.59481 0.26435 0.0
C678 C 0.52635 0.61688 0.27119 0.0
C679 C 0.51755 0.62916 0.28009 0.0
C680 C 0.40687 0.5036 0.26827 0.0
C681 C 0.38521 0.48767 0.26038 0.0
C682 C 0.40658 0.5026 0.28413 0.0
C683 C 0.38527 0.48643 0.29182 0.0
C684 C 0.3639 0.47045 0.28387 0.0
C685 C 0.36409 0.47113 0.26808 0.0
C686 C 0.49198 0.61882 0.28176 0.0
H687 H 0.43616 0.50131 0.1892 0.0
H688 H 0.42571 0.50993 0.21405 0.0
H689 H 0.50113 0.53958 0.22829 0.0
H690 H 0.51154 0.53062 0.20364 0.0
H691 H 0.42361 0.49772 0.24096 0.0
H692 H 0.4884 0.56742 0.23861 0.0
H693 H 0.44157 0.54874 0.27725 0.0
H694 H 0.45619 0.58982 0.27615 0.0
H695 H 0.51769 0.58571 0.2579 0.0
H696 H 0.54584 0.62434 0.26938 0.0
H697 H 0.38438 0.4881 0.24823 0.0
H698 H 0.42292 0.51404 0.29068 0.0
H699 H 0.48439 0.62745 0.28867 0.0
H700 H 0.34775 0.45905 0.2617 0.0
H701 H 0.38567 0.48602 0.304 0.0
Eu702 Eu 0.49552 0.98244 0.99165 0.0
C703 C 0.55159 0.07851 0.0295 0.0
C704 C 0.59443 0.08961 0.02806 0.0
C705 C 0.58336 0.12066 0.03108 0.0
C706 C 0.56929 0.07194 0.02786 0.0
C707 C 0.55841 0.10289 0.03149 0.0
C708 C 0.60135 0.11403 0.02934 0.0
C709 C 0.51558 0.09014 0.03542 0.0
N710 N 0.52769 0.0609 0.02996 0.0
C711 C 0.50975 0.06621 0.0334 0.0
C712 C 0.53999 0.1086 0.03426 0.0
Eu713 Eu 0.51909 0.02091 0.02604 0.0
N714 N 0.56198 0.04819 0.02682 0.0
C715 C 0.57889 0.04077 0.02708 0.0
C716 C 0.61186 0.08214 0.0274 0.0
C717 C 0.60403 0.05759 0.02712 0.0
H718 H 0.49084 0.05202 0.03423 0.0
H719 H 0.61735 0.0516 0.0269 0.0
H720 H 0.62056 0.12787 0.02938 0.0
H721 H 0.50125 0.09432 0.03783 0.0
H722 H 0.57311 0.02186 0.02682 0.0
H723 H 0.39739 0.95228 0.98967 0.0
H724 H 0.63134 0.09514 0.02746 0.0
H725 H 0.52349 0.95088 0.9839 0.0
H726 H 0.44166 0.98181 0.99004 0.0
H727 H 0.51286 0.90846 0.98071 0.0
H728 H 0.58897 0.13952 0.03244 0.0
H729 H 0.38313 0.90868 0.98959 0.0
H730 H 0.39366 0.87574 0.98834 0.0
H731 H 0.54447 0.12711 0.03587 0.0
H732 H 0.42509 0.86379 0.9858 0.0
N733 N 0.45258 0.95532 0.99062 0.0
C734 C 0.43579 0.96288 0.98997 0.0
C735 C 0.40264 0.92159 0.98977 0.0
C736 C 0.41995 0.91397 0.98948 0.0
C737 C 0.41061 0.94617 0.98977 0.0
C738 C 0.44513 0.93152 0.98979 0.0
H739 H 0.46955 0.87588 0.98267 0.0
N740 N 0.48667 0.94231 0.98796 0.0
C741 C 0.49859 0.91279 0.98294 0.0
C742 C 0.46274 0.92479 0.98842 0.0
C743 C 0.50454 0.93679 0.98473 0.0
C744 C 0.47413 0.89445 0.9841 0.0
C745 C 0.45579 0.90034 0.98664 0.0
O746 O 0.51408 0.98739 0.97012 0.0
O747 O 0.52666 0.01512 1.00229 0.0
O748 O 0.51367 0.04284 0.00816 0.0
O749 O 0.48506 0.01178 0.99271 0.0
O750 O 0.53573 0.99394 0.98927 0.0
O751 O 0.48146 0.99051 0.97128 0.0
O752 O 0.50047 0.01535 0.04761 0.0
O753 O 0.48824 0.9885 0.01526 0.0
O754 O 0.50047 0.96052 0.00971 0.0
O755 O 0.52954 0.99156 0.02495 0.0
O756 O 0.47858 0.00875 0.0287 0.0
O757 O 0.53371 0.01336 0.04639 0.0
C758 C 0.54448 0.0135 0.99711 0.0
C759 C 0.48987 0.97766 0.94814 0.0
C760 C 0.48997 0.97848 0.92065 0.0
C761 C 0.49639 0.99064 0.93462 0.0
C762 C 0.47666 0.95318 0.92042 0.0
C763 C 0.47639 0.95244 0.94768 0.0
C764 C 0.46979 0.9403 0.93386 0.0
C765 C 0.49686 0.03458 0.99731 0.0
C766 C 0.49821 0.99064 0.96258 0.0
C767 C 0.43079 0.88269 0.987 0.0
C768 C 0.4129 0.88949 0.98844 0.0
C769 C 0.47019 0.98955 0.02053 0.0
C770 C 0.52465 0.02547 0.06963 0.0
C771 C 0.51816 0.01245 0.08317 0.0
C772 C 0.52446 0.02451 0.09724 0.0
C773 C 0.53744 0.0499 0.09735 0.0
C774 C 0.53784 0.05066 0.07012 0.0
C775 C 0.54418 0.06277 0.08392 0.0
C776 C 0.51746 0.96872 0.02043 0.0
C777 C 0.51668 0.01258 0.05512 0.0
H778 H 0.50698 0.01014 0.93497 0.0
H779 H 0.47136 0.94337 0.90984 0.0
H780 H 0.47117 0.94217 0.95796 0.0
H781 H 0.45945 0.92082 0.93357 0.0
H782 H 0.50828 0.99296 0.08265 0.0
H783 H 0.54209 0.05998 0.10782 0.0
H784 H 0.543 0.06096 0.05985 0.0
H785 H 0.55413 0.08225 0.08421 0.0
Eu786 Eu 0.0208 0.50378 0.99176 0.0
C787 C 0.91916 0.4683 0.02321 0.0
C788 C 0.90954 0.50011 0.0198 0.0
C789 C 0.87654 0.4586 0.0218 0.0
C790 C 0.92689 0.49241 0.02126 0.0
C791 C 0.8939 0.45117 0.02383 0.0
C792 C 0.88434 0.48302 0.01977 0.0
C793 C 0.90485 0.42095 0.02961 0.0
N794 N 0.93638 0.46174 0.02523 0.0
C795 C 0.92967 0.43863 0.02898 0.0
C796 C 0.88687 0.42718 0.02685 0.0
Eu797 Eu 0.97799 0.49247 0.02347 0.0
N798 N 0.95136 0.50846 0.02135 0.0
C799 C 0.95969 0.53262 0.02104 0.0
C800 C 0.91802 0.52478 0.01871 0.0
C801 C 0.94321 0.54112 0.01953 0.0
H802 H 0.94355 0.43375 0.03107 0.0
H803 H 0.94995 0.56026 0.01892 0.0
H804 H 0.87075 0.48857 0.01851 0.0
H805 H 0.8996 0.40255 0.03223 0.0
H806 H 0.9791 0.54545 0.02158 0.0
H807 H 0.04945 0.43657 0.99731 0.0
H808 H 0.9053 0.53142 0.0175 0.0
H809 H 0.05493 0.56176 0.98247 0.0
H810 H 0.02017 0.4511 0.99416 0.0
H811 H 0.09877 0.59294 0.98061 0.0
H812 H 0.85704 0.44567 0.0221 0.0
H813 H 0.09403 0.46562 0.99898 0.0
H814 H 0.12843 0.50852 0.9976 0.0
H815 H 0.86764 0.41347 0.0274 0.0
H816 H 0.1419 0.55113 0.99297 0.0
N817 N 0.0477 0.48815 0.99447 0.0
C818 C 0.03953 0.46403 0.99483 0.0
C819 C 0.08123 0.47214 0.9976 0.0
C820 C 0.08959 0.49676 0.99629 0.0
C821 C 0.0561 0.45568 0.99662 0.0
C822 C 0.07214 0.50428 0.99458 0.0
H823 H 0.13099 0.58269 0.9863 0.0
N824 N 0.06237 0.53439 0.98943 0.0
C825 C 0.09368 0.57482 0.98388 0.0
C826 C 0.07972 0.52817 0.99196 0.0
C827 C 0.06889 0.55713 0.98491 0.0
C828 C 0.1118 0.56898 0.98715 0.0
C829 C 0.10495 0.54533 0.99102 0.0
O830 O 0.02146 0.51566 0.9687 0.0
O831 O 0.98706 0.50347 0.9996 0.0
O832 O 0.95728 0.46479 1.00523 0.0
O833 O 0.99002 0.46437 0.9932 0.0
O834 O 0.00934 0.53112 0.98545 0.0
O835 O 0.01255 0.47893 0.97292 0.0
O836 O 0.97911 0.47998 0.04605 0.0
O837 O 0.01203 0.4934 0.0157 0.0
O838 O 0.04149 0.53222 0.00956 0.0
O839 O 0.00902 0.53188 0.02256 0.0
O840 O 0.98961 0.46507 0.02942 0.0
O841 O 0.98332 0.51536 0.04308 0.0
C842 C 0.98904 0.52154 0.99283 0.0
C843 C 0.0325 0.49646 0.95016 0.0
C844 C 0.03817 0.49558 0.92308 0.0
C845 C 0.02385 0.49488 0.93542 0.0
C846 C 0.06137 0.49802 0.92572 0.0
C847 C 0.05573 0.49901 0.9526 0.0
C848 C 0.07009 0.49981 0.94041 0.0
C849 C 0.96623 0.45465 0.99614 0.0
C850 C 0.01689 0.49518 0.96278 0.0
C851 C 0.12243 0.53817 0.99349 0.0
C852 C 0.11476 0.51392 0.99613 0.0
C853 C 0.01022 0.4753 0.02233 0.0
C854 C 0.96573 0.49498 0.06582 0.0
C855 C 0.97586 0.49751 0.08023 0.0
C856 C 0.96109 0.49197 0.09316 0.0
C857 C 0.93594 0.48421 0.09131 0.0
C858 C 0.94071 0.48736 0.06422 0.0
C859 C 0.92593 0.48207 0.07694 0.0
C860 C 0.03267 0.54203 0.01903 0.0
C861 C 0.98141 0.49919 0.05266 0.0
H862 H 0.00577 0.49264 0.9336 0.0
H863 H 0.07286 0.4988 0.91642 0.0
H864 H 0.06269 0.50024 0.96387 0.0
H865 H 0.088 0.50176 0.94235 0.0
H866 H 0.99533 0.50384 0.08129 0.0
H867 H 0.92386 0.47937 0.10091 0.0
H868 H 0.9326 0.4853 0.05319 0.0
H869 H 0.90657 0.47602 0.07565 0.0
Eu870 Eu 0.51556 0.49364 0.02953 0.0
C871 C 0.46014 0.53271 0.99211 0.0
C872 C 0.41694 0.50724 0.99762 0.0
C873 C 0.43286 0.54936 0.99164 0.0
C874 C 0.44079 0.51058 0.99612 0.0
C875 C 0.45632 0.55225 0.9895 0.0
C876 C 0.41319 0.52687 0.99569 0.0
C877 C 0.49855 0.57539 0.98152 0.0
N878 N 0.4825 0.5348 0.99005 0.0
C879 C 0.50136 0.55544 0.98414 0.0
C880 C 0.47602 0.57391 0.98441 0.0
Eu881 Eu 0.48618 0.50044 0.99538 0.0
N882 N 0.44504 0.49199 0.99783 0.0
C883 C 0.42592 0.4692 1.00005 0.0
C884 C 0.39747 0.48414 1.00062 0.0
C885 C 0.40195 0.46498 1.00161 0.0
H886 H 0.51885 0.55682 0.98182 0.0
H887 H 0.38697 0.44696 1.00368 0.0
H888 H 0.39506 0.52472 0.99695 0.0
H889 H 0.51374 0.59188 0.97724 0.0
H890 H 0.42907 0.45421 1.00091 0.0
H891 H 0.55372 0.56675 0.07108 0.0
H892 H 0.3789 0.48083 1.00188 0.0
H893 H 0.54334 0.46626 0.01326 0.0
H894 H 0.52103 0.5324 0.05687 0.0
H895 H 0.58511 0.47295 0.00961 0.0
H896 H 0.42962 0.56422 0.98983 0.0
H897 H 0.59735 0.57961 0.06638 0.0
H898 H 0.62833 0.57208 0.05326 0.0
H899 H 0.47385 0.58935 0.98229 0.0
H900 H 0.63687 0.54642 0.03656 0.0
N901 N 0.54595 0.52663 0.04376 0.0
C902 C 0.54002 0.53793 0.0547 0.0
C903 C 0.58308 0.56461 0.06006 0.0
C904 C 0.58892 0.55178 0.04968 0.0
C905 C 0.55848 0.55738 0.06277 0.0
C906 C 0.56965 0.53242 0.04174 0.0
H907 H 0.62084 0.50915 0.02048 0.0
N908 N 0.55516 0.49865 0.02576 0.0
C909 C 0.58239 0.48584 0.016 0.0
C910 C 0.5744 0.51797 0.03242 0.0
C911 C 0.55869 0.48213 0.01809 0.0
C912 C 0.60251 0.50631 0.02212 0.0
C913 C 0.59865 0.52248 0.03068 0.0
O914 O 0.51842 0.4648 0.04063 0.0
O915 O 0.4802 0.48671 0.01882 0.0
O916 O 0.49856 0.53315 0.01058 0.0
O917 O 0.52996 0.53337 0.02497 0.0
O918 O 0.48757 0.50122 0.04042 0.0
O919 O 0.49706 0.47862 0.05091 0.0
O920 O 0.50097 0.5026 0.97276 0.0
O921 O 0.51769 0.4971 1.0046 0.0
O922 O 0.50213 0.4606 0.01431 0.0
O923 O 0.47058 0.46102 1.00112 0.0
O924 O 0.52614 0.52448 0.98937 0.0
O925 O 0.46324 0.47669 0.97717 0.0
C926 C 0.47215 0.49405 0.02942 0.0
C927 C 0.52062 0.46921 0.06732 0.0
C928 C 0.52493 0.47899 0.09429 0.0
C929 C 0.51158 0.47392 0.08069 0.0
C930 C 0.54716 0.47873 0.09442 0.0
C931 C 0.54288 0.46901 0.06783 0.0
C932 C 0.55595 0.47367 0.0813 0.0
C933 C 0.51805 0.54392 0.01957 0.0
C934 C 0.50747 0.46572 0.05282 0.0
C935 C 0.6181 0.5425 0.0379 0.0
C936 C 0.61324 0.55713 0.0474 0.0
C937 C 0.5351 0.51438 0.99767 0.0
C938 C 0.473 0.49368 0.95286 0.0
C939 C 0.48351 0.49226 0.93922 0.0
C940 C 0.47727 0.49901 0.92556 0.0
C941 C 0.46031 0.50727 0.92588 0.0
C942 C 0.45635 0.5022 0.95289 0.0
C943 C 0.45004 0.50891 0.93945 0.0
C944 C 0.48225 0.44986 0.0057 0.0
C945 C 0.48007 0.48677 0.96695 0.0
H946 H 0.49457 0.47434 0.08042 0.0
H947 H 0.55769 0.48227 0.10471 0.0
H948 H 0.5504 0.46551 0.0578 0.0
H949 H 0.57308 0.47352 0.08156 0.0
H950 H 0.4968 0.48621 0.93933 0.0
H951 H 0.45465 0.51217 0.91562 0.0
H952 H 0.44819 0.50364 0.96329 0.0
H953 H 0.43706 0.51532 0.93954 0.0
Eu954 Eu 0.15836 0.3121 0.32494 0.0
C955 C 0.21735 0.40851 0.36223 0.0
C956 C 0.26004 0.41944 0.35982 0.0
C957 C 0.2493 0.45064 0.36334 0.0
C958 C 0.23489 0.40184 0.36011 0.0
C959 C 0.22436 0.43294 0.36422 0.0
C960 C 0.26711 0.4439 0.36112 0.0
C961 C 0.18181 0.4204 0.36905 0.0
N962 N 0.19348 0.39097 0.36313 0.0
C963 C 0.17579 0.39642 0.36702 0.0
C964 C 0.20616 0.43878 0.36746 0.0
Eu965 Eu 0.18451 0.35087 0.35905 0.0
N966 N 0.22743 0.37806 0.35903 0.0
C967 C 0.24428 0.37056 0.35876 0.0
C968 C 0.27735 0.41189 0.35864 0.0
C969 C 0.26943 0.38731 0.35832 0.0
H970 H 0.15692 0.3823 0.36819 0.0
H971 H 0.28267 0.38125 0.35768 0.0
H972 H 0.28632 0.45769 0.36079 0.0
H973 H 0.16766 0.42468 0.37181 0.0
H974 H 0.23842 0.35164 0.35844 0.0
H975 H 0.06058 0.28356 0.32486 0.0
H976 H 0.29684 0.42483 0.35832 0.0
H977 H 0.18513 0.27932 0.31739 0.0
H978 H 0.10499 0.31251 0.32441 0.0
H979 H 0.17363 0.23654 0.31499 0.0
H980 H 0.25504 0.46953 0.36471 0.0
H981 H 0.04558 0.23983 0.32504 0.0
H982 H 0.05527 0.20631 0.32381 0.0
H983 H 0.21079 0.45733 0.36907 0.0
H984 H 0.08602 0.1935 0.3211 0.0
N985 N 0.11529 0.28556 0.32468 0.0
C986 C 0.0988 0.29352 0.32442 0.0
C987 C 0.06515 0.25247 0.32482 0.0
C988 C 0.08211 0.24443 0.32426 0.0
C989 C 0.07354 0.27714 0.32469 0.0
C990 C 0.10739 0.26165 0.32406 0.0
H991 H 0.13015 0.20464 0.31761 0.0
N992 N 0.14864 0.27161 0.32169 0.0
C993 C 0.15967 0.24132 0.31717 0.0
C994 C 0.12462 0.25444 0.32255 0.0
C995 C 0.16611 0.26551 0.31849 0.0
C996 C 0.13512 0.22337 0.3187 0.0
C997 C 0.11717 0.22982 0.32119 0.0
O998 O 0.17523 0.31553 0.30296 0.0
O999 O 0.19034 0.34466 0.33503 0.0
O1000 O 0.17834 0.37283 0.34154 0.0
O1001 O 0.14856 0.34187 0.32653 0.0
O1002 O 0.19833 0.32329 0.32139 0.0
O1003 O 0.14382 0.32055 0.30495 0.0
O1004 O 0.16713 0.3454 0.38105 0.0
O1005 O 0.15276 0.31867 0.34877 0.0
O1006 O 0.16361 0.29034 0.34295 0.0
O1007 O 0.19476 0.32137 0.35713 0.0
O1008 O 0.14424 0.33904 0.36285 0.0
O1009 O 0.2002 0.34329 0.37888 0.0
C1010 C 0.20771 0.34289 0.32924 0.0
C1011 C 0.14972 0.30624 0.28161 0.0
C1012 C 0.14753 0.30632 0.25407 0.0
C1013 C 0.15582 0.31878 0.26792 0.0
C1014 C 0.13297 0.28101 0.25431 0.0
C1015 C 0.13501 0.28112 0.28153 0.0
C1016 C 0.12669 0.26861 0.26793 0.0
C1017 C 0.16088 0.36468 0.33109 0.0
C1018 C 0.15951 0.31953 0.29584 0.0
C1019 C 0.0921 0.21252 0.32199 0.0
C1020 C 0.07459 0.21981 0.32353 0.0
C1021 C 0.13516 0.31987 0.3546 0.0
C1022 C 0.19263 0.35576 0.40246 0.0
C1023 C 0.18616 0.34304 0.41611 0.0
C1024 C 0.19337 0.35541 0.43007 0.0
C1025 C 0.20718 0.38078 0.42995 0.0
C1026 C 0.20665 0.38093 0.40271 0.0
C1027 C 0.21386 0.39333 0.4164 0.0
C1028 C 0.18176 0.29845 0.35289 0.0
C1029 C 0.18374 0.34265 0.38808 0.0
H1030 H 0.1669 0.33824 0.26813 0.0
H1031 H 0.12669 0.27064 0.24397 0.0
H1032 H 0.13016 0.2712 0.29194 0.0
H1033 H 0.11552 0.24918 0.26792 0.0
H1034 H 0.17561 0.32356 0.41578 0.0
H1035 H 0.21256 0.3911 0.44033 0.0
H1036 H 0.21179 0.39098 0.39235 0.0
H1037 H 0.22447 0.4128 0.41651 0.0
Eu1038 Eu 0.69026 0.83618 0.32614 0.0
C1039 C 0.58813 0.80039 0.35714 0.0
C1040 C 0.5788 0.83238 0.35365 0.0
C1041 C 0.5456 0.79095 0.35557 0.0
C1042 C 0.59602 0.82453 0.35518 0.0
C1043 C 0.56283 0.78337 0.35766 0.0
C1044 C 0.55357 0.81541 0.35356 0.0
C1045 C 0.57347 0.75295 0.36346 0.0
N1046 N 0.60523 0.79371 0.35925 0.0
C1047 C 0.59834 0.77054 0.36295 0.0
C1048 C 0.55562 0.75933 0.36064 0.0
Eu1049 Eu 0.64695 0.82422 0.35768 0.0
N1050 N 0.62053 0.84044 0.35533 0.0
C1051 C 0.62901 0.86463 0.35499 0.0
C1052 C 0.58745 0.85708 0.35255 0.0
C1053 C 0.61266 0.87328 0.35339 0.0
H1054 H 0.61213 0.76555 0.36507 0.0
H1055 H 0.61953 0.89244 0.35277 0.0
H1056 H 0.54008 0.82108 0.35226 0.0
H1057 H 0.5681 0.7345 0.36604 0.0
H1058 H 0.64842 0.87739 0.35557 0.0
H1059 H 0.72143 0.77088 0.33138 0.0
H1060 H 0.57484 0.86383 0.3513 0.0
H1061 H 0.72323 0.89448 0.31711 0.0
H1062 H 0.69124 0.78434 0.32823 0.0
H1063 H 0.76676 0.92651 0.31553 0.0
H1064 H 0.52608 0.77811 0.3558 0.0
H1065 H 0.76573 0.80083 0.33342 0.0
H1066 H 0.79928 0.84413 0.33245 0.0
H1067 H 0.53636 0.7457 0.36111 0.0
H1068 H 0.81167 0.88655 0.32808 0.0
N1069 N 0.71802 0.82162 0.32886 0.0
C1070 C 0.71049 0.79763 0.32905 0.0
C1071 C 0.75254 0.80686 0.33203 0.0
C1072 C 0.76025 0.83137 0.33092 0.0
C1073 C 0.72757 0.7899 0.33084 0.0
C1074 C 0.74231 0.83826 0.32918 0.0
H1075 H 0.79969 0.91736 0.32143 0.0
N1076 N 0.73151 0.86773 0.32419 0.0
C1077 C 0.7621 0.9085 0.31879 0.0
C1078 C 0.74929 0.86209 0.32678 0.0
C1079 C 0.73749 0.89033 0.31967 0.0
C1080 C 0.78063 0.90328 0.32218 0.0
C1081 C 0.77436 0.87975 0.32599 0.0
O1082 O 0.68885 0.84759 0.30327 0.0
O1083 O 0.65596 0.83501 0.33378 0.0
O1084 O 0.62686 0.79642 0.33941 0.0
O1085 O 0.65986 0.79654 0.32731 0.0
O1086 O 0.67829 0.86318 0.31996 0.0
O1087 O 0.68542 0.81272 0.30695 0.0
O1088 O 0.64568 0.81097 0.38042 0.0
O1089 O 0.68101 0.82518 0.34998 0.0
O1090 O 0.71066 0.86437 0.34413 0.0
O1091 O 0.67783 0.86367 0.35687 0.0
O1092 O 0.65872 0.79698 0.36381 0.0
O1093 O 0.65432 0.84785 0.37713 0.0
C1094 C 0.65774 0.85307 0.32709 0.0
C1095 C 0.70392 0.83279 0.28435 0.0
C1096 C 0.71043 0.83472 0.25727 0.0
C1097 C 0.69463 0.8291 0.26963 0.0
C1098 C 0.73565 0.84394 0.25978 0.0
C1099 C 0.72908 0.84165 0.2867 0.0
C1100 C 0.74486 0.84719 0.27445 0.0
C1101 C 0.63605 0.78646 0.33036 0.0
C1102 C 0.68732 0.82845 0.29704 0.0
C1103 C 0.7923 0.8732 0.32849 0.0
C1104 C 0.78525 0.84905 0.33097 0.0
C1105 C 0.67924 0.80712 0.35664 0.0
C1106 C 0.63454 0.82896 0.39972 0.0
C1107 C 0.64399 0.83155 0.41435 0.0
C1108 C 0.62956 0.82961 0.42695 0.0
C1109 C 0.60539 0.82486 0.42461 0.0
C1110 C 0.61043 0.82426 0.39763 0.0
C1111 C 0.59594 0.8222 0.41004 0.0
C1112 C 0.70156 0.87397 0.35355 0.0
C1113 C 0.6501 0.83108 0.38686 0.0
H1114 H 0.6752 0.82241 0.2678 0.0
H1115 H 0.74815 0.84836 0.25041 0.0
H1116 H 0.73655 0.84447 0.29794 0.0
H1117 H 0.76428 0.85414 0.27634 0.0
H1118 H 0.66253 0.83483 0.41587 0.0
H1119 H 0.59389 0.82357 0.43403 0.0
H1120 H 0.60285 0.82222 0.38645 0.0
H1121 H 0.57736 0.81865 0.40836 0.0
Eu1122 Eu 0.18145 0.82344 0.35777 0.0
C1123 C 0.12548 0.86544 0.32218 0.0
C1124 C 0.08281 0.83456 0.32447 0.0
C1125 C 0.0937 0.87647 0.32219 0.0
C1126 C 0.10793 0.84156 0.32394 0.0
C1127 C 0.11855 0.88311 0.32081 0.0
C1128 C 0.07584 0.85222 0.32404 0.0
C1129 C 0.16079 0.91195 0.315 0.0
N1130 N 0.14921 0.87111 0.32062 0.0
C1131 C 0.16667 0.8937 0.31634 0.0
C1132 C 0.13668 0.90673 0.3175 0.0
Eu1133 Eu 0.1583 0.83981 0.32394 0.0
N1134 N 0.11532 0.825 0.32408 0.0
C1135 C 0.09838 0.801 0.32337 0.0
C1136 C 0.06542 0.81 0.32481 0.0
C1137 C 0.07324 0.79314 0.32396 0.0
H1138 H 0.18531 0.89776 0.31439 0.0
H1139 H 0.05993 0.77409 0.32385 0.0
H1140 H 0.05665 0.84722 0.32461 0.0
H1141 H 0.17483 0.92999 0.31203 0.0
H1142 H 0.10411 0.78775 0.32281 0.0
H1143 H 0.27962 0.88943 0.3596 0.0
H1144 H 0.04594 0.80387 0.32526 0.0
H1145 H 0.1535 0.7643 0.36436 0.0
H1146 H 0.23533 0.8756 0.35976 0.0
H1147 H 0.16415 0.73216 0.36642 0.0
H1148 H 0.08802 0.88983 0.32136 0.0
H1149 H 0.29379 0.85978 0.35841 0.0
H1150 H 0.28321 0.81646 0.35852 0.0
H1151 H 0.13212 0.92084 0.31635 0.0
H1152 H 0.25178 0.77363 0.36045 0.0
N1153 N 0.22437 0.83844 0.35826 0.0
C1154 C 0.24119 0.86243 0.35929 0.0
C1155 C 0.27428 0.85358 0.35847 0.0
C1156 C 0.25694 0.82898 0.35835 0.0
C1157 C 0.26636 0.87036 0.35919 0.0
C1158 C 0.23178 0.82188 0.35837 0.0
H1159 H 0.20738 0.74206 0.3637 0.0
N1160 N 0.19023 0.79183 0.36019 0.0
C1161 C 0.17838 0.75053 0.36436 0.0
C1162 C 0.21415 0.79781 0.35937 0.0
C1163 C 0.17241 0.76873 0.36322 0.0
C1164 C 0.20279 0.75618 0.36277 0.0
C1165 C 0.2211 0.78012 0.36048 0.0
O1166 O 0.16361 0.80856 0.37923 0.0
O1167 O 0.1509 0.82696 0.34767 0.0
O1168 O 0.16669 0.86883 0.34125 0.0
O1169 O 0.1917 0.86301 0.3584 0.0
O1170 O 0.14084 0.79638 0.36014 0.0
O1171 O 0.19583 0.84412 0.37864 0.0
O1172 O 0.17662 0.85268 0.30233 0.0
O1173 O 0.18896 0.83692 0.33428 0.0
O1174 O 0.17645 0.79719 0.33919 0.0
O1175 O 0.14739 0.80001 0.32435 0.0
O1176 O 0.19894 0.86684 0.32124 0.0
O1177 O 0.14303 0.8184 0.30338 0.0
C1178 C 0.1327 0.80818 0.35274 0.0
C1179 C 0.18882 0.82152 0.40085 0.0
C1180 C 0.18982 0.82025 0.42835 0.0
C1181 C 0.18201 0.82619 0.41498 0.0
C1182 C 0.20464 0.80957 0.42723 0.0
C1183 C 0.20379 0.81114 0.40004 0.0
C1184 C 0.21163 0.8052 0.41318 0.0
C1185 C 0.18218 0.87569 0.35276 0.0
C1186 C 0.17961 0.82702 0.3871 0.0
C1187 C 0.24608 0.78698 0.35977 0.0
C1188 C 0.26397 0.81137 0.35868 0.0
C1189 C 0.20718 0.85561 0.32915 0.0
C1190 C 0.15156 0.8402 0.28071 0.0
C1191 C 0.15908 0.83561 0.26682 0.0
C1192 C 0.15259 0.84234 0.25329 0.0
C1193 C 0.13831 0.85357 0.25386 0.0
C1194 C 0.13706 0.85115 0.28107 0.0
C1195 C 0.13048 0.85779 0.26768 0.0
C1196 C 0.15946 0.78892 0.32849 0.0
C1197 C 0.1599 0.83442 0.29471 0.0
H1198 H 0.17078 0.83462 0.41548 0.0
H1199 H 0.21059 0.80424 0.43719 0.0
H1200 H 0.20927 0.8075 0.38929 0.0
H1201 H 0.22302 0.79698 0.41247 0.0
H1202 H 0.17044 0.82729 0.26656 0.0
H1203 H 0.13294 0.85882 0.24361 0.0
H1204 H 0.131 0.85471 0.29165 0.0
H1205 H 0.11936 0.86631 0.26801 0.0
Eu1206 Eu 0.82551 0.64951 0.65819 0.0
C1207 C 0.88192 0.74557 0.69652 0.0
C1208 C 0.92482 0.75702 0.69494 0.0
C1209 C 0.91344 0.78779 0.69831 0.0
C1210 C 0.89973 0.73922 0.6947 0.0
C1211 C 0.88854 0.76988 0.69866 0.0
C1212 C 0.93156 0.78137 0.69643 0.0
C1213 C 0.84562 0.75675 0.70253 0.0
N1214 N 0.8581 0.72782 0.69693 0.0
C1215 C 0.84001 0.73291 0.70038 0.0
C1216 C 0.86998 0.77536 0.70149 0.0
Eu1217 Eu 0.84966 0.68794 0.69264 0.0
N1218 N 0.89256 0.71553 0.69341 0.0
C1219 C 0.90963 0.7083 0.69342 0.0
C1220 C 0.94238 0.74976 0.69407 0.0
C1221 C 0.93474 0.72526 0.69351 0.0
H1222 H 0.82113 0.7186 0.70109 0.0
H1223 H 0.94816 0.71942 0.69311 0.0
H1224 H 0.95073 0.79532 0.69651 0.0
H1225 H 0.83117 0.76075 0.70495 0.0
H1226 H 0.90407 0.68949 0.69292 0.0
H1227 H 0.72691 0.61724 0.65734 0.0
H1228 H 0.96184 0.76287 0.69417 0.0
H1229 H 0.85459 0.61887 0.65065 0.0
H1230 H 0.77096 0.64752 0.65723 0.0
H1231 H 0.8449 0.57665 0.64801 0.0
H1232 H 0.9189 0.80659 0.6998 0.0
H1233 H 0.71364 0.57387 0.65733 0.0
H1234 H 0.72515 0.54161 0.65605 0.0
H1235 H 0.8743 0.79381 0.7032 0.0
H1236 H 0.75725 0.53055 0.65348 0.0
N1237 N 0.78275 0.62167 0.65753 0.0
C1238 C 0.76552 0.62869 0.65716 0.0
C1239 C 0.73306 0.5871 0.65727 0.0
C1240 C 0.75079 0.58002 0.65679 0.0
C1241 C 0.74047 0.61156 0.65724 0.0
C1242 C 0.77582 0.59799 0.65681 0.0
H1243 H 0.80191 0.54349 0.65027 0.0
N1244 N 0.81757 0.60962 0.65472 0.0
C1245 C 0.83036 0.58064 0.65014 0.0
C1246 C 0.7938 0.59176 0.65537 0.0
C1247 C 0.83577 0.60452 0.65159 0.0
C1248 C 0.80608 0.56197 0.65146 0.0
C1249 C 0.78738 0.56741 0.65387 0.0
O1250 O 0.84368 0.65469 0.63648 0.0
O1251 O 0.85644 0.68252 0.66868 0.0
O1252 O 0.843 0.7094 0.67495 0.0
O1253 O 0.81416 0.67812 0.65972 0.0
O1254 O 0.86592 0.66212 0.65516 0.0
O1255 O 0.81059 0.65694 0.63795 0.0
O1256 O 0.83323 0.6847 0.71483 0.0
O1257 O 0.81876 0.65552 0.68193 0.0
O1258 O 0.83119 0.628 0.67616 0.0
O1259 O 0.86117 0.65937 0.69076 0.0
O1260 O 0.80907 0.67502 0.69597 0.0
O1261 O 0.86255 0.6767 0.71212 0.0
C1262 C 0.87439 0.68154 0.66313 0.0
C1263 C 0.81898 0.64433 0.6147 0.0
C1264 C 0.81886 0.64468 0.5871 0.0
C1265 C 0.82583 0.65704 0.60105 0.0
C1266 C 0.80493 0.61932 0.5872 0.0
C1267 C 0.80491 0.61916 0.61444 0.0
C1268 C 0.79795 0.60676 0.60074 0.0
C1269 C 0.82576 0.7009 0.66435 0.0
C1270 C 0.82737 0.65747 0.62909 0.0
C1271 C 0.76254 0.54937 0.65447 0.0
C1272 C 0.74427 0.55567 0.65594 0.0
C1273 C 0.80069 0.65605 0.68759 0.0
C1274 C 0.85852 0.69068 0.73601 0.0
C1275 C 0.84997 0.67789 0.74956 0.0
C1276 C 0.86081 0.68888 0.76345 0.0
C1277 C 0.88007 0.71296 0.76352 0.0
C1278 C 0.87766 0.71467 0.73639 0.0
C1279 C 0.88832 0.72573 0.7501 0.0
C1280 C 0.84904 0.6365 0.68631 0.0
C1281 C 0.84775 0.67865 0.72155 0.0
H1282 H 0.83645 0.67653 0.60137 0.0
H1283 H 0.79969 0.60904 0.5768 0.0
H1284 H 0.79951 0.60911 0.62481 0.0
H1285 H 0.78728 0.58729 0.60062 0.0
H1286 H 0.8353 0.65927 0.74925 0.0
H1287 H 0.88863 0.72201 0.774 0.0
H1288 H 0.88444 0.72477 0.7261 0.0
H1289 H 0.9031 0.74426 0.75032 0.0
Eu1290 Eu 0.35735 0.17603 0.66079 0.0
C1291 C 0.2558 0.13861 0.69235 0.0
C1292 C 0.24646 0.17063 0.68916 0.0
C1293 C 0.21327 0.12914 0.6907 0.0
C1294 C 0.26369 0.16277 0.69055 0.0
C1295 C 0.23051 0.12157 0.69283 0.0
C1296 C 0.22124 0.15363 0.68885 0.0
C1297 C 0.24117 0.09123 0.69887 0.0
N1298 N 0.2729 0.13196 0.69454 0.0
C1299 C 0.26604 0.10883 0.69833 0.0
C1300 C 0.22331 0.09756 0.6959 0.0
Eu1301 Eu 0.31461 0.16247 0.69297 0.0
N1302 N 0.28817 0.17873 0.69108 0.0
C1303 C 0.29657 0.2029 0.69148 0.0
C1304 C 0.25508 0.19538 0.68863 0.0
C1305 C 0.28022 0.21158 0.69005 0.0
H1306 H 0.27984 0.10387 0.70051 0.0
H1307 H 0.28704 0.23076 0.68997 0.0
H1308 H 0.20775 0.15931 0.68763 0.0
H1309 H 0.2358 0.07281 0.70153 0.0
H1310 H 0.31595 0.21565 0.69247 0.0
H1311 H 0.38518 0.10793 0.66431 0.0
H1312 H 0.24246 0.20215 0.68753 0.0
H1313 H 0.39221 0.23391 0.65152 0.0
H1314 H 0.35626 0.12296 0.66149 0.0
H1315 H 0.43622 0.26512 0.6507 0.0
H1316 H 0.19375 0.11628 0.69087 0.0
H1317 H 0.42971 0.13661 0.66704 0.0
H1318 H 0.46436 0.17949 0.66702 0.0
H1319 H 0.20405 0.08391 0.69637 0.0
H1320 H 0.47832 0.22244 0.66339 0.0
N1321 N 0.38395 0.15992 0.66294 0.0
C1322 C 0.37561 0.13575 0.66259 0.0
C1323 C 0.41708 0.14335 0.66578 0.0
C1324 C 0.42565 0.16808 0.66518 0.0
C1325 C 0.39197 0.12711 0.6642 0.0
C1326 C 0.40841 0.17588 0.66358 0.0
H1327 H 0.46798 0.25452 0.65702 0.0
N1328 N 0.39914 0.20646 0.65898 0.0
C1329 C 0.43087 0.24691 0.6539 0.0
C1330 C 0.41626 0.19998 0.66161 0.0
C1331 C 0.40602 0.22925 0.65438 0.0
C1332 C 0.44873 0.24087 0.65752 0.0
C1333 C 0.44156 0.21703 0.6611 0.0
O1334 O 0.35605 0.18905 0.63839 0.0
O1335 O 0.32333 0.17448 0.66925 0.0
O1336 O 0.29396 0.13537 0.67451 0.0
O1337 O 0.32647 0.13655 0.66113 0.0
O1338 O 0.3453 0.20333 0.65574 0.0
O1339 O 0.35178 0.15366 0.64087 0.0
O1340 O 0.31315 0.14798 0.71537 0.0
O1341 O 0.34879 0.16422 0.68461 0.0
O1342 O 0.37767 0.2052 0.6782 0.0
O1343 O 0.34552 0.2018 0.69334 0.0
O1344 O 0.3265 0.13501 0.69779 0.0
O1345 O 0.32199 0.18506 0.71293 0.0
C1346 C 0.32499 0.19289 0.66313 0.0
C1347 C 0.37001 0.17474 0.61853 0.0
C1348 C 0.37511 0.17556 0.59134 0.0
C1349 C 0.35988 0.16983 0.604 0.0
C1350 C 0.40061 0.18611 0.59338 0.0
C1351 C 0.39546 0.18491 0.62041 0.0
C1352 C 0.41067 0.19056 0.60787 0.0
C1353 C 0.30281 0.12618 0.66462 0.0
C1354 C 0.35386 0.1701 0.6315 0.0
C1355 C 0.4588 0.20957 0.66355 0.0
C1356 C 0.45085 0.18512 0.66561 0.0
C1357 C 0.34704 0.14574 0.69068 0.0
C1358 C 0.30166 0.16503 0.73509 0.0
C1359 C 0.31073 0.16695 0.74977 0.0
C1360 C 0.29613 0.16501 0.76227 0.0
C1361 C 0.27223 0.16093 0.75983 0.0
C1362 C 0.27777 0.16089 0.73287 0.0
C1363 C 0.26313 0.15881 0.74521 0.0
C1364 C 0.36861 0.21337 0.68861 0.0
C1365 C 0.31753 0.16774 0.72227 0.0
H1366 H 0.34021 0.16209 0.60254 0.0
H1367 H 0.41269 0.19063 0.58377 0.0
H1368 H 0.40357 0.18866 0.63151 0.0
H1369 H 0.43032 0.19853 0.60938 0.0
H1370 H 0.32932 0.17044 0.75144 0.0
H1371 H 0.2605 0.15916 0.76922 0.0
H1372 H 0.27051 0.15941 0.72166 0.0
H1373 H 0.2447 0.15562 0.74343 0.0
Eu1374 Eu 0.85018 0.16196 0.69471 0.0
C1375 C 0.79791 0.20391 0.65732 0.0
C1376 C 0.75447 0.17836 0.66218 0.0
C1377 C 0.77085 0.22081 0.657 0.0
C1378 C 0.77831 0.18161 0.66086 0.0
C1379 C 0.79431 0.22365 0.65498 0.0
C1380 C 0.75096 0.1982 0.6606 0.0
C1381 C 0.83671 0.24685 0.64732 0.0
N1382 N 0.82027 0.20595 0.65532 0.0
C1383 C 0.83932 0.22671 0.64966 0.0
C1384 C 0.8142 0.24543 0.65021 0.0
Eu1385 Eu 0.8234 0.17115 0.66011 0.0
N1386 N 0.7823 0.16281 0.66223 0.0
C1387 C 0.76301 0.13996 0.66389 0.0
C1388 C 0.73478 0.15516 0.66465 0.0
C1389 C 0.73904 0.13582 0.66527 0.0
H1390 H 0.85676 0.22801 0.64732 0.0
H1391 H 0.7239 0.11774 0.66692 0.0
H1392 H 0.73283 0.19611 0.66175 0.0
H1393 H 0.85203 0.26342 0.64325 0.0
H1394 H 0.76604 0.12486 0.66447 0.0
H1395 H 0.88532 0.23201 0.73832 0.0
H1396 H 0.71621 0.15191 0.66578 0.0
H1397 H 0.8791 0.13546 0.67879 0.0
H1398 H 0.85366 0.1985 0.7231 0.0
H1399 H 0.92119 0.14258 0.67588 0.0
H1400 H 0.76777 0.23582 0.65541 0.0
H1401 H 0.92928 0.24548 0.73444 0.0
H1402 H 0.96124 0.23912 0.72158 0.0
H1403 H 0.81219 0.26102 0.6483 0.0
H1404 H 0.97101 0.21468 0.70456 0.0
N1405 N 0.87947 0.19371 0.71024 0.0
C1406 C 0.87278 0.20425 0.72127 0.0
C1407 C 0.91546 0.23083 0.72768 0.0
C1408 C 0.92205 0.21877 0.71715 0.0
C1409 C 0.89067 0.22325 0.72992 0.0
C1410 C 0.90334 0.19983 0.70863 0.0
H1411 H 0.95615 0.17835 0.68771 0.0
N1412 N 0.89003 0.16715 0.69186 0.0
C1413 C 0.91799 0.15506 0.68239 0.0
C1414 C 0.9088 0.18612 0.6991 0.0
C1415 C 0.89413 0.1511 0.68406 0.0
C1416 C 0.93768 0.1753 0.68904 0.0
C1417 C 0.93319 0.1909 0.69777 0.0
O1418 O 0.85227 0.13247 0.70553 0.0
O1419 O 0.81564 0.15602 0.68324 0.0
O1420 O 0.83576 0.20341 0.67571 0.0
O1421 O 0.86536 0.20206 0.69115 0.0
O1422 O 0.82227 0.17003 0.70501 0.0
O1423 O 0.82901 0.14475 0.71497 0.0
O1424 O 0.83964 0.17284 0.638 0.0
O1425 O 0.8541 0.16708 0.66989 0.0
O1426 O 0.8378 0.1299 0.67876 0.0
O1427 O 0.80767 0.13137 0.66448 0.0
O1428 O 0.8637 0.19552 0.65523 0.0
O1429 O 0.80076 0.15042 0.64084 0.0
C1430 C 0.80739 0.16336 0.69375 0.0
C1431 C 0.84816 0.13099 0.73222 0.0
C1432 C 0.84795 0.1364 0.75956 0.0
C1433 C 0.84017 0.13835 0.74502 0.0
C1434 C 0.86409 0.12739 0.76118 0.0
C1435 C 0.86431 0.12205 0.73422 0.0
C1436 C 0.87229 0.12042 0.74859 0.0
C1437 C 0.8545 0.21337 0.68531 0.0
C1438 C 0.8388 0.13133 0.71693 0.0
C1439 C 0.95212 0.21055 0.70558 0.0
C1440 C 0.94656 0.22446 0.71527 0.0
C1441 C 0.87199 0.18481 0.66356 0.0
C1442 C 0.81481 0.16879 0.61718 0.0
C1443 C 0.82317 0.16439 0.60351 0.0
C1444 C 0.82079 0.17451 0.59003 0.0
C1445 C 0.80978 0.18893 0.59043 0.0
C1446 C 0.80368 0.18306 0.61729 0.0
C1447 C 0.80119 0.19305 0.60397 0.0
C1448 C 0.81892 0.11997 0.66934 0.0
C1449 C 0.81877 0.15933 0.63131 0.0
H1450 H 0.82744 0.14497 0.74374 0.0
H1451 H 0.87046 0.12585 0.77223 0.0
H1452 H 0.87064 0.11609 0.72467 0.0
H1453 H 0.88474 0.11351 0.74998 0.0
H1454 H 0.83196 0.15354 0.60343 0.0
H1455 H 0.80752 0.19676 0.58022 0.0
H1456 H 0.79699 0.18656 0.62765 0.0
H1457 H 0.79263 0.20407 0.60414 0.0
H1458 H 0.35372 0.8573 0.05647 0.0
H1459 H 0.42798 0.99043 0.02418 0.0
H1460 H 0.32028 0.90042 0.0469 0.0
H1461 H 0.45689 0.94209 0.02417 0.0
H1462 H 0.38808 0.95729 0.03205 0.0
H1463 H 0.39125 0.88746 0.04419 0.0
C1464 C 0.3541 0.87294 0.05166 0.0
C1465 C 0.33371 0.87631 0.05288 0.0
C1466 C 0.40301 0.95379 0.03013 0.0
C1467 C 0.37697 0.91121 0.039 0.0
C1468 C 0.42574 0.97269 0.02564 0.0
C1469 C 0.44554 0.96884 0.02331 0.0
C1470 C 0.40022 0.93097 0.03272 0.0
C1471 C 0.44191 0.94567 0.02558 0.0
C1472 C 0.37563 0.89023 0.0447 0.0
C1473 C 0.33561 0.89721 0.04658 0.0
N1474 N 0.41971 0.92762 0.03027 0.0
N1475 N 0.35686 0.91389 0.04003 0.0
H1476 H 0.10074 0.41652 0.05133 0.0
H1477 H 0.0582 0.51025 0.02729 0.0
H1478 H 0.14388 0.49275 0.06078 0.0
H1479 H 0.00907 0.43361 0.02926 0.0
H1480 H 0.09165 0.50454 0.0366 0.0
H1481 H 0.06889 0.42283 0.04028 0.0
C1482 C 0.10355 0.4346 0.05117 0.0
C1483 C 0.12507 0.45407 0.05722 0.0
C1484 C 0.07359 0.48896 0.03493 0.0
C1485 C 0.08859 0.46146 0.04425 0.0
C1486 C 0.05455 0.49219 0.0295 0.0
C1487 C 0.03101 0.47228 0.02717 0.0
C1488 C 0.06901 0.46564 0.03812 0.0
C1489 C 0.02707 0.44937 0.0307 0.0
C1490 C 0.08534 0.43818 0.04477 0.0
C1491 C 0.12778 0.47716 0.05621 0.0
N1492 N 0.0459 0.44664 0.0359 0.0
N1493 N 0.10976 0.48019 0.0499 0.0
H1494 H 0.51892 0.66385 0.06321 0.0
H1495 H 0.56375 0.5782 0.02919 0.0
H1496 H 0.59487 0.69038 0.05152 0.0
H1497 H 0.49039 0.5657 0.02176 0.0
H1498 H 0.57551 0.61786 0.03982 0.0
H1499 H 0.50788 0.62598 0.05042 0.0
C1500 C 0.53328 0.66188 0.05785 0.0
C1501 C 0.55791 0.68049 0.05846 0.0
C1502 C 0.55692 0.60648 0.03574 0.0
C1503 C 0.54535 0.63685 0.04412 0.0
C1504 C 0.55018 0.58386 0.02974 0.0
C1505 C 0.52604 0.56864 0.0247 0.0
C1506 C 0.53928 0.61371 0.0369 0.0
C1507 C 0.50921 0.57691 0.02551 0.0
C1508 C 0.52694 0.64019 0.05061 0.0
C1509 C 0.57572 0.67649 0.05161 0.0
N1510 N 0.51607 0.59881 0.03168 0.0
N1511 N 0.56911 0.65505 0.04481 0.0
H1512 H 0.84143 0.33854 0.94997 0.0
H1513 H 0.97662 0.42239 0.98246 0.0
H1514 H 0.89425 0.31453 0.95418 0.0
H1515 H 0.91627 0.43394 0.993 0.0
H1516 H 0.94784 0.38473 0.96972 0.0
H1517 H 0.86969 0.37547 0.9635 0.0
C1518 C 0.85884 0.34086 0.95378 0.0
C1519 C 0.86529 0.32316 0.95087 0.0
C1520 C 0.9409 0.39546 0.97489 0.0
C1521 C 0.89804 0.36587 0.96614 0.0
C1522 C 0.95733 0.41701 0.98213 0.0
C1523 C 0.94887 0.43137 0.98885 0.0
C1524 C 0.91586 0.38835 0.97412 0.0
C1525 C 0.92361 0.4234 0.98806 0.0
C1526 C 0.87503 0.36206 0.96146 0.0
C1527 C 0.88849 0.32769 0.95586 0.0
N1528 N 0.90803 0.40253 0.98074 0.0
N1529 N 0.90401 0.34858 0.96317 0.0
H1530 H 0.64736 0.50175 0.94963 0.0
H1531 H 0.58059 0.5526 1.00304 0.0
H1532 H 0.68605 0.56964 0.97339 0.0
H1533 H 0.54326 0.48232 0.9823 0.0
H1534 H 0.61974 0.55864 0.99313 0.0
H1535 H 0.60935 0.49389 0.96199 0.0
C1536 C 0.64788 0.51506 0.95741 0.0
C1537 C 0.67003 0.53647 0.96038 0.0
C1538 C 0.60307 0.54176 0.99089 0.0
C1539 C 0.62639 0.52747 0.97472 0.0
C1540 C 0.58081 0.53829 0.99661 0.0
C1541 C 0.55895 0.51667 0.99384 0.0
C1542 C 0.60332 0.5237 0.98194 0.0
C1543 C 0.55992 0.49897 0.98502 0.0
C1544 C 0.62616 0.51047 0.96456 0.0
C1545 C 0.66954 0.55281 0.97081 0.0
N1546 N 0.58172 0.50288 0.97937 0.0
N1547 N 0.64811 0.54804 0.97751 0.0
H1548 H 0.47805 0.15542 0.9739 0.0
H1549 H 0.46188 0.02407 0.97566 0.0
H1550 H 0.4395 0.10143 0.93951 0.0
H1551 H 0.51692 0.08333 1.00213 0.0
H1552 H 0.45112 0.05154 0.96369 0.0
H1553 H 0.49044 0.12877 0.98564 0.0
C1554 C 0.47234 0.13808 0.96872 0.0
C1555 C 0.45764 0.13071 0.95567 0.0
C1556 C 0.46554 0.05855 0.97213 0.0
C1557 C 0.4714 0.09994 0.96927 0.0
C1558 C 0.47169 0.04284 0.97903 0.0
C1559 C 0.49021 0.05129 0.99009 0.0
C1560 C 0.47782 0.08294 0.97634 0.0
C1561 C 0.50227 0.07589 0.99387 0.0
C1562 C 0.47933 0.12283 0.9755 0.0
C1563 C 0.45045 0.10779 0.94969 0.0
N1564 N 0.49579 0.09084 0.98705 0.0
N1565 N 0.45731 0.09322 0.95656 0.0
H1566 H 0.67421 0.14916 0.97213 0.0
H1567 H 0.58472 0.01057 0.99059 0.0
H1568 H 0.67487 0.09116 0.94781 0.0
H1569 H 0.55994 0.06198 0.99492 0.0
H1570 H 0.62378 0.04229 0.98063 0.0
H1571 H 0.63755 0.11938 0.98588 0.0
C1572 C 0.6667 0.13016 0.96978 0.0
C1573 C 0.6774 0.12251 0.9588 0.0
C1574 C 0.60994 0.04671 0.98398 0.0
C1575 C 0.63609 0.08863 0.97456 0.0
C1576 C 0.58774 0.02869 0.98972 0.0
C1577 C 0.56922 0.03374 0.99373 0.0
C1578 C 0.61375 0.07003 0.98222 0.0
C1579 C 0.57393 0.05746 0.99222 0.0
C1580 C 0.64583 0.11327 0.97756 0.0
C1581 C 0.66702 0.09775 0.95611 0.0
N1582 N 0.5958 0.07481 0.98657 0.0
N1583 N 0.64704 0.0817 0.96399 0.0
H1584 H 0.84938 0.51445 0.97388 0.0
H1585 H 0.99253 0.56359 0.98438 0.0
H1586 H 0.90372 0.57017 0.94584 0.0
H1587 H 0.93973 0.48837 0.99 0.0
H1588 H 0.95955 0.57008 0.97504 0.0
H1589 H 0.88186 0.50834 0.9849 0.0
C1590 C 0.86816 0.52546 0.97013 0.0
C1591 C 0.87393 0.54275 0.9589 0.0
C1592 C 0.95517 0.55221 0.97849 0.0
C1593 C 0.91096 0.53613 0.97153 0.0
C1594 C 0.97391 0.54852 0.98385 0.0
C1595 C 0.9687 0.52557 0.98839 0.0
C1596 C 0.931 0.53281 0.97767 0.0
C1597 C 0.94438 0.5065 0.98712 0.0
C1598 C 0.88657 0.52189 0.97634 0.0
C1599 C 0.89851 0.55653 0.95439 0.0
N1600 N 0.92634 0.51058 0.98201 0.0
N1601 N 0.91614 0.55304 0.96078 0.0
H1602 H 0.41691 0.32219 0.95035 0.0
H1603 H 0.49993 0.41957 0.01261 0.0
H1604 H 0.46197 0.31056 0.98198 0.0
H1605 H 0.44412 0.42339 0.98636 0.0
H1606 H 0.48646 0.37963 1.00181 0.0
H1607 H 0.42701 0.35956 0.96352 0.0
C1608 C 0.42893 0.32753 0.96009 0.0
C1609 C 0.43873 0.31336 0.96503 0.0
C1610 C 0.47707 0.38917 0.99853 0.0
C1611 C 0.4504 0.35612 0.9802 0.0
C1612 C 0.48475 0.41197 1.00468 0.0
C1613 C 0.47324 0.42494 1.00034 0.0
C1614 C 0.45791 0.3794 0.98787 0.0
C1615 C 0.45363 0.41416 0.99003 0.0
C1616 C 0.4346 0.34879 0.96766 0.0
C1617 C 0.45393 0.32093 0.97785 0.0
N1618 N 0.44674 0.39214 0.98408 0.0
N1619 N 0.45948 0.34192 0.98493 0.0
H1620 H 0.16049 0.67994 0.04001 0.0
H1621 H 0.02269 0.57005 0.03804 0.0
H1622 H 0.10817 0.66931 0.0747 0.0
H1623 H 0.08283 0.56762 0.01632 0.0
H1624 H 0.0522 0.6089 0.04934 0.0
H1625 H 0.13047 0.64132 0.02864 0.0
C1626 C 0.14262 0.6695 0.04517 0.0
C1627 C 0.13679 0.67776 0.05832 0.0
C1628 C 0.05884 0.59983 0.04204 0.0
C1629 C 0.10238 0.6337 0.04536 0.0
C1630 C 0.04202 0.57768 0.03554 0.0
C1631 C 0.05018 0.56563 0.02597 0.0
C1632 C 0.08396 0.61015 0.03881 0.0
C1633 C 0.07553 0.57641 0.02329 0.0
C1634 C 0.12558 0.64744 0.03874 0.0
C1635 C 0.11345 0.66346 0.06463 0.0
N1636 N 0.09147 0.59809 0.02959 0.0
N1637 N 0.09702 0.64217 0.05805 0.0
H1638 H 0.33281 0.48871 0.04487 0.0
H1639 H 0.43407 0.44953 0.03508 0.0
H1640 H 0.33306 0.43316 0.07174 0.0
H1641 H 0.45268 0.52357 0.03094 0.0
H1642 H 0.39249 0.43917 0.0431 0.0
H1643 H 0.37269 0.49779 0.03419 0.0
C1644 C 0.34119 0.47833 0.04841 0.0
C1645 C 0.32978 0.46026 0.05925 0.0
C1646 C 0.40559 0.45761 0.04023 0.0
C1647 C 0.37492 0.47027 0.047 0.0
C1648 C 0.42913 0.46345 0.03555 0.0
C1649 C 0.4464 0.48727 0.03198 0.0
C1650 C 0.3993 0.47572 0.04126 0.0
C1651 C 0.43957 0.50491 0.03328 0.0
C1652 C 0.36391 0.48359 0.04239 0.0
C1653 C 0.34139 0.44736 0.06351 0.0
N1654 N 0.41642 0.49877 0.03768 0.0
N1655 N 0.36325 0.45252 0.05732 0.0
H1656 H 0.57967 0.90422 0.07764 0.0
H1657 H 0.49608 0.91982 0.01605 0.0
H1658 H 0.53721 0.84971 0.04435 0.0
H1659 H 0.55355 0.97908 0.04129 0.0
H1660 H 0.50794 0.89273 0.02774 0.0
H1661 H 0.56701 0.93077 0.06603 0.0
C1662 C 0.56759 0.89782 0.06792 0.0
C1663 C 0.5595 0.87478 0.06192 0.0
C1664 C 0.51798 0.91169 0.03064 0.0
C1665 C 0.54499 0.90503 0.04856 0.0
C1666 C 0.5113 0.92721 0.02393 0.0
C1667 C 0.52405 0.95188 0.02749 0.0
C1668 C 0.53731 0.92085 0.04117 0.0
C1669 C 0.54323 0.96026 0.0381 0.0
C1670 C 0.56049 0.91301 0.06125 0.0
C1671 C 0.54406 0.86746 0.04922 0.0
N1672 N 0.54923 0.94477 0.04456 0.0
N1673 N 0.53723 0.88252 0.04298 0.0
H1674 H 0.98447 0.23321 0.38299 0.0
H1675 H 0.1217 0.27233 0.35781 0.0
H1676 H 0.01878 0.19061 0.39168 0.0
H1677 H 0.0933 0.32105 0.35957 0.0
H1678 H 0.08178 0.23968 0.36619 0.0
H1679 H 0.02206 0.26321 0.37072 0.0
C1680 C 0.99988 0.23014 0.38238 0.0
C1681 C 0.9984 0.20936 0.38857 0.0
C1682 C 0.0842 0.25745 0.36459 0.0
C1683 C 0.0415 0.24359 0.37423 0.0
C1684 C 0.1069 0.27602 0.35967 0.0
C1685 C 0.11059 0.29927 0.35775 0.0
C1686 C 0.06515 0.26226 0.36773 0.0
C1687 C 0.09104 0.30327 0.36077 0.0
C1688 C 0.02131 0.24724 0.37527 0.0
C1689 C 0.01887 0.20618 0.38701 0.0
N1690 N 0.06915 0.28496 0.3656 0.0
N1691 N 0.03956 0.22314 0.38006 0.0
H1692 H 0.81676 0.8273 0.39238 0.0
H1693 H 0.6777 0.76509 0.36288 0.0
H1694 H 0.77056 0.75061 0.38579 0.0
H1695 H 0.72727 0.8417 0.36188 0.0
H1696 H 0.71139 0.75955 0.37188 0.0
H1697 H 0.78447 0.83317 0.38141 0.0
C1698 C 0.79997 0.81168 0.38853 0.0
C1699 C 0.79646 0.78837 0.39016 0.0
C1700 C 0.71501 0.77758 0.36958 0.0
C1701 C 0.75909 0.79502 0.37781 0.0
C1702 C 0.69578 0.78071 0.36445 0.0
C1703 C 0.69991 0.8038 0.36126 0.0
C1704 C 0.73846 0.79776 0.37189 0.0
C1705 C 0.7235 0.82354 0.3638 0.0
C1706 C 0.78145 0.81507 0.38234 0.0
C1707 C 0.77404 0.76888 0.38511 0.0
N1708 N 0.7419 0.82008 0.36897 0.0
N1709 N 0.75624 0.77264 0.37926 0.0
H1710 H 0.19352 0.98736 0.41252 0.0
H1711 H 0.19987 0.9193 0.33936 0.0
H1712 H 0.2456 0.02461 0.37719 0.0
H1713 H 0.181 0.88468 0.38254 0.0
H1714 H 0.2109 0.95774 0.35168 0.0
H1715 H 0.1828 0.94882 0.40034 0.0
C1716 C 0.20261 0.98734 0.40217 0.0
C1717 C 0.22046 0.00903 0.39581 0.0
C1718 C 0.20432 0.94171 0.35843 0.0
C1719 C 0.20816 0.96536 0.38182 0.0
C1720 C 0.19779 0.9198 0.35141 0.0
C1721 C 0.18926 0.89892 0.35997 0.0
C1722 C 0.20185 0.94253 0.37409 0.0
C1723 C 0.18753 0.90052 0.3756 0.0
C1724 C 0.1966 0.96545 0.3953 0.0
C1725 C 0.23184 0.00819 0.38245 0.0
N1726 N 0.19355 0.92196 0.38219 0.0
N1727 N 0.22534 0.98667 0.3758 0.0
H1728 H 0.51152 0.66829 0.28551 0.0
H1729 H 0.6467 0.75383 0.31742 0.0
H1730 H 0.56353 0.64372 0.29198 0.0
H1731 H 0.58619 0.76558 0.32703 0.0
H1732 H 0.61788 0.71542 0.30535 0.0
H1733 H 0.54 0.70601 0.29818 0.0
C1734 C 0.52879 0.67064 0.28966 0.0
C1735 C 0.53494 0.65253 0.28764 0.0
C1736 C 0.61094 0.7264 0.31016 0.0
C1737 C 0.56798 0.69619 0.30187 0.0
C1738 C 0.62738 0.74836 0.317 0.0
C1739 C 0.61886 0.76295 0.32328 0.0
C1740 C 0.58586 0.71914 0.30935 0.0
C1741 C 0.59358 0.75487 0.32243 0.0
C1742 C 0.54511 0.69231 0.29683 0.0
C1743 C 0.558 0.65714 0.29298 0.0
N1744 N 0.57801 0.7336 0.31551 0.0
N1745 N 0.57368 0.67851 0.29978 0.0
H1746 H 0.32271 0.83609 0.29136 0.0
H1747 H 0.24979 0.8975 0.32563 0.0
H1748 H 0.35648 0.9121 0.30125 0.0
H1749 H 0.21968 0.82066 0.32424 0.0
H1750 H 0.28925 0.903 0.31707 0.0
H1751 H 0.28523 0.82973 0.30374 0.0
C1752 C 0.32242 0.85145 0.29624 0.0
C1753 C 0.34293 0.87475 0.29509 0.0
C1754 C 0.27416 0.88491 0.31881 0.0
C1755 C 0.29968 0.86754 0.30913 0.0
C1756 C 0.25166 0.88179 0.32371 0.0
C1757 C 0.23163 0.85864 0.32589 0.0
C1758 C 0.27654 0.86469 0.31567 0.0
C1759 C 0.23483 0.83884 0.323 0.0
C1760 C 0.3009 0.84778 0.30327 0.0
C1761 C 0.3411 0.89389 0.30151 0.0
N1762 N 0.25682 0.84231 0.31795 0.0
N1763 N 0.31989 0.88988 0.30813 0.0
H1764 H 0.09982 0.42929 0.2732 0.0
H1765 H 0.18261 0.4137 0.33543 0.0
H1766 H 0.1456 0.48564 0.30475 0.0
H1767 H 0.12438 0.35449 0.31058 0.0
H1768 H 0.17135 0.44105 0.32344 0.0
H1769 H 0.11064 0.40228 0.28588 0.0
C1770 C 0.11201 0.43598 0.28286 0.0
C1771 C 0.12172 0.45983 0.28791 0.0
C1772 C 0.16099 0.42204 0.32069 0.0
C1773 C 0.13457 0.42898 0.30236 0.0
C1774 C 0.16734 0.40638 0.32758 0.0
C1775 C 0.15429 0.38165 0.32416 0.0
C1776 C 0.14165 0.41297 0.31017 0.0
C1777 C 0.13498 0.37335 0.31365 0.0
C1778 C 0.11829 0.42055 0.29005 0.0
C1779 C 0.13789 0.46753 0.30031 0.0
N1780 N 0.12931 0.38896 0.30702 0.0
N1781 N 0.14383 0.45217 0.30709 0.0
H1782 H 0.33884 0.47863 0.30622 0.0
H1783 H 0.24737 0.33951 0.32167 0.0
H1784 H 0.3386 0.42178 0.27999 0.0
H1785 H 0.22359 0.39146 0.32751 0.0
H1786 H 0.28651 0.37129 0.3118 0.0
H1787 H 0.30153 0.44838 0.31922 0.0
C1788 C 0.33097 0.45978 0.30327 0.0
C1789 C 0.34164 0.45261 0.29198 0.0
C1790 C 0.27285 0.3758 0.31544 0.0
C1791 C 0.29958 0.41817 0.3069 0.0
C1792 C 0.25062 0.35775 0.32113 0.0
C1793 C 0.23241 0.36297 0.32561 0.0
C1794 C 0.27701 0.39932 0.31423 0.0
C1795 C 0.23737 0.38681 0.32448 0.0
C1796 C 0.30973 0.44263 0.31062 0.0
C1797 C 0.33079 0.42802 0.28853 0.0
N1798 N 0.2593 0.4042 0.31892 0.0
N1799 N 0.31046 0.41168 0.29603 0.0
H1800 H 0.57311 0.90138 0.27734 0.0
H1801 H 0.60873 0.81893 0.32424 0.0
H1802 H 0.51971 0.84567 0.30578 0.0
H1803 H 0.66017 0.89426 0.3176 0.0
H1804 H 0.57565 0.82506 0.31461 0.0
H1805 H 0.60542 0.89577 0.28881 0.0
C1806 C 0.56823 0.88792 0.28598 0.0
C1807 C 0.54378 0.87396 0.29064 0.0
C1808 C 0.59414 0.84026 0.31542 0.0
C1809 C 0.58048 0.86722 0.30363 0.0
C1810 C 0.61298 0.83683 0.32102 0.0
C1811 C 0.63707 0.85632 0.32222 0.0
C1812 C 0.59965 0.86314 0.31043 0.0
C1813 C 0.64174 0.87888 0.31715 0.0
C1814 C 0.58664 0.88482 0.29256 0.0
C1815 C 0.53839 0.85684 0.30194 0.0
N1816 N 0.62325 0.88167 0.31142 0.0
N1817 N 0.55657 0.85375 0.30796 0.0
H1818 H 0.14703 0.6526 0.30382 0.0
H1819 H 0.12293 0.76338 0.3078 0.0
H1820 H 0.10391 0.66429 0.27073 0.0
H1821 H 0.18223 0.76222 0.33164 0.0
H1822 H 0.11304 0.72536 0.29557 0.0
H1823 H 0.15728 0.69096 0.31583 0.0
C1824 C 0.13968 0.66324 0.29912 0.0
C1825 C 0.12461 0.6553 0.28627 0.0
C1826 C 0.12818 0.73344 0.30351 0.0
C1827 C 0.13622 0.69912 0.29993 0.0
C1828 C 0.13383 0.75514 0.31053 0.0
C1829 C 0.15325 0.7659 0.32096 0.0
C1830 C 0.14191 0.72232 0.307 0.0
C1831 C 0.16678 0.75438 0.32395 0.0
C1832 C 0.14564 0.68517 0.30592 0.0
C1833 C 0.11577 0.66987 0.28054 0.0
N1834 N 0.16078 0.73316 0.31707 0.0
N1835 N 0.12159 0.69104 0.28746 0.0
H1836 H 0.82771 0.01278 0.37532 0.0
H1837 H 0.6908 0.90151 0.37246 0.0
H1838 H 0.77473 0.00065 0.40987 0.0
H1839 H 0.75179 0.90006 0.35122 0.0
H1840 H 0.71973 0.94037 0.38396 0.0
H1841 H 0.79833 0.97408 0.36372 0.0
C1842 C 0.80983 0.002 0.3804 0.0
C1843 C 0.80362 0.00985 0.39357 0.0
C1844 C 0.7267 0.93152 0.37672 0.0
C1845 C 0.76995 0.96573 0.38036 0.0
C1846 C 0.71021 0.90936 0.37011 0.0
C1847 C 0.71877 0.89757 0.36061 0.0
C1848 C 0.7519 0.94214 0.37368 0.0
C1849 C 0.7442 0.90864 0.35812 0.0
C1850 C 0.79316 0.9799 0.37384 0.0
C1851 C 0.78028 0.99512 0.39978 0.0
N1852 N 0.75981 0.93034 0.36452 0.0
N1853 N 0.76422 0.97381 0.39307 0.0
H1854 H 0.02066 0.82869 0.39495 0.0
H1855 H 0.08984 0.76668 0.35688 0.0
H1856 H 0.98297 0.75493 0.37946 0.0
H1857 H 0.12128 0.8437 0.35828 0.0
H1858 H 0.05095 0.76193 0.36603 0.0
H1859 H 0.05823 0.83465 0.38268 0.0
C1860 C 0.02028 0.81376 0.38897 0.0
C1861 C 0.99862 0.79124 0.38828 0.0
C1862 C 0.06622 0.77989 0.36418 0.0
C1863 C 0.04159 0.79792 0.37425 0.0
C1864 C 0.0884 0.78258 0.35896 0.0
C1865 C 0.10861 0.80557 0.3566 0.0
C1866 C 0.06441 0.80037 0.36751 0.0
C1867 C 0.10596 0.82564 0.3597 0.0
C1868 C 0.04168 0.81722 0.38188 0.0
C1869 C 0.99916 0.77262 0.38021 0.0
N1870 N 0.08431 0.82259 0.36511 0.0
N1871 N 0.02031 0.7763 0.37365 0.0
H1872 H 0.25842 0.22836 0.38764 0.0
H1873 H 0.15294 0.2495 0.35487 0.0
H1874 H 0.18197 0.18058 0.39765 0.0
H1875 H 0.22547 0.30825 0.36554 0.0
H1876 H 0.16402 0.22151 0.36629 0.0
H1877 H 0.24731 0.25564 0.37519 0.0
C1878 C 0.2393 0.22361 0.38713 0.0
C1879 C 0.22106 0.20232 0.39369 0.0
C1880 C 0.17745 0.24054 0.3661 0.0
C1881 C 0.20825 0.23311 0.37939 0.0
C1882 C 0.17121 0.25649 0.35954 0.0
C1883 C 0.18829 0.28125 0.35934 0.0
C1884 C 0.20106 0.24939 0.3722 0.0
C1885 C 0.21168 0.28934 0.36557 0.0
C1886 C 0.233 0.23917 0.38011 0.0
C1887 C 0.19655 0.19696 0.39281 0.0
N1888 N 0.21743 0.27343 0.37168 0.0
N1889 N 0.1908 0.21221 0.3857 0.0
H1890 H 0.65148 0.56773 0.71742 0.0
H1891 H 0.78852 0.60883 0.6908 0.0
H1892 H 0.68763 0.5269 0.72641 0.0
H1893 H 0.75811 0.6559 0.69212 0.0
H1894 H 0.7491 0.57566 0.69947 0.0
H1895 H 0.68802 0.59738 0.70414 0.0
C1896 C 0.66709 0.56498 0.71666 0.0
C1897 C 0.66648 0.54486 0.72327 0.0
C1898 C 0.75096 0.59317 0.69769 0.0
C1899 C 0.70837 0.57868 0.70777 0.0
C1900 C 0.77337 0.61202 0.6926 0.0
C1901 C 0.77636 0.635 0.69055 0.0
C1902 C 0.73155 0.59743 0.70084 0.0
C1903 C 0.75639 0.63836 0.69346 0.0
C1904 C 0.68792 0.58187 0.70897 0.0
C1905 C 0.68712 0.54202 0.72147 0.0
N1906 N 0.73484 0.61981 0.69847 0.0
N1907 N 0.70725 0.55879 0.71397 0.0
H1908 H 0.48342 0.16627 0.72855 0.0
H1909 H 0.34598 0.10385 0.69647 0.0
H1910 H 0.43863 0.08989 0.72011 0.0
H1911 H 0.39484 0.18063 0.69629 0.0
H1912 H 0.37966 0.09855 0.70573 0.0
H1913 H 0.45152 0.17221 0.717 0.0
C1914 C 0.46703 0.15074 0.72417 0.0
C1915 C 0.46376 0.12748 0.72547 0.0
C1916 C 0.38314 0.11657 0.70354 0.0
C1917 C 0.42688 0.13419 0.71244 0.0
C1918 C 0.36392 0.11957 0.69827 0.0
C1919 C 0.36785 0.14263 0.69528 0.0
C1920 C 0.40638 0.13685 0.70621 0.0
C1921 C 0.39126 0.16249 0.6981 0.0
C1922 C 0.44874 0.15417 0.71764 0.0
C1923 C 0.44187 0.1081 0.71972 0.0
N1924 N 0.40966 0.15916 0.70343 0.0
N1925 N 0.42429 0.11188 0.71357 0.0
H1926 H 0.85861 0.3387 0.72298 0.0
H1927 H 0.89978 0.24611 0.69649 0.0
H1928 H 0.93498 0.3604 0.71618 0.0
H1929 H 0.82876 0.23721 0.68554 0.0
H1930 H 0.91271 0.28663 0.70609 0.0
H1931 H 0.8469 0.29991 0.71141 0.0
C1932 C 0.87297 0.33551 0.71891 0.0
C1933 C 0.89789 0.35306 0.72054 0.0
C1934 C 0.89438 0.27583 0.70147 0.0
C1935 C 0.88445 0.30822 0.70765 0.0
C1936 C 0.88695 0.25271 0.69608 0.0
C1937 C 0.86313 0.23828 0.69029 0.0
C1938 C 0.87775 0.28439 0.70124 0.0
C1939 C 0.84731 0.24777 0.68986 0.0
C1940 C 0.86621 0.31325 0.71238 0.0
C1941 C 0.91557 0.3474 0.71541 0.0
N1942 N 0.85483 0.27017 0.69541 0.0
N1943 N 0.90851 0.32541 0.70928 0.0
H1944 H 0.23344 0.00014 0.60654 0.0
H1945 H 0.25253 0.10125 0.66638 0.0
H1946 H 0.17766 0.99138 0.63831 0.0
H1947 H 0.31309 0.09871 0.64536 0.0
H1948 H 0.22409 0.06304 0.65428 0.0
H1949 H 0.26214 0.03826 0.61876 0.0
C1950 C 0.2272 0.00608 0.61613 0.0
C1951 C 0.20298 0.99231 0.6214 0.0
C1952 C 0.24361 0.07078 0.65238 0.0
C1953 C 0.23577 0.03635 0.63524 0.0
C1954 C 0.25993 0.09257 0.65937 0.0
C1955 C 0.28536 0.10308 0.65716 0.0
C1956 C 0.25268 0.05952 0.64286 0.0
C1957 C 0.29368 0.09125 0.64751 0.0
C1958 C 0.24361 0.02795 0.62305 0.0
C1959 C 0.19594 0.00141 0.63367 0.0
N1960 N 0.27738 0.07014 0.6407 0.0
N1961 N 0.21222 0.02284 0.64013 0.0
H1962 H 0.98813 0.17073 0.62164 0.0
H1963 H 0.91696 0.22336 0.66945 0.0
H1964 H 0.02176 0.24465 0.63663 0.0
H1965 H 0.88122 0.153 0.64879 0.0
H1966 H 0.95665 0.23001 0.66012 0.0
H1967 H 0.95 0.16249 0.634 0.0
C1968 C 0.98759 0.18521 0.62763 0.0
C1969 C 0.00826 0.20847 0.62803 0.0
C1970 C 0.9402 0.21298 0.65778 0.0
C1971 C 0.96442 0.19914 0.64216 0.0
C1972 C 0.91765 0.20916 0.66319 0.0
C1973 C 0.89609 0.18734 0.66026 0.0
C1974 C 0.94106 0.19503 0.64908 0.0
C1975 C 0.89764 0.16978 0.65165 0.0
C1976 C 0.96573 0.1805 0.63462 0.0
C1977 C 0.00625 0.22654 0.63582 0.0
N1978 N 0.91975 0.17398 0.64637 0.0
N1979 N 0.98477 0.2215 0.64256 0.0
H1980 H 0.80657 0.82127 0.63993 0.0
H1981 H 0.78966 0.68961 0.64339 0.0
H1982 H 0.7649 0.76517 0.60727 0.0
H1983 H 0.84556 0.7497 0.66891 0.0
H1984 H 0.77819 0.71657 0.63149 0.0
H1985 H 0.81918 0.79496 0.65193 0.0
C1986 C 0.80021 0.80352 0.63519 0.0
C1987 C 0.78461 0.79547 0.62253 0.0
C1988 C 0.79295 0.72388 0.63971 0.0
C1989 C 0.79865 0.76512 0.63643 0.0
C1990 C 0.79952 0.70846 0.64657 0.0
C1991 C 0.81853 0.71731 0.65731 0.0
C1992 C 0.80534 0.74839 0.64361 0.0
C1993 C 0.83058 0.74199 0.66087 0.0
C1994 C 0.80733 0.78847 0.64212 0.0
C1995 C 0.7766 0.77207 0.61712 0.0
N1996 N 0.82373 0.75667 0.65406 0.0
N1997 N 0.78365 0.75774 0.62412 0.0
H1998 H 0.00789 0.76176 0.61537 0.0
H1999 H 0.88887 0.7298 0.66202 0.0
H2000 H 0.00362 0.81709 0.64066 0.0
H2001 H 0.9151 0.6798 0.65595 0.0
H2002 H 0.92861 0.76238 0.653 0.0
H2003 H 0.97111 0.73125 0.62822 0.0
C2004 C 0.99912 0.76743 0.62363 0.0
C2005 C 0.00868 0.79189 0.62696 0.0
C2006 C 0.92573 0.74433 0.65389 0.0
C2007 C 0.96655 0.75719 0.64162 0.0
C2008 C 0.90318 0.72581 0.65912 0.0
C2009 C 0.89893 0.70219 0.65997 0.0
C2010 C 0.94369 0.73892 0.649 0.0
C2011 C 0.91775 0.69781 0.65558 0.0
C2012 C 0.97827 0.75006 0.63103 0.0
C2013 C 0.99677 0.79835 0.63784 0.0
N2014 N 0.93919 0.71592 0.65014 0.0
N2015 N 0.9761 0.78108 0.64469 0.0
H2016 H 0.19162 0.17236 0.62117 0.0
H2017 H 0.32568 0.23476 0.65777 0.0
H2018 H 0.23089 0.24702 0.63482 0.0
H2019 H 0.27733 0.15789 0.65725 0.0
H2020 H 0.29197 0.23986 0.64817 0.0
H2021 H 0.22359 0.16675 0.63309 0.0
C2022 C 0.20699 0.18757 0.62667 0.0
C2023 C 0.20862 0.21021 0.62697 0.0
C2024 C 0.28863 0.22188 0.65032 0.0
C2025 C 0.24532 0.20395 0.64057 0.0
C2026 C 0.30785 0.21899 0.65578 0.0
C2027 C 0.30408 0.19594 0.65863 0.0
C2028 C 0.26566 0.2015 0.64725 0.0
C2029 C 0.28082 0.17601 0.65557 0.0
C2030 C 0.22514 0.18433 0.63355 0.0
C2031 C 0.2288 0.22923 0.6344 0.0
N2032 N 0.26251 0.17924 0.64999 0.0
N2033 N 0.24645 0.22573 0.64079 0.0
H2034 H 0.75745 0.96774 0.65075 0.0
H2035 H 0.80208 0.1043 0.64109 0.0
H2036 H 0.79777 0.00571 0.61111 0.0
H2037 H 0.81832 0.0814 0.68297 0.0
H2038 H 0.79039 0.06498 0.63001 0.0
H2039 H 0.7708 0.00654 0.66315 0.0
C2040 C 0.76919 0.98404 0.64463 0.0
C2041 C 0.77626 0.98316 0.62971 0.0
C2042 C 0.79644 0.06859 0.64164 0.0
C2043 C 0.79067 0.02747 0.64377 0.0
C2044 C 0.80294 0.09088 0.64799 0.0
C2045 C 0.81111 0.09598 0.66296 0.0
C2046 C 0.79747 0.05108 0.65042 0.0
C2047 C 0.81216 0.07808 0.67137 0.0
C2048 C 0.77664 0.00615 0.65174 0.0
C2049 C 0.7911 0.00517 0.62239 0.0
N2050 N 0.80513 0.05619 0.66502 0.0
N2051 N 0.79751 0.02636 0.62942 0.0
H2052 H 0.47645 0.32471 0.746 0.0
H2053 H 0.39461 0.25673 0.67485 0.0
H2054 H 0.46007 0.36252 0.71194 0.0
H2055 H 0.38044 0.22287 0.71822 0.0
H2056 H 0.4239 0.29533 0.6867 0.0
H2057 H 0.44611 0.28663 0.73453 0.0
C2058 C 0.46643 0.32516 0.73622 0.0
C2059 C 0.47094 0.34715 0.73005 0.0
C2060 C 0.41434 0.27945 0.69361 0.0
C2061 C 0.43668 0.30334 0.71658 0.0
C2062 C 0.39786 0.25747 0.68685 0.0
C2063 C 0.38542 0.23675 0.69561 0.0
C2064 C 0.4187 0.28049 0.70916 0.0
C2065 C 0.38975 0.23859 0.71115 0.0
C2066 C 0.4492 0.30333 0.72963 0.0
C2067 C 0.45772 0.34624 0.71702 0.0
N2068 N 0.40629 0.26008 0.71745 0.0
N2069 N 0.44133 0.32473 0.71068 0.0
H2070 H 0.66875 0.15864 0.71046 0.0
H2071 H 0.76903 0.11863 0.69848 0.0
H2072 H 0.66857 0.10167 0.73597 0.0
H2073 H 0.78816 0.19299 0.69581 0.0
H2074 H 0.72743 0.10814 0.70651 0.0
H2075 H 0.70827 0.16761 0.69926 0.0
C2076 C 0.67695 0.14792 0.71357 0.0
C2077 C 0.66556 0.12949 0.72419 0.0
C2078 C 0.74063 0.12669 0.70394 0.0
C2079 C 0.71025 0.13936 0.71135 0.0
C2080 C 0.76418 0.1326 0.69925 0.0
C2081 C 0.7816 0.15655 0.6961 0.0
C2082 C 0.73452 0.14486 0.70542 0.0
C2083 C 0.77491 0.17424 0.6978 0.0
C2084 C 0.69945 0.15309 0.70726 0.0
C2085 C 0.67691 0.11614 0.72791 0.0
N2086 N 0.75177 0.16803 0.70223 0.0
N2087 N 0.69857 0.12125 0.72145 0.0
H2088 H 0.93156 0.5731 0.72174 0.0
H2089 H 0.82256 0.58723 0.68716 0.0
H2090 H 0.85546 0.51956 0.72813 0.0
H2091 H 0.89262 0.6481 0.69988 0.0
H2092 H 0.83541 0.56035 0.69827 0.0
H2093 H 0.91859 0.59926 0.70974 0.0
C2094 C 0.91213 0.56687 0.72055 0.0
C2095 C 0.89451 0.54426 0.72595 0.0
C2096 C 0.84789 0.5796 0.69861 0.0
C2097 C 0.87961 0.57383 0.71217 0.0
C2098 C 0.84066 0.59493 0.69223 0.0
C2099 C 0.85654 0.61995 0.69265 0.0
C2100 C 0.87129 0.58938 0.7052 0.0
C2101 C 0.87973 0.62896 0.69939 0.0
C2102 C 0.90476 0.58179 0.71378 0.0
C2103 C 0.86956 0.537 0.72421 0.0
N2104 N 0.88647 0.61368 0.70533 0.0
N2105 N 0.86281 0.5517 0.71738 0.0
H2106 H 0.50762 0.98896 0.19203 0.0
H2107 H 0.48292 0.98091 0.10366 0.0
H2108 H 0.46074 0.92127 0.16959 0.0
H2109 H 0.54963 0.03691 0.12429 0.0
H2110 H 0.47134 0.96011 0.12781 0.0
H2111 H 0.51958 0.00859 0.16748 0.0
C2112 C 0.49974 0.97826 0.18193 0.0
C2113 C 0.48316 0.95345 0.18286 0.0
C2114 C 0.48852 0.97694 0.12698 0.0
C2115 C 0.49669 0.97582 0.1547 0.0
C2116 C 0.49529 0.98882 0.11315 0.0
C2117 C 0.51732 0.01094 0.11178 0.0
C2118 C 0.50365 0.98735 0.13966 0.0
C2119 C 0.5322 0.0203 0.12472 0.0
C2120 C 0.50669 0.98944 0.16792 0.0
C2121 C 0.4737 0.94042 0.16937 0.0
N2122 N 0.52501 0.0086 0.13807 0.0
N2123 N 0.48045 0.95178 0.15586 0.0
H2124 H 0.99256 0.50566 0.18927 0.0
H2125 H 0.99777 0.48278 0.10154 0.0
H2126 H 0.05836 0.51632 0.16733 0.0
H2127 H 0.94907 0.50571 0.11984 0.0
H2128 H 0.0164 0.48798 0.12636 0.0
H2129 H 0.97228 0.49822 0.16457 0.0
C2130 C 1.00262 0.50622 0.17925 0.0
C2131 C 0.02714 0.51166 0.18026 0.0
C2132 C 1.00161 0.49184 0.1249 0.0
C2133 C 0.00415 0.50305 0.15216 0.0
C2134 C 0.99104 0.48906 0.11069 0.0
C2135 C 0.97192 0.49409 0.10843 0.0
C2136 C 0.9928 0.4993 0.13706 0.0
C2137 C 0.96354 0.50137 0.12098 0.0
C2138 C 0.99113 0.50214 0.1652 0.0
C2139 C 0.03948 0.51236 0.16697 0.0
N2140 N 0.974 0.50372 0.13475 0.0
N2141 N 0.02782 0.508 0.15346 0.0
H2142 H 0.51697 0.5436 0.17838 0.0
H2143 H 0.47829 0.45643 0.10614 0.0
H2144 H 0.44793 0.47685 0.17511 0.0
H2145 H 0.55164 0.5153 0.11444 0.0
H2146 H 0.46514 0.46572 0.13004 0.0
H2147 H 0.52838 0.53534 0.15381 0.0
C2148 C 0.50422 0.52711 0.17257 0.0
C2149 C 0.4815 0.5108 0.179 0.0
C2150 C 0.48409 0.47661 0.1266 0.0
C2151 C 0.49439 0.50143 0.15053 0.0
C2152 C 0.49157 0.47141 0.11292 0.0
C2153 C 0.51615 0.485 0.10833 0.0
C2154 C 0.50127 0.4957 0.13568 0.0
C2155 C 0.5326 0.50412 0.11763 0.0
C2156 C 0.51072 0.52248 0.15845 0.0
C2157 C 0.46555 0.49007 0.17062 0.0
N2158 N 0.52488 0.50887 0.13082 0.0
N2159 N 0.47231 0.48595 0.15685 0.0
H2160 H 0.97463 0.51151 0.84042 0.0
H2161 H 0.03962 0.46802 0.89993 0.0
H2162 H 0.98537 0.45085 0.83291 0.0
H2163 H 0.01506 0.51814 0.9109 0.0
H2164 H 0.02299 0.46398 0.87451 0.0
H2165 H 0.99195 0.51626 0.86568 0.0
C2166 C 0.98048 0.49909 0.84409 0.0
C2167 C 0.97851 0.48074 0.83447 0.0
C2168 C 0.02123 0.47587 0.88248 0.0
C2169 C 0.99875 0.48636 0.86331 0.0
C2170 C 0.03087 0.4783 0.89694 0.0
C2171 C 0.02868 0.49342 0.90753 0.0
C2172 C 0.00947 0.48878 0.87852 0.0
C2173 C 0.0169 0.50609 0.90313 0.0
C2174 C 0.99049 0.50191 0.85849 0.0
C2175 C 0.98685 0.46549 0.83979 0.0
N2176 N 0.00777 0.50353 0.88894 0.0
N2177 N 0.99662 0.46867 0.85383 0.0
H2178 H 0.52218 0.51205 0.83235 0.0
H2179 H 0.48852 0.46452 0.9165 0.0
H2180 H 0.53927 0.46035 0.85136 0.0
H2181 H 0.49094 0.52946 0.90128 0.0
H2182 H 0.50541 0.46156 0.89239 0.0
H2183 H 0.50912 0.51771 0.85716 0.0
C2184 C 0.52347 0.50206 0.84173 0.0
C2185 C 0.5318 0.48559 0.83964 0.0
C2186 C 0.50233 0.47651 0.89436 0.0
C2187 C 0.51629 0.49166 0.86812 0.0
C2188 C 0.49279 0.47831 0.90818 0.0
C2189 C 0.48817 0.49726 0.91101 0.0
C2190 C 0.50713 0.49363 0.88316 0.0
C2191 C 0.4937 0.51427 0.89958 0.0
C2192 C 0.51584 0.50521 0.8559 0.0
C2193 C 0.53255 0.47288 0.85228 0.0
N2194 N 0.50274 0.51198 0.88617 0.0
N2195 N 0.52476 0.47607 0.86591 0.0
H2196 H 0.55385 0.03772 0.83378 0.0
H2197 H 0.48395 0.01623 0.91213 0.0
H2198 H 0.49943 0.05876 0.84127 0.0
H2199 H 0.51264 0.97142 0.89652 0.0
H2200 H 0.49496 0.03723 0.8879 0.0
H2201 H 0.54439 0.01844 0.85851 0.0
C2202 C 0.54002 0.0384 0.84068 0.0
C2203 C 0.52735 0.04979 0.83546 0.0
C2204 C 0.49886 0.02282 0.88981 0.0
C2205 C 0.51657 0.02795 0.86378 0.0
C2206 C 0.49272 0.01095 0.90364 0.0
C2207 C 0.49731 0.99201 0.90629 0.0
C2208 C 0.51009 0.01601 0.87867 0.0
C2209 C 0.50858 0.98578 0.89487 0.0
C2210 C 0.53454 0.0273 0.85473 0.0
C2211 C 0.50947 0.04999 0.84482 0.0
N2212 N 0.51469 0.99781 0.8816 0.0
N2213 N 0.50469 0.03935 0.85856 0.0
H2214 H 0.1256 0.25163 0.50279 0.0
H2215 H 0.21967 0.36758 0.45668 0.0
H2216 H 0.17486 0.31974 0.52403 0.0
H2217 H 0.15109 0.31282 0.4372 0.0
H2218 H 0.20696 0.34742 0.48086 0.0
H2219 H 0.13816 0.27094 0.47806 0.0
C2220 C 0.1391 0.27062 0.50224 0.0
C2221 C 0.14915 0.28414 0.51548 0.0
C2222 C 0.19471 0.33984 0.47128 0.0
C2223 C 0.16378 0.3062 0.48729 0.0
C2224 C 0.20187 0.35142 0.45742 0.0
C2225 C 0.18636 0.34221 0.44474 0.0
C2226 C 0.17203 0.31855 0.47256 0.0
C2227 C 0.16387 0.32062 0.4465 0.0
C2228 C 0.14616 0.28162 0.48815 0.0
C2229 C 0.16649 0.30871 0.51412 0.0
N2230 N 0.15742 0.30954 0.46012 0.0
N2231 N 0.17337 0.31889 0.5003 0.0
H2232 H 0.65041 0.82088 0.52289 0.0
H2233 H 0.67598 0.86222 0.43683 0.0
H2234 H 0.72128 0.87407 0.50595 0.0
H2235 H 0.60655 0.8043 0.45244 0.0
H2236 H 0.69259 0.86703 0.46223 0.0
H2237 H 0.63373 0.81461 0.49732 0.0
C2238 C 0.66251 0.83113 0.5138 0.0
C2239 C 0.68728 0.84812 0.51663 0.0
C2240 C 0.67373 0.85323 0.46012 0.0
C2241 C 0.66822 0.84123 0.48733 0.0
C2242 C 0.66425 0.85037 0.44557 0.0
C2243 C 0.63982 0.83276 0.44244 0.0
C2244 C 0.65869 0.83843 0.47171 0.0
C2245 C 0.62539 0.8183 0.45434 0.0
C2246 C 0.65294 0.82764 0.49921 0.0
C2247 C 0.70198 0.86109 0.50439 0.0
N2248 N 0.63504 0.82146 0.46843 0.0
N2249 N 0.69223 0.85741 0.49032 0.0
H2250 H 0.17975 0.84155 0.52389 0.0
H2251 H 0.14594 0.81698 0.43659 0.0
H2252 H 0.12158 0.8492 0.50359 0.0
H2253 H 0.21677 0.8342 0.45466 0.0
H2254 H 0.13437 0.8245 0.46141 0.0
H2255 H 0.19109 0.83429 0.49898 0.0
C2256 C 0.1694 0.84185 0.51423 0.0
C2257 C 0.14971 0.84618 0.51595 0.0
C2258 C 0.15245 0.82665 0.4599 0.0
C2259 C 0.16239 0.83731 0.48732 0.0
C2260 C 0.15917 0.82251 0.44569 0.0
C2261 C 0.18244 0.82493 0.44341 0.0
C2262 C 0.16896 0.83301 0.47202 0.0
C2263 C 0.19849 0.83164 0.45583 0.0
C2264 C 0.17585 0.83757 0.5 0.0
C2265 C 0.13667 0.84566 0.50294 0.0
N2266 N 0.19142 0.83535 0.46957 0.0
N2267 N 0.14322 0.84128 0.4892 0.0
H2268 H 0.66705 0.85576 0.16886 0.0
H2269 H 0.67224 0.79418 0.24495 0.0
H2270 H 0.64037 0.77957 0.17175 0.0
H2271 H 0.72624 0.86749 0.23455 0.0
H2272 H 0.65579 0.78898 0.21929 0.0
H2273 H 0.68464 0.86111 0.19425 0.0
C2274 C 0.66491 0.8402 0.17487 0.0
C2275 C 0.65235 0.81721 0.16827 0.0
C2276 C 0.67129 0.80617 0.22263 0.0
C2277 C 0.67203 0.82311 0.19719 0.0
C2278 C 0.68057 0.80916 0.23724 0.0
C2279 C 0.7006 0.83127 0.24178 0.0
C2280 C 0.68183 0.82558 0.21262 0.0
C2281 C 0.71087 0.85012 0.23139 0.0
C2282 C 0.67501 0.84326 0.18927 0.0
C2283 C 0.65012 0.7976 0.17644 0.0
N2284 N 0.70123 0.84692 0.2173 0.0
N2285 N 0.65969 0.80095 0.19055 0.0
H2286 H 0.22158 0.85602 0.16669 0.0
H2287 H 0.14937 0.80052 0.24307 0.0
H2288 H 0.17034 0.78004 0.17193 0.0
H2289 H 0.17447 0.87385 0.23015 0.0
H2290 H 0.16237 0.79324 0.21852 0.0
H2291 H 0.20945 0.86344 0.19135 0.0
C2292 C 0.20771 0.84087 0.17292 0.0
C2293 C 0.19698 0.81732 0.16705 0.0
C2294 C 0.16502 0.81092 0.22107 0.0
C2295 C 0.18354 0.82577 0.19557 0.0
C2296 C 0.15775 0.81511 0.23508 0.0
C2297 C 0.16079 0.83779 0.2386 0.0
C2298 C 0.1758 0.82967 0.2106 0.0
C2299 C 0.17159 0.85604 0.22781 0.0
C2300 C 0.20092 0.84516 0.18706 0.0
C2301 C 0.17953 0.79846 0.17597 0.0
N2302 N 0.17883 0.85163 0.21433 0.0
N2303 N 0.17344 0.80309 0.18977 0.0
H2304 H 0.15506 0.34118 0.15956 0.0
H2305 H 0.19066 0.34738 0.24627 0.0
H2306 H 0.21254 0.40611 0.18042 0.0
H2307 H 0.11965 0.29531 0.22817 0.0
H2308 H 0.20124 0.3676 0.22192 0.0
H2309 H 0.14427 0.32235 0.18421 0.0
C2310 C 0.16535 0.35163 0.16928 0.0
C2311 C 0.18471 0.37547 0.16776 0.0
C2312 C 0.18334 0.35177 0.22333 0.0
C2313 C 0.17267 0.35355 0.19616 0.0
C2314 C 0.17717 0.34024 0.23728 0.0
C2315 C 0.15418 0.31942 0.2394 0.0
C2316 C 0.16657 0.34231 0.2113 0.0
C2317 C 0.13777 0.31092 0.22711 0.0
C2318 C 0.15921 0.34075 0.18339 0.0
C2319 C 0.1977 0.38765 0.18088 0.0
N2320 N 0.14433 0.32228 0.21363 0.0
N2321 N 0.1915 0.37655 0.19448 0.0
H2322 H 0.77787 0.61384 0.84308 0.0
H2323 H 0.88915 0.68715 0.78625 0.0
H2324 H 0.85051 0.62419 0.84975 0.0
H2325 H 0.81353 0.66011 0.77355 0.0
H2326 H 0.87551 0.66655 0.81034 0.0
H2327 H 0.79071 0.63319 0.81842 0.0
C2328 C 0.79653 0.62024 0.83939 0.0
C2329 C 0.81311 0.61732 0.84851 0.0
C2330 C 0.86186 0.66502 0.80229 0.0
C2331 C 0.82794 0.63953 0.82031 0.0
C2332 C 0.86965 0.67688 0.78854 0.0
C2333 C 0.85246 0.67543 0.77786 0.0
C2334 C 0.83665 0.65177 0.80555 0.0
C2335 C 0.8274 0.66159 0.78141 0.0
C2336 C 0.8038 0.63114 0.82527 0.0
C2337 C 0.83701 0.62579 0.84306 0.0
N2338 N 0.82025 0.65046 0.79498 0.0
N2339 N 0.84371 0.63658 0.8294 0.0
H2340 H 0.3642 0.15396 0.84459 0.0
H2341 H 0.29252 0.19093 0.7857 0.0
H2342 H 0.34845 0.21128 0.85245 0.0
H2343 H 0.32219 0.14516 0.77414 0.0
H2344 H 0.30939 0.19558 0.8111 0.0
H2345 H 0.34533 0.14745 0.81959 0.0
C2346 C 0.35662 0.16506 0.84109 0.0
C2347 C 0.35797 0.18324 0.85059 0.0
C2348 C 0.3122 0.18451 0.80302 0.0
C2349 C 0.33644 0.17596 0.82202 0.0
C2350 C 0.30245 0.18173 0.78855 0.0
C2351 C 0.30598 0.16765 0.77779 0.0
C2352 C 0.32544 0.17298 0.80682 0.0
C2353 C 0.31927 0.15638 0.78204 0.0
C2354 C 0.346 0.16144 0.8268 0.0
C2355 C 0.34808 0.19726 0.84542 0.0
N2356 N 0.32847 0.15924 0.79624 0.0
N2357 N 0.3377 0.1933 0.83151 0.0
H2358 H 0.78345 0.13718 0.84566 0.0
H2359 H 0.8489 0.17889 0.76558 0.0
H2360 H 0.83219 0.21185 0.83514 0.0
H2361 H 0.82696 0.10937 0.78452 0.0
H2362 H 0.83653 0.19038 0.78907 0.0
H2363 H 0.79293 0.12576 0.82127 0.0
C2364 C 0.796 0.15117 0.83815 0.0
C2365 C 0.80711 0.17549 0.84245 0.0
C2366 C 0.83435 0.17259 0.78803 0.0
C2367 C 0.81792 0.16257 0.81449 0.0
C2368 C 0.84124 0.166 0.77463 0.0
C2369 C 0.83902 0.1432 0.77317 0.0
C2370 C 0.82475 0.15609 0.79991 0.0
C2371 C 0.82914 0.12719 0.78525 0.0
C2372 C 0.80149 0.14465 0.82429 0.0
C2373 C 0.8234 0.19288 0.83232 0.0
N2374 N 0.8223 0.1339 0.79807 0.0
N2375 N 0.82825 0.1861 0.81879 0.0
H2376 H 0.32493 0.18868 0.50312 0.0
H2377 H 0.33761 0.13343 0.58012 0.0
H2378 H 0.30211 0.11348 0.50748 0.0
H2379 H 0.38812 0.20695 0.56795 0.0
H2380 H 0.31961 0.12605 0.55477 0.0
H2381 H 0.34366 0.19619 0.52829 0.0
C2382 C 0.32385 0.17378 0.50942 0.0
C2383 C 0.31207 0.15046 0.50328 0.0
C2384 C 0.33469 0.14376 0.55765 0.0
C2385 C 0.33308 0.15881 0.53196 0.0
C2386 C 0.34484 0.14799 0.57208 0.0
C2387 C 0.36436 0.17079 0.57604 0.0
C2388 C 0.3438 0.16261 0.54724 0.0
C2389 C 0.3732 0.18907 0.56525 0.0
C2390 C 0.33461 0.17808 0.52369 0.0
C2391 C 0.31122 0.13175 0.51181 0.0
N2392 N 0.36271 0.18465 0.55135 0.0
N2393 N 0.32143 0.13629 0.52579 0.0
H2394 H 0.83518 0.10986 0.50785 0.0
H2395 H 0.84856 0.20748 0.56869 0.0
H2396 H 0.88988 0.18521 0.50457 0.0
H2397 H 0.81319 0.13163 0.57835 0.0
H2398 H 0.86144 0.19976 0.5443 0.0
H2399 H 0.82465 0.11749 0.5329 0.0
C2400 C 0.84519 0.12798 0.51239 0.0
C2401 C 0.86356 0.14689 0.50395 0.0
C2402 C 0.85098 0.18482 0.55178 0.0
C2403 C 0.85102 0.1558 0.53264 0.0
C2404 C 0.84352 0.1892 0.56566 0.0
C2405 C 0.82973 0.17015 0.57554 0.0
C2406 C 0.8443 0.16117 0.54761 0.0
C2407 C 0.82393 0.14684 0.57111 0.0
C2408 C 0.83903 0.13232 0.5267 0.0
C2409 C 0.87534 0.17008 0.51044 0.0
N2410 N 0.83106 0.14297 0.55742 0.0
N2411 N 0.86879 0.17388 0.52433 0.0
H2412 H 0.83025 0.67897 0.49243 0.0
H2413 H 0.86185 0.6865 0.58 0.0
H2414 H 0.88648 0.74447 0.51345 0.0
H2415 H 0.79253 0.63319 0.56058 0.0
H2416 H 0.87354 0.70669 0.55563 0.0
H2417 H 0.81888 0.66036 0.51709 0.0
C2418 C 0.84014 0.6896 0.5022 0.0
C2419 C 0.85925 0.71356 0.50072 0.0
C2420 C 0.85577 0.69059 0.55676 0.0
C2421 C 0.84654 0.69188 0.52919 0.0
C2422 C 0.84897 0.67908 0.57072 0.0
C2423 C 0.82615 0.65789 0.57247 0.0
C2424 C 0.8398 0.68075 0.54437 0.0
C2425 C 0.81052 0.64908 0.55982 0.0
C2426 C 0.83368 0.67883 0.51632 0.0
C2427 C 0.87179 0.72594 0.5139 0.0
N2428 N 0.81769 0.66043 0.54636 0.0
N2429 N 0.86524 0.71497 0.52755 0.0
loop_
_geom_bond_atom_site_label_1
_geom_bond_atom_site_label_2
_geom_bond_distance
_geom_bond_site_symmetry_2
_ccdc_geom_bond_type
C0 C1 1.386 . S
C0 C2 1.397 . S
C0 H24 0.931 . S
C1 C0 1.386 . S
C1 C5 1.397 . S
C2 C0 1.397 . S
C2 C3 1.384 . S
C2 H25 0.930 . S
C3 C2 1.384 . S
C3 C4 1.377 . S
C3 C6 1.481 . S
C4 C3 1.377 . S
C4 C5 1.389 . S
C4 H26 0.929 . S
C5 C1 1.397 . S
C5 C4 1.389 . S
C5 H27 0.931 . S
C6 C3 1.481 . S
C6 C7 1.387 . S
C6 C11 1.390 . S
C7 C6 1.387 . S
C7 C8 1.401 . S
C7 H28 0.930 . S
C8 C7 1.401 . S
C8 C9 1.376 . S
C8 C17 1.511 . S
C9 C8 1.376 . S
C9 C10 1.392 . S
C9 H30 0.931 . S
C10 C9 1.392 . S
C10 C11 1.361 . S
C10 C12 1.500 . S
C11 C6 1.390 . S
C11 C10 1.361 . S
C11 H29 0.931 . S
C12 C10 1.500 . S
C12 C13 1.371 . S
C12 C14 1.365 . S
C13 C12 1.371 . S
C13 C23 1.386 . S
C13 H31 0.931 . S
C14 C12 1.365 . S
C14 C15 1.409 . S
C14 H32 0.929 . S
C15 C14 1.409 . S
C15 C16 1.380 . S
C15 H33 0.930 . S
C16 C15 1.380 . S
C16 C23 1.357 . S
C17 C8 1.511 . S
C17 C18 1.341 . S
C17 C19 1.371 . S
C18 C17 1.341 . S
C18 C22 1.394 . S
C18 H34 0.930 . S
C19 C17 1.371 . S
C19 C20 1.392 . S
C19 H35 0.931 . S
C20 C19 1.392 . S
C20 C21 1.331 . S
C20 H38 0.932 . S
C21 C20 1.331 . S
C21 C22 1.336 . S
C22 C18 1.394 . S
C22 C21 1.336 . S
C22 H37 0.929 . S
C23 C13 1.386 . S
C23 C16 1.357 . S
C23 H36 0.928 . S
H24 C0 0.931 . S
H25 C2 0.930 . S
H26 C4 0.929 . S
H27 C5 0.931 . S
H28 C7 0.930 . S
H29 C11 0.931 . S
H30 C9 0.931 . S
H31 C13 0.931 . S
H32 C14 0.929 . S
H33 C15 0.930 . S
H34 C18 0.930 . S
H35 C19 0.931 . S
H36 C23 0.928 . S
H37 C22 0.929 . S
H38 C20 0.932 . S
C39 C40 1.386 . S
C39 C41 1.397 . S
C39 H63 0.931 . S
C40 C39 1.386 . S
C40 C44 1.397 . S
C41 C39 1.397 . S
C41 C42 1.384 . S
C41 H64 0.930 . S
C42 C41 1.384 . S
C42 C43 1.377 . S
C42 C45 1.481 . S
C43 C42 1.377 . S
C43 C44 1.389 . S
C43 H65 0.929 . S
C44 C40 1.397 . S
C44 C43 1.389 . S
C44 H66 0.931 . S
C45 C42 1.481 . S
C45 C46 1.387 . S
C45 C50 1.390 . S
C46 C45 1.387 . S
C46 C47 1.401 . S
C46 H67 0.930 . S
C47 C46 1.401 . S
C47 C48 1.376 . S
C47 C56 1.511 . S
C48 C47 1.376 . S
C48 C49 1.392 . S
C48 H69 0.931 . S
C49 C48 1.392 . S
C49 C50 1.361 . S
C49 C51 1.500 . S
C50 C45 1.390 . S
C50 C49 1.361 . S
C50 H68 0.931 . S
C51 C49 1.500 . S
C51 C52 1.371 . S
C51 C53 1.365 . S
C52 C51 1.371 . S
C52 C62 1.386 . S
C52 H70 0.931 . S
C53 C51 1.365 . S
C53 C54 1.409 . S
C53 H71 0.929 . S
C54 C53 1.409 . S
C54 C55 1.380 . S
C54 H72 0.930 . S
C55 C54 1.380 . S
C55 C62 1.357 . S
C56 C47 1.511 . S
C56 C57 1.341 . S
C56 C58 1.371 . S
C57 C56 1.341 . S
C57 C61 1.394 . S
C57 H73 0.930 . S
C58 C56 1.371 . S
C58 C59 1.392 . S
C58 H74 0.931 . S
C59 C58 1.392 . S
C59 C60 1.331 . S
C59 H77 0.932 . S
C60 C59 1.331 . S
C60 C61 1.336 . S
C61 C57 1.394 . S
C61 C60 1.336 . S
C61 H76 0.929 . S
C62 C52 1.386 . S
C62 C55 1.357 . S
C62 H75 0.928 . S
H63 C39 0.931 . S
H64 C41 0.930 . S
H65 C43 0.929 . S
H66 C44 0.931 . S
H67 C46 0.930 . S
H68 C50 0.931 . S
H69 C48 0.931 . S
H70 C52 0.931 . S
H71 C53 0.929 . S
H72 C54 0.930 . S
H73 C57 0.930 . S
H74 C58 0.931 . S
H75 C62 0.928 . S
H76 C61 0.929 . S
H77 C59 0.932 . S
C78 C79 1.386 . S
C78 C80 1.397 . S
C78 H102 0.931 . S
C79 C78 1.386 . S
C79 C83 1.397 . S
C80 C78 1.397 . S
C80 C81 1.384 . S
C80 H103 0.930 . S
C81 C80 1.384 . S
C81 C82 1.377 . S
C81 C84 1.481 . S
C82 C81 1.377 . S
C82 C83 1.389 . S
C82 H104 0.929 . S
C83 C79 1.397 . S
C83 C82 1.389 . S
C83 H105 0.931 . S
C84 C81 1.481 . S
C84 C85 1.387 . S
C84 C89 1.390 . S
C85 C84 1.387 . S
C85 C86 1.401 . S
C85 H106 0.930 . S
C86 C85 1.401 . S
C86 C87 1.376 . S
C86 C95 1.511 . S
C87 C86 1.376 . S
C87 C88 1.392 . S
C87 H108 0.931 . S
C88 C87 1.392 . S
C88 C89 1.361 . S
C88 C90 1.500 . S
C89 C84 1.390 . S
C89 C88 1.361 . S
C89 H107 0.931 . S
C90 C88 1.500 . S
C90 C91 1.371 . S
C90 C92 1.365 . S
C91 C90 1.371 . S
C91 C101 1.386 . S
C91 H109 0.931 . S
C92 C90 1.365 . S
C92 C93 1.409 . S
C92 H110 0.929 . S
C93 C92 1.409 . S
C93 C94 1.380 . S
C93 H111 0.930 . S
C94 C93 1.380 . S
C94 C101 1.357 . S
C95 C86 1.511 . S
C95 C96 1.341 . S
C95 C97 1.371 . S
C96 C95 1.341 . S
C96 C100 1.394 . S
C96 H112 0.930 . S
C97 C95 1.371 . S
C97 C98 1.392 . S
C97 H113 0.931 . S
C98 C97 1.392 . S
C98 C99 1.331 . S
C98 H116 0.932 . S
C99 C98 1.331 . S
C99 C100 1.336 . S
C100 C96 1.394 . S
C100 C99 1.336 . S
C100 H115 0.929 . S
C101 C91 1.386 . S
C101 C94 1.357 . S
C101 H114 0.928 . S
H102 C78 0.931 . S
H103 C80 0.930 . S
H104 C82 0.929 . S
H105 C83 0.931 . S
H106 C85 0.930 . S
H107 C89 0.931 . S
H108 C87 0.931 . S
H109 C91 0.931 . S
H110 C92 0.929 . S
H111 C93 0.930 . S
H112 C96 0.930 . S
H113 C97 0.931 . S
H114 C101 0.928 . S
H115 C100 0.929 . S
H116 C98 0.932 . S
C117 C118 1.386 . S
C117 C119 1.397 . S
C117 H141 0.931 . S
C118 C117 1.386 . S
C118 C122 1.397 . S
C119 C117 1.397 . S
C119 C120 1.384 . S
C119 H142 0.930 . S
C120 C119 1.384 . S
C120 C121 1.377 . S
C120 C123 1.481 . S
C121 C120 1.377 . S
C121 C122 1.389 . S
C121 H143 0.929 . S
C122 C118 1.397 . S
C122 C121 1.389 . S
C122 H144 0.931 . S
C123 C120 1.481 . S
C123 C124 1.387 . S
C123 C128 1.390 . S
C124 C123 1.387 . S
C124 C125 1.401 . S
C124 H145 0.930 . S
C125 C124 1.401 . S
C125 C126 1.376 . S
C125 C134 1.511 . S
C126 C125 1.376 . S
C126 C127 1.392 . S
C126 H147 0.931 . S
C127 C126 1.392 . S
C127 C128 1.361 . S
C127 C129 1.500 . S
C128 C123 1.390 . S
C128 C127 1.361 . S
C128 H146 0.931 . S
C129 C127 1.500 . S
C129 C130 1.371 . S
C129 C131 1.365 . S
C130 C129 1.371 . S
C130 C140 1.386 . S
C130 H148 0.931 . S
C131 C129 1.365 . S
C131 C132 1.409 . S
C131 H149 0.929 . S
C132 C131 1.409 . S
C132 C133 1.380 . S
C132 H150 0.930 . S
C133 C132 1.380 . S
C133 C140 1.357 . S
C134 C125 1.511 . S
C134 C135 1.341 . S
C134 C136 1.371 . S
C135 C134 1.341 . S
C135 C139 1.394 . S
C135 H151 0.930 . S
C136 C134 1.371 . S
C136 C137 1.392 . S
C136 H152 0.931 . S
C137 C136 1.392 . S
C137 C138 1.331 . S
C137 H155 0.932 . S
C138 C137 1.331 . S
C138 C139 1.336 . S
C139 C135 1.394 . S
C139 C138 1.336 . S
C139 H154 0.929 . S
C140 C130 1.386 . S
C140 C133 1.357 . S
C140 H153 0.928 . S
H141 C117 0.931 . S
H142 C119 0.930 . S
H143 C121 0.929 . S
H144 C122 0.931 . S
H145 C124 0.930 . S
H146 C128 0.931 . S
H147 C126 0.931 . S
H148 C130 0.931 . S
H149 C131 0.929 . S
H150 C132 0.930 . S
H151 C135 0.930 . S
H152 C136 0.931 . S
H153 C140 0.928 . S
H154 C139 0.929 . S
H155 C137 0.932 . S
C156 C157 1.386 . S
C156 C158 1.397 . S
C156 H180 0.931 . S
C157 C156 1.386 . S
C157 C161 1.397 . S
C158 C156 1.397 . S
C158 C159 1.384 . S
C158 H181 0.930 . S
C159 C158 1.384 . S
C159 C160 1.377 . S
C159 C162 1.481 . S
C160 C159 1.377 . S
C160 C161 1.389 . S
C160 H182 0.929 . S
C161 C157 1.397 . S
C161 C160 1.389 . S
C161 H183 0.931 . S
C162 C159 1.481 . S
C162 C163 1.387 . S
C162 C167 1.390 . S
C163 C162 1.387 . S
C163 C164 1.401 . S
C163 H184 0.930 . S
C164 C163 1.401 . S
C164 C165 1.376 . S
C164 C173 1.511 . S
C165 C164 1.376 . S
C165 C166 1.392 . S
C165 H186 0.931 . S
C166 C165 1.392 . S
C166 C167 1.361 . S
C166 C168 1.500 . S
C167 C162 1.390 . S
C167 C166 1.361 . S
C167 H185 0.931 . S
C168 C166 1.500 . S
C168 C169 1.371 . S
C168 C170 1.365 . S
C169 C168 1.371 . S
C169 C179 1.386 . S
C169 H187 0.931 . S
C170 C168 1.365 . S
C170 C171 1.409 . S
C170 H188 0.929 . S
C171 C170 1.409 . S
C171 C172 1.380 . S
C171 H189 0.930 . S
C172 C171 1.380 . S
C172 C179 1.357 . S
C173 C164 1.511 . S
C173 C174 1.341 . S
C173 C175 1.371 . S
C174 C173 1.341 . S
C174 C178 1.394 . S
C174 H190 0.930 . S
C175 C173 1.371 . S
C175 C176 1.392 . S
C175 H191 0.931 . S
C176 C175 1.392 . S
C176 C177 1.331 . S
C176 H194 0.932 . S
C177 C176 1.331 . S
C177 C178 1.336 . S
C178 C174 1.394 . S
C178 C177 1.336 . S
C178 H193 0.929 . S
C179 C169 1.386 . S
C179 C172 1.357 . S
C179 H192 0.928 . S
H180 C156 0.931 . S
H181 C158 0.930 . S
H182 C160 0.929 . S
H183 C161 0.931 . S
H184 C163 0.930 . S
H185 C167 0.931 . S
H186 C165 0.931 . S
H187 C169 0.931 . S
H188 C170 0.929 . S
H189 C171 0.930 . S
H190 C174 0.930 . S
H191 C175 0.931 . S
H192 C179 0.928 . S
H193 C178 0.929 . S
H194 C176 0.932 . S
C195 C196 1.386 . S
C195 C197 1.397 . S
C195 H219 0.931 . S
C196 C195 1.386 . S
C196 C200 1.397 . S
C197 C195 1.397 . S
C197 C198 1.384 . S
C197 H220 0.930 . S
C198 C197 1.384 . S
C198 C199 1.377 . S
C198 C201 1.481 . S
C199 C198 1.377 . S
C199 C200 1.389 . S
C199 H221 0.929 . S
C200 C196 1.397 . S
C200 C199 1.389 . S
C200 H222 0.931 . S
C201 C198 1.481 . S
C201 C202 1.387 . S
C201 C206 1.390 . S
C202 C201 1.387 . S
C202 C203 1.401 . S
C202 H223 0.930 . S
C203 C202 1.401 . S
C203 C204 1.376 . S
C203 C212 1.511 . S
C204 C203 1.376 . S
C204 C205 1.392 . S
C204 H225 0.931 . S
C205 C204 1.392 . S
C205 C206 1.361 . S
C205 C207 1.500 . S
C206 C201 1.390 . S
C206 C205 1.361 . S
C206 H224 0.931 . S
C207 C205 1.500 . S
C207 C208 1.371 . S
C207 C209 1.365 . S
C208 C207 1.371 . S
C208 C218 1.386 . S
C208 H226 0.931 . S
C209 C207 1.365 . S
C209 C210 1.409 . S
C209 H227 0.929 . S
C210 C209 1.409 . S
C210 C211 1.380 . S
C210 H228 0.930 . S
C211 C210 1.380 . S
C211 C218 1.357 . S
C212 C203 1.511 . S
C212 C213 1.341 . S
C212 C214 1.371 . S
C213 C212 1.341 . S
C213 C217 1.394 . S
C213 H229 0.930 . S
C214 C212 1.371 . S
C214 C215 1.392 . S
C214 H230 0.931 . S
C215 C214 1.392 . S
C215 C216 1.331 . S
C215 H233 0.932 . S
C216 C215 1.331 . S
C216 C217 1.336 . S
C217 C213 1.394 . S
C217 C216 1.336 . S
C217 H232 0.929 . S
C218 C208 1.386 . S
C218 C211 1.357 . S
C218 H231 0.928 . S
H219 C195 0.931 . S
H220 C197 0.930 . S
H221 C199 0.929 . S
H222 C200 0.931 . S
H223 C202 0.930 . S
H224 C206 0.931 . S
H225 C204 0.931 . S
H226 C208 0.931 . S
H227 C209 0.929 . S
H228 C210 0.930 . S
H229 C213 0.930 . S
H230 C214 0.931 . S
H231 C218 0.928 . S
H232 C217 0.929 . S
H233 C215 0.932 . S
C234 C235 1.386 . S
C234 C236 1.397 . S
C234 H258 0.931 . S
C235 C234 1.386 . S
C235 C239 1.397 . S
C236 C234 1.397 . S
C236 C237 1.384 . S
C236 H259 0.930 . S
C237 C236 1.384 . S
C237 C238 1.377 . S
C237 C240 1.481 . S
C238 C237 1.377 . S
C238 C239 1.389 . S
C238 H260 0.929 . S
C239 C235 1.397 . S
C239 C238 1.389 . S
C239 H261 0.931 . S
C240 C237 1.481 . S
C240 C241 1.387 . S
C240 C245 1.390 . S
C241 C240 1.387 . S
C241 C242 1.401 . S
C241 H262 0.930 . S
C242 C241 1.401 . S
C242 C243 1.376 . S
C242 C251 1.511 . S
C243 C242 1.376 . S
C243 C244 1.392 . S
C243 H264 0.931 . S
C244 C243 1.392 . S
C244 C245 1.361 . S
C244 C246 1.500 . S
C245 C240 1.390 . S
C245 C244 1.361 . S
C245 H263 0.931 . S
C246 C244 1.500 . S
C246 C247 1.371 . S
C246 C248 1.365 . S
C247 C246 1.371 . S
C247 C257 1.386 . S
C247 H265 0.931 . S
C248 C246 1.365 . S
C248 C249 1.409 . S
C248 H266 0.929 . S
C249 C248 1.409 . S
C249 C250 1.380 . S
C249 H267 0.930 . S
C250 C249 1.380 . S
C250 C257 1.357 . S
C251 C242 1.511 . S
C251 C252 1.341 . S
C251 C253 1.371 . S
C252 C251 1.341 . S
C252 C256 1.394 . S
C252 H268 0.930 . S
C253 C251 1.371 . S
C253 C254 1.392 . S
C253 H269 0.931 . S
C254 C253 1.392 . S
C254 C255 1.331 . S
C254 H272 0.932 . S
C255 C254 1.331 . S
C255 C256 1.336 . S
C256 C252 1.394 . S
C256 C255 1.336 . S
C256 H271 0.929 . S
C257 C247 1.386 . S
C257 C250 1.357 . S
C257 H270 0.928 . S
H258 C234 0.931 . S
H259 C236 0.930 . S
H260 C238 0.929 . S
H261 C239 0.931 . S
H262 C241 0.930 . S
H263 C245 0.931 . S
H264 C243 0.931 . S
H265 C247 0.931 . S
H266 C248 0.929 . S
H267 C249 0.930 . S
H268 C252 0.930 . S
H269 C253 0.931 . S
H270 C257 0.928 . S
H271 C256 0.929 . S
H272 C254 0.932 . S
C273 C274 1.386 . S
C273 C275 1.397 . S
C273 H297 0.931 . S
C274 C273 1.386 . S
C274 C278 1.397 . S
C275 C273 1.397 . S
C275 C276 1.384 . S
C275 H298 0.930 . S
C276 C275 1.384 . S
C276 C277 1.377 . S
C276 C279 1.481 . S
C277 C276 1.377 . S
C277 C278 1.389 . S
C277 H299 0.929 . S
C278 C274 1.397 . S
C278 C277 1.389 . S
C278 H300 0.931 . S
C279 C276 1.481 . S
C279 C280 1.387 . S
C279 C284 1.390 . S
C280 C279 1.387 . S
C280 C281 1.401 . S
C280 H301 0.930 . S
C281 C280 1.401 . S
C281 C282 1.376 . S
C281 C290 1.511 . S
C282 C281 1.376 . S
C282 C283 1.392 . S
C282 H303 0.931 . S
C283 C282 1.392 . S
C283 C284 1.361 . S
C283 C285 1.500 . S
C284 C279 1.390 . S
C284 C283 1.361 . S
C284 H302 0.931 . S
C285 C283 1.500 . S
C285 C286 1.371 . S
C285 C287 1.365 . S
C286 C285 1.371 . S
C286 C296 1.386 . S
C286 H304 0.931 . S
C287 C285 1.365 . S
C287 C288 1.409 . S
C287 H305 0.929 . S
C288 C287 1.409 . S
C288 C289 1.380 . S
C288 H306 0.930 . S
C289 C288 1.380 . S
C289 C296 1.357 . S
C290 C281 1.511 . S
C290 C291 1.341 . S
C290 C292 1.371 . S
C291 C290 1.341 . S
C291 C295 1.394 . S
C291 H307 0.930 . S
C292 C290 1.371 . S
C292 C293 1.392 . S
C292 H308 0.931 . S
C293 C292 1.392 . S
C293 C294 1.331 . S
C293 H311 0.932 . S
C294 C293 1.331 . S
C294 C295 1.336 . S
C295 C291 1.394 . S
C295 C294 1.336 . S
C295 H310 0.929 . S
C296 C286 1.386 . S
C296 C289 1.357 . S
C296 H309 0.928 . S
H297 C273 0.931 . S
H298 C275 0.930 . S
H299 C277 0.929 . S
H300 C278 0.931 . S
H301 C280 0.930 . S
H302 C284 0.931 . S
H303 C282 0.931 . S
H304 C286 0.931 . S
H305 C287 0.929 . S
H306 C288 0.930 . S
H307 C291 0.930 . S
H308 C292 0.931 . S
H309 C296 0.928 . S
H310 C295 0.929 . S
H311 C293 0.932 . S
C312 C313 1.386 . S
C312 C314 1.397 . S
C312 H336 0.931 . S
C313 C312 1.386 . S
C313 C317 1.397 . S
C314 C312 1.397 . S
C314 C315 1.384 . S
C314 H337 0.930 . S
C315 C314 1.384 . S
C315 C316 1.377 . S
C315 C318 1.481 . S
C316 C315 1.377 . S
C316 C317 1.389 . S
C316 H338 0.929 . S
C317 C313 1.397 . S
C317 C316 1.389 . S
C317 H339 0.931 . S
C318 C315 1.481 . S
C318 C319 1.387 . S
C318 C323 1.390 . S
C319 C318 1.387 . S
C319 C320 1.401 . S
C319 H340 0.930 . S
C320 C319 1.401 . S
C320 C321 1.376 . S
C320 C329 1.511 . S
C321 C320 1.376 . S
C321 C322 1.392 . S
C321 H342 0.931 . S
C322 C321 1.392 . S
C322 C323 1.361 . S
C322 C324 1.500 . S
C323 C318 1.390 . S
C323 C322 1.361 . S
C323 H341 0.931 . S
C324 C322 1.500 . S
C324 C325 1.371 . S
C324 C326 1.365 . S
C325 C324 1.371 . S
C325 C335 1.386 . S
C325 H343 0.931 . S
C326 C324 1.365 . S
C326 C327 1.409 . S
C326 H344 0.929 . S
C327 C326 1.409 . S
C327 C328 1.380 . S
C327 H345 0.930 . S
C328 C327 1.380 . S
C328 C335 1.357 . S
C329 C320 1.511 . S
C329 C330 1.341 . S
C329 C331 1.371 . S
C330 C329 1.341 . S
C330 C334 1.394 . S
C330 H346 0.930 . S
C331 C329 1.371 . S
C331 C332 1.392 . S
C331 H347 0.931 . S
C332 C331 1.392 . S
C332 C333 1.331 . S
C332 H350 0.932 . S
C333 C332 1.331 . S
C333 C334 1.336 . S
C334 C330 1.394 . S
C334 C333 1.336 . S
C334 H349 0.929 . S
C335 C325 1.386 . S
C335 C328 1.357 . S
C335 H348 0.928 . S
H336 C312 0.931 . S
H337 C314 0.930 . S
H338 C316 0.929 . S
H339 C317 0.931 . S
H340 C319 0.930 . S
H341 C323 0.931 . S
H342 C321 0.931 . S
H343 C325 0.931 . S
H344 C326 0.929 . S
H345 C327 0.930 . S
H346 C330 0.930 . S
H347 C331 0.931 . S
H348 C335 0.928 . S
H349 C334 0.929 . S
H350 C332 0.932 . S
C351 C352 1.386 . S
C351 C353 1.397 . S
C351 H375 0.931 . S
C352 C351 1.386 . S
C352 C356 1.397 . S
C353 C351 1.397 . S
C353 C354 1.384 . S
C353 H376 0.930 . S
C354 C353 1.384 . S
C354 C355 1.377 . S
C354 C357 1.481 . S
C355 C354 1.377 . S
C355 C356 1.389 . S
C355 H377 0.929 . S
C356 C352 1.397 . S
C356 C355 1.389 . S
C356 H378 0.931 . S
C357 C354 1.481 . S
C357 C358 1.387 . S
C357 C362 1.390 . S
C358 C357 1.387 . S
C358 C359 1.401 . S
C358 H379 0.930 . S
C359 C358 1.401 . S
C359 C360 1.376 . S
C359 C368 1.511 . S
C360 C359 1.376 . S
C360 C361 1.392 . S
C360 H381 0.931 . S
C361 C360 1.392 . S
C361 C362 1.361 . S
C361 C363 1.500 . S
C362 C357 1.390 . S
C362 C361 1.361 . S
C362 H380 0.931 . S
C363 C361 1.500 . S
C363 C364 1.371 . S
C363 C365 1.365 . S
C364 C363 1.371 . S
C364 C374 1.386 . S
C364 H382 0.931 . S
C365 C363 1.365 . S
C365 C366 1.409 . S
C365 H383 0.929 . S
C366 C365 1.409 . S
C366 C367 1.380 . S
C366 H384 0.930 . S
C367 C366 1.380 . S
C367 C374 1.357 . S
C368 C359 1.511 . S
C368 C369 1.341 . S
C368 C370 1.371 . S
C369 C368 1.341 . S
C369 C373 1.394 . S
C369 H385 0.930 . S
C370 C368 1.371 . S
C370 C371 1.392 . S
C370 H386 0.931 . S
C371 C370 1.392 . S
C371 C372 1.331 . S
C371 H389 0.932 . S
C372 C371 1.331 . S
C372 C373 1.336 . S
C373 C369 1.394 . S
C373 C372 1.336 . S
C373 H388 0.929 . S
C374 C364 1.386 . S
C374 C367 1.357 . S
C374 H387 0.928 . S
H375 C351 0.931 . S
H376 C353 0.930 . S
H377 C355 0.929 . S
H378 C356 0.931 . S
H379 C358 0.930 . S
H380 C362 0.931 . S
H381 C360 0.931 . S
H382 C364 0.931 . S
H383 C365 0.929 . S
H384 C366 0.930 . S
H385 C369 0.930 . S
H386 C370 0.931 . S
H387 C374 0.928 . S
H388 C373 0.929 . S
H389 C371 0.932 . S
C390 C391 1.386 . S
C390 C392 1.397 . S
C390 H414 0.931 . S
C391 C390 1.386 . S
C391 C395 1.397 . S
C392 C390 1.397 . S
C392 C393 1.384 . S
C392 H415 0.930 . S
C393 C392 1.384 . S
C393 C394 1.377 . S
C393 C396 1.481 . S
C394 C393 1.377 . S
C394 C395 1.389 . S
C394 H416 0.929 . S
C395 C391 1.397 . S
C395 C394 1.389 . S
C395 H417 0.931 . S
C396 C393 1.481 . S
C396 C397 1.387 . S
C396 C401 1.390 . S
C397 C396 1.387 . S
C397 C398 1.401 . S
C397 H418 0.930 . S
C398 C397 1.401 . S
C398 C399 1.376 . S
C398 C407 1.511 . S
C399 C398 1.376 . S
C399 C400 1.392 . S
C399 H420 0.931 . S
C400 C399 1.392 . S
C400 C401 1.361 . S
C400 C402 1.500 . S
C401 C396 1.390 . S
C401 C400 1.361 . S
C401 H419 0.931 . S
C402 C400 1.500 . S
C402 C403 1.371 . S
C402 C404 1.365 . S
C403 C402 1.371 . S
C403 C413 1.386 . S
C403 H421 0.931 . S
C404 C402 1.365 . S
C404 C405 1.409 . S
C404 H422 0.929 . S
C405 C404 1.409 . S
C405 C406 1.380 . S
C405 H423 0.930 . S
C406 C405 1.380 . S
C406 C413 1.357 . S
C407 C398 1.511 . S
C407 C408 1.341 . S
C407 C409 1.371 . S
C408 C407 1.341 . S
C408 C412 1.394 . S
C408 H424 0.930 . S
C409 C407 1.371 . S
C409 C410 1.392 . S
C409 H425 0.931 . S
C410 C409 1.392 . S
C410 C411 1.331 . S
C410 H428 0.932 . S
C411 C410 1.331 . S
C411 C412 1.336 . S
C412 C408 1.394 . S
C412 C411 1.336 . S
C412 H427 0.929 . S
C413 C403 1.386 . S
C413 C406 1.357 . S
C413 H426 0.928 . S
H414 C390 0.931 . S
H415 C392 0.930 . S
H416 C394 0.929 . S
H417 C395 0.931 . S
H418 C397 0.930 . S
H419 C401 0.931 . S
H420 C399 0.931 . S
H421 C403 0.931 . S
H422 C404 0.929 . S
H423 C405 0.930 . S
H424 C408 0.930 . S
H425 C409 0.931 . S
H426 C413 0.928 . S
H427 C412 0.929 . S
H428 C410 0.932 . S
C429 C430 1.386 . S
C429 C431 1.397 . S
C429 H453 0.931 . S
C430 C429 1.386 . S
C430 C434 1.397 . S
C431 C429 1.397 . S
C431 C432 1.384 . S
C431 H454 0.930 . S
C432 C431 1.384 . S
C432 C433 1.377 . S
C432 C435 1.481 . S
C433 C432 1.377 . S
C433 C434 1.389 . S
C433 H455 0.929 . S
C434 C430 1.397 . S
C434 C433 1.389 . S
C434 H456 0.931 . S
C435 C432 1.481 . S
C435 C436 1.387 . S
C435 C440 1.390 . S
C436 C435 1.387 . S
C436 C437 1.401 . S
C436 H457 0.930 . S
C437 C436 1.401 . S
C437 C438 1.376 . S
C437 C446 1.511 . S
C438 C437 1.376 . S
C438 C439 1.392 . S
C438 H459 0.931 . S
C439 C438 1.392 . S
C439 C440 1.361 . S
C439 C441 1.500 . S
C440 C435 1.390 . S
C440 C439 1.361 . S
C440 H458 0.931 . S
C441 C439 1.500 . S
C441 C442 1.371 . S
C441 C443 1.365 . S
C442 C441 1.371 . S
C442 C452 1.386 . S
C442 H460 0.931 . S
C443 C441 1.365 . S
C443 C444 1.409 . S
C443 H461 0.929 . S
C444 C443 1.409 . S
C444 C445 1.380 . S
C444 H462 0.930 . S
C445 C444 1.380 . S
C445 C452 1.357 . S
C446 C437 1.511 . S
C446 C447 1.341 . S
C446 C448 1.371 . S
C447 C446 1.341 . S
C447 C451 1.394 . S
C447 H463 0.930 . S
C448 C446 1.371 . S
C448 C449 1.392 . S
C448 H464 0.931 . S
C449 C448 1.392 . S
C449 C450 1.331 . S
C449 H467 0.932 . S
C450 C449 1.331 . S
C450 C451 1.336 . S
C451 C447 1.394 . S
C451 C450 1.336 . S
C451 H466 0.929 . S
C452 C442 1.386 . S
C452 C445 1.357 . S
C452 H465 0.928 . S
H453 C429 0.931 . S
H454 C431 0.930 . S
H455 C433 0.929 . S
H456 C434 0.931 . S
H457 C436 0.930 . S
H458 C440 0.931 . S
H459 C438 0.931 . S
H460 C442 0.931 . S
H461 C443 0.929 . S
H462 C444 0.930 . S
H463 C447 0.930 . S
H464 C448 0.931 . S
H465 C452 0.928 . S
H466 C451 0.929 . S
H467 C449 0.932 . S
C468 C469 1.386 . S
C468 C470 1.397 . S
C468 H492 0.931 . S
C469 C468 1.386 . S
C469 C473 1.397 . S
C470 C468 1.397 . S
C470 C471 1.384 . S
C470 H493 0.930 . S
C471 C470 1.384 . S
C471 C472 1.377 . S
C471 C474 1.481 . S
C472 C471 1.377 . S
C472 C473 1.389 . S
C472 H494 0.929 . S
C473 C469 1.397 . S
C473 C472 1.389 . S
C473 H495 0.931 . S
C474 C471 1.481 . S
C474 C475 1.387 . S
C474 C479 1.390 . S
C475 C474 1.387 . S
C475 C476 1.401 . S
C475 H496 0.930 . S
C476 C475 1.401 . S
C476 C477 1.376 . S
C476 C485 1.511 . S
C477 C476 1.376 . S
C477 C478 1.392 . S
C477 H498 0.931 . S
C478 C477 1.392 . S
C478 C479 1.361 . S
C478 C480 1.500 . S
C479 C474 1.390 . S
C479 C478 1.361 . S
C479 H497 0.931 . S
C480 C478 1.500 . S
C480 C481 1.371 . S
C480 C482 1.365 . S
C481 C480 1.371 . S
C481 C491 1.386 . S
C481 H499 0.931 . S
C482 C480 1.365 . S
C482 C483 1.409 . S
C482 H500 0.929 . S
C483 C482 1.409 . S
C483 C484 1.380 . S
C483 H501 0.930 . S
C484 C483 1.380 . S
C484 C491 1.357 . S
C485 C476 1.511 . S
C485 C486 1.341 . S
C485 C487 1.371 . S
C486 C485 1.341 . S
C486 C490 1.394 . S
C486 H502 0.930 . S
C487 C485 1.371 . S
C487 C488 1.392 . S
C487 H503 0.931 . S
C488 C487 1.392 . S
C488 C489 1.331 . S
C488 H506 0.932 . S
C489 C488 1.331 . S
C489 C490 1.336 . S
C490 C486 1.394 . S
C490 C489 1.336 . S
C490 H505 0.929 . S
C491 C481 1.386 . S
C491 C484 1.357 . S
C491 H504 0.928 . S
H492 C468 0.931 . S
H493 C470 0.930 . S
H494 C472 0.929 . S
H495 C473 0.931 . S
H496 C475 0.930 . S
H497 C479 0.931 . S
H498 C477 0.931 . S
H499 C481 0.931 . S
H500 C482 0.929 . S
H501 C483 0.930 . S
H502 C486 0.930 . S
H503 C487 0.931 . S
H504 C491 0.928 . S
H505 C490 0.929 . S
H506 C488 0.932 . S
C507 C508 1.386 . S
C507 C509 1.397 . S
C507 H531 0.931 . S
C508 C507 1.386 . S
C508 C512 1.397 . S
C509 C507 1.397 . S
C509 C510 1.384 . S
C509 H532 0.930 . S
C510 C509 1.384 . S
C510 C511 1.377 . S
C510 C513 1.481 . S
C511 C510 1.377 . S
C511 C512 1.389 . S
C511 H533 0.929 . S
C512 C508 1.397 . S
C512 C511 1.389 . S
C512 H534 0.931 . S
C513 C510 1.481 . S
C513 C514 1.387 . S
C513 C518 1.390 . S
C514 C513 1.387 . S
C514 C515 1.401 . S
C514 H535 0.930 . S
C515 C514 1.401 . S
C515 C516 1.376 . S
C515 C524 1.511 . S
C516 C515 1.376 . S
C516 C517 1.392 . S
C516 H537 0.931 . S
C517 C516 1.392 . S
C517 C518 1.361 . S
C517 C519 1.500 . S
C518 C513 1.390 . S
C518 C517 1.361 . S
C518 H536 0.931 . S
C519 C517 1.500 . S
C519 C520 1.371 . S
C519 C521 1.365 . S
C520 C519 1.371 . S
C520 C530 1.386 . S
C520 H538 0.931 . S
C521 C519 1.365 . S
C521 C522 1.409 . S
C521 H539 0.929 . S
C522 C521 1.409 . S
C522 C523 1.380 . S
C522 H540 0.930 . S
C523 C522 1.380 . S
C523 C530 1.357 . S
C524 C515 1.511 . S
C524 C525 1.341 . S
C524 C526 1.371 . S
C525 C524 1.341 . S
C525 C529 1.394 . S
C525 H541 0.930 . S
C526 C524 1.371 . S
C526 C527 1.392 . S
C526 H542 0.931 . S
C527 C526 1.392 . S
C527 C528 1.331 . S
C527 H545 0.932 . S
C528 C527 1.331 . S
C528 C529 1.336 . S
C529 C525 1.394 . S
C529 C528 1.336 . S
C529 H544 0.929 . S
C530 C520 1.386 . S
C530 C523 1.357 . S
C530 H543 0.928 . S
H531 C507 0.931 . S
H532 C509 0.930 . S
H533 C511 0.929 . S
H534 C512 0.931 . S
H535 C514 0.930 . S
H536 C518 0.931 . S
H537 C516 0.931 . S
H538 C520 0.931 . S
H539 C521 0.929 . S
H540 C522 0.930 . S
H541 C525 0.930 . S
H542 C526 0.931 . S
H543 C530 0.928 . S
H544 C529 0.929 . S
H545 C527 0.932 . S
C546 C547 1.386 . S
C546 C548 1.397 . S
C546 H570 0.931 . S
C547 C546 1.386 . S
C547 C551 1.397 . S
C548 C546 1.397 . S
C548 C549 1.384 . S
C548 H571 0.930 . S
C549 C548 1.384 . S
C549 C550 1.377 . S
C549 C552 1.481 . S
C550 C549 1.377 . S
C550 C551 1.389 . S
C550 H572 0.929 . S
C551 C547 1.397 . S
C551 C550 1.389 . S
C551 H573 0.931 . S
C552 C549 1.481 . S
C552 C553 1.387 . S
C552 C557 1.390 . S
C553 C552 1.387 . S
C553 C554 1.401 . S
C553 H574 0.930 . S
C554 C553 1.401 . S
C554 C555 1.376 . S
C554 C563 1.511 . S
C555 C554 1.376 . S
C555 C556 1.392 . S
C555 H576 0.931 . S
C556 C555 1.392 . S
C556 C557 1.361 . S
C556 C558 1.500 . S
C557 C552 1.390 . S
C557 C556 1.361 . S
C557 H575 0.931 . S
C558 C556 1.500 . S
C558 C559 1.371 . S
C558 C560 1.365 . S
C559 C558 1.371 . S
C559 C569 1.386 . S
C559 H577 0.931 . S
C560 C558 1.365 . S
C560 C561 1.409 . S
C560 H578 0.929 . S
C561 C560 1.409 . S
C561 C562 1.380 . S
C561 H579 0.930 . S
C562 C561 1.380 . S
C562 C569 1.357 . S
C563 C554 1.511 . S
C563 C564 1.341 . S
C563 C565 1.371 . S
C564 C563 1.341 . S
C564 C568 1.394 . S
C564 H580 0.930 . S
C565 C563 1.371 . S
C565 C566 1.392 . S
C565 H581 0.931 . S
C566 C565 1.392 . S
C566 C567 1.331 . S
C566 H584 0.932 . S
C567 C566 1.331 . S
C567 C568 1.336 . S
C568 C564 1.394 . S
C568 C567 1.336 . S
C568 H583 0.929 . S
C569 C559 1.386 . S
C569 C562 1.357 . S
C569 H582 0.928 . S
H570 C546 0.931 . S
H571 C548 0.930 . S
H572 C550 0.929 . S
H573 C551 0.931 . S
H574 C553 0.930 . S
H575 C557 0.931 . S
H576 C555 0.931 . S
H577 C559 0.931 . S
H578 C560 0.929 . S
H579 C561 0.930 . S
H580 C564 0.930 . S
H581 C565 0.931 . S
H582 C569 0.928 . S
H583 C568 0.929 . S
H584 C566 0.932 . S
C585 C586 1.386 . S
C585 C587 1.397 . S
C585 H609 0.931 . S
C586 C585 1.386 . S
C586 C590 1.397 . S
C587 C585 1.397 . S
C587 C588 1.384 . S
C587 H610 0.930 . S
C588 C587 1.384 . S
C588 C589 1.377 . S
C588 C591 1.481 . S
C589 C588 1.377 . S
C589 C590 1.389 . S
C589 H611 0.929 . S
C590 C586 1.397 . S
C590 C589 1.389 . S
C590 H612 0.931 . S
C591 C588 1.481 . S
C591 C592 1.387 . S
C591 C596 1.390 . S
C592 C591 1.387 . S
C592 C593 1.401 . S
C592 H613 0.930 . S
C593 C592 1.401 . S
C593 C594 1.376 . S
C593 C602 1.511 . S
C594 C593 1.376 . S
C594 C595 1.392 . S
C594 H615 0.931 . S
C595 C594 1.392 . S
C595 C596 1.361 . S
C595 C597 1.500 . S
C596 C591 1.390 . S
C596 C595 1.361 . S
C596 H614 0.931 . S
C597 C595 1.500 . S
C597 C598 1.371 . S
C597 C599 1.365 . S
C598 C597 1.371 . S
C598 C608 1.386 . S
C598 H616 0.931 . S
C599 C597 1.365 . S
C599 C600 1.409 . S
C599 H617 0.929 . S
C600 C599 1.409 . S
C600 C601 1.380 . S
C600 H618 0.930 . S
C601 C600 1.380 . S
C601 C608 1.357 . S
C602 C593 1.511 . S
C602 C603 1.341 . S
C602 C604 1.371 . S
C603 C602 1.341 . S
C603 C607 1.394 . S
C603 H619 0.930 . S
C604 C602 1.371 . S
C604 C605 1.392 . S
C604 H620 0.931 . S
C605 C604 1.392 . S
C605 C606 1.331 . S
C605 H623 0.932 . S
C606 C605 1.331 . S
C606 C607 1.336 . S
C607 C603 1.394 . S
C607 C606 1.336 . S
C607 H622 0.929 . S
C608 C598 1.386 . S
C608 C601 1.357 . S
C608 H621 0.928 . S
H609 C585 0.931 . S
H610 C587 0.930 . S
H611 C589 0.929 . S
H612 C590 0.931 . S
H613 C592 0.930 . S
H614 C596 0.931 . S
H615 C594 0.931 . S
H616 C598 0.931 . S
H617 C599 0.929 . S
H618 C600 0.930 . S
H619 C603 0.930 . S
H620 C604 0.931 . S
H621 C608 0.928 . S
H622 C607 0.929 . S
H623 C605 0.932 . S
C624 C625 1.386 . S
C624 C626 1.397 . S
C624 H648 0.931 . S
C625 C624 1.386 . S
C625 C629 1.397 . S
C626 C624 1.397 . S
C626 C627 1.384 . S
C626 H649 0.930 . S
C627 C626 1.384 . S
C627 C628 1.377 . S
C627 C630 1.481 . S
C628 C627 1.377 . S
C628 C629 1.389 . S
C628 H650 0.929 . S
C629 C625 1.397 . S
C629 C628 1.389 . S
C629 H651 0.931 . S
C630 C627 1.481 . S
C630 C631 1.387 . S
C630 C635 1.390 . S
C631 C630 1.387 . S
C631 C632 1.401 . S
C631 H652 0.930 . S
C632 C631 1.401 . S
C632 C633 1.376 . S
C632 C641 1.511 . S
C633 C632 1.376 . S
C633 C634 1.392 . S
C633 H654 0.931 . S
C634 C633 1.392 . S
C634 C635 1.361 . S
C634 C636 1.500 . S
C635 C630 1.390 . S
C635 C634 1.361 . S
C635 H653 0.931 . S
C636 C634 1.500 . S
C636 C637 1.371 . S
C636 C638 1.365 . S
C637 C636 1.371 . S
C637 C647 1.386 . S
C637 H655 0.931 . S
C638 C636 1.365 . S
C638 C639 1.409 . S
C638 H656 0.929 . S
C639 C638 1.409 . S
C639 C640 1.380 . S
C639 H657 0.930 . S
C640 C639 1.380 . S
C640 C647 1.357 . S
C641 C632 1.511 . S
C641 C642 1.341 . S
C641 C643 1.371 . S
C642 C641 1.341 . S
C642 C646 1.394 . S
C642 H658 0.930 . S
C643 C641 1.371 . S
C643 C644 1.392 . S
C643 H659 0.931 . S
C644 C643 1.392 . S
C644 C645 1.331 . S
C644 H662 0.932 . S
C645 C644 1.331 . S
C645 C646 1.336 . S
C646 C642 1.394 . S
C646 C645 1.336 . S
C646 H661 0.929 . S
C647 C637 1.386 . S
C647 C640 1.357 . S
C647 H660 0.928 . S
H648 C624 0.931 . S
H649 C626 0.930 . S
H650 C628 0.929 . S
H651 C629 0.931 . S
H652 C631 0.930 . S
H653 C635 0.931 . S
H654 C633 0.931 . S
H655 C637 0.931 . S
H656 C638 0.929 . S
H657 C639 0.930 . S
H658 C642 0.930 . S
H659 C643 0.931 . S
H660 C647 0.928 . S
H661 C646 0.929 . S
H662 C644 0.932 . S
C663 C664 1.386 . S
C663 C665 1.397 . S
C663 H687 0.931 . S
C664 C663 1.386 . S
C664 C668 1.397 . S
C665 C663 1.397 . S
C665 C666 1.384 . S
C665 H688 0.930 . S
C666 C665 1.384 . S
C666 C667 1.377 . S
C666 C669 1.481 . S
C667 C666 1.377 . S
C667 C668 1.389 . S
C667 H689 0.929 . S
C668 C664 1.397 . S
C668 C667 1.389 . S
C668 H690 0.931 . S
C669 C666 1.481 . S
C669 C670 1.387 . S
C669 C674 1.390 . S
C670 C669 1.387 . S
C670 C671 1.401 . S
C670 H691 0.930 . S
C671 C670 1.401 . S
C671 C672 1.376 . S
C671 C680 1.511 . S
C672 C671 1.376 . S
C672 C673 1.392 . S
C672 H693 0.931 . S
C673 C672 1.392 . S
C673 C674 1.361 . S
C673 C675 1.500 . S
C674 C669 1.390 . S
C674 C673 1.361 . S
C674 H692 0.931 . S
C675 C673 1.500 . S
C675 C676 1.371 . S
C675 C677 1.365 . S
C676 C675 1.371 . S
C676 C686 1.386 . S
C676 H694 0.931 . S
C677 C675 1.365 . S
C677 C678 1.409 . S
C677 H695 0.929 . S
C678 C677 1.409 . S
C678 C679 1.380 . S
C678 H696 0.930 . S
C679 C678 1.380 . S
C679 C686 1.357 . S
C680 C671 1.511 . S
C680 C681 1.341 . S
C680 C682 1.371 . S
C681 C680 1.341 . S
C681 C685 1.394 . S
C681 H697 0.930 . S
C682 C680 1.371 . S
C682 C683 1.392 . S
C682 H698 0.931 . S
C683 C682 1.392 . S
C683 C684 1.331 . S
C683 H701 0.932 . S
C684 C683 1.331 . S
C684 C685 1.336 . S
C685 C681 1.394 . S
C685 C684 1.336 . S
C685 H700 0.929 . S
C686 C676 1.386 . S
C686 C679 1.357 . S
C686 H699 0.928 . S
H687 C663 0.931 . S
H688 C665 0.930 . S
H689 C667 0.929 . S
H690 C668 0.931 . S
H691 C670 0.930 . S
H692 C674 0.931 . S
H693 C672 0.931 . S
H694 C676 0.931 . S
H695 C677 0.929 . S
H696 C678 0.930 . S
H697 C681 0.930 . S
H698 C682 0.931 . S
H699 C686 0.928 . S
H700 C685 0.929 . S
H701 C683 0.932 . S
Eu702 N733 2.657 . S
Eu702 N740 2.609 . S
Eu702 O746 2.558 . S
Eu702 O747 2.639 1_565 S
Eu702 O749 2.339 1_565 S
Eu702 O750 2.563 1_565 S
Eu702 O751 2.419 . S
Eu702 O753 2.380 1_556 S
Eu702 O754 2.432 . S
Eu702 C766 2.848 . S
C703 C706 1.429 . S
C703 C707 1.411 . S
C703 N710 1.377 . S
C704 C706 1.420 . S
C704 C708 1.423 . S
C704 C716 1.392 . S
C705 C707 1.420 . S
C705 C708 1.351 . S
C705 H728 0.931 . S
C706 C703 1.429 . S
C706 C704 1.420 . S
C706 N714 1.362 . S
C707 C703 1.411 . S
C707 C705 1.420 . S
C707 C712 1.395 . S
C708 C704 1.423 . S
C708 C705 1.351 . S
C708 H720 0.930 . S
C709 C711 1.400 . S
C709 C712 1.386 . S
C709 H721 0.930 . S
N710 C703 1.377 . S
N710 C711 1.321 . S
N710 Eu713 2.609 . S
C711 C709 1.400 . S
C711 N710 1.321 . S
C711 H718 0.930 . S
C712 C707 1.395 . S
C712 C709 1.386 . S
C712 H731 0.930 . S
Eu713 N710 2.609 . S
Eu713 N714 2.657 . S
Eu713 O747 2.336 1_554 S
Eu713 O748 2.432 . S
Eu713 O752 2.558 . S
Eu713 O753 2.612 1_545 S
Eu713 O755 2.339 1_545 S
Eu713 O756 2.563 1_545 S
Eu713 O757 2.419 . S
Eu713 C777 2.848 . S
N714 C706 1.362 . S
N714 Eu713 2.657 . S
N714 C715 1.334 . S
C715 N714 1.334 . S
C715 C717 1.413 . S
C715 H722 0.929 . S
C716 C704 1.392 . S
C716 C717 1.367 . S
C716 H724 0.930 . S
C717 C715 1.413 . S
C717 C716 1.367 . S
C717 H719 0.930 . S
H718 C711 0.930 . S
H719 C717 0.930 . S
H720 C708 0.930 . S
H721 C709 0.930 . S
H722 C715 0.929 . S
H723 C737 0.930 . S
H724 C716 0.930 . S
H725 C743 0.930 . S
H726 C734 0.929 . S
H727 C741 0.930 . S
H728 C705 0.931 . S
H729 C735 0.930 . S
H730 C768 0.930 . S
H731 C712 0.930 . S
H732 C767 0.931 . S
N733 Eu702 2.657 . S
N733 C734 1.334 . S
N733 C738 1.362 . S
C734 H726 0.929 . S
C734 N733 1.334 . S
C734 C737 1.413 . S
C735 H729 0.930 . S
C735 C736 1.392 . S
C735 C737 1.367 . S
C736 C735 1.392 . S
C736 C738 1.420 . S
C736 C768 1.423 . S
C737 H723 0.930 . S
C737 C734 1.413 . S
C737 C735 1.367 . S
C738 N733 1.362 . S
C738 C736 1.420 . S
C738 C742 1.429 . S
H739 C744 0.930 . S
N740 Eu702 2.609 . S
N740 C742 1.377 . S
N740 C743 1.321 . S
C741 H727 0.930 . S
C741 C743 1.400 . S
C741 C744 1.386 . S
C742 C738 1.429 . S
C742 N740 1.377 . S
C742 C745 1.411 . S
C743 H725 0.930 . S
C743 N740 1.321 . S
C743 C741 1.400 . S
C744 H739 0.930 . S
C744 C741 1.386 . S
C744 C745 1.395 . S
C745 C742 1.411 . S
C745 C744 1.395 . S
C745 C767 1.420 . S
O746 Eu702 2.558 . S
O746 C766 1.257 . S
O747 Eu702 2.639 1_545 S
O747 Eu713 2.336 1_556 S
O747 C758 1.312 . S
O748 Eu713 2.432 . S
O748 C765 1.264 1_554 S
O749 Eu702 2.339 1_545 S
O749 C765 1.254 . S
O750 Eu702 2.563 1_545 S
O750 C758 1.235 . S
O751 Eu702 2.419 . S
O751 C766 1.249 . S
O752 Eu713 2.558 . S
O752 C777 1.257 . S
O753 Eu702 2.380 1_554 S
O753 Eu713 2.612 1_565 S
O753 C769 1.276 . S
O754 Eu702 2.432 . S
O754 C776 1.264 1_556 S
O755 Eu713 2.339 1_565 S
O755 C776 1.254 . S
O756 Eu713 2.563 1_565 S
O756 C769 1.235 . S
O757 Eu713 2.419 . S
O757 C777 1.249 . S
C758 O747 1.312 . S
C758 O750 1.235 . S
C759 C761 1.393 1_565 S
C759 C763 1.395 . S
C759 C766 1.492 . S
C760 C761 1.392 . S
C760 C762 1.386 1_545 S
C761 C759 1.393 1_545 S
C761 C760 1.392 . S
C761 H778 0.930 . S
C762 C760 1.386 1_565 S
C762 C764 1.395 . S
C762 H779 0.930 . S
C763 C759 1.395 . S
C763 C764 1.379 . S
C763 H780 0.930 . S
C764 C762 1.395 . S
C764 C763 1.379 . S
C764 H781 0.930 . S
C765 O748 1.264 1_556 S
C765 O749 1.254 . S
C766 Eu702 2.848 . S
C766 O746 1.257 . S
C766 O751 1.249 . S
C766 C759 1.492 . S
C767 H732 0.931 . S
C767 C745 1.420 . S
C767 C768 1.351 . S
C768 H730 0.930 . S
C768 C736 1.423 . S
C768 C767 1.351 . S
C769 O753 1.276 . S
C769 O756 1.235 . S
C770 C771 1.393 1_545 S
C770 C774 1.395 . S
C770 C777 1.492 . S
C771 C770 1.393 1_565 S
C771 C772 1.392 . S
C771 H782 0.930 . S
C772 C771 1.392 . S
C772 C773 1.386 1_565 S
C773 C772 1.386 1_545 S
C773 C775 1.395 . S
C773 H783 0.930 . S
C774 C770 1.395 . S
C774 C775 1.379 . S
C774 H784 0.930 . S
C775 C773 1.395 . S
C775 C774 1.379 . S
C775 H785 0.930 . S
C776 O754 1.264 1_554 S
C776 O755 1.254 . S
C777 Eu713 2.848 . S
C777 O752 1.257 . S
C777 O757 1.249 . S
C777 C770 1.492 . S
H778 C761 0.930 . S
H779 C762 0.930 . S
H780 C763 0.930 . S
H781 C764 0.930 . S
H782 C771 0.930 . S
H783 C773 0.930 . S
H784 C774 0.930 . S
H785 C775 0.930 . S
Eu786 N817 2.657 . S
Eu786 N824 2.609 . S
Eu786 O830 2.558 . S
Eu786 O831 2.652 1_455 S
Eu786 O833 2.339 1_455 S
Eu786 O834 2.563 1_455 S
Eu786 O835 2.419 . S
Eu786 O837 2.380 1_556 S
Eu786 O838 2.458 . S
Eu786 C850 2.848 . S
C787 C790 1.429 . S
C787 C791 1.411 . S
C787 N794 1.377 . S
C788 C790 1.420 . S
C788 C792 1.423 . S
C788 C800 1.392 . S
C789 C791 1.420 . S
C789 C792 1.351 . S
C789 H812 0.931 . S
C790 C787 1.429 . S
C790 C788 1.420 . S
C790 N798 1.362 . S
C791 C787 1.411 . S
C791 C789 1.420 . S
C791 C796 1.395 . S
C792 C788 1.423 . S
C792 C789 1.351 . S
C792 H804 0.930 . S
C793 C795 1.400 . S
C793 C796 1.386 . S
C793 H805 0.930 . S
N794 C787 1.377 . S
N794 C795 1.321 . S
N794 Eu797 2.609 . S
C795 C793 1.400 . S
C795 N794 1.321 . S
C795 H802 0.930 . S
C796 C791 1.395 . S
C796 C793 1.386 . S
C796 H815 0.930 . S
Eu797 N794 2.609 . S
Eu797 N798 2.657 . S
Eu797 O831 2.313 1_554 S
Eu797 O832 2.432 . S
Eu797 O836 2.558 . S
Eu797 O837 2.612 1_655 S
Eu797 O839 2.339 1_655 S
Eu797 O840 2.563 1_655 S
Eu797 O841 2.419 . S
Eu797 C861 2.848 . S
N798 C790 1.362 . S
N798 Eu797 2.657 . S
N798 C799 1.334 . S
C799 N798 1.334 . S
C799 C801 1.413 . S
C799 H806 0.929 . S
C800 C788 1.392 . S
C800 C801 1.367 . S
C800 H808 0.930 . S
C801 C799 1.413 . S
C801 C800 1.367 . S
C801 H803 0.930 . S
H802 C795 0.930 . S
H803 C801 0.930 . S
H804 C792 0.930 . S
H805 C793 0.930 . S
H806 C799 0.929 . S
H807 C821 0.930 . S
H808 C800 0.930 . S
H809 C827 0.930 . S
H810 C818 0.929 . S
H811 C825 0.930 . S
H812 C789 0.931 . S
H813 C819 0.930 . S
H814 C852 0.930 . S
H815 C796 0.930 . S
H816 C851 0.931 . S
N817 Eu786 2.657 . S
N817 C818 1.334 . S
N817 C822 1.362 . S
C818 H810 0.929 . S
C818 N817 1.334 . S
C818 C821 1.413 . S
C819 H813 0.930 . S
C819 C820 1.392 . S
C819 C821 1.367 . S
C820 C819 1.392 . S
C820 C822 1.420 . S
C820 C852 1.423 . S
C821 H807 0.930 . S
C821 C818 1.413 . S
C821 C819 1.367 . S
C822 N817 1.362 . S
C822 C820 1.420 . S
C822 C826 1.429 . S
H823 C828 0.930 . S
N824 Eu786 2.609 . S
N824 C826 1.377 . S
N824 C827 1.321 . S
C825 H811 0.930 . S
C825 C827 1.400 . S
C825 C828 1.386 . S
C826 C822 1.429 . S
C826 N824 1.377 . S
C826 C829 1.411 . S
C827 H809 0.930 . S
C827 N824 1.321 . S
C827 C825 1.400 . S
C828 H823 0.930 . S
C828 C825 1.386 . S
C828 C829 1.395 . S
C829 C826 1.411 . S
C829 C828 1.395 . S
C829 C851 1.420 . S
O830 Eu786 2.558 . S
O830 C850 1.257 . S
O831 Eu786 2.652 1_655 S
O831 Eu797 2.313 1_556 S
O831 C842 1.331 . S
O832 Eu797 2.432 . S
O832 C849 1.264 1_554 S
O833 Eu786 2.339 1_655 S
O833 C849 1.254 . S
O834 Eu786 2.563 1_655 S
O834 C842 1.235 . S
O835 Eu786 2.419 . S
O835 C850 1.249 . S
O836 Eu797 2.558 . S
O836 C861 1.257 . S
O837 Eu786 2.380 1_554 S
O837 Eu797 2.612 1_455 S
O837 C853 1.276 . S
O838 Eu786 2.458 . S
O838 C860 1.218 1_556 S
O839 Eu797 2.339 1_455 S
O839 C860 1.254 . S
O840 Eu797 2.563 1_455 S
O840 C853 1.235 . S
O841 Eu797 2.419 . S
O841 C861 1.249 . S
C842 O831 1.331 . S
C842 O834 1.235 . S
C843 C845 1.393 1_455 S
C843 C847 1.395 . S
C843 C850 1.492 . S
C844 C845 1.392 . S
C844 C846 1.386 1_655 S
C845 C843 1.393 1_655 S
C845 C844 1.392 . S
C845 H862 0.930 . S
C846 C844 1.386 1_455 S
C846 C848 1.395 . S
C846 H863 0.930 . S
C847 C843 1.395 . S
C847 C848 1.379 . S
C847 H864 0.930 . S
C848 C846 1.395 . S
C848 C847 1.379 . S
C848 H865 0.930 . S
C849 O832 1.264 1_556 S
C849 O833 1.254 . S
C850 Eu786 2.848 . S
C850 O830 1.257 . S
C850 O835 1.249 . S
C850 C843 1.492 . S
C851 H816 0.931 . S
C851 C829 1.420 . S
C851 C852 1.351 . S
C852 H814 0.930 . S
C852 C820 1.423 . S
C852 C851 1.351 . S
C853 O837 1.276 . S
C853 O840 1.235 . S
C854 C855 1.393 1_655 S
C854 C858 1.395 . S
C854 C861 1.492 . S
C855 C854 1.393 1_455 S
C855 C856 1.392 . S
C855 H866 0.930 . S
C856 C855 1.392 . S
C856 C857 1.386 1_455 S
C857 C856 1.386 1_655 S
C857 C859 1.395 . S
C857 H867 0.930 . S
C858 C854 1.395 . S
C858 C859 1.379 . S
C858 H868 0.930 . S
C859 C857 1.395 . S
C859 C858 1.379 . S
C859 H869 0.930 . S
C860 O838 1.218 1_554 S
C860 O839 1.254 . S
C861 Eu797 2.848 . S
C861 O836 1.257 . S
C861 O841 1.249 . S
C861 C854 1.492 . S
H862 C845 0.930 . S
H863 C846 0.930 . S
H864 C847 0.930 . S
H865 C848 0.930 . S
H866 C855 0.930 . S
H867 C857 0.930 . S
H868 C858 0.930 . S
H869 C859 0.930 . S
Eu870 N901 2.657 . S
Eu870 N908 2.609 . S
Eu870 O914 2.558 . S
Eu870 O915 2.612 . S
Eu870 O917 2.339 . S
Eu870 O918 2.563 . S
Eu870 O919 2.419 . S
Eu870 O921 2.380 1_554 S
Eu870 O922 2.432 . S
Eu870 C934 2.848 . S
C871 C874 1.429 . S
C871 C875 1.411 . S
C871 N878 1.377 . S
C872 C874 1.420 . S
C872 C876 1.423 . S
C872 C884 1.392 . S
C873 C875 1.420 . S
C873 C876 1.351 . S
C873 H896 0.931 . S
C874 C871 1.429 . S
C874 C872 1.420 . S
C874 N882 1.362 . S
C875 C871 1.411 . S
C875 C873 1.420 . S
C875 C880 1.395 . S
C876 C872 1.423 . S
C876 C873 1.351 . S
C876 H888 0.930 . S
C877 C879 1.400 . S
C877 C880 1.386 . S
C877 H889 0.930 . S
N878 C871 1.377 . S
N878 C879 1.321 . S
N878 Eu881 2.609 . S
C879 C877 1.400 . S
C879 N878 1.321 . S
C879 H886 0.930 . S
C880 C875 1.395 . S
C880 C877 1.386 . S
C880 H899 0.930 . S
Eu881 N878 2.609 . S
Eu881 N882 2.657 . S
Eu881 O915 2.380 1_556 S
Eu881 O916 2.432 . S
Eu881 O920 2.558 . S
Eu881 O921 2.612 . S
Eu881 O923 2.339 . S
Eu881 O924 2.563 . S
Eu881 O925 2.419 . S
Eu881 C945 2.848 . S
N882 C874 1.362 . S
N882 Eu881 2.657 . S
N882 C883 1.334 . S
C883 N882 1.334 . S
C883 C885 1.413 . S
C883 H890 0.929 . S
C884 C872 1.392 . S
C884 C885 1.367 . S
C884 H892 0.930 . S
C885 C883 1.413 . S
C885 C884 1.367 . S
C885 H887 0.930 . S
H886 C879 0.930 . S
H887 C885 0.930 . S
H888 C876 0.930 . S
H889 C877 0.930 . S
H890 C883 0.929 . S
H891 C905 0.930 . S
H892 C884 0.930 . S
H893 C911 0.930 . S
H894 C902 0.929 . S
H895 C909 0.930 . S
H896 C873 0.931 . S
H897 C903 0.930 . S
H898 C936 0.930 . S
H899 C880 0.930 . S
H900 C935 0.931 . S
N901 Eu870 2.657 . S
N901 C902 1.334 . S
N901 C906 1.362 . S
C902 H894 0.929 . S
C902 N901 1.334 . S
C902 C905 1.413 . S
C903 H897 0.930 . S
C903 C904 1.392 . S
C903 C905 1.367 . S
C904 C903 1.392 . S
C904 C906 1.420 . S
C904 C936 1.423 . S
C905 H891 0.930 . S
C905 C902 1.413 . S
C905 C903 1.367 . S
C906 N901 1.362 . S
C906 C904 1.420 . S
C906 C910 1.429 . S
H907 C912 0.930 . S
N908 Eu870 2.609 . S
N908 C910 1.377 . S
N908 C911 1.321 . S
C909 H895 0.930 . S
C909 C911 1.400 . S
C909 C912 1.386 . S
C910 C906 1.429 . S
C910 N908 1.377 . S
C910 C913 1.411 . S
C911 H893 0.930 . S
C911 N908 1.321 . S
C911 C909 1.400 . S
C912 H907 0.930 . S
C912 C909 1.386 . S
C912 C913 1.395 . S
C913 C910 1.411 . S
C913 C912 1.395 . S
C913 C935 1.420 . S
O914 Eu870 2.558 . S
O914 C934 1.257 . S
O915 Eu870 2.612 . S
O915 Eu881 2.380 1_554 S
O915 C926 1.276 . S
O916 Eu881 2.432 . S
O916 C933 1.264 1_556 S
O917 Eu870 2.339 . S
O917 C933 1.254 . S
O918 Eu870 2.563 . S
O918 C926 1.235 . S
O919 Eu870 2.419 . S
O919 C934 1.249 . S
O920 Eu881 2.558 . S
O920 C945 1.257 . S
O921 Eu870 2.380 1_556 S
O921 Eu881 2.612 . S
O921 C937 1.276 . S
O922 Eu870 2.432 . S
O922 C944 1.264 1_554 S
O923 Eu881 2.339 . S
O923 C944 1.254 . S
O924 Eu881 2.563 . S
O924 C937 1.235 . S
O925 Eu881 2.419 . S
O925 C945 1.249 . S
C926 O915 1.276 . S
C926 O918 1.235 . S
C927 C929 1.393 . S
C927 C931 1.395 . S
C927 C934 1.492 . S
C928 C929 1.392 . S
C928 C930 1.386 . S
C929 C927 1.393 . S
C929 C928 1.392 . S
C929 H946 0.930 . S
C930 C928 1.386 . S
C930 C932 1.395 . S
C930 H947 0.930 . S
C931 C927 1.395 . S
C931 C932 1.379 . S
C931 H948 0.930 . S
C932 C930 1.395 . S
C932 C931 1.379 . S
C932 H949 0.930 . S
C933 O916 1.264 1_554 S
C933 O917 1.254 . S
C934 Eu870 2.848 . S
C934 O914 1.257 . S
C934 O919 1.249 . S
C934 C927 1.492 . S
C935 H900 0.931 . S
C935 C913 1.420 . S
C935 C936 1.351 . S
C936 H898 0.930 . S
C936 C904 1.423 . S
C936 C935 1.351 . S
C937 O921 1.276 . S
C937 O924 1.235 . S
C938 C939 1.393 . S
C938 C942 1.395 . S
C938 C945 1.492 . S
C939 C938 1.393 . S
C939 C940 1.392 . S
C939 H950 0.930 . S
C940 C939 1.392 . S
C940 C941 1.386 . S
C941 C940 1.386 . S
C941 C943 1.395 . S
C941 H951 0.930 . S
C942 C938 1.395 . S
C942 C943 1.379 . S
C942 H952 0.930 . S
C943 C941 1.395 . S
C943 C942 1.379 . S
C943 H953 0.930 . S
C944 O922 1.264 1_556 S
C944 O923 1.254 . S
C945 Eu881 2.848 . S
C945 O920 1.257 . S
C945 O925 1.249 . S
C945 C938 1.492 . S
H946 C929 0.930 . S
H947 C930 0.930 . S
H948 C931 0.930 . S
H949 C932 0.930 . S
H950 C939 0.930 . S
H951 C941 0.930 . S
H952 C942 0.930 . S
H953 C943 0.930 . S
Eu954 N985 2.657 . S
Eu954 N992 2.609 . S
Eu954 O998 2.558 . S
Eu954 O999 2.612 . S
Eu954 O1001 2.339 . S
Eu954 O1002 2.563 . S
Eu954 O1003 2.419 . S
Eu954 O1005 2.380 . S
Eu954 O1006 2.432 . S
Eu954 C1018 2.848 . S
C955 C958 1.429 . S
C955 C959 1.411 . S
C955 N962 1.377 . S
C956 C958 1.420 . S
C956 C960 1.423 . S
C956 C968 1.392 . S
C957 C959 1.420 . S
C957 C960 1.351 . S
C957 H980 0.931 . S
C958 C955 1.429 . S
C958 C956 1.420 . S
C958 N966 1.362 . S
C959 C955 1.411 . S
C959 C957 1.420 . S
C959 C964 1.395 . S
C960 C956 1.423 . S
C960 C957 1.351 . S
C960 H972 0.930 . S
C961 C963 1.400 . S
C961 C964 1.386 . S
C961 H973 0.930 . S
N962 C955 1.377 . S
N962 C963 1.321 . S
N962 Eu965 2.609 . S
C963 C961 1.400 . S
C963 N962 1.321 . S
C963 H970 0.930 . S
C964 C959 1.395 . S
C964 C961 1.386 . S
C964 H983 0.930 . S
Eu965 N962 2.609 . S
Eu965 N966 2.657 . S
Eu965 O999 2.380 . S
Eu965 O1000 2.432 . S
Eu965 O1004 2.558 . S
Eu965 O1005 2.612 . S
Eu965 O1007 2.339 . S
Eu965 O1008 2.563 . S
Eu965 O1009 2.419 . S
Eu965 C1029 2.848 . S
N966 C958 1.362 . S
N966 Eu965 2.657 . S
N966 C967 1.334 . S
C967 N966 1.334 . S
C967 C969 1.413 . S
C967 H974 0.929 . S
C968 C956 1.392 . S
C968 C969 1.367 . S
C968 H976 0.930 . S
C969 C967 1.413 . S
C969 C968 1.367 . S
C969 H971 0.930 . S
H970 C963 0.930 . S
H971 C969 0.930 . S
H972 C960 0.930 . S
H973 C961 0.930 . S
H974 C967 0.929 . S
H975 C989 0.930 . S
H976 C968 0.930 . S
H977 C995 0.930 . S
H978 C986 0.929 . S
H979 C993 0.930 . S
H980 C957 0.931 . S
H981 C987 0.930 . S
H982 C1020 0.930 . S
H983 C964 0.930 . S
H984 C1019 0.931 . S
N985 Eu954 2.657 . S
N985 C986 1.334 . S
N985 C990 1.362 . S
C986 H978 0.929 . S
C986 N985 1.334 . S
C986 C989 1.413 . S
C987 H981 0.930 . S
C987 C988 1.392 . S
C987 C989 1.367 . S
C988 C987 1.392 . S
C988 C990 1.420 . S
C988 C1020 1.423 . S
C989 H975 0.930 . S
C989 C986 1.413 . S
C989 C987 1.367 . S
C990 N985 1.362 . S
C990 C988 1.420 . S
C990 C994 1.429 . S
H991 C996 0.930 . S
N992 Eu954 2.609 . S
N992 C994 1.377 . S
N992 C995 1.321 . S
C993 H979 0.930 . S
C993 C995 1.400 . S
C993 C996 1.386 . S
C994 C990 1.429 . S
C994 N992 1.377 . S
C994 C997 1.411 . S
C995 H977 0.930 . S
C995 N992 1.321 . S
C995 C993 1.400 . S
C996 H991 0.930 . S
C996 C993 1.386 . S
C996 C997 1.395 . S
C997 C994 1.411 . S
C997 C996 1.395 . S
C997 C1019 1.420 . S
O998 Eu954 2.558 . S
O998 C1018 1.257 . S
O999 Eu954 2.612 . S
O999 Eu965 2.380 . S
O999 C1010 1.276 . S
O1000 Eu965 2.432 . S
O1000 C1017 1.264 . S
O1001 Eu954 2.339 . S
O1001 C1017 1.254 . S
O1002 Eu954 2.563 . S
O1002 C1010 1.235 . S
O1003 Eu954 2.419 . S
O1003 C1018 1.249 . S
O1004 Eu965 2.558 . S
O1004 C1029 1.257 . S
O1005 Eu954 2.380 . S
O1005 Eu965 2.612 . S
O1005 C1021 1.276 . S
O1006 Eu954 2.432 . S
O1006 C1028 1.264 . S
O1007 Eu965 2.339 . S
O1007 C1028 1.254 . S
O1008 Eu965 2.563 . S
O1008 C1021 1.235 . S
O1009 Eu965 2.419 . S
O1009 C1029 1.249 . S
C1010 O999 1.276 . S
C1010 O1002 1.235 . S
C1011 C1013 1.393 . S
C1011 C1015 1.395 . S
C1011 C1018 1.492 . S
C1012 C1013 1.392 . S
C1012 C1014 1.386 . S
C1013 C1011 1.393 . S
C1013 C1012 1.392 . S
C1013 H1030 0.930 . S
C1014 C1012 1.386 . S
C1014 C1016 1.395 . S
C1014 H1031 0.930 . S
C1015 C1011 1.395 . S
C1015 C1016 1.379 . S
C1015 H1032 0.930 . S
C1016 C1014 1.395 . S
C1016 C1015 1.379 . S
C1016 H1033 0.930 . S
C1017 O1000 1.264 . S
C1017 O1001 1.254 . S
C1018 Eu954 2.848 . S
C1018 O998 1.257 . S
C1018 O1003 1.249 . S
C1018 C1011 1.492 . S
C1019 H984 0.931 . S
C1019 C997 1.420 . S
C1019 C1020 1.351 . S
C1020 H982 0.930 . S
C1020 C988 1.423 . S
C1020 C1019 1.351 . S
C1021 O1005 1.276 . S
C1021 O1008 1.235 . S
C1022 C1023 1.393 . S
C1022 C1026 1.395 . S
C1022 C1029 1.492 . S
C1023 C1022 1.393 . S
C1023 C1024 1.392 . S
C1023 H1034 0.930 . S
C1024 C1023 1.392 . S
C1024 C1025 1.386 . S
C1025 C1024 1.386 . S
C1025 C1027 1.395 . S
C1025 H1035 0.930 . S
C1026 C1022 1.395 . S
C1026 C1027 1.379 . S
C1026 H1036 0.930 . S
C1027 C1025 1.395 . S
C1027 C1026 1.379 . S
C1027 H1037 0.930 . S
C1028 O1006 1.264 . S
C1028 O1007 1.254 . S
C1029 Eu965 2.848 . S
C1029 O1004 1.257 . S
C1029 O1009 1.249 . S
C1029 C1022 1.492 . S
H1030 C1013 0.930 . S
H1031 C1014 0.930 . S
H1032 C1015 0.930 . S
H1033 C1016 0.930 . S
H1034 C1023 0.930 . S
H1035 C1025 0.930 . S
H1036 C1026 0.930 . S
H1037 C1027 0.930 . S
Eu1038 N1069 2.657 . S
Eu1038 N1076 2.609 . S
Eu1038 O1082 2.558 . S
Eu1038 O1083 2.612 . S
Eu1038 O1085 2.339 . S
Eu1038 O1086 2.563 . S
Eu1038 O1087 2.419 . S
Eu1038 O1089 2.380 . S
Eu1038 O1090 2.432 . S
Eu1038 C1102 2.848 . S
C1039 C1042 1.429 . S
C1039 C1043 1.411 . S
C1039 N1046 1.377 . S
C1040 C1042 1.420 . S
C1040 C1044 1.423 . S
C1040 C1052 1.392 . S
C1041 C1043 1.420 . S
C1041 C1044 1.351 . S
C1041 H1064 0.931 . S
C1042 C1039 1.429 . S
C1042 C1040 1.420 . S
C1042 N1050 1.362 . S
C1043 C1039 1.411 . S
C1043 C1041 1.420 . S
C1043 C1048 1.395 . S
C1044 C1040 1.423 . S
C1044 C1041 1.351 . S
C1044 H1056 0.930 . S
C1045 C1047 1.400 . S
C1045 C1048 1.386 . S
C1045 H1057 0.930 . S
N1046 C1039 1.377 . S
N1046 C1047 1.321 . S
N1046 Eu1049 2.609 . S
C1047 C1045 1.400 . S
C1047 N1046 1.321 . S
C1047 H1054 0.930 . S
C1048 C1043 1.395 . S
C1048 C1045 1.386 . S
C1048 H1067 0.930 . S
Eu1049 N1046 2.609 . S
Eu1049 N1050 2.657 . S
Eu1049 O1083 2.380 . S
Eu1049 O1084 2.432 . S
Eu1049 O1088 2.558 . S
Eu1049 O1089 2.612 . S
Eu1049 O1091 2.339 . S
Eu1049 O1092 2.563 . S
Eu1049 O1093 2.419 . S
Eu1049 C1113 2.848 . S
N1050 C1042 1.362 . S
N1050 Eu1049 2.657 . S
N1050 C1051 1.334 . S
C1051 N1050 1.334 . S
C1051 C1053 1.413 . S
C1051 H1058 0.929 . S
C1052 C1040 1.392 . S
C1052 C1053 1.367 . S
C1052 H1060 0.930 . S
C1053 C1051 1.413 . S
C1053 C1052 1.367 . S
C1053 H1055 0.930 . S
H1054 C1047 0.930 . S
H1055 C1053 0.930 . S
H1056 C1044 0.930 . S
H1057 C1045 0.930 . S
H1058 C1051 0.929 . S
H1059 C1073 0.930 . S
H1060 C1052 0.930 . S
H1061 C1079 0.930 . S
H1062 C1070 0.929 . S
H1063 C1077 0.930 . S
H1064 C1041 0.931 . S
H1065 C1071 0.930 . S
H1066 C1104 0.930 . S
H1067 C1048 0.930 . S
H1068 C1103 0.931 . S
N1069 Eu1038 2.657 . S
N1069 C1070 1.334 . S
N1069 C1074 1.362 . S
C1070 H1062 0.929 . S
C1070 N1069 1.334 . S
C1070 C1073 1.413 . S
C1071 H1065 0.930 . S
C1071 C1072 1.392 . S
C1071 C1073 1.367 . S
C1072 C1071 1.392 . S
C1072 C1074 1.420 . S
C1072 C1104 1.423 . S
C1073 H1059 0.930 . S
C1073 C1070 1.413 . S
C1073 C1071 1.367 . S
C1074 N1069 1.362 . S
C1074 C1072 1.420 . S
C1074 C1078 1.429 . S
H1075 C1080 0.930 . S
N1076 Eu1038 2.609 . S
N1076 C1078 1.377 . S
N1076 C1079 1.321 . S
C1077 H1063 0.930 . S
C1077 C1079 1.400 . S
C1077 C1080 1.386 . S
C1078 C1074 1.429 . S
C1078 N1076 1.377 . S
C1078 C1081 1.411 . S
C1079 H1061 0.930 . S
C1079 N1076 1.321 . S
C1079 C1077 1.400 . S
C1080 H1075 0.930 . S
C1080 C1077 1.386 . S
C1080 C1081 1.395 . S
C1081 C1078 1.411 . S
C1081 C1080 1.395 . S
C1081 C1103 1.420 . S
O1082 Eu1038 2.558 . S
O1082 C1102 1.257 . S
O1083 Eu1038 2.612 . S
O1083 Eu1049 2.380 . S
O1083 C1094 1.276 . S
O1084 Eu1049 2.432 . S
O1084 C1101 1.264 . S
O1085 Eu1038 2.339 . S
O1085 C1101 1.254 . S
O1086 Eu1038 2.563 . S
O1086 C1094 1.235 . S
O1087 Eu1038 2.419 . S
O1087 C1102 1.249 . S
O1088 Eu1049 2.558 . S
O1088 C1113 1.257 . S
O1089 Eu1038 2.380 . S
O1089 Eu1049 2.612 . S
O1089 C1105 1.276 . S
O1090 Eu1038 2.432 . S
O1090 C1112 1.264 . S
O1091 Eu1049 2.339 . S
O1091 C1112 1.254 . S
O1092 Eu1049 2.563 . S
O1092 C1105 1.235 . S
O1093 Eu1049 2.419 . S
O1093 C1113 1.249 . S
C1094 O1083 1.276 . S
C1094 O1086 1.235 . S
C1095 C1097 1.393 . S
C1095 C1099 1.395 . S
C1095 C1102 1.492 . S
C1096 C1097 1.392 . S
C1096 C1098 1.386 . S
C1097 C1095 1.393 . S
C1097 C1096 1.392 . S
C1097 H1114 0.930 . S
C1098 C1096 1.386 . S
C1098 C1100 1.395 . S
C1098 H1115 0.930 . S
C1099 C1095 1.395 . S
C1099 C1100 1.379 . S
C1099 H1116 0.930 . S
C1100 C1098 1.395 . S
C1100 C1099 1.379 . S
C1100 H1117 0.930 . S
C1101 O1084 1.264 . S
C1101 O1085 1.254 . S
C1102 Eu1038 2.848 . S
C1102 O1082 1.257 . S
C1102 O1087 1.249 . S
C1102 C1095 1.492 . S
C1103 H1068 0.931 . S
C1103 C1081 1.420 . S
C1103 C1104 1.351 . S
C1104 H1066 0.930 . S
C1104 C1072 1.423 . S
C1104 C1103 1.351 . S
C1105 O1089 1.276 . S
C1105 O1092 1.235 . S
C1106 C1107 1.393 . S
C1106 C1110 1.395 . S
C1106 C1113 1.492 . S
C1107 C1106 1.393 . S
C1107 C1108 1.392 . S
C1107 H1118 0.930 . S
C1108 C1107 1.392 . S
C1108 C1109 1.386 . S
C1109 C1108 1.386 . S
C1109 C1111 1.395 . S
C1109 H1119 0.930 . S
C1110 C1106 1.395 . S
C1110 C1111 1.379 . S
C1110 H1120 0.930 . S
C1111 C1109 1.395 . S
C1111 C1110 1.379 . S
C1111 H1121 0.930 . S
C1112 O1090 1.264 . S
C1112 O1091 1.254 . S
C1113 Eu1049 2.848 . S
C1113 O1088 1.257 . S
C1113 O1093 1.249 . S
C1113 C1106 1.492 . S
H1114 C1097 0.930 . S
H1115 C1098 0.930 . S
H1116 C1099 0.930 . S
H1117 C1100 0.930 . S
H1118 C1107 0.930 . S
H1119 C1109 0.930 . S
H1120 C1110 0.930 . S
H1121 C1111 0.930 . S
Eu1122 N1153 2.657 . S
Eu1122 N1160 2.609 . S
Eu1122 O1166 2.558 . S
Eu1122 O1167 2.612 . S
Eu1122 O1169 2.339 . S
Eu1122 O1170 2.563 . S
Eu1122 O1171 2.419 . S
Eu1122 O1173 2.380 . S
Eu1122 O1174 2.432 . S
Eu1122 C1186 2.848 . S
C1123 C1126 1.429 . S
C1123 C1127 1.411 . S
C1123 N1130 1.377 . S
C1124 C1126 1.420 . S
C1124 C1128 1.423 . S
C1124 C1136 1.392 . S
C1125 C1127 1.420 . S
C1125 C1128 1.351 . S
C1125 H1148 0.931 . S
C1126 C1123 1.429 . S
C1126 C1124 1.420 . S
C1126 N1134 1.362 . S
C1127 C1123 1.411 . S
C1127 C1125 1.420 . S
C1127 C1132 1.395 . S
C1128 C1124 1.423 . S
C1128 C1125 1.351 . S
C1128 H1140 0.930 . S
C1129 C1131 1.400 . S
C1129 C1132 1.386 . S
C1129 H1141 0.930 . S
N1130 C1123 1.377 . S
N1130 C1131 1.321 . S
N1130 Eu1133 2.609 . S
C1131 C1129 1.400 . S
C1131 N1130 1.321 . S
C1131 H1138 0.930 . S
C1132 C1127 1.395 . S
C1132 C1129 1.386 . S
C1132 H1151 0.930 . S
Eu1133 N1130 2.609 . S
Eu1133 N1134 2.657 . S
Eu1133 O1167 2.380 . S
Eu1133 O1168 2.432 . S
Eu1133 O1172 2.558 . S
Eu1133 O1173 2.612 . S
Eu1133 O1175 2.339 . S
Eu1133 O1176 2.563 . S
Eu1133 O1177 2.419 . S
Eu1133 C1197 2.848 . S
N1134 C1126 1.362 . S
N1134 Eu1133 2.657 . S
N1134 C1135 1.334 . S
C1135 N1134 1.334 . S
C1135 C1137 1.413 . S
C1135 H1142 0.929 . S
C1136 C1124 1.392 . S
C1136 C1137 1.367 . S
C1136 H1144 0.930 . S
C1137 C1135 1.413 . S
C1137 C1136 1.367 . S
C1137 H1139 0.930 . S
H1138 C1131 0.930 . S
H1139 C1137 0.930 . S
H1140 C1128 0.930 . S
H1141 C1129 0.930 . S
H1142 C1135 0.929 . S
H1143 C1157 0.930 . S
H1144 C1136 0.930 . S
H1145 C1163 0.930 . S
H1146 C1154 0.929 . S
H1147 C1161 0.930 . S
H1148 C1125 0.931 . S
H1149 C1155 0.930 . S
H1150 C1188 0.930 . S
H1151 C1132 0.930 . S
H1152 C1187 0.931 . S
N1153 Eu1122 2.657 . S
N1153 C1154 1.334 . S
N1153 C1158 1.362 . S
C1154 H1146 0.929 . S
C1154 N1153 1.334 . S
C1154 C1157 1.413 . S
C1155 H1149 0.930 . S
C1155 C1156 1.392 . S
C1155 C1157 1.367 . S
C1156 C1155 1.392 . S
C1156 C1158 1.420 . S
C1156 C1188 1.423 . S
C1157 H1143 0.930 . S
C1157 C1154 1.413 . S
C1157 C1155 1.367 . S
C1158 N1153 1.362 . S
C1158 C1156 1.420 . S
C1158 C1162 1.429 . S
H1159 C1164 0.930 . S
N1160 Eu1122 2.609 . S
N1160 C1162 1.377 . S
N1160 C1163 1.321 . S
C1161 H1147 0.930 . S
C1161 C1163 1.400 . S
C1161 C1164 1.386 . S
C1162 C1158 1.429 . S
C1162 N1160 1.377 . S
C1162 C1165 1.411 . S
C1163 H1145 0.930 . S
C1163 N1160 1.321 . S
C1163 C1161 1.400 . S
C1164 H1159 0.930 . S
C1164 C1161 1.386 . S
C1164 C1165 1.395 . S
C1165 C1162 1.411 . S
C1165 C1164 1.395 . S
C1165 C1187 1.420 . S
O1166 Eu1122 2.558 . S
O1166 C1186 1.257 . S
O1167 Eu1122 2.612 . S
O1167 Eu1133 2.380 . S
O1167 C1178 1.276 . S
O1168 Eu1133 2.432 . S
O1168 C1185 1.264 . S
O1169 Eu1122 2.339 . S
O1169 C1185 1.254 . S
O1170 Eu1122 2.563 . S
O1170 C1178 1.235 . S
O1171 Eu1122 2.419 . S
O1171 C1186 1.249 . S
O1172 Eu1133 2.558 . S
O1172 C1197 1.257 . S
O1173 Eu1122 2.380 . S
O1173 Eu1133 2.612 . S
O1173 C1189 1.276 . S
O1174 Eu1122 2.432 . S
O1174 C1196 1.264 . S
O1175 Eu1133 2.339 . S
O1175 C1196 1.254 . S
O1176 Eu1133 2.563 . S
O1176 C1189 1.235 . S
O1177 Eu1133 2.419 . S
O1177 C1197 1.249 . S
C1178 O1167 1.276 . S
C1178 O1170 1.235 . S
C1179 C1181 1.393 . S
C1179 C1183 1.395 . S
C1179 C1186 1.492 . S
C1180 C1181 1.392 . S
C1180 C1182 1.386 . S
C1181 C1179 1.393 . S
C1181 C1180 1.392 . S
C1181 H1198 0.930 . S
C1182 C1180 1.386 . S
C1182 C1184 1.395 . S
C1182 H1199 0.930 . S
C1183 C1179 1.395 . S
C1183 C1184 1.379 . S
C1183 H1200 0.930 . S
C1184 C1182 1.395 . S
C1184 C1183 1.379 . S
C1184 H1201 0.930 . S
C1185 O1168 1.264 . S
C1185 O1169 1.254 . S
C1186 Eu1122 2.848 . S
C1186 O1166 1.257 . S
C1186 O1171 1.249 . S
C1186 C1179 1.492 . S
C1187 H1152 0.931 . S
C1187 C1165 1.420 . S
C1187 C1188 1.351 . S
C1188 H1150 0.930 . S
C1188 C1156 1.423 . S
C1188 C1187 1.351 . S
C1189 O1173 1.276 . S
C1189 O1176 1.235 . S
C1190 C1191 1.393 . S
C1190 C1194 1.395 . S
C1190 C1197 1.492 . S
C1191 C1190 1.393 . S
C1191 C1192 1.392 . S
C1191 H1202 0.930 . S
C1192 C1191 1.392 . S
C1192 C1193 1.386 . S
C1193 C1192 1.386 . S
C1193 C1195 1.395 . S
C1193 H1203 0.930 . S
C1194 C1190 1.395 . S
C1194 C1195 1.379 . S
C1194 H1204 0.930 . S
C1195 C1193 1.395 . S
C1195 C1194 1.379 . S
C1195 H1205 0.930 . S
C1196 O1174 1.264 . S
C1196 O1175 1.254 . S
C1197 Eu1133 2.848 . S
C1197 O1172 1.257 . S
C1197 O1177 1.249 . S
C1197 C1190 1.492 . S
H1198 C1181 0.930 . S
H1199 C1182 0.930 . S
H1200 C1183 0.930 . S
H1201 C1184 0.930 . S
H1202 C1191 0.930 . S
H1203 C1193 0.930 . S
H1204 C1194 0.930 . S
H1205 C1195 0.930 . S
Eu1206 N1237 2.657 . S
Eu1206 N1244 2.609 . S
Eu1206 O1250 2.558 . S
Eu1206 O1251 2.612 . S
Eu1206 O1253 2.339 . S
Eu1206 O1254 2.563 . S
Eu1206 O1255 2.419 . S
Eu1206 O1257 2.380 . S
Eu1206 O1258 2.432 . S
Eu1206 C1270 2.848 . S
C1207 C1210 1.429 . S
C1207 C1211 1.411 . S
C1207 N1214 1.377 . S
C1208 C1210 1.420 . S
C1208 C1212 1.423 . S
C1208 C1220 1.392 . S
C1209 C1211 1.420 . S
C1209 C1212 1.351 . S
C1209 H1232 0.931 . S
C1210 C1207 1.429 . S
C1210 C1208 1.420 . S
C1210 N1218 1.362 . S
C1211 C1207 1.411 . S
C1211 C1209 1.420 . S
C1211 C1216 1.395 . S
C1212 C1208 1.423 . S
C1212 C1209 1.351 . S
C1212 H1224 0.930 . S
C1213 C1215 1.400 . S
C1213 C1216 1.386 . S
C1213 H1225 0.930 . S
N1214 C1207 1.377 . S
N1214 C1215 1.321 . S
N1214 Eu1217 2.609 . S
C1215 C1213 1.400 . S
C1215 N1214 1.321 . S
C1215 H1222 0.930 . S
C1216 C1211 1.395 . S
C1216 C1213 1.386 . S
C1216 H1235 0.930 . S
Eu1217 N1214 2.609 . S
Eu1217 N1218 2.657 . S
Eu1217 O1251 2.380 . S
Eu1217 O1252 2.432 . S
Eu1217 O1256 2.558 . S
Eu1217 O1257 2.612 . S
Eu1217 O1259 2.339 . S
Eu1217 O1260 2.563 . S
Eu1217 O1261 2.419 . S
Eu1217 C1281 2.848 . S
N1218 C1210 1.362 . S
N1218 Eu1217 2.657 . S
N1218 C1219 1.334 . S
C1219 N1218 1.334 . S
C1219 C1221 1.413 . S
C1219 H1226 0.929 . S
C1220 C1208 1.392 . S
C1220 C1221 1.367 . S
C1220 H1228 0.930 . S
C1221 C1219 1.413 . S
C1221 C1220 1.367 . S
C1221 H1223 0.930 . S
H1222 C1215 0.930 . S
H1223 C1221 0.930 . S
H1224 C1212 0.930 . S
H1225 C1213 0.930 . S
H1226 C1219 0.929 . S
H1227 C1241 0.930 . S
H1228 C1220 0.930 . S
H1229 C1247 0.930 . S
H1230 C1238 0.929 . S
H1231 C1245 0.930 . S
H1232 C1209 0.931 . S
H1233 C1239 0.930 . S
H1234 C1272 0.930 . S
H1235 C1216 0.930 . S
H1236 C1271 0.931 . S
N1237 Eu1206 2.657 . S
N1237 C1238 1.334 . S
N1237 C1242 1.362 . S
C1238 H1230 0.929 . S
C1238 N1237 1.334 . S
C1238 C1241 1.413 . S
C1239 H1233 0.930 . S
C1239 C1240 1.392 . S
C1239 C1241 1.367 . S
C1240 C1239 1.392 . S
C1240 C1242 1.420 . S
C1240 C1272 1.423 . S
C1241 H1227 0.930 . S
C1241 C1238 1.413 . S
C1241 C1239 1.367 . S
C1242 N1237 1.362 . S
C1242 C1240 1.420 . S
C1242 C1246 1.429 . S
H1243 C1248 0.930 . S
N1244 Eu1206 2.609 . S
N1244 C1246 1.377 . S
N1244 C1247 1.321 . S
C1245 H1231 0.930 . S
C1245 C1247 1.400 . S
C1245 C1248 1.386 . S
C1246 C1242 1.429 . S
C1246 N1244 1.377 . S
C1246 C1249 1.411 . S
C1247 H1229 0.930 . S
C1247 N1244 1.321 . S
C1247 C1245 1.400 . S
C1248 H1243 0.930 . S
C1248 C1245 1.386 . S
C1248 C1249 1.395 . S
C1249 C1246 1.411 . S
C1249 C1248 1.395 . S
C1249 C1271 1.420 . S
O1250 Eu1206 2.558 . S
O1250 C1270 1.257 . S
O1251 Eu1206 2.612 . S
O1251 Eu1217 2.380 . S
O1251 C1262 1.276 . S
O1252 Eu1217 2.432 . S
O1252 C1269 1.264 . S
O1253 Eu1206 2.339 . S
O1253 C1269 1.254 . S
O1254 Eu1206 2.563 . S
O1254 C1262 1.235 . S
O1255 Eu1206 2.419 . S
O1255 C1270 1.249 . S
O1256 Eu1217 2.558 . S
O1256 C1281 1.257 . S
O1257 Eu1206 2.380 . S
O1257 Eu1217 2.612 . S
O1257 C1273 1.276 . S
O1258 Eu1206 2.432 . S
O1258 C1280 1.264 . S
O1259 Eu1217 2.339 . S
O1259 C1280 1.254 . S
O1260 Eu1217 2.563 . S
O1260 C1273 1.235 . S
O1261 Eu1217 2.419 . S
O1261 C1281 1.249 . S
C1262 O1251 1.276 . S
C1262 O1254 1.235 . S
C1263 C1265 1.393 . S
C1263 C1267 1.395 . S
C1263 C1270 1.492 . S
C1264 C1265 1.392 . S
C1264 C1266 1.386 . S
C1265 C1263 1.393 . S
C1265 C1264 1.392 . S
C1265 H1282 0.930 . S
C1266 C1264 1.386 . S
C1266 C1268 1.395 . S
C1266 H1283 0.930 . S
C1267 C1263 1.395 . S
C1267 C1268 1.379 . S
C1267 H1284 0.930 . S
C1268 C1266 1.395 . S
C1268 C1267 1.379 . S
C1268 H1285 0.930 . S
C1269 O1252 1.264 . S
C1269 O1253 1.254 . S
C1270 Eu1206 2.848 . S
C1270 O1250 1.257 . S
C1270 O1255 1.249 . S
C1270 C1263 1.492 . S
C1271 H1236 0.931 . S
C1271 C1249 1.420 . S
C1271 C1272 1.351 . S
C1272 H1234 0.930 . S
C1272 C1240 1.423 . S
C1272 C1271 1.351 . S
C1273 O1257 1.276 . S
C1273 O1260 1.235 . S
C1274 C1275 1.393 . S
C1274 C1278 1.395 . S
C1274 C1281 1.492 . S
C1275 C1274 1.393 . S
C1275 C1276 1.392 . S
C1275 H1286 0.930 . S
C1276 C1275 1.392 . S
C1276 C1277 1.386 . S
C1277 C1276 1.386 . S
C1277 C1279 1.395 . S
C1277 H1287 0.930 . S
C1278 C1274 1.395 . S
C1278 C1279 1.379 . S
C1278 H1288 0.930 . S
C1279 C1277 1.395 . S
C1279 C1278 1.379 . S
C1279 H1289 0.930 . S
C1280 O1258 1.264 . S
C1280 O1259 1.254 . S
C1281 Eu1217 2.848 . S
C1281 O1256 1.257 . S
C1281 O1261 1.249 . S
C1281 C1274 1.492 . S
H1282 C1265 0.930 . S
H1283 C1266 0.930 . S
H1284 C1267 0.930 . S
H1285 C1268 0.930 . S
H1286 C1275 0.930 . S
H1287 C1277 0.930 . S
H1288 C1278 0.930 . S
H1289 C1279 0.930 . S
Eu1290 N1321 2.657 . S
Eu1290 N1328 2.609 . S
Eu1290 O1334 2.558 . S
Eu1290 O1335 2.612 . S
Eu1290 O1337 2.339 . S
Eu1290 O1338 2.563 . S
Eu1290 O1339 2.419 . S
Eu1290 O1341 2.380 . S
Eu1290 O1342 2.432 . S
Eu1290 C1354 2.848 . S
C1291 C1294 1.429 . S
C1291 C1295 1.411 . S
C1291 N1298 1.377 . S
C1292 C1294 1.420 . S
C1292 C1296 1.423 . S
C1292 C1304 1.392 . S
C1293 C1295 1.420 . S
C1293 C1296 1.351 . S
C1293 H1316 0.931 . S
C1294 C1291 1.429 . S
C1294 C1292 1.420 . S
C1294 N1302 1.362 . S
C1295 C1291 1.411 . S
C1295 C1293 1.420 . S
C1295 C1300 1.395 . S
C1296 C1292 1.423 . S
C1296 C1293 1.351 . S
C1296 H1308 0.930 . S
C1297 C1299 1.400 . S
C1297 C1300 1.386 . S
C1297 H1309 0.930 . S
N1298 C1291 1.377 . S
N1298 C1299 1.321 . S
N1298 Eu1301 2.609 . S
C1299 C1297 1.400 . S
C1299 N1298 1.321 . S
C1299 H1306 0.930 . S
C1300 C1295 1.395 . S
C1300 C1297 1.386 . S
C1300 H1319 0.930 . S
Eu1301 N1298 2.609 . S
Eu1301 N1302 2.657 . S
Eu1301 O1335 2.380 . S
Eu1301 O1336 2.432 . S
Eu1301 O1340 2.558 . S
Eu1301 O1341 2.612 . S
Eu1301 O1343 2.339 . S
Eu1301 O1344 2.563 . S
Eu1301 O1345 2.419 . S
Eu1301 C1365 2.848 . S
N1302 C1294 1.362 . S
N1302 Eu1301 2.657 . S
N1302 C1303 1.334 . S
C1303 N1302 1.334 . S
C1303 C1305 1.413 . S
C1303 H1310 0.929 . S
C1304 C1292 1.392 . S
C1304 C1305 1.367 . S
C1304 H1312 0.930 . S
C1305 C1303 1.413 . S
C1305 C1304 1.367 . S
C1305 H1307 0.930 . S
H1306 C1299 0.930 . S
H1307 C1305 0.930 . S
H1308 C1296 0.930 . S
H1309 C1297 0.930 . S
H1310 C1303 0.929 . S
H1311 C1325 0.930 . S
H1312 C1304 0.930 . S
H1313 C1331 0.930 . S
H1314 C1322 0.929 . S
H1315 C1329 0.930 . S
H1316 C1293 0.931 . S
H1317 C1323 0.930 . S
H1318 C1356 0.930 . S
H1319 C1300 0.930 . S
H1320 C1355 0.931 . S
N1321 Eu1290 2.657 . S
N1321 C1322 1.334 . S
N1321 C1326 1.362 . S
C1322 H1314 0.929 . S
C1322 N1321 1.334 . S
C1322 C1325 1.413 . S
C1323 H1317 0.930 . S
C1323 C1324 1.392 . S
C1323 C1325 1.367 . S
C1324 C1323 1.392 . S
C1324 C1326 1.420 . S
C1324 C1356 1.423 . S
C1325 H1311 0.930 . S
C1325 C1322 1.413 . S
C1325 C1323 1.367 . S
C1326 N1321 1.362 . S
C1326 C1324 1.420 . S
C1326 C1330 1.429 . S
H1327 C1332 0.930 . S
N1328 Eu1290 2.609 . S
N1328 C1330 1.377 . S
N1328 C1331 1.321 . S
C1329 H1315 0.930 . S
C1329 C1331 1.400 . S
C1329 C1332 1.386 . S
C1330 C1326 1.429 . S
C1330 N1328 1.377 . S
C1330 C1333 1.411 . S
C1331 H1313 0.930 . S
C1331 N1328 1.321 . S
C1331 C1329 1.400 . S
C1332 H1327 0.930 . S
C1332 C1329 1.386 . S
C1332 C1333 1.395 . S
C1333 C1330 1.411 . S
C1333 C1332 1.395 . S
C1333 C1355 1.420 . S
O1334 Eu1290 2.558 . S
O1334 C1354 1.257 . S
O1335 Eu1290 2.612 . S
O1335 Eu1301 2.380 . S
O1335 C1346 1.276 . S
O1336 Eu1301 2.432 . S
O1336 C1353 1.264 . S
O1337 Eu1290 2.339 . S
O1337 C1353 1.254 . S
O1338 Eu1290 2.563 . S
O1338 C1346 1.235 . S
O1339 Eu1290 2.419 . S
O1339 C1354 1.249 . S
O1340 Eu1301 2.558 . S
O1340 C1365 1.257 . S
O1341 Eu1290 2.380 . S
O1341 Eu1301 2.612 . S
O1341 C1357 1.276 . S
O1342 Eu1290 2.432 . S
O1342 C1364 1.264 . S
O1343 Eu1301 2.339 . S
O1343 C1364 1.254 . S
O1344 Eu1301 2.563 . S
O1344 C1357 1.235 . S
O1345 Eu1301 2.419 . S
O1345 C1365 1.249 . S
C1346 O1335 1.276 . S
C1346 O1338 1.235 . S
C1347 C1349 1.393 . S
C1347 C1351 1.395 . S
C1347 C1354 1.492 . S
C1348 C1349 1.392 . S
C1348 C1350 1.386 . S
C1349 C1347 1.393 . S
C1349 C1348 1.392 . S
C1349 H1366 0.930 . S
C1350 C1348 1.386 . S
C1350 C1352 1.395 . S
C1350 H1367 0.930 . S
C1351 C1347 1.395 . S
C1351 C1352 1.379 . S
C1351 H1368 0.930 . S
C1352 C1350 1.395 . S
C1352 C1351 1.379 . S
C1352 H1369 0.930 . S
C1353 O1336 1.264 . S
C1353 O1337 1.254 . S
C1354 Eu1290 2.848 . S
C1354 O1334 1.257 . S
C1354 O1339 1.249 . S
C1354 C1347 1.492 . S
C1355 H1320 0.931 . S
C1355 C1333 1.420 . S
C1355 C1356 1.351 . S
C1356 H1318 0.930 . S
C1356 C1324 1.423 . S
C1356 C1355 1.351 . S
C1357 O1341 1.276 . S
C1357 O1344 1.235 . S
C1358 C1359 1.393 . S
C1358 C1362 1.395 . S
C1358 C1365 1.492 . S
C1359 C1358 1.393 . S
C1359 C1360 1.392 . S
C1359 H1370 0.930 . S
C1360 C1359 1.392 . S
C1360 C1361 1.386 . S
C1361 C1360 1.386 . S
C1361 C1363 1.395 . S
C1361 H1371 0.930 . S
C1362 C1358 1.395 . S
C1362 C1363 1.379 . S
C1362 H1372 0.930 . S
C1363 C1361 1.395 . S
C1363 C1362 1.379 . S
C1363 H1373 0.930 . S
C1364 O1342 1.264 . S
C1364 O1343 1.254 . S
C1365 Eu1301 2.848 . S
C1365 O1340 1.257 . S
C1365 O1345 1.249 . S
C1365 C1358 1.492 . S
H1366 C1349 0.930 . S
H1367 C1350 0.930 . S
H1368 C1351 0.930 . S
H1369 C1352 0.930 . S
H1370 C1359 0.930 . S
H1371 C1361 0.930 . S
H1372 C1362 0.930 . S
H1373 C1363 0.930 . S
Eu1374 N1405 2.657 . S
Eu1374 N1412 2.609 . S
Eu1374 O1418 2.558 . S
Eu1374 O1419 2.612 . S
Eu1374 O1421 2.339 . S
Eu1374 O1422 2.563 . S
Eu1374 O1423 2.419 . S
Eu1374 O1425 2.380 . S
Eu1374 O1426 2.432 . S
Eu1374 C1438 2.848 . S
C1375 C1378 1.429 . S
C1375 C1379 1.411 . S
C1375 N1382 1.377 . S
C1376 C1378 1.420 . S
C1376 C1380 1.423 . S
C1376 C1388 1.392 . S
C1377 C1379 1.420 . S
C1377 C1380 1.351 . S
C1377 H1400 0.931 . S
C1378 C1375 1.429 . S
C1378 C1376 1.420 . S
C1378 N1386 1.362 . S
C1379 C1375 1.411 . S
C1379 C1377 1.420 . S
C1379 C1384 1.395 . S
C1380 C1376 1.423 . S
C1380 C1377 1.351 . S
C1380 H1392 0.930 . S
C1381 C1383 1.400 . S
C1381 C1384 1.386 . S
C1381 H1393 0.930 . S
N1382 C1375 1.377 . S
N1382 C1383 1.321 . S
N1382 Eu1385 2.609 . S
C1383 C1381 1.400 . S
C1383 N1382 1.321 . S
C1383 H1390 0.930 . S
C1384 C1379 1.395 . S
C1384 C1381 1.386 . S
C1384 H1403 0.930 . S
Eu1385 N1382 2.609 . S
Eu1385 N1386 2.657 . S
Eu1385 O1419 2.380 . S
Eu1385 O1420 2.432 . S
Eu1385 O1424 2.558 . S
Eu1385 O1425 2.612 . S
Eu1385 O1427 2.339 . S
Eu1385 O1428 2.563 . S
Eu1385 O1429 2.419 . S
Eu1385 C1449 2.848 . S
N1386 C1378 1.362 . S
N1386 Eu1385 2.657 . S
N1386 C1387 1.334 . S
C1387 N1386 1.334 . S
C1387 C1389 1.413 . S
C1387 H1394 0.929 . S
C1388 C1376 1.392 . S
C1388 C1389 1.367 . S
C1388 H1396 0.930 . S
C1389 C1387 1.413 . S
C1389 C1388 1.367 . S
C1389 H1391 0.930 . S
H1390 C1383 0.930 . S
H1391 C1389 0.930 . S
H1392 C1380 0.930 . S
H1393 C1381 0.930 . S
H1394 C1387 0.929 . S
H1395 C1409 0.930 . S
H1396 C1388 0.930 . S
H1397 C1415 0.930 . S
H1398 C1406 0.929 . S
H1399 C1413 0.930 . S
H1400 C1377 0.931 . S
H1401 C1407 0.930 . S
H1402 C1440 0.930 . S
H1403 C1384 0.930 . S
H1404 C1439 0.931 . S
N1405 Eu1374 2.657 . S
N1405 C1406 1.334 . S
N1405 C1410 1.362 . S
C1406 H1398 0.929 . S
C1406 N1405 1.334 . S
C1406 C1409 1.413 . S
C1407 H1401 0.930 . S
C1407 C1408 1.392 . S
C1407 C1409 1.367 . S
C1408 C1407 1.392 . S
C1408 C1410 1.420 . S
C1408 C1440 1.423 . S
C1409 H1395 0.930 . S
C1409 C1406 1.413 . S
C1409 C1407 1.367 . S
C1410 N1405 1.362 . S
C1410 C1408 1.420 . S
C1410 C1414 1.429 . S
H1411 C1416 0.930 . S
N1412 Eu1374 2.609 . S
N1412 C1414 1.377 . S
N1412 C1415 1.321 . S
C1413 H1399 0.930 . S
C1413 C1415 1.400 . S
C1413 C1416 1.386 . S
C1414 C1410 1.429 . S
C1414 N1412 1.377 . S
C1414 C1417 1.411 . S
C1415 H1397 0.930 . S
C1415 N1412 1.321 . S
C1415 C1413 1.400 . S
C1416 H1411 0.930 . S
C1416 C1413 1.386 . S
C1416 C1417 1.395 . S
C1417 C1414 1.411 . S
C1417 C1416 1.395 . S
C1417 C1439 1.420 . S
O1418 Eu1374 2.558 . S
O1418 C1438 1.257 . S
O1419 Eu1374 2.612 . S
O1419 Eu1385 2.380 . S
O1419 C1430 1.276 . S
O1420 Eu1385 2.432 . S
O1420 C1437 1.264 . S
O1421 Eu1374 2.339 . S
O1421 C1437 1.254 . S
O1422 Eu1374 2.563 . S
O1422 C1430 1.235 . S
O1423 Eu1374 2.419 . S
O1423 C1438 1.249 . S
O1424 Eu1385 2.558 . S
O1424 C1449 1.257 . S
O1425 Eu1374 2.380 . S
O1425 Eu1385 2.612 . S
O1425 C1441 1.276 . S
O1426 Eu1374 2.432 . S
O1426 C1448 1.264 . S
O1427 Eu1385 2.339 . S
O1427 C1448 1.254 . S
O1428 Eu1385 2.563 . S
O1428 C1441 1.235 . S
O1429 Eu1385 2.419 . S
O1429 C1449 1.249 . S
C1430 O1419 1.276 . S
C1430 O1422 1.235 . S
C1431 C1433 1.393 . S
C1431 C1435 1.395 . S
C1431 C1438 1.492 . S
C1432 C1433 1.392 . S
C1432 C1434 1.386 . S
C1433 C1431 1.393 . S
C1433 C1432 1.392 . S
C1433 H1450 0.930 . S
C1434 C1432 1.386 . S
C1434 C1436 1.395 . S
C1434 H1451 0.930 . S
C1435 C1431 1.395 . S
C1435 C1436 1.379 . S
C1435 H1452 0.930 . S
C1436 C1434 1.395 . S
C1436 C1435 1.379 . S
C1436 H1453 0.930 . S
C1437 O1420 1.264 . S
C1437 O1421 1.254 . S
C1438 Eu1374 2.848 . S
C1438 O1418 1.257 . S
C1438 O1423 1.249 . S
C1438 C1431 1.492 . S
C1439 H1404 0.931 . S
C1439 C1417 1.420 . S
C1439 C1440 1.351 . S
C1440 H1402 0.930 . S
C1440 C1408 1.423 . S
C1440 C1439 1.351 . S
C1441 O1425 1.276 . S
C1441 O1428 1.235 . S
C1442 C1443 1.393 . S
C1442 C1446 1.395 . S
C1442 C1449 1.492 . S
C1443 C1442 1.393 . S
C1443 C1444 1.392 . S
C1443 H1454 0.930 . S
C1444 C1443 1.392 . S
C1444 C1445 1.386 . S
C1445 C1444 1.386 . S
C1445 C1447 1.395 . S
C1445 H1455 0.930 . S
C1446 C1442 1.395 . S
C1446 C1447 1.379 . S
C1446 H1456 0.930 . S
C1447 C1445 1.395 . S
C1447 C1446 1.379 . S
C1447 H1457 0.930 . S
C1448 O1426 1.264 . S
C1448 O1427 1.254 . S
C1449 Eu1385 2.848 . S
C1449 O1424 1.257 . S
C1449 O1429 1.249 . S
C1449 C1442 1.492 . S
H1450 C1433 0.930 . S
H1451 C1434 0.930 . S
H1452 C1435 0.930 . S
H1453 C1436 0.930 . S
H1454 C1443 0.930 . S
H1455 C1445 0.930 . S
H1456 C1446 0.930 . S
H1457 C1447 0.930 . S
H1458 C1464 0.930 . S
H1459 C1468 0.930 . S
H1460 C1473 0.929 . S
H1461 C1471 0.929 . S
H1462 C1466 0.929 . S
H1463 C1472 0.929 . S
C1464 H1458 0.930 . S
C1464 C1465 1.367 . S
C1464 C1472 1.378 . S
C1465 C1464 1.367 . S
C1465 C1473 1.433 . S
C1466 H1462 0.929 . S
C1466 C1468 1.378 . S
C1466 C1470 1.350 . S
C1467 C1470 1.463 . S
C1467 C1472 1.350 . S
C1467 N1475 1.427 . S
C1468 H1459 0.930 . S
C1468 C1466 1.378 . S
C1468 C1469 1.367 . S
C1469 C1468 1.367 . S
C1469 C1471 1.433 . S
C1470 C1466 1.350 . S
C1470 C1467 1.463 . S
C1470 N1474 1.427 . S
C1471 H1461 0.929 . S
C1471 C1469 1.433 . S
C1471 N1474 1.384 . S
C1472 H1463 0.929 . S
C1472 C1464 1.378 . S
C1472 C1467 1.350 . S
C1473 H1460 0.929 . S
C1473 C1465 1.433 . S
C1473 N1475 1.384 . S
N1474 C1470 1.427 . S
N1474 C1471 1.384 . S
N1475 C1467 1.427 . S
N1475 C1473 1.384 . S
H1476 C1482 0.930 . S
H1477 C1486 0.930 . S
H1478 C1491 0.929 . S
H1479 C1489 0.929 . S
H1480 C1484 0.929 . S
H1481 C1490 0.929 . S
C1482 H1476 0.930 . S
C1482 C1483 1.367 . S
C1482 C1490 1.378 . S
C1483 C1482 1.367 . S
C1483 C1491 1.433 . S
C1484 H1480 0.929 . S
C1484 C1486 1.378 . S
C1484 C1488 1.350 . S
C1485 C1488 1.463 . S
C1485 C1490 1.350 . S
C1485 N1493 1.427 . S
C1486 H1477 0.930 . S
C1486 C1484 1.378 . S
C1486 C1487 1.367 . S
C1487 C1486 1.367 . S
C1487 C1489 1.433 . S
C1488 C1484 1.350 . S
C1488 C1485 1.463 . S
C1488 N1492 1.427 . S
C1489 H1479 0.929 . S
C1489 C1487 1.433 . S
C1489 N1492 1.384 . S
C1490 H1481 0.929 . S
C1490 C1482 1.378 . S
C1490 C1485 1.350 . S
C1491 H1478 0.929 . S
C1491 C1483 1.433 . S
C1491 N1493 1.384 . S
N1492 C1488 1.427 . S
N1492 C1489 1.384 . S
N1493 C1485 1.427 . S
N1493 C1491 1.384 . S
H1494 C1500 0.930 . S
H1495 C1504 0.930 . S
H1496 C1509 0.929 . S
H1497 C1507 0.929 . S
H1498 C1502 0.929 . S
H1499 C1508 0.929 . S
C1500 H1494 0.930 . S
C1500 C1501 1.367 . S
C1500 C1508 1.378 . S
C1501 C1500 1.367 . S
C1501 C1509 1.433 . S
C1502 H1498 0.929 . S
C1502 C1504 1.378 . S
C1502 C1506 1.350 . S
C1503 C1506 1.463 . S
C1503 C1508 1.350 . S
C1503 N1511 1.427 . S
C1504 H1495 0.930 . S
C1504 C1502 1.378 . S
C1504 C1505 1.367 . S
C1505 C1504 1.367 . S
C1505 C1507 1.433 . S
C1506 C1502 1.350 . S
C1506 C1503 1.463 . S
C1506 N1510 1.427 . S
C1507 H1497 0.929 . S
C1507 C1505 1.433 . S
C1507 N1510 1.384 . S
C1508 H1499 0.929 . S
C1508 C1500 1.378 . S
C1508 C1503 1.350 . S
C1509 H1496 0.929 . S
C1509 C1501 1.433 . S
C1509 N1511 1.384 . S
N1510 C1506 1.427 . S
N1510 C1507 1.384 . S
N1511 C1503 1.427 . S
N1511 C1509 1.384 . S
H1512 C1518 0.930 . S
H1513 C1522 0.930 . S
H1514 C1527 0.929 . S
H1515 C1525 0.929 . S
H1516 C1520 0.929 . S
H1517 C1526 0.929 . S
C1518 H1512 0.930 . S
C1518 C1519 1.367 . S
C1518 C1526 1.378 . S
C1519 C1518 1.367 . S
C1519 C1527 1.433 . S
C1520 H1516 0.929 . S
C1520 C1522 1.378 . S
C1520 C1524 1.350 . S
C1521 C1524 1.463 . S
C1521 C1526 1.350 . S
C1521 N1529 1.427 . S
C1522 H1513 0.930 . S
C1522 C1520 1.378 . S
C1522 C1523 1.367 . S
C1523 C1522 1.367 . S
C1523 C1525 1.433 . S
C1524 C1520 1.350 . S
C1524 C1521 1.463 . S
C1524 N1528 1.427 . S
C1525 H1515 0.929 . S
C1525 C1523 1.433 . S
C1525 N1528 1.384 . S
C1526 H1517 0.929 . S
C1526 C1518 1.378 . S
C1526 C1521 1.350 . S
C1527 H1514 0.929 . S
C1527 C1519 1.433 . S
C1527 N1529 1.384 . S
N1528 C1524 1.427 . S
N1528 C1525 1.384 . S
N1529 C1521 1.427 . S
N1529 C1527 1.384 . S
H1530 C1536 0.930 . S
H1531 C1540 0.930 . S
H1532 C1545 0.929 . S
H1533 C1543 0.929 1_554 S
H1534 C1538 0.929 . S
H1535 C1544 0.929 . S
C1536 H1530 0.930 . S
C1536 C1537 1.367 . S
C1536 C1544 1.378 . S
C1537 C1536 1.367 . S
C1537 C1545 1.433 . S
C1538 H1534 0.929 . S
C1538 C1540 1.378 . S
C1538 C1542 1.350 . S
C1539 C1542 1.463 . S
C1539 C1544 1.350 . S
C1539 N1547 1.427 . S
C1540 H1531 0.930 . S
C1540 C1538 1.378 . S
C1540 C1541 1.367 . S
C1541 C1540 1.367 . S
C1541 C1543 1.433 . S
C1542 C1538 1.350 . S
C1542 C1539 1.463 . S
C1542 N1546 1.427 . S
C1543 H1533 0.929 1_556 S
C1543 C1541 1.433 . S
C1543 N1546 1.384 . S
C1544 H1535 0.929 . S
C1544 C1536 1.378 . S
C1544 C1539 1.350 . S
C1545 H1532 0.929 . S
C1545 C1537 1.433 . S
C1545 N1547 1.384 . S
N1546 C1542 1.427 . S
N1546 C1543 1.384 . S
N1547 C1539 1.427 . S
N1547 C1545 1.384 . S
H1548 C1554 0.930 . S
H1549 C1558 0.930 . S
H1550 C1563 0.929 . S
H1551 C1561 0.929 1_554 S
H1552 C1556 0.929 . S
H1553 C1562 0.929 . S
C1554 H1548 0.930 . S
C1554 C1555 1.367 . S
C1554 C1562 1.378 . S
C1555 C1554 1.367 . S
C1555 C1563 1.433 . S
C1556 H1552 0.929 . S
C1556 C1558 1.378 . S
C1556 C1560 1.350 . S
C1557 C1560 1.463 . S
C1557 C1562 1.350 . S
C1557 N1565 1.427 . S
C1558 H1549 0.930 . S
C1558 C1556 1.378 . S
C1558 C1559 1.367 . S
C1559 C1558 1.367 . S
C1559 C1561 1.433 . S
C1560 C1556 1.350 . S
C1560 C1557 1.463 . S
C1560 N1564 1.427 . S
C1561 H1551 0.929 1_556 S
C1561 C1559 1.433 . S
C1561 N1564 1.384 . S
C1562 H1553 0.929 . S
C1562 C1554 1.378 . S
C1562 C1557 1.350 . S
C1563 H1550 0.929 . S
C1563 C1555 1.433 . S
C1563 N1565 1.384 . S
N1564 C1560 1.427 . S
N1564 C1561 1.384 . S
N1565 C1557 1.427 . S
N1565 C1563 1.384 . S
H1566 C1572 0.930 . S
H1567 C1576 0.930 . S
H1568 C1581 0.929 . S
H1569 C1579 0.929 1_554 S
H1570 C1574 0.929 . S
H1571 C1580 0.929 . S
C1572 H1566 0.930 . S
C1572 C1573 1.367 . S
C1572 C1580 1.378 . S
C1573 C1572 1.367 . S
C1573 C1581 1.433 . S
C1574 H1570 0.929 . S
C1574 C1576 1.378 . S
C1574 C1578 1.350 . S
C1575 C1578 1.463 . S
C1575 C1580 1.350 . S
C1575 N1583 1.427 . S
C1576 H1567 0.930 . S
C1576 C1574 1.378 . S
C1576 C1577 1.367 . S
C1577 C1576 1.367 . S
C1577 C1579 1.433 . S
C1578 C1574 1.350 . S
C1578 C1575 1.463 . S
C1578 N1582 1.427 . S
C1579 H1569 0.929 1_556 S
C1579 C1577 1.433 . S
C1579 N1582 1.384 . S
C1580 H1571 0.929 . S
C1580 C1572 1.378 . S
C1580 C1575 1.350 . S
C1581 H1568 0.929 . S
C1581 C1573 1.433 . S
C1581 N1583 1.384 . S
N1582 C1578 1.427 . S
N1582 C1579 1.384 . S
N1583 C1575 1.427 . S
N1583 C1581 1.384 . S
H1584 C1590 0.930 . S
H1585 C1594 0.930 . S
H1586 C1599 0.929 . S
H1587 C1597 0.929 1_554 S
H1588 C1592 0.929 . S
H1589 C1598 0.929 . S
C1590 H1584 0.930 . S
C1590 C1591 1.367 . S
C1590 C1598 1.378 . S
C1591 C1590 1.367 . S
C1591 C1599 1.433 . S
C1592 H1588 0.929 . S
C1592 C1594 1.378 . S
C1592 C1596 1.350 . S
C1593 C1596 1.463 . S
C1593 C1598 1.350 . S
C1593 N1601 1.427 . S
C1594 H1585 0.930 . S
C1594 C1592 1.378 . S
C1594 C1595 1.367 . S
C1595 C1594 1.367 . S
C1595 C1597 1.433 . S
C1596 C1592 1.350 . S
C1596 C1593 1.463 . S
C1596 N1600 1.427 . S
C1597 H1587 0.929 1_556 S
C1597 C1595 1.433 . S
C1597 N1600 1.384 . S
C1598 H1589 0.929 . S
C1598 C1590 1.378 . S
C1598 C1593 1.350 . S
C1599 H1586 0.929 . S
C1599 C1591 1.433 . S
C1599 N1601 1.384 . S
N1600 C1596 1.427 . S
N1600 C1597 1.384 . S
N1601 C1593 1.427 . S
N1601 C1599 1.384 . S
H1602 C1608 0.930 . S
H1603 C1612 0.930 . S
H1604 C1617 0.929 . S
H1605 C1615 0.929 . S
H1606 C1610 0.929 . S
H1607 C1616 0.929 . S
C1608 H1602 0.930 . S
C1608 C1609 1.367 . S
C1608 C1616 1.378 . S
C1609 C1608 1.367 . S
C1609 C1617 1.433 . S
C1610 H1606 0.929 . S
C1610 C1612 1.378 . S
C1610 C1614 1.350 . S
C1611 C1614 1.463 . S
C1611 C1616 1.350 . S
C1611 N1619 1.427 . S
C1612 H1603 0.930 . S
C1612 C1610 1.378 . S
C1612 C1613 1.367 . S
C1613 C1612 1.367 . S
C1613 C1615 1.433 . S
C1614 C1610 1.350 . S
C1614 C1611 1.463 . S
C1614 N1618 1.427 . S
C1615 H1605 0.929 . S
C1615 C1613 1.433 . S
C1615 N1618 1.384 . S
C1616 H1607 0.929 . S
C1616 C1608 1.378 . S
C1616 C1611 1.350 . S
C1617 H1604 0.929 . S
C1617 C1609 1.433 . S
C1617 N1619 1.384 . S
N1618 C1614 1.427 . S
N1618 C1615 1.384 . S
N1619 C1611 1.427 . S
N1619 C1617 1.384 . S
H1620 C1626 0.930 . S
H1621 C1630 0.930 . S
H1622 C1635 0.929 . S
H1623 C1633 0.929 . S
H1624 C1628 0.929 . S
H1625 C1634 0.929 . S
C1626 H1620 0.930 . S
C1626 C1627 1.367 . S
C1626 C1634 1.378 . S
C1627 C1626 1.367 . S
C1627 C1635 1.433 . S
C1628 H1624 0.929 . S
C1628 C1630 1.378 . S
C1628 C1632 1.350 . S
C1629 C1632 1.463 . S
C1629 C1634 1.350 . S
C1629 N1637 1.427 . S
C1630 H1621 0.930 . S
C1630 C1628 1.378 . S
C1630 C1631 1.367 . S
C1631 C1630 1.367 . S
C1631 C1633 1.433 . S
C1632 C1628 1.350 . S
C1632 C1629 1.463 . S
C1632 N1636 1.427 . S
C1633 H1623 0.929 . S
C1633 C1631 1.433 . S
C1633 N1636 1.384 . S
C1634 H1625 0.929 . S
C1634 C1626 1.378 . S
C1634 C1629 1.350 . S
C1635 H1622 0.929 . S
C1635 C1627 1.433 . S
C1635 N1637 1.384 . S
N1636 C1632 1.427 . S
N1636 C1633 1.384 . S
N1637 C1629 1.427 . S
N1637 C1635 1.384 . S
H1638 C1644 0.930 . S
H1639 C1648 0.930 . S
H1640 C1653 0.929 . S
H1641 C1651 0.929 . S
H1642 C1646 0.929 . S
H1643 C1652 0.929 . S
C1644 H1638 0.930 . S
C1644 C1645 1.367 . S
C1644 C1652 1.378 . S
C1645 C1644 1.367 . S
C1645 C1653 1.433 . S
C1646 H1642 0.929 . S
C1646 C1648 1.378 . S
C1646 C1650 1.350 . S
C1647 C1650 1.463 . S
C1647 C1652 1.350 . S
C1647 N1655 1.427 . S
C1648 H1639 0.930 . S
C1648 C1646 1.378 . S
C1648 C1649 1.367 . S
C1649 C1648 1.367 . S
C1649 C1651 1.433 . S
C1650 C1646 1.350 . S
C1650 C1647 1.463 . S
C1650 N1654 1.427 . S
C1651 H1641 0.929 . S
C1651 C1649 1.433 . S
C1651 N1654 1.384 . S
C1652 H1643 0.929 . S
C1652 C1644 1.378 . S
C1652 C1647 1.350 . S
C1653 H1640 0.929 . S
C1653 C1645 1.433 . S
C1653 N1655 1.384 . S
N1654 C1650 1.427 . S
N1654 C1651 1.384 . S
N1655 C1647 1.427 . S
N1655 C1653 1.384 . S
H1656 C1662 0.930 . S
H1657 C1666 0.930 . S
H1658 C1671 0.929 . S
H1659 C1669 0.929 . S
H1660 C1664 0.929 . S
H1661 C1670 0.929 . S
C1662 H1656 0.930 . S
C1662 C1663 1.367 . S
C1662 C1670 1.378 . S
C1663 C1662 1.367 . S
C1663 C1671 1.433 . S
C1664 H1660 0.929 . S
C1664 C1666 1.378 . S
C1664 C1668 1.350 . S
C1665 C1668 1.463 . S
C1665 C1670 1.350 . S
C1665 N1673 1.427 . S
C1666 H1657 0.930 . S
C1666 C1664 1.378 . S
C1666 C1667 1.367 . S
C1667 C1666 1.367 . S
C1667 C1669 1.433 . S
C1668 C1664 1.350 . S
C1668 C1665 1.463 . S
C1668 N1672 1.427 . S
C1669 H1659 0.929 . S
C1669 C1667 1.433 . S
C1669 N1672 1.384 . S
C1670 H1661 0.929 . S
C1670 C1662 1.378 . S
C1670 C1665 1.350 . S
C1671 H1658 0.929 . S
C1671 C1663 1.433 . S
C1671 N1673 1.384 . S
N1672 C1668 1.427 . S
N1672 C1669 1.384 . S
N1673 C1665 1.427 . S
N1673 C1671 1.384 . S
H1674 C1680 0.971 . S
H1675 C1684 0.930 . S
H1676 C1689 0.922 . S
H1677 C1687 0.929 . S
H1678 C1682 0.929 . S
H1679 C1688 0.929 . S
C1680 H1674 0.971 . S
C1680 C1681 1.358 . S
C1680 C1688 1.347 1_655 S
C1681 C1680 1.358 . S
C1681 C1689 1.433 1_655 S
C1682 H1678 0.929 . S
C1682 C1684 1.378 . S
C1682 C1686 1.350 . S
C1683 C1686 1.463 . S
C1683 C1688 1.350 . S
C1683 N1691 1.427 . S
C1684 H1675 0.930 . S
C1684 C1682 1.378 . S
C1684 C1685 1.367 . S
C1685 C1684 1.367 . S
C1685 C1687 1.433 . S
C1686 C1682 1.350 . S
C1686 C1683 1.463 . S
C1686 N1690 1.427 . S
C1687 H1677 0.929 . S
C1687 C1685 1.433 . S
C1687 N1690 1.384 . S
C1688 H1679 0.929 . S
C1688 C1680 1.347 1_455 S
C1688 C1683 1.350 . S
C1689 H1676 0.922 . S
C1689 C1681 1.433 1_455 S
C1689 N1691 1.384 . S
N1690 C1686 1.427 . S
N1690 C1687 1.384 . S
N1691 C1683 1.427 . S
N1691 C1689 1.384 . S
H1692 C1698 0.930 . S
H1693 C1702 0.930 . S
H1694 C1707 0.929 . S
H1695 C1705 0.929 . S
H1696 C1700 0.929 . S
H1697 C1706 0.929 . S
C1698 H1692 0.930 . S
C1698 C1699 1.367 . S
C1698 C1706 1.378 . S
C1699 C1698 1.367 . S
C1699 C1707 1.433 . S
C1700 H1696 0.929 . S
C1700 C1702 1.378 . S
C1700 C1704 1.350 . S
C1701 C1704 1.463 . S
C1701 C1706 1.350 . S
C1701 N1709 1.427 . S
C1702 H1693 0.930 . S
C1702 C1700 1.378 . S
C1702 C1703 1.367 . S
C1703 C1702 1.367 . S
C1703 C1705 1.433 . S
C1704 C1700 1.350 . S
C1704 C1701 1.463 . S
C1704 N1708 1.427 . S
C1705 H1695 0.929 . S
C1705 C1703 1.433 . S
C1705 N1708 1.384 . S
C1706 H1697 0.929 . S
C1706 C1698 1.378 . S
C1706 C1701 1.350 . S
C1707 H1694 0.929 . S
C1707 C1699 1.433 . S
C1707 N1709 1.384 . S
N1708 C1704 1.427 . S
N1708 C1705 1.384 . S
N1709 C1701 1.427 . S
N1709 C1707 1.384 . S
H1710 C1716 0.930 1_545 S
H1711 C1720 0.930 . S
H1712 C1725 0.929 . S
H1713 C1723 0.929 . S
H1714 C1718 0.929 . S
H1715 C1724 0.929 . S
C1716 H1710 0.930 1_565 S
C1716 C1717 1.367 1_565 S
C1716 C1724 1.378 . S
C1717 C1716 1.367 1_545 S
C1717 C1725 1.433 . S
C1718 H1714 0.929 . S
C1718 C1720 1.378 . S
C1718 C1722 1.350 . S
C1719 C1722 1.463 . S
C1719 C1724 1.350 . S
C1719 N1727 1.427 . S
C1720 H1711 0.930 . S
C1720 C1718 1.378 . S
C1720 C1721 1.367 . S
C1721 C1720 1.367 . S
C1721 C1723 1.433 . S
C1722 C1718 1.350 . S
C1722 C1719 1.463 . S
C1722 N1726 1.427 . S
C1723 H1713 0.929 . S
C1723 C1721 1.433 . S
C1723 N1726 1.384 . S
C1724 H1715 0.929 . S
C1724 C1716 1.378 . S
C1724 C1719 1.350 . S
C1725 H1712 0.929 . S
C1725 C1717 1.433 . S
C1725 N1727 1.384 1_545 S
N1726 C1722 1.427 . S
N1726 C1723 1.384 . S
N1727 C1719 1.427 . S
N1727 C1725 1.384 1_565 S
H1728 C1734 0.930 . S
H1729 C1738 0.930 . S
H1730 C1743 0.929 . S
H1731 C1741 0.929 . S
H1732 C1736 0.929 . S
H1733 C1742 0.929 . S
C1734 H1728 0.930 . S
C1734 C1735 1.367 . S
C1734 C1742 1.378 . S
C1735 C1734 1.367 . S
C1735 C1743 1.433 . S
C1736 H1732 0.929 . S
C1736 C1738 1.378 . S
C1736 C1740 1.350 . S
C1737 C1740 1.463 . S
C1737 C1742 1.350 . S
C1737 N1745 1.427 . S
C1738 H1729 0.930 . S
C1738 C1736 1.378 . S
C1738 C1739 1.367 . S
C1739 C1738 1.367 . S
C1739 C1741 1.433 . S
C1740 C1736 1.350 . S
C1740 C1737 1.463 . S
C1740 N1744 1.427 . S
C1741 H1731 0.929 . S
C1741 C1739 1.433 . S
C1741 N1744 1.384 . S
C1742 H1733 0.929 . S
C1742 C1734 1.378 . S
C1742 C1737 1.350 . S
C1743 H1730 0.929 . S
C1743 C1735 1.433 . S
C1743 N1745 1.384 . S
N1744 C1740 1.427 . S
N1744 C1741 1.384 . S
N1745 C1737 1.427 . S
N1745 C1743 1.384 . S
H1746 C1752 0.930 . S
H1747 C1756 0.930 . S
H1748 C1761 0.929 . S
H1749 C1759 0.929 . S
H1750 C1754 0.929 . S
H1751 C1760 0.929 . S
C1752 H1746 0.930 . S
C1752 C1753 1.367 . S
C1752 C1760 1.378 . S
C1753 C1752 1.367 . S
C1753 C1761 1.433 . S
C1754 H1750 0.929 . S
C1754 C1756 1.378 . S
C1754 C1758 1.350 . S
C1755 C1758 1.463 . S
C1755 C1760 1.350 . S
C1755 N1763 1.427 . S
C1756 H1747 0.930 . S
C1756 C1754 1.378 . S
C1756 C1757 1.367 . S
C1757 C1756 1.367 . S
C1757 C1759 1.433 . S
C1758 C1754 1.350 . S
C1758 C1755 1.463 . S
C1758 N1762 1.427 . S
C1759 H1749 0.929 . S
C1759 C1757 1.433 . S
C1759 N1762 1.384 . S
C1760 H1751 0.929 . S
C1760 C1752 1.378 . S
C1760 C1755 1.350 . S
C1761 H1748 0.929 . S
C1761 C1753 1.433 . S
C1761 N1763 1.384 . S
N1762 C1758 1.427 . S
N1762 C1759 1.384 . S
N1763 C1755 1.427 . S
N1763 C1761 1.384 . S
H1764 C1770 0.930 . S
H1765 C1774 0.930 . S
H1766 C1779 0.929 . S
H1767 C1777 0.929 . S
H1768 C1772 0.929 . S
H1769 C1778 0.929 . S
C1770 H1764 0.930 . S
C1770 C1771 1.367 . S
C1770 C1778 1.378 . S
C1771 C1770 1.367 . S
C1771 C1779 1.433 . S
C1772 H1768 0.929 . S
C1772 C1774 1.378 . S
C1772 C1776 1.350 . S
C1773 C1776 1.463 . S
C1773 C1778 1.350 . S
C1773 N1781 1.427 . S
C1774 H1765 0.930 . S
C1774 C1772 1.378 . S
C1774 C1775 1.367 . S
C1775 C1774 1.367 . S
C1775 C1777 1.433 . S
C1776 C1772 1.350 . S
C1776 C1773 1.463 . S
C1776 N1780 1.427 . S
C1777 H1767 0.929 . S
C1777 C1775 1.433 . S
C1777 N1780 1.384 . S
C1778 H1769 0.929 . S
C1778 C1770 1.378 . S
C1778 C1773 1.350 . S
C1779 H1766 0.929 . S
C1779 C1771 1.433 . S
C1779 N1781 1.384 . S
N1780 C1776 1.427 . S
N1780 C1777 1.384 . S
N1781 C1773 1.427 . S
N1781 C1779 1.384 . S
H1782 C1788 0.930 . S
H1783 C1792 0.930 . S
H1784 C1797 0.929 . S
H1785 C1795 0.929 . S
H1786 C1790 0.929 . S
H1787 C1796 0.929 . S
C1788 H1782 0.930 . S
C1788 C1789 1.367 . S
C1788 C1796 1.378 . S
C1789 C1788 1.367 . S
C1789 C1797 1.433 . S
C1790 H1786 0.929 . S
C1790 C1792 1.378 . S
C1790 C1794 1.350 . S
C1791 C1794 1.463 . S
C1791 C1796 1.350 . S
C1791 N1799 1.427 . S
C1792 H1783 0.930 . S
C1792 C1790 1.378 . S
C1792 C1793 1.367 . S
C1793 C1792 1.367 . S
C1793 C1795 1.433 . S
C1794 C1790 1.350 . S
C1794 C1791 1.463 . S
C1794 N1798 1.427 . S
C1795 H1785 0.929 . S
C1795 C1793 1.433 . S
C1795 N1798 1.384 . S
C1796 H1787 0.929 . S
C1796 C1788 1.378 . S
C1796 C1791 1.350 . S
C1797 H1784 0.929 . S
C1797 C1789 1.433 . S
C1797 N1799 1.384 . S
N1798 C1794 1.427 . S
N1798 C1795 1.384 . S
N1799 C1791 1.427 . S
N1799 C1797 1.384 . S
H1800 C1806 0.930 . S
H1801 C1810 0.930 . S
H1802 C1815 0.929 . S
H1803 C1813 0.929 . S
H1804 C1808 0.929 . S
H1805 C1814 0.929 . S
C1806 H1800 0.930 . S
C1806 C1807 1.367 . S
C1806 C1814 1.378 . S
C1807 C1806 1.367 . S
C1807 C1815 1.433 . S
C1808 H1804 0.929 . S
C1808 C1810 1.378 . S
C1808 C1812 1.350 . S
C1809 C1812 1.463 . S
C1809 C1814 1.350 . S
C1809 N1817 1.427 . S
C1810 H1801 0.930 . S
C1810 C1808 1.378 . S
C1810 C1811 1.367 . S
C1811 C1810 1.367 . S
C1811 C1813 1.433 . S
C1812 C1808 1.350 . S
C1812 C1809 1.463 . S
C1812 N1816 1.427 . S
C1813 H1803 0.929 . S
C1813 C1811 1.433 . S
C1813 N1816 1.384 . S
C1814 H1805 0.929 . S
C1814 C1806 1.378 . S
C1814 C1809 1.350 . S
C1815 H1802 0.929 . S
C1815 C1807 1.433 . S
C1815 N1817 1.384 . S
N1816 C1812 1.427 . S
N1816 C1813 1.384 . S
N1817 C1809 1.427 . S
N1817 C1815 1.384 . S
H1818 C1824 0.930 . S
H1819 C1828 0.930 . S
H1820 C1833 0.929 . S
H1821 C1831 0.929 . S
H1822 C1826 0.929 . S
H1823 C1832 0.929 . S
C1824 H1818 0.930 . S
C1824 C1825 1.367 . S
C1824 C1832 1.378 . S
C1825 C1824 1.367 . S
C1825 C1833 1.433 . S
C1826 H1822 0.929 . S
C1826 C1828 1.378 . S
C1826 C1830 1.350 . S
C1827 C1830 1.463 . S
C1827 C1832 1.350 . S
C1827 N1835 1.427 . S
C1828 H1819 0.930 . S
C1828 C1826 1.378 . S
C1828 C1829 1.367 . S
C1829 C1828 1.367 . S
C1829 C1831 1.433 . S
C1830 C1826 1.350 . S
C1830 C1827 1.463 . S
C1830 N1834 1.427 . S
C1831 H1821 0.929 . S
C1831 C1829 1.433 . S
C1831 N1834 1.384 . S
C1832 H1823 0.929 . S
C1832 C1824 1.378 . S
C1832 C1827 1.350 . S
C1833 H1820 0.929 . S
C1833 C1825 1.433 . S
C1833 N1835 1.384 . S
N1834 C1830 1.427 . S
N1834 C1831 1.384 . S
N1835 C1827 1.427 . S
N1835 C1833 1.384 . S
H1836 C1842 0.930 . S
H1837 C1846 0.930 . S
H1838 C1851 0.929 . S
H1839 C1849 0.929 . S
H1840 C1844 0.929 . S
H1841 C1850 0.929 . S
C1842 H1836 0.930 . S
C1842 C1843 1.367 . S
C1842 C1850 1.378 1_545 S
C1843 C1842 1.367 . S
C1843 C1851 1.433 . S
C1844 H1840 0.929 . S
C1844 C1846 1.378 . S
C1844 C1848 1.350 . S
C1845 C1848 1.463 . S
C1845 C1850 1.350 . S
C1845 N1853 1.427 . S
C1846 H1837 0.930 . S
C1846 C1844 1.378 . S
C1846 C1847 1.367 . S
C1847 C1846 1.367 . S
C1847 C1849 1.433 . S
C1848 C1844 1.350 . S
C1848 C1845 1.463 . S
C1848 N1852 1.427 . S
C1849 H1839 0.929 . S
C1849 C1847 1.433 . S
C1849 N1852 1.384 . S
C1850 H1841 0.929 . S
C1850 C1842 1.378 1_565 S
C1850 C1845 1.350 . S
C1851 H1838 0.929 . S
C1851 C1843 1.433 . S
C1851 N1853 1.384 1_545 S
N1852 C1848 1.427 . S
N1852 C1849 1.384 . S
N1853 C1845 1.427 . S
N1853 C1851 1.384 1_565 S
H1854 C1860 0.930 . S
H1855 C1864 0.930 . S
H1856 C1869 0.929 . S
H1857 C1867 0.929 . S
H1858 C1862 0.929 . S
H1859 C1868 0.929 . S
C1860 H1854 0.930 . S
C1860 C1861 1.367 1_455 S
C1860 C1868 1.378 . S
C1861 C1860 1.367 1_655 S
C1861 C1869 1.433 . S
C1862 H1858 0.929 . S
C1862 C1864 1.378 . S
C1862 C1866 1.350 . S
C1863 C1866 1.463 . S
C1863 C1868 1.350 . S
C1863 N1871 1.427 . S
C1864 H1855 0.930 . S
C1864 C1862 1.378 . S
C1864 C1865 1.367 . S
C1865 C1864 1.367 . S
C1865 C1867 1.433 . S
C1866 C1862 1.350 . S
C1866 C1863 1.463 . S
C1866 N1870 1.427 . S
C1867 H1857 0.929 . S
C1867 C1865 1.433 . S
C1867 N1870 1.384 . S
C1868 H1859 0.929 . S
C1868 C1860 1.378 . S
C1868 C1863 1.350 . S
C1869 H1856 0.929 . S
C1869 C1861 1.433 . S
C1869 N1871 1.384 1_655 S
N1870 C1866 1.427 . S
N1870 C1867 1.384 . S
N1871 C1863 1.427 . S
N1871 C1869 1.384 1_455 S
H1872 C1878 0.930 . S
H1873 C1882 0.930 . S
H1874 C1887 0.929 . S
H1875 C1885 0.929 . S
H1876 C1880 0.929 . S
H1877 C1886 0.929 . S
C1878 H1872 0.930 . S
C1878 C1879 1.367 . S
C1878 C1886 1.378 . S
C1879 C1878 1.367 . S
C1879 C1887 1.433 . S
C1880 H1876 0.929 . S
C1880 C1882 1.378 . S
C1880 C1884 1.350 . S
C1881 C1884 1.463 . S
C1881 C1886 1.350 . S
C1881 N1889 1.427 . S
C1882 H1873 0.930 . S
C1882 C1880 1.378 . S
C1882 C1883 1.367 . S
C1883 C1882 1.367 . S
C1883 C1885 1.433 . S
C1884 C1880 1.350 . S
C1884 C1881 1.463 . S
C1884 N1888 1.427 . S
C1885 H1875 0.929 . S
C1885 C1883 1.433 . S
C1885 N1888 1.384 . S
C1886 H1877 0.929 . S
C1886 C1878 1.378 . S
C1886 C1881 1.350 . S
C1887 H1874 0.929 . S
C1887 C1879 1.433 . S
C1887 N1889 1.384 . S
N1888 C1884 1.427 . S
N1888 C1885 1.384 . S
N1889 C1881 1.427 . S
N1889 C1887 1.384 . S
H1890 C1896 0.930 . S
H1891 C1900 0.930 . S
H1892 C1905 0.929 . S
H1893 C1903 0.929 . S
H1894 C1898 0.929 . S
H1895 C1904 0.929 . S
C1896 H1890 0.930 . S
C1896 C1897 1.367 . S
C1896 C1904 1.378 . S
C1897 C1896 1.367 . S
C1897 C1905 1.433 . S
C1898 H1894 0.929 . S
C1898 C1900 1.378 . S
C1898 C1902 1.350 . S
C1899 C1902 1.463 . S
C1899 C1904 1.350 . S
C1899 N1907 1.427 . S
C1900 H1891 0.930 . S
C1900 C1898 1.378 . S
C1900 C1901 1.367 . S
C1901 C1900 1.367 . S
C1901 C1903 1.433 . S
C1902 C1898 1.350 . S
C1902 C1899 1.463 . S
C1902 N1906 1.427 . S
C1903 H1893 0.929 . S
C1903 C1901 1.433 . S
C1903 N1906 1.384 . S
C1904 H1895 0.929 . S
C1904 C1896 1.378 . S
C1904 C1899 1.350 . S
C1905 H1892 0.929 . S
C1905 C1897 1.433 . S
C1905 N1907 1.384 . S
N1906 C1902 1.427 . S
N1906 C1903 1.384 . S
N1907 C1899 1.427 . S
N1907 C1905 1.384 . S
H1908 C1914 0.930 . S
H1909 C1918 0.930 . S
H1910 C1923 0.929 . S
H1911 C1921 0.929 . S
H1912 C1916 0.929 . S
H1913 C1922 0.929 . S
C1914 H1908 0.930 . S
C1914 C1915 1.367 . S
C1914 C1922 1.378 . S
C1915 C1914 1.367 . S
C1915 C1923 1.433 . S
C1916 H1912 0.929 . S
C1916 C1918 1.378 . S
C1916 C1920 1.350 . S
C1917 C1920 1.463 . S
C1917 C1922 1.350 . S
C1917 N1925 1.427 . S
C1918 H1909 0.930 . S
C1918 C1916 1.378 . S
C1918 C1919 1.367 . S
C1919 C1918 1.367 . S
C1919 C1921 1.433 . S
C1920 C1916 1.350 . S
C1920 C1917 1.463 . S
C1920 N1924 1.427 . S
C1921 H1911 0.929 . S
C1921 C1919 1.433 . S
C1921 N1924 1.384 . S
C1922 H1913 0.929 . S
C1922 C1914 1.378 . S
C1922 C1917 1.350 . S
C1923 H1910 0.929 . S
C1923 C1915 1.433 . S
C1923 N1925 1.384 . S
N1924 C1920 1.427 . S
N1924 C1921 1.384 . S
N1925 C1917 1.427 . S
N1925 C1923 1.384 . S
H1926 C1932 0.930 . S
H1927 C1936 0.930 . S
H1928 C1941 0.929 . S
H1929 C1939 0.929 . S
H1930 C1934 0.929 . S
H1931 C1940 0.929 . S
C1932 H1926 0.930 . S
C1932 C1933 1.367 . S
C1932 C1940 1.378 . S
C1933 C1932 1.367 . S
C1933 C1941 1.433 . S
C1934 H1930 0.929 . S
C1934 C1936 1.378 . S
C1934 C1938 1.350 . S
C1935 C1938 1.463 . S
C1935 C1940 1.350 . S
C1935 N1943 1.427 . S
C1936 H1927 0.930 . S
C1936 C1934 1.378 . S
C1936 C1937 1.367 . S
C1937 C1936 1.367 . S
C1937 C1939 1.433 . S
C1938 C1934 1.350 . S
C1938 C1935 1.463 . S
C1938 N1942 1.427 . S
C1939 H1929 0.929 . S
C1939 C1937 1.433 . S
C1939 N1942 1.384 . S
C1940 H1931 0.929 . S
C1940 C1932 1.378 . S
C1940 C1935 1.350 . S
C1941 H1928 0.929 . S
C1941 C1933 1.433 . S
C1941 N1943 1.384 . S
N1942 C1938 1.427 . S
N1942 C1939 1.384 . S
N1943 C1935 1.427 . S
N1943 C1941 1.384 . S
H1944 C1950 0.922 1_565 S
H1945 C1954 0.930 . S
H1946 C1959 0.929 . S
H1947 C1957 0.929 . S
H1948 C1952 0.929 . S
H1949 C1958 0.929 . S
C1950 H1944 0.922 1_545 S
C1950 C1951 1.367 1_545 S
C1950 C1958 1.378 . S
C1951 C1950 1.367 1_565 S
C1951 C1959 1.433 . S
C1952 H1948 0.929 . S
C1952 C1954 1.378 . S
C1952 C1956 1.350 . S
C1953 C1956 1.463 . S
C1953 C1958 1.350 . S
C1953 N1961 1.427 . S
C1954 H1945 0.930 . S
C1954 C1952 1.378 . S
C1954 C1955 1.367 . S
C1955 C1954 1.367 . S
C1955 C1957 1.433 . S
C1956 C1952 1.350 . S
C1956 C1953 1.463 . S
C1956 N1960 1.427 . S
C1957 H1947 0.929 . S
C1957 C1955 1.433 . S
C1957 N1960 1.384 . S
C1958 H1949 0.929 . S
C1958 C1950 1.378 . S
C1958 C1953 1.350 . S
C1959 H1946 0.929 . S
C1959 C1951 1.433 . S
C1959 N1961 1.384 1_565 S
N1960 C1956 1.427 . S
N1960 C1957 1.384 . S
N1961 C1953 1.427 . S
N1961 C1959 1.384 1_545 S
H1962 C1968 0.930 . S
H1963 C1972 0.930 . S
H1964 C1977 0.929 . S
H1965 C1975 0.929 . S
H1966 C1970 0.929 . S
H1967 C1976 0.929 . S
C1968 H1962 0.930 . S
C1968 C1969 1.367 1_655 S
C1968 C1976 1.378 . S
C1969 C1968 1.367 1_455 S
C1969 C1977 1.433 . S
C1970 H1966 0.929 . S
C1970 C1972 1.378 . S
C1970 C1974 1.350 . S
C1971 C1974 1.463 . S
C1971 C1976 1.350 . S
C1971 N1979 1.427 . S
C1972 H1963 0.930 . S
C1972 C1970 1.378 . S
C1972 C1973 1.367 . S
C1973 C1972 1.367 . S
C1973 C1975 1.433 . S
C1974 C1970 1.350 . S
C1974 C1971 1.463 . S
C1974 N1978 1.427 . S
C1975 H1965 0.929 . S
C1975 C1973 1.433 . S
C1975 N1978 1.384 . S
C1976 H1967 0.929 . S
C1976 C1968 1.378 . S
C1976 C1971 1.350 . S
C1977 H1964 0.929 . S
C1977 C1969 1.433 . S
C1977 N1979 1.384 1_455 S
N1978 C1974 1.427 . S
N1978 C1975 1.384 . S
N1979 C1971 1.427 . S
N1979 C1977 1.384 1_655 S
H1980 C1986 0.930 . S
H1981 C1990 0.930 . S
H1982 C1995 0.929 . S
H1983 C1993 0.929 . S
H1984 C1988 0.929 . S
H1985 C1994 0.929 . S
C1986 H1980 0.930 . S
C1986 C1987 1.367 . S
C1986 C1994 1.378 . S
C1987 C1986 1.367 . S
C1987 C1995 1.433 . S
C1988 H1984 0.929 . S
C1988 C1990 1.378 . S
C1988 C1992 1.350 . S
C1989 C1992 1.463 . S
C1989 C1994 1.350 . S
C1989 N1997 1.427 . S
C1990 H1981 0.930 . S
C1990 C1988 1.378 . S
C1990 C1991 1.367 . S
C1991 C1990 1.367 . S
C1991 C1993 1.433 . S
C1992 C1988 1.350 . S
C1992 C1989 1.463 . S
C1992 N1996 1.427 . S
C1993 H1983 0.929 . S
C1993 C1991 1.433 . S
C1993 N1996 1.384 . S
C1994 H1985 0.929 . S
C1994 C1986 1.378 . S
C1994 C1989 1.350 . S
C1995 H1982 0.929 . S
C1995 C1987 1.433 . S
C1995 N1997 1.384 . S
N1996 C1992 1.427 . S
N1996 C1993 1.384 . S
N1997 C1989 1.427 . S
N1997 C1995 1.384 . S
H1998 C2004 0.930 . S
H1999 C2008 0.930 . S
H2000 C2013 0.929 . S
H2001 C2011 0.929 . S
H2002 C2006 0.929 . S
H2003 C2012 0.929 . S
C2004 H1998 0.930 . S
C2004 C2005 1.367 1_655 S
C2004 C2012 1.378 . S
C2005 C2004 1.367 1_455 S
C2005 C2013 1.433 . S
C2006 H2002 0.929 . S
C2006 C2008 1.378 . S
C2006 C2010 1.350 . S
C2007 C2010 1.463 . S
C2007 C2012 1.350 . S
C2007 N2015 1.427 . S
C2008 H1999 0.930 . S
C2008 C2006 1.378 . S
C2008 C2009 1.367 . S
C2009 C2008 1.367 . S
C2009 C2011 1.433 . S
C2010 C2006 1.350 . S
C2010 C2007 1.463 . S
C2010 N2014 1.427 . S
C2011 H2001 0.929 . S
C2011 C2009 1.433 . S
C2011 N2014 1.384 . S
C2012 H2003 0.929 . S
C2012 C2004 1.378 . S
C2012 C2007 1.350 . S
C2013 H2000 0.929 . S
C2013 C2005 1.433 . S
C2013 N2015 1.384 1_455 S
N2014 C2010 1.427 . S
N2014 C2011 1.384 . S
N2015 C2007 1.427 . S
N2015 C2013 1.384 1_655 S
H2016 C2022 0.930 . S
H2017 C2026 0.930 . S
H2018 C2031 0.929 . S
H2019 C2029 0.929 . S
H2020 C2024 0.929 . S
H2021 C2030 0.929 . S
C2022 H2016 0.930 . S
C2022 C2023 1.367 . S
C2022 C2030 1.378 . S
C2023 C2022 1.367 . S
C2023 C2031 1.433 . S
C2024 H2020 0.929 . S
C2024 C2026 1.378 . S
C2024 C2028 1.350 . S
C2025 C2028 1.463 . S
C2025 C2030 1.350 . S
C2025 N2033 1.427 . S
C2026 H2017 0.930 . S
C2026 C2024 1.378 . S
C2026 C2027 1.367 . S
C2027 C2026 1.367 . S
C2027 C2029 1.433 . S
C2028 C2024 1.350 . S
C2028 C2025 1.463 . S
C2028 N2032 1.427 . S
C2029 H2019 0.929 . S
C2029 C2027 1.433 . S
C2029 N2032 1.384 . S
C2030 H2021 0.929 . S
C2030 C2022 1.378 . S
C2030 C2025 1.350 . S
C2031 H2018 0.929 . S
C2031 C2023 1.433 . S
C2031 N2033 1.384 . S
N2032 C2028 1.427 . S
N2032 C2029 1.384 . S
N2033 C2025 1.427 . S
N2033 C2031 1.384 . S
H2034 C2040 0.930 . S
H2035 C2044 0.930 . S
H2036 C2049 0.909 1_565 S
H2037 C2047 0.929 . S
H2038 C2042 0.929 . S
H2039 C2048 0.929 . S
C2040 H2034 0.930 . S
C2040 C2041 1.367 . S
C2040 C2048 1.378 1_565 S
C2041 C2040 1.367 . S
C2041 C2049 1.433 1_565 S
C2042 H2038 0.929 . S
C2042 C2044 1.378 . S
C2042 C2046 1.350 . S
C2043 C2046 1.463 . S
C2043 C2048 1.350 . S
C2043 N2051 1.427 . S
C2044 H2035 0.930 . S
C2044 C2042 1.378 . S
C2044 C2045 1.367 . S
C2045 C2044 1.367 . S
C2045 C2047 1.433 . S
C2046 C2042 1.350 . S
C2046 C2043 1.463 . S
C2046 N2050 1.427 . S
C2047 H2037 0.929 . S
C2047 C2045 1.433 . S
C2047 N2050 1.384 . S
C2048 H2039 0.929 . S
C2048 C2040 1.378 1_545 S
C2048 C2043 1.350 . S
C2049 H2036 0.909 1_545 S
C2049 C2041 1.433 1_545 S
C2049 N2051 1.384 . S
N2050 C2046 1.427 . S
N2050 C2047 1.384 . S
N2051 C2043 1.427 . S
N2051 C2049 1.384 . S
H2052 C2058 0.930 . S
H2053 C2062 0.930 . S
H2054 C2067 0.929 . S
H2055 C2065 0.929 . S
H2056 C2060 0.929 . S
H2057 C2066 0.929 . S
C2058 H2052 0.930 . S
C2058 C2059 1.367 . S
C2058 C2066 1.378 . S
C2059 C2058 1.367 . S
C2059 C2067 1.433 . S
C2060 H2056 0.929 . S
C2060 C2062 1.378 . S
C2060 C2064 1.350 . S
C2061 C2064 1.463 . S
C2061 C2066 1.350 . S
C2061 N2069 1.427 . S
C2062 H2053 0.930 . S
C2062 C2060 1.378 . S
C2062 C2063 1.367 . S
C2063 C2062 1.367 . S
C2063 C2065 1.433 . S
C2064 C2060 1.350 . S
C2064 C2061 1.463 . S
C2064 N2068 1.427 . S
C2065 H2055 0.929 . S
C2065 C2063 1.433 . S
C2065 N2068 1.384 . S
C2066 H2057 0.929 . S
C2066 C2058 1.378 . S
C2066 C2061 1.350 . S
C2067 H2054 0.929 . S
C2067 C2059 1.433 . S
C2067 N2069 1.384 . S
N2068 C2064 1.427 . S
N2068 C2065 1.384 . S
N2069 C2061 1.427 . S
N2069 C2067 1.384 . S
H2070 C2076 0.930 . S
H2071 C2080 0.930 . S
H2072 C2085 0.929 . S
H2073 C2083 0.929 . S
H2074 C2078 0.929 . S
H2075 C2084 0.929 . S
C2076 H2070 0.930 . S
C2076 C2077 1.367 . S
C2076 C2084 1.378 . S
C2077 C2076 1.367 . S
C2077 C2085 1.433 . S
C2078 H2074 0.929 . S
C2078 C2080 1.378 . S
C2078 C2082 1.350 . S
C2079 C2082 1.463 . S
C2079 C2084 1.350 . S
C2079 N2087 1.427 . S
C2080 H2071 0.930 . S
C2080 C2078 1.378 . S
C2080 C2081 1.367 . S
C2081 C2080 1.367 . S
C2081 C2083 1.433 . S
C2082 C2078 1.350 . S
C2082 C2079 1.463 . S
C2082 N2086 1.427 . S
C2083 H2073 0.929 . S
C2083 C2081 1.433 . S
C2083 N2086 1.384 . S
C2084 H2075 0.929 . S
C2084 C2076 1.378 . S
C2084 C2079 1.350 . S
C2085 H2072 0.929 . S
C2085 C2077 1.433 . S
C2085 N2087 1.384 . S
N2086 C2082 1.427 . S
N2086 C2083 1.384 . S
N2087 C2079 1.427 . S
N2087 C2085 1.384 . S
H2088 C2094 0.930 . S
H2089 C2098 0.930 . S
H2090 C2103 0.929 . S
H2091 C2101 0.929 . S
H2092 C2096 0.929 . S
H2093 C2102 0.929 . S
C2094 H2088 0.930 . S
C2094 C2095 1.367 . S
C2094 C2102 1.378 . S
C2095 C2094 1.367 . S
C2095 C2103 1.433 . S
C2096 H2092 0.929 . S
C2096 C2098 1.378 . S
C2096 C2100 1.350 . S
C2097 C2100 1.463 . S
C2097 C2102 1.350 . S
C2097 N2105 1.427 . S
C2098 H2089 0.930 . S
C2098 C2096 1.378 . S
C2098 C2099 1.367 . S
C2099 C2098 1.367 . S
C2099 C2101 1.433 . S
C2100 C2096 1.350 . S
C2100 C2097 1.463 . S
C2100 N2104 1.427 . S
C2101 H2091 0.929 . S
C2101 C2099 1.433 . S
C2101 N2104 1.384 . S
C2102 H2093 0.929 . S
C2102 C2094 1.378 . S
C2102 C2097 1.350 . S
C2103 H2090 0.929 . S
C2103 C2095 1.433 . S
C2103 N2105 1.384 . S
N2104 C2100 1.427 . S
N2104 C2101 1.384 . S
N2105 C2097 1.427 . S
N2105 C2103 1.384 . S
H2106 C2112 0.930 . S
H2107 C2116 0.930 . S
H2108 C2121 0.929 . S
H2109 C2119 0.929 1_545 S
H2110 C2114 0.929 . S
H2111 C2120 0.929 . S
C2112 H2106 0.930 . S
C2112 C2113 1.367 . S
C2112 C2120 1.378 . S
C2113 C2112 1.367 . S
C2113 C2121 1.433 . S
C2114 H2110 0.929 . S
C2114 C2116 1.378 . S
C2114 C2118 1.350 . S
C2115 C2118 1.463 . S
C2115 C2120 1.350 . S
C2115 N2123 1.427 . S
C2116 H2107 0.930 . S
C2116 C2114 1.378 . S
C2116 C2117 1.367 . S
C2117 C2116 1.367 . S
C2117 C2119 1.433 . S
C2118 C2114 1.350 . S
C2118 C2115 1.463 . S
C2118 N2122 1.427 . S
C2119 H2109 0.929 1_565 S
C2119 C2117 1.433 . S
C2119 N2122 1.384 . S
C2120 H2111 0.929 . S
C2120 C2112 1.378 . S
C2120 C2115 1.350 . S
C2121 H2108 0.929 . S
C2121 C2113 1.433 . S
C2121 N2123 1.384 . S
N2122 C2118 1.427 . S
N2122 C2119 1.384 . S
N2123 C2115 1.427 . S
N2123 C2121 1.384 . S
H2124 C2130 0.930 . S
H2125 C2134 0.930 . S
H2126 C2139 0.929 . S
H2127 C2137 0.929 1_655 S
H2128 C2132 0.929 . S
H2129 C2138 0.929 . S
C2130 H2124 0.930 . S
C2130 C2131 1.367 . S
C2130 C2138 1.378 . S
C2131 C2130 1.367 . S
C2131 C2139 1.433 . S
C2132 H2128 0.929 . S
C2132 C2134 1.378 . S
C2132 C2136 1.350 . S
C2133 C2136 1.463 . S
C2133 C2138 1.350 . S
C2133 N2141 1.427 . S
C2134 H2125 0.930 . S
C2134 C2132 1.378 . S
C2134 C2135 1.367 . S
C2135 C2134 1.367 . S
C2135 C2137 1.433 . S
C2136 C2132 1.350 . S
C2136 C2133 1.463 . S
C2136 N2140 1.427 . S
C2137 H2127 0.929 1_455 S
C2137 C2135 1.433 . S
C2137 N2140 1.384 . S
C2138 H2129 0.929 . S
C2138 C2130 1.378 . S
C2138 C2133 1.350 . S
C2139 H2126 0.929 . S
C2139 C2131 1.433 . S
C2139 N2141 1.384 . S
N2140 C2136 1.427 . S
N2140 C2137 1.384 . S
N2141 C2133 1.427 . S
N2141 C2139 1.384 . S
H2142 C2148 0.930 . S
H2143 C2152 0.930 . S
H2144 C2157 0.929 . S
H2145 C2155 0.929 . S
H2146 C2150 0.929 . S
H2147 C2156 0.929 . S
C2148 H2142 0.930 . S
C2148 C2149 1.367 . S
C2148 C2156 1.378 . S
C2149 C2148 1.367 . S
C2149 C2157 1.433 . S
C2150 H2146 0.929 . S
C2150 C2152 1.378 . S
C2150 C2154 1.350 . S
C2151 C2154 1.463 . S
C2151 C2156 1.350 . S
C2151 N2159 1.427 . S
C2152 H2143 0.930 . S
C2152 C2150 1.378 . S
C2152 C2153 1.367 . S
C2153 C2152 1.367 . S
C2153 C2155 1.433 . S
C2154 C2150 1.350 . S
C2154 C2151 1.463 . S
C2154 N2158 1.427 . S
C2155 H2145 0.929 . S
C2155 C2153 1.433 . S
C2155 N2158 1.384 . S
C2156 H2147 0.929 . S
C2156 C2148 1.378 . S
C2156 C2151 1.350 . S
C2157 H2144 0.929 . S
C2157 C2149 1.433 . S
C2157 N2159 1.384 . S
N2158 C2154 1.427 . S
N2158 C2155 1.384 . S
N2159 C2151 1.427 . S
N2159 C2157 1.384 . S
H2160 C2166 0.930 . S
H2161 C2170 0.930 . S
H2162 C2175 0.929 . S
H2163 C2173 0.929 . S
H2164 C2168 0.929 . S
H2165 C2174 0.929 . S
C2166 H2160 0.930 . S
C2166 C2167 1.367 . S
C2166 C2174 1.378 . S
C2167 C2166 1.367 . S
C2167 C2175 1.433 . S
C2168 H2164 0.929 . S
C2168 C2170 1.378 . S
C2168 C2172 1.350 . S
C2169 C2172 1.463 . S
C2169 C2174 1.350 . S
C2169 N2177 1.427 . S
C2170 H2161 0.930 . S
C2170 C2168 1.378 . S
C2170 C2171 1.367 . S
C2171 C2170 1.367 . S
C2171 C2173 1.433 . S
C2172 C2168 1.350 . S
C2172 C2169 1.463 . S
C2172 N2176 1.427 . S
C2173 H2163 0.929 . S
C2173 C2171 1.433 . S
C2173 N2176 1.384 . S
C2174 H2165 0.929 . S
C2174 C2166 1.378 . S
C2174 C2169 1.350 . S
C2175 H2162 0.929 . S
C2175 C2167 1.433 . S
C2175 N2177 1.384 . S
N2176 C2172 1.427 . S
N2176 C2173 1.384 . S
N2177 C2169 1.427 . S
N2177 C2175 1.384 . S
H2178 C2184 0.930 . S
H2179 C2188 0.930 . S
H2180 C2193 0.929 . S
H2181 C2191 0.929 . S
H2182 C2186 0.929 . S
H2183 C2192 0.929 . S
C2184 H2178 0.930 . S
C2184 C2185 1.367 . S
C2184 C2192 1.378 . S
C2185 C2184 1.367 . S
C2185 C2193 1.433 . S
C2186 H2182 0.929 . S
C2186 C2188 1.378 . S
C2186 C2190 1.350 . S
C2187 C2190 1.463 . S
C2187 C2192 1.350 . S
C2187 N2195 1.427 . S
C2188 H2179 0.930 . S
C2188 C2186 1.378 . S
C2188 C2189 1.367 . S
C2189 C2188 1.367 . S
C2189 C2191 1.433 . S
C2190 C2186 1.350 . S
C2190 C2187 1.463 . S
C2190 N2194 1.427 . S
C2191 H2181 0.929 . S
C2191 C2189 1.433 . S
C2191 N2194 1.384 . S
C2192 H2183 0.929 . S
C2192 C2184 1.378 . S
C2192 C2187 1.350 . S
C2193 H2180 0.929 . S
C2193 C2185 1.433 . S
C2193 N2195 1.384 . S
N2194 C2190 1.427 . S
N2194 C2191 1.384 . S
N2195 C2187 1.427 . S
N2195 C2193 1.384 . S
H2196 C2202 0.930 . S
H2197 C2206 0.930 . S
H2198 C2211 0.929 . S
H2199 C2209 0.929 1_565 S
H2200 C2204 0.929 . S
H2201 C2210 0.929 . S
C2202 H2196 0.930 . S
C2202 C2203 1.367 . S
C2202 C2210 1.378 . S
C2203 C2202 1.367 . S
C2203 C2211 1.433 . S
C2204 H2200 0.929 . S
C2204 C2206 1.378 . S
C2204 C2208 1.350 . S
C2205 C2208 1.463 . S
C2205 C2210 1.350 . S
C2205 N2213 1.427 . S
C2206 H2197 0.930 . S
C2206 C2204 1.378 . S
C2206 C2207 1.367 . S
C2207 C2206 1.367 . S
C2207 C2209 1.433 . S
C2208 C2204 1.350 . S
C2208 C2205 1.463 . S
C2208 N2212 1.427 . S
C2209 H2199 0.929 1_545 S
C2209 C2207 1.433 . S
C2209 N2212 1.384 . S
C2210 H2201 0.929 . S
C2210 C2202 1.378 . S
C2210 C2205 1.350 . S
C2211 H2198 0.929 . S
C2211 C2203 1.433 . S
C2211 N2213 1.384 . S
N2212 C2208 1.427 . S
N2212 C2209 1.384 . S
N2213 C2205 1.427 . S
N2213 C2211 1.384 . S
H2214 C2220 0.930 . S
H2215 C2224 0.930 . S
H2216 C2229 0.929 . S
H2217 C2227 0.929 . S
H2218 C2222 0.929 . S
H2219 C2228 0.929 . S
C2220 H2214 0.930 . S
C2220 C2221 1.367 . S
C2220 C2228 1.378 . S
C2221 C2220 1.367 . S
C2221 C2229 1.433 . S
C2222 H2218 0.929 . S
C2222 C2224 1.378 . S
C2222 C2226 1.350 . S
C2223 C2226 1.463 . S
C2223 C2228 1.350 . S
C2223 N2231 1.427 . S
C2224 H2215 0.930 . S
C2224 C2222 1.378 . S
C2224 C2225 1.367 . S
C2225 C2224 1.367 . S
C2225 C2227 1.433 . S
C2226 C2222 1.350 . S
C2226 C2223 1.463 . S
C2226 N2230 1.427 . S
C2227 H2217 0.929 . S
C2227 C2225 1.433 . S
C2227 N2230 1.384 . S
C2228 H2219 0.929 . S
C2228 C2220 1.378 . S
C2228 C2223 1.350 . S
C2229 H2216 0.929 . S
C2229 C2221 1.433 . S
C2229 N2231 1.384 . S
N2230 C2226 1.427 . S
N2230 C2227 1.384 . S
N2231 C2223 1.427 . S
N2231 C2229 1.384 . S
H2232 C2238 0.930 . S
H2233 C2242 0.930 . S
H2234 C2247 0.929 . S
H2235 C2245 0.929 . S
H2236 C2240 0.929 . S
H2237 C2246 0.929 . S
C2238 H2232 0.930 . S
C2238 C2239 1.367 . S
C2238 C2246 1.378 . S
C2239 C2238 1.367 . S
C2239 C2247 1.433 . S
C2240 H2236 0.929 . S
C2240 C2242 1.378 . S
C2240 C2244 1.350 . S
C2241 C2244 1.463 . S
C2241 C2246 1.350 . S
C2241 N2249 1.427 . S
C2242 H2233 0.930 . S
C2242 C2240 1.378 . S
C2242 C2243 1.367 . S
C2243 C2242 1.367 . S
C2243 C2245 1.433 . S
C2244 C2240 1.350 . S
C2244 C2241 1.463 . S
C2244 N2248 1.427 . S
C2245 H2235 0.929 . S
C2245 C2243 1.433 . S
C2245 N2248 1.384 . S
C2246 H2237 0.929 . S
C2246 C2238 1.378 . S
C2246 C2241 1.350 . S
C2247 H2234 0.929 . S
C2247 C2239 1.433 . S
C2247 N2249 1.384 . S
N2248 C2244 1.427 . S
N2248 C2245 1.384 . S
N2249 C2241 1.427 . S
N2249 C2247 1.384 . S
H2250 C2256 0.930 . S
H2251 C2260 0.930 . S
H2252 C2265 0.929 . S
H2253 C2263 0.929 . S
H2254 C2258 0.929 . S
H2255 C2264 0.929 . S
C2256 H2250 0.930 . S
C2256 C2257 1.367 . S
C2256 C2264 1.378 . S
C2257 C2256 1.367 . S
C2257 C2265 1.433 . S
C2258 H2254 0.929 . S
C2258 C2260 1.378 . S
C2258 C2262 1.350 . S
C2259 C2262 1.463 . S
C2259 C2264 1.350 . S
C2259 N2267 1.427 . S
C2260 H2251 0.930 . S
C2260 C2258 1.378 . S
C2260 C2261 1.367 . S
C2261 C2260 1.367 . S
C2261 C2263 1.433 . S
C2262 C2258 1.350 . S
C2262 C2259 1.463 . S
C2262 N2266 1.427 . S
C2263 H2253 0.929 . S
C2263 C2261 1.433 . S
C2263 N2266 1.384 . S
C2264 H2255 0.929 . S
C2264 C2256 1.378 . S
C2264 C2259 1.350 . S
C2265 H2252 0.929 . S
C2265 C2257 1.433 . S
C2265 N2267 1.384 . S
N2266 C2262 1.427 . S
N2266 C2263 1.384 . S
N2267 C2259 1.427 . S
N2267 C2265 1.384 . S
H2268 C2274 0.930 . S
H2269 C2278 0.930 . S
H2270 C2283 0.929 . S
H2271 C2281 0.929 . S
H2272 C2276 0.929 . S
H2273 C2282 0.929 . S
C2274 H2268 0.930 . S
C2274 C2275 1.367 . S
C2274 C2282 1.378 . S
C2275 C2274 1.367 . S
C2275 C2283 1.433 . S
C2276 H2272 0.929 . S
C2276 C2278 1.378 . S
C2276 C2280 1.350 . S
C2277 C2280 1.463 . S
C2277 C2282 1.350 . S
C2277 N2285 1.427 . S
C2278 H2269 0.930 . S
C2278 C2276 1.378 . S
C2278 C2279 1.367 . S
C2279 C2278 1.367 . S
C2279 C2281 1.433 . S
C2280 C2276 1.350 . S
C2280 C2277 1.463 . S
C2280 N2284 1.427 . S
C2281 H2271 0.929 . S
C2281 C2279 1.433 . S
C2281 N2284 1.384 . S
C2282 H2273 0.929 . S
C2282 C2274 1.378 . S
C2282 C2277 1.350 . S
C2283 H2270 0.929 . S
C2283 C2275 1.433 . S
C2283 N2285 1.384 . S
N2284 C2280 1.427 . S
N2284 C2281 1.384 . S
N2285 C2277 1.427 . S
N2285 C2283 1.384 . S
H2286 C2292 0.930 . S
H2287 C2296 0.930 . S
H2288 C2301 0.929 . S
H2289 C2299 0.929 . S
H2290 C2294 0.929 . S
H2291 C2300 0.929 . S
C2292 H2286 0.930 . S
C2292 C2293 1.367 . S
C2292 C2300 1.378 . S
C2293 C2292 1.367 . S
C2293 C2301 1.433 . S
C2294 H2290 0.929 . S
C2294 C2296 1.378 . S
C2294 C2298 1.350 . S
C2295 C2298 1.463 . S
C2295 C2300 1.350 . S
C2295 N2303 1.427 . S
C2296 H2287 0.930 . S
C2296 C2294 1.378 . S
C2296 C2297 1.367 . S
C2297 C2296 1.367 . S
C2297 C2299 1.433 . S
C2298 C2294 1.350 . S
C2298 C2295 1.463 . S
C2298 N2302 1.427 . S
C2299 H2289 0.929 . S
C2299 C2297 1.433 . S
C2299 N2302 1.384 . S
C2300 H2291 0.929 . S
C2300 C2292 1.378 . S
C2300 C2295 1.350 . S
C2301 H2288 0.929 . S
C2301 C2293 1.433 . S
C2301 N2303 1.384 . S
N2302 C2298 1.427 . S
N2302 C2299 1.384 . S
N2303 C2295 1.427 . S
N2303 C2301 1.384 . S
H2304 C2310 0.930 . S
H2305 C2314 0.930 . S
H2306 C2319 0.929 . S
H2307 C2317 0.929 . S
H2308 C2312 0.929 . S
H2309 C2318 0.929 . S
C2310 H2304 0.930 . S
C2310 C2311 1.367 . S
C2310 C2318 1.378 . S
C2311 C2310 1.367 . S
C2311 C2319 1.433 . S
C2312 H2308 0.929 . S
C2312 C2314 1.378 . S
C2312 C2316 1.350 . S
C2313 C2316 1.463 . S
C2313 C2318 1.350 . S
C2313 N2321 1.427 . S
C2314 H2305 0.930 . S
C2314 C2312 1.378 . S
C2314 C2315 1.367 . S
C2315 C2314 1.367 . S
C2315 C2317 1.433 . S
C2316 C2312 1.350 . S
C2316 C2313 1.463 . S
C2316 N2320 1.427 . S
C2317 H2307 0.929 . S
C2317 C2315 1.433 . S
C2317 N2320 1.384 . S
C2318 H2309 0.929 . S
C2318 C2310 1.378 . S
C2318 C2313 1.350 . S
C2319 H2306 0.929 . S
C2319 C2311 1.433 . S
C2319 N2321 1.384 . S
N2320 C2316 1.427 . S
N2320 C2317 1.384 . S
N2321 C2313 1.427 . S
N2321 C2319 1.384 . S
H2322 C2328 0.930 . S
H2323 C2332 0.930 . S
H2324 C2337 0.929 . S
H2325 C2335 0.929 . S
H2326 C2330 0.929 . S
H2327 C2336 0.929 . S
C2328 H2322 0.930 . S
C2328 C2329 1.367 . S
C2328 C2336 1.378 . S
C2329 C2328 1.367 . S
C2329 C2337 1.433 . S
C2330 H2326 0.929 . S
C2330 C2332 1.378 . S
C2330 C2334 1.350 . S
C2331 C2334 1.463 . S
C2331 C2336 1.350 . S
C2331 N2339 1.427 . S
C2332 H2323 0.930 . S
C2332 C2330 1.378 . S
C2332 C2333 1.367 . S
C2333 C2332 1.367 . S
C2333 C2335 1.433 . S
C2334 C2330 1.350 . S
C2334 C2331 1.463 . S
C2334 N2338 1.427 . S
C2335 H2325 0.929 . S
C2335 C2333 1.433 . S
C2335 N2338 1.384 . S
C2336 H2327 0.929 . S
C2336 C2328 1.378 . S
C2336 C2331 1.350 . S
C2337 H2324 0.929 . S
C2337 C2329 1.433 . S
C2337 N2339 1.384 . S
N2338 C2334 1.427 . S
N2338 C2335 1.384 . S
N2339 C2331 1.427 . S
N2339 C2337 1.384 . S
H2340 C2346 0.930 . S
H2341 C2350 0.930 . S
H2342 C2355 0.929 . S
H2343 C2353 0.929 . S
H2344 C2348 0.929 . S
H2345 C2354 0.929 . S
C2346 H2340 0.930 . S
C2346 C2347 1.367 . S
C2346 C2354 1.378 . S
C2347 C2346 1.367 . S
C2347 C2355 1.433 . S
C2348 H2344 0.929 . S
C2348 C2350 1.378 . S
C2348 C2352 1.350 . S
C2349 C2352 1.463 . S
C2349 C2354 1.350 . S
C2349 N2357 1.427 . S
C2350 H2341 0.930 . S
C2350 C2348 1.378 . S
C2350 C2351 1.367 . S
C2351 C2350 1.367 . S
C2351 C2353 1.433 . S
C2352 C2348 1.350 . S
C2352 C2349 1.463 . S
C2352 N2356 1.427 . S
C2353 H2343 0.929 . S
C2353 C2351 1.433 . S
C2353 N2356 1.384 . S
C2354 H2345 0.929 . S
C2354 C2346 1.378 . S
C2354 C2349 1.350 . S
C2355 H2342 0.929 . S
C2355 C2347 1.433 . S
C2355 N2357 1.384 . S
N2356 C2352 1.427 . S
N2356 C2353 1.384 . S
N2357 C2349 1.427 . S
N2357 C2355 1.384 . S
H2358 C2364 0.930 . S
H2359 C2368 0.930 . S
H2360 C2373 0.929 . S
H2361 C2371 0.929 . S
H2362 C2366 0.929 . S
H2363 C2372 0.929 . S
C2364 H2358 0.930 . S
C2364 C2365 1.367 . S
C2364 C2372 1.378 . S
C2365 C2364 1.367 . S
C2365 C2373 1.433 . S
C2366 H2362 0.929 . S
C2366 C2368 1.378 . S
C2366 C2370 1.350 . S
C2367 C2370 1.463 . S
C2367 C2372 1.350 . S
C2367 N2375 1.427 . S
C2368 H2359 0.930 . S
C2368 C2366 1.378 . S
C2368 C2369 1.367 . S
C2369 C2368 1.367 . S
C2369 C2371 1.433 . S
C2370 C2366 1.350 . S
C2370 C2367 1.463 . S
C2370 N2374 1.427 . S
C2371 H2361 0.929 . S
C2371 C2369 1.433 . S
C2371 N2374 1.384 . S
C2372 H2363 0.929 . S
C2372 C2364 1.378 . S
C2372 C2367 1.350 . S
C2373 H2360 0.929 . S
C2373 C2365 1.433 . S
C2373 N2375 1.384 . S
N2374 C2370 1.427 . S
N2374 C2371 1.384 . S
N2375 C2367 1.427 . S
N2375 C2373 1.384 . S
H2376 C2382 0.930 . S
H2377 C2386 0.930 . S
H2378 C2391 0.929 . S
H2379 C2389 0.929 . S
H2380 C2384 0.929 . S
H2381 C2390 0.929 . S
C2382 H2376 0.930 . S
C2382 C2383 1.367 . S
C2382 C2390 1.378 . S
C2383 C2382 1.367 . S
C2383 C2391 1.433 . S
C2384 H2380 0.929 . S
C2384 C2386 1.378 . S
C2384 C2388 1.350 . S
C2385 C2388 1.463 . S
C2385 C2390 1.350 . S
C2385 N2393 1.427 . S
C2386 H2377 0.930 . S
C2386 C2384 1.378 . S
C2386 C2387 1.367 . S
C2387 C2386 1.367 . S
C2387 C2389 1.433 . S
C2388 C2384 1.350 . S
C2388 C2385 1.463 . S
C2388 N2392 1.427 . S
C2389 H2379 0.929 . S
C2389 C2387 1.433 . S
C2389 N2392 1.384 . S
C2390 H2381 0.929 . S
C2390 C2382 1.378 . S
C2390 C2385 1.350 . S
C2391 H2378 0.929 . S
C2391 C2383 1.433 . S
C2391 N2393 1.384 . S
N2392 C2388 1.427 . S
N2392 C2389 1.384 . S
N2393 C2385 1.427 . S
N2393 C2391 1.384 . S
H2394 C2400 0.930 . S
H2395 C2404 0.930 . S
H2396 C2409 0.929 . S
H2397 C2407 0.929 . S
H2398 C2402 0.929 . S
H2399 C2408 0.929 . S
C2400 H2394 0.930 . S
C2400 C2401 1.367 . S
C2400 C2408 1.378 . S
C2401 C2400 1.367 . S
C2401 C2409 1.433 . S
C2402 H2398 0.929 . S
C2402 C2404 1.378 . S
C2402 C2406 1.350 . S
C2403 C2406 1.463 . S
C2403 C2408 1.350 . S
C2403 N2411 1.427 . S
C2404 H2395 0.930 . S
C2404 C2402 1.378 . S
C2404 C2405 1.367 . S
C2405 C2404 1.367 . S
C2405 C2407 1.433 . S
C2406 C2402 1.350 . S
C2406 C2403 1.463 . S
C2406 N2410 1.427 . S
C2407 H2397 0.929 . S
C2407 C2405 1.433 . S
C2407 N2410 1.384 . S
C2408 H2399 0.929 . S
C2408 C2400 1.378 . S
C2408 C2403 1.350 . S
C2409 H2396 0.929 . S
C2409 C2401 1.433 . S
C2409 N2411 1.384 . S
N2410 C2406 1.427 . S
N2410 C2407 1.384 . S
N2411 C2403 1.427 . S
N2411 C2409 1.384 . S
H2412 C2418 0.930 . S
H2413 C2422 0.930 . S
H2414 C2427 0.929 . S
H2415 C2425 0.929 . S
H2416 C2420 0.929 . S
H2417 C2426 0.929 . S
C2418 H2412 0.930 . S
C2418 C2419 1.367 . S
C2418 C2426 1.378 . S
C2419 C2418 1.367 . S
C2419 C2427 1.433 . S
C2420 H2416 0.929 . S
C2420 C2422 1.378 . S
C2420 C2424 1.350 . S
C2421 C2424 1.463 . S
C2421 C2426 1.350 . S
C2421 N2429 1.427 . S
C2422 H2413 0.930 . S
C2422 C2420 1.378 . S
C2422 C2423 1.367 . S
C2423 C2422 1.367 . S
C2423 C2425 1.433 . S
C2424 C2420 1.350 . S
C2424 C2421 1.463 . S
C2424 N2428 1.427 . S
C2425 H2415 0.929 . S
C2425 C2423 1.433 . S
C2425 N2428 1.384 . S
C2426 H2417 0.929 . S
C2426 C2418 1.378 . S
C2426 C2421 1.350 . S
C2427 H2414 0.929 . S
C2427 C2419 1.433 . S
C2427 N2429 1.384 . S
N2428 C2424 1.427 . S
N2428 C2425 1.384 . S
N2429 C2421 1.427 . S
N2429 C2427 1.384 . S
C1465 C528 1.420 . S
C1469 C769 1.353 . S
C1483 C562 1.492 . S
C1487 C853 1.418 . S
C1501 C484 1.473 . S
C1505 C933 1.426 . S
C1519 C445 1.428 . S
C1523 C849 1.383 . S
C1541 C937 1.343 . S
C1537 C367 1.427 . S
C1555 C411 1.398 . S
C1559 C765 1.356 . S
C1577 C758 1.357 . S
C1573 C450 1.437 . S
C1595 C842 1.396 . S
C1591 C372 1.472 . S
C1609 C406 1.475 . S
C1613 C944 1.436 . S
C1627 C523 1.428 . S
C1631 C860 1.388 . S
C1645 C567 1.407 . S
C1649 C926 1.327 . S
C1667 C776 1.376 . S
C1663 C489 1.412 . S
C1685 C1021 1.356 . S
C1681 C60 1.424 . S
C1699 C94 1.488 . S
C1703 C1105 1.414 . S
C1717 C16 1.473 . S
C1721 C1185 1.426 . S
C1735 C679 1.428 . S
C1739 C1101 1.383 . S
C1753 C601 1.425 . S
C1757 C1189 1.353 . S
C1771 C645 1.394 . S
C1775 C1017 1.347 . S
C1789 C684 1.437 . S
C1793 C1010 1.357 . S
C1807 C606 1.471 . S
C1811 C1094 1.413 . S
C1829 C1196 1.431 . S
C1825 C640 1.474 . S
C1843 C55 1.427 . S
C1847 C1112 1.386 . S
C1865 C1178 1.342 . S
C1861 C99 1.406 . S
C1879 C21 1.414 . S
C1883 C1028 1.379 . S
C1901 C1273 1.342 . S
C1897 C294 1.424 . S
C1915 C328 1.488 . S
C1919 C1357 1.415 . S
C1937 C1437 1.427 . S
C1933 C250 1.474 . S
C1955 C1353 1.390 . S
C1951 C211 1.429 . S
C1973 C1441 1.352 . S
C1969 C133 1.425 . S
C1987 C177 1.396 . S
C1991 C1269 1.351 . S
C2005 C216 1.437 . S
C2009 C1262 1.376 . S
C2023 C138 1.469 . S
C2027 C1346 1.408 . S
C2045 C1448 1.439 . S
C2041 C172 1.477 . S
C2059 C289 1.425 . S
C2063 C1364 1.383 . S
C2077 C333 1.407 . S
C2081 C1430 1.327 . S
C2095 C255 1.414 . S
C2099 C1280 1.380 . S
C2113 C586 1.462 . S
C2117 C772 1.355 . S
C2135 C856 1.366 . S
C2131 C625 1.499 . S
C2149 C664 1.478 . S
C2153 C928 1.341 . S
C2167 C235 1.510 . S
C2171 C844 1.365 . S
C2185 C274 1.464 . S
C2189 C940 1.345 . S
C2207 C760 1.358 . S
C2203 C313 1.462 . S
C2221 C118 1.462 . S
C2225 C1024 1.340 . S
C2239 C157 1.498 . S
C2243 C1108 1.365 . S
C2257 C196 1.478 . S
C2261 C1180 1.352 . S
C2275 C469 1.510 . S
C2279 C1096 1.366 . S
C2297 C1192 1.341 . S
C2293 C508 1.464 . S
C2311 C547 1.462 . S
C2315 C1012 1.358 . S
C2329 C352 1.462 . S
C2333 C1276 1.342 . S
C2347 C391 1.497 . S
C2351 C1360 1.349 . S
C2369 C1432 1.348 . S
C2365 C430 1.477 . S
C2383 C1 1.511 . S
C2387 C1348 1.372 . S
C2401 C40 1.464 . S
C2405 C1444 1.322 . S
C2419 C79 1.462 . S
C2423 C1264 1.357 . S
