# Generated by pormake.
# Topology tsx, (6,3)-cn, num edge types: 1
# Building blocks:
#     Node 0, Type 0, BuildingBlock: JUFBIX_clean_sbu_0, # of connection points: 6
#     Node 1, Type 0, BuildingBlock: JUFBIX_clean_sbu_0, # of connection points: 6
#     Node 2, Type 1, BuildingBlock: INOVEN_clean_linker_0, # of connection points: 3
#     Node 3, Type 1, BuildingBlock: INOVEN_clean_linker_0, # of connection points: 3
#     Node 4, Type 1, BuildingBlock: INOVEN_clean_linker_0, # of connection points: 3
#     Node 5, Type 1, BuildingBlock: INOVEN_clean_linker_0, # of connection points: 3
#     Edge 6, Type (0, 1), BuildingBlock: ZUJKAS_clean_linker_0, # of connection points: 2
#     Edge 7, Type (0, 1), BuildingBlock: ZUJKAS_clean_linker_0, # of connection points: 2
#     Edge 8, Type (0, 1), BuildingBlock: ZUJKAS_clean_linker_0, # of connection points: 2
#     Edge 9, Type (0, 1), BuildingBlock: ZUJKAS_clean_linker_0, # of connection points: 2
#     Edge 10, Type (0, 1), BuildingBlock: ZUJKAS_clean_linker_0, # of connection points: 2
#     Edge 11, Type (0, 1), BuildingBlock: ZUJKAS_clean_linker_0, # of connection points: 2
#     Edge 12, Type (0, 1), BuildingBlock: ZUJKAS_clean_linker_0, # of connection points: 2
#     Edge 13, Type (0, 1), BuildingBlock: ZUJKAS_clean_linker_0, # of connection points: 2
#     Edge 14, Type (0, 1), BuildingBlock: ZUJKAS_clean_linker_0, # of connection points: 2
#     Edge 15, Type (0, 1), BuildingBlock: ZUJKAS_clean_linker_0, # of connection points: 2
#     Edge 16, Type (0, 1), BuildingBlock: ZUJKAS_clean_linker_0, # of connection points: 2
#     Edge 17, Type (0, 1), BuildingBlock: ZUJKAS_clean_linker_0, # of connection points: 2
# Relax obj value: 0.097
# Max RMSD: 0.119
# Mean RMSD: 0.109
data_MOF--net-tsx--node1-JUFBIX_clean_sbu_0--node2-INOVEN_clean_linker_0--edge1-ZUJKAS_clean_linker_0
_symmetry_space_group_name_H-M    P1
_symmetry_Int_Tables_number       1
_symmetry_cell_setting            triclinic
loop_
_symmetry_equiv_pos_as_xyz
'x, y, z'
_cell_length_a     25.969308
_cell_length_b     30.516855
_cell_length_c     42.41356
_cell_angle_alpha  92.006211
_cell_angle_beta   98.453234
_cell_angle_gamma 97.110025
loop_
_atom_site_label
_atom_site_type_symbol
_atom_site_fract_x
_atom_site_fract_y
_atom_site_fract_z
_atom_type_partial_charge
Co0 Co 0.05755 0.98758 0.0003 0.0
C1 C 1.00396 0.0129 0.94264 0.0
Co2 Co 0.9909 0.02496 0.00483 0.0
C3 C 0.13053 0.92125 0.00499 0.0
C4 C 0.1508 0.97429 0.97552 0.0
N5 N 0.11493 0.95929 0.99389 0.0
N6 N 0.17501 0.91225 0.99438 0.0
C7 C 0.18759 0.94566 0.9758 0.0
H8 H 0.10977 0.90074 0.02061 0.0
H9 H 0.14993 1.00402 0.9624 0.0
C10 C 0.04429 1.00032 0.06256 0.0
N11 N 0.9337 0.05323 0.0115 0.0
C12 C 0.92034 0.09272 0.00208 0.0
C13 C 0.89704 0.03795 0.02928 0.0
N14 N 0.87668 0.10255 0.01331 0.0
C15 C 0.86208 0.06799 0.0304 0.0
C16 C 0.96467 0.93263 -0.00229 0.0
O17 O 0.07353 0.98324 0.0453 0.0
O18 O 1.00672 0.0195 0.04933 0.0
O19 O 0.94744 0.96952 0.00075 0.0
O20 O 0.0134 0.93223 0.99695 0.0
O21 O 0.97564 0.03035 0.96029 0.0
H22 H 0.89645 0.00728 0.04133 0.0
H23 H 0.9424 0.11383 0.98743 0.0
O24 O 0.04087 0.99246 0.95539 0.0
O25 O 0.10099 0.0433 0.00366 0.0
O26 O 0.03499 0.08 0.00865 0.0
C27 C 0.08347 0.08 0.00701 0.0
H28 H 0.22035 0.94869 0.96257 0.0
H29 H 0.82939 0.06513 0.04367 0.0
Co30 Co 0.55072 0.484 0.49786 0.0
C31 C 0.49338 0.51022 0.44146 0.0
Co32 Co 0.48707 0.52398 0.50445 0.0
C33 C 0.62201 0.41612 0.5002 0.0
C34 C 0.63674 0.46616 0.4673 0.0
N35 N 0.6055 0.45386 0.48906 0.0
N36 N 0.66182 0.40435 0.48581 0.0
C37 C 0.6711 0.43588 0.46519 0.0
H38 H 0.60427 0.39706 0.51779 0.0
H39 H 0.63419 0.49513 0.45345 0.0
C40 C 0.54444 0.49867 0.56094 0.0
N41 N 0.43235 0.55399 0.51328 0.0
C42 C 0.41775 0.59272 0.50302 0.0
C43 C 0.39859 0.54049 0.53336 0.0
N44 N 0.37604 0.60372 0.51589 0.0
C45 C 0.36408 0.57079 0.53499 0.0
C46 C 0.4569 0.43205 0.49831 0.0
O47 O 0.57045 0.4795 0.54266 0.0
O48 O 0.50723 0.51906 0.54874 0.0
O49 O 0.44203 0.46975 0.50212 0.0
O50 O 0.50473 0.42977 0.49582 0.0
O51 O 0.46764 0.529 0.46004 0.0
H52 H 0.3995 0.5107 0.54641 0.0
H53 H 0.43729 0.6123 0.4864 0.0
O54 O 0.53014 0.48898 0.45325 0.0
O55 O 0.59608 0.53878 0.49991 0.0
O56 O 0.53252 0.57769 0.50655 0.0
C57 C 0.5803 0.57619 0.50368 0.0
H58 H 0.70078 0.43699 0.44968 0.0
H59 H 0.33338 0.56915 0.54978 0.0
H60 H 0.06987 0.99758 0.49283 0.0
H61 H 0.13302 0.96272 0.40859 0.0
H62 H 0.03061 0.06328 0.40594 0.0
N63 N 0.01586 0.05991 0.46718 0.0
N64 N 1.00759 0.09709 0.4578 0.0
C65 C 0.07344 1.00214 0.46798 0.0
C66 C 0.10609 0.97763 0.45281 0.0
C67 C 0.0471 0.03391 0.45136 0.0
C68 C 0.05156 0.03934 0.41898 0.0
C69 C 0.08214 0.01354 0.40321 0.0
C70 C 0.1098 0.98331 0.42053 0.0
H71 H 0.97365 0.99137 0.51528 0.0
H72 H 0.90361 0.96892 0.60006 0.0
H73 H 0.02597 0.07729 0.59954 0.0
N74 N 0.03987 0.06239 0.53894 0.0
N75 N 0.05312 0.10267 0.54583 0.0
C76 C 0.97092 1.00058 0.53983 0.0
C77 C 0.93345 0.97678 0.55561 0.0
C78 C 1.00344 0.03753 0.55539 0.0
C79 C 1.00012 0.04928 0.58733 0.0
C80 C 0.9645 0.0245 0.60378 0.0
C81 C 0.93078 0.98878 0.58751 0.0
H82 H 0.56686 0.49534 0.99047 0.0
H83 H 0.63587 0.45859 0.9088 0.0
H84 H 0.52232 0.54984 0.89946 0.0
N85 N 0.50725 0.55179 0.96116 0.0
N86 N 0.4852 0.58018 0.94574 0.0
C87 C 0.57041 0.49803 0.96546 0.0
C88 C 0.60558 0.47435 0.95184 0.0
C89 C 0.54081 0.52611 0.94687 0.0
C90 C 0.5453 0.52879 0.9142 0.0
C91 C 0.57956 0.50461 0.90034 0.0
C92 C 0.60998 0.47802 0.91946 0.0
H93 H 0.48186 0.49467 0.01574 0.0
H94 H 0.40365 0.47006 0.09719 0.0
H95 H 0.53367 0.57305 0.10385 0.0
N96 N 0.55221 0.56142 0.04337 0.0
N97 N 0.58167 0.59304 0.0585 0.0
C98 C 0.47798 0.50262 0.0403 0.0
C99 C 0.43779 0.47923 0.05427 0.0
C100 C 0.5125 0.53696 0.05792 0.0
C101 C 0.50726 0.54675 0.08998 0.0
C102 C 0.46814 0.52284 0.10438 0.0
C103 C 0.43332 0.48949 0.08617 0.0
H104 H 0.18842 0.09089 0.0031 0.0
H105 H 0.24732 0.1603 0.00506 0.0
H106 H 0.11837 0.23369 0.01467 0.0
H107 H 0.05915 0.16443 0.01308 0.0
H108 H 0.24207 0.2334 0.96527 0.0
H109 H 0.23017 0.28024 0.09148 0.0
H110 H 0.20835 0.22506 0.07405 0.0
H111 H 0.16778 0.26825 0.06618 0.0
C112 C 0.17253 0.12177 0.00574 0.0
C113 C 0.11912 0.12209 0.00824 0.0
C114 C 0.20626 0.1614 0.0067 0.0
C115 C 0.18735 0.20208 0.01035 0.0
C116 C 0.13393 0.2026 0.01235 0.0
H117 H 0.33171 0.47285 0.04349 0.0
H118 H 0.26993 0.40596 0.02722 0.0
C119 C 0.10012 0.16298 0.01138 0.0
C120 C 0.22372 0.24395 0.01262 0.0
H121 H 0.27528 0.33346 0.0628 0.0
C122 C 0.24946 0.25535 0.98657 0.0
C123 C 0.23345 0.27231 0.04051 0.0
C124 C 0.20892 0.2608 0.06979 0.0
C125 C 0.28387 0.29495 0.98745 0.0
C126 C 0.29323 0.32345 0.01528 0.0
C127 C 0.2677 0.31178 0.04135 0.0
C128 C 0.32965 0.36544 0.01848 0.0
C129 C 0.30907 0.30636 0.95844 0.0
C130 C 0.3836 0.36537 0.01774 0.0
C131 C 0.41895 0.40385 0.02668 0.0
C132 C 0.40076 0.44262 0.03684 0.0
C133 C 0.34654 0.44332 0.03562 0.0
C134 C 0.31132 0.40512 0.02647 0.0
H135 H 0.28749 0.28752 0.93657 0.0
H136 H 0.3109 0.34227 0.95451 0.0
H137 H 0.3498 0.29791 0.96212 0.0
H138 H 0.39878 0.33497 0.01223 0.0
H139 H 0.46067 0.40242 0.02791 0.0
H140 H 0.2785 0.90912 0.99397 0.0
H141 H 0.32357 0.84369 0.996 0.0
H142 H 0.18115 0.76368 0.01089 0.0
H143 H 0.13494 0.82925 0.00758 0.0
H144 H 0.34278 0.78164 0.04004 0.0
H145 H 0.21475 0.70486 0.93017 0.0
H146 H 0.21436 0.76156 0.94346 0.0
H147 H 0.18205 0.71741 0.96322 0.0
C148 C 0.25658 0.87765 -0.0024 0.0
C149 C 0.20275 0.87435 -0.0001 0.0
C150 C 0.28261 0.84027 -0.0009 0.0
C151 C 0.25559 0.79858 0.003 0.0
C152 C 0.20257 0.79538 0.00722 0.0
H153 H 0.45005 0.5774 0.00368 0.0
H154 H 0.38979 0.62542 0.02222 0.0
C155 C 0.17631 0.83296 0.00562 0.0
C156 C 0.28275 0.75875 0.00032 0.0
H157 H 0.28615 0.66915 0.95045 0.0
C158 C 0.33002 0.75655 0.0208 0.0
C159 C 0.26617 0.72622 0.97504 0.0
C160 C 0.21681 0.72754 0.95151 0.0
C161 C 0.3624 0.72408 0.01573 0.0
C162 C 0.34665 0.69255 0.98977 0.0
C163 C 0.29805 0.69332 0.97038 0.0
C164 C 0.3827 0.66252 0.97949 0.0
C165 C 0.41465 0.72546 0.03694 0.0
C166 C 0.39804 0.66686 0.94926 0.0
C167 C 0.43184 0.63942 0.93873 0.0
C168 C 0.45119 0.60713 0.95806 0.0
C169 C 0.43597 0.60236 0.9884 0.0
C170 C 0.40172 0.62987 -0.00099 0.0
H171 H 0.42459 0.75618 0.05264 0.0
H172 H 0.41337 0.69681 0.05234 0.0
H173 H 0.44651 0.72309 0.02238 0.0
H174 H 0.38403 0.69179 0.9338 0.0
H175 H 0.44316 0.64341 0.9153 0.0
H176 H 0.98639 0.84709 0.99106 0.0
H177 H 0.9254 0.77884 0.99084 0.0
H178 H 0.8001 0.85607 0.00149 0.0
H179 H 0.85996 0.92388 0.00104 0.0
H180 H 0.87358 0.75043 0.03766 0.0
H181 H 0.72768 0.76729 0.93192 0.0
H182 H 0.79108 0.80076 0.93919 0.0
H183 H 0.73737 0.81627 0.95777 0.0
C184 C 0.94565 0.84946 0.99289 0.0
C185 C 0.92806 0.89097 0.99598 0.0
C186 C 0.91084 0.81044 0.99273 0.0
C187 C 0.85784 0.81226 0.99545 0.0
C188 C 0.84032 0.85369 -0.00166 0.0
H189 H 0.64277 0.6606 0.08922 0.0
H190 H 0.71369 0.70788 0.07021 0.0
C191 C 0.87487 0.89255 -0.00159 0.0
C192 C 0.82159 0.77138 -0.0017 0.0
H193 H 0.69616 0.72198 0.97307 0.0
C194 C 0.83523 0.74368 0.02306 0.0
C195 C 0.77189 0.76179 0.97888 0.0
C196 C 0.75643 0.78787 0.95023 0.0
C197 C 0.79911 0.70888 0.03047 0.0
C198 C 0.74762 0.7022 0.01311 0.0
C199 C 0.73531 0.72759 0.98676 0.0
C200 C 0.70483 0.6726 0.02415 0.0
C201 C 0.81607 0.68035 0.05743 0.0
C202 C 0.67497 0.63792 0.00417 0.0
C203 C 0.63397 0.61108 0.01504 0.0
C204 C 0.62228 0.61902 0.04594 0.0
C205 C 0.65164 0.65392 0.06548 0.0
C206 C 0.69229 0.6806 0.05472 0.0
H207 H 0.85906 0.67896 0.0604 0.0
H208 H 0.8071 0.6948 0.08006 0.0
H209 H 0.79524 0.64612 0.05339 0.0
H210 H 0.68358 0.6315 0.98034 0.0
H211 H 0.6117 0.5844 -0.00055 0.0
H212 H 0.92135 0.18447 0.00108 0.0
H213 H 0.87889 0.25184 0.99662 0.0
H214 H 0.73316 0.17816 0.0125 0.0
H215 H 0.77481 0.11082 0.01653 0.0
H216 H 0.78976 0.26691 0.95329 0.0
H217 H 0.75362 0.28332 0.07865 0.0
H218 H 0.79936 0.24854 0.06638 0.0
H219 H 0.73003 0.22995 0.05907 0.0
C220 C 0.8802 0.1825 0.0034 0.0
C221 C 0.85168 0.14218 0.00945 0.0
C222 C 0.8561 0.2211 0.00108 0.0
C223 C 0.8032 0.22017 0.00497 0.0
C224 C 0.7744 0.17989 0.01034 0.0
H225 H 0.56993 0.40029 0.98041 0.0
H226 H 0.62085 0.34005 0.99713 0.0
C227 C 0.79835 0.14136 0.01259 0.0
C228 C 0.77729 0.26083 0.00205 0.0
H229 H 0.71132 0.32967 0.04187 0.0
C230 C 0.77308 0.28093 0.97273 0.0
C231 C 0.7552 0.27877 0.02742 0.0
C232 C 0.76007 0.25932 0.05977 0.0
C233 C 0.74621 0.31785 0.96778 0.0
C234 C 0.72404 0.33586 0.99313 0.0
C235 C 0.7285 0.31592 0.02254 0.0
C236 C 0.69519 0.37481 0.98898 0.0
C237 C 0.74035 0.33637 0.93507 0.0
C238 C 0.72063 0.41507 0.98068 0.0
C239 C 0.6917 0.4492 0.97107 0.0
C240 C 0.63699 0.44389 0.97015 0.0
C241 C 0.61216 0.40519 0.98123 0.0
C242 C 0.64114 0.37078 0.99057 0.0
H243 H 0.74771 0.31234 0.91648 0.0
H244 H 0.70041 0.34578 0.92824 0.0
H245 H 0.76925 0.36642 0.93532 0.0
H246 H 0.76248 0.41922 0.97998 0.0
H247 H 0.7116 0.47882 0.96262 0.0
H248 H 0.68402 0.58482 0.49633 0.0
H249 H 0.74531 0.6532 0.49951 0.0
H250 H 0.6214 0.72906 0.51591 0.0
H251 H 0.55991 0.66105 0.51299 0.0
H252 H 0.73878 0.73242 0.46309 0.0
H253 H 0.73999 0.76359 0.59305 0.0
H254 H 0.71634 0.71037 0.57269 0.0
H255 H 0.6758 0.75412 0.56955 0.0
C256 C 0.66977 0.61605 0.5006 0.0
C257 C 0.61718 0.61746 0.50472 0.0
C258 C 0.7048 0.65505 0.50227 0.0
C259 C 0.68794 0.69602 0.50827 0.0
C260 C 0.63527 0.69765 0.51167 0.0
H261 H 0.82747 0.96482 0.55041 0.0
H262 H 0.76831 0.89654 0.53409 0.0
C263 C 0.6002 0.65875 0.50995 0.0
C264 C 0.72563 0.73707 0.51198 0.0
H265 H 0.78184 0.82095 0.56604 0.0
C266 C 0.74851 0.7518 0.48559 0.0
C267 C 0.73836 0.76195 0.54143 0.0
C268 C 0.71678 0.74663 0.57092 0.0
C269 C 0.78258 0.79174 0.48765 0.0
C270 C 0.79445 0.81702 0.51699 0.0
C271 C 0.7723 0.8017 0.54347 0.0
C272 C 0.829 0.85993 0.52111 0.0
C273 C 0.80439 0.80718 0.45831 0.0
C274 C 0.8825 0.86243 0.5182 0.0
C275 C 0.91635 0.9017 0.52727 0.0
C276 C 0.89713 0.9386 0.53975 0.0
C277 C 0.84316 0.93668 0.54096 0.0
C278 C 0.80943 0.89775 0.5317 0.0
H279 H 0.78199 0.78964 0.43616 0.0
H280 H 0.80387 0.84331 0.45629 0.0
H281 H 0.84575 0.80056 0.46012 0.0
H282 H 0.8986 0.83344 0.51061 0.0
H283 H 0.95794 0.90234 0.52645 0.0
H284 H 0.69533 0.35671 0.44011 0.0
H285 H 0.74852 0.29623 0.44738 0.0
H286 H 0.74353 0.30426 0.54857 0.0
H287 H 0.68975 0.3654 0.54127 0.0
H288 H 0.84768 0.30615 0.53011 0.0
H289 H 0.70835 0.16608 0.46944 0.0
H290 H 0.71095 0.21469 0.44674 0.0
H291 H 0.68718 0.21597 0.48447 0.0
C292 C 0.70515 0.34537 0.46388 0.0
C293 C 0.68861 0.36586 0.49015 0.0
C294 C 0.73518 0.31056 0.46798 0.0
C295 C 0.74956 0.29544 0.49845 0.0
C296 C 0.73246 0.31524 0.5248 0.0
H297 H 0.93487 0.07173 0.49632 0.0
H298 H 0.87288 0.11825 0.51445 0.0
C299 C 0.70165 0.34992 0.52062 0.0
C300 C 0.78565 0.26123 0.50242 0.0
H301 H 0.80035 0.15866 0.47306 0.0
C302 C 0.83706 0.2735 0.51829 0.0
C303 C 0.77166 0.21848 0.48731 0.0
C304 C 0.71636 0.20278 0.47128 0.0
C305 C 0.8758 0.2453 0.5174 0.0
C306 C 0.86281 0.20404 0.49997 0.0
C307 C 0.81047 0.19046 0.48618 0.0
C308 C 0.90368 0.17692 0.49256 0.0
C309 C 0.93074 0.26053 0.53425 0.0
C310 C 0.94157 0.19444 0.47437 0.0
C311 C 0.97658 0.16797 0.46398 0.0
C312 C 0.97463 0.12362 0.47158 0.0
C313 C 0.93765 0.1061 0.49049 0.0
C314 C 0.90217 0.13257 0.50074 0.0
H315 H 0.9306 0.28472 0.55442 0.0
H316 H 0.95036 0.23221 0.54347 0.0
H317 H 0.95419 0.27712 0.51716 0.0
H318 H 0.94278 0.22821 0.46715 0.0
H319 H 1.0046 0.18181 0.44925 0.0
H320 H 0.35541 0.42755 0.50838 0.0
H321 H 0.2911 0.36215 0.50704 0.0
H322 H 0.40487 0.27983 0.48316 0.0
H323 H 0.47047 0.34558 0.48513 0.0
H324 H 0.25009 0.30055 0.45792 0.0
H325 H 0.35547 0.22185 0.5605 0.0
H326 H 0.37413 0.27848 0.55164 0.0
H327 H 0.39101 0.23407 0.52789 0.0
C328 C 0.36703 0.3956 0.50286 0.0
C329 C 0.41826 0.39178 0.49702 0.0
C330 C 0.33005 0.3582 0.50201 0.0
C331 C 0.34324 0.31606 0.49528 0.0
C332 C 0.39411 0.31198 0.48894 0.0
H333 H 0.12884 0.07386 0.5152 0.0
H334 H 0.20006 0.1213 0.49596 0.0
C335 C 0.43146 0.34956 0.48996 0.0
C336 C 0.30324 0.27693 0.4955 0.0
H337 H 0.27164 0.1873 0.53822 0.0
C338 C 0.25509 0.2754 0.47517 0.0
C339 C 0.30989 0.24402 0.51791 0.0
C340 C 0.36019 0.24459 0.54093 0.0
C341 C 0.21268 0.2431 0.47767 0.0
C342 C 0.21851 0.21171 0.50117 0.0
C343 C 0.26748 0.2115 0.5202 0.0
C344 C 0.17285 0.1826 0.50918 0.0
C345 C 0.16139 0.24358 0.45582 0.0
C346 C 0.13404 0.20142 0.52277 0.0
C347 C 0.09386 0.17452 0.53389 0.0
C348 C 0.0915 0.12848 0.5314 0.0
C349 C 0.12943 0.10938 0.51694 0.0
C350 C 0.17013 0.13638 0.5061 0.0
H351 H 0.16721 0.26092 0.43377 0.0
H352 H 0.14171 0.20942 0.44907 0.0
H353 H 0.13485 0.26127 0.46841 0.0
H354 H 0.13594 0.23701 0.52585 0.0
H355 H 0.06504 0.1896 0.54512 0.0
H356 H 0.41743 0.68426 0.49902 0.0
H357 H 0.37352 0.7508 0.49334 0.0
H358 H 0.23209 0.67836 0.51679 0.0
H359 H 0.27524 0.61188 0.52215 0.0
H360 H 0.28147 0.76257 0.45212 0.0
H361 H 0.25585 0.78781 0.57884 0.0
H362 H 0.30045 0.75208 0.56637 0.0
H363 H 0.23121 0.73335 0.56148 0.0
C364 C 0.37691 0.6824 0.50276 0.0
C365 C 0.35008 0.64274 0.51134 0.0
C366 C 0.35198 0.72053 0.49974 0.0
C367 C 0.29993 0.71975 0.50537 0.0
C368 C 0.27274 0.68005 0.51324 0.0
H369 H 0.06887 0.90407 0.48175 0.0
H370 H 0.11758 0.84212 0.4977 0.0
C371 C 0.29753 0.64201 0.51625 0.0
C372 C 0.27319 0.75992 0.50176 0.0
H373 H 0.21094 0.83187 0.54152 0.0
C374 C 0.26643 0.77794 0.47171 0.0
C375 C 0.2532 0.77965 0.52734 0.0
C376 C 0.26086 0.76253 0.56042 0.0
C377 C 0.2394 0.8147 0.46634 0.0
C378 C 0.21959 0.83459 0.49193 0.0
C379 C 0.22626 0.81659 0.52201 0.0
C380 C 0.19203 0.87421 0.48756 0.0
C381 C 0.23119 0.83126 0.43307 0.0
C382 C 0.21837 0.91343 0.47824 0.0
C383 C 0.19074 0.94847 0.46912 0.0
C384 C 0.13643 0.94517 0.46958 0.0
C385 C 0.1108 0.9074 0.4814 0.0
C386 C 0.1385 0.87204 0.49033 0.0
H387 H 0.23661 0.80592 0.41481 0.0
H388 H 0.19126 0.84101 0.42704 0.0
H389 H 0.26025 0.86075 0.43172 0.0
H390 H 0.25987 0.91614 0.47661 0.0
H391 H 0.2113 0.97742 0.4602 0.0
H392 H 0.97932 0.02201 0.10365 0.0
H393 H 0.99393 0.02189 0.16174 0.0
H394 H 0.14351 0.97528 0.15967 0.0
H395 H 0.12918 0.97502 0.10101 0.0
H396 H 0.02077 0.94248 0.20042 0.0
H397 H 0.16714 0.09446 0.22116 0.0
H398 H 0.12044 0.08422 0.18484 0.0
H399 H 0.17433 0.05258 0.19163 0.0
C400 C 0.0154 0.01166 0.11542 0.0
C401 C 0.05324 0.99867 0.09772 0.0
C402 C 0.02357 0.01158 0.14862 0.0
C403 C 0.06986 0.9989 0.16483 0.0
C404 C 0.10768 0.98546 0.14742 0.0
H405 H 0.16662 0.01176 0.37146 0.0
H406 H 0.16589 0.00662 0.3137 0.0
C407 C 0.09936 0.9852 0.11401 0.0
C408 C 0.07778 0.99988 0.20005 0.0
H409 H 0.13924 0.06229 0.26638 0.0
C410 C 0.04699 0.96838 0.21494 0.0
C411 C 0.11215 0.03367 0.21871 0.0
C412 C 0.14545 0.06841 0.20348 0.0
C413 C 0.04914 0.97011 0.2482 0.0
C414 C 0.08187 1.00505 0.26686 0.0
C415 C 0.11386 0.03579 0.25198 0.0
C416 C 0.08274 0.01051 0.3018 0.0
C417 C 0.01652 0.93434 0.263 0.0
C418 C 0.03656 0.01583 0.31423 0.0
C419 C 0.03669 0.0183 0.34719 0.0
C420 C 0.0832 0.01598 0.36836 0.0
C421 C 0.12994 0.01281 0.35579 0.0
C422 C 0.12968 0.01011 0.32281 0.0
H423 H 1.00655 0.9038 0.2471 0.0
H424 H 0.03736 0.92587 0.28632 0.0
H425 H 0.97918 0.94617 0.26702 0.0
H426 H 1.00014 0.01733 0.2984 0.0
H427 H 0.99997 0.02047 0.35601 0.0
H428 H 0.05294 0.97447 0.89835 0.0
H429 H 0.04064 0.98295 0.84079 0.0
H430 H 0.92358 0.06924 0.85007 0.0
H431 H 0.93561 0.06106 0.90789 0.0
H432 H 0.94306 0.96335 0.79678 0.0
H433 H 0.03246 0.1393 0.8001 0.0
H434 H 0.04417 0.10479 0.83349 0.0
H435 H 0.98269 0.12631 0.82494 0.0
C436 C 0.02452 0.99525 0.88822 0.0
C437 C 0.99528 0.01715 0.90771 0.0
C438 C 0.01758 1.00004 0.85533 0.0
C439 C 0.98165 0.02706 0.84134 0.0
C440 C 0.952 0.0487 0.86057 0.0
H441 H 0.87982 0.02442 0.63548 0.0
H442 H 0.88076 0.02891 0.69334 0.0
C443 C 0.95872 0.04377 0.89353 0.0
C444 C 0.97493 0.03179 0.80647 0.0
H445 H 0.9988 0.10459 0.74937 0.0
C446 C 0.95483 0.99427 0.78635 0.0
C447 C 0.99085 0.07214 0.79313 0.0
C448 C 0.01412 0.11299 0.81391 0.0
C449 C 0.95057 0.99589 0.75309 0.0
C450 C 0.96642 0.03624 0.7397 0.0
C451 C 0.98627 0.07388 0.75981 0.0
C452 C 0.96545 0.03897 0.70491 0.0
C453 C 0.9307 0.95411 0.73253 0.0
C454 C 0.01275 0.04479 0.69241 0.0
C455 C 0.01239 0.04205 0.65944 0.0
C456 C 0.96463 0.0336 0.63842 0.0
C457 C 0.91723 0.03018 0.65107 0.0
C458 C 0.91766 0.03284 0.68406 0.0
H459 H 0.92919 0.92424 0.74678 0.0
H460 H 0.89045 0.95637 0.72017 0.0
H461 H 0.95607 0.94991 0.71401 0.0
H462 H 0.05 0.04955 0.70821 0.0
H463 H 0.04956 0.04442 0.6505 0.0
H464 H 0.50354 0.5455 0.60467 0.0
H465 H 0.52194 0.54524 0.66259 0.0
H466 H 0.63104 0.45105 0.65548 0.0
H467 H 0.61289 0.45108 0.59688 0.0
H468 H 0.55261 0.43037 0.69798 0.0
H469 H 0.65937 0.60007 0.72154 0.0
H470 H 0.59878 0.59679 0.69444 0.0
H471 H 0.65195 0.57025 0.68323 0.0
C472 C 0.53169 0.52479 0.61527 0.0
C473 C 0.55686 0.49832 0.59612 0.0
C474 C 0.54235 0.52493 0.64843 0.0
C475 C 0.57835 0.49865 0.66325 0.0
C476 C 0.60343 0.47186 0.64438 0.0
H477 H 0.66747 0.51344 0.87141 0.0
H478 H 0.67167 0.51008 0.81398 0.0
C479 C 0.59305 0.47192 0.61099 0.0
C480 C 0.5875 0.4982 0.69848 0.0
H481 H 0.62583 0.56612 0.76571 0.0
C482 C 0.56935 0.45978 0.71286 0.0
C483 C 0.60962 0.5366 0.71777 0.0
C484 C 0.63152 0.5782 0.70353 0.0
C485 C 0.57046 0.45943 0.74604 0.0
C486 C 0.58987 0.49858 0.76513 0.0
C487 C 0.61041 0.53633 0.75092 0.0
C488 C 0.58744 0.50137 0.79975 0.0
C489 C 0.55017 0.41743 0.76044 0.0
C490 C 0.5387 0.49854 0.8106 0.0
C491 C 0.53617 0.50068 0.84329 0.0
C492 C 0.58239 0.50557 0.86568 0.0
C493 C 0.63121 0.50924 0.85468 0.0
C494 C 0.6337 0.50742 0.82196 0.0
H495 H 0.54828 0.388 0.74393 0.0
H496 H 0.57541 0.41247 0.7832 0.0
H497 H 0.50997 0.41985 0.76569 0.0
H498 H 0.50259 0.49448 0.79375 0.0
H499 H 0.49802 0.49741 0.85105 0.0
H500 H 0.42939 0.56341 0.40818 0.0
H501 H 0.41472 0.57111 0.35023 0.0
H502 H 0.51784 0.47347 0.33811 0.0
H503 H 0.53288 0.46561 0.39568 0.0
H504 H 0.49754 0.59445 0.31066 0.0
H505 H 0.37928 0.43134 0.27491 0.0
H506 H 0.38668 0.45647 0.31481 0.0
H507 H 0.43843 0.42919 0.30246 0.0
C508 C 0.44856 0.54332 0.39313 0.0
C509 C 0.48217 0.5138 0.4065 0.0
C510 C 0.44025 0.54786 0.3601 0.0
C511 C 0.46481 0.52252 0.34 0.0
C512 C 0.498 0.49287 0.35325 0.0
H513 H 0.54932 0.5382 0.15409 0.0
H514 H 0.54394 0.54427 0.21105 0.0
C515 C 0.50666 0.48856 0.38617 0.0
C516 C 0.45758 0.52785 0.30518 0.0
H517 H 0.41513 0.47045 0.23374 0.0
C518 C 0.47891 0.56763 0.29377 0.0
C519 C 0.43284 0.4929 0.28331 0.0
C520 C 0.40754 0.45015 0.29439 0.0
C521 C 0.47823 0.57262 0.26092 0.0
C522 C 0.45597 0.53678 0.23915 0.0
C523 C 0.43249 0.49777 0.25053 0.0
C524 C 0.45909 0.53798 0.20462 0.0
C525 C 0.50185 0.61594 0.2498 0.0
C526 C 0.41314 0.53244 0.18213 0.0
C527 C 0.41607 0.52919 0.14951 0.0
C528 C 0.46505 0.5309 0.1388 0.0
C529 C 0.51103 0.5375 0.16144 0.0
C530 C 0.50804 0.54094 0.19404 0.0
H531 H 0.50401 0.6434 0.26805 0.0
H532 H 0.54237 0.61303 0.24534 0.0
H533 H 0.47875 0.62448 0.22721 0.0
H534 H 0.37499 0.52994 0.18986 0.0
H535 H 0.37994 0.52468 0.13268 0.0
loop_
_geom_bond_atom_site_label_1
_geom_bond_atom_site_label_2
_geom_bond_distance
_geom_bond_site_symmetry_2
_ccdc_geom_bond_type
Co0 N5 2.057 . S
Co0 O17 2.021 . S
Co0 O20 2.062 1_455 S
Co0 O24 2.117 1_554 S
Co0 O25 2.020 1_565 S
C1 O21 1.259 1_455 S
C1 O24 1.258 1_545 S
Co2 N11 2.057 . S
Co2 O18 2.117 1_655 S
Co2 O19 2.018 1_545 S
Co2 O21 2.021 1_554 S
Co2 O26 2.062 1_655 S
C3 N5 1.316 . S
C3 N6 1.347 . S
C3 H8 0.931 . S
C4 N5 1.375 1_556 S
C4 C7 1.350 . S
C4 H9 0.930 . S
N5 Co0 2.057 . S
N5 C3 1.316 . S
N5 C4 1.375 1_554 S
N6 C3 1.347 . S
N6 C7 1.373 1_554 S
C7 C4 1.350 . S
C7 N6 1.373 1_556 S
C7 H28 0.931 . S
H8 C3 0.931 . S
H9 C4 0.930 . S
C10 O17 1.259 1_545 S
C10 O18 1.257 . S
N11 Co2 2.057 . S
N11 C12 1.316 1_554 S
N11 C13 1.375 . S
C12 N11 1.316 1_556 S
C12 N14 1.347 1_556 S
C12 H23 0.931 . S
C13 N11 1.375 . S
C13 C15 1.350 . S
C13 H22 0.930 . S
N14 C12 1.347 1_554 S
N14 C15 1.373 . S
C15 C13 1.350 . S
C15 N14 1.373 . S
C15 H29 0.931 . S
C16 O19 1.257 . S
C16 O20 1.255 . S
O17 Co0 2.021 . S
O17 C10 1.259 1_565 S
O18 Co2 2.117 1_455 S
O18 C10 1.257 . S
O19 Co2 2.018 1_565 S
O19 C16 1.257 . S
O20 Co0 2.062 1_655 S
O20 C16 1.255 . S
O21 C1 1.259 1_655 S
O21 Co2 2.021 1_556 S
H22 C13 0.930 . S
H23 C12 0.931 . S
O24 Co0 2.117 1_556 S
O24 C1 1.258 1_565 S
O25 Co0 2.020 1_545 S
O25 C27 1.256 . S
O26 Co2 2.062 1_455 S
O26 C27 1.255 . S
C27 O25 1.256 . S
C27 O26 1.255 . S
H28 C7 0.931 . S
H29 C15 0.931 . S
Co30 N35 2.057 . S
Co30 O47 2.021 . S
Co30 O50 2.062 . S
Co30 O54 2.117 . S
Co30 O55 2.020 . S
C31 O51 1.259 . S
C31 O54 1.258 . S
Co32 N41 2.057 . S
Co32 O48 2.117 . S
Co32 O49 2.020 . S
Co32 O51 2.021 . S
Co32 O56 2.062 . S
C33 N35 1.316 . S
C33 N36 1.347 . S
C33 H38 0.931 . S
C34 N35 1.375 . S
C34 C37 1.350 . S
C34 H39 0.930 . S
N35 Co30 2.057 . S
N35 C33 1.316 . S
N35 C34 1.375 . S
N36 C33 1.347 . S
N36 C37 1.373 . S
C37 C34 1.350 . S
C37 N36 1.373 . S
C37 H58 0.931 . S
H38 C33 0.931 . S
H39 C34 0.930 . S
C40 O47 1.259 . S
C40 O48 1.258 . S
N41 Co32 2.057 . S
N41 C42 1.316 . S
N41 C43 1.375 . S
C42 N41 1.316 . S
C42 N44 1.347 . S
C42 H53 0.931 . S
C43 N41 1.375 . S
C43 C45 1.350 . S
C43 H52 0.930 . S
N44 C42 1.347 . S
N44 C45 1.373 . S
C45 C43 1.350 . S
C45 N44 1.373 . S
C45 H59 0.931 . S
C46 O49 1.256 . S
C46 O50 1.255 . S
O47 Co30 2.021 . S
O47 C40 1.259 . S
O48 Co32 2.117 . S
O48 C40 1.258 . S
O49 Co32 2.020 . S
O49 C46 1.256 . S
O50 Co30 2.062 . S
O50 C46 1.255 . S
O51 C31 1.259 . S
O51 Co32 2.021 . S
H52 C43 0.930 . S
H53 C42 0.931 . S
O54 Co30 2.117 . S
O54 C31 1.258 . S
O55 Co30 2.020 . S
O55 C57 1.256 . S
O56 Co32 2.062 . S
O56 C57 1.255 . S
C57 O55 1.256 . S
C57 O56 1.255 . S
H58 C37 0.931 . S
H59 C45 0.931 . S
H60 C65 0.929 . S
H61 C70 0.931 . S
H62 C68 0.930 1_655 S
N63 N64 1.234 . S
N63 C67 1.453 1_655 S
N64 N63 1.234 . S
C65 H60 0.929 . S
C65 C66 1.373 . S
C65 C67 1.368 1_565 S
C66 C65 1.373 . S
C66 C70 1.397 . S
C67 N63 1.453 1_455 S
C67 C65 1.368 1_545 S
C67 C68 1.373 . S
C68 H62 0.930 1_455 S
C68 C67 1.373 . S
C68 C69 1.371 1_545 S
C69 C68 1.371 1_565 S
C69 C70 1.383 . S
C70 H61 0.931 . S
C70 C66 1.397 . S
C70 C69 1.383 . S
H71 C76 0.929 . S
H72 C81 0.931 . S
H73 C79 0.930 . S
N74 N75 1.234 . S
N74 C78 1.453 . S
N75 N74 1.234 . S
C76 H71 0.929 . S
C76 C77 1.373 . S
C76 C78 1.368 1_665 S
C77 C76 1.373 . S
C77 C81 1.397 . S
C78 N74 1.453 . S
C78 C76 1.368 1_445 S
C78 C79 1.373 . S
C79 H73 0.930 . S
C79 C78 1.373 . S
C79 C80 1.371 1_455 S
C80 C79 1.371 1_655 S
C80 C81 1.383 1_545 S
C81 H72 0.931 . S
C81 C77 1.397 . S
C81 C80 1.383 1_565 S
H82 C87 0.929 . S
H83 C92 0.931 . S
H84 C90 0.930 . S
N85 N86 1.234 . S
N85 C89 1.453 . S
N86 N85 1.234 . S
C87 H82 0.929 . S
C87 C88 1.373 . S
C87 C89 1.368 . S
C88 C87 1.373 . S
C88 C92 1.397 . S
C89 N85 1.453 . S
C89 C87 1.368 . S
C89 C90 1.373 . S
C90 H84 0.930 . S
C90 C89 1.373 . S
C90 C91 1.371 . S
C91 C90 1.371 . S
C91 C92 1.383 . S
C92 H83 0.931 . S
C92 C88 1.397 . S
C92 C91 1.383 . S
H93 C98 0.929 . S
H94 C103 0.931 . S
H95 C101 0.930 . S
N96 N97 1.234 . S
N96 C100 1.453 . S
N97 N96 1.234 . S
C98 H93 0.929 . S
C98 C99 1.373 . S
C98 C100 1.368 . S
C99 C98 1.373 . S
C99 C103 1.397 . S
C100 N96 1.453 . S
C100 C98 1.368 . S
C100 C101 1.373 . S
C101 H95 0.930 . S
C101 C100 1.373 . S
C101 C102 1.371 . S
C102 C101 1.371 . S
C102 C103 1.383 . S
C103 H94 0.931 . S
C103 C99 1.397 . S
C103 C102 1.383 . S
H104 C112 0.929 . S
H105 C114 0.930 . S
H106 C116 0.930 1_556 S
H107 C119 0.929 . S
H108 C122 0.930 . S
H109 C124 0.960 . S
H110 C124 0.960 . S
H111 C124 0.960 . S
C112 H104 0.929 . S
C112 C113 1.377 . S
C112 C114 1.384 . S
C113 C112 1.377 . S
C113 C119 1.390 1_554 S
C114 H105 0.930 . S
C114 C112 1.384 . S
C114 C115 1.372 . S
C115 C114 1.372 . S
C115 C116 1.400 . S
C115 C120 1.490 . S
C116 H106 0.930 1_554 S
C116 C115 1.400 . S
C116 C119 1.386 1_554 S
H117 C133 0.930 . S
H118 C134 0.931 . S
C119 H107 0.929 . S
C119 C113 1.390 1_556 S
C119 C116 1.386 1_556 S
C120 C115 1.490 . S
C120 C122 1.395 . S
C120 C123 1.403 . S
H121 C127 0.930 . S
C122 H108 0.930 . S
C122 C120 1.395 . S
C122 C125 1.403 . S
C123 C120 1.403 . S
C123 C124 1.524 . S
C123 C127 1.400 . S
C124 H109 0.960 . S
C124 H110 0.960 . S
C124 H111 0.960 . S
C124 C123 1.524 . S
C125 C122 1.403 . S
C125 C126 1.392 . S
C125 C129 1.495 . S
C126 C125 1.392 . S
C126 C127 1.385 . S
C126 C128 1.478 . S
C127 H121 0.930 . S
C127 C123 1.400 . S
C127 C126 1.385 . S
C128 C126 1.478 . S
C128 C130 1.381 . S
C128 C134 1.383 . S
C129 C125 1.495 . S
C129 H135 0.959 1_554 S
C129 H136 0.961 1_554 S
C129 H137 0.960 . S
C130 C128 1.381 . S
C130 C131 1.394 . S
C130 H138 0.930 . S
C131 C130 1.394 . S
C131 C132 1.383 . S
C131 H139 0.929 . S
C132 C131 1.383 . S
C132 C133 1.377 . S
C133 H117 0.930 . S
C133 C132 1.377 . S
C133 C134 1.379 . S
C134 H118 0.931 . S
C134 C128 1.383 . S
C134 C133 1.379 . S
H135 C129 0.959 1_556 S
H136 C129 0.961 1_556 S
H137 C129 0.960 . S
H138 C130 0.930 . S
H139 C131 0.929 . S
H140 C148 0.929 . S
H141 C150 0.928 1_556 S
H142 C152 0.930 . S
H143 C155 0.929 . S
H144 C158 0.930 . S
H145 C160 0.960 . S
H146 C160 0.960 . S
H147 C160 0.960 . S
C148 H140 0.929 . S
C148 C149 1.377 . S
C148 C150 1.385 . S
C149 C148 1.377 . S
C149 C155 1.390 . S
C150 H141 0.928 1_554 S
C150 C148 1.385 . S
C150 C151 1.373 . S
C151 C150 1.373 . S
C151 C152 1.400 . S
C151 C156 1.494 . S
C152 H142 0.930 . S
C152 C151 1.400 . S
C152 C155 1.386 . S
H153 C169 0.930 . S
H154 C170 0.919 1_554 S
C155 H143 0.929 . S
C155 C149 1.390 . S
C155 C152 1.386 . S
C156 C151 1.494 . S
C156 C158 1.406 . S
C156 C159 1.388 1_554 S
H157 C163 0.930 . S
C158 H144 0.930 . S
C158 C156 1.406 . S
C158 C161 1.403 . S
C159 C156 1.388 1_556 S
C159 C160 1.524 . S
C159 C163 1.400 . S
C160 H145 0.960 . S
C160 H146 0.960 . S
C160 H147 0.960 . S
C160 C159 1.524 . S
C161 C158 1.403 . S
C161 C162 1.392 1_554 S
C161 C165 1.495 . S
C162 C161 1.392 1_556 S
C162 C163 1.385 . S
C162 C164 1.478 . S
C163 H157 0.930 . S
C163 C159 1.400 . S
C163 C162 1.385 . S
C164 C162 1.478 . S
C164 C166 1.381 . S
C164 C170 1.389 . S
C165 C161 1.495 . S
C165 H171 0.959 . S
C165 H172 0.961 . S
C165 H173 0.960 . S
C166 C164 1.381 . S
C166 C167 1.394 . S
C166 H174 0.930 . S
C167 C166 1.394 . S
C167 C168 1.383 . S
C167 H175 0.929 . S
C168 C167 1.383 . S
C168 C169 1.377 . S
C169 H153 0.930 . S
C169 C168 1.377 . S
C169 C170 1.385 . S
C170 H154 0.919 1_556 S
C170 C164 1.389 . S
C170 C169 1.385 . S
H171 C165 0.959 . S
H172 C165 0.961 . S
H173 C165 0.960 . S
H174 C166 0.930 . S
H175 C167 0.929 . S
H176 C184 0.929 . S
H177 C186 0.930 . S
H178 C188 0.930 . S
H179 C191 0.929 . S
H180 C194 0.930 . S
H181 C196 0.960 . S
H182 C196 0.960 . S
H183 C196 0.960 . S
C184 H176 0.929 . S
C184 C185 1.377 . S
C184 C186 1.384 . S
C185 C184 1.377 . S
C185 C191 1.390 1_554 S
C186 H177 0.930 . S
C186 C184 1.384 . S
C186 C187 1.372 . S
C187 C186 1.372 . S
C187 C188 1.400 1_554 S
C187 C192 1.490 . S
C188 H178 0.930 . S
C188 C187 1.400 1_556 S
C188 C191 1.386 . S
H189 C205 0.930 . S
H190 C206 0.938 . S
C191 H179 0.929 . S
C191 C185 1.390 1_556 S
C191 C188 1.386 . S
C192 C187 1.490 . S
C192 C194 1.395 . S
C192 C195 1.403 1_554 S
H193 C199 0.930 . S
C194 H180 0.930 . S
C194 C192 1.395 . S
C194 C197 1.403 . S
C195 C192 1.403 1_556 S
C195 C196 1.524 . S
C195 C199 1.400 . S
C196 H181 0.960 . S
C196 H182 0.960 . S
C196 H183 0.960 . S
C196 C195 1.524 . S
C197 C194 1.403 . S
C197 C198 1.392 . S
C197 C201 1.495 . S
C198 C197 1.392 . S
C198 C199 1.385 1_554 S
C198 C200 1.478 . S
C199 H193 0.930 . S
C199 C195 1.400 . S
C199 C198 1.385 1_556 S
C200 C198 1.478 . S
C200 C202 1.381 . S
C200 C206 1.383 . S
C201 C197 1.495 . S
C201 H207 0.959 . S
C201 H208 0.961 . S
C201 H209 0.960 . S
C202 C200 1.381 . S
C202 C203 1.394 . S
C202 H210 0.930 . S
C203 C202 1.394 . S
C203 C204 1.383 . S
C203 H211 0.929 . S
C204 C203 1.383 . S
C204 C205 1.377 . S
C205 H189 0.930 . S
C205 C204 1.377 . S
C205 C206 1.379 . S
C206 H190 0.938 . S
C206 C200 1.383 . S
C206 C205 1.379 . S
H207 C201 0.959 . S
H208 C201 0.961 . S
H209 C201 0.960 . S
H210 C202 0.930 . S
H211 C203 0.929 . S
H212 C220 0.929 . S
H213 C222 0.930 . S
H214 C224 0.930 . S
H215 C227 0.929 . S
H216 C230 0.930 . S
H217 C232 0.968 . S
H218 C232 0.960 1_554 S
H219 C232 0.960 . S
C220 H212 0.929 . S
C220 C221 1.377 1_554 S
C220 C222 1.384 . S
C221 C220 1.377 1_556 S
C221 C227 1.390 . S
C222 H213 0.930 . S
C222 C220 1.384 . S
C222 C223 1.372 1_554 S
C223 C222 1.372 1_556 S
C223 C224 1.400 . S
C223 C228 1.490 . S
C224 H214 0.930 . S
C224 C223 1.400 . S
C224 C227 1.386 . S
H225 C241 0.930 . S
H226 C242 0.931 . S
C227 H215 0.929 . S
C227 C221 1.390 . S
C227 C224 1.386 . S
C228 C223 1.490 . S
C228 C230 1.395 . S
C228 C231 1.403 . S
H229 C235 0.930 . S
C230 H216 0.930 . S
C230 C228 1.395 . S
C230 C233 1.403 . S
C231 C228 1.403 . S
C231 C232 1.524 . S
C231 C235 1.400 . S
C232 H217 0.968 . S
C232 H218 0.960 1_556 S
C232 H219 0.960 . S
C232 C231 1.524 . S
C233 C230 1.403 . S
C233 C234 1.392 . S
C233 C237 1.495 . S
C234 C233 1.392 . S
C234 C235 1.385 . S
C234 C236 1.478 . S
C235 H229 0.930 . S
C235 C231 1.400 . S
C235 C234 1.385 . S
C236 C234 1.478 . S
C236 C238 1.381 . S
C236 C242 1.383 . S
C237 C233 1.495 . S
C237 H243 0.959 . S
C237 H244 0.961 . S
C237 H245 0.960 . S
C238 C236 1.381 . S
C238 C239 1.394 . S
C238 H246 0.930 1_556 S
C239 C238 1.394 . S
C239 C240 1.383 . S
C239 H247 0.929 1_556 S
C240 C239 1.383 . S
C240 C241 1.377 . S
C241 H225 0.930 . S
C241 C240 1.377 . S
C241 C242 1.379 . S
C242 H226 0.931 . S
C242 C236 1.383 . S
C242 C241 1.379 . S
H243 C237 0.959 . S
H244 C237 0.961 . S
H245 C237 0.960 . S
H246 C238 0.930 1_554 S
H247 C239 0.929 1_554 S
H248 C256 0.929 . S
H249 C258 0.930 . S
H250 C260 0.930 . S
H251 C263 0.929 . S
H252 C266 0.930 . S
H253 C268 0.960 . S
H254 C268 0.960 . S
H255 C268 0.960 . S
C256 H248 0.929 . S
C256 C257 1.377 . S
C256 C258 1.384 . S
C257 C256 1.377 . S
C257 C263 1.390 . S
C258 H249 0.930 . S
C258 C256 1.384 . S
C258 C259 1.372 . S
C259 C258 1.372 . S
C259 C260 1.400 . S
C259 C264 1.490 . S
C260 H250 0.930 . S
C260 C259 1.400 . S
C260 C263 1.386 . S
H261 C277 0.930 . S
H262 C278 0.931 . S
C263 H251 0.929 . S
C263 C257 1.390 . S
C263 C260 1.386 . S
C264 C259 1.490 . S
C264 C266 1.395 . S
C264 C267 1.403 . S
H265 C271 0.930 . S
C266 H252 0.930 . S
C266 C264 1.395 . S
C266 C269 1.403 . S
C267 C264 1.403 . S
C267 C268 1.524 . S
C267 C271 1.400 . S
C268 H253 0.960 . S
C268 H254 0.960 . S
C268 H255 0.960 . S
C268 C267 1.524 . S
C269 C266 1.403 . S
C269 C270 1.392 . S
C269 C273 1.495 . S
C270 C269 1.392 . S
C270 C271 1.385 . S
C270 C272 1.478 . S
C271 H265 0.930 . S
C271 C267 1.400 . S
C271 C270 1.385 . S
C272 C270 1.478 . S
C272 C274 1.381 . S
C272 C278 1.383 . S
C273 C269 1.495 . S
C273 H279 0.959 . S
C273 H280 0.961 . S
C273 H281 0.960 . S
C274 C272 1.381 . S
C274 C275 1.394 . S
C274 H282 0.930 . S
C275 C274 1.394 . S
C275 C276 1.383 . S
C275 H283 0.929 . S
C276 C275 1.383 . S
C276 C277 1.377 . S
C277 H261 0.930 . S
C277 C276 1.377 . S
C277 C278 1.379 . S
C278 H262 0.931 . S
C278 C272 1.383 . S
C278 C277 1.379 . S
H279 C273 0.959 . S
H280 C273 0.961 . S
H281 C273 0.960 . S
H282 C274 0.930 . S
H283 C275 0.929 . S
H284 C292 0.929 . S
H285 C294 0.930 . S
H286 C296 0.930 . S
H287 C299 0.929 . S
H288 C302 0.930 . S
H289 C304 0.960 . S
H290 C304 0.960 . S
H291 C304 0.960 . S
C292 H284 0.929 . S
C292 C293 1.377 . S
C292 C294 1.384 . S
C293 C292 1.377 . S
C293 C299 1.390 . S
C294 H285 0.930 . S
C294 C292 1.384 . S
C294 C295 1.372 . S
C295 C294 1.372 . S
C295 C296 1.400 . S
C295 C300 1.490 . S
C296 H286 0.930 . S
C296 C295 1.400 . S
C296 C299 1.386 . S
H297 C313 0.930 . S
H298 C314 0.931 . S
C299 H287 0.929 . S
C299 C293 1.390 . S
C299 C296 1.386 . S
C300 C295 1.490 . S
C300 C302 1.395 . S
C300 C303 1.403 . S
H301 C307 0.930 . S
C302 H288 0.930 . S
C302 C300 1.395 . S
C302 C305 1.403 . S
C303 C300 1.403 . S
C303 C304 1.524 . S
C303 C307 1.400 . S
C304 H289 0.960 . S
C304 H290 0.960 . S
C304 H291 0.960 . S
C304 C303 1.524 . S
C305 C302 1.403 . S
C305 C306 1.392 . S
C305 C309 1.495 . S
C306 C305 1.392 . S
C306 C307 1.385 . S
C306 C308 1.478 . S
C307 H301 0.930 . S
C307 C303 1.400 . S
C307 C306 1.385 . S
C308 C306 1.478 . S
C308 C310 1.381 . S
C308 C314 1.383 . S
C309 C305 1.495 . S
C309 H315 0.959 . S
C309 H316 0.961 . S
C309 H317 0.960 . S
C310 C308 1.381 . S
C310 C311 1.394 . S
C310 H318 0.930 . S
C311 C310 1.394 . S
C311 C312 1.383 . S
C311 H319 0.929 . S
C312 C311 1.383 . S
C312 C313 1.377 . S
C313 H297 0.930 . S
C313 C312 1.377 . S
C313 C314 1.379 . S
C314 H298 0.931 . S
C314 C308 1.383 . S
C314 C313 1.379 . S
H315 C309 0.959 . S
H316 C309 0.961 . S
H317 C309 0.960 . S
H318 C310 0.930 . S
H319 C311 0.929 . S
H320 C328 0.929 . S
H321 C330 0.930 . S
H322 C332 0.930 . S
H323 C335 0.929 . S
H324 C338 0.930 . S
H325 C340 0.960 . S
H326 C340 0.960 . S
H327 C340 0.960 . S
C328 H320 0.929 . S
C328 C329 1.377 . S
C328 C330 1.384 . S
C329 C328 1.377 . S
C329 C335 1.390 . S
C330 H321 0.930 . S
C330 C328 1.384 . S
C330 C331 1.372 . S
C331 C330 1.372 . S
C331 C332 1.400 . S
C331 C336 1.490 . S
C332 H322 0.930 . S
C332 C331 1.400 . S
C332 C335 1.386 . S
H333 C349 0.930 . S
H334 C350 0.931 . S
C335 H323 0.929 . S
C335 C329 1.390 . S
C335 C332 1.386 . S
C336 C331 1.490 . S
C336 C338 1.395 . S
C336 C339 1.403 . S
H337 C343 0.930 . S
C338 H324 0.930 . S
C338 C336 1.395 . S
C338 C341 1.403 . S
C339 C336 1.403 . S
C339 C340 1.524 . S
C339 C343 1.400 . S
C340 H325 0.960 . S
C340 H326 0.960 . S
C340 H327 0.960 . S
C340 C339 1.524 . S
C341 C338 1.403 . S
C341 C342 1.392 . S
C341 C345 1.495 . S
C342 C341 1.392 . S
C342 C343 1.385 . S
C342 C344 1.478 . S
C343 H337 0.930 . S
C343 C339 1.400 . S
C343 C342 1.385 . S
C344 C342 1.478 . S
C344 C346 1.381 . S
C344 C350 1.383 . S
C345 C341 1.495 . S
C345 H351 0.959 . S
C345 H352 0.961 . S
C345 H353 0.960 . S
C346 C344 1.381 . S
C346 C347 1.394 . S
C346 H354 0.930 . S
C347 C346 1.394 . S
C347 C348 1.383 . S
C347 H355 0.929 . S
C348 C347 1.383 . S
C348 C349 1.377 . S
C349 H333 0.930 . S
C349 C348 1.377 . S
C349 C350 1.379 . S
C350 H334 0.931 . S
C350 C344 1.383 . S
C350 C349 1.379 . S
H351 C345 0.959 . S
H352 C345 0.961 . S
H353 C345 0.960 . S
H354 C346 0.930 . S
H355 C347 0.929 . S
H356 C364 0.929 . S
H357 C366 0.930 . S
H358 C368 0.930 . S
H359 C371 0.929 . S
H360 C374 0.930 . S
H361 C376 0.960 . S
H362 C376 0.960 . S
H363 C376 0.960 . S
C364 H356 0.929 . S
C364 C365 1.377 . S
C364 C366 1.384 . S
C365 C364 1.377 . S
C365 C371 1.390 . S
C366 H357 0.930 . S
C366 C364 1.384 . S
C366 C367 1.372 . S
C367 C366 1.372 . S
C367 C368 1.400 . S
C367 C372 1.490 . S
C368 H358 0.930 . S
C368 C367 1.400 . S
C368 C371 1.386 . S
H369 C385 0.930 . S
H370 C386 0.931 . S
C371 H359 0.929 . S
C371 C365 1.390 . S
C371 C368 1.386 . S
C372 C367 1.490 . S
C372 C374 1.395 . S
C372 C375 1.403 . S
H373 C379 0.930 . S
C374 H360 0.930 . S
C374 C372 1.395 . S
C374 C377 1.403 . S
C375 C372 1.403 . S
C375 C376 1.524 . S
C375 C379 1.400 . S
C376 H361 0.960 . S
C376 H362 0.960 . S
C376 H363 0.960 . S
C376 C375 1.524 . S
C377 C374 1.403 . S
C377 C378 1.392 . S
C377 C381 1.495 . S
C378 C377 1.392 . S
C378 C379 1.385 . S
C378 C380 1.478 . S
C379 H373 0.930 . S
C379 C375 1.400 . S
C379 C378 1.385 . S
C380 C378 1.478 . S
C380 C382 1.381 . S
C380 C386 1.383 . S
C381 C377 1.495 . S
C381 H387 0.959 . S
C381 H388 0.961 . S
C381 H389 0.960 . S
C382 C380 1.381 . S
C382 C383 1.394 . S
C382 H390 0.930 . S
C383 C382 1.394 . S
C383 C384 1.383 . S
C383 H391 0.929 . S
C384 C383 1.383 . S
C384 C385 1.377 . S
C385 H369 0.930 . S
C385 C384 1.377 . S
C385 C386 1.379 . S
C386 H370 0.931 . S
C386 C380 1.383 . S
C386 C385 1.379 . S
H387 C381 0.959 . S
H388 C381 0.961 . S
H389 C381 0.960 . S
H390 C382 0.930 . S
H391 C383 0.929 . S
H392 C400 0.929 . S
H393 C402 0.930 . S
H394 C404 0.930 . S
H395 C407 0.929 . S
H396 C410 0.930 . S
H397 C412 0.960 . S
H398 C412 0.960 . S
H399 C412 0.960 . S
C400 H392 0.929 . S
C400 C401 1.377 1_655 S
C400 C402 1.384 . S
C401 C400 1.377 1_455 S
C401 C407 1.390 1_545 S
C402 H393 0.930 . S
C402 C400 1.384 . S
C402 C403 1.372 1_655 S
C403 C402 1.372 1_455 S
C403 C404 1.400 1_545 S
C403 C408 1.490 . S
C404 H394 0.930 . S
C404 C403 1.400 1_565 S
C404 C407 1.386 . S
H405 C421 0.930 . S
H406 C422 0.931 . S
C407 H395 0.929 . S
C407 C401 1.390 1_565 S
C407 C404 1.386 . S
C408 C403 1.490 . S
C408 C410 1.395 1_445 S
C408 C411 1.403 . S
H409 C415 0.930 . S
C410 H396 0.930 . S
C410 C408 1.395 1_665 S
C410 C413 1.403 . S
C411 C408 1.403 . S
C411 C412 1.524 . S
C411 C415 1.400 . S
C412 H397 0.960 . S
C412 H398 0.960 . S
C412 H399 0.960 . S
C412 C411 1.524 . S
C413 C410 1.403 . S
C413 C414 1.392 1_655 S
C413 C417 1.495 . S
C414 C413 1.392 1_455 S
C414 C415 1.385 1_565 S
C414 C416 1.478 . S
C415 H409 0.930 . S
C415 C411 1.400 . S
C415 C414 1.385 1_545 S
C416 C414 1.478 . S
C416 C418 1.381 1_465 S
C416 C422 1.383 . S
C417 C413 1.495 . S
C417 H423 0.959 . S
C417 H424 0.961 . S
C417 H425 0.960 . S
C418 C416 1.381 1_645 S
C418 C419 1.394 . S
C418 H426 0.930 . S
C419 C418 1.394 . S
C419 C420 1.380 1_645 S
C419 H427 0.929 . S
C420 C419 1.380 1_465 S
C420 C421 1.380 . S
C421 H405 0.930 . S
C421 C420 1.380 . S
C421 C422 1.379 . S
C422 H406 0.931 . S
C422 C416 1.383 . S
C422 C421 1.379 . S
H423 C417 0.959 . S
H424 C417 0.961 . S
H425 C417 0.960 . S
H426 C418 0.930 . S
H427 C419 0.929 . S
H428 C436 0.929 . S
H429 C438 0.930 . S
H430 C440 0.930 . S
H431 C443 0.929 . S
H432 C446 0.930 . S
H433 C448 0.960 1_655 S
H434 C448 0.960 . S
H435 C448 0.960 1_655 S
C436 H428 0.929 . S
C436 C437 1.377 1_565 S
C436 C438 1.384 . S
C437 C436 1.377 1_545 S
C437 C443 1.390 1_455 S
C438 H429 0.930 . S
C438 C436 1.384 . S
C438 C439 1.372 1_565 S
C439 C438 1.372 1_545 S
C439 C440 1.400 1_455 S
C439 C444 1.490 . S
C440 H430 0.930 . S
C440 C439 1.400 1_655 S
C440 C443 1.386 . S
H441 C457 0.930 . S
H442 C458 0.931 . S
C443 H431 0.929 . S
C443 C437 1.390 1_655 S
C443 C440 1.386 . S
C444 C439 1.490 . S
C444 C446 1.395 1_545 S
C444 C447 1.403 . S
H445 C451 0.931 . S
C446 H432 0.930 . S
C446 C444 1.395 1_565 S
C446 C449 1.403 . S
C447 C444 1.403 . S
C447 C448 1.524 . S
C447 C451 1.401 1_455 S
C448 H433 0.960 1_455 S
C448 H434 0.960 . S
C448 H435 0.960 1_455 S
C448 C447 1.524 . S
C449 C446 1.403 . S
C449 C450 1.376 1_565 S
C449 C453 1.495 . S
C450 C449 1.376 1_545 S
C450 C451 1.400 1_455 S
C450 C452 1.479 1_455 S
C451 H445 0.931 . S
C451 C447 1.401 1_655 S
C451 C450 1.400 1_655 S
C452 C450 1.479 1_655 S
C452 C454 1.364 1_645 S
C452 C458 1.401 . S
C453 C449 1.495 . S
C453 H459 0.959 . S
C453 H460 0.961 1_455 S
C453 H461 0.960 . S
C454 C452 1.364 1_465 S
C454 C455 1.394 . S
C454 H462 0.930 . S
C455 C454 1.394 . S
C455 C456 1.383 1_465 S
C455 H463 0.929 . S
C456 C455 1.383 1_645 S
C456 C457 1.377 . S
C457 H441 0.930 . S
C457 C456 1.377 . S
C457 C458 1.379 . S
C458 H442 0.931 . S
C458 C452 1.401 . S
C458 C457 1.379 . S
H459 C453 0.959 . S
H460 C453 0.961 1_655 S
H461 C453 0.960 . S
H462 C454 0.930 . S
H463 C455 0.929 . S
H464 C472 0.929 . S
H465 C474 0.930 . S
H466 C476 0.930 . S
H467 C479 0.929 . S
H468 C482 0.930 . S
H469 C484 0.960 . S
H470 C484 0.960 . S
H471 C484 0.960 . S
C472 H464 0.929 . S
C472 C473 1.377 . S
C472 C474 1.384 . S
C473 C472 1.377 . S
C473 C479 1.390 . S
C474 H465 0.930 . S
C474 C472 1.384 . S
C474 C475 1.372 . S
C475 C474 1.372 . S
C475 C476 1.400 . S
C475 C480 1.490 . S
C476 H466 0.930 . S
C476 C475 1.400 . S
C476 C479 1.386 . S
H477 C493 0.930 . S
H478 C494 0.931 . S
C479 H467 0.929 . S
C479 C473 1.390 . S
C479 C476 1.386 . S
C480 C475 1.490 . S
C480 C482 1.395 . S
C480 C483 1.403 . S
H481 C487 0.930 . S
C482 H468 0.930 . S
C482 C480 1.395 . S
C482 C485 1.403 . S
C483 C480 1.403 . S
C483 C484 1.524 . S
C483 C487 1.400 . S
C484 H469 0.960 . S
C484 H470 0.960 . S
C484 H471 0.960 . S
C484 C483 1.524 . S
C485 C482 1.403 . S
C485 C486 1.392 . S
C485 C489 1.495 . S
C486 C485 1.392 . S
C486 C487 1.385 . S
C486 C488 1.478 . S
C487 H481 0.930 . S
C487 C483 1.400 . S
C487 C486 1.385 . S
C488 C486 1.478 . S
C488 C490 1.381 . S
C488 C494 1.383 . S
C489 C485 1.495 . S
C489 H495 0.959 . S
C489 H496 0.961 . S
C489 H497 0.960 . S
C490 C488 1.381 . S
C490 C491 1.394 . S
C490 H498 0.930 . S
C491 C490 1.394 . S
C491 C492 1.383 . S
C491 H499 0.929 . S
C492 C491 1.383 . S
C492 C493 1.377 . S
C493 H477 0.930 . S
C493 C492 1.377 . S
C493 C494 1.379 . S
C494 H478 0.931 . S
C494 C488 1.383 . S
C494 C493 1.379 . S
H495 C489 0.959 . S
H496 C489 0.961 . S
H497 C489 0.960 . S
H498 C490 0.930 . S
H499 C491 0.929 . S
H500 C508 0.929 . S
H501 C510 0.930 . S
H502 C512 0.930 . S
H503 C515 0.929 . S
H504 C518 0.930 . S
H505 C520 0.960 . S
H506 C520 0.960 . S
H507 C520 0.960 . S
C508 H500 0.929 . S
C508 C509 1.377 . S
C508 C510 1.384 . S
C509 C508 1.377 . S
C509 C515 1.390 . S
C510 H501 0.930 . S
C510 C508 1.384 . S
C510 C511 1.372 . S
C511 C510 1.372 . S
C511 C512 1.400 . S
C511 C516 1.490 . S
C512 H502 0.930 . S
C512 C511 1.400 . S
C512 C515 1.386 . S
H513 C529 0.930 . S
H514 C530 0.931 . S
C515 H503 0.929 . S
C515 C509 1.390 . S
C515 C512 1.386 . S
C516 C511 1.490 . S
C516 C518 1.395 . S
C516 C519 1.403 . S
H517 C523 0.930 . S
C518 H504 0.930 . S
C518 C516 1.395 . S
C518 C521 1.403 . S
C519 C516 1.403 . S
C519 C520 1.524 . S
C519 C523 1.400 . S
C520 H505 0.960 . S
C520 H506 0.960 . S
C520 H507 0.960 . S
C520 C519 1.524 . S
C521 C518 1.403 . S
C521 C522 1.392 . S
C521 C525 1.495 . S
C522 C521 1.392 . S
C522 C523 1.385 . S
C522 C524 1.478 . S
C523 H517 0.930 . S
C523 C519 1.400 . S
C523 C522 1.385 . S
C524 C522 1.478 . S
C524 C526 1.381 . S
C524 C530 1.383 . S
C525 C521 1.495 . S
C525 H531 0.959 . S
C525 H532 0.961 . S
C525 H533 0.960 . S
C526 C524 1.381 . S
C526 C527 1.394 . S
C526 H534 0.930 . S
C527 C526 1.394 . S
C527 C528 1.383 . S
C527 H535 0.929 . S
C528 C527 1.383 . S
C528 C529 1.377 . S
C529 H513 0.930 . S
C529 C528 1.377 . S
C529 C530 1.379 . S
C530 H514 0.931 . S
C530 C524 1.383 . S
C530 C529 1.379 . S
H531 C525 0.959 . S
H532 C525 0.961 . S
H533 C525 0.960 . S
H534 C526 0.930 . S
H535 C527 0.929 . S
C132 C99 1.438 . S
C113 C27 1.459 . S
C149 N6 1.292 . S
C168 N86 1.331 . S
C185 C16 1.377 . S
C204 N97 1.306 . S
C221 N14 1.416 1_556 S
C240 C88 1.417 . S
C257 C57 1.460 . S
C276 C77 1.451 . S
C293 N36 1.297 . S
C312 N64 1.298 . S
C348 N75 1.335 . S
C329 C46 1.374 . S
C384 C66 1.408 . S
C365 N44 1.418 . S
C401 C10 1.471 . S
C420 C69 1.462 . S
C437 C1 1.540 . S
C456 C80 1.520 . S
C492 C91 1.455 . S
C473 C40 1.471 . S
C509 C31 1.539 . S
C528 C102 1.537 . S
