# Generated by pormake.
# Topology rtl, (3,6)-cn, num edge types: 1
# Building blocks:
#     Node 0, Type 0, BuildingBlock: VETTIZ_charged_linker_0, # of connection points: 3
#     Node 1, Type 0, BuildingBlock: VETTIZ_charged_linker_0, # of connection points: 3
#     Node 2, Type 0, BuildingBlock: VETTIZ_charged_linker_0, # of connection points: 3
#     Node 3, Type 0, BuildingBlock: VETTIZ_charged_linker_0, # of connection points: 3
#     Node 4, Type 1, BuildingBlock: KUMBOL_clean_sbu_1, # of connection points: 6
#     Node 5, Type 1, BuildingBlock: KUMBOL_clean_sbu_1, # of connection points: 6
#     Edge 6, Type (0, 1), BuildingBlock: MIFKUJ_clean_linker_0, # of connection points: 2
#     Edge 7, Type (0, 1), BuildingBlock: MIFKUJ_clean_linker_0, # of connection points: 2
#     Edge 8, Type (0, 1), BuildingBlock: MIFKUJ_clean_linker_0, # of connection points: 2
#     Edge 9, Type (0, 1), BuildingBlock: MIFKUJ_clean_linker_0, # of connection points: 2
#     Edge 10, Type (0, 1), BuildingBlock: MIFKUJ_clean_linker_0, # of connection points: 2
#     Edge 11, Type (0, 1), BuildingBlock: MIFKUJ_clean_linker_0, # of connection points: 2
#     Edge 12, Type (0, 1), BuildingBlock: MIFKUJ_clean_linker_0, # of connection points: 2
#     Edge 13, Type (0, 1), BuildingBlock: MIFKUJ_clean_linker_0, # of connection points: 2
#     Edge 14, Type (0, 1), BuildingBlock: MIFKUJ_clean_linker_0, # of connection points: 2
#     Edge 15, Type (0, 1), BuildingBlock: MIFKUJ_clean_linker_0, # of connection points: 2
#     Edge 16, Type (0, 1), BuildingBlock: MIFKUJ_clean_linker_0, # of connection points: 2
#     Edge 17, Type (0, 1), BuildingBlock: MIFKUJ_clean_linker_0, # of connection points: 2
# Relax obj value: 0.017
# Max RMSD: 0.086
# Mean RMSD: 0.052
data_MOF--net-rtl--node1-KUMBOL_clean_sbu_1--node2-VETTIZ_charged_linker_0--edge1-MIFKUJ_clean_linker_0
_symmetry_space_group_name_H-M    P1
_symmetry_Int_Tables_number       1
_symmetry_cell_setting            triclinic
loop_
_symmetry_equiv_pos_as_xyz
'x, y, z'
_cell_length_a     48.916654
_cell_length_b     49.546134
_cell_length_c     42.659082
_cell_angle_alpha  82.028373
_cell_angle_beta   99.242561
_cell_angle_gamma 90.255448
loop_
_atom_site_label
_atom_site_type_symbol
_atom_site_fract_x
_atom_site_fract_y
_atom_site_fract_z
_atom_type_partial_charge
C0 C 0.17806 0.88181 0.91203 0.0
C1 C 0.15993 0.90445 0.90584 0.0
C2 C 0.15328 0.9166 0.93167 0.0
C3 C 0.18225 0.88307 0.96935 0.0
C4 C 0.18921 0.87176 0.94376 0.0
C5 C 0.21 0.84878 0.95423 0.0
H6 H 0.29098 0.76734 0.07293 0.0
C7 C 0.19759 0.86769 0.9992 0.0
C8 C 0.21419 0.84789 0.99036 0.0
H9 H 0.2832 0.76782 0.97042 0.0
H10 H 0.24998 0.8048 0.9613 0.0
H11 H 0.29135 0.83272 0.07146 0.0
H12 H 0.22554 0.77478 0.07304 0.0
H13 H 0.22036 0.79808 0.09908 0.0
H14 H 0.25145 0.77718 0.10742 0.0
H15 H 0.28774 0.80943 0.10667 0.0
H16 H 0.26987 0.84206 0.09763 0.0
C17 C 0.23673 0.85702 0.94024 0.0
C18 C 0.19642 0.82251 0.94353 0.0
C19 C 0.17849 0.88625 0.10818 0.0
C20 C 0.18907 0.87469 0.13988 0.0
C21 C 0.21062 0.85494 0.14489 0.0
C22 C 0.22075 0.84622 0.11898 0.0
C23 C 0.20935 0.85733 0.08752 0.0
C24 C 0.18894 0.87737 0.08251 0.0
C25 C 0.1799 0.88741 0.04739 0.0
C26 C 0.19747 0.86932 0.0322 0.0
C27 C 0.21464 0.85168 0.05586 0.0
C28 C 0.18756 0.91785 0.04094 0.0
C29 C 0.14861 0.88194 0.03875 0.0
C30 C 0.28222 0.77561 0.04855 0.0
C31 C 0.28962 0.76457 0.02235 0.0
C32 C 0.27755 0.7757 0.99101 0.0
C33 C 0.25835 0.79732 0.98574 0.0
C34 C 0.25095 0.80803 0.01208 0.0
C35 C 0.26277 0.7972 0.04285 0.0
C36 C 0.25182 0.81091 0.06781 0.0
C37 C 0.23186 0.83201 0.04685 0.0
C38 C 0.2315 0.83013 0.01428 0.0
C39 C 0.27636 0.8244 0.08721 0.0
C40 C 0.23662 0.78926 0.08819 0.0
H41 H 0.15821 0.9158 0.9822 0.0
H42 H 0.18385 0.87246 0.89249 0.0
H43 H 0.17409 0.82209 0.94589 0.0
H44 H 0.20545 0.8037 0.95848 0.0
H45 H 0.19784 0.82126 0.91804 0.0
H46 H 0.23949 0.87948 0.9377 0.0
H47 H 0.23605 0.85073 0.91614 0.0
H48 H 0.25579 0.84856 0.95602 0.0
H49 H 0.16192 0.9014 0.10328 0.0
H50 H 0.21972 0.84614 0.16895 0.0
H51 H 0.23698 0.831 0.12448 0.0
H52 H 0.20605 0.92261 0.05802 0.0
H53 H 0.17028 0.9314 0.04354 0.0
H54 H 0.19346 0.92349 0.01696 0.0
H55 H 0.14376 0.86106 0.0495 0.0
H56 H 0.14155 0.88293 0.01274 0.0
H57 H 0.13599 0.89667 0.04804 0.0
H58 H 0.13937 0.93415 0.92723 0.0
C59 C 0.16421 0.90591 0.96345 0.0
C60 C 0.64127 0.67726 0.68843 0.0
C61 C 0.61937 0.65863 0.68869 0.0
C62 C 0.60616 0.65124 0.6593 0.0
C63 C 0.63763 0.6789 0.63071 0.0
C64 C 0.65 0.68715 0.6592 0.0
C65 C 0.67311 0.70681 0.65429 0.0
H66 H 0.75312 0.7726 0.55232 0.0
C67 C 0.65224 0.69163 0.60488 0.0
C68 C 0.67302 0.70821 0.61839 0.0
H69 H 0.75751 0.77804 0.65325 0.0
H70 H 0.71908 0.74715 0.6558 0.0
H71 H 0.74652 0.7098 0.55812 0.0
H72 H 0.68669 0.77566 0.53469 0.0
H73 H 0.67669 0.75202 0.50803 0.0
H74 H 0.70982 0.76812 0.50826 0.0
H75 H 0.73983 0.72928 0.51891 0.0
H76 H 0.72029 0.69933 0.52952 0.0
C77 C 0.70037 0.69406 0.67419 0.0
C78 C 0.665 0.73453 0.66335 0.0
C79 C 0.62741 0.6649 0.49302 0.0
C80 C 0.63932 0.67097 0.46506 0.0
C81 C 0.66112 0.68962 0.46467 0.0
C82 C 0.67128 0.7017 0.4919 0.0
C83 C 0.65977 0.69485 0.52004 0.0
C84 C 0.63812 0.67685 0.52023 0.0
C85 C 0.62929 0.67113 0.55266 0.0
C86 C 0.64928 0.68861 0.57189 0.0
C87 C 0.66697 0.70248 0.55261 0.0
C88 C 0.63413 0.64027 0.56483 0.0
C89 C 0.59886 0.68118 0.54937 0.0
C90 C 0.74605 0.76699 0.5751 0.0
C91 C 0.75859 0.77763 0.60266 0.0
C92 C 0.74817 0.77023 0.63161 0.0
C93 C 0.72592 0.75222 0.63306 0.0
C94 C 0.71385 0.74157 0.60524 0.0
C95 C 0.72394 0.74919 0.57691 0.0
C96 C 0.70883 0.73613 0.5496 0.0
C97 C 0.68773 0.71955 0.56599 0.0
C98 C 0.69073 0.72259 0.59866 0.0
C99 C 0.7298 0.71779 0.53812 0.0
C100 C 0.69484 0.75901 0.52354 0.0
H101 H 0.60429 0.65453 0.60909 0.0
H102 H 0.65184 0.68349 0.71051 0.0
H103 H 0.64236 0.73868 0.65618 0.0
H104 H 0.67494 0.75193 0.6508 0.0
H105 H 0.67013 0.73476 0.68964 0.0
H106 H 0.70184 0.67201 0.67204 0.0
H107 H 0.70141 0.69593 0.7 0.0
H108 H 0.71902 0.70319 0.66596 0.0
H109 H 0.61085 0.65038 0.49407 0.0
H110 H 0.67041 0.69472 0.44325 0.0
H111 H 0.68801 0.7156 0.49008 0.0
H112 H 0.65324 0.63269 0.55758 0.0
H113 H 0.61655 0.62816 0.55472 0.0
H114 H 0.63753 0.63543 0.5912 0.0
H115 H 0.59435 0.69921 0.53052 0.0
H116 H 0.59418 0.68827 0.57142 0.0
H117 H 0.58411 0.66504 0.54266 0.0
H118 H 0.58876 0.63761 0.65855 0.0
C119 C 0.61512 0.66123 0.63046 0.0
C120 C 0.82516 0.11146 0.13932 0.0
C121 C 0.84716 0.09227 0.14528 0.0
C122 C 0.85631 0.08273 0.11899 0.0
C123 C 0.82288 0.1124 0.08192 0.0
C124 C 0.81353 0.1213 0.10766 0.0
C125 C 0.79113 0.14287 0.09733 0.0
H126 H 0.71559 0.22905 0.97844 0.0
C127 C 0.80739 0.12774 0.05223 0.0
C128 C 0.78876 0.14563 0.06111 0.0
H129 H 0.71473 0.22165 0.0805 0.0
H130 H 0.74726 0.18396 0.08972 0.0
H131 H 0.78116 0.2215 0.98353 0.0
H132 H 0.71484 0.16419 0.97494 0.0
H133 H 0.73855 0.15581 0.9508 0.0
H134 H 0.72107 0.18865 0.94179 0.0
H135 H 0.75685 0.22133 0.94725 0.0
H136 H 0.78776 0.2002 0.95584 0.0
C137 C 0.8018 0.16926 0.11058 0.0
C138 C 0.76431 0.13164 0.10893 0.0
C139 C 0.83113 0.11324 0.94414 0.0
C140 C 0.82202 0.12594 0.9126 0.0
C141 C 0.80055 0.14579 0.90715 0.0
C142 C 0.78891 0.15333 0.9327 0.0
C143 C 0.79893 0.14108 0.96416 0.0
C144 C 0.81947 0.12117 0.9694 0.0
C145 C 0.82803 0.11077 1.00442 0.0
C146 C 0.80918 0.12767 0.01936 0.0
C147 C 0.79224 0.14545 0.99569 0.0
C148 C 0.85903 0.11738 0.01402 0.0
C149 C 0.82139 0.08004 0.00986 0.0
C150 C 0.72253 0.21936 1.00277 0.0
C151 C 0.71264 0.22844 0.02878 0.0
C152 C 0.72181 0.21493 0.06002 0.0
C153 C 0.74089 0.19315 0.06536 0.0
C154 C 0.75109 0.18475 0.03924 0.0
C155 C 0.74159 0.19751 0.00853 0.0
C156 C 0.75447 0.18551 0.9837 0.0
C157 C 0.77356 0.16374 0.00466 0.0
C158 C 0.77163 0.16357 0.03717 0.0
C159 C 0.77082 0.2082 0.96637 0.0
C160 C 0.73116 0.17299 0.96137 0.0
H161 H 0.85237 0.08476 0.06852 0.0
H162 H 0.81725 0.11893 0.15887 0.0
H163 H 0.76292 0.10926 0.10857 0.0
H164 H 0.74529 0.14026 0.0932 0.0
H165 H 0.76368 0.1354 0.13388 0.0
H166 H 0.82432 0.17169 0.10984 0.0
H167 H 0.79876 0.16878 0.1359 0.0
H168 H 0.79197 0.188 0.09631 0.0
H169 H 0.84731 0.09766 0.94922 0.0
H170 H 0.7933 0.15616 0.88321 0.0
H171 H 0.77296 0.16883 0.92702 0.0
H172 H 0.86453 0.13663 0.99982 0.0
H173 H 0.87271 0.1009 0.00975 0.0
H174 H 0.86434 0.12098 0.03923 0.0
H175 H 0.80149 0.07581 0.99479 0.0
H176 H 0.81852 0.07271 0.03474 0.0
H177 H 0.83786 0.0675 1.0034 0.0
H178 H 0.87338 0.06819 0.12275 0.0
C179 C 0.84423 0.09259 0.08743 0.0
C180 C 0.36175 0.34086 0.35157 0.0
C181 C 0.38313 0.35985 0.34962 0.0
C182 C 0.39595 0.36959 0.37779 0.0
C183 C 0.3665 0.34161 0.40909 0.0
C184 C 0.35398 0.33186 0.38155 0.0
C185 C 0.33249 0.3109 0.38838 0.0
H186 H 0.26427 0.23738 0.49719 0.0
C187 C 0.35397 0.3281 0.43634 0.0
C188 C 0.33413 0.30987 0.42445 0.0
H189 H 0.25432 0.23431 0.3952 0.0
H190 H 0.28896 0.26891 0.38984 0.0
H191 H 0.33019 0.23911 0.50887 0.0
H192 H 0.26695 0.30179 0.49211 0.0
H193 H 0.29323 0.31129 0.5214 0.0
H194 H 0.2752 0.27992 0.52967 0.0
H195 H 0.31008 0.24528 0.5389 0.0
H196 H 0.34166 0.26327 0.53428 0.0
C197 C 0.34172 0.28354 0.37933 0.0
C198 C 0.30402 0.32195 0.36988 0.0
C199 C 0.38347 0.35453 0.5479 0.0
C200 C 0.37543 0.34555 0.57781 0.0
C201 C 0.35599 0.32455 0.57993 0.0
C202 C 0.34445 0.31296 0.55277 0.0
C203 C 0.35237 0.3224 0.52299 0.0
C204 C 0.37177 0.34265 0.52095 0.0
C205 C 0.37795 0.34977 0.48736 0.0
C206 C 0.3586 0.33085 0.4695 0.0
C207 C 0.34365 0.31496 0.4905 0.0
C208 C 0.40885 0.34268 0.48764 0.0
C209 C 0.36989 0.38014 0.47586 0.0
C210 C 0.26974 0.24388 0.47372 0.0
C211 C 0.2566 0.2329 0.44664 0.0
C212 C 0.26396 0.24253 0.41644 0.0
C213 C 0.28421 0.26252 0.41341 0.0
C214 C 0.29726 0.27312 0.44084 0.0
C215 C 0.28984 0.26378 0.47031 0.0
C216 C 0.30548 0.27742 0.49687 0.0
C217 C 0.32377 0.29635 0.47864 0.0
C218 C 0.31894 0.29382 0.44579 0.0
C219 C 0.32268 0.25527 0.52127 0.0
C220 C 0.2843 0.29334 0.51108 0.0
H221 H 0.3983 0.36895 0.42785 0.0
H222 H 0.35172 0.3328 0.33038 0.0
H223 H 0.3019 0.34422 0.37047 0.0
H224 H 0.28643 0.31275 0.38048 0.0
H225 H 0.30153 0.31872 0.34433 0.0
H226 H 0.36461 0.28071 0.38541 0.0
H227 H 0.3358 0.28284 0.35321 0.0
H228 H 0.33324 0.26562 0.39271 0.0
H229 H 0.39859 0.37041 0.54552 0.0
H230 H 0.34915 0.31748 0.60253 0.0
H231 H 0.32959 0.29727 0.55602 0.0
H232 H 0.41631 0.32548 0.50676 0.0
H233 H 0.42224 0.36036 0.49209 0.0
H234 H 0.4125 0.33555 0.4652 0.0
H235 H 0.35014 0.38531 0.48366 0.0
H236 H 0.3661 0.38531 0.44951 0.0
H237 H 0.38609 0.39371 0.48602 0.0
H238 H 0.41225 0.38442 0.37685 0.0
C239 C 0.38774 0.36066 0.4074 0.0
C240 C 0.96931 0.08362 0.48024 0.0
C241 C 0.92117 0.07615 0.45895 0.0
C242 C 0.94562 0.06812 0.48057 0.0
C243 C 0.92133 0.09916 0.43573 0.0
C244 C 0.969 0.10764 0.45812 0.0
C245 C 0.94517 0.11489 0.43535 0.0
N246 N 0.99169 0.07657 0.50331 0.0
C247 C 0.01296 0.09433 0.50779 0.0
C248 C 0.99214 0.12439 0.4606 0.0
C249 C 0.01397 0.11797 0.48594 0.0
Gd250 Gd 0.03163 0.97404 0.51311 0.0
Gd251 Gd 0.98812 0.0354 0.53739 0.0
N252 N 0.94607 0.04591 0.50321 0.0
C253 C 0.89708 0.06128 0.46199 0.0
C254 C 0.92237 0.03225 0.50755 0.0
C255 C 0.89758 0.0395 0.48674 0.0
H256 H 0.92281 0.01549 0.52676 0.0
H257 H 0.87892 0.02829 0.48975 0.0
H258 H 0.08908 0.0063 0.49329 0.0
H259 H 0.02905 0.09063 0.52846 0.0
H260 H 0.13655 0.01361 0.51944 0.0
H261 H 0.87787 0.06685 0.44588 0.0
H262 H 0.90286 0.10545 0.4186 0.0
H263 H 0.00975 0.91785 0.5528 0.0
H264 H 0.99274 0.14299 0.44406 0.0
H265 H 0.03132 0.13152 0.48907 0.0
H266 H 0.14809 0.94947 0.61615 0.0
H267 H 0.94463 0.13316 0.41804 0.0
H268 H 0.07327 0.88858 0.63165 0.0
H269 H 0.02647 0.88424 0.6007 0.0
N270 N 0.04672 0.94059 0.55694 0.0
C271 C 0.07293 0.94249 0.57253 0.0
C272 C 0.03029 0.91958 0.56608 0.0
C273 C 0.06614 0.90313 0.61054 0.0
C274 C 0.03968 0.90062 0.59315 0.0
C275 C 0.08324 0.92413 0.60014 0.0
H276 H 0.11841 0.91361 0.63778 0.0
N277 N 0.0791 0.97891 0.53271 0.0
C278 C 0.08948 0.96266 0.56036 0.0
C279 C 0.13386 0.98431 0.56107 0.0
C280 C 0.11704 0.96506 0.5755 0.0
C281 C 0.09624 0.99571 0.51702 0.0
C282 C 0.12351 0.99936 0.5314 0.0
O283 O 0.97231 0.01587 0.49295 0.0
O284 O 0.01244 0.0075 0.47506 0.0
O285 O 0.05553 0.95492 0.48285 0.0
O286 O 0.01381 0.94229 0.48648 0.0
O287 O 0.97227 0.99305 0.55099 0.0
O288 O 0.98694 0.96423 0.5177 0.0
O289 O 0.02506 0.9762 0.56407 0.0
O290 O 0.02872 0.02142 0.56834 0.0
O291 O 0.97368 0.02997 0.58362 0.0
O292 O 0.97367 0.07 0.55629 0.0
O293 O 0.04139 0.01772 0.49466 0.0
O294 O 0.03375 0.042 0.53487 0.0
C295 C 0.98604 0.0139 0.46935 0.0
C296 C 0.97052 0.97043 0.5376 0.0
C297 C 0.02733 0.94534 0.43534 0.0
C298 C 0.04078 0.94446 0.38267 0.0
C299 C 0.99492 0.96092 0.38675 0.0
C300 C 1.00119 0.95603 0.4201 0.0
C301 C 0.01458 0.95535 0.36812 0.0
C302 C 0.04699 0.93933 0.41643 0.0
C303 C 0.03442 0.9415 0.47076 0.0
C304 C 0.12709 0.9477 0.60394 0.0
C305 C 0.11023 0.92722 0.61621 0.0
H306 H 0.1551 0.98696 0.57197 0.0
C307 C 0.03382 0.99586 0.58058 0.0
C308 C 0.04686 0.03825 0.51114 0.0
C309 C 0.98163 0.06767 0.61208 0.0
C310 C 0.97486 0.08428 0.66157 0.0
C311 C 0.01836 0.09186 0.64103 0.0
C312 C 0.00855 0.07796 0.61533 0.0
C313 C 1.00149 0.09547 0.66366 0.0
C314 C 0.96507 0.0704 0.63545 0.0
C315 C 0.96984 0.05599 0.58323 0.0
H316 H 0.97476 0.96917 0.37529 0.0
H317 H 0.98558 0.96088 0.43391 0.0
H318 H 0.00913 0.95918 0.34224 0.0
H319 H 0.06722 0.9312 0.42794 0.0
H320 H 0.03892 0.1003 0.64312 0.0
H321 H 0.02164 0.07587 0.59754 0.0
H322 H 0.00921 0.10727 0.68263 0.0
H323 H 0.94453 0.06184 0.63307 0.0
C324 C 0.6034 0.50444 0.04198 0.0
C325 C 0.61939 0.54688 0.01625 0.0
C326 C 0.59837 0.53133 0.02868 0.0
C327 C 0.64473 0.53419 0.01491 0.0
C328 C 0.62937 0.492 0.04245 0.0
C329 C 0.64961 0.5067 0.02769 0.0
N330 N 0.58404 0.49152 0.0577 0.0
C331 C 0.59034 0.46726 0.07705 0.0
C332 C 0.63483 0.46585 0.05954 0.0
C333 C 0.61543 0.45367 0.07748 0.0
Gd334 Gd 0.4771 0.48684 0.99195 0.0
Gd335 Gd 0.54132 0.51466 0.05313 0.0
N336 N 0.57411 0.54309 0.03148 0.0
C337 C 0.61495 0.57502 0.00758 0.0
C338 C 0.57053 0.57075 0.02546 0.0
C339 C 0.59058 0.58707 0.0127 0.0
H340 H 0.55175 0.58004 0.02979 0.0
H341 H 0.58736 0.60892 0.00709 0.0
H342 H 0.50601 0.42712 0.98022 0.0
H343 H 0.57561 0.45801 0.09148 0.0
H344 H 0.50846 0.37929 0.00538 0.0
H345 H 0.63071 0.58782 0.99849 0.0
H346 H 0.66116 0.54573 0.00545 0.0
H347 H 0.41762 0.51249 1.00312 0.0
H348 H 0.65446 0.45551 0.06035 0.0
H349 H 0.61988 0.43394 0.09186 0.0
H350 H 0.43654 0.37279 0.07031 0.0
H351 H 0.66963 0.49746 0.02761 0.0
H352 H 0.3779 0.45184 0.06137 0.0
H353 H 0.37843 0.49849 0.03174 0.0
N354 N 0.43853 0.47417 0.01646 0.0
C355 C 0.43782 0.44812 0.03087 0.0
C356 C 0.4172 0.49203 0.01569 0.0
C357 C 0.39489 0.45782 0.0486 0.0
C358 C 0.39511 0.48418 0.03191 0.0
C359 C 0.41627 0.43929 0.04792 0.0
H360 H 0.4004 0.40512 0.07674 0.0
N361 N 0.47705 0.43914 0.0083 0.0
C362 C 0.4581 0.4301 0.02719 0.0
C363 C 0.47659 0.38422 0.03359 0.0
C364 C 0.45746 0.40248 0.0406 0.0
C365 C 0.49339 0.42079 0.99839 0.0
C366 C 0.49425 0.39336 0.01187 0.0
O367 O 0.53138 0.53677 1.00206 0.0
O368 O 0.51541 0.50264 0.97279 0.0
O369 O 0.45461 0.46901 0.95097 0.0
O370 O 0.45445 0.51314 0.9516 0.0
O371 O 0.50584 0.54513 0.03733 0.0
O372 O 0.46962 0.52946 1.00162 0.0
O373 O 0.47345 0.49347 0.04286 0.0
O374 O 0.51607 0.47882 0.06888 0.0
O375 O 0.52501 0.52787 0.09317 0.0
O376 O 0.5691 0.52639 0.09368 0.0
O377 O 0.52069 0.4713 0.99217 0.0
O378 O 0.53699 0.47051 0.04532 0.0
C379 C 0.52662 0.52661 0.97483 0.0
C380 C 0.48123 0.5478 0.01898 0.0
C381 C 0.42757 0.49775 0.90511 0.0
C382 C 0.41255 0.48708 0.8508 0.0
C383 C 0.39072 0.5245 0.86962 0.0
C384 C 0.40804 0.51926 0.89916 0.0
C385 C 0.39293 0.5086 0.84557 0.0
C386 C 0.42964 0.48153 0.88098 0.0
C387 C 0.44608 0.49297 0.93622 0.0
C388 C 0.43711 0.39384 0.05942 0.0
C389 C 0.41648 0.41222 0.06301 0.0
H390 H 0.47703 0.36287 0.04361 0.0
C391 C 0.48945 0.48157 0.0687 0.0
C392 C 0.53868 0.46238 0.01778 0.0
C393 C 0.55384 0.51737 0.14314 0.0
C394 C 0.56628 0.52162 0.19977 0.0
C395 C 0.55973 0.47685 0.18274 0.0
C396 C 0.5538 0.48893 0.15077 0.0
C397 C 0.56622 0.49306 0.20714 0.0
C398 C 0.55983 0.53363 0.16761 0.0
C399 C 0.54941 0.53031 0.1097 0.0
H400 H 0.37557 0.541 0.86529 0.0
H401 H 0.40608 0.53195 0.91746 0.0
H402 H 0.37909 0.51305 0.82292 0.0
H403 H 0.44507 0.46524 0.88537 0.0
H404 H 0.55962 0.45489 0.18858 0.0
H405 H 0.54963 0.47616 0.132 0.0
H406 H 0.57091 0.48332 0.23178 0.0
H407 H 0.56027 0.55561 0.16152 0.0
H408 H 0.20706 0.22819 0.40726 0.0
H409 H 0.17129 0.19424 0.41477 0.0
H410 H 0.22178 0.15613 0.50182 0.0
H411 H 0.25793 0.18935 0.49393 0.0
H412 H 0.19856 0.11837 0.46803 0.0
H413 H 0.16776 0.1994 0.50349 0.0
H414 H 0.15491 0.24807 0.49838 0.0
H415 H 0.09007 0.23844 0.42021 0.0
H416 H 0.1028 0.18976 0.42457 0.0
H417 H 0.08104 0.06729 0.55053 0.0
H418 H 0.11678 0.09938 0.5358 0.0
H419 H 0.09599 0.08584 0.4372 0.0
H420 H 0.06061 0.05334 0.45184 0.0
H421 H 0.10331 0.14875 0.47442 0.0
H422 H 0.14305 0.06851 0.43423 0.0
H423 H 0.15783 0.02015 0.44176 0.0
H424 H 0.20586 0.02927 0.53311 0.0
H425 H 0.19102 0.07763 0.52618 0.0
C426 C 0.21071 0.21235 0.42776 0.0
C427 C 0.23529 0.21162 0.45012 0.0
C428 C 0.19012 0.19311 0.43218 0.0
C429 C 0.19367 0.17285 0.45911 0.0
C430 C 0.21851 0.17163 0.48094 0.0
C431 C 0.23906 0.1908 0.47654 0.0
C432 C 0.17141 0.15315 0.46499 0.0
C433 C 0.17776 0.12512 0.46936 0.0
C434 C 0.14416 0.16179 0.46672 0.0
C435 C 0.13644 0.19102 0.46413 0.0
C436 C 0.15091 0.20772 0.48504 0.0
C437 C 0.14362 0.23529 0.48231 0.0
C438 C 0.12174 0.24636 0.45892 0.0
C439 C 0.10705 0.22985 0.43828 0.0
C440 C 0.11428 0.20227 0.44088 0.0
C441 C 0.08414 0.07117 0.52573 0.0
C442 C 0.06815 0.05784 0.50232 0.0
C443 C 0.10456 0.08938 0.51739 0.0
C444 C 0.10918 0.09464 0.48553 0.0
C445 C 0.09301 0.08166 0.46201 0.0
C446 C 0.07281 0.06319 0.47039 0.0
C447 C 0.13051 0.11427 0.47687 0.0
C448 C 0.12403 0.1422 0.47245 0.0
C449 C 0.15761 0.10564 0.47514 0.0
C450 C 0.16564 0.07645 0.4799 0.0
C451 C 0.15644 0.06006 0.45609 0.0
C452 C 0.16496 0.03272 0.46016 0.0
C453 C 0.18284 0.02166 0.48786 0.0
C454 C 0.19208 0.03788 0.51163 0.0
C455 C 0.18358 0.06522 0.50767 0.0
H456 H 0.18942 1.0005 0.49097 0.0
H457 H 0.11612 0.26771 0.45685 0.0
H458 H 0.33958 0.75832 0.06242 0.0
H459 H 0.37428 0.72177 0.06695 0.0
H460 H 0.32001 0.68272 0.99739 0.0
H461 H 0.28522 0.71883 0.99316 0.0
H462 H 0.34527 0.64589 0.04724 0.0
H463 H 0.3713 0.72219 0.97478 0.0
H464 H 0.38375 0.76996 0.95954 0.0
H465 H 0.45355 0.76122 0.03562 0.0
H466 H 0.44126 0.71348 0.05159 0.0
H467 H 0.43029 0.56241 0.98386 0.0
H468 H 0.40044 0.60019 0.98894 0.0
H469 H 0.46379 0.62746 0.05952 0.0
H470 H 0.49409 0.58959 0.05469 0.0
H471 H 0.43673 0.67025 0.01614 0.0
H472 H 0.41358 0.59239 0.08512 0.0
H473 H 0.40196 0.54421 0.09909 0.0
H474 H 0.32724 0.5555 0.03013 0.0
H475 H 0.3387 0.60364 0.01524 0.0
C476 C 0.33494 0.74171 0.04848 0.0
C477 C 0.30982 0.74153 0.02722 0.0
C478 C 0.35481 0.72097 0.05093 0.0
C479 C 0.34982 0.69971 0.03222 0.0
C480 C 0.32431 0.69897 0.01196 0.0
C481 C 0.30455 0.71971 0.00939 0.0
C482 C 0.37144 0.67875 0.03253 0.0
C483 C 0.36521 0.6512 0.0403 0.0
C484 C 0.39773 0.68574 0.02427 0.0
C485 C 0.40517 0.71439 0.01462 0.0
C486 C 0.38916 0.73053 0.98843 0.0
C487 C 0.39621 0.75759 0.97963 0.0
C488 C 0.41937 0.76865 0.99667 0.0
C489 C 0.43558 0.75265 0.02249 0.0
C490 C 0.42859 0.72559 0.03142 0.0
C491 C 0.43811 0.57648 1.00032 0.0
C492 C 0.46454 0.57266 0.01919 0.0
C493 C 0.42093 0.59808 1.0032 0.0
C494 C 0.42974 0.61628 0.02503 0.0
C495 C 0.45659 0.61349 0.04268 0.0
C496 C 0.47384 0.5918 0.03988 0.0
C497 C 0.4103 0.63744 0.0302 0.0
C498 C 0.41694 0.66497 0.02352 0.0
C499 C 0.3844 0.63044 0.03956 0.0
C500 C 0.3771 0.60162 0.04891 0.0
C501 C 0.39475 0.58457 0.07278 0.0
C502 C 0.3882 0.55727 0.08087 0.0
C503 C 0.36388 0.54681 0.06551 0.0
C504 C 0.34607 0.56365 0.04202 0.0
C505 C 0.35257 0.59095 0.03375 0.0
H506 H 0.35881 0.52568 0.07185 0.0
H507 H 0.4248 0.78959 0.98981 0.0
H508 H 0.76831 0.82474 0.62957 0.0
H509 H 0.80544 0.85728 0.62242 0.0
H510 H 0.83885 0.80603 0.56333 0.0
H511 H 0.80248 0.7731 0.57124 0.0
H512 H 0.87971 0.82631 0.60196 0.0
H513 H 0.79761 0.86191 0.53029 0.0
H514 H 0.74884 0.87752 0.5159 0.0
H515 H 0.7647 0.9397 0.57698 0.0
H516 H 0.81351 0.9242 0.59209 0.0
H517 H 0.95944 0.92105 0.5164 0.0
H518 H 0.92423 0.88856 0.5306 0.0
H519 H 0.89711 0.94259 0.59095 0.0
H520 H 0.9321 0.97531 0.57684 0.0
H521 H 0.85353 0.92169 0.55466 0.0
H522 H 0.93661 0.88741 0.62394 0.0
H523 H 0.98562 0.87246 0.63655 0.0
H524 H 0.96813 0.8081 0.57884 0.0
H525 H 0.91905 0.82293 0.56548 0.0
C526 C 0.78384 0.8202 0.61551 0.0
C527 C 0.78225 0.79646 0.6007 0.0
C528 C 0.80491 0.83893 0.61119 0.0
C529 C 0.82469 0.83433 0.59188 0.0
C530 C 0.82377 0.81013 0.57818 0.0
C531 C 0.80279 0.79142 0.5825 0.0
C532 C 0.84584 0.85502 0.58495 0.0
C533 C 0.87395 0.8471 0.59138 0.0
C534 C 0.83844 0.88232 0.57169 0.0
C535 C 0.80912 0.89169 0.5626 0.0
C536 C 0.79064 0.87877 0.54085 0.0
C537 C 0.763 0.88762 0.53253 0.0
C538 C 0.75366 0.90954 0.54559 0.0
C539 C 0.77196 0.92269 0.56693 0.0
C540 C 0.79961 0.91389 0.57537 0.0
C541 C 0.94602 0.9261 0.53269 0.0
C542 C 0.94877 0.95082 0.54555 0.0
C543 C 0.92593 0.90743 0.54086 0.0
C544 C 0.90824 0.913 0.56213 0.0
C545 C 0.91057 0.93784 0.57455 0.0
C546 C 0.93068 0.9565 0.56647 0.0
C547 C 0.88732 0.89291 0.57147 0.0
C548 C 0.85929 0.90095 0.56547 0.0
C549 C 0.89479 0.86572 0.58504 0.0
C550 C 0.92419 0.85643 0.5935 0.0
C551 C 0.94324 0.87017 0.61378 0.0
C552 C 0.97103 0.8617 0.62108 0.0
C553 C 0.98 0.83938 0.60845 0.0
C554 C 0.96116 0.8254 0.58858 0.0
C555 C 0.93334 0.83381 0.58116 0.0
H556 H 1.00153 0.83288 0.6141 0.0
H557 H 0.73225 0.91637 0.53911 0.0
H558 H 0.71535 0.27668 0.98961 0.0
H559 H 0.68526 0.31702 0.98355 0.0
H560 H 0.63721 0.27496 0.05099 0.0
H561 H 0.66678 0.23435 0.05657 0.0
H562 H 0.6043 0.30342 0.99992 0.0
H563 H 0.68548 0.31991 0.07447 0.0
H564 H 0.73556 0.32414 0.09269 0.0
H565 H 0.73944 0.38856 0.01511 0.0
H566 H 0.68941 0.38443 0.99615 0.0
H567 H 0.54966 0.41691 0.0616 0.0
H568 H 0.57848 0.37735 0.05809 0.0
H569 H 0.59798 0.41648 0.96781 0.0
H570 H 0.56837 0.4558 0.97072 0.0
H571 H 0.64514 0.39105 0.02611 0.0
H572 H 0.56441 0.37388 0.9508 0.0
H573 H 0.51482 0.36809 0.93103 0.0
H574 H 0.51048 0.3051 0.01001 0.0
H575 H 0.56005 0.31069 0.03036 0.0
C576 C 0.69814 0.2759 1.00279 0.0
C577 C 0.69351 0.25238 0.0237 0.0
C578 C 0.68112 0.29903 0.99952 0.0
C579 C 0.65923 0.29909 0.01714 0.0
C580 C 0.65406 0.27538 0.03728 0.0
C581 C 0.6711 0.25227 0.04062 0.0
C582 C 0.64199 0.32399 0.01516 0.0
C583 C 0.61324 0.32251 0.00588 0.0
C584 C 0.65372 0.34907 0.02226 0.0
C585 C 0.68377 0.35164 0.03368 0.0
C586 C 0.69706 0.33481 0.06114 0.0
C587 C 0.72543 0.33722 0.07162 0.0
C588 C 0.74069 0.35655 0.05501 0.0
C589 C 0.7276 0.37356 0.02792 0.0
C590 C 0.69924 0.3712 0.0173 0.0
C591 C 0.56023 0.41706 0.04112 0.0
C592 C 0.55705 0.43929 0.01648 0.0
C593 C 0.57648 0.39449 0.03905 0.0
C594 C 0.59012 0.39408 0.01262 0.0
C595 C 0.58743 0.41649 0.98828 0.0
C596 C 0.57062 0.43882 0.98996 0.0
C597 C 0.60762 0.37031 0.01098 0.0
C598 C 0.63635 0.37199 0.01984 0.0
C599 C 0.59591 0.34543 1.00349 0.0
C600 C 0.56583 0.34295 0.9923 0.0
C601 C 0.55279 0.35907 0.96419 0.0
C602 C 0.52474 0.35566 0.95273 0.0
C603 C 0.50953 0.33617 0.96919 0.0
C604 C 0.52231 0.32014 0.99723 0.0
C605 C 0.55038 0.32341 0.00872 0.0
H606 H 0.48781 0.33359 0.96031 0.0
H607 H 0.76266 0.35839 0.06317 0.0
H608 H 0.18024 0.84167 0.19435 0.0
H609 H 0.15977 0.85392 0.23896 0.0
H610 H 0.14882 0.93703 0.19233 0.0
H611 H 0.17079 0.92528 0.1483 0.0
H612 H 0.16495 0.93636 0.25472 0.0
H613 H 0.09479 0.89156 0.18969 0.0
H614 H 0.07477 0.85467 0.16045 0.0
H615 H 0.08611 0.79892 0.24824 0.0
H616 H 0.10655 0.83542 0.27796 0.0
H617 H 0.05561 0.9771 0.33141 0.0
H618 H 0.08536 0.96521 0.29425 0.0
H619 H 0.10148 0.88586 0.35024 0.0
H620 H 0.07153 0.89764 0.38751 0.0
H621 H 0.08457 0.88367 0.28554 0.0
H622 H 0.15189 0.9311 0.35084 0.0
H623 H 0.17 0.96943 0.37872 0.0
H624 H 0.16171 0.02201 0.28868 0.0
H625 H 0.14315 0.98408 0.26029 0.0
C626 C 0.17399 0.86269 0.19374 0.0
C627 C 0.17716 0.88245 0.16753 0.0
C628 C 0.16194 0.8696 0.21917 0.0
C629 C 0.15228 0.8963 0.2188 0.0
C630 C 0.15597 0.91625 0.1931 0.0
C631 C 0.16827 0.90941 0.16774 0.0
C632 C 0.13771 0.90322 0.24479 0.0
C633 C 0.1472 0.92501 0.26123 0.0
C634 C 0.11484 0.88812 0.25377 0.0
C635 C 0.10246 0.86615 0.23598 0.0
C636 C 0.0932 0.87139 0.20272 0.0
C637 C 0.08175 0.85056 0.18607 0.0
C638 C 0.07924 0.82445 0.20246 0.0
C639 C 0.08811 0.81914 0.23557 0.0
C640 C 0.09961 0.8399 0.25233 0.0
C641 C 0.0657 0.9572 0.33595 0.0
C642 C 0.06118 0.93824 0.36227 0.0
C643 C 0.08282 0.9505 0.31482 0.0
C644 C 0.09572 0.92469 0.31954 0.0
C645 C 0.09176 0.90591 0.34622 0.0
C646 C 0.07482 0.91271 0.36757 0.0
C647 C 0.11179 0.91678 0.29541 0.0
C648 C 0.10248 0.89485 0.27922 0.0
C649 C 0.13457 0.93196 0.28647 0.0
C650 C 0.14589 0.95478 0.30346 0.0
C651 C 0.15371 0.95089 0.337 0.0
C652 C 0.1641 0.97254 0.3529 0.0
C653 C 0.16694 0.99816 0.33549 0.0
C654 C 0.15947 0.00216 0.30214 0.0
C655 C 0.14905 0.98058 0.28613 0.0
H656 H 0.17498 0.01489 0.34784 0.0
H657 H 0.07036 0.80835 0.18953 0.0
H658 H 0.60491 0.60586 0.70528 0.0
H659 H 0.58836 0.58575 0.75408 0.0
H660 H 0.59766 0.66271 0.79067 0.0
H661 H 0.61388 0.68328 0.74141 0.0
H662 H 0.61879 0.61914 0.83548 0.0
H663 H 0.5341 0.64157 0.76199 0.0
H664 H 0.50171 0.64168 0.71132 0.0
H665 H 0.49884 0.55431 0.728 0.0
H666 H 0.53159 0.55363 0.77853 0.0
H667 H 0.54188 0.58009 0.96388 0.0
H668 H 0.55952 0.60334 0.91695 0.0
H669 H 0.55014 0.52984 0.87299 0.0
H670 H 0.53359 0.50618 0.92029 0.0
H671 H 0.52791 0.57387 0.83206 0.0
H672 H 0.61393 0.5487 0.89865 0.0
H673 H 0.65204 0.54425 0.94452 0.0
H674 H 0.65544 0.63138 0.93901 0.0
H675 H 0.61734 0.63634 0.89292 0.0
C676 C 0.60313 0.61869 0.72348 0.0
C677 C 0.61041 0.64633 0.7192 0.0
C678 C 0.5937 0.6071 0.75142 0.0
C679 C 0.5913 0.62284 0.77577 0.0
C680 C 0.5992 0.65025 0.77206 0.0
C681 C 0.60859 0.66193 0.74398 0.0
C682 C 0.5811 0.61036 0.80535 0.0
C683 C 0.59864 0.60978 0.83486 0.0
C684 C 0.55528 0.59719 0.8043 0.0
C685 C 0.5355 0.59756 0.77394 0.0
C686 C 0.52675 0.62237 0.75473 0.0
C687 C 0.5083 0.62253 0.72605 0.0
C688 C 0.49828 0.59802 0.71642 0.0
C689 C 0.50665 0.57328 0.73548 0.0
C690 C 0.52514 0.573 0.76416 0.0
C691 C 0.54428 0.56866 0.94465 0.0
C692 C 0.53687 0.5411 0.94625 0.0
C693 C 0.55417 0.58205 0.9177 0.0
C694 C 0.55639 0.56826 0.89157 0.0
C695 C 0.54866 0.54087 0.8929 0.0
C696 C 0.53913 0.52739 0.91998 0.0
C697 C 0.56564 0.58264 0.86226 0.0
C698 C 0.54789 0.58357 0.83278 0.0
C699 C 0.59148 0.5957 0.86322 0.0
C700 C 0.61258 0.59288 0.89261 0.0
C701 C 0.62249 0.5669 0.90755 0.0
C702 C 0.64425 0.5643 0.93342 0.0
C703 C 0.65623 0.58753 0.9446 0.0
C704 C 0.64622 0.61341 0.93022 0.0
C705 C 0.62457 0.61614 0.9042 0.0
H706 H 0.67319 0.58549 0.96452 0.0
H707 H 0.48398 0.59819 0.69421 0.0
H708 H 0.86721 0.04105 0.17185 0.0
H709 H 0.89151 0.02674 0.22629 0.0
H710 H 0.88222 0.10806 0.24898 0.0
H711 H 0.85933 0.12287 0.19424 0.0
H712 H 0.93218 0.08989 0.27202 0.0
H713 H 0.84095 0.0547 0.27439 0.0
H714 H 0.79968 0.02858 0.25662 0.0
H715 H 0.84876 0.95474 0.27538 0.0
H716 H 0.89042 0.98049 0.29287 0.0
H717 H 0.93048 0.01683 0.44698 0.0
H718 H 0.90751 0.03066 0.39205 0.0
H719 H 0.98699 0.03414 0.36 0.0
H720 H 0.01005 0.02336 0.4154 0.0
H721 H 0.90185 0.01028 0.34122 0.0
H722 H 0.98642 0.07719 0.29256 0.0
H723 H 0.02515 0.10585 0.31191 0.0
H724 H 0.98403 0.1221 0.38904 0.0
H725 H 0.94485 0.09366 0.37007 0.0
C726 C 0.87056 0.05596 0.18833 0.0
C727 C 0.86117 0.0831 0.17865 0.0
C728 C 0.8842 0.04766 0.21956 0.0
C729 C 0.8884 0.06624 0.24186 0.0
C730 C 0.87916 0.09334 0.23223 0.0
C731 C 0.86575 0.10169 0.20099 0.0
C732 C 0.90265 0.05764 0.27518 0.0
C733 C 0.92553 0.0725 0.28719 0.0
C734 C 0.89386 0.03511 0.29508 0.0
C735 C 0.86885 0.01957 0.28462 0.0
C736 C 0.84298 0.03292 0.27448 0.0
C737 C 0.81951 0.01818 0.26451 0.0
C738 C 0.82161 0.99003 0.26479 0.0
C739 C 0.84717 0.97655 0.27513 0.0
C740 C 0.87072 0.9912 0.2851 0.0
C741 C 0.94305 0.02146 0.42837 0.0
C742 C 0.97204 0.02013 0.43574 0.0
C743 C 0.9299 0.02885 0.39681 0.0
C744 C 0.94549 0.03417 0.37177 0.0
C745 C 0.97447 0.03124 0.3789 0.0
C746 C 0.98764 0.02475 0.41062 0.0
C747 C 0.93129 0.04272 0.33833 0.0
C748 C 0.90852 0.02772 0.32616 0.0
C749 C 0.93974 0.06559 0.31856 0.0
C750 C 0.96284 0.08312 0.33003 0.0
C751 C 0.98558 0.08696 0.31359 0.0
C752 C 0.00761 0.10311 0.32454 0.0
C753 C 0.00706 0.11567 0.3518 0.0
C754 C 0.98441 0.1122 0.36807 0.0
C755 C 0.9623 0.09607 0.35725 0.0
H756 H 0.02414 0.12815 0.36027 0.0
H757 H 0.80342 0.97865 0.25706 0.0
H758 H 0.39305 0.32064 0.63911 0.0
H759 H 0.40634 0.34236 0.68729 0.0
H760 H 0.39539 0.42154 0.62986 0.0
H761 H 0.38222 0.39993 0.58155 0.0
H762 H 0.44006 0.42043 0.67683 0.0
H763 H 0.34434 0.39402 0.66907 0.0
H764 H 0.30591 0.3617 0.66418 0.0
H765 H 0.34313 0.31336 0.75199 0.0
H766 H 0.382 0.34523 0.75715 0.0
H767 H 0.41114 0.50579 0.78721 0.0
H768 H 0.41149 0.47917 0.74334 0.0
H769 H 0.42105 0.4051 0.81075 0.0
H770 H 0.41965 0.43167 0.85486 0.0
H771 H 0.38136 0.40025 0.76159 0.0
H772 H 0.47486 0.42998 0.77226 0.0
H773 H 0.51235 0.46331 0.77725 0.0
H774 H 0.47911 0.50619 0.68454 0.0
H775 H 0.4412 0.4733 0.67914 0.0
C776 C 0.3936 0.34268 0.63673 0.0
C777 C 0.38628 0.35858 0.60656 0.0
C778 C 0.40126 0.35506 0.66427 0.0
C779 C 0.40143 0.38359 0.66226 0.0
C780 C 0.3954 0.39949 0.632 0.0
C781 C 0.38789 0.38711 0.6044 0.0
C782 C 0.40612 0.3969 0.69177 0.0
C783 C 0.42714 0.41616 0.69529 0.0
C784 C 0.38968 0.39087 0.71624 0.0
C785 C 0.36621 0.37184 0.71331 0.0
C786 C 0.34442 0.37639 0.68721 0.0
C787 C 0.32255 0.35817 0.6844 0.0
C788 C 0.32212 0.33545 0.70771 0.0
C789 C 0.34352 0.33095 0.73392 0.0
C790 C 0.36546 0.34909 0.73681 0.0
C791 C 0.41328 0.48382 0.79276 0.0
C792 C 0.41513 0.47084 0.82455 0.0
C793 C 0.41384 0.46864 0.76765 0.0
C794 C 0.41661 0.44013 0.77373 0.0
C795 C 0.41902 0.42709 0.8055 0.0
C796 C 0.41839 0.44231 0.8307 0.0
C797 C 0.41517 0.424 0.74663 0.0
C798 C 0.39463 0.40425 0.74345 0.0
C799 C 0.43203 0.42966 0.72251 0.0
C800 C 0.45507 0.44925 0.7254 0.0
C801 C 0.47545 0.4466 0.753 0.0
C802 C 0.49679 0.4654 0.75589 0.0
C803 C 0.49808 0.48688 0.73125 0.0
C804 C 0.47808 0.48954 0.70361 0.0
C805 C 0.45669 0.47079 0.70059 0.0
H806 H 0.5146 0.50143 0.73355 0.0
H807 H 0.30517 0.32136 0.70549 0.0
H808 H 0.67159 0.64441 0.43267 0.0
H809 H 0.65699 0.62104 0.38621 0.0
H810 H 0.57176 0.64285 0.38697 0.0
H811 H 0.58638 0.66543 0.4345 0.0
H812 H 0.57334 0.59364 0.37431 0.0
H813 H 0.61017 0.67641 0.33123 0.0
H814 H 0.64351 0.71359 0.32609 0.0
H815 H 0.70375 0.65758 0.30756 0.0
H816 H 0.6709 0.61995 0.31305 0.0
H817 H 0.53866 0.5671 0.20833 0.0
H818 H 0.54956 0.59478 0.25204 0.0
H819 H 0.62107 0.54343 0.29204 0.0
H820 H 0.60992 0.5152 0.24893 0.0
H821 H 0.62244 0.61086 0.28043 0.0
H822 H 0.58189 0.52723 0.33091 0.0
H823 H 0.54401 0.49417 0.32932 0.0
H824 H 0.4851 0.55868 0.32711 0.0
H825 H 0.52264 0.59221 0.32803 0.0
C826 C 0.64976 0.64432 0.42279 0.0
C827 C 0.63012 0.65695 0.43686 0.0
C828 C 0.64142 0.63104 0.39618 0.0
C829 C 0.61331 0.6307 0.38255 0.0
C830 C 0.59357 0.64294 0.39693 0.0
C831 C 0.6019 0.65586 0.42399 0.0
C832 C 0.60478 0.61734 0.35348 0.0
C833 C 0.58392 0.59773 0.35372 0.0
C834 C 0.61827 0.62273 0.32626 0.0
C835 C 0.63813 0.6453 0.32282 0.0
C836 C 0.63059 0.67197 0.32628 0.0
C837 C 0.6494 0.69313 0.32328 0.0
C838 C 0.67575 0.68794 0.31657 0.0
C839 C 0.68333 0.66157 0.31278 0.0
C840 C 0.66461 0.64032 0.3158 0.0
C841 C 0.55681 0.56185 0.22635 0.0
C842 C 0.57335 0.53891 0.22546 0.0
C843 C 0.56293 0.5776 0.25123 0.0
C844 C 0.58605 0.57101 0.27507 0.0
C845 C 0.60312 0.5487 0.27374 0.0
C846 C 0.59664 0.53255 0.24931 0.0
C847 C 0.59193 0.58686 0.3021 0.0
C848 C 0.61203 0.607 0.3012 0.0
C849 C 0.57729 0.58251 0.32824 0.0
C850 C 0.55499 0.56222 0.32923 0.0
C851 C 0.56083 0.53438 0.32987 0.0
C852 C 0.53944 0.51556 0.3291 0.0
C853 C 0.51215 0.52433 0.32801 0.0
C854 C 0.50624 0.55192 0.3279 0.0
C855 C 0.52756 0.57083 0.32857 0.0
H856 H 0.4956 0.50974 0.32732 0.0
H857 H 0.69028 0.70435 0.31425 0.0
H858 H 0.87727 0.11683 0.91377 0.0
H859 H 0.90049 0.10829 0.86964 0.0
H860 H 0.82204 0.11367 0.80613 0.0
H861 H 0.79833 0.12098 0.85074 0.0
H862 H 0.85395 0.073 0.79489 0.0
H863 H 0.86535 0.16727 0.80515 0.0
H864 H 0.8774 0.20697 0.83333 0.0
H865 H 0.96166 0.17787 0.85932 0.0
H866 H 0.95003 0.13777 0.83168 0.0
H867 H 0.91862 0.09379 0.65331 0.0
H868 H 0.89038 0.09921 0.69453 0.0
H869 H 0.96323 0.08788 0.76709 0.0
H870 H 0.99145 0.08167 0.72639 0.0
H871 H 0.93144 0.13321 0.77071 0.0
H872 H 0.91873 0.03794 0.76111 0.0
H873 H 0.90597 0.99885 0.73209 0.0
H874 H 0.82308 0.03122 0.70305 0.0
H875 H 0.83548 0.07074 0.73153 0.0
C876 C 0.8648 0.1157 0.89061 0.0
C877 C 0.83589 0.11966 0.88583 0.0
C878 C 0.87818 0.11113 0.86528 0.0
C879 C 0.86306 0.11084 0.83446 0.0
C880 C 0.83413 0.11401 0.82969 0.0
C881 C 0.82065 0.11843 0.85514 0.0
C882 C 0.87769 0.10785 0.80722 0.0
C883 C 0.8706 0.08642 0.78926 0.0
C884 C 0.89962 0.12519 0.80009 0.0
C885 C 0.90676 0.14939 0.81656 0.0
C886 C 0.88641 0.16924 0.81706 0.0
C887 C 0.89317 0.19183 0.83291 0.0
C888 C 0.92027 0.19491 0.84816 0.0
C889 C 0.94068 0.17544 0.84752 0.0
C890 C 0.93402 0.15279 0.83174 0.0
C891 C 0.92861 0.09202 0.67808 0.0
C892 C 0.9574 0.08731 0.68646 0.0
C893 C 0.91243 0.09523 0.70158 0.0
C894 C 0.92474 0.09387 0.73382 0.0
C895 C 0.95337 0.08912 0.74228 0.0
C896 C 0.9695 0.08572 0.71891 0.0
C897 C 0.90803 0.09811 0.75881 0.0
C898 C 0.91468 0.11988 0.77625 0.0
C899 C 0.88561 0.08123 0.76522 0.0
C900 C 0.87812 0.05746 0.74814 0.0
C901 C 0.89785 0.03686 0.74829 0.0
C902 C 0.89067 0.0146 0.73198 0.0
C903 C 0.86375 0.0126 0.71565 0.0
C904 C 0.84394 0.03283 0.71566 0.0
C905 C 0.85103 0.05515 0.7319 0.0
H906 H 0.85823 0.99534 0.70305 0.0
H907 H 0.92546 0.21241 0.86043 0.0
H908 H 0.35119 0.37891 0.29199 0.0
H909 H 0.36718 0.39927 0.24251 0.0
H910 H 0.45197 0.38276 0.28793 0.0
H911 H 0.43606 0.36311 0.33743 0.0
H912 H 0.44716 0.43259 0.26066 0.0
H913 H 0.41731 0.34704 0.22748 0.0
H914 H 0.38454 0.31015 0.21703 0.0
H915 H 0.33042 0.36641 0.14966 0.0
H916 H 0.36269 0.40374 0.16005 0.0
H917 H 0.51308 0.44472 0.11931 0.0
H918 H 0.49324 0.42612 0.16672 0.0
H919 H 0.41824 0.47317 0.12983 0.0
H920 H 0.43881 0.49355 0.08351 0.0
H921 H 0.41549 0.41036 0.151 0.0
H922 H 0.4474 0.49538 0.18366 0.0
H923 H 0.4784 0.53246 0.19863 0.0
H924 H 0.52921 0.47584 0.26916 0.0
H925 H 0.49905 0.43821 0.25393 0.0
C926 C 0.3732 0.3793 0.29116 0.0
C927 C 0.3924 0.36962 0.31859 0.0
C928 C 0.38234 0.39088 0.26286 0.0
C929 C 0.41083 0.39252 0.26135 0.0
C930 C 0.42991 0.38194 0.28848 0.0
C931 C 0.42081 0.37071 0.31678 0.0
C932 C 0.42107 0.40674 0.23246 0.0
C933 C 0.44054 0.42736 0.23676 0.0
C934 C 0.41173 0.40066 0.20106 0.0
C935 C 0.39227 0.37826 0.19485 0.0
C936 C 0.3983 0.35161 0.21066 0.0
C937 C 0.37984 0.3306 0.2047 0.0
C938 C 0.35537 0.33595 0.18278 0.0
C939 C 0.34935 0.36231 0.16669 0.0
C940 C 0.36773 0.38339 0.1726 0.0
C941 C 0.49259 0.45158 0.12156 0.0
C942 C 0.47745 0.47054 0.09751 0.0
C943 C 0.48123 0.44078 0.14856 0.0
C944 C 0.45432 0.44828 0.15171 0.0
C945 C 0.43905 0.46711 0.12777 0.0
C946 C 0.45073 0.47853 0.10119 0.0
C947 C 0.44194 0.43565 0.17956 0.0
C948 C 0.42209 0.41542 0.17498 0.0
C949 C 0.45116 0.44184 0.21083 0.0
C950 C 0.47108 0.46387 0.21736 0.0
C951 C 0.46558 0.49066 0.20174 0.0
C952 C 0.48291 0.51182 0.21044 0.0
C953 C 0.50561 0.50649 0.23497 0.0
C954 C 0.51153 0.47991 0.25025 0.0
C955 C 0.4944 0.45865 0.24149 0.0
H956 H 0.51849 0.52297 0.24237 0.0
H957 H 0.34111 0.31966 0.17818 0.0
H958 H 0.12799 0.8779 0.86218 0.0
H959 H 0.10934 0.89537 0.80638 0.0
H960 H 0.14879 0.97236 0.81793 0.0
H961 H 0.16596 0.95527 0.87439 0.0
H962 H 0.10218 0.98298 0.78579 0.0
H963 H 0.17306 0.92184 0.77499 0.0
H964 H 0.20012 0.87886 0.78314 0.0
H965 H 0.1293 0.83844 0.73907 0.0
H966 H 0.10167 0.88107 0.73109 0.0
H967 H 0.07177 0.02572 0.6149 0.0
H968 H 0.09647 0.01254 0.66974 0.0
H969 H 0.05157 0.93733 0.67635 0.0
H970 H 0.02702 0.95041 0.62188 0.0
H971 H 0.10601 0.92839 0.69753 0.0
H972 H 0.03584 0.99412 0.71255 0.0
H973 H 0.01312 0.03932 0.70649 0.0
H974 H 0.09067 0.07414 0.74161 0.0
H975 H 0.11388 0.02925 0.74751 0.0
C976 C 0.13252 0.89858 0.85269 0.0
C977 C 0.14829 0.91532 0.87237 0.0
C978 C 0.12215 0.90848 0.82073 0.0
C979 C 0.12815 0.93504 0.80751 0.0
C980 C 0.14387 0.9518 0.82739 0.0
C981 C 0.15367 0.94209 0.85961 0.0
C982 C 0.11712 0.94563 0.77339 0.0
C983 C 0.10353 0.97116 0.76647 0.0
C984 C 0.11869 0.93035 0.74796 0.0
C985 C 0.13521 0.90462 0.75272 0.0
C986 C 0.16319 0.90374 0.76726 0.0
C987 C 0.17864 0.87944 0.77182 0.0
C988 C 0.16642 0.85592 0.7617 0.0
C989 C 0.13873 0.85666 0.74694 0.0
C990 C 0.12317 0.8809 0.74237 0.0
C991 C 0.06707 0.0065 0.62826 0.0
C992 C 0.04771 0.98893 0.61411 0.0
C993 C 0.08117 0.99899 0.65953 0.0
C994 C 0.07581 0.97396 0.67723 0.0
C995 C 0.05618 0.95665 0.66314 0.0
C996 C 0.04219 0.96412 0.63199 0.0
C997 C 0.09066 0.96534 0.71032 0.0
C998 C 0.10501 0.94019 0.71695 0.0
C999 C 0.09054 0.98132 0.73532 0.0
C1000 C 0.07662 0.0084 0.73021 0.0
C1001 C 0.04808 0.01149 0.71859 0.0
C1002 C 0.03511 0.03705 0.71528 0.0
C1003 C 0.05048 0.05956 0.72372 0.0
C1004 C 0.07883 0.05667 0.73512 0.0
C1005 C 0.09188 0.03121 0.73844 0.0
H1006 H 0.04051 0.07926 0.72171 0.0
H1007 H 0.17842 0.83713 0.76524 0.0
loop_
_geom_bond_atom_site_label_1
_geom_bond_atom_site_label_2
_geom_bond_distance
_geom_bond_site_symmetry_2
_ccdc_geom_bond_type
C0 C1 1.391 . S
C0 C4 1.391 . S
C0 H42 0.948 . S
C1 C0 1.391 . S
C1 C2 1.391 . S
C2 C1 1.391 . S
C2 H58 0.947 . S
C2 C59 1.392 . S
C3 C4 1.391 . S
C3 C7 1.397 . S
C3 C59 1.419 . S
C4 C0 1.391 . S
C4 C3 1.391 . S
C4 C5 1.399 . S
C5 C4 1.399 . S
C5 C8 1.396 . S
C5 C17 1.453 . S
C5 C18 1.684 . S
H6 C30 0.948 . S
C7 C3 1.397 . S
C7 C8 1.394 . S
C7 C26 1.723 1_556 S
C8 C5 1.396 . S
C8 C7 1.394 . S
C8 C38 1.723 1_556 S
H9 C32 0.947 . S
H10 C33 0.948 . S
H11 C39 0.982 . S
H12 C40 0.979 . S
H13 C40 0.980 . S
H14 C40 0.983 . S
H15 C39 0.979 . S
H16 C39 0.977 . S
C17 C5 1.453 . S
C17 H46 0.982 . S
C17 H47 0.979 . S
C17 H48 0.977 . S
C18 C5 1.684 . S
C18 H43 0.979 . S
C18 H44 0.980 . S
C18 H45 0.983 . S
C19 C20 1.391 . S
C19 C24 1.391 . S
C19 H49 0.948 . S
C20 C19 1.391 . S
C20 C21 1.391 . S
C21 C20 1.391 . S
C21 C22 1.392 . S
C21 H50 0.947 . S
C22 C21 1.392 . S
C22 C23 1.419 . S
C22 H51 0.948 . S
C23 C22 1.419 . S
C23 C24 1.391 . S
C23 C27 1.397 . S
C24 C19 1.391 . S
C24 C23 1.391 . S
C24 C25 1.399 . S
C25 C24 1.399 . S
C25 C26 1.396 . S
C25 C28 1.453 . S
C25 C29 1.684 . S
C26 C7 1.723 1_554 S
C26 C25 1.396 . S
C26 C27 1.394 . S
C27 C23 1.397 . S
C27 C26 1.394 . S
C27 C37 1.723 . S
C28 C25 1.453 . S
C28 H52 0.982 . S
C28 H53 0.979 . S
C28 H54 0.977 . S
C29 C25 1.684 . S
C29 H55 0.979 . S
C29 H56 0.980 1_554 S
C29 H57 0.983 . S
C30 H6 0.948 . S
C30 C31 1.391 . S
C30 C35 1.391 . S
C31 C30 1.391 . S
C31 C32 1.391 1_554 S
C32 H9 0.947 . S
C32 C31 1.391 1_556 S
C32 C33 1.392 . S
C33 H10 0.948 . S
C33 C32 1.392 . S
C33 C34 1.419 1_556 S
C34 C33 1.419 1_554 S
C34 C35 1.391 . S
C34 C38 1.397 . S
C35 C30 1.391 . S
C35 C34 1.391 . S
C35 C36 1.399 . S
C36 C35 1.399 . S
C36 C37 1.396 . S
C36 C39 1.453 . S
C36 C40 1.684 . S
C37 C27 1.723 . S
C37 C36 1.396 . S
C37 C38 1.394 . S
C38 C8 1.723 1_554 S
C38 C34 1.397 . S
C38 C37 1.394 . S
C39 H11 0.982 . S
C39 H15 0.979 . S
C39 H16 0.977 . S
C39 C36 1.453 . S
C40 H12 0.979 . S
C40 H13 0.980 . S
C40 H14 0.983 . S
C40 C36 1.684 . S
H41 C59 0.948 . S
H42 C0 0.948 . S
H43 C18 0.979 . S
H44 C18 0.980 . S
H45 C18 0.983 . S
H46 C17 0.982 . S
H47 C17 0.979 . S
H48 C17 0.977 . S
H49 C19 0.948 . S
H50 C21 0.947 . S
H51 C22 0.948 . S
H52 C28 0.982 . S
H53 C28 0.979 . S
H54 C28 0.977 . S
H55 C29 0.979 . S
H56 C29 0.980 1_556 S
H57 C29 0.983 . S
H58 C2 0.947 . S
C59 C2 1.392 . S
C59 C3 1.419 . S
C59 H41 0.948 . S
C60 C61 1.391 . S
C60 C64 1.391 . S
C60 H102 0.948 . S
C61 C60 1.391 . S
C61 C62 1.391 . S
C62 C61 1.391 . S
C62 H118 0.947 . S
C62 C119 1.392 . S
C63 C64 1.391 . S
C63 C67 1.397 . S
C63 C119 1.419 . S
C64 C60 1.391 . S
C64 C63 1.391 . S
C64 C65 1.399 . S
C65 C64 1.399 . S
C65 C68 1.396 . S
C65 C77 1.453 . S
C65 C78 1.684 . S
H66 C90 0.948 . S
C67 C63 1.397 . S
C67 C68 1.394 . S
C67 C86 1.723 . S
C68 C65 1.396 . S
C68 C67 1.394 . S
C68 C98 1.723 . S
H69 C92 0.947 . S
H70 C93 0.948 . S
H71 C99 0.982 . S
H72 C100 0.979 . S
H73 C100 0.980 . S
H74 C100 0.983 . S
H75 C99 0.979 . S
H76 C99 0.977 . S
C77 C65 1.453 . S
C77 H106 0.982 . S
C77 H107 0.979 . S
C77 H108 0.977 . S
C78 C65 1.684 . S
C78 H103 0.979 . S
C78 H104 0.980 . S
C78 H105 0.983 . S
C79 C80 1.391 . S
C79 C84 1.391 . S
C79 H109 0.948 . S
C80 C79 1.391 . S
C80 C81 1.391 . S
C81 C80 1.391 . S
C81 C82 1.392 . S
C81 H110 0.947 . S
C82 C81 1.392 . S
C82 C83 1.419 . S
C82 H111 0.948 . S
C83 C82 1.419 . S
C83 C84 1.391 . S
C83 C87 1.397 . S
C84 C79 1.391 . S
C84 C83 1.391 . S
C84 C85 1.399 . S
C85 C84 1.399 . S
C85 C86 1.396 . S
C85 C88 1.453 . S
C85 C89 1.684 . S
C86 C67 1.723 . S
C86 C85 1.396 . S
C86 C87 1.394 . S
C87 C83 1.397 . S
C87 C86 1.394 . S
C87 C97 1.723 . S
C88 C85 1.453 . S
C88 H112 0.982 . S
C88 H113 0.979 . S
C88 H114 0.977 . S
C89 C85 1.684 . S
C89 H115 0.979 . S
C89 H116 0.980 . S
C89 H117 0.983 . S
C90 H66 0.948 . S
C90 C91 1.391 . S
C90 C95 1.391 . S
C91 C90 1.391 . S
C91 C92 1.391 . S
C92 H69 0.947 . S
C92 C91 1.391 . S
C92 C93 1.392 . S
C93 H70 0.948 . S
C93 C92 1.392 . S
C93 C94 1.419 . S
C94 C93 1.419 . S
C94 C95 1.391 . S
C94 C98 1.397 . S
C95 C90 1.391 . S
C95 C94 1.391 . S
C95 C96 1.399 . S
C96 C95 1.399 . S
C96 C97 1.396 . S
C96 C99 1.453 . S
C96 C100 1.684 . S
C97 C87 1.723 . S
C97 C96 1.396 . S
C97 C98 1.394 . S
C98 C68 1.723 . S
C98 C94 1.397 . S
C98 C97 1.394 . S
C99 H71 0.982 . S
C99 H75 0.979 . S
C99 H76 0.977 . S
C99 C96 1.453 . S
C100 H72 0.979 . S
C100 H73 0.980 . S
C100 H74 0.983 . S
C100 C96 1.684 . S
H101 C119 0.948 . S
H102 C60 0.948 . S
H103 C78 0.979 . S
H104 C78 0.980 . S
H105 C78 0.983 . S
H106 C77 0.982 . S
H107 C77 0.979 . S
H108 C77 0.977 . S
H109 C79 0.948 . S
H110 C81 0.947 . S
H111 C82 0.948 . S
H112 C88 0.982 . S
H113 C88 0.979 . S
H114 C88 0.977 . S
H115 C89 0.979 . S
H116 C89 0.980 . S
H117 C89 0.983 . S
H118 C62 0.947 . S
C119 C62 1.392 . S
C119 C63 1.419 . S
C119 H101 0.948 . S
C120 C121 1.391 . S
C120 C124 1.391 . S
C120 H162 0.948 . S
C121 C120 1.391 . S
C121 C122 1.391 . S
C122 C121 1.391 . S
C122 H178 0.947 . S
C122 C179 1.392 . S
C123 C124 1.391 . S
C123 C127 1.397 . S
C123 C179 1.419 . S
C124 C120 1.391 . S
C124 C123 1.391 . S
C124 C125 1.399 . S
C125 C124 1.399 . S
C125 C128 1.396 . S
C125 C137 1.453 . S
C125 C138 1.684 . S
H126 C150 0.948 . S
C127 C123 1.397 . S
C127 C128 1.394 . S
C127 C146 1.723 . S
C128 C125 1.396 . S
C128 C127 1.394 . S
C128 C158 1.723 . S
H129 C152 0.947 . S
H130 C153 0.948 . S
H131 C159 0.982 . S
H132 C160 0.979 . S
H133 C160 0.980 . S
H134 C160 0.983 . S
H135 C159 0.979 . S
H136 C159 0.977 . S
C137 C125 1.453 . S
C137 H166 0.982 . S
C137 H167 0.979 . S
C137 H168 0.977 . S
C138 C125 1.684 . S
C138 H163 0.979 . S
C138 H164 0.980 . S
C138 H165 0.983 . S
C139 C140 1.391 . S
C139 C144 1.391 . S
C139 H169 0.948 . S
C140 C139 1.391 . S
C140 C141 1.391 . S
C141 C140 1.391 . S
C141 C142 1.392 . S
C141 H170 0.947 . S
C142 C141 1.392 . S
C142 C143 1.419 . S
C142 H171 0.948 . S
C143 C142 1.419 . S
C143 C144 1.391 . S
C143 C147 1.397 . S
C144 C139 1.391 . S
C144 C143 1.391 . S
C144 C145 1.399 1_556 S
C145 C144 1.399 1_554 S
C145 C146 1.396 . S
C145 C148 1.453 . S
C145 C149 1.684 . S
C146 C127 1.723 . S
C146 C145 1.396 . S
C146 C147 1.394 1_554 S
C147 C143 1.397 . S
C147 C146 1.394 1_556 S
C147 C157 1.723 . S
C148 C145 1.453 . S
C148 H172 0.982 . S
C148 H173 0.979 . S
C148 H174 0.977 . S
C149 C145 1.684 . S
C149 H175 0.979 . S
C149 H176 0.980 . S
C149 H177 0.983 . S
C150 H126 0.948 . S
C150 C151 1.391 1_556 S
C150 C155 1.391 . S
C151 C150 1.391 1_554 S
C151 C152 1.391 . S
C152 H129 0.947 . S
C152 C151 1.391 . S
C152 C153 1.392 . S
C153 H130 0.948 . S
C153 C152 1.392 . S
C153 C154 1.419 . S
C154 C153 1.419 . S
C154 C155 1.391 1_554 S
C154 C158 1.397 . S
C155 C150 1.391 . S
C155 C154 1.391 1_556 S
C155 C156 1.399 . S
C156 C155 1.399 . S
C156 C157 1.396 . S
C156 C159 1.453 . S
C156 C160 1.684 . S
C157 C147 1.723 . S
C157 C156 1.396 . S
C157 C158 1.394 1_556 S
C158 C128 1.723 . S
C158 C154 1.397 . S
C158 C157 1.394 1_554 S
C159 H131 0.982 . S
C159 H135 0.979 . S
C159 H136 0.977 . S
C159 C156 1.453 . S
C160 H132 0.979 . S
C160 H133 0.980 . S
C160 H134 0.983 . S
C160 C156 1.684 . S
H161 C179 0.948 . S
H162 C120 0.948 . S
H163 C138 0.979 . S
H164 C138 0.980 . S
H165 C138 0.983 . S
H166 C137 0.982 . S
H167 C137 0.979 . S
H168 C137 0.977 . S
H169 C139 0.948 . S
H170 C141 0.947 . S
H171 C142 0.948 . S
H172 C148 0.982 . S
H173 C148 0.979 . S
H174 C148 0.977 . S
H175 C149 0.979 . S
H176 C149 0.980 . S
H177 C149 0.983 . S
H178 C122 0.947 . S
C179 C122 1.392 . S
C179 C123 1.419 . S
C179 H161 0.948 . S
C180 C181 1.391 . S
C180 C184 1.391 . S
C180 H222 0.948 . S
C181 C180 1.391 . S
C181 C182 1.391 . S
C182 C181 1.391 . S
C182 H238 0.947 . S
C182 C239 1.392 . S
C183 C184 1.391 . S
C183 C187 1.397 . S
C183 C239 1.419 . S
C184 C180 1.391 . S
C184 C183 1.391 . S
C184 C185 1.399 . S
C185 C184 1.399 . S
C185 C188 1.396 . S
C185 C197 1.453 . S
C185 C198 1.684 . S
H186 C210 0.948 . S
C187 C183 1.397 . S
C187 C188 1.394 . S
C187 C206 1.723 . S
C188 C185 1.396 . S
C188 C187 1.394 . S
C188 C218 1.723 . S
H189 C212 0.947 . S
H190 C213 0.948 . S
H191 C219 0.982 . S
H192 C220 0.979 . S
H193 C220 0.980 . S
H194 C220 0.983 . S
H195 C219 0.979 . S
H196 C219 0.977 . S
C197 C185 1.453 . S
C197 H226 0.982 . S
C197 H227 0.979 . S
C197 H228 0.977 . S
C198 C185 1.684 . S
C198 H223 0.979 . S
C198 H224 0.980 . S
C198 H225 0.983 . S
C199 C200 1.391 . S
C199 C204 1.391 . S
C199 H229 0.948 . S
C200 C199 1.391 . S
C200 C201 1.391 . S
C201 C200 1.391 . S
C201 C202 1.392 . S
C201 H230 0.947 . S
C202 C201 1.392 . S
C202 C203 1.419 . S
C202 H231 0.948 . S
C203 C202 1.419 . S
C203 C204 1.391 . S
C203 C207 1.397 . S
C204 C199 1.391 . S
C204 C203 1.391 . S
C204 C205 1.399 . S
C205 C204 1.399 . S
C205 C206 1.396 . S
C205 C208 1.453 . S
C205 C209 1.684 . S
C206 C187 1.723 . S
C206 C205 1.396 . S
C206 C207 1.394 . S
C207 C203 1.397 . S
C207 C206 1.394 . S
C207 C217 1.723 . S
C208 C205 1.453 . S
C208 H232 0.982 . S
C208 H233 0.979 . S
C208 H234 0.977 . S
C209 C205 1.684 . S
C209 H235 0.979 . S
C209 H236 0.980 . S
C209 H237 0.983 . S
C210 H186 0.948 . S
C210 C211 1.391 . S
C210 C215 1.391 . S
C211 C210 1.391 . S
C211 C212 1.391 . S
C212 H189 0.947 . S
C212 C211 1.391 . S
C212 C213 1.392 . S
C213 H190 0.948 . S
C213 C212 1.392 . S
C213 C214 1.419 . S
C214 C213 1.419 . S
C214 C215 1.391 . S
C214 C218 1.397 . S
C215 C210 1.391 . S
C215 C214 1.391 . S
C215 C216 1.399 . S
C216 C215 1.399 . S
C216 C217 1.396 . S
C216 C219 1.453 . S
C216 C220 1.684 . S
C217 C207 1.723 . S
C217 C216 1.396 . S
C217 C218 1.394 . S
C218 C188 1.723 . S
C218 C214 1.397 . S
C218 C217 1.394 . S
C219 H191 0.982 . S
C219 H195 0.979 . S
C219 H196 0.977 . S
C219 C216 1.453 . S
C220 H192 0.979 . S
C220 H193 0.980 . S
C220 H194 0.983 . S
C220 C216 1.684 . S
H221 C239 0.948 . S
H222 C180 0.948 . S
H223 C198 0.979 . S
H224 C198 0.980 . S
H225 C198 0.983 . S
H226 C197 0.982 . S
H227 C197 0.979 . S
H228 C197 0.977 . S
H229 C199 0.948 . S
H230 C201 0.947 . S
H231 C202 0.948 . S
H232 C208 0.982 . S
H233 C208 0.979 . S
H234 C208 0.977 . S
H235 C209 0.979 . S
H236 C209 0.980 . S
H237 C209 0.983 . S
H238 C182 0.947 . S
C239 C182 1.392 . S
C239 C183 1.419 . S
C239 H221 0.948 . S
C240 C242 1.422 . S
C240 C244 1.415 . S
C240 N246 1.369 . S
C241 C242 1.421 . S
C241 C243 1.417 . S
C241 C253 1.422 . S
C242 C240 1.422 . S
C242 C241 1.421 . S
C242 N252 1.359 . S
C243 C241 1.417 . S
C243 C245 1.329 . S
C243 H262 0.930 . S
C244 C240 1.415 . S
C244 C245 1.437 . S
C244 C248 1.413 . S
C245 C243 1.329 . S
C245 C244 1.437 . S
C245 H267 0.929 . S
N246 C240 1.369 . S
N246 C247 1.338 1_655 S
N246 Gd251 2.622 . S
C247 N246 1.338 1_455 S
C247 C249 1.378 . S
C247 H259 0.929 . S
C248 C244 1.413 . S
C248 C249 1.343 1_655 S
C248 H264 0.931 . S
C249 C247 1.378 . S
C249 C248 1.343 1_455 S
C249 H265 0.934 . S
Gd250 N270 2.622 . S
Gd250 N277 2.570 . S
Gd250 O284 2.357 1_455 S
Gd250 O285 2.468 . S
Gd250 O286 2.427 . S
Gd250 O288 2.388 1_455 S
Gd250 O289 2.386 . S
Gd250 O293 2.307 1_565 S
Gd250 C303 2.805 . S
Gd251 N246 2.622 . S
Gd251 N252 2.570 . S
Gd251 O283 2.386 . S
Gd251 O287 2.307 1_545 S
Gd251 O290 2.353 1_655 S
Gd251 O291 2.468 . S
Gd251 O292 2.427 . S
Gd251 O294 2.388 1_655 S
Gd251 C315 2.805 . S
N252 C242 1.359 . S
N252 Gd251 2.570 . S
N252 C254 1.343 . S
C253 C241 1.422 . S
C253 C255 1.321 . S
C253 H261 0.931 . S
C254 N252 1.343 . S
C254 C255 1.390 . S
C254 H256 0.931 . S
C255 C253 1.321 . S
C255 C254 1.390 . S
C255 H257 0.930 . S
H256 C254 0.931 . S
H257 C255 0.930 . S
H258 C281 0.931 . S
H259 C247 0.929 . S
H260 C282 0.930 . S
H261 C253 0.931 . S
H262 C243 0.930 . S
H263 C272 0.929 1_655 S
H264 C248 0.931 . S
H265 C249 0.934 . S
H266 C304 0.930 . S
H267 C245 0.929 . S
H268 C273 0.931 . S
H269 C274 0.930 1_655 S
N270 Gd250 2.622 . S
N270 C271 1.369 . S
N270 C272 1.338 . S
C271 N270 1.369 . S
C271 C275 1.415 . S
C271 C278 1.422 . S
C272 H263 0.929 1_455 S
C272 N270 1.338 . S
C272 C274 1.378 . S
C273 H268 0.931 . S
C273 C274 1.348 . S
C273 C275 1.413 . S
C274 H269 0.930 1_455 S
C274 C272 1.378 . S
C274 C273 1.348 . S
C275 C271 1.415 . S
C275 C273 1.413 . S
C275 C305 1.437 . S
H276 C305 0.929 . S
N277 Gd250 2.570 . S
N277 C278 1.359 . S
N277 C281 1.343 . S
C278 C271 1.422 . S
C278 N277 1.359 . S
C278 C280 1.421 . S
C279 C280 1.422 . S
C279 C282 1.321 . S
C279 H306 0.931 . S
C280 C278 1.421 . S
C280 C279 1.422 . S
C280 C304 1.417 . S
C281 H258 0.931 . S
C281 N277 1.343 . S
C281 C282 1.390 . S
C282 H260 0.930 . S
C282 C279 1.321 . S
C282 C281 1.390 . S
O283 Gd251 2.386 . S
O283 C295 1.265 . S
O284 Gd250 2.357 1_655 S
O284 C295 1.235 1_565 S
O285 Gd250 2.468 . S
O285 C303 1.263 . S
O286 Gd250 2.427 . S
O286 C303 1.252 . S
O287 Gd251 2.307 1_565 S
O287 C296 1.261 . S
O288 Gd250 2.388 1_655 S
O288 C296 1.252 . S
O289 Gd250 2.386 . S
O289 C307 1.265 . S
O290 Gd251 2.353 1_455 S
O290 C307 1.242 1_545 S
O291 Gd251 2.468 . S
O291 C315 1.263 . S
O292 Gd251 2.427 . S
O292 C315 1.252 . S
O293 Gd250 2.307 1_545 S
O293 C308 1.261 . S
O294 Gd251 2.388 1_455 S
O294 C308 1.252 . S
C295 O283 1.265 . S
C295 O284 1.235 1_545 S
C296 O287 1.261 . S
C296 O288 1.252 . S
C297 C300 1.394 . S
C297 C302 1.370 . S
C297 C303 1.500 . S
C298 C301 1.383 . S
C298 C302 1.395 . S
C299 C300 1.396 . S
C299 C301 1.365 . S
C299 H316 0.929 . S
C300 C297 1.394 . S
C300 C299 1.396 . S
C300 H317 0.930 . S
C301 C298 1.383 . S
C301 C299 1.365 . S
C301 H318 0.931 . S
C302 C297 1.370 . S
C302 C298 1.395 . S
C302 H319 0.930 . S
C303 Gd250 2.805 . S
C303 O285 1.263 . S
C303 O286 1.252 . S
C303 C297 1.500 . S
C304 H266 0.930 . S
C304 C280 1.417 . S
C304 C305 1.329 . S
C305 C275 1.437 . S
C305 H276 0.929 . S
C305 C304 1.329 . S
H306 C279 0.931 . S
C307 O289 1.265 . S
C307 O290 1.242 1_565 S
C308 O293 1.261 . S
C308 O294 1.252 . S
C309 C312 1.394 . S
C309 C314 1.370 . S
C309 C315 1.500 . S
C310 C313 1.383 . S
C310 C314 1.395 . S
C311 C312 1.396 . S
C311 C313 1.365 . S
C311 H320 0.929 . S
C312 C309 1.394 . S
C312 C311 1.396 . S
C312 H321 0.930 . S
C313 C310 1.383 . S
C313 C311 1.365 . S
C313 H322 0.931 . S
C314 C309 1.370 . S
C314 C310 1.395 . S
C314 H323 0.930 . S
C315 Gd251 2.805 . S
C315 O291 1.263 . S
C315 O292 1.252 . S
C315 C309 1.500 . S
H316 C299 0.929 . S
H317 C300 0.930 . S
H318 C301 0.931 . S
H319 C302 0.930 . S
H320 C311 0.929 . S
H321 C312 0.930 . S
H322 C313 0.931 . S
H323 C314 0.930 . S
C324 C326 1.422 . S
C324 C328 1.415 . S
C324 N330 1.369 . S
C325 C326 1.421 . S
C325 C327 1.417 . S
C325 C337 1.422 . S
C326 C324 1.422 . S
C326 C325 1.421 . S
C326 N336 1.359 . S
C327 C325 1.417 . S
C327 C329 1.329 . S
C327 H346 0.930 . S
C328 C324 1.415 . S
C328 C329 1.437 . S
C328 C332 1.413 . S
C329 C327 1.329 . S
C329 C328 1.437 . S
C329 H351 0.929 . S
N330 C324 1.369 . S
N330 C331 1.338 . S
N330 Gd335 2.622 . S
C331 N330 1.338 . S
C331 C333 1.378 . S
C331 H343 0.929 . S
C332 C328 1.413 . S
C332 C333 1.348 . S
C332 H348 0.931 . S
C333 C331 1.378 . S
C333 C332 1.348 . S
C333 H349 0.930 . S
Gd334 N354 2.622 . S
Gd334 N361 2.570 1_556 S
Gd334 O368 2.353 . S
Gd334 O369 2.468 . S
Gd334 O370 2.427 . S
Gd334 O372 2.388 . S
Gd334 O373 2.386 1_556 S
Gd334 O377 2.307 1_556 S
Gd334 C387 2.805 . S
Gd335 N330 2.622 . S
Gd335 N336 2.570 . S
Gd335 O367 2.386 1_554 S
Gd335 O371 2.307 . S
Gd335 O374 2.353 . S
Gd335 O375 2.468 . S
Gd335 O376 2.427 . S
Gd335 O378 2.388 . S
Gd335 C399 2.805 . S
N336 C326 1.359 . S
N336 Gd335 2.570 . S
N336 C338 1.343 . S
C337 C325 1.422 . S
C337 C339 1.321 . S
C337 H345 0.931 . S
C338 N336 1.343 . S
C338 C339 1.390 . S
C338 H340 0.931 . S
C339 C337 1.321 . S
C339 C338 1.390 . S
C339 H341 0.930 . S
H340 C338 0.931 . S
H341 C339 0.930 . S
H342 C365 0.931 . S
H343 C331 0.929 . S
H344 C366 0.930 . S
H345 C337 0.931 . S
H346 C327 0.930 . S
H347 C356 0.929 . S
H348 C332 0.931 . S
H349 C333 0.930 . S
H350 C388 0.930 . S
H351 C329 0.929 . S
H352 C357 0.931 . S
H353 C358 0.930 . S
N354 Gd334 2.622 . S
N354 C355 1.369 1_556 S
N354 C356 1.338 . S
C355 N354 1.369 1_554 S
C355 C359 1.415 . S
C355 C362 1.422 . S
C356 H347 0.929 . S
C356 N354 1.338 . S
C356 C358 1.378 . S
C357 H352 0.931 . S
C357 C358 1.348 1_554 S
C357 C359 1.413 . S
C358 H353 0.930 . S
C358 C356 1.378 . S
C358 C357 1.348 1_556 S
C359 C355 1.415 . S
C359 C357 1.413 . S
C359 C389 1.437 . S
H360 C389 0.929 . S
N361 Gd334 2.570 1_554 S
N361 C362 1.359 . S
N361 C365 1.343 . S
C362 C355 1.422 . S
C362 N361 1.359 . S
C362 C364 1.421 . S
C363 C364 1.422 . S
C363 C366 1.321 . S
C363 H390 0.931 . S
C364 C362 1.421 . S
C364 C363 1.422 . S
C364 C388 1.417 . S
C365 H342 0.931 . S
C365 N361 1.343 . S
C365 C366 1.390 . S
C366 H344 0.930 . S
C366 C363 1.321 . S
C366 C365 1.390 . S
O367 Gd335 2.386 1_556 S
O367 C379 1.265 . S
O368 Gd334 2.353 . S
O368 C379 1.242 . S
O369 Gd334 2.468 . S
O369 C387 1.263 . S
O370 Gd334 2.427 . S
O370 C387 1.252 . S
O371 Gd335 2.307 . S
O371 C380 1.261 . S
O372 Gd334 2.388 . S
O372 C380 1.252 1_556 S
O373 Gd334 2.386 1_554 S
O373 C391 1.265 . S
O374 Gd335 2.353 . S
O374 C391 1.242 . S
O375 Gd335 2.468 . S
O375 C399 1.263 . S
O376 Gd335 2.427 . S
O376 C399 1.252 . S
O377 Gd334 2.307 1_554 S
O377 C392 1.261 . S
O378 Gd335 2.388 . S
O378 C392 1.252 . S
C379 O367 1.265 . S
C379 O368 1.242 . S
C380 O371 1.261 . S
C380 O372 1.252 1_554 S
C381 C384 1.394 . S
C381 C386 1.370 . S
C381 C387 1.500 . S
C382 C385 1.383 . S
C382 C386 1.395 . S
C383 C384 1.396 . S
C383 C385 1.365 . S
C383 H400 0.929 . S
C384 C381 1.394 . S
C384 C383 1.396 . S
C384 H401 0.930 . S
C385 C382 1.383 . S
C385 C383 1.365 . S
C385 H402 0.931 . S
C386 C381 1.370 . S
C386 C382 1.395 . S
C386 H403 0.930 . S
C387 Gd334 2.805 . S
C387 O369 1.263 . S
C387 O370 1.252 . S
C387 C381 1.500 . S
C388 H350 0.930 . S
C388 C364 1.417 . S
C388 C389 1.329 . S
C389 C359 1.437 . S
C389 H360 0.929 . S
C389 C388 1.329 . S
H390 C363 0.931 . S
C391 O373 1.265 . S
C391 O374 1.242 . S
C392 O377 1.261 . S
C392 O378 1.252 . S
C393 C396 1.394 . S
C393 C398 1.370 . S
C393 C399 1.500 . S
C394 C397 1.383 . S
C394 C398 1.395 . S
C395 C396 1.396 . S
C395 C397 1.365 . S
C395 H404 0.929 . S
C396 C393 1.394 . S
C396 C395 1.396 . S
C396 H405 0.930 . S
C397 C394 1.383 . S
C397 C395 1.365 . S
C397 H406 0.931 . S
C398 C393 1.370 . S
C398 C394 1.395 . S
C398 H407 0.930 . S
C399 Gd335 2.805 . S
C399 O375 1.263 . S
C399 O376 1.252 . S
C399 C393 1.500 . S
H400 C383 0.929 . S
H401 C384 0.930 . S
H402 C385 0.931 . S
H403 C386 0.930 . S
H404 C395 0.929 . S
H405 C396 0.930 . S
H406 C397 0.931 . S
H407 C398 0.930 . S
H408 C426 0.951 . S
H409 C428 0.951 . S
H410 C430 0.950 . S
H411 C431 0.950 . S
H412 C433 0.950 . S
H413 C436 0.950 . S
H414 C437 0.950 . S
H415 C439 0.950 . S
H416 C440 0.950 . S
H417 C441 0.951 . S
H418 C443 0.951 . S
H419 C445 0.950 . S
H420 C446 0.950 . S
H421 C448 0.950 . S
H422 C451 0.950 . S
H423 C452 0.950 . S
H424 C454 0.950 . S
H425 C455 0.950 . S
C426 H408 0.951 . S
C426 C427 1.366 . S
C426 C428 1.388 . S
C427 C426 1.366 . S
C427 C431 1.385 . S
C428 H409 0.951 . S
C428 C426 1.388 . S
C428 C429 1.366 . S
C429 C428 1.366 . S
C429 C430 1.414 . S
C429 C432 1.499 . S
C430 H410 0.950 . S
C430 C429 1.414 . S
C430 C431 1.374 . S
C431 H411 0.950 . S
C431 C427 1.385 . S
C431 C430 1.374 . S
C432 C429 1.499 . S
C432 C433 1.373 . S
C432 C434 1.389 . S
C433 H412 0.950 . S
C433 C432 1.373 . S
C433 C449 1.377 . S
C434 C432 1.389 . S
C434 C435 1.524 . S
C434 C448 1.377 . S
C435 C434 1.524 . S
C435 C436 1.397 . S
C435 C440 1.363 . S
C436 H413 0.950 . S
C436 C435 1.397 . S
C436 C437 1.334 . S
C437 H414 0.950 . S
C437 C436 1.334 . S
C437 C438 1.287 . S
C438 C437 1.287 . S
C438 C439 1.524 . S
C438 H457 0.913 . S
C439 H415 0.950 . S
C439 C438 1.524 . S
C439 C440 1.415 . S
C440 H416 0.950 . S
C440 C435 1.363 . S
C440 C439 1.415 . S
C441 H417 0.951 . S
C441 C442 1.366 . S
C441 C443 1.388 . S
C442 C441 1.366 . S
C442 C446 1.385 . S
C443 H418 0.951 . S
C443 C441 1.388 . S
C443 C444 1.366 . S
C444 C443 1.366 . S
C444 C445 1.414 . S
C444 C447 1.499 . S
C445 H419 0.950 . S
C445 C444 1.414 . S
C445 C446 1.374 . S
C446 H420 0.950 . S
C446 C442 1.385 . S
C446 C445 1.374 . S
C447 C444 1.499 . S
C447 C448 1.373 . S
C447 C449 1.389 . S
C448 H421 0.950 . S
C448 C434 1.377 . S
C448 C447 1.373 . S
C449 C433 1.377 . S
C449 C447 1.389 . S
C449 C450 1.524 . S
C450 C449 1.524 . S
C450 C451 1.397 . S
C450 C455 1.363 . S
C451 H422 0.950 . S
C451 C450 1.397 . S
C451 C452 1.334 . S
C452 H423 0.950 . S
C452 C451 1.334 . S
C452 C453 1.287 . S
C453 C452 1.287 . S
C453 C454 1.524 . S
C453 H456 0.999 1_545 S
C454 H424 0.950 . S
C454 C453 1.524 . S
C454 C455 1.415 . S
C455 H425 0.950 . S
C455 C450 1.363 . S
C455 C454 1.415 . S
H456 C453 0.999 1_565 S
H457 C438 0.913 . S
H458 C476 0.951 . S
H459 C478 0.951 . S
H460 C480 0.950 . S
H461 C481 0.950 . S
H462 C483 0.950 . S
H463 C486 0.950 . S
H464 C487 0.950 . S
H465 C489 0.950 . S
H466 C490 0.950 1_554 S
H467 C491 0.951 . S
H468 C493 0.951 . S
H469 C495 0.950 . S
H470 C496 0.950 . S
H471 C498 0.950 1_556 S
H472 C501 0.950 . S
H473 C502 0.950 . S
H474 C504 0.950 . S
H475 C505 0.950 . S
C476 H458 0.951 . S
C476 C477 1.366 . S
C476 C478 1.388 . S
C477 C476 1.366 . S
C477 C481 1.385 . S
C478 H459 0.951 . S
C478 C476 1.388 . S
C478 C479 1.366 . S
C479 C478 1.366 . S
C479 C480 1.414 . S
C479 C482 1.499 . S
C480 H460 0.950 . S
C480 C479 1.414 . S
C480 C481 1.374 . S
C481 H461 0.950 . S
C481 C477 1.385 . S
C481 C480 1.374 . S
C482 C479 1.499 . S
C482 C483 1.373 . S
C482 C484 1.389 . S
C483 H462 0.950 . S
C483 C482 1.373 . S
C483 C499 1.377 . S
C484 C482 1.389 . S
C484 C485 1.524 1_554 S
C484 C498 1.377 . S
C485 C484 1.524 1_556 S
C485 C486 1.397 . S
C485 C490 1.363 . S
C486 H463 0.950 . S
C486 C485 1.397 . S
C486 C487 1.334 . S
C487 H464 0.950 . S
C487 C486 1.334 . S
C487 C488 1.287 . S
C488 C487 1.287 . S
C488 C489 1.524 . S
C488 H507 0.913 . S
C489 H465 0.950 . S
C489 C488 1.524 . S
C489 C490 1.415 . S
C490 H466 0.950 1_556 S
C490 C485 1.363 . S
C490 C489 1.415 . S
C491 H467 0.951 . S
C491 C492 1.366 . S
C491 C493 1.388 . S
C492 C491 1.366 . S
C492 C496 1.385 . S
C493 H468 0.951 . S
C493 C491 1.388 . S
C493 C494 1.366 . S
C494 C493 1.366 . S
C494 C495 1.414 . S
C494 C497 1.499 . S
C495 H469 0.950 . S
C495 C494 1.414 . S
C495 C496 1.374 . S
C496 H470 0.950 . S
C496 C492 1.385 . S
C496 C495 1.374 . S
C497 C494 1.499 . S
C497 C498 1.373 . S
C497 C499 1.389 . S
C498 H471 0.950 1_554 S
C498 C484 1.377 . S
C498 C497 1.373 . S
C499 C483 1.377 . S
C499 C497 1.389 . S
C499 C500 1.524 . S
C500 C499 1.524 . S
C500 C501 1.397 . S
C500 C505 1.363 . S
C501 H472 0.950 . S
C501 C500 1.397 . S
C501 C502 1.334 . S
C502 H473 0.950 . S
C502 C501 1.334 . S
C502 C503 1.287 . S
C503 C502 1.287 . S
C503 C504 1.524 . S
C503 H506 0.999 . S
C504 H474 0.950 . S
C504 C503 1.524 . S
C504 C505 1.415 . S
C505 H475 0.950 . S
C505 C500 1.363 . S
C505 C504 1.415 . S
H506 C503 0.999 . S
H507 C488 0.913 . S
H508 C526 0.951 . S
H509 C528 0.951 . S
H510 C530 0.950 . S
H511 C531 0.950 . S
H512 C533 0.950 . S
H513 C536 0.950 . S
H514 C537 0.950 . S
H515 C539 0.950 . S
H516 C540 0.950 . S
H517 C541 0.951 . S
H518 C543 0.951 . S
H519 C545 0.950 . S
H520 C546 0.950 . S
H521 C548 0.950 . S
H522 C551 0.950 . S
H523 C552 0.950 . S
H524 C554 0.950 . S
H525 C555 0.950 . S
C526 H508 0.951 . S
C526 C527 1.366 . S
C526 C528 1.388 . S
C527 C526 1.366 . S
C527 C531 1.385 . S
C528 H509 0.951 . S
C528 C526 1.388 . S
C528 C529 1.366 . S
C529 C528 1.366 . S
C529 C530 1.414 . S
C529 C532 1.499 . S
C530 H510 0.950 . S
C530 C529 1.414 . S
C530 C531 1.374 . S
C531 H511 0.950 . S
C531 C527 1.385 . S
C531 C530 1.374 . S
C532 C529 1.499 . S
C532 C533 1.373 . S
C532 C534 1.389 . S
C533 H512 0.950 . S
C533 C532 1.373 . S
C533 C549 1.377 . S
C534 C532 1.389 . S
C534 C535 1.524 . S
C534 C548 1.377 . S
C535 C534 1.524 . S
C535 C536 1.397 . S
C535 C540 1.363 . S
C536 H513 0.950 . S
C536 C535 1.397 . S
C536 C537 1.334 . S
C537 H514 0.950 . S
C537 C536 1.334 . S
C537 C538 1.287 . S
C538 C537 1.287 . S
C538 C539 1.524 . S
C538 H557 0.913 . S
C539 H515 0.950 . S
C539 C538 1.524 . S
C539 C540 1.415 . S
C540 H516 0.950 . S
C540 C535 1.363 . S
C540 C539 1.415 . S
C541 H517 0.951 . S
C541 C542 1.366 . S
C541 C543 1.388 . S
C542 C541 1.366 . S
C542 C546 1.385 . S
C543 H518 0.951 . S
C543 C541 1.388 . S
C543 C544 1.366 . S
C544 C543 1.366 . S
C544 C545 1.414 . S
C544 C547 1.499 . S
C545 H519 0.950 . S
C545 C544 1.414 . S
C545 C546 1.374 . S
C546 H520 0.950 . S
C546 C542 1.385 . S
C546 C545 1.374 . S
C547 C544 1.499 . S
C547 C548 1.373 . S
C547 C549 1.389 . S
C548 H521 0.950 . S
C548 C534 1.377 . S
C548 C547 1.373 . S
C549 C533 1.377 . S
C549 C547 1.389 . S
C549 C550 1.524 . S
C550 C549 1.524 . S
C550 C551 1.397 . S
C550 C555 1.363 . S
C551 H522 0.950 . S
C551 C550 1.397 . S
C551 C552 1.334 . S
C552 H523 0.950 . S
C552 C551 1.334 . S
C552 C553 1.287 . S
C553 C552 1.287 . S
C553 C554 1.524 . S
C553 H556 0.999 . S
C554 H524 0.950 . S
C554 C553 1.524 . S
C554 C555 1.415 . S
C555 H525 0.950 . S
C555 C550 1.363 . S
C555 C554 1.415 . S
H556 C553 0.999 . S
H557 C538 0.913 . S
H558 C576 0.951 . S
H559 C578 0.951 . S
H560 C580 0.950 . S
H561 C581 0.950 . S
H562 C583 0.944 1_556 S
H563 C586 0.950 . S
H564 C587 0.950 . S
H565 C589 0.950 . S
H566 C590 0.948 1_556 S
H567 C591 0.951 . S
H568 C593 0.951 . S
H569 C595 0.950 . S
H570 C596 0.950 . S
H571 C598 0.950 . S
H572 C601 0.950 . S
H573 C602 0.950 . S
H574 C604 0.950 1_554 S
H575 C605 0.950 . S
C576 H558 0.951 . S
C576 C577 1.366 1_556 S
C576 C578 1.388 . S
C577 C576 1.366 1_554 S
C577 C581 1.385 . S
C578 H559 0.951 . S
C578 C576 1.388 . S
C578 C579 1.366 1_556 S
C579 C578 1.366 1_554 S
C579 C580 1.414 . S
C579 C582 1.499 . S
C580 H560 0.950 . S
C580 C579 1.414 . S
C580 C581 1.374 . S
C581 H561 0.950 . S
C581 C577 1.385 . S
C581 C580 1.374 . S
C582 C579 1.499 . S
C582 C583 1.373 . S
C582 C584 1.389 . S
C583 H562 0.944 1_554 S
C583 C582 1.373 . S
C583 C599 1.377 . S
C584 C582 1.389 . S
C584 C585 1.524 . S
C584 C598 1.377 . S
C585 C584 1.524 . S
C585 C586 1.397 . S
C585 C590 1.363 . S
C586 H563 0.950 . S
C586 C585 1.397 . S
C586 C587 1.334 . S
C587 H564 0.950 . S
C587 C586 1.334 . S
C587 C588 1.287 . S
C588 C587 1.287 . S
C588 C589 1.524 . S
C588 H607 0.913 . S
C589 H565 0.950 . S
C589 C588 1.524 . S
C589 C590 1.415 . S
C590 H566 0.948 1_554 S
C590 C585 1.363 . S
C590 C589 1.415 . S
C591 H567 0.951 . S
C591 C592 1.366 . S
C591 C593 1.388 . S
C592 C591 1.366 . S
C592 C596 1.385 1_554 S
C593 H568 0.951 . S
C593 C591 1.388 . S
C593 C594 1.366 . S
C594 C593 1.366 . S
C594 C595 1.414 1_554 S
C594 C597 1.499 . S
C595 H569 0.950 . S
C595 C594 1.414 1_556 S
C595 C596 1.374 . S
C596 H570 0.950 . S
C596 C592 1.385 1_556 S
C596 C595 1.374 . S
C597 C594 1.499 . S
C597 C598 1.373 . S
C597 C599 1.389 . S
C598 H571 0.950 . S
C598 C584 1.377 . S
C598 C597 1.373 . S
C599 C583 1.377 . S
C599 C597 1.389 . S
C599 C600 1.524 1_554 S
C600 C599 1.524 1_556 S
C600 C601 1.397 . S
C600 C605 1.363 1_556 S
C601 H572 0.950 . S
C601 C600 1.397 . S
C601 C602 1.334 . S
C602 H573 0.950 . S
C602 C601 1.334 . S
C602 C603 1.287 . S
C603 C602 1.287 . S
C603 C604 1.524 . S
C603 H606 0.999 . S
C604 H574 0.950 1_556 S
C604 C603 1.524 . S
C604 C605 1.415 1_556 S
C605 H575 0.950 . S
C605 C600 1.363 1_554 S
C605 C604 1.415 1_554 S
H606 C603 0.999 . S
H607 C588 0.913 . S
H608 C626 0.951 . S
H609 C628 0.951 . S
H610 C630 0.950 . S
H611 C631 0.950 . S
H612 C633 0.950 . S
H613 C636 0.950 . S
H614 C637 0.950 . S
H615 C639 0.950 . S
H616 C640 0.950 . S
H617 C641 0.951 1_545 S
H618 C643 0.951 . S
H619 C645 0.950 . S
H620 C646 0.950 . S
H621 C648 0.950 . S
H622 C651 0.950 . S
H623 C652 0.950 . S
H624 C654 0.950 . S
H625 C655 0.943 1_545 S
C626 H608 0.951 . S
C626 C627 1.366 . S
C626 C628 1.388 . S
C627 C626 1.366 . S
C627 C631 1.385 . S
C628 H609 0.951 . S
C628 C626 1.388 . S
C628 C629 1.366 . S
C629 C628 1.366 . S
C629 C630 1.414 . S
C629 C632 1.499 . S
C630 H610 0.950 . S
C630 C629 1.414 . S
C630 C631 1.374 . S
C631 H611 0.950 . S
C631 C627 1.385 . S
C631 C630 1.374 . S
C632 C629 1.499 . S
C632 C633 1.373 . S
C632 C634 1.389 . S
C633 H612 0.950 . S
C633 C632 1.373 . S
C633 C649 1.377 . S
C634 C632 1.389 . S
C634 C635 1.524 . S
C634 C648 1.377 . S
C635 C634 1.524 . S
C635 C636 1.397 . S
C635 C640 1.363 . S
C636 H613 0.950 . S
C636 C635 1.397 . S
C636 C637 1.334 . S
C637 H614 0.950 . S
C637 C636 1.334 . S
C637 C638 1.287 . S
C638 C637 1.287 . S
C638 C639 1.524 . S
C638 H657 0.913 . S
C639 H615 0.950 . S
C639 C638 1.524 . S
C639 C640 1.415 . S
C640 H616 0.950 . S
C640 C635 1.363 . S
C640 C639 1.415 . S
C641 H617 0.951 1_565 S
C641 C642 1.366 . S
C641 C643 1.388 . S
C642 C641 1.366 . S
C642 C646 1.385 . S
C643 H618 0.951 . S
C643 C641 1.388 . S
C643 C644 1.366 . S
C644 C643 1.366 . S
C644 C645 1.414 . S
C644 C647 1.499 . S
C645 H619 0.950 . S
C645 C644 1.414 . S
C645 C646 1.374 . S
C646 H620 0.950 . S
C646 C642 1.385 . S
C646 C645 1.374 . S
C647 C644 1.499 . S
C647 C648 1.373 . S
C647 C649 1.389 . S
C648 H621 0.950 . S
C648 C634 1.377 . S
C648 C647 1.373 . S
C649 C633 1.377 . S
C649 C647 1.389 . S
C649 C650 1.524 . S
C650 C649 1.524 . S
C650 C651 1.397 . S
C650 C655 1.400 . S
C651 H622 0.950 . S
C651 C650 1.397 . S
C651 C652 1.334 . S
C652 H623 0.950 . S
C652 C651 1.334 . S
C652 C653 1.257 1_565 S
C653 C652 1.257 1_545 S
C653 C654 1.536 . S
C653 H656 1.023 . S
C654 H624 0.950 . S
C654 C653 1.536 . S
C654 C655 1.386 1_545 S
C655 H625 0.943 1_565 S
C655 C650 1.400 . S
C655 C654 1.386 1_565 S
H656 C653 1.023 . S
H657 C638 0.913 . S
H658 C676 0.951 . S
H659 C678 0.951 . S
H660 C680 0.950 . S
H661 C681 0.950 . S
H662 C683 0.950 . S
H663 C686 0.950 . S
H664 C687 0.950 . S
H665 C689 0.950 . S
H666 C690 0.950 . S
H667 C691 0.951 . S
H668 C693 0.951 . S
H669 C695 0.950 . S
H670 C696 0.950 . S
H671 C698 0.950 . S
H672 C701 0.950 . S
H673 C702 0.950 . S
H674 C704 0.950 . S
H675 C705 0.950 . S
C676 H658 0.951 . S
C676 C677 1.366 . S
C676 C678 1.388 . S
C677 C676 1.366 . S
C677 C681 1.385 . S
C678 H659 0.951 . S
C678 C676 1.388 . S
C678 C679 1.366 . S
C679 C678 1.366 . S
C679 C680 1.414 . S
C679 C682 1.499 . S
C680 H660 0.950 . S
C680 C679 1.414 . S
C680 C681 1.374 . S
C681 H661 0.950 . S
C681 C677 1.385 . S
C681 C680 1.374 . S
C682 C679 1.499 . S
C682 C683 1.373 . S
C682 C684 1.389 . S
C683 H662 0.950 . S
C683 C682 1.373 . S
C683 C699 1.377 . S
C684 C682 1.389 . S
C684 C685 1.524 . S
C684 C698 1.377 . S
C685 C684 1.524 . S
C685 C686 1.397 . S
C685 C690 1.363 . S
C686 H663 0.950 . S
C686 C685 1.397 . S
C686 C687 1.334 . S
C687 H664 0.950 . S
C687 C686 1.334 . S
C687 C688 1.287 . S
C688 C687 1.287 . S
C688 C689 1.524 . S
C688 H707 0.913 . S
C689 H665 0.950 . S
C689 C688 1.524 . S
C689 C690 1.415 . S
C690 H666 0.950 . S
C690 C685 1.363 . S
C690 C689 1.415 . S
C691 H667 0.951 . S
C691 C692 1.366 . S
C691 C693 1.388 . S
C692 C691 1.366 . S
C692 C696 1.385 . S
C693 H668 0.951 . S
C693 C691 1.388 . S
C693 C694 1.366 . S
C694 C693 1.366 . S
C694 C695 1.414 . S
C694 C697 1.499 . S
C695 H669 0.950 . S
C695 C694 1.414 . S
C695 C696 1.374 . S
C696 H670 0.950 . S
C696 C692 1.385 . S
C696 C695 1.374 . S
C697 C694 1.499 . S
C697 C698 1.373 . S
C697 C699 1.389 . S
C698 H671 0.950 . S
C698 C684 1.377 . S
C698 C697 1.373 . S
C699 C683 1.377 . S
C699 C697 1.389 . S
C699 C700 1.524 . S
C700 C699 1.524 . S
C700 C701 1.397 . S
C700 C705 1.363 . S
C701 H672 0.950 . S
C701 C700 1.397 . S
C701 C702 1.334 . S
C702 H673 0.950 . S
C702 C701 1.334 . S
C702 C703 1.287 . S
C703 C702 1.287 . S
C703 C704 1.524 . S
C703 H706 0.999 . S
C704 H674 0.950 . S
C704 C703 1.524 . S
C704 C705 1.415 . S
C705 H675 0.950 . S
C705 C700 1.363 . S
C705 C704 1.415 . S
H706 C703 0.999 . S
H707 C688 0.913 . S
H708 C726 0.951 . S
H709 C728 0.951 . S
H710 C730 0.950 . S
H711 C731 0.950 . S
H712 C733 0.950 . S
H713 C736 0.950 . S
H714 C737 0.950 . S
H715 C739 0.950 . S
H716 C740 0.950 . S
H717 C741 0.951 . S
H718 C743 0.951 . S
H719 C745 0.950 . S
H720 C746 0.961 . S
H721 C748 0.950 . S
H722 C751 0.950 . S
H723 C752 0.950 . S
H724 C754 0.950 . S
H725 C755 0.950 . S
C726 H708 0.951 . S
C726 C727 1.366 . S
C726 C728 1.388 . S
C727 C726 1.366 . S
C727 C731 1.385 . S
C728 H709 0.951 . S
C728 C726 1.388 . S
C728 C729 1.366 . S
C729 C728 1.366 . S
C729 C730 1.414 . S
C729 C732 1.499 . S
C730 H710 0.950 . S
C730 C729 1.414 . S
C730 C731 1.374 . S
C731 H711 0.950 . S
C731 C727 1.385 . S
C731 C730 1.374 . S
C732 C729 1.499 . S
C732 C733 1.373 . S
C732 C734 1.389 . S
C733 H712 0.950 . S
C733 C732 1.373 . S
C733 C749 1.377 . S
C734 C732 1.389 . S
C734 C735 1.524 . S
C734 C748 1.377 . S
C735 C734 1.524 . S
C735 C736 1.397 . S
C735 C740 1.363 1_545 S
C736 H713 0.950 . S
C736 C735 1.397 . S
C736 C737 1.334 1_545 S
C737 H714 0.950 . S
C737 C736 1.334 1_565 S
C737 C738 1.287 . S
C738 C737 1.287 . S
C738 C739 1.524 . S
C738 H757 0.913 . S
C739 H715 0.950 . S
C739 C738 1.524 . S
C739 C740 1.415 . S
C740 H716 0.950 . S
C740 C735 1.363 1_565 S
C740 C739 1.415 . S
C741 H717 0.951 . S
C741 C742 1.366 . S
C741 C743 1.388 . S
C742 C741 1.366 . S
C742 C746 1.385 . S
C743 H718 0.951 . S
C743 C741 1.388 . S
C743 C744 1.366 . S
C744 C743 1.366 . S
C744 C745 1.414 . S
C744 C747 1.499 . S
C745 H719 0.950 . S
C745 C744 1.414 . S
C745 C746 1.374 . S
C746 H720 0.961 . S
C746 C742 1.385 . S
C746 C745 1.374 . S
C747 C744 1.499 . S
C747 C748 1.373 . S
C747 C749 1.389 . S
C748 H721 0.950 . S
C748 C734 1.377 . S
C748 C747 1.373 . S
C749 C733 1.377 . S
C749 C747 1.389 . S
C749 C750 1.524 . S
C750 C749 1.524 . S
C750 C751 1.397 . S
C750 C755 1.363 . S
C751 H722 0.950 . S
C751 C750 1.397 . S
C751 C752 1.334 . S
C752 H723 0.950 . S
C752 C751 1.334 . S
C752 C753 1.287 . S
C753 C752 1.287 . S
C753 C754 1.524 . S
C753 H756 0.999 . S
C754 H724 0.950 . S
C754 C753 1.524 . S
C754 C755 1.415 . S
C755 H725 0.950 . S
C755 C750 1.363 . S
C755 C754 1.415 . S
H756 C753 0.999 . S
H757 C738 0.913 . S
H758 C776 0.951 . S
H759 C778 0.951 . S
H760 C780 0.950 . S
H761 C781 0.950 . S
H762 C783 0.950 . S
H763 C786 0.950 . S
H764 C787 0.950 . S
H765 C789 0.950 . S
H766 C790 0.950 . S
H767 C791 0.951 . S
H768 C793 0.951 . S
H769 C795 0.950 . S
H770 C796 0.950 . S
H771 C798 0.950 . S
H772 C801 0.950 . S
H773 C802 0.950 . S
H774 C804 0.950 . S
H775 C805 0.950 . S
C776 H758 0.951 . S
C776 C777 1.366 . S
C776 C778 1.388 . S
C777 C776 1.366 . S
C777 C781 1.385 . S
C778 H759 0.951 . S
C778 C776 1.388 . S
C778 C779 1.366 . S
C779 C778 1.366 . S
C779 C780 1.414 . S
C779 C782 1.499 . S
C780 H760 0.950 . S
C780 C779 1.414 . S
C780 C781 1.374 . S
C781 H761 0.950 . S
C781 C777 1.385 . S
C781 C780 1.374 . S
C782 C779 1.499 . S
C782 C783 1.373 . S
C782 C784 1.389 . S
C783 H762 0.950 . S
C783 C782 1.373 . S
C783 C799 1.377 . S
C784 C782 1.389 . S
C784 C785 1.524 . S
C784 C798 1.377 . S
C785 C784 1.524 . S
C785 C786 1.397 . S
C785 C790 1.363 . S
C786 H763 0.950 . S
C786 C785 1.397 . S
C786 C787 1.334 . S
C787 H764 0.950 . S
C787 C786 1.334 . S
C787 C788 1.287 . S
C788 C787 1.287 . S
C788 C789 1.524 . S
C788 H807 0.913 . S
C789 H765 0.950 . S
C789 C788 1.524 . S
C789 C790 1.415 . S
C790 H766 0.950 . S
C790 C785 1.363 . S
C790 C789 1.415 . S
C791 H767 0.951 . S
C791 C792 1.366 . S
C791 C793 1.388 . S
C792 C791 1.366 . S
C792 C796 1.385 . S
C793 H768 0.951 . S
C793 C791 1.388 . S
C793 C794 1.366 . S
C794 C793 1.366 . S
C794 C795 1.414 . S
C794 C797 1.499 . S
C795 H769 0.950 . S
C795 C794 1.414 . S
C795 C796 1.374 . S
C796 H770 0.950 . S
C796 C792 1.385 . S
C796 C795 1.374 . S
C797 C794 1.499 . S
C797 C798 1.373 . S
C797 C799 1.389 . S
C798 H771 0.950 . S
C798 C784 1.377 . S
C798 C797 1.373 . S
C799 C783 1.377 . S
C799 C797 1.389 . S
C799 C800 1.524 . S
C800 C799 1.524 . S
C800 C801 1.397 . S
C800 C805 1.363 . S
C801 H772 0.950 . S
C801 C800 1.397 . S
C801 C802 1.334 . S
C802 H773 0.950 . S
C802 C801 1.334 . S
C802 C803 1.287 . S
C803 C802 1.287 . S
C803 C804 1.524 . S
C803 H806 0.999 . S
C804 H774 0.950 . S
C804 C803 1.524 . S
C804 C805 1.415 . S
C805 H775 0.950 . S
C805 C800 1.363 . S
C805 C804 1.415 . S
H806 C803 0.999 . S
H807 C788 0.913 . S
H808 C826 0.951 . S
H809 C828 0.951 . S
H810 C830 0.950 . S
H811 C831 0.950 . S
H812 C833 0.950 . S
H813 C836 0.950 . S
H814 C837 0.950 . S
H815 C839 0.950 . S
H816 C840 0.950 . S
H817 C841 0.951 . S
H818 C843 0.951 . S
H819 C845 0.950 . S
H820 C846 0.950 . S
H821 C848 0.950 . S
H822 C851 0.950 . S
H823 C852 0.950 . S
H824 C854 0.950 . S
H825 C855 0.950 . S
C826 H808 0.951 . S
C826 C827 1.366 . S
C826 C828 1.388 . S
C827 C826 1.366 . S
C827 C831 1.385 . S
C828 H809 0.951 . S
C828 C826 1.388 . S
C828 C829 1.366 . S
C829 C828 1.366 . S
C829 C830 1.414 . S
C829 C832 1.499 . S
C830 H810 0.950 . S
C830 C829 1.414 . S
C830 C831 1.374 . S
C831 H811 0.950 . S
C831 C827 1.385 . S
C831 C830 1.374 . S
C832 C829 1.499 . S
C832 C833 1.373 . S
C832 C834 1.389 . S
C833 H812 0.950 . S
C833 C832 1.373 . S
C833 C849 1.377 . S
C834 C832 1.389 . S
C834 C835 1.524 . S
C834 C848 1.377 . S
C835 C834 1.524 . S
C835 C836 1.397 . S
C835 C840 1.363 . S
C836 H813 0.950 . S
C836 C835 1.397 . S
C836 C837 1.334 . S
C837 H814 0.950 . S
C837 C836 1.334 . S
C837 C838 1.287 . S
C838 C837 1.287 . S
C838 C839 1.524 . S
C838 H857 0.913 . S
C839 H815 0.950 . S
C839 C838 1.524 . S
C839 C840 1.415 . S
C840 H816 0.950 . S
C840 C835 1.363 . S
C840 C839 1.415 . S
C841 H817 0.951 . S
C841 C842 1.366 . S
C841 C843 1.388 . S
C842 C841 1.366 . S
C842 C846 1.385 . S
C843 H818 0.951 . S
C843 C841 1.388 . S
C843 C844 1.366 . S
C844 C843 1.366 . S
C844 C845 1.414 . S
C844 C847 1.499 . S
C845 H819 0.950 . S
C845 C844 1.414 . S
C845 C846 1.374 . S
C846 H820 0.950 . S
C846 C842 1.385 . S
C846 C845 1.374 . S
C847 C844 1.499 . S
C847 C848 1.373 . S
C847 C849 1.389 . S
C848 H821 0.950 . S
C848 C834 1.377 . S
C848 C847 1.373 . S
C849 C833 1.377 . S
C849 C847 1.389 . S
C849 C850 1.524 . S
C850 C849 1.524 . S
C850 C851 1.397 . S
C850 C855 1.363 . S
C851 H822 0.950 . S
C851 C850 1.397 . S
C851 C852 1.334 . S
C852 H823 0.950 . S
C852 C851 1.334 . S
C852 C853 1.287 . S
C853 C852 1.287 . S
C853 C854 1.524 . S
C853 H856 0.999 . S
C854 H824 0.950 . S
C854 C853 1.524 . S
C854 C855 1.415 . S
C855 H825 0.950 . S
C855 C850 1.363 . S
C855 C854 1.415 . S
H856 C853 0.999 . S
H857 C838 0.913 . S
H858 C876 0.951 . S
H859 C878 0.951 . S
H860 C880 0.950 . S
H861 C881 0.950 . S
H862 C883 0.950 . S
H863 C886 0.950 . S
H864 C887 0.950 . S
H865 C889 0.950 . S
H866 C890 0.950 . S
H867 C891 0.951 . S
H868 C893 0.951 . S
H869 C895 0.950 . S
H870 C896 0.950 . S
H871 C898 0.950 . S
H872 C901 0.950 1_545 S
H873 C902 0.950 . S
H874 C904 0.950 . S
H875 C905 0.933 1_545 S
C876 H858 0.951 . S
C876 C877 1.366 . S
C876 C878 1.388 . S
C877 C876 1.366 . S
C877 C881 1.385 . S
C878 H859 0.951 . S
C878 C876 1.388 . S
C878 C879 1.366 . S
C879 C878 1.366 . S
C879 C880 1.414 . S
C879 C882 1.499 . S
C880 H860 0.950 . S
C880 C879 1.414 . S
C880 C881 1.374 . S
C881 H861 0.950 . S
C881 C877 1.385 . S
C881 C880 1.374 . S
C882 C879 1.499 . S
C882 C883 1.373 . S
C882 C884 1.389 . S
C883 H862 0.950 . S
C883 C882 1.373 . S
C883 C899 1.377 . S
C884 C882 1.389 . S
C884 C885 1.524 . S
C884 C898 1.377 . S
C885 C884 1.524 . S
C885 C886 1.397 . S
C885 C890 1.363 . S
C886 H863 0.950 . S
C886 C885 1.397 . S
C886 C887 1.334 . S
C887 H864 0.950 . S
C887 C886 1.334 . S
C887 C888 1.287 . S
C888 C887 1.287 . S
C888 C889 1.524 . S
C888 H907 0.913 . S
C889 H865 0.950 . S
C889 C888 1.524 . S
C889 C890 1.415 . S
C890 H866 0.950 . S
C890 C885 1.363 . S
C890 C889 1.415 . S
C891 H867 0.951 . S
C891 C892 1.366 . S
C891 C893 1.388 . S
C892 C891 1.366 . S
C892 C896 1.385 . S
C893 H868 0.951 . S
C893 C891 1.388 . S
C893 C894 1.366 . S
C894 C893 1.366 . S
C894 C895 1.414 . S
C894 C897 1.499 . S
C895 H869 0.950 . S
C895 C894 1.414 . S
C895 C896 1.374 . S
C896 H870 0.950 . S
C896 C892 1.385 . S
C896 C895 1.374 . S
C897 C894 1.499 . S
C897 C898 1.373 . S
C897 C899 1.389 . S
C898 H871 0.950 . S
C898 C884 1.377 . S
C898 C897 1.373 . S
C899 C883 1.377 . S
C899 C897 1.389 . S
C899 C900 1.524 . S
C900 C899 1.524 . S
C900 C901 1.397 1_545 S
C900 C905 1.348 1_545 S
C901 H872 0.950 1_565 S
C901 C900 1.397 1_565 S
C901 C902 1.334 . S
C902 H873 0.950 . S
C902 C901 1.334 . S
C902 C903 1.287 . S
C903 C902 1.287 . S
C903 C904 1.524 . S
C903 H906 0.999 . S
C904 H874 0.950 . S
C904 C903 1.524 . S
C904 C905 1.448 . S
C905 H875 0.933 1_565 S
C905 C900 1.348 1_565 S
C905 C904 1.448 . S
H906 C903 0.999 . S
H907 C888 0.913 . S
H908 C926 0.951 . S
H909 C928 0.951 . S
H910 C930 0.950 . S
H911 C931 0.950 . S
H912 C933 0.950 . S
H913 C936 0.950 . S
H914 C937 0.950 . S
H915 C939 0.950 . S
H916 C940 0.950 . S
H917 C941 0.951 . S
H918 C943 0.951 . S
H919 C945 0.950 . S
H920 C946 0.950 . S
H921 C948 0.950 . S
H922 C951 0.950 . S
H923 C952 0.950 . S
H924 C954 0.950 . S
H925 C955 0.950 . S
C926 H908 0.951 . S
C926 C927 1.366 . S
C926 C928 1.388 . S
C927 C926 1.366 . S
C927 C931 1.385 . S
C928 H909 0.951 . S
C928 C926 1.388 . S
C928 C929 1.366 . S
C929 C928 1.366 . S
C929 C930 1.414 . S
C929 C932 1.499 . S
C930 H910 0.950 . S
C930 C929 1.414 . S
C930 C931 1.374 . S
C931 H911 0.950 . S
C931 C927 1.385 . S
C931 C930 1.374 . S
C932 C929 1.499 . S
C932 C933 1.373 . S
C932 C934 1.389 . S
C933 H912 0.950 . S
C933 C932 1.373 . S
C933 C949 1.377 . S
C934 C932 1.389 . S
C934 C935 1.524 . S
C934 C948 1.377 . S
C935 C934 1.524 . S
C935 C936 1.397 . S
C935 C940 1.363 . S
C936 H913 0.950 . S
C936 C935 1.397 . S
C936 C937 1.334 . S
C937 H914 0.950 . S
C937 C936 1.334 . S
C937 C938 1.287 . S
C938 C937 1.287 . S
C938 C939 1.524 . S
C938 H957 0.913 . S
C939 H915 0.950 . S
C939 C938 1.524 . S
C939 C940 1.415 . S
C940 H916 0.950 . S
C940 C935 1.363 . S
C940 C939 1.415 . S
C941 H917 0.951 . S
C941 C942 1.366 . S
C941 C943 1.388 . S
C942 C941 1.366 . S
C942 C946 1.385 . S
C943 H918 0.951 . S
C943 C941 1.388 . S
C943 C944 1.366 . S
C944 C943 1.366 . S
C944 C945 1.414 . S
C944 C947 1.499 . S
C945 H919 0.950 . S
C945 C944 1.414 . S
C945 C946 1.374 . S
C946 H920 0.950 . S
C946 C942 1.385 . S
C946 C945 1.374 . S
C947 C944 1.499 . S
C947 C948 1.373 . S
C947 C949 1.389 . S
C948 H921 0.950 . S
C948 C934 1.377 . S
C948 C947 1.373 . S
C949 C933 1.377 . S
C949 C947 1.389 . S
C949 C950 1.524 . S
C950 C949 1.524 . S
C950 C951 1.397 . S
C950 C955 1.363 . S
C951 H922 0.950 . S
C951 C950 1.397 . S
C951 C952 1.334 . S
C952 H923 0.950 . S
C952 C951 1.334 . S
C952 C953 1.287 . S
C953 C952 1.287 . S
C953 C954 1.524 . S
C953 H956 0.999 . S
C954 H924 0.950 . S
C954 C953 1.524 . S
C954 C955 1.415 . S
C955 H925 0.950 . S
C955 C950 1.363 . S
C955 C954 1.415 . S
H956 C953 0.999 . S
H957 C938 0.913 . S
H958 C976 0.951 . S
H959 C978 0.951 . S
H960 C980 0.950 . S
H961 C981 0.950 . S
H962 C983 0.950 . S
H963 C986 0.950 . S
H964 C987 0.950 . S
H965 C989 0.950 . S
H966 C990 0.950 . S
H967 C991 0.951 1_545 S
H968 C993 0.952 . S
H969 C995 0.950 . S
H970 C996 0.950 . S
H971 C998 0.950 . S
H972 C1001 0.950 1_565 S
H973 C1002 0.950 . S
H974 C1004 0.950 . S
H975 C1005 0.950 . S
C976 H958 0.951 . S
C976 C977 1.366 . S
C976 C978 1.388 . S
C977 C976 1.366 . S
C977 C981 1.385 . S
C978 H959 0.951 . S
C978 C976 1.388 . S
C978 C979 1.366 . S
C979 C978 1.366 . S
C979 C980 1.414 . S
C979 C982 1.499 . S
C980 H960 0.950 . S
C980 C979 1.414 . S
C980 C981 1.374 . S
C981 H961 0.950 . S
C981 C977 1.385 . S
C981 C980 1.374 . S
C982 C979 1.499 . S
C982 C983 1.373 . S
C982 C984 1.389 . S
C983 H962 0.950 . S
C983 C982 1.373 . S
C983 C999 1.377 . S
C984 C982 1.389 . S
C984 C985 1.524 . S
C984 C998 1.377 . S
C985 C984 1.524 . S
C985 C986 1.397 . S
C985 C990 1.363 . S
C986 H963 0.950 . S
C986 C985 1.397 . S
C986 C987 1.334 . S
C987 H964 0.950 . S
C987 C986 1.334 . S
C987 C988 1.287 . S
C988 C987 1.287 . S
C988 C989 1.524 . S
C988 H1007 0.913 . S
C989 H965 0.950 . S
C989 C988 1.524 . S
C989 C990 1.415 . S
C990 H966 0.950 . S
C990 C985 1.363 . S
C990 C989 1.415 . S
C991 H967 0.951 1_565 S
C991 C992 1.366 . S
C991 C993 1.388 . S
C992 C991 1.366 . S
C992 C996 1.385 . S
C993 H968 0.952 . S
C993 C991 1.388 . S
C993 C994 1.366 . S
C994 C993 1.366 . S
C994 C995 1.414 . S
C994 C997 1.499 . S
C995 H969 0.950 . S
C995 C994 1.414 . S
C995 C996 1.374 . S
C996 H970 0.950 . S
C996 C992 1.385 . S
C996 C995 1.374 . S
C997 C994 1.499 . S
C997 C998 1.373 . S
C997 C999 1.389 . S
C998 H971 0.950 . S
C998 C984 1.377 . S
C998 C997 1.373 . S
C999 C983 1.377 . S
C999 C997 1.389 . S
C999 C1000 1.524 1_565 S
C1000 C999 1.524 1_545 S
C1000 C1001 1.397 . S
C1000 C1005 1.363 . S
C1001 H972 0.950 1_545 S
C1001 C1000 1.397 . S
C1001 C1002 1.334 . S
C1002 H973 0.950 . S
C1002 C1001 1.334 . S
C1002 C1003 1.287 . S
C1003 C1002 1.287 . S
C1003 C1004 1.524 . S
C1003 H1006 0.999 . S
C1004 H974 0.950 . S
C1004 C1003 1.524 . S
C1004 C1005 1.415 . S
C1005 H975 0.950 . S
C1005 C1000 1.363 . S
C1005 C1004 1.415 . S
H1006 C1003 0.999 . S
H1007 C988 0.913 . S
C442 C308 1.610 . S
C427 C211 1.607 . S
C477 C31 1.546 . S
C492 C380 1.601 . S
C527 C91 1.631 . S
C542 C296 1.610 . S
C577 C151 1.583 . S
C592 C392 1.601 . S
C642 C298 1.410 . S
C627 C20 1.528 . S
C692 C379 1.602 . S
C677 C61 1.566 . S
C727 C121 1.586 . S
C742 C295 1.598 . S
C777 C200 1.498 . S
C792 C382 1.396 . S
C842 C394 1.397 . S
C827 C80 1.515 . S
C892 C310 1.410 . S
C877 C140 1.552 . S
C942 C391 1.602 . S
C927 C181 1.539 . S
C977 C1 1.548 . S
C992 C307 1.598 . S
