# Generated by pormake.
# Topology cml, (3,6)-cn, num edge types: 1
# Building blocks:
#     Node 0, Type 0, BuildingBlock: INOVEN_clean_linker_0, # of connection points: 3
#     Node 1, Type 0, BuildingBlock: INOVEN_clean_linker_0, # of connection points: 3
#     Node 2, Type 0, BuildingBlock: INOVEN_clean_linker_0, # of connection points: 3
#     Node 3, Type 0, BuildingBlock: INOVEN_clean_linker_0, # of connection points: 3
#     Node 4, Type 0, BuildingBlock: INOVEN_clean_linker_0, # of connection points: 3
#     Node 5, Type 0, BuildingBlock: INOVEN_clean_linker_0, # of connection points: 3
#     Node 6, Type 0, BuildingBlock: INOVEN_clean_linker_0, # of connection points: 3
#     Node 7, Type 0, BuildingBlock: INOVEN_clean_linker_0, # of connection points: 3
#     Node 8, Type 1, BuildingBlock: OJICUG_clean_sbu_0, # of connection points: 6
#     Node 9, Type 1, BuildingBlock: OJICUG_clean_sbu_0, # of connection points: 6
#     Node 10, Type 1, BuildingBlock: OJICUG_clean_sbu_0, # of connection points: 6
#     Node 11, Type 1, BuildingBlock: OJICUG_clean_sbu_0, # of connection points: 6
#     Edge 12, Type (0, 1), BuildingBlock: KIFKEQ_clean_linker_1, # of connection points: 2
#     Edge 13, Type (0, 1), BuildingBlock: KIFKEQ_clean_linker_1, # of connection points: 2
#     Edge 14, Type (0, 1), BuildingBlock: KIFKEQ_clean_linker_1, # of connection points: 2
#     Edge 15, Type (0, 1), BuildingBlock: KIFKEQ_clean_linker_1, # of connection points: 2
#     Edge 16, Type (0, 1), BuildingBlock: KIFKEQ_clean_linker_1, # of connection points: 2
#     Edge 17, Type (0, 1), BuildingBlock: KIFKEQ_clean_linker_1, # of connection points: 2
#     Edge 18, Type (0, 1), BuildingBlock: KIFKEQ_clean_linker_1, # of connection points: 2
#     Edge 19, Type (0, 1), BuildingBlock: KIFKEQ_clean_linker_1, # of connection points: 2
#     Edge 20, Type (0, 1), BuildingBlock: KIFKEQ_clean_linker_1, # of connection points: 2
#     Edge 21, Type (0, 1), BuildingBlock: KIFKEQ_clean_linker_1, # of connection points: 2
#     Edge 22, Type (0, 1), BuildingBlock: KIFKEQ_clean_linker_1, # of connection points: 2
#     Edge 23, Type (0, 1), BuildingBlock: KIFKEQ_clean_linker_1, # of connection points: 2
#     Edge 24, Type (0, 1), BuildingBlock: KIFKEQ_clean_linker_1, # of connection points: 2
#     Edge 25, Type (0, 1), BuildingBlock: KIFKEQ_clean_linker_1, # of connection points: 2
#     Edge 26, Type (0, 1), BuildingBlock: KIFKEQ_clean_linker_1, # of connection points: 2
#     Edge 27, Type (0, 1), BuildingBlock: KIFKEQ_clean_linker_1, # of connection points: 2
#     Edge 28, Type (0, 1), BuildingBlock: KIFKEQ_clean_linker_1, # of connection points: 2
#     Edge 29, Type (0, 1), BuildingBlock: KIFKEQ_clean_linker_1, # of connection points: 2
#     Edge 30, Type (0, 1), BuildingBlock: KIFKEQ_clean_linker_1, # of connection points: 2
#     Edge 31, Type (0, 1), BuildingBlock: KIFKEQ_clean_linker_1, # of connection points: 2
#     Edge 32, Type (0, 1), BuildingBlock: KIFKEQ_clean_linker_1, # of connection points: 2
#     Edge 33, Type (0, 1), BuildingBlock: KIFKEQ_clean_linker_1, # of connection points: 2
#     Edge 34, Type (0, 1), BuildingBlock: KIFKEQ_clean_linker_1, # of connection points: 2
#     Edge 35, Type (0, 1), BuildingBlock: KIFKEQ_clean_linker_1, # of connection points: 2
# Relax obj value: 0.008
# Max RMSD: 0.051
# Mean RMSD: 0.043
data_MOF--net-cml--node1-OJICUG_clean_sbu_0--node2-INOVEN_clean_linker_0--edge1-KIFKEQ_clean_linker_1
_symmetry_space_group_name_H-M    P1
_symmetry_Int_Tables_number       1
_symmetry_cell_setting            triclinic
loop_
_symmetry_equiv_pos_as_xyz
'x, y, z'
_cell_length_a     41.187296
_cell_length_b     40.327757
_cell_length_c     36.274849
_cell_angle_alpha  89.180746
_cell_angle_beta   90.963336
_cell_angle_gamma 90.662145
loop_
_atom_site_label
_atom_site_type_symbol
_atom_site_fract_x
_atom_site_fract_y
_atom_site_fract_z
_atom_type_partial_charge
H0 H 0.29045 0.33929 0.04742 0.0
H1 H 0.35109 0.42574 0.03257 0.0
H2 H 0.27207 0.40681 0.95674 0.0
N3 N 0.25222 0.34957 0.99 0.0
N4 N 0.23392 0.35652 0.96335 0.0
C5 C 0.29637 0.36204 0.03261 0.0
C6 C 0.32294 0.38162 0.04398 0.0
C7 C 0.27791 0.37098 0.00135 0.0
C8 C 0.28601 0.39996 0.98121 0.0
C9 C 0.31242 0.41992 0.99243 0.0
C10 C 0.33046 0.41065 0.02398 0.0
H11 H 0.73396 0.65816 0.53866 0.0
H12 H 0.68009 0.56627 0.53151 0.0
H13 H 0.75253 0.58973 0.4515 0.0
N14 N 0.77109 0.64854 0.48145 0.0
N15 N 0.78894 0.64165 0.45525 0.0
C16 C 0.72915 0.63459 0.52553 0.0
C17 C 0.7046 0.61336 0.53884 0.0
C18 C 0.74691 0.62609 0.49443 0.0
C19 C 0.73976 0.59614 0.47623 0.0
C20 C 0.71576 0.57452 0.4898 0.0
C21 C 0.69882 0.583 0.52134 0.0
H22 H 0.74121 0.3455 0.04866 0.0
H23 H 0.66152 0.41182 0.03337 0.0
H24 H 0.73202 0.40227 0.94765 0.0
N25 N 0.76809 0.35581 0.98491 0.0
N26 N 0.77693 0.35623 0.95219 0.0
C27 C 0.72848 0.36384 0.03193 0.0
C28 C 0.6997 0.37734 0.04451 0.0
C29 C 0.74011 0.37239 -0.00299 0.0
C30 C 0.72321 0.39576 0.9748 0.0
C31 C 0.69458 0.41023 0.98768 0.0
C32 C 0.68322 0.40074 0.02266 0.0
H33 H 0.28061 0.57895 0.433 0.0
H34 H 0.33915 0.55599 0.52913 0.0
H35 H 0.2727 0.6371 0.53107 0.0
N36 N 0.24907 0.62861 0.46163 0.0
N37 N 0.23248 0.64898 0.47838 0.0
C38 C 0.28763 0.58369 0.4614 0.0
C39 C 0.31114 0.56399 0.47912 0.0
C40 C 0.27304 0.60949 0.4802 0.0
C41 C 0.28296 0.61643 0.51665 0.0
C42 C 0.30664 0.59704 0.53439 0.0
C43 C 0.32013 0.57044 0.51579 0.0
H44 H 0.77835 0.84475 0.03991 0.0
H45 H 0.83583 0.93398 0.02806 0.0
H46 H 0.76336 0.91 0.94622 0.0
N47 N 0.74245 0.85328 0.97998 0.0
N48 N 0.7307 0.85516 0.94812 0.0
C49 C 0.78415 0.86757 0.02519 0.0
C50 C 0.80957 0.88817 0.0378 0.0
C51 C 0.76726 0.87531 0.99235 0.0
C52 C 0.77571 0.90411 0.97206 0.0
C53 C 0.80015 0.92548 0.98532 0.0
C54 C 0.81653 0.91762 0.01831 0.0
H55 H 0.2284 0.15806 0.54774 0.0
H56 H 0.16747 0.0718 0.53369 0.0
H57 H 0.24611 0.09062 0.45965 0.0
N58 N 0.26618 0.14788 0.49168 0.0
N59 N 0.28423 0.14106 0.46567 0.0
C60 C 0.2223 0.13537 0.53339 0.0
C61 C 0.19582 0.11579 0.54463 0.0
C62 C 0.24051 0.12648 0.50288 0.0
C63 C 0.23226 0.09749 0.48342 0.0
C64 C 0.20589 0.07752 0.49447 0.0
C65 C 0.18806 0.08685 0.52521 0.0
H66 H 0.24103 0.84474 0.03551 0.0
H67 H 0.17801 0.92863 0.02711 0.0
H68 H 0.2374 0.90348 0.93532 0.0
N69 N 0.26706 0.85117 0.97058 0.0
N70 N 0.27608 0.85181 0.93793 0.0
C71 C 0.23147 0.86563 0.01981 0.0
C72 C 0.20835 0.88604 0.03545 0.0
C73 C 0.24246 0.87192 0.98404 0.0
C74 C 0.22944 0.89863 0.96322 0.0
C75 C 0.20647 0.91952 0.97902 0.0
C76 C 0.19641 0.9132 0.01521 0.0
H77 H 0.7759 0.06794 0.45334 0.0
H78 H 0.85486 0.07317 0.53217 0.0
H79 H 0.76919 0.13062 0.54793 0.0
N80 N 0.73967 0.1128 0.48382 0.0
N81 N 0.72207 0.13174 0.50128 0.0
C82 C 0.78609 0.07707 0.47907 0.0
C83 C 0.81719 0.0674 0.49076 0.0
C84 C 0.76871 0.09991 0.49937 0.0
C85 C 0.78217 0.11243 0.53235 0.0
C86 C 0.81339 0.10312 0.54401 0.0
C87 C 0.83075 0.0806 0.52312 0.0
Sc88 Sc 0.01366 0.81179 0.29709 0.0
Sc89 Sc 0.01483 0.89933 0.30023 0.0
Sc90 Sc 0.0148 0.85255 0.38261 0.0
O91 O 0.01442 0.85451 0.32661 0.0
C92 C 0.96534 0.79359 0.36254 0.0
C93 C 0.96515 0.85775 0.2502 0.0
C94 C 0.96695 0.91265 0.36632 0.0
C95 C 0.06236 0.8575 0.25062 0.0
C96 C 0.06261 0.79406 0.36335 0.0
C97 C 0.06438 0.91247 0.36682 0.0
O98 O 0.97579 0.78972 0.33009 0.0
O99 O 0.97673 0.88475 0.26273 0.0
O100 O 0.97741 0.88904 0.38664 0.0
O101 O 0.05157 0.82914 0.26067 0.0
O102 O 0.05204 0.81608 0.38458 0.0
O103 O 0.05312 0.91904 0.33477 0.0
O104 O 0.05098 0.78913 0.33117 0.0
O105 O 0.0512 0.88445 0.26257 0.0
O106 O 0.0529 0.88948 0.38728 0.0
O107 O 0.97605 0.82946 0.25975 0.0
O108 O 0.97721 0.81506 0.38444 0.0
O109 O 0.97838 0.91947 0.33478 0.0
Sc110 Sc 0.0054 0.19123 0.80754 0.0
Sc111 Sc -9e-05 0.1041 0.81056 0.0
Sc112 Sc 0.00382 0.14843 0.89339 0.0
O113 O 0.0031 0.14798 0.8372 0.0
C114 C 0.05516 0.20577 0.87382 0.0
C115 C 0.04966 0.14467 0.75988 0.0
C116 C 0.04985 0.08709 0.87615 0.0
C117 C 0.95275 0.14935 0.76171 0.0
C118 C 0.95817 0.21001 0.87293 0.0
C119 C 0.95187 0.09097 0.87734 0.0
O120 O 0.04426 0.21077 0.84127 0.0
O121 O 0.03636 0.11803 0.77151 0.0
O122 O 0.0398 0.10955 0.89742 0.0
O123 O 0.96661 0.1766 0.77017 0.0
O124 O 0.96798 0.18722 0.89496 0.0
O125 O 0.96249 0.08487 0.84557 0.0
O126 O 0.96956 0.21435 0.84083 0.0
O127 O 0.96184 0.12145 0.77456 0.0
O128 O 0.9644 0.11301 0.89802 0.0
O129 O 0.04164 0.17315 0.77089 0.0
O130 O 0.04304 0.18422 0.89569 0.0
O131 O 0.03783 0.0824 0.84411 0.0
Sc132 Sc 0.51522 0.30295 0.314 0.0
Sc133 Sc 0.5223 0.39014 0.31393 0.0
Sc134 Sc 0.51741 0.34615 0.39809 0.0
O135 O 0.51834 0.34636 0.342 0.0
C136 C 0.46461 0.29007 0.37832 0.0
C137 C 0.47206 0.35037 0.26271 0.0
C138 C 0.47301 0.4081 0.37725 0.0
C139 C 0.56867 0.34355 0.26855 0.0
C140 C 0.56071 0.28318 0.38279 0.0
C141 C 0.57051 0.4026 0.38221 0.0
O142 O 0.47543 0.28476 0.34637 0.0
O143 O 0.48543 0.37687 0.27422 0.0
O144 O 0.48275 0.38537 0.39923 0.0
O145 O 0.55472 0.31655 0.2782 0.0
O146 O 0.55174 0.30683 0.40284 0.0
O147 O 0.56015 0.40871 0.3497 0.0
O148 O 0.54971 0.27857 0.35027 0.0
O149 O 0.55984 0.37178 0.27957 0.0
O150 O 0.55754 0.38083 0.40314 0.0
O151 O 0.47992 0.32178 0.27472 0.0
O152 O 0.47732 0.31125 0.40002 0.0
O153 O 0.48479 0.41289 0.34541 0.0
Sc154 Sc 0.50361 0.68382 0.79346 0.0
Sc155 Sc 0.50573 0.59659 0.80115 0.0
Sc156 Sc 0.50344 0.64445 0.8811 0.0
O157 O 0.50431 0.64169 0.82522 0.0
C158 C 0.55228 0.7031 0.85974 0.0
C159 C 0.55307 0.63937 0.74967 0.0
C160 C 0.55299 0.58457 0.86967 0.0
C161 C 0.45592 0.63529 0.74859 0.0
C162 C 0.45499 0.70293 0.8568 0.0
C163 C 0.45552 0.5838 0.86642 0.0
O164 O 0.54 0.70782 0.82766 0.0
O165 O 0.54182 0.61215 0.76237 0.0
O166 O 0.53946 0.60602 0.88956 0.0
O167 O 0.46673 0.66415 0.75622 0.0
O168 O 0.46703 0.68267 0.88034 0.0
O169 O 0.46937 0.57547 0.83693 0.0
O170 O 0.46515 0.70558 0.82402 0.0
O171 O 0.46739 0.609 0.76312 0.0
O172 O 0.46427 0.60896 0.88497 0.0
O173 O 0.54226 0.66742 0.75884 0.0
O174 O 0.54236 0.68051 0.88182 0.0
O175 O 0.54449 0.57949 0.83643 0.0
H176 H 0.22192 0.29371 0.98849 0.0
H177 H 0.18969 0.36948 0.9116 0.0
H178 H 0.17929 0.25638 0.96613 0.0
H179 H 0.14609 0.33255 0.88978 0.0
H180 H 0.09409 0.24705 0.83307 0.0
H181 H 0.13796 0.28288 0.85506 0.0
H182 H 0.12151 0.24862 0.96671 0.0
H183 H 0.07824 0.21201 0.94462 0.0
C184 C 0.20547 0.30246 0.96698 0.0
C185 C 0.20885 0.33451 0.95163 0.0
C186 C 0.18093 0.28113 0.95429 0.0
C187 C 0.15924 0.29145 0.92618 0.0
C188 C 0.16268 0.32362 0.91107 0.0
C189 C 0.18736 0.34485 0.92364 0.0
C190 C 0.09987 0.24705 0.86231 0.0
C191 C 0.08258 0.22668 0.88709 0.0
C192 C 0.12491 0.26778 0.87494 0.0
C193 C 0.13313 0.26879 0.91267 0.0
C194 C 0.11608 0.24815 0.93741 0.0
C195 C 0.09117 0.22724 0.92475 0.0
H196 H 0.83196 0.62873 0.40425 0.0
H197 H 0.79999 0.70542 0.4764 0.0
H198 H 0.87471 0.66577 0.38106 0.0
H199 H 0.8418 0.74291 0.45264 0.0
H200 H 0.94237 0.78745 0.43267 0.0
H201 H 0.89932 0.75095 0.45473 0.0
H202 H 0.88359 0.71471 0.34424 0.0
H203 H 0.92739 0.75055 0.32228 0.0
C204 C 0.83409 0.65364 0.41487 0.0
C205 C 0.81299 0.66413 0.44207 0.0
C206 C 0.85832 0.67494 0.4015 0.0
C207 C 0.86175 0.70736 0.41499 0.0
C208 C 0.84023 0.71795 0.44206 0.0
C209 C 0.81615 0.69655 0.45556 0.0
C210 C 0.92972 0.77177 0.413 0.0
C211 C 0.93846 0.77192 0.37568 0.0
C212 C 0.90486 0.75093 0.42565 0.0
C213 C 0.88792 0.72986 0.40129 0.0
C214 C 0.89644 0.73022 0.36389 0.0
C215 C 0.92147 0.75093 0.35125 0.0
H216 H 0.79416 0.3446 0.88334 0.0
H217 H 0.822 0.32658 -0.00306 0.0
H218 H 0.83856 0.30946 0.86351 0.0
H219 H 0.86685 0.29261 0.97752 0.0
H220 H 0.91918 0.20323 0.93315 0.0
H221 H 0.87605 0.23976 0.95197 0.0
H222 H 0.89601 0.30504 0.85935 0.0
H223 H 0.93838 0.26795 0.83984 0.0
C224 C 0.81012 0.33344 0.90393 0.0
C225 C 0.80451 0.33806 0.94144 0.0
C226 C 0.8356 0.31344 0.89271 0.0
C227 C 0.8562 0.2979 0.91894 0.0
C228 C 0.85108 0.3035 0.95657 0.0
C229 C 0.82548 0.32321 0.96772 0.0
C230 C 0.91443 0.22539 0.91682 0.0
C231 C 0.93229 0.23257 0.88496 0.0
C232 C 0.88977 0.2465 0.92774 0.0
C233 C 0.88253 0.27549 0.90726 0.0
C234 C 0.90053 0.28272 0.8755 0.0
C235 C 0.92501 0.26149 0.86443 0.0
H236 H 0.19122 0.68776 0.51121 0.0
H237 H 0.22058 0.65459 0.40444 0.0
H238 H 0.15 0.72286 0.48188 0.0
H239 H 0.18027 0.69047 0.37473 0.0
H240 H 0.08078 0.7331 0.33901 0.0
H241 H 0.12243 0.69712 0.36598 0.0
H242 H 0.14698 0.77254 0.44557 0.0
H243 H 0.10489 0.80784 0.41954 0.0
C244 C 0.18878 0.68823 0.48142 0.0
C245 C 0.20878 0.66867 0.46015 0.0
C246 C 0.16547 0.7084 0.46457 0.0
C247 C 0.16203 0.70964 0.42592 0.0
C248 C 0.18207 0.6898 0.40455 0.0
C249 C 0.20524 0.66939 0.42152 0.0
C250 C 0.09524 0.74199 0.36213 0.0
C251 C 0.08933 0.7731 0.37742 0.0
C252 C 0.11916 0.72145 0.3775 0.0
C253 C 0.13774 0.73183 0.4082 0.0
C254 C 0.13253 0.76345 0.42255 0.0
C255 C 0.1085 0.78376 0.40748 0.0
H256 H 0.71083 0.84771 0.87896 0.0
H257 H 0.69374 0.8137 0.99024 0.0
H258 H 0.66837 0.80994 0.85619 0.0
H259 H 0.65039 0.77717 0.96818 0.0
H260 H 0.59668 0.69153 0.91504 0.0
H261 H 0.64065 0.72785 0.93577 0.0
H262 H 0.61168 0.80144 0.85416 0.0
H263 H 0.56862 0.76443 0.83241 0.0
C264 C 0.69772 0.83222 0.89844 0.0
C265 C 0.70559 0.83335 0.93605 0.0
C266 C 0.6733 0.81078 0.88557 0.0
C267 C 0.65591 0.79039 0.91032 0.0
C268 C 0.66367 0.79193 0.9482 0.0
C269 C 0.68838 0.81304 0.96094 0.0
C270 C 0.59975 0.71545 0.90149 0.0
C271 C 0.57914 0.72512 0.87211 0.0
C272 C 0.62486 0.7364 0.91352 0.0
C273 C 0.62969 0.76772 0.8968 0.0
C274 C 0.60908 0.77731 0.86732 0.0
C275 C 0.58424 0.75616 0.85496 0.0
H276 H 0.29694 0.20358 0.48988 0.0
H277 H 0.32788 0.12832 0.41529 0.0
H278 H 0.33972 0.24078 0.46798 0.0
H279 H 0.37161 0.16508 0.39396 0.0
H280 H 0.42459 0.25002 0.3372 0.0
H281 H 0.38016 0.21488 0.35854 0.0
H282 H 0.39754 0.24816 0.46995 0.0
H283 H 0.4414 0.2841 0.44845 0.0
C284 C 0.31313 0.19492 0.46897 0.0
C285 C 0.30933 0.16304 0.45415 0.0
C286 C 0.33775 0.21617 0.45654 0.0
C287 C 0.35914 0.20595 0.4292 0.0
C288 C 0.35527 0.17396 0.41461 0.0
C289 C 0.3305 0.15282 0.42692 0.0
C290 C 0.41888 0.24997 0.36625 0.0
C291 C 0.43666 0.26984 0.39113 0.0
C292 C 0.39351 0.22963 0.37852 0.0
C293 C 0.38542 0.22848 0.41601 0.0
C294 C 0.40287 0.24871 0.44081 0.0
C295 C 0.42813 0.26925 0.4285 0.0
H296 H 0.29145 0.83941 0.86852 0.0
H297 H 0.31839 0.81718 0.98148 0.0
H298 H 0.33393 0.80241 0.84749 0.0
H299 H 0.36152 0.78164 0.96099 0.0
H300 H 0.41523 0.69471 0.91597 0.0
H301 H 0.37118 0.73014 0.93453 0.0
H302 H 0.39057 0.79626 0.84243 0.0
H303 H 0.43371 0.75998 0.82302 0.0
C304 C 0.30666 0.82672 0.88872 0.0
C305 C 0.30144 0.83087 0.9264 0.0
C306 C 0.33111 0.80571 0.87682 0.0
C307 C 0.35117 0.78876 0.90252 0.0
C308 C 0.34615 0.79353 0.94034 0.0
C309 C 0.32151 0.81414 0.95215 0.0
C310 C 0.41008 0.7168 0.89966 0.0
C311 C 0.42808 0.72453 0.86807 0.0
C312 C 0.38488 0.73728 0.91042 0.0
C313 C 0.37731 0.76632 0.89017 0.0
C314 C 0.39528 0.77392 0.85844 0.0
C315 C 0.42021 0.75319 0.84741 0.0
H316 H 0.67859 0.16718 0.53556 0.0
H317 H 0.70581 0.13312 0.42835 0.0
H318 H 0.6365 0.20175 0.50682 0.0
H319 H 0.66496 0.16844 0.39937 0.0
H320 H 0.57285 0.22021 0.35998 0.0
H321 H 0.60856 0.17961 0.38957 0.0
H322 H 0.63705 0.25192 0.47119 0.0
H323 H 0.60069 0.29194 0.44247 0.0
C324 C 0.67514 0.16687 0.5059 0.0
C325 C 0.6952 0.14769 0.48426 0.0
C326 C 0.65141 0.18682 0.48937 0.0
C327 C 0.64771 0.18821 0.45075 0.0
C328 C 0.66695 0.16774 0.42918 0.0
C329 C 0.69043 0.14757 0.44577 0.0
C330 C 0.58687 0.22743 0.38415 0.0
C331 C 0.58392 0.25924 0.39894 0.0
C332 C 0.60731 0.20417 0.40111 0.0
C333 C 0.6254 0.21241 0.43297 0.0
C334 C 0.62283 0.24446 0.44727 0.0
C335 C 0.60221 0.26753 0.43057 0.0
H336 H 0.33275 0.48046 0.01711 0.0
H337 H 0.31731 0.42485 0.91734 0.0
H338 H 0.36236 0.52265 0.9828 0.0
H339 H 0.34516 0.46831 0.88227 0.0
H340 H 0.44183 0.51927 0.84993 0.0
H341 H 0.4003 0.48349 0.87654 0.0
H342 H 0.36523 0.56583 0.93917 0.0
H343 H 0.40789 0.60121 0.91373 0.0
C344 C 0.33505 0.47767 0.98761 0.0
C345 C 0.32334 0.44896 0.9701 0.0
C346 C 0.35173 0.50212 0.96776 0.0
C347 C 0.3567 0.4987 0.92975 0.0
C348 C 0.34249 0.47135 0.91167 0.0
C349 C 0.32608 0.44665 0.93167 0.0
C350 C 0.42507 0.5298 0.86914 0.0
C351 C 0.42846 0.56292 0.88017 0.0
C352 C 0.40098 0.50934 0.88418 0.0
C353 C 0.37938 0.52166 0.91021 0.0
C354 C 0.38183 0.55529 0.91981 0.0
C355 C 0.40625 0.57561 0.90518 0.0
H356 H 0.71326 0.51086 0.51562 0.0
H357 H 0.69322 0.57153 0.41928 0.0
H358 H 0.68447 0.46424 0.48725 0.0
H359 H 0.66306 0.52578 0.39142 0.0
H360 H 0.61611 0.43649 0.3424 0.0
H361 H 0.6591 0.47299 0.36549 0.0
H362 H 0.6294 0.45155 0.47722 0.0
H363 H 0.58752 0.41396 0.4541 0.0
C364 C 0.7032 0.51388 0.488 0.0
C365 C 0.70534 0.54462 0.46954 0.0
C366 C 0.68638 0.48738 0.47189 0.0
C367 C 0.67079 0.49133 0.43731 0.0
C368 C 0.67493 0.52156 0.41789 0.0
C369 C 0.69222 0.54788 0.4338 0.0
C370 C 0.61904 0.43933 0.37193 0.0
C371 C 0.59821 0.42259 0.39644 0.0
C372 C 0.64364 0.46036 0.38518 0.0
C373 C 0.64769 0.46556 0.42324 0.0
C374 C 0.6275 0.44785 0.44776 0.0
C375 C 0.60322 0.42643 0.43451 0.0
H376 H 0.62869 0.41529 0.98031 0.0
H377 H 0.71815 0.46173 0.94459 0.0
H378 H 0.59792 0.4604 0.95215 0.0
H379 H 0.68672 0.50631 0.91463 0.0
H380 H 0.6009 0.55166 0.83445 0.0
H381 H 0.63804 0.51034 0.86094 0.0
H382 H 0.59828 0.52594 0.96848 0.0
H383 H 0.56158 0.5677 0.94236 0.0
C384 C 0.64186 0.43508 0.96639 0.0
C385 C 0.67602 0.43522 0.96548 0.0
C386 C 0.62415 0.46084 0.9502 0.0
C387 C 0.64004 0.48703 0.9319 0.0
C388 C 0.674 0.4864 0.92887 0.0
C389 C 0.6919 0.46079 0.94575 0.0
C390 C 0.60045 0.54665 0.86386 0.0
C391 C 0.57817 0.56281 0.88632 0.0
C392 C 0.62178 0.52314 0.87894 0.0
C393 C 0.62076 0.5149 0.9166 0.0
C394 C 0.59934 0.53182 0.93928 0.0
C395 C 0.57848 0.55579 0.92436 0.0
H396 H 0.34365 0.57174 0.41501 0.0
H397 H 0.31842 0.49917 0.49852 0.0
H398 H 0.38047 0.53241 0.38764 0.0
H399 H 0.35399 0.45909 0.47038 0.0
H400 H 0.45346 0.41747 0.44757 0.0
H401 H 0.4107 0.45302 0.46848 0.0
H402 H 0.38903 0.48231 0.35566 0.0
H403 H 0.433 0.44749 0.33478 0.0
C404 C 0.34533 0.54696 0.42677 0.0
C405 C 0.32853 0.5384 0.45891 0.0
C406 C 0.36634 0.52438 0.41111 0.0
C407 C 0.37061 0.49271 0.42714 0.0
C408 C 0.35199 0.48356 0.45792 0.0
C409 C 0.33142 0.50631 0.47387 0.0
C410 C 0.43954 0.4314 0.42716 0.0
C411 C 0.44669 0.42972 0.38952 0.0
C412 C 0.41475 0.4516 0.43913 0.0
C413 C 0.39612 0.47033 0.41374 0.0
C414 C 0.4031 0.46848 0.376 0.0
C415 C 0.42825 0.4485 0.36402 0.0
H416 H 0.82474 0.92525 0.91653 0.0
H417 H 0.80297 0.98989 0.00624 0.0
H418 H 0.85694 0.96922 0.88775 0.0
H419 H 0.83384 0.03473 0.9768 0.0
H420 H 0.93313 0.08106 0.94859 0.0
H421 H 0.88983 0.04495 0.9708 0.0
H422 H 0.86296 0.02124 0.85836 0.0
H423 H 0.90727 0.05629 0.83631 0.0
C424 C 0.82581 0.94941 0.92923 0.0
C425 C 0.81161 0.95432 0.96353 0.0
C426 C 0.84427 0.97468 0.91282 0.0
C427 C 0.84852 0.00546 0.93027 0.0
C428 C 0.83184 0.0111 0.96309 0.0
C429 C 0.81383 0.98565 0.97974 0.0
C430 C 0.9178 0.06835 0.92863 0.0
C431 C 0.92391 0.07118 0.89076 0.0
C432 C 0.89271 0.04782 0.94131 0.0
C433 C 0.87281 0.03003 0.91639 0.0
C434 C 0.87813 0.03403 0.87839 0.0
C435 C 0.90351 0.05419 0.86574 0.0
H436 H 0.2022 0.07142 0.41928 0.0
H437 H 0.18445 0.01744 0.52079 0.0
H438 H 0.17504 0.02751 0.38469 0.0
H439 H 0.15514 0.97505 0.48684 0.0
H440 H 0.10958 0.8958 0.41969 0.0
H441 H 0.15187 0.93125 0.44634 0.0
H442 H 0.12099 0.01196 0.37461 0.0
H443 H 0.08014 0.97593 0.34677 0.0
C444 C 0.19299 0.04994 0.43419 0.0
C445 C 0.19494 0.04827 0.47288 0.0
C446 C 0.17691 0.02497 0.4144 0.0
C447 C 0.1621 -0.00201 0.43291 0.0
C448 C 0.16621 0.99524 0.4714 0.0
C449 C 0.18268 0.01989 0.49105 0.0
C450 C 0.11214 0.92105 0.40943 0.0
C451 C 0.09135 0.93321 0.38142 0.0
C452 C 0.13632 0.94145 0.42477 0.0
C453 C 0.13981 0.97471 0.41299 0.0
C454 C 0.11958 0.98641 0.38408 0.0
C455 C 0.09586 0.96582 0.36827 0.0
H456 H 0.17235 0.91611 0.91416 0.0
H457 H 0.20456 0.98442 -0.00216 0.0
H458 H 0.13698 0.95858 0.88734 0.0
H459 H 0.17039 0.02752 0.97039 0.0
H460 H 0.07278 0.07734 0.94683 0.0
H461 H 0.11452 0.03904 0.9681 0.0
H462 H 0.13007 0.0096 0.85569 0.0
H463 H 0.08744 0.04697 0.83465 0.0
C464 C 0.17264 0.94063 0.92599 0.0
C465 C 0.19105 0.94705 0.95802 0.0
C466 C 0.15235 0.96503 0.91072 0.0
C467 C 0.15034 0.99648 0.927 0.0
C468 C 0.17057 0.0034 0.95765 0.0
C469 C 0.19047 0.97889 0.97314 0.0
C470 C 0.08521 0.06283 0.92663 0.0
C471 C 0.07653 0.0651 0.88908 0.0
C472 C 0.1094 0.04097 0.93878 0.0
C473 C 0.12584 0.02109 0.91364 0.0
C474 C 0.11764 0.02401 0.87596 0.0
C475 C 0.09322 0.04559 0.86387 0.0
H476 H 0.87804 0.07783 0.46553 0.0
H477 H 0.79934 0.00619 0.46614 0.0
H478 H 0.91133 0.03938 0.4315 0.0
H479 H 0.83287 0.96739 0.43218 0.0
H480 H 0.92617 0.89942 0.42357 0.0
H481 H 0.88669 0.93671 0.44992 0.0
H482 H 0.91034 0.01132 0.36788 0.0
H483 H 0.94968 0.9742 0.34129 0.0
C484 C 0.86791 0.05385 0.45818 0.0
C485 C 0.83633 0.04474 0.46847 0.0
C486 C 0.88679 0.03202 0.43855 0.0
C487 C 0.87455 0.00054 0.42929 0.0
C488 C 0.84279 0.99154 0.43917 0.0
C489 C 0.82366 0.01366 0.45834 0.0
C490 C 0.92275 0.92366 0.41095 0.0
C491 C 0.94125 0.93398 0.38055 0.0
C492 C 0.9 0.94484 0.42586 0.0
C493 C 0.89569 0.97681 0.41093 0.0
C494 C 0.91345 0.98681 0.37996 0.0
C495 C 0.93586 0.96551 0.36474 0.0
H496 H 0.30393 0.35678 0.11128 0.0
H497 H 0.38897 0.38379 0.04885 0.0
H498 H 0.33864 0.34621 0.16578 0.0
H499 H 0.42308 0.37433 0.10332 0.0
H500 H 0.46054 0.40392 0.21811 0.0
H501 H 0.42307 0.40774 0.16576 0.0
H502 H 0.39016 0.30734 0.18646 0.0
H503 H 0.42815 0.30307 0.23913 0.0
C504 C 0.32996 0.36003 0.10906 0.0
C505 C 0.34367 0.37175 0.07601 0.0
C506 C 0.34972 0.35406 0.14018 0.0
C507 C 0.38332 0.36 0.13866 0.0
C508 C 0.39712 0.37017 0.10524 0.0
C509 C 0.37756 0.37574 0.07419 0.0
C510 C 0.44522 0.38265 0.21184 0.0
C511 C 0.44751 0.35309 0.23266 0.0
C512 C 0.42389 0.38485 0.18176 0.0
C513 C 0.40408 0.35773 0.17209 0.0
C514 C 0.4053 0.32854 0.19354 0.0
C515 C 0.42708 0.32611 0.22347 0.0
H516 H 0.63907 0.60605 0.5429 0.0
H517 H 0.7225 0.64265 0.60442 0.0
H518 H 0.60497 0.61464 0.59592 0.0
H519 H 0.6876 0.65232 0.65751 0.0
H520 H 0.59184 0.69019 0.72329 0.0
H521 H 0.63085 0.68759 0.67295 0.0
H522 H 0.61035 0.58305 0.66187 0.0
H523 H 0.57199 0.5852 0.71194 0.0
C524 C 0.65013 0.61604 0.56773 0.0
C525 C 0.68366 0.62289 0.56979 0.0
C526 C 0.63054 0.62112 0.59795 0.0
C527 C 0.64385 0.63368 0.63076 0.0
C528 C 0.67691 0.64255 0.63237 0.0
C529 C 0.69677 0.63708 0.60207 0.0
C530 C 0.59592 0.6666 0.71033 0.0
C531 C 0.57858 0.63796 0.72146 0.0
C532 C 0.61831 0.66515 0.68174 0.0
C533 C 0.62324 0.63519 0.66356 0.0
C534 C 0.60669 0.60648 0.67537 0.0
C535 C 0.58479 0.60777 0.70412 0.0
H536 H 0.72721 0.37975 0.1135 0.0
H537 H 0.64028 0.34989 0.05418 0.0
H538 H 0.70079 0.36602 0.17216 0.0
H539 H 0.6141 0.33583 0.11231 0.0
H540 H 0.58141 0.29401 0.22034 0.0
H541 H 0.61853 0.29664 0.16851 0.0
H542 H 0.65167 0.39358 0.20259 0.0
H543 H 0.6146 0.39116 0.25429 0.0
C544 C 0.70271 0.3697 0.11312 0.0
C545 C 0.68556 0.36603 0.07964 0.0
C546 C 0.68763 0.36194 0.14649 0.0
C547 C 0.6555 0.34977 0.14665 0.0
C548 C 0.63902 0.34475 0.11296 0.0
C549 C 0.65384 0.35303 0.07979 0.0
C550 C 0.59711 0.31557 0.21726 0.0
C551 C 0.59474 0.34259 0.24108 0.0
C552 C 0.61826 0.31708 0.18755 0.0
C553 C 0.63774 0.34539 0.1815 0.0
C554 C 0.63706 0.37138 0.20678 0.0
C555 C 0.61563 0.37008 0.23618 0.0
H556 H 0.30954 0.55846 0.59636 0.0
H557 H 0.33443 0.65567 0.55379 0.0
H558 H 0.33994 0.57005 0.65315 0.0
H559 H 0.36638 0.66689 0.60955 0.0
H560 H 0.41476 0.68306 0.72068 0.0
H561 H 0.3719 0.676 0.67388 0.0
H562 H 0.39569 0.57217 0.66646 0.0
H563 H 0.43711 0.57888 0.7137 0.0
C564 C 0.32123 0.58248 0.59953 0.0
C565 C 0.31992 0.60613 0.5709 0.0
C566 C 0.33888 0.58908 0.63181 0.0
C567 C 0.35626 0.61915 0.63565 0.0
C568 C 0.35317 0.64359 0.60776 0.0
C569 C 0.33497 0.63718 0.57575 0.0
C570 C 0.41057 0.65872 0.70916 0.0
C571 C 0.42939 0.63157 0.7209 0.0
C572 C 0.38607 0.65467 0.68231 0.0
C573 C 0.38013 0.62346 0.66647 0.0
C574 C 0.39886 0.59638 0.6786 0.0
C575 C 0.42296 0.60033 0.70557 0.0
H576 H 0.87532 0.8926 0.04243 0.0
H577 H 0.79159 0.8611 0.10474 0.0
H578 H 0.91012 0.88285 0.09619 0.0
H579 H 0.82719 0.85019 0.15864 0.0
H580 H 0.92534 0.80762 0.22436 0.0
H581 H 0.88475 0.81143 0.1741 0.0
H582 H 0.90561 0.91603 0.16201 0.0
H583 H 0.94554 0.9127 0.21196 0.0
C584 C 0.86433 0.88353 0.06761 0.0
C585 C 0.83057 0.87845 0.06966 0.0
C586 C 0.88431 0.87773 0.09822 0.0
C587 C 0.87114 0.86617 0.1314 0.0
C588 C 0.83773 0.85913 0.13316 0.0
C589 C 0.81749 0.86534 0.10243 0.0
C590 C 0.921 0.83147 0.21119 0.0
C591 C 0.93889 0.8598 0.22196 0.0
C592 C 0.89771 0.83361 0.1827 0.0
C593 C 0.8924 0.86396 0.16435 0.0
C594 C 0.9095 0.89235 0.17579 0.0
C595 C 0.93233 0.89036 0.20441 0.0
H596 H 0.21584 0.14034 0.61168 0.0
H597 H 0.12983 0.11338 0.54852 0.0
H598 H 0.18204 0.15032 0.66542 0.0
H599 H 0.09663 0.12221 0.6023 0.0
H600 H 0.06152 0.0913 0.71725 0.0
H601 H 0.0983 0.08811 0.66574 0.0
H602 H 0.13025 0.18885 0.68428 0.0
H603 H 0.09291 0.19249 0.73608 0.0
C604 C 0.18978 0.13698 0.60911 0.0
C605 C 0.17556 0.12544 0.57609 0.0
C606 C 0.17054 0.14261 0.63982 0.0
C607 C 0.13694 0.13649 0.63793 0.0
C608 C 0.12261 0.12651 0.60451 0.0
C609 C 0.14165 0.1213 0.57385 0.0
C610 C 0.07651 0.11276 0.71071 0.0
C611 C 0.07409 0.14225 0.73064 0.0
C612 C 0.09744 0.11093 0.6811 0.0
C613 C 0.11675 0.13834 0.67102 0.0
C614 C 0.11549 0.16744 0.69167 0.0
C615 C 0.09409 0.16949 0.72111 0.0
H616 H 0.20764 0.92582 0.09519 0.0
H617 H 0.17799 0.82909 0.05725 0.0
H618 H 0.1778 0.91654 0.15201 0.0
H619 H 0.14661 0.82019 0.11312 0.0
H620 H 0.1011 0.80775 0.22538 0.0
H621 H 0.14261 0.81232 0.17809 0.0
H622 H 0.12233 0.91685 0.16512 0.0
H623 H 0.08227 0.91259 0.21279 0.0
C624 C 0.19495 0.90241 0.09936 0.0
C625 C 0.19484 0.87823 0.072 0.0
C626 C 0.17763 0.89714 0.13168 0.0
C627 C 0.15917 0.86789 0.13687 0.0
C628 C 0.16068 0.8429 0.11027 0.0
C629 C 0.17854 0.84797 0.0782 0.0
C630 C 0.10579 0.83172 0.21257 0.0
C631 C 0.08832 0.85977 0.22289 0.0
C632 C 0.1295 0.83433 0.18541 0.0
C633 C 0.13602 0.865 0.16785 0.0
C634 C 0.11869 0.89299 0.17857 0.0
C635 C 0.09536 0.89046 0.20581 0.0
H636 H 0.8724 0.13332 0.54923 0.0
H637 H 0.7888 0.10536 0.61328 0.0
H638 H 0.90077 0.15145 0.60511 0.0
H639 H 0.81727 0.12356 0.66955 0.0
H640 H 0.93943 0.19664 0.70892 0.0
H641 H 0.90014 0.19228 0.65783 0.0
H642 H 0.86666 0.09793 0.7013 0.0
H643 H 0.90572 0.10215 0.75216 0.0
C644 C 0.86 0.13152 0.57531 0.0
C645 C 0.82867 0.11764 0.57722 0.0
C646 C 0.87605 0.1422 0.60718 0.0
C647 C 0.86118 0.13886 0.6416 0.0
C648 C 0.82925 0.12629 0.64331 0.0
C649 C 0.813 0.11599 0.61126 0.0
C650 C 0.9232 0.17533 0.70796 0.0
C651 C 0.92596 0.1495 0.73418 0.0
C652 C 0.90082 0.17282 0.67871 0.0
C653 C 0.88055 0.14471 0.6756 0.0
C654 C 0.88182 0.12 0.7032 0.0
C655 C 0.90441 0.12228 0.73211 0.0
loop_
_geom_bond_atom_site_label_1
_geom_bond_atom_site_label_2
_geom_bond_distance
_geom_bond_site_symmetry_2
_ccdc_geom_bond_type
H0 C5 0.929 . S
H1 C10 0.931 . S
H2 C8 0.930 . S
N3 N4 1.245 . S
N3 C7 1.450 1_556 S
N4 N3 1.245 . S
C5 H0 0.929 . S
C5 C6 1.373 . S
C5 C7 1.368 . S
C6 C5 1.373 . S
C6 C10 1.397 . S
C7 N3 1.450 1_554 S
C7 C5 1.368 . S
C7 C8 1.373 1_554 S
C8 H2 0.930 . S
C8 C7 1.373 1_556 S
C8 C9 1.371 . S
C9 C8 1.371 . S
C9 C10 1.383 1_556 S
C10 H1 0.931 . S
C10 C6 1.397 . S
C10 C9 1.383 1_554 S
H11 C16 0.929 . S
H12 C21 0.931 . S
H13 C19 0.930 . S
N14 N15 1.234 . S
N14 C18 1.453 . S
N15 N14 1.234 . S
C16 H11 0.929 . S
C16 C17 1.373 . S
C16 C18 1.368 . S
C17 C16 1.373 . S
C17 C21 1.397 . S
C18 N14 1.453 . S
C18 C16 1.368 . S
C18 C19 1.373 . S
C19 H13 0.930 . S
C19 C18 1.373 . S
C19 C20 1.371 . S
C20 C19 1.371 . S
C20 C21 1.383 . S
C21 H12 0.931 . S
C21 C17 1.397 . S
C21 C20 1.383 . S
H22 C27 0.929 . S
H23 C32 0.931 . S
H24 C30 0.930 . S
N25 N26 1.234 1_554 S
N25 C29 1.453 . S
N26 N25 1.234 1_556 S
C27 H22 0.929 . S
C27 C28 1.373 . S
C27 C29 1.368 . S
C28 C27 1.373 . S
C28 C32 1.397 . S
C29 N25 1.453 . S
C29 C27 1.368 . S
C29 C30 1.373 1_554 S
C30 H24 0.930 . S
C30 C29 1.373 1_556 S
C30 C31 1.371 . S
C31 C30 1.371 . S
C31 C32 1.383 1_556 S
C32 H23 0.931 . S
C32 C28 1.397 . S
C32 C31 1.383 1_554 S
H33 C38 0.929 . S
H34 C43 0.931 . S
H35 C41 0.930 . S
N36 N37 1.234 . S
N36 C40 1.453 . S
N37 N36 1.234 . S
C38 H33 0.929 . S
C38 C39 1.373 . S
C38 C40 1.368 . S
C39 C38 1.373 . S
C39 C43 1.397 . S
C40 N36 1.453 . S
C40 C38 1.368 . S
C40 C41 1.373 . S
C41 H35 0.930 . S
C41 C40 1.373 . S
C41 C42 1.371 . S
C42 C41 1.371 . S
C42 C43 1.383 . S
C43 H34 0.931 . S
C43 C39 1.397 . S
C43 C42 1.383 . S
H44 C49 0.929 . S
H45 C54 0.931 . S
H46 C52 0.930 . S
N47 N48 1.245 . S
N47 C51 1.450 1_556 S
N48 N47 1.245 . S
C49 H44 0.929 . S
C49 C50 1.373 . S
C49 C51 1.368 . S
C50 C49 1.373 . S
C50 C54 1.397 . S
C51 N47 1.450 1_554 S
C51 C49 1.368 . S
C51 C52 1.373 1_554 S
C52 H46 0.930 . S
C52 C51 1.373 1_556 S
C52 C53 1.371 . S
C53 C52 1.371 . S
C53 C54 1.383 1_556 S
C54 H45 0.931 . S
C54 C50 1.397 . S
C54 C53 1.383 1_554 S
H55 C60 0.929 . S
H56 C65 0.931 . S
H57 C63 0.930 . S
N58 N59 1.234 . S
N58 C62 1.453 . S
N59 N58 1.234 . S
C60 H55 0.929 . S
C60 C61 1.373 . S
C60 C62 1.368 . S
C61 C60 1.373 . S
C61 C65 1.397 . S
C62 N58 1.453 . S
C62 C60 1.368 . S
C62 C63 1.373 . S
C63 H57 0.930 . S
C63 C62 1.373 . S
C63 C64 1.371 . S
C64 C63 1.371 . S
C64 C65 1.383 . S
C65 H56 0.931 . S
C65 C61 1.397 . S
C65 C64 1.383 . S
H66 C71 0.929 . S
H67 C76 0.931 . S
H68 C74 0.930 . S
N69 N70 1.234 1_554 S
N69 C73 1.453 . S
N70 N69 1.234 1_556 S
C71 H66 0.929 . S
C71 C72 1.373 . S
C71 C73 1.368 . S
C72 C71 1.373 . S
C72 C76 1.397 . S
C73 N69 1.453 . S
C73 C71 1.368 . S
C73 C74 1.373 1_554 S
C74 H68 0.930 . S
C74 C73 1.373 1_556 S
C74 C75 1.371 . S
C75 C74 1.371 . S
C75 C76 1.383 1_556 S
C76 H67 0.931 . S
C76 C72 1.397 . S
C76 C75 1.383 1_554 S
H77 C82 0.929 . S
H78 C87 0.931 . S
H79 C85 0.930 . S
N80 N81 1.234 . S
N80 C84 1.453 . S
N81 N80 1.234 . S
C82 H77 0.929 . S
C82 C83 1.373 . S
C82 C84 1.368 . S
C83 C82 1.373 . S
C83 C87 1.397 . S
C84 N80 1.453 . S
C84 C82 1.368 . S
C84 C85 1.373 . S
C85 H79 0.930 . S
C85 C84 1.373 . S
C85 C86 1.371 . S
C86 C85 1.371 . S
C86 C87 1.383 . S
C87 H78 0.931 . S
C87 C83 1.397 . S
C87 C86 1.383 . S
Sc88 O91 2.025 . S
Sc88 O98 2.105 1_455 S
Sc88 O101 2.105 . S
Sc88 O104 2.105 . S
Sc88 O107 2.105 1_455 S
Sc89 O91 2.025 . S
Sc89 O99 2.105 1_455 S
Sc89 O103 2.105 . S
Sc89 O105 2.105 . S
Sc89 O109 2.105 1_455 S
Sc90 O91 2.025 . S
Sc90 O100 2.105 1_455 S
Sc90 O102 2.105 . S
Sc90 O106 2.105 . S
Sc90 O108 2.105 1_455 S
O91 Sc88 2.025 . S
O91 Sc89 2.025 . S
O91 Sc90 2.025 . S
C92 O98 1.268 . S
C92 O108 1.268 . S
C93 O99 1.268 . S
C93 O107 1.268 . S
C94 O100 1.268 . S
C94 O109 1.268 . S
C95 O101 1.268 . S
C95 O105 1.268 . S
C96 O102 1.268 . S
C96 O104 1.268 . S
C97 O103 1.268 . S
C97 O106 1.268 . S
O98 Sc88 2.105 1_655 S
O98 C92 1.268 . S
O99 Sc89 2.105 1_655 S
O99 C93 1.268 . S
O100 Sc90 2.105 1_655 S
O100 C94 1.268 . S
O101 Sc88 2.105 . S
O101 C95 1.268 . S
O102 Sc90 2.105 . S
O102 C96 1.268 . S
O103 Sc89 2.105 . S
O103 C97 1.268 . S
O104 Sc88 2.105 . S
O104 C96 1.268 . S
O105 Sc89 2.105 . S
O105 C95 1.268 . S
O106 Sc90 2.105 . S
O106 C97 1.268 . S
O107 Sc88 2.105 1_655 S
O107 C93 1.268 . S
O108 Sc90 2.105 1_655 S
O108 C92 1.268 . S
O109 Sc89 2.105 1_655 S
O109 C94 1.268 . S
Sc110 O113 2.025 . S
Sc110 O120 2.105 . S
Sc110 O123 2.105 1_455 S
Sc110 O126 2.105 1_455 S
Sc110 O129 2.105 . S
Sc111 O113 2.025 . S
Sc111 O121 2.105 . S
Sc111 O125 2.105 1_455 S
Sc111 O127 2.105 1_455 S
Sc111 O131 2.105 . S
Sc112 O113 2.025 . S
Sc112 O122 2.105 . S
Sc112 O124 2.105 1_455 S
Sc112 O128 2.105 1_455 S
Sc112 O130 2.105 . S
O113 Sc110 2.025 . S
O113 Sc111 2.025 . S
O113 Sc112 2.025 . S
C114 O120 1.268 . S
C114 O130 1.268 . S
C115 O121 1.268 . S
C115 O129 1.268 . S
C116 O122 1.268 . S
C116 O131 1.268 . S
C117 O123 1.268 . S
C117 O127 1.268 . S
C118 O124 1.268 . S
C118 O126 1.268 . S
C119 O125 1.268 . S
C119 O128 1.268 . S
O120 Sc110 2.105 . S
O120 C114 1.268 . S
O121 Sc111 2.105 . S
O121 C115 1.268 . S
O122 Sc112 2.105 . S
O122 C116 1.268 . S
O123 Sc110 2.105 1_655 S
O123 C117 1.268 . S
O124 Sc112 2.105 1_655 S
O124 C118 1.268 . S
O125 Sc111 2.105 1_655 S
O125 C119 1.268 . S
O126 Sc110 2.105 1_655 S
O126 C118 1.268 . S
O127 Sc111 2.105 1_655 S
O127 C117 1.268 . S
O128 Sc112 2.105 1_655 S
O128 C119 1.268 . S
O129 Sc110 2.105 . S
O129 C115 1.268 . S
O130 Sc112 2.105 . S
O130 C114 1.268 . S
O131 Sc111 2.105 . S
O131 C116 1.268 . S
Sc132 O135 2.025 . S
Sc132 O142 2.105 . S
Sc132 O145 2.105 . S
Sc132 O148 2.105 . S
Sc132 O151 2.105 . S
Sc133 O135 2.025 . S
Sc133 O143 2.105 . S
Sc133 O147 2.105 . S
Sc133 O149 2.105 . S
Sc133 O153 2.105 . S
Sc134 O135 2.025 . S
Sc134 O144 2.105 . S
Sc134 O146 2.105 . S
Sc134 O150 2.105 . S
Sc134 O152 2.105 . S
O135 Sc132 2.025 . S
O135 Sc133 2.025 . S
O135 Sc134 2.025 . S
C136 O142 1.268 . S
C136 O152 1.268 . S
C137 O143 1.268 . S
C137 O151 1.268 . S
C138 O144 1.268 . S
C138 O153 1.268 . S
C139 O145 1.268 . S
C139 O149 1.268 . S
C140 O146 1.268 . S
C140 O148 1.268 . S
C141 O147 1.268 . S
C141 O150 1.268 . S
O142 Sc132 2.105 . S
O142 C136 1.268 . S
O143 Sc133 2.105 . S
O143 C137 1.268 . S
O144 Sc134 2.105 . S
O144 C138 1.268 . S
O145 Sc132 2.105 . S
O145 C139 1.268 . S
O146 Sc134 2.105 . S
O146 C140 1.268 . S
O147 Sc133 2.105 . S
O147 C141 1.268 . S
O148 Sc132 2.105 . S
O148 C140 1.268 . S
O149 Sc133 2.105 . S
O149 C139 1.268 . S
O150 Sc134 2.105 . S
O150 C141 1.268 . S
O151 Sc132 2.105 . S
O151 C137 1.268 . S
O152 Sc134 2.105 . S
O152 C136 1.268 . S
O153 Sc133 2.105 . S
O153 C138 1.268 . S
Sc154 O157 2.025 . S
Sc154 O164 2.105 . S
Sc154 O167 2.105 . S
Sc154 O170 2.105 . S
Sc154 O173 2.105 . S
Sc155 O157 2.025 . S
Sc155 O165 2.105 . S
Sc155 O169 2.105 . S
Sc155 O171 2.105 . S
Sc155 O175 2.105 . S
Sc156 O157 2.025 . S
Sc156 O166 2.105 . S
Sc156 O168 2.105 . S
Sc156 O172 2.105 . S
Sc156 O174 2.105 . S
O157 Sc154 2.025 . S
O157 Sc155 2.025 . S
O157 Sc156 2.025 . S
C158 O164 1.268 . S
C158 O174 1.268 . S
C159 O165 1.268 . S
C159 O173 1.268 . S
C160 O166 1.268 . S
C160 O175 1.268 . S
C161 O167 1.268 . S
C161 O171 1.268 . S
C162 O168 1.268 . S
C162 O170 1.268 . S
C163 O169 1.268 . S
C163 O172 1.268 . S
O164 Sc154 2.105 . S
O164 C158 1.268 . S
O165 Sc155 2.105 . S
O165 C159 1.268 . S
O166 Sc156 2.105 . S
O166 C160 1.268 . S
O167 Sc154 2.105 . S
O167 C161 1.268 . S
O168 Sc156 2.105 . S
O168 C162 1.268 . S
O169 Sc155 2.105 . S
O169 C163 1.268 . S
O170 Sc154 2.105 . S
O170 C162 1.268 . S
O171 Sc155 2.105 . S
O171 C161 1.268 . S
O172 Sc156 2.105 . S
O172 C163 1.268 . S
O173 Sc154 2.105 . S
O173 C159 1.268 . S
O174 Sc156 2.105 . S
O174 C158 1.268 . S
O175 Sc155 2.105 . S
O175 C160 1.268 . S
H176 C184 0.950 . S
H177 C189 0.950 . S
H178 C186 0.950 . S
H179 C188 0.950 . S
H180 C190 0.950 . S
H181 C192 0.950 . S
H182 C194 0.950 . S
H183 C195 0.950 . S
C184 H176 0.950 . S
C184 C185 1.386 . S
C184 C186 1.391 . S
C185 C184 1.386 . S
C185 C189 1.393 . S
C186 H178 0.950 . S
C186 C184 1.391 . S
C186 C187 1.400 . S
C187 C186 1.400 . S
C187 C188 1.398 . S
C187 C193 1.491 . S
C188 H179 0.950 . S
C188 C187 1.398 . S
C188 C189 1.391 . S
C189 H177 0.950 . S
C189 C185 1.393 . S
C189 C188 1.391 . S
C190 H180 0.950 . S
C190 C191 1.386 . S
C190 C192 1.391 . S
C191 C190 1.386 . S
C191 C195 1.393 . S
C192 H181 0.950 . S
C192 C190 1.391 . S
C192 C193 1.400 . S
C193 C187 1.491 . S
C193 C192 1.400 . S
C193 C194 1.398 . S
C194 H182 0.950 . S
C194 C193 1.398 . S
C194 C195 1.391 . S
C195 H183 0.950 . S
C195 C191 1.393 . S
C195 C194 1.391 . S
H196 C204 0.950 . S
H197 C209 0.950 . S
H198 C206 0.950 . S
H199 C208 0.950 . S
H200 C210 0.950 . S
H201 C212 0.950 . S
H202 C214 0.950 . S
H203 C215 0.950 . S
C204 H196 0.950 . S
C204 C205 1.386 . S
C204 C206 1.391 . S
C205 C204 1.386 . S
C205 C209 1.393 . S
C206 H198 0.950 . S
C206 C204 1.391 . S
C206 C207 1.400 . S
C207 C206 1.400 . S
C207 C208 1.398 . S
C207 C213 1.491 . S
C208 H199 0.950 . S
C208 C207 1.398 . S
C208 C209 1.391 . S
C209 H197 0.950 . S
C209 C205 1.393 . S
C209 C208 1.391 . S
C210 H200 0.950 . S
C210 C211 1.386 . S
C210 C212 1.391 . S
C211 C210 1.386 . S
C211 C215 1.393 . S
C212 H201 0.950 . S
C212 C210 1.391 . S
C212 C213 1.400 . S
C213 C207 1.491 . S
C213 C212 1.400 . S
C213 C214 1.398 . S
C214 H202 0.950 . S
C214 C213 1.398 . S
C214 C215 1.391 . S
C215 H203 0.950 . S
C215 C211 1.393 . S
C215 C214 1.391 . S
H216 C224 0.950 . S
H217 C229 0.950 . S
H218 C226 0.950 . S
H219 C228 0.950 . S
H220 C230 0.950 . S
H221 C232 0.950 . S
H222 C234 0.950 . S
H223 C235 0.950 . S
C224 H216 0.950 . S
C224 C225 1.386 . S
C224 C226 1.391 . S
C225 C224 1.386 . S
C225 C229 1.393 . S
C226 H218 0.950 . S
C226 C224 1.391 . S
C226 C227 1.400 . S
C227 C226 1.400 . S
C227 C228 1.398 . S
C227 C233 1.491 . S
C228 H219 0.950 . S
C228 C227 1.398 . S
C228 C229 1.391 . S
C229 H217 0.950 . S
C229 C225 1.393 . S
C229 C228 1.391 . S
C230 H220 0.950 . S
C230 C231 1.386 . S
C230 C232 1.391 . S
C231 C230 1.386 . S
C231 C235 1.393 . S
C232 H221 0.950 . S
C232 C230 1.391 . S
C232 C233 1.400 . S
C233 C227 1.491 . S
C233 C232 1.400 . S
C233 C234 1.398 . S
C234 H222 0.950 . S
C234 C233 1.398 . S
C234 C235 1.391 . S
C235 H223 0.950 . S
C235 C231 1.393 . S
C235 C234 1.391 . S
H236 C244 0.950 . S
H237 C249 0.950 . S
H238 C246 0.950 . S
H239 C248 0.950 . S
H240 C250 0.950 . S
H241 C252 0.950 . S
H242 C254 0.950 . S
H243 C255 0.950 . S
C244 H236 0.950 . S
C244 C245 1.386 . S
C244 C246 1.391 . S
C245 C244 1.386 . S
C245 C249 1.393 . S
C246 H238 0.950 . S
C246 C244 1.391 . S
C246 C247 1.400 . S
C247 C246 1.400 . S
C247 C248 1.398 . S
C247 C253 1.491 . S
C248 H239 0.950 . S
C248 C247 1.398 . S
C248 C249 1.391 . S
C249 H237 0.950 . S
C249 C245 1.393 . S
C249 C248 1.391 . S
C250 H240 0.950 . S
C250 C251 1.386 . S
C250 C252 1.391 . S
C251 C250 1.386 . S
C251 C255 1.393 . S
C252 H241 0.950 . S
C252 C250 1.391 . S
C252 C253 1.400 . S
C253 C247 1.491 . S
C253 C252 1.400 . S
C253 C254 1.398 . S
C254 H242 0.950 . S
C254 C253 1.398 . S
C254 C255 1.391 . S
C255 H243 0.950 . S
C255 C251 1.393 . S
C255 C254 1.391 . S
H256 C264 0.950 . S
H257 C269 0.950 . S
H258 C266 0.950 . S
H259 C268 0.950 . S
H260 C270 0.950 . S
H261 C272 0.950 . S
H262 C274 0.950 . S
H263 C275 0.950 . S
C264 H256 0.950 . S
C264 C265 1.386 . S
C264 C266 1.391 . S
C265 C264 1.386 . S
C265 C269 1.393 . S
C266 H258 0.950 . S
C266 C264 1.391 . S
C266 C267 1.400 . S
C267 C266 1.400 . S
C267 C268 1.398 . S
C267 C273 1.491 . S
C268 H259 0.950 . S
C268 C267 1.398 . S
C268 C269 1.391 . S
C269 H257 0.950 . S
C269 C265 1.393 . S
C269 C268 1.391 . S
C270 H260 0.950 . S
C270 C271 1.386 . S
C270 C272 1.391 . S
C271 C270 1.386 . S
C271 C275 1.393 . S
C272 H261 0.950 . S
C272 C270 1.391 . S
C272 C273 1.400 . S
C273 C267 1.491 . S
C273 C272 1.400 . S
C273 C274 1.398 . S
C274 H262 0.950 . S
C274 C273 1.398 . S
C274 C275 1.391 . S
C275 H263 0.950 . S
C275 C271 1.393 . S
C275 C274 1.391 . S
H276 C284 0.950 . S
H277 C289 0.950 . S
H278 C286 0.950 . S
H279 C288 0.950 . S
H280 C290 0.950 . S
H281 C292 0.950 . S
H282 C294 0.950 . S
H283 C295 0.950 . S
C284 H276 0.950 . S
C284 C285 1.386 . S
C284 C286 1.391 . S
C285 C284 1.386 . S
C285 C289 1.393 . S
C286 H278 0.950 . S
C286 C284 1.391 . S
C286 C287 1.400 . S
C287 C286 1.400 . S
C287 C288 1.398 . S
C287 C293 1.491 . S
C288 H279 0.950 . S
C288 C287 1.398 . S
C288 C289 1.391 . S
C289 H277 0.950 . S
C289 C285 1.393 . S
C289 C288 1.391 . S
C290 H280 0.950 . S
C290 C291 1.386 . S
C290 C292 1.391 . S
C291 C290 1.386 . S
C291 C295 1.393 . S
C292 H281 0.950 . S
C292 C290 1.391 . S
C292 C293 1.400 . S
C293 C287 1.491 . S
C293 C292 1.400 . S
C293 C294 1.398 . S
C294 H282 0.950 . S
C294 C293 1.398 . S
C294 C295 1.391 . S
C295 H283 0.950 . S
C295 C291 1.393 . S
C295 C294 1.391 . S
H296 C304 0.950 . S
H297 C309 0.950 1_554 S
H298 C306 0.950 . S
H299 C308 0.950 . S
H300 C310 0.950 . S
H301 C312 0.950 . S
H302 C314 0.950 . S
H303 C315 0.950 . S
C304 H296 0.950 . S
C304 C305 1.386 . S
C304 C306 1.391 . S
C305 C304 1.386 . S
C305 C309 1.393 . S
C306 H298 0.950 . S
C306 C304 1.391 . S
C306 C307 1.400 . S
C307 C306 1.400 . S
C307 C308 1.398 . S
C307 C313 1.491 . S
C308 H299 0.950 . S
C308 C307 1.398 . S
C308 C309 1.391 . S
C309 H297 0.950 1_556 S
C309 C305 1.393 . S
C309 C308 1.391 . S
C310 H300 0.950 . S
C310 C311 1.386 . S
C310 C312 1.391 . S
C311 C310 1.386 . S
C311 C315 1.393 . S
C312 H301 0.950 . S
C312 C310 1.391 . S
C312 C313 1.400 . S
C313 C307 1.491 . S
C313 C312 1.400 . S
C313 C314 1.398 . S
C314 H302 0.950 . S
C314 C313 1.398 . S
C314 C315 1.391 . S
C315 H303 0.950 . S
C315 C311 1.393 . S
C315 C314 1.391 . S
H316 C324 0.950 . S
H317 C329 0.950 . S
H318 C326 0.950 . S
H319 C328 0.950 . S
H320 C330 0.950 . S
H321 C332 0.950 . S
H322 C334 0.950 . S
H323 C335 0.950 . S
C324 H316 0.950 . S
C324 C325 1.386 . S
C324 C326 1.391 . S
C325 C324 1.386 . S
C325 C329 1.393 . S
C326 H318 0.950 . S
C326 C324 1.391 . S
C326 C327 1.400 . S
C327 C326 1.400 . S
C327 C328 1.398 . S
C327 C333 1.491 . S
C328 H319 0.950 . S
C328 C327 1.398 . S
C328 C329 1.391 . S
C329 H317 0.950 . S
C329 C325 1.393 . S
C329 C328 1.391 . S
C330 H320 0.950 . S
C330 C331 1.386 . S
C330 C332 1.391 . S
C331 C330 1.386 . S
C331 C335 1.393 . S
C332 H321 0.950 . S
C332 C330 1.391 . S
C332 C333 1.400 . S
C333 C327 1.491 . S
C333 C332 1.400 . S
C333 C334 1.398 . S
C334 H322 0.950 . S
C334 C333 1.398 . S
C334 C335 1.391 . S
C335 H323 0.950 . S
C335 C331 1.393 . S
C335 C334 1.391 . S
H336 C344 0.950 . S
H337 C349 0.950 . S
H338 C346 0.950 . S
H339 C348 0.950 . S
H340 C350 0.950 . S
H341 C352 0.950 . S
H342 C354 0.950 . S
H343 C355 0.950 . S
C344 H336 0.950 . S
C344 C345 1.386 . S
C344 C346 1.391 . S
C345 C344 1.386 . S
C345 C349 1.393 . S
C346 H338 0.950 . S
C346 C344 1.391 . S
C346 C347 1.400 . S
C347 C346 1.400 . S
C347 C348 1.398 . S
C347 C353 1.491 . S
C348 H339 0.950 . S
C348 C347 1.398 . S
C348 C349 1.391 . S
C349 H337 0.950 . S
C349 C345 1.393 . S
C349 C348 1.391 . S
C350 H340 0.950 . S
C350 C351 1.386 . S
C350 C352 1.391 . S
C351 C350 1.386 . S
C351 C355 1.393 . S
C352 H341 0.950 . S
C352 C350 1.391 . S
C352 C353 1.400 . S
C353 C347 1.491 . S
C353 C352 1.400 . S
C353 C354 1.398 . S
C354 H342 0.950 . S
C354 C353 1.398 . S
C354 C355 1.391 . S
C355 H343 0.950 . S
C355 C351 1.393 . S
C355 C354 1.391 . S
H356 C364 0.950 . S
H357 C369 0.950 . S
H358 C366 0.950 . S
H359 C368 0.950 . S
H360 C370 0.950 . S
H361 C372 0.950 . S
H362 C374 0.950 . S
H363 C375 0.950 . S
C364 H356 0.950 . S
C364 C365 1.386 . S
C364 C366 1.391 . S
C365 C364 1.386 . S
C365 C369 1.393 . S
C366 H358 0.950 . S
C366 C364 1.391 . S
C366 C367 1.400 . S
C367 C366 1.400 . S
C367 C368 1.398 . S
C367 C373 1.491 . S
C368 H359 0.950 . S
C368 C367 1.398 . S
C368 C369 1.391 . S
C369 H357 0.950 . S
C369 C365 1.393 . S
C369 C368 1.391 . S
C370 H360 0.950 . S
C370 C371 1.386 . S
C370 C372 1.391 . S
C371 C370 1.386 . S
C371 C375 1.393 . S
C372 H361 0.950 . S
C372 C370 1.391 . S
C372 C373 1.400 . S
C373 C367 1.491 . S
C373 C372 1.400 . S
C373 C374 1.398 . S
C374 H362 0.950 . S
C374 C373 1.398 . S
C374 C375 1.391 . S
C375 H363 0.950 . S
C375 C371 1.393 . S
C375 C374 1.391 . S
H376 C384 0.950 . S
H377 C389 0.950 . S
H378 C386 0.950 . S
H379 C388 0.950 . S
H380 C390 0.950 . S
H381 C392 0.950 . S
H382 C394 0.950 . S
H383 C395 0.950 . S
C384 H376 0.950 . S
C384 C385 1.386 . S
C384 C386 1.391 . S
C385 C384 1.386 . S
C385 C389 1.393 . S
C386 H378 0.950 . S
C386 C384 1.391 . S
C386 C387 1.400 . S
C387 C386 1.400 . S
C387 C388 1.398 . S
C387 C393 1.491 . S
C388 H379 0.950 . S
C388 C387 1.398 . S
C388 C389 1.391 . S
C389 H377 0.950 . S
C389 C385 1.393 . S
C389 C388 1.391 . S
C390 H380 0.950 . S
C390 C391 1.386 . S
C390 C392 1.391 . S
C391 C390 1.386 . S
C391 C395 1.393 . S
C392 H381 0.950 . S
C392 C390 1.391 . S
C392 C393 1.400 . S
C393 C387 1.491 . S
C393 C392 1.400 . S
C393 C394 1.398 . S
C394 H382 0.950 . S
C394 C393 1.398 . S
C394 C395 1.391 . S
C395 H383 0.950 . S
C395 C391 1.393 . S
C395 C394 1.391 . S
H396 C404 0.950 . S
H397 C409 0.950 . S
H398 C406 0.950 . S
H399 C408 0.950 . S
H400 C410 0.950 . S
H401 C412 0.950 . S
H402 C414 0.950 . S
H403 C415 0.950 . S
C404 H396 0.950 . S
C404 C405 1.386 . S
C404 C406 1.391 . S
C405 C404 1.386 . S
C405 C409 1.393 . S
C406 H398 0.950 . S
C406 C404 1.391 . S
C406 C407 1.400 . S
C407 C406 1.400 . S
C407 C408 1.398 . S
C407 C413 1.491 . S
C408 H399 0.950 . S
C408 C407 1.398 . S
C408 C409 1.391 . S
C409 H397 0.950 . S
C409 C405 1.393 . S
C409 C408 1.391 . S
C410 H400 0.950 . S
C410 C411 1.386 . S
C410 C412 1.391 . S
C411 C410 1.386 . S
C411 C415 1.393 . S
C412 H401 0.950 . S
C412 C410 1.391 . S
C412 C413 1.400 . S
C413 C407 1.491 . S
C413 C412 1.400 . S
C413 C414 1.398 . S
C414 H402 0.950 . S
C414 C413 1.398 . S
C414 C415 1.391 . S
C415 H403 0.950 . S
C415 C411 1.393 . S
C415 C414 1.391 . S
H416 C424 0.950 . S
H417 C429 0.950 . S
H418 C426 0.950 . S
H419 C428 0.951 1_545 S
H420 C430 0.950 . S
H421 C432 0.950 . S
H422 C434 0.950 . S
H423 C435 0.950 . S
C424 H416 0.950 . S
C424 C425 1.386 . S
C424 C426 1.391 . S
C425 C424 1.386 . S
C425 C429 1.393 . S
C426 H418 0.950 . S
C426 C424 1.391 . S
C426 C427 1.400 . S
C427 C426 1.400 . S
C427 C428 1.398 . S
C427 C433 1.491 1_565 S
C428 H419 0.951 1_565 S
C428 C427 1.398 . S
C428 C429 1.390 . S
C429 H417 0.950 . S
C429 C425 1.393 . S
C429 C428 1.390 . S
C430 H420 0.950 . S
C430 C431 1.386 . S
C430 C432 1.391 . S
C431 C430 1.386 . S
C431 C435 1.393 . S
C432 H421 0.950 . S
C432 C430 1.391 . S
C432 C433 1.400 . S
C433 C427 1.491 1_545 S
C433 C432 1.400 . S
C433 C434 1.398 1_545 S
C434 H422 0.950 . S
C434 C433 1.398 1_565 S
C434 C435 1.391 1_565 S
C435 H423 0.950 . S
C435 C431 1.393 . S
C435 C434 1.391 1_545 S
H436 C444 0.950 . S
H437 C449 0.950 . S
H438 C446 0.950 . S
H439 C448 0.950 1_565 S
H440 C450 0.950 . S
H441 C452 0.950 . S
H442 C454 0.978 . S
H443 C455 0.950 . S
C444 H436 0.950 . S
C444 C445 1.386 . S
C444 C446 1.391 . S
C445 C444 1.386 . S
C445 C449 1.393 . S
C446 H438 0.950 . S
C446 C444 1.391 . S
C446 C447 1.400 . S
C447 C446 1.400 . S
C447 C448 1.398 . S
C447 C453 1.491 1_545 S
C448 H439 0.950 1_545 S
C448 C447 1.398 . S
C448 C449 1.391 . S
C449 H437 0.950 . S
C449 C445 1.393 . S
C449 C448 1.391 . S
C450 H440 0.950 . S
C450 C451 1.386 . S
C450 C452 1.391 . S
C451 C450 1.386 . S
C451 C455 1.393 . S
C452 H441 0.950 . S
C452 C450 1.391 . S
C452 C453 1.400 . S
C453 C447 1.491 1_565 S
C453 C452 1.400 . S
C453 C454 1.389 1_565 S
C454 H442 0.978 . S
C454 C453 1.389 1_545 S
C454 C455 1.373 1_545 S
C455 H443 0.950 . S
C455 C451 1.393 . S
C455 C454 1.373 1_565 S
H456 C464 0.950 . S
H457 C469 0.950 1_554 S
H458 C466 0.950 . S
H459 C468 0.950 . S
H460 C470 0.950 . S
H461 C472 0.950 . S
H462 C474 0.956 . S
H463 C475 0.950 . S
C464 H456 0.950 . S
C464 C465 1.386 . S
C464 C466 1.391 . S
C465 C464 1.386 . S
C465 C469 1.393 . S
C466 H458 0.950 . S
C466 C464 1.391 . S
C466 C467 1.400 . S
C467 C466 1.400 . S
C467 C468 1.398 . S
C467 C473 1.491 1_565 S
C468 H459 0.950 . S
C468 C467 1.398 . S
C468 C469 1.391 . S
C469 H457 0.950 1_556 S
C469 C465 1.393 . S
C469 C468 1.391 . S
C470 H460 0.950 . S
C470 C471 1.386 . S
C470 C472 1.391 . S
C471 C470 1.386 . S
C471 C475 1.393 . S
C472 H461 0.950 . S
C472 C470 1.391 . S
C472 C473 1.400 . S
C473 C467 1.491 1_545 S
C473 C472 1.400 . S
C473 C474 1.398 . S
C474 H462 0.956 . S
C474 C473 1.398 . S
C474 C475 1.391 . S
C475 H463 0.950 . S
C475 C471 1.393 . S
C475 C474 1.391 . S
H476 C484 0.950 . S
H477 C489 0.950 . S
H478 C486 0.950 . S
H479 C488 0.950 . S
H480 C490 0.950 . S
H481 C492 0.950 . S
H482 C494 0.950 1_545 S
H483 C495 0.950 . S
C484 H476 0.950 . S
C484 C485 1.386 . S
C484 C486 1.391 . S
C485 C484 1.386 . S
C485 C489 1.393 . S
C486 H478 0.950 . S
C486 C484 1.391 . S
C486 C487 1.400 . S
C487 C486 1.400 . S
C487 C488 1.398 1_545 S
C487 C493 1.491 1_545 S
C488 H479 0.950 . S
C488 C487 1.398 1_565 S
C488 C489 1.391 1_565 S
C489 H477 0.950 . S
C489 C485 1.393 . S
C489 C488 1.391 1_545 S
C490 H480 0.950 . S
C490 C491 1.386 . S
C490 C492 1.391 . S
C491 C490 1.386 . S
C491 C495 1.393 . S
C492 H481 0.950 . S
C492 C490 1.391 . S
C492 C493 1.400 . S
C493 C487 1.491 1_565 S
C493 C492 1.400 . S
C493 C494 1.398 . S
C494 H482 0.950 1_565 S
C494 C493 1.398 . S
C494 C495 1.391 . S
C495 H483 0.950 . S
C495 C491 1.393 . S
C495 C494 1.391 . S
H496 C504 0.950 . S
H497 C509 0.950 . S
H498 C506 0.950 . S
H499 C508 0.950 . S
H500 C510 0.950 . S
H501 C512 0.950 . S
H502 C514 0.950 . S
H503 C515 0.950 . S
C504 H496 0.950 . S
C504 C505 1.386 . S
C504 C506 1.391 . S
C505 C504 1.386 . S
C505 C509 1.393 . S
C506 H498 0.950 . S
C506 C504 1.391 . S
C506 C507 1.400 . S
C507 C506 1.400 . S
C507 C508 1.398 . S
C507 C513 1.491 . S
C508 H499 0.950 . S
C508 C507 1.398 . S
C508 C509 1.391 . S
C509 H497 0.950 . S
C509 C505 1.393 . S
C509 C508 1.391 . S
C510 H500 0.950 . S
C510 C511 1.386 . S
C510 C512 1.391 . S
C511 C510 1.386 . S
C511 C515 1.393 . S
C512 H501 0.950 . S
C512 C510 1.391 . S
C512 C513 1.400 . S
C513 C507 1.491 . S
C513 C512 1.400 . S
C513 C514 1.398 . S
C514 H502 0.950 . S
C514 C513 1.398 . S
C514 C515 1.391 . S
C515 H503 0.950 . S
C515 C511 1.393 . S
C515 C514 1.391 . S
H516 C524 0.950 . S
H517 C529 0.950 . S
H518 C526 0.950 . S
H519 C528 0.950 . S
H520 C530 0.950 . S
H521 C532 0.950 . S
H522 C534 0.950 . S
H523 C535 0.950 . S
C524 H516 0.950 . S
C524 C525 1.386 . S
C524 C526 1.391 . S
C525 C524 1.386 . S
C525 C529 1.393 . S
C526 H518 0.950 . S
C526 C524 1.391 . S
C526 C527 1.400 . S
C527 C526 1.400 . S
C527 C528 1.398 . S
C527 C533 1.491 . S
C528 H519 0.950 . S
C528 C527 1.398 . S
C528 C529 1.391 . S
C529 H517 0.950 . S
C529 C525 1.393 . S
C529 C528 1.391 . S
C530 H520 0.950 . S
C530 C531 1.386 . S
C530 C532 1.391 . S
C531 C530 1.386 . S
C531 C535 1.393 . S
C532 H521 0.950 . S
C532 C530 1.391 . S
C532 C533 1.400 . S
C533 C527 1.491 . S
C533 C532 1.400 . S
C533 C534 1.398 . S
C534 H522 0.950 . S
C534 C533 1.398 . S
C534 C535 1.391 . S
C535 H523 0.950 . S
C535 C531 1.393 . S
C535 C534 1.391 . S
H536 C544 0.950 . S
H537 C549 0.950 . S
H538 C546 0.950 . S
H539 C548 0.950 . S
H540 C550 0.950 . S
H541 C552 0.950 . S
H542 C554 0.950 . S
H543 C555 0.950 . S
C544 H536 0.950 . S
C544 C545 1.386 . S
C544 C546 1.391 . S
C545 C544 1.386 . S
C545 C549 1.393 . S
C546 H538 0.950 . S
C546 C544 1.391 . S
C546 C547 1.400 . S
C547 C546 1.400 . S
C547 C548 1.398 . S
C547 C553 1.491 . S
C548 H539 0.950 . S
C548 C547 1.398 . S
C548 C549 1.391 . S
C549 H537 0.950 . S
C549 C545 1.393 . S
C549 C548 1.391 . S
C550 H540 0.950 . S
C550 C551 1.386 . S
C550 C552 1.391 . S
C551 C550 1.386 . S
C551 C555 1.393 . S
C552 H541 0.950 . S
C552 C550 1.391 . S
C552 C553 1.400 . S
C553 C547 1.491 . S
C553 C552 1.400 . S
C553 C554 1.398 . S
C554 H542 0.950 . S
C554 C553 1.398 . S
C554 C555 1.391 . S
C555 H543 0.950 . S
C555 C551 1.393 . S
C555 C554 1.391 . S
H556 C564 0.950 . S
H557 C569 0.950 . S
H558 C566 0.950 . S
H559 C568 0.950 . S
H560 C570 0.950 . S
H561 C572 0.950 . S
H562 C574 0.950 . S
H563 C575 0.950 . S
C564 H556 0.950 . S
C564 C565 1.386 . S
C564 C566 1.391 . S
C565 C564 1.386 . S
C565 C569 1.393 . S
C566 H558 0.950 . S
C566 C564 1.391 . S
C566 C567 1.400 . S
C567 C566 1.400 . S
C567 C568 1.398 . S
C567 C573 1.491 . S
C568 H559 0.950 . S
C568 C567 1.398 . S
C568 C569 1.391 . S
C569 H557 0.950 . S
C569 C565 1.393 . S
C569 C568 1.391 . S
C570 H560 0.950 . S
C570 C571 1.386 . S
C570 C572 1.391 . S
C571 C570 1.386 . S
C571 C575 1.393 . S
C572 H561 0.950 . S
C572 C570 1.391 . S
C572 C573 1.400 . S
C573 C567 1.491 . S
C573 C572 1.400 . S
C573 C574 1.398 . S
C574 H562 0.950 . S
C574 C573 1.398 . S
C574 C575 1.391 . S
C575 H563 0.950 . S
C575 C571 1.393 . S
C575 C574 1.391 . S
H576 C584 0.950 . S
H577 C589 0.950 . S
H578 C586 0.950 . S
H579 C588 0.950 . S
H580 C590 0.950 . S
H581 C592 0.950 . S
H582 C594 0.950 . S
H583 C595 0.950 . S
C584 H576 0.950 . S
C584 C585 1.386 . S
C584 C586 1.391 . S
C585 C584 1.386 . S
C585 C589 1.393 . S
C586 H578 0.950 . S
C586 C584 1.391 . S
C586 C587 1.400 . S
C587 C586 1.400 . S
C587 C588 1.398 . S
C587 C593 1.491 . S
C588 H579 0.950 . S
C588 C587 1.398 . S
C588 C589 1.391 . S
C589 H577 0.950 . S
C589 C585 1.393 . S
C589 C588 1.391 . S
C590 H580 0.950 . S
C590 C591 1.386 . S
C590 C592 1.391 . S
C591 C590 1.386 . S
C591 C595 1.393 . S
C592 H581 0.950 . S
C592 C590 1.391 . S
C592 C593 1.400 . S
C593 C587 1.491 . S
C593 C592 1.400 . S
C593 C594 1.398 . S
C594 H582 0.950 . S
C594 C593 1.398 . S
C594 C595 1.391 . S
C595 H583 0.950 . S
C595 C591 1.393 . S
C595 C594 1.391 . S
H596 C604 0.950 . S
H597 C609 0.950 . S
H598 C606 0.950 . S
H599 C608 0.950 . S
H600 C610 0.950 . S
H601 C612 0.950 . S
H602 C614 0.950 . S
H603 C615 0.950 . S
C604 H596 0.950 . S
C604 C605 1.386 . S
C604 C606 1.391 . S
C605 C604 1.386 . S
C605 C609 1.393 . S
C606 H598 0.950 . S
C606 C604 1.391 . S
C606 C607 1.400 . S
C607 C606 1.400 . S
C607 C608 1.398 . S
C607 C613 1.491 . S
C608 H599 0.950 . S
C608 C607 1.398 . S
C608 C609 1.391 . S
C609 H597 0.950 . S
C609 C605 1.393 . S
C609 C608 1.391 . S
C610 H600 0.950 . S
C610 C611 1.386 . S
C610 C612 1.391 . S
C611 C610 1.386 . S
C611 C615 1.393 . S
C612 H601 0.950 . S
C612 C610 1.391 . S
C612 C613 1.400 . S
C613 C607 1.491 . S
C613 C612 1.400 . S
C613 C614 1.398 . S
C614 H602 0.950 . S
C614 C613 1.398 . S
C614 C615 1.391 . S
C615 H603 0.950 . S
C615 C611 1.393 . S
C615 C614 1.391 . S
H616 C624 0.950 . S
H617 C629 0.950 . S
H618 C626 0.950 . S
H619 C628 0.950 . S
H620 C630 0.950 . S
H621 C632 0.950 . S
H622 C634 0.950 . S
H623 C635 0.950 . S
C624 H616 0.950 . S
C624 C625 1.386 . S
C624 C626 1.391 . S
C625 C624 1.386 . S
C625 C629 1.393 . S
C626 H618 0.950 . S
C626 C624 1.391 . S
C626 C627 1.400 . S
C627 C626 1.400 . S
C627 C628 1.398 . S
C627 C633 1.491 . S
C628 H619 0.950 . S
C628 C627 1.398 . S
C628 C629 1.391 . S
C629 H617 0.950 . S
C629 C625 1.393 . S
C629 C628 1.391 . S
C630 H620 0.950 . S
C630 C631 1.386 . S
C630 C632 1.391 . S
C631 C630 1.386 . S
C631 C635 1.393 . S
C632 H621 0.950 . S
C632 C630 1.391 . S
C632 C633 1.400 . S
C633 C627 1.491 . S
C633 C632 1.400 . S
C633 C634 1.398 . S
C634 H622 0.950 . S
C634 C633 1.398 . S
C634 C635 1.391 . S
C635 H623 0.950 . S
C635 C631 1.393 . S
C635 C634 1.391 . S
H636 C644 0.950 . S
H637 C649 0.950 . S
H638 C646 0.950 . S
H639 C648 0.950 . S
H640 C650 0.950 . S
H641 C652 0.950 . S
H642 C654 0.950 . S
H643 C655 0.950 . S
C644 H636 0.950 . S
C644 C645 1.386 . S
C644 C646 1.391 . S
C645 C644 1.386 . S
C645 C649 1.393 . S
C646 H638 0.950 . S
C646 C644 1.391 . S
C646 C647 1.400 . S
C647 C646 1.400 . S
C647 C648 1.398 . S
C647 C653 1.491 . S
C648 H639 0.950 . S
C648 C647 1.398 . S
C648 C649 1.391 . S
C649 H637 0.950 . S
C649 C645 1.393 . S
C649 C648 1.391 . S
C650 H640 0.950 . S
C650 C651 1.386 . S
C650 C652 1.391 . S
C651 C650 1.386 . S
C651 C655 1.393 . S
C652 H641 0.950 . S
C652 C650 1.391 . S
C652 C653 1.400 . S
C653 C647 1.491 . S
C653 C652 1.400 . S
C653 C654 1.398 . S
C654 H642 0.950 . S
C654 C653 1.398 . S
C654 C655 1.391 . S
C655 H643 0.950 . S
C655 C651 1.393 . S
C655 C654 1.391 . S
C185 N4 1.536 . S
C191 C114 1.521 . S
C211 C92 1.509 . S
C205 N15 1.530 . S
C231 C118 1.594 . S
C225 N26 1.604 . S
C251 C96 1.451 . S
C245 N37 1.474 . S
C271 C158 1.509 . S
C265 N48 1.526 . S
C291 C136 1.526 . S
C285 N59 1.538 . S
C305 N70 1.607 . S
C311 C162 1.598 . S
C331 C140 1.451 . S
C325 N81 1.476 . S
C345 C9 1.493 . S
C351 C163 1.524 . S
C371 C141 1.501 . S
C365 C20 1.463 . S
C385 C31 1.552 . S
C391 C160 1.580 . S
C405 C39 1.406 . S
C411 C138 1.426 . S
C431 C119 1.514 . S
C425 C53 1.510 . S
C445 C64 1.483 . S
C451 C97 1.489 . S
C471 C116 1.586 . S
C465 C75 1.551 . S
C491 C94 1.422 . S
C485 C83 1.412 . S
C511 C137 1.486 . S
C505 C6 1.475 . S
C531 C159 1.473 . S
C525 C17 1.472 . S
C545 C28 1.490 . S
C551 C139 1.485 . S
C571 C161 1.482 . S
C565 C42 1.447 . S
C591 C93 1.476 . S
C585 C50 1.488 . S
C605 C61 1.463 . S
C611 C115 1.476 . S
C625 C72 1.489 . S
C631 C95 1.486 . S
C645 C86 1.461 . S
C651 C117 1.472 . S
