# Generated by pormake.
# Topology tsx, (6,3)-cn, num edge types: 1
# Building blocks:
#     Node 0, Type 0, BuildingBlock: VOLQOD_clean_sbu_1, # of connection points: 6
#     Node 1, Type 0, BuildingBlock: VOLQOD_clean_sbu_1, # of connection points: 6
#     Node 2, Type 1, BuildingBlock: MIDCAF_clean_linker_0, # of connection points: 3
#     Node 3, Type 1, BuildingBlock: MIDCAF_clean_linker_0, # of connection points: 3
#     Node 4, Type 1, BuildingBlock: MIDCAF_clean_linker_0, # of connection points: 3
#     Node 5, Type 1, BuildingBlock: MIDCAF_clean_linker_0, # of connection points: 3
#     Edge 6, Type (0, 1), BuildingBlock: AJUNOK_clean_linker_0, # of connection points: 2
#     Edge 7, Type (0, 1), BuildingBlock: AJUNOK_clean_linker_0, # of connection points: 2
#     Edge 8, Type (0, 1), BuildingBlock: AJUNOK_clean_linker_0, # of connection points: 2
#     Edge 9, Type (0, 1), BuildingBlock: AJUNOK_clean_linker_0, # of connection points: 2
#     Edge 10, Type (0, 1), BuildingBlock: AJUNOK_clean_linker_0, # of connection points: 2
#     Edge 11, Type (0, 1), BuildingBlock: AJUNOK_clean_linker_0, # of connection points: 2
#     Edge 12, Type (0, 1), BuildingBlock: AJUNOK_clean_linker_0, # of connection points: 2
#     Edge 13, Type (0, 1), BuildingBlock: AJUNOK_clean_linker_0, # of connection points: 2
#     Edge 14, Type (0, 1), BuildingBlock: AJUNOK_clean_linker_0, # of connection points: 2
#     Edge 15, Type (0, 1), BuildingBlock: AJUNOK_clean_linker_0, # of connection points: 2
#     Edge 16, Type (0, 1), BuildingBlock: AJUNOK_clean_linker_0, # of connection points: 2
#     Edge 17, Type (0, 1), BuildingBlock: AJUNOK_clean_linker_0, # of connection points: 2
# Relax obj value: 0.076
# Max RMSD: 0.108
# Mean RMSD: 0.083
data_MOF--net-tsx--node1-VOLQOD_clean_sbu_1--node2-MIDCAF_clean_linker_0--edge1-AJUNOK_clean_linker_0
_symmetry_space_group_name_H-M    P1
_symmetry_Int_Tables_number       1
_symmetry_cell_setting            triclinic
loop_
_symmetry_equiv_pos_as_xyz
'x, y, z'
_cell_length_a     19.590605
_cell_length_b     20.277441
_cell_length_c     38.887938
_cell_angle_alpha  90.33299
_cell_angle_beta   89.879355
_cell_angle_gamma 90.178331
loop_
_atom_site_label
_atom_site_type_symbol
_atom_site_fract_x
_atom_site_fract_y
_atom_site_fract_z
_atom_type_partial_charge
O0 O 0.07005 0.98713 0.07967 0.0
Zn1 Zn 0.0935 0.98546 0.02926 0.0
O2 O 0.01263 0.00073 0.00116 0.0
Zn3 Zn 0.99473 0.92222 0.97316 0.0
Zn4 Zn 0.93436 0.01826 0.03108 0.0
Zn5 Zn 0.02804 0.07675 0.97133 0.0
O6 O -0.00195 0.94375 0.92274 0.0
O7 O 0.02623 0.04982 0.92131 0.0
O8 O 0.13734 0.89829 0.01851 0.0
O9 O 0.06619 0.85307 0.98088 0.0
O10 O 0.90349 0.88164 0.98437 0.0
O11 O 0.86269 0.94803 0.02502 0.0
O12 O 0.88963 0.1045 0.01989 0.0
O13 O 0.16379 0.05599 0.02105 0.0
O14 O 0.95451 0.14462 0.97811 0.0
O15 O 0.11827 0.12073 0.98144 0.0
C16 C 0.01657 0.0031 0.09637 0.0
C17 C 0.01267 0.99567 0.90597 0.0
C18 C 0.8567 0.89759 0.00559 0.0
C19 C 0.1201 0.85049 -0.00097 0.0
C20 C 0.90313 0.14923 0.99809 0.0
C21 C 0.16704 0.10619 0.00159 0.0
O22 O 0.96167 0.01901 0.08106 0.0
O23 O 0.55656 0.48106 0.57856 0.0
Zn24 Zn 0.58165 0.48268 0.52837 0.0
O25 O 0.50109 0.49882 0.50009 0.0
Zn26 Zn 0.48353 0.42138 0.47131 0.0
Zn27 Zn 0.42206 0.51575 0.52972 0.0
Zn28 Zn 0.51737 0.57532 0.47086 0.0
O29 O 0.48684 0.44437 0.42107 0.0
O30 O 0.5155 0.55032 0.4206 0.0
O31 O 0.62625 0.39611 0.51661 0.0
O32 O 0.55487 0.35215 0.47864 0.0
O33 O 0.39263 0.38007 0.4821 0.0
O34 O 0.35026 0.44579 0.52262 0.0
O35 O 0.37854 0.60329 0.51945 0.0
O36 O 0.65155 0.55461 0.52189 0.0
O37 O 0.44505 0.64382 0.47841 0.0
O38 O 0.60739 0.61854 0.48161 0.0
C39 C 0.50277 0.49628 0.59521 0.0
C40 C 0.50166 0.49678 0.40476 0.0
C41 C 0.34518 0.39545 0.50304 0.0
C42 C 0.60858 0.34879 0.49687 0.0
C43 C 0.39355 0.64871 0.49827 0.0
C44 C 0.65505 0.60506 0.50258 0.0
O45 O 0.44836 0.51363 0.57987 0.0
C46 C 0.79438 0.12781 0.42484 0.0
C47 C 0.79887 0.14369 0.45993 0.0
C48 C 0.85513 0.12133 0.47889 0.0
C49 C 0.90665 0.08468 0.46277 0.0
H50 H 0.07026 0.95132 0.4789 0.0
H51 H 0.15381 0.88148 0.5078 0.0
H52 H 0.26128 0.85482 0.41167 0.0
H53 H 0.17994 0.92525 0.38306 0.0
H54 H 0.12583 0.00055 0.31474 0.0
H55 H 0.12807 0.00068 0.25207 0.0
H56 H 0.90817 0.01612 0.25035 0.0
H57 H 0.90627 0.01959 0.31304 0.0
H58 H 0.84094 0.08158 0.38148 0.0
H59 H 0.75242 0.14568 0.40941 0.0
H60 H 0.85982 0.13326 0.50597 0.0
H61 H 0.95015 0.06924 0.47784 0.0
N62 N 0.01108 0.00798 0.42678 0.0
N63 N 0.06536 0.98075 0.37477 0.0
N64 N 0.96184 0.03775 0.37415 0.0
C65 C 0.06396 0.97927 0.4097 0.0
C66 C 0.0145 0.00975 0.35683 0.0
C67 C 0.9599 0.03752 0.40908 0.0
C68 C 0.11777 0.94324 0.42851 0.0
C69 C 0.11227 0.93129 0.46404 0.0
C70 C 0.15979 0.891 0.48059 0.0
C71 C 0.21348 0.86207 0.46187 0.0
C72 C 0.22064 0.87666 0.42681 0.0
C73 C 0.17351 0.91675 0.41035 0.0
C74 C 0.01586 0.00981 0.31882 0.0
C75 C 0.07797 0.00389 0.30096 0.0
C76 C 0.07919 0.00337 0.26504 0.0
C77 C 0.01817 0.00709 0.24617 0.0
C78 C 0.9561 0.01345 0.2641 0.0
C79 C 0.955 0.01526 0.30002 0.0
C80 C 0.90306 0.07066 0.42732 0.0
C81 C 0.8457 0.09165 0.40875 0.0
C82 C 0.87794 0.78823 0.57637 0.0
C83 C 0.86631 0.79097 0.54082 0.0
C84 C 0.89638 0.84211 0.52172 0.0
C85 C 0.93489 0.8912 0.53824 0.0
H86 H 0.06443 0.05756 0.52348 0.0
H87 H 0.12551 0.14749 0.4948 0.0
H88 H 0.14511 0.24954 0.59204 0.0
H89 H 0.08394 0.16145 0.62052 0.0
H90 H 0.08197 0.07603 0.6887 0.0
H91 H 0.08397 0.07429 0.75139 0.0
H92 H 0.94203 0.91098 0.75108 0.0
H93 H 0.94131 0.91117 0.68848 0.0
H94 H 0.92252 0.83363 0.62041 0.0
H95 H 0.8551 0.74967 0.59181 0.0
H96 H 0.88916 0.84474 0.49416 0.0
H97 H 0.95604 0.93089 0.523 0.0
N98 N 0.00775 0.99543 0.57532 0.0
N99 N 0.03902 0.04482 0.62775 0.0
N100 N 0.98074 0.94416 0.62758 0.0
C101 C 0.03777 0.04603 0.59281 0.0
C102 C 0.01065 0.99412 0.64534 0.0
C103 C 0.97911 0.9442 0.59265 0.0
C104 C 0.06971 0.10196 0.57439 0.0
C105 C 0.08087 0.09969 0.53862 0.0
C106 C 0.11577 0.15105 0.52218 0.0
C107 C 0.13922 0.2058 0.54114 0.0
C108 C 0.12621 0.20878 0.5766 0.0
C109 C 0.0918 0.15767 0.593 0.0
C110 C 0.01177 0.99349 0.68345 0.0
C111 C 0.05134 0.03954 0.70193 0.0
C112 C 0.0524 0.03872 0.73786 0.0
C113 C 0.01384 0.99199 0.75612 0.0
C114 C 0.97367 0.94649 0.73771 0.0
C115 C 0.97294 0.94696 0.7018 0.0
C116 C 0.94394 0.88983 0.57414 0.0
C117 C 0.91627 0.83688 0.5928 0.0
C118 C 0.29575 0.62439 0.92599 0.0
C119 C 0.30196 0.63836 0.96123 0.0
C120 C 0.35539 0.60948 0.97986 0.0
C121 C 0.40359 0.56981 0.96308 0.0
H122 H 0.56944 0.44102 0.97751 0.0
H123 H 0.65704 0.37548 0.00613 0.0
H124 H 0.75544 0.34057 0.90827 0.0
H125 H 0.66995 0.40659 0.87983 0.0
H126 H 0.61386 0.48193 0.81255 0.0
H127 H 0.61409 0.48347 0.74994 0.0
H128 H 0.39446 0.50244 0.75008 0.0
H129 H 0.39462 0.50444 0.81285 0.0
H130 H 0.33792 0.57685 0.88188 0.0
H131 H 0.2553 0.64623 0.91094 0.0
H132 H 0.36066 0.61861 0.00719 0.0
H133 H 0.44537 0.5498 0.97789 0.0
N134 N 0.50531 0.49316 0.92561 0.0
N135 N 0.55594 0.46364 0.87303 0.0
N136 N 0.4532 0.522 0.87355 0.0
C137 C 0.5567 0.46324 0.90796 0.0
C138 C 0.50436 0.49272 0.85565 0.0
C139 C 0.4534 0.5228 0.9085 0.0
C140 C 0.61209 0.42849 0.92625 0.0
C141 C 0.61019 0.41995 0.96216 0.0
C142 C 0.66008 0.3822 0.97856 0.0
C143 C 0.71258 0.35244 0.95935 0.0
C144 C 0.71582 0.36323 0.92377 0.0
C145 C 0.66632 0.40077 0.90744 0.0
C146 C 0.50419 0.49277 0.81763 0.0
C147 C 0.56559 0.4862 0.79922 0.0
C148 C 0.56565 0.48652 0.76331 0.0
C149 C 0.50414 0.49173 0.74496 0.0
C150 C 0.44274 0.49855 0.76343 0.0
C151 C 0.44281 0.49951 0.79938 0.0
C152 C 0.39906 0.55848 0.9274 0.0
C153 C 0.3436 0.58494 0.90928 0.0
C154 C 0.3909 0.29041 0.07281 0.0
C155 C 0.3749 0.29546 0.03778 0.0
C156 C 0.39627 0.35156 0.01956 0.0
C157 C 0.43197 0.40227 0.03639 0.0
H158 H 0.56606 0.56727 0.02323 0.0
H159 H 0.63146 0.65564 0.9957 0.0
H160 H 0.64792 0.75667 0.09337 0.0
H161 H 0.58239 0.67013 0.12072 0.0
H162 H 0.57675 0.5827 0.18866 0.0
H163 H 0.57673 0.57907 0.25135 0.0
H164 H 0.42983 0.41996 0.24862 0.0
H165 H 0.43122 0.42192 0.18603 0.0
H166 H 0.43611 0.3355 0.11679 0.0
H167 H 0.3737 0.24853 0.08772 0.0
H168 H 0.38421 0.3567 0.99254 0.0
H169 H 0.44666 0.44553 0.0219 0.0
N170 N 0.50716 0.50485 0.0741 0.0
N171 N 0.53437 0.55439 0.12707 0.0
N172 N 0.47707 0.45321 0.12584 0.0
C173 C 0.53552 0.55567 0.09213 0.0
C174 C 0.50516 0.50345 0.14413 0.0
C175 C 0.47788 0.45333 0.0909 0.0
C176 C 0.5694 0.61124 0.07428 0.0
C177 C 0.58268 0.60889 0.03871 0.0
C178 C 0.6201 0.65935 0.02292 0.0
C179 C 0.64406 0.71328 0.04234 0.0
C180 C 0.62878 0.71653 0.07757 0.0
C181 C 0.59181 0.66632 0.09332 0.0
C182 C 0.50432 0.50231 0.18224 0.0
C183 C 0.54453 0.54679 0.20138 0.0
C184 C 0.54445 0.54487 0.2373 0.0
C185 C 0.50401 0.49865 0.25488 0.0
C186 C 0.46294 0.45495 0.23579 0.0
C187 C 0.46343 0.45644 0.19989 0.0
C188 C 0.44588 0.39797 0.0718 0.0
C189 C 0.42602 0.34086 0.08958 0.0
C190 C 0.21804 0.21905 0.99732 0.0
C191 C 0.22595 0.15169 0.0049 0.0
C192 C 0.26893 0.26507 0.00578 0.0
C193 C 0.32962 0.24523 0.02188 0.0
H194 H 0.17061 0.23705 0.98667 0.0
H195 H 0.25877 0.31692 0.00167 0.0
S196 S 0.38124 0.07337 0.04061 0.0
N197 N 0.3033 0.06644 0.02487 0.0
N198 N 0.39922 0.15299 0.04029 0.0
C199 C 0.34061 0.17749 0.02684 0.0
C200 C 0.2887 0.1307 0.01847 0.0
C201 C 0.14091 0.7349 0.97924 0.0
C202 C 0.1657 0.79267 0.99519 0.0
C203 C 0.18474 0.6831 0.97047 0.0
C204 C 0.25512 0.68704 0.97718 0.0
H205 H 0.08754 0.73043 0.97236 0.0
H206 H 0.16379 0.64067 0.95706 0.0
S207 S 0.34538 0.82509 0.02078 0.0
N208 N 0.2648 0.84856 0.01961 0.0
N209 N 0.34725 0.75146 0.00247 0.0
C210 C 0.28011 0.74269 0.9949 0.0
C211 C 0.23539 0.79546 0.00404 0.0
C212 C 0.80185 0.78638 0.0011 0.0
C213 C 0.79679 0.85366 0.00989 0.0
C214 C 0.74994 0.74171 0.00972 0.0
C215 C 0.69098 0.76278 0.02723 0.0
H216 H 0.84779 0.76731 0.98916 0.0
H217 H 0.75789 0.68978 0.00442 0.0
S218 S 0.64689 0.93534 0.05001 0.0
N219 N 0.72394 0.94043 0.03291 0.0
N220 N 0.62609 0.85638 0.04867 0.0
C221 C 0.68289 0.83057 0.03371 0.0
C222 C 0.73586 0.87603 0.02515 0.0
C223 C 0.87755 0.26178 0.97592 0.0
C224 C 0.85567 0.20537 0.99379 0.0
C225 C 0.83161 0.31141 0.96689 0.0
C226 C 0.76191 0.30649 0.97522 0.0
H227 H 0.93024 0.26674 0.96779 0.0
H228 H 0.85032 0.3528 0.95206 0.0
S229 S 0.67897 0.17116 0.02382 0.0
N230 N 0.76008 0.14969 0.02153 0.0
N231 N 0.6736 0.24261 0.00389 0.0
C232 C 0.73987 0.25227 0.99473 0.0
C233 C 0.78678 0.20177 0.00415 0.0
C234 C 0.77213 0.63072 0.52442 0.0
C235 C 0.71337 0.65128 0.50673 0.0
C236 C 0.82376 0.6755 0.53327 0.0
C237 C 0.81863 0.74271 0.52494 0.0
H238 H 0.77736 0.57998 0.53256 0.0
H239 H 0.86685 0.65787 0.54799 0.0
S240 S 0.6779 0.82132 0.4766 0.0
N241 N 0.65555 0.74292 0.47903 0.0
N242 N 0.75217 0.82717 0.49636 0.0
C243 C 0.76219 0.76337 0.50557 0.0
C244 C 0.70965 0.71766 0.49632 0.0
C245 C 0.72409 0.29716 0.50059 0.0
C246 C 0.65419 0.29116 0.49274 0.0
C247 C 0.77026 0.24707 0.49193 0.0
C248 C 0.74808 0.18912 0.47531 0.0
H249 H 0.74403 0.34229 0.51178 0.0
H250 H 0.82415 0.2555 0.49644 0.0
S251 S 0.56905 0.14366 0.4552 0.0
N252 N 0.56397 0.21876 0.47162 0.0
N253 N 0.65089 0.12447 0.45575 0.0
C254 C 0.67778 0.18027 0.46983 0.0
C255 C 0.6308 0.23131 0.47845 0.0
C256 C 0.29264 0.28329 0.49811 0.0
C257 C 0.28618 0.35032 0.50723 0.0
C258 C 0.2423 0.23723 0.50708 0.0
C259 C 0.18357 0.25662 0.52529 0.0
H260 H 0.33867 0.26545 0.48575 0.0
H261 H 0.25151 0.18556 0.50161 0.0
S262 S 0.13563 0.42776 0.54897 0.0
N263 N 0.21184 0.435 0.53114 0.0
N264 N 0.11692 0.34832 0.54757 0.0
C265 C 0.17379 0.32414 0.53196 0.0
C266 C 0.22516 0.37101 0.52304 0.0
C267 C 0.37367 0.76429 0.47916 0.0
C268 C 0.34836 0.70672 0.49477 0.0
C269 C 0.33029 0.81643 0.47079 0.0
C270 C 0.25981 0.81294 0.47749 0.0
H271 H 0.42714 0.76835 0.4723 0.0
H272 H 0.35167 0.85877 0.45769 0.0
S273 S 0.1684 0.67517 0.5201 0.0
N274 N 0.24885 0.65126 0.51878 0.0
N275 N 0.16708 0.7489 0.50233 0.0
C276 C 0.23432 0.75736 0.49483 0.0
C277 C 0.27866 0.70431 0.50362 0.0
C278 C 0.97721 0.04764 0.15307 0.0
C279 C 0.01814 0.00317 0.1344 0.0
C280 C 0.97796 0.04886 0.1891 0.0
C281 C 0.01893 0.00501 0.2079 0.0
H282 H 0.94504 0.08249 0.13973 0.0
H283 H 0.94663 0.08494 0.20231 0.0
S284 S 0.13071 0.87483 0.17108 0.0
N285 N 0.0986 0.91236 0.13724 0.0
N286 N 0.09814 0.9129 0.20495 0.0
C287 C 0.05911 0.95939 0.18948 0.0
C288 C 0.05913 0.95887 0.15277 0.0
C289 C 0.00652 0.05174 0.84887 0.0
C290 C 0.01379 0.99326 0.86784 0.0
C291 C 0.00677 0.05087 0.81283 0.0
C292 C 0.01469 0.99157 0.79432 0.0
H293 H -0.00038 0.09859 0.86193 0.0
H294 H -0.00025 0.09696 0.79935 0.0
S295 S 0.04168 0.82563 0.83155 0.0
N296 N 0.03256 0.8747 0.86526 0.0
N297 N 0.03426 0.87344 0.79756 0.0
C298 C 0.02335 0.9329 0.8129 0.0
C299 C 0.02263 0.93366 0.84961 0.0
C300 C 0.46309 0.53758 0.65254 0.0
C301 C 0.50347 0.49367 0.63321 0.0
C302 C 0.46369 0.53665 0.68858 0.0
C303 C 0.50394 0.49114 0.70669 0.0
H304 H 0.43169 0.57379 0.63973 0.0
H305 H 0.43304 0.57253 0.70234 0.0
S306 S 0.6132 0.36104 0.6679 0.0
N307 N 0.58201 0.40116 0.63465 0.0
N308 N 0.58123 0.3977 0.70232 0.0
C309 C 0.54318 0.44578 0.68758 0.0
C310 C 0.54337 0.44745 0.65089 0.0
C311 C 0.49754 0.55506 0.34821 0.0
C312 C 0.50272 0.49567 0.3666 0.0
C313 C 0.49806 0.55554 0.31217 0.0
C314 C 0.50411 0.49671 0.29307 0.0
H315 H 0.49222 0.60164 0.36171 0.0
H316 H 0.4928 0.60234 0.29917 0.0
S317 S 0.52482 0.32855 0.32864 0.0
N318 N 0.51721 0.37663 0.36282 0.0
N319 N 0.51941 0.37787 0.29515 0.0
C320 C 0.51051 0.43709 0.31107 0.0
C321 C 0.50954 0.43649 0.34778 0.0
loop_
_geom_bond_atom_site_label_1
_geom_bond_atom_site_label_2
_geom_bond_distance
_geom_bond_site_symmetry_2
_ccdc_geom_bond_type
O0 Zn1 1.953 . S
O0 C16 1.225 1_565 S
Zn1 O0 1.953 . S
Zn1 O2 1.949 1_565 S
Zn1 O8 1.919 . S
Zn1 O13 1.924 1_565 S
O2 Zn1 1.949 1_545 S
O2 Zn3 1.923 1_444 S
O2 Zn4 1.950 1_455 S
O2 Zn5 1.945 1_554 S
Zn3 O2 1.923 1_666 S
Zn3 O6 1.933 . S
Zn3 O9 1.941 1_655 S
Zn3 O10 1.965 . S
Zn4 O2 1.950 1_655 S
Zn4 O11 1.938 1_545 S
Zn4 O12 1.906 . S
Zn4 O22 1.953 . S
Zn5 O2 1.945 1_556 S
Zn5 O7 1.932 . S
Zn5 O14 1.977 1_455 S
Zn5 O15 1.910 . S
O6 Zn3 1.933 . S
O6 C17 1.226 1_665 S
O7 Zn5 1.932 . S
O7 C17 1.307 . S
O8 Zn1 1.919 . S
O8 C19 1.253 1_554 S
O9 Zn3 1.941 1_455 S
O9 C19 1.283 . S
O10 Zn3 1.965 . S
O10 C18 1.303 1_556 S
O11 Zn4 1.938 1_565 S
O11 C18 1.247 . S
O12 Zn4 1.906 . S
O12 C20 1.304 1_554 S
O13 Zn1 1.924 1_545 S
O13 C21 1.311 . S
O14 Zn5 1.977 1_655 S
O14 C20 1.272 . S
O15 Zn5 1.910 . S
O15 C21 1.231 1_556 S
C16 O0 1.225 1_545 S
C16 O22 1.298 1_455 S
C17 O6 1.226 1_445 S
C17 O7 1.307 . S
C18 O10 1.303 1_554 S
C18 O11 1.247 . S
C19 O8 1.253 1_556 S
C19 O9 1.283 . S
C20 O12 1.304 1_556 S
C20 O14 1.272 . S
C21 O13 1.311 . S
C21 O15 1.231 1_554 S
O22 Zn4 1.953 . S
O22 C16 1.298 1_655 S
O23 Zn24 1.953 . S
O23 C39 1.225 . S
Zn24 O23 1.953 . S
Zn24 O25 1.949 . S
Zn24 O31 1.919 . S
Zn24 O36 1.924 . S
O25 Zn24 1.949 . S
O25 Zn26 1.923 . S
O25 Zn27 1.950 . S
O25 Zn28 1.945 . S
Zn26 O25 1.923 . S
Zn26 O29 1.933 . S
Zn26 O32 1.941 . S
Zn26 O33 1.965 . S
Zn27 O25 1.950 . S
Zn27 O34 1.938 . S
Zn27 O35 1.906 . S
Zn27 O45 1.953 . S
Zn28 O25 1.945 . S
Zn28 O30 1.932 . S
Zn28 O37 1.977 . S
Zn28 O38 1.910 . S
O29 Zn26 1.933 . S
O29 C40 1.226 . S
O30 Zn28 1.932 . S
O30 C40 1.307 . S
O31 Zn24 1.919 . S
O31 C42 1.253 . S
O32 Zn26 1.941 . S
O32 C42 1.283 . S
O33 Zn26 1.965 . S
O33 C41 1.303 . S
O34 Zn27 1.938 . S
O34 C41 1.247 . S
O35 Zn27 1.906 . S
O35 C43 1.304 . S
O36 Zn24 1.924 . S
O36 C44 1.311 . S
O37 Zn28 1.977 . S
O37 C43 1.272 . S
O38 Zn28 1.910 . S
O38 C44 1.231 . S
C39 O23 1.225 . S
C39 O45 1.298 . S
C40 O29 1.226 . S
C40 O30 1.307 . S
C41 O33 1.303 . S
C41 O34 1.247 . S
C42 O31 1.253 . S
C42 O32 1.283 . S
C43 O35 1.304 . S
C43 O37 1.272 . S
C44 O36 1.311 . S
C44 O38 1.231 . S
O45 Zn27 1.953 . S
O45 C39 1.298 . S
C46 C47 1.384 . S
C46 H59 0.947 . S
C46 C81 1.382 . S
C47 C46 1.384 . S
C47 C48 1.378 . S
C48 C47 1.378 . S
C48 C49 1.378 . S
C48 H60 0.952 . S
C49 C48 1.378 . S
C49 H61 0.950 . S
C49 C80 1.383 . S
H50 C69 0.947 . S
H51 C70 0.946 . S
H52 C72 0.953 . S
H53 C73 0.945 . S
H54 C75 0.952 . S
H55 C76 0.949 . S
H56 C78 0.950 . S
H57 C79 0.948 . S
H58 C81 0.951 . S
H59 C46 0.947 . S
H60 C48 0.952 . S
H61 C49 0.950 . S
N62 C65 1.382 1_545 S
N62 C67 1.363 1_455 S
N63 C65 1.371 . S
N63 C66 1.372 1_565 S
N64 C66 1.361 1_655 S
N64 C67 1.377 . S
C65 N62 1.382 1_565 S
C65 N63 1.371 . S
C65 C68 1.480 . S
C66 N63 1.372 1_545 S
C66 N64 1.361 1_455 S
C66 C74 1.457 . S
C67 N62 1.363 1_655 S
C67 N64 1.377 . S
C67 C80 1.479 . S
C68 C65 1.480 . S
C68 C69 1.383 . S
C68 C73 1.385 . S
C69 H50 0.947 . S
C69 C68 1.383 . S
C69 C70 1.388 . S
C70 H51 0.946 . S
C70 C69 1.388 . S
C70 C71 1.384 . S
C71 C70 1.384 . S
C71 C72 1.377 . S
C72 H52 0.953 . S
C72 C71 1.377 . S
C72 C73 1.369 . S
C73 H53 0.945 . S
C73 C68 1.385 . S
C73 C72 1.369 . S
C74 C66 1.457 . S
C74 C75 1.372 1_545 S
C74 C79 1.364 1_455 S
C75 H54 0.952 . S
C75 C74 1.372 1_565 S
C75 C76 1.389 . S
C76 H55 0.949 . S
C76 C75 1.389 . S
C76 C77 1.387 1_565 S
C77 C76 1.387 1_545 S
C77 C78 1.372 1_455 S
C78 H56 0.950 . S
C78 C77 1.372 1_655 S
C78 C79 1.379 . S
C79 H57 0.948 . S
C79 C74 1.364 1_655 S
C79 C78 1.379 . S
C80 C49 1.383 . S
C80 C67 1.479 . S
C80 C81 1.398 . S
C81 C46 1.382 . S
C81 H58 0.951 . S
C81 C80 1.398 . S
C82 C83 1.384 . S
C82 H95 0.947 . S
C82 C117 1.382 . S
C83 C82 1.384 . S
C83 C84 1.378 . S
C84 C83 1.378 . S
C84 C85 1.378 . S
C84 H96 0.952 . S
C85 C84 1.378 . S
C85 H97 0.950 . S
C85 C116 1.383 . S
H86 C105 0.947 . S
H87 C106 0.946 . S
H88 C108 0.953 . S
H89 C109 0.945 . S
H90 C111 0.952 . S
H91 C112 0.949 . S
H92 C114 0.950 . S
H93 C115 0.948 . S
H94 C117 0.951 . S
H95 C82 0.947 . S
H96 C84 0.952 . S
H97 C85 0.950 . S
N98 C101 1.382 1_565 S
N98 C103 1.363 1_455 S
N99 C101 1.371 . S
N99 C102 1.372 1_545 S
N100 C102 1.361 1_655 S
N100 C103 1.377 . S
C101 N98 1.382 1_545 S
C101 N99 1.371 . S
C101 C104 1.480 . S
C102 N99 1.372 1_565 S
C102 N100 1.361 1_455 S
C102 C110 1.457 . S
C103 N98 1.363 1_655 S
C103 N100 1.377 . S
C103 C116 1.479 . S
C104 C101 1.480 . S
C104 C105 1.383 . S
C104 C109 1.385 . S
C105 H86 0.947 . S
C105 C104 1.383 . S
C105 C106 1.388 . S
C106 H87 0.946 . S
C106 C105 1.388 . S
C106 C107 1.384 . S
C107 C106 1.384 . S
C107 C108 1.377 . S
C108 H88 0.953 . S
C108 C107 1.377 . S
C108 C109 1.369 . S
C109 H89 0.945 . S
C109 C104 1.385 . S
C109 C108 1.369 . S
C110 C102 1.457 . S
C110 C111 1.372 1_565 S
C110 C115 1.364 1_455 S
C111 H90 0.952 . S
C111 C110 1.372 1_545 S
C111 C112 1.389 . S
C112 H91 0.949 . S
C112 C111 1.389 . S
C112 C113 1.387 1_545 S
C113 C112 1.387 1_565 S
C113 C114 1.372 1_455 S
C114 H92 0.950 . S
C114 C113 1.372 1_655 S
C114 C115 1.379 . S
C115 H93 0.948 . S
C115 C110 1.364 1_655 S
C115 C114 1.379 . S
C116 C85 1.383 . S
C116 C103 1.479 . S
C116 C117 1.398 . S
C117 C82 1.382 . S
C117 H94 0.951 . S
C117 C116 1.398 . S
C118 C119 1.384 . S
C118 H131 0.947 . S
C118 C153 1.382 . S
C119 C118 1.384 . S
C119 C120 1.378 . S
C120 C119 1.378 . S
C120 C121 1.378 . S
C120 H132 0.952 1_556 S
C121 C120 1.378 . S
C121 H133 0.950 . S
C121 C152 1.383 . S
H122 C141 0.947 . S
H123 C142 0.966 . S
H124 C144 0.953 . S
H125 C145 0.945 . S
H126 C147 0.952 . S
H127 C148 0.949 . S
H128 C150 0.950 . S
H129 C151 0.948 . S
H130 C153 0.951 . S
H131 C118 0.947 . S
H132 C120 0.952 1_554 S
H133 C121 0.950 . S
N134 C137 1.382 . S
N134 C139 1.363 . S
N135 C137 1.371 . S
N135 C138 1.372 . S
N136 C138 1.361 . S
N136 C139 1.377 . S
C137 N134 1.382 . S
C137 N135 1.371 . S
C137 C140 1.480 . S
C138 N135 1.372 . S
C138 N136 1.361 . S
C138 C146 1.457 . S
C139 N134 1.363 . S
C139 N136 1.377 . S
C139 C152 1.479 . S
C140 C137 1.480 . S
C140 C141 1.383 . S
C140 C145 1.385 . S
C141 H122 0.947 . S
C141 C140 1.383 . S
C141 C142 1.388 . S
C142 H123 0.966 . S
C142 C141 1.388 . S
C142 C143 1.384 . S
C143 C142 1.384 . S
C143 C144 1.377 . S
C144 H124 0.953 . S
C144 C143 1.377 . S
C144 C145 1.369 . S
C145 H125 0.945 . S
C145 C140 1.385 . S
C145 C144 1.369 . S
C146 C138 1.457 . S
C146 C147 1.372 . S
C146 C151 1.364 . S
C147 H126 0.952 . S
C147 C146 1.372 . S
C147 C148 1.389 . S
C148 H127 0.949 . S
C148 C147 1.389 . S
C148 C149 1.387 . S
C149 C148 1.387 . S
C149 C150 1.372 . S
C150 H128 0.950 . S
C150 C149 1.372 . S
C150 C151 1.379 . S
C151 H129 0.948 . S
C151 C146 1.364 . S
C151 C150 1.379 . S
C152 C121 1.383 . S
C152 C139 1.479 . S
C152 C153 1.398 . S
C153 C118 1.382 . S
C153 H130 0.951 . S
C153 C152 1.398 . S
C154 C155 1.384 . S
C154 H167 0.947 . S
C154 C189 1.382 . S
C155 C154 1.384 . S
C155 C156 1.378 . S
C156 C155 1.378 . S
C156 C157 1.378 . S
C156 H168 0.952 . S
C157 C156 1.378 . S
C157 H169 0.950 . S
C157 C188 1.383 . S
H158 C177 0.947 . S
H159 C178 0.946 . S
H160 C180 0.953 . S
H161 C181 0.945 . S
H162 C183 0.952 . S
H163 C184 0.949 . S
H164 C186 0.950 . S
H165 C187 0.948 . S
H166 C189 0.951 . S
H167 C154 0.947 . S
H168 C156 0.952 . S
H169 C157 0.950 . S
N170 C173 1.382 . S
N170 C175 1.363 . S
N171 C173 1.371 . S
N171 C174 1.372 . S
N172 C174 1.361 . S
N172 C175 1.377 . S
C173 N170 1.382 . S
C173 N171 1.371 . S
C173 C176 1.480 . S
C174 N171 1.372 . S
C174 N172 1.361 . S
C174 C182 1.457 . S
C175 N170 1.363 . S
C175 N172 1.377 . S
C175 C188 1.479 . S
C176 C173 1.480 . S
C176 C177 1.383 . S
C176 C181 1.385 . S
C177 H158 0.947 . S
C177 C176 1.383 . S
C177 C178 1.388 . S
C178 H159 0.946 . S
C178 C177 1.388 . S
C178 C179 1.384 . S
C179 C178 1.384 . S
C179 C180 1.377 . S
C180 H160 0.953 . S
C180 C179 1.377 . S
C180 C181 1.369 . S
C181 H161 0.945 . S
C181 C176 1.385 . S
C181 C180 1.369 . S
C182 C174 1.457 . S
C182 C183 1.372 . S
C182 C187 1.364 . S
C183 H162 0.952 . S
C183 C182 1.372 . S
C183 C184 1.389 . S
C184 H163 0.949 . S
C184 C183 1.389 . S
C184 C185 1.387 . S
C185 C184 1.387 . S
C185 C186 1.372 . S
C186 H164 0.950 . S
C186 C185 1.372 . S
C186 C187 1.379 . S
C187 H165 0.948 . S
C187 C182 1.364 . S
C187 C186 1.379 . S
C188 C157 1.383 . S
C188 C175 1.479 . S
C188 C189 1.398 . S
C189 C154 1.382 . S
C189 H166 0.951 . S
C189 C188 1.398 . S
C190 C191 1.369 1_556 S
C190 C192 1.419 1_556 S
C190 H194 0.930 . S
C191 C190 1.369 1_554 S
C191 C200 1.429 . S
C192 C190 1.419 1_554 S
C192 C193 1.363 . S
C192 H195 0.929 1_554 S
C193 C192 1.363 . S
C193 C199 1.428 . S
H194 C190 0.930 . S
H195 C192 0.929 1_556 S
S196 N197 1.613 . S
S196 N198 1.610 . S
N197 S196 1.613 . S
N197 C200 1.350 . S
N198 S196 1.610 . S
N198 C199 1.351 . S
C199 C193 1.428 . S
C199 N198 1.351 . S
C199 C200 1.434 . S
C200 C191 1.429 . S
C200 N197 1.350 . S
C200 C199 1.434 . S
C201 C202 1.369 . S
C201 C203 1.419 . S
C201 H205 0.930 1_556 S
C202 C201 1.369 . S
C202 C211 1.429 . S
C203 C201 1.419 . S
C203 C204 1.363 . S
C203 H206 0.929 1_556 S
C204 C203 1.363 . S
C204 C210 1.428 . S
H205 C201 0.930 1_554 S
H206 C203 0.929 1_554 S
S207 N208 1.613 . S
S207 N209 1.610 . S
N208 S207 1.613 . S
N208 C211 1.350 . S
N209 S207 1.610 . S
N209 C210 1.351 . S
C210 C204 1.428 . S
C210 N209 1.351 . S
C210 C211 1.434 . S
C211 C202 1.429 . S
C211 N208 1.350 . S
C211 C210 1.434 . S
C212 C213 1.369 1_556 S
C212 C214 1.419 1_556 S
C212 H216 0.930 . S
C213 C212 1.369 1_554 S
C213 C222 1.429 . S
C214 C212 1.419 1_554 S
C214 C215 1.363 . S
C214 H217 0.929 1_554 S
C215 C214 1.363 . S
C215 C221 1.428 . S
H216 C212 0.930 . S
H217 C214 0.929 1_556 S
S218 N219 1.613 . S
S218 N220 1.610 . S
N219 S218 1.613 . S
N219 C222 1.350 . S
N220 S218 1.610 . S
N220 C221 1.351 . S
C221 C215 1.428 . S
C221 N220 1.351 . S
C221 C222 1.434 . S
C222 C213 1.429 . S
C222 N219 1.350 . S
C222 C221 1.434 . S
C223 C224 1.369 . S
C223 C225 1.419 . S
C223 H227 0.927 1_556 S
C224 C223 1.369 . S
C224 C233 1.429 . S
C225 C223 1.419 . S
C225 C226 1.363 . S
C225 H228 0.929 . S
C226 C225 1.363 . S
C226 C232 1.428 . S
H227 C223 0.927 1_554 S
H228 C225 0.929 . S
S229 N230 1.613 . S
S229 N231 1.610 . S
N230 S229 1.613 . S
N230 C233 1.350 . S
N231 S229 1.610 . S
N231 C232 1.351 . S
C232 C226 1.428 . S
C232 N231 1.351 . S
C232 C233 1.434 . S
C233 C224 1.429 . S
C233 N230 1.350 . S
C233 C232 1.434 . S
C234 C235 1.369 . S
C234 C236 1.419 . S
C234 H238 0.930 . S
C235 C234 1.369 . S
C235 C244 1.429 . S
C236 C234 1.419 . S
C236 C237 1.363 . S
C236 H239 0.929 . S
C237 C236 1.363 . S
C237 C243 1.428 . S
H238 C234 0.930 . S
H239 C236 0.929 . S
S240 N241 1.613 . S
S240 N242 1.610 . S
N241 S240 1.613 . S
N241 C244 1.350 . S
N242 S240 1.610 . S
N242 C243 1.351 . S
C243 C237 1.428 . S
C243 N242 1.351 . S
C243 C244 1.434 . S
C244 C235 1.429 . S
C244 N241 1.350 . S
C244 C243 1.434 . S
C245 C246 1.369 . S
C245 C247 1.419 . S
C245 H249 0.930 . S
C246 C245 1.369 . S
C246 C255 1.429 . S
C247 C245 1.419 . S
C247 C248 1.363 . S
C247 H250 0.929 . S
C248 C247 1.363 . S
C248 C254 1.428 . S
H249 C245 0.930 . S
H250 C247 0.929 . S
S251 N252 1.613 . S
S251 N253 1.610 . S
N252 S251 1.613 . S
N252 C255 1.350 . S
N253 S251 1.610 . S
N253 C254 1.351 . S
C254 C248 1.428 . S
C254 N253 1.351 . S
C254 C255 1.434 . S
C255 C246 1.429 . S
C255 N252 1.350 . S
C255 C254 1.434 . S
C256 C257 1.369 . S
C256 C258 1.419 . S
C256 H260 0.930 . S
C257 C256 1.369 . S
C257 C266 1.429 . S
C258 C256 1.419 . S
C258 C259 1.363 . S
C258 H261 0.929 . S
C259 C258 1.363 . S
C259 C265 1.428 . S
H260 C256 0.930 . S
H261 C258 0.929 . S
S262 N263 1.613 . S
S262 N264 1.610 . S
N263 S262 1.613 . S
N263 C266 1.350 . S
N264 S262 1.610 . S
N264 C265 1.351 . S
C265 C259 1.428 . S
C265 N264 1.351 . S
C265 C266 1.434 . S
C266 C257 1.429 . S
C266 N263 1.350 . S
C266 C265 1.434 . S
C267 C268 1.369 . S
C267 C269 1.419 . S
C267 H271 0.930 . S
C268 C267 1.369 . S
C268 C277 1.429 . S
C269 C267 1.419 . S
C269 C270 1.363 . S
C269 H272 0.929 . S
C270 C269 1.363 . S
C270 C276 1.428 . S
H271 C267 0.930 . S
H272 C269 0.929 . S
S273 N274 1.613 . S
S273 N275 1.610 . S
N274 S273 1.613 . S
N274 C277 1.350 . S
N275 S273 1.610 . S
N275 C276 1.351 . S
C276 C270 1.428 . S
C276 N275 1.351 . S
C276 C277 1.434 . S
C277 C268 1.429 . S
C277 N274 1.350 . S
C277 C276 1.434 . S
C278 C279 1.369 1_655 S
C278 C280 1.419 . S
C278 H282 0.930 . S
C279 C278 1.369 1_455 S
C279 C288 1.429 1_545 S
C280 C278 1.419 . S
C280 C281 1.362 1_645 S
C280 H283 0.929 . S
C281 C280 1.362 1_465 S
C281 C287 1.429 . S
H282 C278 0.930 . S
H283 C280 0.929 . S
S284 N285 1.613 . S
S284 N286 1.610 . S
N285 S284 1.613 . S
N285 C288 1.350 . S
N286 S284 1.610 . S
N286 C287 1.351 . S
C287 C281 1.429 . S
C287 N286 1.351 . S
C287 C288 1.434 . S
C288 C279 1.429 1_565 S
C288 N285 1.350 . S
C288 C287 1.434 . S
C289 C290 1.369 . S
C289 C291 1.419 . S
C289 H293 0.930 . S
C290 C289 1.369 . S
C290 C299 1.429 1_545 S
C291 C289 1.419 . S
C291 C292 1.363 . S
C291 H294 0.929 . S
C292 C291 1.363 . S
C292 C298 1.428 1_545 S
H293 C289 0.930 . S
H294 C291 0.929 . S
S295 N296 1.613 . S
S295 N297 1.610 . S
N296 S295 1.613 . S
N296 C299 1.350 . S
N297 S295 1.610 . S
N297 C298 1.351 . S
C298 C292 1.428 1_565 S
C298 N297 1.351 . S
C298 C299 1.434 . S
C299 C290 1.429 1_565 S
C299 N296 1.350 . S
C299 C298 1.434 . S
C300 C301 1.369 . S
C300 C302 1.419 . S
C300 H304 0.930 . S
C301 C300 1.369 . S
C301 C310 1.429 . S
C302 C300 1.419 . S
C302 C303 1.363 . S
C302 H305 0.929 . S
C303 C302 1.363 . S
C303 C309 1.428 . S
H304 C300 0.930 . S
H305 C302 0.929 . S
S306 N307 1.613 . S
S306 N308 1.610 . S
N307 S306 1.613 . S
N307 C310 1.350 . S
N308 S306 1.610 . S
N308 C309 1.351 . S
C309 C303 1.428 . S
C309 N308 1.351 . S
C309 C310 1.434 . S
C310 C301 1.429 . S
C310 N307 1.350 . S
C310 C309 1.434 . S
C311 C312 1.369 . S
C311 C313 1.419 . S
C311 H315 0.930 . S
C312 C311 1.369 . S
C312 C321 1.429 . S
C313 C311 1.419 . S
C313 C314 1.363 . S
C313 H316 0.929 . S
C314 C313 1.363 . S
C314 C320 1.428 . S
H315 C311 0.930 . S
H316 C313 0.929 . S
S317 N318 1.613 . S
S317 N319 1.610 . S
N318 S317 1.613 . S
N318 C321 1.350 . S
N319 S317 1.610 . S
N319 C320 1.351 . S
C320 C314 1.428 . S
C320 N319 1.351 . S
C320 C321 1.434 . S
C321 C312 1.429 . S
C321 N318 1.350 . S
C321 C320 1.434 . S
C193 C155 1.487 . S
C191 C21 1.491 . S
C202 C19 1.482 . S
C204 C119 1.480 . S
C213 C18 1.462 . S
C215 C179 1.441 . S
C224 C20 1.481 . S
C226 C143 1.450 . S
C235 C44 1.486 . S
C237 C83 1.491 . S
C246 C42 1.480 . S
C248 C47 1.481 . S
C259 C107 1.443 . S
C257 C41 1.458 . S
C270 C71 1.450 . S
C268 C43 1.481 . S
C279 C16 1.496 . S
C281 C77 1.491 1_565 S
C290 C17 1.465 . S
C292 C113 1.462 1_545 S
C303 C149 1.491 . S
C301 C39 1.496 . S
C312 C40 1.464 . S
C314 C185 1.462 . S
