# Generated by pormake.
# Topology zzz, (3,6)-cn, num edge types: 1
# Building blocks:
#     Node 0, Type 0, BuildingBlock: BELTOD_clean_linker_0, # of connection points: 3
#     Node 1, Type 0, BuildingBlock: BELTOD_clean_linker_0, # of connection points: 3
#     Node 2, Type 0, BuildingBlock: BELTOD_clean_linker_0, # of connection points: 3
#     Node 3, Type 0, BuildingBlock: BELTOD_clean_linker_0, # of connection points: 3
#     Node 4, Type 0, BuildingBlock: BELTOD_clean_linker_0, # of connection points: 3
#     Node 5, Type 0, BuildingBlock: BELTOD_clean_linker_0, # of connection points: 3
#     Node 6, Type 0, BuildingBlock: BELTOD_clean_linker_0, # of connection points: 3
#     Node 7, Type 0, BuildingBlock: BELTOD_clean_linker_0, # of connection points: 3
#     Node 8, Type 1, BuildingBlock: BETGAK_clean_sbu_0, # of connection points: 6
#     Node 9, Type 1, BuildingBlock: BETGAK_clean_sbu_0, # of connection points: 6
#     Node 10, Type 1, BuildingBlock: BETGAK_clean_sbu_0, # of connection points: 6
#     Node 11, Type 1, BuildingBlock: BETGAK_clean_sbu_0, # of connection points: 6
#     Edge 12, Type (0, 1), BuildingBlock: ZUJKAS_clean_linker_0, # of connection points: 2
#     Edge 13, Type (0, 1), BuildingBlock: ZUJKAS_clean_linker_0, # of connection points: 2
#     Edge 14, Type (0, 1), BuildingBlock: ZUJKAS_clean_linker_0, # of connection points: 2
#     Edge 15, Type (0, 1), BuildingBlock: ZUJKAS_clean_linker_0, # of connection points: 2
#     Edge 16, Type (0, 1), BuildingBlock: ZUJKAS_clean_linker_0, # of connection points: 2
#     Edge 17, Type (0, 1), BuildingBlock: ZUJKAS_clean_linker_0, # of connection points: 2
#     Edge 18, Type (0, 1), BuildingBlock: ZUJKAS_clean_linker_0, # of connection points: 2
#     Edge 19, Type (0, 1), BuildingBlock: ZUJKAS_clean_linker_0, # of connection points: 2
#     Edge 20, Type (0, 1), BuildingBlock: ZUJKAS_clean_linker_0, # of connection points: 2
#     Edge 21, Type (0, 1), BuildingBlock: ZUJKAS_clean_linker_0, # of connection points: 2
#     Edge 22, Type (0, 1), BuildingBlock: ZUJKAS_clean_linker_0, # of connection points: 2
#     Edge 23, Type (0, 1), BuildingBlock: ZUJKAS_clean_linker_0, # of connection points: 2
#     Edge 24, Type (0, 1), BuildingBlock: ZUJKAS_clean_linker_0, # of connection points: 2
#     Edge 25, Type (0, 1), BuildingBlock: ZUJKAS_clean_linker_0, # of connection points: 2
#     Edge 26, Type (0, 1), BuildingBlock: ZUJKAS_clean_linker_0, # of connection points: 2
#     Edge 27, Type (0, 1), BuildingBlock: ZUJKAS_clean_linker_0, # of connection points: 2
#     Edge 28, Type (0, 1), BuildingBlock: ZUJKAS_clean_linker_0, # of connection points: 2
#     Edge 29, Type (0, 1), BuildingBlock: ZUJKAS_clean_linker_0, # of connection points: 2
#     Edge 30, Type (0, 1), BuildingBlock: ZUJKAS_clean_linker_0, # of connection points: 2
#     Edge 31, Type (0, 1), BuildingBlock: ZUJKAS_clean_linker_0, # of connection points: 2
#     Edge 32, Type (0, 1), BuildingBlock: ZUJKAS_clean_linker_0, # of connection points: 2
#     Edge 33, Type (0, 1), BuildingBlock: ZUJKAS_clean_linker_0, # of connection points: 2
#     Edge 34, Type (0, 1), BuildingBlock: ZUJKAS_clean_linker_0, # of connection points: 2
#     Edge 35, Type (0, 1), BuildingBlock: ZUJKAS_clean_linker_0, # of connection points: 2
# Relax obj value: 0.401
# Max RMSD: 0.259
# Mean RMSD: 0.242
data_MOF--net-zzz--node1-BETGAK_clean_sbu_0--node2-BELTOD_clean_linker_0--edge1-ZUJKAS_clean_linker_0
_symmetry_space_group_name_H-M    P1
_symmetry_Int_Tables_number       1
_symmetry_cell_setting            triclinic
loop_
_symmetry_equiv_pos_as_xyz
'x, y, z'
_cell_length_a     71.072333
_cell_length_b     71.076766
_cell_length_c     21.475985
_cell_angle_alpha  90.032516
_cell_angle_beta   89.995778
_cell_angle_gamma 89.991758
loop_
_atom_site_label
_atom_site_type_symbol
_atom_site_fract_x
_atom_site_fract_y
_atom_site_fract_z
_atom_type_partial_charge
P0 P 0.72743 0.47811 0.31 0.0
H1 H 0.73598 0.49134 0.43633 0.0
H2 H 0.76525 0.50268 0.48229 0.0
H3 H 0.78953 0.50749 0.29843 0.0
H4 H 0.75994 0.49688 0.25291 0.0
H5 H 0.68657 0.47735 0.32383 0.0
H6 H 0.66113 0.48703 0.25543 0.0
H7 H 0.70139 0.51337 0.13244 0.0
H8 H 0.72689 0.50418 0.20306 0.0
H9 H 0.76025 0.45457 0.32881 0.0
H10 H 0.72035 0.46449 0.18096 0.0
O11 O 0.71811 0.46587 0.36869 0.0
H12 H 0.78047 0.43756 0.25674 0.0
H13 H 0.74046 0.44732 0.10867 0.0
C14 C 0.7458 0.49303 0.34116 0.0
C15 C 0.74737 0.49546 0.40574 0.0
C16 C 0.76428 0.5017 0.43207 0.0
C17 C 0.78005 0.50549 0.39436 0.0
C18 C 0.77779 0.50473 0.3292 0.0
C19 C 0.76078 0.49868 0.30292 0.0
C20 C 0.7087 0.48998 0.26861 0.0
C21 C 0.68997 0.48567 0.28315 0.0
C22 C 0.67537 0.49103 0.24337 0.0
C23 C 0.67917 0.50059 0.18741 0.0
C24 C 0.69788 0.50606 0.17509 0.0
C25 C 0.71251 0.50085 0.21554 0.0
C26 C 0.73917 0.46147 0.25987 0.0
C27 C 0.75563 0.45273 0.28113 0.0
C28 C 0.76713 0.44285 0.23986 0.0
C29 C 0.76224 0.44137 0.17659 0.0
C30 C 0.74482 0.44861 0.15682 0.0
C31 C 0.73333 0.45853 0.19823 0.0
P32 P 0.03563 0.72259 0.32601 0.0
H33 H 0.02665 0.73441 0.45346 0.0
H34 H 0.01556 0.76443 0.4942 0.0
H35 H 1.00177 0.78237 0.30755 0.0
H36 H 0.01317 0.75231 0.26696 0.0
H37 H 0.04776 0.68432 0.30588 0.0
H38 H 0.0368 0.65925 0.23821 0.0
H39 H 0.98856 0.69295 0.18728 0.0
H40 H 0.99998 0.71833 0.25515 0.0
H41 H 0.06755 0.74746 0.34519 0.0
H42 H 0.03667 0.7249 0.18917 0.0
O43 O 0.04873 0.71391 0.38376 0.0
H44 H 0.08409 0.76897 0.27513 0.0
H45 H 0.05284 0.74641 0.11952 0.0
C46 C 0.02083 0.74106 0.35704 0.0
C47 C 0.02066 0.74451 0.42136 0.0
C48 C 0.01431 0.76178 0.44472 0.0
C49 C 0.00808 0.77601 0.4041 0.0
C50 C 0.00682 0.77188 0.34008 0.0
C51 C 0.0131 0.75456 0.31683 0.0
C52 C 0.02451 0.70307 0.28667 0.0
C53 C 0.03453 0.68616 0.28162 0.0
C54 C 0.0282 0.67176 0.2427 0.0
C55 C 0.01171 0.67396 0.20723 0.0
C56 C 1.00138 0.6908 0.21359 0.0
C57 C 0.00776 0.70526 0.25293 0.0
C58 C 0.05105 0.73441 0.27245 0.0
C59 C 0.06476 0.74671 0.29567 0.0
C60 C 0.07409 0.75909 0.25568 0.0
C61 C 0.06972 0.75944 0.19183 0.0
C62 C 0.05675 0.74631 0.16826 0.0
C63 C 0.04742 0.73398 0.20829 0.0
P64 P 0.7857 0.0302 0.32443 0.0
H65 H 0.77374 0.02088 0.45148 0.0
H66 H 0.74364 0.0098 0.49138 0.0
H67 H 0.72603 0.99628 0.3041 0.0
H68 H 0.75615 0.00778 0.26436 0.0
H69 H 0.82488 0.04093 0.31499 0.0
H70 H 0.85054 0.03037 0.24921 0.0
H71 H 0.81585 0.98487 0.18094 0.0
H72 H 0.78985 0.99594 0.24671 0.0
H73 H 0.75474 0.05624 0.33956 0.0
H74 H 0.79034 0.03736 0.1892 0.0
O75 O 0.79384 0.04355 0.38244 0.0
H76 H 0.73408 0.07166 0.26499 0.0
H77 H 0.77014 0.05332 0.11452 0.0
C78 C 0.76727 0.01522 0.35482 0.0
C79 C 0.7637 0.01494 0.41907 0.0
C80 C 0.74637 0.0086 0.44194 0.0
C81 C 0.73219 1.00245 0.40091 0.0
C82 C 0.73645 1.00127 0.33696 0.0
C83 C 0.75383 0.00756 0.31419 0.0
C84 C 0.80553 0.01901 0.28695 0.0
C85 C 0.8229 0.02833 0.28735 0.0
C86 C 0.83766 0.02224 0.24945 0.0
C87 C 0.8354 0.00669 0.20961 0.0
C88 C 0.81808 0.99698 0.21062 0.0
C89 C 0.80326 1.00314 0.24882 0.0
C90 C 0.77396 0.04549 0.27012 0.0
C91 C 0.75845 0.05594 0.29063 0.0
C92 C 0.74669 0.06486 0.24781 0.0
C93 C 0.75034 0.06359 0.18353 0.0
C94 C 0.76674 0.05428 0.16358 0.0
C95 C 0.77839 0.0452 0.20648 0.0
P96 P 0.47739 0.78174 0.31574 0.0
H97 H 0.47397 0.76829 0.44343 0.0
H98 H 0.484 0.73885 0.49115 0.0
H99 H 0.51976 0.7275 0.33331 0.0
H100 H 0.50939 0.757 0.28473 0.0
H101 H 0.48332 0.82221 0.33157 0.0
H102 H 0.49435 0.84643 0.26017 0.0
H103 H 0.51158 0.80343 0.12981 0.0
H104 H 0.50013 0.77919 0.20135 0.0
H105 H 0.46263 0.74326 0.32197 0.0
H106 H 0.45914 0.79032 0.19549 0.0
O107 O 0.46288 0.79324 0.36358 0.0
H108 H 0.44758 0.72328 0.24623 0.0
H109 H 0.44319 0.77031 0.11923 0.0
C110 C 0.49105 0.76507 0.36059 0.0
C111 C 0.48457 0.75996 0.41996 0.0
C112 C 0.49015 0.74298 0.44705 0.0
C113 C 0.50248 0.73081 0.41561 0.0
C114 C 0.5103 0.73667 0.35868 0.0
C115 C 0.5045 0.75363 0.33111 0.0
C116 C 0.49073 0.79886 0.27169 0.0
C117 C 0.4899 0.81792 0.28836 0.0
C118 C 0.49627 0.83182 0.24735 0.0
C119 C 0.50361 0.82694 0.18867 0.0
C120 C 0.50569 0.80771 0.17411 0.0
C121 C 0.49937 0.79381 0.21538 0.0
C122 C 0.46299 0.76809 0.26328 0.0
C123 C 0.45852 0.74942 0.27801 0.0
C124 C 0.4495 0.73798 0.23466 0.0
C125 C 0.44433 0.74507 0.17595 0.0
C126 C 0.44738 0.76426 0.16337 0.0
C127 C 0.45654 0.77572 0.20693 0.0
P128 P 0.28751 0.46091 0.03409 0.0
H129 H 0.27609 0.45881 0.90317 0.0
H130 H 0.2473 0.46877 0.85091 0.0
H131 H 0.23153 0.50097 0.0132 0.0
H132 H 0.26048 0.49091 0.06552 0.0
H133 H 0.32558 0.4472 0.05066 0.0
H134 H 0.35194 0.45861 0.11169 0.0
H135 H 0.3225 0.51086 0.14422 0.0
H136 H 0.2959 0.49924 0.08187 0.0
H137 H 0.2571 0.43386 0.04655 0.0
H138 H 0.28875 0.47038 0.16833 0.0
O139 O 0.29386 0.44202 0.99289 0.0
H140 H 0.23513 0.42727 0.13143 0.0
H141 H 0.26671 0.46451 0.25151 0.0
C142 C 0.27055 0.47407 0.98848 0.0
C143 C 0.2668 0.46849 0.92702 0.0
C144 C 0.25016 0.47403 0.89729 0.0
C145 C 0.23689 0.48537 0.92825 0.0
C146 C 0.24143 0.49226 0.9879 0.0
C147 C 0.25808 0.48661 0.0178 0.0
C148 C 0.30878 0.47242 0.06078 0.0
C149 C 0.32499 0.46141 0.06867 0.0
C150 C 0.34014 0.46796 0.104 0.0
C151 C 0.33936 0.48562 0.13333 0.0
C152 C 0.3235 0.49712 0.12265 0.0
C153 C 0.30838 0.49061 0.08629 0.0
C154 C 0.27456 0.45265 0.10069 0.0
C155 C 0.2596 0.4401 0.09183 0.0
C156 C 0.24699 0.43646 0.14024 0.0
C157 C 0.24904 0.44551 0.19813 0.0
C158 C 0.26479 0.4571 0.20791 0.0
C159 C 0.2774 0.46064 0.15966 0.0
P160 P 0.04813 0.27706 0.08008 0.0
H161 H 0.06621 0.26014 0.97126 0.0
H162 H 0.05714 0.23344 0.90729 0.0
H163 H 1.00078 0.23629 0.98204 0.0
H164 H 0.01008 0.26297 0.04679 0.0
H165 H 0.07242 0.30611 0.12839 0.0
H166 H 0.066 0.33689 0.17037 0.0
H167 H 0.00976 0.33475 0.09409 0.0
H168 H 0.01644 0.30327 0.05193 0.0
H169 H 0.06205 0.24985 0.17162 0.0
H170 H 0.01166 0.28255 0.1417 0.0
O171 O 0.07128 0.27304 0.08251 0.0
H172 H 0.0474 0.23509 0.26224 0.0
H173 H 0.99707 0.26785 0.23185 0.0
C174 C 0.03899 0.26347 0.01516 0.0
C175 C 0.05172 0.25547 0.97271 0.0
C176 C 0.04648 0.24006 0.93589 0.0
C177 C 0.02831 0.23228 0.94042 0.0
C178 C 0.01505 0.24152 0.97853 0.0
C179 C 0.02032 0.257 0.01529 0.0
C180 C 0.04498 0.30228 0.08643 0.0
C181 C 0.05892 0.31244 0.11814 0.0
C182 C 0.05517 0.33024 0.14256 0.0
C183 C 0.03726 0.33843 0.13638 0.0
C184 C 0.02364 0.3288 0.10064 0.0
C185 C 0.0275 0.31088 0.07571 0.0
C186 C 0.03805 0.26744 0.15001 0.0
C187 C 0.04801 0.25413 0.18503 0.0
C188 C 0.03967 0.24578 0.23702 0.0
C189 C 0.02116 0.25046 0.2541 0.0
C190 C 0.01137 0.26405 0.21965 0.0
C191 C 0.01977 0.27249 0.16815 0.0
P192 P 0.22558 0.04866 0.04175 0.0
H193 H 0.23684 0.05142 0.91092 0.0
H194 H 0.26535 0.04124 0.85748 0.0
H195 H 0.28048 0.00736 0.01654 0.0
H196 H 0.25178 0.0176 0.06999 0.0
H197 H 0.18853 0.06448 0.06075 0.0
H198 H 0.1612 0.05367 0.11789 0.0
H199 H 0.18691 0.99899 0.13947 0.0
H200 H 0.21455 0.01006 0.08097 0.0
H201 H 0.25388 0.07753 0.06424 0.0
H202 H 0.22635 0.03388 0.17001 0.0
O203 O 0.22038 0.06836 0.00308 0.0
H204 H 0.27493 0.08356 0.1522 0.0
H205 H 0.24738 0.03943 0.25637 0.0
C206 C 0.24213 0.0354 0.99481 0.0
C207 C 0.24593 0.04134 0.93378 0.0
C208 C 0.2624 0.03566 0.90339 0.0
C209 C 0.27545 0.02382 0.93321 0.0
C210 C 0.27077 0.01651 0.99218 0.0
C211 C 0.25427 0.02229 0.02275 0.0
C212 C 0.20358 0.03805 0.06567 0.0
C213 C 0.1881 0.04993 0.07548 0.0
C214 C 0.17238 0.04371 0.10856 0.0
C215 C 0.17181 0.02546 0.13368 0.0
C216 C 0.18694 0.01318 0.12112 0.0
C217 C 0.20265 0.0194 0.08698 0.0
C218 C 0.23835 0.05543 0.11056 0.0
C219 C 0.25205 0.06956 0.10678 0.0
C220 C 0.26414 0.0729 0.15691 0.0
C221 C 0.26283 0.06199 0.21138 0.0
C222 C 0.24856 0.04838 0.21576 0.0
C223 C 0.2365 0.04509 0.16579 0.0
P224 P 0.46411 0.21983 0.00943 0.0
H225 H 0.47085 0.23281 0.8821 0.0
H226 H 0.48184 0.26305 0.84431 0.0
H227 H 0.5027 0.27644 0.02799 0.0
H228 H 0.49122 0.2462 0.06591 0.0
H229 H 0.44877 0.18281 0.03145 0.0
H230 H 0.45654 0.15763 0.10334 0.0
H231 H 0.5053 0.18879 0.16512 0.0
H232 H 0.49773 0.21383 0.09053 0.0
H233 H 0.43303 0.24488 0.98011 0.0
H234 H 0.46448 0.22843 0.14287 0.0
O235 O 0.45088 0.21114 0.95197 0.0
H236 H 0.4227 0.27337 0.03348 0.0
H237 H 0.45501 0.25699 0.19523 0.0
C238 C 0.48025 0.23697 0.97697 0.0
C239 C 0.47849 0.24183 0.91389 0.0
C240 C 0.48474 0.25933 0.89223 0.0
C241 C 0.49289 0.27247 0.93324 0.0
C242 C 0.49616 0.26688 0.99524 0.0
C243 C 0.48993 0.24932 0.0168 0.0
C244 C 0.47275 0.20018 0.05483 0.0
C245 C 0.46142 0.1841 0.05926 0.0
C246 C 0.46574 0.16976 0.10126 0.0
C247 C 0.48139 0.17124 0.14103 0.0
C248 C 0.49319 0.1871 0.13507 0.0
C249 C 0.48887 0.20148 0.09238 0.0
C250 C 0.44953 0.23451 0.05741 0.0
C251 C 0.437 0.24693 0.02833 0.0
C252 C 0.43135 0.26338 0.0586 0.0
C253 C 0.43843 0.26776 0.11802 0.0
C254 C 0.44917 0.25414 0.14963 0.0
C255 C 0.45465 0.23765 0.11952 0.0
La256 La 0.01852 0.99852 0.73151 0.0
La257 La 0.99344 0.00875 0.62823 0.0
C258 C 0.03328 0.98329 0.82547 0.0
C259 C 0.03929 0.9641 0.84162 0.0
C260 C 0.05684 0.96135 0.86997 0.0
C261 C 0.06294 0.94322 0.88494 0.0
C262 C 0.05154 0.92755 0.87191 0.0
C263 C 0.03402 0.93035 0.843 0.0
C264 C 0.02795 0.94846 0.82796 0.0
C265 C 0.03621 0.00949 0.62951 0.0
C266 C 1.00311 0.96641 0.63842 0.0
C267 C 0.9784 0.02465 0.53626 0.0
C268 C 0.97661 0.04471 0.5209 0.0
C269 C 0.95918 0.05203 0.50205 0.0
C270 C 0.95674 0.07148 0.49586 0.0
C271 C 0.97167 0.08377 0.50928 0.0
C272 C 0.98925 0.07634 0.52597 0.0
C273 C 0.99171 0.05701 0.53172 0.0
C274 C 0.97587 0.99722 0.72943 0.0
C275 C 0.00931 0.04079 0.72018 0.0
O276 O 0.04295 0.9915 0.78147 0.0
O277 O 0.01516 0.98609 0.81932 0.0
O278 O 0.04169 0.0133 0.68564 0.0
O279 O 0.02178 0.99923 0.63221 0.0
O280 O 0.01076 0.97069 0.69299 0.0
O281 O 0.99678 0.97963 0.60069 0.0
O282 O 0.96906 0.01938 0.58565 0.0
O283 O 0.99548 0.01771 0.53541 0.0
O284 O 0.9707 0.99326 0.67308 0.0
O285 O 0.99007 0.00788 0.72745 0.0
O286 O 1.00278 0.03642 0.66413 0.0
O287 O 0.01431 0.02751 0.75971 0.0
H288 H 0.0658 0.97325 0.88072 0.0
H289 H 0.07641 0.94152 0.90786 0.0
H290 H 0.02503 0.91852 0.83177 0.0
H291 H 0.01438 0.95019 0.80571 0.0
H292 H 0.94734 0.04276 0.49393 0.0
H293 H 0.9431 0.07694 0.48247 0.0
H294 H 1.0011 0.08552 0.53523 0.0
H295 H 0.00531 0.05177 0.54649 0.0
La296 La 0.50994 0.0135 0.72974 0.0
La297 La 0.49871 0.99098 0.62081 0.0
C298 C 0.5257 0.02548 0.8269 0.0
C299 C 0.54418 0.03384 0.84205 0.0
C300 C 0.54538 0.05303 0.85706 0.0
C301 C 0.56268 0.06113 0.87233 0.0
C302 C 0.57914 0.05016 0.87365 0.0
C303 C 0.57791 0.03095 0.8582 0.0
C304 C 0.56064 0.02289 0.84243 0.0
C305 C 0.50008 0.03381 0.6319 0.0
C306 C 0.54154 0.99823 0.63369 0.0
C307 C 0.48094 0.98059 0.52628 0.0
C308 C 0.46231 0.98737 0.50664 0.0
C309 C 0.448 0.97454 0.49198 0.0
C310 C 0.4295 0.98082 0.48376 0.0
C311 C 0.42508 1.00001 0.4905 0.0
C312 C 0.43957 0.01285 0.5034 0.0
C313 C 0.45796 0.00661 0.51154 0.0
C314 C 0.50896 0.97086 0.71807 0.0
C315 C 0.46758 0.00691 0.71396 0.0
O316 O 0.51456 0.03572 0.79224 0.0
O317 O 0.52548 0.00772 0.8105 0.0
O318 O 0.49703 0.03865 0.68912 0.0
O319 O 0.5094 0.01875 0.63148 0.0
O320 O 0.53745 0.00633 0.68781 0.0
O321 O 0.52823 0.99191 0.59618 0.0
O322 O 0.48097 0.97108 0.57841 0.0
O323 O 0.49455 0.99301 0.52435 0.0
O324 O 0.51222 0.96616 0.66069 0.0
O325 O 0.49926 0.98572 0.71898 0.0
O326 O 0.47206 1.00304 0.65554 0.0
O327 O 0.48086 0.0088 0.75639 0.0
H328 H 0.5329 0.06179 0.85718 0.0
H329 H 0.56313 0.07601 0.88321 0.0
H330 H 0.5902 0.02197 0.85982 0.0
H331 H 0.56021 0.00804 0.83125 0.0
H332 H 0.451 0.95962 0.48912 0.0
H333 H 0.41858 0.9706 0.47404 0.0
H334 H 0.43669 0.02776 0.50766 0.0
H335 H 0.46863 0.01684 0.5238 0.0
La336 La 0.4965 0.5087 0.72856 0.0
La337 La 0.51443 0.49405 0.61388 0.0
C338 C 0.48521 0.51934 0.83361 0.0
C339 C 0.47847 0.5379 0.85441 0.0
C340 C 0.46109 0.53945 0.88491 0.0
C341 C 0.45357 0.55715 0.89868 0.0
C342 C 0.46334 0.57364 0.88225 0.0
C343 C 0.48095 0.57199 0.85287 0.0
C344 C 0.48838 0.55434 0.83877 0.0
C345 C 0.47416 0.50588 0.63072 0.0
C346 C 0.51058 0.53873 0.63423 0.0
C347 C 0.5209 0.48445 0.50294 0.0
C348 C 0.5144 0.46816 0.46705 0.0
C349 C 0.52066 0.4651 0.40604 0.0
C350 C 0.51399 0.44964 0.37213 0.0
C351 C 0.50095 0.43711 0.39896 0.0
C352 C 0.49477 0.44037 0.46017 0.0
C353 C 0.50151 0.45566 0.49387 0.0
C354 C 0.53774 0.49773 0.7089 0.0
C355 C 0.50189 0.46471 0.71198 0.0
O356 O 0.47439 0.51087 0.7931 0.0
O357 O 0.50304 0.51816 0.81854 0.0
O358 O 0.47369 0.51957 0.67034 0.0
O359 O 0.48638 0.49407 0.64747 0.0
O360 O 0.50568 0.53572 0.6927 0.0
O361 O 0.51374 0.52461 0.59512 0.0
O362 O 0.53216 0.48061 0.54938 0.0
O363 O 0.50764 0.49624 0.51914 0.0
O364 O 0.53932 0.48504 0.66599 0.0
O365 O 0.52462 0.50879 0.69437 0.0
O366 O 0.50358 0.46779 0.6516 0.0
O367 O 0.50127 0.47893 0.75171 0.0
H368 H 0.45311 0.52695 0.89664 0.0
H369 H 0.4399 0.55792 0.92086 0.0
H370 H 0.48907 0.58435 0.84074 0.0
H371 H 0.50175 0.55362 0.81468 0.0
H372 H 0.53065 0.47464 0.38471 0.0
H373 H 0.51915 0.44741 0.32526 0.0
H374 H 0.48447 0.43125 0.4819 0.0
H375 H 0.4965 0.4578 0.54081 0.0
La376 La 1.00243 0.49462 0.72252 0.0
La377 La 0.01343 0.5185 0.61596 0.0
C378 C 0.98707 0.48143 0.81875 0.0
C379 C 0.96832 0.47425 0.83535 0.0
C380 C 0.96686 0.45766 0.87026 0.0
C381 C 0.94923 0.45065 0.88713 0.0
C382 C 0.93273 0.46017 0.86947 0.0
C383 C 0.93423 0.47666 0.83365 0.0
C384 C 0.95187 0.48363 0.81668 0.0
C385 C 0.01314 0.47578 0.62253 0.0
C386 C 0.9707 0.5105 0.62798 0.0
C387 C 0.03097 0.52968 0.52201 0.0
C388 C 0.04955 0.52303 0.50156 0.0
C389 C 0.06348 0.53586 0.48336 0.0
C390 C 0.08195 0.52972 0.47345 0.0
C391 C 0.08672 0.51069 0.48231 0.0
C392 C 0.07262 0.49785 0.49909 0.0
C393 C 0.05426 0.50394 0.50866 0.0
C394 C 1.00264 0.5375 0.71499 0.0
C395 C 0.04475 0.50209 0.70817 0.0
O396 O 0.9966 0.47123 0.77911 0.0
O397 O 0.98839 0.49946 0.80686 0.0
O398 O 0.01643 0.47042 0.67912 0.0
O399 O 1.00331 0.49049 0.62385 0.0
O400 O 0.97487 0.50187 0.68111 0.0
O401 O 0.98392 0.51746 0.59139 0.0
O402 O 0.03103 0.53879 0.57498 0.0
O403 O 0.01741 0.51722 0.51929 0.0
O404 O 0.99963 0.54279 0.65803 0.0
O405 O 0.01252 0.52274 0.71461 0.0
O406 O 0.04033 0.50687 0.65043 0.0
O407 O 0.03145 0.49914 0.74988 0.0
H408 H 0.9794 0.45022 0.88499 0.0
H409 H 0.94852 0.43805 0.91537 0.0
H410 H 0.92176 0.48418 0.81882 0.0
H411 H 0.95261 0.49642 0.7894 0.0
H412 H 0.06019 0.55068 0.47873 0.0
H413 H 0.09259 0.5399 0.46058 0.0
H414 H 0.07579 0.48305 0.50507 0.0
H415 H 0.04387 0.49374 0.52354 0.0
H416 H 0.13404 0.03296 0.12267 0.0
H417 H 0.10961 0.02889 0.20183 0.0
H418 H 0.14989 1.00247 0.32364 0.0
H419 H 0.17446 0.00655 0.24477 0.0
H420 H 0.11423 0.98492 0.3251 0.0
H421 H 0.10823 0.06218 0.35811 0.0
H422 H 0.10475 0.05434 0.27943 0.0
H423 H 0.12737 0.05151 0.31565 0.0
C424 C 0.1377 0.02616 0.16613 0.0
C425 C 0.1563 0.02025 0.17746 0.0
C426 C 0.1237 0.02389 0.21143 0.0
C427 C 0.12799 0.01575 0.26929 0.0
C428 C 0.14627 0.00888 0.27949 0.0
H429 H 0.06974 0.02789 0.62128 0.0
H430 H 0.09126 0.02906 0.53234 0.0
C431 C 0.16029 0.01112 0.23412 0.0
C432 C 0.11367 0.01515 0.32002 0.0
H433 H 0.08665 0.04323 0.41358 0.0
C434 C 0.10815 0.99766 0.34435 0.0
C435 C 0.10593 0.03179 0.34581 0.0
C436 C 0.11195 0.05104 0.32393 0.0
C437 C 0.09502 0.99636 0.39332 0.0
C438 C 0.087 0.013 0.41823 0.0
C439 C 0.09262 0.03048 0.39412 0.0
C440 C 0.07345 0.01266 0.47127 0.0
C441 C 0.09024 0.97721 0.41911 0.0
C442 C 0.05601 1.00342 0.46629 0.0
C443 C 0.04365 1.00275 0.51719 0.0
C444 C 0.04847 0.01137 0.57396 0.0
C445 C 0.06566 0.02106 0.57824 0.0
C446 C 0.07798 0.02174 0.52741 0.0
H447 H 0.10077 0.96643 0.4053 0.0
H448 H 0.08937 0.9776 0.47072 0.0
H449 H 0.07633 0.97275 0.40086 0.0
H450 H 0.05199 0.99666 0.4231 0.0
H451 H 0.03047 0.99523 0.51241 0.0
H452 H 0.51506 0.15613 0.18142 0.0
H453 H 0.51978 0.1317 0.26076 0.0
H454 H 0.4599 0.12904 0.29113 0.0
H455 H 0.45507 0.15345 0.21313 0.0
H456 H 0.50962 0.13133 0.38726 0.0
H457 H 0.47371 0.07385 0.25975 0.0
H458 H 0.481 0.0954 0.2224 0.0
H459 H 0.45963 0.0947 0.26718 0.0
C460 C 0.5029 0.1504 0.20518 0.0
C461 C 0.48466 0.15663 0.19002 0.0
C462 C 0.50562 0.13637 0.25032 0.0
C463 C 0.49016 0.12821 0.28096 0.0
C464 C 0.47201 0.1347 0.26693 0.0
H465 H 0.48362 0.06841 0.63065 0.0
H466 H 0.48201 0.09076 0.54412 0.0
C467 C 0.46929 0.1487 0.2221 0.0
C468 C 0.49286 0.1133 0.32889 0.0
H469 H 0.47972 0.06851 0.3678 0.0
C470 C 0.50322 0.11754 0.38276 0.0
C471 C 0.48472 0.09519 0.32278 0.0
C472 C 0.4743 0.0894 0.26465 0.0
C473 C 0.50507 0.10445 0.43152 0.0
C474 C 0.49613 0.0867 0.42672 0.0
C475 C 0.48636 0.08219 0.37188 0.0
C476 C 0.49653 0.07276 0.47854 0.0
C477 C 0.51666 0.10974 0.48772 0.0
C478 C 0.50462 0.0549 0.46999 0.0
C479 C 0.50549 0.04204 0.51945 0.0
C480 C 0.49815 0.04677 0.57821 0.0
C481 C 0.48954 0.06442 0.58607 0.0
C482 C 0.48871 0.07726 0.53674 0.0
H483 H 0.52662 0.12135 0.47713 0.0
H484 H 0.50715 0.11458 0.52545 0.0
H485 H 0.52478 0.09748 0.50522 0.0
H486 H 0.5106 0.05105 0.42538 0.0
H487 H 0.51219 0.02854 0.51198 0.0
H488 H 0.3347 0.50145 0.24871 0.0
H489 H 0.35861 0.50638 0.32922 0.0
H490 H 0.40141 0.4858 0.20434 0.0
H491 H 0.37765 0.48116 0.12322 0.0
H492 H 0.38147 0.47776 0.3805 0.0
H493 H 0.42488 0.53433 0.27502 0.0
H494 H 0.40135 0.52902 0.24861 0.0
H495 H 0.42073 0.51437 0.22551 0.0
C496 C 0.34926 0.49843 0.23775 0.0
C497 C 0.35423 0.49096 0.17929 0.0
C498 C 0.36291 0.50109 0.28408 0.0
C499 C 0.38185 0.49657 0.27283 0.0
C500 C 0.38695 0.48963 0.21396 0.0
H501 H 0.46802 0.47502 0.55681 0.0
H502 H 0.44636 0.4724 0.46802 0.0
C503 C 0.37331 0.48687 0.16772 0.0
C504 C 0.39602 0.49803 0.32379 0.0
H505 H 0.43693 0.51991 0.36637 0.0
C506 C 0.39358 0.48699 0.37743 0.0
C507 C 0.4118 0.51013 0.31993 0.0
C508 C 0.41485 0.52278 0.26446 0.0
C509 C 0.40652 0.48761 0.42699 0.0
C510 C 0.42246 0.49948 0.42273 0.0
C511 C 0.42482 0.51066 0.36935 0.0
C512 C 0.43633 0.5011 0.47448 0.0
C513 C 0.40285 0.47583 0.48413 0.0
C514 C 0.43827 0.51819 0.50669 0.0
C515 C 0.45067 0.51969 0.55709 0.0
C516 C 0.46155 0.5042 0.57599 0.0
C517 C 0.45992 0.4872 0.54296 0.0
C518 C 0.44744 0.48567 0.4926 0.0
H519 H 0.38815 0.47051 0.48553 0.0
H520 H 0.41247 0.46354 0.48405 0.0
H521 H 0.40558 0.48407 0.52715 0.0
H522 H 0.4299 0.53029 0.4935 0.0
H523 H 0.45168 0.533 0.58149 0.0
H524 H 0.05983 0.36909 0.16063 0.0
H525 H 0.05454 0.39386 0.23727 0.0
H526 H 0.99852 0.37282 0.27002 0.0
H527 H 1.00414 0.34719 0.1965 0.0
H528 H 0.03136 0.42234 0.2541 0.0
H529 H 0.01918 0.37061 0.44281 0.0
H530 H 0.02718 0.36371 0.36654 0.0
H531 H 1.00262 0.3684 0.38024 0.0
C532 C 0.04637 0.36964 0.18417 0.0
C533 C 0.03259 0.35576 0.17308 0.0
C534 C 0.04331 0.38397 0.22779 0.0
C535 C 0.02634 0.38494 0.26114 0.0
C536 C 0.01198 0.37205 0.24656 0.0
H537 H 0.99724 0.47958 0.50719 0.0
H538 H 1.0004 0.45833 0.41794 0.0
C539 C 0.01512 0.35754 0.20348 0.0
C540 C 0.02413 0.39888 0.3128 0.0
H541 H 0.01449 0.40261 0.46834 0.0
C542 C 0.02766 0.41802 0.30095 0.0
C543 C 0.0197 0.39328 0.37445 0.0
C544 C 0.01715 0.37287 0.39206 0.0
C545 C 0.02681 0.43163 0.34862 0.0
C546 C 0.02173 0.42609 0.40975 0.0
C547 C 0.01823 0.40696 0.42154 0.0
C548 C 0.02036 0.43968 0.46273 0.0
C549 C 0.03198 0.45169 0.33324 0.0
C550 C 0.0302 0.43622 0.51839 0.0
C551 C 0.0281 0.44815 0.56984 0.0
C552 C 0.01618 0.46388 0.56674 0.0
C553 C 0.00662 0.46762 0.51078 0.0
C554 C 0.00854 0.45553 0.45952 0.0
H555 H 0.04095 0.45248 0.29096 0.0
H556 H 0.01895 0.45982 0.32388 0.0
H557 H 0.03957 0.4585 0.37243 0.0
H558 H 0.03941 0.42413 0.52229 0.0
H559 H 0.03568 0.44497 0.6123 0.0
H560 H 0.83172 0.9952 0.08799 0.0
H561 H 0.85664 0.99027 0.01128 0.0
H562 H 0.89843 1.00336 0.15022 0.0
H563 H 0.87371 0.00734 0.22794 0.0
H564 H 0.88075 0.01612 0.96955 0.0
H565 H 0.92183 0.95769 0.07259 0.0
H566 H 0.89869 0.964 0.10024 0.0
H567 H 0.91902 0.97713 0.12503 0.0
C568 C 0.84622 0.99648 0.10285 0.0
C569 C 0.85062 1.00168 0.16443 0.0
C570 C 0.86048 0.99383 0.05865 0.0
C571 C 0.87949 0.99625 0.07488 0.0
C572 C 0.88396 1.00101 0.1366 0.0
H573 H 0.98093 0.01048 0.84841 0.0
H574 H 0.95811 0.00954 0.93457 0.0
C575 C 0.86972 1.00354 0.18092 0.0
C576 C 0.89445 0.99521 0.02625 0.0
H577 H 0.93636 0.97431 0.98862 0.0
C578 C 0.89282 0.00686 0.97366 0.0
C579 C 0.91031 0.98321 0.03151 0.0
C580 C 0.91251 0.96967 0.08508 0.0
C581 C 0.9066 0.00698 0.92678 0.0
C582 C 0.92247 0.9951 0.93231 0.0
C583 C 0.92422 0.98349 0.98478 0.0
C584 C 0.93698 0.99425 0.88265 0.0
C585 C 0.90424 0.01992 0.87167 0.0
C586 C 0.93281 0.98559 0.82563 0.0
C587 C 0.94579 0.98601 0.77673 0.0
C588 C 0.96319 0.99519 0.78377 0.0
C589 C 0.96763 1.00332 0.84165 0.0
C590 C 0.95463 1.0028 0.89082 0.0
H591 H 0.89284 0.03038 0.8791 0.0
H592 H 0.91757 0.02754 0.86203 0.0
H593 H 0.90074 0.01146 0.8298 0.0
H594 H 0.91932 0.97882 0.81855 0.0
H595 H 0.94199 0.97955 0.73281 0.0
H596 H 0.49522 0.82609 0.06432 0.0
H597 H 0.49866 0.85135 0.98805 0.0
H598 H 0.52286 0.88714 0.12893 0.0
H599 H 0.51992 0.86174 0.2054 0.0
H600 H 0.48172 0.88685 0.99576 0.0
H601 H 0.55953 0.89298 0.98166 0.0
H602 H 0.54794 0.87266 0.01445 0.0
H603 H 0.5499 0.89397 0.05898 0.0
C604 C 0.5017 0.83916 0.0789 0.0
C605 C 0.50739 0.8418 0.14111 0.0
C606 C 0.5035 0.85366 0.03527 0.0
C607 C 0.51114 0.87111 0.05255 0.0
C608 C 0.51716 0.87372 0.11424 0.0
H609 H 0.49548 0.97489 0.83688 0.0
H610 H 0.49662 0.95164 0.92136 0.0
C611 C 0.51532 0.85922 0.15805 0.0
C612 C 0.51182 0.88679 0.00668 0.0
H613 H 0.54171 0.91595 0.92764 0.0
C614 C 0.49483 0.89324 0.98097 0.0
C615 C 0.52895 0.89505 0.98711 0.0
C616 C 0.54766 0.88825 0.01147 0.0
C617 C 0.49449 0.90768 0.93628 0.0
C618 C 0.5116 0.9161 0.91721 0.0
C619 C 0.5286 0.90963 0.94279 0.0
C620 C 0.51212 0.93089 0.86824 0.0
C621 C 0.47586 0.91347 0.90856 0.0
C622 C 0.52099 0.92723 0.81111 0.0
C623 C 0.52037 0.94048 0.76296 0.0
C624 C 0.51097 0.9577 0.77111 0.0
C625 C 0.50273 0.96169 0.82915 0.0
C626 C 0.5033 0.94839 0.87731 0.0
H627 H 0.46462 0.90302 0.91832 0.0
H628 H 0.47149 0.92715 0.92888 0.0
H629 H 0.47706 0.91528 0.85735 0.0
H630 H 0.52794 0.91388 0.80314 0.0
H631 H 0.52694 0.93706 0.71886 0.0
H632 H 0.65092 0.47613 0.15677 0.0
H633 H 0.62651 0.47977 0.07812 0.0
H634 H 0.64843 0.53441 0.03022 0.0
H635 H 0.67293 0.53103 0.11001 0.0
H636 H 0.59838 0.50749 0.0641 0.0
H637 H 0.64762 0.50589 0.86275 0.0
H638 H 0.65464 0.49882 0.94003 0.0
H639 H 0.65236 0.52333 0.92137 0.0
C640 C 0.65045 0.48911 0.13044 0.0
C641 C 0.66392 0.50334 0.14026 0.0
C642 C 0.63649 0.4911 0.08509 0.0
C643 C 0.6357 0.50728 0.04786 0.0
C644 C 0.64893 0.52167 0.05777 0.0
H645 H 0.54008 0.5271 0.79192 0.0
H646 H 0.56342 0.53133 0.87528 0.0
C647 C 0.66295 0.5197 0.1034 0.0
C648 C 0.62116 0.50867 0.99815 0.0
H649 H 0.61536 0.50875 0.84014 0.0
C650 C 0.60207 0.50797 0.01511 0.0
C651 C 0.626 0.50909 0.93424 0.0
C652 C 0.64625 0.50918 0.91312 0.0
C653 C 0.58773 0.50735 0.96996 0.0
C654 C 0.59258 0.50762 0.90607 0.0
C655 C 0.61165 0.50866 0.88913 0.0
C656 C 0.57825 0.50536 0.85606 0.0
C657 C 0.56754 0.50564 0.99093 0.0
C658 C 0.57894 0.48951 0.81709 0.0
C659 C 0.56567 0.48708 0.76974 0.0
C660 C 0.55145 0.5005 0.76002 0.0
C661 C 0.55076 0.51643 0.79879 0.0
C662 C 0.56407 0.51885 0.84643 0.0
H663 H 0.56644 0.50202 0.04112 0.0
H664 H 0.56025 0.51926 0.98338 0.0
H665 H 0.56006 0.49473 0.96339 0.0
H666 H 0.58973 0.47892 0.82359 0.0
H667 H 0.56657 0.47466 0.74063 0.0
H668 H 0.99783 0.6789 0.08898 0.0
H669 H 0.99251 0.65489 0.00932 0.0
H670 H 0.00942 0.61176 0.13888 0.0
H671 H 0.01388 0.63553 0.21955 0.0
H672 H 0.0189 0.63242 0.9601 0.0
H673 H 0.96351 0.58767 0.06457 0.0
H674 H 0.96923 0.61067 0.09476 0.0
H675 H 0.98345 0.5906 0.1148 0.0
C676 C 0.99987 0.66426 0.10121 0.0
C677 C 0.00631 0.65921 0.16089 0.0
C678 C 0.99699 0.65054 0.05534 0.0
C679 C 1.00038 0.63144 0.06806 0.0
C680 C 0.00632 0.62631 0.12805 0.0
H681 H 0.01408 0.53167 0.83545 0.0
H682 H 0.01265 0.55417 0.92234 0.0
C683 C 0.00911 0.64 0.17401 0.0
C684 C 0.99926 0.61715 0.01732 0.0
H685 H 0.97985 0.57479 0.97689 0.0
C686 C 0.01021 0.61992 0.96363 0.0
C687 C 0.98802 0.60073 0.02192 0.0
C688 C 0.97525 0.5973 0.07686 0.0
C689 C 0.01047 0.60667 0.91509 0.0
C690 C 0.99936 0.59023 0.9199 0.0
C691 C 0.9884 0.58739 0.97344 0.0
C692 C 0.99886 0.57603 0.86911 0.0
C693 C 0.02294 0.61017 0.85939 0.0
C694 C 0.99115 0.58067 0.81099 0.0
C695 C 0.99189 0.56787 0.76157 0.0
C696 C 1.00038 0.55016 0.76927 0.0
C697 C 0.0075 0.54524 0.82814 0.0
C698 C 0.00668 0.55806 0.87775 0.0
H699 H 0.03353 0.62132 0.86864 0.0
H700 H 0.03039 0.59709 0.84553 0.0
H701 H 0.01413 0.61475 0.81951 0.0
H702 H 0.98483 0.59436 0.80356 0.0
H703 H 0.98617 0.57202 0.71689 0.0
H704 H 0.98692 0.23378 0.24717 0.0
H705 H 0.97347 0.2113 0.32008 0.0
H706 H 0.02007 0.22035 0.44547 0.0
H707 H 0.03394 0.24254 0.37118 0.0
H708 H 0.01727 0.18518 0.41595 0.0
H709 H 0.94612 0.20872 0.48158 0.0
H710 H 0.94868 0.20942 0.39866 0.0
H711 H 0.9631 0.22443 0.44676 0.0
C712 C 0.99398 0.23144 0.29121 0.0
C713 C 0.0115 0.23976 0.30355 0.0
C714 C 0.98618 0.2187 0.3332 0.0
C715 C 0.9956 0.21432 0.38877 0.0
C716 C 0.01251 0.22362 0.40303 0.0
H717 H 0.98173 0.10975 0.59576 0.0
H718 H 0.98457 0.14375 0.58016 0.0
C719 C 0.02046 0.23618 0.36057 0.0
C720 C 0.98974 0.19762 0.42502 0.0
H721 H 0.95115 0.17454 0.48123 0.0
C722 C 1.00294 0.18309 0.43189 0.0
C723 C 0.97101 0.19483 0.44547 0.0
C724 C 0.95651 0.2103 0.44327 0.0
C725 C 0.99768 0.16547 0.45481 0.0
C726 C 0.97872 0.16234 0.47159 0.0
C727 C 0.96565 0.17705 0.4678 0.0
C728 C 0.97233 0.1433 0.48802 0.0
C729 C 0.0122 0.14996 0.45769 0.0
C730 C 0.96371 0.1321 0.44239 0.0
C731 C 0.96219 0.11269 0.45106 0.0
C732 C 0.96937 0.10437 0.50533 0.0
C733 C 0.97643 0.11588 0.55313 0.0
C734 C 0.9779 0.13525 0.54455 0.0
H735 H 0.02583 0.15421 0.43667 0.0
H736 H 0.01474 0.14606 0.50701 0.0
H737 H 0.00699 0.13724 0.43311 0.0
H738 H 0.95947 0.13816 0.39829 0.0
H739 H 0.95669 0.10408 0.4136 0.0
H740 H 0.25858 0.05973 0.33831 0.0
H741 H 0.28351 0.0543 0.41499 0.0
H742 H 0.32529 0.06027 0.27067 0.0
H743 H 0.30065 0.06538 0.19409 0.0
H744 H 0.30667 0.0237 0.40494 0.0
H745 H 0.34965 0.08829 0.41444 0.0
H746 H 0.32582 0.08816 0.38497 0.0
H747 H 0.34517 0.08149 0.33541 0.0
C748 C 0.27311 0.06028 0.32325 0.0
C749 C 0.27763 0.06288 0.26002 0.0
C750 C 0.28731 0.05727 0.36714 0.0
C751 C 0.30623 0.05708 0.34861 0.0
C752 C 0.31081 0.06084 0.28632 0.0
H753 H 0.39937 0.98978 0.40244 0.0
H754 H 0.36834 1.00352 0.38458 0.0
C755 C 0.29666 0.06377 0.24246 0.0
C756 C 0.32103 0.0501 0.39106 0.0
H757 H 0.36622 0.05889 0.43537 0.0
C758 C 0.31951 0.03157 0.41314 0.0
C759 C 0.33765 0.06044 0.40252 0.0
C760 C 0.33959 0.08077 0.38361 0.0
C761 C 0.33481 0.02257 0.44154 0.0
C762 C 0.35204 0.03231 0.4471 0.0
C763 C 0.35304 0.05135 0.43013 0.0
C764 C 0.36969 0.02251 0.46334 0.0
C765 C 0.33262 1.0025 0.46307 0.0
C766 C 0.38069 0.02866 0.5135 0.0
C767 C 0.39842 0.0208 0.52385 0.0
C768 C 0.40552 0.00686 0.48362 0.0
C769 C 0.3942 1.00033 0.4346 0.0
C770 C 0.37646 0.00814 0.42444 0.0
H771 H 0.31773 0.99929 0.47477 0.0
H772 H 0.33698 0.99287 0.42501 0.0
H773 H 0.34153 0.99959 0.50445 0.0
H774 H 0.37571 0.03978 0.54384 0.0
H775 H 0.40672 0.02587 0.56271 0.0
H776 H 0.44178 0.30024 0.05078 0.0
H777 H 0.44808 0.33163 0.09075 0.0
H778 H 0.44224 0.31118 0.27877 0.0
H779 H 0.43469 0.27984 0.23913 0.0
H780 H 0.4289 0.34702 0.26601 0.0
H781 H 0.50006 0.34071 0.16038 0.0
H782 H 0.48112 0.33925 0.10537 0.0
H783 H 0.48383 0.32125 0.16354 0.0
C784 C 0.44106 0.30247 0.1006 0.0
C785 C 0.43792 0.28738 0.14182 0.0
C786 C 0.44501 0.32042 0.12336 0.0
C787 C 0.44626 0.32355 0.18765 0.0
C788 C 0.44161 0.30897 0.22889 0.0
H789 H 0.49459 0.40156 0.44235 0.0
H790 H 0.48021 0.37524 0.38695 0.0
C791 C 0.4374 0.29104 0.20618 0.0
C792 C 0.45384 0.34147 0.21208 0.0
H793 H 0.49332 0.36892 0.21374 0.0
C794 C 0.44293 0.35187 0.25429 0.0
C795 C 0.47224 0.34769 0.19695 0.0
C796 C 0.48508 0.33658 0.15456 0.0
C797 C 0.44998 0.36825 0.28221 0.0
C798 C 0.46838 0.37429 0.26754 0.0
C799 C 0.47915 0.36422 0.2243 0.0
C800 C 0.47718 0.39028 0.30006 0.0
C801 C 0.43786 0.37892 0.32781 0.0
C802 C 0.4806 0.40724 0.2688 0.0
C803 C 0.48866 0.42242 0.30048 0.0
C804 C 0.49355 0.42075 0.36373 0.0
C805 C 0.49061 0.40346 0.39409 0.0
C806 C 0.48245 0.38839 0.36256 0.0
H807 H 0.42285 0.37463 0.32488 0.0
H808 H 0.4429 0.37613 0.37584 0.0
H809 H 0.43889 0.3943 0.31943 0.0
H810 H 0.47671 0.40882 0.2203 0.0
H811 H 0.49061 0.43558 0.27593 0.0
H812 H 0.21137 0.44706 0.17543 0.0
H813 H 0.18646 0.45355 0.25 0.0
H814 H 0.22652 0.45127 0.40054 0.0
H815 H 0.25172 0.44431 0.32595 0.0
H816 H 0.17308 0.43594 0.36412 0.0
H817 H 0.20595 0.5065 0.39751 0.0
H818 H 0.21255 0.49125 0.33398 0.0
H819 H 0.22017 0.486 0.41167 0.0
C820 C 0.21487 0.44722 0.2245 0.0
C821 C 0.2336 0.44533 0.24463 0.0
C822 C 0.20059 0.45105 0.26708 0.0
C823 C 0.20476 0.45316 0.33045 0.0
C824 C 0.22314 0.44993 0.35156 0.0
H825 H 0.10675 0.48674 0.55652 0.0
H826 H 0.13735 0.47239 0.53366 0.0
C827 C 0.23748 0.446 0.30891 0.0
C828 C 0.19014 0.46081 0.37214 0.0
H829 H 0.17556 0.50217 0.4369 0.0
C830 C 0.17373 0.45025 0.38152 0.0
C831 C 0.19109 0.47957 0.39398 0.0
C832 C 0.20831 0.49162 0.38374 0.0
C833 C 0.1578 0.45831 0.40934 0.0
C834 C 0.15848 0.47734 0.42854 0.0
C835 C 0.17522 0.48757 0.42224 0.0
C836 C 0.14128 0.48749 0.44722 0.0
C837 C 0.13998 0.44685 0.41415 0.0
C838 C 0.13383 0.50123 0.40734 0.0
C839 C 0.11641 0.5094 0.4201 0.0
C840 C 0.10619 0.50393 0.473 0.0
C841 C 0.11419 0.4909 0.5147 0.0
C842 C 0.13163 0.48275 0.50188 0.0
H843 H 0.14116 0.43311 0.38975 0.0
H844 H 0.13682 0.44408 0.46391 0.0
H845 H 0.12792 0.45474 0.39418 0.0
H846 H 0.14114 0.50505 0.3649 0.0
H847 H 0.11055 0.51932 0.38709 0.0
H848 H 0.08224 0.75751 0.07095 0.0
H849 H 0.08776 0.78401 1.00022 0.0
H850 H 0.07687 0.8228 0.15058 0.0
H851 H 0.07152 0.79661 0.221 0.0
H852 H 0.06146 0.80846 0.96905 0.0
H853 H 0.12051 0.8484 0.06917 0.0
H854 H 0.11555 0.82443 0.09168 0.0
H855 H 0.10344 0.84376 0.12855 0.0
C856 C 0.08147 0.77171 0.0891 0.0
C857 C 0.07649 0.77497 0.15158 0.0
C858 C 0.08469 0.78682 0.04876 0.0
C859 C 0.08302 0.8054 0.07027 0.0
C860 C 0.07885 0.80862 0.13325 0.0
H861 H 0.0304 0.90057 0.92845 0.0
H862 H 0.04051 0.86965 0.96426 0.0
C863 C 0.07573 0.79358 0.17356 0.0
C864 C 0.08283 0.82141 0.02608 0.0
H865 H 0.09715 0.867 0.01201 0.0
C866 C 0.06963 0.8211 0.97743 0.0
C867 C 0.09371 0.8378 0.036 0.0
C868 C 0.10924 0.83852 0.0838 0.0
C869 C 0.06591 0.83723 0.94203 0.0
C870 C 0.0753 0.85419 0.95673 0.0
C871 C 0.08965 0.85408 1.00161 0.0
C872 C 0.06913 0.87249 0.93089 0.0
C873 C 0.05152 0.83605 0.8905 0.0
C874 C 0.08198 0.88458 0.90158 0.0
C875 C 0.07624 0.9024 0.88147 0.0
C876 C 0.05758 0.9084 0.89057 0.0
C877 C 0.04476 0.8962 0.91964 0.0
C878 C 0.05051 0.87849 0.93994 0.0
H879 H 0.05096 0.82165 0.87044 0.0
H880 H 0.03739 0.83928 0.90972 0.0
H881 H 0.05464 0.8462 0.85258 0.0
H882 H 0.09645 0.88028 0.89465 0.0
H883 H 0.0864 0.91147 0.85886 0.0
H884 H 0.72776 0.09502 0.18788 0.0
H885 H 0.6996 0.10092 0.12501 0.0
H886 H 0.71188 0.052 0.01364 0.0
H887 H 0.73959 0.04561 0.07686 0.0
H888 H 0.69585 0.08801 0.94878 0.0
H889 H 0.65652 0.05899 0.15208 0.0
H890 H 0.67342 0.07743 0.16556 0.0
H891 H 0.68132 0.05463 0.14121 0.0
C892 C 0.72464 0.08568 0.1494 0.0
C893 C 0.73583 0.06971 0.13798 0.0
C894 C 0.70864 0.08917 0.11332 0.0
C895 C 0.70371 0.07682 0.06512 0.0
C896 C 0.71559 0.06174 0.05049 0.0
H897 H 0.61449 0.04274 0.82835 0.0
H898 H 0.64447 0.05298 0.8718 0.0
C899 C 0.73149 0.05817 0.08665 0.0
C900 C 0.68496 0.0778 0.03593 0.0
H901 H 0.63946 0.06483 0.06128 0.0
C902 C 0.68341 0.08324 0.97341 0.0
C903 C 0.66886 0.07154 0.06845 0.0
C904 C 0.66996 0.06521 0.13547 0.0
C905 C 0.66609 0.08224 0.94203 0.0
C906 C 0.65015 0.07513 0.97378 0.0
C907 C 0.65166 0.07033 0.03699 0.0
C908 C 0.6321 0.07106 0.94194 0.0
C909 C 0.66509 0.08873 0.87527 0.0
C910 C 0.61511 0.07763 0.96721 0.0
C911 C 0.59792 0.07135 0.94366 0.0
C912 C 0.59735 0.05839 0.89412 0.0
C913 C 0.61439 0.05249 0.86712 0.0
C914 C 0.63159 0.05862 0.89117 0.0
H915 H 0.67587 0.09967 0.86555 0.0
H916 H 0.66796 0.07663 0.84405 0.0
H917 H 0.65099 0.0945 0.8638 0.0
H918 H 0.61517 0.08709 0.00679 0.0
H919 H 0.58511 0.07601 0.96622 0.0
H920 H 0.42129 0.71424 0.18806 0.0
H921 H 0.41891 0.68803 0.11531 0.0
H922 H 0.44924 0.72 0.97736 0.0
H923 H 0.45305 0.74571 0.05145 0.0
H924 H 0.407 0.67933 0.99952 0.0
H925 H 0.48524 0.67755 0.0098 0.0
H926 H 0.47147 0.69289 0.05856 0.0
H927 H 0.47566 0.69885 0.9783 0.0
C928 C 0.42737 0.71579 0.14211 0.0
C929 C 0.43797 0.73183 0.12655 0.0
C930 C 0.4258 0.70084 0.10027 0.0
C931 C 0.4345 0.70182 0.04176 0.0
C932 C 0.44295 0.71874 0.0231 0.0
H933 H 0.46476 0.60532 0.80963 0.0
H934 H 0.45511 0.6372 0.83816 0.0
C935 C 0.44488 0.73357 0.06539 0.0
C936 C 0.43686 0.68439 0.00466 0.0
H937 H 0.47041 0.65368 0.95335 0.0
C938 C 0.42085 0.67382 0.98871 0.0
C939 C 0.45499 0.6771 0.99126 0.0
C940 C 0.47283 0.68706 0.01079 0.0
C941 C 0.42253 0.65599 0.96097 0.0
C942 C 0.44063 0.64868 0.94885 0.0
C943 C 0.45657 0.6595 0.96242 0.0
C944 C 0.44365 0.62918 0.92751 0.0
C945 C 0.40504 0.64491 0.9459 0.0
C946 C 0.44029 0.61416 0.96836 0.0
C947 C 0.44614 0.59599 0.95287 0.0
C948 C 0.45545 0.59254 0.89619 0.0
C949 C 0.458 0.60754 0.85422 0.0
C950 C 0.45229 0.62573 0.87002 0.0
H951 H 0.39231 0.65398 0.94518 0.0
H952 H 0.40647 0.6378 0.90008 0.0
H953 H 0.40299 0.63388 0.98183 0.0
H954 H 0.43398 0.61666 0.01353 0.0
H955 H 0.44413 0.58484 0.98657 0.0
H956 H 0.77045 0.45697 0.06405 0.0
H957 H 0.798 0.45105 0.99996 0.0
H958 H 0.81448 0.40575 0.12187 0.0
H959 H 0.7867 0.41156 0.18657 0.0
H960 H 0.84109 0.4326 0.11251 0.0
H961 H 0.81785 0.41323 0.87563 0.0
H962 H 0.80554 0.43358 0.90344 0.0
H963 H 0.80258 0.41138 0.94264 0.0
C964 C 0.77946 0.44522 0.07595 0.0
C965 C 0.77642 0.4348 0.1307 0.0
C966 C 0.79524 0.44182 0.03903 0.0
C967 C 0.80823 0.42785 0.05576 0.0
C968 C 0.80458 0.41655 0.10799 0.0
H969 H 0.91937 0.42397 0.87145 0.0
H970 H 0.88929 0.41295 0.91452 0.0
C971 C 0.78877 0.41995 0.14506 0.0
C972 C 0.82693 0.42744 0.02535 0.0
H973 H 0.84837 0.42879 0.88306 0.0
C974 C 0.84273 0.43126 0.06248 0.0
C975 C 0.82911 0.42569 0.96011 0.0
C976 C 0.81286 0.42054 0.91828 0.0
C977 C 0.86038 0.43463 0.03575 0.0
C978 C 0.86221 0.43428 0.97034 0.0
C979 C 0.84678 0.42925 0.93327 0.0
C980 C 0.87967 0.44075 0.94012 0.0
C981 C 0.87682 0.43936 0.07738 0.0
C982 C 0.88392 0.46 0.93965 0.0
C983 C 0.90097 0.46631 0.91529 0.0
C984 C 0.9141 0.45345 0.89111 0.0
C985 C 0.90959 0.43417 0.89035 0.0
C986 C 0.89243 0.42787 0.91449 0.0
H987 H 0.8741 0.43541 0.12661 0.0
H988 H 0.88976 0.43209 0.06118 0.0
H989 H 0.87946 0.45474 0.0755 0.0
H990 H 0.87418 0.47011 0.95935 0.0
H991 H 0.90412 0.48121 0.9172 0.0
H992 H 0.03968 0.21893 0.82564 0.0
H993 H 0.03526 0.18731 0.78273 0.0
H994 H 1.00301 0.17168 0.94458 0.0
H995 H 0.00751 0.20309 0.98812 0.0
H996 H 0.04706 0.15371 0.83362 0.0
H997 H 0.96965 0.15282 0.80342 0.0
H998 H 0.9827 0.17428 0.81597 0.0
H999 H 0.97691 0.15927 0.88059 0.0
C1000 C 0.03154 0.20882 0.85205 0.0
C1001 C 0.02391 0.21372 0.91044 0.0
C1002 C 0.02898 0.19073 0.8273 0.0
C1003 C 0.01861 0.17709 0.85997 0.0
C1004 C 0.0107 0.18201 0.91767 0.0
H1005 H 0.02549 0.05524 0.82589 0.0
H1006 H 0.02785 0.08821 0.85754 0.0
C1007 C 0.01326 0.20008 0.94249 0.0
C1008 C 0.01701 0.15745 0.83559 0.0
H1009 H 0.98533 0.12321 0.79595 0.0
C1010 C 0.03355 0.14709 0.82506 0.0
C1011 C 0.99941 0.1488 0.82365 0.0
C1012 C 0.98115 0.1594 0.83087 0.0
C1013 C 0.03298 0.12828 0.80454 0.0
C1014 C 0.01538 0.11939 0.79504 0.0
C1015 C 0.99883 0.12989 0.80392 0.0
C1016 C 0.01385 0.09923 0.77586 0.0
C1017 C 0.05128 0.11814 0.79253 0.0
C1018 C 0.00479 0.09428 0.72009 0.0
C1019 C 1.00333 0.07537 0.70191 0.0
C1020 C 0.0108 0.06092 0.73932 0.0
C1021 C 0.01965 0.06593 0.79562 0.0
C1022 C 0.02113 0.08484 0.81368 0.0
H1023 H 0.06311 0.12815 0.78558 0.0
H1024 H 0.05471 0.10918 0.83327 0.0
H1025 H 0.05021 0.10894 0.75088 0.0
H1026 H 0.99896 0.10511 0.69039 0.0
H1027 H 0.99621 0.07208 0.65875 0.0
H1028 H 0.29573 0.99081 0.92497 0.0
H1029 H 0.32753 0.98647 0.88282 0.0
H1030 H 0.33033 0.04563 0.83928 0.0
H1031 H 0.29851 0.0499 0.87957 0.0
H1032 H 0.34483 0.02621 0.74707 0.0
H1033 H 0.3758 0.99968 0.96692 0.0
H1034 H 0.35676 0.98541 0.93915 0.0
H1035 H 0.35236 0.00928 0.96323 0.0
C1036 C 0.30314 1.00287 0.90635 0.0
C1037 C 0.29451 0.02069 0.90557 0.0
C1038 C 0.3214 1.00041 0.88257 0.0
C1039 C 0.33161 0.01579 0.8588 0.0
C1040 C 0.32286 0.03351 0.85722 0.0
H1041 H 0.45304 0.02195 0.82099 0.0
H1042 H 0.42004 0.02417 0.85195 0.0
C1043 C 0.30458 0.03592 0.88017 0.0
C1044 C 0.35138 0.01365 0.83567 0.0
H1045 H 0.39541 0.99903 0.87794 0.0
C1046 C 0.35589 0.02028 0.77578 0.0
C1047 C 0.36597 0.00615 0.87318 0.0
C1048 C 0.36256 0.9999 0.93939 0.0
C1049 C 0.37444 0.01975 0.75262 0.0
C1050 C 0.38895 0.0118 0.78955 0.0
C1051 C 0.38439 0.00504 0.84925 0.0
C1052 C 0.40906 0.01094 0.76864 0.0
C1053 C 0.37827 0.02831 0.68957 0.0
C1054 C 0.41414 1.00278 0.7113 0.0
C1055 C 0.43307 1.00185 0.6929 0.0
C1056 C 0.44744 0.00861 0.73213 0.0
C1057 C 0.44237 0.01658 0.78967 0.0
C1058 C 0.42345 0.01781 0.80751 0.0
H1059 H 0.36736 0.03881 0.67674 0.0
H1060 H 0.39223 0.03528 0.68809 0.0
H1061 H 0.37799 0.01704 0.65381 0.0
H1062 H 0.40352 0.99683 0.68101 0.0
H1063 H 0.43646 0.99544 0.6485 0.0
H1064 H 0.48691 0.30503 0.99967 0.0
H1065 H 0.48942 0.33751 0.96314 0.0
H1066 H 0.50791 0.31779 0.78349 0.0
H1067 H 0.50586 0.28523 0.81989 0.0
H1068 H 0.52086 0.35798 0.91026 0.0
H1069 H 0.46124 0.35098 0.74462 0.0
H1070 H 0.46541 0.33429 0.80649 0.0
H1071 H 0.47942 0.33355 0.73691 0.0
C1072 C 0.4919 0.30753 0.95275 0.0
C1073 C 0.49615 0.29236 0.91277 0.0
C1074 C 0.49317 0.32617 0.93178 0.0
C1075 C 0.49854 0.33011 0.87024 0.0
C1076 C 0.50336 0.31509 0.8308 0.0
H1077 H 0.50576 0.43193 0.64562 0.0
H1078 H 0.50536 0.39965 0.68509 0.0
C1079 C 0.50218 0.29645 0.85176 0.0
C1080 C 0.49884 0.34988 0.84704 0.0
H1081 H 0.47823 0.37955 0.74188 0.0
C1082 C 0.51151 0.36273 0.87357 0.0
C1083 C 0.48665 0.35607 0.7991 0.0
C1084 C 0.47228 0.34309 0.77031 0.0
C1085 C 0.51262 0.38148 0.8526 0.0
C1086 C 0.50036 0.38773 0.80479 0.0
C1087 C 0.48765 0.37484 0.77843 0.0
C1088 C 0.50052 0.40751 0.78114 0.0
C1089 C 0.52731 0.39423 0.88075 0.0
C1090 C 0.4976 0.42279 0.8216 0.0
C1091 C 0.49794 0.44132 0.79919 0.0
C1092 C 0.50095 0.44501 0.73557 0.0
C1093 C 0.50344 0.42967 0.6949 0.0
C1094 C 0.50321 0.41116 0.71743 0.0
H1095 H 0.53893 0.38608 0.90242 0.0
H1096 H 0.53339 0.40381 0.84521 0.0
H1097 H 0.52071 0.40293 0.91771 0.0
H1098 H 0.49496 0.42041 0.87062 0.0
H1099 H 0.49581 0.45274 0.83184 0.0
H1100 H 0.21608 0.5181 0.92329 0.0
H1101 H 0.18425 0.52233 0.88128 0.0
H1102 H 0.1824 0.46356 0.83158 0.0
H1103 H 0.21426 0.45941 0.87176 0.0
H1104 H 0.16766 0.48358 0.74125 0.0
H1105 H 0.13611 0.50764 0.96337 0.0
H1106 H 0.15497 0.52245 0.93744 0.0
H1107 H 0.15969 0.49842 0.95896 0.0
C1108 C 0.20887 0.50609 0.90337 0.0
C1109 C 0.21778 0.48843 0.90084 0.0
C1110 C 0.1906 0.50849 0.87965 0.0
C1111 C 0.18064 0.49318 0.85418 0.0
C1112 C 0.18967 0.47562 0.85087 0.0
H1113 H 0.0593 0.48601 0.81349 0.0
H1114 H 0.09227 0.48379 0.84476 0.0
C1115 C 0.20797 0.47328 0.87376 0.0
C1116 C 0.16086 0.49525 0.83103 0.0
H1117 H 0.11661 0.509 0.87417 0.0
C1118 C 0.15649 0.48912 0.77042 0.0
C1119 C 0.14613 0.50222 0.86911 0.0
C1120 C 0.14938 0.50788 0.93601 0.0
C1121 C 0.13797 0.48969 0.74702 0.0
C1122 C 0.12332 0.49715 0.78454 0.0
C1123 C 0.12773 0.50337 0.84502 0.0
C1124 C 0.10324 0.49804 0.76336 0.0
C1125 C 0.13429 0.48168 0.68304 0.0
C1126 C 0.09817 0.50678 0.70699 0.0
C1127 C 0.07926 0.50775 0.6884 0.0
C1128 C 0.06489 0.50042 0.72648 0.0
C1129 C 0.06996 0.49184 0.78305 0.0
C1130 C 0.08886 0.4906 0.80108 0.0
H1131 H 0.14533 0.47142 0.66924 0.0
H1132 H 0.12041 0.47456 0.68071 0.0
H1133 H 0.13447 0.49327 0.64846 0.0
H1134 H 0.10879 0.51314 0.67765 0.0
H1135 H 0.07589 0.5146 0.64476 0.0
H1136 H 0.99057 0.78719 0.51254 0.0
H1137 H 0.98831 0.81914 0.55501 0.0
H1138 H 0.01622 0.84095 0.39213 0.0
H1139 H 0.01893 0.80913 0.35007 0.0
H1140 H 0.03175 0.85367 0.50491 0.0
H1141 H 0.95417 0.86318 0.50098 0.0
H1142 H 0.9623 0.84216 0.53896 0.0
H1143 H 0.96593 0.84504 0.45675 0.0
C1144 C 0.99612 0.7988 0.48556 0.0
C1145 C 0.00484 0.79554 0.42764 0.0
C1146 C 0.99469 0.81708 0.50972 0.0
C1147 C 1.00194 0.83249 0.47651 0.0
C1148 C 0.01043 0.82931 0.41844 0.0
H1149 H 0.98741 0.95226 0.53174 0.0
H1150 H 0.98713 0.91965 0.49572 0.0
C1151 C 0.0118 0.81108 0.39417 0.0
C1152 C 1.00153 0.85182 0.50327 0.0
H1153 H 0.97202 0.88713 0.54987 0.0
C1154 C 0.01869 0.86098 0.51485 0.0
C1155 C 0.98449 0.86141 0.51575 0.0
C1156 C 0.96564 0.85257 0.50207 0.0
C1157 C 0.01929 0.87941 0.53863 0.0
C1158 C 1.00225 0.88892 0.55198 0.0
C1159 C 0.98508 0.87979 0.54018 0.0
C1160 C 1.00198 0.90862 0.57566 0.0
C1161 C 0.03817 0.88873 0.54772 0.0
C1162 C 0.01018 0.9133 0.63316 0.0
C1163 C 0.01041 0.932 0.65395 0.0
C1164 C 1.00235 0.94642 0.61779 0.0
C1165 C 0.99382 0.94159 0.5608 0.0
C1166 C 0.9936 0.92291 0.54012 0.0
H1167 H 0.04951 0.88132 0.52189 0.0
H1168 H 0.03777 0.90362 0.53219 0.0
H1169 H 0.04184 0.88853 0.59794 0.0
H1170 H 0.01646 0.90248 0.66196 0.0
H1171 H 0.01707 0.93514 0.69805 0.0
H1172 H 0.72077 0.98511 0.50936 0.0
H1173 H 0.68874 0.98289 0.55106 0.0
H1174 H 0.66723 0.01042 0.38708 0.0
H1175 H 0.69914 0.01314 0.34585 0.0
H1176 H 0.65406 0.02615 0.49802 0.0
H1177 H 0.64498 0.94854 0.4982 0.0
H1178 H 0.6658 0.95687 0.53692 0.0
H1179 H 0.6633 0.96015 0.45439 0.0
C1180 C 0.70922 0.99059 0.48196 0.0
C1181 C 0.7126 0.99921 0.42399 0.0
C1182 C 0.69088 0.98917 0.50568 0.0
C1183 C 0.67552 0.99632 0.47196 0.0
C1184 C 0.67882 0.00471 0.41382 0.0
H1185 H 0.55553 0.98211 0.52731 0.0
H1186 H 0.58813 0.98157 0.4911 0.0
C1187 C 0.6971 0.00608 0.39001 0.0
C1188 C 0.65612 0.99594 0.4983 0.0
H1189 H 0.62094 0.9665 0.5465 0.0
C1190 C 0.64683 0.0131 0.50869 0.0
C1191 C 0.64661 0.97891 0.51174 0.0
C1192 C 0.65557 0.96004 0.49932 0.0
C1193 C 0.62838 0.01373 0.53234 0.0
C1194 C 0.61898 0.99672 0.54676 0.0
C1195 C 0.62821 0.97954 0.53603 0.0
C1196 C 0.5993 0.9965 0.57069 0.0
C1197 C 0.61893 0.03259 0.54028 0.0
C1198 C 0.59472 0.00479 0.62814 0.0
C1199 C 0.57603 0.00513 0.64913 0.0
C1200 C 0.56152 0.99715 0.6131 0.0
C1201 C 0.56627 0.98848 0.55624 0.0
C1202 C 0.58494 0.98811 0.53543 0.0
H1203 H 0.62632 0.04386 0.5141 0.0
H1204 H 0.60407 0.03202 0.52438 0.0
H1205 H 0.61897 0.03648 0.59033 0.0
H1206 H 0.60559 0.01108 0.6567 0.0
H1207 H 0.57297 0.01184 0.69329 0.0
H1208 H 0.53556 0.7121 0.44006 0.0
H1209 H 0.53921 0.67982 0.47924 0.0
H1210 H 0.47886 0.67298 0.47788 0.0
H1211 H 0.47526 0.70538 0.44216 0.0
H1212 H 0.49144 0.65891 0.57855 0.0
H1213 H 0.53639 0.63147 0.38853 0.0
H1214 H 0.547 0.65094 0.42829 0.0
H1215 H 0.52557 0.65437 0.38496 0.0
C1216 C 0.52314 0.70363 0.44821 0.0
C1217 C 0.50514 0.71125 0.43847 0.0
C1218 C 0.52521 0.68511 0.47004 0.0
C1219 C 0.50932 0.67369 0.48062 0.0
C1220 C 0.49137 0.68138 0.47036 0.0
H1221 H 0.50735 0.55175 0.51489 0.0
H1222 H 0.50757 0.5845 0.47971 0.0
C1223 C 0.48931 0.69993 0.44994 0.0
C1224 C 0.51109 0.65393 0.50396 0.0
H1225 H 0.53193 0.61138 0.47562 0.0
C1226 C 0.50027 0.64853 0.55578 0.0
C1227 C 0.52239 0.64019 0.47405 0.0
C1228 C 0.53334 0.64446 0.41552 0.0
C1229 C 0.50024 0.62993 0.57804 0.0
C1230 C 0.51208 0.61635 0.54961 0.0
C1231 C 0.523 0.62175 0.49801 0.0
C1232 C 0.51278 0.59634 0.57108 0.0
C1233 C 0.48689 0.62497 0.63022 0.0
C1234 C 0.51607 0.59188 0.63395 0.0
C1235 C 0.51552 0.57317 0.65435 0.0
C1236 C 0.51231 0.55842 0.61199 0.0
C1237 C 0.50992 0.56279 0.54865 0.0
C1238 C 0.51004 0.58154 0.5285 0.0
H1239 H 0.4749 0.63499 0.63268 0.0
H1240 H 0.48113 0.61055 0.62454 0.0
H1241 H 0.49448 0.62573 0.67529 0.0
H1242 H 0.51891 0.60288 0.66753 0.0
H1243 H 0.51764 0.57026 0.70336 0.0
H1244 H 0.80888 0.52878 0.35518 0.0
H1245 H 0.84098 0.53057 0.39645 0.0
H1246 H 0.82646 0.49076 0.5399 0.0
H1247 H 0.79477 0.48819 0.49762 0.0
H1248 H 0.85524 0.54069 0.51166 0.0
H1249 H 0.87205 0.46604 0.46164 0.0
H1250 H 0.85147 0.47754 0.43046 0.0
H1251 H 0.85149 0.46889 0.5092 0.0
C1252 C 0.81251 0.52032 0.39533 0.0
C1253 C 0.79912 0.50827 0.4227 0.0
C1254 C 0.83087 0.52145 0.41912 0.0
C1255 C 0.83628 0.51051 0.47057 0.0
C1256 C 0.82278 0.49903 0.49936 0.0
H1257 H 0.93988 0.4931 0.6794 0.0
H1258 H 0.90728 0.49408 0.64285 0.0
C1259 C 0.8045 0.49782 0.47556 0.0
C1260 C 0.85605 0.51089 0.49389 0.0
H1261 H 0.89407 0.48279 0.52376 0.0
C1262 C 0.86377 0.52805 0.51399 0.0
C1263 C 0.86723 0.4944 0.49686 0.0
C1264 C 0.86023 0.47571 0.47283 0.0
C1265 C 0.88215 0.52908 0.5382 0.0
C1266 C 0.89322 0.51256 0.54175 0.0
C1267 C 0.88554 0.49543 0.52144 0.0
C1268 C 0.91292 0.51272 0.56547 0.0
C1269 C 0.88946 0.54778 0.56101 0.0
C1270 C 0.927 0.52279 0.53402 0.0
C1271 C 0.94568 0.52225 0.55476 0.0
C1272 C 0.95072 0.51159 0.60745 0.0
C1273 C 0.93654 0.50159 0.63905 0.0
C1274 C 0.91787 0.50208 0.61808 0.0
H1275 H 0.87787 0.55797 0.56937 0.0
H1276 H 0.89761 0.54606 0.60475 0.0
H1277 H 0.89897 0.55385 0.52532 0.0
H1278 H 0.92361 0.53082 0.49267 0.0
H1279 H 0.95619 0.53009 0.52908 0.0
loop_
_geom_bond_atom_site_label_1
_geom_bond_atom_site_label_2
_geom_bond_distance
_geom_bond_site_symmetry_2
_ccdc_geom_bond_type
P0 O11 1.490 . S
P0 C14 1.812 . S
P0 C20 1.803 . S
P0 C26 1.819 . S
H1 C15 0.941 . S
H2 C16 0.939 . S
H3 C18 0.940 . S
H4 C19 0.940 . S
H5 C21 0.939 . S
H6 C22 0.942 . S
H7 C24 0.940 . S
H8 C25 0.939 . S
H9 C27 0.941 . S
H10 C31 0.939 . S
O11 P0 1.490 . S
H12 C28 0.939 . S
H13 C30 0.940 . S
C14 P0 1.812 . S
C14 C15 1.389 . S
C14 C19 1.391 . S
C15 H1 0.941 . S
C15 C14 1.389 . S
C15 C16 1.397 . S
C16 H2 0.939 . S
C16 C15 1.397 . S
C16 C17 1.378 . S
C17 C16 1.378 . S
C17 C18 1.378 . S
C18 H3 0.940 . S
C18 C17 1.378 . S
C18 C19 1.396 . S
C19 H4 0.940 . S
C19 C14 1.391 . S
C19 C18 1.396 . S
C20 P0 1.803 . S
C20 C21 1.378 . S
C20 C25 1.400 . S
C21 H5 0.939 . S
C21 C20 1.378 . S
C21 C22 1.361 . S
C22 H6 0.942 . S
C22 C21 1.361 . S
C22 C23 1.369 . S
C23 C22 1.369 . S
C23 C24 1.404 . S
C24 H7 0.940 . S
C24 C23 1.404 . S
C24 C25 1.389 . S
C25 H8 0.939 . S
C25 C20 1.400 . S
C25 C24 1.389 . S
C26 P0 1.819 . S
C26 C27 1.391 . S
C26 C31 1.391 . S
C27 H9 0.941 . S
C27 C26 1.391 . S
C27 C28 1.396 . S
C28 H12 0.939 . S
C28 C27 1.396 . S
C28 C29 1.397 . S
C29 C28 1.397 . S
C29 C30 1.385 . S
C30 H13 0.940 . S
C30 C29 1.385 . S
C30 C31 1.388 . S
C31 H10 0.939 . S
C31 C26 1.391 . S
C31 C30 1.388 . S
P32 O43 1.490 . S
P32 C46 1.812 . S
P32 C52 1.803 . S
P32 C58 1.819 . S
H33 C47 0.941 . S
H34 C48 0.939 . S
H35 C50 0.940 . S
H36 C51 0.940 . S
H37 C53 0.939 . S
H38 C54 0.942 . S
H39 C56 0.940 . S
H40 C57 0.939 . S
H41 C59 0.941 . S
H42 C63 0.939 1_655 S
O43 P32 1.490 . S
H44 C60 0.939 . S
H45 C62 0.940 . S
C46 P32 1.812 . S
C46 C47 1.389 . S
C46 C51 1.391 1_455 S
C47 H33 0.941 . S
C47 C46 1.389 . S
C47 C48 1.397 . S
C48 H34 0.939 . S
C48 C47 1.397 . S
C48 C49 1.378 . S
C49 C48 1.378 . S
C49 C50 1.378 1_455 S
C50 H35 0.940 . S
C50 C49 1.378 1_655 S
C50 C51 1.396 . S
C51 H36 0.940 . S
C51 C46 1.391 1_655 S
C51 C50 1.396 . S
C52 P32 1.803 . S
C52 C53 1.378 . S
C52 C57 1.400 1_455 S
C53 H37 0.939 . S
C53 C52 1.378 . S
C53 C54 1.361 . S
C54 H38 0.942 . S
C54 C53 1.361 . S
C54 C55 1.369 . S
C55 C54 1.369 . S
C55 C56 1.404 1_455 S
C56 H39 0.940 . S
C56 C55 1.404 1_655 S
C56 C57 1.389 . S
C57 H40 0.939 . S
C57 C52 1.400 1_655 S
C57 C56 1.389 . S
C58 P32 1.819 . S
C58 C59 1.391 . S
C58 C63 1.391 . S
C59 H41 0.941 . S
C59 C58 1.391 . S
C59 C60 1.396 . S
C60 H44 0.939 . S
C60 C59 1.396 . S
C60 C61 1.397 . S
C61 C60 1.397 . S
C61 C62 1.385 1_455 S
C62 H45 0.940 . S
C62 C61 1.385 1_655 S
C62 C63 1.388 1_655 S
C63 H42 0.939 1_455 S
C63 C58 1.391 . S
C63 C62 1.388 1_455 S
P64 O75 1.490 . S
P64 C78 1.812 . S
P64 C84 1.803 . S
P64 C90 1.819 . S
H65 C79 0.941 . S
H66 C80 0.939 . S
H67 C82 0.940 . S
H68 C83 0.976 . S
H69 C85 0.939 . S
H70 C86 0.942 . S
H71 C88 0.940 . S
H72 C89 0.939 . S
H73 C91 0.941 . S
H74 C95 0.939 1_565 S
O75 P64 1.490 . S
H76 C92 0.939 . S
H77 C94 0.940 . S
C78 P64 1.812 . S
C78 C79 1.389 . S
C78 C83 1.336 1_545 S
C79 H65 0.941 . S
C79 C78 1.389 . S
C79 C80 1.397 . S
C80 H66 0.939 . S
C80 C79 1.397 . S
C80 C81 1.378 . S
C81 C80 1.378 . S
C81 C82 1.378 1_545 S
C82 H67 0.940 . S
C82 C81 1.378 1_565 S
C82 C83 1.419 . S
C83 H68 0.976 . S
C83 C78 1.336 1_565 S
C83 C82 1.419 . S
C84 P64 1.803 . S
C84 C85 1.378 . S
C84 C89 1.400 1_545 S
C85 H69 0.939 . S
C85 C84 1.378 . S
C85 C86 1.361 . S
C86 H70 0.942 . S
C86 C85 1.361 . S
C86 C87 1.369 . S
C87 C86 1.369 . S
C87 C88 1.404 1_545 S
C88 H71 0.940 . S
C88 C87 1.404 1_565 S
C88 C89 1.389 . S
C89 H72 0.939 . S
C89 C84 1.400 1_565 S
C89 C88 1.389 . S
C90 P64 1.819 . S
C90 C91 1.391 . S
C90 C95 1.391 . S
C91 H73 0.941 . S
C91 C90 1.391 . S
C91 C92 1.396 . S
C92 H76 0.939 . S
C92 C91 1.396 . S
C92 C93 1.397 . S
C93 C92 1.397 . S
C93 C94 1.385 1_545 S
C94 H77 0.940 . S
C94 C93 1.385 1_565 S
C94 C95 1.388 1_565 S
C95 H74 0.939 1_545 S
C95 C90 1.391 . S
C95 C94 1.388 1_545 S
P96 O107 1.490 . S
P96 C110 1.812 . S
P96 C116 1.803 . S
P96 C122 1.819 . S
H97 C111 0.941 . S
H98 C112 0.939 . S
H99 C114 0.940 . S
H100 C115 0.940 . S
H101 C117 0.939 . S
H102 C118 0.942 . S
H103 C120 0.940 . S
H104 C121 0.939 . S
H105 C123 0.941 . S
H106 C127 0.939 . S
O107 P96 1.490 . S
H108 C124 0.939 . S
H109 C126 0.940 . S
C110 P96 1.812 . S
C110 C111 1.389 . S
C110 C115 1.391 . S
C111 H97 0.941 . S
C111 C110 1.389 . S
C111 C112 1.397 . S
C112 H98 0.939 . S
C112 C111 1.397 . S
C112 C113 1.378 . S
C113 C112 1.378 . S
C113 C114 1.378 . S
C114 H99 0.940 . S
C114 C113 1.378 . S
C114 C115 1.396 . S
C115 H100 0.940 . S
C115 C110 1.391 . S
C115 C114 1.396 . S
C116 P96 1.803 . S
C116 C117 1.378 . S
C116 C121 1.400 . S
C117 H101 0.939 . S
C117 C116 1.378 . S
C117 C118 1.361 . S
C118 H102 0.942 . S
C118 C117 1.361 . S
C118 C119 1.369 . S
C119 C118 1.369 . S
C119 C120 1.404 . S
C120 H103 0.940 . S
C120 C119 1.404 . S
C120 C121 1.389 . S
C121 H104 0.939 . S
C121 C116 1.400 . S
C121 C120 1.389 . S
C122 P96 1.819 . S
C122 C123 1.391 . S
C122 C127 1.391 . S
C123 H105 0.941 . S
C123 C122 1.391 . S
C123 C124 1.396 . S
C124 H108 0.939 . S
C124 C123 1.396 . S
C124 C125 1.397 . S
C125 C124 1.397 . S
C125 C126 1.385 . S
C126 H109 0.940 . S
C126 C125 1.385 . S
C126 C127 1.388 . S
C127 H106 0.939 . S
C127 C122 1.391 . S
C127 C126 1.388 . S
P128 O139 1.490 . S
P128 C142 1.812 1_554 S
P128 C148 1.803 . S
P128 C154 1.819 . S
H129 C143 0.941 . S
H130 C144 0.939 . S
H131 C146 0.940 . S
H132 C147 0.940 . S
H133 C149 0.939 . S
H134 C150 0.942 . S
H135 C152 0.940 . S
H136 C153 0.939 . S
H137 C155 0.941 . S
H138 C159 0.939 . S
O139 P128 1.490 . S
H140 C156 0.939 . S
H141 C158 0.940 . S
C142 P128 1.812 1_556 S
C142 C143 1.389 . S
C142 C147 1.391 . S
C143 H129 0.941 . S
C143 C142 1.389 . S
C143 C144 1.397 . S
C144 H130 0.939 . S
C144 C143 1.397 . S
C144 C145 1.378 . S
C145 C144 1.378 . S
C145 C146 1.378 . S
C146 H131 0.940 . S
C146 C145 1.378 . S
C146 C147 1.396 . S
C147 H132 0.940 . S
C147 C142 1.391 . S
C147 C146 1.396 . S
C148 P128 1.803 . S
C148 C149 1.378 . S
C148 C153 1.400 . S
C149 H133 0.939 . S
C149 C148 1.378 . S
C149 C150 1.361 . S
C150 H134 0.942 . S
C150 C149 1.361 . S
C150 C151 1.369 . S
C151 C150 1.369 . S
C151 C152 1.404 . S
C152 H135 0.940 . S
C152 C151 1.404 . S
C152 C153 1.389 . S
C153 H136 0.939 . S
C153 C148 1.400 . S
C153 C152 1.389 . S
C154 P128 1.819 . S
C154 C155 1.391 . S
C154 C159 1.391 . S
C155 H137 0.941 . S
C155 C154 1.391 . S
C155 C156 1.396 . S
C156 H140 0.939 . S
C156 C155 1.396 . S
C156 C157 1.397 . S
C157 C156 1.397 . S
C157 C158 1.385 . S
C158 H141 0.940 . S
C158 C157 1.385 . S
C158 C159 1.388 . S
C159 H138 0.939 . S
C159 C154 1.391 . S
C159 C158 1.388 . S
P160 O171 1.490 . S
P160 C174 1.812 1_554 S
P160 C180 1.803 . S
P160 C186 1.819 . S
H161 C175 0.941 . S
H162 C176 0.939 . S
H163 C178 0.940 . S
H164 C179 0.907 1_655 S
H165 C181 0.939 . S
H166 C182 0.942 . S
H167 C184 0.940 . S
H168 C185 0.914 1_655 S
H169 C187 0.941 . S
H170 C191 0.957 . S
O171 P160 1.490 . S
H172 C188 0.939 . S
H173 C190 0.940 . S
C174 P160 1.812 1_556 S
C174 C175 1.389 . S
C174 C179 1.447 . S
C175 H161 0.941 . S
C175 C174 1.389 . S
C175 C176 1.397 . S
C176 H162 0.939 . S
C176 C175 1.397 . S
C176 C177 1.378 . S
C177 C176 1.378 . S
C177 C178 1.378 1_455 S
C178 H163 0.940 . S
C178 C177 1.378 1_655 S
C178 C179 1.377 1_655 S
C179 H164 0.907 1_455 S
C179 C174 1.447 . S
C179 C178 1.377 1_455 S
C180 P160 1.803 . S
C180 C181 1.378 . S
C180 C185 1.441 . S
C181 H165 0.939 . S
C181 C180 1.378 . S
C181 C182 1.361 . S
C182 H166 0.942 . S
C182 C181 1.361 . S
C182 C183 1.369 . S
C183 C182 1.369 . S
C183 C184 1.404 1_455 S
C184 H167 0.940 . S
C184 C183 1.404 1_655 S
C184 C185 1.373 1_655 S
C185 H168 0.914 1_455 S
C185 C180 1.441 . S
C185 C184 1.373 1_455 S
C186 P160 1.819 . S
C186 C187 1.391 . S
C186 C191 1.391 . S
C187 H169 0.941 . S
C187 C186 1.391 . S
C187 C188 1.396 . S
C188 H172 0.939 . S
C188 C187 1.396 . S
C188 C189 1.397 . S
C189 C188 1.397 . S
C189 C190 1.385 1_455 S
C190 H173 0.940 . S
C190 C189 1.385 1_655 S
C190 C191 1.388 1_655 S
C191 H170 0.957 . S
C191 C186 1.391 . S
C191 C190 1.388 1_455 S
P192 O203 1.490 . S
P192 C206 1.812 1_554 S
P192 C212 1.803 . S
P192 C218 1.819 . S
H193 C207 0.941 . S
H194 C208 0.939 . S
H195 C210 0.940 . S
H196 C211 0.918 1_565 S
H197 C213 0.939 . S
H198 C214 0.942 . S
H199 C216 0.940 . S
H200 C217 0.926 1_565 S
H201 C219 0.941 . S
H202 C223 0.949 . S
O203 P192 1.490 . S
H204 C220 0.939 . S
H205 C222 0.940 . S
C206 P192 1.812 1_556 S
C206 C207 1.389 . S
C206 C211 1.427 . S
C207 H193 0.941 . S
C207 C206 1.389 . S
C207 C208 1.397 . S
C208 H194 0.939 . S
C208 C207 1.397 . S
C208 C209 1.378 . S
C209 C208 1.378 . S
C209 C210 1.378 1_545 S
C210 H195 0.940 . S
C210 C209 1.378 1_565 S
C210 C211 1.384 1_565 S
C211 H196 0.918 1_545 S
C211 C206 1.427 . S
C211 C210 1.384 1_545 S
C212 P192 1.803 . S
C212 C213 1.378 . S
C212 C217 1.421 . S
C213 H197 0.939 . S
C213 C212 1.378 . S
C213 C214 1.361 . S
C214 H198 0.942 . S
C214 C213 1.361 . S
C214 C215 1.369 . S
C215 C214 1.369 . S
C215 C216 1.404 1_545 S
C216 H199 0.940 . S
C216 C215 1.404 1_565 S
C216 C217 1.381 1_565 S
C217 H200 0.926 1_545 S
C217 C212 1.421 . S
C217 C216 1.381 1_545 S
C218 P192 1.819 . S
C218 C219 1.391 . S
C218 C223 1.391 . S
C219 H201 0.941 . S
C219 C218 1.391 . S
C219 C220 1.396 . S
C220 H204 0.939 . S
C220 C219 1.396 . S
C220 C221 1.397 . S
C221 C220 1.397 . S
C221 C222 1.385 1_545 S
C222 H205 0.940 . S
C222 C221 1.385 1_565 S
C222 C223 1.388 1_565 S
C223 H202 0.949 . S
C223 C218 1.391 . S
C223 C222 1.388 1_545 S
P224 O235 1.490 . S
P224 C238 1.812 1_554 S
P224 C244 1.803 . S
P224 C250 1.819 . S
H225 C239 0.941 . S
H226 C240 0.939 . S
H227 C242 0.940 . S
H228 C243 0.940 . S
H229 C245 0.939 . S
H230 C246 0.942 . S
H231 C248 0.940 . S
H232 C249 0.939 . S
H233 C251 0.941 . S
H234 C255 0.939 . S
O235 P224 1.490 . S
H236 C252 0.939 . S
H237 C254 0.940 . S
C238 P224 1.812 1_556 S
C238 C239 1.389 . S
C238 C243 1.391 . S
C239 H225 0.941 . S
C239 C238 1.389 . S
C239 C240 1.397 . S
C240 H226 0.939 . S
C240 C239 1.397 . S
C240 C241 1.378 . S
C241 C240 1.378 . S
C241 C242 1.378 . S
C242 H227 0.940 . S
C242 C241 1.378 . S
C242 C243 1.396 . S
C243 H228 0.940 . S
C243 C238 1.391 . S
C243 C242 1.396 . S
C244 P224 1.803 . S
C244 C245 1.378 . S
C244 C249 1.400 . S
C245 H229 0.939 . S
C245 C244 1.378 . S
C245 C246 1.361 . S
C246 H230 0.942 . S
C246 C245 1.361 . S
C246 C247 1.369 . S
C247 C246 1.369 . S
C247 C248 1.404 . S
C248 H231 0.940 . S
C248 C247 1.404 . S
C248 C249 1.389 . S
C249 H232 0.939 . S
C249 C244 1.400 . S
C249 C248 1.389 . S
C250 P224 1.819 . S
C250 C251 1.391 . S
C250 C255 1.391 . S
C251 H233 0.941 . S
C251 C250 1.391 . S
C251 C252 1.396 . S
C252 H236 0.939 . S
C252 C251 1.396 . S
C252 C253 1.397 . S
C253 C252 1.397 . S
C253 C254 1.385 . S
C254 H237 0.940 . S
C254 C253 1.385 . S
C254 C255 1.388 . S
C255 H234 0.939 . S
C255 C250 1.391 . S
C255 C254 1.388 . S
La256 C258 2.928 . S
La256 O276 2.521 . S
La256 O277 2.628 . S
La256 O278 2.554 . S
La256 O279 2.757 1_565 S
La256 O280 2.470 . S
La256 O285 2.482 1_455 S
La256 O287 2.503 1_565 S
La257 C267 2.928 . S
La257 O279 2.482 1_655 S
La257 O281 2.503 1_545 S
La257 O282 2.521 . S
La257 O283 2.628 . S
La257 O284 2.554 . S
La257 O285 2.757 1_545 S
La257 O286 2.470 . S
C258 La256 2.928 . S
C258 C259 1.503 . S
C258 O276 1.261 . S
C258 O277 1.243 . S
C259 C258 1.503 . S
C259 C260 1.394 . S
C259 C264 1.373 . S
C260 C259 1.394 . S
C260 C261 1.380 . S
C260 H288 0.930 . S
C261 C260 1.380 . S
C261 C262 1.376 . S
C261 H289 0.930 . S
C262 C261 1.376 . S
C262 C263 1.370 . S
C263 C262 1.370 . S
C263 C264 1.396 . S
C263 H290 0.929 1_455 S
C264 C259 1.373 . S
C264 C263 1.396 . S
C264 H291 0.929 1_455 S
C265 O278 1.265 . S
C265 O279 1.274 1_565 S
C266 O280 1.258 1_655 S
C266 O281 1.256 . S
C267 La257 2.928 . S
C267 C268 1.503 . S
C267 O282 1.261 . S
C267 O283 1.243 . S
C268 C267 1.503 . S
C268 C269 1.394 . S
C268 C273 1.373 . S
C269 C268 1.394 . S
C269 C270 1.380 . S
C269 H292 0.930 . S
C270 C269 1.380 . S
C270 C271 1.376 . S
C270 H293 0.930 . S
C271 C270 1.376 . S
C271 C272 1.370 . S
C272 C271 1.370 . S
C272 C273 1.396 . S
C272 H294 0.929 1_655 S
C273 C268 1.373 . S
C273 C272 1.396 . S
C273 H295 0.929 1_655 S
C274 O284 1.274 . S
C274 O285 1.270 1_545 S
C275 O286 1.258 1_455 S
C275 O287 1.256 . S
O276 La256 2.521 . S
O276 C258 1.261 . S
O277 La256 2.628 . S
O277 C258 1.243 . S
O278 La256 2.554 . S
O278 C265 1.265 . S
O279 La256 2.757 1_545 S
O279 La257 2.482 1_455 S
O279 C265 1.274 1_545 S
O280 La256 2.470 . S
O280 C266 1.258 1_455 S
O281 La257 2.503 1_565 S
O281 C266 1.256 . S
O282 La257 2.521 . S
O282 C267 1.261 . S
O283 La257 2.628 . S
O283 C267 1.243 . S
O284 La257 2.554 . S
O284 C274 1.274 . S
O285 La256 2.482 1_655 S
O285 La257 2.757 1_565 S
O285 C274 1.270 1_565 S
O286 La257 2.470 . S
O286 C275 1.258 1_655 S
O287 La256 2.503 1_545 S
O287 C275 1.256 . S
H288 C260 0.930 . S
H289 C261 0.930 . S
H290 C263 0.929 1_655 S
H291 C264 0.929 1_655 S
H292 C269 0.930 . S
H293 C270 0.930 . S
H294 C272 0.929 1_455 S
H295 C273 0.929 1_455 S
La296 C298 2.928 . S
La296 O316 2.521 . S
La296 O317 2.628 . S
La296 O318 2.554 . S
La296 O319 2.757 . S
La296 O320 2.470 . S
La296 O325 2.482 1_545 S
La296 O327 2.503 . S
La297 C307 2.928 . S
La297 O319 2.482 1_565 S
La297 O321 2.503 . S
La297 O322 2.521 . S
La297 O323 2.628 . S
La297 O324 2.554 . S
La297 O325 2.757 . S
La297 O326 2.470 . S
C298 La296 2.928 . S
C298 C299 1.503 . S
C298 O316 1.261 . S
C298 O317 1.243 . S
C299 C298 1.503 . S
C299 C300 1.394 . S
C299 C304 1.373 . S
C300 C299 1.394 . S
C300 C301 1.380 . S
C300 H328 0.930 . S
C301 C300 1.380 . S
C301 C302 1.376 . S
C301 H329 0.930 . S
C302 C301 1.376 . S
C302 C303 1.370 . S
C303 C302 1.370 . S
C303 C304 1.396 . S
C303 H330 0.929 1_545 S
C304 C299 1.373 . S
C304 C303 1.396 . S
C304 H331 0.929 1_545 S
C305 O318 1.240 . S
C305 O319 1.289 . S
C306 O320 1.258 1_565 S
C306 O321 1.256 . S
C307 La297 2.928 . S
C307 C308 1.503 . S
C307 O322 1.261 . S
C307 O323 1.243 . S
C308 C307 1.503 . S
C308 C309 1.394 . S
C308 C313 1.373 . S
C309 C308 1.394 . S
C309 C310 1.380 . S
C309 H332 0.930 . S
C310 C309 1.380 . S
C310 C311 1.376 . S
C310 H333 0.930 . S
C311 C310 1.376 . S
C311 C312 1.370 . S
C312 C311 1.370 . S
C312 C313 1.396 . S
C312 H334 0.929 1_565 S
C313 C308 1.373 . S
C313 C312 1.396 . S
C313 H335 0.929 1_565 S
C314 O324 1.240 . S
C314 O325 1.289 . S
C315 O326 1.258 1_545 S
C315 O327 1.256 . S
O316 La296 2.521 . S
O316 C298 1.261 . S
O317 La296 2.628 . S
O317 C298 1.243 . S
O318 La296 2.554 . S
O318 C305 1.240 . S
O319 La296 2.757 . S
O319 La297 2.482 1_545 S
O319 C305 1.289 . S
O320 La296 2.470 . S
O320 C306 1.258 1_545 S
O321 La297 2.503 . S
O321 C306 1.256 . S
O322 La297 2.521 . S
O322 C307 1.261 . S
O323 La297 2.628 . S
O323 C307 1.243 . S
O324 La297 2.554 . S
O324 C314 1.240 . S
O325 La296 2.482 1_565 S
O325 La297 2.757 . S
O325 C314 1.289 . S
O326 La297 2.470 . S
O326 C315 1.258 1_565 S
O327 La296 2.503 . S
O327 C315 1.256 . S
H328 C300 0.930 . S
H329 C301 0.930 . S
H330 C303 0.929 1_565 S
H331 C304 0.929 1_565 S
H332 C309 0.930 . S
H333 C310 0.930 . S
H334 C312 0.929 1_545 S
H335 C313 0.929 1_545 S
La336 C338 2.928 . S
La336 O356 2.521 . S
La336 O357 2.628 . S
La336 O358 2.554 . S
La336 O359 2.757 . S
La336 O360 2.470 . S
La336 O365 2.482 . S
La336 O367 2.503 . S
La337 C347 2.928 . S
La337 O359 2.482 . S
La337 O361 2.503 . S
La337 O362 2.521 . S
La337 O363 2.628 . S
La337 O364 2.554 . S
La337 O365 2.757 . S
La337 O366 2.470 . S
C338 La336 2.928 . S
C338 C339 1.503 . S
C338 O356 1.261 . S
C338 O357 1.243 . S
C339 C338 1.503 . S
C339 C340 1.394 . S
C339 C344 1.373 . S
C340 C339 1.394 . S
C340 C341 1.380 . S
C340 H368 0.930 . S
C341 C340 1.380 . S
C341 C342 1.376 . S
C341 H369 0.930 . S
C342 C341 1.376 . S
C342 C343 1.370 . S
C343 C342 1.370 . S
C343 C344 1.396 . S
C343 H370 0.929 . S
C344 C339 1.373 . S
C344 C343 1.396 . S
C344 H371 0.929 . S
C345 O358 1.240 . S
C345 O359 1.289 . S
C346 O360 1.258 . S
C346 O361 1.256 . S
C347 La337 2.928 . S
C347 C348 1.503 . S
C347 O362 1.261 . S
C347 O363 1.243 . S
C348 C347 1.503 . S
C348 C349 1.394 . S
C348 C353 1.373 . S
C349 C348 1.394 . S
C349 C350 1.380 . S
C349 H372 0.930 . S
C350 C349 1.380 . S
C350 C351 1.376 . S
C350 H373 0.930 . S
C351 C350 1.376 . S
C351 C352 1.370 . S
C352 C351 1.370 . S
C352 C353 1.396 . S
C352 H374 0.929 . S
C353 C348 1.373 . S
C353 C352 1.396 . S
C353 H375 0.929 . S
C354 O364 1.240 . S
C354 O365 1.289 . S
C355 O366 1.258 . S
C355 O367 1.256 . S
O356 La336 2.521 . S
O356 C338 1.261 . S
O357 La336 2.628 . S
O357 C338 1.243 . S
O358 La336 2.554 . S
O358 C345 1.240 . S
O359 La336 2.757 . S
O359 La337 2.482 . S
O359 C345 1.289 . S
O360 La336 2.470 . S
O360 C346 1.258 . S
O361 La337 2.503 . S
O361 C346 1.256 . S
O362 La337 2.521 . S
O362 C347 1.261 . S
O363 La337 2.628 . S
O363 C347 1.243 . S
O364 La337 2.554 . S
O364 C354 1.240 . S
O365 La336 2.482 . S
O365 La337 2.757 . S
O365 C354 1.289 . S
O366 La337 2.470 . S
O366 C355 1.258 . S
O367 La336 2.503 . S
O367 C355 1.256 . S
H368 C340 0.930 . S
H369 C341 0.930 . S
H370 C343 0.929 . S
H371 C344 0.929 . S
H372 C349 0.930 . S
H373 C350 0.930 . S
H374 C352 0.929 . S
H375 C353 0.929 . S
La376 C378 2.928 . S
La376 O396 2.521 . S
La376 O397 2.628 . S
La376 O398 2.554 . S
La376 O399 2.757 1_655 S
La376 O400 2.470 . S
La376 O405 2.482 . S
La376 O407 2.503 1_655 S
La377 C387 2.928 . S
La377 O399 2.482 . S
La377 O401 2.503 1_455 S
La377 O402 2.521 . S
La377 O403 2.628 . S
La377 O404 2.554 . S
La377 O405 2.757 1_455 S
La377 O406 2.470 . S
C378 La376 2.928 . S
C378 C379 1.503 . S
C378 O396 1.261 . S
C378 O397 1.243 . S
C379 C378 1.503 . S
C379 C380 1.394 . S
C379 C384 1.373 . S
C380 C379 1.394 . S
C380 C381 1.380 . S
C380 H408 0.930 . S
C381 C380 1.380 . S
C381 C382 1.376 . S
C381 H409 0.930 . S
C382 C381 1.376 . S
C382 C383 1.370 . S
C383 C382 1.370 . S
C383 C384 1.396 . S
C383 H410 0.929 . S
C384 C379 1.373 . S
C384 C383 1.396 . S
C384 H411 0.929 . S
C385 O398 1.264 . S
C385 O399 1.275 1_655 S
C386 O400 1.258 . S
C386 O401 1.256 . S
C387 La377 2.928 . S
C387 C388 1.503 . S
C387 O402 1.261 . S
C387 O403 1.243 . S
C388 C387 1.503 . S
C388 C389 1.394 . S
C388 C393 1.373 . S
C389 C388 1.394 . S
C389 C390 1.380 . S
C389 H412 0.930 . S
C390 C389 1.380 . S
C390 C391 1.376 . S
C390 H413 0.930 . S
C391 C390 1.376 . S
C391 C392 1.370 . S
C392 C391 1.370 . S
C392 C393 1.396 . S
C392 H414 0.929 . S
C393 C388 1.373 . S
C393 C392 1.396 . S
C393 H415 0.929 . S
C394 O404 1.272 . S
C394 O405 1.271 1_455 S
C395 O406 1.258 . S
C395 O407 1.256 . S
O396 La376 2.521 . S
O396 C378 1.261 . S
O397 La376 2.628 . S
O397 C378 1.243 . S
O398 La376 2.554 . S
O398 C385 1.264 . S
O399 La376 2.757 1_455 S
O399 La377 2.482 . S
O399 C385 1.275 1_455 S
O400 La376 2.470 . S
O400 C386 1.258 . S
O401 La377 2.503 1_655 S
O401 C386 1.256 . S
O402 La377 2.521 . S
O402 C387 1.261 . S
O403 La377 2.628 . S
O403 C387 1.243 . S
O404 La377 2.554 . S
O404 C394 1.272 . S
O405 La376 2.482 . S
O405 La377 2.757 1_655 S
O405 C394 1.271 1_655 S
O406 La377 2.470 . S
O406 C395 1.258 . S
O407 La376 2.503 1_455 S
O407 C395 1.256 . S
H408 C380 0.930 . S
H409 C381 0.930 . S
H410 C383 0.929 . S
H411 C384 0.929 . S
H412 C389 0.930 . S
H413 C390 0.930 . S
H414 C392 0.929 . S
H415 C393 0.929 . S
H416 C424 0.929 . S
H417 C426 0.930 . S
H418 C428 0.930 . S
H419 C431 0.929 . S
H420 C434 0.930 . S
H421 C436 0.960 . S
H422 C436 0.960 . S
H423 C436 0.960 . S
C424 H416 0.929 . S
C424 C425 1.377 . S
C424 C426 1.384 . S
C425 C424 1.377 . S
C425 C431 1.390 1_545 S
C426 H417 0.930 . S
C426 C424 1.384 . S
C426 C427 1.372 . S
C427 C426 1.372 . S
C427 C428 1.400 1_545 S
C427 C432 1.490 . S
C428 H418 0.930 . S
C428 C427 1.400 1_565 S
C428 C431 1.386 . S
H429 C445 0.930 . S
H430 C446 0.931 . S
C431 H419 0.929 . S
C431 C425 1.390 1_565 S
C431 C428 1.386 . S
C432 C427 1.490 . S
C432 C434 1.395 1_545 S
C432 C435 1.403 . S
H433 C439 0.930 . S
C434 H420 0.930 . S
C434 C432 1.395 1_565 S
C434 C437 1.403 . S
C435 C432 1.403 . S
C435 C436 1.524 . S
C435 C439 1.400 . S
C436 H421 0.960 . S
C436 H422 0.960 . S
C436 H423 0.960 . S
C436 C435 1.524 . S
C437 C434 1.403 . S
C437 C438 1.392 . S
C437 C441 1.495 . S
C438 C437 1.392 . S
C438 C439 1.385 1_565 S
C438 C440 1.478 . S
C439 H433 0.930 . S
C439 C435 1.400 . S
C439 C438 1.385 1_545 S
C440 C438 1.478 . S
C440 C442 1.381 1_565 S
C440 C446 1.383 . S
C441 C437 1.495 . S
C441 H447 0.959 . S
C441 H448 0.961 . S
C441 H449 0.960 . S
C442 C440 1.381 1_545 S
C442 C443 1.394 . S
C442 H450 0.930 . S
C443 C442 1.394 . S
C443 C444 1.386 . S
C443 H451 0.929 . S
C444 C443 1.386 . S
C444 C445 1.374 1_545 S
C445 H429 0.930 . S
C445 C444 1.374 1_565 S
C445 C446 1.379 . S
C446 H430 0.931 . S
C446 C440 1.383 . S
C446 C445 1.379 . S
H447 C441 0.959 . S
H448 C441 0.961 . S
H449 C441 0.960 . S
H450 C442 0.930 . S
H451 C443 0.929 . S
H452 C460 0.929 . S
H453 C462 0.930 . S
H454 C464 0.930 . S
H455 C467 0.929 . S
H456 C470 0.930 . S
H457 C472 0.960 . S
H458 C472 0.960 . S
H459 C472 0.960 . S
C460 H452 0.929 . S
C460 C461 1.377 . S
C460 C462 1.384 . S
C461 C460 1.377 . S
C461 C467 1.390 . S
C462 H453 0.930 . S
C462 C460 1.384 . S
C462 C463 1.372 . S
C463 C462 1.372 . S
C463 C464 1.400 . S
C463 C468 1.490 . S
C464 H454 0.930 . S
C464 C463 1.400 . S
C464 C467 1.386 . S
H465 C481 0.930 . S
H466 C482 0.931 . S
C467 H455 0.929 . S
C467 C461 1.390 . S
C467 C464 1.386 . S
C468 C463 1.490 . S
C468 C470 1.395 . S
C468 C471 1.403 . S
H469 C475 0.930 . S
C470 H456 0.930 . S
C470 C468 1.395 . S
C470 C473 1.403 . S
C471 C468 1.403 . S
C471 C472 1.524 . S
C471 C475 1.400 . S
C472 H457 0.960 . S
C472 H458 0.960 . S
C472 H459 0.960 . S
C472 C471 1.524 . S
C473 C470 1.403 . S
C473 C474 1.392 . S
C473 C477 1.495 . S
C474 C473 1.392 . S
C474 C475 1.385 . S
C474 C476 1.478 . S
C475 H469 0.930 . S
C475 C471 1.400 . S
C475 C474 1.385 . S
C476 C474 1.478 . S
C476 C478 1.381 . S
C476 C482 1.383 . S
C477 C473 1.495 . S
C477 H483 0.959 . S
C477 H484 0.961 . S
C477 H485 0.960 . S
C478 C476 1.381 . S
C478 C479 1.394 . S
C478 H486 0.930 . S
C479 C478 1.394 . S
C479 C480 1.383 . S
C479 H487 0.929 . S
C480 C479 1.383 . S
C480 C481 1.377 . S
C481 H465 0.930 . S
C481 C480 1.377 . S
C481 C482 1.379 . S
C482 H466 0.931 . S
C482 C476 1.383 . S
C482 C481 1.379 . S
H483 C477 0.959 . S
H484 C477 0.961 . S
H485 C477 0.960 . S
H486 C478 0.930 . S
H487 C479 0.929 . S
H488 C496 0.929 . S
H489 C498 0.930 . S
H490 C500 0.930 . S
H491 C503 0.929 . S
H492 C506 0.930 . S
H493 C508 0.960 . S
H494 C508 0.960 . S
H495 C508 0.960 . S
C496 H488 0.929 . S
C496 C497 1.377 . S
C496 C498 1.384 . S
C497 C496 1.377 . S
C497 C503 1.390 . S
C498 H489 0.930 . S
C498 C496 1.384 . S
C498 C499 1.372 . S
C499 C498 1.372 . S
C499 C500 1.400 . S
C499 C504 1.490 . S
C500 H490 0.930 . S
C500 C499 1.400 . S
C500 C503 1.386 . S
H501 C517 0.930 . S
H502 C518 0.931 . S
C503 H491 0.929 . S
C503 C497 1.390 . S
C503 C500 1.386 . S
C504 C499 1.490 . S
C504 C506 1.395 . S
C504 C507 1.403 . S
H505 C511 0.930 . S
C506 H492 0.930 . S
C506 C504 1.395 . S
C506 C509 1.403 . S
C507 C504 1.403 . S
C507 C508 1.524 . S
C507 C511 1.400 . S
C508 H493 0.960 . S
C508 H494 0.960 . S
C508 H495 0.960 . S
C508 C507 1.524 . S
C509 C506 1.403 . S
C509 C510 1.392 . S
C509 C513 1.495 . S
C510 C509 1.392 . S
C510 C511 1.385 . S
C510 C512 1.478 . S
C511 H505 0.930 . S
C511 C507 1.400 . S
C511 C510 1.385 . S
C512 C510 1.478 . S
C512 C514 1.381 . S
C512 C518 1.383 . S
C513 C509 1.495 . S
C513 H519 0.959 . S
C513 H520 0.961 . S
C513 H521 0.960 . S
C514 C512 1.381 . S
C514 C515 1.394 . S
C514 H522 0.930 . S
C515 C514 1.394 . S
C515 C516 1.383 . S
C515 H523 0.929 . S
C516 C515 1.383 . S
C516 C517 1.377 . S
C517 H501 0.930 . S
C517 C516 1.377 . S
C517 C518 1.379 . S
C518 H502 0.931 . S
C518 C512 1.383 . S
C518 C517 1.379 . S
H519 C513 0.959 . S
H520 C513 0.961 . S
H521 C513 0.960 . S
H522 C514 0.930 . S
H523 C515 0.929 . S
H524 C532 0.929 . S
H525 C534 0.930 . S
H526 C536 0.930 . S
H527 C539 0.929 . S
H528 C542 0.930 . S
H529 C544 0.960 . S
H530 C544 0.960 . S
H531 C544 0.960 1_655 S
C532 H524 0.929 . S
C532 C533 1.377 . S
C532 C534 1.384 . S
C533 C532 1.377 . S
C533 C539 1.390 1_455 S
C534 H525 0.930 . S
C534 C532 1.384 . S
C534 C535 1.372 . S
C535 C534 1.372 . S
C535 C536 1.400 1_455 S
C535 C540 1.490 . S
C536 H526 0.930 . S
C536 C535 1.400 1_655 S
C536 C539 1.386 . S
H537 C553 0.930 . S
H538 C554 0.931 . S
C539 H527 0.929 . S
C539 C533 1.390 1_655 S
C539 C536 1.386 . S
C540 C535 1.490 . S
C540 C542 1.395 . S
C540 C543 1.403 . S
H541 C547 0.930 . S
C542 H528 0.930 . S
C542 C540 1.395 . S
C542 C545 1.403 . S
C543 C540 1.403 . S
C543 C544 1.524 . S
C543 C547 1.400 . S
C544 H529 0.960 . S
C544 H530 0.960 . S
C544 H531 0.960 1_455 S
C544 C543 1.524 . S
C545 C542 1.403 . S
C545 C546 1.392 . S
C545 C549 1.495 . S
C546 C545 1.392 . S
C546 C547 1.385 . S
C546 C548 1.478 . S
C547 H541 0.930 . S
C547 C543 1.400 . S
C547 C546 1.385 . S
C548 C546 1.478 . S
C548 C550 1.381 . S
C548 C554 1.383 1_455 S
C549 C545 1.495 . S
C549 H555 0.959 1_455 S
C549 H556 0.967 1_455 S
C549 H557 0.954 . S
C550 C548 1.381 . S
C550 C551 1.394 . S
C550 H558 0.930 . S
C551 C550 1.394 . S
C551 C552 1.383 . S
C551 H559 0.929 . S
C552 C551 1.383 . S
C552 C553 1.377 1_455 S
C553 H537 0.930 . S
C553 C552 1.377 1_655 S
C553 C554 1.379 . S
C554 H538 0.931 . S
C554 C548 1.383 1_655 S
C554 C553 1.379 . S
H555 C549 0.959 1_655 S
H556 C549 0.967 1_655 S
H557 C549 0.954 . S
H558 C550 0.930 . S
H559 C551 0.929 . S
H560 C568 0.929 . S
H561 C570 0.930 . S
H562 C572 0.930 . S
H563 C575 0.929 . S
H564 C578 0.930 . S
H565 C580 0.960 . S
H566 C580 0.960 . S
H567 C580 0.960 . S
C568 H560 0.929 . S
C568 C569 1.377 . S
C568 C570 1.384 . S
C569 C568 1.377 . S
C569 C575 1.390 1_565 S
C570 H561 0.930 . S
C570 C568 1.384 . S
C570 C571 1.372 . S
C571 C570 1.372 . S
C571 C572 1.400 1_565 S
C571 C576 1.490 . S
C572 H562 0.930 . S
C572 C571 1.400 1_545 S
C572 C575 1.386 . S
H573 C589 0.930 . S
H574 C590 0.931 . S
C575 H563 0.929 . S
C575 C569 1.390 1_545 S
C575 C572 1.386 . S
C576 C571 1.490 . S
C576 C578 1.395 1_564 S
C576 C579 1.403 . S
H577 C583 0.930 . S
C578 H564 0.930 . S
C578 C576 1.395 1_546 S
C578 C581 1.403 . S
C579 C576 1.403 . S
C579 C580 1.524 . S
C579 C583 1.400 1_554 S
C580 H565 0.960 . S
C580 H566 0.960 . S
C580 H567 0.960 . S
C580 C579 1.524 . S
C581 C578 1.403 . S
C581 C582 1.392 1_545 S
C581 C585 1.495 . S
C582 C581 1.392 1_565 S
C582 C583 1.385 . S
C582 C584 1.477 1_565 S
C583 H577 0.930 . S
C583 C579 1.400 1_556 S
C583 C582 1.385 . S
C584 C582 1.477 1_545 S
C584 C586 1.371 1_545 S
C584 C590 1.393 . S
C585 C581 1.495 . S
C585 H591 0.959 . S
C585 H592 0.961 . S
C585 H593 0.960 . S
C586 C584 1.371 1_565 S
C586 C587 1.394 . S
C586 H594 0.930 . S
C587 C586 1.394 . S
C587 C588 1.401 . S
C587 H595 0.929 . S
C588 C587 1.401 . S
C588 C589 1.359 1_565 S
C589 H573 0.930 . S
C589 C588 1.359 1_545 S
C589 C590 1.379 . S
C590 H574 0.931 . S
C590 C584 1.393 . S
C590 C589 1.379 . S
H591 C585 0.959 . S
H592 C585 0.961 . S
H593 C585 0.960 . S
H594 C586 0.930 . S
H595 C587 0.929 . S
H596 C604 0.929 . S
H597 C606 0.930 . S
H598 C608 0.930 . S
H599 C611 0.929 . S
H600 C614 0.930 . S
H601 C616 0.960 . S
H602 C616 0.960 . S
H603 C616 0.960 . S
C604 H596 0.929 . S
C604 C605 1.377 . S
C604 C606 1.384 . S
C605 C604 1.377 . S
C605 C611 1.390 . S
C606 H597 0.930 . S
C606 C604 1.384 . S
C606 C607 1.372 . S
C607 C606 1.372 . S
C607 C608 1.400 . S
C607 C612 1.490 . S
C608 H598 0.930 . S
C608 C607 1.400 . S
C608 C611 1.386 . S
H609 C625 0.930 . S
H610 C626 0.931 . S
C611 H599 0.929 . S
C611 C605 1.390 . S
C611 C608 1.386 . S
C612 C607 1.490 . S
C612 C614 1.395 1_554 S
C612 C615 1.403 . S
H613 C619 0.931 . S
C614 H600 0.930 . S
C614 C612 1.395 1_556 S
C614 C617 1.403 . S
C615 C612 1.403 . S
C615 C616 1.524 . S
C615 C619 1.400 1_554 S
C616 H601 0.960 . S
C616 H602 0.960 . S
C616 H603 0.960 . S
C616 C615 1.524 . S
C617 C614 1.403 . S
C617 C618 1.392 . S
C617 C621 1.495 . S
C618 C617 1.392 . S
C618 C619 1.385 . S
C618 C620 1.478 . S
C619 H613 0.931 . S
C619 C615 1.400 1_556 S
C619 C618 1.385 . S
C620 C618 1.478 . S
C620 C622 1.381 . S
C620 C626 1.383 . S
C621 C617 1.495 . S
C621 H627 0.959 . S
C621 H628 0.961 . S
C621 H629 0.960 . S
C622 C620 1.381 . S
C622 C623 1.394 . S
C622 H630 0.930 . S
C623 C622 1.394 . S
C623 C624 1.383 . S
C623 H631 0.929 . S
C624 C623 1.383 . S
C624 C625 1.377 . S
C625 H609 0.930 . S
C625 C624 1.377 . S
C625 C626 1.379 . S
C626 H610 0.931 . S
C626 C620 1.383 . S
C626 C625 1.379 . S
H627 C621 0.959 . S
H628 C621 0.961 . S
H629 C621 0.960 . S
H630 C622 0.930 . S
H631 C623 0.929 . S
H632 C640 0.929 . S
H633 C642 0.930 . S
H634 C644 0.930 . S
H635 C647 0.929 . S
H636 C650 0.930 . S
H637 C652 0.960 . S
H638 C652 0.960 . S
H639 C652 0.960 1_554 S
C640 H632 0.929 . S
C640 C641 1.377 . S
C640 C642 1.384 . S
C641 C640 1.377 . S
C641 C647 1.390 . S
C642 H633 0.930 . S
C642 C640 1.384 . S
C642 C643 1.372 . S
C643 C642 1.372 . S
C643 C644 1.400 . S
C643 C648 1.490 . S
C644 H634 0.930 . S
C644 C643 1.400 . S
C644 C647 1.386 . S
H645 C661 0.930 . S
H646 C662 0.931 . S
C647 H635 0.929 . S
C647 C641 1.390 . S
C647 C644 1.386 . S
C648 C643 1.490 . S
C648 C650 1.395 . S
C648 C651 1.403 1_554 S
H649 C655 0.930 . S
C650 H636 0.930 . S
C650 C648 1.395 . S
C650 C653 1.403 . S
C651 C648 1.403 1_556 S
C651 C652 1.524 . S
C651 C655 1.400 . S
C652 H637 0.960 . S
C652 H638 0.960 . S
C652 H639 0.960 1_556 S
C652 C651 1.524 . S
C653 C650 1.403 . S
C653 C654 1.392 1_554 S
C653 C657 1.495 . S
C654 C653 1.392 1_556 S
C654 C655 1.385 . S
C654 C656 1.478 . S
C655 H649 0.930 . S
C655 C651 1.400 . S
C655 C654 1.385 . S
C656 C654 1.478 . S
C656 C658 1.381 . S
C656 C662 1.383 . S
C657 C653 1.495 . S
C657 H663 0.959 . S
C657 H664 0.961 . S
C657 H665 0.960 1_554 S
C658 C656 1.381 . S
C658 C659 1.394 . S
C658 H666 0.930 . S
C659 C658 1.394 . S
C659 C660 1.383 . S
C659 H667 0.929 . S
C660 C659 1.383 . S
C660 C661 1.377 . S
C661 H645 0.930 . S
C661 C660 1.377 . S
C661 C662 1.379 . S
C662 H646 0.931 . S
C662 C656 1.383 . S
C662 C661 1.379 . S
H663 C657 0.959 . S
H664 C657 0.961 . S
H665 C657 0.960 1_556 S
H666 C658 0.930 . S
H667 C659 0.929 . S
H668 C676 0.929 . S
H669 C678 0.930 . S
H670 C680 0.939 . S
H671 C683 0.929 . S
H672 C686 0.930 . S
H673 C688 0.960 . S
H674 C688 0.960 . S
H675 C688 0.960 . S
C676 H668 0.929 . S
C676 C677 1.377 . S
C676 C678 1.384 . S
C677 C676 1.377 . S
C677 C683 1.390 1_655 S
C678 H669 0.930 . S
C678 C676 1.384 . S
C678 C679 1.372 . S
C679 C678 1.372 . S
C679 C680 1.393 1_655 S
C679 C684 1.493 . S
C680 H670 0.939 . S
C680 C679 1.393 1_455 S
C680 C683 1.388 . S
H681 C697 0.930 . S
H682 C698 0.931 . S
C683 H671 0.929 . S
C683 C677 1.390 1_455 S
C683 C680 1.388 . S
C684 C679 1.493 . S
C684 C686 1.352 1_655 S
C684 C687 1.445 . S
H685 C691 0.930 . S
C686 H672 0.930 . S
C686 C684 1.352 1_455 S
C686 C689 1.403 1_554 S
C687 C684 1.445 . S
C687 C688 1.524 . S
C687 C691 1.400 1_554 S
C688 H673 0.960 . S
C688 H674 0.960 . S
C688 H675 0.960 . S
C688 C687 1.524 . S
C689 C686 1.403 1_556 S
C689 C690 1.392 . S
C689 C693 1.495 . S
C690 C689 1.392 . S
C690 C691 1.385 1_455 S
C690 C692 1.478 . S
C691 H685 0.930 . S
C691 C687 1.400 1_556 S
C691 C690 1.385 1_655 S
C692 C690 1.478 . S
C692 C694 1.381 1_455 S
C692 C698 1.383 . S
C693 C689 1.495 . S
C693 H699 0.959 . S
C693 H700 0.961 . S
C693 H701 0.960 . S
C694 C692 1.381 1_655 S
C694 C695 1.394 . S
C694 H702 0.930 . S
C695 C694 1.394 . S
C695 C696 1.383 . S
C695 H703 0.929 . S
C696 C695 1.383 . S
C696 C697 1.377 1_655 S
C697 H681 0.930 . S
C697 C696 1.377 1_455 S
C697 C698 1.379 . S
C698 H682 0.931 . S
C698 C692 1.383 . S
C698 C697 1.379 . S
H699 C693 0.959 . S
H700 C693 0.961 . S
H701 C693 0.960 . S
H702 C694 0.930 . S
H703 C695 0.929 . S
H704 C712 0.929 . S
H705 C714 0.930 . S
H706 C716 0.930 . S
H707 C719 0.929 . S
H708 C722 0.930 1_455 S
H709 C724 0.960 . S
H710 C724 0.960 . S
H711 C724 0.960 . S
C712 H704 0.929 . S
C712 C713 1.377 1_655 S
C712 C714 1.384 . S
C713 C712 1.377 1_455 S
C713 C719 1.390 . S
C714 H705 0.930 . S
C714 C712 1.384 . S
C714 C715 1.372 . S
C715 C714 1.372 . S
C715 C716 1.400 1_655 S
C715 C720 1.490 . S
C716 H706 0.930 . S
C716 C715 1.400 1_455 S
C716 C719 1.386 . S
H717 C733 0.930 . S
H718 C734 0.931 . S
C719 H707 0.929 . S
C719 C713 1.390 . S
C719 C716 1.386 . S
C720 C715 1.490 . S
C720 C722 1.395 . S
C720 C723 1.403 . S
H721 C727 0.930 . S
C722 H708 0.930 1_655 S
C722 C720 1.395 . S
C722 C725 1.403 . S
C723 C720 1.403 . S
C723 C724 1.524 . S
C723 C727 1.400 . S
C724 H709 0.960 . S
C724 H710 0.960 . S
C724 H711 0.960 . S
C724 C723 1.524 . S
C725 C722 1.403 . S
C725 C726 1.392 . S
C725 C729 1.495 . S
C726 C725 1.392 . S
C726 C727 1.385 . S
C726 C728 1.478 . S
C727 H721 0.930 . S
C727 C723 1.400 . S
C727 C726 1.385 . S
C728 C726 1.478 . S
C728 C730 1.381 . S
C728 C734 1.383 . S
C729 C725 1.495 . S
C729 H735 0.959 1_655 S
C729 H736 0.961 1_655 S
C729 H737 0.960 . S
C730 C728 1.381 . S
C730 C731 1.394 . S
C730 H738 0.930 . S
C731 C730 1.394 . S
C731 C732 1.383 . S
C731 H739 0.929 . S
C732 C731 1.383 . S
C732 C733 1.377 . S
C733 H717 0.930 . S
C733 C732 1.377 . S
C733 C734 1.379 . S
C734 H718 0.931 . S
C734 C728 1.383 . S
C734 C733 1.379 . S
H735 C729 0.959 1_455 S
H736 C729 0.961 1_455 S
H737 C729 0.960 . S
H738 C730 0.930 . S
H739 C731 0.929 . S
H740 C748 0.929 . S
H741 C750 0.930 . S
H742 C752 0.929 . S
H743 C755 0.929 . S
H744 C758 0.930 . S
H745 C760 0.960 . S
H746 C760 0.960 . S
H747 C760 0.960 . S
C748 H740 0.929 . S
C748 C749 1.377 1_565 S
C748 C750 1.384 . S
C749 C748 1.377 1_545 S
C749 C755 1.390 . S
C750 H741 0.930 . S
C750 C748 1.384 . S
C750 C751 1.372 . S
C751 C750 1.372 . S
C751 C752 1.410 . S
C751 C756 1.490 . S
C752 H742 0.929 . S
C752 C751 1.410 . S
C752 C755 1.378 1_565 S
H753 C769 0.930 . S
H754 C770 0.931 . S
C755 H743 0.929 . S
C755 C749 1.390 . S
C755 C752 1.378 1_545 S
C756 C751 1.490 . S
C756 C758 1.395 . S
C756 C759 1.403 1_565 S
H757 C763 0.930 1_545 S
C758 H744 0.930 . S
C758 C756 1.395 . S
C758 C761 1.403 . S
C759 C756 1.403 1_545 S
C759 C760 1.524 . S
C759 C763 1.400 1_545 S
C760 H745 0.960 . S
C760 H746 0.960 . S
C760 H747 0.960 . S
C760 C759 1.524 . S
C761 C758 1.403 . S
C761 C762 1.392 . S
C761 C765 1.495 . S
C762 C761 1.392 . S
C762 C763 1.385 . S
C762 C764 1.478 . S
C763 H757 0.930 1_565 S
C763 C759 1.400 1_565 S
C763 C762 1.385 . S
C764 C762 1.478 . S
C764 C766 1.381 . S
C764 C770 1.383 . S
C765 C761 1.495 . S
C765 H771 0.959 . S
C765 H772 0.961 . S
C765 H773 0.960 . S
C766 C764 1.381 . S
C766 C767 1.394 . S
C766 H774 0.930 . S
C767 C766 1.394 . S
C767 C768 1.383 . S
C767 H775 0.929 . S
C768 C767 1.383 . S
C768 C769 1.377 . S
C769 H753 0.930 . S
C769 C768 1.377 . S
C769 C770 1.379 . S
C770 H754 0.931 . S
C770 C764 1.383 . S
C770 C769 1.379 . S
H771 C765 0.959 . S
H772 C765 0.961 . S
H773 C765 0.960 . S
H774 C766 0.930 . S
H775 C767 0.929 . S
H776 C784 0.929 . S
H777 C786 0.930 . S
H778 C788 0.930 . S
H779 C791 0.929 . S
H780 C794 0.930 . S
H781 C796 0.960 . S
H782 C796 0.960 . S
H783 C796 0.960 . S
C784 H776 0.929 . S
C784 C785 1.377 . S
C784 C786 1.384 . S
C785 C784 1.377 . S
C785 C791 1.390 . S
C786 H777 0.930 . S
C786 C784 1.384 . S
C786 C787 1.372 . S
C787 C786 1.372 . S
C787 C788 1.400 . S
C787 C792 1.490 . S
C788 H778 0.930 . S
C788 C787 1.400 . S
C788 C791 1.386 . S
H789 C805 0.930 . S
H790 C806 0.931 . S
C791 H779 0.929 . S
C791 C785 1.390 . S
C791 C788 1.386 . S
C792 C787 1.490 . S
C792 C794 1.395 . S
C792 C795 1.403 . S
H793 C799 0.930 . S
C794 H780 0.930 . S
C794 C792 1.395 . S
C794 C797 1.403 . S
C795 C792 1.403 . S
C795 C796 1.524 . S
C795 C799 1.400 . S
C796 H781 0.960 . S
C796 H782 0.960 . S
C796 H783 0.960 . S
C796 C795 1.524 . S
C797 C794 1.403 . S
C797 C798 1.392 . S
C797 C801 1.495 . S
C798 C797 1.392 . S
C798 C799 1.385 . S
C798 C800 1.478 . S
C799 H793 0.930 . S
C799 C795 1.400 . S
C799 C798 1.385 . S
C800 C798 1.478 . S
C800 C802 1.381 . S
C800 C806 1.383 . S
C801 C797 1.495 . S
C801 H807 0.959 . S
C801 H808 0.961 . S
C801 H809 0.960 . S
C802 C800 1.381 . S
C802 C803 1.394 . S
C802 H810 0.930 . S
C803 C802 1.394 . S
C803 C804 1.383 . S
C803 H811 0.929 . S
C804 C803 1.383 . S
C804 C805 1.377 . S
C805 H789 0.930 . S
C805 C804 1.377 . S
C805 C806 1.379 . S
C806 H790 0.931 . S
C806 C800 1.383 . S
C806 C805 1.379 . S
H807 C801 0.959 . S
H808 C801 0.961 . S
H809 C801 0.960 . S
H810 C802 0.930 . S
H811 C803 0.929 . S
H812 C820 0.929 . S
H813 C822 0.930 . S
H814 C824 0.930 . S
H815 C827 0.929 . S
H816 C830 0.930 . S
H817 C832 0.960 . S
H818 C832 0.960 . S
H819 C832 0.960 . S
C820 H812 0.929 . S
C820 C821 1.377 . S
C820 C822 1.384 . S
C821 C820 1.377 . S
C821 C827 1.390 . S
C822 H813 0.930 . S
C822 C820 1.384 . S
C822 C823 1.372 . S
C823 C822 1.372 . S
C823 C824 1.400 . S
C823 C828 1.490 . S
C824 H814 0.930 . S
C824 C823 1.400 . S
C824 C827 1.386 . S
H825 C841 0.930 . S
H826 C842 0.931 . S
C827 H815 0.929 . S
C827 C821 1.390 . S
C827 C824 1.386 . S
C828 C823 1.490 . S
C828 C830 1.395 . S
C828 C831 1.403 . S
H829 C835 0.930 . S
C830 H816 0.930 . S
C830 C828 1.395 . S
C830 C833 1.403 . S
C831 C828 1.403 . S
C831 C832 1.524 . S
C831 C835 1.400 . S
C832 H817 0.960 . S
C832 H818 0.960 . S
C832 H819 0.960 . S
C832 C831 1.524 . S
C833 C830 1.403 . S
C833 C834 1.392 . S
C833 C837 1.495 . S
C834 C833 1.392 . S
C834 C835 1.385 . S
C834 C836 1.478 . S
C835 H829 0.930 . S
C835 C831 1.400 . S
C835 C834 1.385 . S
C836 C834 1.478 . S
C836 C838 1.381 . S
C836 C842 1.383 . S
C837 C833 1.495 . S
C837 H843 0.959 . S
C837 H844 0.961 . S
C837 H845 0.960 . S
C838 C836 1.381 . S
C838 C839 1.394 . S
C838 H846 0.930 . S
C839 C838 1.394 . S
C839 C840 1.383 . S
C839 H847 0.929 . S
C840 C839 1.383 . S
C840 C841 1.377 . S
C841 H825 0.930 . S
C841 C840 1.377 . S
C841 C842 1.379 . S
C842 H826 0.931 . S
C842 C836 1.383 . S
C842 C841 1.379 . S
H843 C837 0.959 . S
H844 C837 0.961 . S
H845 C837 0.960 . S
H846 C838 0.930 . S
H847 C839 0.929 . S
H848 C856 0.929 . S
H849 C858 0.930 . S
H850 C860 0.930 . S
H851 C863 0.929 . S
H852 C866 0.904 1_655 S
H853 C868 0.960 . S
H854 C868 0.960 . S
H855 C868 0.960 . S
C856 H848 0.929 . S
C856 C857 1.377 1_455 S
C856 C858 1.384 . S
C857 C856 1.377 1_655 S
C857 C863 1.390 . S
C858 H849 0.930 . S
C858 C856 1.384 . S
C858 C859 1.372 . S
C859 C858 1.372 . S
C859 C860 1.400 1_455 S
C859 C864 1.490 . S
C860 H850 0.930 . S
C860 C859 1.400 1_655 S
C860 C863 1.386 . S
H861 C877 0.930 . S
H862 C878 0.931 1_554 S
C863 H851 0.929 . S
C863 C857 1.390 . S
C863 C860 1.386 . S
C864 C859 1.490 . S
C864 C866 1.415 1_554 S
C864 C867 1.403 . S
H865 C871 0.930 . S
C866 H852 0.904 1_455 S
C866 C864 1.415 1_556 S
C866 C869 1.410 . S
C867 C864 1.403 . S
C867 C868 1.524 . S
C867 C871 1.400 . S
C868 H853 0.960 . S
C868 H854 0.960 . S
C868 H855 0.960 . S
C868 C867 1.524 . S
C869 C866 1.410 . S
C869 C870 1.392 . S
C869 C873 1.495 1_455 S
C870 C869 1.392 . S
C870 C871 1.385 1_556 S
C870 C872 1.478 . S
C871 H865 0.930 . S
C871 C867 1.400 . S
C871 C870 1.385 1_554 S
C872 C870 1.478 . S
C872 C874 1.381 . S
C872 C878 1.383 . S
C873 C869 1.495 1_655 S
C873 H879 0.959 . S
C873 H880 0.961 . S
C873 H881 0.960 1_655 S
C874 C872 1.381 . S
C874 C875 1.394 . S
C874 H882 0.930 . S
C875 C874 1.394 . S
C875 C876 1.383 . S
C875 H883 0.929 . S
C876 C875 1.383 . S
C876 C877 1.377 . S
C877 H861 0.930 . S
C877 C876 1.377 . S
C877 C878 1.379 . S
C878 H862 0.931 1_556 S
C878 C872 1.383 . S
C878 C877 1.379 . S
H879 C873 0.959 . S
H880 C873 0.961 . S
H881 C873 0.960 1_455 S
H882 C874 0.930 . S
H883 C875 0.929 . S
H884 C892 0.929 . S
H885 C894 0.930 . S
H886 C896 0.930 . S
H887 C899 0.929 . S
H888 C902 0.930 1_556 S
H889 C904 0.960 . S
H890 C904 0.960 . S
H891 C904 0.960 . S
C892 H884 0.929 . S
C892 C893 1.377 1_545 S
C892 C894 1.384 . S
C893 C892 1.377 1_565 S
C893 C899 1.390 . S
C894 H885 0.930 . S
C894 C892 1.384 . S
C894 C895 1.372 . S
C895 C894 1.372 . S
C895 C896 1.400 1_545 S
C895 C900 1.490 . S
C896 H886 0.930 . S
C896 C895 1.400 1_565 S
C896 C899 1.386 . S
H897 C913 0.930 . S
H898 C914 0.931 1_565 S
C899 H887 0.929 . S
C899 C893 1.390 . S
C899 C896 1.386 . S
C900 C895 1.490 . S
C900 C902 1.395 . S
C900 C903 1.403 . S
H901 C907 0.930 . S
C902 H888 0.930 1_554 S
C902 C900 1.395 . S
C902 C905 1.403 1_554 S
C903 C900 1.403 . S
C903 C904 1.524 1_545 S
C903 C907 1.400 . S
C904 H889 0.960 . S
C904 H890 0.960 . S
C904 H891 0.960 . S
C904 C903 1.524 1_565 S
C905 C902 1.403 1_556 S
C905 C906 1.392 . S
C905 C909 1.495 . S
C906 C905 1.392 . S
C906 C907 1.385 1_556 S
C906 C908 1.478 . S
C907 H901 0.930 . S
C907 C903 1.400 . S
C907 C906 1.385 1_554 S
C908 C906 1.478 . S
C908 C910 1.381 . S
C908 C914 1.383 . S
C909 C905 1.495 . S
C909 H915 0.959 . S
C909 H916 0.961 . S
C909 H917 0.960 . S
C910 C908 1.381 . S
C910 C911 1.394 . S
C910 H918 0.930 . S
C911 C910 1.394 . S
C911 C912 1.383 . S
C911 H919 0.929 . S
C912 C911 1.383 . S
C912 C913 1.377 . S
C913 H897 0.930 . S
C913 C912 1.377 . S
C913 C914 1.379 . S
C914 H898 0.931 1_545 S
C914 C908 1.383 . S
C914 C913 1.379 . S
H915 C909 0.959 . S
H916 C909 0.961 . S
H917 C909 0.960 . S
H918 C910 0.930 . S
H919 C911 0.929 . S
H920 C928 0.929 . S
H921 C930 0.930 . S
H922 C932 0.930 . S
H923 C935 0.929 . S
H924 C938 0.930 . S
H925 C940 0.960 . S
H926 C940 0.960 . S
H927 C940 0.960 . S
C928 H920 0.929 . S
C928 C929 1.377 . S
C928 C930 1.384 . S
C929 C928 1.377 . S
C929 C935 1.390 . S
C930 H921 0.930 . S
C930 C928 1.384 . S
C930 C931 1.372 . S
C931 C930 1.372 . S
C931 C932 1.400 . S
C931 C936 1.490 . S
C932 H922 0.930 . S
C932 C931 1.400 . S
C932 C935 1.386 . S
H933 C949 0.930 . S
H934 C950 0.931 . S
C935 H923 0.929 . S
C935 C929 1.390 . S
C935 C932 1.386 . S
C936 C931 1.490 . S
C936 C938 1.395 . S
C936 C939 1.403 . S
H937 C943 0.930 . S
C938 H924 0.930 . S
C938 C936 1.395 . S
C938 C941 1.403 1_554 S
C939 C936 1.403 . S
C939 C940 1.524 . S
C939 C943 1.400 . S
C940 H925 0.960 . S
C940 H926 0.960 . S
C940 H927 0.960 . S
C940 C939 1.524 . S
C941 C938 1.403 1_556 S
C941 C942 1.392 . S
C941 C945 1.495 . S
C942 C941 1.392 . S
C942 C943 1.385 1_556 S
C942 C944 1.478 . S
C943 H937 0.930 . S
C943 C939 1.400 . S
C943 C942 1.385 1_554 S
C944 C942 1.478 . S
C944 C946 1.381 . S
C944 C950 1.383 . S
C945 C941 1.495 . S
C945 H951 0.959 . S
C945 H952 0.961 . S
C945 H953 0.960 . S
C946 C944 1.381 . S
C946 C947 1.394 . S
C946 H954 0.930 . S
C947 C946 1.394 . S
C947 C948 1.383 . S
C947 H955 0.929 . S
C948 C947 1.383 . S
C948 C949 1.377 . S
C949 H933 0.930 . S
C949 C948 1.377 . S
C949 C950 1.379 . S
C950 H934 0.931 . S
C950 C944 1.383 . S
C950 C949 1.379 . S
H951 C945 0.959 . S
H952 C945 0.961 . S
H953 C945 0.960 . S
H954 C946 0.930 . S
H955 C947 0.929 . S
H956 C964 0.929 . S
H957 C966 0.930 . S
H958 C968 0.930 . S
H959 C971 0.929 . S
H960 C974 0.930 . S
H961 C976 0.960 . S
H962 C976 0.960 . S
H963 C976 0.960 . S
C964 H956 0.929 . S
C964 C965 1.377 . S
C964 C966 1.384 . S
C965 C964 1.377 . S
C965 C971 1.390 . S
C966 H957 0.930 . S
C966 C964 1.384 . S
C966 C967 1.372 . S
C967 C966 1.372 . S
C967 C968 1.400 . S
C967 C972 1.490 . S
C968 H958 0.930 . S
C968 C967 1.400 . S
C968 C971 1.386 . S
H969 C985 0.930 . S
H970 C986 0.931 . S
C971 H959 0.929 . S
C971 C965 1.390 . S
C971 C968 1.386 . S
C972 C967 1.490 . S
C972 C974 1.395 . S
C972 C975 1.403 1_554 S
H973 C979 0.930 . S
C974 H960 0.930 . S
C974 C972 1.395 . S
C974 C977 1.403 . S
C975 C972 1.403 1_556 S
C975 C976 1.524 . S
C975 C979 1.400 . S
C976 H961 0.960 . S
C976 H962 0.960 . S
C976 H963 0.960 . S
C976 C975 1.524 . S
C977 C974 1.403 . S
C977 C978 1.392 1_554 S
C977 C981 1.495 . S
C978 C977 1.392 1_556 S
C978 C979 1.385 . S
C978 C980 1.478 . S
C979 H973 0.930 . S
C979 C975 1.400 . S
C979 C978 1.385 . S
C980 C978 1.478 . S
C980 C982 1.381 . S
C980 C986 1.383 . S
C981 C977 1.495 . S
C981 H987 0.959 . S
C981 H988 0.961 . S
C981 H989 0.960 . S
C982 C980 1.381 . S
C982 C983 1.394 . S
C982 H990 0.930 . S
C983 C982 1.394 . S
C983 C984 1.383 . S
C983 H991 0.929 . S
C984 C983 1.383 . S
C984 C985 1.377 . S
C985 H969 0.930 . S
C985 C984 1.377 . S
C985 C986 1.379 . S
C986 H970 0.931 . S
C986 C980 1.383 . S
C986 C985 1.379 . S
H987 C981 0.959 . S
H988 C981 0.961 . S
H989 C981 0.960 . S
H990 C982 0.930 . S
H991 C983 0.929 . S
H992 C1000 0.929 . S
H993 C1002 0.930 . S
H994 C1004 0.930 . S
H995 C1007 0.929 . S
H996 C1010 0.930 . S
H997 C1012 0.960 . S
H998 C1012 0.960 . S
H999 C1012 0.960 . S
C1000 H992 0.929 . S
C1000 C1001 1.377 . S
C1000 C1002 1.384 . S
C1001 C1000 1.377 . S
C1001 C1007 1.390 1_455 S
C1002 H993 0.930 . S
C1002 C1000 1.384 . S
C1002 C1003 1.372 . S
C1003 C1002 1.372 . S
C1003 C1004 1.400 1_455 S
C1003 C1008 1.490 . S
C1004 H994 0.930 . S
C1004 C1003 1.400 1_655 S
C1004 C1007 1.386 . S
H1005 C1021 0.930 1_655 S
H1006 C1022 0.931 1_655 S
C1007 H995 0.929 . S
C1007 C1001 1.390 1_655 S
C1007 C1004 1.386 . S
C1008 C1003 1.490 . S
C1008 C1010 1.395 . S
C1008 C1011 1.403 1_455 S
H1009 C1015 0.930 . S
C1010 H996 0.930 . S
C1010 C1008 1.395 . S
C1010 C1013 1.403 . S
C1011 C1008 1.403 1_655 S
C1011 C1012 1.524 . S
C1011 C1015 1.400 . S
C1012 H997 0.960 . S
C1012 H998 0.960 . S
C1012 H999 0.960 . S
C1012 C1011 1.524 . S
C1013 C1010 1.403 . S
C1013 C1014 1.392 . S
C1013 C1017 1.495 . S
C1014 C1013 1.392 . S
C1014 C1015 1.385 1_455 S
C1014 C1016 1.478 . S
C1015 H1009 0.930 . S
C1015 C1011 1.400 . S
C1015 C1014 1.385 1_655 S
C1016 C1014 1.478 . S
C1016 C1018 1.381 . S
C1016 C1022 1.383 . S
C1017 C1013 1.495 . S
C1017 H1023 0.959 . S
C1017 H1024 0.961 . S
C1017 H1025 0.960 . S
C1018 C1016 1.381 . S
C1018 C1019 1.394 . S
C1018 H1026 0.930 . S
C1019 C1018 1.394 . S
C1019 C1020 1.383 . S
C1019 H1027 0.929 . S
C1020 C1019 1.383 . S
C1020 C1021 1.377 . S
C1021 H1005 0.930 1_455 S
C1021 C1020 1.377 . S
C1021 C1022 1.379 . S
C1022 H1006 0.931 1_455 S
C1022 C1016 1.383 . S
C1022 C1021 1.379 . S
H1023 C1017 0.959 . S
H1024 C1017 0.961 . S
H1025 C1017 0.960 . S
H1026 C1018 0.930 . S
H1027 C1019 0.929 . S
H1028 C1036 0.929 . S
H1029 C1038 0.930 . S
H1030 C1040 0.930 . S
H1031 C1043 0.929 . S
H1032 C1046 0.930 . S
H1033 C1048 0.960 . S
H1034 C1048 0.960 . S
H1035 C1048 0.960 1_545 S
C1036 H1028 0.929 . S
C1036 C1037 1.377 1_565 S
C1036 C1038 1.384 . S
C1037 C1036 1.377 1_545 S
C1037 C1043 1.390 . S
C1038 H1029 0.930 . S
C1038 C1036 1.384 . S
C1038 C1039 1.372 1_565 S
C1039 C1038 1.372 1_545 S
C1039 C1040 1.400 . S
C1039 C1044 1.490 . S
C1040 H1030 0.930 . S
C1040 C1039 1.400 . S
C1040 C1043 1.386 . S
H1041 C1057 0.930 . S
H1042 C1058 0.931 . S
C1043 H1031 0.929 . S
C1043 C1037 1.390 . S
C1043 C1040 1.386 . S
C1044 C1039 1.490 . S
C1044 C1046 1.395 . S
C1044 C1047 1.397 1_545 S
H1045 C1051 0.930 1_565 S
C1046 H1032 0.930 . S
C1046 C1044 1.395 . S
C1046 C1049 1.403 . S
C1047 C1044 1.397 1_565 S
C1047 C1048 1.532 . S
C1047 C1051 1.398 1_565 S
C1048 H1033 0.960 . S
C1048 H1034 0.960 . S
C1048 H1035 0.960 1_565 S
C1048 C1047 1.532 . S
C1049 C1046 1.403 . S
C1049 C1050 1.392 . S
C1049 C1053 1.495 . S
C1050 C1049 1.392 . S
C1050 C1051 1.385 . S
C1050 C1052 1.478 . S
C1051 H1045 0.930 1_545 S
C1051 C1047 1.398 1_545 S
C1051 C1050 1.385 . S
C1052 C1050 1.478 . S
C1052 C1054 1.381 1_545 S
C1052 C1058 1.383 . S
C1053 C1049 1.495 . S
C1053 H1059 0.959 . S
C1053 H1060 0.961 . S
C1053 H1061 0.960 . S
C1054 C1052 1.381 1_565 S
C1054 C1055 1.394 . S
C1054 H1062 0.930 . S
C1055 C1054 1.394 . S
C1055 C1056 1.383 1_565 S
C1055 H1063 0.929 . S
C1056 C1055 1.383 1_545 S
C1056 C1057 1.377 . S
C1057 H1041 0.930 . S
C1057 C1056 1.377 . S
C1057 C1058 1.379 . S
C1058 H1042 0.931 . S
C1058 C1052 1.383 . S
C1058 C1057 1.379 . S
H1059 C1053 0.959 . S
H1060 C1053 0.961 . S
H1061 C1053 0.960 . S
H1062 C1054 0.930 . S
H1063 C1055 0.929 . S
H1064 C1072 0.929 . S
H1065 C1074 0.930 . S
H1066 C1076 0.930 . S
H1067 C1079 0.929 . S
H1068 C1082 0.930 . S
H1069 C1084 0.960 . S
H1070 C1084 0.960 . S
H1071 C1084 0.960 . S
C1072 H1064 0.929 . S
C1072 C1073 1.377 . S
C1072 C1074 1.384 . S
C1073 C1072 1.377 . S
C1073 C1079 1.390 . S
C1074 H1065 0.930 . S
C1074 C1072 1.384 . S
C1074 C1075 1.372 . S
C1075 C1074 1.372 . S
C1075 C1076 1.400 . S
C1075 C1080 1.490 . S
C1076 H1066 0.930 . S
C1076 C1075 1.400 . S
C1076 C1079 1.386 . S
H1077 C1093 0.930 . S
H1078 C1094 0.931 . S
C1079 H1067 0.929 . S
C1079 C1073 1.390 . S
C1079 C1076 1.386 . S
C1080 C1075 1.490 . S
C1080 C1082 1.395 . S
C1080 C1083 1.403 . S
H1081 C1087 0.930 . S
C1082 H1068 0.930 . S
C1082 C1080 1.395 . S
C1082 C1085 1.403 . S
C1083 C1080 1.403 . S
C1083 C1084 1.524 . S
C1083 C1087 1.400 . S
C1084 H1069 0.960 . S
C1084 H1070 0.960 . S
C1084 H1071 0.960 . S
C1084 C1083 1.524 . S
C1085 C1082 1.403 . S
C1085 C1086 1.392 . S
C1085 C1089 1.495 . S
C1086 C1085 1.392 . S
C1086 C1087 1.385 . S
C1086 C1088 1.478 . S
C1087 H1081 0.930 . S
C1087 C1083 1.400 . S
C1087 C1086 1.385 . S
C1088 C1086 1.478 . S
C1088 C1090 1.381 . S
C1088 C1094 1.383 . S
C1089 C1085 1.495 . S
C1089 H1095 0.959 . S
C1089 H1096 0.961 . S
C1089 H1097 0.960 . S
C1090 C1088 1.381 . S
C1090 C1091 1.394 . S
C1090 H1098 0.930 . S
C1091 C1090 1.394 . S
C1091 C1092 1.383 . S
C1091 H1099 0.929 . S
C1092 C1091 1.383 . S
C1092 C1093 1.377 . S
C1093 H1077 0.930 . S
C1093 C1092 1.377 . S
C1093 C1094 1.379 . S
C1094 H1078 0.931 . S
C1094 C1088 1.383 . S
C1094 C1093 1.379 . S
H1095 C1089 0.959 . S
H1096 C1089 0.961 . S
H1097 C1089 0.960 . S
H1098 C1090 0.930 . S
H1099 C1091 0.929 . S
H1100 C1108 0.929 . S
H1101 C1110 0.930 . S
H1102 C1112 0.930 . S
H1103 C1115 0.929 . S
H1104 C1118 0.930 . S
H1105 C1120 0.960 . S
H1106 C1120 0.960 . S
H1107 C1120 0.960 . S
C1108 H1100 0.929 . S
C1108 C1109 1.377 . S
C1108 C1110 1.384 . S
C1109 C1108 1.377 . S
C1109 C1115 1.390 . S
C1110 H1101 0.930 . S
C1110 C1108 1.384 . S
C1110 C1111 1.372 . S
C1111 C1110 1.372 . S
C1111 C1112 1.400 . S
C1111 C1116 1.490 . S
C1112 H1102 0.930 . S
C1112 C1111 1.400 . S
C1112 C1115 1.386 . S
H1113 C1129 0.930 . S
H1114 C1130 0.931 . S
C1115 H1103 0.929 . S
C1115 C1109 1.390 . S
C1115 C1112 1.386 . S
C1116 C1111 1.490 . S
C1116 C1118 1.395 . S
C1116 C1119 1.403 . S
H1117 C1123 0.930 . S
C1118 H1104 0.930 . S
C1118 C1116 1.395 . S
C1118 C1121 1.403 . S
C1119 C1116 1.403 . S
C1119 C1120 1.524 . S
C1119 C1123 1.400 . S
C1120 H1105 0.960 . S
C1120 H1106 0.960 . S
C1120 H1107 0.960 . S
C1120 C1119 1.524 . S
C1121 C1118 1.403 . S
C1121 C1122 1.392 . S
C1121 C1125 1.495 . S
C1122 C1121 1.392 . S
C1122 C1123 1.385 . S
C1122 C1124 1.478 . S
C1123 H1117 0.930 . S
C1123 C1119 1.400 . S
C1123 C1122 1.385 . S
C1124 C1122 1.478 . S
C1124 C1126 1.381 . S
C1124 C1130 1.383 . S
C1125 C1121 1.495 . S
C1125 H1131 0.959 . S
C1125 H1132 0.961 . S
C1125 H1133 0.960 . S
C1126 C1124 1.381 . S
C1126 C1127 1.394 . S
C1126 H1134 0.930 . S
C1127 C1126 1.394 . S
C1127 C1128 1.383 . S
C1127 H1135 0.929 . S
C1128 C1127 1.383 . S
C1128 C1129 1.377 . S
C1129 H1113 0.930 . S
C1129 C1128 1.377 . S
C1129 C1130 1.379 . S
C1130 H1114 0.931 . S
C1130 C1124 1.383 . S
C1130 C1129 1.379 . S
H1131 C1125 0.959 . S
H1132 C1125 0.961 . S
H1133 C1125 0.960 . S
H1134 C1126 0.930 . S
H1135 C1127 0.929 . S
H1136 C1144 0.929 . S
H1137 C1146 0.930 . S
H1138 C1148 0.928 1_455 S
H1139 C1151 0.928 . S
H1140 C1154 0.930 . S
H1141 C1156 0.960 . S
H1142 C1156 0.960 . S
H1143 C1156 0.960 . S
C1144 H1136 0.929 . S
C1144 C1145 1.377 . S
C1144 C1146 1.384 . S
C1145 C1144 1.377 . S
C1145 C1151 1.390 1_655 S
C1146 H1137 0.930 . S
C1146 C1144 1.384 . S
C1146 C1147 1.372 . S
C1147 C1146 1.372 . S
C1147 C1148 1.400 . S
C1147 C1152 1.490 . S
C1148 H1138 0.928 1_655 S
C1148 C1147 1.400 . S
C1148 C1151 1.386 1_655 S
H1149 C1165 0.927 1_455 S
H1150 C1166 0.922 1_455 S
C1151 H1139 0.928 . S
C1151 C1145 1.390 1_455 S
C1151 C1148 1.386 1_455 S
C1152 C1147 1.490 . S
C1152 C1154 1.395 1_655 S
C1152 C1155 1.403 . S
H1153 C1159 0.930 . S
C1154 H1140 0.930 . S
C1154 C1152 1.395 1_455 S
C1154 C1157 1.403 . S
C1155 C1152 1.403 . S
C1155 C1156 1.524 . S
C1155 C1159 1.400 . S
C1156 H1141 0.960 . S
C1156 H1142 0.960 . S
C1156 H1143 0.960 . S
C1156 C1155 1.524 . S
C1157 C1154 1.403 . S
C1157 C1158 1.392 1_455 S
C1157 C1161 1.495 . S
C1158 C1157 1.392 1_655 S
C1158 C1159 1.385 . S
C1158 C1160 1.478 . S
C1159 H1153 0.930 . S
C1159 C1155 1.400 . S
C1159 C1158 1.385 . S
C1160 C1158 1.478 . S
C1160 C1162 1.381 . S
C1160 C1166 1.390 . S
C1161 C1157 1.495 . S
C1161 H1167 0.959 . S
C1161 H1168 0.961 . S
C1161 H1169 0.960 . S
C1162 C1160 1.381 . S
C1162 C1163 1.394 . S
C1162 H1170 0.930 . S
C1163 C1162 1.394 . S
C1163 C1164 1.383 . S
C1163 H1171 0.929 . S
C1164 C1163 1.383 . S
C1164 C1165 1.377 . S
C1165 H1149 0.927 1_655 S
C1165 C1164 1.377 . S
C1165 C1166 1.383 . S
C1166 H1150 0.922 1_655 S
C1166 C1160 1.390 . S
C1166 C1165 1.383 . S
H1167 C1161 0.959 . S
H1168 C1161 0.961 . S
H1169 C1161 0.960 . S
H1170 C1162 0.930 . S
H1171 C1163 0.929 . S
H1172 C1180 0.929 . S
H1173 C1182 0.930 . S
H1174 C1184 0.930 . S
H1175 C1187 0.929 . S
H1176 C1190 0.930 . S
H1177 C1192 0.960 . S
H1178 C1192 0.960 . S
H1179 C1192 0.960 . S
C1180 H1172 0.929 . S
C1180 C1181 1.377 . S
C1180 C1182 1.384 . S
C1181 C1180 1.377 . S
C1181 C1187 1.390 1_565 S
C1182 H1173 0.930 . S
C1182 C1180 1.384 . S
C1182 C1183 1.372 . S
C1183 C1182 1.372 . S
C1183 C1184 1.400 1_565 S
C1183 C1188 1.490 . S
C1184 H1174 0.930 . S
C1184 C1183 1.400 1_545 S
C1184 C1187 1.386 . S
H1185 C1201 0.930 . S
H1186 C1202 0.931 . S
C1187 H1175 0.929 . S
C1187 C1181 1.390 1_545 S
C1187 C1184 1.386 . S
C1188 C1183 1.490 . S
C1188 C1190 1.395 1_565 S
C1188 C1191 1.403 . S
H1189 C1195 0.930 . S
C1190 H1176 0.930 . S
C1190 C1188 1.395 1_545 S
C1190 C1193 1.403 . S
C1191 C1188 1.403 . S
C1191 C1192 1.524 . S
C1191 C1195 1.400 . S
C1192 H1177 0.960 . S
C1192 H1178 0.960 . S
C1192 H1179 0.960 . S
C1192 C1191 1.524 . S
C1193 C1190 1.403 . S
C1193 C1194 1.392 1_545 S
C1193 C1197 1.495 . S
C1194 C1193 1.392 1_565 S
C1194 C1195 1.385 . S
C1194 C1196 1.478 . S
C1195 H1189 0.930 . S
C1195 C1191 1.400 . S
C1195 C1194 1.385 . S
C1196 C1194 1.478 . S
C1196 C1198 1.381 . S
C1196 C1202 1.383 1_565 S
C1197 C1193 1.495 . S
C1197 H1203 0.959 . S
C1197 H1204 0.961 . S
C1197 H1205 0.960 . S
C1198 C1196 1.381 . S
C1198 C1199 1.394 . S
C1198 H1206 0.930 . S
C1199 C1198 1.394 . S
C1199 C1200 1.383 . S
C1199 H1207 0.929 . S
C1200 C1199 1.383 . S
C1200 C1201 1.377 1_565 S
C1201 H1185 0.930 . S
C1201 C1200 1.377 1_545 S
C1201 C1202 1.379 . S
C1202 H1186 0.931 . S
C1202 C1196 1.383 1_545 S
C1202 C1201 1.379 . S
H1203 C1197 0.959 . S
H1204 C1197 0.961 . S
H1205 C1197 0.960 . S
H1206 C1198 0.930 . S
H1207 C1199 0.929 . S
H1208 C1216 0.929 . S
H1209 C1218 0.930 . S
H1210 C1220 0.930 . S
H1211 C1223 0.929 . S
H1212 C1226 0.930 . S
H1213 C1228 0.960 . S
H1214 C1228 0.960 . S
H1215 C1228 0.960 . S
C1216 H1208 0.929 . S
C1216 C1217 1.377 . S
C1216 C1218 1.384 . S
C1217 C1216 1.377 . S
C1217 C1223 1.390 . S
C1218 H1209 0.930 . S
C1218 C1216 1.384 . S
C1218 C1219 1.372 . S
C1219 C1218 1.372 . S
C1219 C1220 1.400 . S
C1219 C1224 1.490 . S
C1220 H1210 0.930 . S
C1220 C1219 1.400 . S
C1220 C1223 1.386 . S
H1221 C1237 0.930 . S
H1222 C1238 0.931 . S
C1223 H1211 0.929 . S
C1223 C1217 1.390 . S
C1223 C1220 1.386 . S
C1224 C1219 1.490 . S
C1224 C1226 1.395 . S
C1224 C1227 1.403 . S
H1225 C1231 0.930 . S
C1226 H1212 0.930 . S
C1226 C1224 1.395 . S
C1226 C1229 1.403 . S
C1227 C1224 1.403 . S
C1227 C1228 1.524 . S
C1227 C1231 1.400 . S
C1228 H1213 0.960 . S
C1228 H1214 0.960 . S
C1228 H1215 0.960 . S
C1228 C1227 1.524 . S
C1229 C1226 1.403 . S
C1229 C1230 1.392 . S
C1229 C1233 1.495 . S
C1230 C1229 1.392 . S
C1230 C1231 1.385 . S
C1230 C1232 1.478 . S
C1231 H1225 0.930 . S
C1231 C1227 1.400 . S
C1231 C1230 1.385 . S
C1232 C1230 1.478 . S
C1232 C1234 1.381 . S
C1232 C1238 1.383 . S
C1233 C1229 1.495 . S
C1233 H1239 0.959 . S
C1233 H1240 0.961 . S
C1233 H1241 0.960 . S
C1234 C1232 1.381 . S
C1234 C1235 1.394 . S
C1234 H1242 0.930 . S
C1235 C1234 1.394 . S
C1235 C1236 1.383 . S
C1235 H1243 0.929 . S
C1236 C1235 1.383 . S
C1236 C1237 1.377 . S
C1237 H1221 0.930 . S
C1237 C1236 1.377 . S
C1237 C1238 1.379 . S
C1238 H1222 0.931 . S
C1238 C1232 1.383 . S
C1238 C1237 1.379 . S
H1239 C1233 0.959 . S
H1240 C1233 0.961 . S
H1241 C1233 0.960 . S
H1242 C1234 0.930 . S
H1243 C1235 0.929 . S
H1244 C1252 0.929 . S
H1245 C1254 0.930 . S
H1246 C1256 0.930 . S
H1247 C1259 0.929 . S
H1248 C1262 0.930 . S
H1249 C1264 0.960 . S
H1250 C1264 0.960 . S
H1251 C1264 0.960 . S
C1252 H1244 0.929 . S
C1252 C1253 1.377 . S
C1252 C1254 1.384 . S
C1253 C1252 1.377 . S
C1253 C1259 1.390 . S
C1254 H1245 0.930 . S
C1254 C1252 1.384 . S
C1254 C1255 1.372 . S
C1255 C1254 1.372 . S
C1255 C1256 1.400 . S
C1255 C1260 1.490 . S
C1256 H1246 0.930 . S
C1256 C1255 1.400 . S
C1256 C1259 1.386 . S
H1257 C1273 0.930 . S
H1258 C1274 0.931 . S
C1259 H1247 0.929 . S
C1259 C1253 1.390 . S
C1259 C1256 1.386 . S
C1260 C1255 1.490 . S
C1260 C1262 1.395 . S
C1260 C1263 1.403 . S
H1261 C1267 0.930 . S
C1262 H1248 0.930 . S
C1262 C1260 1.395 . S
C1262 C1265 1.403 . S
C1263 C1260 1.403 . S
C1263 C1264 1.524 . S
C1263 C1267 1.400 . S
C1264 H1249 0.960 . S
C1264 H1250 0.960 . S
C1264 H1251 0.960 . S
C1264 C1263 1.524 . S
C1265 C1262 1.403 . S
C1265 C1266 1.392 . S
C1265 C1269 1.495 . S
C1266 C1265 1.392 . S
C1266 C1267 1.385 . S
C1266 C1268 1.478 . S
C1267 H1261 0.930 . S
C1267 C1263 1.400 . S
C1267 C1266 1.385 . S
C1268 C1266 1.478 . S
C1268 C1270 1.381 . S
C1268 C1274 1.383 . S
C1269 C1265 1.495 . S
C1269 H1275 0.959 . S
C1269 H1276 0.961 . S
C1269 H1277 0.960 . S
C1270 C1268 1.381 . S
C1270 C1271 1.394 . S
C1270 H1278 0.930 . S
C1271 C1270 1.394 . S
C1271 C1272 1.383 . S
C1271 H1279 0.929 . S
C1272 C1271 1.383 . S
C1272 C1273 1.377 . S
C1273 H1257 0.930 . S
C1273 C1272 1.377 . S
C1273 C1274 1.379 . S
C1274 H1258 0.931 . S
C1274 C1268 1.383 . S
C1274 C1273 1.379 . S
H1275 C1269 0.959 . S
H1276 C1269 0.961 . S
H1277 C1269 0.960 . S
H1278 C1270 0.930 . S
H1279 C1271 0.929 . S
C425 C215 1.803 . S
C444 C265 1.899 1_545 S
C480 C305 1.898 . S
C461 C247 1.809 . S
C516 C345 1.904 . S
C497 C151 1.810 . S
C552 C385 1.906 1_455 S
C533 C183 1.800 . S
C588 C274 1.897 1_565 S
C569 C87 1.810 1_565 S
C605 C119 1.810 . S
C624 C314 1.903 . S
C641 C23 1.799 . S
C660 C354 1.904 . S
C677 C55 1.805 1_655 S
C696 C394 1.897 1_655 S
C732 C271 0.241 . S
C713 C189 0.237 . S
C768 C311 0.380 . S
C749 C221 0.223 . S
C804 C351 0.187 . S
C785 C253 0.223 . S
C821 C157 0.238 . S
C840 C391 0.231 . S
C857 C61 0.428 1_655 S
C876 C262 0.237 . S
C912 C302 0.351 . S
C893 C93 0.430 1_565 S
C948 C342 0.374 . S
C929 C125 0.439 . S
C965 C29 0.464 . S
C984 C382 0.266 . S
C1001 C177 2.242 . S
C1020 C275 2.471 . S
C1037 C209 2.237 . S
C1056 C315 2.466 . S
C1092 C355 2.448 . S
C1073 C241 2.231 . S
C1128 C395 2.460 . S
C1109 C145 2.233 . S
C1145 C49 2.258 1_655 S
C1164 C266 2.450 . S
C1200 C306 2.454 . S
C1181 C81 2.257 1_565 S
C1236 C346 2.459 . S
C1217 C113 2.254 . S
C1253 C17 2.248 . S
C1272 C386 2.473 . S
