# Generated by pormake.
# Topology nom, (4,4)-cn, num edge types: 1
# Building blocks:
#     Node 0, Type 0, BuildingBlock: KUFVIS_clean_linker_0, # of connection points: 4
#     Node 1, Type 0, BuildingBlock: KUFVIS_clean_linker_0, # of connection points: 4
#     Node 2, Type 0, BuildingBlock: KUFVIS_clean_linker_0, # of connection points: 4
#     Node 3, Type 0, BuildingBlock: KUFVIS_clean_linker_0, # of connection points: 4
#     Node 4, Type 0, BuildingBlock: KUFVIS_clean_linker_0, # of connection points: 4
#     Node 5, Type 0, BuildingBlock: KUFVIS_clean_linker_0, # of connection points: 4
#     Node 6, Type 1, BuildingBlock: QUQFOY_clean_sbu_3, # of connection points: 4
#     Node 7, Type 1, BuildingBlock: QUQFOY_clean_sbu_3, # of connection points: 4
#     Node 8, Type 1, BuildingBlock: QUQFOY_clean_sbu_3, # of connection points: 4
#     Node 9, Type 1, BuildingBlock: QUQFOY_clean_sbu_3, # of connection points: 4
#     Node 10, Type 1, BuildingBlock: QUQFOY_clean_sbu_3, # of connection points: 4
#     Node 11, Type 1, BuildingBlock: QUQFOY_clean_sbu_3, # of connection points: 4
#     Edge 12, Type (0, 1), BuildingBlock: KIFKEQ_clean_linker_1, # of connection points: 2
#     Edge 13, Type (0, 1), BuildingBlock: KIFKEQ_clean_linker_1, # of connection points: 2
#     Edge 14, Type (0, 1), BuildingBlock: KIFKEQ_clean_linker_1, # of connection points: 2
#     Edge 15, Type (0, 1), BuildingBlock: KIFKEQ_clean_linker_1, # of connection points: 2
#     Edge 16, Type (0, 1), BuildingBlock: KIFKEQ_clean_linker_1, # of connection points: 2
#     Edge 17, Type (0, 1), BuildingBlock: KIFKEQ_clean_linker_1, # of connection points: 2
#     Edge 18, Type (0, 1), BuildingBlock: KIFKEQ_clean_linker_1, # of connection points: 2
#     Edge 19, Type (0, 1), BuildingBlock: KIFKEQ_clean_linker_1, # of connection points: 2
#     Edge 20, Type (0, 1), BuildingBlock: KIFKEQ_clean_linker_1, # of connection points: 2
#     Edge 21, Type (0, 1), BuildingBlock: KIFKEQ_clean_linker_1, # of connection points: 2
#     Edge 22, Type (0, 1), BuildingBlock: KIFKEQ_clean_linker_1, # of connection points: 2
#     Edge 23, Type (0, 1), BuildingBlock: KIFKEQ_clean_linker_1, # of connection points: 2
#     Edge 24, Type (0, 1), BuildingBlock: KIFKEQ_clean_linker_1, # of connection points: 2
#     Edge 25, Type (0, 1), BuildingBlock: KIFKEQ_clean_linker_1, # of connection points: 2
#     Edge 26, Type (0, 1), BuildingBlock: KIFKEQ_clean_linker_1, # of connection points: 2
#     Edge 27, Type (0, 1), BuildingBlock: KIFKEQ_clean_linker_1, # of connection points: 2
#     Edge 28, Type (0, 1), BuildingBlock: KIFKEQ_clean_linker_1, # of connection points: 2
#     Edge 29, Type (0, 1), BuildingBlock: KIFKEQ_clean_linker_1, # of connection points: 2
#     Edge 30, Type (0, 1), BuildingBlock: KIFKEQ_clean_linker_1, # of connection points: 2
#     Edge 31, Type (0, 1), BuildingBlock: KIFKEQ_clean_linker_1, # of connection points: 2
#     Edge 32, Type (0, 1), BuildingBlock: KIFKEQ_clean_linker_1, # of connection points: 2
#     Edge 33, Type (0, 1), BuildingBlock: KIFKEQ_clean_linker_1, # of connection points: 2
#     Edge 34, Type (0, 1), BuildingBlock: KIFKEQ_clean_linker_1, # of connection points: 2
#     Edge 35, Type (0, 1), BuildingBlock: KIFKEQ_clean_linker_1, # of connection points: 2
# Relax obj value: 0.003
# Max RMSD: 0.047
# Mean RMSD: 0.035
data_MOF--net-nom--node1-QUQFOY_clean_sbu_3--node2-KUFVIS_clean_linker_0--edge1-KIFKEQ_clean_linker_1
_symmetry_space_group_name_H-M    P1
_symmetry_Int_Tables_number       1
_symmetry_cell_setting            triclinic
loop_
_symmetry_equiv_pos_as_xyz
'x, y, z'
_cell_length_a     46.818104
_cell_length_b     47.82377
_cell_length_c     48.224244
_cell_angle_alpha  89.968852
_cell_angle_beta   90.062855
_cell_angle_gamma 119.98277
loop_
_atom_site_label
_atom_site_type_symbol
_atom_site_fract_x
_atom_site_fract_y
_atom_site_fract_z
_atom_type_partial_charge
H0 H 0.12381 0.5909 0.33039 0.0
H1 H 0.04928 0.55205 0.26741 0.0
H2 H 0.02407 0.52694 0.35406 0.0
H3 H 0.97652 0.52262 0.34145 0.0
H4 H 0.90246 0.46091 0.28399 0.0
H5 H 1.0042 0.50432 0.26054 0.0
C6 C 0.09817 0.57567 0.32444 0.0
C7 C 0.07461 0.56009 0.34503 0.0
C8 C 0.08941 0.57197 0.29644 0.0
C9 C 0.05589 0.55344 0.28907 0.0
C10 C 0.0314 0.53679 0.30965 0.0
C11 C 0.04156 0.53993 0.33771 0.0
C12 C 0.99554 0.516 0.30218 0.0
C13 C 0.97048 0.51067 0.3215 0.0
C14 C 0.93714 0.48976 0.31521 0.0
C15 C 0.92843 0.47549 0.28908 0.0
C16 C 0.95236 0.48133 0.26901 0.0
C17 C 0.98589 0.50106 0.27583 0.0
H18 H 0.55046 0.12276 0.48617 0.0
H19 H 0.49116 0.04375 0.43236 0.0
H20 H 0.51352 0.02648 0.51599 0.0
H21 H 0.46706 0.98023 0.51191 0.0
H22 H 0.43423 0.90069 0.45625 0.0
H23 H 0.48736 0.99683 0.42376 0.0
C24 C 0.53656 0.09688 0.48267 0.0
C25 C 0.53307 0.07577 0.50409 0.0
C26 C 0.52206 0.0854 0.45685 0.0
C27 C 0.50303 0.05199 0.45229 0.0
C28 C 0.49941 0.02976 0.47348 0.0
C29 C 0.5148 0.04233 0.49944 0.0
C30 C 0.48036 0.9938 0.46853 0.0
C31 C 0.46599 0.9718 0.49092 0.0
C32 C 0.4498 0.93838 0.48631 0.0
C33 C 0.4466 0.92661 0.4594 0.0
C34 C 0.45896 0.94746 0.43666 0.0
C35 C 0.47666 0.98099 0.44138 0.0
H36 H 0.53852 0.42639 0.62826 0.0
H37 H 0.50253 0.4648 0.69001 0.0
H38 H 0.50964 0.49429 0.60364 0.0
H39 H 0.47198 0.5056 0.61266 0.0
H40 H 0.44595 0.55378 0.67332 0.0
H41 H 0.49699 0.50541 0.69955 0.0
C42 C 0.52863 0.4419 0.63375 0.0
C43 C 0.52344 0.45923 0.61311 0.0
C44 C 0.52211 0.44483 0.66142 0.0
C45 C 0.50872 0.46443 0.66852 0.0
C46 C 0.50302 0.48245 0.64788 0.0
C47 C 0.51182 0.4802 0.62014 0.0
C48 C 0.48765 0.50293 0.65492 0.0
C49 C 0.47309 0.51287 0.634 0.0
C50 C 0.4593 0.53231 0.64042 0.0
C51 C 0.45786 0.53999 0.66808 0.0
C52 C 0.47019 0.52921 0.68934 0.0
C53 C 0.48634 0.51203 0.68271 0.0
H54 H 0.13364 0.56399 0.78589 0.0
H55 H 0.0583 0.50454 0.84327 0.0
H56 H 0.0323 0.52316 0.7617 0.0
H57 H 0.98634 0.47594 0.76871 0.0
H58 H 0.91135 0.44044 0.83125 0.0
H59 H 0.01149 0.50226 0.8552 0.0
C60 C 0.10758 0.54999 0.79078 0.0
C61 C 0.08399 0.54476 0.7705 0.0
C62 C 0.0983 0.53611 0.81701 0.0
C63 C 0.06479 0.51614 0.82317 0.0
C64 C 0.04014 0.51137 0.80358 0.0
C65 C 0.05031 0.52592 0.77714 0.0
C66 C 1.00416 0.49171 0.81089 0.0
C67 C 0.97964 0.47524 0.79026 0.0
C68 C 0.946 0.45776 0.79745 0.0
C69 C 0.93709 0.45497 0.82538 0.0
C70 C 0.96068 0.47035 0.846 0.0
C71 C 0.99392 0.48944 0.83883 0.0
H72 H 0.48996 0.90761 -0.01188 0.0
H73 H 0.5398 0.98607 0.93144 0.0
H74 H 0.52012 1.00353 0.01578 0.0
H75 H 0.56504 0.05237 0.00859 0.0
H76 H 0.58192 0.12676 0.95041 0.0
H77 H 0.53454 0.02873 0.92274 0.0
C78 C 0.5019 0.93335 0.98399 0.0
C79 C 0.5042 0.95444 0.00501 0.0
C80 C 0.5142 0.94462 0.95754 0.0
C81 C 0.52988 0.97785 0.95199 0.0
C82 C 0.53261 1.0 0.97289 0.0
C83 C 0.5196 0.9877 -0.00048 0.0
C84 C 0.54735 0.03541 0.96664 0.0
C85 C 0.56232 0.0591 -0.01226 0.0
C86 C 0.574 0.09188 0.98194 0.0
C87 C 0.57187 0.10131 0.95498 0.0
C88 C 0.55855 0.07872 0.93358 0.0
C89 C 0.54594 0.04588 0.93946 0.0
H90 H 0.50487 0.61149 0.12944 0.0
H91 H 0.53044 0.5636 0.1912 0.0
H92 H 0.52779 0.53938 0.10403 0.0
H93 H 0.56685 0.52879 0.11559 0.0
H94 H 0.57692 0.46764 0.17455 0.0
H95 H 0.52364 0.51515 0.19749 0.0
C96 C 0.51277 0.59433 0.13477 0.0
C97 C 0.51727 0.57687 0.11378 0.0
C98 C 0.51648 0.58883 0.16257 0.0
C99 C 0.52648 0.56646 0.16954 0.0
C100 C 0.53176 0.54863 0.14856 0.0
C101 C 0.52585 0.55353 0.12064 0.0
C102 C 0.54341 0.52521 0.15552 0.0
C103 C 0.56105 0.51759 0.13583 0.0
C104 C 0.57179 0.49561 0.14221 0.0
C105 C 0.56642 0.48257 0.1689 0.0
C106 C 0.54954 0.48982 0.18893 0.0
C107 C 0.53757 0.51065 0.18204 0.0
C108 C 0.71907 0.43491 0.39804 0.0
O109 O 0.71576 0.45696 0.40961 0.0
Cd110 Cd 0.66486 0.45304 0.4233 0.0
O111 O 0.69396 0.40711 0.39345 0.0
Cd112 Cd 0.6327 0.37811 0.40279 0.0
C113 C 0.6203 0.42944 0.36234 0.0
O114 O 0.63542 0.40323 0.44746 0.0
O115 O 0.58698 0.37558 0.42984 0.0
O116 O 0.63365 0.32884 0.41549 0.0
C117 C 0.6048 0.39283 0.44967 0.0
O118 O 0.63527 0.45088 0.38088 0.0
C119 C 0.60988 0.30999 0.39988 0.0
O120 O 0.61746 0.40157 0.3643 0.0
O121 O 0.59719 0.32286 0.38498 0.0
C122 C 0.30196 0.59015 0.55508 0.0
O123 O 0.27442 0.56725 0.5467 0.0
Cd124 Cd 0.22736 0.5712 0.53339 0.0
O125 O 0.30665 0.61876 0.55756 0.0
Cd126 Cd 0.27393 0.64705 0.55013 0.0
C127 C 0.21127 0.59845 0.59401 0.0
O128 O 0.24771 0.61954 0.50701 0.0
O129 O 0.22957 0.64905 0.52437 0.0
O130 O 0.32375 0.69591 0.5344 0.0
C131 C 0.22809 0.63043 0.50508 0.0
O132 O 0.20256 0.57609 0.57609 0.0
C133 C 0.32082 0.7152 0.55068 0.0
O134 O 0.23728 0.6258 0.59066 0.0
O135 O 0.29652 0.70276 0.56725 0.0
C136 C 0.72916 0.29557 0.71831 0.0
O137 O 0.72549 0.26848 0.71083 0.0
Cd138 Cd 0.67529 0.22163 0.69641 0.0
O139 O 0.70436 0.29986 0.7201 0.0
Cd140 Cd 0.64282 0.26704 0.71333 0.0
C141 C 0.63034 0.20487 0.75649 0.0
O142 O 0.64747 0.24296 0.67063 0.0
O143 O 0.59776 0.22536 0.68423 0.0
O144 O 0.64297 0.31692 0.70034 0.0
C145 C 0.61705 0.2241 0.66654 0.0
O146 O 0.64345 0.19592 0.73797 0.0
C147 C 0.61888 0.31203 0.71572 0.0
O148 O 0.62968 0.23111 0.75393 0.0
O149 O 0.60634 0.28661 0.73043 0.0
C150 C 0.31641 0.59487 0.90187 0.0
O151 O 0.32065 0.57366 0.91407 0.0
Cd152 Cd 0.37258 0.57962 0.9282 0.0
O153 O 0.34098 0.62272 0.89649 0.0
Cd154 Cd 0.40231 0.65279 0.90406 0.0
C155 C 0.41346 0.59941 0.86566 0.0
O156 O 0.40224 0.6309 0.94969 0.0
O157 O 0.44961 0.65707 0.93 0.0
O158 O 0.40048 0.70202 0.91477 0.0
C159 C 0.43297 0.64142 0.95092 0.0
O160 O 0.40186 0.58012 0.88617 0.0
C161 C 0.42427 0.72053 0.89905 0.0
O162 O 0.41376 0.62625 0.86558 0.0
O163 O 0.43721 0.70739 0.88483 0.0
C164 C 0.73353 0.4416 0.05712 0.0
O165 O 0.76116 0.46448 0.04894 0.0
Cd166 Cd 0.80745 0.45982 0.03455 0.0
O167 O 0.72838 0.41275 0.05872 0.0
Cd168 Cd 0.76012 0.38378 0.04979 0.0
C169 C 0.82314 0.43028 0.09412 0.0
O170 O 0.78684 0.41223 0.00708 0.0
O171 O 0.80451 0.38213 0.02414 0.0
O172 O 0.71028 0.33644 0.03212 0.0
C173 C 0.80627 0.40111 0.00505 0.0
O174 O 0.83193 0.4531 0.07664 0.0
C175 C 0.71199 0.31596 0.04777 0.0
O176 O 0.79689 0.40316 0.09053 0.0
O177 O 0.73567 0.32702 0.06502 0.0
C178 C 0.30608 0.73416 0.21723 0.0
O179 O 0.30969 0.76112 0.20936 0.0
Cd180 Cd 0.36008 0.80827 0.19561 0.0
O181 O 0.33099 0.73015 0.21978 0.0
Cd182 Cd 0.39267 0.76333 0.21418 0.0
C183 C 0.40267 0.82492 0.25699 0.0
O184 O 0.38911 0.7874 0.17112 0.0
O185 O 0.43846 0.80558 0.18603 0.0
O186 O 0.39299 0.71357 0.20172 0.0
C187 C 0.41959 0.8066 0.16774 0.0
O188 O 0.39037 0.83402 0.23785 0.0
C189 C 0.41692 0.71862 0.21742 0.0
O190 O 0.40359 0.79877 0.25481 0.0
O191 O 0.42913 0.74406 0.23211 0.0
H192 H 0.14461 0.56749 0.29256 0.0
H193 H 0.0957 0.61404 0.25486 0.0
H194 H 0.19535 0.60428 0.26899 0.0
H195 H 0.14635 0.65023 0.2296 0.0
H196 H 0.25141 0.73848 0.22886 0.0
H197 H 0.19677 0.69541 0.24138 0.0
H198 H 0.22904 0.62566 0.23079 0.0
H199 H 0.28436 0.66927 0.21972 0.0
C200 C 0.14452 0.58505 0.27839 0.0
C201 C 0.11638 0.58824 0.27585 0.0
C202 C 0.17368 0.60615 0.26466 0.0
C203 C 0.17543 0.63084 0.24764 0.0
C204 C 0.14628 0.63211 0.24312 0.0
C205 C 0.11704 0.61106 0.25718 0.0
C206 C 0.24682 0.71393 0.22911 0.0
C207 C 0.2724 0.70738 0.22363 0.0
C208 C 0.21524 0.68905 0.236 0.0
C209 C 0.20814 0.65679 0.23718 0.0
C210 C 0.23355 0.65018 0.23068 0.0
C211 C 0.26534 0.67518 0.22426 0.0
H212 H 0.57504 0.11481 0.42318 0.0
H213 H 0.48505 0.11315 0.44514 0.0
H214 H 0.59603 0.16803 0.40203 0.0
H215 H 0.50589 0.16647 0.42414 0.0
H216 H 0.55151 0.26251 0.37809 0.0
H217 H 0.52732 0.20399 0.38304 0.0
H218 H 0.61386 0.21915 0.4278 0.0
H219 H 0.63787 0.27731 0.42297 0.0
C220 C 0.55913 0.12521 0.42221 0.0
C221 C 0.52827 0.10979 0.43534 0.0
C222 C 0.57131 0.15586 0.41051 0.0
C223 C 0.55285 0.1717 0.41181 0.0
C224 C 0.52065 0.15487 0.42263 0.0
C225 C 0.50855 0.12424 0.43447 0.0
C226 C 0.56555 0.25328 0.38863 0.0
C227 C 0.59656 0.27457 0.40026 0.0
C228 C 0.55163 0.21978 0.39152 0.0
C229 C 0.56868 0.20688 0.40571 0.0
C230 C 0.60024 0.22821 0.41637 0.0
C231 C 0.61393 0.26161 0.41379 0.0
H232 H 0.41598 0.49719 0.59873 0.0
H233 H 0.46751 0.59248 0.63473 0.0
H234 H 0.38178 0.51268 0.57188 0.0
H235 H 0.43215 0.60731 0.60981 0.0
H236 H 0.36865 0.63215 0.55867 0.0
H237 H 0.41153 0.61966 0.57134 0.0
H238 H 0.33715 0.5193 0.58197 0.0
H239 H 0.29499 0.5316 0.5678 0.0
C240 C 0.42046 0.52164 0.60046 0.0
C241 C 0.44403 0.54342 0.61921 0.0
C242 C 0.40046 0.53042 0.58546 0.0
C243 C 0.40337 0.56103 0.58915 0.0
C244 C 0.42894 0.58358 0.60618 0.0
C245 C 0.44915 0.57497 0.62076 0.0
C246 C 0.36161 0.60741 0.56354 0.0
C247 C 0.3284 0.58293 0.5624 0.0
C248 C 0.38618 0.60018 0.5709 0.0
C249 C 0.37805 0.56838 0.57785 0.0
C250 C 0.34476 0.54392 0.57622 0.0
C251 C 0.32037 0.55106 0.56838 0.0
H252 H 0.89133 0.46307 0.79246 0.0
H253 H 0.93935 0.41465 0.75677 0.0
H254 H 0.8405 0.42617 0.76898 0.0
H255 H 0.88865 0.37838 0.73157 0.0
H256 H 0.78329 0.29087 0.73137 0.0
H257 H 0.83802 0.33385 0.74383 0.0
H258 H 0.80681 0.40409 0.7308 0.0
H259 H 0.75137 0.36059 0.71978 0.0
C260 C 0.89121 0.44506 0.77875 0.0
C261 C 0.91911 0.44138 0.77678 0.0
C262 C 0.86201 0.42391 0.76506 0.0
C263 C 0.85999 0.39867 0.74866 0.0
C264 C 0.88893 0.39692 0.74464 0.0
C265 C 0.9182 0.41802 0.75866 0.0
C266 C 0.78812 0.31551 0.7311 0.0
C267 C 0.76282 0.32225 0.72491 0.0
C268 C 0.81976 0.34033 0.73794 0.0
C269 C 0.82718 0.37271 0.73837 0.0
C270 C 0.80204 0.37949 0.73125 0.0
C271 C 0.77018 0.35455 0.72487 0.0
H272 H 0.46264 0.91726 0.92207 0.0
H273 H 0.54948 0.91472 0.94769 0.0
H274 H 0.44103 0.86429 0.90016 0.0
H275 H 0.52815 0.86183 0.9258 0.0
H276 H 0.39582 0.75366 0.92027 0.0
H277 H 0.42047 0.8119 0.92534 0.0
H278 H 0.50815 0.8261 0.88335 0.0
H279 H 0.48332 0.76756 0.87811 0.0
C280 C 0.4778 0.90601 0.92177 0.0
C281 C 0.50791 0.92016 0.93611 0.0
C282 C 0.46526 0.87553 0.90961 0.0
C283 C 0.48268 0.85868 0.91155 0.0
C284 C 0.51424 0.87425 0.92373 0.0
C285 C 0.52661 0.90462 0.93611 0.0
C286 C 0.42012 0.76918 0.91168 0.0
C287 C 0.43767 0.75595 0.89893 0.0
C288 C 0.43418 0.80262 0.9144 0.0
C289 C 0.46629 0.82366 0.90472 0.0
C290 C 0.48342 0.8105 0.89109 0.0
C291 C 0.46915 0.777 0.88803 0.0
H292 H 0.62165 0.53516 0.10636 0.0
H293 H 0.56385 0.43596 0.13284 0.0
H294 H 0.65778 0.52161 0.08035 0.0
H295 H 0.60113 0.42291 0.10912 0.0
H296 H 0.66652 0.40108 0.05752 0.0
H297 H 0.62421 0.41398 0.07091 0.0
H298 H 0.70019 0.51176 0.08993 0.0
H299 H 0.7419 0.49923 0.07482 0.0
C300 C 0.61637 0.51039 0.10632 0.0
C301 C 0.59023 0.48681 0.12213 0.0
C302 C 0.63745 0.50264 0.09181 0.0
C303 C 0.63312 0.47125 0.09307 0.0
C304 C 0.60551 0.4473 0.10735 0.0
C305 C 0.58422 0.4549 0.12136 0.0
C306 C 0.67403 0.42534 0.06442 0.0
C307 C 0.70753 0.44906 0.06525 0.0
C308 C 0.64979 0.43281 0.07223 0.0
C309 C 0.6585 0.464 0.08173 0.0
C310 C 0.69215 0.4877 0.08222 0.0
C311 C 0.71625 0.48041 0.07383 0.0
H312 H 0.38766 0.91045 0.50679 0.0
H313 H 0.47915 0.90995 0.51349 0.0
H314 H 0.35867 0.8578 0.52959 0.0
H315 H 0.45047 0.85741 0.53662 0.0
H316 H 0.37819 0.74742 0.52146 0.0
H317 H 0.4124 0.80542 0.51482 0.0
H318 H 0.34906 0.82146 0.56959 0.0
H319 H 0.31456 0.76311 0.57617 0.0
C320 C 0.40178 0.89977 0.51451 0.0
C321 C 0.43562 0.91432 0.50882 0.0
C322 C 0.38521 0.86951 0.52741 0.0
C323 C 0.40218 0.85315 0.53454 0.0
C324 C 0.43662 0.86917 0.53102 0.0
C325 C 0.45315 0.89944 0.5182 0.0
C326 C 0.37179 0.76329 0.53242 0.0
C327 C 0.34352 0.7506 0.54919 0.0
C328 C 0.39159 0.79662 0.52881 0.0
C329 C 0.38353 0.81816 0.54173 0.0
C330 C 0.35585 0.80553 0.55925 0.0
C331 C 0.33616 0.77211 0.56307 0.0
H332 H 0.57785 0.46976 0.69223 0.0
H333 H 0.48829 0.38107 0.67412 0.0
H334 H 0.60184 0.43904 0.7123 0.0
H335 H 0.51199 0.35018 0.6941 0.0
H336 H 0.56118 0.30216 0.73897 0.0
H337 H 0.53594 0.33607 0.73447 0.0
H338 H 0.61982 0.40518 0.68691 0.0
H339 H 0.64498 0.37141 0.69138 0.0
C340 C 0.56278 0.44374 0.6938 0.0
C341 C 0.53109 0.42772 0.6821 0.0
C342 C 0.57664 0.42612 0.70486 0.0
C343 C 0.55899 0.39215 0.70447 0.0
C344 C 0.52617 0.37629 0.69495 0.0
C345 C 0.51246 0.39393 0.68367 0.0
C346 C 0.57443 0.32481 0.72788 0.0
C347 C 0.60501 0.33398 0.71538 0.0
C348 C 0.55991 0.34418 0.72526 0.0
C349 C 0.57586 0.37336 0.71039 0.0
C350 C 0.60706 0.3831 0.69886 0.0
C351 C 0.62138 0.3636 0.70122 0.0
H352 H 0.1175 0.49439 0.83604 0.0
H353 H 0.13963 0.59316 0.84152 0.0
H354 H 0.16926 0.50878 0.8598 0.0
H355 H 0.19073 0.60763 0.8662 0.0
H356 H 0.29797 0.62986 0.86893 0.0
H357 H 0.24277 0.61481 0.85306 0.0
H358 H 0.2027 0.52648 0.90051 0.0
H359 H 0.25808 0.54107 0.91566 0.0
C360 C 0.13295 0.51892 0.84331 0.0
C361 C 0.12469 0.54267 0.8372 0.0
C362 C 0.16265 0.52728 0.85686 0.0
C363 C 0.18453 0.55953 0.8646 0.0
C364 C 0.17495 0.58274 0.85999 0.0
C365 C 0.14549 0.57444 0.84624 0.0
C366 C 0.2774 0.60734 0.87611 0.0
C367 C 0.28257 0.58666 0.89344 0.0
C368 C 0.2456 0.59875 0.86718 0.0
C369 C 0.2181 0.56938 0.87553 0.0
C370 C 0.22325 0.54903 0.89334 0.0
C371 C 0.25507 0.55752 0.90212 0.0
H372 H 0.5485 0.12608 0.00515 0.0
H373 H 0.63561 0.11715 0.00384 0.0
H374 H 0.57954 0.1787 0.02768 0.0
H375 H 0.66716 0.17021 0.02583 0.0
H376 H 0.71449 0.26565 0.07285 0.0
H377 H 0.67814 0.20779 0.06469 0.0
H378 H 0.6207 0.22937 0.00749 0.0
H379 H 0.65657 0.28674 0.01582 0.0
C380 C 0.57406 0.13496 0.01068 0.0
C381 C 0.58967 0.11757 0.00308 0.0
C382 C 0.59198 0.16526 0.02321 0.0
C383 C 0.62602 0.17901 0.02807 0.0
C384 C 0.64097 0.16033 0.02253 0.0
C385 C 0.62293 0.12987 0.01007 0.0
C386 C 0.69381 0.25795 0.05883 0.0
C387 C 0.68849 0.28083 0.04491 0.0
C388 C 0.67308 0.22481 0.05408 0.0
C389 C 0.64641 0.21385 0.0355 0.0
C390 C 0.64061 0.23681 0.0223 0.0
C391 C 0.66138 0.26981 0.0269 0.0
H392 H 0.5492 0.6526 0.17539 0.0
H393 H 0.46103 0.56283 0.19391 0.0
H394 H 0.52476 0.6825 0.19585 0.0
H395 H 0.43626 0.59262 0.21441 0.0
H396 H 0.39128 0.65908 0.19346 0.0
H397 H 0.41709 0.62587 0.18913 0.0
H398 H 0.50067 0.69581 0.23658 0.0
H399 H 0.47477 0.72914 0.24096 0.0
C400 C 0.52518 0.6393 0.18509 0.0
C401 C 0.50713 0.60547 0.18344 0.0
C402 C 0.51105 0.65638 0.19667 0.0
C403 C 0.47837 0.63994 0.20642 0.0
C404 C 0.46135 0.60596 0.20679 0.0
C405 C 0.47566 0.58888 0.19547 0.0
C406 C 0.41494 0.66718 0.20333 0.0
C407 C 0.43105 0.69688 0.21738 0.0
C408 C 0.42963 0.64799 0.20105 0.0
C409 C 0.46096 0.65817 0.21254 0.0
C410 C 0.4766 0.68737 0.2274 0.0
C411 C 0.46171 0.70641 0.22995 0.0
H412 H 0.91937 0.53205 0.33553 0.0
H413 H 0.89347 0.43201 0.33756 0.0
H414 H 0.86742 0.51829 0.35849 0.0
H415 H 0.84215 0.41812 0.36149 0.0
H416 H 0.73606 0.39939 0.36425 0.0
H417 H 0.79103 0.41313 0.34867 0.0
H418 H 0.83314 0.50003 0.39825 0.0
H419 H 0.77814 0.48685 0.41298 0.0
C420 C 0.90302 0.5073 0.34186 0.0
C421 C 0.91031 0.48309 0.33495 0.0
C422 C 0.87319 0.49931 0.35495 0.0
C423 C 0.85021 0.46694 0.36152 0.0
C424 C 0.85876 0.44313 0.35615 0.0
C425 C 0.88835 0.4511 0.34283 0.0
C426 C 0.75706 0.42132 0.37193 0.0
C427 C 0.7526 0.44208 0.3897 0.0
C428 C 0.7887 0.42915 0.36316 0.0
C429 C 0.81672 0.45777 0.37218 0.0
C430 C 0.81222 0.47809 0.39049 0.0
C431 C 0.7806 0.47042 0.39904 0.0
H432 H 0.07945 0.51809 0.38017 0.0
H433 H 0.09747 0.61549 0.37381 0.0
H434 H 0.11244 0.53251 0.42281 0.0
H435 H 0.1307 0.63023 0.41591 0.0
H436 H 0.17914 0.64533 0.4995 0.0
H437 H 0.13454 0.62408 0.4655 0.0
H438 H 0.17212 0.56611 0.42956 0.0
H439 H 0.21626 0.58684 0.46387 0.0
C440 C 0.08953 0.54224 0.38853 0.0
C441 C 0.08589 0.56569 0.37406 0.0
C442 C 0.10875 0.55065 0.41263 0.0
C443 C 0.12455 0.58264 0.42253 0.0
C444 C 0.1187 0.60536 0.40904 0.0
C445 C 0.09965 0.59697 0.38497 0.0
C446 C 0.17782 0.62799 0.48437 0.0
C447 C 0.20136 0.61794 0.48422 0.0
C448 C 0.15224 0.61579 0.46493 0.0
C449 C 0.14967 0.59329 0.44491 0.0
C450 C 0.17301 0.58295 0.44502 0.0
C451 C 0.19856 0.59514 0.46446 0.0
H452 H 0.50348 0.06076 0.55507 0.0
H453 H 0.5959 0.1232 0.51427 0.0
H454 H 0.52456 0.09265 0.59759 0.0
H455 H 0.61646 0.1558 0.55587 0.0
H456 H 0.65342 0.20431 0.63718 0.0
H457 H 0.63431 0.1623 0.602 0.0
H458 H 0.53486 0.1447 0.61189 0.0
H459 H 0.55392 0.18582 0.64805 0.0
C460 C 0.52856 0.08081 0.55545 0.0
C461 C 0.54798 0.08973 0.53137 0.0
C462 C 0.54049 0.09939 0.57962 0.0
C463 C 0.57202 0.12721 0.58008 0.0
C464 C 0.59218 0.13453 0.5565 0.0
C465 C 0.58035 0.11593 0.53253 0.0
C466 C 0.62745 0.19139 0.63188 0.0
C467 C 0.6052 0.1986 0.64513 0.0
C468 C 0.61647 0.16729 0.61168 0.0
C469 C 0.58303 0.15012 0.6039 0.0
C470 C 0.56068 0.15698 0.6176 0.0
C471 C 0.57163 0.18083 0.63811 0.0
H472 H 0.51451 0.55545 0.7325 0.0
H473 H 0.41182 0.5164 0.71131 0.0
H474 H 0.50433 0.573 0.77774 0.0
H475 H 0.4022 0.5347 0.75564 0.0
H476 H 0.42272 0.62323 0.81291 0.0
H477 H 0.43975 0.60458 0.77227 0.0
H478 H 0.45076 0.53634 0.82306 0.0
H479 H 0.43312 0.55439 0.86382 0.0
C480 C 0.48979 0.55011 0.73772 0.0
C481 C 0.46405 0.53504 0.71833 0.0
C482 C 0.48405 0.56026 0.76338 0.0
C483 C 0.45264 0.55554 0.76966 0.0
C484 C 0.42667 0.53891 0.75095 0.0
C485 C 0.43223 0.52849 0.72568 0.0
C486 C 0.42912 0.60453 0.81552 0.0
C487 C 0.42625 0.59006 0.84149 0.0
C488 C 0.43892 0.59397 0.79233 0.0
C489 C 0.44665 0.56925 0.79481 0.0
C490 C 0.44515 0.55564 0.82085 0.0
C491 C 0.43482 0.56581 0.84401 0.0
H492 H 0.95464 0.5126 0.87984 0.0
H493 H 0.9387 0.41581 0.8758 0.0
H494 H 0.92137 0.49864 0.92224 0.0
H495 H 0.90512 0.40146 0.91761 0.0
H496 H 0.85581 0.38699 0.0004 0.0
H497 H 0.90059 0.40825 0.9667 0.0
H498 H 0.86205 0.46471 0.92917 0.0
H499 H 0.81776 0.44405 0.96329 0.0
C500 C 0.94495 0.48872 0.88867 0.0
C501 C 0.9493 0.46529 0.87496 0.0
C502 C 0.92555 0.48054 0.91262 0.0
C503 C 0.91024 0.44881 0.92309 0.0
C504 C 0.91675 0.42617 0.91032 0.0
C505 C 0.93601 0.43433 0.88642 0.0
C506 C 0.85695 0.40401 0.98499 0.0
C507 C 0.83311 0.41365 0.98435 0.0
C508 C 0.88264 0.41621 0.96571 0.0
C509 C 0.88498 0.43827 0.94531 0.0
C510 C 0.86134 0.44822 0.94493 0.0
C511 C 0.8357 0.43607 0.96426 0.0
H512 H 0.44192 0.90649 0.01502 0.0
H513 H 0.53391 0.96998 0.05605 0.0
H514 H 0.42139 0.8742 0.05674 0.0
H515 H 0.51289 0.93826 0.09875 0.0
H516 H 0.48305 0.84514 0.15007 0.0
H517 H 0.50254 0.88626 0.11383 0.0
H518 H 0.40316 0.86845 0.10263 0.0
H519 H 0.38365 0.82647 0.13783 0.0
C520 C 0.45736 0.91404 0.03337 0.0
C521 C 0.48957 0.94049 0.0323 0.0
C522 C 0.44556 0.89562 0.05741 0.0
C523 C 0.46558 0.90333 0.08115 0.0
C524 C 0.49704 0.93127 0.08068 0.0
C525 C 0.50894 0.94973 0.05643 0.0
C526 C 0.46545 0.8501 0.13983 0.0
C527 C 0.43177 0.83224 0.14644 0.0
C528 C 0.47664 0.87394 0.11927 0.0
C529 C 0.45442 0.88068 0.10515 0.0
C530 C 0.4209 0.86352 0.11262 0.0
C531 C 0.40969 0.83942 0.13283 0.0
H532 H 0.53433 0.42906 0.2045 0.0
H533 H 0.56105 0.52271 0.23797 0.0
H534 H 0.54738 0.41352 0.24836 0.0
H535 H 0.57159 0.5063 0.28293 0.0
H536 H 0.63912 0.48837 0.33988 0.0
H537 H 0.61442 0.50085 0.30098 0.0
H538 H 0.54012 0.39985 0.29439 0.0
H539 H 0.56641 0.38734 0.33223 0.0
C540 C 0.54206 0.44601 0.22159 0.0
C541 C 0.54754 0.47743 0.21755 0.0
C542 C 0.54928 0.43698 0.24697 0.0
C543 C 0.56145 0.45891 0.26922 0.0
C544 C 0.56341 0.48913 0.26602 0.0
C545 C 0.55674 0.49838 0.24037 0.0
C546 C 0.61753 0.46887 0.33003 0.0
C547 C 0.60496 0.43685 0.33881 0.0
C548 C 0.603 0.47604 0.30791 0.0
C549 C 0.57504 0.45143 0.29438 0.0
C550 C 0.56196 0.41943 0.3038 0.0
C551 C 0.577 0.4122 0.32554 0.0
H552 H 0.4019 0.89677 0.41728 0.0
H553 H 0.50116 0.9659 0.3917 0.0
H554 H 0.39259 0.86843 0.37343 0.0
H555 H 0.49084 0.93804 0.34681 0.0
H556 H 0.42532 0.88948 0.26203 0.0
H557 H 0.44246 0.92194 0.30448 0.0
H558 H 0.42515 0.83813 0.35145 0.0
H559 H 0.40874 0.80568 0.30898 0.0
C560 C 0.42178 0.90598 0.4023 0.0
C561 C 0.45257 0.93326 0.4083 0.0
C562 C 0.41633 0.88975 0.37718 0.0
C563 C 0.44119 0.9008 0.3571 0.0
C564 C 0.47141 0.92903 0.3622 0.0
C565 C 0.47718 0.94505 0.38774 0.0
C566 C 0.42554 0.87806 0.28137 0.0
C567 C 0.41543 0.84496 0.28226 0.0
C568 C 0.43557 0.89671 0.30554 0.0
C569 C 0.43502 0.88242 0.33105 0.0
C570 C 0.42573 0.84959 0.3319 0.0
C571 C 0.41639 0.83108 0.30766 0.0
H572 H 0.57333 0.50167 0.57976 0.0
H573 H 0.49007 0.40501 0.58282 0.0
H574 H 0.59206 0.48834 0.53681 0.0
H575 H 0.50864 0.39135 0.54042 0.0
H576 H 0.54125 0.37953 0.45571 0.0
H577 H 0.51926 0.40005 0.49106 0.0
H578 H 0.616 0.45365 0.52816 0.0
H579 H 0.63814 0.43367 0.49246 0.0
C580 C 0.55856 0.47794 0.57068 0.0
C581 C 0.53025 0.45436 0.58425 0.0
C582 C 0.56942 0.47014 0.54639 0.0
C583 C 0.55201 0.43867 0.53539 0.0
C584 C 0.52246 0.41586 0.54814 0.0
C585 C 0.51177 0.42362 0.57239 0.0
C586 C 0.55784 0.39574 0.47139 0.0
C587 C 0.59138 0.40478 0.47144 0.0
C588 C 0.54523 0.40752 0.49161 0.0
C589 C 0.56589 0.42857 0.51236 0.0
C590 C 0.59954 0.43793 0.51219 0.0
C591 C 0.61215 0.42616 0.49194 0.0
H592 H 0.13504 0.60388 0.75548 0.0
H593 H 0.05943 0.51359 0.72108 0.0
H594 H 0.16332 0.61822 0.71129 0.0
H595 H 0.08631 0.52904 0.67597 0.0
H596 H 0.16785 0.54057 0.61701 0.0
H597 H 0.13266 0.53042 0.65706 0.0
H598 H 0.1695 0.63297 0.66515 0.0
H599 H 0.20618 0.64306 0.62588 0.0
C600 C 0.12398 0.58744 0.7382 0.0
C601 C 0.09548 0.55718 0.74201 0.0
C602 C 0.14006 0.59583 0.71265 0.0
C603 C 0.12766 0.57446 0.69003 0.0
C604 C 0.09724 0.54565 0.69313 0.0
C605 C 0.08143 0.53701 0.7189 0.0
C606 C 0.16845 0.56094 0.62739 0.0
C607 C 0.19004 0.59263 0.6185 0.0
C608 C 0.14789 0.55512 0.6502 0.0
C609 C 0.14789 0.58081 0.66443 0.0
C610 C 0.1691 0.61255 0.65509 0.0
C611 C 0.19017 0.61839 0.63256 0.0
H612 H 0.58749 0.06806 0.88923 0.0
H613 H 0.53545 0.11713 0.91393 0.0
H614 H 0.6016 0.09678 0.84516 0.0
H615 H 0.54804 0.14492 0.86932 0.0
H616 H 0.61647 0.22157 0.80694 0.0
H617 H 0.59417 0.18752 0.84784 0.0
H618 H 0.58615 0.10633 0.80173 0.0
H619 H 0.60996 0.14083 0.76142 0.0
C620 C 0.57812 0.0842 0.88474 0.0
C621 C 0.56049 0.09048 0.90488 0.0
C622 C 0.58618 0.10075 0.85947 0.0
C623 C 0.57637 0.12363 0.85369 0.0
C624 C 0.5568 0.12818 0.87327 0.0
C625 C 0.54919 0.112 0.89868 0.0
C626 C 0.60985 0.19643 0.80557 0.0
C627 C 0.61532 0.18401 0.78105 0.0
C628 C 0.59675 0.17674 0.82896 0.0
C629 C 0.58831 0.14403 0.82823 0.0
C630 C 0.59294 0.13149 0.80335 0.0
C631 C 0.60651 0.15128 0.78015 0.0
H632 H 0.54867 0.6333 0.08574 0.0
H633 H 0.47094 0.53424 0.07795 0.0
H634 H 0.53002 0.64708 0.04334 0.0
H635 H 0.45218 0.54783 0.03515 0.0
H636 H 0.49767 0.65866 0.95758 0.0
H637 H 0.52135 0.63956 -0.00714 0.0
H638 H 0.42468 0.58043 0.02854 0.0
H639 H 0.40094 0.5992 -0.00685 0.0
C640 C 0.52821 0.61431 0.07434 0.0
C641 C 0.51118 0.58277 0.08493 0.0
C642 C 0.51752 0.62214 0.05009 0.0
C643 C 0.48939 0.59861 0.03611 0.0
C644 C 0.47368 0.56653 0.04574 0.0
C645 C 0.48459 0.55864 0.06995 0.0
C646 C 0.48148 0.64156 0.97295 0.0
C647 C 0.44748 0.6306 0.97272 0.0
C648 C 0.49504 0.63059 -0.0069 0.0
C649 C 0.47485 0.60833 0.01333 0.0
C650 C 0.4408 0.59714 0.01291 0.0
C651 C 0.42726 0.60821 -0.00714 0.0
H652 H 0.97655 0.51318 0.21985 0.0
H653 H 0.90243 0.42172 0.25352 0.0
H654 H 0.94929 0.49814 0.17486 0.0
H655 H 0.87366 0.40776 0.2095 0.0
H656 H 0.82878 0.38489 0.12449 0.0
H657 H 0.86626 0.39416 0.16308 0.0
H658 H 0.90245 0.4968 0.15736 0.0
H659 H 0.86651 0.4875 0.11802 0.0
C660 C 0.95484 0.48957 0.21751 0.0
C661 C 0.94123 0.46898 0.24043 0.0
C662 C 0.93877 0.48115 0.19183 0.0
C663 C 0.90851 0.45218 0.18864 0.0
C664 C 0.89674 0.43032 0.21094 0.0
C665 C 0.91312 0.43848 0.2364 0.0
C666 C 0.84482 0.40939 0.13157 0.0
C667 C 0.84459 0.43544 0.11835 0.0
C668 C 0.86636 0.41476 0.1537 0.0
C669 C 0.88768 0.44629 0.16345 0.0
C670 C 0.88721 0.47225 0.15012 0.0
C671 C 0.8662 0.46691 0.12772 0.0
loop_
_geom_bond_atom_site_label_1
_geom_bond_atom_site_label_2
_geom_bond_distance
_geom_bond_site_symmetry_2
_ccdc_geom_bond_type
H0 C6 0.930 . S
H1 C9 0.931 . S
H2 C11 0.931 . S
H3 C13 0.930 . S
H4 C15 0.930 . S
H5 C17 0.916 1_455 S
C6 H0 0.930 . S
C6 C7 1.380 . S
C6 C8 1.394 . S
C7 C6 1.380 . S
C7 C11 1.382 . S
C8 C6 1.394 . S
C8 C9 1.400 . S
C9 H1 0.931 . S
C9 C8 1.400 . S
C9 C10 1.375 . S
C10 C9 1.375 . S
C10 C11 1.415 . S
C10 C12 1.501 1_455 S
C11 H2 0.931 . S
C11 C7 1.382 . S
C11 C10 1.415 . S
C12 C10 1.501 1_655 S
C12 C13 1.384 . S
C12 C17 1.408 . S
C13 H3 0.930 . S
C13 C12 1.384 . S
C13 C14 1.389 . S
C14 C13 1.389 . S
C14 C15 1.405 . S
C15 H4 0.930 . S
C15 C14 1.405 . S
C15 C16 1.364 . S
C16 C15 1.364 . S
C16 C17 1.400 . S
C17 H5 0.916 1_655 S
C17 C12 1.408 . S
C17 C16 1.400 . S
H18 C24 0.930 . S
H19 C27 0.931 . S
H20 C29 0.931 . S
H21 C31 0.930 . S
H22 C33 0.930 . S
H23 C35 0.916 1_545 S
C24 H18 0.930 . S
C24 C25 1.380 . S
C24 C26 1.394 . S
C25 C24 1.380 . S
C25 C29 1.382 . S
C26 C24 1.394 . S
C26 C27 1.400 . S
C27 H19 0.931 . S
C27 C26 1.400 . S
C27 C28 1.375 . S
C28 C27 1.375 . S
C28 C29 1.415 . S
C28 C30 1.501 1_545 S
C29 H20 0.931 . S
C29 C25 1.382 . S
C29 C28 1.415 . S
C30 C28 1.501 1_565 S
C30 C31 1.384 . S
C30 C35 1.408 . S
C31 H21 0.930 . S
C31 C30 1.384 . S
C31 C32 1.389 . S
C32 C31 1.389 . S
C32 C33 1.405 . S
C33 H22 0.930 . S
C33 C32 1.405 . S
C33 C34 1.364 . S
C34 C33 1.364 . S
C34 C35 1.400 . S
C35 H23 0.916 1_565 S
C35 C30 1.408 . S
C35 C34 1.400 . S
H36 C42 0.930 . S
H37 C45 0.931 . S
H38 C47 0.931 . S
H39 C49 0.930 . S
H40 C51 0.930 . S
H41 C53 0.931 . S
C42 H36 0.930 . S
C42 C43 1.380 . S
C42 C44 1.394 . S
C43 C42 1.380 . S
C43 C47 1.382 . S
C44 C42 1.394 . S
C44 C45 1.400 . S
C45 H37 0.931 . S
C45 C44 1.400 . S
C45 C46 1.375 . S
C46 C45 1.375 . S
C46 C47 1.415 . S
C46 C48 1.501 . S
C47 H38 0.931 . S
C47 C43 1.382 . S
C47 C46 1.415 . S
C48 C46 1.501 . S
C48 C49 1.384 . S
C48 C53 1.408 . S
C49 H39 0.930 . S
C49 C48 1.384 . S
C49 C50 1.389 . S
C50 C49 1.389 . S
C50 C51 1.405 . S
C51 H40 0.930 . S
C51 C50 1.405 . S
C51 C52 1.364 . S
C52 C51 1.364 . S
C52 C53 1.400 . S
C53 H41 0.931 . S
C53 C48 1.408 . S
C53 C52 1.400 . S
H54 C60 0.930 . S
H55 C63 0.931 . S
H56 C65 0.931 . S
H57 C67 0.930 . S
H58 C69 0.930 . S
H59 C71 0.931 . S
C60 H54 0.930 . S
C60 C61 1.380 . S
C60 C62 1.394 . S
C61 C60 1.380 . S
C61 C65 1.382 . S
C62 C60 1.394 . S
C62 C63 1.400 . S
C63 H55 0.931 . S
C63 C62 1.400 . S
C63 C64 1.375 . S
C64 C63 1.375 . S
C64 C65 1.415 . S
C64 C66 1.501 1_455 S
C65 H56 0.931 . S
C65 C61 1.382 . S
C65 C64 1.415 . S
C66 C64 1.501 1_655 S
C66 C67 1.384 . S
C66 C71 1.408 . S
C67 H57 0.930 . S
C67 C66 1.384 . S
C67 C68 1.389 . S
C68 C67 1.389 . S
C68 C69 1.405 . S
C69 H58 0.930 . S
C69 C68 1.405 . S
C69 C70 1.364 . S
C70 C69 1.364 . S
C70 C71 1.400 . S
C71 H59 0.931 . S
C71 C66 1.408 . S
C71 C70 1.400 . S
H72 C78 0.930 . S
H73 C81 0.931 . S
H74 C83 0.931 . S
H75 C85 0.930 . S
H76 C87 0.930 . S
H77 C89 0.931 . S
C78 H72 0.930 . S
C78 C79 1.380 . S
C78 C80 1.394 1_554 S
C79 C78 1.380 . S
C79 C83 1.382 . S
C80 C78 1.394 1_556 S
C80 C81 1.400 . S
C81 H73 0.931 . S
C81 C80 1.400 . S
C81 C82 1.375 . S
C82 C81 1.375 . S
C82 C83 1.415 1_556 S
C82 C84 1.501 1_565 S
C83 H74 0.931 . S
C83 C79 1.382 . S
C83 C82 1.415 1_554 S
C84 C82 1.501 1_545 S
C84 C85 1.384 1_556 S
C84 C89 1.408 . S
C85 H75 0.930 . S
C85 C84 1.384 1_554 S
C85 C86 1.389 1_554 S
C86 C85 1.389 1_556 S
C86 C87 1.405 . S
C87 H76 0.930 . S
C87 C86 1.405 . S
C87 C88 1.364 . S
C88 C87 1.364 . S
C88 C89 1.400 . S
C89 H77 0.931 . S
C89 C84 1.408 . S
C89 C88 1.400 . S
H90 C96 0.930 . S
H91 C99 0.931 . S
H92 C101 0.931 . S
H93 C103 0.930 . S
H94 C105 0.930 . S
H95 C107 0.931 . S
C96 H90 0.930 . S
C96 C97 1.380 . S
C96 C98 1.394 . S
C97 C96 1.380 . S
C97 C101 1.382 . S
C98 C96 1.394 . S
C98 C99 1.400 . S
C99 H91 0.931 . S
C99 C98 1.400 . S
C99 C100 1.375 . S
C100 C99 1.375 . S
C100 C101 1.415 . S
C100 C102 1.501 . S
C101 H92 0.931 . S
C101 C97 1.382 . S
C101 C100 1.415 . S
C102 C100 1.501 . S
C102 C103 1.384 . S
C102 C107 1.408 . S
C103 H93 0.930 . S
C103 C102 1.384 . S
C103 C104 1.389 . S
C104 C103 1.389 . S
C104 C105 1.405 . S
C105 H94 0.930 . S
C105 C104 1.405 . S
C105 C106 1.364 . S
C106 C105 1.364 . S
C106 C107 1.400 . S
C107 H95 0.931 . S
C107 C102 1.408 . S
C107 C106 1.400 . S
C108 O109 1.306 . S
C108 O111 1.160 . S
O109 C108 1.306 . S
O109 Cd110 2.228 . S
Cd110 O109 2.228 . S
Cd110 O114 2.273 . S
Cd110 O118 2.277 . S
O111 C108 1.160 . S
O111 Cd112 2.203 . S
Cd112 O111 2.203 . S
Cd112 O114 2.411 . S
Cd112 O115 2.333 . S
Cd112 O116 2.352 . S
Cd112 O120 2.277 . S
Cd112 O121 2.356 . S
C113 O118 1.209 . S
C113 O120 1.226 . S
O114 Cd110 2.273 . S
O114 Cd112 2.411 . S
O114 C117 1.320 . S
O115 Cd112 2.333 . S
O115 C117 1.214 . S
O116 Cd112 2.352 . S
O116 C119 1.258 . S
C117 O114 1.320 . S
C117 O115 1.214 . S
O118 Cd110 2.277 . S
O118 C113 1.209 . S
C119 O116 1.258 . S
C119 O121 1.282 . S
O120 Cd112 2.277 . S
O120 C113 1.226 . S
O121 Cd112 2.356 . S
O121 C119 1.282 . S
C122 O123 1.306 . S
C122 O125 1.160 . S
O123 C122 1.306 . S
O123 Cd124 2.228 . S
Cd124 O123 2.228 . S
Cd124 O128 2.273 . S
Cd124 O132 2.277 . S
O125 C122 1.160 . S
O125 Cd126 2.203 . S
Cd126 O125 2.203 . S
Cd126 O128 2.411 . S
Cd126 O129 2.333 . S
Cd126 O130 2.352 . S
Cd126 O134 2.277 . S
Cd126 O135 2.356 . S
C127 O132 1.209 . S
C127 O134 1.226 . S
O128 Cd124 2.273 . S
O128 Cd126 2.411 . S
O128 C131 1.320 . S
O129 Cd126 2.333 . S
O129 C131 1.214 . S
O130 Cd126 2.352 . S
O130 C133 1.258 . S
C131 O128 1.320 . S
C131 O129 1.214 . S
O132 Cd124 2.277 . S
O132 C127 1.209 . S
C133 O130 1.258 . S
C133 O135 1.282 . S
O134 Cd126 2.277 . S
O134 C127 1.226 . S
O135 Cd126 2.356 . S
O135 C133 1.282 . S
C136 O137 1.306 . S
C136 O139 1.160 . S
O137 C136 1.306 . S
O137 Cd138 2.228 . S
Cd138 O137 2.228 . S
Cd138 O142 2.273 . S
Cd138 O146 2.277 . S
O139 C136 1.160 . S
O139 Cd140 2.203 . S
Cd140 O139 2.203 . S
Cd140 O142 2.411 . S
Cd140 O143 2.333 . S
Cd140 O144 2.352 . S
Cd140 O148 2.277 . S
Cd140 O149 2.356 . S
C141 O146 1.209 . S
C141 O148 1.226 . S
O142 Cd138 2.273 . S
O142 Cd140 2.411 . S
O142 C145 1.320 . S
O143 Cd140 2.333 . S
O143 C145 1.214 . S
O144 Cd140 2.352 . S
O144 C147 1.258 . S
C145 O142 1.320 . S
C145 O143 1.214 . S
O146 Cd138 2.277 . S
O146 C141 1.209 . S
C147 O144 1.258 . S
C147 O149 1.282 . S
O148 Cd140 2.277 . S
O148 C141 1.226 . S
O149 Cd140 2.356 . S
O149 C147 1.282 . S
C150 O151 1.306 . S
C150 O153 1.160 . S
O151 C150 1.306 . S
O151 Cd152 2.228 . S
Cd152 O151 2.228 . S
Cd152 O156 2.273 . S
Cd152 O160 2.277 . S
O153 C150 1.160 . S
O153 Cd154 2.203 . S
Cd154 O153 2.203 . S
Cd154 O156 2.411 . S
Cd154 O157 2.333 . S
Cd154 O158 2.352 . S
Cd154 O162 2.277 . S
Cd154 O163 2.356 . S
C155 O160 1.209 . S
C155 O162 1.226 . S
O156 Cd152 2.273 . S
O156 Cd154 2.411 . S
O156 C159 1.320 . S
O157 Cd154 2.333 . S
O157 C159 1.214 . S
O158 Cd154 2.352 . S
O158 C161 1.258 . S
C159 O156 1.320 . S
C159 O157 1.214 . S
O160 Cd152 2.277 . S
O160 C155 1.209 . S
C161 O158 1.258 . S
C161 O163 1.282 . S
O162 Cd154 2.277 . S
O162 C155 1.226 . S
O163 Cd154 2.356 . S
O163 C161 1.282 . S
C164 O165 1.306 . S
C164 O167 1.160 . S
O165 C164 1.306 . S
O165 Cd166 2.228 . S
Cd166 O165 2.228 . S
Cd166 O170 2.273 . S
Cd166 O174 2.277 . S
O167 C164 1.160 . S
O167 Cd168 2.203 . S
Cd168 O167 2.203 . S
Cd168 O170 2.411 . S
Cd168 O171 2.333 . S
Cd168 O172 2.352 . S
Cd168 O176 2.277 . S
Cd168 O177 2.356 . S
C169 O174 1.209 . S
C169 O176 1.226 . S
O170 Cd166 2.273 . S
O170 Cd168 2.411 . S
O170 C173 1.320 . S
O171 Cd168 2.333 . S
O171 C173 1.214 . S
O172 Cd168 2.352 . S
O172 C175 1.258 . S
C173 O170 1.320 . S
C173 O171 1.214 . S
O174 Cd166 2.277 . S
O174 C169 1.209 . S
C175 O172 1.258 . S
C175 O177 1.282 . S
O176 Cd168 2.277 . S
O176 C169 1.226 . S
O177 Cd168 2.356 . S
O177 C175 1.282 . S
C178 O179 1.306 . S
C178 O181 1.160 . S
O179 C178 1.306 . S
O179 Cd180 2.228 . S
Cd180 O179 2.228 . S
Cd180 O184 2.273 . S
Cd180 O188 2.277 . S
O181 C178 1.160 . S
O181 Cd182 2.203 . S
Cd182 O181 2.203 . S
Cd182 O184 2.411 . S
Cd182 O185 2.333 . S
Cd182 O186 2.352 . S
Cd182 O190 2.277 . S
Cd182 O191 2.356 . S
C183 O188 1.209 . S
C183 O190 1.226 . S
O184 Cd180 2.273 . S
O184 Cd182 2.411 . S
O184 C187 1.320 . S
O185 Cd182 2.333 . S
O185 C187 1.214 . S
O186 Cd182 2.352 . S
O186 C189 1.258 . S
C187 O184 1.320 . S
C187 O185 1.214 . S
O188 Cd180 2.277 . S
O188 C183 1.209 . S
C189 O186 1.258 . S
C189 O191 1.282 . S
O190 Cd182 2.277 . S
O190 C183 1.226 . S
O191 Cd182 2.356 . S
O191 C189 1.282 . S
H192 C200 0.950 . S
H193 C205 0.950 . S
H194 C202 0.950 . S
H195 C204 0.950 . S
H196 C206 0.950 . S
H197 C208 0.950 . S
H198 C210 0.950 . S
H199 C211 0.950 . S
C200 H192 0.950 . S
C200 C201 1.386 . S
C200 C202 1.391 . S
C201 C200 1.386 . S
C201 C205 1.393 . S
C202 H194 0.950 . S
C202 C200 1.391 . S
C202 C203 1.400 . S
C203 C202 1.400 . S
C203 C204 1.398 . S
C203 C209 1.491 . S
C204 H195 0.950 . S
C204 C203 1.398 . S
C204 C205 1.391 . S
C205 H193 0.950 . S
C205 C201 1.393 . S
C205 C204 1.391 . S
C206 H196 0.950 . S
C206 C207 1.386 . S
C206 C208 1.391 . S
C207 C206 1.386 . S
C207 C211 1.393 . S
C208 H197 0.950 . S
C208 C206 1.391 . S
C208 C209 1.400 . S
C209 C203 1.491 . S
C209 C208 1.400 . S
C209 C210 1.398 . S
C210 H198 0.950 . S
C210 C209 1.398 . S
C210 C211 1.391 . S
C211 H199 0.950 . S
C211 C207 1.393 . S
C211 C210 1.391 . S
H212 C220 0.950 . S
H213 C225 0.950 . S
H214 C222 0.950 . S
H215 C224 0.950 . S
H216 C226 0.950 . S
H217 C228 0.950 . S
H218 C230 0.950 . S
H219 C231 0.950 . S
C220 H212 0.950 . S
C220 C221 1.386 . S
C220 C222 1.391 . S
C221 C220 1.386 . S
C221 C225 1.393 . S
C222 H214 0.950 . S
C222 C220 1.391 . S
C222 C223 1.400 . S
C223 C222 1.400 . S
C223 C224 1.398 . S
C223 C229 1.491 . S
C224 H215 0.950 . S
C224 C223 1.398 . S
C224 C225 1.391 . S
C225 H213 0.950 . S
C225 C221 1.393 . S
C225 C224 1.391 . S
C226 H216 0.950 . S
C226 C227 1.386 . S
C226 C228 1.391 . S
C227 C226 1.386 . S
C227 C231 1.393 . S
C228 H217 0.950 . S
C228 C226 1.391 . S
C228 C229 1.400 . S
C229 C223 1.491 . S
C229 C228 1.400 . S
C229 C230 1.398 . S
C230 H218 0.950 . S
C230 C229 1.398 . S
C230 C231 1.391 . S
C231 H219 0.950 . S
C231 C227 1.393 . S
C231 C230 1.391 . S
H232 C240 0.950 . S
H233 C245 0.950 . S
H234 C242 0.950 . S
H235 C244 0.950 . S
H236 C246 0.950 . S
H237 C248 0.950 . S
H238 C250 0.950 . S
H239 C251 0.950 . S
C240 H232 0.950 . S
C240 C241 1.386 . S
C240 C242 1.391 . S
C241 C240 1.386 . S
C241 C245 1.393 . S
C242 H234 0.950 . S
C242 C240 1.391 . S
C242 C243 1.400 . S
C243 C242 1.400 . S
C243 C244 1.398 . S
C243 C249 1.491 . S
C244 H235 0.950 . S
C244 C243 1.398 . S
C244 C245 1.391 . S
C245 H233 0.950 . S
C245 C241 1.393 . S
C245 C244 1.391 . S
C246 H236 0.950 . S
C246 C247 1.386 . S
C246 C248 1.391 . S
C247 C246 1.386 . S
C247 C251 1.393 . S
C248 H237 0.950 . S
C248 C246 1.391 . S
C248 C249 1.400 . S
C249 C243 1.491 . S
C249 C248 1.400 . S
C249 C250 1.398 . S
C250 H238 0.950 . S
C250 C249 1.398 . S
C250 C251 1.391 . S
C251 H239 0.950 . S
C251 C247 1.393 . S
C251 C250 1.391 . S
H252 C260 0.950 . S
H253 C265 0.950 . S
H254 C262 0.950 . S
H255 C264 0.950 . S
H256 C266 0.950 . S
H257 C268 0.950 . S
H258 C270 0.950 . S
H259 C271 0.950 . S
C260 H252 0.950 . S
C260 C261 1.386 . S
C260 C262 1.391 . S
C261 C260 1.386 . S
C261 C265 1.393 . S
C262 H254 0.950 . S
C262 C260 1.391 . S
C262 C263 1.400 . S
C263 C262 1.400 . S
C263 C264 1.398 . S
C263 C269 1.491 . S
C264 H255 0.950 . S
C264 C263 1.398 . S
C264 C265 1.391 . S
C265 H253 0.950 . S
C265 C261 1.393 . S
C265 C264 1.391 . S
C266 H256 0.950 . S
C266 C267 1.386 . S
C266 C268 1.391 . S
C267 C266 1.386 . S
C267 C271 1.393 . S
C268 H257 0.950 . S
C268 C266 1.391 . S
C268 C269 1.400 . S
C269 C263 1.491 . S
C269 C268 1.400 . S
C269 C270 1.398 . S
C270 H258 0.950 . S
C270 C269 1.398 . S
C270 C271 1.391 . S
C271 H259 0.950 . S
C271 C267 1.393 . S
C271 C270 1.391 . S
H272 C280 0.950 . S
H273 C285 0.950 1_554 S
H274 C282 0.950 . S
H275 C284 0.950 . S
H276 C286 0.950 . S
H277 C288 0.950 . S
H278 C290 0.950 . S
H279 C291 0.950 . S
C280 H272 0.950 . S
C280 C281 1.386 . S
C280 C282 1.391 . S
C281 C280 1.386 . S
C281 C285 1.393 . S
C282 H274 0.950 . S
C282 C280 1.391 . S
C282 C283 1.400 . S
C283 C282 1.400 . S
C283 C284 1.398 . S
C283 C289 1.491 . S
C284 H275 0.950 . S
C284 C283 1.398 . S
C284 C285 1.391 . S
C285 H273 0.950 1_556 S
C285 C281 1.393 . S
C285 C284 1.391 . S
C286 H276 0.950 . S
C286 C287 1.386 . S
C286 C288 1.391 . S
C287 C286 1.386 . S
C287 C291 1.393 . S
C288 H277 0.950 . S
C288 C286 1.391 . S
C288 C289 1.400 . S
C289 C283 1.491 . S
C289 C288 1.400 . S
C289 C290 1.398 . S
C290 H278 0.950 . S
C290 C289 1.398 . S
C290 C291 1.391 . S
C291 H279 0.950 . S
C291 C287 1.393 . S
C291 C290 1.391 . S
H292 C300 0.950 . S
H293 C305 0.950 . S
H294 C302 0.950 . S
H295 C304 0.950 . S
H296 C306 0.950 . S
H297 C308 0.950 . S
H298 C310 0.950 . S
H299 C311 0.950 . S
C300 H292 0.950 . S
C300 C301 1.386 . S
C300 C302 1.391 . S
C301 C300 1.386 . S
C301 C305 1.393 . S
C302 H294 0.950 . S
C302 C300 1.391 . S
C302 C303 1.400 . S
C303 C302 1.400 . S
C303 C304 1.398 . S
C303 C309 1.491 . S
C304 H295 0.950 . S
C304 C303 1.398 . S
C304 C305 1.391 . S
C305 H293 0.950 . S
C305 C301 1.393 . S
C305 C304 1.391 . S
C306 H296 0.950 . S
C306 C307 1.386 . S
C306 C308 1.391 . S
C307 C306 1.386 . S
C307 C311 1.393 . S
C308 H297 0.950 . S
C308 C306 1.391 . S
C308 C309 1.400 . S
C309 C303 1.491 . S
C309 C308 1.400 . S
C309 C310 1.398 . S
C310 H298 0.950 . S
C310 C309 1.398 . S
C310 C311 1.391 . S
C311 H299 0.950 . S
C311 C307 1.393 . S
C311 C310 1.391 . S
H312 C320 0.950 . S
H313 C325 0.950 . S
H314 C322 0.950 . S
H315 C324 0.950 . S
H316 C326 0.950 . S
H317 C328 0.950 . S
H318 C330 0.950 . S
H319 C331 0.950 . S
C320 H312 0.950 . S
C320 C321 1.386 . S
C320 C322 1.391 . S
C321 C320 1.386 . S
C321 C325 1.393 . S
C322 H314 0.950 . S
C322 C320 1.391 . S
C322 C323 1.400 . S
C323 C322 1.400 . S
C323 C324 1.398 . S
C323 C329 1.491 . S
C324 H315 0.950 . S
C324 C323 1.398 . S
C324 C325 1.391 . S
C325 H313 0.950 . S
C325 C321 1.393 . S
C325 C324 1.391 . S
C326 H316 0.950 . S
C326 C327 1.386 . S
C326 C328 1.391 . S
C327 C326 1.386 . S
C327 C331 1.393 . S
C328 H317 0.950 . S
C328 C326 1.391 . S
C328 C329 1.400 . S
C329 C323 1.491 . S
C329 C328 1.400 . S
C329 C330 1.398 . S
C330 H318 0.950 . S
C330 C329 1.398 . S
C330 C331 1.391 . S
C331 H319 0.950 . S
C331 C327 1.393 . S
C331 C330 1.391 . S
H332 C340 0.950 . S
H333 C345 0.950 . S
H334 C342 0.950 . S
H335 C344 0.950 . S
H336 C346 0.950 . S
H337 C348 0.950 . S
H338 C350 0.950 . S
H339 C351 0.950 . S
C340 H332 0.950 . S
C340 C341 1.386 . S
C340 C342 1.391 . S
C341 C340 1.386 . S
C341 C345 1.393 . S
C342 H334 0.950 . S
C342 C340 1.391 . S
C342 C343 1.400 . S
C343 C342 1.400 . S
C343 C344 1.398 . S
C343 C349 1.491 . S
C344 H335 0.950 . S
C344 C343 1.398 . S
C344 C345 1.391 . S
C345 H333 0.950 . S
C345 C341 1.393 . S
C345 C344 1.391 . S
C346 H336 0.950 . S
C346 C347 1.386 . S
C346 C348 1.391 . S
C347 C346 1.386 . S
C347 C351 1.393 . S
C348 H337 0.950 . S
C348 C346 1.391 . S
C348 C349 1.400 . S
C349 C343 1.491 . S
C349 C348 1.400 . S
C349 C350 1.398 . S
C350 H338 0.950 . S
C350 C349 1.398 . S
C350 C351 1.391 . S
C351 H339 0.950 . S
C351 C347 1.393 . S
C351 C350 1.391 . S
H352 C360 0.950 . S
H353 C365 0.950 . S
H354 C362 0.950 . S
H355 C364 0.950 . S
H356 C366 0.950 . S
H357 C368 0.950 . S
H358 C370 0.950 . S
H359 C371 0.950 . S
C360 H352 0.950 . S
C360 C361 1.386 . S
C360 C362 1.391 . S
C361 C360 1.386 . S
C361 C365 1.393 . S
C362 H354 0.950 . S
C362 C360 1.391 . S
C362 C363 1.400 . S
C363 C362 1.400 . S
C363 C364 1.398 . S
C363 C369 1.491 . S
C364 H355 0.950 . S
C364 C363 1.398 . S
C364 C365 1.391 . S
C365 H353 0.950 . S
C365 C361 1.393 . S
C365 C364 1.391 . S
C366 H356 0.950 . S
C366 C367 1.386 . S
C366 C368 1.391 . S
C367 C366 1.386 . S
C367 C371 1.393 . S
C368 H357 0.950 . S
C368 C366 1.391 . S
C368 C369 1.400 . S
C369 C363 1.491 . S
C369 C368 1.400 . S
C369 C370 1.398 . S
C370 H358 0.950 . S
C370 C369 1.398 . S
C370 C371 1.391 . S
C371 H359 0.950 . S
C371 C367 1.393 . S
C371 C370 1.391 . S
H372 C380 0.950 1_556 S
H373 C385 0.950 . S
H374 C382 0.953 . S
H375 C384 0.950 . S
H376 C386 0.950 . S
H377 C388 0.950 . S
H378 C390 0.950 . S
H379 C391 0.950 . S
C380 H372 0.950 1_554 S
C380 C381 1.386 . S
C380 C382 1.391 . S
C381 C380 1.386 . S
C381 C385 1.393 . S
C382 H374 0.953 . S
C382 C380 1.391 . S
C382 C383 1.400 . S
C383 C382 1.400 . S
C383 C384 1.398 . S
C383 C389 1.491 . S
C384 H375 0.950 . S
C384 C383 1.398 . S
C384 C385 1.391 . S
C385 H373 0.950 . S
C385 C381 1.393 . S
C385 C384 1.391 . S
C386 H376 0.950 . S
C386 C387 1.386 . S
C386 C388 1.391 . S
C387 C386 1.386 . S
C387 C391 1.393 . S
C388 H377 0.950 . S
C388 C386 1.391 . S
C388 C389 1.400 . S
C389 C383 1.491 . S
C389 C388 1.400 . S
C389 C390 1.398 . S
C390 H378 0.950 . S
C390 C389 1.398 . S
C390 C391 1.391 . S
C391 H379 0.950 . S
C391 C387 1.393 . S
C391 C390 1.391 . S
H392 C400 0.950 . S
H393 C405 0.950 . S
H394 C402 0.950 . S
H395 C404 0.950 . S
H396 C406 0.950 . S
H397 C408 0.950 . S
H398 C410 0.950 . S
H399 C411 0.950 . S
C400 H392 0.950 . S
C400 C401 1.386 . S
C400 C402 1.391 . S
C401 C400 1.386 . S
C401 C405 1.393 . S
C402 H394 0.950 . S
C402 C400 1.391 . S
C402 C403 1.400 . S
C403 C402 1.400 . S
C403 C404 1.398 . S
C403 C409 1.491 . S
C404 H395 0.950 . S
C404 C403 1.398 . S
C404 C405 1.391 . S
C405 H393 0.950 . S
C405 C401 1.393 . S
C405 C404 1.391 . S
C406 H396 0.950 . S
C406 C407 1.386 . S
C406 C408 1.391 . S
C407 C406 1.386 . S
C407 C411 1.393 . S
C408 H397 0.950 . S
C408 C406 1.391 . S
C408 C409 1.400 . S
C409 C403 1.491 . S
C409 C408 1.400 . S
C409 C410 1.398 . S
C410 H398 0.950 . S
C410 C409 1.398 . S
C410 C411 1.391 . S
C411 H399 0.950 . S
C411 C407 1.393 . S
C411 C410 1.391 . S
H412 C420 0.950 . S
H413 C425 0.950 . S
H414 C422 0.950 . S
H415 C424 0.950 . S
H416 C426 0.950 . S
H417 C428 0.950 . S
H418 C430 0.950 . S
H419 C431 0.950 . S
C420 H412 0.950 . S
C420 C421 1.386 . S
C420 C422 1.391 . S
C421 C420 1.386 . S
C421 C425 1.393 . S
C422 H414 0.950 . S
C422 C420 1.391 . S
C422 C423 1.400 . S
C423 C422 1.400 . S
C423 C424 1.398 . S
C423 C429 1.491 . S
C424 H415 0.950 . S
C424 C423 1.398 . S
C424 C425 1.391 . S
C425 H413 0.950 . S
C425 C421 1.393 . S
C425 C424 1.391 . S
C426 H416 0.950 . S
C426 C427 1.386 . S
C426 C428 1.391 . S
C427 C426 1.386 . S
C427 C431 1.393 . S
C428 H417 0.950 . S
C428 C426 1.391 . S
C428 C429 1.400 . S
C429 C423 1.491 . S
C429 C428 1.400 . S
C429 C430 1.398 . S
C430 H418 0.950 . S
C430 C429 1.398 . S
C430 C431 1.391 . S
C431 H419 0.950 . S
C431 C427 1.393 . S
C431 C430 1.391 . S
H432 C440 0.950 . S
H433 C445 0.950 . S
H434 C442 0.950 . S
H435 C444 0.950 . S
H436 C446 0.950 . S
H437 C448 0.950 . S
H438 C450 0.950 . S
H439 C451 0.950 . S
C440 H432 0.950 . S
C440 C441 1.386 . S
C440 C442 1.391 . S
C441 C440 1.386 . S
C441 C445 1.393 . S
C442 H434 0.950 . S
C442 C440 1.391 . S
C442 C443 1.400 . S
C443 C442 1.400 . S
C443 C444 1.398 . S
C443 C449 1.491 . S
C444 H435 0.950 . S
C444 C443 1.398 . S
C444 C445 1.391 . S
C445 H433 0.950 . S
C445 C441 1.393 . S
C445 C444 1.391 . S
C446 H436 0.950 . S
C446 C447 1.386 . S
C446 C448 1.391 . S
C447 C446 1.386 . S
C447 C451 1.393 . S
C448 H437 0.950 . S
C448 C446 1.391 . S
C448 C449 1.400 . S
C449 C443 1.491 . S
C449 C448 1.400 . S
C449 C450 1.398 . S
C450 H438 0.950 . S
C450 C449 1.398 . S
C450 C451 1.391 . S
C451 H439 0.950 . S
C451 C447 1.393 . S
C451 C450 1.391 . S
H452 C460 0.950 . S
H453 C465 0.950 . S
H454 C462 0.950 . S
H455 C464 0.950 . S
H456 C466 0.950 . S
H457 C468 0.950 . S
H458 C470 0.950 . S
H459 C471 0.950 . S
C460 H452 0.950 . S
C460 C461 1.386 . S
C460 C462 1.391 . S
C461 C460 1.386 . S
C461 C465 1.393 . S
C462 H454 0.950 . S
C462 C460 1.391 . S
C462 C463 1.400 . S
C463 C462 1.400 . S
C463 C464 1.398 . S
C463 C469 1.491 . S
C464 H455 0.950 . S
C464 C463 1.398 . S
C464 C465 1.391 . S
C465 H453 0.950 . S
C465 C461 1.393 . S
C465 C464 1.391 . S
C466 H456 0.950 . S
C466 C467 1.386 . S
C466 C468 1.391 . S
C467 C466 1.386 . S
C467 C471 1.393 . S
C468 H457 0.950 . S
C468 C466 1.391 . S
C468 C469 1.400 . S
C469 C463 1.491 . S
C469 C468 1.400 . S
C469 C470 1.398 . S
C470 H458 0.950 . S
C470 C469 1.398 . S
C470 C471 1.391 . S
C471 H459 0.950 . S
C471 C467 1.393 . S
C471 C470 1.391 . S
H472 C480 0.950 . S
H473 C485 0.950 . S
H474 C482 0.950 . S
H475 C484 0.950 . S
H476 C486 0.950 . S
H477 C488 0.950 . S
H478 C490 0.950 . S
H479 C491 0.950 . S
C480 H472 0.950 . S
C480 C481 1.386 . S
C480 C482 1.391 . S
C481 C480 1.386 . S
C481 C485 1.393 . S
C482 H474 0.950 . S
C482 C480 1.391 . S
C482 C483 1.400 . S
C483 C482 1.400 . S
C483 C484 1.398 . S
C483 C489 1.491 . S
C484 H475 0.950 . S
C484 C483 1.398 . S
C484 C485 1.391 . S
C485 H473 0.950 . S
C485 C481 1.393 . S
C485 C484 1.391 . S
C486 H476 0.950 . S
C486 C487 1.386 . S
C486 C488 1.391 . S
C487 C486 1.386 . S
C487 C491 1.393 . S
C488 H477 0.950 . S
C488 C486 1.391 . S
C488 C489 1.400 . S
C489 C483 1.491 . S
C489 C488 1.400 . S
C489 C490 1.398 . S
C490 H478 0.950 . S
C490 C489 1.398 . S
C490 C491 1.391 . S
C491 H479 0.950 . S
C491 C487 1.393 . S
C491 C490 1.391 . S
H492 C500 0.950 . S
H493 C505 0.950 . S
H494 C502 0.950 . S
H495 C504 0.950 . S
H496 C506 0.950 1_554 S
H497 C508 0.950 . S
H498 C510 0.950 . S
H499 C511 0.950 1_554 S
C500 H492 0.950 . S
C500 C501 1.386 . S
C500 C502 1.391 . S
C501 C500 1.386 . S
C501 C505 1.393 . S
C502 H494 0.950 . S
C502 C500 1.391 . S
C502 C503 1.400 . S
C503 C502 1.400 . S
C503 C504 1.398 . S
C503 C509 1.491 . S
C504 H495 0.950 . S
C504 C503 1.398 . S
C504 C505 1.391 . S
C505 H493 0.950 . S
C505 C501 1.393 . S
C505 C504 1.391 . S
C506 H496 0.950 1_556 S
C506 C507 1.386 1_556 S
C506 C508 1.391 . S
C507 C506 1.386 1_554 S
C507 C511 1.393 1_554 S
C508 H497 0.950 . S
C508 C506 1.391 . S
C508 C509 1.400 . S
C509 C503 1.491 . S
C509 C508 1.400 . S
C509 C510 1.398 . S
C510 H498 0.950 . S
C510 C509 1.398 . S
C510 C511 1.391 . S
C511 H499 0.950 1_556 S
C511 C507 1.393 1_556 S
C511 C510 1.391 . S
H512 C520 0.950 . S
H513 C525 0.950 . S
H514 C522 0.950 . S
H515 C524 0.950 . S
H516 C526 0.950 . S
H517 C528 0.950 . S
H518 C530 0.950 . S
H519 C531 0.950 . S
C520 H512 0.950 . S
C520 C521 1.386 . S
C520 C522 1.391 . S
C521 C520 1.386 . S
C521 C525 1.393 . S
C522 H514 0.950 . S
C522 C520 1.391 . S
C522 C523 1.400 . S
C523 C522 1.400 . S
C523 C524 1.398 . S
C523 C529 1.491 . S
C524 H515 0.950 . S
C524 C523 1.398 . S
C524 C525 1.391 . S
C525 H513 0.950 . S
C525 C521 1.393 . S
C525 C524 1.391 . S
C526 H516 0.950 . S
C526 C527 1.386 . S
C526 C528 1.391 . S
C527 C526 1.386 . S
C527 C531 1.393 . S
C528 H517 0.950 . S
C528 C526 1.391 . S
C528 C529 1.400 . S
C529 C523 1.491 . S
C529 C528 1.400 . S
C529 C530 1.398 . S
C530 H518 0.950 . S
C530 C529 1.398 . S
C530 C531 1.391 . S
C531 H519 0.950 . S
C531 C527 1.393 . S
C531 C530 1.391 . S
H532 C540 0.950 . S
H533 C545 0.950 . S
H534 C542 0.950 . S
H535 C544 0.950 . S
H536 C546 0.950 . S
H537 C548 0.950 . S
H538 C550 0.950 . S
H539 C551 0.950 . S
C540 H532 0.950 . S
C540 C541 1.386 . S
C540 C542 1.391 . S
C541 C540 1.386 . S
C541 C545 1.393 . S
C542 H534 0.950 . S
C542 C540 1.391 . S
C542 C543 1.400 . S
C543 C542 1.400 . S
C543 C544 1.398 . S
C543 C549 1.491 . S
C544 H535 0.950 . S
C544 C543 1.398 . S
C544 C545 1.391 . S
C545 H533 0.950 . S
C545 C541 1.393 . S
C545 C544 1.391 . S
C546 H536 0.950 . S
C546 C547 1.386 . S
C546 C548 1.391 . S
C547 C546 1.386 . S
C547 C551 1.393 . S
C548 H537 0.950 . S
C548 C546 1.391 . S
C548 C549 1.400 . S
C549 C543 1.491 . S
C549 C548 1.400 . S
C549 C550 1.398 . S
C550 H538 0.950 . S
C550 C549 1.398 . S
C550 C551 1.391 . S
C551 H539 0.950 . S
C551 C547 1.393 . S
C551 C550 1.391 . S
H552 C560 0.950 . S
H553 C565 0.950 . S
H554 C562 0.950 . S
H555 C564 0.950 . S
H556 C566 0.950 . S
H557 C568 0.950 . S
H558 C570 0.950 . S
H559 C571 0.950 . S
C560 H552 0.950 . S
C560 C561 1.386 . S
C560 C562 1.391 . S
C561 C560 1.386 . S
C561 C565 1.393 . S
C562 H554 0.950 . S
C562 C560 1.391 . S
C562 C563 1.400 . S
C563 C562 1.400 . S
C563 C564 1.398 . S
C563 C569 1.491 . S
C564 H555 0.950 . S
C564 C563 1.398 . S
C564 C565 1.391 . S
C565 H553 0.950 . S
C565 C561 1.393 . S
C565 C564 1.391 . S
C566 H556 0.950 . S
C566 C567 1.386 . S
C566 C568 1.391 . S
C567 C566 1.386 . S
C567 C571 1.393 . S
C568 H557 0.950 . S
C568 C566 1.391 . S
C568 C569 1.400 . S
C569 C563 1.491 . S
C569 C568 1.400 . S
C569 C570 1.398 . S
C570 H558 0.950 . S
C570 C569 1.398 . S
C570 C571 1.391 . S
C571 H559 0.950 . S
C571 C567 1.393 . S
C571 C570 1.391 . S
H572 C580 0.950 . S
H573 C585 0.950 . S
H574 C582 0.950 . S
H575 C584 0.950 . S
H576 C586 0.950 . S
H577 C588 0.950 . S
H578 C590 0.950 . S
H579 C591 0.950 . S
C580 H572 0.950 . S
C580 C581 1.386 . S
C580 C582 1.391 . S
C581 C580 1.386 . S
C581 C585 1.393 . S
C582 H574 0.950 . S
C582 C580 1.391 . S
C582 C583 1.400 . S
C583 C582 1.400 . S
C583 C584 1.398 . S
C583 C589 1.491 . S
C584 H575 0.950 . S
C584 C583 1.398 . S
C584 C585 1.391 . S
C585 H573 0.950 . S
C585 C581 1.393 . S
C585 C584 1.391 . S
C586 H576 0.950 . S
C586 C587 1.386 . S
C586 C588 1.391 . S
C587 C586 1.386 . S
C587 C591 1.393 . S
C588 H577 0.950 . S
C588 C586 1.391 . S
C588 C589 1.400 . S
C589 C583 1.491 . S
C589 C588 1.400 . S
C589 C590 1.398 . S
C590 H578 0.950 . S
C590 C589 1.398 . S
C590 C591 1.391 . S
C591 H579 0.950 . S
C591 C587 1.393 . S
C591 C590 1.391 . S
H592 C600 0.950 . S
H593 C605 0.950 . S
H594 C602 0.950 . S
H595 C604 0.950 . S
H596 C606 0.950 . S
H597 C608 0.950 . S
H598 C610 0.950 . S
H599 C611 0.950 . S
C600 H592 0.950 . S
C600 C601 1.386 . S
C600 C602 1.391 . S
C601 C600 1.386 . S
C601 C605 1.393 . S
C602 H594 0.950 . S
C602 C600 1.391 . S
C602 C603 1.400 . S
C603 C602 1.400 . S
C603 C604 1.398 . S
C603 C609 1.491 . S
C604 H595 0.950 . S
C604 C603 1.398 . S
C604 C605 1.391 . S
C605 H593 0.950 . S
C605 C601 1.393 . S
C605 C604 1.391 . S
C606 H596 0.950 . S
C606 C607 1.386 . S
C606 C608 1.391 . S
C607 C606 1.386 . S
C607 C611 1.393 . S
C608 H597 0.950 . S
C608 C606 1.391 . S
C608 C609 1.400 . S
C609 C603 1.491 . S
C609 C608 1.400 . S
C609 C610 1.398 . S
C610 H598 0.950 . S
C610 C609 1.398 . S
C610 C611 1.391 . S
C611 H599 0.950 . S
C611 C607 1.393 . S
C611 C610 1.391 . S
H612 C620 0.950 . S
H613 C625 0.950 . S
H614 C622 0.950 . S
H615 C624 0.950 . S
H616 C626 0.950 . S
H617 C628 0.950 . S
H618 C630 0.950 . S
H619 C631 0.950 . S
C620 H612 0.950 . S
C620 C621 1.386 . S
C620 C622 1.391 . S
C621 C620 1.386 . S
C621 C625 1.393 . S
C622 H614 0.950 . S
C622 C620 1.391 . S
C622 C623 1.400 . S
C623 C622 1.400 . S
C623 C624 1.398 . S
C623 C629 1.491 . S
C624 H615 0.950 . S
C624 C623 1.398 . S
C624 C625 1.391 . S
C625 H613 0.950 . S
C625 C621 1.393 . S
C625 C624 1.391 . S
C626 H616 0.950 . S
C626 C627 1.386 . S
C626 C628 1.391 . S
C627 C626 1.386 . S
C627 C631 1.393 . S
C628 H617 0.950 . S
C628 C626 1.391 . S
C628 C629 1.400 . S
C629 C623 1.491 . S
C629 C628 1.400 . S
C629 C630 1.398 . S
C630 H618 0.950 . S
C630 C629 1.398 . S
C630 C631 1.391 . S
C631 H619 0.950 . S
C631 C627 1.393 . S
C631 C630 1.391 . S
H632 C640 0.950 . S
H633 C645 0.950 . S
H634 C642 0.950 . S
H635 C644 0.950 . S
H636 C646 0.950 . S
H637 C648 0.950 . S
H638 C650 0.950 . S
H639 C651 0.949 1_554 S
C640 H632 0.950 . S
C640 C641 1.386 . S
C640 C642 1.391 . S
C641 C640 1.386 . S
C641 C645 1.393 . S
C642 H634 0.950 . S
C642 C640 1.391 . S
C642 C643 1.400 . S
C643 C642 1.400 . S
C643 C644 1.398 . S
C643 C649 1.491 . S
C644 H635 0.950 . S
C644 C643 1.398 . S
C644 C645 1.391 . S
C645 H633 0.950 . S
C645 C641 1.393 . S
C645 C644 1.391 . S
C646 H636 0.950 . S
C646 C647 1.386 . S
C646 C648 1.391 . S
C647 C646 1.386 . S
C647 C651 1.395 . S
C648 H637 0.950 . S
C648 C646 1.391 . S
C648 C649 1.400 1_556 S
C649 C643 1.491 . S
C649 C648 1.400 1_554 S
C649 C650 1.398 . S
C650 H638 0.950 . S
C650 C649 1.398 . S
C650 C651 1.389 1_554 S
C651 H639 0.949 1_556 S
C651 C647 1.395 . S
C651 C650 1.389 1_556 S
H652 C660 0.950 . S
H653 C665 0.950 . S
H654 C662 0.950 . S
H655 C664 0.950 . S
H656 C666 0.950 . S
H657 C668 0.950 . S
H658 C670 0.950 . S
H659 C671 0.950 . S
C660 H652 0.950 . S
C660 C661 1.386 . S
C660 C662 1.391 . S
C661 C660 1.386 . S
C661 C665 1.393 . S
C662 H654 0.950 . S
C662 C660 1.391 . S
C662 C663 1.400 . S
C663 C662 1.400 . S
C663 C664 1.398 . S
C663 C669 1.491 . S
C664 H655 0.950 . S
C664 C663 1.398 . S
C664 C665 1.391 . S
C665 H653 0.950 . S
C665 C661 1.393 . S
C665 C664 1.391 . S
C666 H656 0.950 . S
C666 C667 1.386 . S
C666 C668 1.391 . S
C667 C666 1.386 . S
C667 C671 1.393 . S
C668 H657 0.950 . S
C668 C666 1.391 . S
C668 C669 1.400 . S
C669 C663 1.491 . S
C669 C668 1.400 . S
C669 C670 1.398 . S
C670 H658 0.950 . S
C670 C669 1.398 . S
C670 C671 1.391 . S
C671 H659 0.950 . S
C671 C667 1.393 . S
C671 C670 1.391 . S
C207 C178 1.588 . S
C201 C8 1.549 . S
C221 C26 1.543 . S
C227 C119 1.585 . S
C241 C50 1.516 . S
C247 C122 1.577 . S
C261 C68 1.551 . S
C267 C136 1.591 . S
C287 C161 1.583 . S
C281 C80 1.527 . S
C301 C104 1.511 . S
C307 C164 1.571 . S
C321 C32 1.502 . S
C327 C133 1.562 . S
C341 C44 1.534 . S
C347 C147 1.570 . S
C361 C62 1.504 . S
C367 C150 1.560 . S
C387 C175 1.559 . S
C381 C86 1.518 1_554 S
C407 C189 1.568 . S
C401 C98 1.513 . S
C427 C108 1.565 . S
C421 C14 1.508 . S
C441 C7 1.450 . S
C447 C131 1.504 . S
C461 C25 1.474 . S
C467 C145 1.513 . S
C487 C155 1.511 . S
C481 C52 1.457 . S
C501 C70 1.442 . S
C507 C173 1.500 . S
C527 C187 1.510 . S
C521 C79 1.452 . S
C547 C113 1.511 . S
C541 C106 1.451 . S
C567 C183 1.535 . S
C561 C34 1.480 . S
C581 C43 1.467 . S
C587 C117 1.523 . S
C607 C127 1.525 . S
C601 C61 1.462 . S
C621 C88 1.482 . S
C627 C141 1.536 . S
C641 C97 1.468 . S
C647 C159 1.522 . S
C661 C16 1.487 . S
C667 C169 1.526 . S
