# Generated by pormake.
# Topology anh, (6,3)-cn, num edge types: 1
# Building blocks:
#     Node 0, Type 0, BuildingBlock: PAMTOO_clean_sbu_0, # of connection points: 6
#     Node 1, Type 0, BuildingBlock: PAMTOO_clean_sbu_0, # of connection points: 6
#     Node 2, Type 0, BuildingBlock: PAMTOO_clean_sbu_0, # of connection points: 6
#     Node 3, Type 1, BuildingBlock: ESEHIV_clean_linker_0, # of connection points: 3
#     Node 4, Type 1, BuildingBlock: ESEHIV_clean_linker_0, # of connection points: 3
#     Node 5, Type 1, BuildingBlock: ESEHIV_clean_linker_0, # of connection points: 3
#     Node 6, Type 1, BuildingBlock: ESEHIV_clean_linker_0, # of connection points: 3
#     Node 7, Type 1, BuildingBlock: ESEHIV_clean_linker_0, # of connection points: 3
#     Node 8, Type 1, BuildingBlock: ESEHIV_clean_linker_0, # of connection points: 3
#     Edge 9, Type (0, 1), BuildingBlock: CIFDUS_clean_linker_0, # of connection points: 2
#     Edge 10, Type (0, 1), BuildingBlock: CIFDUS_clean_linker_0, # of connection points: 2
#     Edge 11, Type (0, 1), BuildingBlock: CIFDUS_clean_linker_0, # of connection points: 2
#     Edge 12, Type (0, 1), BuildingBlock: CIFDUS_clean_linker_0, # of connection points: 2
#     Edge 13, Type (0, 1), BuildingBlock: CIFDUS_clean_linker_0, # of connection points: 2
#     Edge 14, Type (0, 1), BuildingBlock: CIFDUS_clean_linker_0, # of connection points: 2
#     Edge 15, Type (0, 1), BuildingBlock: CIFDUS_clean_linker_0, # of connection points: 2
#     Edge 16, Type (0, 1), BuildingBlock: CIFDUS_clean_linker_0, # of connection points: 2
#     Edge 17, Type (0, 1), BuildingBlock: CIFDUS_clean_linker_0, # of connection points: 2
#     Edge 18, Type (0, 1), BuildingBlock: CIFDUS_clean_linker_0, # of connection points: 2
#     Edge 19, Type (0, 1), BuildingBlock: CIFDUS_clean_linker_0, # of connection points: 2
#     Edge 20, Type (0, 1), BuildingBlock: CIFDUS_clean_linker_0, # of connection points: 2
#     Edge 21, Type (0, 1), BuildingBlock: CIFDUS_clean_linker_0, # of connection points: 2
#     Edge 22, Type (0, 1), BuildingBlock: CIFDUS_clean_linker_0, # of connection points: 2
#     Edge 23, Type (0, 1), BuildingBlock: CIFDUS_clean_linker_0, # of connection points: 2
#     Edge 24, Type (0, 1), BuildingBlock: CIFDUS_clean_linker_0, # of connection points: 2
#     Edge 25, Type (0, 1), BuildingBlock: CIFDUS_clean_linker_0, # of connection points: 2
#     Edge 26, Type (0, 1), BuildingBlock: CIFDUS_clean_linker_0, # of connection points: 2
# Relax obj value: 0.241
# Max RMSD: 0.220
# Mean RMSD: 0.171
data_MOF--net-anh--node1-PAMTOO_clean_sbu_0--node2-ESEHIV_clean_linker_0--edge1-CIFDUS_clean_linker_0
_symmetry_space_group_name_H-M    P1
_symmetry_Int_Tables_number       1
_symmetry_cell_setting            triclinic
loop_
_symmetry_equiv_pos_as_xyz
'x, y, z'
_cell_length_a     23.838857
_cell_length_b     23.406853
_cell_length_c     45.550678
_cell_angle_alpha  89.814787
_cell_angle_beta   94.94438
_cell_angle_gamma 98.437688
loop_
_atom_site_label
_atom_site_type_symbol
_atom_site_fract_x
_atom_site_fract_y
_atom_site_fract_z
_atom_type_partial_charge
Dy0 Dy 1.08712 0.62633 0.14267 0.0
Dy1 Dy 1.07742 0.48522 0.14059 0.0
C2 C 1.07723 0.56048 0.08241 0.0
O3 O 0.99383 0.59717 0.14832 0.0
O4 O 0.98869 0.50475 0.13036 0.0
O5 O 1.10934 0.70967 0.12288 0.0
O6 O 1.08553 0.70446 0.16768 0.0
O7 O 1.06209 0.51283 0.1857 0.0
O8 O 0.12507 0.59476 0.18488 0.0
O9 O 0.17254 0.51391 0.14639 0.0
O10 O 0.17148 0.60675 0.13013 0.0
O11 O 1.08881 0.40443 0.16182 0.0
O12 O 1.04844 0.40463 0.11741 0.0
C13 C 0.96375 0.54802 0.1385 0.0
O14 O 1.05533 0.59909 0.09679 0.0
O15 O 1.09871 0.51829 0.09631 0.0
C16 C 0.16541 0.77076 0.15796 0.0
C17 C 0.27258 0.83084 0.17917 0.0
C18 C 0.26526 0.77102 0.17382 0.0
C19 C 0.2123 0.74139 0.1637 0.0
C20 C 0.17239 0.83074 0.16236 0.0
C21 C 0.22573 0.86069 0.17295 0.0
C22 C 1.11003 0.73725 0.14778 0.0
C23 C 1.09789 0.55335 0.19971 0.0
C24 C 0.19924 0.56331 0.13728 0.0
C25 C 1.00978 0.33373 0.14929 0.0
C26 C 0.91475 0.25864 0.16646 0.0
C27 C 0.91476 0.31875 0.16598 0.0
C28 C 0.96185 0.35585 0.15761 0.0
C29 C 1.00997 0.2739 0.1493 0.0
C30 C 0.96277 0.23655 0.15782 0.0
C31 C 1.05891 0.3736 0.14052 0.0
H32 H 0.30048 0.74673 0.17775 0.0
H33 H 0.20791 0.69516 0.16071 0.0
H34 H 0.13662 0.85415 0.15807 0.0
H35 H 0.22989 0.90673 0.17704 0.0
H36 H 0.87822 0.33722 0.17199 0.0
H37 H 0.96088 0.40196 0.15768 0.0
H38 H 1.04666 0.25614 0.14292 0.0
H39 H 0.96435 0.19055 0.15822 0.0
Dy40 Dy 0.57384 0.03198 0.51705 0.0
Dy41 Dy 0.71365 0.05064 0.52972 0.0
C42 C 0.63358 0.04815 0.58135 0.0
O43 O 0.59827 0.12668 0.51033 0.0
O44 O 0.69055 0.13991 0.53184 0.0
O45 O 0.49127 1.00434 0.5325 0.0
O46 O 0.49793 0.03551 0.48793 0.0
O47 O 0.69205 0.07463 0.48327 0.0
O48 O 0.6115 1.0092 0.4762 0.0
O49 O 0.68917 0.95526 0.52137 0.0
O50 O 0.59572 0.94636 0.53168 0.0
O51 O 0.7958 0.03555 0.51766 0.0
O52 O 0.78971 0.08644 0.55668 0.0
C53 C 0.645 0.16044 0.52042 0.0
O54 O 0.59612 0.06748 0.56257 0.0
O55 O 0.67658 0.02624 0.57212 0.0
C56 C 0.42361 0.96064 0.49588 0.0
C57 C 0.34497 0.86412 0.47559 0.0
C58 C 0.32614 0.91593 0.48321 0.0
C59 C 0.3652 0.96377 0.49329 0.0
C60 C 0.44275 0.90916 0.48841 0.0
C61 C 0.40376 0.86129 0.47834 0.0
C62 C 0.46425 1.01076 0.50686 0.0
C63 C 0.65346 0.04328 0.46559 0.0
C64 C 0.64153 0.92339 0.52758 0.0
C65 C 0.86597 0.11766 0.52794 0.0
C66 C 0.94139 0.21275 0.50947 0.0
C67 C 0.90758 0.17549 0.48868 0.0
C68 C 0.87014 0.1286 0.49778 0.0
C69 C 0.9007 0.15406 0.54876 0.0
C70 C 0.93788 0.20138 0.53962 0.0
C71 C 0.82322 0.07105 0.53789 0.0
H72 H 0.28116 0.91933 0.48168 0.0
H73 H 0.34978 1.00316 0.49915 0.0
H74 H 0.48784 0.90608 0.49033 0.0
H75 H 0.41974 0.82237 0.47228 0.0
H76 H 0.90871 0.18365 0.46529 0.0
H77 H 0.84362 0.10178 0.48113 0.0
H78 H 0.89818 0.14657 0.57213 0.0
H79 H 0.96369 0.22922 0.55611 0.0
Dy80 Dy 0.67223 0.51228 0.83571 0.0
Dy81 Dy 0.53849 0.52472 0.82298 0.0
C82 C 0.61961 0.53009 0.77264 0.0
O83 O 0.67055 0.60779 0.83136 0.0
O84 O 0.57755 0.61248 0.83921 0.0
O85 O 0.75843 0.53855 0.82536 0.0
O86 O 0.74002 0.47236 0.85815 0.0
O87 O 0.54817 0.49873 0.87036 0.0
O88 O 0.64393 0.53218 0.87921 0.0
O89 O 0.5423 0.43124 0.81401 0.0
O90 O 0.62739 0.42253 0.83983 0.0
O91 O 0.45731 0.54619 0.83305 0.0
O92 O 0.46869 0.51727 0.78906 0.0
C93 C 0.62963 0.63774 0.83639 0.0
O94 O 0.64695 0.49416 0.78809 0.0
O95 O 0.58678 0.56017 0.78565 0.0
C96 C 0.81366 0.46254 0.82784 0.0
C97 C 0.90044 0.41606 0.80224 0.0
C98 C 0.85491 0.43329 0.78431 0.0
C99 C 0.81186 0.45666 0.79704 0.0
C100 C 0.85431 0.43816 0.84567 0.0
C101 C 0.89706 0.4147 0.83305 0.0
C102 C 0.77774 0.49868 0.84173 0.0
C103 C 0.59392 0.51386 0.88857 0.0
C104 C 0.57901 0.39932 0.82599 0.0
C105 C 0.41739 0.59444 0.79318 0.0
C106 C 0.37497 0.69889 0.78172 0.0
C107 C 0.43377 0.6988 0.78787 0.0
C108 C 0.45482 0.64682 0.79359 0.0
C109 C 0.36022 0.59353 0.78338 0.0
C110 C 0.3392 0.64525 0.77734 0.0
C111 C 0.43699 0.54213 0.80546 0.0
H112 H 0.85546 0.43387 0.76056 0.0
H113 H 0.77966 0.47378 0.78279 0.0
H114 H 0.85568 0.44128 0.86946 0.0
H115 H 0.93089 0.40188 0.84787 0.0
H116 H 0.46243 0.7391 0.79131 0.0
H117 H 0.4996 0.64797 0.80041 0.0
H118 H 0.33102 0.55334 0.78245 0.0
H119 H 0.29361 0.64305 0.77271 0.0
H120 H 0.53303 0.99326 0.28286 0.0
H121 H 0.69938 0.0938 0.28888 0.0
H122 H 0.60258 0.06653 0.20469 0.0
C123 C 0.56806 0.01723 0.27231 0.0
C124 C 0.56272 0.02457 0.2416 0.0
C125 C 0.61721 0.04134 0.28964 0.0
C126 C 0.66068 0.0755 0.27594 0.0
C127 C 0.65521 0.08595 0.24549 0.0
C128 C 0.60649 0.05954 0.22826 0.0
H129 H 0.68105 0.62998 0.60271 0.0
H130 H 0.69234 0.44892 0.59753 0.0
H131 H 0.69103 0.55017 0.5185 0.0
C132 C 0.68392 0.59193 0.58972 0.0
C133 C 0.6854 0.59665 0.55901 0.0
C134 C 0.68696 0.53905 0.60387 0.0
C135 C 0.69149 0.49042 0.58694 0.0
C136 C 0.69296 0.49395 0.55631 0.0
C137 C 0.69036 0.54732 0.54222 0.0
H138 H 0.12984 0.49204 0.90411 0.0
H139 H 0.20232 0.66752 0.92488 0.0
H140 H 0.19954 0.60222 0.83649 0.0
C141 C 0.15207 0.53288 0.89713 0.0
C142 C 0.16269 0.54129 0.86745 0.0
C143 C 0.16645 0.57788 0.91788 0.0
C144 C 0.19106 0.6326 0.90891 0.0
C145 C 0.2021 0.64192 0.87941 0.0
C146 C 0.1889 0.59576 0.85903 0.0
H147 H 1.07826 0.42853 0.37899 0.0
H148 H 0.1652 0.60276 0.37798 0.0
H149 H 0.15467 0.51115 0.45982 0.0
C150 C 1.10193 0.46607 0.39053 0.0
C151 C 0.11398 0.46404 0.42122 0.0
C152 C 0.11993 0.51594 0.37466 0.0
C153 C 0.1509 0.5641 0.38999 0.0
C154 C 0.16416 0.56275 0.42065 0.0
C155 C 0.14512 0.51256 0.43616 0.0
H156 H 0.61502 0.11014 0.75763 0.0
H157 H 0.63454 0.93091 0.76106 0.0
H158 H 0.59734 0.01725 0.83894 0.0
C159 C 0.61438 0.07028 0.76988 0.0
C160 C 0.60419 0.0698 0.79979 0.0
C161 C 0.62581 0.02066 0.75582 0.0
C162 C 0.62717 0.96985 0.77203 0.0
C163 C 0.61677 0.96793 0.80193 0.0
C164 C 0.60528 0.01823 0.81586 0.0
H165 H 0.47761 0.54219 0.065 0.0
H166 H 0.65904 0.55288 0.0649 0.0
H167 H 0.58317 0.55827 0.14712 0.0
C168 C 0.51954 0.54693 0.07679 0.0
C169 C 0.52428 0.55159 0.10769 0.0
C170 C 0.56756 0.5468 0.06104 0.0
C171 C 0.62136 0.55121 0.07678 0.0
C172 C 0.62791 0.55478 0.10772 0.0
C173 C 0.5789 0.55523 0.12329 0.0
H174 H 0.2804 0.49333 0.15556 0.0
H175 H 0.25972 0.65125 0.10918 0.0
H176 H 0.359 0.66455 0.09916 0.0
H177 H 0.45066 0.62883 0.1 0.0
H178 H 0.47519 0.47268 0.14627 0.0
H179 H 0.37682 0.46196 0.16033 0.0
C180 C 0.29768 0.53074 0.14338 0.0
C181 C 0.26162 0.57073 0.13291 0.0
C182 C 0.35603 0.53882 0.13777 0.0
C183 C 0.28554 0.61932 0.11746 0.0
C184 C 0.34273 0.62719 0.11167 0.0
C185 C 0.43486 0.5932 0.11379 0.0
C186 C 0.47042 0.5519 0.12228 0.0
C187 C 0.37819 0.58698 0.12133 0.0
C188 C 0.44912 0.5056 0.13986 0.0
C189 C 0.39254 0.49912 0.14756 0.0
H190 H 1.01219 0.21867 0.46568 0.0
H191 H 0.95229 0.32323 0.53069 0.0
H192 H 1.0048 0.4103 0.51072 0.0
H193 H 1.06065 0.45732 0.47189 0.0
H194 H 0.1191 0.35221 0.40657 0.0
H195 H 1.07391 0.26482 0.42938 0.0
C196 C 1.01087 0.26054 0.47553 0.0
C197 C 0.9781 0.2646 0.49944 0.0
C198 C 1.04048 0.31034 0.46372 0.0
C199 C 0.97751 0.31895 0.51236 0.0
C200 C 1.0072 0.36878 0.50083 0.0
C201 C 1.06437 0.41523 0.46302 0.0
C202 C 1.0926 0.41125 0.43739 0.0
C203 C 1.03792 0.36509 0.47614 0.0
C204 C 1.09674 0.35642 0.42599 0.0
C205 C 1.07106 0.30644 0.43905 0.0
H206 H 0.55685 0.71415 0.847 0.0
H207 H 0.72686 0.70627 0.82279 0.0
H208 H 0.74015 0.80978 0.81347 0.0
H209 H 0.69986 0.90027 0.80671 0.0
H210 H 0.53013 0.90887 0.83028 0.0
H211 H 0.52058 0.80764 0.8457 0.0
C212 C 0.59719 0.73511 0.84012 0.0
C213 C 0.64055 0.70196 0.83529 0.0
C214 C 0.6045 0.79487 0.83456 0.0
C215 C 0.69259 0.73029 0.82658 0.0
C216 C 0.70023 0.78962 0.82113 0.0
C217 C 0.6613 0.88021 0.81587 0.0
C218 C 0.6157 0.91179 0.81734 0.0
C219 C 0.65598 0.82197 0.82428 0.0
C220 C 0.56595 0.88555 0.82922 0.0
C221 C 0.56034 0.82754 0.83775 0.0
H222 H 0.88864 0.62211 0.15364 0.0
H223 H 0.89318 0.45468 0.11485 0.0
H224 H 0.79069 0.43999 0.10523 0.0
H225 H 0.69939 0.47618 0.104 0.0
H226 H 0.69039 0.64184 0.14247 0.0
H227 H 0.7936 0.65499 0.15645 0.0
C228 C 0.86719 0.5823 0.14326 0.0
C229 C 0.89972 0.54008 0.13473 0.0
C230 C 0.80685 0.57345 0.13777 0.0
C231 C 0.87037 0.48853 0.12154 0.0
C232 C 0.81123 0.47978 0.11599 0.0
C233 C 0.71983 0.51462 0.11607 0.0
C234 C 0.68705 0.55775 0.12235 0.0
C235 C 0.77909 0.52212 0.12356 0.0
C236 C 0.71434 0.60755 0.13776 0.0
C237 C 0.77359 0.61532 0.14542 0.0
H238 H 0.34535 0.75063 0.48923 0.0
H239 H 0.25144 0.86417 0.43644 0.0
H240 H 0.18504 0.78135 0.41649 0.0
H241 H 0.15584 0.67662 0.41244 0.0
H242 H 0.25218 0.56254 0.46335 0.0
H243 H 0.31496 0.64564 0.48585 0.0
C244 C 0.31053 0.75723 0.47324 0.0
C245 C 0.30358 0.81359 0.46429 0.0
C246 C 0.2728 0.70933 0.46158 0.0
C247 C 0.25753 0.82139 0.44397 0.0
C248 C 0.21968 0.77401 0.4324 0.0
C249 C 0.19071 0.66989 0.42838 0.0
C250 C 0.19945 0.61336 0.43604 0.0
C251 C 0.22725 0.7178 0.44082 0.0
C252 C 0.24409 0.60552 0.45724 0.0
C253 C 0.28033 0.65303 0.46994 0.0
H254 H 0.63328 0.3186 0.85556 0.0
H255 H 0.50072 0.33643 0.7868 0.0
H256 H 0.49182 0.23359 0.77516 0.0
H257 H 0.52902 0.14116 0.7808 0.0
H258 H 0.66172 0.12286 0.84912 0.0
H259 H 0.66241 0.2229 0.8651 0.0
C260 C 0.60195 0.2999 0.83824 0.0
C261 C 0.56827 0.33556 0.8218 0.0
C262 C 0.59711 0.24058 0.8316 0.0
C263 C 0.52736 0.31028 0.79974 0.0
C264 C 0.52235 0.2514 0.793 0.0
C265 C 0.55726 0.15883 0.79957 0.0
C266 C 0.59554 0.12489 0.81367 0.0
C267 C 0.55801 0.21652 0.80825 0.0
C268 C 0.63165 0.14801 0.83807 0.0
C269 C 0.63244 0.20539 0.84698 0.0
H270 H 0.71908 0.85362 0.51344 0.0
H271 H 0.55835 0.84991 0.55113 0.0
H272 H 0.5555 0.74773 0.56146 0.0
H273 H 0.60127 0.66066 0.56328 0.0
H274 H 0.76066 0.66121 0.52538 0.0
H275 H 0.76096 0.76265 0.51116 0.0
C276 C 0.68332 0.83037 0.52376 0.0
C277 C 0.63938 0.86 0.53178 0.0
C278 C 0.68155 0.77082 0.52953 0.0
C279 C 0.59301 0.82875 0.5448 0.0
C280 C 0.59123 0.77007 0.55077 0.0
C281 C 0.63558 0.68283 0.55146 0.0
C282 C 0.68094 0.65377 0.54543 0.0
C283 C 0.63559 0.74091 0.54368 0.0
C284 C 0.72509 0.68268 0.53004 0.0
C285 C 0.72547 0.74079 0.52219 0.0
H286 H 0.98365 0.34888 0.81792 0.0
H287 H 0.94808 0.48854 0.76071 0.0
H288 H 1.04473 0.53643 0.7707 0.0
H289 H 0.1185 0.55712 0.81122 0.0
H290 H 0.15239 0.42252 0.87241 0.0
H291 H 1.0774 0.35524 0.84596 0.0
C292 C 0.99797 0.38849 0.80659 0.0
C293 C 0.95744 0.41773 0.79093 0.0
C294 C 1.05246 0.41859 0.81461 0.0
C295 C 0.9773 0.46635 0.77439 0.0
C296 C 1.0327 0.49469 0.78055 0.0
C297 C 0.11189 0.51247 0.81812 0.0
C298 C 0.13841 0.49606 0.84501 0.0
C299 C 1.06783 0.47444 0.80327 0.0
C300 C 0.13002 0.43731 0.85279 0.0
C301 C 1.0873 0.3986 0.83757 0.0
H302 H 0.3299 0.93738 0.16612 0.0
H303 H 0.34048 0.7907 0.22309 0.0
H304 H 0.43303 0.8353 0.24477 0.0
H305 H 0.50996 0.91581 0.24866 0.0
H306 H 0.49882 0.06709 0.19542 0.0
H307 H 0.40832 0.0203 0.17069 0.0
C308 C 0.35233 0.91547 0.18341 0.0
C309 C 0.32832 0.86039 0.19266 0.0
C310 C 0.40568 0.94189 0.1963 0.0
C311 C 0.35826 0.83246 0.21501 0.0
C312 C 0.41118 0.85804 0.22759 0.0
C313 C 0.48762 0.93891 0.2318 0.0
C314 C 0.51083 0.99517 0.2242 0.0
C315 C 0.43515 0.91266 0.21848 0.0
C316 C 0.48209 0.02363 0.20164 0.0
C317 C 0.43006 0.9971 0.1877 0.0
H318 H 0.73705 0.24533 0.52685 0.0
H319 H 0.55354 0.2188 0.51357 0.0
H320 H 0.55287 0.32245 0.5185 0.0
H321 H 0.60372 0.41925 0.53268 0.0
H322 H 0.78649 0.44563 0.54706 0.0
H323 H 0.78846 0.34402 0.53495 0.0
C324 C 0.69692 0.26225 0.52475 0.0
C325 C 0.64539 0.22403 0.52029 0.0
C326 C 0.69679 0.32211 0.52761 0.0
C327 C 0.59387 0.24697 0.51717 0.0
C328 C 0.5934 0.30636 0.52001 0.0
C329 C 0.64395 0.40303 0.53199 0.0
C330 C 0.69497 0.43976 0.54014 0.0
C331 C 0.64447 0.34419 0.52593 0.0
C332 C 0.74689 0.41821 0.54015 0.0
C333 C 0.74789 0.35999 0.53367 0.0
H334 H 0.40429 0.76803 0.82998 0.0
H335 H 0.28437 0.74678 0.75352 0.0
H336 H 0.20592 0.74673 0.78443 0.0
H337 H 0.17554 0.70393 0.83109 0.0
H338 H 0.29888 0.70367 0.90602 0.0
H339 H 0.37093 0.76054 0.87896 0.0
C340 C 0.36116 0.76656 0.81991 0.0
C341 C 0.34879 0.74971 0.79014 0.0
C342 C 0.31648 0.75917 0.83827 0.0
C343 C 0.29425 0.75494 0.77693 0.0
C344 C 0.2491 0.75327 0.79475 0.0
C345 C 0.21754 0.71883 0.84185 0.0
C346 C 0.23305 0.69732 0.86979 0.0
C347 C 0.25983 0.74742 0.82533 0.0
C348 C 0.28653 0.7184 0.88417 0.0
C349 C 0.32797 0.75054 0.86855 0.0
H350 H 0.85468 0.27613 0.2127 0.0
H351 H 0.864 0.15337 0.1435 0.0
H352 H 0.78295 0.08975 0.16095 0.0
H353 H 0.71003 0.06847 0.19667 0.0
H354 H 0.70201 0.19272 0.26536 0.0
H355 H 0.78112 0.2568 0.24693 0.0
C356 C 0.83857 0.23584 0.20113 0.0
C357 C 0.86533 0.21972 0.17676 0.0
C358 C 0.79198 0.19977 0.21117 0.0
C359 C 0.84459 0.16663 0.1625 0.0
C360 C 0.798 0.13039 0.17236 0.0
C361 C 0.7253 0.10989 0.20731 0.0
C362 C 0.70045 0.12579 0.23239 0.0
C363 C 0.77139 0.14646 0.19674 0.0
C364 C 0.72089 0.17933 0.24619 0.0
C365 C 0.76606 0.216 0.23566 0.0
H366 H 0.12853 0.495 0.04706 0.0
H367 H 1.0438 0.64597 0.04684 0.0
H368 H 1.06505 0.66541 -0.00402 0.0
H369 H 1.11012 0.64094 0.95196 0.0
H370 H 0.19442 0.49001 0.9525 0.0
H371 H 0.17121 0.46931 0.00303 0.0
C372 C 0.11424 0.53192 0.03587 0.0
C373 C 1.08475 0.569 0.05078 0.0
C374 C 0.12706 0.5432 0.0068 0.0
C375 C 1.06658 0.61665 0.03589 0.0
C376 C 1.07893 0.628 0.00684 0.0
C377 C 0.12374 0.60388 0.96333 0.0
C378 C 0.15418 0.56723 0.94879 0.0
C379 C 1.10977 0.59198 -0.00778 0.0
C380 C 0.17085 0.51871 0.9634 0.0
C381 C 0.15758 0.50687 -0.0078 0.0
H382 H 0.60719 0.9658 0.42282 0.0
H383 H 0.70298 0.13624 0.43649 0.0
H384 H 0.70057 0.1507 0.38333 0.0
H385 H 0.66743 0.11675 0.33321 0.0
H386 H 0.57888 0.94293 0.31927 0.0
H387 H 0.58139 0.92855 0.3723 0.0
C388 C 0.62768 1.00597 0.4141 0.0
C389 C 0.65486 0.04999 0.43347 0.0
C390 C 0.62695 1.01368 0.3835 0.0
C391 C 0.68189 0.10161 0.42197 0.0
C392 C 0.68035 0.11002 0.39159 0.0
C393 C 0.64961 0.07525 0.34161 0.0
C394 C 0.62232 0.03139 0.32204 0.0
C395 C 0.65262 0.06652 0.37216 0.0
C396 C 0.59882 0.97821 0.33366 0.0
C397 C 0.60064 0.96965 0.36405 0.0
H398 H 0.69379 0.48559 0.74008 0.0
H399 H 0.5608 0.59316 0.73397 0.0
H400 H 0.57096 0.6065 0.68151 0.0
H401 H 0.61575 0.58586 0.63711 0.0
H402 H 0.74997 0.48003 0.64307 0.0
H403 H 0.74082 0.46745 0.6958 0.0
C404 C 0.66704 0.51194 0.72727 0.0
C405 C 0.62652 0.53815 0.74091 0.0
C406 C 0.67318 0.51966 0.69707 0.0
C407 C 0.59237 0.57244 0.72403 0.0
C408 C 0.59809 0.58012 0.694 0.0
C409 C 0.64357 0.56073 0.65002 0.0
C410 C 0.6834 0.53388 0.63617 0.0
C411 C 0.63823 0.55384 0.68029 0.0
C412 C 0.71847 0.5006 0.65314 0.0
C413 C 0.71342 0.49355 0.6833 0.0
H414 H 0.69582 1.00243 0.62596 0.0
H415 H 0.55425 0.0971 0.6084 0.0
H416 H 0.53998 0.09743 0.66076 0.0
H417 H 0.56616 0.06906 0.71137 0.0
H418 H 0.70755 0.97455 0.72912 0.0
H419 H 0.72297 0.97538 0.67675 0.0
C420 C 0.66197 0.02336 0.63357 0.0
C421 C 0.62618 0.04966 0.61324 0.0
C422 C 0.65371 0.02311 0.66371 0.0
C423 C 0.58241 0.0764 0.62352 0.0
C424 C 0.57416 0.07663 0.65348 0.0
C425 C 0.60072 0.04918 0.70381 0.0
C426 C 0.63565 0.02181 0.72408 0.0
C427 C 0.60939 0.04991 0.67374 0.0
C428 C 0.67967 0.99536 0.71389 0.0
C429 C 0.6887 0.99608 0.68399 0.0
H430 H 0.51947 0.55603 0.92182 0.0
H431 H 0.66305 0.46294 0.92684 0.0
H432 H 0.66525 0.46146 0.98058 0.0
H433 H 0.629 0.4898 0.026 0.0
H434 H 0.49259 0.59314 0.02168 0.0
H435 H 0.48411 0.58638 0.96803 0.0
C436 C 0.55058 0.53483 0.93481 0.0
C437 C 0.59072 0.50917 0.92062 0.0
C438 C 0.55299 0.53613 0.96581 0.0
C439 C 0.63169 0.48277 0.93747 0.0
C440 C 0.63303 0.48204 0.96814 0.0
C441 C 0.59783 0.5116 0.01346 0.0
C442 C 0.56166 0.54204 0.02816 0.0
C443 C 0.59449 0.50938 0.98256 0.0
C444 C 0.52057 0.56858 0.01121 0.0
C445 C 0.51591 0.56516 0.98041 0.0
H446 H 1.03053 0.49824 0.23944 0.0
H447 H 0.19284 0.60414 0.23221 0.0
H448 H 0.21444 0.60081 0.28547 0.0
H449 H 0.18792 0.56707 0.33388 0.0
H450 H 1.02223 0.4681 0.34192 0.0
H451 H 1.00191 0.46847 0.28855 0.0
C452 C 1.07062 0.52045 0.24958 0.0
C453 C 1.11008 0.55119 0.23196 0.0
C454 C 1.08236 0.51934 0.28032 0.0
C455 C 0.16165 0.58032 0.24534 0.0
C456 C 0.17412 0.57836 0.27578 0.0
C457 C 0.14692 0.54635 0.32412 0.0
C458 C 1.10689 0.51742 0.34209 0.0
C459 C 0.13475 0.5481 0.29348 0.0
C460 C 1.05447 0.48978 0.32874 0.0
C461 C 1.04253 0.49033 0.29818 0.0
loop_
_geom_bond_atom_site_label_1
_geom_bond_atom_site_label_2
_geom_bond_distance
_geom_bond_site_symmetry_2
_ccdc_geom_bond_type
Dy0 O3 2.307 1_455 S
Dy0 O5 2.395 . S
Dy0 O6 2.379 . S
Dy0 O8 2.339 . S
Dy0 O10 2.298 . S
Dy0 O14 2.275 . S
Dy0 C22 2.738 . S
Dy1 O4 2.298 . S
Dy1 O7 2.275 . S
Dy1 O9 2.307 1_655 S
Dy1 O11 2.395 . S
Dy1 O12 2.379 . S
Dy1 O15 2.339 . S
Dy1 C31 2.738 . S
C2 O14 1.254 . S
C2 O15 1.257 1_455 S
O3 Dy0 2.307 1_655 S
O3 C13 1.266 . S
O4 Dy1 2.298 . S
O4 C13 1.236 . S
O5 Dy0 2.395 . S
O5 C22 1.255 . S
O6 Dy0 2.379 . S
O6 C22 1.249 . S
O7 Dy1 2.275 . S
O7 C23 1.254 1_655 S
O8 Dy0 2.339 . S
O8 C23 1.257 . S
O9 Dy1 2.307 1_455 S
O9 C24 1.266 . S
O10 Dy0 2.298 . S
O10 C24 1.236 . S
O11 Dy1 2.395 . S
O11 C31 1.255 . S
O12 Dy1 2.379 . S
O12 C31 1.249 . S
C13 O3 1.266 . S
C13 O4 1.236 . S
O14 Dy0 2.275 . S
O14 C2 1.254 . S
O15 Dy1 2.339 . S
O15 C2 1.257 1_655 S
C16 C19 1.344 . S
C16 C20 1.328 . S
C16 C22 1.516 . S
C17 C18 1.304 . S
C17 C21 1.323 . S
C18 C17 1.304 . S
C18 C19 1.371 . S
C18 H32 0.930 . S
C19 C16 1.344 . S
C19 C18 1.371 . S
C19 H33 0.931 . S
C20 C16 1.328 . S
C20 C21 1.433 . S
C20 H34 0.931 . S
C21 C17 1.323 . S
C21 C20 1.433 . S
C21 H35 0.933 . S
C22 Dy0 2.738 . S
C22 O5 1.255 . S
C22 O6 1.249 . S
C22 C16 1.516 . S
C23 O7 1.254 1_455 S
C23 O8 1.257 . S
C24 O9 1.266 . S
C24 O10 1.236 . S
C25 C28 1.344 . S
C25 C29 1.328 . S
C25 C31 1.516 . S
C26 C27 1.304 . S
C26 C30 1.323 . S
C27 C26 1.304 . S
C27 C28 1.371 . S
C27 H36 0.930 . S
C28 C25 1.344 . S
C28 C27 1.371 . S
C28 H37 0.931 . S
C29 C25 1.328 . S
C29 C30 1.433 . S
C29 H38 0.931 . S
C30 C26 1.323 . S
C30 C29 1.433 . S
C30 H39 0.933 . S
C31 Dy1 2.738 . S
C31 O11 1.255 . S
C31 O12 1.249 . S
C31 C25 1.516 . S
H32 C18 0.930 . S
H33 C19 0.931 . S
H34 C20 0.931 . S
H35 C21 0.933 . S
H36 C27 0.930 . S
H37 C28 0.931 . S
H38 C29 0.931 . S
H39 C30 0.933 . S
Dy40 O43 2.307 1_565 S
Dy40 O45 2.395 . S
Dy40 O46 2.379 . S
Dy40 O48 2.339 1_565 S
Dy40 O50 2.298 . S
Dy40 O54 2.275 1_565 S
Dy40 C62 2.738 . S
Dy41 O44 2.298 . S
Dy41 O47 2.275 . S
Dy41 O49 2.307 1_545 S
Dy41 O51 2.395 . S
Dy41 O52 2.379 . S
Dy41 O55 2.339 . S
Dy41 C71 2.738 . S
C42 O54 1.254 . S
C42 O55 1.257 . S
O43 Dy40 2.307 1_545 S
O43 C53 1.266 . S
O44 Dy41 2.298 . S
O44 C53 1.236 . S
O45 Dy40 2.395 . S
O45 C62 1.255 . S
O46 Dy40 2.379 . S
O46 C62 1.249 . S
O47 Dy41 2.275 . S
O47 C63 1.254 . S
O48 Dy40 2.339 1_545 S
O48 C63 1.257 . S
O49 Dy41 2.307 1_565 S
O49 C64 1.266 . S
O50 Dy40 2.298 . S
O50 C64 1.236 . S
O51 Dy41 2.395 . S
O51 C71 1.255 . S
O52 Dy41 2.379 . S
O52 C71 1.249 . S
C53 O43 1.266 . S
C53 O44 1.236 . S
O54 Dy40 2.275 1_545 S
O54 C42 1.254 . S
O55 Dy41 2.339 . S
O55 C42 1.257 . S
C56 C59 1.344 . S
C56 C60 1.328 . S
C56 C62 1.516 . S
C57 C58 1.304 . S
C57 C61 1.323 . S
C58 C57 1.304 . S
C58 C59 1.371 . S
C58 H72 0.930 . S
C59 C56 1.344 . S
C59 C58 1.371 . S
C59 H73 0.931 . S
C60 C56 1.328 . S
C60 C61 1.433 . S
C60 H74 0.931 . S
C61 C57 1.323 . S
C61 C60 1.433 . S
C61 H75 0.933 . S
C62 Dy40 2.738 . S
C62 O45 1.255 . S
C62 O46 1.249 . S
C62 C56 1.516 . S
C63 O47 1.254 . S
C63 O48 1.257 . S
C64 O49 1.266 . S
C64 O50 1.236 . S
C65 C68 1.344 . S
C65 C69 1.328 . S
C65 C71 1.516 . S
C66 C67 1.304 . S
C66 C70 1.323 . S
C67 C66 1.304 . S
C67 C68 1.371 . S
C67 H76 0.930 . S
C68 C65 1.344 . S
C68 C67 1.371 . S
C68 H77 0.931 . S
C69 C65 1.328 . S
C69 C70 1.433 . S
C69 H78 0.931 . S
C70 C66 1.323 . S
C70 C69 1.433 . S
C70 H79 0.933 . S
C71 Dy41 2.738 . S
C71 O51 1.255 . S
C71 O52 1.249 . S
C71 C65 1.516 . S
H72 C58 0.930 . S
H73 C59 0.931 . S
H74 C60 0.931 . S
H75 C61 0.933 . S
H76 C67 0.930 . S
H77 C68 0.931 . S
H78 C69 0.931 . S
H79 C70 0.933 . S
Dy80 O83 2.307 . S
Dy80 O85 2.395 . S
Dy80 O86 2.379 . S
Dy80 O88 2.339 . S
Dy80 O90 2.298 . S
Dy80 O94 2.275 . S
Dy80 C102 2.738 . S
Dy81 O84 2.298 . S
Dy81 O87 2.275 . S
Dy81 O89 2.307 . S
Dy81 O91 2.395 . S
Dy81 O92 2.379 . S
Dy81 O95 2.339 . S
Dy81 C111 2.738 . S
C82 O94 1.254 . S
C82 O95 1.257 . S
O83 Dy80 2.307 . S
O83 C93 1.266 . S
O84 Dy81 2.298 . S
O84 C93 1.236 . S
O85 Dy80 2.395 . S
O85 C102 1.255 . S
O86 Dy80 2.379 . S
O86 C102 1.249 . S
O87 Dy81 2.275 . S
O87 C103 1.254 . S
O88 Dy80 2.339 . S
O88 C103 1.257 . S
O89 Dy81 2.307 . S
O89 C104 1.266 . S
O90 Dy80 2.298 . S
O90 C104 1.236 . S
O91 Dy81 2.395 . S
O91 C111 1.255 . S
O92 Dy81 2.379 . S
O92 C111 1.249 . S
C93 O83 1.266 . S
C93 O84 1.236 . S
O94 Dy80 2.275 . S
O94 C82 1.254 . S
O95 Dy81 2.339 . S
O95 C82 1.257 . S
C96 C99 1.344 . S
C96 C100 1.328 . S
C96 C102 1.516 . S
C97 C98 1.304 . S
C97 C101 1.323 . S
C98 C97 1.304 . S
C98 C99 1.371 . S
C98 H112 0.930 . S
C99 C96 1.344 . S
C99 C98 1.371 . S
C99 H113 0.931 . S
C100 C96 1.328 . S
C100 C101 1.433 . S
C100 H114 0.931 . S
C101 C97 1.323 . S
C101 C100 1.433 . S
C101 H115 0.933 . S
C102 Dy80 2.738 . S
C102 O85 1.255 . S
C102 O86 1.249 . S
C102 C96 1.516 . S
C103 O87 1.254 . S
C103 O88 1.257 . S
C104 O89 1.266 . S
C104 O90 1.236 . S
C105 C108 1.344 . S
C105 C109 1.328 . S
C105 C111 1.516 . S
C106 C107 1.304 . S
C106 C110 1.323 . S
C107 C106 1.304 . S
C107 C108 1.371 . S
C107 H116 0.930 . S
C108 C105 1.344 . S
C108 C107 1.371 . S
C108 H117 0.931 . S
C109 C105 1.328 . S
C109 C110 1.433 . S
C109 H118 0.931 . S
C110 C106 1.323 . S
C110 C109 1.433 . S
C110 H119 0.933 . S
C111 Dy81 2.738 . S
C111 O91 1.255 . S
C111 O92 1.249 . S
C111 C105 1.516 . S
H112 C98 0.930 . S
H113 C99 0.931 . S
H114 C100 0.931 . S
H115 C101 0.933 . S
H116 C107 0.930 . S
H117 C108 0.931 . S
H118 C109 0.931 . S
H119 C110 0.933 . S
H120 C123 0.931 1_565 S
H121 C126 0.928 . S
H122 C128 0.930 . S
C123 H120 0.931 1_545 S
C123 C124 1.413 . S
C123 C125 1.360 . S
C124 C123 1.413 . S
C124 C128 1.429 . S
C125 C123 1.360 . S
C125 C126 1.372 . S
C126 H121 0.928 . S
C126 C125 1.372 . S
C126 C127 1.404 . S
C127 C126 1.404 . S
C127 C128 1.391 . S
C128 H122 0.930 . S
C128 C124 1.429 . S
C128 C127 1.391 . S
H129 C132 0.931 . S
H130 C135 0.928 . S
H131 C137 0.930 . S
C132 H129 0.931 . S
C132 C133 1.413 . S
C132 C134 1.360 . S
C133 C132 1.413 . S
C133 C137 1.429 . S
C134 C132 1.360 . S
C134 C135 1.372 . S
C135 H130 0.928 . S
C135 C134 1.372 . S
C135 C136 1.404 . S
C136 C135 1.404 . S
C136 C137 1.391 . S
C137 H131 0.930 . S
C137 C133 1.429 . S
C137 C136 1.391 . S
H138 C141 0.931 . S
H139 C144 0.928 . S
H140 C146 0.930 . S
C141 H138 0.931 . S
C141 C142 1.413 . S
C141 C143 1.360 1_655 S
C142 C141 1.413 . S
C142 C146 1.429 1_655 S
C143 C141 1.360 1_455 S
C143 C144 1.372 . S
C144 H139 0.928 . S
C144 C143 1.372 . S
C144 C145 1.404 . S
C145 C144 1.404 . S
C145 C146 1.391 . S
C146 H140 0.930 . S
C146 C142 1.429 1_455 S
C146 C145 1.391 . S
H147 C150 0.931 . S
H148 C153 0.928 . S
H149 C155 0.930 . S
C150 H147 0.931 . S
C150 C151 1.413 . S
C150 C152 1.360 1_655 S
C151 C150 1.413 . S
C151 C155 1.429 1_655 S
C152 C150 1.360 1_455 S
C152 C153 1.372 . S
C153 H148 0.928 . S
C153 C152 1.372 . S
C153 C154 1.404 . S
C154 C153 1.404 . S
C154 C155 1.391 . S
C155 H149 0.930 . S
C155 C151 1.429 1_455 S
C155 C154 1.391 . S
H156 C159 0.931 . S
H157 C162 0.928 . S
H158 C164 0.930 . S
C159 H156 0.931 . S
C159 C160 1.413 . S
C159 C161 1.360 . S
C160 C159 1.413 . S
C160 C164 1.429 . S
C161 C159 1.360 . S
C161 C162 1.372 1_545 S
C162 H157 0.928 . S
C162 C161 1.372 1_565 S
C162 C163 1.404 . S
C163 C162 1.404 . S
C163 C164 1.391 1_565 S
C164 H158 0.930 . S
C164 C160 1.429 . S
C164 C163 1.391 1_545 S
H165 C168 0.931 . S
H166 C171 0.928 . S
H167 C173 0.930 . S
C168 H165 0.931 . S
C168 C169 1.413 . S
C168 C170 1.360 . S
C169 C168 1.413 . S
C169 C173 1.429 . S
C170 C168 1.360 . S
C170 C171 1.372 . S
C171 H166 0.928 . S
C171 C170 1.372 . S
C171 C172 1.404 . S
C172 C171 1.404 . S
C172 C173 1.391 . S
C173 H167 0.930 . S
C173 C169 1.429 . S
C173 C172 1.391 . S
H174 C180 0.930 . S
H175 C183 0.930 . S
H176 C184 0.930 . S
H177 C185 0.930 . S
H178 C188 0.930 . S
H179 C189 0.930 . S
C180 H174 0.930 . S
C180 C181 1.355 . S
C180 C182 1.415 . S
C181 C180 1.355 . S
C181 C183 1.419 . S
C182 C180 1.415 . S
C182 C187 1.425 . S
C182 C189 1.409 . S
C183 H175 0.930 . S
C183 C181 1.419 . S
C183 C184 1.362 . S
C184 H176 0.930 . S
C184 C183 1.362 . S
C184 C187 1.409 . S
C185 H177 0.930 . S
C185 C186 1.355 . S
C185 C187 1.415 . S
C186 C185 1.355 . S
C186 C188 1.419 . S
C187 C182 1.425 . S
C187 C184 1.409 . S
C187 C185 1.415 . S
C188 H178 0.930 . S
C188 C186 1.419 . S
C188 C189 1.362 . S
C189 H179 0.930 . S
C189 C182 1.409 . S
C189 C188 1.362 . S
H190 C196 0.930 . S
H191 C199 0.930 . S
H192 C200 0.930 . S
H193 C201 0.930 . S
H194 C204 0.930 . S
H195 C205 0.930 . S
C196 H190 0.930 . S
C196 C197 1.355 . S
C196 C198 1.415 . S
C197 C196 1.355 . S
C197 C199 1.419 . S
C198 C196 1.415 . S
C198 C203 1.425 . S
C198 C205 1.409 . S
C199 H191 0.930 . S
C199 C197 1.419 . S
C199 C200 1.362 . S
C200 H192 0.930 . S
C200 C199 1.362 . S
C200 C203 1.409 . S
C201 H193 0.930 . S
C201 C202 1.355 . S
C201 C203 1.415 . S
C202 C201 1.355 . S
C202 C204 1.419 . S
C203 C198 1.425 . S
C203 C200 1.409 . S
C203 C201 1.415 . S
C204 H194 0.930 . S
C204 C202 1.419 . S
C204 C205 1.362 . S
C205 H195 0.930 . S
C205 C198 1.409 . S
C205 C204 1.362 . S
H206 C212 0.930 . S
H207 C215 0.930 . S
H208 C216 0.930 . S
H209 C217 0.930 . S
H210 C220 0.930 . S
H211 C221 0.930 . S
C212 H206 0.930 . S
C212 C213 1.355 . S
C212 C214 1.415 . S
C213 C212 1.355 . S
C213 C215 1.419 . S
C214 C212 1.415 . S
C214 C219 1.425 . S
C214 C221 1.409 . S
C215 H207 0.930 . S
C215 C213 1.419 . S
C215 C216 1.362 . S
C216 H208 0.930 . S
C216 C215 1.362 . S
C216 C219 1.409 . S
C217 H209 0.930 . S
C217 C218 1.355 . S
C217 C219 1.415 . S
C218 C217 1.355 . S
C218 C220 1.419 . S
C219 C214 1.425 . S
C219 C216 1.409 . S
C219 C217 1.415 . S
C220 H210 0.930 . S
C220 C218 1.419 . S
C220 C221 1.362 . S
C221 H211 0.930 . S
C221 C214 1.409 . S
C221 C220 1.362 . S
H222 C228 0.930 . S
H223 C231 0.930 . S
H224 C232 0.930 . S
H225 C233 0.930 . S
H226 C236 0.930 . S
H227 C237 0.930 . S
C228 H222 0.930 . S
C228 C229 1.355 . S
C228 C230 1.415 . S
C229 C228 1.355 . S
C229 C231 1.419 . S
C230 C228 1.415 . S
C230 C235 1.425 . S
C230 C237 1.409 . S
C231 H223 0.930 . S
C231 C229 1.419 . S
C231 C232 1.362 . S
C232 H224 0.930 . S
C232 C231 1.362 . S
C232 C235 1.409 . S
C233 H225 0.930 . S
C233 C234 1.355 . S
C233 C235 1.415 . S
C234 C233 1.355 . S
C234 C236 1.419 . S
C235 C230 1.425 . S
C235 C232 1.409 . S
C235 C233 1.415 . S
C236 H226 0.930 . S
C236 C234 1.419 . S
C236 C237 1.362 . S
C237 H227 0.930 . S
C237 C230 1.409 . S
C237 C236 1.362 . S
H238 C244 0.930 . S
H239 C247 0.930 . S
H240 C248 0.930 . S
H241 C249 0.930 . S
H242 C252 0.930 . S
H243 C253 0.930 . S
C244 H238 0.930 . S
C244 C245 1.355 . S
C244 C246 1.415 . S
C245 C244 1.355 . S
C245 C247 1.419 . S
C246 C244 1.415 . S
C246 C251 1.425 . S
C246 C253 1.409 . S
C247 H239 0.930 . S
C247 C245 1.419 . S
C247 C248 1.362 . S
C248 H240 0.930 . S
C248 C247 1.362 . S
C248 C251 1.409 . S
C249 H241 0.930 . S
C249 C250 1.355 . S
C249 C251 1.415 . S
C250 C249 1.355 . S
C250 C252 1.419 . S
C251 C246 1.425 . S
C251 C248 1.409 . S
C251 C249 1.415 . S
C252 H242 0.930 . S
C252 C250 1.419 . S
C252 C253 1.362 . S
C253 H243 0.930 . S
C253 C246 1.409 . S
C253 C252 1.362 . S
H254 C260 0.930 . S
H255 C263 0.930 . S
H256 C264 0.930 . S
H257 C265 0.930 . S
H258 C268 0.930 . S
H259 C269 0.930 . S
C260 H254 0.930 . S
C260 C261 1.355 . S
C260 C262 1.415 . S
C261 C260 1.355 . S
C261 C263 1.419 . S
C262 C260 1.415 . S
C262 C267 1.425 . S
C262 C269 1.409 . S
C263 H255 0.930 . S
C263 C261 1.419 . S
C263 C264 1.362 . S
C264 H256 0.930 . S
C264 C263 1.362 . S
C264 C267 1.409 . S
C265 H257 0.930 . S
C265 C266 1.355 . S
C265 C267 1.415 . S
C266 C265 1.355 . S
C266 C268 1.419 . S
C267 C262 1.425 . S
C267 C264 1.409 . S
C267 C265 1.415 . S
C268 H258 0.930 . S
C268 C266 1.419 . S
C268 C269 1.362 . S
C269 H259 0.930 . S
C269 C262 1.409 . S
C269 C268 1.362 . S
H270 C276 0.930 . S
H271 C279 0.930 . S
H272 C280 0.930 . S
H273 C281 0.930 . S
H274 C284 0.930 . S
H275 C285 0.930 . S
C276 H270 0.930 . S
C276 C277 1.355 . S
C276 C278 1.415 . S
C277 C276 1.355 . S
C277 C279 1.419 . S
C278 C276 1.415 . S
C278 C283 1.425 . S
C278 C285 1.409 . S
C279 H271 0.930 . S
C279 C277 1.419 . S
C279 C280 1.362 . S
C280 H272 0.930 . S
C280 C279 1.362 . S
C280 C283 1.409 . S
C281 H273 0.930 . S
C281 C282 1.355 . S
C281 C283 1.415 . S
C282 C281 1.355 . S
C282 C284 1.419 . S
C283 C278 1.425 . S
C283 C280 1.409 . S
C283 C281 1.415 . S
C284 H274 0.930 . S
C284 C282 1.419 . S
C284 C285 1.362 . S
C285 H275 0.930 . S
C285 C278 1.409 . S
C285 C284 1.362 . S
H286 C292 0.930 . S
H287 C295 0.930 . S
H288 C296 0.930 . S
H289 C297 0.930 . S
H290 C300 0.930 . S
H291 C301 0.930 . S
C292 H286 0.930 . S
C292 C293 1.355 . S
C292 C294 1.415 . S
C293 C292 1.355 . S
C293 C295 1.419 . S
C294 C292 1.415 . S
C294 C299 1.425 . S
C294 C301 1.409 . S
C295 H287 0.930 . S
C295 C293 1.419 . S
C295 C296 1.362 . S
C296 H288 0.930 . S
C296 C295 1.362 . S
C296 C299 1.409 . S
C297 H289 0.930 . S
C297 C298 1.355 . S
C297 C299 1.415 . S
C298 C297 1.355 . S
C298 C300 1.419 . S
C299 C294 1.425 . S
C299 C296 1.409 . S
C299 C297 1.415 . S
C300 H290 0.930 . S
C300 C298 1.419 . S
C300 C301 1.362 . S
C301 H291 0.930 . S
C301 C294 1.409 . S
C301 C300 1.362 . S
H302 C308 0.930 . S
H303 C311 0.930 . S
H304 C312 0.930 . S
H305 C313 0.930 . S
H306 C316 0.930 . S
H307 C317 0.930 . S
C308 H302 0.930 . S
C308 C309 1.355 . S
C308 C310 1.415 . S
C309 C308 1.355 . S
C309 C311 1.419 . S
C310 C308 1.415 . S
C310 C315 1.425 . S
C310 C317 1.409 . S
C311 H303 0.930 . S
C311 C309 1.419 . S
C311 C312 1.362 . S
C312 H304 0.930 . S
C312 C311 1.362 . S
C312 C315 1.409 . S
C313 H305 0.930 . S
C313 C314 1.355 . S
C313 C315 1.415 . S
C314 C313 1.355 . S
C314 C316 1.419 . S
C315 C310 1.425 . S
C315 C312 1.409 . S
C315 C313 1.415 . S
C316 H306 0.930 . S
C316 C314 1.419 . S
C316 C317 1.362 . S
C317 H307 0.930 . S
C317 C310 1.409 . S
C317 C316 1.362 . S
H318 C324 0.930 . S
H319 C327 0.930 . S
H320 C328 0.930 . S
H321 C329 0.930 . S
H322 C332 0.930 . S
H323 C333 0.930 . S
C324 H318 0.930 . S
C324 C325 1.355 . S
C324 C326 1.415 . S
C325 C324 1.355 . S
C325 C327 1.419 . S
C326 C324 1.415 . S
C326 C331 1.425 . S
C326 C333 1.409 . S
C327 H319 0.930 . S
C327 C325 1.419 . S
C327 C328 1.362 . S
C328 H320 0.930 . S
C328 C327 1.362 . S
C328 C331 1.409 . S
C329 H321 0.930 . S
C329 C330 1.355 . S
C329 C331 1.415 . S
C330 C329 1.355 . S
C330 C332 1.419 . S
C331 C326 1.425 . S
C331 C328 1.409 . S
C331 C329 1.415 . S
C332 H322 0.930 . S
C332 C330 1.419 . S
C332 C333 1.362 . S
C333 H323 0.930 . S
C333 C326 1.409 . S
C333 C332 1.362 . S
H334 C340 0.930 . S
H335 C343 0.930 . S
H336 C344 0.930 . S
H337 C345 0.930 . S
H338 C348 0.930 . S
H339 C349 0.930 . S
C340 H334 0.930 . S
C340 C341 1.355 . S
C340 C342 1.415 . S
C341 C340 1.355 . S
C341 C343 1.419 . S
C342 C340 1.415 . S
C342 C347 1.425 . S
C342 C349 1.409 . S
C343 H335 0.930 . S
C343 C341 1.419 . S
C343 C344 1.362 . S
C344 H336 0.930 . S
C344 C343 1.362 . S
C344 C347 1.409 . S
C345 H337 0.930 . S
C345 C346 1.355 . S
C345 C347 1.415 . S
C346 C345 1.355 . S
C346 C348 1.419 . S
C347 C342 1.425 . S
C347 C344 1.409 . S
C347 C345 1.415 . S
C348 H338 0.930 . S
C348 C346 1.419 . S
C348 C349 1.362 . S
C349 H339 0.930 . S
C349 C342 1.409 . S
C349 C348 1.362 . S
H350 C356 0.930 . S
H351 C359 0.930 . S
H352 C360 0.930 . S
H353 C361 0.930 . S
H354 C364 0.930 . S
H355 C365 0.930 . S
C356 H350 0.930 . S
C356 C357 1.355 . S
C356 C358 1.415 . S
C357 C356 1.355 . S
C357 C359 1.419 . S
C358 C356 1.415 . S
C358 C363 1.425 . S
C358 C365 1.409 . S
C359 H351 0.930 . S
C359 C357 1.419 . S
C359 C360 1.362 . S
C360 H352 0.930 . S
C360 C359 1.362 . S
C360 C363 1.409 . S
C361 H353 0.930 . S
C361 C362 1.355 . S
C361 C363 1.415 . S
C362 C361 1.355 . S
C362 C364 1.419 . S
C363 C358 1.425 . S
C363 C360 1.409 . S
C363 C361 1.415 . S
C364 H354 0.930 . S
C364 C362 1.419 . S
C364 C365 1.362 . S
C365 H355 0.930 . S
C365 C358 1.409 . S
C365 C364 1.362 . S
H366 C372 0.930 . S
H367 C375 0.930 . S
H368 C376 0.930 . S
H369 C377 0.930 . S
H370 C380 0.930 . S
H371 C381 0.930 . S
C372 H366 0.930 . S
C372 C373 1.355 1_655 S
C372 C374 1.415 . S
C373 C372 1.355 1_455 S
C373 C375 1.419 . S
C374 C372 1.415 . S
C374 C379 1.425 1_655 S
C374 C381 1.409 . S
C375 H367 0.930 . S
C375 C373 1.419 . S
C375 C376 1.362 . S
C376 H368 0.930 . S
C376 C375 1.362 . S
C376 C379 1.409 . S
C377 H369 0.930 . S
C377 C378 1.355 . S
C377 C379 1.415 1_556 S
C378 C377 1.355 . S
C378 C380 1.419 1_455 S
C379 C374 1.425 1_455 S
C379 C376 1.409 . S
C379 C377 1.415 1_554 S
C380 H370 0.930 . S
C380 C378 1.419 1_655 S
C380 C381 1.362 1_556 S
C381 H371 0.930 . S
C381 C374 1.409 . S
C381 C380 1.362 1_554 S
H382 C388 0.931 1_565 S
H383 C391 0.930 . S
H384 C392 0.930 . S
H385 C393 0.930 . S
H386 C396 0.930 . S
H387 C397 0.930 . S
C388 H382 0.931 1_545 S
C388 C389 1.354 . S
C388 C390 1.414 . S
C389 C388 1.354 . S
C389 C391 1.419 . S
C390 C388 1.414 . S
C390 C395 1.425 . S
C390 C397 1.409 1_545 S
C391 H383 0.930 . S
C391 C389 1.419 . S
C391 C392 1.362 . S
C392 H384 0.930 . S
C392 C391 1.362 . S
C392 C395 1.409 . S
C393 H385 0.930 . S
C393 C394 1.355 . S
C393 C395 1.415 . S
C394 C393 1.355 . S
C394 C396 1.419 1_545 S
C395 C390 1.425 . S
C395 C392 1.409 . S
C395 C393 1.415 . S
C396 H386 0.930 . S
C396 C394 1.419 1_565 S
C396 C397 1.362 . S
C397 H387 0.930 . S
C397 C390 1.409 1_565 S
C397 C396 1.362 . S
H398 C404 0.930 . S
H399 C407 0.930 . S
H400 C408 0.930 . S
H401 C409 0.930 . S
H402 C412 0.930 . S
H403 C413 0.930 . S
C404 H398 0.930 . S
C404 C405 1.355 . S
C404 C406 1.415 . S
C405 C404 1.355 . S
C405 C407 1.419 . S
C406 C404 1.415 . S
C406 C411 1.425 . S
C406 C413 1.409 . S
C407 H399 0.930 . S
C407 C405 1.419 . S
C407 C408 1.362 . S
C408 H400 0.930 . S
C408 C407 1.362 . S
C408 C411 1.409 . S
C409 H401 0.930 . S
C409 C410 1.355 . S
C409 C411 1.415 . S
C410 C409 1.355 . S
C410 C412 1.419 . S
C411 C406 1.425 . S
C411 C408 1.409 . S
C411 C409 1.415 . S
C412 H402 0.930 . S
C412 C410 1.419 . S
C412 C413 1.362 . S
C413 H403 0.930 . S
C413 C406 1.409 . S
C413 C412 1.362 . S
H414 C420 0.929 1_565 S
H415 C423 0.930 . S
H416 C424 0.930 . S
H417 C425 0.930 . S
H418 C428 0.926 1_565 S
H419 C429 0.938 . S
C420 H414 0.929 1_545 S
C420 C421 1.355 . S
C420 C422 1.415 . S
C421 C420 1.355 . S
C421 C423 1.419 . S
C422 C420 1.415 . S
C422 C427 1.425 . S
C422 C429 1.405 1_545 S
C423 H415 0.930 . S
C423 C421 1.419 . S
C423 C424 1.362 . S
C424 H416 0.930 . S
C424 C423 1.362 . S
C424 C427 1.409 . S
C425 H417 0.930 . S
C425 C426 1.355 . S
C425 C427 1.415 . S
C426 C425 1.355 . S
C426 C428 1.424 . S
C427 C422 1.425 . S
C427 C424 1.409 . S
C427 C425 1.415 . S
C428 H418 0.926 1_545 S
C428 C426 1.424 . S
C428 C429 1.359 1_545 S
C429 H419 0.938 . S
C429 C422 1.405 1_565 S
C429 C428 1.359 1_565 S
H430 C436 0.930 . S
H431 C439 0.930 . S
H432 C440 0.930 . S
H433 C441 0.930 . S
H434 C444 0.930 . S
H435 C445 0.930 . S
C436 H430 0.930 . S
C436 C437 1.355 . S
C436 C438 1.415 . S
C437 C436 1.355 . S
C437 C439 1.419 . S
C438 C436 1.415 . S
C438 C443 1.425 . S
C438 C445 1.409 . S
C439 H431 0.930 . S
C439 C437 1.419 . S
C439 C440 1.362 . S
C440 H432 0.930 . S
C440 C439 1.362 . S
C440 C443 1.409 . S
C441 H433 0.930 . S
C441 C442 1.355 . S
C441 C443 1.415 1_554 S
C442 C441 1.355 . S
C442 C444 1.419 . S
C443 C438 1.425 . S
C443 C440 1.409 . S
C443 C441 1.415 1_556 S
C444 H434 0.930 . S
C444 C442 1.419 . S
C444 C445 1.362 1_554 S
C445 H435 0.930 . S
C445 C438 1.409 . S
C445 C444 1.362 1_556 S
H446 C452 0.930 . S
H447 C455 0.930 . S
H448 C456 0.930 . S
H449 C457 0.930 . S
H450 C460 0.930 . S
H451 C461 0.930 . S
C452 H446 0.930 . S
C452 C453 1.355 1_655 S
C452 C454 1.415 . S
C453 C452 1.355 1_455 S
C453 C455 1.419 . S
C454 C452 1.415 . S
C454 C459 1.425 1_655 S
C454 C461 1.409 . S
C455 H447 0.930 . S
C455 C453 1.419 . S
C455 C456 1.362 . S
C456 H448 0.930 . S
C456 C455 1.362 . S
C456 C459 1.409 . S
C457 H449 0.930 . S
C457 C458 1.355 1_455 S
C457 C459 1.415 . S
C458 C457 1.355 1_655 S
C458 C460 1.419 . S
C459 C454 1.425 1_455 S
C459 C456 1.409 . S
C459 C457 1.415 . S
C460 H450 0.930 . S
C460 C458 1.419 . S
C460 C461 1.362 . S
C461 H451 0.930 . S
C461 C454 1.409 . S
C461 C460 1.362 . S
C181 C24 2.925 . S
C186 C169 2.905 . S
C197 C66 1.350 . S
C202 C151 1.420 . S
C213 C93 1.752 . S
C218 C163 1.758 . S
C229 C13 2.954 . S
C234 C172 2.963 . S
C250 C154 1.422 . S
C245 C57 1.397 . S
C266 C160 1.836 . S
C261 C104 1.845 . S
C277 C64 1.827 . S
C282 C133 1.801 . S
C293 C97 0.807 . S
C298 C142 0.845 . S
C309 C17 1.507 . S
C314 C124 1.553 1_565 S
C330 C136 1.737 . S
C325 C53 1.782 . S
C346 C145 0.617 . S
C341 C106 0.719 . S
C357 C26 1.391 . S
C362 C127 1.446 . S
C378 C143 0.964 . S
C373 C2 0.982 . S
C389 C63 1.443 . S
C394 C125 1.473 . S
C405 C82 1.314 . S
C410 C134 1.356 . S
C426 C161 1.374 . S
C421 C42 1.376 . S
C442 C170 1.809 . S
C437 C103 1.728 . S
C453 C23 1.432 . S
C458 C152 1.493 1_655 S
