# Generated by pormake.
# Topology pyr, (3,6)-cn, num edge types: 1
# Building blocks:
#     Node 0, Type 0, BuildingBlock: BETDIP_clean_linker_0, # of connection points: 3
#     Node 1, Type 0, BuildingBlock: BETDIP_clean_linker_0, # of connection points: 3
#     Node 2, Type 0, BuildingBlock: BETDIP_clean_linker_0, # of connection points: 3
#     Node 3, Type 0, BuildingBlock: BETDIP_clean_linker_0, # of connection points: 3
#     Node 4, Type 0, BuildingBlock: BETDIP_clean_linker_0, # of connection points: 3
#     Node 5, Type 0, BuildingBlock: BETDIP_clean_linker_0, # of connection points: 3
#     Node 6, Type 0, BuildingBlock: BETDIP_clean_linker_0, # of connection points: 3
#     Node 7, Type 0, BuildingBlock: BETDIP_clean_linker_0, # of connection points: 3
#     Node 8, Type 1, BuildingBlock: BETDIP_clean_sbu_0, # of connection points: 6
#     Node 9, Type 1, BuildingBlock: BETDIP_clean_sbu_0, # of connection points: 6
#     Node 10, Type 1, BuildingBlock: BETDIP_clean_sbu_0, # of connection points: 6
#     Node 11, Type 1, BuildingBlock: BETDIP_clean_sbu_0, # of connection points: 6
#     Edge 12, Type (0, 1), BuildingBlock: XUDNAN_clean_linker_2, # of connection points: 2
#     Edge 13, Type (0, 1), BuildingBlock: XUDNAN_clean_linker_2, # of connection points: 2
#     Edge 14, Type (0, 1), BuildingBlock: XUDNAN_clean_linker_2, # of connection points: 2
#     Edge 15, Type (0, 1), BuildingBlock: XUDNAN_clean_linker_2, # of connection points: 2
#     Edge 16, Type (0, 1), BuildingBlock: XUDNAN_clean_linker_2, # of connection points: 2
#     Edge 17, Type (0, 1), BuildingBlock: XUDNAN_clean_linker_2, # of connection points: 2
#     Edge 18, Type (0, 1), BuildingBlock: XUDNAN_clean_linker_2, # of connection points: 2
#     Edge 19, Type (0, 1), BuildingBlock: XUDNAN_clean_linker_2, # of connection points: 2
#     Edge 20, Type (0, 1), BuildingBlock: XUDNAN_clean_linker_2, # of connection points: 2
#     Edge 21, Type (0, 1), BuildingBlock: XUDNAN_clean_linker_2, # of connection points: 2
#     Edge 22, Type (0, 1), BuildingBlock: XUDNAN_clean_linker_2, # of connection points: 2
#     Edge 23, Type (0, 1), BuildingBlock: XUDNAN_clean_linker_2, # of connection points: 2
#     Edge 24, Type (0, 1), BuildingBlock: XUDNAN_clean_linker_2, # of connection points: 2
#     Edge 25, Type (0, 1), BuildingBlock: XUDNAN_clean_linker_2, # of connection points: 2
#     Edge 26, Type (0, 1), BuildingBlock: XUDNAN_clean_linker_2, # of connection points: 2
#     Edge 27, Type (0, 1), BuildingBlock: XUDNAN_clean_linker_2, # of connection points: 2
#     Edge 28, Type (0, 1), BuildingBlock: XUDNAN_clean_linker_2, # of connection points: 2
#     Edge 29, Type (0, 1), BuildingBlock: XUDNAN_clean_linker_2, # of connection points: 2
#     Edge 30, Type (0, 1), BuildingBlock: XUDNAN_clean_linker_2, # of connection points: 2
#     Edge 31, Type (0, 1), BuildingBlock: XUDNAN_clean_linker_2, # of connection points: 2
#     Edge 32, Type (0, 1), BuildingBlock: XUDNAN_clean_linker_2, # of connection points: 2
#     Edge 33, Type (0, 1), BuildingBlock: XUDNAN_clean_linker_2, # of connection points: 2
#     Edge 34, Type (0, 1), BuildingBlock: XUDNAN_clean_linker_2, # of connection points: 2
#     Edge 35, Type (0, 1), BuildingBlock: XUDNAN_clean_linker_2, # of connection points: 2
# Relax obj value: 0.168
# Max RMSD: 0.237
# Mean RMSD: 0.149
data_MOF--net-pyr--node1-BETDIP_clean_sbu_0--node2-BETDIP_clean_linker_0--edge1-XUDNAN_clean_linker_2
_symmetry_space_group_name_H-M    P1
_symmetry_Int_Tables_number       1
_symmetry_cell_setting            triclinic
loop_
_symmetry_equiv_pos_as_xyz
'x, y, z'
_cell_length_a     35.352372
_cell_length_b     38.715358
_cell_length_c     39.177647
_cell_angle_alpha  89.866652
_cell_angle_beta   90.633345
_cell_angle_gamma 110.29711
loop_
_atom_site_label
_atom_site_type_symbol
_atom_site_fract_x
_atom_site_fract_y
_atom_site_fract_z
_atom_type_partial_charge
H0 H 0.31622 0.27996 0.24858 0.0
H1 H 0.40156 0.28612 0.16929 0.0
H2 H 0.39553 0.21744 0.25649 0.0
H3 H 0.37411 0.32163 0.14213 0.0
C4 C 0.34893 0.32401 0.15625 0.0
C5 C 0.34128 0.27286 0.23908 0.0
C6 C 0.35394 0.24709 0.2566 0.0
C7 C 0.35819 0.28738 0.20775 0.0
C8 C 0.38888 0.27639 0.19396 0.0
C9 C 0.4028 0.25165 0.21194 0.0
C10 C 0.38568 0.23757 0.24335 0.0
N11 N 0.34089 0.31045 0.19013 0.0
H12 H 0.15046 0.81738 0.74026 0.0
H13 H 0.1661 0.7511 0.65827 0.0
H14 H 0.2599 0.79284 0.73468 0.0
H15 H 0.14796 0.81252 0.6364 0.0
C16 C 0.12203 0.80769 0.65284 0.0
C17 C 0.16856 0.80338 0.72818 0.0
C18 C 0.20669 0.80697 0.74147 0.0
C19 C 0.15442 0.78378 0.69812 0.0
C20 C 0.17763 0.76615 0.68164 0.0
C21 C 0.2156 0.7685 0.69498 0.0
C22 C 0.22986 0.78905 0.72506 0.0
N23 N 0.11916 0.78618 0.68264 0.0
H24 H 0.70134 0.41962 0.861 0.0
H25 H 0.60232 0.31626 0.86975 0.0
H26 H 0.70744 0.34065 0.93482 0.0
H27 H 0.66458 0.43591 0.8253 0.0
C28 C 0.64063 0.41259 0.81458 0.0
C29 C 0.68734 0.39314 0.87281 0.0
C30 C 0.7076 0.38373 0.90054 0.0
C31 C 0.64954 0.36872 0.86076 0.0
C32 C 0.63178 0.33456 0.87798 0.0
C33 C 0.65154 0.32452 0.9061 0.0
C34 C 0.6902 0.3489 0.91549 0.0
N35 N 0.62895 0.37756 0.83174 0.0
H36 H 0.82859 0.66068 0.35051 0.0
H37 H 0.93243 0.75894 0.35379 0.0
H38 H 0.83451 0.74733 0.42217 0.0
H39 H 0.85094 0.67443 0.28577 0.0
C40 C 0.88073 0.67449 0.29298 0.0
C41 C 0.84335 0.688 0.36084 0.0
C42 C 0.82591 0.70103 0.38818 0.0
C43 C 0.88144 0.70912 0.34803 0.0
C44 C 0.9027 0.74326 0.36321 0.0
C45 C 0.88601 0.75742 0.39002 0.0
C46 C 0.84732 0.73637 0.40172 0.0
N47 N 0.90065 0.6952 0.32218 0.0
H48 H 0.61451 0.7755 0.93803 0.0
H49 H 0.68098 0.74289 0.86088 0.0
H50 H 0.6343 0.82972 0.84059 0.0
H51 H 0.66175 0.68891 0.89217 0.0
C52 C 0.6681 0.70154 0.91732 0.0
C53 C 0.62602 0.7779 0.91226 0.0
C54 C 0.62128 0.80471 0.89021 0.0
C55 C 0.64631 0.75466 0.90162 0.0
C56 C 0.66292 0.75899 0.8687 0.0
C57 C 0.65898 0.7862 0.84661 0.0
C58 C 0.63727 0.80841 0.85731 0.0
N59 N 0.6533 0.73008 0.9258 0.0
H60 H 0.86439 0.28566 0.3202 0.0
H61 H 0.84801 0.33028 0.41553 0.0
H62 H 0.8232 0.37857 0.32319 0.0
H63 H 0.92609 0.28326 0.3575 0.0
C64 C 0.90282 0.26725 0.37487 0.0
C65 C 0.85797 0.30734 0.33349 0.0
C66 C 0.84221 0.33146 0.31603 0.0
C67 C 0.86186 0.30833 0.3692 0.0
C68 C 0.84836 0.3323 0.38793 0.0
C69 C 0.83333 0.35707 0.37137 0.0
C70 C 0.83297 0.35807 0.33552 0.0
N71 N 0.87374 0.28179 0.387 0.0
H72 H 0.33754 0.64351 0.2501 0.0
H73 H 0.43581 0.74559 0.26554 0.0
H74 H 0.35067 0.73523 0.18319 0.0
H75 H 0.45922 0.70701 0.30478 0.0
C76 C 0.4321 0.68493 0.31252 0.0
C77 C 0.35362 0.67156 0.24217 0.0
C78 C 0.33943 0.68638 0.21394 0.0
C79 C 0.38805 0.69214 0.2611 0.0
C80 C 0.40986 0.72882 0.25084 0.0
C81 C 0.39657 0.74419 0.22206 0.0
C82 C 0.36154 0.72273 0.20413 0.0
N83 N 0.39669 0.67496 0.29133 0.0
H84 H 0.08143 0.3199 0.74766 0.0
H85 H 0.18932 0.41451 0.73755 0.0
H86 H 0.16298 0.32465 0.66576 0.0
H87 H 0.17531 0.40443 0.80623 0.0
C88 C 0.14567 0.40607 0.80137 0.0
C89 C 0.10939 0.33381 0.73448 0.0
C90 C 0.11943 0.3174 0.70548 0.0
C91 C 0.13494 0.36815 0.7469 0.0
C92 C 0.17081 0.38711 0.72929 0.0
C93 C 0.18073 0.372 0.6993 0.0
C94 C 0.15546 0.33662 0.68853 0.0
N95 N 0.12116 0.38477 0.77438 0.0
Tb96 Tb 0.94626 1.01576 0.55683 0.0
Tb97 Tb 0.0318 0.0599 0.54422 0.0
C98 C 0.87969 0.9647 0.56507 0.0
C99 C 0.86033 0.93884 0.59231 0.0
C100 C 0.82612 0.90815 0.5847 0.0
C101 C 0.806 0.88424 0.61065 0.0
C102 C 0.81981 0.89082 0.64464 0.0
C103 C 0.8549 0.9211 0.65196 0.0
C104 C 0.8751 0.94488 0.62595 0.0
C105 C 0.97373 0.07977 0.5899 0.0
C106 C 0.01455 1.00094 0.60096 0.0
C107 C 0.09822 0.111 0.53555 0.0
C108 C 0.12149 0.12633 0.50501 0.0
C109 C 0.15848 0.15532 0.50789 0.0
C110 C 0.1832 0.1666 0.47937 0.0
C111 C 0.17125 0.14868 0.44782 0.0
C112 C 0.13328 0.12076 0.4448 0.0
C113 C 0.10853 0.10973 0.47317 0.0
C114 C 1.0065 0.99635 0.51095 0.0
C115 C 0.96206 0.07277 0.49896 0.0
O116 O 0.9109 0.95996 0.55105 0.0
O117 O 0.88575 0.99939 0.57128 0.0
O118 O 0.99253 0.05796 0.5851 0.0
O119 O 0.9372 0.0645 0.57857 0.0
O120 O 0.97716 0.98803 0.58928 0.0
O121 O 0.04004 0.03323 0.59121 0.0
O122 O 0.06399 0.11654 0.53868 0.0
O123 O 0.09465 0.07693 0.542 0.0
O124 O 0.98631 1.01708 0.51599 0.0
O125 O 0.04323 1.01363 0.52061 0.0
O126 O 0.99955 0.08653 0.51079 0.0
O127 O 0.93711 0.04078 0.50968 0.0
H128 H 0.81451 0.90307 0.55877 0.0
H129 H 0.77887 0.86136 0.60429 0.0
H130 H 0.8665 0.92655 0.67785 0.0
H131 H 0.90179 0.96831 0.63216 0.0
H132 H 0.16886 0.16829 0.53238 0.0
H133 H 0.2124 0.18809 0.48235 0.0
H134 H 0.12318 0.10685 0.42065 0.0
H135 H 0.07993 0.08731 0.47059 0.0
Tb136 Tb 0.56903 0.04226 0.07264 0.0
Tb137 Tb 0.47949 1.01908 0.04822 0.0
C138 C 0.64128 0.07684 0.08844 0.0
C139 C 0.66474 0.11407 0.10066 0.0
C140 C 0.70622 0.129 0.09439 0.0
C141 C 0.72917 0.16371 0.10734 0.0
C142 C 0.71088 0.18399 0.12679 0.0
C143 C 0.66901 0.16913 0.1322 0.0
C144 C 0.64622 0.13462 0.11916 0.0
C145 C 0.5193 0.97871 0.09701 0.0
C146 C 0.50966 0.07961 0.10409 0.0
C147 C 0.40661 0.98198 1.03879 0.0
C148 C 0.38198 0.96847 1.00793 0.0
C149 C 0.35221 0.93334 1.00778 0.0
C150 C 0.33006 0.91945 0.978 0.0
C151 C 0.33725 0.94068 0.94802 0.0
C152 C 0.36698 0.97594 0.94834 0.0
C153 C 0.38934 0.98963 0.97796 0.0
C154 C 0.52688 0.07761 1.01312 0.0
C155 C 0.54087 0.98882 1.01019 0.0
O156 O 0.62713 0.07469 0.05713 0.0
O157 O 0.61476 0.05585 0.10978 0.0
O158 O 0.51117 1.00772 0.09179 0.0
O159 O 0.55707 0.98574 0.09033 0.0
O160 O 0.54725 0.08194 0.09806 0.0
O161 O 0.47798 0.05327 0.09126 0.0
O162 O 0.43416 0.96711 0.04498 0.0
O163 O 0.42008 1.01781 0.04338 0.0
O164 O 0.53539 0.05846 1.0358 0.0
O165 O 0.48836 0.06209 1.00786 0.0
O166 O 0.50297 0.98546 1.01612 0.0
O167 O 0.57202 1.0121 1.02687 0.0
H168 H 0.72097 0.11358 0.07991 0.0
H169 H 0.76124 0.17447 0.10246 0.0
H170 H 0.65393 0.18349 0.14762 0.0
H171 H 0.61432 0.12365 0.12431 0.0
H172 H 0.34638 0.91653 1.03061 0.0
H173 H 0.30716 0.89225 0.97843 0.0
H174 H 0.37354 0.99264 0.92545 0.0
H175 H 0.41265 1.0166 0.97731 0.0
Tb176 Tb 0.52322 0.56857 0.57985 0.0
Tb177 Tb 0.50973 0.49374 0.54397 0.0
C178 C 0.51579 0.62689 0.60128 0.0
C179 C 0.4816 0.63951 0.6064 0.0
C180 C 0.44625 0.62531 0.58657 0.0
C181 C 0.41412 0.63784 0.59153 0.0
C182 C 0.41669 0.66452 0.61659 0.0
C183 C 0.45196 0.67826 0.6367 0.0
C184 C 0.48418 0.66588 0.63157 0.0
C185 C 0.55176 0.52254 0.61292 0.0
C186 C 0.43716 0.50155 0.58352 0.0
C187 C 0.52282 0.4349 0.53516 0.0
C188 C 0.55333 0.42573 0.5157 0.0
C189 C 0.57186 0.40276 0.53083 0.0
C190 C 0.60646 0.39948 0.5166 0.0
C191 C 0.62288 0.41888 0.48682 0.0
C192 C 0.60321 0.44049 0.4707 0.0
C193 C 0.56886 0.44422 0.48525 0.0
C194 C 0.48863 0.53899 0.50228 0.0
C195 C 0.58811 0.56387 0.52724 0.0
O196 O 0.52387 0.62179 0.56952 0.0
O197 O 0.51719 0.60031 0.62139 0.0
O198 O 0.51953 0.51451 0.5954 0.0
O199 O 0.56885 0.55818 0.61286 0.0
O200 O 0.45833 0.5372 0.58797 0.0
O201 O 0.45182 0.47833 0.56858 0.0
O202 O 0.53809 0.45758 0.56053 0.0
O203 O 0.49508 0.44329 0.51791 0.0
O204 O 0.50319 0.5445 0.53215 0.0
O205 O 0.48402 0.50498 0.49495 0.0
O206 O 0.56964 0.52765 0.52629 0.0
O207 O 0.57494 0.58597 0.54568 0.0
H208 H 0.44355 0.60463 0.5672 0.0
H209 H 0.38714 0.62646 0.57595 0.0
H210 H 0.45493 0.69908 0.65598 0.0
H211 H 0.51121 0.67703 0.64715 0.0
H212 H 0.56067 0.38875 0.5546 0.0
H213 H 0.62094 0.38239 0.52928 0.0
H214 H 0.6155 0.45584 0.4478 0.0
H215 H 0.55555 0.46276 0.47356 0.0
Tb216 Tb 0.02962 0.58124 1.03517 0.0
Tb217 Tb 0.0213 0.50946 0.06683 0.0
C218 C 0.01732 0.63634 1.01017 0.0
C219 C 0.98273 0.64912 1.00948 0.0
C220 C 0.95726 0.64452 1.0377 0.0
C221 C 0.92165 0.65243 1.03488 0.0
C222 C 0.91091 0.66479 1.00373 0.0
C223 C 0.93731 0.67068 0.976 0.0
C224 C 0.97287 0.66288 0.97887 0.0
C225 C 0.0957 0.5803 0.06795 0.0
C226 C 0.988 0.56125 0.10769 0.0
C227 C 0.03437 0.45463 0.09162 0.0
C228 C 0.06696 0.43967 0.08788 0.0
C229 C 0.06197 0.40447 0.10028 0.0
C230 C 0.09402 0.39123 0.09948 0.0
C231 C 0.1316 0.41308 0.08626 0.0
C232 C 0.13595 0.44786 0.07265 0.0
C233 C 0.1039 0.4611 0.07354 0.0
C234 C 0.95493 0.51031 1.03462 0.0
C235 C 0.06044 0.52835 0.99319 0.0
O236 O 1.01168 0.60584 0.99337 0.0
O237 O 0.03527 0.63687 1.03964 0.0
O238 O 0.05955 0.56466 0.07632 0.0
O239 O 0.09589 0.59957 0.04082 0.0
O240 O 0.9883 0.57808 0.07812 0.0
O241 O 1.00346 0.53479 0.11036 0.0
O242 O 0.0448 0.48672 0.10664 0.0
O243 O 1.01171 0.4528 0.06462 0.0
O244 O 0.99098 0.5259 1.02571 0.0
O245 O 0.95524 0.49161 0.06209 0.0
O246 O 0.06024 0.51106 1.02247 0.0
O247 O 0.04605 0.55554 0.99129 0.0
H248 H 0.96421 0.63388 0.0616 0.0
H249 H 0.90181 0.64751 0.05662 0.0
H250 H 0.93014 0.6808 0.95186 0.0
H251 H 0.99212 0.66655 0.95683 0.0
H252 H 0.03359 0.38756 0.11131 0.0
H253 H 0.08961 0.36411 0.10972 0.0
H254 H 0.16459 0.46549 0.06263 0.0
H255 H 0.10836 0.48849 0.06401 0.0
H256 H 0.32413 0.27439 0.31097 0.0
H257 H 0.32932 0.17305 0.26755 0.0
H258 H 0.28543 0.1375 0.3131 0.0
H259 H 0.32233 0.24669 0.40075 0.0
H260 H 0.28742 0.26908 0.41266 0.0
H261 H 0.32177 0.28706 0.37801 0.0
H262 H 0.26147 0.28257 0.33789 0.0
H263 H 0.22693 0.26438 0.37232 0.0
H264 H 0.221 0.239 0.33291 0.0
H265 H 0.23728 0.11243 0.36011 0.0
H266 H 0.19022 0.09944 0.40842 0.0
H267 H 0.2157 0.21659 0.42202 0.0
C268 C 0.31635 0.24476 0.31132 0.0
C269 C 0.33056 0.22655 0.28594 0.0
C270 C 0.3196 0.18771 0.28715 0.0
C271 C 0.29441 0.16721 0.31277 0.0
C272 C 0.28051 0.18594 0.33707 0.0
C273 C 0.29127 0.22382 0.33683 0.0
C274 C 0.27105 0.2369 0.36546 0.0
C275 C 0.30253 0.26138 0.39072 0.0
C276 C 0.24348 0.25688 0.35128 0.0
C277 C 0.24679 0.20036 0.38144 0.0
C278 C 0.25272 0.17137 0.36459 0.0
C279 C 0.23257 0.13487 0.37371 0.0
C280 C 0.20572 0.12777 0.40097 0.0
C281 C 0.19936 0.15702 0.4188 0.0
C282 C 0.22033 0.19378 0.40897 0.0
H283 H 0.24652 0.79462 0.7983 0.0
H284 H 0.20524 0.87635 0.74996 0.0
H285 H 0.23274 0.91875 0.7982 0.0
H286 H 0.22523 0.81314 0.88484 0.0
H287 H 0.26948 0.80659 0.90268 0.0
H288 H 0.2463 0.78232 0.86443 0.0
H289 H 0.31426 0.80922 0.83277 0.0
H290 H 0.33769 0.83344 0.87096 0.0
H291 H 0.33975 0.85841 0.83172 0.0
H292 H 0.26565 0.95272 0.85065 0.0
H293 H 0.30178 0.97609 0.90484 0.0
H294 H 0.32161 0.8725 0.91947 0.0
C295 C 0.2434 0.82148 0.79791 0.0
C296 C 0.22346 0.83211 0.77061 0.0
C297 C 0.2198 0.86742 0.77096 0.0
C298 C 0.23548 0.89176 0.79812 0.0
C299 C 0.2547 0.88037 0.82475 0.0
C300 C 0.25873 0.8461 0.82495 0.0
C301 C 0.28088 0.84084 0.85673 0.0
C302 C 0.25385 0.80882 0.87845 0.0
C303 C 0.3205 0.83515 0.84748 0.0
C304 C 0.28877 0.87755 0.87423 0.0
C305 C 0.27347 0.89994 0.85529 0.0
C306 C 0.27771 0.93544 0.86579 0.0
C307 C 0.29835 0.94851 0.89647 0.0
C308 C 0.31432 0.92605 0.91628 0.0
C309 C 0.3092 0.89005 0.90504 0.0
H310 H 0.66272 0.47647 0.77822 0.0
H311 H 0.57397 0.36623 0.77816 0.0
H312 H 0.54256 0.38131 0.72573 0.0
H313 H 0.5971 0.52374 0.75045 0.0
H314 H 0.63456 0.5564 0.72449 0.0
H315 H 0.64988 0.53633 0.76126 0.0
H316 H 0.69594 0.51356 0.72323 0.0
H317 H 0.6807 0.53352 0.68631 0.0
H318 H 0.6747 0.48535 0.68643 0.0
H319 H 0.5197 0.41053 0.6729 0.0
H320 H 0.50833 0.44964 0.62655 0.0
H321 H 0.61335 0.54023 0.66094 0.0
C322 C 0.63669 0.45537 0.76715 0.0
C323 C 0.62087 0.42007 0.78251 0.0
C324 C 0.58678 0.39339 0.76706 0.0
C325 C 0.56874 0.40181 0.73718 0.0
C326 C 0.58516 0.437 0.72278 0.0
C327 C 0.61855 0.46327 0.73736 0.0
C328 C 0.63055 0.49912 0.71734 0.0
C329 C 0.62785 0.53076 0.73972 0.0
C330 C 0.67299 0.50842 0.70245 0.0
C331 C 0.59855 0.48932 0.68927 0.0
C332 C 0.5726 0.45334 0.69271 0.0
C333 C 0.54016 0.43858 0.67003 0.0
C334 C 0.53398 0.46103 0.64358 0.0
C335 C 0.56012 0.49803 0.63961 0.0
C336 C 0.59295 0.51203 0.66287 0.0
H337 H 0.86834 0.66114 0.22394 0.0
H338 H 0.9409 0.64769 0.30941 0.0
H339 H 0.97405 0.61592 0.27163 0.0
H340 H 0.85469 0.57531 0.18112 0.0
H341 H 0.86004 0.59443 0.1387 0.0
H342 H 0.841 0.61523 0.17242 0.0
H343 H 0.89703 0.67794 0.16089 0.0
H344 H 0.91611 0.65732 0.12706 0.0
H345 H 0.94907 0.68092 0.16153 0.0
H346 H 0.99687 0.58276 0.2253 0.0
H347 H 0.0142 0.5573 0.17257 0.0
H348 H 0.93174 0.59653 0.11483 0.0
C349 C 0.89127 0.65151 0.23461 0.0
C350 C 0.90192 0.65676 0.26975 0.0
C351 C 0.93232 0.64412 0.28268 0.0
C352 C 0.95119 0.62588 0.26139 0.0
C353 C 0.93995 0.62101 0.22694 0.0
C354 C 0.91122 0.63404 0.21342 0.0
C355 C 0.90614 0.6266 0.17513 0.0
C356 C 0.8629 0.60139 0.16634 0.0
C357 C 0.91779 0.66285 0.15497 0.0
C358 C 0.93616 0.607 0.16933 0.0
C359 C 0.95483 0.60366 0.19974 0.0
C360 C 0.98266 0.58554 0.20134 0.0
C361 C 0.99213 0.57091 0.17116 0.0
C362 C 0.97447 0.57485 0.13938 0.0
C363 C 0.94601 0.59322 0.1386 0.0
H364 H 0.39002 0.21146 0.15388 0.0
H365 H 0.47611 0.25351 0.23644 0.0
H366 H 0.51648 0.21702 0.21527 0.0
H367 H 0.3876 0.12211 0.15975 0.0
H368 H 0.38223 0.11218 0.11466 0.0
H369 H 0.36434 0.14651 0.13216 0.0
H370 H 0.40868 0.19523 0.09012 0.0
H371 H 0.42618 0.16083 0.07197 0.0
H372 H 0.46199 0.20328 0.08813 0.0
H373 H 0.54397 0.17171 0.18762 0.0
H374 H 0.55554 0.12066 0.15654 0.0
H375 H 0.44834 0.10578 0.09496 0.0
C376 C 0.41823 0.21401 0.16661 0.0
C377 C 0.43076 0.23583 0.19615 0.0
C378 C 0.46673 0.23739 0.2133 0.0
C379 C 0.48967 0.21675 0.20151 0.0
C380 C 0.47583 0.1945 0.17282 0.0
C381 C 0.44096 0.19309 0.15556 0.0
C382 C 0.43015 0.16418 0.12776 0.0
C383 C 0.38863 0.1345 0.13398 0.0
C384 C 0.43187 0.18195 0.0924 0.0
C385 C 0.46381 0.14891 0.13254 0.0
C386 C 0.49031 0.16714 0.15819 0.0
C387 C 0.52354 0.15742 0.16734 0.0
C388 C 0.52989 0.12845 0.14962 0.0
C389 C 0.50269 0.10926 0.1236 0.0
C390 C 0.4693 0.11968 0.1151 0.0
H391 H 0.14304 0.87137 0.61683 0.0
H392 H 0.05181 0.8028 0.68503 0.0
H393 H 0.01781 0.84894 0.68433 0.0
H394 H 0.14933 0.95876 0.65412 0.0
H395 H 0.15635 0.98236 0.6137 0.0
H396 H 0.17365 0.9441 0.61968 0.0
H397 H 0.13109 0.91068 0.56733 0.0
H398 H 0.11443 0.94918 0.56085 0.0
H399 H 0.07791 0.90353 0.56566 0.0
H400 H 0.99139 0.90038 0.67268 0.0
H401 H 0.97394 0.95274 0.65001 0.0
H402 H 0.08555 0.99008 0.59354 0.0
C403 C 0.11578 0.86606 0.63146 0.0
C404 C 0.09985 0.83362 0.65085 0.0
C405 C 0.0644 0.82757 0.66998 0.0
C406 C 0.04505 0.85367 0.66986 0.0
C407 C 0.06195 0.88577 0.65091 0.0
C408 C 0.09652 0.89205 0.63207 0.0
C409 C 0.10818 0.92845 0.6134 0.0
C410 C 0.14932 0.95498 0.62599 0.0
C411 C 0.10786 0.92259 0.57452 0.0
C412 C 0.07434 0.94139 0.62415 0.0
C413 C 0.04795 0.91639 0.6458 0.0
C414 C 0.01227 0.92057 0.65638 0.0
C415 C 1.0027 0.95042 0.64358 0.0
C416 C 0.02905 0.97586 0.62096 0.0
C417 C 0.06579 0.97185 0.61197 0.0
H418 H 0.73306 0.39347 0.96793 0.0
H419 H 0.77157 0.43365 0.86594 0.0
H420 H 0.83666 0.47452 0.88988 0.0
H421 H 0.78321 0.4787 1.01409 0.0
H422 H 0.79686 0.45569 0.04969 0.0
H423 H 0.75201 0.43236 1.02493 0.0
H424 H 0.77785 0.37855 1.01343 0.0
H425 H 0.82263 0.4016 1.03826 0.0
H426 H 0.82687 0.38814 0.99486 0.0
H427 H 0.89972 0.50907 0.92526 0.0
H428 H 0.95516 0.53134 0.96778 0.0
H429 H 0.87641 0.46587 0.04591 0.0
C430 C 0.75508 0.41068 0.95039 0.0
C431 C 0.74672 0.41001 0.9148 0.0
C432 C 0.77656 0.43377 0.89325 0.0
C433 C 0.81386 0.45704 0.90665 0.0
C434 C 0.82114 0.45639 0.94173 0.0
C435 C 0.79252 0.43368 0.96325 0.0
C436 C 0.80838 0.43645 0.99969 0.0
C437 C 0.78364 0.45171 1.0235 0.0
C438 C 0.80897 0.39896 1.01229 0.0
C439 C 0.85075 0.46385 0.99535 0.0
C440 C 0.85741 0.47545 0.96182 0.0
C441 C 0.89466 0.5002 0.95155 0.0
C442 C 0.926 0.5128 0.97594 0.0
C443 C 0.92019 0.5004 1.01022 0.0
C444 C 0.88178 0.47602 1.01999 0.0
H445 H 0.7988 0.70059 0.4551 0.0
H446 H 0.76195 0.64698 0.35658 0.0
H447 H 0.69967 0.60558 0.38229 0.0
H448 H 0.75773 0.62286 0.50846 0.0
H449 H 0.73991 0.64673 0.54047 0.0
H450 H 0.78292 0.6716 0.51504 0.0
H451 H 0.74767 0.717 0.49581 0.0
H452 H 0.70469 0.6925 0.52144 0.0
H453 H 0.69809 0.69931 0.47655 0.0
H454 H 0.64282 0.56744 0.41919 0.0
H455 H 0.59114 0.54049 0.46275 0.0
H456 H 0.65933 0.62364 0.53556 0.0
C457 C 0.77761 0.68079 0.43843 0.0
C458 C 0.78646 0.67722 0.40351 0.0
C459 C 0.7573 0.65001 0.38348 0.0
C460 C 0.72136 0.62639 0.39782 0.0
C461 C 0.71409 0.6306 0.43217 0.0
C462 C 0.74095 0.65761 0.45206 0.0
C463 C 0.72489 0.65725 0.488 0.0
C464 C 0.75305 0.64912 0.51455 0.0
C465 C 0.71845 0.69368 0.49591 0.0
C466 C 0.68495 0.6255 0.48527 0.0
C467 C 0.67976 0.61021 0.45292 0.0
C468 C 0.64636 0.57948 0.44445 0.0
C469 C 0.61727 0.56422 0.46948 0.0
C470 C 0.62114 0.57998 0.50253 0.0
C471 C 0.65544 0.61119 0.51044 0.0
H472 H 0.2799 0.33036 0.18223 0.0
H473 H 0.35479 0.35304 0.0921 0.0
H474 H 0.30698 0.37804 0.06321 0.0
H475 H 0.185 0.30093 0.13852 0.0
H476 H 0.16141 0.32148 0.16907 0.0
H477 H 0.20188 0.30618 0.18242 0.0
H478 H 0.24181 0.37138 0.20596 0.0
H479 H 0.20135 0.38682 0.19291 0.0
H480 H 0.25186 0.41071 0.17823 0.0
H481 H 0.25007 0.40059 0.04466 0.0
H482 H 0.18973 0.41877 1.0382 0.0
H483 H 0.15361 0.38041 0.141 0.0
C484 C 0.28651 0.34067 0.15646 0.0
C485 C 0.32114 0.33991 0.13933 0.0
C486 C 0.32841 0.35354 0.1056 0.0
C487 C 0.30144 0.36769 0.08904 0.0
C488 C 0.26739 0.36782 0.10665 0.0
C489 C 0.25998 0.35466 0.13964 0.0
C490 C 0.2213 0.35755 0.15309 0.0
C491 C 0.19059 0.31926 0.16124 0.0
C492 C 0.2296 0.38315 0.18439 0.0
C493 C 0.20799 0.37448 0.12257 0.0
C494 C 0.23485 0.38028 0.09598 0.0
C495 C 0.22885 0.39612 0.06533 0.0
C496 C 0.19461 0.40646 0.06192 0.0
C497 C 0.16684 0.40076 0.089 0.0
C498 C 0.1738 0.38447 0.11958 0.0
H499 H 0.59662 0.25413 0.88698 0.0
H500 H 0.662 0.31568 0.97487 0.0
H501 H 0.64208 0.25929 1.00862 0.0
H502 H 0.5113 0.1973 0.93961 0.0
H503 H 0.50151 0.15672 0.91359 0.0
H504 H 0.5228 0.20176 0.89475 0.0
H505 H 0.58253 0.18441 0.87248 0.0
H506 H 0.56169 0.13952 0.89169 0.0
H507 H 0.61243 0.16882 0.90221 0.0
H508 H 0.6209 0.19528 1.03242 0.0
H509 H 0.58588 0.13034 0.04865 0.0
H510 H 0.52378 0.11005 0.95069 0.0
C511 C 0.60655 0.25594 0.91335 0.0
C512 C 0.63312 0.28979 0.92718 0.0
C513 C 0.64403 0.29031 0.96237 0.0
C514 C 0.63246 0.25823 0.9822 0.0
C515 C 0.60819 0.22533 0.96742 0.0
C516 C 0.59397 0.22402 0.93425 0.0
C517 C 0.56535 0.18516 0.92596 0.0
C518 C 0.52271 0.18525 0.91801 0.0
C519 C 0.58147 0.1685 0.89632 0.0
C520 C 0.56643 0.16512 0.95941 0.0
C521 C 0.59218 0.1888 0.98264 0.0
C522 C 0.60008 0.17661 1.01464 0.0
C523 C 0.58027 0.13953 1.02361 0.0
C524 C 0.55195 0.1151 1.00112 0.0
C525 C 0.54518 0.12816 0.96849 0.0
H526 H 0.86088 0.81412 0.41295 0.0
H527 H 0.96602 0.78083 0.4074 0.0
H528 H 1.00666 0.83785 0.43693 0.0
H529 H 0.91368 0.91164 0.39946 0.0
H530 H 0.8838 0.92637 0.42922 0.0
H531 H 0.86223 0.88289 0.40741 0.0
H532 H 0.84403 0.8496 0.46553 0.0
H533 H 0.86564 0.89298 0.48753 0.0
H534 H 0.88305 0.85546 0.4973 0.0
H535 H 0.03599 0.89685 0.46807 0.0
H536 H 0.05352 0.95629 0.49759 0.0
H537 H 0.93086 0.95451 0.48339 0.0
C538 C 0.89244 0.8188 0.41802 0.0
C539 C 0.91021 0.79284 0.4074 0.0
C540 C 0.95171 0.80034 0.41449 0.0
C541 C 0.97506 0.83261 0.43156 0.0
C542 C 0.95672 0.85747 0.44156 0.0
C543 C 0.91643 0.85118 0.43504 0.0
C544 C 0.90462 0.8829 0.44861 0.0
C545 C 0.89023 0.90209 0.41943 0.0
C546 C 0.87242 0.86942 0.47639 0.0
C547 C 0.94464 0.90792 0.46366 0.0
C548 C 0.97405 0.89234 0.45936 0.0
C549 C 0.01328 0.90941 0.47139 0.0
C550 C 0.02294 0.94332 0.48814 0.0
C551 C 0.99372 0.96034 0.49273 0.0
C552 C 0.9539 0.94229 0.48026 0.0
H553 H 0.26609 0.73501 0.72246 0.0
H554 H 0.22451 0.76451 0.62562 0.0
H555 H 0.26863 0.73805 0.59511 0.0
H556 H 0.36894 0.75961 0.69851 0.0
H557 H 0.37725 0.72269 0.7219 0.0
H558 H 0.33999 0.7413 0.73615 0.0
H559 H 0.28543 0.67609 0.73404 0.0
H560 H 0.32255 0.65727 0.71979 0.0
H561 H 0.27714 0.64982 0.69499 0.0
H562 H 0.31895 0.71029 0.57504 0.0
H563 H 0.37352 0.68496 0.56709 0.0
H564 H 0.38419 0.67594 0.67694 0.0
C565 C 0.26622 0.73599 0.69484 0.0
C566 C 0.24139 0.75157 0.67652 0.0
C567 C 0.24242 0.75198 0.64032 0.0
C568 C 0.26763 0.73724 0.62271 0.0
C569 C 0.29183 0.72236 0.6416 0.0
C570 C 0.29146 0.72174 0.67685 0.0
C571 C 0.32169 0.70561 0.69111 0.0
C572 C 0.35387 0.734 0.71322 0.0
C573 C 0.30042 0.67008 0.71116 0.0
C574 C 0.3394 0.6976 0.65835 0.0
C575 C 0.32151 0.70714 0.63006 0.0
C576 C 0.33307 0.70256 0.59699 0.0
C577 C 0.36393 0.68802 0.59272 0.0
C578 C 0.38303 0.6785 0.62138 0.0
C579 C 0.37036 0.68326 0.65457 0.0
H580 H 0.70534 0.85322 0.8219 0.0
H581 H 0.66279 0.73657 0.79794 0.0
H582 H 0.70108 0.75012 0.74396 0.0
H583 H 0.70039 0.88569 0.73693 0.0
H584 H 0.74543 0.92558 0.742 0.0
H585 H 0.71488 0.90621 0.77849 0.0
H586 H 0.77727 0.89968 0.80943 0.0
H587 H 0.80796 0.91877 0.7729 0.0
H588 H 0.80514 0.87437 0.78918 0.0
H589 H 0.74304 0.77721 0.69187 0.0
H590 H 0.78555 0.81538 0.64633 0.0
H591 H 0.80017 0.91381 0.70556 0.0
C592 C 0.70368 0.83053 0.80512 0.0
C593 C 0.68082 0.79388 0.81383 0.0
C594 C 0.68019 0.76485 0.79164 0.0
C595 C 0.70176 0.7723 0.76099 0.0
C596 C 0.724 0.80885 0.75318 0.0
C597 C 0.72514 0.83744 0.77469 0.0
C598 C 0.75132 0.87427 0.76066 0.0
C599 C 0.72652 0.8994 0.75412 0.0
C600 C 0.78757 0.89285 0.78446 0.0
C601 C 0.7645 0.86206 0.72764 0.0
C602 C 0.74852 0.82425 0.72373 0.0
C603 C 0.75582 0.80682 0.69474 0.0
C604 C 0.77985 0.82869 0.669 0.0
C605 C 0.79632 0.86749 0.67254 0.0
C606 C 0.78863 0.88418 0.7024 0.0
H607 H 0.86765 0.29313 0.26588 0.0
H608 H 0.78494 0.35301 0.28104 0.0
H609 H 0.75542 0.33321 0.22533 0.0
H610 H 0.87013 0.2946 0.16951 0.0
H611 H 0.86703 0.24716 0.16814 0.0
H612 H 0.89267 0.27627 0.20324 0.0
H613 H 0.84687 0.22947 0.24599 0.0
H614 H 0.82129 0.20039 0.21118 0.0
H615 H 0.79285 0.21606 0.24159 0.0
H616 H 0.72437 0.29792 0.17419 0.0
H617 H 0.69127 0.24603 0.13541 0.0
H618 H 0.78503 0.20057 0.15793 0.0
C619 C 0.84372 0.30271 0.2578 0.0
C620 C 0.82951 0.32518 0.27904 0.0
C621 C 0.79831 0.33707 0.26595 0.0
C622 C 0.78071 0.32566 0.23388 0.0
C623 C 0.7937 0.30168 0.21496 0.0
C624 C 0.82435 0.29008 0.22653 0.0
C625 C 0.82682 0.25834 0.20514 0.0
C626 C 0.86653 0.26979 0.18532 0.0
C627 C 0.82161 0.22406 0.22729 0.0
C628 C 0.79113 0.2525 0.18123 0.0
C629 C 0.77357 0.27883 0.1864 0.0
C630 C 0.73815 0.27742 0.16956 0.0
C631 C 0.71933 0.24761 0.14784 0.0
C632 C 0.73532 0.21901 0.14382 0.0
C633 C 0.77247 0.22231 0.15985 0.0
H634 H 0.49836 0.68366 0.35094 0.0
H635 H 0.36796 0.6345 0.3451 0.0
H636 H 0.36862 0.59637 0.39544 0.0
H637 H 0.51577 0.60038 0.37451 0.0
H638 H 0.55739 0.62264 0.40308 0.0
H639 H 0.54685 0.64777 0.36767 0.0
H640 H 0.54207 0.69786 0.4093 0.0
H641 H 0.55236 0.67269 0.44485 0.0
H642 H 0.50753 0.68483 0.44448 0.0
H643 H 0.38301 0.56104 0.44519 0.0
H644 H 0.41052 0.52958 0.48881 0.0
H645 H 0.5318 0.60026 0.46412 0.0
C646 C 0.46994 0.66508 0.36047 0.0
C647 C 0.43304 0.66236 0.34379 0.0
C648 C 0.39665 0.6373 0.35704 0.0
C649 C 0.3967 0.6155 0.38586 0.0
C650 C 0.43341 0.61867 0.40155 0.0
C651 C 0.46947 0.64271 0.38928 0.0
C652 C 0.5048 0.63937 0.41017 0.0
C653 C 0.53286 0.62679 0.38751 0.0
C654 C 0.52807 0.67587 0.42827 0.0
C655 C 0.483 0.60962 0.43587 0.0
C656 C 0.44175 0.5983 0.43048 0.0
C657 C 0.41521 0.57006 0.44984 0.0
C658 C 0.43107 0.55244 0.47476 0.0
C659 C 0.47313 0.56311 0.48066 0.0
C660 C 0.49942 0.59237 0.46105 0.0
H661 H 0.16326 0.41893 0.87008 0.0
H662 H 0.08987 0.43871 0.78818 0.0
H663 H 0.06284 0.47369 0.82793 0.0
H664 H 0.0866 0.40415 0.93536 0.0
H665 H 0.12215 0.42563 0.96899 0.0
H666 H 0.13733 0.40356 0.93391 0.0
H667 H 0.19643 0.46401 0.92157 0.0
H668 H 0.18123 0.48624 0.95653 0.0
H669 H 0.18614 0.50592 0.91435 0.0
H670 H 0.04588 0.50869 0.87556 0.0
H671 H 0.03315 0.53513 0.92939 0.0
H672 H 0.11202 0.48849 0.98335 0.0
C673 C 0.14154 0.43074 0.86061 0.0
C674 C 0.12882 0.4263 0.8259 0.0
C675 C 0.09998 0.44169 0.81456 0.0
C676 C 0.0846 0.46175 0.83697 0.0
C677 C 0.0977 0.46568 0.87096 0.0
C678 C 0.12496 0.45009 0.88299 0.0
C679 C 0.1322 0.45692 0.92125 0.0
C680 C 0.11876 0.42039 0.94104 0.0
C681 C 0.17665 0.47963 0.92886 0.0
C682 C 0.10501 0.47903 0.9287 0.0
C683 C 0.08598 0.48418 0.8991 0.0
C684 C 0.0604 0.5046 0.89892 0.0
C685 C 0.05356 0.51975 0.92973 0.0
C686 C 0.07157 0.51408 0.96079 0.0
C687 C 0.09771 0.49332 0.96014 0.0
H688 H 0.64641 0.85135 0.944 0.0
H689 H 0.55598 0.81803 0.86347 0.0
H690 H 0.52627 0.86351 0.88408 0.0
H691 H 0.58418 0.86644 1.00928 0.0
H692 H 0.62314 0.90631 1.02658 0.0
H693 H 0.63646 0.87097 1.00545 0.0
H694 H 0.68234 0.91983 0.96426 0.0
H695 H 0.66891 0.95529 0.98514 0.0
H696 H 0.66132 0.94841 0.93973 0.0
H697 H 0.50468 0.91027 0.91589 0.0
H698 H 0.49478 0.95689 0.95449 0.0
H699 H 0.60275 0.96223 1.01123 0.0
C700 C 0.62019 0.85357 0.93092 0.0
C701 C 0.60295 0.83113 0.90254 0.0
C702 C 0.56924 0.83504 0.88544 0.0
C703 C 0.55231 0.86072 0.89693 0.0
C704 C 0.57007 0.88256 0.92507 0.0
C705 C 0.60349 0.87946 0.94162 0.0
C706 C 0.61735 0.90652 0.97083 0.0
C707 C 0.61513 0.88635 1.00505 0.0
C708 C 0.66001 0.93415 0.9646 0.0
C709 C 0.58612 0.92499 0.96856 0.0
C710 C 0.55896 0.9107 0.94213 0.0
C711 C 0.52608 0.92203 0.93635 0.0
C712 C 0.52068 0.94843 0.95836 0.0
C713 C 0.54836 0.96346 0.98543 0.0
C714 C 0.58168 0.95184 0.99024 0.0
H715 H 0.96982 0.25051 0.39121 0.0
H716 H 0.83912 0.20671 0.39168 0.0
H717 H 0.84089 0.14906 0.41766 0.0
H718 H 0.98747 0.1632 0.37646 0.0
H719 H 0.02977 0.17474 0.40571 0.0
H720 H 0.01863 0.21069 0.383 0.0
H721 H 0.01511 0.2426 0.44036 0.0
H722 H 0.02637 0.20686 0.46314 0.0
H723 H 0.98155 0.21684 0.47307 0.0
H724 H 0.85634 0.0978 0.44534 0.0
H725 H 0.88391 0.0583 0.47917 0.0
H726 H 1.00506 0.13669 0.46515 0.0
C727 C 0.94171 0.2284 0.39631 0.0
C728 C 0.90432 0.2326 0.38928 0.0
C729 C 0.868 0.20377 0.39694 0.0
C730 C 0.86873 0.17092 0.41144 0.0
C731 C 0.90605 0.16766 0.4185 0.0
C732 C 0.94193 0.19573 0.41163 0.0
C733 C 0.97772 0.18657 0.42512 0.0
C734 C 1.005 0.18362 0.39582 0.0
C735 C 1.00157 0.2149 0.45202 0.0
C736 C 0.95625 0.14926 0.44107 0.0
C737 C 0.91501 0.13861 0.43623 0.0
C738 C 0.8886 0.10572 0.44921 0.0
C739 C 0.90463 0.08343 0.46837 0.0
C740 C 0.94668 0.09437 0.47487 0.0
C741 C 0.97282 0.12749 0.46053 0.0
H742 H 0.31726 0.68781 0.14531 0.0
H743 H 0.27133 0.63618 0.24226 0.0
H744 H 0.2073 0.6006 0.21423 0.0
H745 H 0.22453 0.69859 0.11856 0.0
H746 H 0.23029 0.68988 0.07409 0.0
H747 H 0.2742 0.70934 0.10097 0.0
H748 H 0.29913 0.65626 0.08424 0.0
H749 H 0.25514 0.63652 0.05743 0.0
H750 H 0.26664 0.60922 0.09058 0.0
H751 H 0.14703 0.57137 0.17658 0.0
H752 H 0.0933 0.55387 0.13262 0.0
H753 H 0.17517 0.62628 0.06009 0.0
C754 C 0.29385 0.66912 0.16081 0.0
C755 C 0.30033 0.66462 0.1962 0.0
C756 C 0.26834 0.63959 0.21507 0.0
C757 C 0.23143 0.61931 0.19938 0.0
C758 C 0.22626 0.62437 0.16467 0.0
C759 C 0.2564 0.64887 0.1456 0.0
C760 C 0.24201 0.65041 0.10904 0.0
C761 C 0.2428 0.68937 0.10015 0.0
C762 C 0.26724 0.63732 0.08383 0.0
C763 C 0.199 0.62323 0.11071 0.0
C764 C 0.19082 0.60825 0.14301 0.0
C765 C 0.15314 0.58286 0.15117 0.0
C766 C 0.12278 0.57296 0.12593 0.0
C767 C 0.12991 0.58853 0.09281 0.0
C768 C 0.1688 0.61372 0.08508 0.0
H769 H 0.25873 0.41733 0.71773 0.0
H770 H 0.17991 0.377 0.62981 0.0
H771 H 0.23574 0.40883 0.59155 0.0
H772 H 0.31542 0.50855 0.68048 0.0
H773 H 0.36279 0.51022 0.69929 0.0
H774 H 0.31615 0.48566 0.72048 0.0
H775 H 0.33493 0.42669 0.72133 0.0
H776 H 0.38155 0.45104 0.70016 0.0
H777 H 0.34694 0.40917 0.68185 0.0
H778 H 0.30066 0.43991 0.56222 0.0
H779 H 0.37101 0.4713 0.54381 0.0
H780 H 0.40869 0.49593 0.64927 0.0
C781 C 0.25312 0.41564 0.69046 0.0
C782 C 0.21484 0.39391 0.67694 0.0
C783 C 0.20901 0.39248 0.64098 0.0
C784 C 0.24052 0.41081 0.61892 0.0
C785 C 0.27793 0.43117 0.63293 0.0
C786 C 0.28444 0.43412 0.66784 0.0
C787 C 0.32815 0.45723 0.67587 0.0
C788 C 0.33077 0.49251 0.69517 0.0
C789 C 0.34912 0.43468 0.69599 0.0
C790 C 0.34516 0.46601 0.64007 0.0
C791 C 0.31548 0.45065 0.61575 0.0
C792 C 0.32402 0.45266 0.58097 0.0
C793 C 0.36398 0.4705 0.57072 0.0
C794 C 0.39487 0.48661 0.59503 0.0
C795 C 0.38529 0.48469 0.63015 0.0
H796 H 0.71527 0.66222 0.90056 0.0
H797 H 0.69046 0.72546 0.98308 0.0
H798 H 0.74714 0.71868 1.01655 0.0
H799 H 0.74842 0.59885 0.95429 0.0
H800 H 0.7871 0.59905 0.92463 0.0
H801 H 0.74146 0.60491 0.90931 0.0
H802 H 0.78398 0.66596 0.88003 0.0
H803 H 0.82966 0.6605 0.89551 0.0
H804 H 0.81949 0.70191 0.90519 0.0
H805 H 0.81034 0.70953 1.03877 0.0
H806 H 0.87493 0.69893 0.04762 0.0
H807 H 0.85817 0.64239 0.95012 0.0
C808 C 0.72122 0.67384 0.92602 0.0
C809 C 0.69852 0.69414 0.93935 0.0
C810 C 0.7075 0.70967 0.97245 0.0
C811 C 0.73956 0.7059 0.99167 0.0
C812 C 0.76213 0.68648 0.9774 0.0
C813 C 0.7532 0.67054 0.94538 0.0
C814 C 0.78382 0.65354 0.93471 0.0
C815 C 0.76401 0.61159 0.9305 0.0
C816 C 0.80551 0.67157 0.90193 0.0
C817 C 0.81196 0.66322 0.9653 0.0
C818 C 0.79875 0.68179 0.98988 0.0
C819 C 0.82074 0.69465 1.01986 0.0
C820 C 0.85731 0.6885 1.02469 0.0
C821 C 0.87158 0.67004 0.99948 0.0
C822 C 0.84824 0.65696 0.96967 0.0
H823 H 0.46053 0.77536 0.1784 0.0
H824 H 0.37249 0.80104 0.23953 0.0
H825 H 0.39328 0.86334 0.21397 0.0
H826 H 0.53902 0.86832 0.18202 0.0
H827 H 0.55434 0.86599 0.1386 0.0
H828 H 0.53407 0.82443 0.1633 0.0
H829 H 0.48005 0.79693 0.11624 0.0
H830 H 0.49973 0.83864 0.09169 0.0
H831 H 0.44731 0.82153 0.10337 0.0
H832 H 0.41964 0.92138 0.17748 0.0
H833 H 0.45533 0.97287 0.13877 0.0
H834 H 0.52878 0.91131 0.10291 0.0
C835 C 0.44664 0.7946 0.18715 0.0
C836 C 0.41556 0.78367 0.21171 0.0
C837 C 0.39701 0.80915 0.22149 0.0
C838 C 0.40839 0.84449 0.20681 0.0
C839 C 0.43853 0.85426 0.1822 0.0
C840 C 0.45792 0.83027 0.17284 0.0
C841 C 0.48893 0.84748 0.14537 0.0
C842 C 0.53163 0.85182 0.15809 0.0
C843 C 0.47836 0.82479 0.11221 0.0
C844 C 0.48398 0.88476 0.14076 0.0
C845 C 0.45433 0.88793 0.16191 0.0
C846 C 0.44324 0.91928 0.16116 0.0
C847 C 0.46351 0.94837 0.1389 0.0
C848 C 0.49503 0.94636 0.11791 0.0
C849 C 0.50502 0.91386 0.11881 0.0
H850 H 0.13691 0.25854 0.67787 0.0
H851 H 0.03709 0.29579 0.69945 0.0
H852 H 0.98986 0.23914 0.67336 0.0
H853 H 0.10007 0.21779 0.59604 0.0
H854 H 0.11704 0.17926 0.60156 0.0
H855 H 0.14339 0.22231 0.62275 0.0
H856 H 0.13336 0.18887 0.68105 0.0
H857 H 0.10711 0.1457 0.66002 0.0
H858 H 0.08322 0.1613 0.69416 0.0
H859 H 0.95342 0.17999 0.6424 0.0
H860 H 0.92983 0.12073 0.61146 0.0
H861 H 0.05212 0.1197 0.61064 0.0
C862 C 0.10511 0.25478 0.67716 0.0
C863 C 0.09088 0.28183 0.69108 0.0
C864 C 0.04889 0.27546 0.68967 0.0
C865 C 0.02176 0.2434 0.6746 0.0
C866 C 0.03679 0.21756 0.66101 0.0
C867 C 0.07744 0.22269 0.66231 0.0
C868 C 0.08552 0.19041 0.64572 0.0
C869 C 0.11315 0.20322 0.61468 0.0
C870 C 0.10336 0.17039 0.6718 0.0
C871 C 0.0431 0.16647 0.63479 0.0
C872 C 0.01555 0.18287 0.64372 0.0
C873 C 0.9747 0.16678 0.63554 0.0
C874 C 0.96157 0.13308 0.6179 0.0
C875 C 0.98899 0.11539 0.60876 0.0
C876 C 0.03036 0.13239 0.61746 0.0
H877 H 0.76243 0.36678 0.35465 0.0
H878 H 0.85488 0.3914 0.43384 0.0
H879 H 0.81293 0.41509 0.47058 0.0
H880 H 0.73027 0.44761 0.37131 0.0
H881 H 0.67827 0.42086 0.36207 0.0
H882 H 0.718 0.41061 0.34063 0.0
H883 H 0.68809 0.34304 0.36137 0.0
H884 H 0.64872 0.35311 0.3833 0.0
H885 H 0.68099 0.33378 0.40642 0.0
H886 H 0.75706 0.42768 0.50126 0.0
H887 H 0.69327 0.43237 0.52225 0.0
H888 H 0.6388 0.402 0.42204 0.0
C889 C 0.77473 0.37851 0.37915 0.0
C890 C 0.81215 0.37741 0.39125 0.0
C891 C 0.82627 0.3918 0.42406 0.0
C892 C 0.80274 0.40547 0.44503 0.0
C893 C 0.76544 0.40499 0.43264 0.0
C894 C 0.75182 0.39243 0.40023 0.0
C895 C 0.70946 0.39233 0.39382 0.0
C896 C 0.70899 0.41948 0.36527 0.0
C897 C 0.68011 0.35325 0.38577 0.0
C898 C 0.70078 0.40562 0.42811 0.0
C899 C 0.73352 0.41295 0.45011 0.0
C900 C 0.73155 0.42273 0.48407 0.0
C901 C 0.6952 0.42506 0.49581 0.0
C902 C 0.66143 0.41774 0.47363 0.0
C903 C 0.66448 0.40836 0.43928 0.0
loop_
_geom_bond_atom_site_label_1
_geom_bond_atom_site_label_2
_geom_bond_distance
_geom_bond_site_symmetry_2
_ccdc_geom_bond_type
H0 C5 0.930 . S
H1 C8 0.930 . S
H2 C10 0.930 . S
H3 C4 1.016 . S
C4 H3 1.016 . S
C4 N11 1.286 . S
C5 H0 0.930 . S
C5 C6 1.397 . S
C5 C7 1.361 . S
C6 C5 1.397 . S
C6 C10 1.390 . S
C7 C5 1.361 . S
C7 C8 1.393 . S
C7 N11 1.413 . S
C8 H1 0.930 . S
C8 C7 1.393 . S
C8 C9 1.399 . S
C9 C8 1.399 . S
C9 C10 1.381 . S
C10 H2 0.930 . S
C10 C6 1.390 . S
C10 C9 1.381 . S
N11 C4 1.286 . S
N11 C7 1.413 . S
H12 C17 0.930 . S
H13 C20 0.930 . S
H14 C22 0.930 . S
H15 C16 1.016 . S
C16 H15 1.016 . S
C16 N23 1.286 . S
C17 H12 0.930 . S
C17 C18 1.397 . S
C17 C19 1.361 . S
C18 C17 1.397 . S
C18 C22 1.390 . S
C19 C17 1.361 . S
C19 C20 1.393 . S
C19 N23 1.413 . S
C20 H13 0.930 . S
C20 C19 1.393 . S
C20 C21 1.399 . S
C21 C20 1.399 . S
C21 C22 1.381 . S
C22 H14 0.930 . S
C22 C18 1.390 . S
C22 C21 1.381 . S
N23 C16 1.286 . S
N23 C19 1.413 . S
H24 C29 0.930 . S
H25 C32 0.930 . S
H26 C34 0.930 . S
H27 C28 1.016 . S
C28 H27 1.016 . S
C28 N35 1.286 . S
C29 H24 0.930 . S
C29 C30 1.397 . S
C29 C31 1.361 . S
C30 C29 1.397 . S
C30 C34 1.390 . S
C31 C29 1.361 . S
C31 C32 1.393 . S
C31 N35 1.413 . S
C32 H25 0.930 . S
C32 C31 1.393 . S
C32 C33 1.399 . S
C33 C32 1.399 . S
C33 C34 1.381 . S
C34 H26 0.930 . S
C34 C30 1.390 . S
C34 C33 1.381 . S
N35 C28 1.286 . S
N35 C31 1.413 . S
H36 C41 0.930 . S
H37 C44 0.930 . S
H38 C46 0.930 . S
H39 C40 1.016 . S
C40 H39 1.016 . S
C40 N47 1.286 . S
C41 H36 0.930 . S
C41 C42 1.397 . S
C41 C43 1.361 . S
C42 C41 1.397 . S
C42 C46 1.390 . S
C43 C41 1.361 . S
C43 C44 1.393 . S
C43 N47 1.413 . S
C44 H37 0.930 . S
C44 C43 1.393 . S
C44 C45 1.399 . S
C45 C44 1.399 . S
C45 C46 1.381 . S
C46 H38 0.930 . S
C46 C42 1.390 . S
C46 C45 1.381 . S
N47 C40 1.286 . S
N47 C43 1.413 . S
H48 C53 0.930 . S
H49 C56 0.930 . S
H50 C58 0.930 . S
H51 C52 1.016 . S
C52 H51 1.016 . S
C52 N59 1.286 . S
C53 H48 0.930 . S
C53 C54 1.397 . S
C53 C55 1.361 . S
C54 C53 1.397 . S
C54 C58 1.390 . S
C55 C53 1.361 . S
C55 C56 1.393 . S
C55 N59 1.413 . S
C56 H49 0.930 . S
C56 C55 1.393 . S
C56 C57 1.399 . S
C57 C56 1.399 . S
C57 C58 1.381 . S
C58 H50 0.930 . S
C58 C54 1.390 . S
C58 C57 1.381 . S
N59 C52 1.286 . S
N59 C55 1.413 . S
H60 C65 0.930 . S
H61 C68 0.930 . S
H62 C70 0.930 . S
H63 C64 1.016 . S
C64 H63 1.016 . S
C64 N71 1.286 . S
C65 H60 0.930 . S
C65 C66 1.397 . S
C65 C67 1.361 . S
C66 C65 1.397 . S
C66 C70 1.390 . S
C67 C65 1.361 . S
C67 C68 1.393 . S
C67 N71 1.413 . S
C68 H61 0.930 . S
C68 C67 1.393 . S
C68 C69 1.399 . S
C69 C68 1.399 . S
C69 C70 1.381 . S
C70 H62 0.930 . S
C70 C66 1.390 . S
C70 C69 1.381 . S
N71 C64 1.286 . S
N71 C67 1.413 . S
H72 C77 0.930 . S
H73 C80 0.930 . S
H74 C82 0.930 . S
H75 C76 1.016 . S
C76 H75 1.016 . S
C76 N83 1.286 . S
C77 H72 0.930 . S
C77 C78 1.397 . S
C77 C79 1.361 . S
C78 C77 1.397 . S
C78 C82 1.390 . S
C79 C77 1.361 . S
C79 C80 1.393 . S
C79 N83 1.413 . S
C80 H73 0.930 . S
C80 C79 1.393 . S
C80 C81 1.399 . S
C81 C80 1.399 . S
C81 C82 1.381 . S
C82 H74 0.930 . S
C82 C78 1.390 . S
C82 C81 1.381 . S
N83 C76 1.286 . S
N83 C79 1.413 . S
H84 C89 0.930 . S
H85 C92 0.930 . S
H86 C94 0.930 . S
H87 C88 1.016 . S
C88 H87 1.016 . S
C88 N95 1.286 . S
C89 H84 0.930 . S
C89 C90 1.397 . S
C89 C91 1.361 . S
C90 C89 1.397 . S
C90 C94 1.390 . S
C91 C89 1.361 . S
C91 C92 1.393 . S
C91 N95 1.413 . S
C92 H85 0.930 . S
C92 C91 1.393 . S
C92 C93 1.399 . S
C93 C92 1.399 . S
C93 C94 1.381 . S
C94 H86 0.930 . S
C94 C90 1.390 . S
C94 C93 1.381 . S
N95 C88 1.286 . S
N95 C91 1.413 . S
Tb96 C98 2.790 1_545 S
Tb96 O116 2.456 1_545 S
Tb96 O117 2.435 1_545 S
Tb96 O118 2.668 1_655 S
Tb96 O119 2.428 . S
Tb96 O120 2.357 1_545 S
Tb96 O124 2.304 1_545 S
Tb96 O127 2.363 . S
Tb97 C107 2.809 . S
Tb97 O118 2.325 . S
Tb97 O121 2.341 1_545 S
Tb97 O122 2.484 . S
Tb97 O123 2.440 . S
Tb97 O124 2.658 1_445 S
Tb97 O125 2.409 1_545 S
Tb97 O126 2.378 . S
C98 Tb96 2.790 1_565 S
C98 C99 1.514 . S
C98 O116 1.248 . S
C98 O117 1.266 . S
C99 C98 1.514 . S
C99 C100 1.359 . S
C99 C104 1.348 . S
C100 C99 1.359 . S
C100 C101 1.380 . S
C100 H128 0.929 . S
C101 C100 1.380 . S
C101 C102 1.347 . S
C101 H129 0.931 . S
C102 C101 1.347 . S
C102 C103 1.369 . S
C103 C102 1.369 . S
C103 C104 1.408 . S
C103 H130 0.930 . S
C104 C99 1.348 . S
C104 C103 1.408 . S
C104 H131 0.930 . S
C105 O118 1.281 . S
C105 O119 1.254 1_455 S
C106 O120 1.236 1_455 S
C106 O121 1.266 . S
C107 Tb97 2.809 . S
C107 C108 1.514 . S
C107 O122 1.248 . S
C107 O123 1.266 . S
C108 C107 1.514 . S
C108 C109 1.359 . S
C108 C113 1.348 . S
C109 C108 1.359 . S
C109 C110 1.380 . S
C109 H132 0.929 . S
C110 C109 1.380 . S
C110 C111 1.347 . S
C110 H133 0.931 . S
C111 C110 1.347 . S
C111 C112 1.369 . S
C112 C111 1.369 . S
C112 C113 1.408 . S
C112 H134 0.930 . S
C113 C108 1.348 . S
C113 C112 1.408 . S
C113 H135 0.930 . S
C114 O124 1.281 . S
C114 O125 1.254 1_655 S
C115 O126 1.236 1_655 S
C115 O127 1.266 . S
O116 Tb96 2.456 1_565 S
O116 C98 1.248 . S
O117 Tb96 2.435 1_565 S
O117 C98 1.266 . S
O118 Tb96 2.668 1_455 S
O118 Tb97 2.325 . S
O118 C105 1.281 . S
O119 Tb96 2.428 . S
O119 C105 1.254 1_655 S
O120 Tb96 2.357 1_565 S
O120 C106 1.236 1_655 S
O121 Tb97 2.341 1_565 S
O121 C106 1.266 . S
O122 Tb97 2.484 . S
O122 C107 1.248 . S
O123 Tb97 2.440 . S
O123 C107 1.266 . S
O124 Tb96 2.304 1_565 S
O124 Tb97 2.658 1_665 S
O124 C114 1.281 . S
O125 Tb97 2.409 1_565 S
O125 C114 1.254 1_455 S
O126 Tb97 2.378 . S
O126 C115 1.236 1_455 S
O127 Tb96 2.363 . S
O127 C115 1.266 . S
H128 C100 0.929 . S
H129 C101 0.931 . S
H130 C103 0.930 . S
H131 C104 0.930 . S
H132 C109 0.929 . S
H133 C110 0.931 . S
H134 C112 0.930 . S
H135 C113 0.930 . S
Tb136 C138 2.809 . S
Tb136 O156 2.484 . S
Tb136 O157 2.440 . S
Tb136 O158 2.658 1_545 S
Tb136 O159 2.409 1_545 S
Tb136 O160 2.378 . S
Tb136 O164 2.325 1_554 S
Tb136 O167 2.341 1_544 S
Tb137 C147 2.809 1_545 S
Tb137 O158 2.325 1_546 S
Tb137 O161 2.341 1_556 S
Tb137 O162 2.484 1_545 S
Tb137 O163 2.440 1_545 S
Tb137 O164 2.658 . S
Tb137 O165 2.409 . S
Tb137 O166 2.378 1_545 S
C138 Tb136 2.809 . S
C138 C139 1.514 . S
C138 O156 1.248 . S
C138 O157 1.266 . S
C139 C138 1.514 . S
C139 C140 1.359 . S
C139 C144 1.348 . S
C140 C139 1.359 . S
C140 C141 1.380 . S
C140 H168 0.929 . S
C141 C140 1.380 . S
C141 C142 1.347 . S
C141 H169 0.931 . S
C142 C141 1.347 . S
C142 C143 1.369 . S
C143 C142 1.369 . S
C143 C144 1.408 . S
C143 H170 0.930 . S
C144 C139 1.348 . S
C144 C143 1.408 . S
C144 H171 0.930 . S
C145 O158 1.281 . S
C145 O159 1.254 . S
C146 O160 1.236 . S
C146 O161 1.266 . S
C147 Tb137 2.809 1_565 S
C147 C148 1.514 . S
C147 O162 1.248 . S
C147 O163 1.266 . S
C148 C147 1.514 . S
C148 C149 1.359 . S
C148 C153 1.348 . S
C149 C148 1.359 . S
C149 C150 1.380 . S
C149 H172 0.929 . S
C150 C149 1.380 . S
C150 C151 1.347 . S
C150 H173 0.931 . S
C151 C150 1.347 . S
C151 C152 1.369 . S
C152 C151 1.369 . S
C152 C153 1.408 . S
C152 H174 0.930 . S
C153 C148 1.348 . S
C153 C152 1.408 . S
C153 H175 0.930 . S
C154 O164 1.281 . S
C154 O165 1.254 . S
C155 O166 1.236 . S
C155 O167 1.266 . S
O156 Tb136 2.484 . S
O156 C138 1.248 . S
O157 Tb136 2.440 . S
O157 C138 1.266 . S
O158 Tb136 2.658 1_565 S
O158 Tb137 2.325 1_564 S
O158 C145 1.281 . S
O159 Tb136 2.409 1_565 S
O159 C145 1.254 . S
O160 Tb136 2.378 . S
O160 C146 1.236 . S
O161 Tb137 2.341 1_554 S
O161 C146 1.266 . S
O162 Tb137 2.484 1_565 S
O162 C147 1.248 . S
O163 Tb137 2.440 1_565 S
O163 C147 1.266 . S
O164 Tb136 2.325 1_556 S
O164 Tb137 2.658 . S
O164 C154 1.281 . S
O165 Tb137 2.409 . S
O165 C154 1.254 . S
O166 Tb137 2.378 1_565 S
O166 C155 1.236 . S
O167 Tb136 2.341 1_566 S
O167 C155 1.266 . S
H168 C140 0.929 . S
H169 C141 0.931 . S
H170 C143 0.930 . S
H171 C144 0.930 . S
H172 C149 0.929 . S
H173 C150 0.931 . S
H174 C152 0.930 . S
H175 C153 0.930 . S
Tb176 C178 2.809 . S
Tb176 O196 2.484 . S
Tb176 O197 2.440 . S
Tb176 O198 2.658 . S
Tb176 O199 2.409 . S
Tb176 O200 2.378 . S
Tb176 O204 2.325 . S
Tb176 O207 2.341 . S
Tb177 C187 2.809 . S
Tb177 O198 2.325 . S
Tb177 O201 2.341 . S
Tb177 O202 2.484 . S
Tb177 O203 2.440 . S
Tb177 O204 2.658 . S
Tb177 O205 2.409 . S
Tb177 O206 2.378 . S
C178 Tb176 2.809 . S
C178 C179 1.514 . S
C178 O196 1.248 . S
C178 O197 1.266 . S
C179 C178 1.514 . S
C179 C180 1.359 . S
C179 C184 1.348 . S
C180 C179 1.359 . S
C180 C181 1.380 . S
C180 H208 0.929 . S
C181 C180 1.380 . S
C181 C182 1.347 . S
C181 H209 0.931 . S
C182 C181 1.347 . S
C182 C183 1.369 . S
C183 C182 1.369 . S
C183 C184 1.408 . S
C183 H210 0.930 . S
C184 C179 1.348 . S
C184 C183 1.408 . S
C184 H211 0.930 . S
C185 O198 1.281 . S
C185 O199 1.254 . S
C186 O200 1.236 . S
C186 O201 1.266 . S
C187 Tb177 2.809 . S
C187 C188 1.514 . S
C187 O202 1.248 . S
C187 O203 1.266 . S
C188 C187 1.514 . S
C188 C189 1.359 . S
C188 C193 1.348 . S
C189 C188 1.359 . S
C189 C190 1.380 . S
C189 H212 0.929 . S
C190 C189 1.380 . S
C190 C191 1.347 . S
C190 H213 0.931 . S
C191 C190 1.347 . S
C191 C192 1.369 . S
C192 C191 1.369 . S
C192 C193 1.408 . S
C192 H214 0.930 . S
C193 C188 1.348 . S
C193 C192 1.408 . S
C193 H215 0.930 . S
C194 O204 1.281 . S
C194 O205 1.254 . S
C195 O206 1.236 . S
C195 O207 1.266 . S
O196 Tb176 2.484 . S
O196 C178 1.248 . S
O197 Tb176 2.440 . S
O197 C178 1.266 . S
O198 Tb176 2.658 . S
O198 Tb177 2.325 . S
O198 C185 1.281 . S
O199 Tb176 2.409 . S
O199 C185 1.254 . S
O200 Tb176 2.378 . S
O200 C186 1.236 . S
O201 Tb177 2.341 . S
O201 C186 1.266 . S
O202 Tb177 2.484 . S
O202 C187 1.248 . S
O203 Tb177 2.440 . S
O203 C187 1.266 . S
O204 Tb176 2.325 . S
O204 Tb177 2.658 . S
O204 C194 1.281 . S
O205 Tb177 2.409 . S
O205 C194 1.254 . S
O206 Tb177 2.378 . S
O206 C195 1.236 . S
O207 Tb176 2.341 . S
O207 C195 1.266 . S
H208 C180 0.929 . S
H209 C181 0.931 . S
H210 C183 0.930 . S
H211 C184 0.930 . S
H212 C189 0.929 . S
H213 C190 0.931 . S
H214 C192 0.930 . S
H215 C193 0.930 . S
Tb216 C218 2.809 1_455 S
Tb216 O236 2.484 1_455 S
Tb216 O237 2.440 . S
Tb216 O238 2.658 1_556 S
Tb216 O239 2.409 1_556 S
Tb216 O240 2.378 1_456 S
Tb216 O244 2.325 1_455 S
Tb216 O247 2.341 . S
Tb217 C227 2.809 . S
Tb217 O238 2.325 . S
Tb217 O241 2.341 1_455 S
Tb217 O242 2.484 . S
Tb217 O243 2.440 . S
Tb217 O244 2.658 1_454 S
Tb217 O245 2.409 1_454 S
Tb217 O246 2.378 1_554 S
C218 Tb216 2.809 1_655 S
C218 C219 1.514 . S
C218 O236 1.248 . S
C218 O237 1.266 1_655 S
C219 C218 1.514 . S
C219 C220 1.359 . S
C219 C224 1.348 . S
C220 C219 1.359 . S
C220 C221 1.380 . S
C220 H248 0.929 . S
C221 C220 1.380 . S
C221 C222 1.347 . S
C221 H249 0.931 . S
C222 C221 1.347 . S
C222 C223 1.369 . S
C223 C222 1.369 . S
C223 C224 1.408 . S
C223 H250 0.930 . S
C224 C219 1.348 . S
C224 C223 1.408 . S
C224 H251 0.939 . S
C225 O238 1.281 . S
C225 O239 1.254 . S
C226 O240 1.236 . S
C226 O241 1.266 . S
C227 Tb217 2.809 . S
C227 C228 1.514 . S
C227 O242 1.248 . S
C227 O243 1.266 . S
C228 C227 1.514 . S
C228 C229 1.359 . S
C228 C233 1.348 . S
C229 C228 1.359 . S
C229 C230 1.380 . S
C229 H252 0.929 . S
C230 C229 1.380 . S
C230 C231 1.347 . S
C230 H253 0.931 . S
C231 C230 1.347 . S
C231 C232 1.369 . S
C232 C231 1.369 . S
C232 C233 1.408 . S
C232 H254 0.930 . S
C233 C228 1.348 . S
C233 C232 1.408 . S
C233 H255 0.930 . S
C234 O244 1.281 . S
C234 O245 1.254 . S
C235 O246 1.236 . S
C235 O247 1.266 . S
O236 Tb216 2.484 1_655 S
O236 C218 1.248 . S
O237 Tb216 2.440 . S
O237 C218 1.266 1_455 S
O238 Tb216 2.658 1_554 S
O238 Tb217 2.325 . S
O238 C225 1.281 . S
O239 Tb216 2.409 1_554 S
O239 C225 1.254 . S
O240 Tb216 2.378 1_654 S
O240 C226 1.236 . S
O241 Tb217 2.341 1_655 S
O241 C226 1.266 . S
O242 Tb217 2.484 . S
O242 C227 1.248 . S
O243 Tb217 2.440 . S
O243 C227 1.266 . S
O244 Tb216 2.325 1_655 S
O244 Tb217 2.658 1_656 S
O244 C234 1.281 . S
O245 Tb217 2.409 1_656 S
O245 C234 1.254 . S
O246 Tb217 2.378 1_556 S
O246 C235 1.236 . S
O247 Tb216 2.341 . S
O247 C235 1.266 . S
H248 C220 0.929 . S
H249 C221 0.931 . S
H250 C223 0.930 . S
H251 C224 0.939 . S
H252 C229 0.929 . S
H253 C230 0.931 . S
H254 C232 0.930 . S
H255 C233 0.930 . S
H256 C268 0.930 . S
H257 C270 0.930 . S
H258 C271 0.930 . S
H259 C275 0.959 . S
H260 C275 0.959 . S
H261 C275 0.961 . S
H262 C276 0.960 . S
H263 C276 0.961 . S
H264 C276 0.959 . S
H265 C279 0.929 . S
H266 C280 0.931 . S
H267 C282 0.930 . S
C268 H256 0.930 . S
C268 C269 1.399 . S
C268 C273 1.399 . S
C269 C268 1.399 . S
C269 C270 1.376 . S
C270 H257 0.930 . S
C270 C269 1.376 . S
C270 C271 1.388 . S
C271 H258 0.930 . S
C271 C270 1.388 . S
C271 C272 1.390 . S
C272 C271 1.390 . S
C272 C273 1.394 . S
C272 C278 1.465 . S
C273 C268 1.399 . S
C273 C272 1.394 . S
C273 C274 1.516 . S
C274 C273 1.516 . S
C274 C275 1.502 . S
C274 C276 1.561 . S
C274 C277 1.526 . S
C275 H259 0.959 . S
C275 H260 0.959 . S
C275 H261 0.961 . S
C275 C274 1.502 . S
C276 H262 0.960 . S
C276 H263 0.961 . S
C276 H264 0.959 . S
C276 C274 1.561 . S
C277 C274 1.526 . S
C277 C278 1.396 . S
C277 C282 1.390 . S
C278 C272 1.465 . S
C278 C277 1.396 . S
C278 C279 1.399 . S
C279 H265 0.929 . S
C279 C278 1.399 . S
C279 C280 1.385 . S
C280 H266 0.931 . S
C280 C279 1.385 . S
C280 C281 1.389 . S
C281 C280 1.389 . S
C281 C282 1.387 . S
C282 H267 0.930 . S
C282 C277 1.390 . S
C282 C281 1.387 . S
H283 C295 0.930 . S
H284 C297 0.930 . S
H285 C298 0.930 . S
H286 C302 0.959 . S
H287 C302 0.959 . S
H288 C302 0.961 . S
H289 C303 0.960 . S
H290 C303 0.961 . S
H291 C303 0.959 . S
H292 C306 0.929 . S
H293 C307 0.931 . S
H294 C309 0.930 . S
C295 H283 0.930 . S
C295 C296 1.399 . S
C295 C300 1.399 . S
C296 C295 1.399 . S
C296 C297 1.376 . S
C297 H284 0.930 . S
C297 C296 1.376 . S
C297 C298 1.388 . S
C298 H285 0.930 . S
C298 C297 1.388 . S
C298 C299 1.390 . S
C299 C298 1.390 . S
C299 C300 1.394 . S
C299 C305 1.465 . S
C300 C295 1.399 . S
C300 C299 1.394 . S
C300 C301 1.516 . S
C301 C300 1.516 . S
C301 C302 1.502 . S
C301 C303 1.561 . S
C301 C304 1.526 . S
C302 H286 0.959 . S
C302 H287 0.959 . S
C302 H288 0.961 . S
C302 C301 1.502 . S
C303 H289 0.960 . S
C303 H290 0.961 . S
C303 H291 0.959 . S
C303 C301 1.561 . S
C304 C301 1.526 . S
C304 C305 1.396 . S
C304 C309 1.390 . S
C305 C299 1.465 . S
C305 C304 1.396 . S
C305 C306 1.399 . S
C306 H292 0.929 . S
C306 C305 1.399 . S
C306 C307 1.385 . S
C307 H293 0.931 . S
C307 C306 1.385 . S
C307 C308 1.389 . S
C308 C307 1.389 . S
C308 C309 1.387 . S
C309 H294 0.930 . S
C309 C304 1.390 . S
C309 C308 1.387 . S
H310 C322 0.930 . S
H311 C324 0.930 . S
H312 C325 0.930 . S
H313 C329 0.959 . S
H314 C329 0.959 . S
H315 C329 0.961 . S
H316 C330 0.960 . S
H317 C330 0.961 . S
H318 C330 0.959 . S
H319 C333 0.929 . S
H320 C334 0.931 . S
H321 C336 0.930 . S
C322 H310 0.930 . S
C322 C323 1.399 . S
C322 C327 1.399 . S
C323 C322 1.399 . S
C323 C324 1.376 . S
C324 H311 0.930 . S
C324 C323 1.376 . S
C324 C325 1.388 . S
C325 H312 0.930 . S
C325 C324 1.388 . S
C325 C326 1.390 . S
C326 C325 1.390 . S
C326 C327 1.394 . S
C326 C332 1.465 . S
C327 C322 1.399 . S
C327 C326 1.394 . S
C327 C328 1.516 . S
C328 C327 1.516 . S
C328 C329 1.502 . S
C328 C330 1.561 . S
C328 C331 1.526 . S
C329 H313 0.959 . S
C329 H314 0.959 . S
C329 H315 0.961 . S
C329 C328 1.502 . S
C330 H316 0.960 . S
C330 H317 0.961 . S
C330 H318 0.959 . S
C330 C328 1.561 . S
C331 C328 1.526 . S
C331 C332 1.396 . S
C331 C336 1.390 . S
C332 C326 1.465 . S
C332 C331 1.396 . S
C332 C333 1.399 . S
C333 H319 0.929 . S
C333 C332 1.399 . S
C333 C334 1.385 . S
C334 H320 0.931 . S
C334 C333 1.385 . S
C334 C335 1.389 . S
C335 C334 1.389 . S
C335 C336 1.387 . S
C336 H321 0.930 . S
C336 C331 1.390 . S
C336 C335 1.387 . S
H337 C349 0.930 . S
H338 C351 0.930 . S
H339 C352 0.930 . S
H340 C356 0.959 . S
H341 C356 0.959 . S
H342 C356 0.961 . S
H343 C357 0.960 . S
H344 C357 0.961 . S
H345 C357 0.959 . S
H346 C360 0.929 . S
H347 C361 0.931 . S
H348 C363 0.930 . S
C349 H337 0.930 . S
C349 C350 1.399 . S
C349 C354 1.399 . S
C350 C349 1.399 . S
C350 C351 1.376 . S
C351 H338 0.930 . S
C351 C350 1.376 . S
C351 C352 1.388 . S
C352 H339 0.930 . S
C352 C351 1.388 . S
C352 C353 1.390 . S
C353 C352 1.390 . S
C353 C354 1.394 . S
C353 C359 1.465 . S
C354 C349 1.399 . S
C354 C353 1.394 . S
C354 C355 1.516 . S
C355 C354 1.516 . S
C355 C356 1.502 . S
C355 C357 1.561 . S
C355 C358 1.526 . S
C356 H340 0.959 . S
C356 H341 0.959 . S
C356 H342 0.961 . S
C356 C355 1.502 . S
C357 H343 0.960 . S
C357 H344 0.961 . S
C357 H345 0.959 . S
C357 C355 1.561 . S
C358 C355 1.526 . S
C358 C359 1.396 . S
C358 C363 1.390 . S
C359 C353 1.465 . S
C359 C358 1.396 . S
C359 C360 1.399 . S
C360 H346 0.929 . S
C360 C359 1.399 . S
C360 C361 1.385 . S
C361 H347 0.931 . S
C361 C360 1.385 . S
C361 C362 1.389 . S
C362 C361 1.389 . S
C362 C363 1.387 . S
C363 H348 0.930 . S
C363 C358 1.390 . S
C363 C362 1.387 . S
H364 C376 0.930 . S
H365 C378 0.930 . S
H366 C379 0.930 . S
H367 C383 0.959 . S
H368 C383 0.959 . S
H369 C383 0.961 . S
H370 C384 0.960 . S
H371 C384 0.961 . S
H372 C384 0.959 . S
H373 C387 0.929 . S
H374 C388 0.931 . S
H375 C390 0.930 . S
C376 H364 0.930 . S
C376 C377 1.399 . S
C376 C381 1.399 . S
C377 C376 1.399 . S
C377 C378 1.376 . S
C378 H365 0.930 . S
C378 C377 1.376 . S
C378 C379 1.388 . S
C379 H366 0.930 . S
C379 C378 1.388 . S
C379 C380 1.390 . S
C380 C379 1.390 . S
C380 C381 1.394 . S
C380 C386 1.465 . S
C381 C376 1.399 . S
C381 C380 1.394 . S
C381 C382 1.516 . S
C382 C381 1.516 . S
C382 C383 1.502 . S
C382 C384 1.561 . S
C382 C385 1.526 . S
C383 H367 0.959 . S
C383 H368 0.959 . S
C383 H369 0.961 . S
C383 C382 1.502 . S
C384 H370 0.960 . S
C384 H371 0.961 . S
C384 H372 0.959 . S
C384 C382 1.561 . S
C385 C382 1.526 . S
C385 C386 1.396 . S
C385 C390 1.390 . S
C386 C380 1.465 . S
C386 C385 1.396 . S
C386 C387 1.399 . S
C387 H373 0.929 . S
C387 C386 1.399 . S
C387 C388 1.385 . S
C388 H374 0.931 . S
C388 C387 1.385 . S
C388 C389 1.389 . S
C389 C388 1.389 . S
C389 C390 1.387 . S
C390 H375 0.930 . S
C390 C385 1.390 . S
C390 C389 1.387 . S
H391 C403 0.930 . S
H392 C405 0.930 . S
H393 C406 0.930 . S
H394 C410 0.959 . S
H395 C410 0.959 . S
H396 C410 0.961 . S
H397 C411 0.960 . S
H398 C411 0.961 . S
H399 C411 0.959 . S
H400 C414 0.929 . S
H401 C415 0.931 . S
H402 C417 0.930 . S
C403 H391 0.930 . S
C403 C404 1.399 . S
C403 C408 1.399 . S
C404 C403 1.399 . S
C404 C405 1.376 1_455 S
C405 H392 0.930 . S
C405 C404 1.376 1_655 S
C405 C406 1.388 . S
C406 H393 0.930 . S
C406 C405 1.388 . S
C406 C407 1.390 1_655 S
C407 C406 1.390 1_455 S
C407 C408 1.394 . S
C407 C413 1.465 . S
C408 C403 1.399 . S
C408 C407 1.394 . S
C408 C409 1.516 . S
C409 C408 1.516 . S
C409 C410 1.502 . S
C409 C411 1.561 . S
C409 C412 1.526 . S
C410 H394 0.959 . S
C410 H395 0.959 . S
C410 H396 0.961 . S
C410 C409 1.502 . S
C411 H397 0.960 . S
C411 H398 0.961 . S
C411 H399 0.959 . S
C411 C409 1.561 . S
C412 C409 1.526 . S
C412 C413 1.396 . S
C412 C417 1.390 . S
C413 C407 1.465 . S
C413 C412 1.396 . S
C413 C414 1.399 1_455 S
C414 H400 0.929 . S
C414 C413 1.399 1_655 S
C414 C415 1.385 . S
C415 H401 0.931 . S
C415 C414 1.385 . S
C415 C416 1.389 1_655 S
C416 C415 1.389 1_455 S
C416 C417 1.387 . S
C417 H402 0.930 . S
C417 C412 1.390 . S
C417 C416 1.387 . S
H418 C430 0.930 . S
H419 C432 0.930 . S
H420 C433 0.930 . S
H421 C437 0.959 . S
H422 C437 0.959 . S
H423 C437 0.961 . S
H424 C438 0.960 . S
H425 C438 0.961 . S
H426 C438 0.959 . S
H427 C441 0.929 . S
H428 C442 0.931 . S
H429 C444 0.930 . S
C430 H418 0.930 . S
C430 C431 1.399 . S
C430 C435 1.399 . S
C431 C430 1.399 . S
C431 C432 1.376 . S
C432 H419 0.930 . S
C432 C431 1.376 . S
C432 C433 1.388 . S
C433 H420 0.930 . S
C433 C432 1.388 . S
C433 C434 1.390 . S
C434 C433 1.390 . S
C434 C435 1.394 . S
C434 C440 1.465 . S
C435 C430 1.399 . S
C435 C434 1.394 . S
C435 C436 1.516 . S
C436 C435 1.516 . S
C436 C437 1.502 . S
C436 C438 1.561 . S
C436 C439 1.526 . S
C437 H421 0.959 . S
C437 H422 0.959 . S
C437 H423 0.961 . S
C437 C436 1.502 . S
C438 H424 0.960 . S
C438 H425 0.961 . S
C438 H426 0.959 . S
C438 C436 1.561 . S
C439 C436 1.526 . S
C439 C440 1.396 . S
C439 C444 1.390 . S
C440 C434 1.465 . S
C440 C439 1.396 . S
C440 C441 1.399 . S
C441 H427 0.929 . S
C441 C440 1.399 . S
C441 C442 1.385 . S
C442 H428 0.931 . S
C442 C441 1.385 . S
C442 C443 1.389 . S
C443 C442 1.389 . S
C443 C444 1.387 . S
C444 H429 0.930 . S
C444 C439 1.390 . S
C444 C443 1.387 . S
H445 C457 0.930 . S
H446 C459 0.930 . S
H447 C460 0.930 . S
H448 C464 0.959 . S
H449 C464 0.959 . S
H450 C464 0.961 . S
H451 C465 0.960 . S
H452 C465 0.961 . S
H453 C465 0.959 . S
H454 C468 0.929 . S
H455 C469 0.931 . S
H456 C471 0.930 . S
C457 H445 0.930 . S
C457 C458 1.399 . S
C457 C462 1.399 . S
C458 C457 1.399 . S
C458 C459 1.376 . S
C459 H446 0.930 . S
C459 C458 1.376 . S
C459 C460 1.388 . S
C460 H447 0.930 . S
C460 C459 1.388 . S
C460 C461 1.390 . S
C461 C460 1.390 . S
C461 C462 1.394 . S
C461 C467 1.465 . S
C462 C457 1.399 . S
C462 C461 1.394 . S
C462 C463 1.516 . S
C463 C462 1.516 . S
C463 C464 1.502 . S
C463 C465 1.561 . S
C463 C466 1.526 . S
C464 H448 0.959 . S
C464 H449 0.959 . S
C464 H450 0.961 . S
C464 C463 1.502 . S
C465 H451 0.960 . S
C465 H452 0.961 . S
C465 H453 0.959 . S
C465 C463 1.561 . S
C466 C463 1.526 . S
C466 C467 1.396 . S
C466 C471 1.390 . S
C467 C461 1.465 . S
C467 C466 1.396 . S
C467 C468 1.399 . S
C468 H454 0.929 . S
C468 C467 1.399 . S
C468 C469 1.385 . S
C469 H455 0.931 . S
C469 C468 1.385 . S
C469 C470 1.389 . S
C470 C469 1.389 . S
C470 C471 1.387 . S
C471 H456 0.930 . S
C471 C466 1.390 . S
C471 C470 1.387 . S
H472 C484 0.930 . S
H473 C486 0.930 . S
H474 C487 0.930 . S
H475 C491 0.959 . S
H476 C491 0.959 . S
H477 C491 0.961 . S
H478 C492 0.960 . S
H479 C492 0.961 . S
H480 C492 0.959 . S
H481 C495 0.929 . S
H482 C496 0.931 . S
H483 C498 0.930 . S
C484 H472 0.930 . S
C484 C485 1.399 . S
C484 C489 1.399 . S
C485 C484 1.399 . S
C485 C486 1.376 . S
C486 H473 0.930 . S
C486 C485 1.376 . S
C486 C487 1.388 . S
C487 H474 0.930 . S
C487 C486 1.388 . S
C487 C488 1.390 . S
C488 C487 1.390 . S
C488 C489 1.394 . S
C488 C494 1.465 . S
C489 C484 1.399 . S
C489 C488 1.394 . S
C489 C490 1.516 . S
C490 C489 1.516 . S
C490 C491 1.502 . S
C490 C492 1.561 . S
C490 C493 1.526 . S
C491 H475 0.959 . S
C491 H476 0.959 . S
C491 H477 0.961 . S
C491 C490 1.502 . S
C492 H478 0.960 . S
C492 H479 0.961 . S
C492 H480 0.959 . S
C492 C490 1.561 . S
C493 C490 1.526 . S
C493 C494 1.396 . S
C493 C498 1.390 . S
C494 C488 1.465 . S
C494 C493 1.396 . S
C494 C495 1.399 . S
C495 H481 0.929 . S
C495 C494 1.399 . S
C495 C496 1.385 . S
C496 H482 0.931 . S
C496 C495 1.385 . S
C496 C497 1.389 . S
C497 C496 1.389 . S
C497 C498 1.387 . S
C498 H483 0.930 . S
C498 C493 1.390 . S
C498 C497 1.387 . S
H499 C511 0.930 . S
H500 C513 0.930 . S
H501 C514 0.930 . S
H502 C518 0.959 . S
H503 C518 0.959 . S
H504 C518 0.961 . S
H505 C519 0.960 . S
H506 C519 0.961 . S
H507 C519 0.959 . S
H508 C522 0.929 . S
H509 C523 0.931 . S
H510 C525 0.930 . S
C511 H499 0.930 . S
C511 C512 1.399 . S
C511 C516 1.399 . S
C512 C511 1.399 . S
C512 C513 1.376 . S
C513 H500 0.930 . S
C513 C512 1.376 . S
C513 C514 1.388 . S
C514 H501 0.930 . S
C514 C513 1.388 . S
C514 C515 1.390 . S
C515 C514 1.390 . S
C515 C516 1.394 . S
C515 C521 1.465 . S
C516 C511 1.399 . S
C516 C515 1.394 . S
C516 C517 1.516 . S
C517 C516 1.516 . S
C517 C518 1.502 . S
C517 C519 1.561 . S
C517 C520 1.526 . S
C518 H502 0.959 . S
C518 H503 0.959 . S
C518 H504 0.961 . S
C518 C517 1.502 . S
C519 H505 0.960 . S
C519 H506 0.961 . S
C519 H507 0.959 . S
C519 C517 1.561 . S
C520 C517 1.526 . S
C520 C521 1.396 . S
C520 C525 1.390 . S
C521 C515 1.465 . S
C521 C520 1.396 . S
C521 C522 1.399 . S
C522 H508 0.929 . S
C522 C521 1.399 . S
C522 C523 1.385 . S
C523 H509 0.931 . S
C523 C522 1.385 . S
C523 C524 1.389 . S
C524 C523 1.389 . S
C524 C525 1.387 . S
C525 H510 0.930 . S
C525 C520 1.390 . S
C525 C524 1.387 . S
H526 C538 0.930 . S
H527 C540 0.930 . S
H528 C541 0.930 . S
H529 C545 0.959 . S
H530 C545 0.959 . S
H531 C545 0.961 . S
H532 C546 0.960 . S
H533 C546 0.961 . S
H534 C546 0.959 . S
H535 C549 0.929 . S
H536 C550 0.931 . S
H537 C552 0.930 . S
C538 H526 0.930 . S
C538 C539 1.399 . S
C538 C543 1.399 . S
C539 C538 1.399 . S
C539 C540 1.376 . S
C540 H527 0.930 . S
C540 C539 1.376 . S
C540 C541 1.388 . S
C541 H528 0.930 . S
C541 C540 1.388 . S
C541 C542 1.390 . S
C542 C541 1.390 . S
C542 C543 1.394 . S
C542 C548 1.465 . S
C543 C538 1.399 . S
C543 C542 1.394 . S
C543 C544 1.516 . S
C544 C543 1.516 . S
C544 C545 1.502 . S
C544 C546 1.561 . S
C544 C547 1.526 . S
C545 H529 0.959 . S
C545 H530 0.959 . S
C545 H531 0.961 . S
C545 C544 1.502 . S
C546 H532 0.960 . S
C546 H533 0.961 . S
C546 H534 0.959 . S
C546 C544 1.561 . S
C547 C544 1.526 . S
C547 C548 1.396 . S
C547 C552 1.390 . S
C548 C542 1.465 . S
C548 C547 1.396 . S
C548 C549 1.399 . S
C549 H535 0.929 . S
C549 C548 1.399 . S
C549 C550 1.385 . S
C550 H536 0.931 . S
C550 C549 1.385 . S
C550 C551 1.389 . S
C551 C550 1.389 . S
C551 C552 1.387 . S
C552 H537 0.930 . S
C552 C547 1.390 . S
C552 C551 1.387 . S
H553 C565 0.930 . S
H554 C567 0.930 . S
H555 C568 0.930 . S
H556 C572 0.959 . S
H557 C572 0.959 . S
H558 C572 0.961 . S
H559 C573 0.960 . S
H560 C573 0.961 . S
H561 C573 0.959 . S
H562 C576 0.929 . S
H563 C577 0.931 . S
H564 C579 0.930 . S
C565 H553 0.930 . S
C565 C566 1.399 . S
C565 C570 1.399 . S
C566 C565 1.399 . S
C566 C567 1.376 . S
C567 H554 0.930 . S
C567 C566 1.376 . S
C567 C568 1.388 . S
C568 H555 0.930 . S
C568 C567 1.388 . S
C568 C569 1.390 . S
C569 C568 1.390 . S
C569 C570 1.394 . S
C569 C575 1.465 . S
C570 C565 1.399 . S
C570 C569 1.394 . S
C570 C571 1.516 . S
C571 C570 1.516 . S
C571 C572 1.502 . S
C571 C573 1.561 . S
C571 C574 1.526 . S
C572 H556 0.959 . S
C572 H557 0.959 . S
C572 H558 0.961 . S
C572 C571 1.502 . S
C573 H559 0.960 . S
C573 H560 0.961 . S
C573 H561 0.959 . S
C573 C571 1.561 . S
C574 C571 1.526 . S
C574 C575 1.396 . S
C574 C579 1.390 . S
C575 C569 1.465 . S
C575 C574 1.396 . S
C575 C576 1.399 . S
C576 H562 0.929 . S
C576 C575 1.399 . S
C576 C577 1.385 . S
C577 H563 0.931 . S
C577 C576 1.385 . S
C577 C578 1.389 . S
C578 C577 1.389 . S
C578 C579 1.387 . S
C579 H564 0.930 . S
C579 C574 1.390 . S
C579 C578 1.387 . S
H580 C592 0.930 . S
H581 C594 0.930 . S
H582 C595 0.930 . S
H583 C599 0.959 . S
H584 C599 0.959 . S
H585 C599 0.961 . S
H586 C600 0.960 . S
H587 C600 0.961 . S
H588 C600 0.959 . S
H589 C603 0.929 . S
H590 C604 0.931 . S
H591 C606 0.930 . S
C592 H580 0.930 . S
C592 C593 1.399 . S
C592 C597 1.399 . S
C593 C592 1.399 . S
C593 C594 1.376 . S
C594 H581 0.930 . S
C594 C593 1.376 . S
C594 C595 1.388 . S
C595 H582 0.930 . S
C595 C594 1.388 . S
C595 C596 1.390 . S
C596 C595 1.390 . S
C596 C597 1.394 . S
C596 C602 1.465 . S
C597 C592 1.399 . S
C597 C596 1.394 . S
C597 C598 1.516 . S
C598 C597 1.516 . S
C598 C599 1.502 . S
C598 C600 1.561 . S
C598 C601 1.526 . S
C599 H583 0.959 . S
C599 H584 0.959 . S
C599 H585 0.961 . S
C599 C598 1.502 . S
C600 H586 0.960 . S
C600 H587 0.961 . S
C600 H588 0.959 . S
C600 C598 1.561 . S
C601 C598 1.526 . S
C601 C602 1.396 . S
C601 C606 1.390 . S
C602 C596 1.465 . S
C602 C601 1.396 . S
C602 C603 1.399 . S
C603 H589 0.929 . S
C603 C602 1.399 . S
C603 C604 1.385 . S
C604 H590 0.931 . S
C604 C603 1.385 . S
C604 C605 1.389 . S
C605 C604 1.389 . S
C605 C606 1.387 . S
C606 H591 0.930 . S
C606 C601 1.390 . S
C606 C605 1.387 . S
H607 C619 0.930 . S
H608 C621 0.930 . S
H609 C622 0.930 . S
H610 C626 0.959 . S
H611 C626 0.959 . S
H612 C626 0.961 . S
H613 C627 0.960 . S
H614 C627 0.961 . S
H615 C627 0.959 . S
H616 C630 0.929 . S
H617 C631 0.931 . S
H618 C633 0.930 . S
C619 H607 0.930 . S
C619 C620 1.399 . S
C619 C624 1.399 . S
C620 C619 1.399 . S
C620 C621 1.376 . S
C621 H608 0.930 . S
C621 C620 1.376 . S
C621 C622 1.388 . S
C622 H609 0.930 . S
C622 C621 1.388 . S
C622 C623 1.390 . S
C623 C622 1.390 . S
C623 C624 1.394 . S
C623 C629 1.465 . S
C624 C619 1.399 . S
C624 C623 1.394 . S
C624 C625 1.516 . S
C625 C624 1.516 . S
C625 C626 1.502 . S
C625 C627 1.561 . S
C625 C628 1.526 . S
C626 H610 0.959 . S
C626 H611 0.959 . S
C626 H612 0.961 . S
C626 C625 1.502 . S
C627 H613 0.960 . S
C627 H614 0.961 . S
C627 H615 0.959 . S
C627 C625 1.561 . S
C628 C625 1.526 . S
C628 C629 1.396 . S
C628 C633 1.390 . S
C629 C623 1.465 . S
C629 C628 1.396 . S
C629 C630 1.399 . S
C630 H616 0.929 . S
C630 C629 1.399 . S
C630 C631 1.385 . S
C631 H617 0.931 . S
C631 C630 1.385 . S
C631 C632 1.389 . S
C632 C631 1.389 . S
C632 C633 1.387 . S
C633 H618 0.930 . S
C633 C628 1.390 . S
C633 C632 1.387 . S
H634 C646 0.930 . S
H635 C648 0.930 . S
H636 C649 0.930 . S
H637 C653 0.959 . S
H638 C653 0.959 . S
H639 C653 0.961 . S
H640 C654 0.960 . S
H641 C654 0.961 . S
H642 C654 0.959 . S
H643 C657 0.929 . S
H644 C658 0.931 . S
H645 C660 0.930 . S
C646 H634 0.930 . S
C646 C647 1.399 . S
C646 C651 1.399 . S
C647 C646 1.399 . S
C647 C648 1.376 . S
C648 H635 0.930 . S
C648 C647 1.376 . S
C648 C649 1.388 . S
C649 H636 0.930 . S
C649 C648 1.388 . S
C649 C650 1.390 . S
C650 C649 1.390 . S
C650 C651 1.394 . S
C650 C656 1.465 . S
C651 C646 1.399 . S
C651 C650 1.394 . S
C651 C652 1.516 . S
C652 C651 1.516 . S
C652 C653 1.502 . S
C652 C654 1.561 . S
C652 C655 1.526 . S
C653 H637 0.959 . S
C653 H638 0.959 . S
C653 H639 0.961 . S
C653 C652 1.502 . S
C654 H640 0.960 . S
C654 H641 0.961 . S
C654 H642 0.959 . S
C654 C652 1.561 . S
C655 C652 1.526 . S
C655 C656 1.396 . S
C655 C660 1.390 . S
C656 C650 1.465 . S
C656 C655 1.396 . S
C656 C657 1.399 . S
C657 H643 0.929 . S
C657 C656 1.399 . S
C657 C658 1.385 . S
C658 H644 0.931 . S
C658 C657 1.385 . S
C658 C659 1.389 . S
C659 C658 1.389 . S
C659 C660 1.387 . S
C660 H645 0.930 . S
C660 C655 1.390 . S
C660 C659 1.387 . S
H661 C673 0.930 . S
H662 C675 0.930 . S
H663 C676 0.930 . S
H664 C680 0.959 . S
H665 C680 0.959 . S
H666 C680 0.961 . S
H667 C681 0.960 . S
H668 C681 0.961 . S
H669 C681 0.959 . S
H670 C684 0.929 . S
H671 C685 0.931 . S
H672 C687 0.930 . S
C673 H661 0.930 . S
C673 C674 1.399 . S
C673 C678 1.399 . S
C674 C673 1.399 . S
C674 C675 1.376 . S
C675 H662 0.930 . S
C675 C674 1.376 . S
C675 C676 1.388 . S
C676 H663 0.930 . S
C676 C675 1.388 . S
C676 C677 1.390 . S
C677 C676 1.390 . S
C677 C678 1.394 . S
C677 C683 1.465 . S
C678 C673 1.399 . S
C678 C677 1.394 . S
C678 C679 1.516 . S
C679 C678 1.516 . S
C679 C680 1.502 . S
C679 C681 1.561 . S
C679 C682 1.526 . S
C680 H664 0.959 . S
C680 H665 0.959 . S
C680 H666 0.961 . S
C680 C679 1.502 . S
C681 H667 0.960 . S
C681 H668 0.961 . S
C681 H669 0.959 . S
C681 C679 1.561 . S
C682 C679 1.526 . S
C682 C683 1.396 . S
C682 C687 1.390 . S
C683 C677 1.465 . S
C683 C682 1.396 . S
C683 C684 1.399 . S
C684 H670 0.929 . S
C684 C683 1.399 . S
C684 C685 1.385 . S
C685 H671 0.931 . S
C685 C684 1.385 . S
C685 C686 1.389 . S
C686 C685 1.389 . S
C686 C687 1.387 . S
C687 H672 0.930 . S
C687 C682 1.390 . S
C687 C686 1.387 . S
H688 C700 0.930 . S
H689 C702 0.930 . S
H690 C703 0.930 . S
H691 C707 0.959 . S
H692 C707 0.959 . S
H693 C707 0.961 . S
H694 C708 0.960 . S
H695 C708 0.961 . S
H696 C708 0.959 . S
H697 C711 0.929 . S
H698 C712 0.931 . S
H699 C714 0.930 . S
C700 H688 0.930 . S
C700 C701 1.399 . S
C700 C705 1.399 . S
C701 C700 1.399 . S
C701 C702 1.376 . S
C702 H689 0.930 . S
C702 C701 1.376 . S
C702 C703 1.388 . S
C703 H690 0.930 . S
C703 C702 1.388 . S
C703 C704 1.390 . S
C704 C703 1.390 . S
C704 C705 1.394 . S
C704 C710 1.465 . S
C705 C700 1.399 . S
C705 C704 1.394 . S
C705 C706 1.516 . S
C706 C705 1.516 . S
C706 C707 1.502 . S
C706 C708 1.561 . S
C706 C709 1.526 . S
C707 H691 0.959 . S
C707 H692 0.959 . S
C707 H693 0.961 . S
C707 C706 1.502 . S
C708 H694 0.960 . S
C708 H695 0.961 . S
C708 H696 0.959 . S
C708 C706 1.561 . S
C709 C706 1.526 . S
C709 C710 1.396 . S
C709 C714 1.390 . S
C710 C704 1.465 . S
C710 C709 1.396 . S
C710 C711 1.399 . S
C711 H697 0.929 . S
C711 C710 1.399 . S
C711 C712 1.385 . S
C712 H698 0.931 . S
C712 C711 1.385 . S
C712 C713 1.389 . S
C713 C712 1.389 . S
C713 C714 1.387 . S
C714 H699 0.930 . S
C714 C709 1.390 . S
C714 C713 1.387 . S
H715 C727 0.930 1_455 S
H716 C729 0.930 . S
H717 C730 0.930 . S
H718 C734 0.959 . S
H719 C734 0.959 . S
H720 C734 0.961 . S
H721 C735 0.960 . S
H722 C735 0.961 . S
H723 C735 0.959 . S
H724 C738 0.929 . S
H725 C739 0.931 . S
H726 C741 0.930 1_455 S
C727 H715 0.930 1_655 S
C727 C728 1.399 . S
C727 C732 1.399 . S
C728 C727 1.399 . S
C728 C729 1.376 . S
C729 H716 0.930 . S
C729 C728 1.376 . S
C729 C730 1.388 . S
C730 H717 0.930 . S
C730 C729 1.388 . S
C730 C731 1.390 . S
C731 C730 1.390 . S
C731 C732 1.394 . S
C731 C737 1.465 . S
C732 C727 1.399 . S
C732 C731 1.394 . S
C732 C733 1.516 1_655 S
C733 C732 1.516 1_455 S
C733 C734 1.502 . S
C733 C735 1.561 . S
C733 C736 1.526 1_455 S
C734 H718 0.959 . S
C734 H719 0.959 . S
C734 H720 0.961 . S
C734 C733 1.502 . S
C735 H721 0.960 . S
C735 H722 0.961 . S
C735 H723 0.959 . S
C735 C733 1.561 . S
C736 C733 1.526 1_655 S
C736 C737 1.396 . S
C736 C741 1.390 . S
C737 C731 1.465 . S
C737 C736 1.396 . S
C737 C738 1.399 . S
C738 H724 0.929 . S
C738 C737 1.399 . S
C738 C739 1.385 . S
C739 H725 0.931 . S
C739 C738 1.385 . S
C739 C740 1.389 . S
C740 C739 1.389 . S
C740 C741 1.387 . S
C741 H726 0.930 1_655 S
C741 C736 1.390 . S
C741 C740 1.387 . S
H742 C754 0.930 . S
H743 C756 0.930 . S
H744 C757 0.930 . S
H745 C761 0.959 . S
H746 C761 0.959 . S
H747 C761 0.961 . S
H748 C762 0.960 . S
H749 C762 0.961 . S
H750 C762 0.959 . S
H751 C765 0.929 . S
H752 C766 0.931 . S
H753 C768 0.930 . S
C754 H742 0.930 . S
C754 C755 1.399 . S
C754 C759 1.399 . S
C755 C754 1.399 . S
C755 C756 1.376 . S
C756 H743 0.930 . S
C756 C755 1.376 . S
C756 C757 1.388 . S
C757 H744 0.930 . S
C757 C756 1.388 . S
C757 C758 1.390 . S
C758 C757 1.390 . S
C758 C759 1.394 . S
C758 C764 1.465 . S
C759 C754 1.399 . S
C759 C758 1.394 . S
C759 C760 1.516 . S
C760 C759 1.516 . S
C760 C761 1.502 . S
C760 C762 1.561 . S
C760 C763 1.526 . S
C761 H745 0.959 . S
C761 H746 0.959 . S
C761 H747 0.961 . S
C761 C760 1.502 . S
C762 H748 0.960 . S
C762 H749 0.961 . S
C762 H750 0.959 . S
C762 C760 1.561 . S
C763 C760 1.526 . S
C763 C764 1.396 . S
C763 C768 1.390 . S
C764 C758 1.465 . S
C764 C763 1.396 . S
C764 C765 1.399 . S
C765 H751 0.929 . S
C765 C764 1.399 . S
C765 C766 1.385 . S
C766 H752 0.931 . S
C766 C765 1.385 . S
C766 C767 1.389 . S
C767 C766 1.389 . S
C767 C768 1.387 . S
C768 H753 0.930 . S
C768 C763 1.390 . S
C768 C767 1.387 . S
H769 C781 0.930 . S
H770 C783 0.930 . S
H771 C784 0.930 . S
H772 C788 0.959 . S
H773 C788 0.959 . S
H774 C788 0.961 . S
H775 C789 0.960 . S
H776 C789 0.961 . S
H777 C789 0.959 . S
H778 C792 0.929 . S
H779 C793 0.931 . S
H780 C795 0.930 . S
C781 H769 0.930 . S
C781 C782 1.399 . S
C781 C786 1.399 . S
C782 C781 1.399 . S
C782 C783 1.376 . S
C783 H770 0.930 . S
C783 C782 1.376 . S
C783 C784 1.388 . S
C784 H771 0.930 . S
C784 C783 1.388 . S
C784 C785 1.390 . S
C785 C784 1.390 . S
C785 C786 1.394 . S
C785 C791 1.465 . S
C786 C781 1.399 . S
C786 C785 1.394 . S
C786 C787 1.516 . S
C787 C786 1.516 . S
C787 C788 1.502 . S
C787 C789 1.561 . S
C787 C790 1.526 . S
C788 H772 0.959 . S
C788 H773 0.959 . S
C788 H774 0.961 . S
C788 C787 1.502 . S
C789 H775 0.960 . S
C789 H776 0.961 . S
C789 H777 0.959 . S
C789 C787 1.561 . S
C790 C787 1.526 . S
C790 C791 1.396 . S
C790 C795 1.390 . S
C791 C785 1.465 . S
C791 C790 1.396 . S
C791 C792 1.399 . S
C792 H778 0.929 . S
C792 C791 1.399 . S
C792 C793 1.385 . S
C793 H779 0.931 . S
C793 C792 1.385 . S
C793 C794 1.389 . S
C794 C793 1.389 . S
C794 C795 1.387 . S
C795 H780 0.930 . S
C795 C790 1.390 . S
C795 C794 1.387 . S
H796 C808 0.930 . S
H797 C810 0.930 . S
H798 C811 0.930 . S
H799 C815 0.959 . S
H800 C815 0.959 . S
H801 C815 0.961 . S
H802 C816 0.960 . S
H803 C816 0.961 . S
H804 C816 0.959 . S
H805 C819 0.929 . S
H806 C820 0.931 . S
H807 C822 0.930 . S
C808 H796 0.930 . S
C808 C809 1.399 . S
C808 C813 1.399 . S
C809 C808 1.399 . S
C809 C810 1.376 . S
C810 H797 0.930 . S
C810 C809 1.376 . S
C810 C811 1.388 . S
C811 H798 0.930 . S
C811 C810 1.388 . S
C811 C812 1.390 . S
C812 C811 1.390 . S
C812 C813 1.394 . S
C812 C818 1.465 . S
C813 C808 1.399 . S
C813 C812 1.394 . S
C813 C814 1.516 . S
C814 C813 1.516 . S
C814 C815 1.502 . S
C814 C816 1.561 . S
C814 C817 1.526 . S
C815 H799 0.959 . S
C815 H800 0.959 . S
C815 H801 0.961 . S
C815 C814 1.502 . S
C816 H802 0.960 . S
C816 H803 0.961 . S
C816 H804 0.959 . S
C816 C814 1.561 . S
C817 C814 1.526 . S
C817 C818 1.396 . S
C817 C822 1.390 . S
C818 C812 1.465 . S
C818 C817 1.396 . S
C818 C819 1.399 . S
C819 H805 0.929 . S
C819 C818 1.399 . S
C819 C820 1.385 . S
C820 H806 0.931 . S
C820 C819 1.385 . S
C820 C821 1.389 . S
C821 C820 1.389 . S
C821 C822 1.387 . S
C822 H807 0.930 . S
C822 C817 1.390 . S
C822 C821 1.387 . S
H823 C835 0.930 . S
H824 C837 0.930 . S
H825 C838 0.930 . S
H826 C842 0.959 . S
H827 C842 0.959 . S
H828 C842 0.961 . S
H829 C843 0.960 . S
H830 C843 0.961 . S
H831 C843 0.959 . S
H832 C846 0.929 . S
H833 C847 0.931 . S
H834 C849 0.930 . S
C835 H823 0.930 . S
C835 C836 1.399 . S
C835 C840 1.399 . S
C836 C835 1.399 . S
C836 C837 1.376 . S
C837 H824 0.930 . S
C837 C836 1.376 . S
C837 C838 1.388 . S
C838 H825 0.930 . S
C838 C837 1.388 . S
C838 C839 1.390 . S
C839 C838 1.390 . S
C839 C840 1.394 . S
C839 C845 1.465 . S
C840 C835 1.399 . S
C840 C839 1.394 . S
C840 C841 1.516 . S
C841 C840 1.516 . S
C841 C842 1.502 . S
C841 C843 1.561 . S
C841 C844 1.526 . S
C842 H826 0.959 . S
C842 H827 0.959 . S
C842 H828 0.961 . S
C842 C841 1.502 . S
C843 H829 0.960 . S
C843 H830 0.961 . S
C843 H831 0.959 . S
C843 C841 1.561 . S
C844 C841 1.526 . S
C844 C845 1.396 . S
C844 C849 1.390 . S
C845 C839 1.465 . S
C845 C844 1.396 . S
C845 C846 1.399 . S
C846 H832 0.929 . S
C846 C845 1.399 . S
C846 C847 1.385 . S
C847 H833 0.931 . S
C847 C846 1.385 . S
C847 C848 1.389 . S
C848 C847 1.389 . S
C848 C849 1.387 . S
C849 H834 0.930 . S
C849 C844 1.390 . S
C849 C848 1.387 . S
H850 C862 0.930 . S
H851 C864 0.930 . S
H852 C865 0.930 . S
H853 C869 0.959 . S
H854 C869 0.959 . S
H855 C869 0.961 . S
H856 C870 0.960 . S
H857 C870 0.961 . S
H858 C870 0.959 . S
H859 C873 0.929 . S
H860 C874 0.931 . S
H861 C876 0.930 . S
C862 H850 0.930 . S
C862 C863 1.399 . S
C862 C867 1.399 . S
C863 C862 1.399 . S
C863 C864 1.376 . S
C864 H851 0.930 . S
C864 C863 1.376 . S
C864 C865 1.388 . S
C865 H852 0.930 . S
C865 C864 1.388 . S
C865 C866 1.390 . S
C866 C865 1.390 . S
C866 C867 1.394 . S
C866 C872 1.465 . S
C867 C862 1.399 . S
C867 C866 1.394 . S
C867 C868 1.516 . S
C868 C867 1.516 . S
C868 C869 1.502 . S
C868 C870 1.561 . S
C868 C871 1.526 . S
C869 H853 0.959 . S
C869 H854 0.959 . S
C869 H855 0.961 . S
C869 C868 1.502 . S
C870 H856 0.960 . S
C870 H857 0.961 . S
C870 H858 0.959 . S
C870 C868 1.561 . S
C871 C868 1.526 . S
C871 C872 1.396 . S
C871 C876 1.390 . S
C872 C866 1.465 . S
C872 C871 1.396 . S
C872 C873 1.399 . S
C873 H859 0.929 . S
C873 C872 1.399 . S
C873 C874 1.385 . S
C874 H860 0.931 . S
C874 C873 1.385 . S
C874 C875 1.389 . S
C875 C874 1.389 . S
C875 C876 1.387 . S
C876 H861 0.930 . S
C876 C871 1.390 . S
C876 C875 1.387 . S
H877 C889 0.930 . S
H878 C891 0.930 . S
H879 C892 0.930 . S
H880 C896 0.959 . S
H881 C896 0.959 . S
H882 C896 0.961 . S
H883 C897 0.960 . S
H884 C897 0.961 . S
H885 C897 0.959 . S
H886 C900 0.929 . S
H887 C901 0.931 . S
H888 C903 0.930 . S
C889 H877 0.930 . S
C889 C890 1.399 . S
C889 C894 1.399 . S
C890 C889 1.399 . S
C890 C891 1.376 . S
C891 H878 0.930 . S
C891 C890 1.376 . S
C891 C892 1.388 . S
C892 H879 0.930 . S
C892 C891 1.388 . S
C892 C893 1.390 . S
C893 C892 1.390 . S
C893 C894 1.394 . S
C893 C899 1.465 . S
C894 C889 1.399 . S
C894 C893 1.394 . S
C894 C895 1.516 . S
C895 C894 1.516 . S
C895 C896 1.502 . S
C895 C897 1.561 . S
C895 C898 1.526 . S
C896 H880 0.959 . S
C896 H881 0.959 . S
C896 H882 0.961 . S
C896 C895 1.502 . S
C897 H883 0.960 . S
C897 H884 0.961 . S
C897 H885 0.959 . S
C897 C895 1.561 . S
C898 C895 1.526 . S
C898 C899 1.396 . S
C898 C903 1.390 . S
C899 C893 1.465 . S
C899 C898 1.396 . S
C899 C900 1.399 . S
C900 H886 0.929 . S
C900 C899 1.399 . S
C900 C901 1.385 . S
C901 H887 0.931 . S
C901 C900 1.385 . S
C901 C902 1.389 . S
C902 C901 1.389 . S
C902 C903 1.387 . S
C903 H888 0.930 . S
C903 C898 1.390 . S
C903 C902 1.387 . S
C269 C6 1.227 . S
C281 C111 1.216 . S
C296 C18 1.272 . S
C308 C151 1.264 . S
C335 C185 2.385 . S
C323 C28 2.413 . S
C350 C40 2.047 . S
C362 C226 1.989 . S
C389 C146 1.566 . S
C377 C9 1.519 . S
C416 C106 1.984 . S
C404 C16 1.916 . S
C443 C234 1.566 . S
C431 C30 1.583 . S
C470 C195 1.462 . S
C458 C42 1.542 . S
C485 C4 1.351 . S
C497 C231 1.318 . S
C524 C154 2.199 . S
C512 C33 2.222 . S
C539 C45 2.098 . S
C551 C114 2.073 . S
C566 C21 1.679 . S
C578 C182 1.675 . S
C605 C102 1.307 . S
C593 C57 1.269 . S
C620 C66 1.190 . S
C632 C142 1.299 . S
C647 C76 2.463 . S
C659 C194 2.440 . S
C674 C88 1.943 . S
C686 C235 1.902 . S
C701 C54 1.558 . S
C713 C155 1.577 . S
C740 C115 2.073 . S
C728 C64 1.980 . S
C767 C225 1.491 . S
C755 C78 1.505 . S
C794 C186 1.547 . S
C782 C93 1.573 . S
C809 C52 1.398 . S
C821 C222 1.386 . S
C848 C145 2.193 . S
C836 C81 2.226 . S
C875 C105 2.034 . S
C863 C90 2.071 . S
C890 C69 1.672 . S
C902 C191 1.692 . S
