# Generated by pormake.
# Topology pyr, (3,6)-cn, num edge types: 1
# Building blocks:
#     Node 0, Type 0, BuildingBlock: PAMTOO_clean_linker_0, # of connection points: 3
#     Node 1, Type 0, BuildingBlock: PAMTOO_clean_linker_0, # of connection points: 3
#     Node 2, Type 0, BuildingBlock: PAMTOO_clean_linker_0, # of connection points: 3
#     Node 3, Type 0, BuildingBlock: PAMTOO_clean_linker_0, # of connection points: 3
#     Node 4, Type 0, BuildingBlock: PAMTOO_clean_linker_0, # of connection points: 3
#     Node 5, Type 0, BuildingBlock: PAMTOO_clean_linker_0, # of connection points: 3
#     Node 6, Type 0, BuildingBlock: PAMTOO_clean_linker_0, # of connection points: 3
#     Node 7, Type 0, BuildingBlock: PAMTOO_clean_linker_0, # of connection points: 3
#     Node 8, Type 1, BuildingBlock: INOVEN_clean_sbu_0, # of connection points: 6
#     Node 9, Type 1, BuildingBlock: INOVEN_clean_sbu_0, # of connection points: 6
#     Node 10, Type 1, BuildingBlock: INOVEN_clean_sbu_0, # of connection points: 6
#     Node 11, Type 1, BuildingBlock: INOVEN_clean_sbu_0, # of connection points: 6
#     Edge 12, Type (0, 1), BuildingBlock: EZIPEK_clean_linker_0, # of connection points: 2
#     Edge 13, Type (0, 1), BuildingBlock: EZIPEK_clean_linker_0, # of connection points: 2
#     Edge 14, Type (0, 1), BuildingBlock: EZIPEK_clean_linker_0, # of connection points: 2
#     Edge 15, Type (0, 1), BuildingBlock: EZIPEK_clean_linker_0, # of connection points: 2
#     Edge 16, Type (0, 1), BuildingBlock: EZIPEK_clean_linker_0, # of connection points: 2
#     Edge 17, Type (0, 1), BuildingBlock: EZIPEK_clean_linker_0, # of connection points: 2
#     Edge 18, Type (0, 1), BuildingBlock: EZIPEK_clean_linker_0, # of connection points: 2
#     Edge 19, Type (0, 1), BuildingBlock: EZIPEK_clean_linker_0, # of connection points: 2
#     Edge 20, Type (0, 1), BuildingBlock: EZIPEK_clean_linker_0, # of connection points: 2
#     Edge 21, Type (0, 1), BuildingBlock: EZIPEK_clean_linker_0, # of connection points: 2
#     Edge 22, Type (0, 1), BuildingBlock: EZIPEK_clean_linker_0, # of connection points: 2
#     Edge 23, Type (0, 1), BuildingBlock: EZIPEK_clean_linker_0, # of connection points: 2
#     Edge 24, Type (0, 1), BuildingBlock: EZIPEK_clean_linker_0, # of connection points: 2
#     Edge 25, Type (0, 1), BuildingBlock: EZIPEK_clean_linker_0, # of connection points: 2
#     Edge 26, Type (0, 1), BuildingBlock: EZIPEK_clean_linker_0, # of connection points: 2
#     Edge 27, Type (0, 1), BuildingBlock: EZIPEK_clean_linker_0, # of connection points: 2
#     Edge 28, Type (0, 1), BuildingBlock: EZIPEK_clean_linker_0, # of connection points: 2
#     Edge 29, Type (0, 1), BuildingBlock: EZIPEK_clean_linker_0, # of connection points: 2
#     Edge 30, Type (0, 1), BuildingBlock: EZIPEK_clean_linker_0, # of connection points: 2
#     Edge 31, Type (0, 1), BuildingBlock: EZIPEK_clean_linker_0, # of connection points: 2
#     Edge 32, Type (0, 1), BuildingBlock: EZIPEK_clean_linker_0, # of connection points: 2
#     Edge 33, Type (0, 1), BuildingBlock: EZIPEK_clean_linker_0, # of connection points: 2
#     Edge 34, Type (0, 1), BuildingBlock: EZIPEK_clean_linker_0, # of connection points: 2
#     Edge 35, Type (0, 1), BuildingBlock: EZIPEK_clean_linker_0, # of connection points: 2
# Relax obj value: 0.250
# Max RMSD: 0.241
# Mean RMSD: 0.154
data_MOF--net-pyr--node1-INOVEN_clean_sbu_0--node2-PAMTOO_clean_linker_0--edge1-EZIPEK_clean_linker_0
_symmetry_space_group_name_H-M    P1
_symmetry_Int_Tables_number       1
_symmetry_cell_setting            triclinic
loop_
_symmetry_equiv_pos_as_xyz
'x, y, z'
_cell_length_a     27.041701
_cell_length_b     30.616782
_cell_length_c     27.671304
_cell_angle_alpha  91.78936
_cell_angle_beta   89.591061
_cell_angle_gamma 107.48524
loop_
_atom_site_label
_atom_site_type_symbol
_atom_site_fract_x
_atom_site_fract_y
_atom_site_fract_z
_atom_type_partial_charge
H0 H 0.32687 0.35168 0.27112 0.0
H1 H 0.40924 0.26041 0.31696 0.0
H2 H 0.44611 0.32676 0.18091 0.0
H3 H 0.39863 0.21707 0.19925 0.0
C4 C 0.43312 0.21805 0.22154 0.0
O5 O 0.45973 0.26253 0.23618 0.0
H6 H 0.41602 0.19778 0.25346 0.0
C7 C 0.35859 0.33709 0.26612 0.0
C8 C 0.38786 0.34524 0.22368 0.0
C9 C 0.36573 0.30634 0.2995 0.0
C10 C 0.40526 0.28595 0.29227 0.0
C11 C 0.43317 0.29213 0.24881 0.0
C12 C 0.42564 0.32292 0.21505 0.0
H13 H 0.32004 0.99641 0.64465 0.0
H14 H 0.3069 0.94954 0.49541 0.0
H15 H 0.39859 0.90074 0.59429 0.0
H16 H 0.43184 0.93355 0.48575 0.0
C17 C 0.40721 0.89734 0.4814 0.0
O18 O 0.36145 0.89248 0.50638 0.0
H19 H 0.39815 0.8902 0.44236 0.0
C20 C 0.3301 0.97638 0.61528 0.0
C21 C 0.36331 0.95013 0.62399 0.0
C22 C 0.30961 0.97668 0.56895 0.0
C23 C 0.32313 0.95039 0.53124 0.0
C24 C 0.35441 0.92241 0.54068 0.0
C25 C 0.37444 0.92236 0.58704 0.0
H26 H 0.77521 0.33958 0.96761 0.0
H27 H 0.66874 0.32017 0.84735 0.0
H28 H 0.79183 0.44751 0.86665 0.0
H29 H 0.65614 0.42885 0.83057 0.0
C30 C 0.67173 0.41781 0.79679 0.0
O31 O 0.71542 0.40365 0.80825 0.0
H32 H 0.64047 0.38665 0.78485 0.0
C33 C 0.76145 0.35248 0.936 0.0
C34 C 0.78902 0.39697 0.92045 0.0
C35 C 0.71765 0.32375 0.91071 0.0
C36 C 0.70121 0.34168 0.86813 0.0
C37 C 0.72685 0.38735 0.85222 0.0
C38 C 0.77053 0.41394 0.87923 0.0
H39 H 0.88879 0.77823 0.46472 0.0
H40 H 0.89641 0.66825 0.367 0.0
H41 H 1.01596 0.79891 0.36353 0.0
H42 H 0.96514 0.73066 0.25604 0.0
C43 C 0.96755 0.69968 0.27438 0.0
O44 O 0.98409 0.71231 0.32289 0.0
H45 H 0.92653 0.67773 0.27506 0.0
C46 C 0.90841 0.76586 0.43547 0.0
C47 C 0.95548 0.7955 0.41748 0.0
C48 C 0.88676 0.72015 0.418 0.0
C49 C 0.91236 0.70345 0.37985 0.0
C50 C 0.9583 0.73144 0.35809 0.0
C51 C 0.97969 0.77759 0.37785 0.0
H52 H 0.78969 0.90663 0.88629 0.0
H53 H 0.68896 0.82672 0.99346 0.0
H54 H 0.8148 0.78331 0.93535 0.0
H55 H 0.70322 0.71506 0.94735 0.0
C56 C 0.72257 0.71876 0.98311 0.0
O57 O 0.7378 0.76469 0.99706 0.0
H58 H 0.69322 0.69928 1.00897 0.0
C59 C 0.7769 0.87584 0.90714 0.0
C60 C 0.80506 0.8441 0.90516 0.0
C61 C 0.73538 0.87013 0.93934 0.0
C62 C 0.72001 0.83079 0.9674 0.0
C63 C 0.74837 0.79922 0.96564 0.0
C64 C 0.79144 0.8065 0.9352 0.0
H65 H 0.8336 0.12243 0.49269 0.0
H66 H 0.72764 0.20107 0.51448 0.0
H67 H 0.78829 0.15116 0.63714 0.0
H68 H 0.66443 0.17777 0.65284 0.0
C69 C 0.67433 0.18357 0.61416 0.0
O70 O 0.72767 0.19877 0.60901 0.0
H71 H 0.65779 0.14856 0.59858 0.0
C72 C 0.8118 0.13809 0.51704 0.0
C73 C 0.81639 0.13515 0.56728 0.0
C74 C 0.77837 0.16042 0.4981 0.0
C75 C 0.75172 0.1822 0.52926 0.0
C76 C 0.75425 0.17803 0.57929 0.0
C77 C 0.7858 0.15374 0.59833 0.0
H78 H 0.40322 0.7864 0.12755 0.0
H79 H 0.38992 0.67814 0.22785 0.0
H80 H 0.51237 0.80589 0.24562 0.0
H81 H 0.54508 0.7298 0.28792 0.0
C82 C 0.50719 0.70302 0.2921 0.0
O83 O 0.46761 0.72366 0.28525 0.0
H84 H 0.50678 0.67854 0.26159 0.0
C85 C 0.41749 0.77346 0.15884 0.0
C86 C 0.46199 0.80226 0.18363 0.0
C87 C 0.39073 0.7284 0.17406 0.0
C88 C 0.41023 0.71196 0.21524 0.0
C89 C 0.45414 0.73913 0.24175 0.0
C90 C 0.47937 0.7844 0.22545 0.0
H91 H 0.12807 0.33969 0.80681 0.0
H92 H 0.24666 0.46911 0.78601 0.0
H93 H 0.23794 0.35483 0.68916 0.0
H94 H 0.34581 0.41432 0.72634 0.0
C95 C 0.33992 0.44725 0.71623 0.0
O96 O 0.2873 0.44098 0.70788 0.0
H97 H 0.3523 0.46957 0.74909 0.0
C98 C 0.16122 0.36038 0.78724 0.0
C99 C 0.17994 0.34008 0.74542 0.0
C100 C 0.18497 0.40776 0.80314 0.0
C101 C 0.22819 0.43346 0.77595 0.0
C102 C 0.24765 0.41439 0.73541 0.0
C103 C 0.2232 0.36849 0.72084 0.0
Gd104 Gd 0.06387 0.0914 0.53752 0.0
Gd105 Gd 0.07252 1.04261 0.62563 0.0
C106 C 0.10663 0.15442 0.63882 0.0
C107 C 0.05159 0.1475 0.4749 0.0
C108 C 0.09229 0.18778 0.45867 0.0
C109 C 0.13814 0.20372 0.4861 0.0
C110 C 0.09111 0.20302 0.41164 0.0
C111 C 0.18347 0.24273 0.41688 0.0
C112 C 0.13658 0.23069 0.39085 0.0
C113 C 0.18348 0.23104 0.46532 0.0
C114 C 0.15372 0.06998 0.543 0.0
C115 C 1.02631 0.98055 0.52537 0.0
C116 C 0.09031 0.98848 0.68849 0.0
C117 C 0.0529 0.95248 0.71464 0.0
C118 C 1.00005 0.94299 0.70387 0.0
C119 C 0.06835 0.93245 0.75438 0.0
C120 C 0.97805 0.89933 0.77641 0.0
C121 C 0.03089 0.90544 0.78504 0.0
C122 C 0.96282 0.91662 0.73465 0.0
C123 C 0.9806 0.0604 0.61859 0.0
O124 O 0.08889 0.15213 0.59374 0.0
O125 O 0.10936 0.11574 0.65786 0.0
O126 O 0.06022 0.10884 0.46281 0.0
O127 O 0.03693 0.14907 0.51995 0.0
O128 O 0.13105 0.07317 0.50296 0.0
O129 O 0.1316 0.08398 0.57784 0.0
O130 O 0.05199 0.98369 0.567 0.0
O131 O 1.01791 1.0185 0.50971 0.0
O132 O 0.08828 1.02964 0.69943 0.0
O133 O 0.0926 0.98113 0.64193 0.0
O134 O 1.00148 0.05578 0.65917 0.0
O135 O 1.00498 1.04847 0.58443 0.0
H136 H 0.14032 0.19164 0.52207 0.0
H137 H 0.05637 0.19047 0.38974 0.0
H138 H 0.13623 0.23923 0.35317 0.0
H139 H 0.21941 0.23961 0.48564 0.0
H140 H 0.98761 0.95846 0.67337 0.0
H141 H 0.10906 0.93973 0.76314 0.0
H142 H 0.04305 0.89215 0.81721 0.0
H143 H 0.9222 0.9121 0.72751 0.0
Gd144 Gd 0.63661 0.07675 0.08172 0.0
Gd145 Gd 0.55517 1.05216 1.02433 0.0
C146 C 0.53956 0.10839 0.11316 0.0
C147 C 0.71196 0.11779 0.14057 0.0
C148 C 0.72076 0.12705 0.19291 0.0
C149 C 0.75516 0.10845 0.21665 0.0
C150 C 0.69606 0.15445 0.21949 0.0
C151 C 0.73919 0.14332 0.29262 0.0
C152 C 0.70541 0.16265 0.26907 0.0
C153 C 0.76409 0.11631 0.26619 0.0
C154 C 0.57295 0.98938 0.10674 0.0
C155 C 0.65293 1.01835 0.99655 0.0
C156 C 0.47921 1.01022 0.96688 0.0
C157 C 0.46859 1.00006 0.91496 0.0
C158 C 0.44035 1.0239 0.88989 0.0
C159 C 0.48338 0.96482 0.89072 0.0
C160 C 0.44133 0.97735 0.8178 0.0
C161 C 0.46971 0.9535 0.84238 0.0
C162 C 0.42705 1.01276 0.84154 0.0
C163 C 0.61706 0.13936 0.99846 0.0
O164 O 0.59021 0.12133 0.11155 0.0
O165 O 0.51376 0.07232 0.08739 0.0
O166 O 0.70211 0.07531 0.1258 0.0
O167 O 0.68347 0.13872 0.11868 0.0
O168 O 0.62279 1.00233 0.1029 0.0
O169 O 0.55796 1.02409 0.09756 0.0
O170 O 0.60212 1.00621 0.99755 0.0
O171 O 0.6783 0.05656 1.01908 0.0
O172 O 0.48821 1.05265 0.98187 0.0
O173 O 0.50915 0.99005 0.98764 0.0
O174 O 0.56731 0.12581 1.0028 0.0
O175 O 0.63323 0.10524 1.00803 0.0
H176 H 0.77493 0.08756 0.19685 0.0
H177 H 0.66943 0.16936 0.20217 0.0
H178 H 0.68583 0.18347 0.28921 0.0
H179 H 0.79027 0.10121 0.28402 0.0
H180 H 0.42788 1.05073 0.90786 0.0
H181 H 0.50479 0.94553 0.90918 0.0
H182 H 0.48076 0.92597 0.82427 0.0
H183 H 0.40486 1.03122 0.82282 0.0
Gd184 Gd 0.59251 0.53411 0.5205 0.0
Gd185 Gd 0.60825 0.61348 0.57734 0.0
C186 C 0.63947 0.53306 0.63202 0.0
C187 C 0.60702 0.46242 0.47843 0.0
C188 C 0.61082 0.41822 0.49615 0.0
C189 C 0.56658 0.37975 0.49943 0.0
C190 C 0.65899 0.41446 0.5111 0.0
C191 C 0.61848 0.33572 0.53357 0.0
C192 C 0.66267 0.37375 0.52986 0.0
C193 C 0.57038 0.33883 0.51808 0.0
C194 C 0.50569 0.52928 0.57475 0.0
C195 C 0.55758 0.61164 0.46771 0.0
C196 C 0.59274 0.68536 0.6194 0.0
C197 C 0.56487 0.71708 0.60279 0.0
C198 C 0.58122 0.76364 0.61711 0.0
C199 C 0.52289 0.70137 0.57056 0.0
C200 C 0.51534 0.7781 0.56554 0.0
C201 C 0.49909 0.73157 0.5515 0.0
C202 C 0.55623 0.7939 0.59904 0.0
C203 C 0.69537 0.61947 0.52309 0.0
O204 O 0.62665 0.5118 0.58919 0.0
O205 O 0.63568 0.57529 0.63733 0.0
O206 O 0.56157 0.46933 0.48074 0.0
O207 O 0.64486 0.499 0.49102 0.0
O208 O 0.50537 0.51637 0.52956 0.0
O209 O 0.5525 0.54456 0.58895 0.0
O210 O 0.5604 0.62733 0.51318 0.0
O211 O 0.5733 0.57514 0.45897 0.0
O212 O 0.63527 0.68647 0.59627 0.0
O213 O 0.56423 0.6435 0.62704 0.0
O214 O 0.69522 0.63037 0.56886 0.0
O215 O 0.64846 0.60349 0.50863 0.0
H216 H 0.52895 0.38137 0.48804 0.0
H217 H 0.69394 0.44318 0.50885 0.0
H218 H 0.70009 0.37193 0.5417 0.0
H219 H 0.53588 0.30974 0.52077 0.0
H220 H 0.61345 0.77662 0.64195 0.0
H221 H 0.5084 0.66574 0.55959 0.0
H222 H 0.46766 0.71854 0.52581 0.0
H223 H 0.56929 0.82969 0.61048 0.0
Gd224 Gd 0.0906 0.52554 0.07742 0.0
Gd225 Gd 0.09249 0.58887 1.01383 0.0
C226 C 0.19607 0.61324 0.07544 0.0
C227 C 0.11376 0.46461 0.12861 0.0
C228 C 0.16232 0.4534 0.1356 0.0
C229 C 0.16477 0.42148 0.16991 0.0
C230 C 0.20613 0.47359 0.10724 0.0
C231 C 0.25385 0.42932 0.14679 0.0
C232 C 0.25162 0.4615 0.11266 0.0
C233 C 0.2103 0.40949 0.17547 0.0
C234 C 0.04464 0.58641 0.1229 0.0
C235 C 0.9866 0.50359 1.01767 0.0
C236 C 0.06452 0.6479 0.96364 0.0
C237 C 1.01574 0.65994 0.967 0.0
C238 C 1.00146 0.68525 0.93112 0.0
C239 C 0.98152 0.64363 1.00537 0.0
C240 C 0.91903 0.67698 0.97174 0.0
C241 C 0.93351 0.65177 1.00754 0.0
C242 C 0.95341 0.69397 0.9336 0.0
C243 C 0.13499 0.52495 0.96786 0.0
O244 O 0.17619 0.56946 0.08523 0.0
O245 O 0.16883 0.63174 0.04784 0.0
O246 O 0.11258 0.50416 0.14621 0.0
O247 O 0.09417 0.45634 0.08531 0.0
O248 O 1.02609 0.54199 0.1214 0.0
O249 O 0.08483 0.59653 0.09557 0.0
O250 O 1.00609 0.54779 1.0104 0.0
O251 O 1.0147 0.48371 0.04244 0.0
O252 O 0.05948 0.60622 0.94837 0.0
O253 O 0.09495 0.65928 1.00115 0.0
O254 O 0.15315 0.56935 0.96602 0.0
O255 O 0.09596 0.51692 0.99625 0.0
H256 H 0.13137 0.40553 0.19202 0.0
H257 H 0.20505 0.49817 0.08041 0.0
H258 H 0.28481 0.47686 0.09009 0.0
H259 H 0.21149 0.3844 0.20185 0.0
H260 H 1.02718 0.69787 0.9011 0.0
H261 H 0.99165 0.62416 1.03357 0.0
H262 H 0.90757 0.63841 0.03722 0.0
H263 H 0.94282 0.71353 0.90568 0.0
C264 C 0.2883 0.24378 0.326 0.0
C265 C 0.32377 0.28805 0.33474 0.0
C266 C 0.267 0.30364 0.39808 0.0
C267 C 0.23333 0.25847 0.39084 0.0
N268 N 0.22061 0.18143 0.35903 0.0
N269 N 0.35247 0.35693 0.38453 0.0
C270 C 0.24683 0.2272 0.3584 0.0
C271 C 0.31492 0.31699 0.37273 0.0
N272 N 0.29186 0.2186 0.28511 0.0
N273 N 0.25233 0.33407 0.4277 0.0
H274 H 0.38794 0.36728 0.3665 0.0
H275 H 0.35041 0.37764 0.41457 0.0
H276 H 0.21755 0.32517 0.44688 0.0
H277 H 0.27272 0.36879 0.43065 0.0
H278 H 0.26332 0.18849 0.27479 0.0
H279 H 0.3202 0.22968 0.25878 0.0
H280 H 0.23255 0.15679 0.33942 0.0
H281 H 0.19034 0.16751 0.38291 0.0
C282 C 0.35738 0.92473 0.70919 0.0
C283 C 0.38653 0.95206 0.67234 0.0
C284 C 0.45692 0.98741 0.72937 0.0
C285 C 0.42483 0.96473 0.76728 0.0
N286 N 0.34453 0.91282 0.79518 0.0
N287 N 0.46256 1.01065 0.64604 0.0
C288 C 0.3752 0.93324 0.75769 0.0
C289 C 0.43623 0.9834 0.68191 0.0
N290 N 0.31306 0.89044 0.69753 0.0
N291 N 0.50714 1.01254 0.73891 0.0
H292 H 0.44925 1.00782 0.61044 0.0
H293 H 0.49604 1.03793 0.6519 0.0
H294 H 0.52312 1.01684 0.77358 0.0
H295 H 0.53423 1.02613 0.71223 0.0
H296 H 0.29262 0.86632 0.7218 0.0
H297 H 0.29872 0.88378 0.66227 0.0
H298 H 0.30568 0.89387 0.79134 0.0
H299 H 0.35721 0.91676 0.83103 0.0
C300 C 0.66032 0.49363 0.76335 0.0
C301 C 0.67716 0.45396 0.75498 0.0
C302 C 0.68264 0.4743 0.66727 0.0
C303 C 0.65506 0.50743 0.67496 0.0
N304 N 0.60767 0.53889 0.7342 0.0
N305 N 0.7018 0.40601 0.69472 0.0
C306 C 0.64154 0.51459 0.72414 0.0
C307 C 0.68759 0.44429 0.70561 0.0
N308 N 0.66342 0.51268 0.80888 0.0
N309 N 0.70647 0.47259 0.62389 0.0
H310 H 0.70699 0.38415 0.72101 0.0
H311 H 0.70543 0.39452 0.65944 0.0
H312 H 0.70741 0.4956 0.59669 0.0
H313 H 0.73071 0.45234 0.61712 0.0
H314 H 0.65541 0.54344 0.81644 0.0
H315 H 0.68128 0.50163 0.83733 0.0
H316 H 0.59321 0.54152 0.76885 0.0
H317 H 0.58863 0.55108 0.70765 0.0
C318 C 1.0276 0.69322 0.20012 0.0
C319 C 0.99888 0.67276 0.24165 0.0
C320 C 1.01411 0.59946 0.21164 0.0
C321 C 0.03247 0.61756 0.16519 0.0
N322 N 0.05285 0.68463 0.11651 0.0
N323 N 0.96382 0.6031 0.2845 0.0
C324 C 0.03845 0.66539 0.16016 0.0
C325 C 0.99201 0.62494 0.24647 0.0
N326 N 0.04652 0.73983 0.1993 0.0
N327 N 1.02125 0.55915 0.22471 0.0
H328 H 0.95064 0.62048 0.31232 0.0
H329 H 0.95126 0.56755 0.28688 0.0
H330 H 0.04254 0.54225 0.20401 0.0
H331 H 1.01294 0.54607 0.25914 0.0
H332 H 0.07146 0.75712 0.17255 0.0
H333 H 0.04294 0.76087 0.22866 0.0
H334 H 0.05164 0.71731 0.10845 0.0
H335 H 0.06181 0.66657 0.08705 0.0
C336 C 0.46745 0.19468 0.1428 0.0
C337 C 0.46815 0.19553 0.19396 0.0
C338 C 0.52136 0.14295 0.19219 0.0
C339 C 0.51294 0.13649 0.14144 0.0
N340 N 0.47402 0.15336 0.06857 0.0
N341 N 0.50174 0.1763 0.26816 0.0
C342 C 0.48481 0.16148 0.11679 0.0
C343 C 0.49742 0.1717 0.21892 0.0
N344 N 0.45216 0.22694 0.11902 0.0
N345 N 0.55215 0.12148 0.21467 0.0
H346 H 0.48999 0.20088 0.28811 0.0
H347 H 0.5165 0.15583 0.2896 0.0
H348 H 0.5667 0.0973 0.19716 0.0
H349 H 0.56505 0.12847 0.25021 0.0
H350 H 0.45569 0.23099 0.0818 0.0
H351 H 0.44187 0.25335 0.13701 0.0
H352 H 0.44854 0.1667 0.05029 0.0
H353 H 0.4868 0.13029 0.0474 0.0
C354 C 0.22019 0.97676 0.54513 0.0
C355 C 0.27068 1.00154 0.56124 0.0
C356 C 0.24347 0.07124 0.56918 0.0
C357 C 0.1951 1.04731 0.54741 0.0
N358 N 0.14521 0.97984 0.50119 0.0
N359 N 0.33362 0.07472 0.57967 0.0
C360 C 0.18585 1.00098 0.53104 0.0
C361 C 0.2833 1.04953 0.57094 0.0
N362 N 0.20378 0.92994 0.54536 0.0
N363 N 0.25183 0.11483 0.58747 0.0
H364 H 0.36402 0.06031 0.57946 0.0
H365 H 0.34593 0.11037 0.58243 0.0
H366 H 0.22521 0.1331 0.58391 0.0
H367 H 0.28393 0.13183 0.60868 0.0
H368 H 0.16542 0.9107 0.53857 0.0
H369 H 0.22663 0.91059 0.55781 0.0
H370 H 0.14007 0.94742 0.48538 0.0
H371 H 0.12033 0.99629 0.48731 0.0
C372 C 0.88573 0.41174 0.9391 0.0
C373 C 0.83957 0.42463 0.94577 0.0
C374 C 0.88864 0.48732 1.0026 0.0
C375 C 0.93538 0.47584 0.99385 0.0
N376 N 0.97963 0.4324 0.94546 0.0
N377 N 0.79883 0.47826 0.98024 0.0
C378 C 0.93404 0.43921 0.96014 0.0
C379 C 0.84175 0.46362 0.97637 0.0
N380 N 0.88366 0.37294 0.91231 0.0
N381 N 0.88847 0.51973 0.03768 0.0
H382 H 0.76339 0.46051 0.96425 0.0
H383 H 0.79893 0.5093 0.99671 0.0
H384 H 0.9214 0.53717 0.0577 0.0
H385 H 0.85519 0.52695 0.04978 0.0
H386 H 0.91339 0.35782 0.91156 0.0
H387 H 0.85091 0.35404 0.89292 0.0
H388 H 0.98246 0.4104 0.91684 0.0
H389 H 1.01572 0.45187 0.95869 0.0
C390 C 0.78767 0.68867 0.42325 0.0
C391 C 0.8372 0.68979 0.44118 0.0
C392 C 0.79245 0.63709 0.50535 0.0
C393 C 0.74311 0.64076 0.49142 0.0
N394 N 0.69669 0.67752 0.43967 0.0
N395 N 0.88669 0.66782 0.50264 0.0
C396 C 0.74145 0.6681 0.45065 0.0
C397 C 0.83942 0.66463 0.48312 0.0
N398 N 0.78458 0.70733 0.37957 0.0
N399 N 0.79444 0.60586 0.53894 0.0
H400 H 0.92156 0.68586 0.48657 0.0
H401 H 0.89135 0.65528 0.53631 0.0
H402 H 0.76135 0.58448 0.55506 0.0
H403 H 0.82812 0.59785 0.54732 0.0
H404 H 0.74975 0.70301 0.36142 0.0
H405 H 0.81724 0.72367 0.35935 0.0
H406 H 0.69456 0.70157 0.41461 0.0
H407 H 0.66251 0.66481 0.45865 0.0
C408 C 0.37977 0.41912 0.19706 0.0
C409 C 0.37132 0.37192 0.18667 0.0
C410 C 0.30029 0.37119 0.1321 0.0
C411 C 0.30083 0.41448 0.15199 0.0
N412 N 0.34297 0.48238 0.19994 0.0
N413 N 0.32637 0.30285 0.14161 0.0
C414 C 0.342 0.43987 0.18253 0.0
C415 C 0.33344 0.34823 0.15211 0.0
N416 N 0.42299 0.44309 0.22248 0.0
N417 N 0.26731 0.35194 0.0948 0.0
H418 H 0.35102 0.28534 0.15433 0.0
H419 H 0.295 0.28205 0.12189 0.0
H420 H 0.24249 0.36826 0.07985 0.0
H421 H 0.26789 0.32217 0.07588 0.0
H422 H 0.43375 0.47836 0.22902 0.0
H423 H 0.45055 0.42768 0.23333 0.0
H424 H 0.36861 0.50069 0.2265 0.0
H425 H 0.31641 0.49877 0.18903 0.0
C426 C 0.70618 0.2361 0.91648 0.0
C427 C 0.69028 0.27528 0.93042 0.0
C428 C 0.63437 0.22697 0.99325 0.0
C429 C 0.64638 0.18649 0.97652 0.0
N430 N 0.68909 0.15299 0.9156 0.0
N431 N 0.63268 0.30479 0.97864 0.0
C432 C 0.68134 0.19138 0.93648 0.0
C433 C 0.65239 0.26949 0.96774 0.0
N434 N 0.74607 0.2417 0.88444 0.0
N435 N 0.60763 0.22565 1.03557 0.0
H436 H 0.64531 0.33622 0.96177 0.0
H437 H 0.6008 0.30168 1.00106 0.0
H438 H 0.59565 0.19656 0.05638 0.0
H439 H 0.60209 0.25449 0.05287 0.0
H440 H 0.7642 0.21671 0.87683 0.0
H441 H 0.76346 0.27273 0.8679 0.0
H442 H 0.70898 0.15302 0.88324 0.0
H443 H 0.67195 0.12028 0.92841 0.0
C444 C 0.98483 0.84774 0.49463 0.0
C445 C 0.97832 0.84381 0.4432 0.0
C446 C 1.00905 0.92999 0.44417 0.0
C447 C 1.00814 0.93357 0.49616 0.0
N448 N 0.98 0.89108 0.5686 0.0
N449 N 0.97605 0.88461 0.37067 0.0
C450 C 0.99197 0.89101 0.52058 0.0
C451 C 0.98827 0.886 0.41855 0.0
N452 N 0.98576 0.81007 0.5193 0.0
N453 N 0.03201 0.96812 0.41851 0.0
H454 H 0.96052 0.85401 0.35097 0.0
H455 H 0.97671 0.91373 0.35183 0.0
H456 H 0.04957 1.00015 0.43462 0.0
H457 H 0.03874 0.96689 0.38145 0.0
H458 H 0.99522 0.81153 0.55589 0.0
H459 H 0.98318 0.77867 0.50203 0.0
H460 H 0.9637 0.86113 0.5873 0.0
H461 H 0.97964 0.92063 0.58812 0.0
C462 C 0.40787 0.82268 0.52082 0.0
C463 C 0.43566 0.86428 0.49899 0.0
C464 C 0.51646 0.84491 0.51332 0.0
C465 C 0.48908 0.80961 0.54435 0.0
N466 N 0.40885 0.77066 0.58417 0.0
N467 N 0.51783 0.91262 0.46962 0.0
C468 C 0.43483 0.80037 0.55019 0.0
C469 C 0.4905 0.87479 0.4939 0.0
N470 N 0.35652 0.80252 0.51093 0.0
N471 N 0.56616 0.84809 0.49989 0.0
H472 H 0.50042 0.93148 0.44848 0.0
H473 H 0.55808 0.92583 0.47116 0.0
H474 H 0.58595 0.82608 0.51201 0.0
H475 H 0.58622 0.86968 0.47325 0.0
H476 H 0.33583 0.77053 0.52375 0.0
H477 H 0.33696 0.81424 0.48429 0.0
H478 H 0.36988 0.76594 0.59219 0.0
H479 H 0.42744 0.75463 0.60765 0.0
C480 C 0.85357 0.82729 0.83256 0.0
C481 C 0.85268 0.8534 0.87564 0.0
C482 C 0.93663 0.90716 0.85608 0.0
C483 C 0.93852 0.88045 0.81361 0.0
N484 N 0.90539 0.81011 0.76685 0.0
N485 N 0.89953 0.90903 0.93555 0.0
C486 C 0.89906 0.83871 0.80369 0.0
C487 C 0.89633 0.89036 0.88974 0.0
N488 N 0.81031 0.79304 0.81823 0.0
N489 N 0.97119 0.94985 0.86295 0.0
H490 H 0.87104 0.89676 0.96155 0.0
H491 H 0.93277 0.93318 0.94922 0.0
H492 H 1.00095 0.96438 0.83887 0.0
H493 H 0.9675 0.97264 0.89051 0.0
H494 H 0.80672 0.77617 0.78458 0.0
H495 H 0.77642 0.78351 0.83868 0.0
H496 H 0.88022 0.77728 0.76048 0.0
H497 H 0.93858 0.81772 0.74533 0.0
C498 C 0.72461 0.12193 0.42704 0.0
C499 C 0.7676 0.15756 0.44556 0.0
C500 C 0.79168 0.18456 0.36379 0.0
C501 C 0.74758 0.14997 0.34549 0.0
N502 N 0.66779 0.09003 0.35902 0.0
N503 N 0.83781 0.22659 0.43406 0.0
C504 C 0.71266 0.11999 0.37699 0.0
C505 C 0.79996 0.19005 0.41461 0.0
N506 N 0.69628 0.08906 0.45716 0.0
N507 N 0.82609 0.21144 0.33239 0.0
H508 H 0.84549 0.23098 0.47108 0.0
H509 H 0.85932 0.25417 0.4142 0.0
H510 H 0.82001 0.20975 0.2951 0.0
H511 H 0.86199 0.23368 0.34273 0.0
H512 H 0.66843 0.05924 0.44517 0.0
H513 H 0.70292 0.08983 0.49431 0.0
H514 H 0.63781 0.07105 0.38059 0.0
H515 H 0.6586 0.08631 0.32228 0.0
C516 C 0.49071 0.63088 0.34714 0.0
C517 C 0.50813 0.6796 0.34258 0.0
C518 C 0.55278 0.68476 0.4226 0.0
C519 C 0.53755 0.6357 0.42631 0.0
N520 N 0.47834 0.56422 0.39747 0.0
N521 N 0.54067 0.75205 0.38495 0.0
C522 C 0.50276 0.6095 0.38986 0.0
C523 C 0.53428 0.70605 0.38329 0.0
N524 N 0.46217 0.60458 0.3104 0.0
N525 N 0.58739 0.71177 0.45506 0.0
H526 H 0.52731 0.76832 0.35757 0.0
H527 H 0.55366 0.77304 0.41549 0.0
H528 H 0.60193 0.69935 0.48453 0.0
H529 H 0.60524 0.74663 0.45076 0.0
H530 H 0.45509 0.56929 0.30678 0.0
H531 H 0.44605 0.61841 0.28282 0.0
H532 H 0.44891 0.54367 0.37546 0.0
H533 H 0.48352 0.5481 0.42882 0.0
C534 C 0.14049 0.46711 0.83761 0.0
C535 C 0.16546 0.43293 0.84642 0.0
C536 C 0.16241 0.45382 0.93518 0.0
C537 C 0.14274 0.49139 0.92596 0.0
N538 N 0.11318 0.53284 0.86565 0.0
N539 N 0.20404 0.39727 0.90536 0.0
C540 C 0.13195 0.49755 0.87629 0.0
C541 C 0.17696 0.42717 0.89585 0.0
N542 N 0.12289 0.46939 0.79187 0.0
N543 N 0.16679 0.44304 0.98208 0.0
H544 H 0.21393 0.37681 0.87842 0.0
H545 H 0.21961 0.39479 0.93908 0.0
H546 H 0.15744 0.46177 1.01088 0.0
H547 H 0.17544 0.41377 0.99244 0.0
H548 H 0.09955 0.4894 0.78271 0.0
H549 H 0.12787 0.44795 0.76341 0.0
H550 H 0.11136 0.54415 0.83083 0.0
H551 H 0.10101 0.55227 0.89207 0.0
C552 C 0.73853 0.93871 0.99159 0.0
C553 C 0.71636 0.90989 0.95146 0.0
C554 C 0.66293 0.95979 0.93426 0.0
C555 C 0.67952 0.98467 0.97854 0.0
N556 N 0.72697 0.99058 0.05413 0.0
N557 N 0.65489 0.89023 0.88597 0.0
C558 C 0.71613 0.97265 1.00824 0.0
C559 C 0.67787 0.91971 0.92302 0.0
N560 N 0.78152 0.93396 1.01396 0.0
N561 N 0.63423 0.97534 0.90231 0.0
H562 H 0.66586 0.86123 0.87638 0.0
H563 H 0.62268 0.89263 0.86711 0.0
H564 H 0.6244 1.00548 0.90857 0.0
H565 H 0.62456 0.9611 0.86772 0.0
H566 H 0.80337 0.95801 0.03907 0.0
H567 H 0.79817 0.9083 1.00462 0.0
H568 H 0.74733 0.97782 0.07913 0.0
H569 H 0.71197 1.01504 0.06945 0.0
C570 C 0.89682 0.13966 0.61537 0.0
C571 C 0.85433 0.11338 0.5867 0.0
C572 C 0.89181 1.04949 0.58332 0.0
C573 C 0.93367 0.07564 0.6129 0.0
N574 N 0.96565 0.13936 0.67018 0.0
N575 N 0.80433 1.03936 0.55451 0.0
C576 C 0.93259 0.11845 0.63353 0.0
C577 C 0.84971 0.06701 0.57398 0.0
N578 N 0.90547 0.18576 0.62249 0.0
N579 N 0.89195 1.00771 0.56452 0.0
H580 H 0.77225 1.0508 0.54872 0.0
H581 H 0.79661 1.00421 0.54849 0.0
H582 H 0.91877 0.99135 0.57478 0.0
H583 H 0.86646 0.98992 0.53756 0.0
H584 H 0.93897 0.20726 0.63875 0.0
H585 H 0.88202 0.20355 0.60795 0.0
H586 H 0.96175 0.16768 0.68995 0.0
H587 H 0.99437 0.12688 0.68366 0.0
C588 C 0.34176 0.68223 0.09936 0.0
C589 C 0.34079 0.69895 0.1481 0.0
C590 C 0.24621 0.65642 0.14996 0.0
C591 C 0.2464 0.64264 0.10017 0.0
N592 N 0.29421 0.64779 1.02597 0.0
N593 N 0.28849 0.70831 0.21612 0.0
C594 C 0.2942 0.65735 0.07451 0.0
C595 C 0.29196 0.68751 0.17234 0.0
N596 N 0.3886 0.68836 0.07727 0.0
N597 N 0.20206 0.63955 0.1764 0.0
H598 H 0.32022 0.73171 0.23317 0.0
H599 H 0.25352 0.7059 0.23345 0.0
H600 H 0.16737 0.61881 0.1614 0.0
H601 H 0.20072 0.6433 0.21387 0.0
H602 H 0.3931 0.67314 0.04404 0.0
H603 H 0.42372 0.70563 0.09409 0.0
H604 H 0.32583 0.66161 1.00364 0.0
H605 H 0.2611 0.62837 1.00732 0.0
C606 C 0.39687 0.44019 0.6425 0.0
C607 C 0.37575 0.46838 0.67305 0.0
C608 C 0.4332 0.53613 0.63198 0.0
C609 C 0.46038 0.50835 0.60825 0.0
N610 N 0.47083 0.43327 0.59601 0.0
N611 N 0.37259 0.54435 0.69465 0.0
C612 C 0.44273 0.46016 0.61477 0.0
C613 C 0.39345 0.51673 0.66685 0.0
N614 N 0.37206 0.39425 0.63856 0.0
N615 N 0.44403 0.58087 0.61972 0.0
H616 H 0.34036 0.53157 0.7167 0.0
H617 H 0.38816 0.57985 0.69712 0.0
H618 H 0.47177 0.59538 0.59386 0.0
H619 H 0.42275 0.60233 0.63166 0.0
H620 H 0.38284 0.37243 0.61382 0.0
H621 H 0.33679 0.37902 0.65555 0.0
H622 H 0.46316 0.39882 0.60391 0.0
H623 H 0.50482 0.44626 0.57629 0.0
C624 C 0.80697 0.71576 1.02078 0.0
C625 C 0.76963 0.70069 0.98323 0.0
C626 C 0.82706 0.6621 0.94246 0.0
C627 C 0.86762 0.68539 0.97486 0.0
N628 N 0.89791 0.73907 0.0418 0.0
N629 N 0.74062 0.65269 0.91162 0.0
C630 C 0.85799 0.7134 1.01329 0.0
C631 C 0.77857 0.67171 0.94499 0.0
N632 N 0.79323 0.73101 0.06427 0.0
N633 N 0.83409 0.62914 0.91097 0.0
H634 H 0.702 0.65136 0.91676 0.0
H635 H 0.74727 0.63785 0.87882 0.0
H636 H 0.86878 0.62093 0.90847 0.0
H637 H 0.80463 0.60736 0.8899 0.0
H638 H 0.81782 0.73872 0.09422 0.0
H639 H 0.75529 0.73052 0.07216 0.0
H640 H 0.89376 0.76367 0.06709 0.0
H641 H 0.9362 0.73906 0.037 0.0
C642 C 0.47504 0.89018 0.17936 0.0
C643 C 0.49025 0.85082 0.16481 0.0
C644 C 0.55271 0.90102 0.1077 0.0
C645 C 0.54126 0.94149 0.12542 0.0
N646 N 0.49542 0.97355 0.18487 0.0
N647 N 0.54965 0.82145 0.11892 0.0
C648 C 0.50312 0.9356 0.16285 0.0
C649 C 0.53092 0.85728 0.13017 0.0
N650 N 0.43292 0.88418 0.20879 0.0
N651 N 0.58255 0.90358 0.06721 0.0
H652 H 0.53401 0.78899 0.13303 0.0
H653 H 0.58326 0.82478 0.0989 0.0
H654 H 0.59745 0.93363 0.04848 0.0
H655 H 0.588 0.8751 0.04903 0.0
H656 H 0.4155 0.90965 0.21641 0.0
H657 H 0.41302 0.85249 0.22283 0.0
H658 H 0.47298 0.97245 0.21579 0.0
H659 H 0.51507 1.00676 0.17484 0.0
C660 C 0.18614 0.25798 0.72541 0.0
C661 C 0.15662 0.2898 0.72464 0.0
C662 C 0.09527 0.23436 0.66713 0.0
C663 C 0.12414 0.20163 0.66835 0.0
N664 N 0.19973 0.18536 0.69914 0.0
N665 N 0.07868 0.30421 0.69902 0.0
C666 C 0.17001 0.2144 0.6981 0.0
C667 C 0.11005 0.27656 0.69667 0.0
N668 N 0.23113 0.27032 0.75169 0.0
N669 N 0.05389 0.22623 0.6365 0.0
H670 H 0.08879 0.3356 0.71796 0.0
H671 H 0.04093 0.29474 0.6857 0.0
H672 H 0.03717 0.19519 0.61833 0.0
H673 H 0.03711 0.25119 0.62696 0.0
H674 H 0.25877 0.25297 0.75064 0.0
H675 H 0.2417 0.29935 0.77462 0.0
H676 H 0.22881 0.1877 0.72432 0.0
H677 H 0.19569 0.15832 0.67425 0.0
C678 C 0.65288 0.25913 0.62328 0.0
C679 C 0.65144 0.21938 0.5942 0.0
C680 C 0.62528 0.25554 0.52442 0.0
C681 C 0.62338 0.29314 0.55468 0.0
N682 N 0.61956 0.32374 0.63519 0.0
N683 N 0.62363 0.17634 0.51844 0.0
C684 C 0.63183 0.29249 0.60489 0.0
C685 C 0.63346 0.2163 0.5453 0.0
N686 N 0.67694 0.26683 0.66742 0.0
N687 N 0.62162 0.25802 0.47539 0.0
H688 H 0.62997 0.14655 0.53007 0.0
H689 H 0.60484 0.17146 0.48507 0.0
H690 H 0.61455 0.28567 0.45877 0.0
H691 H 0.62966 0.23438 0.45107 0.0
H692 H 0.68335 0.29759 0.68716 0.0
H693 H 0.69537 0.24513 0.68247 0.0
H694 H 0.61958 0.32162 0.67272 0.0
H695 H 0.6044 0.34893 0.62276 0.0
loop_
_geom_bond_atom_site_label_1
_geom_bond_atom_site_label_2
_geom_bond_distance
_geom_bond_site_symmetry_2
_ccdc_geom_bond_type
H0 C7 0.929 . S
H1 C10 0.930 . S
H2 C12 0.929 . S
H3 C4 0.969 . S
C4 H3 0.969 . S
C4 O5 1.550 . S
C4 H6 0.973 . S
O5 C4 1.550 . S
O5 C11 1.412 . S
H6 C4 0.973 . S
C7 H0 0.929 . S
C7 C8 1.400 . S
C7 C9 1.364 . S
C8 C7 1.400 . S
C8 C12 1.377 . S
C9 C7 1.364 . S
C9 C10 1.374 . S
C10 H1 0.930 . S
C10 C9 1.374 . S
C10 C11 1.383 . S
C11 O5 1.412 . S
C11 C10 1.383 . S
C11 C12 1.394 . S
C12 H2 0.929 . S
C12 C8 1.377 . S
C12 C11 1.394 . S
H13 C20 0.929 . S
H14 C23 0.930 . S
H15 C25 0.929 . S
H16 C17 0.969 . S
C17 H16 0.969 . S
C17 O18 1.550 . S
C17 H19 0.973 . S
O18 C17 1.550 . S
O18 C24 1.412 . S
H19 C17 0.973 . S
C20 H13 0.929 . S
C20 C21 1.400 . S
C20 C22 1.364 . S
C21 C20 1.400 . S
C21 C25 1.377 . S
C22 C20 1.364 . S
C22 C23 1.374 . S
C23 H14 0.930 . S
C23 C22 1.374 . S
C23 C24 1.383 . S
C24 O18 1.412 . S
C24 C23 1.383 . S
C24 C25 1.394 . S
C25 H15 0.929 . S
C25 C21 1.377 . S
C25 C24 1.394 . S
H26 C33 0.929 . S
H27 C36 0.930 . S
H28 C38 0.929 . S
H29 C30 0.969 . S
C30 H29 0.969 . S
C30 O31 1.550 . S
C30 H32 0.973 . S
O31 C30 1.550 . S
O31 C37 1.412 . S
H32 C30 0.973 . S
C33 H26 0.929 . S
C33 C34 1.400 . S
C33 C35 1.364 . S
C34 C33 1.400 . S
C34 C38 1.377 . S
C35 C33 1.364 . S
C35 C36 1.374 . S
C36 H27 0.930 . S
C36 C35 1.374 . S
C36 C37 1.383 . S
C37 O31 1.412 . S
C37 C36 1.383 . S
C37 C38 1.394 . S
C38 H28 0.929 . S
C38 C34 1.377 . S
C38 C37 1.394 . S
H39 C46 0.929 . S
H40 C49 0.930 . S
H41 C51 0.929 . S
H42 C43 0.969 . S
C43 H42 0.969 . S
C43 O44 1.550 . S
C43 H45 0.973 . S
O44 C43 1.550 . S
O44 C50 1.412 . S
H45 C43 0.973 . S
C46 H39 0.929 . S
C46 C47 1.400 . S
C46 C48 1.364 . S
C47 C46 1.400 . S
C47 C51 1.377 . S
C48 C46 1.364 . S
C48 C49 1.374 . S
C49 H40 0.930 . S
C49 C48 1.374 . S
C49 C50 1.383 . S
C50 O44 1.412 . S
C50 C49 1.383 . S
C50 C51 1.394 . S
C51 H41 0.929 . S
C51 C47 1.377 . S
C51 C50 1.394 . S
H52 C59 0.929 . S
H53 C62 0.930 . S
H54 C64 0.929 . S
H55 C56 0.969 . S
C56 H55 0.969 . S
C56 O57 1.550 . S
C56 H58 0.973 . S
O57 C56 1.550 . S
O57 C63 1.412 . S
H58 C56 0.973 . S
C59 H52 0.929 . S
C59 C60 1.400 . S
C59 C61 1.364 . S
C60 C59 1.400 . S
C60 C64 1.377 . S
C61 C59 1.364 . S
C61 C62 1.374 . S
C62 H53 0.930 . S
C62 C61 1.374 . S
C62 C63 1.383 . S
C63 O57 1.412 . S
C63 C62 1.383 . S
C63 C64 1.394 . S
C64 H54 0.929 . S
C64 C60 1.377 . S
C64 C63 1.394 . S
H65 C72 0.929 . S
H66 C75 0.930 . S
H67 C77 0.929 . S
H68 C69 0.969 . S
C69 H68 0.969 . S
C69 O70 1.550 . S
C69 H71 0.973 . S
O70 C69 1.550 . S
O70 C76 1.412 . S
H71 C69 0.973 . S
C72 H65 0.929 . S
C72 C73 1.400 . S
C72 C74 1.364 . S
C73 C72 1.400 . S
C73 C77 1.377 . S
C74 C72 1.364 . S
C74 C75 1.374 . S
C75 H66 0.930 . S
C75 C74 1.374 . S
C75 C76 1.383 . S
C76 O70 1.412 . S
C76 C75 1.383 . S
C76 C77 1.394 . S
C77 H67 0.929 . S
C77 C73 1.377 . S
C77 C76 1.394 . S
H78 C85 0.929 . S
H79 C88 0.930 . S
H80 C90 0.929 . S
H81 C82 0.969 . S
C82 H81 0.969 . S
C82 O83 1.550 . S
C82 H84 0.973 . S
O83 C82 1.550 . S
O83 C89 1.412 . S
H84 C82 0.973 . S
C85 H78 0.929 . S
C85 C86 1.400 . S
C85 C87 1.364 . S
C86 C85 1.400 . S
C86 C90 1.377 . S
C87 C85 1.364 . S
C87 C88 1.374 . S
C88 H79 0.930 . S
C88 C87 1.374 . S
C88 C89 1.383 . S
C89 O83 1.412 . S
C89 C88 1.383 . S
C89 C90 1.394 . S
C90 H80 0.929 . S
C90 C86 1.377 . S
C90 C89 1.394 . S
H91 C98 0.929 . S
H92 C101 0.930 . S
H93 C103 0.929 . S
H94 C95 0.969 . S
C95 H94 0.969 . S
C95 O96 1.550 . S
C95 H97 0.973 . S
O96 C95 1.550 . S
O96 C102 1.412 . S
H97 C95 0.973 . S
C98 H91 0.929 . S
C98 C99 1.400 . S
C98 C100 1.364 . S
C99 C98 1.400 . S
C99 C103 1.377 . S
C100 C98 1.364 . S
C100 C101 1.374 . S
C101 H92 0.930 . S
C101 C100 1.374 . S
C101 C102 1.383 . S
C102 O96 1.412 . S
C102 C101 1.383 . S
C102 C103 1.394 . S
C103 H93 0.929 . S
C103 C99 1.377 . S
C103 C102 1.394 . S
Gd104 C107 2.818 . S
Gd104 O124 2.377 . S
Gd104 O126 2.448 . S
Gd104 O127 2.506 . S
Gd104 O128 2.435 1_545 S
Gd104 O129 2.717 1_545 S
Gd104 O131 2.395 1_545 S
Gd104 O135 2.327 . S
Gd105 C116 2.818 1_545 S
Gd105 O125 2.395 1_655 S
Gd105 O129 2.327 1_645 S
Gd105 O130 2.377 1_545 S
Gd105 O132 2.448 1_545 S
Gd105 O133 2.506 1_545 S
Gd105 O134 2.435 . S
Gd105 O135 2.717 1_655 S
C106 O124 1.240 . S
C106 O125 1.240 . S
C107 Gd104 2.818 . S
C107 C108 1.510 . S
C107 O126 1.249 . S
C107 O127 1.252 . S
C108 C107 1.510 . S
C108 C109 1.404 . S
C108 C110 1.352 . S
C109 C108 1.404 . S
C109 C113 1.389 . S
C109 H136 0.930 . S
C110 C108 1.352 . S
C110 C112 1.374 . S
C110 H137 0.931 . S
C111 C112 1.359 . S
C111 C113 1.364 . S
C112 C110 1.374 . S
C112 C111 1.359 . S
C112 H138 0.931 . S
C113 C109 1.389 . S
C113 C111 1.364 . S
C113 H139 0.931 . S
C114 O128 1.256 . S
C114 O129 1.257 . S
C115 O130 1.240 . S
C115 O131 1.240 1_655 S
C116 Gd105 2.818 1_565 S
C116 C117 1.510 . S
C116 O132 1.249 . S
C116 O133 1.252 . S
C117 C116 1.510 . S
C117 C118 1.404 . S
C117 C119 1.352 . S
C118 C117 1.404 . S
C118 C122 1.389 . S
C118 H140 0.930 . S
C119 C117 1.352 . S
C119 C121 1.374 . S
C119 H141 0.931 . S
C120 C121 1.359 . S
C120 C122 1.364 . S
C121 C119 1.374 . S
C121 C120 1.359 . S
C121 H142 0.931 . S
C122 C118 1.389 . S
C122 C120 1.364 . S
C122 H143 0.931 . S
C123 O134 1.256 . S
C123 O135 1.257 1_655 S
O124 Gd104 2.377 . S
O124 C106 1.240 . S
O125 Gd105 2.395 1_455 S
O125 C106 1.240 . S
O126 Gd104 2.448 . S
O126 C107 1.249 . S
O127 Gd104 2.506 . S
O127 C107 1.252 . S
O128 Gd104 2.435 1_565 S
O128 C114 1.256 . S
O129 Gd104 2.717 1_565 S
O129 Gd105 2.327 1_465 S
O129 C114 1.257 . S
O130 Gd105 2.377 1_565 S
O130 C115 1.240 . S
O131 Gd104 2.395 1_565 S
O131 C115 1.240 1_455 S
O132 Gd105 2.448 1_565 S
O132 C116 1.249 . S
O133 Gd105 2.506 1_565 S
O133 C116 1.252 . S
O134 Gd105 2.435 . S
O134 C123 1.256 . S
O135 Gd104 2.327 . S
O135 Gd105 2.717 1_455 S
O135 C123 1.257 1_455 S
H136 C109 0.930 . S
H137 C110 0.931 . S
H138 C112 0.931 . S
H139 C113 0.931 . S
H140 C118 0.930 . S
H141 C119 0.931 . S
H142 C121 0.931 . S
H143 C122 0.931 . S
Gd144 C147 2.818 . S
Gd144 O164 2.377 . S
Gd144 O166 2.448 . S
Gd144 O167 2.506 . S
Gd144 O168 2.435 1_545 S
Gd144 O169 2.717 1_545 S
Gd144 O171 2.395 1_544 S
Gd144 O175 2.327 1_554 S
Gd145 C156 2.818 1_545 S
Gd145 O165 2.395 1_556 S
Gd145 O169 2.327 1_546 S
Gd145 O170 2.377 1_545 S
Gd145 O172 2.448 1_545 S
Gd145 O173 2.506 1_545 S
Gd145 O174 2.435 . S
Gd145 O175 2.717 . S
C146 O164 1.240 . S
C146 O165 1.240 . S
C147 Gd144 2.818 . S
C147 C148 1.510 . S
C147 O166 1.249 . S
C147 O167 1.252 . S
C148 C147 1.510 . S
C148 C149 1.404 . S
C148 C150 1.352 . S
C149 C148 1.404 . S
C149 C153 1.389 . S
C149 H176 0.930 . S
C150 C148 1.352 . S
C150 C152 1.374 . S
C150 H177 0.931 . S
C151 C152 1.359 . S
C151 C153 1.364 . S
C152 C150 1.374 . S
C152 C151 1.359 . S
C152 H178 0.931 . S
C153 C149 1.389 . S
C153 C151 1.364 . S
C153 H179 0.931 . S
C154 O168 1.256 . S
C154 O169 1.257 . S
C155 O170 1.240 . S
C155 O171 1.240 . S
C156 Gd145 2.818 1_565 S
C156 C157 1.510 . S
C156 O172 1.249 . S
C156 O173 1.252 . S
C157 C156 1.510 . S
C157 C158 1.404 . S
C157 C159 1.352 . S
C158 C157 1.404 . S
C158 C162 1.389 . S
C158 H180 0.930 . S
C159 C157 1.352 . S
C159 C161 1.374 . S
C159 H181 0.931 . S
C160 C161 1.359 . S
C160 C162 1.364 . S
C161 C159 1.374 . S
C161 C160 1.359 . S
C161 H182 0.931 . S
C162 C158 1.389 . S
C162 C160 1.364 . S
C162 H183 0.931 . S
C163 O174 1.256 . S
C163 O175 1.257 . S
O164 Gd144 2.377 . S
O164 C146 1.240 . S
O165 Gd145 2.395 1_554 S
O165 C146 1.240 . S
O166 Gd144 2.448 . S
O166 C147 1.249 . S
O167 Gd144 2.506 . S
O167 C147 1.252 . S
O168 Gd144 2.435 1_565 S
O168 C154 1.256 . S
O169 Gd144 2.717 1_565 S
O169 Gd145 2.327 1_564 S
O169 C154 1.257 . S
O170 Gd145 2.377 1_565 S
O170 C155 1.240 . S
O171 Gd144 2.395 1_566 S
O171 C155 1.240 . S
O172 Gd145 2.448 1_565 S
O172 C156 1.249 . S
O173 Gd145 2.506 1_565 S
O173 C156 1.252 . S
O174 Gd145 2.435 . S
O174 C163 1.256 . S
O175 Gd144 2.327 1_556 S
O175 Gd145 2.717 . S
O175 C163 1.257 . S
H176 C149 0.930 . S
H177 C150 0.931 . S
H178 C152 0.931 . S
H179 C153 0.931 . S
H180 C158 0.930 . S
H181 C159 0.931 . S
H182 C161 0.931 . S
H183 C162 0.931 . S
Gd184 C187 2.818 . S
Gd184 O204 2.377 . S
Gd184 O206 2.448 . S
Gd184 O207 2.506 . S
Gd184 O208 2.435 . S
Gd184 O209 2.717 . S
Gd184 O211 2.395 . S
Gd184 O215 2.327 . S
Gd185 C196 2.818 . S
Gd185 O205 2.395 . S
Gd185 O209 2.327 . S
Gd185 O210 2.377 . S
Gd185 O212 2.448 . S
Gd185 O213 2.506 . S
Gd185 O214 2.435 . S
Gd185 O215 2.717 . S
C186 O204 1.240 . S
C186 O205 1.240 . S
C187 Gd184 2.818 . S
C187 C188 1.510 . S
C187 O206 1.249 . S
C187 O207 1.252 . S
C188 C187 1.510 . S
C188 C189 1.404 . S
C188 C190 1.352 . S
C189 C188 1.404 . S
C189 C193 1.389 . S
C189 H216 0.930 . S
C190 C188 1.352 . S
C190 C192 1.374 . S
C190 H217 0.931 . S
C191 C192 1.359 . S
C191 C193 1.364 . S
C192 C190 1.374 . S
C192 C191 1.359 . S
C192 H218 0.931 . S
C193 C189 1.389 . S
C193 C191 1.364 . S
C193 H219 0.931 . S
C194 O208 1.256 . S
C194 O209 1.257 . S
C195 O210 1.240 . S
C195 O211 1.240 . S
C196 Gd185 2.818 . S
C196 C197 1.510 . S
C196 O212 1.249 . S
C196 O213 1.252 . S
C197 C196 1.510 . S
C197 C198 1.404 . S
C197 C199 1.352 . S
C198 C197 1.404 . S
C198 C202 1.389 . S
C198 H220 0.930 . S
C199 C197 1.352 . S
C199 C201 1.374 . S
C199 H221 0.931 . S
C200 C201 1.359 . S
C200 C202 1.364 . S
C201 C199 1.374 . S
C201 C200 1.359 . S
C201 H222 0.931 . S
C202 C198 1.389 . S
C202 C200 1.364 . S
C202 H223 0.931 . S
C203 O214 1.256 . S
C203 O215 1.257 . S
O204 Gd184 2.377 . S
O204 C186 1.240 . S
O205 Gd185 2.395 . S
O205 C186 1.240 . S
O206 Gd184 2.448 . S
O206 C187 1.249 . S
O207 Gd184 2.506 . S
O207 C187 1.252 . S
O208 Gd184 2.435 . S
O208 C194 1.256 . S
O209 Gd184 2.717 . S
O209 Gd185 2.327 . S
O209 C194 1.257 . S
O210 Gd185 2.377 . S
O210 C195 1.240 . S
O211 Gd184 2.395 . S
O211 C195 1.240 . S
O212 Gd185 2.448 . S
O212 C196 1.249 . S
O213 Gd185 2.506 . S
O213 C196 1.252 . S
O214 Gd185 2.435 . S
O214 C203 1.256 . S
O215 Gd184 2.327 . S
O215 Gd185 2.717 . S
O215 C203 1.257 . S
H216 C189 0.930 . S
H217 C190 0.931 . S
H218 C192 0.931 . S
H219 C193 0.931 . S
H220 C198 0.930 . S
H221 C199 0.931 . S
H222 C201 0.931 . S
H223 C202 0.931 . S
Gd224 C227 2.818 . S
Gd224 O244 2.377 . S
Gd224 O246 2.448 . S
Gd224 O247 2.506 . S
Gd224 O248 2.435 . S
Gd224 O249 2.717 . S
Gd224 O251 2.395 1_455 S
Gd224 O255 2.327 . S
Gd225 C236 2.818 1_454 S
Gd225 O245 2.395 . S
Gd225 O249 2.327 . S
Gd225 O250 2.377 1_454 S
Gd225 O252 2.448 1_454 S
Gd225 O253 2.506 1_455 S
Gd225 O254 2.435 1_554 S
Gd225 O255 2.717 . S
C226 O244 1.240 . S
C226 O245 1.240 . S
C227 Gd224 2.818 . S
C227 C228 1.510 . S
C227 O246 1.249 . S
C227 O247 1.252 . S
C228 C227 1.510 . S
C228 C229 1.404 . S
C228 C230 1.352 . S
C229 C228 1.404 . S
C229 C233 1.389 . S
C229 H256 0.930 . S
C230 C228 1.352 . S
C230 C232 1.374 . S
C230 H257 0.931 . S
C231 C232 1.359 . S
C231 C233 1.364 . S
C232 C230 1.374 . S
C232 C231 1.359 . S
C232 H258 0.931 . S
C233 C229 1.389 . S
C233 C231 1.364 . S
C233 H259 0.931 . S
C234 O248 1.256 1_655 S
C234 O249 1.257 1_655 S
C235 O250 1.240 1_554 S
C235 O251 1.240 . S
C236 Gd225 2.818 1_656 S
C236 C237 1.510 . S
C236 O252 1.249 . S
C236 O253 1.252 1_556 S
C237 C236 1.510 . S
C237 C238 1.404 . S
C237 C239 1.352 . S
C238 C237 1.404 . S
C238 C242 1.389 . S
C238 H260 0.930 . S
C239 C237 1.352 . S
C239 C241 1.374 . S
C239 H261 0.931 1_556 S
C240 C241 1.359 . S
C240 C242 1.364 . S
C241 C239 1.374 . S
C241 C240 1.359 . S
C241 H262 0.931 . S
C242 C238 1.389 . S
C242 C240 1.364 . S
C242 H263 0.931 . S
C243 O254 1.256 . S
C243 O255 1.257 1_556 S
O244 Gd224 2.377 . S
O244 C226 1.240 . S
O245 Gd225 2.395 . S
O245 C226 1.240 . S
O246 Gd224 2.448 . S
O246 C227 1.249 . S
O247 Gd224 2.506 . S
O247 C227 1.252 . S
O248 Gd224 2.435 . S
O248 C234 1.256 1_455 S
O249 Gd224 2.717 . S
O249 Gd225 2.327 . S
O249 C234 1.257 1_455 S
O250 Gd225 2.377 1_656 S
O250 C235 1.240 1_556 S
O251 Gd224 2.395 1_655 S
O251 C235 1.240 . S
O252 Gd225 2.448 1_656 S
O252 C236 1.249 . S
O253 Gd225 2.506 1_655 S
O253 C236 1.252 1_554 S
O254 Gd225 2.435 1_556 S
O254 C243 1.256 . S
O255 Gd224 2.327 . S
O255 Gd225 2.717 . S
O255 C243 1.257 1_554 S
H256 C229 0.930 . S
H257 C230 0.931 . S
H258 C232 0.931 . S
H259 C233 0.931 . S
H260 C238 0.930 . S
H261 C239 0.931 1_554 S
H262 C241 0.931 . S
H263 C242 0.931 . S
C264 C265 1.363 . S
C264 C270 1.379 . S
C264 N272 1.356 . S
C265 C264 1.363 . S
C265 C271 1.363 . S
C266 C267 1.363 . S
C266 C271 1.379 . S
C266 N273 1.356 . S
C267 C266 1.363 . S
C267 C270 1.363 . S
N268 C270 1.356 . S
N268 H280 0.984 . S
N268 H281 0.985 . S
N269 C271 1.356 . S
N269 H274 0.984 . S
N269 H275 0.985 . S
C270 C264 1.379 . S
C270 C267 1.363 . S
C270 N268 1.356 . S
C271 C265 1.363 . S
C271 C266 1.379 . S
C271 N269 1.356 . S
N272 C264 1.356 . S
N272 H278 0.984 . S
N272 H279 0.984 . S
N273 C266 1.356 . S
N273 H276 0.984 . S
N273 H277 0.985 . S
H274 N269 0.984 . S
H275 N269 0.985 . S
H276 N273 0.984 . S
H277 N273 0.985 . S
H278 N272 0.984 . S
H279 N272 0.984 . S
H280 N268 0.984 . S
H281 N268 0.985 . S
C282 C283 1.363 . S
C282 C288 1.379 . S
C282 N290 1.356 . S
C283 C282 1.363 . S
C283 C289 1.363 . S
C284 C285 1.363 . S
C284 C289 1.379 . S
C284 N291 1.356 . S
C285 C284 1.363 . S
C285 C288 1.363 . S
N286 C288 1.356 . S
N286 H298 0.984 . S
N286 H299 0.985 . S
N287 C289 1.356 . S
N287 H292 0.984 . S
N287 H293 0.985 . S
C288 C282 1.379 . S
C288 C285 1.363 . S
C288 N286 1.356 . S
C289 C283 1.363 . S
C289 C284 1.379 . S
C289 N287 1.356 . S
N290 C282 1.356 . S
N290 H296 0.984 . S
N290 H297 0.984 . S
N291 C284 1.356 . S
N291 H294 0.984 . S
N291 H295 0.985 . S
H292 N287 0.984 . S
H293 N287 0.985 . S
H294 N291 0.984 . S
H295 N291 0.985 . S
H296 N290 0.984 . S
H297 N290 0.984 . S
H298 N286 0.984 . S
H299 N286 0.985 . S
C300 C301 1.363 . S
C300 C306 1.379 . S
C300 N308 1.356 . S
C301 C300 1.363 . S
C301 C307 1.363 . S
C302 C303 1.363 . S
C302 C307 1.379 . S
C302 N309 1.356 . S
C303 C302 1.363 . S
C303 C306 1.363 . S
N304 C306 1.356 . S
N304 H316 0.984 . S
N304 H317 0.985 . S
N305 C307 1.356 . S
N305 H310 0.984 . S
N305 H311 0.985 . S
C306 C300 1.379 . S
C306 C303 1.363 . S
C306 N304 1.356 . S
C307 C301 1.363 . S
C307 C302 1.379 . S
C307 N305 1.356 . S
N308 C300 1.356 . S
N308 H314 0.984 . S
N308 H315 0.984 . S
N309 C302 1.356 . S
N309 H312 0.984 . S
N309 H313 0.985 . S
H310 N305 0.984 . S
H311 N305 0.985 . S
H312 N309 0.984 . S
H313 N309 0.985 . S
H314 N308 0.984 . S
H315 N308 0.984 . S
H316 N304 0.984 . S
H317 N304 0.985 . S
C318 C319 1.363 . S
C318 C324 1.379 . S
C318 N326 1.356 . S
C319 C318 1.363 . S
C319 C325 1.363 . S
C320 C321 1.363 . S
C320 C325 1.379 . S
C320 N327 1.356 1_655 S
C321 C320 1.363 . S
C321 C324 1.363 . S
N322 C324 1.356 . S
N322 H334 0.984 . S
N322 H335 0.985 . S
N323 C325 1.356 . S
N323 H328 0.984 . S
N323 H329 0.985 1_655 S
C324 C318 1.379 . S
C324 C321 1.363 . S
C324 N322 1.356 . S
C325 C319 1.363 . S
C325 C320 1.379 . S
C325 N323 1.356 . S
N326 C318 1.356 . S
N326 H332 0.984 . S
N326 H333 0.984 . S
N327 C320 1.356 1_455 S
N327 H330 0.984 . S
N327 H331 0.985 . S
H328 N323 0.984 . S
H329 N323 0.985 1_455 S
H330 N327 0.984 . S
H331 N327 0.985 . S
H332 N326 0.984 . S
H333 N326 0.984 . S
H334 N322 0.984 . S
H335 N322 0.985 . S
C336 C337 1.363 . S
C336 C342 1.379 . S
C336 N344 1.356 . S
C337 C336 1.363 . S
C337 C343 1.363 . S
C338 C339 1.363 . S
C338 C343 1.379 . S
C338 N345 1.356 . S
C339 C338 1.363 . S
C339 C342 1.363 . S
N340 C342 1.356 . S
N340 H352 0.984 . S
N340 H353 0.985 . S
N341 C343 1.356 . S
N341 H346 0.984 . S
N341 H347 0.985 . S
C342 C336 1.379 . S
C342 C339 1.363 . S
C342 N340 1.356 . S
C343 C337 1.363 . S
C343 C338 1.379 . S
C343 N341 1.356 . S
N344 C336 1.356 . S
N344 H350 0.984 . S
N344 H351 0.984 . S
N345 C338 1.356 . S
N345 H348 0.984 . S
N345 H349 0.985 . S
H346 N341 0.984 . S
H347 N341 0.985 . S
H348 N345 0.984 . S
H349 N345 0.985 . S
H350 N344 0.984 . S
H351 N344 0.984 . S
H352 N340 0.984 . S
H353 N340 0.985 . S
C354 C355 1.363 . S
C354 C360 1.379 . S
C354 N362 1.356 . S
C355 C354 1.363 . S
C355 C361 1.363 . S
C356 C357 1.363 . S
C356 C361 1.379 . S
C356 N363 1.356 1_565 S
C357 C356 1.363 . S
C357 C360 1.363 . S
N358 C360 1.356 . S
N358 H370 0.984 . S
N358 H371 0.985 . S
N359 C361 1.356 . S
N359 H364 0.984 . S
N359 H365 0.985 . S
C360 C354 1.379 . S
C360 C357 1.363 . S
C360 N358 1.356 . S
C361 C355 1.363 . S
C361 C356 1.379 . S
C361 N359 1.356 . S
N362 C354 1.356 . S
N362 H368 0.984 . S
N362 H369 0.984 . S
N363 C356 1.356 1_545 S
N363 H366 0.984 . S
N363 H367 0.985 . S
H364 N359 0.984 . S
H365 N359 0.985 . S
H366 N363 0.984 . S
H367 N363 0.985 . S
H368 N362 0.984 . S
H369 N362 0.984 . S
H370 N358 0.984 . S
H371 N358 0.985 . S
C372 C373 1.363 . S
C372 C378 1.379 . S
C372 N380 1.356 . S
C373 C372 1.363 . S
C373 C379 1.363 . S
C374 C375 1.363 . S
C374 C379 1.379 . S
C374 N381 1.356 1_556 S
C375 C374 1.363 . S
C375 C378 1.363 . S
N376 C378 1.356 . S
N376 H388 0.984 . S
N376 H389 0.985 . S
N377 C379 1.356 . S
N377 H382 0.984 . S
N377 H383 0.985 . S
C378 C372 1.379 . S
C378 C375 1.363 . S
C378 N376 1.356 . S
C379 C373 1.363 . S
C379 C374 1.379 . S
C379 N377 1.356 . S
N380 C372 1.356 . S
N380 H386 0.984 . S
N380 H387 0.984 . S
N381 C374 1.356 1_554 S
N381 H384 0.984 . S
N381 H385 0.985 . S
H382 N377 0.984 . S
H383 N377 0.985 . S
H384 N381 0.984 . S
H385 N381 0.985 . S
H386 N380 0.984 . S
H387 N380 0.984 . S
H388 N376 0.984 . S
H389 N376 0.985 . S
C390 C391 1.363 . S
C390 C396 1.379 . S
C390 N398 1.356 . S
C391 C390 1.363 . S
C391 C397 1.363 . S
C392 C393 1.363 . S
C392 C397 1.379 . S
C392 N399 1.356 . S
C393 C392 1.363 . S
C393 C396 1.363 . S
N394 C396 1.356 . S
N394 H406 0.984 . S
N394 H407 0.985 . S
N395 C397 1.356 . S
N395 H400 0.984 . S
N395 H401 0.985 . S
C396 C390 1.379 . S
C396 C393 1.363 . S
C396 N394 1.356 . S
C397 C391 1.363 . S
C397 C392 1.379 . S
C397 N395 1.356 . S
N398 C390 1.356 . S
N398 H404 0.984 . S
N398 H405 0.984 . S
N399 C392 1.356 . S
N399 H402 0.984 . S
N399 H403 0.985 . S
H400 N395 0.984 . S
H401 N395 0.985 . S
H402 N399 0.984 . S
H403 N399 0.985 . S
H404 N398 0.984 . S
H405 N398 0.984 . S
H406 N394 0.984 . S
H407 N394 0.985 . S
C408 C409 1.363 . S
C408 C414 1.379 . S
C408 N416 1.356 . S
C409 C408 1.363 . S
C409 C415 1.363 . S
C410 C411 1.363 . S
C410 C415 1.379 . S
C410 N417 1.356 . S
C411 C410 1.363 . S
C411 C414 1.363 . S
N412 C414 1.356 . S
N412 H424 0.984 . S
N412 H425 0.985 . S
N413 C415 1.356 . S
N413 H418 0.984 . S
N413 H419 0.985 . S
C414 C408 1.379 . S
C414 C411 1.363 . S
C414 N412 1.356 . S
C415 C409 1.363 . S
C415 C410 1.379 . S
C415 N413 1.356 . S
N416 C408 1.356 . S
N416 H422 0.984 . S
N416 H423 0.984 . S
N417 C410 1.356 . S
N417 H420 0.984 . S
N417 H421 0.985 . S
H418 N413 0.984 . S
H419 N413 0.985 . S
H420 N417 0.984 . S
H421 N417 0.985 . S
H422 N416 0.984 . S
H423 N416 0.984 . S
H424 N412 0.984 . S
H425 N412 0.985 . S
C426 C427 1.363 . S
C426 C432 1.379 . S
C426 N434 1.356 . S
C427 C426 1.363 . S
C427 C433 1.363 . S
C428 C429 1.363 . S
C428 C433 1.379 . S
C428 N435 1.356 . S
C429 C428 1.363 . S
C429 C432 1.363 . S
N430 C432 1.356 . S
N430 H442 0.984 . S
N430 H443 0.985 . S
N431 C433 1.356 . S
N431 H436 0.984 . S
N431 H437 0.985 . S
C432 C426 1.379 . S
C432 C429 1.363 . S
C432 N430 1.356 . S
C433 C427 1.363 . S
C433 C428 1.379 . S
C433 N431 1.356 . S
N434 C426 1.356 . S
N434 H440 0.984 . S
N434 H441 0.984 . S
N435 C428 1.356 . S
N435 H438 0.981 1_556 S
N435 H439 0.985 1_556 S
H436 N431 0.984 . S
H437 N431 0.985 . S
H438 N435 0.981 1_554 S
H439 N435 0.985 1_554 S
H440 N434 0.984 . S
H441 N434 0.984 . S
H442 N430 0.984 . S
H443 N430 0.985 . S
C444 C445 1.363 . S
C444 C450 1.379 . S
C444 N452 1.356 . S
C445 C444 1.363 . S
C445 C451 1.363 . S
C446 C447 1.363 . S
C446 C451 1.379 . S
C446 N453 1.356 . S
C447 C446 1.363 . S
C447 C450 1.363 . S
N448 C450 1.356 . S
N448 H460 0.984 . S
N448 H461 0.985 . S
N449 C451 1.356 . S
N449 H454 0.984 . S
N449 H455 0.985 . S
C450 C444 1.379 . S
C450 C447 1.363 . S
C450 N448 1.356 . S
C451 C445 1.363 . S
C451 C446 1.379 . S
C451 N449 1.356 . S
N452 C444 1.356 . S
N452 H458 0.984 . S
N452 H459 0.984 . S
N453 C446 1.356 . S
N453 H456 0.984 . S
N453 H457 0.985 1_655 S
H454 N449 0.984 . S
H455 N449 0.985 . S
H456 N453 0.984 . S
H457 N453 0.985 1_455 S
H458 N452 0.984 . S
H459 N452 0.984 . S
H460 N448 0.984 . S
H461 N448 0.985 . S
C462 C463 1.363 . S
C462 C468 1.379 . S
C462 N470 1.356 . S
C463 C462 1.363 . S
C463 C469 1.363 . S
C464 C465 1.363 . S
C464 C469 1.379 . S
C464 N471 1.356 . S
C465 C464 1.363 . S
C465 C468 1.363 . S
N466 C468 1.356 . S
N466 H478 0.984 . S
N466 H479 0.985 . S
N467 C469 1.356 . S
N467 H472 0.984 . S
N467 H473 0.985 . S
C468 C462 1.379 . S
C468 C465 1.363 . S
C468 N466 1.356 . S
C469 C463 1.363 . S
C469 C464 1.379 . S
C469 N467 1.356 . S
N470 C462 1.356 . S
N470 H476 0.984 . S
N470 H477 0.984 . S
N471 C464 1.356 . S
N471 H474 0.984 . S
N471 H475 0.985 . S
H472 N467 0.984 . S
H473 N467 0.985 . S
H474 N471 0.984 . S
H475 N471 0.985 . S
H476 N470 0.984 . S
H477 N470 0.984 . S
H478 N466 0.984 . S
H479 N466 0.985 . S
C480 C481 1.363 . S
C480 C486 1.379 . S
C480 N488 1.356 . S
C481 C480 1.363 . S
C481 C487 1.363 . S
C482 C483 1.363 . S
C482 C487 1.379 . S
C482 N489 1.356 . S
C483 C482 1.363 . S
C483 C486 1.363 . S
N484 C486 1.356 . S
N484 H496 0.984 . S
N484 H497 0.985 . S
N485 C487 1.356 . S
N485 H490 0.984 . S
N485 H491 0.985 . S
C486 C480 1.379 . S
C486 C483 1.363 . S
C486 N484 1.356 . S
C487 C481 1.363 . S
C487 C482 1.379 . S
C487 N485 1.356 . S
N488 C480 1.356 . S
N488 H494 0.984 . S
N488 H495 0.984 . S
N489 C482 1.356 . S
N489 H492 0.984 . S
N489 H493 0.985 . S
H490 N485 0.984 . S
H491 N485 0.985 . S
H492 N489 0.984 . S
H493 N489 0.985 . S
H494 N488 0.984 . S
H495 N488 0.984 . S
H496 N484 0.984 . S
H497 N484 0.985 . S
C498 C499 1.363 . S
C498 C504 1.379 . S
C498 N506 1.356 . S
C499 C498 1.363 . S
C499 C505 1.363 . S
C500 C501 1.363 . S
C500 C505 1.379 . S
C500 N507 1.356 . S
C501 C500 1.363 . S
C501 C504 1.363 . S
N502 C504 1.356 . S
N502 H514 0.984 . S
N502 H515 0.985 . S
N503 C505 1.356 . S
N503 H508 0.984 . S
N503 H509 0.985 . S
C504 C498 1.379 . S
C504 C501 1.363 . S
C504 N502 1.356 . S
C505 C499 1.363 . S
C505 C500 1.379 . S
C505 N503 1.356 . S
N506 C498 1.356 . S
N506 H512 0.984 . S
N506 H513 0.984 . S
N507 C500 1.356 . S
N507 H510 0.984 . S
N507 H511 0.985 . S
H508 N503 0.984 . S
H509 N503 0.985 . S
H510 N507 0.984 . S
H511 N507 0.985 . S
H512 N506 0.984 . S
H513 N506 0.984 . S
H514 N502 0.984 . S
H515 N502 0.985 . S
C516 C517 1.363 . S
C516 C522 1.379 . S
C516 N524 1.356 . S
C517 C516 1.363 . S
C517 C523 1.363 . S
C518 C519 1.363 . S
C518 C523 1.379 . S
C518 N525 1.356 . S
C519 C518 1.363 . S
C519 C522 1.363 . S
N520 C522 1.356 . S
N520 H532 0.984 . S
N520 H533 0.985 . S
N521 C523 1.356 . S
N521 H526 0.984 . S
N521 H527 0.985 . S
C522 C516 1.379 . S
C522 C519 1.363 . S
C522 N520 1.356 . S
C523 C517 1.363 . S
C523 C518 1.379 . S
C523 N521 1.356 . S
N524 C516 1.356 . S
N524 H530 0.984 . S
N524 H531 0.984 . S
N525 C518 1.356 . S
N525 H528 0.984 . S
N525 H529 0.985 . S
H526 N521 0.984 . S
H527 N521 0.985 . S
H528 N525 0.984 . S
H529 N525 0.985 . S
H530 N524 0.984 . S
H531 N524 0.984 . S
H532 N520 0.984 . S
H533 N520 0.985 . S
C534 C535 1.363 . S
C534 C540 1.379 . S
C534 N542 1.356 . S
C535 C534 1.363 . S
C535 C541 1.363 . S
C536 C537 1.363 . S
C536 C541 1.379 . S
C536 N543 1.356 . S
C537 C536 1.363 . S
C537 C540 1.363 . S
N538 C540 1.356 . S
N538 H550 0.984 . S
N538 H551 0.985 . S
N539 C541 1.356 . S
N539 H544 0.984 . S
N539 H545 0.985 . S
C540 C534 1.379 . S
C540 C537 1.363 . S
C540 N538 1.356 . S
C541 C535 1.363 . S
C541 C536 1.379 . S
C541 N539 1.356 . S
N542 C534 1.356 . S
N542 H548 0.984 . S
N542 H549 0.984 . S
N543 C536 1.356 . S
N543 H546 0.984 . S
N543 H547 0.985 . S
H544 N539 0.984 . S
H545 N539 0.985 . S
H546 N543 0.984 . S
H547 N543 0.985 . S
H548 N542 0.984 . S
H549 N542 0.984 . S
H550 N538 0.984 . S
H551 N538 0.985 . S
C552 C553 1.363 . S
C552 C558 1.379 . S
C552 N560 1.356 . S
C553 C552 1.363 . S
C553 C559 1.363 . S
C554 C555 1.363 . S
C554 C559 1.379 . S
C554 N561 1.356 . S
C555 C554 1.363 . S
C555 C558 1.363 . S
N556 C558 1.356 . S
N556 H568 0.979 1_556 S
N556 H569 0.985 . S
N557 C559 1.356 . S
N557 H562 0.984 . S
N557 H563 0.985 . S
C558 C552 1.379 . S
C558 C555 1.363 . S
C558 N556 1.356 . S
C559 C553 1.363 . S
C559 C554 1.379 . S
C559 N557 1.356 . S
N560 C552 1.356 . S
N560 H566 0.984 . S
N560 H567 0.984 . S
N561 C554 1.356 . S
N561 H564 0.984 . S
N561 H565 0.985 . S
H562 N557 0.984 . S
H563 N557 0.985 . S
H564 N561 0.984 . S
H565 N561 0.985 . S
H566 N560 0.984 . S
H567 N560 0.984 . S
H568 N556 0.979 1_554 S
H569 N556 0.985 . S
C570 C571 1.363 . S
C570 C576 1.379 . S
C570 N578 1.356 . S
C571 C570 1.363 . S
C571 C577 1.363 . S
C572 C573 1.363 . S
C572 C577 1.379 . S
C572 N579 1.356 . S
C573 C572 1.363 . S
C573 C576 1.363 . S
N574 C576 1.356 . S
N574 H586 0.984 1_655 S
N574 H587 0.985 1_655 S
N575 C577 1.356 . S
N575 H580 0.984 . S
N575 H581 0.985 . S
C576 C570 1.379 . S
C576 C573 1.363 . S
C576 N574 1.356 . S
C577 C571 1.363 . S
C577 C572 1.379 . S
C577 N575 1.356 . S
N578 C570 1.356 . S
N578 H584 0.984 . S
N578 H585 0.984 . S
N579 C572 1.356 . S
N579 H582 0.984 . S
N579 H583 0.985 . S
H580 N575 0.984 . S
H581 N575 0.985 . S
H582 N579 0.984 . S
H583 N579 0.985 . S
H584 N578 0.984 . S
H585 N578 0.984 . S
H586 N574 0.984 1_455 S
H587 N574 0.985 1_455 S
C588 C589 1.363 . S
C588 C594 1.379 . S
C588 N596 1.356 . S
C589 C588 1.363 . S
C589 C595 1.363 . S
C590 C591 1.363 . S
C590 C595 1.379 . S
C590 N597 1.356 . S
C591 C590 1.363 . S
C591 C594 1.363 . S
N592 C594 1.356 . S
N592 H604 0.984 . S
N592 H605 0.985 . S
N593 C595 1.356 . S
N593 H598 0.984 . S
N593 H599 0.985 . S
C594 C588 1.379 . S
C594 C591 1.363 . S
C594 N592 1.356 . S
C595 C589 1.363 . S
C595 C590 1.379 . S
C595 N593 1.356 . S
N596 C588 1.356 . S
N596 H602 0.984 . S
N596 H603 0.984 . S
N597 C590 1.356 . S
N597 H600 0.984 . S
N597 H601 0.985 . S
H598 N593 0.984 . S
H599 N593 0.985 . S
H600 N597 0.984 . S
H601 N597 0.985 . S
H602 N596 0.984 . S
H603 N596 0.984 . S
H604 N592 0.984 . S
H605 N592 0.985 . S
C606 C607 1.363 . S
C606 C612 1.379 . S
C606 N614 1.356 . S
C607 C606 1.363 . S
C607 C613 1.363 . S
C608 C609 1.363 . S
C608 C613 1.379 . S
C608 N615 1.356 . S
C609 C608 1.363 . S
C609 C612 1.363 . S
N610 C612 1.356 . S
N610 H622 0.984 . S
N610 H623 0.985 . S
N611 C613 1.356 . S
N611 H616 0.984 . S
N611 H617 0.985 . S
C612 C606 1.379 . S
C612 C609 1.363 . S
C612 N610 1.356 . S
C613 C607 1.363 . S
C613 C608 1.379 . S
C613 N611 1.356 . S
N614 C606 1.356 . S
N614 H620 0.984 . S
N614 H621 0.984 . S
N615 C608 1.356 . S
N615 H618 0.984 . S
N615 H619 0.985 . S
H616 N611 0.984 . S
H617 N611 0.985 . S
H618 N615 0.984 . S
H619 N615 0.985 . S
H620 N614 0.984 . S
H621 N614 0.984 . S
H622 N610 0.984 . S
H623 N610 0.985 . S
C624 C625 1.363 . S
C624 C630 1.379 . S
C624 N632 1.356 . S
C625 C624 1.363 . S
C625 C631 1.363 . S
C626 C627 1.363 . S
C626 C631 1.379 . S
C626 N633 1.356 . S
C627 C626 1.363 . S
C627 C630 1.363 . S
N628 C630 1.356 . S
N628 H640 0.984 . S
N628 H641 0.985 . S
N629 C631 1.356 . S
N629 H634 0.984 . S
N629 H635 0.985 . S
C630 C624 1.379 . S
C630 C627 1.363 . S
C630 N628 1.356 . S
C631 C625 1.363 . S
C631 C626 1.379 . S
C631 N629 1.356 . S
N632 C624 1.356 . S
N632 H638 0.984 . S
N632 H639 0.984 . S
N633 C626 1.356 . S
N633 H636 0.984 . S
N633 H637 0.985 . S
H634 N629 0.984 . S
H635 N629 0.985 . S
H636 N633 0.984 . S
H637 N633 0.985 . S
H638 N632 0.984 . S
H639 N632 0.984 . S
H640 N628 0.984 . S
H641 N628 0.985 . S
C642 C643 1.363 . S
C642 C648 1.379 . S
C642 N650 1.356 . S
C643 C642 1.363 . S
C643 C649 1.363 . S
C644 C645 1.363 . S
C644 C649 1.379 . S
C644 N651 1.356 . S
C645 C644 1.363 . S
C645 C648 1.363 . S
N646 C648 1.356 . S
N646 H658 0.984 . S
N646 H659 0.985 . S
N647 C649 1.356 . S
N647 H652 0.984 . S
N647 H653 0.985 . S
C648 C642 1.379 . S
C648 C645 1.363 . S
C648 N646 1.356 . S
C649 C643 1.363 . S
C649 C644 1.379 . S
C649 N647 1.356 . S
N650 C642 1.356 . S
N650 H656 0.984 . S
N650 H657 0.984 . S
N651 C644 1.356 . S
N651 H654 0.984 . S
N651 H655 0.985 . S
H652 N647 0.984 . S
H653 N647 0.985 . S
H654 N651 0.984 . S
H655 N651 0.985 . S
H656 N650 0.984 . S
H657 N650 0.984 . S
H658 N646 0.984 . S
H659 N646 0.985 . S
C660 C661 1.363 . S
C660 C666 1.379 . S
C660 N668 1.356 . S
C661 C660 1.363 . S
C661 C667 1.363 . S
C662 C663 1.363 . S
C662 C667 1.379 . S
C662 N669 1.356 . S
C663 C662 1.363 . S
C663 C666 1.363 . S
N664 C666 1.356 . S
N664 H676 0.984 . S
N664 H677 0.985 . S
N665 C667 1.356 . S
N665 H670 0.984 . S
N665 H671 0.985 . S
C666 C660 1.379 . S
C666 C663 1.363 . S
C666 N664 1.356 . S
C667 C661 1.363 . S
C667 C662 1.379 . S
C667 N665 1.356 . S
N668 C660 1.356 . S
N668 H674 0.984 . S
N668 H675 0.984 . S
N669 C662 1.356 . S
N669 H672 0.984 . S
N669 H673 0.985 . S
H670 N665 0.984 . S
H671 N665 0.985 . S
H672 N669 0.984 . S
H673 N669 0.985 . S
H674 N668 0.984 . S
H675 N668 0.984 . S
H676 N664 0.984 . S
H677 N664 0.985 . S
C678 C679 1.363 . S
C678 C684 1.379 . S
C678 N686 1.356 . S
C679 C678 1.363 . S
C679 C685 1.363 . S
C680 C681 1.363 . S
C680 C685 1.379 . S
C680 N687 1.356 . S
C681 C680 1.363 . S
C681 C684 1.363 . S
N682 C684 1.356 . S
N682 H694 0.984 . S
N682 H695 0.985 . S
N683 C685 1.356 . S
N683 H688 0.984 . S
N683 H689 0.985 . S
C684 C678 1.379 . S
C684 C681 1.363 . S
C684 N682 1.356 . S
C685 C679 1.363 . S
C685 C680 1.379 . S
C685 N683 1.356 . S
N686 C678 1.356 . S
N686 H692 0.984 . S
N686 H693 0.984 . S
N687 C680 1.356 . S
N687 H690 0.984 . S
N687 H691 0.985 . S
H688 N683 0.984 . S
H689 N683 0.985 . S
H690 N687 0.984 . S
H691 N687 0.985 . S
H692 N686 0.984 . S
H693 N686 0.984 . S
H694 N682 0.984 . S
H695 N682 0.985 . S
C265 C9 1.405 . S
C267 C111 1.472 . S
C283 C21 1.277 . S
C285 C160 1.303 . S
C303 C186 2.283 . S
C301 C30 2.324 . S
C319 C43 2.261 . S
C321 C234 2.359 . S
C339 C146 2.144 . S
C337 C4 1.762 . S
C357 C114 1.458 . S
C355 C22 1.480 . S
C375 C235 1.706 1_556 S
C373 C34 1.762 . S
C393 C203 1.686 . S
C391 C48 1.706 . S
C409 C8 1.555 . S
C411 C231 1.631 . S
C429 C163 2.303 . S
C427 C35 2.381 . S
C445 C47 2.573 . S
C447 C115 2.564 . S
C463 C17 1.231 . S
C465 C200 1.246 . S
C483 C120 1.077 . S
C481 C60 1.060 . S
C499 C74 1.213 . S
C501 C151 1.198 . S
C517 C82 2.018 . S
C519 C195 2.079 . S
C535 C100 2.821 . S
C537 C243 2.750 . S
C553 C61 2.274 . S
C555 C155 2.440 . S
C573 C123 0.707 . S
C571 C73 0.707 . S
C591 C226 2.159 . S
C589 C87 2.219 . S
C609 C194 1.517 . S
C607 C95 1.513 . S
C625 C56 1.524 . S
C627 C240 1.498 . S
C645 C154 2.486 . S
C643 C86 2.543 . S
C663 C106 2.447 . S
C661 C99 2.449 . S
C679 C69 0.912 . S
C681 C191 1.035 . S
