# Generated by pormake.
# Topology pyr, (3,6)-cn, num edge types: 1
# Building blocks:
#     Node 0, Type 0, BuildingBlock: BELTOD_clean_linker_0, # of connection points: 3
#     Node 1, Type 0, BuildingBlock: BELTOD_clean_linker_0, # of connection points: 3
#     Node 2, Type 0, BuildingBlock: BELTOD_clean_linker_0, # of connection points: 3
#     Node 3, Type 0, BuildingBlock: BELTOD_clean_linker_0, # of connection points: 3
#     Node 4, Type 0, BuildingBlock: BELTOD_clean_linker_0, # of connection points: 3
#     Node 5, Type 0, BuildingBlock: BELTOD_clean_linker_0, # of connection points: 3
#     Node 6, Type 0, BuildingBlock: BELTOD_clean_linker_0, # of connection points: 3
#     Node 7, Type 0, BuildingBlock: BELTOD_clean_linker_0, # of connection points: 3
#     Node 8, Type 1, BuildingBlock: MIDCAF_clean_sbu_0, # of connection points: 6
#     Node 9, Type 1, BuildingBlock: MIDCAF_clean_sbu_0, # of connection points: 6
#     Node 10, Type 1, BuildingBlock: MIDCAF_clean_sbu_0, # of connection points: 6
#     Node 11, Type 1, BuildingBlock: MIDCAF_clean_sbu_0, # of connection points: 6
#     Edge 12, Type (0, 1), BuildingBlock: AJUNOK_clean_linker_0, # of connection points: 2
#     Edge 13, Type (0, 1), BuildingBlock: AJUNOK_clean_linker_0, # of connection points: 2
#     Edge 14, Type (0, 1), BuildingBlock: AJUNOK_clean_linker_0, # of connection points: 2
#     Edge 15, Type (0, 1), BuildingBlock: AJUNOK_clean_linker_0, # of connection points: 2
#     Edge 16, Type (0, 1), BuildingBlock: AJUNOK_clean_linker_0, # of connection points: 2
#     Edge 17, Type (0, 1), BuildingBlock: AJUNOK_clean_linker_0, # of connection points: 2
#     Edge 18, Type (0, 1), BuildingBlock: AJUNOK_clean_linker_0, # of connection points: 2
#     Edge 19, Type (0, 1), BuildingBlock: AJUNOK_clean_linker_0, # of connection points: 2
#     Edge 20, Type (0, 1), BuildingBlock: AJUNOK_clean_linker_0, # of connection points: 2
#     Edge 21, Type (0, 1), BuildingBlock: AJUNOK_clean_linker_0, # of connection points: 2
#     Edge 22, Type (0, 1), BuildingBlock: AJUNOK_clean_linker_0, # of connection points: 2
#     Edge 23, Type (0, 1), BuildingBlock: AJUNOK_clean_linker_0, # of connection points: 2
#     Edge 24, Type (0, 1), BuildingBlock: AJUNOK_clean_linker_0, # of connection points: 2
#     Edge 25, Type (0, 1), BuildingBlock: AJUNOK_clean_linker_0, # of connection points: 2
#     Edge 26, Type (0, 1), BuildingBlock: AJUNOK_clean_linker_0, # of connection points: 2
#     Edge 27, Type (0, 1), BuildingBlock: AJUNOK_clean_linker_0, # of connection points: 2
#     Edge 28, Type (0, 1), BuildingBlock: AJUNOK_clean_linker_0, # of connection points: 2
#     Edge 29, Type (0, 1), BuildingBlock: AJUNOK_clean_linker_0, # of connection points: 2
#     Edge 30, Type (0, 1), BuildingBlock: AJUNOK_clean_linker_0, # of connection points: 2
#     Edge 31, Type (0, 1), BuildingBlock: AJUNOK_clean_linker_0, # of connection points: 2
#     Edge 32, Type (0, 1), BuildingBlock: AJUNOK_clean_linker_0, # of connection points: 2
#     Edge 33, Type (0, 1), BuildingBlock: AJUNOK_clean_linker_0, # of connection points: 2
#     Edge 34, Type (0, 1), BuildingBlock: AJUNOK_clean_linker_0, # of connection points: 2
#     Edge 35, Type (0, 1), BuildingBlock: AJUNOK_clean_linker_0, # of connection points: 2
# Relax obj value: 0.020
# Max RMSD: 0.063
# Mean RMSD: 0.033
data_MOF--net-pry--node1-MIDCAF_clean_sbu_0--node2-BELTOD_clean_linker_0--edge1-AJUNOK_clean_linker_0
_symmetry_space_group_name_H-M    P1
_symmetry_Int_Tables_number       1
_symmetry_cell_setting            triclinic
loop_
_symmetry_equiv_pos_as_xyz
'x, y, z'
_cell_length_a     31.028057
_cell_length_b     31.304349
_cell_length_c     30.742046
_cell_angle_alpha  89.375462
_cell_angle_beta   89.921969
_cell_angle_gamma 90.504621
loop_
_atom_site_label
_atom_site_type_symbol
_atom_site_fract_x
_atom_site_fract_y
_atom_site_fract_z
_atom_type_partial_charge
P0 P 0.26446 0.27331 0.27477 0.0
H1 H 0.35284 0.28806 0.24455 0.0
H2 H 0.39985 0.24936 0.19477 0.0
H3 H 0.29938 0.15529 0.17552 0.0
H4 H 0.25244 0.19401 0.22519 0.0
H5 H 0.17427 0.30191 0.28135 0.0
H6 H 0.13239 0.35335 0.24019 0.0
H7 H 0.24531 0.38665 0.16409 0.0
H8 H 0.28598 0.33169 0.20283 0.0
H9 H 0.27552 0.2388 0.36282 0.0
H10 H 0.18388 0.22526 0.25838 0.0
O11 O 0.29537 0.30186 0.30825 0.0
H12 H 0.23357 0.18804 0.40729 0.0
H13 H 0.14144 0.17496 0.30322 0.0
C14 C 0.29926 0.2437 0.23912 0.0
C15 C 0.34098 0.25895 0.2299 0.0
C16 C 0.36777 0.23695 0.20132 0.0
C17 C 0.35321 0.19935 0.18132 0.0
C18 C 0.31153 0.18396 0.19084 0.0
C19 C 0.28465 0.20617 0.21918 0.0
C20 C 0.23279 0.31111 0.24378 0.0
C21 C 0.18977 0.31897 0.2548 0.0
C22 C 0.16599 0.34935 0.23169 0.0
C23 C 0.18509 0.37401 0.19812 0.0
C24 C 0.22887 0.3673 0.18843 0.0
C25 C 0.25232 0.33596 0.21084 0.0
C26 C 0.23234 0.23668 0.3076 0.0
C27 C 0.24615 0.22534 0.34958 0.0
C28 C 0.22228 0.19624 0.37496 0.0
C29 C 0.18417 0.17791 0.35874 0.0
C30 C 0.17041 0.18914 0.31665 0.0
C31 C 0.19463 0.21783 0.29107 0.0
P32 P 0.31718 0.83379 0.70648 0.0
H33 H 0.40344 0.85307 0.73598 0.0
H34 H 0.43169 0.87784 0.80483 0.0
H35 H 0.30668 0.85785 0.86438 0.0
H36 H 0.27793 0.83484 0.79391 0.0
H37 H 0.32735 0.79648 0.62158 0.0
H38 H 0.35408 0.72775 0.5986 0.0
H39 H 0.34922 0.68178 0.7317 0.0
H40 H 0.32434 0.75218 0.75482 0.0
H41 H 0.28107 0.91739 0.69315 0.0
H42 H 0.23316 0.78859 0.70965 0.0
O43 O 0.34599 0.8643 0.6721 0.0
H44 H 0.20978 0.94123 0.67288 0.0
H45 H 0.16015 0.81276 0.69159 0.0
C46 C 0.33846 0.84324 0.75975 0.0
C47 C 0.38222 0.85334 0.76398 0.0
C48 C 0.39854 0.86682 0.80373 0.0
C49 C 0.37156 0.8694 0.8404 0.0
C50 C 0.32821 0.85628 0.83669 0.0
C51 C 0.31175 0.84322 0.79653 0.0
C52 C 0.32491 0.7796 0.68991 0.0
C53 C 0.33108 0.77134 0.64573 0.0
C54 C 0.3458 0.73161 0.63255 0.0
C55 C 0.35362 0.69897 0.66328 0.0
C56 C 0.34375 0.70634 0.70729 0.0
C57 C 0.32951 0.74649 0.72054 0.0
C58 C 0.26243 0.85114 0.70168 0.0
C59 C 0.25473 0.89444 0.69367 0.0
C60 C 0.21354 0.90821 0.68285 0.0
C61 C 0.17886 0.87901 0.68097 0.0
C62 C 0.18618 0.836 0.69258 0.0
C63 C 0.22781 0.82212 0.70282 0.0
P64 P 0.77786 0.27738 0.77482 0.0
H65 H 0.85936 0.25839 0.8173 0.0
H66 H 0.9058 0.29881 0.86667 0.0
H67 H 0.81709 0.40421 0.86119 0.0
H68 H 0.77108 0.36392 0.81124 0.0
H69 H 0.74592 0.19132 0.75721 0.0
H70 H 0.69847 0.14207 0.79737 0.0
H71 H 0.68731 0.23399 0.90038 0.0
H72 H 0.73583 0.28281 0.86048 0.0
H73 H 0.79177 0.3146 0.6883 0.0
H74 H 0.69287 0.3166 0.78689 0.0
O75 O 0.80974 0.24886 0.74264 0.0
H76 H 0.7486 0.36175 0.64201 0.0
H77 H 0.65009 0.36468 0.74129 0.0
C78 C 0.81203 0.30829 0.81021 0.0
C79 C 0.85005 0.29032 0.82646 0.0
C80 C 0.87643 0.31333 0.85485 0.0
C81 C 0.86493 0.35458 0.86795 0.0
C82 C 0.82691 0.37263 0.85135 0.0
C83 C 0.80053 0.34955 0.82292 0.0
C84 C 0.74468 0.24059 0.80599 0.0
C85 C 0.73369 0.20073 0.78866 0.0
C86 C 0.70636 0.17268 0.81152 0.0
C87 C 0.68887 0.1843 0.85188 0.0
C88 C 0.70057 0.22402 0.86954 0.0
C89 C 0.72811 0.25201 0.84668 0.0
C90 C 0.74516 0.31135 0.74067 0.0
C91 C 0.7606 0.32489 0.69986 0.0
C92 C 0.73599 0.35199 0.6735 0.0
C93 C 0.69555 0.36635 0.6876 0.0
C94 C 0.68047 0.35315 0.72886 0.0
C95 C 0.70505 0.32588 0.75513 0.0
P96 P 0.75033 0.77761 0.25438 0.0
H97 H 0.81878 0.83815 0.23277 0.0
H98 H 0.86666 0.88254 0.27681 0.0
H99 H 0.80184 0.83768 0.39326 0.0
H100 H 0.75481 0.79249 0.34918 0.0
H101 H 0.73945 0.74514 0.16617 0.0
H102 H 0.78507 0.70145 0.11943 0.0
H103 H 0.88129 0.69595 0.22059 0.0
H104 H 0.83578 0.73997 0.26703 0.0
H105 H 0.66254 0.78864 0.28636 0.0
H106 H 0.76174 0.69344 0.2963 0.0
O107 O 0.72002 0.80891 0.2228 0.0
H108 H 0.61686 0.74652 0.33601 0.0
H109 H 0.71624 0.65136 0.34639 0.0
C110 C 0.78346 0.81179 0.28761 0.0
C111 C 0.8147 0.8381 0.26777 0.0
C112 C 0.84174 0.86381 0.29295 0.0
C113 C 0.83764 0.86405 0.33851 0.0
C114 C 0.80575 0.83814 0.35824 0.0
C115 C 0.77882 0.81228 0.333 0.0
C116 C 0.78439 0.7461 0.21988 0.0
C117 C 0.7705 0.73482 0.17816 0.0
C118 C 0.79653 0.70983 0.15153 0.0
C119 C 0.83672 0.69537 0.16642 0.0
C120 C 0.85072 0.70713 0.2081 0.0
C121 C 0.82463 0.73205 0.23472 0.0
C122 C 0.71532 0.74393 0.28715 0.0
C123 C 0.67426 0.75838 0.29872 0.0
C124 C 0.64827 0.73443 0.32728 0.0
C125 C 0.66309 0.69577 0.34521 0.0
C126 C 0.70386 0.68085 0.33275 0.0
C127 C 0.7299 0.70491 0.30421 0.0
P128 P 0.92416 0.93981 0.93514 0.0
H129 H 0.85722 0.91781 0.99833 0.0
H130 H 0.7868 0.94795 0.01375 0.0
H131 H 0.80177 0.03594 0.90564 0.0
H132 H 0.87306 0.00571 0.89026 0.0
H133 H 0.95964 0.90733 0.01701 0.0
H134 H 0.97076 0.8351 0.04569 0.0
H135 H 0.91068 0.78285 0.93111 0.0
H136 H 0.89901 0.8553 0.90287 0.0
H137 H 0.00685 0.95965 0.89409 0.0
H138 H 0.87945 0.92188 0.8528 0.0
O139 O 0.95626 0.9727 0.96294 0.0
H140 H 0.02865 0.96963 0.81805 0.0
H141 H 0.90116 0.93212 0.77651 0.0
C142 C 0.86995 0.95861 0.94235 0.0
C143 C 0.84527 0.94301 0.97733 0.0
C144 C 0.80515 0.96054 0.9864 0.0
C145 C 0.78896 0.99422 0.96084 0.0
C146 C 0.81343 0.0097 0.9255 0.0
C147 C 0.85396 0.99231 0.91664 0.0
C148 C 0.92961 0.88658 0.95723 0.0
C149 C 0.94856 0.88038 0.99816 0.0
C150 C 0.9546 0.83912 0.01472 0.0
C151 C 0.94142 0.80333 0.99077 0.0
C152 C 0.92048 0.80979 0.95069 0.0
C153 C 0.91443 0.85114 0.93417 0.0
C154 C 0.94114 0.94138 0.87903 0.0
C155 C 0.98365 0.95317 0.86866 0.0
C156 C 0.99617 0.95868 0.82527 0.0
C157 C 0.9664 0.95217 0.79156 0.0
C158 C 0.92471 0.93731 0.80194 0.0
C159 C 0.91219 0.93185 0.84544 0.0
P160 P 0.64951 0.18011 0.3694 0.0
H161 H 0.70041 0.217 0.43955 0.0
H162 H 0.68181 0.26584 0.49823 0.0
H163 H 0.54772 0.25659 0.46073 0.0
H164 H 0.56603 0.20575 0.40538 0.0
H165 H 0.70633 0.131 0.31423 0.0
H166 H 0.76237 0.07858 0.33069 0.0
H167 H 0.72695 0.08198 0.46662 0.0
H168 H 0.66969 0.13214 0.44958 0.0
H169 H 0.58432 0.22485 0.31871 0.0
H170 H 0.61342 0.09461 0.35418 0.0
O171 O 0.67613 0.21488 0.33757 0.0
H172 H 0.52883 0.19954 0.26834 0.0
H173 H 0.56096 0.06917 0.30224 0.0
C174 C 0.63468 0.20815 0.41777 0.0
C175 C 0.66687 0.22461 0.44505 0.0
C176 C 0.65626 0.25285 0.47826 0.0
C177 C 0.61342 0.2661 0.48361 0.0
C178 C 0.58107 0.24705 0.45798 0.0
C179 C 0.59159 0.2182 0.4256 0.0
C180 C 0.68534 0.13676 0.38102 0.0
C181 C 0.71028 0.1198 0.34744 0.0
C182 C 0.74216 0.08989 0.35683 0.0
C183 C 0.74983 0.07713 0.40008 0.0
C184 C 0.72197 0.09129 0.43296 0.0
C185 C 0.68967 0.12062 0.4234 0.0
C186 C 0.60352 0.16157 0.33937 0.0
C187 C 0.57827 0.19084 0.31612 0.0
C188 C 0.54658 0.17636 0.28744 0.0
C189 C 0.54027 0.13233 0.2811 0.0
C190 C 0.56382 0.10329 0.30689 0.0
C191 C 0.59474 0.11783 0.33615 0.0
P192 P 0.43677 0.61467 0.10526 0.0
H193 H 0.40152 0.53191 0.08033 0.0
H194 H 0.32807 0.50486 0.0713 0.0
H195 H 0.27827 0.6258 0.11401 0.0
H196 H 0.3522 0.65203 0.12507 0.0
H197 H 0.50804 0.67449 0.1139 0.0
H198 H 0.52054 0.74725 0.08863 0.0
H199 H 0.39808 0.74533 0.0218 0.0
H200 H 0.38474 0.67272 0.04946 0.0
H201 H 0.45196 0.53771 0.15537 0.0
H202 H 0.45835 0.67332 0.17798 0.0
O203 O 0.46788 0.58466 0.07377 0.0
H204 H 0.47621 0.52403 0.22937 0.0
H205 H 0.48759 0.6601 0.25031 0.0
C206 C 0.38224 0.59473 0.10132 0.0
C207 C 0.37485 0.55266 0.08784 0.0
C208 C 0.33284 0.53715 0.08276 0.0
C209 C 0.2974 0.5636 0.09075 0.0
C210 C 0.30493 0.60475 0.1073 0.0
C211 C 0.34711 0.62001 0.11302 0.0
C212 C 0.44429 0.669 0.08605 0.0
C213 C 0.48325 0.69003 0.09485 0.0
C214 C 0.49069 0.73151 0.07961 0.0
C215 C 0.46004 0.75256 0.05359 0.0
C216 C 0.42175 0.73067 0.04292 0.0
C217 C 0.41405 0.6891 0.05887 0.0
C218 C 0.45434 0.60646 0.16059 0.0
C219 C 0.45934 0.56461 0.17603 0.0
C220 C 0.47378 0.55688 0.21831 0.0
C221 C 0.48441 0.59092 0.24604 0.0
C222 C 0.47914 0.633 0.23042 0.0
C223 C 0.46321 0.64066 0.18846 0.0
P224 P 0.1801 0.34068 0.68817 0.0
H225 H 0.20749 0.31838 0.59993 0.0
H226 H 0.17453 0.27251 0.54438 0.0
H227 H 0.06201 0.25635 0.62577 0.0
H228 H 0.09513 0.30062 0.68119 0.0
H229 H 0.274 0.34629 0.68713 0.0
H230 H 0.32444 0.39836 0.65629 0.0
H231 H 0.21802 0.47711 0.61517 0.0
H232 H 0.16727 0.42389 0.64536 0.0
H233 H 0.18176 0.34839 0.78218 0.0
H234 H 0.09818 0.38659 0.67708 0.0
O235 O 0.2079 0.30325 0.7148 0.0
H236 H 0.13409 0.38215 0.83411 0.0
H237 H 0.04893 0.41917 0.72946 0.0
C238 C 0.15315 0.31417 0.64411 0.0
C239 C 0.17526 0.30583 0.60525 0.0
C240 C 0.1566 0.27956 0.57365 0.0
C241 C 0.11556 0.26151 0.58063 0.0
C242 C 0.09328 0.27072 0.61917 0.0
C243 C 0.11216 0.29623 0.65085 0.0
C244 C 0.21689 0.38119 0.66845 0.0
C245 C 0.26138 0.37489 0.67192 0.0
C246 C 0.29026 0.40495 0.6546 0.0
C247 C 0.27522 0.44187 0.6333 0.0
C248 C 0.23053 0.44878 0.63105 0.0
C249 C 0.20156 0.4185 0.64836 0.0
C250 C 0.14298 0.36407 0.72592 0.0
C251 C 0.15252 0.36315 0.77038 0.0
C252 C 0.12485 0.38201 0.80017 0.0
C253 C 0.08684 0.40205 0.78612 0.0
C254 C 0.07756 0.40333 0.74135 0.0
C255 C 0.10564 0.38475 0.71143 0.0
Zn256 Zn 0.95074 0.07131 0.55146 0.0
Zn257 Zn 0.05342 0.96366 0.4678 0.0
Zn258 Zn 0.00297 0.01902 0.5118 0.0
C259 C 0.0837 0.04784 0.45087 0.0
C260 C 0.96964 0.95201 0.43771 0.0
O261 O 0.99997 0.99994 0.58204 0.0
O262 O 0.956 0.04747 0.61054 0.0
C263 C 0.01907 0.12096 0.51962 0.0
O264 O 0.05358 0.05682 0.47812 0.0
O265 O 0.09002 0.00957 0.43998 0.0
O266 O 0.00634 0.93524 0.43462 0.0
O267 O 0.96357 0.98392 0.46313 0.0
O268 O 0.98314 0.12464 0.53847 0.0
O269 O 0.03155 0.08402 0.50672 0.0
O270 O 0.93853 0.01621 0.48111 0.0
O271 O 0.89754 0.05957 0.51934 0.0
C272 C 0.90188 0.03374 0.48855 0.0
O273 O 0.03142 0.97555 0.56077 0.0
O274 O 0.07433 0.93495 0.52147 0.0
C275 C 0.97985 0.01532 0.61505 0.0
C276 C 0.05958 0.94568 0.55805 0.0
Zn277 Zn 0.46639 0.07753 0.96752 0.0
Zn278 Zn 0.55936 0.98878 0.07998 0.0
Zn279 Zn 0.51556 0.03053 0.0222 0.0
C280 C 0.61945 0.02676 0.02432 0.0
C281 C 0.51213 0.92761 0.03711 0.0
O282 O 0.47619 0.07764 0.0588 0.0
O283 O 0.4393 0.11577 0.01085 0.0
C284 C 0.55398 0.08952 0.94368 0.0
O285 O 0.58466 0.0374 0.00419 0.0
O286 O 0.61723 0.00812 0.06089 0.0
O287 O 0.54247 0.9305 0.06415 0.0
O288 O 0.49672 0.96148 0.01885 0.0
O289 O 0.51617 0.09966 0.93264 0.0
O290 O 0.56008 0.06419 0.97643 0.0
O291 O 0.47407 0.98527 0.98719 0.0
O292 O 0.4334 0.02707 0.94596 0.0
C293 C 0.44401 0.99012 0.95876 0.0
O294 O 0.50317 0.05591 0.08786 0.0
O295 O 0.53498 0.01168 0.13402 0.0
C296 C 0.44925 0.10766 0.04986 0.0
C297 C 0.51187 0.04394 0.12709 0.0
Zn298 Zn 0.56847 0.57614 0.57348 0.0
Zn299 Zn 0.47596 0.46905 0.47605 0.0
Zn300 Zn 0.52025 0.52213 0.52411 0.0
C301 C 0.53579 0.42058 0.52074 0.0
C302 C 0.51195 0.52698 0.41857 0.0
O303 O 0.47488 0.55492 0.56693 0.0
O304 O 0.51697 0.5974 0.60568 0.0
C305 C 0.59836 0.49384 0.59044 0.0
O306 O 0.54748 0.45797 0.53347 0.0
O307 O 0.50361 0.41603 0.49617 0.0
O308 O 0.49115 0.49221 0.41811 0.0
O309 O 0.52471 0.54302 0.45485 0.0
O310 O 0.60624 0.53202 0.60095 0.0
O311 O 0.56862 0.48541 0.56243 0.0
O312 O 0.55172 0.56943 0.47969 0.0
O313 O 0.59038 0.61082 0.52298 0.0
C314 C 0.57784 0.60119 0.4852 0.0
O315 O 0.45222 0.52056 0.54704 0.0
O316 O 0.41816 0.4801 0.49942 0.0
C317 C 0.47972 0.58381 0.59605 0.0
C318 C 0.41732 0.50264 0.53314 0.0
Zn319 Zn 0.06415 0.57692 0.96818 0.0
Zn320 Zn 0.97456 0.4845 0.08094 0.0
Zn321 Zn 0.02104 0.5323 0.02457 0.0
C322 C 0.06094 0.47781 0.10592 0.0
C323 C 0.95916 0.45222 0.99765 0.0
O324 O 0.99741 0.59974 0.02594 0.0
O325 O 0.0398 0.63335 0.97855 0.0
C326 C 0.12424 0.54491 0.02701 0.0
O327 O 0.06571 0.5026 0.07243 0.0
O328 O 0.02376 0.46586 0.11791 0.0
O329 O 0.94999 0.44473 0.03706 0.0
O330 O 0.98521 0.4831 0.98747 0.0
O331 O 0.12203 0.56595 0.99188 0.0
O332 O 0.08967 0.53014 0.04522 0.0
O333 O 0.01682 0.50193 0.95936 0.0
O334 O 0.0497 0.54693 0.91425 0.0
C335 C 0.03025 0.51189 0.92077 0.0
O336 O 0.97342 0.57501 0.05582 0.0
O337 O 0.93725 0.53168 0.10046 0.0
C338 C 0.00955 0.63425 0.00591 0.0
C339 C 0.94337 0.56847 0.08424 0.0
C340 C 0.11575 0.15196 0.39433 0.0
C341 C 0.15965 0.14578 0.3849 0.0
C342 C 0.09165 0.12084 0.41727 0.0
C343 C 0.11045 0.08217 0.43076 0.0
H344 H 0.09991 0.18092 0.38362 0.0
H345 H 0.05776 0.12649 0.42316 0.0
S346 S 0.22455 0.05126 0.41541 0.0
N347 N 0.22122 0.09889 0.3921 0.0
N348 N 0.17588 0.04019 0.43447 0.0
C349 C 0.15446 0.07602 0.42216 0.0
C350 C 0.17909 0.10791 0.39948 0.0
C351 C 0.36231 0.92573 0.89629 0.0
C352 C 0.38714 0.89226 0.87956 0.0
C353 C 0.38026 0.95555 0.92475 0.0
C354 C 0.42362 0.95301 0.93761 0.0
H355 H 0.32981 0.93101 0.88474 0.0
H356 H 0.36073 0.98224 0.93478 0.0
S357 S 0.50074 0.86847 0.90739 0.0
N358 N 0.45555 0.85502 0.88256 0.0
N359 N 0.49015 0.91283 0.93376 0.0
C360 C 0.44789 0.91801 0.92375 0.0
C361 C 0.42939 0.88718 0.8953 0.0
C362 C 0.69071 0.43318 0.64213 0.0
C363 C 0.67032 0.39675 0.66025 0.0
C364 C 0.6673 0.4639 0.61872 0.0
C365 C 0.62273 0.45912 0.61197 0.0
H366 H 0.72484 0.4387 0.64719 0.0
H367 H 0.68416 0.49189 0.60618 0.0
S368 S 0.55398 0.36953 0.6521 0.0
N369 N 0.60295 0.35722 0.66874 0.0
N370 N 0.55888 0.41558 0.62574 0.0
C371 C 0.602 0.42261 0.62923 0.0
C372 C 0.6258 0.39132 0.65315 0.0
C373 C 0.90694 0.67309 0.13281 0.0
C374 C 0.86267 0.6654 0.14017 0.0
C375 C 0.9328 0.64263 0.11222 0.0
C376 C 0.91526 0.60334 0.09892 0.0
H377 H 0.92182 0.70242 0.14395 0.0
H378 H 0.96698 0.64902 0.10854 0.0
S379 S 0.80102 0.56867 0.1083 0.0
N380 N 0.80232 0.6164 0.13059 0.0
N381 N 0.85079 0.55939 0.09213 0.0
C382 C 0.87086 0.59603 0.10461 0.0
C383 C 0.84456 0.62703 0.12511 0.0
C384 C 0.38826 0.1329 0.15355 0.0
C385 C 0.38063 0.17702 0.14922 0.0
C386 C 0.41189 0.11083 0.12204 0.0
C387 C 0.4284 0.13205 0.08497 0.0
H388 H 0.37546 0.11525 0.18127 0.0
H389 H 0.41594 0.07668 0.12597 0.0
S390 S 0.41783 0.24734 0.05857 0.0
N391 N 0.39195 0.24111 0.10522 0.0
N392 N 0.43621 0.19965 0.04612 0.0
C393 C 0.42149 0.17619 0.08059 0.0
C394 C 0.39779 0.19869 0.11275 0.0
C395 C 0.12177 0.86673 0.62541 0.0
C396 C 0.13818 0.89213 0.65917 0.0
C397 C 0.09268 0.88334 0.59505 0.0
C398 C 0.07892 0.92593 0.59717 0.0
H399 H 0.13433 0.83508 0.61988 0.0
H400 H 0.08339 0.86361 0.56781 0.0
S401 S 0.10634 0.00328 0.68359 0.0
N402 N 0.13265 0.95956 0.69732 0.0
N403 N 0.08042 0.99181 0.63826 0.0
C404 C 0.09179 0.9504 0.63301 0.0
C405 C 0.12082 0.93318 0.66452 0.0
C406 C 0.90428 0.42079 0.89198 0.0
C407 C 0.89153 0.37817 0.90013 0.0
C408 C 0.92748 0.4442 0.92304 0.0
C409 C 0.93838 0.42595 0.96355 0.0
H410 H 0.89595 0.43626 0.86147 0.0
H411 H 0.93576 0.47719 0.91577 0.0
S412 S 0.9137 0.31509 1.00036 0.0
N413 N 0.8923 0.31848 0.95133 0.0
N414 N 0.93602 0.36221 0.00944 0.0
C415 C 0.92655 0.38311 0.9717 0.0
C416 C 0.9032 0.35927 0.94006 0.0
C417 C 0.62907 0.62851 0.37578 0.0
C418 C 0.6376 0.67262 0.37922 0.0
C419 C 0.60782 0.60574 0.40933 0.0
C420 C 0.59486 0.62623 0.44765 0.0
H421 H 0.63949 0.61138 0.34726 0.0
H422 H 0.6033 0.5716 0.40607 0.0
S423 S 0.60858 0.74131 0.47219 0.0
N424 N 0.63053 0.73593 0.42363 0.0
N425 N 0.59074 0.69331 0.48638 0.0
C426 C 0.60235 0.67043 0.45097 0.0
C427 C 0.6236 0.69359 0.41682 0.0
C428 C 0.12786 0.43034 0.19635 0.0
C429 C 0.1588 0.40629 0.17384 0.0
C430 C 0.09796 0.45576 0.17414 0.0
C431 C 0.09846 0.45925 0.12859 0.0
H432 H 0.12563 0.42836 0.23147 0.0
H433 H 0.07322 0.47164 0.19272 0.0
S434 S 0.17454 0.40636 0.05389 0.0
N435 N 0.18909 0.38972 0.10283 0.0
N436 N 0.13382 0.43902 0.06156 0.0
C437 C 0.13091 0.43803 0.10567 0.0
C438 C 0.16093 0.41129 0.12817 0.0
C439 C 0.66009 0.1466 0.91887 0.0
C440 C 0.65636 0.15642 0.87419 0.0
C441 C 0.62786 0.12303 0.94097 0.0
C442 C 0.59063 0.10881 0.91922 0.0
H443 H 0.68781 0.15779 0.93701 0.0
H444 H 0.63131 0.11747 0.97562 0.0
S445 S 0.566 0.12471 0.8021 0.0
N446 N 0.61285 0.14907 0.80895 0.0
N447 N 0.5528 0.10462 0.85022 0.0
C448 C 0.58716 0.11739 0.87437 0.0
C449 C 0.6199 0.14114 0.85191 0.0
C450 C 0.88952 0.86862 0.40058 0.0
C451 C 0.8685 0.88888 0.36554 0.0
C452 C 0.92154 0.88985 0.42434 0.0
C453 C 0.93331 0.93225 0.41438 0.0
H454 H 0.88225 0.83559 0.40876 0.0
H455 H 0.93772 0.87274 0.45035 0.0
S456 S 0.88807 0.99995 0.32649 0.0
N457 N 0.86114 0.95438 0.32294 0.0
N458 N 0.9221 0.9938 0.36734 0.0
C459 C 0.91218 0.95326 0.38015 0.0
C460 C 0.87959 0.93165 0.35577 0.0
C461 C 0.41551 0.64975 0.67465 0.0
C462 C 0.37887 0.66098 0.65027 0.0
C463 C 0.44646 0.62208 0.65797 0.0
C464 C 0.44211 0.6046 0.61625 0.0
H465 H 0.4221 0.66485 0.7055 0.0
H466 H 0.47523 0.61623 0.67698 0.0
S467 S 0.34934 0.61945 0.54165 0.0
N468 N 0.33707 0.64782 0.58483 0.0
N469 N 0.39676 0.59822 0.55213 0.0
C470 C 0.4042 0.61312 0.59278 0.0
C471 C 0.37223 0.64072 0.61014 0.0
C472 C 0.97084 0.93873 0.71101 0.0
C473 C 0.97672 0.96629 0.74649 0.0
C474 C 0.97517 0.95383 0.66789 0.0
C475 C 0.9844 0.99713 0.65922 0.0
H476 H 0.96168 0.90566 0.71665 0.0
H477 H 0.96884 0.9322 0.64134 0.0
S478 S 0.00553 0.08144 0.74037 0.0
N479 N 0.99495 0.03816 0.76978 0.0
N480 N 0.00207 0.06654 0.68914 0.0
C481 C 0.99204 0.02442 0.69436 0.0
C482 C 0.98848 0.009 0.73794 0.0
C483 C 0.52518 0.13595 0.20149 0.0
C484 C 0.51677 0.11653 0.24228 0.0
C485 C 0.51782 0.11386 0.16285 0.0
C486 C 0.50242 0.07162 0.16398 0.0
H487 H 0.54191 0.1664 0.19928 0.0
H488 H 0.52882 0.12812 0.13248 0.0
S489 S 0.46236 0.01192 0.26059 0.0
N490 N 0.48137 0.05723 0.28024 0.0
N491 N 0.46996 0.01476 0.20743 0.0
C492 C 0.48827 0.05421 0.20371 0.0
C493 C 0.49475 0.07704 0.24299 0.0
C494 C 0.52638 0.54613 0.29894 0.0
C495 C 0.49951 0.58154 0.29126 0.0
C496 C 0.53373 0.5306 0.34113 0.0
C497 C 0.51591 0.55083 0.37732 0.0
H498 H 0.53994 0.52873 0.27199 0.0
H499 H 0.55152 0.50121 0.34532 0.0
S500 S 0.44845 0.64767 0.3765 0.0
N501 N 0.45795 0.63832 0.32461 0.0
N502 N 0.47437 0.61028 0.40395 0.0
C503 C 0.49273 0.58855 0.37078 0.0
C504 C 0.484 0.60377 0.32771 0.0
C505 C 0.04943 0.46852 0.80896 0.0
C506 C 0.06023 0.42579 0.81788 0.0
C507 C 0.03483 0.49524 0.842 0.0
C508 C 0.03075 0.48035 0.88521 0.0
H509 H 0.05563 0.48248 0.77715 0.0
H510 H 0.02998 0.5287 0.83427 0.0
S511 S 0.04667 0.3687 0.92343 0.0
N512 N 0.05827 0.36772 0.87102 0.0
N513 N 0.03357 0.41855 0.9338 0.0
C514 C 0.0373 0.43662 0.8936 0.0
C515 C 0.05147 0.40922 0.85972 0.0
C516 C 0.74013 0.02615 0.01561 0.0
C517 C 0.74693 0.01307 0.97259 0.0
C518 C 0.69872 0.03488 0.03089 0.0
C519 C 0.66246 0.03072 0.00379 0.0
H520 H 0.76679 0.02726 0.03832 0.0
H521 H 0.69476 0.0422 0.06503 0.0
S522 S 0.66376 0.0027 0.88688 0.0
N523 N 0.71489 1.00094 0.90169 0.0
N524 N 0.63657 0.01656 0.93067 0.0
C525 C 0.6692 0.02121 0.95969 0.0
C526 C 0.71162 0.01255 0.94401 0.0
C527 C 0.79011 0.02354 0.44499 0.0
C528 C 0.79046 0.05567 0.41253 0.0
C529 C 0.82801 0.01228 0.46692 0.0
C530 C 0.86734 0.03225 0.45637 0.0
H531 H 0.75986 0.00952 0.45586 0.0
H532 H 0.82597 0.99045 0.49446 0.0
S533 S 0.88672 0.11503 0.37167 0.0
N534 N 0.83454 0.10475 0.36898 0.0
N535 N 0.90551 0.08281 0.40988 0.0
C536 C 0.86887 0.06147 0.42163 0.0
C537 C 0.83044 0.07325 0.39954 0.0
C538 C 0.21754 0.55665 0.10493 0.0
C539 C 0.25324 0.55038 0.07734 0.0
C540 C 0.17511 0.5508 0.08984 0.0
C541 C 0.16723 0.53921 0.04653 0.0
H542 H 0.22243 0.56776 0.13781 0.0
H543 H 0.14847 0.55829 0.11117 0.0
S544 S 0.24892 0.51457 0.96265 0.0
N545 N 0.27736 0.52847 0.00565 0.0
N546 N 0.19798 0.51753 0.9777 0.0
C547 C 0.2025 0.53008 0.01967 0.0
C548 C 0.24545 0.53567 0.03495 0.0
C549 C 0.34559 0.48177 0.62975 0.0
C550 C 0.30655 0.46985 0.60968 0.0
C551 C 0.38051 0.49757 0.60517 0.0
C552 C 0.37755 0.50149 0.55969 0.0
H553 H 0.35016 0.47604 0.66424 0.0
H554 H 0.41102 0.50289 0.6214 0.0
S555 S 0.28002 0.48302 0.49269 0.0
N556 N 0.26518 0.46926 0.54253 0.0
N557 N 0.3306 0.49932 0.49656 0.0
C558 C 0.3373 0.49433 0.54001 0.0
C559 C 0.30178 0.47839 0.56497 0.0
C560 C 0.99924 0.7532 0.01319 0.0
C561 C 0.95539 0.75987 0.00415 0.0
C562 C 0.01572 0.71197 0.0174 0.0
C563 C 0.98899 0.6758 0.01324 0.0
H564 H 0.02164 0.77993 0.01407 0.0
H565 H 0.05019 0.70832 0.02151 0.0
S566 S 0.87088 0.67577 0.99609 0.0
N567 N 0.88457 0.72693 0.99627 0.0
N568 N 0.91598 0.64903 0.0037 0.0
C569 C 0.94459 0.68184 0.00755 0.0
C570 C 0.9277 0.72402 0.00302 0.0
C571 C 0.51099 0.80862 0.02536 0.0
C572 C 0.46894 0.79727 0.03865 0.0
C573 C 0.52373 0.85141 0.02127 0.0
C574 C 0.49463 0.88457 0.0289 0.0
H575 H 0.53509 0.78426 0.02063 0.0
H576 H 0.55728 0.85865 0.01429 0.0
S577 S 0.37921 0.87272 0.0573 0.0
N578 N 0.39691 0.82317 0.05485 0.0
N579 N 0.42086 0.90383 0.04504 0.0
C580 C 0.45146 0.874 0.03767 0.0
C581 C 0.43854 0.83023 0.04289 0.0
C582 C 0.05416 0.23438 0.53659 0.0
C583 C 0.09682 0.22948 0.55086 0.0
C584 C 0.03046 0.19951 0.52109 0.0
C585 C 0.04848 0.15844 0.51969 0.0
H586 H 0.03792 0.26457 0.54078 0.0
H587 H 0.99664 0.20403 0.51375 0.0
S588 S 0.16138 0.13058 0.54665 0.0
N589 N 0.15818 0.18215 0.55686 0.0
N590 N 0.11338 0.1162 0.52858 0.0
C591 C 0.09256 0.15417 0.52933 0.0
C592 C 0.11683 0.18989 0.54482 0.0
C593 C 0.5619 0.30513 0.53085 0.0
C594 C 0.60226 0.30408 0.5099 0.0
C595 C 0.54189 0.34397 0.53939 0.0
C596 C 0.56242 0.38289 0.52909 0.0
H597 H 0.54361 0.27589 0.53625 0.0
H598 H 0.50875 0.34355 0.55057 0.0
S599 S 0.67289 0.39802 0.48608 0.0
N600 N 0.66536 0.34574 0.48711 0.0
N601 N 0.62831 0.41859 0.50596 0.0
C602 C 0.60539 0.38241 0.5152 0.0
C603 C 0.6254 0.34288 0.50511 0.0
loop_
_geom_bond_atom_site_label_1
_geom_bond_atom_site_label_2
_geom_bond_distance
_geom_bond_site_symmetry_2
_ccdc_geom_bond_type
P0 O11 1.490 . S
P0 C14 1.812 . S
P0 C20 1.803 . S
P0 C26 1.819 . S
H1 C15 0.941 . S
H2 C16 0.939 . S
H3 C18 0.940 . S
H4 C19 0.940 . S
H5 C21 0.939 . S
H6 C22 0.942 . S
H7 C24 0.940 . S
H8 C25 0.939 . S
H9 C27 0.941 . S
H10 C31 0.939 . S
O11 P0 1.490 . S
H12 C28 0.939 . S
H13 C30 0.940 . S
C14 P0 1.812 . S
C14 C15 1.389 . S
C14 C19 1.391 . S
C15 H1 0.941 . S
C15 C14 1.389 . S
C15 C16 1.397 . S
C16 H2 0.939 . S
C16 C15 1.397 . S
C16 C17 1.378 . S
C17 C16 1.378 . S
C17 C18 1.378 . S
C18 H3 0.940 . S
C18 C17 1.378 . S
C18 C19 1.396 . S
C19 H4 0.940 . S
C19 C14 1.391 . S
C19 C18 1.396 . S
C20 P0 1.803 . S
C20 C21 1.378 . S
C20 C25 1.400 . S
C21 H5 0.939 . S
C21 C20 1.378 . S
C21 C22 1.361 . S
C22 H6 0.942 . S
C22 C21 1.361 . S
C22 C23 1.369 . S
C23 C22 1.369 . S
C23 C24 1.404 . S
C24 H7 0.940 . S
C24 C23 1.404 . S
C24 C25 1.389 . S
C25 H8 0.939 . S
C25 C20 1.400 . S
C25 C24 1.389 . S
C26 P0 1.819 . S
C26 C27 1.391 . S
C26 C31 1.391 . S
C27 H9 0.941 . S
C27 C26 1.391 . S
C27 C28 1.396 . S
C28 H12 0.939 . S
C28 C27 1.396 . S
C28 C29 1.397 . S
C29 C28 1.397 . S
C29 C30 1.385 . S
C30 H13 0.940 . S
C30 C29 1.385 . S
C30 C31 1.388 . S
C31 H10 0.939 . S
C31 C26 1.391 . S
C31 C30 1.388 . S
P32 O43 1.490 . S
P32 C46 1.812 . S
P32 C52 1.803 . S
P32 C58 1.819 . S
H33 C47 0.941 . S
H34 C48 0.939 . S
H35 C50 0.940 . S
H36 C51 0.940 . S
H37 C53 0.939 . S
H38 C54 0.942 . S
H39 C56 0.940 . S
H40 C57 0.939 . S
H41 C59 0.941 . S
H42 C63 0.939 . S
O43 P32 1.490 . S
H44 C60 0.939 . S
H45 C62 0.940 . S
C46 P32 1.812 . S
C46 C47 1.389 . S
C46 C51 1.391 . S
C47 H33 0.941 . S
C47 C46 1.389 . S
C47 C48 1.397 . S
C48 H34 0.939 . S
C48 C47 1.397 . S
C48 C49 1.378 . S
C49 C48 1.378 . S
C49 C50 1.378 . S
C50 H35 0.940 . S
C50 C49 1.378 . S
C50 C51 1.396 . S
C51 H36 0.940 . S
C51 C46 1.391 . S
C51 C50 1.396 . S
C52 P32 1.803 . S
C52 C53 1.378 . S
C52 C57 1.400 . S
C53 H37 0.939 . S
C53 C52 1.378 . S
C53 C54 1.361 . S
C54 H38 0.942 . S
C54 C53 1.361 . S
C54 C55 1.369 . S
C55 C54 1.369 . S
C55 C56 1.404 . S
C56 H39 0.940 . S
C56 C55 1.404 . S
C56 C57 1.389 . S
C57 H40 0.939 . S
C57 C52 1.400 . S
C57 C56 1.389 . S
C58 P32 1.819 . S
C58 C59 1.391 . S
C58 C63 1.391 . S
C59 H41 0.941 . S
C59 C58 1.391 . S
C59 C60 1.396 . S
C60 H44 0.939 . S
C60 C59 1.396 . S
C60 C61 1.397 . S
C61 C60 1.397 . S
C61 C62 1.385 . S
C62 H45 0.940 . S
C62 C61 1.385 . S
C62 C63 1.388 . S
C63 H42 0.939 . S
C63 C58 1.391 . S
C63 C62 1.388 . S
P64 O75 1.490 . S
P64 C78 1.812 . S
P64 C84 1.803 . S
P64 C90 1.819 . S
H65 C79 0.941 . S
H66 C80 0.939 . S
H67 C82 0.940 . S
H68 C83 0.940 . S
H69 C85 0.939 . S
H70 C86 0.942 . S
H71 C88 0.940 . S
H72 C89 0.939 . S
H73 C91 0.941 . S
H74 C95 0.939 . S
O75 P64 1.490 . S
H76 C92 0.939 . S
H77 C94 0.940 . S
C78 P64 1.812 . S
C78 C79 1.389 . S
C78 C83 1.391 . S
C79 H65 0.941 . S
C79 C78 1.389 . S
C79 C80 1.397 . S
C80 H66 0.939 . S
C80 C79 1.397 . S
C80 C81 1.378 . S
C81 C80 1.378 . S
C81 C82 1.378 . S
C82 H67 0.940 . S
C82 C81 1.378 . S
C82 C83 1.396 . S
C83 H68 0.940 . S
C83 C78 1.391 . S
C83 C82 1.396 . S
C84 P64 1.803 . S
C84 C85 1.378 . S
C84 C89 1.400 . S
C85 H69 0.939 . S
C85 C84 1.378 . S
C85 C86 1.361 . S
C86 H70 0.942 . S
C86 C85 1.361 . S
C86 C87 1.369 . S
C87 C86 1.369 . S
C87 C88 1.404 . S
C88 H71 0.940 . S
C88 C87 1.404 . S
C88 C89 1.389 . S
C89 H72 0.939 . S
C89 C84 1.400 . S
C89 C88 1.389 . S
C90 P64 1.819 . S
C90 C91 1.391 . S
C90 C95 1.391 . S
C91 H73 0.941 . S
C91 C90 1.391 . S
C91 C92 1.396 . S
C92 H76 0.939 . S
C92 C91 1.396 . S
C92 C93 1.397 . S
C93 C92 1.397 . S
C93 C94 1.385 . S
C94 H77 0.940 . S
C94 C93 1.385 . S
C94 C95 1.388 . S
C95 H74 0.939 . S
C95 C90 1.391 . S
C95 C94 1.388 . S
P96 O107 1.490 . S
P96 C110 1.812 . S
P96 C116 1.803 . S
P96 C122 1.819 . S
H97 C111 0.941 . S
H98 C112 0.939 . S
H99 C114 0.940 . S
H100 C115 0.940 . S
H101 C117 0.939 . S
H102 C118 0.942 . S
H103 C120 0.940 . S
H104 C121 0.939 . S
H105 C123 0.941 . S
H106 C127 0.939 . S
O107 P96 1.490 . S
H108 C124 0.939 . S
H109 C126 0.940 . S
C110 P96 1.812 . S
C110 C111 1.389 . S
C110 C115 1.391 . S
C111 H97 0.941 . S
C111 C110 1.389 . S
C111 C112 1.397 . S
C112 H98 0.939 . S
C112 C111 1.397 . S
C112 C113 1.378 . S
C113 C112 1.378 . S
C113 C114 1.378 . S
C114 H99 0.940 . S
C114 C113 1.378 . S
C114 C115 1.396 . S
C115 H100 0.940 . S
C115 C110 1.391 . S
C115 C114 1.396 . S
C116 P96 1.803 . S
C116 C117 1.378 . S
C116 C121 1.400 . S
C117 H101 0.939 . S
C117 C116 1.378 . S
C117 C118 1.361 . S
C118 H102 0.942 . S
C118 C117 1.361 . S
C118 C119 1.369 . S
C119 C118 1.369 . S
C119 C120 1.404 . S
C120 H103 0.940 . S
C120 C119 1.404 . S
C120 C121 1.389 . S
C121 H104 0.939 . S
C121 C116 1.400 . S
C121 C120 1.389 . S
C122 P96 1.819 . S
C122 C123 1.391 . S
C122 C127 1.391 . S
C123 H105 0.941 . S
C123 C122 1.391 . S
C123 C124 1.396 . S
C124 H108 0.939 . S
C124 C123 1.396 . S
C124 C125 1.397 . S
C125 C124 1.397 . S
C125 C126 1.385 . S
C126 H109 0.940 . S
C126 C125 1.385 . S
C126 C127 1.388 . S
C127 H106 0.939 . S
C127 C122 1.391 . S
C127 C126 1.388 . S
P128 O139 1.490 1_556 S
P128 C142 1.812 . S
P128 C148 1.803 . S
P128 C154 1.819 . S
H129 C143 0.941 . S
H130 C144 0.939 1_545 S
H131 C146 0.940 . S
H132 C147 0.940 . S
H133 C149 0.939 1_554 S
H134 C150 0.942 . S
H135 C152 0.940 . S
H136 C153 0.939 . S
H137 C155 0.941 . S
H138 C159 0.939 . S
O139 P128 1.490 1_554 S
H140 C156 0.939 . S
H141 C158 0.940 . S
C142 P128 1.812 . S
C142 C143 1.389 1_556 S
C142 C147 1.391 . S
C143 H129 0.941 . S
C143 C142 1.389 1_554 S
C143 C144 1.397 . S
C144 H130 0.939 1_565 S
C144 C143 1.397 . S
C144 C145 1.378 . S
C145 C144 1.378 . S
C145 C146 1.378 1_554 S
C146 H131 0.940 . S
C146 C145 1.378 1_556 S
C146 C147 1.396 . S
C147 H132 0.940 . S
C147 C142 1.391 . S
C147 C146 1.396 . S
C148 P128 1.803 . S
C148 C149 1.378 1_655 S
C148 C153 1.400 . S
C149 H133 0.939 1_556 S
C149 C148 1.378 1_455 S
C149 C150 1.361 1_556 S
C150 H134 0.942 . S
C150 C149 1.361 1_554 S
C150 C151 1.369 1_454 S
C151 C150 1.369 1_656 S
C151 C152 1.404 . S
C152 H135 0.940 . S
C152 C151 1.404 . S
C152 C153 1.389 . S
C153 H136 0.939 . S
C153 C148 1.400 . S
C153 C152 1.389 . S
C154 P128 1.819 . S
C154 C155 1.391 1_565 S
C154 C159 1.391 . S
C155 H137 0.941 . S
C155 C154 1.391 1_545 S
C155 C156 1.396 . S
C156 H140 0.939 . S
C156 C155 1.396 . S
C156 C157 1.386 1_545 S
C157 C156 1.386 1_565 S
C157 C158 1.399 . S
C158 H141 0.940 . S
C158 C157 1.399 . S
C158 C159 1.388 . S
C159 H138 0.939 . S
C159 C154 1.391 . S
C159 C158 1.388 . S
P160 O171 1.490 . S
P160 C174 1.812 . S
P160 C180 1.803 . S
P160 C186 1.819 . S
H161 C175 0.941 . S
H162 C176 0.939 . S
H163 C178 0.940 . S
H164 C179 0.940 . S
H165 C181 0.939 . S
H166 C182 0.942 . S
H167 C184 0.940 . S
H168 C185 0.939 . S
H169 C187 0.941 . S
H170 C191 0.939 . S
O171 P160 1.490 . S
H172 C188 0.939 . S
H173 C190 0.940 . S
C174 P160 1.812 . S
C174 C175 1.389 . S
C174 C179 1.391 . S
C175 H161 0.941 . S
C175 C174 1.389 . S
C175 C176 1.397 . S
C176 H162 0.939 . S
C176 C175 1.397 . S
C176 C177 1.378 . S
C177 C176 1.378 . S
C177 C178 1.378 . S
C178 H163 0.940 . S
C178 C177 1.378 . S
C178 C179 1.396 . S
C179 H164 0.940 . S
C179 C174 1.391 . S
C179 C178 1.396 . S
C180 P160 1.803 . S
C180 C181 1.378 . S
C180 C185 1.400 . S
C181 H165 0.939 . S
C181 C180 1.378 . S
C181 C182 1.361 . S
C182 H166 0.942 . S
C182 C181 1.361 . S
C182 C183 1.369 . S
C183 C182 1.369 . S
C183 C184 1.404 . S
C184 H167 0.940 . S
C184 C183 1.404 . S
C184 C185 1.389 . S
C185 H168 0.939 . S
C185 C180 1.400 . S
C185 C184 1.389 . S
C186 P160 1.819 . S
C186 C187 1.391 . S
C186 C191 1.391 . S
C187 H169 0.941 . S
C187 C186 1.391 . S
C187 C188 1.396 . S
C188 H172 0.939 . S
C188 C187 1.396 . S
C188 C189 1.397 . S
C189 C188 1.397 . S
C189 C190 1.385 . S
C190 H173 0.940 . S
C190 C189 1.385 . S
C190 C191 1.388 . S
C191 H170 0.939 . S
C191 C186 1.391 . S
C191 C190 1.388 . S
P192 O203 1.490 . S
P192 C206 1.812 . S
P192 C212 1.803 . S
P192 C218 1.819 . S
H193 C207 0.941 1_556 S
H194 C208 0.939 1_556 S
H195 C210 0.940 . S
H196 C211 0.940 . S
H197 C213 0.939 . S
H198 C214 0.942 . S
H199 C216 0.940 . S
H200 C217 0.939 . S
H201 C219 0.941 . S
H202 C223 0.939 . S
O203 P192 1.490 . S
H204 C220 0.939 . S
H205 C222 0.940 . S
C206 P192 1.812 . S
C206 C207 1.389 . S
C206 C211 1.391 . S
C207 H193 0.941 1_554 S
C207 C206 1.389 . S
C207 C208 1.397 . S
C208 H194 0.939 1_554 S
C208 C207 1.397 . S
C208 C209 1.378 . S
C209 C208 1.378 . S
C209 C210 1.378 . S
C210 H195 0.940 . S
C210 C209 1.378 . S
C210 C211 1.396 . S
C211 H196 0.940 . S
C211 C206 1.391 . S
C211 C210 1.396 . S
C212 P192 1.803 . S
C212 C213 1.378 . S
C212 C217 1.400 . S
C213 H197 0.939 . S
C213 C212 1.378 . S
C213 C214 1.361 . S
C214 H198 0.942 . S
C214 C213 1.361 . S
C214 C215 1.369 . S
C215 C214 1.369 . S
C215 C216 1.404 . S
C216 H199 0.940 . S
C216 C215 1.404 . S
C216 C217 1.389 . S
C217 H200 0.939 . S
C217 C212 1.400 . S
C217 C216 1.389 . S
C218 P192 1.819 . S
C218 C219 1.391 . S
C218 C223 1.391 . S
C219 H201 0.941 . S
C219 C218 1.391 . S
C219 C220 1.396 . S
C220 H204 0.939 . S
C220 C219 1.396 . S
C220 C221 1.397 . S
C221 C220 1.397 . S
C221 C222 1.385 . S
C222 H205 0.940 . S
C222 C221 1.385 . S
C222 C223 1.388 . S
C223 H202 0.939 . S
C223 C218 1.391 . S
C223 C222 1.388 . S
P224 O235 1.490 . S
P224 C238 1.812 . S
P224 C244 1.803 . S
P224 C250 1.819 . S
H225 C239 0.941 . S
H226 C240 0.939 . S
H227 C242 0.940 . S
H228 C243 0.940 . S
H229 C245 0.939 . S
H230 C246 0.942 . S
H231 C248 0.940 . S
H232 C249 0.939 . S
H233 C251 0.941 . S
H234 C255 0.939 . S
O235 P224 1.490 . S
H236 C252 0.939 . S
H237 C254 0.940 . S
C238 P224 1.812 . S
C238 C239 1.389 . S
C238 C243 1.391 . S
C239 H225 0.941 . S
C239 C238 1.389 . S
C239 C240 1.397 . S
C240 H226 0.939 . S
C240 C239 1.397 . S
C240 C241 1.378 . S
C241 C240 1.378 . S
C241 C242 1.378 . S
C242 H227 0.940 . S
C242 C241 1.378 . S
C242 C243 1.396 . S
C243 H228 0.940 . S
C243 C238 1.391 . S
C243 C242 1.396 . S
C244 P224 1.803 . S
C244 C245 1.378 . S
C244 C249 1.400 . S
C245 H229 0.939 . S
C245 C244 1.378 . S
C245 C246 1.361 . S
C246 H230 0.942 . S
C246 C245 1.361 . S
C246 C247 1.369 . S
C247 C246 1.369 . S
C247 C248 1.404 . S
C248 H231 0.940 . S
C248 C247 1.404 . S
C248 C249 1.389 . S
C249 H232 0.939 . S
C249 C244 1.400 . S
C249 C248 1.389 . S
C250 P224 1.819 . S
C250 C251 1.391 . S
C250 C255 1.391 . S
C251 H233 0.941 . S
C251 C250 1.391 . S
C251 C252 1.396 . S
C252 H236 0.939 . S
C252 C251 1.396 . S
C252 C253 1.397 . S
C253 C252 1.397 . S
C253 C254 1.385 . S
C254 H237 0.940 . S
C254 C253 1.385 . S
C254 C255 1.388 . S
C255 H234 0.939 . S
C255 C250 1.391 . S
C255 C254 1.388 . S
Zn256 O262 1.920 . S
Zn256 O268 1.898 . S
Zn256 O271 1.905 . S
Zn257 O265 1.905 1_565 S
Zn257 O266 1.898 . S
Zn257 O274 1.920 . S
Zn258 O261 2.080 1_455 S
Zn258 O264 2.114 . S
Zn258 O267 2.120 1_445 S
Zn258 O269 2.120 . S
Zn258 O270 2.114 1_455 S
Zn258 O273 2.080 . S
C259 O264 1.166 . S
C259 O265 1.182 . S
C260 O266 1.167 1_655 S
C260 O267 1.299 . S
O261 Zn258 2.080 1_655 S
O261 C275 1.305 . S
O262 Zn256 1.920 . S
O262 C275 1.234 . S
C263 O268 1.167 1_455 S
C263 O269 1.299 . S
O264 Zn258 2.114 . S
O264 C259 1.166 . S
O265 Zn257 1.905 1_545 S
O265 C259 1.182 . S
O266 Zn257 1.898 . S
O266 C260 1.167 1_455 S
O267 Zn258 2.120 1_665 S
O267 C260 1.299 . S
O268 Zn256 1.898 . S
O268 C263 1.167 1_655 S
O269 Zn258 2.120 . S
O269 C263 1.299 . S
O270 Zn258 2.114 1_655 S
O270 C272 1.166 . S
O271 Zn256 1.905 . S
O271 C272 1.182 . S
C272 O270 1.166 . S
C272 O271 1.182 . S
O273 Zn258 2.080 . S
O273 C276 1.305 1_545 S
O274 Zn257 1.920 . S
O274 C276 1.234 . S
C275 O261 1.305 . S
C275 O262 1.234 . S
C276 O273 1.305 1_565 S
C276 O274 1.234 . S
Zn277 O283 1.920 1_556 S
Zn277 O289 1.898 . S
Zn277 O292 1.905 . S
Zn278 O286 1.905 . S
Zn278 O287 1.898 . S
Zn278 O295 1.920 . S
Zn279 O282 2.080 . S
Zn279 O285 2.114 1_545 S
Zn279 O288 2.120 1_545 S
Zn279 O290 2.120 . S
Zn279 O291 2.114 1_544 S
Zn279 O294 2.080 . S
C280 O285 1.166 . S
C280 O286 1.182 . S
C281 O287 1.167 . S
C281 O288 1.299 . S
O282 Zn279 2.080 . S
O282 C296 1.305 . S
O283 Zn277 1.920 1_554 S
O283 C296 1.234 . S
C284 O289 1.167 . S
C284 O290 1.299 1_556 S
O285 Zn279 2.114 1_565 S
O285 C280 1.166 . S
O286 Zn278 1.905 . S
O286 C280 1.182 . S
O287 Zn278 1.898 . S
O287 C281 1.167 . S
O288 Zn279 2.120 1_565 S
O288 C281 1.299 . S
O289 Zn277 1.898 . S
O289 C284 1.167 . S
O290 Zn279 2.120 . S
O290 C284 1.299 1_554 S
O291 Zn279 2.114 1_566 S
O291 C293 1.166 . S
O292 Zn277 1.905 . S
O292 C293 1.182 1_545 S
C293 O291 1.166 . S
C293 O292 1.182 1_565 S
O294 Zn279 2.080 . S
O294 C297 1.305 . S
O295 Zn278 1.920 . S
O295 C297 1.234 1_565 S
C296 O282 1.305 . S
C296 O283 1.234 . S
C297 O294 1.305 . S
C297 O295 1.234 1_545 S
Zn298 O304 1.920 . S
Zn298 O310 1.898 . S
Zn298 O313 1.905 . S
Zn299 O307 1.905 . S
Zn299 O308 1.898 . S
Zn299 O316 1.920 . S
Zn300 O303 2.080 . S
Zn300 O306 2.114 . S
Zn300 O309 2.120 . S
Zn300 O311 2.120 . S
Zn300 O312 2.114 . S
Zn300 O315 2.080 . S
C301 O306 1.166 . S
C301 O307 1.182 . S
C302 O308 1.167 . S
C302 O309 1.299 . S
O303 Zn300 2.080 . S
O303 C317 1.305 . S
O304 Zn298 1.920 . S
O304 C317 1.234 . S
C305 O310 1.167 . S
C305 O311 1.299 . S
O306 Zn300 2.114 . S
O306 C301 1.166 . S
O307 Zn299 1.905 . S
O307 C301 1.182 . S
O308 Zn299 1.898 . S
O308 C302 1.167 . S
O309 Zn300 2.120 . S
O309 C302 1.299 . S
O310 Zn298 1.898 . S
O310 C305 1.167 . S
O311 Zn300 2.120 . S
O311 C305 1.299 . S
O312 Zn300 2.114 . S
O312 C314 1.166 . S
O313 Zn298 1.905 . S
O313 C314 1.182 . S
C314 O312 1.166 . S
C314 O313 1.182 . S
O315 Zn300 2.080 . S
O315 C318 1.305 . S
O316 Zn299 1.920 . S
O316 C318 1.234 . S
C317 O303 1.305 . S
C317 O304 1.234 . S
C318 O315 1.305 . S
C318 O316 1.234 . S
Zn319 O325 1.920 . S
Zn319 O331 1.898 . S
Zn319 O334 1.905 . S
Zn320 O328 1.905 1_655 S
Zn320 O329 1.898 . S
Zn320 O337 1.920 . S
Zn321 O324 2.080 1_554 S
Zn321 O327 2.114 . S
Zn321 O330 2.120 1_454 S
Zn321 O332 2.120 . S
Zn321 O333 2.114 1_554 S
Zn321 O336 2.080 . S
C322 O327 1.166 . S
C322 O328 1.182 . S
C323 O329 1.167 1_556 S
C323 O330 1.299 . S
O324 Zn321 2.080 1_556 S
O324 C338 1.305 . S
O325 Zn319 1.920 . S
O325 C338 1.234 . S
C326 O331 1.167 1_554 S
C326 O332 1.299 . S
O327 Zn321 2.114 . S
O327 C322 1.166 . S
O328 Zn320 1.905 1_455 S
O328 C322 1.182 . S
O329 Zn320 1.898 . S
O329 C323 1.167 1_554 S
O330 Zn321 2.120 1_656 S
O330 C323 1.299 . S
O331 Zn319 1.898 . S
O331 C326 1.167 1_556 S
O332 Zn321 2.120 . S
O332 C326 1.299 . S
O333 Zn321 2.114 1_556 S
O333 C335 1.166 . S
O334 Zn319 1.905 . S
O334 C335 1.182 . S
C335 O333 1.166 . S
C335 O334 1.182 . S
O336 Zn321 2.080 . S
O336 C339 1.305 1_455 S
O337 Zn320 1.920 . S
O337 C339 1.234 . S
C338 O324 1.305 . S
C338 O325 1.234 . S
C339 O336 1.305 1_655 S
C339 O337 1.234 . S
C340 C341 1.369 . S
C340 C342 1.419 . S
C340 H344 0.930 . S
C341 C340 1.369 . S
C341 C350 1.429 . S
C342 C340 1.419 . S
C342 C343 1.363 . S
C342 H345 0.929 . S
C343 C342 1.363 . S
C343 C349 1.428 . S
H344 C340 0.930 . S
H345 C342 0.929 . S
S346 N347 1.613 . S
S346 N348 1.610 . S
N347 S346 1.613 . S
N347 C350 1.350 . S
N348 S346 1.610 . S
N348 C349 1.351 . S
C349 C343 1.428 . S
C349 N348 1.351 . S
C349 C350 1.434 . S
C350 C341 1.429 . S
C350 N347 1.350 . S
C350 C349 1.434 . S
C351 C352 1.369 . S
C351 C353 1.419 . S
C351 H355 0.930 . S
C352 C351 1.369 . S
C352 C361 1.429 . S
C353 C351 1.419 . S
C353 C354 1.363 . S
C353 H356 0.929 . S
C354 C353 1.363 . S
C354 C360 1.428 . S
H355 C351 0.930 . S
H356 C353 0.929 . S
S357 N358 1.613 . S
S357 N359 1.610 . S
N358 S357 1.613 . S
N358 C361 1.350 . S
N359 S357 1.610 . S
N359 C360 1.351 . S
C360 C354 1.428 . S
C360 N359 1.351 . S
C360 C361 1.434 . S
C361 C352 1.429 . S
C361 N358 1.350 . S
C361 C360 1.434 . S
C362 C363 1.369 . S
C362 C364 1.419 . S
C362 H366 0.930 . S
C363 C362 1.369 . S
C363 C372 1.429 . S
C364 C362 1.419 . S
C364 C365 1.363 . S
C364 H367 0.929 . S
C365 C364 1.363 . S
C365 C371 1.428 . S
H366 C362 0.930 . S
H367 C364 0.929 . S
S368 N369 1.613 . S
S368 N370 1.610 . S
N369 S368 1.613 . S
N369 C372 1.350 . S
N370 S368 1.610 . S
N370 C371 1.351 . S
C371 C365 1.428 . S
C371 N370 1.351 . S
C371 C372 1.434 . S
C372 C363 1.429 . S
C372 N369 1.350 . S
C372 C371 1.434 . S
C373 C374 1.369 . S
C373 C375 1.419 . S
C373 H377 0.930 . S
C374 C373 1.369 . S
C374 C383 1.429 . S
C375 C373 1.419 . S
C375 C376 1.363 . S
C375 H378 0.929 . S
C376 C375 1.363 . S
C376 C382 1.428 . S
H377 C373 0.930 . S
H378 C375 0.929 . S
S379 N380 1.613 . S
S379 N381 1.610 . S
N380 S379 1.613 . S
N380 C383 1.350 . S
N381 S379 1.610 . S
N381 C382 1.351 . S
C382 C376 1.428 . S
C382 N381 1.351 . S
C382 C383 1.434 . S
C383 C374 1.429 . S
C383 N380 1.350 . S
C383 C382 1.434 . S
C384 C385 1.369 . S
C384 C386 1.419 . S
C384 H388 0.930 . S
C385 C384 1.369 . S
C385 C394 1.429 . S
C386 C384 1.419 . S
C386 C387 1.363 . S
C386 H389 0.929 . S
C387 C386 1.363 . S
C387 C393 1.428 . S
H388 C384 0.930 . S
H389 C386 0.929 . S
S390 N391 1.613 . S
S390 N392 1.610 . S
N391 S390 1.613 . S
N391 C394 1.350 . S
N392 S390 1.610 . S
N392 C393 1.351 . S
C393 C387 1.428 . S
C393 N392 1.351 . S
C393 C394 1.434 . S
C394 C385 1.429 . S
C394 N391 1.350 . S
C394 C393 1.434 . S
C395 C396 1.369 . S
C395 C397 1.419 . S
C395 H399 0.930 . S
C396 C395 1.369 . S
C396 C405 1.429 . S
C397 C395 1.419 . S
C397 C398 1.363 . S
C397 H400 0.929 . S
C398 C397 1.363 . S
C398 C404 1.428 . S
H399 C395 0.930 . S
H400 C397 0.929 . S
S401 N402 1.613 . S
S401 N403 1.610 . S
N402 S401 1.613 . S
N402 C405 1.350 1_545 S
N403 S401 1.610 . S
N403 C404 1.351 1_545 S
C404 C398 1.428 . S
C404 N403 1.351 1_565 S
C404 C405 1.434 . S
C405 C396 1.429 . S
C405 N402 1.350 1_565 S
C405 C404 1.434 . S
C406 C407 1.369 . S
C406 C408 1.419 . S
C406 H410 0.930 . S
C407 C406 1.369 . S
C407 C416 1.429 . S
C408 C406 1.419 . S
C408 C409 1.363 . S
C408 H411 0.929 . S
C409 C408 1.363 . S
C409 C415 1.428 . S
H410 C406 0.930 . S
H411 C408 0.929 . S
S412 N413 1.613 1_554 S
S412 N414 1.610 . S
N413 S412 1.613 1_556 S
N413 C416 1.350 . S
N414 S412 1.610 . S
N414 C415 1.351 1_554 S
C415 C409 1.428 . S
C415 N414 1.351 1_556 S
C415 C416 1.434 . S
C416 C407 1.429 . S
C416 N413 1.350 . S
C416 C415 1.434 . S
C417 C418 1.369 . S
C417 C419 1.419 . S
C417 H421 0.930 . S
C418 C417 1.369 . S
C418 C427 1.429 . S
C419 C417 1.419 . S
C419 C420 1.363 . S
C419 H422 0.929 . S
C420 C419 1.363 . S
C420 C426 1.428 . S
H421 C417 0.930 . S
H422 C419 0.929 . S
S423 N424 1.613 . S
S423 N425 1.610 . S
N424 S423 1.613 . S
N424 C427 1.350 . S
N425 S423 1.610 . S
N425 C426 1.351 . S
C426 C420 1.428 . S
C426 N425 1.351 . S
C426 C427 1.434 . S
C427 C418 1.429 . S
C427 N424 1.350 . S
C427 C426 1.434 . S
C428 C429 1.369 . S
C428 C430 1.419 . S
C428 H432 0.930 . S
C429 C428 1.369 . S
C429 C438 1.429 . S
C430 C428 1.419 . S
C430 C431 1.363 . S
C430 H433 0.929 . S
C431 C430 1.363 . S
C431 C437 1.428 . S
H432 C428 0.930 . S
H433 C430 0.929 . S
S434 N435 1.613 . S
S434 N436 1.610 . S
N435 S434 1.613 . S
N435 C438 1.350 . S
N436 S434 1.610 . S
N436 C437 1.351 . S
C437 C431 1.428 . S
C437 N436 1.351 . S
C437 C438 1.434 . S
C438 C429 1.429 . S
C438 N435 1.350 . S
C438 C437 1.434 . S
C439 C440 1.369 . S
C439 C441 1.419 . S
C439 H443 0.930 . S
C440 C439 1.369 . S
C440 C449 1.429 . S
C441 C439 1.419 . S
C441 C442 1.363 . S
C441 H444 0.929 1_556 S
C442 C441 1.363 . S
C442 C448 1.428 . S
H443 C439 0.930 . S
H444 C441 0.929 1_554 S
S445 N446 1.613 . S
S445 N447 1.610 . S
N446 S445 1.613 . S
N446 C449 1.350 . S
N447 S445 1.610 . S
N447 C448 1.351 . S
C448 C442 1.428 . S
C448 N447 1.351 . S
C448 C449 1.434 . S
C449 C440 1.429 . S
C449 N446 1.350 . S
C449 C448 1.434 . S
C450 C451 1.369 . S
C450 C452 1.419 . S
C450 H454 0.930 . S
C451 C450 1.369 . S
C451 C460 1.429 . S
C452 C450 1.419 . S
C452 C453 1.363 . S
C452 H455 0.929 . S
C453 C452 1.363 . S
C453 C459 1.428 . S
H454 C450 0.930 . S
H455 C452 0.929 . S
S456 N457 1.613 . S
S456 N458 1.610 . S
N457 S456 1.613 . S
N457 C460 1.350 . S
N458 S456 1.610 . S
N458 C459 1.351 . S
C459 C453 1.428 . S
C459 N458 1.351 . S
C459 C460 1.434 . S
C460 C451 1.429 . S
C460 N457 1.350 . S
C460 C459 1.434 . S
C461 C462 1.369 . S
C461 C463 1.419 . S
C461 H465 0.930 . S
C462 C461 1.369 . S
C462 C471 1.429 . S
C463 C461 1.419 . S
C463 C464 1.363 . S
C463 H466 0.929 . S
C464 C463 1.363 . S
C464 C470 1.428 . S
H465 C461 0.930 . S
H466 C463 0.929 . S
S467 N468 1.613 . S
S467 N469 1.610 . S
N468 S467 1.613 . S
N468 C471 1.350 . S
N469 S467 1.610 . S
N469 C470 1.351 . S
C470 C464 1.428 . S
C470 N469 1.351 . S
C470 C471 1.434 . S
C471 C462 1.429 . S
C471 N468 1.350 . S
C471 C470 1.434 . S
C472 C473 1.369 1_465 S
C472 C474 1.419 . S
C472 H476 0.930 . S
C473 C472 1.369 1_645 S
C473 C482 1.429 . S
C474 C472 1.419 . S
C474 C475 1.363 1_465 S
C474 H477 0.929 . S
C475 C474 1.363 1_645 S
C475 C481 1.428 . S
H476 C472 0.930 . S
H477 C474 0.929 . S
S478 N479 1.613 . S
S478 N480 1.610 . S
N479 S478 1.613 . S
N479 C482 1.350 . S
N480 S478 1.610 . S
N480 C481 1.351 . S
C481 C475 1.428 . S
C481 N480 1.351 . S
C481 C482 1.434 . S
C482 C473 1.429 . S
C482 N479 1.350 . S
C482 C481 1.434 . S
C483 C484 1.369 . S
C483 C485 1.419 . S
C483 H487 0.930 . S
C484 C483 1.369 . S
C484 C493 1.429 . S
C485 C483 1.419 . S
C485 C486 1.363 . S
C485 H488 0.929 . S
C486 C485 1.363 . S
C486 C492 1.428 . S
H487 C483 0.930 . S
H488 C485 0.929 . S
S489 N490 1.613 1_565 S
S489 N491 1.610 1_565 S
N490 S489 1.613 1_545 S
N490 C493 1.350 . S
N491 S489 1.610 1_545 S
N491 C492 1.351 . S
C492 C486 1.428 . S
C492 N491 1.351 . S
C492 C493 1.434 . S
C493 C484 1.429 . S
C493 N490 1.350 . S
C493 C492 1.434 . S
C494 C495 1.369 . S
C494 C496 1.419 . S
C494 H498 0.930 . S
C495 C494 1.369 . S
C495 C504 1.429 . S
C496 C494 1.419 . S
C496 C497 1.363 . S
C496 H499 0.929 . S
C497 C496 1.363 . S
C497 C503 1.428 . S
H498 C494 0.930 . S
H499 C496 0.929 . S
S500 N501 1.613 . S
S500 N502 1.610 . S
N501 S500 1.613 . S
N501 C504 1.350 . S
N502 S500 1.610 . S
N502 C503 1.351 . S
C503 C497 1.428 . S
C503 N502 1.351 . S
C503 C504 1.434 . S
C504 C495 1.429 . S
C504 N501 1.350 . S
C504 C503 1.434 . S
C505 C506 1.369 . S
C505 C507 1.419 . S
C505 H509 0.930 . S
C506 C505 1.369 . S
C506 C515 1.429 . S
C507 C505 1.419 . S
C507 C508 1.363 . S
C507 H510 0.929 . S
C508 C507 1.363 . S
C508 C514 1.428 . S
H509 C505 0.930 . S
H510 C507 0.929 . S
S511 N512 1.613 . S
S511 N513 1.610 . S
N512 S511 1.613 . S
N512 C515 1.350 . S
N513 S511 1.610 . S
N513 C514 1.351 . S
C514 C508 1.428 . S
C514 N513 1.351 . S
C514 C515 1.434 . S
C515 C506 1.429 . S
C515 N512 1.350 . S
C515 C514 1.434 . S
C516 C517 1.369 1_545 S
C516 C518 1.419 . S
C516 H520 0.930 . S
C517 C516 1.369 1_565 S
C517 C526 1.429 1_554 S
C518 C516 1.419 . S
C518 C519 1.363 1_545 S
C518 H521 0.929 . S
C519 C518 1.363 1_565 S
C519 C525 1.428 1_554 S
H520 C516 0.930 . S
H521 C518 0.929 . S
S522 N523 1.613 . S
S522 N524 1.610 . S
N523 S522 1.613 . S
N523 C526 1.350 . S
N524 S522 1.610 . S
N524 C525 1.351 . S
C525 C519 1.428 1_556 S
C525 N524 1.351 . S
C525 C526 1.434 . S
C526 C517 1.429 1_556 S
C526 N523 1.350 . S
C526 C525 1.434 . S
C527 C528 1.369 . S
C527 C529 1.419 . S
C527 H531 0.930 1_545 S
C528 C527 1.369 . S
C528 C537 1.429 . S
C529 C527 1.419 . S
C529 C530 1.363 . S
C529 H532 0.929 1_545 S
C530 C529 1.363 . S
C530 C536 1.428 . S
H531 C527 0.930 1_565 S
H532 C529 0.929 1_565 S
S533 N534 1.613 . S
S533 N535 1.610 . S
N534 S533 1.613 . S
N534 C537 1.350 . S
N535 S533 1.610 . S
N535 C536 1.351 . S
C536 C530 1.428 . S
C536 N535 1.351 . S
C536 C537 1.434 . S
C537 C528 1.429 . S
C537 N534 1.350 . S
C537 C536 1.434 . S
C538 C539 1.369 . S
C538 C540 1.419 . S
C538 H542 0.930 . S
C539 C538 1.369 . S
C539 C548 1.429 . S
C540 C538 1.419 . S
C540 C541 1.363 . S
C540 H543 0.929 . S
C541 C540 1.363 . S
C541 C547 1.428 . S
H542 C538 0.930 . S
H543 C540 0.929 . S
S544 N545 1.613 . S
S544 N546 1.610 . S
N545 S544 1.613 . S
N545 C548 1.350 1_556 S
N546 S544 1.610 . S
N546 C547 1.351 1_556 S
C547 C541 1.428 . S
C547 N546 1.351 1_554 S
C547 C548 1.434 . S
C548 C539 1.429 . S
C548 N545 1.350 1_554 S
C548 C547 1.434 . S
C549 C550 1.369 . S
C549 C551 1.419 . S
C549 H553 0.930 . S
C550 C549 1.369 . S
C550 C559 1.429 . S
C551 C549 1.419 . S
C551 C552 1.363 . S
C551 H554 0.929 . S
C552 C551 1.363 . S
C552 C558 1.428 . S
H553 C549 0.930 . S
H554 C551 0.929 . S
S555 N556 1.613 . S
S555 N557 1.610 . S
N556 S555 1.613 . S
N556 C559 1.350 . S
N557 S555 1.610 . S
N557 C558 1.351 . S
C558 C552 1.428 . S
C558 N557 1.351 . S
C558 C559 1.434 . S
C559 C550 1.429 . S
C559 N556 1.350 . S
C559 C558 1.434 . S
C560 C561 1.379 1_554 S
C560 C562 1.420 . S
C560 H564 0.930 . S
C561 C560 1.379 1_556 S
C561 C570 1.419 1_455 S
C562 C560 1.420 . S
C562 C563 1.357 1_554 S
C562 H565 0.935 . S
C563 C562 1.357 1_556 S
C563 C569 1.428 1_455 S
H564 C560 0.930 . S
H565 C562 0.935 . S
S566 N567 1.613 . S
S566 N568 1.610 . S
N567 S566 1.613 . S
N567 C570 1.350 . S
N568 S566 1.610 . S
N568 C569 1.351 . S
C569 C563 1.428 1_655 S
C569 N568 1.351 . S
C569 C570 1.434 . S
C570 C561 1.419 1_655 S
C570 N567 1.350 . S
C570 C569 1.434 . S
C571 C572 1.369 . S
C571 C573 1.419 . S
C571 H575 0.930 1_554 S
C572 C571 1.369 . S
C572 C581 1.429 . S
C573 C571 1.419 . S
C573 C574 1.363 . S
C573 H576 0.929 1_554 S
C574 C573 1.363 . S
C574 C580 1.428 . S
H575 C571 0.930 1_556 S
H576 C573 0.929 1_556 S
S577 N578 1.613 . S
S577 N579 1.610 . S
N578 S577 1.613 . S
N578 C581 1.350 . S
N579 S577 1.610 . S
N579 C580 1.351 . S
C580 C574 1.428 . S
C580 N579 1.351 . S
C580 C581 1.434 . S
C581 C572 1.429 . S
C581 N578 1.350 . S
C581 C580 1.434 . S
C582 C583 1.369 1_655 S
C582 C584 1.419 . S
C582 H586 0.930 . S
C583 C582 1.369 1_455 S
C583 C592 1.429 . S
C584 C582 1.419 . S
C584 C585 1.363 1_655 S
C584 H587 0.929 . S
C585 C584 1.363 1_455 S
C585 C591 1.428 . S
H586 C582 0.930 . S
H587 C584 0.929 . S
S588 N589 1.613 . S
S588 N590 1.610 . S
N589 S588 1.613 . S
N589 C592 1.350 . S
N590 S588 1.610 . S
N590 C591 1.351 . S
C591 C585 1.428 . S
C591 N590 1.351 . S
C591 C592 1.434 . S
C592 C583 1.429 . S
C592 N589 1.350 . S
C592 C591 1.434 . S
C593 C594 1.369 . S
C593 C595 1.419 . S
C593 H597 0.930 . S
C594 C593 1.369 . S
C594 C603 1.429 . S
C595 C593 1.419 . S
C595 C596 1.363 . S
C595 H598 0.929 . S
C596 C595 1.363 . S
C596 C602 1.428 . S
H597 C593 0.930 . S
H598 C595 0.929 . S
S599 N600 1.613 . S
S599 N601 1.610 . S
N600 S599 1.613 . S
N600 C603 1.350 . S
N601 S599 1.610 . S
N601 C602 1.351 . S
C602 C596 1.428 . S
C602 N601 1.351 . S
C602 C603 1.434 . S
C603 C594 1.429 . S
C603 N600 1.350 . S
C603 C602 1.434 . S
C341 C29 1.542 . S
C343 C259 1.466 . S
C352 C49 1.462 . S
C354 C293 1.391 . S
C365 C305 1.430 . S
C363 C93 1.498 . S
C374 C119 1.450 . S
C376 C339 1.371 . S
C387 C296 1.423 . S
C385 C17 1.485 . S
C398 C276 1.440 . S
C396 C61 1.509 . S
C409 C323 1.388 . S
C407 C81 1.457 . S
C420 C314 1.430 . S
C418 C125 1.511 . S
C429 C23 1.484 . S
C431 C322 1.397 . S
C442 C284 1.372 . S
C440 C87 1.461 . S
C451 C113 1.512 . S
C453 C260 1.444 . S
C462 C55 1.485 . S
C464 C317 1.421 . S
C475 C275 1.568 . S
C473 C157 1.713 1_545 S
C484 C189 1.528 . S
C486 C297 1.590 . S
C495 C221 1.739 . S
C497 C302 1.593 . S
C506 C253 1.544 . S
C508 C335 1.631 . S
C517 C145 1.757 . S
C519 C280 1.636 . S
C530 C272 1.583 . S
C528 C183 1.520 . S
C541 C326 1.613 . S
C539 C209 1.746 . S
C552 C318 1.569 . S
C550 C247 1.516 . S
C561 C151 1.722 1_455 S
C563 C338 1.596 . S
C574 C281 1.596 . S
C572 C215 1.742 . S
C585 C263 1.598 . S
C583 C241 1.556 . S
C594 C177 1.571 . S
C596 C301 1.624 . S
