# Generated by pormake.
# Topology zzz, (3,6)-cn, num edge types: 1
# Building blocks:
#     Node 0, Type 0, BuildingBlock: KAKCAD_clean_linker_0, # of connection points: 3
#     Node 1, Type 0, BuildingBlock: KAKCAD_clean_linker_0, # of connection points: 3
#     Node 2, Type 0, BuildingBlock: KAKCAD_clean_linker_0, # of connection points: 3
#     Node 3, Type 0, BuildingBlock: KAKCAD_clean_linker_0, # of connection points: 3
#     Node 4, Type 0, BuildingBlock: KAKCAD_clean_linker_0, # of connection points: 3
#     Node 5, Type 0, BuildingBlock: KAKCAD_clean_linker_0, # of connection points: 3
#     Node 6, Type 0, BuildingBlock: KAKCAD_clean_linker_0, # of connection points: 3
#     Node 7, Type 0, BuildingBlock: KAKCAD_clean_linker_0, # of connection points: 3
#     Node 8, Type 1, BuildingBlock: KUMJIN_clean_sbu_1, # of connection points: 6
#     Node 9, Type 1, BuildingBlock: KUMJIN_clean_sbu_1, # of connection points: 6
#     Node 10, Type 1, BuildingBlock: KUMJIN_clean_sbu_1, # of connection points: 6
#     Node 11, Type 1, BuildingBlock: KUMJIN_clean_sbu_1, # of connection points: 6
#     Edge 12, Type (0, 1), BuildingBlock: TEMPAE_clean_linker_10, # of connection points: 2
#     Edge 13, Type (0, 1), BuildingBlock: TEMPAE_clean_linker_10, # of connection points: 2
#     Edge 14, Type (0, 1), BuildingBlock: TEMPAE_clean_linker_10, # of connection points: 2
#     Edge 15, Type (0, 1), BuildingBlock: TEMPAE_clean_linker_10, # of connection points: 2
#     Edge 16, Type (0, 1), BuildingBlock: TEMPAE_clean_linker_10, # of connection points: 2
#     Edge 17, Type (0, 1), BuildingBlock: TEMPAE_clean_linker_10, # of connection points: 2
#     Edge 18, Type (0, 1), BuildingBlock: TEMPAE_clean_linker_10, # of connection points: 2
#     Edge 19, Type (0, 1), BuildingBlock: TEMPAE_clean_linker_10, # of connection points: 2
#     Edge 20, Type (0, 1), BuildingBlock: TEMPAE_clean_linker_10, # of connection points: 2
#     Edge 21, Type (0, 1), BuildingBlock: TEMPAE_clean_linker_10, # of connection points: 2
#     Edge 22, Type (0, 1), BuildingBlock: TEMPAE_clean_linker_10, # of connection points: 2
#     Edge 23, Type (0, 1), BuildingBlock: TEMPAE_clean_linker_10, # of connection points: 2
#     Edge 24, Type (0, 1), BuildingBlock: TEMPAE_clean_linker_10, # of connection points: 2
#     Edge 25, Type (0, 1), BuildingBlock: TEMPAE_clean_linker_10, # of connection points: 2
#     Edge 26, Type (0, 1), BuildingBlock: TEMPAE_clean_linker_10, # of connection points: 2
#     Edge 27, Type (0, 1), BuildingBlock: TEMPAE_clean_linker_10, # of connection points: 2
#     Edge 28, Type (0, 1), BuildingBlock: TEMPAE_clean_linker_10, # of connection points: 2
#     Edge 29, Type (0, 1), BuildingBlock: TEMPAE_clean_linker_10, # of connection points: 2
#     Edge 30, Type (0, 1), BuildingBlock: TEMPAE_clean_linker_10, # of connection points: 2
#     Edge 31, Type (0, 1), BuildingBlock: TEMPAE_clean_linker_10, # of connection points: 2
#     Edge 32, Type (0, 1), BuildingBlock: TEMPAE_clean_linker_10, # of connection points: 2
#     Edge 33, Type (0, 1), BuildingBlock: TEMPAE_clean_linker_10, # of connection points: 2
#     Edge 34, Type (0, 1), BuildingBlock: TEMPAE_clean_linker_10, # of connection points: 2
#     Edge 35, Type (0, 1), BuildingBlock: TEMPAE_clean_linker_10, # of connection points: 2
# Relax obj value: 0.309
# Max RMSD: 0.207
# Mean RMSD: 0.180
data_MOF--net-zzz--node1-KUMJIN_clean_sbu_1--node2-KAKCAD_clean_linker_0--edge1-TEMPAE_clean_linker_10
_symmetry_space_group_name_H-M    P1
_symmetry_Int_Tables_number       1
_symmetry_cell_setting            triclinic
loop_
_symmetry_equiv_pos_as_xyz
'x, y, z'
_cell_length_a     57.322746
_cell_length_b     57.400502
_cell_length_c     21.260812
_cell_angle_alpha  89.888239
_cell_angle_beta   89.958757
_cell_angle_gamma 90.345581
loop_
_atom_site_label
_atom_site_type_symbol
_atom_site_fract_x
_atom_site_fract_y
_atom_site_fract_z
_atom_type_partial_charge
C0 C 0.79313 0.55812 0.9761 0.0
C1 C 0.81056 0.54106 0.97799 0.0
C2 C 0.78099 0.56397 0.03096 0.0
C3 C 0.7862 0.55286 0.08833 0.0
C4 C 0.80451 0.53672 0.09025 0.0
C5 C 0.81662 0.53103 0.03588 0.0
C6 C 0.77128 0.55588 0.14471 0.0
C7 C 0.74699 0.55597 0.1387 0.0
C8 C 0.73245 0.55404 0.19152 0.0
C9 C 0.74258 0.55188 0.25214 0.0
C10 C 0.76721 0.55245 0.25865 0.0
C11 C 0.78112 0.5551 0.20488 0.0
C12 C 0.77989 0.54777 0.31846 0.0
C13 C 0.78617 0.56615 0.35867 0.0
C14 C 0.79168 0.52649 0.32462 0.0
C15 C 0.8103 0.52407 0.36675 0.0
C16 C 0.81771 0.54285 0.4047 0.0
C17 C 0.70697 0.55246 0.17862 0.0
C18 C 0.69482 0.57275 0.16209 0.0
C19 C 0.69708 0.53077 0.16303 0.0
C20 C 0.67629 0.52943 0.1282 0.0
C21 C 0.6649 0.54979 0.10766 0.0
C22 C 0.67399 0.57145 0.12749 0.0
C23 C 0.80467 0.56365 0.40171 0.0
H24 H 0.78826 0.5662 0.93198 0.0
H25 H 0.76714 0.57667 0.02816 0.0
H26 H 0.80883 0.52752 0.13318 0.0
H27 H 0.83034 0.51817 0.03884 0.0
H28 H 0.73919 0.55608 0.09222 0.0
H29 H 0.79996 0.55528 0.2099 0.0
H30 H 0.73159 0.54929 0.29304 0.0
H31 H 0.77783 0.58294 0.35387 0.0
H32 H 0.78773 0.51226 0.29288 0.0
H33 H 0.81983 0.50786 0.36605 0.0
H34 H 0.70234 0.58971 0.17194 0.0
H35 H 0.70646 0.51487 0.17321 0.0
H36 H 0.8093 0.57842 0.43079 0.0
H37 H 0.66559 0.58752 0.11379 0.0
H38 H 0.67011 0.51242 0.11358 0.0
C39 C 0.94063 0.78501 0.96205 0.0
C40 C 0.94955 0.80768 0.95607 0.0
C41 C 0.93965 0.77437 0.0212 0.0
C42 C 0.9488 0.78583 0.07453 0.0
C43 C 0.95474 0.8096 0.06898 0.0
C44 C 0.95483 0.82046 1.01037 0.0
C45 C 0.95709 0.77226 0.13018 0.0
C46 C 0.96615 0.74986 0.1212 0.0
C47 C 0.97938 0.73872 0.16753 0.0
C48 C 0.98405 0.75051 0.22471 0.0
C49 C 0.97432 0.77284 0.23556 0.0
C50 C 0.96028 0.78298 0.18889 0.0
C51 C 0.98035 0.78773 0.29083 0.0
C52 C 0.96251 0.79594 0.33035 0.0
C53 C 1.00244 0.79842 0.29455 0.0
C54 C 1.00621 0.81768 0.33422 0.0
C55 C 0.98802 0.82664 0.37159 0.0
C56 C 0.98935 0.71571 0.1498 0.0
C57 C 0.97677 0.69511 0.16257 0.0
C58 C 1.00675 0.71511 0.10315 0.0
C59 C 0.01027 0.69503 0.06694 0.0
C60 C 0.99657 0.6749 0.07655 0.0
C61 C 0.9805 0.67484 0.12675 0.0
C62 C 0.96634 0.81497 0.37057 0.0
H63 H 0.93632 0.77492 0.9206 0.0
H64 H 0.93381 0.75643 0.02392 0.0
H65 H 0.96188 0.8193 0.10813 0.0
H66 H 0.96191 0.83797 1.00671 0.0
H67 H 0.96437 0.74135 0.07601 0.0
H68 H 0.95315 0.80015 0.19709 0.0
H69 H 0.99531 0.74266 0.2596 0.0
H70 H 0.94515 0.78845 0.32739 0.0
H71 H 0.01636 0.79289 0.26358 0.0
H72 H 0.0232 0.82603 0.33414 0.0
H73 H 0.96275 0.69524 0.19675 0.0
H74 H 0.01628 0.73085 0.09105 0.0
H75 H 0.95184 0.8214 0.39807 0.0
H76 H 0.96959 0.65969 0.13533 0.0
H77 H 0.02298 0.69563 0.02924 0.0
C78 C 0.7433 0.94236 0.98458 0.0
C79 C 0.721 0.95205 0.98062 0.0
C80 C 0.75426 0.94029 0.04307 0.0
C81 C 0.74358 0.94921 0.09778 0.0
C82 C 0.72004 0.95606 0.09393 0.0
C83 C 0.70882 0.95717 0.03598 0.0
C84 C 0.7579 0.95633 0.15345 0.0
C85 C 0.78093 0.96407 0.14431 0.0
C86 C 0.79295 0.97662 0.19063 0.0
C87 C 0.78156 0.98193 0.24777 0.0
C88 C 0.75865 0.97349 0.25874 0.0
C89 C 0.74753 0.95999 0.21249 0.0
C90 C 0.74411 0.98103 0.3129 0.0
C91 C 0.73702 0.96475 0.35853 0.0
C92 C 0.73244 1.00245 0.30969 0.0
C93 C 0.71323 1.00695 0.34872 0.0
C94 C 0.7052 0.99016 0.39237 0.0
C95 C 0.8164 0.98567 0.17275 0.0
C96 C 0.83638 0.97239 0.18557 0.0
C97 C 0.81779 1.00309 0.12632 0.0
C98 C 0.83799 1.00589 0.08998 0.0
C99 C 0.85741 0.99145 0.09948 0.0
C100 C 0.85681 0.97542 0.14965 0.0
C101 C 0.71804 0.96935 0.39828 0.0
H102 H 0.75292 0.93818 0.94224 0.0
H103 H 0.7719 0.93371 0.04426 0.0
H104 H 0.71087 0.96308 0.13402 0.0
H105 H 0.6916 0.96484 0.03382 0.0
H106 H 0.7893 0.96197 0.09903 0.0
H107 H 0.72991 0.95384 0.22125 0.0
H108 H 0.79011 0.99288 0.28231 0.0
H109 H 0.7454 0.9479 0.36113 0.0
H110 H 0.73708 0.01502 0.27364 0.0
H111 H 0.70383 0.02304 0.34169 0.0
H112 H 0.83557 0.9584 0.21977 0.0
H113 H 0.80248 0.01317 0.11438 0.0
H114 H 0.71293 0.95616 0.43213 0.0
H115 H 0.87147 0.964 0.15797 0.0
H116 H 0.83799 0.01853 0.05207 0.0
C117 C 0.51731 0.70412 0.30696 0.0
C118 C 0.52845 0.7049 0.36595 0.0
C119 C 0.52037 0.72209 0.26297 0.0
C120 C 0.53447 0.74154 0.2767 0.0
C121 C 0.54457 0.74313 0.33677 0.0
C122 C 0.54156 0.72503 0.381 0.0
C123 C 0.54206 0.75725 0.22444 0.0
C124 C 0.53489 0.78077 0.21929 0.0
C125 C 0.54153 0.79412 0.16608 0.0
C126 C 0.55583 0.7841 0.12019 0.0
C127 C 0.5617 0.76047 0.12235 0.0
C128 C 0.55517 0.74736 0.17543 0.0
C129 C 0.57086 0.74874 0.06492 0.0
C130 C 0.56268 0.75557 1.00524 0.0
C131 C 0.58515 0.72894 0.0691 0.0
C132 C 0.58916 0.7151 0.01605 0.0
C133 C 0.57918 0.72098 0.95778 0.0
C134 C 0.53107 0.81699 0.14949 0.0
C135 C 0.51552 0.81769 0.09854 0.0
C136 C 0.54089 0.838 0.17076 0.0
C137 C 0.53614 0.8591 0.13945 0.0
C138 C 0.52192 0.85958 0.08507 0.0
C139 C 0.51115 0.83852 0.06656 0.0
C140 C 0.56696 0.74199 0.95238 0.0
H141 H 0.50664 0.68926 0.29395 0.0
H142 H 0.51253 0.7203 0.21687 0.0
H143 H 0.55587 0.7577 0.34821 0.0
H144 H 0.55052 0.72629 0.42569 0.0
H145 H 0.52345 0.78817 0.25446 0.0
H146 H 0.55915 0.72894 0.17746 0.0
H147 H 0.56093 0.79454 0.07982 0.0
H148 H 0.55126 0.77038 0.99963 0.0
H149 H 0.5922 0.72342 0.11392 0.0
H150 H 0.59878 0.69903 0.0214 0.0
H151 H 0.50819 0.80166 0.08006 0.0
H152 H 0.55334 0.8379 0.20907 0.0
H153 H 0.55868 0.74683 0.9085 0.0
H154 H 0.5005 0.83759 0.02467 0.0
H155 H 0.54439 0.87485 0.15662 0.0
C156 C 0.25491 0.42851 0.30437 0.0
C157 C 0.23087 0.42563 0.29403 0.0
C158 C 0.2696 0.43449 0.25448 0.0
C159 C 0.26072 0.43622 0.19271 0.0
C160 C 0.23834 0.42682 0.1815 0.0
C161 C 0.2233 0.42216 0.23175 0.0
C162 C 0.27197 0.45238 0.14573 0.0
C163 C 0.29537 0.45938 0.15249 0.0
C164 C 0.30389 0.47982 0.12399 0.0
C165 C 0.28941 0.49217 0.08165 0.0
C166 C 0.26655 0.48399 0.06913 0.0
C167 C 0.25808 0.46452 0.1021 0.0
C168 C 0.24988 0.49601 0.02612 0.0
C169 C 0.22992 0.50659 0.0515 0.0
C170 C 0.2506 0.49197 0.96097 0.0
C171 C 0.23132 0.49732 0.92264 0.0
C172 C 0.21074 0.50667 0.94866 0.0
C173 C 0.32637 0.48925 0.14878 0.0
C174 C 0.32596 0.50779 0.19185 0.0
C175 C 0.34687 0.47599 0.14389 0.0
C176 C 0.36602 0.48036 0.18346 0.0
C177 C 0.36494 0.49777 0.22989 0.0
C178 C 0.34495 0.51192 0.23215 0.0
C179 C 0.2107 0.51193 0.01338 0.0
H180 H 0.2618 0.4295 0.35173 0.0
H181 H 0.28697 0.4403 0.26658 0.0
H182 H 0.23136 0.42559 0.13436 0.0
H183 H 0.20514 0.41879 0.22101 0.0
H184 H 0.30674 0.45008 0.18429 0.0
H185 H 0.23991 0.45992 0.09572 0.0
H186 H 0.29562 0.50815 0.06004 0.0
H187 H 0.22867 0.5095 0.10173 0.0
H188 H 0.26546 0.48325 0.94036 0.0
H189 H 0.23206 0.49283 0.87324 0.0
H190 H 0.31023 0.51791 0.19787 0.0
H191 H 0.34747 0.46123 0.11228 0.0
H192 H 0.19546 0.51953 0.03517 0.0
H193 H 0.34362 0.52561 0.26694 0.0
H194 H 0.38104 0.46906 0.18057 0.0
C195 C 0.05889 0.25342 0.34365 0.0
C196 C 0.06634 0.23027 0.34187 0.0
C197 C 0.06057 0.26737 0.29042 0.0
C198 C 0.0702 0.25862 0.23427 0.0
C199 C 0.08034 0.2363 0.23529 0.0
C200 C 0.07827 0.22213 0.28874 0.0
C201 C 0.06593 0.27126 0.17405 0.0
C202 C 0.06338 0.29551 0.17432 0.0
C203 C 0.05204 0.30712 0.12527 0.0
C204 C 0.04538 0.29444 0.07088 0.0
C205 C 0.05029 0.27026 0.06696 0.0
C206 C 0.06009 0.25895 0.11919 0.0
C207 C 0.04445 0.25543 1.01149 0.0
C208 C 0.02243 0.24463 1.00684 0.0
C209 C 0.06256 0.24726 0.97295 0.0
C210 C 0.05908 0.22816 0.93275 0.0
C211 C 0.03742 0.21641 0.93041 0.0
C212 C 0.04492 0.3315 0.13915 0.0
C213 C 0.02473 0.33495 0.17543 0.0
C214 C 0.06155 0.34956 0.13655 0.0
C215 C 0.0587 0.36997 0.17223 0.0
C216 C 0.03939 0.37267 0.21288 0.0
C217 C 0.02202 0.35514 0.21187 0.0
C218 C 0.01892 0.22545 0.96661 0.0
H219 H 0.0497 0.26002 0.38442 0.0
H220 H 0.05223 0.28421 0.29228 0.0
H221 H 0.08848 0.22919 0.19363 0.0
H222 H 0.08418 0.20426 0.28661 0.0
H223 H 0.0685 0.30538 0.21556 0.0
H224 H 0.0618 0.24017 0.11791 0.0
H225 H 0.03641 0.30313 0.03274 0.0
H226 H 1.00835 0.25005 0.0374 0.0
H227 H 0.07986 0.25485 0.9766 0.0
H228 H 0.07368 0.2221 0.90501 0.0
H229 H 0.01202 0.32101 0.18029 0.0
H230 H 0.07761 0.34716 0.11052 0.0
H231 H 1.00205 0.21687 0.96684 0.0
H232 H 1.00702 0.35607 0.24266 0.0
H233 H 0.07225 0.38316 0.16995 0.0
C234 C 0.30055 0.07575 0.3186 0.0
C235 C 0.31393 0.09636 0.31254 0.0
C236 C 0.28276 0.07063 0.27629 0.0
C237 C 0.27818 0.08567 0.2261 0.0
C238 C 0.29019 0.10694 0.22171 0.0
C239 C 0.30762 0.11247 0.26538 0.0
C240 C 0.26287 0.07751 0.17519 0.0
C241 C 0.23942 0.07283 0.18736 0.0
C242 C 0.22531 0.06143 0.14288 0.0
C243 C 0.23549 0.05395 0.08546 0.0
C244 C 0.25933 0.05898 0.07274 0.0
C245 C 0.27259 0.07101 0.11769 0.0
C246 C 0.27194 0.05108 0.01543 0.0
C247 C 0.28497 0.03045 0.01782 0.0
C248 C 0.2765 0.067 0.96662 0.0
C249 C 0.29446 0.06292 0.92302 0.0
C250 C 0.3086 0.04296 0.92763 0.0
C251 C 0.20047 0.05713 0.16099 0.0
C252 C 0.19156 0.03438 0.16807 0.0
C253 C 0.18741 0.07579 0.18523 0.0
C254 C 0.1672 0.07175 0.22058 0.0
C255 C 0.15922 0.04897 0.23176 0.0
C256 C 0.171 0.03034 0.20298 0.0
C257 C 0.303 0.02638 0.97444 0.0
H258 H 0.3048 0.06248 0.35282 0.0
H259 H 0.2737 0.05406 0.2801 0.0
H260 H 0.28665 0.11885 0.18334 0.0
H261 H 0.31686 0.12884 0.25999 0.0
H262 H 0.23229 0.0775 0.2329 0.0
H263 H 0.29102 0.0742 0.10923 0.0
H264 H 0.22509 0.04452 0.05136 0.0
H265 H 0.28237 0.01824 0.05617 0.0
H266 H 0.26717 0.08334 0.96462 0.0
H267 H 0.29784 0.07593 0.88718 0.0
H268 H 0.20138 0.01964 0.15083 0.0
H269 H 0.19381 0.09351 0.18068 0.0
H270 H 0.31352 0.01094 0.9804 0.0
H271 H 0.16521 0.01258 0.21102 0.0
H272 H 0.15839 0.08642 0.24177 0.0
C273 C 0.47635 0.3023 0.91092 0.0
C274 C 0.49802 0.31384 0.90722 0.0
C275 C 0.4732 0.28321 0.95126 0.0
C276 C 0.49153 0.27534 0.98966 0.0
C277 C 0.5138 0.28533 0.98122 0.0
C278 C 0.51705 0.30434 0.94008 0.0
C279 C 0.48551 0.26451 0.05136 0.0
C280 C 0.49308 0.24229 0.07196 0.0
C281 C 0.48862 0.235 0.13479 0.0
C282 C 0.4772 0.25035 0.17606 0.0
C283 C 0.47027 0.27249 0.15617 0.0
C284 C 0.47362 0.27891 0.09346 0.0
C285 C 0.46334 0.29043 0.2024 0.0
C286 C 0.4478 0.28555 0.25192 0.0
C287 C 0.47415 0.31239 0.19953 0.0
C288 C 0.47037 0.32878 0.24617 0.0
C289 C 0.45556 0.32381 0.29731 0.0
C290 C 0.49652 0.2122 0.16107 0.0
C291 C 0.48788 0.19095 0.13771 0.0
C292 C 0.50947 0.21191 0.21725 0.0
C293 C 0.51251 0.19126 0.25133 0.0
C294 C 0.50272 0.17011 0.23033 0.0
C295 C 0.49092 0.17014 0.17197 0.0
C296 C 0.44384 0.30218 0.29891 0.0
H297 H 0.46141 0.30906 0.88577 0.0
H298 H 0.45575 0.27621 0.95758 0.0
H299 H 0.52811 0.28011 1.01125 0.0
H300 H 0.53394 0.31287 0.93833 0.0
H301 H 0.5027 0.23114 0.04028 0.0
H302 H 0.46828 0.29613 0.0782 0.0
H303 H 0.47467 0.24541 0.22487 0.0
H304 H 0.43916 0.26875 0.25501 0.0
H305 H 0.48669 0.31654 0.16296 0.0
H306 H 0.48042 0.34479 0.24389 0.0
H307 H 0.47764 0.19063 0.09493 0.0
H308 H 0.51626 0.22802 0.23667 0.0
H309 H 0.43223 0.2978 0.33742 0.0
H310 H 0.48344 0.1542 0.15352 0.0
H311 H 0.52146 0.19223 0.29607 0.0
Eu312 Eu 0.98294 0.03358 0.61862 0.0
C313 C 0.06884 0.04831 0.76625 0.0
N314 N 0.06584 0.03469 0.71443 0.0
C315 C 0.099 0.05292 0.66537 0.0
C316 C 0.08655 0.06549 0.76828 0.0
C317 C 0.08146 0.0359 0.66597 0.0
C318 C 0.10132 0.06805 0.7163 0.0
C319 C 0.05777 0.05788 0.8735 0.0
C320 C 0.05469 0.04456 0.81847 0.0
C321 C 0.07512 0.07521 0.87517 0.0
C322 C 0.08938 0.07909 0.82262 0.0
Eu323 Eu 0.03472 1.00722 0.72013 0.0
N324 N 0.03771 0.02799 0.81524 0.0
C325 C 0.04335 0.05331 0.92535 0.0
C326 C 0.02424 0.02274 0.86634 0.0
C327 C 0.02664 0.03553 0.9219 0.0
H328 H 0.08104 0.02337 0.62842 0.0
H329 H 0.01565 0.03164 0.96203 0.0
H330 H 0.93823 0.99901 0.65716 0.0
H331 H 1.00371 0.07142 0.38934 0.0
H332 H 0.01155 1.00881 0.86399 0.0
H333 H 0.04513 0.06324 0.96839 0.0
H334 H 1.00299 0.06943 0.50557 0.0
H335 H 0.11101 0.05405 0.62615 0.0
H336 H 0.07783 0.08551 0.91718 0.0
H337 H 0.10286 0.09238 0.82491 0.0
H338 H 0.90894 0.97382 0.60417 0.0
H339 H 0.11509 0.08106 0.716 0.0
H340 H 0.98121 0.04266 0.32696 0.0
N341 N 0.95494 1.00885 0.5719 0.0
C342 C 0.9544 1.00841 0.50813 0.0
C343 C 0.92175 0.9833 0.57664 0.0
C344 C 0.93808 0.99438 0.47586 0.0
C345 C 0.9383 0.99748 0.60646 0.0
C346 C 0.92186 0.98145 0.51106 0.0
N347 N 0.98263 0.03841 0.50825 0.0
C348 C 0.99403 0.05622 0.47849 0.0
C349 C 0.96806 0.02438 0.40901 0.0
C350 C 0.96902 0.02337 0.47524 0.0
C351 C 0.98141 0.04134 0.37781 0.0
C352 C 0.99412 0.05761 0.41282 0.0
H353 H 0.90902 0.97048 0.48805 0.0
H354 H 0.92584 0.98337 0.38412 0.0
H355 H 0.95221 1.00956 0.32549 0.0
O356 O 0.95709 0.05849 0.58567 0.0
O357 O 0.98543 0.99359 0.62043 0.0
O358 O 0.02447 0.98581 0.63448 0.0
O359 O 0.96292 0.05431 0.68536 0.0
O360 O 0.01986 0.04128 0.58221 0.0
O361 O 0.04174 1.0099 0.61474 0.0
O362 O 0.03677 0.97574 0.77738 0.0
O363 O 0.01526 0.04077 0.7443 0.0
O364 O 0.01211 0.05783 0.64927 0.0
O365 O 0.0683 0.99091 0.73956 0.0
O366 O 0.99924 0.99367 0.75217 0.0
O367 O 0.97388 0.02225 0.71792 0.0
C368 C 1.00367 0.97988 0.61347 0.0
C369 C 0.95397 0.09164 0.64917 0.0
C370 C 0.97406 0.12821 0.6267 0.0
C371 C 0.95591 0.14024 0.65708 0.0
C372 C 0.93612 0.10375 0.67956 0.0
C373 C 0.93725 0.128 0.68403 0.0
C374 C 0.97318 0.10378 0.62486 0.0
C375 C 0.03719 0.02659 0.57389 0.0
C376 C 0.95258 0.06636 0.64178 0.0
C377 C 0.93797 0.99433 0.40979 0.0
C378 C 0.95301 1.00923 0.3764 0.0
C379 C 0.0165 0.05962 0.70943 0.0
C380 C 0.06582 0.94963 0.74286 0.0
C381 C 0.05839 0.90776 0.73781 0.0
C382 C 0.07635 0.90548 0.69349 0.0
C383 C 0.08392 0.94705 0.69871 0.0
C384 C 0.0534 0.92981 0.76266 0.0
C385 C 0.08914 0.92506 0.67438 0.0
C386 C 0.97972 1.00551 0.75706 0.0
C387 C 0.05894 0.9728 0.76671 0.0
H388 H 0.95575 0.15908 0.65869 0.0
H389 H 0.92128 0.09449 0.69924 0.0
H390 H 0.92335 0.13739 0.70712 0.0
H391 H 0.9872 0.09408 0.60324 0.0
H392 H 0.08045 0.88861 0.67374 0.0
H393 H 0.09388 0.96197 0.68239 0.0
H394 H 0.03929 0.93163 0.79629 0.0
H395 H 0.10298 0.92323 0.64013 0.0
Eu396 Eu 0.51883 0.04148 0.71653 0.0
C397 C 0.50333 0.93792 0.66118 0.0
N398 N 0.51456 0.95444 0.62644 0.0
C399 C 0.54611 0.92823 0.60683 0.0
C400 C 0.51331 0.91576 0.67036 0.0
C401 C 0.53553 0.94991 0.59876 0.0
C402 C 0.53497 0.91108 0.64277 0.0
C403 C 0.47018 0.92654 0.72566 0.0
C404 C 0.48204 0.94337 0.68889 0.0
C405 C 0.4801 0.90448 0.73476 0.0
C406 C 0.50158 0.89911 0.70724 0.0
Eu407 Eu 0.49474 0.98992 0.6128 0.0
N408 N 0.47265 0.9648 0.67873 0.0
C409 C 0.4484 0.93216 0.75092 0.0
C410 C 0.45054 0.96947 0.69864 0.0
C411 C 0.43838 0.9536 0.73653 0.0
H412 H 0.54401 0.96287 0.56976 0.0
H413 H 0.42103 0.95767 0.75316 0.0
H414 H 0.48156 0.05698 0.83105 0.0
H415 H 0.56436 0.09518 0.54231 0.0
H416 H 0.4417 0.98491 0.68336 0.0
H417 H 0.43881 0.91975 0.77959 0.0
H418 H 0.55547 0.05915 0.60151 0.0
H419 H 0.56278 0.92472 0.58499 0.0
H420 H 0.47115 0.89133 0.76253 0.0
H421 H 0.50901 0.88202 0.71488 0.0
H422 H 0.45922 0.09179 0.86245 0.0
H423 H 0.54323 0.89431 0.64897 0.0
H424 H 0.54307 0.13145 0.56635 0.0
N425 N 0.49805 0.07387 0.75377 0.0
C426 C 0.50157 0.09415 0.7218 0.0
C427 C 0.47098 0.09264 0.82265 0.0
C428 C 0.48958 0.11455 0.73895 0.0
C429 C 0.48344 0.07291 0.80437 0.0
C430 C 0.47395 0.11352 0.78958 0.0
N431 N 0.52886 0.0747 0.65666 0.0
C432 C 0.54598 0.07482 0.61201 0.0
C433 C 0.52226 0.11566 0.64021 0.0
C434 C 0.51767 0.09469 0.67269 0.0
C435 C 0.53908 0.11568 0.59239 0.0
C436 C 0.55112 0.09523 0.57862 0.0
H437 H 0.46436 0.12881 0.80409 0.0
H438 H 0.48456 0.15114 0.71794 0.0
H439 H 0.51317 0.15211 0.63167 0.0
O440 O 0.55174 0.03114 0.75846 0.0
O441 O 0.50095 0.05261 0.62505 0.0
O442 O 0.5038 0.02204 0.55553 0.0
O443 O 0.53401 0.06164 0.79396 0.0
O444 O 0.54614 0.02144 0.6604 0.0
O445 O 0.52892 1.00373 0.57429 0.0
O446 O 0.46319 0.9832 0.55839 0.0
O447 O 0.51788 0.98274 0.69869 0.0
O448 O 0.5056 1.00972 0.7693 0.0
O449 O 0.49612 0.96991 0.52557 0.0
O450 O 0.46826 0.01632 0.65196 0.0
O451 O 0.48399 0.02669 0.74724 0.0
C452 C 0.50096 0.04425 0.56747 0.0
C453 C 0.57545 0.06261 0.78643 0.0
C454 C 0.61787 0.06111 0.78661 0.0
C455 C 0.61886 0.08293 0.75705 0.0
C456 C 0.57657 0.08472 0.75791 0.0
C457 C 0.59822 0.0948 0.74346 0.0
C458 C 0.59617 0.05115 0.80151 0.0
C459 C 0.54733 0.01145 0.60482 0.0
C460 C 0.55331 0.04973 0.79335 0.0
C461 C 0.49371 0.13533 0.70562 0.0
C462 C 0.51003 0.13589 0.65651 0.0
C463 C 0.51287 0.98858 0.75691 0.0
C464 C 0.47169 0.98676 0.44974 0.0
C465 C 0.45616 0.01914 0.38851 0.0
C466 C 0.46877 0.01149 0.33588 0.0
C467 C 0.48408 0.97926 0.39655 0.0
C468 C 0.45787 1.00685 0.44531 0.0
C469 C 0.48271 0.99167 0.34008 0.0
C470 C 0.46582 0.02387 0.71028 0.0
C471 C 0.47472 0.9748 0.51072 0.0
H472 H 0.63551 0.09079 0.74507 0.0
H473 H 0.56083 0.09396 0.74552 0.0
H474 H 0.59897 0.1117 0.72087 0.0
H475 H 0.59542 0.03395 0.82275 0.0
H476 H 0.46764 0.02072 0.29151 0.0
H477 H 0.49507 0.96399 0.39896 0.0
H478 H 0.44801 0.01278 0.4857 0.0
H479 H 0.4924 0.98586 0.29938 0.0
Eu480 Eu 0.53909 0.50446 0.61726 0.0
C481 C 0.45147 0.48351 0.75338 0.0
N482 N 0.45494 0.50037 0.70937 0.0
C483 C 0.42187 0.48626 0.65119 0.0
C484 C 0.43372 0.46658 0.74624 0.0
C485 C 0.4394 0.50289 0.66114 0.0
C486 C 0.41933 0.46771 0.69323 0.0
C487 C 0.46081 0.46775 0.85623 0.0
C488 C 0.4647 0.4841 0.80777 0.0
C489 C 0.44366 0.45044 0.84848 0.0
C490 C 0.43028 0.44972 0.79339 0.0
Eu491 Eu 0.48688 0.52623 0.72724 0.0
N492 N 0.48107 0.50109 0.81391 0.0
C493 C 0.47398 0.4696 0.91147 0.0
C494 C 0.49322 0.50372 0.86869 0.0
C495 C 0.4901 0.48781 0.91796 0.0
H496 H 0.44018 0.51787 0.63047 0.0
H497 H 0.50013 0.48958 0.9608 0.0
H498 H 0.58643 0.53525 0.65461 0.0
H499 H 0.50593 0.48614 0.38044 0.0
H500 H 0.50577 0.51773 0.87337 0.0
H501 H 0.47158 0.4573 0.94971 0.0
H502 H 0.51421 0.47736 0.49187 0.0
H503 H 0.41009 0.48799 0.61171 0.0
H504 H 0.44021 0.43789 0.88546 0.0
H505 H 0.4168 0.43652 0.7886 0.0
H506 H 0.61193 0.56572 0.60732 0.0
H507 H 0.40553 0.45502 0.68592 0.0
H508 H 0.52288 0.52142 0.3308 0.0
N509 N 0.56443 0.5329 0.57457 0.0
C510 C 0.56068 0.53938 0.51413 0.0
C511 C 0.59746 0.55858 0.58078 0.0
C512 C 0.57446 0.55684 0.48549 0.0
C513 C 0.58309 0.54139 0.60737 0.0
C514 C 0.59284 0.56667 0.51997 0.0
N515 N 0.53335 0.50876 0.50716 0.0
C516 C 0.52097 0.49328 0.47139 0.0
C517 C 0.54085 0.5324 0.41541 0.0
C518 C 0.54426 0.52718 0.47959 0.0
C519 C 0.52608 0.51796 0.38015 0.0
C520 C 0.51652 0.49801 0.40796 0.0
H521 H 0.60392 0.58006 0.49956 0.0
H522 H 0.58013 0.57687 0.40026 0.0
H523 H 0.55051 0.55557 0.33891 0.0
O524 O 0.56307 0.48199 0.56604 0.0
O525 O 0.5364 0.54374 0.63659 0.0
O526 O 0.49702 0.54907 0.64427 0.0
O527 O 0.56341 0.48198 0.66747 0.0
O528 O 0.50168 0.49435 0.59081 0.0
O529 O 0.48112 0.5264 0.62101 0.0
O530 O 0.48637 0.55552 0.79196 0.0
O531 O 0.50861 0.49404 0.74915 0.0
O532 O 0.51219 0.4783 0.65241 0.0
O533 O 0.45432 0.54446 0.74834 0.0
O534 O 0.52236 0.53762 0.76529 0.0
O535 O 0.5501 0.51412 0.71689 0.0
C536 C 0.51787 0.55691 0.62944 0.0
C537 C 0.5695 0.44631 0.61774 0.0
C538 C 0.54901 0.41035 0.59176 0.0
C539 C 0.56662 0.3976 0.62198 0.0
C540 C 0.58688 0.43345 0.64815 0.0
C541 C 0.58536 0.40916 0.65041 0.0
C542 C 0.55044 0.43473 0.59051 0.0
C543 C 0.48488 0.50939 0.58103 0.0
C544 C 0.57075 0.47182 0.61668 0.0
C545 C 0.57005 0.56317 0.42279 0.0
C546 C 0.55316 0.55106 0.38789 0.0
C547 C 0.50883 0.47566 0.7129 0.0
C548 C 0.46224 0.58494 0.75049 0.0
C549 C 0.47974 0.62227 0.72076 0.0
C550 C 0.45919 0.6283 0.68906 0.0
C551 C 0.44175 0.59121 0.71855 0.0
C552 C 0.48104 0.60073 0.75161 0.0
C553 C 0.44029 0.61277 0.68799 0.0
C554 C 0.54337 0.52828 0.7623 0.0
C555 C 0.46513 0.5613 0.77725 0.0
H556 H 0.56583 0.37875 0.62376 0.0
H557 H 0.60153 0.4422 0.67023 0.0
H558 H 0.5988 0.39926 0.67394 0.0
H559 H 0.53697 0.4447 0.56706 0.0
H560 H 0.45777 0.64495 0.66535 0.0
H561 H 0.42703 0.57932 0.71633 0.0
H562 H 0.49683 0.59638 0.77698 0.0
H563 H 0.4245 0.61743 0.66323 0.0
Eu564 Eu 0.02918 0.55123 0.59418 0.0
C565 C 0.034 0.47988 0.82642 0.0
N566 N 0.03531 0.47554 0.76407 0.0
C567 C 0.06755 0.44989 0.78146 0.0
C568 C 0.05018 0.47028 0.86893 0.0
C569 C 0.05096 0.45981 0.74139 0.0
C570 C 0.06752 0.4556 0.84536 0.0
C571 C 0.01161 0.49532 0.91295 0.0
C572 C 0.01508 0.49209 0.84793 0.0
C573 C 0.02852 0.48732 0.95558 0.0
C574 C 0.04782 0.4748 0.93356 0.0
Eu575 Eu 0.00935 0.4959 0.69726 0.0
N576 N 0.99896 0.49891 0.80532 0.0
C577 C 0.99083 0.5056 0.93308 0.0
C578 C 0.97785 0.50716 0.82495 0.0
C579 C 0.97369 0.51116 0.8889 0.0
H580 H 0.05116 0.45566 0.69177 0.0
H581 H 0.95735 0.51859 0.90409 0.0
H582 H 0.05252 0.59235 0.68824 0.0
H583 H 0.96805 0.56741 0.40251 0.0
H584 H 0.96458 0.51158 0.79089 0.0
H585 H 0.98751 0.50853 0.9826 0.0
H586 H 1.00124 0.54829 0.45622 0.0
H587 H 0.08045 0.43804 0.76297 0.0
H588 H 0.02638 0.48993 1.00571 0.0
H589 H 0.06027 0.46791 0.96701 0.0
H590 H 0.04111 0.63009 0.73497 0.0
H591 H 0.08036 0.44791 0.87634 0.0
H592 H 0.94929 0.60175 0.45096 0.0
N593 N 0.02191 0.58945 0.63231 0.0
C594 C 1.00261 0.60028 0.6107 0.0
C595 C 0.03 0.62183 0.70033 0.0
C596 C 0.99553 0.62194 0.63499 0.0
C597 C 0.0364 0.60049 0.67382 0.0
C598 C 0.00919 0.63238 0.68178 0.0
N599 N 1.00048 0.57111 0.53468 0.0
C600 C 0.99316 0.56338 0.47725 0.0
C601 C 0.9727 0.60236 0.53089 0.0
C602 C 0.99144 0.59071 0.55973 0.0
C603 C 0.96374 0.5934 0.4746 0.0
C604 C 0.97438 0.57411 0.44692 0.0
H605 H 1.00436 0.649 0.70188 0.0
H606 H 0.9698 0.64937 0.62825 0.0
H607 H 0.94971 0.63215 0.53677 0.0
O608 O 0.06135 0.53848 0.55448 0.0
O609 O 0.99566 0.53118 0.57197 0.0
O610 O 0.98108 0.5215 0.66799 0.0
O611 O 0.04997 0.57378 0.53057 0.0
O612 O 0.02071 0.51738 0.54297 0.0
O613 O 0.03426 0.49122 0.61454 0.0
O614 O 0.99178 0.46271 0.71608 0.0
O615 O 0.04851 0.50228 0.68233 0.0
O616 O 0.05246 0.54201 0.67796 0.0
O617 O 0.99042 0.47758 0.6231 0.0
O618 O 0.99772 0.53196 0.73144 0.0
O619 O 0.02812 0.55521 0.7007 0.0
C620 C 0.97777 0.52827 0.60971 0.0
C621 C 0.08636 0.55972 0.48347 0.0
C622 C 0.12026 0.54125 0.436 0.0
C623 C 0.12719 0.56299 0.41132 0.0
C624 C 0.09339 0.58126 0.45841 0.0
C625 C 0.11374 0.58282 0.42233 0.0
C626 C 0.09968 0.53983 0.47138 0.0
C627 C 0.02927 0.49674 0.55608 0.0
C628 C 0.06553 0.55755 0.52329 0.0
C629 C 0.97577 0.63288 0.60966 0.0
C630 C 0.96434 0.62309 0.55758 0.0
C631 C 0.06043 0.5214 0.6945 0.0
C632 C 0.95827 0.4555 0.65529 0.0
C633 C 0.9179 0.46555 0.67812 0.0
C634 C 0.91067 0.44469 0.64903 0.0
C635 C 0.95083 0.43488 0.6264 0.0
C636 C 0.94184 0.471 0.67966 0.0
C637 C 0.92707 0.42959 0.62293 0.0
C638 C 0.01114 0.55031 0.73993 0.0
C639 C 0.98317 0.46091 0.65962 0.0
H640 H 0.14313 0.56474 0.38432 0.0
H641 H 0.08333 0.59684 0.46713 0.0
H642 H 0.11922 0.59949 0.40334 0.0
H643 H 0.09392 0.52306 0.48928 0.0
H644 H 0.89245 0.43965 0.64788 0.0
H645 H 0.96339 0.42287 0.60677 0.0
H646 H 0.94786 0.48718 0.70032 0.0
H647 H 0.92135 0.41356 0.60093 0.0
C648 C 0.11918 0.03418 0.26236 0.0
C649 C 0.14035 0.04487 0.27892 0.0
C650 C 0.10112 0.03127 0.307 0.0
C651 C 0.10457 0.03862 0.37009 0.0
C652 C 0.12614 0.04906 0.38699 0.0
C653 C 0.14357 0.05231 0.34114 0.0
C654 C 0.07826 0.02057 0.28657 0.0
C655 C 0.13091 0.05662 0.45378 0.0
C656 C 0.05429 0.0502 0.48416 0.0
C657 C 0.05333 0.02942 0.51903 0.0
C658 C 0.07009 0.05305 0.4338 0.0
C659 C 0.08598 0.035 0.41904 0.0
C660 C 0.08506 0.01397 0.45399 0.0
C661 C 0.06863 0.01135 0.50276 0.0
C662 C 0.07011 0.07564 0.39736 0.0
C663 C 0.10195 0.99446 0.44124 0.0
H664 H 0.11659 0.02856 0.21421 0.0
H665 H 0.15999 0.06046 0.35414 0.0
H666 H 0.07489 1.00428 0.3133 0.0
H667 H 0.06374 0.03266 0.2972 0.0
H668 H 0.078 0.0165 0.23551 0.0
H669 H 0.14879 0.06387 0.45967 0.0
H670 H 0.11817 0.07006 0.46821 0.0
H671 H 0.12873 0.04161 0.48626 0.0
H672 H 0.04313 0.06454 0.49708 0.0
H673 H 0.06813 0.99517 0.52914 0.0
H674 H 0.06996 0.07213 0.34604 0.0
H675 H 0.08625 0.08563 0.40791 0.0
H676 H 0.05486 0.08665 0.40919 0.0
H677 H 0.10084 0.98903 0.3913 0.0
H678 H 0.09861 0.97899 0.47151 0.0
H679 H 0.12006 1.00064 0.44963 0.0
C680 C 0.48394 0.13385 0.27645 0.0
C681 C 0.50339 0.14879 0.27174 0.0
C682 C 0.48333 0.1153 0.32005 0.0
C683 C 0.50243 0.11162 0.3611 0.0
C684 C 0.52252 0.12595 0.3548 0.0
C685 C 0.52279 0.14423 0.31034 0.0
C686 C 0.46164 0.10044 0.32427 0.0
C687 C 0.54354 0.12241 0.3964 0.0
C688 C 0.49212 0.08387 0.52257 0.0
C689 C 0.49985 0.06096 0.51356 0.0
C690 C 0.49263 0.10034 0.47337 0.0
C691 C 0.50089 0.09383 0.41304 0.0
C692 C 0.508 0.0705 0.40306 0.0
C693 C 0.50735 0.05439 0.45323 0.0
C694 C 0.48466 0.12488 0.48641 0.0
C695 C 0.51677 0.06264 0.33967 0.0
H696 H 0.46868 0.13718 0.24784 0.0
H697 H 0.53818 0.15519 0.30651 0.0
H698 H 0.4504 0.10244 0.28214 0.0
H699 H 0.46604 0.08176 0.32968 0.0
H700 H 0.45162 0.10574 0.36638 0.0
H701 H 0.55858 0.13346 0.38187 0.0
H702 H 0.53897 0.12674 0.44568 0.0
H703 H 0.54895 0.10388 0.39565 0.0
H704 H 0.48574 0.08904 0.5684 0.0
H705 H 0.51325 0.03672 0.44539 0.0
H706 H 0.47145 0.13025 0.45119 0.0
H707 H 0.49968 0.13705 0.48224 0.0
H708 H 0.47703 0.12671 0.53419 0.0
H709 H 0.5034 0.06597 0.30309 0.0
H710 H 0.52114 0.04382 0.33911 0.0
H711 H 0.53256 0.07283 0.3266 0.0
C712 C 0.40736 0.4996 0.26301 0.0
C713 C 0.38358 0.49978 0.27912 0.0
C714 C 0.4249 0.50088 0.30955 0.0
C715 C 0.4186 0.50186 0.37405 0.0
C716 C 0.39463 0.50175 0.39053 0.0
C717 C 0.3775 0.50091 0.34306 0.0
C718 C 0.45018 0.50142 0.2897 0.0
C719 C 0.38704 0.50232 0.45854 0.0
C720 C 0.46272 0.48529 0.5018 0.0
C721 C 0.46921 0.50717 0.52549 0.0
C722 C 0.44657 0.48326 0.45199 0.0
C723 C 0.43693 0.50361 0.42444 0.0
C724 C 0.44406 0.52574 0.44717 0.0
C725 C 0.45986 0.52723 0.49767 0.0
C726 C 0.43933 0.45932 0.43001 0.0
C727 C 0.4347 0.54793 0.41882 0.0
H728 H 0.41225 0.49877 0.21382 0.0
H729 H 0.35922 0.50062 0.35615 0.0
H730 H 0.45869 0.51755 0.3073 0.0
H731 H 0.45958 0.48649 0.31082 0.0
H732 H 0.45225 0.50071 0.23779 0.0
H733 H 0.36777 0.50147 0.46376 0.0
H734 H 0.39479 0.48746 0.48446 0.0
H735 H 0.39346 0.51853 0.48119 0.0
H736 H 0.46973 0.46973 0.52349 0.0
H737 H 0.46494 0.5442 0.51552 0.0
H738 H 0.44304 0.45739 0.37909 0.0
H739 H 0.42026 0.45695 0.43651 0.0
H740 H 0.4485 0.44529 0.45595 0.0
H741 H 0.4374 0.54793 0.36713 0.0
H742 H 0.44317 0.56372 0.43882 0.0
H743 H 0.41564 0.54901 0.42731 0.0
C744 C 0.05871 0.40171 0.28688 0.0
C745 C 0.03825 0.39248 0.25964 0.0
C746 C 0.05791 0.41917 0.33349 0.0
C747 C 0.03611 0.42753 0.35505 0.0
C748 C 0.0154 0.41852 0.32763 0.0
C749 C 0.01671 0.40141 0.28012 0.0
C750 C 0.0805 0.42844 0.36039 0.0
C751 C 0.99173 0.42669 0.34929 0.0
C752 C 0.03307 0.4552 0.51895 0.0
C753 C 0.03177 0.47908 0.50491 0.0
C754 C 0.0344 0.43833 0.47088 0.0
C755 C 0.03493 0.44538 0.40686 0.0
C756 C 0.03407 0.46951 0.39252 0.0
C757 C 0.03227 0.48598 0.44148 0.0
C758 C 0.03487 0.41287 0.48866 0.0
C759 C 0.03507 0.47797 0.32531 0.0
H760 H 0.07552 0.39487 0.27312 0.0
H761 H 1.00071 0.39499 0.25922 0.0
H762 H 0.08111 0.44771 0.35636 0.0
H763 H 0.0816 0.42408 0.41115 0.0
H764 H 0.09601 0.42116 0.33625 0.0
H765 H 0.97725 0.41792 0.32377 0.0
H766 H 0.98965 0.42325 0.40038 0.0
H767 H 0.99021 0.44577 0.34228 0.0
H768 H 0.03254 0.44962 0.56767 0.0
H769 H 0.03141 0.50436 0.42998 0.0
H770 H 0.05096 0.40468 0.4702 0.0
H771 H 0.01982 0.40367 0.467 0.0
H772 H 0.0342 0.41017 0.5404 0.0
H773 H 0.05107 0.47139 0.30211 0.0
H774 H 0.035 0.49729 0.32195 0.0
H775 H 0.01993 0.47103 0.29868 0.0
C776 C 0.90032 0.99359 0.07183 0.0
C777 C 0.87695 0.99152 0.05288 0.0
C778 C 0.91856 0.99445 0.02715 0.0
C779 C 0.91338 0.99263 0.96204 0.0
C780 C 0.88985 0.98967 0.94308 0.0
C781 C 0.872 0.98938 0.9885 0.0
C782 C 0.94329 0.9981 0.04947 0.0
C783 C 0.88343 0.98728 0.87451 0.0
C784 C 0.95194 0.02083 0.83706 0.0
C785 C 0.96409 1.00178 0.8122 0.0
C786 C 0.93625 0.01818 0.88736 0.0
C787 C 0.93208 0.99578 0.91318 0.0
C788 C 0.94468 0.97647 0.88924 0.0
C789 C 0.96077 0.97975 0.83953 0.0
C790 C 0.92373 0.03938 0.91191 0.0
C791 C 0.94054 0.95223 0.91461 0.0
H792 H 0.90425 0.99522 0.1215 0.0
H793 H 0.85401 0.98736 0.97359 0.0
H794 H 0.9548 0.98441 0.03006 0.0
H795 H 0.94995 0.01511 0.03196 0.0
H796 H 0.94464 0.99788 0.10159 0.0
H797 H 0.86464 0.98312 0.86784 0.0
H798 H 0.88742 1.00378 0.84935 0.0
H799 H 0.89395 0.97338 0.85224 0.0
H800 H 0.95474 0.03802 0.8171 0.0
H801 H 0.97014 0.96497 0.82065 0.0
H802 H 0.92572 0.0406 0.9637 0.0
H803 H 0.9048 0.03783 0.90179 0.0
H804 H 0.93033 0.0558 0.89036 0.0
H805 H 0.94271 0.95202 0.96644 0.0
H806 H 0.95258 0.93929 0.89362 0.0
H807 H 0.92233 0.94676 0.9045 0.0
C808 C 0.4999 0.8847 1.00675 0.0
C809 C 0.51974 0.88114 0.0446 0.0
C810 C 0.49894 0.9029 0.96229 0.0
C811 C 0.51781 0.91881 0.9568 0.0
C812 C 0.53724 0.91634 0.99742 0.0
C813 C 0.53817 0.8974 0.03977 0.0
C814 C 0.47801 0.90456 0.91947 0.0
C815 C 0.55739 0.93338 0.9951 0.0
C816 C 0.52717 0.9503 0.80001 0.0
C817 C 0.51519 0.97127 0.80911 0.0
C818 C 0.52805 0.93312 0.84735 0.0
C819 C 0.5176 0.93733 0.90671 0.0
C820 C 0.50653 0.959 0.91734 0.0
C821 C 0.50518 0.97552 0.86831 0.0
C822 C 0.53969 0.9102 0.83323 0.0
C823 C 0.49601 0.96472 0.98051 0.0
H824 H 0.48511 0.87299 1.01082 0.0
H825 H 0.55379 0.89505 0.06758 0.0
H826 H 0.46918 0.92151 0.9261 0.0
H827 H 0.4838 0.90379 0.86979 0.0
H828 H 0.46514 0.89035 0.92785 0.0
H829 H 0.56969 0.93088 0.03484 0.0
H830 H 0.56714 0.93121 0.95045 0.0
H831 H 0.55087 0.95154 0.99624 0.0
H832 H 0.53581 0.94721 0.75558 0.0
H833 H 0.49611 0.99175 0.87637 0.0
H834 H 0.52672 0.89584 0.8373 0.0
H835 H 0.55366 0.9067 0.86795 0.0
H836 H 0.54744 0.90979 0.78534 0.0
H837 H 0.48094 0.95304 0.99002 0.0
H838 H 0.48995 0.98304 0.98303 0.0
H839 H 0.50899 0.96178 0.01838 0.0
C840 C 0.62835 0.5305 0.06421 0.0
C841 C 0.64509 0.54849 0.06127 0.0
C842 C 0.61087 0.52813 0.01786 0.0
C843 C 0.60994 0.54409 0.96689 0.0
C844 C 0.62637 0.56262 0.9645 0.0
C845 C 0.64366 0.56456 1.01135 0.0
C846 C 0.59372 0.50815 0.02261 0.0
C847 C 0.62617 0.58003 0.91115 0.0
C848 C 0.58283 0.5232 0.81255 0.0
C849 C 0.56049 0.5332 0.81396 0.0
C850 C 0.59895 0.52667 0.86165 0.0
C851 C 0.59281 0.54055 0.91409 0.0
C852 C 0.57042 0.55096 0.91566 0.0
C853 C 0.55457 0.54717 0.86578 0.0
C854 C 0.62258 0.51529 0.85749 0.0
C855 C 0.56313 0.56599 0.9703 0.0
H856 H 0.62897 0.51812 0.10268 0.0
H857 H 0.65663 0.5783 1.00748 0.0
H858 H 0.57559 0.51477 0.02049 0.0
H859 H 0.59607 0.49624 0.98209 0.0
H860 H 0.59587 0.498 0.06675 0.0
H861 H 0.63903 0.59434 0.9182 0.0
H862 H 0.63029 0.57108 0.86632 0.0
H863 H 0.60857 0.58772 0.90606 0.0
H864 H 0.5878 0.51238 0.77308 0.0
H865 H 0.53745 0.55503 0.86776 0.0
H866 H 0.62506 0.50337 0.89806 0.0
H867 H 0.63654 0.52872 0.85986 0.0
H868 H 0.6248 0.50518 0.8134 0.0
H869 H 0.56376 0.55573 0.01454 0.0
H870 H 0.54524 0.57301 0.96441 0.0
H871 H 0.57548 0.58081 0.97563 0.0
C872 C 0.99903 0.63182 0.05088 0.0
C873 C 0.9976 0.65509 0.03066 0.0
C874 C 1.00038 0.6133 1.00727 0.0
C875 C 0.99974 0.61802 0.9417 0.0
C876 C 0.99762 0.64144 0.92124 0.0
C877 C 0.99681 0.65958 0.9657 0.0
C878 C 1.00309 0.58872 0.03133 0.0
C879 C 0.99658 0.64743 0.85211 0.0
C880 C 0.02741 0.57743 0.82104 0.0
C881 C 1.00801 0.56576 0.7956 0.0
C882 C 0.02503 0.59367 0.87005 0.0
C883 C 1.00259 0.59881 0.89418 0.0
C884 C 0.98295 0.58657 0.86988 0.0
C885 C 0.98591 0.57006 0.82129 0.0
C886 C 0.04658 0.60581 0.89477 0.0
C887 C 0.95866 0.59165 0.89327 0.0
H888 H 0.99967 0.62815 0.10087 0.0
H889 H 0.99529 0.67743 0.94949 0.0
H890 H 0.98917 0.57735 1.0118 0.0
H891 H 0.02003 0.58161 0.01524 0.0
H892 H 1.00242 0.58777 0.08349 0.0
H893 H 0.99225 0.66602 0.84393 0.0
H894 H 0.01371 0.64386 0.83001 0.0
H895 H 0.98339 0.6364 0.82796 0.0
H896 H 0.04459 0.57401 0.80206 0.0
H897 H 0.97082 0.56121 0.80172 0.0
H898 H 0.04709 0.60483 0.94688 0.0
H899 H 0.04613 0.62451 0.88162 0.0
H900 H 0.06288 0.59816 0.87576 0.0
H901 H 0.958 0.59053 0.94532 0.0
H902 H 0.94547 0.57945 0.8734 0.0
H903 H 0.95385 0.6097 0.87999 0.0
C904 C 0.07106 0.19959 0.42542 0.0
C905 C 0.05678 0.21384 0.38859 0.0
C906 C 0.06115 0.18431 0.47 0.0
C907 C 0.03655 0.18313 0.47618 0.0
C908 C 0.0222 0.19728 0.43809 0.0
C909 C 0.03251 0.21249 0.39502 0.0
C910 C 0.07685 0.16951 0.5104 0.0
C911 C 0.99586 0.19629 0.44236 0.0
C912 C 1.00162 0.13214 0.53578 0.0
C913 C 0.99292 0.14092 0.59278 0.0
C914 C 0.01777 0.14479 0.49994 0.0
C915 C 0.02521 0.16693 0.52111 0.0
C916 C 0.01769 0.17531 0.58022 0.0
C917 C 1.00146 0.16229 0.61512 0.0
C918 C 0.02518 0.13531 0.4368 0.0
C919 C 0.02563 0.19869 0.60488 0.0
H920 H 0.08984 0.20067 0.41992 0.0
H921 H 0.02152 0.22327 0.3655 0.0
H922 H 0.07287 0.17235 0.56088 0.0
H923 H 0.07362 0.1508 0.50055 0.0
H924 H 0.09562 0.17338 0.50209 0.0
H925 H 0.98732 0.20833 0.40863 0.0
H926 H 0.98958 0.17833 0.43271 0.0
H927 H 0.99014 0.20091 0.49058 0.0
H928 H 0.99484 0.11594 0.51694 0.0
H929 H 0.99527 0.16909 0.65948 0.0
H930 H 0.04423 0.13757 0.4298 0.0
H931 H 0.01625 0.14513 0.39888 0.0
H932 H 0.02072 0.11655 0.43163 0.0
H933 H 0.04469 0.201 0.59799 0.0
H934 H 0.02154 0.20081 0.65564 0.0
H935 H 0.01677 0.21274 0.57833 0.0
C936 C 0.35608 0.10871 0.31776 0.0
C937 C 0.33655 0.09845 0.34712 0.0
C938 C 0.37873 0.10318 0.33726 0.0
C939 C 0.38181 0.08606 0.38426 0.0
C940 C 0.36248 0.07895 0.42109 0.0
C941 C 0.34005 0.08598 0.40329 0.0
C942 C 0.3993 0.11354 0.30278 0.0
C943 C 0.36508 0.06169 0.47425 0.0
C944 C 0.42224 0.03742 0.3365 0.0
C945 C 0.43933 0.03842 0.38317 0.0
C946 C 0.40375 0.05319 0.33602 0.0
C947 C 0.40283 0.07106 0.38209 0.0
C948 C 0.42083 0.07293 0.42743 0.0
C949 C 0.43867 0.05626 0.42812 0.0
C950 C 0.38457 0.04982 0.28796 0.0
C951 C 0.4213 0.09192 0.47634 0.0
H952 H 0.35407 0.11921 0.27585 0.0
H953 H 0.32517 0.0796 0.42973 0.0
H954 H 0.41289 0.11887 0.33707 0.0
H955 H 0.40698 0.10035 0.27097 0.0
H956 H 0.3943 0.12896 0.27424 0.0
H957 H 0.34825 0.05794 0.49823 0.0
H958 H 0.3722 0.04506 0.45603 0.0
H959 H 0.37755 0.06855 0.50954 0.0
H960 H 0.42259 0.02339 0.30243 0.0
H961 H 0.45195 0.05702 0.4643 0.0
H962 H 0.38422 0.06487 0.25521 0.0
H963 H 0.36732 0.0488 0.31161 0.0
H964 H 0.38692 0.03375 0.25967 0.0
H965 H 0.40995 0.10683 0.464 0.0
H966 H 0.43939 0.09845 0.48292 0.0
H967 H 0.4156 0.08461 0.52222 0.0
C968 C 0.45966 0.36375 0.34268 0.0
C969 C 0.45585 0.33981 0.35224 0.0
C970 C 0.47006 0.37741 0.38944 0.0
C971 C 0.47523 0.36713 0.44827 0.0
C972 C 0.46689 0.34446 0.46215 0.0
C973 C 0.45773 0.33077 0.41342 0.0
C974 C 0.47854 0.40158 0.37227 0.0
C975 C 0.47029 0.33371 0.52627 0.0
C976 C 0.53478 0.3805 0.51608 0.0
C977 C 0.52977 0.39837 0.55843 0.0
C978 C 0.51708 0.37029 0.47995 0.0
C979 C 0.49367 0.37759 0.4882 0.0
C980 C 0.48842 0.39526 0.53205 0.0
C981 C 0.50667 0.40576 0.56576 0.0
C982 C 0.5236 0.35217 0.43161 0.0
C983 C 0.46364 0.40287 0.54404 0.0
H984 H 0.45705 0.37119 0.29632 0.0
H985 H 0.45431 0.31247 0.42222 0.0
H986 H 0.47692 0.41381 0.41222 0.0
H987 H 0.49729 0.40071 0.35942 0.0
H988 H 0.46884 0.40876 0.33145 0.0
H989 H 0.45801 0.31894 0.53419 0.0
H990 H 0.48834 0.327 0.53021 0.0
H991 H 0.46777 0.34686 0.56386 0.0
H992 H 0.55271 0.37514 0.50936 0.0
H993 H 0.50293 0.41979 0.5978 0.0
H994 H 0.51682 0.35722 0.38466 0.0
H995 H 0.51561 0.33516 0.4442 0.0
H996 H 0.54278 0.34982 0.42792 0.0
H997 H 0.45366 0.40458 0.49967 0.0
H998 H 0.46294 0.4197 0.56971 0.0
H999 H 0.45467 0.38935 0.57268 0.0
C1000 C 0.19034 0.42645 0.34049 0.0
C1001 C 0.21384 0.43352 0.34265 0.0
C1002 C 0.17283 0.4402 0.36767 0.0
C1003 C 0.17911 0.46123 0.398 0.0
C1004 C 0.20287 0.46643 0.40887 0.0
C1005 C 0.21993 0.45253 0.38117 0.0
C1006 C 0.14759 0.43355 0.35794 0.0
C1007 C 0.21037 0.48845 0.44228 0.0
C1008 C 0.1445 0.51584 0.36677 0.0
C1009 C 0.13433 0.51999 0.42552 0.0
C1010 C 0.15825 0.49613 0.35663 0.0
C1011 C 0.16173 0.48001 0.40634 0.0
C1012 C 0.15073 0.48354 0.46501 0.0
C1013 C 0.13739 0.50365 0.47416 0.0
C1014 C 0.16975 0.49301 0.29321 0.0
C1015 C 0.15375 0.46672 0.51902 0.0
H1016 H 0.1854 0.41128 0.31321 0.0
H1017 H 0.23788 0.45838 0.38425 0.0
H1018 H 0.13705 0.43759 0.40028 0.0
H1019 H 0.1404 0.44377 0.31813 0.0
H1020 H 0.1456 0.41474 0.34676 0.0
H1021 H 0.2291 0.48806 0.45563 0.0
H1022 H 0.20759 0.50362 0.41074 0.0
H1023 H 0.19984 0.49123 0.48531 0.0
H1024 H 0.14178 0.52809 0.32865 0.0
H1025 H 0.12979 0.50681 0.52003 0.0
H1026 H 0.1653 0.47565 0.27363 0.0
H1027 H 0.18899 0.49384 0.29853 0.0
H1028 H 0.1644 0.50655 0.25881 0.0
H1029 H 0.15422 0.44843 0.50226 0.0
H1030 H 0.13952 0.46843 0.5542 0.0
H1031 H 0.17052 0.47043 0.54307 0.0
C1032 C 0.97963 0.80422 0.8742 0.0
C1033 C 0.95977 0.81574 0.8963 0.0
C1034 C 0.99576 0.81572 0.83543 0.0
C1035 C 0.99142 0.83901 0.81725 0.0
C1036 C 0.96973 0.8494 0.83202 0.0
C1037 C 0.95428 0.83777 0.87263 0.0
C1038 C 0.01873 0.804 0.82203 0.0
C1039 C 0.96408 0.87389 0.81125 0.0
C1040 C 0.03997 0.88366 0.8215 0.0
C1041 C 0.04405 0.88756 0.75746 0.0
C1042 C 0.0237 0.86696 0.8414 0.0
C1043 C 0.01099 0.85409 0.79597 0.0
C1044 C 0.01604 0.85694 0.7313 0.0
C1045 C 0.03266 0.87367 0.71271 0.0
C1046 C 0.01944 0.86384 0.91108 0.0
C1047 C 1.00322 0.84304 0.68199 0.0
H1048 H 0.98398 0.78724 0.89326 0.0
H1049 H 0.93892 0.84664 0.89001 0.0
H1050 H 0.02638 0.80978 0.77669 0.0
H1051 H 0.03128 0.80855 0.85986 0.0
H1052 H 0.01673 0.78474 0.82139 0.0
H1053 H 0.94516 0.87763 0.8158 0.0
H1054 H 0.97384 0.88651 0.84089 0.0
H1055 H 0.96946 0.87676 0.76167 0.0
H1056 H 0.0491 0.89417 0.85606 0.0
H1057 H 0.03594 0.87664 0.66323 0.0
H1058 H 0.02025 0.84512 0.92397 0.0
H1059 H 1.00173 0.87012 0.92319 0.0
H1060 H 0.03233 0.87357 0.94006 0.0
H1061 H 1.00525 0.82413 0.69095 0.0
H1062 H 0.00959 0.84692 0.63371 0.0
H1063 H 0.9843 0.84682 0.68476 0.0
C1064 C 0.6908 0.9576 0.89822 0.0
C1065 C 0.71287 0.96304 0.92211 0.0
C1066 C 0.67897 0.97358 0.86001 0.0
C1067 C 0.68918 0.99571 0.8482 0.0
C1068 C 0.71255 1.00007 0.8661 0.0
C1069 C 0.72428 0.98343 0.90231 0.0
C1070 C 0.65445 0.96791 0.83903 0.0
C1071 C 0.72408 0.02344 0.85515 0.0
C1072 C 0.65292 0.03854 0.75396 0.0
C1073 C 0.63914 0.04804 0.80181 0.0
C1074 C 0.67029 0.02216 0.7682 0.0
C1075 C 0.6738 0.01547 0.83158 0.0
C1076 C 0.66105 0.02649 0.8802 0.0
C1077 C 0.64368 0.04246 0.86456 0.0
C1078 C 0.68375 0.01099 0.71535 0.0
C1079 C 0.66484 0.02051 0.9487 0.0
H1080 H 0.68203 0.94182 0.91381 0.0
H1081 H 0.74131 0.98769 0.92149 0.0
H1082 H 0.64183 0.97666 0.87063 0.0
H1083 H 0.65136 0.97438 0.79053 0.0
H1084 H 0.6509 0.94886 0.84051 0.0
H1085 H 0.7434 0.02213 0.85708 0.0
H1086 H 0.71899 0.031 0.80919 0.0
H1087 H 0.71842 0.03567 0.89246 0.0
H1088 H 0.64923 0.04292 0.70537 0.0
H1089 H 0.63298 0.04999 0.9013 0.0
H1090 H 0.67596 0.99368 0.70496 0.0
H1091 H 0.70222 1.00812 0.7285 0.0
H1092 H 0.68325 0.02175 0.6719 0.0
H1093 H 0.65861 1.00249 0.95803 0.0
H1094 H 0.65539 0.03251 0.98065 0.0
H1095 H 0.68369 0.02122 0.96037 0.0
C1096 C 0.57763 0.70999 0.84372 0.0
C1097 C 0.57646 0.70341 0.9073 0.0
C1098 C 0.56719 0.69617 0.79698 0.0
C1099 C 0.55496 0.67573 0.81486 0.0
C1100 C 0.55634 0.66762 0.87774 0.0
C1101 C 0.56728 0.6815 0.92312 0.0
C1102 C 0.56728 0.70472 0.72985 0.0
C1103 C 0.54372 0.64577 0.89898 0.0
C1104 C 0.49536 0.66091 0.75249 0.0
C1105 C 0.4994 0.63884 0.72731 0.0
C1106 C 0.51386 0.67431 0.77612 0.0
C1107 C 0.53691 0.66551 0.77302 0.0
C1108 C 0.54131 0.6446 0.74026 0.0
C1109 C 0.52239 0.63125 0.71876 0.0
C1110 C 0.50836 0.69663 0.81048 0.0
C1111 C 0.56572 0.63539 0.73238 0.0
H1112 H 0.58511 0.72675 0.83114 0.0
H1113 H 0.5663 0.6763 0.97211 0.0
H1114 H 0.56658 0.69004 0.69601 0.0
H1115 H 0.55177 0.71579 0.72174 0.0
H1116 H 0.58305 0.71546 0.72 0.0
H1117 H 0.54832 0.64078 0.94792 0.0
H1118 H 0.52459 0.64862 0.89672 0.0
H1119 H 0.54784 0.63097 0.86758 0.0
H1120 H 0.47757 0.66676 0.75906 0.0
H1121 H 0.5255 0.61424 0.69872 0.0
H1122 H 0.51969 0.71102 0.79336 0.0
H1123 H 0.51186 0.69433 0.86147 0.0
H1124 H 0.48987 0.70186 0.80457 0.0
H1125 H 0.57811 0.64975 0.72131 0.0
H1126 H 0.56662 0.6221 0.69454 0.0
H1127 H 0.57152 0.62714 0.77687 0.0
C1128 C 0.83131 0.54805 0.87569 0.0
C1129 C 0.82188 0.53255 0.92007 0.0
C1130 C 0.84496 0.53975 0.82569 0.0
C1131 C 0.84925 0.51555 0.82085 0.0
C1132 C 0.8383 0.49981 0.86295 0.0
C1133 C 0.82461 0.50853 0.91172 0.0
C1134 C 0.85573 0.55689 0.78014 0.0
C1135 C 0.84236 0.47385 0.85937 0.0
C1136 C 0.87814 0.48363 0.68687 0.0
C1137 C 0.90082 0.48083 0.71041 0.0
C1138 C 0.86152 0.49672 0.71962 0.0
C1139 C 0.86756 0.50662 0.77824 0.0
C1140 C 0.89062 0.50464 0.80117 0.0
C1141 C 0.90694 0.49179 0.76704 0.0
C1142 C 0.83729 0.49897 0.69267 0.0
C1143 C 0.89769 0.51472 0.86399 0.0
H1144 H 0.82898 0.56663 0.8818 0.0
H1145 H 0.81672 0.49652 0.94506 0.0
H1146 H 0.87491 0.55746 0.78691 0.0
H1147 H 0.8524 0.55125 0.73107 0.0
H1148 H 0.84878 0.57476 0.78643 0.0
H1149 H 0.83133 0.46395 0.89323 0.0
H1150 H 0.83866 0.46738 0.8113 0.0
H1151 H 0.86094 0.47009 0.86975 0.0
H1152 H 0.87314 0.47524 0.6434 0.0
H1153 H 0.92417 0.48934 0.78676 0.0
H1154 H 0.82994 0.51643 0.70239 0.0
H1155 H 0.82566 0.48581 0.71483 0.0
H1156 H 0.83719 0.49602 0.64102 0.0
H1157 H 0.89286 0.53337 0.8667 0.0
H1158 H 0.91671 0.5132 0.87263 0.0
H1159 H 0.88828 0.50543 0.90226 0.0
C1160 C 0.05278 0.17748 0.89356 0.0
C1161 C 0.03473 0.19398 0.89412 0.0
C1162 C 0.0504 0.15594 0.86229 0.0
C1163 C 0.02937 0.15038 0.83041 0.0
C1164 C 0.01112 0.16703 0.83018 0.0
C1165 C 0.01397 0.18845 0.86208 0.0
C1166 C 0.07007 0.13869 0.86659 0.0
C1167 C 0.98808 0.16219 0.79834 0.0
C1168 C 0.02975 0.10163 0.70663 0.0
C1169 C 0.01945 0.08298 0.73942 0.0
C1170 C 0.03344 0.12345 0.73576 0.0
C1171 C 0.02624 0.12699 0.79899 0.0
C1172 C 0.01582 0.10814 0.83209 0.0
C1173 C 0.01257 0.08649 0.80204 0.0
C1174 C 0.04591 0.1424 0.6995 0.0
C1175 C 1.00829 0.11076 0.89968 0.0
H1176 H 0.06868 0.18106 0.9194 0.0
H1177 H 0.99983 0.20089 0.86175 0.0
H1178 H 0.06556 0.12548 0.90276 0.0
H1179 H 0.07274 0.12949 0.82141 0.0
H1180 H 0.08675 0.14717 0.8805 0.0
H1181 H 0.98047 0.17847 0.77916 0.0
H1182 H 0.98962 0.14935 0.75973 0.0
H1183 H 0.97565 0.15506 0.83361 0.0
H1184 H 0.03544 0.099 0.65853 0.0
H1185 H 1.00453 0.07223 0.82775 0.0
H1186 H 0.0642 0.14368 0.71618 0.0
H1187 H 0.03768 0.15957 0.70761 0.0
H1188 H 0.04628 0.13875 0.64821 0.0
H1189 H 0.02333 0.11648 0.92878 0.0
H1190 H 1.0012 0.09427 0.91961 0.0
H1191 H 0.99471 0.12439 0.90319 0.0
C1192 C 0.34426 0.05985 0.87344 0.0
C1193 C 0.33018 0.04037 0.88773 0.0
C1194 C 0.36548 0.05761 0.84045 0.0
C1195 C 0.37315 0.03531 0.82117 0.0
C1196 C 0.35882 0.01563 0.83394 0.0
C1197 C 0.3376 0.01838 0.86682 0.0
C1198 C 0.38011 0.0791 0.82811 0.0
C1199 C 0.36623 0.99151 0.81438 0.0
C1200 C 0.42241 0.03071 0.69929 0.0
C1201 C 0.44202 0.02721 0.73765 0.0
C1202 C 0.39993 0.03341 0.72553 0.0
C1203 C 0.39686 0.03242 0.79178 0.0
C1204 C 0.41663 0.02881 0.83052 0.0
C1205 C 0.43883 0.0263 0.80313 0.0
C1206 C 0.37945 0.03736 0.68234 0.0
C1207 C 0.41436 0.02748 0.90121 0.0
H1208 H 0.33913 0.07691 0.89001 0.0
H1209 H 0.32688 1.00319 0.87657 0.0
H1210 H 0.39669 0.07799 0.85485 0.0
H1211 H 0.38472 0.08024 0.7775 0.0
H1212 H 0.37103 0.09535 0.84193 0.0
H1213 H 0.35264 0.97815 0.82458 0.0
H1214 H 0.37021 0.9912 0.76331 0.0
H1215 H 0.38245 0.98667 0.83957 0.0
H1216 H 0.42464 0.03141 0.64869 0.0
H1217 H 0.45372 0.02319 0.83332 0.0
H1218 H 0.37072 0.05395 0.69456 0.0
H1219 H 0.36641 0.02319 0.68861 0.0
H1220 H 0.38471 0.03804 0.63205 0.0
H1221 H 0.40683 0.04389 0.91948 0.0
H1222 H 0.43138 0.02451 0.92476 0.0
H1223 H 0.40225 0.01313 0.91439 0.0
C1224 C 0.51695 0.34258 0.8319 0.0
C1225 C 0.49973 0.33731 0.87678 0.0
C1226 C 0.5184 0.36494 0.80408 0.0
C1227 C 0.50274 0.38268 0.82294 0.0
C1228 C 0.48556 0.37743 0.86888 0.0
C1229 C 0.48411 0.35486 0.89455 0.0
C1230 C 0.53647 0.36954 0.75388 0.0
C1231 C 0.46841 0.39559 0.89031 0.0
C1232 C 0.51987 0.44647 0.79528 0.0
C1233 C 0.50717 0.45201 0.74104 0.0
C1234 C 0.51867 0.42403 0.82216 0.0
C1235 C 0.50417 0.4067 0.79467 0.0
C1236 C 0.49061 0.4126 0.74122 0.0
C1237 C 0.49236 0.43513 0.71499 0.0
C1238 C 0.5328 0.4189 0.88034 0.0
C1239 C 0.47438 0.39514 0.71096 0.0
H1240 H 0.52904 0.3291 0.81785 0.0
H1241 H 0.47091 0.35102 0.92968 0.0
H1242 H 0.52769 0.37473 0.70952 0.0
H1243 H 0.54795 0.38425 0.76809 0.0
H1244 H 0.54746 0.35406 0.74448 0.0
H1245 H 0.45771 0.38955 0.93084 0.0
H1246 H 0.47769 0.41184 0.90383 0.0
H1247 H 0.45652 0.39986 0.85086 0.0
H1248 H 0.531 0.45967 0.81626 0.0
H1249 H 0.4818 0.43973 0.67461 0.0
H1250 H 0.5449 0.40429 0.87106 0.0
H1251 H 0.52104 0.41337 0.91914 0.0
H1252 H 0.54312 0.43424 0.89619 0.0
H1253 H 0.48465 0.38359 0.67976 0.0
H1254 H 0.46079 0.4039 0.68245 0.0
H1255 H 0.46555 0.38397 0.74639 0.0
C1256 C 0.19001 0.51744 0.84717 0.0
C1257 C 0.18896 0.50955 0.90978 0.0
C1258 C 0.16964 0.51974 0.8103 0.0
C1259 C 0.14752 0.51394 0.83621 0.0
C1260 C 0.14635 0.50591 0.89922 0.0
C1261 C 0.16694 0.50384 0.93502 0.0
C1262 C 0.17179 0.52838 0.74345 0.0
C1263 C 0.12326 0.49931 0.92881 0.0
C1264 C 0.09176 0.53877 0.76335 0.0
C1265 C 0.08319 0.51981 0.72847 0.0
C1266 C 0.11268 0.53719 0.79796 0.0
C1267 C 0.12561 0.51618 0.79761 0.0
C1268 C 0.11727 0.49716 0.76136 0.0
C1269 C 0.09631 0.49925 0.72714 0.0
C1270 C 0.12078 0.55795 0.83575 0.0
C1271 C 0.13031 0.47441 0.75933 0.0
H1272 H 0.20678 0.52208 0.82704 0.0
H1273 H 0.16579 0.49727 0.98273 0.0
H1274 H 0.16465 0.51515 0.71057 0.0
H1275 H 0.16137 0.54444 0.73725 0.0
H1276 H 0.19016 0.5322 0.73009 0.0
H1277 H 0.1252 0.49348 0.97838 0.0
H1278 H 0.11125 0.51439 0.9276 0.0
H1279 H 0.11489 0.48507 0.90154 0.0
H1280 H 0.08185 0.55478 0.76458 0.0
H1281 H 0.09027 0.48476 0.69884 0.0
H1282 H 0.13864 0.56315 0.82108 0.0
H1283 H 0.12158 0.55325 0.88634 0.0
H1284 H 0.10905 0.57316 0.83021 0.0
H1285 H 0.14865 0.47749 0.74461 0.0
H1286 H 0.12219 0.46169 0.72656 0.0
H1287 H 0.13074 0.46656 0.80704 0.0
C1288 C 1.00214 0.86834 0.38039 0.0
C1289 C 0.99105 0.84892 0.40795 0.0
C1290 C 1.0039 0.88985 0.41223 0.0
C1291 C 0.9949 0.89204 0.47405 0.0
C1292 C 0.9835 0.8726 0.5019 0.0
C1293 C 0.98169 0.85138 0.4687 0.0
C1294 C 0.01441 0.91056 0.3785 0.0
C1295 C 0.97261 0.87443 0.56626 0.0
C1296 C 0.01965 0.94114 0.57695 0.0
C1297 C 1.0012 0.95719 0.57873 0.0
C1298 C 0.01775 0.91998 0.54346 0.0
C1299 C 0.99711 0.9147 0.50938 0.0
C1300 C 0.97854 0.93093 0.51054 0.0
C1301 C 0.98071 0.95157 0.54592 0.0
C1302 C 0.03799 0.90329 0.54428 0.0
C1303 C 0.95608 0.92699 0.47492 0.0
H1304 H 1.0088 0.86696 0.33283 0.0
H1305 H 0.97293 0.83665 0.49046 0.0
H1306 H 1.00145 0.92484 0.37646 0.0
H1307 H 0.02975 0.91724 0.40469 0.0
H1308 H 0.01995 0.90627 0.32982 0.0
H1309 H 0.96618 0.85733 0.58382 0.0
H1310 H 0.98536 0.88176 0.60028 0.0
H1311 H 0.95761 0.88654 0.56426 0.0
H1312 H 0.03565 0.94499 0.60214 0.0
H1313 H 0.96626 0.9634 0.54713 0.0
H1314 H 0.04678 0.90346 0.49783 0.0
H1315 H 0.0318 0.88522 0.55307 0.0
H1316 H 0.0511 0.90804 0.58043 0.0
H1317 H 0.95134 0.94304 0.44878 0.0
H1318 H 0.94181 0.92346 0.50901 0.0
H1319 H 0.9569 0.91238 0.44099 0.0
C1320 C 0.66774 0.97454 0.44027 0.0
C1321 C 0.68267 0.99356 0.42778 0.0
C1322 C 0.64606 0.97748 0.47047 0.0
C1323 C 0.63865 1.00006 0.48786 0.0
C1324 C 0.65359 0.01934 0.47591 0.0
C1325 C 0.67539 0.01586 0.44664 0.0
C1326 C 0.63093 0.95635 0.48307 0.0
C1327 C 0.6464 0.04375 0.49339 0.0
C1328 C 0.57299 1.00895 0.50914 0.0
C1329 C 0.57066 1.00899 0.57486 0.0
C1330 C 0.59499 1.00657 0.48031 0.0
C1331 C 0.61517 1.00349 0.51794 0.0
C1332 C 0.61281 1.00329 0.58433 0.0
C1333 C 0.59071 1.00641 0.61194 0.0
C1334 C 0.59665 1.00741 0.40949 0.0
C1335 C 0.6336 0.99938 0.62626 0.0
H1336 H 0.67266 0.95726 0.42508 0.0
H1337 H 0.68673 0.03073 0.43852 0.0
H1338 H 0.62621 0.95551 0.53365 0.0
H1339 H 0.61444 0.95769 0.45608 0.0
H1340 H 0.63969 0.93985 0.46991 0.0
H1341 H 0.65972 0.05698 0.47981 0.0
H1342 H 0.62969 0.04813 0.47 0.0
H1343 H 0.64345 0.04489 0.54485 0.0
H1344 H 0.5576 0.01114 0.48016 0.0
H1345 H 0.58905 1.00625 0.66275 0.0
H1346 H 0.60338 0.99062 0.39149 0.0
H1347 H 0.60916 0.02122 0.39485 0.0
H1348 H 0.57952 0.01087 0.38702 0.0
H1349 H 0.64116 0.98199 0.61669 0.0
H1350 H 0.62906 1.00039 0.67699 0.0
H1351 H 0.64729 0.01252 0.61569 0.0
C1352 C 0.52867 0.66147 0.38503 0.0
C1353 C 0.5274 0.68419 0.40945 0.0
C1354 C 0.52757 0.64172 0.42432 0.0
C1355 C 0.52517 0.64447 0.49022 0.0
C1356 C 0.52418 0.66732 0.5155 0.0
C1357 C 0.52537 0.68684 0.47497 0.0
C1358 C 0.52896 0.6178 0.39513 0.0
C1359 C 0.52179 0.67114 0.58539 0.0
C1360 C 0.49973 0.59152 0.576 0.0
C1361 C 0.51982 0.5802 0.59807 0.0
C1362 C 0.50116 0.61285 0.54331 0.0
C1363 C 0.52323 0.62331 0.53183 0.0
C1364 C 0.54348 0.61249 0.55634 0.0
C1365 C 0.54149 0.59122 0.58934 0.0
C1366 C 0.47901 0.62384 0.51935 0.0
C1367 C 0.56736 0.62302 0.54618 0.0
H1368 H 0.53081 0.65906 0.33483 0.0
H1369 H 0.5243 0.70421 0.4946 0.0
H1370 H 0.54395 0.60819 0.41519 0.0
H1371 H 0.51295 0.60764 0.40639 0.0
H1372 H 0.531 0.61853 0.3432 0.0
H1373 H 0.521 0.6899 0.59783 0.0
H1374 H 0.50576 0.66239 0.60297 0.0
H1375 H 0.53681 0.66325 0.61021 0.0
H1376 H 0.48277 0.58349 0.58315 0.0
H1377 H 0.55695 0.58329 0.60864 0.0
H1378 H 0.47912 0.62399 0.46716 0.0
H1379 H 0.47796 0.6422 0.53523 0.0
H1380 H 0.46314 0.61439 0.53567 0.0
H1381 H 0.57231 0.62121 0.49597 0.0
H1382 H 0.58088 0.6144 0.57538 0.0
H1383 H 0.56731 0.64188 0.55735 0.0
C1384 C 0.84743 0.51965 0.46718 0.0
C1385 C 0.83991 0.54115 0.44276 0.0
C1386 C 0.86934 0.51724 0.4965 0.0
C1387 C 0.88418 0.53691 0.50361 0.0
C1388 C 0.87645 0.55883 0.48127 0.0
C1389 C 0.85464 0.56066 0.45086 0.0
C1390 C 0.87683 0.49316 0.5163 0.0
C1391 C 0.8917 0.58025 0.48722 0.0
C1392 C 0.93448 0.53457 0.62252 0.0
C1393 C 0.95365 0.52976 0.58367 0.0
C1394 C 0.91184 0.53697 0.59729 0.0
C1395 C 0.90815 0.5344 0.53162 0.0
C1396 C 0.92741 0.529 0.49259 0.0
C1397 C 0.94978 0.52667 0.51902 0.0
C1398 C 0.89196 0.54272 0.64087 0.0
C1399 C 0.92439 0.52562 0.42268 0.0
H1400 H 0.83637 0.50439 0.46263 0.0
H1401 H 0.8496 0.57733 0.43144 0.0
H1402 H 0.88434 0.48411 0.47496 0.0
H1403 H 0.89025 0.49348 0.55377 0.0
H1404 H 0.86163 0.48269 0.53269 0.0
H1405 H 0.88275 0.59627 0.47086 0.0
H1406 H 0.89709 0.58271 0.53689 0.0
H1407 H 0.90783 0.57797 0.45906 0.0
H1408 H 0.93724 0.53689 0.67257 0.0
H1409 H 0.96432 0.52228 0.48878 0.0
H1410 H 0.87635 0.53199 0.62972 0.0
H1411 H 0.88709 0.56125 0.63445 0.0
H1412 H 0.89671 0.53999 0.69095 0.0
H1413 H 0.9123 0.51082 0.4139 0.0
H1414 H 0.94119 0.52209 0.3985 0.0
H1415 H 0.91651 0.54139 0.40144 0.0
loop_
_geom_bond_atom_site_label_1
_geom_bond_atom_site_label_2
_geom_bond_distance
_geom_bond_site_symmetry_2
_ccdc_geom_bond_type
C0 C1 1.386 . S
C0 C2 1.397 . S
C0 H24 0.931 . S
C1 C0 1.386 . S
C1 C5 1.397 . S
C2 C0 1.397 . S
C2 C3 1.384 . S
C2 H25 0.930 . S
C3 C2 1.384 . S
C3 C4 1.377 . S
C3 C6 1.481 . S
C4 C3 1.377 . S
C4 C5 1.389 . S
C4 H26 0.929 . S
C5 C1 1.397 . S
C5 C4 1.389 . S
C5 H27 0.931 . S
C6 C3 1.481 . S
C6 C7 1.387 . S
C6 C11 1.390 . S
C7 C6 1.387 . S
C7 C8 1.401 . S
C7 H28 0.930 . S
C8 C7 1.401 . S
C8 C9 1.376 . S
C8 C17 1.511 . S
C9 C8 1.376 . S
C9 C10 1.392 . S
C9 H30 0.931 . S
C10 C9 1.392 . S
C10 C11 1.361 . S
C10 C12 1.500 . S
C11 C6 1.390 . S
C11 C10 1.361 . S
C11 H29 0.931 . S
C12 C10 1.500 . S
C12 C13 1.371 . S
C12 C14 1.365 . S
C13 C12 1.371 . S
C13 C23 1.386 . S
C13 H31 0.931 . S
C14 C12 1.365 . S
C14 C15 1.409 . S
C14 H32 0.929 . S
C15 C14 1.409 . S
C15 C16 1.380 . S
C15 H33 0.930 . S
C16 C15 1.380 . S
C16 C23 1.357 . S
C17 C8 1.511 . S
C17 C18 1.341 . S
C17 C19 1.371 . S
C18 C17 1.341 . S
C18 C22 1.394 . S
C18 H34 0.930 . S
C19 C17 1.371 . S
C19 C20 1.392 . S
C19 H35 0.931 . S
C20 C19 1.392 . S
C20 C21 1.331 . S
C20 H38 0.932 . S
C21 C20 1.331 . S
C21 C22 1.336 . S
C22 C18 1.394 . S
C22 C21 1.336 . S
C22 H37 0.929 . S
C23 C13 1.386 . S
C23 C16 1.357 . S
C23 H36 0.928 . S
H24 C0 0.931 . S
H25 C2 0.930 . S
H26 C4 0.929 . S
H27 C5 0.931 . S
H28 C7 0.930 . S
H29 C11 0.931 . S
H30 C9 0.931 . S
H31 C13 0.931 . S
H32 C14 0.929 . S
H33 C15 0.930 . S
H34 C18 0.930 . S
H35 C19 0.931 . S
H36 C23 0.928 . S
H37 C22 0.929 . S
H38 C20 0.932 . S
C39 C40 1.386 . S
C39 C41 1.397 . S
C39 H63 0.931 . S
C40 C39 1.386 . S
C40 C44 1.397 . S
C41 C39 1.397 . S
C41 C42 1.384 . S
C41 H64 0.930 . S
C42 C41 1.384 . S
C42 C43 1.377 . S
C42 C45 1.481 . S
C43 C42 1.377 . S
C43 C44 1.389 . S
C43 H65 0.929 . S
C44 C40 1.397 . S
C44 C43 1.389 . S
C44 H66 0.931 . S
C45 C42 1.481 . S
C45 C46 1.387 . S
C45 C50 1.390 . S
C46 C45 1.387 . S
C46 C47 1.401 . S
C46 H67 0.930 . S
C47 C46 1.401 . S
C47 C48 1.376 . S
C47 C56 1.511 . S
C48 C47 1.376 . S
C48 C49 1.392 . S
C48 H69 0.931 . S
C49 C48 1.392 . S
C49 C50 1.361 . S
C49 C51 1.500 . S
C50 C45 1.390 . S
C50 C49 1.361 . S
C50 H68 0.931 . S
C51 C49 1.500 . S
C51 C52 1.371 . S
C51 C53 1.365 . S
C52 C51 1.371 . S
C52 C62 1.386 . S
C52 H70 0.931 . S
C53 C51 1.365 . S
C53 C54 1.409 . S
C53 H71 0.929 . S
C54 C53 1.409 . S
C54 C55 1.380 . S
C54 H72 0.930 . S
C55 C54 1.380 . S
C55 C62 1.357 . S
C56 C47 1.511 . S
C56 C57 1.341 . S
C56 C58 1.371 . S
C57 C56 1.341 . S
C57 C61 1.394 . S
C57 H73 0.930 . S
C58 C56 1.371 . S
C58 C59 1.392 . S
C58 H74 0.931 . S
C59 C58 1.392 . S
C59 C60 1.331 . S
C59 H77 0.932 . S
C60 C59 1.331 . S
C60 C61 1.336 . S
C61 C57 1.394 . S
C61 C60 1.336 . S
C61 H76 0.929 . S
C62 C52 1.386 . S
C62 C55 1.357 . S
C62 H75 0.928 . S
H63 C39 0.931 . S
H64 C41 0.930 . S
H65 C43 0.929 . S
H66 C44 0.931 . S
H67 C46 0.930 . S
H68 C50 0.931 . S
H69 C48 0.931 . S
H70 C52 0.931 . S
H71 C53 0.929 . S
H72 C54 0.930 . S
H73 C57 0.930 . S
H74 C58 0.931 . S
H75 C62 0.928 . S
H76 C61 0.929 . S
H77 C59 0.932 . S
C78 C79 1.386 . S
C78 C80 1.397 . S
C78 H102 0.931 . S
C79 C78 1.386 . S
C79 C83 1.397 . S
C80 C78 1.397 . S
C80 C81 1.384 . S
C80 H103 0.930 . S
C81 C80 1.384 . S
C81 C82 1.377 . S
C81 C84 1.481 . S
C82 C81 1.377 . S
C82 C83 1.389 . S
C82 H104 0.929 . S
C83 C79 1.397 . S
C83 C82 1.389 . S
C83 H105 0.931 . S
C84 C81 1.481 . S
C84 C85 1.387 . S
C84 C89 1.390 . S
C85 C84 1.387 . S
C85 C86 1.401 . S
C85 H106 0.930 . S
C86 C85 1.401 . S
C86 C87 1.376 . S
C86 C95 1.511 . S
C87 C86 1.376 . S
C87 C88 1.392 . S
C87 H108 0.931 . S
C88 C87 1.392 . S
C88 C89 1.361 . S
C88 C90 1.500 . S
C89 C84 1.390 . S
C89 C88 1.361 . S
C89 H107 0.931 . S
C90 C88 1.500 . S
C90 C91 1.371 . S
C90 C92 1.365 . S
C91 C90 1.371 . S
C91 C101 1.386 . S
C91 H109 0.931 . S
C92 C90 1.365 . S
C92 C93 1.409 . S
C92 H110 0.929 . S
C93 C92 1.409 . S
C93 C94 1.380 . S
C93 H111 0.930 . S
C94 C93 1.380 . S
C94 C101 1.357 . S
C95 C86 1.511 . S
C95 C96 1.341 . S
C95 C97 1.371 . S
C96 C95 1.341 . S
C96 C100 1.394 . S
C96 H112 0.930 . S
C97 C95 1.371 . S
C97 C98 1.392 . S
C97 H113 0.931 . S
C98 C97 1.392 . S
C98 C99 1.331 . S
C98 H116 0.932 . S
C99 C98 1.331 . S
C99 C100 1.336 . S
C100 C96 1.394 . S
C100 C99 1.336 . S
C100 H115 0.929 . S
C101 C91 1.386 . S
C101 C94 1.357 . S
C101 H114 0.928 . S
H102 C78 0.931 . S
H103 C80 0.930 . S
H104 C82 0.929 . S
H105 C83 0.931 . S
H106 C85 0.930 . S
H107 C89 0.931 . S
H108 C87 0.931 . S
H109 C91 0.931 . S
H110 C92 0.929 . S
H111 C93 0.930 . S
H112 C96 0.930 . S
H113 C97 0.931 . S
H114 C101 0.928 . S
H115 C100 0.929 . S
H116 C98 0.932 . S
C117 C118 1.386 . S
C117 C119 1.397 . S
C117 H141 0.931 . S
C118 C117 1.386 . S
C118 C122 1.397 . S
C119 C117 1.397 . S
C119 C120 1.384 . S
C119 H142 0.930 . S
C120 C119 1.384 . S
C120 C121 1.377 . S
C120 C123 1.481 . S
C121 C120 1.377 . S
C121 C122 1.389 . S
C121 H143 0.929 . S
C122 C118 1.397 . S
C122 C121 1.389 . S
C122 H144 0.931 . S
C123 C120 1.481 . S
C123 C124 1.387 . S
C123 C128 1.390 . S
C124 C123 1.387 . S
C124 C125 1.401 . S
C124 H145 0.930 . S
C125 C124 1.401 . S
C125 C126 1.376 . S
C125 C134 1.511 . S
C126 C125 1.376 . S
C126 C127 1.392 . S
C126 H147 0.931 . S
C127 C126 1.392 . S
C127 C128 1.361 . S
C127 C129 1.500 . S
C128 C123 1.390 . S
C128 C127 1.361 . S
C128 H146 0.931 . S
C129 C127 1.500 . S
C129 C130 1.371 . S
C129 C131 1.365 . S
C130 C129 1.371 . S
C130 C140 1.386 . S
C130 H148 0.931 . S
C131 C129 1.365 . S
C131 C132 1.409 . S
C131 H149 0.929 . S
C132 C131 1.409 . S
C132 C133 1.380 . S
C132 H150 0.930 . S
C133 C132 1.380 . S
C133 C140 1.357 . S
C134 C125 1.511 . S
C134 C135 1.341 . S
C134 C136 1.371 . S
C135 C134 1.341 . S
C135 C139 1.394 . S
C135 H151 0.930 . S
C136 C134 1.371 . S
C136 C137 1.392 . S
C136 H152 0.931 . S
C137 C136 1.392 . S
C137 C138 1.331 . S
C137 H155 0.932 . S
C138 C137 1.331 . S
C138 C139 1.336 . S
C139 C135 1.394 . S
C139 C138 1.336 . S
C139 H154 0.929 . S
C140 C130 1.386 . S
C140 C133 1.357 . S
C140 H153 0.928 . S
H141 C117 0.931 . S
H142 C119 0.930 . S
H143 C121 0.929 . S
H144 C122 0.931 . S
H145 C124 0.930 . S
H146 C128 0.931 . S
H147 C126 0.931 . S
H148 C130 0.931 . S
H149 C131 0.929 . S
H150 C132 0.930 . S
H151 C135 0.930 . S
H152 C136 0.931 . S
H153 C140 0.928 . S
H154 C139 0.929 . S
H155 C137 0.932 . S
C156 C157 1.386 . S
C156 C158 1.397 . S
C156 H180 0.931 . S
C157 C156 1.386 . S
C157 C161 1.397 . S
C158 C156 1.397 . S
C158 C159 1.384 . S
C158 H181 0.930 . S
C159 C158 1.384 . S
C159 C160 1.377 . S
C159 C162 1.481 . S
C160 C159 1.377 . S
C160 C161 1.389 . S
C160 H182 0.929 . S
C161 C157 1.397 . S
C161 C160 1.389 . S
C161 H183 0.931 . S
C162 C159 1.481 . S
C162 C163 1.387 . S
C162 C167 1.390 . S
C163 C162 1.387 . S
C163 C164 1.401 . S
C163 H184 0.930 . S
C164 C163 1.401 . S
C164 C165 1.376 1_554 S
C164 C173 1.511 . S
C165 C164 1.376 1_556 S
C165 C166 1.392 . S
C165 H186 0.931 . S
C166 C165 1.392 . S
C166 C167 1.361 1_556 S
C166 C168 1.500 . S
C167 C162 1.390 . S
C167 C166 1.361 1_554 S
C167 H185 0.931 . S
C168 C166 1.500 . S
C168 C169 1.371 . S
C168 C170 1.365 . S
C169 C168 1.371 . S
C169 C179 1.386 . S
C169 H187 0.931 . S
C170 C168 1.365 . S
C170 C171 1.409 . S
C170 H188 0.929 . S
C171 C170 1.409 . S
C171 C172 1.380 . S
C171 H189 0.930 . S
C172 C171 1.380 . S
C172 C179 1.357 . S
C173 C164 1.511 . S
C173 C174 1.341 . S
C173 C175 1.371 . S
C174 C173 1.341 . S
C174 C178 1.394 . S
C174 H190 0.930 . S
C175 C173 1.371 . S
C175 C176 1.392 . S
C175 H191 0.931 1_554 S
C176 C175 1.392 . S
C176 C177 1.331 . S
C176 H194 0.932 . S
C177 C176 1.331 . S
C177 C178 1.336 . S
C178 C174 1.394 . S
C178 C177 1.336 . S
C178 H193 0.929 . S
C179 C169 1.386 . S
C179 C172 1.357 . S
C179 H192 0.928 . S
H180 C156 0.931 . S
H181 C158 0.930 . S
H182 C160 0.929 . S
H183 C161 0.931 . S
H184 C163 0.930 . S
H185 C167 0.931 . S
H186 C165 0.931 . S
H187 C169 0.931 . S
H188 C170 0.929 . S
H189 C171 0.930 . S
H190 C174 0.930 . S
H191 C175 0.931 1_556 S
H192 C179 0.928 . S
H193 C178 0.929 . S
H194 C176 0.932 . S
C195 C196 1.386 . S
C195 C197 1.397 . S
C195 H219 0.931 . S
C196 C195 1.386 . S
C196 C200 1.397 . S
C197 C195 1.397 . S
C197 C198 1.384 . S
C197 H220 0.930 . S
C198 C197 1.384 . S
C198 C199 1.377 . S
C198 C201 1.481 . S
C199 C198 1.377 . S
C199 C200 1.389 . S
C199 H221 0.929 . S
C200 C196 1.397 . S
C200 C199 1.389 . S
C200 H222 0.931 . S
C201 C198 1.481 . S
C201 C202 1.387 . S
C201 C206 1.390 . S
C202 C201 1.387 . S
C202 C203 1.401 . S
C202 H223 0.930 . S
C203 C202 1.401 . S
C203 C204 1.376 1_554 S
C203 C212 1.511 . S
C204 C203 1.376 1_556 S
C204 C205 1.392 . S
C204 H225 0.931 . S
C205 C204 1.392 . S
C205 C206 1.361 1_556 S
C205 C207 1.500 . S
C206 C201 1.390 . S
C206 C205 1.361 1_554 S
C206 H224 0.931 . S
C207 C205 1.500 . S
C207 C208 1.371 . S
C207 C209 1.365 . S
C208 C207 1.371 . S
C208 C218 1.386 . S
C208 H226 0.931 . S
C209 C207 1.365 . S
C209 C210 1.409 . S
C209 H227 0.929 . S
C210 C209 1.409 . S
C210 C211 1.380 . S
C210 H228 0.930 . S
C211 C210 1.380 . S
C211 C218 1.357 . S
C212 C203 1.511 . S
C212 C213 1.341 . S
C212 C214 1.371 . S
C213 C212 1.341 . S
C213 C217 1.394 . S
C213 H229 0.930 . S
C214 C212 1.371 . S
C214 C215 1.392 . S
C214 H230 0.931 1_554 S
C215 C214 1.392 . S
C215 C216 1.331 . S
C215 H233 0.932 . S
C216 C215 1.331 . S
C216 C217 1.336 . S
C217 C213 1.394 . S
C217 C216 1.336 . S
C217 H232 0.929 . S
C218 C208 1.386 . S
C218 C211 1.357 . S
C218 H231 0.928 . S
H219 C195 0.931 . S
H220 C197 0.930 . S
H221 C199 0.929 . S
H222 C200 0.931 . S
H223 C202 0.930 . S
H224 C206 0.931 . S
H225 C204 0.931 . S
H226 C208 0.931 . S
H227 C209 0.929 . S
H228 C210 0.930 . S
H229 C213 0.930 . S
H230 C214 0.931 1_556 S
H231 C218 0.928 . S
H232 C217 0.929 . S
H233 C215 0.932 . S
C234 C235 1.386 . S
C234 C236 1.397 . S
C234 H258 0.931 . S
C235 C234 1.386 . S
C235 C239 1.397 . S
C236 C234 1.397 . S
C236 C237 1.384 . S
C236 H259 0.930 . S
C237 C236 1.384 . S
C237 C238 1.377 . S
C237 C240 1.481 . S
C238 C237 1.377 . S
C238 C239 1.389 . S
C238 H260 0.929 . S
C239 C235 1.397 . S
C239 C238 1.389 . S
C239 H261 0.931 . S
C240 C237 1.481 . S
C240 C241 1.387 . S
C240 C245 1.390 . S
C241 C240 1.387 . S
C241 C242 1.401 . S
C241 H262 0.930 . S
C242 C241 1.401 . S
C242 C243 1.376 1_554 S
C242 C251 1.511 . S
C243 C242 1.376 1_556 S
C243 C244 1.392 . S
C243 H264 0.931 . S
C244 C243 1.392 . S
C244 C245 1.361 1_556 S
C244 C246 1.500 . S
C245 C240 1.390 . S
C245 C244 1.361 1_554 S
C245 H263 0.931 . S
C246 C244 1.500 . S
C246 C247 1.371 . S
C246 C248 1.365 . S
C247 C246 1.371 . S
C247 C257 1.386 . S
C247 H265 0.931 . S
C248 C246 1.365 . S
C248 C249 1.409 . S
C248 H266 0.929 . S
C249 C248 1.409 . S
C249 C250 1.380 . S
C249 H267 0.930 . S
C250 C249 1.380 . S
C250 C257 1.357 . S
C251 C242 1.511 . S
C251 C252 1.341 . S
C251 C253 1.371 . S
C252 C251 1.341 . S
C252 C256 1.394 . S
C252 H268 0.930 . S
C253 C251 1.371 . S
C253 C254 1.392 . S
C253 H269 0.931 1_554 S
C254 C253 1.392 . S
C254 C255 1.331 . S
C254 H272 0.932 . S
C255 C254 1.331 . S
C255 C256 1.336 . S
C256 C252 1.394 . S
C256 C255 1.336 . S
C256 H271 0.929 . S
C257 C247 1.386 . S
C257 C250 1.357 . S
C257 H270 0.928 . S
H258 C234 0.931 . S
H259 C236 0.930 . S
H260 C238 0.929 . S
H261 C239 0.931 . S
H262 C241 0.930 . S
H263 C245 0.931 . S
H264 C243 0.931 . S
H265 C247 0.931 . S
H266 C248 0.929 . S
H267 C249 0.930 . S
H268 C252 0.930 . S
H269 C253 0.931 1_556 S
H270 C257 0.928 . S
H271 C256 0.929 . S
H272 C254 0.932 . S
C273 C274 1.386 . S
C273 C275 1.397 . S
C273 H297 0.931 . S
C274 C273 1.386 . S
C274 C278 1.397 . S
C275 C273 1.397 . S
C275 C276 1.384 . S
C275 H298 0.930 . S
C276 C275 1.384 . S
C276 C277 1.377 . S
C276 C279 1.481 . S
C277 C276 1.377 . S
C277 C278 1.389 . S
C277 H299 0.929 . S
C278 C274 1.397 . S
C278 C277 1.389 . S
C278 H300 0.931 . S
C279 C276 1.481 . S
C279 C280 1.387 . S
C279 C284 1.390 1_556 S
C280 C279 1.387 . S
C280 C281 1.401 1_556 S
C280 H301 0.930 . S
C281 C280 1.401 1_554 S
C281 C282 1.376 . S
C281 C290 1.511 . S
C282 C281 1.376 . S
C282 C283 1.392 . S
C282 H303 0.931 . S
C283 C282 1.392 . S
C283 C284 1.361 . S
C283 C285 1.500 . S
C284 C279 1.390 1_554 S
C284 C283 1.361 . S
C284 H302 0.931 . S
C285 C283 1.500 . S
C285 C286 1.371 . S
C285 C287 1.365 . S
C286 C285 1.371 . S
C286 C296 1.386 . S
C286 H304 0.931 . S
C287 C285 1.365 . S
C287 C288 1.409 . S
C287 H305 0.929 . S
C288 C287 1.409 . S
C288 C289 1.380 . S
C288 H306 0.930 . S
C289 C288 1.380 . S
C289 C296 1.357 . S
C290 C281 1.511 . S
C290 C291 1.341 . S
C290 C292 1.371 . S
C291 C290 1.341 . S
C291 C295 1.394 . S
C291 H307 0.930 1_554 S
C292 C290 1.371 . S
C292 C293 1.392 . S
C292 H308 0.931 . S
C293 C292 1.392 . S
C293 C294 1.331 . S
C293 H311 0.932 . S
C294 C293 1.331 . S
C294 C295 1.336 . S
C295 C291 1.394 . S
C295 C294 1.336 . S
C295 H310 0.929 . S
C296 C286 1.386 . S
C296 C289 1.357 . S
C296 H309 0.928 . S
H297 C273 0.931 . S
H298 C275 0.930 . S
H299 C277 0.929 . S
H300 C278 0.931 . S
H301 C280 0.930 . S
H302 C284 0.931 . S
H303 C282 0.931 . S
H304 C286 0.931 . S
H305 C287 0.929 . S
H306 C288 0.930 . S
H307 C291 0.930 1_556 S
H308 C292 0.931 . S
H309 C296 0.928 . S
H310 C295 0.929 . S
H311 C293 0.932 . S
Eu312 N341 2.600 . S
Eu312 N347 2.562 . S
Eu312 O356 2.462 . S
Eu312 O357 2.373 1_545 S
Eu312 O359 2.432 . S
Eu312 O360 2.291 1_655 S
Eu312 O364 2.335 1_655 S
Eu312 O367 2.372 . S
Eu312 C376 2.787 . S
C313 N314 1.365 . S
C313 C316 1.405 . S
C313 C320 1.448 . S
N314 C313 1.365 . S
N314 C317 1.316 1_545 S
N314 Eu323 2.600 1_545 S
C315 C317 1.389 1_545 S
C315 C318 1.367 . S
C315 H335 0.931 . S
C316 C313 1.405 . S
C316 C318 1.403 . S
C316 C322 1.439 . S
C317 N314 1.316 1_565 S
C317 C315 1.389 1_565 S
C317 H328 0.942 . S
C318 C315 1.367 . S
C318 C316 1.403 . S
C318 H339 0.929 . S
C319 C320 1.430 . S
C319 C321 1.387 . S
C319 C325 1.404 . S
C320 C313 1.448 . S
C320 C319 1.430 . S
C320 N324 1.351 . S
C321 C319 1.387 . S
C321 C322 1.374 . S
C321 H336 0.931 . S
C322 C316 1.439 . S
C322 C321 1.374 . S
C322 H337 0.931 . S
Eu323 N314 2.600 1_565 S
Eu323 N324 2.562 1_565 S
Eu323 O358 2.335 . S
Eu323 O361 2.372 . S
Eu323 O362 2.462 . S
Eu323 O363 2.373 1_565 S
Eu323 O365 2.432 . S
Eu323 O366 2.291 1_465 S
Eu323 C387 2.787 . S
N324 C320 1.351 . S
N324 Eu323 2.562 1_545 S
N324 C326 1.325 . S
C325 C319 1.404 . S
C325 C327 1.366 . S
C325 H333 0.930 . S
C326 N324 1.325 . S
C326 C327 1.416 . S
C326 H332 0.902 1_455 S
C327 C325 1.366 . S
C327 C326 1.416 . S
C327 H329 0.930 . S
H328 C317 0.942 . S
H329 C327 0.930 . S
H330 C345 0.930 . S
H331 C352 0.930 1_455 S
H332 C326 0.902 1_655 S
H333 C325 0.930 . S
H334 C348 0.929 1_455 S
H335 C315 0.931 . S
H336 C321 0.931 . S
H337 C322 0.931 . S
H338 C343 0.931 . S
H339 C318 0.929 . S
H340 C351 0.930 . S
N341 Eu312 2.600 . S
N341 C342 1.365 . S
N341 C345 1.319 . S
C342 N341 1.365 . S
C342 C344 1.405 1_545 S
C342 C350 1.448 . S
C343 H338 0.931 . S
C343 C345 1.397 . S
C343 C346 1.378 . S
C344 C342 1.405 1_565 S
C344 C346 1.401 1_565 S
C344 C377 1.439 . S
C345 H330 0.930 . S
C345 N341 1.319 . S
C345 C343 1.397 . S
C346 C343 1.378 . S
C346 C344 1.401 1_545 S
C346 H353 0.922 1_545 S
N347 Eu312 2.562 . S
N347 C348 1.325 . S
N347 C350 1.351 . S
C348 H334 0.929 1_655 S
C348 N347 1.325 . S
C348 C352 1.416 1_545 S
C349 C350 1.430 1_565 S
C349 C351 1.404 . S
C349 C378 1.387 . S
C350 C342 1.448 . S
C350 N347 1.351 . S
C350 C349 1.430 1_545 S
C351 H340 0.930 . S
C351 C349 1.404 . S
C351 C352 1.366 . S
C352 H331 0.930 1_655 S
C352 C348 1.416 1_565 S
C352 C351 1.366 . S
H353 C346 0.922 1_565 S
H354 C377 0.931 . S
H355 C378 0.931 . S
O356 Eu312 2.462 . S
O356 C376 1.252 . S
O357 Eu312 2.373 1_565 S
O357 C368 1.249 . S
O358 Eu323 2.335 . S
O358 C368 1.264 1_455 S
O359 Eu312 2.432 . S
O359 C376 1.268 . S
O360 Eu312 2.291 1_455 S
O360 C375 1.255 . S
O361 Eu323 2.372 . S
O361 C375 1.257 1_565 S
O362 Eu323 2.462 . S
O362 C387 1.252 . S
O363 Eu323 2.373 1_545 S
O363 C379 1.249 . S
O364 Eu312 2.335 1_455 S
O364 C379 1.264 . S
O365 Eu323 2.432 . S
O365 C387 1.268 . S
O366 Eu323 2.291 1_645 S
O366 C386 1.255 . S
O367 Eu312 2.372 . S
O367 C386 1.257 . S
C368 O357 1.249 . S
C368 O358 1.264 1_655 S
C369 C372 1.382 . S
C369 C374 1.390 . S
C369 C376 1.506 . S
C370 C371 1.398 . S
C370 C374 1.392 . S
C371 C370 1.398 . S
C371 C373 1.372 . S
C371 H388 0.931 . S
C372 C369 1.382 . S
C372 C373 1.390 . S
C372 H389 0.931 . S
C373 C371 1.372 . S
C373 C372 1.390 . S
C373 H390 0.929 . S
C374 C369 1.390 . S
C374 C370 1.392 . S
C374 H391 0.930 1_655 S
C375 O360 1.255 . S
C375 O361 1.257 1_545 S
C376 Eu312 2.787 . S
C376 O356 1.252 . S
C376 O359 1.268 . S
C376 C369 1.506 . S
C377 C344 1.439 . S
C377 H354 0.931 . S
C377 C378 1.374 . S
C378 C349 1.387 . S
C378 H355 0.931 . S
C378 C377 1.374 . S
C379 O363 1.249 . S
C379 O364 1.264 . S
C380 C383 1.382 . S
C380 C384 1.390 . S
C380 C387 1.506 . S
C381 C382 1.398 . S
C381 C384 1.392 . S
C382 C381 1.398 . S
C382 C385 1.372 . S
C382 H392 0.931 . S
C383 C380 1.382 . S
C383 C385 1.390 . S
C383 H393 0.931 . S
C384 C380 1.390 . S
C384 C381 1.392 . S
C384 H394 0.930 . S
C385 C382 1.372 . S
C385 C383 1.390 . S
C385 H395 0.929 . S
C386 O366 1.255 . S
C386 O367 1.257 . S
C387 Eu323 2.787 . S
C387 O362 1.252 . S
C387 O365 1.268 . S
C387 C380 1.506 . S
H388 C371 0.931 . S
H389 C372 0.931 . S
H390 C373 0.929 . S
H391 C374 0.930 1_455 S
H392 C382 0.931 . S
H393 C383 0.931 . S
H394 C384 0.930 . S
H395 C385 0.929 . S
Eu396 N425 2.600 . S
Eu396 N431 2.562 . S
Eu396 O440 2.462 . S
Eu396 O441 2.373 . S
Eu396 O443 2.432 . S
Eu396 O444 2.291 . S
Eu396 O448 2.335 1_545 S
Eu396 O451 2.372 . S
Eu396 C460 2.787 . S
C397 N398 1.365 . S
C397 C400 1.405 . S
C397 C404 1.448 . S
N398 C397 1.365 . S
N398 C401 1.319 . S
N398 Eu407 2.600 . S
C399 C401 1.397 . S
C399 C402 1.367 . S
C399 H419 0.931 . S
C400 C397 1.405 . S
C400 C402 1.403 . S
C400 C406 1.439 . S
C401 N398 1.319 . S
C401 C399 1.397 . S
C401 H412 0.930 . S
C402 C399 1.367 . S
C402 C400 1.403 . S
C402 H423 0.929 . S
C403 C404 1.430 . S
C403 C405 1.387 . S
C403 C409 1.404 . S
C404 C397 1.448 . S
C404 C403 1.430 . S
C404 N408 1.351 . S
C405 C403 1.387 . S
C405 C406 1.374 . S
C405 H420 0.931 . S
C406 C400 1.439 . S
C406 C405 1.374 . S
C406 H421 0.931 . S
Eu407 N398 2.600 . S
Eu407 N408 2.562 . S
Eu407 O442 2.335 1_565 S
Eu407 O445 2.372 . S
Eu407 O446 2.462 . S
Eu407 O447 2.373 . S
Eu407 O449 2.432 . S
Eu407 O450 2.291 1_565 S
Eu407 C471 2.787 . S
N408 C404 1.351 . S
N408 Eu407 2.562 . S
N408 C410 1.325 . S
C409 C403 1.404 . S
C409 C411 1.366 . S
C409 H417 0.930 . S
C410 N408 1.325 . S
C410 C411 1.416 . S
C410 H416 0.929 . S
C411 C409 1.366 . S
C411 C410 1.416 . S
C411 H413 0.930 . S
H412 C401 0.930 . S
H413 C411 0.930 . S
H414 C429 0.930 . S
H415 C436 0.930 . S
H416 C410 0.929 . S
H417 C409 0.930 . S
H418 C432 0.929 . S
H419 C399 0.931 . S
H420 C405 0.931 . S
H421 C406 0.931 . S
H422 C427 0.931 . S
H423 C402 0.929 . S
H424 C435 0.930 . S
N425 Eu396 2.600 . S
N425 C426 1.365 . S
N425 C429 1.319 . S
C426 N425 1.365 . S
C426 C428 1.405 . S
C426 C434 1.448 . S
C427 H422 0.931 . S
C427 C429 1.397 . S
C427 C430 1.367 . S
C428 C426 1.405 . S
C428 C430 1.403 . S
C428 C461 1.439 . S
C429 H414 0.930 . S
C429 N425 1.319 . S
C429 C427 1.397 . S
C430 C427 1.367 . S
C430 C428 1.403 . S
C430 H437 0.929 . S
N431 Eu396 2.562 . S
N431 C432 1.325 . S
N431 C434 1.351 . S
C432 H418 0.929 . S
C432 N431 1.325 . S
C432 C436 1.416 . S
C433 C434 1.430 . S
C433 C435 1.404 . S
C433 C462 1.387 . S
C434 C426 1.448 . S
C434 N431 1.351 . S
C434 C433 1.430 . S
C435 H424 0.930 . S
C435 C433 1.404 . S
C435 C436 1.366 . S
C436 H415 0.930 . S
C436 C432 1.416 . S
C436 C435 1.366 . S
H437 C430 0.929 . S
H438 C461 0.931 . S
H439 C462 0.931 . S
O440 Eu396 2.462 . S
O440 C460 1.252 . S
O441 Eu396 2.373 . S
O441 C452 1.249 . S
O442 Eu407 2.335 1_545 S
O442 C452 1.264 . S
O443 Eu396 2.432 . S
O443 C460 1.268 . S
O444 Eu396 2.291 . S
O444 C459 1.250 1_545 S
O445 Eu407 2.372 . S
O445 C459 1.260 . S
O446 Eu407 2.462 . S
O446 C471 1.252 . S
O447 Eu407 2.373 . S
O447 C463 1.249 . S
O448 Eu396 2.335 1_565 S
O448 C463 1.264 . S
O449 Eu407 2.432 . S
O449 C471 1.268 . S
O450 Eu407 2.291 1_545 S
O450 C470 1.255 . S
O451 Eu396 2.372 . S
O451 C470 1.257 . S
C452 O441 1.249 . S
C452 O442 1.264 . S
C453 C456 1.382 . S
C453 C458 1.390 . S
C453 C460 1.506 . S
C454 C455 1.398 . S
C454 C458 1.392 . S
C455 C454 1.398 . S
C455 C457 1.372 . S
C455 H472 0.931 . S
C456 C453 1.382 . S
C456 C457 1.390 . S
C456 H473 0.931 . S
C457 C455 1.372 . S
C457 C456 1.390 . S
C457 H474 0.929 . S
C458 C453 1.390 . S
C458 C454 1.392 . S
C458 H475 0.930 . S
C459 O444 1.250 1_565 S
C459 O445 1.260 . S
C460 Eu396 2.787 . S
C460 O440 1.252 . S
C460 O443 1.268 . S
C460 C453 1.506 . S
C461 C428 1.439 . S
C461 H438 0.931 . S
C461 C462 1.374 . S
C462 C433 1.387 . S
C462 H439 0.931 . S
C462 C461 1.374 . S
C463 O447 1.249 . S
C463 O448 1.264 . S
C464 C467 1.382 . S
C464 C468 1.390 1_565 S
C464 C471 1.506 . S
C465 C466 1.398 1_545 S
C465 C468 1.392 . S
C466 C465 1.398 1_565 S
C466 C469 1.372 . S
C466 H476 0.931 . S
C467 C464 1.382 . S
C467 C469 1.390 . S
C467 H477 0.931 . S
C468 C464 1.390 1_545 S
C468 C465 1.392 . S
C468 H478 0.930 . S
C469 C466 1.372 . S
C469 C467 1.390 . S
C469 H479 0.929 . S
C470 O450 1.255 . S
C470 O451 1.257 . S
C471 Eu407 2.787 . S
C471 O446 1.252 . S
C471 O449 1.268 . S
C471 C464 1.506 . S
H472 C455 0.931 . S
H473 C456 0.931 . S
H474 C457 0.929 . S
H475 C458 0.930 . S
H476 C466 0.931 . S
H477 C467 0.931 . S
H478 C468 0.930 . S
H479 C469 0.929 . S
Eu480 N509 2.600 . S
Eu480 N515 2.562 . S
Eu480 O524 2.462 . S
Eu480 O525 2.373 . S
Eu480 O527 2.432 . S
Eu480 O528 2.291 . S
Eu480 O532 2.335 . S
Eu480 O535 2.372 . S
Eu480 C544 2.787 . S
C481 N482 1.365 . S
C481 C484 1.405 . S
C481 C488 1.448 . S
N482 C481 1.365 . S
N482 C485 1.319 . S
N482 Eu491 2.600 . S
C483 C485 1.397 . S
C483 C486 1.367 . S
C483 H503 0.931 . S
C484 C481 1.405 . S
C484 C486 1.403 . S
C484 C490 1.439 . S
C485 N482 1.319 . S
C485 C483 1.397 . S
C485 H496 0.930 . S
C486 C483 1.367 . S
C486 C484 1.403 . S
C486 H507 0.929 . S
C487 C488 1.430 . S
C487 C489 1.387 . S
C487 C493 1.404 . S
C488 C481 1.448 . S
C488 C487 1.430 . S
C488 N492 1.351 . S
C489 C487 1.387 . S
C489 C490 1.374 . S
C489 H504 0.931 . S
C490 C484 1.439 . S
C490 C489 1.374 . S
C490 H505 0.931 . S
Eu491 N482 2.600 . S
Eu491 N492 2.562 . S
Eu491 O526 2.335 . S
Eu491 O529 2.372 . S
Eu491 O530 2.462 . S
Eu491 O531 2.373 . S
Eu491 O533 2.432 . S
Eu491 O534 2.291 . S
Eu491 C555 2.787 . S
N492 C488 1.351 . S
N492 Eu491 2.562 . S
N492 C494 1.325 . S
C493 C487 1.404 . S
C493 C495 1.366 . S
C493 H501 0.930 . S
C494 N492 1.325 . S
C494 C495 1.416 . S
C494 H500 0.929 . S
C495 C493 1.366 . S
C495 C494 1.416 . S
C495 H497 0.930 . S
H496 C485 0.930 . S
H497 C495 0.930 . S
H498 C513 0.930 . S
H499 C520 0.930 . S
H500 C494 0.929 . S
H501 C493 0.930 . S
H502 C516 0.929 . S
H503 C483 0.931 . S
H504 C489 0.931 . S
H505 C490 0.931 . S
H506 C511 0.931 . S
H507 C486 0.929 . S
H508 C519 0.930 . S
N509 Eu480 2.600 . S
N509 C510 1.365 . S
N509 C513 1.319 . S
C510 N509 1.365 . S
C510 C512 1.405 . S
C510 C518 1.448 . S
C511 H506 0.931 . S
C511 C513 1.397 . S
C511 C514 1.367 . S
C512 C510 1.405 . S
C512 C514 1.403 . S
C512 C545 1.439 . S
C513 H498 0.930 . S
C513 N509 1.319 . S
C513 C511 1.397 . S
C514 C511 1.367 . S
C514 C512 1.403 . S
C514 H521 0.929 . S
N515 Eu480 2.562 . S
N515 C516 1.325 . S
N515 C518 1.351 . S
C516 H502 0.929 . S
C516 N515 1.325 . S
C516 C520 1.416 . S
C517 C518 1.430 . S
C517 C519 1.404 . S
C517 C546 1.387 . S
C518 C510 1.448 . S
C518 N515 1.351 . S
C518 C517 1.430 . S
C519 H508 0.930 . S
C519 C517 1.404 . S
C519 C520 1.366 . S
C520 H499 0.930 . S
C520 C516 1.416 . S
C520 C519 1.366 . S
H521 C514 0.929 . S
H522 C545 0.931 . S
H523 C546 0.931 . S
O524 Eu480 2.462 . S
O524 C544 1.252 . S
O525 Eu480 2.373 . S
O525 C536 1.249 . S
O526 Eu491 2.335 . S
O526 C536 1.264 . S
O527 Eu480 2.432 . S
O527 C544 1.268 . S
O528 Eu480 2.291 . S
O528 C543 1.255 . S
O529 Eu491 2.372 . S
O529 C543 1.257 . S
O530 Eu491 2.462 . S
O530 C555 1.252 . S
O531 Eu491 2.373 . S
O531 C547 1.249 . S
O532 Eu480 2.335 . S
O532 C547 1.264 . S
O533 Eu491 2.432 . S
O533 C555 1.268 . S
O534 Eu491 2.291 . S
O534 C554 1.255 . S
O535 Eu480 2.372 . S
O535 C554 1.257 . S
C536 O525 1.249 . S
C536 O526 1.264 . S
C537 C540 1.382 . S
C537 C542 1.390 . S
C537 C544 1.506 . S
C538 C539 1.398 . S
C538 C542 1.392 . S
C539 C538 1.398 . S
C539 C541 1.372 . S
C539 H556 0.931 . S
C540 C537 1.382 . S
C540 C541 1.390 . S
C540 H557 0.931 . S
C541 C539 1.372 . S
C541 C540 1.390 . S
C541 H558 0.929 . S
C542 C537 1.390 . S
C542 C538 1.392 . S
C542 H559 0.930 . S
C543 O528 1.255 . S
C543 O529 1.257 . S
C544 Eu480 2.787 . S
C544 O524 1.252 . S
C544 O527 1.268 . S
C544 C537 1.506 . S
C545 C512 1.439 . S
C545 H522 0.931 . S
C545 C546 1.374 . S
C546 C517 1.387 . S
C546 H523 0.931 . S
C546 C545 1.374 . S
C547 O531 1.249 . S
C547 O532 1.264 . S
C548 C551 1.382 . S
C548 C552 1.390 . S
C548 C555 1.506 . S
C549 C550 1.398 . S
C549 C552 1.392 . S
C550 C549 1.398 . S
C550 C553 1.372 . S
C550 H560 0.931 . S
C551 C548 1.382 . S
C551 C553 1.390 . S
C551 H561 0.931 . S
C552 C548 1.390 . S
C552 C549 1.392 . S
C552 H562 0.930 . S
C553 C550 1.372 . S
C553 C551 1.390 . S
C553 H563 0.929 . S
C554 O534 1.255 . S
C554 O535 1.257 . S
C555 Eu491 2.787 . S
C555 O530 1.252 . S
C555 O533 1.268 . S
C555 C548 1.506 . S
H556 C539 0.931 . S
H557 C540 0.931 . S
H558 C541 0.929 . S
H559 C542 0.930 . S
H560 C550 0.931 . S
H561 C551 0.931 . S
H562 C552 0.930 . S
H563 C553 0.929 . S
Eu564 N593 2.600 . S
Eu564 N599 2.562 . S
Eu564 O608 2.462 . S
Eu564 O609 2.373 1_455 S
Eu564 O611 2.432 . S
Eu564 O612 2.291 . S
Eu564 O616 2.335 . S
Eu564 O619 2.372 . S
Eu564 C628 2.787 . S
C565 N566 1.365 1_455 S
C565 C568 1.405 . S
C565 C572 1.448 . S
N566 C565 1.365 1_655 S
N566 C569 1.319 . S
N566 Eu575 2.600 . S
C567 C569 1.397 1_455 S
C567 C570 1.367 . S
C567 H587 0.932 . S
C568 C565 1.405 . S
C568 C570 1.403 . S
C568 C574 1.439 . S
C569 N566 1.319 . S
C569 C567 1.397 1_655 S
C569 H580 0.930 . S
C570 C567 1.367 . S
C570 C568 1.403 . S
C570 H591 0.929 . S
C571 C572 1.430 . S
C571 C573 1.387 . S
C571 C577 1.404 . S
C572 C565 1.448 . S
C572 C571 1.430 . S
C572 N576 1.351 . S
C573 C571 1.387 . S
C573 C574 1.374 . S
C573 H588 0.931 . S
C574 C568 1.439 . S
C574 C573 1.374 . S
C574 H589 0.931 . S
Eu575 N566 2.600 . S
Eu575 N576 2.562 1_655 S
Eu575 O610 2.335 . S
Eu575 O613 2.372 . S
Eu575 O614 2.462 . S
Eu575 O615 2.373 1_655 S
Eu575 O617 2.432 . S
Eu575 O618 2.301 . S
Eu575 C639 2.787 . S
N576 C572 1.351 . S
N576 Eu575 2.562 1_455 S
N576 C578 1.325 . S
C577 C571 1.404 . S
C577 C579 1.366 . S
C577 H585 0.930 . S
C578 N576 1.325 . S
C578 C579 1.416 . S
C578 H584 0.929 1_455 S
C579 C577 1.366 . S
C579 C578 1.416 . S
C579 H581 0.930 . S
H580 C569 0.930 . S
H581 C579 0.930 . S
H582 C597 0.930 . S
H583 C604 0.930 . S
H584 C578 0.929 1_655 S
H585 C577 0.930 . S
H586 C600 0.929 . S
H587 C567 0.932 . S
H588 C573 0.931 . S
H589 C574 0.931 . S
H590 C595 0.931 . S
H591 C570 0.929 . S
H592 C603 0.930 . S
N593 Eu564 2.600 . S
N593 C594 1.365 . S
N593 C597 1.319 . S
C594 N593 1.365 . S
C594 C596 1.405 1_455 S
C594 C602 1.451 . S
C595 H590 0.931 . S
C595 C597 1.397 . S
C595 C598 1.367 1_455 S
C596 C594 1.405 1_655 S
C596 C598 1.403 . S
C596 C629 1.439 . S
C597 H582 0.930 . S
C597 N593 1.319 . S
C597 C595 1.397 . S
C598 C595 1.367 1_655 S
C598 C596 1.403 . S
C598 H605 0.929 . S
N599 Eu564 2.562 . S
N599 C600 1.325 . S
N599 C602 1.364 . S
C600 H586 0.929 . S
C600 N599 1.325 . S
C600 C604 1.416 1_455 S
C601 C602 1.415 1_655 S
C601 C603 1.404 . S
C601 C630 1.387 . S
C602 C594 1.451 . S
C602 N599 1.364 . S
C602 C601 1.415 1_455 S
C603 H592 0.930 . S
C603 C601 1.404 . S
C603 C604 1.366 . S
C604 H583 0.930 . S
C604 C600 1.416 1_655 S
C604 C603 1.366 . S
H605 C598 0.929 . S
H606 C629 0.931 . S
H607 C630 0.931 . S
O608 Eu564 2.462 . S
O608 C628 1.252 . S
O609 Eu564 2.373 1_655 S
O609 C620 1.249 . S
O610 Eu575 2.335 . S
O610 C620 1.264 . S
O611 Eu564 2.432 . S
O611 C628 1.268 . S
O612 Eu564 2.291 . S
O612 C627 1.255 . S
O613 Eu575 2.372 . S
O613 C627 1.257 1_655 S
O614 Eu575 2.462 . S
O614 C639 1.252 . S
O615 Eu575 2.373 1_455 S
O615 C631 1.249 . S
O616 Eu564 2.335 . S
O616 C631 1.264 . S
O617 Eu575 2.432 . S
O617 C639 1.268 . S
O618 Eu575 2.301 . S
O618 C638 1.248 1_655 S
O619 Eu564 2.372 . S
O619 C638 1.257 . S
C620 O609 1.249 . S
C620 O610 1.264 . S
C621 C624 1.382 . S
C621 C626 1.390 . S
C621 C628 1.506 . S
C622 C623 1.398 . S
C622 C626 1.392 . S
C623 C622 1.398 . S
C623 C625 1.372 . S
C623 H640 0.931 . S
C624 C621 1.382 . S
C624 C625 1.390 . S
C624 H641 0.931 . S
C625 C623 1.372 . S
C625 C624 1.390 . S
C625 H642 0.929 . S
C626 C621 1.390 . S
C626 C622 1.392 . S
C626 H643 0.930 . S
C627 O612 1.255 . S
C627 O613 1.257 1_455 S
C628 Eu564 2.787 . S
C628 O608 1.252 . S
C628 O611 1.268 . S
C628 C621 1.506 . S
C629 C596 1.439 . S
C629 H606 0.931 . S
C629 C630 1.374 . S
C630 C601 1.387 . S
C630 H607 0.931 . S
C630 C629 1.374 . S
C631 O615 1.249 . S
C631 O616 1.264 . S
C632 C635 1.382 . S
C632 C636 1.390 . S
C632 C639 1.506 . S
C633 C634 1.398 . S
C633 C636 1.392 . S
C634 C633 1.398 . S
C634 C637 1.372 . S
C634 H644 0.931 . S
C635 C632 1.382 . S
C635 C637 1.390 . S
C635 H645 0.931 . S
C636 C632 1.390 . S
C636 C633 1.392 . S
C636 H646 0.930 . S
C637 C634 1.372 . S
C637 C635 1.390 . S
C637 H647 0.929 . S
C638 O618 1.248 1_455 S
C638 O619 1.257 . S
C639 Eu575 2.787 . S
C639 O614 1.252 . S
C639 O617 1.268 . S
C639 C632 1.506 . S
H640 C623 0.931 . S
H641 C624 0.931 . S
H642 C625 0.929 . S
H643 C626 0.930 . S
H644 C634 0.931 . S
H645 C635 0.931 . S
H646 C636 0.930 . S
H647 C637 0.929 . S
C648 C649 1.391 . S
C648 C650 1.394 . S
C648 H664 0.931 . S
C649 C648 1.391 . S
C649 C653 1.376 . S
C650 C648 1.394 . S
C650 C651 1.369 . S
C650 C654 1.531 1_545 S
C651 C650 1.369 . S
C651 C652 1.410 . S
C651 C659 1.503 . S
C652 C651 1.410 . S
C652 C653 1.392 . S
C652 C655 1.511 . S
C653 C649 1.376 . S
C653 C652 1.392 . S
C653 H665 0.929 . S
C654 C650 1.531 1_565 S
C654 H666 0.960 . S
C654 H667 0.962 . S
C654 H668 0.960 . S
C655 C652 1.511 . S
C655 H669 0.961 . S
C655 H670 0.961 . S
C655 H671 0.961 . S
C656 C657 1.370 . S
C656 C658 1.363 . S
C656 H672 0.931 . S
C657 C656 1.370 . S
C657 C661 1.408 . S
C658 C656 1.363 . S
C658 C659 1.370 . S
C658 C662 1.524 . S
C659 C651 1.503 . S
C659 C658 1.370 . S
C659 C660 1.403 . S
C660 C659 1.403 . S
C660 C661 1.404 . S
C660 C663 1.539 . S
C661 C657 1.408 . S
C661 C660 1.404 . S
C661 H673 0.930 . S
C662 C658 1.524 . S
C662 H674 0.956 . S
C662 H675 0.961 . S
C662 H676 0.961 . S
C663 C660 1.539 . S
C663 H677 0.958 1_545 S
C663 H678 0.961 . S
C663 H679 0.960 . S
H664 C648 0.931 . S
H665 C653 0.929 . S
H666 C654 0.960 . S
H667 C654 0.962 . S
H668 C654 0.960 . S
H669 C655 0.961 . S
H670 C655 0.961 . S
H671 C655 0.961 . S
H672 C656 0.931 . S
H673 C661 0.930 . S
H674 C662 0.956 . S
H675 C662 0.961 . S
H676 C662 0.961 . S
H677 C663 0.958 1_565 S
H678 C663 0.961 . S
H679 C663 0.960 . S
C680 C681 1.391 . S
C680 C682 1.394 . S
C680 H696 0.931 . S
C681 C680 1.391 . S
C681 C685 1.376 . S
C682 C680 1.394 . S
C682 C683 1.369 . S
C682 C686 1.531 . S
C683 C682 1.369 . S
C683 C684 1.410 . S
C683 C691 1.503 . S
C684 C683 1.410 . S
C684 C685 1.392 . S
C684 C687 1.511 . S
C685 C681 1.376 . S
C685 C684 1.392 . S
C685 H697 0.929 . S
C686 C682 1.531 . S
C686 H698 0.960 . S
C686 H699 0.962 . S
C686 H700 0.960 . S
C687 C684 1.511 . S
C687 H701 0.961 . S
C687 H702 0.961 . S
C687 H703 0.961 . S
C688 C689 1.370 . S
C688 C690 1.363 . S
C688 H704 0.931 . S
C689 C688 1.370 . S
C689 C693 1.408 . S
C690 C688 1.363 . S
C690 C691 1.370 . S
C690 C694 1.524 . S
C691 C683 1.503 . S
C691 C690 1.370 . S
C691 C692 1.403 . S
C692 C691 1.403 . S
C692 C693 1.404 . S
C692 C695 1.539 . S
C693 C689 1.408 . S
C693 C692 1.404 . S
C693 H705 0.930 . S
C694 C690 1.524 . S
C694 H706 0.956 . S
C694 H707 0.961 . S
C694 H708 0.961 . S
C695 C692 1.539 . S
C695 H709 0.958 . S
C695 H710 0.961 . S
C695 H711 0.960 . S
H696 C680 0.931 . S
H697 C685 0.929 . S
H698 C686 0.960 . S
H699 C686 0.962 . S
H700 C686 0.960 . S
H701 C687 0.961 . S
H702 C687 0.961 . S
H703 C687 0.961 . S
H704 C688 0.931 . S
H705 C693 0.930 . S
H706 C694 0.956 . S
H707 C694 0.961 . S
H708 C694 0.961 . S
H709 C695 0.958 . S
H710 C695 0.961 . S
H711 C695 0.960 . S
C712 C713 1.391 . S
C712 C714 1.394 . S
C712 H728 0.931 . S
C713 C712 1.391 . S
C713 C717 1.376 . S
C714 C712 1.394 . S
C714 C715 1.369 . S
C714 C718 1.531 . S
C715 C714 1.369 . S
C715 C716 1.410 . S
C715 C723 1.503 . S
C716 C715 1.410 . S
C716 C717 1.392 . S
C716 C719 1.511 . S
C717 C713 1.376 . S
C717 C716 1.392 . S
C717 H729 0.929 . S
C718 C714 1.531 . S
C718 H730 0.960 . S
C718 H731 0.962 . S
C718 H732 0.960 . S
C719 C716 1.511 . S
C719 H733 0.961 . S
C719 H734 0.961 . S
C719 H735 0.961 . S
C720 C721 1.370 . S
C720 C722 1.363 . S
C720 H736 0.931 . S
C721 C720 1.370 . S
C721 C725 1.408 . S
C722 C720 1.363 . S
C722 C723 1.370 . S
C722 C726 1.524 . S
C723 C715 1.503 . S
C723 C722 1.370 . S
C723 C724 1.403 . S
C724 C723 1.403 . S
C724 C725 1.404 . S
C724 C727 1.539 . S
C725 C721 1.408 . S
C725 C724 1.404 . S
C725 H737 0.930 . S
C726 C722 1.524 . S
C726 H738 0.956 . S
C726 H739 0.961 . S
C726 H740 0.961 . S
C727 C724 1.539 . S
C727 H741 0.958 . S
C727 H742 0.961 . S
C727 H743 0.960 . S
H728 C712 0.931 . S
H729 C717 0.929 . S
H730 C718 0.960 . S
H731 C718 0.962 . S
H732 C718 0.960 . S
H733 C719 0.961 . S
H734 C719 0.961 . S
H735 C719 0.961 . S
H736 C720 0.931 . S
H737 C725 0.930 . S
H738 C726 0.956 . S
H739 C726 0.961 . S
H740 C726 0.961 . S
H741 C727 0.958 . S
H742 C727 0.961 . S
H743 C727 0.960 . S
C744 C745 1.391 . S
C744 C746 1.394 . S
C744 H760 0.931 . S
C745 C744 1.391 . S
C745 C749 1.376 . S
C746 C744 1.394 . S
C746 C747 1.369 . S
C746 C750 1.531 . S
C747 C746 1.369 . S
C747 C748 1.410 . S
C747 C755 1.503 . S
C748 C747 1.410 . S
C748 C749 1.392 . S
C748 C751 1.511 1_455 S
C749 C745 1.376 . S
C749 C748 1.392 . S
C749 H761 0.929 . S
C750 C746 1.531 . S
C750 H762 0.960 . S
C750 H763 0.962 . S
C750 H764 0.960 . S
C751 C748 1.511 1_655 S
C751 H765 0.961 . S
C751 H766 0.961 . S
C751 H767 0.961 . S
C752 C753 1.370 . S
C752 C754 1.363 . S
C752 H768 0.931 . S
C753 C752 1.370 . S
C753 C757 1.408 . S
C754 C752 1.363 . S
C754 C755 1.370 . S
C754 C758 1.524 . S
C755 C747 1.503 . S
C755 C754 1.370 . S
C755 C756 1.403 . S
C756 C755 1.403 . S
C756 C757 1.404 . S
C756 C759 1.539 . S
C757 C753 1.408 . S
C757 C756 1.404 . S
C757 H769 0.930 . S
C758 C754 1.524 . S
C758 H770 0.956 . S
C758 H771 0.961 . S
C758 H772 0.961 . S
C759 C756 1.539 . S
C759 H773 0.958 . S
C759 H774 0.961 . S
C759 H775 0.960 . S
H760 C744 0.931 . S
H761 C749 0.929 . S
H762 C750 0.960 . S
H763 C750 0.962 . S
H764 C750 0.960 . S
H765 C751 0.961 . S
H766 C751 0.961 . S
H767 C751 0.961 . S
H768 C752 0.931 . S
H769 C757 0.930 . S
H770 C758 0.956 . S
H771 C758 0.961 . S
H772 C758 0.961 . S
H773 C759 0.958 . S
H774 C759 0.961 . S
H775 C759 0.960 . S
C776 C777 1.391 . S
C776 C778 1.394 . S
C776 H792 0.931 . S
C777 C776 1.391 . S
C777 C781 1.376 . S
C778 C776 1.394 . S
C778 C779 1.369 1_554 S
C778 C782 1.531 . S
C779 C778 1.369 1_556 S
C779 C780 1.410 . S
C779 C787 1.503 . S
C780 C779 1.410 . S
C780 C781 1.392 1_556 S
C780 C783 1.511 . S
C781 C777 1.376 . S
C781 C780 1.392 1_554 S
C781 H793 0.929 . S
C782 C778 1.531 . S
C782 H794 0.960 1_554 S
C782 H795 0.962 . S
C782 H796 0.960 . S
C783 C780 1.511 . S
C783 H797 0.961 . S
C783 H798 0.961 . S
C783 H799 0.961 . S
C784 C785 1.370 1_545 S
C784 C786 1.363 . S
C784 H800 0.931 . S
C785 C784 1.370 1_565 S
C785 C789 1.408 . S
C786 C784 1.363 . S
C786 C787 1.370 1_545 S
C786 C790 1.524 . S
C787 C779 1.503 . S
C787 C786 1.370 1_565 S
C787 C788 1.403 . S
C788 C787 1.403 . S
C788 C789 1.404 . S
C788 C791 1.539 . S
C789 C785 1.408 . S
C789 C788 1.404 . S
C789 H801 0.930 . S
C790 C786 1.524 . S
C790 H802 0.956 . S
C790 H803 0.961 . S
C790 H804 0.961 . S
C791 C788 1.539 . S
C791 H805 0.958 . S
C791 H806 0.961 . S
C791 H807 0.960 . S
H792 C776 0.931 . S
H793 C781 0.929 . S
H794 C782 0.960 1_556 S
H795 C782 0.962 . S
H796 C782 0.960 . S
H797 C783 0.961 . S
H798 C783 0.961 . S
H799 C783 0.961 . S
H800 C784 0.931 . S
H801 C789 0.930 . S
H802 C790 0.956 . S
H803 C790 0.961 . S
H804 C790 0.961 . S
H805 C791 0.958 . S
H806 C791 0.961 . S
H807 C791 0.960 . S
C808 C809 1.391 . S
C808 C810 1.394 . S
C808 H824 0.931 . S
C809 C808 1.391 . S
C809 C813 1.376 . S
C810 C808 1.394 . S
C810 C811 1.369 1_554 S
C810 C814 1.531 . S
C811 C810 1.369 1_556 S
C811 C812 1.410 . S
C811 C819 1.503 . S
C812 C811 1.410 . S
C812 C813 1.392 1_556 S
C812 C815 1.511 . S
C813 C809 1.376 . S
C813 C812 1.392 1_554 S
C813 H825 0.929 . S
C814 C810 1.531 . S
C814 H826 0.960 1_554 S
C814 H827 0.962 . S
C814 H828 0.960 . S
C815 C812 1.511 . S
C815 H829 0.961 . S
C815 H830 0.961 . S
C815 H831 0.961 . S
C816 C817 1.370 . S
C816 C818 1.363 . S
C816 H832 0.931 . S
C817 C816 1.370 . S
C817 C821 1.408 . S
C818 C816 1.363 . S
C818 C819 1.370 . S
C818 C822 1.524 . S
C819 C811 1.503 . S
C819 C818 1.370 . S
C819 C820 1.403 . S
C820 C819 1.403 . S
C820 C821 1.404 . S
C820 C823 1.539 . S
C821 C817 1.408 . S
C821 C820 1.404 . S
C821 H833 0.930 . S
C822 C818 1.524 . S
C822 H834 0.956 . S
C822 H835 0.961 . S
C822 H836 0.961 . S
C823 C820 1.539 . S
C823 H837 0.958 . S
C823 H838 0.961 . S
C823 H839 0.960 . S
H824 C808 0.931 . S
H825 C813 0.929 . S
H826 C814 0.960 1_556 S
H827 C814 0.962 . S
H828 C814 0.960 . S
H829 C815 0.961 . S
H830 C815 0.961 . S
H831 C815 0.961 . S
H832 C816 0.931 . S
H833 C821 0.930 . S
H834 C822 0.956 . S
H835 C822 0.961 . S
H836 C822 0.961 . S
H837 C823 0.958 . S
H838 C823 0.961 . S
H839 C823 0.960 . S
C840 C841 1.391 . S
C840 C842 1.394 . S
C840 H856 0.931 . S
C841 C840 1.391 . S
C841 C845 1.376 . S
C842 C840 1.394 . S
C842 C843 1.369 1_554 S
C842 C846 1.531 . S
C843 C842 1.369 1_556 S
C843 C844 1.410 . S
C843 C851 1.503 . S
C844 C843 1.410 . S
C844 C845 1.392 1_556 S
C844 C847 1.511 . S
C845 C841 1.376 . S
C845 C844 1.392 1_554 S
C845 H857 0.929 . S
C846 C842 1.531 . S
C846 H858 0.960 1_554 S
C846 H859 0.962 . S
C846 H860 0.960 . S
C847 C844 1.511 . S
C847 H861 0.961 . S
C847 H862 0.961 . S
C847 H863 0.961 . S
C848 C849 1.370 . S
C848 C850 1.363 . S
C848 H864 0.931 . S
C849 C848 1.370 . S
C849 C853 1.408 . S
C850 C848 1.363 . S
C850 C851 1.370 . S
C850 C854 1.524 . S
C851 C843 1.503 . S
C851 C850 1.370 . S
C851 C852 1.403 . S
C852 C851 1.403 . S
C852 C853 1.404 . S
C852 C855 1.539 . S
C853 C849 1.408 . S
C853 C852 1.404 . S
C853 H865 0.930 . S
C854 C850 1.524 . S
C854 H866 0.956 . S
C854 H867 0.961 . S
C854 H868 0.961 . S
C855 C852 1.539 . S
C855 H869 0.958 . S
C855 H870 0.961 . S
C855 H871 0.960 . S
H856 C840 0.931 . S
H857 C845 0.929 . S
H858 C846 0.960 1_556 S
H859 C846 0.962 . S
H860 C846 0.960 . S
H861 C847 0.961 . S
H862 C847 0.961 . S
H863 C847 0.961 . S
H864 C848 0.931 . S
H865 C853 0.930 . S
H866 C854 0.956 . S
H867 C854 0.961 . S
H868 C854 0.961 . S
H869 C855 0.958 . S
H870 C855 0.961 . S
H871 C855 0.960 . S
C872 C873 1.391 . S
C872 C874 1.394 . S
C872 H888 0.931 . S
C873 C872 1.391 . S
C873 C877 1.376 . S
C874 C872 1.394 . S
C874 C875 1.369 1_554 S
C874 C878 1.531 1_655 S
C875 C874 1.369 1_556 S
C875 C876 1.410 . S
C875 C883 1.503 . S
C876 C875 1.410 . S
C876 C877 1.392 1_556 S
C876 C879 1.511 . S
C877 C873 1.376 . S
C877 C876 1.392 1_554 S
C877 H889 0.929 . S
C878 C874 1.531 1_455 S
C878 H890 0.958 1_454 S
C878 H891 0.962 . S
C878 H892 0.960 . S
C879 C876 1.511 . S
C879 H893 0.961 . S
C879 H894 0.961 . S
C879 H895 0.961 . S
C880 C881 1.370 1_455 S
C880 C882 1.363 1_455 S
C880 H896 0.931 . S
C881 C880 1.370 1_655 S
C881 C885 1.408 . S
C882 C880 1.363 1_655 S
C882 C883 1.372 . S
C882 C886 1.523 1_655 S
C883 C875 1.503 . S
C883 C882 1.372 . S
C883 C884 1.403 . S
C884 C883 1.403 . S
C884 C885 1.404 . S
C884 C887 1.539 . S
C885 C881 1.408 . S
C885 C884 1.404 . S
C885 H897 0.930 . S
C886 C882 1.523 1_455 S
C886 H898 0.956 . S
C886 H899 0.961 . S
C886 H900 0.961 . S
C887 C884 1.539 . S
C887 H901 0.958 . S
C887 H902 0.961 . S
C887 H903 0.960 . S
H888 C872 0.931 . S
H889 C877 0.929 . S
H890 C878 0.958 1_656 S
H891 C878 0.962 . S
H892 C878 0.960 . S
H893 C879 0.961 . S
H894 C879 0.961 . S
H895 C879 0.961 . S
H896 C880 0.931 . S
H897 C885 0.930 . S
H898 C886 0.956 . S
H899 C886 0.961 . S
H900 C886 0.961 . S
H901 C887 0.958 . S
H902 C887 0.961 . S
H903 C887 0.960 . S
C904 C905 1.391 . S
C904 C906 1.394 . S
C904 H920 0.931 . S
C905 C904 1.391 . S
C905 C909 1.376 . S
C906 C904 1.394 . S
C906 C907 1.369 . S
C906 C910 1.531 . S
C907 C906 1.369 . S
C907 C908 1.410 . S
C907 C915 1.503 . S
C908 C907 1.410 . S
C908 C909 1.392 . S
C908 C911 1.511 1_455 S
C909 C905 1.376 . S
C909 C908 1.392 . S
C909 H921 0.929 . S
C910 C906 1.531 . S
C910 H922 0.960 . S
C910 H923 0.962 . S
C910 H924 0.960 . S
C911 C908 1.511 1_655 S
C911 H925 0.961 . S
C911 H926 0.961 . S
C911 H927 0.961 . S
C912 C913 1.370 1_455 S
C912 C914 1.363 . S
C912 H928 0.931 . S
C913 C912 1.370 1_655 S
C913 C917 1.409 . S
C914 C912 1.363 . S
C914 C915 1.370 . S
C914 C918 1.524 . S
C915 C907 1.503 . S
C915 C914 1.370 . S
C915 C916 1.403 . S
C916 C915 1.403 . S
C916 C917 1.393 1_455 S
C916 C919 1.539 . S
C917 C913 1.409 . S
C917 C916 1.393 1_655 S
C917 H929 0.940 . S
C918 C914 1.524 . S
C918 H930 0.956 . S
C918 H931 0.961 . S
C918 H932 0.961 . S
C919 C916 1.539 . S
C919 H933 0.958 . S
C919 H934 0.961 1_455 S
C919 H935 0.960 . S
H920 C904 0.931 . S
H921 C909 0.929 . S
H922 C910 0.960 . S
H923 C910 0.962 . S
H924 C910 0.960 . S
H925 C911 0.961 . S
H926 C911 0.961 . S
H927 C911 0.961 . S
H928 C912 0.931 . S
H929 C917 0.940 . S
H930 C918 0.956 . S
H931 C918 0.961 . S
H932 C918 0.961 . S
H933 C919 0.958 . S
H934 C919 0.961 1_655 S
H935 C919 0.960 . S
C936 C937 1.391 . S
C936 C938 1.394 . S
C936 H952 0.931 . S
C937 C936 1.391 . S
C937 C941 1.376 . S
C938 C936 1.394 . S
C938 C939 1.369 . S
C938 C942 1.531 . S
C939 C938 1.369 . S
C939 C940 1.410 . S
C939 C947 1.503 . S
C940 C939 1.410 . S
C940 C941 1.392 . S
C940 C943 1.511 . S
C941 C937 1.376 . S
C941 C940 1.392 . S
C941 H953 0.929 . S
C942 C938 1.531 . S
C942 H954 0.960 . S
C942 H955 0.962 . S
C942 H956 0.960 . S
C943 C940 1.511 . S
C943 H957 0.979 . S
C943 H958 0.946 1_545 S
C943 H959 0.961 . S
C944 C945 1.370 1_565 S
C944 C946 1.363 1_565 S
C944 H960 0.931 . S
C945 C944 1.370 1_545 S
C945 C949 1.408 . S
C946 C944 1.363 1_545 S
C946 C947 1.370 . S
C946 C950 1.524 1_545 S
C947 C939 1.503 . S
C947 C946 1.370 . S
C947 C948 1.403 . S
C948 C947 1.403 . S
C948 C949 1.404 . S
C948 C951 1.539 . S
C949 C945 1.408 . S
C949 C948 1.404 . S
C949 H961 0.930 . S
C950 C946 1.524 1_565 S
C950 H962 0.956 1_565 S
C950 H963 0.961 . S
C950 H964 0.961 . S
C951 C948 1.539 . S
C951 H965 0.958 . S
C951 H966 0.961 . S
C951 H967 0.960 . S
H952 C936 0.931 . S
H953 C941 0.929 . S
H954 C942 0.960 . S
H955 C942 0.962 . S
H956 C942 0.960 . S
H957 C943 0.979 . S
H958 C943 0.946 1_565 S
H959 C943 0.961 . S
H960 C944 0.931 . S
H961 C949 0.930 . S
H962 C950 0.956 1_545 S
H963 C950 0.961 . S
H964 C950 0.961 . S
H965 C951 0.958 . S
H966 C951 0.961 . S
H967 C951 0.960 . S
C968 C969 1.391 . S
C968 C970 1.394 . S
C968 H984 0.931 . S
C969 C968 1.391 . S
C969 C973 1.376 . S
C970 C968 1.394 . S
C970 C971 1.369 . S
C970 C974 1.531 . S
C971 C970 1.369 . S
C971 C972 1.410 . S
C971 C979 1.503 . S
C972 C971 1.410 . S
C972 C973 1.392 . S
C972 C975 1.511 . S
C973 C969 1.376 . S
C973 C972 1.392 . S
C973 H985 0.929 . S
C974 C970 1.531 . S
C974 H986 0.960 . S
C974 H987 0.962 . S
C974 H988 0.960 . S
C975 C972 1.511 . S
C975 H989 0.961 . S
C975 H990 0.961 . S
C975 H991 0.961 . S
C976 C977 1.370 . S
C976 C978 1.363 . S
C976 H992 0.931 . S
C977 C976 1.370 . S
C977 C981 1.408 . S
C978 C976 1.363 . S
C978 C979 1.370 . S
C978 C982 1.524 . S
C979 C971 1.503 . S
C979 C978 1.370 . S
C979 C980 1.403 . S
C980 C979 1.403 . S
C980 C981 1.404 . S
C980 C983 1.539 . S
C981 C977 1.408 . S
C981 C980 1.404 . S
C981 H993 0.930 . S
C982 C978 1.524 . S
C982 H994 0.956 . S
C982 H995 0.961 . S
C982 H996 0.961 . S
C983 C980 1.539 . S
C983 H997 0.958 . S
C983 H998 0.961 . S
C983 H999 0.960 . S
H984 C968 0.931 . S
H985 C973 0.929 . S
H986 C974 0.960 . S
H987 C974 0.962 . S
H988 C974 0.960 . S
H989 C975 0.961 . S
H990 C975 0.961 . S
H991 C975 0.961 . S
H992 C976 0.931 . S
H993 C981 0.930 . S
H994 C982 0.956 . S
H995 C982 0.961 . S
H996 C982 0.961 . S
H997 C983 0.958 . S
H998 C983 0.961 . S
H999 C983 0.960 . S
C1000 C1001 1.391 . S
C1000 C1002 1.394 . S
C1000 H1016 0.931 . S
C1001 C1000 1.391 . S
C1001 C1005 1.376 . S
C1002 C1000 1.394 . S
C1002 C1003 1.369 . S
C1002 C1006 1.531 . S
C1003 C1002 1.369 . S
C1003 C1004 1.410 . S
C1003 C1011 1.503 . S
C1004 C1003 1.410 . S
C1004 C1005 1.392 . S
C1004 C1007 1.511 . S
C1005 C1001 1.376 . S
C1005 C1004 1.392 . S
C1005 H1017 0.929 . S
C1006 C1002 1.531 . S
C1006 H1018 0.960 . S
C1006 H1019 0.962 . S
C1006 H1020 0.960 . S
C1007 C1004 1.511 . S
C1007 H1021 0.961 . S
C1007 H1022 0.961 . S
C1007 H1023 0.961 . S
C1008 C1009 1.370 . S
C1008 C1010 1.363 . S
C1008 H1024 0.931 . S
C1009 C1008 1.370 . S
C1009 C1013 1.408 . S
C1010 C1008 1.363 . S
C1010 C1011 1.370 . S
C1010 C1014 1.524 . S
C1011 C1003 1.503 . S
C1011 C1010 1.370 . S
C1011 C1012 1.403 . S
C1012 C1011 1.403 . S
C1012 C1013 1.404 . S
C1012 C1015 1.539 . S
C1013 C1009 1.408 . S
C1013 C1012 1.404 . S
C1013 H1025 0.930 . S
C1014 C1010 1.524 . S
C1014 H1026 0.956 . S
C1014 H1027 0.961 . S
C1014 H1028 0.961 . S
C1015 C1012 1.539 . S
C1015 H1029 0.958 . S
C1015 H1030 0.961 . S
C1015 H1031 0.960 . S
H1016 C1000 0.931 . S
H1017 C1005 0.929 . S
H1018 C1006 0.960 . S
H1019 C1006 0.962 . S
H1020 C1006 0.960 . S
H1021 C1007 0.961 . S
H1022 C1007 0.961 . S
H1023 C1007 0.961 . S
H1024 C1008 0.931 . S
H1025 C1013 0.930 . S
H1026 C1014 0.956 . S
H1027 C1014 0.961 . S
H1028 C1014 0.961 . S
H1029 C1015 0.958 . S
H1030 C1015 0.961 . S
H1031 C1015 0.960 . S
C1032 C1033 1.391 . S
C1032 C1034 1.394 1_554 S
C1032 H1048 0.931 . S
C1033 C1032 1.391 . S
C1033 C1037 1.376 . S
C1034 C1032 1.394 1_556 S
C1034 C1035 1.369 . S
C1034 C1038 1.531 1_655 S
C1035 C1034 1.369 . S
C1035 C1036 1.410 . S
C1035 C1043 1.503 . S
C1036 C1035 1.410 . S
C1036 C1037 1.392 1_556 S
C1036 C1039 1.511 . S
C1037 C1033 1.376 . S
C1037 C1036 1.392 1_554 S
C1037 H1049 0.929 . S
C1038 C1034 1.531 1_455 S
C1038 H1050 0.960 . S
C1038 H1051 0.962 . S
C1038 H1052 0.960 . S
C1039 C1036 1.511 . S
C1039 H1053 0.961 . S
C1039 H1054 0.961 . S
C1039 H1055 0.961 . S
C1040 C1041 1.370 . S
C1040 C1042 1.363 . S
C1040 H1056 0.931 . S
C1041 C1040 1.370 . S
C1041 C1045 1.408 . S
C1042 C1040 1.363 . S
C1042 C1043 1.370 1_455 S
C1042 C1046 1.524 1_556 S
C1043 C1035 1.503 . S
C1043 C1042 1.370 1_655 S
C1043 C1044 1.403 . S
C1044 C1043 1.403 . S
C1044 C1045 1.404 1_655 S
C1044 C1047 1.539 . S
C1045 C1041 1.408 . S
C1045 C1044 1.404 1_455 S
C1045 H1057 0.930 . S
C1046 C1042 1.524 1_554 S
C1046 H1058 0.956 . S
C1046 H1059 0.961 1_455 S
C1046 H1060 0.961 . S
C1047 C1044 1.539 . S
C1047 H1061 0.958 . S
C1047 H1062 0.961 . S
C1047 H1063 0.960 . S
H1048 C1032 0.931 . S
H1049 C1037 0.929 . S
H1050 C1038 0.960 . S
H1051 C1038 0.962 . S
H1052 C1038 0.960 . S
H1053 C1039 0.961 . S
H1054 C1039 0.961 . S
H1055 C1039 0.961 . S
H1056 C1040 0.931 . S
H1057 C1045 0.930 . S
H1058 C1046 0.956 . S
H1059 C1046 0.961 1_655 S
H1060 C1046 0.961 . S
H1061 C1047 0.958 . S
H1062 C1047 0.961 . S
H1063 C1047 0.960 . S
C1064 C1065 1.391 . S
C1064 C1066 1.394 1_554 S
C1064 H1080 0.931 . S
C1065 C1064 1.391 . S
C1065 C1069 1.376 . S
C1066 C1064 1.394 1_556 S
C1066 C1067 1.369 . S
C1066 C1070 1.531 . S
C1067 C1066 1.369 . S
C1067 C1068 1.417 1_556 S
C1067 C1075 1.503 . S
C1068 C1067 1.417 1_554 S
C1068 C1069 1.397 . S
C1068 C1071 1.499 1_565 S
C1069 C1065 1.376 . S
C1069 C1068 1.397 . S
C1069 H1081 0.939 . S
C1070 C1066 1.531 . S
C1070 H1082 0.960 . S
C1070 H1083 0.962 . S
C1070 H1084 0.960 . S
C1071 C1068 1.499 1_545 S
C1071 H1085 0.961 . S
C1071 H1086 0.961 1_554 S
C1071 H1087 0.961 . S
C1072 C1073 1.370 . S
C1072 C1074 1.363 . S
C1072 H1088 0.931 . S
C1073 C1072 1.370 . S
C1073 C1077 1.408 . S
C1074 C1072 1.363 . S
C1074 C1075 1.370 1_545 S
C1074 C1078 1.524 1_545 S
C1075 C1067 1.503 . S
C1075 C1074 1.370 1_565 S
C1075 C1076 1.403 . S
C1076 C1075 1.403 . S
C1076 C1077 1.404 1_565 S
C1076 C1079 1.539 1_556 S
C1077 C1073 1.408 . S
C1077 C1076 1.404 1_545 S
C1077 H1089 0.930 . S
C1078 C1074 1.524 1_565 S
C1078 H1090 0.956 . S
C1078 H1091 0.961 1_565 S
C1078 H1092 0.961 1_565 S
C1079 C1076 1.539 1_554 S
C1079 H1093 0.958 . S
C1079 H1094 0.961 1_565 S
C1079 H1095 0.960 . S
H1080 C1064 0.931 . S
H1081 C1069 0.939 . S
H1082 C1070 0.960 . S
H1083 C1070 0.962 . S
H1084 C1070 0.960 . S
H1085 C1071 0.961 . S
H1086 C1071 0.961 1_556 S
H1087 C1071 0.961 . S
H1088 C1072 0.931 . S
H1089 C1077 0.930 . S
H1090 C1078 0.956 . S
H1091 C1078 0.961 1_545 S
H1092 C1078 0.961 1_545 S
H1093 C1079 0.958 . S
H1094 C1079 0.961 1_545 S
H1095 C1079 0.960 . S
C1096 C1097 1.391 1_556 S
C1096 C1098 1.394 . S
C1096 H1112 0.931 . S
C1097 C1096 1.391 1_554 S
C1097 C1101 1.376 . S
C1098 C1096 1.394 . S
C1098 C1099 1.369 . S
C1098 C1102 1.531 . S
C1099 C1098 1.369 . S
C1099 C1100 1.417 . S
C1099 C1107 1.503 . S
C1100 C1099 1.417 . S
C1100 C1101 1.386 1_556 S
C1100 C1103 1.510 1_556 S
C1101 C1097 1.376 . S
C1101 C1100 1.386 1_554 S
C1101 H1113 0.929 . S
C1102 C1098 1.531 . S
C1102 H1114 0.960 . S
C1102 H1115 0.962 . S
C1102 H1116 0.960 . S
C1103 C1100 1.510 1_554 S
C1103 H1117 0.961 . S
C1103 H1118 0.960 1_554 S
C1103 H1119 0.961 1_554 S
C1104 C1105 1.370 . S
C1104 C1106 1.363 . S
C1104 H1120 0.931 . S
C1105 C1104 1.370 . S
C1105 C1109 1.408 . S
C1106 C1104 1.363 . S
C1106 C1107 1.370 . S
C1106 C1110 1.524 1_556 S
C1107 C1099 1.503 . S
C1107 C1106 1.370 . S
C1107 C1108 1.403 . S
C1108 C1107 1.403 . S
C1108 C1109 1.404 . S
C1108 C1111 1.539 . S
C1109 C1105 1.408 . S
C1109 C1108 1.404 . S
C1109 H1121 0.930 . S
C1110 C1106 1.524 1_554 S
C1110 H1122 0.956 . S
C1110 H1123 0.961 . S
C1110 H1124 0.961 . S
C1111 C1108 1.539 . S
C1111 H1125 0.958 . S
C1111 H1126 0.961 . S
C1111 H1127 0.960 . S
H1112 C1096 0.931 . S
H1113 C1101 0.929 . S
H1114 C1102 0.960 . S
H1115 C1102 0.962 . S
H1116 C1102 0.960 . S
H1117 C1103 0.961 . S
H1118 C1103 0.960 1_556 S
H1119 C1103 0.961 1_556 S
H1120 C1104 0.931 . S
H1121 C1109 0.930 . S
H1122 C1110 0.956 . S
H1123 C1110 0.961 . S
H1124 C1110 0.961 . S
H1125 C1111 0.958 . S
H1126 C1111 0.961 . S
H1127 C1111 0.960 . S
C1128 C1129 1.391 1_556 S
C1128 C1130 1.394 . S
C1128 H1144 0.931 . S
C1129 C1128 1.391 1_554 S
C1129 C1133 1.376 . S
C1130 C1128 1.394 . S
C1130 C1131 1.369 . S
C1130 C1134 1.531 . S
C1131 C1130 1.369 . S
C1131 C1132 1.410 1_556 S
C1131 C1139 1.503 . S
C1132 C1131 1.410 1_554 S
C1132 C1133 1.392 . S
C1132 C1135 1.511 . S
C1133 C1129 1.376 . S
C1133 C1132 1.392 . S
C1133 H1145 0.929 . S
C1134 C1130 1.531 . S
C1134 H1146 0.960 . S
C1134 H1147 0.962 . S
C1134 H1148 0.960 . S
C1135 C1132 1.511 . S
C1135 H1149 0.961 . S
C1135 H1150 0.961 . S
C1135 H1151 0.961 . S
C1136 C1137 1.370 . S
C1136 C1138 1.363 . S
C1136 H1152 0.931 . S
C1137 C1136 1.370 . S
C1137 C1141 1.408 . S
C1138 C1136 1.363 . S
C1138 C1139 1.370 . S
C1138 C1142 1.524 . S
C1139 C1131 1.503 . S
C1139 C1138 1.370 . S
C1139 C1140 1.403 . S
C1140 C1139 1.403 . S
C1140 C1141 1.404 . S
C1140 C1143 1.539 . S
C1141 C1137 1.408 . S
C1141 C1140 1.404 . S
C1141 H1153 0.930 . S
C1142 C1138 1.524 . S
C1142 H1154 0.956 . S
C1142 H1155 0.961 . S
C1142 H1156 0.961 . S
C1143 C1140 1.539 . S
C1143 H1157 0.958 . S
C1143 H1158 0.961 1_556 S
C1143 H1159 0.960 1_556 S
H1144 C1128 0.931 . S
H1145 C1133 0.929 . S
H1146 C1134 0.960 . S
H1147 C1134 0.962 . S
H1148 C1134 0.960 . S
H1149 C1135 0.961 . S
H1150 C1135 0.961 . S
H1151 C1135 0.961 . S
H1152 C1136 0.931 . S
H1153 C1141 0.930 . S
H1154 C1142 0.956 . S
H1155 C1142 0.961 . S
H1156 C1142 0.961 . S
H1157 C1143 0.958 . S
H1158 C1143 0.961 1_554 S
H1159 C1143 0.960 1_554 S
C1160 C1161 1.391 . S
C1160 C1162 1.394 . S
C1160 H1176 0.931 . S
C1161 C1160 1.391 . S
C1161 C1165 1.376 . S
C1162 C1160 1.394 . S
C1162 C1163 1.369 . S
C1162 C1166 1.531 . S
C1163 C1162 1.369 . S
C1163 C1164 1.410 . S
C1163 C1171 1.503 . S
C1164 C1163 1.410 . S
C1164 C1165 1.392 . S
C1164 C1167 1.511 1_455 S
C1165 C1161 1.376 . S
C1165 C1164 1.392 . S
C1165 H1177 0.929 . S
C1166 C1162 1.531 . S
C1166 H1178 0.960 . S
C1166 H1179 0.962 . S
C1166 H1180 0.960 . S
C1167 C1164 1.511 1_655 S
C1167 H1181 0.961 . S
C1167 H1182 0.961 . S
C1167 H1183 0.961 . S
C1168 C1169 1.370 . S
C1168 C1170 1.363 . S
C1168 H1184 0.931 . S
C1169 C1168 1.370 . S
C1169 C1173 1.408 . S
C1170 C1168 1.363 . S
C1170 C1171 1.370 . S
C1170 C1174 1.524 . S
C1171 C1163 1.503 . S
C1171 C1170 1.370 . S
C1171 C1172 1.403 . S
C1172 C1171 1.403 . S
C1172 C1173 1.404 . S
C1172 C1175 1.539 . S
C1173 C1169 1.408 . S
C1173 C1172 1.404 . S
C1173 H1185 0.930 . S
C1174 C1170 1.524 . S
C1174 H1186 0.956 . S
C1174 H1187 0.961 . S
C1174 H1188 0.961 . S
C1175 C1172 1.539 . S
C1175 H1189 0.958 . S
C1175 H1190 0.961 . S
C1175 H1191 0.960 . S
H1176 C1160 0.931 . S
H1177 C1165 0.929 . S
H1178 C1166 0.960 . S
H1179 C1166 0.962 . S
H1180 C1166 0.960 . S
H1181 C1167 0.961 . S
H1182 C1167 0.961 . S
H1183 C1167 0.961 . S
H1184 C1168 0.931 . S
H1185 C1173 0.930 . S
H1186 C1174 0.956 . S
H1187 C1174 0.961 . S
H1188 C1174 0.961 . S
H1189 C1175 0.958 . S
H1190 C1175 0.961 . S
H1191 C1175 0.960 . S
C1192 C1193 1.391 . S
C1192 C1194 1.394 . S
C1192 H1208 0.931 . S
C1193 C1192 1.391 . S
C1193 C1197 1.376 . S
C1194 C1192 1.394 . S
C1194 C1195 1.369 . S
C1194 C1198 1.531 . S
C1195 C1194 1.369 . S
C1195 C1196 1.410 . S
C1195 C1203 1.503 . S
C1196 C1195 1.410 . S
C1196 C1197 1.392 . S
C1196 C1199 1.511 . S
C1197 C1193 1.376 . S
C1197 C1196 1.392 . S
C1197 H1209 0.929 . S
C1198 C1194 1.531 . S
C1198 H1210 0.960 . S
C1198 H1211 0.962 . S
C1198 H1212 0.960 . S
C1199 C1196 1.511 . S
C1199 H1213 0.961 . S
C1199 H1214 0.961 . S
C1199 H1215 0.961 . S
C1200 C1201 1.370 . S
C1200 C1202 1.363 . S
C1200 H1216 0.931 . S
C1201 C1200 1.370 . S
C1201 C1205 1.408 . S
C1202 C1200 1.363 . S
C1202 C1203 1.370 . S
C1202 C1206 1.524 . S
C1203 C1195 1.503 . S
C1203 C1202 1.370 . S
C1203 C1204 1.403 . S
C1204 C1203 1.403 . S
C1204 C1205 1.404 . S
C1204 C1207 1.539 1_545 S
C1205 C1201 1.408 . S
C1205 C1204 1.404 . S
C1205 H1217 0.930 1_545 S
C1206 C1202 1.524 . S
C1206 H1218 0.956 . S
C1206 H1219 0.961 . S
C1206 H1220 0.961 . S
C1207 C1204 1.539 1_565 S
C1207 H1221 0.958 . S
C1207 H1222 0.961 . S
C1207 H1223 0.960 . S
H1208 C1192 0.931 . S
H1209 C1197 0.929 . S
H1210 C1198 0.960 . S
H1211 C1198 0.962 . S
H1212 C1198 0.960 . S
H1213 C1199 0.961 . S
H1214 C1199 0.961 . S
H1215 C1199 0.961 . S
H1216 C1200 0.931 . S
H1217 C1205 0.930 1_565 S
H1218 C1206 0.956 . S
H1219 C1206 0.961 . S
H1220 C1206 0.961 . S
H1221 C1207 0.958 . S
H1222 C1207 0.961 . S
H1223 C1207 0.960 . S
C1224 C1225 1.391 . S
C1224 C1226 1.394 . S
C1224 H1240 0.931 . S
C1225 C1224 1.391 . S
C1225 C1229 1.376 . S
C1226 C1224 1.394 . S
C1226 C1227 1.369 . S
C1226 C1230 1.531 . S
C1227 C1226 1.369 . S
C1227 C1228 1.410 . S
C1227 C1235 1.503 . S
C1228 C1227 1.410 . S
C1228 C1229 1.392 . S
C1228 C1231 1.511 . S
C1229 C1225 1.376 . S
C1229 C1228 1.392 . S
C1229 H1241 0.929 . S
C1230 C1226 1.531 . S
C1230 H1242 0.960 . S
C1230 H1243 0.962 . S
C1230 H1244 0.960 . S
C1231 C1228 1.511 . S
C1231 H1245 0.961 . S
C1231 H1246 0.961 . S
C1231 H1247 0.961 . S
C1232 C1233 1.370 . S
C1232 C1234 1.363 . S
C1232 H1248 0.931 . S
C1233 C1232 1.370 . S
C1233 C1237 1.408 . S
C1234 C1232 1.363 . S
C1234 C1235 1.370 . S
C1234 C1238 1.524 . S
C1235 C1227 1.503 . S
C1235 C1234 1.370 . S
C1235 C1236 1.403 . S
C1236 C1235 1.403 . S
C1236 C1237 1.404 . S
C1236 C1239 1.539 . S
C1237 C1233 1.408 . S
C1237 C1236 1.404 . S
C1237 H1249 0.930 . S
C1238 C1234 1.524 . S
C1238 H1250 0.956 . S
C1238 H1251 0.961 . S
C1238 H1252 0.961 . S
C1239 C1236 1.539 . S
C1239 H1253 0.958 . S
C1239 H1254 0.961 . S
C1239 H1255 0.960 . S
H1240 C1224 0.931 . S
H1241 C1229 0.929 . S
H1242 C1230 0.960 . S
H1243 C1230 0.962 . S
H1244 C1230 0.960 . S
H1245 C1231 0.961 . S
H1246 C1231 0.961 . S
H1247 C1231 0.961 . S
H1248 C1232 0.931 . S
H1249 C1237 0.930 . S
H1250 C1238 0.956 . S
H1251 C1238 0.961 . S
H1252 C1238 0.961 . S
H1253 C1239 0.958 . S
H1254 C1239 0.961 . S
H1255 C1239 0.960 . S
C1256 C1257 1.391 . S
C1256 C1258 1.394 . S
C1256 H1272 0.931 . S
C1257 C1256 1.391 . S
C1257 C1261 1.376 . S
C1258 C1256 1.394 . S
C1258 C1259 1.369 . S
C1258 C1262 1.531 . S
C1259 C1258 1.369 . S
C1259 C1260 1.410 . S
C1259 C1267 1.503 . S
C1260 C1259 1.410 . S
C1260 C1261 1.392 . S
C1260 C1263 1.511 . S
C1261 C1257 1.376 . S
C1261 C1260 1.392 . S
C1261 H1273 0.929 . S
C1262 C1258 1.531 . S
C1262 H1274 0.960 . S
C1262 H1275 0.962 . S
C1262 H1276 0.960 . S
C1263 C1260 1.511 . S
C1263 H1277 0.961 . S
C1263 H1278 0.961 . S
C1263 H1279 0.961 . S
C1264 C1265 1.370 . S
C1264 C1266 1.363 . S
C1264 H1280 0.931 . S
C1265 C1264 1.370 . S
C1265 C1269 1.408 . S
C1266 C1264 1.363 . S
C1266 C1267 1.370 . S
C1266 C1270 1.524 . S
C1267 C1259 1.503 . S
C1267 C1266 1.370 . S
C1267 C1268 1.403 . S
C1268 C1267 1.403 . S
C1268 C1269 1.404 . S
C1268 C1271 1.539 . S
C1269 C1265 1.408 . S
C1269 C1268 1.404 . S
C1269 H1281 0.930 . S
C1270 C1266 1.524 . S
C1270 H1282 0.956 . S
C1270 H1283 0.961 . S
C1270 H1284 0.961 . S
C1271 C1268 1.539 . S
C1271 H1285 0.958 . S
C1271 H1286 0.961 . S
C1271 H1287 0.960 . S
H1272 C1256 0.931 . S
H1273 C1261 0.929 . S
H1274 C1262 0.960 . S
H1275 C1262 0.962 . S
H1276 C1262 0.960 . S
H1277 C1263 0.961 . S
H1278 C1263 0.961 . S
H1279 C1263 0.961 . S
H1280 C1264 0.931 . S
H1281 C1269 0.930 . S
H1282 C1270 0.956 . S
H1283 C1270 0.961 . S
H1284 C1270 0.961 . S
H1285 C1271 0.958 . S
H1286 C1271 0.961 . S
H1287 C1271 0.960 . S
C1288 C1289 1.391 . S
C1288 C1290 1.394 . S
C1288 H1304 0.931 . S
C1289 C1288 1.391 . S
C1289 C1293 1.376 . S
C1290 C1288 1.394 . S
C1290 C1291 1.369 . S
C1290 C1294 1.531 1_655 S
C1291 C1290 1.369 . S
C1291 C1292 1.410 . S
C1291 C1299 1.503 . S
C1292 C1291 1.410 . S
C1292 C1293 1.392 . S
C1292 C1295 1.511 . S
C1293 C1289 1.376 . S
C1293 C1292 1.392 . S
C1293 H1305 0.929 . S
C1294 C1290 1.531 1_455 S
C1294 H1306 0.956 1_455 S
C1294 H1307 0.962 . S
C1294 H1308 0.960 . S
C1295 C1292 1.511 . S
C1295 H1309 0.961 . S
C1295 H1310 0.961 . S
C1295 H1311 0.961 . S
C1296 C1297 1.370 . S
C1296 C1298 1.363 . S
C1296 H1312 0.931 1_655 S
C1297 C1296 1.370 . S
C1297 C1301 1.408 . S
C1298 C1296 1.363 . S
C1298 C1299 1.370 . S
C1298 C1302 1.524 1_655 S
C1299 C1291 1.503 . S
C1299 C1298 1.370 . S
C1299 C1300 1.403 . S
C1300 C1299 1.403 . S
C1300 C1301 1.404 . S
C1300 C1303 1.539 . S
C1301 C1297 1.408 . S
C1301 C1300 1.404 . S
C1301 H1313 0.930 . S
C1302 C1298 1.524 1_455 S
C1302 H1314 0.956 . S
C1302 H1315 0.961 1_455 S
C1302 H1316 0.961 . S
C1303 C1300 1.539 . S
C1303 H1317 0.958 . S
C1303 H1318 0.961 . S
C1303 H1319 0.960 . S
H1304 C1288 0.931 . S
H1305 C1293 0.929 . S
H1306 C1294 0.956 1_655 S
H1307 C1294 0.962 . S
H1308 C1294 0.960 . S
H1309 C1295 0.961 . S
H1310 C1295 0.961 . S
H1311 C1295 0.961 . S
H1312 C1296 0.931 1_455 S
H1313 C1301 0.930 . S
H1314 C1302 0.956 . S
H1315 C1302 0.961 1_655 S
H1316 C1302 0.961 . S
H1317 C1303 0.958 . S
H1318 C1303 0.961 . S
H1319 C1303 0.960 . S
C1320 C1321 1.391 . S
C1320 C1322 1.394 . S
C1320 H1336 0.931 . S
C1321 C1320 1.391 . S
C1321 C1325 1.376 . S
C1322 C1320 1.394 . S
C1322 C1323 1.369 . S
C1322 C1326 1.531 . S
C1323 C1322 1.369 . S
C1323 C1324 1.396 1_565 S
C1323 C1331 1.503 . S
C1324 C1323 1.396 1_545 S
C1324 C1325 1.390 1_545 S
C1324 C1327 1.527 . S
C1325 C1321 1.376 . S
C1325 C1324 1.390 1_565 S
C1325 H1337 0.929 1_565 S
C1326 C1322 1.531 . S
C1326 H1338 0.960 . S
C1326 H1339 0.962 . S
C1326 H1340 0.960 . S
C1327 C1324 1.527 . S
C1327 H1341 0.961 . S
C1327 H1342 0.961 . S
C1327 H1343 0.961 . S
C1328 C1329 1.370 . S
C1328 C1330 1.363 . S
C1328 H1344 0.931 . S
C1329 C1328 1.370 . S
C1329 C1333 1.408 . S
C1330 C1328 1.363 . S
C1330 C1331 1.370 . S
C1330 C1334 1.524 . S
C1331 C1323 1.503 . S
C1331 C1330 1.370 . S
C1331 C1332 1.403 . S
C1332 C1331 1.403 . S
C1332 C1333 1.404 . S
C1332 C1335 1.539 . S
C1333 C1329 1.408 . S
C1333 C1332 1.404 . S
C1333 H1345 0.930 . S
C1334 C1330 1.524 . S
C1334 H1346 0.956 . S
C1334 H1347 0.961 . S
C1334 H1348 0.961 . S
C1335 C1332 1.539 . S
C1335 H1349 0.958 . S
C1335 H1350 0.961 . S
C1335 H1351 0.960 . S
H1336 C1320 0.931 . S
H1337 C1325 0.929 1_545 S
H1338 C1326 0.960 . S
H1339 C1326 0.962 . S
H1340 C1326 0.960 . S
H1341 C1327 0.961 . S
H1342 C1327 0.961 . S
H1343 C1327 0.961 . S
H1344 C1328 0.931 . S
H1345 C1333 0.930 . S
H1346 C1334 0.956 . S
H1347 C1334 0.961 . S
H1348 C1334 0.961 . S
H1349 C1335 0.958 . S
H1350 C1335 0.961 . S
H1351 C1335 0.960 . S
C1352 C1353 1.391 . S
C1352 C1354 1.394 . S
C1352 H1368 0.931 . S
C1353 C1352 1.391 . S
C1353 C1357 1.376 . S
C1354 C1352 1.394 . S
C1354 C1355 1.369 . S
C1354 C1358 1.531 . S
C1355 C1354 1.369 . S
C1355 C1356 1.410 . S
C1355 C1363 1.503 . S
C1356 C1355 1.410 . S
C1356 C1357 1.392 . S
C1356 C1359 1.511 . S
C1357 C1353 1.376 . S
C1357 C1356 1.392 . S
C1357 H1369 0.929 . S
C1358 C1354 1.531 . S
C1358 H1370 0.960 . S
C1358 H1371 0.962 . S
C1358 H1372 0.960 . S
C1359 C1356 1.511 . S
C1359 H1373 0.961 . S
C1359 H1374 0.961 . S
C1359 H1375 0.961 . S
C1360 C1361 1.370 . S
C1360 C1362 1.363 . S
C1360 H1376 0.931 . S
C1361 C1360 1.370 . S
C1361 C1365 1.408 . S
C1362 C1360 1.363 . S
C1362 C1363 1.370 . S
C1362 C1366 1.524 . S
C1363 C1355 1.503 . S
C1363 C1362 1.370 . S
C1363 C1364 1.403 . S
C1364 C1363 1.403 . S
C1364 C1365 1.404 . S
C1364 C1367 1.539 . S
C1365 C1361 1.408 . S
C1365 C1364 1.404 . S
C1365 H1377 0.930 . S
C1366 C1362 1.524 . S
C1366 H1378 0.956 . S
C1366 H1379 0.961 . S
C1366 H1380 0.961 . S
C1367 C1364 1.539 . S
C1367 H1381 0.958 . S
C1367 H1382 0.961 . S
C1367 H1383 0.960 . S
H1368 C1352 0.931 . S
H1369 C1357 0.929 . S
H1370 C1358 0.960 . S
H1371 C1358 0.962 . S
H1372 C1358 0.960 . S
H1373 C1359 0.961 . S
H1374 C1359 0.961 . S
H1375 C1359 0.961 . S
H1376 C1360 0.931 . S
H1377 C1365 0.930 . S
H1378 C1366 0.956 . S
H1379 C1366 0.961 . S
H1380 C1366 0.961 . S
H1381 C1367 0.958 . S
H1382 C1367 0.961 . S
H1383 C1367 0.960 . S
C1384 C1385 1.391 . S
C1384 C1386 1.394 . S
C1384 H1400 0.931 . S
C1385 C1384 1.391 . S
C1385 C1389 1.376 . S
C1386 C1384 1.394 . S
C1386 C1387 1.369 . S
C1386 C1390 1.531 . S
C1387 C1386 1.369 . S
C1387 C1388 1.410 . S
C1387 C1395 1.503 . S
C1388 C1387 1.410 . S
C1388 C1389 1.392 . S
C1388 C1391 1.511 . S
C1389 C1385 1.376 . S
C1389 C1388 1.392 . S
C1389 H1401 0.929 . S
C1390 C1386 1.531 . S
C1390 H1402 0.960 . S
C1390 H1403 0.962 . S
C1390 H1404 0.960 . S
C1391 C1388 1.511 . S
C1391 H1405 0.961 . S
C1391 H1406 0.961 . S
C1391 H1407 0.961 . S
C1392 C1393 1.370 . S
C1392 C1394 1.363 . S
C1392 H1408 0.931 . S
C1393 C1392 1.370 . S
C1393 C1397 1.408 . S
C1394 C1392 1.363 . S
C1394 C1395 1.370 . S
C1394 C1398 1.524 . S
C1395 C1387 1.503 . S
C1395 C1394 1.370 . S
C1395 C1396 1.403 . S
C1396 C1395 1.403 . S
C1396 C1397 1.404 . S
C1396 C1399 1.539 . S
C1397 C1393 1.408 . S
C1397 C1396 1.404 . S
C1397 H1409 0.930 . S
C1398 C1394 1.524 . S
C1398 H1410 0.956 . S
C1398 H1411 0.961 . S
C1398 H1412 0.961 . S
C1399 C1396 1.539 . S
C1399 H1413 0.958 . S
C1399 H1414 0.961 . S
C1399 H1415 0.960 . S
H1400 C1384 0.931 . S
H1401 C1389 0.929 . S
H1402 C1390 0.960 . S
H1403 C1390 0.962 . S
H1404 C1390 0.960 . S
H1405 C1391 0.961 . S
H1406 C1391 0.961 . S
H1407 C1391 0.961 . S
H1408 C1392 0.931 . S
H1409 C1397 0.930 . S
H1410 C1398 0.956 . S
H1411 C1398 0.961 . S
H1412 C1398 0.961 . S
H1413 C1399 0.958 . S
H1414 C1399 0.961 . S
H1415 C1399 0.960 . S
C649 C255 2.246 . S
C657 C375 2.442 . S
C689 C452 2.451 . S
C681 C294 2.300 . S
C721 C543 2.437 . S
C713 C177 2.251 . S
C753 C627 2.418 . S
C745 C216 2.294 . S
C785 C386 2.442 1_565 S
C777 C99 2.289 . S
C809 C138 2.293 . S
C817 C463 2.448 . S
C841 C21 2.302 . S
C849 C554 2.437 . S
C873 C60 2.294 . S
C881 C638 2.424 1_655 S
C913 C370 0.461 . S
C905 C196 0.507 . S
C945 C465 0.570 . S
C937 C235 0.547 . S
C977 C538 0.507 . S
C969 C289 0.564 . S
C1001 C157 0.536 . S
C1009 C622 0.470 . S
C1033 C40 0.528 . S
C1041 C381 0.486 . S
C1073 C454 0.488 . S
C1065 C79 0.428 . S
C1105 C549 0.504 . S
C1097 C133 0.554 . S
C1129 C1 0.482 . S
C1137 C633 0.513 . S
C1161 C211 2.571 . S
C1169 C379 2.915 . S
C1193 C250 2.591 . S
C1201 C470 2.953 . S
C1233 C547 2.924 . S
C1225 C274 2.657 . S
C1265 C631 2.924 . S
C1257 C172 2.636 . S
C1289 C55 2.579 . S
C1297 C368 2.912 . S
C1329 C459 2.955 . S
C1321 C94 2.627 . S
C1361 C536 2.934 . S
C1353 C118 2.595 . S
C1385 C16 2.587 . S
C1393 C620 2.931 . S
