# Generated by pormake.
# Topology rtl, (3,6)-cn, num edge types: 1
# Building blocks:
#     Node 0, Type 0, BuildingBlock: VETTIZ_charged_linker_0, # of connection points: 3
#     Node 1, Type 0, BuildingBlock: VETTIZ_charged_linker_0, # of connection points: 3
#     Node 2, Type 0, BuildingBlock: VETTIZ_charged_linker_0, # of connection points: 3
#     Node 3, Type 0, BuildingBlock: VETTIZ_charged_linker_0, # of connection points: 3
#     Node 4, Type 1, BuildingBlock: VOLQOD_clean_sbu_1, # of connection points: 6
#     Node 5, Type 1, BuildingBlock: VOLQOD_clean_sbu_1, # of connection points: 6
#     Edge 6, Type (0, 1), BuildingBlock: XIVTED_clean_linker_0, # of connection points: 2
#     Edge 7, Type (0, 1), BuildingBlock: XIVTED_clean_linker_0, # of connection points: 2
#     Edge 8, Type (0, 1), BuildingBlock: XIVTED_clean_linker_0, # of connection points: 2
#     Edge 9, Type (0, 1), BuildingBlock: XIVTED_clean_linker_0, # of connection points: 2
#     Edge 10, Type (0, 1), BuildingBlock: XIVTED_clean_linker_0, # of connection points: 2
#     Edge 11, Type (0, 1), BuildingBlock: XIVTED_clean_linker_0, # of connection points: 2
#     Edge 12, Type (0, 1), BuildingBlock: XIVTED_clean_linker_0, # of connection points: 2
#     Edge 13, Type (0, 1), BuildingBlock: XIVTED_clean_linker_0, # of connection points: 2
#     Edge 14, Type (0, 1), BuildingBlock: XIVTED_clean_linker_0, # of connection points: 2
#     Edge 15, Type (0, 1), BuildingBlock: XIVTED_clean_linker_0, # of connection points: 2
#     Edge 16, Type (0, 1), BuildingBlock: XIVTED_clean_linker_0, # of connection points: 2
#     Edge 17, Type (0, 1), BuildingBlock: XIVTED_clean_linker_0, # of connection points: 2
# Relax obj value: 0.081
# Max RMSD: 0.157
# Mean RMSD: 0.091
data_MOF--net-rtl--node1-VOLQOD_clean_sbu_1--node2-VETTIZ_charged_linker_0--edge1-XIVTED_clean_linker_0
_symmetry_space_group_name_H-M    P1
_symmetry_Int_Tables_number       1
_symmetry_cell_setting            triclinic
loop_
_symmetry_equiv_pos_as_xyz
'x, y, z'
_cell_length_a     44.627145
_cell_length_b     38.284468
_cell_length_c     29.264395
_cell_angle_alpha  89.929222
_cell_angle_beta   90.486474
_cell_angle_gamma 89.94689
loop_
_atom_site_label
_atom_site_type_symbol
_atom_site_fract_x
_atom_site_fract_y
_atom_site_fract_z
_atom_type_partial_charge
C0 C 0.07747 0.75766 0.86371 0.0
C1 C 0.05408 0.78233 0.86423 0.0
C2 C 0.03809 0.78763 0.90492 0.0
C3 C 0.07135 0.74802 0.94511 0.0
C4 C 0.08582 0.74094 0.90459 0.0
C5 C 0.11188 0.71635 0.91147 0.0
H6 H 0.21129 0.6424 0.05753 0.0
C7 C 0.08786 0.73043 0.98246 0.0
C8 C 0.11155 0.71158 0.96311 0.0
H9 H 0.20761 0.63264 0.91019 0.0
H10 H 0.16129 0.66508 0.90826 0.0
H11 H 0.19194 0.71961 0.06394 0.0
H12 H 0.13923 0.6257 0.07133 0.0
H13 H 0.12644 0.65423 0.11402 0.0
H14 H 0.16466 0.63887 0.11592 0.0
H15 H 0.19196 0.69227 0.11379 0.0
H16 H 0.16474 0.72664 0.10583 0.0
C17 C 0.14067 0.735 0.89521 0.0
C18 C 0.10491 0.68181 0.88595 0.0
C19 C 0.0627 0.7613 0.14608 0.0
C20 C 0.07784 0.75583 0.1877 0.0
C21 C 0.10301 0.73362 0.18892 0.0
C22 C 0.11353 0.71795 0.14882 0.0
C23 C 0.09906 0.72515 0.10696 0.0
C24 C 0.07385 0.74615 0.10624 0.0
C25 C 0.06274 0.75331 0.05854 0.0
C26 C 0.08533 0.73297 0.03066 0.0
C27 C 0.10645 0.71642 0.05914 0.0
C28 C 0.06455 0.79335 0.04985 0.0
C29 C 0.03088 0.73769 0.05372 0.0
C30 C 0.20039 0.64663 0.0248 0.0
C31 C 0.21362 0.63528 0.98391 0.0
C32 C 0.19849 0.64182 0.94217 0.0
C33 C 0.17146 0.66051 0.94106 0.0
C34 C 0.15931 0.6729 0.98206 0.0
C35 C 0.17327 0.66499 0.02309 0.0
C36 C 0.15655 0.67925 0.06337 0.0
C37 C 0.13033 0.69714 0.0397 0.0
C38 C 0.13241 0.69398 0.99199 0.0
C39 C 0.17724 0.70567 0.08848 0.0
C40 C 0.14625 0.64809 0.09314 0.0
H41 H 0.03391 0.77638 0.97531 0.0
H42 H 0.09008 0.75303 0.83285 0.0
H43 H 0.08034 0.67737 0.88271 0.0
H44 H 0.11343 0.65861 0.90456 0.0
H45 H 0.11428 0.68205 0.85091 0.0
H46 H 0.14146 0.76222 0.90844 0.0
H47 H 0.14139 0.73625 0.85731 0.0
H48 H 0.16145 0.72242 0.90741 0.0
H49 H 0.04374 0.77896 0.14398 0.0
H50 H 0.11497 0.7291 0.22076 0.0
H51 H 0.13312 0.70182 0.15177 0.0
H52 H 0.0814 0.80607 0.07259 0.0
H53 H 0.04267 0.80627 0.05604 0.0
H54 H 0.07213 0.7999 0.01503 0.0
H55 H 0.02949 0.71202 0.07147 0.0
H56 H 0.0245 0.73226 0.01786 0.0
H57 H 0.01388 0.75522 0.06908 0.0
H58 H 0.01959 0.80597 0.90586 0.0
C59 C 0.04646 0.77046 0.94522 0.0
C60 C 0.58216 0.76138 0.6557 0.0
C61 C 0.55892 0.73663 0.65822 0.0
C62 C 0.54322 0.72757 0.61793 0.0
C63 C 0.57553 0.76493 0.57342 0.0
C64 C 0.59002 0.77518 0.61306 0.0
C65 C 0.61516 0.80033 0.60378 0.0
H66 H 0.70725 0.87672 0.45125 0.0
C67 C 0.59074 0.78155 0.53447 0.0
C68 C 0.61374 0.80273 0.55193 0.0
H69 H 0.71007 0.88343 0.59866 0.0
H70 H 0.66401 0.85084 0.60336 0.0
H71 H 0.68974 0.79729 0.44677 0.0
H72 H 0.63363 0.88896 0.44089 0.0
H73 H 0.61993 0.85895 0.40036 0.0
H74 H 0.65728 0.87639 0.39438 0.0
H75 H 0.68918 0.82622 0.39843 0.0
H76 H 0.66279 0.79095 0.40352 0.0
C77 C 0.64473 0.78331 0.62092 0.0
C78 C 0.60755 0.83567 0.62673 0.0
C79 C 0.56386 0.74293 0.37388 0.0
C80 C 0.57593 0.75023 0.33071 0.0
C81 C 0.59836 0.77605 0.3272 0.0
C82 C 0.60931 0.79326 0.36625 0.0
C83 C 0.59793 0.78438 0.40939 0.0
C84 C 0.5751 0.76017 0.41242 0.0
C85 C 0.56587 0.75346 0.46084 0.0
C86 C 0.58719 0.77731 0.48659 0.0
C87 C 0.60611 0.79518 0.45643 0.0
C88 C 0.57179 0.71432 0.47155 0.0
C89 C 0.53278 0.76511 0.46606 0.0
C90 C 0.69757 0.87169 0.48444 0.0
C91 C 0.71237 0.88235 0.52468 0.0
C92 C 0.69926 0.87503 0.56726 0.0
C93 C 0.67254 0.85607 0.56991 0.0
C94 C 0.65892 0.84382 0.52959 0.0
C95 C 0.671 0.85237 0.48769 0.0
C96 C 0.65359 0.83656 0.44858 0.0
C97 C 0.62927 0.81693 0.474 0.0
C98 C 0.63275 0.82103 0.52147 0.0
C99 C 0.67476 0.81156 0.42253 0.0
C100 C 0.64049 0.86659 0.41909 0.0
H101 H 0.53888 0.73306 0.5463 0.0
H102 H 0.59436 0.76933 0.68609 0.0
H103 H 0.58291 0.84002 0.62774 0.0
H104 H 0.61636 0.85832 0.6076 0.0
H105 H 0.6161 0.83659 0.66247 0.0
H106 H 0.64503 0.75491 0.61286 0.0
H107 H 0.64725 0.78609 0.65854 0.0
H108 H 0.66487 0.79397 0.60446 0.0
H109 H 0.54695 0.72295 0.37811 0.0
H110 H 0.60774 0.78263 0.29428 0.0
H111 H 0.62669 0.81223 0.36147 0.0
H112 H 0.5926 0.70515 0.45463 0.0
H113 H 0.55303 0.69772 0.4591 0.0
H114 H 0.57559 0.70896 0.50816 0.0
H115 H 0.52724 0.78712 0.44257 0.0
H116 H 0.52792 0.77532 0.50056 0.0
H117 H 0.51711 0.74339 0.45808 0.0
H118 H 0.52543 0.70835 0.61864 0.0
C119 C 0.55127 0.74171 0.57572 0.0
C120 C 0.92309 0.25525 0.14917 0.0
C121 C 0.94959 0.23515 0.15116 0.0
C122 C 0.96866 0.23511 0.11292 0.0
C123 C 0.93201 0.26776 0.06919 0.0
C124 C 0.91496 0.27169 0.10797 0.0
C125 C 0.8875 0.29374 0.09898 0.0
H126 H 0.79006 0.36208 0.94478 0.0
C127 C 0.91535 0.28293 0.03029 0.0
C128 C 0.88959 0.2991 0.04753 0.0
H129 H 0.78853 0.37292 0.09176 0.0
H130 H 0.83583 0.34212 0.09785 0.0
H131 H 0.8625 0.37899 0.93352 0.0
H132 H 0.80955 0.28556 0.94254 0.0
H133 H 0.83973 0.275 0.90722 0.0
H134 H 0.81365 0.30861 0.88961 0.0
H135 H 0.83631 0.36509 0.89029 0.0
H136 H 0.87447 0.3497 0.8909 0.0
C137 C 0.89087 0.32855 0.12559 0.0
C138 C 0.85942 0.27239 0.11209 0.0
C139 C 0.9432 0.24495 0.87043 0.0
C140 C 0.92752 0.24571 0.82853 0.0
C141 C 0.90155 0.26664 0.82486 0.0
C142 C 0.89053 0.28467 0.86294 0.0
C143 C 0.90525 0.28125 0.90541 0.0
C144 C 0.93136 0.26201 0.90841 0.0
C145 C 0.94267 0.25851 0.95673 0.0
C146 C 0.91892 0.27884 0.98241 0.0
C147 C 0.89715 0.29217 0.95217 0.0
C148 C 0.97391 0.27602 0.96034 0.0
C149 C 0.94251 0.21904 0.96889 0.0
C150 C 0.79996 0.35787 0.97827 0.0
C151 C 0.78553 0.36969 0.01786 0.0
C152 C 0.79933 0.36418 0.06079 0.0
C153 C 0.82667 0.34621 0.06428 0.0
C154 C 0.84037 0.33371 0.02446 0.0
C155 C 0.82734 0.3403 0.98232 0.0
C156 C 0.84538 0.32566 0.94364 0.0
C157 C 0.87179 0.31003 0.96947 0.0
C158 C 0.86838 0.31412 0.01684 0.0
C159 C 0.85514 0.35628 0.91256 0.0
C160 C 0.82623 0.29739 0.91908 0.0
H161 H 0.97502 0.24943 0.04377 0.0
H162 H 0.90825 0.2568 0.17814 0.0
H163 H 0.86041 0.24583 0.09679 0.0
H164 H 0.83836 0.28433 0.09978 0.0
H165 H 0.85788 0.26941 0.14975 0.0
H166 H 0.91465 0.33402 0.13483 0.0
H167 H 0.87794 0.32809 0.15786 0.0
H168 H 0.8837 0.35139 0.10489 0.0
H169 H 0.96364 0.22995 0.87434 0.0
H170 H 0.88885 0.26778 0.79321 0.0
H171 H 0.87029 0.29942 0.85826 0.0
H172 H 0.97691 0.29632 0.93354 0.0
H173 H 0.99219 0.25657 0.95636 0.0
H174 H 0.97708 0.2901 0.99307 0.0
H175 H 0.92106 0.20679 0.95775 0.0
H176 H 0.94444 0.21356 0.00565 0.0
H177 H 0.96106 0.20513 0.95153 0.0
H178 H 0.98996 0.22155 0.11403 0.0
C179 C 0.96004 0.25137 0.0721 0.0
C180 C 0.41516 0.2531 0.35142 0.0
C181 C 0.44063 0.27444 0.34731 0.0
C182 C 0.45976 0.27898 0.38533 0.0
C183 C 0.42586 0.24548 0.43219 0.0
C184 C 0.40847 0.23848 0.39405 0.0
C185 C 0.38224 0.21533 0.40509 0.0
H186 H 0.29519 0.13912 0.56478 0.0
C187 C 0.41104 0.23005 0.47221 0.0
C188 C 0.38592 0.21147 0.45657 0.0
H189 H 0.28576 0.13488 0.4175 0.0
H190 H 0.33137 0.16753 0.40918 0.0
H191 H 0.3683 0.12804 0.56987 0.0
H192 H 0.31114 0.21871 0.56727 0.0
H193 H 0.341 0.22833 0.60434 0.0
H194 H 0.31608 0.1928 0.61788 0.0
H195 H 0.34425 0.13979 0.6163 0.0
H196 H 0.38143 0.15773 0.61143 0.0
C197 C 0.38637 0.18006 0.37989 0.0
C198 C 0.35311 0.23516 0.3921 0.0
C199 C 0.44097 0.27245 0.62957 0.0
C200 C 0.42794 0.26859 0.67274 0.0
C201 C 0.40531 0.24341 0.67875 0.0
C202 C 0.39435 0.22418 0.64135 0.0
C203 C 0.40601 0.23047 0.59757 0.0
C204 C 0.42957 0.25351 0.59258 0.0
C205 C 0.43876 0.25787 0.54368 0.0
C206 C 0.41607 0.23458 0.51975 0.0
C207 C 0.39686 0.21872 0.55138 0.0
C208 C 0.47124 0.24403 0.53853 0.0
C209 C 0.43466 0.29692 0.53079 0.0
C210 C 0.30287 0.14523 0.5307 0.0
C211 C 0.28669 0.13419 0.4918 0.0
C212 C 0.29788 0.14244 0.44813 0.0
C213 C 0.32431 0.16172 0.44328 0.0
C214 C 0.33968 0.17335 0.48243 0.0
C215 C 0.32912 0.16476 0.52523 0.0
C216 C 0.34801 0.18022 0.56293 0.0
C217 C 0.3721 0.19863 0.53562 0.0
C218 C 0.36686 0.19482 0.48849 0.0
C219 C 0.36115 0.15004 0.59207 0.0
C220 C 0.32821 0.20623 0.58993 0.0
H221 H 0.46746 0.26974 0.45577 0.0
H222 H 0.4005 0.24857 0.32234 0.0
H223 H 0.35443 0.26284 0.40348 0.0
H224 H 0.33298 0.22439 0.4085 0.0
H225 H 0.34945 0.23512 0.35451 0.0
H226 H 0.41042 0.17455 0.3732 0.0
H227 H 0.37445 0.18004 0.34641 0.0
H228 H 0.3787 0.15753 0.40042 0.0
H229 H 0.45883 0.29112 0.62425 0.0
H230 H 0.39503 0.23989 0.71184 0.0
H231 H 0.37645 0.20614 0.64761 0.0
H232 H 0.47725 0.22513 0.56604 0.0
H233 H 0.4878 0.26565 0.54005 0.0
H234 H 0.47429 0.22928 0.50634 0.0
H235 H 0.41283 0.30688 0.54347 0.0
H236 H 0.43437 0.30187 0.49377 0.0
H237 H 0.4527 0.31315 0.54623 0.0
H238 H 0.47956 0.29521 0.38283 0.0
C239 C 0.45256 0.26448 0.42771 0.0
O240 O 0.92723 0.00818 0.49772 0.0
Zn241 Zn 0.96634 0.03522 0.49794 0.0
O242 O 0.00095 0.00347 0.50252 0.0
Zn243 Zn 0.02409 0.01401 0.55778 0.0
Zn244 Zn 0.98721 0.95503 0.50522 0.0
Zn245 Zn 0.02652 0.00926 0.44926 0.0
O246 O 0.06609 0.02939 0.54301 0.0
O247 O 0.06784 0.02515 0.46747 0.0
O248 O 0.96542 0.06874 0.55127 0.0
O249 O 0.00486 0.05266 0.59305 0.0
O250 O 0.02686 0.97226 0.59939 0.0
O251 O 0.00182 0.93085 0.56237 0.0
O252 O 0.00202 0.92681 0.45193 0.0
O253 O 0.96832 0.06443 0.44068 0.0
O254 O 0.03135 0.96408 0.41517 0.0
O255 O 0.0094 0.04541 0.40624 0.0
C256 C 0.9215 0.97571 0.50185 0.0
C257 C 0.08028 0.03223 0.50564 0.0
C258 C 0.01713 0.94107 0.59671 0.0
C259 C 0.98213 0.07219 0.58648 0.0
C260 C 0.02004 0.93377 0.4197 0.0
C261 C 0.98662 0.06545 0.40752 0.0
O262 O 0.94237 0.95315 0.50545 0.0
O263 O 0.57533 0.50794 0.00701 0.0
Zn264 Zn 0.53723 0.53669 0.00526 0.0
O265 O 0.50126 0.50726 0.00535 0.0
Zn266 Zn 0.47775 0.5161 0.95007 0.0
Zn267 Zn 0.51347 0.45833 0.00618 0.0
Zn268 Zn 0.47662 0.51743 0.05904 0.0
O269 O 0.43617 0.53204 0.96499 0.0
O270 O 0.43473 0.53248 0.04075 0.0
O271 O 0.53818 0.56784 0.94947 0.0
O272 O 0.49622 0.554 0.91246 0.0
O273 O 0.47385 0.47287 0.91143 0.0
O274 O 0.49678 0.4319 0.95249 0.0
O275 O 0.49923 0.43439 0.06277 0.0
O276 O 0.53739 0.56842 0.05977 0.0
O277 O 0.47263 0.47463 0.09912 0.0
O278 O 0.49515 0.55651 0.09633 0.0
C279 C 0.57987 0.4751 0.00587 0.0
C280 C 0.42212 0.53723 0.00201 0.0
C281 C 0.48194 0.44125 0.91724 0.0
C282 C 0.52003 0.5721 0.91609 0.0
C283 C 0.48303 0.4437 0.09618 0.0
C284 C 0.51934 0.57394 0.09246 0.0
O285 O 0.55817 0.45356 0.00471 0.0
H286 H 0.26401 0.08114 0.43848 0.0
H287 H 0.1108 0.0638 0.57602 0.0
H288 H 0.24281 0.14477 0.55568 0.0
H289 H 0.12137 0.02871 0.43689 0.0
H290 H 0.16221 0.08595 0.57512 0.0
H291 H 0.21459 0.05415 0.44345 0.0
C292 C 0.24903 0.0895 0.46525 0.0
C293 C 0.25762 0.11556 0.49647 0.0
C294 C 0.15325 0.07331 0.54487 0.0
C295 C 0.20117 0.08421 0.50277 0.0
C296 C 0.12396 0.06056 0.54538 0.0
C297 C 0.11169 0.04455 0.50636 0.0
C298 C 0.17051 0.06965 0.50528 0.0
C299 C 0.12981 0.04112 0.46762 0.0
C300 C 0.22086 0.07394 0.46815 0.0
C301 C 0.23742 0.12458 0.53113 0.0
N302 N 0.15831 0.05354 0.46808 0.0
N303 N 0.21013 0.10899 0.53327 0.0
H304 H 0.25908 0.64223 0.9219 0.0
H305 H 0.38079 0.54003 0.07098 0.0
H306 H 0.23703 0.58964 0.04794 0.0
H307 H 0.39185 0.56273 0.92753 0.0
H308 H 0.32921 0.56174 0.06582 0.0
H309 H 0.3089 0.61635 0.92547 0.0
C310 C 0.26447 0.6249 0.95006 0.0
C311 C 0.24361 0.61817 0.98465 0.0
C312 C 0.34294 0.56178 0.03548 0.0
C313 C 0.30118 0.58914 0.98949 0.0
C314 C 0.3724 0.54954 0.03843 0.0
C315 C 0.39071 0.5496 -0.00035 0.0
C316 C 0.33187 0.5746 0.99363 0.0
C317 C 0.37857 0.56211 0.95831 0.0
C318 C 0.29309 0.61032 0.95221 0.0
C319 C 0.25242 0.59612 0.02085 0.0
N320 N 0.35001 0.5743 0.95648 0.0
N321 N 0.28059 0.58259 0.02247 0.0
H322 H 0.76162 0.86419 0.57459 0.0
H323 H 0.87015 0.01055 0.47542 0.0
H324 H 0.73196 0.93596 0.46978 0.0
H325 H 0.90122 0.91338 0.53414 0.0
H326 H 0.81835 0.98928 0.48115 0.0
H327 H 0.81206 0.88827 0.5693 0.0
C328 C 0.76569 0.88532 0.55079 0.0
C329 C 0.74259 0.89821 0.52268 0.0
C330 C 0.83661 0.97271 0.49261 0.0
C331 C 0.80036 0.92573 0.51621 0.0
C332 C 0.8661 0.98482 0.4895 0.0
C333 C 0.89006 0.96367 0.50422 0.0
C334 C 0.83112 0.93957 0.51134 0.0
C335 C 0.88353 0.93053 0.52211 0.0
C336 C 0.79452 0.89884 0.54751 0.0
C337 C 0.74923 0.92523 0.49189 0.0
N338 N 0.85472 0.91963 0.52541 0.0
N339 N 0.77756 0.93826 0.48956 0.0
H340 H 0.73729 0.34752 0.96821 0.0
H341 H 0.63185 0.50896 0.03044 0.0
H342 H 0.7658 0.42947 0.05975 0.0
H343 H 0.59846 0.40977 0.98193 0.0
H344 H 0.68266 0.48437 0.03241 0.0
H345 H 0.68768 0.37441 0.9635 0.0
C346 C 0.73312 0.37134 0.98706 0.0
C347 C 0.75563 0.38633 0.01441 0.0
C348 C 0.66414 0.46809 0.02134 0.0
C349 C 0.69893 0.41719 0.00926 0.0
C350 C 0.6352 0.48211 0.02001 0.0
C351 C 0.61086 0.46134 0.00614 0.0
C352 C 0.66875 0.43328 0.00803 0.0
C353 C 0.6165 0.42669 0.99313 0.0
C354 C 0.70478 0.38654 0.9846 0.0
C355 C 0.74894 0.41698 0.03857 0.0
N356 N 0.64483 0.41381 0.99425 0.0
N357 N 0.72118 0.43153 0.03532 0.0
H358 H 0.02207 0.76464 0.22436 0.0
H359 H 0.07004 0.93099 0.36682 0.0
H360 H 0.1144 0.79554 0.24124 0.0
H361 H 0.99029 0.87286 0.40015 0.0
H362 H 0.08477 0.8843 0.31478 0.0
H363 H 0.00802 0.8062 0.28439 0.0
C364 C 0.03938 0.77984 0.24122 0.0
C365 C 0.06942 0.77669 0.22809 0.0
C366 C 0.06412 0.88172 0.33365 0.0
C367 C 0.05353 0.82454 0.29556 0.0
C368 C 0.05557 0.90845 0.36306 0.0
C369 C 0.02885 0.90583 0.38773 0.0
C370 C 0.04556 0.85243 0.32818 0.0
C371 C 0.01109 0.87588 0.38181 0.0
C372 C 0.03139 0.80346 0.27535 0.0
C373 C 0.09104 0.79697 0.25076 0.0
N374 N 0.01963 0.85043 0.35225 0.0
N375 N 0.08262 0.82041 0.28298 0.0
H376 H 0.50411 0.71821 0.69243 0.0
H377 H 0.57183 0.60952 0.90313 0.0
H378 H 0.59885 0.71248 0.72268 0.0
H379 H 0.48194 0.5967 0.84993 0.0
H380 H 0.58098 0.65392 0.84454 0.0
H381 H 0.4944 0.68085 0.75829 0.0
C382 C 0.52287 0.70926 0.71306 0.0
C383 C 0.55237 0.71817 0.70163 0.0
C384 C 0.55926 0.64139 0.84586 0.0
C385 C 0.54138 0.67551 0.77727 0.0
C386 C 0.55401 0.61606 0.87925 0.0
C387 C 0.52614 0.59915 0.88125 0.0
C388 C 0.53638 0.65008 0.81459 0.0
C389 C 0.50386 0.60877 0.84949 0.0
C390 C 0.5173 0.68797 0.75069 0.0
C391 C 0.57574 0.70645 0.73029 0.0
N392 N 0.50947 0.63357 0.81752 0.0
N393 N 0.56976 0.68549 0.7666 0.0
H394 H 0.93831 0.24637 0.24296 0.0
H395 H 0.01306 0.06675 0.32359 0.0
H396 H 0.97551 0.17033 0.15023 0.0
H397 H 0.94921 0.12243 0.40635 0.0
H398 H 0.00511 0.1093 0.2625 0.0
H399 H 0.94734 0.2056 0.30625 0.0
C400 C 0.94839 0.22126 0.23577 0.0
C401 C 0.95631 0.21204 0.19097 0.0
C402 C 0.99281 0.11217 0.29402 0.0
C403 C 0.96705 0.16559 0.26337 0.0
C404 C 0.99738 0.08793 0.32896 0.0
C405 C 0.98168 0.09091 0.3701 0.0
C406 C 0.97266 0.13991 0.30035 0.0
C407 C 0.96163 0.11896 0.37506 0.0
C408 C 0.9536 0.19807 0.27197 0.0
C409 C 0.96967 0.17919 0.1841 0.0
N410 N 0.95776 0.14249 0.34063 0.0
N411 N 0.97465 0.15729 0.21982 0.0
H412 H 0.43292 0.33903 0.6657 0.0
H413 H 0.48748 0.36993 0.92278 0.0
H414 H 0.44037 0.25493 0.76344 0.0
H415 H 0.4579 0.45241 0.83218 0.0
H416 H 0.47398 0.32702 0.86417 0.0
H417 H 0.44598 0.38053 0.72553 0.0
C418 C 0.43755 0.32928 0.69981 0.0
C419 C 0.43588 0.29346 0.70959 0.0
C420 C 0.4704 0.35451 0.85728 0.0
C421 C 0.45055 0.34098 0.77854 0.0
C422 C 0.47819 0.37904 0.8906 0.0
C423 C 0.47386 0.41488 0.88237 0.0
C424 C 0.4585 0.36593 0.81531 0.0
C425 C 0.46162 0.42512 0.84012 0.0
C426 C 0.44478 0.35303 0.73405 0.0
C427 C 0.44143 0.28236 0.75458 0.0
N428 N 0.4545 0.40079 0.80816 0.0
N429 N 0.44872 0.30608 0.78747 0.0
H430 H 0.61127 0.72476 0.26212 0.0
H431 H 0.48405 0.59949 0.16128 0.0
H432 H 0.51961 0.72639 0.30818 0.0
H433 H 0.57115 0.61182 0.10009 0.0
H434 H 0.49672 0.64555 0.21589 0.0
H435 H 0.5968 0.6841 0.20177 0.0
C436 C 0.58799 0.71708 0.25913 0.0
C437 C 0.56668 0.72892 0.29056 0.0
C438 C 0.513 0.63824 0.19039 0.0
C439 C 0.5501 0.68157 0.22208 0.0
C440 C 0.50584 0.61182 0.15931 0.0
C441 C 0.52659 0.60163 0.12608 0.0
C442 C 0.5412 0.65445 0.18847 0.0
C443 C 0.55443 0.61873 0.12509 0.0
C444 C 0.57979 0.69357 0.22485 0.0
C445 C 0.53694 0.71747 0.28531 0.0
N446 N 0.56095 0.64415 0.15592 0.0
N447 N 0.52959 0.69422 0.25202 0.0
H448 H 0.92413 0.25686 0.73507 0.0
H449 H 0.00372 0.07678 0.67369 0.0
H450 H 0.95093 0.1798 0.83551 0.0
H451 H 0.94451 0.12885 0.57796 0.0
H452 H 0.99147 0.12049 0.731 0.0
H453 H 0.93761 0.21557 0.6745 0.0
C454 C 0.93286 0.23144 0.74452 0.0
C455 C 0.93665 0.2221 0.7907 0.0
C456 C 0.98115 0.12237 0.69745 0.0
C457 C 0.95251 0.1752 0.72163 0.0
C458 C 0.9882 0.09749 0.66463 0.0
C459 C 0.975 0.09904 0.621 0.0
C460 C 0.96102 0.14934 0.68656 0.0
C461 C 0.95502 0.12653 0.61131 0.0
C462 C 0.9406 0.20799 0.70991 0.0
C463 C 0.94836 0.18881 0.80065 0.0
N464 N 0.94867 0.15074 0.64386 0.0
N465 N 0.95595 0.16674 0.76649 0.0
H466 H 0.49258 0.28001 0.29889 0.0
H467 H 0.4373 0.44537 0.15802 0.0
H468 H 0.401 0.31595 0.30152 0.0
H469 H 0.51252 0.38275 0.11524 0.0
H470 H 0.42571 0.40127 0.21591 0.0
H471 H 0.50235 0.32005 0.23524 0.0
C472 C 0.47449 0.29607 0.28561 0.0
C473 C 0.44595 0.29473 0.3052 0.0
C474 C 0.44467 0.39719 0.19367 0.0
C475 C 0.45704 0.34088 0.23348 0.0
C476 C 0.45142 0.42242 0.1609 0.0
C477 C 0.47593 0.41773 0.13184 0.0
C478 C 0.46286 0.36739 0.1979 0.0
C479 C 0.49336 0.38737 0.13686 0.0
C480 C 0.48003 0.31884 0.24941 0.0
C481 C 0.42323 0.31603 0.28696 0.0
N482 N 0.48662 0.36347 0.16951 0.0
N483 N 0.42935 0.3386 0.25244 0.0
H484 H 0.04744 0.85286 0.86377 0.0
H485 H 0.00965 0.86985 0.59801 0.0
H486 H 0.04798 0.7637 0.77376 0.0
H487 H 0.0384 0.9563 0.68225 0.0
H488 H 0.01884 0.83021 0.66246 0.0
H489 H 0.03876 0.8909 0.79814 0.0
C490 C 0.04545 0.84126 0.83013 0.0
C491 C 0.04817 0.80506 0.82417 0.0
C492 C 0.02322 0.85785 0.66664 0.0
C493 C 0.03853 0.84855 0.74873 0.0
C494 C 0.0179 0.88051 0.62999 0.0
C495 C 0.02322 0.9165 0.63474 0.0
C496 C 0.03352 0.87136 0.70847 0.0
C497 C 0.03403 0.92879 0.67692 0.0
C498 C 0.04076 0.86303 0.79264 0.0
C499 C 0.04603 0.79151 0.77972 0.0
N500 N 0.03864 0.9063 0.71218 0.0
N501 N 0.04114 0.81329 0.74359 0.0
loop_
_geom_bond_atom_site_label_1
_geom_bond_atom_site_label_2
_geom_bond_distance
_geom_bond_site_symmetry_2
_ccdc_geom_bond_type
C0 C1 1.391 . S
C0 C4 1.391 . S
C0 H42 0.948 . S
C1 C0 1.391 . S
C1 C2 1.391 . S
C2 C1 1.391 . S
C2 H58 0.947 . S
C2 C59 1.392 . S
C3 C4 1.391 . S
C3 C7 1.397 . S
C3 C59 1.419 . S
C4 C0 1.391 . S
C4 C3 1.391 . S
C4 C5 1.399 . S
C5 C4 1.399 . S
C5 C8 1.396 . S
C5 C17 1.453 . S
C5 C18 1.684 . S
H6 C30 0.948 . S
C7 C3 1.397 . S
C7 C8 1.394 . S
C7 C26 1.723 1_556 S
C8 C5 1.396 . S
C8 C7 1.394 . S
C8 C38 1.706 1_556 S
H9 C32 0.947 . S
H10 C33 0.948 . S
H11 C39 0.982 . S
H12 C40 0.979 . S
H13 C40 0.980 . S
H14 C40 0.983 . S
H15 C39 0.979 . S
H16 C39 0.977 . S
C17 C5 1.453 . S
C17 H46 0.982 . S
C17 H47 0.979 . S
C17 H48 0.977 . S
C18 C5 1.684 . S
C18 H43 0.979 . S
C18 H44 0.980 . S
C18 H45 0.983 . S
C19 C20 1.391 . S
C19 C24 1.391 . S
C19 H49 0.948 . S
C20 C19 1.391 . S
C20 C21 1.391 . S
C21 C20 1.391 . S
C21 C22 1.392 . S
C21 H50 0.947 . S
C22 C21 1.392 . S
C22 C23 1.419 . S
C22 H51 0.948 . S
C23 C22 1.419 . S
C23 C24 1.391 . S
C23 C27 1.397 . S
C24 C19 1.391 . S
C24 C23 1.391 . S
C24 C25 1.399 . S
C25 C24 1.399 . S
C25 C26 1.396 . S
C25 C28 1.453 . S
C25 C29 1.684 . S
C26 C7 1.723 1_554 S
C26 C25 1.396 . S
C26 C27 1.394 . S
C27 C23 1.397 . S
C27 C26 1.394 . S
C27 C37 1.723 . S
C28 C25 1.453 . S
C28 H52 0.982 . S
C28 H53 0.979 . S
C28 H54 0.977 . S
C29 C25 1.684 . S
C29 H55 0.979 . S
C29 H56 0.994 . S
C29 H57 0.983 . S
C30 H6 0.948 . S
C30 C31 1.391 . S
C30 C35 1.391 . S
C31 C30 1.391 . S
C31 C32 1.391 1_554 S
C32 H9 0.947 . S
C32 C31 1.391 1_556 S
C32 C33 1.392 . S
C33 H10 0.948 . S
C33 C32 1.392 . S
C33 C34 1.419 . S
C34 C33 1.419 . S
C34 C35 1.391 1_556 S
C34 C38 1.394 1_556 S
C35 C30 1.391 . S
C35 C34 1.391 1_554 S
C35 C36 1.399 . S
C36 C35 1.399 . S
C36 C37 1.396 . S
C36 C39 1.453 . S
C36 C40 1.684 . S
C37 C27 1.723 . S
C37 C36 1.396 . S
C37 C38 1.415 . S
C38 C8 1.706 1_554 S
C38 C34 1.394 1_554 S
C38 C37 1.415 . S
C39 H11 0.982 . S
C39 H15 0.979 . S
C39 H16 0.977 . S
C39 C36 1.453 . S
C40 H12 0.979 . S
C40 H13 0.980 . S
C40 H14 0.983 . S
C40 C36 1.684 . S
H41 C59 0.948 . S
H42 C0 0.948 . S
H43 C18 0.979 . S
H44 C18 0.980 . S
H45 C18 0.983 . S
H46 C17 0.982 . S
H47 C17 0.979 . S
H48 C17 0.977 . S
H49 C19 0.948 . S
H50 C21 0.947 . S
H51 C22 0.948 . S
H52 C28 0.982 . S
H53 C28 0.979 . S
H54 C28 0.977 . S
H55 C29 0.979 . S
H56 C29 0.994 . S
H57 C29 0.983 . S
H58 C2 0.947 . S
C59 C2 1.392 . S
C59 C3 1.419 . S
C59 H41 0.948 . S
C60 C61 1.391 . S
C60 C64 1.391 . S
C60 H102 0.948 . S
C61 C60 1.391 . S
C61 C62 1.391 . S
C62 C61 1.391 . S
C62 H118 0.947 . S
C62 C119 1.392 . S
C63 C64 1.391 . S
C63 C67 1.397 . S
C63 C119 1.419 . S
C64 C60 1.391 . S
C64 C63 1.391 . S
C64 C65 1.399 . S
C65 C64 1.399 . S
C65 C68 1.396 . S
C65 C77 1.453 . S
C65 C78 1.684 . S
H66 C90 0.948 . S
C67 C63 1.397 . S
C67 C68 1.394 . S
C67 C86 1.723 . S
C68 C65 1.396 . S
C68 C67 1.394 . S
C68 C98 1.723 . S
H69 C92 0.947 . S
H70 C93 0.948 . S
H71 C99 0.982 . S
H72 C100 0.979 . S
H73 C100 0.980 . S
H74 C100 0.983 . S
H75 C99 0.979 . S
H76 C99 0.977 . S
C77 C65 1.453 . S
C77 H106 0.982 . S
C77 H107 0.979 . S
C77 H108 0.977 . S
C78 C65 1.684 . S
C78 H103 0.979 . S
C78 H104 0.980 . S
C78 H105 0.983 . S
C79 C80 1.391 . S
C79 C84 1.391 . S
C79 H109 0.948 . S
C80 C79 1.391 . S
C80 C81 1.391 . S
C81 C80 1.391 . S
C81 C82 1.392 . S
C81 H110 0.947 . S
C82 C81 1.392 . S
C82 C83 1.419 . S
C82 H111 0.948 . S
C83 C82 1.419 . S
C83 C84 1.391 . S
C83 C87 1.397 . S
C84 C79 1.391 . S
C84 C83 1.391 . S
C84 C85 1.399 . S
C85 C84 1.399 . S
C85 C86 1.396 . S
C85 C88 1.453 . S
C85 C89 1.684 . S
C86 C67 1.723 . S
C86 C85 1.396 . S
C86 C87 1.394 . S
C87 C83 1.397 . S
C87 C86 1.394 . S
C87 C97 1.723 . S
C88 C85 1.453 . S
C88 H112 0.982 . S
C88 H113 0.979 . S
C88 H114 0.977 . S
C89 C85 1.684 . S
C89 H115 0.979 . S
C89 H116 0.980 . S
C89 H117 0.983 . S
C90 H66 0.948 . S
C90 C91 1.391 . S
C90 C95 1.391 . S
C91 C90 1.391 . S
C91 C92 1.391 . S
C92 H69 0.947 . S
C92 C91 1.391 . S
C92 C93 1.392 . S
C93 H70 0.948 . S
C93 C92 1.392 . S
C93 C94 1.419 . S
C94 C93 1.419 . S
C94 C95 1.391 . S
C94 C98 1.397 . S
C95 C90 1.391 . S
C95 C94 1.391 . S
C95 C96 1.399 . S
C96 C95 1.399 . S
C96 C97 1.396 . S
C96 C99 1.453 . S
C96 C100 1.684 . S
C97 C87 1.723 . S
C97 C96 1.396 . S
C97 C98 1.394 . S
C98 C68 1.723 . S
C98 C94 1.397 . S
C98 C97 1.394 . S
C99 H71 0.982 . S
C99 H75 0.979 . S
C99 H76 0.977 . S
C99 C96 1.453 . S
C100 H72 0.979 . S
C100 H73 0.980 . S
C100 H74 0.983 . S
C100 C96 1.684 . S
H101 C119 0.948 . S
H102 C60 0.948 . S
H103 C78 0.979 . S
H104 C78 0.980 . S
H105 C78 0.983 . S
H106 C77 0.982 . S
H107 C77 0.979 . S
H108 C77 0.977 . S
H109 C79 0.948 . S
H110 C81 0.947 . S
H111 C82 0.948 . S
H112 C88 0.982 . S
H113 C88 0.979 . S
H114 C88 0.977 . S
H115 C89 0.979 . S
H116 C89 0.980 . S
H117 C89 0.983 . S
H118 C62 0.947 . S
C119 C62 1.392 . S
C119 C63 1.419 . S
C119 H101 0.948 . S
C120 C121 1.391 . S
C120 C124 1.391 . S
C120 H162 0.948 . S
C121 C120 1.391 . S
C121 C122 1.391 . S
C122 C121 1.391 . S
C122 H178 0.947 . S
C122 C179 1.392 . S
C123 C124 1.391 . S
C123 C127 1.397 . S
C123 C179 1.419 . S
C124 C120 1.391 . S
C124 C123 1.391 . S
C124 C125 1.399 . S
C125 C124 1.399 . S
C125 C128 1.396 . S
C125 C137 1.453 . S
C125 C138 1.684 . S
H126 C150 0.948 . S
C127 C123 1.397 . S
C127 C128 1.394 . S
C127 C146 1.723 1_554 S
C128 C125 1.396 . S
C128 C127 1.394 . S
C128 C158 1.723 . S
H129 C152 0.947 . S
H130 C153 0.948 . S
H131 C159 0.982 . S
H132 C160 0.979 . S
H133 C160 0.980 . S
H134 C160 0.983 . S
H135 C159 0.979 . S
H136 C159 0.977 . S
C137 C125 1.453 . S
C137 H166 0.982 . S
C137 H167 0.979 . S
C137 H168 0.977 . S
C138 C125 1.684 . S
C138 H163 0.979 . S
C138 H164 0.980 . S
C138 H165 0.983 . S
C139 C140 1.391 . S
C139 C144 1.391 . S
C139 H169 0.948 . S
C140 C139 1.391 . S
C140 C141 1.391 . S
C141 C140 1.391 . S
C141 C142 1.392 . S
C141 H170 0.947 . S
C142 C141 1.392 . S
C142 C143 1.419 . S
C142 H171 0.948 . S
C143 C142 1.419 . S
C143 C144 1.391 . S
C143 C147 1.397 . S
C144 C139 1.391 . S
C144 C143 1.391 . S
C144 C145 1.399 . S
C145 C144 1.399 . S
C145 C146 1.396 . S
C145 C148 1.453 . S
C145 C149 1.684 . S
C146 C127 1.723 1_556 S
C146 C145 1.396 . S
C146 C147 1.394 . S
C147 C143 1.397 . S
C147 C146 1.394 . S
C147 C157 1.723 . S
C148 C145 1.453 . S
C148 H172 0.982 . S
C148 H173 0.979 . S
C148 H174 0.977 1_556 S
C149 C145 1.684 . S
C149 H175 0.979 . S
C149 H176 0.980 1_556 S
C149 H177 0.983 . S
C150 H126 0.948 . S
C150 C151 1.391 1_556 S
C150 C155 1.391 . S
C151 C150 1.391 1_554 S
C151 C152 1.391 . S
C152 H129 0.947 . S
C152 C151 1.391 . S
C152 C153 1.392 . S
C153 H130 0.948 . S
C153 C152 1.392 . S
C153 C154 1.419 . S
C154 C153 1.419 . S
C154 C155 1.391 1_554 S
C154 C158 1.397 . S
C155 C150 1.391 . S
C155 C154 1.391 1_556 S
C155 C156 1.399 . S
C156 C155 1.399 . S
C156 C157 1.396 . S
C156 C159 1.453 . S
C156 C160 1.684 . S
C157 C147 1.723 . S
C157 C156 1.396 . S
C157 C158 1.394 1_556 S
C158 C128 1.723 . S
C158 C154 1.397 . S
C158 C157 1.394 1_554 S
C159 H131 0.982 . S
C159 H135 0.979 . S
C159 H136 0.977 . S
C159 C156 1.453 . S
C160 H132 0.979 . S
C160 H133 0.980 . S
C160 H134 0.983 . S
C160 C156 1.684 . S
H161 C179 0.948 . S
H162 C120 0.948 . S
H163 C138 0.979 . S
H164 C138 0.980 . S
H165 C138 0.983 . S
H166 C137 0.982 . S
H167 C137 0.979 . S
H168 C137 0.977 . S
H169 C139 0.948 . S
H170 C141 0.947 . S
H171 C142 0.948 . S
H172 C148 0.982 . S
H173 C148 0.979 . S
H174 C148 0.977 1_554 S
H175 C149 0.979 . S
H176 C149 0.980 1_554 S
H177 C149 0.983 . S
H178 C122 0.947 . S
C179 C122 1.392 . S
C179 C123 1.419 . S
C179 H161 0.948 . S
C180 C181 1.391 . S
C180 C184 1.391 . S
C180 H222 0.948 . S
C181 C180 1.391 . S
C181 C182 1.391 . S
C182 C181 1.391 . S
C182 H238 0.947 . S
C182 C239 1.392 . S
C183 C184 1.391 . S
C183 C187 1.397 . S
C183 C239 1.419 . S
C184 C180 1.391 . S
C184 C183 1.391 . S
C184 C185 1.399 . S
C185 C184 1.399 . S
C185 C188 1.396 . S
C185 C197 1.453 . S
C185 C198 1.684 . S
H186 C210 0.948 . S
C187 C183 1.397 . S
C187 C188 1.394 . S
C187 C206 1.723 . S
C188 C185 1.396 . S
C188 C187 1.394 . S
C188 C218 1.723 . S
H189 C212 0.947 . S
H190 C213 0.948 . S
H191 C219 0.982 . S
H192 C220 0.979 . S
H193 C220 0.980 . S
H194 C220 0.983 . S
H195 C219 0.979 . S
H196 C219 0.977 . S
C197 C185 1.453 . S
C197 H226 0.982 . S
C197 H227 0.979 . S
C197 H228 0.977 . S
C198 C185 1.684 . S
C198 H223 0.979 . S
C198 H224 0.980 . S
C198 H225 0.983 . S
C199 C200 1.391 . S
C199 C204 1.391 . S
C199 H229 0.948 . S
C200 C199 1.391 . S
C200 C201 1.391 . S
C201 C200 1.391 . S
C201 C202 1.392 . S
C201 H230 0.947 . S
C202 C201 1.392 . S
C202 C203 1.419 . S
C202 H231 0.948 . S
C203 C202 1.419 . S
C203 C204 1.391 . S
C203 C207 1.397 . S
C204 C199 1.391 . S
C204 C203 1.391 . S
C204 C205 1.399 . S
C205 C204 1.399 . S
C205 C206 1.396 . S
C205 C208 1.453 . S
C205 C209 1.684 . S
C206 C187 1.723 . S
C206 C205 1.396 . S
C206 C207 1.394 . S
C207 C203 1.397 . S
C207 C206 1.394 . S
C207 C217 1.723 . S
C208 C205 1.453 . S
C208 H232 0.982 . S
C208 H233 0.979 . S
C208 H234 0.977 . S
C209 C205 1.684 . S
C209 H235 0.979 . S
C209 H236 0.980 . S
C209 H237 0.983 . S
C210 H186 0.948 . S
C210 C211 1.391 . S
C210 C215 1.391 . S
C211 C210 1.391 . S
C211 C212 1.391 . S
C212 H189 0.947 . S
C212 C211 1.391 . S
C212 C213 1.392 . S
C213 H190 0.948 . S
C213 C212 1.392 . S
C213 C214 1.419 . S
C214 C213 1.419 . S
C214 C215 1.391 . S
C214 C218 1.397 . S
C215 C210 1.391 . S
C215 C214 1.391 . S
C215 C216 1.399 . S
C216 C215 1.399 . S
C216 C217 1.396 . S
C216 C219 1.453 . S
C216 C220 1.684 . S
C217 C207 1.723 . S
C217 C216 1.396 . S
C217 C218 1.394 . S
C218 C188 1.723 . S
C218 C214 1.397 . S
C218 C217 1.394 . S
C219 H191 0.982 . S
C219 H195 0.979 . S
C219 H196 0.977 . S
C219 C216 1.453 . S
C220 H192 0.979 . S
C220 H193 0.980 . S
C220 H194 0.983 . S
C220 C216 1.684 . S
H221 C239 0.948 . S
H222 C180 0.948 . S
H223 C198 0.979 . S
H224 C198 0.980 . S
H225 C198 0.983 . S
H226 C197 0.982 . S
H227 C197 0.979 . S
H228 C197 0.977 . S
H229 C199 0.948 . S
H230 C201 0.947 . S
H231 C202 0.948 . S
H232 C208 0.982 . S
H233 C208 0.979 . S
H234 C208 0.977 . S
H235 C209 0.979 . S
H236 C209 0.980 . S
H237 C209 0.983 . S
H238 C182 0.947 . S
C239 C182 1.392 . S
C239 C183 1.419 . S
C239 H221 0.948 . S
O240 Zn241 1.953 1_565 S
O240 C256 1.225 . S
Zn241 O240 1.953 1_545 S
Zn241 O242 1.949 1_655 S
Zn241 O248 1.919 . S
Zn241 O253 1.924 . S
O242 Zn241 1.949 1_455 S
O242 Zn243 1.923 . S
O242 Zn244 1.950 1_445 S
O242 Zn245 1.945 . S
Zn243 O242 1.923 . S
Zn243 O246 1.933 . S
Zn243 O249 1.941 . S
Zn243 O250 1.965 1_545 S
Zn244 O242 1.950 1_665 S
Zn244 O251 1.938 1_655 S
Zn244 O252 1.906 1_655 S
Zn244 O262 1.953 . S
Zn245 O242 1.945 . S
Zn245 O247 1.932 . S
Zn245 O254 1.977 1_545 S
Zn245 O255 1.910 1_455 S
O246 Zn243 1.933 . S
O246 C257 1.226 . S
O247 Zn245 1.932 . S
O247 C257 1.307 . S
O248 Zn241 1.919 . S
O248 C259 1.253 . S
O249 Zn243 1.941 . S
O249 C259 1.283 1_455 S
O250 Zn243 1.965 1_565 S
O250 C258 1.303 . S
O251 Zn244 1.938 1_455 S
O251 C258 1.247 . S
O252 Zn244 1.906 1_455 S
O252 C260 1.304 . S
O253 Zn241 1.924 . S
O253 C261 1.311 . S
O254 Zn245 1.977 1_565 S
O254 C260 1.272 . S
O255 Zn245 1.910 1_655 S
O255 C261 1.231 . S
C256 O240 1.225 . S
C256 O262 1.298 . S
C257 O246 1.226 . S
C257 O247 1.307 . S
C258 O250 1.303 . S
C258 O251 1.247 . S
C259 O248 1.253 . S
C259 O249 1.283 1_655 S
C260 O252 1.304 . S
C260 O254 1.272 . S
C261 O253 1.311 . S
C261 O255 1.231 . S
O262 Zn244 1.953 . S
O262 C256 1.298 . S
O263 Zn264 1.954 . S
O263 C279 1.225 1_556 S
Zn264 O263 1.954 . S
Zn264 O265 1.947 1_556 S
Zn264 O271 1.925 . S
Zn264 O276 1.918 1_556 S
O265 Zn264 1.947 1_554 S
O265 Zn266 1.923 1_554 S
O265 Zn267 1.950 . S
O265 Zn268 1.945 . S
Zn266 O265 1.923 1_556 S
Zn266 O269 1.933 . S
Zn266 O272 1.941 . S
Zn266 O273 1.965 . S
Zn267 O265 1.950 . S
Zn267 O274 1.938 1_554 S
Zn267 O275 1.906 . S
Zn267 O285 1.953 . S
Zn268 O265 1.945 . S
Zn268 O270 1.932 . S
Zn268 O277 1.977 . S
Zn268 O278 1.910 . S
O269 Zn266 1.933 . S
O269 C280 1.226 1_556 S
O270 Zn268 1.932 . S
O270 C280 1.307 . S
O271 Zn264 1.925 . S
O271 C282 1.253 . S
O272 Zn266 1.941 . S
O272 C282 1.283 . S
O273 Zn266 1.965 . S
O273 C281 1.303 . S
O274 Zn267 1.938 1_556 S
O274 C281 1.247 . S
O275 Zn267 1.906 . S
O275 C283 1.304 . S
O276 Zn264 1.918 1_554 S
O276 C284 1.311 . S
O277 Zn268 1.977 . S
O277 C283 1.272 . S
O278 Zn268 1.910 . S
O278 C284 1.231 . S
C279 O263 1.225 1_554 S
C279 O285 1.298 . S
C280 O269 1.226 1_554 S
C280 O270 1.307 . S
C281 O273 1.303 . S
C281 O274 1.247 . S
C282 O271 1.253 . S
C282 O272 1.283 . S
C283 O275 1.304 . S
C283 O277 1.272 . S
C284 O276 1.311 . S
C284 O278 1.231 . S
O285 Zn267 1.953 . S
O285 C279 1.298 . S
H286 C292 0.930 . S
H287 C296 0.930 . S
H288 C301 0.929 . S
H289 C299 0.929 . S
H290 C294 0.929 . S
H291 C300 0.929 . S
C292 H286 0.930 . S
C292 C293 1.367 . S
C292 C300 1.378 . S
C293 C292 1.367 . S
C293 C301 1.433 . S
C294 H290 0.929 . S
C294 C296 1.378 . S
C294 C298 1.350 . S
C295 C298 1.463 . S
C295 C300 1.350 . S
C295 N303 1.427 . S
C296 H287 0.930 . S
C296 C294 1.378 . S
C296 C297 1.367 . S
C297 C296 1.367 . S
C297 C299 1.433 . S
C298 C294 1.350 . S
C298 C295 1.463 . S
C298 N302 1.427 . S
C299 H289 0.929 . S
C299 C297 1.433 . S
C299 N302 1.384 . S
C300 H291 0.929 . S
C300 C292 1.378 . S
C300 C295 1.350 . S
C301 H288 0.929 . S
C301 C293 1.433 . S
C301 N303 1.384 . S
N302 C298 1.427 . S
N302 C299 1.384 . S
N303 C295 1.427 . S
N303 C301 1.384 . S
H304 C310 0.930 . S
H305 C314 0.930 . S
H306 C319 0.929 . S
H307 C317 0.929 . S
H308 C312 0.929 . S
H309 C318 0.929 . S
C310 H304 0.930 . S
C310 C311 1.367 1_556 S
C310 C318 1.378 . S
C311 C310 1.367 1_554 S
C311 C319 1.433 . S
C312 H308 0.929 . S
C312 C314 1.378 . S
C312 C316 1.350 . S
C313 C316 1.463 . S
C313 C318 1.350 1_554 S
C313 N321 1.427 . S
C314 H305 0.930 . S
C314 C312 1.378 . S
C314 C315 1.367 . S
C315 C314 1.367 . S
C315 C317 1.433 1_554 S
C316 C312 1.350 . S
C316 C313 1.463 . S
C316 N320 1.427 1_554 S
C317 H307 0.929 . S
C317 C315 1.433 1_556 S
C317 N320 1.384 . S
C318 H309 0.929 . S
C318 C310 1.378 . S
C318 C313 1.350 1_556 S
C319 H306 0.929 . S
C319 C311 1.433 . S
C319 N321 1.384 . S
N320 C316 1.427 1_556 S
N320 C317 1.384 . S
N321 C313 1.427 . S
N321 C319 1.384 . S
H322 C328 0.930 . S
H323 C332 0.930 . S
H324 C337 0.929 . S
H325 C335 0.929 . S
H326 C330 0.929 . S
H327 C336 0.929 . S
C328 H322 0.930 . S
C328 C329 1.367 . S
C328 C336 1.378 . S
C329 C328 1.367 . S
C329 C337 1.433 . S
C330 H326 0.929 . S
C330 C332 1.378 . S
C330 C334 1.350 . S
C331 C334 1.463 . S
C331 C336 1.350 . S
C331 N339 1.427 . S
C332 H323 0.930 . S
C332 C330 1.378 . S
C332 C333 1.367 . S
C333 C332 1.367 . S
C333 C335 1.433 . S
C334 C330 1.350 . S
C334 C331 1.463 . S
C334 N338 1.427 . S
C335 H325 0.929 . S
C335 C333 1.433 . S
C335 N338 1.384 . S
C336 H327 0.929 . S
C336 C328 1.378 . S
C336 C331 1.350 . S
C337 H324 0.929 . S
C337 C329 1.433 . S
C337 N339 1.384 . S
N338 C334 1.427 . S
N338 C335 1.384 . S
N339 C331 1.427 . S
N339 C337 1.384 . S
H340 C346 0.930 . S
H341 C350 0.930 . S
H342 C355 0.929 . S
H343 C353 0.929 . S
H344 C348 0.929 . S
H345 C354 0.929 . S
C346 H340 0.930 . S
C346 C347 1.367 1_556 S
C346 C354 1.378 . S
C347 C346 1.367 1_554 S
C347 C355 1.433 . S
C348 H344 0.929 . S
C348 C350 1.378 . S
C348 C352 1.350 . S
C349 C352 1.463 . S
C349 C354 1.350 1_554 S
C349 N357 1.427 . S
C350 H341 0.930 . S
C350 C348 1.378 . S
C350 C351 1.367 . S
C351 C350 1.367 . S
C351 C353 1.433 1_554 S
C352 C348 1.350 . S
C352 C349 1.463 . S
C352 N356 1.427 1_554 S
C353 H343 0.929 . S
C353 C351 1.433 1_556 S
C353 N356 1.384 . S
C354 H345 0.929 . S
C354 C346 1.378 . S
C354 C349 1.350 1_556 S
C355 H342 0.929 . S
C355 C347 1.433 . S
C355 N357 1.384 . S
N356 C352 1.427 1_556 S
N356 C353 1.384 . S
N357 C349 1.427 . S
N357 C355 1.384 . S
H358 C364 0.930 . S
H359 C368 0.930 . S
H360 C373 0.929 . S
H361 C371 0.929 . S
H362 C366 0.929 . S
H363 C372 0.929 . S
C364 H358 0.930 . S
C364 C365 1.367 . S
C364 C372 1.378 . S
C365 C364 1.367 . S
C365 C373 1.433 . S
C366 H362 0.929 . S
C366 C368 1.378 . S
C366 C370 1.350 . S
C367 C370 1.463 . S
C367 C372 1.350 . S
C367 N375 1.427 . S
C368 H359 0.930 . S
C368 C366 1.378 . S
C368 C369 1.367 . S
C369 C368 1.367 . S
C369 C371 1.433 . S
C370 C366 1.350 . S
C370 C367 1.463 . S
C370 N374 1.427 . S
C371 H361 0.929 . S
C371 C369 1.433 . S
C371 N374 1.384 . S
C372 H363 0.929 . S
C372 C364 1.378 . S
C372 C367 1.350 . S
C373 H360 0.929 . S
C373 C365 1.433 . S
C373 N375 1.384 . S
N374 C370 1.427 . S
N374 C371 1.384 . S
N375 C367 1.427 . S
N375 C373 1.384 . S
H376 C382 0.930 . S
H377 C386 0.930 . S
H378 C391 0.929 . S
H379 C389 0.929 . S
H380 C384 0.929 . S
H381 C390 0.929 . S
C382 H376 0.930 . S
C382 C383 1.367 . S
C382 C390 1.378 . S
C383 C382 1.367 . S
C383 C391 1.433 . S
C384 H380 0.929 . S
C384 C386 1.378 . S
C384 C388 1.350 . S
C385 C388 1.463 . S
C385 C390 1.350 . S
C385 N393 1.427 . S
C386 H377 0.930 . S
C386 C384 1.378 . S
C386 C387 1.367 . S
C387 C386 1.367 . S
C387 C389 1.433 . S
C388 C384 1.350 . S
C388 C385 1.463 . S
C388 N392 1.427 . S
C389 H379 0.929 . S
C389 C387 1.433 . S
C389 N392 1.384 . S
C390 H381 0.929 . S
C390 C382 1.378 . S
C390 C385 1.350 . S
C391 H378 0.929 . S
C391 C383 1.433 . S
C391 N393 1.384 . S
N392 C388 1.427 . S
N392 C389 1.384 . S
N393 C385 1.427 . S
N393 C391 1.384 . S
H394 C400 0.930 . S
H395 C404 0.930 . S
H396 C409 0.929 . S
H397 C407 0.929 . S
H398 C402 0.929 . S
H399 C408 0.929 . S
C400 H394 0.930 . S
C400 C401 1.367 . S
C400 C408 1.378 . S
C401 C400 1.367 . S
C401 C409 1.433 . S
C402 H398 0.929 . S
C402 C404 1.378 . S
C402 C406 1.350 . S
C403 C406 1.463 . S
C403 C408 1.350 . S
C403 N411 1.427 . S
C404 H395 0.930 . S
C404 C402 1.378 . S
C404 C405 1.367 . S
C405 C404 1.367 . S
C405 C407 1.433 . S
C406 C402 1.350 . S
C406 C403 1.463 . S
C406 N410 1.427 . S
C407 H397 0.929 . S
C407 C405 1.433 . S
C407 N410 1.384 . S
C408 H399 0.929 . S
C408 C400 1.378 . S
C408 C403 1.350 . S
C409 H396 0.929 . S
C409 C401 1.433 . S
C409 N411 1.384 . S
N410 C406 1.427 . S
N410 C407 1.384 . S
N411 C403 1.427 . S
N411 C409 1.384 . S
H412 C418 0.930 . S
H413 C422 0.930 . S
H414 C427 0.929 . S
H415 C425 0.929 . S
H416 C420 0.929 . S
H417 C426 0.929 . S
C418 H412 0.930 . S
C418 C419 1.367 . S
C418 C426 1.378 . S
C419 C418 1.367 . S
C419 C427 1.433 . S
C420 H416 0.929 . S
C420 C422 1.378 . S
C420 C424 1.350 . S
C421 C424 1.463 . S
C421 C426 1.350 . S
C421 N429 1.427 . S
C422 H413 0.930 . S
C422 C420 1.378 . S
C422 C423 1.367 . S
C423 C422 1.367 . S
C423 C425 1.433 . S
C424 C420 1.350 . S
C424 C421 1.463 . S
C424 N428 1.427 . S
C425 H415 0.929 . S
C425 C423 1.433 . S
C425 N428 1.384 . S
C426 H417 0.929 . S
C426 C418 1.378 . S
C426 C421 1.350 . S
C427 H414 0.929 . S
C427 C419 1.433 . S
C427 N429 1.384 . S
N428 C424 1.427 . S
N428 C425 1.384 . S
N429 C421 1.427 . S
N429 C427 1.384 . S
H430 C436 0.930 . S
H431 C440 0.930 . S
H432 C445 0.929 . S
H433 C443 0.929 . S
H434 C438 0.929 . S
H435 C444 0.929 . S
C436 H430 0.930 . S
C436 C437 1.367 . S
C436 C444 1.378 . S
C437 C436 1.367 . S
C437 C445 1.433 . S
C438 H434 0.929 . S
C438 C440 1.378 . S
C438 C442 1.350 . S
C439 C442 1.463 . S
C439 C444 1.350 . S
C439 N447 1.427 . S
C440 H431 0.930 . S
C440 C438 1.378 . S
C440 C441 1.367 . S
C441 C440 1.367 . S
C441 C443 1.433 . S
C442 C438 1.350 . S
C442 C439 1.463 . S
C442 N446 1.427 . S
C443 H433 0.929 . S
C443 C441 1.433 . S
C443 N446 1.384 . S
C444 H435 0.929 . S
C444 C436 1.378 . S
C444 C439 1.350 . S
C445 H432 0.929 . S
C445 C437 1.433 . S
C445 N447 1.384 . S
N446 C442 1.427 . S
N446 C443 1.384 . S
N447 C439 1.427 . S
N447 C445 1.384 . S
H448 C454 0.930 . S
H449 C458 0.930 . S
H450 C463 0.929 . S
H451 C461 0.929 1_455 S
H452 C456 0.929 . S
H453 C462 0.929 . S
C454 H448 0.930 . S
C454 C455 1.367 . S
C454 C462 1.378 . S
C455 C454 1.367 . S
C455 C463 1.433 . S
C456 H452 0.929 . S
C456 C458 1.378 . S
C456 C460 1.350 . S
C457 C460 1.463 . S
C457 C462 1.350 . S
C457 N465 1.427 . S
C458 H449 0.930 . S
C458 C456 1.378 . S
C458 C459 1.367 . S
C459 C458 1.367 . S
C459 C461 1.433 . S
C460 C456 1.350 . S
C460 C457 1.463 . S
C460 N464 1.427 . S
C461 H451 0.929 1_655 S
C461 C459 1.433 . S
C461 N464 1.384 . S
C462 H453 0.929 . S
C462 C454 1.378 . S
C462 C457 1.350 . S
C463 H450 0.929 . S
C463 C455 1.433 . S
C463 N465 1.384 . S
N464 C460 1.427 . S
N464 C461 1.384 . S
N465 C457 1.427 . S
N465 C463 1.384 . S
H466 C472 0.930 . S
H467 C476 0.930 . S
H468 C481 0.929 . S
H469 C479 0.929 . S
H470 C474 0.929 . S
H471 C480 0.929 . S
C472 H466 0.930 . S
C472 C473 1.367 . S
C472 C480 1.378 . S
C473 C472 1.367 . S
C473 C481 1.433 . S
C474 H470 0.929 . S
C474 C476 1.378 . S
C474 C478 1.350 . S
C475 C478 1.463 . S
C475 C480 1.350 . S
C475 N483 1.427 . S
C476 H467 0.930 . S
C476 C474 1.378 . S
C476 C477 1.367 . S
C477 C476 1.367 . S
C477 C479 1.433 . S
C478 C474 1.350 . S
C478 C475 1.463 . S
C478 N482 1.427 . S
C479 H469 0.929 . S
C479 C477 1.433 . S
C479 N482 1.384 . S
C480 H471 0.929 . S
C480 C472 1.378 . S
C480 C475 1.350 . S
C481 H468 0.929 . S
C481 C473 1.433 . S
C481 N483 1.384 . S
N482 C478 1.427 . S
N482 C479 1.384 . S
N483 C475 1.427 . S
N483 C481 1.384 . S
H484 C490 0.930 . S
H485 C494 0.930 . S
H486 C499 0.929 . S
H487 C497 0.929 . S
H488 C492 0.929 . S
H489 C498 0.929 . S
C490 H484 0.930 . S
C490 C491 1.367 . S
C490 C498 1.378 . S
C491 C490 1.367 . S
C491 C499 1.433 . S
C492 H488 0.929 . S
C492 C494 1.378 . S
C492 C496 1.350 . S
C493 C496 1.463 . S
C493 C498 1.350 . S
C493 N501 1.427 . S
C494 H485 0.930 . S
C494 C492 1.378 . S
C494 C495 1.367 . S
C495 C494 1.367 . S
C495 C497 1.433 . S
C496 C492 1.350 . S
C496 C493 1.463 . S
C496 N500 1.427 . S
C497 H487 0.929 . S
C497 C495 1.433 . S
C497 N500 1.384 . S
C498 H489 0.929 . S
C498 C490 1.378 . S
C498 C493 1.350 . S
C499 H486 0.929 . S
C499 C491 1.433 . S
C499 N501 1.384 . S
N500 C496 1.427 . S
N500 C497 1.384 . S
N501 C493 1.427 . S
N501 C499 1.384 . S
C297 C257 1.654 . S
C293 C211 1.570 . S
C311 C31 1.628 . S
C315 C280 1.650 . S
C329 C91 1.642 . S
C333 C256 1.666 . S
C347 C151 1.575 . S
C351 C279 1.665 . S
C369 C260 1.640 . S
C365 C20 1.692 . S
C387 C282 1.638 . S
C383 C61 1.610 . S
C401 C121 1.595 . S
C405 C261 1.633 . S
C419 C200 1.588 . S
C423 C281 1.611 . S
C441 C284 1.626 . S
C437 C80 1.697 . S
C459 C259 1.635 . S
C455 C140 1.621 . S
C477 C283 1.640 . S
C473 C181 1.574 . S
C491 C1 1.591 . S
C495 C258 1.608 . S
