# Generated by pormake.
# Topology nom, (4,4)-cn, num edge types: 1
# Building blocks:
#     Node 0, Type 0, BuildingBlock: KUFVIS_clean_linker_0, # of connection points: 4
#     Node 1, Type 0, BuildingBlock: KUFVIS_clean_linker_0, # of connection points: 4
#     Node 2, Type 0, BuildingBlock: KUFVIS_clean_linker_0, # of connection points: 4
#     Node 3, Type 0, BuildingBlock: KUFVIS_clean_linker_0, # of connection points: 4
#     Node 4, Type 0, BuildingBlock: KUFVIS_clean_linker_0, # of connection points: 4
#     Node 5, Type 0, BuildingBlock: KUFVIS_clean_linker_0, # of connection points: 4
#     Node 6, Type 1, BuildingBlock: KUFVIS_clean_sbu_0, # of connection points: 4
#     Node 7, Type 1, BuildingBlock: KUFVIS_clean_sbu_0, # of connection points: 4
#     Node 8, Type 1, BuildingBlock: KUFVIS_clean_sbu_0, # of connection points: 4
#     Node 9, Type 1, BuildingBlock: KUFVIS_clean_sbu_0, # of connection points: 4
#     Node 10, Type 1, BuildingBlock: KUFVIS_clean_sbu_0, # of connection points: 4
#     Node 11, Type 1, BuildingBlock: KUFVIS_clean_sbu_0, # of connection points: 4
#     Edge 12, Type (0, 1), BuildingBlock: ZUJKAS_clean_linker_0, # of connection points: 2
#     Edge 13, Type (0, 1), BuildingBlock: ZUJKAS_clean_linker_0, # of connection points: 2
#     Edge 14, Type (0, 1), BuildingBlock: ZUJKAS_clean_linker_0, # of connection points: 2
#     Edge 15, Type (0, 1), BuildingBlock: ZUJKAS_clean_linker_0, # of connection points: 2
#     Edge 16, Type (0, 1), BuildingBlock: ZUJKAS_clean_linker_0, # of connection points: 2
#     Edge 17, Type (0, 1), BuildingBlock: ZUJKAS_clean_linker_0, # of connection points: 2
#     Edge 18, Type (0, 1), BuildingBlock: ZUJKAS_clean_linker_0, # of connection points: 2
#     Edge 19, Type (0, 1), BuildingBlock: ZUJKAS_clean_linker_0, # of connection points: 2
#     Edge 20, Type (0, 1), BuildingBlock: ZUJKAS_clean_linker_0, # of connection points: 2
#     Edge 21, Type (0, 1), BuildingBlock: ZUJKAS_clean_linker_0, # of connection points: 2
#     Edge 22, Type (0, 1), BuildingBlock: ZUJKAS_clean_linker_0, # of connection points: 2
#     Edge 23, Type (0, 1), BuildingBlock: ZUJKAS_clean_linker_0, # of connection points: 2
#     Edge 24, Type (0, 1), BuildingBlock: ZUJKAS_clean_linker_0, # of connection points: 2
#     Edge 25, Type (0, 1), BuildingBlock: ZUJKAS_clean_linker_0, # of connection points: 2
#     Edge 26, Type (0, 1), BuildingBlock: ZUJKAS_clean_linker_0, # of connection points: 2
#     Edge 27, Type (0, 1), BuildingBlock: ZUJKAS_clean_linker_0, # of connection points: 2
#     Edge 28, Type (0, 1), BuildingBlock: ZUJKAS_clean_linker_0, # of connection points: 2
#     Edge 29, Type (0, 1), BuildingBlock: ZUJKAS_clean_linker_0, # of connection points: 2
#     Edge 30, Type (0, 1), BuildingBlock: ZUJKAS_clean_linker_0, # of connection points: 2
#     Edge 31, Type (0, 1), BuildingBlock: ZUJKAS_clean_linker_0, # of connection points: 2
#     Edge 32, Type (0, 1), BuildingBlock: ZUJKAS_clean_linker_0, # of connection points: 2
#     Edge 33, Type (0, 1), BuildingBlock: ZUJKAS_clean_linker_0, # of connection points: 2
#     Edge 34, Type (0, 1), BuildingBlock: ZUJKAS_clean_linker_0, # of connection points: 2
#     Edge 35, Type (0, 1), BuildingBlock: ZUJKAS_clean_linker_0, # of connection points: 2
# Relax obj value: 0.004
# Max RMSD: 0.051
# Mean RMSD: 0.040
data_MOF--net-nom--node1-KUFVIS_clean_sbu_0--node2-KUFVIS_clean_linker_0--edge1-ZUJKAS_clean_linker_0
_symmetry_space_group_name_H-M    P1
_symmetry_Int_Tables_number       1
_symmetry_cell_setting            triclinic
loop_
_symmetry_equiv_pos_as_xyz
'x, y, z'
_cell_length_a     58.279742
_cell_length_b     58.81849
_cell_length_c     59.794179
_cell_angle_alpha  90.476174
_cell_angle_beta   90.529249
_cell_angle_gamma 120.02054
loop_
_atom_site_label
_atom_site_type_symbol
_atom_site_fract_x
_atom_site_fract_y
_atom_site_fract_z
_atom_type_partial_charge
H0 H 0.11607 0.60394 0.34041 0.0
H1 H 0.05879 0.58055 0.28724 0.0
H2 H 0.03501 0.54938 0.35399 0.0
H3 H 0.99574 0.54211 0.34355 0.0
H4 H 0.94173 0.49903 0.28991 0.0
H5 H 0.0243 0.54425 0.27632 0.0
C6 C 0.09564 0.59273 0.33454 0.0
C7 C 0.07595 0.57718 0.34958 0.0
C8 C 0.08958 0.59369 0.31205 0.0
C9 C 0.06308 0.57887 0.30457 0.0
C10 C 0.04257 0.56256 0.31943 0.0
C11 C 0.04958 0.56206 0.34211 0.0
C12 C 1.01432 0.54544 0.31126 0.0
C13 C 0.99265 0.53604 0.32615 0.0
C14 C 0.96658 0.51852 0.31866 0.0
C15 C 0.96191 0.51147 0.29601 0.0
C16 C 0.9826 0.52143 0.28081 0.0
C17 C 1.00868 0.53789 0.28842 0.0
H18 H 0.54696 0.11302 0.5049 0.0
H19 H 0.50086 0.05668 0.45413 0.0
H20 H 0.50442 0.03204 0.52189 0.0
H21 H 0.47116 0.99501 0.51323 0.0
H22 H 0.44112 0.93742 0.4607 0.0
H23 H 0.49045 0.0178 0.4438 0.0
C24 C 0.53429 0.09264 0.4998 0.0
C25 C 0.52589 0.07301 0.51577 0.0
C26 C 0.52573 0.08669 0.47757 0.0
C27 C 0.50805 0.06045 0.47123 0.0
C28 C 0.50019 0.03971 0.48679 0.0
C29 C 0.50937 0.04668 0.50924 0.0
C30 C 0.48311 1.01115 0.47963 0.0
C31 C 0.47012 0.99082 0.49553 0.0
C32 C 0.45579 0.9643 0.4887 0.0
C33 C 0.45252 0.95788 0.46597 0.0
C34 C 0.46439 0.97731 0.44995 0.0
C35 C 0.48031 1.00363 0.4567 0.0
H36 H 0.5401 0.44916 0.63296 0.0
H37 H 0.51466 0.48145 0.68458 0.0
H38 H 0.50958 0.49925 0.61487 0.0
H39 H 0.48172 0.51086 0.62578 0.0
H40 H 0.47722 0.56072 0.67571 0.0
H41 H 0.51565 0.51745 0.69224 0.0
C42 C 0.53142 0.46101 0.63778 0.0
C43 C 0.52354 0.47255 0.62133 0.0
C44 C 0.52877 0.46478 0.66042 0.0
C45 C 0.5175 0.47998 0.66692 0.0
C46 C 0.51056 0.49325 0.65078 0.0
C47 C 0.51404 0.48934 0.62786 0.0
C48 C 0.50068 0.51163 0.65776 0.0
C49 C 0.48689 0.51916 0.64249 0.0
C50 C 0.47947 0.5377 0.6487 0.0
C51 C 0.48432 0.54761 0.67058 0.0
C52 C 0.4965 0.53959 0.68635 0.0
C53 C 0.50518 0.5222 0.67985 0.0
H54 H 0.1152 0.56735 0.79714 0.0
H55 H 0.05853 0.52441 0.84739 0.0
H56 H 0.03267 0.53056 0.78047 0.0
H57 H 0.99586 0.49445 0.78951 0.0
H58 H 0.93912 0.4774 0.84088 0.0
H59 H 0.02158 0.52299 0.85756 0.0
C60 C 0.09468 0.55607 0.80221 0.0
C61 C 0.07448 0.54938 0.78637 0.0
C62 C 0.08901 0.54742 0.82419 0.0
C63 C 0.06246 0.53166 0.83048 0.0
C64 C 0.0414 0.52564 0.8151 0.0
C65 C 0.04793 0.53449 0.79283 0.0
C66 C 1.01292 0.51114 0.82238 0.0
C67 C 0.99188 0.49679 0.80676 0.0
C68 C 0.96531 0.48541 0.8133 0.0
C69 C 0.95963 0.48713 0.83566 0.0
C70 C 0.97983 0.49998 0.85163 0.0
C71 C 1.00636 0.51222 0.84501 0.0
H72 H 0.49121 0.93397 0.00428 0.0
H73 H 0.53074 0.99163 0.95417 0.0
H74 H 0.52634 0.01526 0.02229 0.0
H75 H 0.56165 0.05257 0.01304 0.0
H76 H 0.5751 0.10934 0.96303 0.0
H77 H 0.53059 0.02783 0.94542 0.0
C78 C 0.50182 0.95445 -0.00048 0.0
C79 C 0.5085 0.97401 0.0158 0.0
C80 C 0.50941 0.96073 0.97733 0.0
C81 C 0.52431 0.98723 0.97129 0.0
C82 C 0.5304 1.00763 0.98719 0.0
C83 C 0.52247 1.0005 0.0096 0.0
C84 C 0.5439 0.03601 0.98032 0.0
C85 C 0.55845 0.05669 0.99607 0.0
C86 C 0.56888 0.08309 0.99001 0.0
C87 C 0.56605 0.08895 0.96794 0.0
C88 C 0.55293 0.06915 0.95183 0.0
C89 C 0.54161 0.04278 0.95803 0.0
H90 H 0.51286 0.59459 0.13009 0.0
H91 H 0.53924 0.56404 0.18235 0.0
H92 H 0.54699 0.54761 0.11253 0.0
H93 H 0.57366 0.53533 0.12345 0.0
H94 H 0.58376 0.48998 0.17366 0.0
H95 H 0.54335 0.53128 0.19042 0.0
C96 C 0.522 0.58323 0.13516 0.0
C97 C 0.53121 0.57269 0.11894 0.0
C98 C 0.5243 0.57948 0.15785 0.0
C99 C 0.53661 0.56531 0.16461 0.0
C100 C 0.5449 0.55292 0.14859 0.0
C101 C 0.5416 0.55674 0.12559 0.0
C102 C 0.55633 0.53582 0.1557 0.0
C103 C 0.56983 0.52816 0.14033 0.0
C104 C 0.57862 0.51075 0.14656 0.0
C105 C 0.57564 0.50223 0.1686 0.0
C106 C 0.56369 0.51032 0.18447 0.0
C107 C 0.55358 0.52653 0.17792 0.0
Mn108 Mn 0.64852 0.39515 0.40831 0.0
Mn109 Mn 0.6794 0.45833 0.42677 0.0
C110 C 0.62756 0.40911 0.43307 0.0
C111 C 0.6384 0.35136 0.41093 0.0
C112 C 0.65104 0.4411 0.38194 0.0
O113 O 0.6871 0.40819 0.39981 0.0
O114 O 0.70467 0.44976 0.41234 0.0
C115 C 0.71199 0.45232 0.46196 0.0
N116 N 0.69413 0.45969 0.45576 0.0
C117 C 0.69349 0.47489 0.49309 0.0
C118 C 0.71197 0.46759 0.49985 0.0
C119 C 0.72115 0.45612 0.48423 0.0
C120 C 0.68479 0.47026 0.47074 0.0
H121 H 0.71924 0.44365 0.44999 0.0
C122 C 0.70679 0.43131 0.40293 0.0
O123 O 0.63605 0.361 0.39216 0.0
O124 O 0.64782 0.3675 0.42791 0.0
N125 N 0.65826 0.47032 0.44142 0.0
C126 C 0.64082 0.47671 0.43212 0.0
C127 C 0.62984 0.48848 0.44551 0.0
C128 C 0.63743 0.49422 0.46813 0.0
C129 C 0.656 0.48819 0.47717 0.0
C130 C 0.66613 0.4763 0.46307 0.0
H131 H 0.63526 0.47279 0.41464 0.0
O132 O 0.614 0.38814 0.42085 0.0
O133 O 0.65321 0.42108 0.43109 0.0
O134 O 0.64475 0.41701 0.38341 0.0
O135 O 0.66403 0.45831 0.39719 0.0
C136 C 0.66501 0.49366 0.49959 0.0
C137 C 0.68349 0.48674 0.50761 0.0
H138 H 0.71925 0.47069 0.51698 0.0
H139 H 0.73537 0.45037 0.48932 0.0
H140 H 0.61568 0.49327 0.43836 0.0
H141 H 0.62897 0.50336 0.47838 0.0
H142 H 0.6578 0.50313 0.51085 0.0
H143 H 0.69003 0.49078 0.52494 0.0
Mn144 Mn 0.27868 0.65673 0.56574 0.0
Mn145 Mn 0.24391 0.59254 0.5502 0.0
C146 C 0.24259 0.64195 0.54144 0.0
C147 C 0.313 0.70012 0.56136 0.0
C148 C 0.23578 0.613 0.5942 0.0
O149 O 0.30408 0.64363 0.57466 0.0
O150 O 0.27847 0.60142 0.56404 0.0
C151 C 0.28009 0.59524 0.51452 0.0
N152 N 0.25528 0.58862 0.52127 0.0
C153 C 0.23677 0.5707 0.48489 0.0
C154 C 0.26209 0.57718 0.47757 0.0
C155 C 0.28386 0.58961 0.49243 0.0
C156 C 0.23426 0.57692 0.50705 0.0
H157 H 0.29687 0.60474 0.52589 0.0
C158 C 0.29987 0.62021 0.57253 0.0
O159 O 0.30178 0.69161 0.5805 0.0
O160 O 0.30519 0.68306 0.54502 0.0
N161 N 0.20996 0.58023 0.5363 0.0
C162 C 0.18696 0.57574 0.54587 0.0
C163 C 0.16324 0.5631 0.53333 0.0
C164 C 0.16336 0.55508 0.51115 0.0
C165 C 0.18722 0.55978 0.50171 0.0
C166 C 0.21017 0.57204 0.51514 0.0
H167 H 0.18668 0.58158 0.56298 0.0
O168 O 0.25103 0.66355 0.55291 0.0
O169 O 0.25583 0.62966 0.54402 0.0
O170 O 0.254 0.63681 0.5916 0.0
O171 O 0.2304 0.59481 0.57978 0.0
C172 C 0.18916 0.55292 0.47946 0.0
C173 C 0.21395 0.55853 0.47101 0.0
H174 H 0.26507 0.57284 0.46056 0.0
H175 H 0.30348 0.59476 0.48689 0.0
H176 H 0.14487 0.55948 0.54077 0.0
H177 H 0.14502 0.54541 0.5015 0.0
H178 H 0.17176 0.54357 0.46864 0.0
H179 H 0.21526 0.55344 0.4538 0.0
Mn180 Mn 0.64626 0.27344 0.7327 0.0
Mn181 Mn 0.67701 0.24002 0.71702 0.0
C182 C 0.62515 0.23784 0.70823 0.0
C183 C 0.6366 0.30737 0.72872 0.0
C184 C 0.64889 0.23138 0.76106 0.0
O185 O 0.68485 0.2989 0.7417 0.0
O186 O 0.70263 0.27456 0.7306 0.0
C187 C 0.70917 0.27588 0.68106 0.0
N188 N 0.69152 0.25124 0.68799 0.0
C189 C 0.69058 0.23275 0.65172 0.0
C190 C 0.70887 0.2579 0.64423 0.0
C191 C 0.71812 0.27956 0.65895 0.0
C192 C 0.6823 0.23032 0.67391 0.0
H193 H 0.71637 0.29258 0.69233 0.0
C194 C 0.70466 0.29548 0.73922 0.0
O195 O 0.63418 0.29593 0.74771 0.0
O196 O 0.64562 0.29978 0.7122 0.0
N197 N 0.65551 0.20622 0.70333 0.0
C198 C 0.6374 0.1834 0.71301 0.0
C199 C 0.62643 0.15982 0.70061 0.0
C200 C 0.63427 0.15989 0.67844 0.0
C201 C 0.65297 0.18357 0.66886 0.0
C202 C 0.66358 0.20639 0.68216 0.0
H203 H 0.63152 0.18316 0.73011 0.0
O204 O 0.6117 0.24586 0.71969 0.0
O205 O 0.65084 0.25124 0.71091 0.0
O206 O 0.64235 0.24892 0.75841 0.0
O207 O 0.6621 0.22662 0.74673 0.0
C208 C 0.66137 0.18545 0.64659 0.0
C209 C 0.68004 0.21006 0.63798 0.0
H210 H 0.71584 0.26082 0.62718 0.0
H211 H 0.73216 0.29904 0.65327 0.0
H212 H 0.61202 0.14159 0.70813 0.0
H213 H 0.6257 0.14166 0.6689 0.0
H214 H 0.65338 0.16814 0.63587 0.0
H215 H 0.6861 0.21132 0.62075 0.0
Mn216 Mn 0.40715 0.65387 0.90785 0.0
Mn217 Mn 0.37666 0.5905 0.92418 0.0
C218 C 0.42844 0.6399 0.9323 0.0
C219 C 0.4166 0.69739 0.91126 0.0
C220 C 0.40477 0.60836 0.88015 0.0
O221 O 0.36855 0.64073 0.89882 0.0
O222 O 0.3511 0.59899 0.90986 0.0
C223 C 0.34419 0.59596 0.95933 0.0
N224 N 0.36208 0.58874 0.95304 0.0
C225 C 0.36289 0.57299 0.98986 0.0
C226 C 0.34438 0.58013 0.99672 0.0
C227 C 0.33511 0.59181 0.98142 0.0
C228 C 0.37153 0.578 0.96774 0.0
H229 H 0.33685 0.60476 0.9476 0.0
C230 C 0.34891 0.61758 0.90108 0.0
O231 O 0.41902 0.68777 0.89241 0.0
O232 O 0.40778 0.68144 0.92799 0.0
N233 N 0.39801 0.57849 0.93862 0.0
C234 C 0.41543 0.57226 0.92924 0.0
C235 C 0.42646 0.56029 0.94229 0.0
C236 C 0.41892 0.55415 0.96466 0.0
C237 C 0.40038 0.56003 0.97377 0.0
C238 C 0.39021 0.57216 0.96 0.0
H239 H 0.42093 0.57646 0.91193 0.0
O240 O 0.44182 0.66104 0.92081 0.0
O241 O 0.40275 0.6278 0.92984 0.0
O242 O 0.41088 0.63235 0.88247 0.0
O243 O 0.39188 0.59087 0.89471 0.0
C244 C 0.39142 0.55416 0.99593 0.0
C245 C 0.37295 0.56093 0.00405 0.0
H246 H 0.33716 0.57674 0.01369 0.0
H247 H 0.32087 0.59742 0.98659 0.0
H248 H 0.4406 0.55562 0.93509 0.0
H249 H 0.4274 0.54483 0.97465 0.0
H250 H 0.39867 0.54451 0.00691 0.0
H251 H 0.36645 0.55659 0.02119 0.0
Mn252 Mn 0.77555 0.39996 0.07087 0.0
Mn253 Mn 0.81138 0.37233 0.08826 0.0
C254 C 0.81162 0.42298 0.09474 0.0
C255 C 0.74034 0.40808 0.07449 0.0
C256 C 0.81855 0.39772 0.04311 0.0
O257 O 0.75094 0.36115 0.06306 0.0
O258 O 0.77665 0.34531 0.07548 0.0
C259 C 0.77634 0.34199 0.12535 0.0
N260 N 0.80084 0.35976 0.11791 0.0
C261 C 0.82011 0.3646 0.15464 0.0
C262 C 0.79512 0.34624 0.16267 0.0
C263 C 0.77313 0.33497 0.14797 0.0
C264 C 0.82206 0.37097 0.13196 0.0
H265 H 0.75939 0.33324 0.11412 0.0
C266 C 0.7552 0.34216 0.06653 0.0
O267 O 0.7516 0.41012 0.0554 0.0
O268 O 0.74878 0.40022 0.09124 0.0
N269 N 0.84553 0.39541 0.10131 0.0
C270 C 0.86826 0.41283 0.09093 0.0
C271 C 0.89221 0.42543 0.1032 0.0
C272 C 0.8926 0.41973 0.12591 0.0
C273 C 0.86902 0.40167 0.13622 0.0
C274 C 0.84582 0.38947 0.12308 0.0
H275 H 0.86818 0.41701 0.0734 0.0
O276 O 0.80262 0.4352 0.08281 0.0
O277 O 0.79886 0.39746 0.09294 0.0
O278 O 0.80036 0.40362 0.04531 0.0
O279 O 0.82404 0.38562 0.05799 0.0
C280 C 0.86762 0.39532 0.15902 0.0
C281 C 0.84314 0.37693 0.16826 0.0
H282 H 0.79257 0.34073 0.1801 0.0
H283 H 0.75375 0.32085 0.15406 0.0
H284 H 0.91035 0.43935 0.09514 0.0
H285 H 0.91114 0.42921 0.13526 0.0
H286 H 0.88521 0.40461 0.16963 0.0
H287 H 0.84225 0.37239 0.18586 0.0
Mn288 Mn 0.39897 0.77363 0.23728 0.0
Mn289 Mn 0.46287 0.80839 0.25522 0.0
C290 C 0.41229 0.8092 0.26148 0.0
C291 C 0.3552 0.73922 0.24041 0.0
C292 C 0.44438 0.8164 0.21005 0.0
O293 O 0.41296 0.74884 0.22952 0.0
O294 O 0.45487 0.77413 0.24197 0.0
C295 C 0.45869 0.77283 0.29174 0.0
N296 N 0.46549 0.79732 0.28463 0.0
C297 C 0.48161 0.81589 0.32134 0.0
C298 C 0.47494 0.79089 0.32903 0.0
C299 C 0.46333 0.76926 0.31418 0.0
C300 C 0.47643 0.81822 0.29882 0.0
H301 H 0.4498 0.75615 0.28038 0.0
C302 C 0.43641 0.75295 0.23296 0.0
O303 O 0.36457 0.75045 0.22143 0.0
O304 O 0.37164 0.74714 0.25732 0.0
N305 N 0.47429 0.84201 0.26875 0.0
C306 C 0.47885 0.86465 0.25884 0.0
C307 C 0.49056 0.88816 0.27137 0.0
C308 C 0.49761 0.88822 0.29391 0.0
C309 C 0.49286 0.86473 0.30373 0.0
C310 C 0.48151 0.84198 0.29031 0.0
H311 H 0.47372 0.86479 0.24146 0.0
O312 O 0.39106 0.80066 0.24918 0.0
O313 O 0.42505 0.79632 0.25979 0.0
O314 O 0.42021 0.79835 0.21188 0.0
O315 O 0.462 0.82162 0.2252 0.0
C316 C 0.4987 0.86297 0.32635 0.0
C317 C 0.49294 0.83853 0.33518 0.0
H318 H 0.4785 0.78806 0.34632 0.0
H319 H 0.45803 0.74989 0.32001 0.0
H320 H 0.4942 0.90623 0.26367 0.0
H321 H 0.50657 0.90638 0.30356 0.0
H322 H 0.50735 0.88023 0.33715 0.0
H323 H 0.49722 0.83735 0.35266 0.0
H324 H 0.10182 0.57732 0.27323 0.0
H325 H 0.14422 0.59992 0.25356 0.0
H326 H 0.17048 0.66706 0.29767 0.0
H327 H 0.12818 0.64483 0.31698 0.0
H328 H 0.18711 0.68099 0.2538 0.0
H329 H 0.20978 0.60546 0.28519 0.0
H330 H 0.18021 0.59345 0.26828 0.0
H331 H 0.18214 0.6082 0.29517 0.0
C332 C 0.11635 0.59723 0.27821 0.0
C333 C 0.11183 0.60928 0.29671 0.0
C334 C 0.14068 0.60998 0.26717 0.0
C335 C 0.16077 0.63494 0.2745 0.0
C336 C 0.15539 0.64776 0.29181 0.0
H337 H 0.3297 0.71509 0.27871 0.0
H338 H 0.28194 0.68815 0.28419 0.0
C339 C 0.1312 0.63505 0.30283 0.0
C340 C 0.18814 0.64708 0.26566 0.0
H341 H 0.24329 0.64063 0.26557 0.0
C342 C 0.19932 0.67203 0.25606 0.0
C343 C 0.20417 0.63553 0.26899 0.0
C344 C 0.19365 0.60929 0.28012 0.0
C345 C 0.22619 0.68598 0.25016 0.0
C346 C 0.24225 0.6745 0.25364 0.0
C347 C 0.23092 0.64931 0.26277 0.0
C348 C 0.27129 0.68915 0.2496 0.0
C349 C 0.23744 0.71341 0.24126 0.0
C350 C 0.28129 0.69806 0.22819 0.0
C351 C 0.30865 0.71352 0.225 0.0
C352 C 0.32655 0.72024 0.24315 0.0
C353 C 0.31651 0.71032 0.26437 0.0
C354 C 0.28918 0.69491 0.26754 0.0
H355 H 0.22398 0.7214 0.24407 0.0
H356 H 0.25695 0.72693 0.24925 0.0
H357 H 0.2404 0.71306 0.22298 0.0
H358 H 0.26791 0.69341 0.214 0.0
H359 H 0.31572 0.72074 0.20842 0.0
H360 H 0.49682 0.10235 0.45216 0.0
H361 H 0.51397 0.14462 0.43311 0.0
H362 H 0.59388 0.16371 0.44979 0.0
H363 H 0.57688 0.12165 0.46841 0.0
H364 H 0.54148 0.19145 0.45519 0.0
H365 H 0.60286 0.18932 0.38626 0.0
H366 H 0.57859 0.15988 0.39994 0.0
H367 H 0.61109 0.1799 0.41223 0.0
C368 C 0.51805 0.1152 0.45097 0.0
C369 C 0.53555 0.10874 0.46163 0.0
C370 C 0.52784 0.13941 0.44025 0.0
C371 C 0.55527 0.15732 0.43981 0.0
C372 C 0.57273 0.15011 0.44941 0.0
H373 H 0.63882 0.3256 0.44866 0.0
H374 H 0.618 0.27819 0.45381 0.0
C375 C 0.56298 0.12608 0.46015 0.0
C376 C 0.56567 0.18472 0.43207 0.0
H377 H 0.6133 0.23238 0.39975 0.0
C378 C 0.55688 0.20025 0.4428 0.0
C379 C 0.58566 0.19629 0.41579 0.0
C380 C 0.5949 0.18039 0.40273 0.0
C381 C 0.56833 0.22719 0.43847 0.0
C382 C 0.58949 0.2391 0.42327 0.0
C383 C 0.59742 0.22336 0.4117 0.0
C384 C 0.60385 0.26794 0.41958 0.0
C385 C 0.55775 0.24269 0.45035 0.0
C386 C 0.60384 0.27804 0.39839 0.0
C387 C 0.61592 0.30522 0.39535 0.0
C388 C 0.62837 0.32282 0.41342 0.0
C389 C 0.62931 0.31264 0.4344 0.0
C390 C 0.61724 0.2855 0.43742 0.0
H391 H 0.53726 0.22976 0.45632 0.0
H392 H 0.57056 0.2529 0.46515 0.0
H393 H 0.55774 0.25773 0.43924 0.0
H394 H 0.59382 0.26487 0.38435 0.0
H395 H 0.61485 0.31239 0.37897 0.0
H396 H 0.49332 0.58771 0.63815 0.0
H397 H 0.46469 0.60264 0.6216 0.0
H398 H 0.40425 0.52219 0.60881 0.0
H399 H 0.43284 0.50713 0.62575 0.0
H400 H 0.43674 0.59539 0.58075 0.0
H401 H 0.36945 0.55024 0.65241 0.0
H402 H 0.40224 0.55431 0.65172 0.0
H403 H 0.37545 0.52794 0.6362 0.0
C404 C 0.47419 0.57324 0.63124 0.0
C405 C 0.46519 0.54627 0.63334 0.0
C406 C 0.45784 0.58179 0.62183 0.0
C407 C 0.43212 0.56354 0.61444 0.0
C408 C 0.42388 0.5366 0.6148 0.0
H409 H 0.29486 0.57165 0.5743 0.0
H410 H 0.32822 0.56013 0.58411 0.0
C411 C 0.44031 0.52801 0.6242 0.0
C412 C 0.41331 0.5727 0.60839 0.0
H413 H 0.35585 0.56967 0.62481 0.0
C414 C 0.41904 0.58979 0.59035 0.0
C415 C 0.39048 0.56575 0.62121 0.0
C416 C 0.38407 0.54876 0.6416 0.0
C417 C 0.40208 0.59942 0.58436 0.0
C418 C 0.37904 0.59208 0.59697 0.0
C419 C 0.37354 0.57529 0.61517 0.0
C420 C 0.35933 0.60005 0.59078 0.0
C421 C 0.40852 0.61677 0.56425 0.0
C422 C 0.3656 0.62646 0.59151 0.0
C423 C 0.34635 0.63328 0.58591 0.0
C424 C 0.32054 0.61375 0.5795 0.0
C425 C 0.31447 0.58734 0.57906 0.0
C426 C 0.33356 0.58063 0.58468 0.0
H427 H 0.42414 0.61655 0.55389 0.0
H428 H 0.39054 0.6105 0.55364 0.0
H429 H 0.41573 0.63728 0.56994 0.0
H430 H 0.38528 0.64175 0.59656 0.0
H431 H 0.35174 0.65377 0.58644 0.0
H432 H 0.92508 0.49475 0.80452 0.0
H433 H 0.88195 0.46405 0.78759 0.0
H434 H 0.91049 0.4112 0.7707 0.0
H435 H 0.95375 0.4419 0.78798 0.0
H436 H 0.86226 0.43772 0.74581 0.0
H437 H 0.84962 0.36955 0.81459 0.0
H438 H 0.87597 0.40335 0.81471 0.0
H439 H 0.87833 0.37928 0.79771 0.0
C440 C 0.92237 0.47692 0.79658 0.0
C441 C 0.94264 0.47058 0.79761 0.0
C442 C 0.89772 0.45938 0.78698 0.0
C443 C 0.89283 0.43511 0.77834 0.0
C444 C 0.91375 0.42967 0.77763 0.0
H445 H 0.75031 0.29325 0.73876 0.0
H446 H 0.79517 0.32794 0.74762 0.0
C447 C 0.93852 0.44731 0.78724 0.0
C448 C 0.86527 0.41469 0.77225 0.0
H449 H 0.81483 0.35486 0.788 0.0
C450 C 0.85187 0.41956 0.75497 0.0
C451 C 0.85163 0.39121 0.78448 0.0
C452 C 0.86446 0.38552 0.80405 0.0
C453 C 0.82538 0.40125 0.74925 0.0
C454 C 0.81184 0.3777 0.7614 0.0
C455 C 0.82523 0.37294 0.77873 0.0
C456 C 0.78419 0.35706 0.75583 0.0
C457 C 0.81225 0.40696 0.72997 0.0
C458 C 0.76288 0.36175 0.75778 0.0
C459 C 0.73688 0.34177 0.75273 0.0
C460 C 0.73179 0.31674 0.74569 0.0
C461 C 0.75329 0.3122 0.74407 0.0
C462 C 0.77908 0.33206 0.74912 0.0
H463 H 0.82693 0.42302 0.7194 0.0
H464 H 0.80063 0.38915 0.71931 0.0
H465 H 0.7984 0.41306 0.7366 0.0
H466 H 0.76632 0.38079 0.76334 0.0
H467 H 0.72086 0.34598 0.75418 0.0
H468 H 0.54131 0.94872 0.95256 0.0
H469 H 0.5278 0.90661 0.93335 0.0
H470 H 0.44608 0.88055 0.94819 0.0
H471 H 0.45949 0.92244 0.96698 0.0
H472 H 0.50423 0.86045 0.95548 0.0
H473 H 0.43909 0.85325 0.88484 0.0
H474 H 0.46147 0.88409 0.89866 0.0
H475 H 0.42957 0.86226 0.91037 0.0
C476 C 0.52042 0.93433 0.95088 0.0
C477 C 0.5014 0.93878 0.96108 0.0
C478 C 0.51272 0.91024 0.94008 0.0
C479 C 0.48587 0.89044 0.93913 0.0
C480 C 0.4668 0.89562 0.94821 0.0
H481 H 0.41568 0.72345 0.94906 0.0
H482 H 0.43345 0.7707 0.95407 0.0
C483 C 0.47448 0.91954 0.95903 0.0
C484 C 0.47792 0.86329 0.93158 0.0
H485 H 0.43259 0.81205 0.89905 0.0
C486 C 0.48888 0.85002 0.94286 0.0
C487 C 0.45802 0.84964 0.91501 0.0
C488 C 0.44657 0.86315 0.90137 0.0
C489 C 0.47963 0.82324 0.93881 0.0
C490 C 0.4585 0.80917 0.92334 0.0
C491 C 0.44845 0.82271 0.91121 0.0
C492 C 0.44635 0.78034 0.91989 0.0
C493 C 0.49249 0.81021 0.95127 0.0
C494 C 0.44671 0.7699 0.89879 0.0
C495 C 0.43637 0.74285 0.89583 0.0
C496 C 0.42533 0.72568 0.9139 0.0
C497 C 0.42415 0.73611 0.93482 0.0
C498 C 0.43448 0.76315 0.93776 0.0
H499 H 0.51275 0.82478 0.95734 0.0
H500 H 0.48043 0.80008 0.96605 0.0
H501 H 0.49376 0.79539 0.94053 0.0
H502 H 0.45557 0.78277 0.88473 0.0
H503 H 0.43755 0.73546 0.87948 0.0
H504 H 0.56517 0.46031 0.13754 0.0
H505 H 0.59187 0.44481 0.11863 0.0
H506 H 0.64865 0.5244 0.10115 0.0
H507 H 0.62203 0.54011 0.12056 0.0
H508 H 0.61261 0.44834 0.07601 0.0
H509 H 0.69172 0.50185 0.14049 0.0
H510 H 0.65899 0.4976 0.14296 0.0
H511 H 0.68239 0.52164 0.1243 0.0
C512 C 0.58308 0.47445 0.12925 0.0
C513 C 0.59171 0.50143 0.1307 0.0
C514 C 0.5983 0.46557 0.11843 0.0
C515 C 0.62252 0.48347 0.10887 0.0
C516 C 0.63023 0.51029 0.10877 0.0
H517 H 0.72277 0.43028 0.04358 0.0
H518 H 0.69389 0.44877 0.04996 0.0
C519 C 0.61491 0.51922 0.11963 0.0
C520 C 0.6405 0.47402 0.10109 0.0
H521 H 0.69867 0.47607 0.11431 0.0
C522 C 0.63159 0.4546 0.08418 0.0
C523 C 0.66503 0.48188 0.11207 0.0
C524 C 0.67512 0.50172 0.13109 0.0
C525 C 0.64635 0.44256 0.07819 0.0
C526 C 0.67081 0.45037 0.08925 0.0
C527 C 0.67993 0.47013 0.10584 0.0
C528 C 0.68683 0.43761 0.0847 0.0
C529 C 0.63514 0.42086 0.06073 0.0
C530 C 0.69256 0.42523 0.10209 0.0
C531 C 0.70917 0.41479 0.09854 0.0
C532 C 0.72049 0.41656 0.07751 0.0
C533 C 0.71422 0.4284 0.05994 0.0
C534 C 0.69763 0.43892 0.06353 0.0
H535 H 0.61365 0.41313 0.05763 0.0
H536 H 0.64559 0.42859 0.04476 0.0
H537 H 0.63809 0.40439 0.06585 0.0
H538 H 0.68447 0.424 0.11857 0.0
H539 H 0.71361 0.40586 0.11245 0.0
H540 H 0.47531 0.93222 0.4972 0.0
H541 H 0.45251 0.88951 0.51539 0.0
H542 H 0.38887 0.90327 0.5332 0.0
H543 H 0.4117 0.94609 0.51462 0.0
H544 H 0.43213 0.87027 0.55772 0.0
H545 H 0.3526 0.83757 0.49269 0.0
H546 H 0.38356 0.86805 0.49085 0.0
H547 H 0.35822 0.86559 0.50922 0.0
C548 C 0.45685 0.92644 0.50563 0.0
C549 C 0.44529 0.9424 0.5047 0.0
C550 C 0.44378 0.90201 0.51594 0.0
C551 C 0.41875 0.89296 0.52532 0.0
C552 C 0.40798 0.9097 0.52576 0.0
H553 H 0.32932 0.74081 0.59152 0.0
H554 H 0.35578 0.78786 0.58424 0.0
C555 C 0.42113 0.93424 0.51542 0.0
C556 C 0.40319 0.86519 0.5326 0.0
H557 H 0.34817 0.80642 0.51924 0.0
C558 C 0.41365 0.85633 0.54946 0.0
C559 C 0.37935 0.84688 0.52148 0.0
C560 C 0.3678 0.85483 0.50242 0.0
C561 C 0.40097 0.8297 0.55544 0.0
C562 C 0.37701 0.81147 0.54444 0.0
C563 C 0.36649 0.82039 0.52771 0.0
C564 C 0.36273 0.78292 0.54951 0.0
C565 C 0.41379 0.82117 0.57295 0.0
C566 C 0.35771 0.76437 0.53244 0.0
C567 C 0.34246 0.73744 0.53652 0.0
C568 C 0.33178 0.72845 0.55776 0.0
C569 C 0.3374 0.74704 0.57501 0.0
C570 C 0.35263 0.77399 0.5709 0.0
H571 H 0.43507 0.83596 0.57561 0.0
H572 H 0.40357 0.81863 0.58908 0.0
H573 H 0.41213 0.8021 0.5682 0.0
H574 H 0.36524 0.77077 0.51579 0.0
H575 H 0.33846 0.7237 0.52284 0.0
H576 H 0.50061 0.42201 0.68664 0.0
H577 H 0.51799 0.39667 0.70567 0.0
H578 H 0.5974 0.45497 0.68763 0.0
H579 H 0.58008 0.48022 0.66897 0.0
H580 H 0.54322 0.37564 0.68297 0.0
H581 H 0.60948 0.43949 0.7511 0.0
H582 H 0.58488 0.44523 0.73785 0.0
H583 H 0.61646 0.45626 0.72495 0.0
C584 C 0.52183 0.42984 0.68763 0.0
C585 C 0.5391 0.45319 0.67672 0.0
C586 C 0.53174 0.41531 0.6983 0.0
C587 C 0.55907 0.42403 0.69831 0.0
C588 C 0.57637 0.44811 0.68838 0.0
H589 H 0.63676 0.33252 0.69037 0.0
H590 H 0.6177 0.36085 0.68451 0.0
C591 C 0.56648 0.46253 0.6777 0.0
C592 C 0.56922 0.40659 0.70584 0.0
H593 H 0.61736 0.40515 0.7379 0.0
C594 C 0.55916 0.38196 0.69523 0.0
C595 C 0.58994 0.4147 0.72192 0.0
C596 C 0.60064 0.44026 0.73478 0.0
C597 C 0.56992 0.36573 0.69958 0.0
C598 C 0.59166 0.37451 0.71468 0.0
C599 C 0.601 0.39862 0.72603 0.0
C600 C 0.60498 0.35893 0.71868 0.0
C601 C 0.55792 0.3393 0.68791 0.0
C602 C 0.60516 0.3493 0.74004 0.0
C603 C 0.6162 0.33322 0.74347 0.0
C604 C 0.62743 0.32658 0.72562 0.0
C605 C 0.62817 0.33713 0.70445 0.0
C606 C 0.61711 0.35319 0.70104 0.0
H607 H 0.53739 0.33257 0.68187 0.0
H608 H 0.57003 0.34082 0.67318 0.0
H609 H 0.55756 0.32423 0.69919 0.0
H610 H 0.59607 0.35363 0.75393 0.0
H611 H 0.61535 0.32547 0.76001 0.0
H612 H 0.10164 0.51482 0.84674 0.0
H613 H 0.14467 0.52728 0.86446 0.0
H614 H 0.171 0.6089 0.85269 0.0
H615 H 0.12815 0.59654 0.83528 0.0
H616 H 0.19104 0.55295 0.83998 0.0
H617 H 0.19956 0.61176 0.91578 0.0
H618 H 0.16814 0.58997 0.90218 0.0
H619 H 0.18964 0.622 0.89109 0.0
C620 C 0.11628 0.53544 0.84878 0.0
C621 C 0.11162 0.55475 0.8398 0.0
C622 C 0.1409 0.54254 0.85872 0.0
C623 C 0.16102 0.56906 0.86003 0.0
C624 C 0.15569 0.58841 0.85228 0.0
H625 H 0.33233 0.65129 0.88566 0.0
H626 H 0.2869 0.64014 0.87533 0.0
C627 C 0.13123 0.58132 0.84228 0.0
C628 C 0.18851 0.57633 0.86671 0.0
H629 H 0.23971 0.61517 0.90253 0.0
C630 C 0.20157 0.56634 0.85381 0.0
C631 C 0.2024 0.59415 0.88451 0.0
C632 C 0.18917 0.60494 0.89933 0.0
C633 C 0.2282 0.5739 0.85803 0.0
C634 C 0.24207 0.59163 0.87588 0.0
C635 C 0.22908 0.60171 0.88877 0.0
C636 C 0.26961 0.59872 0.88208 0.0
C637 C 0.24144 0.56323 0.84306 0.0
C638 C 0.27484 0.57921 0.88945 0.0
C639 C 0.30058 0.58543 0.89528 0.0
C640 C 0.32183 0.61143 0.89401 0.0
C641 C 0.31653 0.63107 0.8867 0.0
C642 C 0.29059 0.62476 0.88089 0.0
H643 H 0.23068 0.55587 0.82681 0.0
H644 H 0.26225 0.57847 0.83974 0.0
H645 H 0.24167 0.54658 0.85144 0.0
H646 H 0.25891 0.55908 0.89084 0.0
H647 H 0.3037 0.56972 0.90092 0.0
H648 H 0.55906 0.12256 -0.00054 0.0
H649 H 0.58951 0.16493 0.01715 0.0
H650 H 0.64322 0.13694 0.03363 0.0
H651 H 0.61285 0.09449 0.01542 0.0
H652 H 0.61443 0.18365 0.05858 0.0
H653 H 0.68674 0.19864 0.99228 0.0
H654 H 0.65289 0.17202 0.99115 0.0
H655 H 0.67683 0.17004 0.00896 0.0
C656 C 0.57707 0.12525 0.00737 0.0
C657 C 0.58376 0.10538 0.00592 0.0
C658 C 0.59447 0.14946 0.01744 0.0
C659 C 0.61893 0.15433 0.02622 0.0
C660 C 0.62466 0.13376 0.02653 0.0
H661 H 0.75884 0.29776 0.06945 0.0
H662 H 0.7251 0.2527 0.06065 0.0
C663 C 0.60719 0.10942 0.0164 0.0
C664 C 0.63914 0.18156 0.03304 0.0
H665 H 0.69987 0.23252 0.0192 0.0
C666 C 0.63316 0.19433 0.05004 0.0
C667 C 0.66341 0.1956 0.02164 0.0
C668 C 0.67036 0.18353 0.00236 0.0
C669 C 0.651 0.22061 0.05619 0.0
C670 C 0.67526 0.23456 0.04481 0.0
C671 C 0.68125 0.22177 0.02788 0.0
C672 C 0.69521 0.26221 0.05059 0.0
C673 C 0.64397 0.23313 0.07502 0.0
C674 C 0.68974 0.28273 0.04763 0.0
C675 C 0.70916 0.30881 0.0526 0.0
C676 C 0.7344 0.31479 0.06058 0.0
C677 C 0.73969 0.29407 0.06337 0.0
C678 C 0.72039 0.26817 0.05836 0.0
H679 H 0.62749 0.21826 0.08517 0.0
H680 H 0.66141 0.2449 0.08618 0.0
H681 H 0.63765 0.24654 0.06794 0.0
H682 H 0.67056 0.27861 0.04126 0.0
H683 H 0.70436 0.3242 0.05024 0.0
H684 H 0.4729 0.5658 0.16263 0.0
H685 H 0.45618 0.59247 0.1799 0.0
H686 H 0.53479 0.64689 0.20495 0.0
H687 H 0.55162 0.62021 0.18742 0.0
H688 H 0.45716 0.61427 0.2233 0.0
H689 H 0.5168 0.68979 0.16069 0.0
H690 H 0.51096 0.65667 0.15903 0.0
H691 H 0.53531 0.67999 0.17838 0.0
C692 C 0.48638 0.58296 0.17252 0.0
C693 C 0.51349 0.59098 0.17381 0.0
C694 C 0.47685 0.59823 0.18229 0.0
C695 C 0.49432 0.62191 0.19333 0.0
C696 C 0.52105 0.62884 0.19623 0.0
H697 H 0.48452 0.75604 0.23746 0.0
H698 H 0.4964 0.72298 0.22842 0.0
C699 C 0.5306 0.61348 0.18648 0.0
C700 C 0.48512 0.64054 0.19947 0.0
H701 H 0.49327 0.70056 0.1865 0.0
C702 C 0.46504 0.63317 0.21531 0.0
C703 C 0.49511 0.66497 0.18871 0.0
C704 C 0.51556 0.67333 0.1706 0.0
C705 C 0.45528 0.64997 0.22115 0.0
C706 C 0.46557 0.67455 0.21059 0.0
C707 C 0.48541 0.68172 0.19459 0.0
C708 C 0.45726 0.6939 0.21665 0.0
C709 C 0.43452 0.64162 0.23894 0.0
C710 C 0.43119 0.68866 0.2129 0.0
C711 C 0.42417 0.70773 0.21804 0.0
C712 C 0.44318 0.73239 0.22696 0.0
C713 C 0.46924 0.73739 0.2306 0.0
C714 C 0.47616 0.71845 0.22547 0.0
H715 H 0.43258 0.62469 0.24857 0.0
H716 H 0.43933 0.65814 0.25075 0.0
H717 H 0.41505 0.63573 0.23091 0.0
H718 H 0.41636 0.66998 0.20573 0.0
H719 H 0.40395 0.70318 0.215 0.0
H720 H 0.92778 0.4676 0.32308 0.0
H721 H 0.88473 0.45135 0.34068 0.0
H722 H 0.9094 0.52944 0.36544 0.0
H723 H 0.9525 0.54594 0.3474 0.0
H724 H 0.86644 0.45183 0.38398 0.0
H725 H 0.84487 0.51151 0.32504 0.0
H726 H 0.87269 0.50639 0.3217 0.0
H727 H 0.87432 0.52999 0.34188 0.0
C728 C 0.9242 0.48122 0.33265 0.0
C729 C 0.94338 0.5081 0.33368 0.0
C730 C 0.8996 0.47189 0.34271 0.0
C731 C 0.89361 0.48926 0.35394 0.0
C732 C 0.91344 0.51578 0.35647 0.0
H733 H 0.75242 0.47853 0.40734 0.0
H734 H 0.79678 0.49032 0.39587 0.0
C735 C 0.93816 0.52515 0.3464 0.0
C736 C 0.86604 0.4799 0.36133 0.0
H737 H 0.81264 0.48802 0.35221 0.0
C738 C 0.85464 0.45972 0.37705 0.0
C739 C 0.85053 0.48991 0.352 0.0
C740 C 0.86106 0.51047 0.33406 0.0
C741 C 0.8284 0.44985 0.38416 0.0
C742 C 0.81308 0.46018 0.37506 0.0
C743 C 0.82441 0.48013 0.35917 0.0
C744 C 0.7858 0.45184 0.38265 0.0
C745 C 0.81747 0.42895 0.40176 0.0
C746 C 0.76463 0.42613 0.37898 0.0
C747 C 0.73885 0.41916 0.38553 0.0
C748 C 0.73384 0.43784 0.39581 0.0
C749 C 0.75527 0.4635 0.39945 0.0
C750 C 0.78081 0.47038 0.39291 0.0
H751 H 0.8333 0.4267 0.41014 0.0
H752 H 0.80678 0.43362 0.41464 0.0
H753 H 0.80313 0.40985 0.3938 0.0
H754 H 0.76797 0.41159 0.37075 0.0
H755 H 0.72289 0.39927 0.38243 0.0
H756 H 0.06309 0.59581 0.38645 0.0
H757 H 0.08642 0.60666 0.42293 0.0
H758 H 0.13119 0.57046 0.40123 0.0
H759 H 0.10822 0.55993 0.36489 0.0
H760 H 0.09781 0.57644 0.4572 0.0
H761 H 0.1857 0.65091 0.41204 0.0
H762 H 0.1525 0.63578 0.40041 0.0
H763 H 0.17068 0.61853 0.39979 0.0
C764 C 0.07724 0.5894 0.38987 0.0
C765 C 0.08397 0.57708 0.37303 0.0
C766 C 0.09063 0.59572 0.41057 0.0
C767 C 0.11081 0.58975 0.41452 0.0
C768 C 0.1159 0.5755 0.39835 0.0
H769 H 0.24348 0.62759 0.49847 0.0
H770 H 0.20927 0.61531 0.4696 0.0
C771 C 0.10268 0.56933 0.37771 0.0
C772 C 0.12851 0.60052 0.43438 0.0
H773 H 0.19325 0.6414 0.44891 0.0
C774 C 0.11869 0.59071 0.45556 0.0
C775 C 0.1555 0.61965 0.43212 0.0
C776 C 0.16674 0.63208 0.40991 0.0
C777 C 0.13563 0.59818 0.47445 0.0
C778 C 0.16316 0.61615 0.47196 0.0
C779 C 0.17243 0.62711 0.45087 0.0
C780 C 0.18322 0.62278 0.49024 0.0
C781 C 0.12359 0.58612 0.49654 0.0
C782 C 0.18046 0.63147 0.5115 0.0
C783 C 0.19955 0.63724 0.52834 0.0
C784 C 0.22193 0.63486 0.52408 0.0
C785 C 0.22563 0.62803 0.50249 0.0
C786 C 0.20625 0.62149 0.48589 0.0
H787 H 0.10537 0.56668 0.49417 0.0
H788 H 0.13755 0.5836 0.50737 0.0
H789 H 0.11795 0.5992 0.5054 0.0
H790 H 0.16365 0.63392 0.51509 0.0
H791 H 0.19685 0.64354 0.54469 0.0
H792 H 0.49338 0.06114 0.55162 0.0
H793 H 0.50527 0.08394 0.58818 0.0
H794 H 0.58733 0.12649 0.56925 0.0
H795 H 0.57561 0.10388 0.53285 0.0
H796 H 0.54755 0.09443 0.62398 0.0
H797 H 0.56041 0.18138 0.5778 0.0
H798 H 0.54185 0.14834 0.56652 0.0
H799 H 0.57743 0.16575 0.56612 0.0
C800 C 0.51405 0.07467 0.55563 0.0
C801 C 0.53359 0.08096 0.53944 0.0
C802 C 0.52077 0.08776 0.57641 0.0
C803 C 0.54707 0.10716 0.58114 0.0
C804 C 0.56688 0.11176 0.56573 0.0
H805 H 0.64024 0.23921 0.66536 0.0
H806 H 0.61864 0.20531 0.6364 0.0
C807 C 0.56019 0.09881 0.54503 0.0
C808 C 0.55373 0.1247 0.60092 0.0
H809 H 0.57651 0.18874 0.61513 0.0
C810 C 0.55385 0.11507 0.62222 0.0
C811 C 0.5612 0.15137 0.59847 0.0
C812 C 0.56002 0.16237 0.57604 0.0
C813 C 0.56304 0.1319 0.6411 0.0
C814 C 0.57215 0.15911 0.63848 0.0
C815 C 0.57032 0.16817 0.61721 0.0
C816 C 0.58532 0.17908 0.65679 0.0
C817 C 0.56326 0.12006 0.66332 0.0
C818 C 0.57384 0.17614 0.67793 0.0
C819 C 0.58705 0.19505 0.69484 0.0
C820 C 0.61166 0.21743 0.69076 0.0
C821 C 0.62211 0.22135 0.66926 0.0
C822 C 0.60944 0.20214 0.6526 0.0
H823 H 0.56488 0.10213 0.66119 0.0
H824 H 0.57969 0.13402 0.67433 0.0
H825 H 0.54434 0.11428 0.67188 0.0
H826 H 0.55469 0.15931 0.68138 0.0
H827 H 0.57807 0.19218 0.71112 0.0
H828 H 0.51609 0.5893 0.70282 0.0
H829 H 0.50552 0.6015 0.73889 0.0
H830 H 0.46658 0.52043 0.75868 0.0
H831 H 0.47732 0.5082 0.72264 0.0
H832 H 0.45183 0.58 0.74854 0.0
H833 H 0.5045 0.5602 0.8168 0.0
H834 H 0.5153 0.56465 0.78813 0.0
H835 H 0.48764 0.53401 0.79659 0.0
C836 C 0.50615 0.57426 0.71523 0.0
C837 C 0.49743 0.54781 0.70998 0.0
C838 C 0.50005 0.58122 0.73577 0.0
C839 C 0.48523 0.56188 0.75144 0.0
C840 C 0.47838 0.53573 0.74698 0.0
H841 H 0.39752 0.55975 0.86911 0.0
H842 H 0.41666 0.54828 0.83779 0.0
C843 C 0.48458 0.52876 0.7264 0.0
C844 C 0.47351 0.56844 0.77059 0.0
H845 H 0.47024 0.56866 0.82756 0.0
C846 C 0.45602 0.57771 0.76584 0.0
C847 C 0.47869 0.56504 0.79307 0.0
C848 C 0.49771 0.55563 0.79906 0.0
C849 C 0.4434 0.58353 0.78294 0.0
C850 C 0.44882 0.58049 0.80547 0.0
C851 C 0.46616 0.57101 0.81026 0.0
C852 C 0.43691 0.58741 0.82425 0.0
C853 C 0.42392 0.59234 0.77669 0.0
C854 C 0.44196 0.61323 0.82701 0.0
C855 C 0.43092 0.61985 0.84477 0.0
C856 C 0.41475 0.60082 0.86031 0.0
C857 C 0.40971 0.57491 0.85743 0.0
C858 C 0.42075 0.56831 0.83961 0.0
H859 H 0.41651 0.58664 0.75919 0.0
H860 H 0.4067 0.58387 0.78803 0.0
H861 H 0.4339 0.61405 0.77812 0.0
H862 H 0.45478 0.62839 0.81558 0.0
H863 H 0.43549 0.64004 0.84653 0.0
H864 H 0.99251 0.47828 0.88624 0.0
H865 H 0.96858 0.46375 0.92162 0.0
H866 H 0.9248 0.50272 0.90504 0.0
H867 H 0.9484 0.51697 0.86967 0.0
H868 H 0.95612 0.48877 0.95958 0.0
H869 H 0.86933 0.42229 0.90586 0.0
H870 H 0.90279 0.43903 0.8956 0.0
H871 H 0.885 0.45645 0.89891 0.0
C872 C 0.97854 0.48459 0.89062 0.0
C873 C 0.97217 0.49864 0.8753 0.0
C874 C 0.96477 0.47614 0.91072 0.0
C875 C 0.94457 0.48172 0.91565 0.0
C876 C 0.94005 0.4979 0.90134 0.0
H877 H 0.81562 0.42645 0.00841 0.0
H878 H 0.84693 0.44649 0.97802 0.0
C879 C 0.95366 0.5062 0.88127 0.0
C880 C 0.92615 0.46825 0.93418 0.0
H881 H 0.86153 0.42324 0.94449 0.0
C882 C 0.93547 0.47436 0.95635 0.0
C883 C 0.89926 0.44934 0.92983 0.0
C884 C 0.88845 0.44114 0.90628 0.0
C885 C 0.91833 0.46259 0.97437 0.0
C886 C 0.89135 0.44391 0.96999 0.0
C887 C 0.88218 0.43761 0.94779 0.0
C888 C 0.87209 0.431 0.98817 0.0
C889 C 0.92904 0.47077 0.99793 0.0
C890 C 0.87542 0.41498 0.00357 0.0
C891 C 0.8575 0.40338 0.02095 0.0
C892 C 0.83579 0.40749 0.02323 0.0
C893 C 0.83206 0.42283 0.00725 0.0
C894 C 0.85 0.4344 0.98988 0.0
H895 H 0.94818 0.4896 0.99836 0.0
H896 H 0.91468 0.47292 0.00855 0.0
H897 H 0.93244 0.45545 0.00532 0.0
H898 H 0.89198 0.41156 0.00222 0.0
H899 H 0.86101 0.39163 0.03286 0.0
H900 H 0.54144 0.99028 0.0525 0.0
H901 H 0.53214 0.96864 0.08894 0.0
H902 H 0.45108 0.91683 0.06797 0.0
H903 H 0.46017 0.93859 0.03181 0.0
H904 H 0.45708 0.93274 0.11376 0.0
H905 H 0.52372 0.89453 0.08972 0.0
H906 H 0.53829 0.92964 0.0899 0.0
H907 H 0.51246 0.91001 0.06996 0.0
C908 C 0.52146 0.97486 0.056 0.0
C909 C 0.50157 0.96592 0.03933 0.0
C910 C 0.51624 0.96232 0.07668 0.0
C911 C 0.49108 0.94073 0.08091 0.0
C912 C 0.47067 0.9333 0.06498 0.0
H913 H 0.41281 0.81457 0.17484 0.0
H914 H 0.42488 0.84565 0.14425 0.0
C915 C 0.47588 0.94574 0.04435 0.0
C916 C 0.48638 0.92425 0.10088 0.0
H917 H 0.50219 0.88089 0.12414 0.0
C918 C 0.46706 0.92154 0.11615 0.0
C919 C 0.49932 0.90951 0.10384 0.0
C920 C 0.51947 0.9108 0.08744 0.0
C921 C 0.46031 0.90447 0.13433 0.0
C922 C 0.47287 0.88934 0.13701 0.0
C923 C 0.49255 0.89245 0.122 0.0
C924 C 0.4657 0.86996 0.15516 0.0
C925 C 0.43996 0.90293 0.1506 0.0
C926 C 0.48491 0.87268 0.17092 0.0
C927 C 0.47818 0.8548 0.18831 0.0
C928 C 0.45207 0.8337 0.19026 0.0
C929 C 0.43307 0.83058 0.17397 0.0
C930 C 0.43986 0.84849 0.15657 0.0
H931 H 0.43769 0.92057 0.14979 0.0
H932 H 0.42047 0.88549 0.14638 0.0
H933 H 0.44539 0.9009 0.16802 0.0
H934 H 0.50504 0.88896 0.17002 0.0
H935 H 0.49338 0.85789 0.20049 0.0
H936 H 0.58033 0.54264 0.22136 0.0
H937 H 0.59101 0.53244 0.25841 0.0
H938 H 0.55976 0.45177 0.23756 0.0
H939 H 0.54854 0.4617 0.20079 0.0
H940 H 0.54926 0.45779 0.28276 0.0
H941 H 0.65553 0.52155 0.26181 0.0
H942 H 0.63574 0.53712 0.26114 0.0
H943 H 0.62924 0.51145 0.24125 0.0
C944 C 0.57494 0.52256 0.22496 0.0
C945 C 0.56391 0.50302 0.20815 0.0
C946 C 0.58133 0.51683 0.24601 0.0
C947 C 0.57679 0.4915 0.25049 0.0
C948 C 0.56366 0.47149 0.23438 0.0
H949 H 0.62086 0.41062 0.34636 0.0
H950 H 0.60237 0.42361 0.31545 0.0
C951 C 0.55729 0.47719 0.21339 0.0
C952 C 0.58782 0.48621 0.27096 0.0
H953 H 0.64629 0.50018 0.29635 0.0
C954 C 0.57046 0.46717 0.28585 0.0
C955 C 0.61551 0.49836 0.27483 0.0
C956 C 0.63518 0.51811 0.25887 0.0
C957 C 0.58006 0.45996 0.30453 0.0
C958 C 0.60775 0.47176 0.30815 0.0
C959 C 0.62508 0.49116 0.29351 0.0
C960 C 0.61924 0.46395 0.32676 0.0
C961 C 0.56048 0.43989 0.32031 0.0
C962 C 0.63568 0.48256 0.34294 0.0
C963 C 0.64651 0.47529 0.36054 0.0
C964 C 0.64126 0.44925 0.36227 0.0
C965 C 0.62529 0.43082 0.34566 0.0
C966 C 0.61447 0.43813 0.32807 0.0
H967 H 0.54066 0.43819 0.31875 0.0
H968 H 0.55816 0.4204 0.31625 0.0
H969 H 0.56753 0.44496 0.33794 0.0
H970 H 0.63982 0.50266 0.34212 0.0
H971 H 0.65869 0.49006 0.37296 0.0
H972 H 0.41861 0.95629 0.42594 0.0
H973 H 0.40927 0.93271 0.39002 0.0
H974 H 0.4915 0.95412 0.38561 0.0
H975 H 0.50098 0.97837 0.42134 0.0
H976 H 0.46757 0.95309 0.34376 0.0
H977 H 0.4072 0.8622 0.39182 0.0
H978 H 0.39674 0.88609 0.39414 0.0
H979 H 0.42858 0.89353 0.40522 0.0
C980 C 0.43479 0.95663 0.41688 0.0
C981 C 0.46047 0.96907 0.42621 0.0
C982 C 0.42943 0.94301 0.39652 0.0
C983 C 0.44957 0.94116 0.38547 0.0
C984 C 0.47567 0.95523 0.39396 0.0
H985 H 0.42495 0.80877 0.30515 0.0
H986 H 0.43525 0.84263 0.33365 0.0
C987 C 0.4811 0.96914 0.41425 0.0
C988 C 0.44299 0.92254 0.36642 0.0
H989 H 0.40779 0.85737 0.35279 0.0
C990 C 0.45459 0.93211 0.34565 0.0
C991 C 0.42615 0.89521 0.36905 0.0
C992 C 0.41411 0.88355 0.39129 0.0
C993 C 0.45001 0.91507 0.32738 0.0
C994 C 0.43299 0.88761 0.32993 0.0
C995 C 0.42104 0.87826 0.35072 0.0
C996 C 0.42801 0.86786 0.31194 0.0
C997 C 0.46393 0.92703 0.30584 0.0
C998 C 0.42019 0.8703 0.29018 0.0
C999 C 0.41569 0.8515 0.27361 0.0
C1000 C 0.41839 0.82967 0.27861 0.0
C1001 C 0.42436 0.82625 0.30061 0.0
C1002 C 0.42973 0.84541 0.31698 0.0
H1003 H 0.45112 0.93189 0.29546 0.0
H1004 H 0.48293 0.94555 0.30903 0.0
H1005 H 0.46814 0.91353 0.29613 0.0
H1006 H 0.41736 0.8866 0.286 0.0
H1007 H 0.41 0.85396 0.2569 0.0
H1008 H 0.50901 0.42521 0.60197 0.0
H1009 H 0.52232 0.41696 0.56574 0.0
H1010 H 0.55647 0.4989 0.54974 0.0
H1011 H 0.5445 0.50759 0.58682 0.0
H1012 H 0.51509 0.4216 0.52287 0.0
H1013 H 0.62041 0.49047 0.54625 0.0
H1014 H 0.5939 0.48128 0.56572 0.0
H1015 H 0.60009 0.50536 0.54471 0.0
C1016 C 0.51921 0.44149 0.59068 0.0
C1017 C 0.52636 0.46718 0.59748 0.0
C1018 C 0.52664 0.4367 0.56987 0.0
C1019 C 0.54111 0.45742 0.55524 0.0
C1020 C 0.54603 0.48273 0.56105 0.0
H1021 H 0.58644 0.41775 0.42644 0.0
H1022 H 0.56427 0.43027 0.45458 0.0
C1023 C 0.53888 0.48763 0.58212 0.0
C1024 C 0.55289 0.45252 0.53511 0.0
H1025 H 0.61212 0.46797 0.51213 0.0
C1026 C 0.53633 0.43193 0.52033 0.0
C1027 C 0.58065 0.46563 0.53209 0.0
C1028 C 0.59986 0.48674 0.54811 0.0
C1029 C 0.54676 0.42364 0.50302 0.0
C1030 C 0.57454 0.43695 0.4999 0.0
C1031 C 0.59093 0.45795 0.51434 0.0
C1032 C 0.58737 0.42886 0.48259 0.0
C1033 C 0.52797 0.39985 0.48913 0.0
C1034 C 0.60829 0.42462 0.48874 0.0
C1035 C 0.62153 0.41843 0.47257 0.0
C1036 C 0.61408 0.41633 0.44998 0.0
C1037 C 0.59263 0.41959 0.44382 0.0
C1038 C 0.57978 0.42643 0.45992 0.0
H1039 H 0.50908 0.38743 0.49794 0.0
H1040 H 0.52309 0.40637 0.47333 0.0
H1041 H 0.53693 0.38759 0.48493 0.0
H1042 H 0.61452 0.42627 0.50609 0.0
H1043 H 0.63761 0.4153 0.4777 0.0
H1044 H 0.10574 0.59863 0.77083 0.0
H1045 H 0.12909 0.61016 0.73527 0.0
H1046 H 0.08588 0.52879 0.71426 0.0
H1047 H 0.06218 0.51729 0.74978 0.0
H1048 H 0.16118 0.58944 0.72559 0.0
H1049 H 0.08827 0.56687 0.65651 0.0
H1050 H 0.08157 0.57126 0.68518 0.0
H1051 H 0.07905 0.54086 0.67615 0.0
C1052 C 0.10049 0.5834 0.75821 0.0
C1053 C 0.08215 0.5571 0.76293 0.0
C1054 C 0.11392 0.58997 0.73799 0.0
C1055 C 0.10926 0.57036 0.7221 0.0
C1056 C 0.08949 0.54431 0.72609 0.0
H1057 H 0.19455 0.56487 0.60577 0.0
H1058 H 0.16431 0.5547 0.63695 0.0
C1059 C 0.0759 0.53775 0.74635 0.0
C1060 C 0.12767 0.57662 0.70317 0.0
H1061 H 0.13114 0.57516 0.64624 0.0
C1062 C 0.15464 0.58652 0.70822 0.0
C1063 C 0.11904 0.57247 0.68057 0.0
C1064 C 0.09044 0.56249 0.67418 0.0
C1065 C 0.1732 0.59215 0.69133 0.0
C1066 C 0.16465 0.58823 0.66871 0.0
C1067 C 0.13765 0.5782 0.66361 0.0
C1068 C 0.18348 0.59446 0.65011 0.0
C1069 C 0.20168 0.60165 0.6979 0.0
C1070 C 0.20437 0.62022 0.64719 0.0
C1071 C 0.22187 0.62612 0.62945 0.0
C1072 C 0.21868 0.6064 0.61414 0.0
C1073 C 0.19776 0.58057 0.61725 0.0
C1074 C 0.18032 0.5747 0.63501 0.0
H1075 H 0.20357 0.59687 0.71552 0.0
H1076 H 0.21049 0.59284 0.68686 0.0
H1077 H 0.21337 0.6233 0.69626 0.0
H1078 H 0.20691 0.63587 0.65843 0.0
H1079 H 0.23753 0.64627 0.62751 0.0
H1080 H 0.53442 0.10015 0.93596 0.0
H1081 H 0.54625 0.12372 0.9006 0.0
H1082 H 0.58561 0.08149 0.88027 0.0
H1083 H 0.57341 0.05759 0.9156 0.0
H1084 H 0.59947 0.15581 0.8918 0.0
H1085 H 0.54958 0.08433 0.82194 0.0
H1086 H 0.53828 0.07739 0.85043 0.0
H1087 H 0.56652 0.07504 0.84191 0.0
C1088 C 0.54468 0.09519 0.92353 0.0
C1089 C 0.55298 0.07706 0.9284 0.0
C1090 C 0.55155 0.10873 0.90341 0.0
C1091 C 0.56683 0.1044 0.8878 0.0
C1092 C 0.57344 0.08486 0.8919 0.0
H1093 H 0.65709 0.19088 0.77247 0.0
H1094 H 0.63764 0.16049 0.80342 0.0
C1095 C 0.56642 0.07116 0.91204 0.0
C1096 C 0.57896 0.12287 0.86906 0.0
H1097 H 0.58384 0.12704 0.81221 0.0
C1098 C 0.59588 0.14954 0.87438 0.0
C1099 C 0.57454 0.1146 0.84639 0.0
C1100 C 0.55607 0.08632 0.83973 0.0
C1101 C 0.60869 0.16816 0.85769 0.0
C1102 C 0.60409 0.15998 0.835 0.0
C1103 C 0.5873 0.13327 0.82963 0.0
C1104 C 0.61639 0.17892 0.8166 0.0
C1105 C 0.62751 0.19633 0.86455 0.0
C1106 C 0.61097 0.19944 0.81378 0.0
C1107 C 0.62219 0.217 0.7962 0.0
C1108 C 0.63892 0.21427 0.78092 0.0
C1109 C 0.64444 0.19374 0.78394 0.0
C1110 C 0.63322 0.17622 0.80155 0.0
H1111 H 0.63432 0.198 0.88222 0.0
H1112 H 0.64514 0.20531 0.85367 0.0
H1113 H 0.61721 0.20781 0.86294 0.0
H1114 H 0.59767 0.20162 0.82498 0.0
H1115 H 0.61725 0.23237 0.79433 0.0
H1116 H 0.54625 0.62037 0.1013 0.0
H1117 H 0.53379 0.62937 0.06489 0.0
H1118 H 0.50034 0.54785 0.04571 0.0
H1119 H 0.51158 0.53843 0.08291 0.0
H1120 H 0.5415 0.62549 0.02183 0.0
H1121 H 0.43614 0.55617 0.0419 0.0
H1122 H 0.46262 0.56518 0.06198 0.0
H1123 H 0.45663 0.54148 0.04018 0.0
C1124 C 0.53647 0.60437 0.08924 0.0
C1125 C 0.52923 0.57856 0.09513 0.0
C1126 C 0.52952 0.60959 0.06835 0.0
C1127 C 0.51542 0.58917 0.05278 0.0
C1128 C 0.51052 0.56378 0.05774 0.0
H1129 H 0.46961 0.63156 0.92537 0.0
H1130 H 0.49204 0.61854 0.95304 0.0
C1131 C 0.51723 0.55846 0.07887 0.0
C1132 C 0.50369 0.59438 0.03267 0.0
H1133 H 0.44444 0.57967 0.00892 0.0
C1134 C 0.52026 0.61525 0.01877 0.0
C1135 C 0.47593 0.58141 0.02902 0.0
C1136 C 0.45673 0.55998 0.04414 0.0
C1137 C 0.50981 0.62397 0.00176 0.0
C1138 C 0.48203 0.61084 0.99804 0.0
C1139 C 0.46564 0.58955 0.01157 0.0
C1140 C 0.46916 0.6194 0.98107 0.0
C1141 C 0.52861 0.64803 0.98888 0.0
C1142 C 0.4483 0.62353 0.98737 0.0
C1143 C 0.4349 0.62999 0.97144 0.0
C1144 C 0.44215 0.63251 0.94894 0.0
C1145 C 0.46358 0.6294 0.94267 0.0
C1146 C 0.47658 0.62228 0.95852 0.0
H1147 H 0.54756 0.66018 0.99822 0.0
H1148 H 0.53335 0.64183 0.97283 0.0
H1149 H 0.51971 0.66046 0.98517 0.0
H1150 H 0.4422 0.62153 0.00464 0.0
H1151 H 0.41884 0.63298 0.97667 0.0
H1152 H 0.95725 0.47374 0.25987 0.0
H1153 H 0.93564 0.46399 0.22287 0.0
H1154 H 0.96904 0.54682 0.21145 0.0
H1155 H 0.99115 0.55668 0.24835 0.0
H1156 H 0.90634 0.50663 0.21341 0.0
H1157 H 0.96491 0.48425 0.15317 0.0
H1158 H 0.96249 0.47302 0.18149 0.0
H1159 H 0.98025 0.50753 0.1761 0.0
C1160 C 0.9608 0.48983 0.24905 0.0
C1161 C 0.97591 0.51593 0.25676 0.0
C1162 C 0.94846 0.48428 0.22802 0.0
C1163 C 0.95085 0.50472 0.21454 0.0
C1164 C 0.96724 0.53086 0.2216 0.0
H1165 H 0.85962 0.46628 0.0882 0.0
H1166 H 0.89471 0.49079 0.11641 0.0
C1167 C 0.97993 0.53645 0.24255 0.0
C1168 C 0.93299 0.49844 0.19496 0.0
H1169 H 0.92148 0.47325 0.1419 0.0
C1170 C 0.90966 0.49947 0.19768 0.0
C1171 C 0.93766 0.48948 0.17451 0.0
C1172 C 0.96273 0.48855 0.17091 0.0
C1173 C 0.8901 0.49038 0.18079 0.0
C1174 C 0.89396 0.47981 0.16079 0.0
C1175 C 0.91817 0.48055 0.15751 0.0
C1176 C 0.87244 0.46612 0.14389 0.0
C1177 C 0.8654 0.49199 0.18465 0.0
C1178 C 0.84834 0.44419 0.15001 0.0
C1179 C 0.82848 0.43023 0.13397 0.0
C1180 C 0.83264 0.43762 0.11151 0.0
C1181 C 0.85632 0.46 0.10544 0.0
C1182 C 0.87627 0.47396 0.12148 0.0
H1183 H 0.86928 0.50812 0.19662 0.0
H1184 H 0.85745 0.49519 0.16877 0.0
H1185 H 0.84999 0.47332 0.19194 0.0
H1186 H 0.8451 0.43748 0.16711 0.0
H1187 H 0.81001 0.41344 0.13906 0.0
loop_
_geom_bond_atom_site_label_1
_geom_bond_atom_site_label_2
_geom_bond_distance
_geom_bond_site_symmetry_2
_ccdc_geom_bond_type
H0 C6 0.930 . S
H1 C9 0.931 . S
H2 C11 0.931 . S
H3 C13 0.930 . S
H4 C15 0.930 . S
H5 C17 0.931 . S
C6 H0 0.930 . S
C6 C7 1.380 . S
C6 C8 1.394 . S
C7 C6 1.380 . S
C7 C11 1.382 . S
C8 C6 1.394 . S
C8 C9 1.400 . S
C9 H1 0.931 . S
C9 C8 1.400 . S
C9 C10 1.375 . S
C10 C9 1.375 . S
C10 C11 1.415 . S
C10 C12 1.501 1_455 S
C11 H2 0.931 . S
C11 C7 1.382 . S
C11 C10 1.415 . S
C12 C10 1.501 1_655 S
C12 C13 1.384 . S
C12 C17 1.408 . S
C13 H3 0.930 . S
C13 C12 1.384 . S
C13 C14 1.389 . S
C14 C13 1.389 . S
C14 C15 1.405 . S
C15 H4 0.930 . S
C15 C14 1.405 . S
C15 C16 1.364 . S
C16 C15 1.364 . S
C16 C17 1.400 . S
C17 H5 0.931 . S
C17 C12 1.408 . S
C17 C16 1.400 . S
H18 C24 0.930 . S
H19 C27 0.931 . S
H20 C29 0.931 . S
H21 C31 0.930 . S
H22 C33 0.930 . S
H23 C35 0.931 1_545 S
C24 H18 0.930 . S
C24 C25 1.380 . S
C24 C26 1.394 . S
C25 C24 1.380 . S
C25 C29 1.382 . S
C26 C24 1.394 . S
C26 C27 1.400 . S
C27 H19 0.931 . S
C27 C26 1.400 . S
C27 C28 1.375 . S
C28 C27 1.375 . S
C28 C29 1.415 . S
C28 C30 1.501 1_545 S
C29 H20 0.931 . S
C29 C25 1.382 . S
C29 C28 1.415 . S
C30 C28 1.501 1_565 S
C30 C31 1.384 . S
C30 C35 1.408 . S
C31 H21 0.930 . S
C31 C30 1.384 . S
C31 C32 1.389 . S
C32 C31 1.389 . S
C32 C33 1.405 . S
C33 H22 0.930 . S
C33 C32 1.405 . S
C33 C34 1.364 . S
C34 C33 1.364 . S
C34 C35 1.400 . S
C35 H23 0.931 1_565 S
C35 C30 1.408 . S
C35 C34 1.400 . S
H36 C42 0.930 . S
H37 C45 0.931 . S
H38 C47 0.931 . S
H39 C49 0.930 . S
H40 C51 0.930 . S
H41 C53 0.931 . S
C42 H36 0.930 . S
C42 C43 1.380 . S
C42 C44 1.394 . S
C43 C42 1.380 . S
C43 C47 1.382 . S
C44 C42 1.394 . S
C44 C45 1.400 . S
C45 H37 0.931 . S
C45 C44 1.400 . S
C45 C46 1.375 . S
C46 C45 1.375 . S
C46 C47 1.415 . S
C46 C48 1.501 . S
C47 H38 0.931 . S
C47 C43 1.382 . S
C47 C46 1.415 . S
C48 C46 1.501 . S
C48 C49 1.384 . S
C48 C53 1.408 . S
C49 H39 0.930 . S
C49 C48 1.384 . S
C49 C50 1.389 . S
C50 C49 1.389 . S
C50 C51 1.405 . S
C51 H40 0.930 . S
C51 C50 1.405 . S
C51 C52 1.364 . S
C52 C51 1.364 . S
C52 C53 1.400 . S
C53 H41 0.931 . S
C53 C48 1.408 . S
C53 C52 1.400 . S
H54 C60 0.930 . S
H55 C63 0.931 . S
H56 C65 0.931 . S
H57 C67 0.930 . S
H58 C69 0.930 . S
H59 C71 0.927 1_455 S
C60 H54 0.930 . S
C60 C61 1.380 . S
C60 C62 1.394 . S
C61 C60 1.380 . S
C61 C65 1.382 . S
C62 C60 1.394 . S
C62 C63 1.400 . S
C63 H55 0.931 . S
C63 C62 1.400 . S
C63 C64 1.375 . S
C64 C63 1.375 . S
C64 C65 1.415 . S
C64 C66 1.501 1_455 S
C65 H56 0.931 . S
C65 C61 1.382 . S
C65 C64 1.415 . S
C66 C64 1.501 1_655 S
C66 C67 1.384 . S
C66 C71 1.408 . S
C67 H57 0.930 . S
C67 C66 1.384 . S
C67 C68 1.389 . S
C68 C67 1.389 . S
C68 C69 1.405 . S
C69 H58 0.930 . S
C69 C68 1.405 . S
C69 C70 1.364 . S
C70 C69 1.364 . S
C70 C71 1.400 . S
C71 H59 0.927 1_655 S
C71 C66 1.408 . S
C71 C70 1.400 . S
H72 C78 0.930 . S
H73 C81 0.931 . S
H74 C83 0.931 1_545 S
H75 C85 0.930 . S
H76 C87 0.930 . S
H77 C89 0.931 . S
C78 H72 0.930 . S
C78 C79 1.380 . S
C78 C80 1.394 1_554 S
C79 C78 1.380 . S
C79 C83 1.382 . S
C80 C78 1.394 1_556 S
C80 C81 1.400 . S
C81 H73 0.931 . S
C81 C80 1.400 . S
C81 C82 1.375 1_565 S
C82 C81 1.375 1_545 S
C82 C83 1.415 1_546 S
C82 C84 1.501 . S
C83 H74 0.931 1_565 S
C83 C79 1.382 . S
C83 C82 1.415 1_564 S
C84 C82 1.501 . S
C84 C85 1.384 1_556 S
C84 C89 1.408 . S
C85 H75 0.930 . S
C85 C84 1.384 1_554 S
C85 C86 1.389 1_554 S
C86 C85 1.389 1_556 S
C86 C87 1.405 . S
C87 H76 0.930 . S
C87 C86 1.405 . S
C87 C88 1.364 . S
C88 C87 1.364 . S
C88 C89 1.400 . S
C89 H77 0.931 . S
C89 C84 1.408 . S
C89 C88 1.400 . S
H90 C96 0.930 . S
H91 C99 0.931 . S
H92 C101 0.931 . S
H93 C103 0.930 . S
H94 C105 0.930 . S
H95 C107 0.931 . S
C96 H90 0.930 . S
C96 C97 1.380 . S
C96 C98 1.394 . S
C97 C96 1.380 . S
C97 C101 1.382 . S
C98 C96 1.394 . S
C98 C99 1.400 . S
C99 H91 0.931 . S
C99 C98 1.400 . S
C99 C100 1.375 . S
C100 C99 1.375 . S
C100 C101 1.415 . S
C100 C102 1.501 . S
C101 H92 0.931 . S
C101 C97 1.382 . S
C101 C100 1.415 . S
C102 C100 1.501 . S
C102 C103 1.384 . S
C102 C107 1.408 . S
C103 H93 0.930 . S
C103 C102 1.384 . S
C103 C104 1.389 . S
C104 C103 1.389 . S
C104 C105 1.405 . S
C105 H94 0.930 . S
C105 C104 1.405 . S
C105 C106 1.364 . S
C106 C105 1.364 . S
C106 C107 1.400 . S
C107 H95 0.931 . S
C107 C102 1.408 . S
C107 C106 1.400 . S
Mn108 O113 2.095 . S
Mn108 O123 2.162 . S
Mn108 O124 2.297 . S
Mn108 O132 2.385 . S
Mn108 O133 2.209 . S
Mn108 O134 2.094 . S
Mn109 O114 2.121 . S
Mn109 N116 2.257 . S
Mn109 N125 2.282 . S
Mn109 O133 2.215 . S
Mn109 O135 2.117 . S
C110 O132 1.234 . S
C110 O133 1.283 . S
C111 O123 1.281 . S
C111 O124 1.236 . S
C112 O134 1.240 . S
C112 O135 1.264 . S
O113 Mn108 2.095 . S
O113 C122 1.250 . S
O114 Mn109 2.121 . S
O114 C122 1.258 . S
C115 N116 1.326 . S
C115 C119 1.460 . S
C115 H121 0.929 . S
N116 Mn109 2.257 . S
N116 C115 1.326 . S
N116 C120 1.362 . S
C117 C118 1.258 . S
C117 C120 1.431 . S
C117 C137 1.449 . S
C118 C117 1.258 . S
C118 C119 1.477 . S
C118 H138 0.931 . S
C119 C115 1.460 . S
C119 C118 1.477 . S
C119 H139 0.930 . S
C120 N116 1.362 . S
C120 C117 1.431 . S
C120 C130 1.476 . S
H121 C115 0.929 . S
C122 O113 1.250 . S
C122 O114 1.258 . S
O123 Mn108 2.162 . S
O123 C111 1.281 . S
O124 Mn108 2.297 . S
O124 C111 1.236 . S
N125 Mn109 2.282 . S
N125 C126 1.328 . S
N125 C130 1.318 . S
C126 N125 1.328 . S
C126 C127 1.457 . S
C126 H131 0.929 . S
C127 C126 1.457 . S
C127 C128 1.291 . S
C127 H140 0.931 . S
C128 C127 1.291 . S
C128 C129 1.373 . S
C128 H141 0.929 . S
C129 C128 1.373 . S
C129 C130 1.396 . S
C129 C136 1.403 . S
C130 C120 1.476 . S
C130 N125 1.318 . S
C130 C129 1.396 . S
H131 C126 0.929 . S
O132 Mn108 2.385 . S
O132 C110 1.234 . S
O133 Mn108 2.209 . S
O133 Mn109 2.215 . S
O133 C110 1.283 . S
O134 Mn108 2.094 . S
O134 C112 1.240 . S
O135 Mn109 2.117 . S
O135 C112 1.264 . S
C136 C129 1.403 . S
C136 C137 1.399 . S
C136 H142 0.929 . S
C137 C117 1.449 . S
C137 C136 1.399 . S
C137 H143 0.930 . S
H138 C118 0.931 . S
H139 C119 0.930 . S
H140 C127 0.931 . S
H141 C128 0.929 . S
H142 C136 0.929 . S
H143 C137 0.930 . S
Mn144 O149 2.095 . S
Mn144 O159 2.162 . S
Mn144 O160 2.297 . S
Mn144 O168 2.385 . S
Mn144 O169 2.209 . S
Mn144 O170 2.094 . S
Mn145 O150 2.121 . S
Mn145 N152 2.257 . S
Mn145 N161 2.282 . S
Mn145 O169 2.215 . S
Mn145 O171 2.117 . S
C146 O168 1.234 . S
C146 O169 1.283 . S
C147 O159 1.281 . S
C147 O160 1.236 . S
C148 O170 1.240 . S
C148 O171 1.264 . S
O149 Mn144 2.095 . S
O149 C158 1.250 . S
O150 Mn145 2.121 . S
O150 C158 1.258 . S
C151 N152 1.326 . S
C151 C155 1.460 . S
C151 H157 0.929 . S
N152 Mn145 2.257 . S
N152 C151 1.326 . S
N152 C156 1.362 . S
C153 C154 1.258 . S
C153 C156 1.431 . S
C153 C173 1.449 . S
C154 C153 1.258 . S
C154 C155 1.477 . S
C154 H174 0.931 . S
C155 C151 1.460 . S
C155 C154 1.477 . S
C155 H175 0.930 . S
C156 N152 1.362 . S
C156 C153 1.431 . S
C156 C166 1.476 . S
H157 C151 0.929 . S
C158 O149 1.250 . S
C158 O150 1.258 . S
O159 Mn144 2.162 . S
O159 C147 1.281 . S
O160 Mn144 2.297 . S
O160 C147 1.236 . S
N161 Mn145 2.282 . S
N161 C162 1.328 . S
N161 C166 1.318 . S
C162 N161 1.328 . S
C162 C163 1.457 . S
C162 H167 0.929 . S
C163 C162 1.457 . S
C163 C164 1.291 . S
C163 H176 0.931 . S
C164 C163 1.291 . S
C164 C165 1.373 . S
C164 H177 0.929 . S
C165 C164 1.373 . S
C165 C166 1.396 . S
C165 C172 1.403 . S
C166 C156 1.476 . S
C166 N161 1.318 . S
C166 C165 1.396 . S
H167 C162 0.929 . S
O168 Mn144 2.385 . S
O168 C146 1.234 . S
O169 Mn144 2.209 . S
O169 Mn145 2.215 . S
O169 C146 1.283 . S
O170 Mn144 2.094 . S
O170 C148 1.240 . S
O171 Mn145 2.117 . S
O171 C148 1.264 . S
C172 C165 1.403 . S
C172 C173 1.399 . S
C172 H178 0.929 . S
C173 C153 1.449 . S
C173 C172 1.399 . S
C173 H179 0.930 . S
H174 C154 0.931 . S
H175 C155 0.930 . S
H176 C163 0.931 . S
H177 C164 0.929 . S
H178 C172 0.929 . S
H179 C173 0.930 . S
Mn180 O185 2.095 . S
Mn180 O195 2.162 . S
Mn180 O196 2.297 . S
Mn180 O204 2.385 . S
Mn180 O205 2.209 . S
Mn180 O206 2.094 . S
Mn181 O186 2.121 . S
Mn181 N188 2.257 . S
Mn181 N197 2.282 . S
Mn181 O205 2.215 . S
Mn181 O207 2.117 . S
C182 O204 1.234 . S
C182 O205 1.283 . S
C183 O195 1.281 . S
C183 O196 1.236 . S
C184 O206 1.240 . S
C184 O207 1.264 . S
O185 Mn180 2.095 . S
O185 C194 1.250 . S
O186 Mn181 2.121 . S
O186 C194 1.258 . S
C187 N188 1.326 . S
C187 C191 1.460 . S
C187 H193 0.929 . S
N188 Mn181 2.257 . S
N188 C187 1.326 . S
N188 C192 1.362 . S
C189 C190 1.258 . S
C189 C192 1.431 . S
C189 C209 1.449 . S
C190 C189 1.258 . S
C190 C191 1.477 . S
C190 H210 0.931 . S
C191 C187 1.460 . S
C191 C190 1.477 . S
C191 H211 0.930 . S
C192 N188 1.362 . S
C192 C189 1.431 . S
C192 C202 1.476 . S
H193 C187 0.929 . S
C194 O185 1.250 . S
C194 O186 1.258 . S
O195 Mn180 2.162 . S
O195 C183 1.281 . S
O196 Mn180 2.297 . S
O196 C183 1.236 . S
N197 Mn181 2.282 . S
N197 C198 1.328 . S
N197 C202 1.318 . S
C198 N197 1.328 . S
C198 C199 1.457 . S
C198 H203 0.929 . S
C199 C198 1.457 . S
C199 C200 1.291 . S
C199 H212 0.931 . S
C200 C199 1.291 . S
C200 C201 1.373 . S
C200 H213 0.929 . S
C201 C200 1.373 . S
C201 C202 1.396 . S
C201 C208 1.403 . S
C202 C192 1.476 . S
C202 N197 1.318 . S
C202 C201 1.396 . S
H203 C198 0.929 . S
O204 Mn180 2.385 . S
O204 C182 1.234 . S
O205 Mn180 2.209 . S
O205 Mn181 2.215 . S
O205 C182 1.283 . S
O206 Mn180 2.094 . S
O206 C184 1.240 . S
O207 Mn181 2.117 . S
O207 C184 1.264 . S
C208 C201 1.403 . S
C208 C209 1.399 . S
C208 H214 0.929 . S
C209 C189 1.449 . S
C209 C208 1.399 . S
C209 H215 0.930 . S
H210 C190 0.931 . S
H211 C191 0.930 . S
H212 C199 0.931 . S
H213 C200 0.929 . S
H214 C208 0.929 . S
H215 C209 0.930 . S
Mn216 O221 2.095 . S
Mn216 O231 2.162 . S
Mn216 O232 2.297 . S
Mn216 O240 2.385 . S
Mn216 O241 2.209 . S
Mn216 O242 2.094 . S
Mn217 O222 2.121 . S
Mn217 N224 2.257 . S
Mn217 N233 2.282 . S
Mn217 O241 2.215 . S
Mn217 O243 2.117 . S
C218 O240 1.234 . S
C218 O241 1.283 . S
C219 O231 1.281 . S
C219 O232 1.236 . S
C220 O242 1.240 . S
C220 O243 1.264 . S
O221 Mn216 2.095 . S
O221 C230 1.250 . S
O222 Mn217 2.121 . S
O222 C230 1.258 . S
C223 N224 1.326 . S
C223 C227 1.460 . S
C223 H229 0.929 . S
N224 Mn217 2.257 . S
N224 C223 1.326 . S
N224 C228 1.362 . S
C225 C226 1.258 . S
C225 C228 1.431 . S
C225 C245 1.449 . S
C226 C225 1.258 . S
C226 C227 1.477 . S
C226 H246 0.931 . S
C227 C223 1.460 . S
C227 C226 1.477 . S
C227 H247 0.930 . S
C228 N224 1.362 . S
C228 C225 1.431 . S
C228 C238 1.476 . S
H229 C223 0.929 . S
C230 O221 1.250 . S
C230 O222 1.258 . S
O231 Mn216 2.162 . S
O231 C219 1.281 . S
O232 Mn216 2.297 . S
O232 C219 1.236 . S
N233 Mn217 2.282 . S
N233 C234 1.328 . S
N233 C238 1.318 . S
C234 N233 1.328 . S
C234 C235 1.457 . S
C234 H239 0.929 . S
C235 C234 1.457 . S
C235 C236 1.291 . S
C235 H248 0.931 . S
C236 C235 1.291 . S
C236 C237 1.373 . S
C236 H249 0.929 . S
C237 C236 1.373 . S
C237 C238 1.396 . S
C237 C244 1.403 . S
C238 C228 1.476 . S
C238 N233 1.318 . S
C238 C237 1.396 . S
H239 C234 0.929 . S
O240 Mn216 2.385 . S
O240 C218 1.234 . S
O241 Mn216 2.209 . S
O241 Mn217 2.215 . S
O241 C218 1.283 . S
O242 Mn216 2.094 . S
O242 C220 1.240 . S
O243 Mn217 2.117 . S
O243 C220 1.264 . S
C244 C237 1.403 . S
C244 C245 1.399 . S
C244 H250 0.929 . S
C245 C225 1.449 . S
C245 C244 1.399 . S
C245 H251 0.930 . S
H246 C226 0.931 . S
H247 C227 0.930 . S
H248 C235 0.931 . S
H249 C236 0.929 . S
H250 C244 0.929 . S
H251 C245 0.930 . S
Mn252 O257 2.095 . S
Mn252 O267 2.162 . S
Mn252 O268 2.297 . S
Mn252 O276 2.385 . S
Mn252 O277 2.209 . S
Mn252 O278 2.094 . S
Mn253 O258 2.121 . S
Mn253 N260 2.257 . S
Mn253 N269 2.282 . S
Mn253 O277 2.215 . S
Mn253 O279 2.117 . S
C254 O276 1.234 . S
C254 O277 1.283 . S
C255 O267 1.281 . S
C255 O268 1.236 . S
C256 O278 1.240 . S
C256 O279 1.264 . S
O257 Mn252 2.095 . S
O257 C266 1.250 . S
O258 Mn253 2.121 . S
O258 C266 1.258 . S
C259 N260 1.326 . S
C259 C263 1.460 . S
C259 H265 0.929 . S
N260 Mn253 2.257 . S
N260 C259 1.326 . S
N260 C264 1.362 . S
C261 C262 1.258 . S
C261 C264 1.431 . S
C261 C281 1.449 . S
C262 C261 1.258 . S
C262 C263 1.477 . S
C262 H282 0.931 . S
C263 C259 1.460 . S
C263 C262 1.477 . S
C263 H283 0.930 . S
C264 N260 1.362 . S
C264 C261 1.431 . S
C264 C274 1.476 . S
H265 C259 0.929 . S
C266 O257 1.250 . S
C266 O258 1.258 . S
O267 Mn252 2.162 . S
O267 C255 1.281 . S
O268 Mn252 2.297 . S
O268 C255 1.236 . S
N269 Mn253 2.282 . S
N269 C270 1.328 . S
N269 C274 1.318 . S
C270 N269 1.328 . S
C270 C271 1.457 . S
C270 H275 0.929 . S
C271 C270 1.457 . S
C271 C272 1.291 . S
C271 H284 0.931 . S
C272 C271 1.291 . S
C272 C273 1.373 . S
C272 H285 0.929 . S
C273 C272 1.373 . S
C273 C274 1.396 . S
C273 C280 1.403 . S
C274 C264 1.476 . S
C274 N269 1.318 . S
C274 C273 1.396 . S
H275 C270 0.929 . S
O276 Mn252 2.385 . S
O276 C254 1.234 . S
O277 Mn252 2.209 . S
O277 Mn253 2.215 . S
O277 C254 1.283 . S
O278 Mn252 2.094 . S
O278 C256 1.240 . S
O279 Mn253 2.117 . S
O279 C256 1.264 . S
C280 C273 1.403 . S
C280 C281 1.399 . S
C280 H286 0.929 . S
C281 C261 1.449 . S
C281 C280 1.399 . S
C281 H287 0.930 . S
H282 C262 0.931 . S
H283 C263 0.930 . S
H284 C271 0.931 . S
H285 C272 0.929 . S
H286 C280 0.929 . S
H287 C281 0.930 . S
Mn288 O293 2.095 . S
Mn288 O303 2.162 . S
Mn288 O304 2.297 . S
Mn288 O312 2.385 . S
Mn288 O313 2.209 . S
Mn288 O314 2.094 . S
Mn289 O294 2.121 . S
Mn289 N296 2.257 . S
Mn289 N305 2.282 . S
Mn289 O313 2.215 . S
Mn289 O315 2.117 . S
C290 O312 1.234 . S
C290 O313 1.283 . S
C291 O303 1.281 . S
C291 O304 1.236 . S
C292 O314 1.240 . S
C292 O315 1.264 . S
O293 Mn288 2.095 . S
O293 C302 1.250 . S
O294 Mn289 2.121 . S
O294 C302 1.258 . S
C295 N296 1.326 . S
C295 C299 1.460 . S
C295 H301 0.929 . S
N296 Mn289 2.257 . S
N296 C295 1.326 . S
N296 C300 1.362 . S
C297 C298 1.258 . S
C297 C300 1.431 . S
C297 C317 1.449 . S
C298 C297 1.258 . S
C298 C299 1.477 . S
C298 H318 0.931 . S
C299 C295 1.460 . S
C299 C298 1.477 . S
C299 H319 0.930 . S
C300 N296 1.362 . S
C300 C297 1.431 . S
C300 C310 1.476 . S
H301 C295 0.929 . S
C302 O293 1.250 . S
C302 O294 1.258 . S
O303 Mn288 2.162 . S
O303 C291 1.281 . S
O304 Mn288 2.297 . S
O304 C291 1.236 . S
N305 Mn289 2.282 . S
N305 C306 1.328 . S
N305 C310 1.318 . S
C306 N305 1.328 . S
C306 C307 1.457 . S
C306 H311 0.929 . S
C307 C306 1.457 . S
C307 C308 1.291 . S
C307 H320 0.931 . S
C308 C307 1.291 . S
C308 C309 1.373 . S
C308 H321 0.929 . S
C309 C308 1.373 . S
C309 C310 1.396 . S
C309 C316 1.403 . S
C310 C300 1.476 . S
C310 N305 1.318 . S
C310 C309 1.396 . S
H311 C306 0.929 . S
O312 Mn288 2.385 . S
O312 C290 1.234 . S
O313 Mn288 2.209 . S
O313 Mn289 2.215 . S
O313 C290 1.283 . S
O314 Mn288 2.094 . S
O314 C292 1.240 . S
O315 Mn289 2.117 . S
O315 C292 1.264 . S
C316 C309 1.403 . S
C316 C317 1.399 . S
C316 H322 0.929 . S
C317 C297 1.449 . S
C317 C316 1.399 . S
C317 H323 0.930 . S
H318 C298 0.931 . S
H319 C299 0.930 . S
H320 C307 0.931 . S
H321 C308 0.929 . S
H322 C316 0.929 . S
H323 C317 0.930 . S
H324 C332 0.929 . S
H325 C334 0.930 . S
H326 C336 0.930 . S
H327 C339 0.929 . S
H328 C342 0.930 . S
H329 C344 0.960 . S
H330 C344 0.960 . S
H331 C344 0.960 . S
C332 H324 0.929 . S
C332 C333 1.377 . S
C332 C334 1.384 . S
C333 C332 1.377 . S
C333 C339 1.390 . S
C334 H325 0.930 . S
C334 C332 1.384 . S
C334 C335 1.372 . S
C335 C334 1.372 . S
C335 C336 1.400 . S
C335 C340 1.490 . S
C336 H326 0.930 . S
C336 C335 1.400 . S
C336 C339 1.386 . S
H337 C353 0.930 . S
H338 C354 0.931 . S
C339 H327 0.929 . S
C339 C333 1.390 . S
C339 C336 1.386 . S
C340 C335 1.490 . S
C340 C342 1.395 . S
C340 C343 1.403 . S
H341 C347 0.930 . S
C342 H328 0.930 . S
C342 C340 1.395 . S
C342 C345 1.403 . S
C343 C340 1.403 . S
C343 C344 1.524 . S
C343 C347 1.400 . S
C344 H329 0.960 . S
C344 H330 0.960 . S
C344 H331 0.960 . S
C344 C343 1.524 . S
C345 C342 1.403 . S
C345 C346 1.392 . S
C345 C349 1.495 . S
C346 C345 1.392 . S
C346 C347 1.385 . S
C346 C348 1.478 . S
C347 H341 0.930 . S
C347 C343 1.400 . S
C347 C346 1.385 . S
C348 C346 1.478 . S
C348 C350 1.381 . S
C348 C354 1.383 . S
C349 C345 1.495 . S
C349 H355 0.959 . S
C349 H356 0.961 . S
C349 H357 0.960 . S
C350 C348 1.381 . S
C350 C351 1.394 . S
C350 H358 0.930 . S
C351 C350 1.394 . S
C351 C352 1.383 . S
C351 H359 0.929 . S
C352 C351 1.383 . S
C352 C353 1.377 . S
C353 H337 0.930 . S
C353 C352 1.377 . S
C353 C354 1.379 . S
C354 H338 0.931 . S
C354 C348 1.383 . S
C354 C353 1.379 . S
H355 C349 0.959 . S
H356 C349 0.961 . S
H357 C349 0.960 . S
H358 C350 0.930 . S
H359 C351 0.929 . S
H360 C368 0.929 . S
H361 C370 0.930 . S
H362 C372 0.930 . S
H363 C375 0.929 . S
H364 C378 0.930 . S
H365 C380 0.960 . S
H366 C380 0.960 . S
H367 C380 0.960 . S
C368 H360 0.929 . S
C368 C369 1.377 . S
C368 C370 1.384 . S
C369 C368 1.377 . S
C369 C375 1.390 . S
C370 H361 0.930 . S
C370 C368 1.384 . S
C370 C371 1.372 . S
C371 C370 1.372 . S
C371 C372 1.400 . S
C371 C376 1.490 . S
C372 H362 0.930 . S
C372 C371 1.400 . S
C372 C375 1.386 . S
H373 C389 0.930 . S
H374 C390 0.931 . S
C375 H363 0.929 . S
C375 C369 1.390 . S
C375 C372 1.386 . S
C376 C371 1.490 . S
C376 C378 1.395 . S
C376 C379 1.403 . S
H377 C383 0.930 . S
C378 H364 0.930 . S
C378 C376 1.395 . S
C378 C381 1.403 . S
C379 C376 1.403 . S
C379 C380 1.524 . S
C379 C383 1.400 . S
C380 H365 0.960 . S
C380 H366 0.960 . S
C380 H367 0.960 . S
C380 C379 1.524 . S
C381 C378 1.403 . S
C381 C382 1.392 . S
C381 C385 1.495 . S
C382 C381 1.392 . S
C382 C383 1.385 . S
C382 C384 1.478 . S
C383 H377 0.930 . S
C383 C379 1.400 . S
C383 C382 1.385 . S
C384 C382 1.478 . S
C384 C386 1.381 . S
C384 C390 1.383 . S
C385 C381 1.495 . S
C385 H391 0.959 . S
C385 H392 0.961 . S
C385 H393 0.960 . S
C386 C384 1.381 . S
C386 C387 1.394 . S
C386 H394 0.930 . S
C387 C386 1.394 . S
C387 C388 1.383 . S
C387 H395 0.929 . S
C388 C387 1.383 . S
C388 C389 1.377 . S
C389 H373 0.930 . S
C389 C388 1.377 . S
C389 C390 1.379 . S
C390 H374 0.931 . S
C390 C384 1.383 . S
C390 C389 1.379 . S
H391 C385 0.959 . S
H392 C385 0.961 . S
H393 C385 0.960 . S
H394 C386 0.930 . S
H395 C387 0.929 . S
H396 C404 0.929 . S
H397 C406 0.930 . S
H398 C408 0.930 . S
H399 C411 0.929 . S
H400 C414 0.930 . S
H401 C416 0.960 . S
H402 C416 0.960 . S
H403 C416 0.960 . S
C404 H396 0.929 . S
C404 C405 1.377 . S
C404 C406 1.384 . S
C405 C404 1.377 . S
C405 C411 1.390 . S
C406 H397 0.930 . S
C406 C404 1.384 . S
C406 C407 1.372 . S
C407 C406 1.372 . S
C407 C408 1.400 . S
C407 C412 1.490 . S
C408 H398 0.930 . S
C408 C407 1.400 . S
C408 C411 1.386 . S
H409 C425 0.930 . S
H410 C426 0.931 . S
C411 H399 0.929 . S
C411 C405 1.390 . S
C411 C408 1.386 . S
C412 C407 1.490 . S
C412 C414 1.395 . S
C412 C415 1.403 . S
H413 C419 0.930 . S
C414 H400 0.930 . S
C414 C412 1.395 . S
C414 C417 1.403 . S
C415 C412 1.403 . S
C415 C416 1.524 . S
C415 C419 1.400 . S
C416 H401 0.960 . S
C416 H402 0.960 . S
C416 H403 0.960 . S
C416 C415 1.524 . S
C417 C414 1.403 . S
C417 C418 1.392 . S
C417 C421 1.495 . S
C418 C417 1.392 . S
C418 C419 1.385 . S
C418 C420 1.478 . S
C419 H413 0.930 . S
C419 C415 1.400 . S
C419 C418 1.385 . S
C420 C418 1.478 . S
C420 C422 1.381 . S
C420 C426 1.383 . S
C421 C417 1.495 . S
C421 H427 0.959 . S
C421 H428 0.961 . S
C421 H429 0.960 . S
C422 C420 1.381 . S
C422 C423 1.394 . S
C422 H430 0.930 . S
C423 C422 1.394 . S
C423 C424 1.383 . S
C423 H431 0.929 . S
C424 C423 1.383 . S
C424 C425 1.377 . S
C425 H409 0.930 . S
C425 C424 1.377 . S
C425 C426 1.379 . S
C426 H410 0.931 . S
C426 C420 1.383 . S
C426 C425 1.379 . S
H427 C421 0.959 . S
H428 C421 0.961 . S
H429 C421 0.960 . S
H430 C422 0.930 . S
H431 C423 0.929 . S
H432 C440 0.929 . S
H433 C442 0.930 . S
H434 C444 0.930 . S
H435 C447 0.929 . S
H436 C450 0.930 . S
H437 C452 0.960 . S
H438 C452 0.960 . S
H439 C452 0.960 . S
C440 H432 0.929 . S
C440 C441 1.377 . S
C440 C442 1.384 . S
C441 C440 1.377 . S
C441 C447 1.390 . S
C442 H433 0.930 . S
C442 C440 1.384 . S
C442 C443 1.372 . S
C443 C442 1.372 . S
C443 C444 1.400 . S
C443 C448 1.490 . S
C444 H434 0.930 . S
C444 C443 1.400 . S
C444 C447 1.386 . S
H445 C461 0.930 . S
H446 C462 0.931 . S
C447 H435 0.929 . S
C447 C441 1.390 . S
C447 C444 1.386 . S
C448 C443 1.490 . S
C448 C450 1.395 . S
C448 C451 1.403 . S
H449 C455 0.930 . S
C450 H436 0.930 . S
C450 C448 1.395 . S
C450 C453 1.403 . S
C451 C448 1.403 . S
C451 C452 1.524 . S
C451 C455 1.400 . S
C452 H437 0.960 . S
C452 H438 0.960 . S
C452 H439 0.960 . S
C452 C451 1.524 . S
C453 C450 1.403 . S
C453 C454 1.392 . S
C453 C457 1.495 . S
C454 C453 1.392 . S
C454 C455 1.385 . S
C454 C456 1.478 . S
C455 H449 0.930 . S
C455 C451 1.400 . S
C455 C454 1.385 . S
C456 C454 1.478 . S
C456 C458 1.381 . S
C456 C462 1.383 . S
C457 C453 1.495 . S
C457 H463 0.959 . S
C457 H464 0.961 . S
C457 H465 0.960 . S
C458 C456 1.381 . S
C458 C459 1.394 . S
C458 H466 0.930 . S
C459 C458 1.394 . S
C459 C460 1.383 . S
C459 H467 0.929 . S
C460 C459 1.383 . S
C460 C461 1.377 . S
C461 H445 0.930 . S
C461 C460 1.377 . S
C461 C462 1.379 . S
C462 H446 0.931 . S
C462 C456 1.383 . S
C462 C461 1.379 . S
H463 C457 0.959 . S
H464 C457 0.961 . S
H465 C457 0.960 . S
H466 C458 0.930 . S
H467 C459 0.929 . S
H468 C476 0.929 . S
H469 C478 0.930 . S
H470 C480 0.930 . S
H471 C483 0.929 . S
H472 C486 0.930 . S
H473 C488 0.960 . S
H474 C488 0.960 . S
H475 C488 0.960 . S
C476 H468 0.929 . S
C476 C477 1.377 . S
C476 C478 1.384 . S
C477 C476 1.377 . S
C477 C483 1.390 . S
C478 H469 0.930 . S
C478 C476 1.384 . S
C478 C479 1.372 . S
C479 C478 1.372 . S
C479 C480 1.400 . S
C479 C484 1.490 . S
C480 H470 0.930 . S
C480 C479 1.400 . S
C480 C483 1.386 . S
H481 C497 0.930 . S
H482 C498 0.931 . S
C483 H471 0.929 . S
C483 C477 1.390 . S
C483 C480 1.386 . S
C484 C479 1.490 . S
C484 C486 1.395 . S
C484 C487 1.403 . S
H485 C491 0.930 . S
C486 H472 0.930 . S
C486 C484 1.395 . S
C486 C489 1.403 . S
C487 C484 1.403 . S
C487 C488 1.524 . S
C487 C491 1.400 . S
C488 H473 0.960 . S
C488 H474 0.960 . S
C488 H475 0.960 . S
C488 C487 1.524 . S
C489 C486 1.403 . S
C489 C490 1.392 . S
C489 C493 1.495 . S
C490 C489 1.392 . S
C490 C491 1.385 . S
C490 C492 1.478 . S
C491 H485 0.930 . S
C491 C487 1.400 . S
C491 C490 1.385 . S
C492 C490 1.478 . S
C492 C494 1.381 . S
C492 C498 1.383 . S
C493 C489 1.495 . S
C493 H499 0.959 . S
C493 H500 0.961 . S
C493 H501 0.960 . S
C494 C492 1.381 . S
C494 C495 1.394 . S
C494 H502 0.930 . S
C495 C494 1.394 . S
C495 C496 1.383 . S
C495 H503 0.929 . S
C496 C495 1.383 . S
C496 C497 1.377 . S
C497 H481 0.930 . S
C497 C496 1.377 . S
C497 C498 1.379 . S
C498 H482 0.931 . S
C498 C492 1.383 . S
C498 C497 1.379 . S
H499 C493 0.959 . S
H500 C493 0.961 . S
H501 C493 0.960 . S
H502 C494 0.930 . S
H503 C495 0.929 . S
H504 C512 0.929 . S
H505 C514 0.930 . S
H506 C516 0.930 . S
H507 C519 0.929 . S
H508 C522 0.930 . S
H509 C524 0.960 . S
H510 C524 0.960 . S
H511 C524 0.960 . S
C512 H504 0.929 . S
C512 C513 1.377 . S
C512 C514 1.384 . S
C513 C512 1.377 . S
C513 C519 1.390 . S
C514 H505 0.930 . S
C514 C512 1.384 . S
C514 C515 1.372 . S
C515 C514 1.372 . S
C515 C516 1.400 . S
C515 C520 1.490 . S
C516 H506 0.930 . S
C516 C515 1.400 . S
C516 C519 1.386 . S
H517 C533 0.930 . S
H518 C534 0.931 . S
C519 H507 0.929 . S
C519 C513 1.390 . S
C519 C516 1.386 . S
C520 C515 1.490 . S
C520 C522 1.395 . S
C520 C523 1.403 . S
H521 C527 0.930 . S
C522 H508 0.930 . S
C522 C520 1.395 . S
C522 C525 1.403 . S
C523 C520 1.403 . S
C523 C524 1.524 . S
C523 C527 1.400 . S
C524 H509 0.960 . S
C524 H510 0.960 . S
C524 H511 0.960 . S
C524 C523 1.524 . S
C525 C522 1.403 . S
C525 C526 1.392 . S
C525 C529 1.495 . S
C526 C525 1.392 . S
C526 C527 1.385 . S
C526 C528 1.478 . S
C527 H521 0.930 . S
C527 C523 1.400 . S
C527 C526 1.385 . S
C528 C526 1.478 . S
C528 C530 1.381 . S
C528 C534 1.383 . S
C529 C525 1.495 . S
C529 H535 0.959 . S
C529 H536 0.961 . S
C529 H537 0.960 . S
C530 C528 1.381 . S
C530 C531 1.394 . S
C530 H538 0.930 . S
C531 C530 1.394 . S
C531 C532 1.383 . S
C531 H539 0.929 . S
C532 C531 1.383 . S
C532 C533 1.377 . S
C533 H517 0.930 . S
C533 C532 1.377 . S
C533 C534 1.379 . S
C534 H518 0.931 . S
C534 C528 1.383 . S
C534 C533 1.379 . S
H535 C529 0.959 . S
H536 C529 0.961 . S
H537 C529 0.960 . S
H538 C530 0.930 . S
H539 C531 0.929 . S
H540 C548 0.929 . S
H541 C550 0.930 . S
H542 C552 0.930 . S
H543 C555 0.929 . S
H544 C558 0.930 . S
H545 C560 0.960 . S
H546 C560 0.960 . S
H547 C560 0.960 . S
C548 H540 0.929 . S
C548 C549 1.377 . S
C548 C550 1.384 . S
C549 C548 1.377 . S
C549 C555 1.390 . S
C550 H541 0.930 . S
C550 C548 1.384 . S
C550 C551 1.372 . S
C551 C550 1.372 . S
C551 C552 1.400 . S
C551 C556 1.490 . S
C552 H542 0.930 . S
C552 C551 1.400 . S
C552 C555 1.386 . S
H553 C569 0.930 . S
H554 C570 0.931 . S
C555 H543 0.929 . S
C555 C549 1.390 . S
C555 C552 1.386 . S
C556 C551 1.490 . S
C556 C558 1.395 . S
C556 C559 1.403 . S
H557 C563 0.930 . S
C558 H544 0.930 . S
C558 C556 1.395 . S
C558 C561 1.403 . S
C559 C556 1.403 . S
C559 C560 1.524 . S
C559 C563 1.400 . S
C560 H545 0.960 . S
C560 H546 0.960 . S
C560 H547 0.960 . S
C560 C559 1.524 . S
C561 C558 1.403 . S
C561 C562 1.392 . S
C561 C565 1.495 . S
C562 C561 1.392 . S
C562 C563 1.385 . S
C562 C564 1.478 . S
C563 H557 0.930 . S
C563 C559 1.400 . S
C563 C562 1.385 . S
C564 C562 1.478 . S
C564 C566 1.381 . S
C564 C570 1.383 . S
C565 C561 1.495 . S
C565 H571 0.959 . S
C565 H572 0.961 . S
C565 H573 0.960 . S
C566 C564 1.381 . S
C566 C567 1.394 . S
C566 H574 0.930 . S
C567 C566 1.394 . S
C567 C568 1.383 . S
C567 H575 0.929 . S
C568 C567 1.383 . S
C568 C569 1.377 . S
C569 H553 0.930 . S
C569 C568 1.377 . S
C569 C570 1.379 . S
C570 H554 0.931 . S
C570 C564 1.383 . S
C570 C569 1.379 . S
H571 C565 0.959 . S
H572 C565 0.961 . S
H573 C565 0.960 . S
H574 C566 0.930 . S
H575 C567 0.929 . S
H576 C584 0.929 . S
H577 C586 0.930 . S
H578 C588 0.930 . S
H579 C591 0.929 . S
H580 C594 0.930 . S
H581 C596 0.960 . S
H582 C596 0.960 . S
H583 C596 0.960 . S
C584 H576 0.929 . S
C584 C585 1.377 . S
C584 C586 1.384 . S
C585 C584 1.377 . S
C585 C591 1.390 . S
C586 H577 0.930 . S
C586 C584 1.384 . S
C586 C587 1.372 . S
C587 C586 1.372 . S
C587 C588 1.400 . S
C587 C592 1.490 . S
C588 H578 0.930 . S
C588 C587 1.400 . S
C588 C591 1.386 . S
H589 C605 0.930 . S
H590 C606 0.931 . S
C591 H579 0.929 . S
C591 C585 1.390 . S
C591 C588 1.386 . S
C592 C587 1.490 . S
C592 C594 1.395 . S
C592 C595 1.403 . S
H593 C599 0.930 . S
C594 H580 0.930 . S
C594 C592 1.395 . S
C594 C597 1.403 . S
C595 C592 1.403 . S
C595 C596 1.524 . S
C595 C599 1.400 . S
C596 H581 0.960 . S
C596 H582 0.960 . S
C596 H583 0.960 . S
C596 C595 1.524 . S
C597 C594 1.403 . S
C597 C598 1.392 . S
C597 C601 1.495 . S
C598 C597 1.392 . S
C598 C599 1.385 . S
C598 C600 1.478 . S
C599 H593 0.930 . S
C599 C595 1.400 . S
C599 C598 1.385 . S
C600 C598 1.478 . S
C600 C602 1.381 . S
C600 C606 1.383 . S
C601 C597 1.495 . S
C601 H607 0.959 . S
C601 H608 0.961 . S
C601 H609 0.960 . S
C602 C600 1.381 . S
C602 C603 1.394 . S
C602 H610 0.930 . S
C603 C602 1.394 . S
C603 C604 1.383 . S
C603 H611 0.929 . S
C604 C603 1.383 . S
C604 C605 1.377 . S
C605 H589 0.930 . S
C605 C604 1.377 . S
C605 C606 1.379 . S
C606 H590 0.931 . S
C606 C600 1.383 . S
C606 C605 1.379 . S
H607 C601 0.959 . S
H608 C601 0.961 . S
H609 C601 0.960 . S
H610 C602 0.930 . S
H611 C603 0.929 . S
H612 C620 0.929 . S
H613 C622 0.930 . S
H614 C624 0.930 . S
H615 C627 0.929 . S
H616 C630 0.930 . S
H617 C632 0.960 . S
H618 C632 0.960 . S
H619 C632 0.960 . S
C620 H612 0.929 . S
C620 C621 1.377 . S
C620 C622 1.384 . S
C621 C620 1.377 . S
C621 C627 1.390 . S
C622 H613 0.930 . S
C622 C620 1.384 . S
C622 C623 1.372 . S
C623 C622 1.372 . S
C623 C624 1.400 . S
C623 C628 1.490 . S
C624 H614 0.930 . S
C624 C623 1.400 . S
C624 C627 1.386 . S
H625 C641 0.930 . S
H626 C642 0.931 . S
C627 H615 0.929 . S
C627 C621 1.390 . S
C627 C624 1.386 . S
C628 C623 1.490 . S
C628 C630 1.395 . S
C628 C631 1.403 . S
H629 C635 0.930 . S
C630 H616 0.930 . S
C630 C628 1.395 . S
C630 C633 1.403 . S
C631 C628 1.403 . S
C631 C632 1.524 . S
C631 C635 1.400 . S
C632 H617 0.960 . S
C632 H618 0.960 . S
C632 H619 0.960 . S
C632 C631 1.524 . S
C633 C630 1.403 . S
C633 C634 1.392 . S
C633 C637 1.495 . S
C634 C633 1.392 . S
C634 C635 1.385 . S
C634 C636 1.478 . S
C635 H629 0.930 . S
C635 C631 1.400 . S
C635 C634 1.385 . S
C636 C634 1.478 . S
C636 C638 1.381 . S
C636 C642 1.383 . S
C637 C633 1.495 . S
C637 H643 0.959 . S
C637 H644 0.961 . S
C637 H645 0.960 . S
C638 C636 1.381 . S
C638 C639 1.394 . S
C638 H646 0.930 . S
C639 C638 1.394 . S
C639 C640 1.383 . S
C639 H647 0.929 . S
C640 C639 1.383 . S
C640 C641 1.377 . S
C641 H625 0.930 . S
C641 C640 1.377 . S
C641 C642 1.379 . S
C642 H626 0.931 . S
C642 C636 1.383 . S
C642 C641 1.379 . S
H643 C637 0.959 . S
H644 C637 0.961 . S
H645 C637 0.960 . S
H646 C638 0.930 . S
H647 C639 0.929 . S
H648 C656 0.929 . S
H649 C658 0.930 1_556 S
H650 C660 0.930 . S
H651 C663 0.929 . S
H652 C666 0.930 . S
H653 C668 0.960 . S
H654 C668 0.988 . S
H655 C668 0.960 . S
C656 H648 0.929 . S
C656 C657 1.377 1_556 S
C656 C658 1.384 1_556 S
C657 C656 1.377 1_554 S
C657 C663 1.390 . S
C658 H649 0.930 1_554 S
C658 C656 1.384 1_554 S
C658 C659 1.372 . S
C659 C658 1.372 . S
C659 C660 1.400 . S
C659 C664 1.490 . S
C660 H650 0.930 . S
C660 C659 1.400 . S
C660 C663 1.386 . S
H661 C677 0.930 . S
H662 C678 0.931 . S
C663 H651 0.929 . S
C663 C657 1.390 . S
C663 C660 1.386 . S
C664 C659 1.490 . S
C664 C666 1.395 . S
C664 C667 1.403 . S
H665 C671 0.930 . S
C666 H652 0.930 . S
C666 C664 1.395 . S
C666 C669 1.403 . S
C667 C664 1.403 . S
C667 C668 1.524 . S
C667 C671 1.400 . S
C668 H653 0.960 . S
C668 H654 0.988 . S
C668 H655 0.960 . S
C668 C667 1.524 . S
C669 C666 1.403 . S
C669 C670 1.392 . S
C669 C673 1.495 . S
C670 C669 1.392 . S
C670 C671 1.385 . S
C670 C672 1.478 . S
C671 H665 0.930 . S
C671 C667 1.400 . S
C671 C670 1.385 . S
C672 C670 1.478 . S
C672 C674 1.381 . S
C672 C678 1.383 . S
C673 C669 1.495 . S
C673 H679 0.959 . S
C673 H680 0.961 . S
C673 H681 0.960 . S
C674 C672 1.381 . S
C674 C675 1.394 . S
C674 H682 0.930 . S
C675 C674 1.394 . S
C675 C676 1.383 . S
C675 H683 0.929 . S
C676 C675 1.383 . S
C676 C677 1.377 . S
C677 H661 0.930 . S
C677 C676 1.377 . S
C677 C678 1.379 . S
C678 H662 0.931 . S
C678 C672 1.383 . S
C678 C677 1.379 . S
H679 C673 0.959 . S
H680 C673 0.961 . S
H681 C673 0.960 . S
H682 C674 0.930 . S
H683 C675 0.929 . S
H684 C692 0.929 . S
H685 C694 0.930 . S
H686 C696 0.930 . S
H687 C699 0.929 . S
H688 C702 0.930 . S
H689 C704 0.960 . S
H690 C704 0.960 . S
H691 C704 0.960 . S
C692 H684 0.929 . S
C692 C693 1.377 . S
C692 C694 1.384 . S
C693 C692 1.377 . S
C693 C699 1.390 . S
C694 H685 0.930 . S
C694 C692 1.384 . S
C694 C695 1.372 . S
C695 C694 1.372 . S
C695 C696 1.400 . S
C695 C700 1.490 . S
C696 H686 0.930 . S
C696 C695 1.400 . S
C696 C699 1.386 . S
H697 C713 0.930 . S
H698 C714 0.931 . S
C699 H687 0.929 . S
C699 C693 1.390 . S
C699 C696 1.386 . S
C700 C695 1.490 . S
C700 C702 1.395 . S
C700 C703 1.403 . S
H701 C707 0.930 . S
C702 H688 0.930 . S
C702 C700 1.395 . S
C702 C705 1.403 . S
C703 C700 1.403 . S
C703 C704 1.524 . S
C703 C707 1.400 . S
C704 H689 0.960 . S
C704 H690 0.960 . S
C704 H691 0.960 . S
C704 C703 1.524 . S
C705 C702 1.403 . S
C705 C706 1.392 . S
C705 C709 1.495 . S
C706 C705 1.392 . S
C706 C707 1.385 . S
C706 C708 1.478 . S
C707 H701 0.930 . S
C707 C703 1.400 . S
C707 C706 1.385 . S
C708 C706 1.478 . S
C708 C710 1.381 . S
C708 C714 1.383 . S
C709 C705 1.495 . S
C709 H715 0.959 . S
C709 H716 0.961 . S
C709 H717 0.960 . S
C710 C708 1.381 . S
C710 C711 1.394 . S
C710 H718 0.930 . S
C711 C710 1.394 . S
C711 C712 1.383 . S
C711 H719 0.929 . S
C712 C711 1.383 . S
C712 C713 1.377 . S
C713 H697 0.930 . S
C713 C712 1.377 . S
C713 C714 1.379 . S
C714 H698 0.931 . S
C714 C708 1.383 . S
C714 C713 1.379 . S
H715 C709 0.959 . S
H716 C709 0.961 . S
H717 C709 0.960 . S
H718 C710 0.930 . S
H719 C711 0.929 . S
H720 C728 0.929 . S
H721 C730 0.930 . S
H722 C732 0.930 . S
H723 C735 0.929 . S
H724 C738 0.930 . S
H725 C740 0.960 . S
H726 C740 0.960 . S
H727 C740 0.960 . S
C728 H720 0.929 . S
C728 C729 1.377 . S
C728 C730 1.384 . S
C729 C728 1.377 . S
C729 C735 1.390 . S
C730 H721 0.930 . S
C730 C728 1.384 . S
C730 C731 1.372 . S
C731 C730 1.372 . S
C731 C732 1.400 . S
C731 C736 1.490 . S
C732 H722 0.930 . S
C732 C731 1.400 . S
C732 C735 1.386 . S
H733 C749 0.930 . S
H734 C750 0.931 . S
C735 H723 0.929 . S
C735 C729 1.390 . S
C735 C732 1.386 . S
C736 C731 1.490 . S
C736 C738 1.395 . S
C736 C739 1.403 . S
H737 C743 0.930 . S
C738 H724 0.930 . S
C738 C736 1.395 . S
C738 C741 1.403 . S
C739 C736 1.403 . S
C739 C740 1.524 . S
C739 C743 1.400 . S
C740 H725 0.960 . S
C740 H726 0.960 . S
C740 H727 0.960 . S
C740 C739 1.524 . S
C741 C738 1.403 . S
C741 C742 1.392 . S
C741 C745 1.495 . S
C742 C741 1.392 . S
C742 C743 1.385 . S
C742 C744 1.478 . S
C743 H737 0.930 . S
C743 C739 1.400 . S
C743 C742 1.385 . S
C744 C742 1.478 . S
C744 C746 1.381 . S
C744 C750 1.383 . S
C745 C741 1.495 . S
C745 H751 0.959 . S
C745 H752 0.961 . S
C745 H753 0.960 . S
C746 C744 1.381 . S
C746 C747 1.394 . S
C746 H754 0.930 . S
C747 C746 1.394 . S
C747 C748 1.383 . S
C747 H755 0.929 . S
C748 C747 1.383 . S
C748 C749 1.377 . S
C749 H733 0.930 . S
C749 C748 1.377 . S
C749 C750 1.379 . S
C750 H734 0.931 . S
C750 C744 1.383 . S
C750 C749 1.379 . S
H751 C745 0.959 . S
H752 C745 0.961 . S
H753 C745 0.960 . S
H754 C746 0.930 . S
H755 C747 0.929 . S
H756 C764 0.929 . S
H757 C766 0.930 . S
H758 C768 0.930 . S
H759 C771 0.929 . S
H760 C774 0.930 . S
H761 C776 0.960 . S
H762 C776 0.960 . S
H763 C776 0.960 . S
C764 H756 0.929 . S
C764 C765 1.377 . S
C764 C766 1.384 . S
C765 C764 1.377 . S
C765 C771 1.390 . S
C766 H757 0.930 . S
C766 C764 1.384 . S
C766 C767 1.372 . S
C767 C766 1.372 . S
C767 C768 1.400 . S
C767 C772 1.490 . S
C768 H758 0.930 . S
C768 C767 1.400 . S
C768 C771 1.386 . S
H769 C785 0.930 . S
H770 C786 0.931 . S
C771 H759 0.929 . S
C771 C765 1.390 . S
C771 C768 1.386 . S
C772 C767 1.490 . S
C772 C774 1.395 . S
C772 C775 1.403 . S
H773 C779 0.930 . S
C774 H760 0.930 . S
C774 C772 1.395 . S
C774 C777 1.403 . S
C775 C772 1.403 . S
C775 C776 1.524 . S
C775 C779 1.400 . S
C776 H761 0.960 . S
C776 H762 0.960 . S
C776 H763 0.960 . S
C776 C775 1.524 . S
C777 C774 1.403 . S
C777 C778 1.392 . S
C777 C781 1.495 . S
C778 C777 1.392 . S
C778 C779 1.385 . S
C778 C780 1.478 . S
C779 H773 0.930 . S
C779 C775 1.400 . S
C779 C778 1.385 . S
C780 C778 1.478 . S
C780 C782 1.381 . S
C780 C786 1.383 . S
C781 C777 1.495 . S
C781 H787 0.959 . S
C781 H788 0.961 . S
C781 H789 0.960 . S
C782 C780 1.381 . S
C782 C783 1.394 . S
C782 H790 0.930 . S
C783 C782 1.394 . S
C783 C784 1.383 . S
C783 H791 0.929 . S
C784 C783 1.383 . S
C784 C785 1.377 . S
C785 H769 0.930 . S
C785 C784 1.377 . S
C785 C786 1.379 . S
C786 H770 0.931 . S
C786 C780 1.383 . S
C786 C785 1.379 . S
H787 C781 0.959 . S
H788 C781 0.961 . S
H789 C781 0.960 . S
H790 C782 0.930 . S
H791 C783 0.929 . S
H792 C800 0.929 . S
H793 C802 0.930 . S
H794 C804 0.930 . S
H795 C807 0.929 . S
H796 C810 0.930 . S
H797 C812 0.960 . S
H798 C812 0.960 . S
H799 C812 0.960 . S
C800 H792 0.929 . S
C800 C801 1.377 . S
C800 C802 1.384 . S
C801 C800 1.377 . S
C801 C807 1.390 . S
C802 H793 0.930 . S
C802 C800 1.384 . S
C802 C803 1.372 . S
C803 C802 1.372 . S
C803 C804 1.400 . S
C803 C808 1.490 . S
C804 H794 0.930 . S
C804 C803 1.400 . S
C804 C807 1.386 . S
H805 C821 0.930 . S
H806 C822 0.931 . S
C807 H795 0.929 . S
C807 C801 1.390 . S
C807 C804 1.386 . S
C808 C803 1.490 . S
C808 C810 1.395 . S
C808 C811 1.403 . S
H809 C815 0.930 . S
C810 H796 0.930 . S
C810 C808 1.395 . S
C810 C813 1.403 . S
C811 C808 1.403 . S
C811 C812 1.524 . S
C811 C815 1.400 . S
C812 H797 0.960 . S
C812 H798 0.960 . S
C812 H799 0.960 . S
C812 C811 1.524 . S
C813 C810 1.403 . S
C813 C814 1.392 . S
C813 C817 1.495 . S
C814 C813 1.392 . S
C814 C815 1.385 . S
C814 C816 1.478 . S
C815 H809 0.930 . S
C815 C811 1.400 . S
C815 C814 1.385 . S
C816 C814 1.478 . S
C816 C818 1.381 . S
C816 C822 1.383 . S
C817 C813 1.495 . S
C817 H823 0.959 . S
C817 H824 0.961 . S
C817 H825 0.960 . S
C818 C816 1.381 . S
C818 C819 1.394 . S
C818 H826 0.930 . S
C819 C818 1.394 . S
C819 C820 1.383 . S
C819 H827 0.929 . S
C820 C819 1.383 . S
C820 C821 1.377 . S
C821 H805 0.930 . S
C821 C820 1.377 . S
C821 C822 1.379 . S
C822 H806 0.931 . S
C822 C816 1.383 . S
C822 C821 1.379 . S
H823 C817 0.959 . S
H824 C817 0.961 . S
H825 C817 0.960 . S
H826 C818 0.930 . S
H827 C819 0.929 . S
H828 C836 0.929 . S
H829 C838 0.930 . S
H830 C840 0.930 . S
H831 C843 0.929 . S
H832 C846 0.930 . S
H833 C848 0.960 . S
H834 C848 0.960 . S
H835 C848 0.960 . S
C836 H828 0.929 . S
C836 C837 1.377 . S
C836 C838 1.384 . S
C837 C836 1.377 . S
C837 C843 1.390 . S
C838 H829 0.930 . S
C838 C836 1.384 . S
C838 C839 1.372 . S
C839 C838 1.372 . S
C839 C840 1.400 . S
C839 C844 1.490 . S
C840 H830 0.930 . S
C840 C839 1.400 . S
C840 C843 1.386 . S
H841 C857 0.930 . S
H842 C858 0.931 . S
C843 H831 0.929 . S
C843 C837 1.390 . S
C843 C840 1.386 . S
C844 C839 1.490 . S
C844 C846 1.395 . S
C844 C847 1.403 . S
H845 C851 0.930 . S
C846 H832 0.930 . S
C846 C844 1.395 . S
C846 C849 1.403 . S
C847 C844 1.403 . S
C847 C848 1.524 . S
C847 C851 1.400 . S
C848 H833 0.960 . S
C848 H834 0.960 . S
C848 H835 0.960 . S
C848 C847 1.524 . S
C849 C846 1.403 . S
C849 C850 1.392 . S
C849 C853 1.495 . S
C850 C849 1.392 . S
C850 C851 1.385 . S
C850 C852 1.478 . S
C851 H845 0.930 . S
C851 C847 1.400 . S
C851 C850 1.385 . S
C852 C850 1.478 . S
C852 C854 1.381 . S
C852 C858 1.383 . S
C853 C849 1.495 . S
C853 H859 0.959 . S
C853 H860 0.961 . S
C853 H861 0.960 . S
C854 C852 1.381 . S
C854 C855 1.394 . S
C854 H862 0.930 . S
C855 C854 1.394 . S
C855 C856 1.383 . S
C855 H863 0.929 . S
C856 C855 1.383 . S
C856 C857 1.377 . S
C857 H841 0.930 . S
C857 C856 1.377 . S
C857 C858 1.379 . S
C858 H842 0.931 . S
C858 C852 1.383 . S
C858 C857 1.379 . S
H859 C853 0.959 . S
H860 C853 0.961 . S
H861 C853 0.960 . S
H862 C854 0.930 . S
H863 C855 0.929 . S
H864 C872 0.929 . S
H865 C874 0.930 . S
H866 C876 0.930 . S
H867 C879 0.929 . S
H868 C882 0.930 . S
H869 C884 0.960 . S
H870 C884 0.960 . S
H871 C884 0.960 . S
C872 H864 0.929 . S
C872 C873 1.377 . S
C872 C874 1.384 . S
C873 C872 1.377 . S
C873 C879 1.390 . S
C874 H865 0.930 . S
C874 C872 1.384 . S
C874 C875 1.372 . S
C875 C874 1.372 . S
C875 C876 1.400 . S
C875 C880 1.490 . S
C876 H866 0.930 . S
C876 C875 1.400 . S
C876 C879 1.386 . S
H877 C893 0.930 . S
H878 C894 0.931 . S
C879 H867 0.929 . S
C879 C873 1.390 . S
C879 C876 1.386 . S
C880 C875 1.490 . S
C880 C882 1.395 . S
C880 C883 1.403 . S
H881 C887 0.930 . S
C882 H868 0.930 . S
C882 C880 1.395 . S
C882 C885 1.403 . S
C883 C880 1.403 . S
C883 C884 1.524 . S
C883 C887 1.400 . S
C884 H869 0.960 . S
C884 H870 0.960 . S
C884 H871 0.960 . S
C884 C883 1.524 . S
C885 C882 1.403 . S
C885 C886 1.392 . S
C885 C889 1.495 . S
C886 C885 1.392 . S
C886 C887 1.385 . S
C886 C888 1.478 . S
C887 H881 0.930 . S
C887 C883 1.400 . S
C887 C886 1.385 . S
C888 C886 1.478 . S
C888 C890 1.381 . S
C888 C894 1.383 . S
C889 C885 1.495 . S
C889 H895 0.959 . S
C889 H896 0.961 1_556 S
C889 H897 0.960 . S
C890 C888 1.381 . S
C890 C891 1.394 1_556 S
C890 H898 0.930 . S
C891 C890 1.394 1_554 S
C891 C892 1.383 . S
C891 H899 0.929 . S
C892 C891 1.383 . S
C892 C893 1.377 . S
C893 H877 0.930 . S
C893 C892 1.377 . S
C893 C894 1.379 1_554 S
C894 H878 0.931 . S
C894 C888 1.383 . S
C894 C893 1.379 1_556 S
H895 C889 0.959 . S
H896 C889 0.961 1_554 S
H897 C889 0.960 . S
H898 C890 0.930 . S
H899 C891 0.929 . S
H900 C908 0.929 . S
H901 C910 0.930 . S
H902 C912 0.930 . S
H903 C915 0.929 . S
H904 C918 0.930 . S
H905 C920 0.960 . S
H906 C920 0.960 . S
H907 C920 0.960 . S
C908 H900 0.929 . S
C908 C909 1.377 . S
C908 C910 1.384 . S
C909 C908 1.377 . S
C909 C915 1.390 . S
C910 H901 0.930 . S
C910 C908 1.384 . S
C910 C911 1.372 . S
C911 C910 1.372 . S
C911 C912 1.400 . S
C911 C916 1.490 . S
C912 H902 0.930 . S
C912 C911 1.400 . S
C912 C915 1.386 . S
H913 C929 0.930 . S
H914 C930 0.931 . S
C915 H903 0.929 . S
C915 C909 1.390 . S
C915 C912 1.386 . S
C916 C911 1.490 . S
C916 C918 1.395 . S
C916 C919 1.403 . S
H917 C923 0.930 . S
C918 H904 0.930 . S
C918 C916 1.395 . S
C918 C921 1.403 . S
C919 C916 1.403 . S
C919 C920 1.524 . S
C919 C923 1.400 . S
C920 H905 0.960 . S
C920 H906 0.960 . S
C920 H907 0.960 . S
C920 C919 1.524 . S
C921 C918 1.403 . S
C921 C922 1.392 . S
C921 C925 1.495 . S
C922 C921 1.392 . S
C922 C923 1.385 . S
C922 C924 1.478 . S
C923 H917 0.930 . S
C923 C919 1.400 . S
C923 C922 1.385 . S
C924 C922 1.478 . S
C924 C926 1.381 . S
C924 C930 1.383 . S
C925 C921 1.495 . S
C925 H931 0.959 . S
C925 H932 0.961 . S
C925 H933 0.960 . S
C926 C924 1.381 . S
C926 C927 1.394 . S
C926 H934 0.930 . S
C927 C926 1.394 . S
C927 C928 1.383 . S
C927 H935 0.929 . S
C928 C927 1.383 . S
C928 C929 1.377 . S
C929 H913 0.930 . S
C929 C928 1.377 . S
C929 C930 1.379 . S
C930 H914 0.931 . S
C930 C924 1.383 . S
C930 C929 1.379 . S
H931 C925 0.959 . S
H932 C925 0.961 . S
H933 C925 0.960 . S
H934 C926 0.930 . S
H935 C927 0.929 . S
H936 C944 0.929 . S
H937 C946 0.930 . S
H938 C948 0.930 . S
H939 C951 0.929 . S
H940 C954 0.930 . S
H941 C956 0.960 . S
H942 C956 0.960 . S
H943 C956 0.960 . S
C944 H936 0.929 . S
C944 C945 1.377 . S
C944 C946 1.384 . S
C945 C944 1.377 . S
C945 C951 1.390 . S
C946 H937 0.930 . S
C946 C944 1.384 . S
C946 C947 1.372 . S
C947 C946 1.372 . S
C947 C948 1.400 . S
C947 C952 1.490 . S
C948 H938 0.930 . S
C948 C947 1.400 . S
C948 C951 1.386 . S
H949 C965 0.930 . S
H950 C966 0.931 . S
C951 H939 0.929 . S
C951 C945 1.390 . S
C951 C948 1.386 . S
C952 C947 1.490 . S
C952 C954 1.395 . S
C952 C955 1.403 . S
H953 C959 0.930 . S
C954 H940 0.930 . S
C954 C952 1.395 . S
C954 C957 1.403 . S
C955 C952 1.403 . S
C955 C956 1.524 . S
C955 C959 1.400 . S
C956 H941 0.960 . S
C956 H942 0.960 . S
C956 H943 0.960 . S
C956 C955 1.524 . S
C957 C954 1.403 . S
C957 C958 1.392 . S
C957 C961 1.495 . S
C958 C957 1.392 . S
C958 C959 1.385 . S
C958 C960 1.478 . S
C959 H953 0.930 . S
C959 C955 1.400 . S
C959 C958 1.385 . S
C960 C958 1.478 . S
C960 C962 1.381 . S
C960 C966 1.383 . S
C961 C957 1.495 . S
C961 H967 0.959 . S
C961 H968 0.961 . S
C961 H969 0.960 . S
C962 C960 1.381 . S
C962 C963 1.394 . S
C962 H970 0.930 . S
C963 C962 1.394 . S
C963 C964 1.383 . S
C963 H971 0.929 . S
C964 C963 1.383 . S
C964 C965 1.377 . S
C965 H949 0.930 . S
C965 C964 1.377 . S
C965 C966 1.379 . S
C966 H950 0.931 . S
C966 C960 1.383 . S
C966 C965 1.379 . S
H967 C961 0.959 . S
H968 C961 0.961 . S
H969 C961 0.960 . S
H970 C962 0.930 . S
H971 C963 0.929 . S
H972 C980 0.929 . S
H973 C982 0.930 . S
H974 C984 0.930 . S
H975 C987 0.929 . S
H976 C990 0.930 . S
H977 C992 0.960 . S
H978 C992 0.960 . S
H979 C992 0.960 . S
C980 H972 0.929 . S
C980 C981 1.377 . S
C980 C982 1.384 . S
C981 C980 1.377 . S
C981 C987 1.390 . S
C982 H973 0.930 . S
C982 C980 1.384 . S
C982 C983 1.372 . S
C983 C982 1.372 . S
C983 C984 1.400 . S
C983 C988 1.490 . S
C984 H974 0.930 . S
C984 C983 1.400 . S
C984 C987 1.386 . S
H985 C1001 0.930 . S
H986 C1002 0.931 . S
C987 H975 0.929 . S
C987 C981 1.390 . S
C987 C984 1.386 . S
C988 C983 1.490 . S
C988 C990 1.395 . S
C988 C991 1.403 . S
H989 C995 0.930 . S
C990 H976 0.930 . S
C990 C988 1.395 . S
C990 C993 1.403 . S
C991 C988 1.403 . S
C991 C992 1.524 . S
C991 C995 1.400 . S
C992 H977 0.960 . S
C992 H978 0.960 . S
C992 H979 0.960 . S
C992 C991 1.524 . S
C993 C990 1.403 . S
C993 C994 1.392 . S
C993 C997 1.495 . S
C994 C993 1.392 . S
C994 C995 1.385 . S
C994 C996 1.478 . S
C995 H989 0.930 . S
C995 C991 1.400 . S
C995 C994 1.385 . S
C996 C994 1.478 . S
C996 C998 1.381 . S
C996 C1002 1.383 . S
C997 C993 1.495 . S
C997 H1003 0.959 . S
C997 H1004 0.961 . S
C997 H1005 0.960 . S
C998 C996 1.381 . S
C998 C999 1.394 . S
C998 H1006 0.930 . S
C999 C998 1.394 . S
C999 C1000 1.383 . S
C999 H1007 0.929 . S
C1000 C999 1.383 . S
C1000 C1001 1.377 . S
C1001 H985 0.930 . S
C1001 C1000 1.377 . S
C1001 C1002 1.379 . S
C1002 H986 0.931 . S
C1002 C996 1.383 . S
C1002 C1001 1.379 . S
H1003 C997 0.959 . S
H1004 C997 0.961 . S
H1005 C997 0.960 . S
H1006 C998 0.930 . S
H1007 C999 0.929 . S
H1008 C1016 0.929 . S
H1009 C1018 0.930 . S
H1010 C1020 0.930 . S
H1011 C1023 0.929 . S
H1012 C1026 0.930 . S
H1013 C1028 0.960 . S
H1014 C1028 0.960 . S
H1015 C1028 0.960 . S
C1016 H1008 0.929 . S
C1016 C1017 1.377 . S
C1016 C1018 1.384 . S
C1017 C1016 1.377 . S
C1017 C1023 1.390 . S
C1018 H1009 0.930 . S
C1018 C1016 1.384 . S
C1018 C1019 1.372 . S
C1019 C1018 1.372 . S
C1019 C1020 1.400 . S
C1019 C1024 1.490 . S
C1020 H1010 0.930 . S
C1020 C1019 1.400 . S
C1020 C1023 1.386 . S
H1021 C1037 0.930 . S
H1022 C1038 0.931 . S
C1023 H1011 0.929 . S
C1023 C1017 1.390 . S
C1023 C1020 1.386 . S
C1024 C1019 1.490 . S
C1024 C1026 1.395 . S
C1024 C1027 1.403 . S
H1025 C1031 0.930 . S
C1026 H1012 0.930 . S
C1026 C1024 1.395 . S
C1026 C1029 1.403 . S
C1027 C1024 1.403 . S
C1027 C1028 1.524 . S
C1027 C1031 1.400 . S
C1028 H1013 0.960 . S
C1028 H1014 0.960 . S
C1028 H1015 0.960 . S
C1028 C1027 1.524 . S
C1029 C1026 1.403 . S
C1029 C1030 1.392 . S
C1029 C1033 1.495 . S
C1030 C1029 1.392 . S
C1030 C1031 1.385 . S
C1030 C1032 1.478 . S
C1031 H1025 0.930 . S
C1031 C1027 1.400 . S
C1031 C1030 1.385 . S
C1032 C1030 1.478 . S
C1032 C1034 1.381 . S
C1032 C1038 1.383 . S
C1033 C1029 1.495 . S
C1033 H1039 0.959 . S
C1033 H1040 0.961 . S
C1033 H1041 0.960 . S
C1034 C1032 1.381 . S
C1034 C1035 1.394 . S
C1034 H1042 0.930 . S
C1035 C1034 1.394 . S
C1035 C1036 1.383 . S
C1035 H1043 0.929 . S
C1036 C1035 1.383 . S
C1036 C1037 1.377 . S
C1037 H1021 0.930 . S
C1037 C1036 1.377 . S
C1037 C1038 1.379 . S
C1038 H1022 0.931 . S
C1038 C1032 1.383 . S
C1038 C1037 1.379 . S
H1039 C1033 0.959 . S
H1040 C1033 0.961 . S
H1041 C1033 0.960 . S
H1042 C1034 0.930 . S
H1043 C1035 0.929 . S
H1044 C1052 0.929 . S
H1045 C1054 0.930 . S
H1046 C1056 0.930 . S
H1047 C1059 0.929 . S
H1048 C1062 0.930 . S
H1049 C1064 0.960 . S
H1050 C1064 0.960 . S
H1051 C1064 0.960 . S
C1052 H1044 0.929 . S
C1052 C1053 1.377 . S
C1052 C1054 1.384 . S
C1053 C1052 1.377 . S
C1053 C1059 1.390 . S
C1054 H1045 0.930 . S
C1054 C1052 1.384 . S
C1054 C1055 1.372 . S
C1055 C1054 1.372 . S
C1055 C1056 1.400 . S
C1055 C1060 1.490 . S
C1056 H1046 0.930 . S
C1056 C1055 1.400 . S
C1056 C1059 1.386 . S
H1057 C1073 0.930 . S
H1058 C1074 0.931 . S
C1059 H1047 0.929 . S
C1059 C1053 1.390 . S
C1059 C1056 1.386 . S
C1060 C1055 1.490 . S
C1060 C1062 1.395 . S
C1060 C1063 1.403 . S
H1061 C1067 0.930 . S
C1062 H1048 0.930 . S
C1062 C1060 1.395 . S
C1062 C1065 1.403 . S
C1063 C1060 1.403 . S
C1063 C1064 1.524 . S
C1063 C1067 1.400 . S
C1064 H1049 0.960 . S
C1064 H1050 0.960 . S
C1064 H1051 0.960 . S
C1064 C1063 1.524 . S
C1065 C1062 1.403 . S
C1065 C1066 1.392 . S
C1065 C1069 1.495 . S
C1066 C1065 1.392 . S
C1066 C1067 1.385 . S
C1066 C1068 1.478 . S
C1067 H1061 0.930 . S
C1067 C1063 1.400 . S
C1067 C1066 1.385 . S
C1068 C1066 1.478 . S
C1068 C1070 1.381 . S
C1068 C1074 1.383 . S
C1069 C1065 1.495 . S
C1069 H1075 0.959 . S
C1069 H1076 0.961 . S
C1069 H1077 0.960 . S
C1070 C1068 1.381 . S
C1070 C1071 1.394 . S
C1070 H1078 0.930 . S
C1071 C1070 1.394 . S
C1071 C1072 1.383 . S
C1071 H1079 0.929 . S
C1072 C1071 1.383 . S
C1072 C1073 1.377 . S
C1073 H1057 0.930 . S
C1073 C1072 1.377 . S
C1073 C1074 1.379 . S
C1074 H1058 0.931 . S
C1074 C1068 1.383 . S
C1074 C1073 1.379 . S
H1075 C1069 0.959 . S
H1076 C1069 0.961 . S
H1077 C1069 0.960 . S
H1078 C1070 0.930 . S
H1079 C1071 0.929 . S
H1080 C1088 0.929 . S
H1081 C1090 0.930 . S
H1082 C1092 0.930 . S
H1083 C1095 0.929 . S
H1084 C1098 0.930 . S
H1085 C1100 0.960 . S
H1086 C1100 0.960 . S
H1087 C1100 0.960 . S
C1088 H1080 0.929 . S
C1088 C1089 1.377 . S
C1088 C1090 1.384 . S
C1089 C1088 1.377 . S
C1089 C1095 1.390 . S
C1090 H1081 0.930 . S
C1090 C1088 1.384 . S
C1090 C1091 1.372 . S
C1091 C1090 1.372 . S
C1091 C1092 1.400 . S
C1091 C1096 1.490 . S
C1092 H1082 0.930 . S
C1092 C1091 1.400 . S
C1092 C1095 1.386 . S
H1093 C1109 0.930 . S
H1094 C1110 0.931 . S
C1095 H1083 0.929 . S
C1095 C1089 1.390 . S
C1095 C1092 1.386 . S
C1096 C1091 1.490 . S
C1096 C1098 1.395 . S
C1096 C1099 1.403 . S
H1097 C1103 0.930 . S
C1098 H1084 0.930 . S
C1098 C1096 1.395 . S
C1098 C1101 1.403 . S
C1099 C1096 1.403 . S
C1099 C1100 1.524 . S
C1099 C1103 1.400 . S
C1100 H1085 0.960 . S
C1100 H1086 0.960 . S
C1100 H1087 0.960 . S
C1100 C1099 1.524 . S
C1101 C1098 1.403 . S
C1101 C1102 1.392 . S
C1101 C1105 1.495 . S
C1102 C1101 1.392 . S
C1102 C1103 1.385 . S
C1102 C1104 1.478 . S
C1103 H1097 0.930 . S
C1103 C1099 1.400 . S
C1103 C1102 1.385 . S
C1104 C1102 1.478 . S
C1104 C1106 1.381 . S
C1104 C1110 1.383 . S
C1105 C1101 1.495 . S
C1105 H1111 0.959 . S
C1105 H1112 0.961 . S
C1105 H1113 0.960 . S
C1106 C1104 1.381 . S
C1106 C1107 1.394 . S
C1106 H1114 0.930 . S
C1107 C1106 1.394 . S
C1107 C1108 1.383 . S
C1107 H1115 0.929 . S
C1108 C1107 1.383 . S
C1108 C1109 1.377 . S
C1109 H1093 0.930 . S
C1109 C1108 1.377 . S
C1109 C1110 1.379 . S
C1110 H1094 0.931 . S
C1110 C1104 1.383 . S
C1110 C1109 1.379 . S
H1111 C1105 0.959 . S
H1112 C1105 0.961 . S
H1113 C1105 0.960 . S
H1114 C1106 0.930 . S
H1115 C1107 0.929 . S
H1116 C1124 0.929 . S
H1117 C1126 0.930 . S
H1118 C1128 0.930 . S
H1119 C1131 0.929 . S
H1120 C1134 0.930 . S
H1121 C1136 0.960 . S
H1122 C1136 0.960 . S
H1123 C1136 0.960 . S
C1124 H1116 0.929 . S
C1124 C1125 1.377 . S
C1124 C1126 1.384 . S
C1125 C1124 1.377 . S
C1125 C1131 1.390 . S
C1126 H1117 0.930 . S
C1126 C1124 1.384 . S
C1126 C1127 1.372 . S
C1127 C1126 1.372 . S
C1127 C1128 1.400 . S
C1127 C1132 1.490 . S
C1128 H1118 0.930 . S
C1128 C1127 1.400 . S
C1128 C1131 1.386 . S
H1129 C1145 0.930 . S
H1130 C1146 0.931 . S
C1131 H1119 0.929 . S
C1131 C1125 1.390 . S
C1131 C1128 1.386 . S
C1132 C1127 1.490 . S
C1132 C1134 1.395 . S
C1132 C1135 1.403 . S
H1133 C1139 0.930 . S
C1134 H1120 0.930 . S
C1134 C1132 1.395 . S
C1134 C1137 1.403 . S
C1135 C1132 1.403 . S
C1135 C1136 1.524 . S
C1135 C1139 1.400 . S
C1136 H1121 0.960 . S
C1136 H1122 0.960 . S
C1136 H1123 0.960 . S
C1136 C1135 1.524 . S
C1137 C1134 1.403 . S
C1137 C1138 1.392 . S
C1137 C1141 1.495 . S
C1138 C1137 1.392 . S
C1138 C1139 1.385 . S
C1138 C1140 1.478 1_554 S
C1139 H1133 0.930 . S
C1139 C1135 1.400 . S
C1139 C1138 1.385 . S
C1140 C1138 1.478 1_556 S
C1140 C1142 1.381 . S
C1140 C1146 1.383 . S
C1141 C1137 1.495 . S
C1141 H1147 0.959 . S
C1141 H1148 0.961 . S
C1141 H1149 0.960 . S
C1142 C1140 1.381 . S
C1142 C1143 1.394 . S
C1142 H1150 0.930 1_556 S
C1143 C1142 1.394 . S
C1143 C1144 1.383 . S
C1143 H1151 0.929 . S
C1144 C1143 1.383 . S
C1144 C1145 1.377 . S
C1145 H1129 0.930 . S
C1145 C1144 1.377 . S
C1145 C1146 1.379 . S
C1146 H1130 0.931 . S
C1146 C1140 1.383 . S
C1146 C1145 1.379 . S
H1147 C1141 0.959 . S
H1148 C1141 0.961 . S
H1149 C1141 0.960 . S
H1150 C1142 0.930 1_554 S
H1151 C1143 0.929 . S
H1152 C1160 0.929 . S
H1153 C1162 0.930 . S
H1154 C1164 0.930 . S
H1155 C1167 0.929 . S
H1156 C1170 0.930 . S
H1157 C1172 0.960 . S
H1158 C1172 0.960 . S
H1159 C1172 0.960 . S
C1160 H1152 0.929 . S
C1160 C1161 1.377 . S
C1160 C1162 1.384 . S
C1161 C1160 1.377 . S
C1161 C1167 1.390 . S
C1162 H1153 0.930 . S
C1162 C1160 1.384 . S
C1162 C1163 1.372 . S
C1163 C1162 1.372 . S
C1163 C1164 1.400 . S
C1163 C1168 1.490 . S
C1164 H1154 0.930 . S
C1164 C1163 1.400 . S
C1164 C1167 1.386 . S
H1165 C1181 0.930 . S
H1166 C1182 0.931 . S
C1167 H1155 0.929 . S
C1167 C1161 1.390 . S
C1167 C1164 1.386 . S
C1168 C1163 1.490 . S
C1168 C1170 1.395 . S
C1168 C1171 1.403 . S
H1169 C1175 0.930 . S
C1170 H1156 0.930 . S
C1170 C1168 1.395 . S
C1170 C1173 1.403 . S
C1171 C1168 1.403 . S
C1171 C1172 1.524 . S
C1171 C1175 1.400 . S
C1172 H1157 0.960 . S
C1172 H1158 0.960 . S
C1172 H1159 0.960 . S
C1172 C1171 1.524 . S
C1173 C1170 1.403 . S
C1173 C1174 1.392 . S
C1173 C1177 1.495 . S
C1174 C1173 1.392 . S
C1174 C1175 1.385 . S
C1174 C1176 1.478 . S
C1175 H1169 0.930 . S
C1175 C1171 1.400 . S
C1175 C1174 1.385 . S
C1176 C1174 1.478 . S
C1176 C1178 1.381 . S
C1176 C1182 1.383 . S
C1177 C1173 1.495 . S
C1177 H1183 0.959 . S
C1177 H1184 0.961 . S
C1177 H1185 0.960 . S
C1178 C1176 1.381 . S
C1178 C1179 1.394 . S
C1178 H1186 0.930 . S
C1179 C1178 1.394 . S
C1179 C1180 1.383 . S
C1179 H1187 0.929 . S
C1180 C1179 1.383 . S
C1180 C1181 1.377 . S
C1181 H1165 0.930 . S
C1181 C1180 1.377 . S
C1181 C1182 1.379 . S
C1182 H1166 0.931 . S
C1182 C1176 1.383 . S
C1182 C1181 1.379 . S
H1183 C1177 0.959 . S
H1184 C1177 0.961 . S
H1185 C1177 0.960 . S
H1186 C1178 0.930 . S
H1187 C1179 0.929 . S
C352 C291 1.588 . S
C333 C8 1.548 . S
C369 C26 1.584 . S
C388 C111 1.629 . S
C405 C50 1.551 . S
C424 C158 1.570 . S
C441 C68 1.500 . S
C460 C194 1.521 . S
C496 C219 1.576 . S
C477 C80 1.533 . S
C513 C104 1.536 . S
C532 C255 1.588 . S
C549 C32 1.570 . S
C568 C147 1.625 . S
C585 C44 1.535 . S
C604 C183 1.574 . S
C621 C62 1.494 . S
C640 C230 1.482 . S
C676 C266 1.551 . S
C657 C86 1.518 1_554 S
C712 C302 1.549 . S
C693 C98 1.529 . S
C748 C122 1.550 . S
C729 C14 1.546 . S
C765 C7 1.459 . S
C784 C146 1.489 . S
C801 C25 1.474 . S
C820 C182 1.503 . S
C856 C220 1.516 . S
C837 C52 1.473 . S
C873 C70 1.469 . S
C892 C256 1.505 . S
C928 C292 1.483 . S
C909 C79 1.442 . S
C964 C112 1.467 . S
C945 C106 1.428 . S
C1000 C290 1.496 . S
C981 C34 1.459 . S
C1017 C43 1.454 . S
C1036 C110 1.484 . S
C1072 C148 1.503 . S
C1053 C61 1.459 . S
C1089 C88 1.473 . S
C1108 C184 1.517 . S
C1125 C97 1.500 . S
C1144 C218 1.530 . S
C1161 C16 1.489 . S
C1180 C254 1.520 . S
