# Generated by pormake.
# Topology eea, (3,6)-cn, num edge types: 1
# Building blocks:
#     Node 0, Type 0, BuildingBlock: VETTIZ_charged_linker_0, # of connection points: 3
#     Node 1, Type 0, BuildingBlock: VETTIZ_charged_linker_0, # of connection points: 3
#     Node 2, Type 0, BuildingBlock: VETTIZ_charged_linker_0, # of connection points: 3
#     Node 3, Type 0, BuildingBlock: VETTIZ_charged_linker_0, # of connection points: 3
#     Node 4, Type 0, BuildingBlock: VETTIZ_charged_linker_0, # of connection points: 3
#     Node 5, Type 0, BuildingBlock: VETTIZ_charged_linker_0, # of connection points: 3
#     Node 6, Type 0, BuildingBlock: VETTIZ_charged_linker_0, # of connection points: 3
#     Node 7, Type 0, BuildingBlock: VETTIZ_charged_linker_0, # of connection points: 3
#     Node 8, Type 0, BuildingBlock: VETTIZ_charged_linker_0, # of connection points: 3
#     Node 9, Type 0, BuildingBlock: VETTIZ_charged_linker_0, # of connection points: 3
#     Node 10, Type 0, BuildingBlock: VETTIZ_charged_linker_0, # of connection points: 3
#     Node 11, Type 0, BuildingBlock: VETTIZ_charged_linker_0, # of connection points: 3
#     Node 12, Type 0, BuildingBlock: VETTIZ_charged_linker_0, # of connection points: 3
#     Node 13, Type 0, BuildingBlock: VETTIZ_charged_linker_0, # of connection points: 3
#     Node 14, Type 0, BuildingBlock: VETTIZ_charged_linker_0, # of connection points: 3
#     Node 15, Type 0, BuildingBlock: VETTIZ_charged_linker_0, # of connection points: 3
#     Node 16, Type 0, BuildingBlock: VETTIZ_charged_linker_0, # of connection points: 3
#     Node 17, Type 0, BuildingBlock: VETTIZ_charged_linker_0, # of connection points: 3
#     Node 18, Type 1, BuildingBlock: CUKXOW_clean_sbu_0, # of connection points: 6
#     Node 19, Type 1, BuildingBlock: CUKXOW_clean_sbu_0, # of connection points: 6
#     Node 20, Type 1, BuildingBlock: CUKXOW_clean_sbu_0, # of connection points: 6
#     Node 21, Type 1, BuildingBlock: CUKXOW_clean_sbu_0, # of connection points: 6
#     Node 22, Type 1, BuildingBlock: CUKXOW_clean_sbu_0, # of connection points: 6
#     Node 23, Type 1, BuildingBlock: CUKXOW_clean_sbu_0, # of connection points: 6
#     Node 24, Type 1, BuildingBlock: CUKXOW_clean_sbu_0, # of connection points: 6
#     Node 25, Type 1, BuildingBlock: CUKXOW_clean_sbu_0, # of connection points: 6
#     Node 26, Type 1, BuildingBlock: CUKXOW_clean_sbu_0, # of connection points: 6
#     Edge 27, Type (0, 1), BuildingBlock: ZUJKAS_clean_linker_0, # of connection points: 2
#     Edge 28, Type (0, 1), BuildingBlock: ZUJKAS_clean_linker_0, # of connection points: 2
#     Edge 29, Type (0, 1), BuildingBlock: ZUJKAS_clean_linker_0, # of connection points: 2
#     Edge 30, Type (0, 1), BuildingBlock: ZUJKAS_clean_linker_0, # of connection points: 2
#     Edge 31, Type (0, 1), BuildingBlock: ZUJKAS_clean_linker_0, # of connection points: 2
#     Edge 32, Type (0, 1), BuildingBlock: ZUJKAS_clean_linker_0, # of connection points: 2
#     Edge 33, Type (0, 1), BuildingBlock: ZUJKAS_clean_linker_0, # of connection points: 2
#     Edge 34, Type (0, 1), BuildingBlock: ZUJKAS_clean_linker_0, # of connection points: 2
#     Edge 35, Type (0, 1), BuildingBlock: ZUJKAS_clean_linker_0, # of connection points: 2
#     Edge 36, Type (0, 1), BuildingBlock: ZUJKAS_clean_linker_0, # of connection points: 2
#     Edge 37, Type (0, 1), BuildingBlock: ZUJKAS_clean_linker_0, # of connection points: 2
#     Edge 38, Type (0, 1), BuildingBlock: ZUJKAS_clean_linker_0, # of connection points: 2
#     Edge 39, Type (0, 1), BuildingBlock: ZUJKAS_clean_linker_0, # of connection points: 2
#     Edge 40, Type (0, 1), BuildingBlock: ZUJKAS_clean_linker_0, # of connection points: 2
#     Edge 41, Type (0, 1), BuildingBlock: ZUJKAS_clean_linker_0, # of connection points: 2
#     Edge 42, Type (0, 1), BuildingBlock: ZUJKAS_clean_linker_0, # of connection points: 2
#     Edge 43, Type (0, 1), BuildingBlock: ZUJKAS_clean_linker_0, # of connection points: 2
#     Edge 44, Type (0, 1), BuildingBlock: ZUJKAS_clean_linker_0, # of connection points: 2
#     Edge 45, Type (0, 1), BuildingBlock: ZUJKAS_clean_linker_0, # of connection points: 2
#     Edge 46, Type (0, 1), BuildingBlock: ZUJKAS_clean_linker_0, # of connection points: 2
#     Edge 47, Type (0, 1), BuildingBlock: ZUJKAS_clean_linker_0, # of connection points: 2
#     Edge 48, Type (0, 1), BuildingBlock: ZUJKAS_clean_linker_0, # of connection points: 2
#     Edge 49, Type (0, 1), BuildingBlock: ZUJKAS_clean_linker_0, # of connection points: 2
#     Edge 50, Type (0, 1), BuildingBlock: ZUJKAS_clean_linker_0, # of connection points: 2
#     Edge 51, Type (0, 1), BuildingBlock: ZUJKAS_clean_linker_0, # of connection points: 2
#     Edge 52, Type (0, 1), BuildingBlock: ZUJKAS_clean_linker_0, # of connection points: 2
#     Edge 53, Type (0, 1), BuildingBlock: ZUJKAS_clean_linker_0, # of connection points: 2
#     Edge 54, Type (0, 1), BuildingBlock: ZUJKAS_clean_linker_0, # of connection points: 2
#     Edge 55, Type (0, 1), BuildingBlock: ZUJKAS_clean_linker_0, # of connection points: 2
#     Edge 56, Type (0, 1), BuildingBlock: ZUJKAS_clean_linker_0, # of connection points: 2
#     Edge 57, Type (0, 1), BuildingBlock: ZUJKAS_clean_linker_0, # of connection points: 2
#     Edge 58, Type (0, 1), BuildingBlock: ZUJKAS_clean_linker_0, # of connection points: 2
#     Edge 59, Type (0, 1), BuildingBlock: ZUJKAS_clean_linker_0, # of connection points: 2
#     Edge 60, Type (0, 1), BuildingBlock: ZUJKAS_clean_linker_0, # of connection points: 2
#     Edge 61, Type (0, 1), BuildingBlock: ZUJKAS_clean_linker_0, # of connection points: 2
#     Edge 62, Type (0, 1), BuildingBlock: ZUJKAS_clean_linker_0, # of connection points: 2
#     Edge 63, Type (0, 1), BuildingBlock: ZUJKAS_clean_linker_0, # of connection points: 2
#     Edge 64, Type (0, 1), BuildingBlock: ZUJKAS_clean_linker_0, # of connection points: 2
#     Edge 65, Type (0, 1), BuildingBlock: ZUJKAS_clean_linker_0, # of connection points: 2
#     Edge 66, Type (0, 1), BuildingBlock: ZUJKAS_clean_linker_0, # of connection points: 2
#     Edge 67, Type (0, 1), BuildingBlock: ZUJKAS_clean_linker_0, # of connection points: 2
#     Edge 68, Type (0, 1), BuildingBlock: ZUJKAS_clean_linker_0, # of connection points: 2
#     Edge 69, Type (0, 1), BuildingBlock: ZUJKAS_clean_linker_0, # of connection points: 2
#     Edge 70, Type (0, 1), BuildingBlock: ZUJKAS_clean_linker_0, # of connection points: 2
#     Edge 71, Type (0, 1), BuildingBlock: ZUJKAS_clean_linker_0, # of connection points: 2
#     Edge 72, Type (0, 1), BuildingBlock: ZUJKAS_clean_linker_0, # of connection points: 2
#     Edge 73, Type (0, 1), BuildingBlock: ZUJKAS_clean_linker_0, # of connection points: 2
#     Edge 74, Type (0, 1), BuildingBlock: ZUJKAS_clean_linker_0, # of connection points: 2
#     Edge 75, Type (0, 1), BuildingBlock: ZUJKAS_clean_linker_0, # of connection points: 2
#     Edge 76, Type (0, 1), BuildingBlock: ZUJKAS_clean_linker_0, # of connection points: 2
#     Edge 77, Type (0, 1), BuildingBlock: ZUJKAS_clean_linker_0, # of connection points: 2
#     Edge 78, Type (0, 1), BuildingBlock: ZUJKAS_clean_linker_0, # of connection points: 2
#     Edge 79, Type (0, 1), BuildingBlock: ZUJKAS_clean_linker_0, # of connection points: 2
#     Edge 80, Type (0, 1), BuildingBlock: ZUJKAS_clean_linker_0, # of connection points: 2
# Relax obj value: 0.018
# Max RMSD: 0.128
# Mean RMSD: 0.054
data_MOF--net-eea--node1-CUKXOW_clean_sbu_0--node2-VETTIZ_charged_linker_0--edge1-ZUJKAS_clean_linker_0
_symmetry_space_group_name_H-M    P1
_symmetry_Int_Tables_number       1
_symmetry_cell_setting            triclinic
loop_
_symmetry_equiv_pos_as_xyz
'x, y, z'
_cell_length_a     82.163445
_cell_length_b     79.375783
_cell_length_c     91.874636
_cell_angle_alpha  92.978106
_cell_angle_beta   92.931412
_cell_angle_gamma 119.8872
loop_
_atom_site_label
_atom_site_type_symbol
_atom_site_fract_x
_atom_site_fract_y
_atom_site_fract_z
_atom_type_partial_charge
C0 C 0.24305 0.17438 0.40455 0.0
C1 C 0.24632 0.19207 0.41165 0.0
C2 C 0.2555 0.19784 0.42593 0.0
C3 C 0.2573 0.16827 0.42594 0.0
C4 C 0.24865 0.1628 0.41185 0.0
C5 C 0.24598 0.14348 0.40592 0.0
H6 H 0.2525 0.06336 0.41696 0.0
C7 C 0.26077 0.15269 0.43055 0.0
C8 C 0.25424 0.13815 0.41884 0.0
H9 H 0.23132 0.07641 0.3776 0.0
H10 H 0.23852 0.10748 0.38937 0.0
H11 H 0.2894 0.10663 0.42374 0.0
H12 H 0.23411 0.07905 0.43922 0.0
H13 H 0.25021 0.09287 0.45429 0.0
H14 H 0.25165 0.07309 0.44509 0.0
H15 H 0.28208 0.08806 0.43626 0.0
H16 H 0.29222 0.11347 0.4426 0.0
C17 C 0.25759 0.14687 0.39249 0.0
C18 C 0.22455 0.1291 0.40259 0.0
C19 C 0.28898 0.15761 0.48223 0.0
C20 C 0.29288 0.14497 0.48994 0.0
C21 C 0.28935 0.12726 0.48259 0.0
C22 C 0.28194 0.12215 0.46793 0.0
C23 C 0.27787 0.13481 0.46046 0.0
C24 C 0.28147 0.15223 0.4676 0.0
C25 C 0.27597 0.1637 0.45801 0.0
C26 C 0.26848 0.15029 0.44395 0.0
C27 C 0.26963 0.13339 0.44545 0.0
C28 C 0.29396 0.18326 0.45599 0.0
C29 C 0.26033 0.1659 0.46511 0.0
C30 C 0.24964 0.07301 0.41079 0.0
C31 C 0.24123 0.06731 0.39632 0.0
C32 C 0.23751 0.08026 0.38881 0.0
C33 C 0.24179 0.09837 0.39565 0.0
C34 C 0.24988 0.10368 0.41019 0.0
C35 C 0.25385 0.09116 0.41746 0.0
C36 C 0.26252 0.09927 0.43283 0.0
C37 C 0.26308 0.1187 0.4336 0.0
C38 C 0.25556 0.12114 0.42034 0.0
C39 C 0.28257 0.10193 0.43408 0.0
C40 C 0.2491 0.08539 0.44351 0.0
H41 H 0.26786 0.19126 0.44394 0.0
H42 H 0.2359 0.16939 0.39364 0.0
H43 H 0.21651 0.1313 0.41114 0.0
H44 H 0.22072 0.11366 0.40263 0.0
H45 H 0.21929 0.1313 0.39188 0.0
H46 H 0.27058 0.1615 0.39381 0.0
H47 H 0.24929 0.14609 0.38229 0.0
H48 H 0.26275 0.13648 0.39103 0.0
H49 H 0.29169 0.17143 0.48745 0.0
H50 H 0.29191 0.11708 0.48828 0.0
H51 H 0.27944 0.10841 0.46303 0.0
H52 H 0.30641 0.18127 0.45552 0.0
H53 H 0.29711 0.19435 0.46522 0.0
H54 H 0.29306 0.18925 0.44559 0.0
H55 H 0.25078 0.15252 0.47036 0.0
H56 H 0.25098 0.16776 0.45711 0.0
H57 H 0.26648 0.17835 0.47369 0.0
H58 H 0.25852 0.21154 0.43157 0.0
C59 C 0.26101 0.18607 0.43308 0.0
C60 C 0.93258 0.17081 0.4165 0.0
C61 C 0.94668 0.18868 0.42368 0.0
C62 C 0.94339 0.19534 0.43712 0.0
C63 C 0.91262 0.16618 0.43626 0.0
C64 C 0.9157 0.15991 0.42291 0.0
C65 C 0.89919 0.14075 0.4166 0.0
H66 H 0.81274 0.06401 0.42383 0.0
C67 C 0.8938 0.15124 0.44002 0.0
C68 C 0.8858 0.13639 0.42847 0.0
H69 H 0.84718 0.07338 0.38768 0.0
H70 H 0.8709 0.10455 0.39962 0.0
H71 H 0.84574 0.07785 0.44847 0.0
H72 H 0.82043 0.10811 0.42857 0.0
H73 H 0.82428 0.11521 0.44744 0.0
H74 H 0.8088 0.08989 0.44104 0.0
H75 H 0.82324 0.07417 0.45289 0.0
H76 H 0.84494 0.09315 0.46253 0.0
C77 C 0.90588 0.12567 0.41506 0.0
C78 C 0.89127 0.1441 0.40204 0.0
C79 C 0.87148 0.15783 0.48954 0.0
C80 C 0.85523 0.14558 0.49638 0.0
C81 C 0.84091 0.12833 0.48851 0.0
C82 C 0.84289 0.12312 0.4742 0.0
C83 C 0.85942 0.1352 0.46765 0.0
C84 C 0.87331 0.15233 0.47524 0.0
C85 C 0.88999 0.16319 0.46654 0.0
C86 C 0.88389 0.14961 0.45258 0.0
C87 C 0.86598 0.13326 0.45332 0.0
C88 C 0.90749 0.16467 0.47505 0.0
C89 C 0.89181 0.18311 0.46373 0.0
C90 C 0.82542 0.07271 0.4185 0.0
C91 C 0.82806 0.06614 0.40479 0.0
C92 C 0.84467 0.07815 0.39816 0.0
C93 C 0.85851 0.0962 0.40517 0.0
C94 C 0.8558 0.10237 0.419 0.0
C95 C 0.8394 0.09073 0.42537 0.0
C96 C 0.83897 0.09949 0.44015 0.0
C97 C 0.8578 0.11835 0.44159 0.0
C98 C 0.86762 0.11994 0.4292 0.0
C99 C 0.83804 0.0855 0.45168 0.0
C100 C 0.82221 0.10331 0.43942 0.0
H101 H 0.92486 0.18994 0.45376 0.0
H102 H 0.93457 0.16549 0.40602 0.0
H103 H 0.89287 0.15889 0.40255 0.0
H104 H 0.87599 0.13397 0.39957 0.0
H105 H 0.89881 0.14286 0.39271 0.0
H106 H 0.91593 0.12781 0.42452 0.0
H107 H 0.91318 0.12716 0.40495 0.0
H108 H 0.89432 0.11045 0.41504 0.0
H109 H 0.88278 0.17112 0.49534 0.0
H110 H 0.82813 0.11881 0.49345 0.0
H111 H 0.83152 0.10975 0.46886 0.0
H112 H 0.90373 0.15083 0.48001 0.0
H113 H 0.91334 0.17659 0.48404 0.0
H114 H 0.9188 0.16697 0.46803 0.0
H115 H 0.87773 0.18195 0.46258 0.0
H116 H 0.89798 0.18848 0.45337 0.0
H117 H 0.90034 0.19433 0.4729 0.0
H118 H 0.95407 0.20905 0.44286 0.0
C119 C 0.92646 0.18418 0.44346 0.0
C120 C 0.93068 0.75428 0.41714 0.0
C121 C 0.94377 0.749 0.42232 0.0
C122 C 0.94146 0.74064 0.43578 0.0
C123 C 0.91378 0.74353 0.4388 0.0
C124 C 0.91591 0.75147 0.42552 0.0
C125 C 0.90112 0.75679 0.42171 0.0
H126 H 0.8258 0.76337 0.44037 0.0
C127 C 0.8974 0.74326 0.44498 0.0
C128 C 0.88996 0.75105 0.43502 0.0
H129 H 0.85313 0.77771 0.40015 0.0
H130 H 0.87531 0.76844 0.40911 0.0
H131 H 0.82618 0.72291 0.44201 0.0
H132 H 0.86276 0.78122 0.46196 0.0
H133 H 0.86128 0.76537 0.47512 0.0
H134 H 0.84025 0.76538 0.46836 0.0
H135 H 0.81938 0.73395 0.45619 0.0
H136 H 0.83173 0.7211 0.46037 0.0
C137 C 0.88923 0.74414 0.40758 0.0
C138 C 0.91115 0.77909 0.42047 0.0
C139 C 0.87799 0.71697 0.49437 0.0
C140 C 0.86392 0.7157 0.50315 0.0
C141 C 0.85226 0.72299 0.49821 0.0
C142 C 0.85428 0.73099 0.48475 0.0
C143 C 0.8682 0.73189 0.47605 0.0
C144 C 0.87992 0.72517 0.48097 0.0
C145 C 0.89441 0.72806 0.47048 0.0
C146 C 0.88915 0.73723 0.45835 0.0
C147 C 0.87373 0.73932 0.46165 0.0
C148 C 0.89138 0.70778 0.46517 0.0
C149 C 0.9142 0.74229 0.47833 0.0
C150 C 0.83646 0.76438 0.43343 0.0
C151 C 0.8377 0.77141 0.41954 0.0
C152 C 0.85201 0.7727 0.41099 0.0
C153 C 0.86481 0.76713 0.41617 0.0
C154 C 0.86333 0.7601 0.43004 0.0
C155 C 0.84929 0.75875 0.43839 0.0
C156 C 0.84962 0.75055 0.45273 0.0
C157 C 0.86616 0.74715 0.45157 0.0
C158 C 0.87417 0.75287 0.43829 0.0
C159 C 0.83075 0.73117 0.453 0.0
C160 C 0.85354 0.76628 0.46527 0.0
H161 H 0.92558 0.73146 0.45418 0.0
H162 H 0.93215 0.76096 0.40694 0.0
H163 H 0.92318 0.78699 0.42901 0.0
H164 H 0.90196 0.78531 0.42228 0.0
H165 H 0.9168 0.78275 0.40964 0.0
H166 H 0.88832 0.72965 0.40689 0.0
H167 H 0.89553 0.75132 0.39764 0.0
H168 H 0.87442 0.74072 0.40718 0.0
H169 H 0.88719 0.7115 0.49773 0.0
H170 H 0.84162 0.72272 0.50485 0.0
H171 H 0.84493 0.73621 0.48166 0.0
H172 H 0.87607 0.69685 0.46328 0.0
H173 H 0.89771 0.70248 0.47342 0.0
H174 H 0.89713 0.70765 0.45459 0.0
H175 H 0.91371 0.75311 0.48623 0.0
H176 H 0.92453 0.75121 0.47075 0.0
H177 H 0.91976 0.73433 0.48455 0.0
H178 H 0.95121 0.73622 0.43994 0.0
C179 C 0.92654 0.73784 0.44402 0.0
C180 C 0.15337 0.23232 0.57811 0.0
C181 C 0.17049 0.23634 0.5726 0.0
C182 C 0.17525 0.24541 0.55945 0.0
C183 C 0.14603 0.24604 0.55747 0.0
C184 C 0.14143 0.23727 0.57041 0.0
C185 C 0.12264 0.23378 0.57468 0.0
H186 H 0.04444 0.24018 0.56 0.0
C187 C 0.13048 0.24908 0.55216 0.0
C188 C 0.11676 0.24197 0.5622 0.0
H189 H 0.05787 0.21576 0.59659 0.0
H190 H 0.08752 0.22359 0.58737 0.0
H191 H 0.086 0.27809 0.56009 0.0
H192 H 0.05922 0.22167 0.53568 0.0
H193 H 0.07161 0.23926 0.52357 0.0
H194 H 0.05263 0.23964 0.53231 0.0
H195 H 0.06777 0.2711 0.54556 0.0
H196 H 0.09221 0.28173 0.54203 0.0
C197 C 0.12594 0.24573 0.58952 0.0
C198 C 0.10936 0.21147 0.57484 0.0
C199 C 0.1335 0.27888 0.50411 0.0
C200 C 0.12126 0.28341 0.49625 0.0
C201 C 0.10456 0.28012 0.50223 0.0
C202 C 0.09996 0.27208 0.51569 0.0
C203 C 0.11219 0.26728 0.52328 0.0
C204 C 0.12873 0.2709 0.51752 0.0
C205 C 0.14019 0.26517 0.52715 0.0
C206 C 0.12767 0.25723 0.53954 0.0
C207 C 0.11126 0.25843 0.53721 0.0
C208 C 0.15917 0.28382 0.53238 0.0
C209 C 0.14211 0.2491 0.51841 0.0
C210 C 0.05385 0.23667 0.56606 0.0
C211 C 0.04877 0.22726 0.57901 0.0
C212 C 0.06133 0.22274 0.58648 0.0
C213 C 0.07861 0.22741 0.58115 0.0
C214 C 0.08345 0.23667 0.56815 0.0
C215 C 0.07117 0.24115 0.56082 0.0
C216 C 0.0786 0.25071 0.54706 0.0
C217 C 0.09736 0.25125 0.54738 0.0
C218 C 0.10011 0.24304 0.55978 0.0
C219 C 0.08121 0.27146 0.54861 0.0
C220 C 0.06483 0.2373 0.5339 0.0
H221 H 0.16759 0.25715 0.54195 0.0
H222 H 0.14916 0.22515 0.58808 0.0
H223 H 0.11256 0.20324 0.56639 0.0
H224 H 0.09438 0.20683 0.5721 0.0
H225 H 0.1109 0.20646 0.58562 0.0
H226 H 0.1393 0.25999 0.59011 0.0
H227 H 0.12696 0.23779 0.59881 0.0
H228 H 0.11491 0.24953 0.5912 0.0
H229 H 0.1466 0.28154 0.49994 0.0
H230 H 0.09486 0.28341 0.49635 0.0
H231 H 0.08697 0.26975 0.5196 0.0
H232 H 0.15734 0.29677 0.53381 0.0
H233 H 0.16975 0.28694 0.52433 0.0
H234 H 0.1651 0.28301 0.54321 0.0
H235 H 0.12888 0.23908 0.51145 0.0
H236 H 0.14449 0.23957 0.52548 0.0
H237 H 0.15369 0.25557 0.51111 0.0
H238 H 0.18846 0.24891 0.55507 0.0
C239 C 0.16314 0.25029 0.55188 0.0
C240 C 0.75554 0.82352 0.59696 0.0
C241 C 0.7521 0.80573 0.58993 0.0
C242 C 0.74313 0.80005 0.57558 0.0
C243 C 0.74184 0.82988 0.57538 0.0
C244 C 0.75029 0.83528 0.58953 0.0
C245 C 0.75319 0.85472 0.59537 0.0
H246 H 0.74813 0.93548 0.58363 0.0
C247 C 0.73864 0.84558 0.57066 0.0
C248 C 0.74515 0.86013 0.58236 0.0
H249 H 0.7693 0.92268 0.62311 0.0
H250 H 0.76132 0.89116 0.61167 0.0
H251 H 0.76583 0.91845 0.56138 0.0
H252 H 0.71094 0.89322 0.57742 0.0
H253 H 0.70745 0.88466 0.55888 0.0
H254 H 0.71801 0.9105 0.5639 0.0
H255 H 0.74898 0.92562 0.55609 0.0
H256 H 0.74915 0.90539 0.54642 0.0
C257 C 0.77465 0.86888 0.59877 0.0
C258 C 0.74151 0.85156 0.60873 0.0
C259 C 0.71199 0.84137 0.51858 0.0
C260 C 0.70793 0.85394 0.51095 0.0
C261 C 0.71067 0.87124 0.51845 0.0
C262 C 0.71767 0.87613 0.5332 0.0
C263 C 0.72204 0.86364 0.54059 0.0
C264 C 0.71895 0.84646 0.53333 0.0
C265 C 0.72418 0.83487 0.54301 0.0
C266 C 0.73116 0.84806 0.55719 0.0
C267 C 0.72999 0.86493 0.55566 0.0
C268 C 0.74014 0.83292 0.53627 0.0
C269 C 0.70612 0.81517 0.54464 0.0
C270 C 0.75082 0.9258 0.5899 0.0
C271 C 0.75945 0.93166 0.6043 0.0
C272 C 0.76294 0.91867 0.61194 0.0
C273 C 0.75821 0.90031 0.6053 0.0
C274 C 0.74994 0.89485 0.59081 0.0
C275 C 0.7462 0.90744 0.58342 0.0
C276 C 0.73738 0.89921 0.5681 0.0
C277 C 0.73655 0.87965 0.56748 0.0
C278 C 0.744 0.87722 0.58078 0.0
C279 C 0.75086 0.91284 0.55734 0.0
C280 C 0.71745 0.89685 0.56686 0.0
H281 H 0.73129 0.80687 0.55739 0.0
H282 H 0.76256 0.82844 0.60791 0.0
H283 H 0.72822 0.8372 0.60724 0.0
H284 H 0.73688 0.86238 0.61029 0.0
H285 H 0.74953 0.85184 0.61893 0.0
H286 H 0.7827 0.86629 0.59042 0.0
H287 H 0.7797 0.86686 0.60963 0.0
H288 H 0.77872 0.88436 0.59842 0.0
H289 H 0.7098 0.82785 0.51318 0.0
H290 H 0.70783 0.88126 0.51279 0.0
H291 H 0.71964 0.8896 0.53821 0.0
H292 H 0.75023 0.84673 0.53173 0.0
H293 H 0.73436 0.82111 0.5272 0.0
H294 H 0.7488 0.83021 0.54433 0.0
H295 H 0.69344 0.81684 0.54424 0.0
H296 H 0.70637 0.80944 0.5553 0.0
H297 H 0.70376 0.80401 0.5357 0.0
H298 H 0.74001 0.78628 0.56999 0.0
C299 C 0.73798 0.81199 0.5683 0.0
C300 C 0.0689 0.82735 0.58785 0.0
C301 C 0.05463 0.80999 0.58015 0.0
C302 C 0.05788 0.8042 0.56633 0.0
C303 C 0.08898 0.83301 0.56803 0.0
C304 C 0.08585 0.83856 0.58163 0.0
C305 C 0.10225 0.85755 0.58831 0.0
H306 H 0.18794 0.93587 0.58203 0.0
C307 C 0.10788 0.84816 0.56459 0.0
C308 C 0.11573 0.86255 0.57645 0.0
H309 H 0.15352 0.9242 0.61842 0.0
H310 H 0.13012 0.89328 0.60591 0.0
H311 H 0.18159 0.89219 0.57705 0.0
H312 H 0.15509 0.92138 0.5572 0.0
H313 H 0.15732 0.90712 0.54307 0.0
H314 H 0.17822 0.92635 0.55343 0.0
H315 H 0.19287 0.91028 0.56444 0.0
H316 H 0.17762 0.88484 0.55824 0.0
C317 C 0.11014 0.85364 0.60262 0.0
C318 C 0.09543 0.87248 0.59039 0.0
C319 C 0.1318 0.84259 0.51559 0.0
C320 C 0.14842 0.85484 0.50911 0.0
C321 C 0.16237 0.87217 0.51718 0.0
C322 C 0.15979 0.87729 0.53133 0.0
C323 C 0.14302 0.86507 0.53754 0.0
C324 C 0.1294 0.84799 0.52973 0.0
C325 C 0.11239 0.83696 0.53806 0.0
C326 C 0.11807 0.85025 0.55212 0.0
C327 C 0.13601 0.86669 0.55172 0.0
C328 C 0.11042 0.81695 0.54077 0.0
C329 C 0.09515 0.83567 0.52924 0.0
C330 C 0.1755 0.92655 0.58742 0.0
C331 C 0.17259 0.93256 0.60123 0.0
C332 C 0.15601 0.92006 0.6077 0.0
C333 C 0.14246 0.90206 0.60044 0.0
C334 C 0.14544 0.89646 0.58651 0.0
C335 C 0.16184 0.90855 0.58031 0.0
C336 C 0.16262 0.90027 0.56544 0.0
C337 C 0.14393 0.88126 0.5637 0.0
C338 C 0.1339 0.87914 0.57603 0.0
C339 C 0.1796 0.89679 0.56618 0.0
C340 C 0.16349 0.91447 0.55412 0.0
H341 H 0.07656 0.81039 0.54971 0.0
H342 H 0.06681 0.83238 0.5984 0.0
H343 H 0.08507 0.8704 0.58118 0.0
H344 H 0.10685 0.88775 0.59038 0.0
H345 H 0.08843 0.87077 0.60068 0.0
H346 H 0.10891 0.83901 0.60158 0.0
H347 H 0.10231 0.85406 0.612 0.0
H348 H 0.12534 0.86397 0.60534 0.0
H349 H 0.12086 0.82909 0.50978 0.0
H350 H 0.17516 0.88207 0.51242 0.0
H351 H 0.17088 0.89074 0.53679 0.0
H352 H 0.12451 0.81834 0.54292 0.0
H353 H 0.10302 0.80621 0.53111 0.0
H354 H 0.10301 0.81084 0.55054 0.0
H355 H 0.09928 0.84926 0.52379 0.0
H356 H 0.08403 0.83426 0.53617 0.0
H357 H 0.08896 0.8233 0.5206 0.0
H358 H 0.04723 0.79076 0.56025 0.0
C359 C 0.07496 0.81558 0.56026 0.0
C360 C 0.9116 0.51111 0.73861 0.0
C361 C 0.91473 0.52887 0.74546 0.0
C362 C 0.92275 0.53438 0.76007 0.0
C363 C 0.92343 0.50427 0.76097 0.0
C364 C 0.91601 0.4991 0.74653 0.0
C365 C 0.91304 0.47952 0.74099 0.0
H366 H 0.91297 0.39666 0.75501 0.0
C367 C 0.92557 0.48814 0.76624 0.0
C368 C 0.91956 0.47362 0.75456 0.0
H369 H 0.89745 0.41133 0.7139 0.0
H370 H 0.90584 0.4432 0.72498 0.0
H371 H 0.95066 0.43813 0.76301 0.0
H372 H 0.89399 0.41443 0.77521 0.0
H373 H 0.90914 0.42735 0.79094 0.0
H374 H 0.90972 0.40673 0.78237 0.0
H375 H 0.94125 0.42026 0.77604 0.0
H376 H 0.95241 0.44605 0.78152 0.0
C377 C 0.9259 0.48251 0.72845 0.0
C378 C 0.89172 0.46585 0.73649 0.0
C379 C 0.94827 0.49143 0.81945 0.0
C380 C 0.95049 0.47812 0.82766 0.0
C381 C 0.94661 0.46014 0.82063 0.0
C382 C 0.94047 0.45537 0.80572 0.0
C383 C 0.93805 0.46868 0.7977 0.0
C384 C 0.94199 0.48638 0.80455 0.0
C385 C 0.93824 0.4985 0.79431 0.0
C386 C 0.93155 0.4852 0.78018 0.0
C387 C 0.93146 0.46776 0.78226 0.0
C388 C 0.95706 0.51757 0.79307 0.0
C389 C 0.92247 0.50162 0.80015 0.0
C390 C 0.91129 0.40672 0.74842 0.0
C391 C 0.9044 0.40144 0.7336 0.0
C392 C 0.90281 0.4151 0.72533 0.0
C393 C 0.90758 0.43355 0.7318 0.0
C394 C 0.91403 0.43843 0.74673 0.0
C395 C 0.91607 0.42522 0.75471 0.0
C396 C 0.9235 0.43305 0.77034 0.0
C397 C 0.92538 0.45307 0.77047 0.0
C398 C 0.91966 0.45608 0.75666 0.0
C399 C 0.94291 0.43437 0.77302 0.0
C400 C 0.90847 0.41973 0.78034 0.0
H401 H 0.93298 0.52712 0.77897 0.0
H402 H 0.90574 0.50659 0.72733 0.0
H403 H 0.88313 0.46824 0.74444 0.0
H404 H 0.88724 0.45024 0.73645 0.0
H405 H 0.88773 0.46863 0.72552 0.0
H406 H 0.93912 0.49692 0.73023 0.0
H407 H 0.91871 0.48197 0.71772 0.0
H408 H 0.93069 0.47175 0.72778 0.0
H409 H 0.95097 0.50529 0.82457 0.0
H410 H 0.94847 0.44976 0.82667 0.0
H411 H 0.93775 0.44145 0.80105 0.0
H412 H 0.96903 0.51473 0.79323 0.0
H413 H 0.96008 0.52857 0.80233 0.0
H414 H 0.95739 0.52405 0.78266 0.0
H415 H 0.91204 0.48852 0.80525 0.0
H416 H 0.91408 0.50376 0.79145 0.0
H417 H 0.92837 0.51422 0.80859 0.0
H418 H 0.92517 0.5479 0.76565 0.0
C419 C 0.92713 0.52221 0.76784 0.0
C420 C 0.59586 0.50566 0.74595 0.0
C421 C 0.61047 0.52302 0.75341 0.0
C422 C 0.60794 0.52884 0.76748 0.0
C423 C 0.57701 0.49994 0.7666 0.0
C424 C 0.57935 0.49444 0.7527 0.0
C425 C 0.56262 0.47548 0.74633 0.0
H426 H 0.47796 0.3969 0.7548 0.0
C427 C 0.55851 0.4847 0.77065 0.0
C428 C 0.54998 0.47036 0.75878 0.0
H429 H 0.50946 0.40972 0.71661 0.0
H430 H 0.53365 0.44024 0.72903 0.0
H431 H 0.51258 0.41103 0.77818 0.0
H432 H 0.48475 0.44071 0.76148 0.0
H433 H 0.48966 0.44706 0.78044 0.0
H434 H 0.47427 0.42187 0.77366 0.0
H435 H 0.4899 0.40592 0.78335 0.0
H436 H 0.51144 0.42507 0.79306 0.0
C437 C 0.56931 0.46058 0.74341 0.0
C438 C 0.55383 0.47951 0.73256 0.0
C439 C 0.53825 0.48982 0.82129 0.0
C440 C 0.52242 0.47734 0.82846 0.0
C441 C 0.50818 0.45982 0.82083 0.0
C442 C 0.50972 0.45473 0.80635 0.0
C443 C 0.52573 0.46722 0.79938 0.0
C444 C 0.53964 0.48445 0.80684 0.0
C445 C 0.55584 0.49568 0.7978 0.0
C446 C 0.54929 0.4824 0.78368 0.0
C447 C 0.53164 0.46578 0.78467 0.0
C448 C 0.57377 0.49724 0.80563 0.0
C449 C 0.55723 0.51555 0.79556 0.0
C450 C 0.48994 0.40638 0.74903 0.0
C451 C 0.4918 0.40078 0.7347 0.0
C452 C 0.5078 0.4135 0.72771 0.0
C453 C 0.5218 0.43129 0.73493 0.0
C454 C 0.51987 0.43651 0.74932 0.0
C455 C 0.50405 0.42422 0.75607 0.0
C456 C 0.50434 0.43221 0.77135 0.0
C457 C 0.52298 0.45131 0.77266 0.0
C458 C 0.53204 0.45367 0.75975 0.0
C459 C 0.50444 0.41786 0.78213 0.0
C460 C 0.48735 0.43557 0.77192 0.0
H461 H 0.5903 0.52262 0.78484 0.0
H462 H 0.59736 0.50063 0.73519 0.0
H463 H 0.55565 0.49439 0.73375 0.0
H464 H 0.53843 0.46961 0.73066 0.0
H465 H 0.56057 0.47849 0.72263 0.0
H466 H 0.57987 0.4623 0.75231 0.0
H467 H 0.57602 0.4627 0.73295 0.0
H468 H 0.55788 0.44528 0.74319 0.0
H469 H 0.54952 0.50328 0.82692 0.0
H470 H 0.49575 0.45007 0.82606 0.0
H471 H 0.49842 0.44119 0.80117 0.0
H472 H 0.57029 0.48376 0.81103 0.0
H473 H 0.5805 0.5097 0.81419 0.0
H474 H 0.5843 0.49866 0.79805 0.0
H475 H 0.54297 0.51394 0.79427 0.0
H476 H 0.56373 0.5217 0.78547 0.0
H477 H 0.56525 0.52635 0.80507 0.0
H478 H 0.61881 0.54231 0.77338 0.0
C479 C 0.59132 0.51742 0.7741 0.0
C480 C 0.59881 0.09663 0.75439 0.0
C481 C 0.61289 0.09306 0.76016 0.0
C482 C 0.61063 0.08457 0.77356 0.0
C483 C 0.58097 0.08386 0.77535 0.0
C484 C 0.58307 0.09196 0.76214 0.0
C485 C 0.56706 0.09521 0.75767 0.0
H486 H 0.4859 0.0918 0.7733 0.0
C487 C 0.56332 0.0813 0.78078 0.0
C488 C 0.55511 0.08794 0.77047 0.0
H489 H 0.51585 0.11117 0.73468 0.0
H490 H 0.53921 0.1036 0.74405 0.0
H491 H 0.48994 0.05386 0.77479 0.0
H492 H 0.5224 0.11186 0.79636 0.0
H493 H 0.52035 0.09563 0.80937 0.0
H494 H 0.49939 0.0946 0.80123 0.0
H495 H 0.48147 0.0625 0.78935 0.0
H496 H 0.49571 0.05147 0.79293 0.0
C497 C 0.55676 0.08241 0.7432 0.0
C498 C 0.5752 0.11739 0.7567 0.0
C499 C 0.5438 0.05374 0.82974 0.0
C500 C 0.52863 0.05051 0.83788 0.0
C501 C 0.51514 0.05501 0.83214 0.0
C502 C 0.51674 0.06263 0.81855 0.0
C503 C 0.53204 0.0659 0.81057 0.0
C504 C 0.54526 0.06149 0.81619 0.0
C505 C 0.56078 0.06632 0.80631 0.0
C506 C 0.55457 0.07418 0.79378 0.0
C507 C 0.53773 0.07387 0.79634 0.0
C508 C 0.56041 0.04717 0.80137 0.0
C509 C 0.57959 0.08222 0.81467 0.0
C510 C 0.49759 0.09456 0.76693 0.0
C511 C 0.49907 0.10215 0.75326 0.0
C512 C 0.51431 0.10518 0.74518 0.0
C513 C 0.52791 0.10086 0.75068 0.0
C514 C 0.52629 0.09338 0.7644 0.0
C515 C 0.51124 0.09023 0.77223 0.0
C516 C 0.51161 0.08185 0.78647 0.0
C517 C 0.52942 0.08061 0.78594 0.0
C518 C 0.538 0.08748 0.77303 0.0
C519 C 0.49374 0.06141 0.78602 0.0
C520 C 0.5134 0.09657 0.7991 0.0
H521 H 0.59392 0.07355 0.7913 0.0
H522 H 0.60018 0.10333 0.74421 0.0
H523 H 0.58662 0.12599 0.76558 0.0
H524 H 0.56472 0.12203 0.75817 0.0
H525 H 0.58125 0.12188 0.74609 0.0
H526 H 0.55712 0.06857 0.74276 0.0
H527 H 0.56346 0.09012 0.73355 0.0
H528 H 0.54161 0.07774 0.74203 0.0
H529 H 0.55451 0.05064 0.83394 0.0
H530 H 0.50321 0.05244 0.83813 0.0
H531 H 0.506 0.06572 0.81479 0.0
H532 H 0.54566 0.0348 0.79945 0.0
H533 H 0.56787 0.04335 0.80984 0.0
H534 H 0.56656 0.04777 0.79087 0.0
H535 H 0.5773 0.09225 0.82208 0.0
H536 H 0.58991 0.09182 0.80736 0.0
H537 H 0.58609 0.0756 0.82149 0.0
H538 H 0.62113 0.08141 0.77815 0.0
C539 C 0.59477 0.07993 0.78116 0.0
C540 C 0.82233 0.56573 0.91254 0.0
C541 C 0.83877 0.56853 0.90645 0.0
C542 C 0.84304 0.57676 0.89296 0.0
C543 C 0.81471 0.5791 0.89182 0.0
C544 C 0.81054 0.57105 0.90505 0.0
C545 C 0.79233 0.56868 0.90984 0.0
H546 H 0.71559 0.57809 0.8965 0.0
C547 C 0.7995 0.58284 0.88685 0.0
C548 C 0.78634 0.57675 0.89735 0.0
H549 H 0.72915 0.55393 0.93323 0.0
H550 H 0.75828 0.56073 0.92355 0.0
H551 H 0.75702 0.61464 0.89553 0.0
H552 H 0.72875 0.55767 0.87189 0.0
H553 H 0.74061 0.57496 0.85943 0.0
H554 H 0.72226 0.57578 0.86881 0.0
H555 H 0.73896 0.60797 0.88094 0.0
H556 H 0.76335 0.61771 0.87748 0.0
C557 C 0.79679 0.58138 0.92448 0.0
C558 C 0.77846 0.54661 0.91064 0.0
C559 C 0.80205 0.612 0.83859 0.0
C560 C 0.79017 0.61726 0.83104 0.0
C561 C 0.77393 0.61479 0.83737 0.0
C562 C 0.76945 0.60691 0.8509 0.0
C563 C 0.78136 0.60148 0.85821 0.0
C564 C 0.79743 0.60424 0.85208 0.0
C565 C 0.80864 0.59798 0.86146 0.0
C566 C 0.79658 0.59085 0.87419 0.0
C567 C 0.78058 0.59283 0.87221 0.0
C568 C 0.82816 0.61618 0.86623 0.0
C569 C 0.80943 0.58122 0.85268 0.0
C570 C 0.72478 0.57414 0.9024 0.0
C571 C 0.72003 0.56547 0.91568 0.0
C572 C 0.73255 0.56085 0.9231 0.0
C573 C 0.74943 0.56469 0.9174 0.0
C574 C 0.7539 0.57321 0.90408 0.0
C575 C 0.7417 0.57785 0.89683 0.0
C576 C 0.7488 0.58679 0.8828 0.0
C577 C 0.76717 0.58657 0.88278 0.0
C578 C 0.77007 0.5786 0.89528 0.0
C579 C 0.75213 0.60784 0.8841 0.0
C580 C 0.73439 0.57327 0.86999 0.0
H581 H 0.8352 0.5883 0.87543 0.0
H582 H 0.81852 0.5592 0.9228 0.0
H583 H 0.78073 0.53765 0.90214 0.0
H584 H 0.76355 0.54253 0.90839 0.0
H585 H 0.78036 0.5419 0.92146 0.0
H586 H 0.81039 0.59531 0.92453 0.0
H587 H 0.79796 0.5737 0.93389 0.0
H588 H 0.78627 0.58585 0.9264 0.0
H589 H 0.81481 0.61403 0.83414 0.0
H590 H 0.76451 0.61865 0.83173 0.0
H591 H 0.75683 0.60525 0.85509 0.0
H592 H 0.82696 0.62949 0.86794 0.0
H593 H 0.83817 0.61883 0.85777 0.0
H594 H 0.83447 0.61517 0.87681 0.0
H595 H 0.79602 0.57178 0.84573 0.0
H596 H 0.81104 0.57121 0.85974 0.0
H597 H 0.82102 0.58703 0.84536 0.0
H598 H 0.85573 0.57928 0.88813 0.0
C599 C 0.83114 0.58209 0.88564 0.0
C600 C 0.42373 0.15737 0.92981 0.0
C601 C 0.42098 0.13989 0.9227 0.0
C602 C 0.41291 0.13455 0.9081 0.0
C603 C 0.41129 0.16419 0.90776 0.0
C604 C 0.41878 0.1692 0.92217 0.0
C605 C 0.42107 0.18838 0.92805 0.0
H606 H 0.41605 0.26909 0.91606 0.0
C607 C 0.40834 0.17998 0.90286 0.0
C608 C 0.41395 0.19415 0.91473 0.0
H609 H 0.43409 0.25486 0.95635 0.0
H610 H 0.42749 0.22397 0.94458 0.0
H611 H 0.43625 0.25419 0.89521 0.0
H612 H 0.37939 0.2259 0.9076 0.0
H613 H 0.37821 0.21974 0.88878 0.0
H614 H 0.38791 0.24497 0.89548 0.0
H615 H 0.41916 0.26022 0.88824 0.0
H616 H 0.42147 0.24076 0.87945 0.0
C617 C 0.44232 0.20265 0.93244 0.0
C618 C 0.40828 0.18455 0.94075 0.0
C619 C 0.38502 0.17705 0.84995 0.0
C620 C 0.38192 0.19003 0.84202 0.0
C621 C 0.38483 0.20748 0.84936 0.0
C622 C 0.39088 0.21203 0.8643 0.0
C623 C 0.39418 0.19906 0.87203 0.0
C624 C 0.39117 0.18187 0.86487 0.0
C625 C 0.39568 0.16999 0.8748 0.0
C626 C 0.40189 0.18288 0.8891 0.0
C627 C 0.40099 0.19988 0.8874 0.0
C628 C 0.41201 0.16805 0.86876 0.0
C629 C 0.37736 0.15031 0.87583 0.0
C630 C 0.41833 0.25921 0.92241 0.0
C631 C 0.42567 0.26448 0.93716 0.0
C632 C 0.42869 0.25128 0.94493 0.0
C633 C 0.42477 0.2333 0.93809 0.0
C634 C 0.4178 0.22842 0.92327 0.0
C635 C 0.41451 0.24121 0.91573 0.0
C636 C 0.40714 0.23362 0.90005 0.0
C637 C 0.40655 0.21418 0.89942 0.0
C638 C 0.41289 0.21126 0.91303 0.0
C639 C 0.42158 0.2479 0.89012 0.0
C640 C 0.38717 0.23099 0.8977 0.0
H641 H 0.40207 0.14172 0.8895 0.0
H642 H 0.43004 0.16204 0.94097 0.0
H643 H 0.39524 0.17001 0.93878 0.0
H644 H 0.40318 0.19502 0.94191 0.0
H645 H 0.41565 0.18483 0.95132 0.0
H646 H 0.45109 0.20059 0.92449 0.0
H647 H 0.44661 0.20019 0.94343 0.0
H648 H 0.44629 0.21812 0.93237 0.0
H649 H 0.3831 0.16362 0.8446 0.0
H650 H 0.38228 0.21759 0.84355 0.0
H651 H 0.39286 0.22555 0.86923 0.0
H652 H 0.42224 0.18174 0.86417 0.0
H653 H 0.40663 0.15603 0.85987 0.0
H654 H 0.42047 0.16568 0.87725 0.0
H655 H 0.36483 0.15224 0.87535 0.0
H656 H 0.37713 0.14401 0.88631 0.0
H657 H 0.37514 0.13949 0.86666 0.0
H658 H 0.41029 0.121 0.90244 0.0
C659 C 0.40805 0.14657 0.90061 0.0
C660 C 0.73552 0.16198 0.9209 0.0
C661 C 0.72141 0.14433 0.91342 0.0
C662 C 0.72467 0.13843 0.89964 0.0
C663 C 0.75545 0.16766 0.90096 0.0
C664 C 0.75232 0.17333 0.91452 0.0
C665 C 0.76857 0.19257 0.92099 0.0
H666 H 0.85409 0.27103 0.91421 0.0
C667 C 0.77418 0.18297 0.89733 0.0
C668 C 0.78195 0.19758 0.90906 0.0
H669 H 0.8193 0.26033 0.95027 0.0
H670 H 0.79614 0.22901 0.93816 0.0
H671 H 0.8476 0.22752 0.90936 0.0
H672 H 0.82113 0.25664 0.88943 0.0
H673 H 0.82268 0.24189 0.87534 0.0
H674 H 0.84398 0.26115 0.88526 0.0
H675 H 0.85886 0.24567 0.89679 0.0
H676 H 0.84376 0.22022 0.89054 0.0
C677 C 0.77678 0.18913 0.93535 0.0
C678 C 0.76141 0.20723 0.92292 0.0
C679 C 0.7978 0.17742 0.84812 0.0
C680 C 0.81417 0.18996 0.84151 0.0
C681 C 0.82806 0.20736 0.84949 0.0
C682 C 0.82561 0.2124 0.86369 0.0
C683 C 0.80901 0.2 0.87003 0.0
C684 C 0.79549 0.18277 0.86233 0.0
C685 C 0.77863 0.1716 0.87081 0.0
C686 C 0.78428 0.18503 0.88481 0.0
C687 C 0.80208 0.20162 0.88426 0.0
C688 C 0.77709 0.15181 0.87362 0.0
C689 C 0.76114 0.16987 0.86208 0.0
C690 C 0.84145 0.262 0.91948 0.0
C691 C 0.83853 0.26826 0.93321 0.0
C692 C 0.82201 0.25583 0.93977 0.0
C693 C 0.80849 0.23768 0.93266 0.0
C694 C 0.81147 0.23185 0.91881 0.0
C695 C 0.8278 0.2439 0.91252 0.0
C696 C 0.82856 0.23546 0.89771 0.0
C697 C 0.80995 0.21636 0.89611 0.0
C698 C 0.79997 0.21433 0.90847 0.0
C699 C 0.84562 0.23211 0.89849 0.0
C700 C 0.82926 0.24946 0.88627 0.0
H701 H 0.74319 0.14468 0.88289 0.0
H702 H 0.73343 0.1671 0.93141 0.0
H703 H 0.75078 0.2047 0.9138 0.0
H704 H 0.77262 0.22255 0.92262 0.0
H705 H 0.75464 0.20571 0.93331 0.0
H706 H 0.77611 0.17476 0.93437 0.0
H707 H 0.76876 0.18924 0.9447 0.0
H708 H 0.79186 0.19991 0.93809 0.0
H709 H 0.78681 0.16402 0.84223 0.0
H710 H 0.84091 0.2171 0.84471 0.0
H711 H 0.83669 0.22589 0.86911 0.0
H712 H 0.79131 0.15348 0.87566 0.0
H713 H 0.76968 0.14091 0.86404 0.0
H714 H 0.76989 0.14574 0.88348 0.0
H715 H 0.76493 0.18341 0.85665 0.0
H716 H 0.74996 0.16813 0.86906 0.0
H717 H 0.75514 0.15752 0.85342 0.0
H718 H 0.71416 0.12479 0.89372 0.0
C719 C 0.74159 0.14997 0.8934 0.0
C720 C 0.57683 0.84362 0.07225 0.0
C721 C 0.5794 0.86086 0.07962 0.0
C722 C 0.58734 0.86592 0.09425 0.0
C723 C 0.58957 0.8366 0.09404 0.0
C724 C 0.58193 0.83172 0.07965 0.0
C725 C 0.57947 0.81253 0.07362 0.0
H726 H 0.58587 0.73231 0.08466 0.0
C727 C 0.5929 0.82094 0.09864 0.0
C728 C 0.58704 0.80679 0.08672 0.0
H729 H 0.56344 0.74471 0.04564 0.0
H730 H 0.57151 0.77622 0.05714 0.0
H731 H 0.62229 0.77501 0.09152 0.0
H732 H 0.56702 0.74792 0.107 0.0
H733 H 0.58335 0.761 0.12214 0.0
H734 H 0.58427 0.74129 0.11232 0.0
H735 H 0.61533 0.75724 0.10466 0.0
H736 H 0.62528 0.78289 0.11018 0.0
C737 C 0.59182 0.81633 0.06064 0.0
C738 C 0.55813 0.79824 0.06959 0.0
C739 C 0.61907 0.82462 0.15077 0.0
C740 C 0.62347 0.8122 0.15828 0.0
C741 C 0.62118 0.79518 0.15063 0.0
C742 C 0.61433 0.79043 0.13584 0.0
C743 C 0.60964 0.80279 0.12857 0.0
C744 C 0.61226 0.81967 0.13599 0.0
C745 C 0.60676 0.83118 0.12644 0.0
C746 C 0.60022 0.81831 0.11212 0.0
C747 C 0.60183 0.80165 0.11347 0.0
C748 C 0.62459 0.85118 0.1251 0.0
C749 C 0.59042 0.83246 0.13312 0.0
C750 C 0.5826 0.74175 0.0786 0.0
C751 C 0.5739 0.7359 0.06423 0.0
C752 C 0.57028 0.74888 0.05667 0.0
C753 C 0.57483 0.76713 0.06342 0.0
C754 C 0.58303 0.7725 0.07793 0.0
C755 C 0.58694 0.75996 0.08521 0.0
C756 C 0.59547 0.76796 0.10062 0.0
C757 C 0.5958 0.78727 0.10146 0.0
C758 C 0.5885 0.78986 0.08814 0.0
C759 C 0.6156 0.77085 0.10196 0.0
C760 C 0.582 0.75385 0.11117 0.0
H761 H 0.59841 0.85859 0.1126 0.0
H762 H 0.57054 0.83921 0.06106 0.0
H763 H 0.54951 0.80101 0.07726 0.0
H764 H 0.55404 0.78283 0.07047 0.0
H765 H 0.55372 0.79986 0.05836 0.0
H766 H 0.60543 0.83028 0.06295 0.0
H767 H 0.58461 0.81738 0.05046 0.0
H768 H 0.5958 0.80509 0.05858 0.0
H769 H 0.62092 0.83794 0.15627 0.0
H770 H 0.6243 0.78527 0.15618 0.0
H771 H 0.61273 0.77719 0.13069 0.0
H772 H 0.63738 0.84973 0.12504 0.0
H773 H 0.62692 0.86185 0.13442 0.0
H774 H 0.62409 0.85743 0.11474 0.0
H775 H 0.58087 0.81872 0.13799 0.0
H776 H 0.58122 0.83425 0.12494 0.0
H777 H 0.59587 0.84458 0.14193 0.0
H778 H 0.58965 0.87924 0.1001 0.0
C779 C 0.59248 0.85394 0.10147 0.0
C780 C 0.26394 0.83936 0.08161 0.0
C781 C 0.27895 0.85634 0.08921 0.0
C782 C 0.2765 0.86237 0.10325 0.0
C783 C 0.24479 0.83458 0.10196 0.0
C784 C 0.24714 0.82874 0.08818 0.0
C785 C 0.23014 0.81005 0.08175 0.0
H786 H 0.14396 0.73354 0.08984 0.0
C787 C 0.22579 0.82009 0.10572 0.0
C788 C 0.21715 0.80567 0.09392 0.0
H789 H 0.17706 0.74357 0.05275 0.0
H790 H 0.20109 0.77456 0.06467 0.0
H791 H 0.17819 0.74912 0.11469 0.0
H792 H 0.15061 0.77676 0.09403 0.0
H793 H 0.1566 0.78661 0.11234 0.0
H794 H 0.14041 0.7608 0.10816 0.0
H795 H 0.15451 0.74316 0.11751 0.0
H796 H 0.17443 0.76274 0.12844 0.0
C797 C 0.23614 0.7945 0.07937 0.0
C798 C 0.22214 0.81428 0.06765 0.0
C799 C 0.20391 0.82789 0.15515 0.0
C800 C 0.18711 0.81665 0.16174 0.0
C801 C 0.17233 0.79981 0.15372 0.0
C802 C 0.17435 0.79406 0.13958 0.0
C803 C 0.19134 0.80522 0.13329 0.0
C804 C 0.20568 0.82195 0.14097 0.0
C805 C 0.22263 0.83211 0.13241 0.0
C806 C 0.21607 0.81867 0.11836 0.0
C807 C 0.19779 0.80288 0.119 0.0
C808 C 0.23952 0.83237 0.14096 0.0
C809 C 0.22568 0.85256 0.12976 0.0
C810 C 0.15626 0.7425 0.08419 0.0
C811 C 0.15864 0.73595 0.07036 0.0
C812 C 0.17501 0.74806 0.0635 0.0
C813 C 0.18893 0.76612 0.07043 0.0
C814 C 0.18657 0.77219 0.08441 0.0
C815 C 0.17032 0.76057 0.09096 0.0
C816 C 0.17015 0.76945 0.10578 0.0
C817 C 0.18914 0.78815 0.10715 0.0
C818 C 0.19872 0.78962 0.09464 0.0
C819 C 0.16915 0.75544 0.11729 0.0
C820 C 0.15355 0.77355 0.1052 0.0
H821 H 0.25863 0.85692 0.12038 0.0
H822 H 0.26518 0.83441 0.07074 0.0
H823 H 0.22371 0.82905 0.06888 0.0
H824 H 0.20687 0.8042 0.0651 0.0
H825 H 0.22966 0.81371 0.0581 0.0
H826 H 0.2469 0.79645 0.08819 0.0
H827 H 0.24238 0.79559 0.06877 0.0
H828 H 0.22447 0.77944 0.07984 0.0
H829 H 0.21561 0.84083 0.161 0.0
H830 H 0.15909 0.79108 0.15837 0.0
H831 H 0.16262 0.78105 0.13414 0.0
H832 H 0.23481 0.81878 0.14655 0.0
H833 H 0.24654 0.84489 0.14946 0.0
H834 H 0.25011 0.83282 0.13381 0.0
H835 H 0.21194 0.85201 0.12777 0.0
H836 H 0.23309 0.85834 0.11993 0.0
H837 H 0.23356 0.86319 0.13939 0.0
H838 H 0.28786 0.87522 0.10946 0.0
C839 C 0.25953 0.85163 0.10964 0.0
C840 C 0.26864 0.43241 0.08802 0.0
C841 C 0.2827 0.42883 0.09378 0.0
C842 C 0.28045 0.42027 0.10714 0.0
C843 C 0.25068 0.41938 0.10887 0.0
C844 C 0.25286 0.42764 0.09572 0.0
C845 C 0.23694 0.43105 0.0913 0.0
H846 H 0.15508 0.42638 0.10621 0.0
C847 C 0.23294 0.41668 0.11423 0.0
C848 C 0.22486 0.42352 0.10398 0.0
H849 H 0.18663 0.44826 0.06864 0.0
H850 H 0.20992 0.44069 0.07809 0.0
H851 H 0.1601 0.38818 0.10723 0.0
H852 H 0.19006 0.44583 0.12962 0.0
H853 H 0.18911 0.42975 0.14239 0.0
H854 H 0.16748 0.42753 0.13449 0.0
H855 H 0.15031 0.39632 0.12109 0.0
H856 H 0.1647 0.38576 0.12567 0.0
C857 C 0.22677 0.4185 0.07672 0.0
C858 C 0.24517 0.45328 0.09056 0.0
C859 C 0.21266 0.38795 0.16272 0.0
C860 C 0.19733 0.3845 0.17074 0.0
C861 C 0.1838 0.3889 0.16494 0.0
C862 C 0.18553 0.39669 0.1514 0.0
C863 C 0.201 0.40022 0.14355 0.0
C864 C 0.21425 0.39588 0.14923 0.0
C865 C 0.22998 0.40107 0.13952 0.0
C866 C 0.22393 0.40914 0.12706 0.0
C867 C 0.20692 0.40855 0.12947 0.0
C868 C 0.22982 0.38208 0.1344 0.0
C869 C 0.24863 0.41688 0.14812 0.0
C870 C 0.16692 0.42935 0.09996 0.0
C871 C 0.16904 0.43796 0.08667 0.0
C872 C 0.1848 0.44187 0.07899 0.0
C873 C 0.19826 0.43736 0.08446 0.0
C874 C 0.19603 0.42889 0.09781 0.0
C875 C 0.18055 0.42501 0.10531 0.0
C876 C 0.18065 0.41623 0.11941 0.0
C877 C 0.19871 0.41543 0.1191 0.0
C878 C 0.20763 0.42285 0.10642 0.0
C879 C 0.163 0.39558 0.11846 0.0
C880 C 0.18175 0.43039 0.13221 0.0
H881 H 0.26362 0.40903 0.12481 0.0
H882 H 0.27007 0.43922 0.07788 0.0
H883 H 0.25722 0.46179 0.099 0.0
H884 H 0.23498 0.45808 0.09293 0.0
H885 H 0.25037 0.45782 0.07971 0.0
H886 H 0.22638 0.40427 0.07645 0.0
H887 H 0.23412 0.42602 0.0672 0.0
H888 H 0.21185 0.41461 0.07514 0.0
H889 H 0.22339 0.38493 0.16697 0.0
H890 H 0.17176 0.38615 0.17085 0.0
H891 H 0.17476 0.3997 0.14759 0.0
H892 H 0.21511 0.36971 0.13214 0.0
H893 H 0.23703 0.37804 0.14291 0.0
H894 H 0.23634 0.38303 0.12404 0.0
H895 H 0.24615 0.42668 0.15562 0.0
H896 H 0.25905 0.42673 0.14097 0.0
H897 H 0.25511 0.41017 0.15487 0.0
H898 H 0.29099 0.41719 0.11173 0.0
C899 C 0.2645 0.41549 0.11469 0.0
C900 C 0.49105 0.90092 0.24672 0.0
C901 C 0.50795 0.90469 0.24091 0.0
C902 C 0.51262 0.91398 0.22785 0.0
C903 C 0.48365 0.91513 0.22644 0.0
C904 C 0.4792 0.90627 0.23935 0.0
C905 C 0.46072 0.90326 0.24402 0.0
H906 H 0.38214 0.90912 0.2298 0.0
C907 C 0.46815 0.91839 0.2214 0.0
C908 C 0.45469 0.91151 0.23166 0.0
H909 H 0.39766 0.88832 0.26773 0.0
H910 H 0.42681 0.89542 0.25797 0.0
H911 H 0.42339 0.94726 0.22903 0.0
H912 H 0.39652 0.89 0.20593 0.0
H913 H 0.40865 0.90697 0.19335 0.0
H914 H 0.38978 0.90772 0.20201 0.0
H915 H 0.40475 0.93948 0.21472 0.0
H916 H 0.42906 0.95019 0.21081 0.0
C917 C 0.46461 0.9154 0.25887 0.0
C918 C 0.44719 0.88105 0.24435 0.0
C919 C 0.47058 0.94826 0.17346 0.0
C920 C 0.45806 0.95243 0.16559 0.0
C921 C 0.44099 0.9482 0.17137 0.0
C922 C 0.43649 0.94 0.18478 0.0
C923 C 0.44914 0.93588 0.19249 0.0
C924 C 0.46585 0.94002 0.18678 0.0
C925 C 0.47748 0.93439 0.19631 0.0
C926 C 0.46506 0.9263 0.20874 0.0
C927 C 0.44849 0.92721 0.20646 0.0
C928 C 0.49638 0.95313 0.20153 0.0
C929 C 0.47954 0.91847 0.18747 0.0
C930 C 0.39188 0.90624 0.23608 0.0
C931 C 0.38742 0.89795 0.24952 0.0
C932 C 0.40049 0.89431 0.25722 0.0
C933 C 0.41752 0.89857 0.25158 0.0
C934 C 0.42166 0.90664 0.23808 0.0
C935 C 0.40902 0.91052 0.23063 0.0
C936 C 0.416 0.91949 0.21659 0.0
C937 C 0.43485 0.92026 0.21684 0.0
C938 C 0.43802 0.9126 0.22941 0.0
C939 C 0.41835 0.94014 0.21769 0.0
C940 C 0.40204 0.90549 0.20373 0.0
H941 H 0.5049 0.92609 0.21066 0.0
H942 H 0.48718 0.89408 0.25685 0.0
H943 H 0.44884 0.87277 0.23495 0.0
H944 H 0.43218 0.87687 0.24328 0.0
H945 H 0.45015 0.87578 0.25456 0.0
H946 H 0.47876 0.92879 0.25981 0.0
H947 H 0.46415 0.90685 0.2682 0.0
H948 H 0.45469 0.92084 0.26022 0.0
H949 H 0.48366 0.95101 0.16921 0.0
H950 H 0.43117 0.95141 0.16558 0.0
H951 H 0.4233 0.93715 0.1886 0.0
H952 H 0.49427 0.96583 0.2035 0.0
H953 H 0.50672 0.95676 0.19322 0.0
H954 H 0.50274 0.9521 0.21209 0.0
H955 H 0.46655 0.90878 0.18013 0.0
H956 H 0.48138 0.90854 0.19445 0.0
H957 H 0.49149 0.9251 0.18051 0.0
H958 H 0.52546 0.91689 0.22308 0.0
C959 C 0.50059 0.9192 0.2206 0.0
C960 C 0.08752 0.48793 0.26482 0.0
C961 C 0.0859 0.47135 0.25705 0.0
C962 C 0.07862 0.46688 0.24226 0.0
C963 C 0.07525 0.49555 0.24309 0.0
C964 C 0.0822 0.49981 0.25763 0.0
C965 C 0.08378 0.51841 0.26412 0.0
H966 H 0.0773 0.59884 0.25452 0.0
C967 C 0.07162 0.51114 0.23879 0.0
C968 C 0.07658 0.52458 0.25107 0.0
H969 H 0.09587 0.58357 0.29404 0.0
H970 H 0.0893 0.55304 0.28161 0.0
H971 H 0.0972 0.58425 0.23249 0.0
H972 H 0.0409 0.55622 0.24604 0.0
H973 H 0.03893 0.54893 0.22736 0.0
H974 H 0.04848 0.57443 0.23322 0.0
H975 H 0.08031 0.59137 0.22719 0.0
H976 H 0.08152 0.57221 0.21681 0.0
C977 C 0.10486 0.53302 0.2689 0.0
C978 C 0.07063 0.51341 0.27666 0.0
C979 C 0.0474 0.50951 0.18641 0.0
C980 C 0.04298 0.52205 0.17911 0.0
C981 C 0.04487 0.53872 0.18705 0.0
C982 C 0.05127 0.54295 0.20194 0.0
C983 C 0.05586 0.5304 0.20903 0.0
C984 C 0.05374 0.51392 0.2013 0.0
C985 C 0.05913 0.50217 0.21066 0.0
C986 C 0.06487 0.51435 0.22528 0.0
C987 C 0.06304 0.53092 0.22423 0.0
C988 C 0.07598 0.50165 0.20426 0.0
C989 C 0.04142 0.48186 0.21132 0.0
C990 C 0.0797 0.58881 0.26057 0.0
C991 C 0.08725 0.59374 0.27528 0.0
C992 C 0.09036 0.58031 0.28265 0.0
C993 C 0.08647 0.56254 0.27542 0.0
C994 C 0.07944 0.5581 0.26062 0.0
C995 C 0.0759 0.57101 0.25351 0.0
C996 C 0.06833 0.56383 0.23781 0.0
C997 C 0.06821 0.54462 0.2366 0.0
C998 C 0.07481 0.54139 0.24997 0.0
C999 C 0.08241 0.57865 0.22796 0.0
C1000 C 0.04816 0.56077 0.23586 0.0
H1001 H 0.06786 0.47466 0.22398 0.0
H1002 H 0.09328 0.49188 0.27615 0.0
H1003 H 0.0576 0.49899 0.27401 0.0
H1004 H 0.06558 0.52383 0.2785 0.0
H1005 H 0.07771 0.51271 0.28705 0.0
H1006 H 0.11407 0.53146 0.26111 0.0
H1007 H 0.10896 0.53047 0.27991 0.0
H1008 H 0.10851 0.54841 0.26892 0.0
H1009 H 0.04587 0.49646 0.18068 0.0
H1010 H 0.04174 0.54873 0.18167 0.0
H1011 H 0.05256 0.55593 0.20732 0.0
H1012 H 0.08543 0.51562 0.19963 0.0
H1013 H 0.07106 0.48974 0.19533 0.0
H1014 H 0.08516 0.50001 0.21258 0.0
H1015 H 0.02849 0.48305 0.21148 0.0
H1016 H 0.04178 0.47497 0.22137 0.0
H1017 H 0.03945 0.47183 0.20164 0.0
H1018 H 0.07705 0.45406 0.23609 0.0
C1019 C 0.07323 0.47883 0.23526 0.0
C1020 C 0.40279 0.49513 0.25419 0.0
C1021 C 0.38807 0.47796 0.24659 0.0
C1022 C 0.39064 0.47224 0.23249 0.0
C1023 C 0.4219 0.50075 0.23371 0.0
C1024 C 0.41945 0.50625 0.24757 0.0
C1025 C 0.4362 0.52512 0.25405 0.0
H1026 H 0.52167 0.603 0.24622 0.0
C1027 C 0.44065 0.51577 0.22988 0.0
C1028 C 0.44909 0.53009 0.24176 0.0
H1029 H 0.48896 0.59141 0.28367 0.0
H1030 H 0.46493 0.56068 0.27135 0.0
H1031 H 0.51475 0.55922 0.24059 0.0
H1032 H 0.48775 0.58875 0.22215 0.0
H1033 H 0.48952 0.57459 0.20768 0.0
H1034 H 0.51069 0.59372 0.21781 0.0
H1035 H 0.52552 0.57724 0.22784 0.0
H1036 H 0.50988 0.55182 0.22178 0.0
C1037 C 0.44464 0.52098 0.26796 0.0
C1038 C 0.42967 0.54019 0.25676 0.0
C1039 C 0.46231 0.50991 0.1799 0.0
C1040 C 0.47858 0.52212 0.17305 0.0
C1041 C 0.49293 0.53935 0.18093 0.0
C1042 C 0.49103 0.54451 0.19528 0.0
C1043 C 0.47455 0.53239 0.20188 0.0
C1044 C 0.46057 0.51536 0.19424 0.0
C1045 C 0.44392 0.50448 0.20296 0.0
C1046 C 0.45025 0.51778 0.21708 0.0
C1047 C 0.46819 0.5341 0.21635 0.0
C1048 C 0.44188 0.48439 0.20542 0.0
C1049 C 0.42645 0.5034 0.19469 0.0
C1050 C 0.50946 0.59375 0.25186 0.0
C1051 C 0.50722 0.59974 0.26594 0.0
C1052 C 0.49093 0.58731 0.27275 0.0
C1053 C 0.47701 0.56941 0.26559 0.0
C1054 C 0.47931 0.56382 0.25142 0.0
C1055 C 0.49542 0.57584 0.24486 0.0
C1056 C 0.49549 0.56754 0.22979 0.0
C1057 C 0.4767 0.54863 0.22834 0.0
C1058 C 0.46725 0.54657 0.24101 0.0
C1059 C 0.51232 0.56383 0.22985 0.0
C1060 C 0.49602 0.58185 0.2187 0.0
H1061 H 0.40846 0.47842 0.21526 0.0
H1062 H 0.40145 0.49983 0.26512 0.0
H1063 H 0.41891 0.53823 0.24795 0.0
H1064 H 0.44112 0.55542 0.25659 0.0
H1065 H 0.42327 0.53853 0.26733 0.0
H1066 H 0.44333 0.50633 0.26658 0.0
H1067 H 0.43723 0.5213 0.27765 0.0
H1068 H 0.4599 0.53126 0.27037 0.0
H1069 H 0.45095 0.49668 0.17408 0.0
H1070 H 0.5057 0.54886 0.17597 0.0
H1071 H 0.50243 0.55785 0.20062 0.0
H1072 H 0.45596 0.4857 0.2074 0.0
H1073 H 0.43439 0.47379 0.1957 0.0
H1074 H 0.43453 0.47813 0.21518 0.0
H1075 H 0.4305 0.51681 0.18902 0.0
H1076 H 0.41591 0.50259 0.20203 0.0
H1077 H 0.41957 0.49075 0.18628 0.0
H1078 H 0.37949 0.45922 0.2263 0.0
C1079 C 0.40745 0.4835 0.22604 0.0
Tb1080 Tb 0.52058 0.01476 0.99768 0.0
C1081 C 0.51331 0.97728 0.0119 0.0
Tb1082 Tb 0.48049 0.98682 0.00618 0.0
O1083 O 0.53116 0.02327 0.02084 0.0
O1084 O 0.50334 0.01441 0.01405 0.0
O1085 O 0.52277 0.98925 0.00196 0.0
C1086 C 0.45031 0.9655 0.02048 0.0
O1087 O 0.49771 0.97601 0.01655 0.0
C1088 C 0.48617 0.98303 0.97873 0.0
C1089 C 0.48769 0.02494 0.9921 0.0
O1090 O 0.45575 0.95884 0.00969 0.0
O1091 O 0.4618 0.98409 0.02313 0.0
O1092 O 0.46987 0.9789 0.98307 0.0
O1093 O 0.4977 0.98718 0.98972 0.0
O1094 O 0.47618 0.01026 0.99951 0.0
O1095 O 0.50505 0.02883 0.98974 0.0
C1096 C 0.55084 0.03596 0.98334 0.0
O1097 O 0.53372 0.02531 0.97739 0.0
O1098 O 0.55091 0.03478 0.99736 0.0
C1099 C 0.51481 0.01892 0.02512 0.0
Tb1100 Tb 0.98466 0.50775 0.99808 0.0
C1101 C 0.0246 0.53992 0.01167 0.0
Tb1102 Tb 0.01293 0.4949 0.00781 0.0
O1103 O 0.98357 0.51673 0.02074 0.0
O1104 O 0.9889 0.49399 0.0158 0.0
O1105 O 0.00958 0.53633 0.00299 0.0
C1106 C 0.03747 0.48748 0.02206 0.0
O1107 O 0.02761 0.52586 0.01593 0.0
C1108 C 0.00932 0.49813 0.97981 0.0
C1109 C 0.97291 0.46268 0.99458 0.0
O1110 O 0.03947 0.49468 0.00949 0.0
O1111 O 0.02163 0.48447 0.02665 0.0
O1112 O 0.01363 0.48583 0.98503 0.0
O1113 O 0.00875 0.50876 0.99017 0.0
O1114 O 0.9879 0.46633 0.00331 0.0
O1115 O 0.97002 0.47674 0.99009 0.0
C1116 C 0.96089 0.51528 0.9828 0.0
O1117 O 0.95775 0.50718 0.99504 0.0
O1118 O 0.97739 0.51918 0.97922 0.0
C1119 C 0.98818 0.50468 0.02607 0.0
Tb1120 Tb 0.47847 0.49428 0.00348 0.0
C1121 C 0.48659 0.46117 0.99305 0.0
Tb1122 Tb 0.51859 0.5061 0.99621 0.0
O1123 O 0.46833 0.48762 0.98024 0.0
O1124 O 0.4961 0.50886 0.98697 0.0
O1125 O 0.47576 0.46552 0.00082 0.0
C1126 C 0.54883 0.51291 0.98239 0.0
O1127 O 0.50318 0.47478 0.98923 0.0
C1128 C 0.51225 0.50142 0.02376 0.0
C1129 C 0.5106 0.5393 0.00671 0.0
O1130 O 0.53215 0.50694 0.97613 0.0
O1131 O 0.54848 0.51491 0.99645 0.0
O1132 O 0.52865 0.5132 0.01945 0.0
O1133 O 0.50098 0.49162 0.0128 0.0
O1134 O 0.52162 0.53494 0.99919 0.0
O1135 O 0.49381 0.5257 0.01026 0.0
C1136 C 0.44823 0.48746 0.01725 0.0
O1137 O 0.44818 0.48348 0.00338 0.0
O1138 O 0.4653 0.49537 0.02335 0.0
C1139 C 0.48478 0.49931 0.97598 0.0
Tb1140 Tb 0.18642 0.34562 0.32928 0.0
C1141 C 0.17886 0.30764 0.3438 0.0
Tb1142 Tb 0.14605 0.31775 0.33743 0.0
O1143 O 0.19639 0.35375 0.35258 0.0
O1144 O 0.16875 0.34538 0.34531 0.0
O1145 O 0.19052 0.3222 0.33635 0.0
C1146 C 0.11572 0.29744 0.35189 0.0
O1147 O 0.16148 0.30385 0.34595 0.0
C1148 C 0.15212 0.31275 0.3102 0.0
C1149 C 0.15392 0.35523 0.32289 0.0
O1150 O 0.13302 0.3042 0.35708 0.0
O1151 O 0.11549 0.30195 0.33854 0.0
O1152 O 0.13555 0.30764 0.31437 0.0
O1153 O 0.16354 0.31798 0.32137 0.0
O1154 O 0.14464 0.34372 0.3331 0.0
O1155 O 0.16934 0.35609 0.3182 0.0
C1156 C 0.217 0.36691 0.31536 0.0
O1157 O 0.21093 0.37372 0.32558 0.0
O1158 O 0.20595 0.3482 0.31309 0.0
C1159 C 0.17992 0.34965 0.35652 0.0
Tb1160 Tb 0.65306 0.84008 0.32931 0.0
C1161 C 0.69273 0.87215 0.34323 0.0
Tb1162 Tb 0.68123 0.82726 0.33939 0.0
O1163 O 0.6518 0.84917 0.3519 0.0
O1164 O 0.65713 0.8264 0.34721 0.0
O1165 O 0.67811 0.86859 0.33409 0.0
C1166 C 0.70585 0.82015 0.35386 0.0
O1167 O 0.69533 0.85802 0.34795 0.0
C1168 C 0.67791 0.83029 0.31134 0.0
C1169 C 0.64135 0.79503 0.32576 0.0
O1170 O 0.70908 0.83008 0.34252 0.0
O1171 O 0.68872 0.81418 0.35707 0.0
O1172 O 0.68236 0.81818 0.31674 0.0
O1173 O 0.67719 0.84097 0.32159 0.0
O1174 O 0.65632 0.79868 0.33453 0.0
O1175 O 0.63835 0.80906 0.32137 0.0
C1176 C 0.62929 0.8479 0.31431 0.0
O1177 O 0.62669 0.84066 0.32689 0.0
O1178 O 0.64524 0.8507 0.31017 0.0
C1179 C 0.65632 0.83714 0.35738 0.0
Tb1180 Tb 0.14425 0.82601 0.33671 0.0
C1181 C 0.15354 0.79207 0.32915 0.0
Tb1182 Tb 0.18619 0.8363 0.33101 0.0
O1183 O 0.1422 0.83793 0.31605 0.0
O1184 O 0.15984 0.82627 0.31908 0.0
O1185 O 0.14192 0.79723 0.33493 0.0
C1186 C 0.21675 0.84623 0.31693 0.0
O1187 O 0.17053 0.80487 0.32537 0.0
C1188 C 0.18003 0.83425 0.35898 0.0
C1189 C 0.177 0.86991 0.34022 0.0
O1190 O 0.21057 0.8334 0.32652 0.0
O1191 O 0.20576 0.85353 0.31534 0.0
O1192 O 0.19609 0.83792 0.35435 0.0
O1193 O 0.16941 0.83193 0.34791 0.0
O1194 O 0.18843 0.86502 0.33376 0.0
O1195 O 0.15988 0.85699 0.34366 0.0
C1196 C 0.11132 0.8129 0.34813 0.0
O1197 O 0.11336 0.81117 0.33429 0.0
O1198 O 0.12777 0.82207 0.35543 0.0
C1199 C 0.15517 0.8353 0.31055 0.0
Tb1200 Tb 0.85355 0.68169 0.6639 0.0
C1201 C 0.84688 0.64431 0.67817 0.0
Tb1202 Tb 0.81341 0.65268 0.67171 0.0
O1203 O 0.86358 0.69082 0.6871 0.0
O1204 O 0.83558 0.68059 0.67988 0.0
O1205 O 0.85646 0.65665 0.66847 0.0
C1206 C 0.78279 0.63112 0.68547 0.0
O1207 O 0.83079 0.64226 0.68239 0.0
C1208 C 0.82018 0.64935 0.64449 0.0
C1209 C 0.81999 0.69065 0.65761 0.0
O1210 O 0.78834 0.62463 0.67465 0.0
O1211 O 0.79446 0.6496 0.68848 0.0
O1212 O 0.80358 0.64466 0.64845 0.0
O1213 O 0.83144 0.6538 0.6557 0.0
O1214 O 0.8085 0.67565 0.66477 0.0
O1215 O 0.83761 0.69514 0.65565 0.0
C1216 C 0.88371 0.70337 0.64965 0.0
O1217 O 0.8665 0.69339 0.6438 0.0
O1218 O 0.88394 0.70129 0.66356 0.0
C1219 C 0.84691 0.6856 0.6911 0.0
Tb1220 Tb 0.3163 0.17383 0.66258 0.0
C1221 C 0.3578 0.20595 0.67448 0.0
Tb1222 Tb 0.34666 0.16122 0.67128 0.0
O1223 O 0.31539 0.18136 0.68567 0.0
O1224 O 0.32264 0.16039 0.67959 0.0
O1225 O 0.34206 0.20205 0.66661 0.0
C1226 C 0.36804 0.15061 0.68646 0.0
O1227 O 0.36154 0.19228 0.67856 0.0
C1228 C 0.34652 0.1697 0.64374 0.0
C1229 C 0.30565 0.12937 0.65822 0.0
O1230 O 0.35964 0.14314 0.67346 0.0
O1231 O 0.36444 0.16413 0.69092 0.0
O1232 O 0.35776 0.16413 0.64931 0.0
O1233 O 0.33765 0.17089 0.65396 0.0
O1234 O 0.32077 0.13311 0.6669 0.0
O1235 O 0.30232 0.14322 0.6539 0.0
C1236 C 0.29273 0.18236 0.64828 0.0
O1237 O 0.28833 0.17053 0.65856 0.0
O1238 O 0.31036 0.18935 0.64609 0.0
C1239 C 0.32164 0.17025 0.69032 0.0
Tb1240 Tb 0.81088 0.16041 0.67202 0.0
C1241 C 0.8202 0.12851 0.66 0.0
Tb1242 Tb 0.85172 0.17375 0.66433 0.0
O1243 O 0.80069 0.15324 0.64875 0.0
O1244 O 0.82827 0.17509 0.65541 0.0
O1245 O 0.80814 0.13203 0.66676 0.0
C1246 C 0.88166 0.18231 0.64961 0.0
O1247 O 0.83731 0.14249 0.65741 0.0
C1248 C 0.8462 0.16839 0.69193 0.0
C1249 C 0.8423 0.20503 0.67639 0.0
O1250 O 0.86438 0.16945 0.6451 0.0
O1251 O 0.88211 0.19028 0.66243 0.0
O1252 O 0.86284 0.17844 0.68742 0.0
O1253 O 0.83453 0.15962 0.681 0.0
O1254 O 0.8522 0.20141 0.667 0.0
O1255 O 0.82693 0.19083 0.68135 0.0
C1256 C 0.77989 0.15072 0.68562 0.0
O1257 O 0.78581 0.16271 0.67548 0.0
O1258 O 0.79135 0.14419 0.68803 0.0
C1259 C 0.81706 0.16526 0.64446 0.0
H1260 H 0.30199 0.89609 0.09046 0.0
H1261 H 0.3318 0.91432 0.07942 0.0
H1262 H 0.32666 0.86036 0.0617 0.0
H1263 H 0.29716 0.84196 0.07302 0.0
H1264 H 0.36586 0.90914 0.08334 0.0
H1265 H 0.33323 0.89471 0.02613 0.0
H1266 H 0.32025 0.89291 0.04183 0.0
H1267 H 0.32543 0.87406 0.03679 0.0
C1268 C 0.30728 0.88807 0.08436 0.0
C1269 C 0.2971 0.86754 0.08258 0.0
C1270 C 0.32426 0.89852 0.07801 0.0
C1271 C 0.33127 0.88865 0.06967 0.0
C1272 C 0.32131 0.86821 0.06796 0.0
H1273 H 0.42561 0.92637 0.01629 0.0
H1274 H 0.39731 0.90743 0.02901 0.0
C1275 C 0.3044 0.85774 0.07437 0.0
C1276 C 0.349 0.89971 0.06269 0.0
H1277 H 0.36642 0.91138 0.02948 0.0
C1278 C 0.36605 0.90971 0.07157 0.0
C1279 C 0.34909 0.90025 0.04735 0.0
C1280 C 0.33105 0.89004 0.0374 0.0
C1281 C 0.38333 0.92008 0.06547 0.0
C1282 C 0.38343 0.92083 0.0501 0.0
C1283 C 0.36632 0.91077 0.04125 0.0
C1284 C 0.40105 0.93218 0.04295 0.0
C1285 C 0.40131 0.92974 0.0755 0.0
C1286 C 0.41248 0.95236 0.04652 0.0
C1287 C 0.42868 0.96314 0.03934 0.0
C1288 C 0.43356 0.95395 0.02833 0.0
C1289 C 0.42214 0.93378 0.02474 0.0
C1290 C 0.40599 0.92298 0.03199 0.0
H1291 H 0.39928 0.92303 0.08606 0.0
H1292 H 0.4128 0.92882 0.07033 0.0
H1293 H 0.40584 0.94538 0.07795 0.0
H1294 H 0.40871 0.95986 0.05467 0.0
H1295 H 0.43723 0.97871 0.04226 0.0
H1296 H 0.13059 0.41587 0.08547 0.0
H1297 H 0.10744 0.42412 0.07554 0.0
H1298 H 0.15245 0.47941 0.06468 0.0
H1299 H 0.17569 0.47143 0.0748 0.0
H1300 H 0.12228 0.48064 0.0794 0.0
H1301 H 0.09672 0.42627 0.0308 0.0
H1302 H 0.09718 0.4172 0.04827 0.0
H1303 H 0.1189 0.43421 0.04132 0.0
C1304 C 0.13555 0.42984 0.08107 0.0
C1305 C 0.15496 0.44297 0.08084 0.0
C1306 C 0.12232 0.43446 0.07532 0.0
C1307 C 0.12828 0.45227 0.06927 0.0
C1308 C 0.14761 0.46555 0.06925 0.0
H1309 H 0.06932 0.49059 0.01214 0.0
H1310 H 0.09116 0.48215 0.02434 0.0
C1311 C 0.16084 0.46091 0.07493 0.0
C1312 C 0.11439 0.45707 0.06283 0.0
H1313 H 0.0813 0.44438 0.03407 0.0
C1314 C 0.11325 0.4727 0.06953 0.0
C1315 C 0.10281 0.44675 0.04988 0.0
C1316 C 0.10397 0.43025 0.04203 0.0
C1317 C 0.10073 0.47826 0.0636 0.0
C1318 C 0.08905 0.46784 0.05071 0.0
C1319 C 0.09022 0.45223 0.04401 0.0
C1320 C 0.076 0.47335 0.04367 0.0
C1321 C 0.10036 0.49551 0.07094 0.0
C1322 C 0.06024 0.47112 0.05051 0.0
C1323 C 0.04772 0.47587 0.04354 0.0
C1324 C 0.05082 0.48291 0.02964 0.0
C1325 C 0.06665 0.48522 0.02286 0.0
C1326 C 0.0791 0.48039 0.0298 0.0
H1327 H 0.11263 0.50415 0.07914 0.0
H1328 H 0.10026 0.50522 0.0627 0.0
H1329 H 0.0873 0.49023 0.07662 0.0
H1330 H 0.05752 0.46547 0.06115 0.0
H1331 H 0.03558 0.47394 0.04897 0.0
H1332 H 0.57633 0.72531 0.03584 0.0
H1333 H 0.56597 0.69244 0.02467 0.0
H1334 H 0.54803 0.66897 0.06593 0.0
H1335 H 0.558 0.70161 0.07713 0.0
H1336 H 0.57037 0.65589 0.05151 0.0
H1337 H 0.51027 0.64797 0.01512 0.0
H1338 H 0.53263 0.66963 0.01393 0.0
H1339 H 0.52114 0.66619 0.03052 0.0
C1340 C 0.57002 0.71313 0.0425 0.0
C1341 C 0.568 0.7161 0.05738 0.0
C1342 C 0.56413 0.69438 0.03611 0.0
C1343 C 0.55609 0.6783 0.04446 0.0
C1344 C 0.55422 0.68122 0.05932 0.0
H1345 H 0.49177 0.55436 0.02126 0.0
H1346 H 0.50335 0.58847 0.02969 0.0
C1347 C 0.56004 0.69991 0.06571 0.0
C1348 C 0.54975 0.65838 0.03784 0.0
H1349 H 0.51687 0.62221 0.01314 0.0
C1350 C 0.55873 0.64853 0.04308 0.0
C1351 C 0.53444 0.64883 0.02695 0.0
C1352 C 0.52391 0.65857 0.02133 0.0
C1353 C 0.5528 0.62929 0.03771 0.0
C1354 C 0.53761 0.61979 0.02672 0.0
C1355 C 0.52861 0.62964 0.02148 0.0
C1356 C 0.53042 0.59934 0.02095 0.0
C1357 C 0.56251 0.61909 0.04408 0.0
C1358 C 0.54171 0.59426 0.01302 0.0
C1359 C 0.53515 0.57478 0.00816 0.0
C1360 C 0.51715 0.56005 0.01113 0.0
C1361 C 0.50572 0.5653 0.0188 0.0
C1362 C 0.51229 0.58479 0.02362 0.0
H1363 H 0.57126 0.62697 0.05444 0.0
H1364 H 0.55203 0.60397 0.04622 0.0
H1365 H 0.57186 0.61827 0.03613 0.0
H1366 H 0.55566 0.60535 0.01069 0.0
H1367 H 0.54431 0.57129 0.00225 0.0
H1368 H 0.85114 0.27848 0.96232 0.0
H1369 H 0.87397 0.31094 0.97403 0.0
H1370 H 0.88034 0.33469 0.93218 0.0
H1371 H 0.8574 0.30245 0.92042 0.0
H1372 H 0.91486 0.34601 0.94899 0.0
H1373 H 0.86492 0.35759 0.98082 0.0
H1374 H 0.86499 0.33526 0.98313 0.0
H1375 H 0.85711 0.33909 0.96567 0.0
C1376 C 0.85725 0.29065 0.95564 0.0
C1377 C 0.85243 0.28786 0.94043 0.0
C1378 C 0.8703 0.30917 0.96234 0.0
C1379 C 0.87869 0.32521 0.95398 0.0
C1380 C 0.87402 0.32247 0.93882 0.0
H1381 H 0.93976 0.44907 0.97753 0.0
H1382 H 0.91727 0.41536 0.96834 0.0
C1383 C 0.86098 0.30401 0.93211 0.0
C1384 C 0.89252 0.34489 0.96092 0.0
H1385 H 0.89708 0.38197 0.98452 0.0
C1386 C 0.91102 0.35386 0.9568 0.0
C1387 C 0.88736 0.35512 0.97099 0.0
C1388 C 0.86749 0.3464 0.97537 0.0
C1389 C 0.92455 0.37285 0.9625 0.0
C1390 C 0.91944 0.38301 0.97267 0.0
C1391 C 0.90095 0.37404 0.9768 0.0
C1392 C 0.93293 0.40328 0.97868 0.0
C1393 C 0.94406 0.38209 0.9573 0.0
C1394 C 0.94905 0.40759 0.98772 0.0
C1395 C 0.96196 0.42686 0.99302 0.0
C1396 C 0.95895 0.44216 0.9894 0.0
C1397 C 0.94259 0.4377 0.98052 0.0
C1398 C 0.92968 0.41843 0.97527 0.0
H1399 H 0.94457 0.37392 0.94732 0.0
H1400 H 0.94899 0.3974 0.95494 0.0
H1401 H 0.95401 0.3823 0.96604 0.0
H1402 H 0.95166 0.39604 0.99063 0.0
H1403 H 0.97437 0.42975 0.99986 0.0
H1404 H 0.6852 0.55042 0.90081 0.0
H1405 H 0.65544 0.54242 0.91094 0.0
H1406 H 0.68419 0.56155 0.95431 0.0
H1407 H 0.71406 0.57023 0.94425 0.0
H1408 H 0.63738 0.51598 0.93123 0.0
H1409 H 0.65478 0.5903 0.95231 0.0
H1410 H 0.66859 0.58602 0.93953 0.0
H1411 H 0.67184 0.58393 0.95873 0.0
C1412 C 0.68524 0.55325 0.91247 0.0
C1413 C 0.70201 0.56102 0.92172 0.0
C1414 C 0.66821 0.54854 0.91825 0.0
C1415 C 0.66766 0.55164 0.93334 0.0
C1416 C 0.68436 0.55939 0.9426 0.0
H1417 H 0.58453 0.52667 0.99454 0.0
H1418 H 0.6128 0.53555 0.98177 0.0
C1419 C 0.70138 0.56412 0.93684 0.0
C1420 C 0.64954 0.54606 0.93954 0.0
H1421 H 0.62753 0.56376 0.96076 0.0
C1422 C 0.63512 0.52644 0.93756 0.0
C1423 C 0.64665 0.55977 0.94776 0.0
C1424 C 0.66121 0.58121 0.9496 0.0
C1425 C 0.61812 0.52003 0.94402 0.0
C1426 C 0.61545 0.53366 0.95254 0.0
C1427 C 0.6297 0.55334 0.95428 0.0
C1428 C 0.59817 0.52775 0.96009 0.0
C1429 C 0.6034 0.49864 0.9421 0.0
C1430 C 0.58063 0.52051 0.95209 0.0
C1431 C 0.56447 0.51543 0.95936 0.0
C1432 C 0.56568 0.5176 0.97472 0.0
C1433 C 0.58323 0.52481 0.98269 0.0
C1434 C 0.59936 0.52991 0.97543 0.0
H1435 H 0.60917 0.48953 0.9378 0.0
H1436 H 0.59751 0.49346 0.95264 0.0
H1437 H 0.59167 0.49644 0.93422 0.0
H1438 H 0.57948 0.51903 0.94024 0.0
H1439 H 0.5511 0.51002 0.95297 0.0
H1440 H 0.43823 0.12082 0.9115 0.0
H1441 H 0.4485 0.10096 0.92418 0.0
H1442 H 0.42811 0.11158 0.96396 0.0
H1443 H 0.41742 0.1312 0.9513 0.0
H1444 H 0.46591 0.11781 0.96691 0.0
H1445 H 0.41417 0.04585 0.93787 0.0
H1446 H 0.42684 0.06487 0.92618 0.0
H1447 H 0.41093 0.06676 0.93797 0.0
C1448 C 0.43563 0.11869 0.92288 0.0
C1449 C 0.4269 0.12752 0.93036 0.0
C1450 C 0.44157 0.10738 0.93011 0.0
C1451 C 0.43887 0.10467 0.94494 0.0
C1452 C 0.43027 0.11351 0.95249 0.0
H1453 H 0.45287 0.02119 0.99366 0.0
H1454 H 0.4412 0.04116 0.98302 0.0
C1455 C 0.42426 0.12477 0.94525 0.0
C1456 C 0.44546 0.09297 0.95264 0.0
H1457 H 0.4392 0.04714 0.95293 0.0
C1458 C 0.46004 0.10234 0.96393 0.0
C1459 C 0.4376 0.07278 0.94878 0.0
C1460 C 0.4214 0.06187 0.93713 0.0
C1461 C 0.46729 0.09209 0.97126 0.0
C1462 C 0.45984 0.07203 0.96708 0.0
C1463 C 0.44497 0.06257 0.95602 0.0
C1464 C 0.46729 0.06055 0.97401 0.0
C1465 C 0.48275 0.10275 0.98349 0.0
C1466 C 0.48582 0.06484 0.9724 0.0
C1467 C 0.49257 0.05346 0.97845 0.0
C1468 C 0.48086 0.03753 0.98619 0.0
C1469 C 0.46231 0.03337 0.98782 0.0
C1470 C 0.45559 0.04474 0.98174 0.0
H1471 H 0.48376 0.11666 0.98764 0.0
H1472 H 0.48041 0.09353 0.99273 0.0
H1473 H 0.49645 0.10621 0.97937 0.0
H1474 H 0.49497 0.0768 0.96625 0.0
H1475 H 0.50688 0.05702 0.9769 0.0
H1476 H 0.68571 0.12505 0.89949 0.0
H1477 H 0.65589 0.10636 0.91042 0.0
H1478 H 0.68625 0.11792 0.95282 0.0
H1479 H 0.71611 0.13639 0.94199 0.0
H1480 H 0.64344 0.0732 0.92699 0.0
H1481 H 0.64845 0.137 0.95919 0.0
H1482 H 0.66276 0.13948 0.94427 0.0
H1483 H 0.66883 0.13434 0.96192 0.0
C1484 C 0.68606 0.12345 0.91111 0.0
C1485 C 0.7033 0.13234 0.91988 0.0
C1486 C 0.66901 0.11285 0.91735 0.0
C1487 C 0.66888 0.11106 0.93245 0.0
C1488 C 0.68604 0.11951 0.94118 0.0
H1489 H 0.58728 0.05742 0.99482 0.0
H1490 H 0.61532 0.07526 0.98164 0.0
C1491 C 0.70308 0.13007 0.93497 0.0
C1492 C 0.65081 0.10033 0.93914 0.0
H1493 H 0.6244 0.10571 0.96447 0.0
C1494 C 0.63916 0.08029 0.9351 0.0
C1495 C 0.64531 0.10968 0.94968 0.0
C1496 C 0.65688 0.13135 0.95395 0.0
C1497 C 0.62241 0.06918 0.94173 0.0
C1498 C 0.61706 0.07849 0.95246 0.0
C1499 C 0.62857 0.09861 0.95628 0.0
C1500 C 0.59992 0.06756 0.96025 0.0
C1501 C 0.61093 0.04749 0.93754 0.0
C1502 C 0.58194 0.0575 0.95261 0.0
C1503 C 0.56591 0.04724 0.96013 0.0
C1504 C 0.56763 0.04705 0.9754 0.0
C1505 C 0.58558 0.05734 0.98304 0.0
C1506 C 0.60159 0.06753 0.97553 0.0
H1507 H 0.61923 0.04196 0.93192 0.0
H1508 H 0.60563 0.03938 0.94732 0.0
H1509 H 0.5986 0.04429 0.92995 0.0
H1510 H 0.58029 0.05768 0.94086 0.0
H1511 H 0.5522 0.03946 0.95402 0.0
H1512 H 0.85056 0.57476 0.93561 0.0
H1513 H 0.87135 0.56518 0.94813 0.0
H1514 H 0.87634 0.53995 0.90708 0.0
H1515 H 0.85532 0.54919 0.89451 0.0
H1516 H 0.86829 0.51578 0.93128 0.0
H1517 H 0.92919 0.59079 0.94464 0.0
H1518 H 0.90689 0.58705 0.94983 0.0
H1519 H 0.91035 0.58517 0.9308 0.0
C1520 C 0.85601 0.56708 0.92927 0.0
C1521 C 0.85138 0.56279 0.91407 0.0
C1522 C 0.86799 0.56177 0.93641 0.0
C1523 C 0.87551 0.55207 0.92847 0.0
C1524 C 0.87075 0.54755 0.91335 0.0
H1525 H 0.96664 0.5326 0.95733 0.0
H1526 H 0.94549 0.54075 0.94359 0.0
C1527 C 0.85885 0.55294 0.90619 0.0
C1528 C 0.88819 0.54643 0.93599 0.0
H1529 H 0.93126 0.56512 0.95501 0.0
C1530 C 0.88208 0.52653 0.93645 0.0
C1531 C 0.90621 0.56054 0.94256 0.0
C1532 C 0.9137 0.5821 0.94187 0.0
C1533 C 0.89344 0.52035 0.94358 0.0
C1534 C 0.91127 0.53446 0.95047 0.0
C1535 C 0.91751 0.55436 0.94978 0.0
C1536 C 0.92367 0.5289 0.95851 0.0
C1537 C 0.88641 0.49879 0.94358 0.0
C1538 C 0.91837 0.51959 0.97143 0.0
C1539 C 0.93042 0.51498 0.9793 0.0
C1540 C 0.94796 0.51967 0.97436 0.0
C1541 C 0.95319 0.52887 0.96137 0.0
C1542 C 0.94116 0.53352 0.95353 0.0
H1543 H 0.8744 0.49005 0.93519 0.0
H1544 H 0.89788 0.49564 0.94155 0.0
H1545 H 0.88158 0.494 0.95446 0.0
H1546 H 0.90502 0.51616 0.97554 0.0
H1547 H 0.9261 0.50792 0.98931 0.0
H1548 H 0.40587 0.28375 0.93483 0.0
H1549 H 0.41528 0.31663 0.94536 0.0
H1550 H 0.46618 0.32202 0.96601 0.0
H1551 H 0.45698 0.28926 0.95544 0.0
H1552 H 0.44738 0.33533 0.98441 0.0
H1553 H 0.4579 0.3666 0.93063 0.0
H1554 H 0.43512 0.34562 0.93191 0.0
H1555 H 0.45572 0.34316 0.93302 0.0
C1556 C 0.4191 0.29197 0.94156 0.0
C1557 C 0.43074 0.28394 0.94422 0.0
C1558 C 0.42444 0.31072 0.94758 0.0
C1559 C 0.44154 0.32181 0.95628 0.0
C1560 C 0.45293 0.31367 0.9593 0.0
H1561 H 0.50486 0.44648 0.97736 0.0
H1562 H 0.49371 0.41241 0.96926 0.0
C1563 C 0.44761 0.29492 0.9533 0.0
C1564 C 0.4478 0.34209 0.962 0.0
H1565 H 0.46102 0.38737 0.95129 0.0
C1566 C 0.45035 0.34673 0.9772 0.0
C1567 C 0.45188 0.35693 0.95253 0.0
C1568 C 0.45019 0.35295 0.93611 0.0
C1569 C 0.45676 0.36585 0.9832 0.0
C1570 C 0.46049 0.38061 0.97372 0.0
C1571 C 0.45803 0.37597 0.95852 0.0
C1572 C 0.46741 0.4011 0.97928 0.0
C1573 C 0.45988 0.3702 0.99961 0.0
C1574 C 0.45628 0.40602 0.98759 0.0
C1575 C 0.46262 0.42551 0.99229 0.0
C1576 C 0.48017 0.44043 0.98867 0.0
C1577 C 0.4913 0.43539 0.98039 0.0
C1578 C 0.48495 0.41592 0.97572 0.0
H1579 H 0.46067 0.35849 0.00516 0.0
H1580 H 0.47305 0.38426 0.00281 0.0
H1581 H 0.44795 0.37139 0.00362 0.0
H1582 H 0.44254 0.39482 0.99022 0.0
H1583 H 0.45363 0.42887 0.99856 0.0
H1584 H 0.1201 0.71798 0.06951 0.0
H1585 H 0.09696 0.68498 0.05901 0.0
H1586 H 0.1418 0.67657 0.04476 0.0
H1587 H 0.16506 0.70939 0.0554 0.0
H1588 H 0.11072 0.66423 0.02325 0.0
H1589 H 0.08834 0.63445 0.07673 0.0
H1590 H 0.08737 0.65614 0.07372 0.0
H1591 H 0.10975 0.65719 0.07519 0.0
C1592 C 0.12506 0.70907 0.06423 0.0
C1593 C 0.14445 0.71631 0.06336 0.0
C1594 C 0.11181 0.69024 0.05822 0.0
C1595 C 0.11771 0.67829 0.05128 0.0
C1596 C 0.13699 0.68559 0.05009 0.0
H1597 H 0.05611 0.55325 0.0307 0.0
H1598 H 0.07866 0.587 0.03977 0.0
C1599 C 0.15024 0.70439 0.05611 0.0
C1600 C 0.10384 0.65809 0.04537 0.0
H1601 H 0.07143 0.61355 0.05545 0.0
C1602 C 0.10209 0.65313 0.03026 0.0
C1603 C 0.09281 0.64364 0.0546 0.0
C1604 C 0.0947 0.64799 0.07098 0.0
C1605 C 0.08946 0.63407 0.0241 0.0
C1606 C 0.07817 0.61972 0.0333 0.0
C1607 C 0.08002 0.62465 0.04842 0.0
C1608 C 0.06459 0.59935 0.0275 0.0
C1609 C 0.08857 0.62937 0.00785 0.0
C1610 C 0.04912 0.59512 0.01768 0.0
C1611 C 0.03619 0.57583 0.01245 0.0
C1612 C 0.03846 0.56041 0.01699 0.0
C1613 C 0.05396 0.56474 0.02689 0.0
C1614 C 0.06685 0.58402 0.03213 0.0
H1615 H 0.10114 0.64061 0.00296 0.0
H1616 H 0.08747 0.61495 0.0055 0.0
H1617 H 0.07589 0.62875 0.00241 0.0
H1618 H 0.04694 0.60672 0.01419 0.0
H1619 H 0.02438 0.57304 0.0049 0.0
H1620 H 0.3193 0.447 0.10555 0.0
H1621 H 0.34764 0.4575 0.09255 0.0
H1622 H 0.31316 0.43379 0.05157 0.0
H1623 H 0.28479 0.42331 0.06447 0.0
H1624 H 0.35835 0.43604 0.0749 0.0
H1625 H 0.35019 0.4897 0.04357 0.0
H1626 H 0.33683 0.47916 0.05891 0.0
H1627 H 0.32995 0.4656 0.04123 0.0
C1628 C 0.31776 0.44389 0.09378 0.0
C1629 C 0.29983 0.43444 0.08601 0.0
C1630 C 0.33395 0.44998 0.08637 0.0
C1631 C 0.3325 0.44676 0.07108 0.0
C1632 C 0.31461 0.43687 0.06333 0.0
H1633 H 0.41153 0.46806 0.00598 0.0
H1634 H 0.38357 0.45846 0.01938 0.0
C1635 C 0.29842 0.43086 0.07072 0.0
C1636 C 0.34971 0.45354 0.06325 0.0
H1637 H 0.37386 0.48263 0.03684 0.0
C1638 C 0.36182 0.44632 0.06664 0.0
C1639 C 0.35419 0.46697 0.0525 0.0
C1640 C 0.34221 0.47597 0.04891 0.0
C1641 C 0.37809 0.45185 0.05933 0.0
C1642 C 0.38244 0.46512 0.04849 0.0
C1643 C 0.37041 0.47241 0.04514 0.0
C1644 C 0.39937 0.47148 0.04041 0.0
C1645 C 0.39028 0.44312 0.06302 0.0
C1646 C 0.41746 0.48231 0.04777 0.0
C1647 C 0.43338 0.48782 0.04013 0.0
C1648 C 0.43145 0.48261 0.02505 0.0
C1649 C 0.41337 0.4722 0.01762 0.0
C1650 C 0.39743 0.46672 0.02525 0.0
H1651 H 0.38282 0.43 0.06913 0.0
H1652 H 0.39488 0.43903 0.05294 0.0
H1653 H 0.40307 0.45409 0.06997 0.0
H1654 H 0.41925 0.48646 0.05941 0.0
H1655 H 0.44721 0.49606 0.04599 0.0
H1656 H 0.58549 0.87248 0.05193 0.0
H1657 H 0.57555 0.8931 0.03984 0.0
H1658 H 0.54951 0.89742 0.07838 0.0
H1659 H 0.55961 0.87709 0.09056 0.0
H1660 H 0.54043 0.88724 0.03316 0.0
H1661 H 0.58139 0.95407 0.07108 0.0
H1662 H 0.58552 0.93378 0.07111 0.0
H1663 H 0.56645 0.93313 0.08036 0.0
C1664 C 0.57766 0.87787 0.05781 0.0
C1665 C 0.57347 0.87334 0.07223 0.0
C1666 C 0.57204 0.88967 0.05091 0.0
C1667 C 0.56213 0.89712 0.05831 0.0
C1668 C 0.55764 0.89232 0.07262 0.0
H1669 H 0.50282 0.9574 0.03625 0.0
H1670 H 0.51506 0.93784 0.04686 0.0
C1671 C 0.56337 0.88066 0.07955 0.0
C1672 C 0.55593 0.90941 0.05095 0.0
H1673 H 0.55735 0.95318 0.05468 0.0
C1674 C 0.54429 0.90174 0.03778 0.0
C1675 C 0.56105 0.92836 0.05697 0.0
C1676 C 0.57445 0.93791 0.07058 0.0
C1677 C 0.53718 0.91229 0.03072 0.0
C1678 C 0.54187 0.93095 0.03699 0.0
C1679 C 0.55372 0.93877 0.05 0.0
C1680 C 0.53433 0.94246 0.03032 0.0
C1681 C 0.52432 0.90332 0.01681 0.0
C1682 C 0.54125 0.95157 0.01757 0.0
C1683 C 0.53438 0.96285 0.01151 0.0
C1684 C 0.52039 0.96507 0.01808 0.0
C1685 C 0.51346 0.95583 0.03084 0.0
C1686 C 0.52047 0.94471 0.03695 0.0
H1687 H 0.52023 0.88779 0.01431 0.0
H1688 H 0.51137 0.90428 0.01763 0.0
H1689 H 0.53159 0.91157 0.00753 0.0
H1690 H 0.55208 0.95008 0.0124 0.0
H1691 H 0.54001 0.96979 0.00168 0.0
H1692 H 0.9653 0.22779 0.42047 0.0
H1693 H 0.99457 0.24658 0.40883 0.0
H1694 H 0.99832 0.1946 0.401 0.0
H1695 H 0.96888 0.17571 0.41231 0.0
H1696 H 0.03005 0.25385 0.41514 0.0
H1697 H 0.00215 0.21276 0.36057 0.0
H1698 H 0.98715 0.21008 0.37497 0.0
H1699 H 0.0002 0.19739 0.3748 0.0
C1700 C 0.97242 0.22042 0.4163 0.0
C1701 C 0.96474 0.20026 0.41715 0.0
C1702 C 0.98911 0.23114 0.40964 0.0
C1703 C 0.99843 0.22192 0.40378 0.0
C1704 C 0.99109 0.20192 0.40506 0.0
H1705 H 0.11383 0.28276 0.37834 0.0
H1706 H 0.08564 0.26454 0.39137 0.0
C1707 C 0.97431 0.19115 0.41156 0.0
C1708 C 0.0158 0.23322 0.3963 0.0
H1709 H 0.03516 0.23473 0.36407 0.0
C1710 C 0.03117 0.24974 0.40395 0.0
C1711 C 0.01713 0.22799 0.38163 0.0
C1712 C 0.00071 0.21121 0.37245 0.0
C1713 C 0.04791 0.26108 0.39738 0.0
C1714 C 0.04947 0.25542 0.38289 0.0
C1715 C 0.03403 0.23897 0.37522 0.0
C1716 C 0.06671 0.2666 0.37521 0.0
C1717 C 0.06352 0.27924 0.40594 0.0
C1718 C 0.06537 0.27325 0.36158 0.0
C1719 C 0.08132 0.2832 0.35399 0.0
C1720 C 0.09895 0.28682 0.35994 0.0
C1721 C 0.10038 0.28024 0.37358 0.0
C1722 C 0.08433 0.27001 0.38109 0.0
H1723 H 0.05806 0.28467 0.41475 0.0
H1724 H 0.07385 0.27581 0.4112 0.0
H1725 H 0.071 0.2911 0.39873 0.0
H1726 H 0.05193 0.27074 0.3568 0.0
H1727 H 0.07987 0.28817 0.3435 0.0
H1728 H 0.84452 0.80211 0.40349 0.0
H1729 H 0.82167 0.81049 0.39325 0.0
H1730 H 0.77718 0.76243 0.41266 0.0
H1731 H 0.79976 0.75349 0.42259 0.0
H1732 H 0.7864 0.78203 0.37404 0.0
H1733 H 0.77396 0.81314 0.42519 0.0
H1734 H 0.79523 0.81207 0.42331 0.0
H1735 H 0.77359 0.7903 0.42573 0.0
C1736 C 0.82986 0.79321 0.40552 0.0
C1737 C 0.82399 0.77708 0.41385 0.0
C1738 C 0.81687 0.79813 0.39974 0.0
C1739 C 0.79784 0.78717 0.40233 0.0
C1740 C 0.7919 0.77121 0.41074 0.0
H1741 H 0.69953 0.79644 0.37588 0.0
H1742 H 0.72174 0.78809 0.38769 0.0
C1743 C 0.80485 0.76619 0.41644 0.0
C1744 C 0.78404 0.79193 0.39566 0.0
H1745 H 0.75572 0.81059 0.40361 0.0
C1746 C 0.77969 0.78831 0.38047 0.0
C1747 C 0.77525 0.79991 0.40415 0.0
C1748 C 0.77974 0.80423 0.4205 0.0
C1749 C 0.7666 0.79236 0.37349 0.0
C1750 C 0.75807 0.80078 0.38192 0.0
C1751 C 0.76233 0.80422 0.39717 0.0
C1752 C 0.74482 0.80624 0.37509 0.0
C1753 C 0.76173 0.78718 0.35721 0.0
C1754 C 0.75056 0.81953 0.36434 0.0
C1755 C 0.73788 0.82415 0.35751 0.0
C1756 C 0.71934 0.81579 0.36149 0.0
C1757 C 0.71375 0.803 0.37258 0.0
C1758 C 0.72641 0.79825 0.37933 0.0
H1759 H 0.76498 0.77579 0.35326 0.0
H1760 H 0.74659 0.78185 0.35418 0.0
H1761 H 0.77023 0.80034 0.35141 0.0
H1762 H 0.76484 0.82628 0.36118 0.0
H1763 H 0.74259 0.83422 0.34909 0.0
H1764 H 0.20915 0.04223 0.37883 0.0
H1765 H 0.19973 0.00949 0.36809 0.0
H1766 H 0.25146 0.01517 0.38717 0.0
H1767 H 0.26117 0.04808 0.3978 0.0
H1768 H 0.21871 0.99647 0.34881 0.0
H1769 H 0.20891 0.96502 0.40254 0.0
H1770 H 0.21063 0.98828 0.40024 0.0
H1771 H 0.23146 0.98626 0.40103 0.0
C1772 C 0.21867 0.03665 0.38058 0.0
C1773 C 0.23589 0.04776 0.38924 0.0
C1774 C 0.21322 0.01791 0.37448 0.0
C1775 C 0.2248 0.00986 0.37699 0.0
C1776 C 0.24219 0.02103 0.38532 0.0
H1777 H 0.21062 0.90157 0.33478 0.0
H1778 H 0.22259 0.93586 0.34302 0.0
C1779 C 0.24768 0.0398 0.39141 0.0
C1780 C 0.21842 0.98959 0.37118 0.0
H1781 H 0.20481 0.94414 0.3817 0.0
C1782 C 0.21571 0.98501 0.35597 0.0
C1783 C 0.21434 0.97469 0.38059 0.0
C1784 C 0.21631 0.97868 0.39702 0.0
C1785 C 0.20909 0.96586 0.3499 0.0
C1786 C 0.20523 0.95102 0.35932 0.0
C1787 C 0.2079 0.95561 0.37452 0.0
C1788 C 0.19777 0.93045 0.35368 0.0
C1789 C 0.20584 0.96155 0.33349 0.0
C1790 C 0.17992 0.91606 0.35705 0.0
C1791 C 0.17304 0.89648 0.35241 0.0
C1792 C 0.18395 0.89085 0.34437 0.0
C1793 C 0.2018 0.90536 0.3409 0.0
C1794 C 0.20865 0.92499 0.34553 0.0
H1795 H 0.2057 0.9736 0.32795 0.0
H1796 H 0.21733 0.95957 0.32944 0.0
H1797 H 0.19229 0.94786 0.33032 0.0
H1798 H 0.17133 0.91999 0.36337 0.0
H1799 H 0.15927 0.88575 0.35534 0.0
H1800 H 0.54569 0.61742 0.26658 0.0
H1801 H 0.56912 0.64994 0.27774 0.0
H1802 H 0.52469 0.65836 0.29298 0.0
H1803 H 0.50117 0.626 0.28174 0.0
H1804 H 0.57223 0.68549 0.27142 0.0
H1805 H 0.56115 0.67314 0.32988 0.0
H1806 H 0.5526 0.65338 0.31563 0.0
H1807 H 0.53997 0.66619 0.31848 0.0
C1808 C 0.5409 0.62619 0.2723 0.0
C1809 C 0.52155 0.61908 0.2733 0.0
C1810 C 0.5543 0.64473 0.27873 0.0
C1811 C 0.54864 0.65644 0.28635 0.0
C1812 C 0.52937 0.64938 0.28743 0.0
H1813 H 0.61019 0.78161 0.30632 0.0
H1814 H 0.58812 0.74789 0.29689 0.0
C1815 C 0.51595 0.63086 0.281 0.0
C1816 C 0.56282 0.67641 0.29257 0.0
H1817 H 0.57992 0.70613 0.32442 0.0
C1818 C 0.57399 0.68999 0.28301 0.0
C1819 C 0.56522 0.68216 0.30772 0.0
C1820 C 0.55424 0.66793 0.31856 0.0
C1821 C 0.58722 0.70932 0.28816 0.0
C1822 C 0.58911 0.71526 0.30323 0.0
C1823 C 0.57827 0.70156 0.31285 0.0
C1824 C 0.60226 0.73564 0.30922 0.0
C1825 C 0.59917 0.72318 0.27745 0.0
C1826 C 0.61724 0.73987 0.31957 0.0
C1827 C 0.62986 0.75914 0.32505 0.0
C1828 C 0.62764 0.77453 0.32035 0.0
C1829 C 0.61238 0.77016 0.31016 0.0
C1830 C 0.5998 0.75089 0.30468 0.0
H1831 H 0.59947 0.71526 0.26723 0.0
H1832 H 0.59321 0.73251 0.27448 0.0
H1833 H 0.61386 0.73283 0.28235 0.0
H1834 H 0.61931 0.72827 0.32326 0.0
H1835 H 0.64141 0.76195 0.33291 0.0
H1836 H 0.36467 0.86598 0.26371 0.0
H1837 H 0.3354 0.85852 0.27436 0.0
H1838 H 0.33931 0.91083 0.25929 0.0
H1839 H 0.36897 0.91882 0.24896 0.0
H1840 H 0.33187 0.88656 0.29603 0.0
H1841 H 0.28429 0.86332 0.24457 0.0
H1842 H 0.30586 0.86241 0.2457 0.0
H1843 H 0.3068 0.88543 0.24525 0.0
C1844 C 0.35943 0.87602 0.26275 0.0
C1845 C 0.36925 0.89306 0.25552 0.0
C1846 C 0.34264 0.87164 0.26875 0.0
C1847 C 0.3352 0.88406 0.26749 0.0
C1848 C 0.34477 0.90096 0.26019 0.0
H1849 H 0.23144 0.87343 0.29721 0.0
H1850 H 0.26051 0.88354 0.28519 0.0
C1851 C 0.36166 0.90544 0.25426 0.0
C1852 C 0.31778 0.8796 0.27434 0.0
H1853 H 0.27089 0.86303 0.26669 0.0
C1854 C 0.31852 0.88144 0.28965 0.0
C1855 C 0.30052 0.87316 0.26593 0.0
C1856 C 0.29913 0.87082 0.24944 0.0
C1857 C 0.30235 0.87692 0.29682 0.0
C1858 C 0.2849 0.86982 0.28843 0.0
C1859 C 0.28426 0.86836 0.27309 0.0
C1860 C 0.26711 0.86344 0.29542 0.0
C1861 C 0.3042 0.88004 0.31331 0.0
C1862 C 0.26098 0.8485 0.30487 0.0
C1863 C 0.24451 0.84283 0.31181 0.0
C1864 C 0.23378 0.85185 0.30926 0.0
C1865 C 0.23958 0.86638 0.29945 0.0
C1866 C 0.25613 0.87212 0.29257 0.0
H1867 H 0.31888 0.89088 0.31764 0.0
H1868 H 0.29465 0.88512 0.31718 0.0
H1869 H 0.30041 0.86605 0.31797 0.0
H1870 H 0.26896 0.84124 0.30692 0.0
H1871 H 0.24023 0.83144 0.3192 0.0
H1872 H 0.10723 0.45698 0.24605 0.0
H1873 H 0.11828 0.43719 0.25801 0.0
H1874 H 0.09044 0.43851 0.29622 0.0
H1875 H 0.07919 0.45822 0.28428 0.0
H1876 H 0.14064 0.44864 0.28749 0.0
H1877 H 0.07206 0.37892 0.28369 0.0
H1878 H 0.07662 0.39779 0.27164 0.0
H1879 H 0.07233 0.40084 0.29027 0.0
C1880 C 0.10329 0.45288 0.25693 0.0
C1881 C 0.09228 0.45906 0.26421 0.0
C1882 C 0.1097 0.44169 0.26377 0.0
C1883 C 0.10504 0.43633 0.27792 0.0
C1884 C 0.09403 0.44241 0.28523 0.0
H1885 H 0.1274 0.36301 0.33302 0.0
H1886 H 0.11609 0.38346 0.32264 0.0
C1887 C 0.08773 0.45374 0.27845 0.0
C1888 C 0.11208 0.4247 0.28513 0.0
H1889 H 0.09817 0.37938 0.29599 0.0
C1890 C 0.13141 0.4335 0.28938 0.0
C1891 C 0.0999 0.40504 0.28763 0.0
C1892 C 0.07906 0.39494 0.28302 0.0
C1893 C 0.13893 0.42313 0.29617 0.0
C1894 C 0.12682 0.40329 0.29838 0.0
C1895 C 0.10743 0.39457 0.29426 0.0
C1896 C 0.134 0.39122 0.30479 0.0
C1897 C 0.15969 0.43366 0.30115 0.0
C1898 C 0.14766 0.38861 0.29809 0.0
C1899 C 0.15427 0.37707 0.30406 0.0
C1900 C 0.14712 0.36768 0.31672 0.0
C1901 C 0.13322 0.37007 0.32327 0.0
C1902 C 0.12674 0.38175 0.31736 0.0
H1903 H 0.16563 0.4497 0.30272 0.0
H1904 H 0.16237 0.42859 0.31157 0.0
H1905 H 0.16734 0.43073 0.29268 0.0
H1906 H 0.15308 0.39533 0.28815 0.0
H1907 H 0.16478 0.3753 0.29862 0.0
H1908 H 0.36893 0.49124 0.26269 0.0
H1909 H 0.33966 0.472 0.27407 0.0
H1910 H 0.33656 0.41897 0.25638 0.0
H1911 H 0.36625 0.43809 0.24548 0.0
H1912 H 0.30426 0.44505 0.26133 0.0
H1913 H 0.33093 0.41052 0.29952 0.0
H1914 H 0.34641 0.43104 0.28988 0.0
H1915 H 0.33419 0.40683 0.2807 0.0
C1916 C 0.36219 0.47549 0.2614 0.0
C1917 C 0.37005 0.46622 0.25327 0.0
C1918 C 0.34537 0.46451 0.26781 0.0
C1919 C 0.33608 0.44407 0.26626 0.0
C1920 C 0.34368 0.43474 0.25796 0.0
H1921 H 0.23125 0.35335 0.29476 0.0
H1922 H 0.25981 0.37227 0.2823 0.0
C1923 C 0.36055 0.44571 0.25158 0.0
C1924 C 0.31833 0.43254 0.27322 0.0
H1925 H 0.29801 0.39872 0.29785 0.0
C1926 C 0.30291 0.43497 0.26936 0.0
C1927 C 0.31663 0.41943 0.2837 0.0
C1928 C 0.33296 0.41689 0.28882 0.0
C1929 C 0.28574 0.42444 0.27558 0.0
C1930 C 0.28406 0.4113 0.28598 0.0
C1931 C 0.29941 0.4088 0.28982 0.0
C1932 C 0.26649 0.40009 0.29314 0.0
C1933 C 0.26941 0.42717 0.27085 0.0
C1934 C 0.2609 0.40954 0.30336 0.0
C1935 C 0.2447 0.39877 0.31056 0.0
C1936 C 0.23387 0.37842 0.30761 0.0
C1937 C 0.23939 0.36903 0.29726 0.0
C1938 C 0.25565 0.37978 0.29014 0.0
H1939 H 0.27193 0.43522 0.26091 0.0
H1940 H 0.25626 0.41282 0.26863 0.0
H1941 H 0.26722 0.43556 0.27981 0.0
H1942 H 0.26923 0.4252 0.30591 0.0
H1943 H 0.24071 0.40633 0.3185 0.0
H1944 H 0.54639 0.92565 0.24576 0.0
H1945 H 0.56714 0.91554 0.25761 0.0
H1946 H 0.51878 0.86053 0.26493 0.0
H1947 H 0.49795 0.87036 0.25285 0.0
H1948 H 0.56654 0.90401 0.28674 0.0
H1949 H 0.55411 0.8454 0.24426 0.0
H1950 H 0.54834 0.8641 0.24081 0.0
H1951 H 0.5332 0.84394 0.25074 0.0
C1952 C 0.54019 0.91133 0.24977 0.0
C1953 C 0.52054 0.89876 0.24832 0.0
C1954 C 0.55204 0.90563 0.2566 0.0
C1955 C 0.54448 0.88721 0.26196 0.0
C1956 C 0.52489 0.8747 0.26066 0.0
H1957 H 0.59727 0.84568 0.32325 0.0
H1958 H 0.57673 0.85529 0.31034 0.0
C1959 C 0.51301 0.88041 0.2539 0.0
C1960 C 0.55708 0.88125 0.26921 0.0
H1961 H 0.57172 0.84789 0.26637 0.0
C1962 C 0.56772 0.89178 0.28229 0.0
C1963 C 0.5587 0.86541 0.26326 0.0
C1964 C 0.54812 0.85412 0.24893 0.0
C1965 C 0.57972 0.88664 0.28975 0.0
C1966 C 0.58095 0.87048 0.28401 0.0
C1967 C 0.57059 0.86017 0.27078 0.0
C1968 C 0.59303 0.86412 0.29158 0.0
C1969 C 0.59115 0.89865 0.30364 0.0
C1970 C 0.6087 0.86549 0.28512 0.0
C1971 C 0.62044 0.86002 0.29246 0.0
C1972 C 0.61655 0.85295 0.3063 0.0
C1973 C 0.6006 0.85116 0.3126 0.0
C1974 C 0.58893 0.85671 0.30529 0.0
H1975 H 0.59177 0.91297 0.30482 0.0
H1976 H 0.58458 0.89061 0.31319 0.0
H1977 H 0.60575 0.90123 0.30392 0.0
H1978 H 0.61201 0.87108 0.2745 0.0
H1979 H 0.63262 0.86145 0.28735 0.0
H1980 H 0.06804 0.61372 0.27348 0.0
H1981 H 0.07827 0.64675 0.28416 0.0
H1982 H 0.12862 0.65063 0.30451 0.0
H1983 H 0.11872 0.61778 0.29371 0.0
H1984 H 0.10961 0.66488 0.32303 0.0
H1985 H 0.12288 0.69582 0.26907 0.0
H1986 H 0.09986 0.67511 0.27022 0.0
H1987 H 0.12021 0.67225 0.27185 0.0
C1988 C 0.08132 0.62161 0.2802 0.0
C1989 C 0.09262 0.61315 0.28266 0.0
C1990 C 0.0871 0.64044 0.28632 0.0
C1991 C 0.10429 0.65115 0.29497 0.0
C1992 C 0.1153 0.64255 0.29786 0.0
H1993 H 0.17185 0.77548 0.31585 0.0
H1994 H 0.1597 0.74099 0.30861 0.0
C1995 C 0.10956 0.62375 0.29173 0.0
C1996 C 0.11117 0.6716 0.30057 0.0
H1997 H 0.12686 0.71718 0.28954 0.0
C1998 C 0.11335 0.67634 0.31574 0.0
C1999 C 0.11623 0.68649 0.29099 0.0
C2000 C 0.11485 0.68229 0.27462 0.0
C2001 C 0.12035 0.69565 0.3216 0.0
C2002 C 0.12516 0.71048 0.31201 0.0
C2003 C 0.12306 0.70573 0.29685 0.0
C2004 C 0.1328 0.73116 0.31741 0.0
C2005 C 0.12294 0.70012 0.33799 0.0
C2006 C 0.1217 0.73703 0.32483 0.0
C2007 C 0.12859 0.75678 0.32899 0.0
C2008 C 0.14668 0.77101 0.32575 0.0
C2009 C 0.15787 0.76497 0.31855 0.0
C2010 C 0.15095 0.74525 0.31437 0.0
H2011 H 0.12246 0.68798 0.34381 0.0
H2012 H 0.13657 0.71364 0.34136 0.0
H2013 H 0.11146 0.7025 0.34152 0.0
H2014 H 0.10754 0.72638 0.32707 0.0
H2015 H 0.11956 0.76089 0.33449 0.0
H2016 H 0.80845 0.03216 0.41772 0.0
H2017 H 0.78512 2e-05 0.40604 0.0
H2018 H 0.79215 0.02353 0.36407 0.0
H2019 H 0.81536 0.0559 0.3757 0.0
H2020 H 0.75075 0.98902 0.38887 0.0
H2021 H 0.80075 0.97644 0.3579 0.0
H2022 H 0.80852 0.99501 0.373 0.0
H2023 H 0.80104 0.99891 0.35541 0.0
C2024 C 0.80492 0.03058 0.40603 0.0
C2025 C 0.81379 0.04662 0.39764 0.0
C2026 C 0.79165 0.01217 0.39937 0.0
C2027 C 0.78708 0.00939 0.38419 0.0
C2028 C 0.79574 0.02534 0.37577 0.0
H2029 H 0.69158 0.90519 0.33774 0.0
H2030 H 0.71424 0.93884 0.34714 0.0
C2031 C 0.80901 0.0438 0.38243 0.0
C2032 C 0.77317 0.98973 0.37727 0.0
H2033 H 0.76853 0.95233 0.35401 0.0
C2034 C 0.75458 0.981 0.38119 0.0
C2035 C 0.77832 0.9793 0.36739 0.0
C2036 C 0.79826 0.98776 0.36322 0.0
C2037 C 0.74097 0.96205 0.37549 0.0
C2038 C 0.74609 0.95168 0.36552 0.0
C2039 C 0.76466 0.96041 0.36158 0.0
C2040 C 0.73254 0.93142 0.35952 0.0
C2041 C 0.72136 0.95305 0.38047 0.0
C2042 C 0.73554 0.91619 0.36316 0.0
C2043 C 0.72266 0.89696 0.35781 0.0
C2044 C 0.70658 0.89261 0.34862 0.0
C2045 C 0.70377 0.90799 0.34482 0.0
C2046 C 0.71666 0.92723 0.35022 0.0
H2047 H 0.72076 0.96138 0.39032 0.0
H2048 H 0.71161 0.95285 0.37156 0.0
H2049 H 0.71624 0.93775 0.38296 0.0
H2050 H 0.74776 0.91917 0.3703 0.0
H2051 H 0.72531 0.88552 0.36095 0.0
H2052 H 0.94414 0.74338 0.39269 0.0
H2053 H 0.9715 0.75171 0.37889 0.0
H2054 H 0.00762 0.77196 0.41918 0.0
H2055 H 0.98041 0.76376 0.43303 0.0
H2056 H 0.00293 0.78828 0.37825 0.0
H2057 H 0.02358 0.73646 0.39859 0.0
H2058 H 0.00083 0.73398 0.40101 0.0
H2059 H 0.02116 0.75101 0.41299 0.0
C2060 C 0.95791 0.74955 0.39861 0.0
C2061 C 0.9601 0.75286 0.41396 0.0
C2062 C 0.9735 0.75422 0.39072 0.0
C2063 C 0.99154 0.76218 0.39803 0.0
C2064 C 0.99376 0.76538 0.41335 0.0
H2065 H 0.10625 0.81495 0.37697 0.0
H2066 H 0.0764 0.80196 0.38818 0.0
C2067 C 0.97819 0.76069 0.42125 0.0
C2068 C 0.00821 0.76819 0.38962 0.0
H2069 H 0.04629 0.76238 0.38594 0.0
C2070 C 0.01231 0.78246 0.37978 0.0
C2071 C 0.02038 0.76056 0.39166 0.0
C2072 C 0.0162 0.74451 0.40153 0.0
C2073 C 0.02866 0.78984 0.37232 0.0
C2074 C 0.04106 0.78253 0.37464 0.0
C2075 C 0.03676 0.76798 0.38424 0.0
C2076 C 0.05897 0.79036 0.36766 0.0
C2077 C 0.0329 0.80586 0.36242 0.0
C2078 C 0.05902 0.78801 0.35241 0.0
C2079 C 0.07607 0.79543 0.34598 0.0
C2080 C 0.09327 0.80525 0.35472 0.0
C2081 C 0.09318 0.8075 0.36998 0.0
C2082 C 0.07616 0.80006 0.37639 0.0
H2083 H 0.02399 0.81256 0.36413 0.0
H2084 H 0.04795 0.81747 0.36426 0.0
H2085 H 0.03016 0.79973 0.35085 0.0
H2086 H 0.04588 0.7803 0.34551 0.0
H2087 H 0.0758 0.79343 0.3342 0.0
H2088 H 0.24783 0.19995 0.38288 0.0
H2089 H 0.2366 0.21953 0.37084 0.0
H2090 H 0.21919 0.23144 0.41173 0.0
H2091 H 0.23005 0.21165 0.42382 0.0
H2092 H 0.19931 0.21405 0.36923 0.0
H2093 H 0.25275 0.28601 0.39729 0.0
H2094 H 0.25564 0.26489 0.39698 0.0
H2095 H 0.24044 0.26728 0.40926 0.0
C2096 C 0.24152 0.20664 0.3893 0.0
C2097 C 0.23991 0.20429 0.40434 0.0
C2098 C 0.23519 0.21788 0.38242 0.0
C2099 C 0.2273 0.2271 0.39045 0.0
C2100 C 0.22558 0.22474 0.40541 0.0
H2101 H 0.15962 0.27613 0.35956 0.0
H2102 H 0.17125 0.25617 0.37035 0.0
C2103 C 0.23185 0.21346 0.4123 0.0
C2104 C 0.2205 0.23889 0.38312 0.0
H2105 H 0.2274 0.28498 0.38289 0.0
C2106 C 0.20547 0.22957 0.37217 0.0
C2107 C 0.22871 0.25915 0.38689 0.0
C2108 C 0.24539 0.27002 0.39816 0.0
C2109 C 0.19819 0.23995 0.36506 0.0
C2110 C 0.20605 0.2601 0.36913 0.0
C2111 C 0.22131 0.26948 0.37989 0.0
C2112 C 0.19879 0.27181 0.36227 0.0
C2113 C 0.1823 0.22935 0.35313 0.0
C2114 C 0.21053 0.28738 0.35435 0.0
C2115 C 0.20397 0.29885 0.34819 0.0
C2116 C 0.18556 0.29505 0.34994 0.0
C2117 C 0.17383 0.27941 0.35791 0.0
C2118 C 0.18041 0.26792 0.36404 0.0
H2119 H 0.18089 0.21524 0.34897 0.0
H2120 H 0.16885 0.22624 0.35755 0.0
H2121 H 0.18448 0.23843 0.34383 0.0
H2122 H 0.2248 0.29065 0.35293 0.0
H2123 H 0.21343 0.31079 0.34217 0.0
H2124 H 0.64642 0.54142 0.76672 0.0
H2125 H 0.67591 0.56038 0.75552 0.0
H2126 H 0.64474 0.5493 0.71354 0.0
H2127 H 0.61515 0.53102 0.72475 0.0
H2128 H 0.69042 0.54845 0.7337 0.0
H2129 H 0.67909 0.60814 0.71672 0.0
H2130 H 0.66484 0.59121 0.72935 0.0
H2131 H 0.66031 0.58427 0.70998 0.0
C2132 C 0.6458 0.54331 0.75515 0.0
C2133 C 0.6284 0.5348 0.74665 0.0
C2134 C 0.66268 0.554 0.74875 0.0
C2135 C 0.6625 0.55646 0.73375 0.0
C2136 C 0.64519 0.54789 0.7252 0.0
H2137 H 0.75675 0.59237 0.68006 0.0
H2138 H 0.72769 0.57389 0.69208 0.0
C2139 C 0.62829 0.53725 0.73159 0.0
C2140 C 0.68046 0.56758 0.72698 0.0
H2141 H 0.70487 0.60668 0.70738 0.0
C2142 C 0.69363 0.56123 0.72799 0.0
C2143 C 0.68469 0.58438 0.71971 0.0
C2144 C 0.67158 0.59254 0.71898 0.0
C2145 C 0.71084 0.57108 0.72172 0.0
C2146 C 0.71477 0.58747 0.714 0.0
C2147 C 0.70172 0.59398 0.71318 0.0
C2148 C 0.7325 0.59836 0.70691 0.0
C2149 C 0.72479 0.56409 0.72365 0.0
C2150 C 0.74462 0.61829 0.71106 0.0
C2151 C 0.76103 0.62886 0.70411 0.0
C2152 C 0.76564 0.61968 0.69291 0.0
C2153 C 0.75355 0.59973 0.68875 0.0
C2154 C 0.73704 0.58916 0.69566 0.0
H2155 H 0.72186 0.55484 0.73293 0.0
H2156 H 0.72382 0.55522 0.71356 0.0
H2157 H 0.73944 0.57658 0.72557 0.0
H2158 H 0.74134 0.62568 0.71968 0.0
H2159 H 0.77009 0.64426 0.70748 0.0
H2160 H 0.48202 0.09387 0.72544 0.0
H2161 H 0.45878 0.10213 0.71577 0.0
H2162 H 0.46046 0.12913 0.75819 0.0
H2163 H 0.48388 0.12113 0.76793 0.0
H2164 H 0.42202 0.09133 0.72748 0.0
H2165 H 0.47116 0.17137 0.72836 0.0
H2166 H 0.47935 0.15406 0.72859 0.0
H2167 H 0.47131 0.16003 0.74479 0.0
C2168 C 0.47755 0.1017 0.73268 0.0
C2169 C 0.48483 0.10693 0.74742 0.0
C2170 C 0.46421 0.10629 0.72716 0.0
C2171 C 0.45808 0.11636 0.73625 0.0
C2172 C 0.46518 0.1215 0.751 0.0
H2173 H 0.38443 0.16329 0.71441 0.0
H2174 H 0.40523 0.15421 0.72766 0.0
C2175 C 0.47844 0.1168 0.75655 0.0
C2176 C 0.44415 0.12139 0.73027 0.0
H2177 H 0.43933 0.15966 0.72047 0.0
C2178 C 0.42574 0.10626 0.72597 0.0
C2179 C 0.44909 0.14089 0.72846 0.0
C2180 C 0.46882 0.15759 0.73269 0.0
C2181 C 0.41207 0.11011 0.71983 0.0
C2182 C 0.41714 0.12958 0.71759 0.0
C2183 C 0.43548 0.14475 0.72218 0.0
C2184 C 0.40394 0.13445 0.70988 0.0
C2185 C 0.39231 0.09332 0.71592 0.0
C2186 C 0.39645 0.12647 0.69549 0.0
C2187 C 0.38455 0.13155 0.68797 0.0
C2188 C 0.38014 0.14491 0.69464 0.0
C2189 C 0.38765 0.15296 0.70903 0.0
C2190 C 0.3995 0.14779 0.71659 0.0
H2191 H 0.38927 0.08081 0.72242 0.0
H2192 H 0.38167 0.09778 0.71774 0.0
H2193 H 0.39073 0.0882 0.70419 0.0
H2194 H 0.40006 0.11655 0.68997 0.0
H2195 H 0.37904 0.12524 0.67685 0.0
H2196 H 0.88307 0.36682 0.74511 0.0
H2197 H 0.87299 0.33397 0.7341 0.0
H2198 H 0.90184 0.35825 0.696 0.0
H2199 H 0.91211 0.39125 0.70698 0.0
H2200 H 0.85184 0.31748 0.7037 0.0
H2201 H 0.92102 0.32067 0.71199 0.0
H2202 H 0.91522 0.33604 0.72315 0.0
H2203 H 0.92058 0.34107 0.70465 0.0
C2204 C 0.88741 0.36518 0.73444 0.0
C2205 C 0.89844 0.38159 0.72692 0.0
C2206 C 0.88156 0.34643 0.72815 0.0
C2207 C 0.88679 0.34379 0.71431 0.0
C2208 C 0.89779 0.36009 0.70674 0.0
H2209 H 0.86909 0.23813 0.66545 0.0
H2210 H 0.87934 0.27197 0.67382 0.0
C2211 C 0.90354 0.37887 0.71298 0.0
C2212 C 0.88046 0.32388 0.70775 0.0
H2213 H 0.89563 0.2917 0.70024 0.0
C2214 C 0.86137 0.3118 0.70288 0.0
C2215 C 0.89302 0.3167 0.70665 0.0
C2216 C 0.91362 0.32917 0.71193 0.0
C2217 C 0.85446 0.29258 0.6969 0.0
C2218 C 0.86691 0.28515 0.69617 0.0
C2219 C 0.88609 0.2974 0.70084 0.0
C2220 C 0.86029 0.2646 0.69088 0.0
C2221 C 0.83395 0.28056 0.69122 0.0
C2222 C 0.84631 0.24923 0.69779 0.0
C2223 C 0.84031 0.22987 0.69297 0.0
C2224 C 0.84839 0.22553 0.68127 0.0
C2225 C 0.86255 0.24097 0.67448 0.0
C2226 C 0.86844 0.26032 0.67924 0.0
H2227 H 0.82798 0.28995 0.6884 0.0
H2228 H 0.83198 0.27079 0.68137 0.0
H2229 H 0.8258 0.27141 0.69983 0.0
H2230 H 0.84019 0.25219 0.70705 0.0
H2231 H 0.82954 0.21835 0.69857 0.0
H2232 H 0.16546 0.95865 0.6161 0.0
H2233 H 0.18832 0.99159 0.62684 0.0
H2234 H 0.23385 0.98374 0.61353 0.0
H2235 H 0.21112 0.95066 0.60293 0.0
H2236 H 0.21959 0.0049 0.64864 0.0
H2237 H 0.24147 0.03334 0.5947 0.0
H2238 H 0.22026 0.01052 0.59651 0.0
H2239 H 0.2428 0.01194 0.59812 0.0
C2240 C 0.18035 0.9638 0.61565 0.0
C2241 C 0.18647 0.95207 0.60858 0.0
C2242 C 0.19337 0.98265 0.62173 0.0
C2243 C 0.21272 0.99014 0.62077 0.0
C2244 C 0.21893 0.97831 0.61413 0.0
H2245 H 0.30605 0.09651 0.66549 0.0
H2246 H 0.28332 0.06263 0.65685 0.0
C2247 C 0.20593 0.95945 0.60806 0.0
C2248 C 0.22635 0.01051 0.62643 0.0
H2249 H 0.25842 0.05478 0.61575 0.0
C2250 C 0.2281 0.01583 0.64148 0.0
C2251 C 0.23722 0.02474 0.617 0.0
C2252 C 0.2353 0.01997 0.60066 0.0
C2253 C 0.24066 0.03503 0.64739 0.0
C2254 C 0.25183 0.04915 0.63799 0.0
C2255 C 0.24991 0.04386 0.62292 0.0
C2256 C 0.26539 0.06961 0.6435 0.0
C2257 C 0.24164 0.04015 0.66358 0.0
C2258 C 0.26301 0.08477 0.63865 0.0
C2259 C 0.276 0.10416 0.64351 0.0
C2260 C 0.29172 0.10877 0.65325 0.0
C2261 C 0.29408 0.09351 0.65805 0.0
C2262 C 0.28105 0.07411 0.65319 0.0
H2263 H 0.22918 0.02899 0.66862 0.0
H2264 H 0.25443 0.04105 0.66907 0.0
H2265 H 0.24261 0.05454 0.66568 0.0
H2266 H 0.25105 0.08157 0.6311 0.0
H2267 H 0.27374 0.11552 0.63954 0.0
H2268 H 0.03236 0.24989 0.58131 0.0
H2269 H 0.00311 0.24209 0.5923 0.0
H2270 H 0.99471 0.18544 0.60066 0.0
H2271 H 0.02392 0.19315 0.58977 0.0
H2272 H 0.96587 0.21195 0.58564 0.0
H2273 H 0.99369 0.20868 0.64111 0.0
H2274 H 0.00866 0.21876 0.6265 0.0
H2275 H 0.99505 0.19277 0.62723 0.0
C2276 C 0.02417 0.23571 0.58537 0.0
C2277 C 0.03053 0.22221 0.58484 0.0
C2278 C 0.00751 0.23129 0.59167 0.0
C2279 C 0.99695 0.21334 0.59753 0.0
C2280 C 0.0029 0.19957 0.59652 0.0
H2281 H 0.88302 0.1633 0.6246 0.0
H2282 H 0.91072 0.17109 0.61134 0.0
C2283 C 0.01958 0.20399 0.5903 0.0
C2284 C 0.97994 0.20914 0.60499 0.0
H2285 H 0.96111 0.19819 0.63779 0.0
C2286 C 0.9648 0.20899 0.59705 0.0
C2287 C 0.97874 0.20557 0.61994 0.0
C2288 C 0.99496 0.20662 0.62925 0.0
C2289 C 0.94834 0.20505 0.60362 0.0
C2290 C 0.94692 0.20085 0.61844 0.0
C2291 C 0.96217 0.20126 0.6264 0.0
C2292 C 0.92993 0.19637 0.62607 0.0
C2293 C 0.9328 0.20581 0.59472 0.0
C2294 C 0.9316 0.20769 0.63893 0.0
C2295 C 0.91586 0.20312 0.64657 0.0
C2296 C 0.89819 0.18716 0.64147 0.0
C2297 C 0.89648 0.17582 0.62863 0.0
C2298 C 0.91226 0.18032 0.62102 0.0
H2299 H 0.93808 0.21437 0.58512 0.0
H2300 H 0.92177 0.19076 0.59057 0.0
H2301 H 0.92615 0.21233 0.60146 0.0
H2302 H 0.94512 0.22007 0.64306 0.0
H2303 H 0.91753 0.21208 0.65646 0.0
H2304 H 0.76826 0.78588 0.57808 0.0
H2305 H 0.77868 0.7659 0.59041 0.0
H2306 H 0.7607 0.77797 0.63097 0.0
H2307 H 0.74992 0.79776 0.61868 0.0
H2308 H 0.79781 0.78335 0.63308 0.0
H2309 H 0.74492 0.7114 0.60473 0.0
H2310 H 0.75742 0.73007 0.59275 0.0
H2311 H 0.74204 0.73253 0.60481 0.0
C2312 C 0.76623 0.78405 0.58957 0.0
C2313 C 0.75816 0.79334 0.59738 0.0
C2314 C 0.77224 0.77266 0.5966 0.0
C2315 C 0.77024 0.7703 0.61154 0.0
C2316 C 0.76231 0.77961 0.61941 0.0
H2317 H 0.785 0.68646 0.65924 0.0
H2318 H 0.77307 0.70633 0.64882 0.0
C2319 C 0.75625 0.79097 0.61238 0.0
C2320 C 0.77691 0.75852 0.61902 0.0
H2321 H 0.77041 0.71258 0.61911 0.0
C2322 C 0.79178 0.76785 0.6301 0.0
C2323 C 0.76885 0.73829 0.61519 0.0
C2324 C 0.75231 0.72739 0.60381 0.0
C2325 C 0.79911 0.75754 0.63723 0.0
C2326 C 0.79148 0.73745 0.63304 0.0
C2327 C 0.77632 0.72803 0.6222 0.0
C2328 C 0.79903 0.72591 0.63973 0.0
C2329 C 0.81485 0.76817 0.64927 0.0
C2330 C 0.81756 0.7303 0.63798 0.0
C2331 C 0.82446 0.71899 0.64392 0.0
C2332 C 0.81291 0.70301 0.65167 0.0
C2333 C 0.79433 0.69868 0.65339 0.0
C2334 C 0.78745 0.71 0.64743 0.0
H2335 H 0.81587 0.78203 0.65361 0.0
H2336 H 0.81283 0.75892 0.65843 0.0
H2337 H 0.82844 0.77177 0.64488 0.0
H2338 H 0.82661 0.74232 0.63184 0.0
H2339 H 0.83879 0.72268 0.6423 0.0
H2340 H 0.0191 0.79197 0.56602 0.0
H2341 H 0.98902 0.77375 0.57673 0.0
H2342 H 0.01877 0.78327 0.61912 0.0
H2343 H 0.04886 0.80129 0.60851 0.0
H2344 H 0.97537 0.74003 0.59266 0.0
H2345 H 0.98241 0.80401 0.62605 0.0
H2346 H 0.99672 0.80638 0.61115 0.0
H2347 H 0.00227 0.80046 0.62865 0.0
C2348 C 0.01924 0.79 0.57759 0.0
C2349 C 0.03637 0.7982 0.58644 0.0
C2350 C 0.00206 0.77969 0.58369 0.0
C2351 C 0.00171 0.77749 0.59874 0.0
C2352 C 0.01875 0.7852 0.60753 0.0
H2353 H 0.92029 0.72368 0.66089 0.0
H2354 H 0.94822 0.74144 0.64759 0.0
C2355 C 0.03592 0.7955 0.60145 0.0
C2356 C 0.98354 0.76707 0.60531 0.0
H2357 H 0.95779 0.77283 0.63106 0.0
C2358 C 0.9714 0.74719 0.60096 0.0
C2359 C 0.97844 0.77652 0.61609 0.0
C2360 C 0.99054 0.79806 0.62069 0.0
C2361 C 0.95456 0.73631 0.60754 0.0
C2362 C 0.94966 0.74569 0.61855 0.0
C2363 C 0.96163 0.76567 0.62265 0.0
C2364 C 0.93258 0.73493 0.6264 0.0
C2365 C 0.94253 0.71474 0.60302 0.0
C2366 C 0.91451 0.7256 0.61891 0.0
C2367 C 0.89854 0.71539 0.62649 0.0
C2368 C 0.90043 0.71454 0.64168 0.0
C2369 C 0.91847 0.72413 0.64918 0.0
C2370 C 0.93441 0.73427 0.6416 0.0
H2371 H 0.95039 0.70899 0.59701 0.0
H2372 H 0.93724 0.7064 0.61271 0.0
H2373 H 0.93018 0.71212 0.59569 0.0
H2374 H 0.91276 0.72626 0.60723 0.0
H2375 H 0.88475 0.70813 0.62048 0.0
H2376 H 0.17981 0.24036 0.60212 0.0
H2377 H 0.20042 0.2309 0.61502 0.0
H2378 H 0.21086 0.21107 0.57383 0.0
H2379 H 0.18985 0.21995 0.56086 0.0
H2380 H 0.20218 0.18462 0.59535 0.0
H2381 H 0.25828 0.25941 0.61639 0.0
H2382 H 0.23496 0.25323 0.62068 0.0
H2383 H 0.24047 0.25484 0.60194 0.0
C2384 C 0.18641 0.23388 0.59581 0.0
C2385 C 0.18325 0.23096 0.58046 0.0
C2386 C 0.19832 0.22868 0.60319 0.0
C2387 C 0.20735 0.22054 0.59535 0.0
C2388 C 0.20411 0.21745 0.58006 0.0
H2389 H 0.30068 0.20638 0.62644 0.0
H2390 H 0.27949 0.21503 0.61343 0.0
C2391 C 0.19222 0.22267 0.57267 0.0
C2392 C 0.2199 0.2149 0.60311 0.0
H2393 H 0.26075 0.23316 0.62524 0.0
C2394 C 0.215 0.19521 0.60188 0.0
C2395 C 0.2367 0.22882 0.61147 0.0
C2396 C 0.24306 0.25029 0.61263 0.0
C2397 C 0.22639 0.18899 0.60893 0.0
C2398 C 0.24295 0.20284 0.61759 0.0
C2399 C 0.24795 0.22257 0.61869 0.0
C2400 C 0.25552 0.19724 0.62536 0.0
C2401 C 0.22079 0.16775 0.60685 0.0
C2402 C 0.24908 0.18446 0.63643 0.0
C2403 C 0.26115 0.17948 0.64386 0.0
C2404 C 0.27986 0.18732 0.64037 0.0
C2405 C 0.2863 0.20014 0.62933 0.0
C2406 C 0.27424 0.2051 0.62191 0.0
H2407 H 0.21041 0.16005 0.59719 0.0
H2408 H 0.2333 0.16612 0.60547 0.0
H2409 H 0.21423 0.16049 0.61667 0.0
H2410 H 0.23478 0.17851 0.63943 0.0
H2411 H 0.25589 0.16963 0.65239 0.0
H2412 H 0.74009 0.95146 0.60274 0.0
H2413 H 0.7506 0.98478 0.61283 0.0
H2414 H 0.80229 0.98991 0.63144 0.0
H2415 H 0.79206 0.95672 0.62122 0.0
H2416 H 0.78435 0.00377 0.65077 0.0
H2417 H 0.7929 0.03427 0.59676 0.0
H2418 H 0.77027 0.01327 0.5985 0.0
H2419 H 0.79092 0.0109 0.59916 0.0
C2420 C 0.75375 0.95971 0.6089 0.0
C2421 C 0.76529 0.95147 0.6111 0.0
C2422 C 0.75971 0.97872 0.61467 0.0
C2423 C 0.77732 0.98985 0.6227 0.0
C2424 C 0.78866 0.98154 0.62525 0.0
H2425 H 0.83942 0.11516 0.64407 0.0
H2426 H 0.82931 0.08139 0.63564 0.0
C2427 C 0.78274 0.96254 0.61946 0.0
C2428 C 0.784 0.01024 0.62833 0.0
H2429 H 0.79642 0.05526 0.61746 0.0
C2430 C 0.78702 0.01506 0.64352 0.0
C2431 C 0.78769 0.02493 0.6188 0.0
C2432 C 0.78546 0.0207 0.60239 0.0
C2433 C 0.79335 0.03419 0.64944 0.0
C2434 C 0.79655 0.04876 0.63991 0.0
C2435 C 0.79382 0.044 0.62473 0.0
C2436 C 0.80281 0.0691 0.64545 0.0
C2437 C 0.79681 0.03872 0.66584 0.0
C2438 C 0.79118 0.07335 0.65367 0.0
C2439 C 0.79689 0.09263 0.65851 0.0
C2440 C 0.81434 0.10803 0.65518 0.0
C2441 C 0.82595 0.10368 0.64692 0.0
C2442 C 0.82019 0.08439 0.64206 0.0
H2443 H 0.79808 0.02725 0.67136 0.0
H2444 H 0.80984 0.05298 0.66886 0.0
H2445 H 0.78481 0.0396 0.67004 0.0
H2446 H 0.77756 0.06177 0.65618 0.0
H2447 H 0.78755 0.09543 0.66479 0.0
H2448 H 0.49756 0.37521 0.71769 0.0
H2449 H 0.47391 0.34313 0.70609 0.0
H2450 H 0.42983 0.35046 0.72344 0.0
H2451 H 0.45338 0.38274 0.73492 0.0
H2452 H 0.42771 0.31479 0.7286 0.0
H2453 H 0.43584 0.32917 0.67018 0.0
H2454 H 0.45754 0.33631 0.68091 0.0
H2455 H 0.44456 0.34847 0.68482 0.0
C2456 C 0.48282 0.37018 0.71882 0.0
C2457 C 0.47737 0.38158 0.72721 0.0
C2458 C 0.46933 0.35183 0.71219 0.0
C2459 C 0.45013 0.34455 0.71376 0.0
C2460 C 0.4446 0.35587 0.72207 0.0
H2461 H 0.35628 0.23863 0.66833 0.0
H2462 H 0.37835 0.27243 0.67775 0.0
C2463 C 0.45808 0.37425 0.72868 0.0
C2464 C 0.43593 0.32469 0.70739 0.0
H2465 H 0.41788 0.29587 0.67517 0.0
C2466 C 0.42546 0.31067 0.71692 0.0
C2467 C 0.43291 0.31944 0.69214 0.0
C2468 C 0.44317 0.33416 0.68138 0.0
C2469 C 0.41238 0.29137 0.71162 0.0
C2470 C 0.4099 0.28594 0.69641 0.0
C2471 C 0.41998 0.30007 0.68684 0.0
C2472 C 0.39697 0.26558 0.69028 0.0
C2473 C 0.40124 0.27697 0.72232 0.0
C2474 C 0.40039 0.25064 0.69399 0.0
C2475 C 0.38785 0.23132 0.68863 0.0
C2476 C 0.37166 0.22658 0.67942 0.0
C2477 C 0.36855 0.24171 0.67544 0.0
C2478 C 0.38115 0.26105 0.68079 0.0
H2479 H 0.4013 0.28443 0.73292 0.0
H2480 H 0.3864 0.26722 0.71778 0.0
H2481 H 0.40761 0.26779 0.72452 0.0
H2482 H 0.41272 0.25391 0.7011 0.0
H2483 H 0.39076 0.2201 0.6919 0.0
H2484 H 0.61515 0.08827 0.73074 0.0
H2485 H 0.64357 0.09821 0.71797 0.0
H2486 H 0.67768 0.11986 0.7592 0.0
H2487 H 0.64941 0.11048 0.77202 0.0
H2488 H 0.69125 0.14588 0.73737 0.0
H2489 H 0.67558 0.0716 0.71741 0.0
H2490 H 0.65712 0.07682 0.71283 0.0
H2491 H 0.66338 0.07584 0.73167 0.0
C2492 C 0.62871 0.09521 0.73708 0.0
C2493 C 0.63002 0.09852 0.7524 0.0
C2494 C 0.6449 0.10071 0.72979 0.0
C2495 C 0.66267 0.10953 0.73768 0.0
C2496 C 0.66406 0.11295 0.75294 0.0
H2497 H 0.76778 0.12722 0.70779 0.0
H2498 H 0.73943 0.11784 0.72054 0.0
C2499 C 0.64788 0.10744 0.76025 0.0
C2500 C 0.6799 0.11561 0.73 0.0
H2501 H 0.70185 0.09823 0.70843 0.0
C2502 C 0.69361 0.13549 0.73105 0.0
C2503 C 0.68297 0.10195 0.72191 0.0
C2504 C 0.66909 0.08033 0.72096 0.0
C2505 C 0.71028 0.14212 0.72408 0.0
C2506 C 0.71314 0.12852 0.71569 0.0
C2507 C 0.69952 0.10862 0.71477 0.0
C2508 C 0.73039 0.13457 0.70806 0.0
C2509 C 0.72484 0.16357 0.72596 0.0
C2510 C 0.73462 0.147 0.69677 0.0
C2511 C 0.75081 0.15239 0.68948 0.0
C2512 C 0.76291 0.14531 0.69332 0.0
C2513 C 0.75864 0.13284 0.70459 0.0
C2514 C 0.74248 0.12748 0.71188 0.0
H2515 H 0.72257 0.17122 0.73543 0.0
H2516 H 0.73928 0.16576 0.72755 0.0
H2517 H 0.72394 0.17043 0.71597 0.0
H2518 H 0.72529 0.15236 0.6935 0.0
H2519 H 0.75379 0.16197 0.68079 0.0
H2520 H 0.88237 0.51705 0.72793 0.0
H2521 H 0.87241 0.53741 0.71566 0.0
H2522 H 0.92392 0.589 0.73308 0.0
H2523 H 0.93405 0.5687 0.74539 0.0
H2524 H 0.89215 0.59169 0.737 0.0
H2525 H 0.89152 0.56664 0.67939 0.0
H2526 H 0.87799 0.54709 0.69038 0.0
H2527 H 0.9031 0.56179 0.69448 0.0
C2528 C 0.89174 0.53271 0.72896 0.0
C2529 C 0.90905 0.54126 0.73758 0.0
C2530 C 0.88602 0.54432 0.72193 0.0
C2531 C 0.89755 0.56469 0.72328 0.0
C2532 C 0.91485 0.57329 0.73186 0.0
H2533 H 0.87918 0.64419 0.67235 0.0
H2534 H 0.892 0.62544 0.68347 0.0
C2535 C 0.92057 0.56169 0.73893 0.0
C2536 C 0.89114 0.57703 0.71629 0.0
H2537 H 0.87647 0.58536 0.68339 0.0
C2538 C 0.88884 0.59042 0.72527 0.0
C2539 C 0.88705 0.57549 0.70097 0.0
C2540 C 0.89021 0.56212 0.69072 0.0
C2541 C 0.8821 0.60197 0.71937 0.0
C2542 C 0.87724 0.59982 0.70412 0.0
C2543 C 0.88 0.5868 0.6951 0.0
C2544 C 0.86929 0.61097 0.69732 0.0
C2545 C 0.88042 0.61651 0.7295 0.0
C2546 C 0.85212 0.6088 0.70126 0.0
C2547 C 0.84475 0.61952 0.69496 0.0
C2548 C 0.85437 0.63249 0.6845 0.0
C2549 C 0.87141 0.63435 0.68038 0.0
C2550 C 0.87877 0.62365 0.68671 0.0
H2551 H 0.88937 0.62011 0.73996 0.0
H2552 H 0.88448 0.63022 0.72429 0.0
H2553 H 0.86557 0.61018 0.73213 0.0
H2554 H 0.84438 0.59879 0.70921 0.0
H2555 H 0.83157 0.61766 0.69836 0.0
H2556 H 0.43476 0.94211 0.14035 0.0
H2557 H 0.44311 0.9548 0.11644 0.0
H2558 H 0.50026 0.99395 0.13455 0.0
H2559 H 0.49195 0.98168 0.15853 0.0
H2560 H 0.48437 0.01112 0.11597 0.0
H2561 H 0.47602 0.94178 0.09051 0.0
H2562 H 0.45606 0.93977 0.09917 0.0
H2563 H 0.47764 0.9469 0.11008 0.0
C2564 C 0.44903 0.9536 0.13928 0.0
C2565 C 0.46274 0.96081 0.1513 0.0
C2566 C 0.45382 0.96071 0.1256 0.0
C2567 C 0.47235 0.9751 0.12372 0.0
C2568 C 0.4859 0.98275 0.13578 0.0
H2569 H 0.532 0.00926 0.04645 0.0
H2570 H 0.52133 0.99941 0.07064 0.0
C2571 C 0.48116 0.97564 0.14943 0.0
C2572 C 0.47786 0.98191 0.10913 0.0
H2573 H 0.48393 0.96728 0.07523 0.0
C2574 C 0.48421 0.00155 0.10703 0.0
C2575 C 0.47777 0.96938 0.09757 0.0
C2576 C 0.47166 0.94831 0.0994 0.0
C2577 C 0.49049 0.009 0.09362 0.0
C2578 C 0.49034 0.99644 0.08207 0.0
C2579 C 0.48395 0.97681 0.08415 0.0
C2580 C 0.49725 0.00349 0.06782 0.0
C2581 C 0.49766 0.03032 0.09197 0.0
C2582 C 0.48727 0.00915 0.05834 0.0
C2583 C 0.49336 0.01479 0.04456 0.0
C2584 C 0.50941 0.01474 0.04008 0.0
C2585 C 0.51964 0.00953 0.04972 0.0
C2586 C 0.51351 0.0038 0.06346 0.0
H2587 H 0.49998 0.03874 0.10267 0.0
H2588 H 0.51109 0.03684 0.08668 0.0
H2589 H 0.48719 0.03178 0.08486 0.0
H2590 H 0.47459 0.00881 0.06147 0.0
H2591 H 0.48541 0.01898 0.03733 0.0
H2592 H 0.01459 0.52517 0.16498 0.0
H2593 H 0.00519 0.51976 0.13868 0.0
H2594 H 0.0476 0.50422 0.13109 0.0
H2595 H 0.05738 0.51001 0.15736 0.0
H2596 H 0.04775 0.53176 0.11282 0.0
H2597 H 0.97608 0.46746 0.11303 0.0
H2598 H 0.98066 0.48773 0.12563 0.0
H2599 H 0.99377 0.47539 0.12829 0.0
C2600 C 0.02192 0.52061 0.15771 0.0
C2601 C 0.03672 0.518 0.16324 0.0
C2602 C 0.0164 0.51733 0.14272 0.0
C2603 C 0.02553 0.51133 0.13299 0.0
C2604 C 0.04028 0.50869 0.13845 0.0
H2605 H 0.99017 0.47596 0.03968 0.0
H2606 H 0.00011 0.47694 0.06554 0.0
C2607 C 0.04577 0.5119 0.15346 0.0
C2608 C 0.02027 0.50875 0.11705 0.0
H2609 H 0.9834 0.48331 0.09095 0.0
C2610 C 0.03374 0.52107 0.10801 0.0
C2611 C 0.00205 0.49462 0.1108 0.0
C2612 C 0.98733 0.48041 0.1199 0.0
C2613 C 0.02925 0.52009 0.09294 0.0
C2614 C 0.01078 0.50657 0.08682 0.0
C2615 C 0.9975 0.49378 0.09574 0.0
C2616 C 0.00485 0.50593 0.07123 0.0
C2617 C 0.04426 0.53353 0.08366 0.0
C2618 C 0.00401 0.52179 0.066 0.0
C2619 C 0.99838 0.52126 0.0513 0.0
C2620 C 0.99356 0.50488 0.04162 0.0
C2621 C 0.99414 0.48888 0.04691 0.0
C2622 C 0.99969 0.48938 0.06164 0.0
H2623 H 0.05863 0.53965 0.08925 0.0
H2624 H 0.04347 0.52576 0.07301 0.0
H2625 H 0.04202 0.54586 0.0814 0.0
H2626 H 0.00766 0.53457 0.0733 0.0
H2627 H 0.998 0.53376 0.04748 0.0
H2628 H 0.47068 0.48672 0.15992 0.0
H2629 H 0.47431 0.47919 0.13442 0.0
H2630 H 0.49432 0.53902 0.12601 0.0
H2631 H 0.4906 0.54662 0.15134 0.0
H2632 H 0.46426 0.50781 0.10472 0.0
H2633 H 0.52732 0.50016 0.11674 0.0
H2634 H 0.50738 0.48732 0.12721 0.0
H2635 H 0.52074 0.51345 0.1294 0.0
C2636 C 0.47576 0.49822 0.1526 0.0
C2637 C 0.48048 0.51729 0.15764 0.0
C2638 C 0.47793 0.49393 0.1381 0.0
C2639 C 0.48472 0.50861 0.12843 0.0
C2640 C 0.48914 0.52754 0.13336 0.0
H2641 H 0.53381 0.52632 0.04718 0.0
H2642 H 0.52575 0.52576 0.07248 0.0
C2643 C 0.48712 0.53187 0.14784 0.0
C2644 C 0.48728 0.50443 0.11311 0.0
H2645 H 0.51643 0.49686 0.092 0.0
C2646 C 0.47553 0.50522 0.10189 0.0
C2647 C 0.50206 0.50115 0.10956 0.0
C2648 C 0.51523 0.50054 0.1213 0.0
C2649 C 0.47842 0.50323 0.08712 0.0
C2650 C 0.4934 0.50025 0.08353 0.0
C2651 C 0.50492 0.49907 0.09479 0.0
C2652 C 0.49826 0.49983 0.06824 0.0
C2653 C 0.46577 0.50491 0.07553 0.0
C2654 C 0.48558 0.48525 0.0575 0.0
C2655 C 0.49019 0.48553 0.04302 0.0
C2656 C 0.50751 0.50043 0.03908 0.0
C2657 C 0.52034 0.51471 0.04991 0.0
C2658 C 0.51575 0.5144 0.06436 0.0
H2659 H 0.45774 0.51147 0.08016 0.0
H2660 H 0.47404 0.51387 0.06687 0.0
H2661 H 0.45547 0.4901 0.0704 0.0
H2662 H 0.47214 0.47369 0.06031 0.0
H2663 H 0.48019 0.47417 0.0349 0.0
H2664 H 0.97906 0.51234 0.84157 0.0
H2665 H 0.98996 0.51927 0.86772 0.0
H2666 H 0.94679 0.46137 0.87559 0.0
H2667 H 0.93573 0.45439 0.84956 0.0
H2668 H 0.95212 0.49483 0.89624 0.0
H2669 H 0.0172 0.49157 0.88764 0.0
H2670 H 0.01212 0.50665 0.87647 0.0
H2671 H 0.99702 0.48067 0.87425 0.0
C2672 C 0.97179 0.50118 0.84891 0.0
C2673 C 0.95664 0.48277 0.84352 0.0
C2674 C 0.97807 0.50512 0.8638 0.0
C2675 C 0.96923 0.49077 0.8735 0.0
C2676 C 0.9538 0.4726 0.86823 0.0
H2677 H -5e-05 0.46969 0.95796 0.0
H2678 H 0.99073 0.46962 0.93217 0.0
C2679 C 0.9476 0.4686 0.85337 0.0
C2680 C 0.9764 0.49428 0.88908 0.0
H2681 H 0.01201 0.49722 0.91189 0.0
C2682 C 0.96529 0.49555 0.89971 0.0
C2683 C 0.99351 0.49505 0.89347 0.0
C2684 C 0.00569 0.49332 0.88243 0.0
C2685 C 0.97077 0.49733 0.9147 0.0
C2686 C 0.98779 0.49787 0.91908 0.0
C2687 C 0.999 0.49687 0.90844 0.0
C2688 C 0.99367 0.4983 0.93464 0.0
C2689 C 0.95806 0.498 0.92574 0.0
C2690 C 0.99867 0.51459 0.94448 0.0
C2691 C 0.00404 0.51468 0.95918 0.0
C2692 C 0.00437 0.49845 0.96424 0.0
C2693 C -0.00026 0.48235 0.95433 0.0
C2694 C 0.99445 0.48228 0.93963 0.0
H2695 H 0.94389 0.49385 0.92057 0.0
H2696 H 0.95638 0.48811 0.93438 0.0
H2697 H 0.96451 0.51304 0.9311 0.0
H2698 H 0.9985 0.52724 0.94076 0.0
H2699 H 0.00807 0.52748 0.96657 0.0
H2700 H 0.52929 0.51253 0.84108 0.0
H2701 H 0.52585 0.52044 0.86651 0.0
H2702 H 0.5083 0.46143 0.87594 0.0
H2703 H 0.51184 0.45346 0.85064 0.0
H2704 H 0.49145 0.50073 0.881 0.0
H2705 H 0.55071 0.49654 0.90892 0.0
H2706 H 0.54932 0.49972 0.88964 0.0
H2707 H 0.53556 0.47601 0.89604 0.0
C2708 C 0.52491 0.50132 0.84863 0.0
C2709 C 0.5208 0.48237 0.84389 0.0
C2710 C 0.5229 0.50584 0.86311 0.0
C2711 C 0.51704 0.49157 0.8731 0.0
C2712 C 0.51309 0.4727 0.86843 0.0
H2713 H 0.46369 0.47419 0.95249 0.0
H2714 H 0.47236 0.4748 0.92734 0.0
C2715 C 0.51494 0.46813 0.85395 0.0
C2716 C 0.51408 0.49599 0.88825 0.0
H2717 H 0.52791 0.49651 0.92402 0.0
C2718 C 0.49955 0.50004 0.89042 0.0
C2719 C 0.52482 0.49529 0.90048 0.0
C2720 C 0.5411 0.49183 0.89872 0.0
C2721 C 0.49492 0.50255 0.90455 0.0
C2722 C 0.505 0.50081 0.91675 0.0
C2723 C 0.5201 0.49765 0.91461 0.0
C2724 C 0.49947 0.50118 0.93178 0.0
C2725 C 0.47914 0.50682 0.90631 0.0
C2726 C 0.5119 0.51578 0.94258 0.0
C2727 C 0.50692 0.51551 0.95693 0.0
C2728 C 0.48962 0.50042 0.96072 0.0
C2729 C 0.47711 0.48599 0.94984 0.0
C2730 C 0.48202 0.48635 0.93549 0.0
H2731 H 0.47623 0.51273 0.89643 0.0
H2732 H 0.4661 0.49311 0.90806 0.0
H2733 H 0.48253 0.51743 0.91595 0.0
H2734 H 0.52546 0.52731 0.93992 0.0
H2735 H 0.51668 0.52697 0.9651 0.0
H2736 H 0.52007 0.06312 0.86298 0.0
H2737 H 0.51586 0.04933 0.88662 0.0
H2738 H 0.52903 0.00643 0.86924 0.0
H2739 H 0.53305 0.02003 0.84543 0.0
H2740 H 0.49539 0.99115 0.88408 0.0
H2741 H 0.55648 0.0526 0.91721 0.0
H2742 H 0.54237 0.05986 0.90664 0.0
H2743 H 0.55486 0.04984 0.89745 0.0
C2744 C 0.52208 0.05076 0.86419 0.0
C2745 C 0.52685 0.04262 0.85236 0.0
C2746 C 0.51987 0.04303 0.87773 0.0
C2747 C 0.52238 0.02704 0.8797 0.0
C2748 C 0.5272 0.01889 0.86795 0.0
H2749 H 0.51767 0.98666 0.96737 0.0
H2750 H 0.52732 0.99521 0.9427 0.0
C2751 C 0.52955 0.02671 0.8544 0.0
C2752 C 0.51888 0.01825 0.89383 0.0
H2753 H 0.53211 0.02908 0.93044 0.0
C2754 C 0.50358 0.9993 0.89421 0.0
C2755 C 0.52974 0.02884 0.90697 0.0
C2756 C 0.5469 0.04885 0.90709 0.0
C2757 C 0.49825 0.99104 0.90752 0.0
C2758 C 0.50839 0.00213 0.92074 0.0
C2759 C 0.52428 0.02067 0.92029 0.0
C2760 C 0.50201 0.99537 0.93518 0.0
C2761 C 0.48166 0.97065 0.90734 0.0
C2762 C 0.4846 0.99261 0.93907 0.0
C2763 C 0.47918 0.98793 0.95312 0.0
C2764 C 0.49116 0.98609 0.96355 0.0
C2765 C 0.5083 0.98823 0.95953 0.0
C2766 C 0.51379 0.99304 0.94548 0.0
H2767 H 0.47901 0.9622 0.8966 0.0
H2768 H 0.4839 0.96265 0.91606 0.0
H2769 H 0.46885 0.97147 0.90931 0.0
H2770 H 0.47546 0.9947 0.93137 0.0
H2771 H 0.4659 0.9864 0.95597 0.0
H2772 H 0.11833 0.31357 0.48576 0.0
H2773 H 0.12651 0.32667 0.4619 0.0
H2774 H 0.14297 0.28425 0.45042 0.0
H2775 H 0.13456 0.2709 0.47405 0.0
H2776 H 0.16301 0.34192 0.45049 0.0
H2777 H 0.10634 0.27864 0.41522 0.0
H2778 H 0.10464 0.28282 0.43446 0.0
H2779 H 0.11879 0.27268 0.42873 0.0
C2780 C 0.12347 0.3069 0.47806 0.0
C2781 C 0.12581 0.29121 0.48176 0.0
C2782 C 0.12822 0.31445 0.4645 0.0
C2783 C 0.13512 0.30626 0.45438 0.0
C2784 C 0.1374 0.29058 0.45802 0.0
H2785 H 0.19959 0.34763 0.3805 0.0
H2786 H 0.18844 0.33899 0.40474 0.0
C2787 C 0.13277 0.28311 0.47157 0.0
C2788 C 0.14065 0.31448 0.44018 0.0
H2789 H 0.13148 0.30267 0.4033 0.0
C2790 C 0.15603 0.33345 0.44015 0.0
C2791 C 0.13136 0.30343 0.42676 0.0
C2792 C 0.11425 0.28331 0.42621 0.0
C2793 C 0.16283 0.34141 0.42699 0.0
C2794 C 0.1541 0.32999 0.41358 0.0
C2795 C 0.13826 0.31131 0.41361 0.0
C2796 C 0.16146 0.33685 0.39938 0.0
C2797 C 0.17931 0.36193 0.42754 0.0
C2798 C 0.14997 0.33845 0.38836 0.0
C2799 C 0.15633 0.34339 0.37456 0.0
C2800 C 0.17415 0.34651 0.3715 0.0
C2801 C 0.18583 0.34539 0.38263 0.0
C2802 C 0.1795 0.34051 0.39646 0.0
H2803 H 0.181 0.37043 0.43806 0.0
H2804 H 0.19243 0.36136 0.42649 0.0
H2805 H 0.17764 0.36972 0.4184 0.0
H2806 H 0.13597 0.33558 0.39038 0.0
H2807 H 0.1471 0.34427 0.36616 0.0
H2808 H 0.72146 0.84036 0.48951 0.0
H2809 H 0.7121 0.83487 0.46318 0.0
H2810 H 0.6709 0.85229 0.47025 0.0
H2811 H 0.67992 0.85749 0.49662 0.0
H2812 H 0.65824 0.81737 0.45014 0.0
H2813 H 0.72551 0.88132 0.43743 0.0
H2814 H 0.72756 0.86408 0.44822 0.0
H2815 H 0.71783 0.87815 0.45567 0.0
C2816 C 0.71022 0.84276 0.48548 0.0
C2817 C 0.70149 0.84947 0.49512 0.0
C2818 C 0.70501 0.83976 0.47044 0.0
C2819 C 0.69098 0.84341 0.46481 0.0
C2820 C 0.68182 0.8495 0.47442 0.0
H2821 H 0.66408 0.86538 0.37897 0.0
H2822 H 0.67233 0.86574 0.40502 0.0
C2823 C 0.68708 0.85258 0.48945 0.0
C2824 C 0.68623 0.84149 0.44885 0.0
H2825 H 0.70357 0.8623 0.41745 0.0
C2826 C 0.66815 0.82709 0.44295 0.0
C2827 C 0.69918 0.85436 0.43959 0.0
C2828 C 0.71858 0.87047 0.44549 0.0
C2829 C 0.66265 0.82525 0.42796 0.0
C2830 C 0.67563 0.83808 0.4187 0.0
C2831 C 0.69372 0.85243 0.4246 0.0
C2832 C 0.67043 0.83752 0.40297 0.0
C2833 C 0.64287 0.80996 0.42217 0.0
C2834 C 0.66672 0.82155 0.39323 0.0
C2835 C 0.66201 0.82133 0.37835 0.0
C2836 C 0.66102 0.83709 0.37304 0.0
C2837 C 0.66469 0.85302 0.38281 0.0
C2838 C 0.66946 0.85327 0.39766 0.0
H2839 H 0.6336 0.80359 0.43112 0.0
H2840 H 0.63655 0.81626 0.41483 0.0
H2841 H 0.64328 0.798 0.4157 0.0
H2842 H 0.66758 0.80935 0.39713 0.0
H2843 H 0.65901 0.80879 0.37103 0.0
H2844 H 0.18078 0.85975 0.49815 0.0
H2845 H 0.1856 0.85448 0.47263 0.0
H2846 H 0.12693 0.83346 0.46007 0.0
H2847 H 0.12201 0.8392 0.48548 0.0
H2848 H 0.14539 0.81045 0.44799 0.0
H2849 H 0.18149 0.8898 0.44023 0.0
H2850 H 0.18898 0.88262 0.45636 0.0
H2851 H 0.16574 0.87938 0.45437 0.0
C2852 C 0.16889 0.85407 0.48997 0.0
C2853 C 0.15103 0.85006 0.49386 0.0
C2854 C 0.17166 0.85097 0.47543 0.0
C2855 C 0.15663 0.84371 0.46453 0.0
C2856 C 0.13867 0.83904 0.46838 0.0
H2857 H 0.1574 0.84616 0.37078 0.0
H2858 H 0.15082 0.84689 0.3964 0.0
C2859 C 0.13589 0.84225 0.48292 0.0
C2860 C 0.15986 0.8418 0.44903 0.0
H2861 H 0.17974 0.86862 0.42046 0.0
C2862 C 0.15291 0.82312 0.44194 0.0
C2863 C 0.16954 0.85841 0.44122 0.0
C2864 C 0.17681 0.87873 0.44833 0.0
C2865 C 0.1556 0.82064 0.42717 0.0
C2866 C 0.16549 0.83727 0.41943 0.0
C2867 C 0.17226 0.85593 0.4265 0.0
C2868 C 0.16868 0.83567 0.40386 0.0
C2869 C 0.14761 0.80029 0.41987 0.0
C2870 C 0.18099 0.82924 0.39961 0.0
C2871 C 0.18462 0.82867 0.38494 0.0
C2872 C 0.17581 0.83431 0.37433 0.0
C2873 C 0.16364 0.84088 0.37863 0.0
C2874 C 0.1601 0.84157 0.39328 0.0
H2875 H 0.13754 0.78903 0.42656 0.0
H2876 H 0.14032 0.79887 0.40897 0.0
H2877 H 0.15929 0.79738 0.41818 0.0
H2878 H 0.18801 0.82498 0.40768 0.0
H2879 H 0.19427 0.82381 0.38187 0.0
H2880 H 0.6096 0.82515 0.17986 0.0
H2881 H 0.6195 0.83128 0.2061 0.0
H2882 H 0.66132 0.8148 0.19876 0.0
H2883 H 0.6518 0.80905 0.17248 0.0
H2884 H 0.61881 0.80367 0.22449 0.0
H2885 H 0.69098 0.86713 0.22427 0.0
H2886 H 0.67338 0.85937 0.20896 0.0
H2887 H 0.68614 0.84669 0.21177 0.0
C2888 C 0.62112 0.82315 0.1838 0.0
C2889 C 0.62996 0.81666 0.1741 0.0
C2890 C 0.62668 0.82655 0.19879 0.0
C2891 C 0.64127 0.82371 0.20432 0.0
C2892 C 0.65023 0.81738 0.19467 0.0
H2893 H 0.66746 0.80091 0.29009 0.0
H2894 H 0.65803 0.80015 0.26422 0.0
C2895 C 0.64464 0.81391 0.17969 0.0
C2896 C 0.64648 0.82633 0.22027 0.0
H2897 H 0.68336 0.8514 0.2464 0.0
C2898 C 0.63287 0.81421 0.22931 0.0
C2899 C 0.66476 0.84025 0.22653 0.0
C2900 C 0.67963 0.85425 0.21742 0.0
C2901 C 0.63727 0.8152 0.24439 0.0
C2902 C 0.65579 0.8285 0.25053 0.0
C2903 C 0.66922 0.84109 0.2416 0.0
C2904 C 0.66162 0.82912 0.26612 0.0
C2905 C 0.6221 0.802 0.25367 0.0
C2906 C 0.66716 0.84585 0.27563 0.0
C2907 C 0.6726 0.84632 0.29038 0.0
C2908 C 0.67266 0.83012 0.29577 0.0
C2909 C 0.66748 0.81356 0.28618 0.0
C2910 C 0.66197 0.81306 0.27146 0.0
H2911 H 0.60778 0.79618 0.24807 0.0
H2912 H 0.62399 0.78944 0.25591 0.0
H2913 H 0.62304 0.80984 0.26432 0.0
H2914 H 0.66712 0.85844 0.27165 0.0
H2915 H 0.67689 0.85937 0.29755 0.0
H2916 H 0.17065 0.7924 0.18313 0.0
H2917 H 0.16658 0.80112 0.20799 0.0
H2918 H 0.19522 0.86192 0.20005 0.0
H2919 H 0.19906 0.8533 0.17493 0.0
H2920 H 0.20752 0.85309 0.22724 0.0
H2921 H 0.12993 0.82043 0.21939 0.0
H2922 H 0.13801 0.80424 0.21322 0.0
H2923 H 0.14452 0.82607 0.20428 0.0
C2924 C 0.17586 0.80761 0.18656 0.0
C2925 C 0.18501 0.82212 0.17696 0.0
C2926 C 0.17357 0.81257 0.20079 0.0
C2927 C 0.18034 0.83212 0.20575 0.0
C2928 C 0.18981 0.84673 0.19637 0.0
H2929 H 0.14603 0.85408 0.29038 0.0
H2930 H 0.15399 0.85746 0.26486 0.0
C2931 C 0.19207 0.84178 0.18206 0.0
C2932 C 0.17769 0.83711 0.22086 0.0
H2933 H 0.14361 0.82732 0.24413 0.0
C2934 C 0.19357 0.84774 0.23092 0.0
C2935 C 0.1595 0.83039 0.22555 0.0
C2936 C 0.14201 0.81981 0.21502 0.0
C2937 C 0.19168 0.85084 0.24578 0.0
C2938 C 0.17342 0.84292 0.25065 0.0
C2939 C 0.1576 0.83328 0.24041 0.0
C2940 C 0.17029 0.8429 0.26639 0.0
C2941 C 0.20924 0.86232 0.25614 0.0
C2942 C 0.17677 0.83359 0.27566 0.0
C2943 C 0.17222 0.83162 0.29012 0.0
C2944 C 0.16102 0.83885 0.2956 0.0
C2945 C 0.15475 0.84845 0.28642 0.0
C2946 C 0.1593 0.85041 0.27189 0.0
H2947 H 0.22135 0.87266 0.25033 0.0
H2948 H 0.20703 0.87064 0.26515 0.0
H2949 H 0.21305 0.85211 0.26102 0.0
H2950 H 0.1848 0.82719 0.27157 0.0
H2951 H 0.177 0.82388 0.29688 0.0
H2952 H 0.18864 0.39691 0.19585 0.0
H2953 H 0.18411 0.3828 0.21938 0.0
H2954 H 0.19723 0.33995 0.20182 0.0
H2955 H 0.20163 0.35391 0.17814 0.0
H2956 H 0.16297 0.32476 0.21617 0.0
H2957 H 0.22413 0.38489 0.25028 0.0
H2958 H 0.21051 0.39261 0.23958 0.0
H2959 H 0.22296 0.38244 0.23053 0.0
C2960 C 0.1906 0.38451 0.19701 0.0
C2961 C 0.19543 0.37647 0.18517 0.0
C2962 C 0.1882 0.3766 0.21049 0.0
C2963 C 0.19058 0.36052 0.21236 0.0
C2964 C 0.19551 0.35249 0.2006 0.0
H2965 H 0.18306 0.31545 0.29854 0.0
H2966 H 0.19345 0.32552 0.27427 0.0
C2967 C 0.19806 0.3605 0.18712 0.0
C2968 C 0.18667 0.35138 0.22634 0.0
H2969 H 0.19949 0.36099 0.26307 0.0
C2970 C 0.17109 0.33255 0.22641 0.0
C2971 C 0.19744 0.36152 0.23963 0.0
C2972 C 0.21481 0.38142 0.24005 0.0
C2973 C 0.16543 0.32394 0.23955 0.0
C2974 C 0.17553 0.33455 0.25292 0.0
C2975 C 0.19168 0.35298 0.25279 0.0
C2976 C 0.16889 0.32735 0.26719 0.0
C2977 C 0.14852 0.3037 0.23906 0.0
C2978 C 0.15168 0.32506 0.27118 0.0
C2979 C 0.14592 0.31962 0.28504 0.0
C2980 C 0.15737 0.31657 0.29516 0.0
C2981 C 0.17429 0.31827 0.29102 0.0
C2982 C 0.18013 0.32383 0.27717 0.0
H2983 H 0.14564 0.29559 0.22813 0.0
H2984 H 0.15055 0.29521 0.24747 0.0
H2985 H 0.13592 0.3048 0.24131 0.0
H2986 H 0.14296 0.32801 0.26371 0.0
H2987 H 0.13284 0.31848 0.28802 0.0
H2988 H 0.80182 0.60372 0.8083 0.0
H2989 H 0.81062 0.6174 0.7848 0.0
H2990 H 0.79731 0.66193 0.79742 0.0
H2991 H 0.78872 0.64848 0.82112 0.0
H2992 H 0.78759 0.62389 0.7631 0.0
H2993 H 0.85293 0.69173 0.78567 0.0
H2994 H 0.84158 0.67044 0.79575 0.0
H2995 H 0.83165 0.68598 0.79407 0.0
C2996 C 0.80087 0.6165 0.80611 0.0
C2997 C 0.79472 0.62513 0.81659 0.0
C2998 C 0.80578 0.6242 0.79266 0.0
C2999 C 0.80478 0.64076 0.78948 0.0
C3000 C 0.79835 0.64926 0.79978 0.0
H3001 H 0.81628 0.6838 0.7026 0.0
H3002 H 0.80533 0.6736 0.7267 0.0
C3003 C 0.79332 0.64148 0.81323 0.0
C3004 C 0.81062 0.6491 0.77537 0.0
H3005 H 0.84512 0.68806 0.76021 0.0
C3006 C 0.80009 0.63797 0.76243 0.0
C3007 C 0.82702 0.66738 0.77462 0.0
C3008 C 0.83909 0.6796 0.78823 0.0
C3009 C 0.80562 0.6446 0.74869 0.0
C3010 C 0.82201 0.66292 0.74792 0.0
C3011 C 0.83249 0.67409 0.76087 0.0
C3012 C 0.82901 0.67023 0.73374 0.0
C3013 C 0.7941 0.63181 0.73509 0.0
C3014 C 0.8462 0.67227 0.72996 0.0
C3015 C 0.85236 0.67794 0.71621 0.0
C3016 C 0.8414 0.68163 0.70608 0.0
C3017 C 0.82466 0.68047 0.71012 0.0
C3018 C 0.81845 0.67473 0.72386 0.0
H3019 H 0.78433 0.61656 0.73748 0.0
H3020 H 0.78556 0.63776 0.73033 0.0
H3021 H 0.80335 0.63164 0.72675 0.0
H3022 H 0.85458 0.66894 0.73749 0.0
H3023 H 0.86535 0.67878 0.71334 0.0
H3024 H 0.35509 0.15519 0.82765 0.0
H3025 H 0.34483 0.14816 0.80142 0.0
H3026 H 0.38455 0.20776 0.79438 0.0
H3027 H 0.39511 0.21481 0.82047 0.0
H3028 H 0.32936 0.16681 0.78509 0.0
H3029 H 0.39444 0.17557 0.76299 0.0
H3030 H 0.39003 0.17206 0.78197 0.0
H3031 H 0.39835 0.19571 0.77544 0.0
C3032 C 0.36181 0.16672 0.82047 0.0
C3033 C 0.3759 0.18556 0.82611 0.0
C3034 C 0.3559 0.1627 0.80552 0.0
C3035 C 0.36412 0.17738 0.79596 0.0
C3036 C 0.37826 0.19615 0.80154 0.0
H3037 H 0.32504 0.19482 0.71342 0.0
H3038 H 0.33455 0.19449 0.73903 0.0
C3039 C 0.38411 0.2002 0.81648 0.0
C3040 C 0.35722 0.17347 0.78027 0.0
H3041 H 0.37152 0.17558 0.74583 0.0
C3042 C 0.3385 0.16851 0.7765 0.0
C3043 C 0.36912 0.17545 0.7691 0.0
C3044 C 0.38906 0.17981 0.77254 0.0
C3045 C 0.33159 0.16631 0.76183 0.0
C3046 C 0.34381 0.16937 0.7507 0.0
C3047 C 0.36227 0.17346 0.75442 0.0
C3048 C 0.33791 0.1693 0.73521 0.0
C3049 C 0.31134 0.16091 0.75835 0.0
C3050 C 0.33697 0.15544 0.72456 0.0
C3051 C 0.33147 0.15557 0.70992 0.0
C3052 C 0.32717 0.16977 0.70573 0.0
C3053 C 0.32823 0.18368 0.71639 0.0
C3054 C 0.3336 0.18347 0.73101 0.0
H3055 H 0.30265 0.15406 0.76751 0.0
H3056 H 0.31075 0.1743 0.75646 0.0
H3057 H 0.30504 0.15071 0.74829 0.0
H3058 H 0.34033 0.14444 0.72761 0.0
H3059 H 0.33054 0.14455 0.70191 0.0
H3060 H 0.80799 0.15505 0.8287 0.0
H3061 H 0.81349 0.14814 0.80364 0.0
H3062 H 0.83097 0.20737 0.79483 0.0
H3063 H 0.82578 0.2144 0.8198 0.0
H3064 H 0.79836 0.1499 0.77709 0.0
H3065 H 0.87504 0.20224 0.78281 0.0
H3066 H 0.8612 0.19524 0.79834 0.0
H3067 H 0.86178 0.21379 0.78752 0.0
C3068 C 0.81296 0.16655 0.82138 0.0
C3069 C 0.81671 0.18533 0.82624 0.0
C3070 C 0.81614 0.16261 0.8071 0.0
C3071 C 0.82308 0.17738 0.79748 0.0
C3072 C 0.82619 0.19593 0.8022 0.0
H3073 H 0.81786 0.17097 0.70391 0.0
H3074 H 0.81174 0.17052 0.72959 0.0
C3075 C 0.82318 0.19991 0.81645 0.0
C3076 C 0.82683 0.17347 0.78243 0.0
H3077 H 0.86055 0.19098 0.75829 0.0
C3078 C 0.81201 0.15871 0.77301 0.0
C3079 C 0.84476 0.18467 0.7772 0.0
C3080 C 0.86165 0.19972 0.78705 0.0
C3081 C 0.81441 0.15545 0.7583 0.0
C3082 C 0.83198 0.16762 0.75281 0.0
C3083 C 0.84701 0.18179 0.76242 0.0
C3084 C 0.83495 0.16654 0.73705 0.0
C3085 C 0.7981 0.13896 0.74885 0.0
C3086 C 0.85039 0.16511 0.73266 0.0
C3087 C 0.85396 0.16557 0.71792 0.0
C3088 C 0.842 0.16717 0.70734 0.0
C3089 C 0.82667 0.1687 0.71172 0.0
C3090 C 0.82323 0.16851 0.72645 0.0
H3091 H 0.78857 0.12727 0.75553 0.0
H3092 H 0.78971 0.1446 0.74327 0.0
H3093 H 0.80303 0.13246 0.74039 0.0
H3094 H 0.85978 0.16383 0.74066 0.0
H3095 H 0.86604 0.16463 0.71478 0.0
H3096 H 0.31932 0.13874 0.50423 0.0
H3097 H 0.32954 0.14504 0.53042 0.0
H3098 H 0.29338 0.16901 0.53745 0.0
H3099 H 0.28257 0.16224 0.51138 0.0
H3100 H 0.33754 0.19082 0.55109 0.0
H3101 H 0.28799 0.11426 0.56268 0.0
H3102 H 0.30064 0.11852 0.54654 0.0
H3103 H 0.2829 0.12525 0.54768 0.0
C3104 C 0.31345 0.14526 0.51133 0.0
C3105 C 0.30004 0.14989 0.50568 0.0
C3106 C 0.31942 0.14898 0.52626 0.0
C3107 C 0.31218 0.15746 0.53577 0.0
C3108 C 0.29917 0.16253 0.5302 0.0
H3109 H 0.31405 0.16465 0.63008 0.0
H3110 H 0.30648 0.16355 0.60382 0.0
C3111 C 0.29309 0.15873 0.51529 0.0
C3112 C 0.3176 0.16027 0.55166 0.0
H3113 H 0.30828 0.13592 0.58244 0.0
C3114 C 0.33121 0.17887 0.55798 0.0
C3115 C 0.30915 0.14462 0.56053 0.0
C3116 C 0.29428 0.12449 0.55412 0.0
C3117 C 0.33673 0.18217 0.57307 0.0
C3118 C 0.3284 0.16645 0.58192 0.0
C3119 C 0.31465 0.14791 0.57558 0.0
C3120 C 0.33367 0.16887 0.59784 0.0
C3121 C 0.35119 0.20243 0.57951 0.0
C3122 C 0.35147 0.17226 0.60315 0.0
C3123 C 0.35582 0.17298 0.61817 0.0
C3124 C 0.34249 0.17047 0.62807 0.0
C3125 C 0.32478 0.1673 0.62274 0.0
C3126 C 0.32038 0.16645 0.60774 0.0
H3127 H 0.35376 0.21358 0.57172 0.0
H3128 H 0.3466 0.20629 0.5897 0.0
H3129 H 0.36471 0.20291 0.58238 0.0
H3130 H 0.36179 0.17384 0.59564 0.0
H3131 H 0.3695 0.17522 0.62203 0.0
H3132 H 0.84339 0.12097 0.51802 0.0
H3133 H 0.83928 0.12829 0.54329 0.0
H3134 H 0.85896 0.18813 0.53507 0.0
H3135 H 0.86295 0.18087 0.50961 0.0
H3136 H 0.86816 0.15902 0.56518 0.0
H3137 H 0.80539 0.16658 0.55139 0.0
H3138 H 0.81283 0.15393 0.5389 0.0
H3139 H 0.82589 0.18005 0.54162 0.0
C3140 C 0.84674 0.13567 0.52155 0.0
C3141 C 0.85332 0.15031 0.51181 0.0
C3142 C 0.84452 0.13985 0.53601 0.0
C3143 C 0.84869 0.15869 0.54096 0.0
C3144 C 0.85554 0.17346 0.53137 0.0
H3145 H 0.84961 0.1921 0.6339 0.0
H3146 H 0.85857 0.19252 0.60881 0.0
C3147 C 0.8579 0.16932 0.51689 0.0
C3148 C 0.8455 0.16259 0.55615 0.0
H3149 H 0.81536 0.16971 0.57632 0.0
C3150 C 0.85675 0.16156 0.56767 0.0
C3151 C 0.83052 0.16576 0.55926 0.0
C3152 C 0.81783 0.16656 0.54719 0.0
C3153 C 0.85318 0.16325 0.5823 0.0
C3154 C 0.83801 0.16614 0.58542 0.0
C3155 C 0.827 0.16754 0.57388 0.0
C3156 C 0.83257 0.16648 0.60051 0.0
C3157 C 0.86526 0.16125 0.59425 0.0
C3158 C 0.81481 0.15202 0.60405 0.0
C3159 C 0.80966 0.1518 0.61832 0.0
C3160 C 0.82219 0.16605 0.62928 0.0
C3161 C 0.83979 0.1808 0.62567 0.0
C3162 C 0.84494 0.18103 0.61138 0.0
H3163 H 0.87365 0.15497 0.58988 0.0
H3164 H 0.87524 0.1759 0.59982 0.0
H3165 H 0.85647 0.1519 0.60253 0.0
H3166 H 0.80504 0.1407 0.5958 0.0
H3167 H 0.796 0.14029 0.62083 0.0
H3168 H 0.83078 0.69281 0.51507 0.0
H3169 H 0.82648 0.67996 0.53894 0.0
H3170 H 0.88652 0.70421 0.54695 0.0
H3171 H 0.89111 0.71831 0.52345 0.0
H3172 H 0.83433 0.65429 0.55026 0.0
H3173 H 0.87578 0.72584 0.58327 0.0
H3174 H 0.86949 0.72395 0.56392 0.0
H3175 H 0.88877 0.72079 0.57035 0.0
C3176 C 0.84314 0.69575 0.52198 0.0
C3177 C 0.86132 0.7069 0.51738 0.0
C3178 C 0.84063 0.68818 0.53558 0.0
C3179 C 0.8562 0.69142 0.54487 0.0
C3180 C 0.87433 0.70193 0.54014 0.0
H3181 H 0.85314 0.65555 0.63422 0.0
H3182 H 0.86335 0.66432 0.60969 0.0
C3183 C 0.87689 0.70974 0.52657 0.0
C3184 C 0.85319 0.68379 0.5595 0.0
H3185 H 0.86262 0.69778 0.59618 0.0
C3186 C 0.84062 0.6638 0.56029 0.0
C3187 C 0.86147 0.6962 0.57261 0.0
C3188 C 0.8745 0.71791 0.57256 0.0
C3189 C 0.83571 0.656 0.5738 0.0
C3190 C 0.84356 0.6685 0.58681 0.0
C3191 C 0.85671 0.68829 0.58611 0.0
C3192 C 0.83707 0.66171 0.6012 0.0
C3193 C 0.8219 0.63453 0.57408 0.0
C3194 C 0.81893 0.6573 0.60443 0.0
C3195 C 0.81323 0.65264 0.61843 0.0
C3196 C 0.82559 0.65236 0.6294 0.0
C3197 C 0.84346 0.65598 0.62598 0.0
C3198 C 0.84927 0.6609 0.61201 0.0
H3199 H 0.82038 0.62618 0.56352 0.0
H3200 H 0.82638 0.6284 0.58301 0.0
H3201 H 0.80787 0.63248 0.5762 0.0
H3202 H 0.8094 0.65806 0.59624 0.0
H3203 H 0.79936 0.64987 0.62078 0.0
loop_
_geom_bond_atom_site_label_1
_geom_bond_atom_site_label_2
_geom_bond_distance
_geom_bond_site_symmetry_2
_ccdc_geom_bond_type
C0 C1 1.391 . S
C0 C4 1.391 . S
C0 H42 0.948 . S
C1 C0 1.391 . S
C1 C2 1.391 . S
C2 C1 1.391 . S
C2 H58 0.947 . S
C2 C59 1.392 . S
C3 C4 1.391 . S
C3 C7 1.397 . S
C3 C59 1.419 . S
C4 C0 1.391 . S
C4 C3 1.391 . S
C4 C5 1.399 . S
C5 C4 1.399 . S
C5 C8 1.396 . S
C5 C17 1.453 . S
C5 C18 1.684 . S
H6 C30 0.948 . S
C7 C3 1.397 . S
C7 C8 1.394 . S
C7 C26 1.723 . S
C8 C5 1.396 . S
C8 C7 1.394 . S
C8 C38 1.723 . S
H9 C32 0.947 . S
H10 C33 0.948 . S
H11 C39 0.982 . S
H12 C40 0.979 . S
H13 C40 0.980 . S
H14 C40 0.983 . S
H15 C39 0.979 . S
H16 C39 0.977 . S
C17 C5 1.453 . S
C17 H46 0.982 . S
C17 H47 0.979 . S
C17 H48 0.977 . S
C18 C5 1.684 . S
C18 H43 0.979 . S
C18 H44 0.980 . S
C18 H45 0.983 . S
C19 C20 1.391 . S
C19 C24 1.391 . S
C19 H49 0.948 . S
C20 C19 1.391 . S
C20 C21 1.391 . S
C21 C20 1.391 . S
C21 C22 1.392 . S
C21 H50 0.947 . S
C22 C21 1.392 . S
C22 C23 1.419 . S
C22 H51 0.948 . S
C23 C22 1.419 . S
C23 C24 1.391 . S
C23 C27 1.397 . S
C24 C19 1.391 . S
C24 C23 1.391 . S
C24 C25 1.399 . S
C25 C24 1.399 . S
C25 C26 1.396 . S
C25 C28 1.453 . S
C25 C29 1.684 . S
C26 C7 1.723 . S
C26 C25 1.396 . S
C26 C27 1.394 . S
C27 C23 1.397 . S
C27 C26 1.394 . S
C27 C37 1.723 . S
C28 C25 1.453 . S
C28 H52 0.982 . S
C28 H53 0.979 . S
C28 H54 0.977 . S
C29 C25 1.684 . S
C29 H55 0.979 . S
C29 H56 0.980 . S
C29 H57 0.983 . S
C30 H6 0.948 . S
C30 C31 1.391 . S
C30 C35 1.391 . S
C31 C30 1.391 . S
C31 C32 1.391 . S
C32 H9 0.947 . S
C32 C31 1.391 . S
C32 C33 1.392 . S
C33 H10 0.948 . S
C33 C32 1.392 . S
C33 C34 1.419 . S
C34 C33 1.419 . S
C34 C35 1.391 . S
C34 C38 1.397 . S
C35 C30 1.391 . S
C35 C34 1.391 . S
C35 C36 1.399 . S
C36 C35 1.399 . S
C36 C37 1.396 . S
C36 C39 1.453 . S
C36 C40 1.684 . S
C37 C27 1.723 . S
C37 C36 1.396 . S
C37 C38 1.394 . S
C38 C8 1.723 . S
C38 C34 1.397 . S
C38 C37 1.394 . S
C39 H11 0.982 . S
C39 H15 0.979 . S
C39 H16 0.977 . S
C39 C36 1.453 . S
C40 H12 0.979 . S
C40 H13 0.980 . S
C40 H14 0.983 . S
C40 C36 1.684 . S
H41 C59 0.948 . S
H42 C0 0.948 . S
H43 C18 0.979 . S
H44 C18 0.980 . S
H45 C18 0.983 . S
H46 C17 0.982 . S
H47 C17 0.979 . S
H48 C17 0.977 . S
H49 C19 0.948 . S
H50 C21 0.947 . S
H51 C22 0.948 . S
H52 C28 0.982 . S
H53 C28 0.979 . S
H54 C28 0.977 . S
H55 C29 0.979 . S
H56 C29 0.980 . S
H57 C29 0.983 . S
H58 C2 0.947 . S
C59 C2 1.392 . S
C59 C3 1.419 . S
C59 H41 0.948 . S
C60 C61 1.391 . S
C60 C64 1.391 . S
C60 H102 0.948 . S
C61 C60 1.391 . S
C61 C62 1.391 . S
C62 C61 1.391 . S
C62 H118 0.947 . S
C62 C119 1.392 . S
C63 C64 1.391 . S
C63 C67 1.397 . S
C63 C119 1.419 . S
C64 C60 1.391 . S
C64 C63 1.391 . S
C64 C65 1.399 . S
C65 C64 1.399 . S
C65 C68 1.396 . S
C65 C77 1.453 . S
C65 C78 1.684 . S
H66 C90 0.948 . S
C67 C63 1.397 . S
C67 C68 1.394 . S
C67 C86 1.723 . S
C68 C65 1.396 . S
C68 C67 1.394 . S
C68 C98 1.723 . S
H69 C92 0.947 . S
H70 C93 0.948 . S
H71 C99 0.982 . S
H72 C100 0.979 . S
H73 C100 0.980 . S
H74 C100 0.983 . S
H75 C99 0.979 . S
H76 C99 0.977 . S
C77 C65 1.453 . S
C77 H106 0.982 . S
C77 H107 0.979 . S
C77 H108 0.977 . S
C78 C65 1.684 . S
C78 H103 0.979 . S
C78 H104 0.980 . S
C78 H105 0.983 . S
C79 C80 1.391 . S
C79 C84 1.391 . S
C79 H109 0.948 . S
C80 C79 1.391 . S
C80 C81 1.391 . S
C81 C80 1.391 . S
C81 C82 1.392 . S
C81 H110 0.947 . S
C82 C81 1.392 . S
C82 C83 1.419 . S
C82 H111 0.948 . S
C83 C82 1.419 . S
C83 C84 1.391 . S
C83 C87 1.397 . S
C84 C79 1.391 . S
C84 C83 1.391 . S
C84 C85 1.399 . S
C85 C84 1.399 . S
C85 C86 1.396 . S
C85 C88 1.453 . S
C85 C89 1.684 . S
C86 C67 1.723 . S
C86 C85 1.396 . S
C86 C87 1.394 . S
C87 C83 1.397 . S
C87 C86 1.394 . S
C87 C97 1.723 . S
C88 C85 1.453 . S
C88 H112 0.982 . S
C88 H113 0.979 . S
C88 H114 0.977 . S
C89 C85 1.684 . S
C89 H115 0.979 . S
C89 H116 0.980 . S
C89 H117 0.983 . S
C90 H66 0.948 . S
C90 C91 1.391 . S
C90 C95 1.391 . S
C91 C90 1.391 . S
C91 C92 1.391 . S
C92 H69 0.947 . S
C92 C91 1.391 . S
C92 C93 1.392 . S
C93 H70 0.948 . S
C93 C92 1.392 . S
C93 C94 1.419 . S
C94 C93 1.419 . S
C94 C95 1.391 . S
C94 C98 1.397 . S
C95 C90 1.391 . S
C95 C94 1.391 . S
C95 C96 1.399 . S
C96 C95 1.399 . S
C96 C97 1.396 . S
C96 C99 1.453 . S
C96 C100 1.684 . S
C97 C87 1.723 . S
C97 C96 1.396 . S
C97 C98 1.394 . S
C98 C68 1.723 . S
C98 C94 1.397 . S
C98 C97 1.394 . S
C99 H71 0.982 . S
C99 H75 0.979 . S
C99 H76 0.977 . S
C99 C96 1.453 . S
C100 H72 0.979 . S
C100 H73 0.980 . S
C100 H74 0.983 . S
C100 C96 1.684 . S
H101 C119 0.948 . S
H102 C60 0.948 . S
H103 C78 0.979 . S
H104 C78 0.980 . S
H105 C78 0.983 . S
H106 C77 0.982 . S
H107 C77 0.979 . S
H108 C77 0.977 . S
H109 C79 0.948 . S
H110 C81 0.947 . S
H111 C82 0.948 . S
H112 C88 0.982 . S
H113 C88 0.979 . S
H114 C88 0.977 . S
H115 C89 0.979 . S
H116 C89 0.980 . S
H117 C89 0.983 . S
H118 C62 0.947 . S
C119 C62 1.392 . S
C119 C63 1.419 . S
C119 H101 0.948 . S
C120 C121 1.391 . S
C120 C124 1.391 . S
C120 H162 0.948 . S
C121 C120 1.391 . S
C121 C122 1.391 . S
C122 C121 1.391 . S
C122 H178 0.947 . S
C122 C179 1.392 . S
C123 C124 1.391 . S
C123 C127 1.397 . S
C123 C179 1.419 . S
C124 C120 1.391 . S
C124 C123 1.391 . S
C124 C125 1.399 . S
C125 C124 1.399 . S
C125 C128 1.396 . S
C125 C137 1.453 . S
C125 C138 1.684 . S
H126 C150 0.948 . S
C127 C123 1.397 . S
C127 C128 1.394 . S
C127 C146 1.723 . S
C128 C125 1.396 . S
C128 C127 1.394 . S
C128 C158 1.723 . S
H129 C152 0.947 . S
H130 C153 0.948 . S
H131 C159 0.982 . S
H132 C160 0.979 . S
H133 C160 0.980 . S
H134 C160 0.983 . S
H135 C159 0.979 . S
H136 C159 0.977 . S
C137 C125 1.453 . S
C137 H166 0.982 . S
C137 H167 0.979 . S
C137 H168 0.977 . S
C138 C125 1.684 . S
C138 H163 0.979 . S
C138 H164 0.980 . S
C138 H165 0.983 . S
C139 C140 1.391 . S
C139 C144 1.391 . S
C139 H169 0.948 . S
C140 C139 1.391 . S
C140 C141 1.391 . S
C141 C140 1.391 . S
C141 C142 1.392 . S
C141 H170 0.947 . S
C142 C141 1.392 . S
C142 C143 1.419 . S
C142 H171 0.948 . S
C143 C142 1.419 . S
C143 C144 1.391 . S
C143 C147 1.397 . S
C144 C139 1.391 . S
C144 C143 1.391 . S
C144 C145 1.399 . S
C145 C144 1.399 . S
C145 C146 1.396 . S
C145 C148 1.453 . S
C145 C149 1.684 . S
C146 C127 1.723 . S
C146 C145 1.396 . S
C146 C147 1.394 . S
C147 C143 1.397 . S
C147 C146 1.394 . S
C147 C157 1.723 . S
C148 C145 1.453 . S
C148 H172 0.982 . S
C148 H173 0.979 . S
C148 H174 0.977 . S
C149 C145 1.684 . S
C149 H175 0.979 . S
C149 H176 0.980 . S
C149 H177 0.983 . S
C150 H126 0.948 . S
C150 C151 1.391 . S
C150 C155 1.391 . S
C151 C150 1.391 . S
C151 C152 1.391 . S
C152 H129 0.947 . S
C152 C151 1.391 . S
C152 C153 1.392 . S
C153 H130 0.948 . S
C153 C152 1.392 . S
C153 C154 1.419 . S
C154 C153 1.419 . S
C154 C155 1.391 . S
C154 C158 1.397 . S
C155 C150 1.391 . S
C155 C154 1.391 . S
C155 C156 1.399 . S
C156 C155 1.399 . S
C156 C157 1.396 . S
C156 C159 1.453 . S
C156 C160 1.684 . S
C157 C147 1.723 . S
C157 C156 1.396 . S
C157 C158 1.394 . S
C158 C128 1.723 . S
C158 C154 1.397 . S
C158 C157 1.394 . S
C159 H131 0.982 . S
C159 H135 0.979 . S
C159 H136 0.977 . S
C159 C156 1.453 . S
C160 H132 0.979 . S
C160 H133 0.980 . S
C160 H134 0.983 . S
C160 C156 1.684 . S
H161 C179 0.948 . S
H162 C120 0.948 . S
H163 C138 0.979 . S
H164 C138 0.980 . S
H165 C138 0.983 . S
H166 C137 0.982 . S
H167 C137 0.979 . S
H168 C137 0.977 . S
H169 C139 0.948 . S
H170 C141 0.947 . S
H171 C142 0.948 . S
H172 C148 0.982 . S
H173 C148 0.979 . S
H174 C148 0.977 . S
H175 C149 0.979 . S
H176 C149 0.980 . S
H177 C149 0.983 . S
H178 C122 0.947 . S
C179 C122 1.392 . S
C179 C123 1.419 . S
C179 H161 0.948 . S
C180 C181 1.391 . S
C180 C184 1.391 . S
C180 H222 0.948 . S
C181 C180 1.391 . S
C181 C182 1.391 . S
C182 C181 1.391 . S
C182 H238 0.947 . S
C182 C239 1.392 . S
C183 C184 1.391 . S
C183 C187 1.397 . S
C183 C239 1.419 . S
C184 C180 1.391 . S
C184 C183 1.391 . S
C184 C185 1.399 . S
C185 C184 1.399 . S
C185 C188 1.396 . S
C185 C197 1.453 . S
C185 C198 1.684 . S
H186 C210 0.948 . S
C187 C183 1.397 . S
C187 C188 1.394 . S
C187 C206 1.723 . S
C188 C185 1.396 . S
C188 C187 1.394 . S
C188 C218 1.723 . S
H189 C212 0.947 . S
H190 C213 0.948 . S
H191 C219 0.982 . S
H192 C220 0.979 . S
H193 C220 0.980 . S
H194 C220 0.983 . S
H195 C219 0.979 . S
H196 C219 0.977 . S
C197 C185 1.453 . S
C197 H226 0.982 . S
C197 H227 0.979 . S
C197 H228 0.977 . S
C198 C185 1.684 . S
C198 H223 0.979 . S
C198 H224 0.980 . S
C198 H225 0.983 . S
C199 C200 1.391 . S
C199 C204 1.391 . S
C199 H229 0.948 . S
C200 C199 1.391 . S
C200 C201 1.391 . S
C201 C200 1.391 . S
C201 C202 1.392 . S
C201 H230 0.947 . S
C202 C201 1.392 . S
C202 C203 1.419 . S
C202 H231 0.948 . S
C203 C202 1.419 . S
C203 C204 1.391 . S
C203 C207 1.397 . S
C204 C199 1.391 . S
C204 C203 1.391 . S
C204 C205 1.399 . S
C205 C204 1.399 . S
C205 C206 1.396 . S
C205 C208 1.453 . S
C205 C209 1.684 . S
C206 C187 1.723 . S
C206 C205 1.396 . S
C206 C207 1.394 . S
C207 C203 1.397 . S
C207 C206 1.394 . S
C207 C217 1.723 . S
C208 C205 1.453 . S
C208 H232 0.982 . S
C208 H233 0.979 . S
C208 H234 0.977 . S
C209 C205 1.684 . S
C209 H235 0.979 . S
C209 H236 0.980 . S
C209 H237 0.983 . S
C210 H186 0.948 . S
C210 C211 1.391 . S
C210 C215 1.391 . S
C211 C210 1.391 . S
C211 C212 1.391 . S
C212 H189 0.947 . S
C212 C211 1.391 . S
C212 C213 1.392 . S
C213 H190 0.948 . S
C213 C212 1.392 . S
C213 C214 1.419 . S
C214 C213 1.419 . S
C214 C215 1.391 . S
C214 C218 1.397 . S
C215 C210 1.391 . S
C215 C214 1.391 . S
C215 C216 1.399 . S
C216 C215 1.399 . S
C216 C217 1.396 . S
C216 C219 1.453 . S
C216 C220 1.684 . S
C217 C207 1.723 . S
C217 C216 1.396 . S
C217 C218 1.394 . S
C218 C188 1.723 . S
C218 C214 1.397 . S
C218 C217 1.394 . S
C219 H191 0.982 . S
C219 H195 0.979 . S
C219 H196 0.977 . S
C219 C216 1.453 . S
C220 H192 0.979 . S
C220 H193 0.980 . S
C220 H194 0.983 . S
C220 C216 1.684 . S
H221 C239 0.948 . S
H222 C180 0.948 . S
H223 C198 0.979 . S
H224 C198 0.980 . S
H225 C198 0.983 . S
H226 C197 0.982 . S
H227 C197 0.979 . S
H228 C197 0.977 . S
H229 C199 0.948 . S
H230 C201 0.947 . S
H231 C202 0.948 . S
H232 C208 0.982 . S
H233 C208 0.979 . S
H234 C208 0.977 . S
H235 C209 0.979 . S
H236 C209 0.980 . S
H237 C209 0.983 . S
H238 C182 0.947 . S
C239 C182 1.392 . S
C239 C183 1.419 . S
C239 H221 0.948 . S
C240 C241 1.391 . S
C240 C244 1.391 . S
C240 H282 0.948 . S
C241 C240 1.391 . S
C241 C242 1.391 . S
C242 C241 1.391 . S
C242 H298 0.947 . S
C242 C299 1.392 . S
C243 C244 1.391 . S
C243 C247 1.397 . S
C243 C299 1.419 . S
C244 C240 1.391 . S
C244 C243 1.391 . S
C244 C245 1.399 . S
C245 C244 1.399 . S
C245 C248 1.396 . S
C245 C257 1.453 . S
C245 C258 1.684 . S
H246 C270 0.948 . S
C247 C243 1.397 . S
C247 C248 1.394 . S
C247 C266 1.723 . S
C248 C245 1.396 . S
C248 C247 1.394 . S
C248 C278 1.723 . S
H249 C272 0.947 . S
H250 C273 0.948 . S
H251 C279 0.982 . S
H252 C280 0.979 . S
H253 C280 0.980 . S
H254 C280 0.983 . S
H255 C279 0.979 . S
H256 C279 0.977 . S
C257 C245 1.453 . S
C257 H286 0.982 . S
C257 H287 0.979 . S
C257 H288 0.977 . S
C258 C245 1.684 . S
C258 H283 0.979 . S
C258 H284 0.980 . S
C258 H285 0.983 . S
C259 C260 1.391 . S
C259 C264 1.391 . S
C259 H289 0.948 . S
C260 C259 1.391 . S
C260 C261 1.391 . S
C261 C260 1.391 . S
C261 C262 1.392 . S
C261 H290 0.947 . S
C262 C261 1.392 . S
C262 C263 1.419 . S
C262 H291 0.948 . S
C263 C262 1.419 . S
C263 C264 1.391 . S
C263 C267 1.397 . S
C264 C259 1.391 . S
C264 C263 1.391 . S
C264 C265 1.399 . S
C265 C264 1.399 . S
C265 C266 1.396 . S
C265 C268 1.453 . S
C265 C269 1.684 . S
C266 C247 1.723 . S
C266 C265 1.396 . S
C266 C267 1.394 . S
C267 C263 1.397 . S
C267 C266 1.394 . S
C267 C277 1.723 . S
C268 C265 1.453 . S
C268 H292 0.982 . S
C268 H293 0.979 . S
C268 H294 0.977 . S
C269 C265 1.684 . S
C269 H295 0.979 . S
C269 H296 0.980 . S
C269 H297 0.983 . S
C270 H246 0.948 . S
C270 C271 1.391 . S
C270 C275 1.391 . S
C271 C270 1.391 . S
C271 C272 1.391 . S
C272 H249 0.947 . S
C272 C271 1.391 . S
C272 C273 1.392 . S
C273 H250 0.948 . S
C273 C272 1.392 . S
C273 C274 1.419 . S
C274 C273 1.419 . S
C274 C275 1.391 . S
C274 C278 1.397 . S
C275 C270 1.391 . S
C275 C274 1.391 . S
C275 C276 1.399 . S
C276 C275 1.399 . S
C276 C277 1.396 . S
C276 C279 1.453 . S
C276 C280 1.684 . S
C277 C267 1.723 . S
C277 C276 1.396 . S
C277 C278 1.394 . S
C278 C248 1.723 . S
C278 C274 1.397 . S
C278 C277 1.394 . S
C279 H251 0.982 . S
C279 H255 0.979 . S
C279 H256 0.977 . S
C279 C276 1.453 . S
C280 H252 0.979 . S
C280 H253 0.980 . S
C280 H254 0.983 . S
C280 C276 1.684 . S
H281 C299 0.948 . S
H282 C240 0.948 . S
H283 C258 0.979 . S
H284 C258 0.980 . S
H285 C258 0.983 . S
H286 C257 0.982 . S
H287 C257 0.979 . S
H288 C257 0.977 . S
H289 C259 0.948 . S
H290 C261 0.947 . S
H291 C262 0.948 . S
H292 C268 0.982 . S
H293 C268 0.979 . S
H294 C268 0.977 . S
H295 C269 0.979 . S
H296 C269 0.980 . S
H297 C269 0.983 . S
H298 C242 0.947 . S
C299 C242 1.392 . S
C299 C243 1.419 . S
C299 H281 0.948 . S
C300 C301 1.391 . S
C300 C304 1.391 . S
C300 H342 0.948 . S
C301 C300 1.391 . S
C301 C302 1.391 . S
C302 C301 1.391 . S
C302 H358 0.947 . S
C302 C359 1.392 . S
C303 C304 1.391 . S
C303 C307 1.397 . S
C303 C359 1.419 . S
C304 C300 1.391 . S
C304 C303 1.391 . S
C304 C305 1.399 . S
C305 C304 1.399 . S
C305 C308 1.396 . S
C305 C317 1.453 . S
C305 C318 1.684 . S
H306 C330 0.948 . S
C307 C303 1.397 . S
C307 C308 1.394 . S
C307 C326 1.723 . S
C308 C305 1.396 . S
C308 C307 1.394 . S
C308 C338 1.723 . S
H309 C332 0.947 . S
H310 C333 0.948 . S
H311 C339 0.982 . S
H312 C340 0.979 . S
H313 C340 0.980 . S
H314 C340 0.983 . S
H315 C339 0.979 . S
H316 C339 0.977 . S
C317 C305 1.453 . S
C317 H346 0.982 . S
C317 H347 0.979 . S
C317 H348 0.977 . S
C318 C305 1.684 . S
C318 H343 0.979 . S
C318 H344 0.980 . S
C318 H345 0.983 . S
C319 C320 1.391 . S
C319 C324 1.391 . S
C319 H349 0.948 . S
C320 C319 1.391 . S
C320 C321 1.391 . S
C321 C320 1.391 . S
C321 C322 1.392 . S
C321 H350 0.947 . S
C322 C321 1.392 . S
C322 C323 1.419 . S
C322 H351 0.948 . S
C323 C322 1.419 . S
C323 C324 1.391 . S
C323 C327 1.397 . S
C324 C319 1.391 . S
C324 C323 1.391 . S
C324 C325 1.399 . S
C325 C324 1.399 . S
C325 C326 1.396 . S
C325 C328 1.453 . S
C325 C329 1.684 . S
C326 C307 1.723 . S
C326 C325 1.396 . S
C326 C327 1.394 . S
C327 C323 1.397 . S
C327 C326 1.394 . S
C327 C337 1.723 . S
C328 C325 1.453 . S
C328 H352 0.982 . S
C328 H353 0.979 . S
C328 H354 0.977 . S
C329 C325 1.684 . S
C329 H355 0.979 . S
C329 H356 0.980 . S
C329 H357 0.983 . S
C330 H306 0.948 . S
C330 C331 1.391 . S
C330 C335 1.391 . S
C331 C330 1.391 . S
C331 C332 1.391 . S
C332 H309 0.947 . S
C332 C331 1.391 . S
C332 C333 1.392 . S
C333 H310 0.948 . S
C333 C332 1.392 . S
C333 C334 1.419 . S
C334 C333 1.419 . S
C334 C335 1.391 . S
C334 C338 1.397 . S
C335 C330 1.391 . S
C335 C334 1.391 . S
C335 C336 1.399 . S
C336 C335 1.399 . S
C336 C337 1.396 . S
C336 C339 1.453 . S
C336 C340 1.684 . S
C337 C327 1.723 . S
C337 C336 1.396 . S
C337 C338 1.394 . S
C338 C308 1.723 . S
C338 C334 1.397 . S
C338 C337 1.394 . S
C339 H311 0.982 . S
C339 H315 0.979 . S
C339 H316 0.977 . S
C339 C336 1.453 . S
C340 H312 0.979 . S
C340 H313 0.980 . S
C340 H314 0.983 . S
C340 C336 1.684 . S
H341 C359 0.948 . S
H342 C300 0.948 . S
H343 C318 0.979 . S
H344 C318 0.980 . S
H345 C318 0.983 . S
H346 C317 0.982 . S
H347 C317 0.979 . S
H348 C317 0.977 . S
H349 C319 0.948 . S
H350 C321 0.947 . S
H351 C322 0.948 . S
H352 C328 0.982 . S
H353 C328 0.979 . S
H354 C328 0.977 . S
H355 C329 0.979 . S
H356 C329 0.980 . S
H357 C329 0.983 . S
H358 C302 0.947 . S
C359 C302 1.392 . S
C359 C303 1.419 . S
C359 H341 0.948 . S
C360 C361 1.391 . S
C360 C364 1.391 . S
C360 H402 0.948 . S
C361 C360 1.391 . S
C361 C362 1.391 . S
C362 C361 1.391 . S
C362 H418 0.947 . S
C362 C419 1.392 . S
C363 C364 1.391 . S
C363 C367 1.397 . S
C363 C419 1.419 . S
C364 C360 1.391 . S
C364 C363 1.391 . S
C364 C365 1.399 . S
C365 C364 1.399 . S
C365 C368 1.396 . S
C365 C377 1.453 . S
C365 C378 1.684 . S
H366 C390 0.948 . S
C367 C363 1.397 . S
C367 C368 1.394 . S
C367 C386 1.723 . S
C368 C365 1.396 . S
C368 C367 1.394 . S
C368 C398 1.723 . S
H369 C392 0.947 . S
H370 C393 0.948 . S
H371 C399 0.982 . S
H372 C400 0.979 . S
H373 C400 0.980 . S
H374 C400 0.983 . S
H375 C399 0.979 . S
H376 C399 0.977 . S
C377 C365 1.453 . S
C377 H406 0.982 . S
C377 H407 0.979 . S
C377 H408 0.977 . S
C378 C365 1.684 . S
C378 H403 0.979 . S
C378 H404 0.980 . S
C378 H405 0.983 . S
C379 C380 1.391 . S
C379 C384 1.391 . S
C379 H409 0.948 . S
C380 C379 1.391 . S
C380 C381 1.391 . S
C381 C380 1.391 . S
C381 C382 1.392 . S
C381 H410 0.947 . S
C382 C381 1.392 . S
C382 C383 1.419 . S
C382 H411 0.948 . S
C383 C382 1.419 . S
C383 C384 1.391 . S
C383 C387 1.397 . S
C384 C379 1.391 . S
C384 C383 1.391 . S
C384 C385 1.399 . S
C385 C384 1.399 . S
C385 C386 1.396 . S
C385 C388 1.453 . S
C385 C389 1.684 . S
C386 C367 1.723 . S
C386 C385 1.396 . S
C386 C387 1.394 . S
C387 C383 1.397 . S
C387 C386 1.394 . S
C387 C397 1.723 . S
C388 C385 1.453 . S
C388 H412 0.982 . S
C388 H413 0.979 . S
C388 H414 0.977 . S
C389 C385 1.684 . S
C389 H415 0.979 . S
C389 H416 0.980 . S
C389 H417 0.983 . S
C390 H366 0.948 . S
C390 C391 1.391 . S
C390 C395 1.391 . S
C391 C390 1.391 . S
C391 C392 1.391 . S
C392 H369 0.947 . S
C392 C391 1.391 . S
C392 C393 1.392 . S
C393 H370 0.948 . S
C393 C392 1.392 . S
C393 C394 1.419 . S
C394 C393 1.419 . S
C394 C395 1.391 . S
C394 C398 1.397 . S
C395 C390 1.391 . S
C395 C394 1.391 . S
C395 C396 1.399 . S
C396 C395 1.399 . S
C396 C397 1.396 . S
C396 C399 1.453 . S
C396 C400 1.684 . S
C397 C387 1.723 . S
C397 C396 1.396 . S
C397 C398 1.394 . S
C398 C368 1.723 . S
C398 C394 1.397 . S
C398 C397 1.394 . S
C399 H371 0.982 . S
C399 H375 0.979 . S
C399 H376 0.977 . S
C399 C396 1.453 . S
C400 H372 0.979 . S
C400 H373 0.980 . S
C400 H374 0.983 . S
C400 C396 1.684 . S
H401 C419 0.948 . S
H402 C360 0.948 . S
H403 C378 0.979 . S
H404 C378 0.980 . S
H405 C378 0.983 . S
H406 C377 0.982 . S
H407 C377 0.979 . S
H408 C377 0.977 . S
H409 C379 0.948 . S
H410 C381 0.947 . S
H411 C382 0.948 . S
H412 C388 0.982 . S
H413 C388 0.979 . S
H414 C388 0.977 . S
H415 C389 0.979 . S
H416 C389 0.980 . S
H417 C389 0.983 . S
H418 C362 0.947 . S
C419 C362 1.392 . S
C419 C363 1.419 . S
C419 H401 0.948 . S
C420 C421 1.391 . S
C420 C424 1.391 . S
C420 H462 0.948 . S
C421 C420 1.391 . S
C421 C422 1.391 . S
C422 C421 1.391 . S
C422 H478 0.947 . S
C422 C479 1.392 . S
C423 C424 1.391 . S
C423 C427 1.397 . S
C423 C479 1.419 . S
C424 C420 1.391 . S
C424 C423 1.391 . S
C424 C425 1.399 . S
C425 C424 1.399 . S
C425 C428 1.396 . S
C425 C437 1.453 . S
C425 C438 1.684 . S
H426 C450 0.948 . S
C427 C423 1.397 . S
C427 C428 1.394 . S
C427 C446 1.723 . S
C428 C425 1.396 . S
C428 C427 1.394 . S
C428 C458 1.723 . S
H429 C452 0.947 . S
H430 C453 0.948 . S
H431 C459 0.982 . S
H432 C460 0.979 . S
H433 C460 0.980 . S
H434 C460 0.983 . S
H435 C459 0.979 . S
H436 C459 0.977 . S
C437 C425 1.453 . S
C437 H466 0.982 . S
C437 H467 0.979 . S
C437 H468 0.977 . S
C438 C425 1.684 . S
C438 H463 0.979 . S
C438 H464 0.980 . S
C438 H465 0.983 . S
C439 C440 1.391 . S
C439 C444 1.391 . S
C439 H469 0.948 . S
C440 C439 1.391 . S
C440 C441 1.391 . S
C441 C440 1.391 . S
C441 C442 1.392 . S
C441 H470 0.947 . S
C442 C441 1.392 . S
C442 C443 1.419 . S
C442 H471 0.948 . S
C443 C442 1.419 . S
C443 C444 1.391 . S
C443 C447 1.397 . S
C444 C439 1.391 . S
C444 C443 1.391 . S
C444 C445 1.399 . S
C445 C444 1.399 . S
C445 C446 1.396 . S
C445 C448 1.453 . S
C445 C449 1.684 . S
C446 C427 1.723 . S
C446 C445 1.396 . S
C446 C447 1.394 . S
C447 C443 1.397 . S
C447 C446 1.394 . S
C447 C457 1.723 . S
C448 C445 1.453 . S
C448 H472 0.982 . S
C448 H473 0.979 . S
C448 H474 0.977 . S
C449 C445 1.684 . S
C449 H475 0.979 . S
C449 H476 0.980 . S
C449 H477 0.983 . S
C450 H426 0.948 . S
C450 C451 1.391 . S
C450 C455 1.391 . S
C451 C450 1.391 . S
C451 C452 1.391 . S
C452 H429 0.947 . S
C452 C451 1.391 . S
C452 C453 1.392 . S
C453 H430 0.948 . S
C453 C452 1.392 . S
C453 C454 1.419 . S
C454 C453 1.419 . S
C454 C455 1.391 . S
C454 C458 1.397 . S
C455 C450 1.391 . S
C455 C454 1.391 . S
C455 C456 1.399 . S
C456 C455 1.399 . S
C456 C457 1.396 . S
C456 C459 1.453 . S
C456 C460 1.684 . S
C457 C447 1.723 . S
C457 C456 1.396 . S
C457 C458 1.394 . S
C458 C428 1.723 . S
C458 C454 1.397 . S
C458 C457 1.394 . S
C459 H431 0.982 . S
C459 H435 0.979 . S
C459 H436 0.977 . S
C459 C456 1.453 . S
C460 H432 0.979 . S
C460 H433 0.980 . S
C460 H434 0.983 . S
C460 C456 1.684 . S
H461 C479 0.948 . S
H462 C420 0.948 . S
H463 C438 0.979 . S
H464 C438 0.980 . S
H465 C438 0.983 . S
H466 C437 0.982 . S
H467 C437 0.979 . S
H468 C437 0.977 . S
H469 C439 0.948 . S
H470 C441 0.947 . S
H471 C442 0.948 . S
H472 C448 0.982 . S
H473 C448 0.979 . S
H474 C448 0.977 . S
H475 C449 0.979 . S
H476 C449 0.980 . S
H477 C449 0.983 . S
H478 C422 0.947 . S
C479 C422 1.392 . S
C479 C423 1.419 . S
C479 H461 0.948 . S
C480 C481 1.391 . S
C480 C484 1.391 . S
C480 H522 0.948 . S
C481 C480 1.391 . S
C481 C482 1.391 . S
C482 C481 1.391 . S
C482 H538 0.947 . S
C482 C539 1.392 . S
C483 C484 1.391 . S
C483 C487 1.397 . S
C483 C539 1.419 . S
C484 C480 1.391 . S
C484 C483 1.391 . S
C484 C485 1.399 . S
C485 C484 1.399 . S
C485 C488 1.396 . S
C485 C497 1.453 . S
C485 C498 1.684 . S
H486 C510 0.948 . S
C487 C483 1.397 . S
C487 C488 1.394 . S
C487 C506 1.723 . S
C488 C485 1.396 . S
C488 C487 1.394 . S
C488 C518 1.723 . S
H489 C512 0.947 . S
H490 C513 0.948 . S
H491 C519 0.982 . S
H492 C520 0.979 . S
H493 C520 0.980 . S
H494 C520 0.983 . S
H495 C519 0.979 . S
H496 C519 0.977 . S
C497 C485 1.453 . S
C497 H526 0.982 . S
C497 H527 0.979 . S
C497 H528 0.977 . S
C498 C485 1.684 . S
C498 H523 0.979 . S
C498 H524 0.980 . S
C498 H525 0.983 . S
C499 C500 1.391 . S
C499 C504 1.391 . S
C499 H529 0.948 . S
C500 C499 1.391 . S
C500 C501 1.391 . S
C501 C500 1.391 . S
C501 C502 1.392 . S
C501 H530 0.947 . S
C502 C501 1.392 . S
C502 C503 1.419 . S
C502 H531 0.948 . S
C503 C502 1.419 . S
C503 C504 1.391 . S
C503 C507 1.397 . S
C504 C499 1.391 . S
C504 C503 1.391 . S
C504 C505 1.399 . S
C505 C504 1.399 . S
C505 C506 1.396 . S
C505 C508 1.453 . S
C505 C509 1.684 . S
C506 C487 1.723 . S
C506 C505 1.396 . S
C506 C507 1.394 . S
C507 C503 1.397 . S
C507 C506 1.394 . S
C507 C517 1.723 . S
C508 C505 1.453 . S
C508 H532 0.982 . S
C508 H533 0.979 . S
C508 H534 0.977 . S
C509 C505 1.684 . S
C509 H535 0.979 . S
C509 H536 0.980 . S
C509 H537 0.983 . S
C510 H486 0.948 . S
C510 C511 1.391 . S
C510 C515 1.391 . S
C511 C510 1.391 . S
C511 C512 1.391 . S
C512 H489 0.947 . S
C512 C511 1.391 . S
C512 C513 1.392 . S
C513 H490 0.948 . S
C513 C512 1.392 . S
C513 C514 1.419 . S
C514 C513 1.419 . S
C514 C515 1.391 . S
C514 C518 1.397 . S
C515 C510 1.391 . S
C515 C514 1.391 . S
C515 C516 1.399 . S
C516 C515 1.399 . S
C516 C517 1.396 . S
C516 C519 1.453 . S
C516 C520 1.684 . S
C517 C507 1.723 . S
C517 C516 1.396 . S
C517 C518 1.394 . S
C518 C488 1.723 . S
C518 C514 1.397 . S
C518 C517 1.394 . S
C519 H491 0.982 . S
C519 H495 0.979 . S
C519 H496 0.977 . S
C519 C516 1.453 . S
C520 H492 0.979 . S
C520 H493 0.980 . S
C520 H494 0.983 . S
C520 C516 1.684 . S
H521 C539 0.948 . S
H522 C480 0.948 . S
H523 C498 0.979 . S
H524 C498 0.980 . S
H525 C498 0.983 . S
H526 C497 0.982 . S
H527 C497 0.979 . S
H528 C497 0.977 . S
H529 C499 0.948 . S
H530 C501 0.947 . S
H531 C502 0.948 . S
H532 C508 0.982 . S
H533 C508 0.979 . S
H534 C508 0.977 . S
H535 C509 0.979 . S
H536 C509 0.980 . S
H537 C509 0.983 . S
H538 C482 0.947 . S
C539 C482 1.392 . S
C539 C483 1.419 . S
C539 H521 0.948 . S
C540 C541 1.391 . S
C540 C544 1.391 . S
C540 H582 0.948 . S
C541 C540 1.391 . S
C541 C542 1.391 . S
C542 C541 1.391 . S
C542 H598 0.947 . S
C542 C599 1.392 . S
C543 C544 1.391 . S
C543 C547 1.397 . S
C543 C599 1.419 . S
C544 C540 1.391 . S
C544 C543 1.391 . S
C544 C545 1.399 . S
C545 C544 1.399 . S
C545 C548 1.396 . S
C545 C557 1.453 . S
C545 C558 1.684 . S
H546 C570 0.948 . S
C547 C543 1.397 . S
C547 C548 1.394 . S
C547 C566 1.723 . S
C548 C545 1.396 . S
C548 C547 1.394 . S
C548 C578 1.723 . S
H549 C572 0.947 . S
H550 C573 0.948 . S
H551 C579 0.982 . S
H552 C580 0.979 . S
H553 C580 0.980 . S
H554 C580 0.983 . S
H555 C579 0.979 . S
H556 C579 0.977 . S
C557 C545 1.453 . S
C557 H586 0.982 . S
C557 H587 0.979 . S
C557 H588 0.977 . S
C558 C545 1.684 . S
C558 H583 0.979 . S
C558 H584 0.980 . S
C558 H585 0.983 . S
C559 C560 1.391 . S
C559 C564 1.391 . S
C559 H589 0.948 . S
C560 C559 1.391 . S
C560 C561 1.391 . S
C561 C560 1.391 . S
C561 C562 1.392 . S
C561 H590 0.947 . S
C562 C561 1.392 . S
C562 C563 1.419 . S
C562 H591 0.948 . S
C563 C562 1.419 . S
C563 C564 1.391 . S
C563 C567 1.397 . S
C564 C559 1.391 . S
C564 C563 1.391 . S
C564 C565 1.399 . S
C565 C564 1.399 . S
C565 C566 1.396 . S
C565 C568 1.453 . S
C565 C569 1.684 . S
C566 C547 1.723 . S
C566 C565 1.396 . S
C566 C567 1.394 . S
C567 C563 1.397 . S
C567 C566 1.394 . S
C567 C577 1.723 . S
C568 C565 1.453 . S
C568 H592 0.982 . S
C568 H593 0.979 . S
C568 H594 0.977 . S
C569 C565 1.684 . S
C569 H595 0.979 . S
C569 H596 0.980 . S
C569 H597 0.983 . S
C570 H546 0.948 . S
C570 C571 1.391 . S
C570 C575 1.391 . S
C571 C570 1.391 . S
C571 C572 1.391 . S
C572 H549 0.947 . S
C572 C571 1.391 . S
C572 C573 1.392 . S
C573 H550 0.948 . S
C573 C572 1.392 . S
C573 C574 1.419 . S
C574 C573 1.419 . S
C574 C575 1.391 . S
C574 C578 1.397 . S
C575 C570 1.391 . S
C575 C574 1.391 . S
C575 C576 1.399 . S
C576 C575 1.399 . S
C576 C577 1.396 . S
C576 C579 1.453 . S
C576 C580 1.684 . S
C577 C567 1.723 . S
C577 C576 1.396 . S
C577 C578 1.394 . S
C578 C548 1.723 . S
C578 C574 1.397 . S
C578 C577 1.394 . S
C579 H551 0.982 . S
C579 H555 0.979 . S
C579 H556 0.977 . S
C579 C576 1.453 . S
C580 H552 0.979 . S
C580 H553 0.980 . S
C580 H554 0.983 . S
C580 C576 1.684 . S
H581 C599 0.948 . S
H582 C540 0.948 . S
H583 C558 0.979 . S
H584 C558 0.980 . S
H585 C558 0.983 . S
H586 C557 0.982 . S
H587 C557 0.979 . S
H588 C557 0.977 . S
H589 C559 0.948 . S
H590 C561 0.947 . S
H591 C562 0.948 . S
H592 C568 0.982 . S
H593 C568 0.979 . S
H594 C568 0.977 . S
H595 C569 0.979 . S
H596 C569 0.980 . S
H597 C569 0.983 . S
H598 C542 0.947 . S
C599 C542 1.392 . S
C599 C543 1.419 . S
C599 H581 0.948 . S
C600 C601 1.391 . S
C600 C604 1.391 . S
C600 H642 0.948 . S
C601 C600 1.391 . S
C601 C602 1.391 . S
C602 C601 1.391 . S
C602 H658 0.947 . S
C602 C659 1.392 . S
C603 C604 1.391 . S
C603 C607 1.397 . S
C603 C659 1.419 . S
C604 C600 1.391 . S
C604 C603 1.391 . S
C604 C605 1.399 . S
C605 C604 1.399 . S
C605 C608 1.396 . S
C605 C617 1.453 . S
C605 C618 1.684 . S
H606 C630 0.948 . S
C607 C603 1.397 . S
C607 C608 1.394 . S
C607 C626 1.723 . S
C608 C605 1.396 . S
C608 C607 1.394 . S
C608 C638 1.723 . S
H609 C632 0.947 . S
H610 C633 0.948 . S
H611 C639 0.982 . S
H612 C640 0.979 . S
H613 C640 0.980 . S
H614 C640 0.983 . S
H615 C639 0.979 . S
H616 C639 0.977 . S
C617 C605 1.453 . S
C617 H646 0.982 . S
C617 H647 0.979 . S
C617 H648 0.977 . S
C618 C605 1.684 . S
C618 H643 0.979 . S
C618 H644 0.980 . S
C618 H645 0.983 . S
C619 C620 1.391 . S
C619 C624 1.391 . S
C619 H649 0.948 . S
C620 C619 1.391 . S
C620 C621 1.391 . S
C621 C620 1.391 . S
C621 C622 1.392 . S
C621 H650 0.947 . S
C622 C621 1.392 . S
C622 C623 1.419 . S
C622 H651 0.948 . S
C623 C622 1.419 . S
C623 C624 1.391 . S
C623 C627 1.397 . S
C624 C619 1.391 . S
C624 C623 1.391 . S
C624 C625 1.399 . S
C625 C624 1.399 . S
C625 C626 1.396 . S
C625 C628 1.453 . S
C625 C629 1.684 . S
C626 C607 1.723 . S
C626 C625 1.396 . S
C626 C627 1.394 . S
C627 C623 1.397 . S
C627 C626 1.394 . S
C627 C637 1.723 . S
C628 C625 1.453 . S
C628 H652 0.982 . S
C628 H653 0.979 . S
C628 H654 0.977 . S
C629 C625 1.684 . S
C629 H655 0.979 . S
C629 H656 0.980 . S
C629 H657 0.983 . S
C630 H606 0.948 . S
C630 C631 1.391 . S
C630 C635 1.391 . S
C631 C630 1.391 . S
C631 C632 1.391 . S
C632 H609 0.947 . S
C632 C631 1.391 . S
C632 C633 1.392 . S
C633 H610 0.948 . S
C633 C632 1.392 . S
C633 C634 1.419 . S
C634 C633 1.419 . S
C634 C635 1.391 . S
C634 C638 1.397 . S
C635 C630 1.391 . S
C635 C634 1.391 . S
C635 C636 1.399 . S
C636 C635 1.399 . S
C636 C637 1.396 . S
C636 C639 1.453 . S
C636 C640 1.684 . S
C637 C627 1.723 . S
C637 C636 1.396 . S
C637 C638 1.394 . S
C638 C608 1.723 . S
C638 C634 1.397 . S
C638 C637 1.394 . S
C639 H611 0.982 . S
C639 H615 0.979 . S
C639 H616 0.977 . S
C639 C636 1.453 . S
C640 H612 0.979 . S
C640 H613 0.980 . S
C640 H614 0.983 . S
C640 C636 1.684 . S
H641 C659 0.948 . S
H642 C600 0.948 . S
H643 C618 0.979 . S
H644 C618 0.980 . S
H645 C618 0.983 . S
H646 C617 0.982 . S
H647 C617 0.979 . S
H648 C617 0.977 . S
H649 C619 0.948 . S
H650 C621 0.947 . S
H651 C622 0.948 . S
H652 C628 0.982 . S
H653 C628 0.979 . S
H654 C628 0.977 . S
H655 C629 0.979 . S
H656 C629 0.980 . S
H657 C629 0.983 . S
H658 C602 0.947 . S
C659 C602 1.392 . S
C659 C603 1.419 . S
C659 H641 0.948 . S
C660 C661 1.391 . S
C660 C664 1.391 . S
C660 H702 0.948 . S
C661 C660 1.391 . S
C661 C662 1.391 . S
C662 C661 1.391 . S
C662 H718 0.947 . S
C662 C719 1.392 . S
C663 C664 1.391 . S
C663 C667 1.397 . S
C663 C719 1.419 . S
C664 C660 1.391 . S
C664 C663 1.391 . S
C664 C665 1.399 . S
C665 C664 1.399 . S
C665 C668 1.396 . S
C665 C677 1.453 . S
C665 C678 1.684 . S
H666 C690 0.948 . S
C667 C663 1.397 . S
C667 C668 1.394 . S
C667 C686 1.723 . S
C668 C665 1.396 . S
C668 C667 1.394 . S
C668 C698 1.723 . S
H669 C692 0.947 . S
H670 C693 0.948 . S
H671 C699 0.982 . S
H672 C700 0.979 . S
H673 C700 0.980 . S
H674 C700 0.983 . S
H675 C699 0.979 . S
H676 C699 0.977 . S
C677 C665 1.453 . S
C677 H706 0.982 . S
C677 H707 0.979 . S
C677 H708 0.977 . S
C678 C665 1.684 . S
C678 H703 0.979 . S
C678 H704 0.980 . S
C678 H705 0.983 . S
C679 C680 1.391 . S
C679 C684 1.391 . S
C679 H709 0.948 . S
C680 C679 1.391 . S
C680 C681 1.391 . S
C681 C680 1.391 . S
C681 C682 1.392 . S
C681 H710 0.947 . S
C682 C681 1.392 . S
C682 C683 1.419 . S
C682 H711 0.948 . S
C683 C682 1.419 . S
C683 C684 1.391 . S
C683 C687 1.397 . S
C684 C679 1.391 . S
C684 C683 1.391 . S
C684 C685 1.399 . S
C685 C684 1.399 . S
C685 C686 1.396 . S
C685 C688 1.453 . S
C685 C689 1.684 . S
C686 C667 1.723 . S
C686 C685 1.396 . S
C686 C687 1.394 . S
C687 C683 1.397 . S
C687 C686 1.394 . S
C687 C697 1.723 . S
C688 C685 1.453 . S
C688 H712 0.982 . S
C688 H713 0.979 . S
C688 H714 0.977 . S
C689 C685 1.684 . S
C689 H715 0.979 . S
C689 H716 0.980 . S
C689 H717 0.983 . S
C690 H666 0.948 . S
C690 C691 1.391 . S
C690 C695 1.391 . S
C691 C690 1.391 . S
C691 C692 1.391 . S
C692 H669 0.947 . S
C692 C691 1.391 . S
C692 C693 1.392 . S
C693 H670 0.948 . S
C693 C692 1.392 . S
C693 C694 1.419 . S
C694 C693 1.419 . S
C694 C695 1.391 . S
C694 C698 1.397 . S
C695 C690 1.391 . S
C695 C694 1.391 . S
C695 C696 1.399 . S
C696 C695 1.399 . S
C696 C697 1.396 . S
C696 C699 1.453 . S
C696 C700 1.684 . S
C697 C687 1.723 . S
C697 C696 1.396 . S
C697 C698 1.394 . S
C698 C668 1.723 . S
C698 C694 1.397 . S
C698 C697 1.394 . S
C699 H671 0.982 . S
C699 H675 0.979 . S
C699 H676 0.977 . S
C699 C696 1.453 . S
C700 H672 0.979 . S
C700 H673 0.980 . S
C700 H674 0.983 . S
C700 C696 1.684 . S
H701 C719 0.948 . S
H702 C660 0.948 . S
H703 C678 0.979 . S
H704 C678 0.980 . S
H705 C678 0.983 . S
H706 C677 0.982 . S
H707 C677 0.979 . S
H708 C677 0.977 . S
H709 C679 0.948 . S
H710 C681 0.947 . S
H711 C682 0.948 . S
H712 C688 0.982 . S
H713 C688 0.979 . S
H714 C688 0.977 . S
H715 C689 0.979 . S
H716 C689 0.980 . S
H717 C689 0.983 . S
H718 C662 0.947 . S
C719 C662 1.392 . S
C719 C663 1.419 . S
C719 H701 0.948 . S
C720 C721 1.391 . S
C720 C724 1.391 . S
C720 H762 0.948 . S
C721 C720 1.391 . S
C721 C722 1.391 . S
C722 C721 1.391 . S
C722 H778 0.947 . S
C722 C779 1.392 . S
C723 C724 1.391 . S
C723 C727 1.397 . S
C723 C779 1.419 . S
C724 C720 1.391 . S
C724 C723 1.391 . S
C724 C725 1.399 . S
C725 C724 1.399 . S
C725 C728 1.396 . S
C725 C737 1.453 . S
C725 C738 1.684 . S
H726 C750 0.948 . S
C727 C723 1.397 . S
C727 C728 1.394 . S
C727 C746 1.723 . S
C728 C725 1.396 . S
C728 C727 1.394 . S
C728 C758 1.723 . S
H729 C752 0.947 . S
H730 C753 0.948 . S
H731 C759 0.982 . S
H732 C760 0.979 . S
H733 C760 0.980 . S
H734 C760 0.983 . S
H735 C759 0.979 . S
H736 C759 0.977 . S
C737 C725 1.453 . S
C737 H766 0.982 . S
C737 H767 0.979 . S
C737 H768 0.977 . S
C738 C725 1.684 . S
C738 H763 0.979 . S
C738 H764 0.980 . S
C738 H765 0.983 . S
C739 C740 1.391 . S
C739 C744 1.391 . S
C739 H769 0.948 . S
C740 C739 1.391 . S
C740 C741 1.391 . S
C741 C740 1.391 . S
C741 C742 1.392 . S
C741 H770 0.947 . S
C742 C741 1.392 . S
C742 C743 1.419 . S
C742 H771 0.948 . S
C743 C742 1.419 . S
C743 C744 1.391 . S
C743 C747 1.397 . S
C744 C739 1.391 . S
C744 C743 1.391 . S
C744 C745 1.399 . S
C745 C744 1.399 . S
C745 C746 1.396 . S
C745 C748 1.453 . S
C745 C749 1.684 . S
C746 C727 1.723 . S
C746 C745 1.396 . S
C746 C747 1.394 . S
C747 C743 1.397 . S
C747 C746 1.394 . S
C747 C757 1.723 . S
C748 C745 1.453 . S
C748 H772 0.982 . S
C748 H773 0.979 . S
C748 H774 0.977 . S
C749 C745 1.684 . S
C749 H775 0.979 . S
C749 H776 0.980 . S
C749 H777 0.983 . S
C750 H726 0.948 . S
C750 C751 1.391 . S
C750 C755 1.391 . S
C751 C750 1.391 . S
C751 C752 1.391 . S
C752 H729 0.947 . S
C752 C751 1.391 . S
C752 C753 1.392 . S
C753 H730 0.948 . S
C753 C752 1.392 . S
C753 C754 1.419 . S
C754 C753 1.419 . S
C754 C755 1.391 . S
C754 C758 1.397 . S
C755 C750 1.391 . S
C755 C754 1.391 . S
C755 C756 1.399 . S
C756 C755 1.399 . S
C756 C757 1.396 . S
C756 C759 1.453 . S
C756 C760 1.684 . S
C757 C747 1.723 . S
C757 C756 1.396 . S
C757 C758 1.394 . S
C758 C728 1.723 . S
C758 C754 1.397 . S
C758 C757 1.394 . S
C759 H731 0.982 . S
C759 H735 0.979 . S
C759 H736 0.977 . S
C759 C756 1.453 . S
C760 H732 0.979 . S
C760 H733 0.980 . S
C760 H734 0.983 . S
C760 C756 1.684 . S
H761 C779 0.948 . S
H762 C720 0.948 . S
H763 C738 0.979 . S
H764 C738 0.980 . S
H765 C738 0.983 . S
H766 C737 0.982 . S
H767 C737 0.979 . S
H768 C737 0.977 . S
H769 C739 0.948 . S
H770 C741 0.947 . S
H771 C742 0.948 . S
H772 C748 0.982 . S
H773 C748 0.979 . S
H774 C748 0.977 . S
H775 C749 0.979 . S
H776 C749 0.980 . S
H777 C749 0.983 . S
H778 C722 0.947 . S
C779 C722 1.392 . S
C779 C723 1.419 . S
C779 H761 0.948 . S
C780 C781 1.391 . S
C780 C784 1.391 . S
C780 H822 0.948 . S
C781 C780 1.391 . S
C781 C782 1.391 . S
C782 C781 1.391 . S
C782 H838 0.947 . S
C782 C839 1.392 . S
C783 C784 1.391 . S
C783 C787 1.397 . S
C783 C839 1.419 . S
C784 C780 1.391 . S
C784 C783 1.391 . S
C784 C785 1.399 . S
C785 C784 1.399 . S
C785 C788 1.396 . S
C785 C797 1.453 . S
C785 C798 1.684 . S
H786 C810 0.948 . S
C787 C783 1.397 . S
C787 C788 1.394 . S
C787 C806 1.723 . S
C788 C785 1.396 . S
C788 C787 1.394 . S
C788 C818 1.723 . S
H789 C812 0.947 . S
H790 C813 0.948 . S
H791 C819 0.982 . S
H792 C820 0.979 . S
H793 C820 0.980 . S
H794 C820 0.983 . S
H795 C819 0.979 . S
H796 C819 0.977 . S
C797 C785 1.453 . S
C797 H826 0.982 . S
C797 H827 0.979 . S
C797 H828 0.977 . S
C798 C785 1.684 . S
C798 H823 0.979 . S
C798 H824 0.980 . S
C798 H825 0.983 . S
C799 C800 1.391 . S
C799 C804 1.391 . S
C799 H829 0.948 . S
C800 C799 1.391 . S
C800 C801 1.391 . S
C801 C800 1.391 . S
C801 C802 1.392 . S
C801 H830 0.947 . S
C802 C801 1.392 . S
C802 C803 1.419 . S
C802 H831 0.948 . S
C803 C802 1.419 . S
C803 C804 1.391 . S
C803 C807 1.397 . S
C804 C799 1.391 . S
C804 C803 1.391 . S
C804 C805 1.399 . S
C805 C804 1.399 . S
C805 C806 1.396 . S
C805 C808 1.453 . S
C805 C809 1.684 . S
C806 C787 1.723 . S
C806 C805 1.396 . S
C806 C807 1.394 . S
C807 C803 1.397 . S
C807 C806 1.394 . S
C807 C817 1.723 . S
C808 C805 1.453 . S
C808 H832 0.982 . S
C808 H833 0.979 . S
C808 H834 0.977 . S
C809 C805 1.684 . S
C809 H835 0.979 . S
C809 H836 0.980 . S
C809 H837 0.983 . S
C810 H786 0.948 . S
C810 C811 1.391 . S
C810 C815 1.391 . S
C811 C810 1.391 . S
C811 C812 1.391 . S
C812 H789 0.947 . S
C812 C811 1.391 . S
C812 C813 1.392 . S
C813 H790 0.948 . S
C813 C812 1.392 . S
C813 C814 1.419 . S
C814 C813 1.419 . S
C814 C815 1.391 . S
C814 C818 1.397 . S
C815 C810 1.391 . S
C815 C814 1.391 . S
C815 C816 1.399 . S
C816 C815 1.399 . S
C816 C817 1.396 . S
C816 C819 1.453 . S
C816 C820 1.684 . S
C817 C807 1.723 . S
C817 C816 1.396 . S
C817 C818 1.394 . S
C818 C788 1.723 . S
C818 C814 1.397 . S
C818 C817 1.394 . S
C819 H791 0.982 . S
C819 H795 0.979 . S
C819 H796 0.977 . S
C819 C816 1.453 . S
C820 H792 0.979 . S
C820 H793 0.980 . S
C820 H794 0.983 . S
C820 C816 1.684 . S
H821 C839 0.948 . S
H822 C780 0.948 . S
H823 C798 0.979 . S
H824 C798 0.980 . S
H825 C798 0.983 . S
H826 C797 0.982 . S
H827 C797 0.979 . S
H828 C797 0.977 . S
H829 C799 0.948 . S
H830 C801 0.947 . S
H831 C802 0.948 . S
H832 C808 0.982 . S
H833 C808 0.979 . S
H834 C808 0.977 . S
H835 C809 0.979 . S
H836 C809 0.980 . S
H837 C809 0.983 . S
H838 C782 0.947 . S
C839 C782 1.392 . S
C839 C783 1.419 . S
C839 H821 0.948 . S
C840 C841 1.391 . S
C840 C844 1.391 . S
C840 H882 0.948 . S
C841 C840 1.391 . S
C841 C842 1.391 . S
C842 C841 1.391 . S
C842 H898 0.947 . S
C842 C899 1.392 . S
C843 C844 1.391 . S
C843 C847 1.397 . S
C843 C899 1.419 . S
C844 C840 1.391 . S
C844 C843 1.391 . S
C844 C845 1.399 . S
C845 C844 1.399 . S
C845 C848 1.396 . S
C845 C857 1.453 . S
C845 C858 1.684 . S
H846 C870 0.948 . S
C847 C843 1.397 . S
C847 C848 1.394 . S
C847 C866 1.723 . S
C848 C845 1.396 . S
C848 C847 1.394 . S
C848 C878 1.723 . S
H849 C872 0.947 . S
H850 C873 0.948 . S
H851 C879 0.982 . S
H852 C880 0.979 . S
H853 C880 0.980 . S
H854 C880 0.983 . S
H855 C879 0.979 . S
H856 C879 0.977 . S
C857 C845 1.453 . S
C857 H886 0.982 . S
C857 H887 0.979 . S
C857 H888 0.977 . S
C858 C845 1.684 . S
C858 H883 0.979 . S
C858 H884 0.980 . S
C858 H885 0.983 . S
C859 C860 1.391 . S
C859 C864 1.391 . S
C859 H889 0.948 . S
C860 C859 1.391 . S
C860 C861 1.391 . S
C861 C860 1.391 . S
C861 C862 1.392 . S
C861 H890 0.947 . S
C862 C861 1.392 . S
C862 C863 1.419 . S
C862 H891 0.948 . S
C863 C862 1.419 . S
C863 C864 1.391 . S
C863 C867 1.397 . S
C864 C859 1.391 . S
C864 C863 1.391 . S
C864 C865 1.399 . S
C865 C864 1.399 . S
C865 C866 1.396 . S
C865 C868 1.453 . S
C865 C869 1.684 . S
C866 C847 1.723 . S
C866 C865 1.396 . S
C866 C867 1.394 . S
C867 C863 1.397 . S
C867 C866 1.394 . S
C867 C877 1.723 . S
C868 C865 1.453 . S
C868 H892 0.982 . S
C868 H893 0.979 . S
C868 H894 0.977 . S
C869 C865 1.684 . S
C869 H895 0.979 . S
C869 H896 0.980 . S
C869 H897 0.983 . S
C870 H846 0.948 . S
C870 C871 1.391 . S
C870 C875 1.391 . S
C871 C870 1.391 . S
C871 C872 1.391 . S
C872 H849 0.947 . S
C872 C871 1.391 . S
C872 C873 1.392 . S
C873 H850 0.948 . S
C873 C872 1.392 . S
C873 C874 1.419 . S
C874 C873 1.419 . S
C874 C875 1.391 . S
C874 C878 1.397 . S
C875 C870 1.391 . S
C875 C874 1.391 . S
C875 C876 1.399 . S
C876 C875 1.399 . S
C876 C877 1.396 . S
C876 C879 1.453 . S
C876 C880 1.684 . S
C877 C867 1.723 . S
C877 C876 1.396 . S
C877 C878 1.394 . S
C878 C848 1.723 . S
C878 C874 1.397 . S
C878 C877 1.394 . S
C879 H851 0.982 . S
C879 H855 0.979 . S
C879 H856 0.977 . S
C879 C876 1.453 . S
C880 H852 0.979 . S
C880 H853 0.980 . S
C880 H854 0.983 . S
C880 C876 1.684 . S
H881 C899 0.948 . S
H882 C840 0.948 . S
H883 C858 0.979 . S
H884 C858 0.980 . S
H885 C858 0.983 . S
H886 C857 0.982 . S
H887 C857 0.979 . S
H888 C857 0.977 . S
H889 C859 0.948 . S
H890 C861 0.947 . S
H891 C862 0.948 . S
H892 C868 0.982 . S
H893 C868 0.979 . S
H894 C868 0.977 . S
H895 C869 0.979 . S
H896 C869 0.980 . S
H897 C869 0.983 . S
H898 C842 0.947 . S
C899 C842 1.392 . S
C899 C843 1.419 . S
C899 H881 0.948 . S
C900 C901 1.391 . S
C900 C904 1.391 . S
C900 H942 0.948 . S
C901 C900 1.391 . S
C901 C902 1.391 . S
C902 C901 1.391 . S
C902 H958 0.947 . S
C902 C959 1.392 . S
C903 C904 1.391 . S
C903 C907 1.397 . S
C903 C959 1.419 . S
C904 C900 1.391 . S
C904 C903 1.391 . S
C904 C905 1.399 . S
C905 C904 1.399 . S
C905 C908 1.396 . S
C905 C917 1.453 . S
C905 C918 1.684 . S
H906 C930 0.948 . S
C907 C903 1.397 . S
C907 C908 1.394 . S
C907 C926 1.723 . S
C908 C905 1.396 . S
C908 C907 1.394 . S
C908 C938 1.723 . S
H909 C932 0.947 . S
H910 C933 0.948 . S
H911 C939 0.982 . S
H912 C940 0.979 . S
H913 C940 0.980 . S
H914 C940 0.983 . S
H915 C939 0.979 . S
H916 C939 0.977 . S
C917 C905 1.453 . S
C917 H946 0.982 . S
C917 H947 0.979 . S
C917 H948 0.977 . S
C918 C905 1.684 . S
C918 H943 0.979 . S
C918 H944 0.980 . S
C918 H945 0.983 . S
C919 C920 1.391 . S
C919 C924 1.391 . S
C919 H949 0.948 . S
C920 C919 1.391 . S
C920 C921 1.391 . S
C921 C920 1.391 . S
C921 C922 1.392 . S
C921 H950 0.947 . S
C922 C921 1.392 . S
C922 C923 1.419 . S
C922 H951 0.948 . S
C923 C922 1.419 . S
C923 C924 1.391 . S
C923 C927 1.397 . S
C924 C919 1.391 . S
C924 C923 1.391 . S
C924 C925 1.399 . S
C925 C924 1.399 . S
C925 C926 1.396 . S
C925 C928 1.453 . S
C925 C929 1.684 . S
C926 C907 1.723 . S
C926 C925 1.396 . S
C926 C927 1.394 . S
C927 C923 1.397 . S
C927 C926 1.394 . S
C927 C937 1.723 . S
C928 C925 1.453 . S
C928 H952 0.982 . S
C928 H953 0.979 . S
C928 H954 0.977 . S
C929 C925 1.684 . S
C929 H955 0.979 . S
C929 H956 0.980 . S
C929 H957 0.983 . S
C930 H906 0.948 . S
C930 C931 1.391 . S
C930 C935 1.391 . S
C931 C930 1.391 . S
C931 C932 1.391 . S
C932 H909 0.947 . S
C932 C931 1.391 . S
C932 C933 1.392 . S
C933 H910 0.948 . S
C933 C932 1.392 . S
C933 C934 1.419 . S
C934 C933 1.419 . S
C934 C935 1.391 . S
C934 C938 1.397 . S
C935 C930 1.391 . S
C935 C934 1.391 . S
C935 C936 1.399 . S
C936 C935 1.399 . S
C936 C937 1.396 . S
C936 C939 1.453 . S
C936 C940 1.684 . S
C937 C927 1.723 . S
C937 C936 1.396 . S
C937 C938 1.394 . S
C938 C908 1.723 . S
C938 C934 1.397 . S
C938 C937 1.394 . S
C939 H911 0.982 . S
C939 H915 0.979 . S
C939 H916 0.977 . S
C939 C936 1.453 . S
C940 H912 0.979 . S
C940 H913 0.980 . S
C940 H914 0.983 . S
C940 C936 1.684 . S
H941 C959 0.948 . S
H942 C900 0.948 . S
H943 C918 0.979 . S
H944 C918 0.980 . S
H945 C918 0.983 . S
H946 C917 0.982 . S
H947 C917 0.979 . S
H948 C917 0.977 . S
H949 C919 0.948 . S
H950 C921 0.947 . S
H951 C922 0.948 . S
H952 C928 0.982 . S
H953 C928 0.979 . S
H954 C928 0.977 . S
H955 C929 0.979 . S
H956 C929 0.980 . S
H957 C929 0.983 . S
H958 C902 0.947 . S
C959 C902 1.392 . S
C959 C903 1.419 . S
C959 H941 0.948 . S
C960 C961 1.391 . S
C960 C964 1.391 . S
C960 H1002 0.948 . S
C961 C960 1.391 . S
C961 C962 1.391 . S
C962 C961 1.391 . S
C962 H1018 0.947 . S
C962 C1019 1.392 . S
C963 C964 1.391 . S
C963 C967 1.397 . S
C963 C1019 1.419 . S
C964 C960 1.391 . S
C964 C963 1.391 . S
C964 C965 1.399 . S
C965 C964 1.399 . S
C965 C968 1.396 . S
C965 C977 1.453 . S
C965 C978 1.684 . S
H966 C990 0.948 . S
C967 C963 1.397 . S
C967 C968 1.394 . S
C967 C986 1.723 . S
C968 C965 1.396 . S
C968 C967 1.394 . S
C968 C998 1.723 . S
H969 C992 0.947 . S
H970 C993 0.948 . S
H971 C999 0.982 . S
H972 C1000 0.979 . S
H973 C1000 0.980 . S
H974 C1000 0.983 . S
H975 C999 0.979 . S
H976 C999 0.977 . S
C977 C965 1.453 . S
C977 H1006 0.982 . S
C977 H1007 0.979 . S
C977 H1008 0.977 . S
C978 C965 1.684 . S
C978 H1003 0.979 . S
C978 H1004 0.980 . S
C978 H1005 0.983 . S
C979 C980 1.391 . S
C979 C984 1.391 . S
C979 H1009 0.948 . S
C980 C979 1.391 . S
C980 C981 1.391 . S
C981 C980 1.391 . S
C981 C982 1.392 . S
C981 H1010 0.947 . S
C982 C981 1.392 . S
C982 C983 1.419 . S
C982 H1011 0.948 . S
C983 C982 1.419 . S
C983 C984 1.391 . S
C983 C987 1.397 . S
C984 C979 1.391 . S
C984 C983 1.391 . S
C984 C985 1.399 . S
C985 C984 1.399 . S
C985 C986 1.396 . S
C985 C988 1.453 . S
C985 C989 1.684 . S
C986 C967 1.723 . S
C986 C985 1.396 . S
C986 C987 1.394 . S
C987 C983 1.397 . S
C987 C986 1.394 . S
C987 C997 1.723 . S
C988 C985 1.453 . S
C988 H1012 0.982 . S
C988 H1013 0.979 . S
C988 H1014 0.977 . S
C989 C985 1.684 . S
C989 H1015 0.979 . S
C989 H1016 0.980 . S
C989 H1017 0.983 . S
C990 H966 0.948 . S
C990 C991 1.391 . S
C990 C995 1.391 . S
C991 C990 1.391 . S
C991 C992 1.391 . S
C992 H969 0.947 . S
C992 C991 1.391 . S
C992 C993 1.392 . S
C993 H970 0.948 . S
C993 C992 1.392 . S
C993 C994 1.419 . S
C994 C993 1.419 . S
C994 C995 1.391 . S
C994 C998 1.397 . S
C995 C990 1.391 . S
C995 C994 1.391 . S
C995 C996 1.399 . S
C996 C995 1.399 . S
C996 C997 1.396 . S
C996 C999 1.453 . S
C996 C1000 1.684 . S
C997 C987 1.723 . S
C997 C996 1.396 . S
C997 C998 1.394 . S
C998 C968 1.723 . S
C998 C994 1.397 . S
C998 C997 1.394 . S
C999 H971 0.982 . S
C999 H975 0.979 . S
C999 H976 0.977 . S
C999 C996 1.453 . S
C1000 H972 0.979 . S
C1000 H973 0.980 . S
C1000 H974 0.983 . S
C1000 C996 1.684 . S
H1001 C1019 0.948 . S
H1002 C960 0.948 . S
H1003 C978 0.979 . S
H1004 C978 0.980 . S
H1005 C978 0.983 . S
H1006 C977 0.982 . S
H1007 C977 0.979 . S
H1008 C977 0.977 . S
H1009 C979 0.948 . S
H1010 C981 0.947 . S
H1011 C982 0.948 . S
H1012 C988 0.982 . S
H1013 C988 0.979 . S
H1014 C988 0.977 . S
H1015 C989 0.979 . S
H1016 C989 0.980 . S
H1017 C989 0.983 . S
H1018 C962 0.947 . S
C1019 C962 1.392 . S
C1019 C963 1.419 . S
C1019 H1001 0.948 . S
C1020 C1021 1.391 . S
C1020 C1024 1.391 . S
C1020 H1062 0.948 . S
C1021 C1020 1.391 . S
C1021 C1022 1.391 . S
C1022 C1021 1.391 . S
C1022 H1078 0.947 . S
C1022 C1079 1.392 . S
C1023 C1024 1.391 . S
C1023 C1027 1.397 . S
C1023 C1079 1.419 . S
C1024 C1020 1.391 . S
C1024 C1023 1.391 . S
C1024 C1025 1.399 . S
C1025 C1024 1.399 . S
C1025 C1028 1.396 . S
C1025 C1037 1.453 . S
C1025 C1038 1.684 . S
H1026 C1050 0.948 . S
C1027 C1023 1.397 . S
C1027 C1028 1.394 . S
C1027 C1046 1.723 . S
C1028 C1025 1.396 . S
C1028 C1027 1.394 . S
C1028 C1058 1.723 . S
H1029 C1052 0.947 . S
H1030 C1053 0.948 . S
H1031 C1059 0.982 . S
H1032 C1060 0.979 . S
H1033 C1060 0.980 . S
H1034 C1060 0.983 . S
H1035 C1059 0.979 . S
H1036 C1059 0.977 . S
C1037 C1025 1.453 . S
C1037 H1066 0.982 . S
C1037 H1067 0.979 . S
C1037 H1068 0.977 . S
C1038 C1025 1.684 . S
C1038 H1063 0.979 . S
C1038 H1064 0.980 . S
C1038 H1065 0.983 . S
C1039 C1040 1.391 . S
C1039 C1044 1.391 . S
C1039 H1069 0.948 . S
C1040 C1039 1.391 . S
C1040 C1041 1.391 . S
C1041 C1040 1.391 . S
C1041 C1042 1.392 . S
C1041 H1070 0.947 . S
C1042 C1041 1.392 . S
C1042 C1043 1.419 . S
C1042 H1071 0.948 . S
C1043 C1042 1.419 . S
C1043 C1044 1.391 . S
C1043 C1047 1.397 . S
C1044 C1039 1.391 . S
C1044 C1043 1.391 . S
C1044 C1045 1.399 . S
C1045 C1044 1.399 . S
C1045 C1046 1.396 . S
C1045 C1048 1.453 . S
C1045 C1049 1.684 . S
C1046 C1027 1.723 . S
C1046 C1045 1.396 . S
C1046 C1047 1.394 . S
C1047 C1043 1.397 . S
C1047 C1046 1.394 . S
C1047 C1057 1.723 . S
C1048 C1045 1.453 . S
C1048 H1072 0.982 . S
C1048 H1073 0.979 . S
C1048 H1074 0.977 . S
C1049 C1045 1.684 . S
C1049 H1075 0.979 . S
C1049 H1076 0.980 . S
C1049 H1077 0.983 . S
C1050 H1026 0.948 . S
C1050 C1051 1.391 . S
C1050 C1055 1.391 . S
C1051 C1050 1.391 . S
C1051 C1052 1.391 . S
C1052 H1029 0.947 . S
C1052 C1051 1.391 . S
C1052 C1053 1.392 . S
C1053 H1030 0.948 . S
C1053 C1052 1.392 . S
C1053 C1054 1.419 . S
C1054 C1053 1.419 . S
C1054 C1055 1.391 . S
C1054 C1058 1.397 . S
C1055 C1050 1.391 . S
C1055 C1054 1.391 . S
C1055 C1056 1.399 . S
C1056 C1055 1.399 . S
C1056 C1057 1.396 . S
C1056 C1059 1.453 . S
C1056 C1060 1.684 . S
C1057 C1047 1.723 . S
C1057 C1056 1.396 . S
C1057 C1058 1.394 . S
C1058 C1028 1.723 . S
C1058 C1054 1.397 . S
C1058 C1057 1.394 . S
C1059 H1031 0.982 . S
C1059 H1035 0.979 . S
C1059 H1036 0.977 . S
C1059 C1056 1.453 . S
C1060 H1032 0.979 . S
C1060 H1033 0.980 . S
C1060 H1034 0.983 . S
C1060 C1056 1.684 . S
H1061 C1079 0.948 . S
H1062 C1020 0.948 . S
H1063 C1038 0.979 . S
H1064 C1038 0.980 . S
H1065 C1038 0.983 . S
H1066 C1037 0.982 . S
H1067 C1037 0.979 . S
H1068 C1037 0.977 . S
H1069 C1039 0.948 . S
H1070 C1041 0.947 . S
H1071 C1042 0.948 . S
H1072 C1048 0.982 . S
H1073 C1048 0.979 . S
H1074 C1048 0.977 . S
H1075 C1049 0.979 . S
H1076 C1049 0.980 . S
H1077 C1049 0.983 . S
H1078 C1022 0.947 . S
C1079 C1022 1.392 . S
C1079 C1023 1.419 . S
C1079 H1061 0.948 . S
Tb1080 O1083 2.453 . S
Tb1080 O1084 2.596 1_545 S
Tb1080 O1085 2.374 1_545 S
Tb1080 O1093 2.343 1_554 S
Tb1080 O1095 2.353 . S
Tb1080 O1097 2.427 1_554 S
Tb1080 O1098 2.513 1_554 S
C1081 O1085 1.251 . S
C1081 O1087 1.235 1_554 S
Tb1082 O1084 2.343 1_556 S
Tb1082 O1087 2.365 . S
Tb1082 O1090 2.427 1_556 S
Tb1082 O1091 2.513 1_556 S
Tb1082 O1092 2.453 . S
Tb1082 O1093 2.596 1_565 S
Tb1082 O1094 2.374 1_565 S
O1083 Tb1080 2.453 . S
O1083 C1099 1.245 . S
O1084 Tb1080 2.596 1_565 S
O1084 Tb1082 2.343 1_554 S
O1084 C1099 1.259 1_565 S
O1085 Tb1080 2.374 1_565 S
O1085 C1081 1.251 . S
C1086 O1090 1.275 . S
C1086 O1091 1.246 . S
O1087 C1081 1.235 1_556 S
O1087 Tb1082 2.365 . S
C1088 O1092 1.245 . S
C1088 O1093 1.259 1_565 S
C1089 O1094 1.250 . S
C1089 O1095 1.263 1_556 S
O1090 Tb1082 2.427 1_554 S
O1090 C1086 1.275 . S
O1091 Tb1082 2.513 1_554 S
O1091 C1086 1.246 . S
O1092 Tb1082 2.453 . S
O1092 C1088 1.245 . S
O1093 Tb1080 2.343 1_556 S
O1093 Tb1082 2.596 1_545 S
O1093 C1088 1.259 1_545 S
O1094 Tb1082 2.374 1_545 S
O1094 C1089 1.250 . S
O1095 Tb1080 2.353 . S
O1095 C1089 1.263 1_554 S
C1096 O1097 1.275 . S
C1096 O1098 1.246 . S
O1097 Tb1080 2.427 1_556 S
O1097 C1096 1.275 . S
O1098 Tb1080 2.513 1_556 S
O1098 C1096 1.246 . S
C1099 O1083 1.245 . S
C1099 O1084 1.259 1_545 S
Tb1100 O1103 2.453 . S
Tb1100 O1104 2.596 1_655 S
Tb1100 O1105 2.374 1_655 S
Tb1100 O1113 2.343 1_554 S
Tb1100 O1115 2.350 1_554 S
Tb1100 O1117 2.427 1_554 S
Tb1100 O1118 2.513 1_554 S
C1101 O1105 1.251 . S
C1101 O1107 1.263 . S
Tb1102 O1104 2.343 1_556 S
Tb1102 O1107 2.353 1_556 S
Tb1102 O1110 2.427 1_556 S
Tb1102 O1111 2.513 1_556 S
Tb1102 O1112 2.453 . S
Tb1102 O1113 2.596 1_455 S
Tb1102 O1114 2.374 1_455 S
O1103 Tb1100 2.453 . S
O1103 C1119 1.208 1_655 S
O1104 Tb1100 2.596 1_455 S
O1104 Tb1102 2.343 1_554 S
O1104 C1119 1.274 . S
O1105 Tb1100 2.374 1_455 S
O1105 C1101 1.251 . S
C1106 O1110 1.275 . S
C1106 O1111 1.246 . S
O1107 C1101 1.263 . S
O1107 Tb1102 2.353 1_554 S
C1108 O1112 1.233 1_655 S
C1108 O1113 1.264 . S
C1109 O1114 1.250 . S
C1109 O1115 1.273 . S
O1110 Tb1102 2.427 1_554 S
O1110 C1106 1.275 . S
O1111 Tb1102 2.513 1_554 S
O1111 C1106 1.246 . S
O1112 Tb1102 2.453 . S
O1112 C1108 1.233 1_455 S
O1113 Tb1100 2.343 1_556 S
O1113 Tb1102 2.596 1_655 S
O1113 C1108 1.264 . S
O1114 Tb1102 2.374 1_655 S
O1114 C1109 1.250 . S
O1115 Tb1100 2.350 1_556 S
O1115 C1109 1.273 . S
C1116 O1117 1.275 . S
C1116 O1118 1.246 . S
O1117 Tb1100 2.427 1_556 S
O1117 C1116 1.275 . S
O1118 Tb1100 2.513 1_556 S
O1118 C1116 1.246 . S
C1119 O1103 1.208 1_455 S
C1119 O1104 1.274 . S
Tb1120 O1123 2.453 . S
Tb1120 O1124 2.596 . S
Tb1120 O1125 2.374 . S
Tb1120 O1133 2.343 1_556 S
Tb1120 O1135 2.353 1_556 S
Tb1120 O1137 2.427 1_556 S
Tb1120 O1138 2.513 1_556 S
C1121 O1125 1.251 . S
C1121 O1127 1.263 1_556 S
Tb1122 O1124 2.343 1_554 S
Tb1122 O1127 2.353 . S
Tb1122 O1130 2.427 1_554 S
Tb1122 O1131 2.513 1_554 S
Tb1122 O1132 2.453 . S
Tb1122 O1133 2.596 . S
Tb1122 O1134 2.374 . S
O1123 Tb1120 2.453 . S
O1123 C1139 1.245 . S
O1124 Tb1120 2.596 . S
O1124 Tb1122 2.343 1_556 S
O1124 C1139 1.259 . S
O1125 Tb1120 2.374 . S
O1125 C1121 1.251 . S
C1126 O1130 1.275 . S
C1126 O1131 1.246 . S
O1127 C1121 1.263 1_554 S
O1127 Tb1122 2.353 . S
C1128 O1132 1.245 . S
C1128 O1133 1.259 . S
C1129 O1134 1.250 . S
C1129 O1135 1.263 . S
O1130 Tb1122 2.427 1_556 S
O1130 C1126 1.275 . S
O1131 Tb1122 2.513 1_556 S
O1131 C1126 1.246 . S
O1132 Tb1122 2.453 . S
O1132 C1128 1.245 . S
O1133 Tb1120 2.343 1_554 S
O1133 Tb1122 2.596 . S
O1133 C1128 1.259 . S
O1134 Tb1122 2.374 . S
O1134 C1129 1.250 . S
O1135 Tb1120 2.353 1_554 S
O1135 C1129 1.263 . S
C1136 O1137 1.275 . S
C1136 O1138 1.246 . S
O1137 Tb1120 2.427 1_554 S
O1137 C1136 1.275 . S
O1138 Tb1120 2.513 1_554 S
O1138 C1136 1.246 . S
C1139 O1123 1.245 . S
C1139 O1124 1.259 . S
Tb1140 O1143 2.453 . S
Tb1140 O1144 2.596 . S
Tb1140 O1145 2.374 . S
Tb1140 O1153 2.343 . S
Tb1140 O1155 2.353 . S
Tb1140 O1157 2.427 . S
Tb1140 O1158 2.513 . S
C1141 O1145 1.251 . S
C1141 O1147 1.263 . S
Tb1142 O1144 2.343 . S
Tb1142 O1147 2.353 . S
Tb1142 O1150 2.427 . S
Tb1142 O1151 2.513 . S
Tb1142 O1152 2.453 . S
Tb1142 O1153 2.596 . S
Tb1142 O1154 2.374 . S
O1143 Tb1140 2.453 . S
O1143 C1159 1.245 . S
O1144 Tb1140 2.596 . S
O1144 Tb1142 2.343 . S
O1144 C1159 1.259 . S
O1145 Tb1140 2.374 . S
O1145 C1141 1.251 . S
C1146 O1150 1.275 . S
C1146 O1151 1.246 . S
O1147 C1141 1.263 . S
O1147 Tb1142 2.353 . S
C1148 O1152 1.245 . S
C1148 O1153 1.259 . S
C1149 O1154 1.250 . S
C1149 O1155 1.263 . S
O1150 Tb1142 2.427 . S
O1150 C1146 1.275 . S
O1151 Tb1142 2.513 . S
O1151 C1146 1.246 . S
O1152 Tb1142 2.453 . S
O1152 C1148 1.245 . S
O1153 Tb1140 2.343 . S
O1153 Tb1142 2.596 . S
O1153 C1148 1.259 . S
O1154 Tb1142 2.374 . S
O1154 C1149 1.250 . S
O1155 Tb1140 2.353 . S
O1155 C1149 1.263 . S
C1156 O1157 1.275 . S
C1156 O1158 1.246 . S
O1157 Tb1140 2.427 . S
O1157 C1156 1.275 . S
O1158 Tb1140 2.513 . S
O1158 C1156 1.246 . S
C1159 O1143 1.245 . S
C1159 O1144 1.259 . S
Tb1160 O1163 2.453 . S
Tb1160 O1164 2.596 . S
Tb1160 O1165 2.374 . S
Tb1160 O1173 2.343 . S
Tb1160 O1175 2.353 . S
Tb1160 O1177 2.427 . S
Tb1160 O1178 2.513 . S
C1161 O1165 1.251 . S
C1161 O1167 1.263 . S
Tb1162 O1164 2.343 . S
Tb1162 O1167 2.353 . S
Tb1162 O1170 2.427 . S
Tb1162 O1171 2.513 . S
Tb1162 O1172 2.453 . S
Tb1162 O1173 2.596 . S
Tb1162 O1174 2.374 . S
O1163 Tb1160 2.453 . S
O1163 C1179 1.245 . S
O1164 Tb1160 2.596 . S
O1164 Tb1162 2.343 . S
O1164 C1179 1.259 . S
O1165 Tb1160 2.374 . S
O1165 C1161 1.251 . S
C1166 O1170 1.275 . S
C1166 O1171 1.246 . S
O1167 C1161 1.263 . S
O1167 Tb1162 2.353 . S
C1168 O1172 1.245 . S
C1168 O1173 1.259 . S
C1169 O1174 1.250 . S
C1169 O1175 1.263 . S
O1170 Tb1162 2.427 . S
O1170 C1166 1.275 . S
O1171 Tb1162 2.513 . S
O1171 C1166 1.246 . S
O1172 Tb1162 2.453 . S
O1172 C1168 1.245 . S
O1173 Tb1160 2.343 . S
O1173 Tb1162 2.596 . S
O1173 C1168 1.259 . S
O1174 Tb1162 2.374 . S
O1174 C1169 1.250 . S
O1175 Tb1160 2.353 . S
O1175 C1169 1.263 . S
C1176 O1177 1.275 . S
C1176 O1178 1.246 . S
O1177 Tb1160 2.427 . S
O1177 C1176 1.275 . S
O1178 Tb1160 2.513 . S
O1178 C1176 1.246 . S
C1179 O1163 1.245 . S
C1179 O1164 1.259 . S
Tb1180 O1183 2.453 . S
Tb1180 O1184 2.596 . S
Tb1180 O1185 2.374 . S
Tb1180 O1193 2.343 . S
Tb1180 O1195 2.353 . S
Tb1180 O1197 2.427 . S
Tb1180 O1198 2.513 . S
C1181 O1185 1.251 . S
C1181 O1187 1.263 . S
Tb1182 O1184 2.343 . S
Tb1182 O1187 2.353 . S
Tb1182 O1190 2.427 . S
Tb1182 O1191 2.513 . S
Tb1182 O1192 2.453 . S
Tb1182 O1193 2.596 . S
Tb1182 O1194 2.374 . S
O1183 Tb1180 2.453 . S
O1183 C1199 1.245 . S
O1184 Tb1180 2.596 . S
O1184 Tb1182 2.343 . S
O1184 C1199 1.259 . S
O1185 Tb1180 2.374 . S
O1185 C1181 1.251 . S
C1186 O1190 1.275 . S
C1186 O1191 1.246 . S
O1187 C1181 1.263 . S
O1187 Tb1182 2.353 . S
C1188 O1192 1.245 . S
C1188 O1193 1.259 . S
C1189 O1194 1.250 . S
C1189 O1195 1.263 . S
O1190 Tb1182 2.427 . S
O1190 C1186 1.275 . S
O1191 Tb1182 2.513 . S
O1191 C1186 1.246 . S
O1192 Tb1182 2.453 . S
O1192 C1188 1.245 . S
O1193 Tb1180 2.343 . S
O1193 Tb1182 2.596 . S
O1193 C1188 1.259 . S
O1194 Tb1182 2.374 . S
O1194 C1189 1.250 . S
O1195 Tb1180 2.353 . S
O1195 C1189 1.263 . S
C1196 O1197 1.275 . S
C1196 O1198 1.246 . S
O1197 Tb1180 2.427 . S
O1197 C1196 1.275 . S
O1198 Tb1180 2.513 . S
O1198 C1196 1.246 . S
C1199 O1183 1.245 . S
C1199 O1184 1.259 . S
Tb1200 O1203 2.453 . S
Tb1200 O1204 2.596 . S
Tb1200 O1205 2.374 . S
Tb1200 O1213 2.343 . S
Tb1200 O1215 2.353 . S
Tb1200 O1217 2.427 . S
Tb1200 O1218 2.513 . S
C1201 O1205 1.251 . S
C1201 O1207 1.263 . S
Tb1202 O1204 2.343 . S
Tb1202 O1207 2.353 . S
Tb1202 O1210 2.427 . S
Tb1202 O1211 2.513 . S
Tb1202 O1212 2.453 . S
Tb1202 O1213 2.596 . S
Tb1202 O1214 2.374 . S
O1203 Tb1200 2.453 . S
O1203 C1219 1.245 . S
O1204 Tb1200 2.596 . S
O1204 Tb1202 2.343 . S
O1204 C1219 1.259 . S
O1205 Tb1200 2.374 . S
O1205 C1201 1.251 . S
C1206 O1210 1.275 . S
C1206 O1211 1.246 . S
O1207 C1201 1.263 . S
O1207 Tb1202 2.353 . S
C1208 O1212 1.245 . S
C1208 O1213 1.259 . S
C1209 O1214 1.250 . S
C1209 O1215 1.263 . S
O1210 Tb1202 2.427 . S
O1210 C1206 1.275 . S
O1211 Tb1202 2.513 . S
O1211 C1206 1.246 . S
O1212 Tb1202 2.453 . S
O1212 C1208 1.245 . S
O1213 Tb1200 2.343 . S
O1213 Tb1202 2.596 . S
O1213 C1208 1.259 . S
O1214 Tb1202 2.374 . S
O1214 C1209 1.250 . S
O1215 Tb1200 2.353 . S
O1215 C1209 1.263 . S
C1216 O1217 1.275 . S
C1216 O1218 1.246 . S
O1217 Tb1200 2.427 . S
O1217 C1216 1.275 . S
O1218 Tb1200 2.513 . S
O1218 C1216 1.246 . S
C1219 O1203 1.245 . S
C1219 O1204 1.259 . S
Tb1220 O1223 2.453 . S
Tb1220 O1224 2.596 . S
Tb1220 O1225 2.374 . S
Tb1220 O1233 2.343 . S
Tb1220 O1235 2.353 . S
Tb1220 O1237 2.427 . S
Tb1220 O1238 2.513 . S
C1221 O1225 1.251 . S
C1221 O1227 1.263 . S
Tb1222 O1224 2.343 . S
Tb1222 O1227 2.353 . S
Tb1222 O1230 2.427 . S
Tb1222 O1231 2.513 . S
Tb1222 O1232 2.453 . S
Tb1222 O1233 2.596 . S
Tb1222 O1234 2.374 . S
O1223 Tb1220 2.453 . S
O1223 C1239 1.245 . S
O1224 Tb1220 2.596 . S
O1224 Tb1222 2.343 . S
O1224 C1239 1.259 . S
O1225 Tb1220 2.374 . S
O1225 C1221 1.251 . S
C1226 O1230 1.275 . S
C1226 O1231 1.246 . S
O1227 C1221 1.263 . S
O1227 Tb1222 2.353 . S
C1228 O1232 1.245 . S
C1228 O1233 1.259 . S
C1229 O1234 1.250 . S
C1229 O1235 1.263 . S
O1230 Tb1222 2.427 . S
O1230 C1226 1.275 . S
O1231 Tb1222 2.513 . S
O1231 C1226 1.246 . S
O1232 Tb1222 2.453 . S
O1232 C1228 1.245 . S
O1233 Tb1220 2.343 . S
O1233 Tb1222 2.596 . S
O1233 C1228 1.259 . S
O1234 Tb1222 2.374 . S
O1234 C1229 1.250 . S
O1235 Tb1220 2.353 . S
O1235 C1229 1.263 . S
C1236 O1237 1.275 . S
C1236 O1238 1.246 . S
O1237 Tb1220 2.427 . S
O1237 C1236 1.275 . S
O1238 Tb1220 2.513 . S
O1238 C1236 1.246 . S
C1239 O1223 1.245 . S
C1239 O1224 1.259 . S
Tb1240 O1243 2.453 . S
Tb1240 O1244 2.596 . S
Tb1240 O1245 2.374 . S
Tb1240 O1253 2.343 . S
Tb1240 O1255 2.353 . S
Tb1240 O1257 2.427 . S
Tb1240 O1258 2.513 . S
C1241 O1245 1.251 . S
C1241 O1247 1.263 . S
Tb1242 O1244 2.343 . S
Tb1242 O1247 2.353 . S
Tb1242 O1250 2.427 . S
Tb1242 O1251 2.513 . S
Tb1242 O1252 2.453 . S
Tb1242 O1253 2.596 . S
Tb1242 O1254 2.374 . S
O1243 Tb1240 2.453 . S
O1243 C1259 1.245 . S
O1244 Tb1240 2.596 . S
O1244 Tb1242 2.343 . S
O1244 C1259 1.259 . S
O1245 Tb1240 2.374 . S
O1245 C1241 1.251 . S
C1246 O1250 1.275 . S
C1246 O1251 1.246 . S
O1247 C1241 1.263 . S
O1247 Tb1242 2.353 . S
C1248 O1252 1.245 . S
C1248 O1253 1.259 . S
C1249 O1254 1.250 . S
C1249 O1255 1.263 . S
O1250 Tb1242 2.427 . S
O1250 C1246 1.275 . S
O1251 Tb1242 2.513 . S
O1251 C1246 1.246 . S
O1252 Tb1242 2.453 . S
O1252 C1248 1.245 . S
O1253 Tb1240 2.343 . S
O1253 Tb1242 2.596 . S
O1253 C1248 1.259 . S
O1254 Tb1242 2.374 . S
O1254 C1249 1.250 . S
O1255 Tb1240 2.353 . S
O1255 C1249 1.263 . S
C1256 O1257 1.275 . S
C1256 O1258 1.246 . S
O1257 Tb1240 2.427 . S
O1257 C1256 1.275 . S
O1258 Tb1240 2.513 . S
O1258 C1256 1.246 . S
C1259 O1243 1.245 . S
C1259 O1244 1.259 . S
H1260 C1268 0.929 . S
H1261 C1270 0.930 . S
H1262 C1272 0.930 . S
H1263 C1275 0.929 . S
H1264 C1278 0.930 . S
H1265 C1280 0.960 . S
H1266 C1280 0.960 . S
H1267 C1280 0.960 . S
C1268 H1260 0.929 . S
C1268 C1269 1.377 . S
C1268 C1270 1.384 . S
C1269 C1268 1.377 . S
C1269 C1275 1.390 . S
C1270 H1261 0.930 . S
C1270 C1268 1.384 . S
C1270 C1271 1.372 . S
C1271 C1270 1.372 . S
C1271 C1272 1.400 . S
C1271 C1276 1.490 . S
C1272 H1262 0.930 . S
C1272 C1271 1.400 . S
C1272 C1275 1.386 . S
H1273 C1289 0.930 . S
H1274 C1290 0.931 . S
C1275 H1263 0.929 . S
C1275 C1269 1.390 . S
C1275 C1272 1.386 . S
C1276 C1271 1.490 . S
C1276 C1278 1.395 . S
C1276 C1279 1.403 . S
H1277 C1283 0.930 . S
C1278 H1264 0.930 . S
C1278 C1276 1.395 . S
C1278 C1281 1.403 . S
C1279 C1276 1.403 . S
C1279 C1280 1.524 . S
C1279 C1283 1.400 . S
C1280 H1265 0.960 . S
C1280 H1266 0.960 . S
C1280 H1267 0.960 . S
C1280 C1279 1.524 . S
C1281 C1278 1.403 . S
C1281 C1282 1.392 . S
C1281 C1285 1.495 . S
C1282 C1281 1.392 . S
C1282 C1283 1.385 . S
C1282 C1284 1.478 . S
C1283 H1277 0.930 . S
C1283 C1279 1.400 . S
C1283 C1282 1.385 . S
C1284 C1282 1.478 . S
C1284 C1286 1.381 . S
C1284 C1290 1.383 . S
C1285 C1281 1.495 . S
C1285 H1291 0.959 . S
C1285 H1292 0.961 . S
C1285 H1293 0.960 . S
C1286 C1284 1.381 . S
C1286 C1287 1.394 . S
C1286 H1294 0.930 . S
C1287 C1286 1.394 . S
C1287 C1288 1.383 . S
C1287 H1295 0.929 . S
C1288 C1287 1.383 . S
C1288 C1289 1.377 . S
C1289 H1273 0.930 . S
C1289 C1288 1.377 . S
C1289 C1290 1.379 . S
C1290 H1274 0.931 . S
C1290 C1284 1.383 . S
C1290 C1289 1.379 . S
H1291 C1285 0.959 . S
H1292 C1285 0.961 . S
H1293 C1285 0.960 . S
H1294 C1286 0.930 . S
H1295 C1287 0.929 . S
H1296 C1304 0.929 . S
H1297 C1306 0.930 . S
H1298 C1308 0.930 . S
H1299 C1311 0.929 . S
H1300 C1314 0.930 . S
H1301 C1316 0.960 . S
H1302 C1316 0.960 . S
H1303 C1316 0.960 . S
C1304 H1296 0.929 . S
C1304 C1305 1.377 . S
C1304 C1306 1.384 . S
C1305 C1304 1.377 . S
C1305 C1311 1.390 . S
C1306 H1297 0.930 . S
C1306 C1304 1.384 . S
C1306 C1307 1.372 . S
C1307 C1306 1.372 . S
C1307 C1308 1.400 . S
C1307 C1312 1.490 . S
C1308 H1298 0.930 . S
C1308 C1307 1.400 . S
C1308 C1311 1.386 . S
H1309 C1325 0.930 . S
H1310 C1326 0.931 . S
C1311 H1299 0.929 . S
C1311 C1305 1.390 . S
C1311 C1308 1.386 . S
C1312 C1307 1.490 . S
C1312 C1314 1.395 . S
C1312 C1315 1.403 . S
H1313 C1319 0.930 . S
C1314 H1300 0.930 . S
C1314 C1312 1.395 . S
C1314 C1317 1.403 . S
C1315 C1312 1.403 . S
C1315 C1316 1.524 . S
C1315 C1319 1.400 . S
C1316 H1301 0.960 . S
C1316 H1302 0.960 . S
C1316 H1303 0.960 . S
C1316 C1315 1.524 . S
C1317 C1314 1.403 . S
C1317 C1318 1.392 . S
C1317 C1321 1.495 . S
C1318 C1317 1.392 . S
C1318 C1319 1.385 . S
C1318 C1320 1.478 . S
C1319 H1313 0.930 . S
C1319 C1315 1.400 . S
C1319 C1318 1.385 . S
C1320 C1318 1.478 . S
C1320 C1322 1.381 . S
C1320 C1326 1.383 . S
C1321 C1317 1.495 . S
C1321 H1327 0.959 . S
C1321 H1328 0.961 . S
C1321 H1329 0.960 . S
C1322 C1320 1.381 . S
C1322 C1323 1.394 . S
C1322 H1330 0.930 . S
C1323 C1322 1.394 . S
C1323 C1324 1.383 . S
C1323 H1331 0.929 . S
C1324 C1323 1.383 . S
C1324 C1325 1.377 . S
C1325 H1309 0.930 . S
C1325 C1324 1.377 . S
C1325 C1326 1.379 . S
C1326 H1310 0.931 . S
C1326 C1320 1.383 . S
C1326 C1325 1.379 . S
H1327 C1321 0.959 . S
H1328 C1321 0.961 . S
H1329 C1321 0.960 . S
H1330 C1322 0.930 . S
H1331 C1323 0.929 . S
H1332 C1340 0.929 . S
H1333 C1342 0.930 . S
H1334 C1344 0.930 . S
H1335 C1347 0.929 . S
H1336 C1350 0.930 . S
H1337 C1352 0.960 . S
H1338 C1352 0.960 . S
H1339 C1352 0.960 . S
C1340 H1332 0.929 . S
C1340 C1341 1.377 . S
C1340 C1342 1.384 . S
C1341 C1340 1.377 . S
C1341 C1347 1.390 . S
C1342 H1333 0.930 . S
C1342 C1340 1.384 . S
C1342 C1343 1.372 . S
C1343 C1342 1.372 . S
C1343 C1344 1.400 . S
C1343 C1348 1.490 . S
C1344 H1334 0.930 . S
C1344 C1343 1.400 . S
C1344 C1347 1.386 . S
H1345 C1361 0.930 . S
H1346 C1362 0.931 . S
C1347 H1335 0.929 . S
C1347 C1341 1.390 . S
C1347 C1344 1.386 . S
C1348 C1343 1.490 . S
C1348 C1350 1.395 . S
C1348 C1351 1.403 . S
H1349 C1355 0.930 . S
C1350 H1336 0.930 . S
C1350 C1348 1.395 . S
C1350 C1353 1.403 . S
C1351 C1348 1.403 . S
C1351 C1352 1.524 . S
C1351 C1355 1.400 . S
C1352 H1337 0.960 . S
C1352 H1338 0.960 . S
C1352 H1339 0.960 . S
C1352 C1351 1.524 . S
C1353 C1350 1.403 . S
C1353 C1354 1.392 . S
C1353 C1357 1.495 . S
C1354 C1353 1.392 . S
C1354 C1355 1.385 . S
C1354 C1356 1.478 . S
C1355 H1349 0.930 . S
C1355 C1351 1.400 . S
C1355 C1354 1.385 . S
C1356 C1354 1.478 . S
C1356 C1358 1.381 . S
C1356 C1362 1.383 . S
C1357 C1353 1.495 . S
C1357 H1363 0.959 . S
C1357 H1364 0.961 . S
C1357 H1365 0.960 . S
C1358 C1356 1.381 . S
C1358 C1359 1.394 . S
C1358 H1366 0.930 . S
C1359 C1358 1.394 . S
C1359 C1360 1.383 . S
C1359 H1367 0.929 1_554 S
C1360 C1359 1.383 . S
C1360 C1361 1.377 . S
C1361 H1345 0.930 . S
C1361 C1360 1.377 . S
C1361 C1362 1.379 . S
C1362 H1346 0.931 . S
C1362 C1356 1.383 . S
C1362 C1361 1.379 . S
H1363 C1357 0.959 . S
H1364 C1357 0.961 . S
H1365 C1357 0.960 . S
H1366 C1358 0.930 . S
H1367 C1359 0.929 1_556 S
H1368 C1376 0.929 . S
H1369 C1378 0.930 . S
H1370 C1380 0.930 . S
H1371 C1383 0.929 . S
H1372 C1386 0.930 . S
H1373 C1388 0.960 . S
H1374 C1388 0.960 . S
H1375 C1388 0.960 . S
C1376 H1368 0.929 . S
C1376 C1377 1.377 . S
C1376 C1378 1.384 . S
C1377 C1376 1.377 . S
C1377 C1383 1.390 . S
C1378 H1369 0.930 . S
C1378 C1376 1.384 . S
C1378 C1379 1.372 . S
C1379 C1378 1.372 . S
C1379 C1380 1.400 . S
C1379 C1384 1.490 . S
C1380 H1370 0.930 . S
C1380 C1379 1.400 . S
C1380 C1383 1.386 . S
H1381 C1397 0.930 . S
H1382 C1398 0.931 . S
C1383 H1371 0.929 . S
C1383 C1377 1.390 . S
C1383 C1380 1.386 . S
C1384 C1379 1.490 . S
C1384 C1386 1.395 . S
C1384 C1387 1.403 . S
H1385 C1391 0.930 . S
C1386 H1372 0.930 . S
C1386 C1384 1.395 . S
C1386 C1389 1.403 . S
C1387 C1384 1.403 . S
C1387 C1388 1.524 . S
C1387 C1391 1.400 . S
C1388 H1373 0.960 . S
C1388 H1374 0.960 . S
C1388 H1375 0.960 . S
C1388 C1387 1.524 . S
C1389 C1386 1.403 . S
C1389 C1390 1.392 . S
C1389 C1393 1.495 . S
C1390 C1389 1.392 . S
C1390 C1391 1.385 . S
C1390 C1392 1.478 . S
C1391 H1385 0.930 . S
C1391 C1387 1.400 . S
C1391 C1390 1.385 . S
C1392 C1390 1.478 . S
C1392 C1394 1.381 . S
C1392 C1398 1.383 . S
C1393 C1389 1.495 . S
C1393 H1399 0.959 . S
C1393 H1400 0.961 . S
C1393 H1401 0.960 . S
C1394 C1392 1.381 . S
C1394 C1395 1.394 . S
C1394 H1402 0.930 . S
C1395 C1394 1.394 . S
C1395 C1396 1.383 . S
C1395 H1403 0.929 . S
C1396 C1395 1.383 . S
C1396 C1397 1.377 . S
C1397 H1381 0.930 . S
C1397 C1396 1.377 . S
C1397 C1398 1.379 . S
C1398 H1382 0.931 . S
C1398 C1392 1.383 . S
C1398 C1397 1.379 . S
H1399 C1393 0.959 . S
H1400 C1393 0.961 . S
H1401 C1393 0.960 . S
H1402 C1394 0.930 . S
H1403 C1395 0.929 . S
H1404 C1412 0.929 . S
H1405 C1414 0.930 . S
H1406 C1416 0.930 . S
H1407 C1419 0.929 . S
H1408 C1422 0.930 . S
H1409 C1424 0.960 . S
H1410 C1424 0.960 . S
H1411 C1424 0.960 . S
C1412 H1404 0.929 . S
C1412 C1413 1.377 . S
C1412 C1414 1.384 . S
C1413 C1412 1.377 . S
C1413 C1419 1.390 . S
C1414 H1405 0.930 . S
C1414 C1412 1.384 . S
C1414 C1415 1.372 . S
C1415 C1414 1.372 . S
C1415 C1416 1.400 . S
C1415 C1420 1.490 . S
C1416 H1406 0.930 . S
C1416 C1415 1.400 . S
C1416 C1419 1.386 . S
H1417 C1433 0.930 . S
H1418 C1434 0.931 . S
C1419 H1407 0.929 . S
C1419 C1413 1.390 . S
C1419 C1416 1.386 . S
C1420 C1415 1.490 . S
C1420 C1422 1.395 . S
C1420 C1423 1.403 . S
H1421 C1427 0.930 . S
C1422 H1408 0.930 . S
C1422 C1420 1.395 . S
C1422 C1425 1.403 . S
C1423 C1420 1.403 . S
C1423 C1424 1.524 . S
C1423 C1427 1.400 . S
C1424 H1409 0.960 . S
C1424 H1410 0.960 . S
C1424 H1411 0.960 . S
C1424 C1423 1.524 . S
C1425 C1422 1.403 . S
C1425 C1426 1.392 . S
C1425 C1429 1.495 . S
C1426 C1425 1.392 . S
C1426 C1427 1.385 . S
C1426 C1428 1.478 . S
C1427 H1421 0.930 . S
C1427 C1423 1.400 . S
C1427 C1426 1.385 . S
C1428 C1426 1.478 . S
C1428 C1430 1.381 . S
C1428 C1434 1.383 . S
C1429 C1425 1.495 . S
C1429 H1435 0.959 . S
C1429 H1436 0.961 . S
C1429 H1437 0.960 . S
C1430 C1428 1.381 . S
C1430 C1431 1.394 . S
C1430 H1438 0.930 . S
C1431 C1430 1.394 . S
C1431 C1432 1.383 . S
C1431 H1439 0.929 . S
C1432 C1431 1.383 . S
C1432 C1433 1.377 . S
C1433 H1417 0.930 . S
C1433 C1432 1.377 . S
C1433 C1434 1.379 . S
C1434 H1418 0.931 . S
C1434 C1428 1.383 . S
C1434 C1433 1.379 . S
H1435 C1429 0.959 . S
H1436 C1429 0.961 . S
H1437 C1429 0.960 . S
H1438 C1430 0.930 . S
H1439 C1431 0.929 . S
H1440 C1448 0.929 . S
H1441 C1450 0.930 . S
H1442 C1452 0.930 . S
H1443 C1455 0.929 . S
H1444 C1458 0.930 . S
H1445 C1460 0.960 . S
H1446 C1460 0.960 . S
H1447 C1460 0.960 . S
C1448 H1440 0.929 . S
C1448 C1449 1.377 . S
C1448 C1450 1.384 . S
C1449 C1448 1.377 . S
C1449 C1455 1.390 . S
C1450 H1441 0.930 . S
C1450 C1448 1.384 . S
C1450 C1451 1.372 . S
C1451 C1450 1.372 . S
C1451 C1452 1.400 . S
C1451 C1456 1.490 . S
C1452 H1442 0.930 . S
C1452 C1451 1.400 . S
C1452 C1455 1.386 . S
H1453 C1469 0.930 1_554 S
H1454 C1470 0.931 . S
C1455 H1443 0.929 . S
C1455 C1449 1.390 . S
C1455 C1452 1.386 . S
C1456 C1451 1.490 . S
C1456 C1458 1.395 . S
C1456 C1459 1.403 . S
H1457 C1463 0.930 . S
C1458 H1444 0.930 . S
C1458 C1456 1.395 . S
C1458 C1461 1.403 . S
C1459 C1456 1.403 . S
C1459 C1460 1.524 . S
C1459 C1463 1.400 . S
C1460 H1445 0.960 . S
C1460 H1446 0.960 . S
C1460 H1447 0.960 . S
C1460 C1459 1.524 . S
C1461 C1458 1.403 . S
C1461 C1462 1.392 . S
C1461 C1465 1.495 . S
C1462 C1461 1.392 . S
C1462 C1463 1.385 . S
C1462 C1464 1.478 . S
C1463 H1457 0.930 . S
C1463 C1459 1.400 . S
C1463 C1462 1.385 . S
C1464 C1462 1.478 . S
C1464 C1466 1.381 . S
C1464 C1470 1.383 . S
C1465 C1461 1.495 . S
C1465 H1471 0.959 . S
C1465 H1472 0.961 . S
C1465 H1473 0.960 . S
C1466 C1464 1.381 . S
C1466 C1467 1.394 . S
C1466 H1474 0.930 . S
C1467 C1466 1.394 . S
C1467 C1468 1.383 . S
C1467 H1475 0.929 . S
C1468 C1467 1.383 . S
C1468 C1469 1.377 . S
C1469 H1453 0.930 1_556 S
C1469 C1468 1.377 . S
C1469 C1470 1.379 . S
C1470 H1454 0.931 . S
C1470 C1464 1.383 . S
C1470 C1469 1.379 . S
H1471 C1465 0.959 . S
H1472 C1465 0.961 . S
H1473 C1465 0.960 . S
H1474 C1466 0.930 . S
H1475 C1467 0.929 . S
H1476 C1484 0.929 . S
H1477 C1486 0.930 . S
H1478 C1488 0.930 . S
H1479 C1491 0.929 . S
H1480 C1494 0.930 . S
H1481 C1496 0.960 . S
H1482 C1496 0.960 . S
H1483 C1496 0.960 . S
C1484 H1476 0.929 . S
C1484 C1485 1.377 . S
C1484 C1486 1.384 . S
C1485 C1484 1.377 . S
C1485 C1491 1.390 . S
C1486 H1477 0.930 . S
C1486 C1484 1.384 . S
C1486 C1487 1.372 . S
C1487 C1486 1.372 . S
C1487 C1488 1.400 . S
C1487 C1492 1.490 . S
C1488 H1478 0.930 . S
C1488 C1487 1.400 . S
C1488 C1491 1.386 . S
H1489 C1505 0.930 . S
H1490 C1506 0.931 . S
C1491 H1479 0.929 . S
C1491 C1485 1.390 . S
C1491 C1488 1.386 . S
C1492 C1487 1.490 . S
C1492 C1494 1.395 . S
C1492 C1495 1.403 . S
H1493 C1499 0.930 . S
C1494 H1480 0.930 . S
C1494 C1492 1.395 . S
C1494 C1497 1.403 . S
C1495 C1492 1.403 . S
C1495 C1496 1.524 . S
C1495 C1499 1.400 . S
C1496 H1481 0.960 . S
C1496 H1482 0.960 . S
C1496 H1483 0.960 . S
C1496 C1495 1.524 . S
C1497 C1494 1.403 . S
C1497 C1498 1.392 . S
C1497 C1501 1.495 . S
C1498 C1497 1.392 . S
C1498 C1499 1.385 . S
C1498 C1500 1.478 . S
C1499 H1493 0.930 . S
C1499 C1495 1.400 . S
C1499 C1498 1.385 . S
C1500 C1498 1.478 . S
C1500 C1502 1.381 . S
C1500 C1506 1.383 . S
C1501 C1497 1.495 . S
C1501 H1507 0.959 . S
C1501 H1508 0.961 . S
C1501 H1509 0.960 . S
C1502 C1500 1.381 . S
C1502 C1503 1.394 . S
C1502 H1510 0.930 . S
C1503 C1502 1.394 . S
C1503 C1504 1.383 . S
C1503 H1511 0.929 . S
C1504 C1503 1.383 . S
C1504 C1505 1.377 . S
C1505 H1489 0.930 . S
C1505 C1504 1.377 . S
C1505 C1506 1.379 . S
C1506 H1490 0.931 . S
C1506 C1500 1.383 . S
C1506 C1505 1.379 . S
H1507 C1501 0.959 . S
H1508 C1501 0.961 . S
H1509 C1501 0.960 . S
H1510 C1502 0.930 . S
H1511 C1503 0.929 . S
H1512 C1520 0.929 . S
H1513 C1522 0.930 . S
H1514 C1524 0.930 . S
H1515 C1527 0.929 . S
H1516 C1530 0.930 . S
H1517 C1532 0.960 . S
H1518 C1532 0.960 . S
H1519 C1532 0.960 . S
C1520 H1512 0.929 . S
C1520 C1521 1.377 . S
C1520 C1522 1.384 . S
C1521 C1520 1.377 . S
C1521 C1527 1.390 . S
C1522 H1513 0.930 . S
C1522 C1520 1.384 . S
C1522 C1523 1.372 . S
C1523 C1522 1.372 . S
C1523 C1524 1.400 . S
C1523 C1528 1.490 . S
C1524 H1514 0.930 . S
C1524 C1523 1.400 . S
C1524 C1527 1.386 . S
H1525 C1541 0.930 . S
H1526 C1542 0.931 . S
C1527 H1515 0.929 . S
C1527 C1521 1.390 . S
C1527 C1524 1.386 . S
C1528 C1523 1.490 . S
C1528 C1530 1.395 . S
C1528 C1531 1.403 . S
H1529 C1535 0.930 . S
C1530 H1516 0.930 . S
C1530 C1528 1.395 . S
C1530 C1533 1.403 . S
C1531 C1528 1.403 . S
C1531 C1532 1.524 . S
C1531 C1535 1.400 . S
C1532 H1517 0.960 . S
C1532 H1518 0.960 . S
C1532 H1519 0.960 . S
C1532 C1531 1.524 . S
C1533 C1530 1.403 . S
C1533 C1534 1.392 . S
C1533 C1537 1.495 . S
C1534 C1533 1.392 . S
C1534 C1535 1.385 . S
C1534 C1536 1.478 . S
C1535 H1529 0.930 . S
C1535 C1531 1.400 . S
C1535 C1534 1.385 . S
C1536 C1534 1.478 . S
C1536 C1538 1.381 . S
C1536 C1542 1.383 . S
C1537 C1533 1.495 . S
C1537 H1543 0.959 . S
C1537 H1544 0.961 . S
C1537 H1545 0.960 . S
C1538 C1536 1.381 . S
C1538 C1539 1.394 . S
C1538 H1546 0.930 . S
C1539 C1538 1.394 . S
C1539 C1540 1.383 . S
C1539 H1547 0.929 . S
C1540 C1539 1.383 . S
C1540 C1541 1.377 . S
C1541 H1525 0.930 . S
C1541 C1540 1.377 . S
C1541 C1542 1.379 . S
C1542 H1526 0.931 . S
C1542 C1536 1.383 . S
C1542 C1541 1.379 . S
H1543 C1537 0.959 . S
H1544 C1537 0.961 . S
H1545 C1537 0.960 . S
H1546 C1538 0.930 . S
H1547 C1539 0.929 . S
H1548 C1556 0.929 . S
H1549 C1558 0.930 . S
H1550 C1560 0.930 . S
H1551 C1563 0.929 . S
H1552 C1566 0.930 . S
H1553 C1568 0.960 . S
H1554 C1568 0.960 . S
H1555 C1568 0.960 . S
C1556 H1548 0.929 . S
C1556 C1557 1.377 . S
C1556 C1558 1.384 . S
C1557 C1556 1.377 . S
C1557 C1563 1.390 . S
C1558 H1549 0.930 . S
C1558 C1556 1.384 . S
C1558 C1559 1.372 . S
C1559 C1558 1.372 . S
C1559 C1560 1.400 . S
C1559 C1564 1.490 . S
C1560 H1550 0.930 . S
C1560 C1559 1.400 . S
C1560 C1563 1.386 . S
H1561 C1577 0.974 . S
H1562 C1578 0.931 . S
C1563 H1551 0.929 . S
C1563 C1557 1.390 . S
C1563 C1560 1.386 . S
C1564 C1559 1.490 . S
C1564 C1566 1.395 . S
C1564 C1567 1.403 . S
H1565 C1571 0.930 . S
C1566 H1552 0.930 . S
C1566 C1564 1.395 . S
C1566 C1569 1.403 . S
C1567 C1564 1.403 . S
C1567 C1568 1.524 . S
C1567 C1571 1.400 . S
C1568 H1553 0.960 . S
C1568 H1554 0.960 . S
C1568 H1555 0.960 . S
C1568 C1567 1.524 . S
C1569 C1566 1.403 . S
C1569 C1570 1.392 . S
C1569 C1573 1.495 . S
C1570 C1569 1.392 . S
C1570 C1571 1.385 . S
C1570 C1572 1.478 . S
C1571 H1565 0.930 . S
C1571 C1567 1.400 . S
C1571 C1570 1.385 . S
C1572 C1570 1.478 . S
C1572 C1574 1.381 . S
C1572 C1578 1.383 . S
C1573 C1569 1.495 . S
C1573 H1579 0.959 . S
C1573 H1580 0.961 . S
C1573 H1581 0.960 . S
C1574 C1572 1.381 . S
C1574 C1575 1.394 . S
C1574 H1582 0.930 . S
C1575 C1574 1.394 . S
C1575 C1576 1.383 . S
C1575 H1583 0.929 . S
C1576 C1575 1.383 . S
C1576 C1577 1.377 . S
C1577 H1561 0.974 . S
C1577 C1576 1.377 . S
C1577 C1578 1.379 . S
C1578 H1562 0.931 . S
C1578 C1572 1.383 . S
C1578 C1577 1.379 . S
H1579 C1573 0.959 . S
H1580 C1573 0.961 . S
H1581 C1573 0.960 . S
H1582 C1574 0.930 . S
H1583 C1575 0.929 . S
H1584 C1592 0.929 . S
H1585 C1594 0.930 . S
H1586 C1596 0.930 . S
H1587 C1599 0.929 . S
H1588 C1602 0.930 . S
H1589 C1604 0.960 . S
H1590 C1604 0.960 . S
H1591 C1604 0.960 . S
C1592 H1584 0.929 . S
C1592 C1593 1.377 . S
C1592 C1594 1.384 . S
C1593 C1592 1.377 . S
C1593 C1599 1.390 . S
C1594 H1585 0.930 . S
C1594 C1592 1.384 . S
C1594 C1595 1.372 . S
C1595 C1594 1.372 . S
C1595 C1596 1.400 . S
C1595 C1600 1.490 . S
C1596 H1586 0.930 . S
C1596 C1595 1.400 . S
C1596 C1599 1.386 . S
H1597 C1613 0.930 1_556 S
H1598 C1614 0.931 . S
C1599 H1587 0.929 . S
C1599 C1593 1.390 . S
C1599 C1596 1.386 . S
C1600 C1595 1.490 . S
C1600 C1602 1.395 . S
C1600 C1603 1.403 . S
H1601 C1607 0.930 . S
C1602 H1588 0.930 . S
C1602 C1600 1.395 . S
C1602 C1605 1.403 . S
C1603 C1600 1.403 . S
C1603 C1604 1.524 . S
C1603 C1607 1.400 . S
C1604 H1589 0.960 . S
C1604 H1590 0.960 . S
C1604 H1591 0.960 . S
C1604 C1603 1.524 . S
C1605 C1602 1.403 . S
C1605 C1606 1.392 . S
C1605 C1609 1.495 . S
C1606 C1605 1.392 . S
C1606 C1607 1.385 . S
C1606 C1608 1.478 . S
C1607 H1601 0.930 . S
C1607 C1603 1.400 . S
C1607 C1606 1.385 . S
C1608 C1606 1.478 . S
C1608 C1610 1.381 . S
C1608 C1614 1.383 . S
C1609 C1605 1.495 . S
C1609 H1615 0.959 . S
C1609 H1616 0.961 . S
C1609 H1617 0.960 . S
C1610 C1608 1.381 . S
C1610 C1611 1.394 . S
C1610 H1618 0.930 . S
C1611 C1610 1.394 . S
C1611 C1612 1.383 . S
C1611 H1619 0.929 . S
C1612 C1611 1.383 . S
C1612 C1613 1.377 . S
C1613 H1597 0.930 1_554 S
C1613 C1612 1.377 . S
C1613 C1614 1.379 . S
C1614 H1598 0.931 . S
C1614 C1608 1.383 . S
C1614 C1613 1.379 . S
H1615 C1609 0.959 . S
H1616 C1609 0.961 . S
H1617 C1609 0.960 . S
H1618 C1610 0.930 . S
H1619 C1611 0.929 . S
H1620 C1628 0.929 . S
H1621 C1630 0.930 . S
H1622 C1632 0.930 . S
H1623 C1635 0.929 . S
H1624 C1638 0.930 . S
H1625 C1640 0.960 . S
H1626 C1640 0.960 . S
H1627 C1640 0.960 . S
C1628 H1620 0.929 . S
C1628 C1629 1.377 . S
C1628 C1630 1.384 . S
C1629 C1628 1.377 . S
C1629 C1635 1.390 . S
C1630 H1621 0.930 . S
C1630 C1628 1.384 . S
C1630 C1631 1.372 . S
C1631 C1630 1.372 . S
C1631 C1632 1.400 . S
C1631 C1636 1.490 . S
C1632 H1622 0.930 . S
C1632 C1631 1.400 . S
C1632 C1635 1.386 . S
H1633 C1649 0.930 . S
H1634 C1650 0.931 . S
C1635 H1623 0.929 . S
C1635 C1629 1.390 . S
C1635 C1632 1.386 . S
C1636 C1631 1.490 . S
C1636 C1638 1.395 . S
C1636 C1639 1.403 . S
H1637 C1643 0.930 . S
C1638 H1624 0.930 . S
C1638 C1636 1.395 . S
C1638 C1641 1.403 . S
C1639 C1636 1.403 . S
C1639 C1640 1.524 . S
C1639 C1643 1.400 . S
C1640 H1625 0.960 . S
C1640 H1626 0.960 . S
C1640 H1627 0.960 . S
C1640 C1639 1.524 . S
C1641 C1638 1.403 . S
C1641 C1642 1.392 . S
C1641 C1645 1.495 . S
C1642 C1641 1.392 . S
C1642 C1643 1.385 . S
C1642 C1644 1.478 . S
C1643 H1637 0.930 . S
C1643 C1639 1.400 . S
C1643 C1642 1.385 . S
C1644 C1642 1.478 . S
C1644 C1646 1.381 . S
C1644 C1650 1.383 . S
C1645 C1641 1.495 . S
C1645 H1651 0.959 . S
C1645 H1652 0.961 . S
C1645 H1653 0.960 . S
C1646 C1644 1.381 . S
C1646 C1647 1.394 . S
C1646 H1654 0.930 . S
C1647 C1646 1.394 . S
C1647 C1648 1.383 . S
C1647 H1655 0.929 . S
C1648 C1647 1.383 . S
C1648 C1649 1.377 . S
C1649 H1633 0.930 . S
C1649 C1648 1.377 . S
C1649 C1650 1.379 . S
C1650 H1634 0.931 . S
C1650 C1644 1.383 . S
C1650 C1649 1.379 . S
H1651 C1645 0.959 . S
H1652 C1645 0.961 . S
H1653 C1645 0.960 . S
H1654 C1646 0.930 . S
H1655 C1647 0.929 . S
H1656 C1664 0.929 . S
H1657 C1666 0.930 . S
H1658 C1668 0.930 . S
H1659 C1671 0.929 . S
H1660 C1674 0.930 . S
H1661 C1676 0.960 . S
H1662 C1676 0.960 . S
H1663 C1676 0.960 . S
C1664 H1656 0.929 . S
C1664 C1665 1.377 . S
C1664 C1666 1.384 . S
C1665 C1664 1.377 . S
C1665 C1671 1.390 . S
C1666 H1657 0.930 . S
C1666 C1664 1.384 . S
C1666 C1667 1.372 . S
C1667 C1666 1.372 . S
C1667 C1668 1.400 . S
C1667 C1672 1.490 . S
C1668 H1658 0.930 . S
C1668 C1667 1.400 . S
C1668 C1671 1.386 . S
H1669 C1685 0.930 . S
H1670 C1686 0.931 . S
C1671 H1659 0.929 . S
C1671 C1665 1.390 . S
C1671 C1668 1.386 . S
C1672 C1667 1.490 . S
C1672 C1674 1.395 . S
C1672 C1675 1.403 . S
H1673 C1679 0.930 . S
C1674 H1660 0.930 . S
C1674 C1672 1.395 . S
C1674 C1677 1.403 . S
C1675 C1672 1.403 . S
C1675 C1676 1.524 . S
C1675 C1679 1.400 . S
C1676 H1661 0.960 . S
C1676 H1662 0.960 . S
C1676 H1663 0.960 . S
C1676 C1675 1.524 . S
C1677 C1674 1.403 . S
C1677 C1678 1.392 . S
C1677 C1681 1.495 . S
C1678 C1677 1.392 . S
C1678 C1679 1.385 . S
C1678 C1680 1.478 . S
C1679 H1673 0.930 . S
C1679 C1675 1.400 . S
C1679 C1678 1.385 . S
C1680 C1678 1.478 . S
C1680 C1682 1.381 . S
C1680 C1686 1.383 . S
C1681 C1677 1.495 . S
C1681 H1687 0.959 1_554 S
C1681 H1688 0.961 . S
C1681 H1689 0.960 1_554 S
C1682 C1680 1.381 . S
C1682 C1683 1.394 . S
C1682 H1690 0.930 . S
C1683 C1682 1.394 . S
C1683 C1684 1.383 . S
C1683 H1691 0.890 1_554 S
C1684 C1683 1.383 . S
C1684 C1685 1.377 . S
C1685 H1669 0.930 . S
C1685 C1684 1.377 . S
C1685 C1686 1.379 . S
C1686 H1670 0.931 . S
C1686 C1680 1.383 . S
C1686 C1685 1.379 . S
H1687 C1681 0.959 1_556 S
H1688 C1681 0.961 . S
H1689 C1681 0.960 1_556 S
H1690 C1682 0.930 . S
H1691 C1683 0.890 1_556 S
H1692 C1700 0.929 . S
H1693 C1702 0.930 . S
H1694 C1704 0.930 . S
H1695 C1707 0.929 . S
H1696 C1710 0.930 . S
H1697 C1712 0.921 1_455 S
H1698 C1712 1.013 . S
H1699 C1712 0.961 . S
C1700 H1692 0.929 . S
C1700 C1701 1.377 . S
C1700 C1702 1.384 . S
C1701 C1700 1.377 . S
C1701 C1707 1.390 . S
C1702 H1693 0.930 . S
C1702 C1700 1.384 . S
C1702 C1703 1.372 . S
C1703 C1702 1.372 . S
C1703 C1704 1.400 . S
C1703 C1708 1.490 1_655 S
C1704 H1694 0.930 . S
C1704 C1703 1.400 . S
C1704 C1707 1.386 . S
H1705 C1721 0.930 . S
H1706 C1722 0.931 . S
C1707 H1695 0.929 . S
C1707 C1701 1.390 . S
C1707 C1704 1.386 . S
C1708 C1703 1.490 1_455 S
C1708 C1710 1.395 . S
C1708 C1711 1.403 . S
H1709 C1715 0.930 . S
C1710 H1696 0.930 . S
C1710 C1708 1.395 . S
C1710 C1713 1.403 . S
C1711 C1708 1.403 . S
C1711 C1712 1.514 1_455 S
C1711 C1715 1.400 . S
C1712 H1697 0.921 1_655 S
C1712 H1698 1.013 . S
C1712 H1699 0.961 . S
C1712 C1711 1.514 1_655 S
C1713 C1710 1.403 . S
C1713 C1714 1.392 . S
C1713 C1717 1.495 . S
C1714 C1713 1.392 . S
C1714 C1715 1.385 . S
C1714 C1716 1.478 . S
C1715 H1709 0.930 . S
C1715 C1711 1.400 . S
C1715 C1714 1.385 . S
C1716 C1714 1.478 . S
C1716 C1718 1.381 . S
C1716 C1722 1.383 . S
C1717 C1713 1.495 . S
C1717 H1723 0.959 . S
C1717 H1724 0.961 . S
C1717 H1725 0.960 . S
C1718 C1716 1.381 . S
C1718 C1719 1.394 . S
C1718 H1726 0.930 . S
C1719 C1718 1.394 . S
C1719 C1720 1.383 . S
C1719 H1727 0.929 . S
C1720 C1719 1.383 . S
C1720 C1721 1.377 . S
C1721 H1705 0.930 . S
C1721 C1720 1.377 . S
C1721 C1722 1.379 . S
C1722 H1706 0.931 . S
C1722 C1716 1.383 . S
C1722 C1721 1.379 . S
H1723 C1717 0.959 . S
H1724 C1717 0.961 . S
H1725 C1717 0.960 . S
H1726 C1718 0.930 . S
H1727 C1719 0.929 . S
H1728 C1736 0.929 . S
H1729 C1738 0.930 . S
H1730 C1740 0.930 . S
H1731 C1743 0.929 . S
H1732 C1746 0.930 . S
H1733 C1748 0.960 . S
H1734 C1748 0.960 . S
H1735 C1748 0.960 . S
C1736 H1728 0.929 . S
C1736 C1737 1.377 . S
C1736 C1738 1.384 . S
C1737 C1736 1.377 . S
C1737 C1743 1.390 . S
C1738 H1729 0.930 . S
C1738 C1736 1.384 . S
C1738 C1739 1.372 . S
C1739 C1738 1.372 . S
C1739 C1740 1.400 . S
C1739 C1744 1.490 . S
C1740 H1730 0.930 . S
C1740 C1739 1.400 . S
C1740 C1743 1.386 . S
H1741 C1757 0.930 . S
H1742 C1758 0.931 . S
C1743 H1731 0.929 . S
C1743 C1737 1.390 . S
C1743 C1740 1.386 . S
C1744 C1739 1.490 . S
C1744 C1746 1.395 . S
C1744 C1747 1.403 . S
H1745 C1751 0.930 . S
C1746 H1732 0.930 . S
C1746 C1744 1.395 . S
C1746 C1749 1.403 . S
C1747 C1744 1.403 . S
C1747 C1748 1.524 . S
C1747 C1751 1.400 . S
C1748 H1733 0.960 . S
C1748 H1734 0.960 . S
C1748 H1735 0.960 . S
C1748 C1747 1.524 . S
C1749 C1746 1.403 . S
C1749 C1750 1.392 . S
C1749 C1753 1.495 . S
C1750 C1749 1.392 . S
C1750 C1751 1.385 . S
C1750 C1752 1.478 . S
C1751 H1745 0.930 . S
C1751 C1747 1.400 . S
C1751 C1750 1.385 . S
C1752 C1750 1.478 . S
C1752 C1754 1.381 . S
C1752 C1758 1.383 . S
C1753 C1749 1.495 . S
C1753 H1759 0.959 . S
C1753 H1760 0.961 . S
C1753 H1761 0.960 . S
C1754 C1752 1.381 . S
C1754 C1755 1.394 . S
C1754 H1762 0.930 . S
C1755 C1754 1.394 . S
C1755 C1756 1.383 . S
C1755 H1763 0.929 . S
C1756 C1755 1.383 . S
C1756 C1757 1.377 . S
C1757 H1741 0.930 . S
C1757 C1756 1.377 . S
C1757 C1758 1.379 . S
C1758 H1742 0.931 . S
C1758 C1752 1.383 . S
C1758 C1757 1.379 . S
H1759 C1753 0.959 . S
H1760 C1753 0.961 . S
H1761 C1753 0.960 . S
H1762 C1754 0.930 . S
H1763 C1755 0.929 . S
H1764 C1772 0.929 . S
H1765 C1774 0.930 . S
H1766 C1776 0.930 . S
H1767 C1779 0.929 . S
H1768 C1782 0.930 . S
H1769 C1784 0.960 . S
H1770 C1784 0.960 . S
H1771 C1784 0.960 . S
C1772 H1764 0.929 . S
C1772 C1773 1.377 . S
C1772 C1774 1.384 . S
C1773 C1772 1.377 . S
C1773 C1779 1.390 . S
C1774 H1765 0.930 . S
C1774 C1772 1.384 . S
C1774 C1775 1.372 . S
C1775 C1774 1.372 . S
C1775 C1776 1.400 . S
C1775 C1780 1.490 1_545 S
C1776 H1766 0.930 . S
C1776 C1775 1.400 . S
C1776 C1779 1.386 . S
H1777 C1793 0.930 . S
H1778 C1794 0.931 . S
C1779 H1767 0.929 . S
C1779 C1773 1.390 . S
C1779 C1776 1.386 . S
C1780 C1775 1.490 1_565 S
C1780 C1782 1.395 . S
C1780 C1783 1.403 . S
H1781 C1787 0.930 . S
C1782 H1768 0.930 . S
C1782 C1780 1.395 . S
C1782 C1785 1.403 . S
C1783 C1780 1.403 . S
C1783 C1784 1.524 . S
C1783 C1787 1.400 . S
C1784 H1769 0.960 . S
C1784 H1770 0.960 . S
C1784 H1771 0.960 . S
C1784 C1783 1.524 . S
C1785 C1782 1.403 . S
C1785 C1786 1.392 . S
C1785 C1789 1.495 . S
C1786 C1785 1.392 . S
C1786 C1787 1.385 . S
C1786 C1788 1.478 . S
C1787 H1781 0.930 . S
C1787 C1783 1.400 . S
C1787 C1786 1.385 . S
C1788 C1786 1.478 . S
C1788 C1790 1.381 . S
C1788 C1794 1.383 . S
C1789 C1785 1.495 . S
C1789 H1795 0.959 . S
C1789 H1796 0.961 . S
C1789 H1797 0.960 . S
C1790 C1788 1.381 . S
C1790 C1791 1.394 . S
C1790 H1798 0.930 . S
C1791 C1790 1.394 . S
C1791 C1792 1.383 . S
C1791 H1799 0.929 . S
C1792 C1791 1.383 . S
C1792 C1793 1.377 . S
C1793 H1777 0.930 . S
C1793 C1792 1.377 . S
C1793 C1794 1.379 . S
C1794 H1778 0.931 . S
C1794 C1788 1.383 . S
C1794 C1793 1.379 . S
H1795 C1789 0.959 . S
H1796 C1789 0.961 . S
H1797 C1789 0.960 . S
H1798 C1790 0.930 . S
H1799 C1791 0.929 . S
H1800 C1808 0.929 . S
H1801 C1810 0.930 . S
H1802 C1812 0.930 . S
H1803 C1815 0.929 . S
H1804 C1818 0.930 . S
H1805 C1820 0.960 . S
H1806 C1820 0.960 . S
H1807 C1820 0.960 . S
C1808 H1800 0.929 . S
C1808 C1809 1.377 . S
C1808 C1810 1.384 . S
C1809 C1808 1.377 . S
C1809 C1815 1.390 . S
C1810 H1801 0.930 . S
C1810 C1808 1.384 . S
C1810 C1811 1.372 . S
C1811 C1810 1.372 . S
C1811 C1812 1.400 . S
C1811 C1816 1.490 . S
C1812 H1802 0.930 . S
C1812 C1811 1.400 . S
C1812 C1815 1.386 . S
H1813 C1829 0.930 . S
H1814 C1830 0.931 . S
C1815 H1803 0.929 . S
C1815 C1809 1.390 . S
C1815 C1812 1.386 . S
C1816 C1811 1.490 . S
C1816 C1818 1.395 . S
C1816 C1819 1.403 . S
H1817 C1823 0.930 . S
C1818 H1804 0.930 . S
C1818 C1816 1.395 . S
C1818 C1821 1.403 . S
C1819 C1816 1.403 . S
C1819 C1820 1.524 . S
C1819 C1823 1.400 . S
C1820 H1805 0.960 . S
C1820 H1806 0.960 . S
C1820 H1807 0.960 . S
C1820 C1819 1.524 . S
C1821 C1818 1.403 . S
C1821 C1822 1.392 . S
C1821 C1825 1.495 . S
C1822 C1821 1.392 . S
C1822 C1823 1.385 . S
C1822 C1824 1.478 . S
C1823 H1817 0.930 . S
C1823 C1819 1.400 . S
C1823 C1822 1.385 . S
C1824 C1822 1.478 . S
C1824 C1826 1.381 . S
C1824 C1830 1.383 . S
C1825 C1821 1.495 . S
C1825 H1831 0.959 . S
C1825 H1832 0.961 . S
C1825 H1833 0.960 . S
C1826 C1824 1.381 . S
C1826 C1827 1.394 . S
C1826 H1834 0.930 . S
C1827 C1826 1.394 . S
C1827 C1828 1.383 . S
C1827 H1835 0.929 . S
C1828 C1827 1.383 . S
C1828 C1829 1.377 . S
C1829 H1813 0.930 . S
C1829 C1828 1.377 . S
C1829 C1830 1.379 . S
C1830 H1814 0.931 . S
C1830 C1824 1.383 . S
C1830 C1829 1.379 . S
H1831 C1825 0.959 . S
H1832 C1825 0.961 . S
H1833 C1825 0.960 . S
H1834 C1826 0.930 . S
H1835 C1827 0.929 . S
H1836 C1844 0.929 . S
H1837 C1846 0.930 . S
H1838 C1848 0.930 . S
H1839 C1851 0.929 . S
H1840 C1854 0.930 . S
H1841 C1856 0.960 . S
H1842 C1856 0.960 . S
H1843 C1856 0.960 . S
C1844 H1836 0.929 . S
C1844 C1845 1.377 . S
C1844 C1846 1.384 . S
C1845 C1844 1.377 . S
C1845 C1851 1.390 . S
C1846 H1837 0.930 . S
C1846 C1844 1.384 . S
C1846 C1847 1.372 . S
C1847 C1846 1.372 . S
C1847 C1848 1.400 . S
C1847 C1852 1.490 . S
C1848 H1838 0.930 . S
C1848 C1847 1.400 . S
C1848 C1851 1.386 . S
H1849 C1865 0.930 . S
H1850 C1866 0.931 . S
C1851 H1839 0.929 . S
C1851 C1845 1.390 . S
C1851 C1848 1.386 . S
C1852 C1847 1.490 . S
C1852 C1854 1.395 . S
C1852 C1855 1.403 . S
H1853 C1859 0.930 . S
C1854 H1840 0.930 . S
C1854 C1852 1.395 . S
C1854 C1857 1.403 . S
C1855 C1852 1.403 . S
C1855 C1856 1.524 . S
C1855 C1859 1.400 . S
C1856 H1841 0.960 . S
C1856 H1842 0.960 . S
C1856 H1843 0.960 . S
C1856 C1855 1.524 . S
C1857 C1854 1.403 . S
C1857 C1858 1.392 . S
C1857 C1861 1.495 . S
C1858 C1857 1.392 . S
C1858 C1859 1.385 . S
C1858 C1860 1.478 . S
C1859 H1853 0.930 . S
C1859 C1855 1.400 . S
C1859 C1858 1.385 . S
C1860 C1858 1.478 . S
C1860 C1862 1.381 . S
C1860 C1866 1.383 . S
C1861 C1857 1.495 . S
C1861 H1867 0.959 . S
C1861 H1868 0.961 . S
C1861 H1869 0.960 . S
C1862 C1860 1.381 . S
C1862 C1863 1.394 . S
C1862 H1870 0.930 . S
C1863 C1862 1.394 . S
C1863 C1864 1.383 . S
C1863 H1871 0.929 . S
C1864 C1863 1.383 . S
C1864 C1865 1.377 . S
C1865 H1849 0.930 . S
C1865 C1864 1.377 . S
C1865 C1866 1.379 . S
C1866 H1850 0.931 . S
C1866 C1860 1.383 . S
C1866 C1865 1.379 . S
H1867 C1861 0.959 . S
H1868 C1861 0.961 . S
H1869 C1861 0.960 . S
H1870 C1862 0.930 . S
H1871 C1863 0.929 . S
H1872 C1880 0.929 . S
H1873 C1882 0.930 . S
H1874 C1884 0.930 . S
H1875 C1887 0.929 . S
H1876 C1890 0.930 . S
H1877 C1892 0.960 . S
H1878 C1892 0.960 . S
H1879 C1892 0.960 . S
C1880 H1872 0.929 . S
C1880 C1881 1.377 . S
C1880 C1882 1.384 . S
C1881 C1880 1.377 . S
C1881 C1887 1.390 . S
C1882 H1873 0.930 . S
C1882 C1880 1.384 . S
C1882 C1883 1.372 . S
C1883 C1882 1.372 . S
C1883 C1884 1.400 . S
C1883 C1888 1.490 . S
C1884 H1874 0.930 . S
C1884 C1883 1.400 . S
C1884 C1887 1.386 . S
H1885 C1901 0.930 . S
H1886 C1902 0.931 . S
C1887 H1875 0.929 . S
C1887 C1881 1.390 . S
C1887 C1884 1.386 . S
C1888 C1883 1.490 . S
C1888 C1890 1.395 . S
C1888 C1891 1.403 . S
H1889 C1895 0.930 . S
C1890 H1876 0.930 . S
C1890 C1888 1.395 . S
C1890 C1893 1.403 . S
C1891 C1888 1.403 . S
C1891 C1892 1.524 . S
C1891 C1895 1.400 . S
C1892 H1877 0.960 . S
C1892 H1878 0.960 . S
C1892 H1879 0.960 . S
C1892 C1891 1.524 . S
C1893 C1890 1.403 . S
C1893 C1894 1.392 . S
C1893 C1897 1.495 . S
C1894 C1893 1.392 . S
C1894 C1895 1.385 . S
C1894 C1896 1.478 . S
C1895 H1889 0.930 . S
C1895 C1891 1.400 . S
C1895 C1894 1.385 . S
C1896 C1894 1.478 . S
C1896 C1898 1.381 . S
C1896 C1902 1.383 . S
C1897 C1893 1.495 . S
C1897 H1903 0.959 . S
C1897 H1904 0.961 . S
C1897 H1905 0.960 . S
C1898 C1896 1.381 . S
C1898 C1899 1.394 . S
C1898 H1906 0.930 . S
C1899 C1898 1.394 . S
C1899 C1900 1.383 . S
C1899 H1907 0.929 . S
C1900 C1899 1.383 . S
C1900 C1901 1.377 . S
C1901 H1885 0.930 . S
C1901 C1900 1.377 . S
C1901 C1902 1.379 . S
C1902 H1886 0.931 . S
C1902 C1896 1.383 . S
C1902 C1901 1.379 . S
H1903 C1897 0.959 . S
H1904 C1897 0.961 . S
H1905 C1897 0.960 . S
H1906 C1898 0.930 . S
H1907 C1899 0.929 . S
H1908 C1916 0.929 . S
H1909 C1918 0.930 . S
H1910 C1920 0.930 . S
H1911 C1923 0.929 . S
H1912 C1926 0.930 . S
H1913 C1928 0.960 . S
H1914 C1928 0.960 . S
H1915 C1928 0.960 . S
C1916 H1908 0.929 . S
C1916 C1917 1.377 . S
C1916 C1918 1.384 . S
C1917 C1916 1.377 . S
C1917 C1923 1.390 . S
C1918 H1909 0.930 . S
C1918 C1916 1.384 . S
C1918 C1919 1.372 . S
C1919 C1918 1.372 . S
C1919 C1920 1.400 . S
C1919 C1924 1.490 . S
C1920 H1910 0.930 . S
C1920 C1919 1.400 . S
C1920 C1923 1.386 . S
H1921 C1937 0.930 . S
H1922 C1938 0.931 . S
C1923 H1911 0.929 . S
C1923 C1917 1.390 . S
C1923 C1920 1.386 . S
C1924 C1919 1.490 . S
C1924 C1926 1.395 . S
C1924 C1927 1.403 . S
H1925 C1931 0.930 . S
C1926 H1912 0.930 . S
C1926 C1924 1.395 . S
C1926 C1929 1.403 . S
C1927 C1924 1.403 . S
C1927 C1928 1.524 . S
C1927 C1931 1.400 . S
C1928 H1913 0.960 . S
C1928 H1914 0.960 . S
C1928 H1915 0.960 . S
C1928 C1927 1.524 . S
C1929 C1926 1.403 . S
C1929 C1930 1.392 . S
C1929 C1933 1.495 . S
C1930 C1929 1.392 . S
C1930 C1931 1.385 . S
C1930 C1932 1.478 . S
C1931 H1925 0.930 . S
C1931 C1927 1.400 . S
C1931 C1930 1.385 . S
C1932 C1930 1.478 . S
C1932 C1934 1.381 . S
C1932 C1938 1.383 . S
C1933 C1929 1.495 . S
C1933 H1939 0.959 . S
C1933 H1940 0.961 . S
C1933 H1941 0.960 . S
C1934 C1932 1.381 . S
C1934 C1935 1.394 . S
C1934 H1942 0.930 . S
C1935 C1934 1.394 . S
C1935 C1936 1.383 . S
C1935 H1943 0.929 . S
C1936 C1935 1.383 . S
C1936 C1937 1.377 . S
C1937 H1921 0.930 . S
C1937 C1936 1.377 . S
C1937 C1938 1.379 . S
C1938 H1922 0.931 . S
C1938 C1932 1.383 . S
C1938 C1937 1.379 . S
H1939 C1933 0.959 . S
H1940 C1933 0.961 . S
H1941 C1933 0.960 . S
H1942 C1934 0.930 . S
H1943 C1935 0.929 . S
H1944 C1952 0.929 . S
H1945 C1954 0.930 . S
H1946 C1956 0.930 . S
H1947 C1959 0.929 . S
H1948 C1962 0.930 . S
H1949 C1964 0.960 . S
H1950 C1964 0.960 . S
H1951 C1964 0.960 . S
C1952 H1944 0.929 . S
C1952 C1953 1.377 . S
C1952 C1954 1.384 . S
C1953 C1952 1.377 . S
C1953 C1959 1.390 . S
C1954 H1945 0.930 . S
C1954 C1952 1.384 . S
C1954 C1955 1.372 . S
C1955 C1954 1.372 . S
C1955 C1956 1.400 . S
C1955 C1960 1.490 . S
C1956 H1946 0.930 . S
C1956 C1955 1.400 . S
C1956 C1959 1.386 . S
H1957 C1973 0.930 . S
H1958 C1974 0.931 . S
C1959 H1947 0.929 . S
C1959 C1953 1.390 . S
C1959 C1956 1.386 . S
C1960 C1955 1.490 . S
C1960 C1962 1.395 . S
C1960 C1963 1.403 . S
H1961 C1967 0.930 . S
C1962 H1948 0.930 . S
C1962 C1960 1.395 . S
C1962 C1965 1.403 . S
C1963 C1960 1.403 . S
C1963 C1964 1.524 . S
C1963 C1967 1.400 . S
C1964 H1949 0.960 . S
C1964 H1950 0.960 . S
C1964 H1951 0.960 . S
C1964 C1963 1.524 . S
C1965 C1962 1.403 . S
C1965 C1966 1.392 . S
C1965 C1969 1.495 . S
C1966 C1965 1.392 . S
C1966 C1967 1.385 . S
C1966 C1968 1.478 . S
C1967 H1961 0.930 . S
C1967 C1963 1.400 . S
C1967 C1966 1.385 . S
C1968 C1966 1.478 . S
C1968 C1970 1.381 . S
C1968 C1974 1.383 . S
C1969 C1965 1.495 . S
C1969 H1975 0.959 . S
C1969 H1976 0.961 . S
C1969 H1977 0.960 . S
C1970 C1968 1.381 . S
C1970 C1971 1.394 . S
C1970 H1978 0.930 . S
C1971 C1970 1.394 . S
C1971 C1972 1.383 . S
C1971 H1979 0.929 . S
C1972 C1971 1.383 . S
C1972 C1973 1.377 . S
C1973 H1957 0.930 . S
C1973 C1972 1.377 . S
C1973 C1974 1.379 . S
C1974 H1958 0.931 . S
C1974 C1968 1.383 . S
C1974 C1973 1.379 . S
H1975 C1969 0.959 . S
H1976 C1969 0.961 . S
H1977 C1969 0.960 . S
H1978 C1970 0.930 . S
H1979 C1971 0.929 . S
H1980 C1988 0.929 . S
H1981 C1990 0.930 . S
H1982 C1992 0.930 . S
H1983 C1995 0.929 . S
H1984 C1998 0.930 . S
H1985 C2000 0.960 . S
H1986 C2000 0.960 . S
H1987 C2000 0.960 . S
C1988 H1980 0.929 . S
C1988 C1989 1.377 . S
C1988 C1990 1.384 . S
C1989 C1988 1.377 . S
C1989 C1995 1.390 . S
C1990 H1981 0.930 . S
C1990 C1988 1.384 . S
C1990 C1991 1.372 . S
C1991 C1990 1.372 . S
C1991 C1992 1.400 . S
C1991 C1996 1.490 . S
C1992 H1982 0.930 . S
C1992 C1991 1.400 . S
C1992 C1995 1.386 . S
H1993 C2009 0.930 . S
H1994 C2010 0.931 . S
C1995 H1983 0.929 . S
C1995 C1989 1.390 . S
C1995 C1992 1.386 . S
C1996 C1991 1.490 . S
C1996 C1998 1.395 . S
C1996 C1999 1.403 . S
H1997 C2003 0.930 . S
C1998 H1984 0.930 . S
C1998 C1996 1.395 . S
C1998 C2001 1.403 . S
C1999 C1996 1.403 . S
C1999 C2000 1.524 . S
C1999 C2003 1.400 . S
C2000 H1985 0.960 . S
C2000 H1986 0.960 . S
C2000 H1987 0.960 . S
C2000 C1999 1.524 . S
C2001 C1998 1.403 . S
C2001 C2002 1.392 . S
C2001 C2005 1.495 . S
C2002 C2001 1.392 . S
C2002 C2003 1.385 . S
C2002 C2004 1.478 . S
C2003 H1997 0.930 . S
C2003 C1999 1.400 . S
C2003 C2002 1.385 . S
C2004 C2002 1.478 . S
C2004 C2006 1.381 . S
C2004 C2010 1.383 . S
C2005 C2001 1.495 . S
C2005 H2011 0.959 . S
C2005 H2012 0.961 . S
C2005 H2013 0.960 . S
C2006 C2004 1.381 . S
C2006 C2007 1.394 . S
C2006 H2014 0.930 . S
C2007 C2006 1.394 . S
C2007 C2008 1.383 . S
C2007 H2015 0.929 . S
C2008 C2007 1.383 . S
C2008 C2009 1.377 . S
C2009 H1993 0.930 . S
C2009 C2008 1.377 . S
C2009 C2010 1.379 . S
C2010 H1994 0.931 . S
C2010 C2004 1.383 . S
C2010 C2009 1.379 . S
H2011 C2005 0.959 . S
H2012 C2005 0.961 . S
H2013 C2005 0.960 . S
H2014 C2006 0.930 . S
H2015 C2007 0.929 . S
H2016 C2024 0.929 . S
H2017 C2026 0.930 . S
H2018 C2028 0.930 . S
H2019 C2031 0.929 . S
H2020 C2034 0.930 . S
H2021 C2036 0.960 . S
H2022 C2036 0.960 . S
H2023 C2036 0.960 . S
C2024 H2016 0.929 . S
C2024 C2025 1.377 . S
C2024 C2026 1.384 . S
C2025 C2024 1.377 . S
C2025 C2031 1.390 . S
C2026 H2017 0.930 . S
C2026 C2024 1.384 . S
C2026 C2027 1.372 . S
C2027 C2026 1.372 . S
C2027 C2028 1.400 . S
C2027 C2032 1.490 1_545 S
C2028 H2018 0.930 . S
C2028 C2027 1.400 . S
C2028 C2031 1.386 . S
H2029 C2045 0.930 . S
H2030 C2046 0.931 . S
C2031 H2019 0.929 . S
C2031 C2025 1.390 . S
C2031 C2028 1.386 . S
C2032 C2027 1.490 1_565 S
C2032 C2034 1.395 . S
C2032 C2035 1.403 . S
H2033 C2039 0.930 . S
C2034 H2020 0.930 . S
C2034 C2032 1.395 . S
C2034 C2037 1.403 . S
C2035 C2032 1.403 . S
C2035 C2036 1.524 . S
C2035 C2039 1.400 . S
C2036 H2021 0.960 . S
C2036 H2022 0.960 . S
C2036 H2023 0.960 . S
C2036 C2035 1.524 . S
C2037 C2034 1.403 . S
C2037 C2038 1.392 . S
C2037 C2041 1.495 . S
C2038 C2037 1.392 . S
C2038 C2039 1.385 . S
C2038 C2040 1.478 . S
C2039 H2033 0.930 . S
C2039 C2035 1.400 . S
C2039 C2038 1.385 . S
C2040 C2038 1.478 . S
C2040 C2042 1.381 . S
C2040 C2046 1.383 . S
C2041 C2037 1.495 . S
C2041 H2047 0.959 . S
C2041 H2048 0.961 . S
C2041 H2049 0.960 . S
C2042 C2040 1.381 . S
C2042 C2043 1.394 . S
C2042 H2050 0.930 . S
C2043 C2042 1.394 . S
C2043 C2044 1.383 . S
C2043 H2051 0.929 . S
C2044 C2043 1.383 . S
C2044 C2045 1.377 . S
C2045 H2029 0.930 . S
C2045 C2044 1.377 . S
C2045 C2046 1.379 . S
C2046 H2030 0.931 . S
C2046 C2040 1.383 . S
C2046 C2045 1.379 . S
H2047 C2041 0.959 . S
H2048 C2041 0.961 . S
H2049 C2041 0.960 . S
H2050 C2042 0.930 . S
H2051 C2043 0.929 . S
H2052 C2060 0.929 . S
H2053 C2062 0.930 . S
H2054 C2064 0.930 1_455 S
H2055 C2067 0.929 . S
H2056 C2070 0.930 . S
H2057 C2072 0.960 . S
H2058 C2072 0.960 . S
H2059 C2072 0.960 . S
C2060 H2052 0.929 . S
C2060 C2061 1.377 . S
C2060 C2062 1.384 . S
C2061 C2060 1.377 . S
C2061 C2067 1.390 . S
C2062 H2053 0.930 . S
C2062 C2060 1.384 . S
C2062 C2063 1.372 . S
C2063 C2062 1.372 . S
C2063 C2064 1.400 . S
C2063 C2068 1.490 1_655 S
C2064 H2054 0.930 1_655 S
C2064 C2063 1.400 . S
C2064 C2067 1.386 . S
H2065 C2081 0.930 . S
H2066 C2082 0.931 . S
C2067 H2055 0.929 . S
C2067 C2061 1.390 . S
C2067 C2064 1.386 . S
C2068 C2063 1.490 1_455 S
C2068 C2070 1.395 . S
C2068 C2071 1.403 . S
H2069 C2075 0.930 . S
C2070 H2056 0.930 . S
C2070 C2068 1.395 . S
C2070 C2073 1.403 . S
C2071 C2068 1.403 . S
C2071 C2072 1.524 . S
C2071 C2075 1.400 . S
C2072 H2057 0.960 . S
C2072 H2058 0.960 . S
C2072 H2059 0.960 . S
C2072 C2071 1.524 . S
C2073 C2070 1.403 . S
C2073 C2074 1.392 . S
C2073 C2077 1.495 . S
C2074 C2073 1.392 . S
C2074 C2075 1.385 . S
C2074 C2076 1.478 . S
C2075 H2069 0.930 . S
C2075 C2071 1.400 . S
C2075 C2074 1.385 . S
C2076 C2074 1.478 . S
C2076 C2078 1.381 . S
C2076 C2082 1.383 . S
C2077 C2073 1.495 . S
C2077 H2083 0.959 . S
C2077 H2084 0.961 . S
C2077 H2085 0.960 . S
C2078 C2076 1.381 . S
C2078 C2079 1.394 . S
C2078 H2086 0.930 . S
C2079 C2078 1.394 . S
C2079 C2080 1.383 . S
C2079 H2087 0.929 . S
C2080 C2079 1.383 . S
C2080 C2081 1.377 . S
C2081 H2065 0.930 . S
C2081 C2080 1.377 . S
C2081 C2082 1.379 . S
C2082 H2066 0.931 . S
C2082 C2076 1.383 . S
C2082 C2081 1.379 . S
H2083 C2077 0.959 . S
H2084 C2077 0.961 . S
H2085 C2077 0.960 . S
H2086 C2078 0.930 . S
H2087 C2079 0.929 . S
H2088 C2096 0.929 . S
H2089 C2098 0.930 . S
H2090 C2100 0.930 . S
H2091 C2103 0.929 . S
H2092 C2106 0.930 . S
H2093 C2108 0.960 . S
H2094 C2108 0.960 . S
H2095 C2108 0.960 . S
C2096 H2088 0.929 . S
C2096 C2097 1.377 . S
C2096 C2098 1.384 . S
C2097 C2096 1.377 . S
C2097 C2103 1.390 . S
C2098 H2089 0.930 . S
C2098 C2096 1.384 . S
C2098 C2099 1.372 . S
C2099 C2098 1.372 . S
C2099 C2100 1.400 . S
C2099 C2104 1.490 . S
C2100 H2090 0.930 . S
C2100 C2099 1.400 . S
C2100 C2103 1.386 . S
H2101 C2117 0.930 . S
H2102 C2118 0.931 . S
C2103 H2091 0.929 . S
C2103 C2097 1.390 . S
C2103 C2100 1.386 . S
C2104 C2099 1.490 . S
C2104 C2106 1.395 . S
C2104 C2107 1.403 . S
H2105 C2111 0.930 . S
C2106 H2092 0.930 . S
C2106 C2104 1.395 . S
C2106 C2109 1.403 . S
C2107 C2104 1.403 . S
C2107 C2108 1.524 . S
C2107 C2111 1.400 . S
C2108 H2093 0.960 . S
C2108 H2094 0.960 . S
C2108 H2095 0.960 . S
C2108 C2107 1.524 . S
C2109 C2106 1.403 . S
C2109 C2110 1.392 . S
C2109 C2113 1.495 . S
C2110 C2109 1.392 . S
C2110 C2111 1.385 . S
C2110 C2112 1.478 . S
C2111 H2105 0.930 . S
C2111 C2107 1.400 . S
C2111 C2110 1.385 . S
C2112 C2110 1.478 . S
C2112 C2114 1.381 . S
C2112 C2118 1.383 . S
C2113 C2109 1.495 . S
C2113 H2119 0.959 . S
C2113 H2120 0.961 . S
C2113 H2121 0.960 . S
C2114 C2112 1.381 . S
C2114 C2115 1.394 . S
C2114 H2122 0.930 . S
C2115 C2114 1.394 . S
C2115 C2116 1.383 . S
C2115 H2123 0.929 . S
C2116 C2115 1.383 . S
C2116 C2117 1.377 . S
C2117 H2101 0.930 . S
C2117 C2116 1.377 . S
C2117 C2118 1.379 . S
C2118 H2102 0.931 . S
C2118 C2112 1.383 . S
C2118 C2117 1.379 . S
H2119 C2113 0.959 . S
H2120 C2113 0.961 . S
H2121 C2113 0.960 . S
H2122 C2114 0.930 . S
H2123 C2115 0.929 . S
H2124 C2132 0.929 . S
H2125 C2134 0.930 . S
H2126 C2136 0.930 . S
H2127 C2139 0.929 . S
H2128 C2142 0.930 . S
H2129 C2144 0.960 . S
H2130 C2144 0.960 . S
H2131 C2144 0.960 . S
C2132 H2124 0.929 . S
C2132 C2133 1.377 . S
C2132 C2134 1.384 . S
C2133 C2132 1.377 . S
C2133 C2139 1.390 . S
C2134 H2125 0.930 . S
C2134 C2132 1.384 . S
C2134 C2135 1.372 . S
C2135 C2134 1.372 . S
C2135 C2136 1.400 . S
C2135 C2140 1.490 . S
C2136 H2126 0.930 . S
C2136 C2135 1.400 . S
C2136 C2139 1.386 . S
H2137 C2153 0.930 . S
H2138 C2154 0.931 . S
C2139 H2127 0.929 . S
C2139 C2133 1.390 . S
C2139 C2136 1.386 . S
C2140 C2135 1.490 . S
C2140 C2142 1.395 . S
C2140 C2143 1.403 . S
H2141 C2147 0.930 . S
C2142 H2128 0.930 . S
C2142 C2140 1.395 . S
C2142 C2145 1.403 . S
C2143 C2140 1.403 . S
C2143 C2144 1.524 . S
C2143 C2147 1.400 . S
C2144 H2129 0.960 . S
C2144 H2130 0.960 . S
C2144 H2131 0.960 . S
C2144 C2143 1.524 . S
C2145 C2142 1.403 . S
C2145 C2146 1.392 . S
C2145 C2149 1.495 . S
C2146 C2145 1.392 . S
C2146 C2147 1.385 . S
C2146 C2148 1.478 . S
C2147 H2141 0.930 . S
C2147 C2143 1.400 . S
C2147 C2146 1.385 . S
C2148 C2146 1.478 . S
C2148 C2150 1.381 . S
C2148 C2154 1.383 . S
C2149 C2145 1.495 . S
C2149 H2155 0.959 . S
C2149 H2156 0.961 . S
C2149 H2157 0.960 . S
C2150 C2148 1.381 . S
C2150 C2151 1.394 . S
C2150 H2158 0.930 . S
C2151 C2150 1.394 . S
C2151 C2152 1.383 . S
C2151 H2159 0.929 . S
C2152 C2151 1.383 . S
C2152 C2153 1.377 . S
C2153 H2137 0.930 . S
C2153 C2152 1.377 . S
C2153 C2154 1.379 . S
C2154 H2138 0.931 . S
C2154 C2148 1.383 . S
C2154 C2153 1.379 . S
H2155 C2149 0.959 . S
H2156 C2149 0.961 . S
H2157 C2149 0.960 . S
H2158 C2150 0.930 . S
H2159 C2151 0.929 . S
H2160 C2168 0.929 . S
H2161 C2170 0.930 . S
H2162 C2172 0.930 . S
H2163 C2175 0.929 . S
H2164 C2178 0.930 . S
H2165 C2180 0.960 . S
H2166 C2180 0.960 . S
H2167 C2180 0.960 . S
C2168 H2160 0.929 . S
C2168 C2169 1.377 . S
C2168 C2170 1.384 . S
C2169 C2168 1.377 . S
C2169 C2175 1.390 . S
C2170 H2161 0.930 . S
C2170 C2168 1.384 . S
C2170 C2171 1.372 . S
C2171 C2170 1.372 . S
C2171 C2172 1.400 . S
C2171 C2176 1.490 . S
C2172 H2162 0.930 . S
C2172 C2171 1.400 . S
C2172 C2175 1.386 . S
H2173 C2189 0.930 . S
H2174 C2190 0.931 . S
C2175 H2163 0.929 . S
C2175 C2169 1.390 . S
C2175 C2172 1.386 . S
C2176 C2171 1.490 . S
C2176 C2178 1.395 . S
C2176 C2179 1.403 . S
H2177 C2183 0.930 . S
C2178 H2164 0.930 . S
C2178 C2176 1.395 . S
C2178 C2181 1.403 . S
C2179 C2176 1.403 . S
C2179 C2180 1.524 . S
C2179 C2183 1.400 . S
C2180 H2165 0.960 . S
C2180 H2166 0.960 . S
C2180 H2167 0.960 . S
C2180 C2179 1.524 . S
C2181 C2178 1.403 . S
C2181 C2182 1.392 . S
C2181 C2185 1.495 . S
C2182 C2181 1.392 . S
C2182 C2183 1.385 . S
C2182 C2184 1.478 . S
C2183 H2177 0.930 . S
C2183 C2179 1.400 . S
C2183 C2182 1.385 . S
C2184 C2182 1.478 . S
C2184 C2186 1.381 . S
C2184 C2190 1.383 . S
C2185 C2181 1.495 . S
C2185 H2191 0.959 . S
C2185 H2192 0.961 . S
C2185 H2193 0.960 . S
C2186 C2184 1.381 . S
C2186 C2187 1.394 . S
C2186 H2194 0.930 . S
C2187 C2186 1.394 . S
C2187 C2188 1.383 . S
C2187 H2195 0.929 . S
C2188 C2187 1.383 . S
C2188 C2189 1.377 . S
C2189 H2173 0.930 . S
C2189 C2188 1.377 . S
C2189 C2190 1.379 . S
C2190 H2174 0.931 . S
C2190 C2184 1.383 . S
C2190 C2189 1.379 . S
H2191 C2185 0.959 . S
H2192 C2185 0.961 . S
H2193 C2185 0.960 . S
H2194 C2186 0.930 . S
H2195 C2187 0.929 . S
H2196 C2204 0.929 . S
H2197 C2206 0.930 . S
H2198 C2208 0.930 . S
H2199 C2211 0.929 . S
H2200 C2214 0.930 . S
H2201 C2216 0.960 . S
H2202 C2216 0.960 . S
H2203 C2216 0.960 . S
C2204 H2196 0.929 . S
C2204 C2205 1.377 . S
C2204 C2206 1.384 . S
C2205 C2204 1.377 . S
C2205 C2211 1.390 . S
C2206 H2197 0.930 . S
C2206 C2204 1.384 . S
C2206 C2207 1.372 . S
C2207 C2206 1.372 . S
C2207 C2208 1.400 . S
C2207 C2212 1.490 . S
C2208 H2198 0.930 . S
C2208 C2207 1.400 . S
C2208 C2211 1.386 . S
H2209 C2225 0.930 . S
H2210 C2226 0.931 . S
C2211 H2199 0.929 . S
C2211 C2205 1.390 . S
C2211 C2208 1.386 . S
C2212 C2207 1.490 . S
C2212 C2214 1.395 . S
C2212 C2215 1.403 . S
H2213 C2219 0.930 . S
C2214 H2200 0.930 . S
C2214 C2212 1.395 . S
C2214 C2217 1.403 . S
C2215 C2212 1.403 . S
C2215 C2216 1.524 . S
C2215 C2219 1.400 . S
C2216 H2201 0.960 . S
C2216 H2202 0.960 . S
C2216 H2203 0.960 . S
C2216 C2215 1.524 . S
C2217 C2214 1.403 . S
C2217 C2218 1.392 . S
C2217 C2221 1.495 . S
C2218 C2217 1.392 . S
C2218 C2219 1.385 . S
C2218 C2220 1.478 . S
C2219 H2213 0.930 . S
C2219 C2215 1.400 . S
C2219 C2218 1.385 . S
C2220 C2218 1.478 . S
C2220 C2222 1.381 . S
C2220 C2226 1.383 . S
C2221 C2217 1.495 . S
C2221 H2227 0.959 . S
C2221 H2228 0.961 . S
C2221 H2229 0.960 . S
C2222 C2220 1.381 . S
C2222 C2223 1.394 . S
C2222 H2230 0.930 . S
C2223 C2222 1.394 . S
C2223 C2224 1.383 . S
C2223 H2231 0.929 . S
C2224 C2223 1.383 . S
C2224 C2225 1.377 . S
C2225 H2209 0.930 . S
C2225 C2224 1.377 . S
C2225 C2226 1.379 . S
C2226 H2210 0.931 . S
C2226 C2220 1.383 . S
C2226 C2225 1.379 . S
H2227 C2221 0.959 . S
H2228 C2221 0.961 . S
H2229 C2221 0.960 . S
H2230 C2222 0.930 . S
H2231 C2223 0.929 . S
H2232 C2240 0.929 . S
H2233 C2242 0.930 . S
H2234 C2244 0.930 . S
H2235 C2247 0.929 . S
H2236 C2250 0.930 . S
H2237 C2252 0.960 . S
H2238 C2252 0.960 . S
H2239 C2252 0.960 . S
C2240 H2232 0.929 . S
C2240 C2241 1.377 . S
C2240 C2242 1.384 . S
C2241 C2240 1.377 . S
C2241 C2247 1.390 . S
C2242 H2233 0.930 . S
C2242 C2240 1.384 . S
C2242 C2243 1.372 . S
C2243 C2242 1.372 . S
C2243 C2244 1.400 . S
C2243 C2248 1.490 1_565 S
C2244 H2234 0.930 . S
C2244 C2243 1.400 . S
C2244 C2247 1.386 . S
H2245 C2261 0.930 . S
H2246 C2262 0.931 . S
C2247 H2235 0.929 . S
C2247 C2241 1.390 . S
C2247 C2244 1.386 . S
C2248 C2243 1.490 1_545 S
C2248 C2250 1.395 . S
C2248 C2251 1.403 . S
H2249 C2255 0.930 . S
C2250 H2236 0.930 . S
C2250 C2248 1.395 . S
C2250 C2253 1.403 . S
C2251 C2248 1.403 . S
C2251 C2252 1.524 . S
C2251 C2255 1.400 . S
C2252 H2237 0.960 . S
C2252 H2238 0.960 . S
C2252 H2239 0.960 . S
C2252 C2251 1.524 . S
C2253 C2250 1.403 . S
C2253 C2254 1.392 . S
C2253 C2257 1.495 . S
C2254 C2253 1.392 . S
C2254 C2255 1.385 . S
C2254 C2256 1.478 . S
C2255 H2249 0.930 . S
C2255 C2251 1.400 . S
C2255 C2254 1.385 . S
C2256 C2254 1.478 . S
C2256 C2258 1.381 . S
C2256 C2262 1.383 . S
C2257 C2253 1.495 . S
C2257 H2263 0.959 . S
C2257 H2264 0.961 . S
C2257 H2265 0.960 . S
C2258 C2256 1.381 . S
C2258 C2259 1.394 . S
C2258 H2266 0.930 . S
C2259 C2258 1.394 . S
C2259 C2260 1.383 . S
C2259 H2267 0.929 . S
C2260 C2259 1.383 . S
C2260 C2261 1.377 . S
C2261 H2245 0.930 . S
C2261 C2260 1.377 . S
C2261 C2262 1.379 . S
C2262 H2246 0.931 . S
C2262 C2256 1.383 . S
C2262 C2261 1.379 . S
H2263 C2257 0.959 . S
H2264 C2257 0.961 . S
H2265 C2257 0.960 . S
H2266 C2258 0.930 . S
H2267 C2259 0.929 . S
H2268 C2276 0.929 . S
H2269 C2278 0.930 . S
H2270 C2280 0.930 1_655 S
H2271 C2283 0.929 . S
H2272 C2286 0.930 . S
H2273 C2288 0.960 . S
H2274 C2288 0.960 1_455 S
H2275 C2288 0.960 . S
C2276 H2268 0.929 . S
C2276 C2277 1.377 . S
C2276 C2278 1.384 . S
C2277 C2276 1.377 . S
C2277 C2283 1.390 . S
C2278 H2269 0.930 . S
C2278 C2276 1.384 . S
C2278 C2279 1.372 . S
C2279 C2278 1.372 . S
C2279 C2280 1.400 . S
C2279 C2284 1.490 1_455 S
C2280 H2270 0.930 1_455 S
C2280 C2279 1.400 . S
C2280 C2283 1.386 . S
H2281 C2297 0.930 . S
H2282 C2298 0.931 . S
C2283 H2271 0.929 . S
C2283 C2277 1.390 . S
C2283 C2280 1.386 . S
C2284 C2279 1.490 1_655 S
C2284 C2286 1.395 . S
C2284 C2287 1.403 . S
H2285 C2291 0.930 . S
C2286 H2272 0.930 . S
C2286 C2284 1.395 . S
C2286 C2289 1.403 . S
C2287 C2284 1.403 . S
C2287 C2288 1.524 . S
C2287 C2291 1.400 . S
C2288 H2273 0.960 . S
C2288 H2274 0.960 1_655 S
C2288 H2275 0.960 . S
C2288 C2287 1.524 . S
C2289 C2286 1.403 . S
C2289 C2290 1.392 . S
C2289 C2293 1.495 . S
C2290 C2289 1.392 . S
C2290 C2291 1.385 . S
C2290 C2292 1.478 . S
C2291 H2285 0.930 . S
C2291 C2287 1.400 . S
C2291 C2290 1.385 . S
C2292 C2290 1.478 . S
C2292 C2294 1.381 . S
C2292 C2298 1.383 . S
C2293 C2289 1.495 . S
C2293 H2299 0.959 . S
C2293 H2300 0.961 . S
C2293 H2301 0.960 . S
C2294 C2292 1.381 . S
C2294 C2295 1.394 . S
C2294 H2302 0.930 . S
C2295 C2294 1.394 . S
C2295 C2296 1.383 . S
C2295 H2303 0.929 . S
C2296 C2295 1.383 . S
C2296 C2297 1.377 . S
C2297 H2281 0.930 . S
C2297 C2296 1.377 . S
C2297 C2298 1.379 . S
C2298 H2282 0.931 . S
C2298 C2292 1.383 . S
C2298 C2297 1.379 . S
H2299 C2293 0.959 . S
H2300 C2293 0.961 . S
H2301 C2293 0.960 . S
H2302 C2294 0.930 . S
H2303 C2295 0.929 . S
H2304 C2312 0.929 . S
H2305 C2314 0.930 . S
H2306 C2316 0.930 . S
H2307 C2319 0.929 . S
H2308 C2322 0.930 . S
H2309 C2324 0.960 . S
H2310 C2324 0.960 . S
H2311 C2324 0.960 . S
C2312 H2304 0.929 . S
C2312 C2313 1.377 . S
C2312 C2314 1.384 . S
C2313 C2312 1.377 . S
C2313 C2319 1.390 . S
C2314 H2305 0.930 . S
C2314 C2312 1.384 . S
C2314 C2315 1.372 . S
C2315 C2314 1.372 . S
C2315 C2316 1.400 . S
C2315 C2320 1.490 . S
C2316 H2306 0.930 . S
C2316 C2315 1.400 . S
C2316 C2319 1.386 . S
H2317 C2333 0.930 . S
H2318 C2334 0.931 . S
C2319 H2307 0.929 . S
C2319 C2313 1.390 . S
C2319 C2316 1.386 . S
C2320 C2315 1.490 . S
C2320 C2322 1.395 . S
C2320 C2323 1.403 . S
H2321 C2327 0.930 . S
C2322 H2308 0.930 . S
C2322 C2320 1.395 . S
C2322 C2325 1.403 . S
C2323 C2320 1.403 . S
C2323 C2324 1.524 . S
C2323 C2327 1.400 . S
C2324 H2309 0.960 . S
C2324 H2310 0.960 . S
C2324 H2311 0.960 . S
C2324 C2323 1.524 . S
C2325 C2322 1.403 . S
C2325 C2326 1.392 . S
C2325 C2329 1.495 . S
C2326 C2325 1.392 . S
C2326 C2327 1.385 . S
C2326 C2328 1.478 . S
C2327 H2321 0.930 . S
C2327 C2323 1.400 . S
C2327 C2326 1.385 . S
C2328 C2326 1.478 . S
C2328 C2330 1.381 . S
C2328 C2334 1.383 . S
C2329 C2325 1.495 . S
C2329 H2335 0.959 . S
C2329 H2336 0.961 . S
C2329 H2337 0.960 . S
C2330 C2328 1.381 . S
C2330 C2331 1.394 . S
C2330 H2338 0.930 . S
C2331 C2330 1.394 . S
C2331 C2332 1.383 . S
C2331 H2339 0.929 . S
C2332 C2331 1.383 . S
C2332 C2333 1.377 . S
C2333 H2317 0.930 . S
C2333 C2332 1.377 . S
C2333 C2334 1.379 . S
C2334 H2318 0.931 . S
C2334 C2328 1.383 . S
C2334 C2333 1.379 . S
H2335 C2329 0.959 . S
H2336 C2329 0.961 . S
H2337 C2329 0.960 . S
H2338 C2330 0.930 . S
H2339 C2331 0.929 . S
H2340 C2348 0.929 . S
H2341 C2350 0.930 . S
H2342 C2352 0.930 . S
H2343 C2355 0.929 . S
H2344 C2358 0.930 . S
H2345 C2360 0.940 1_655 S
H2346 C2360 0.960 . S
H2347 C2360 0.960 . S
C2348 H2340 0.929 . S
C2348 C2349 1.377 . S
C2348 C2350 1.384 . S
C2349 C2348 1.377 . S
C2349 C2355 1.390 . S
C2350 H2341 0.930 . S
C2350 C2348 1.384 . S
C2350 C2351 1.372 . S
C2351 C2350 1.372 . S
C2351 C2352 1.400 . S
C2351 C2356 1.490 1_455 S
C2352 H2342 0.930 . S
C2352 C2351 1.400 . S
C2352 C2355 1.386 . S
H2353 C2369 0.930 . S
H2354 C2370 0.931 . S
C2355 H2343 0.929 . S
C2355 C2349 1.390 . S
C2355 C2352 1.386 . S
C2356 C2351 1.490 1_655 S
C2356 C2358 1.395 . S
C2356 C2359 1.403 . S
H2357 C2363 0.930 . S
C2358 H2344 0.930 . S
C2358 C2356 1.395 . S
C2358 C2361 1.403 . S
C2359 C2356 1.403 . S
C2359 C2360 1.524 1_655 S
C2359 C2363 1.400 . S
C2360 H2345 0.940 1_455 S
C2360 H2346 0.960 . S
C2360 H2347 0.960 . S
C2360 C2359 1.524 1_455 S
C2361 C2358 1.403 . S
C2361 C2362 1.392 . S
C2361 C2365 1.495 . S
C2362 C2361 1.392 . S
C2362 C2363 1.385 . S
C2362 C2364 1.478 . S
C2363 H2357 0.930 . S
C2363 C2359 1.400 . S
C2363 C2362 1.385 . S
C2364 C2362 1.478 . S
C2364 C2366 1.381 . S
C2364 C2370 1.383 . S
C2365 C2361 1.495 . S
C2365 H2371 0.959 . S
C2365 H2372 0.961 . S
C2365 H2373 0.960 . S
C2366 C2364 1.381 . S
C2366 C2367 1.394 . S
C2366 H2374 0.930 . S
C2367 C2366 1.394 . S
C2367 C2368 1.383 . S
C2367 H2375 0.929 . S
C2368 C2367 1.383 . S
C2368 C2369 1.377 . S
C2369 H2353 0.930 . S
C2369 C2368 1.377 . S
C2369 C2370 1.379 . S
C2370 H2354 0.931 . S
C2370 C2364 1.383 . S
C2370 C2369 1.379 . S
H2371 C2365 0.959 . S
H2372 C2365 0.961 . S
H2373 C2365 0.960 . S
H2374 C2366 0.930 . S
H2375 C2367 0.929 . S
H2376 C2384 0.929 . S
H2377 C2386 0.930 . S
H2378 C2388 0.930 . S
H2379 C2391 0.929 . S
H2380 C2394 0.930 . S
H2381 C2396 0.960 . S
H2382 C2396 0.960 . S
H2383 C2396 0.960 . S
C2384 H2376 0.929 . S
C2384 C2385 1.377 . S
C2384 C2386 1.384 . S
C2385 C2384 1.377 . S
C2385 C2391 1.390 . S
C2386 H2377 0.930 . S
C2386 C2384 1.384 . S
C2386 C2387 1.372 . S
C2387 C2386 1.372 . S
C2387 C2388 1.400 . S
C2387 C2392 1.490 . S
C2388 H2378 0.930 . S
C2388 C2387 1.400 . S
C2388 C2391 1.386 . S
H2389 C2405 0.930 . S
H2390 C2406 0.931 . S
C2391 H2379 0.929 . S
C2391 C2385 1.390 . S
C2391 C2388 1.386 . S
C2392 C2387 1.490 . S
C2392 C2394 1.395 . S
C2392 C2395 1.403 . S
H2393 C2399 0.930 . S
C2394 H2380 0.930 . S
C2394 C2392 1.395 . S
C2394 C2397 1.403 . S
C2395 C2392 1.403 . S
C2395 C2396 1.524 . S
C2395 C2399 1.400 . S
C2396 H2381 0.960 . S
C2396 H2382 0.960 . S
C2396 H2383 0.960 . S
C2396 C2395 1.524 . S
C2397 C2394 1.403 . S
C2397 C2398 1.392 . S
C2397 C2401 1.495 . S
C2398 C2397 1.392 . S
C2398 C2399 1.385 . S
C2398 C2400 1.478 . S
C2399 H2393 0.930 . S
C2399 C2395 1.400 . S
C2399 C2398 1.385 . S
C2400 C2398 1.478 . S
C2400 C2402 1.381 . S
C2400 C2406 1.383 . S
C2401 C2397 1.495 . S
C2401 H2407 0.959 . S
C2401 H2408 0.961 . S
C2401 H2409 0.960 . S
C2402 C2400 1.381 . S
C2402 C2403 1.394 . S
C2402 H2410 0.930 . S
C2403 C2402 1.394 . S
C2403 C2404 1.383 . S
C2403 H2411 0.929 . S
C2404 C2403 1.383 . S
C2404 C2405 1.377 . S
C2405 H2389 0.930 . S
C2405 C2404 1.377 . S
C2405 C2406 1.379 . S
C2406 H2390 0.931 . S
C2406 C2400 1.383 . S
C2406 C2405 1.379 . S
H2407 C2401 0.959 . S
H2408 C2401 0.961 . S
H2409 C2401 0.960 . S
H2410 C2402 0.930 . S
H2411 C2403 0.929 . S
H2412 C2420 0.929 . S
H2413 C2422 0.930 . S
H2414 C2424 0.930 . S
H2415 C2427 0.929 . S
H2416 C2430 0.930 . S
H2417 C2432 0.960 . S
H2418 C2432 0.960 . S
H2419 C2432 0.960 . S
C2420 H2412 0.929 . S
C2420 C2421 1.377 . S
C2420 C2422 1.384 . S
C2421 C2420 1.377 . S
C2421 C2427 1.390 . S
C2422 H2413 0.930 . S
C2422 C2420 1.384 . S
C2422 C2423 1.372 . S
C2423 C2422 1.372 . S
C2423 C2424 1.400 . S
C2423 C2428 1.490 1_565 S
C2424 H2414 0.930 . S
C2424 C2423 1.400 . S
C2424 C2427 1.386 . S
H2425 C2441 0.930 . S
H2426 C2442 0.931 . S
C2427 H2415 0.929 . S
C2427 C2421 1.390 . S
C2427 C2424 1.386 . S
C2428 C2423 1.490 1_545 S
C2428 C2430 1.395 . S
C2428 C2431 1.403 . S
H2429 C2435 0.930 . S
C2430 H2416 0.930 . S
C2430 C2428 1.395 . S
C2430 C2433 1.403 . S
C2431 C2428 1.403 . S
C2431 C2432 1.524 . S
C2431 C2435 1.400 . S
C2432 H2417 0.960 . S
C2432 H2418 0.960 . S
C2432 H2419 0.960 . S
C2432 C2431 1.524 . S
C2433 C2430 1.403 . S
C2433 C2434 1.392 . S
C2433 C2437 1.495 . S
C2434 C2433 1.392 . S
C2434 C2435 1.385 . S
C2434 C2436 1.478 . S
C2435 H2429 0.930 . S
C2435 C2431 1.400 . S
C2435 C2434 1.385 . S
C2436 C2434 1.478 . S
C2436 C2438 1.381 . S
C2436 C2442 1.383 . S
C2437 C2433 1.495 . S
C2437 H2443 0.959 . S
C2437 H2444 0.961 . S
C2437 H2445 0.960 . S
C2438 C2436 1.381 . S
C2438 C2439 1.394 . S
C2438 H2446 0.930 . S
C2439 C2438 1.394 . S
C2439 C2440 1.383 . S
C2439 H2447 0.929 . S
C2440 C2439 1.383 . S
C2440 C2441 1.377 . S
C2441 H2425 0.930 . S
C2441 C2440 1.377 . S
C2441 C2442 1.379 . S
C2442 H2426 0.931 . S
C2442 C2436 1.383 . S
C2442 C2441 1.379 . S
H2443 C2437 0.959 . S
H2444 C2437 0.961 . S
H2445 C2437 0.960 . S
H2446 C2438 0.930 . S
H2447 C2439 0.929 . S
H2448 C2456 0.929 . S
H2449 C2458 0.930 . S
H2450 C2460 0.930 . S
H2451 C2463 0.929 . S
H2452 C2466 0.930 . S
H2453 C2468 0.960 . S
H2454 C2468 0.960 . S
H2455 C2468 0.960 . S
C2456 H2448 0.929 . S
C2456 C2457 1.377 . S
C2456 C2458 1.384 . S
C2457 C2456 1.377 . S
C2457 C2463 1.390 . S
C2458 H2449 0.930 . S
C2458 C2456 1.384 . S
C2458 C2459 1.372 . S
C2459 C2458 1.372 . S
C2459 C2460 1.400 . S
C2459 C2464 1.490 . S
C2460 H2450 0.930 . S
C2460 C2459 1.400 . S
C2460 C2463 1.386 . S
H2461 C2477 0.930 . S
H2462 C2478 0.931 . S
C2463 H2451 0.929 . S
C2463 C2457 1.390 . S
C2463 C2460 1.386 . S
C2464 C2459 1.490 . S
C2464 C2466 1.395 . S
C2464 C2467 1.403 . S
H2465 C2471 0.930 . S
C2466 H2452 0.930 . S
C2466 C2464 1.395 . S
C2466 C2469 1.403 . S
C2467 C2464 1.403 . S
C2467 C2468 1.524 . S
C2467 C2471 1.400 . S
C2468 H2453 0.960 . S
C2468 H2454 0.960 . S
C2468 H2455 0.960 . S
C2468 C2467 1.524 . S
C2469 C2466 1.403 . S
C2469 C2470 1.392 . S
C2469 C2473 1.495 . S
C2470 C2469 1.392 . S
C2470 C2471 1.385 . S
C2470 C2472 1.478 . S
C2471 H2465 0.930 . S
C2471 C2467 1.400 . S
C2471 C2470 1.385 . S
C2472 C2470 1.478 . S
C2472 C2474 1.381 . S
C2472 C2478 1.383 . S
C2473 C2469 1.495 . S
C2473 H2479 0.959 . S
C2473 H2480 0.961 . S
C2473 H2481 0.960 . S
C2474 C2472 1.381 . S
C2474 C2475 1.394 . S
C2474 H2482 0.930 . S
C2475 C2474 1.394 . S
C2475 C2476 1.383 . S
C2475 H2483 0.929 . S
C2476 C2475 1.383 . S
C2476 C2477 1.377 . S
C2477 H2461 0.930 . S
C2477 C2476 1.377 . S
C2477 C2478 1.379 . S
C2478 H2462 0.931 . S
C2478 C2472 1.383 . S
C2478 C2477 1.379 . S
H2479 C2473 0.959 . S
H2480 C2473 0.961 . S
H2481 C2473 0.960 . S
H2482 C2474 0.930 . S
H2483 C2475 0.929 . S
H2484 C2492 0.929 . S
H2485 C2494 0.930 . S
H2486 C2496 0.930 . S
H2487 C2499 0.929 . S
H2488 C2502 0.930 . S
H2489 C2504 0.960 . S
H2490 C2504 0.960 . S
H2491 C2504 0.960 . S
C2492 H2484 0.929 . S
C2492 C2493 1.377 . S
C2492 C2494 1.384 . S
C2493 C2492 1.377 . S
C2493 C2499 1.390 . S
C2494 H2485 0.930 . S
C2494 C2492 1.384 . S
C2494 C2495 1.372 . S
C2495 C2494 1.372 . S
C2495 C2496 1.400 . S
C2495 C2500 1.490 . S
C2496 H2486 0.930 . S
C2496 C2495 1.400 . S
C2496 C2499 1.386 . S
H2497 C2513 0.930 . S
H2498 C2514 0.931 . S
C2499 H2487 0.929 . S
C2499 C2493 1.390 . S
C2499 C2496 1.386 . S
C2500 C2495 1.490 . S
C2500 C2502 1.395 . S
C2500 C2503 1.403 . S
H2501 C2507 0.930 . S
C2502 H2488 0.930 . S
C2502 C2500 1.395 . S
C2502 C2505 1.403 . S
C2503 C2500 1.403 . S
C2503 C2504 1.524 . S
C2503 C2507 1.400 . S
C2504 H2489 0.960 . S
C2504 H2490 0.960 . S
C2504 H2491 0.960 . S
C2504 C2503 1.524 . S
C2505 C2502 1.403 . S
C2505 C2506 1.392 . S
C2505 C2509 1.495 . S
C2506 C2505 1.392 . S
C2506 C2507 1.385 . S
C2506 C2508 1.478 . S
C2507 H2501 0.930 . S
C2507 C2503 1.400 . S
C2507 C2506 1.385 . S
C2508 C2506 1.478 . S
C2508 C2510 1.381 . S
C2508 C2514 1.383 . S
C2509 C2505 1.495 . S
C2509 H2515 0.959 . S
C2509 H2516 0.961 . S
C2509 H2517 0.960 . S
C2510 C2508 1.381 . S
C2510 C2511 1.394 . S
C2510 H2518 0.930 . S
C2511 C2510 1.394 . S
C2511 C2512 1.383 . S
C2511 H2519 0.929 . S
C2512 C2511 1.383 . S
C2512 C2513 1.377 . S
C2513 H2497 0.930 . S
C2513 C2512 1.377 . S
C2513 C2514 1.379 . S
C2514 H2498 0.931 . S
C2514 C2508 1.383 . S
C2514 C2513 1.379 . S
H2515 C2509 0.959 . S
H2516 C2509 0.961 . S
H2517 C2509 0.960 . S
H2518 C2510 0.930 . S
H2519 C2511 0.929 . S
H2520 C2528 0.929 . S
H2521 C2530 0.930 . S
H2522 C2532 0.930 . S
H2523 C2535 0.929 . S
H2524 C2538 0.930 . S
H2525 C2540 0.960 . S
H2526 C2540 0.960 . S
H2527 C2540 0.960 . S
C2528 H2520 0.929 . S
C2528 C2529 1.377 . S
C2528 C2530 1.384 . S
C2529 C2528 1.377 . S
C2529 C2535 1.390 . S
C2530 H2521 0.930 . S
C2530 C2528 1.384 . S
C2530 C2531 1.372 . S
C2531 C2530 1.372 . S
C2531 C2532 1.400 . S
C2531 C2536 1.490 . S
C2532 H2522 0.930 . S
C2532 C2531 1.400 . S
C2532 C2535 1.386 . S
H2533 C2549 0.930 . S
H2534 C2550 0.931 . S
C2535 H2523 0.929 . S
C2535 C2529 1.390 . S
C2535 C2532 1.386 . S
C2536 C2531 1.490 . S
C2536 C2538 1.395 . S
C2536 C2539 1.403 . S
H2537 C2543 0.930 . S
C2538 H2524 0.930 . S
C2538 C2536 1.395 . S
C2538 C2541 1.403 . S
C2539 C2536 1.403 . S
C2539 C2540 1.524 . S
C2539 C2543 1.400 . S
C2540 H2525 0.960 . S
C2540 H2526 0.960 . S
C2540 H2527 0.960 . S
C2540 C2539 1.524 . S
C2541 C2538 1.403 . S
C2541 C2542 1.392 . S
C2541 C2545 1.495 . S
C2542 C2541 1.392 . S
C2542 C2543 1.385 . S
C2542 C2544 1.478 . S
C2543 H2537 0.930 . S
C2543 C2539 1.400 . S
C2543 C2542 1.385 . S
C2544 C2542 1.478 . S
C2544 C2546 1.381 . S
C2544 C2550 1.383 . S
C2545 C2541 1.495 . S
C2545 H2551 0.959 . S
C2545 H2552 0.961 . S
C2545 H2553 0.960 . S
C2546 C2544 1.381 . S
C2546 C2547 1.394 . S
C2546 H2554 0.930 . S
C2547 C2546 1.394 . S
C2547 C2548 1.383 . S
C2547 H2555 0.929 . S
C2548 C2547 1.383 . S
C2548 C2549 1.377 . S
C2549 H2533 0.930 . S
C2549 C2548 1.377 . S
C2549 C2550 1.379 . S
C2550 H2534 0.931 . S
C2550 C2544 1.383 . S
C2550 C2549 1.379 . S
H2551 C2545 0.959 . S
H2552 C2545 0.961 . S
H2553 C2545 0.960 . S
H2554 C2546 0.930 . S
H2555 C2547 0.929 . S
H2556 C2564 0.929 . S
H2557 C2566 0.930 . S
H2558 C2568 0.930 . S
H2559 C2571 0.929 . S
H2560 C2574 0.930 . S
H2561 C2576 0.960 . S
H2562 C2576 0.960 . S
H2563 C2576 0.960 . S
C2564 H2556 0.929 . S
C2564 C2565 1.377 . S
C2564 C2566 1.384 . S
C2565 C2564 1.377 . S
C2565 C2571 1.390 . S
C2566 H2557 0.930 . S
C2566 C2564 1.384 . S
C2566 C2567 1.372 . S
C2567 C2566 1.372 . S
C2567 C2568 1.400 . S
C2567 C2572 1.490 . S
C2568 H2558 0.930 . S
C2568 C2567 1.400 . S
C2568 C2571 1.386 . S
H2569 C2585 0.930 . S
H2570 C2586 0.934 1_545 S
C2571 H2559 0.929 . S
C2571 C2565 1.390 . S
C2571 C2568 1.386 . S
C2572 C2567 1.490 . S
C2572 C2574 1.395 . S
C2572 C2575 1.403 . S
H2573 C2579 0.930 . S
C2574 H2560 0.930 . S
C2574 C2572 1.395 . S
C2574 C2577 1.403 . S
C2575 C2572 1.403 . S
C2575 C2576 1.524 . S
C2575 C2579 1.400 . S
C2576 H2561 0.960 . S
C2576 H2562 0.960 . S
C2576 H2563 0.960 . S
C2576 C2575 1.524 . S
C2577 C2574 1.403 . S
C2577 C2578 1.392 . S
C2577 C2581 1.495 1_565 S
C2578 C2577 1.392 . S
C2578 C2579 1.385 . S
C2578 C2580 1.478 . S
C2579 H2573 0.930 . S
C2579 C2575 1.400 . S
C2579 C2578 1.385 . S
C2580 C2578 1.478 . S
C2580 C2582 1.381 . S
C2580 C2586 1.383 . S
C2581 C2577 1.495 1_545 S
C2581 H2587 0.959 . S
C2581 H2588 0.961 . S
C2581 H2589 0.960 1_545 S
C2582 C2580 1.381 . S
C2582 C2583 1.394 . S
C2582 H2590 0.930 . S
C2583 C2582 1.394 . S
C2583 C2584 1.383 . S
C2583 H2591 0.929 . S
C2584 C2583 1.383 . S
C2584 C2585 1.377 1_565 S
C2585 H2569 0.930 . S
C2585 C2584 1.377 1_545 S
C2585 C2586 1.379 1_545 S
C2586 H2570 0.934 1_565 S
C2586 C2580 1.383 . S
C2586 C2585 1.379 1_565 S
H2587 C2581 0.959 . S
H2588 C2581 0.961 . S
H2589 C2581 0.960 1_565 S
H2590 C2582 0.930 . S
H2591 C2583 0.929 . S
H2592 C2600 0.929 . S
H2593 C2602 0.930 . S
H2594 C2604 0.930 . S
H2595 C2607 0.929 . S
H2596 C2610 0.930 . S
H2597 C2612 0.960 . S
H2598 C2612 0.960 . S
H2599 C2612 0.960 . S
C2600 H2592 0.929 . S
C2600 C2601 1.377 . S
C2600 C2602 1.384 . S
C2601 C2600 1.377 . S
C2601 C2607 1.390 . S
C2602 H2593 0.930 . S
C2602 C2600 1.384 . S
C2602 C2603 1.372 . S
C2603 C2602 1.372 . S
C2603 C2604 1.400 . S
C2603 C2608 1.490 . S
C2604 H2594 0.930 . S
C2604 C2603 1.400 . S
C2604 C2607 1.386 . S
H2605 C2621 0.930 . S
H2606 C2622 0.931 . S
C2607 H2595 0.929 . S
C2607 C2601 1.390 . S
C2607 C2604 1.386 . S
C2608 C2603 1.490 . S
C2608 C2610 1.395 . S
C2608 C2611 1.403 . S
H2609 C2615 0.930 1_655 S
C2610 H2596 0.930 . S
C2610 C2608 1.395 . S
C2610 C2613 1.403 . S
C2611 C2608 1.403 . S
C2611 C2612 1.524 1_455 S
C2611 C2615 1.400 . S
C2612 H2597 0.960 . S
C2612 H2598 0.960 . S
C2612 H2599 0.960 . S
C2612 C2611 1.524 1_655 S
C2613 C2610 1.403 . S
C2613 C2614 1.392 . S
C2613 C2617 1.495 . S
C2614 C2613 1.392 . S
C2614 C2615 1.385 . S
C2614 C2616 1.478 . S
C2615 H2609 0.930 1_455 S
C2615 C2611 1.400 . S
C2615 C2614 1.385 . S
C2616 C2614 1.478 . S
C2616 C2618 1.381 . S
C2616 C2622 1.383 . S
C2617 C2613 1.495 . S
C2617 H2623 0.959 . S
C2617 H2624 0.961 . S
C2617 H2625 0.960 . S
C2618 C2616 1.381 . S
C2618 C2619 1.394 . S
C2618 H2626 0.930 . S
C2619 C2618 1.394 . S
C2619 C2620 1.383 . S
C2619 H2627 0.929 . S
C2620 C2619 1.383 . S
C2620 C2621 1.377 . S
C2621 H2605 0.930 . S
C2621 C2620 1.377 . S
C2621 C2622 1.379 . S
C2622 H2606 0.931 . S
C2622 C2616 1.383 . S
C2622 C2621 1.379 . S
H2623 C2617 0.959 . S
H2624 C2617 0.961 . S
H2625 C2617 0.960 . S
H2626 C2618 0.930 . S
H2627 C2619 0.929 . S
H2628 C2636 0.929 . S
H2629 C2638 0.930 . S
H2630 C2640 0.930 . S
H2631 C2643 0.929 . S
H2632 C2646 0.930 . S
H2633 C2648 0.960 . S
H2634 C2648 0.960 . S
H2635 C2648 0.960 . S
C2636 H2628 0.929 . S
C2636 C2637 1.377 . S
C2636 C2638 1.384 . S
C2637 C2636 1.377 . S
C2637 C2643 1.390 . S
C2638 H2629 0.930 . S
C2638 C2636 1.384 . S
C2638 C2639 1.372 . S
C2639 C2638 1.372 . S
C2639 C2640 1.400 . S
C2639 C2644 1.490 . S
C2640 H2630 0.930 . S
C2640 C2639 1.400 . S
C2640 C2643 1.386 . S
H2641 C2657 0.930 . S
H2642 C2658 0.931 . S
C2643 H2631 0.929 . S
C2643 C2637 1.390 . S
C2643 C2640 1.386 . S
C2644 C2639 1.490 . S
C2644 C2646 1.395 . S
C2644 C2647 1.403 . S
H2645 C2651 0.930 . S
C2646 H2632 0.930 . S
C2646 C2644 1.395 . S
C2646 C2649 1.403 . S
C2647 C2644 1.403 . S
C2647 C2648 1.524 . S
C2647 C2651 1.400 . S
C2648 H2633 0.960 . S
C2648 H2634 0.960 . S
C2648 H2635 0.960 . S
C2648 C2647 1.524 . S
C2649 C2646 1.403 . S
C2649 C2650 1.392 . S
C2649 C2653 1.495 . S
C2650 C2649 1.392 . S
C2650 C2651 1.385 . S
C2650 C2652 1.478 . S
C2651 H2645 0.930 . S
C2651 C2647 1.400 . S
C2651 C2650 1.385 . S
C2652 C2650 1.478 . S
C2652 C2654 1.381 . S
C2652 C2658 1.383 . S
C2653 C2649 1.495 . S
C2653 H2659 0.959 . S
C2653 H2660 0.961 . S
C2653 H2661 0.960 . S
C2654 C2652 1.381 . S
C2654 C2655 1.394 . S
C2654 H2662 0.930 . S
C2655 C2654 1.394 . S
C2655 C2656 1.383 . S
C2655 H2663 0.929 . S
C2656 C2655 1.383 . S
C2656 C2657 1.377 . S
C2657 H2641 0.930 . S
C2657 C2656 1.377 . S
C2657 C2658 1.379 . S
C2658 H2642 0.931 . S
C2658 C2652 1.383 . S
C2658 C2657 1.379 . S
H2659 C2653 0.959 . S
H2660 C2653 0.961 . S
H2661 C2653 0.960 . S
H2662 C2654 0.930 . S
H2663 C2655 0.929 . S
H2664 C2672 0.929 . S
H2665 C2674 0.930 . S
H2666 C2676 0.930 . S
H2667 C2679 0.929 . S
H2668 C2682 0.930 . S
H2669 C2684 0.960 . S
H2670 C2684 0.960 1_455 S
H2671 C2684 0.960 . S
C2672 H2664 0.929 . S
C2672 C2673 1.377 . S
C2672 C2674 1.384 . S
C2673 C2672 1.377 . S
C2673 C2679 1.390 . S
C2674 H2665 0.930 . S
C2674 C2672 1.384 . S
C2674 C2675 1.372 . S
C2675 C2674 1.372 . S
C2675 C2676 1.400 . S
C2675 C2680 1.490 . S
C2676 H2666 0.930 . S
C2676 C2675 1.400 . S
C2676 C2679 1.386 . S
H2677 C2693 0.930 . S
H2678 C2694 0.931 . S
C2679 H2667 0.929 . S
C2679 C2673 1.390 . S
C2679 C2676 1.386 . S
C2680 C2675 1.490 . S
C2680 C2682 1.395 . S
C2680 C2683 1.403 . S
H2681 C2687 0.930 . S
C2682 H2668 0.930 . S
C2682 C2680 1.395 . S
C2682 C2685 1.403 . S
C2683 C2680 1.403 . S
C2683 C2684 1.524 . S
C2683 C2687 1.400 . S
C2684 H2669 0.960 . S
C2684 H2670 0.960 1_655 S
C2684 H2671 0.960 . S
C2684 C2683 1.524 . S
C2685 C2682 1.403 . S
C2685 C2686 1.392 . S
C2685 C2689 1.495 . S
C2686 C2685 1.392 . S
C2686 C2687 1.385 . S
C2686 C2688 1.478 . S
C2687 H2681 0.930 . S
C2687 C2683 1.400 . S
C2687 C2686 1.385 . S
C2688 C2686 1.478 . S
C2688 C2690 1.395 . S
C2688 C2694 1.383 . S
C2689 C2685 1.495 . S
C2689 H2695 0.959 . S
C2689 H2696 0.961 . S
C2689 H2697 0.960 . S
C2690 C2688 1.395 . S
C2690 C2691 1.389 1_655 S
C2690 H2698 0.923 1_655 S
C2691 C2690 1.389 1_455 S
C2691 C2692 1.383 1_455 S
C2691 H2699 0.929 . S
C2692 C2691 1.383 1_655 S
C2692 C2693 1.377 . S
C2693 H2677 0.930 . S
C2693 C2692 1.377 . S
C2693 C2694 1.379 . S
C2694 H2678 0.931 . S
C2694 C2688 1.383 . S
C2694 C2693 1.379 . S
H2695 C2689 0.959 . S
H2696 C2689 0.961 . S
H2697 C2689 0.960 . S
H2698 C2690 0.923 1_455 S
H2699 C2691 0.929 . S
H2700 C2708 0.929 . S
H2701 C2710 0.930 . S
H2702 C2712 0.930 . S
H2703 C2715 0.929 . S
H2704 C2718 0.930 . S
H2705 C2720 0.960 . S
H2706 C2720 0.960 . S
H2707 C2720 0.960 . S
C2708 H2700 0.929 . S
C2708 C2709 1.377 . S
C2708 C2710 1.384 . S
C2709 C2708 1.377 . S
C2709 C2715 1.390 . S
C2710 H2701 0.930 . S
C2710 C2708 1.384 . S
C2710 C2711 1.372 . S
C2711 C2710 1.372 . S
C2711 C2712 1.400 . S
C2711 C2716 1.490 . S
C2712 H2702 0.930 . S
C2712 C2711 1.400 . S
C2712 C2715 1.386 . S
H2713 C2729 0.930 . S
H2714 C2730 0.931 . S
C2715 H2703 0.929 . S
C2715 C2709 1.390 . S
C2715 C2712 1.386 . S
C2716 C2711 1.490 . S
C2716 C2718 1.395 . S
C2716 C2719 1.403 . S
H2717 C2723 0.930 . S
C2718 H2704 0.930 . S
C2718 C2716 1.395 . S
C2718 C2721 1.403 . S
C2719 C2716 1.403 . S
C2719 C2720 1.524 . S
C2719 C2723 1.400 . S
C2720 H2705 0.960 . S
C2720 H2706 0.960 . S
C2720 H2707 0.960 . S
C2720 C2719 1.524 . S
C2721 C2718 1.403 . S
C2721 C2722 1.392 . S
C2721 C2725 1.495 . S
C2722 C2721 1.392 . S
C2722 C2723 1.385 . S
C2722 C2724 1.478 . S
C2723 H2717 0.930 . S
C2723 C2719 1.400 . S
C2723 C2722 1.385 . S
C2724 C2722 1.478 . S
C2724 C2726 1.381 . S
C2724 C2730 1.383 . S
C2725 C2721 1.495 . S
C2725 H2731 0.959 . S
C2725 H2732 0.961 . S
C2725 H2733 0.960 . S
C2726 C2724 1.381 . S
C2726 C2727 1.394 . S
C2726 H2734 0.930 . S
C2727 C2726 1.394 . S
C2727 C2728 1.383 . S
C2727 H2735 0.929 . S
C2728 C2727 1.383 . S
C2728 C2729 1.377 . S
C2729 H2713 0.930 . S
C2729 C2728 1.377 . S
C2729 C2730 1.379 . S
C2730 H2714 0.931 . S
C2730 C2724 1.383 . S
C2730 C2729 1.379 . S
H2731 C2725 0.959 . S
H2732 C2725 0.961 . S
H2733 C2725 0.960 . S
H2734 C2726 0.930 . S
H2735 C2727 0.929 . S
H2736 C2744 0.929 . S
H2737 C2746 0.930 . S
H2738 C2748 0.930 . S
H2739 C2751 0.929 . S
H2740 C2754 0.930 . S
H2741 C2756 0.960 . S
H2742 C2756 0.960 . S
H2743 C2756 0.960 . S
C2744 H2736 0.929 . S
C2744 C2745 1.377 . S
C2744 C2746 1.384 . S
C2745 C2744 1.377 . S
C2745 C2751 1.390 . S
C2746 H2737 0.930 . S
C2746 C2744 1.384 . S
C2746 C2747 1.372 . S
C2747 C2746 1.372 . S
C2747 C2748 1.400 . S
C2747 C2752 1.490 . S
C2748 H2738 0.930 . S
C2748 C2747 1.400 . S
C2748 C2751 1.386 . S
H2749 C2765 0.930 . S
H2750 C2766 0.931 . S
C2751 H2739 0.929 . S
C2751 C2745 1.390 . S
C2751 C2748 1.386 . S
C2752 C2747 1.490 . S
C2752 C2754 1.395 . S
C2752 C2755 1.403 . S
H2753 C2759 0.930 . S
C2754 H2740 0.930 . S
C2754 C2752 1.395 . S
C2754 C2757 1.403 . S
C2755 C2752 1.403 . S
C2755 C2756 1.524 . S
C2755 C2759 1.400 . S
C2756 H2741 0.960 . S
C2756 H2742 0.960 . S
C2756 H2743 0.960 . S
C2756 C2755 1.524 . S
C2757 C2754 1.403 . S
C2757 C2758 1.392 . S
C2757 C2761 1.495 . S
C2758 C2757 1.392 . S
C2758 C2759 1.385 . S
C2758 C2760 1.478 . S
C2759 H2753 0.930 . S
C2759 C2755 1.400 . S
C2759 C2758 1.385 . S
C2760 C2758 1.478 . S
C2760 C2762 1.381 . S
C2760 C2766 1.383 1_545 S
C2761 C2757 1.495 . S
C2761 H2767 0.959 . S
C2761 H2768 0.961 . S
C2761 H2769 0.960 . S
C2762 C2760 1.381 . S
C2762 C2763 1.394 . S
C2762 H2770 0.930 . S
C2763 C2762 1.394 . S
C2763 C2764 1.383 . S
C2763 H2771 0.929 . S
C2764 C2763 1.383 . S
C2764 C2765 1.377 1_545 S
C2765 H2749 0.930 . S
C2765 C2764 1.377 1_565 S
C2765 C2766 1.379 . S
C2766 H2750 0.931 . S
C2766 C2760 1.383 1_565 S
C2766 C2765 1.379 . S
H2767 C2761 0.959 . S
H2768 C2761 0.961 . S
H2769 C2761 0.960 . S
H2770 C2762 0.930 . S
H2771 C2763 0.929 . S
H2772 C2780 0.929 . S
H2773 C2782 0.930 . S
H2774 C2784 0.930 . S
H2775 C2787 0.929 . S
H2776 C2790 0.930 . S
H2777 C2792 0.960 . S
H2778 C2792 0.960 . S
H2779 C2792 0.960 . S
C2780 H2772 0.929 . S
C2780 C2781 1.377 . S
C2780 C2782 1.384 . S
C2781 C2780 1.377 . S
C2781 C2787 1.390 . S
C2782 H2773 0.930 . S
C2782 C2780 1.384 . S
C2782 C2783 1.372 . S
C2783 C2782 1.372 . S
C2783 C2784 1.400 . S
C2783 C2788 1.490 . S
C2784 H2774 0.930 . S
C2784 C2783 1.400 . S
C2784 C2787 1.386 . S
H2785 C2801 0.930 . S
H2786 C2802 0.931 . S
C2787 H2775 0.929 . S
C2787 C2781 1.390 . S
C2787 C2784 1.386 . S
C2788 C2783 1.490 . S
C2788 C2790 1.395 . S
C2788 C2791 1.403 . S
H2789 C2795 0.930 . S
C2790 H2776 0.930 . S
C2790 C2788 1.395 . S
C2790 C2793 1.403 . S
C2791 C2788 1.403 . S
C2791 C2792 1.524 . S
C2791 C2795 1.400 . S
C2792 H2777 0.960 . S
C2792 H2778 0.960 . S
C2792 H2779 0.960 . S
C2792 C2791 1.524 . S
C2793 C2790 1.403 . S
C2793 C2794 1.392 . S
C2793 C2797 1.495 . S
C2794 C2793 1.392 . S
C2794 C2795 1.385 . S
C2794 C2796 1.478 . S
C2795 H2789 0.930 . S
C2795 C2791 1.400 . S
C2795 C2794 1.385 . S
C2796 C2794 1.478 . S
C2796 C2798 1.381 . S
C2796 C2802 1.383 . S
C2797 C2793 1.495 . S
C2797 H2803 0.959 . S
C2797 H2804 0.961 . S
C2797 H2805 0.960 . S
C2798 C2796 1.381 . S
C2798 C2799 1.394 . S
C2798 H2806 0.930 . S
C2799 C2798 1.394 . S
C2799 C2800 1.383 . S
C2799 H2807 0.929 . S
C2800 C2799 1.383 . S
C2800 C2801 1.377 . S
C2801 H2785 0.930 . S
C2801 C2800 1.377 . S
C2801 C2802 1.379 . S
C2802 H2786 0.931 . S
C2802 C2796 1.383 . S
C2802 C2801 1.379 . S
H2803 C2797 0.959 . S
H2804 C2797 0.961 . S
H2805 C2797 0.960 . S
H2806 C2798 0.930 . S
H2807 C2799 0.929 . S
H2808 C2816 0.929 . S
H2809 C2818 0.930 . S
H2810 C2820 0.930 . S
H2811 C2823 0.929 . S
H2812 C2826 0.930 . S
H2813 C2828 0.960 . S
H2814 C2828 0.960 . S
H2815 C2828 0.960 . S
C2816 H2808 0.929 . S
C2816 C2817 1.377 . S
C2816 C2818 1.384 . S
C2817 C2816 1.377 . S
C2817 C2823 1.390 . S
C2818 H2809 0.930 . S
C2818 C2816 1.384 . S
C2818 C2819 1.372 . S
C2819 C2818 1.372 . S
C2819 C2820 1.400 . S
C2819 C2824 1.490 . S
C2820 H2810 0.930 . S
C2820 C2819 1.400 . S
C2820 C2823 1.386 . S
H2821 C2837 0.930 . S
H2822 C2838 0.931 . S
C2823 H2811 0.929 . S
C2823 C2817 1.390 . S
C2823 C2820 1.386 . S
C2824 C2819 1.490 . S
C2824 C2826 1.395 . S
C2824 C2827 1.403 . S
H2825 C2831 0.930 . S
C2826 H2812 0.930 . S
C2826 C2824 1.395 . S
C2826 C2829 1.403 . S
C2827 C2824 1.403 . S
C2827 C2828 1.524 . S
C2827 C2831 1.400 . S
C2828 H2813 0.960 . S
C2828 H2814 0.960 . S
C2828 H2815 0.960 . S
C2828 C2827 1.524 . S
C2829 C2826 1.403 . S
C2829 C2830 1.392 . S
C2829 C2833 1.495 . S
C2830 C2829 1.392 . S
C2830 C2831 1.385 . S
C2830 C2832 1.478 . S
C2831 H2825 0.930 . S
C2831 C2827 1.400 . S
C2831 C2830 1.385 . S
C2832 C2830 1.478 . S
C2832 C2834 1.381 . S
C2832 C2838 1.383 . S
C2833 C2829 1.495 . S
C2833 H2839 0.959 . S
C2833 H2840 0.961 . S
C2833 H2841 0.960 . S
C2834 C2832 1.381 . S
C2834 C2835 1.394 . S
C2834 H2842 0.930 . S
C2835 C2834 1.394 . S
C2835 C2836 1.383 . S
C2835 H2843 0.929 . S
C2836 C2835 1.383 . S
C2836 C2837 1.377 . S
C2837 H2821 0.930 . S
C2837 C2836 1.377 . S
C2837 C2838 1.379 . S
C2838 H2822 0.931 . S
C2838 C2832 1.383 . S
C2838 C2837 1.379 . S
H2839 C2833 0.959 . S
H2840 C2833 0.961 . S
H2841 C2833 0.960 . S
H2842 C2834 0.930 . S
H2843 C2835 0.929 . S
H2844 C2852 0.929 . S
H2845 C2854 0.930 . S
H2846 C2856 0.930 . S
H2847 C2859 0.929 . S
H2848 C2862 0.930 . S
H2849 C2864 0.960 . S
H2850 C2864 0.960 . S
H2851 C2864 0.960 . S
C2852 H2844 0.929 . S
C2852 C2853 1.377 . S
C2852 C2854 1.384 . S
C2853 C2852 1.377 . S
C2853 C2859 1.390 . S
C2854 H2845 0.930 . S
C2854 C2852 1.384 . S
C2854 C2855 1.372 . S
C2855 C2854 1.372 . S
C2855 C2856 1.400 . S
C2855 C2860 1.490 . S
C2856 H2846 0.930 . S
C2856 C2855 1.400 . S
C2856 C2859 1.386 . S
H2857 C2873 0.930 . S
H2858 C2874 0.931 . S
C2859 H2847 0.929 . S
C2859 C2853 1.390 . S
C2859 C2856 1.386 . S
C2860 C2855 1.490 . S
C2860 C2862 1.395 . S
C2860 C2863 1.403 . S
H2861 C2867 0.930 . S
C2862 H2848 0.930 . S
C2862 C2860 1.395 . S
C2862 C2865 1.403 . S
C2863 C2860 1.403 . S
C2863 C2864 1.524 . S
C2863 C2867 1.400 . S
C2864 H2849 0.960 . S
C2864 H2850 0.960 . S
C2864 H2851 0.960 . S
C2864 C2863 1.524 . S
C2865 C2862 1.403 . S
C2865 C2866 1.392 . S
C2865 C2869 1.495 . S
C2866 C2865 1.392 . S
C2866 C2867 1.385 . S
C2866 C2868 1.478 . S
C2867 H2861 0.930 . S
C2867 C2863 1.400 . S
C2867 C2866 1.385 . S
C2868 C2866 1.478 . S
C2868 C2870 1.381 . S
C2868 C2874 1.383 . S
C2869 C2865 1.495 . S
C2869 H2875 0.959 . S
C2869 H2876 0.961 . S
C2869 H2877 0.960 . S
C2870 C2868 1.381 . S
C2870 C2871 1.394 . S
C2870 H2878 0.930 . S
C2871 C2870 1.394 . S
C2871 C2872 1.383 . S
C2871 H2879 0.929 . S
C2872 C2871 1.383 . S
C2872 C2873 1.377 . S
C2873 H2857 0.930 . S
C2873 C2872 1.377 . S
C2873 C2874 1.379 . S
C2874 H2858 0.931 . S
C2874 C2868 1.383 . S
C2874 C2873 1.379 . S
H2875 C2869 0.959 . S
H2876 C2869 0.961 . S
H2877 C2869 0.960 . S
H2878 C2870 0.930 . S
H2879 C2871 0.929 . S
H2880 C2888 0.929 . S
H2881 C2890 0.930 . S
H2882 C2892 0.930 . S
H2883 C2895 0.929 . S
H2884 C2898 0.930 . S
H2885 C2900 0.960 . S
H2886 C2900 0.960 . S
H2887 C2900 0.960 . S
C2888 H2880 0.929 . S
C2888 C2889 1.377 . S
C2888 C2890 1.384 . S
C2889 C2888 1.377 . S
C2889 C2895 1.390 . S
C2890 H2881 0.930 . S
C2890 C2888 1.384 . S
C2890 C2891 1.372 . S
C2891 C2890 1.372 . S
C2891 C2892 1.400 . S
C2891 C2896 1.490 . S
C2892 H2882 0.930 . S
C2892 C2891 1.400 . S
C2892 C2895 1.386 . S
H2893 C2909 0.930 . S
H2894 C2910 0.931 . S
C2895 H2883 0.929 . S
C2895 C2889 1.390 . S
C2895 C2892 1.386 . S
C2896 C2891 1.490 . S
C2896 C2898 1.395 . S
C2896 C2899 1.403 . S
H2897 C2903 0.930 . S
C2898 H2884 0.930 . S
C2898 C2896 1.395 . S
C2898 C2901 1.403 . S
C2899 C2896 1.403 . S
C2899 C2900 1.524 . S
C2899 C2903 1.400 . S
C2900 H2885 0.960 . S
C2900 H2886 0.960 . S
C2900 H2887 0.960 . S
C2900 C2899 1.524 . S
C2901 C2898 1.403 . S
C2901 C2902 1.392 . S
C2901 C2905 1.495 . S
C2902 C2901 1.392 . S
C2902 C2903 1.385 . S
C2902 C2904 1.478 . S
C2903 H2897 0.930 . S
C2903 C2899 1.400 . S
C2903 C2902 1.385 . S
C2904 C2902 1.478 . S
C2904 C2906 1.381 . S
C2904 C2910 1.383 . S
C2905 C2901 1.495 . S
C2905 H2911 0.959 . S
C2905 H2912 0.961 . S
C2905 H2913 0.960 . S
C2906 C2904 1.381 . S
C2906 C2907 1.394 . S
C2906 H2914 0.930 . S
C2907 C2906 1.394 . S
C2907 C2908 1.383 . S
C2907 H2915 0.929 . S
C2908 C2907 1.383 . S
C2908 C2909 1.377 . S
C2909 H2893 0.930 . S
C2909 C2908 1.377 . S
C2909 C2910 1.379 . S
C2910 H2894 0.931 . S
C2910 C2904 1.383 . S
C2910 C2909 1.379 . S
H2911 C2905 0.959 . S
H2912 C2905 0.961 . S
H2913 C2905 0.960 . S
H2914 C2906 0.930 . S
H2915 C2907 0.929 . S
H2916 C2924 0.929 . S
H2917 C2926 0.930 . S
H2918 C2928 0.930 . S
H2919 C2931 0.929 . S
H2920 C2934 0.930 . S
H2921 C2936 0.960 . S
H2922 C2936 0.960 . S
H2923 C2936 0.960 . S
C2924 H2916 0.929 . S
C2924 C2925 1.377 . S
C2924 C2926 1.384 . S
C2925 C2924 1.377 . S
C2925 C2931 1.390 . S
C2926 H2917 0.930 . S
C2926 C2924 1.384 . S
C2926 C2927 1.372 . S
C2927 C2926 1.372 . S
C2927 C2928 1.400 . S
C2927 C2932 1.490 . S
C2928 H2918 0.930 . S
C2928 C2927 1.400 . S
C2928 C2931 1.386 . S
H2929 C2945 0.930 . S
H2930 C2946 0.931 . S
C2931 H2919 0.929 . S
C2931 C2925 1.390 . S
C2931 C2928 1.386 . S
C2932 C2927 1.490 . S
C2932 C2934 1.395 . S
C2932 C2935 1.403 . S
H2933 C2939 0.930 . S
C2934 H2920 0.930 . S
C2934 C2932 1.395 . S
C2934 C2937 1.403 . S
C2935 C2932 1.403 . S
C2935 C2936 1.524 . S
C2935 C2939 1.400 . S
C2936 H2921 0.960 . S
C2936 H2922 0.960 . S
C2936 H2923 0.960 . S
C2936 C2935 1.524 . S
C2937 C2934 1.403 . S
C2937 C2938 1.392 . S
C2937 C2941 1.495 . S
C2938 C2937 1.392 . S
C2938 C2939 1.385 . S
C2938 C2940 1.478 . S
C2939 H2933 0.930 . S
C2939 C2935 1.400 . S
C2939 C2938 1.385 . S
C2940 C2938 1.478 . S
C2940 C2942 1.381 . S
C2940 C2946 1.383 . S
C2941 C2937 1.495 . S
C2941 H2947 0.959 . S
C2941 H2948 0.961 . S
C2941 H2949 0.960 . S
C2942 C2940 1.381 . S
C2942 C2943 1.394 . S
C2942 H2950 0.930 . S
C2943 C2942 1.394 . S
C2943 C2944 1.383 . S
C2943 H2951 0.929 . S
C2944 C2943 1.383 . S
C2944 C2945 1.377 . S
C2945 H2929 0.930 . S
C2945 C2944 1.377 . S
C2945 C2946 1.379 . S
C2946 H2930 0.931 . S
C2946 C2940 1.383 . S
C2946 C2945 1.379 . S
H2947 C2941 0.959 . S
H2948 C2941 0.961 . S
H2949 C2941 0.960 . S
H2950 C2942 0.930 . S
H2951 C2943 0.929 . S
H2952 C2960 0.929 . S
H2953 C2962 0.930 . S
H2954 C2964 0.930 . S
H2955 C2967 0.929 . S
H2956 C2970 0.930 . S
H2957 C2972 0.960 . S
H2958 C2972 0.960 . S
H2959 C2972 0.960 . S
C2960 H2952 0.929 . S
C2960 C2961 1.377 . S
C2960 C2962 1.384 . S
C2961 C2960 1.377 . S
C2961 C2967 1.390 . S
C2962 H2953 0.930 . S
C2962 C2960 1.384 . S
C2962 C2963 1.372 . S
C2963 C2962 1.372 . S
C2963 C2964 1.400 . S
C2963 C2968 1.490 . S
C2964 H2954 0.930 . S
C2964 C2963 1.400 . S
C2964 C2967 1.386 . S
H2965 C2981 0.930 . S
H2966 C2982 0.931 . S
C2967 H2955 0.929 . S
C2967 C2961 1.390 . S
C2967 C2964 1.386 . S
C2968 C2963 1.490 . S
C2968 C2970 1.395 . S
C2968 C2971 1.403 . S
H2969 C2975 0.930 . S
C2970 H2956 0.930 . S
C2970 C2968 1.395 . S
C2970 C2973 1.403 . S
C2971 C2968 1.403 . S
C2971 C2972 1.524 . S
C2971 C2975 1.400 . S
C2972 H2957 0.960 . S
C2972 H2958 0.960 . S
C2972 H2959 0.960 . S
C2972 C2971 1.524 . S
C2973 C2970 1.403 . S
C2973 C2974 1.392 . S
C2973 C2977 1.495 . S
C2974 C2973 1.392 . S
C2974 C2975 1.385 . S
C2974 C2976 1.478 . S
C2975 H2969 0.930 . S
C2975 C2971 1.400 . S
C2975 C2974 1.385 . S
C2976 C2974 1.478 . S
C2976 C2978 1.381 . S
C2976 C2982 1.383 . S
C2977 C2973 1.495 . S
C2977 H2983 0.959 . S
C2977 H2984 0.961 . S
C2977 H2985 0.960 . S
C2978 C2976 1.381 . S
C2978 C2979 1.394 . S
C2978 H2986 0.930 . S
C2979 C2978 1.394 . S
C2979 C2980 1.383 . S
C2979 H2987 0.929 . S
C2980 C2979 1.383 . S
C2980 C2981 1.377 . S
C2981 H2965 0.930 . S
C2981 C2980 1.377 . S
C2981 C2982 1.379 . S
C2982 H2966 0.931 . S
C2982 C2976 1.383 . S
C2982 C2981 1.379 . S
H2983 C2977 0.959 . S
H2984 C2977 0.961 . S
H2985 C2977 0.960 . S
H2986 C2978 0.930 . S
H2987 C2979 0.929 . S
H2988 C2996 0.929 . S
H2989 C2998 0.930 . S
H2990 C3000 0.930 . S
H2991 C3003 0.929 . S
H2992 C3006 0.930 . S
H2993 C3008 0.960 . S
H2994 C3008 0.960 . S
H2995 C3008 0.960 . S
C2996 H2988 0.929 . S
C2996 C2997 1.377 . S
C2996 C2998 1.384 . S
C2997 C2996 1.377 . S
C2997 C3003 1.390 . S
C2998 H2989 0.930 . S
C2998 C2996 1.384 . S
C2998 C2999 1.372 . S
C2999 C2998 1.372 . S
C2999 C3000 1.400 . S
C2999 C3004 1.490 . S
C3000 H2990 0.930 . S
C3000 C2999 1.400 . S
C3000 C3003 1.386 . S
H3001 C3017 0.930 . S
H3002 C3018 0.931 . S
C3003 H2991 0.929 . S
C3003 C2997 1.390 . S
C3003 C3000 1.386 . S
C3004 C2999 1.490 . S
C3004 C3006 1.395 . S
C3004 C3007 1.403 . S
H3005 C3011 0.930 . S
C3006 H2992 0.930 . S
C3006 C3004 1.395 . S
C3006 C3009 1.403 . S
C3007 C3004 1.403 . S
C3007 C3008 1.524 . S
C3007 C3011 1.400 . S
C3008 H2993 0.960 . S
C3008 H2994 0.960 . S
C3008 H2995 0.960 . S
C3008 C3007 1.524 . S
C3009 C3006 1.403 . S
C3009 C3010 1.392 . S
C3009 C3013 1.495 . S
C3010 C3009 1.392 . S
C3010 C3011 1.385 . S
C3010 C3012 1.478 . S
C3011 H3005 0.930 . S
C3011 C3007 1.400 . S
C3011 C3010 1.385 . S
C3012 C3010 1.478 . S
C3012 C3014 1.381 . S
C3012 C3018 1.383 . S
C3013 C3009 1.495 . S
C3013 H3019 0.959 . S
C3013 H3020 0.961 . S
C3013 H3021 0.960 . S
C3014 C3012 1.381 . S
C3014 C3015 1.394 . S
C3014 H3022 0.930 . S
C3015 C3014 1.394 . S
C3015 C3016 1.383 . S
C3015 H3023 0.929 . S
C3016 C3015 1.383 . S
C3016 C3017 1.377 . S
C3017 H3001 0.930 . S
C3017 C3016 1.377 . S
C3017 C3018 1.379 . S
C3018 H3002 0.931 . S
C3018 C3012 1.383 . S
C3018 C3017 1.379 . S
H3019 C3013 0.959 . S
H3020 C3013 0.961 . S
H3021 C3013 0.960 . S
H3022 C3014 0.930 . S
H3023 C3015 0.929 . S
H3024 C3032 0.929 . S
H3025 C3034 0.930 . S
H3026 C3036 0.930 . S
H3027 C3039 0.929 . S
H3028 C3042 0.930 . S
H3029 C3044 0.960 . S
H3030 C3044 0.960 . S
H3031 C3044 0.960 . S
C3032 H3024 0.929 . S
C3032 C3033 1.377 . S
C3032 C3034 1.384 . S
C3033 C3032 1.377 . S
C3033 C3039 1.390 . S
C3034 H3025 0.930 . S
C3034 C3032 1.384 . S
C3034 C3035 1.372 . S
C3035 C3034 1.372 . S
C3035 C3036 1.400 . S
C3035 C3040 1.490 . S
C3036 H3026 0.930 . S
C3036 C3035 1.400 . S
C3036 C3039 1.386 . S
H3037 C3053 0.930 . S
H3038 C3054 0.931 . S
C3039 H3027 0.929 . S
C3039 C3033 1.390 . S
C3039 C3036 1.386 . S
C3040 C3035 1.490 . S
C3040 C3042 1.395 . S
C3040 C3043 1.403 . S
H3041 C3047 0.930 . S
C3042 H3028 0.930 . S
C3042 C3040 1.395 . S
C3042 C3045 1.403 . S
C3043 C3040 1.403 . S
C3043 C3044 1.524 . S
C3043 C3047 1.400 . S
C3044 H3029 0.960 . S
C3044 H3030 0.960 . S
C3044 H3031 0.960 . S
C3044 C3043 1.524 . S
C3045 C3042 1.403 . S
C3045 C3046 1.392 . S
C3045 C3049 1.495 . S
C3046 C3045 1.392 . S
C3046 C3047 1.385 . S
C3046 C3048 1.478 . S
C3047 H3041 0.930 . S
C3047 C3043 1.400 . S
C3047 C3046 1.385 . S
C3048 C3046 1.478 . S
C3048 C3050 1.381 . S
C3048 C3054 1.383 . S
C3049 C3045 1.495 . S
C3049 H3055 0.959 . S
C3049 H3056 0.961 . S
C3049 H3057 0.960 . S
C3050 C3048 1.381 . S
C3050 C3051 1.394 . S
C3050 H3058 0.930 . S
C3051 C3050 1.394 . S
C3051 C3052 1.383 . S
C3051 H3059 0.929 . S
C3052 C3051 1.383 . S
C3052 C3053 1.377 . S
C3053 H3037 0.930 . S
C3053 C3052 1.377 . S
C3053 C3054 1.379 . S
C3054 H3038 0.931 . S
C3054 C3048 1.383 . S
C3054 C3053 1.379 . S
H3055 C3049 0.959 . S
H3056 C3049 0.961 . S
H3057 C3049 0.960 . S
H3058 C3050 0.930 . S
H3059 C3051 0.929 . S
H3060 C3068 0.929 . S
H3061 C3070 0.930 . S
H3062 C3072 0.930 . S
H3063 C3075 0.929 . S
H3064 C3078 0.930 . S
H3065 C3080 0.960 . S
H3066 C3080 0.960 . S
H3067 C3080 0.960 . S
C3068 H3060 0.929 . S
C3068 C3069 1.377 . S
C3068 C3070 1.384 . S
C3069 C3068 1.377 . S
C3069 C3075 1.390 . S
C3070 H3061 0.930 . S
C3070 C3068 1.384 . S
C3070 C3071 1.372 . S
C3071 C3070 1.372 . S
C3071 C3072 1.400 . S
C3071 C3076 1.490 . S
C3072 H3062 0.930 . S
C3072 C3071 1.400 . S
C3072 C3075 1.386 . S
H3073 C3089 0.930 . S
H3074 C3090 0.931 . S
C3075 H3063 0.929 . S
C3075 C3069 1.390 . S
C3075 C3072 1.386 . S
C3076 C3071 1.490 . S
C3076 C3078 1.395 . S
C3076 C3079 1.403 . S
H3077 C3083 0.930 . S
C3078 H3064 0.930 . S
C3078 C3076 1.395 . S
C3078 C3081 1.403 . S
C3079 C3076 1.403 . S
C3079 C3080 1.524 . S
C3079 C3083 1.400 . S
C3080 H3065 0.960 . S
C3080 H3066 0.960 . S
C3080 H3067 0.960 . S
C3080 C3079 1.524 . S
C3081 C3078 1.403 . S
C3081 C3082 1.392 . S
C3081 C3085 1.495 . S
C3082 C3081 1.392 . S
C3082 C3083 1.385 . S
C3082 C3084 1.478 . S
C3083 H3077 0.930 . S
C3083 C3079 1.400 . S
C3083 C3082 1.385 . S
C3084 C3082 1.478 . S
C3084 C3086 1.381 . S
C3084 C3090 1.383 . S
C3085 C3081 1.495 . S
C3085 H3091 0.959 . S
C3085 H3092 0.961 . S
C3085 H3093 0.960 . S
C3086 C3084 1.381 . S
C3086 C3087 1.394 . S
C3086 H3094 0.930 . S
C3087 C3086 1.394 . S
C3087 C3088 1.383 . S
C3087 H3095 0.929 . S
C3088 C3087 1.383 . S
C3088 C3089 1.377 . S
C3089 H3073 0.930 . S
C3089 C3088 1.377 . S
C3089 C3090 1.379 . S
C3090 H3074 0.931 . S
C3090 C3084 1.383 . S
C3090 C3089 1.379 . S
H3091 C3085 0.959 . S
H3092 C3085 0.961 . S
H3093 C3085 0.960 . S
H3094 C3086 0.930 . S
H3095 C3087 0.929 . S
H3096 C3104 0.929 . S
H3097 C3106 0.930 . S
H3098 C3108 0.930 . S
H3099 C3111 0.929 . S
H3100 C3114 0.930 . S
H3101 C3116 0.960 . S
H3102 C3116 0.960 . S
H3103 C3116 0.960 . S
C3104 H3096 0.929 . S
C3104 C3105 1.377 . S
C3104 C3106 1.384 . S
C3105 C3104 1.377 . S
C3105 C3111 1.390 . S
C3106 H3097 0.930 . S
C3106 C3104 1.384 . S
C3106 C3107 1.372 . S
C3107 C3106 1.372 . S
C3107 C3108 1.400 . S
C3107 C3112 1.490 . S
C3108 H3098 0.930 . S
C3108 C3107 1.400 . S
C3108 C3111 1.386 . S
H3109 C3125 0.930 . S
H3110 C3126 0.931 . S
C3111 H3099 0.929 . S
C3111 C3105 1.390 . S
C3111 C3108 1.386 . S
C3112 C3107 1.490 . S
C3112 C3114 1.395 . S
C3112 C3115 1.403 . S
H3113 C3119 0.930 . S
C3114 H3100 0.930 . S
C3114 C3112 1.395 . S
C3114 C3117 1.403 . S
C3115 C3112 1.403 . S
C3115 C3116 1.524 . S
C3115 C3119 1.400 . S
C3116 H3101 0.960 . S
C3116 H3102 0.960 . S
C3116 H3103 0.960 . S
C3116 C3115 1.524 . S
C3117 C3114 1.403 . S
C3117 C3118 1.392 . S
C3117 C3121 1.495 . S
C3118 C3117 1.392 . S
C3118 C3119 1.385 . S
C3118 C3120 1.478 . S
C3119 H3113 0.930 . S
C3119 C3115 1.400 . S
C3119 C3118 1.385 . S
C3120 C3118 1.478 . S
C3120 C3122 1.381 . S
C3120 C3126 1.383 . S
C3121 C3117 1.495 . S
C3121 H3127 0.959 . S
C3121 H3128 0.961 . S
C3121 H3129 0.960 . S
C3122 C3120 1.381 . S
C3122 C3123 1.394 . S
C3122 H3130 0.930 . S
C3123 C3122 1.394 . S
C3123 C3124 1.383 . S
C3123 H3131 0.929 . S
C3124 C3123 1.383 . S
C3124 C3125 1.377 . S
C3125 H3109 0.930 . S
C3125 C3124 1.377 . S
C3125 C3126 1.379 . S
C3126 H3110 0.931 . S
C3126 C3120 1.383 . S
C3126 C3125 1.379 . S
H3127 C3121 0.959 . S
H3128 C3121 0.961 . S
H3129 C3121 0.960 . S
H3130 C3122 0.930 . S
H3131 C3123 0.929 . S
H3132 C3140 0.929 . S
H3133 C3142 0.930 . S
H3134 C3144 0.930 . S
H3135 C3147 0.929 . S
H3136 C3150 0.930 . S
H3137 C3152 0.960 . S
H3138 C3152 0.960 . S
H3139 C3152 0.960 . S
C3140 H3132 0.929 . S
C3140 C3141 1.377 . S
C3140 C3142 1.384 . S
C3141 C3140 1.377 . S
C3141 C3147 1.390 . S
C3142 H3133 0.930 . S
C3142 C3140 1.384 . S
C3142 C3143 1.372 . S
C3143 C3142 1.372 . S
C3143 C3144 1.400 . S
C3143 C3148 1.490 . S
C3144 H3134 0.930 . S
C3144 C3143 1.400 . S
C3144 C3147 1.386 . S
H3145 C3161 0.930 . S
H3146 C3162 0.931 . S
C3147 H3135 0.929 . S
C3147 C3141 1.390 . S
C3147 C3144 1.386 . S
C3148 C3143 1.490 . S
C3148 C3150 1.395 . S
C3148 C3151 1.403 . S
H3149 C3155 0.930 . S
C3150 H3136 0.930 . S
C3150 C3148 1.395 . S
C3150 C3153 1.403 . S
C3151 C3148 1.403 . S
C3151 C3152 1.524 . S
C3151 C3155 1.400 . S
C3152 H3137 0.960 . S
C3152 H3138 0.960 . S
C3152 H3139 0.960 . S
C3152 C3151 1.524 . S
C3153 C3150 1.403 . S
C3153 C3154 1.392 . S
C3153 C3157 1.495 . S
C3154 C3153 1.392 . S
C3154 C3155 1.385 . S
C3154 C3156 1.478 . S
C3155 H3149 0.930 . S
C3155 C3151 1.400 . S
C3155 C3154 1.385 . S
C3156 C3154 1.478 . S
C3156 C3158 1.381 . S
C3156 C3162 1.383 . S
C3157 C3153 1.495 . S
C3157 H3163 0.959 . S
C3157 H3164 0.961 . S
C3157 H3165 0.960 . S
C3158 C3156 1.381 . S
C3158 C3159 1.394 . S
C3158 H3166 0.930 . S
C3159 C3158 1.394 . S
C3159 C3160 1.383 . S
C3159 H3167 0.929 . S
C3160 C3159 1.383 . S
C3160 C3161 1.377 . S
C3161 H3145 0.930 . S
C3161 C3160 1.377 . S
C3161 C3162 1.379 . S
C3162 H3146 0.931 . S
C3162 C3156 1.383 . S
C3162 C3161 1.379 . S
H3163 C3157 0.959 . S
H3164 C3157 0.961 . S
H3165 C3157 0.960 . S
H3166 C3158 0.930 . S
H3167 C3159 0.929 . S
H3168 C3176 0.929 . S
H3169 C3178 0.930 . S
H3170 C3180 0.930 . S
H3171 C3183 0.929 . S
H3172 C3186 0.930 . S
H3173 C3188 0.960 . S
H3174 C3188 0.960 . S
H3175 C3188 0.960 . S
C3176 H3168 0.929 . S
C3176 C3177 1.377 . S
C3176 C3178 1.384 . S
C3177 C3176 1.377 . S
C3177 C3183 1.390 . S
C3178 H3169 0.930 . S
C3178 C3176 1.384 . S
C3178 C3179 1.372 . S
C3179 C3178 1.372 . S
C3179 C3180 1.400 . S
C3179 C3184 1.490 . S
C3180 H3170 0.930 . S
C3180 C3179 1.400 . S
C3180 C3183 1.386 . S
H3181 C3197 0.930 . S
H3182 C3198 0.931 . S
C3183 H3171 0.929 . S
C3183 C3177 1.390 . S
C3183 C3180 1.386 . S
C3184 C3179 1.490 . S
C3184 C3186 1.395 . S
C3184 C3187 1.403 . S
H3185 C3191 0.930 . S
C3186 H3172 0.930 . S
C3186 C3184 1.395 . S
C3186 C3189 1.403 . S
C3187 C3184 1.403 . S
C3187 C3188 1.524 . S
C3187 C3191 1.400 . S
C3188 H3173 0.960 . S
C3188 H3174 0.960 . S
C3188 H3175 0.960 . S
C3188 C3187 1.524 . S
C3189 C3186 1.403 . S
C3189 C3190 1.392 . S
C3189 C3193 1.495 . S
C3190 C3189 1.392 . S
C3190 C3191 1.385 . S
C3190 C3192 1.478 . S
C3191 H3185 0.930 . S
C3191 C3187 1.400 . S
C3191 C3190 1.385 . S
C3192 C3190 1.478 . S
C3192 C3194 1.381 . S
C3192 C3198 1.383 . S
C3193 C3189 1.495 . S
C3193 H3199 0.959 . S
C3193 H3200 0.961 . S
C3193 H3201 0.960 . S
C3194 C3192 1.381 . S
C3194 C3195 1.394 . S
C3194 H3202 0.930 . S
C3195 C3194 1.394 . S
C3195 C3196 1.383 . S
C3195 H3203 0.929 . S
C3196 C3195 1.383 . S
C3196 C3197 1.377 . S
C3197 H3181 0.930 . S
C3197 C3196 1.377 . S
C3197 C3198 1.379 . S
C3198 H3182 0.931 . S
C3198 C3192 1.383 . S
C3198 C3197 1.379 . S
H3199 C3193 0.959 . S
H3200 C3193 0.961 . S
H3201 C3193 0.960 . S
H3202 C3194 0.930 . S
H3203 C3195 0.929 . S
C1269 C781 1.545 . S
C1288 C1086 1.545 . S
C1305 C871 1.510 . S
C1324 C1106 1.523 . S
C1341 C751 1.530 . S
C1360 C1129 1.544 . S
C1377 C691 1.416 . S
C1396 C1109 1.437 . S
C1432 C1126 1.386 . S
C1413 C571 1.370 . S
C1449 C601 1.414 . S
C1468 C1089 1.431 . S
C1504 C1096 1.536 . S
C1485 C661 1.507 . S
C1540 C1116 1.507 . S
C1521 C541 1.503 . S
C1557 C631 1.573 . S
C1576 C1121 1.542 . S
C1593 C811 1.447 . S
C1612 C1101 1.429 . S
C1629 C841 1.380 . S
C1648 C1136 1.390 . S
C1684 C1081 1.418 . S
C1665 C721 1.384 . S
C1720 C1146 1.535 . S
C1701 C61 1.547 . S
C1737 C151 1.502 . S
C1756 C1166 1.485 . S
C1773 C31 1.528 . S
C1792 C1189 1.541 . S
C1809 C1051 1.418 . S
C1828 C1169 1.442 . S
C1845 C931 1.367 . S
C1864 C1186 1.377 . S
C1881 C961 1.414 . S
C1900 C1149 1.429 . S
C1917 C1021 1.515 . S
C1936 C1156 1.539 . S
C1953 C901 1.494 . S
C1972 C1176 1.492 . S
C2008 C1181 1.542 . S
C1989 C991 1.574 . S
C2025 C91 1.446 . S
C2044 C1161 1.432 . S
C2080 C1196 1.386 . S
C2061 C121 1.388 . S
C2097 C1 1.387 . S
C2116 C1141 1.433 . S
C2152 C1206 1.538 . S
C2133 C421 1.542 . S
C2169 C511 1.503 . S
C2188 C1226 1.502 . S
C2224 C1249 1.569 . S
C2205 C391 1.536 . S
C2260 C1229 1.423 . S
C2241 C331 1.411 . S
C2296 C1246 1.398 . S
C2277 C211 1.368 . S
C2313 C241 1.415 . S
C2332 C1209 1.436 . S
C2349 C301 1.509 . S
C2368 C1216 1.540 . S
C2385 C181 1.501 . S
C2404 C1236 1.493 . S
C2440 C1241 1.542 . S
C2421 C271 1.574 . S
C2457 C451 1.444 . S
C2476 C1221 1.450 . S
C2493 C481 1.389 . S
C2512 C1256 1.397 . S
C2529 C361 1.381 . S
C2548 C1201 1.428 . S
C2565 C920 1.193 . S
C2584 C1099 1.178 1_565 S
C2620 C1119 1.672 . S
C2601 C980 1.689 . S
C2637 C1040 1.440 . S
C2656 C1128 1.460 . S
C2673 C380 1.654 . S
C2692 C1108 1.666 . S
C2709 C440 1.469 . S
C2728 C1139 1.419 . S
C2764 C1088 1.176 1_545 S
C2745 C500 1.183 . S
C2781 C200 1.192 . S
C2800 C1159 1.163 . S
C2817 C260 1.691 . S
C2836 C1179 1.632 . S
C2853 C320 1.431 . S
C2872 C1188 1.420 . S
C2889 C740 1.654 . S
C2908 C1168 1.661 . S
C2944 C1199 1.467 . S
C2925 C800 1.461 . S
C2961 C860 1.178 . S
C2980 C1148 1.157 . S
C2997 C560 1.202 . S
C3016 C1219 1.208 . S
C3033 C620 1.692 . S
C3052 C1239 1.625 . S
C3088 C1248 1.455 . S
C3069 C680 1.439 . S
C3105 C20 1.648 . S
C3124 C1228 1.638 . S
C3141 C80 1.462 . S
C3160 C1259 1.466 . S
C3177 C140 1.177 . S
C3196 C1208 1.158 . S
