# Generated by pormake.
# Topology pyr, (3,6)-cn, num edge types: 1
# Building blocks:
#     Node 0, Type 0, BuildingBlock: PAMTOO_clean_linker_0, # of connection points: 3
#     Node 1, Type 0, BuildingBlock: PAMTOO_clean_linker_0, # of connection points: 3
#     Node 2, Type 0, BuildingBlock: PAMTOO_clean_linker_0, # of connection points: 3
#     Node 3, Type 0, BuildingBlock: PAMTOO_clean_linker_0, # of connection points: 3
#     Node 4, Type 0, BuildingBlock: PAMTOO_clean_linker_0, # of connection points: 3
#     Node 5, Type 0, BuildingBlock: PAMTOO_clean_linker_0, # of connection points: 3
#     Node 6, Type 0, BuildingBlock: PAMTOO_clean_linker_0, # of connection points: 3
#     Node 7, Type 0, BuildingBlock: PAMTOO_clean_linker_0, # of connection points: 3
#     Node 8, Type 1, BuildingBlock: PAMTOO_clean_sbu_0, # of connection points: 6
#     Node 9, Type 1, BuildingBlock: PAMTOO_clean_sbu_0, # of connection points: 6
#     Node 10, Type 1, BuildingBlock: PAMTOO_clean_sbu_0, # of connection points: 6
#     Node 11, Type 1, BuildingBlock: PAMTOO_clean_sbu_0, # of connection points: 6
#     Edge 12, Type (0, 1), BuildingBlock: MIFKUJ_clean_linker_0, # of connection points: 2
#     Edge 13, Type (0, 1), BuildingBlock: MIFKUJ_clean_linker_0, # of connection points: 2
#     Edge 14, Type (0, 1), BuildingBlock: MIFKUJ_clean_linker_0, # of connection points: 2
#     Edge 15, Type (0, 1), BuildingBlock: MIFKUJ_clean_linker_0, # of connection points: 2
#     Edge 16, Type (0, 1), BuildingBlock: MIFKUJ_clean_linker_0, # of connection points: 2
#     Edge 17, Type (0, 1), BuildingBlock: MIFKUJ_clean_linker_0, # of connection points: 2
#     Edge 18, Type (0, 1), BuildingBlock: MIFKUJ_clean_linker_0, # of connection points: 2
#     Edge 19, Type (0, 1), BuildingBlock: MIFKUJ_clean_linker_0, # of connection points: 2
#     Edge 20, Type (0, 1), BuildingBlock: MIFKUJ_clean_linker_0, # of connection points: 2
#     Edge 21, Type (0, 1), BuildingBlock: MIFKUJ_clean_linker_0, # of connection points: 2
#     Edge 22, Type (0, 1), BuildingBlock: MIFKUJ_clean_linker_0, # of connection points: 2
#     Edge 23, Type (0, 1), BuildingBlock: MIFKUJ_clean_linker_0, # of connection points: 2
#     Edge 24, Type (0, 1), BuildingBlock: MIFKUJ_clean_linker_0, # of connection points: 2
#     Edge 25, Type (0, 1), BuildingBlock: MIFKUJ_clean_linker_0, # of connection points: 2
#     Edge 26, Type (0, 1), BuildingBlock: MIFKUJ_clean_linker_0, # of connection points: 2
#     Edge 27, Type (0, 1), BuildingBlock: MIFKUJ_clean_linker_0, # of connection points: 2
#     Edge 28, Type (0, 1), BuildingBlock: MIFKUJ_clean_linker_0, # of connection points: 2
#     Edge 29, Type (0, 1), BuildingBlock: MIFKUJ_clean_linker_0, # of connection points: 2
#     Edge 30, Type (0, 1), BuildingBlock: MIFKUJ_clean_linker_0, # of connection points: 2
#     Edge 31, Type (0, 1), BuildingBlock: MIFKUJ_clean_linker_0, # of connection points: 2
#     Edge 32, Type (0, 1), BuildingBlock: MIFKUJ_clean_linker_0, # of connection points: 2
#     Edge 33, Type (0, 1), BuildingBlock: MIFKUJ_clean_linker_0, # of connection points: 2
#     Edge 34, Type (0, 1), BuildingBlock: MIFKUJ_clean_linker_0, # of connection points: 2
#     Edge 35, Type (0, 1), BuildingBlock: MIFKUJ_clean_linker_0, # of connection points: 2
# Relax obj value: 0.124
# Max RMSD: 0.252
# Mean RMSD: 0.142
data_MOF--net-pyr--node1-PAMTOO_clean_sbu_0--node2-PAMTOO_clean_linker_0--edge1-MIFKUJ_clean_linker_0
_symmetry_space_group_name_H-M    P1
_symmetry_Int_Tables_number       1
_symmetry_cell_setting            triclinic
loop_
_symmetry_equiv_pos_as_xyz
'x, y, z'
_cell_length_a     46.717732
_cell_length_b     51.113933
_cell_length_c     50.952814
_cell_angle_alpha  90.46267
_cell_angle_beta   90.765432
_cell_angle_gamma 106.75984
loop_
_atom_site_label
_atom_site_type_symbol
_atom_site_fract_x
_atom_site_fract_y
_atom_site_fract_z
_atom_type_partial_charge
H0 H 0.28916 0.27846 0.23523 0.0
H1 H 0.33984 0.22171 0.22077 0.0
H2 H 0.34793 0.28917 0.16924 0.0
H3 H 0.35489 0.24354 0.13906 0.0
C4 C 0.35414 0.22984 0.15602 0.0
O5 O 0.3646 0.24552 0.17824 0.0
H6 H 0.33042 0.21747 0.15849 0.0
C7 C 0.30544 0.2721 0.22383 0.0
C8 C 0.31752 0.28686 0.20142 0.0
C9 C 0.31341 0.24866 0.23121 0.0
C10 C 0.33395 0.24012 0.21593 0.0
C11 C 0.34622 0.25475 0.19366 0.0
C12 C 0.33837 0.27822 0.18665 0.0
H13 H 0.24575 0.84284 0.71322 0.0
H14 H 0.20916 0.79018 0.64701 0.0
H15 H 0.27987 0.77556 0.6935 0.0
H16 H 0.2666 0.78394 0.62382 0.0
C17 C 0.25892 0.76209 0.62973 0.0
O18 O 0.24377 0.75893 0.65312 0.0
H19 H 0.24325 0.75118 0.61395 0.0
C20 C 0.24543 0.82561 0.70057 0.0
C21 C 0.2654 0.81026 0.70584 0.0
C22 C 0.22489 0.8187 0.67941 0.0
C23 C 0.22422 0.79572 0.66381 0.0
C24 C 0.24399 0.78031 0.66895 0.0
C25 C 0.26441 0.78744 0.68997 0.0
H26 H 0.71034 0.34466 0.90305 0.0
H27 H 0.64764 0.32407 0.83788 0.0
H28 H 0.71493 0.40181 0.84068 0.0
H29 H 0.65091 0.40014 0.82801 0.0
C30 C 0.64723 0.38417 0.8123 0.0
O31 O 0.6693 0.37103 0.81372 0.0
H32 H 0.62517 0.36912 0.81587 0.0
C33 C 0.70167 0.34988 0.8846 0.0
C34 C 0.7155 0.37541 0.87352 0.0
C35 C 0.67741 0.33082 0.87193 0.0
C36 C 0.66621 0.33832 0.84812 0.0
C37 C 0.67958 0.36405 0.83697 0.0
C38 C 0.70442 0.38226 0.84955 0.0
H39 H 0.88339 0.71867 0.39933 0.0
H40 H 0.88124 0.65476 0.343 0.0
H41 H 0.9528 0.72987 0.34223 0.0
H42 H 0.92911 0.70517 0.28864 0.0
C43 C 0.92302 0.68314 0.29374 0.0
O44 O 0.93099 0.68087 0.31981 0.0
H45 H 0.89834 0.67484 0.29125 0.0
C46 C 0.89271 0.71119 0.38247 0.0
C47 C 0.91933 0.72787 0.37186 0.0
C48 C 0.87846 0.68484 0.37238 0.0
C49 C 0.89176 0.67491 0.35123 0.0
C50 C 0.91845 0.69105 0.34016 0.0
C51 C 0.93227 0.71746 0.3507 0.0
H52 H 0.72171 0.82719 0.85289 0.0
H53 H 0.70985 0.77788 0.92232 0.0
H54 H 0.7663 0.76468 0.86128 0.0
H55 H 0.72326 0.71648 0.88737 0.0
C56 C 0.73262 0.72312 0.90737 0.0
O57 O 0.74674 0.75082 0.90821 0.0
H58 H 0.71382 0.71828 0.92137 0.0
C59 C 0.72556 0.81032 0.86371 0.0
C60 C 0.74497 0.79634 0.85354 0.0
C61 C 0.71272 0.80395 0.88853 0.0
C62 C 0.71923 0.78305 0.90306 0.0
C63 C 0.73851 0.76908 0.89314 0.0
C64 C 0.75124 0.77562 0.8685 0.0
H65 H 0.87484 0.21843 0.35365 0.0
H66 H 0.83558 0.28431 0.36537 0.0
H67 H 0.90069 0.27277 0.42039 0.0
H68 H 0.86295 0.30365 0.44944 0.0
C69 C 0.84759 0.29609 0.43241 0.0
O70 O 0.86398 0.30111 0.40967 0.0
H71 H 0.83744 0.27376 0.43546 0.0
C72 C 0.8736 0.23636 0.36454 0.0
C73 C 0.89032 0.24376 0.38797 0.0
C74 C 0.85386 0.25092 0.35596 0.0
C75 C 0.85087 0.27296 0.37131 0.0
C76 C 0.86779 0.28068 0.3944 0.0
C77 C 0.88787 0.26654 0.40236 0.0
H78 H 0.3863 0.70922 0.16523 0.0
H79 H 0.37905 0.64949 0.22578 0.0
H80 H 0.45013 0.72463 0.22943 0.0
H81 H 0.46819 0.6782 0.24965 0.0
C82 C 0.44604 0.66444 0.25521 0.0
O83 O 0.42489 0.6786 0.25365 0.0
H84 H 0.44014 0.64703 0.24093 0.0
C85 C 0.39499 0.70249 0.18294 0.0
C86 C 0.4206 0.71993 0.19538 0.0
C87 C 0.37982 0.6769 0.19338 0.0
C88 C 0.39024 0.66907 0.2173 0.0
C89 C 0.41546 0.6863 0.23034 0.0
C90 C 0.43052 0.71166 0.21937 0.0
H91 H 0.12955 0.32513 0.76858 0.0
H92 H 0.19445 0.40428 0.76127 0.0
H93 H 0.19231 0.34155 0.70485 0.0
H94 H 0.25112 0.37173 0.72789 0.0
C95 C 0.2489 0.39267 0.72523 0.0
O96 O 0.21951 0.39129 0.71919 0.0
H97 H 0.2554 0.40389 0.74419 0.0
C98 C 0.14797 0.33881 0.75834 0.0
C99 C 0.15948 0.32937 0.73557 0.0
C100 C 0.16019 0.36607 0.76778 0.0
C101 C 0.18439 0.38352 0.7543 0.0
C102 C 0.19614 0.37438 0.732 0.0
C103 C 0.18341 0.34773 0.72262 0.0
Dy104 Dy 0.07163 0.03604 0.54037 0.0
Dy105 Dy 0.00668 0.01863 0.56929 0.0
C106 C 0.05708 0.07532 0.58479 0.0
O107 O 0.07871 0.01855 0.57901 0.0
O108 O 0.03142 0.99001 0.58369 0.0
O109 O 0.11846 0.0592 0.53869 0.0
O110 O 0.09857 0.02899 0.50867 0.0
O111 O 1.00136 0.99104 0.53374 0.0
O112 O 0.0502 0.99157 0.5305 0.0
O113 O 0.00652 0.05408 0.54431 0.0
O114 O 0.04078 0.05025 0.51383 0.0
O115 O 0.95828 1.00447 0.56749 0.0
O116 O 0.98171 1.01382 0.60496 0.0
C117 C 0.06013 0.99691 0.58928 0.0
O118 O 0.07109 0.07399 0.56278 0.0
O119 O 0.03502 0.0546 0.5927 0.0
C120 C 0.13696 0.06775 0.49555 0.0
C121 C 0.1677 0.10179 0.45538 0.0
C122 C 0.18196 0.10034 0.47961 0.0
C123 C 0.16676 0.08339 0.49943 0.0
C124 C 0.12233 0.06974 0.4717 0.0
C125 C 0.13759 0.08646 0.45179 0.0
C126 C 0.122 0.04865 0.51603 0.0
C127 C 0.02174 0.98017 0.52488 0.0
C128 C 0.01905 0.05999 0.52138 0.0
C129 C 0.93602 0.97945 0.60451 0.0
C130 C 0.90091 0.93525 0.63334 0.0
C131 C 0.9274 0.93362 0.62146 0.0
C132 C 0.94485 0.95558 0.60715 0.0
C133 C 0.90906 0.98072 0.61528 0.0
C134 C 0.89161 0.95882 0.62956 0.0
C135 C 0.95595 1.00409 0.59298 0.0
H136 H 0.20493 0.11224 0.48327 0.0
H137 H 0.17841 0.08223 0.51773 0.0
H138 H 0.09927 0.05797 0.46819 0.0
H139 H 0.12595 0.08674 0.43332 0.0
H140 H 0.93499 0.91564 0.62376 0.0
H141 H 0.9657 0.95433 0.59894 0.0
H142 H 0.90207 0.9991 0.61355 0.0
H143 H 0.87162 0.96097 0.63872 0.0
Dy144 Dy 0.52212 0.01588 1.0154 0.0
Dy145 Dy 0.5808 0.03517 0.05499 0.0
C146 C 0.53116 0.97724 0.06117 0.0
O147 O 0.50763 0.0328 0.05187 0.0
O148 O 0.55265 0.06227 0.0646 0.0
O149 O 0.47568 0.99379 1.00828 0.0
O150 O 0.50152 0.01913 0.97795 0.0
O151 O 0.59089 0.06424 0.02118 0.0
O152 O 0.54271 0.06052 1.00847 0.0
O153 O 0.58811 1.00151 0.03048 0.0
O154 O 0.55844 1.00387 0.9948 0.0
O155 O 0.62839 0.05228 0.06252 0.0
O156 O 0.59817 0.03719 0.09445 0.0
C157 C 0.52336 0.05451 0.06502 0.0
O158 O 0.52339 0.97794 0.03639 0.0
O159 O 0.54766 0.99934 0.07334 0.0
C160 C 0.46258 0.98105 0.96403 0.0
C161 C 0.43834 0.94384 0.92291 0.0
C162 C 0.4608 0.93959 0.93957 0.0
C163 C 0.47299 0.9582 0.95996 0.0
C164 C 0.43976 0.98495 0.94787 0.0
C165 C 0.42773 0.96654 0.92749 0.0
C166 C 0.47606 1.00187 0.98403 0.0
C167 C 0.57137 0.07363 1.00833 0.0
C168 C 0.57958 0.99533 1.00598 0.0
C169 C 0.6412 0.07397 0.10463 0.0
C170 C 0.67418 0.11626 0.13864 0.0
C171 C 0.6831 0.11463 0.11255 0.0
C172 C 0.66681 0.09365 0.09573 0.0
C173 C 0.63205 0.07593 0.13056 0.0
C174 C 0.64827 0.09683 0.1473 0.0
C175 C 0.6254 0.05021 0.08792 0.0
H176 H 0.46947 0.92233 0.9364 0.0
H177 H 0.4908 0.95504 0.97223 0.0
H178 H 0.43151 1.00251 0.95077 0.0
H179 H 0.41012 0.9701 0.91524 0.0
H180 H 0.70287 0.12938 0.10523 0.0
H181 H 0.67462 0.09255 0.07595 0.0
H182 H 0.61273 0.06088 0.13823 0.0
H183 H 0.64108 0.0971 0.1674 0.0
Dy184 Dy 0.54838 0.50306 0.51816 0.0
Dy185 Dy 0.55918 0.56036 0.55199 0.0
C186 C 0.57991 0.5109 0.57535 0.0
O187 O 0.50285 0.49996 0.53391 0.0
O188 O 0.51718 0.53173 0.56734 0.0
O189 O 0.53618 0.45896 0.51572 0.0
O190 O 0.55089 0.48302 0.48115 0.0
O191 O 0.5275 0.5638 0.51958 0.0
O192 O 0.53497 0.53166 0.49077 0.0
O193 O 0.59565 0.56881 0.52254 0.0
O194 O 0.59738 0.52511 0.51501 0.0
O195 O 0.57095 0.60439 0.55436 0.0
O196 O 0.56032 0.58053 0.58962 0.0
C197 C 0.4972 0.51113 0.5559 0.0
O198 O 0.56104 0.4944 0.55899 0.0
O199 O 0.5876 0.53754 0.5722 0.0
C200 C 0.56673 0.44396 0.48628 0.0
C201 C 0.61135 0.41904 0.47355 0.0
C202 C 0.61495 0.43669 0.49547 0.0
C203 C 0.5929 0.44912 0.5017 0.0
C204 C 0.5627 0.42602 0.46472 0.0
C205 C 0.58482 0.4136 0.45841 0.0
C206 C 0.54481 0.45887 0.4915 0.0
C207 C 0.52515 0.55277 0.49594 0.0
C208 C 0.6092 0.55167 0.51304 0.0
C209 C 0.54326 0.61926 0.5865 0.0
C210 C 0.50004 0.64479 0.60202 0.0
C211 C 0.49598 0.62896 0.57881 0.0
C212 C 0.51729 0.6162 0.57122 0.0
C213 C 0.54769 0.63527 0.60948 0.0
C214 C 0.52626 0.64798 0.61719 0.0
C215 C 0.56482 0.60455 0.57924 0.0
H216 H 0.63487 0.44098 0.5078 0.0
H217 H 0.59648 0.46311 0.51834 0.0
H218 H 0.54275 0.42208 0.45245 0.0
H219 H 0.58149 0.40035 0.44126 0.0
H220 H 0.47635 0.62645 0.56641 0.0
H221 H 0.51334 0.60375 0.55348 0.0
H222 H 0.56749 0.63761 0.62164 0.0
H223 H 0.52993 0.65978 0.63531 0.0
Dy224 Dy 0.0515 0.54868 0.01876 0.0
Dy225 Dy 0.04207 0.49359 0.05352 0.0
C226 C 0.02203 0.54395 0.07643 0.0
O227 O 0.09772 0.55044 0.03271 0.0
O228 O 0.08339 0.52413 0.06896 0.0
O229 O 0.06515 0.59269 1.0155 0.0
O230 O 0.04718 0.56728 0.9816 0.0
O231 O 0.07183 0.48871 0.02036 0.0
O232 O 0.05992 0.51753 0.99084 0.0
O233 O 1.00223 0.48384 0.02644 0.0
O234 O 1.00236 0.5276 0.01669 0.0
O235 O 0.03574 0.45015 0.05672 0.0
O236 O 0.04038 0.47526 0.09173 0.0
C237 C 0.10377 0.54219 0.05594 0.0
O238 O 0.03983 0.55962 0.05939 0.0
O239 O 0.01475 0.51714 0.07412 0.0
C240 C 0.03226 0.60671 0.98711 0.0
C241 C 0.98508 0.62894 0.97529 0.0
C242 C 0.98597 0.61585 0.99932 0.0
C243 C 0.00927 0.6047 1.00511 0.0
C244 C 0.03194 0.62039 0.96344 0.0
C245 C 0.00851 0.63142 0.95755 0.0
C246 C 0.05445 0.59185 0.99163 0.0
C247 C 0.07101 0.49723 0.9961 0.0
C248 C 0.98926 0.50114 1.01623 0.0
C249 C 0.06507 0.44156 0.09158 0.0
C250 C 0.11355 0.42521 0.11169 0.0
C251 C 0.11746 0.44304 0.09033 0.0
C252 C 0.09345 0.45123 0.08044 0.0
C253 C 0.061 0.42378 0.11286 0.0
C254 C 0.0851 0.41566 0.12289 0.0
C255 C 0.04048 0.45165 0.08204 0.0
H256 H 0.96804 0.61326 1.01321 0.0
H257 H 0.00881 0.59374 0.0233 0.0
H258 H 0.04934 0.62183 0.9492 0.0
H259 H 0.00851 0.64158 0.93898 0.0
H260 H 0.13921 0.45103 0.08158 0.0
H261 H 0.09712 0.46542 0.06428 0.0
H262 H 0.03931 0.41639 0.12185 0.0
H263 H 0.08145 0.40177 0.13927 0.0
H264 H 0.34019 0.22555 0.26913 0.0
H265 H 0.31707 0.2007 0.30797 0.0
H266 H 0.23212 0.21138 0.28455 0.0
H267 H 0.25483 0.23576 0.24558 0.0
H268 H 0.24556 0.22441 0.33634 0.0
H269 H 0.24488 0.15065 0.27644 0.0
H270 H 0.26762 0.12458 0.24635 0.0
H271 H 0.32462 0.11204 0.30887 0.0
H272 H 0.30249 0.13838 0.33926 0.0
H273 H 0.14696 0.132 0.41943 0.0
H274 H 0.17341 0.15698 0.38225 0.0
H275 H 0.25294 0.1357 0.40543 0.0
H276 H 0.22607 0.10916 0.44171 0.0
H277 H 0.24494 0.12914 0.35495 0.0
H278 H 0.24516 0.20128 0.41544 0.0
H279 H 0.22338 0.22779 0.44587 0.0
H280 H 0.16897 0.24433 0.38321 0.0
H281 H 0.19013 0.21759 0.35246 0.0
C282 C 0.31651 0.22232 0.2721 0.0
C283 C 0.2994 0.23278 0.25435 0.0
C284 C 0.30337 0.2082 0.29432 0.0
C285 C 0.27288 0.2042 0.29909 0.0
C286 C 0.25573 0.21442 0.28132 0.0
C287 C 0.26879 0.22844 0.25911 0.0
C288 C 0.25878 0.18968 0.32277 0.0
C289 C 0.24513 0.20347 0.34031 0.0
C290 C 0.25904 0.16267 0.32827 0.0
C291 C 0.27225 0.14673 0.31004 0.0
C292 C 0.26244 0.14253 0.28372 0.0
C293 C 0.27518 0.12767 0.26662 0.0
C294 C 0.29761 0.11673 0.27567 0.0
C295 C 0.30728 0.12056 0.30187 0.0
C296 C 0.29463 0.13544 0.31904 0.0
C297 C 0.17 0.13241 0.41655 0.0
C298 C 0.18433 0.11851 0.43364 0.0
C299 C 0.18525 0.14704 0.39544 0.0
C300 C 0.21534 0.14859 0.39124 0.0
C301 C 0.22978 0.13491 0.40833 0.0
C302 C 0.21445 0.11999 0.42928 0.0
C303 C 0.23144 0.16378 0.36855 0.0
C304 C 0.24549 0.15013 0.35115 0.0
C305 C 0.23173 0.19102 0.36327 0.0
C306 C 0.21906 0.20723 0.3817 0.0
C307 C 0.2284 0.21041 0.40819 0.0
C308 C 0.21619 0.2255 0.42549 0.0
C309 C 0.19476 0.23769 0.41649 0.0
C310 C 0.18555 0.23486 0.39015 0.0
C311 C 0.19768 0.21976 0.37277 0.0
H312 H 0.18532 0.24936 0.42992 0.0
H313 H 0.30745 0.10523 0.26241 0.0
H314 H 0.30169 0.86136 0.71645 0.0
H315 H 0.33664 0.87624 0.75337 0.0
H316 H 0.31472 0.7934 0.78111 0.0
H317 H 0.27937 0.77834 0.74405 0.0
H318 H 0.31266 0.83111 0.8201 0.0
H319 H 0.3814 0.81967 0.75653 0.0
H320 H 0.40544 0.82389 0.71338 0.0
H321 H 0.43397 0.91125 0.72217 0.0
H322 H 0.40968 0.90761 0.7652 0.0
H323 H 0.42037 0.88776 0.92207 0.0
H324 H 0.39672 0.85756 0.88527 0.0
H325 H 0.40508 0.92792 0.83651 0.0
H326 H 0.42906 0.95797 0.87286 0.0
H327 H 0.41799 0.88682 0.80956 0.0
H328 H 0.34055 0.89806 0.86771 0.0
H329 H 0.31494 0.89484 0.9101 0.0
H330 H 0.30212 0.80821 0.91072 0.0
H331 H 0.32803 0.811 0.86846 0.0
C332 C 0.30437 0.8463 0.73038 0.0
C333 C 0.28773 0.81874 0.7275 0.0
C334 C 0.32452 0.85477 0.75132 0.0
C335 C 0.32845 0.83587 0.76983 0.0
C336 C 0.31209 0.80825 0.76694 0.0
C337 C 0.29205 0.79969 0.74577 0.0
C338 C 0.34848 0.84562 0.79287 0.0
C339 C 0.33593 0.84267 0.81792 0.0
C340 C 0.3787 0.861 0.7899 0.0
C341 C 0.39356 0.86335 0.76408 0.0
C342 C 0.39262 0.8398 0.74919 0.0
C343 C 0.40632 0.84209 0.72476 0.0
C344 C 0.42119 0.86783 0.71503 0.0
C345 C 0.42244 0.89133 0.72974 0.0
C346 C 0.40874 0.88916 0.75418 0.0
C347 C 0.41754 0.89668 0.90336 0.0
C348 C 0.42621 0.92521 0.90039 0.0
C349 C 0.40393 0.87946 0.88243 0.0
C350 C 0.3989 0.89053 0.85824 0.0
C351 C 0.40872 0.91893 0.85499 0.0
C352 C 0.42215 0.93609 0.87585 0.0
C353 C 0.38186 0.87304 0.83661 0.0
C354 C 0.39497 0.8746 0.81183 0.0
C355 C 0.35212 0.85646 0.83979 0.0
C356 C 0.33657 0.85479 0.86515 0.0
C357 C 0.3325 0.87837 0.87701 0.0
C358 C 0.31789 0.87661 0.90098 0.0
C359 C 0.30701 0.85135 0.91314 0.0
C360 C 0.31064 0.82777 0.90131 0.0
C361 C 0.32528 0.82943 0.87736 0.0
H362 H 0.29569 0.85003 0.93169 0.0
H363 H 0.43179 0.86956 0.6961 0.0
H364 H 0.67324 0.43754 0.79818 0.0
H365 H 0.6669 0.45984 0.75693 0.0
H366 H 0.61295 0.38259 0.72524 0.0
H367 H 0.61952 0.36025 0.7665 0.0
H368 H 0.64896 0.41183 0.68779 0.0
H369 H 0.58059 0.42898 0.75091 0.0
H370 H 0.56616 0.44481 0.79322 0.0
H371 H 0.62243 0.52591 0.77892 0.0
H372 H 0.63751 0.51046 0.73666 0.0
H373 H 0.56834 0.45682 0.58765 0.0
H374 H 0.58444 0.43686 0.62636 0.0
H375 H 0.63377 0.5172 0.65453 0.0
H376 H 0.61717 0.53751 0.61584 0.0
H377 H 0.60343 0.48818 0.69358 0.0
H378 H 0.66948 0.47172 0.62893 0.0
H379 H 0.68221 0.45609 0.58589 0.0
H380 H 0.63014 0.3741 0.60251 0.0
H381 H 0.61675 0.38929 0.64554 0.0
C382 C 0.66033 0.42529 0.78228 0.0
C383 C 0.6465 0.39722 0.7857 0.0
C384 C 0.65657 0.43807 0.75873 0.0
C385 C 0.63891 0.42307 0.73801 0.0
C386 C 0.62651 0.39471 0.74089 0.0
C387 C 0.63024 0.38193 0.76448 0.0
C388 C 0.63223 0.4371 0.71393 0.0
C389 C 0.63878 0.42837 0.68907 0.0
C390 C 0.61952 0.45915 0.71542 0.0
C391 C 0.61042 0.46849 0.74077 0.0
C392 C 0.59006 0.45014 0.75689 0.0
C393 C 0.58174 0.45905 0.78084 0.0
C394 C 0.59344 0.48633 0.78879 0.0
C395 C 0.61343 0.50477 0.77276 0.0
C396 C 0.62186 0.49595 0.7488 0.0
C397 C 0.58279 0.47037 0.60192 0.0
C398 C 0.59148 0.49888 0.59842 0.0
C399 C 0.59214 0.45883 0.62411 0.0
C400 C 0.61072 0.47539 0.64339 0.0
C401 C 0.61953 0.50389 0.63997 0.0
C402 C 0.61011 0.5155 0.61773 0.0
C403 C 0.62007 0.4629 0.66738 0.0
C404 C 0.61392 0.47186 0.69226 0.0
C405 C 0.63317 0.4411 0.66588 0.0
C406 C 0.6419 0.4317 0.64038 0.0
C407 C 0.66064 0.45037 0.62337 0.0
C408 C 0.66797 0.44159 0.59898 0.0
C409 C 0.65688 0.41415 0.59144 0.0
C410 C 0.63866 0.39536 0.60837 0.0
C411 C 0.63123 0.40404 0.63278 0.0
H412 H 0.66237 0.40746 0.57246 0.0
H413 H 0.58696 0.49319 0.80734 0.0
H414 H 0.96251 0.70387 0.25413 0.0
H415 H 0.97955 0.67912 0.21916 0.0
H416 H 0.93237 0.60254 0.25403 0.0
H417 H 0.91534 0.62747 0.28931 0.0
H418 H 0.98583 0.59988 0.2345 0.0
H419 H 0.90256 0.62714 0.20141 0.0
H420 H 0.87343 0.65921 0.19142 0.0
H421 H 0.94387 0.70545 0.14258 0.0
H422 H 0.97362 0.67386 0.15258 0.0
H423 H 0.98916 0.51932 0.11898 0.0
H424 H 0.97308 0.54126 0.15674 0.0
H425 H 0.01421 0.62041 0.12386 0.0
H426 H 0.02996 0.59866 0.086 0.0
H427 H 0.96228 0.62017 0.14304 0.0
H428 H 0.04604 0.59363 0.17654 0.0
H429 H 0.07547 0.56181 0.18649 0.0
H430 H 1.00468 0.51444 0.23435 0.0
H431 H 0.97463 0.5458 0.22438 0.0
C432 C 0.95619 0.68176 0.25468 0.0
C433 C 0.93763 0.6677 0.2747 0.0
C434 C 0.96576 0.66755 0.23445 0.0
C435 C 0.95693 0.63878 0.23345 0.0
C436 C 0.93952 0.62467 0.25412 0.0
C437 C 0.92986 0.63894 0.27439 0.0
C438 C 0.96489 0.62368 0.21035 0.0
C439 C 0.98028 0.60408 0.21454 0.0
C440 C 0.95828 0.62927 0.18406 0.0
C441 C 0.94043 0.64828 0.17795 0.0
C442 C 0.91194 0.64427 0.1887 0.0
C443 C 0.8953 0.66234 0.18301 0.0
C444 C 0.90682 0.6844 0.16643 0.0
C445 C 0.93499 0.68838 0.15545 0.0
C446 C 0.95174 0.67039 0.16111 0.0
C447 C 0.99472 0.5414 0.11968 0.0
C448 C 0.01101 0.55709 0.09924 0.0
C449 C 0.98565 0.55401 0.14149 0.0
C450 C 0.99267 0.5827 0.14363 0.0
C451 C 0.00844 0.59831 0.12298 0.0
C452 C 0.01755 0.58576 0.10123 0.0
C453 C 0.98353 0.59653 0.1671 0.0
C454 C 0.96784 0.6159 0.16298 0.0
C455 C 0.98993 0.59074 0.19341 0.0
C456 C 0.00795 0.57189 0.19947 0.0
C457 C 0.03664 0.57631 0.18901 0.0
C458 C 0.05346 0.55837 0.19469 0.0
C459 C 0.04192 0.53607 0.21098 0.0
C460 C 0.01357 0.5317 0.22169 0.0
C461 C 0.99664 0.54955 0.21605 0.0
H462 H 0.05498 0.52221 0.21536 0.0
H463 H 0.8939 0.69836 0.16204 0.0
H464 H 0.41495 0.24412 0.15124 0.0
H465 H 0.44608 0.21458 0.13967 0.0
H466 H 0.36728 0.14513 0.13492 0.0
H467 H 0.33635 0.17447 0.14718 0.0
H468 H 0.411 0.13104 0.15841 0.0
H469 H 0.4006 0.17934 0.08026 0.0
H470 H 0.40391 0.2191 0.05215 0.0
H471 H 0.49912 0.24629 0.06416 0.0
H472 H 0.49632 0.20696 0.09277 0.0
H473 H 0.46365 0.04239 0.07531 0.0
H474 H 0.43742 0.07234 0.09533 0.0
H475 H 0.52113 0.13528 0.10617 0.0
H476 H 0.54759 0.10552 0.0862 0.0
H477 H 0.47767 0.15358 0.08176 0.0
H478 H 0.4872 0.10258 0.15826 0.0
H479 H 0.48267 0.0608 0.18371 0.0
H480 H 0.38742 0.03669 0.17193 0.0
H481 H 0.39141 0.07815 0.14607 0.0
C482 C 0.40444 0.22248 0.148 0.0
C483 C 0.37337 0.21148 0.1503 0.0
C484 C 0.42215 0.20567 0.14123 0.0
C485 C 0.40897 0.17768 0.13615 0.0
C486 C 0.37795 0.16664 0.13881 0.0
C487 C 0.3603 0.1834 0.14575 0.0
C488 C 0.4273 0.1599 0.12756 0.0
C489 C 0.42538 0.13587 0.14151 0.0
C490 C 0.44653 0.16644 0.1058 0.0
C491 C 0.44818 0.19041 0.089 0.0
C492 C 0.4222 0.19398 0.07719 0.0
C493 C 0.42399 0.21641 0.06111 0.0
C494 C 0.45169 0.23528 0.05647 0.0
C495 C 0.47766 0.23173 0.06786 0.0
C496 C 0.47598 0.20938 0.08403 0.0
C497 C 0.47654 0.06249 0.08219 0.0
C498 C 0.5077 0.0716 0.0791 0.0
C499 C 0.46153 0.07953 0.09374 0.0
C500 C 0.47739 0.10595 0.10233 0.0
C501 C 0.50853 0.11492 0.0997 0.0
C502 C 0.52359 0.09784 0.08835 0.0
C503 C 0.46124 0.1248 0.11253 0.0
C504 C 0.46352 0.14897 0.09883 0.0
C505 C 0.44214 0.11823 0.1343 0.0
C506 C 0.43964 0.09337 0.15002 0.0
C507 C 0.46531 0.08827 0.16092 0.0
C508 C 0.46283 0.06466 0.17545 0.0
C509 C 0.43478 0.04607 0.17938 0.0
C510 C 0.40914 0.0511 0.16885 0.0
C511 C 0.41149 0.07467 0.15427 0.0
H512 H 0.43292 0.02779 0.19063 0.0
H513 H 0.45304 0.2526 0.04396 0.0
H514 H 0.2381 0.87451 0.68298 0.0
H515 H 0.20584 0.90295 0.67203 0.0
H516 H 0.13507 0.8312 0.64913 0.0
H517 H 0.16669 0.8023 0.66112 0.0
H518 H 0.14818 0.87465 0.61168 0.0
H519 H 0.12705 0.86004 0.70344 0.0
H520 H 0.14009 0.85954 0.75044 0.0
H521 H 0.1833 0.94592 0.74919 0.0
H522 H 0.1709 0.94686 0.70205 0.0
H523 H 0.03661 0.9419 0.59461 0.0
H524 H 0.06123 0.91023 0.61413 0.0
H525 H 0.13618 0.97815 0.638 0.0
H526 H 0.11203 1.00991 0.61799 0.0
H527 H 0.11849 0.93501 0.67613 0.0
H528 H 0.14283 0.95101 0.58619 0.0
H529 H 0.13289 0.95395 0.53891 0.0
H530 H 0.08992 0.86767 0.53534 0.0
H531 H 0.0979 0.86435 0.58302 0.0
C532 C 0.21548 0.86462 0.67615 0.0
C533 C 0.20501 0.83601 0.67309 0.0
C534 C 0.19716 0.88097 0.66974 0.0
C535 C 0.16809 0.86912 0.65991 0.0
C536 C 0.1575 0.84068 0.65667 0.0
C537 C 0.17569 0.82424 0.6634 0.0
C538 C 0.14912 0.88663 0.65236 0.0
C539 C 0.14112 0.88743 0.62581 0.0
C540 C 0.14091 0.90394 0.67077 0.0
C541 C 0.14827 0.90346 0.69915 0.0
C542 C 0.13955 0.87889 0.71312 0.0
C543 C 0.14679 0.87853 0.7398 0.0
C544 C 0.16258 0.90267 0.75278 0.0
C545 C 0.1711 0.92723 0.73911 0.0
C546 C 0.16394 0.92769 0.71241 0.0
C547 C 0.05804 0.95011 0.6045 0.0
C548 C 0.07256 0.97832 0.60466 0.0
C549 C 0.07207 0.93201 0.61557 0.0
C550 C 0.10054 0.94192 0.62731 0.0
C551 C 0.11418 0.97018 0.62903 0.0
C552 C 0.10045 0.98825 0.6175 0.0
C553 C 0.11732 0.92281 0.6355 0.0
C554 C 0.12512 0.92188 0.66207 0.0
C555 C 0.12578 0.90568 0.61704 0.0
C556 C 0.12041 0.90754 0.58838 0.0
C557 C 0.13059 0.93273 0.57551 0.0
C558 C 0.12525 0.93446 0.54861 0.0
C559 C 0.11034 0.91104 0.5342 0.0
C560 C 0.10087 0.88583 0.54666 0.0
C561 C 0.1057 0.88403 0.57364 0.0
H562 H 0.10637 0.91236 0.51334 0.0
H563 H 0.16815 0.90236 0.77344 0.0
H564 H 0.72212 0.39271 0.92476 0.0
H565 H 0.76823 0.41882 0.94757 0.0
H566 H 0.81609 0.42521 0.87503 0.0
H567 H 0.76991 0.39943 0.85206 0.0
H568 H 0.84229 0.40428 0.91656 0.0
H569 H 0.80596 0.4801 0.89853 0.0
H570 H 0.77089 0.50801 0.89768 0.0
H571 H 0.77009 0.50928 0.98192 0.0
H572 H 0.80478 0.48093 0.9833 0.0
H573 H 0.96164 0.52841 0.98294 0.0
H574 H 0.91526 0.50994 0.95774 0.0
H575 H 0.90285 0.4316 0.99415 0.0
H576 H 0.94989 0.44968 0.01862 0.0
H577 H 0.85984 0.49068 0.96753 0.0
H578 H 0.86491 0.37986 0.95413 0.0
H579 H 0.90138 0.35356 0.95009 0.0
H580 H 0.96724 0.42495 0.92279 0.0
H581 H 0.93102 0.45164 0.92641 0.0
C582 C 0.7424 0.40008 0.91363 0.0
C583 C 0.74245 0.39405 0.88664 0.0
C584 C 0.76868 0.41506 0.92665 0.0
C585 C 0.79561 0.42398 0.91301 0.0
C586 C 0.79555 0.41857 0.88592 0.0
C587 C 0.76915 0.40399 0.87279 0.0
C588 C 0.82418 0.43693 0.92741 0.0
C589 C 0.84616 0.42318 0.92772 0.0
C590 C 0.82932 0.46173 0.94173 0.0
C591 C 0.80767 0.47802 0.941 0.0
C592 C 0.79794 0.48592 0.91688 0.0
C593 C 0.77821 0.50193 0.9163 0.0
C594 C 0.76817 0.51032 0.93973 0.0
C595 C 0.77782 0.5027 0.96379 0.0
C596 C 0.79752 0.48666 0.96447 0.0
C597 C 0.94901 0.50726 0.98569 0.0
C598 C 0.95968 0.49049 1.00271 0.0
C599 C 0.9224 0.49669 0.97123 0.0
C600 C 0.90566 0.46915 0.97352 0.0
C601 C 0.91567 0.45269 0.99135 0.0
C602 C 0.94252 0.46313 1.00554 0.0
C603 C 0.87797 0.45775 0.95714 0.0
C604 C 0.85605 0.47173 0.95647 0.0
C605 C 0.87295 0.43323 0.94222 0.0
C606 C 0.89532 0.41778 0.94075 0.0
C607 C 0.88719 0.38995 0.94729 0.0
C608 C 0.90779 0.37498 0.94506 0.0
C609 C 0.93658 0.38757 0.93619 0.0
C610 C 0.94493 0.41524 0.92971 0.0
C611 C 0.92438 0.43033 0.93189 0.0
H612 H 0.9523 0.37577 0.93422 0.0
H613 H 0.75299 0.52281 0.93924 0.0
H614 H 0.85964 0.62917 0.38151 0.0
H615 H 0.81461 0.60318 0.4044 0.0
H616 H 0.78798 0.67662 0.41413 0.0
H617 H 0.83204 0.70244 0.39064 0.0
H618 H 0.78644 0.64857 0.46073 0.0
H619 H 0.75205 0.62902 0.3709 0.0
H620 H 0.75407 0.61204 0.32573 0.0
H621 H 0.74843 0.53219 0.355 0.0
H622 H 0.7468 0.54882 0.4004 0.0
H623 H 0.6381 0.60523 0.50301 0.0
H624 H 0.68409 0.62394 0.47909 0.0
H625 H 0.69245 0.54283 0.46743 0.0
H626 H 0.64569 0.52371 0.49102 0.0
H627 H 0.70602 0.57082 0.42339 0.0
H628 H 0.73746 0.58836 0.5125 0.0
H629 H 0.73636 0.60433 0.55816 0.0
H630 H 0.74955 0.68637 0.53148 0.0
H631 H 0.75031 0.67083 0.4856 0.0
C632 C 0.84396 0.63973 0.38808 0.0
C633 C 0.84989 0.6681 0.3844 0.0
C634 C 0.81824 0.62482 0.40132 0.0
C635 C 0.79792 0.63794 0.41121 0.0
C636 C 0.80342 0.66604 0.40699 0.0
C637 C 0.82883 0.68084 0.3936 0.0
C638 C 0.77135 0.62289 0.42667 0.0
C639 C 0.76873 0.63173 0.45247 0.0
C640 C 0.7487 0.60024 0.41633 0.0
C641 C 0.74968 0.59025 0.38906 0.0
C642 C 0.75154 0.60791 0.36772 0.0
C643 C 0.75254 0.59833 0.34207 0.0
C644 C 0.75148 0.57108 0.3375 0.0
C645 C 0.74931 0.55331 0.35857 0.0
C646 C 0.74833 0.5628 0.38426 0.0
C647 C 0.64969 0.59124 0.49555 0.0
C648 C 0.63811 0.56288 0.49921 0.0
C649 C 0.6762 0.60206 0.48187 0.0
C650 C 0.69223 0.58494 0.4717 0.0
C651 C 0.68067 0.55656 0.47512 0.0
C652 C 0.65395 0.54565 0.48876 0.0
C653 C 0.72076 0.5969 0.45733 0.0
C654 C 0.72382 0.58749 0.43179 0.0
C655 C 0.74407 0.61888 0.468 0.0
C656 C 0.7437 0.62837 0.49558 0.0
C657 C 0.73991 0.60977 0.51635 0.0
C658 C 0.73938 0.61876 0.54227 0.0
C659 C 0.74282 0.64634 0.54771 0.0
C660 C 0.74687 0.66501 0.52724 0.0
C661 C 0.74738 0.65613 0.50127 0.0
H662 H 0.74241 0.65325 0.5678 0.0
H663 H 0.75225 0.5637 0.31763 0.0
H664 H 0.3049 0.32695 0.23121 0.0
H665 H 0.27687 0.35826 0.21727 0.0
H666 H 0.2763 0.32972 0.13736 0.0
H667 H 0.30351 0.29778 0.15116 0.0
H668 H 0.28349 0.38791 0.14323 0.0
H669 H 0.22036 0.29971 0.17151 0.0
H670 H 0.20487 0.26244 0.20342 0.0
H671 H 0.18714 0.31823 0.26006 0.0
H672 H 0.20309 0.35596 0.22861 0.0
H673 H 0.15422 0.40777 0.08394 0.0
H674 H 0.19559 0.39241 0.10107 0.0
H675 H 0.17254 0.40854 0.18013 0.0
H676 H 0.13059 0.42333 0.163 0.0
H677 H 0.18056 0.36103 0.17815 0.0
H678 H 0.24149 0.44912 0.15142 0.0
H679 H 0.26114 0.48836 0.12227 0.0
H680 H 0.2834 0.43562 0.06505 0.0
H681 H 0.26462 0.39618 0.09414 0.0
C682 C 0.29911 0.32755 0.21062 0.0
C683 C 0.30601 0.30954 0.19237 0.0
C684 C 0.28331 0.34558 0.20268 0.0
C685 C 0.2743 0.34601 0.17637 0.0
C686 C 0.28317 0.32968 0.15776 0.0
C687 C 0.29879 0.31149 0.1657 0.0
C688 C 0.25261 0.3608 0.16881 0.0
C689 C 0.26093 0.38205 0.15072 0.0
C690 C 0.22347 0.3535 0.17916 0.0
C691 C 0.21323 0.3307 0.19783 0.0
C692 C 0.21336 0.30406 0.19084 0.0
C693 C 0.20449 0.28285 0.20883 0.0
C694 C 0.19511 0.28798 0.23378 0.0
C695 C 0.19447 0.3143 0.24074 0.0
C696 C 0.20343 0.33561 0.22285 0.0
C697 C 0.15819 0.40831 0.10495 0.0
C698 C 0.13912 0.41661 0.12215 0.0
C699 C 0.18201 0.39975 0.11474 0.0
C700 C 0.18755 0.39973 0.1419 0.0
C701 C 0.16875 0.4084 0.1591 0.0
C702 C 0.14469 0.41668 0.14932 0.0
C703 C 0.21123 0.38834 0.15234 0.0
C704 C 0.20322 0.36743 0.1709 0.0
C705 C 0.24073 0.39621 0.14263 0.0
C706 C 0.25143 0.41969 0.12484 0.0
C707 C 0.25042 0.44588 0.13255 0.0
C708 C 0.2615 0.46816 0.11609 0.0
C709 C 0.2732 0.46443 0.09172 0.0
C710 C 0.27423 0.43846 0.08389 0.0
C711 C 0.26358 0.41618 0.10043 0.0
H712 H 0.28162 0.4817 0.07897 0.0
H713 H 0.18827 0.27154 0.24769 0.0
H714 H 0.70809 0.29847 0.89489 0.0
H715 H 0.68826 0.25495 0.91668 0.0
H716 H 0.59848 0.25549 0.89658 0.0
H717 H 0.61829 0.30001 0.87551 0.0
H718 H 0.60081 0.23977 0.94616 0.0
H719 H 0.63333 0.21288 0.86451 0.0
H720 H 0.66824 0.21366 0.82845 0.0
H721 H 0.72914 0.19202 0.88206 0.0
H722 H 0.69478 0.19147 0.91853 0.0
H723 H 0.53696 0.10037 0.98176 0.0
H724 H 0.55337 0.14314 0.95778 0.0
H725 H 0.64511 0.14955 0.97785 0.0
H726 H 0.62888 0.10652 1.00176 0.0
H727 H 0.63945 0.16101 0.92686 0.0
H728 H 0.6067 0.18884 1.00871 0.0
H729 H 0.57119 0.18762 0.04437 0.0
H730 H 0.50974 0.20696 0.98975 0.0
H731 H 0.54469 0.20785 0.95364 0.0
C732 C 0.68407 0.28954 0.89518 0.0
C733 C 0.66483 0.30305 0.88354 0.0
C734 C 0.67274 0.26435 0.90745 0.0
C735 C 0.6418 0.25158 0.90813 0.0
C736 C 0.62244 0.26481 0.89633 0.0
C737 C 0.63381 0.29019 0.88406 0.0
C738 C 0.62997 0.22475 0.92164 0.0
C739 C 0.60889 0.22241 0.94159 0.0
C740 C 0.64087 0.20212 0.9162 0.0
C741 C 0.66158 0.20236 0.8943 0.0
C742 C 0.65427 0.20848 0.86865 0.0
C743 C 0.67394 0.20885 0.84813 0.0
C744 C 0.70092 0.20295 0.85297 0.0
C745 C 0.70825 0.1966 0.87834 0.0
C746 C 0.68866 0.19623 0.89894 0.0
C747 C 0.56067 0.11083 0.98116 0.0
C748 C 0.58157 0.09988 0.99382 0.0
C749 C 0.57001 0.13545 0.96749 0.0
C750 C 0.6005 0.14987 0.96616 0.0
C751 C 0.62146 0.1389 0.97858 0.0
C752 C 0.61212 0.11427 0.99233 0.0
C753 C 0.61055 0.17613 0.95152 0.0
C754 C 0.63128 0.17834 0.93134 0.0
C755 C 0.59921 0.19855 0.95669 0.0
C756 C 0.5782 0.19813 0.9784 0.0
C757 C 0.58551 0.1926 1.00425 0.0
C758 C 0.56549 0.19201 0.02455 0.0
C759 C 0.53819 0.19714 0.01932 0.0
C760 C 0.53088 0.20294 0.99377 0.0
C761 C 0.55079 0.20351 0.97338 0.0
H762 H 0.52273 0.19668 0.03507 0.0
H763 H 0.71612 0.20325 0.83706 0.0
H764 H 0.89105 0.7663 0.38395 0.0
H765 H 0.91084 0.80943 0.40797 0.0
H766 H 0.99797 0.79643 0.41111 0.0
H767 H 0.978 0.75277 0.38713 0.0
H768 H 0.98229 0.81197 0.45916 0.0
H769 H 0.98375 0.84543 0.37139 0.0
H770 H 0.96268 0.85008 0.32764 0.0
H771 H 0.89665 0.88214 0.36286 0.0
H772 H 0.91707 0.87734 0.40687 0.0
H773 H 0.05574 0.94661 0.5103 0.0
H774 H 0.04059 0.90476 0.48342 0.0
H775 H 0.95176 0.9133 0.4754 0.0
H776 H 0.96672 0.95509 0.50231 0.0
H777 H 0.97043 0.90025 0.42886 0.0
H778 H 0.96877 0.86841 0.51619 0.0
H779 H 0.98707 0.86205 0.56053 0.0
H780 H 0.04941 0.82395 0.5277 0.0
H781 H 0.03273 0.83146 0.48306 0.0
C782 C 0.91453 0.77268 0.38951 0.0
C783 C 0.93289 0.75592 0.38355 0.0
C784 C 0.92589 0.79752 0.40321 0.0
C785 C 0.95603 0.80652 0.4114 0.0
C786 C 0.97464 0.79009 0.40507 0.0
C787 C 0.96328 0.76521 0.39112 0.0
C788 C 0.96757 0.83248 0.42731 0.0
C789 C 0.98031 0.83142 0.4523 0.0
C790 C 0.96403 0.85778 0.41891 0.0
C791 C 0.9518 0.86081 0.39245 0.0
C792 C 0.9646 0.85329 0.36982 0.0
C793 C 0.9528 0.85598 0.34497 0.0
C794 C 0.9283 0.86634 0.34247 0.0
C795 C 0.91561 0.8741 0.36483 0.0
C796 C 0.92731 0.87142 0.38973 0.0
C797 C 0.03295 0.93963 0.50284 0.0
C798 C 0.0125 0.95442 0.50858 0.0
C799 C 0.02425 0.91553 0.4875 0.0
C800 C 0.99489 0.90555 0.47733 0.0
C801 C 0.97453 0.92041 0.48288 0.0
C802 C 0.98312 0.94435 0.49842 0.0
C803 C 0.98539 0.87987 0.46076 0.0
C804 C 0.97284 0.88094 0.43568 0.0
C805 C 0.98891 0.85453 0.46924 0.0
C806 C 0.99983 0.85099 0.49614 0.0
C807 C 0.98687 0.85925 0.51833 0.0
C808 C 0.99697 0.85544 0.54357 0.0
C809 C 0.01958 0.84283 0.54694 0.0
C810 C 0.0321 0.83397 0.52507 0.0
C811 C 0.02248 0.83819 0.49978 0.0
H812 H 0.02729 0.83978 0.56649 0.0
H813 H 0.9192 0.86841 0.32322 0.0
H814 H 0.26052 0.71019 0.61842 0.0
H815 H 0.30365 0.6921 0.6205 0.0
H816 H 0.35901 0.77022 0.64932 0.0
H817 H 0.3158 0.78844 0.64681 0.0
H818 H 0.38545 0.75133 0.61005 0.0
H819 H 0.33875 0.71563 0.68983 0.0
H820 H 0.2974 0.69162 0.71828 0.0
H821 H 0.28666 0.61732 0.67426 0.0
H822 H 0.32765 0.64098 0.64526 0.0
H823 H 0.50796 0.69577 0.62384 0.0
H824 H 0.46931 0.71726 0.63556 0.0
H825 H 0.40103 0.64479 0.60979 0.0
H826 H 0.43935 0.62274 0.59925 0.0
H827 H 0.38452 0.66454 0.65341 0.0
H828 H 0.4259 0.70185 0.57033 0.0
H829 H 0.46647 0.72572 0.541 0.0
H830 H 0.48647 0.79689 0.59107 0.0
H831 H 0.44624 0.77329 0.62088 0.0
C832 C 0.28191 0.7234 0.62524 0.0
C833 C 0.28514 0.75077 0.632 0.0
C834 C 0.30646 0.71304 0.62663 0.0
C835 C 0.33453 0.72977 0.63523 0.0
C836 C 0.33758 0.75699 0.64258 0.0
C837 C 0.31301 0.76736 0.64114 0.0
C838 C 0.3609 0.71913 0.63512 0.0
C839 C 0.38552 0.73266 0.61999 0.0
C840 C 0.36076 0.69452 0.64774 0.0
C841 C 0.33618 0.68015 0.66524 0.0
C842 C 0.32744 0.69422 0.68608 0.0
C843 C 0.30408 0.68066 0.70233 0.0
C844 C 0.28938 0.65297 0.69806 0.0
C845 C 0.29806 0.63877 0.67755 0.0
C846 C 0.32139 0.65224 0.66121 0.0
C847 C 0.4847 0.68425 0.62106 0.0
C848 C 0.47677 0.65763 0.6103 0.0
C849 C 0.46264 0.69666 0.62756 0.0
C850 C 0.43228 0.6828 0.62316 0.0
C851 C 0.42431 0.65594 0.61325 0.0
C852 C 0.44628 0.64347 0.60693 0.0
C853 C 0.40869 0.69641 0.62784 0.0
C854 C 0.38461 0.68344 0.64383 0.0
C855 C 0.40925 0.72149 0.61595 0.0
C856 C 0.43332 0.73571 0.59797 0.0
C857 C 0.4391 0.72252 0.57517 0.0
C858 C 0.462 0.73601 0.55845 0.0
C859 C 0.4791 0.76277 0.56421 0.0
C860 C 0.47326 0.77614 0.58666 0.0
C861 C 0.4504 0.76272 0.60347 0.0
H862 H 0.49682 0.77318 0.55124 0.0
H863 H 0.2713 0.64251 0.71066 0.0
H864 H 0.80333 0.80151 0.84168 0.0
H865 H 0.82928 0.81865 0.80131 0.0
H866 H 0.74772 0.8287 0.76815 0.0
H867 H 0.72122 0.81049 0.80816 0.0
H868 H 0.77904 0.80993 0.7315 0.0
H869 H 0.79902 0.88238 0.79601 0.0
H870 H 0.81535 0.90413 0.83917 0.0
H871 H 0.90303 0.89522 0.82801 0.0
H872 H 0.88707 0.87305 0.78492 0.0
H873 H 0.84021 0.91419 0.63843 0.0
H874 H 0.81377 0.8844 0.67306 0.0
H875 H 0.89776 0.8778 0.70407 0.0
H876 H 0.9244 0.90834 0.67013 0.0
H877 H 0.86611 0.89249 0.74131 0.0
H878 H 0.84641 0.82297 0.67444 0.0
H879 H 0.82933 0.80215 0.63106 0.0
H880 H 0.74063 0.80666 0.64599 0.0
H881 H 0.75726 0.82786 0.68933 0.0
C882 C 0.79069 0.80677 0.82562 0.0
C883 C 0.7602 0.80477 0.82823 0.0
C884 C 0.80565 0.81681 0.80262 0.0
C885 C 0.79054 0.82534 0.78189 0.0
C886 C 0.75984 0.82233 0.78396 0.0
C887 C 0.74481 0.81218 0.80693 0.0
C888 C 0.80712 0.8389 0.75874 0.0
C889 C 0.79794 0.82811 0.73357 0.0
C890 C 0.83208 0.86234 0.76152 0.0
C891 C 0.84176 0.87579 0.78737 0.0
C892 C 0.82172 0.88487 0.80285 0.0
C893 C 0.83091 0.8973 0.82729 0.0
C894 C 0.86019 0.90098 0.83636 0.0
C895 C 0.88035 0.89231 0.82098 0.0
C896 C 0.87125 0.87982 0.79654 0.0
C897 C 0.85303 0.90618 0.65248 0.0
C898 C 0.88444 0.91379 0.6516 0.0
C899 C 0.83786 0.88893 0.67211 0.0
C900 C 0.85378 0.87877 0.69111 0.0
C901 C 0.88502 0.88537 0.68959 0.0
C902 C 0.90021 0.90265 0.67001 0.0
C903 C 0.8382 0.8635 0.71394 0.0
C904 C 0.84746 0.87411 0.73914 0.0
C905 C 0.81325 0.84004 0.71109 0.0
C906 C 0.80316 0.82723 0.68506 0.0
C907 C 0.82332 0.81973 0.66839 0.0
C908 C 0.8137 0.80781 0.64382 0.0
C909 C 0.78393 0.80314 0.63575 0.0
C910 C 0.76369 0.81031 0.65226 0.0
C911 C 0.77319 0.82225 0.67684 0.0
H912 H 0.77653 0.79391 0.61672 0.0
H913 H 0.86727 0.91062 0.85528 0.0
H914 H 0.79481 0.24769 0.34781 0.0
H915 H 0.76411 0.23101 0.30859 0.0
H916 H 0.8402 0.21692 0.27026 0.0
H917 H 0.87136 0.23451 0.3091 0.0
H918 H 0.80728 0.23772 0.23645 0.0
H919 H 0.78933 0.16499 0.299 0.0
H920 H 0.77586 0.14359 0.34204 0.0
H921 H 0.68929 0.15669 0.33572 0.0
H922 H 0.70242 0.17853 0.29278 0.0
H923 H 0.73519 0.13319 0.14385 0.0
H924 H 0.76508 0.16261 0.17825 0.0
H925 H 0.68507 0.17464 0.21094 0.0
H926 H 0.65501 0.14557 0.17633 0.0
H927 H 0.71825 0.15773 0.24737 0.0
H928 H 0.73535 0.22693 0.18215 0.0
H929 H 0.74942 0.24727 0.13879 0.0
H930 H 0.83799 0.23968 0.14943 0.0
H931 H 0.82433 0.21891 0.19273 0.0
C932 C 0.80518 0.24152 0.33088 0.0
C933 C 0.83551 0.24224 0.33165 0.0
C934 C 0.78753 0.23179 0.30855 0.0
C935 C 0.79978 0.22238 0.28665 0.0
C936 C 0.83027 0.224 0.28698 0.0
C937 C 0.84796 0.23378 0.30928 0.0
C938 C 0.78052 0.20954 0.26393 0.0
C939 C 0.78793 0.2201 0.23876 0.0
C940 C 0.75497 0.18688 0.26706 0.0
C941 C 0.74698 0.17367 0.29282 0.0
C942 C 0.76751 0.16351 0.30689 0.0
C943 C 0.75993 0.15127 0.33125 0.0
C944 C 0.73177 0.14886 0.34165 0.0
C945 C 0.71111 0.15862 0.32767 0.0
C946 C 0.71861 0.17092 0.30331 0.0
C947 C 0.724 0.14266 0.15792 0.0
C948 C 0.69268 0.13688 0.15742 0.0
C949 C 0.74113 0.15944 0.17763 0.0
C950 C 0.72729 0.17084 0.19714 0.0
C951 C 0.69617 0.16596 0.19613 0.0
C952 C 0.67904 0.14926 0.1764 0.0
C953 C 0.74498 0.18584 0.2198 0.0
C954 C 0.73735 0.17557 0.24501 0.0
C955 C 0.77039 0.20862 0.21663 0.0
C956 C 0.77872 0.22113 0.19061 0.0
C957 C 0.75775 0.22938 0.17516 0.0
C958 C 0.76567 0.24103 0.15061 0.0
C959 C 0.79456 0.24471 0.14133 0.0
C960 C 0.81561 0.23679 0.15663 0.0
C961 C 0.8078 0.22511 0.1812 0.0
H962 H 0.80065 0.25374 0.12232 0.0
H963 H 0.72593 0.13936 0.36051 0.0
H964 H 0.46601 0.69429 0.30046 0.0
H965 H 0.47544 0.67752 0.34386 0.0
H966 H 0.44258 0.5945 0.31498 0.0
H967 H 0.43254 0.61124 0.27196 0.0
H968 H 0.42457 0.59631 0.36314 0.0
H969 H 0.51907 0.62942 0.32072 0.0
H970 H 0.5599 0.66307 0.29846 0.0
H971 H 0.57321 0.71626 0.366 0.0
H972 H 0.53216 0.68305 0.38855 0.0
H973 H 0.50154 0.52862 0.44926 0.0
H974 H 0.48396 0.54956 0.41166 0.0
H975 H 0.50319 0.62602 0.45422 0.0
H976 H 0.52031 0.60501 0.49227 0.0
H977 H 0.52675 0.6302 0.4019 0.0
H978 H 0.43398 0.59343 0.44544 0.0
H979 H 0.39447 0.55781 0.467 0.0
H980 H 0.37939 0.50928 0.39622 0.0
H981 H 0.41915 0.54444 0.37434 0.0
C982 C 0.4604 0.67247 0.30358 0.0
C983 C 0.44859 0.65411 0.28278 0.0
C984 C 0.46603 0.66286 0.32832 0.0
C985 C 0.46028 0.63465 0.33276 0.0
C986 C 0.44734 0.61632 0.31223 0.0
C987 C 0.44161 0.62592 0.28757 0.0
C988 C 0.46857 0.62415 0.35835 0.0
C989 C 0.44701 0.60363 0.37143 0.0
C990 C 0.49768 0.63388 0.3697 0.0
C991 C 0.52231 0.65391 0.35619 0.0
C992 C 0.53054 0.6484 0.33074 0.0
C993 C 0.55375 0.66737 0.31809 0.0
C994 C 0.56907 0.69183 0.33077 0.0
C995 C 0.56127 0.69733 0.35617 0.0
C996 C 0.53804 0.67844 0.3689 0.0
C997 C 0.50178 0.54983 0.45079 0.0
C998 C 0.51232 0.56508 0.47388 0.0
C999 C 0.49165 0.56177 0.42924 0.0
C1000 C 0.49219 0.58939 0.43004 0.0
C1001 C 0.50253 0.60469 0.4531 0.0
C1002 C 0.51216 0.59259 0.4749 0.0
C1003 C 0.48283 0.60231 0.40644 0.0
C1004 C 0.50424 0.62317 0.3937 0.0
C1005 C 0.45371 0.59266 0.39526 0.0
C1006 C 0.42975 0.57147 0.40833 0.0
C1007 C 0.42243 0.57505 0.43454 0.0
C1008 C 0.39995 0.55497 0.44681 0.0
C1009 C 0.38448 0.53126 0.43301 0.0
C1010 C 0.39142 0.52763 0.4069 0.0
C1011 C 0.41391 0.54765 0.39454 0.0
H1012 H 0.36707 0.51574 0.44254 0.0
H1013 H 0.58705 0.70649 0.32095 0.0
H1014 H 0.14497 0.41375 0.77248 0.0
H1015 H 0.12982 0.43395 0.81158 0.0
H1016 H 0.13446 0.36424 0.85673 0.0
H1017 H 0.1485 0.3434 0.81706 0.0
H1018 H 0.09052 0.37947 0.87451 0.0
H1019 H 0.19148 0.42961 0.85814 0.0
H1020 H 0.23419 0.45625 0.83244 0.0
H1021 H 0.19058 0.51865 0.82056 0.0
H1022 H 0.1474 0.4922 0.84589 0.0
H1023 H 0.09085 0.45112 0.99718 0.0
H1024 H 0.10661 0.42777 0.96018 0.0
H1025 H 0.09184 0.48821 0.90739 0.0
H1026 H 0.07631 0.51167 0.94413 0.0
H1027 H 0.14306 0.47651 0.89555 0.0
H1028 H 0.04227 0.42472 0.91502 0.0
H1029 H 1.00345 0.39866 0.9446 0.0
H1030 H 0.04975 0.33777 0.95293 0.0
H1031 H 0.08988 0.36431 0.92454 0.0
C1032 C 0.14262 0.40259 0.7907 0.0
C1033 C 0.14824 0.37697 0.79153 0.0
C1034 C 0.13414 0.41432 0.81325 0.0
C1035 C 0.13175 0.40123 0.83769 0.0
C1036 C 0.13627 0.37509 0.83837 0.0
C1037 C 0.14428 0.36309 0.8156 0.0
C1038 C 0.125 0.41503 0.86232 0.0
C1039 C 0.1024 0.40057 0.87922 0.0
C1040 C 0.1401 0.44274 0.86884 0.0
C1041 C 0.16609 0.4588 0.85372 0.0
C1042 C 0.19092 0.44893 0.84991 0.0
C1043 C 0.21522 0.46401 0.83542 0.0
C1044 C 0.21507 0.48909 0.82483 0.0
C1045 C 0.19065 0.4992 0.82876 0.0
C1046 C 0.16627 0.48419 0.84319 0.0
C1047 C 0.09109 0.45958 0.97773 0.0
C1048 C 0.08211 0.48338 0.97386 0.0
C1049 C 0.10003 0.44607 0.95647 0.0
C1050 C 0.10022 0.45591 0.93067 0.0
C1051 C 0.09196 0.48002 0.92692 0.0
C1052 C 0.08294 0.49344 0.94809 0.0
C1053 C 0.10841 0.44108 0.90747 0.0
C1054 C 0.1313 0.45537 0.89085 0.0
C1055 C 0.09392 0.41313 0.90152 0.0
C1056 C 0.06929 0.3967 0.91786 0.0
C1057 C 0.04434 0.40589 0.92331 0.0
C1058 C 0.02207 0.39102 0.93988 0.0
C1059 C 0.02397 0.36646 0.95051 0.0
C1060 C 0.04829 0.3568 0.94468 0.0
C1061 C 0.07091 0.37184 0.92847 0.0
H1062 H 0.00663 0.35494 0.96327 0.0
H1063 H 0.2339 0.50073 0.81361 0.0
H1064 H 0.66967 0.8222 0.86395 0.0
H1065 H 0.6427 0.85266 0.88197 0.0
H1066 H 0.68745 0.85367 0.95672 0.0
H1067 H 0.71462 0.82347 0.93886 0.0
H1068 H 0.62864 0.84996 0.96274 0.0
H1069 H 0.71215 0.90513 0.91416 0.0
H1070 H 0.74316 0.9183 0.87494 0.0
H1071 H 0.66821 0.93082 0.83259 0.0
H1072 H 0.63662 0.91731 0.87147 0.0
H1073 H 0.62077 0.97094 0.02393 0.0
H1074 H 0.63889 0.93665 1.0016 0.0
H1075 H 0.58557 0.94161 0.93311 0.0
H1076 H 0.56715 0.97614 0.95534 0.0
H1077 H 0.64329 0.9403 0.92121 0.0
H1078 H 0.56123 0.88994 0.97209 0.0
H1079 H 0.5312 0.87791 1.01199 0.0
H1080 H 0.60351 0.85665 0.05056 0.0
H1081 H 0.63426 0.86913 1.01109 0.0
C1082 C 0.67371 0.82887 0.88424 0.0
C1083 C 0.69439 0.8205 0.89993 0.0
C1084 C 0.65824 0.84622 0.89452 0.0
C1085 C 0.66331 0.85565 0.92061 0.0
C1086 C 0.68313 0.84656 0.93657 0.0
C1087 C 0.69858 0.82922 0.92633 0.0
C1088 C 0.64914 0.87599 0.93104 0.0
C1089 C 0.63198 0.86977 0.95378 0.0
C1090 C 0.65292 0.90159 0.91893 0.0
C1091 C 0.67194 0.90991 0.89562 0.0
C1092 C 0.70222 0.91048 0.89642 0.0
C1093 C 0.71991 0.91804 0.87426 0.0
C1094 C 0.70764 0.92531 0.85126 0.0
C1095 C 0.67767 0.92513 0.8504 0.0
C1096 C 0.65986 0.91753 0.87249 0.0
C1097 C 0.61298 0.96496 1.00405 0.0
C1098 C 0.59238 0.97625 0.99147 0.0
C1099 C 0.62328 0.94523 0.99137 0.0
C1100 C 0.61321 0.93632 0.96589 0.0
C1101 C 0.59347 0.94816 0.95286 0.0
C1102 C 0.583 0.96787 0.96559 0.0
C1103 C 0.62323 0.91442 0.95314 0.0
C1104 C 0.63961 0.92035 0.92999 0.0
C1105 C 0.61876 0.88858 0.96491 0.0
C1106 C 0.60018 0.8807 0.98864 0.0
C1107 C 0.57085 0.88291 0.98914 0.0
C1108 C 0.55367 0.876 1.01168 0.0
C1109 C 0.56545 0.86656 0.03381 0.0
C1110 C 0.59442 0.86399 0.03341 0.0
C1111 C 0.61173 0.87098 1.01095 0.0
H1112 H 0.55211 0.86119 0.05123 0.0
H1113 H 0.72137 0.93116 0.83413 0.0
H1114 H 0.89251 0.22713 0.43834 0.0
H1115 H 0.92095 0.19809 0.45616 0.0
H1116 H 0.95691 0.1915 0.37965 0.0
H1117 H 0.92818 0.22075 0.36152 0.0
H1118 H 0.93945 0.14254 0.40291 0.0
H1119 H 1.00125 0.23064 0.42721 0.0
H1120 H 0.01367 0.27766 0.44495 0.0
H1121 H 0.98354 0.24681 0.52097 0.0
H1122 H 0.9705 0.1996 0.50361 0.0
H1123 H 0.03485 0.07395 0.47043 0.0
H1124 H 0.01897 0.10674 0.44311 0.0
H1125 H 0.96562 0.12226 0.50653 0.0
H1126 H 0.98112 0.08973 0.5338 0.0
H1127 H 1.00125 0.16971 0.48402 0.0
H1128 H 0.93293 0.08211 0.45665 0.0
H1129 H 0.92084 0.0353 0.43836 0.0
H1130 H 0.96558 0.06629 0.36712 0.0
H1131 H 0.97828 0.11328 0.38516 0.0
C1132 C 0.90683 0.21991 0.42534 0.0
C1133 C 0.90841 0.22655 0.39858 0.0
C1134 C 0.92306 0.20325 0.43556 0.0
C1135 C 0.94152 0.19303 0.41935 0.0
C1136 C 0.94294 0.1993 0.39253 0.0
C1137 C 0.92652 0.21596 0.38221 0.0
C1138 C 0.95847 0.17519 0.43065 0.0
C1139 C 0.95354 0.14869 0.42029 0.0
C1140 C 0.97675 0.18316 0.4534 0.0
C1141 C 0.98475 0.21155 0.46404 0.0
C1142 C 0.99709 0.23387 0.44767 0.0
C1143 C 1.00426 0.26057 0.45767 0.0
C1144 C 0.99936 0.26522 0.48406 0.0
C1145 C 0.98733 0.24317 0.50053 0.0
C1146 C 0.98008 0.21643 0.49062 0.0
C1147 C 0.01966 0.08429 0.47851 0.0
C1148 C 0.00919 0.07915 0.50429 0.0
C1149 C 0.01061 0.10298 0.46287 0.0
C1150 C 0.99113 0.11688 0.47283 0.0
C1151 C 0.98076 0.11181 0.49852 0.0
C1152 C 0.98955 0.09306 0.51403 0.0
C1153 C 0.98129 0.13687 0.45684 0.0
C1154 C 0.98768 0.1638 0.46631 0.0
C1155 C 0.9646 0.12935 0.4332 0.0
C1156 C 0.95688 0.10114 0.42237 0.0
C1157 C 0.94042 0.07891 0.43718 0.0
C1158 C 0.93341 0.05235 0.42684 0.0
C1159 C 0.94253 0.04781 0.40163 0.0
C1160 C 0.95859 0.06983 0.38667 0.0
C1161 C 0.9657 0.09642 0.39693 0.0
H1162 H 0.93707 0.02724 0.39365 0.0
H1163 H 1.00493 0.2859 0.49176 0.0
H1164 H 0.37137 0.66835 0.14024 0.0
H1165 H 0.32589 0.64319 0.11659 0.0
H1166 H 0.28199 0.61853 0.18997 0.0
H1167 H 0.32727 0.64447 0.214 0.0
H1168 H 0.27014 0.57583 0.15016 0.0
H1169 H 0.26789 0.66911 0.16084 0.0
H1170 H 0.28861 0.71912 0.15771 0.0
H1171 H 0.29492 0.71194 0.07411 0.0
H1172 H 0.27465 0.66181 0.07679 0.0
H1173 H 0.11961 0.53682 0.10689 0.0
H1174 H 0.16743 0.55739 0.12886 0.0
H1175 H 0.20379 0.59512 0.05645 0.0
H1176 H 0.15526 0.57524 0.03437 0.0
H1177 H 0.22103 0.63035 0.09476 0.0
H1178 H 0.22083 0.53776 0.08272 0.0
H1179 H 0.19996 0.48768 0.0849 0.0
H1180 H 0.19957 0.49251 0.16901 0.0
H1181 H 0.21981 0.54271 0.16738 0.0
C1182 C 0.35207 0.65772 0.15147 0.0
C1183 C 0.35297 0.65893 0.17913 0.0
C1184 C 0.32611 0.64315 0.13785 0.0
C1185 C 0.30041 0.62921 0.15148 0.0
C1186 C 0.30157 0.62914 0.17905 0.0
C1187 C 0.32754 0.64395 0.19276 0.0
C1188 C 0.27198 0.61611 0.13686 0.0
C1189 C 0.25917 0.58773 0.13827 0.0
C1190 C 0.25814 0.63154 0.12073 0.0
C1191 C 0.27005 0.6617 0.11905 0.0
C1192 C 0.27393 0.67818 0.14181 0.0
C1193 C 0.28555 0.70655 0.14012 0.0
C1194 C 0.29315 0.7187 0.11573 0.0
C1195 C 0.28906 0.7025 0.09298 0.0
C1196 C 0.27749 0.67411 0.09458 0.0
C1197 C 0.13775 0.54937 0.09548 0.0
C1198 C 0.13353 0.55425 0.06874 0.0
C1199 C 0.16526 0.56105 0.10812 0.0
C1200 C 0.18957 0.57745 0.09429 0.0
C1201 C 0.18546 0.58246 0.06758 0.0
C1202 C 0.15772 0.57102 0.05494 0.0
C1203 C 0.2189 0.58991 0.108 0.0
C1204 C 0.23196 0.61827 0.10647 0.0
C1205 C 0.23306 0.57435 0.12379 0.0
C1206 C 0.22158 0.54408 0.12491 0.0
C1207 C 0.21607 0.52819 0.10169 0.0
C1208 C 0.20427 0.4998 0.10282 0.0
C1209 C 0.19824 0.487 0.12706 0.0
C1210 C 0.20411 0.50252 0.15025 0.0
C1211 C 0.21576 0.53094 0.14923 0.0
H1212 H 0.18944 0.46504 0.1279 0.0
H1213 H 0.30215 0.74066 0.11446 0.0
H1214 H 0.28998 0.44361 0.72599 0.0
H1215 H 0.32782 0.46359 0.6934 0.0
H1216 H 0.29326 0.39274 0.64327 0.0
H1217 H 0.25561 0.3725 0.67627 0.0
H1218 H 0.35221 0.40497 0.64645 0.0
H1219 H 0.28365 0.45647 0.62852 0.0
H1220 H 0.2513 0.4856 0.63873 0.0
H1221 H 0.32745 0.54879 0.66779 0.0
H1222 H 0.36022 0.51988 0.65811 0.0
H1223 H 0.45136 0.46472 0.54313 0.0
H1224 H 0.40544 0.44478 0.56755 0.0
H1225 H 0.43153 0.51111 0.62391 0.0
H1226 H 0.4769 0.5313 0.59955 0.0
H1227 H 0.37363 0.49969 0.6138 0.0
H1228 H 0.44104 0.44716 0.63585 0.0
H1229 H 0.47403 0.41839 0.62645 0.0
H1230 H 0.4004 0.35756 0.59043 0.0
H1231 H 0.36704 0.38617 0.59931 0.0
C1232 C 0.29019 0.43249 0.70785 0.0
C1233 C 0.26984 0.40647 0.70367 0.0
C1234 C 0.31181 0.44396 0.68914 0.0
C1235 C 0.31344 0.42985 0.66562 0.0
C1236 C 0.2926 0.4041 0.66118 0.0
C1237 C 0.27097 0.3926 0.67994 0.0
C1238 C 0.33778 0.44138 0.64643 0.0
C1239 C 0.35647 0.42551 0.63893 0.0
C1240 C 0.344 0.46842 0.63694 0.0
C1241 C 0.32436 0.48589 0.64277 0.0
C1242 C 0.29347 0.47649 0.63727 0.0
C1243 C 0.27506 0.49298 0.64294 0.0
C1244 C 0.2873 0.51901 0.65396 0.0
C1245 C 0.31799 0.52862 0.65928 0.0
C1246 C 0.3365 0.5122 0.65368 0.0
C1247 C 0.44721 0.4752 0.56059 0.0
C1248 C 0.46809 0.49959 0.56935 0.0
C1249 C 0.42097 0.46367 0.57466 0.0
C1250 C 0.41505 0.47618 0.59789 0.0
C1251 C 0.43543 0.50095 0.60615 0.0
C1252 C 0.46156 0.51245 0.59215 0.0
C1253 C 0.38818 0.46338 0.6141 0.0
C1254 C 0.3691 0.47904 0.62109 0.0
C1255 C 0.38166 0.43619 0.62322 0.0
C1256 C 0.40164 0.41894 0.61796 0.0
C1257 C 0.43194 0.42774 0.62574 0.0
C1258 C 0.4507 0.41146 0.62054 0.0
C1259 C 0.43934 0.3862 0.60778 0.0
C1260 C 0.40918 0.37715 0.60027 0.0
C1261 C 0.39033 0.39339 0.60539 0.0
H1262 H 0.45389 0.37362 0.60377 0.0
H1263 H 0.27301 0.53175 0.65832 0.0
H1264 H 0.7566 0.72095 0.95598 0.0
H1265 H 0.79782 0.70238 0.96807 0.0
H1266 H 0.8009 0.67483 0.88819 0.0
H1267 H 0.75986 0.69367 0.87601 0.0
H1268 H 0.80765 0.63654 0.92747 0.0
H1269 H 0.84795 0.73105 0.90426 0.0
H1270 H 0.85208 0.7802 0.90662 0.0
H1271 H 0.87609 0.78215 0.98841 0.0
H1272 H 0.87158 0.73285 0.98663 0.0
H1273 H 0.95431 0.62219 0.92859 0.0
H1274 H 0.90981 0.63626 0.91773 0.0
H1275 H 0.91183 0.67086 0.99547 0.0
H1276 H 0.95671 0.65728 1.00632 0.0
H1277 H 0.90156 0.70465 0.95764 0.0
H1278 H 0.86299 0.61079 0.98109 0.0
H1279 H 0.85974 0.5618 0.9791 0.0
H1280 H 0.83242 0.55814 0.89806 0.0
H1281 H 0.83601 0.60728 0.8994 0.0
C1282 C 0.76577 0.71046 0.94119 0.0
C1283 C 0.755 0.70847 0.91517 0.0
C1284 C 0.78928 0.69996 0.94804 0.0
C1285 C 0.8024 0.68734 0.92897 0.0
C1286 C 0.79091 0.68438 0.90318 0.0
C1287 C 0.76756 0.69512 0.89626 0.0
C1288 C 0.82948 0.6791 0.93557 0.0
C1289 C 0.82831 0.6514 0.93379 0.0
C1290 C 0.85617 0.69851 0.9443 0.0
C1291 C 0.8591 0.7282 0.94538 0.0
C1292 C 0.85384 0.7419 0.9228 0.0
C1293 C 0.85629 0.7698 0.92403 0.0
C1294 C 0.86426 0.78427 0.94767 0.0
C1295 C 0.86986 0.77089 0.97012 0.0
C1296 C 0.86737 0.74298 0.96902 0.0
C1297 C 0.9455 0.63311 0.94326 0.0
C1298 C 0.95899 0.63865 0.96831 0.0
C1299 C 0.91991 0.64087 0.93711 0.0
C1300 C 0.90734 0.65429 0.95591 0.0
C1301 C 0.92112 0.6604 0.98074 0.0
C1302 C 0.94664 0.65252 0.98695 0.0
C1303 C 0.87983 0.66204 0.94962 0.0
C1304 C 0.88092 0.6897 0.95141 0.0
C1305 C 0.85308 0.64255 0.94101 0.0
C1306 C 0.85016 0.61283 0.94026 0.0
C1307 C 0.8565 0.59961 0.96278 0.0
C1308 C 0.85458 0.57181 0.96178 0.0
C1309 C 0.8461 0.55695 0.93842 0.0
C1310 C 0.83915 0.56975 0.91609 0.0
C1311 C 0.8411 0.59757 0.91697 0.0
H1312 H 0.84495 0.53552 0.93763 0.0
H1313 H 0.86617 0.80587 0.94858 0.0
H1314 H 0.43061 0.73052 0.14305 0.0
H1315 H 0.45175 0.77435 0.12219 0.0
H1316 H 0.46913 0.81399 0.19819 0.0
H1317 H 0.44631 0.77012 0.2193 0.0
H1318 H 0.44666 0.84342 0.16739 0.0
H1319 H 0.52568 0.80266 0.15781 0.0
H1320 H 0.54998 0.76748 0.14579 0.0
H1321 H 0.52537 0.7726 0.06492 0.0
H1322 H 0.50047 0.8075 0.07649 0.0
H1323 H 0.53487 0.96944 0.11416 0.0
H1324 H 0.51897 0.92647 0.13804 0.0
H1325 H 0.48967 0.88264 0.06531 0.0
H1326 H 0.50557 0.92555 0.04123 0.0
H1327 H 0.52084 0.85662 0.09632 0.0
H1328 H 0.43946 0.8959 0.10733 0.0
H1329 H 0.41686 0.93214 0.11985 0.0
H1330 H 0.44861 0.93079 0.19916 0.0
H1331 H 0.47177 0.89478 0.18701 0.0
C1332 C 0.43875 0.74852 0.15545 0.0
C1333 C 0.4364 0.74663 0.18297 0.0
C1334 C 0.45129 0.77365 0.14342 0.0
C1335 C 0.46249 0.79766 0.1585 0.0
C1336 C 0.46075 0.79584 0.18602 0.0
C1337 C 0.44793 0.77063 0.19812 0.0
C1338 C 0.47476 0.82466 0.1454 0.0
C1339 C 0.4633 0.84636 0.15219 0.0
C1340 C 0.49608 0.82863 0.12511 0.0
C1341 C 0.51091 0.80751 0.11808 0.0
C1342 C 0.52519 0.79611 0.1375 0.0
C1343 C 0.53912 0.77624 0.13075 0.0
C1344 C 0.53914 0.76775 0.10462 0.0
C1345 C 0.52528 0.77916 0.08516 0.0
C1346 C 0.51127 0.79899 0.0918 0.0
C1347 C 0.525 0.95069 0.10319 0.0
C1348 C 0.52132 0.95107 0.07574 0.0
C1349 C 0.51581 0.9261 0.11693 0.0
C1350 C 0.50277 0.90126 0.10357 0.0
C1351 C 0.49954 0.90151 0.07611 0.0
C1352 C 0.50851 0.92612 0.06236 0.0
C1353 C 0.49251 0.87506 0.11818 0.0
C1354 C 0.50435 0.85359 0.11165 0.0
C1355 C 0.47174 0.87137 0.13882 0.0
C1356 C 0.45761 0.89284 0.1462 0.0
C1357 C 0.44182 0.90347 0.12739 0.0
C1358 C 0.42887 0.92395 0.13443 0.0
C1359 C 0.43137 0.93382 0.16027 0.0
C1360 C 0.44673 0.92316 0.17914 0.0
C1361 C 0.45975 0.9027 0.1722 0.0
H1362 H 0.42134 0.94968 0.16568 0.0
H1363 H 0.54996 0.75238 0.09944 0.0
H1364 H 0.19013 0.29621 0.71386 0.0
H1365 H 0.17022 0.25315 0.68996 0.0
H1366 H 0.08056 0.25328 0.70838 0.0
H1367 H 0.10035 0.2973 0.73173 0.0
H1368 H 0.09262 0.19985 0.71288 0.0
H1369 H 0.10254 0.2722 0.65047 0.0
H1370 H 0.1297 0.31464 0.62833 0.0
H1371 H 0.19523 0.27665 0.60202 0.0
H1372 H 0.1687 0.23409 0.62436 0.0
H1373 H 0.02401 0.09344 0.62113 0.0
H1374 H 0.03867 0.13537 0.64765 0.0
H1375 H 0.12618 0.15679 0.61328 0.0
H1376 H 0.11088 0.11559 0.5856 0.0
H1377 H 0.11289 0.20033 0.61754 0.0
H1378 H 0.10746 0.12981 0.68025 0.0
H1379 H 0.0844 0.08731 0.70409 0.0
H1380 H 0.01562 0.1207 0.73158 0.0
H1381 H 0.03808 0.16329 0.70763 0.0
C1382 C 0.16611 0.28731 0.71284 0.0
C1383 C 0.14692 0.30082 0.72443 0.0
C1384 C 0.15475 0.26246 0.6992 0.0
C1385 C 0.12383 0.25001 0.69694 0.0
C1386 C 0.10452 0.26247 0.70972 0.0
C1387 C 0.11591 0.28765 0.72322 0.0
C1388 C 0.11204 0.22472 0.68023 0.0
C1389 C 0.0966 0.2 0.69195 0.0
C1390 C 0.11801 0.22458 0.65303 0.0
C1391 C 0.13376 0.25003 0.63928 0.0
C1392 C 0.12286 0.27295 0.64012 0.0
C1393 C 0.13813 0.29703 0.62751 0.0
C1394 C 0.16421 0.29836 0.61382 0.0
C1395 C 0.17504 0.27559 0.61265 0.0
C1396 C 0.15988 0.25148 0.62526 0.0
C1397 C 0.04641 0.10705 0.61922 0.0
C1398 C 0.06627 0.10094 0.60122 0.0
C1399 C 0.05494 0.13108 0.63465 0.0
C1400 C 0.08393 0.14938 0.6332 0.0
C1401 C 0.1037 0.14329 0.61504 0.0
C1402 C 0.09494 0.11957 0.59918 0.0
C1403 C 0.09355 0.17497 0.6501 0.0
C1404 C 0.10868 0.19992 0.63843 0.0
C1405 C 0.08779 0.17516 0.67746 0.0
C1406 C 0.07428 0.14961 0.69192 0.0
C1407 C 0.0873 0.12801 0.69123 0.0
C1408 C 0.07436 0.10392 0.70479 0.0
C1409 C 0.04851 0.10128 0.71928 0.0
C1410 C 0.03561 0.12276 0.72031 0.0
C1411 C 0.04845 0.14688 0.70677 0.0
H1412 H 0.03852 0.08261 0.72976 0.0
H1413 H 0.17601 0.31702 0.60408 0.0
H1414 H 0.78835 0.27454 0.41925 0.0
H1415 H 0.74849 0.29677 0.4223 0.0
H1416 H 0.81349 0.37213 0.44637 0.0
H1417 H 0.85323 0.34963 0.44389 0.0
H1418 H 0.76764 0.35996 0.47861 0.0
H1419 H 0.77902 0.36394 0.38524 0.0
H1420 H 0.78212 0.34536 0.34091 0.0
H1421 H 0.69262 0.29235 0.34703 0.0
H1422 H 0.68913 0.31032 0.39159 0.0
H1423 H 0.6716 0.44393 0.47424 0.0
H1424 H 0.71154 0.42372 0.46387 0.0
H1425 H 0.64613 0.34687 0.44536 0.0
H1426 H 0.60589 0.36685 0.45607 0.0
H1427 H 0.69198 0.36019 0.40939 0.0
H1428 H 0.68163 0.3536 0.50296 0.0
H1429 H 0.67821 0.37069 0.54784 0.0
H1430 H 0.76546 0.42782 0.54118 0.0
H1431 H 0.76933 0.41109 0.49616 0.0
C1432 C 0.79403 0.29589 0.42501 0.0
C1433 C 0.82362 0.31034 0.43183 0.0
C1434 C 0.77134 0.30863 0.42658 0.0
C1435 C 0.77801 0.33615 0.43452 0.0
C1436 C 0.80782 0.35085 0.44032 0.0
C1437 C 0.83047 0.33808 0.43886 0.0
C1438 C 0.75372 0.34909 0.43849 0.0
C1439 C 0.75144 0.36043 0.46329 0.0
C1440 C 0.732 0.34895 0.41878 0.0
C1441 C 0.73392 0.33832 0.39187 0.0
C1442 C 0.76007 0.34818 0.37722 0.0
C1443 C 0.76189 0.33778 0.35203 0.0
C1444 C 0.73761 0.31764 0.34119 0.0
C1445 C 0.71142 0.30793 0.35547 0.0
C1446 C 0.7095 0.31824 0.38068 0.0
C1447 C 0.66566 0.42265 0.46818 0.0
C1448 C 0.63554 0.40691 0.46629 0.0
C1449 C 0.68853 0.41119 0.46211 0.0
C1450 C 0.68179 0.38372 0.45411 0.0
C1451 C 0.65178 0.36812 0.45147 0.0
C1452 C 0.62883 0.37958 0.45757 0.0
C1453 C 0.70618 0.37116 0.44938 0.0
C1454 C 0.70837 0.35983 0.42457 0.0
C1455 C 0.72783 0.3712 0.46906 0.0
C1456 C 0.72564 0.38128 0.49612 0.0
C1457 C 0.7 0.36994 0.51101 0.0
C1458 C 0.698 0.37953 0.53648 0.0
C1459 C 0.72155 0.40042 0.54732 0.0
C1460 C 0.74721 0.41167 0.53274 0.0
C1461 C 0.74935 0.40209 0.50727 0.0
H1462 H 0.71995 0.40784 0.56705 0.0
H1463 H 0.73907 0.3096 0.32169 0.0
loop_
_geom_bond_atom_site_label_1
_geom_bond_atom_site_label_2
_geom_bond_distance
_geom_bond_site_symmetry_2
_ccdc_geom_bond_type
H0 C7 0.929 . S
H1 C10 0.930 . S
H2 C12 0.929 . S
H3 C4 0.969 . S
C4 H3 0.969 . S
C4 O5 1.550 . S
C4 H6 0.973 . S
O5 C4 1.550 . S
O5 C11 1.412 . S
H6 C4 0.973 . S
C7 H0 0.929 . S
C7 C8 1.400 . S
C7 C9 1.364 . S
C8 C7 1.400 . S
C8 C12 1.377 . S
C9 C7 1.364 . S
C9 C10 1.374 . S
C10 H1 0.930 . S
C10 C9 1.374 . S
C10 C11 1.383 . S
C11 O5 1.412 . S
C11 C10 1.383 . S
C11 C12 1.394 . S
C12 H2 0.929 . S
C12 C8 1.377 . S
C12 C11 1.394 . S
H13 C20 0.929 . S
H14 C23 0.930 . S
H15 C25 0.929 . S
H16 C17 0.969 . S
C17 H16 0.969 . S
C17 O18 1.550 . S
C17 H19 0.973 . S
O18 C17 1.550 . S
O18 C24 1.412 . S
H19 C17 0.973 . S
C20 H13 0.929 . S
C20 C21 1.400 . S
C20 C22 1.364 . S
C21 C20 1.400 . S
C21 C25 1.377 . S
C22 C20 1.364 . S
C22 C23 1.374 . S
C23 H14 0.930 . S
C23 C22 1.374 . S
C23 C24 1.383 . S
C24 O18 1.412 . S
C24 C23 1.383 . S
C24 C25 1.394 . S
C25 H15 0.929 . S
C25 C21 1.377 . S
C25 C24 1.394 . S
H26 C33 0.929 . S
H27 C36 0.930 . S
H28 C38 0.929 . S
H29 C30 0.969 . S
C30 H29 0.969 . S
C30 O31 1.550 . S
C30 H32 0.973 . S
O31 C30 1.550 . S
O31 C37 1.412 . S
H32 C30 0.973 . S
C33 H26 0.929 . S
C33 C34 1.400 . S
C33 C35 1.364 . S
C34 C33 1.400 . S
C34 C38 1.377 . S
C35 C33 1.364 . S
C35 C36 1.374 . S
C36 H27 0.930 . S
C36 C35 1.374 . S
C36 C37 1.383 . S
C37 O31 1.412 . S
C37 C36 1.383 . S
C37 C38 1.394 . S
C38 H28 0.929 . S
C38 C34 1.377 . S
C38 C37 1.394 . S
H39 C46 0.929 . S
H40 C49 0.930 . S
H41 C51 0.929 . S
H42 C43 0.969 . S
C43 H42 0.969 . S
C43 O44 1.550 . S
C43 H45 0.973 . S
O44 C43 1.550 . S
O44 C50 1.412 . S
H45 C43 0.973 . S
C46 H39 0.929 . S
C46 C47 1.400 . S
C46 C48 1.364 . S
C47 C46 1.400 . S
C47 C51 1.377 . S
C48 C46 1.364 . S
C48 C49 1.374 . S
C49 H40 0.930 . S
C49 C48 1.374 . S
C49 C50 1.383 . S
C50 O44 1.412 . S
C50 C49 1.383 . S
C50 C51 1.394 . S
C51 H41 0.929 . S
C51 C47 1.377 . S
C51 C50 1.394 . S
H52 C59 0.929 . S
H53 C62 0.930 . S
H54 C64 0.929 . S
H55 C56 0.969 . S
C56 H55 0.969 . S
C56 O57 1.550 . S
C56 H58 0.973 . S
O57 C56 1.550 . S
O57 C63 1.412 . S
H58 C56 0.973 . S
C59 H52 0.929 . S
C59 C60 1.400 . S
C59 C61 1.364 . S
C60 C59 1.400 . S
C60 C64 1.377 . S
C61 C59 1.364 . S
C61 C62 1.374 . S
C62 H53 0.930 . S
C62 C61 1.374 . S
C62 C63 1.383 . S
C63 O57 1.412 . S
C63 C62 1.383 . S
C63 C64 1.394 . S
C64 H54 0.929 . S
C64 C60 1.377 . S
C64 C63 1.394 . S
H65 C72 0.929 . S
H66 C75 0.930 . S
H67 C77 0.929 . S
H68 C69 0.969 . S
C69 H68 0.969 . S
C69 O70 1.550 . S
C69 H71 0.973 . S
O70 C69 1.550 . S
O70 C76 1.412 . S
H71 C69 0.973 . S
C72 H65 0.929 . S
C72 C73 1.400 . S
C72 C74 1.364 . S
C73 C72 1.400 . S
C73 C77 1.377 . S
C74 C72 1.364 . S
C74 C75 1.374 . S
C75 H66 0.930 . S
C75 C74 1.374 . S
C75 C76 1.383 . S
C76 O70 1.412 . S
C76 C75 1.383 . S
C76 C77 1.394 . S
C77 H67 0.929 . S
C77 C73 1.377 . S
C77 C76 1.394 . S
H78 C85 0.929 . S
H79 C88 0.930 . S
H80 C90 0.929 . S
H81 C82 0.969 . S
C82 H81 0.969 . S
C82 O83 1.550 . S
C82 H84 0.973 . S
O83 C82 1.550 . S
O83 C89 1.412 . S
H84 C82 0.973 . S
C85 H78 0.929 . S
C85 C86 1.400 . S
C85 C87 1.364 . S
C86 C85 1.400 . S
C86 C90 1.377 . S
C87 C85 1.364 . S
C87 C88 1.374 . S
C88 H79 0.930 . S
C88 C87 1.374 . S
C88 C89 1.383 . S
C89 O83 1.412 . S
C89 C88 1.383 . S
C89 C90 1.394 . S
C90 H80 0.929 . S
C90 C86 1.377 . S
C90 C89 1.394 . S
H91 C98 0.929 . S
H92 C101 0.930 . S
H93 C103 0.929 . S
H94 C95 0.969 . S
C95 H94 0.969 . S
C95 O96 1.550 . S
C95 H97 0.973 . S
O96 C95 1.550 . S
O96 C102 1.412 . S
H97 C95 0.973 . S
C98 H91 0.929 . S
C98 C99 1.400 . S
C98 C100 1.364 . S
C99 C98 1.400 . S
C99 C103 1.377 . S
C100 C98 1.364 . S
C100 C101 1.374 . S
C101 H92 0.930 . S
C101 C100 1.374 . S
C101 C102 1.383 . S
C102 O96 1.412 . S
C102 C101 1.383 . S
C102 C103 1.394 . S
C103 H93 0.929 . S
C103 C99 1.377 . S
C103 C102 1.394 . S
Dy104 O107 2.309 . S
Dy104 O109 2.395 . S
Dy104 O110 2.379 . S
Dy104 O112 2.339 1_545 S
Dy104 O114 2.298 . S
Dy104 O118 2.275 . S
Dy104 C126 2.738 . S
Dy105 O108 2.297 1_655 S
Dy105 O111 2.275 1_545 S
Dy105 O113 2.307 . S
Dy105 O115 2.395 1_545 S
Dy105 O116 2.379 . S
Dy105 O119 2.339 1_655 S
Dy105 C135 2.738 1_545 S
C106 O118 1.254 . S
C106 O119 1.257 . S
O107 Dy104 2.309 . S
O107 C117 1.266 1_545 S
O108 Dy105 2.297 1_455 S
O108 C117 1.237 1_545 S
O109 Dy104 2.395 . S
O109 C126 1.255 . S
O110 Dy104 2.379 . S
O110 C126 1.249 . S
O111 Dy105 2.275 1_565 S
O111 C127 1.254 1_655 S
O112 Dy104 2.339 1_565 S
O112 C127 1.257 . S
O113 Dy105 2.307 . S
O113 C128 1.266 . S
O114 Dy104 2.298 . S
O114 C128 1.236 1_455 S
O115 Dy105 2.395 1_565 S
O115 C135 1.255 . S
O116 Dy105 2.379 . S
O116 C135 1.249 1_545 S
C117 O107 1.266 1_565 S
C117 O108 1.237 1_565 S
O118 Dy104 2.275 . S
O118 C106 1.254 . S
O119 Dy105 2.339 1_455 S
O119 C106 1.257 . S
C120 C123 1.344 . S
C120 C124 1.328 . S
C120 C126 1.516 . S
C121 C122 1.304 . S
C121 C125 1.323 . S
C122 C121 1.304 . S
C122 C123 1.371 . S
C122 H136 0.930 . S
C123 C120 1.344 . S
C123 C122 1.371 . S
C123 H137 0.931 . S
C124 C120 1.328 . S
C124 C125 1.433 . S
C124 H138 0.931 . S
C125 C121 1.323 . S
C125 C124 1.433 . S
C125 H139 0.933 . S
C126 Dy104 2.738 . S
C126 O109 1.255 . S
C126 O110 1.249 . S
C126 C120 1.516 . S
C127 O111 1.254 1_455 S
C127 O112 1.257 . S
C128 O113 1.266 . S
C128 O114 1.236 1_655 S
C129 C132 1.344 . S
C129 C133 1.328 . S
C129 C135 1.516 . S
C130 C131 1.304 . S
C130 C134 1.323 . S
C131 C130 1.304 . S
C131 C132 1.371 . S
C131 H140 0.930 . S
C132 C129 1.344 . S
C132 C131 1.371 . S
C132 H141 0.931 . S
C133 C129 1.328 . S
C133 C134 1.433 . S
C133 H142 0.931 . S
C134 C130 1.323 . S
C134 C133 1.433 . S
C134 H143 0.933 . S
C135 Dy105 2.738 1_565 S
C135 O115 1.255 . S
C135 O116 1.249 1_565 S
C135 C129 1.516 . S
H136 C122 0.930 . S
H137 C123 0.931 . S
H138 C124 0.931 . S
H139 C125 0.933 . S
H140 C131 0.930 . S
H141 C132 0.931 . S
H142 C133 0.931 . S
H143 C134 0.933 . S
Dy144 O147 2.307 1_556 S
Dy144 O149 2.395 1_545 S
Dy144 O150 2.379 1_545 S
Dy144 O152 2.339 . S
Dy144 O154 2.298 1_545 S
Dy144 O158 2.275 1_546 S
Dy144 C166 2.738 1_545 S
Dy145 O148 2.298 . S
Dy145 O151 2.239 1_554 S
Dy145 O153 2.307 1_545 S
Dy145 O155 2.395 . S
Dy145 O156 2.379 . S
Dy145 O159 2.339 1_545 S
Dy145 C175 2.738 . S
C146 O158 1.254 . S
C146 O159 1.257 . S
O147 Dy144 2.307 1_554 S
O147 C157 1.266 . S
O148 Dy145 2.298 . S
O148 C157 1.236 . S
O149 Dy144 2.395 1_565 S
O149 C166 1.255 . S
O150 Dy144 2.379 1_565 S
O150 C166 1.249 . S
O151 Dy145 2.239 1_556 S
O151 C167 1.289 . S
O152 Dy144 2.339 . S
O152 C167 1.257 . S
O153 Dy145 2.307 1_565 S
O153 C168 1.266 1_554 S
O154 Dy144 2.298 1_565 S
O154 C168 1.236 . S
O155 Dy145 2.395 . S
O155 C175 1.255 . S
O156 Dy145 2.379 . S
O156 C175 1.249 . S
C157 O147 1.266 . S
C157 O148 1.236 . S
O158 Dy144 2.275 1_564 S
O158 C146 1.254 . S
O159 Dy145 2.339 1_565 S
O159 C146 1.257 . S
C160 C163 1.344 . S
C160 C164 1.328 . S
C160 C166 1.516 . S
C161 C162 1.304 . S
C161 C165 1.323 . S
C162 C161 1.304 . S
C162 C163 1.371 . S
C162 H176 0.930 . S
C163 C160 1.344 . S
C163 C162 1.371 . S
C163 H177 0.931 . S
C164 C160 1.328 . S
C164 C165 1.433 . S
C164 H178 0.931 . S
C165 C161 1.323 . S
C165 C164 1.433 . S
C165 H179 0.933 . S
C166 Dy144 2.738 1_565 S
C166 O149 1.255 . S
C166 O150 1.249 . S
C166 C160 1.516 . S
C167 O151 1.289 . S
C167 O152 1.257 . S
C168 O153 1.266 1_556 S
C168 O154 1.236 . S
C169 C172 1.344 . S
C169 C173 1.328 . S
C169 C175 1.516 . S
C170 C171 1.304 . S
C170 C174 1.323 . S
C171 C170 1.304 . S
C171 C172 1.371 . S
C171 H180 0.930 . S
C172 C169 1.344 . S
C172 C171 1.371 . S
C172 H181 0.931 . S
C173 C169 1.328 . S
C173 C174 1.433 . S
C173 H182 0.931 . S
C174 C170 1.323 . S
C174 C173 1.433 . S
C174 H183 0.933 . S
C175 Dy145 2.738 . S
C175 O155 1.255 . S
C175 O156 1.249 . S
C175 C169 1.516 . S
H176 C162 0.930 . S
H177 C163 0.931 . S
H178 C164 0.931 . S
H179 C165 0.933 . S
H180 C171 0.930 . S
H181 C172 0.931 . S
H182 C173 0.931 . S
H183 C174 0.933 . S
Dy184 O187 2.307 . S
Dy184 O189 2.395 . S
Dy184 O190 2.379 . S
Dy184 O192 2.339 . S
Dy184 O194 2.298 . S
Dy184 O198 2.275 . S
Dy184 C206 2.738 . S
Dy185 O188 2.298 . S
Dy185 O191 2.275 . S
Dy185 O193 2.307 . S
Dy185 O195 2.395 . S
Dy185 O196 2.379 . S
Dy185 O199 2.339 . S
Dy185 C215 2.738 . S
C186 O198 1.254 . S
C186 O199 1.257 . S
O187 Dy184 2.307 . S
O187 C197 1.266 . S
O188 Dy185 2.298 . S
O188 C197 1.236 . S
O189 Dy184 2.395 . S
O189 C206 1.255 . S
O190 Dy184 2.379 . S
O190 C206 1.249 . S
O191 Dy185 2.275 . S
O191 C207 1.254 . S
O192 Dy184 2.339 . S
O192 C207 1.257 . S
O193 Dy185 2.307 . S
O193 C208 1.266 . S
O194 Dy184 2.298 . S
O194 C208 1.236 . S
O195 Dy185 2.395 . S
O195 C215 1.255 . S
O196 Dy185 2.379 . S
O196 C215 1.249 . S
C197 O187 1.266 . S
C197 O188 1.236 . S
O198 Dy184 2.275 . S
O198 C186 1.254 . S
O199 Dy185 2.339 . S
O199 C186 1.257 . S
C200 C203 1.344 . S
C200 C204 1.328 . S
C200 C206 1.516 . S
C201 C202 1.304 . S
C201 C205 1.323 . S
C202 C201 1.304 . S
C202 C203 1.371 . S
C202 H216 0.930 . S
C203 C200 1.344 . S
C203 C202 1.371 . S
C203 H217 0.931 . S
C204 C200 1.328 . S
C204 C205 1.433 . S
C204 H218 0.931 . S
C205 C201 1.323 . S
C205 C204 1.433 . S
C205 H219 0.933 . S
C206 Dy184 2.738 . S
C206 O189 1.255 . S
C206 O190 1.249 . S
C206 C200 1.516 . S
C207 O191 1.254 . S
C207 O192 1.257 . S
C208 O193 1.266 . S
C208 O194 1.236 . S
C209 C212 1.344 . S
C209 C213 1.328 . S
C209 C215 1.516 . S
C210 C211 1.304 . S
C210 C214 1.323 . S
C211 C210 1.304 . S
C211 C212 1.371 . S
C211 H220 0.930 . S
C212 C209 1.344 . S
C212 C211 1.371 . S
C212 H221 0.931 . S
C213 C209 1.328 . S
C213 C214 1.433 . S
C213 H222 0.931 . S
C214 C210 1.323 . S
C214 C213 1.433 . S
C214 H223 0.933 . S
C215 Dy185 2.738 . S
C215 O195 1.255 . S
C215 O196 1.249 . S
C215 C209 1.516 . S
H216 C202 0.930 . S
H217 C203 0.931 . S
H218 C204 0.931 . S
H219 C205 0.933 . S
H220 C211 0.930 . S
H221 C212 0.931 . S
H222 C213 0.931 . S
H223 C214 0.933 . S
Dy224 O227 2.307 . S
Dy224 O229 2.395 1_455 S
Dy224 O230 2.379 1_554 S
Dy224 O232 2.339 1_554 S
Dy224 O234 2.298 1_455 S
Dy224 O238 2.275 . S
Dy224 C246 2.738 1_454 S
Dy225 O228 2.298 . S
Dy225 O231 2.275 . S
Dy225 O233 2.307 1_455 S
Dy225 O235 2.395 . S
Dy225 O236 2.379 . S
Dy225 O239 2.339 . S
Dy225 C255 2.738 . S
C226 O238 1.254 . S
C226 O239 1.257 . S
O227 Dy224 2.307 . S
O227 C237 1.266 . S
O228 Dy225 2.298 . S
O228 C237 1.236 . S
O229 Dy224 2.395 1_655 S
O229 C246 1.255 1_554 S
O230 Dy224 2.379 1_556 S
O230 C246 1.249 1_455 S
O231 Dy225 2.275 . S
O231 C247 1.254 1_554 S
O232 Dy224 2.339 1_556 S
O232 C247 1.257 . S
O233 Dy225 2.307 1_655 S
O233 C248 1.266 . S
O234 Dy224 2.298 1_655 S
O234 C248 1.236 . S
O235 Dy225 2.395 . S
O235 C255 1.255 . S
O236 Dy225 2.379 . S
O236 C255 1.249 . S
C237 O227 1.266 . S
C237 O228 1.236 . S
O238 Dy224 2.275 . S
O238 C226 1.254 . S
O239 Dy225 2.339 . S
O239 C226 1.257 . S
C240 C243 1.344 . S
C240 C244 1.328 . S
C240 C246 1.516 . S
C241 C242 1.304 . S
C241 C245 1.323 . S
C242 C241 1.304 . S
C242 C243 1.371 . S
C242 H256 0.930 . S
C243 C240 1.344 . S
C243 C242 1.371 . S
C243 H257 0.931 1_556 S
C244 C240 1.328 . S
C244 C245 1.433 . S
C244 H258 0.931 . S
C245 C241 1.323 . S
C245 C244 1.433 . S
C245 H259 0.933 . S
C246 Dy224 2.738 1_656 S
C246 O229 1.255 1_556 S
C246 O230 1.249 1_655 S
C246 C240 1.516 . S
C247 O231 1.254 1_556 S
C247 O232 1.257 . S
C248 O233 1.266 . S
C248 O234 1.236 . S
C249 C252 1.344 . S
C249 C253 1.328 . S
C249 C255 1.516 . S
C250 C251 1.304 . S
C250 C254 1.323 . S
C251 C250 1.304 . S
C251 C252 1.371 . S
C251 H260 0.930 . S
C252 C249 1.344 . S
C252 C251 1.371 . S
C252 H261 0.931 . S
C253 C249 1.328 . S
C253 C254 1.433 . S
C253 H262 0.931 . S
C254 C250 1.323 . S
C254 C253 1.433 . S
C254 H263 0.933 . S
C255 Dy225 2.738 . S
C255 O235 1.255 . S
C255 O236 1.249 . S
C255 C249 1.516 . S
H256 C242 0.930 . S
H257 C243 0.931 1_554 S
H258 C244 0.931 . S
H259 C245 0.933 . S
H260 C251 0.930 . S
H261 C252 0.931 . S
H262 C253 0.931 . S
H263 C254 0.933 . S
H264 C282 0.951 . S
H265 C284 0.951 . S
H266 C286 0.950 . S
H267 C287 0.950 . S
H268 C289 0.950 . S
H269 C292 0.950 . S
H270 C293 0.950 . S
H271 C295 0.950 . S
H272 C296 0.950 . S
H273 C297 0.951 . S
H274 C299 0.951 . S
H275 C301 0.950 . S
H276 C302 0.950 . S
H277 C304 0.950 . S
H278 C307 0.950 . S
H279 C308 0.950 . S
H280 C310 0.950 . S
H281 C311 0.950 . S
C282 H264 0.951 . S
C282 C283 1.366 . S
C282 C284 1.388 . S
C283 C282 1.366 . S
C283 C287 1.385 . S
C284 H265 0.951 . S
C284 C282 1.388 . S
C284 C285 1.366 . S
C285 C284 1.366 . S
C285 C286 1.414 . S
C285 C288 1.499 . S
C286 H266 0.950 . S
C286 C285 1.414 . S
C286 C287 1.374 . S
C287 H267 0.950 . S
C287 C283 1.385 . S
C287 C286 1.374 . S
C288 C285 1.499 . S
C288 C289 1.373 . S
C288 C290 1.389 . S
C289 H268 0.950 . S
C289 C288 1.373 . S
C289 C305 1.377 . S
C290 C288 1.389 . S
C290 C291 1.524 . S
C290 C304 1.377 . S
C291 C290 1.524 . S
C291 C292 1.397 . S
C291 C296 1.363 . S
C292 H269 0.950 . S
C292 C291 1.397 . S
C292 C293 1.334 . S
C293 H270 0.950 . S
C293 C292 1.334 . S
C293 C294 1.287 . S
C294 C293 1.287 . S
C294 C295 1.524 . S
C294 H313 0.913 . S
C295 H271 0.950 . S
C295 C294 1.524 . S
C295 C296 1.415 . S
C296 H272 0.950 . S
C296 C291 1.363 . S
C296 C295 1.415 . S
C297 H273 0.951 . S
C297 C298 1.366 . S
C297 C299 1.388 . S
C298 C297 1.366 . S
C298 C302 1.385 . S
C299 H274 0.951 . S
C299 C297 1.388 . S
C299 C300 1.366 . S
C300 C299 1.366 . S
C300 C301 1.414 . S
C300 C303 1.499 . S
C301 H275 0.950 . S
C301 C300 1.414 . S
C301 C302 1.374 . S
C302 H276 0.950 . S
C302 C298 1.385 . S
C302 C301 1.374 . S
C303 C300 1.499 . S
C303 C304 1.373 . S
C303 C305 1.389 . S
C304 H277 0.950 . S
C304 C290 1.377 . S
C304 C303 1.373 . S
C305 C289 1.377 . S
C305 C303 1.389 . S
C305 C306 1.524 . S
C306 C305 1.524 . S
C306 C307 1.397 . S
C306 C311 1.363 . S
C307 H278 0.950 . S
C307 C306 1.397 . S
C307 C308 1.334 . S
C308 H279 0.950 . S
C308 C307 1.334 . S
C308 C309 1.287 . S
C309 C308 1.287 . S
C309 C310 1.524 . S
C309 H312 0.999 . S
C310 H280 0.950 . S
C310 C309 1.524 . S
C310 C311 1.415 . S
C311 H281 0.950 . S
C311 C306 1.363 . S
C311 C310 1.415 . S
H312 C309 0.999 . S
H313 C294 0.913 . S
H314 C332 0.951 . S
H315 C334 0.951 . S
H316 C336 0.950 . S
H317 C337 0.950 . S
H318 C339 0.950 . S
H319 C342 0.950 . S
H320 C343 0.950 . S
H321 C345 0.950 . S
H322 C346 0.950 . S
H323 C347 0.951 . S
H324 C349 0.951 . S
H325 C351 0.950 . S
H326 C352 0.950 . S
H327 C354 0.950 . S
H328 C357 0.950 . S
H329 C358 0.950 . S
H330 C360 0.950 . S
H331 C361 0.950 . S
C332 H314 0.951 . S
C332 C333 1.366 . S
C332 C334 1.388 . S
C333 C332 1.366 . S
C333 C337 1.385 . S
C334 H315 0.951 . S
C334 C332 1.388 . S
C334 C335 1.366 . S
C335 C334 1.366 . S
C335 C336 1.414 . S
C335 C338 1.499 . S
C336 H316 0.950 . S
C336 C335 1.414 . S
C336 C337 1.374 . S
C337 H317 0.950 . S
C337 C333 1.385 . S
C337 C336 1.374 . S
C338 C335 1.499 . S
C338 C339 1.373 . S
C338 C340 1.389 . S
C339 H318 0.950 . S
C339 C338 1.373 . S
C339 C355 1.377 . S
C340 C338 1.389 . S
C340 C341 1.524 . S
C340 C354 1.377 . S
C341 C340 1.524 . S
C341 C342 1.397 . S
C341 C346 1.363 . S
C342 H319 0.950 . S
C342 C341 1.397 . S
C342 C343 1.334 . S
C343 H320 0.950 . S
C343 C342 1.334 . S
C343 C344 1.287 . S
C344 C343 1.287 . S
C344 C345 1.524 . S
C344 H363 0.913 . S
C345 H321 0.950 . S
C345 C344 1.524 . S
C345 C346 1.415 . S
C346 H322 0.950 . S
C346 C341 1.363 . S
C346 C345 1.415 . S
C347 H323 0.951 . S
C347 C348 1.366 . S
C347 C349 1.388 . S
C348 C347 1.366 . S
C348 C352 1.385 . S
C349 H324 0.951 . S
C349 C347 1.388 . S
C349 C350 1.366 . S
C350 C349 1.366 . S
C350 C351 1.414 . S
C350 C353 1.499 . S
C351 H325 0.950 . S
C351 C350 1.414 . S
C351 C352 1.374 . S
C352 H326 0.950 . S
C352 C348 1.385 . S
C352 C351 1.374 . S
C353 C350 1.499 . S
C353 C354 1.373 . S
C353 C355 1.389 . S
C354 H327 0.950 . S
C354 C340 1.377 . S
C354 C353 1.373 . S
C355 C339 1.377 . S
C355 C353 1.389 . S
C355 C356 1.524 . S
C356 C355 1.524 . S
C356 C357 1.397 . S
C356 C361 1.363 . S
C357 H328 0.950 . S
C357 C356 1.397 . S
C357 C358 1.334 . S
C358 H329 0.950 . S
C358 C357 1.334 . S
C358 C359 1.287 . S
C359 C358 1.287 . S
C359 C360 1.524 . S
C359 H362 0.999 . S
C360 H330 0.950 . S
C360 C359 1.524 . S
C360 C361 1.415 . S
C361 H331 0.950 . S
C361 C356 1.363 . S
C361 C360 1.415 . S
H362 C359 0.999 . S
H363 C344 0.913 . S
H364 C382 0.951 . S
H365 C384 0.951 . S
H366 C386 0.950 . S
H367 C387 0.950 . S
H368 C389 0.950 . S
H369 C392 0.950 . S
H370 C393 0.950 . S
H371 C395 0.950 . S
H372 C396 0.950 . S
H373 C397 0.951 . S
H374 C399 0.951 . S
H375 C401 0.950 . S
H376 C402 0.950 . S
H377 C404 0.950 . S
H378 C407 0.950 . S
H379 C408 0.950 . S
H380 C410 0.950 . S
H381 C411 0.950 . S
C382 H364 0.951 . S
C382 C383 1.366 . S
C382 C384 1.388 . S
C383 C382 1.366 . S
C383 C387 1.385 . S
C384 H365 0.951 . S
C384 C382 1.388 . S
C384 C385 1.366 . S
C385 C384 1.366 . S
C385 C386 1.414 . S
C385 C388 1.499 . S
C386 H366 0.950 . S
C386 C385 1.414 . S
C386 C387 1.374 . S
C387 H367 0.950 . S
C387 C383 1.385 . S
C387 C386 1.374 . S
C388 C385 1.499 . S
C388 C389 1.373 . S
C388 C390 1.389 . S
C389 H368 0.950 . S
C389 C388 1.373 . S
C389 C405 1.377 . S
C390 C388 1.389 . S
C390 C391 1.524 . S
C390 C404 1.377 . S
C391 C390 1.524 . S
C391 C392 1.397 . S
C391 C396 1.363 . S
C392 H369 0.950 . S
C392 C391 1.397 . S
C392 C393 1.334 . S
C393 H370 0.950 . S
C393 C392 1.334 . S
C393 C394 1.287 . S
C394 C393 1.287 . S
C394 C395 1.524 . S
C394 H413 0.913 . S
C395 H371 0.950 . S
C395 C394 1.524 . S
C395 C396 1.415 . S
C396 H372 0.950 . S
C396 C391 1.363 . S
C396 C395 1.415 . S
C397 H373 0.951 . S
C397 C398 1.366 . S
C397 C399 1.388 . S
C398 C397 1.366 . S
C398 C402 1.385 . S
C399 H374 0.951 . S
C399 C397 1.388 . S
C399 C400 1.366 . S
C400 C399 1.366 . S
C400 C401 1.414 . S
C400 C403 1.499 . S
C401 H375 0.950 . S
C401 C400 1.414 . S
C401 C402 1.374 . S
C402 H376 0.950 . S
C402 C398 1.385 . S
C402 C401 1.374 . S
C403 C400 1.499 . S
C403 C404 1.373 . S
C403 C405 1.389 . S
C404 H377 0.950 . S
C404 C390 1.377 . S
C404 C403 1.373 . S
C405 C389 1.377 . S
C405 C403 1.389 . S
C405 C406 1.524 . S
C406 C405 1.524 . S
C406 C407 1.397 . S
C406 C411 1.363 . S
C407 H378 0.950 . S
C407 C406 1.397 . S
C407 C408 1.334 . S
C408 H379 0.950 . S
C408 C407 1.334 . S
C408 C409 1.287 . S
C409 C408 1.287 . S
C409 C410 1.524 . S
C409 H412 0.999 . S
C410 H380 0.950 . S
C410 C409 1.524 . S
C410 C411 1.415 . S
C411 H381 0.950 . S
C411 C406 1.363 . S
C411 C410 1.415 . S
H412 C409 0.999 . S
H413 C394 0.913 . S
H414 C432 0.951 . S
H415 C434 0.951 . S
H416 C436 0.950 . S
H417 C437 0.950 . S
H418 C439 0.950 . S
H419 C442 0.950 . S
H420 C443 0.950 . S
H421 C445 0.950 . S
H422 C446 0.950 . S
H423 C447 0.951 . S
H424 C449 0.951 . S
H425 C451 0.950 . S
H426 C452 0.950 . S
H427 C454 0.950 . S
H428 C457 0.950 . S
H429 C458 0.950 . S
H430 C460 0.950 . S
H431 C461 0.950 . S
C432 H414 0.951 . S
C432 C433 1.366 . S
C432 C434 1.388 . S
C433 C432 1.366 . S
C433 C437 1.385 . S
C434 H415 0.951 . S
C434 C432 1.388 . S
C434 C435 1.366 . S
C435 C434 1.366 . S
C435 C436 1.414 . S
C435 C438 1.499 . S
C436 H416 0.950 . S
C436 C435 1.414 . S
C436 C437 1.374 . S
C437 H417 0.950 . S
C437 C433 1.385 . S
C437 C436 1.374 . S
C438 C435 1.499 . S
C438 C439 1.373 . S
C438 C440 1.389 . S
C439 H418 0.950 . S
C439 C438 1.373 . S
C439 C455 1.377 . S
C440 C438 1.389 . S
C440 C441 1.524 . S
C440 C454 1.377 . S
C441 C440 1.524 . S
C441 C442 1.397 . S
C441 C446 1.363 . S
C442 H419 0.950 . S
C442 C441 1.397 . S
C442 C443 1.334 . S
C443 H420 0.950 . S
C443 C442 1.334 . S
C443 C444 1.287 . S
C444 C443 1.287 . S
C444 C445 1.524 . S
C444 H463 0.913 . S
C445 H421 0.950 . S
C445 C444 1.524 . S
C445 C446 1.415 . S
C446 H422 0.950 . S
C446 C441 1.363 . S
C446 C445 1.415 . S
C447 H423 0.951 . S
C447 C448 1.366 . S
C447 C449 1.388 . S
C448 C447 1.366 . S
C448 C452 1.385 . S
C449 H424 0.951 . S
C449 C447 1.388 . S
C449 C450 1.366 . S
C450 C449 1.366 . S
C450 C451 1.414 . S
C450 C453 1.499 . S
C451 H425 0.950 . S
C451 C450 1.414 . S
C451 C452 1.374 . S
C452 H426 0.950 . S
C452 C448 1.385 . S
C452 C451 1.374 . S
C453 C450 1.499 . S
C453 C454 1.373 . S
C453 C455 1.389 . S
C454 H427 0.950 . S
C454 C440 1.377 . S
C454 C453 1.373 . S
C455 C439 1.377 . S
C455 C453 1.389 . S
C455 C456 1.524 1_655 S
C456 C455 1.524 1_455 S
C456 C457 1.397 . S
C456 C461 1.363 . S
C457 H428 0.950 . S
C457 C456 1.397 . S
C457 C458 1.334 . S
C458 H429 0.950 . S
C458 C457 1.334 . S
C458 C459 1.287 . S
C459 C458 1.287 . S
C459 C460 1.524 . S
C459 H462 0.999 . S
C460 H430 0.950 . S
C460 C459 1.524 . S
C460 C461 1.415 . S
C461 H431 0.950 . S
C461 C456 1.363 . S
C461 C460 1.415 . S
H462 C459 0.999 . S
H463 C444 0.913 . S
H464 C482 0.951 . S
H465 C484 0.951 . S
H466 C486 0.950 . S
H467 C487 0.950 . S
H468 C489 0.950 . S
H469 C492 0.950 . S
H470 C493 0.950 . S
H471 C495 0.950 . S
H472 C496 0.950 . S
H473 C497 0.951 . S
H474 C499 0.951 . S
H475 C501 0.950 . S
H476 C502 0.950 . S
H477 C504 0.950 . S
H478 C507 0.950 . S
H479 C508 0.950 . S
H480 C510 0.950 . S
H481 C511 0.950 . S
C482 H464 0.951 . S
C482 C483 1.366 . S
C482 C484 1.388 . S
C483 C482 1.366 . S
C483 C487 1.385 . S
C484 H465 0.951 . S
C484 C482 1.388 . S
C484 C485 1.366 . S
C485 C484 1.366 . S
C485 C486 1.414 . S
C485 C488 1.499 . S
C486 H466 0.950 . S
C486 C485 1.414 . S
C486 C487 1.374 . S
C487 H467 0.950 . S
C487 C483 1.385 . S
C487 C486 1.374 . S
C488 C485 1.499 . S
C488 C489 1.373 . S
C488 C490 1.389 . S
C489 H468 0.950 . S
C489 C488 1.373 . S
C489 C505 1.377 . S
C490 C488 1.389 . S
C490 C491 1.524 . S
C490 C504 1.377 . S
C491 C490 1.524 . S
C491 C492 1.397 . S
C491 C496 1.363 . S
C492 H469 0.950 . S
C492 C491 1.397 . S
C492 C493 1.334 . S
C493 H470 0.950 . S
C493 C492 1.334 . S
C493 C494 1.287 . S
C494 C493 1.287 . S
C494 C495 1.524 . S
C494 H513 0.913 . S
C495 H471 0.950 . S
C495 C494 1.524 . S
C495 C496 1.415 . S
C496 H472 0.950 . S
C496 C491 1.363 . S
C496 C495 1.415 . S
C497 H473 0.951 . S
C497 C498 1.366 . S
C497 C499 1.388 . S
C498 C497 1.366 . S
C498 C502 1.385 . S
C499 H474 0.951 . S
C499 C497 1.388 . S
C499 C500 1.366 . S
C500 C499 1.366 . S
C500 C501 1.414 . S
C500 C503 1.499 . S
C501 H475 0.950 . S
C501 C500 1.414 . S
C501 C502 1.374 . S
C502 H476 0.950 . S
C502 C498 1.385 . S
C502 C501 1.374 . S
C503 C500 1.499 . S
C503 C504 1.373 . S
C503 C505 1.389 . S
C504 H477 0.950 . S
C504 C490 1.377 . S
C504 C503 1.373 . S
C505 C489 1.377 . S
C505 C503 1.389 . S
C505 C506 1.524 . S
C506 C505 1.524 . S
C506 C507 1.397 . S
C506 C511 1.363 . S
C507 H478 0.950 . S
C507 C506 1.397 . S
C507 C508 1.334 . S
C508 H479 0.950 . S
C508 C507 1.334 . S
C508 C509 1.287 . S
C509 C508 1.287 . S
C509 C510 1.524 . S
C509 H512 0.999 . S
C510 H480 0.950 . S
C510 C509 1.524 . S
C510 C511 1.415 . S
C511 H481 0.950 . S
C511 C506 1.363 . S
C511 C510 1.415 . S
H512 C509 0.999 . S
H513 C494 0.913 . S
H514 C532 0.951 . S
H515 C534 0.951 . S
H516 C536 0.950 . S
H517 C537 0.950 . S
H518 C539 0.950 . S
H519 C542 0.950 . S
H520 C543 0.950 . S
H521 C545 0.950 . S
H522 C546 0.950 . S
H523 C547 0.951 . S
H524 C549 0.951 . S
H525 C551 0.950 . S
H526 C552 0.950 . S
H527 C554 0.950 . S
H528 C557 0.950 . S
H529 C558 0.950 . S
H530 C560 0.950 . S
H531 C561 0.950 . S
C532 H514 0.951 . S
C532 C533 1.366 . S
C532 C534 1.388 . S
C533 C532 1.366 . S
C533 C537 1.385 . S
C534 H515 0.951 . S
C534 C532 1.388 . S
C534 C535 1.366 . S
C535 C534 1.366 . S
C535 C536 1.414 . S
C535 C538 1.499 . S
C536 H516 0.950 . S
C536 C535 1.414 . S
C536 C537 1.374 . S
C537 H517 0.950 . S
C537 C533 1.385 . S
C537 C536 1.374 . S
C538 C535 1.499 . S
C538 C539 1.373 . S
C538 C540 1.389 . S
C539 H518 0.950 . S
C539 C538 1.373 . S
C539 C555 1.377 . S
C540 C538 1.389 . S
C540 C541 1.524 . S
C540 C554 1.377 . S
C541 C540 1.524 . S
C541 C542 1.397 . S
C541 C546 1.363 . S
C542 H519 0.950 . S
C542 C541 1.397 . S
C542 C543 1.334 . S
C543 H520 0.950 . S
C543 C542 1.334 . S
C543 C544 1.287 . S
C544 C543 1.287 . S
C544 C545 1.524 . S
C544 H563 0.913 . S
C545 H521 0.950 . S
C545 C544 1.524 . S
C545 C546 1.415 . S
C546 H522 0.950 . S
C546 C541 1.363 . S
C546 C545 1.415 . S
C547 H523 0.951 . S
C547 C548 1.366 . S
C547 C549 1.388 . S
C548 C547 1.366 . S
C548 C552 1.385 . S
C549 H524 0.951 . S
C549 C547 1.388 . S
C549 C550 1.366 . S
C550 C549 1.366 . S
C550 C551 1.414 . S
C550 C553 1.499 . S
C551 H525 0.950 . S
C551 C550 1.414 . S
C551 C552 1.374 . S
C552 H526 0.950 . S
C552 C548 1.385 . S
C552 C551 1.374 . S
C553 C550 1.499 . S
C553 C554 1.373 . S
C553 C555 1.389 . S
C554 H527 0.950 . S
C554 C540 1.377 . S
C554 C553 1.373 . S
C555 C539 1.377 . S
C555 C553 1.389 . S
C555 C556 1.524 . S
C556 C555 1.524 . S
C556 C557 1.397 . S
C556 C561 1.363 . S
C557 H528 0.950 . S
C557 C556 1.397 . S
C557 C558 1.334 . S
C558 H529 0.950 . S
C558 C557 1.334 . S
C558 C559 1.287 . S
C559 C558 1.287 . S
C559 C560 1.524 . S
C559 H562 0.999 . S
C560 H530 0.950 . S
C560 C559 1.524 . S
C560 C561 1.415 . S
C561 H531 0.950 . S
C561 C556 1.363 . S
C561 C560 1.415 . S
H562 C559 0.999 . S
H563 C544 0.913 . S
H564 C582 0.951 . S
H565 C584 0.951 . S
H566 C586 0.950 . S
H567 C587 0.950 . S
H568 C589 0.950 . S
H569 C592 0.950 . S
H570 C593 0.950 . S
H571 C595 0.950 . S
H572 C596 0.950 . S
H573 C597 0.951 . S
H574 C599 0.951 . S
H575 C601 0.950 . S
H576 C602 0.950 . S
H577 C604 0.950 . S
H578 C607 0.950 . S
H579 C608 0.950 . S
H580 C610 0.950 . S
H581 C611 0.950 . S
C582 H564 0.951 . S
C582 C583 1.366 . S
C582 C584 1.388 . S
C583 C582 1.366 . S
C583 C587 1.385 . S
C584 H565 0.951 . S
C584 C582 1.388 . S
C584 C585 1.366 . S
C585 C584 1.366 . S
C585 C586 1.414 . S
C585 C588 1.499 . S
C586 H566 0.950 . S
C586 C585 1.414 . S
C586 C587 1.374 . S
C587 H567 0.950 . S
C587 C583 1.385 . S
C587 C586 1.374 . S
C588 C585 1.499 . S
C588 C589 1.373 . S
C588 C590 1.389 . S
C589 H568 0.950 . S
C589 C588 1.373 . S
C589 C605 1.377 . S
C590 C588 1.389 . S
C590 C591 1.524 . S
C590 C604 1.377 . S
C591 C590 1.524 . S
C591 C592 1.397 . S
C591 C596 1.363 . S
C592 H569 0.950 . S
C592 C591 1.397 . S
C592 C593 1.334 . S
C593 H570 0.950 . S
C593 C592 1.334 . S
C593 C594 1.287 . S
C594 C593 1.287 . S
C594 C595 1.524 . S
C594 H613 0.913 . S
C595 H571 0.950 . S
C595 C594 1.524 . S
C595 C596 1.415 . S
C596 H572 0.950 . S
C596 C591 1.363 . S
C596 C595 1.415 . S
C597 H573 0.951 . S
C597 C598 1.366 1_556 S
C597 C599 1.388 . S
C598 C597 1.366 1_554 S
C598 C602 1.385 . S
C599 H574 0.951 . S
C599 C597 1.388 . S
C599 C600 1.366 . S
C600 C599 1.366 . S
C600 C601 1.414 1_556 S
C600 C603 1.499 . S
C601 H575 0.950 . S
C601 C600 1.414 1_554 S
C601 C602 1.374 . S
C602 H576 0.950 . S
C602 C598 1.385 . S
C602 C601 1.374 . S
C603 C600 1.499 . S
C603 C604 1.373 . S
C603 C605 1.389 . S
C604 H577 0.950 . S
C604 C590 1.377 . S
C604 C603 1.373 . S
C605 C589 1.377 . S
C605 C603 1.389 . S
C605 C606 1.524 . S
C606 C605 1.524 . S
C606 C607 1.397 . S
C606 C611 1.363 . S
C607 H578 0.950 . S
C607 C606 1.397 . S
C607 C608 1.334 . S
C608 H579 0.950 . S
C608 C607 1.334 . S
C608 C609 1.287 . S
C609 C608 1.287 . S
C609 C610 1.524 . S
C609 H612 0.999 . S
C610 H580 0.950 . S
C610 C609 1.524 . S
C610 C611 1.415 . S
C611 H581 0.950 . S
C611 C606 1.363 . S
C611 C610 1.415 . S
H612 C609 0.999 . S
H613 C594 0.913 . S
H614 C632 0.951 . S
H615 C634 0.951 . S
H616 C636 0.950 . S
H617 C637 0.950 . S
H618 C639 0.950 . S
H619 C642 0.950 . S
H620 C643 0.950 . S
H621 C645 0.950 . S
H622 C646 0.950 . S
H623 C647 0.951 . S
H624 C649 0.951 . S
H625 C651 0.950 . S
H626 C652 0.950 . S
H627 C654 0.950 . S
H628 C657 0.950 . S
H629 C658 0.950 . S
H630 C660 0.950 . S
H631 C661 0.950 . S
C632 H614 0.951 . S
C632 C633 1.366 . S
C632 C634 1.388 . S
C633 C632 1.366 . S
C633 C637 1.385 . S
C634 H615 0.951 . S
C634 C632 1.388 . S
C634 C635 1.366 . S
C635 C634 1.366 . S
C635 C636 1.414 . S
C635 C638 1.499 . S
C636 H616 0.950 . S
C636 C635 1.414 . S
C636 C637 1.374 . S
C637 H617 0.950 . S
C637 C633 1.385 . S
C637 C636 1.374 . S
C638 C635 1.499 . S
C638 C639 1.373 . S
C638 C640 1.389 . S
C639 H618 0.950 . S
C639 C638 1.373 . S
C639 C655 1.377 . S
C640 C638 1.389 . S
C640 C641 1.524 . S
C640 C654 1.377 . S
C641 C640 1.524 . S
C641 C642 1.397 . S
C641 C646 1.363 . S
C642 H619 0.950 . S
C642 C641 1.397 . S
C642 C643 1.334 . S
C643 H620 0.950 . S
C643 C642 1.334 . S
C643 C644 1.287 . S
C644 C643 1.287 . S
C644 C645 1.524 . S
C644 H663 0.913 . S
C645 H621 0.950 . S
C645 C644 1.524 . S
C645 C646 1.415 . S
C646 H622 0.950 . S
C646 C641 1.363 . S
C646 C645 1.415 . S
C647 H623 0.951 . S
C647 C648 1.366 . S
C647 C649 1.388 . S
C648 C647 1.366 . S
C648 C652 1.385 . S
C649 H624 0.951 . S
C649 C647 1.388 . S
C649 C650 1.366 . S
C650 C649 1.366 . S
C650 C651 1.414 . S
C650 C653 1.499 . S
C651 H625 0.950 . S
C651 C650 1.414 . S
C651 C652 1.374 . S
C652 H626 0.950 . S
C652 C648 1.385 . S
C652 C651 1.374 . S
C653 C650 1.499 . S
C653 C654 1.373 . S
C653 C655 1.389 . S
C654 H627 0.950 . S
C654 C640 1.377 . S
C654 C653 1.373 . S
C655 C639 1.377 . S
C655 C653 1.389 . S
C655 C656 1.524 . S
C656 C655 1.524 . S
C656 C657 1.397 . S
C656 C661 1.363 . S
C657 H628 0.950 . S
C657 C656 1.397 . S
C657 C658 1.334 . S
C658 H629 0.950 . S
C658 C657 1.334 . S
C658 C659 1.287 . S
C659 C658 1.287 . S
C659 C660 1.524 . S
C659 H662 0.999 . S
C660 H630 0.950 . S
C660 C659 1.524 . S
C660 C661 1.415 . S
C661 H631 0.950 . S
C661 C656 1.363 . S
C661 C660 1.415 . S
H662 C659 0.999 . S
H663 C644 0.913 . S
H664 C682 0.951 . S
H665 C684 0.951 . S
H666 C686 0.950 . S
H667 C687 0.950 . S
H668 C689 0.950 . S
H669 C692 0.950 . S
H670 C693 0.950 . S
H671 C695 0.950 . S
H672 C696 0.950 . S
H673 C697 0.951 . S
H674 C699 0.951 . S
H675 C701 0.950 . S
H676 C702 0.950 . S
H677 C704 0.950 . S
H678 C707 0.950 . S
H679 C708 0.950 . S
H680 C710 0.950 . S
H681 C711 0.950 . S
C682 H664 0.951 . S
C682 C683 1.366 . S
C682 C684 1.388 . S
C683 C682 1.366 . S
C683 C687 1.385 . S
C684 H665 0.951 . S
C684 C682 1.388 . S
C684 C685 1.366 . S
C685 C684 1.366 . S
C685 C686 1.414 . S
C685 C688 1.499 . S
C686 H666 0.950 . S
C686 C685 1.414 . S
C686 C687 1.374 . S
C687 H667 0.950 . S
C687 C683 1.385 . S
C687 C686 1.374 . S
C688 C685 1.499 . S
C688 C689 1.373 . S
C688 C690 1.389 . S
C689 H668 0.950 . S
C689 C688 1.373 . S
C689 C705 1.377 . S
C690 C688 1.389 . S
C690 C691 1.524 . S
C690 C704 1.377 . S
C691 C690 1.524 . S
C691 C692 1.397 . S
C691 C696 1.363 . S
C692 H669 0.950 . S
C692 C691 1.397 . S
C692 C693 1.334 . S
C693 H670 0.950 . S
C693 C692 1.334 . S
C693 C694 1.287 . S
C694 C693 1.287 . S
C694 C695 1.524 . S
C694 H713 0.913 . S
C695 H671 0.950 . S
C695 C694 1.524 . S
C695 C696 1.415 . S
C696 H672 0.950 . S
C696 C691 1.363 . S
C696 C695 1.415 . S
C697 H673 0.951 . S
C697 C698 1.366 . S
C697 C699 1.388 . S
C698 C697 1.366 . S
C698 C702 1.385 . S
C699 H674 0.951 . S
C699 C697 1.388 . S
C699 C700 1.366 . S
C700 C699 1.366 . S
C700 C701 1.414 . S
C700 C703 1.499 . S
C701 H675 0.950 . S
C701 C700 1.414 . S
C701 C702 1.374 . S
C702 H676 0.950 . S
C702 C698 1.385 . S
C702 C701 1.374 . S
C703 C700 1.499 . S
C703 C704 1.373 . S
C703 C705 1.389 . S
C704 H677 0.950 . S
C704 C690 1.377 . S
C704 C703 1.373 . S
C705 C689 1.377 . S
C705 C703 1.389 . S
C705 C706 1.524 . S
C706 C705 1.524 . S
C706 C707 1.397 . S
C706 C711 1.363 . S
C707 H678 0.950 . S
C707 C706 1.397 . S
C707 C708 1.334 . S
C708 H679 0.950 . S
C708 C707 1.334 . S
C708 C709 1.287 . S
C709 C708 1.287 . S
C709 C710 1.524 . S
C709 H712 0.999 . S
C710 H680 0.950 . S
C710 C709 1.524 . S
C710 C711 1.415 . S
C711 H681 0.950 . S
C711 C706 1.363 . S
C711 C710 1.415 . S
H712 C709 0.999 . S
H713 C694 0.913 . S
H714 C732 0.951 . S
H715 C734 0.951 . S
H716 C736 0.950 . S
H717 C737 0.950 . S
H718 C739 0.950 . S
H719 C742 0.950 . S
H720 C743 0.950 . S
H721 C745 0.950 . S
H722 C746 0.950 . S
H723 C747 0.951 . S
H724 C749 0.951 . S
H725 C751 0.950 . S
H726 C752 0.950 . S
H727 C754 0.950 . S
H728 C757 0.950 . S
H729 C758 0.950 1_554 S
H730 C760 0.950 . S
H731 C761 0.950 . S
C732 H714 0.951 . S
C732 C733 1.366 . S
C732 C734 1.388 . S
C733 C732 1.366 . S
C733 C737 1.385 . S
C734 H715 0.951 . S
C734 C732 1.388 . S
C734 C735 1.366 . S
C735 C734 1.366 . S
C735 C736 1.414 . S
C735 C738 1.499 . S
C736 H716 0.950 . S
C736 C735 1.414 . S
C736 C737 1.374 . S
C737 H717 0.950 . S
C737 C733 1.385 . S
C737 C736 1.374 . S
C738 C735 1.499 . S
C738 C739 1.373 . S
C738 C740 1.389 . S
C739 H718 0.950 . S
C739 C738 1.373 . S
C739 C755 1.377 . S
C740 C738 1.389 . S
C740 C741 1.524 . S
C740 C754 1.377 . S
C741 C740 1.524 . S
C741 C742 1.397 . S
C741 C746 1.363 . S
C742 H719 0.950 . S
C742 C741 1.397 . S
C742 C743 1.334 . S
C743 H720 0.950 . S
C743 C742 1.334 . S
C743 C744 1.287 . S
C744 C743 1.287 . S
C744 C745 1.524 . S
C744 H763 0.913 . S
C745 H721 0.950 . S
C745 C744 1.524 . S
C745 C746 1.415 . S
C746 H722 0.950 . S
C746 C741 1.363 . S
C746 C745 1.415 . S
C747 H723 0.951 . S
C747 C748 1.366 . S
C747 C749 1.388 . S
C748 C747 1.366 . S
C748 C752 1.385 . S
C749 H724 0.951 . S
C749 C747 1.388 . S
C749 C750 1.366 . S
C750 C749 1.366 . S
C750 C751 1.414 . S
C750 C753 1.499 . S
C751 H725 0.950 . S
C751 C750 1.414 . S
C751 C752 1.374 . S
C752 H726 0.950 . S
C752 C748 1.385 . S
C752 C751 1.374 . S
C753 C750 1.499 . S
C753 C754 1.373 . S
C753 C755 1.389 . S
C754 H727 0.950 . S
C754 C740 1.377 . S
C754 C753 1.373 . S
C755 C739 1.377 . S
C755 C753 1.389 . S
C755 C756 1.524 . S
C756 C755 1.524 . S
C756 C757 1.397 . S
C756 C761 1.363 . S
C757 H728 0.950 . S
C757 C756 1.397 . S
C757 C758 1.334 . S
C758 H729 0.950 1_556 S
C758 C757 1.334 . S
C758 C759 1.287 . S
C759 C758 1.287 . S
C759 C760 1.524 . S
C759 H762 0.999 . S
C760 H730 0.950 . S
C760 C759 1.524 . S
C760 C761 1.415 . S
C761 H731 0.950 . S
C761 C756 1.363 . S
C761 C760 1.415 . S
H762 C759 0.999 . S
H763 C744 0.913 . S
H764 C782 0.951 . S
H765 C784 0.951 . S
H766 C786 0.950 . S
H767 C787 0.950 . S
H768 C789 0.950 . S
H769 C792 0.950 . S
H770 C793 0.950 . S
H771 C795 0.950 . S
H772 C796 0.950 . S
H773 C797 0.951 . S
H774 C799 0.951 1_455 S
H775 C801 0.950 . S
H776 C802 0.950 . S
H777 C804 0.950 . S
H778 C807 0.950 . S
H779 C808 0.950 . S
H780 C810 0.950 . S
H781 C811 0.950 . S
C782 H764 0.951 . S
C782 C783 1.366 . S
C782 C784 1.388 . S
C783 C782 1.366 . S
C783 C787 1.385 . S
C784 H765 0.951 . S
C784 C782 1.388 . S
C784 C785 1.366 . S
C785 C784 1.366 . S
C785 C786 1.414 . S
C785 C788 1.499 . S
C786 H766 0.950 . S
C786 C785 1.414 . S
C786 C787 1.374 . S
C787 H767 0.950 . S
C787 C783 1.385 . S
C787 C786 1.374 . S
C788 C785 1.499 . S
C788 C789 1.373 . S
C788 C790 1.389 . S
C789 H768 0.950 . S
C789 C788 1.373 . S
C789 C805 1.377 . S
C790 C788 1.389 . S
C790 C791 1.524 . S
C790 C804 1.377 . S
C791 C790 1.524 . S
C791 C792 1.397 . S
C791 C796 1.363 . S
C792 H769 0.950 . S
C792 C791 1.397 . S
C792 C793 1.334 . S
C793 H770 0.950 . S
C793 C792 1.334 . S
C793 C794 1.287 . S
C794 C793 1.287 . S
C794 C795 1.524 . S
C794 H813 0.913 . S
C795 H771 0.950 . S
C795 C794 1.524 . S
C795 C796 1.415 . S
C796 H772 0.950 . S
C796 C791 1.363 . S
C796 C795 1.415 . S
C797 H773 0.951 . S
C797 C798 1.366 1_455 S
C797 C799 1.388 1_455 S
C798 C797 1.366 1_655 S
C798 C802 1.385 . S
C799 H774 0.951 1_655 S
C799 C797 1.388 1_655 S
C799 C800 1.366 . S
C800 C799 1.366 . S
C800 C801 1.414 . S
C800 C803 1.499 . S
C801 H775 0.950 . S
C801 C800 1.414 . S
C801 C802 1.374 . S
C802 H776 0.950 . S
C802 C798 1.385 . S
C802 C801 1.374 . S
C803 C800 1.499 . S
C803 C804 1.373 . S
C803 C805 1.389 . S
C804 H777 0.950 . S
C804 C790 1.377 . S
C804 C803 1.373 . S
C805 C789 1.377 . S
C805 C803 1.389 . S
C805 C806 1.524 1_655 S
C806 C805 1.524 1_455 S
C806 C807 1.397 1_455 S
C806 C811 1.363 . S
C807 H778 0.950 . S
C807 C806 1.397 1_655 S
C807 C808 1.334 1_655 S
C808 H779 0.950 . S
C808 C807 1.334 1_455 S
C808 C809 1.287 . S
C809 C808 1.287 . S
C809 C810 1.524 . S
C809 H812 0.999 . S
C810 H780 0.950 . S
C810 C809 1.524 . S
C810 C811 1.415 . S
C811 H781 0.950 . S
C811 C806 1.363 . S
C811 C810 1.415 . S
H812 C809 0.999 . S
H813 C794 0.913 . S
H814 C832 0.951 . S
H815 C834 0.951 . S
H816 C836 0.950 . S
H817 C837 0.950 . S
H818 C839 0.950 . S
H819 C842 0.950 . S
H820 C843 0.950 . S
H821 C845 0.950 . S
H822 C846 0.950 . S
H823 C847 0.951 . S
H824 C849 0.951 . S
H825 C851 0.950 . S
H826 C852 0.950 . S
H827 C854 0.950 . S
H828 C857 0.950 . S
H829 C858 0.950 . S
H830 C860 0.950 . S
H831 C861 0.950 . S
C832 H814 0.951 . S
C832 C833 1.366 . S
C832 C834 1.388 . S
C833 C832 1.366 . S
C833 C837 1.385 . S
C834 H815 0.951 . S
C834 C832 1.388 . S
C834 C835 1.366 . S
C835 C834 1.366 . S
C835 C836 1.414 . S
C835 C838 1.499 . S
C836 H816 0.950 . S
C836 C835 1.414 . S
C836 C837 1.374 . S
C837 H817 0.950 . S
C837 C833 1.385 . S
C837 C836 1.374 . S
C838 C835 1.499 . S
C838 C839 1.373 . S
C838 C840 1.389 . S
C839 H818 0.950 . S
C839 C838 1.373 . S
C839 C855 1.377 . S
C840 C838 1.389 . S
C840 C841 1.524 . S
C840 C854 1.377 . S
C841 C840 1.524 . S
C841 C842 1.397 . S
C841 C846 1.363 . S
C842 H819 0.950 . S
C842 C841 1.397 . S
C842 C843 1.334 . S
C843 H820 0.950 . S
C843 C842 1.334 . S
C843 C844 1.287 . S
C844 C843 1.287 . S
C844 C845 1.524 . S
C844 H863 0.913 . S
C845 H821 0.950 . S
C845 C844 1.524 . S
C845 C846 1.415 . S
C846 H822 0.950 . S
C846 C841 1.363 . S
C846 C845 1.415 . S
C847 H823 0.951 . S
C847 C848 1.366 . S
C847 C849 1.388 . S
C848 C847 1.366 . S
C848 C852 1.385 . S
C849 H824 0.951 . S
C849 C847 1.388 . S
C849 C850 1.366 . S
C850 C849 1.366 . S
C850 C851 1.414 . S
C850 C853 1.499 . S
C851 H825 0.950 . S
C851 C850 1.414 . S
C851 C852 1.374 . S
C852 H826 0.950 . S
C852 C848 1.385 . S
C852 C851 1.374 . S
C853 C850 1.499 . S
C853 C854 1.373 . S
C853 C855 1.389 . S
C854 H827 0.950 . S
C854 C840 1.377 . S
C854 C853 1.373 . S
C855 C839 1.377 . S
C855 C853 1.389 . S
C855 C856 1.524 . S
C856 C855 1.524 . S
C856 C857 1.397 . S
C856 C861 1.363 . S
C857 H828 0.950 . S
C857 C856 1.397 . S
C857 C858 1.334 . S
C858 H829 0.950 . S
C858 C857 1.334 . S
C858 C859 1.287 . S
C859 C858 1.287 . S
C859 C860 1.524 . S
C859 H862 0.999 . S
C860 H830 0.950 . S
C860 C859 1.524 . S
C860 C861 1.415 . S
C861 H831 0.950 . S
C861 C856 1.363 . S
C861 C860 1.415 . S
H862 C859 0.999 . S
H863 C844 0.913 . S
H864 C882 0.951 . S
H865 C884 0.951 . S
H866 C886 0.950 . S
H867 C887 0.950 . S
H868 C889 0.950 . S
H869 C892 0.950 . S
H870 C893 0.950 . S
H871 C895 0.950 . S
H872 C896 0.950 . S
H873 C897 0.951 . S
H874 C899 0.951 . S
H875 C901 0.950 . S
H876 C902 0.950 . S
H877 C904 0.950 . S
H878 C907 0.950 . S
H879 C908 0.950 . S
H880 C910 0.950 . S
H881 C911 0.950 . S
C882 H864 0.951 . S
C882 C883 1.366 . S
C882 C884 1.388 . S
C883 C882 1.366 . S
C883 C887 1.385 . S
C884 H865 0.951 . S
C884 C882 1.388 . S
C884 C885 1.366 . S
C885 C884 1.366 . S
C885 C886 1.414 . S
C885 C888 1.499 . S
C886 H866 0.950 . S
C886 C885 1.414 . S
C886 C887 1.374 . S
C887 H867 0.950 . S
C887 C883 1.385 . S
C887 C886 1.374 . S
C888 C885 1.499 . S
C888 C889 1.373 . S
C888 C890 1.389 . S
C889 H868 0.950 . S
C889 C888 1.373 . S
C889 C905 1.377 . S
C890 C888 1.389 . S
C890 C891 1.524 . S
C890 C904 1.377 . S
C891 C890 1.524 . S
C891 C892 1.397 . S
C891 C896 1.363 . S
C892 H869 0.950 . S
C892 C891 1.397 . S
C892 C893 1.334 . S
C893 H870 0.950 . S
C893 C892 1.334 . S
C893 C894 1.287 . S
C894 C893 1.287 . S
C894 C895 1.524 . S
C894 H913 0.913 . S
C895 H871 0.950 . S
C895 C894 1.524 . S
C895 C896 1.415 . S
C896 H872 0.950 . S
C896 C891 1.363 . S
C896 C895 1.415 . S
C897 H873 0.951 . S
C897 C898 1.366 . S
C897 C899 1.388 . S
C898 C897 1.366 . S
C898 C902 1.385 . S
C899 H874 0.951 . S
C899 C897 1.388 . S
C899 C900 1.366 . S
C900 C899 1.366 . S
C900 C901 1.414 . S
C900 C903 1.499 . S
C901 H875 0.950 . S
C901 C900 1.414 . S
C901 C902 1.374 . S
C902 H876 0.950 . S
C902 C898 1.385 . S
C902 C901 1.374 . S
C903 C900 1.499 . S
C903 C904 1.373 . S
C903 C905 1.389 . S
C904 H877 0.950 . S
C904 C890 1.377 . S
C904 C903 1.373 . S
C905 C889 1.377 . S
C905 C903 1.389 . S
C905 C906 1.524 . S
C906 C905 1.524 . S
C906 C907 1.397 . S
C906 C911 1.363 . S
C907 H878 0.950 . S
C907 C906 1.397 . S
C907 C908 1.334 . S
C908 H879 0.950 . S
C908 C907 1.334 . S
C908 C909 1.287 . S
C909 C908 1.287 . S
C909 C910 1.524 . S
C909 H912 0.999 . S
C910 H880 0.950 . S
C910 C909 1.524 . S
C910 C911 1.415 . S
C911 H881 0.950 . S
C911 C906 1.363 . S
C911 C910 1.415 . S
H912 C909 0.999 . S
H913 C894 0.913 . S
H914 C932 0.951 . S
H915 C934 0.951 . S
H916 C936 0.950 . S
H917 C937 0.950 . S
H918 C939 0.950 . S
H919 C942 0.950 . S
H920 C943 0.950 . S
H921 C945 0.950 . S
H922 C946 0.950 . S
H923 C947 0.951 . S
H924 C949 0.951 . S
H925 C951 0.950 . S
H926 C952 0.950 . S
H927 C954 0.950 . S
H928 C957 0.950 . S
H929 C958 0.950 . S
H930 C960 0.950 . S
H931 C961 0.950 . S
C932 H914 0.951 . S
C932 C933 1.366 . S
C932 C934 1.388 . S
C933 C932 1.366 . S
C933 C937 1.385 . S
C934 H915 0.951 . S
C934 C932 1.388 . S
C934 C935 1.366 . S
C935 C934 1.366 . S
C935 C936 1.414 . S
C935 C938 1.499 . S
C936 H916 0.950 . S
C936 C935 1.414 . S
C936 C937 1.374 . S
C937 H917 0.950 . S
C937 C933 1.385 . S
C937 C936 1.374 . S
C938 C935 1.499 . S
C938 C939 1.373 . S
C938 C940 1.389 . S
C939 H918 0.950 . S
C939 C938 1.373 . S
C939 C955 1.377 . S
C940 C938 1.389 . S
C940 C941 1.524 . S
C940 C954 1.377 . S
C941 C940 1.524 . S
C941 C942 1.397 . S
C941 C946 1.363 . S
C942 H919 0.950 . S
C942 C941 1.397 . S
C942 C943 1.334 . S
C943 H920 0.950 . S
C943 C942 1.334 . S
C943 C944 1.287 . S
C944 C943 1.287 . S
C944 C945 1.524 . S
C944 H963 0.913 . S
C945 H921 0.950 . S
C945 C944 1.524 . S
C945 C946 1.415 . S
C946 H922 0.950 . S
C946 C941 1.363 . S
C946 C945 1.415 . S
C947 H923 0.951 . S
C947 C948 1.366 . S
C947 C949 1.388 . S
C948 C947 1.366 . S
C948 C952 1.385 . S
C949 H924 0.951 . S
C949 C947 1.388 . S
C949 C950 1.366 . S
C950 C949 1.366 . S
C950 C951 1.414 . S
C950 C953 1.499 . S
C951 H925 0.950 . S
C951 C950 1.414 . S
C951 C952 1.374 . S
C952 H926 0.950 . S
C952 C948 1.385 . S
C952 C951 1.374 . S
C953 C950 1.499 . S
C953 C954 1.373 . S
C953 C955 1.389 . S
C954 H927 0.950 . S
C954 C940 1.377 . S
C954 C953 1.373 . S
C955 C939 1.377 . S
C955 C953 1.389 . S
C955 C956 1.524 . S
C956 C955 1.524 . S
C956 C957 1.397 . S
C956 C961 1.363 . S
C957 H928 0.950 . S
C957 C956 1.397 . S
C957 C958 1.334 . S
C958 H929 0.950 . S
C958 C957 1.334 . S
C958 C959 1.287 . S
C959 C958 1.287 . S
C959 C960 1.524 . S
C959 H962 0.999 . S
C960 H930 0.950 . S
C960 C959 1.524 . S
C960 C961 1.415 . S
C961 H931 0.950 . S
C961 C956 1.363 . S
C961 C960 1.415 . S
H962 C959 0.999 . S
H963 C944 0.913 . S
H964 C982 0.951 . S
H965 C984 0.951 . S
H966 C986 0.950 . S
H967 C987 0.950 . S
H968 C989 0.950 . S
H969 C992 0.950 . S
H970 C993 0.950 . S
H971 C995 0.950 . S
H972 C996 0.950 . S
H973 C997 0.951 . S
H974 C999 0.951 . S
H975 C1001 0.950 . S
H976 C1002 0.950 . S
H977 C1004 0.950 . S
H978 C1007 0.950 . S
H979 C1008 0.950 . S
H980 C1010 0.950 . S
H981 C1011 0.950 . S
C982 H964 0.951 . S
C982 C983 1.366 . S
C982 C984 1.388 . S
C983 C982 1.366 . S
C983 C987 1.385 . S
C984 H965 0.951 . S
C984 C982 1.388 . S
C984 C985 1.366 . S
C985 C984 1.366 . S
C985 C986 1.414 . S
C985 C988 1.499 . S
C986 H966 0.950 . S
C986 C985 1.414 . S
C986 C987 1.374 . S
C987 H967 0.950 . S
C987 C983 1.385 . S
C987 C986 1.374 . S
C988 C985 1.499 . S
C988 C989 1.373 . S
C988 C990 1.389 . S
C989 H968 0.950 . S
C989 C988 1.373 . S
C989 C1005 1.377 . S
C990 C988 1.389 . S
C990 C991 1.524 . S
C990 C1004 1.377 . S
C991 C990 1.524 . S
C991 C992 1.397 . S
C991 C996 1.363 . S
C992 H969 0.950 . S
C992 C991 1.397 . S
C992 C993 1.334 . S
C993 H970 0.950 . S
C993 C992 1.334 . S
C993 C994 1.287 . S
C994 C993 1.287 . S
C994 C995 1.524 . S
C994 H1013 0.913 . S
C995 H971 0.950 . S
C995 C994 1.524 . S
C995 C996 1.415 . S
C996 H972 0.950 . S
C996 C991 1.363 . S
C996 C995 1.415 . S
C997 H973 0.951 . S
C997 C998 1.366 . S
C997 C999 1.388 . S
C998 C997 1.366 . S
C998 C1002 1.385 . S
C999 H974 0.951 . S
C999 C997 1.388 . S
C999 C1000 1.366 . S
C1000 C999 1.366 . S
C1000 C1001 1.414 . S
C1000 C1003 1.499 . S
C1001 H975 0.950 . S
C1001 C1000 1.414 . S
C1001 C1002 1.374 . S
C1002 H976 0.950 . S
C1002 C998 1.385 . S
C1002 C1001 1.374 . S
C1003 C1000 1.499 . S
C1003 C1004 1.373 . S
C1003 C1005 1.389 . S
C1004 H977 0.950 . S
C1004 C990 1.377 . S
C1004 C1003 1.373 . S
C1005 C989 1.377 . S
C1005 C1003 1.389 . S
C1005 C1006 1.524 . S
C1006 C1005 1.524 . S
C1006 C1007 1.397 . S
C1006 C1011 1.363 . S
C1007 H978 0.950 . S
C1007 C1006 1.397 . S
C1007 C1008 1.334 . S
C1008 H979 0.950 . S
C1008 C1007 1.334 . S
C1008 C1009 1.287 . S
C1009 C1008 1.287 . S
C1009 C1010 1.524 . S
C1009 H1012 0.999 . S
C1010 H980 0.950 . S
C1010 C1009 1.524 . S
C1010 C1011 1.415 . S
C1011 H981 0.950 . S
C1011 C1006 1.363 . S
C1011 C1010 1.415 . S
H1012 C1009 0.999 . S
H1013 C994 0.913 . S
H1014 C1032 0.951 . S
H1015 C1034 0.951 . S
H1016 C1036 0.950 . S
H1017 C1037 0.950 . S
H1018 C1039 0.950 . S
H1019 C1042 0.950 . S
H1020 C1043 0.950 . S
H1021 C1045 0.950 . S
H1022 C1046 0.950 . S
H1023 C1047 0.951 . S
H1024 C1049 0.951 . S
H1025 C1051 0.950 . S
H1026 C1052 0.950 . S
H1027 C1054 0.950 . S
H1028 C1057 0.950 . S
H1029 C1058 0.967 . S
H1030 C1060 0.950 . S
H1031 C1061 0.950 . S
C1032 H1014 0.951 . S
C1032 C1033 1.366 . S
C1032 C1034 1.388 . S
C1033 C1032 1.366 . S
C1033 C1037 1.385 . S
C1034 H1015 0.951 . S
C1034 C1032 1.388 . S
C1034 C1035 1.366 . S
C1035 C1034 1.366 . S
C1035 C1036 1.414 . S
C1035 C1038 1.499 . S
C1036 H1016 0.950 . S
C1036 C1035 1.414 . S
C1036 C1037 1.374 . S
C1037 H1017 0.950 . S
C1037 C1033 1.385 . S
C1037 C1036 1.374 . S
C1038 C1035 1.499 . S
C1038 C1039 1.373 . S
C1038 C1040 1.389 . S
C1039 H1018 0.950 . S
C1039 C1038 1.373 . S
C1039 C1055 1.377 . S
C1040 C1038 1.389 . S
C1040 C1041 1.524 . S
C1040 C1054 1.377 . S
C1041 C1040 1.524 . S
C1041 C1042 1.397 . S
C1041 C1046 1.363 . S
C1042 H1019 0.950 . S
C1042 C1041 1.397 . S
C1042 C1043 1.334 . S
C1043 H1020 0.950 . S
C1043 C1042 1.334 . S
C1043 C1044 1.287 . S
C1044 C1043 1.287 . S
C1044 C1045 1.524 . S
C1044 H1063 0.913 . S
C1045 H1021 0.950 . S
C1045 C1044 1.524 . S
C1045 C1046 1.415 . S
C1046 H1022 0.950 . S
C1046 C1041 1.363 . S
C1046 C1045 1.415 . S
C1047 H1023 0.951 . S
C1047 C1048 1.366 . S
C1047 C1049 1.388 . S
C1048 C1047 1.366 . S
C1048 C1052 1.385 . S
C1049 H1024 0.951 . S
C1049 C1047 1.388 . S
C1049 C1050 1.366 . S
C1050 C1049 1.366 . S
C1050 C1051 1.414 . S
C1050 C1053 1.499 . S
C1051 H1025 0.950 . S
C1051 C1050 1.414 . S
C1051 C1052 1.374 . S
C1052 H1026 0.950 . S
C1052 C1048 1.385 . S
C1052 C1051 1.374 . S
C1053 C1050 1.499 . S
C1053 C1054 1.373 . S
C1053 C1055 1.389 . S
C1054 H1027 0.950 . S
C1054 C1040 1.377 . S
C1054 C1053 1.373 . S
C1055 C1039 1.377 . S
C1055 C1053 1.389 . S
C1055 C1056 1.524 . S
C1056 C1055 1.524 . S
C1056 C1057 1.397 . S
C1056 C1061 1.363 . S
C1057 H1028 0.950 . S
C1057 C1056 1.397 . S
C1057 C1058 1.334 . S
C1058 H1029 0.967 . S
C1058 C1057 1.334 . S
C1058 C1059 1.287 . S
C1059 C1058 1.287 . S
C1059 C1060 1.524 . S
C1059 H1062 0.999 . S
C1060 H1030 0.950 . S
C1060 C1059 1.524 . S
C1060 C1061 1.415 . S
C1061 H1031 0.950 . S
C1061 C1056 1.363 . S
C1061 C1060 1.415 . S
H1062 C1059 0.999 . S
H1063 C1044 0.913 . S
H1064 C1082 0.951 . S
H1065 C1084 0.951 . S
H1066 C1086 0.950 . S
H1067 C1087 0.950 . S
H1068 C1089 0.950 . S
H1069 C1092 0.950 . S
H1070 C1093 0.950 . S
H1071 C1095 0.950 . S
H1072 C1096 0.950 . S
H1073 C1097 0.951 . S
H1074 C1099 0.951 . S
H1075 C1101 0.950 . S
H1076 C1102 0.950 . S
H1077 C1104 0.950 . S
H1078 C1107 0.950 . S
H1079 C1108 0.950 . S
H1080 C1110 0.950 . S
H1081 C1111 0.950 . S
C1082 H1064 0.951 . S
C1082 C1083 1.366 . S
C1082 C1084 1.388 . S
C1083 C1082 1.366 . S
C1083 C1087 1.385 . S
C1084 H1065 0.951 . S
C1084 C1082 1.388 . S
C1084 C1085 1.366 . S
C1085 C1084 1.366 . S
C1085 C1086 1.414 . S
C1085 C1088 1.499 . S
C1086 H1066 0.950 . S
C1086 C1085 1.414 . S
C1086 C1087 1.374 . S
C1087 H1067 0.950 . S
C1087 C1083 1.385 . S
C1087 C1086 1.374 . S
C1088 C1085 1.499 . S
C1088 C1089 1.373 . S
C1088 C1090 1.389 . S
C1089 H1068 0.950 . S
C1089 C1088 1.373 . S
C1089 C1105 1.377 . S
C1090 C1088 1.389 . S
C1090 C1091 1.524 . S
C1090 C1104 1.377 . S
C1091 C1090 1.524 . S
C1091 C1092 1.397 . S
C1091 C1096 1.363 . S
C1092 H1069 0.950 . S
C1092 C1091 1.397 . S
C1092 C1093 1.334 . S
C1093 H1070 0.950 . S
C1093 C1092 1.334 . S
C1093 C1094 1.287 . S
C1094 C1093 1.287 . S
C1094 C1095 1.524 . S
C1094 H1113 0.913 . S
C1095 H1071 0.950 . S
C1095 C1094 1.524 . S
C1095 C1096 1.415 . S
C1096 H1072 0.950 . S
C1096 C1091 1.363 . S
C1096 C1095 1.415 . S
C1097 H1073 0.951 . S
C1097 C1098 1.366 . S
C1097 C1099 1.388 . S
C1098 C1097 1.366 . S
C1098 C1102 1.385 . S
C1099 H1074 0.951 . S
C1099 C1097 1.388 . S
C1099 C1100 1.366 . S
C1100 C1099 1.366 . S
C1100 C1101 1.414 . S
C1100 C1103 1.499 . S
C1101 H1075 0.950 . S
C1101 C1100 1.414 . S
C1101 C1102 1.374 . S
C1102 H1076 0.950 . S
C1102 C1098 1.385 . S
C1102 C1101 1.374 . S
C1103 C1100 1.499 . S
C1103 C1104 1.373 . S
C1103 C1105 1.389 . S
C1104 H1077 0.950 . S
C1104 C1090 1.377 . S
C1104 C1103 1.373 . S
C1105 C1089 1.377 . S
C1105 C1103 1.389 . S
C1105 C1106 1.524 . S
C1106 C1105 1.524 . S
C1106 C1107 1.397 . S
C1106 C1111 1.363 . S
C1107 H1078 0.950 . S
C1107 C1106 1.397 . S
C1107 C1108 1.334 . S
C1108 H1079 0.950 . S
C1108 C1107 1.334 . S
C1108 C1109 1.287 1_556 S
C1109 C1108 1.287 1_554 S
C1109 C1110 1.524 . S
C1109 H1112 0.999 . S
C1110 H1080 0.950 . S
C1110 C1109 1.524 . S
C1110 C1111 1.415 1_554 S
C1111 H1081 0.950 . S
C1111 C1106 1.363 . S
C1111 C1110 1.415 1_556 S
H1112 C1109 0.999 . S
H1113 C1094 0.913 . S
H1114 C1132 0.951 . S
H1115 C1134 0.951 . S
H1116 C1136 0.950 . S
H1117 C1137 0.950 . S
H1118 C1139 0.950 . S
H1119 C1142 0.950 . S
H1120 C1143 0.950 . S
H1121 C1145 0.950 . S
H1122 C1146 0.950 . S
H1123 C1147 0.951 . S
H1124 C1149 0.951 . S
H1125 C1151 0.950 . S
H1126 C1152 0.950 . S
H1127 C1154 0.950 . S
H1128 C1157 0.950 . S
H1129 C1158 0.950 . S
H1130 C1160 0.950 . S
H1131 C1161 0.950 . S
C1132 H1114 0.951 . S
C1132 C1133 1.366 . S
C1132 C1134 1.388 . S
C1133 C1132 1.366 . S
C1133 C1137 1.385 . S
C1134 H1115 0.951 . S
C1134 C1132 1.388 . S
C1134 C1135 1.366 . S
C1135 C1134 1.366 . S
C1135 C1136 1.414 . S
C1135 C1138 1.499 . S
C1136 H1116 0.950 . S
C1136 C1135 1.414 . S
C1136 C1137 1.374 . S
C1137 H1117 0.950 . S
C1137 C1133 1.385 . S
C1137 C1136 1.374 . S
C1138 C1135 1.499 . S
C1138 C1139 1.373 . S
C1138 C1140 1.389 . S
C1139 H1118 0.950 . S
C1139 C1138 1.373 . S
C1139 C1155 1.377 . S
C1140 C1138 1.389 . S
C1140 C1141 1.524 . S
C1140 C1154 1.377 . S
C1141 C1140 1.524 . S
C1141 C1142 1.397 . S
C1141 C1146 1.363 . S
C1142 H1119 0.950 . S
C1142 C1141 1.397 . S
C1142 C1143 1.334 1_655 S
C1143 H1120 0.950 . S
C1143 C1142 1.334 1_455 S
C1143 C1144 1.287 . S
C1144 C1143 1.287 . S
C1144 C1145 1.524 . S
C1144 H1163 0.913 . S
C1145 H1121 0.950 . S
C1145 C1144 1.524 . S
C1145 C1146 1.414 1_455 S
C1146 H1122 0.950 . S
C1146 C1141 1.363 . S
C1146 C1145 1.414 1_655 S
C1147 H1123 0.951 . S
C1147 C1148 1.366 . S
C1147 C1149 1.388 . S
C1148 C1147 1.366 . S
C1148 C1152 1.385 . S
C1149 H1124 0.951 . S
C1149 C1147 1.388 . S
C1149 C1150 1.366 . S
C1150 C1149 1.366 . S
C1150 C1151 1.414 . S
C1150 C1153 1.499 . S
C1151 H1125 0.950 . S
C1151 C1150 1.414 . S
C1151 C1152 1.374 . S
C1152 H1126 0.950 . S
C1152 C1148 1.385 . S
C1152 C1151 1.374 . S
C1153 C1150 1.499 . S
C1153 C1154 1.373 . S
C1153 C1155 1.389 . S
C1154 H1127 0.950 . S
C1154 C1140 1.377 . S
C1154 C1153 1.373 . S
C1155 C1139 1.377 . S
C1155 C1153 1.389 . S
C1155 C1156 1.524 . S
C1156 C1155 1.524 . S
C1156 C1157 1.397 . S
C1156 C1161 1.363 . S
C1157 H1128 0.950 . S
C1157 C1156 1.397 . S
C1157 C1158 1.334 . S
C1158 H1129 0.950 . S
C1158 C1157 1.334 . S
C1158 C1159 1.287 . S
C1159 C1158 1.287 . S
C1159 C1160 1.524 . S
C1159 H1162 0.999 . S
C1160 H1130 0.950 . S
C1160 C1159 1.524 . S
C1160 C1161 1.415 . S
C1161 H1131 0.950 . S
C1161 C1156 1.363 . S
C1161 C1160 1.415 . S
H1162 C1159 0.999 . S
H1163 C1144 0.913 . S
H1164 C1182 0.951 . S
H1165 C1184 0.951 . S
H1166 C1186 0.950 . S
H1167 C1187 0.950 . S
H1168 C1189 0.950 . S
H1169 C1192 0.950 . S
H1170 C1193 0.950 . S
H1171 C1195 0.950 . S
H1172 C1196 0.950 . S
H1173 C1197 0.951 . S
H1174 C1199 0.951 . S
H1175 C1201 0.950 . S
H1176 C1202 0.950 . S
H1177 C1204 0.950 . S
H1178 C1207 0.950 . S
H1179 C1208 0.950 . S
H1180 C1210 0.950 . S
H1181 C1211 0.950 . S
C1182 H1164 0.951 . S
C1182 C1183 1.366 . S
C1182 C1184 1.388 . S
C1183 C1182 1.366 . S
C1183 C1187 1.385 . S
C1184 H1165 0.951 . S
C1184 C1182 1.388 . S
C1184 C1185 1.366 . S
C1185 C1184 1.366 . S
C1185 C1186 1.414 . S
C1185 C1188 1.499 . S
C1186 H1166 0.950 . S
C1186 C1185 1.414 . S
C1186 C1187 1.374 . S
C1187 H1167 0.950 . S
C1187 C1183 1.385 . S
C1187 C1186 1.374 . S
C1188 C1185 1.499 . S
C1188 C1189 1.373 . S
C1188 C1190 1.389 . S
C1189 H1168 0.950 . S
C1189 C1188 1.373 . S
C1189 C1205 1.377 . S
C1190 C1188 1.389 . S
C1190 C1191 1.524 . S
C1190 C1204 1.377 . S
C1191 C1190 1.524 . S
C1191 C1192 1.397 . S
C1191 C1196 1.363 . S
C1192 H1169 0.950 . S
C1192 C1191 1.397 . S
C1192 C1193 1.334 . S
C1193 H1170 0.950 . S
C1193 C1192 1.334 . S
C1193 C1194 1.287 . S
C1194 C1193 1.287 . S
C1194 C1195 1.524 . S
C1194 H1213 0.913 . S
C1195 H1171 0.950 . S
C1195 C1194 1.524 . S
C1195 C1196 1.415 . S
C1196 H1172 0.950 . S
C1196 C1191 1.363 . S
C1196 C1195 1.415 . S
C1197 H1173 0.951 . S
C1197 C1198 1.366 . S
C1197 C1199 1.388 . S
C1198 C1197 1.366 . S
C1198 C1202 1.385 . S
C1199 H1174 0.951 . S
C1199 C1197 1.388 . S
C1199 C1200 1.366 . S
C1200 C1199 1.366 . S
C1200 C1201 1.414 . S
C1200 C1203 1.499 . S
C1201 H1175 0.950 . S
C1201 C1200 1.414 . S
C1201 C1202 1.374 . S
C1202 H1176 0.950 . S
C1202 C1198 1.385 . S
C1202 C1201 1.374 . S
C1203 C1200 1.499 . S
C1203 C1204 1.373 . S
C1203 C1205 1.389 . S
C1204 H1177 0.950 . S
C1204 C1190 1.377 . S
C1204 C1203 1.373 . S
C1205 C1189 1.377 . S
C1205 C1203 1.389 . S
C1205 C1206 1.524 . S
C1206 C1205 1.524 . S
C1206 C1207 1.397 . S
C1206 C1211 1.363 . S
C1207 H1178 0.950 . S
C1207 C1206 1.397 . S
C1207 C1208 1.334 . S
C1208 H1179 0.950 . S
C1208 C1207 1.334 . S
C1208 C1209 1.287 . S
C1209 C1208 1.287 . S
C1209 C1210 1.524 . S
C1209 H1212 0.999 . S
C1210 H1180 0.950 . S
C1210 C1209 1.524 . S
C1210 C1211 1.415 . S
C1211 H1181 0.950 . S
C1211 C1206 1.363 . S
C1211 C1210 1.415 . S
H1212 C1209 0.999 . S
H1213 C1194 0.913 . S
H1214 C1232 0.951 . S
H1215 C1234 0.951 . S
H1216 C1236 0.950 . S
H1217 C1237 0.950 . S
H1218 C1239 0.950 . S
H1219 C1242 0.950 . S
H1220 C1243 0.950 . S
H1221 C1245 0.950 . S
H1222 C1246 0.950 . S
H1223 C1247 0.951 . S
H1224 C1249 0.951 . S
H1225 C1251 0.950 . S
H1226 C1252 0.950 . S
H1227 C1254 0.950 . S
H1228 C1257 0.950 . S
H1229 C1258 0.950 . S
H1230 C1260 0.950 . S
H1231 C1261 0.950 . S
C1232 H1214 0.951 . S
C1232 C1233 1.366 . S
C1232 C1234 1.388 . S
C1233 C1232 1.366 . S
C1233 C1237 1.385 . S
C1234 H1215 0.951 . S
C1234 C1232 1.388 . S
C1234 C1235 1.366 . S
C1235 C1234 1.366 . S
C1235 C1236 1.414 . S
C1235 C1238 1.499 . S
C1236 H1216 0.950 . S
C1236 C1235 1.414 . S
C1236 C1237 1.374 . S
C1237 H1217 0.950 . S
C1237 C1233 1.385 . S
C1237 C1236 1.374 . S
C1238 C1235 1.499 . S
C1238 C1239 1.373 . S
C1238 C1240 1.389 . S
C1239 H1218 0.950 . S
C1239 C1238 1.373 . S
C1239 C1255 1.377 . S
C1240 C1238 1.389 . S
C1240 C1241 1.524 . S
C1240 C1254 1.377 . S
C1241 C1240 1.524 . S
C1241 C1242 1.397 . S
C1241 C1246 1.363 . S
C1242 H1219 0.950 . S
C1242 C1241 1.397 . S
C1242 C1243 1.334 . S
C1243 H1220 0.950 . S
C1243 C1242 1.334 . S
C1243 C1244 1.287 . S
C1244 C1243 1.287 . S
C1244 C1245 1.524 . S
C1244 H1263 0.913 . S
C1245 H1221 0.950 . S
C1245 C1244 1.524 . S
C1245 C1246 1.415 . S
C1246 H1222 0.950 . S
C1246 C1241 1.363 . S
C1246 C1245 1.415 . S
C1247 H1223 0.951 . S
C1247 C1248 1.366 . S
C1247 C1249 1.388 . S
C1248 C1247 1.366 . S
C1248 C1252 1.385 . S
C1249 H1224 0.951 . S
C1249 C1247 1.388 . S
C1249 C1250 1.366 . S
C1250 C1249 1.366 . S
C1250 C1251 1.414 . S
C1250 C1253 1.499 . S
C1251 H1225 0.950 . S
C1251 C1250 1.414 . S
C1251 C1252 1.374 . S
C1252 H1226 0.950 . S
C1252 C1248 1.385 . S
C1252 C1251 1.374 . S
C1253 C1250 1.499 . S
C1253 C1254 1.373 . S
C1253 C1255 1.389 . S
C1254 H1227 0.950 . S
C1254 C1240 1.377 . S
C1254 C1253 1.373 . S
C1255 C1239 1.377 . S
C1255 C1253 1.389 . S
C1255 C1256 1.524 . S
C1256 C1255 1.524 . S
C1256 C1257 1.397 . S
C1256 C1261 1.363 . S
C1257 H1228 0.950 . S
C1257 C1256 1.397 . S
C1257 C1258 1.334 . S
C1258 H1229 0.950 . S
C1258 C1257 1.334 . S
C1258 C1259 1.287 . S
C1259 C1258 1.287 . S
C1259 C1260 1.524 . S
C1259 H1262 0.999 . S
C1260 H1230 0.950 . S
C1260 C1259 1.524 . S
C1260 C1261 1.415 . S
C1261 H1231 0.950 . S
C1261 C1256 1.363 . S
C1261 C1260 1.415 . S
H1262 C1259 0.999 . S
H1263 C1244 0.913 . S
H1264 C1282 0.951 . S
H1265 C1284 0.951 . S
H1266 C1286 0.950 . S
H1267 C1287 0.950 . S
H1268 C1289 0.950 . S
H1269 C1292 0.950 . S
H1270 C1293 0.950 . S
H1271 C1295 0.950 . S
H1272 C1296 0.950 . S
H1273 C1297 0.951 . S
H1274 C1299 0.951 . S
H1275 C1301 0.950 . S
H1276 C1302 0.950 . S
H1277 C1304 0.950 . S
H1278 C1307 0.950 . S
H1279 C1308 0.954 . S
H1280 C1310 0.950 . S
H1281 C1311 0.950 . S
C1282 H1264 0.951 . S
C1282 C1283 1.366 . S
C1282 C1284 1.388 . S
C1283 C1282 1.366 . S
C1283 C1287 1.385 . S
C1284 H1265 0.951 . S
C1284 C1282 1.388 . S
C1284 C1285 1.366 . S
C1285 C1284 1.366 . S
C1285 C1286 1.414 . S
C1285 C1288 1.499 . S
C1286 H1266 0.950 . S
C1286 C1285 1.414 . S
C1286 C1287 1.374 . S
C1287 H1267 0.950 . S
C1287 C1283 1.385 . S
C1287 C1286 1.374 . S
C1288 C1285 1.499 . S
C1288 C1289 1.373 . S
C1288 C1290 1.389 . S
C1289 H1268 0.950 . S
C1289 C1288 1.373 . S
C1289 C1305 1.377 . S
C1290 C1288 1.389 . S
C1290 C1291 1.524 . S
C1290 C1304 1.377 . S
C1291 C1290 1.524 . S
C1291 C1292 1.397 . S
C1291 C1296 1.363 . S
C1292 H1269 0.950 . S
C1292 C1291 1.397 . S
C1292 C1293 1.334 . S
C1293 H1270 0.950 . S
C1293 C1292 1.334 . S
C1293 C1294 1.287 . S
C1294 C1293 1.287 . S
C1294 C1295 1.524 . S
C1294 H1313 0.913 . S
C1295 H1271 0.950 . S
C1295 C1294 1.524 . S
C1295 C1296 1.415 . S
C1296 H1272 0.950 . S
C1296 C1291 1.363 . S
C1296 C1295 1.415 . S
C1297 H1273 0.951 . S
C1297 C1298 1.366 . S
C1297 C1299 1.388 . S
C1298 C1297 1.366 . S
C1298 C1302 1.385 . S
C1299 H1274 0.951 . S
C1299 C1297 1.388 . S
C1299 C1300 1.366 . S
C1300 C1299 1.366 . S
C1300 C1301 1.414 . S
C1300 C1303 1.499 . S
C1301 H1275 0.950 . S
C1301 C1300 1.414 . S
C1301 C1302 1.374 . S
C1302 H1276 0.950 . S
C1302 C1298 1.385 . S
C1302 C1301 1.374 . S
C1303 C1300 1.499 . S
C1303 C1304 1.373 . S
C1303 C1305 1.389 . S
C1304 H1277 0.950 . S
C1304 C1290 1.377 . S
C1304 C1303 1.373 . S
C1305 C1289 1.377 . S
C1305 C1303 1.389 . S
C1305 C1306 1.524 . S
C1306 C1305 1.524 . S
C1306 C1307 1.397 . S
C1306 C1311 1.363 . S
C1307 H1278 0.950 . S
C1307 C1306 1.397 . S
C1307 C1308 1.334 . S
C1308 H1279 0.954 . S
C1308 C1307 1.334 . S
C1308 C1309 1.287 . S
C1309 C1308 1.287 . S
C1309 C1310 1.524 . S
C1309 H1312 0.999 . S
C1310 H1280 0.950 . S
C1310 C1309 1.524 . S
C1310 C1311 1.415 . S
C1311 H1281 0.950 . S
C1311 C1306 1.363 . S
C1311 C1310 1.415 . S
H1312 C1309 0.999 . S
H1313 C1294 0.913 . S
H1314 C1332 0.951 . S
H1315 C1334 0.951 . S
H1316 C1336 0.950 . S
H1317 C1337 0.950 . S
H1318 C1339 0.950 . S
H1319 C1342 0.950 . S
H1320 C1343 0.950 . S
H1321 C1345 0.950 . S
H1322 C1346 0.950 . S
H1323 C1347 0.951 . S
H1324 C1349 0.951 . S
H1325 C1351 0.950 . S
H1326 C1352 0.950 . S
H1327 C1354 0.950 . S
H1328 C1357 0.950 . S
H1329 C1358 0.950 . S
H1330 C1360 0.950 . S
H1331 C1361 0.950 . S
C1332 H1314 0.951 . S
C1332 C1333 1.366 . S
C1332 C1334 1.388 . S
C1333 C1332 1.366 . S
C1333 C1337 1.385 . S
C1334 H1315 0.951 . S
C1334 C1332 1.388 . S
C1334 C1335 1.366 . S
C1335 C1334 1.366 . S
C1335 C1336 1.414 . S
C1335 C1338 1.499 . S
C1336 H1316 0.950 . S
C1336 C1335 1.414 . S
C1336 C1337 1.374 . S
C1337 H1317 0.950 . S
C1337 C1333 1.385 . S
C1337 C1336 1.374 . S
C1338 C1335 1.499 . S
C1338 C1339 1.373 . S
C1338 C1340 1.389 . S
C1339 H1318 0.950 . S
C1339 C1338 1.373 . S
C1339 C1355 1.377 . S
C1340 C1338 1.389 . S
C1340 C1341 1.524 . S
C1340 C1354 1.377 . S
C1341 C1340 1.524 . S
C1341 C1342 1.397 . S
C1341 C1346 1.363 . S
C1342 H1319 0.950 . S
C1342 C1341 1.397 . S
C1342 C1343 1.334 . S
C1343 H1320 0.950 . S
C1343 C1342 1.334 . S
C1343 C1344 1.287 . S
C1344 C1343 1.287 . S
C1344 C1345 1.524 . S
C1344 H1363 0.913 . S
C1345 H1321 0.950 . S
C1345 C1344 1.524 . S
C1345 C1346 1.415 . S
C1346 H1322 0.950 . S
C1346 C1341 1.363 . S
C1346 C1345 1.415 . S
C1347 H1323 0.951 . S
C1347 C1348 1.366 . S
C1347 C1349 1.388 . S
C1348 C1347 1.366 . S
C1348 C1352 1.385 . S
C1349 H1324 0.951 . S
C1349 C1347 1.388 . S
C1349 C1350 1.366 . S
C1350 C1349 1.366 . S
C1350 C1351 1.414 . S
C1350 C1353 1.499 . S
C1351 H1325 0.950 . S
C1351 C1350 1.414 . S
C1351 C1352 1.374 . S
C1352 H1326 0.950 . S
C1352 C1348 1.385 . S
C1352 C1351 1.374 . S
C1353 C1350 1.499 . S
C1353 C1354 1.373 . S
C1353 C1355 1.389 . S
C1354 H1327 0.950 . S
C1354 C1340 1.377 . S
C1354 C1353 1.373 . S
C1355 C1339 1.377 . S
C1355 C1353 1.389 . S
C1355 C1356 1.524 . S
C1356 C1355 1.524 . S
C1356 C1357 1.397 . S
C1356 C1361 1.363 . S
C1357 H1328 0.950 . S
C1357 C1356 1.397 . S
C1357 C1358 1.334 . S
C1358 H1329 0.950 . S
C1358 C1357 1.334 . S
C1358 C1359 1.287 . S
C1359 C1358 1.287 . S
C1359 C1360 1.524 . S
C1359 H1362 0.999 . S
C1360 H1330 0.950 . S
C1360 C1359 1.524 . S
C1360 C1361 1.415 . S
C1361 H1331 0.950 . S
C1361 C1356 1.363 . S
C1361 C1360 1.415 . S
H1362 C1359 0.999 . S
H1363 C1344 0.913 . S
H1364 C1382 0.951 . S
H1365 C1384 0.951 . S
H1366 C1386 0.950 . S
H1367 C1387 0.950 . S
H1368 C1389 0.950 . S
H1369 C1392 0.950 . S
H1370 C1393 0.950 . S
H1371 C1395 0.950 . S
H1372 C1396 0.950 . S
H1373 C1397 0.951 . S
H1374 C1399 0.951 . S
H1375 C1401 0.950 . S
H1376 C1402 0.950 . S
H1377 C1404 0.950 . S
H1378 C1407 0.950 . S
H1379 C1408 0.950 . S
H1380 C1410 0.950 . S
H1381 C1411 0.950 . S
C1382 H1364 0.951 . S
C1382 C1383 1.366 . S
C1382 C1384 1.388 . S
C1383 C1382 1.366 . S
C1383 C1387 1.385 . S
C1384 H1365 0.951 . S
C1384 C1382 1.388 . S
C1384 C1385 1.366 . S
C1385 C1384 1.366 . S
C1385 C1386 1.414 . S
C1385 C1388 1.499 . S
C1386 H1366 0.950 . S
C1386 C1385 1.414 . S
C1386 C1387 1.374 . S
C1387 H1367 0.950 . S
C1387 C1383 1.385 . S
C1387 C1386 1.374 . S
C1388 C1385 1.499 . S
C1388 C1389 1.373 . S
C1388 C1390 1.389 . S
C1389 H1368 0.950 . S
C1389 C1388 1.373 . S
C1389 C1405 1.377 . S
C1390 C1388 1.389 . S
C1390 C1391 1.524 . S
C1390 C1404 1.377 . S
C1391 C1390 1.524 . S
C1391 C1392 1.397 . S
C1391 C1396 1.363 . S
C1392 H1369 0.950 . S
C1392 C1391 1.397 . S
C1392 C1393 1.334 . S
C1393 H1370 0.950 . S
C1393 C1392 1.334 . S
C1393 C1394 1.287 . S
C1394 C1393 1.287 . S
C1394 C1395 1.524 . S
C1394 H1413 0.913 . S
C1395 H1371 0.950 . S
C1395 C1394 1.524 . S
C1395 C1396 1.415 . S
C1396 H1372 0.950 . S
C1396 C1391 1.363 . S
C1396 C1395 1.415 . S
C1397 H1373 0.951 . S
C1397 C1398 1.366 . S
C1397 C1399 1.388 . S
C1398 C1397 1.366 . S
C1398 C1402 1.385 . S
C1399 H1374 0.951 . S
C1399 C1397 1.388 . S
C1399 C1400 1.366 . S
C1400 C1399 1.366 . S
C1400 C1401 1.414 . S
C1400 C1403 1.499 . S
C1401 H1375 0.950 . S
C1401 C1400 1.414 . S
C1401 C1402 1.374 . S
C1402 H1376 0.950 . S
C1402 C1398 1.385 . S
C1402 C1401 1.374 . S
C1403 C1400 1.499 . S
C1403 C1404 1.373 . S
C1403 C1405 1.389 . S
C1404 H1377 0.950 . S
C1404 C1390 1.377 . S
C1404 C1403 1.373 . S
C1405 C1389 1.377 . S
C1405 C1403 1.389 . S
C1405 C1406 1.524 . S
C1406 C1405 1.524 . S
C1406 C1407 1.397 . S
C1406 C1411 1.363 . S
C1407 H1378 0.950 . S
C1407 C1406 1.397 . S
C1407 C1408 1.334 . S
C1408 H1379 0.950 . S
C1408 C1407 1.334 . S
C1408 C1409 1.287 1_455 S
C1409 C1408 1.287 1_655 S
C1409 C1410 1.524 . S
C1409 H1412 0.999 . S
C1410 H1380 0.950 . S
C1410 C1409 1.524 . S
C1410 C1411 1.415 1_655 S
C1411 H1381 0.950 . S
C1411 C1406 1.363 . S
C1411 C1410 1.415 1_455 S
H1412 C1409 0.999 . S
H1413 C1394 0.913 . S
H1414 C1432 0.951 . S
H1415 C1434 0.951 . S
H1416 C1436 0.950 . S
H1417 C1437 0.950 . S
H1418 C1439 0.950 . S
H1419 C1442 0.950 . S
H1420 C1443 0.950 . S
H1421 C1445 0.950 . S
H1422 C1446 0.950 . S
H1423 C1447 0.951 . S
H1424 C1449 0.951 . S
H1425 C1451 0.950 . S
H1426 C1452 0.950 . S
H1427 C1454 0.950 . S
H1428 C1457 0.950 . S
H1429 C1458 0.950 . S
H1430 C1460 0.950 . S
H1431 C1461 0.950 . S
C1432 H1414 0.951 . S
C1432 C1433 1.366 . S
C1432 C1434 1.388 . S
C1433 C1432 1.366 . S
C1433 C1437 1.385 . S
C1434 H1415 0.951 . S
C1434 C1432 1.388 . S
C1434 C1435 1.366 . S
C1435 C1434 1.366 . S
C1435 C1436 1.414 . S
C1435 C1438 1.499 . S
C1436 H1416 0.950 . S
C1436 C1435 1.414 . S
C1436 C1437 1.374 . S
C1437 H1417 0.950 . S
C1437 C1433 1.385 . S
C1437 C1436 1.374 . S
C1438 C1435 1.499 . S
C1438 C1439 1.373 . S
C1438 C1440 1.389 . S
C1439 H1418 0.950 . S
C1439 C1438 1.373 . S
C1439 C1455 1.377 . S
C1440 C1438 1.389 . S
C1440 C1441 1.524 . S
C1440 C1454 1.377 . S
C1441 C1440 1.524 . S
C1441 C1442 1.397 . S
C1441 C1446 1.363 . S
C1442 H1419 0.950 . S
C1442 C1441 1.397 . S
C1442 C1443 1.334 . S
C1443 H1420 0.950 . S
C1443 C1442 1.334 . S
C1443 C1444 1.287 . S
C1444 C1443 1.287 . S
C1444 C1445 1.524 . S
C1444 H1463 0.913 . S
C1445 H1421 0.950 . S
C1445 C1444 1.524 . S
C1445 C1446 1.415 . S
C1446 H1422 0.950 . S
C1446 C1441 1.363 . S
C1446 C1445 1.415 . S
C1447 H1423 0.951 . S
C1447 C1448 1.366 . S
C1447 C1449 1.388 . S
C1448 C1447 1.366 . S
C1448 C1452 1.385 . S
C1449 H1424 0.951 . S
C1449 C1447 1.388 . S
C1449 C1450 1.366 . S
C1450 C1449 1.366 . S
C1450 C1451 1.414 . S
C1450 C1453 1.499 . S
C1451 H1425 0.950 . S
C1451 C1450 1.414 . S
C1451 C1452 1.374 . S
C1452 H1426 0.950 . S
C1452 C1448 1.385 . S
C1452 C1451 1.374 . S
C1453 C1450 1.499 . S
C1453 C1454 1.373 . S
C1453 C1455 1.389 . S
C1454 H1427 0.950 . S
C1454 C1440 1.377 . S
C1454 C1453 1.373 . S
C1455 C1439 1.377 . S
C1455 C1453 1.389 . S
C1455 C1456 1.524 . S
C1456 C1455 1.524 . S
C1456 C1457 1.397 . S
C1456 C1461 1.363 . S
C1457 H1428 0.950 . S
C1457 C1456 1.397 . S
C1457 C1458 1.334 . S
C1458 H1429 0.950 . S
C1458 C1457 1.334 . S
C1458 C1459 1.287 . S
C1459 C1458 1.287 . S
C1459 C1460 1.524 . S
C1459 H1462 0.999 . S
C1460 H1430 0.950 . S
C1460 C1459 1.524 . S
C1460 C1461 1.415 . S
C1461 H1431 0.950 . S
C1461 C1456 1.363 . S
C1461 C1460 1.415 . S
H1462 C1459 0.999 . S
H1463 C1444 0.913 . S
C283 C9 1.488 . S
C298 C121 1.530 . S
C333 C21 1.018 . S
C348 C161 1.038 . S
C398 C186 1.988 . S
C383 C30 1.994 . S
C433 C43 2.113 . S
C448 C226 2.178 1_655 S
C498 C157 1.593 . S
C483 C4 1.448 . S
C548 C117 2.373 . S
C533 C22 2.325 . S
C598 C248 1.188 . S
C583 C34 1.212 . S
C648 C208 1.412 . S
C633 C48 1.420 . S
C683 C8 1.303 . S
C698 C250 1.316 . S
C748 C167 2.056 . S
C733 C35 2.073 . S
C783 C47 2.340 . S
C798 C127 2.291 1_655 S
C833 C17 1.077 . S
C848 C210 1.108 . S
C898 C130 0.966 . S
C883 C60 0.959 . S
C933 C74 1.163 . S
C948 C170 1.177 . S
C983 C82 1.707 . S
C998 C207 1.718 . S
C1033 C100 2.794 . S
C1048 C247 2.727 . S
C1083 C61 2.049 . S
C1098 C168 2.100 . S
C1148 C128 1.671 . S
C1133 C73 1.629 . S
C1198 C237 1.808 . S
C1183 C87 1.824 . S
C1248 C197 1.294 . S
C1233 C95 1.301 . S
C1283 C56 1.191 . S
C1298 C241 1.185 . S
C1348 C146 2.276 . S
C1333 C86 2.311 . S
C1398 C106 2.173 . S
C1383 C99 2.199 . S
C1433 C69 0.966 . S
C1448 C201 1.044 . S
