# Generated by pormake.
# Topology llk, (3,12)-cn, num edge types: 1
# Building blocks:
#     Node 0, Type 0, BuildingBlock: BETDAH_clean_linker_0, # of connection points: 3
#     Node 1, Type 0, BuildingBlock: BETDAH_clean_linker_0, # of connection points: 3
#     Node 2, Type 0, BuildingBlock: BETDAH_clean_linker_0, # of connection points: 3
#     Node 3, Type 0, BuildingBlock: BETDAH_clean_linker_0, # of connection points: 3
#     Node 4, Type 0, BuildingBlock: BETDAH_clean_linker_0, # of connection points: 3
#     Node 5, Type 0, BuildingBlock: BETDAH_clean_linker_0, # of connection points: 3
#     Node 6, Type 0, BuildingBlock: BETDAH_clean_linker_0, # of connection points: 3
#     Node 7, Type 0, BuildingBlock: BETDAH_clean_linker_0, # of connection points: 3
#     Node 8, Type 0, BuildingBlock: BETDAH_clean_linker_0, # of connection points: 3
#     Node 9, Type 0, BuildingBlock: BETDAH_clean_linker_0, # of connection points: 3
#     Node 10, Type 0, BuildingBlock: BETDAH_clean_linker_0, # of connection points: 3
#     Node 11, Type 0, BuildingBlock: BETDAH_clean_linker_0, # of connection points: 3
#     Node 12, Type 0, BuildingBlock: BETDAH_clean_linker_0, # of connection points: 3
#     Node 13, Type 0, BuildingBlock: BETDAH_clean_linker_0, # of connection points: 3
#     Node 14, Type 0, BuildingBlock: BETDAH_clean_linker_0, # of connection points: 3
#     Node 15, Type 0, BuildingBlock: BETDAH_clean_linker_0, # of connection points: 3
#     Node 16, Type 0, BuildingBlock: BETDAH_clean_linker_0, # of connection points: 3
#     Node 17, Type 0, BuildingBlock: BETDAH_clean_linker_0, # of connection points: 3
#     Node 18, Type 0, BuildingBlock: BETDAH_clean_linker_0, # of connection points: 3
#     Node 19, Type 0, BuildingBlock: BETDAH_clean_linker_0, # of connection points: 3
#     Node 20, Type 0, BuildingBlock: BETDAH_clean_linker_0, # of connection points: 3
#     Node 21, Type 0, BuildingBlock: BETDAH_clean_linker_0, # of connection points: 3
#     Node 22, Type 0, BuildingBlock: BETDAH_clean_linker_0, # of connection points: 3
#     Node 23, Type 0, BuildingBlock: BETDAH_clean_linker_0, # of connection points: 3
#     Node 24, Type 1, BuildingBlock: QEWDON_clean_sbu_0, # of connection points: 12
#     Node 25, Type 1, BuildingBlock: QEWDON_clean_sbu_0, # of connection points: 12
#     Node 26, Type 1, BuildingBlock: QEWDON_clean_sbu_0, # of connection points: 12
#     Node 27, Type 1, BuildingBlock: QEWDON_clean_sbu_0, # of connection points: 12
#     Node 28, Type 1, BuildingBlock: QEWDON_clean_sbu_0, # of connection points: 12
#     Node 29, Type 1, BuildingBlock: QEWDON_clean_sbu_0, # of connection points: 12
#     Edge 30, Type (0, 1), BuildingBlock: UVAHIK_clean_linker_0, # of connection points: 2
#     Edge 31, Type (0, 1), BuildingBlock: UVAHIK_clean_linker_0, # of connection points: 2
#     Edge 32, Type (0, 1), BuildingBlock: UVAHIK_clean_linker_0, # of connection points: 2
#     Edge 33, Type (0, 1), BuildingBlock: UVAHIK_clean_linker_0, # of connection points: 2
#     Edge 34, Type (0, 1), BuildingBlock: UVAHIK_clean_linker_0, # of connection points: 2
#     Edge 35, Type (0, 1), BuildingBlock: UVAHIK_clean_linker_0, # of connection points: 2
#     Edge 36, Type (0, 1), BuildingBlock: UVAHIK_clean_linker_0, # of connection points: 2
#     Edge 37, Type (0, 1), BuildingBlock: UVAHIK_clean_linker_0, # of connection points: 2
#     Edge 38, Type (0, 1), BuildingBlock: UVAHIK_clean_linker_0, # of connection points: 2
#     Edge 39, Type (0, 1), BuildingBlock: UVAHIK_clean_linker_0, # of connection points: 2
#     Edge 40, Type (0, 1), BuildingBlock: UVAHIK_clean_linker_0, # of connection points: 2
#     Edge 41, Type (0, 1), BuildingBlock: UVAHIK_clean_linker_0, # of connection points: 2
#     Edge 42, Type (0, 1), BuildingBlock: UVAHIK_clean_linker_0, # of connection points: 2
#     Edge 43, Type (0, 1), BuildingBlock: UVAHIK_clean_linker_0, # of connection points: 2
#     Edge 44, Type (0, 1), BuildingBlock: UVAHIK_clean_linker_0, # of connection points: 2
#     Edge 45, Type (0, 1), BuildingBlock: UVAHIK_clean_linker_0, # of connection points: 2
#     Edge 46, Type (0, 1), BuildingBlock: UVAHIK_clean_linker_0, # of connection points: 2
#     Edge 47, Type (0, 1), BuildingBlock: UVAHIK_clean_linker_0, # of connection points: 2
#     Edge 48, Type (0, 1), BuildingBlock: UVAHIK_clean_linker_0, # of connection points: 2
#     Edge 49, Type (0, 1), BuildingBlock: UVAHIK_clean_linker_0, # of connection points: 2
#     Edge 50, Type (0, 1), BuildingBlock: UVAHIK_clean_linker_0, # of connection points: 2
#     Edge 51, Type (0, 1), BuildingBlock: UVAHIK_clean_linker_0, # of connection points: 2
#     Edge 52, Type (0, 1), BuildingBlock: UVAHIK_clean_linker_0, # of connection points: 2
#     Edge 53, Type (0, 1), BuildingBlock: UVAHIK_clean_linker_0, # of connection points: 2
#     Edge 54, Type (0, 1), BuildingBlock: UVAHIK_clean_linker_0, # of connection points: 2
#     Edge 55, Type (0, 1), BuildingBlock: UVAHIK_clean_linker_0, # of connection points: 2
#     Edge 56, Type (0, 1), BuildingBlock: UVAHIK_clean_linker_0, # of connection points: 2
#     Edge 57, Type (0, 1), BuildingBlock: UVAHIK_clean_linker_0, # of connection points: 2
#     Edge 58, Type (0, 1), BuildingBlock: UVAHIK_clean_linker_0, # of connection points: 2
#     Edge 59, Type (0, 1), BuildingBlock: UVAHIK_clean_linker_0, # of connection points: 2
#     Edge 60, Type (0, 1), BuildingBlock: UVAHIK_clean_linker_0, # of connection points: 2
#     Edge 61, Type (0, 1), BuildingBlock: UVAHIK_clean_linker_0, # of connection points: 2
#     Edge 62, Type (0, 1), BuildingBlock: UVAHIK_clean_linker_0, # of connection points: 2
#     Edge 63, Type (0, 1), BuildingBlock: UVAHIK_clean_linker_0, # of connection points: 2
#     Edge 64, Type (0, 1), BuildingBlock: UVAHIK_clean_linker_0, # of connection points: 2
#     Edge 65, Type (0, 1), BuildingBlock: UVAHIK_clean_linker_0, # of connection points: 2
#     Edge 66, Type (0, 1), BuildingBlock: UVAHIK_clean_linker_0, # of connection points: 2
#     Edge 67, Type (0, 1), BuildingBlock: UVAHIK_clean_linker_0, # of connection points: 2
#     Edge 68, Type (0, 1), BuildingBlock: UVAHIK_clean_linker_0, # of connection points: 2
#     Edge 69, Type (0, 1), BuildingBlock: UVAHIK_clean_linker_0, # of connection points: 2
#     Edge 70, Type (0, 1), BuildingBlock: UVAHIK_clean_linker_0, # of connection points: 2
#     Edge 71, Type (0, 1), BuildingBlock: UVAHIK_clean_linker_0, # of connection points: 2
#     Edge 72, Type (0, 1), BuildingBlock: UVAHIK_clean_linker_0, # of connection points: 2
#     Edge 73, Type (0, 1), BuildingBlock: UVAHIK_clean_linker_0, # of connection points: 2
#     Edge 74, Type (0, 1), BuildingBlock: UVAHIK_clean_linker_0, # of connection points: 2
#     Edge 75, Type (0, 1), BuildingBlock: UVAHIK_clean_linker_0, # of connection points: 2
#     Edge 76, Type (0, 1), BuildingBlock: UVAHIK_clean_linker_0, # of connection points: 2
#     Edge 77, Type (0, 1), BuildingBlock: UVAHIK_clean_linker_0, # of connection points: 2
#     Edge 78, Type (0, 1), BuildingBlock: UVAHIK_clean_linker_0, # of connection points: 2
#     Edge 79, Type (0, 1), BuildingBlock: UVAHIK_clean_linker_0, # of connection points: 2
#     Edge 80, Type (0, 1), BuildingBlock: UVAHIK_clean_linker_0, # of connection points: 2
#     Edge 81, Type (0, 1), BuildingBlock: UVAHIK_clean_linker_0, # of connection points: 2
#     Edge 82, Type (0, 1), BuildingBlock: UVAHIK_clean_linker_0, # of connection points: 2
#     Edge 83, Type (0, 1), BuildingBlock: UVAHIK_clean_linker_0, # of connection points: 2
#     Edge 84, Type (0, 1), BuildingBlock: UVAHIK_clean_linker_0, # of connection points: 2
#     Edge 85, Type (0, 1), BuildingBlock: UVAHIK_clean_linker_0, # of connection points: 2
#     Edge 86, Type (0, 1), BuildingBlock: UVAHIK_clean_linker_0, # of connection points: 2
#     Edge 87, Type (0, 1), BuildingBlock: UVAHIK_clean_linker_0, # of connection points: 2
#     Edge 88, Type (0, 1), BuildingBlock: UVAHIK_clean_linker_0, # of connection points: 2
#     Edge 89, Type (0, 1), BuildingBlock: UVAHIK_clean_linker_0, # of connection points: 2
#     Edge 90, Type (0, 1), BuildingBlock: UVAHIK_clean_linker_0, # of connection points: 2
#     Edge 91, Type (0, 1), BuildingBlock: UVAHIK_clean_linker_0, # of connection points: 2
#     Edge 92, Type (0, 1), BuildingBlock: UVAHIK_clean_linker_0, # of connection points: 2
#     Edge 93, Type (0, 1), BuildingBlock: UVAHIK_clean_linker_0, # of connection points: 2
#     Edge 94, Type (0, 1), BuildingBlock: UVAHIK_clean_linker_0, # of connection points: 2
#     Edge 95, Type (0, 1), BuildingBlock: UVAHIK_clean_linker_0, # of connection points: 2
#     Edge 96, Type (0, 1), BuildingBlock: UVAHIK_clean_linker_0, # of connection points: 2
#     Edge 97, Type (0, 1), BuildingBlock: UVAHIK_clean_linker_0, # of connection points: 2
#     Edge 98, Type (0, 1), BuildingBlock: UVAHIK_clean_linker_0, # of connection points: 2
#     Edge 99, Type (0, 1), BuildingBlock: UVAHIK_clean_linker_0, # of connection points: 2
#     Edge 100, Type (0, 1), BuildingBlock: UVAHIK_clean_linker_0, # of connection points: 2
#     Edge 101, Type (0, 1), BuildingBlock: UVAHIK_clean_linker_0, # of connection points: 2
# Relax obj value: 0.091
# Max RMSD: 0.167
# Mean RMSD: 0.132
data_MOF--net-llk--node1-QEWDON_clean_sbu_0--node2-BETDAH_clean_linker_0--edge1-UVAHIK_clean_linker_0
_symmetry_space_group_name_H-M    P1
_symmetry_Int_Tables_number       1
_symmetry_cell_setting            triclinic
loop_
_symmetry_equiv_pos_as_xyz
'x, y, z'
_cell_length_a     58.403078
_cell_length_b     60.78109
_cell_length_c     60.239642
_cell_angle_alpha  90.108227
_cell_angle_beta   89.960062
_cell_angle_gamma 89.647749
loop_
_atom_site_label
_atom_site_type_symbol
_atom_site_fract_x
_atom_site_fract_y
_atom_site_fract_z
_atom_type_partial_charge
H0 H 0.05626 0.25987 0.3344 0.0
H1 H 0.05443 0.29435 0.27224 0.0
H2 H 0.0527 0.22357 0.27316 0.0
C3 C 0.05609 0.25958 0.31641 0.0
C4 C 0.055 0.23929 0.3053 0.0
C5 C 0.05575 0.27951 0.30464 0.0
C6 C 0.05449 0.27902 0.28135 0.0
C7 C 0.05339 0.25883 0.26991 0.0
C8 C 0.05356 0.23909 0.282 0.0
N9 N 0.05196 0.25779 0.24635 0.0
C10 C 0.0516 0.27617 0.23258 0.0
H11 H 0.69279 0.07426 0.20475 0.0
H12 H 0.74486 0.08372 0.25395 0.0
H13 H 0.76075 0.09257 0.1846 0.0
C14 C 0.71022 0.07865 0.20901 0.0
C15 C 0.7259 0.0835 0.19214 0.0
C16 C 0.71707 0.07868 0.23126 0.0
C17 C 0.73977 0.08372 0.23666 0.0
C18 C 0.75566 0.08898 0.21991 0.0
C19 C 0.74854 0.08894 0.19762 0.0
N20 N 0.77883 0.09398 0.22504 0.0
C21 C 0.78795 0.09157 0.24626 0.0
H22 H -0.00013 0.69226 0.26328 0.0
H23 H 0.0058 0.75573 0.2944 0.0
H24 H -0.00989 0.75111 0.22483 0.0
C25 C -0.00069 0.71006 0.26223 0.0
C26 C -0.00549 0.72005 0.24175 0.0
C27 C 0.00354 0.72276 0.28131 0.0
C28 C 0.00244 0.74583 0.27981 0.0
C29 C -0.00242 0.75609 0.2594 0.0
C30 C -0.00611 0.74312 0.24049 0.0
N31 N -0.00363 0.77934 0.25723 0.0
C32 C -0.00309 0.79393 0.27503 0.0
H33 H 0.23338 -0.00038 0.2961 0.0
H34 H 0.28107 0.97791 0.24611 0.0
H35 H 0.20862 0.9737 0.23421 0.0
C36 C 0.23674 0.99332 0.27955 0.0
C37 C 0.2183 0.98752 0.26585 0.0
C38 C 0.25943 0.98968 0.27268 0.0
C39 C 0.2636 0.98074 0.2515 0.0
C40 C 0.24521 0.97511 0.23752 0.0
C41 C 0.22271 0.97828 0.24493 0.0
N42 N 0.24863 0.96581 0.21613 0.0
C43 C 0.26945 0.96588 0.20497 0.0
H44 H 0.98818 0.75893 0.68477 0.0
H45 H 0.00926 0.7181 0.73944 0.0
H46 H 0.01339 0.78854 0.74471 0.0
C47 C -0.00535 0.75728 0.70155 0.0
C48 C 0.00023 0.77628 0.71358 0.0
C49 C -0.0019 0.73619 0.71054 0.0
C50 C 0.00629 0.73426 0.73243 0.0
C51 C 0.01175 0.75321 0.7448 0.0
C52 C 0.00895 0.77404 0.73517 0.0
N53 N 0.02076 0.75202 0.76667 0.0
C54 C 0.02052 0.73327 0.77986 0.0
H55 H 0.28292 0.0154 0.70719 0.0
H56 H 0.30523 0.9948 0.77182 0.0
H57 H 0.23466 0.98732 0.75287 0.0
C58 C 0.27905 0.00891 0.72351 0.0
C59 C 0.25661 0.00226 0.7283 0.0
C60 C 0.29673 0.00599 0.73903 0.0
C61 C 0.29163 0.9968 0.75979 0.0
C62 C 0.26924 0.98999 0.76488 0.0
C63 C 0.25188 0.99264 0.749 0.0
N64 N 0.26381 0.98017 0.78564 0.0
C65 C 0.27968 0.97787 0.80271 0.0
H66 H 0.00468 0.32803 0.75876 0.0
H67 H 0.98739 0.27407 0.71572 0.0
H68 H 0.97807 0.26837 0.78641 0.0
C69 C -0.00121 0.3113 0.75645 0.0
C70 C -0.00784 0.29913 0.77509 0.0
C71 C -0.00309 0.30255 0.73492 0.0
C72 C 0.98862 0.28103 0.73223 0.0
C73 C 0.98184 0.26859 0.75081 0.0
C74 C 0.98334 0.27789 0.77212 0.0
N75 N 0.97341 0.24679 0.74863 0.0
C76 C 0.97471 0.23448 0.72915 0.0
H77 H 0.786 0.07001 0.72089 0.0
H78 H 0.73483 0.09986 0.76292 0.0
H79 H 0.80601 0.10189 0.78145 0.0
C80 C 0.78129 0.07872 0.73597 0.0
C81 C 0.79847 0.085 0.75083 0.0
C82 C 0.75831 0.08433 0.73992 0.0
C83 C 0.75256 0.0957 0.75952 0.0
C84 C 0.76976 0.10186 0.77466 0.0
C85 C 0.79274 0.097 0.76991 0.0
N86 N 0.76433 0.11273 0.79483 0.0
C87 C 0.74552 0.10674 0.80751 0.0
H88 H 0.30219 0.26884 0.02115 0.0
H89 H 0.23917 0.29842 0.04313 0.0
H90 H 0.24639 0.22778 0.04156 0.0
C91 C 0.28461 0.26716 0.0267 0.0
C92 C 0.27575 0.24614 0.03041 0.0
C93 C 0.27164 0.28603 0.03151 0.0
C94 C 0.24915 0.2838 0.03937 0.0
C95 C 0.2398 0.2627 0.04262 0.0
C96 C 0.2534 0.24399 0.03863 0.0
N97 N 0.21693 0.25979 0.05002 0.0
C98 C 0.20033 0.2762 0.04855 0.0
H99 H 0.29879 0.76791 0.02622 0.0
H100 H 0.23977 0.73869 0.05583 0.0
H101 H 0.24391 0.80915 0.05095 0.0
C102 C 0.2823 0.76991 0.03425 0.0
C103 C 0.27322 0.7911 0.03809 0.0
C104 C 0.27041 0.7511 0.04092 0.0
C105 C 0.24883 0.75334 0.05076 0.0
C106 C 0.2389 0.77428 0.05376 0.0
C107 C 0.25138 0.79307 0.04791 0.0
N108 N 0.21627 0.77674 0.06219 0.0
C109 C 0.20062 0.7596 0.06127 0.0
H110 H 0.81022 0.32287 0.97974 0.0
H111 H 0.76767 0.26842 0.96077 0.0
H112 H 0.84032 0.26559 0.94929 0.0
C113 C 0.8084 0.30642 0.97301 0.0
C114 C 0.82785 0.29523 0.96505 0.0
C115 C 0.78655 0.29705 0.97122 0.0
C116 C 0.78443 0.27584 0.96203 0.0
C117 C 0.80391 0.26441 0.95424 0.0
C118 C 0.8254 0.27438 0.95543 0.0
N119 N 0.80256 0.24299 0.94494 0.0
C120 C 0.78396 0.22915 0.94777 0.0
H121 H 0.76253 0.70524 0.98496 0.0
H122 H 0.73171 0.7656 0.00666 0.0
H123 H 0.80519 0.75935 0.00521 0.0
C124 C 0.76444 0.72199 0.99086 0.0
C125 C 0.7864 0.73056 0.99463 0.0
C126 C 0.7448 0.73451 0.99543 0.0
C127 C 0.74705 0.75614 0.00307 0.0
C128 C 0.76889 0.76537 0.00613 0.0
C129 C 0.78844 0.75244 0.00207 0.0
N130 N 0.77158 0.7874 0.01365 0.0
C131 C 0.75313 0.80179 0.01588 0.0
H132 H 0.50803 0.7595 0.80281 0.0
H133 H 0.49949 0.79268 0.74063 0.0
H134 H 0.49585 0.72199 0.74322 0.0
C135 C 0.50545 0.75868 0.785 0.0
C136 C 0.50213 0.73822 0.77463 0.0
C137 C 0.50442 0.77828 0.7728 0.0
C138 C 0.50035 0.77745 0.7499 0.0
C139 C 0.49755 0.75709 0.73908 0.0
C140 C 0.49814 0.73762 0.75159 0.0
N141 N 0.49419 0.75567 0.71574 0.0
C142 C 0.49693 0.77343 0.70145 0.0
H143 H 0.22613 0.57193 0.74249 0.0
H144 H 0.28302 0.57042 0.78775 0.0
H145 H 0.29495 0.57392 0.7173 0.0
C146 C 0.24444 0.57258 0.74543 0.0
C147 C 0.25951 0.57316 0.72732 0.0
C148 C 0.25277 0.57144 0.76725 0.0
C149 C 0.27656 0.5713 0.77093 0.0
C150 C 0.29183 0.57256 0.75283 0.0
C151 C 0.28315 0.57334 0.73119 0.0
N152 N 0.31596 0.57297 0.75556 0.0
C153 C 0.32727 0.56992 0.7756 0.0
H154 H 0.45064 0.17436 0.75164 0.0
H155 H 0.45555 0.23212 0.79276 0.0
H156 H 0.4564 0.23817 0.72165 0.0
C157 C 0.45191 0.19207 0.7533 0.0
C158 C 0.45346 0.20501 0.73411 0.0
C159 C 0.45283 0.20163 0.77457 0.0
C160 C 0.45455 0.22465 0.77647 0.0
C161 C 0.45569 0.23789 0.75735 0.0
C162 C 0.45522 0.22795 0.73632 0.0
N163 N 0.45774 0.26116 0.75855 0.0
C164 C 0.46118 0.27304 0.77803 0.0
H165 H 0.71915 0.52602 0.81287 0.0
H166 H 0.77202 0.51056 0.76582 0.0
H167 H 0.70138 0.5097 0.74547 0.0
C168 C 0.72422 0.52193 0.79603 0.0
C169 C 0.70741 0.5185 0.77974 0.0
C170 C 0.74748 0.51887 0.79113 0.0
C171 C 0.75401 0.51283 0.76954 0.0
C172 C 0.73739 0.50971 0.75293 0.0
C173 C 0.71416 0.51231 0.75822 0.0
N174 N 0.74348 0.5038 0.73086 0.0
C175 C 0.766 0.50252 0.72349 0.0
H176 H 0.49069 0.26629 0.19894 0.0
H177 H 0.5091 0.22921 0.25701 0.0
H178 H 0.5093 0.29999 0.25904 0.0
C179 C 0.4954 0.26581 0.21634 0.0
C180 C 0.49909 0.2856 0.22778 0.0
C181 C 0.49921 0.24541 0.22667 0.0
C182 C 0.50619 0.24491 0.249 0.0
C183 C 0.50968 0.26464 0.26079 0.0
C184 C 0.50636 0.28484 0.24999 0.0
N185 N 0.5169 0.2648 0.28332 0.0
C186 C 0.51786 0.24622 0.29676 0.0
H187 H 0.75109 0.48873 0.19936 0.0
H188 H 0.77695 0.5107 0.26229 0.0
H189 H 0.70458 0.50139 0.25345 0.0
C190 C 0.74802 0.49325 0.21653 0.0
C191 C 0.72549 0.49414 0.22468 0.0
C192 C 0.7666 0.49927 0.22996 0.0
C193 C 0.76261 0.50599 0.25196 0.0
C194 C 0.74014 0.50661 0.26047 0.0
C195 C 0.72179 0.50085 0.24673 0.0
N196 N 0.73525 0.51312 0.28263 0.0
C197 C 0.75177 0.51544 0.29903 0.0
H198 H 0.56238 0.81877 0.24067 0.0
H199 H 0.56305 0.75769 0.20489 0.0
H200 H 0.55946 0.75752 0.27632 0.0
C201 C 0.56264 0.80093 0.24078 0.0
C202 C 0.56125 0.78968 0.26107 0.0
C203 C 0.56322 0.78952 0.22052 0.0
C204 C 0.56247 0.76645 0.22055 0.0
C205 C 0.56118 0.75479 0.24067 0.0
C206 C 0.56048 0.76651 0.26084 0.0
N207 N 0.5605 0.73138 0.24114 0.0
C208 C 0.56007 0.71816 0.22219 0.0
H209 H 0.30257 0.60127 0.19594 0.0
H210 H 0.25748 0.59184 0.25116 0.0
H211 H 0.33 0.59882 0.26218 0.0
C212 C 0.29994 0.60047 0.21374 0.0
C213 C 0.31887 0.60104 0.22805 0.0
C214 C 0.27787 0.5969 0.22199 0.0
C215 C 0.27461 0.59463 0.24492 0.0
C216 C 0.29337 0.59564 0.25959 0.0
C217 C 0.31546 0.5987 0.25101 0.0
N218 N 0.29057 0.59291 0.28286 0.0
C219 C 0.26969 0.58753 0.29246 0.0
H220 H 0.83468 0.75593 0.48706 0.0
H221 H 0.77132 0.79213 0.48373 0.0
H222 H 0.77144 0.72185 0.47548 0.0
C223 C 0.81628 0.75624 0.48471 0.0
C224 C 0.80458 0.73644 0.48112 0.0
C225 C 0.80442 0.77641 0.48569 0.0
C226 C 0.78054 0.77665 0.48276 0.0
C227 C 0.7686 0.7569 0.47915 0.0
C228 C 0.78072 0.73698 0.47831 0.0
N229 N 0.74443 0.75638 0.47659 0.0
C230 C 0.73032 0.77477 0.47853 0.0
H231 H 0.8159 0.2606 0.46654 0.0
H232 H 0.74902 0.23408 0.47829 0.0
H233 H 0.75917 0.30409 0.48013 0.0
C234 C 0.79781 0.26312 0.46977 0.0
C235 C 0.78937 0.2846 0.47288 0.0
C236 C 0.78343 0.24482 0.47184 0.0
C237 C 0.76012 0.24818 0.4766 0.0
C238 C 0.75128 0.26964 0.47937 0.0
C239 C 0.76594 0.28768 0.4773 0.0
N240 N 0.72798 0.27359 0.48501 0.0
C241 C 0.71271 0.25695 0.49033 0.0
H242 H 0.2536 0.83171 0.55576 0.0
H243 H 0.21453 0.77256 0.56315 0.0
H244 H 0.28761 0.7707 0.57162 0.0
C245 C 0.25291 0.8143 0.55954 0.0
C246 C 0.27329 0.80268 0.56388 0.0
C247 C 0.23164 0.80365 0.55943 0.0
C248 C 0.23089 0.78084 0.56311 0.0
C249 C 0.25117 0.76892 0.5674 0.0
C250 C 0.27216 0.77996 0.56794 0.0
N251 N 0.25106 0.7459 0.57148 0.0
C252 C 0.23225 0.73255 0.5676 0.0
H253 H 0.25693 0.18166 0.49305 0.0
H254 H 0.22273 0.24444 0.49251 0.0
H255 H 0.29615 0.24088 0.48643 0.0
C256 C 0.25765 0.19944 0.492 0.0
C257 C 0.27897 0.20965 0.48956 0.0
C258 C 0.23727 0.21178 0.49298 0.0
C259 C 0.23839 0.23484 0.49186 0.0
C260 C 0.25969 0.24539 0.48947 0.0
C261 C 0.27981 0.2327 0.4882 0.0
N262 N 0.26152 0.26866 0.48827 0.0
C263 C 0.24289 0.28302 0.48883 0.0
Zn264 Zn 0.93641 0.00059 0.4566 0.0
Zn265 Zn 0.94891 0.05061 0.4703 0.0
O266 O 0.96169 0.02001 0.46829 0.0
H267 H 0.97528 0.01468 0.47574 0.0
C268 C 0.93625 0.97109 0.53106 0.0
O269 O 0.9329 0.98943 0.51998 0.0
Zn270 Zn 0.04655 0.04508 0.53783 0.0
Zn271 Zn 0.04108 0.99338 0.54468 0.0
O272 O 0.02294 0.02194 0.54445 0.0
H273 H 0.00955 0.0237 0.5537 0.0
Zn274 Zn 0.96638 -0.0 0.5564 0.0
O275 O 0.96811 0.02417 0.5332 0.0
Zn276 Zn 0.96876 0.05262 0.54981 0.0
H277 H 0.97352 0.02204 0.51818 0.0
Zn278 Zn 0.03063 0.98273 0.46448 0.0
O279 O 0.02786 0.01138 0.48189 0.0
H280 H 0.02123 0.01256 0.49654 0.0
Zn281 Zn 0.02957 0.0356 0.45951 0.0
C282 C 0.05975 0.95935 0.49644 0.0
O283 O 0.0628 0.9795 0.50374 0.0
O284 O 0.90915 0.01865 0.44454 0.0
O285 O 0.91729 0.05273 0.45557 0.0
O286 O 0.07395 -0.00115 0.55522 0.0
O287 O 0.07698 0.03516 0.55206 0.0
O288 O 0.96065 0.01153 0.58824 0.0
O289 O 0.96061 0.04763 0.58217 0.0
C290 C -0.00984 0.06667 0.44996 0.0
O291 O 0.0391 0.98719 0.43147 0.0
O292 O 0.04067 0.02371 0.42985 0.0
O293 O 0.02623 0.96647 0.56016 0.0
C294 C 0.90423 0.0391 0.44558 0.0
O295 O 0.94579 0.97224 0.43924 0.0
C296 C 0.01539 0.07749 0.55524 0.0
O297 O 0.95009 0.97107 0.54734 0.0
C298 C 0.08526 0.01651 0.55786 0.0
O299 O 0.0464 0.9562 0.48009 0.0
C300 C 0.93986 0.07197 0.51552 0.0
O301 O 0.96923 0.07128 0.45336 0.0
O302 O -0.00206 0.0485 0.45729 0.0
C303 C 0.95844 0.03125 0.59522 0.0
O304 O 0.03656 0.0741 0.55155 0.0
O305 O 0.00143 0.06311 0.54818 0.0
C306 C 0.05486 0.06219 0.49062 0.0
O307 O 0.9453 0.07297 0.53597 0.0
O308 O 0.95073 0.05878 0.5029 0.0
C309 C 0.04308 0.00484 0.42079 0.0
O310 O 0.05033 0.05967 0.47014 0.0
O311 O 0.04734 0.04805 0.50433 0.0
C312 C 0.01683 0.96934 0.579 0.0
O313 O 0.01556 0.98936 0.58721 0.0
C314 C 0.96464 0.97139 0.42867 0.0
O315 O 0.9783 0.98849 0.4292 0.0
Zn316 Zn 0.47706 0.0449 0.0373 0.0
Zn317 Zn 0.47813 0.0507 0.98386 0.0
O318 O 0.48412 0.02914 0.00831 0.0
H319 H 0.49041 0.01446 0.00688 0.0
C320 C 0.53219 0.08786 0.05584 0.0
O321 O 0.51799 0.08462 0.03926 0.0
Zn322 Zn 0.54472 0.97668 0.95987 0.0
Zn323 Zn 0.54318 0.99116 0.00993 0.0
O324 O 0.52749 0.99727 0.98002 0.0
H325 H 0.5197 0.01063 0.97562 0.0
Zn326 Zn 0.56514 0.06748 0.02485 0.0
O327 O 0.54309 0.0539 0.00306 0.0
Zn328 Zn 0.5585 0.05502 0.97338 0.0
H329 H 0.53079 0.04414 0.00712 0.0
Zn330 Zn 0.4847 0.96115 0.01489 0.0
O331 O 0.50214 0.96146 0.98586 0.0
H332 H 0.51491 0.95196 0.98221 0.0
Zn333 Zn 0.4784 0.97112 0.96455 0.0
C334 C 0.51373 0.92858 0.03644 0.0
O335 O 0.51687 0.92282 0.01563 0.0
O336 O 0.46013 0.0743 0.03239 0.0
O337 O 0.46044 0.07719 0.99559 0.0
O338 O 0.5579 0.96038 0.01269 0.0
O339 O 0.56011 0.95181 0.97693 0.0
O340 O 0.59439 0.07977 0.01063 0.0
O341 O 0.58946 0.07054 0.97518 0.0
C342 C 0.45974 0.0157 0.95649 0.0
O343 O 0.45054 0.95414 0.01005 0.0
O344 O 0.44768 0.95776 0.97339 0.0
O345 O 0.56318 0.015 0.02518 0.0
C346 C 0.45459 0.08445 0.01468 0.0
O347 O 0.46332 0.02673 0.0631 0.0
C348 C 0.5737 0.01376 0.94849 0.0
O349 O 0.55296 0.08181 0.05384 0.0
C350 C 0.56403 0.94728 -0.00274 0.0
O351 O 0.50069 0.94485 0.04084 0.0
C352 C 0.51624 0.06968 0.95489 0.0
O353 O 0.45836 0.0361 0.96096 0.0
O354 O 0.47557 0.00419 0.96522 0.0
C355 C 0.60129 0.07945 0.99057 0.0
O356 O 0.57022 0.99344 0.94492 0.0
O357 O 0.56099 0.02374 0.96243 0.0
C358 C 0.50713 0.95677 0.92568 0.0
O359 O 0.53774 0.07093 0.95207 0.0
O360 O 0.50883 0.05932 0.97169 0.0
C361 C 0.43898 0.95268 0.99216 0.0
O362 O 0.48755 0.95964 0.9346 0.0
O363 O 0.52554 0.96275 0.93532 0.0
C364 C 0.58367 0.01745 0.0185 0.0
O365 O 0.59085 0.00595 0.00133 0.0
C366 C 0.45468 0.00782 0.06011 0.0
O367 O 0.45589 0.99873 0.04033 0.0
Zn368 Zn 0.9621 0.49171 0.9703 0.0
Zn369 Zn 0.96492 0.54472 0.97228 0.0
O370 O 0.98442 0.51742 0.96937 0.0
H371 H 0.00092 0.51639 0.96929 0.0
C372 C 0.98731 0.45078 0.01838 0.0
O373 O 0.00917 0.45166 0.0234 0.0
Zn374 Zn 0.06182 0.54759 0.04607 0.0
Zn375 Zn 0.07311 0.49641 0.0567 0.0
O376 O 0.04728 0.51782 0.04944 0.0
H377 H 0.03229 0.51374 0.0441 0.0
Zn378 Zn 0.9827 0.4922 0.04496 0.0
O379 O 0.98552 0.52064 0.02799 0.0
Zn380 Zn 0.98141 0.54415 0.05075 0.0
H381 H -0.00517 0.52205 0.01481 0.0
Zn382 Zn 0.05432 0.49812 0.96143 0.0
O383 O 0.04586 0.52257 0.98286 0.0
H384 H 0.03768 0.52061 -0.00335 0.0
Zn385 Zn 0.04649 0.54987 0.96446 0.0
C386 C 0.06767 0.4652 0.99443 0.0
O387 O 0.06902 0.48288 0.00694 0.0
O388 O 0.92972 0.50173 0.96144 0.0
O389 O 0.93254 0.53818 0.96127 0.0
O390 O 0.10251 0.5125 0.06595 0.0
O391 O 0.09487 0.54719 0.05654 0.0
O392 O 0.9653 0.49609 0.07461 0.0
O393 O 0.96402 0.53255 0.07772 0.0
C394 C -0.00064 0.57117 0.94993 0.0
O395 O 0.07353 0.50903 0.93489 0.0
O396 O 0.06535 0.54481 0.93627 0.0
O397 O 0.06639 0.46659 0.07268 0.0
C398 C 0.92106 0.52068 0.9579 0.0
O399 O 0.97061 0.46178 0.9554 0.0
C400 C 0.02384 0.56862 0.06756 0.0
O401 O 0.97371 0.46551 0.02569 0.0
C402 C 0.10836 0.53263 0.06457 0.0
O403 O 0.06146 0.4672 0.97431 0.0
C404 C 0.95967 0.57042 0.01665 0.0
O405 O 0.97802 0.56876 0.9532 0.0
O406 O 0.0131 0.55781 0.95937 0.0
C407 C 0.95905 0.51342 0.08498 0.0
O408 O 0.04543 0.56947 0.06566 0.0
O409 O 0.01348 0.55326 0.0575 0.0
C410 C 0.0667 0.57239 0.00259 0.0
O411 O 0.96437 0.56977 0.03727 0.0
O412 O 0.96565 0.55409 0.00463 0.0
C413 C 0.07551 0.52844 0.92717 0.0
O414 O 0.06288 0.57337 0.98182 0.0
O415 O 0.05867 0.55641 0.01371 0.0
C416 C 0.05562 0.46648 0.09103 0.0
O417 O 0.04802 0.48523 0.09915 0.0
C418 C -0.00964 0.45334 0.95254 0.0
O419 O 0.00847 0.46382 0.95984 0.0
Zn420 Zn 0.47714 0.47553 0.9961 0.0
Zn421 Zn 0.48197 0.47614 0.04913 0.0
O422 O 0.4875 0.49411 0.02201 0.0
H423 H 0.49747 0.50669 0.0212 0.0
C424 C 0.52009 0.41425 0.96067 0.0
O425 O 0.52104 0.40638 0.98095 0.0
Zn426 Zn 0.54301 0.54473 0.02932 0.0
Zn427 Zn 0.53688 0.54473 0.97723 0.0
O428 O 0.53867 0.52427 0.00362 0.0
H429 H 0.53421 0.50901 0.00371 0.0
Zn430 Zn 0.5463 0.44978 0.98184 0.0
O431 O 0.53068 0.45716 0.01104 0.0
Zn432 Zn 0.55591 0.46281 0.03325 0.0
H433 H 0.51468 0.45458 0.01404 0.0
Zn434 Zn 0.45311 0.55257 0.97899 0.0
O435 O 0.47742 0.5464 0.00225 0.0
H436 H 0.49315 0.54238 -0.00078 0.0
Zn437 Zn 0.46293 0.55096 0.03221 0.0
C438 C 0.47828 0.58021 0.94743 0.0
O439 O 0.49004 0.58478 0.96543 0.0
O440 O 0.45523 0.45099 0.00602 0.0
O441 O 0.45795 0.45275 0.04286 0.0
O442 O 0.55328 0.57404 0.98357 0.0
O443 O 0.56075 0.57172 0.01974 0.0
O444 O 0.57939 0.43965 0.98696 0.0
O445 O 0.58602 0.44832 0.0223 0.0
C446 C 0.46469 0.51581 0.06931 0.0
O447 O 0.4231 0.56389 0.99258 0.0
O448 O 0.4299 0.56234 0.02889 0.0
O449 O 0.54442 0.53097 0.9466 0.0
C450 C 0.44922 0.44454 0.02528 0.0
O451 O 0.46759 0.49231 0.96765 0.0
C452 C 0.56321 0.50779 0.05424 0.0
O453 O 0.52885 0.43296 0.95677 0.0
C454 C 0.56238 0.58171 0.00117 0.0
O455 O 0.46203 0.56646 0.94865 0.0
C456 C 0.52594 0.45198 0.06834 0.0
O457 O 0.47068 0.49613 0.07372 0.0
O458 O 0.46596 0.52219 0.04919 0.0
C459 C 0.59253 0.43988 0.00384 0.0
O460 O 0.55925 0.52844 0.05397 0.0
O461 O 0.5572 0.4961 0.03767 0.0
C462 C 0.50294 0.57128 0.04889 0.0
O463 O 0.54664 0.44916 0.06242 0.0
O464 O 0.5131 0.46325 0.05563 0.0
C465 C 0.41671 0.56689 0.01258 0.0
O466 O 0.48134 0.57359 0.04859 0.0
O467 O 0.51154 0.55494 0.03848 0.0
C468 C 0.53318 0.53521 0.92905 0.0
O469 O 0.51516 0.54817 0.93025 0.0
C470 C 0.44972 0.50425 0.96913 0.0
O471 O 0.43902 0.50553 0.98829 0.0
Zn472 Zn 0.97392 0.49082 0.46906 0.0
Zn473 Zn 0.97172 0.54265 0.47748 0.0
O474 O -0.00632 0.51788 0.47295 0.0
H475 H 0.98603 0.50396 0.471 0.0
C476 C 0.94343 0.45945 0.51938 0.0
O477 O 0.9402 0.48031 0.51454 0.0
Zn478 Zn 0.06024 0.54689 0.53598 0.0
Zn479 Zn 0.07074 0.49516 0.54324 0.0
O480 O 0.04603 0.51717 0.53462 0.0
H481 H 0.03212 0.51363 0.52674 0.0
Zn482 Zn 0.97578 0.47865 0.55086 0.0
O483 O 0.98163 0.50652 0.53365 0.0
Zn484 Zn 0.98043 0.53149 0.55518 0.0
H485 H 0.98823 0.50695 0.51896 0.0
Zn486 Zn 0.06008 0.49722 0.44802 0.0
O487 O 0.05748 0.52002 0.4728 0.0
H488 H 0.05442 0.51683 0.48822 0.0
Zn489 Zn 0.05166 0.54848 0.45698 0.0
C490 C 0.08714 0.4642 0.47195 0.0
O491 O 0.09149 0.48145 0.48439 0.0
O492 O 0.9408 0.49873 0.45973 0.0
O493 O 0.94051 0.53505 0.46464 0.0
O494 O 0.10108 0.50958 0.55331 0.0
O495 O 0.09211 0.54498 0.54926 0.0
O496 O 0.96588 0.48465 0.58318 0.0
O497 O 0.96951 0.52102 0.58555 0.0
C498 C 0.00453 0.57046 0.45557 0.0
O499 O 0.07125 0.51106 0.41874 0.0
O500 O 0.06478 0.5465 0.42569 0.0
O501 O 0.05993 0.46753 0.56043 0.0
C502 C 0.93062 0.51731 0.45861 0.0
O503 O 0.989 0.46377 0.45357 0.0
C504 C 0.02049 0.56248 0.56067 0.0
O505 O 0.95804 0.4543 0.53416 0.0
C506 C 0.10617 0.52989 0.55497 0.0
O507 O 0.07365 0.46635 0.45553 0.0
C508 C 0.95609 0.55689 0.52325 0.0
O509 O 0.9838 0.56949 0.46185 0.0
O510 O 0.01765 0.55414 0.45949 0.0
C511 C 0.96419 0.50254 0.59416 0.0
O512 O 0.0408 0.5672 0.55489 0.0
O513 O 0.01214 0.54425 0.55442 0.0
C514 C 0.07069 0.57317 0.49336 0.0
O515 O 0.95756 0.55381 0.54404 0.0
O516 O 0.96982 0.54652 0.51059 0.0
C517 C 0.07207 0.53119 0.41292 0.0
O518 O 0.06826 0.57303 0.47241 0.0
O519 O 0.06165 0.55759 0.50433 0.0
C520 C 0.04249 0.46912 0.57298 0.0
O521 O 0.03167 0.48809 0.57442 0.0
C522 C 0.00555 0.46665 0.44019 0.0
O523 O 0.01302 0.4867 0.43672 0.0
Zn524 Zn 0.47834 0.97999 0.45208 0.0
Zn525 Zn 0.46916 0.03133 0.46423 0.0
O526 O 0.49429 0.00853 0.46064 0.0
H527 H 0.50917 0.00913 0.46756 0.0
C528 C 0.46913 0.94241 0.56291 0.0
O529 O 0.47826 0.94653 0.5824 0.0
Zn530 Zn 0.56339 0.0499 0.53452 0.0
Zn531 Zn 0.57089 -0.00119 0.54889 0.0
O532 O 0.54768 0.0207 0.53694 0.0
H533 H 0.5342 0.01659 0.52867 0.0
Zn534 Zn 0.4895 0.98508 0.5538 0.0
O535 O 0.48841 0.00866 0.52967 0.0
Zn536 Zn 0.48393 0.03729 0.54545 0.0
H537 H 0.48927 0.9962 0.53955 0.0
Zn538 Zn 0.55671 0.99577 0.45053 0.0
O539 O 0.55417 0.02035 0.47334 0.0
H540 H 0.54954 0.01813 0.48857 0.0
Zn541 Zn 0.54847 0.04723 0.45487 0.0
C542 C 0.58523 0.96484 0.47561 0.0
O543 O 0.59079 0.98302 0.48608 0.0
O544 O 0.446 0.98577 0.44015 0.0
O545 O 0.43961 0.02077 0.44922 0.0
O546 O 0.5996 0.01413 0.56114 0.0
O547 O 0.59436 0.04886 0.55043 0.0
O548 O 0.48218 0.99742 0.58507 0.0
O549 O 0.47318 0.03212 0.57711 0.0
C550 C 0.49905 0.06426 0.44581 0.0
O551 O 0.56747 0.0069 0.42006 0.0
O552 O 0.56204 0.04294 0.42406 0.0
O553 O 0.55929 0.97187 0.56697 0.0
C554 C 0.43316 0.00279 0.4402 0.0
O555 O 0.49544 0.95311 0.43758 0.0
C556 C 0.52341 0.07019 0.55372 0.0
O557 O 0.47216 0.95601 0.5472 0.0
C558 C 0.60612 0.0341 0.56042 0.0
O559 O 0.57043 0.96575 0.46018 0.0
C560 C 0.4577 0.05418 0.50781 0.0
O561 O 0.47817 0.05929 0.44873 0.0
O562 O 0.51417 0.05105 0.45327 0.0
C563 C 0.47462 0.01628 0.5909 0.0
O564 O 0.54464 0.07299 0.5503 0.0
O565 O 0.51439 0.05274 0.54599 0.0
C566 C 0.56818 0.07384 0.48998 0.0
O567 O 0.46168 0.05622 0.52847 0.0
O568 O 0.46663 0.03809 0.49723 0.0
C569 C 0.56862 0.02643 0.41254 0.0
O570 O 0.56325 0.0735 0.46943 0.0
O571 O 0.56366 0.05701 0.50168 0.0
C572 C 0.54504 0.95774 0.55992 0.0
O573 O 0.53654 0.95984 0.53984 0.0
C574 C 0.51215 0.95468 0.42413 0.0
O575 O 0.52052 0.97422 0.41978 0.0
C576 C 0.19786 0.20781 0.50968 0.0
C577 C 0.21503 0.20019 0.4951 0.0
C578 C 0.17795 0.19548 0.51306 0.0
C579 C 0.1586 0.13876 0.51152 0.0
H580 H 0.09699 0.16117 0.50265 0.0
C581 C 0.08175 0.08108 0.51689 0.0
C582 C 0.0683 0.08153 0.49763 0.0
C583 C 0.09693 0.0982 0.52151 0.0
C584 C 0.1141 0.15478 0.50543 0.0
H585 H 0.22395 0.17449 0.4715 0.0
H586 H 0.1897 0.15286 0.47787 0.0
H587 H 0.12963 0.18634 0.50039 0.0
H588 H 0.05889 0.10105 0.46888 0.0
H589 H 0.08536 0.13082 0.47684 0.0
H590 H 0.14345 0.10716 0.51575 0.0
C591 C 0.19178 0.16815 0.48691 0.0
C592 C 0.13269 0.16917 0.50423 0.0
C593 C 0.21141 0.18053 0.48332 0.0
C594 C 0.06922 0.10011 0.48379 0.0
C595 C 0.08421 0.1173 0.48847 0.0
C596 C 0.14008 0.12448 0.51298 0.0
C597 C 0.17509 0.17527 0.50209 0.0
C598 C 0.15513 0.16109 0.50657 0.0
C599 C 0.09877 0.11619 0.50698 0.0
C600 C 0.11768 0.13219 0.50931 0.0
H601 H 0.20016 0.22286 0.51905 0.0
H602 H 0.16522 0.20131 0.52479 0.0
H603 H 0.17577 0.13221 0.51357 0.0
H604 H 0.08152 0.06702 0.52772 0.0
H605 H 0.10785 0.09697 0.53598 0.0
C606 C 0.78812 0.20714 0.48797 0.0
C607 C 0.7935 0.22233 0.47124 0.0
C608 C 0.80053 0.18754 0.48992 0.0
C609 C 0.84241 0.15016 0.46285 0.0
H610 H 0.86561 0.14388 0.52278 0.0
C611 C 0.92063 0.095 0.48628 0.0
C612 C 0.92049 0.08534 0.50742 0.0
C613 C 0.90284 0.10922 0.47988 0.0
C614 C 0.85899 0.145 0.50603 0.0
H615 H 0.81473 0.22805 0.44231 0.0
H616 H 0.83659 0.19382 0.44587 0.0
H617 H 0.83753 0.17221 0.51475 0.0
H618 H 0.90119 0.08171 0.53789 0.0
H619 H 0.86995 0.10571 0.52659 0.0
H620 H 0.86415 0.12286 0.45418 0.0
C621 C 0.8228 0.19709 0.45746 0.0
C622 C 0.84287 0.16132 0.50144 0.0
C623 C 0.81042 0.21677 0.45555 0.0
C624 C 0.90188 0.08926 0.52162 0.0
C625 C 0.88402 0.10311 0.51516 0.0
C626 C 0.85848 0.13357 0.46751 0.0
C627 C 0.81853 0.18269 0.47516 0.0
C628 C 0.83444 0.16416 0.47982 0.0
C629 C 0.88458 0.11383 0.49451 0.0
C630 C 0.867 0.13085 0.48919 0.0
H631 H 0.77525 0.21097 0.50038 0.0
H632 H 0.79669 0.17658 0.50357 0.0
H633 H 0.83619 0.15202 0.44602 0.0
H634 H 0.9349 0.09232 0.47511 0.0
H635 H 0.9039 0.11728 0.4639 0.0
C636 C 0.81254 0.8163 0.47816 0.0
C637 C 0.81705 0.79705 0.49034 0.0
C638 C 0.82496 0.8355 0.48225 0.0
C639 C 0.86056 0.86257 0.52484 0.0
H640 H 0.88383 0.89654 0.47539 0.0
C641 C 0.92643 0.93152 0.53746 0.0
C642 C 0.92325 0.95103 0.52533 0.0
C643 C 0.91342 0.91288 0.53271 0.0
C644 C 0.87724 0.88738 0.48939 0.0
H645 H 0.83768 0.78303 0.51674 0.0
H646 H 0.85948 0.81636 0.52368 0.0
H647 H 0.86051 0.86408 0.46826 0.0
H648 H 0.90421 0.9661 0.49837 0.0
H649 H 0.88135 0.93365 0.49025 0.0
H650 H 0.8772 0.8858 0.54598 0.0
C651 C 0.84631 0.81668 0.51103 0.0
C652 C 0.86387 0.8688 0.4853 0.0
C653 C 0.83399 0.79751 0.50689 0.0
C654 C 0.90708 0.95134 0.50806 0.0
C655 C 0.89405 0.9327 0.50331 0.0
C656 C 0.87387 0.88114 0.52893 0.0
C657 C 0.84202 0.83588 0.49871 0.0
C658 C 0.8555 0.8561 0.50299 0.0
C659 C 0.89691 0.91331 0.51572 0.0
C660 C 0.8825 0.8937 0.51126 0.0
H661 H 0.79967 0.81641 0.46522 0.0
H662 H 0.82111 0.85009 0.47262 0.0
H663 H 0.85405 0.85335 0.53884 0.0
H664 H 0.93884 0.93067 0.55079 0.0
H665 H 0.91635 0.8981 0.54233 0.0
C666 C 0.20738 0.83717 0.56593 0.0
C667 C 0.21036 0.81661 0.55557 0.0
C668 C 0.18818 0.85017 0.56136 0.0
C669 C 0.14526 0.85985 0.51796 0.0
H670 H 0.11628 0.89595 0.56325 0.0
C671 C 0.07138 0.91956 0.49684 0.0
C672 C 0.07317 0.94083 0.50585 0.0
C673 C 0.08546 0.9025 0.50445 0.0
C674 C 0.12426 0.88605 0.5504 0.0
H675 H 0.19519 0.7933 0.53272 0.0
H676 H 0.16141 0.81598 0.52486 0.0
H677 H 0.14561 0.86917 0.57379 0.0
H678 H 0.09059 0.96064 0.53055 0.0
H679 H 0.11526 0.93097 0.54367 0.0
H680 H 0.12432 0.87703 0.4945 0.0
C681 C 0.1741 0.82211 0.53637 0.0
C682 C 0.14105 0.8707 0.55643 0.0
C683 C 0.19333 0.80904 0.54101 0.0
C684 C 0.08878 0.94447 0.52321 0.0
C685 C 0.10285 0.9274 0.53083 0.0
C686 C 0.12847 0.87519 0.51192 0.0
C687 C 0.17145 0.84294 0.54631 0.0
C688 C 0.15202 0.85768 0.54024 0.0
C689 C 0.10163 0.9063 0.52128 0.0
C690 C 0.11803 0.88872 0.52802 0.0
H691 H 0.22005 0.84334 0.57746 0.0
H692 H 0.18683 0.86621 0.56913 0.0
H693 H 0.15357 0.85032 0.50503 0.0
H694 H 0.05942 0.91615 0.48355 0.0
H695 H 0.08385 0.88636 0.49698 0.0
C696 C 0.47905 0.22174 0.19878 0.0
C697 C 0.49746 0.22487 0.21344 0.0
C698 C 0.47894 0.20388 0.18415 0.0
C699 C 0.50814 0.15069 0.17079 0.0
H700 H 0.49115 0.16571 0.11044 0.0
C701 C 0.53964 0.10251 0.09401 0.0
C702 C 0.52458 0.09974 0.07604 0.0
C703 C 0.53317 0.11512 0.1124 0.0
C704 C 0.49557 0.16108 0.12726 0.0
H705 H 0.52977 0.21132 0.22483 0.0
H706 H 0.5298 0.18033 0.19912 0.0
H707 H 0.48535 0.19246 0.13998 0.0
H708 H 0.49055 0.10736 0.06367 0.0
H709 H 0.4793 0.12947 0.09583 0.0
H710 H 0.51917 0.11955 0.15774 0.0
C711 C 0.51521 0.19142 0.19914 0.0
C712 C 0.49221 0.17643 0.14426 0.0
C713 C 0.51523 0.20921 0.21388 0.0
C714 C 0.50261 0.10927 0.07719 0.0
C715 C 0.49619 0.12201 0.09556 0.0
C716 C 0.51161 0.13537 0.15374 0.0
C717 C 0.49733 0.18883 0.18372 0.0
C718 C 0.49879 0.17158 0.16618 0.0
C719 C 0.51153 0.12532 0.11322 0.0
C720 C 0.50571 0.14055 0.13173 0.0
H721 H 0.46497 0.23341 0.19831 0.0
H722 H 0.46466 0.20214 0.17284 0.0
H723 H 0.51305 0.14627 0.18753 0.0
H724 H 0.55666 0.09532 0.0937 0.0
H725 H 0.54547 0.11754 0.12562 0.0
C726 C 0.80328 0.51838 0.22064 0.0
C727 C 0.78997 0.49922 0.22041 0.0
C728 C 0.82401 0.51912 0.20897 0.0
C729 C 0.85313 0.49087 0.16207 0.0
H730 H 0.90504 0.52643 0.17951 0.0
C731 C 0.93582 0.49045 0.11101 0.0
C732 C 0.94398 0.51125 0.10471 0.0
C733 C 0.9193 0.48849 0.12763 0.0
C734 C 0.89062 0.51648 0.17445 0.0
H735 H 0.78842 0.46544 0.20915 0.0
H736 H 0.82495 0.46633 0.18959 0.0
H737 H 0.87206 0.52335 0.2044 0.0
H738 H 0.94216 0.54621 0.11203 0.0
H739 H 0.91327 0.54269 0.1412 0.0
H740 H 0.87166 0.48393 0.13223 0.0
C741 C 0.81912 0.4811 0.198 0.0
C742 C 0.87169 0.51475 0.18865 0.0
C743 C 0.79829 0.48048 0.20935 0.0
C744 C 0.93615 0.52994 0.11636 0.0
C745 C 0.91968 0.52794 0.13314 0.0
C746 C 0.87208 0.4924 0.14807 0.0
C747 C 0.83195 0.50062 0.19706 0.0
C748 C 0.85265 0.50196 0.1826 0.0
C749 C 0.91063 0.50724 0.13849 0.0
C750 C 0.89101 0.50525 0.15404 0.0
H751 H 0.79711 0.53309 0.22894 0.0
H752 H 0.83325 0.5345 0.2085 0.0
H753 H 0.83861 0.48137 0.15647 0.0
H754 H 0.94156 0.47567 0.10256 0.0
H755 H 0.91289 0.47229 0.13165 0.0
C756 C 0.57827 0.82007 0.19687 0.0
C757 C 0.56364 0.80198 0.19939 0.0
C758 C 0.57711 0.83315 0.17788 0.0
C759 C 0.55343 0.83569 0.1206 0.0
H760 H 0.55437 0.89864 0.13112 0.0
C761 C 0.53904 0.89788 0.04965 0.0
C762 C 0.52402 0.91541 0.05451 0.0
C763 C 0.54754 0.8845 0.06663 0.0
C764 C 0.55402 0.88111 0.1279 0.0
H765 H 0.53678 0.78302 0.18376 0.0
H766 H 0.53447 0.80602 0.15072 0.0
H767 H 0.56213 0.87351 0.1616 0.0
H768 H 0.50663 0.93299 0.08104 0.0
H769 H 0.52098 0.9094 0.11053 0.0
H770 H 0.54417 0.84332 0.08713 0.0
C771 C 0.54715 0.80992 0.16322 0.0
C772 C 0.55877 0.86668 0.14532 0.0
C773 C 0.54841 0.79675 0.18217 0.0
C774 C 0.51818 0.91963 0.07674 0.0
C775 C 0.52655 0.90618 0.09368 0.0
C776 C 0.54859 0.85014 0.10318 0.0
C777 C 0.56119 0.82852 0.16103 0.0
C778 C 0.55818 0.84378 0.14198 0.0
C779 C 0.54109 0.88827 0.08881 0.0
C780 C 0.54843 0.87302 0.10673 0.0
H781 H 0.59042 0.82427 0.20976 0.0
H782 H 0.58849 0.84709 0.17653 0.0
H783 H 0.55313 0.81815 0.11738 0.0
H784 H 0.54402 0.89429 0.0327 0.0
H785 H 0.559 0.87107 0.06235 0.0
C786 C 0.24553 0.57418 0.20798 0.0
C787 C 0.25879 0.59326 0.2063 0.0
C788 C 0.22933 0.56923 0.19175 0.0
C789 C 0.21418 0.58212 0.1333 0.0
H790 H 0.15931 0.54988 0.14853 0.0
C791 C 0.13657 0.56189 0.07506 0.0
C792 C 0.12966 0.53975 0.0757 0.0
C793 C 0.15389 0.56938 0.08916 0.0
C794 C 0.17463 0.55882 0.14407 0.0
H795 H 0.26504 0.62258 0.18692 0.0
H796 H 0.23603 0.61444 0.15892 0.0
H797 H 0.18458 0.56253 0.17793 0.0
H798 H 0.13674 0.50783 0.09047 0.0
H799 H 0.16659 0.52106 0.11518 0.0
H800 H 0.20351 0.57878 0.09933 0.0
C801 C 0.23858 0.60292 0.17239 0.0
C802 C 0.18918 0.566 0.16088 0.0
C803 C 0.25504 0.60771 0.18849 0.0
C804 C 0.14149 0.525 0.0896 0.0
C805 C 0.15852 0.53255 0.10385 0.0
C806 C 0.19933 0.57524 0.11648 0.0
C807 C 0.22578 0.58342 0.1736 0.0
C808 C 0.20938 0.57739 0.15573 0.0
C809 C 0.16433 0.55489 0.10424 0.0
C810 C 0.17969 0.56319 0.12176 0.0
H811 H 0.24838 0.56258 0.22135 0.0
H812 H 0.22019 0.55385 0.19308 0.0
H813 H 0.2297 0.59059 0.12864 0.0
H814 H 0.12788 0.57366 0.06446 0.0
H815 H 0.1582 0.5867 0.08919 0.0
C816 C 0.48975 0.81563 0.78328 0.0
C817 C 0.50711 0.79962 0.78429 0.0
C818 C 0.49139 0.83495 0.79581 0.0
C819 C 0.5219 0.85688 0.84523 0.0
H820 H 0.49369 0.91199 0.82731 0.0
C821 C 0.52995 0.93465 0.89835 0.0
C822 C 0.50881 0.94381 0.90488 0.0
C823 C 0.53109 0.91948 0.88096 0.0
C824 C 0.50165 0.89668 0.83245 0.0
H825 H 0.5403 0.79154 0.79804 0.0
H826 H 0.54384 0.82565 0.81907 0.0
H827 H 0.49393 0.88073 0.80168 0.0
H828 H 0.47255 0.94544 0.89712 0.0
H829 H 0.47469 0.91908 0.86643 0.0
H830 H 0.52987 0.87298 0.87584 0.0
C831 C 0.52847 0.82308 0.80941 0.0
C832 C 0.50169 0.87871 0.81786 0.0
C833 C 0.52658 0.8036 0.79724 0.0
C834 C 0.48908 0.93857 0.89261 0.0
C835 C 0.49029 0.92357 0.87498 0.0
C836 C 0.5222 0.87491 0.85958 0.0
C837 C 0.51064 0.83881 0.80932 0.0
C838 C 0.51163 0.85847 0.82415 0.0
C839 C 0.51119 0.91337 0.8695 0.0
C840 C 0.51192 0.89491 0.85343 0.0
H841 H 0.4745 0.8128 0.77347 0.0
H842 H 0.47716 0.84644 0.79549 0.0
H843 H 0.5292 0.84152 0.85101 0.0
H844 H 0.54551 0.93834 0.90736 0.0
H845 H 0.54745 0.91199 0.87688 0.0
C846 C 0.23804 0.55161 0.80071 0.0
C847 C 0.2363 0.56926 0.78582 0.0
C848 C 0.22076 0.54787 0.81634 0.0
C849 C 0.1594 0.56151 0.82703 0.0
H850 H 0.17218 0.53553 0.88444 0.0
C851 C 0.09232 0.5529 0.89786 0.0
C852 C 0.09182 0.53246 0.90876 0.0
C853 C 0.10939 0.55745 0.88223 0.0
C854 C 0.16836 0.54266 0.86839 0.0
H855 H 0.21587 0.59752 0.77626 0.0
H856 H 0.18621 0.59168 0.80409 0.0
H857 H 0.20379 0.54446 0.85967 0.0
H858 H 0.10857 0.50057 0.91129 0.0
H859 H 0.13842 0.50866 0.88424 0.0
H860 H 0.12394 0.56014 0.83616 0.0
C861 C 0.20041 0.58017 0.80328 0.0
C862 C 0.18647 0.54773 0.85413 0.0
C863 C 0.2175 0.58368 0.78747 0.0
C864 C 0.10839 0.51647 0.9032 0.0
C865 C 0.12561 0.52114 0.88784 0.0
C866 C 0.14133 0.55672 0.84143 0.0
C867 C 0.20149 0.56191 0.8176 0.0
C868 C 0.18226 0.55712 0.83318 0.0
C869 C 0.12649 0.54177 0.87744 0.0
C870 C 0.14562 0.5471 0.86219 0.0
H871 H 0.25225 0.54011 0.79959 0.0
H872 H 0.22213 0.53349 0.82683 0.0
H873 H 0.15536 0.56829 0.81088 0.0
H874 H 0.07981 0.56557 0.90172 0.0
H875 H 0.10969 0.57351 0.87447 0.0
C876 C 0.44113 0.19312 0.814 0.0
C877 C 0.45324 0.18734 0.79461 0.0
C878 C 0.44173 0.17942 0.83269 0.0
C879 C 0.45529 0.12216 0.84951 0.0
H880 H 0.46966 0.14741 0.90695 0.0
C881 C 0.50627 0.07666 0.91566 0.0
C882 C 0.5009 0.07941 0.93818 0.0
C883 C 0.49413 0.08813 0.89944 0.0
C884 C 0.4651 0.14012 0.89115 0.0
H885 H 0.47609 0.16299 0.78004 0.0
H886 H 0.47695 0.13921 0.81232 0.0
H887 H 0.46053 0.17162 0.87578 0.0
H888 H 0.47867 0.0961 0.96156 0.0
H889 H 0.45729 0.11651 0.93303 0.0
H890 H 0.46092 0.09073 0.86457 0.0
C891 C 0.46654 0.15402 0.81297 0.0
C892 C 0.45992 0.15398 0.87329 0.0
C893 C 0.46605 0.16769 0.79443 0.0
C894 C 0.4827 0.09335 0.94425 0.0
C895 C 0.47071 0.10519 0.92797 0.0
C896 C 0.46049 0.10835 0.86731 0.0
C897 C 0.45435 0.15965 0.8323 0.0
C898 C 0.45582 0.14514 0.85208 0.0
C899 C 0.47658 0.10291 0.90541 0.0
C900 C 0.46628 0.1172 0.8881 0.0
H901 H 0.43098 0.20808 0.81463 0.0
H902 H 0.43215 0.18418 0.84735 0.0
H903 H 0.45167 0.11485 0.83349 0.0
H904 H 0.52035 0.06608 0.91062 0.0
H905 H 0.49931 0.08625 0.88227 0.0
C906 C 0.76521 0.5395 0.82276 0.0
C907 C 0.76478 0.52089 0.80893 0.0
C908 C 0.78115 0.54097 0.84001 0.0
C909 C 0.83549 0.51539 0.86013 0.0
H910 H 0.8188 0.54304 0.91602 0.0
C911 C 0.88833 0.50272 0.93849 0.0
C912 C 0.89867 0.52207 0.94639 0.0
C913 C 0.87009 0.50384 0.92362 0.0
C914 C 0.82361 0.53537 0.90043 0.0
H915 H 0.78018 0.48904 0.80247 0.0
H916 H 0.80739 0.4911 0.83293 0.0
H917 H 0.79116 0.54236 0.88545 0.0
H918 H 0.8965 0.55775 0.9464 0.0
H919 H 0.86406 0.55955 0.92063 0.0
H920 H 0.86756 0.50766 0.8755 0.0
C921 C 0.7961 0.50501 0.83012 0.0
C922 C 0.80792 0.53508 0.88286 0.0
C923 C 0.78044 0.50373 0.81269 0.0
C924 C 0.88903 0.54254 0.94054 0.0
C925 C 0.87048 0.54362 0.92583 0.0
C926 C 0.85092 0.51533 0.87776 0.0
C927 C 0.79676 0.52368 0.84399 0.0
C928 C 0.8136 0.5249 0.86252 0.0
C929 C 0.86152 0.52426 0.91664 0.0
C930 C 0.84506 0.52515 0.89808 0.0
H931 H 0.75332 0.55299 0.8201 0.0
H932 H 0.78134 0.55574 0.85007 0.0
H933 H 0.84081 0.50796 0.84459 0.0
H934 H 0.89514 0.48666 0.94272 0.0
H935 H 0.86325 0.48871 0.91686 0.0
C936 C 0.70769 0.72326 0.01233 0.0
C937 C 0.72201 0.72428 0.99367 0.0
C938 C 0.68751 0.71107 0.01163 0.0
C939 C 0.66211 0.66496 0.98006 0.0
H940 H 0.60884 0.67789 0.01641 0.0
C941 C 0.58288 0.60994 0.97867 0.0
C942 C 0.57635 0.60187 -0.00041 0.0
C943 C 0.598 0.62751 0.97698 0.0
C944 C 0.62363 0.67415 0.00619 0.0
H945 H 0.72603 0.71471 0.95928 0.0
H946 H 0.69025 0.69425 0.95758 0.0
H947 H 0.63994 0.70457 0.01421 0.0
H948 H 0.57948 0.60684 0.03515 0.0
H949 H 0.60588 0.6378 0.0321 0.0
H950 H 0.64569 0.63466 0.97192 0.0
C951 C 0.6949 0.70209 0.97307 0.0
C952 C 0.64149 0.68934 0.00497 0.0
C953 C 0.71529 0.71393 0.97393 0.0
C954 C 0.58435 0.61254 0.01879 0.0
C955 C 0.59931 0.63034 0.01707 0.0
C956 C 0.64415 0.65 0.98101 0.0
C957 C 0.68109 0.69992 0.99211 0.0
C958 C 0.66111 0.6848 0.9921 0.0
C959 C 0.60671 0.63759 0.99615 0.0
C960 C 0.62488 0.65432 0.99426 0.0
H961 H 0.71269 0.73099 0.0278 0.0
H962 H 0.67755 0.70959 0.02671 0.0
H963 H 0.6771 0.66054 0.97041 0.0
H964 H 0.57696 0.6022 0.96353 0.0
H965 H 0.6033 0.63296 0.96066 0.0
C966 C 0.28468 0.7153 0.056 0.0
C967 C 0.28072 0.72908 0.03773 0.0
C968 C 0.29589 0.6951 0.05319 0.0
C969 C 0.33399 0.66625 0.013 0.0
H970 H 0.32339 0.6161 0.05133 0.0
C971 C 0.38131 0.5854 -0.00153 0.0
C972 C 0.39492 0.57888 0.01659 0.0
C973 C 0.36368 0.60072 0.00129 0.0
C974 C 0.32643 0.63 0.04052 0.0
H975 H 0.28412 0.73233 0.00215 0.0
H976 H 0.30267 0.69665 -0.00309 0.0
H977 H 0.29931 0.64901 0.05504 0.0
H978 H 0.39914 0.58174 0.05229 0.0
H979 H 0.368 0.60843 0.05719 0.0
H980 H 0.36085 0.64712 -0.00169 0.0
C981 C 0.29807 0.70165 0.01359 0.0
C982 C 0.31278 0.64892 0.04269 0.0
C983 C 0.2873 0.72203 0.0165 0.0
C984 C 0.38909 0.5865 0.03795 0.0
C985 C 0.37125 0.60175 0.04079 0.0
C986 C 0.34728 0.64728 0.01058 0.0
C987 C 0.303 0.6881 0.03195 0.0
C988 C 0.31653 0.66739 0.02906 0.0
C989 C 0.35908 0.60966 0.02232 0.0
C990 C 0.34376 0.62904 0.02439 0.0
H991 H 0.27979 0.72052 0.07255 0.0
H992 H 0.29962 0.68536 0.06778 0.0
H993 H 0.33792 0.68023 0.00259 0.0
H994 H 0.38507 0.57966 0.98181 0.0
H995 H 0.3543 0.60635 0.98685 0.0
C996 C 0.28458 0.32119 0.04879 0.0
C997 C 0.2828 0.30773 0.02992 0.0
C998 C 0.29953 0.33908 0.04885 0.0
C999 C 0.33499 0.37487 0.01319 0.0
H1000 H 0.37801 0.37282 0.06218 0.0
C1001 C 0.42207 0.41775 0.00812 0.0
C1002 C 0.43032 0.42852 0.02714 0.0
C1003 C 0.40279 0.40435 0.00933 0.0
C1004 C 0.36597 0.37391 0.04856 0.0
H1005 H 0.29375 0.30318 0.99587 0.0
H1006 H 0.3196 0.33458 0.9958 0.0
H1007 H 0.34457 0.34904 0.06254 0.0
H1008 H 0.42506 0.43319 0.06251 0.0
H1009 H 0.3912 0.41003 0.06455 0.0
H1010 H 0.35642 0.39957 -0.00092 0.0
C1011 C 0.30958 0.33136 0.01057 0.0
C1012 C 0.34677 0.36031 0.0488 0.0
C1013 C 0.29486 0.31337 0.01061 0.0
C1014 C 0.41922 0.42507 0.04755 0.0
C1015 C 0.3998 0.41176 0.04872 0.0
C1016 C 0.35409 0.38858 0.01301 0.0
C1017 C 0.3127 0.34391 0.02994 0.0
C1018 C 0.3313 0.36037 0.03093 0.0
C1019 C 0.39116 0.4015 0.02955 0.0
C1020 C 0.37007 0.38795 0.03049 0.0
H1021 H 0.27558 0.31704 0.06393 0.0
H1022 H 0.30145 0.34863 0.06393 0.0
H1023 H 0.32323 0.3754 -0.0007 0.0
H1024 H 0.43032 0.41988 0.99216 0.0
H1025 H 0.39698 0.39626 0.99434 0.0
C1026 C 0.74706 0.31143 0.96349 0.0
C1027 C 0.766 0.31007 0.97777 0.0
C1028 C 0.72854 0.32521 0.96857 0.0
C1029 C 0.71284 0.37404 0.00268 0.0
H1030 H 0.65148 0.35797 0.98459 0.0
C1031 C 0.62916 0.42526 0.02078 0.0
C1032 C 0.61475 0.42793 0.00224 0.0
C1033 C 0.6485 0.41147 0.01956 0.0
C1034 C 0.66855 0.3627 0.9897 0.0
H1035 H 0.78002 0.3215 0.00899 0.0
H1036 H 0.74743 0.34521 0.01818 0.0
H1037 H 0.68271 0.33166 0.98 0.0
H1038 H 0.6102 0.41902 0.96755 0.0
H1039 H 0.64352 0.39509 0.96563 0.0
H1040 H 0.69829 0.40511 0.01258 0.0
C1041 C 0.74711 0.33605 0.00276 0.0
C1042 C 0.68649 0.34766 0.98698 0.0
C1043 C 0.76574 0.32238 -0.00244 0.0
C1044 C 0.6207 0.41728 0.98226 0.0
C1045 C 0.63976 0.40343 0.98114 0.0
C1046 C 0.69476 0.38903 0.00565 0.0
C1047 C 0.72837 0.33786 0.98819 0.0
C1048 C 0.70898 0.35326 0.99297 0.0
C1049 C 0.65357 0.39997 -0.00014 0.0
C1050 C 0.67254 0.38365 -0.00127 0.0
H1051 H 0.74692 0.30245 0.94794 0.0
H1052 H 0.71468 0.32645 0.95671 0.0
H1053 H 0.72994 0.37905 0.0073 0.0
H1054 H 0.62512 0.43323 0.03641 0.0
H1055 H 0.65895 0.40912 0.03422 0.0
C1056 C 0.00101 0.71686 0.67391 0.0
C1057 C -0.00565 0.71646 0.69634 0.0
C1058 C -0.00293 0.69889 0.6601 0.0
C1059 C -0.00991 0.63953 0.65973 0.0
H1060 H 0.97063 0.65039 0.59914 0.0
C1061 C -0.00504 0.57157 0.5928 0.0
C1062 C 0.00737 0.5784 0.57411 0.0
C1063 C 0.98643 0.58711 0.60796 0.0
C1064 C 0.97594 0.64704 0.61603 0.0
H1065 H 0.97872 0.69647 0.72194 0.0
H1066 H 0.97229 0.66459 0.69769 0.0
H1067 H 0.96941 0.68022 0.62626 0.0
H1068 H 0.01973 0.60661 0.55591 0.0
H1069 H 0.00476 0.63369 0.58203 0.0
H1070 H -0.00231 0.60661 0.6492 0.0
C1071 C 0.98034 0.6791 0.69089 0.0
C1072 C 0.97527 0.66412 0.63155 0.0
C1073 C 0.98412 0.69729 0.70476 0.0
C1074 C 0.01006 0.60096 0.57014 0.0
C1075 C 0.00136 0.61645 0.58507 0.0
C1076 C -0.0092 0.62241 0.64416 0.0
C1077 C 0.98657 0.67986 0.66834 0.0
C1078 C 0.98318 0.66077 0.65332 0.0
C1079 C -0.00995 0.60971 0.60449 0.0
C1080 C 0.98456 0.62624 0.62193 0.0
H1081 H 0.00956 0.73104 0.66699 0.0
H1082 H 0.00267 0.69975 0.64298 0.0
H1083 H -0.00364 0.63649 0.67637 0.0
H1084 H -0.00673 0.55427 0.59653 0.0
H1085 H 0.97777 0.58143 0.62276 0.0
C1086 C 0.3384 0.99592 0.73782 0.0
C1087 C 0.32075 0.01093 0.73277 0.0
C1088 C 0.36035 -0.00118 0.72917 0.0
C1089 C 0.39808 0.03758 0.69868 0.0
H1090 H 0.41828 0.98448 0.66858 0.0
C1091 C 0.45155 0.03759 0.6187 0.0
C1092 C 0.4652 0.01915 0.61353 0.0
C1093 C 0.43925 0.03842 0.63858 0.0
C1094 C 0.4134 -0.00061 0.67728 0.0
H1095 H 0.31276 0.04167 0.71621 0.0
H1096 H 0.35095 0.04646 0.70065 0.0
H1097 H 0.38668 0.98276 0.69446 0.0
H1098 H 0.47859 0.98825 0.62618 0.0
H1099 H 0.45763 0.98998 0.66108 0.0
H1100 H 0.42443 0.05433 0.68075 0.0
C1101 C 0.34788 0.03253 0.71141 0.0
C1102 C 0.39516 0.99839 0.69216 0.0
C1103 C 0.32592 0.02964 0.72008 0.0
C1104 C 0.46787 0.00249 0.62948 0.0
C1105 C 0.45578 0.00345 0.64946 0.0
C1106 C 0.41648 0.03858 0.68382 0.0
C1107 C 0.36512 0.01676 0.71526 0.0
C1108 C 0.38686 0.01755 0.70254 0.0
C1109 C 0.44053 0.02094 0.65381 0.0
C1110 C 0.4239 0.01958 0.67245 0.0
H1111 H 0.33499 0.98128 0.74746 0.0
H1112 H 0.37337 0.98654 0.73264 0.0
H1113 H 0.39223 0.05258 0.70666 0.0
H1114 H 0.44926 0.05081 0.60686 0.0
H1115 H 0.42762 0.05211 0.64127 0.0
C1116 C 0.02155 0.33081 0.71637 0.0
C1117 C 0.00277 0.31646 0.71544 0.0
C1118 C 0.02545 0.34587 0.69936 0.0
C1119 C 0.01347 0.35927 0.64119 0.0
H1120 H 0.02267 0.41944 0.66072 0.0
C1121 C 0.04605 0.42964 0.58457 0.0
C1122 C 0.03539 0.45032 0.58692 0.0
C1123 C 0.04046 0.41233 0.5988 0.0
C1124 C 0.01996 0.40275 0.655 0.0
H1125 H 0.974 0.30605 0.69528 0.0
H1126 H 0.98122 0.33214 0.66525 0.0
H1127 H 0.0171 0.39049 0.68815 0.0
H1128 H 0.00987 0.4688 0.60554 0.0
H1129 H 0.00033 0.43863 0.63049 0.0
H1130 H 0.01659 0.37162 0.60797 0.0
C1131 C -0.00721 0.33171 0.6793 0.0
C1132 C 0.01701 0.38615 0.6707 0.0
C1133 C 0.98873 0.31673 0.69646 0.0
C1134 C 0.01851 0.45313 0.60336 0.0
C1135 C 0.01309 0.43588 0.61771 0.0
C1136 C 0.01672 0.37588 0.62544 0.0
C1137 C 0.01085 0.3468 0.68088 0.0
C1138 C 0.01383 0.36424 0.66397 0.0
C1139 C 0.02425 0.41542 0.61578 0.0
C1140 C 0.01999 0.39778 0.63222 0.0
H1141 H 0.03302 0.33069 0.73048 0.0
H1142 H 0.03977 0.35704 0.70079 0.0
H1143 H 0.01108 0.34249 0.63558 0.0
H1144 H 0.05903 0.42691 0.572 0.0
H1145 H 0.04942 0.39677 0.59702 0.0
C1146 C 0.74053 0.05801 0.71307 0.0
C1147 C 0.74082 0.07897 0.72295 0.0
C1148 C 0.72599 0.05363 0.69524 0.0
C1149 C 0.69597 0.08102 0.64944 0.0
H1150 H 0.66297 0.02604 0.64533 0.0
C1151 C 0.6283 0.0626 0.58137 0.0
C1152 C 0.62583 0.04065 0.57437 0.0
C1153 C 0.64377 0.06795 0.59826 0.0
C1154 C 0.67237 0.04133 0.64599 0.0
H1155 H 0.72577 0.11162 0.72226 0.0
H1156 H 0.70016 0.10391 0.69104 0.0
H1157 H 0.68557 0.03391 0.67827 0.0
H1158 H 0.63917 0.00749 0.57817 0.0
H1159 H 0.66659 0.01692 0.60698 0.0
H1160 H 0.68293 0.08835 0.61702 0.0
C1161 C 0.71133 0.09094 0.69705 0.0
C1162 C 0.68522 0.04588 0.66497 0.0
C1163 C 0.72576 0.09527 0.71507 0.0
C1164 C 0.64042 0.02451 0.58338 0.0
C1165 C 0.65599 0.02988 0.60007 0.0
C1166 C 0.6832 0.07641 0.63034 0.0
C1167 C 0.71152 0.07015 0.68677 0.0
C1168 C 0.6972 0.06574 0.6669 0.0
C1169 C 0.65724 0.0515 0.60834 0.0
C1170 C 0.67131 0.05645 0.62834 0.0
H1171 H 0.75191 0.04511 0.71888 0.0
H1172 H 0.72664 0.03748 0.68761 0.0
H1173 H 0.70527 0.09636 0.65033 0.0
H1174 H 0.61731 0.07545 0.5748 0.0
H1175 H 0.64422 0.08477 0.6042 0.0
C1176 C 0.0697 0.30351 0.3357 0.0
C1177 C 0.05568 0.30071 0.31696 0.0
C1178 C 0.06796 0.32252 0.34867 0.0
C1179 C 0.04534 0.3796 0.34949 0.0
H1180 H 0.04162 0.37007 0.41305 0.0
C1181 C 0.00684 0.42652 0.43085 0.0
C1182 C 0.01528 0.44787 0.4276 0.0
C1183 C 0.01488 0.40901 0.41792 0.0
C1184 C 0.04264 0.37299 0.39534 0.0
H1185 H 0.02934 0.31601 0.29674 0.0
H1186 H 0.02633 0.34922 0.31935 0.0
H1187 H 0.04989 0.33914 0.38844 0.0
H1188 H 0.03941 0.46745 0.40879 0.0
H1189 H 0.05343 0.43681 0.38619 0.0
H1190 H 0.03729 0.41334 0.35639 0.0
C1191 C 0.03883 0.33679 0.32391 0.0
C1192 C 0.04762 0.35533 0.38125 0.0
C1193 C 0.04055 0.31776 0.31094 0.0
C1194 C 0.03242 0.45122 0.41159 0.0
C1195 C 0.0404 0.43371 0.39858 0.0
C1196 C 0.04044 0.3973 0.36361 0.0
C1197 C 0.0522 0.33919 0.34316 0.0
C1198 C 0.0487 0.35836 0.35814 0.0
C1199 C 0.0315 0.41247 0.40143 0.0
C1200 C 0.03868 0.39411 0.38665 0.0
H1201 H 0.08182 0.29084 0.34054 0.0
H1202 H 0.07879 0.32406 0.36317 0.0
H1203 H 0.04627 0.3825 0.33178 0.0
H1204 H -0.00634 0.42336 0.44307 0.0
H1205 H 0.00752 0.39288 0.42036 0.0
C1206 C 0.67972 0.0842 0.25076 0.0
C1207 C 0.7006 0.07285 0.24884 0.0
C1208 C 0.66421 0.07873 0.26749 0.0
C1209 C 0.66083 0.04842 0.32109 0.0
H1210 H 0.59538 0.05383 0.3113 0.0
C1211 C 0.59445 0.01404 0.38189 0.0
C1212 C 0.57987 0.03022 0.39093 0.0
C1213 C 0.60761 0.01859 0.36314 0.0
C1214 C 0.61363 0.05229 0.31417 0.0
H1215 H 0.72156 0.04658 0.26222 0.0
H1216 H 0.69414 0.03623 0.2908 0.0
H1217 H 0.62193 0.06268 0.28128 0.0
H1218 H 0.56655 0.06336 0.38663 0.0
H1219 H 0.58926 0.07104 0.35335 0.0
H1220 H 0.65233 0.03732 0.35376 0.0
C1221 C 0.68995 0.04993 0.28006 0.0
C1222 C 0.62887 0.0575 0.29709 0.0
C1223 C 0.70563 0.05572 0.26363 0.0
C1224 C 0.57773 0.05061 0.3801 0.0
C1225 C 0.59061 0.055 0.36106 0.0
C1226 C 0.64559 0.0428 0.33794 0.0
C1227 C 0.66909 0.06148 0.28236 0.0
C1228 C 0.65271 0.05571 0.30036 0.0
C1229 C 0.60609 0.03922 0.35284 0.0
C1230 C 0.62191 0.04476 0.33464 0.0
H1231 H 0.6756 0.09757 0.23955 0.0
H1232 H 0.64857 0.08828 0.26895 0.0
H1233 H 0.67899 0.04734 0.32451 0.0
H1234 H 0.59651 0.99819 0.38985 0.0
H1235 H 0.61937 0.00616 0.35695 0.0
C1236 C -0.00102 0.71906 0.32267 0.0
C1237 C 0.00894 0.71174 0.30271 0.0
C1238 C 0.00265 0.70753 0.34243 0.0
C1239 C 0.03872 0.66373 0.36847 0.0
H1240 H 0.9838 0.65267 0.40274 0.0
C1241 C 0.02623 0.58802 0.42471 0.0
C1242 C 0.01239 0.59014 0.44361 0.0
C1243 C 0.02987 0.60604 0.41078 0.0
C1244 C -0.00054 0.65592 0.3937 0.0
H1245 H 0.03169 0.68731 0.28816 0.0
H1246 H 0.03752 0.66687 0.32237 0.0
H1247 H 0.98242 0.67857 0.37217 0.0
H1248 H -0.00772 0.61287 0.46346 0.0
H1249 H -0.00117 0.64449 0.43935 0.0
H1250 H 0.05547 0.6403 0.38961 0.0
C1251 C 0.02703 0.68162 0.32288 0.0
C1252 C -0.00135 0.67082 0.37611 0.0
C1253 C 0.02341 0.69316 0.30316 0.0
C1254 C 0.00313 0.61084 0.44898 0.0
C1255 C 0.00676 0.62888 0.43512 0.0
C1256 C 0.0395 0.64874 0.38607 0.0
C1257 C 0.01636 0.6884 0.34268 0.0
C1258 C 0.01814 0.67459 0.36299 0.0
C1259 C 0.01952 0.6265 0.41544 0.0
C1260 C 0.01976 0.64437 0.39862 0.0
H1261 H 0.9877 0.73327 0.32289 0.0
H1262 H -0.00559 0.71337 0.35746 0.0
H1263 H 0.05414 0.66652 0.35892 0.0
H1264 H 0.03263 0.57208 0.41969 0.0
H1265 H 0.03945 0.60351 0.39557 0.0
C1266 C 0.29524 0.97748 0.29199 0.0
C1267 C 0.27846 0.99373 0.28845 0.0
C1268 C 0.31173 0.98014 0.30854 0.0
C1269 C 0.32263 0.01109 0.36065 0.0
H1270 H 0.38371 0.98691 0.35309 0.0
C1271 C 0.39898 0.02152 0.42285 0.0
C1272 C 0.41184 0.00226 0.42683 0.0
C1273 C 0.3814 0.02157 0.40701 0.0
C1274 C 0.36666 0.99364 0.35547 0.0
H1275 H 0.26633 0.0259 0.29882 0.0
H1276 H 0.29554 0.03087 0.32737 0.0
H1277 H 0.35692 0.98597 0.3222 0.0
H1278 H 0.41508 0.96759 0.41842 0.0
H1279 H 0.38468 0.96782 0.39094 0.0
H1280 H 0.3328 0.01904 0.39396 0.0
C1281 C 0.29561 0.01579 0.31778 0.0
C1282 C 0.35126 0.99305 0.33779 0.0
C1283 C 0.27897 0.01302 0.30133 0.0
C1284 C 0.40576 0.9828 0.41566 0.0
C1285 C 0.38841 0.98292 0.39979 0.0
C1286 C 0.33819 0.01191 0.3783 0.0
C1287 C 0.312 -0.00077 0.32183 0.0
C1288 C 0.3289 0.00141 0.34023 0.0
C1289 C 0.37653 0.00242 0.39481 0.0
C1290 C 0.36021 0.00283 0.37598 0.0
H1291 H 0.29504 0.96228 0.28257 0.0
H1292 H 0.32379 0.96684 0.31139 0.0
H1293 H 0.30548 0.01747 0.36325 0.0
H1294 H 0.40316 0.03678 0.43118 0.0
H1295 H 0.3724 0.03681 0.40351 0.0
C1296 C 0.03821 0.20222 0.31382 0.0
C1297 C 0.05446 0.21856 0.31841 0.0
C1298 C 0.03598 0.18399 0.32782 0.0
C1299 C 0.0472 0.16767 0.38586 0.0
H1300 H 0.02876 0.1101 0.36491 0.0
C1301 C 0.00057 0.10528 0.4411 0.0
C1302 C 0.00452 0.08268 0.43799 0.0
C1303 C 0.01116 0.12074 0.42746 0.0
C1304 C 0.03426 0.12596 0.37106 0.0
H1305 H 0.08208 0.22787 0.34046 0.0
H1306 H 0.07843 0.19599 0.36468 0.0
H1307 H 0.03911 0.13846 0.33817 0.0
H1308 H 0.02257 0.05858 0.41812 0.0
H1309 H 0.0417 0.08554 0.39452 0.0
H1310 H 0.04226 0.15524 0.41873 0.0
C1311 C 0.06699 0.19749 0.35061 0.0
C1312 C 0.0399 0.14233 0.3557 0.0
C1313 C 0.06914 0.21574 0.33669 0.0
C1314 C 0.01987 0.07586 0.42139 0.0
C1315 C 0.03044 0.09133 0.4076 0.0
C1316 C 0.04158 0.15132 0.40119 0.0
C1317 C 0.05003 0.18162 0.34667 0.0
C1318 C 0.04605 0.16352 0.36289 0.0
C1319 C 0.02581 0.11396 0.41018 0.0
C1320 C 0.03459 0.1304 0.394 0.0
H1321 H 0.02652 0.20403 0.29999 0.0
H1322 H 0.02256 0.17225 0.32438 0.0
H1323 H 0.05163 0.18382 0.39206 0.0
H1324 H 0.98863 0.11099 0.45367 0.0
H1325 H 0.00692 0.13796 0.42978 0.0
C1326 C 0.79073 0.06828 0.27946 0.0
C1327 C 0.79632 0.0878 0.26847 0.0
C1328 C 0.79906 0.06421 0.30083 0.0
C1329 C 0.82445 0.09085 0.35043 0.0
H1330 H 0.84919 0.03254 0.36116 0.0
C1331 C 0.88506 0.06913 0.42375 0.0
C1332 C 0.88508 0.04738 0.4317 0.0
C1333 C 0.87058 0.07531 0.40627 0.0
C1334 C 0.84195 0.04879 0.35871 0.0
H1335 H 0.8144 0.11864 0.27087 0.0
H1336 H 0.82927 0.11153 0.3083 0.0
H1337 H 0.83151 0.04077 0.3257 0.0
H1338 H 0.8681 0.01585 0.4293 0.0
H1339 H 0.84236 0.02681 0.39953 0.0
H1340 H 0.83521 0.09889 0.3835 0.0
C1341 C 0.81831 0.09941 0.30059 0.0
C1342 C 0.83185 0.05353 0.33826 0.0
C1343 C 0.80998 0.10344 0.27916 0.0
C1344 C 0.86878 0.03263 0.42332 0.0
C1345 C 0.85417 0.03887 0.40607 0.0
C1346 C 0.8345 0.08607 0.37102 0.0
C1347 C 0.81313 0.07964 0.31159 0.0
C1348 C 0.82309 0.07463 0.33379 0.0
C1349 C 0.85566 0.05994 0.39657 0.0
C1350 C 0.84348 0.06498 0.37538 0.0
H1351 H 0.78001 0.05611 0.27148 0.0
H1352 H 0.79448 0.04896 0.30893 0.0
H1353 H 0.81764 0.10722 0.34759 0.0
H1354 H 0.89739 0.08093 0.42986 0.0
H1355 H 0.87222 0.0917 0.39944 0.0
C1356 C 0.01343 0.82622 0.2937 0.0
C1357 C -0.00338 0.80993 0.29272 0.0
C1358 C 0.01224 0.8427 0.30992 0.0
C1359 C 0.98457 0.85746 0.36358 0.0
H1360 H -0.00349 0.91726 0.34468 0.0
C1361 C 0.95602 0.93353 0.4144 0.0
C1362 C 0.97063 0.95181 0.41509 0.0
C1363 C 0.96111 0.9155 0.40077 0.0
C1364 C -0.00656 0.90063 0.35035 0.0
H1365 H 0.96565 0.7975 0.30767 0.0
H1366 H 0.96329 0.82639 0.33598 0.0
H1367 H 0.00199 0.887 0.31863 0.0
H1368 H 0.00233 0.96526 0.40234 0.0
H1369 H 0.0113 0.93374 0.37868 0.0
H1370 H 0.97564 0.87119 0.39521 0.0
C1371 C 0.97761 0.82641 0.32454 0.0
C1372 C -0.0034 0.88326 0.3354 0.0
C1373 C 0.97884 0.80995 0.30831 0.0
C1374 C -0.00932 0.95147 0.40215 0.0
C1375 C -0.00425 0.93345 0.38848 0.0
C1376 C 0.98138 0.87485 0.37853 0.0
C1377 C -0.00585 0.84315 0.32539 0.0
C1378 C -0.008 0.86146 0.34175 0.0
C1379 C 0.98092 0.91533 0.38747 0.0
C1380 C 0.98557 0.89667 0.37203 0.0
H1381 H 0.02729 0.82641 0.28173 0.0
H1382 H 0.02544 0.85513 0.31028 0.0
H1383 H 0.98122 0.84085 0.36914 0.0
H1384 H 0.94044 0.93324 0.42415 0.0
H1385 H 0.94918 0.90195 0.40021 0.0
C1386 C 0.17918 0.97232 0.27277 0.0
C1387 C 0.19453 0.98998 0.27412 0.0
C1388 C 0.15774 0.97368 0.283 0.0
C1389 C 0.11566 0.01178 0.30857 0.0
H1390 H 0.10571 0.964 0.34993 0.0
C1391 C 0.06306 0.02184 0.3884 0.0
C1392 C 0.05276 0.00337 0.39813 0.0
C1393 C 0.07543 0.01976 0.36867 0.0
C1394 C 0.10773 0.97725 0.33812 0.0
H1395 H 0.19902 0.02336 0.28596 0.0
H1396 H 0.16153 0.02576 0.30384 0.0
H1397 H 0.13651 0.96128 0.32302 0.0
H1398 H 0.0456 0.96866 0.39369 0.0
H1399 H 0.0665 0.96519 0.35885 0.0
H1400 H 0.08712 0.02796 0.32396 0.0
C1401 C 0.16605 0.01088 0.29488 0.0
C1402 C 0.1255 0.97569 0.3227 0.0
C1403 C 0.18757 0.00944 0.28485 0.0
C1404 C 0.05363 0.98314 0.38681 0.0
C1405 C 0.06574 0.98113 0.36689 0.0
C1406 C 0.09768 0.01325 0.32385 0.0
C1407 C 0.15117 0.99281 0.29455 0.0
C1408 C 0.13007 0.99319 0.30822 0.0
C1409 C 0.07753 -0.00077 0.35801 0.0
C1410 C 0.09394 0.99629 0.33929 0.0
H1411 H 0.18417 0.95708 0.2647 0.0
H1412 H 0.14653 0.95955 0.28241 0.0
H1413 H 0.11867 0.0254 0.29739 0.0
H1414 H 0.06266 0.0377 0.39663 0.0
H1415 H 0.08442 0.03404 0.36252 0.0
C1416 C 0.97878 0.80334 0.6898 0.0
C1417 C -0.00199 0.79824 0.70291 0.0
C1418 C 0.97778 0.82296 0.67777 0.0
C1419 C 0.0042 0.87806 0.6721 0.0
H1420 H 0.98373 0.87316 0.61106 0.0
C1421 C 0.00067 0.95343 0.61399 0.0
C1422 C 0.00988 0.95025 0.59263 0.0
C1423 C -0.00365 0.93546 0.6278 0.0
C1424 C 0.98953 0.87481 0.62805 0.0
H1425 H 0.03096 0.81009 0.71415 0.0
H1426 H 0.02925 0.84434 0.69316 0.0
H1427 H 0.98207 0.84118 0.63531 0.0
H1428 H 0.0209 0.92561 0.56874 0.0
H1429 H 0.01349 0.89433 0.59285 0.0
H1430 H 0.01242 0.9115 0.66459 0.0
C1431 C 0.01482 0.83327 0.69235 0.0
C1432 C 0.98833 0.85653 0.64205 0.0
C1433 C 0.0158 0.81363 0.70441 0.0
C1434 C 0.01381 0.92865 0.58509 0.0
C1435 C 0.00946 0.91069 0.59889 0.0
C1436 C 0.00537 0.89636 0.6581 0.0
C1437 C -0.00401 0.83797 0.67855 0.0
C1438 C -0.0041 0.85786 0.66418 0.0
C1439 C 0.00107 0.91389 0.62056 0.0
C1440 C -0.0017 0.89488 0.63583 0.0
H1441 H 0.96461 0.79199 0.6886 0.0
H1442 H 0.96283 0.82627 0.66766 0.0
H1443 H 0.00996 0.87971 0.68911 0.0
H1444 H -0.00272 0.96984 0.62027 0.0
H1445 H 0.98952 0.93847 0.64426 0.0
C1446 C 0.22478 0.98661 0.70537 0.0
C1447 C 0.23857 0.00457 0.71111 0.0
C1448 C 0.20907 0.98829 0.68793 0.0
C1449 C 0.1953 0.02234 0.63814 0.0
H1450 H 0.13787 0.99085 0.641 0.0
C1451 C 0.11814 0.03466 0.57764 0.0
C1452 C 0.10688 0.0154 0.57077 0.0
C1453 C 0.13594 0.03358 0.5932 0.0
C1454 C 0.15395 -0.00042 0.63988 0.0
H1455 H 0.24624 0.03858 0.70366 0.0
H1456 H 0.21829 0.04184 0.67377 0.0
H1457 H 0.16427 0.989 0.67216 0.0
H1458 H 0.10681 0.97976 0.57367 0.0
H1459 H 0.1376 0.97802 0.60076 0.0
H1460 H 0.1844 0.03338 0.60597 0.0
C1461 C 0.22004 0.0262 0.68219 0.0
C1462 C 0.16915 0.99848 0.65773 0.0
C1463 C 0.23594 0.02441 0.69944 0.0
C1464 C 0.11485 0.99498 0.57873 0.0
C1465 C 0.13243 0.99394 0.59436 0.0
C1466 C 0.1799 0.02367 0.62037 0.0
C1467 C 0.20656 0.00808 0.676 0.0
C1468 C 0.19012 0.00971 0.65709 0.0
C1469 C 0.14269 0.01325 0.60227 0.0
C1470 C 0.15916 0.01214 0.621 0.0
H1471 H 0.22669 0.97102 0.71389 0.0
H1472 H 0.19933 0.97385 0.68347 0.0
H1473 H 0.21142 0.03094 0.63683 0.0
H1474 H 0.1125 0.05065 0.57182 0.0
H1475 H 0.1436 0.04872 0.59899 0.0
C1476 C 0.95871 0.20729 0.70298 0.0
C1477 C 0.97684 0.22078 0.70964 0.0
C1478 C 0.96137 0.19293 0.68493 0.0
C1479 C 0.00648 0.16355 0.65376 0.0
H1480 H 0.95916 0.1539 0.60971 0.0
C1481 C 0.025 0.11131 0.57674 0.0
C1482 C 0.00841 0.09608 0.56986 0.0
C1483 C 0.01978 0.12741 0.5925 0.0
C1484 C 0.97245 0.15624 0.62201 0.0
H1485 H 0.01167 0.23049 0.70279 0.0
H1486 H 0.01643 0.20553 0.67114 0.0
H1487 H 0.95268 0.18046 0.63971 0.0
H1488 H 0.97276 0.08704 0.57306 0.0
H1489 H 0.96372 0.11479 0.60126 0.0
H1490 H 0.02616 0.13927 0.63646 0.0
C1491 C 0.00022 0.20576 0.67988 0.0
C1492 C 0.96875 0.17148 0.63918 0.0
C1493 C -0.0025 0.22013 0.69787 0.0
C1494 C 0.98605 0.09815 0.57832 0.0
C1495 C 0.98084 0.11423 0.59435 0.0
C1496 C 0.01013 0.14832 0.63672 0.0
C1497 C 0.9823 0.19176 0.67336 0.0
C1498 C 0.98583 0.17545 0.65515 0.0
C1499 C -0.00216 0.12871 0.60203 0.0
C1500 C -0.0067 0.1446 0.62046 0.0
H1501 H 0.94264 0.20755 0.71199 0.0
H1502 H 0.94731 0.18226 0.68048 0.0
H1503 H 0.01979 0.16578 0.66606 0.0
H1504 H 0.04232 0.11054 0.57031 0.0
H1505 H 0.03313 0.13869 0.59746 0.0
C1506 C 0.82916 0.05684 0.74687 0.0
C1507 C 0.82234 0.07895 0.74581 0.0
C1508 C 0.85005 0.05015 0.73774 0.0
C1509 C 0.90356 0.07031 0.71039 0.0
H1510 H 0.89394 0.01934 0.67283 0.0
C1511 C 0.94738 0.05685 0.62609 0.0
C1512 C 0.9514 0.03527 0.6185 0.0
C1513 C 0.93741 0.06057 0.64685 0.0
C1514 C 0.89726 0.03328 0.68356 0.0
H1515 H 0.83203 0.11166 0.7356 0.0
H1516 H 0.86831 0.10003 0.71898 0.0
H1517 H 0.86568 0.02889 0.70062 0.0
H1518 H 0.95 0.00076 0.62762 0.0
H1519 H 0.93269 0.00732 0.66389 0.0
H1520 H 0.93468 0.07525 0.6922 0.0
C1521 C 0.85798 0.08784 0.72732 0.0
C1522 C 0.88099 0.03878 0.6996 0.0
C1523 C 0.83719 0.09454 0.73674 0.0
C1524 C 0.94682 0.01758 0.63281 0.0
C1525 C 0.93685 0.02132 0.65358 0.0
C1526 C 0.91985 0.06483 0.69421 0.0
C1527 C 0.86424 0.06542 0.72696 0.0
C1528 C 0.88358 0.05772 0.7128 0.0
C1529 C 0.93129 0.04281 0.66048 0.0
C1530 C 0.91652 0.0466 0.6802 0.0
H1531 H 0.81782 0.0446 0.75382 0.0
H1532 H 0.85454 0.03284 0.73817 0.0
H1533 H 0.90627 0.0848 0.72052 0.0
H1534 H 0.95091 0.07088 0.61561 0.0
H1535 H 0.93323 0.07732 0.65157 0.0
C1536 C 0.31067 0.95809 0.19996 0.0
C1537 C 0.28997 0.96651 0.19177 0.0
C1538 C 0.33044 0.95871 0.18681 0.0
C1539 C 0.34937 0.96507 0.12833 0.0
H1540 H 0.40666 0.98381 0.15451 0.0
C1541 C 0.42918 0.9778 0.07408 0.0
C1542 C 0.44053 0.9978 0.07777 0.0
C1543 C 0.41328 0.97 0.08951 0.0
C1544 C 0.3908 0.97852 0.14695 0.0
H1545 H 0.27319 0.98217 0.16396 0.0
H1546 H 0.30766 0.98363 0.14104 0.0
H1547 H 0.37325 0.97843 0.17817 0.0
H1548 H 0.44515 0.02458 0.10119 0.0
H1549 H 0.41732 0.01121 0.12782 0.0
H1550 H 0.36648 0.96622 0.097 0.0
C1551 C 0.30877 0.97617 0.15732 0.0
C1552 C 0.37171 0.97522 0.16054 0.0
C1553 C 0.28909 0.97553 0.17045 0.0
C1554 C 0.43665 0.00915 0.09778 0.0
C1555 C 0.42076 0.00138 0.11316 0.0
C1556 C 0.36841 0.96841 0.11475 0.0
C1557 C 0.32969 0.96773 0.1653 0.0
C1558 C 0.35062 0.96896 0.15131 0.0
C1559 C 0.40842 0.98203 0.10896 0.0
C1560 C 0.38923 0.97565 0.12382 0.0
H1561 H 0.31154 0.95103 0.21644 0.0
H1562 H 0.34624 0.95195 0.19338 0.0
H1563 H 0.3335 0.95986 0.12073 0.0
H1564 H 0.432 0.96854 0.05894 0.0
H1565 H 0.40438 0.95482 0.08594 0.0
C1566 C 0.06158 0.29315 0.19678 0.0
C1567 C 0.05128 0.29479 0.21772 0.0
C1568 C 0.06123 0.31109 0.18225 0.0
C1569 C 0.03074 0.36363 0.17099 0.0
H1570 H 0.08523 0.37732 0.13702 0.0
C1571 C 0.04175 0.446 0.12449 0.0
C1572 C 0.05309 0.44582 0.10389 0.0
C1573 C 0.04052 0.42692 0.13735 0.0
C1574 C 0.06974 0.37356 0.14612 0.0
H1575 H 0.03256 0.31606 0.2402 0.0
H1576 H 0.03209 0.34764 0.21495 0.0
H1577 H 0.08528 0.34555 0.16163 0.0
H1578 H 0.07152 0.42519 0.0804 0.0
H1579 H 0.06919 0.39182 0.10279 0.0
H1580 H 0.01527 0.39174 0.15558 0.0
C1581 C 0.0402 0.33249 0.20952 0.0
C1582 C 0.06978 0.35533 0.16028 0.0
C1583 C 0.04058 0.31452 0.22404 0.0
C1584 C 0.06274 0.42594 0.09623 0.0
C1585 C 0.06153 0.40684 0.10914 0.0
C1586 C 0.0307 0.38186 0.15682 0.0
C1587 C 0.05054 0.33101 0.18842 0.0
C1588 C 0.05032 0.35019 0.173 0.0
C1589 C 0.05059 0.40714 0.12998 0.0
C1590 C 0.05025 0.38715 0.1443 0.0
H1591 H 0.06984 0.27797 0.19161 0.0
H1592 H 0.0691 0.30925 0.16606 0.0
H1593 H 0.01532 0.35995 0.18022 0.0
H1594 H 0.03413 0.46101 0.13091 0.0
H1595 H 0.03219 0.42785 0.1534 0.0
C1596 C 0.71567 0.06021 0.15985 0.0
C1597 C 0.71844 0.08128 0.16888 0.0
C1598 C 0.70476 0.05746 0.13943 0.0
C1599 C 0.68718 0.05578 0.09223 0.0
H1600 H 0.62939 0.08716 0.08742 0.0
C1601 C 0.62246 0.03416 0.0237 0.0
C1602 C 0.60001 0.03093 0.03142 0.0
C1603 C 0.63861 0.04484 0.03699 0.0
C1604 C 0.64552 0.07833 0.08845 0.0
H1605 H 0.7127 0.11607 0.16376 0.0
H1606 H 0.69362 0.11137 0.12774 0.0
H1607 H 0.65612 0.09672 0.11694 0.0
H1608 H 0.57662 0.03733 0.05869 0.0
H1609 H 0.60475 0.05564 0.08191 0.0
H1610 H 0.67607 0.03655 0.06456 0.0
C1611 C 0.69987 0.09696 0.13643 0.0
C1612 C 0.66097 0.08398 0.10523 0.0
C1613 C 0.71094 0.0997 0.15687 0.0
C1614 C 0.59378 0.0395 0.05226 0.0
C1615 C 0.6099 0.05017 0.06552 0.0
C1616 C 0.67176 0.05015 0.07546 0.0
C1617 C 0.6962 0.07575 0.12772 0.0
C1618 C 0.68168 0.07232 0.10773 0.0
C1619 C 0.63267 0.05248 0.05829 0.0
C1620 C 0.65044 0.06091 0.07378 0.0
H1621 H 0.72106 0.0458 0.16908 0.0
H1622 H 0.70192 0.04089 0.13345 0.0
H1623 H 0.70312 0.04667 0.09352 0.0
H1624 H 0.62774 0.028 0.0076 0.0
H1625 H 0.65589 0.0467 0.03076 0.0
C1626 C 0.00147 0.71121 0.20157 0.0
C1627 C -0.00944 0.70627 0.22172 0.0
C1628 C -0.00085 0.69729 0.1832 0.0
C1629 C 0.98573 0.63954 0.16939 0.0
H1630 H 0.98757 0.66146 0.10901 0.0
C1631 C -0.0066 0.58044 0.09462 0.0
C1632 C 0.01188 0.58567 0.08074 0.0
C1633 C 0.98505 0.59591 0.10995 0.0
C1634 C 0.98693 0.6551 0.12579 0.0
H1635 H 0.96771 0.68348 0.23808 0.0
H1636 H 0.96338 0.65934 0.20597 0.0
H1637 H 0.98385 0.68734 0.13987 0.0
H1638 H 0.0353 0.61148 0.07109 0.0
H1639 H 0.02067 0.63843 0.09743 0.0
H1640 H 0.98936 0.60735 0.1553 0.0
C1641 C 0.97419 0.67368 0.20447 0.0
C1642 C 0.98493 0.66992 0.14348 0.0
C1643 C 0.97663 0.68752 0.22287 0.0
C1644 C 0.02098 0.60699 0.08155 0.0
C1645 C 0.0125 0.6225 0.09658 0.0
C1646 C 0.98759 0.62472 0.15168 0.0
C1647 C 0.98572 0.67817 0.1845 0.0
C1648 C 0.98494 0.66237 0.16555 0.0
C1649 C -0.0051 0.61696 0.11142 0.0
C1650 C 0.98885 0.63237 0.12972 0.0
H1651 H 0.0125 0.72541 0.20023 0.0
H1652 H 0.00859 0.70113 0.16824 0.0
H1653 H 0.98607 0.6331 0.18613 0.0
H1654 H 0.98642 0.56403 0.09463 0.0
H1655 H 0.97143 0.5912 0.12115 0.0
C1656 C 0.29176 0.98373 0.84137 0.0
C1657 C 0.29694 0.97682 0.81977 0.0
C1658 C 0.30895 0.98454 0.85749 0.0
C1659 C 0.36798 0.96574 0.87101 0.0
H1660 H 0.36859 0.01885 0.90672 0.0
C1661 C 0.44616 0.9945 0.92339 0.0
C1662 C 0.44141 0.00561 0.9433 0.0
C1663 C 0.42821 0.98785 0.90951 0.0
C1664 C 0.36852 0.00371 0.8972 0.0
H1665 H 0.32358 0.96487 0.79781 0.0
H1666 H 0.35385 0.96644 0.82593 0.0
H1667 H 0.33776 0.01304 0.88044 0.0
H1668 H 0.41458 0.01763 0.96501 0.0
H1669 H 0.38329 0.00557 0.94125 0.0
H1670 H 0.39906 0.95664 0.88772 0.0
C1671 C 0.33654 0.97096 0.83061 0.0
C1672 C 0.35079 0.0004 0.88208 0.0
C1673 C 0.3193 0.97017 0.81451 0.0
C1674 C 0.41859 0.00914 0.94964 0.0
C1675 C 0.40072 0.00236 0.93596 0.0
C1676 C 0.38577 0.96905 0.88624 0.0
C1677 C 0.33164 0.97852 0.85221 0.0
C1678 C 0.35028 0.98141 0.86877 0.0
C1679 C 0.40528 0.99228 0.91538 0.0
C1680 C 0.38623 0.9881 0.89953 0.0
H1681 H 0.27453 0.98892 0.84568 0.0
H1682 H 0.30452 0.99013 0.87404 0.0
H1683 H 0.36799 0.95086 0.8611 0.0
H1684 H 0.46367 0.99213 0.91796 0.0
H1685 H 0.43235 0.98031 0.89369 0.0
C1686 C 0.97514 0.31126 0.81143 0.0
C1687 C -0.00573 0.30915 0.79746 0.0
C1688 C 0.97656 0.32349 0.83113 0.0
C1689 C 0.01164 0.36791 0.85614 0.0
H1690 H 0.9745 0.35662 0.90821 0.0
C1691 C 0.01438 0.42535 0.93224 0.0
C1692 C -0.00723 0.43278 0.93942 0.0
C1693 C 0.01624 0.40741 0.91771 0.0
C1694 C 0.985 0.35995 0.89378 0.0
H1695 H 0.03019 0.31684 0.79369 0.0
H1696 H 0.03302 0.33735 0.82837 0.0
H1697 H 0.97486 0.33013 0.87762 0.0
H1698 H 0.95629 0.42631 0.93805 0.0
H1699 H 0.9596 0.39501 0.91294 0.0
H1700 H 0.02166 0.39774 0.87222 0.0
C1701 C 0.01665 0.33035 0.82388 0.0
C1702 C 0.98513 0.34483 0.87618 0.0
C1703 C 0.01512 0.31844 0.80409 0.0
C1704 C 0.9732 0.42112 0.93275 0.0
C1705 C 0.97509 0.40306 0.91845 0.0
C1706 C 0.01169 0.38285 0.87378 0.0
C1707 C -0.00277 0.33364 0.83738 0.0
C1708 C -0.00177 0.34875 0.85696 0.0
C1709 C -0.00343 0.39637 0.91029 0.0
C1710 C -0.00186 0.37923 0.89268 0.0
H1711 H 0.95882 0.30438 0.80659 0.0
H1712 H 0.96116 0.32579 0.84091 0.0
H1713 H 0.02156 0.37186 0.84151 0.0
H1714 H 0.02981 0.43385 0.9372 0.0
H1715 H 0.03306 0.40246 0.91191 0.0
C1716 C 0.70932 0.11213 0.8281 0.0
C1717 C 0.72743 0.09848 0.82135 0.0
C1718 C 0.69215 0.10389 0.84199 0.0
C1719 C 0.66666 0.05146 0.86069 0.0
H1720 H 0.64333 0.08637 0.90976 0.0
C1721 C 0.6112 0.0132 0.92887 0.0
C1722 C 0.59185 0.02511 0.93595 0.0
C1723 C 0.62763 0.02304 0.91537 0.0
C1724 C 0.64956 0.07651 0.89602 0.0
H1725 H 0.74234 0.06592 0.82348 0.0
H1726 H 0.7126 0.05147 0.84789 0.0
H1727 H 0.67202 0.10195 0.88486 0.0
H1728 H 0.57442 0.05655 0.9342 0.0
H1729 H 0.60313 0.07387 0.91058 0.0
H1730 H 0.64439 0.02599 0.87188 0.0
C1731 C 0.71125 0.06837 0.84233 0.0
C1732 C 0.66593 0.08544 0.88171 0.0
C1733 C 0.72833 0.07661 0.82848 0.0
C1734 C 0.5894 0.04717 0.92948 0.0
C1735 C 0.60581 0.05703 0.91586 0.0
C1736 C 0.65039 0.04254 0.875 0.0
C1737 C 0.69293 0.08189 0.84925 0.0
C1738 C 0.67482 0.07292 0.86399 0.0
C1739 C 0.62498 0.04497 0.90845 0.0
C1740 C 0.64182 0.05487 0.89297 0.0
H1741 H 0.70846 0.12911 0.8227 0.0
H1742 H 0.67817 0.11466 0.84683 0.0
H1743 H 0.67275 0.04153 0.84693 0.0
H1744 H 0.61356 0.99616 0.93364 0.0
H1745 H 0.64238 0.0134 0.91025 0.0
C1746 C 0.00165 0.71428 0.81066 0.0
C1747 C 0.01978 0.71539 0.79554 0.0
C1748 C 0.00134 0.6979 0.82688 0.0
C1749 C 0.03874 0.65906 0.85753 0.0
H1750 H 0.98057 0.63312 0.87354 0.0
C1751 C 0.026 0.58686 0.92112 0.0
C1752 C 0.00688 0.58911 0.9351 0.0
C1753 C 0.03 0.60228 0.90423 0.0
C1754 C -0.00306 0.64032 0.86939 0.0
H1755 H 0.05182 0.70064 0.78511 0.0
H1756 H 0.05122 0.67155 0.81338 0.0
H1757 H 0.98233 0.65895 0.84286 0.0
H1758 H 0.9779 0.61004 0.94347 0.0
H1759 H 0.98496 0.63684 0.91442 0.0
H1760 H 0.05324 0.64013 0.88423 0.0
C1761 C 0.03732 0.68342 0.81291 0.0
C1762 C -0.00205 0.65517 0.8518 0.0
C1763 C 0.0376 0.69989 0.79665 0.0
C1764 C -0.00732 0.60771 0.93279 0.0
C1765 C -0.00337 0.62301 0.91606 0.0
C1766 C 0.03773 0.64403 0.87516 0.0
C1767 C 0.01918 0.68226 0.82828 0.0
C1768 C 0.01874 0.66509 0.84589 0.0
C1769 C 0.01483 0.6201 0.90109 0.0
C1770 C 0.0167 0.63488 0.88155 0.0
H1771 H 0.98787 0.7263 0.81016 0.0
H1772 H 0.98731 0.6978 0.83865 0.0
H1773 H 0.05502 0.66648 0.85351 0.0
H1774 H 0.03695 0.57255 0.92227 0.0
H1775 H 0.04418 0.59961 0.89292 0.0
C1776 C 0.16738 0.29127 0.02826 0.0
C1777 C 0.18331 0.29314 0.04549 0.0
C1778 C 0.15162 0.3082 0.02432 0.0
C1779 C 0.12479 0.3578 0.04926 0.0
H1780 H 0.11802 0.3759 0.98792 0.0
C1781 C 0.08765 0.44222 0.023 0.0
C1782 C 0.07555 0.44362 0.0029 0.0
C1783 C 0.09748 0.42229 0.02971 0.0
C1784 C 0.1193 0.37084 0.00511 0.0
H1785 H 0.19549 0.31354 0.07238 0.0
H1786 H 0.16795 0.3434 0.06552 0.0
H1787 H 0.14163 0.34408 -0.00322 0.0
H1788 H 0.0628 0.4249 0.97486 0.0
H1789 H 0.07966 0.39008 0.98671 0.0
H1790 H 0.10264 0.38483 0.05757 0.0
C1791 C 0.16735 0.32881 0.05519 0.0
C1792 C 0.13291 0.35259 0.01019 0.0
C1793 C 0.18315 0.31185 0.05906 0.0
C1794 C 0.07236 0.42443 0.99027 0.0
C1795 C 0.0821 0.40449 -0.00298 0.0
C1796 C 0.11106 0.37606 0.04416 0.0
C1797 C 0.15159 0.32729 0.03759 0.0
C1798 C 0.13601 0.34598 0.03232 0.0
C1799 C 0.09534 0.40331 0.01649 0.0
C1800 C 0.10834 0.38292 0.02202 0.0
H1801 H 0.16733 0.27686 0.01763 0.0
H1802 H 0.13955 0.30642 0.01081 0.0
H1803 H 0.12663 0.35294 0.06646 0.0
H1804 H 0.09041 0.45671 0.03311 0.0
H1805 H 0.10767 0.42204 0.04472 0.0
C1806 C 0.16809 0.73567 0.07151 0.0
C1807 C 0.18656 0.74057 0.05754 0.0
C1808 C 0.15468 0.71705 0.0674 0.0
C1809 C 0.13979 0.67862 0.02203 0.0
H1810 H 0.1192 0.64015 0.06922 0.0
C1811 C 0.10205 0.59462 0.00216 0.0
C1812 C 0.08145 0.58916 0.01271 0.0
C1813 C 0.11498 0.61235 0.00963 0.0
C1814 C 0.1247 0.65087 0.05592 0.0
H1815 H 0.20597 0.73023 0.02874 0.0
H1816 H 0.18296 0.69763 0.02168 0.0
H1817 H 0.14125 0.67316 0.07834 0.0
H1818 H 0.05794 0.59807 0.03891 0.0
H1819 H 0.08085 0.62898 0.05254 0.0
H1820 H 0.12351 0.65642 -0.0004 0.0
C1821 C 0.1784 0.70816 0.03554 0.0
C1822 C 0.13725 0.66978 0.06112 0.0
C1823 C 0.19167 0.72672 0.03963 0.0
C1824 C 0.07425 0.60139 0.03122 0.0
C1825 C 0.08723 0.61921 0.03878 0.0
C1826 C 0.12739 0.65978 0.01686 0.0
C1827 C 0.15961 0.70317 0.04924 0.0
C1828 C 0.1452 0.6837 0.04417 0.0
C1829 C 0.10746 0.62518 0.02768 0.0
C1830 C 0.11996 0.64553 0.03369 0.0
H1831 H 0.16398 0.74626 0.08546 0.0
H1832 H 0.14025 0.71375 0.07816 0.0
H1833 H 0.14513 0.68926 0.0086 0.0
H1834 H 0.10789 0.58544 0.98778 0.0
H1835 H 0.13066 0.61633 0.00095 0.0
C1836 C 0.30284 0.22451 0.00675 0.0
C1837 C 0.29074 0.22678 0.02678 0.0
C1838 C 0.31978 0.20837 0.00446 0.0
C1839 C 0.34425 0.15809 0.03086 0.0
H1840 H 0.39942 0.17624 0.00016 0.0
C1841 C 0.42833 0.10886 0.03661 0.0
C1842 C 0.43872 0.10349 0.01622 0.0
C1843 C 0.41074 0.12448 0.03759 0.0
C1844 C 0.38407 0.17092 0.00865 0.0
H1845 H 0.2862 0.21366 0.05984 0.0
H1846 H 0.31614 0.18569 0.05612 0.0
H1847 H 0.3666 0.20116 0.00195 0.0
H1848 H 0.43968 0.11134 0.98108 0.0
H1849 H 0.40915 0.13892 0.98295 0.0
H1850 H 0.36209 0.12805 0.038 0.0
C1851 C 0.31231 0.19603 0.04197 0.0
C1852 C 0.36518 0.18511 0.00958 0.0
C1853 C 0.29515 0.21203 0.04415 0.0
C1854 C 0.43201 0.11502 -0.00295 0.0
C1855 C 0.41454 0.13083 -0.00191 0.0
C1856 C 0.36324 0.14402 0.03014 0.0
C1857 C 0.32521 0.19435 0.02227 0.0
C1858 C 0.34501 0.17888 0.0207 0.0
C1859 C 0.40334 0.13525 0.01828 0.0
C1860 C 0.38333 0.15032 0.01907 0.0
H1861 H 0.2996 0.23564 0.99307 0.0
H1862 H 0.32893 0.20719 0.98886 0.0
H1863 H 0.32893 0.15259 0.03926 0.0
H1864 H 0.43313 0.1004 0.05174 0.0
H1865 H 0.40264 0.12786 0.05343 0.0
C1866 C 0.85813 0.3145 0.98674 0.0
C1867 C 0.85063 0.3056 0.96653 0.0
C1868 C 0.87894 0.32558 0.98794 0.0
C1869 C 0.91496 0.36012 0.95475 0.0
H1870 H 0.95541 0.35638 0.00567 0.0
C1871 C 0.95562 0.43365 -0.00306 0.0
C1872 C 0.978 0.43226 0.00537 0.0
C1873 C 0.94568 0.41564 0.98649 0.0
C1874 C 0.94466 0.35733 0.99106 0.0
H1875 H 0.8591 0.3008 0.93183 0.0
H1876 H 0.89544 0.32076 0.93381 0.0
H1877 H 0.92723 0.32749 -0.00078 0.0
H1878 H 0.00797 0.41124 0.00844 0.0
H1879 H -0.00988 0.37926 0.99068 0.0
H1880 H 0.93121 0.39079 0.94754 0.0
C1881 C 0.88529 0.31889 0.94874 0.0
C1882 C 0.92842 0.34092 0.98749 0.0
C1883 C 0.86459 0.30747 0.94762 0.0
C1884 C -0.00937 0.41273 0.00223 0.0
C1885 C 0.98048 0.39449 0.99207 0.0
C1886 C 0.93099 0.37667 0.95848 0.0
C1887 C 0.89252 0.32824 0.96887 0.0
C1888 C 0.91284 0.34264 0.96981 0.0
C1889 C 0.95776 0.39571 0.98449 0.0
C1890 C 0.94534 0.37585 0.97717 0.0
H1891 H 0.84771 0.31314 0.00156 0.0
H1892 H 0.88393 0.33289 0.00361 0.0
H1893 H 0.9031 0.36189 0.94104 0.0
H1894 H 0.94552 0.44855 -0.00117 0.0
H1895 H 0.92807 0.41699 0.981 0.0
C1896 C 0.71906 0.81688 -0.00243 0.0
C1897 C 0.73258 0.81496 0.01664 0.0
C1898 C 0.69857 0.82882 -0.00179 0.0
C1899 C 0.66857 0.87241 0.02947 0.0
H1900 H 0.61606 0.85213 0.99594 0.0
C1901 C 0.58594 0.92416 0.02454 0.0
C1902 C 0.57797 0.92759 0.00277 0.0
C1903 C 0.602 0.9076 0.02901 0.0
C1904 C 0.63058 0.85801 0.00538 0.0
H1905 H 0.73568 0.82343 0.05137 0.0
H1906 H 0.69967 0.84446 0.05266 0.0
H1907 H 0.65026 0.82899 -0.00159 0.0
H1908 H 0.57947 0.91527 0.96896 0.0
H1909 H 0.60753 0.88662 0.97672 0.0
H1910 H 0.64911 0.90164 0.03601 0.0
C1911 C 0.70494 0.83699 0.03712 0.0
C1912 C 0.65019 0.84479 0.00674 0.0
C1913 C 0.72547 0.825 0.03644 0.0
C1914 C 0.58533 0.9132 0.98589 0.0
C1915 C 0.60134 0.89664 0.99037 0.0
C1916 C 0.64894 0.88561 0.02813 0.0
C1917 C 0.69122 0.83899 0.018 0.0
C1918 C 0.66961 0.85206 0.01839 0.0
C1919 C 0.61038 0.89409 0.01184 0.0
C1920 C 0.6299 0.87877 0.01567 0.0
H1921 H 0.72431 0.80908 0.98218 0.0
H1922 H 0.68865 0.83033 0.98311 0.0
H1923 H 0.68328 0.8786 0.0384 0.0
H1924 H 0.58046 0.9348 0.038 0.0
H1925 H 0.60834 0.90577 0.0458 0.0
C1926 C 0.82733 0.72395 0.98261 0.0
C1927 C 0.80687 0.71609 0.99195 0.0
C1928 C 0.84634 0.70997 0.98012 0.0
C1929 C 0.86232 0.65096 0.97801 0.0
H1930 H 0.92132 0.66991 0.00013 0.0
C1931 C 0.9372 0.58968 0.98654 0.0
C1932 C 0.94721 0.58982 0.00772 0.0
C1933 C 0.92322 0.60715 0.97962 0.0
C1934 C 0.90499 0.66443 0.99373 0.0
H1935 H 0.79073 0.68754 0.00672 0.0
H1936 H 0.82353 0.66331 0.00214 0.0
H1937 H 0.88976 0.69638 -0.00239 0.0
H1938 H 0.95161 0.60928 0.03768 0.0
H1939 H 0.92723 0.63944 0.02579 0.0
H1940 H 0.87705 0.6188 0.97524 0.0
C1941 C 0.82478 0.6801 0.99627 0.0
C1942 C 0.88698 0.67963 0.99212 0.0
C1943 C 0.80595 0.69403 -0.00111 0.0
C1944 C 0.94401 0.60844 0.02131 0.0
C1945 C 0.93018 0.62591 0.01439 0.0
C1946 C 0.8803 0.6358 0.97956 0.0
C1947 C 0.84517 0.68784 0.98681 0.0
C1948 C 0.86524 0.67285 0.98497 0.0
C1949 C 0.91913 0.62523 0.99371 0.0
C1950 C 0.90162 0.64219 0.98815 0.0
H1951 H 0.82856 0.74081 0.97697 0.0
H1952 H 0.86186 0.71637 0.97278 0.0
H1953 H 0.84583 0.64535 0.97212 0.0
H1954 H 0.93941 0.57581 0.97562 0.0
H1955 H 0.91514 0.60625 0.96346 0.0
C1956 C 0.31074 0.81072 0.03405 0.0
C1957 C 0.28675 0.81089 0.03181 0.0
C1958 C 0.32375 0.82858 0.02707 0.0
C1959 C 0.32342 0.88732 0.01838 0.0
H1960 H 0.37593 0.8751 0.98071 0.0
C1961 C 0.4061 0.93308 0.97422 0.0
C1962 C 0.41593 0.94269 0.99318 0.0
C1963 C 0.38645 0.92013 0.9761 0.0
C1964 C 0.36114 0.87889 0.99092 0.0
H1965 H 0.25769 0.83055 0.0209 0.0
H1966 H 0.2806 0.86223 0.0095 0.0
H1967 H 0.3494 0.84559 0.98983 0.0
H1968 H 0.41168 0.94786 0.0286 0.0
H1969 H 0.37736 0.92554 0.03178 0.0
H1970 H 0.33584 0.92045 0.0203 0.0
C1971 C 0.28916 0.84795 0.01642 0.0
C1972 C 0.34609 0.86195 0.99629 0.0
C1973 C 0.27608 0.82985 0.02308 0.0
C1974 C 0.40468 0.94052 0.01371 0.0
C1975 C 0.3849 0.92784 0.01552 0.0
C1976 C 0.33872 0.90425 0.01327 0.0
C1977 C 0.31313 0.84729 0.01804 0.0
C1978 C 0.32737 0.8659 0.01041 0.0
C1979 C 0.37607 0.91686 -0.0031 0.0
C1980 C 0.35796 0.90008 -0.0002 0.0
H1981 H 0.31958 0.79676 0.04128 0.0
H1982 H 0.34219 0.82784 0.02891 0.0
H1983 H 0.30913 0.89075 0.02935 0.0
H1984 H 0.41427 0.93452 0.95815 0.0
H1985 H 0.37986 0.91201 0.96144 0.0
C1986 C 0.76037 0.2068 0.97271 0.0
C1987 C 0.76576 0.21369 0.95119 0.0
C1988 C 0.74353 0.19091 0.97606 0.0
C1989 C 0.69347 0.16523 0.94953 0.0
H1990 H 0.70375 0.11943 0.99322 0.0
C1991 C 0.62826 0.09574 0.96271 0.0
C1992 C 0.62276 0.09104 0.98491 0.0
C1993 C 0.64714 0.10883 0.95762 0.0
C1994 C 0.70055 0.13219 0.98106 0.0
H1995 H 0.75824 0.20986 0.91627 0.0
H1996 H 0.72869 0.18196 0.922 0.0
H1997 H 0.73344 0.14665 0.98635 0.0
H1998 H 0.6335 0.09546 0.01912 0.0
H1999 H 0.66622 0.11838 0.01025 0.0
H2000 H 0.66047 0.15102 0.94446 0.0
C2001 C 0.73722 0.18889 0.93634 0.0
C2002 C 0.71755 0.14781 0.97715 0.0
C2003 C 0.7541 0.20477 0.93302 0.0
C2004 C 0.63715 0.09888 0.00184 0.0
C2005 C 0.65604 0.11191 -0.00326 0.0
C2006 C 0.67646 0.14965 0.95346 0.0
C2007 C 0.73184 0.18168 0.9579 0.0
C2008 C 0.71411 0.16463 0.96149 0.0
C2009 C 0.66099 0.11743 0.9746 0.0
C2010 C 0.67972 0.13305 0.96942 0.0
H2011 H 0.76929 0.21357 0.98691 0.0
H2012 H 0.73956 0.18596 0.99289 0.0
H2013 H 0.69017 0.17813 0.93754 0.0
H2014 H 0.61755 0.08998 0.94929 0.0
H2015 H 0.6507 0.11255 0.9404 0.0
C2016 C 0.48554 0.70146 0.7849 0.0
C2017 C 0.50223 0.71773 0.78815 0.0
C2018 C 0.48434 0.68328 0.79908 0.0
C2019 C 0.5167 0.6524 0.84248 0.0
H2020 H 0.45617 0.6376 0.86404 0.0
C2021 C 0.50127 0.60679 0.92496 0.0
C2022 C 0.48305 0.59186 0.92634 0.0
C2023 C 0.50477 0.61908 0.90568 0.0
C2024 C 0.47318 0.64122 0.85793 0.0
H2025 H 0.53151 0.72698 0.80815 0.0
H2026 H 0.52914 0.69563 0.83308 0.0
H2027 H 0.46023 0.66456 0.83449 0.0
H2028 H 0.45481 0.5774 0.90813 0.0
H2029 H 0.46096 0.59889 0.87446 0.0
H2030 H 0.52964 0.62947 0.86643 0.0
C2031 C 0.51704 0.69677 0.81951 0.0
C2032 C 0.47552 0.6567 0.84094 0.0
C2033 C 0.51824 0.71492 0.80536 0.0
C2034 C 0.4689 0.58891 0.90769 0.0
C2035 C 0.47236 0.60128 0.88842 0.0
C2036 C 0.51436 0.63695 0.85951 0.0
C2037 C 0.49983 0.68091 0.81681 0.0
C2038 C 0.49732 0.66279 0.83326 0.0
C2039 C 0.49012 0.61678 0.88731 0.0
C2040 C 0.49258 0.63146 0.86771 0.0
H2041 H 0.47288 0.70317 0.77187 0.0
H2042 H 0.47105 0.67123 0.79634 0.0
H2043 H 0.53373 0.6564 0.8367 0.0
H2044 H 0.51256 0.60938 0.93896 0.0
H2045 H 0.51847 0.631 0.90549 0.0
C2046 C 0.36398 0.55953 0.79233 0.0
C2047 C 0.34117 0.56622 0.79496 0.0
C2048 C 0.37766 0.55549 0.8109 0.0
C2049 C 0.38224 0.56605 0.87125 0.0
H2050 H 0.41962 0.51309 0.87064 0.0
C2051 C 0.41875 0.52591 0.95042 0.0
C2052 C 0.44022 0.51539 0.94933 0.0
C2053 C 0.40888 0.53501 0.93141 0.0
C2054 C 0.40964 0.52817 0.87097 0.0
H2055 H 0.31449 0.57429 0.81856 0.0
H2056 H 0.33833 0.567 0.85129 0.0
H2057 H 0.39774 0.52312 0.83781 0.0
H2058 H 0.46875 0.50726 0.92768 0.0
H2059 H 0.45153 0.52328 0.89446 0.0
H2060 H 0.39391 0.57084 0.90462 0.0
C2061 C 0.34581 0.5651 0.83494 0.0
C2062 C 0.39703 0.53389 0.85214 0.0
C2063 C 0.33213 0.56912 0.8163 0.0
C2064 C 0.45204 0.51497 0.929 0.0
C2065 C 0.44215 0.5241 0.90996 0.0
C2066 C 0.3949 0.56033 0.89011 0.0
C2067 C 0.36871 0.55808 0.83244 0.0
C2068 C 0.38297 0.55275 0.85214 0.0
C2069 C 0.42024 0.5338 0.91086 0.0
C2070 C 0.40851 0.54116 0.89027 0.0
H2071 H 0.37122 0.55732 0.7759 0.0
H2072 H 0.39528 0.55038 0.80839 0.0
H2073 H 0.37186 0.58087 0.87165 0.0
H2074 H 0.40922 0.52659 0.96584 0.0
H2075 H 0.39191 0.54219 0.93267 0.0
C2076 C 0.4611 0.27983 0.81855 0.0
C2077 C 0.46542 0.2871 0.79691 0.0
C2078 C 0.46538 0.29367 0.83669 0.0
C2079 C 0.47368 0.3524 0.8516 0.0
H2080 H 0.50303 0.32856 0.90407 0.0
C2081 C 0.51248 0.40765 0.92014 0.0
C2082 C 0.51077 0.40066 0.94232 0.0
C2083 C 0.50527 0.39405 0.90276 0.0
C2084 C 0.49451 0.33546 0.88969 0.0
H2085 H 0.47745 0.31415 0.77688 0.0
H2086 H 0.48514 0.33835 0.80846 0.0
H2087 H 0.49369 0.30421 0.87324 0.0
H2088 H 0.49936 0.37413 0.96359 0.0
H2089 H 0.48648 0.35059 0.93334 0.0
H2090 H 0.47463 0.38368 0.86798 0.0
C2091 C 0.4782 0.32217 0.81159 0.0
C2092 C 0.48917 0.32147 0.87199 0.0
C2093 C 0.47396 0.30831 0.79352 0.0
C2094 C 0.50108 0.38 0.94671 0.0
C2095 C 0.49383 0.36642 0.92934 0.0
C2096 C 0.47899 0.36639 0.86931 0.0
C2097 C 0.47398 0.31504 0.83343 0.0
C2098 C 0.47885 0.32978 0.85264 0.0
C2099 C 0.49611 0.37313 0.90711 0.0
C2100 C 0.48962 0.35813 0.88855 0.0
H2101 H 0.45442 0.26349 0.82145 0.0
H2102 H 0.46172 0.28774 0.85325 0.0
H2103 H 0.46539 0.35931 0.8371 0.0
H2104 H 0.51991 0.42344 0.91614 0.0
H2105 H 0.50752 0.39969 0.88586 0.0
C2106 C 0.67528 0.53812 0.79894 0.0
C2107 C 0.68288 0.52043 0.7858 0.0
C2108 C 0.65306 0.53848 0.80742 0.0
C2109 C 0.60931 0.50001 0.82533 0.0
H2110 H 0.57675 0.55409 0.83919 0.0
C2111 C 0.56106 0.51357 0.90628 0.0
C2112 C 0.5424 0.52822 0.90728 0.0
C2113 C 0.5723 0.50961 0.88623 0.0
C2114 C 0.58522 0.53871 0.83511 0.0
H2115 H 0.67282 0.48983 0.77018 0.0
H2116 H 0.63377 0.4905 0.78494 0.0
H2117 H 0.60738 0.55443 0.81179 0.0
H2118 H 0.51977 0.54895 0.88771 0.0
H2119 H 0.53949 0.54198 0.85256 0.0
H2120 H 0.5876 0.48442 0.84915 0.0
C2121 C 0.64511 0.50401 0.78881 0.0
C2122 C 0.60297 0.53897 0.81957 0.0
C2123 C 0.66738 0.50371 0.78023 0.0
C2124 C 0.53422 0.53768 0.88751 0.0
C2125 C 0.54556 0.53377 0.86739 0.0
C2126 C 0.59151 0.49973 0.84083 0.0
C2127 C 0.63791 0.52112 0.80298 0.0
C2128 C 0.61589 0.51985 0.81526 0.0
C2129 C 0.56517 0.52023 0.86668 0.0
C2130 C 0.57997 0.51928 0.84663 0.0
H2131 H 0.6868 0.55134 0.8033 0.0
H2132 H 0.64822 0.55179 0.81848 0.0
H2133 H 0.61891 0.48498 0.82245 0.0
H2134 H 0.56767 0.50588 0.92119 0.0
H2135 H 0.58747 0.49928 0.88639 0.0
C2136 C 0.51389 0.32273 0.21694 0.0
C2137 C 0.49652 0.30689 0.21592 0.0
C2138 C 0.5127 0.34168 0.20383 0.0
C2139 C 0.48563 0.36194 0.15209 0.0
H2140 H 0.51396 0.41681 0.16961 0.0
C2141 C 0.49476 0.43448 0.09087 0.0
C2142 C 0.51756 0.44141 0.08883 0.0
C2143 C 0.48817 0.42126 0.1088 0.0
C2144 C 0.50586 0.40162 0.16454 0.0
H2145 H 0.46367 0.29904 0.20136 0.0
H2146 H 0.46123 0.33235 0.17891 0.0
H2147 H 0.50961 0.3874 0.19682 0.0
H2148 H 0.55089 0.44141 0.10465 0.0
H2149 H 0.53936 0.41879 0.13598 0.0
H2150 H 0.48222 0.37611 0.11973 0.0
C2151 C 0.47613 0.32991 0.18932 0.0
C2152 C 0.5035 0.3847 0.18007 0.0
C2153 C 0.47745 0.31086 0.20226 0.0
C2154 C 0.53322 0.43616 0.10572 0.0
C2155 C 0.52658 0.42332 0.12376 0.0
C2156 C 0.48779 0.37894 0.13664 0.0
C2157 C 0.49398 0.34536 0.18954 0.0
C2158 C 0.49391 0.36439 0.1739 0.0
C2159 C 0.50417 0.41518 0.12518 0.0
C2160 C 0.49848 0.39874 0.14253 0.0
H2161 H 0.52892 0.32001 0.22712 0.0
H2162 H 0.52697 0.35296 0.20424 0.0
H2163 H 0.47845 0.34649 0.14655 0.0
H2164 H 0.48237 0.43826 0.07807 0.0
H2165 H 0.47074 0.41531 0.10956 0.0
C2166 C 0.70729 0.47159 0.19445 0.0
C2167 C 0.70587 0.48897 0.20985 0.0
C2168 C 0.68951 0.46783 0.17939 0.0
C2169 C 0.65826 0.47597 0.13978 0.0
H2170 H 0.59433 0.48426 0.15532 0.0
C2171 C 0.58923 0.47993 0.07198 0.0
C2172 C 0.57452 0.49816 0.07392 0.0
C2173 C 0.60267 0.47321 0.09 0.0
C2174 C 0.61211 0.48187 0.15071 0.0
H2175 H 0.68438 0.51576 0.22173 0.0
H2176 H 0.6534 0.50914 0.19562 0.0
H2177 H 0.62325 0.48317 0.18456 0.0
H2178 H 0.56142 0.52301 0.09654 0.0
H2179 H 0.58494 0.51161 0.12776 0.0
H2180 H 0.64735 0.47564 0.10593 0.0
C2181 C 0.66813 0.49823 0.19534 0.0
C2182 C 0.62866 0.48126 0.16746 0.0
C2183 C 0.68592 0.50203 0.21033 0.0
C2184 C 0.57263 0.50887 0.09453 0.0
C2185 C 0.58599 0.50219 0.11251 0.0
C2186 C 0.64173 0.47666 0.12304 0.0
C2187 C 0.66987 0.48131 0.17948 0.0
C2188 C 0.65198 0.4789 0.16213 0.0
C2189 C 0.60167 0.48468 0.11029 0.0
C2190 C 0.61852 0.48023 0.12826 0.0
H2191 H 0.72224 0.46097 0.19389 0.0
H2192 H 0.69123 0.4545 0.16754 0.0
H2193 H 0.67609 0.47435 0.13509 0.0
H2194 H 0.59135 0.47165 0.05626 0.0
H2195 H 0.61442 0.45953 0.08779 0.0
C2196 C 0.5448 0.70968 0.18498 0.0
C2197 C 0.55917 0.70419 0.20274 0.0
C2198 C 0.54328 0.6958 0.16646 0.0
C2199 C 0.55304 0.63791 0.14913 0.0
H2200 H 0.54396 0.66191 0.09019 0.0
C2201 C 0.53627 0.58139 0.07331 0.0
C2202 C 0.5168 0.58763 0.06113 0.0
C2203 C 0.54615 0.59607 0.08854 0.0
C2204 C 0.5465 0.65493 0.10654 0.0
H2205 H 0.58349 0.68032 0.2153 0.0
H2206 H 0.58112 0.65605 0.18285 0.0
H2207 H 0.55171 0.68662 0.1212 0.0
H2208 H 0.49332 0.6145 0.05426 0.0
H2209 H 0.51056 0.64001 0.08034 0.0
H2210 H 0.54733 0.60624 0.1345 0.0
C2211 C 0.57076 0.67088 0.1832 0.0
C2212 C 0.55084 0.66911 0.12437 0.0
C2213 C 0.57224 0.6848 0.20172 0.0
C2214 C 0.50835 0.60922 0.06339 0.0
C2215 C 0.51831 0.6239 0.07832 0.0
C2216 C 0.54875 0.62371 0.13127 0.0
C2217 C 0.55615 0.67612 0.16535 0.0
C2218 C 0.55366 0.66085 0.14601 0.0
C2219 C 0.53689 0.61734 0.09161 0.0
C2220 C 0.54491 0.63208 0.10983 0.0
H2221 H 0.53452 0.72458 0.18553 0.0
H2222 H 0.53158 0.70024 0.15325 0.0
H2223 H 0.55488 0.63091 0.16556 0.0
H2224 H 0.54295 0.5648 0.07213 0.0
H2225 H 0.56057 0.59056 0.09841 0.0
C2226 C 0.34721 0.61609 0.20111 0.0
C2227 C 0.3421 0.60126 0.21822 0.0
C2228 C 0.36631 0.61265 0.18758 0.0
C2229 C 0.38985 0.58776 0.15089 0.0
H2230 H 0.44829 0.56138 0.1663 0.0
C2231 C 0.44706 0.55119 0.08303 0.0
C2232 C 0.4567 0.53049 0.08749 0.0
C2233 C 0.43778 0.56405 0.10005 0.0
C2234 C 0.432 0.56868 0.16174 0.0
H2235 H 0.35396 0.57241 0.23595 0.0
H2236 H 0.38727 0.56623 0.21221 0.0
H2237 H 0.42417 0.57739 0.19546 0.0
H2238 H 0.46472 0.50731 0.11379 0.0
H2239 H 0.44773 0.52925 0.14335 0.0
H2240 H 0.39682 0.57817 0.11753 0.0
C2241 C 0.37669 0.58064 0.20932 0.0
C2242 C 0.41826 0.57791 0.17843 0.0
C2243 C 0.35761 0.58416 0.22295 0.0
C2244 C 0.45742 0.5232 0.10964 0.0
C2245 C 0.44787 0.53591 0.12669 0.0
C2246 C 0.40344 0.57844 0.13431 0.0
C2247 C 0.38055 0.59421 0.19082 0.0
C2248 C 0.39685 0.58722 0.1732 0.0
C2249 C 0.43748 0.55632 0.12203 0.0
C2250 C 0.42451 0.56841 0.13953 0.0
H2251 H 0.33559 0.62954 0.1973 0.0
H2252 H 0.36913 0.62367 0.17374 0.0
H2253 H 0.37323 0.59433 0.14632 0.0
H2254 H 0.44591 0.55727 0.06636 0.0
H2255 H 0.43027 0.57984 0.09585 0.0
C2256 C 0.80101 0.4815 0.71467 0.0
C2257 C 0.78937 0.50166 0.71591 0.0
C2258 C 0.82342 0.4806 0.7065 0.0
C2259 C 0.874 0.51503 0.69306 0.0
H2260 H 0.88602 0.46957 0.64931 0.0
C2261 C 0.94269 0.52158 0.6247 0.0
C2262 C 0.95221 0.50215 0.61584 0.0
C2263 C 0.92663 0.52062 0.64189 0.0
C2264 C 0.88326 0.48209 0.66186 0.0
H2265 H 0.79157 0.5367 0.71034 0.0
H2266 H 0.83067 0.53524 0.6957 0.0
H2267 H 0.85014 0.4695 0.66961 0.0
H2268 H 0.95444 0.46674 0.61988 0.0
H2269 H 0.92687 0.46514 0.65019 0.0
H2270 H 0.90696 0.52797 0.68475 0.0
C2271 C 0.8228 0.52013 0.70126 0.0
C2272 C 0.86258 0.48207 0.67348 0.0
C2273 C 0.8004 0.52099 0.70943 0.0
C2274 C 0.9471 0.48199 0.62605 0.0
C2275 C 0.93118 0.48105 0.64333 0.0
C2276 C 0.89476 0.51503 0.68143 0.0
C2277 C 0.83448 0.49988 0.69944 0.0
C2278 C 0.8575 0.49877 0.6889 0.0
C2279 C 0.91992 0.50024 0.65071 0.0
C2280 C 0.89945 0.49879 0.66537 0.0
H2281 H 0.79271 0.46643 0.71978 0.0
H2282 H 0.83202 0.46479 0.70555 0.0
H2283 H 0.87074 0.52793 0.7051 0.0
H2284 H 0.94632 0.53742 0.61731 0.0
H2285 H 0.91831 0.53574 0.64711 0.0
C2286 C 0.49028 0.79268 0.66598 0.0
C2287 C 0.50061 0.79192 0.68694 0.0
C2288 C 0.49433 0.81046 0.65177 0.0
C2289 C 0.53573 0.85539 0.64196 0.0
H2290 H 0.48696 0.88061 0.60634 0.0
C2291 C 0.54703 0.93732 0.59594 0.0
C2292 C 0.53865 0.93884 0.57412 0.0
C2293 C 0.54166 0.91928 0.60924 0.0
C2294 C 0.5008 0.87363 0.61602 0.0
H2295 H 0.52302 0.80875 0.70984 0.0
H2296 H 0.52982 0.84003 0.68533 0.0
H2297 H 0.47893 0.8494 0.63054 0.0
H2298 H 0.51772 0.92266 0.54931 0.0
H2299 H 0.5083 0.89111 0.57263 0.0
H2300 H 0.55756 0.87964 0.6276 0.0
C2301 C 0.5189 0.82688 0.67956 0.0
C2302 C 0.49622 0.85571 0.62988 0.0
C2303 C 0.51488 0.80909 0.69368 0.0
C2304 C 0.52448 0.922 0.56604 0.0
C2305 C 0.51899 0.90396 0.57943 0.0
C2306 C 0.54027 0.87331 0.6282 0.0
C2307 C 0.50879 0.82774 0.65835 0.0
C2308 C 0.51361 0.84647 0.64316 0.0
C2309 C 0.52775 0.90228 0.60111 0.0
C2310 C 0.52284 0.88278 0.6152 0.0
H2311 H 0.47926 0.77947 0.6605 0.0
H2312 H 0.48647 0.81045 0.63549 0.0
H2313 H 0.54966 0.8484 0.65154 0.0
H2314 H 0.55787 0.95004 0.60278 0.0
H2315 H 0.54835 0.91871 0.626 0.0
C2316 C 0.25854 0.55579 0.68969 0.0
C2317 C 0.2504 0.57198 0.70444 0.0
C2318 C 0.24795 0.55268 0.66915 0.0
C2319 C 0.20926 0.57731 0.62785 0.0
H2320 H 0.18624 0.51803 0.62083 0.0
C2321 C 0.13077 0.55753 0.57418 0.0
C2322 C 0.12802 0.53621 0.56554 0.0
C2323 C 0.14991 0.5627 0.58699 0.0
C2324 C 0.19296 0.53455 0.62203 0.0
H2325 H 0.22579 0.59842 0.70887 0.0
H2326 H 0.20743 0.59319 0.67274 0.0
H2327 H 0.21277 0.52613 0.65066 0.0
H2328 H 0.14415 0.50419 0.56188 0.0
H2329 H 0.17804 0.51346 0.58341 0.0
H2330 H 0.18943 0.58582 0.59926 0.0
C2331 C 0.22193 0.58288 0.67712 0.0
C2332 C 0.20812 0.53918 0.63927 0.0
C2333 C 0.23229 0.58577 0.69781 0.0
C2334 C 0.1456 0.52065 0.56864 0.0
C2335 C 0.16496 0.52595 0.58112 0.0
C2336 C 0.19437 0.57261 0.61032 0.0
C2337 C 0.22928 0.56593 0.66286 0.0
C2338 C 0.21594 0.5607 0.64269 0.0
C2339 C 0.16699 0.5468 0.59115 0.0
C2340 C 0.18549 0.55128 0.60756 0.0
H2341 H 0.27238 0.54484 0.69449 0.0
H2342 H 0.25394 0.53953 0.65841 0.0
H2343 H 0.21524 0.59401 0.63005 0.0
H2344 H 0.11756 0.56994 0.57206 0.0
H2345 H 0.15062 0.57886 0.59455 0.0
C2346 C 0.47237 0.19989 0.69707 0.0
C2347 C 0.45486 0.19426 0.71195 0.0
C2348 C 0.47541 0.18812 0.6773 0.0
C2349 C 0.4621 0.13385 0.65207 0.0
H2350 H 0.48906 0.16072 0.59999 0.0
C2351 C 0.48756 0.08388 0.57328 0.0
C2352 C 0.51072 0.08651 0.56759 0.0
C2353 C 0.47695 0.09818 0.58849 0.0
C2354 C 0.48142 0.15302 0.61439 0.0
H2355 H 0.42606 0.17261 0.71729 0.0
H2356 H 0.43086 0.15245 0.68248 0.0
H2357 H 0.4769 0.18385 0.63101 0.0
H2358 H 0.54035 0.10751 0.57224 0.0
H2359 H 0.52176 0.13257 0.59805 0.0
H2360 H 0.46676 0.10299 0.63528 0.0
C2361 C 0.44272 0.16554 0.68632 0.0
C2362 C 0.47459 0.16624 0.63226 0.0
C2363 C 0.43986 0.17716 0.70622 0.0
C2364 C 0.52255 0.10469 0.57634 0.0
C2365 C 0.51188 0.11919 0.59112 0.0
C2366 C 0.46866 0.12066 0.63405 0.0
C2367 C 0.46083 0.17055 0.67177 0.0
C2368 C 0.46543 0.1568 0.65163 0.0
C2369 C 0.48914 0.11583 0.59775 0.0
C2370 C 0.47895 0.13006 0.61528 0.0
H2371 H 0.48439 0.21277 0.70117 0.0
H2372 H 0.4898 0.19228 0.66683 0.0
H2373 H 0.45541 0.12586 0.66673 0.0
H2374 H 0.47768 0.07071 0.56629 0.0
H2375 H 0.45928 0.09539 0.5931 0.0
C2376 C 0.77432 0.5377 0.32519 0.0
C2377 C 0.76807 0.51709 0.31684 0.0
C2378 C 0.78964 0.53917 0.34297 0.0
C2379 C 0.81423 0.50658 0.38918 0.0
H2380 H 0.86334 0.54912 0.38659 0.0
C2381 C 0.89685 0.49926 0.44076 0.0
C2382 C 0.90778 0.51855 0.44796 0.0
C2383 C 0.87712 0.50044 0.42774 0.0
C2384 C 0.84948 0.53743 0.38782 0.0
H2385 H 0.77246 0.4819 0.31999 0.0
H2386 H 0.7995 0.48432 0.35092 0.0
H2387 H 0.83448 0.54861 0.35744 0.0
H2388 H 0.90553 0.55422 0.44841 0.0
H2389 H 0.87094 0.55622 0.42581 0.0
H2390 H 0.82954 0.4951 0.41934 0.0
C2391 C 0.79245 0.49938 0.34409 0.0
C2392 C 0.83296 0.5371 0.37106 0.0
C2393 C 0.77718 0.49795 0.32631 0.0
C2394 C 0.89769 0.53903 0.44297 0.0
C2395 C 0.87795 0.5402 0.4299 0.0
C2396 C 0.83075 0.50691 0.40595 0.0
C2397 C 0.79883 0.52001 0.35267 0.0
C2398 C 0.81537 0.52143 0.37134 0.0
C2399 C 0.86781 0.52093 0.42162 0.0
C2400 C 0.84879 0.5221 0.40527 0.0
H2401 H 0.76727 0.55264 0.31807 0.0
H2402 H 0.79405 0.55529 0.3493 0.0
H2403 H 0.80063 0.49458 0.39011 0.0
H2404 H 0.90404 0.48319 0.44442 0.0
H2405 H 0.86984 0.48527 0.42156 0.0
C2406 C 0.54355 0.79734 0.29855 0.0
C2407 C 0.55976 0.80255 0.28215 0.0
C2408 C 0.54027 0.81122 0.31694 0.0
C2409 C 0.56602 0.85841 0.34791 0.0
H2410 H 0.50296 0.87137 0.36349 0.0
C2411 C 0.53848 0.93664 0.39641 0.0
C2412 C 0.52036 0.935 0.41169 0.0
C2413 C 0.54478 0.91861 0.38318 0.0
C2414 C 0.52069 0.86773 0.35963 0.0
H2415 H 0.58621 0.82571 0.27297 0.0
H2416 H 0.58026 0.84997 0.30459 0.0
H2417 H 0.51135 0.8429 0.33616 0.0
H2418 H 0.49525 0.91275 0.42561 0.0
H2419 H 0.5063 0.88136 0.40263 0.0
H2420 H 0.57527 0.88372 0.371 0.0
C2421 C 0.5701 0.83518 0.30345 0.0
C2422 C 0.52553 0.85132 0.34394 0.0
C2423 C 0.57336 0.82135 0.28514 0.0
C2424 C 0.50922 0.91466 0.41395 0.0
C2425 C 0.51545 0.89668 0.40066 0.0
C2426 C 0.56117 0.87489 0.36354 0.0
C2427 C 0.55319 0.83057 0.31939 0.0
C2428 C 0.54824 0.84663 0.33762 0.0
C2429 C 0.53306 0.89851 0.38485 0.0
C2430 C 0.53843 0.87995 0.3694 0.0
H2431 H 0.53273 0.78305 0.29673 0.0
H2432 H 0.52733 0.80695 0.32904 0.0
H2433 H 0.58374 0.85502 0.34376 0.0
H2434 H 0.54748 0.95202 0.39425 0.0
H2435 H 0.5583 0.92069 0.37107 0.0
C2436 C 0.23374 0.59728 0.31155 0.0
C2437 C 0.24758 0.58154 0.30102 0.0
C2438 C 0.21213 0.59148 0.31958 0.0
C2439 C 0.17947 0.54343 0.33825 0.0
H2440 H 0.12743 0.58317 0.33417 0.0
C2441 C 0.09463 0.52058 0.37911 0.0
C2442 C 0.0852 0.53712 0.39275 0.0
C2443 C 0.11132 0.5257 0.36334 0.0
C2444 C 0.1418 0.57191 0.33548 0.0
H2445 H 0.25008 0.54775 0.28997 0.0
H2446 H 0.21226 0.53744 0.30401 0.0
H2447 H 0.16347 0.59274 0.31607 0.0
H2448 H 0.08433 0.57231 0.39895 0.0
H2449 H 0.11362 0.58114 0.37179 0.0
H2450 H 0.15824 0.52293 0.35818 0.0
C2451 C 0.21805 0.55418 0.30635 0.0
C2452 C 0.16246 0.57741 0.32515 0.0
C2453 C 0.23963 0.56003 0.29831 0.0
C2454 C 0.09134 0.55912 0.38886 0.0
C2455 C 0.10813 0.56421 0.37317 0.0
C2456 C 0.15889 0.53797 0.3486 0.0
C2457 C 0.20408 0.56982 0.31717 0.0
C2458 C 0.18162 0.56337 0.3267 0.0
C2459 C 0.11901 0.54744 0.3609 0.0
C2460 C 0.13989 0.55227 0.34763 0.0
H2461 H 0.23965 0.61402 0.31365 0.0
H2462 H 0.20193 0.60383 0.32808 0.0
H2463 H 0.19398 0.53239 0.34004 0.0
H2464 H 0.09007 0.50349 0.38142 0.0
H2465 H 0.11892 0.51246 0.35373 0.0
C2466 C 0.49819 0.22219 0.3233 0.0
C2467 C 0.51817 0.22786 0.3119 0.0
C2468 C 0.49855 0.20519 0.33889 0.0
C2469 C 0.53106 0.15589 0.35667 0.0
H2470 H 0.49595 0.16383 0.41078 0.0
C2471 C 0.52689 0.08928 0.42595 0.0
C2472 C 0.50462 0.08465 0.43338 0.0
C2473 C 0.53107 0.10772 0.41259 0.0
C2474 C 0.50579 0.16132 0.39573 0.0
H2475 H 0.55413 0.22047 0.30732 0.0
H2476 H 0.55491 0.1906 0.33471 0.0
H2477 H 0.49816 0.19374 0.38404 0.0
H2478 H 0.46943 0.09649 0.43336 0.0
H2479 H 0.47668 0.12834 0.41039 0.0
H2480 H 0.53837 0.12327 0.36833 0.0
C2481 C 0.5389 0.19911 0.33156 0.0
C2482 C 0.507 0.17844 0.38036 0.0
C2483 C 0.53851 0.2162 0.31597 0.0
C2484 C 0.48683 0.09936 0.42787 0.0
C2485 C 0.491 0.11779 0.41477 0.0
C2486 C 0.52986 0.13871 0.37211 0.0
C2487 C 0.51895 0.19355 0.34338 0.0
C2488 C 0.51924 0.17581 0.36041 0.0
C2489 C 0.51308 0.12209 0.40672 0.0
C2490 C 0.51679 0.14108 0.39159 0.0
H2491 H 0.48233 0.23105 0.32031 0.0
H2492 H 0.48278 0.20109 0.34736 0.0
H2493 H 0.54055 0.15327 0.34143 0.0
H2494 H 0.54099 0.07853 0.43005 0.0
H2495 H 0.54834 0.11071 0.40681 0.0
C2496 C 0.69526 0.79445 0.46759 0.0
C2497 C 0.71516 0.79342 0.48048 0.0
C2498 C 0.6804 0.81246 0.46947 0.0
C2499 C 0.67854 0.87049 0.48734 0.0
H2500 H 0.6128 0.86206 0.48514 0.0
C2501 C 0.61556 0.94341 0.49572 0.0
C2502 C 0.59776 0.94406 0.48004 0.0
C2503 C 0.62889 0.92441 0.49832 0.0
C2504 C 0.63112 0.86469 0.48566 0.0
H2505 H 0.73542 0.80982 0.50549 0.0
H2506 H 0.70938 0.84142 0.50899 0.0
H2507 H 0.63832 0.83013 0.48463 0.0
H2508 H 0.57938 0.92493 0.45544 0.0
H2509 H 0.6027 0.8919 0.45986 0.0
H2510 H 0.67137 0.90503 0.48806 0.0
C2511 C 0.70528 0.82852 0.49725 0.0
C2512 C 0.64575 0.8464 0.48533 0.0
C2513 C 0.72012 0.81047 0.49534 0.0
C2514 C 0.59299 0.92501 0.46765 0.0
C2515 C 0.60629 0.90601 0.47027 0.0
C2516 C 0.66392 0.88877 0.48768 0.0
C2517 C 0.68523 0.82973 0.48431 0.0
C2518 C 0.66964 0.8491 0.4859 0.0
C2519 C 0.62466 0.90562 0.48534 0.0
C2520 C 0.64005 0.88609 0.4866 0.0
H2521 H 0.69125 0.78137 0.456 0.0
H2522 H 0.66532 0.81302 0.45903 0.0
H2523 H 0.69686 0.87316 0.4875 0.0
H2524 H 0.61959 0.95776 0.50564 0.0
H2525 H 0.64269 0.92451 0.51032 0.0
C2526 C 0.67479 0.23981 0.48757 0.0
C2527 C 0.69716 0.23951 0.49586 0.0
C2528 C 0.65986 0.22259 0.49241 0.0
C2529 C 0.66003 0.16415 0.50843 0.0
H2530 H 0.59496 0.17448 0.51657 0.0
C2531 C 0.59737 0.09184 0.51418 0.0
C2532 C 0.57896 0.09364 0.49935 0.0
C2533 C 0.61051 0.11031 0.51945 0.0
C2534 C 0.6131 0.17134 0.51438 0.0
H2535 H 0.72174 0.22163 0.5158 0.0
H2536 H 0.69559 0.19146 0.52455 0.0
H2537 H 0.621 0.20569 0.51453 0.0
H2538 H 0.55909 0.11618 0.47917 0.0
H2539 H 0.58186 0.14838 0.4883 0.0
H2540 H 0.65209 0.12986 0.50764 0.0
C2541 C 0.68954 0.20479 0.51415 0.0
C2542 C 0.62801 0.1892 0.51312 0.0
C2543 C 0.70446 0.22203 0.50926 0.0
C2544 C 0.57313 0.1144 0.4908 0.0
C2545 C 0.58612 0.13286 0.49613 0.0
C2546 C 0.64513 0.14629 0.50974 0.0
C2547 C 0.66708 0.20478 0.50565 0.0
C2548 C 0.65158 0.18584 0.50957 0.0
C2549 C 0.60541 0.13091 0.50995 0.0
C2550 C 0.62143 0.14969 0.51218 0.0
H2551 H 0.66895 0.25321 0.47711 0.0
H2552 H 0.64284 0.22295 0.48527 0.0
H2553 H 0.67803 0.16094 0.50544 0.0
H2554 H 0.60266 0.07594 0.52036 0.0
H2555 H 0.62522 0.1083 0.53022 0.0
C2556 C 0.80884 0.69723 0.49339 0.0
C2557 C 0.81727 0.71519 0.4813 0.0
C2558 C 0.82169 0.67786 0.4952 0.0
C2559 C 0.87048 0.64672 0.47119 0.0
H2560 H 0.87682 0.62421 0.53105 0.0
C2561 C 0.94286 0.58685 0.49788 0.0
C2562 C 0.93802 0.57142 0.51446 0.0
C2563 C 0.92629 0.6023 0.49149 0.0
C2564 C 0.87494 0.62995 0.51414 0.0
H2565 H 0.84526 0.72656 0.46073 0.0
H2566 H 0.86785 0.69278 0.46407 0.0
H2567 H 0.85098 0.65484 0.52396 0.0
H2568 H 0.91202 0.55938 0.53691 0.0
H2569 H 0.88284 0.58588 0.52543 0.0
H2570 H 0.8947 0.62189 0.46143 0.0
C2571 C 0.85126 0.69365 0.47209 0.0
C2572 C 0.86012 0.64757 0.51009 0.0
C2573 C 0.83845 0.71307 0.47037 0.0
C2574 C 0.91615 0.57119 0.52409 0.0
C2575 C 0.89952 0.58645 0.51759 0.0
C2576 C 0.88526 0.62896 0.47521 0.0
C2577 C 0.84322 0.67599 0.48487 0.0
C2578 C 0.85787 0.6563 0.48863 0.0
C2579 C 0.90454 0.60256 0.50161 0.0
C2580 C 0.88781 0.62048 0.49679 0.0
H2581 H 0.79265 0.6984 0.50212 0.0
H2582 H 0.81494 0.66443 0.50497 0.0
H2583 H 0.86893 0.65298 0.45443 0.0
H2584 H 0.95983 0.58784 0.49085 0.0
H2585 H 0.93091 0.61469 0.47942 0.0
C2586 C 0.31536 0.80478 0.55461 0.0
C2587 C 0.2956 0.81444 0.56395 0.0
C2588 C 0.33592 0.81649 0.55359 0.0
C2589 C 0.35707 0.87294 0.5516 0.0
H2590 H 0.41558 0.84849 0.56988 0.0
C2591 C 0.44 0.92175 0.54076 0.0
C2592 C 0.45322 0.92374 0.56014 0.0
C2593 C 0.42272 0.90601 0.53939 0.0
C2594 C 0.39935 0.85547 0.56465 0.0
H2595 H 0.2824 0.84361 0.58055 0.0
H2596 H 0.31801 0.86409 0.57828 0.0
H2597 H 0.38103 0.82581 0.57187 0.0
H2598 H 0.45967 0.90983 0.59269 0.0
H2599 H 0.42958 0.88223 0.5902 0.0
H2600 H 0.37511 0.90264 0.54467 0.0
C2601 C 0.3175 0.84757 0.57152 0.0
C2602 C 0.37965 0.84248 0.56568 0.0
C2603 C 0.29708 0.83584 0.57274 0.0
C2604 C 0.44972 0.90877 0.57757 0.0
C2605 C 0.43254 0.8929 0.57611 0.0
C2606 C 0.37673 0.8858 0.55033 0.0
C2607 C 0.33705 0.83814 0.5617 0.0
C2608 C 0.35827 0.85124 0.55948 0.0
C2609 C 0.41842 0.8918 0.55727 0.0
C2610 C 0.39804 0.87732 0.55708 0.0
H2611 H 0.3148 0.78842 0.54749 0.0
H2612 H 0.35072 0.80887 0.54584 0.0
H2613 H 0.34085 0.88004 0.54649 0.0
H2614 H 0.44235 0.93291 0.52697 0.0
H2615 H 0.4123 0.90533 0.52453 0.0
C2616 C 0.20629 0.29676 0.47378 0.0
C2617 C 0.22425 0.29867 0.48903 0.0
C2618 C 0.18892 0.31271 0.47312 0.0
C2619 C 0.16258 0.35843 0.50542 0.0
H2620 H 0.14457 0.38007 0.44746 0.0
C2621 C 0.11559 0.44132 0.49296 0.0
C2622 C 0.0993 0.44308 0.47587 0.0
C2623 C 0.12846 0.42204 0.49561 0.0
C2624 C 0.14907 0.37399 0.46378 0.0
H2625 H 0.23836 0.3181 0.51576 0.0
H2626 H 0.20812 0.34615 0.51463 0.0
H2627 H 0.17138 0.34938 0.45019 0.0
H2628 H 0.08311 0.42559 0.44872 0.0
H2629 H 0.10541 0.39185 0.45351 0.0
H2630 H 0.1405 0.38329 0.51901 0.0
C2631 C 0.20715 0.33231 0.50333 0.0
C2632 C 0.16448 0.35638 0.46534 0.0
C2633 C 0.22451 0.31637 0.50393 0.0
C2634 C 0.09564 0.42484 0.46195 0.0
C2635 C 0.10852 0.40554 0.46462 0.0
C2636 C 0.14712 0.37604 0.50386 0.0
C2637 C 0.18926 0.33081 0.48775 0.0
C2638 C 0.17165 0.34855 0.48618 0.0
C2639 C 0.12535 0.40402 0.48126 0.0
C2640 C 0.1404 0.38422 0.48301 0.0
H2641 H 0.20585 0.28312 0.46219 0.0
H2642 H 0.17526 0.31092 0.46111 0.0
H2643 H 0.16746 0.35258 0.52172 0.0
H2644 H 0.11884 0.45504 0.50399 0.0
H2645 H 0.14143 0.42157 0.50844 0.0
C2646 C 0.31684 0.19974 0.47196 0.0
C2647 C 0.30007 0.19588 0.48824 0.0
C2648 C 0.33544 0.18525 0.46946 0.0
C2649 C 0.35212 0.12779 0.48155 0.0
H2650 H 0.41454 0.14804 0.47494 0.0
C2651 C 0.42668 0.06592 0.48151 0.0
C2652 C 0.44384 0.07134 0.4968 0.0
C2653 C 0.41084 0.0819 0.47459 0.0
C2654 C 0.39718 0.14213 0.47662 0.0
H2655 H 0.29044 0.17461 0.51552 0.0
H2656 H 0.3227 0.14948 0.51118 0.0
H2657 H 0.38309 0.17479 0.47578 0.0
H2658 H 0.45885 0.09783 0.51588 0.0
H2659 H 0.43135 0.12558 0.50403 0.0
H2660 H 0.36609 0.09528 0.48345 0.0
C2661 C 0.32123 0.16332 0.49995 0.0
C2662 C 0.37916 0.15744 0.47697 0.0
C2663 C 0.30278 0.17777 0.50249 0.0
C2664 C 0.44576 0.09323 0.50403 0.0
C2665 C 0.43008 0.10918 0.49708 0.0
C2666 C 0.37006 0.11251 0.48114 0.0
C2667 C 0.33755 0.16662 0.48315 0.0
C2668 C 0.3565 0.15046 0.48011 0.0
C2669 C 0.41194 0.10357 0.48288 0.0
C2670 C 0.39287 0.11952 0.47928 0.0
H2671 H 0.31515 0.21349 0.46065 0.0
H2672 H 0.34776 0.18823 0.45638 0.0
H2673 H 0.33479 0.12186 0.48357 0.0
H2674 H 0.42449 0.04909 0.47618 0.0
H2675 H 0.39715 0.07708 0.46352 0.0
C2676 C 0.82671 0.30143 0.48387 0.0
C2677 C 0.80542 0.30349 0.47317 0.0
C2678 C 0.84186 0.31904 0.48459 0.0
C2679 C 0.84414 0.37919 0.48197 0.0
H2680 H 0.90942 0.36831 0.47645 0.0
C2681 C 0.91105 0.44798 0.49464 0.0
C2682 C 0.9291 0.44228 0.50901 0.0
C2683 C 0.89643 0.4318 0.4863 0.0
C2684 C 0.89124 0.37161 0.47805 0.0
H2685 H 0.78338 0.32577 0.45481 0.0
H2686 H 0.80994 0.35678 0.45622 0.0
H2687 H 0.88255 0.33862 0.46914 0.0
H2688 H 0.94647 0.41503 0.52519 0.0
H2689 H 0.92104 0.38694 0.51074 0.0
H2690 H 0.85291 0.41206 0.49144 0.0
C2691 C 0.81479 0.34143 0.46407 0.0
C2692 C 0.87586 0.35461 0.47389 0.0
C2693 C 0.79959 0.32371 0.46329 0.0
C2694 C 0.93271 0.42001 0.51421 0.0
C2695 C 0.91821 0.40386 0.5058 0.0
C2696 C 0.85956 0.39623 0.48612 0.0
C2697 C 0.83612 0.33925 0.47471 0.0
C2698 C 0.85216 0.35805 0.47636 0.0
C2699 C 0.89971 0.40958 0.49201 0.0
C2700 C 0.8833 0.39245 0.48476 0.0
H2701 H 0.83153 0.2863 0.49216 0.0
H2702 H 0.8579 0.31697 0.49339 0.0
H2703 H 0.826 0.38232 0.48418 0.0
H2704 H 0.90789 0.46499 0.49019 0.0
H2705 H 0.88247 0.43667 0.47552 0.0
C2706 C 0.20567 0.71642 0.54066 0.0
C2707 C 0.21339 0.71824 0.56255 0.0
C2708 C 0.18808 0.70184 0.53539 0.0
C2709 C 0.15944 0.65165 0.55554 0.0
H2710 H 0.11508 0.66704 0.51021 0.0
C2711 C 0.08655 0.59305 0.52692 0.0
C2712 C 0.0847 0.5907 0.50378 0.0
C2713 C 0.1005 0.60937 0.53614 0.0
C2714 C 0.12737 0.66249 0.52287 0.0
H2715 H 0.20909 0.70684 0.59626 0.0
H2716 H 0.17797 0.68141 0.5872 0.0
H2717 H 0.14253 0.69441 0.52268 0.0
H2718 H 0.09571 0.60424 0.47218 0.0
H2719 H 0.1196 0.63263 0.48817 0.0
H2720 H 0.14426 0.61959 0.5555 0.0
C2721 C 0.1856 0.69098 0.574 0.0
C2722 C 0.14316 0.67815 0.52998 0.0
C2723 C 0.20325 0.70558 0.57924 0.0
C2724 C 0.09667 0.60544 0.4901 0.0
C2725 C 0.11034 0.62184 0.49925 0.0
C2726 C 0.14353 0.63599 0.54849 0.0
C2727 C 0.17787 0.68886 0.55197 0.0
C2728 C 0.15973 0.67279 0.54604 0.0
C2729 C 0.11251 0.62394 0.52236 0.0
C2730 C 0.12767 0.64112 0.53172 0.0
H2731 H 0.21345 0.72603 0.52757 0.0
H2732 H 0.18286 0.70039 0.5182 0.0
H2733 H 0.17208 0.6469 0.5678 0.0
H2734 H 0.0772 0.58248 0.53793 0.0
H2735 H 0.10168 0.61075 0.55403 0.0
loop_
_geom_bond_atom_site_label_1
_geom_bond_atom_site_label_2
_geom_bond_distance
_geom_bond_site_symmetry_2
_ccdc_geom_bond_type
H0 C3 0.929 . S
H1 C6 0.929 . S
H2 C8 0.930 . S
C3 H0 0.929 . S
C3 C4 1.398 . S
C3 C5 1.396 . S
C4 C3 1.398 . S
C4 C8 1.407 . S
C5 C3 1.396 . S
C5 C6 1.394 . S
C6 H1 0.929 . S
C6 C5 1.394 . S
C6 C7 1.382 . S
C7 C6 1.382 . S
C7 C8 1.392 . S
C7 N9 1.420 . S
C8 H2 0.930 . S
C8 C4 1.407 . S
C8 C7 1.392 . S
N9 C7 1.420 . S
N9 C10 1.244 . S
C10 N9 1.244 . S
H11 C14 0.929 . S
H12 C17 0.929 . S
H13 C19 0.930 . S
C14 H11 0.929 . S
C14 C15 1.398 . S
C14 C16 1.396 . S
C15 C14 1.398 . S
C15 C19 1.407 . S
C16 C14 1.396 . S
C16 C17 1.394 . S
C17 H12 0.929 . S
C17 C16 1.394 . S
C17 C18 1.382 . S
C18 C17 1.382 . S
C18 C19 1.392 . S
C18 N20 1.420 . S
C19 H13 0.930 . S
C19 C15 1.407 . S
C19 C18 1.392 . S
N20 C18 1.420 . S
N20 C21 1.244 . S
C21 N20 1.244 . S
H22 C25 0.929 . S
H23 C28 0.929 . S
H24 C30 0.930 . S
C25 H22 0.929 . S
C25 C26 1.398 . S
C25 C27 1.396 . S
C26 C25 1.398 . S
C26 C30 1.407 . S
C27 C25 1.396 . S
C27 C28 1.394 . S
C28 H23 0.929 . S
C28 C27 1.394 . S
C28 C29 1.382 . S
C29 C28 1.382 . S
C29 C30 1.392 . S
C29 N31 1.420 . S
C30 H24 0.930 . S
C30 C26 1.407 . S
C30 C29 1.392 . S
N31 C29 1.420 . S
N31 C32 1.244 . S
C32 N31 1.244 . S
H33 C36 0.929 . S
H34 C39 0.929 . S
H35 C41 0.930 . S
C36 H33 0.929 . S
C36 C37 1.398 . S
C36 C38 1.396 . S
C37 C36 1.398 . S
C37 C41 1.407 1_545 S
C38 C36 1.396 . S
C38 C39 1.394 1_545 S
C39 H34 0.929 . S
C39 C38 1.394 1_565 S
C39 C40 1.382 . S
C40 C39 1.382 . S
C40 C41 1.392 . S
C40 N42 1.420 . S
C41 H35 0.930 . S
C41 C37 1.407 1_565 S
C41 C40 1.392 . S
N42 C40 1.420 . S
N42 C43 1.244 1_565 S
C43 N42 1.244 1_545 S
H44 C47 0.935 . S
H45 C50 0.929 . S
H46 C52 0.930 . S
C47 H44 0.935 . S
C47 C48 1.395 1_655 S
C47 C49 1.394 1_655 S
C48 C47 1.395 1_455 S
C48 C52 1.407 . S
C49 C47 1.394 1_455 S
C49 C50 1.401 . S
C50 H45 0.929 . S
C50 C49 1.401 . S
C50 C51 1.382 . S
C51 C50 1.382 . S
C51 C52 1.392 . S
C51 N53 1.420 . S
C52 H46 0.930 . S
C52 C48 1.407 . S
C52 C51 1.392 . S
N53 C51 1.420 . S
N53 C54 1.244 1_455 S
C54 N53 1.244 1_655 S
H55 C58 0.929 . S
H56 C61 0.929 . S
H57 C63 0.930 . S
C58 H55 0.929 . S
C58 C59 1.398 . S
C58 C60 1.396 . S
C59 C58 1.398 . S
C59 C63 1.407 . S
C60 C58 1.396 . S
C60 C61 1.394 . S
C61 H56 0.929 . S
C61 C60 1.394 . S
C61 C62 1.382 . S
C62 C61 1.382 . S
C62 C63 1.392 . S
C62 N64 1.420 . S
C63 H57 0.930 . S
C63 C59 1.407 . S
C63 C62 1.392 . S
N64 C62 1.420 . S
N64 C65 1.244 . S
C65 N64 1.244 . S
H66 C69 0.929 . S
H67 C72 0.929 . S
H68 C74 0.930 . S
C69 H66 0.929 . S
C69 C70 1.398 . S
C69 C71 1.396 . S
C70 C69 1.398 . S
C70 C74 1.407 . S
C71 C69 1.396 . S
C71 C72 1.394 . S
C72 H67 0.929 . S
C72 C71 1.394 . S
C72 C73 1.382 . S
C73 C72 1.382 . S
C73 C74 1.392 . S
C73 N75 1.420 . S
C74 H68 0.930 . S
C74 C70 1.407 . S
C74 C73 1.392 . S
N75 C73 1.420 . S
N75 C76 1.244 . S
C76 N75 1.244 . S
H77 C80 0.929 . S
H78 C83 0.929 . S
H79 C85 0.930 . S
C80 H77 0.929 . S
C80 C81 1.398 . S
C80 C82 1.396 . S
C81 C80 1.398 . S
C81 C85 1.407 . S
C82 C80 1.396 . S
C82 C83 1.394 . S
C83 H78 0.929 . S
C83 C82 1.394 . S
C83 C84 1.382 . S
C84 C83 1.382 . S
C84 C85 1.392 . S
C84 N86 1.420 . S
C85 H79 0.930 . S
C85 C81 1.407 . S
C85 C84 1.392 . S
N86 C84 1.420 . S
N86 C87 1.244 . S
C87 N86 1.244 . S
H88 C91 0.929 . S
H89 C94 0.929 . S
H90 C96 0.930 . S
C91 H88 0.929 . S
C91 C92 1.398 . S
C91 C93 1.396 . S
C92 C91 1.398 . S
C92 C96 1.407 . S
C93 C91 1.396 . S
C93 C94 1.394 . S
C94 H89 0.929 . S
C94 C93 1.394 . S
C94 C95 1.382 . S
C95 C94 1.382 . S
C95 C96 1.392 . S
C95 N97 1.420 . S
C96 H90 0.930 . S
C96 C92 1.407 . S
C96 C95 1.392 . S
N97 C95 1.420 . S
N97 C98 1.244 . S
C98 N97 1.244 . S
H99 C102 0.929 . S
H100 C105 0.929 . S
H101 C107 0.930 . S
C102 H99 0.929 . S
C102 C103 1.398 . S
C102 C104 1.396 . S
C103 C102 1.398 . S
C103 C107 1.407 . S
C104 C102 1.396 . S
C104 C105 1.394 . S
C105 H100 0.929 . S
C105 C104 1.394 . S
C105 C106 1.382 . S
C106 C105 1.382 . S
C106 C107 1.392 . S
C106 N108 1.420 . S
C107 H101 0.930 . S
C107 C103 1.407 . S
C107 C106 1.392 . S
N108 C106 1.420 . S
N108 C109 1.244 . S
C109 N108 1.244 . S
H110 C113 0.929 . S
H111 C116 0.929 . S
H112 C118 0.930 . S
C113 H110 0.929 . S
C113 C114 1.395 1_554 S
C113 C115 1.396 1_554 S
C114 C113 1.395 1_556 S
C114 C118 1.414 . S
C115 C113 1.396 1_556 S
C115 C116 1.393 . S
C116 H111 0.929 . S
C116 C115 1.393 . S
C116 C117 1.382 . S
C117 C116 1.382 . S
C117 C118 1.392 . S
C117 N119 1.420 . S
C118 H112 0.930 . S
C118 C114 1.414 . S
C118 C117 1.392 . S
N119 C117 1.420 . S
N119 C120 1.244 1_556 S
C120 N119 1.244 1_554 S
H121 C124 0.936 . S
H122 C127 0.929 . S
H123 C129 0.930 . S
C124 H121 0.936 . S
C124 C125 1.395 1_556 S
C124 C126 1.393 1_556 S
C125 C124 1.395 1_554 S
C125 C129 1.407 . S
C126 C124 1.393 1_554 S
C126 C127 1.394 . S
C127 H122 0.929 . S
C127 C126 1.394 . S
C127 C128 1.382 . S
C128 C127 1.382 . S
C128 C129 1.392 . S
C128 N130 1.420 . S
C129 H123 0.930 . S
C129 C125 1.407 . S
C129 C128 1.392 . S
N130 C128 1.420 . S
N130 C131 1.244 . S
C131 N130 1.244 . S
H132 C135 0.929 . S
H133 C138 0.929 . S
H134 C140 0.930 . S
C135 H132 0.929 . S
C135 C136 1.398 . S
C135 C137 1.396 . S
C136 C135 1.398 . S
C136 C140 1.407 . S
C137 C135 1.396 . S
C137 C138 1.394 . S
C138 H133 0.929 . S
C138 C137 1.394 . S
C138 C139 1.382 . S
C139 C138 1.382 . S
C139 C140 1.392 . S
C139 N141 1.420 . S
C140 H134 0.930 . S
C140 C136 1.407 . S
C140 C139 1.392 . S
N141 C139 1.420 . S
N141 C142 1.244 . S
C142 N141 1.244 . S
H143 C146 0.929 . S
H144 C149 0.929 . S
H145 C151 0.930 . S
C146 H143 0.929 . S
C146 C147 1.398 . S
C146 C148 1.396 . S
C147 C146 1.398 . S
C147 C151 1.407 . S
C148 C146 1.396 . S
C148 C149 1.394 . S
C149 H144 0.929 . S
C149 C148 1.394 . S
C149 C150 1.382 . S
C150 C149 1.382 . S
C150 C151 1.392 . S
C150 N152 1.420 . S
C151 H145 0.930 . S
C151 C147 1.407 . S
C151 C150 1.392 . S
N152 C150 1.420 . S
N152 C153 1.244 . S
C153 N152 1.244 . S
H154 C157 0.929 . S
H155 C160 0.929 . S
H156 C162 0.930 . S
C157 H154 0.929 . S
C157 C158 1.398 . S
C157 C159 1.396 . S
C158 C157 1.398 . S
C158 C162 1.407 . S
C159 C157 1.396 . S
C159 C160 1.394 . S
C160 H155 0.929 . S
C160 C159 1.394 . S
C160 C161 1.382 . S
C161 C160 1.382 . S
C161 C162 1.392 . S
C161 N163 1.420 . S
C162 H156 0.930 . S
C162 C158 1.407 . S
C162 C161 1.392 . S
N163 C161 1.420 . S
N163 C164 1.244 . S
C164 N163 1.244 . S
H165 C168 0.929 . S
H166 C171 0.929 . S
H167 C173 0.930 . S
C168 H165 0.929 . S
C168 C169 1.398 . S
C168 C170 1.396 . S
C169 C168 1.398 . S
C169 C173 1.407 . S
C170 C168 1.396 . S
C170 C171 1.394 . S
C171 H166 0.929 . S
C171 C170 1.394 . S
C171 C172 1.382 . S
C172 C171 1.382 . S
C172 C173 1.392 . S
C172 N174 1.420 . S
C173 H167 0.930 . S
C173 C169 1.407 . S
C173 C172 1.392 . S
N174 C172 1.420 . S
N174 C175 1.244 . S
C175 N174 1.244 . S
H176 C179 0.929 . S
H177 C182 0.929 . S
H178 C184 0.930 . S
C179 H176 0.929 . S
C179 C180 1.398 . S
C179 C181 1.396 . S
C180 C179 1.398 . S
C180 C184 1.407 . S
C181 C179 1.396 . S
C181 C182 1.394 . S
C182 H177 0.929 . S
C182 C181 1.394 . S
C182 C183 1.382 . S
C183 C182 1.382 . S
C183 C184 1.392 . S
C183 N185 1.420 . S
C184 H178 0.930 . S
C184 C180 1.407 . S
C184 C183 1.392 . S
N185 C183 1.420 . S
N185 C186 1.244 . S
C186 N185 1.244 . S
H187 C190 0.929 . S
H188 C193 0.929 . S
H189 C195 0.930 . S
C190 H187 0.929 . S
C190 C191 1.398 . S
C190 C192 1.396 . S
C191 C190 1.398 . S
C191 C195 1.407 . S
C192 C190 1.396 . S
C192 C193 1.394 . S
C193 H188 0.929 . S
C193 C192 1.394 . S
C193 C194 1.382 . S
C194 C193 1.382 . S
C194 C195 1.392 . S
C194 N196 1.420 . S
C195 H189 0.930 . S
C195 C191 1.407 . S
C195 C194 1.392 . S
N196 C194 1.420 . S
N196 C197 1.244 . S
C197 N196 1.244 . S
H198 C201 0.929 . S
H199 C204 0.929 . S
H200 C206 0.930 . S
C201 H198 0.929 . S
C201 C202 1.398 . S
C201 C203 1.396 . S
C202 C201 1.398 . S
C202 C206 1.407 . S
C203 C201 1.396 . S
C203 C204 1.394 . S
C204 H199 0.929 . S
C204 C203 1.394 . S
C204 C205 1.382 . S
C205 C204 1.382 . S
C205 C206 1.392 . S
C205 N207 1.420 . S
C206 H200 0.930 . S
C206 C202 1.407 . S
C206 C205 1.392 . S
N207 C205 1.420 . S
N207 C208 1.244 . S
C208 N207 1.244 . S
H209 C212 0.929 . S
H210 C215 0.929 . S
H211 C217 0.930 . S
C212 H209 0.929 . S
C212 C213 1.398 . S
C212 C214 1.396 . S
C213 C212 1.398 . S
C213 C217 1.407 . S
C214 C212 1.396 . S
C214 C215 1.394 . S
C215 H210 0.929 . S
C215 C214 1.394 . S
C215 C216 1.382 . S
C216 C215 1.382 . S
C216 C217 1.392 . S
C216 N218 1.420 . S
C217 H211 0.930 . S
C217 C213 1.407 . S
C217 C216 1.392 . S
N218 C216 1.420 . S
N218 C219 1.244 . S
C219 N218 1.244 . S
H220 C223 0.929 . S
H221 C226 0.929 . S
H222 C228 0.930 . S
C223 H220 0.929 . S
C223 C224 1.398 . S
C223 C225 1.396 . S
C224 C223 1.398 . S
C224 C228 1.407 . S
C225 C223 1.396 . S
C225 C226 1.394 . S
C226 H221 0.929 . S
C226 C225 1.394 . S
C226 C227 1.382 . S
C227 C226 1.382 . S
C227 C228 1.392 . S
C227 N229 1.420 . S
C228 H222 0.930 . S
C228 C224 1.407 . S
C228 C227 1.392 . S
N229 C227 1.420 . S
N229 C230 1.244 . S
C230 N229 1.244 . S
H231 C234 0.929 . S
H232 C237 0.929 . S
H233 C239 0.930 . S
C234 H231 0.929 . S
C234 C235 1.398 . S
C234 C236 1.396 . S
C235 C234 1.398 . S
C235 C239 1.407 . S
C236 C234 1.396 . S
C236 C237 1.394 . S
C237 H232 0.929 . S
C237 C236 1.394 . S
C237 C238 1.382 . S
C238 C237 1.382 . S
C238 C239 1.392 . S
C238 N240 1.420 . S
C239 H233 0.930 . S
C239 C235 1.407 . S
C239 C238 1.392 . S
N240 C238 1.420 . S
N240 C241 1.244 . S
C241 N240 1.244 . S
H242 C245 0.929 . S
H243 C248 0.929 . S
H244 C250 0.930 . S
C245 H242 0.929 . S
C245 C246 1.398 . S
C245 C247 1.396 . S
C246 C245 1.398 . S
C246 C250 1.407 . S
C247 C245 1.396 . S
C247 C248 1.394 . S
C248 H243 0.929 . S
C248 C247 1.394 . S
C248 C249 1.382 . S
C249 C248 1.382 . S
C249 C250 1.392 . S
C249 N251 1.420 . S
C250 H244 0.930 . S
C250 C246 1.407 . S
C250 C249 1.392 . S
N251 C249 1.420 . S
N251 C252 1.244 . S
C252 N251 1.244 . S
H253 C256 0.929 . S
H254 C259 0.929 . S
H255 C261 0.930 . S
C256 H253 0.929 . S
C256 C257 1.398 . S
C256 C258 1.396 . S
C257 C256 1.398 . S
C257 C261 1.407 . S
C258 C256 1.396 . S
C258 C259 1.394 . S
C259 H254 0.929 . S
C259 C258 1.394 . S
C259 C260 1.382 . S
C260 C259 1.382 . S
C260 C261 1.392 . S
C260 N262 1.420 . S
C261 H255 0.930 . S
C261 C257 1.407 . S
C261 C260 1.392 . S
N262 C260 1.420 . S
N262 C263 1.244 . S
C263 N262 1.244 . S
Zn264 O266 1.933 1_565 S
Zn264 O284 1.985 1_465 S
Zn264 O295 1.955 . S
Zn265 O266 1.896 1_655 S
Zn265 O285 1.999 . S
Zn265 O301 1.930 1_655 S
Zn265 O308 2.000 . S
O266 Zn264 1.933 1_545 S
O266 Zn265 1.896 1_455 S
O266 H267 0.841 . S
H267 O266 0.841 . S
C268 O269 1.246 . S
C268 O297 1.276 . S
O269 C268 1.246 . S
Zn270 O272 1.911 . S
Zn270 O287 1.970 . S
Zn270 O304 1.945 . S
Zn270 O311 1.981 . S
Zn271 O272 1.933 1_565 S
Zn271 O286 1.991 . S
Zn271 O293 1.955 . S
O272 Zn270 1.911 . S
O272 Zn271 1.933 1_545 S
O272 H273 0.841 . S
H273 O272 0.841 . S
Zn274 O275 1.933 1_665 S
Zn274 O288 1.985 1_565 S
Zn274 O297 1.955 . S
O275 Zn274 1.933 1_445 S
O275 Zn276 1.911 1_455 S
O275 H277 0.841 . S
Zn276 O275 1.911 1_655 S
Zn276 O289 1.970 . S
Zn276 O305 1.981 1_655 S
Zn276 O307 1.945 . S
H277 O275 0.841 . S
Zn278 O279 1.933 1_565 S
Zn278 O291 1.985 . S
Zn278 O299 1.955 . S
O279 Zn278 1.933 1_545 S
O279 H280 0.841 . S
O279 Zn281 1.911 . S
H280 O279 0.841 . S
Zn281 O279 1.911 . S
Zn281 O292 1.970 . S
Zn281 O302 1.981 . S
Zn281 O310 1.945 . S
C282 O283 1.246 . S
C282 O299 1.276 . S
O283 C282 1.246 . S
O284 Zn264 1.985 1_645 S
O284 C294 1.245 . S
O285 Zn265 1.999 . S
O285 C294 1.263 . S
O286 Zn271 1.991 . S
O286 C298 1.217 1_565 S
O287 Zn270 1.970 . S
O287 C298 1.263 . S
O288 Zn274 1.985 1_545 S
O288 C303 1.245 . S
O289 Zn276 1.970 . S
O289 C303 1.263 . S
C290 O301 1.262 . S
C290 O302 1.245 . S
O291 Zn278 1.985 . S
O291 C309 1.245 1_565 S
O292 Zn281 1.970 . S
O292 C309 1.263 . S
O293 Zn271 1.955 . S
O293 C312 1.276 . S
C294 O284 1.245 . S
C294 O285 1.263 . S
O295 Zn264 1.955 . S
O295 C314 1.276 . S
C296 O304 1.262 . S
C296 O305 1.245 . S
O297 C268 1.276 . S
O297 Zn274 1.955 . S
C298 O286 1.217 1_545 S
C298 O287 1.263 . S
O299 Zn278 1.955 . S
O299 C282 1.276 . S
C300 O307 1.262 . S
C300 O308 1.245 . S
O301 Zn265 1.930 1_455 S
O301 C290 1.262 . S
O302 Zn281 1.981 . S
O302 C290 1.245 . S
C303 O288 1.245 . S
C303 O289 1.263 . S
O304 Zn270 1.945 . S
O304 C296 1.262 . S
O305 Zn276 1.981 1_455 S
O305 C296 1.245 . S
C306 O310 1.262 . S
C306 O311 1.245 . S
O307 Zn276 1.945 . S
O307 C300 1.262 . S
O308 Zn265 2.000 . S
O308 C300 1.245 . S
C309 O291 1.245 1_545 S
C309 O292 1.263 . S
O310 Zn281 1.945 . S
O310 C306 1.262 . S
O311 Zn270 1.981 . S
O311 C306 1.245 . S
C312 O293 1.276 . S
C312 O313 1.246 . S
O313 C312 1.246 . S
C314 O295 1.276 . S
C314 O315 1.246 . S
O315 C314 1.246 . S
Zn316 O318 1.933 . S
Zn316 O336 1.985 . S
Zn316 O347 1.955 . S
Zn317 O318 1.911 1_556 S
Zn317 O337 1.970 . S
Zn317 O353 1.945 . S
Zn317 O360 1.981 . S
O318 Zn316 1.933 . S
O318 Zn317 1.911 1_554 S
O318 H319 0.841 . S
H319 O318 0.841 . S
C320 O321 1.246 . S
C320 O349 1.276 . S
O321 C320 1.246 . S
Zn322 O324 1.911 1_566 S
Zn322 O339 1.970 . S
Zn322 O356 1.953 . S
Zn322 O363 1.981 . S
Zn323 O324 1.933 1_565 S
Zn323 O338 1.985 . S
Zn323 O345 1.939 1_565 S
O324 Zn322 1.911 1_544 S
O324 Zn323 1.933 1_545 S
O324 H325 0.841 . S
H325 O324 0.841 . S
Zn326 O327 1.933 . S
Zn326 O340 1.985 . S
Zn326 O349 1.955 . S
O327 Zn326 1.933 . S
O327 Zn328 1.911 1_554 S
O327 H329 0.841 . S
Zn328 O327 1.911 1_556 S
Zn328 O341 1.970 . S
Zn328 O357 1.981 . S
Zn328 O359 1.945 . S
H329 O327 0.841 . S
Zn330 O331 1.933 . S
Zn330 O343 1.985 . S
Zn330 O351 1.955 . S
O331 Zn330 1.933 . S
O331 H332 0.841 . S
O331 Zn333 1.911 1_554 S
H332 O331 0.841 . S
Zn333 O331 1.911 1_556 S
Zn333 O344 1.970 . S
Zn333 O354 1.981 1_565 S
Zn333 O362 1.945 . S
C334 O335 1.246 . S
C334 O351 1.276 . S
O335 C334 1.246 . S
O336 Zn316 1.985 . S
O336 C346 1.245 . S
O337 Zn317 1.970 . S
O337 C346 1.263 1_556 S
O338 Zn323 1.985 . S
O338 C350 1.245 . S
O339 Zn322 1.970 . S
O339 C350 1.263 1_556 S
O340 Zn326 1.985 . S
O340 C355 1.245 . S
O341 Zn328 1.970 . S
O341 C355 1.263 1_556 S
C342 O353 1.262 . S
C342 O354 1.245 . S
O343 Zn330 1.985 . S
O343 C361 1.245 . S
O344 Zn333 1.970 . S
O344 C361 1.263 1_556 S
O345 Zn323 1.939 1_545 S
O345 C364 1.330 . S
C346 O336 1.245 . S
C346 O337 1.263 1_554 S
O347 Zn316 1.955 . S
O347 C366 1.276 . S
C348 O356 1.242 1_545 S
C348 O357 1.245 . S
O349 C320 1.276 . S
O349 Zn326 1.955 . S
C350 O338 1.245 . S
C350 O339 1.263 1_554 S
O351 Zn330 1.955 . S
O351 C334 1.276 . S
C352 O359 1.262 . S
C352 O360 1.245 . S
O353 Zn317 1.945 . S
O353 C342 1.262 . S
O354 Zn333 1.981 1_545 S
O354 C342 1.245 . S
C355 O340 1.245 . S
C355 O341 1.263 1_554 S
O356 Zn322 1.953 . S
O356 C348 1.242 1_565 S
O357 Zn328 1.981 . S
O357 C348 1.245 . S
C358 O362 1.262 . S
C358 O363 1.245 . S
O359 Zn328 1.945 . S
O359 C352 1.262 . S
O360 Zn317 1.981 . S
O360 C352 1.245 . S
C361 O343 1.245 . S
C361 O344 1.263 1_554 S
O362 Zn333 1.945 . S
O362 C358 1.262 . S
O363 Zn322 1.981 . S
O363 C358 1.245 . S
C364 O345 1.330 . S
C364 O365 1.246 . S
O365 C364 1.246 . S
C366 O347 1.276 . S
C366 O367 1.246 . S
O367 C366 1.246 . S
Zn368 O370 1.933 . S
Zn368 O388 1.985 . S
Zn368 O399 1.955 . S
Zn369 O370 1.911 . S
Zn369 O389 1.970 . S
Zn369 O405 1.945 . S
Zn369 O412 1.981 . S
O370 Zn368 1.933 . S
O370 Zn369 1.911 . S
O370 H371 0.841 1_655 S
H371 O370 0.841 1_455 S
C372 O373 1.246 1_554 S
C372 O401 1.276 . S
O373 C372 1.246 1_556 S
Zn374 O376 1.911 . S
Zn374 O391 1.970 . S
Zn374 O408 1.945 . S
Zn374 O415 1.981 . S
Zn375 O376 1.933 . S
Zn375 O390 1.985 . S
Zn375 O397 1.955 . S
O376 Zn374 1.911 . S
O376 Zn375 1.933 . S
O376 H377 0.841 . S
H377 O376 0.841 . S
Zn378 O379 1.933 . S
Zn378 O392 1.985 . S
Zn378 O401 1.955 . S
O379 Zn378 1.933 . S
O379 Zn380 1.911 . S
O379 H381 0.841 . S
Zn380 O379 1.911 . S
Zn380 O393 1.970 . S
Zn380 O409 1.981 . S
Zn380 O411 1.945 . S
H381 O379 0.841 . S
Zn382 O383 1.933 . S
Zn382 O395 1.985 . S
Zn382 O403 1.955 . S
O383 Zn382 1.933 . S
O383 H384 0.841 . S
O383 Zn385 1.911 . S
H384 O383 0.841 . S
Zn385 O383 1.911 . S
Zn385 O396 1.970 . S
Zn385 O406 1.981 . S
Zn385 O414 1.945 . S
C386 O387 1.246 . S
C386 O403 1.276 1_554 S
O387 C386 1.246 . S
O388 Zn368 1.985 . S
O388 C398 1.245 . S
O389 Zn369 1.970 . S
O389 C398 1.263 . S
O390 Zn375 1.985 . S
O390 C402 1.245 . S
O391 Zn374 1.970 . S
O391 C402 1.263 . S
O392 Zn378 1.985 . S
O392 C407 1.245 . S
O393 Zn380 1.970 . S
O393 C407 1.263 . S
C394 O405 1.262 1_455 S
C394 O406 1.245 . S
O395 Zn382 1.985 . S
O395 C413 1.245 . S
O396 Zn385 1.970 . S
O396 C413 1.263 . S
O397 Zn375 1.955 . S
O397 C416 1.276 . S
C398 O388 1.245 . S
C398 O389 1.263 . S
O399 Zn368 1.955 . S
O399 C418 1.276 1_655 S
C400 O408 1.262 . S
C400 O409 1.245 1_455 S
O401 C372 1.276 . S
O401 Zn378 1.955 . S
C402 O390 1.245 . S
C402 O391 1.263 . S
O403 Zn382 1.955 . S
O403 C386 1.276 1_556 S
C404 O411 1.262 . S
C404 O412 1.245 1_554 S
O405 Zn369 1.945 . S
O405 C394 1.262 1_655 S
O406 Zn385 1.981 . S
O406 C394 1.245 . S
C407 O392 1.245 . S
C407 O393 1.263 . S
O408 Zn374 1.945 . S
O408 C400 1.262 . S
O409 Zn380 1.981 . S
O409 C400 1.245 1_655 S
C410 O414 1.262 1_554 S
C410 O415 1.245 . S
O411 Zn380 1.945 . S
O411 C404 1.262 . S
O412 Zn369 1.981 . S
O412 C404 1.245 1_556 S
C413 O395 1.245 . S
C413 O396 1.263 . S
O414 Zn385 1.945 . S
O414 C410 1.262 1_556 S
O415 Zn374 1.981 . S
O415 C410 1.245 . S
C416 O397 1.276 . S
C416 O417 1.246 1_455 S
O417 C416 1.246 1_655 S
C418 O399 1.276 1_455 S
C418 O419 1.246 . S
O419 C418 1.246 . S
Zn420 O422 1.933 1_556 S
Zn420 O440 1.985 . S
Zn420 O451 1.955 . S
Zn421 O422 1.911 . S
Zn421 O441 1.970 . S
Zn421 O457 1.945 . S
Zn421 O464 1.981 . S
O422 Zn420 1.933 1_554 S
O422 Zn421 1.911 . S
O422 H423 0.841 . S
H423 O422 0.841 . S
C424 O425 1.246 . S
C424 O453 1.276 . S
O425 C424 1.246 . S
Zn426 O428 1.911 . S
Zn426 O443 1.970 . S
Zn426 O460 1.945 . S
Zn426 O467 1.981 . S
Zn427 O428 1.933 1_556 S
Zn427 O442 1.985 . S
Zn427 O449 1.955 . S
O428 Zn426 1.911 . S
O428 Zn427 1.933 1_554 S
O428 H429 0.841 . S
H429 O428 0.841 . S
Zn430 O431 1.933 1_556 S
Zn430 O444 1.985 . S
Zn430 O453 1.955 . S
O431 Zn430 1.933 1_554 S
O431 Zn432 1.911 . S
O431 H433 0.841 . S
Zn432 O431 1.911 . S
Zn432 O445 1.970 . S
Zn432 O461 1.981 . S
Zn432 O463 1.945 . S
H433 O431 0.841 . S
Zn434 O435 1.933 1_556 S
Zn434 O447 1.985 . S
Zn434 O455 1.955 . S
O435 Zn434 1.933 1_554 S
O435 H436 0.841 . S
O435 Zn437 1.911 . S
H436 O435 0.841 . S
Zn437 O435 1.911 . S
Zn437 O448 1.970 . S
Zn437 O458 1.981 . S
Zn437 O466 1.945 . S
C438 O439 1.246 . S
C438 O455 1.276 . S
O439 C438 1.246 . S
O440 Zn420 1.985 . S
O440 C450 1.245 1_556 S
O441 Zn421 1.970 . S
O441 C450 1.263 . S
O442 Zn427 1.985 . S
O442 C454 1.245 1_556 S
O443 Zn426 1.970 . S
O443 C454 1.263 . S
O444 Zn430 1.985 . S
O444 C459 1.245 1_556 S
O445 Zn432 1.970 . S
O445 C459 1.263 . S
C446 O457 1.262 . S
C446 O458 1.245 . S
O447 Zn434 1.985 . S
O447 C465 1.245 1_556 S
O448 Zn437 1.970 . S
O448 C465 1.263 . S
O449 Zn427 1.955 . S
O449 C468 1.276 . S
C450 O440 1.245 1_554 S
C450 O441 1.263 . S
O451 Zn420 1.955 . S
O451 C470 1.276 . S
C452 O460 1.262 . S
C452 O461 1.245 . S
O453 C424 1.276 . S
O453 Zn430 1.955 . S
C454 O442 1.245 1_554 S
C454 O443 1.263 . S
O455 Zn434 1.955 . S
O455 C438 1.276 . S
C456 O463 1.262 . S
C456 O464 1.245 . S
O457 Zn421 1.945 . S
O457 C446 1.262 . S
O458 Zn437 1.981 . S
O458 C446 1.245 . S
C459 O444 1.245 1_554 S
C459 O445 1.263 . S
O460 Zn426 1.945 . S
O460 C452 1.262 . S
O461 Zn432 1.981 . S
O461 C452 1.245 . S
C462 O466 1.262 . S
C462 O467 1.245 . S
O463 Zn432 1.945 . S
O463 C456 1.262 . S
O464 Zn421 1.981 . S
O464 C456 1.245 . S
C465 O447 1.245 1_554 S
C465 O448 1.263 . S
O466 Zn437 1.945 . S
O466 C462 1.262 . S
O467 Zn426 1.981 . S
O467 C462 1.245 . S
C468 O449 1.276 . S
C468 O469 1.246 . S
O469 C468 1.246 . S
C470 O451 1.276 . S
C470 O471 1.246 . S
O471 C470 1.246 . S
Zn472 O474 1.933 1_655 S
Zn472 O492 1.985 . S
Zn472 O503 1.955 1_655 S
Zn473 O474 1.911 1_655 S
Zn473 O493 1.970 . S
Zn473 O509 1.945 . S
Zn473 O516 1.981 . S
O474 Zn472 1.933 1_455 S
O474 Zn473 1.911 1_455 S
O474 H475 0.841 . S
H475 O474 0.841 . S
C476 O477 1.246 . S
C476 O505 1.276 . S
O477 C476 1.246 . S
Zn478 O480 1.911 . S
Zn478 O495 1.970 . S
Zn478 O512 1.945 . S
Zn478 O519 1.981 . S
Zn479 O480 1.933 . S
Zn479 O494 1.985 . S
Zn479 O501 1.955 . S
O480 Zn478 1.911 . S
O480 Zn479 1.933 . S
O480 H481 0.841 . S
H481 O480 0.841 . S
Zn482 O483 1.933 . S
Zn482 O496 1.985 . S
Zn482 O505 1.955 . S
O483 Zn482 1.933 . S
O483 Zn484 1.911 . S
O483 H485 0.841 . S
Zn484 O483 1.911 . S
Zn484 O497 1.970 . S
Zn484 O513 1.981 1_655 S
Zn484 O515 1.945 . S
H485 O483 0.841 . S
Zn486 O487 1.933 . S
Zn486 O499 1.985 . S
Zn486 O507 1.955 . S
O487 Zn486 1.933 . S
O487 H488 0.841 . S
O487 Zn489 1.911 . S
H488 O487 0.841 . S
Zn489 O487 1.911 . S
Zn489 O500 1.970 . S
Zn489 O510 1.981 . S
Zn489 O518 1.945 . S
C490 O491 1.246 . S
C490 O507 1.276 . S
O491 C490 1.246 . S
O492 Zn472 1.985 . S
O492 C502 1.245 . S
O493 Zn473 1.970 . S
O493 C502 1.263 . S
O494 Zn479 1.985 . S
O494 C506 1.245 . S
O495 Zn478 1.970 . S
O495 C506 1.263 . S
O496 Zn482 1.985 . S
O496 C511 1.245 . S
O497 Zn484 1.970 . S
O497 C511 1.263 . S
C498 O509 1.262 1_455 S
C498 O510 1.245 . S
O499 Zn486 1.985 . S
O499 C517 1.245 . S
O500 Zn489 1.970 . S
O500 C517 1.263 . S
O501 Zn479 1.955 . S
O501 C520 1.276 . S
C502 O492 1.245 . S
C502 O493 1.263 . S
O503 Zn472 1.955 1_455 S
O503 C522 1.276 . S
C504 O512 1.262 . S
C504 O513 1.245 . S
O505 C476 1.276 . S
O505 Zn482 1.955 . S
C506 O494 1.245 . S
C506 O495 1.263 . S
O507 Zn486 1.955 . S
O507 C490 1.276 . S
C508 O515 1.262 . S
C508 O516 1.245 . S
O509 Zn473 1.945 . S
O509 C498 1.262 1_655 S
O510 Zn489 1.981 . S
O510 C498 1.245 . S
C511 O496 1.245 . S
C511 O497 1.263 . S
O512 Zn478 1.945 . S
O512 C504 1.262 . S
O513 Zn484 1.981 1_455 S
O513 C504 1.245 . S
C514 O518 1.262 . S
C514 O519 1.245 . S
O515 Zn484 1.945 . S
O515 C508 1.262 . S
O516 Zn473 1.981 . S
O516 C508 1.245 . S
C517 O499 1.245 . S
C517 O500 1.263 . S
O518 Zn489 1.945 . S
O518 C514 1.262 . S
O519 Zn478 1.981 . S
O519 C514 1.245 . S
C520 O501 1.276 . S
C520 O521 1.246 . S
O521 C520 1.246 . S
C522 O503 1.276 . S
C522 O523 1.246 . S
O523 C522 1.246 . S
Zn524 O526 1.933 1_565 S
Zn524 O544 1.993 . S
Zn524 O555 1.955 . S
Zn525 O526 1.911 . S
Zn525 O545 1.970 . S
Zn525 O561 1.945 . S
Zn525 O568 1.981 . S
O526 Zn524 1.933 1_545 S
O526 Zn525 1.911 . S
O526 H527 0.841 . S
H527 O526 0.841 . S
C528 O529 1.246 . S
C528 O557 1.276 . S
O529 C528 1.246 . S
Zn530 O532 1.911 . S
Zn530 O547 1.970 . S
Zn530 O564 1.945 . S
Zn530 O571 1.981 . S
Zn531 O532 1.933 1_565 S
Zn531 O546 1.985 1_565 S
Zn531 O553 1.955 . S
O532 Zn530 1.911 . S
O532 Zn531 1.933 1_545 S
O532 H533 0.841 . S
H533 O532 0.841 . S
Zn534 O535 1.933 1_565 S
Zn534 O548 1.992 . S
Zn534 O557 1.955 . S
O535 Zn534 1.933 1_545 S
O535 Zn536 1.911 . S
O535 H537 0.841 . S
Zn536 O535 1.911 . S
Zn536 O549 1.970 . S
Zn536 O565 1.981 . S
Zn536 O567 1.945 . S
H537 O535 0.841 . S
Zn538 O539 1.933 1_565 S
Zn538 O551 1.985 1_565 S
Zn538 O559 1.955 . S
O539 Zn538 1.933 1_545 S
O539 H540 0.841 . S
O539 Zn541 1.911 . S
H540 O539 0.841 . S
Zn541 O539 1.911 . S
Zn541 O552 1.970 . S
Zn541 O562 1.981 . S
Zn541 O570 1.945 . S
C542 O543 1.246 . S
C542 O559 1.276 . S
O543 C542 1.246 . S
O544 Zn524 1.993 . S
O544 C554 1.208 1_565 S
O545 Zn525 1.970 . S
O545 C554 1.263 . S
O546 Zn531 1.985 1_545 S
O546 C558 1.245 . S
O547 Zn530 1.970 . S
O547 C558 1.263 . S
O548 Zn534 1.992 . S
O548 C563 1.215 1_565 S
O549 Zn536 1.970 . S
O549 C563 1.263 . S
C550 O561 1.262 . S
C550 O562 1.245 . S
O551 Zn538 1.985 1_545 S
O551 C569 1.245 . S
O552 Zn541 1.970 . S
O552 C569 1.263 . S
O553 Zn531 1.955 . S
O553 C572 1.276 . S
C554 O544 1.208 1_545 S
C554 O545 1.263 . S
O555 Zn524 1.955 . S
O555 C574 1.276 . S
C556 O564 1.262 . S
C556 O565 1.245 . S
O557 C528 1.276 . S
O557 Zn534 1.955 . S
C558 O546 1.245 . S
C558 O547 1.263 . S
O559 Zn538 1.955 . S
O559 C542 1.276 . S
C560 O567 1.262 . S
C560 O568 1.245 . S
O561 Zn525 1.945 . S
O561 C550 1.262 . S
O562 Zn541 1.981 . S
O562 C550 1.245 . S
C563 O548 1.215 1_545 S
C563 O549 1.263 . S
O564 Zn530 1.945 . S
O564 C556 1.262 . S
O565 Zn536 1.981 . S
O565 C556 1.245 . S
C566 O570 1.262 . S
C566 O571 1.245 . S
O567 Zn536 1.945 . S
O567 C560 1.262 . S
O568 Zn525 1.981 . S
O568 C560 1.245 . S
C569 O551 1.245 . S
C569 O552 1.263 . S
O570 Zn541 1.945 . S
O570 C566 1.262 . S
O571 Zn530 1.981 . S
O571 C566 1.245 . S
C572 O553 1.276 . S
C572 O573 1.246 . S
O573 C572 1.246 . S
C574 O555 1.276 . S
C574 O575 1.246 . S
O575 C574 1.246 . S
C576 C577 1.349 . S
C576 C578 1.327 . S
C576 H601 0.950 . S
C577 C576 1.349 . S
C577 C593 1.349 . S
C578 C576 1.327 . S
C578 C597 1.429 . S
C578 H602 0.950 . S
C579 C596 1.574 . S
C579 C598 1.368 . S
C579 H603 0.949 . S
H580 C584 0.949 . S
C581 C582 1.349 . S
C581 C583 1.327 . S
C581 H604 0.950 . S
C582 C581 1.349 . S
C582 C594 1.349 . S
C583 C581 1.327 . S
C583 C599 1.429 . S
C583 H605 0.950 . S
C584 H580 0.949 . S
C584 C592 1.574 . S
C584 C600 1.368 . S
H585 C593 0.950 . S
H586 C591 0.950 . S
H587 C592 0.949 . S
H588 C594 0.950 . S
H589 C595 0.950 . S
H590 C596 0.949 . S
C591 H586 0.950 . S
C591 C593 1.327 . S
C591 C597 1.429 . S
C592 C584 1.574 . S
C592 H587 0.949 . S
C592 C598 1.368 . S
C593 C577 1.349 . S
C593 H585 0.950 . S
C593 C591 1.327 . S
C594 C582 1.349 . S
C594 H588 0.950 . S
C594 C595 1.327 . S
C595 H589 0.950 . S
C595 C594 1.327 . S
C595 C599 1.429 . S
C596 C579 1.574 . S
C596 H590 0.949 . S
C596 C600 1.368 . S
C597 C578 1.429 . S
C597 C591 1.429 . S
C597 C598 1.523 . S
C598 C579 1.368 . S
C598 C592 1.368 . S
C598 C597 1.523 . S
C599 C583 1.429 . S
C599 C595 1.429 . S
C599 C600 1.523 . S
C600 C584 1.368 . S
C600 C596 1.368 . S
C600 C599 1.523 . S
H601 C576 0.950 . S
H602 C578 0.950 . S
H603 C579 0.949 . S
H604 C581 0.950 . S
H605 C583 0.950 . S
C606 C607 1.349 . S
C606 C608 1.327 . S
C606 H631 0.950 . S
C607 C606 1.349 . S
C607 C623 1.349 . S
C608 C606 1.327 . S
C608 C627 1.429 . S
C608 H632 0.950 . S
C609 C626 1.574 . S
C609 C628 1.368 . S
C609 H633 0.949 . S
H610 C614 0.949 . S
C611 C612 1.349 . S
C611 C613 1.327 . S
C611 H634 0.950 . S
C612 C611 1.349 . S
C612 C624 1.349 . S
C613 C611 1.327 . S
C613 C629 1.429 . S
C613 H635 0.950 . S
C614 H610 0.949 . S
C614 C622 1.574 . S
C614 C630 1.368 . S
H615 C623 0.950 . S
H616 C621 0.950 . S
H617 C622 0.949 . S
H618 C624 0.950 . S
H619 C625 0.950 . S
H620 C626 0.949 . S
C621 H616 0.950 . S
C621 C623 1.327 . S
C621 C627 1.429 . S
C622 C614 1.574 . S
C622 H617 0.949 . S
C622 C628 1.368 . S
C623 C607 1.349 . S
C623 H615 0.950 . S
C623 C621 1.327 . S
C624 C612 1.349 . S
C624 H618 0.950 . S
C624 C625 1.327 . S
C625 H619 0.950 . S
C625 C624 1.327 . S
C625 C629 1.429 . S
C626 C609 1.574 . S
C626 H620 0.949 . S
C626 C630 1.368 . S
C627 C608 1.429 . S
C627 C621 1.429 . S
C627 C628 1.523 . S
C628 C609 1.368 . S
C628 C622 1.368 . S
C628 C627 1.523 . S
C629 C613 1.429 . S
C629 C625 1.429 . S
C629 C630 1.523 . S
C630 C614 1.368 . S
C630 C626 1.368 . S
C630 C629 1.523 . S
H631 C606 0.950 . S
H632 C608 0.950 . S
H633 C609 0.949 . S
H634 C611 0.950 . S
H635 C613 0.950 . S
C636 C637 1.349 . S
C636 C638 1.327 . S
C636 H661 0.950 . S
C637 C636 1.349 . S
C637 C653 1.349 . S
C638 C636 1.327 . S
C638 C657 1.429 . S
C638 H662 0.950 . S
C639 C656 1.574 . S
C639 C658 1.368 . S
C639 H663 0.949 . S
H640 C644 0.949 . S
C641 C642 1.349 . S
C641 C643 1.327 . S
C641 H664 0.950 . S
C642 C641 1.349 . S
C642 C654 1.349 . S
C643 C641 1.327 . S
C643 C659 1.429 . S
C643 H665 0.950 . S
C644 H640 0.949 . S
C644 C652 1.574 . S
C644 C660 1.368 . S
H645 C653 0.950 . S
H646 C651 0.950 . S
H647 C652 0.949 . S
H648 C654 0.950 . S
H649 C655 0.950 . S
H650 C656 0.949 . S
C651 H646 0.950 . S
C651 C653 1.327 . S
C651 C657 1.429 . S
C652 C644 1.574 . S
C652 H647 0.949 . S
C652 C658 1.368 . S
C653 C637 1.349 . S
C653 H645 0.950 . S
C653 C651 1.327 . S
C654 C642 1.349 . S
C654 H648 0.950 . S
C654 C655 1.327 . S
C655 H649 0.950 . S
C655 C654 1.327 . S
C655 C659 1.429 . S
C656 C639 1.574 . S
C656 H650 0.949 . S
C656 C660 1.368 . S
C657 C638 1.429 . S
C657 C651 1.429 . S
C657 C658 1.523 . S
C658 C639 1.368 . S
C658 C652 1.368 . S
C658 C657 1.523 . S
C659 C643 1.429 . S
C659 C655 1.429 . S
C659 C660 1.523 . S
C660 C644 1.368 . S
C660 C656 1.368 . S
C660 C659 1.523 . S
H661 C636 0.950 . S
H662 C638 0.950 . S
H663 C639 0.949 . S
H664 C641 0.950 . S
H665 C643 0.950 . S
C666 C667 1.349 . S
C666 C668 1.327 . S
C666 H691 0.950 . S
C667 C666 1.349 . S
C667 C683 1.349 . S
C668 C666 1.327 . S
C668 C687 1.429 . S
C668 H692 0.950 . S
C669 C686 1.574 . S
C669 C688 1.368 . S
C669 H693 0.949 . S
H670 C674 0.949 . S
C671 C672 1.349 . S
C671 C673 1.327 . S
C671 H694 0.950 . S
C672 C671 1.349 . S
C672 C684 1.349 . S
C673 C671 1.327 . S
C673 C689 1.429 . S
C673 H695 0.950 . S
C674 H670 0.949 . S
C674 C682 1.574 . S
C674 C690 1.368 . S
H675 C683 0.950 . S
H676 C681 0.950 . S
H677 C682 0.949 . S
H678 C684 0.950 . S
H679 C685 0.950 . S
H680 C686 0.949 . S
C681 H676 0.950 . S
C681 C683 1.327 . S
C681 C687 1.429 . S
C682 C674 1.574 . S
C682 H677 0.949 . S
C682 C688 1.368 . S
C683 C667 1.349 . S
C683 H675 0.950 . S
C683 C681 1.327 . S
C684 C672 1.349 . S
C684 H678 0.950 . S
C684 C685 1.327 . S
C685 H679 0.950 . S
C685 C684 1.327 . S
C685 C689 1.429 . S
C686 C669 1.574 . S
C686 H680 0.949 . S
C686 C690 1.368 . S
C687 C668 1.429 . S
C687 C681 1.429 . S
C687 C688 1.523 . S
C688 C669 1.368 . S
C688 C682 1.368 . S
C688 C687 1.523 . S
C689 C673 1.429 . S
C689 C685 1.429 . S
C689 C690 1.523 . S
C690 C674 1.368 . S
C690 C686 1.368 . S
C690 C689 1.523 . S
H691 C666 0.950 . S
H692 C668 0.950 . S
H693 C669 0.949 . S
H694 C671 0.950 . S
H695 C673 0.950 . S
C696 C697 1.349 . S
C696 C698 1.327 . S
C696 H721 0.950 . S
C697 C696 1.349 . S
C697 C713 1.349 . S
C698 C696 1.327 . S
C698 C717 1.429 . S
C698 H722 0.950 . S
C699 C716 1.574 . S
C699 C718 1.368 . S
C699 H723 0.949 . S
H700 C704 0.949 . S
C701 C702 1.349 . S
C701 C703 1.327 . S
C701 H724 0.950 . S
C702 C701 1.349 . S
C702 C714 1.349 . S
C703 C701 1.327 . S
C703 C719 1.429 . S
C703 H725 0.950 . S
C704 H700 0.949 . S
C704 C712 1.574 . S
C704 C720 1.368 . S
H705 C713 0.950 . S
H706 C711 0.950 . S
H707 C712 0.949 . S
H708 C714 0.950 . S
H709 C715 0.950 . S
H710 C716 0.949 . S
C711 H706 0.950 . S
C711 C713 1.327 . S
C711 C717 1.429 . S
C712 C704 1.574 . S
C712 H707 0.949 . S
C712 C718 1.368 . S
C713 C697 1.349 . S
C713 H705 0.950 . S
C713 C711 1.327 . S
C714 C702 1.349 . S
C714 H708 0.950 . S
C714 C715 1.327 . S
C715 H709 0.950 . S
C715 C714 1.327 . S
C715 C719 1.429 . S
C716 C699 1.574 . S
C716 H710 0.949 . S
C716 C720 1.368 . S
C717 C698 1.429 . S
C717 C711 1.429 . S
C717 C718 1.523 . S
C718 C699 1.368 . S
C718 C712 1.368 . S
C718 C717 1.523 . S
C719 C703 1.429 . S
C719 C715 1.429 . S
C719 C720 1.523 . S
C720 C704 1.368 . S
C720 C716 1.368 . S
C720 C719 1.523 . S
H721 C696 0.950 . S
H722 C698 0.950 . S
H723 C699 0.949 . S
H724 C701 0.950 . S
H725 C703 0.950 . S
C726 C727 1.349 . S
C726 C728 1.327 . S
C726 H751 0.950 . S
C727 C726 1.349 . S
C727 C743 1.349 . S
C728 C726 1.327 . S
C728 C747 1.429 . S
C728 H752 0.950 . S
C729 C746 1.574 . S
C729 C748 1.368 . S
C729 H753 0.949 . S
H730 C734 0.949 . S
C731 C732 1.349 . S
C731 C733 1.327 . S
C731 H754 0.950 . S
C732 C731 1.349 . S
C732 C744 1.349 . S
C733 C731 1.327 . S
C733 C749 1.429 . S
C733 H755 0.950 . S
C734 H730 0.949 . S
C734 C742 1.574 . S
C734 C750 1.368 . S
H735 C743 0.950 . S
H736 C741 0.950 . S
H737 C742 0.949 . S
H738 C744 0.950 . S
H739 C745 0.950 . S
H740 C746 0.949 . S
C741 H736 0.950 . S
C741 C743 1.327 . S
C741 C747 1.429 . S
C742 C734 1.574 . S
C742 H737 0.949 . S
C742 C748 1.368 . S
C743 C727 1.349 . S
C743 H735 0.950 . S
C743 C741 1.327 . S
C744 C732 1.349 . S
C744 H738 0.950 . S
C744 C745 1.327 . S
C745 H739 0.950 . S
C745 C744 1.327 . S
C745 C749 1.429 . S
C746 C729 1.574 . S
C746 H740 0.949 . S
C746 C750 1.368 . S
C747 C728 1.429 . S
C747 C741 1.429 . S
C747 C748 1.523 . S
C748 C729 1.368 . S
C748 C742 1.368 . S
C748 C747 1.523 . S
C749 C733 1.429 . S
C749 C745 1.429 . S
C749 C750 1.523 . S
C750 C734 1.368 . S
C750 C746 1.368 . S
C750 C749 1.523 . S
H751 C726 0.950 . S
H752 C728 0.950 . S
H753 C729 0.949 . S
H754 C731 0.950 . S
H755 C733 0.950 . S
C756 C757 1.349 . S
C756 C758 1.327 . S
C756 H781 0.950 . S
C757 C756 1.349 . S
C757 C773 1.349 . S
C758 C756 1.327 . S
C758 C777 1.429 . S
C758 H782 0.950 . S
C759 C776 1.574 . S
C759 C778 1.368 . S
C759 H783 0.949 . S
H760 C764 0.949 . S
C761 C762 1.349 . S
C761 C763 1.327 . S
C761 H784 0.950 . S
C762 C761 1.349 . S
C762 C774 1.349 . S
C763 C761 1.327 . S
C763 C779 1.429 . S
C763 H785 0.950 . S
C764 H760 0.949 . S
C764 C772 1.574 . S
C764 C780 1.368 . S
H765 C773 0.950 . S
H766 C771 0.950 . S
H767 C772 0.949 . S
H768 C774 0.950 . S
H769 C775 0.950 . S
H770 C776 0.949 . S
C771 H766 0.950 . S
C771 C773 1.327 . S
C771 C777 1.429 . S
C772 C764 1.574 . S
C772 H767 0.949 . S
C772 C778 1.368 . S
C773 C757 1.349 . S
C773 H765 0.950 . S
C773 C771 1.327 . S
C774 C762 1.349 . S
C774 H768 0.950 . S
C774 C775 1.327 . S
C775 H769 0.950 . S
C775 C774 1.327 . S
C775 C779 1.429 . S
C776 C759 1.574 . S
C776 H770 0.949 . S
C776 C780 1.368 . S
C777 C758 1.429 . S
C777 C771 1.429 . S
C777 C778 1.523 . S
C778 C759 1.368 . S
C778 C772 1.368 . S
C778 C777 1.523 . S
C779 C763 1.429 . S
C779 C775 1.429 . S
C779 C780 1.523 . S
C780 C764 1.368 . S
C780 C776 1.368 . S
C780 C779 1.523 . S
H781 C756 0.950 . S
H782 C758 0.950 . S
H783 C759 0.949 . S
H784 C761 0.950 . S
H785 C763 0.950 . S
C786 C787 1.349 . S
C786 C788 1.327 . S
C786 H811 0.950 . S
C787 C786 1.349 . S
C787 C803 1.349 . S
C788 C786 1.327 . S
C788 C807 1.429 . S
C788 H812 0.950 . S
C789 C806 1.574 . S
C789 C808 1.368 . S
C789 H813 0.949 . S
H790 C794 0.949 . S
C791 C792 1.349 . S
C791 C793 1.327 . S
C791 H814 0.950 . S
C792 C791 1.349 . S
C792 C804 1.349 . S
C793 C791 1.327 . S
C793 C809 1.429 . S
C793 H815 0.950 . S
C794 H790 0.949 . S
C794 C802 1.574 . S
C794 C810 1.368 . S
H795 C803 0.950 . S
H796 C801 0.950 . S
H797 C802 0.949 . S
H798 C804 0.950 . S
H799 C805 0.950 . S
H800 C806 0.949 . S
C801 H796 0.950 . S
C801 C803 1.327 . S
C801 C807 1.429 . S
C802 C794 1.574 . S
C802 H797 0.949 . S
C802 C808 1.368 . S
C803 C787 1.349 . S
C803 H795 0.950 . S
C803 C801 1.327 . S
C804 C792 1.349 . S
C804 H798 0.950 . S
C804 C805 1.327 . S
C805 H799 0.950 . S
C805 C804 1.327 . S
C805 C809 1.429 . S
C806 C789 1.574 . S
C806 H800 0.949 . S
C806 C810 1.368 . S
C807 C788 1.429 . S
C807 C801 1.429 . S
C807 C808 1.523 . S
C808 C789 1.368 . S
C808 C802 1.368 . S
C808 C807 1.523 . S
C809 C793 1.429 . S
C809 C805 1.429 . S
C809 C810 1.523 . S
C810 C794 1.368 . S
C810 C806 1.368 . S
C810 C809 1.523 . S
H811 C786 0.950 . S
H812 C788 0.950 . S
H813 C789 0.949 . S
H814 C791 0.950 . S
H815 C793 0.950 . S
C816 C817 1.349 . S
C816 C818 1.327 . S
C816 H841 0.950 . S
C817 C816 1.349 . S
C817 C833 1.349 . S
C818 C816 1.327 . S
C818 C837 1.429 . S
C818 H842 0.950 . S
C819 C836 1.574 . S
C819 C838 1.368 . S
C819 H843 0.949 . S
H820 C824 0.949 . S
C821 C822 1.349 . S
C821 C823 1.327 . S
C821 H844 0.950 . S
C822 C821 1.349 . S
C822 C834 1.349 . S
C823 C821 1.327 . S
C823 C839 1.429 . S
C823 H845 0.950 . S
C824 H820 0.949 . S
C824 C832 1.574 . S
C824 C840 1.368 . S
H825 C833 0.950 . S
H826 C831 0.950 . S
H827 C832 0.949 . S
H828 C834 0.950 . S
H829 C835 0.950 . S
H830 C836 0.949 . S
C831 H826 0.950 . S
C831 C833 1.327 . S
C831 C837 1.429 . S
C832 C824 1.574 . S
C832 H827 0.949 . S
C832 C838 1.368 . S
C833 C817 1.349 . S
C833 H825 0.950 . S
C833 C831 1.327 . S
C834 C822 1.349 . S
C834 H828 0.950 . S
C834 C835 1.327 . S
C835 H829 0.950 . S
C835 C834 1.327 . S
C835 C839 1.429 . S
C836 C819 1.574 . S
C836 H830 0.949 . S
C836 C840 1.368 . S
C837 C818 1.429 . S
C837 C831 1.429 . S
C837 C838 1.523 . S
C838 C819 1.368 . S
C838 C832 1.368 . S
C838 C837 1.523 . S
C839 C823 1.429 . S
C839 C835 1.429 . S
C839 C840 1.523 . S
C840 C824 1.368 . S
C840 C836 1.368 . S
C840 C839 1.523 . S
H841 C816 0.950 . S
H842 C818 0.950 . S
H843 C819 0.949 . S
H844 C821 0.950 . S
H845 C823 0.950 . S
C846 C847 1.349 . S
C846 C848 1.327 . S
C846 H871 0.950 . S
C847 C846 1.349 . S
C847 C863 1.349 . S
C848 C846 1.327 . S
C848 C867 1.429 . S
C848 H872 0.950 . S
C849 C866 1.574 . S
C849 C868 1.368 . S
C849 H873 0.949 . S
H850 C854 0.949 . S
C851 C852 1.349 . S
C851 C853 1.327 . S
C851 H874 0.950 . S
C852 C851 1.349 . S
C852 C864 1.349 . S
C853 C851 1.327 . S
C853 C869 1.429 . S
C853 H875 0.950 . S
C854 H850 0.949 . S
C854 C862 1.574 . S
C854 C870 1.368 . S
H855 C863 0.950 . S
H856 C861 0.950 . S
H857 C862 0.949 . S
H858 C864 0.950 . S
H859 C865 0.950 . S
H860 C866 0.949 . S
C861 H856 0.950 . S
C861 C863 1.327 . S
C861 C867 1.429 . S
C862 C854 1.574 . S
C862 H857 0.949 . S
C862 C868 1.368 . S
C863 C847 1.349 . S
C863 H855 0.950 . S
C863 C861 1.327 . S
C864 C852 1.349 . S
C864 H858 0.950 . S
C864 C865 1.327 . S
C865 H859 0.950 . S
C865 C864 1.327 . S
C865 C869 1.429 . S
C866 C849 1.574 . S
C866 H860 0.949 . S
C866 C870 1.368 . S
C867 C848 1.429 . S
C867 C861 1.429 . S
C867 C868 1.523 . S
C868 C849 1.368 . S
C868 C862 1.368 . S
C868 C867 1.523 . S
C869 C853 1.429 . S
C869 C865 1.429 . S
C869 C870 1.523 . S
C870 C854 1.368 . S
C870 C866 1.368 . S
C870 C869 1.523 . S
H871 C846 0.950 . S
H872 C848 0.950 . S
H873 C849 0.949 . S
H874 C851 0.950 . S
H875 C853 0.950 . S
C876 C877 1.349 . S
C876 C878 1.327 . S
C876 H901 0.950 . S
C877 C876 1.349 . S
C877 C893 1.349 . S
C878 C876 1.327 . S
C878 C897 1.429 . S
C878 H902 0.950 . S
C879 C896 1.574 . S
C879 C898 1.368 . S
C879 H903 0.949 . S
H880 C884 0.949 . S
C881 C882 1.349 . S
C881 C883 1.327 . S
C881 H904 0.950 . S
C882 C881 1.349 . S
C882 C894 1.349 . S
C883 C881 1.327 . S
C883 C899 1.429 . S
C883 H905 0.950 . S
C884 H880 0.949 . S
C884 C892 1.574 . S
C884 C900 1.368 . S
H885 C893 0.950 . S
H886 C891 0.950 . S
H887 C892 0.949 . S
H888 C894 0.950 . S
H889 C895 0.950 . S
H890 C896 0.949 . S
C891 H886 0.950 . S
C891 C893 1.327 . S
C891 C897 1.429 . S
C892 C884 1.574 . S
C892 H887 0.949 . S
C892 C898 1.368 . S
C893 C877 1.349 . S
C893 H885 0.950 . S
C893 C891 1.327 . S
C894 C882 1.349 . S
C894 H888 0.950 . S
C894 C895 1.327 . S
C895 H889 0.950 . S
C895 C894 1.327 . S
C895 C899 1.429 . S
C896 C879 1.574 . S
C896 H890 0.949 . S
C896 C900 1.368 . S
C897 C878 1.429 . S
C897 C891 1.429 . S
C897 C898 1.523 . S
C898 C879 1.368 . S
C898 C892 1.368 . S
C898 C897 1.523 . S
C899 C883 1.429 . S
C899 C895 1.429 . S
C899 C900 1.523 . S
C900 C884 1.368 . S
C900 C896 1.368 . S
C900 C899 1.523 . S
H901 C876 0.950 . S
H902 C878 0.950 . S
H903 C879 0.949 . S
H904 C881 0.950 . S
H905 C883 0.950 . S
C906 C907 1.349 . S
C906 C908 1.327 . S
C906 H931 0.950 . S
C907 C906 1.349 . S
C907 C923 1.349 . S
C908 C906 1.327 . S
C908 C927 1.429 . S
C908 H932 0.950 . S
C909 C926 1.574 . S
C909 C928 1.368 . S
C909 H933 0.949 . S
H910 C914 0.949 . S
C911 C912 1.349 . S
C911 C913 1.327 . S
C911 H934 0.950 . S
C912 C911 1.349 . S
C912 C924 1.349 . S
C913 C911 1.327 . S
C913 C929 1.429 . S
C913 H935 0.950 . S
C914 H910 0.949 . S
C914 C922 1.574 . S
C914 C930 1.368 . S
H915 C923 0.950 . S
H916 C921 0.950 . S
H917 C922 0.949 . S
H918 C924 0.950 . S
H919 C925 0.950 . S
H920 C926 0.949 . S
C921 H916 0.950 . S
C921 C923 1.327 . S
C921 C927 1.429 . S
C922 C914 1.574 . S
C922 H917 0.949 . S
C922 C928 1.368 . S
C923 C907 1.349 . S
C923 H915 0.950 . S
C923 C921 1.327 . S
C924 C912 1.349 . S
C924 H918 0.950 . S
C924 C925 1.327 . S
C925 H919 0.950 . S
C925 C924 1.327 . S
C925 C929 1.429 . S
C926 C909 1.574 . S
C926 H920 0.949 . S
C926 C930 1.368 . S
C927 C908 1.429 . S
C927 C921 1.429 . S
C927 C928 1.523 . S
C928 C909 1.368 . S
C928 C922 1.368 . S
C928 C927 1.523 . S
C929 C913 1.429 . S
C929 C925 1.429 . S
C929 C930 1.523 . S
C930 C914 1.368 . S
C930 C926 1.368 . S
C930 C929 1.523 . S
H931 C906 0.950 . S
H932 C908 0.950 . S
H933 C909 0.949 . S
H934 C911 0.950 . S
H935 C913 0.950 . S
C936 C937 1.349 . S
C936 C938 1.327 . S
C936 H961 0.950 . S
C937 C936 1.349 . S
C937 C953 1.349 1_554 S
C938 C936 1.327 . S
C938 C957 1.429 . S
C938 H962 0.950 . S
C939 C956 1.574 . S
C939 C958 1.368 1_556 S
C939 H963 0.949 . S
H940 C944 0.949 . S
C941 C942 1.349 1_556 S
C941 C943 1.327 . S
C941 H964 0.950 . S
C942 C941 1.349 1_554 S
C942 C954 1.349 . S
C943 C941 1.327 . S
C943 C959 1.429 1_556 S
C943 H965 0.950 . S
C944 H940 0.949 . S
C944 C952 1.574 . S
C944 C960 1.368 . S
H945 C953 0.950 . S
H946 C951 0.950 . S
H947 C952 0.949 . S
H948 C954 0.950 . S
H949 C955 0.950 . S
H950 C956 0.949 . S
C951 H946 0.950 . S
C951 C953 1.327 . S
C951 C957 1.429 1_556 S
C952 C944 1.574 . S
C952 H947 0.949 . S
C952 C958 1.368 . S
C953 C937 1.349 1_556 S
C953 H945 0.950 . S
C953 C951 1.327 . S
C954 C942 1.349 . S
C954 H948 0.950 . S
C954 C955 1.327 . S
C955 H949 0.950 . S
C955 C954 1.327 . S
C955 C959 1.429 . S
C956 C939 1.574 . S
C956 H950 0.949 . S
C956 C960 1.368 1_556 S
C957 C938 1.429 . S
C957 C951 1.429 1_554 S
C957 C958 1.523 . S
C958 C939 1.368 1_554 S
C958 C952 1.368 . S
C958 C957 1.523 . S
C959 C943 1.429 1_554 S
C959 C955 1.429 . S
C959 C960 1.523 . S
C960 C944 1.368 . S
C960 C956 1.368 1_554 S
C960 C959 1.523 . S
H961 C936 0.950 . S
H962 C938 0.950 . S
H963 C939 0.949 . S
H964 C941 0.950 . S
H965 C943 0.950 . S
C966 C967 1.349 . S
C966 C968 1.327 . S
C966 H991 0.950 . S
C967 C966 1.349 . S
C967 C983 1.349 1_554 S
C968 C966 1.327 . S
C968 C987 1.429 . S
C968 H992 0.950 . S
C969 C986 1.574 . S
C969 C988 1.368 1_556 S
C969 H993 0.949 . S
H970 C974 0.949 . S
C971 C972 1.349 1_556 S
C971 C973 1.327 . S
C971 H994 0.950 . S
C972 C971 1.349 1_554 S
C972 C984 1.349 . S
C973 C971 1.327 . S
C973 C989 1.429 1_556 S
C973 H995 0.950 . S
C974 H970 0.949 . S
C974 C982 1.574 . S
C974 C990 1.368 . S
H975 C983 0.950 . S
H976 C981 0.950 . S
H977 C982 0.949 . S
H978 C984 0.950 . S
H979 C985 0.950 . S
H980 C986 0.949 . S
C981 H976 0.950 . S
C981 C983 1.327 . S
C981 C987 1.429 1_556 S
C982 C974 1.574 . S
C982 H977 0.949 . S
C982 C988 1.368 . S
C983 C967 1.349 1_556 S
C983 H975 0.950 . S
C983 C981 1.327 . S
C984 C972 1.349 . S
C984 H978 0.950 . S
C984 C985 1.327 . S
C985 H979 0.950 . S
C985 C984 1.327 . S
C985 C989 1.429 . S
C986 C969 1.574 . S
C986 H980 0.949 . S
C986 C990 1.368 1_556 S
C987 C968 1.429 . S
C987 C981 1.429 1_554 S
C987 C988 1.523 . S
C988 C969 1.368 1_554 S
C988 C982 1.368 . S
C988 C987 1.523 . S
C989 C973 1.429 1_554 S
C989 C985 1.429 . S
C989 C990 1.523 . S
C990 C974 1.368 . S
C990 C986 1.368 1_554 S
C990 C989 1.523 . S
H991 C966 0.950 . S
H992 C968 0.950 . S
H993 C969 0.949 . S
H994 C971 0.950 . S
H995 C973 0.950 . S
C996 C997 1.349 . S
C996 C998 1.327 . S
C996 H1021 0.950 . S
C997 C996 1.349 . S
C997 C1013 1.349 . S
C998 C996 1.327 . S
C998 C1017 1.429 . S
C998 H1022 0.950 . S
C999 C1016 1.574 . S
C999 C1018 1.368 1_556 S
C999 H1023 0.949 . S
H1000 C1004 0.949 . S
C1001 C1002 1.349 1_556 S
C1001 C1003 1.327 . S
C1001 H1024 0.950 . S
C1002 C1001 1.349 1_554 S
C1002 C1014 1.349 . S
C1003 C1001 1.327 . S
C1003 C1019 1.429 1_556 S
C1003 H1025 0.950 . S
C1004 H1000 0.949 . S
C1004 C1012 1.574 . S
C1004 C1020 1.368 . S
H1005 C1013 0.950 1_556 S
H1006 C1011 0.953 . S
H1007 C1012 0.949 . S
H1008 C1014 0.950 . S
H1009 C1015 0.950 . S
H1010 C1016 0.949 . S
C1011 H1006 0.953 . S
C1011 C1013 1.327 1_556 S
C1011 C1017 1.426 1_556 S
C1012 C1004 1.574 . S
C1012 H1007 0.949 . S
C1012 C1018 1.368 . S
C1013 C997 1.349 . S
C1013 H1005 0.950 1_554 S
C1013 C1011 1.327 1_554 S
C1014 C1002 1.349 . S
C1014 H1008 0.950 . S
C1014 C1015 1.327 . S
C1015 H1009 0.950 . S
C1015 C1014 1.327 . S
C1015 C1019 1.429 . S
C1016 C999 1.574 . S
C1016 H1010 0.949 . S
C1016 C1020 1.368 1_556 S
C1017 C998 1.429 . S
C1017 C1011 1.426 1_554 S
C1017 C1018 1.523 . S
C1018 C999 1.368 1_554 S
C1018 C1012 1.368 . S
C1018 C1017 1.523 . S
C1019 C1003 1.429 1_554 S
C1019 C1015 1.429 . S
C1019 C1020 1.523 . S
C1020 C1004 1.368 . S
C1020 C1016 1.368 1_554 S
C1020 C1019 1.523 . S
H1021 C996 0.950 . S
H1022 C998 0.950 . S
H1023 C999 0.949 . S
H1024 C1001 0.950 . S
H1025 C1003 0.950 . S
C1026 C1027 1.314 1_556 S
C1026 C1028 1.327 . S
C1026 H1051 0.950 . S
C1027 C1026 1.314 1_554 S
C1027 C1043 1.387 . S
C1028 C1026 1.327 . S
C1028 C1047 1.429 1_556 S
C1028 H1052 0.950 . S
C1029 C1046 1.574 . S
C1029 C1048 1.368 . S
C1029 H1053 0.949 . S
H1030 C1034 0.949 . S
C1031 C1032 1.349 . S
C1031 C1033 1.327 . S
C1031 H1054 0.950 . S
C1032 C1031 1.349 . S
C1032 C1044 1.349 1_554 S
C1033 C1031 1.327 . S
C1033 C1049 1.429 . S
C1033 H1055 0.950 . S
C1034 H1030 0.949 . S
C1034 C1042 1.574 . S
C1034 C1050 1.368 1_556 S
H1035 C1043 0.950 . S
H1036 C1041 0.950 . S
H1037 C1042 0.949 . S
H1038 C1044 0.950 . S
H1039 C1045 0.950 . S
H1040 C1046 0.949 . S
C1041 H1036 0.950 . S
C1041 C1043 1.327 . S
C1041 C1047 1.429 . S
C1042 C1034 1.574 . S
C1042 H1037 0.949 . S
C1042 C1048 1.368 1_556 S
C1043 C1027 1.387 . S
C1043 H1035 0.950 . S
C1043 C1041 1.327 . S
C1044 C1032 1.349 1_556 S
C1044 H1038 0.950 . S
C1044 C1045 1.327 . S
C1045 H1039 0.950 . S
C1045 C1044 1.327 . S
C1045 C1049 1.429 1_556 S
C1046 C1029 1.574 . S
C1046 H1040 0.949 . S
C1046 C1050 1.368 . S
C1047 C1028 1.429 1_554 S
C1047 C1041 1.429 . S
C1047 C1048 1.523 . S
C1048 C1029 1.368 . S
C1048 C1042 1.368 1_554 S
C1048 C1047 1.523 . S
C1049 C1033 1.429 . S
C1049 C1045 1.429 1_554 S
C1049 C1050 1.523 . S
C1050 C1034 1.368 1_554 S
C1050 C1046 1.368 . S
C1050 C1049 1.523 . S
H1051 C1026 0.950 . S
H1052 C1028 0.950 . S
H1053 C1029 0.949 . S
H1054 C1031 0.950 . S
H1055 C1033 0.950 . S
C1056 C1057 1.349 . S
C1056 C1058 1.327 . S
C1056 H1081 0.950 . S
C1057 C1056 1.349 . S
C1057 C1073 1.349 1_455 S
C1058 C1056 1.327 . S
C1058 C1077 1.429 . S
C1058 H1082 0.950 . S
C1059 C1076 1.574 . S
C1059 C1078 1.368 1_655 S
C1059 H1083 0.949 . S
H1060 C1064 0.949 . S
C1061 C1062 1.349 . S
C1061 C1063 1.327 . S
C1061 H1084 0.950 1_455 S
C1062 C1061 1.349 . S
C1062 C1074 1.349 . S
C1063 C1061 1.327 . S
C1063 C1079 1.429 . S
C1063 H1085 0.950 1_455 S
C1064 H1060 0.949 . S
C1064 C1072 1.574 . S
C1064 C1080 1.368 . S
H1065 C1073 0.950 . S
H1066 C1071 0.950 . S
H1067 C1072 0.949 . S
H1068 C1074 0.950 . S
H1069 C1075 0.950 . S
H1070 C1076 0.949 . S
C1071 H1066 0.950 . S
C1071 C1073 1.327 . S
C1071 C1077 1.429 1_655 S
C1072 C1064 1.574 . S
C1072 H1067 0.949 . S
C1072 C1078 1.368 . S
C1073 C1057 1.349 1_655 S
C1073 H1065 0.950 . S
C1073 C1071 1.327 . S
C1074 C1062 1.349 . S
C1074 H1068 0.950 . S
C1074 C1075 1.327 . S
C1075 H1069 0.950 . S
C1075 C1074 1.327 . S
C1075 C1079 1.429 . S
C1076 C1059 1.574 . S
C1076 H1070 0.949 . S
C1076 C1080 1.368 1_655 S
C1077 C1058 1.429 . S
C1077 C1071 1.429 1_455 S
C1077 C1078 1.523 . S
C1078 C1059 1.368 1_455 S
C1078 C1072 1.368 . S
C1078 C1077 1.523 . S
C1079 C1063 1.429 . S
C1079 C1075 1.429 . S
C1079 C1080 1.523 . S
C1080 C1064 1.368 . S
C1080 C1076 1.368 1_455 S
C1080 C1079 1.523 . S
H1081 C1056 0.950 . S
H1082 C1058 0.950 . S
H1083 C1059 0.949 . S
H1084 C1061 0.950 1_655 S
H1085 C1063 0.950 1_655 S
C1086 C1087 1.349 1_565 S
C1086 C1088 1.327 . S
C1086 H1111 0.950 . S
C1087 C1086 1.349 1_545 S
C1087 C1103 1.349 . S
C1088 C1086 1.327 . S
C1088 C1107 1.429 1_565 S
C1088 H1112 0.950 . S
C1089 C1106 1.574 . S
C1089 C1108 1.368 . S
C1089 H1113 0.949 . S
H1090 C1094 0.949 . S
C1091 C1092 1.349 . S
C1091 C1093 1.327 . S
C1091 H1114 0.950 . S
C1092 C1091 1.349 . S
C1092 C1104 1.349 . S
C1093 C1091 1.327 . S
C1093 C1109 1.429 . S
C1093 H1115 0.950 . S
C1094 H1090 0.949 . S
C1094 C1102 1.574 . S
C1094 C1110 1.368 1_565 S
H1095 C1103 0.950 . S
H1096 C1101 0.950 . S
H1097 C1102 0.949 . S
H1098 C1104 0.950 1_565 S
H1099 C1105 0.950 1_565 S
H1100 C1106 0.949 . S
C1101 H1096 0.950 . S
C1101 C1103 1.327 . S
C1101 C1107 1.429 . S
C1102 C1094 1.574 . S
C1102 H1097 0.949 . S
C1102 C1108 1.368 1_565 S
C1103 C1087 1.349 . S
C1103 H1095 0.950 . S
C1103 C1101 1.327 . S
C1104 C1092 1.349 . S
C1104 H1098 0.950 1_545 S
C1104 C1105 1.327 . S
C1105 H1099 0.950 1_545 S
C1105 C1104 1.327 . S
C1105 C1109 1.429 . S
C1106 C1089 1.574 . S
C1106 H1100 0.949 . S
C1106 C1110 1.368 . S
C1107 C1088 1.429 1_545 S
C1107 C1101 1.429 . S
C1107 C1108 1.523 . S
C1108 C1089 1.368 . S
C1108 C1102 1.368 1_545 S
C1108 C1107 1.523 . S
C1109 C1093 1.429 . S
C1109 C1105 1.429 . S
C1109 C1110 1.523 . S
C1110 C1094 1.368 1_545 S
C1110 C1106 1.368 . S
C1110 C1109 1.523 . S
H1111 C1086 0.950 . S
H1112 C1088 0.950 . S
H1113 C1089 0.949 . S
H1114 C1091 0.950 . S
H1115 C1093 0.950 . S
C1116 C1117 1.349 . S
C1116 C1118 1.327 . S
C1116 H1141 0.950 . S
C1117 C1116 1.349 . S
C1117 C1133 1.349 . S
C1118 C1116 1.327 . S
C1118 C1137 1.429 . S
C1118 H1142 0.950 . S
C1119 C1136 1.574 . S
C1119 C1138 1.368 . S
C1119 H1143 0.969 . S
H1120 C1124 0.949 . S
C1121 C1122 1.349 . S
C1121 C1123 1.327 . S
C1121 H1144 0.950 1_455 S
C1122 C1121 1.349 . S
C1122 C1134 1.349 . S
C1123 C1121 1.327 . S
C1123 C1139 1.429 . S
C1123 H1145 0.950 1_455 S
C1124 H1120 0.949 . S
C1124 C1132 1.574 . S
C1124 C1140 1.368 . S
H1125 C1133 0.950 . S
H1126 C1131 0.950 . S
H1127 C1132 0.949 . S
H1128 C1134 0.950 . S
H1129 C1135 0.950 . S
H1130 C1136 0.935 1_655 S
C1131 H1126 0.950 . S
C1131 C1133 1.327 . S
C1131 C1137 1.429 . S
C1132 C1124 1.574 . S
C1132 H1127 0.949 . S
C1132 C1138 1.368 . S
C1133 C1117 1.349 . S
C1133 H1125 0.950 . S
C1133 C1131 1.327 . S
C1134 C1122 1.349 . S
C1134 H1128 0.950 . S
C1134 C1135 1.327 . S
C1135 H1129 0.950 . S
C1135 C1134 1.327 . S
C1135 C1139 1.429 . S
C1136 C1119 1.574 . S
C1136 H1130 0.935 1_455 S
C1136 C1140 1.368 . S
C1137 C1118 1.429 . S
C1137 C1131 1.429 . S
C1137 C1138 1.523 . S
C1138 C1119 1.368 . S
C1138 C1132 1.368 . S
C1138 C1137 1.523 . S
C1139 C1123 1.429 . S
C1139 C1135 1.429 . S
C1139 C1140 1.523 . S
C1140 C1124 1.368 . S
C1140 C1136 1.368 . S
C1140 C1139 1.523 . S
H1141 C1116 0.950 . S
H1142 C1118 0.950 . S
H1143 C1119 0.969 . S
H1144 C1121 0.950 1_655 S
H1145 C1123 0.950 1_655 S
C1146 C1147 1.349 . S
C1146 C1148 1.327 . S
C1146 H1171 0.950 . S
C1147 C1146 1.349 . S
C1147 C1163 1.349 . S
C1148 C1146 1.327 . S
C1148 C1167 1.429 . S
C1148 H1172 0.950 . S
C1149 C1166 1.574 . S
C1149 C1168 1.368 . S
C1149 H1173 0.949 . S
H1150 C1154 0.957 . S
C1151 C1152 1.349 . S
C1151 C1153 1.327 . S
C1151 H1174 0.950 . S
C1152 C1151 1.349 . S
C1152 C1164 1.349 . S
C1153 C1151 1.327 . S
C1153 C1169 1.429 . S
C1153 H1175 0.950 . S
C1154 H1150 0.957 . S
C1154 C1162 1.574 . S
C1154 C1170 1.368 . S
H1155 C1163 0.950 . S
H1156 C1161 0.950 . S
H1157 C1162 0.949 . S
H1158 C1164 0.950 1_565 S
H1159 C1165 0.950 1_565 S
H1160 C1166 0.949 . S
C1161 H1156 0.950 . S
C1161 C1163 1.327 . S
C1161 C1167 1.429 . S
C1162 C1154 1.574 . S
C1162 H1157 0.949 . S
C1162 C1168 1.368 . S
C1163 C1147 1.349 . S
C1163 H1155 0.950 . S
C1163 C1161 1.327 . S
C1164 C1152 1.349 . S
C1164 H1158 0.950 1_545 S
C1164 C1165 1.327 . S
C1165 H1159 0.950 1_545 S
C1165 C1164 1.327 . S
C1165 C1169 1.429 . S
C1166 C1149 1.574 . S
C1166 H1160 0.949 . S
C1166 C1170 1.368 . S
C1167 C1148 1.429 . S
C1167 C1161 1.429 . S
C1167 C1168 1.523 . S
C1168 C1149 1.368 . S
C1168 C1162 1.368 . S
C1168 C1167 1.523 . S
C1169 C1153 1.429 . S
C1169 C1165 1.429 . S
C1169 C1170 1.523 . S
C1170 C1154 1.368 . S
C1170 C1166 1.368 . S
C1170 C1169 1.523 . S
H1171 C1146 0.950 . S
H1172 C1148 0.950 . S
H1173 C1149 0.949 . S
H1174 C1151 0.950 . S
H1175 C1153 0.950 . S
C1176 C1177 1.349 . S
C1176 C1178 1.327 . S
C1176 H1201 0.950 . S
C1177 C1176 1.349 . S
C1177 C1193 1.349 . S
C1178 C1176 1.327 . S
C1178 C1197 1.429 . S
C1178 H1202 0.950 . S
C1179 C1196 1.574 . S
C1179 C1198 1.368 . S
C1179 H1203 0.949 . S
H1180 C1184 0.949 . S
C1181 C1182 1.349 . S
C1181 C1183 1.327 . S
C1181 H1204 0.968 . S
C1182 C1181 1.349 . S
C1182 C1194 1.349 . S
C1183 C1181 1.327 . S
C1183 C1199 1.429 . S
C1183 H1205 0.980 . S
C1184 H1180 0.949 . S
C1184 C1192 1.574 . S
C1184 C1200 1.368 . S
H1185 C1193 0.950 . S
H1186 C1191 0.950 . S
H1187 C1192 0.949 . S
H1188 C1194 0.950 . S
H1189 C1195 0.950 . S
H1190 C1196 0.949 . S
C1191 H1186 0.950 . S
C1191 C1193 1.327 . S
C1191 C1197 1.429 . S
C1192 C1184 1.574 . S
C1192 H1187 0.949 . S
C1192 C1198 1.368 . S
C1193 C1177 1.349 . S
C1193 H1185 0.950 . S
C1193 C1191 1.327 . S
C1194 C1182 1.349 . S
C1194 H1188 0.950 . S
C1194 C1195 1.327 . S
C1195 H1189 0.950 . S
C1195 C1194 1.327 . S
C1195 C1199 1.429 . S
C1196 C1179 1.574 . S
C1196 H1190 0.949 . S
C1196 C1200 1.368 . S
C1197 C1178 1.429 . S
C1197 C1191 1.429 . S
C1197 C1198 1.523 . S
C1198 C1179 1.368 . S
C1198 C1192 1.368 . S
C1198 C1197 1.523 . S
C1199 C1183 1.429 . S
C1199 C1195 1.429 . S
C1199 C1200 1.523 . S
C1200 C1184 1.368 . S
C1200 C1196 1.368 . S
C1200 C1199 1.523 . S
H1201 C1176 0.950 . S
H1202 C1178 0.950 . S
H1203 C1179 0.949 . S
H1204 C1181 0.968 . S
H1205 C1183 0.980 . S
C1206 C1207 1.349 . S
C1206 C1208 1.327 . S
C1206 H1231 0.950 . S
C1207 C1206 1.349 . S
C1207 C1223 1.349 . S
C1208 C1206 1.327 . S
C1208 C1227 1.429 . S
C1208 H1232 0.950 . S
C1209 C1226 1.574 . S
C1209 C1228 1.368 . S
C1209 H1233 0.949 . S
H1210 C1214 0.949 . S
C1211 C1212 1.349 . S
C1211 C1213 1.327 . S
C1211 H1234 0.950 1_545 S
C1212 C1211 1.349 . S
C1212 C1224 1.349 . S
C1213 C1211 1.327 . S
C1213 C1229 1.429 . S
C1213 H1235 0.950 1_545 S
C1214 H1210 0.949 . S
C1214 C1222 1.574 . S
C1214 C1230 1.368 . S
H1215 C1223 0.950 . S
H1216 C1221 0.950 . S
H1217 C1222 0.949 . S
H1218 C1224 0.950 . S
H1219 C1225 0.950 . S
H1220 C1226 0.932 1_565 S
C1221 H1216 0.950 . S
C1221 C1223 1.327 . S
C1221 C1227 1.429 . S
C1222 C1214 1.574 . S
C1222 H1217 0.949 . S
C1222 C1228 1.368 . S
C1223 C1207 1.349 . S
C1223 H1215 0.950 . S
C1223 C1221 1.327 . S
C1224 C1212 1.349 . S
C1224 H1218 0.950 . S
C1224 C1225 1.327 . S
C1225 H1219 0.950 . S
C1225 C1224 1.327 . S
C1225 C1229 1.429 . S
C1226 C1209 1.574 . S
C1226 H1220 0.932 1_545 S
C1226 C1230 1.368 . S
C1227 C1208 1.429 . S
C1227 C1221 1.429 . S
C1227 C1228 1.523 . S
C1228 C1209 1.368 . S
C1228 C1222 1.368 . S
C1228 C1227 1.523 . S
C1229 C1213 1.429 . S
C1229 C1225 1.429 . S
C1229 C1230 1.523 . S
C1230 C1214 1.368 . S
C1230 C1226 1.368 . S
C1230 C1229 1.523 . S
H1231 C1206 0.950 . S
H1232 C1208 0.950 . S
H1233 C1209 0.949 . S
H1234 C1211 0.950 1_565 S
H1235 C1213 0.950 1_565 S
C1236 C1237 1.349 . S
C1236 C1238 1.327 . S
C1236 H1261 0.950 1_455 S
C1237 C1236 1.349 . S
C1237 C1253 1.349 . S
C1238 C1236 1.327 . S
C1238 C1257 1.429 . S
C1238 H1262 0.950 1_455 S
C1239 C1256 1.574 . S
C1239 C1258 1.368 . S
C1239 H1263 0.949 . S
H1240 C1244 0.949 1_655 S
C1241 C1242 1.349 . S
C1241 C1243 1.327 . S
C1241 H1264 0.950 . S
C1242 C1241 1.349 . S
C1242 C1254 1.349 . S
C1243 C1241 1.327 . S
C1243 C1259 1.429 . S
C1243 H1265 0.950 . S
C1244 H1240 0.949 1_455 S
C1244 C1252 1.574 . S
C1244 C1260 1.368 . S
H1245 C1253 0.950 . S
H1246 C1251 0.950 . S
H1247 C1252 0.949 1_655 S
H1248 C1254 0.950 1_655 S
H1249 C1255 0.950 1_655 S
H1250 C1256 0.949 . S
C1251 H1246 0.950 . S
C1251 C1253 1.327 . S
C1251 C1257 1.429 . S
C1252 C1244 1.574 . S
C1252 H1247 0.949 1_455 S
C1252 C1258 1.368 . S
C1253 C1237 1.349 . S
C1253 H1245 0.950 . S
C1253 C1251 1.327 . S
C1254 C1242 1.349 . S
C1254 H1248 0.950 1_455 S
C1254 C1255 1.327 . S
C1255 H1249 0.950 1_455 S
C1255 C1254 1.327 . S
C1255 C1259 1.429 . S
C1256 C1239 1.574 . S
C1256 H1250 0.949 . S
C1256 C1260 1.368 . S
C1257 C1238 1.429 . S
C1257 C1251 1.429 . S
C1257 C1258 1.523 . S
C1258 C1239 1.368 . S
C1258 C1252 1.368 . S
C1258 C1257 1.523 . S
C1259 C1243 1.429 . S
C1259 C1255 1.429 . S
C1259 C1260 1.523 . S
C1260 C1244 1.368 . S
C1260 C1256 1.368 . S
C1260 C1259 1.523 . S
H1261 C1236 0.950 1_655 S
H1262 C1238 0.950 1_655 S
H1263 C1239 0.949 . S
H1264 C1241 0.950 . S
H1265 C1243 0.950 . S
C1266 C1267 1.349 1_565 S
C1266 C1268 1.327 . S
C1266 H1291 0.950 . S
C1267 C1266 1.349 1_545 S
C1267 C1283 1.349 . S
C1268 C1266 1.327 . S
C1268 C1287 1.429 1_565 S
C1268 H1292 0.950 . S
C1269 C1286 1.574 . S
C1269 C1288 1.368 . S
C1269 H1293 0.949 . S
H1270 C1274 0.949 . S
C1271 C1272 1.349 . S
C1271 C1273 1.327 . S
C1271 H1294 0.950 . S
C1272 C1271 1.349 . S
C1272 C1284 1.346 1_545 S
C1273 C1271 1.327 . S
C1273 C1289 1.429 . S
C1273 H1295 0.950 . S
C1274 H1270 0.949 . S
C1274 C1282 1.574 . S
C1274 C1290 1.368 1_565 S
H1275 C1283 0.950 . S
H1276 C1281 0.950 . S
H1277 C1282 0.949 . S
H1278 C1284 0.953 . S
H1279 C1285 0.950 . S
H1280 C1286 0.949 . S
C1281 H1276 0.950 . S
C1281 C1283 1.327 . S
C1281 C1287 1.429 . S
C1282 C1274 1.574 . S
C1282 H1277 0.949 . S
C1282 C1288 1.368 1_565 S
C1283 C1267 1.349 . S
C1283 H1275 0.950 . S
C1283 C1281 1.327 . S
C1284 C1272 1.346 1_565 S
C1284 H1278 0.953 . S
C1284 C1285 1.328 . S
C1285 H1279 0.950 . S
C1285 C1284 1.328 . S
C1285 C1289 1.429 1_565 S
C1286 C1269 1.574 . S
C1286 H1280 0.949 . S
C1286 C1290 1.368 . S
C1287 C1268 1.429 1_545 S
C1287 C1281 1.429 . S
C1287 C1288 1.523 . S
C1288 C1269 1.368 . S
C1288 C1282 1.368 1_545 S
C1288 C1287 1.523 . S
C1289 C1273 1.429 . S
C1289 C1285 1.429 1_545 S
C1289 C1290 1.523 . S
C1290 C1274 1.368 1_545 S
C1290 C1286 1.368 . S
C1290 C1289 1.523 . S
H1291 C1266 0.950 . S
H1292 C1268 0.950 . S
H1293 C1269 0.949 . S
H1294 C1271 0.950 . S
H1295 C1273 0.950 . S
C1296 C1297 1.349 . S
C1296 C1298 1.327 . S
C1296 H1321 0.950 . S
C1297 C1296 1.349 . S
C1297 C1313 1.349 . S
C1298 C1296 1.327 . S
C1298 C1317 1.429 . S
C1298 H1322 0.950 . S
C1299 C1316 1.574 . S
C1299 C1318 1.368 . S
C1299 H1323 0.949 . S
H1300 C1304 0.949 . S
C1301 C1302 1.349 . S
C1301 C1303 1.327 . S
C1301 H1324 0.950 . S
C1302 C1301 1.349 . S
C1302 C1314 1.349 . S
C1303 C1301 1.327 . S
C1303 C1319 1.429 . S
C1303 H1325 0.950 . S
C1304 H1300 0.949 . S
C1304 C1312 1.574 . S
C1304 C1320 1.368 . S
H1305 C1313 0.950 . S
H1306 C1311 0.950 . S
H1307 C1312 0.949 . S
H1308 C1314 0.950 . S
H1309 C1315 0.950 . S
H1310 C1316 0.949 . S
C1311 H1306 0.950 . S
C1311 C1313 1.327 . S
C1311 C1317 1.429 . S
C1312 C1304 1.574 . S
C1312 H1307 0.949 . S
C1312 C1318 1.368 . S
C1313 C1297 1.349 . S
C1313 H1305 0.950 . S
C1313 C1311 1.327 . S
C1314 C1302 1.349 . S
C1314 H1308 0.950 . S
C1314 C1315 1.327 . S
C1315 H1309 0.950 . S
C1315 C1314 1.327 . S
C1315 C1319 1.429 . S
C1316 C1299 1.574 . S
C1316 H1310 0.949 . S
C1316 C1320 1.368 . S
C1317 C1298 1.429 . S
C1317 C1311 1.429 . S
C1317 C1318 1.523 . S
C1318 C1299 1.368 . S
C1318 C1312 1.368 . S
C1318 C1317 1.523 . S
C1319 C1303 1.429 . S
C1319 C1315 1.429 . S
C1319 C1320 1.523 . S
C1320 C1304 1.368 . S
C1320 C1316 1.368 . S
C1320 C1319 1.523 . S
H1321 C1296 0.950 . S
H1322 C1298 0.950 . S
H1323 C1299 0.949 . S
H1324 C1301 0.950 . S
H1325 C1303 0.950 . S
C1326 C1327 1.349 . S
C1326 C1328 1.327 . S
C1326 H1351 0.950 . S
C1327 C1326 1.349 . S
C1327 C1343 1.349 . S
C1328 C1326 1.327 . S
C1328 C1347 1.429 . S
C1328 H1352 0.950 . S
C1329 C1346 1.574 . S
C1329 C1348 1.368 . S
C1329 H1353 0.949 . S
H1330 C1334 0.950 . S
C1331 C1332 1.349 . S
C1331 C1333 1.327 . S
C1331 H1354 0.950 . S
C1332 C1331 1.349 . S
C1332 C1344 1.349 . S
C1333 C1331 1.327 . S
C1333 C1349 1.429 . S
C1333 H1355 0.950 . S
C1334 H1330 0.950 . S
C1334 C1342 1.574 . S
C1334 C1350 1.368 . S
H1335 C1343 0.950 . S
H1336 C1341 0.950 . S
H1337 C1342 0.949 . S
H1338 C1344 0.950 1_565 S
H1339 C1345 0.950 1_565 S
H1340 C1346 0.949 . S
C1341 H1336 0.950 . S
C1341 C1343 1.327 . S
C1341 C1347 1.429 . S
C1342 C1334 1.574 . S
C1342 H1337 0.949 . S
C1342 C1348 1.368 . S
C1343 C1327 1.349 . S
C1343 H1335 0.950 . S
C1343 C1341 1.327 . S
C1344 C1332 1.349 . S
C1344 H1338 0.950 1_545 S
C1344 C1345 1.327 . S
C1345 H1339 0.950 1_545 S
C1345 C1344 1.327 . S
C1345 C1349 1.429 . S
C1346 C1329 1.574 . S
C1346 H1340 0.949 . S
C1346 C1350 1.368 . S
C1347 C1328 1.429 . S
C1347 C1341 1.429 . S
C1347 C1348 1.523 . S
C1348 C1329 1.368 . S
C1348 C1342 1.368 . S
C1348 C1347 1.523 . S
C1349 C1333 1.429 . S
C1349 C1345 1.429 . S
C1349 C1350 1.523 . S
C1350 C1334 1.368 . S
C1350 C1346 1.368 . S
C1350 C1349 1.523 . S
H1351 C1326 0.950 . S
H1352 C1328 0.950 . S
H1353 C1329 0.949 . S
H1354 C1331 0.950 . S
H1355 C1333 0.950 . S
C1356 C1357 1.349 . S
C1356 C1358 1.327 . S
C1356 H1381 0.950 . S
C1357 C1356 1.349 . S
C1357 C1373 1.349 . S
C1358 C1356 1.327 . S
C1358 C1377 1.429 . S
C1358 H1382 0.950 . S
C1359 C1376 1.574 . S
C1359 C1378 1.368 . S
C1359 H1383 0.949 . S
H1360 C1364 0.949 . S
C1361 C1362 1.349 . S
C1361 C1363 1.327 . S
C1361 H1384 0.950 . S
C1362 C1361 1.349 . S
C1362 C1374 1.349 . S
C1363 C1361 1.327 . S
C1363 C1379 1.429 . S
C1363 H1385 0.950 . S
C1364 H1360 0.949 . S
C1364 C1372 1.574 . S
C1364 C1380 1.368 . S
H1365 C1373 0.950 . S
H1366 C1371 0.950 . S
H1367 C1372 0.949 . S
H1368 C1374 0.950 . S
H1369 C1375 0.950 . S
H1370 C1376 0.949 . S
C1371 H1366 0.950 . S
C1371 C1373 1.327 . S
C1371 C1377 1.429 . S
C1372 C1364 1.574 . S
C1372 H1367 0.949 . S
C1372 C1378 1.368 . S
C1373 C1357 1.349 . S
C1373 H1365 0.950 . S
C1373 C1371 1.327 . S
C1374 C1362 1.349 . S
C1374 H1368 0.950 . S
C1374 C1375 1.327 . S
C1375 H1369 0.950 . S
C1375 C1374 1.327 . S
C1375 C1379 1.429 . S
C1376 C1359 1.574 . S
C1376 H1370 0.949 . S
C1376 C1380 1.368 . S
C1377 C1358 1.429 . S
C1377 C1371 1.429 . S
C1377 C1378 1.523 . S
C1378 C1359 1.368 . S
C1378 C1372 1.368 . S
C1378 C1377 1.523 . S
C1379 C1363 1.429 . S
C1379 C1375 1.429 . S
C1379 C1380 1.523 . S
C1380 C1364 1.368 . S
C1380 C1376 1.368 . S
C1380 C1379 1.523 . S
H1381 C1356 0.950 . S
H1382 C1358 0.950 . S
H1383 C1359 0.949 . S
H1384 C1361 0.950 . S
H1385 C1363 0.950 . S
C1386 C1387 1.349 1_565 S
C1386 C1388 1.327 . S
C1386 H1411 0.950 . S
C1387 C1386 1.349 1_545 S
C1387 C1403 1.349 . S
C1388 C1386 1.327 . S
C1388 C1407 1.429 1_565 S
C1388 H1412 0.950 . S
C1389 C1406 1.574 . S
C1389 C1408 1.368 . S
C1389 H1413 0.949 . S
H1390 C1394 0.949 . S
C1391 C1392 1.349 . S
C1391 C1393 1.327 . S
C1391 H1414 0.950 . S
C1392 C1391 1.349 . S
C1392 C1404 1.349 . S
C1393 C1391 1.327 . S
C1393 C1409 1.429 . S
C1393 H1415 0.950 . S
C1394 H1390 0.949 . S
C1394 C1402 1.574 . S
C1394 C1410 1.368 1_565 S
H1395 C1403 0.950 . S
H1396 C1401 0.950 . S
H1397 C1402 0.949 . S
H1398 C1404 0.950 1_565 S
H1399 C1405 0.935 1_565 S
H1400 C1406 0.949 . S
C1401 H1396 0.950 . S
C1401 C1403 1.327 . S
C1401 C1407 1.429 . S
C1402 C1394 1.574 . S
C1402 H1397 0.949 . S
C1402 C1408 1.368 1_565 S
C1403 C1387 1.349 . S
C1403 H1395 0.950 . S
C1403 C1401 1.327 . S
C1404 C1392 1.349 . S
C1404 H1398 0.950 1_545 S
C1404 C1405 1.329 . S
C1405 H1399 0.935 1_545 S
C1405 C1404 1.329 . S
C1405 C1409 1.441 . S
C1406 C1389 1.574 . S
C1406 H1400 0.949 . S
C1406 C1410 1.368 . S
C1407 C1388 1.429 1_545 S
C1407 C1401 1.429 . S
C1407 C1408 1.523 . S
C1408 C1389 1.368 . S
C1408 C1402 1.368 1_545 S
C1408 C1407 1.523 . S
C1409 C1393 1.429 . S
C1409 C1405 1.441 . S
C1409 C1410 1.523 . S
C1410 C1394 1.368 1_545 S
C1410 C1406 1.368 . S
C1410 C1409 1.523 . S
H1411 C1386 0.950 . S
H1412 C1388 0.950 . S
H1413 C1389 0.949 . S
H1414 C1391 0.950 . S
H1415 C1393 0.950 . S
C1416 C1417 1.349 1_655 S
C1416 C1418 1.327 . S
C1416 H1441 0.950 . S
C1417 C1416 1.349 1_455 S
C1417 C1433 1.349 . S
C1418 C1416 1.327 . S
C1418 C1437 1.429 1_655 S
C1418 H1442 0.950 . S
C1419 C1436 1.574 . S
C1419 C1438 1.368 . S
C1419 H1443 0.949 . S
H1420 C1424 0.949 1_655 S
C1421 C1422 1.349 . S
C1421 C1423 1.327 . S
C1421 H1444 0.950 . S
C1422 C1421 1.349 . S
C1422 C1434 1.349 . S
C1423 C1421 1.327 . S
C1423 C1439 1.429 . S
C1423 H1445 0.950 . S
C1424 H1420 0.949 1_455 S
C1424 C1432 1.579 . S
C1424 C1440 1.368 . S
H1425 C1433 0.950 . S
H1426 C1431 0.950 . S
H1427 C1432 0.930 1_655 S
H1428 C1434 0.950 . S
H1429 C1435 0.950 . S
H1430 C1436 0.949 . S
C1431 H1426 0.950 . S
C1431 C1433 1.327 . S
C1431 C1437 1.429 . S
C1432 C1424 1.579 . S
C1432 H1427 0.930 1_455 S
C1432 C1438 1.387 . S
C1433 C1417 1.349 . S
C1433 H1425 0.950 . S
C1433 C1431 1.327 . S
C1434 C1422 1.349 . S
C1434 H1428 0.950 . S
C1434 C1435 1.327 . S
C1435 H1429 0.950 . S
C1435 C1434 1.327 . S
C1435 C1439 1.429 . S
C1436 C1419 1.574 . S
C1436 H1430 0.949 . S
C1436 C1440 1.368 . S
C1437 C1418 1.429 1_455 S
C1437 C1431 1.429 . S
C1437 C1438 1.523 . S
C1438 C1419 1.368 . S
C1438 C1432 1.387 . S
C1438 C1437 1.523 . S
C1439 C1423 1.429 . S
C1439 C1435 1.429 . S
C1439 C1440 1.523 . S
C1440 C1424 1.368 . S
C1440 C1436 1.368 . S
C1440 C1439 1.523 . S
H1441 C1416 0.950 . S
H1442 C1418 0.950 . S
H1443 C1419 0.949 . S
H1444 C1421 0.950 . S
H1445 C1423 0.950 . S
C1446 C1447 1.349 1_565 S
C1446 C1448 1.327 . S
C1446 H1471 0.950 . S
C1447 C1446 1.349 1_545 S
C1447 C1463 1.349 . S
C1448 C1446 1.327 . S
C1448 C1467 1.429 1_565 S
C1448 H1472 0.950 . S
C1449 C1466 1.574 . S
C1449 C1468 1.368 . S
C1449 H1473 0.949 . S
H1450 C1454 0.949 . S
C1451 C1452 1.349 . S
C1451 C1453 1.327 . S
C1451 H1474 0.950 . S
C1452 C1451 1.349 . S
C1452 C1464 1.340 1_545 S
C1453 C1451 1.327 . S
C1453 C1469 1.429 . S
C1453 H1475 0.950 . S
C1454 H1450 0.949 . S
C1454 C1462 1.574 . S
C1454 C1470 1.368 1_565 S
H1455 C1463 0.950 . S
H1456 C1461 0.950 . S
H1457 C1462 0.949 . S
H1458 C1464 0.958 . S
H1459 C1465 0.950 . S
H1460 C1466 0.949 . S
C1461 H1456 0.950 . S
C1461 C1463 1.327 . S
C1461 C1467 1.429 . S
C1462 C1454 1.574 . S
C1462 H1457 0.949 . S
C1462 C1468 1.368 1_565 S
C1463 C1447 1.349 . S
C1463 H1455 0.950 . S
C1463 C1461 1.327 . S
C1464 C1452 1.340 1_565 S
C1464 H1458 0.958 . S
C1464 C1465 1.328 . S
C1465 H1459 0.950 . S
C1465 C1464 1.328 . S
C1465 C1469 1.429 1_565 S
C1466 C1449 1.574 . S
C1466 H1460 0.949 . S
C1466 C1470 1.368 . S
C1467 C1448 1.429 1_545 S
C1467 C1461 1.429 . S
C1467 C1468 1.523 . S
C1468 C1449 1.368 . S
C1468 C1462 1.368 1_545 S
C1468 C1467 1.523 . S
C1469 C1453 1.429 . S
C1469 C1465 1.429 1_545 S
C1469 C1470 1.523 . S
C1470 C1454 1.368 1_545 S
C1470 C1466 1.368 . S
C1470 C1469 1.523 . S
H1471 C1446 0.950 . S
H1472 C1448 0.950 . S
H1473 C1449 0.949 . S
H1474 C1451 0.950 . S
H1475 C1453 0.950 . S
C1476 C1477 1.349 . S
C1476 C1478 1.327 . S
C1476 H1501 0.950 . S
C1477 C1476 1.349 . S
C1477 C1493 1.349 . S
C1478 C1476 1.327 . S
C1478 C1497 1.429 . S
C1478 H1502 0.950 . S
C1479 C1496 1.574 . S
C1479 C1498 1.368 . S
C1479 H1503 0.949 . S
H1480 C1484 0.949 . S
C1481 C1482 1.349 . S
C1481 C1483 1.327 . S
C1481 H1504 0.950 . S
C1482 C1481 1.349 . S
C1482 C1494 1.349 . S
C1483 C1481 1.327 . S
C1483 C1499 1.429 . S
C1483 H1505 0.950 . S
C1484 H1480 0.949 . S
C1484 C1492 1.574 . S
C1484 C1500 1.368 . S
H1485 C1493 0.950 . S
H1486 C1491 0.950 . S
H1487 C1492 0.949 . S
H1488 C1494 0.950 . S
H1489 C1495 0.950 . S
H1490 C1496 0.949 . S
C1491 H1486 0.950 . S
C1491 C1493 1.327 . S
C1491 C1497 1.429 . S
C1492 C1484 1.574 . S
C1492 H1487 0.949 . S
C1492 C1498 1.368 . S
C1493 C1477 1.349 . S
C1493 H1485 0.950 . S
C1493 C1491 1.327 . S
C1494 C1482 1.349 . S
C1494 H1488 0.950 . S
C1494 C1495 1.327 . S
C1495 H1489 0.950 . S
C1495 C1494 1.327 . S
C1495 C1499 1.429 . S
C1496 C1479 1.574 . S
C1496 H1490 0.949 . S
C1496 C1500 1.368 . S
C1497 C1478 1.429 . S
C1497 C1491 1.429 . S
C1497 C1498 1.523 . S
C1498 C1479 1.368 . S
C1498 C1492 1.368 . S
C1498 C1497 1.523 . S
C1499 C1483 1.429 . S
C1499 C1495 1.429 . S
C1499 C1500 1.523 . S
C1500 C1484 1.368 . S
C1500 C1496 1.368 . S
C1500 C1499 1.523 . S
H1501 C1476 0.950 . S
H1502 C1478 0.950 . S
H1503 C1479 0.949 . S
H1504 C1481 0.950 . S
H1505 C1483 0.950 . S
C1506 C1507 1.349 . S
C1506 C1508 1.327 . S
C1506 H1531 0.950 . S
C1507 C1506 1.349 . S
C1507 C1523 1.349 . S
C1508 C1506 1.327 . S
C1508 C1527 1.429 . S
C1508 H1532 0.950 . S
C1509 C1526 1.574 . S
C1509 C1528 1.368 . S
C1509 H1533 0.949 . S
H1510 C1514 0.942 1_565 S
C1511 C1512 1.349 . S
C1511 C1513 1.327 . S
C1511 H1534 0.950 . S
C1512 C1511 1.349 . S
C1512 C1524 1.349 . S
C1513 C1511 1.327 . S
C1513 C1529 1.429 . S
C1513 H1535 0.950 . S
C1514 H1510 0.942 1_545 S
C1514 C1522 1.574 . S
C1514 C1530 1.368 . S
H1515 C1523 0.950 . S
H1516 C1521 0.950 . S
H1517 C1522 0.949 . S
H1518 C1524 0.950 1_565 S
H1519 C1525 0.950 1_565 S
H1520 C1526 0.949 . S
C1521 H1516 0.950 . S
C1521 C1523 1.327 . S
C1521 C1527 1.429 . S
C1522 C1514 1.574 . S
C1522 H1517 0.949 . S
C1522 C1528 1.368 . S
C1523 C1507 1.349 . S
C1523 H1515 0.950 . S
C1523 C1521 1.327 . S
C1524 C1512 1.349 . S
C1524 H1518 0.950 1_545 S
C1524 C1525 1.327 . S
C1525 H1519 0.950 1_545 S
C1525 C1524 1.327 . S
C1525 C1529 1.429 . S
C1526 C1509 1.574 . S
C1526 H1520 0.949 . S
C1526 C1530 1.368 . S
C1527 C1508 1.429 . S
C1527 C1521 1.429 . S
C1527 C1528 1.523 . S
C1528 C1509 1.368 . S
C1528 C1522 1.368 . S
C1528 C1527 1.523 . S
C1529 C1513 1.429 . S
C1529 C1525 1.429 . S
C1529 C1530 1.523 . S
C1530 C1514 1.368 . S
C1530 C1526 1.368 . S
C1530 C1529 1.523 . S
H1531 C1506 0.950 . S
H1532 C1508 0.950 . S
H1533 C1509 0.949 . S
H1534 C1511 0.950 . S
H1535 C1513 0.950 . S
C1536 C1537 1.349 1_565 S
C1536 C1538 1.327 . S
C1536 H1561 0.950 . S
C1537 C1536 1.349 1_545 S
C1537 C1553 1.349 . S
C1538 C1536 1.327 . S
C1538 C1557 1.429 1_565 S
C1538 H1562 0.950 . S
C1539 C1556 1.574 . S
C1539 C1558 1.368 . S
C1539 H1563 0.949 . S
H1540 C1544 0.957 . S
C1541 C1542 1.349 . S
C1541 C1543 1.327 . S
C1541 H1564 0.950 . S
C1542 C1541 1.349 . S
C1542 C1554 1.349 . S
C1543 C1541 1.327 . S
C1543 C1559 1.429 . S
C1543 H1565 0.950 . S
C1544 H1540 0.957 . S
C1544 C1552 1.575 . S
C1544 C1560 1.359 1_565 S
H1545 C1553 0.950 . S
H1546 C1551 0.950 . S
H1547 C1552 0.949 . S
H1548 C1554 0.950 1_565 S
H1549 C1555 0.950 1_565 S
H1550 C1556 0.949 . S
C1551 H1546 0.950 . S
C1551 C1553 1.327 . S
C1551 C1557 1.429 . S
C1552 C1544 1.575 . S
C1552 H1547 0.949 . S
C1552 C1558 1.368 1_565 S
C1553 C1537 1.349 . S
C1553 H1545 0.950 . S
C1553 C1551 1.327 . S
C1554 C1542 1.349 . S
C1554 H1548 0.950 1_545 S
C1554 C1555 1.327 . S
C1555 H1549 0.950 1_545 S
C1555 C1554 1.327 . S
C1555 C1559 1.429 . S
C1556 C1539 1.574 . S
C1556 H1550 0.949 . S
C1556 C1560 1.368 . S
C1557 C1538 1.429 1_545 S
C1557 C1551 1.429 . S
C1557 C1558 1.523 . S
C1558 C1539 1.368 . S
C1558 C1552 1.368 1_545 S
C1558 C1557 1.523 . S
C1559 C1543 1.429 . S
C1559 C1555 1.429 . S
C1559 C1560 1.523 . S
C1560 C1544 1.359 1_545 S
C1560 C1556 1.368 . S
C1560 C1559 1.523 . S
H1561 C1536 0.950 . S
H1562 C1538 0.950 . S
H1563 C1539 0.949 . S
H1564 C1541 0.950 . S
H1565 C1543 0.950 . S
C1566 C1567 1.349 . S
C1566 C1568 1.327 . S
C1566 H1591 0.950 . S
C1567 C1566 1.349 . S
C1567 C1583 1.349 . S
C1568 C1566 1.327 . S
C1568 C1587 1.429 . S
C1568 H1592 0.950 . S
C1569 C1586 1.574 1_455 S
C1569 C1588 1.368 . S
C1569 H1593 0.949 1_455 S
H1570 C1574 0.949 . S
C1571 C1572 1.349 1_655 S
C1571 C1573 1.327 . S
C1571 H1594 0.950 . S
C1572 C1571 1.349 1_455 S
C1572 C1584 1.349 . S
C1573 C1571 1.327 . S
C1573 C1589 1.429 1_655 S
C1573 H1595 0.950 . S
C1574 H1570 0.949 . S
C1574 C1582 1.574 . S
C1574 C1590 1.368 . S
H1575 C1583 0.973 . S
H1576 C1581 0.950 1_655 S
H1577 C1582 0.949 . S
H1578 C1584 0.950 . S
H1579 C1585 0.950 . S
H1580 C1586 0.949 . S
C1581 H1576 0.950 1_455 S
C1581 C1583 1.327 . S
C1581 C1587 1.429 . S
C1582 C1574 1.574 . S
C1582 H1577 0.949 . S
C1582 C1588 1.368 . S
C1583 C1567 1.349 . S
C1583 H1575 0.973 . S
C1583 C1581 1.327 . S
C1584 C1572 1.349 . S
C1584 H1578 0.950 . S
C1584 C1585 1.327 . S
C1585 H1579 0.950 . S
C1585 C1584 1.327 . S
C1585 C1589 1.429 . S
C1586 C1569 1.574 1_655 S
C1586 H1580 0.949 . S
C1586 C1590 1.368 1_655 S
C1587 C1568 1.429 . S
C1587 C1581 1.429 . S
C1587 C1588 1.523 . S
C1588 C1569 1.368 . S
C1588 C1582 1.368 . S
C1588 C1587 1.523 . S
C1589 C1573 1.429 1_455 S
C1589 C1585 1.429 . S
C1589 C1590 1.523 . S
C1590 C1574 1.368 . S
C1590 C1586 1.368 1_455 S
C1590 C1589 1.523 . S
H1591 C1566 0.950 . S
H1592 C1568 0.950 . S
H1593 C1569 0.949 1_655 S
H1594 C1571 0.950 . S
H1595 C1573 0.950 . S
C1596 C1597 1.349 . S
C1596 C1598 1.327 . S
C1596 H1621 0.950 . S
C1597 C1596 1.349 . S
C1597 C1613 1.349 . S
C1598 C1596 1.327 . S
C1598 C1617 1.429 . S
C1598 H1622 0.950 . S
C1599 C1616 1.574 . S
C1599 C1618 1.368 . S
C1599 H1623 0.949 . S
H1600 C1604 0.949 . S
C1601 C1602 1.349 . S
C1601 C1603 1.327 . S
C1601 H1624 0.950 . S
C1602 C1601 1.349 . S
C1602 C1614 1.349 . S
C1603 C1601 1.327 . S
C1603 C1619 1.429 . S
C1603 H1625 0.950 . S
C1604 H1600 0.949 . S
C1604 C1612 1.574 . S
C1604 C1620 1.368 . S
H1605 C1613 0.950 . S
H1606 C1611 0.950 . S
H1607 C1612 0.949 . S
H1608 C1614 0.950 . S
H1609 C1615 0.950 . S
H1610 C1616 0.949 . S
C1611 H1606 0.950 . S
C1611 C1613 1.327 . S
C1611 C1617 1.429 . S
C1612 C1604 1.574 . S
C1612 H1607 0.949 . S
C1612 C1618 1.368 . S
C1613 C1597 1.349 . S
C1613 H1605 0.950 . S
C1613 C1611 1.327 . S
C1614 C1602 1.349 . S
C1614 H1608 0.950 . S
C1614 C1615 1.327 . S
C1615 H1609 0.950 . S
C1615 C1614 1.327 . S
C1615 C1619 1.429 . S
C1616 C1599 1.574 . S
C1616 H1610 0.949 . S
C1616 C1620 1.368 . S
C1617 C1598 1.429 . S
C1617 C1611 1.429 . S
C1617 C1618 1.523 . S
C1618 C1599 1.368 . S
C1618 C1612 1.368 . S
C1618 C1617 1.523 . S
C1619 C1603 1.429 . S
C1619 C1615 1.429 . S
C1619 C1620 1.523 . S
C1620 C1604 1.368 . S
C1620 C1616 1.368 . S
C1620 C1619 1.523 . S
H1621 C1596 0.950 . S
H1622 C1598 0.950 . S
H1623 C1599 0.949 . S
H1624 C1601 0.950 . S
H1625 C1603 0.950 . S
C1626 C1627 1.349 . S
C1626 C1628 1.327 . S
C1626 H1651 0.950 . S
C1627 C1626 1.349 . S
C1627 C1643 1.349 . S
C1628 C1626 1.327 . S
C1628 C1647 1.429 . S
C1628 H1652 0.950 . S
C1629 C1646 1.574 . S
C1629 C1648 1.368 . S
C1629 H1653 0.949 . S
H1630 C1634 0.949 . S
C1631 C1632 1.347 1_655 S
C1631 C1633 1.326 1_655 S
C1631 H1654 0.953 . S
C1632 C1631 1.347 1_455 S
C1632 C1644 1.349 . S
C1633 C1631 1.326 1_455 S
C1633 C1649 1.429 . S
C1633 H1655 0.950 1_455 S
C1634 H1630 0.949 . S
C1634 C1642 1.574 . S
C1634 C1650 1.368 . S
H1635 C1643 0.950 . S
H1636 C1641 0.950 . S
H1637 C1642 0.949 . S
H1638 C1644 0.950 . S
H1639 C1645 0.950 . S
H1640 C1646 0.961 . S
C1641 H1636 0.950 . S
C1641 C1643 1.327 . S
C1641 C1647 1.429 . S
C1642 C1634 1.574 . S
C1642 H1637 0.949 . S
C1642 C1648 1.368 . S
C1643 C1627 1.349 . S
C1643 H1635 0.950 . S
C1643 C1641 1.327 . S
C1644 C1632 1.349 . S
C1644 H1638 0.950 . S
C1644 C1645 1.327 . S
C1645 H1639 0.950 . S
C1645 C1644 1.327 . S
C1645 C1649 1.429 . S
C1646 C1629 1.574 . S
C1646 H1640 0.961 . S
C1646 C1650 1.368 . S
C1647 C1628 1.429 . S
C1647 C1641 1.429 . S
C1647 C1648 1.523 . S
C1648 C1629 1.368 . S
C1648 C1642 1.368 . S
C1648 C1647 1.523 . S
C1649 C1633 1.429 . S
C1649 C1645 1.429 . S
C1649 C1650 1.523 . S
C1650 C1634 1.368 . S
C1650 C1646 1.368 . S
C1650 C1649 1.523 . S
H1651 C1626 0.950 . S
H1652 C1628 0.950 . S
H1653 C1629 0.949 . S
H1654 C1631 0.953 . S
H1655 C1633 0.950 1_655 S
C1656 C1657 1.349 . S
C1656 C1658 1.327 . S
C1656 H1681 0.950 . S
C1657 C1656 1.349 . S
C1657 C1673 1.349 1_545 S
C1658 C1656 1.327 . S
C1658 C1677 1.429 . S
C1658 H1682 0.950 . S
C1659 C1676 1.574 . S
C1659 C1678 1.368 1_565 S
C1659 H1683 0.949 . S
H1660 C1664 0.949 . S
C1661 C1662 1.349 1_565 S
C1661 C1663 1.327 . S
C1661 H1684 0.950 . S
C1662 C1661 1.349 1_545 S
C1662 C1674 1.349 . S
C1663 C1661 1.327 . S
C1663 C1679 1.429 1_565 S
C1663 H1685 0.950 . S
C1664 H1660 0.949 . S
C1664 C1672 1.574 . S
C1664 C1680 1.368 . S
H1665 C1673 0.950 . S
H1666 C1671 0.950 . S
H1667 C1672 0.949 . S
H1668 C1674 0.950 . S
H1669 C1675 0.950 . S
H1670 C1676 0.949 . S
C1671 H1666 0.950 . S
C1671 C1673 1.327 . S
C1671 C1677 1.429 1_565 S
C1672 C1664 1.574 . S
C1672 H1667 0.949 . S
C1672 C1678 1.368 . S
C1673 C1657 1.349 1_565 S
C1673 H1665 0.950 . S
C1673 C1671 1.327 . S
C1674 C1662 1.349 . S
C1674 H1668 0.950 . S
C1674 C1675 1.327 . S
C1675 H1669 0.950 . S
C1675 C1674 1.327 . S
C1675 C1679 1.429 . S
C1676 C1659 1.574 . S
C1676 H1670 0.949 . S
C1676 C1680 1.368 1_565 S
C1677 C1658 1.429 . S
C1677 C1671 1.429 1_545 S
C1677 C1678 1.523 . S
C1678 C1659 1.368 1_545 S
C1678 C1672 1.368 . S
C1678 C1677 1.523 . S
C1679 C1663 1.429 1_545 S
C1679 C1675 1.429 . S
C1679 C1680 1.523 . S
C1680 C1664 1.368 . S
C1680 C1676 1.368 1_545 S
C1680 C1679 1.523 . S
H1681 C1656 0.950 . S
H1682 C1658 0.950 . S
H1683 C1659 0.949 . S
H1684 C1661 0.950 . S
H1685 C1663 0.950 . S
C1686 C1687 1.349 . S
C1686 C1688 1.327 . S
C1686 H1711 0.950 1_455 S
C1687 C1686 1.349 . S
C1687 C1703 1.349 . S
C1688 C1686 1.327 . S
C1688 C1707 1.429 . S
C1688 H1712 0.950 1_455 S
C1689 C1706 1.574 . S
C1689 C1708 1.368 . S
C1689 H1713 0.949 . S
H1690 C1694 0.949 1_655 S
C1691 C1692 1.349 . S
C1691 C1693 1.327 . S
C1691 H1714 0.950 . S
C1692 C1691 1.349 . S
C1692 C1704 1.349 . S
C1693 C1691 1.327 . S
C1693 C1709 1.429 . S
C1693 H1715 0.950 . S
C1694 H1690 0.949 1_455 S
C1694 C1702 1.574 . S
C1694 C1710 1.368 . S
H1695 C1703 0.950 . S
H1696 C1701 0.950 . S
H1697 C1702 0.949 1_655 S
H1698 C1704 0.950 1_655 S
H1699 C1705 0.950 1_655 S
H1700 C1706 0.949 . S
C1701 H1696 0.950 . S
C1701 C1703 1.327 . S
C1701 C1707 1.429 . S
C1702 C1694 1.574 . S
C1702 H1697 0.949 1_455 S
C1702 C1708 1.368 . S
C1703 C1687 1.349 . S
C1703 H1695 0.950 . S
C1703 C1701 1.327 . S
C1704 C1692 1.349 . S
C1704 H1698 0.950 1_455 S
C1704 C1705 1.327 . S
C1705 H1699 0.950 1_455 S
C1705 C1704 1.327 . S
C1705 C1709 1.429 . S
C1706 C1689 1.574 . S
C1706 H1700 0.949 . S
C1706 C1710 1.368 . S
C1707 C1688 1.429 . S
C1707 C1701 1.429 . S
C1707 C1708 1.523 . S
C1708 C1689 1.368 . S
C1708 C1702 1.368 . S
C1708 C1707 1.523 . S
C1709 C1693 1.429 . S
C1709 C1705 1.429 . S
C1709 C1710 1.523 . S
C1710 C1694 1.368 . S
C1710 C1706 1.368 . S
C1710 C1709 1.523 . S
H1711 C1686 0.950 1_655 S
H1712 C1688 0.950 1_655 S
H1713 C1689 0.949 . S
H1714 C1691 0.950 . S
H1715 C1693 0.950 . S
C1716 C1717 1.349 . S
C1716 C1718 1.327 . S
C1716 H1741 0.950 . S
C1717 C1716 1.349 . S
C1717 C1733 1.349 . S
C1718 C1716 1.327 . S
C1718 C1737 1.429 . S
C1718 H1742 0.950 . S
C1719 C1736 1.574 . S
C1719 C1738 1.368 . S
C1719 H1743 0.949 . S
H1720 C1724 0.949 . S
C1721 C1722 1.349 . S
C1721 C1723 1.327 . S
C1721 H1744 0.950 1_545 S
C1722 C1721 1.349 . S
C1722 C1734 1.349 . S
C1723 C1721 1.327 . S
C1723 C1739 1.429 . S
C1723 H1745 0.950 1_545 S
C1724 H1720 0.949 . S
C1724 C1732 1.574 . S
C1724 C1740 1.368 . S
H1725 C1733 0.950 . S
H1726 C1731 0.950 . S
H1727 C1732 0.949 . S
H1728 C1734 0.950 . S
H1729 C1735 0.950 . S
H1730 C1736 0.927 1_565 S
C1731 H1726 0.950 . S
C1731 C1733 1.327 . S
C1731 C1737 1.429 . S
C1732 C1724 1.574 . S
C1732 H1727 0.949 . S
C1732 C1738 1.368 . S
C1733 C1717 1.349 . S
C1733 H1725 0.950 . S
C1733 C1731 1.327 . S
C1734 C1722 1.349 . S
C1734 H1728 0.950 . S
C1734 C1735 1.327 . S
C1735 H1729 0.950 . S
C1735 C1734 1.327 . S
C1735 C1739 1.429 . S
C1736 C1719 1.574 . S
C1736 H1730 0.927 1_545 S
C1736 C1740 1.368 . S
C1737 C1718 1.429 . S
C1737 C1731 1.429 . S
C1737 C1738 1.523 . S
C1738 C1719 1.368 . S
C1738 C1732 1.368 . S
C1738 C1737 1.523 . S
C1739 C1723 1.429 . S
C1739 C1735 1.429 . S
C1739 C1740 1.523 . S
C1740 C1724 1.368 . S
C1740 C1736 1.368 . S
C1740 C1739 1.523 . S
H1741 C1716 0.950 . S
H1742 C1718 0.950 . S
H1743 C1719 0.949 . S
H1744 C1721 0.950 1_565 S
H1745 C1723 0.950 1_565 S
C1746 C1747 1.380 . S
C1746 C1748 1.327 . S
C1746 H1771 0.950 . S
C1747 C1746 1.380 . S
C1747 C1763 1.316 1_655 S
C1748 C1746 1.327 . S
C1748 C1767 1.429 1_655 S
C1748 H1772 0.950 . S
C1749 C1766 1.574 . S
C1749 C1768 1.368 . S
C1749 H1773 0.949 . S
H1750 C1754 0.949 . S
C1751 C1752 1.349 . S
C1751 C1753 1.327 . S
C1751 H1774 0.950 . S
C1752 C1751 1.349 . S
C1752 C1764 1.349 1_455 S
C1753 C1751 1.327 . S
C1753 C1769 1.429 . S
C1753 H1775 0.950 . S
C1754 H1750 0.949 . S
C1754 C1762 1.574 . S
C1754 C1770 1.368 1_655 S
H1755 C1763 0.950 . S
H1756 C1761 0.950 . S
H1757 C1762 0.949 . S
H1758 C1764 0.950 . S
H1759 C1765 0.950 . S
H1760 C1766 0.949 . S
C1761 H1756 0.950 . S
C1761 C1763 1.327 . S
C1761 C1767 1.429 . S
C1762 C1754 1.574 . S
C1762 H1757 0.949 . S
C1762 C1768 1.368 1_655 S
C1763 C1747 1.316 1_455 S
C1763 H1755 0.950 . S
C1763 C1761 1.327 . S
C1764 C1752 1.349 1_655 S
C1764 H1758 0.950 . S
C1764 C1765 1.327 . S
C1765 H1759 0.950 . S
C1765 C1764 1.327 . S
C1765 C1769 1.429 1_655 S
C1766 C1749 1.574 . S
C1766 H1760 0.949 . S
C1766 C1770 1.368 . S
C1767 C1748 1.429 1_455 S
C1767 C1761 1.429 . S
C1767 C1768 1.523 . S
C1768 C1749 1.368 . S
C1768 C1762 1.368 1_455 S
C1768 C1767 1.523 . S
C1769 C1753 1.429 . S
C1769 C1765 1.429 1_455 S
C1769 C1770 1.523 . S
C1770 C1754 1.368 1_455 S
C1770 C1766 1.368 . S
C1770 C1769 1.523 . S
H1771 C1746 0.950 . S
H1772 C1748 0.950 . S
H1773 C1749 0.949 . S
H1774 C1751 0.950 . S
H1775 C1753 0.950 . S
C1776 C1777 1.324 1_556 S
C1776 C1778 1.329 . S
C1776 H1801 0.974 . S
C1777 C1776 1.324 1_554 S
C1777 C1793 1.349 . S
C1778 C1776 1.329 . S
C1778 C1797 1.429 1_556 S
C1778 H1802 0.950 . S
C1779 C1796 1.574 . S
C1779 C1798 1.368 . S
C1779 H1803 0.949 . S
H1780 C1784 0.949 . S
C1781 C1782 1.349 . S
C1781 C1783 1.327 . S
C1781 H1804 0.950 . S
C1782 C1781 1.349 . S
C1782 C1794 1.349 1_554 S
C1783 C1781 1.327 . S
C1783 C1799 1.429 . S
C1783 H1805 0.950 . S
C1784 H1780 0.949 . S
C1784 C1792 1.574 . S
C1784 C1800 1.368 1_556 S
H1785 C1793 0.950 . S
H1786 C1791 0.950 . S
H1787 C1792 0.949 . S
H1788 C1794 0.950 . S
H1789 C1795 0.950 . S
H1790 C1796 0.949 . S
C1791 H1786 0.950 . S
C1791 C1793 1.327 . S
C1791 C1797 1.429 . S
C1792 C1784 1.574 . S
C1792 H1787 0.949 . S
C1792 C1798 1.368 1_556 S
C1793 C1777 1.349 . S
C1793 H1785 0.950 . S
C1793 C1791 1.327 . S
C1794 C1782 1.349 1_556 S
C1794 H1788 0.950 . S
C1794 C1795 1.327 . S
C1795 H1789 0.950 . S
C1795 C1794 1.327 . S
C1795 C1799 1.429 1_556 S
C1796 C1779 1.574 . S
C1796 H1790 0.949 . S
C1796 C1800 1.368 . S
C1797 C1778 1.429 1_554 S
C1797 C1791 1.429 . S
C1797 C1798 1.523 . S
C1798 C1779 1.368 . S
C1798 C1792 1.368 1_554 S
C1798 C1797 1.523 . S
C1799 C1783 1.429 . S
C1799 C1795 1.429 1_554 S
C1799 C1800 1.523 . S
C1800 C1784 1.368 1_554 S
C1800 C1796 1.368 . S
C1800 C1799 1.523 . S
H1801 C1776 0.974 . S
H1802 C1778 0.950 . S
H1803 C1779 0.949 . S
H1804 C1781 0.950 . S
H1805 C1783 0.950 . S
C1806 C1807 1.349 . S
C1806 C1808 1.327 . S
C1806 H1831 0.950 . S
C1807 C1806 1.349 . S
C1807 C1823 1.349 1_554 S
C1808 C1806 1.327 . S
C1808 C1827 1.429 . S
C1808 H1832 0.950 . S
C1809 C1826 1.574 . S
C1809 C1828 1.368 1_556 S
C1809 H1833 0.949 . S
H1810 C1814 0.949 . S
C1811 C1812 1.349 1_556 S
C1811 C1813 1.327 . S
C1811 H1834 0.950 . S
C1812 C1811 1.349 1_554 S
C1812 C1824 1.349 . S
C1813 C1811 1.327 . S
C1813 C1829 1.429 1_556 S
C1813 H1835 0.950 . S
C1814 H1810 0.949 . S
C1814 C1822 1.574 . S
C1814 C1830 1.368 . S
H1815 C1823 0.950 . S
H1816 C1821 0.950 . S
H1817 C1822 0.949 . S
H1818 C1824 0.950 . S
H1819 C1825 0.950 . S
H1820 C1826 0.949 . S
C1821 H1816 0.950 . S
C1821 C1823 1.327 . S
C1821 C1827 1.429 1_556 S
C1822 C1814 1.574 . S
C1822 H1817 0.949 . S
C1822 C1828 1.368 . S
C1823 C1807 1.349 1_556 S
C1823 H1815 0.950 . S
C1823 C1821 1.327 . S
C1824 C1812 1.349 . S
C1824 H1818 0.950 . S
C1824 C1825 1.327 . S
C1825 H1819 0.950 . S
C1825 C1824 1.327 . S
C1825 C1829 1.429 . S
C1826 C1809 1.574 . S
C1826 H1820 0.949 . S
C1826 C1830 1.368 1_556 S
C1827 C1808 1.429 . S
C1827 C1821 1.429 1_554 S
C1827 C1828 1.523 . S
C1828 C1809 1.368 1_554 S
C1828 C1822 1.368 . S
C1828 C1827 1.523 . S
C1829 C1813 1.429 1_554 S
C1829 C1825 1.429 . S
C1829 C1830 1.523 . S
C1830 C1814 1.368 . S
C1830 C1826 1.368 1_554 S
C1830 C1829 1.523 . S
H1831 C1806 0.950 . S
H1832 C1808 0.950 . S
H1833 C1809 0.949 . S
H1834 C1811 0.950 . S
H1835 C1813 0.950 . S
C1836 C1837 1.349 . S
C1836 C1838 1.328 . S
C1836 H1861 0.950 1_554 S
C1837 C1836 1.349 . S
C1837 C1853 1.349 . S
C1838 C1836 1.328 . S
C1838 C1857 1.437 . S
C1838 H1862 0.941 1_554 S
C1839 C1856 1.574 . S
C1839 C1858 1.368 . S
C1839 H1863 0.949 . S
H1840 C1844 0.949 . S
C1841 C1842 1.349 . S
C1841 C1843 1.327 . S
C1841 H1864 0.950 . S
C1842 C1841 1.349 . S
C1842 C1854 1.349 1_554 S
C1843 C1841 1.327 . S
C1843 C1859 1.429 . S
C1843 H1865 0.950 . S
C1844 H1840 0.949 . S
C1844 C1852 1.574 . S
C1844 C1860 1.368 1_556 S
H1845 C1853 0.950 . S
H1846 C1851 0.950 . S
H1847 C1852 0.949 . S
H1848 C1854 0.950 . S
H1849 C1855 0.950 . S
H1850 C1856 0.949 . S
C1851 H1846 0.950 . S
C1851 C1853 1.327 . S
C1851 C1857 1.429 . S
C1852 C1844 1.574 . S
C1852 H1847 0.949 . S
C1852 C1858 1.368 1_556 S
C1853 C1837 1.349 . S
C1853 H1845 0.950 . S
C1853 C1851 1.327 . S
C1854 C1842 1.349 1_556 S
C1854 H1848 0.950 . S
C1854 C1855 1.327 . S
C1855 H1849 0.950 . S
C1855 C1854 1.327 . S
C1855 C1859 1.429 1_556 S
C1856 C1839 1.574 . S
C1856 H1850 0.949 . S
C1856 C1860 1.368 . S
C1857 C1838 1.437 . S
C1857 C1851 1.429 . S
C1857 C1858 1.523 . S
C1858 C1839 1.368 . S
C1858 C1852 1.368 1_554 S
C1858 C1857 1.523 . S
C1859 C1843 1.429 . S
C1859 C1855 1.429 1_554 S
C1859 C1860 1.523 . S
C1860 C1844 1.368 1_554 S
C1860 C1856 1.368 . S
C1860 C1859 1.523 . S
H1861 C1836 0.950 1_556 S
H1862 C1838 0.941 1_556 S
H1863 C1839 0.949 . S
H1864 C1841 0.950 . S
H1865 C1843 0.950 . S
C1866 C1867 1.341 1_554 S
C1866 C1868 1.327 . S
C1866 H1891 0.950 . S
C1867 C1866 1.341 1_556 S
C1867 C1883 1.357 . S
C1868 C1866 1.327 . S
C1868 C1887 1.429 1_554 S
C1868 H1892 0.950 . S
C1869 C1886 1.574 . S
C1869 C1888 1.368 . S
C1869 H1893 0.949 . S
H1870 C1874 0.949 . S
C1871 C1872 1.349 . S
C1871 C1873 1.327 . S
C1871 H1894 0.950 . S
C1872 C1871 1.349 . S
C1872 C1884 1.349 1_556 S
C1873 C1871 1.327 . S
C1873 C1889 1.429 . S
C1873 H1895 0.950 . S
C1874 H1870 0.949 . S
C1874 C1882 1.574 . S
C1874 C1890 1.368 1_554 S
H1875 C1883 0.950 . S
H1876 C1881 0.950 . S
H1877 C1882 0.949 . S
H1878 C1884 0.950 . S
H1879 C1885 0.950 . S
H1880 C1886 0.949 . S
C1881 H1876 0.950 . S
C1881 C1883 1.327 . S
C1881 C1887 1.429 . S
C1882 C1874 1.574 . S
C1882 H1877 0.949 . S
C1882 C1888 1.368 1_554 S
C1883 C1867 1.357 . S
C1883 H1875 0.950 . S
C1883 C1881 1.327 . S
C1884 C1872 1.349 1_554 S
C1884 H1878 0.950 . S
C1884 C1885 1.327 . S
C1885 H1879 0.950 . S
C1885 C1884 1.327 . S
C1885 C1889 1.429 1_554 S
C1886 C1869 1.574 . S
C1886 H1880 0.949 . S
C1886 C1890 1.368 . S
C1887 C1868 1.429 1_556 S
C1887 C1881 1.429 . S
C1887 C1888 1.523 . S
C1888 C1869 1.368 . S
C1888 C1882 1.368 1_556 S
C1888 C1887 1.523 . S
C1889 C1873 1.429 . S
C1889 C1885 1.429 1_556 S
C1889 C1890 1.523 . S
C1890 C1874 1.368 1_556 S
C1890 C1886 1.368 . S
C1890 C1889 1.523 . S
H1891 C1866 0.950 . S
H1892 C1868 0.950 . S
H1893 C1869 0.949 . S
H1894 C1871 0.950 . S
H1895 C1873 0.950 . S
C1896 C1897 1.349 1_556 S
C1896 C1898 1.327 . S
C1896 H1921 0.950 . S
C1897 C1896 1.349 1_554 S
C1897 C1913 1.349 . S
C1898 C1896 1.327 . S
C1898 C1917 1.429 1_556 S
C1898 H1922 0.950 . S
C1899 C1916 1.574 . S
C1899 C1918 1.368 . S
C1899 H1923 0.949 . S
H1900 C1904 0.949 . S
C1901 C1902 1.349 . S
C1901 C1903 1.327 . S
C1901 H1924 0.950 . S
C1902 C1901 1.349 . S
C1902 C1914 1.349 1_554 S
C1903 C1901 1.327 . S
C1903 C1919 1.429 . S
C1903 H1925 0.950 . S
C1904 H1900 0.949 . S
C1904 C1912 1.574 . S
C1904 C1920 1.368 1_556 S
H1905 C1913 0.950 . S
H1906 C1911 0.950 . S
H1907 C1912 0.949 . S
H1908 C1914 0.950 . S
H1909 C1915 0.950 . S
H1910 C1916 0.949 . S
C1911 H1906 0.950 . S
C1911 C1913 1.327 . S
C1911 C1917 1.429 . S
C1912 C1904 1.574 . S
C1912 H1907 0.949 . S
C1912 C1918 1.368 1_556 S
C1913 C1897 1.349 . S
C1913 H1905 0.950 . S
C1913 C1911 1.327 . S
C1914 C1902 1.349 1_556 S
C1914 H1908 0.950 . S
C1914 C1915 1.327 . S
C1915 H1909 0.950 . S
C1915 C1914 1.327 . S
C1915 C1919 1.429 1_556 S
C1916 C1899 1.574 . S
C1916 H1910 0.949 . S
C1916 C1920 1.368 . S
C1917 C1898 1.429 1_554 S
C1917 C1911 1.429 . S
C1917 C1918 1.523 . S
C1918 C1899 1.368 . S
C1918 C1912 1.368 1_554 S
C1918 C1917 1.523 . S
C1919 C1903 1.429 . S
C1919 C1915 1.429 1_554 S
C1919 C1920 1.523 . S
C1920 C1904 1.368 1_554 S
C1920 C1916 1.368 . S
C1920 C1919 1.523 . S
H1921 C1896 0.950 . S
H1922 C1898 0.950 . S
H1923 C1899 0.949 . S
H1924 C1901 0.950 . S
H1925 C1903 0.950 . S
C1926 C1927 1.330 1_556 S
C1926 C1928 1.327 . S
C1926 H1951 0.950 . S
C1927 C1926 1.330 1_554 S
C1927 C1943 1.368 . S
C1928 C1926 1.327 . S
C1928 C1947 1.424 1_556 S
C1928 H1952 0.950 . S
C1929 C1946 1.574 . S
C1929 C1948 1.365 . S
C1929 H1953 0.949 . S
H1930 C1934 0.949 . S
C1931 C1932 1.318 1_554 S
C1931 C1933 1.327 . S
C1931 H1954 0.950 . S
C1932 C1931 1.318 1_556 S
C1932 C1944 1.381 . S
C1933 C1931 1.327 . S
C1933 C1949 1.412 1_554 S
C1933 H1955 0.950 . S
C1934 H1930 0.949 . S
C1934 C1942 1.574 . S
C1934 C1950 1.378 . S
H1935 C1943 0.950 . S
H1936 C1941 0.950 . S
H1937 C1942 0.949 . S
H1938 C1944 0.950 . S
H1939 C1945 0.950 . S
H1940 C1946 0.949 . S
C1941 H1936 0.950 . S
C1941 C1943 1.327 . S
C1941 C1947 1.433 . S
C1942 C1934 1.574 . S
C1942 H1937 0.949 . S
C1942 C1948 1.372 1_556 S
C1943 C1927 1.368 . S
C1943 H1935 0.950 . S
C1943 C1941 1.327 . S
C1944 C1932 1.381 . S
C1944 H1938 0.950 . S
C1944 C1945 1.327 . S
C1945 H1939 0.950 . S
C1945 C1944 1.327 . S
C1945 C1949 1.445 . S
C1946 C1929 1.574 . S
C1946 H1940 0.949 . S
C1946 C1950 1.359 1_554 S
C1947 C1928 1.424 1_554 S
C1947 C1941 1.433 . S
C1947 C1948 1.523 . S
C1948 C1929 1.365 . S
C1948 C1942 1.372 1_554 S
C1948 C1947 1.523 . S
C1949 C1933 1.412 1_556 S
C1949 C1945 1.445 . S
C1949 C1950 1.523 . S
C1950 C1934 1.378 . S
C1950 C1946 1.359 1_556 S
C1950 C1949 1.523 . S
H1951 C1926 0.950 . S
H1952 C1928 0.950 . S
H1953 C1929 0.949 . S
H1954 C1931 0.950 . S
H1955 C1933 0.950 . S
C1956 C1957 1.349 . S
C1956 C1958 1.327 . S
C1956 H1981 0.950 . S
C1957 C1956 1.349 . S
C1957 C1973 1.349 . S
C1958 C1956 1.327 . S
C1958 C1977 1.429 . S
C1958 H1982 0.950 . S
C1959 C1976 1.574 1_554 S
C1959 C1978 1.369 . S
C1959 H1983 0.948 1_554 S
H1960 C1964 0.949 . S
C1961 C1962 1.346 1_556 S
C1961 C1963 1.327 . S
C1961 H1984 0.953 . S
C1962 C1961 1.346 1_554 S
C1962 C1974 1.349 . S
C1963 C1961 1.327 . S
C1963 C1979 1.426 1_556 S
C1963 H1985 0.952 . S
C1964 H1960 0.949 . S
C1964 C1972 1.574 . S
C1964 C1980 1.368 . S
H1965 C1973 0.950 1_556 S
H1966 C1971 0.950 1_556 S
H1967 C1972 0.949 . S
H1968 C1974 0.950 . S
H1969 C1975 0.950 . S
H1970 C1976 0.951 . S
C1971 H1966 0.950 1_554 S
C1971 C1973 1.327 . S
C1971 C1977 1.429 . S
C1972 C1964 1.574 . S
C1972 H1967 0.949 . S
C1972 C1978 1.368 . S
C1973 C1957 1.349 . S
C1973 H1965 0.950 1_554 S
C1973 C1971 1.327 . S
C1974 C1962 1.349 . S
C1974 H1968 0.950 . S
C1974 C1975 1.327 . S
C1975 H1969 0.950 . S
C1975 C1974 1.327 . S
C1975 C1979 1.429 . S
C1976 C1959 1.574 1_556 S
C1976 H1970 0.951 . S
C1976 C1980 1.366 1_556 S
C1977 C1958 1.429 . S
C1977 C1971 1.429 . S
C1977 C1978 1.523 . S
C1978 C1959 1.369 . S
C1978 C1972 1.368 . S
C1978 C1977 1.523 . S
C1979 C1963 1.426 1_554 S
C1979 C1975 1.429 . S
C1979 C1980 1.523 . S
C1980 C1964 1.368 . S
C1980 C1976 1.366 1_554 S
C1980 C1979 1.523 . S
H1981 C1956 0.950 . S
H1982 C1958 0.950 . S
H1983 C1959 0.948 1_556 S
H1984 C1961 0.953 . S
H1985 C1963 0.952 . S
C1986 C1987 1.349 . S
C1986 C1988 1.327 . S
C1986 H2011 0.950 . S
C1987 C1986 1.349 . S
C1987 C2003 1.349 1_554 S
C1988 C1986 1.327 . S
C1988 C2007 1.429 . S
C1988 H2012 0.950 . S
C1989 C2006 1.574 . S
C1989 C2008 1.368 1_556 S
C1989 H2013 0.949 . S
H1990 C1994 0.949 . S
C1991 C1992 1.349 1_556 S
C1991 C1993 1.327 . S
C1991 H2014 0.950 . S
C1992 C1991 1.349 1_554 S
C1992 C2004 1.349 . S
C1993 C1991 1.327 . S
C1993 C2009 1.429 1_556 S
C1993 H2015 0.950 . S
C1994 H1990 0.949 . S
C1994 C2002 1.574 . S
C1994 C2010 1.368 . S
H1995 C2003 0.950 . S
H1996 C2001 0.950 . S
H1997 C2002 0.949 . S
H1998 C2004 0.950 . S
H1999 C2005 0.950 . S
H2000 C2006 0.949 . S
C2001 H1996 0.950 . S
C2001 C2003 1.327 . S
C2001 C2007 1.429 1_556 S
C2002 C1994 1.574 . S
C2002 H1997 0.949 . S
C2002 C2008 1.368 . S
C2003 C1987 1.349 1_556 S
C2003 H1995 0.950 . S
C2003 C2001 1.327 . S
C2004 C1992 1.349 . S
C2004 H1998 0.950 . S
C2004 C2005 1.327 . S
C2005 H1999 0.950 . S
C2005 C2004 1.327 . S
C2005 C2009 1.429 . S
C2006 C1989 1.574 . S
C2006 H2000 0.949 . S
C2006 C2010 1.368 1_556 S
C2007 C1988 1.429 . S
C2007 C2001 1.429 1_554 S
C2007 C2008 1.523 . S
C2008 C1989 1.368 1_554 S
C2008 C2002 1.368 . S
C2008 C2007 1.523 . S
C2009 C1993 1.429 1_554 S
C2009 C2005 1.429 . S
C2009 C2010 1.523 . S
C2010 C1994 1.368 . S
C2010 C2006 1.368 1_554 S
C2010 C2009 1.523 . S
H2011 C1986 0.950 . S
H2012 C1988 0.950 . S
H2013 C1989 0.949 . S
H2014 C1991 0.950 . S
H2015 C1993 0.950 . S
C2016 C2017 1.349 . S
C2016 C2018 1.327 . S
C2016 H2041 0.950 . S
C2017 C2016 1.349 . S
C2017 C2033 1.349 . S
C2018 C2016 1.327 . S
C2018 C2037 1.429 . S
C2018 H2042 0.950 . S
C2019 C2036 1.574 . S
C2019 C2038 1.368 . S
C2019 H2043 0.949 . S
H2020 C2024 0.949 . S
C2021 C2022 1.349 . S
C2021 C2023 1.327 . S
C2021 H2044 0.950 . S
C2022 C2021 1.349 . S
C2022 C2034 1.349 . S
C2023 C2021 1.327 . S
C2023 C2039 1.429 . S
C2023 H2045 0.950 . S
C2024 H2020 0.949 . S
C2024 C2032 1.574 . S
C2024 C2040 1.368 . S
H2025 C2033 0.950 . S
H2026 C2031 0.950 . S
H2027 C2032 0.949 . S
H2028 C2034 0.950 . S
H2029 C2035 0.950 . S
H2030 C2036 0.949 . S
C2031 H2026 0.950 . S
C2031 C2033 1.327 . S
C2031 C2037 1.429 . S
C2032 C2024 1.574 . S
C2032 H2027 0.949 . S
C2032 C2038 1.368 . S
C2033 C2017 1.349 . S
C2033 H2025 0.950 . S
C2033 C2031 1.327 . S
C2034 C2022 1.349 . S
C2034 H2028 0.950 . S
C2034 C2035 1.327 . S
C2035 H2029 0.950 . S
C2035 C2034 1.327 . S
C2035 C2039 1.429 . S
C2036 C2019 1.574 . S
C2036 H2030 0.949 . S
C2036 C2040 1.368 . S
C2037 C2018 1.429 . S
C2037 C2031 1.429 . S
C2037 C2038 1.523 . S
C2038 C2019 1.368 . S
C2038 C2032 1.368 . S
C2038 C2037 1.523 . S
C2039 C2023 1.429 . S
C2039 C2035 1.429 . S
C2039 C2040 1.523 . S
C2040 C2024 1.368 . S
C2040 C2036 1.368 . S
C2040 C2039 1.523 . S
H2041 C2016 0.950 . S
H2042 C2018 0.950 . S
H2043 C2019 0.949 . S
H2044 C2021 0.950 . S
H2045 C2023 0.950 . S
C2046 C2047 1.349 . S
C2046 C2048 1.327 . S
C2046 H2071 0.950 . S
C2047 C2046 1.349 . S
C2047 C2063 1.349 . S
C2048 C2046 1.327 . S
C2048 C2067 1.429 . S
C2048 H2072 0.950 . S
C2049 C2066 1.574 . S
C2049 C2068 1.368 . S
C2049 H2073 0.949 . S
H2050 C2054 0.949 . S
C2051 C2052 1.349 . S
C2051 C2053 1.327 . S
C2051 H2074 0.950 . S
C2052 C2051 1.349 . S
C2052 C2064 1.349 . S
C2053 C2051 1.327 . S
C2053 C2069 1.429 . S
C2053 H2075 0.950 . S
C2054 H2050 0.949 . S
C2054 C2062 1.574 . S
C2054 C2070 1.368 . S
H2055 C2063 0.950 . S
H2056 C2061 0.950 . S
H2057 C2062 0.949 . S
H2058 C2064 0.950 . S
H2059 C2065 0.950 . S
H2060 C2066 0.949 . S
C2061 H2056 0.950 . S
C2061 C2063 1.327 . S
C2061 C2067 1.429 . S
C2062 C2054 1.574 . S
C2062 H2057 0.949 . S
C2062 C2068 1.368 . S
C2063 C2047 1.349 . S
C2063 H2055 0.950 . S
C2063 C2061 1.327 . S
C2064 C2052 1.349 . S
C2064 H2058 0.950 . S
C2064 C2065 1.327 . S
C2065 H2059 0.950 . S
C2065 C2064 1.327 . S
C2065 C2069 1.429 . S
C2066 C2049 1.574 . S
C2066 H2060 0.949 . S
C2066 C2070 1.368 . S
C2067 C2048 1.429 . S
C2067 C2061 1.429 . S
C2067 C2068 1.523 . S
C2068 C2049 1.368 . S
C2068 C2062 1.368 . S
C2068 C2067 1.523 . S
C2069 C2053 1.429 . S
C2069 C2065 1.429 . S
C2069 C2070 1.523 . S
C2070 C2054 1.368 . S
C2070 C2066 1.368 . S
C2070 C2069 1.523 . S
H2071 C2046 0.950 . S
H2072 C2048 0.950 . S
H2073 C2049 0.949 . S
H2074 C2051 0.950 . S
H2075 C2053 0.950 . S
C2076 C2077 1.349 . S
C2076 C2078 1.327 . S
C2076 H2101 0.950 . S
C2077 C2076 1.349 . S
C2077 C2093 1.349 . S
C2078 C2076 1.327 . S
C2078 C2097 1.429 . S
C2078 H2102 0.950 . S
C2079 C2096 1.574 . S
C2079 C2098 1.368 . S
C2079 H2103 0.949 . S
H2080 C2084 0.949 . S
C2081 C2082 1.349 . S
C2081 C2083 1.327 . S
C2081 H2104 0.950 . S
C2082 C2081 1.349 . S
C2082 C2094 1.349 . S
C2083 C2081 1.327 . S
C2083 C2099 1.429 . S
C2083 H2105 0.950 . S
C2084 H2080 0.949 . S
C2084 C2092 1.574 . S
C2084 C2100 1.368 . S
H2085 C2093 0.950 . S
H2086 C2091 0.950 . S
H2087 C2092 0.949 . S
H2088 C2094 0.950 . S
H2089 C2095 0.950 . S
H2090 C2096 0.949 . S
C2091 H2086 0.950 . S
C2091 C2093 1.327 . S
C2091 C2097 1.429 . S
C2092 C2084 1.574 . S
C2092 H2087 0.949 . S
C2092 C2098 1.368 . S
C2093 C2077 1.349 . S
C2093 H2085 0.950 . S
C2093 C2091 1.327 . S
C2094 C2082 1.349 . S
C2094 H2088 0.950 . S
C2094 C2095 1.327 . S
C2095 H2089 0.950 . S
C2095 C2094 1.327 . S
C2095 C2099 1.429 . S
C2096 C2079 1.574 . S
C2096 H2090 0.949 . S
C2096 C2100 1.368 . S
C2097 C2078 1.429 . S
C2097 C2091 1.429 . S
C2097 C2098 1.523 . S
C2098 C2079 1.368 . S
C2098 C2092 1.368 . S
C2098 C2097 1.523 . S
C2099 C2083 1.429 . S
C2099 C2095 1.429 . S
C2099 C2100 1.523 . S
C2100 C2084 1.368 . S
C2100 C2096 1.368 . S
C2100 C2099 1.523 . S
H2101 C2076 0.950 . S
H2102 C2078 0.950 . S
H2103 C2079 0.949 . S
H2104 C2081 0.950 . S
H2105 C2083 0.950 . S
C2106 C2107 1.349 . S
C2106 C2108 1.327 . S
C2106 H2131 0.950 . S
C2107 C2106 1.349 . S
C2107 C2123 1.349 . S
C2108 C2106 1.327 . S
C2108 C2127 1.429 . S
C2108 H2132 0.950 . S
C2109 C2126 1.574 . S
C2109 C2128 1.368 . S
C2109 H2133 0.949 . S
H2110 C2114 0.949 . S
C2111 C2112 1.349 . S
C2111 C2113 1.327 . S
C2111 H2134 0.950 . S
C2112 C2111 1.349 . S
C2112 C2124 1.349 . S
C2113 C2111 1.327 . S
C2113 C2129 1.429 . S
C2113 H2135 0.950 . S
C2114 H2110 0.949 . S
C2114 C2122 1.574 . S
C2114 C2130 1.368 . S
H2115 C2123 0.950 . S
H2116 C2121 0.950 . S
H2117 C2122 0.949 . S
H2118 C2124 0.950 . S
H2119 C2125 0.950 . S
H2120 C2126 0.949 . S
C2121 H2116 0.950 . S
C2121 C2123 1.327 . S
C2121 C2127 1.429 . S
C2122 C2114 1.574 . S
C2122 H2117 0.949 . S
C2122 C2128 1.368 . S
C2123 C2107 1.349 . S
C2123 H2115 0.950 . S
C2123 C2121 1.327 . S
C2124 C2112 1.349 . S
C2124 H2118 0.950 . S
C2124 C2125 1.327 . S
C2125 H2119 0.950 . S
C2125 C2124 1.327 . S
C2125 C2129 1.429 . S
C2126 C2109 1.574 . S
C2126 H2120 0.949 . S
C2126 C2130 1.368 . S
C2127 C2108 1.429 . S
C2127 C2121 1.429 . S
C2127 C2128 1.523 . S
C2128 C2109 1.368 . S
C2128 C2122 1.368 . S
C2128 C2127 1.523 . S
C2129 C2113 1.429 . S
C2129 C2125 1.429 . S
C2129 C2130 1.523 . S
C2130 C2114 1.368 . S
C2130 C2126 1.368 . S
C2130 C2129 1.523 . S
H2131 C2106 0.950 . S
H2132 C2108 0.950 . S
H2133 C2109 0.949 . S
H2134 C2111 0.950 . S
H2135 C2113 0.950 . S
C2136 C2137 1.349 . S
C2136 C2138 1.327 . S
C2136 H2161 0.950 . S
C2137 C2136 1.349 . S
C2137 C2153 1.349 . S
C2138 C2136 1.327 . S
C2138 C2157 1.429 . S
C2138 H2162 0.950 . S
C2139 C2156 1.574 . S
C2139 C2158 1.368 . S
C2139 H2163 0.949 . S
H2140 C2144 0.949 . S
C2141 C2142 1.349 . S
C2141 C2143 1.327 . S
C2141 H2164 0.950 . S
C2142 C2141 1.349 . S
C2142 C2154 1.349 . S
C2143 C2141 1.327 . S
C2143 C2159 1.429 . S
C2143 H2165 0.950 . S
C2144 H2140 0.949 . S
C2144 C2152 1.574 . S
C2144 C2160 1.368 . S
H2145 C2153 0.950 . S
H2146 C2151 0.950 . S
H2147 C2152 0.949 . S
H2148 C2154 0.950 . S
H2149 C2155 0.950 . S
H2150 C2156 0.949 . S
C2151 H2146 0.950 . S
C2151 C2153 1.327 . S
C2151 C2157 1.429 . S
C2152 C2144 1.574 . S
C2152 H2147 0.949 . S
C2152 C2158 1.368 . S
C2153 C2137 1.349 . S
C2153 H2145 0.950 . S
C2153 C2151 1.327 . S
C2154 C2142 1.349 . S
C2154 H2148 0.950 . S
C2154 C2155 1.327 . S
C2155 H2149 0.950 . S
C2155 C2154 1.327 . S
C2155 C2159 1.429 . S
C2156 C2139 1.574 . S
C2156 H2150 0.949 . S
C2156 C2160 1.368 . S
C2157 C2138 1.429 . S
C2157 C2151 1.429 . S
C2157 C2158 1.523 . S
C2158 C2139 1.368 . S
C2158 C2152 1.368 . S
C2158 C2157 1.523 . S
C2159 C2143 1.429 . S
C2159 C2155 1.429 . S
C2159 C2160 1.523 . S
C2160 C2144 1.368 . S
C2160 C2156 1.368 . S
C2160 C2159 1.523 . S
H2161 C2136 0.950 . S
H2162 C2138 0.950 . S
H2163 C2139 0.949 . S
H2164 C2141 0.950 . S
H2165 C2143 0.950 . S
C2166 C2167 1.349 . S
C2166 C2168 1.327 . S
C2166 H2191 0.950 . S
C2167 C2166 1.349 . S
C2167 C2183 1.349 . S
C2168 C2166 1.327 . S
C2168 C2187 1.429 . S
C2168 H2192 0.950 . S
C2169 C2186 1.574 . S
C2169 C2188 1.368 . S
C2169 H2193 0.949 . S
H2170 C2174 0.949 . S
C2171 C2172 1.349 . S
C2171 C2173 1.327 . S
C2171 H2194 0.950 . S
C2172 C2171 1.349 . S
C2172 C2184 1.349 . S
C2173 C2171 1.327 . S
C2173 C2189 1.429 . S
C2173 H2195 0.950 . S
C2174 H2170 0.949 . S
C2174 C2182 1.574 . S
C2174 C2190 1.368 . S
H2175 C2183 0.950 . S
H2176 C2181 0.950 . S
H2177 C2182 0.949 . S
H2178 C2184 0.950 . S
H2179 C2185 0.950 . S
H2180 C2186 0.949 . S
C2181 H2176 0.950 . S
C2181 C2183 1.327 . S
C2181 C2187 1.429 . S
C2182 C2174 1.574 . S
C2182 H2177 0.949 . S
C2182 C2188 1.368 . S
C2183 C2167 1.349 . S
C2183 H2175 0.950 . S
C2183 C2181 1.327 . S
C2184 C2172 1.349 . S
C2184 H2178 0.950 . S
C2184 C2185 1.327 . S
C2185 H2179 0.950 . S
C2185 C2184 1.327 . S
C2185 C2189 1.429 . S
C2186 C2169 1.574 . S
C2186 H2180 0.949 . S
C2186 C2190 1.368 . S
C2187 C2168 1.429 . S
C2187 C2181 1.429 . S
C2187 C2188 1.523 . S
C2188 C2169 1.368 . S
C2188 C2182 1.368 . S
C2188 C2187 1.523 . S
C2189 C2173 1.429 . S
C2189 C2185 1.429 . S
C2189 C2190 1.523 . S
C2190 C2174 1.368 . S
C2190 C2186 1.368 . S
C2190 C2189 1.523 . S
H2191 C2166 0.950 . S
H2192 C2168 0.950 . S
H2193 C2169 0.949 . S
H2194 C2171 0.950 . S
H2195 C2173 0.950 . S
C2196 C2197 1.349 . S
C2196 C2198 1.327 . S
C2196 H2221 0.950 . S
C2197 C2196 1.349 . S
C2197 C2213 1.349 . S
C2198 C2196 1.327 . S
C2198 C2217 1.429 . S
C2198 H2222 0.950 . S
C2199 C2216 1.574 . S
C2199 C2218 1.368 . S
C2199 H2223 0.949 . S
H2200 C2204 0.949 . S
C2201 C2202 1.349 . S
C2201 C2203 1.327 . S
C2201 H2224 0.950 . S
C2202 C2201 1.349 . S
C2202 C2214 1.349 . S
C2203 C2201 1.327 . S
C2203 C2219 1.429 . S
C2203 H2225 0.950 . S
C2204 H2200 0.949 . S
C2204 C2212 1.574 . S
C2204 C2220 1.368 . S
H2205 C2213 0.950 . S
H2206 C2211 0.950 . S
H2207 C2212 0.949 . S
H2208 C2214 0.950 . S
H2209 C2215 0.950 . S
H2210 C2216 0.949 . S
C2211 H2206 0.950 . S
C2211 C2213 1.327 . S
C2211 C2217 1.429 . S
C2212 C2204 1.574 . S
C2212 H2207 0.949 . S
C2212 C2218 1.368 . S
C2213 C2197 1.349 . S
C2213 H2205 0.950 . S
C2213 C2211 1.327 . S
C2214 C2202 1.349 . S
C2214 H2208 0.950 . S
C2214 C2215 1.327 . S
C2215 H2209 0.950 . S
C2215 C2214 1.327 . S
C2215 C2219 1.429 . S
C2216 C2199 1.574 . S
C2216 H2210 0.949 . S
C2216 C2220 1.368 . S
C2217 C2198 1.429 . S
C2217 C2211 1.429 . S
C2217 C2218 1.523 . S
C2218 C2199 1.368 . S
C2218 C2212 1.368 . S
C2218 C2217 1.523 . S
C2219 C2203 1.429 . S
C2219 C2215 1.429 . S
C2219 C2220 1.523 . S
C2220 C2204 1.368 . S
C2220 C2216 1.368 . S
C2220 C2219 1.523 . S
H2221 C2196 0.950 . S
H2222 C2198 0.950 . S
H2223 C2199 0.949 . S
H2224 C2201 0.950 . S
H2225 C2203 0.950 . S
C2226 C2227 1.349 . S
C2226 C2228 1.327 . S
C2226 H2251 0.950 . S
C2227 C2226 1.349 . S
C2227 C2243 1.349 . S
C2228 C2226 1.327 . S
C2228 C2247 1.429 . S
C2228 H2252 0.950 . S
C2229 C2246 1.574 . S
C2229 C2248 1.368 . S
C2229 H2253 0.949 . S
H2230 C2234 0.949 . S
C2231 C2232 1.349 . S
C2231 C2233 1.327 . S
C2231 H2254 0.950 . S
C2232 C2231 1.349 . S
C2232 C2244 1.349 . S
C2233 C2231 1.327 . S
C2233 C2249 1.429 . S
C2233 H2255 0.950 . S
C2234 H2230 0.949 . S
C2234 C2242 1.574 . S
C2234 C2250 1.368 . S
H2235 C2243 0.950 . S
H2236 C2241 0.950 . S
H2237 C2242 0.949 . S
H2238 C2244 0.950 . S
H2239 C2245 0.950 . S
H2240 C2246 0.949 . S
C2241 H2236 0.950 . S
C2241 C2243 1.327 . S
C2241 C2247 1.429 . S
C2242 C2234 1.574 . S
C2242 H2237 0.949 . S
C2242 C2248 1.368 . S
C2243 C2227 1.349 . S
C2243 H2235 0.950 . S
C2243 C2241 1.327 . S
C2244 C2232 1.349 . S
C2244 H2238 0.950 . S
C2244 C2245 1.327 . S
C2245 H2239 0.950 . S
C2245 C2244 1.327 . S
C2245 C2249 1.429 . S
C2246 C2229 1.574 . S
C2246 H2240 0.949 . S
C2246 C2250 1.368 . S
C2247 C2228 1.429 . S
C2247 C2241 1.429 . S
C2247 C2248 1.523 . S
C2248 C2229 1.368 . S
C2248 C2242 1.368 . S
C2248 C2247 1.523 . S
C2249 C2233 1.429 . S
C2249 C2245 1.429 . S
C2249 C2250 1.523 . S
C2250 C2234 1.368 . S
C2250 C2246 1.368 . S
C2250 C2249 1.523 . S
H2251 C2226 0.950 . S
H2252 C2228 0.950 . S
H2253 C2229 0.949 . S
H2254 C2231 0.950 . S
H2255 C2233 0.950 . S
C2256 C2257 1.349 . S
C2256 C2258 1.327 . S
C2256 H2281 0.950 . S
C2257 C2256 1.349 . S
C2257 C2273 1.349 . S
C2258 C2256 1.327 . S
C2258 C2277 1.429 . S
C2258 H2282 0.950 . S
C2259 C2276 1.574 . S
C2259 C2278 1.368 . S
C2259 H2283 0.949 . S
H2260 C2264 0.949 . S
C2261 C2262 1.349 . S
C2261 C2263 1.327 . S
C2261 H2284 0.950 . S
C2262 C2261 1.349 . S
C2262 C2274 1.349 . S
C2263 C2261 1.327 . S
C2263 C2279 1.429 . S
C2263 H2285 0.950 . S
C2264 H2260 0.949 . S
C2264 C2272 1.574 . S
C2264 C2280 1.368 . S
H2265 C2273 0.950 . S
H2266 C2271 0.950 . S
H2267 C2272 0.949 . S
H2268 C2274 0.950 . S
H2269 C2275 0.950 . S
H2270 C2276 0.949 . S
C2271 H2266 0.950 . S
C2271 C2273 1.327 . S
C2271 C2277 1.429 . S
C2272 C2264 1.574 . S
C2272 H2267 0.949 . S
C2272 C2278 1.368 . S
C2273 C2257 1.349 . S
C2273 H2265 0.950 . S
C2273 C2271 1.327 . S
C2274 C2262 1.349 . S
C2274 H2268 0.950 . S
C2274 C2275 1.327 . S
C2275 H2269 0.950 . S
C2275 C2274 1.327 . S
C2275 C2279 1.429 . S
C2276 C2259 1.574 . S
C2276 H2270 0.949 . S
C2276 C2280 1.368 . S
C2277 C2258 1.429 . S
C2277 C2271 1.429 . S
C2277 C2278 1.523 . S
C2278 C2259 1.368 . S
C2278 C2272 1.368 . S
C2278 C2277 1.523 . S
C2279 C2263 1.429 . S
C2279 C2275 1.429 . S
C2279 C2280 1.523 . S
C2280 C2264 1.368 . S
C2280 C2276 1.368 . S
C2280 C2279 1.523 . S
H2281 C2256 0.950 . S
H2282 C2258 0.950 . S
H2283 C2259 0.949 . S
H2284 C2261 0.950 . S
H2285 C2263 0.950 . S
C2286 C2287 1.349 . S
C2286 C2288 1.327 . S
C2286 H2311 0.950 . S
C2287 C2286 1.349 . S
C2287 C2303 1.349 . S
C2288 C2286 1.327 . S
C2288 C2307 1.429 . S
C2288 H2312 0.950 . S
C2289 C2306 1.574 . S
C2289 C2308 1.368 . S
C2289 H2313 0.949 . S
H2290 C2294 0.949 . S
C2291 C2292 1.349 . S
C2291 C2293 1.327 . S
C2291 H2314 0.950 . S
C2292 C2291 1.349 . S
C2292 C2304 1.349 . S
C2293 C2291 1.327 . S
C2293 C2309 1.429 . S
C2293 H2315 0.950 . S
C2294 H2290 0.949 . S
C2294 C2302 1.574 . S
C2294 C2310 1.368 . S
H2295 C2303 0.950 . S
H2296 C2301 0.950 . S
H2297 C2302 0.949 . S
H2298 C2304 0.950 . S
H2299 C2305 0.950 . S
H2300 C2306 0.949 . S
C2301 H2296 0.950 . S
C2301 C2303 1.327 . S
C2301 C2307 1.429 . S
C2302 C2294 1.574 . S
C2302 H2297 0.949 . S
C2302 C2308 1.368 . S
C2303 C2287 1.349 . S
C2303 H2295 0.950 . S
C2303 C2301 1.327 . S
C2304 C2292 1.349 . S
C2304 H2298 0.950 . S
C2304 C2305 1.327 . S
C2305 H2299 0.950 . S
C2305 C2304 1.327 . S
C2305 C2309 1.429 . S
C2306 C2289 1.574 . S
C2306 H2300 0.949 . S
C2306 C2310 1.368 . S
C2307 C2288 1.429 . S
C2307 C2301 1.429 . S
C2307 C2308 1.523 . S
C2308 C2289 1.368 . S
C2308 C2302 1.368 . S
C2308 C2307 1.523 . S
C2309 C2293 1.429 . S
C2309 C2305 1.429 . S
C2309 C2310 1.523 . S
C2310 C2294 1.368 . S
C2310 C2306 1.368 . S
C2310 C2309 1.523 . S
H2311 C2286 0.950 . S
H2312 C2288 0.950 . S
H2313 C2289 0.949 . S
H2314 C2291 0.950 . S
H2315 C2293 0.950 . S
C2316 C2317 1.349 . S
C2316 C2318 1.327 . S
C2316 H2341 0.950 . S
C2317 C2316 1.349 . S
C2317 C2333 1.349 . S
C2318 C2316 1.327 . S
C2318 C2337 1.429 . S
C2318 H2342 0.950 . S
C2319 C2336 1.574 . S
C2319 C2338 1.368 . S
C2319 H2343 0.949 . S
H2320 C2324 0.949 . S
C2321 C2322 1.349 . S
C2321 C2323 1.327 . S
C2321 H2344 0.950 . S
C2322 C2321 1.349 . S
C2322 C2334 1.349 . S
C2323 C2321 1.327 . S
C2323 C2339 1.429 . S
C2323 H2345 0.950 . S
C2324 H2320 0.949 . S
C2324 C2332 1.574 . S
C2324 C2340 1.368 . S
H2325 C2333 0.950 . S
H2326 C2331 0.950 . S
H2327 C2332 0.949 . S
H2328 C2334 0.950 . S
H2329 C2335 0.950 . S
H2330 C2336 0.949 . S
C2331 H2326 0.950 . S
C2331 C2333 1.327 . S
C2331 C2337 1.429 . S
C2332 C2324 1.574 . S
C2332 H2327 0.949 . S
C2332 C2338 1.368 . S
C2333 C2317 1.349 . S
C2333 H2325 0.950 . S
C2333 C2331 1.327 . S
C2334 C2322 1.349 . S
C2334 H2328 0.950 . S
C2334 C2335 1.327 . S
C2335 H2329 0.950 . S
C2335 C2334 1.327 . S
C2335 C2339 1.429 . S
C2336 C2319 1.574 . S
C2336 H2330 0.949 . S
C2336 C2340 1.368 . S
C2337 C2318 1.429 . S
C2337 C2331 1.429 . S
C2337 C2338 1.523 . S
C2338 C2319 1.368 . S
C2338 C2332 1.368 . S
C2338 C2337 1.523 . S
C2339 C2323 1.429 . S
C2339 C2335 1.429 . S
C2339 C2340 1.523 . S
C2340 C2324 1.368 . S
C2340 C2336 1.368 . S
C2340 C2339 1.523 . S
H2341 C2316 0.950 . S
H2342 C2318 0.950 . S
H2343 C2319 0.949 . S
H2344 C2321 0.950 . S
H2345 C2323 0.950 . S
C2346 C2347 1.349 . S
C2346 C2348 1.327 . S
C2346 H2371 0.950 . S
C2347 C2346 1.349 . S
C2347 C2363 1.349 . S
C2348 C2346 1.327 . S
C2348 C2367 1.429 . S
C2348 H2372 0.950 . S
C2349 C2366 1.574 . S
C2349 C2368 1.368 . S
C2349 H2373 0.949 . S
H2350 C2354 0.949 . S
C2351 C2352 1.349 . S
C2351 C2353 1.327 . S
C2351 H2374 0.950 . S
C2352 C2351 1.349 . S
C2352 C2364 1.349 . S
C2353 C2351 1.327 . S
C2353 C2369 1.429 . S
C2353 H2375 0.950 . S
C2354 H2350 0.949 . S
C2354 C2362 1.574 . S
C2354 C2370 1.368 . S
H2355 C2363 0.950 . S
H2356 C2361 0.950 . S
H2357 C2362 0.949 . S
H2358 C2364 0.950 . S
H2359 C2365 0.950 . S
H2360 C2366 0.949 . S
C2361 H2356 0.950 . S
C2361 C2363 1.327 . S
C2361 C2367 1.429 . S
C2362 C2354 1.574 . S
C2362 H2357 0.949 . S
C2362 C2368 1.368 . S
C2363 C2347 1.349 . S
C2363 H2355 0.950 . S
C2363 C2361 1.327 . S
C2364 C2352 1.349 . S
C2364 H2358 0.950 . S
C2364 C2365 1.327 . S
C2365 H2359 0.950 . S
C2365 C2364 1.327 . S
C2365 C2369 1.429 . S
C2366 C2349 1.574 . S
C2366 H2360 0.949 . S
C2366 C2370 1.368 . S
C2367 C2348 1.429 . S
C2367 C2361 1.429 . S
C2367 C2368 1.523 . S
C2368 C2349 1.368 . S
C2368 C2362 1.368 . S
C2368 C2367 1.523 . S
C2369 C2353 1.429 . S
C2369 C2365 1.429 . S
C2369 C2370 1.523 . S
C2370 C2354 1.368 . S
C2370 C2366 1.368 . S
C2370 C2369 1.523 . S
H2371 C2346 0.950 . S
H2372 C2348 0.950 . S
H2373 C2349 0.949 . S
H2374 C2351 0.950 . S
H2375 C2353 0.950 . S
C2376 C2377 1.349 . S
C2376 C2378 1.327 . S
C2376 H2401 0.950 . S
C2377 C2376 1.349 . S
C2377 C2393 1.349 . S
C2378 C2376 1.327 . S
C2378 C2397 1.429 . S
C2378 H2402 0.950 . S
C2379 C2396 1.574 . S
C2379 C2398 1.368 . S
C2379 H2403 0.949 . S
H2380 C2384 0.949 . S
C2381 C2382 1.349 . S
C2381 C2383 1.327 . S
C2381 H2404 0.950 . S
C2382 C2381 1.349 . S
C2382 C2394 1.349 . S
C2383 C2381 1.327 . S
C2383 C2399 1.429 . S
C2383 H2405 0.950 . S
C2384 H2380 0.949 . S
C2384 C2392 1.574 . S
C2384 C2400 1.368 . S
H2385 C2393 0.950 . S
H2386 C2391 0.950 . S
H2387 C2392 0.949 . S
H2388 C2394 0.950 . S
H2389 C2395 0.950 . S
H2390 C2396 0.949 . S
C2391 H2386 0.950 . S
C2391 C2393 1.327 . S
C2391 C2397 1.429 . S
C2392 C2384 1.574 . S
C2392 H2387 0.949 . S
C2392 C2398 1.368 . S
C2393 C2377 1.349 . S
C2393 H2385 0.950 . S
C2393 C2391 1.327 . S
C2394 C2382 1.349 . S
C2394 H2388 0.950 . S
C2394 C2395 1.327 . S
C2395 H2389 0.950 . S
C2395 C2394 1.327 . S
C2395 C2399 1.429 . S
C2396 C2379 1.574 . S
C2396 H2390 0.949 . S
C2396 C2400 1.368 . S
C2397 C2378 1.429 . S
C2397 C2391 1.429 . S
C2397 C2398 1.523 . S
C2398 C2379 1.368 . S
C2398 C2392 1.368 . S
C2398 C2397 1.523 . S
C2399 C2383 1.429 . S
C2399 C2395 1.429 . S
C2399 C2400 1.523 . S
C2400 C2384 1.368 . S
C2400 C2396 1.368 . S
C2400 C2399 1.523 . S
H2401 C2376 0.950 . S
H2402 C2378 0.950 . S
H2403 C2379 0.949 . S
H2404 C2381 0.950 . S
H2405 C2383 0.950 . S
C2406 C2407 1.349 . S
C2406 C2408 1.327 . S
C2406 H2431 0.950 . S
C2407 C2406 1.349 . S
C2407 C2423 1.349 . S
C2408 C2406 1.327 . S
C2408 C2427 1.429 . S
C2408 H2432 0.950 . S
C2409 C2426 1.574 . S
C2409 C2428 1.368 . S
C2409 H2433 0.949 . S
H2410 C2414 0.949 . S
C2411 C2412 1.349 . S
C2411 C2413 1.327 . S
C2411 H2434 0.950 . S
C2412 C2411 1.349 . S
C2412 C2424 1.349 . S
C2413 C2411 1.327 . S
C2413 C2429 1.429 . S
C2413 H2435 0.950 . S
C2414 H2410 0.949 . S
C2414 C2422 1.574 . S
C2414 C2430 1.368 . S
H2415 C2423 0.950 . S
H2416 C2421 0.950 . S
H2417 C2422 0.949 . S
H2418 C2424 0.950 . S
H2419 C2425 0.950 . S
H2420 C2426 0.949 . S
C2421 H2416 0.950 . S
C2421 C2423 1.327 . S
C2421 C2427 1.429 . S
C2422 C2414 1.574 . S
C2422 H2417 0.949 . S
C2422 C2428 1.368 . S
C2423 C2407 1.349 . S
C2423 H2415 0.950 . S
C2423 C2421 1.327 . S
C2424 C2412 1.349 . S
C2424 H2418 0.950 . S
C2424 C2425 1.327 . S
C2425 H2419 0.950 . S
C2425 C2424 1.327 . S
C2425 C2429 1.429 . S
C2426 C2409 1.574 . S
C2426 H2420 0.949 . S
C2426 C2430 1.368 . S
C2427 C2408 1.429 . S
C2427 C2421 1.429 . S
C2427 C2428 1.523 . S
C2428 C2409 1.368 . S
C2428 C2422 1.368 . S
C2428 C2427 1.523 . S
C2429 C2413 1.429 . S
C2429 C2425 1.429 . S
C2429 C2430 1.523 . S
C2430 C2414 1.368 . S
C2430 C2426 1.368 . S
C2430 C2429 1.523 . S
H2431 C2406 0.950 . S
H2432 C2408 0.950 . S
H2433 C2409 0.949 . S
H2434 C2411 0.950 . S
H2435 C2413 0.950 . S
C2436 C2437 1.349 . S
C2436 C2438 1.327 . S
C2436 H2461 0.950 . S
C2437 C2436 1.349 . S
C2437 C2453 1.349 . S
C2438 C2436 1.327 . S
C2438 C2457 1.429 . S
C2438 H2462 0.950 . S
C2439 C2456 1.574 . S
C2439 C2458 1.368 . S
C2439 H2463 0.949 . S
H2440 C2444 0.949 . S
C2441 C2442 1.349 . S
C2441 C2443 1.327 . S
C2441 H2464 0.950 . S
C2442 C2441 1.349 . S
C2442 C2454 1.349 . S
C2443 C2441 1.327 . S
C2443 C2459 1.429 . S
C2443 H2465 0.950 . S
C2444 H2440 0.949 . S
C2444 C2452 1.574 . S
C2444 C2460 1.368 . S
H2445 C2453 0.950 . S
H2446 C2451 0.950 . S
H2447 C2452 0.949 . S
H2448 C2454 0.950 . S
H2449 C2455 0.950 . S
H2450 C2456 0.949 . S
C2451 H2446 0.950 . S
C2451 C2453 1.327 . S
C2451 C2457 1.429 . S
C2452 C2444 1.574 . S
C2452 H2447 0.949 . S
C2452 C2458 1.368 . S
C2453 C2437 1.349 . S
C2453 H2445 0.950 . S
C2453 C2451 1.327 . S
C2454 C2442 1.349 . S
C2454 H2448 0.950 . S
C2454 C2455 1.327 . S
C2455 H2449 0.950 . S
C2455 C2454 1.327 . S
C2455 C2459 1.429 . S
C2456 C2439 1.574 . S
C2456 H2450 0.949 . S
C2456 C2460 1.368 . S
C2457 C2438 1.429 . S
C2457 C2451 1.429 . S
C2457 C2458 1.523 . S
C2458 C2439 1.368 . S
C2458 C2452 1.368 . S
C2458 C2457 1.523 . S
C2459 C2443 1.429 . S
C2459 C2455 1.429 . S
C2459 C2460 1.523 . S
C2460 C2444 1.368 . S
C2460 C2456 1.368 . S
C2460 C2459 1.523 . S
H2461 C2436 0.950 . S
H2462 C2438 0.950 . S
H2463 C2439 0.949 . S
H2464 C2441 0.950 . S
H2465 C2443 0.950 . S
C2466 C2467 1.349 . S
C2466 C2468 1.327 . S
C2466 H2491 0.950 . S
C2467 C2466 1.349 . S
C2467 C2483 1.349 . S
C2468 C2466 1.327 . S
C2468 C2487 1.429 . S
C2468 H2492 0.950 . S
C2469 C2486 1.574 . S
C2469 C2488 1.368 . S
C2469 H2493 0.949 . S
H2470 C2474 0.949 . S
C2471 C2472 1.349 . S
C2471 C2473 1.327 . S
C2471 H2494 0.950 . S
C2472 C2471 1.349 . S
C2472 C2484 1.349 . S
C2473 C2471 1.327 . S
C2473 C2489 1.429 . S
C2473 H2495 0.950 . S
C2474 H2470 0.949 . S
C2474 C2482 1.574 . S
C2474 C2490 1.368 . S
H2475 C2483 0.950 . S
H2476 C2481 0.950 . S
H2477 C2482 0.949 . S
H2478 C2484 0.950 . S
H2479 C2485 0.950 . S
H2480 C2486 0.949 . S
C2481 H2476 0.950 . S
C2481 C2483 1.327 . S
C2481 C2487 1.429 . S
C2482 C2474 1.574 . S
C2482 H2477 0.949 . S
C2482 C2488 1.368 . S
C2483 C2467 1.349 . S
C2483 H2475 0.950 . S
C2483 C2481 1.327 . S
C2484 C2472 1.349 . S
C2484 H2478 0.950 . S
C2484 C2485 1.327 . S
C2485 H2479 0.950 . S
C2485 C2484 1.327 . S
C2485 C2489 1.429 . S
C2486 C2469 1.574 . S
C2486 H2480 0.949 . S
C2486 C2490 1.368 . S
C2487 C2468 1.429 . S
C2487 C2481 1.429 . S
C2487 C2488 1.523 . S
C2488 C2469 1.368 . S
C2488 C2482 1.368 . S
C2488 C2487 1.523 . S
C2489 C2473 1.429 . S
C2489 C2485 1.429 . S
C2489 C2490 1.523 . S
C2490 C2474 1.368 . S
C2490 C2486 1.368 . S
C2490 C2489 1.523 . S
H2491 C2466 0.950 . S
H2492 C2468 0.950 . S
H2493 C2469 0.949 . S
H2494 C2471 0.950 . S
H2495 C2473 0.950 . S
C2496 C2497 1.349 . S
C2496 C2498 1.327 . S
C2496 H2521 0.950 . S
C2497 C2496 1.349 . S
C2497 C2513 1.349 . S
C2498 C2496 1.327 . S
C2498 C2517 1.429 . S
C2498 H2522 0.950 . S
C2499 C2516 1.574 . S
C2499 C2518 1.368 . S
C2499 H2523 0.949 . S
H2500 C2504 0.949 . S
C2501 C2502 1.349 . S
C2501 C2503 1.327 . S
C2501 H2524 0.950 . S
C2502 C2501 1.349 . S
C2502 C2514 1.349 . S
C2503 C2501 1.327 . S
C2503 C2519 1.429 . S
C2503 H2525 0.950 . S
C2504 H2500 0.949 . S
C2504 C2512 1.574 . S
C2504 C2520 1.368 . S
H2505 C2513 0.950 . S
H2506 C2511 0.950 . S
H2507 C2512 0.949 . S
H2508 C2514 0.950 . S
H2509 C2515 0.950 . S
H2510 C2516 0.949 . S
C2511 H2506 0.950 . S
C2511 C2513 1.327 . S
C2511 C2517 1.429 . S
C2512 C2504 1.574 . S
C2512 H2507 0.949 . S
C2512 C2518 1.368 . S
C2513 C2497 1.349 . S
C2513 H2505 0.950 . S
C2513 C2511 1.327 . S
C2514 C2502 1.349 . S
C2514 H2508 0.950 . S
C2514 C2515 1.327 . S
C2515 H2509 0.950 . S
C2515 C2514 1.327 . S
C2515 C2519 1.429 . S
C2516 C2499 1.574 . S
C2516 H2510 0.949 . S
C2516 C2520 1.368 . S
C2517 C2498 1.429 . S
C2517 C2511 1.429 . S
C2517 C2518 1.523 . S
C2518 C2499 1.368 . S
C2518 C2512 1.368 . S
C2518 C2517 1.523 . S
C2519 C2503 1.429 . S
C2519 C2515 1.429 . S
C2519 C2520 1.523 . S
C2520 C2504 1.368 . S
C2520 C2516 1.368 . S
C2520 C2519 1.523 . S
H2521 C2496 0.950 . S
H2522 C2498 0.950 . S
H2523 C2499 0.949 . S
H2524 C2501 0.950 . S
H2525 C2503 0.950 . S
C2526 C2527 1.349 . S
C2526 C2528 1.327 . S
C2526 H2551 0.950 . S
C2527 C2526 1.349 . S
C2527 C2543 1.349 . S
C2528 C2526 1.327 . S
C2528 C2547 1.429 . S
C2528 H2552 0.950 . S
C2529 C2546 1.574 . S
C2529 C2548 1.368 . S
C2529 H2553 0.949 . S
H2530 C2534 0.949 . S
C2531 C2532 1.349 . S
C2531 C2533 1.327 . S
C2531 H2554 0.950 . S
C2532 C2531 1.349 . S
C2532 C2544 1.349 . S
C2533 C2531 1.327 . S
C2533 C2549 1.429 . S
C2533 H2555 0.950 . S
C2534 H2530 0.949 . S
C2534 C2542 1.574 . S
C2534 C2550 1.368 . S
H2535 C2543 0.950 . S
H2536 C2541 0.950 . S
H2537 C2542 0.949 . S
H2538 C2544 0.950 . S
H2539 C2545 0.950 . S
H2540 C2546 0.949 . S
C2541 H2536 0.950 . S
C2541 C2543 1.327 . S
C2541 C2547 1.429 . S
C2542 C2534 1.574 . S
C2542 H2537 0.949 . S
C2542 C2548 1.368 . S
C2543 C2527 1.349 . S
C2543 H2535 0.950 . S
C2543 C2541 1.327 . S
C2544 C2532 1.349 . S
C2544 H2538 0.950 . S
C2544 C2545 1.327 . S
C2545 H2539 0.950 . S
C2545 C2544 1.327 . S
C2545 C2549 1.429 . S
C2546 C2529 1.574 . S
C2546 H2540 0.949 . S
C2546 C2550 1.368 . S
C2547 C2528 1.429 . S
C2547 C2541 1.429 . S
C2547 C2548 1.523 . S
C2548 C2529 1.368 . S
C2548 C2542 1.368 . S
C2548 C2547 1.523 . S
C2549 C2533 1.429 . S
C2549 C2545 1.429 . S
C2549 C2550 1.523 . S
C2550 C2534 1.368 . S
C2550 C2546 1.368 . S
C2550 C2549 1.523 . S
H2551 C2526 0.950 . S
H2552 C2528 0.950 . S
H2553 C2529 0.949 . S
H2554 C2531 0.950 . S
H2555 C2533 0.950 . S
C2556 C2557 1.349 . S
C2556 C2558 1.327 . S
C2556 H2581 0.950 . S
C2557 C2556 1.349 . S
C2557 C2573 1.349 . S
C2558 C2556 1.327 . S
C2558 C2577 1.429 . S
C2558 H2582 0.950 . S
C2559 C2576 1.574 . S
C2559 C2578 1.368 . S
C2559 H2583 0.949 . S
H2560 C2564 0.949 . S
C2561 C2562 1.349 . S
C2561 C2563 1.327 . S
C2561 H2584 0.950 . S
C2562 C2561 1.349 . S
C2562 C2574 1.349 . S
C2563 C2561 1.327 . S
C2563 C2579 1.429 . S
C2563 H2585 0.950 . S
C2564 H2560 0.949 . S
C2564 C2572 1.574 . S
C2564 C2580 1.368 . S
H2565 C2573 0.950 . S
H2566 C2571 0.950 . S
H2567 C2572 0.949 . S
H2568 C2574 0.950 . S
H2569 C2575 0.950 . S
H2570 C2576 0.949 . S
C2571 H2566 0.950 . S
C2571 C2573 1.327 . S
C2571 C2577 1.429 . S
C2572 C2564 1.574 . S
C2572 H2567 0.949 . S
C2572 C2578 1.368 . S
C2573 C2557 1.349 . S
C2573 H2565 0.950 . S
C2573 C2571 1.327 . S
C2574 C2562 1.349 . S
C2574 H2568 0.950 . S
C2574 C2575 1.327 . S
C2575 H2569 0.950 . S
C2575 C2574 1.327 . S
C2575 C2579 1.429 . S
C2576 C2559 1.574 . S
C2576 H2570 0.949 . S
C2576 C2580 1.368 . S
C2577 C2558 1.429 . S
C2577 C2571 1.429 . S
C2577 C2578 1.523 . S
C2578 C2559 1.368 . S
C2578 C2572 1.368 . S
C2578 C2577 1.523 . S
C2579 C2563 1.429 . S
C2579 C2575 1.429 . S
C2579 C2580 1.523 . S
C2580 C2564 1.368 . S
C2580 C2576 1.368 . S
C2580 C2579 1.523 . S
H2581 C2556 0.950 . S
H2582 C2558 0.950 . S
H2583 C2559 0.949 . S
H2584 C2561 0.950 . S
H2585 C2563 0.950 . S
C2586 C2587 1.349 . S
C2586 C2588 1.327 . S
C2586 H2611 0.950 . S
C2587 C2586 1.349 . S
C2587 C2603 1.349 . S
C2588 C2586 1.327 . S
C2588 C2607 1.429 . S
C2588 H2612 0.950 . S
C2589 C2606 1.574 . S
C2589 C2608 1.368 . S
C2589 H2613 0.949 . S
H2590 C2594 0.949 . S
C2591 C2592 1.349 . S
C2591 C2593 1.327 . S
C2591 H2614 0.950 . S
C2592 C2591 1.349 . S
C2592 C2604 1.349 . S
C2593 C2591 1.327 . S
C2593 C2609 1.429 . S
C2593 H2615 0.950 . S
C2594 H2590 0.949 . S
C2594 C2602 1.574 . S
C2594 C2610 1.368 . S
H2595 C2603 0.950 . S
H2596 C2601 0.950 . S
H2597 C2602 0.949 . S
H2598 C2604 0.950 . S
H2599 C2605 0.950 . S
H2600 C2606 0.949 . S
C2601 H2596 0.950 . S
C2601 C2603 1.327 . S
C2601 C2607 1.429 . S
C2602 C2594 1.574 . S
C2602 H2597 0.949 . S
C2602 C2608 1.368 . S
C2603 C2587 1.349 . S
C2603 H2595 0.950 . S
C2603 C2601 1.327 . S
C2604 C2592 1.349 . S
C2604 H2598 0.950 . S
C2604 C2605 1.327 . S
C2605 H2599 0.950 . S
C2605 C2604 1.327 . S
C2605 C2609 1.429 . S
C2606 C2589 1.574 . S
C2606 H2600 0.949 . S
C2606 C2610 1.368 . S
C2607 C2588 1.429 . S
C2607 C2601 1.429 . S
C2607 C2608 1.523 . S
C2608 C2589 1.368 . S
C2608 C2602 1.368 . S
C2608 C2607 1.523 . S
C2609 C2593 1.429 . S
C2609 C2605 1.429 . S
C2609 C2610 1.523 . S
C2610 C2594 1.368 . S
C2610 C2606 1.368 . S
C2610 C2609 1.523 . S
H2611 C2586 0.950 . S
H2612 C2588 0.950 . S
H2613 C2589 0.949 . S
H2614 C2591 0.950 . S
H2615 C2593 0.950 . S
C2616 C2617 1.349 . S
C2616 C2618 1.327 . S
C2616 H2641 0.950 . S
C2617 C2616 1.349 . S
C2617 C2633 1.349 . S
C2618 C2616 1.327 . S
C2618 C2637 1.429 . S
C2618 H2642 0.950 . S
C2619 C2636 1.574 . S
C2619 C2638 1.368 . S
C2619 H2643 0.949 . S
H2620 C2624 0.949 . S
C2621 C2622 1.349 . S
C2621 C2623 1.327 . S
C2621 H2644 0.950 . S
C2622 C2621 1.349 . S
C2622 C2634 1.349 . S
C2623 C2621 1.327 . S
C2623 C2639 1.429 . S
C2623 H2645 0.950 . S
C2624 H2620 0.949 . S
C2624 C2632 1.574 . S
C2624 C2640 1.368 . S
H2625 C2633 0.950 . S
H2626 C2631 0.950 . S
H2627 C2632 0.949 . S
H2628 C2634 0.950 . S
H2629 C2635 0.950 . S
H2630 C2636 0.949 . S
C2631 H2626 0.950 . S
C2631 C2633 1.327 . S
C2631 C2637 1.429 . S
C2632 C2624 1.574 . S
C2632 H2627 0.949 . S
C2632 C2638 1.368 . S
C2633 C2617 1.349 . S
C2633 H2625 0.950 . S
C2633 C2631 1.327 . S
C2634 C2622 1.349 . S
C2634 H2628 0.950 . S
C2634 C2635 1.327 . S
C2635 H2629 0.950 . S
C2635 C2634 1.327 . S
C2635 C2639 1.429 . S
C2636 C2619 1.574 . S
C2636 H2630 0.949 . S
C2636 C2640 1.368 . S
C2637 C2618 1.429 . S
C2637 C2631 1.429 . S
C2637 C2638 1.523 . S
C2638 C2619 1.368 . S
C2638 C2632 1.368 . S
C2638 C2637 1.523 . S
C2639 C2623 1.429 . S
C2639 C2635 1.429 . S
C2639 C2640 1.523 . S
C2640 C2624 1.368 . S
C2640 C2636 1.368 . S
C2640 C2639 1.523 . S
H2641 C2616 0.950 . S
H2642 C2618 0.950 . S
H2643 C2619 0.949 . S
H2644 C2621 0.950 . S
H2645 C2623 0.950 . S
C2646 C2647 1.349 . S
C2646 C2648 1.327 . S
C2646 H2671 0.950 . S
C2647 C2646 1.349 . S
C2647 C2663 1.349 . S
C2648 C2646 1.327 . S
C2648 C2667 1.429 . S
C2648 H2672 0.950 . S
C2649 C2666 1.574 . S
C2649 C2668 1.368 . S
C2649 H2673 0.949 . S
H2650 C2654 0.949 . S
C2651 C2652 1.349 . S
C2651 C2653 1.327 . S
C2651 H2674 0.950 . S
C2652 C2651 1.349 . S
C2652 C2664 1.349 . S
C2653 C2651 1.327 . S
C2653 C2669 1.429 . S
C2653 H2675 0.950 . S
C2654 H2650 0.949 . S
C2654 C2662 1.574 . S
C2654 C2670 1.368 . S
H2655 C2663 0.950 . S
H2656 C2661 0.950 . S
H2657 C2662 0.949 . S
H2658 C2664 0.950 . S
H2659 C2665 0.950 . S
H2660 C2666 0.949 . S
C2661 H2656 0.950 . S
C2661 C2663 1.327 . S
C2661 C2667 1.429 . S
C2662 C2654 1.574 . S
C2662 H2657 0.949 . S
C2662 C2668 1.368 . S
C2663 C2647 1.349 . S
C2663 H2655 0.950 . S
C2663 C2661 1.327 . S
C2664 C2652 1.349 . S
C2664 H2658 0.950 . S
C2664 C2665 1.327 . S
C2665 H2659 0.950 . S
C2665 C2664 1.327 . S
C2665 C2669 1.429 . S
C2666 C2649 1.574 . S
C2666 H2660 0.949 . S
C2666 C2670 1.368 . S
C2667 C2648 1.429 . S
C2667 C2661 1.429 . S
C2667 C2668 1.523 . S
C2668 C2649 1.368 . S
C2668 C2662 1.368 . S
C2668 C2667 1.523 . S
C2669 C2653 1.429 . S
C2669 C2665 1.429 . S
C2669 C2670 1.523 . S
C2670 C2654 1.368 . S
C2670 C2666 1.368 . S
C2670 C2669 1.523 . S
H2671 C2646 0.950 . S
H2672 C2648 0.950 . S
H2673 C2649 0.949 . S
H2674 C2651 0.950 . S
H2675 C2653 0.950 . S
C2676 C2677 1.349 . S
C2676 C2678 1.327 . S
C2676 H2701 0.950 . S
C2677 C2676 1.349 . S
C2677 C2693 1.349 . S
C2678 C2676 1.327 . S
C2678 C2697 1.429 . S
C2678 H2702 0.950 . S
C2679 C2696 1.574 . S
C2679 C2698 1.368 . S
C2679 H2703 0.949 . S
H2680 C2684 0.949 . S
C2681 C2682 1.349 . S
C2681 C2683 1.327 . S
C2681 H2704 0.950 . S
C2682 C2681 1.349 . S
C2682 C2694 1.349 . S
C2683 C2681 1.327 . S
C2683 C2699 1.429 . S
C2683 H2705 0.950 . S
C2684 H2680 0.949 . S
C2684 C2692 1.574 . S
C2684 C2700 1.368 . S
H2685 C2693 0.950 . S
H2686 C2691 0.950 . S
H2687 C2692 0.949 . S
H2688 C2694 0.950 . S
H2689 C2695 0.950 . S
H2690 C2696 0.949 . S
C2691 H2686 0.950 . S
C2691 C2693 1.327 . S
C2691 C2697 1.429 . S
C2692 C2684 1.574 . S
C2692 H2687 0.949 . S
C2692 C2698 1.368 . S
C2693 C2677 1.349 . S
C2693 H2685 0.950 . S
C2693 C2691 1.327 . S
C2694 C2682 1.349 . S
C2694 H2688 0.950 . S
C2694 C2695 1.327 . S
C2695 H2689 0.950 . S
C2695 C2694 1.327 . S
C2695 C2699 1.429 . S
C2696 C2679 1.574 . S
C2696 H2690 0.949 . S
C2696 C2700 1.368 . S
C2697 C2678 1.429 . S
C2697 C2691 1.429 . S
C2697 C2698 1.523 . S
C2698 C2679 1.368 . S
C2698 C2692 1.368 . S
C2698 C2697 1.523 . S
C2699 C2683 1.429 . S
C2699 C2695 1.429 . S
C2699 C2700 1.523 . S
C2700 C2684 1.368 . S
C2700 C2696 1.368 . S
C2700 C2699 1.523 . S
H2701 C2676 0.950 . S
H2702 C2678 0.950 . S
H2703 C2679 0.949 . S
H2704 C2681 0.950 . S
H2705 C2683 0.950 . S
C2706 C2707 1.349 . S
C2706 C2708 1.327 . S
C2706 H2731 0.950 . S
C2707 C2706 1.349 . S
C2707 C2723 1.349 . S
C2708 C2706 1.327 . S
C2708 C2727 1.429 . S
C2708 H2732 0.950 . S
C2709 C2726 1.574 . S
C2709 C2728 1.368 . S
C2709 H2733 0.949 . S
H2710 C2714 0.949 . S
C2711 C2712 1.349 . S
C2711 C2713 1.327 . S
C2711 H2734 0.950 . S
C2712 C2711 1.349 . S
C2712 C2724 1.349 . S
C2713 C2711 1.327 . S
C2713 C2729 1.429 . S
C2713 H2735 0.950 . S
C2714 H2710 0.949 . S
C2714 C2722 1.574 . S
C2714 C2730 1.368 . S
H2715 C2723 0.950 . S
H2716 C2721 0.950 . S
H2717 C2722 0.949 . S
H2718 C2724 0.950 . S
H2719 C2725 0.950 . S
H2720 C2726 0.949 . S
C2721 H2716 0.950 . S
C2721 C2723 1.327 . S
C2721 C2727 1.429 . S
C2722 C2714 1.574 . S
C2722 H2717 0.949 . S
C2722 C2728 1.368 . S
C2723 C2707 1.349 . S
C2723 H2715 0.950 . S
C2723 C2721 1.327 . S
C2724 C2712 1.349 . S
C2724 H2718 0.950 . S
C2724 C2725 1.327 . S
C2725 H2719 0.950 . S
C2725 C2724 1.327 . S
C2725 C2729 1.429 . S
C2726 C2709 1.574 . S
C2726 H2720 0.949 . S
C2726 C2730 1.368 . S
C2727 C2708 1.429 . S
C2727 C2721 1.429 . S
C2727 C2728 1.523 . S
C2728 C2709 1.368 . S
C2728 C2722 1.368 . S
C2728 C2727 1.523 . S
C2729 C2713 1.429 . S
C2729 C2725 1.429 . S
C2729 C2730 1.523 . S
C2730 C2714 1.368 . S
C2730 C2726 1.368 . S
C2730 C2729 1.523 . S
H2731 C2706 0.950 . S
H2732 C2708 0.950 . S
H2733 C2709 0.949 . S
H2734 C2711 0.950 . S
H2735 C2713 0.950 . S
C582 C306 1.112 . S
C577 C258 1.149 . S
C607 C236 1.556 . S
C612 C300 1.482 . S
C642 C268 1.624 . S
C637 C225 1.713 . S
C667 C247 1.363 . S
C672 C282 1.288 . S
C702 C320 1.905 . S
C697 C181 2.023 . S
C732 C407 1.314 . S
C727 C192 1.336 . S
C757 C203 2.069 . S
C762 C334 1.981 . S
C792 C402 1.255 . S
C787 C214 1.274 . S
C817 C137 2.192 . S
C822 C358 2.087 . S
C852 C413 1.629 . S
C847 C148 1.665 . S
C877 C159 2.112 . S
C882 C352 2.039 . S
C907 C170 0.892 . S
C912 C398 0.883 . S
C942 C454 0.923 . S
C937 C126 0.930 . S
C967 C104 1.736 . S
C972 C465 1.707 . S
C997 C93 1.379 . S
C1002 C450 1.358 . S
C1032 C459 1.433 . S
C1027 C115 1.457 1_554 S
C1057 C49 1.495 . S
C1062 C504 1.435 . S
C1087 C60 0.476 . S
C1092 C563 0.495 . S
C1117 C71 1.640 . S
C1122 C520 1.535 . S
C1147 C82 1.258 . S
C1152 C558 1.237 . S
C1182 C522 1.704 . S
C1177 C5 1.799 . S
C1212 C569 0.658 . S
C1207 C16 0.650 . S
C1237 C27 1.586 . S
C1242 C498 1.498 . S
C1272 C554 0.762 . S
C1267 C38 0.764 . S
C1302 C290 1.687 . S
C1297 C4 1.734 . S
C1327 C21 1.120 . S
C1332 C294 1.156 . S
C1357 C32 1.417 . S
C1362 C314 1.401 . S
C1387 C37 0.874 . S
C1392 C309 0.882 . S
C1417 C48 1.795 . S
C1422 C312 1.753 . S
C1452 C298 1.229 . S
C1447 C59 1.216 . S
C1477 C76 1.339 . S
C1482 C296 1.348 . S
C1512 C303 1.246 . S
C1507 C81 1.248 . S
C1542 C366 1.288 . S
C1537 C43 1.289 . S
C1567 C10 1.801 . S
C1572 C416 1.778 . S
C1602 C364 1.400 . S
C1597 C15 1.438 . S
C1632 C400 1.995 . S
C1627 C26 2.094 . S
C1657 C65 0.983 . S
C1662 C342 0.984 . S
C1692 C418 1.940 . S
C1687 C70 2.012 . S
C1722 C348 1.371 . S
C1717 C87 1.362 . S
C1752 C394 1.569 . S
C1747 C54 1.556 . S
C1782 C386 1.379 . S
C1777 C98 1.355 . S
C1807 C109 1.152 . S
C1812 C410 1.186 . S
C1842 C346 1.353 . S
C1837 C92 1.338 . S
C1872 C372 1.248 1_556 S
C1867 C114 1.251 . S
C1897 C131 0.827 . S
C1902 C350 0.840 . S
C1927 C125 1.354 . S
C1932 C404 1.339 1_556 S
C1962 C361 1.629 . S
C1957 C103 1.611 . S
C1992 C355 1.236 . S
C1987 C120 1.165 . S
C2022 C438 2.059 . S
C2017 C136 2.123 . S
C2052 C470 1.378 . S
C2047 C153 1.345 . S
C2077 C164 1.730 . S
C2082 C424 1.772 . S
C2112 C468 1.050 . S
C2107 C169 1.064 . S
C2142 C456 2.041 . S
C2137 C180 2.072 . S
C2167 C191 1.351 . S
C2172 C452 1.359 . S
C2197 C208 1.728 . S
C2202 C462 1.778 . S
C2232 C446 1.385 . S
C2227 C213 1.432 . S
C2262 C511 1.156 . S
C2257 C175 1.109 . S
C2287 C142 1.507 . S
C2292 C572 1.523 . S
C2322 C506 1.242 . S
C2317 C147 1.223 . S
C2352 C556 1.760 . S
C2347 C158 1.788 . S
C2382 C502 0.882 . S
C2377 C197 0.860 . S
C2407 C202 1.655 . S
C2412 C574 1.636 . S
C2442 C517 1.244 . S
C2437 C219 1.197 . S
C2472 C550 1.258 . S
C2467 C186 1.220 . S
C2502 C542 1.521 . S
C2497 C230 1.516 . S
C2527 C241 1.615 . S
C2532 C566 1.599 . S
C2562 C508 1.569 . S
C2557 C224 1.601 . S
C2587 C246 1.753 . S
C2592 C528 1.688 . S
C2622 C490 1.165 . S
C2617 C263 1.169 . S
C2652 C560 1.460 . S
C2647 C257 1.488 . S
C2682 C476 1.577 . S
C2677 C235 1.628 . S
C2707 C252 1.101 . S
C2712 C514 1.100 . S
