# Generated by pormake.
# Topology ctn, (3,4)-cn, num edge types: 1
# Building blocks:
#     Node 0, Type 0, BuildingBlock: QEWDON_clean_linker_0, # of connection points: 3
#     Node 1, Type 0, BuildingBlock: QEWDON_clean_linker_0, # of connection points: 3
#     Node 2, Type 0, BuildingBlock: QEWDON_clean_linker_0, # of connection points: 3
#     Node 3, Type 0, BuildingBlock: QEWDON_clean_linker_0, # of connection points: 3
#     Node 4, Type 0, BuildingBlock: QEWDON_clean_linker_0, # of connection points: 3
#     Node 5, Type 0, BuildingBlock: QEWDON_clean_linker_0, # of connection points: 3
#     Node 6, Type 0, BuildingBlock: QEWDON_clean_linker_0, # of connection points: 3
#     Node 7, Type 0, BuildingBlock: QEWDON_clean_linker_0, # of connection points: 3
#     Node 8, Type 0, BuildingBlock: QEWDON_clean_linker_0, # of connection points: 3
#     Node 9, Type 0, BuildingBlock: QEWDON_clean_linker_0, # of connection points: 3
#     Node 10, Type 0, BuildingBlock: QEWDON_clean_linker_0, # of connection points: 3
#     Node 11, Type 0, BuildingBlock: QEWDON_clean_linker_0, # of connection points: 3
#     Node 12, Type 0, BuildingBlock: QEWDON_clean_linker_0, # of connection points: 3
#     Node 13, Type 0, BuildingBlock: QEWDON_clean_linker_0, # of connection points: 3
#     Node 14, Type 0, BuildingBlock: QEWDON_clean_linker_0, # of connection points: 3
#     Node 15, Type 0, BuildingBlock: QEWDON_clean_linker_0, # of connection points: 3
#     Node 16, Type 1, BuildingBlock: UXUYUI_clean_sbu_0, # of connection points: 4
#     Node 17, Type 1, BuildingBlock: UXUYUI_clean_sbu_0, # of connection points: 4
#     Node 18, Type 1, BuildingBlock: UXUYUI_clean_sbu_0, # of connection points: 4
#     Node 19, Type 1, BuildingBlock: UXUYUI_clean_sbu_0, # of connection points: 4
#     Node 20, Type 1, BuildingBlock: UXUYUI_clean_sbu_0, # of connection points: 4
#     Node 21, Type 1, BuildingBlock: UXUYUI_clean_sbu_0, # of connection points: 4
#     Node 22, Type 1, BuildingBlock: UXUYUI_clean_sbu_0, # of connection points: 4
#     Node 23, Type 1, BuildingBlock: UXUYUI_clean_sbu_0, # of connection points: 4
#     Node 24, Type 1, BuildingBlock: UXUYUI_clean_sbu_0, # of connection points: 4
#     Node 25, Type 1, BuildingBlock: UXUYUI_clean_sbu_0, # of connection points: 4
#     Node 26, Type 1, BuildingBlock: UXUYUI_clean_sbu_0, # of connection points: 4
#     Node 27, Type 1, BuildingBlock: UXUYUI_clean_sbu_0, # of connection points: 4
#     Edge 28, Type (0, 1), BuildingBlock: EZIPEK_clean_linker_0, # of connection points: 2
#     Edge 29, Type (0, 1), BuildingBlock: EZIPEK_clean_linker_0, # of connection points: 2
#     Edge 30, Type (0, 1), BuildingBlock: EZIPEK_clean_linker_0, # of connection points: 2
#     Edge 31, Type (0, 1), BuildingBlock: EZIPEK_clean_linker_0, # of connection points: 2
#     Edge 32, Type (0, 1), BuildingBlock: EZIPEK_clean_linker_0, # of connection points: 2
#     Edge 33, Type (0, 1), BuildingBlock: EZIPEK_clean_linker_0, # of connection points: 2
#     Edge 34, Type (0, 1), BuildingBlock: EZIPEK_clean_linker_0, # of connection points: 2
#     Edge 35, Type (0, 1), BuildingBlock: EZIPEK_clean_linker_0, # of connection points: 2
#     Edge 36, Type (0, 1), BuildingBlock: EZIPEK_clean_linker_0, # of connection points: 2
#     Edge 37, Type (0, 1), BuildingBlock: EZIPEK_clean_linker_0, # of connection points: 2
#     Edge 38, Type (0, 1), BuildingBlock: EZIPEK_clean_linker_0, # of connection points: 2
#     Edge 39, Type (0, 1), BuildingBlock: EZIPEK_clean_linker_0, # of connection points: 2
#     Edge 40, Type (0, 1), BuildingBlock: EZIPEK_clean_linker_0, # of connection points: 2
#     Edge 41, Type (0, 1), BuildingBlock: EZIPEK_clean_linker_0, # of connection points: 2
#     Edge 42, Type (0, 1), BuildingBlock: EZIPEK_clean_linker_0, # of connection points: 2
#     Edge 43, Type (0, 1), BuildingBlock: EZIPEK_clean_linker_0, # of connection points: 2
#     Edge 44, Type (0, 1), BuildingBlock: EZIPEK_clean_linker_0, # of connection points: 2
#     Edge 45, Type (0, 1), BuildingBlock: EZIPEK_clean_linker_0, # of connection points: 2
#     Edge 46, Type (0, 1), BuildingBlock: EZIPEK_clean_linker_0, # of connection points: 2
#     Edge 47, Type (0, 1), BuildingBlock: EZIPEK_clean_linker_0, # of connection points: 2
#     Edge 48, Type (0, 1), BuildingBlock: EZIPEK_clean_linker_0, # of connection points: 2
#     Edge 49, Type (0, 1), BuildingBlock: EZIPEK_clean_linker_0, # of connection points: 2
#     Edge 50, Type (0, 1), BuildingBlock: EZIPEK_clean_linker_0, # of connection points: 2
#     Edge 51, Type (0, 1), BuildingBlock: EZIPEK_clean_linker_0, # of connection points: 2
#     Edge 52, Type (0, 1), BuildingBlock: EZIPEK_clean_linker_0, # of connection points: 2
#     Edge 53, Type (0, 1), BuildingBlock: EZIPEK_clean_linker_0, # of connection points: 2
#     Edge 54, Type (0, 1), BuildingBlock: EZIPEK_clean_linker_0, # of connection points: 2
#     Edge 55, Type (0, 1), BuildingBlock: EZIPEK_clean_linker_0, # of connection points: 2
#     Edge 56, Type (0, 1), BuildingBlock: EZIPEK_clean_linker_0, # of connection points: 2
#     Edge 57, Type (0, 1), BuildingBlock: EZIPEK_clean_linker_0, # of connection points: 2
#     Edge 58, Type (0, 1), BuildingBlock: EZIPEK_clean_linker_0, # of connection points: 2
#     Edge 59, Type (0, 1), BuildingBlock: EZIPEK_clean_linker_0, # of connection points: 2
#     Edge 60, Type (0, 1), BuildingBlock: EZIPEK_clean_linker_0, # of connection points: 2
#     Edge 61, Type (0, 1), BuildingBlock: EZIPEK_clean_linker_0, # of connection points: 2
#     Edge 62, Type (0, 1), BuildingBlock: EZIPEK_clean_linker_0, # of connection points: 2
#     Edge 63, Type (0, 1), BuildingBlock: EZIPEK_clean_linker_0, # of connection points: 2
#     Edge 64, Type (0, 1), BuildingBlock: EZIPEK_clean_linker_0, # of connection points: 2
#     Edge 65, Type (0, 1), BuildingBlock: EZIPEK_clean_linker_0, # of connection points: 2
#     Edge 66, Type (0, 1), BuildingBlock: EZIPEK_clean_linker_0, # of connection points: 2
#     Edge 67, Type (0, 1), BuildingBlock: EZIPEK_clean_linker_0, # of connection points: 2
#     Edge 68, Type (0, 1), BuildingBlock: EZIPEK_clean_linker_0, # of connection points: 2
#     Edge 69, Type (0, 1), BuildingBlock: EZIPEK_clean_linker_0, # of connection points: 2
#     Edge 70, Type (0, 1), BuildingBlock: EZIPEK_clean_linker_0, # of connection points: 2
#     Edge 71, Type (0, 1), BuildingBlock: EZIPEK_clean_linker_0, # of connection points: 2
#     Edge 72, Type (0, 1), BuildingBlock: EZIPEK_clean_linker_0, # of connection points: 2
#     Edge 73, Type (0, 1), BuildingBlock: EZIPEK_clean_linker_0, # of connection points: 2
#     Edge 74, Type (0, 1), BuildingBlock: EZIPEK_clean_linker_0, # of connection points: 2
#     Edge 75, Type (0, 1), BuildingBlock: EZIPEK_clean_linker_0, # of connection points: 2
# Relax obj value: 0.119
# Max RMSD: 0.279
# Mean RMSD: 0.160
data_MOF--net-ctn--node1-UXUYUI_clean_sbu_0--node2-QEWDON_clean_linker_0--edge1-EZIPEK_clean_linker_0
_symmetry_space_group_name_H-M    P1
_symmetry_Int_Tables_number       1
_symmetry_cell_setting            triclinic
loop_
_symmetry_equiv_pos_as_xyz
'x, y, z'
_cell_length_a     51.233411
_cell_length_b     53.404073
_cell_length_c     56.90136
_cell_angle_alpha  98.148469
_cell_angle_beta   92.008915
_cell_angle_gamma 95.464664
loop_
_atom_site_label
_atom_site_type_symbol
_atom_site_fract_x
_atom_site_fract_y
_atom_site_fract_z
_atom_type_partial_charge
H0 H 0.10803 0.03924 0.05552 0.0
C1 C 0.09479 0.03612 0.06951 0.0
C2 C 0.0947 0.01361 0.07983 0.0
C3 C 0.07912 0.05528 0.07825 0.0
H4 H 0.07819 0.99307 0.10692 0.0
C5 C 0.07811 0.01014 0.09865 0.0
C6 C 0.06234 0.02921 0.10752 0.0
C7 C 0.06299 0.0516 0.09721 0.0
C8 C 0.08225 0.08067 0.07027 0.0
H9 H 0.0514 0.06658 0.10446 0.0
C10 C 0.07553 0.08431 0.04676 0.0
C11 C 0.07751 0.10913 0.04054 0.0
C12 C 0.09145 0.10186 0.08705 0.0
H13 H 0.09679 0.09951 0.10515 0.0
C14 C 0.09387 0.12621 0.08074 0.0
H15 H 0.06816 0.0682 0.03368 0.0
C16 C 0.08686 0.12986 0.05769 0.0
H17 H 0.08855 0.149 0.05321 0.0
H18 H 0.101 0.14237 0.09383 0.0
H19 H 0.351 0.75031 0.25648 0.0
C20 C 0.33773 0.73302 0.25258 0.0
C21 C 0.34366 0.71117 0.26208 0.0
C22 C 0.31443 0.73295 0.2387 0.0
H23 H 0.32967 0.67254 0.2657 0.0
C24 C 0.32573 0.68921 0.25782 0.0
C25 C 0.30185 0.68927 0.24494 0.0
C26 C 0.29658 0.71094 0.23486 0.0
C27 C 0.30688 0.75712 0.23178 0.0
H28 H 0.27785 0.71122 0.22546 0.0
C29 C 0.30462 0.76102 0.20778 0.0
C30 C 0.29757 0.78449 0.20209 0.0
C31 C 0.30189 0.77665 0.24979 0.0
H32 H 0.30346 0.774 0.26831 0.0
C33 C 0.29459 0.79965 0.24415 0.0
H34 H 0.30871 0.74618 0.19374 0.0
C35 C 0.29245 0.80358 0.22049 0.0
H36 H 0.28702 0.8217 0.21648 0.0
H37 H 0.29069 0.81455 0.25818 0.0
H38 H 0.02286 0.48187 0.06057 0.0
C39 C 0.00735 0.49413 0.0592 0.0
C40 C 1.00042 0.5097 0.07963 0.0
C41 C 0.99542 0.49543 0.03688 0.0
H42 H 0.97575 0.53867 0.09325 0.0
C43 C 0.98087 0.52632 0.07766 0.0
C44 C 0.96842 0.52736 0.05538 0.0
C45 C 0.9758 0.51183 0.03523 0.0
C46 C 1.00489 0.48159 0.01484 0.0
H47 H 0.96655 0.51297 0.01802 0.0
C48 C 0.00667 0.45515 0.01199 0.0
C49 C 0.01465 0.44252 0.99038 0.0
C50 C 0.01181 0.49516 0.99614 0.0
H51 H 0.01087 0.51552 0.99798 0.0
C52 C 0.02014 0.48267 0.97495 0.0
H53 H 1.00121 0.44437 0.02615 0.0
C54 C 0.02145 0.45649 0.97201 0.0
H55 H 0.02764 0.44702 0.95531 0.0
H56 H 0.02542 0.49331 0.96068 0.0
H57 H 0.77975 0.81848 0.25088 0.0
C58 C 0.77907 0.80972 0.23244 0.0
C59 C 0.79169 0.82277 0.2155 0.0
C60 C 0.76713 0.78478 0.22596 0.0
H61 H 0.80191 0.82058 0.17877 0.0
C62 C 0.79173 0.81085 0.19179 0.0
C63 C 0.77995 0.78585 0.18517 0.0
C64 C 0.7677 0.77297 0.20232 0.0
C65 C 0.75816 0.76947 0.24441 0.0
H66 H 0.75946 0.75337 0.19745 0.0
C67 C 0.73381 0.77189 0.25491 0.0
C68 C 0.72578 0.75631 0.27196 0.0
C69 C 0.77431 0.75166 0.25121 0.0
H70 H 0.79306 0.74953 0.24329 0.0
C71 C 0.76648 0.73649 0.26823 0.0
H72 H 0.72109 0.78541 0.24962 0.0
C73 C 0.74235 0.73873 0.27852 0.0
H74 H 0.73648 0.72662 0.29156 0.0
H75 H 0.77908 0.72283 0.27337 0.0
H76 H 0.11104 0.97475 0.49502 0.0
C77 C 0.0968 0.97947 0.48223 0.0
C78 C 0.10231 1.00122 0.47105 0.0
C79 C 0.07388 0.96283 0.47552 0.0
H80 H 0.08919 0.02266 0.44425 0.0
C81 C 0.08461 1.00637 0.45333 0.0
C82 C 0.06157 0.99013 0.4466 0.0
C83 C 0.05623 0.9686 0.45797 0.0
C84 C 0.07076 0.93701 0.48277 0.0
H85 H 0.03894 0.95553 0.45218 0.0
C86 C 0.06585 0.93269 0.50631 0.0
C87 C 0.06175 0.90745 0.51156 0.0
C88 C 0.07205 0.91605 0.46503 0.0
H89 H 0.07586 0.91886 0.44692 0.0
C90 C 0.06846 0.89133 0.47034 0.0
H91 H 0.06461 0.94862 0.52017 0.0
C92 C 0.06326 0.88703 0.49336 0.0
H93 H 0.06027 0.86762 0.49702 0.0
H94 H 0.06953 0.87538 0.45647 0.0
H95 H 0.27526 0.69028 0.78274 0.0
C96 C 0.27133 0.69779 0.80075 0.0
C97 C 0.28038 0.68655 0.82031 0.0
C98 C 0.2577 0.71955 0.8038 0.0
H99 H 0.29048 0.69709 0.85842 0.0
C100 C 0.27994 0.70159 0.84308 0.0
C101 C 0.2667 0.72377 0.84635 0.0
C102 C 0.25474 0.73197 0.8267 0.0
C103 C 0.24922 0.73093 0.78286 0.0
H104 H 0.24484 0.74915 0.82911 0.0
C105 C 0.22242 0.73179 0.77668 0.0
C106 C 0.21509 0.7428 0.7566 0.0
C107 C 0.26841 0.74113 0.7689 0.0
H108 H 0.28907 0.74066 0.77337 0.0
C109 C 0.26114 0.75227 0.74923 0.0
H110 H 0.20743 0.72371 0.78717 0.0
C111 C 0.23468 0.75313 0.74311 0.0
H112 H 0.22941 0.7616 0.72762 0.0
H113 H 0.27609 0.76018 0.73864 0.0
H114 H 0.98045 0.59772 0.48109 0.0
C115 C 0.96788 0.58173 0.48553 0.0
C116 C 0.95922 0.58222 0.50879 0.0
C117 C 0.95895 0.56144 0.46768 0.0
H118 H 0.93469 0.5626 0.53193 0.0
C119 C 0.9419 0.56202 0.51419 0.0
C120 C 0.93281 0.54171 0.49645 0.0
C121 C 0.94143 0.54152 0.47328 0.0
C122 C 0.96385 0.56318 0.44245 0.0
H123 H 0.93364 0.52636 0.45936 0.0
C124 C 0.98729 0.55645 0.43205 0.0
C125 C 0.99046 0.55741 0.40761 0.0
C126 C 0.94401 0.57107 0.4284 0.0
H127 H 0.92587 0.57624 0.43609 0.0
C128 C 0.94731 0.57227 0.40436 0.0
H129 H 1.00265 0.55016 0.44269 0.0
C130 C 0.97034 0.56543 0.39399 0.0
H131 H 0.97247 0.56631 0.37524 0.0
H132 H 0.93189 0.57838 0.39368 0.0
H133 H 0.83639 0.82004 0.79394 0.0
C134 C 0.83397 0.80588 0.80581 0.0
C135 C 0.84916 0.78509 0.8031 0.0
C136 C 0.81707 0.80936 0.82469 0.0
H137 H 0.85879 0.75151 0.81751 0.0
C138 C 0.84684 0.76729 0.81924 0.0
C139 C 0.82968 0.77032 0.83804 0.0
C140 C 0.81489 0.79129 0.84051 0.0
C141 C 0.80449 0.83344 0.83013 0.0
H142 H 0.80218 0.79396 0.85531 0.0
C143 C 0.78837 0.84268 0.81322 0.0
C144 C 0.77665 0.8655 0.81957 0.0
C145 C 0.80897 0.84749 0.85299 0.0
H146 H 0.82147 0.84104 0.86619 0.0
C147 C 0.79769 0.87009 0.85907 0.0
H148 H 0.78454 0.83204 0.79557 0.0
C149 C 0.7816 0.87901 0.84255 0.0
H150 H 0.77281 0.89651 0.84774 0.0
H151 H 0.80136 0.88071 0.87673 0.0
H152 H 0.33434 0.31924 0.29341 0.0
C153 C 0.3322 0.30508 0.30529 0.0
C154 C 0.34777 0.28456 0.3026 0.0
C155 C 0.31534 0.30834 0.32423 0.0
H156 H 0.35807 0.25123 0.31708 0.0
C157 C 0.34582 0.26679 0.31878 0.0
C158 C 0.32861 0.26953 0.33755 0.0
C159 C 0.31347 0.29024 0.34003 0.0
C160 C 0.30247 0.33224 0.32971 0.0
H161 H 0.30075 0.2927 0.35485 0.0
C162 C 0.28656 0.34156 0.31269 0.0
C163 C 0.27464 0.36426 0.31903 0.0
C164 C 0.30651 0.34611 0.35269 0.0
H165 H 0.31887 0.33964 0.36597 0.0
C166 C 0.29501 0.36859 0.35877 0.0
H167 H 0.28308 0.33108 0.29494 0.0
C168 C 0.27915 0.37758 0.34212 0.0
H169 H 0.2702 0.39499 0.3473 0.0
H170 H 0.29835 0.37906 0.37652 0.0
H171 H 0.52487 0.98194 0.56129 0.0
C172 C 0.50925 0.99404 0.55971 0.0
C173 C 0.50191 0.00953 0.58002 0.0
C174 C 0.49761 0.99524 0.53725 0.0
H175 H 0.47683 0.03829 0.59328 0.0
C176 C 0.48225 0.02598 0.57778 0.0
C177 C 0.47007 0.02691 0.55535 0.0
C178 C 0.47785 0.01144 0.53533 0.0
C179 C 0.50758 0.98157 0.51536 0.0
H180 H 0.46883 0.01249 0.51801 0.0
C181 C 0.50966 0.95517 0.51253 0.0
C182 C 0.51813 0.94271 0.49104 0.0
C183 C 0.5147 0.99526 0.49679 0.0
H184 H 0.51354 0.01559 0.49863 0.0
C185 C 0.52352 0.98294 0.47574 0.0
H186 H 0.50405 0.9443 0.52658 0.0
C187 C 0.52512 0.9568 0.47281 0.0
H188 H 0.53169 0.94746 0.45621 0.0
H189 H 0.52895 0.99368 0.46158 0.0
H190 H 0.27342 0.30956 0.75177 0.0
C191 C 0.27751 0.30246 0.73382 0.0
C192 C 0.29677 0.31505 0.72092 0.0
C193 C 0.26328 0.27934 0.72383 0.0
H194 H 0.30883 0.31639 0.68464 0.0
C195 C 0.29684 0.30617 0.69615 0.0
C196 C 0.28223 0.28343 0.68585 0.0
C197 C 0.26588 0.26999 0.69986 0.0
C198 C 0.24905 0.26273 0.73909 0.0
H199 H 0.25552 0.25186 0.69215 0.0
C200 C 0.22847 0.27077 0.75329 0.0
C201 C 0.21549 0.25397 0.7672 0.0
C202 C 0.25662 0.23814 0.73938 0.0
H203 H 0.27255 0.23162 0.72886 0.0
C204 C 0.24403 0.22178 0.75339 0.0
H205 H 0.2223 0.2896 0.75321 0.0
C206 C 0.22357 0.2296 0.76718 0.0
H207 H 0.21382 0.21652 0.77777 0.0
H208 H 0.2501 0.20293 0.75348 0.0
H209 H 0.85009 0.25137 0.7502 0.0
C210 C 0.8361 0.23455 0.74825 0.0
C211 C 0.8413 0.21408 0.76018 0.0
C212 C 0.81219 0.23418 0.73522 0.0
H213 H 0.826 0.17738 0.76828 0.0
C214 C 0.82247 0.19293 0.75862 0.0
C215 C 0.79872 0.19211 0.74532 0.0
C216 C 0.79373 0.21269 0.73348 0.0
C217 C 0.80445 0.25806 0.72787 0.0
H218 H 0.77485 0.21263 0.72422 0.0
C219 C 0.80293 0.26195 0.70384 0.0
C220 C 0.79542 0.28518 0.69792 0.0
C221 C 0.79835 0.27733 0.74566 0.0
H222 H 0.79937 0.27465 0.76419 0.0
C223 C 0.79069 0.3001 0.73978 0.0
H224 H 0.80782 0.24729 0.68998 0.0
C225 C 0.78923 0.30403 0.7161 0.0
H226 H 0.78345 0.32195 0.7119 0.0
H227 H 0.78596 0.3148 0.75364 0.0
H228 H 0.60315 0.54055 0.55628 0.0
C229 C 0.58999 0.53696 0.5702 0.0
C230 C 0.5904 0.5143 0.58024 0.0
C231 C 0.57388 0.55567 0.57913 0.0
H232 H 0.57437 0.49307 0.60707 0.0
C233 C 0.5739 0.51024 0.599 0.0
C234 C 0.55768 0.52883 0.60805 0.0
C235 C 0.55777 0.55133 0.59797 0.0
C236 C 0.57628 0.58122 0.57139 0.0
H237 H 0.54576 0.5659 0.60533 0.0
C238 C 0.57094 0.5848 0.54759 0.0
C239 C 0.57215 0.60969 0.54154 0.0
C240 C 0.58342 0.60259 0.58863 0.0
H241 H 0.58777 0.60033 0.60694 0.0
C242 C 0.58508 0.62702 0.58252 0.0
H243 H 0.56522 0.56856 0.53411 0.0
C244 C 0.57938 0.63058 0.55918 0.0
H245 H 0.58046 0.64976 0.55485 0.0
H246 H 0.5906 0.6433 0.59598 0.0
H247 H 0.61032 0.47338 0.99561 0.0
C248 C 0.59616 0.4781 0.98276 0.0
C249 C 0.60186 0.4997 0.97144 0.0
C250 C 0.57313 0.4616 0.97614 0.0
H251 H 0.58913 0.52092 0.94434 0.0
C252 C 0.58434 0.50476 0.95356 0.0
C253 C 0.56114 0.48872 0.94692 0.0
C254 C 0.55553 0.46739 0.95854 0.0
C255 C 0.57005 0.43576 0.98333 0.0
H256 H 0.53815 0.45443 0.95287 0.0
C257 C 0.56434 0.43129 1.00668 0.0
C258 C 0.56068 0.40601 0.01188 0.0
C259 C 0.57244 0.41493 0.96574 0.0
H260 H 0.57686 0.41788 0.94778 0.0
C261 C 0.56923 0.39017 0.971 0.0
H262 H 0.56223 0.44712 0.02042 0.0
C263 C 0.56332 0.38572 0.99384 0.0
H264 H 0.56064 0.36628 0.99746 0.0
H265 H 0.57116 0.37433 0.95725 0.0
H266 H 0.78169 0.18882 0.28306 0.0
C267 C 0.77809 0.19937 0.30017 0.0
C268 C 0.79038 0.19336 0.3208 0.0
C269 C 0.7618 0.21924 0.30131 0.0
H270 H 0.79637 0.2036 0.35889 0.0
C271 C 0.78639 0.20763 0.34295 0.0
C272 C 0.77014 0.22766 0.34438 0.0
C273 C 0.75761 0.23305 0.32353 0.0
C274 C 0.75201 0.22744 0.27898 0.0
H275 H 0.74575 0.2489 0.3245 0.0
C276 C 0.72515 0.22987 0.27434 0.0
C277 C 0.71677 0.23754 0.25276 0.0
C278 C 0.77017 0.23304 0.26204 0.0
H279 H 0.7909 0.23154 0.26527 0.0
C280 C 0.76191 0.24093 0.24093 0.0
H281 H 0.71087 0.22539 0.28711 0.0
C282 C 0.73542 0.24314 0.23627 0.0
H283 H 0.72936 0.24903 0.21963 0.0
H284 H 0.77611 0.24526 0.22806 0.0
H285 H 0.48036 0.09643 0.9825 0.0
C286 C 0.46803 0.08036 0.98708 0.0
C287 C 0.45954 0.0809 0.0104 0.0
C288 C 0.45922 0.05991 0.96935 0.0
H289 H 0.43543 0.06117 0.03377 0.0
C290 C 0.44251 0.06057 0.01599 0.0
C291 C 0.43358 0.04006 0.99838 0.0
C292 C 0.44203 0.03984 0.97514 0.0
C293 C 0.46387 0.06156 0.94407 0.0
H294 H 0.43435 0.02453 0.96133 0.0
C295 C 0.48731 0.05502 0.93357 0.0
C296 C 0.49027 0.0559 0.90909 0.0
C297 C 0.4438 0.06919 0.93009 0.0
H298 H 0.42566 0.07421 0.93787 0.0
C299 C 0.44689 0.07031 0.90601 0.0
H300 H 0.50285 0.04892 0.94416 0.0
C301 C 0.46992 0.06366 0.89554 0.0
H302 H 0.47189 0.06447 0.87675 0.0
H303 H 0.4313 0.07622 0.89538 0.0
Li304 Li 0.28738 0.89446 0.02206 0.0
Li305 Li 0.26964 0.86352 0.04566 0.0
Li306 Li 0.26129 0.8567 1.00117 0.0
Li307 Li 0.23962 0.89092 0.02847 0.0
C308 C 0.32065 0.85828 0.01556 0.0
N309 N 0.37324 0.85869 1.00621 0.0
C310 C 0.33984 0.86758 0.03355 0.0
C311 C 0.3282 0.84898 0.99285 0.0
C312 C 0.36632 0.86771 0.02845 0.0
C313 C 0.35489 0.84937 0.98848 0.0
C314 C 0.27219 0.9064 0.07605 0.0
C315 C 0.25347 0.91443 0.11436 0.0
N316 N 0.27781 0.91567 0.12506 0.0
C317 C 0.29704 0.90799 0.0874 0.0
C318 C 0.25021 0.9098 0.08959 0.0
C319 C 0.29947 0.91258 0.11221 0.0
C320 C 0.31821 0.94198 0.0348 0.0
N321 N 0.31645 0.91999 0.01919 0.0
C322 C 0.35328 0.93608 0.99892 0.0
C323 C 0.33357 0.9168 1.00146 0.0
C324 C 0.3553 0.95894 0.01464 0.0
C325 C 0.3376 0.96181 0.03285 0.0
H326 H 0.30421 0.94434 0.04853 0.0
H327 H 0.33162 0.89956 0.98887 0.0
C328 C 0.25739 0.8464 0.0898 0.0
N329 N 0.27525 0.84595 0.07263 0.0
C330 C 0.26149 0.83459 0.10988 0.0
C331 C 0.30159 0.82082 0.09372 0.0
C332 C 0.29689 0.83319 0.0741 0.0
C333 C 0.28394 0.82177 0.11208 0.0
H334 H 0.24002 0.85614 0.088 0.0
H335 H 0.31056 0.83262 0.06005 0.0
C336 C 0.26796 0.90861 0.98276 0.0
N337 N 0.29068 0.94093 0.95366 0.0
C338 C 0.26456 0.9345 0.98665 0.0
C339 C 0.28283 0.89914 0.964 0.0
C340 C 0.27625 0.95054 0.97178 0.0
C341 C 0.29414 0.91578 0.94947 0.0
C342 C 0.21138 0.84205 0.01774 0.0
C343 C 0.20164 0.84855 0.9964 0.0
C344 C 0.19645 0.82464 0.02926 0.0
C345 C 0.17701 0.83749 0.98694 0.0
C346 C 0.17188 0.81404 0.01925 0.0
N347 N 0.16276 0.82063 0.99847 0.0
C348 C 0.26653 0.80779 0.97609 0.0
C349 C 0.24939 0.83534 0.95165 0.0
C350 C 0.26747 0.78889 0.95643 0.0
N351 N 0.25802 0.83065 0.97336 0.0
C352 C 0.25011 0.81701 0.93148 0.0
C353 C 0.25956 0.79359 0.93375 0.0
H354 H 0.27339 0.80451 0.99349 0.0
H355 H 0.24258 0.85356 0.94985 0.0
C356 C 0.2162 0.93653 0.03995 0.0
N357 N 0.20996 0.9109 0.03525 0.0
C358 C 0.19699 0.95282 0.04651 0.0
C359 C 0.16502 0.9162 0.04382 0.0
C360 C 0.18487 0.90056 0.03718 0.0
C361 C 0.17102 0.9427 0.04862 0.0
H362 H 0.23636 0.94435 0.0392 0.0
H363 H 0.18022 0.8802 0.03413 0.0
O364 O 0.29462 0.85805 0.02018 0.0
O365 O 0.26937 0.90139 0.05181 0.0
O366 O 0.25715 0.89268 0.99745 0.0
O367 O 0.23548 0.85249 0.02731 0.0
H368 H 0.33434 0.87472 0.05123 0.0
H369 H 0.31366 0.84183 0.97866 0.0
H370 H 0.38137 0.87499 0.04217 0.0
H371 H 0.36102 0.84237 0.97097 0.0
H372 H 0.23662 0.91695 0.12507 0.0
H373 H 0.31425 0.90564 0.07717 0.0
H374 H 0.23082 0.90856 0.0811 0.0
H375 H 0.31856 0.9137 0.12124 0.0
H376 H 0.3665 0.93339 0.98453 0.0
H377 H 0.33856 0.97934 0.04517 0.0
H378 H 0.24739 0.83556 0.12364 0.0
H379 H 0.31901 0.81095 0.09478 0.0
H380 H 0.25314 0.94218 1.00106 0.0
H381 H 0.28615 0.87927 0.961 0.0
H382 H 0.27389 0.97064 0.97468 0.0
H383 H 0.30586 0.90874 0.935 0.0
H384 H 0.21288 0.86206 0.98729 0.0
H385 H 0.20377 0.81943 0.0458 0.0
H386 H 0.1692 0.84236 0.97045 0.0
H387 H 0.16008 0.80057 0.02798 0.0
H388 H 0.27488 0.77104 0.95878 0.0
H389 H 0.24381 0.82121 0.91422 0.0
H390 H 0.20243 0.97314 0.05037 0.0
H391 H 0.14526 0.9077 0.04555 0.0
Li392 Li 0.12433 0.51911 0.27688 0.0
Li393 Li 0.15629 0.4913 0.25879 0.0
Li394 Li 0.15805 0.53652 0.25369 0.0
Li395 Li 0.12075 0.50904 0.23283 0.0
C396 C 0.16939 0.53775 0.30398 0.0
N397 N 0.18188 0.57045 0.34583 0.0
C398 C 0.18121 0.52904 0.32336 0.0
C399 C 0.16392 0.56307 0.30588 0.0
C400 C 0.18737 0.54587 0.34438 0.0
C401 C 0.17039 0.57932 0.32717 0.0
C402 C 0.09994 0.4734 0.27138 0.0
C403 C 0.05626 0.46524 0.28483 0.0
N404 N 0.06609 0.4529 0.30198 0.0
C405 C 0.10962 0.46059 0.28908 0.0
C406 C 0.07305 0.47569 0.26914 0.0
C407 C 0.09217 0.45035 0.30438 0.0
C408 C 0.08083 0.53689 0.30132 0.0
N409 N 0.10305 0.52535 0.30415 0.0
C410 C 0.09369 0.52199 0.34466 0.0
C411 C 0.10966 0.51781 0.32527 0.0
C412 C 0.07079 0.53403 0.34217 0.0
C413 C 0.06439 0.54153 0.32023 0.0
H414 H 0.07572 0.54228 0.28426 0.0
H415 H 0.12714 0.50824 0.327 0.0
C416 C 0.19947 0.47041 0.2775 0.0
N417 N 0.17717 0.4639 0.2634 0.0
C418 C 0.21495 0.45176 0.28333 0.0
C419 C 0.18488 0.41988 0.25931 0.0
C420 C 0.16978 0.4392 0.25409 0.0
C421 C 0.20754 0.42609 0.27448 0.0
H422 H 0.20506 0.49016 0.28455 0.0
H423 H 0.15194 0.43446 0.24297 0.0
C424 C 0.1131 0.56444 0.24764 0.0
N425 N 0.0974 0.6097 0.23665 0.0
C426 C 0.10914 0.56788 0.22391 0.0
C427 C 0.1088 0.58397 0.26577 0.0
C428 C 0.10127 0.59091 0.21872 0.0
C429 C 0.10098 0.60673 0.25985 0.0
C430 C 0.17949 0.51561 0.21595 0.0
C431 C 0.17472 0.53066 0.19838 0.0
C432 C 0.20519 0.51089 0.2215 0.0
C433 C 0.19586 0.54092 0.18673 0.0
C434 C 0.22578 0.52149 0.20944 0.0
N435 N 0.22073 0.53617 0.19247 0.0
C436 C 0.20795 0.56521 0.26188 0.0
C437 C 0.1785 0.58399 0.23832 0.0
C438 C 0.22769 0.58486 0.26041 0.0
N439 N 0.1838 0.56516 0.25107 0.0
C440 C 0.19757 0.60408 0.23654 0.0
C441 C 0.22244 0.60463 0.24773 0.0
H442 H 0.21194 0.54987 0.27158 0.0
H443 H 0.15966 0.58337 0.22921 0.0
C444 C 0.07185 0.51011 0.20822 0.0
N445 N 0.09679 0.50384 0.20518 0.0
C446 C 0.0547 0.51025 0.18853 0.0
C447 C 0.08894 0.49695 0.16287 0.0
C448 C 0.10543 0.49699 0.18306 0.0
C449 C 0.06336 0.50397 0.16553 0.0
H450 H 0.06563 0.51604 0.22594 0.0
H451 H 0.12541 0.49239 0.18106 0.0
O452 O 0.16289 0.52142 0.28339 0.0
O453 O 0.11683 0.48428 0.25679 0.0
O454 O 0.1201 0.54176 0.25312 0.0
O455 O 0.15921 0.50613 0.22815 0.0
H456 H 0.18539 0.50943 0.32226 0.0
H457 H 0.15485 0.57012 0.29105 0.0
H458 H 0.19647 0.53937 0.35955 0.0
H459 H 0.16628 0.59897 0.32887 0.0
H460 H 0.03543 0.46703 0.28344 0.0
H461 H 0.13042 0.45886 0.29117 0.0
H462 H 0.0653 0.48569 0.25563 0.0
H463 H 0.09939 0.4405 0.31825 0.0
H464 H 0.09904 0.51581 0.36134 0.0
H465 H 0.04673 0.55068 0.31772 0.0
H466 H 0.23234 0.45725 0.29499 0.0
H467 H 0.17863 0.40027 0.25211 0.0
H468 H 0.11258 0.55316 0.2096 0.0
H469 H 0.11133 0.58155 0.28425 0.0
H470 H 0.09831 0.59385 0.20043 0.0
H471 H 0.09764 0.62201 0.27372 0.0
H472 H 0.15497 0.53471 0.19406 0.0
H473 H 0.20919 0.4994 0.23517 0.0
H474 H 0.1925 0.55277 0.17323 0.0
H475 H 0.24579 0.51813 0.21364 0.0
H476 H 0.24676 0.58476 0.26922 0.0
H477 H 0.193 0.61903 0.22651 0.0
H478 H 0.03515 0.51592 0.19118 0.0
H479 H 0.09624 0.49211 0.14534 0.0
Li480 Li 0.77209 0.63014 0.9972 0.0
Li481 Li 0.79391 0.66889 0.02246 0.0
Li482 Li 0.80166 0.66297 0.97989 0.0
Li483 Li 0.81986 0.63602 1.0064 0.0
C484 C 0.74921 0.68092 1.00612 0.0
N485 N 0.71398 0.71012 0.02998 0.0
C486 C 0.7321 0.67043 0.02156 0.0
C487 C 0.74838 0.70627 1.00281 0.0
C488 C 0.71442 0.68549 0.03344 0.0
C489 C 0.73044 0.72073 0.01504 0.0
C490 C 0.80243 0.62474 0.04753 0.0
C491 C 0.83221 0.63189 0.08217 0.0
N492 N 0.82748 0.60696 0.08473 0.0
C493 C 0.79783 0.5992 0.05055 0.0
C494 C 0.81977 0.64124 0.06347 0.0
C495 C 0.8107 0.59057 0.06945 0.0
C496 C 0.74362 0.58121 0.99558 0.0
N497 N 0.74125 0.60551 0.99175 0.0
C498 C 0.69531 0.5949 0.98145 0.0
C499 C 0.71774 0.61246 0.98443 0.0
C500 C 0.69714 0.5699 0.98584 0.0
C501 C 0.7217 0.56304 0.99282 0.0
H502 H 0.76259 0.57592 1.00078 0.0
H503 H 0.71633 0.6317 0.981 0.0
C504 C 0.80258 0.71695 0.05291 0.0
N505 N 0.78954 0.69321 0.05022 0.0
C506 C 0.80104 0.73382 0.07395 0.0
C507 C 0.77222 0.70176 0.08878 0.0
C508 C 0.77444 0.68548 0.06759 0.0
C509 C 0.78587 0.72612 0.0922 0.0
H510 H 0.81461 0.72257 0.03893 0.0
H511 H 0.76452 0.66643 0.06516 0.0
C512 C 0.79043 0.61396 0.95297 0.0
N513 N 0.7685 0.59256 0.90879 0.0
C514 C 0.80119 0.59356 0.93999 0.0
C515 C 0.76846 0.62345 0.94353 0.0
C516 C 0.78984 0.58302 0.91766 0.0
C517 C 0.75768 0.61237 0.92116 0.0
C518 C 0.85181 0.67866 0.99808 0.0
C519 C 0.86025 0.66209 0.97924 0.0
C520 C 0.86791 0.70065 1.00748 0.0
C521 C 0.88469 0.66785 0.97009 0.0
C522 C 0.89223 0.70573 0.99784 0.0
N523 N 0.90004 0.68937 0.9795 0.0
C524 C 0.8059 0.70631 0.95515 0.0
C525 C 0.81541 0.66866 0.93119 0.0
C526 C 0.81008 0.72026 0.93625 0.0
N527 N 0.80815 0.68086 0.95231 0.0
C528 C 0.81975 0.68189 0.91181 0.0
C529 C 0.81689 0.708 0.91416 0.0
H530 H 0.80106 0.7159 0.97221 0.0
H531 H 0.81804 0.64867 0.92931 0.0
C532 C 0.84828 0.59235 1.00667 0.0
N533 N 0.84909 0.61772 0.01446 0.0
C534 C 0.86798 0.57829 0.0141 0.0
C535 C 0.88899 0.61666 0.03748 0.0
C536 C 0.86903 0.63001 0.02946 0.0
C537 C 0.88857 0.59045 0.02982 0.0
H538 H 0.83204 0.58293 0.99504 0.0
H539 H 0.86908 0.6501 0.03572 0.0
O540 O 0.76715 0.66662 0.99487 0.0
O541 O 0.79063 0.63339 0.0287 0.0
O542 O 0.80127 0.62428 0.97492 0.0
O543 O 0.82789 0.67361 1.00731 0.0
H544 H 0.73283 0.651 0.02473 0.0
H545 H 0.76145 0.71475 0.99099 0.0
H546 H 0.7012 0.67764 0.04555 0.0
H547 H 0.72962 0.74039 0.01268 0.0
H548 H 0.8458 0.64442 0.09453 0.0
H549 H 0.78458 0.58613 0.03839 0.0
H550 H 0.82406 0.66093 0.06115 0.0
H551 H 0.8074 0.57083 0.07193 0.0
H552 H 0.6767 0.60075 0.97582 0.0
H553 H 0.72384 0.54384 0.99612 0.0
H554 H 0.81192 0.75248 0.07615 0.0
H555 H 0.7605 0.69522 0.10261 0.0
H556 H 0.81816 0.58597 0.9471 0.0
H557 H 0.75985 0.63923 0.95328 0.0
H558 H 0.79798 0.56723 0.9074 0.0
H559 H 0.74071 0.61954 0.91362 0.0
H560 H 0.84814 0.64496 0.97172 0.0
H561 H 0.86165 0.71366 0.02206 0.0
H562 H 0.89145 0.65521 0.95551 0.0
H563 H 0.90488 0.72269 1.00494 0.0
H564 H 0.80801 0.74045 0.93883 0.0
H565 H 0.82532 0.67185 0.89513 0.0
H566 H 0.86703 0.55808 0.00787 0.0
H567 H 0.90453 0.62662 0.04966 0.0
Li568 Li 0.90953 0.04315 0.28034 0.0
Li569 Li 0.94212 0.01739 0.29912 0.0
Li570 Li 0.94251 0.02348 0.25484 0.0
Li571 Li 0.90793 0.99686 0.26881 0.0
C572 C 0.95391 0.07475 0.29187 0.0
N573 N 0.96216 0.12628 0.30794 0.0
C574 C 0.96363 0.08342 0.31515 0.0
C575 C 0.94855 0.09224 0.27671 0.0
C576 C 0.96766 0.10957 0.32294 0.0
C577 C 0.95277 0.11822 0.2852 0.0
C578 C 0.87994 1.00528 0.30712 0.0
C579 C 0.85454 0.97651 0.32863 0.0
N580 N 0.8322 0.98181 0.31754 0.0
C581 C 0.85674 0.01044 0.29593 0.0
C582 C 0.87888 0.98817 0.32359 0.0
C583 C 0.83279 0.99838 0.30144 0.0
C584 C 0.86864 0.07568 0.27355 0.0
N585 N 0.88864 0.0718 0.28861 0.0
C586 C 0.87821 0.10695 0.31681 0.0
C587 C 0.89332 0.08677 0.31011 0.0
C588 C 0.85776 0.11154 0.30142 0.0
C589 C 0.85297 0.09556 0.27959 0.0
H590 H 0.8645 0.06305 0.25697 0.0
H591 H 0.90864 0.08292 0.32223 0.0
C592 C 0.98985 0.01383 0.32504 0.0
N593 N 0.96355 0.01466 0.32715 0.0
C594 C 1.00598 0.01062 0.34457 0.0
C595 C 0.96777 0.00929 0.36822 0.0
C596 C 0.95241 0.01281 0.34829 0.0
C597 C 0.99491 0.00803 0.36644 0.0
H598 H 0.99825 0.01533 0.30805 0.0
H599 H 0.93156 0.01385 0.34966 0.0
C600 C 0.90453 0.02702 0.22474 0.0
N601 N 0.90765 0.03489 0.17789 0.0
C602 C 0.90805 1.00682 0.20702 0.0
C603 C 0.90258 0.05124 0.2186 0.0
C604 C 0.90963 0.01119 0.18346 0.0
C605 C 0.90415 0.05482 0.19482 0.0
C606 C 0.94642 0.96663 0.26735 0.0
C607 C 0.94104 0.95217 0.24492 0.0
C608 C 0.952 0.9545 0.28689 0.0
C609 C 0.94109 0.92578 0.24247 0.0
C610 C 0.95187 0.92806 0.2837 0.0
N611 N 0.94643 0.91436 0.26175 0.0
C612 C 0.97977 1.00604 0.22173 0.0
C613 C 0.96849 0.04714 0.21735 0.0
C614 C 0.99582 1.00589 0.20229 0.0
N615 N 0.96615 0.02629 0.22874 0.0
C616 C 0.98418 0.04771 0.19766 0.0
C617 C 0.99793 0.0268 0.18986 0.0
H618 H 0.97814 0.98985 0.23116 0.0
H619 H 0.9579 0.06324 0.22328 0.0
C620 C 0.86806 0.96337 0.24042 0.0
N621 N 0.88417 0.96589 0.26034 0.0
C622 C 0.85198 0.94072 0.23299 0.0
C623 C 0.86835 0.92396 0.26725 0.0
C624 C 0.8842 0.94686 0.27395 0.0
C625 C 0.85226 0.92061 0.24637 0.0
H626 H 0.86785 0.97885 0.23011 0.0
H627 H 0.89686 0.94927 0.28986 0.0
O628 O 0.94943 0.04924 0.28406 0.0
O629 O 0.90359 0.01638 0.3014 0.0
O630 O 0.90349 0.02319 0.248 0.0
O631 O 0.94629 0.9925 0.27018 0.0
H632 H 0.96785 0.0701 0.3271 0.0
H633 H 0.94084 0.0858 0.25871 0.0
H634 H 0.97509 0.11658 0.34094 0.0
H635 H 0.9485 0.13199 0.27373 0.0
H636 H 0.85343 0.96312 0.34125 0.0
H637 H 0.85724 0.02332 0.28287 0.0
H638 H 0.89666 0.98357 0.33208 0.0
H639 H 0.81469 1.00211 0.29284 0.0
H640 H 0.88228 0.11875 0.3339 0.0
H641 H 0.83716 0.09838 0.2674 0.0
H642 H 0.02683 0.00977 0.34256 0.0
H643 H 0.95858 1.00741 0.38482 0.0
H644 H 0.90983 0.98801 0.21143 0.0
H645 H 0.90039 0.06724 0.23206 0.0
H646 H 0.91251 0.99575 0.16961 0.0
H647 H 0.9028 0.07348 0.18984 0.0
H648 H 0.93667 0.9612 0.2296 0.0
H649 H 0.95615 0.96533 0.30438 0.0
H650 H 0.93683 0.91436 0.22525 0.0
H651 H 0.95602 0.91842 0.29869 0.0
H652 H 0.00633 0.98954 0.19686 0.0
H653 H 0.98554 0.06424 0.18856 0.0
H654 H 0.83969 0.93878 0.21682 0.0
H655 H 0.86897 0.90883 0.27802 0.0
Li656 Li 0.29586 0.16879 0.52251 0.0
Li657 Li 0.27396 0.13026 0.49645 0.0
Li658 Li 0.3214 0.13523 0.50556 0.0
Li659 Li 0.30309 0.16203 0.47921 0.0
C660 C 0.30429 0.12445 0.547 0.0
N661 N 0.32963 0.10709 0.5843 0.0
C662 C 0.2992 0.09915 0.55067 0.0
C663 C 0.32228 0.14091 0.56233 0.0
C664 C 0.31222 0.09074 0.56961 0.0
C665 C 0.33486 0.13179 0.5811 0.0
C666 C 0.2468 0.17529 0.50384 0.0
C667 C 0.21251 0.20325 0.5041 0.0
N668 N 0.20112 0.1921 0.52177 0.0
C669 C 0.23479 0.16412 0.52202 0.0
C670 C 0.23563 0.19503 0.49481 0.0
C671 C 0.2117 0.17287 0.53083 0.0
C672 C 0.30305 0.21772 0.5516 0.0
N673 N 0.29188 0.19334 0.55017 0.0
C674 C 0.27734 0.20183 0.5898 0.0
C675 C 0.2789 0.1853 0.56865 0.0
C676 C 0.28911 0.22688 0.59192 0.0
C677 C 0.30182 0.23497 0.57245 0.0
H678 H 0.31335 0.22361 0.53671 0.0
H679 H 0.27031 0.16582 0.56718 0.0
C680 C 0.24433 0.08208 0.49609 0.0
N681 N 0.24258 0.10602 0.49094 0.0
C682 C 0.22221 0.06414 0.49343 0.0
C683 C 0.19688 0.09539 0.4794 0.0
C684 C 0.2195 0.11272 0.48228 0.0
C685 C 0.19807 0.07083 0.48518 0.0
H686 H 0.26297 0.07688 0.50223 0.0
H687 H 0.21854 0.13156 0.47764 0.0
C688 C 0.3534 0.17831 0.49733 0.0
N689 N 0.40134 0.18998 0.47863 0.0
C690 C 0.36258 0.16146 0.47913 0.0
C691 C 0.3686 0.20107 0.50604 0.0
C692 C 0.38686 0.16771 0.46991 0.0
C693 C 0.39279 0.20663 0.49635 0.0
C694 C 0.29127 0.11424 0.45201 0.0
C695 C 0.30084 0.09345 0.43851 0.0
C696 C 0.27001 0.12514 0.44299 0.0
C697 C 0.28898 0.08389 0.41614 0.0
C698 C 0.25868 0.11504 0.42056 0.0
N699 N 0.26832 0.09479 0.40771 0.0
C700 C 0.34955 0.09135 0.50617 0.0
C701 C 0.3708 0.1292 0.52824 0.0
C702 C 0.36923 0.0773 0.51364 0.0
N703 N 0.35061 0.11682 0.51359 0.0
C704 C 0.39074 0.11585 0.53632 0.0
C705 C 0.39006 0.08955 0.52905 0.0
H706 H 0.33313 0.08187 0.49479 0.0
H707 H 0.37107 0.14937 0.53422 0.0
C708 C 0.30149 0.20397 0.45311 0.0
N709 N 0.30882 0.17997 0.45177 0.0
C710 C 0.30527 0.2179 0.43414 0.0
C711 C 0.32419 0.18233 0.41261 0.0
C712 C 0.32013 0.1691 0.43203 0.0
C713 C 0.31669 0.20706 0.41354 0.0
H714 H 0.29278 0.21237 0.469 0.0
H715 H 0.32613 0.15015 0.43132 0.0
O716 O 0.29237 0.13289 0.5281 0.0
O717 O 0.26964 0.1673 0.49517 0.0
O718 O 0.3296 0.17277 0.50658 0.0
O719 O 0.30273 0.12368 0.47395 0.0
H720 H 0.28545 0.08609 0.53901 0.0
H721 H 0.32698 0.16039 0.55948 0.0
H722 H 0.30853 0.07118 0.5726 0.0
H723 H 0.34894 0.14429 0.59299 0.0
H724 H 0.20362 0.21852 0.49727 0.0
H725 H 0.24317 0.1488 0.5292 0.0
H726 H 0.24473 0.20392 0.48077 0.0
H727 H 0.20218 0.16438 0.54488 0.0
H728 H 0.26745 0.19502 0.60454 0.0
H729 H 0.31117 0.25419 0.5736 0.0
H730 H 0.22388 0.04524 0.49778 0.0
H731 H 0.17863 0.10108 0.47271 0.0
H732 H 0.35113 0.14374 0.47216 0.0
H733 H 0.36175 0.21432 0.52013 0.0
H734 H 0.39419 0.15485 0.45581 0.0
H735 H 0.40476 0.2242 0.50291 0.0
H736 H 0.31728 0.0848 0.44527 0.0
H737 H 0.26234 0.14127 0.45311 0.0
H738 H 0.29619 0.06781 0.40549 0.0
H739 H 0.24224 0.1233 0.41335 0.0
H740 H 0.36808 0.05702 0.50772 0.0
H741 H 0.40646 0.1259 0.54824 0.0
H742 H 0.29934 0.23696 0.43552 0.0
H743 H 0.33317 0.17342 0.39705 0.0
Li744 Li 0.44174 0.51571 0.79912 0.0
Li745 Li 0.40497 0.54003 0.78106 0.0
Li746 Li 0.40677 0.49297 0.77089 0.0
Li747 Li 0.43857 0.52071 0.75589 0.0
C748 C 0.38517 0.49683 0.81246 0.0
N749 N 0.34944 0.46293 0.83007 0.0
C750 C 0.35833 0.49649 0.80696 0.0
C751 C 0.39383 0.47989 0.82693 0.0
C752 C 0.34058 0.4792 0.81601 0.0
C753 C 0.37546 0.46293 0.83569 0.0
C754 C 0.46243 0.56417 0.77516 0.0
C755 C 0.47329 0.59879 0.75311 0.0
N756 N 0.49899 0.59441 0.75443 0.0
C757 C 0.48894 0.56007 0.7764 0.0
C758 C 0.45449 0.58367 0.76346 0.0
C759 C 0.50713 0.57553 0.76575 0.0
C760 C 0.48956 0.50893 0.82391 0.0
N761 N 0.46429 0.51417 0.82686 0.0
C762 C 0.46965 0.51347 0.86882 0.0
C763 C 0.45437 0.51702 0.84887 0.0
C764 C 0.49566 0.50764 0.86624 0.0
C765 C 0.50572 0.50583 0.84346 0.0
H766 H 0.49701 0.50661 0.80626 0.0
H767 H 0.43433 0.52143 0.85087 0.0
C768 C 0.3562 0.5619 0.78331 0.0
N769 N 0.38245 0.56741 0.78837 0.0
C770 C 0.33883 0.5803 0.78917 0.0
C771 C 0.37576 0.61042 0.80425 0.0
C772 C 0.39243 0.59118 0.79866 0.0
C773 C 0.34849 0.60498 0.79977 0.0
H774 H 0.34867 0.54314 0.77468 0.0
H775 H 0.41333 0.59524 0.80261 0.0
C776 C 0.44818 0.4656 0.765 0.0
N777 N 0.45309 0.41434 0.75321 0.0
C778 C 0.44198 0.45348 0.74178 0.0
C779 C 0.4572 0.45173 0.78215 0.0
C780 C 0.44447 0.42752 0.7362 0.0
C781 C 0.4595 0.42581 0.77585 0.0
C782 C 0.39593 0.52366 0.72738 0.0
C783 C 0.39846 0.50522 0.70778 0.0
C784 C 0.38946 0.54775 0.72384 0.0
C785 C 0.39489 0.51133 0.68489 0.0
C786 C 0.38596 0.55308 0.70066 0.0
N787 N 0.38878 0.53494 0.68184 0.0
C788 C 0.36588 0.45766 0.74554 0.0
C789 C 0.38933 0.44114 0.77547 0.0
C790 C 0.35093 0.43413 0.73897 0.0
N791 N 0.38489 0.46068 0.76336 0.0
C792 C 0.37497 0.41738 0.76946 0.0
C793 C 0.35569 0.41362 0.75088 0.0
H794 H 0.36252 0.47343 0.73621 0.0
H795 H 0.40434 0.44381 0.78962 0.0
C796 C 0.48027 0.50812 0.7258 0.0
N797 N 0.46095 0.524 0.72877 0.0
C798 C 0.49647 0.50824 0.70647 0.0
C799 C 0.47332 0.54156 0.69365 0.0
C800 C 0.4576 0.54088 0.7133 0.0
C801 C 0.49291 0.52495 0.69 0.0
H802 H 0.48316 0.49523 0.73845 0.0
H803 H 0.44273 0.55385 0.7161 0.0
O804 O 0.4029 0.51326 0.80331 0.0
O805 O 0.44423 0.54864 0.78471 0.0
O806 O 0.44552 0.49092 0.77089 0.0
O807 O 0.39934 0.51807 0.74992 0.0
H808 H 0.35127 0.5092 0.79559 0.0
H809 H 0.41453 0.47932 0.83087 0.0
H810 H 0.31977 0.47866 0.81177 0.0
H811 H 0.38192 0.44962 0.84677 0.0
H812 H 0.46742 0.61387 0.74389 0.0
H813 H 0.49534 0.54489 0.78522 0.0
H814 H 0.43398 0.58685 0.76205 0.0
H815 H 0.5277 0.57247 0.76642 0.0
H816 H 0.4612 0.51506 0.88609 0.0
H817 H 0.5257 0.5014 0.84077 0.0
H818 H 0.31798 0.57537 0.78525 0.0
H819 H 0.384 0.62925 0.81227 0.0
H820 H 0.43515 0.464 0.72828 0.0
H821 H 0.46203 0.4608 0.80022 0.0
H822 H 0.43953 0.41785 0.71836 0.0
H823 H 0.46628 0.41479 0.78898 0.0
H824 H 0.40321 0.48643 0.71022 0.0
H825 H 0.38739 0.56223 0.73881 0.0
H826 H 0.39697 0.49731 0.66956 0.0
H827 H 0.3811 0.57167 0.69765 0.0
H828 H 0.33614 0.43183 0.72454 0.0
H829 H 0.37912 0.40194 0.77902 0.0
H830 H 0.51158 0.49534 0.70433 0.0
H831 H 0.47024 0.55492 0.68141 0.0
Li832 Li 0.78458 0.39772 0.51965 0.0
Li833 Li 0.76735 0.36644 0.54306 0.0
Li834 Li 0.75851 0.36012 0.49856 0.0
Li835 Li 0.73693 0.394 0.52654 0.0
C836 C 0.81802 0.36176 0.51257 0.0
N837 N 0.87058 0.3626 0.50302 0.0
C838 C 0.83724 0.37112 0.53051 0.0
C839 C 0.82553 0.35262 0.4898 0.0
C840 C 0.8637 0.37147 0.52531 0.0
C841 C 0.8522 0.35323 0.48533 0.0
C842 C 0.76988 0.40881 0.57393 0.0
C843 C 0.75129 0.41566 0.61239 0.0
N844 N 0.77572 0.41701 0.62295 0.0
C845 C 0.79482 0.4105 0.58514 0.0
C846 C 0.74793 0.41156 0.58762 0.0
C847 C 0.79736 0.41455 0.60995 0.0
C848 C 0.8162 0.44485 0.53276 0.0
N849 N 0.81369 0.42318 0.5167 0.0
C850 C 0.85024 0.43915 0.49602 0.0
C851 C 0.83027 0.4201 0.49854 0.0
C852 C 0.85306 0.46166 0.51223 0.0
C853 C 0.83587 0.46445 0.53085 0.0
H854 H 0.80263 0.44712 0.54685 0.0
H855 H 0.82774 0.40311 0.48562 0.0
C856 C 0.75538 0.34826 0.58675 0.0
N857 N 0.77329 0.34844 0.56964 0.0
C858 C 0.75965 0.33606 0.60655 0.0
C859 C 0.80002 0.32322 0.59025 0.0
C860 C 0.79515 0.33594 0.5709 0.0
C861 C 0.78232 0.32352 0.60854 0.0
H862 H 0.73784 0.35777 0.5851 0.0
H863 H 0.80885 0.33585 0.5569 0.0
C864 C 0.76443 0.41296 0.48126 0.0
N865 N 0.78639 0.447 0.45337 0.0
C866 C 0.76112 0.4388 0.48645 0.0
C867 C 0.77881 0.40442 0.46181 0.0
C868 C 0.77243 0.45572 0.47218 0.0
C869 C 0.78974 0.42192 0.44791 0.0
C870 C 0.70885 0.34487 0.516 0.0
C871 C 0.69875 0.35043 0.49441 0.0
C872 C 0.6941 0.32822 0.52845 0.0
C873 C 0.67394 0.33919 0.48562 0.0
C874 C 0.66934 0.31742 0.51909 0.0
N875 N 0.65986 0.32307 0.49804 0.0
C876 C 0.76381 0.31145 0.47313 0.0
C877 C 0.74698 0.3393 0.44882 0.0
C878 C 0.76517 0.29284 0.45333 0.0
N879 N 0.75529 0.33435 0.47054 0.0
C880 C 0.74815 0.32124 0.42851 0.0
C881 C 0.75771 0.29784 0.43064 0.0
H882 H 0.77043 0.30799 0.49054 0.0
H883 H 0.74015 0.35753 0.44713 0.0
C884 C 0.71332 0.43929 0.53976 0.0
N885 N 0.70713 0.41373 0.5339 0.0
C886 C 0.69397 0.45532 0.54669 0.0
C887 C 0.66197 0.41858 0.54197 0.0
C888 C 0.68195 0.40323 0.53499 0.0
C889 C 0.66792 0.445 0.54796 0.0
H890 H 0.73352 0.44723 0.53962 0.0
H891 H 0.67728 0.38291 0.53097 0.0
O892 O 0.79199 0.36136 0.51728 0.0
O893 O 0.76696 0.40431 0.54967 0.0
O894 O 0.75402 0.39618 0.49535 0.0
O895 O 0.73313 0.35551 0.52493 0.0
H896 H 0.83177 0.37816 0.54823 0.0
H897 H 0.81096 0.34544 0.47565 0.0
H898 H 0.87878 0.37881 0.539 0.0
H899 H 0.8583 0.34635 0.46778 0.0
H900 H 0.73447 0.41767 0.62322 0.0
H901 H 0.81202 0.40865 0.5748 0.0
H902 H 0.72846 0.41021 0.57925 0.0
H903 H 0.81652 0.41574 0.61887 0.0
H904 H 0.86306 0.43654 0.48132 0.0
H905 H 0.83747 0.48172 0.54356 0.0
H906 H 0.74549 0.33652 0.62027 0.0
H907 H 0.81761 0.31356 0.59115 0.0
H908 H 0.75011 0.44577 0.50141 0.0
H909 H 0.78207 0.38459 0.4578 0.0
H910 H 0.77016 0.47579 0.47609 0.0
H911 H 0.80109 0.41559 0.43293 0.0
H912 H 0.70986 0.36338 0.48461 0.0
H913 H 0.70171 0.32375 0.54519 0.0
H914 H 0.66584 0.34333 0.46894 0.0
H915 H 0.65767 0.30453 0.52855 0.0
H916 H 0.77269 0.275 0.45559 0.0
H917 H 0.74221 0.32568 0.41124 0.0
H918 H 0.69937 0.47556 0.55143 0.0
H919 H 0.64213 0.40991 0.543 0.0
Li920 Li 0.65675 0.99189 0.76015 0.0
Li921 Li 0.62435 0.01915 0.77821 0.0
Li922 Li 0.62096 0.00937 0.73412 0.0
Li923 Li 0.6578 0.0373 0.75529 0.0
C924 C 0.60038 0.97325 0.7723 0.0
N925 N 0.56639 0.95226 0.80251 0.0
C926 C 0.60998 0.96016 0.78982 0.0
C927 C 0.5735 0.97557 0.77004 0.0
C928 C 0.59247 0.94968 0.80493 0.0
C929 C 0.55664 0.96487 0.78554 0.0
C930 C 0.66897 0.03743 0.80593 0.0
C931 C 0.6698 0.07822 0.8305 0.0
N932 N 0.68051 0.06836 0.84894 0.0
C933 C 0.68002 0.0277 0.8251 0.0
C934 C 0.66384 0.06288 0.80863 0.0
C935 C 0.68569 0.04364 0.84671 0.0
C936 C 0.70035 0.97133 0.77868 0.0
N937 N 0.678 0.96469 0.76466 0.0
C938 C 0.68602 0.92075 0.76051 0.0
C939 C 0.67074 0.93997 0.75537 0.0
C940 C 0.70874 0.92709 0.77558 0.0
C941 C 0.71602 0.95278 0.78442 0.0
H942 H 0.70582 0.9911 0.78574 0.0
H943 H 0.65285 0.93512 0.74432 0.0
C944 C 0.58089 0.03675 0.80281 0.0
N945 N 0.60295 0.02492 0.80546 0.0
C946 C 0.56441 0.04119 0.82171 0.0
C947 C 0.59332 0.02083 0.84578 0.0
C948 C 0.60933 0.01685 0.8264 0.0
C949 C 0.57059 0.03318 0.84347 0.0
H950 H 0.57593 0.04254 0.78589 0.0
H951 H 0.62665 1.00702 0.82798 0.0
C952 C 0.67976 0.01693 0.71758 0.0
N953 N 0.72079 0.03815 0.69428 0.0
C954 C 0.67475 0.03157 0.69974 0.0
C955 C 0.70559 0.01298 0.72353 0.0
C956 C 0.69578 0.04217 0.68818 0.0
C957 C 0.72608 0.0239 0.71155 0.0
C958 C 0.61283 0.0648 0.74964 0.0
C959 C 0.60829 0.06862 0.72608 0.0
C960 C 0.60922 0.08418 0.76813 0.0
C961 C 0.6006 0.0919 0.72143 0.0
C962 C 0.60153 0.10721 0.76274 0.0
N963 N 0.59742 0.11056 0.7397 0.0
C964 C 0.57217 0.01017 0.70919 0.0
C965 C 0.60603 0.99729 0.68426 0.0
C966 C 0.55515 0.01024 0.68939 0.0
N967 N 0.59719 1.00406 0.70632 0.0
C968 C 0.58968 0.99719 0.66397 0.0
C969 C 0.56403 1.00406 0.66646 0.0
H970 H 0.56577 0.01602 0.72686 0.0
H971 H 0.62606 0.99277 0.68239 0.0
C972 C 0.7068 0.06766 0.76457 0.0
N973 N 0.68296 0.06645 0.75285 0.0
C974 C 0.72602 0.08779 0.76319 0.0
C975 C 0.69609 0.10505 0.73752 0.0
C976 C 0.67753 0.08452 0.73925 0.0
C977 C 0.7206 0.10681 0.74963 0.0
H978 H 0.71097 0.05286 0.77487 0.0
H979 H 0.65904 0.08288 0.72934 0.0
O980 O 0.61734 0.98438 0.75791 0.0
O981 O 0.66295 0.022 0.78475 0.0
O982 O 0.65955 1.00708 0.72964 0.0
O983 O 0.61969 0.04187 0.75459 0.0
H984 H 0.63078 0.9584 0.79193 0.0
H985 H 0.56581 0.98579 0.75667 0.0
H986 H 0.59962 0.93961 0.81866 0.0
H987 H 0.53581 0.96668 0.78413 0.0
H988 H 0.66593 0.09795 0.83281 0.0
H989 H 0.68394 0.00798 0.82336 0.0
H990 H 0.65542 0.07072 0.79396 0.0
H991 H 0.69417 0.03635 0.86172 0.0
H992 H 0.67986 0.90111 0.75333 0.0
H993 H 0.73344 0.95837 0.79601 0.0
H994 H 0.54688 0.05058 0.81934 0.0
H995 H 0.59849 0.01425 0.86231 0.0
H996 H 0.65488 0.03507 0.69514 0.0
H997 H 0.70978 1.00183 0.73741 0.0
H998 H 0.69223 0.0537 0.67445 0.0
H999 H 0.74619 0.02113 0.71604 0.0
H1000 H 0.61119 0.05401 0.71149 0.0
H1001 H 0.61213 0.08145 0.78648 0.0
H1002 H 0.59722 0.09516 0.70328 0.0
H1003 H 0.59872 0.12237 0.77689 0.0
H1004 H 0.53554 0.0158 0.6919 0.0
H1005 H 0.59714 0.99242 0.64649 0.0
H1006 H 0.74487 0.08859 0.77265 0.0
H1007 H 0.69144 0.11933 0.72671 0.0
Li1008 Li 0.05735 0.23826 0.87557 0.0
Li1009 Li 0.03268 0.2601 0.90679 0.0
Li1010 Li 0.03892 0.21368 0.90472 0.0
Li1011 Li 0.00902 0.22759 0.87543 0.0
C1012 C 0.09193 0.24995 0.91051 0.0
N1013 N 0.1453 0.26209 0.90813 0.0
C1014 C 0.10215 0.2753 0.91141 0.0
C1015 C 0.10884 0.23081 0.90867 0.0
C1016 C 0.1292 0.28104 0.91011 0.0
C1017 C 0.13577 0.23733 0.90742 0.0
C1018 C 0.01205 0.27754 0.86682 0.0
C1019 C 0.97186 0.29697 0.8737 0.0
N1020 N 0.97681 0.3106 0.8556 0.0
C1021 C 0.01673 0.29171 0.84829 0.0
C1022 C 0.98944 0.28016 0.87965 0.0
C1023 C 0.99868 0.30835 0.8429 0.0
C1024 C 0.09874 0.22481 0.84497 0.0
N1025 N 0.08611 0.2444 0.8555 0.0
C1026 C 0.11416 0.27426 0.83776 0.0
C1027 C 0.0933 0.26879 0.85207 0.0
C1028 C 0.12752 0.25438 0.82679 0.0
C1029 C 0.11963 0.22942 0.83046 0.0
H1030 H 0.09261 0.20561 0.84779 0.0
H1031 H 0.08287 0.28401 0.86059 0.0
C1032 C 0.02013 0.29246 0.94843 0.0
N1033 N 0.03044 0.29182 0.92666 0.0
C1034 C 0.01702 0.31577 0.96222 0.0
C1035 C 0.03604 0.33725 0.93127 0.0
C1036 C 0.0387 0.31359 0.91808 0.0
C1037 C 0.02483 0.33843 0.95346 0.0
H1038 H 0.0141 0.27488 0.95497 0.0
H1039 H 0.04702 0.31255 0.9008 0.0
C1040 C 0.03806 0.17874 0.86424 0.0
N1041 N 0.04033 0.12685 0.85433 0.0
C1042 C 0.01632 0.16295 0.85347 0.0
C1043 C 0.06106 0.16819 0.8697 0.0
C1044 C 0.01783 0.13675 0.84869 0.0
C1045 C 0.06179 0.1419 0.86462 0.0
C1046 C 0.98623 0.21615 0.91877 0.0
C1047 C 0.97987 0.19114 0.90774 0.0
C1048 C 0.97207 0.22575 0.938 0.0
C1049 C 0.95965 0.17599 0.91628 0.0
C1050 C 0.95193 0.21004 0.946 0.0
N1051 N 0.94621 0.18568 0.93509 0.0
C1052 C 0.06016 0.19706 0.94533 0.0
C1053 C 0.03379 0.16366 0.9212 0.0
C1054 C 0.06494 0.18108 0.96213 0.0
N1055 N 0.04477 0.18828 0.92532 0.0
C1056 C 0.03808 0.14699 0.93758 0.0
C1057 C 0.05367 0.15579 0.95842 0.0
H1058 H 0.06851 0.21669 0.94843 0.0
H1059 H 0.02147 0.1569 0.90537 0.0
C1060 C 0.98141 0.22196 0.83117 0.0
N1061 N 0.97774 0.22133 0.85466 0.0
C1062 C 0.95988 0.22036 0.815 0.0
C1063 C 0.93108 0.2167 0.84731 0.0
C1064 C 0.95315 0.2189 0.86293 0.0
C1065 C 0.93432 0.21774 0.82306 0.0
H1066 H 1.00114 0.22445 0.82511 0.0
H1067 H 0.95049 0.21943 0.88171 0.0
O1068 O 0.06543 0.24386 0.91085 0.0
O1069 O 0.02939 0.26091 0.87204 0.0
O1070 O 0.0369 0.20444 0.86899 0.0
O1071 O 1.00599 0.23129 0.91068 0.0
H1072 H 0.0893 0.29033 0.91277 0.0
H1073 H 0.10124 0.21112 0.9081 0.0
H1074 H 0.13738 0.30056 0.91059 0.0
H1075 H 0.14908 0.22269 0.90584 0.0
H1076 H 0.95428 0.29916 0.88345 0.0
H1077 H 0.03411 0.28982 0.83815 0.0
H1078 H 0.98542 0.26929 0.894 0.0
H1079 H 1.00204 0.31944 0.8286 0.0
H1080 H 0.1198 0.29373 0.83523 0.0
H1081 H 0.12956 0.21368 0.82218 0.0
H1082 H 0.00836 0.31615 0.97934 0.0
H1083 H 0.04226 0.35446 0.92409 0.0
H1084 H 0.99845 0.17085 0.8489 0.0
H1085 H 0.07806 0.18011 0.87802 0.0
H1086 H 1.00111 0.12429 0.84047 0.0
H1087 H 0.0794 0.13345 0.86892 0.0
H1088 H 0.99023 0.18363 0.89257 0.0
H1089 H 0.97643 0.24517 0.94657 0.0
H1090 H 0.95458 0.15658 0.90789 0.0
H1091 H 0.94081 0.21724 0.96086 0.0
H1092 H 0.07701 0.18847 0.97806 0.0
H1093 H 0.02905 0.12757 0.93422 0.0
H1094 H 0.9631 0.22147 0.79644 0.0
H1095 H 0.91163 0.21494 0.85416 0.0
Li1096 Li 0.56147 0.7379 0.37502 0.0
Li1097 Li 0.53737 0.76113 0.40593 0.0
Li1098 Li 0.54141 0.71585 0.40576 0.0
Li1099 Li 0.51371 0.72976 0.37547 0.0
C1100 C 0.59078 0.7625 0.41597 0.0
N1101 N 0.63285 0.79904 0.42795 0.0
C1102 C 0.59548 0.78214 0.40235 0.0
C1103 C 0.6075 0.76142 0.43566 0.0
C1104 C 0.61684 0.80042 0.40869 0.0
C1105 C 0.62865 0.78008 0.44144 0.0
C1106 C 0.51883 0.77908 0.36463 0.0
C1107 C 0.48224 0.80391 0.37207 0.0
N1108 N 0.48647 0.81392 0.35169 0.0
C1109 C 0.52287 0.78968 0.3438 0.0
C1110 C 0.49838 0.78629 0.37891 0.0
C1111 C 0.50627 0.80722 0.33754 0.0
C1112 C 0.58576 0.74724 0.33262 0.0
N1113 N 0.59058 0.74078 0.35454 0.0
C1114 C 0.63645 0.74097 0.34764 0.0
C1115 C 0.61533 0.73745 0.36217 0.0
C1116 C 0.63204 0.74796 0.32509 0.0
C1117 C 0.60633 0.75105 0.31754 0.0
H1118 H 0.56592 0.74961 0.32691 0.0
H1119 H 0.61876 0.73236 0.37966 0.0
C1120 C 0.52497 0.79317 0.44748 0.0
N1121 N 0.53587 0.79306 0.426 0.0
C1122 C 0.52169 0.8162 0.46167 0.0
C1123 C 0.54153 0.83853 0.43163 0.0
C1124 C 0.54434 0.81514 0.41802 0.0
C1125 C 0.52983 0.83916 0.45356 0.0
H1126 H 0.51833 0.77535 0.45336 0.0
H1127 H 0.55263 0.81463 0.40078 0.0
C1128 C 0.55603 0.68541 0.36536 0.0
N1129 N 0.58876 0.64755 0.35474 0.0
C1130 C 0.54936 0.66593 0.34639 0.0
C1131 C 0.57933 0.6856 0.37897 0.0
C1132 C 0.56618 0.64697 0.34129 0.0
C1133 C 0.59561 0.6663 0.37331 0.0
C1134 C 0.4891 0.71742 0.41565 0.0
C1135 C 0.48406 0.69337 0.40207 0.0
C1136 C 0.47341 0.72435 0.43461 0.0
C1137 C 0.46342 0.67661 0.40777 0.0
C1138 C 0.45295 0.70704 0.43974 0.0
N1139 N 0.44842 0.68373 0.42633 0.0
C1140 C 0.55603 0.70006 0.44906 0.0
C1141 C 0.53809 0.66557 0.4204 0.0
C1142 C 0.55969 0.68361 0.46569 0.0
N1143 N 0.54545 0.69089 0.42689 0.0
C1144 C 0.54134 0.64842 0.43656 0.0
C1145 C 0.55226 0.65749 0.45951 0.0
H1146 H 0.56153 0.72024 0.45385 0.0
H1147 H 0.52966 0.65868 0.40271 0.0
C1148 C 0.48183 0.70773 0.33401 0.0
N1149 N 0.48185 0.72271 0.35545 0.0
C1150 C 0.45946 0.70401 0.31853 0.0
C1151 C 0.4377 0.73144 0.34733 0.0
C1152 C 0.46012 0.73395 0.36253 0.0
C1153 C 0.43721 0.71644 0.32493 0.0
H1154 H 0.49932 0.69897 0.32877 0.0
H1155 H 0.4603 0.74529 0.37985 0.0
O1156 O 0.57001 0.7443 0.41014 0.0
O1157 O 0.53503 0.76194 0.37102 0.0
O1158 O 0.53968 0.70406 0.37048 0.0
O1159 O 0.50922 0.73422 0.41051 0.0
H1160 H 0.58286 0.78324 0.38699 0.0
H1161 H 0.60419 0.74629 0.44634 0.0
H1162 H 0.62071 0.81571 0.39829 0.0
H1163 H 0.64175 0.77949 0.45663 0.0
H1164 H 0.46633 0.8096 0.38296 0.0
H1165 H 0.53868 0.78447 0.33259 0.0
H1166 H 0.49489 0.77829 0.39508 0.0
H1167 H 0.50916 0.81554 0.32145 0.0
H1168 H 0.65607 0.73841 0.35396 0.0
H1169 H 0.60228 0.75636 0.30021 0.0
H1170 H 0.5125 0.81615 0.47852 0.0
H1171 H 0.54785 0.85598 0.42488 0.0
H1172 H 0.53137 0.66547 0.33572 0.0
H1173 H 0.58481 0.7004 0.39379 0.0
H1174 H 0.56126 0.63178 0.32665 0.0
H1175 H 0.61369 0.66623 0.38369 0.0
H1176 H 0.4959 0.68765 0.38728 0.0
H1177 H 0.47701 0.74292 0.44526 0.0
H1178 H 0.45933 0.65793 0.39742 0.0
H1179 H 0.44066 0.71215 0.45439 0.0
H1180 H 0.56808 0.69121 0.48329 0.0
H1181 H 0.53535 0.62835 0.43128 0.0
H1182 H 0.45972 0.69211 0.30148 0.0
H1183 H 0.42088 0.74117 0.35298 0.0
Li1184 Li 0.01917 0.7907 0.63933 0.0
Li1185 Li 0.99086 0.77141 0.67224 0.0
Li1186 Li 0.03797 0.7651 0.66735 0.0
Li1187 Li 0.00651 0.74418 0.63796 0.0
C1188 C 0.04082 0.81106 0.69135 0.0
N1189 N 0.07971 0.83502 0.72392 0.0
C1190 C 0.04057 0.80665 0.71497 0.0
C1191 C 0.0607 0.82777 0.6843 0.0
C1192 C 0.06048 0.81889 0.73116 0.0
C1193 C 0.0802 0.83971 0.70105 0.0
C1194 C 0.96388 0.76052 0.62058 0.0
C1195 C 0.92182 0.73666 0.60962 0.0
N1196 N 0.92721 0.7357 0.58629 0.0
C1197 C 0.96894 0.75947 0.59651 0.0
C1198 C 0.94011 0.74911 0.62724 0.0
C1199 C 0.95018 0.74675 0.57943 0.0
C1200 C 0.03189 0.81019 0.59706 0.0
N1201 N 0.02524 0.81766 0.61976 0.0
C1202 C 0.02913 0.8613 0.61311 0.0
C1203 C 0.02368 0.8427 0.62796 0.0
C1204 C 0.03628 0.85399 0.58969 0.0
C1205 C 0.03757 0.82809 0.58172 0.0
H1206 H 0.03314 0.79024 0.59092 0.0
H1207 H 0.0184 0.84828 0.64606 0.0
C1208 C 0.96866 0.76754 0.7166 0.0
N1209 N 0.96405 0.77593 0.69546 0.0
C1210 C 0.95003 0.769 0.73406 0.0
C1211 C 0.9221 0.7879 0.70794 0.0
C1212 C 0.94133 0.7861 0.69092 0.0
C1213 C 0.92637 0.77919 0.7298 0.0
H1214 H 0.98675 0.75937 0.71978 0.0
H1215 H 0.93801 0.79264 0.67402 0.0
C1216 C 0.06627 0.75896 0.62854 0.0
N1217 N 0.11847 0.75267 0.62145 0.0
C1218 C 0.07569 0.7355 0.63007 0.0
C1219 C 0.08335 0.77916 0.62318 0.0
C1220 C 0.10216 0.73273 0.62653 0.0
C1221 C 0.10968 0.7756 0.61968 0.0
C1222 C 1.00026 0.71527 0.67239 0.0
C1223 C 0.01753 0.69677 0.66703 0.0
C1224 C 0.97452 0.708 0.67793 0.0
C1225 C 0.00864 0.6712 0.66693 0.0
C1226 C 0.96641 0.68223 0.67771 0.0
N1227 N 0.98347 0.66452 0.67221 0.0
C1228 C 0.06744 0.74495 0.70242 0.0
C1229 C 0.09303 0.77465 0.68333 0.0
C1230 C 0.08949 0.74085 0.71608 0.0
N1231 N 0.06958 0.76137 0.68616 0.0
C1232 C 0.11562 0.77086 0.69635 0.0
C1233 C 0.114 0.75361 0.71279 0.0
H1234 H 0.04858 0.73494 0.70478 0.0
H1235 H 0.09431 0.78818 0.67093 0.0
C1236 C 0.97484 0.69794 0.61627 0.0
N1237 N 0.99726 0.71352 0.61502 0.0
C1238 C 0.96855 0.67631 0.59932 0.0
C1239 C 0.00833 0.68703 0.57984 0.0
C1240 C 0.01382 0.7085 0.59712 0.0
C1241 C 0.98546 0.67069 0.58088 0.0
H1242 H 0.96159 0.7024 0.63023 0.0
H1243 H 0.03122 0.7213 0.59606 0.0
O1244 O 0.02201 0.79865 0.67507 0.0
O1245 O 0.9823 0.77225 0.63756 0.0
O1246 O 0.04043 0.76207 0.63207 0.0
O1247 O 0.00855 0.74038 0.67241 0.0
H1248 H 0.02538 0.79365 0.72065 0.0
H1249 H 0.06128 0.83119 0.66602 0.0
H1250 H 0.06068 0.8155 0.74946 0.0
H1251 H 0.09582 0.85258 0.69583 0.0
H1252 H 0.90341 0.72761 0.6145 0.0
H1253 H 0.9873 0.76807 0.59109 0.0
H1254 H 0.93602 0.74954 0.64581 0.0
H1255 H 0.95391 0.74559 0.56074 0.0
H1256 H 0.02793 0.88115 0.61983 0.0
H1257 H 0.04299 0.82177 0.56378 0.0
H1258 H 0.95399 0.76212 0.75071 0.0
H1259 H 0.90408 0.79593 0.70409 0.0
H1260 H 0.0627 0.71962 0.634 0.0
H1261 H 0.07649 0.79752 0.62212 0.0
H1262 H 0.10974 0.71471 0.6278 0.0
H1263 H 0.12315 0.79112 0.61568 0.0
H1264 H 0.03758 0.70209 0.66299 0.0
H1265 H 0.96083 0.72203 0.68198 0.0
H1266 H 0.02176 0.65666 0.66267 0.0
H1267 H 0.9465 0.67632 0.68179 0.0
H1268 H 0.08755 0.72757 0.72879 0.0
H1269 H 0.13421 0.78125 0.69361 0.0
H1270 H 0.9506 0.66416 0.60048 0.0
H1271 H 0.02166 0.68333 0.56569 0.0
Li1272 Li 0.51884 0.28952 0.14071 0.0
Li1273 Li 0.48964 0.27139 0.17203 0.0
Li1274 Li 0.53841 0.26436 0.1688 0.0
Li1275 Li 0.50655 0.24375 0.13864 0.0
C1276 C 0.52604 0.32269 0.18193 0.0
N1277 N 0.53376 0.37508 0.19185 0.0
C1278 C 0.5061 0.33641 0.19164 0.0
C1279 C 0.54992 0.33558 0.17731 0.0
C1280 C 0.51039 0.3629 0.19654 0.0
C1281 C 0.55342 0.36209 0.18241 0.0
C1282 C 0.4657 0.26092 0.11873 0.0
C1283 C 0.42445 0.23805 0.10318 0.0
N1284 N 0.43283 0.2378 0.08073 0.0
C1285 C 0.47385 0.26061 0.09552 0.0
C1286 C 0.44079 0.24965 0.12264 0.0
C1287 C 0.45697 0.24875 0.07654 0.0
C1288 C 0.53811 0.31046 0.10087 0.0
N1289 N 0.52508 0.31667 0.121 0.0
C1290 C 0.52154 0.35854 0.11096 0.0
C1291 C 0.51646 0.34014 0.12607 0.0
C1292 C 0.53522 0.35257 0.09024 0.0
C1293 C 0.54352 0.32818 0.08531 0.0
H1294 H 0.5442 0.29157 0.09674 0.0
H1295 H 0.5055 0.34462 0.14173 0.0
C1296 C 0.46831 0.2704 0.21695 0.0
N1297 N 0.46257 0.2761 0.19488 0.0
C1298 C 0.44966 0.27186 0.23439 0.0
C1299 C 0.41948 0.28543 0.20636 0.0
C1300 C 0.43874 0.28367 0.18938 0.0
C1301 C 0.42485 0.27933 0.22916 0.0
H1302 H 0.48733 0.26434 0.22089 0.0
H1303 H 0.43459 0.28818 0.17177 0.0
C1304 C 0.56721 0.25824 0.13224 0.0
N1305 N 0.62014 0.25211 0.13089 0.0
C1306 C 0.57588 0.23435 0.13319 0.0
C1307 C 0.58548 0.27901 0.13051 0.0
C1308 C 0.60271 0.23165 0.13255 0.0
C1309 C 0.61214 0.27551 0.12981 0.0
C1310 C 0.49806 0.21508 0.17258 0.0
C1311 C 0.51406 0.19571 0.16605 0.0
C1312 C 0.47227 0.20885 0.17862 0.0
C1313 C 0.50389 0.17039 0.1654 0.0
C1314 C 0.46286 0.1833 0.17783 0.0
N1315 N 0.47871 0.16476 0.17126 0.0
C1316 C 0.59129 0.27737 0.18922 0.0
C1317 C 0.569 0.24013 0.20008 0.0
C1318 C 0.61417 0.27338 0.20175 0.0
N1319 N 0.56944 0.2605 0.1881 0.0
C1320 C 0.59136 0.23556 0.21305 0.0
C1321 C 0.61444 0.25207 0.21359 0.0
H1322 H 0.59119 0.29366 0.17998 0.0
H1323 H 0.55136 0.22722 0.1994 0.0
C1324 C 0.47447 0.1981 0.11645 0.0
N1325 N 0.49742 0.21307 0.11569 0.0
C1326 C 0.46819 0.17637 0.09962 0.0
C1327 C 0.50902 0.18582 0.08122 0.0
C1328 C 0.51449 0.2074 0.09837 0.0
C1329 C 0.48564 0.17005 0.08179 0.0
H1330 H 0.46086 0.2031 0.12997 0.0
H1331 H 0.53231 0.21977 0.09769 0.0
O1332 O 0.52216 0.29678 0.17696 0.0
O1333 O 0.48226 0.27177 0.13754 0.0
O1334 O 0.54105 0.26135 0.13346 0.0
O1335 O 0.50756 0.24 0.17309 0.0
H1336 H 0.4875 0.3267 0.1953 0.0
H1337 H 0.56542 0.32528 0.16952 0.0
H1338 H 0.49513 0.37378 0.20404 0.0
H1339 H 0.57174 0.37234 0.1788 0.0
H1340 H 0.40518 0.2291 0.10593 0.0
H1341 H 0.49316 0.26912 0.09223 0.0
H1342 H 0.4343 0.24951 0.14052 0.0
H1343 H 0.46309 0.24816 0.05849 0.0
H1344 H 0.51466 0.37712 0.11523 0.0
H1345 H 0.55391 0.32283 0.06941 0.0
H1346 H 0.4545 0.26706 0.25179 0.0
H1347 H 0.40057 0.29137 0.20175 0.0
H1348 H 0.56206 0.21808 0.13454 0.0
H1349 H 0.57924 0.29774 0.13017 0.0
H1350 H 0.60969 0.2133 0.13342 0.0
H1351 H 0.62649 0.29144 0.12861 0.0
H1352 H 0.53406 0.20015 0.16137 0.0
H1353 H 0.45951 0.22353 0.18356 0.0
H1354 H 0.51601 0.15521 0.16021 0.0
H1355 H 0.4429 0.17821 0.18234 0.0
H1356 H 0.63163 0.28656 0.20191 0.0
H1357 H 0.59085 0.21903 0.22212 0.0
H1358 H 0.44986 0.16468 0.10041 0.0
H1359 H 0.52277 0.18157 0.06754 0.0
C1360 C 0.28658 0.75985 0.87721 0.0
C1361 C 0.2664 0.73974 0.87019 0.0
C1362 C 0.24167 0.7548 0.90487 0.0
C1363 C 0.2622 0.77446 0.91226 0.0
N1364 N 0.30612 0.79327 0.908 0.0
N1365 N 0.22697 0.71532 0.87899 0.0
C1366 C 0.28526 0.77621 0.89917 0.0
C1367 C 0.24462 0.73638 0.8846 0.0
N1368 N 0.30658 0.76382 0.86244 0.0
N1369 N 0.21899 0.75427 0.91685 0.0
H1370 H 0.22845 0.7017 0.86415 0.0
H1371 H 0.21208 0.71022 0.88989 0.0
H1372 H 0.21643 0.76704 0.93206 0.0
H1373 H 0.20209 0.74232 0.91098 0.0
H1374 H 0.32012 0.77989 0.86494 0.0
H1375 H 0.30878 0.7517 0.84673 0.0
H1376 H 0.32453 0.79368 0.90083 0.0
H1377 H 0.30566 0.80593 0.92369 0.0
C1378 C 0.01428 0.52473 0.38324 0.0
C1379 C 0.01443 0.54984 0.39543 0.0
C1380 C 0.0554 0.56245 0.37698 0.0
C1381 C 0.05303 0.53848 0.36225 0.0
N1382 N 0.03032 0.49668 0.35068 0.0
N1383 N 0.03464 0.59288 0.40425 0.0
C1384 C 0.03268 0.51944 0.36543 0.0
C1385 C 0.0351 0.56871 0.39264 0.0
N1386 N 0.99644 0.50602 0.38879 0.0
N1387 N 0.07717 0.57913 0.37601 0.0
H1388 H 0.02078 0.59775 0.41667 0.0
H1389 H 0.04714 0.60837 0.4009 0.0
H1390 H 0.09216 0.5752 0.36451 0.0
H1391 H 0.08148 0.59592 0.38777 0.0
H1392 H 0.99663 0.48683 0.38227 0.0
H1393 H 0.98264 0.50945 0.4016 0.0
H1394 H 0.01428 0.48307 0.35006 0.0
H1395 H 0.04388 0.49188 0.33797 0.0
C1396 C 0.80612 0.73378 0.85517 0.0
C1397 C 0.82793 0.7525 0.85624 0.0
C1398 C 0.84441 0.7393 0.89335 0.0
C1399 C 0.82114 0.7226 0.89366 0.0
N1400 N 0.77838 0.70582 0.87621 0.0
N1401 N 0.86655 0.77514 0.87755 0.0
C1402 C 0.80166 0.72023 0.87483 0.0
C1403 C 0.84682 0.75572 0.87562 0.0
N1404 N 0.78991 0.72866 0.83512 0.0
N1405 N 0.86452 0.739 0.90972 0.0
H1406 H 0.86933 0.78717 0.86473 0.0
H1407 H 0.87907 0.78049 0.8926 0.0
H1408 H 0.86343 0.72734 0.92296 0.0
H1409 H 0.88306 0.74864 0.90901 0.0
H1410 H 0.77527 0.7135 0.83206 0.0
H1411 H 0.79253 0.73833 0.82054 0.0
H1412 H 0.76222 0.70554 0.86454 0.0
H1413 H 0.77444 0.69551 0.89016 0.0
C1414 C 0.02988 0.01635 0.42823 0.0
C1415 C 0.04409 0.99462 0.42624 0.0
C1416 C 0.02353 0.9803 0.38628 0.0
C1417 C 0.01162 1.00337 0.38724 0.0
N1418 N 0.00729 0.04543 0.40766 0.0
N1419 N 0.05857 0.95861 0.40131 0.0
C1420 C 0.01583 0.02198 0.40784 0.0
C1421 C 0.04205 0.97732 0.40468 0.0
N1422 N 0.02914 0.03121 0.44977 0.0
N1423 N 0.0165 0.96084 0.3682 0.0
H1424 H 0.07288 0.95612 0.41402 0.0
H1425 H 0.05984 0.94719 0.38504 0.0
H1426 H 1.00267 0.96204 0.35462 0.0
H1427 H 0.02245 0.94268 0.36794 0.0
H1428 H 0.01693 0.04572 0.4529 0.0
H1429 H 0.03894 0.02756 0.46512 0.0
H1430 H 0.0122 0.06065 0.42118 0.0
H1431 H 0.99729 0.05043 0.39302 0.0
C1432 C 0.30682 0.25638 0.65613 0.0
C1433 C 0.286 0.27186 0.66089 0.0
C1434 C 0.26796 0.25914 0.61986 0.0
C1435 C 0.28904 0.24404 0.61501 0.0
N1436 N 0.33109 0.23181 0.62675 0.0
N1437 N 0.24951 0.29173 0.64673 0.0
C1438 C 0.30932 0.24385 0.63262 0.0
C1439 C 0.26742 0.27442 0.64251 0.0
N1440 N 0.32349 0.25271 0.67436 0.0
N1441 N 0.24803 0.2582 0.60303 0.0
H1442 H 0.24856 0.30299 0.66318 0.0
H1443 H 0.23698 0.29643 0.6336 0.0
H1444 H 0.24827 0.24795 0.58602 0.0
H1445 H 0.2306 0.26634 0.60622 0.0
H1446 H 0.337 0.23927 0.67276 0.0
H1447 H 0.32273 0.26195 0.69171 0.0
H1448 H 0.34787 0.23327 0.63792 0.0
H1449 H 0.3333 0.22189 0.6099 0.0
C1450 C 0.55185 0.53774 0.65217 0.0
C1451 C 0.54176 0.52594 0.62927 0.0
C1452 C 0.50063 0.51139 0.64661 0.0
C1453 C 0.50983 0.52512 0.66907 0.0
N1454 N 0.54287 0.55374 0.69293 0.0
N1455 N 0.50581 0.50364 0.60395 0.0
C1456 C 0.53515 0.53888 0.67178 0.0
C1457 C 0.51595 0.51324 0.62631 0.0
N1458 N 0.57762 0.54745 0.65523 0.0
N1459 N 0.47745 0.4961 0.64482 0.0
H1460 H 0.51672 0.50396 0.58883 0.0
H1461 H 0.48619 0.49683 0.60012 0.0
H1462 H 0.4655 0.49468 0.65914 0.0
H1463 H 0.47092 0.48343 0.62968 0.0
H1464 H 0.58707 0.55385 0.67177 0.0
H1465 H 0.59029 0.54728 0.64126 0.0
H1466 H 0.55973 0.56651 0.69538 0.0
H1467 H 0.53138 0.55475 0.70775 0.0
C1468 C 0.7734 0.28083 0.65682 0.0
C1469 C 0.79476 0.29101 0.673 0.0
C1470 C 0.80851 0.32196 0.64665 0.0
C1471 C 0.78768 0.31128 0.63004 0.0
N1472 N 0.7542 0.27687 0.61667 0.0
N1473 N 0.83632 0.31653 0.68058 0.0
C1474 C 0.77134 0.28951 0.63431 0.0
C1475 C 0.81355 0.31002 0.66693 0.0
N1476 N 0.75442 0.26377 0.66335 0.0
N1477 N 0.82256 0.34434 0.64384 0.0
H1478 H 0.84062 0.30795 0.69544 0.0
H1479 H 0.85193 0.32847 0.67586 0.0
H1480 H 0.81922 0.35406 0.62955 0.0
H1481 H 0.83597 0.35446 0.65674 0.0
H1482 H 0.7368 0.25799 0.65355 0.0
H1483 H 0.75549 0.25662 0.67945 0.0
H1484 H 0.74361 0.25949 0.61782 0.0
H1485 H 0.75236 0.2826 0.59995 0.0
C1486 C 0.53678 0.02868 0.61161 0.0
C1487 C 0.51623 0.00932 0.60334 0.0
C1488 C 0.52732 0.98612 0.63616 0.0
C1489 C 0.547 1.00609 0.64506 0.0
N1490 N 0.5673 0.0485 0.64402 0.0
N1491 N 0.48886 0.97191 0.60968 0.0
C1492 C 0.55076 0.02803 0.6336 0.0
C1493 C 0.51058 0.98871 0.61624 0.0
N1494 N 0.54366 0.04716 0.59798 0.0
N1495 N 0.5252 0.96432 0.64628 0.0
H1496 H 0.47629 0.97325 0.59518 0.0
H1497 H 0.48201 0.95797 0.61966 0.0
H1498 H 0.5368 0.96195 0.66109 0.0
H1499 H 0.51334 0.94793 0.63909 0.0
H1500 H 0.5604 0.06 0.60156 0.0
H1501 H 0.5337 0.04856 0.58199 0.0
H1502 H 0.56873 0.06609 0.63801 0.0
H1503 H 0.5781 0.04864 0.65994 0.0
C1504 C 0.88423 0.1976 0.7706 0.0
C1505 C 0.86565 0.21548 0.7758 0.0
C1506 C 0.89416 0.23688 0.80974 0.0
C1507 C 0.91098 0.21713 0.80638 0.0
N1508 N 0.91928 0.17609 0.78592 0.0
N1509 N 0.85039 0.24891 0.80353 0.0
C1510 C 0.90529 0.19676 0.7874 0.0
C1511 C 0.86991 0.23426 0.79626 0.0
N1512 N 0.88223 0.18191 0.74931 0.0
N1513 N 0.90171 0.25855 0.82523 0.0
H1514 H 0.83197 0.24707 0.79472 0.0
H1515 H 0.85156 0.26104 0.81966 0.0
H1516 H 0.91967 0.26157 0.83494 0.0
H1517 H 0.89139 0.27455 0.82658 0.0
H1518 H 0.89668 0.17032 0.74356 0.0
H1519 H 0.86738 0.18227 0.73639 0.0
H1520 H 0.91421 0.15956 0.77393 0.0
H1521 H 0.93445 0.17446 0.79814 0.0
C1522 C 0.54321 0.90445 0.49074 0.0
C1523 C 0.51918 0.9147 0.48666 0.0
C1524 C 0.50079 0.87412 0.46366 0.0
C1525 C 0.52504 0.86403 0.46725 0.0
N1526 N 0.56717 0.86704 0.48809 0.0
N1527 N 0.47335 0.90828 0.47427 0.0
C1528 C 0.54555 0.87841 0.48215 0.0
C1529 C 0.49734 0.89909 0.47482 0.0
N1530 N 0.56405 0.91995 0.50199 0.0
N1531 N 0.48156 0.86027 0.44864 0.0
H1532 H 0.47035 0.92661 0.48205 0.0
H1533 H 0.45603 0.89722 0.46795 0.0
H1534 H 0.48307 0.84166 0.44068 0.0
H1535 H 0.46472 0.86757 0.44294 0.0
H1536 H 0.58305 0.91469 0.50308 0.0
H1537 H 0.56256 0.93874 0.50944 0.0
H1538 H 0.58181 0.87562 0.50059 0.0
H1539 H 0.56949 0.84809 0.48184 0.0
C1540 C 0.16691 0.25507 0.77137 0.0
C1541 C 0.19281 0.26078 0.78165 0.0
C1542 C 0.17565 0.26581 0.82163 0.0
C1543 C 0.14978 0.25942 0.81136 0.0
N1544 N 0.12 0.25386 0.77692 0.0
N1545 N 0.22175 0.27737 0.81557 0.0
C1546 C 0.14518 0.25603 0.78632 0.0
C1547 C 0.19709 0.26816 0.80653 0.0
N1548 N 0.1632 0.2475 0.74741 0.0
N1549 N 0.17977 0.26849 0.84577 0.0
H1550 H 0.2377 0.27921 0.80481 0.0
H1551 H 0.22604 0.28519 0.83325 0.0
H1552 H 0.1645 0.26756 0.85737 0.0
H1553 H 0.19827 0.27023 0.85433 0.0
H1554 H 0.1452 0.23996 0.73906 0.0
H1555 H 0.17857 0.24762 0.73586 0.0
H1556 H 0.11527 0.25381 0.75897 0.0
H1557 H 0.10371 0.25419 0.78741 0.0
C1558 C 0.53959 0.62046 0.51151 0.0
C1559 C 0.56546 0.61498 0.51707 0.0
C1560 C 0.58053 0.63088 0.48083 0.0
C1561 C 0.55573 0.64001 0.47745 0.0
N1562 N 0.51138 0.64372 0.48916 0.0
N1563 N 0.61068 0.61424 0.50727 0.0
C1564 C 0.53502 0.63449 0.49247 0.0
C1565 C 0.58589 0.61962 0.50155 0.0
N1566 N 0.51949 0.61232 0.52463 0.0
N1567 N 0.59886 0.63299 0.46414 0.0
H1568 H 0.61487 0.60484 0.52161 0.0
H1569 H 0.62724 0.61991 0.49852 0.0
H1570 H 0.59554 0.64138 0.44897 0.0
H1571 H 0.61646 0.62476 0.46426 0.0
H1572 H 0.49978 0.61359 0.52041 0.0
H1573 H 0.52239 0.60223 0.53876 0.0
H1574 H 0.49641 0.64308 0.50103 0.0
H1575 H 0.5071 0.65334 0.47499 0.0
C1576 C 0.89288 0.79944 0.78765 0.0
C1577 C 0.86902 0.78315 0.78435 0.0
C1578 C 0.88348 0.76306 0.74597 0.0
C1579 C 0.90627 0.78081 0.74836 0.0
N1580 N 0.93075 0.81843 0.7697 0.0
N1581 N 0.83984 0.75175 0.75911 0.0
C1582 C 0.91043 0.79971 0.76874 0.0
C1583 C 0.86385 0.76557 0.76314 0.0
N1584 N 0.89916 0.8141 0.80918 0.0
N1585 N 0.88101 0.74329 0.72767 0.0
H1586 H 0.8252 0.75281 0.7714 0.0
H1587 H 0.83367 0.74072 0.74294 0.0
H1588 H 0.8948 0.74096 0.71468 0.0
H1589 H 0.86643 0.72811 0.72633 0.0
H1590 H 0.91746 0.82423 0.81364 0.0
H1591 H 0.88687 0.81446 0.82343 0.0
H1592 H 0.93319 0.83435 0.78276 0.0
H1593 H 0.94405 0.81923 0.75629 0.0
C1594 C 0.07565 0.89501 0.55089 0.0
C1595 C 0.05537 0.90112 0.53567 0.0
C1596 C 0.02216 0.88016 0.55864 0.0
C1597 C 0.04249 0.87308 0.57322 0.0
N1598 N 0.08789 0.87845 0.58699 0.0
N1599 N 0.00963 0.90507 0.52814 0.0
C1600 C 0.06905 0.88216 0.57059 0.0
C1601 C 0.02868 0.89561 0.54072 0.0
N1602 N 0.10124 0.90048 0.54574 0.0
N1603 N 0.99671 0.87109 0.56122 0.0
H1604 H 0.01398 0.91626 0.51489 0.0
H1605 H 0.98991 0.90377 0.53205 0.0
H1606 H 0.99119 0.86048 0.57461 0.0
H1607 H 0.98119 0.87291 0.54951 0.0
H1608 H 0.11706 0.89389 0.55411 0.0
H1609 H 0.10661 0.911 0.53224 0.0
H1610 H 0.10727 0.88645 0.58751 0.0
H1611 H 0.08366 0.86888 0.60138 0.0
C1612 C 0.17633 0.72458 0.72911 0.0
C1613 C 0.18704 0.74282 0.7485 0.0
C1614 C 0.14851 0.76672 0.74611 0.0
C1615 C 0.13814 0.74886 0.72628 0.0
N1616 N 0.13964 0.70888 0.70093 0.0
N1617 N 0.18201 0.77859 0.77823 0.0
C1618 C 0.15124 0.7271 0.71851 0.0
C1619 C 0.1726 0.76303 0.75792 0.0
N1620 N 0.19072 0.70535 0.72034 0.0
N1621 N 0.13559 0.78758 0.75317 0.0
H1622 H 0.19978 0.77663 0.78697 0.0
H1623 H 0.17163 0.79233 0.78745 0.0
H1624 H 0.11729 0.79016 0.74576 0.0
H1625 H 0.14324 0.8029 0.76563 0.0
H1626 H 0.18593 0.69314 0.70454 0.0
H1627 H 0.20835 0.70205 0.72855 0.0
H1628 H 0.14653 0.69128 0.69604 0.0
H1629 H 0.12201 0.71067 0.69189 0.0
C1630 C 0.98619 0.60451 0.545 0.0
C1631 C 0.96636 0.60503 0.52708 0.0
C1632 C 0.96057 0.64922 0.54334 0.0
C1633 C 0.97892 0.64803 0.56233 0.0
N1634 N 0.00674 0.62374 0.58328 0.0
N1635 N 0.93178 0.62623 0.51102 0.0
C1636 C 0.99109 0.62543 0.56371 0.0
C1637 C 0.95276 0.62697 0.52673 0.0
N1638 N 1.00078 0.58426 0.54378 0.0
N1639 N 0.95114 0.67186 0.54081 0.0
H1640 H 0.92562 0.61043 0.49842 0.0
H1641 H 0.91918 0.64047 0.51163 0.0
H1642 H 0.95609 0.68846 0.55279 0.0
H1643 H 0.94006 0.67475 0.52592 0.0
H1644 H 0.01738 0.58382 0.55474 0.0
H1645 H 0.99746 0.5685 0.53054 0.0
H1646 H 0.01391 0.60696 0.58669 0.0
H1647 H 0.01101 0.63876 0.59714 0.0
C1648 C 0.79388 0.87003 0.22961 0.0
C1649 C 0.80704 0.84803 0.22314 0.0
C1650 C 0.8495 0.8742 0.22938 0.0
C1651 C 0.83651 0.89571 0.23809 0.0
N1652 N 0.79662 0.91339 0.25002 0.0
N1653 N 0.84753 0.82828 0.22124 0.0
C1654 C 0.80873 0.89344 0.23915 0.0
C1655 C 0.83492 0.84987 0.22422 0.0
N1656 N 0.76724 0.8687 0.22603 0.0
N1657 N 0.87568 0.87713 0.2253 0.0
H1658 H 0.83763 0.81007 0.21779 0.0
H1659 H 0.86768 0.82828 0.22438 0.0
H1660 H 0.88702 0.89465 0.22863 0.0
H1661 H 0.88562 0.86268 0.21656 0.0
H1662 H 0.75677 0.88459 0.22799 0.0
H1663 H 0.75576 0.85189 0.21914 0.0
H1664 H 0.77679 0.91206 0.25365 0.0
H1665 H 0.80682 0.93076 0.25726 0.0
C1666 C 0.83469 0.17836 0.31185 0.0
C1667 C 0.80855 0.17282 0.31854 0.0
C1668 C 0.81606 0.12777 0.31732 0.0
C1669 C 0.84119 0.13287 0.30819 0.0
N1670 N 0.87375 0.16245 0.29466 0.0
N1671 N 0.77332 0.14216 0.32588 0.0
C1672 C 0.85039 0.15807 0.30503 0.0
C1673 C 0.799 0.1475 0.32093 0.0
N1674 N 0.84463 0.20314 0.3124 0.0
N1675 N 0.80876 0.10416 0.32301 0.0
H1676 H 0.76056 0.15619 0.32941 0.0
H1677 H 0.76416 0.12379 0.32509 0.0
H1678 H 0.82059 0.08924 0.32033 0.0
H1679 H 0.792 0.09981 0.33205 0.0
H1680 H 0.86428 0.20877 0.31017 0.0
H1681 H 0.83361 0.21839 0.31704 0.0
H1682 H 0.88026 0.17971 0.28929 0.0
H1683 H 0.88597 0.14822 0.28983 0.0
C1684 C 0.38666 0.02095 0.99699 0.0
C1685 C 0.41345 0.01979 1.00363 0.0
C1686 C 0.40163 0.98023 0.01996 0.0
C1687 C 0.37527 0.98022 0.01136 0.0
N1688 N 0.34306 0.99857 0.98903 0.0
N1689 N 0.44723 0.99733 0.01913 0.0
C1690 C 0.36786 1.00008 0.99919 0.0
C1691 C 0.42116 0.99918 0.01457 0.0
N1692 N 0.37909 0.04233 0.98913 0.0
N1693 N 0.40783 0.96243 0.03373 0.0
H1694 H 0.46197 0.01111 0.01587 0.0
H1695 H 0.45446 0.98142 0.02459 0.0
H1696 H 0.39412 0.9481 0.03771 0.0
H1697 H 0.42598 0.96291 0.04269 0.0
H1698 H 0.35956 0.04559 0.98649 0.0
H1699 H 0.39229 0.0579 0.98707 0.0
H1700 H 0.3373 0.01081 0.97757 0.0
H1701 H 0.32862 0.98383 0.99058 0.0
C1702 C 0.26658 0.39025 0.28611 0.0
C1703 C 0.25646 0.3745 0.30245 0.0
C1704 C 0.21319 0.39012 0.29822 0.0
C1705 C 0.22327 0.40604 0.28194 0.0
N1706 N 0.25734 0.41647 0.25582 0.0
N1707 N 0.21897 0.35411 0.31895 0.0
C1708 C 0.2493 0.40449 0.27438 0.0
C1709 C 0.22928 0.37262 0.30667 0.0
N1710 N 0.29291 0.39257 0.2827 0.0
N1711 N 0.18889 0.39282 0.30686 0.0
H1712 H 0.23038 0.34109 0.3253 0.0
H1713 H 0.19891 0.35009 0.3208 0.0
H1714 H 0.17652 0.40554 0.30143 0.0
H1715 H 0.18174 0.38391 0.3208 0.0
H1716 H 0.30207 0.40606 0.27335 0.0
H1717 H 0.30591 0.38181 0.29037 0.0
H1718 H 0.27519 0.41425 0.24796 0.0
H1719 H 0.24507 0.42686 0.24682 0.0
C1720 C 0.14846 0.01415 0.46038 0.0
C1721 C 0.12775 0.01768 0.47611 0.0
C1722 C 0.15457 0.05404 0.49949 0.0
C1723 C 0.1741 0.05209 0.48237 0.0
N1724 N 0.18848 0.03227 0.44498 0.0
N1725 N 0.10967 0.04228 0.50928 0.0
C1726 C 0.17078 0.03259 0.46244 0.0
C1727 C 0.13047 0.03794 0.49538 0.0
N1728 N 0.14694 0.99287 0.44371 0.0
N1729 N 0.15936 0.07088 0.51998 0.0
H1730 H 0.09205 0.03049 0.5072 0.0
H1731 H 0.10917 0.05841 0.52182 0.0
H1732 H 0.17664 0.08308 0.52348 0.0
H1733 H 0.14725 0.07144 0.53431 0.0
H1734 H 0.16246 0.9877 0.43337 0.0
H1735 H 0.13081 0.97913 0.44153 0.0
H1736 H 0.18569 0.02042 0.42873 0.0
H1737 H 0.20515 0.04528 0.44592 0.0
C1738 C 0.75937 0.17229 0.76359 0.0
C1739 C 0.77812 0.17054 0.74576 0.0
C1740 C 0.75807 0.12764 0.72949 0.0
C1741 C 0.74048 0.12875 0.74827 0.0
N1742 N 0.72572 0.1506 0.78463 0.0
N1743 N 0.79746 0.14612 0.71323 0.0
C1744 C 0.74149 0.15069 0.76571 0.0
C1745 C 0.77803 0.14808 0.72908 0.0
N1746 N 0.75843 0.1948 0.77824 0.0
N1747 N 0.75534 0.10721 0.71183 0.0
H1748 H 0.8118 0.16102 0.7119 0.0
H1749 H 0.80043 0.12936 0.70237 0.0
H1750 H 0.74157 0.09154 0.71199 0.0
H1751 H 0.76548 0.10634 0.69625 0.0
H1752 H 0.74347 0.19838 0.78978 0.0
H1753 H 0.77174 0.21074 0.7778 0.0
H1754 H 0.72751 0.16465 0.79942 0.0
H1755 H 0.71176 0.13552 0.78636 0.0
C1756 C 0.4571 0.06549 0.53896 0.0
C1757 C 0.45027 0.04511 0.55186 0.0
C1758 C 0.40506 0.05696 0.55339 0.0
C1759 C 0.41107 0.07485 0.5376 0.0
N1760 N 0.44221 0.09378 0.51274 0.0
N1761 N 0.41704 0.01961 0.56939 0.0
C1762 C 0.437 0.07861 0.52979 0.0
C1763 C 0.42407 0.04044 0.55871 0.0
N1764 N 0.48295 0.07253 0.5358 0.0
N1765 N 0.3814 0.0562 0.56379 0.0
H1766 H 0.43041 1.00729 0.57385 0.0
H1767 H 0.39766 0.01351 0.57229 0.0
H1768 H 0.36713 0.06812 0.56049 0.0
H1769 H 0.37686 0.04544 0.57727 0.0
H1770 H 0.4894 0.08878 0.52862 0.0
H1771 H 0.49817 0.06352 0.54252 0.0
H1772 H 0.45999 0.09501 0.50444 0.0
H1773 H 0.42801 0.10344 0.50527 0.0
C1774 C 0.63123 0.49268 0.58754 0.0
C1775 C 0.60962 0.4957 0.57217 0.0
C1776 C 0.62695 0.4665 0.54036 0.0
C1777 C 0.64724 0.46183 0.55639 0.0
N1778 N 0.6653 0.46648 0.59666 0.0
N1779 N 0.58432 0.48195 0.53532 0.0
C1780 C 0.64836 0.47376 0.58041 0.0
C1781 C 0.60674 0.48156 0.54895 0.0
N1782 N 0.63615 0.50864 0.60856 0.0
N1783 N 0.62753 0.45738 0.51671 0.0
H1784 H 0.56909 0.49258 0.54107 0.0
H1785 H 0.57979 0.47003 0.51928 0.0
H1786 H 0.64199 0.44642 0.50972 0.0
H1787 H 0.61501 0.46246 0.50376 0.0
H1788 H 0.65317 0.50917 0.61925 0.0
H1789 H 0.62447 0.52305 0.61429 0.0
H1790 H 0.66506 0.4725 0.61487 0.0
H1791 H 0.67792 0.45251 0.59224 0.0
C1792 C 0.74506 0.2411 0.38073 0.0
C1793 C 0.76771 0.24456 0.36739 0.0
C1794 C 0.78491 0.28124 0.39688 0.0
C1795 C 0.76122 0.27916 0.40904 0.0
N1796 N 0.71763 0.25881 0.41163 0.0
N1797 N 0.80788 0.26951 0.36097 0.0
C1798 C 0.741 0.25949 0.40073 0.0
C1799 C 0.78735 0.26501 0.37505 0.0
N1800 N 0.72774 0.21988 0.37452 0.0
N1801 N 0.80532 0.29845 0.40648 0.0
H1802 H 0.81069 0.25781 0.34516 0.0
H1803 H 0.82114 0.28578 0.364 0.0
H1804 H 0.80407 0.31111 0.42205 0.0
H1805 H 0.82412 0.29899 0.40009 0.0
H1806 H 0.71224 0.21472 0.38476 0.0
H1807 H 0.73004 0.20624 0.35989 0.0
H1808 H 0.70101 0.24682 0.40501 0.0
H1809 H 0.71425 0.27154 0.42663 0.0
C1810 C 0.53479 0.0675 0.89405 0.0
C1811 C 0.51424 0.04852 0.89682 0.0
C1812 C 0.53257 0.01832 0.86669 0.0
C1813 C 0.55283 0.03747 0.86356 0.0
N1814 N 0.57683 0.07816 0.87746 0.0
N1815 N 0.4965 1.00462 0.8901 0.0
C1816 C 0.55511 0.06139 0.87836 0.0
C1817 C 0.51419 0.02345 0.88456 0.0
N1818 N 0.5342 0.09165 0.90569 0.0
N1819 N 0.53024 0.99564 0.85184 0.0
H1820 H 0.48272 0.00793 0.90296 0.0
H1821 H 0.4968 0.98545 0.88353 0.0
H1822 H 0.54374 0.99096 0.83903 0.0
H1823 H 0.51424 0.98197 0.8512 0.0
H1824 H 0.54661 0.1072 0.90234 0.0
H1825 H 0.52032 0.09642 0.91811 0.0
H1826 H 0.58106 0.09492 0.88927 0.0
H1827 H 0.59184 0.07432 0.86596 0.0
C1828 C 0.3449 0.25668 0.37618 0.0
C1829 C 0.32731 0.25178 0.3558 0.0
C1830 C 0.30275 0.21745 0.37315 0.0
C1831 C 0.32092 0.22174 0.39312 0.0
N1832 N 0.36183 0.24221 0.41182 0.0
N1833 N 0.29227 0.22501 0.33286 0.0
C1834 C 0.34277 0.24042 0.39406 0.0
C1835 C 0.30709 0.23135 0.35369 0.0
N1836 N 0.36312 0.27745 0.37881 0.0
N1837 N 0.28081 0.20074 0.37318 0.0
H1838 H 0.29475 0.23496 0.31846 0.0
H1839 H 0.27902 0.20878 0.32908 0.0
H1840 H 0.27722 0.18995 0.38685 0.0
H1841 H 0.26528 0.19877 0.36057 0.0
H1842 H 0.37441 0.28397 0.39443 0.0
H1843 H 0.36587 0.28928 0.36582 0.0
H1844 H 0.37964 0.25344 0.41222 0.0
H1845 H 0.36077 0.23086 0.42532 0.0
C1846 C 0.53151 0.51624 0.92769 0.0
C1847 C 0.54376 0.49334 0.9265 0.0
C1848 C 0.52154 0.47858 0.8873 0.0
C1849 C 0.51206 0.50272 0.88718 0.0
N1850 N 0.51264 0.54636 0.90568 0.0
N1851 N 0.55501 0.4552 0.90246 0.0
C1852 C 0.51831 0.52209 0.90697 0.0
C1853 C 0.54005 0.47517 0.90554 0.0
N1854 N 0.53175 0.53209 0.94879 0.0
N1855 N 0.5122 0.45855 0.8705 0.0
H1856 H 0.56954 0.45247 0.91487 0.0
H1857 H 0.55491 0.44289 0.88651 0.0
H1858 H 0.49799 0.45994 0.8573 0.0
H1859 H 0.51651 0.43998 0.8712 0.0
H1860 H 0.52091 0.54772 0.95125 0.0
H1861 H 0.54066 0.5282 0.96446 0.0
H1862 H 0.51914 0.56172 0.91862 0.0
H1863 H 0.50373 0.55162 0.89062 0.0
C1864 C 0.76318 0.77327 0.14248 0.0
C1865 C 0.78243 0.77209 0.16075 0.0
C1866 C 0.80404 0.74099 0.13403 0.0
C1867 C 0.78535 0.74286 0.11548 0.0
N1868 N 0.74944 0.76306 0.10057 0.0
N1869 N 0.82337 0.7581 0.17328 0.0
C1870 C 0.76561 0.75975 0.11928 0.0
C1871 C 0.80354 0.75692 0.1563 0.0
N1872 N 0.74217 0.78674 0.14756 0.0
N1873 N 0.82178 0.72338 0.13055 0.0
H1874 H 0.82332 0.76896 0.19002 0.0
H1875 H 0.84079 0.74986 0.17032 0.0
H1876 H 0.82341 0.71203 0.11427 0.0
H1877 H 0.83381 0.71878 0.14408 0.0
H1878 H 0.72589 0.78618 0.13597 0.0
H1879 H 0.74022 0.79745 0.16411 0.0
H1880 H 0.73643 0.77694 0.10138 0.0
H1881 H 0.75029 0.75301 0.08355 0.0
C1882 C 0.01933 0.01724 0.12553 0.0
C1883 C 0.04624 0.02684 0.12872 0.0
C1884 C 0.04125 0.03731 0.17182 0.0
C1885 C 0.01462 0.02674 0.16877 0.0
N1886 N 0.97889 1.00387 0.14349 0.0
N1887 N 0.08391 0.04312 0.15483 0.0
C1888 C 1.00384 0.01587 0.14581 0.0
C1889 C 0.05751 0.036 0.15189 0.0
N1890 N 0.00842 0.0101 0.10302 0.0
N1891 N 0.05078 0.04919 0.19375 0.0
H1892 H 0.09625 0.04321 0.14065 0.0
H1893 H 0.09405 0.0473 0.1713 0.0
H1894 H 0.03977 0.04976 0.20886 0.0
H1895 H 0.06894 0.05989 0.19684 0.0
H1896 H 0.98837 1.00576 0.09911 0.0
H1897 H 0.01936 0.00988 0.08788 0.0
H1898 H 0.97072 0.99308 0.12784 0.0
H1899 H 0.96667 1.00334 0.15773 0.0
C1900 C 0.27469 0.78029 0.16132 0.0
C1901 C 0.29642 0.79029 0.17716 0.0
C1902 C 0.31029 0.82057 0.1502 0.0
C1903 C 0.28917 0.80995 0.13386 0.0
N1904 N 0.255 0.77595 0.12132 0.0
N1905 N 0.33842 0.81518 0.18391 0.0
C1906 C 0.27253 0.7886 0.13864 0.0
C1907 C 0.31538 0.80887 0.17061 0.0
N1908 N 0.2555 0.76376 0.16833 0.0
N1909 N 0.3246 0.84266 0.14696 0.0
H1910 H 0.34281 0.80676 0.19885 0.0
H1911 H 0.35411 0.82674 0.17882 0.0
H1912 H 0.32122 0.85222 0.13256 0.0
H1913 H 0.33827 0.85277 0.15964 0.0
H1914 H 0.2377 0.75817 0.15878 0.0
H1915 H 0.25659 0.75694 0.18459 0.0
H1916 H 0.24415 0.7588 0.12285 0.0
H1917 H 0.25306 0.78138 0.10449 0.0
C1918 C 0.03574 0.52864 0.11087 0.0
C1919 C 0.01503 0.50938 0.10279 0.0
C1920 C 0.02635 0.48615 0.13551 0.0
C1921 C 0.04618 0.50604 0.14425 0.0
N1922 N 0.06666 0.54835 0.14301 0.0
N1923 N 0.98758 0.47211 0.10938 0.0
C1924 C 0.04993 0.52794 0.13274 0.0
C1925 C 0.00943 0.4888 0.11574 0.0
N1926 N 0.04257 0.54705 0.09715 0.0
N1927 N 0.02425 0.46437 0.14566 0.0
H1928 H 0.97488 0.47349 0.09498 0.0
H1929 H 0.98079 0.45821 0.11942 0.0
H1930 H 0.03598 0.46194 0.16037 0.0
H1931 H 0.01225 0.44802 0.13857 0.0
H1932 H 0.05939 0.55981 0.10058 0.0
H1933 H 0.03248 0.54848 0.08124 0.0
H1934 H 0.06811 0.56592 0.13698 0.0
H1935 H 0.07761 0.54845 0.15884 0.0
C1936 C 0.36558 0.70708 0.30175 0.0
C1937 C 0.3678 0.71189 0.27791 0.0
C1938 C 0.41538 0.72203 0.28556 0.0
C1939 C 0.41348 0.71406 0.3083 0.0
N1940 N 0.38697 0.69293 0.33535 0.0
N1941 N 0.39593 0.71832 0.24567 0.0
C1942 C 0.38862 0.70474 0.31559 0.0
C1943 C 0.39306 0.71769 0.26936 0.0
N1944 N 0.34166 0.70595 0.31165 0.0
N1945 N 0.43805 0.73485 0.27973 0.0
H1946 H 0.38021 0.71447 0.23311 0.0
H1947 H 0.4142 0.72005 0.23823 0.0
H1948 H 0.45451 0.73948 0.29139 0.0
H1949 H 0.43952 0.74322 0.2643 0.0
H1950 H 0.33944 0.70488 0.32963 0.0
H1951 H 0.32442 0.70893 0.30265 0.0
H1952 H 0.36952 0.68372 0.34012 0.0
H1953 H 0.40345 0.68993 0.34547 0.0
C1954 C 0.99333 0.39902 0.97445 0.0
C1955 C 0.0154 0.41448 0.98603 0.0
C1956 C 0.0413 0.37785 0.98154 0.0
C1957 C 0.02052 0.36356 0.96691 0.0
N1958 N 0.97687 0.36009 0.94871 0.0
N1959 N 0.06042 0.41935 1.00094 0.0
C1960 C 0.99639 0.3739 0.96343 0.0
C1961 C 0.03932 0.40399 0.98998 0.0
N1962 N 0.96947 0.4085 0.974 0.0
N1963 N 0.06283 0.3663 0.98739 0.0
H1964 H 0.05922 0.43823 0.00828 0.0
H1965 H 0.07934 0.41388 1.00189 0.0
H1966 H 0.06491 0.34728 0.98122 0.0
H1967 H 0.07764 0.37481 0.99974 0.0
H1968 H 0.95201 0.3976 0.96787 0.0
H1969 H 0.96675 0.42693 0.98168 0.0
H1970 H 0.96007 0.36751 0.94307 0.0
H1971 H 0.97809 0.34137 0.94092 0.0
C1972 C 0.6965 0.77556 0.30287 0.0
C1973 C 0.69976 0.75724 0.28282 0.0
C1974 C 0.65795 0.73345 0.28966 0.0
C1975 C 0.65442 0.75199 0.30949 0.0
N1976 N 0.66708 0.79343 0.33183 0.0
N1977 N 0.68118 0.72233 0.25379 0.0
C1978 C 0.67271 0.77394 0.31509 0.0
C1979 C 0.67961 0.73736 0.27513 0.0
N1980 N 0.71659 0.79383 0.31084 0.0
N1981 N 0.64138 0.7115 0.28542 0.0
H1982 H 0.69681 0.72477 0.24278 0.0
H1983 H 0.66599 0.7091 0.24599 0.0
H1984 H 0.6253 0.70788 0.29561 0.0
H1985 H 0.64464 0.696 0.27295 0.0
H1986 H 0.71679 0.80581 0.32697 0.0
H1987 H 0.73392 0.79606 0.30193 0.0
H1988 H 0.67827 0.811 0.3351 0.0
H1989 H 0.64987 0.79285 0.3411 0.0
C1990 C 0.04368 0.12154 0.01263 0.0
C1991 C 0.06933 0.11452 0.01645 0.0
C1992 C 0.08203 0.12837 0.97866 0.0
C1993 C 0.05781 0.13901 0.97685 0.0
N1994 N 0.01557 0.14658 0.99224 0.0
N1995 N 0.11319 0.11091 1.0035 0.0
C1996 C 0.03843 0.13547 0.99367 0.0
C1997 C 0.08849 0.1175 0.99936 0.0
N1998 N 0.02443 0.11495 0.02729 0.0
N1999 N 0.09872 0.12853 0.96044 0.0
H2000 H 0.11809 0.10178 0.01785 0.0
H2001 H 0.12907 0.1154 0.99343 0.0
H2002 H 0.09453 0.13644 0.94516 0.0
H2003 H 0.1156 0.1191 0.9595 0.0
H2004 H 1.00471 0.1173 0.02432 0.0
H2005 H 0.02784 0.10499 0.04142 0.0
H2006 H 1.00197 0.14737 1.00542 0.0
H2007 H 0.0108 0.15652 0.97843 0.0
C2008 C 0.39056 0.30035 0.28635 0.0
C2009 C 0.36757 0.28287 0.28378 0.0
C2010 C 0.38295 0.2619 0.24613 0.0
C2011 C 0.4047 0.28082 0.24768 0.0
N2012 N 0.42686 0.32051 0.26726 0.0
N2013 N 0.33986 0.24925 0.25964 0.0
C2014 C 0.40783 0.30074 0.26725 0.0
C2015 C 0.36321 0.26424 0.26321 0.0
N2016 N 0.39639 0.31604 0.30741 0.0
N2017 N 0.38162 0.24123 0.2288 0.0
H2018 H 0.3251 0.25025 0.27182 0.0
H2019 H 0.33423 0.23728 0.24384 0.0
H2020 H 0.39558 0.23889 0.21596 0.0
H2021 H 0.36793 0.22542 0.22826 0.0
H2022 H 0.41421 0.32722 0.31135 0.0
H2023 H 0.38439 0.31623 0.32185 0.0
H2024 H 0.42834 0.33697 0.27966 0.0
H2025 H 0.43983 0.32151 0.25361 0.0
C2026 C 0.57333 0.39582 0.05251 0.0
C2027 C 0.5534 0.39947 0.03572 0.0
C2028 C 0.52059 0.37557 0.05681 0.0
C2029 C 0.54065 0.37134 0.07328 0.0
N2030 N 0.58456 0.38243 0.0904 0.0
N2031 N 0.50751 0.39864 0.02511 0.0
C2032 C 0.56655 0.38318 0.07229 0.0
C2033 C 0.52679 0.39135 0.03909 0.0
N2034 N 0.59892 0.40342 0.04886 0.0
N2035 N 0.49597 0.36333 0.05723 0.0
H2036 H 0.51163 0.41007 0.01201 0.0
H2037 H 0.48756 0.39542 0.02787 0.0
H2038 H 0.49058 0.35189 0.07002 0.0
H2039 H 0.48128 0.36314 0.04408 0.0
H2040 H 0.6148 0.39861 0.05858 0.0
H2041 H 0.60432 0.41373 0.03523 0.0
H2042 H 0.60309 0.39255 0.092 0.0
H2043 H 0.58013 0.37332 0.10504 0.0
C2044 C 0.67546 0.26006 0.25569 0.0
C2045 C 0.6885 0.23886 0.2462 0.0
C2046 C 0.65272 0.2259 0.21579 0.0
C2047 C 0.63919 0.2466 0.22571 0.0
N2048 N 0.63474 0.27994 0.25817 0.0
N2049 N 0.68665 0.19825 0.22136 0.0
C2050 C 0.64966 0.26261 0.24667 0.0
C2051 C 0.67608 0.22066 0.22761 0.0
N2052 N 0.68817 0.27835 0.27255 0.0
N2053 N 0.64411 0.21207 0.19437 0.0
H2054 H 0.70366 0.19382 0.22981 0.0
H2055 H 0.67723 0.18314 0.20955 0.0
H2056 H 0.62738 0.21549 0.18485 0.0
H2057 H 0.6548 0.19865 0.185 0.0
H2058 H 0.68102 0.29572 0.27812 0.0
H2059 H 0.70678 0.27686 0.27993 0.0
H2060 H 0.64016 0.29043 0.27476 0.0
H2061 H 0.61577 0.2822 0.2521 0.0
C2062 C 0.48607 0.10338 0.04681 0.0
C2063 C 0.46659 0.10385 0.02856 0.0
C2064 C 0.46123 0.14834 0.04408 0.0
C2065 C 0.47916 0.14722 0.06341 0.0
N2066 N 0.50601 0.12285 0.08524 0.0
N2067 N 0.43256 0.12518 0.01178 0.0
C2068 C 0.49089 0.12449 0.06534 0.0
C2069 C 0.45333 0.12592 0.02772 0.0
N2070 N 0.50043 0.083 0.04608 0.0
N2071 N 0.45231 0.17105 0.041 0.0
H2072 H 0.42625 0.10921 0.99941 0.0
H2073 H 0.42021 0.13959 0.01202 0.0
H2074 H 0.45738 0.18779 0.05275 0.0
H2075 H 0.44159 0.17381 0.02586 0.0
H2076 H 0.51681 0.08258 0.05731 0.0
H2077 H 0.49721 0.06713 0.03295 0.0
H2078 H 0.51278 0.10602 0.08901 0.0
H2079 H 0.51017 0.13798 0.09902 0.0
C2080 C 0.33887 0.34534 0.72017 0.0
C2081 C 0.31618 0.33765 0.73214 0.0
C2082 C 0.32214 0.37851 0.75847 0.0
C2083 C 0.34141 0.38784 0.74373 0.0
N2084 N 0.36893 0.37984 0.71046 0.0
N2085 N 0.30622 0.34057 0.77347 0.0
C2086 C 0.35008 0.37114 0.72456 0.0
C2087 C 0.31263 0.35235 0.75444 0.0
N2088 N 0.35194 0.32725 0.70744 0.0
N2089 N 0.31314 0.39441 0.77665 0.0
H2090 H 0.30774 0.32116 0.77308 0.0
H2091 H 0.30504 0.3504 0.79053 0.0
H2092 H 0.31976 0.41372 0.78038 0.0
H2093 H 0.29754 0.38862 0.7866 0.0
H2094 H 0.36995 0.33116 0.7001 0.0
H2095 H 0.34641 0.30787 0.70712 0.0
H2096 H 0.37376 0.36933 0.69464 0.0
H2097 H 0.37847 0.39823 0.71368 0.0
C2098 C 0.29318 0.64703 0.79311 0.0
C2099 C 0.29292 0.66122 0.8162 0.0
C2100 C 0.32492 0.63387 0.82978 0.0
C2101 C 0.32978 0.62478 0.80571 0.0
N2102 N 0.31911 0.62491 0.764 0.0
N2103 N 0.29302 0.65124 0.85611 0.0
C2104 C 0.31403 0.63196 0.78726 0.0
C2105 C 0.30467 0.65029 0.83486 0.0
N2106 N 0.2714 0.64432 0.77813 0.0
N2107 N 0.33915 0.62654 0.8479 0.0
H2108 H 0.27453 0.65768 0.8583 0.0
H2109 H 0.29917 0.64189 0.86987 0.0
H2110 H 0.35256 0.61303 0.8452 0.0
H2111 H 0.33861 0.63501 0.86551 0.0
H2112 H 0.26972 0.63228 0.76191 0.0
H2113 H 0.25385 0.65119 0.78364 0.0
H2114 H 0.30926 0.63159 0.75015 0.0
H2115 H 0.33471 0.61455 0.75875 0.0
C2116 C 0.88558 0.52355 0.49526 0.0
C2117 C 0.91232 0.52167 0.50152 0.0
C2118 C 0.8998 0.4819 0.51727 0.0
C2119 C 0.87342 0.48266 0.50908 0.0
N2120 N 0.84146 0.50225 0.48764 0.0
N2121 N 0.94565 0.4981 0.51616 0.0
C2122 C 0.86636 0.503 0.4974 0.0
C2123 C 0.91965 0.50059 0.51197 0.0
N2124 N 0.87847 0.54531 0.48782 0.0
N2125 N 0.90572 0.4636 0.53057 0.0
H2126 H 0.96062 0.51168 0.51298 0.0
H2127 H 0.95256 0.48186 0.52124 0.0
H2128 H 0.89176 0.44942 0.53445 0.0
H2129 H 0.92392 0.46347 0.53924 0.0
H2130 H 0.85906 0.54909 0.48551 0.0
H2131 H 0.89199 0.56063 0.48575 0.0
H2132 H 0.83586 0.51487 0.47651 0.0
H2133 H 0.82672 0.48779 0.4892 0.0
C2134 C 0.76808 0.89141 0.78671 0.0
C2135 C 0.75822 0.87567 0.80315 0.0
C2136 C 0.71484 0.8912 0.79933 0.0
C2137 C 0.72468 0.90712 0.78295 0.0
N2138 N 0.7584 0.91763 0.75652 0.0
N2139 N 0.72102 0.85529 0.82008 0.0
C2140 C 0.75061 0.90563 0.77515 0.0
C2141 C 0.73111 0.87376 0.80765 0.0
N2142 N 0.79435 0.89373 0.78302 0.0
N2143 N 0.69063 0.89385 0.80817 0.0
H2144 H 0.73257 0.84231 0.82634 0.0
H2145 H 0.70102 0.85123 0.82213 0.0
H2146 H 0.67814 0.90651 0.80281 0.0
H2147 H 0.68367 0.88494 0.82218 0.0
H2148 H 0.80336 0.90721 0.77358 0.0
H2149 H 0.80746 0.88296 0.79053 0.0
H2150 H 0.77615 0.91544 0.7485 0.0
H2151 H 0.74599 0.92801 0.74765 0.0
C2152 C 0.64778 0.5132 0.96058 0.0
C2153 C 0.62728 0.51618 0.9766 0.0
C2154 C 0.65415 0.55218 1.00042 0.0
C2155 C 0.67337 0.55092 0.98297 0.0
N2156 N 0.68717 0.53225 0.94493 0.0
N2157 N 0.60948 0.53992 0.01046 0.0
C2158 C 0.66989 0.53187 0.96268 0.0
C2159 C 0.63012 0.53601 0.99625 0.0
N2160 N 0.64629 0.4922 0.94358 0.0
N2161 N 0.65919 0.56843 0.02125 0.0
H2162 H 0.59188 0.5281 0.0083 0.0
H2163 H 0.60908 0.55578 0.02333 0.0
H2164 H 0.67647 0.5806 0.02486 0.0
H2165 H 0.64733 0.56842 0.03573 0.0
H2166 H 0.66173 0.48745 0.93296 0.0
H2167 H 0.63036 0.47824 0.94145 0.0
H2168 H 0.68417 0.52075 0.9285 0.0
H2169 H 0.70363 0.54551 0.94583 0.0
C2170 C 0.27968 0.6462 0.22714 0.0
C2171 C 0.28098 0.66782 0.24496 0.0
C2172 C 0.24495 0.6474 0.26521 0.0
C2173 C 0.2427 0.62635 0.24673 0.0
N2174 N 0.25554 0.60641 0.20881 0.0
N2175 N 0.26324 0.69076 0.27938 0.0
C2176 C 0.25941 0.62596 0.22729 0.0
C2177 C 0.26312 0.66891 0.26355 0.0
N2178 N 0.29825 0.64483 0.21045 0.0
N2179 N 0.23007 0.64654 0.28465 0.0
H2180 H 0.27678 0.70661 0.27931 0.0
H2181 H 0.24888 0.69399 0.29163 0.0
H2182 H 0.21583 0.6316 0.28611 0.0
H2183 H 0.23288 0.65973 0.30006 0.0
H2184 H 0.30035 0.62857 0.19851 0.0
H2185 H 0.31277 0.65966 0.20939 0.0
H2186 H 0.26499 0.60617 0.19291 0.0
H2187 H 0.24153 0.59088 0.20874 0.0
C2188 C 0.95559 0.56626 0.0395 0.0
C2189 C 0.94871 0.54572 0.05217 0.0
C2190 C 0.90353 0.55762 0.05387 0.0
C2191 C 0.90958 0.57572 0.03829 0.0
N2192 N 0.94078 0.59505 0.01373 0.0
N2193 N 0.91548 0.52008 0.06956 0.0
C2194 C 0.93553 0.57958 0.03054 0.0
C2195 C 0.92252 0.54102 0.05903 0.0
N2196 N 0.98145 0.57325 0.03632 0.0
N2197 N 0.87983 0.55673 0.0642 0.0
H2198 H 0.92885 0.50773 0.07393 0.0
H2199 H 0.8961 0.51395 0.07243 0.0
H2200 H 0.86557 0.56869 0.06099 0.0
H2201 H 0.87524 0.54581 0.07755 0.0
H2202 H 0.98797 0.58959 0.02932 0.0
H2203 H 0.99664 0.56406 0.04287 0.0
H2204 H 0.95856 0.5964 1.00545 0.0
H2205 H 0.92662 0.60492 1.00647 0.0
C2206 C 0.13533 0.99184 0.08738 0.0
C2207 C 0.11358 0.99457 0.07206 0.0
C2208 C 0.13009 0.96414 0.04079 0.0
C2209 C 0.15057 0.95987 0.05682 0.0
N2210 N 0.16933 0.96576 0.09692 0.0
N2211 N 0.08769 0.98002 0.03567 0.0
C2212 C 0.15217 0.97259 0.08059 0.0
C2213 C 0.11022 0.97973 0.04917 0.0
N2214 N 0.14065 0.00839 0.10799 0.0
N2215 N 0.13017 0.95409 0.01733 0.0
H2216 H 0.07273 0.99111 0.04125 0.0
H2217 H 0.08278 0.96767 0.01995 0.0
H2218 H 0.14435 0.94266 0.01052 0.0
H2219 H 0.11753 0.95878 1.00427 0.0
H2220 H 0.15779 0.00912 0.11856 0.0
H2221 H 0.12918 0.02306 0.11344 0.0
H2222 H 0.16944 0.97239 0.11505 0.0
H2223 H 0.18179 0.95159 0.09274 0.0
loop_
_geom_bond_atom_site_label_1
_geom_bond_atom_site_label_2
_geom_bond_distance
_geom_bond_site_symmetry_2
_ccdc_geom_bond_type
H0 C1 0.949 . S
C1 H0 0.949 . S
C1 C2 1.395 . S
C1 C3 1.391 . S
C2 C1 1.395 . S
C2 C5 1.390 . S
C3 C1 1.391 . S
C3 C7 1.387 . S
C3 C8 1.491 . S
H4 C5 0.950 1_565 S
C5 C2 1.390 . S
C5 H4 0.950 1_545 S
C5 C6 1.378 . S
C6 C5 1.378 . S
C6 C7 1.409 . S
C7 C3 1.387 . S
C7 C6 1.409 . S
C7 H9 0.951 . S
C8 C3 1.491 . S
C8 C10 1.382 . S
C8 C12 1.404 . S
H9 C7 0.951 . S
C10 C8 1.382 . S
C10 C11 1.390 1_554 S
C10 H15 0.949 . S
C11 C10 1.390 1_556 S
C11 C16 1.399 1_556 S
C12 C8 1.404 . S
C12 H13 0.950 . S
C12 C14 1.375 . S
H13 C12 0.950 . S
C14 C12 1.375 . S
C14 C16 1.382 . S
C14 H18 0.950 . S
H15 C10 0.949 . S
C16 C11 1.399 1_554 S
C16 C14 1.382 . S
C16 H17 0.952 . S
H17 C16 0.952 . S
H18 C14 0.950 . S
H19 C20 0.949 . S
C20 H19 0.949 . S
C20 C21 1.395 . S
C20 C22 1.391 . S
C21 C20 1.395 . S
C21 C24 1.390 . S
C22 C20 1.391 . S
C22 C26 1.387 . S
C22 C27 1.491 . S
H23 C24 0.950 . S
C24 C21 1.390 . S
C24 H23 0.950 . S
C24 C25 1.378 . S
C25 C24 1.378 . S
C25 C26 1.409 . S
C26 C22 1.387 . S
C26 C25 1.409 . S
C26 H28 0.951 . S
C27 C22 1.491 . S
C27 C29 1.382 . S
C27 C31 1.404 . S
H28 C26 0.951 . S
C29 C27 1.382 . S
C29 C30 1.390 . S
C29 H34 0.949 . S
C30 C29 1.390 . S
C30 C35 1.399 . S
C31 C27 1.404 . S
C31 H32 0.950 . S
C31 C33 1.375 . S
H32 C31 0.950 . S
C33 C31 1.375 . S
C33 C35 1.382 . S
C33 H37 0.950 . S
H34 C29 0.949 . S
C35 C30 1.399 . S
C35 C33 1.382 . S
C35 H36 0.952 . S
H36 C35 0.952 . S
H37 C33 0.950 . S
H38 C39 0.949 . S
C39 H38 0.949 . S
C39 C40 1.395 . S
C39 C41 1.391 1_455 S
C40 C39 1.395 . S
C40 C43 1.390 1_455 S
C41 C39 1.391 1_655 S
C41 C45 1.387 . S
C41 C46 1.487 1_654 S
H42 C43 0.950 . S
C43 C40 1.390 1_655 S
C43 H42 0.950 . S
C43 C44 1.378 . S
C44 C43 1.378 . S
C44 C45 1.409 . S
C45 C41 1.387 . S
C45 C44 1.409 . S
C45 H47 0.951 1_554 S
C46 C41 1.487 1_456 S
C46 C48 1.387 . S
C46 C50 1.404 . S
H47 C45 0.951 1_556 S
C48 C46 1.387 . S
C48 C49 1.390 . S
C48 H53 0.949 1_556 S
C49 C48 1.390 . S
C49 C54 1.399 . S
C50 C46 1.404 . S
C50 H51 0.947 1_455 S
C50 C52 1.378 . S
H51 C50 0.947 1_655 S
C52 C50 1.378 . S
C52 C54 1.382 . S
C52 H56 0.950 . S
H53 C48 0.949 1_554 S
C54 C49 1.399 . S
C54 C52 1.382 . S
C54 H55 0.952 . S
H55 C54 0.952 . S
H56 C52 0.950 . S
H57 C58 0.949 . S
C58 H57 0.949 . S
C58 C59 1.395 . S
C58 C60 1.391 . S
C59 C58 1.395 . S
C59 C62 1.390 . S
C60 C58 1.391 . S
C60 C64 1.387 . S
C60 C65 1.491 . S
H61 C62 0.950 . S
C62 C59 1.390 . S
C62 H61 0.950 . S
C62 C63 1.378 . S
C63 C62 1.378 . S
C63 C64 1.409 . S
C64 C60 1.387 . S
C64 C63 1.409 . S
C64 H66 0.951 . S
C65 C60 1.491 . S
C65 C67 1.382 . S
C65 C69 1.404 . S
H66 C64 0.951 . S
C67 C65 1.382 . S
C67 C68 1.390 . S
C67 H72 0.949 . S
C68 C67 1.390 . S
C68 C73 1.399 . S
C69 C65 1.404 . S
C69 H70 0.950 . S
C69 C71 1.375 . S
H70 C69 0.950 . S
C71 C69 1.375 . S
C71 C73 1.382 . S
C71 H75 0.950 . S
H72 C67 0.949 . S
C73 C68 1.399 . S
C73 C71 1.382 . S
C73 H74 0.952 . S
H74 C73 0.952 . S
H75 C71 0.950 . S
H76 C77 0.949 . S
C77 H76 0.949 . S
C77 C78 1.395 . S
C77 C79 1.391 . S
C78 C77 1.395 . S
C78 C81 1.382 1_565 S
C79 C77 1.391 . S
C79 C83 1.387 . S
C79 C84 1.491 . S
H80 C81 0.967 . S
C81 C78 1.382 1_545 S
C81 H80 0.967 . S
C81 C82 1.370 1_545 S
C82 C81 1.370 1_565 S
C82 C83 1.409 . S
C83 C79 1.387 . S
C83 C82 1.409 . S
C83 H85 0.951 . S
C84 C79 1.491 . S
C84 C86 1.382 . S
C84 C88 1.404 . S
H85 C83 0.951 . S
C86 C84 1.382 . S
C86 C87 1.390 . S
C86 H91 0.949 . S
C87 C86 1.390 . S
C87 C92 1.399 . S
C88 C84 1.404 . S
C88 H89 0.950 . S
C88 C90 1.375 . S
H89 C88 0.950 . S
C90 C88 1.375 . S
C90 C92 1.382 . S
C90 H94 0.950 . S
H91 C86 0.949 . S
C92 C87 1.399 . S
C92 C90 1.382 . S
C92 H93 0.952 . S
H93 C92 0.952 . S
H94 C90 0.950 . S
H95 C96 0.949 . S
C96 H95 0.949 . S
C96 C97 1.395 . S
C96 C98 1.391 . S
C97 C96 1.395 . S
C97 C100 1.390 . S
C98 C96 1.391 . S
C98 C102 1.387 . S
C98 C103 1.491 . S
H99 C100 0.950 . S
C100 C97 1.390 . S
C100 H99 0.950 . S
C100 C101 1.378 . S
C101 C100 1.378 . S
C101 C102 1.409 . S
C102 C98 1.387 . S
C102 C101 1.409 . S
C102 H104 0.951 . S
C103 C98 1.491 . S
C103 C105 1.382 . S
C103 C107 1.404 . S
H104 C102 0.951 . S
C105 C103 1.382 . S
C105 C106 1.390 . S
C105 H110 0.949 . S
C106 C105 1.390 . S
C106 C111 1.399 . S
C107 C103 1.404 . S
C107 H108 0.950 . S
C107 C109 1.375 . S
H108 C107 0.950 . S
C109 C107 1.375 . S
C109 C111 1.382 . S
C109 H113 0.950 . S
H110 C105 0.949 . S
C111 C106 1.399 . S
C111 C109 1.382 . S
C111 H112 0.952 . S
H112 C111 0.952 . S
H113 C109 0.950 . S
H114 C115 0.949 . S
C115 H114 0.949 . S
C115 C116 1.395 . S
C115 C117 1.391 . S
C116 C115 1.395 . S
C116 C119 1.390 . S
C117 C115 1.391 . S
C117 C121 1.387 . S
C117 C122 1.491 . S
H118 C119 0.950 . S
C119 C116 1.390 . S
C119 H118 0.950 . S
C119 C120 1.378 . S
C120 C119 1.378 . S
C120 C121 1.409 . S
C121 C117 1.387 . S
C121 C120 1.409 . S
C121 H123 0.951 . S
C122 C117 1.491 . S
C122 C124 1.361 1_655 S
C122 C126 1.404 . S
H123 C121 0.951 . S
C124 C122 1.361 1_455 S
C124 C125 1.397 . S
C124 H129 0.963 . S
C125 C124 1.397 . S
C125 C130 1.399 1_455 S
C126 C122 1.404 . S
C126 H127 0.950 . S
C126 C128 1.375 . S
H127 C126 0.950 . S
C128 C126 1.375 . S
C128 C130 1.382 . S
C128 H132 0.950 . S
H129 C124 0.963 . S
C130 C125 1.399 1_655 S
C130 C128 1.382 . S
C130 H131 0.952 . S
H131 C130 0.952 . S
H132 C128 0.950 . S
H133 C134 0.949 . S
C134 H133 0.949 . S
C134 C135 1.395 . S
C134 C136 1.391 . S
C135 C134 1.395 . S
C135 C138 1.390 . S
C136 C134 1.391 . S
C136 C140 1.387 . S
C136 C141 1.491 . S
H137 C138 0.950 . S
C138 C135 1.390 . S
C138 H137 0.950 . S
C138 C139 1.378 . S
C139 C138 1.378 . S
C139 C140 1.409 . S
C140 C136 1.387 . S
C140 C139 1.409 . S
C140 H142 0.951 . S
C141 C136 1.491 . S
C141 C143 1.382 . S
C141 C145 1.404 . S
H142 C140 0.951 . S
C143 C141 1.382 . S
C143 C144 1.390 . S
C143 H148 0.949 . S
C144 C143 1.390 . S
C144 C149 1.399 . S
C145 C141 1.404 . S
C145 H146 0.950 . S
C145 C147 1.375 . S
H146 C145 0.950 . S
C147 C145 1.375 . S
C147 C149 1.382 . S
C147 H151 0.950 . S
H148 C143 0.949 . S
C149 C144 1.399 . S
C149 C147 1.382 . S
C149 H150 0.952 . S
H150 C149 0.952 . S
H151 C147 0.950 . S
H152 C153 0.949 . S
C153 H152 0.949 . S
C153 C154 1.395 . S
C153 C155 1.391 . S
C154 C153 1.395 . S
C154 C157 1.390 . S
C155 C153 1.391 . S
C155 C159 1.387 . S
C155 C160 1.491 . S
H156 C157 0.950 . S
C157 C154 1.390 . S
C157 H156 0.950 . S
C157 C158 1.378 . S
C158 C157 1.378 . S
C158 C159 1.409 . S
C159 C155 1.387 . S
C159 C158 1.409 . S
C159 H161 0.951 . S
C160 C155 1.491 . S
C160 C162 1.382 . S
C160 C164 1.404 . S
H161 C159 0.951 . S
C162 C160 1.382 . S
C162 C163 1.390 . S
C162 H167 0.949 . S
C163 C162 1.390 . S
C163 C168 1.399 . S
C164 C160 1.404 . S
C164 H165 0.950 . S
C164 C166 1.375 . S
H165 C164 0.950 . S
C166 C164 1.375 . S
C166 C168 1.382 . S
C166 H170 0.950 . S
H167 C162 0.949 . S
C168 C163 1.399 . S
C168 C166 1.382 . S
C168 H169 0.952 . S
H169 C168 0.952 . S
H170 C166 0.950 . S
H171 C172 0.949 . S
C172 H171 0.949 . S
C172 C173 1.395 . S
C172 C174 1.391 . S
C173 C172 1.395 . S
C173 C176 1.390 1_565 S
C174 C172 1.391 . S
C174 C178 1.387 . S
C174 C179 1.491 . S
H175 C176 0.950 . S
C176 C173 1.390 1_545 S
C176 H175 0.950 . S
C176 C177 1.378 . S
C177 C176 1.378 . S
C177 C178 1.409 1_545 S
C178 C174 1.387 . S
C178 C177 1.409 1_565 S
C178 H180 0.951 . S
C179 C174 1.491 . S
C179 C181 1.382 . S
C179 C183 1.404 . S
H180 C178 0.951 . S
C181 C179 1.382 . S
C181 C182 1.390 . S
C181 H186 0.949 . S
C182 C181 1.390 . S
C182 C187 1.399 . S
C183 C179 1.404 . S
C183 H184 0.950 . S
C183 C185 1.375 . S
H184 C183 0.950 . S
C185 C183 1.375 . S
C185 C187 1.382 . S
C185 H189 0.950 . S
H186 C181 0.949 . S
C187 C182 1.399 . S
C187 C185 1.382 . S
C187 H188 0.952 . S
H188 C187 0.952 . S
H189 C185 0.950 . S
H190 C191 0.949 . S
C191 H190 0.949 . S
C191 C192 1.395 . S
C191 C193 1.391 . S
C192 C191 1.395 . S
C192 C195 1.390 . S
C193 C191 1.391 . S
C193 C197 1.387 . S
C193 C198 1.491 . S
H194 C195 0.950 . S
C195 C192 1.390 . S
C195 H194 0.950 . S
C195 C196 1.378 . S
C196 C195 1.378 . S
C196 C197 1.409 . S
C197 C193 1.387 . S
C197 C196 1.409 . S
C197 H199 0.951 . S
C198 C193 1.491 . S
C198 C200 1.382 . S
C198 C202 1.404 . S
H199 C197 0.951 . S
C200 C198 1.382 . S
C200 C201 1.390 . S
C200 H205 0.949 . S
C201 C200 1.390 . S
C201 C206 1.399 . S
C202 C198 1.404 . S
C202 H203 0.950 . S
C202 C204 1.375 . S
H203 C202 0.950 . S
C204 C202 1.375 . S
C204 C206 1.382 . S
C204 H208 0.950 . S
H205 C200 0.949 . S
C206 C201 1.399 . S
C206 C204 1.382 . S
C206 H207 0.952 . S
H207 C206 0.952 . S
H208 C204 0.950 . S
H209 C210 0.949 . S
C210 H209 0.949 . S
C210 C211 1.395 . S
C210 C212 1.391 . S
C211 C210 1.395 . S
C211 C214 1.390 . S
C212 C210 1.391 . S
C212 C216 1.387 . S
C212 C217 1.491 . S
H213 C214 0.950 . S
C214 C211 1.390 . S
C214 H213 0.950 . S
C214 C215 1.378 . S
C215 C214 1.378 . S
C215 C216 1.409 . S
C216 C212 1.387 . S
C216 C215 1.409 . S
C216 H218 0.951 . S
C217 C212 1.491 . S
C217 C219 1.382 . S
C217 C221 1.404 . S
H218 C216 0.951 . S
C219 C217 1.382 . S
C219 C220 1.390 . S
C219 H224 0.949 . S
C220 C219 1.390 . S
C220 C225 1.399 . S
C221 C217 1.404 . S
C221 H222 0.950 . S
C221 C223 1.375 . S
H222 C221 0.950 . S
C223 C221 1.375 . S
C223 C225 1.382 . S
C223 H227 0.950 . S
H224 C219 0.949 . S
C225 C220 1.399 . S
C225 C223 1.382 . S
C225 H226 0.952 . S
H226 C225 0.952 . S
H227 C223 0.950 . S
H228 C229 0.949 . S
C229 H228 0.949 . S
C229 C230 1.395 . S
C229 C231 1.391 . S
C230 C229 1.395 . S
C230 C233 1.390 . S
C231 C229 1.391 . S
C231 C235 1.387 . S
C231 C236 1.491 . S
H232 C233 0.950 . S
C233 C230 1.390 . S
C233 H232 0.950 . S
C233 C234 1.378 . S
C234 C233 1.378 . S
C234 C235 1.409 . S
C235 C231 1.387 . S
C235 C234 1.409 . S
C235 H237 0.951 . S
C236 C231 1.491 . S
C236 C238 1.382 . S
C236 C240 1.404 . S
H237 C235 0.951 . S
C238 C236 1.382 . S
C238 C239 1.390 . S
C238 H243 0.949 . S
C239 C238 1.390 . S
C239 C244 1.399 . S
C240 C236 1.404 . S
C240 H241 0.950 . S
C240 C242 1.375 . S
H241 C240 0.950 . S
C242 C240 1.375 . S
C242 C244 1.382 . S
C242 H246 0.950 . S
H243 C238 0.949 . S
C244 C239 1.399 . S
C244 C242 1.382 . S
C244 H245 0.952 . S
H245 C244 0.952 . S
H246 C242 0.950 . S
H247 C248 0.923 1_554 S
C248 H247 0.923 1_556 S
C248 C249 1.412 . S
C248 C250 1.400 . S
C249 C248 1.412 . S
C249 C252 1.390 . S
C250 C248 1.400 . S
C250 C254 1.387 . S
C250 C255 1.491 . S
H251 C252 0.950 . S
C252 C249 1.390 . S
C252 H251 0.950 . S
C252 C253 1.378 . S
C253 C252 1.378 . S
C253 C254 1.409 . S
C254 C250 1.387 . S
C254 C253 1.409 . S
C254 H256 0.951 . S
C255 C250 1.491 . S
C255 C257 1.382 1_556 S
C255 C259 1.404 . S
H256 C254 0.951 . S
C257 C255 1.382 1_554 S
C257 C258 1.390 . S
C257 H262 0.949 . S
C258 C257 1.390 . S
C258 C263 1.399 . S
C259 C255 1.404 . S
C259 H260 0.950 . S
C259 C261 1.375 . S
H260 C259 0.950 . S
C261 C259 1.375 . S
C261 C263 1.382 1_556 S
C261 H265 0.950 . S
H262 C257 0.949 . S
C263 C258 1.399 . S
C263 C261 1.382 1_554 S
C263 H264 0.952 . S
H264 C263 0.952 . S
H265 C261 0.950 . S
H266 C267 0.949 . S
C267 H266 0.949 . S
C267 C268 1.395 . S
C267 C269 1.391 . S
C268 C267 1.395 . S
C268 C271 1.390 . S
C269 C267 1.391 . S
C269 C273 1.387 . S
C269 C274 1.491 . S
H270 C271 0.950 . S
C271 C268 1.390 . S
C271 H270 0.950 . S
C271 C272 1.378 . S
C272 C271 1.378 . S
C272 C273 1.409 . S
C273 C269 1.387 . S
C273 C272 1.409 . S
C273 H275 0.951 . S
C274 C269 1.491 . S
C274 C276 1.382 . S
C274 C278 1.404 . S
H275 C273 0.951 . S
C276 C274 1.382 . S
C276 C277 1.390 . S
C276 H281 0.949 . S
C277 C276 1.390 . S
C277 C282 1.399 . S
C278 C274 1.404 . S
C278 H279 0.950 . S
C278 C280 1.375 . S
H279 C278 0.950 . S
C280 C278 1.375 . S
C280 C282 1.382 . S
C280 H284 0.950 . S
H281 C276 0.949 . S
C282 C277 1.399 . S
C282 C280 1.382 . S
C282 H283 0.952 . S
H283 C282 0.952 . S
H284 C280 0.950 . S
H285 C286 0.949 . S
C286 H285 0.949 . S
C286 C287 1.395 . S
C286 C288 1.391 . S
C287 C286 1.395 . S
C287 C290 1.390 . S
C288 C286 1.391 . S
C288 C292 1.387 . S
C288 C293 1.491 . S
H289 C290 0.950 1_554 S
C290 C287 1.390 . S
C290 H289 0.950 1_556 S
C290 C291 1.378 . S
C291 C290 1.378 . S
C291 C292 1.409 . S
C292 C288 1.387 . S
C292 C291 1.409 . S
C292 H294 0.951 . S
C293 C288 1.491 . S
C293 C295 1.382 . S
C293 C297 1.404 . S
H294 C292 0.951 . S
C295 C293 1.382 . S
C295 C296 1.390 . S
C295 H300 0.949 . S
C296 C295 1.390 . S
C296 C301 1.399 . S
C297 C293 1.404 . S
C297 H298 0.950 . S
C297 C299 1.375 . S
H298 C297 0.950 . S
C299 C297 1.375 . S
C299 C301 1.382 . S
C299 H303 0.950 . S
H300 C295 0.949 . S
C301 C296 1.399 . S
C301 C299 1.382 . S
C301 H302 0.952 . S
H302 C301 0.952 . S
H303 C299 0.950 . S
Li304 N321 1.990 . S
Li304 O364 1.956 . S
Li304 O365 1.970 . S
Li304 O366 1.961 . S
Li305 N329 1.990 . S
Li305 O364 1.970 . S
Li305 O365 1.956 . S
Li305 O367 1.961 . S
Li306 N351 1.990 1_554 S
Li306 O364 1.961 . S
Li306 O366 1.956 . S
Li306 O367 1.970 . S
Li307 N357 1.990 . S
Li307 O365 1.961 . S
Li307 O366 1.970 . S
Li307 O367 1.956 . S
C308 C310 1.348 . S
C308 C311 1.356 . S
C308 O364 1.325 . S
N309 C312 1.314 . S
N309 C313 1.279 . S
C310 C308 1.348 . S
C310 C312 1.353 . S
C310 H368 0.929 . S
C311 C308 1.356 . S
C311 C313 1.358 . S
C311 H369 0.930 1_554 S
C312 N309 1.314 . S
C312 C310 1.353 . S
C312 H370 0.930 . S
C313 N309 1.279 . S
C313 C311 1.358 . S
C313 H371 0.930 1_554 S
C314 C317 1.348 . S
C314 C318 1.356 . S
C314 O365 1.325 . S
C315 N316 1.279 . S
C315 C318 1.358 . S
C315 H372 0.930 . S
N316 C315 1.279 . S
N316 C319 1.314 . S
C317 C314 1.348 . S
C317 C319 1.353 . S
C317 H373 0.929 . S
C318 C314 1.356 . S
C318 C315 1.358 . S
C318 H374 0.930 . S
C319 N316 1.314 . S
C319 C317 1.353 . S
C319 H375 0.930 . S
C320 N321 1.314 . S
C320 C325 1.353 . S
C320 H326 0.930 . S
N321 Li304 1.990 . S
N321 C320 1.314 . S
N321 C323 1.279 . S
C322 C323 1.358 . S
C322 C324 1.356 . S
C322 H376 0.930 . S
C323 N321 1.279 . S
C323 C322 1.358 . S
C323 H327 0.930 . S
C324 C322 1.356 . S
C324 C325 1.348 . S
C325 C320 1.353 . S
C325 C324 1.348 . S
C325 H377 0.929 . S
H326 C320 0.930 . S
H327 C323 0.930 . S
C328 N329 1.314 . S
C328 C330 1.353 . S
C328 H334 0.930 . S
N329 Li305 1.990 . S
N329 C328 1.314 . S
N329 C332 1.279 . S
C330 C328 1.353 . S
C330 C333 1.348 . S
C330 H378 0.929 . S
C331 C332 1.358 . S
C331 C333 1.356 . S
C331 H379 0.930 . S
C332 N329 1.279 . S
C332 C331 1.358 . S
C332 H335 0.930 . S
C333 C330 1.348 . S
C333 C331 1.356 . S
H334 C328 0.930 . S
H335 C332 0.930 . S
C336 C338 1.348 . S
C336 C339 1.356 . S
C336 O366 1.325 1_556 S
N337 C340 1.314 . S
N337 C341 1.279 . S
C338 C336 1.348 . S
C338 C340 1.353 . S
C338 H380 0.929 . S
C339 C336 1.356 . S
C339 C341 1.358 . S
C339 H381 0.930 . S
C340 N337 1.314 . S
C340 C338 1.353 . S
C340 H382 0.930 . S
C341 N337 1.279 . S
C341 C339 1.358 . S
C341 H383 0.930 . S
C342 C343 1.348 . S
C342 C344 1.356 . S
C342 O367 1.325 . S
C343 C342 1.348 . S
C343 C345 1.353 . S
C343 H384 0.929 . S
C344 C342 1.356 . S
C344 C346 1.358 . S
C344 H385 0.930 . S
C345 C343 1.353 . S
C345 N347 1.314 . S
C345 H386 0.930 . S
C346 C344 1.358 . S
C346 N347 1.279 . S
C346 H387 0.930 . S
N347 C345 1.314 . S
N347 C346 1.279 . S
C348 C350 1.353 . S
C348 N351 1.314 . S
C348 H354 0.930 . S
C349 N351 1.279 . S
C349 C352 1.358 . S
C349 H355 0.930 . S
C350 C348 1.353 . S
C350 C353 1.348 . S
C350 H388 0.929 . S
N351 Li306 1.990 1_556 S
N351 C348 1.314 . S
N351 C349 1.279 . S
C352 C349 1.358 . S
C352 C353 1.356 . S
C352 H389 0.930 . S
C353 C350 1.348 . S
C353 C352 1.356 . S
H354 C348 0.930 . S
H355 C349 0.930 . S
C356 N357 1.314 . S
C356 C358 1.353 . S
C356 H362 0.930 . S
N357 Li307 1.990 . S
N357 C356 1.314 . S
N357 C360 1.279 . S
C358 C356 1.353 . S
C358 C361 1.348 . S
C358 H390 0.929 . S
C359 C360 1.358 . S
C359 C361 1.356 . S
C359 H391 0.930 . S
C360 N357 1.279 . S
C360 C359 1.358 . S
C360 H363 0.930 . S
C361 C358 1.348 . S
C361 C359 1.356 . S
H362 C356 0.930 . S
H363 C360 0.930 . S
O364 Li304 1.956 . S
O364 Li305 1.970 . S
O364 Li306 1.961 . S
O364 C308 1.325 . S
O365 Li304 1.970 . S
O365 Li305 1.956 . S
O365 Li307 1.961 . S
O365 C314 1.325 . S
O366 Li304 1.961 . S
O366 Li306 1.956 . S
O366 Li307 1.970 . S
O366 C336 1.325 1_554 S
O367 Li305 1.961 . S
O367 Li306 1.970 . S
O367 Li307 1.956 . S
O367 C342 1.325 . S
H368 C310 0.929 . S
H369 C311 0.930 1_556 S
H370 C312 0.930 . S
H371 C313 0.930 1_556 S
H372 C315 0.930 . S
H373 C317 0.929 . S
H374 C318 0.930 . S
H375 C319 0.930 . S
H376 C322 0.930 . S
H377 C325 0.929 . S
H378 C330 0.929 . S
H379 C331 0.930 . S
H380 C338 0.929 . S
H381 C339 0.930 . S
H382 C340 0.930 . S
H383 C341 0.930 . S
H384 C343 0.929 . S
H385 C344 0.930 . S
H386 C345 0.930 . S
H387 C346 0.930 . S
H388 C350 0.929 . S
H389 C352 0.930 . S
H390 C358 0.929 . S
H391 C359 0.930 . S
Li392 N409 1.990 . S
Li392 O452 1.956 . S
Li392 O453 1.970 . S
Li392 O454 1.961 . S
Li393 N417 1.990 . S
Li393 O452 1.970 . S
Li393 O453 1.956 . S
Li393 O455 1.961 . S
Li394 N439 1.990 . S
Li394 O452 1.961 . S
Li394 O454 1.956 . S
Li394 O455 1.970 . S
Li395 N445 1.990 . S
Li395 O453 1.961 . S
Li395 O454 1.970 . S
Li395 O455 1.956 . S
C396 C398 1.348 . S
C396 C399 1.356 . S
C396 O452 1.325 . S
N397 C400 1.314 . S
N397 C401 1.279 . S
C398 C396 1.348 . S
C398 C400 1.353 . S
C398 H456 0.929 . S
C399 C396 1.356 . S
C399 C401 1.358 . S
C399 H457 0.930 . S
C400 N397 1.314 . S
C400 C398 1.353 . S
C400 H458 0.930 . S
C401 N397 1.279 . S
C401 C399 1.358 . S
C401 H459 0.930 . S
C402 C405 1.348 . S
C402 C406 1.356 . S
C402 O453 1.325 . S
C403 N404 1.279 . S
C403 C406 1.358 . S
C403 H460 0.930 . S
N404 C403 1.279 . S
N404 C407 1.314 . S
C405 C402 1.348 . S
C405 C407 1.353 . S
C405 H461 0.929 . S
C406 C402 1.356 . S
C406 C403 1.358 . S
C406 H462 0.930 . S
C407 N404 1.314 . S
C407 C405 1.353 . S
C407 H463 0.930 . S
C408 N409 1.314 . S
C408 C413 1.353 . S
C408 H414 0.930 . S
N409 Li392 1.990 . S
N409 C408 1.314 . S
N409 C411 1.279 . S
C410 C411 1.358 . S
C410 C412 1.356 . S
C410 H464 0.930 . S
C411 N409 1.279 . S
C411 C410 1.358 . S
C411 H415 0.930 . S
C412 C410 1.356 . S
C412 C413 1.348 . S
C413 C408 1.353 . S
C413 C412 1.348 . S
C413 H465 0.929 . S
H414 C408 0.930 . S
H415 C411 0.930 . S
C416 N417 1.314 . S
C416 C418 1.353 . S
C416 H422 0.930 . S
N417 Li393 1.990 . S
N417 C416 1.314 . S
N417 C420 1.279 . S
C418 C416 1.353 . S
C418 C421 1.348 . S
C418 H466 0.929 . S
C419 C420 1.358 . S
C419 C421 1.356 . S
C419 H467 0.930 . S
C420 N417 1.279 . S
C420 C419 1.358 . S
C420 H423 0.930 . S
C421 C418 1.348 . S
C421 C419 1.356 . S
H422 C416 0.930 . S
H423 C420 0.930 . S
C424 C426 1.348 . S
C424 C427 1.356 . S
C424 O454 1.325 . S
N425 C428 1.314 . S
N425 C429 1.279 . S
C426 C424 1.348 . S
C426 C428 1.353 . S
C426 H468 0.929 . S
C427 C424 1.356 . S
C427 C429 1.358 . S
C427 H469 0.930 . S
C428 N425 1.314 . S
C428 C426 1.353 . S
C428 H470 0.930 . S
C429 N425 1.279 . S
C429 C427 1.358 . S
C429 H471 0.930 . S
C430 C431 1.348 . S
C430 C432 1.356 . S
C430 O455 1.325 . S
C431 C430 1.348 . S
C431 C433 1.353 . S
C431 H472 0.929 . S
C432 C430 1.356 . S
C432 C434 1.358 . S
C432 H473 0.930 . S
C433 C431 1.353 . S
C433 N435 1.314 . S
C433 H474 0.930 . S
C434 C432 1.358 . S
C434 N435 1.279 . S
C434 H475 0.930 . S
N435 C433 1.314 . S
N435 C434 1.279 . S
C436 C438 1.353 . S
C436 N439 1.314 . S
C436 H442 0.930 . S
C437 N439 1.279 . S
C437 C440 1.358 . S
C437 H443 0.930 . S
C438 C436 1.353 . S
C438 C441 1.348 . S
C438 H476 0.929 . S
N439 Li394 1.990 . S
N439 C436 1.314 . S
N439 C437 1.279 . S
C440 C437 1.358 . S
C440 C441 1.356 . S
C440 H477 0.930 . S
C441 C438 1.348 . S
C441 C440 1.356 . S
H442 C436 0.930 . S
H443 C437 0.930 . S
C444 N445 1.314 . S
C444 C446 1.353 . S
C444 H450 0.930 . S
N445 Li395 1.990 . S
N445 C444 1.314 . S
N445 C448 1.279 . S
C446 C444 1.353 . S
C446 C449 1.348 . S
C446 H478 0.929 . S
C447 C448 1.358 . S
C447 C449 1.356 . S
C447 H479 0.930 . S
C448 N445 1.279 . S
C448 C447 1.358 . S
C448 H451 0.930 . S
C449 C446 1.348 . S
C449 C447 1.356 . S
H450 C444 0.930 . S
H451 C448 0.930 . S
O452 Li392 1.956 . S
O452 Li393 1.970 . S
O452 Li394 1.961 . S
O452 C396 1.325 . S
O453 Li392 1.970 . S
O453 Li393 1.956 . S
O453 Li395 1.961 . S
O453 C402 1.325 . S
O454 Li392 1.961 . S
O454 Li394 1.956 . S
O454 Li395 1.970 . S
O454 C424 1.325 . S
O455 Li393 1.961 . S
O455 Li394 1.970 . S
O455 Li395 1.956 . S
O455 C430 1.325 . S
H456 C398 0.929 . S
H457 C399 0.930 . S
H458 C400 0.930 . S
H459 C401 0.930 . S
H460 C403 0.930 . S
H461 C405 0.929 . S
H462 C406 0.930 . S
H463 C407 0.930 . S
H464 C410 0.930 . S
H465 C413 0.929 . S
H466 C418 0.929 . S
H467 C419 0.930 . S
H468 C426 0.929 . S
H469 C427 0.930 . S
H470 C428 0.930 . S
H471 C429 0.930 . S
H472 C431 0.929 . S
H473 C432 0.930 . S
H474 C433 0.930 . S
H475 C434 0.930 . S
H476 C438 0.929 . S
H477 C440 0.930 . S
H478 C446 0.929 . S
H479 C447 0.930 . S
Li480 N497 1.990 . S
Li480 O540 1.956 1_556 S
Li480 O541 1.970 1_556 S
Li480 O542 1.961 . S
Li481 N505 1.990 . S
Li481 O540 1.970 . S
Li481 O541 1.956 . S
Li481 O543 1.961 . S
Li482 N527 1.990 . S
Li482 O540 1.961 1_556 S
Li482 O542 1.956 . S
Li482 O543 1.970 1_556 S
Li483 N533 1.990 . S
Li483 O541 1.961 . S
Li483 O542 1.970 1_554 S
Li483 O543 1.956 . S
C484 C486 1.382 . S
C484 C487 1.320 1_554 S
C484 O540 1.329 . S
N485 C488 1.314 1_556 S
N485 C489 1.279 . S
C486 C484 1.382 . S
C486 C488 1.353 . S
C486 H544 0.929 . S
C487 C484 1.320 1_556 S
C487 C489 1.358 . S
C487 H545 0.930 . S
C488 N485 1.314 1_554 S
C488 C486 1.353 . S
C488 H546 0.930 . S
C489 N485 1.279 . S
C489 C487 1.358 . S
C489 H547 0.930 . S
C490 C493 1.348 . S
C490 C494 1.356 . S
C490 O541 1.325 . S
C491 N492 1.279 . S
C491 C494 1.358 . S
C491 H548 0.930 . S
N492 C491 1.279 . S
N492 C495 1.314 . S
C493 C490 1.348 . S
C493 C495 1.353 . S
C493 H549 0.929 . S
C494 C490 1.356 . S
C494 C491 1.358 . S
C494 H550 0.930 . S
C495 N492 1.314 . S
C495 C493 1.353 . S
C495 H551 0.930 . S
C496 N497 1.314 . S
C496 C501 1.353 . S
C496 H502 0.930 . S
N497 Li480 1.990 . S
N497 C496 1.314 . S
N497 C499 1.279 . S
C498 C499 1.358 . S
C498 C500 1.356 . S
C498 H552 0.930 . S
C499 N497 1.279 . S
C499 C498 1.358 . S
C499 H503 0.930 1_556 S
C500 C498 1.356 . S
C500 C501 1.348 . S
C501 C496 1.353 . S
C501 C500 1.348 . S
C501 H553 0.929 . S
H502 C496 0.930 . S
H503 C499 0.930 1_554 S
C504 N505 1.314 . S
C504 C506 1.353 . S
C504 H510 0.930 . S
N505 Li481 1.990 . S
N505 C504 1.314 . S
N505 C508 1.279 . S
C506 C504 1.353 . S
C506 C509 1.348 . S
C506 H554 0.929 . S
C507 C508 1.358 . S
C507 C509 1.356 . S
C507 H555 0.930 . S
C508 N505 1.279 . S
C508 C507 1.358 . S
C508 H511 0.930 . S
C509 C506 1.348 . S
C509 C507 1.356 . S
H510 C504 0.930 . S
H511 C508 0.930 . S
C512 C514 1.348 . S
C512 C515 1.356 . S
C512 O542 1.325 . S
N513 C516 1.314 . S
N513 C517 1.279 . S
C514 C512 1.348 . S
C514 C516 1.353 . S
C514 H556 0.929 . S
C515 C512 1.356 . S
C515 C517 1.358 . S
C515 H557 0.930 . S
C516 N513 1.314 . S
C516 C514 1.353 . S
C516 H558 0.930 . S
C517 N513 1.279 . S
C517 C515 1.358 . S
C517 H559 0.930 . S
C518 C519 1.348 1_554 S
C518 C520 1.356 . S
C518 O543 1.325 . S
C519 C518 1.348 1_556 S
C519 C521 1.353 . S
C519 H560 0.929 . S
C520 C518 1.356 . S
C520 C522 1.358 . S
C520 H561 0.930 . S
C521 C519 1.353 . S
C521 N523 1.314 1_556 S
C521 H562 0.930 . S
C522 C520 1.358 . S
C522 N523 1.279 . S
C522 H563 0.930 . S
N523 C521 1.314 1_554 S
N523 C522 1.279 . S
C524 C526 1.353 . S
C524 N527 1.314 . S
C524 H530 0.930 . S
C525 N527 1.279 . S
C525 C528 1.358 . S
C525 H531 0.930 . S
C526 C524 1.353 . S
C526 C529 1.348 . S
C526 H564 0.929 . S
N527 Li482 1.990 . S
N527 C524 1.314 . S
N527 C525 1.279 . S
C528 C525 1.358 . S
C528 C529 1.356 . S
C528 H565 0.930 . S
C529 C526 1.348 . S
C529 C528 1.356 . S
H530 C524 0.930 . S
H531 C525 0.930 . S
C532 N533 1.314 . S
C532 C534 1.353 . S
C532 H538 0.930 . S
N533 Li483 1.990 . S
N533 C532 1.314 . S
N533 C536 1.279 . S
C534 C532 1.353 . S
C534 C537 1.348 . S
C534 H566 0.929 . S
C535 C536 1.358 . S
C535 C537 1.356 . S
C535 H567 0.931 1_554 S
C536 N533 1.279 . S
C536 C535 1.358 . S
C536 H539 0.925 1_554 S
C537 C534 1.348 . S
C537 C535 1.356 . S
H538 C532 0.930 . S
H539 C536 0.925 1_556 S
O540 Li480 1.956 1_554 S
O540 Li481 1.970 . S
O540 Li482 1.961 1_554 S
O540 C484 1.329 . S
O541 Li480 1.970 1_554 S
O541 Li481 1.956 . S
O541 Li483 1.961 . S
O541 C490 1.325 . S
O542 Li480 1.961 . S
O542 Li482 1.956 . S
O542 Li483 1.970 1_556 S
O542 C512 1.325 . S
O543 Li481 1.961 . S
O543 Li482 1.970 1_554 S
O543 Li483 1.956 . S
O543 C518 1.325 . S
H544 C486 0.929 . S
H545 C487 0.930 . S
H546 C488 0.930 . S
H547 C489 0.930 . S
H548 C491 0.930 . S
H549 C493 0.929 . S
H550 C494 0.930 . S
H551 C495 0.930 . S
H552 C498 0.930 . S
H553 C501 0.929 . S
H554 C506 0.929 . S
H555 C507 0.930 . S
H556 C514 0.929 . S
H557 C515 0.930 . S
H558 C516 0.930 . S
H559 C517 0.930 . S
H560 C519 0.929 . S
H561 C520 0.930 . S
H562 C521 0.930 . S
H563 C522 0.930 . S
H564 C526 0.929 . S
H565 C528 0.930 . S
H566 C534 0.929 . S
H567 C535 0.931 1_556 S
Li568 N585 1.990 . S
Li568 O628 1.956 . S
Li568 O629 1.970 . S
Li568 O630 1.961 . S
Li569 N593 1.990 . S
Li569 O628 1.970 . S
Li569 O629 1.956 . S
Li569 O631 1.961 1_545 S
Li570 N615 1.990 . S
Li570 O628 1.961 . S
Li570 O630 1.956 . S
Li570 O631 1.970 1_545 S
Li571 N621 1.990 . S
Li571 O629 1.961 1_565 S
Li571 O630 1.970 1_565 S
Li571 O631 1.956 . S
C572 C574 1.348 . S
C572 C575 1.356 . S
C572 O628 1.325 . S
N573 C576 1.314 1_455 S
N573 C577 1.279 1_455 S
C574 C572 1.348 . S
C574 C576 1.355 . S
C574 H632 0.929 . S
C575 C572 1.356 . S
C575 C577 1.358 . S
C575 H633 0.930 . S
C576 N573 1.314 1_655 S
C576 C574 1.355 . S
C576 H634 0.928 1_655 S
C577 N573 1.279 1_655 S
C577 C575 1.358 . S
C577 H635 0.930 . S
C578 C581 1.348 . S
C578 C582 1.356 1_545 S
C578 O629 1.325 . S
C579 N580 1.279 1_565 S
C579 C582 1.358 . S
C579 H636 0.930 . S
N580 C579 1.279 1_545 S
N580 C583 1.314 . S
C581 C578 1.348 . S
C581 C583 1.353 . S
C581 H637 0.929 . S
C582 C578 1.356 1_565 S
C582 C579 1.358 . S
C582 H638 0.930 . S
C583 N580 1.314 . S
C583 C581 1.353 . S
C583 H639 0.930 . S
C584 N585 1.314 . S
C584 C589 1.353 . S
C584 H590 0.930 . S
N585 Li568 1.990 . S
N585 C584 1.314 . S
N585 C587 1.279 . S
C586 C587 1.358 . S
C586 C588 1.356 . S
C586 H640 0.930 . S
C587 N585 1.279 . S
C587 C586 1.358 . S
C587 H591 0.930 . S
C588 C586 1.356 . S
C588 C589 1.348 . S
C589 C584 1.353 . S
C589 C588 1.348 . S
C589 H641 0.929 . S
H590 C584 0.930 . S
H591 C587 0.930 . S
C592 N593 1.314 1_455 S
C592 C594 1.353 . S
C592 H598 0.930 . S
N593 Li569 1.990 . S
N593 C592 1.314 1_655 S
N593 C596 1.279 . S
C594 C592 1.353 . S
C594 C597 1.348 . S
C594 H642 0.929 . S
C595 C596 1.358 . S
C595 C597 1.356 1_655 S
C595 H643 0.930 . S
C596 N593 1.279 . S
C596 C595 1.358 . S
C596 H599 0.930 . S
C597 C594 1.348 . S
C597 C595 1.356 1_455 S
H598 C592 0.930 . S
H599 C596 0.930 . S
C600 C602 1.348 1_545 S
C600 C603 1.356 . S
C600 O630 1.325 . S
N601 C604 1.301 1_545 S
N601 C605 1.279 . S
C602 C600 1.348 1_565 S
C602 C604 1.357 . S
C602 H644 0.929 . S
C603 C600 1.356 . S
C603 C605 1.358 . S
C603 H645 0.930 . S
C604 N601 1.301 1_565 S
C604 C602 1.357 . S
C604 H646 0.940 . S
C605 N601 1.279 . S
C605 C603 1.358 . S
C605 H647 0.930 . S
C606 C607 1.348 . S
C606 C608 1.356 . S
C606 O631 1.325 . S
C607 C606 1.348 . S
C607 C609 1.353 . S
C607 H648 0.929 . S
C608 C606 1.356 . S
C608 C610 1.358 . S
C608 H649 0.930 . S
C609 C607 1.353 . S
C609 N611 1.305 1_655 S
C609 H650 0.930 1_655 S
C610 C608 1.358 . S
C610 N611 1.257 1_655 S
C610 H651 0.930 . S
N611 C609 1.305 1_455 S
N611 C610 1.257 1_455 S
C612 C614 1.353 1_655 S
C612 N615 1.314 . S
C612 H618 0.930 1_655 S
C613 N615 1.279 . S
C613 C616 1.358 . S
C613 H619 0.930 . S
C614 C612 1.353 1_455 S
C614 C617 1.348 . S
C614 H652 0.929 . S
N615 Li570 1.990 . S
N615 C612 1.314 . S
N615 C613 1.279 . S
C616 C613 1.358 . S
C616 C617 1.356 1_655 S
C616 H653 0.930 . S
C617 C614 1.348 . S
C617 C616 1.356 1_455 S
H618 C612 0.930 1_455 S
H619 C613 0.930 . S
C620 N621 1.314 . S
C620 C622 1.353 . S
C620 H626 0.930 . S
N621 Li571 1.990 . S
N621 C620 1.314 . S
N621 C624 1.279 . S
C622 C620 1.353 . S
C622 C625 1.348 . S
C622 H654 0.929 . S
C623 C624 1.358 . S
C623 C625 1.356 . S
C623 H655 0.930 . S
C624 N621 1.279 . S
C624 C623 1.358 . S
C624 H627 0.930 . S
C625 C622 1.348 . S
C625 C623 1.356 . S
H626 C620 0.930 . S
H627 C624 0.930 . S
O628 Li568 1.956 . S
O628 Li569 1.970 . S
O628 Li570 1.961 . S
O628 C572 1.325 . S
O629 Li568 1.970 . S
O629 Li569 1.956 . S
O629 Li571 1.961 1_545 S
O629 C578 1.325 . S
O630 Li568 1.961 . S
O630 Li570 1.956 . S
O630 Li571 1.970 1_545 S
O630 C600 1.325 . S
O631 Li569 1.961 1_565 S
O631 Li570 1.970 1_565 S
O631 Li571 1.956 . S
O631 C606 1.325 . S
H632 C574 0.929 . S
H633 C575 0.930 . S
H634 C576 0.928 1_455 S
H635 C577 0.930 . S
H636 C579 0.930 . S
H637 C581 0.929 . S
H638 C582 0.930 . S
H639 C583 0.930 . S
H640 C586 0.930 . S
H641 C589 0.929 . S
H642 C594 0.929 . S
H643 C595 0.930 . S
H644 C602 0.929 . S
H645 C603 0.930 . S
H646 C604 0.940 . S
H647 C605 0.930 . S
H648 C607 0.929 . S
H649 C608 0.930 . S
H650 C609 0.930 1_455 S
H651 C610 0.930 . S
H652 C614 0.929 . S
H653 C616 0.930 . S
H654 C622 0.929 . S
H655 C623 0.930 . S
Li656 N673 1.990 . S
Li656 O716 1.956 . S
Li656 O717 1.970 . S
Li656 O718 1.961 . S
Li657 N681 1.990 . S
Li657 O716 1.970 . S
Li657 O717 1.956 . S
Li657 O719 1.961 . S
Li658 N703 1.990 . S
Li658 O716 1.961 . S
Li658 O718 1.956 . S
Li658 O719 1.970 . S
Li659 N709 1.990 . S
Li659 O717 1.961 . S
Li659 O718 1.970 . S
Li659 O719 1.956 . S
C660 C662 1.348 . S
C660 C663 1.356 . S
C660 O716 1.325 . S
N661 C664 1.314 . S
N661 C665 1.279 . S
C662 C660 1.348 . S
C662 C664 1.353 . S
C662 H720 0.929 . S
C663 C660 1.356 . S
C663 C665 1.358 . S
C663 H721 0.930 . S
C664 N661 1.314 . S
C664 C662 1.353 . S
C664 H722 0.930 . S
C665 N661 1.279 . S
C665 C663 1.358 . S
C665 H723 0.930 . S
C666 C669 1.348 . S
C666 C670 1.356 . S
C666 O717 1.325 . S
C667 N668 1.279 . S
C667 C670 1.358 . S
C667 H724 0.930 . S
N668 C667 1.279 . S
N668 C671 1.314 . S
C669 C666 1.348 . S
C669 C671 1.353 . S
C669 H725 0.929 . S
C670 C666 1.356 . S
C670 C667 1.358 . S
C670 H726 0.930 . S
C671 N668 1.314 . S
C671 C669 1.353 . S
C671 H727 0.930 . S
C672 N673 1.314 . S
C672 C677 1.353 . S
C672 H678 0.930 . S
N673 Li656 1.990 . S
N673 C672 1.314 . S
N673 C675 1.279 . S
C674 C675 1.358 . S
C674 C676 1.356 . S
C674 H728 0.930 . S
C675 N673 1.279 . S
C675 C674 1.358 . S
C675 H679 0.930 . S
C676 C674 1.356 . S
C676 C677 1.348 . S
C677 C672 1.353 . S
C677 C676 1.348 . S
C677 H729 0.929 . S
H678 C672 0.930 . S
H679 C675 0.930 . S
C680 N681 1.314 . S
C680 C682 1.353 . S
C680 H686 0.930 . S
N681 Li657 1.990 . S
N681 C680 1.314 . S
N681 C684 1.279 . S
C682 C680 1.353 . S
C682 C685 1.348 . S
C682 H730 0.929 . S
C683 C684 1.358 . S
C683 C685 1.356 . S
C683 H731 0.930 . S
C684 N681 1.279 . S
C684 C683 1.358 . S
C684 H687 0.930 . S
C685 C682 1.348 . S
C685 C683 1.356 . S
H686 C680 0.930 . S
H687 C684 0.930 . S
C688 C690 1.348 . S
C688 C691 1.356 . S
C688 O718 1.325 . S
N689 C692 1.314 . S
N689 C693 1.279 . S
C690 C688 1.348 . S
C690 C692 1.353 . S
C690 H732 0.929 . S
C691 C688 1.356 . S
C691 C693 1.358 . S
C691 H733 0.930 . S
C692 N689 1.314 . S
C692 C690 1.353 . S
C692 H734 0.930 . S
C693 N689 1.279 . S
C693 C691 1.358 . S
C693 H735 0.930 . S
C694 C695 1.348 . S
C694 C696 1.356 . S
C694 O719 1.325 . S
C695 C694 1.348 . S
C695 C697 1.353 . S
C695 H736 0.929 . S
C696 C694 1.356 . S
C696 C698 1.358 . S
C696 H737 0.930 . S
C697 C695 1.353 . S
C697 N699 1.314 . S
C697 H738 0.930 . S
C698 C696 1.358 . S
C698 N699 1.279 . S
C698 H739 0.930 . S
N699 C697 1.314 . S
N699 C698 1.279 . S
C700 C702 1.353 . S
C700 N703 1.314 . S
C700 H706 0.930 . S
C701 N703 1.279 . S
C701 C704 1.358 . S
C701 H707 0.930 . S
C702 C700 1.353 . S
C702 C705 1.348 . S
C702 H740 0.929 . S
N703 Li658 1.990 . S
N703 C700 1.314 . S
N703 C701 1.279 . S
C704 C701 1.358 . S
C704 C705 1.356 . S
C704 H741 0.930 . S
C705 C702 1.348 . S
C705 C704 1.356 . S
H706 C700 0.930 . S
H707 C701 0.930 . S
C708 N709 1.314 . S
C708 C710 1.353 . S
C708 H714 0.930 . S
N709 Li659 1.990 . S
N709 C708 1.314 . S
N709 C712 1.279 . S
C710 C708 1.353 . S
C710 C713 1.348 . S
C710 H742 0.929 . S
C711 C712 1.358 . S
C711 C713 1.356 . S
C711 H743 0.930 . S
C712 N709 1.279 . S
C712 C711 1.358 . S
C712 H715 0.930 . S
C713 C710 1.348 . S
C713 C711 1.356 . S
H714 C708 0.930 . S
H715 C712 0.930 . S
O716 Li656 1.956 . S
O716 Li657 1.970 . S
O716 Li658 1.961 . S
O716 C660 1.325 . S
O717 Li656 1.970 . S
O717 Li657 1.956 . S
O717 Li659 1.961 . S
O717 C666 1.325 . S
O718 Li656 1.961 . S
O718 Li658 1.956 . S
O718 Li659 1.970 . S
O718 C688 1.325 . S
O719 Li657 1.961 . S
O719 Li658 1.970 . S
O719 Li659 1.956 . S
O719 C694 1.325 . S
H720 C662 0.929 . S
H721 C663 0.930 . S
H722 C664 0.930 . S
H723 C665 0.930 . S
H724 C667 0.930 . S
H725 C669 0.929 . S
H726 C670 0.930 . S
H727 C671 0.930 . S
H728 C674 0.930 . S
H729 C677 0.929 . S
H730 C682 0.929 . S
H731 C683 0.930 . S
H732 C690 0.929 . S
H733 C691 0.930 . S
H734 C692 0.930 . S
H735 C693 0.930 . S
H736 C695 0.929 . S
H737 C696 0.930 . S
H738 C697 0.930 . S
H739 C698 0.930 . S
H740 C702 0.929 . S
H741 C704 0.930 . S
H742 C710 0.929 . S
H743 C711 0.930 . S
Li744 N761 1.990 . S
Li744 O804 1.956 . S
Li744 O805 1.970 . S
Li744 O806 1.961 . S
Li745 N769 1.990 . S
Li745 O804 1.970 . S
Li745 O805 1.956 . S
Li745 O807 1.961 . S
Li746 N791 1.990 . S
Li746 O804 1.961 . S
Li746 O806 1.956 . S
Li746 O807 1.970 . S
Li747 N797 1.990 . S
Li747 O805 1.961 . S
Li747 O806 1.970 . S
Li747 O807 1.956 . S
C748 C750 1.348 . S
C748 C751 1.356 . S
C748 O804 1.325 . S
N749 C752 1.314 . S
N749 C753 1.279 . S
C750 C748 1.348 . S
C750 C752 1.353 . S
C750 H808 0.929 . S
C751 C748 1.356 . S
C751 C753 1.358 . S
C751 H809 0.930 . S
C752 N749 1.314 . S
C752 C750 1.353 . S
C752 H810 0.930 . S
C753 N749 1.279 . S
C753 C751 1.358 . S
C753 H811 0.930 . S
C754 C757 1.348 . S
C754 C758 1.356 . S
C754 O805 1.325 . S
C755 N756 1.279 . S
C755 C758 1.358 . S
C755 H812 0.930 . S
N756 C755 1.279 . S
N756 C759 1.314 . S
C757 C754 1.348 . S
C757 C759 1.353 . S
C757 H813 0.929 . S
C758 C754 1.356 . S
C758 C755 1.358 . S
C758 H814 0.930 . S
C759 N756 1.314 . S
C759 C757 1.353 . S
C759 H815 0.930 . S
C760 N761 1.314 . S
C760 C765 1.353 . S
C760 H766 0.930 . S
N761 Li744 1.990 . S
N761 C760 1.314 . S
N761 C763 1.279 . S
C762 C763 1.358 . S
C762 C764 1.356 . S
C762 H816 0.930 . S
C763 N761 1.279 . S
C763 C762 1.358 . S
C763 H767 0.930 . S
C764 C762 1.356 . S
C764 C765 1.348 . S
C765 C760 1.353 . S
C765 C764 1.348 . S
C765 H817 0.929 . S
H766 C760 0.930 . S
H767 C763 0.930 . S
C768 N769 1.314 . S
C768 C770 1.353 . S
C768 H774 0.930 . S
N769 Li745 1.990 . S
N769 C768 1.314 . S
N769 C772 1.279 . S
C770 C768 1.353 . S
C770 C773 1.348 . S
C770 H818 0.929 . S
C771 C772 1.358 . S
C771 C773 1.356 . S
C771 H819 0.930 . S
C772 N769 1.279 . S
C772 C771 1.358 . S
C772 H775 0.930 . S
C773 C770 1.348 . S
C773 C771 1.356 . S
H774 C768 0.930 . S
H775 C772 0.930 . S
C776 C778 1.348 . S
C776 C779 1.356 . S
C776 O806 1.325 . S
N777 C780 1.314 . S
N777 C781 1.279 . S
C778 C776 1.348 . S
C778 C780 1.353 . S
C778 H820 0.929 . S
C779 C776 1.356 . S
C779 C781 1.358 . S
C779 H821 0.930 . S
C780 N777 1.314 . S
C780 C778 1.353 . S
C780 H822 0.930 . S
C781 N777 1.279 . S
C781 C779 1.358 . S
C781 H823 0.930 . S
C782 C783 1.348 . S
C782 C784 1.356 . S
C782 O807 1.325 . S
C783 C782 1.348 . S
C783 C785 1.353 . S
C783 H824 0.929 . S
C784 C782 1.356 . S
C784 C786 1.358 . S
C784 H825 0.930 . S
C785 C783 1.353 . S
C785 N787 1.314 . S
C785 H826 0.930 . S
C786 C784 1.358 . S
C786 N787 1.279 . S
C786 H827 0.930 . S
N787 C785 1.314 . S
N787 C786 1.279 . S
C788 C790 1.353 . S
C788 N791 1.314 . S
C788 H794 0.930 . S
C789 N791 1.279 . S
C789 C792 1.358 . S
C789 H795 0.930 . S
C790 C788 1.353 . S
C790 C793 1.348 . S
C790 H828 0.929 . S
N791 Li746 1.990 . S
N791 C788 1.314 . S
N791 C789 1.279 . S
C792 C789 1.358 . S
C792 C793 1.356 . S
C792 H829 0.930 . S
C793 C790 1.348 . S
C793 C792 1.356 . S
H794 C788 0.930 . S
H795 C789 0.930 . S
C796 N797 1.314 . S
C796 C798 1.353 . S
C796 H802 0.930 . S
N797 Li747 1.990 . S
N797 C796 1.314 . S
N797 C800 1.279 . S
C798 C796 1.353 . S
C798 C801 1.348 . S
C798 H830 0.929 . S
C799 C800 1.358 . S
C799 C801 1.356 . S
C799 H831 0.930 . S
C800 N797 1.279 . S
C800 C799 1.358 . S
C800 H803 0.930 . S
C801 C798 1.348 . S
C801 C799 1.356 . S
H802 C796 0.930 . S
H803 C800 0.930 . S
O804 Li744 1.956 . S
O804 Li745 1.970 . S
O804 Li746 1.961 . S
O804 C748 1.325 . S
O805 Li744 1.970 . S
O805 Li745 1.956 . S
O805 Li747 1.961 . S
O805 C754 1.325 . S
O806 Li744 1.961 . S
O806 Li746 1.956 . S
O806 Li747 1.970 . S
O806 C776 1.325 . S
O807 Li745 1.961 . S
O807 Li746 1.970 . S
O807 Li747 1.956 . S
O807 C782 1.325 . S
H808 C750 0.929 . S
H809 C751 0.930 . S
H810 C752 0.930 . S
H811 C753 0.930 . S
H812 C755 0.930 . S
H813 C757 0.929 . S
H814 C758 0.930 . S
H815 C759 0.930 . S
H816 C762 0.930 . S
H817 C765 0.929 . S
H818 C770 0.929 . S
H819 C771 0.930 . S
H820 C778 0.929 . S
H821 C779 0.930 . S
H822 C780 0.930 . S
H823 C781 0.930 . S
H824 C783 0.929 . S
H825 C784 0.930 . S
H826 C785 0.930 . S
H827 C786 0.930 . S
H828 C790 0.929 . S
H829 C792 0.930 . S
H830 C798 0.929 . S
H831 C799 0.930 . S
Li832 N849 1.990 . S
Li832 O892 1.956 . S
Li832 O893 1.970 . S
Li832 O894 1.961 . S
Li833 N857 1.990 . S
Li833 O892 1.970 . S
Li833 O893 1.956 . S
Li833 O895 1.961 . S
Li834 N879 1.990 . S
Li834 O892 1.961 . S
Li834 O894 1.956 . S
Li834 O895 1.970 . S
Li835 N885 1.990 . S
Li835 O893 1.961 . S
Li835 O894 1.970 . S
Li835 O895 1.956 . S
C836 C838 1.348 . S
C836 C839 1.356 . S
C836 O892 1.325 . S
N837 C840 1.314 . S
N837 C841 1.279 . S
C838 C836 1.348 . S
C838 C840 1.353 . S
C838 H896 0.929 . S
C839 C836 1.356 . S
C839 C841 1.358 . S
C839 H897 0.930 . S
C840 N837 1.314 . S
C840 C838 1.353 . S
C840 H898 0.930 . S
C841 N837 1.279 . S
C841 C839 1.358 . S
C841 H899 0.930 . S
C842 C845 1.348 . S
C842 C846 1.356 . S
C842 O893 1.325 . S
C843 N844 1.279 . S
C843 C846 1.358 . S
C843 H900 0.930 . S
N844 C843 1.279 . S
N844 C847 1.314 . S
C845 C842 1.348 . S
C845 C847 1.353 . S
C845 H901 0.929 . S
C846 C842 1.356 . S
C846 C843 1.358 . S
C846 H902 0.930 . S
C847 N844 1.314 . S
C847 C845 1.353 . S
C847 H903 0.930 . S
C848 N849 1.314 . S
C848 C853 1.353 . S
C848 H854 0.930 . S
N849 Li832 1.990 . S
N849 C848 1.314 . S
N849 C851 1.279 . S
C850 C851 1.358 . S
C850 C852 1.356 . S
C850 H904 0.930 . S
C851 N849 1.279 . S
C851 C850 1.358 . S
C851 H855 0.930 . S
C852 C850 1.356 . S
C852 C853 1.348 . S
C853 C848 1.353 . S
C853 C852 1.348 . S
C853 H905 0.929 . S
H854 C848 0.930 . S
H855 C851 0.930 . S
C856 N857 1.314 . S
C856 C858 1.353 . S
C856 H862 0.930 . S
N857 Li833 1.990 . S
N857 C856 1.314 . S
N857 C860 1.279 . S
C858 C856 1.353 . S
C858 C861 1.348 . S
C858 H906 0.929 . S
C859 C860 1.358 . S
C859 C861 1.356 . S
C859 H907 0.930 . S
C860 N857 1.279 . S
C860 C859 1.358 . S
C860 H863 0.930 . S
C861 C858 1.348 . S
C861 C859 1.356 . S
H862 C856 0.930 . S
H863 C860 0.930 . S
C864 C866 1.348 . S
C864 C867 1.356 . S
C864 O894 1.325 . S
N865 C868 1.314 . S
N865 C869 1.279 . S
C866 C864 1.348 . S
C866 C868 1.353 . S
C866 H908 0.929 . S
C867 C864 1.356 . S
C867 C869 1.358 . S
C867 H909 0.930 . S
C868 N865 1.314 . S
C868 C866 1.353 . S
C868 H910 0.930 . S
C869 N865 1.279 . S
C869 C867 1.358 . S
C869 H911 0.930 . S
C870 C871 1.348 . S
C870 C872 1.356 . S
C870 O895 1.325 . S
C871 C870 1.348 . S
C871 C873 1.353 . S
C871 H912 0.929 . S
C872 C870 1.356 . S
C872 C874 1.358 . S
C872 H913 0.930 . S
C873 C871 1.353 . S
C873 N875 1.314 . S
C873 H914 0.930 . S
C874 C872 1.358 . S
C874 N875 1.279 . S
C874 H915 0.930 . S
N875 C873 1.314 . S
N875 C874 1.279 . S
C876 C878 1.353 . S
C876 N879 1.314 . S
C876 H882 0.930 . S
C877 N879 1.279 . S
C877 C880 1.358 . S
C877 H883 0.930 . S
C878 C876 1.353 . S
C878 C881 1.348 . S
C878 H916 0.929 . S
N879 Li834 1.990 . S
N879 C876 1.314 . S
N879 C877 1.279 . S
C880 C877 1.358 . S
C880 C881 1.356 . S
C880 H917 0.930 . S
C881 C878 1.348 . S
C881 C880 1.356 . S
H882 C876 0.930 . S
H883 C877 0.930 . S
C884 N885 1.314 . S
C884 C886 1.353 . S
C884 H890 0.930 . S
N885 Li835 1.990 . S
N885 C884 1.314 . S
N885 C888 1.279 . S
C886 C884 1.353 . S
C886 C889 1.348 . S
C886 H918 0.929 . S
C887 C888 1.358 . S
C887 C889 1.356 . S
C887 H919 0.930 . S
C888 N885 1.279 . S
C888 C887 1.358 . S
C888 H891 0.930 . S
C889 C886 1.348 . S
C889 C887 1.356 . S
H890 C884 0.930 . S
H891 C888 0.930 . S
O892 Li832 1.956 . S
O892 Li833 1.970 . S
O892 Li834 1.961 . S
O892 C836 1.325 . S
O893 Li832 1.970 . S
O893 Li833 1.956 . S
O893 Li835 1.961 . S
O893 C842 1.325 . S
O894 Li832 1.961 . S
O894 Li834 1.956 . S
O894 Li835 1.970 . S
O894 C864 1.325 . S
O895 Li833 1.961 . S
O895 Li834 1.970 . S
O895 Li835 1.956 . S
O895 C870 1.325 . S
H896 C838 0.929 . S
H897 C839 0.930 . S
H898 C840 0.930 . S
H899 C841 0.930 . S
H900 C843 0.930 . S
H901 C845 0.929 . S
H902 C846 0.930 . S
H903 C847 0.930 . S
H904 C850 0.930 . S
H905 C853 0.929 . S
H906 C858 0.929 . S
H907 C859 0.930 . S
H908 C866 0.929 . S
H909 C867 0.930 . S
H910 C868 0.930 . S
H911 C869 0.930 . S
H912 C871 0.929 . S
H913 C872 0.930 . S
H914 C873 0.930 . S
H915 C874 0.930 . S
H916 C878 0.929 . S
H917 C880 0.930 . S
H918 C886 0.929 . S
H919 C887 0.930 . S
Li920 N937 1.986 1_545 S
Li920 O980 1.956 1_545 S
Li920 O981 1.974 . S
Li920 O982 1.964 . S
Li921 N945 1.990 . S
Li921 O980 1.970 1_545 S
Li921 O981 1.956 . S
Li921 O983 1.961 . S
Li922 N967 1.990 . S
Li922 O980 1.961 1_545 S
Li922 O982 1.956 . S
Li922 O983 1.970 . S
Li923 N973 1.990 . S
Li923 O981 1.961 . S
Li923 O982 1.970 . S
Li923 O983 1.956 . S
C924 C926 1.348 . S
C924 C927 1.356 . S
C924 O980 1.325 . S
N925 C928 1.314 . S
N925 C929 1.279 . S
C926 C924 1.348 . S
C926 C928 1.353 . S
C926 H984 0.929 . S
C927 C924 1.356 . S
C927 C929 1.358 . S
C927 H985 0.930 . S
C928 N925 1.314 . S
C928 C926 1.353 . S
C928 H986 0.930 . S
C929 N925 1.279 . S
C929 C927 1.358 . S
C929 H987 0.930 . S
C930 C933 1.348 . S
C930 C934 1.356 . S
C930 O981 1.325 . S
C931 N932 1.279 . S
C931 C934 1.358 . S
C931 H988 0.930 . S
N932 C931 1.279 . S
N932 C935 1.314 . S
C933 C930 1.348 . S
C933 C935 1.353 . S
C933 H989 0.929 . S
C934 C930 1.356 . S
C934 C931 1.358 . S
C934 H990 0.930 . S
C935 N932 1.314 . S
C935 C933 1.353 . S
C935 H991 0.930 . S
C936 N937 1.314 . S
C936 C941 1.353 . S
C936 H942 0.930 . S
N937 Li920 1.986 1_565 S
N937 C936 1.314 . S
N937 C939 1.279 . S
C938 C939 1.358 . S
C938 C940 1.356 . S
C938 H992 0.930 . S
C939 N937 1.279 . S
C939 C938 1.358 . S
C939 H943 0.930 . S
C940 C938 1.356 . S
C940 C941 1.348 . S
C941 C936 1.353 . S
C941 C940 1.348 . S
C941 H993 0.929 . S
H942 C936 0.930 . S
H943 C939 0.930 . S
C944 N945 1.314 . S
C944 C946 1.353 . S
C944 H950 0.930 . S
N945 Li921 1.990 . S
N945 C944 1.314 . S
N945 C948 1.279 . S
C946 C944 1.353 . S
C946 C949 1.348 . S
C946 H994 0.929 . S
C947 C948 1.358 . S
C947 C949 1.356 . S
C947 H995 0.930 . S
C948 N945 1.279 . S
C948 C947 1.358 . S
C948 H951 0.930 . S
C949 C946 1.348 . S
C949 C947 1.356 . S
H950 C944 0.930 . S
H951 C948 0.930 . S
C952 C954 1.348 . S
C952 C955 1.356 1_545 S
C952 O982 1.325 . S
N953 C956 1.314 . S
N953 C957 1.279 1_545 S
C954 C952 1.348 . S
C954 C956 1.353 . S
C954 H996 0.929 . S
C955 C952 1.356 1_565 S
C955 C957 1.358 . S
C955 H997 0.930 . S
C956 N953 1.314 . S
C956 C954 1.353 . S
C956 H998 0.930 . S
C957 N953 1.279 1_565 S
C957 C955 1.358 . S
C957 H999 0.930 . S
C958 C959 1.348 . S
C958 C960 1.356 . S
C958 O983 1.325 . S
C959 C958 1.348 . S
C959 C961 1.353 . S
C959 H1000 0.929 . S
C960 C958 1.356 . S
C960 C962 1.358 . S
C960 H1001 0.930 . S
C961 C959 1.353 . S
C961 N963 1.314 . S
C961 H1002 0.930 . S
C962 C960 1.358 . S
C962 N963 1.279 . S
C962 H1003 0.930 . S
N963 C961 1.314 . S
N963 C962 1.279 . S
C964 C966 1.353 1_545 S
C964 N967 1.315 . S
C964 H970 0.929 1_545 S
C965 N967 1.279 . S
C965 C968 1.358 . S
C965 H971 0.930 . S
C966 C964 1.353 1_565 S
C966 C969 1.348 . S
C966 H1004 0.929 . S
N967 Li922 1.990 . S
N967 C964 1.315 . S
N967 C965 1.279 . S
C968 C965 1.358 . S
C968 C969 1.356 1_545 S
C968 H1005 0.930 . S
C969 C966 1.348 . S
C969 C968 1.356 1_565 S
H970 C964 0.929 1_565 S
H971 C965 0.930 . S
C972 N973 1.314 . S
C972 C974 1.353 . S
C972 H978 0.930 . S
N973 Li923 1.990 . S
N973 C972 1.314 . S
N973 C976 1.279 . S
C974 C972 1.353 . S
C974 C977 1.348 . S
C974 H1006 0.929 . S
C975 C976 1.358 . S
C975 C977 1.356 . S
C975 H1007 0.930 . S
C976 N973 1.279 . S
C976 C975 1.358 . S
C976 H979 0.930 . S
C977 C974 1.348 . S
C977 C975 1.356 . S
H978 C972 0.930 . S
H979 C976 0.930 . S
O980 Li920 1.956 1_565 S
O980 Li921 1.970 1_565 S
O980 Li922 1.961 1_565 S
O980 C924 1.325 . S
O981 Li920 1.974 . S
O981 Li921 1.956 . S
O981 Li923 1.961 . S
O981 C930 1.325 . S
O982 Li920 1.964 . S
O982 Li922 1.956 . S
O982 Li923 1.970 . S
O982 C952 1.325 . S
O983 Li921 1.961 . S
O983 Li922 1.970 . S
O983 Li923 1.956 . S
O983 C958 1.325 . S
H984 C926 0.929 . S
H985 C927 0.930 . S
H986 C928 0.930 . S
H987 C929 0.930 . S
H988 C931 0.930 . S
H989 C933 0.929 . S
H990 C934 0.930 . S
H991 C935 0.930 . S
H992 C938 0.930 . S
H993 C941 0.929 . S
H994 C946 0.929 . S
H995 C947 0.930 . S
H996 C954 0.929 . S
H997 C955 0.930 . S
H998 C956 0.930 . S
H999 C957 0.930 . S
H1000 C959 0.929 . S
H1001 C960 0.930 . S
H1002 C961 0.930 . S
H1003 C962 0.930 . S
H1004 C966 0.929 . S
H1005 C968 0.930 . S
H1006 C974 0.929 . S
H1007 C975 0.930 . S
Li1008 N1025 1.990 . S
Li1008 O1068 1.956 . S
Li1008 O1069 1.970 . S
Li1008 O1070 1.961 . S
Li1009 N1033 1.995 . S
Li1009 O1068 1.970 . S
Li1009 O1069 1.956 . S
Li1009 O1071 1.961 1_455 S
Li1010 N1055 1.990 . S
Li1010 O1068 1.961 . S
Li1010 O1070 1.956 . S
Li1010 O1071 1.970 1_455 S
Li1011 N1061 1.990 . S
Li1011 O1069 1.961 1_655 S
Li1011 O1070 1.970 1_655 S
Li1011 O1071 1.956 . S
C1012 C1014 1.348 . S
C1012 C1015 1.356 . S
C1012 O1068 1.325 . S
N1013 C1016 1.314 . S
N1013 C1017 1.279 . S
C1014 C1012 1.348 . S
C1014 C1016 1.353 . S
C1014 H1072 0.929 . S
C1015 C1012 1.356 . S
C1015 C1017 1.358 . S
C1015 H1073 0.930 . S
C1016 N1013 1.314 . S
C1016 C1014 1.353 . S
C1016 H1074 0.930 . S
C1017 N1013 1.279 . S
C1017 C1015 1.358 . S
C1017 H1075 0.930 . S
C1018 C1021 1.348 . S
C1018 C1022 1.356 1_455 S
C1018 O1069 1.325 . S
C1019 N1020 1.314 . S
C1019 C1022 1.358 . S
C1019 H1076 0.930 . S
N1020 C1019 1.314 . S
N1020 C1023 1.274 1_655 S
C1021 C1018 1.348 . S
C1021 C1023 1.353 . S
C1021 H1077 0.929 . S
C1022 C1018 1.356 1_655 S
C1022 C1019 1.358 . S
C1022 H1078 0.930 . S
C1023 N1020 1.274 1_455 S
C1023 C1021 1.353 . S
C1023 H1079 0.930 . S
C1024 N1025 1.314 . S
C1024 C1029 1.353 . S
C1024 H1030 0.930 . S
N1025 Li1008 1.990 . S
N1025 C1024 1.314 . S
N1025 C1027 1.279 . S
C1026 C1027 1.358 . S
C1026 C1028 1.356 . S
C1026 H1080 0.930 . S
C1027 N1025 1.279 . S
C1027 C1026 1.358 . S
C1027 H1031 0.930 . S
C1028 C1026 1.356 . S
C1028 C1029 1.348 . S
C1029 C1024 1.353 . S
C1029 C1028 1.348 . S
C1029 H1081 0.929 . S
H1030 C1024 0.930 . S
H1031 C1027 0.930 . S
C1032 N1033 1.308 1_655 S
C1032 C1034 1.353 . S
C1032 H1038 0.930 . S
N1033 Li1009 1.995 . S
N1033 C1032 1.308 1_455 S
N1033 C1036 1.282 . S
C1034 C1032 1.353 . S
C1034 C1037 1.348 1_655 S
C1034 H1082 0.929 . S
C1035 C1036 1.358 . S
C1035 C1037 1.356 . S
C1035 H1083 0.930 . S
C1036 N1033 1.282 . S
C1036 C1035 1.358 . S
C1036 H1039 0.930 . S
C1037 C1034 1.348 1_455 S
C1037 C1035 1.356 . S
H1038 C1032 0.930 . S
H1039 C1036 0.930 . S
C1040 C1042 1.348 1_455 S
C1040 C1043 1.356 . S
C1040 O1070 1.325 . S
N1041 C1044 1.314 1_455 S
N1041 C1045 1.279 . S
C1042 C1040 1.348 1_655 S
C1042 C1044 1.353 . S
C1042 H1084 0.929 . S
C1043 C1040 1.356 . S
C1043 C1045 1.358 . S
C1043 H1085 0.930 . S
C1044 N1041 1.314 1_655 S
C1044 C1042 1.353 . S
C1044 H1086 0.930 . S
C1045 N1041 1.279 . S
C1045 C1043 1.358 . S
C1045 H1087 0.930 . S
C1046 C1047 1.348 . S
C1046 C1048 1.356 . S
C1046 O1071 1.325 . S
C1047 C1046 1.348 . S
C1047 C1049 1.353 . S
C1047 H1088 0.929 . S
C1048 C1046 1.356 . S
C1048 C1050 1.358 . S
C1048 H1089 0.930 . S
C1049 C1047 1.353 . S
C1049 N1051 1.314 . S
C1049 H1090 0.930 . S
C1050 C1048 1.358 . S
C1050 N1051 1.279 . S
C1050 H1091 0.930 . S
N1051 C1049 1.314 . S
N1051 C1050 1.279 . S
C1052 C1054 1.353 . S
C1052 N1055 1.314 . S
C1052 H1058 0.930 . S
C1053 N1055 1.279 . S
C1053 C1056 1.358 . S
C1053 H1059 0.932 . S
C1054 C1052 1.353 . S
C1054 C1057 1.348 . S
C1054 H1092 0.929 . S
N1055 Li1010 1.990 . S
N1055 C1052 1.314 . S
N1055 C1053 1.279 . S
C1056 C1053 1.358 . S
C1056 C1057 1.356 . S
C1056 H1093 0.930 . S
C1057 C1054 1.348 . S
C1057 C1056 1.356 . S
H1058 C1052 0.930 . S
H1059 C1053 0.932 . S
C1060 N1061 1.314 . S
C1060 C1062 1.353 . S
C1060 H1066 0.930 . S
N1061 Li1011 1.990 . S
N1061 C1060 1.314 . S
N1061 C1064 1.279 . S
C1062 C1060 1.353 . S
C1062 C1065 1.348 . S
C1062 H1094 0.929 . S
C1063 C1064 1.358 . S
C1063 C1065 1.356 . S
C1063 H1095 0.930 . S
C1064 N1061 1.279 . S
C1064 C1063 1.358 . S
C1064 H1067 0.930 . S
C1065 C1062 1.348 . S
C1065 C1063 1.356 . S
H1066 C1060 0.930 . S
H1067 C1064 0.930 . S
O1068 Li1008 1.956 . S
O1068 Li1009 1.970 . S
O1068 Li1010 1.961 . S
O1068 C1012 1.325 . S
O1069 Li1008 1.970 . S
O1069 Li1009 1.956 . S
O1069 Li1011 1.961 1_455 S
O1069 C1018 1.325 . S
O1070 Li1008 1.961 . S
O1070 Li1010 1.956 . S
O1070 Li1011 1.970 1_455 S
O1070 C1040 1.325 . S
O1071 Li1009 1.961 1_655 S
O1071 Li1010 1.970 1_655 S
O1071 Li1011 1.956 . S
O1071 C1046 1.325 . S
H1072 C1014 0.929 . S
H1073 C1015 0.930 . S
H1074 C1016 0.930 . S
H1075 C1017 0.930 . S
H1076 C1019 0.930 . S
H1077 C1021 0.929 . S
H1078 C1022 0.930 . S
H1079 C1023 0.930 . S
H1080 C1026 0.930 . S
H1081 C1029 0.929 . S
H1082 C1034 0.929 . S
H1083 C1035 0.930 . S
H1084 C1042 0.929 . S
H1085 C1043 0.930 . S
H1086 C1044 0.930 . S
H1087 C1045 0.930 . S
H1088 C1047 0.929 . S
H1089 C1048 0.930 . S
H1090 C1049 0.930 . S
H1091 C1050 0.930 . S
H1092 C1054 0.929 . S
H1093 C1056 0.930 . S
H1094 C1062 0.929 . S
H1095 C1063 0.930 . S
Li1096 N1113 1.990 . S
Li1096 O1156 1.956 . S
Li1096 O1157 1.970 . S
Li1096 O1158 1.961 . S
Li1097 N1121 1.990 . S
Li1097 O1156 1.970 . S
Li1097 O1157 1.956 . S
Li1097 O1159 1.961 . S
Li1098 N1143 1.990 . S
Li1098 O1156 1.961 . S
Li1098 O1158 1.956 . S
Li1098 O1159 1.970 . S
Li1099 N1149 1.990 . S
Li1099 O1157 1.961 . S
Li1099 O1158 1.970 . S
Li1099 O1159 1.956 . S
C1100 C1102 1.348 . S
C1100 C1103 1.356 . S
C1100 O1156 1.325 . S
N1101 C1104 1.314 . S
N1101 C1105 1.279 . S
C1102 C1100 1.348 . S
C1102 C1104 1.353 . S
C1102 H1160 0.929 . S
C1103 C1100 1.356 . S
C1103 C1105 1.358 . S
C1103 H1161 0.930 . S
C1104 N1101 1.314 . S
C1104 C1102 1.353 . S
C1104 H1162 0.930 . S
C1105 N1101 1.279 . S
C1105 C1103 1.358 . S
C1105 H1163 0.930 . S
C1106 C1109 1.348 . S
C1106 C1110 1.356 . S
C1106 O1157 1.325 . S
C1107 N1108 1.279 . S
C1107 C1110 1.358 . S
C1107 H1164 0.930 . S
N1108 C1107 1.279 . S
N1108 C1111 1.314 . S
C1109 C1106 1.348 . S
C1109 C1111 1.353 . S
C1109 H1165 0.929 . S
C1110 C1106 1.356 . S
C1110 C1107 1.358 . S
C1110 H1166 0.930 . S
C1111 N1108 1.314 . S
C1111 C1109 1.353 . S
C1111 H1167 0.930 . S
C1112 N1113 1.314 . S
C1112 C1117 1.353 . S
C1112 H1118 0.930 . S
N1113 Li1096 1.990 . S
N1113 C1112 1.314 . S
N1113 C1115 1.279 . S
C1114 C1115 1.358 . S
C1114 C1116 1.356 . S
C1114 H1168 0.930 . S
C1115 N1113 1.279 . S
C1115 C1114 1.358 . S
C1115 H1119 0.930 . S
C1116 C1114 1.356 . S
C1116 C1117 1.348 . S
C1117 C1112 1.353 . S
C1117 C1116 1.348 . S
C1117 H1169 0.929 . S
H1118 C1112 0.930 . S
H1119 C1115 0.930 . S
C1120 N1121 1.314 . S
C1120 C1122 1.353 . S
C1120 H1126 0.930 . S
N1121 Li1097 1.990 . S
N1121 C1120 1.314 . S
N1121 C1124 1.279 . S
C1122 C1120 1.353 . S
C1122 C1125 1.348 . S
C1122 H1170 0.929 . S
C1123 C1124 1.358 . S
C1123 C1125 1.356 . S
C1123 H1171 0.930 . S
C1124 N1121 1.279 . S
C1124 C1123 1.358 . S
C1124 H1127 0.930 . S
C1125 C1122 1.348 . S
C1125 C1123 1.356 . S
H1126 C1120 0.930 . S
H1127 C1124 0.930 . S
C1128 C1130 1.348 . S
C1128 C1131 1.356 . S
C1128 O1158 1.325 . S
N1129 C1132 1.314 . S
N1129 C1133 1.279 . S
C1130 C1128 1.348 . S
C1130 C1132 1.353 . S
C1130 H1172 0.929 . S
C1131 C1128 1.356 . S
C1131 C1133 1.358 . S
C1131 H1173 0.930 . S
C1132 N1129 1.314 . S
C1132 C1130 1.353 . S
C1132 H1174 0.930 . S
C1133 N1129 1.279 . S
C1133 C1131 1.358 . S
C1133 H1175 0.930 . S
C1134 C1135 1.348 . S
C1134 C1136 1.356 . S
C1134 O1159 1.325 . S
C1135 C1134 1.348 . S
C1135 C1137 1.353 . S
C1135 H1176 0.929 . S
C1136 C1134 1.356 . S
C1136 C1138 1.358 . S
C1136 H1177 0.930 . S
C1137 C1135 1.353 . S
C1137 N1139 1.314 . S
C1137 H1178 0.930 . S
C1138 C1136 1.358 . S
C1138 N1139 1.279 . S
C1138 H1179 0.930 . S
N1139 C1137 1.314 . S
N1139 C1138 1.279 . S
C1140 C1142 1.353 . S
C1140 N1143 1.314 . S
C1140 H1146 0.930 . S
C1141 N1143 1.279 . S
C1141 C1144 1.358 . S
C1141 H1147 0.930 . S
C1142 C1140 1.353 . S
C1142 C1145 1.348 . S
C1142 H1180 0.929 . S
N1143 Li1098 1.990 . S
N1143 C1140 1.314 . S
N1143 C1141 1.279 . S
C1144 C1141 1.358 . S
C1144 C1145 1.356 . S
C1144 H1181 0.930 . S
C1145 C1142 1.348 . S
C1145 C1144 1.356 . S
H1146 C1140 0.930 . S
H1147 C1141 0.930 . S
C1148 N1149 1.314 . S
C1148 C1150 1.353 . S
C1148 H1154 0.930 . S
N1149 Li1099 1.990 . S
N1149 C1148 1.314 . S
N1149 C1152 1.279 . S
C1150 C1148 1.353 . S
C1150 C1153 1.348 . S
C1150 H1182 0.929 . S
C1151 C1152 1.358 . S
C1151 C1153 1.356 . S
C1151 H1183 0.930 . S
C1152 N1149 1.279 . S
C1152 C1151 1.358 . S
C1152 H1155 0.930 . S
C1153 C1150 1.348 . S
C1153 C1151 1.356 . S
H1154 C1148 0.930 . S
H1155 C1152 0.930 . S
O1156 Li1096 1.956 . S
O1156 Li1097 1.970 . S
O1156 Li1098 1.961 . S
O1156 C1100 1.325 . S
O1157 Li1096 1.970 . S
O1157 Li1097 1.956 . S
O1157 Li1099 1.961 . S
O1157 C1106 1.325 . S
O1158 Li1096 1.961 . S
O1158 Li1098 1.956 . S
O1158 Li1099 1.970 . S
O1158 C1128 1.325 . S
O1159 Li1097 1.961 . S
O1159 Li1098 1.970 . S
O1159 Li1099 1.956 . S
O1159 C1134 1.325 . S
H1160 C1102 0.929 . S
H1161 C1103 0.930 . S
H1162 C1104 0.930 . S
H1163 C1105 0.930 . S
H1164 C1107 0.930 . S
H1165 C1109 0.929 . S
H1166 C1110 0.930 . S
H1167 C1111 0.930 . S
H1168 C1114 0.930 . S
H1169 C1117 0.929 . S
H1170 C1122 0.929 . S
H1171 C1123 0.930 . S
H1172 C1130 0.929 . S
H1173 C1131 0.930 . S
H1174 C1132 0.930 . S
H1175 C1133 0.930 . S
H1176 C1135 0.929 . S
H1177 C1136 0.930 . S
H1178 C1137 0.930 . S
H1179 C1138 0.930 . S
H1180 C1142 0.929 . S
H1181 C1144 0.930 . S
H1182 C1150 0.929 . S
H1183 C1151 0.930 . S
Li1184 N1201 1.990 . S
Li1184 O1244 1.956 . S
Li1184 O1245 1.970 1_455 S
Li1184 O1246 1.961 . S
Li1185 N1209 1.990 . S
Li1185 O1244 1.970 1_655 S
Li1185 O1245 1.956 . S
Li1185 O1247 1.961 . S
Li1186 N1231 1.990 . S
Li1186 O1244 1.961 . S
Li1186 O1246 1.956 . S
Li1186 O1247 1.970 1_455 S
Li1187 N1237 1.990 . S
Li1187 O1245 1.961 . S
Li1187 O1246 1.970 1_655 S
Li1187 O1247 1.956 . S
C1188 C1190 1.348 1_455 S
C1188 C1191 1.356 . S
C1188 O1244 1.325 . S
N1189 C1192 1.350 . S
N1189 C1193 1.279 . S
C1190 C1188 1.348 1_655 S
C1190 C1192 1.347 1_655 S
C1190 H1248 0.929 . S
C1191 C1188 1.356 . S
C1191 C1193 1.358 . S
C1191 H1249 0.930 . S
C1192 N1189 1.350 . S
C1192 C1190 1.347 1_455 S
C1192 H1250 0.897 1_455 S
C1193 N1189 1.279 . S
C1193 C1191 1.358 . S
C1193 H1251 0.930 . S
C1194 C1197 1.348 . S
C1194 C1198 1.356 . S
C1194 O1245 1.325 . S
C1195 N1196 1.279 . S
C1195 C1198 1.358 . S
C1195 H1252 0.930 . S
N1196 C1195 1.279 . S
N1196 C1199 1.314 . S
C1197 C1194 1.348 . S
C1197 C1199 1.353 . S
C1197 H1253 0.929 . S
C1198 C1194 1.356 . S
C1198 C1195 1.358 . S
C1198 H1254 0.930 . S
C1199 N1196 1.314 . S
C1199 C1197 1.353 . S
C1199 H1255 0.930 . S
C1200 N1201 1.314 . S
C1200 C1205 1.353 . S
C1200 H1206 0.930 . S
N1201 Li1184 1.990 . S
N1201 C1200 1.314 . S
N1201 C1203 1.279 . S
C1202 C1203 1.358 . S
C1202 C1204 1.356 . S
C1202 H1256 0.930 . S
C1203 N1201 1.279 . S
C1203 C1202 1.358 . S
C1203 H1207 0.930 . S
C1204 C1202 1.356 . S
C1204 C1205 1.348 . S
C1205 C1200 1.353 . S
C1205 C1204 1.348 . S
C1205 H1257 0.929 . S
H1206 C1200 0.930 . S
H1207 C1203 0.930 . S
C1208 N1209 1.314 . S
C1208 C1210 1.353 . S
C1208 H1214 0.930 . S
N1209 Li1185 1.990 . S
N1209 C1208 1.314 . S
N1209 C1212 1.279 . S
C1210 C1208 1.353 . S
C1210 C1213 1.348 . S
C1210 H1258 0.929 . S
C1211 C1212 1.358 . S
C1211 C1213 1.356 . S
C1211 H1259 0.930 . S
C1212 N1209 1.279 . S
C1212 C1211 1.358 . S
C1212 H1215 0.930 . S
C1213 C1210 1.348 . S
C1213 C1211 1.356 . S
H1214 C1208 0.930 . S
H1215 C1212 0.930 . S
C1216 C1218 1.348 . S
C1216 C1219 1.356 . S
C1216 O1246 1.325 . S
N1217 C1220 1.314 . S
N1217 C1221 1.279 . S
C1218 C1216 1.348 . S
C1218 C1220 1.353 . S
C1218 H1260 0.929 . S
C1219 C1216 1.356 . S
C1219 C1221 1.358 . S
C1219 H1261 0.930 . S
C1220 N1217 1.314 . S
C1220 C1218 1.353 . S
C1220 H1262 0.930 . S
C1221 N1217 1.279 . S
C1221 C1219 1.358 . S
C1221 H1263 0.930 . S
C1222 C1223 1.348 1_655 S
C1222 C1224 1.356 . S
C1222 O1247 1.325 . S
C1223 C1222 1.348 1_455 S
C1223 C1225 1.353 1_455 S
C1223 H1264 0.929 . S
C1224 C1222 1.356 . S
C1224 C1226 1.358 . S
C1224 H1265 0.930 . S
C1225 C1223 1.353 1_655 S
C1225 N1227 1.314 . S
C1225 H1266 0.930 1_655 S
C1226 C1224 1.358 . S
C1226 N1227 1.279 . S
C1226 H1267 0.930 . S
N1227 C1225 1.314 . S
N1227 C1226 1.279 . S
C1228 C1230 1.353 . S
C1228 N1231 1.314 . S
C1228 H1234 0.930 . S
C1229 N1231 1.279 . S
C1229 C1232 1.358 . S
C1229 H1235 0.930 . S
C1230 C1228 1.353 . S
C1230 C1233 1.348 . S
C1230 H1268 0.929 . S
N1231 Li1186 1.990 . S
N1231 C1228 1.314 . S
N1231 C1229 1.279 . S
C1232 C1229 1.358 . S
C1232 C1233 1.356 . S
C1232 H1269 0.930 . S
C1233 C1230 1.348 . S
C1233 C1232 1.356 . S
H1234 C1228 0.930 . S
H1235 C1229 0.930 . S
C1236 N1237 1.314 . S
C1236 C1238 1.353 . S
C1236 H1242 0.930 . S
N1237 Li1187 1.990 . S
N1237 C1236 1.314 . S
N1237 C1240 1.279 . S
C1238 C1236 1.353 . S
C1238 C1241 1.348 . S
C1238 H1270 0.929 . S
C1239 C1240 1.358 . S
C1239 C1241 1.356 . S
C1239 H1271 0.930 . S
C1240 N1237 1.279 . S
C1240 C1239 1.358 . S
C1240 H1243 0.930 . S
C1241 C1238 1.348 . S
C1241 C1239 1.356 . S
H1242 C1236 0.930 . S
H1243 C1240 0.930 . S
O1244 Li1184 1.956 . S
O1244 Li1185 1.970 1_455 S
O1244 Li1186 1.961 . S
O1244 C1188 1.325 . S
O1245 Li1184 1.970 1_655 S
O1245 Li1185 1.956 . S
O1245 Li1187 1.961 . S
O1245 C1194 1.325 . S
O1246 Li1184 1.961 . S
O1246 Li1186 1.956 . S
O1246 Li1187 1.970 1_455 S
O1246 C1216 1.325 . S
O1247 Li1185 1.961 . S
O1247 Li1186 1.970 1_655 S
O1247 Li1187 1.956 . S
O1247 C1222 1.325 . S
H1248 C1190 0.929 . S
H1249 C1191 0.930 . S
H1250 C1192 0.897 1_655 S
H1251 C1193 0.930 . S
H1252 C1195 0.930 . S
H1253 C1197 0.929 . S
H1254 C1198 0.930 . S
H1255 C1199 0.930 . S
H1256 C1202 0.930 . S
H1257 C1205 0.929 . S
H1258 C1210 0.929 . S
H1259 C1211 0.930 . S
H1260 C1218 0.929 . S
H1261 C1219 0.930 . S
H1262 C1220 0.930 . S
H1263 C1221 0.930 . S
H1264 C1223 0.929 . S
H1265 C1224 0.930 . S
H1266 C1225 0.930 1_455 S
H1267 C1226 0.930 . S
H1268 C1230 0.929 . S
H1269 C1232 0.930 . S
H1270 C1238 0.929 . S
H1271 C1239 0.930 . S
Li1272 N1289 1.990 . S
Li1272 O1332 1.956 . S
Li1272 O1333 1.970 . S
Li1272 O1334 1.961 . S
Li1273 N1297 1.990 . S
Li1273 O1332 1.970 . S
Li1273 O1333 1.956 . S
Li1273 O1335 1.961 . S
Li1274 N1319 1.990 . S
Li1274 O1332 1.961 . S
Li1274 O1334 1.956 . S
Li1274 O1335 1.970 . S
Li1275 N1325 1.990 . S
Li1275 O1333 1.961 . S
Li1275 O1334 1.970 . S
Li1275 O1335 1.956 . S
C1276 C1278 1.348 . S
C1276 C1279 1.356 . S
C1276 O1332 1.325 . S
N1277 C1280 1.314 . S
N1277 C1281 1.279 . S
C1278 C1276 1.348 . S
C1278 C1280 1.353 . S
C1278 H1336 0.929 . S
C1279 C1276 1.356 . S
C1279 C1281 1.358 . S
C1279 H1337 0.930 . S
C1280 N1277 1.314 . S
C1280 C1278 1.353 . S
C1280 H1338 0.930 . S
C1281 N1277 1.279 . S
C1281 C1279 1.358 . S
C1281 H1339 0.930 . S
C1282 C1285 1.348 . S
C1282 C1286 1.356 . S
C1282 O1333 1.325 . S
C1283 N1284 1.279 . S
C1283 C1286 1.358 . S
C1283 H1340 0.930 . S
N1284 C1283 1.279 . S
N1284 C1287 1.314 . S
C1285 C1282 1.348 . S
C1285 C1287 1.353 . S
C1285 H1341 0.929 . S
C1286 C1282 1.356 . S
C1286 C1283 1.358 . S
C1286 H1342 0.930 . S
C1287 N1284 1.314 . S
C1287 C1285 1.353 . S
C1287 H1343 0.930 . S
C1288 N1289 1.314 . S
C1288 C1293 1.353 . S
C1288 H1294 0.930 . S
N1289 Li1272 1.990 . S
N1289 C1288 1.314 . S
N1289 C1291 1.279 . S
C1290 C1291 1.358 . S
C1290 C1292 1.356 . S
C1290 H1344 0.930 . S
C1291 N1289 1.279 . S
C1291 C1290 1.358 . S
C1291 H1295 0.930 . S
C1292 C1290 1.356 . S
C1292 C1293 1.348 . S
C1293 C1288 1.353 . S
C1293 C1292 1.348 . S
C1293 H1345 0.929 . S
H1294 C1288 0.930 . S
H1295 C1291 0.930 . S
C1296 N1297 1.314 . S
C1296 C1298 1.353 . S
C1296 H1302 0.930 . S
N1297 Li1273 1.990 . S
N1297 C1296 1.314 . S
N1297 C1300 1.279 . S
C1298 C1296 1.353 . S
C1298 C1301 1.348 . S
C1298 H1346 0.929 . S
C1299 C1300 1.358 . S
C1299 C1301 1.356 . S
C1299 H1347 0.930 . S
C1300 N1297 1.279 . S
C1300 C1299 1.358 . S
C1300 H1303 0.930 . S
C1301 C1298 1.348 . S
C1301 C1299 1.356 . S
H1302 C1296 0.930 . S
H1303 C1300 0.930 . S
C1304 C1306 1.348 . S
C1304 C1307 1.356 . S
C1304 O1334 1.325 . S
N1305 C1308 1.314 . S
N1305 C1309 1.279 . S
C1306 C1304 1.348 . S
C1306 C1308 1.353 . S
C1306 H1348 0.929 . S
C1307 C1304 1.356 . S
C1307 C1309 1.358 . S
C1307 H1349 0.930 . S
C1308 N1305 1.314 . S
C1308 C1306 1.353 . S
C1308 H1350 0.930 . S
C1309 N1305 1.279 . S
C1309 C1307 1.358 . S
C1309 H1351 0.930 . S
C1310 C1311 1.348 . S
C1310 C1312 1.356 . S
C1310 O1335 1.325 . S
C1311 C1310 1.348 . S
C1311 C1313 1.353 . S
C1311 H1352 0.929 . S
C1312 C1310 1.356 . S
C1312 C1314 1.358 . S
C1312 H1353 0.930 . S
C1313 C1311 1.353 . S
C1313 N1315 1.314 . S
C1313 H1354 0.930 . S
C1314 C1312 1.358 . S
C1314 N1315 1.279 . S
C1314 H1355 0.930 . S
N1315 C1313 1.314 . S
N1315 C1314 1.279 . S
C1316 C1318 1.353 . S
C1316 N1319 1.314 . S
C1316 H1322 0.930 . S
C1317 N1319 1.279 . S
C1317 C1320 1.358 . S
C1317 H1323 0.930 . S
C1318 C1316 1.353 . S
C1318 C1321 1.348 . S
C1318 H1356 0.929 . S
N1319 Li1274 1.990 . S
N1319 C1316 1.314 . S
N1319 C1317 1.279 . S
C1320 C1317 1.358 . S
C1320 C1321 1.356 . S
C1320 H1357 0.930 . S
C1321 C1318 1.348 . S
C1321 C1320 1.356 . S
H1322 C1316 0.930 . S
H1323 C1317 0.930 . S
C1324 N1325 1.314 . S
C1324 C1326 1.353 . S
C1324 H1330 0.930 . S
N1325 Li1275 1.990 . S
N1325 C1324 1.314 . S
N1325 C1328 1.279 . S
C1326 C1324 1.353 . S
C1326 C1329 1.348 . S
C1326 H1358 0.929 . S
C1327 C1328 1.358 . S
C1327 C1329 1.356 . S
C1327 H1359 0.930 . S
C1328 N1325 1.279 . S
C1328 C1327 1.358 . S
C1328 H1331 0.930 . S
C1329 C1326 1.348 . S
C1329 C1327 1.356 . S
H1330 C1324 0.930 . S
H1331 C1328 0.930 . S
O1332 Li1272 1.956 . S
O1332 Li1273 1.970 . S
O1332 Li1274 1.961 . S
O1332 C1276 1.325 . S
O1333 Li1272 1.970 . S
O1333 Li1273 1.956 . S
O1333 Li1275 1.961 . S
O1333 C1282 1.325 . S
O1334 Li1272 1.961 . S
O1334 Li1274 1.956 . S
O1334 Li1275 1.970 . S
O1334 C1304 1.325 . S
O1335 Li1273 1.961 . S
O1335 Li1274 1.970 . S
O1335 Li1275 1.956 . S
O1335 C1310 1.325 . S
H1336 C1278 0.929 . S
H1337 C1279 0.930 . S
H1338 C1280 0.930 . S
H1339 C1281 0.930 . S
H1340 C1283 0.930 . S
H1341 C1285 0.929 . S
H1342 C1286 0.930 . S
H1343 C1287 0.930 . S
H1344 C1290 0.930 . S
H1345 C1293 0.929 . S
H1346 C1298 0.929 . S
H1347 C1299 0.930 . S
H1348 C1306 0.929 . S
H1349 C1307 0.930 . S
H1350 C1308 0.930 . S
H1351 C1309 0.930 . S
H1352 C1311 0.929 . S
H1353 C1312 0.930 . S
H1354 C1313 0.930 . S
H1355 C1314 0.930 . S
H1356 C1318 0.929 . S
H1357 C1320 0.930 . S
H1358 C1326 0.929 . S
H1359 C1327 0.930 . S
C1360 C1361 1.363 . S
C1360 C1366 1.379 . S
C1360 N1368 1.356 . S
C1361 C1360 1.363 . S
C1361 C1367 1.363 . S
C1362 C1363 1.363 . S
C1362 C1367 1.379 . S
C1362 N1369 1.356 . S
C1363 C1362 1.363 . S
C1363 C1366 1.363 . S
N1364 C1366 1.356 . S
N1364 H1376 0.984 . S
N1364 H1377 0.985 . S
N1365 C1367 1.356 . S
N1365 H1370 0.984 . S
N1365 H1371 0.985 . S
C1366 C1360 1.379 . S
C1366 C1363 1.363 . S
C1366 N1364 1.356 . S
C1367 C1361 1.363 . S
C1367 C1362 1.379 . S
C1367 N1365 1.356 . S
N1368 C1360 1.356 . S
N1368 H1374 0.984 . S
N1368 H1375 0.984 . S
N1369 C1362 1.356 . S
N1369 H1372 0.984 . S
N1369 H1373 0.985 . S
H1370 N1365 0.984 . S
H1371 N1365 0.985 . S
H1372 N1369 0.984 . S
H1373 N1369 0.985 . S
H1374 N1368 0.984 . S
H1375 N1368 0.984 . S
H1376 N1364 0.984 . S
H1377 N1364 0.985 . S
C1378 C1379 1.363 . S
C1378 C1384 1.379 . S
C1378 N1386 1.356 . S
C1379 C1378 1.363 . S
C1379 C1385 1.363 . S
C1380 C1381 1.363 . S
C1380 C1385 1.379 . S
C1380 N1387 1.356 . S
C1381 C1380 1.363 . S
C1381 C1384 1.363 . S
N1382 C1384 1.356 . S
N1382 H1394 0.984 . S
N1382 H1395 0.985 . S
N1383 C1385 1.356 . S
N1383 H1388 0.984 1_455 S
N1383 H1389 0.985 1_455 S
C1384 C1378 1.379 . S
C1384 C1381 1.363 . S
C1384 N1382 1.356 . S
C1385 C1379 1.363 . S
C1385 C1380 1.379 . S
C1385 N1383 1.356 . S
N1386 C1378 1.356 . S
N1386 H1392 0.984 . S
N1386 H1393 0.984 . S
N1387 C1380 1.356 . S
N1387 H1390 0.984 . S
N1387 H1391 0.985 . S
H1388 N1383 0.984 1_655 S
H1389 N1383 0.985 1_655 S
H1390 N1387 0.984 . S
H1391 N1387 0.985 . S
H1392 N1386 0.984 . S
H1393 N1386 0.984 . S
H1394 N1382 0.984 . S
H1395 N1382 0.985 . S
C1396 C1397 1.363 . S
C1396 C1402 1.379 . S
C1396 N1404 1.356 . S
C1397 C1396 1.363 . S
C1397 C1403 1.363 . S
C1398 C1399 1.363 . S
C1398 C1403 1.379 . S
C1398 N1405 1.356 . S
C1399 C1398 1.363 . S
C1399 C1402 1.363 . S
N1400 C1402 1.356 . S
N1400 H1412 0.984 . S
N1400 H1413 0.985 . S
N1401 C1403 1.356 . S
N1401 H1406 0.984 . S
N1401 H1407 0.985 . S
C1402 C1396 1.379 . S
C1402 C1399 1.363 . S
C1402 N1400 1.356 . S
C1403 C1397 1.363 . S
C1403 C1398 1.379 . S
C1403 N1401 1.356 . S
N1404 C1396 1.356 . S
N1404 H1410 0.984 . S
N1404 H1411 0.984 . S
N1405 C1398 1.356 . S
N1405 H1408 0.984 . S
N1405 H1409 0.985 . S
H1406 N1401 0.984 . S
H1407 N1401 0.985 . S
H1408 N1405 0.984 . S
H1409 N1405 0.985 . S
H1410 N1404 0.984 . S
H1411 N1404 0.984 . S
H1412 N1400 0.984 . S
H1413 N1400 0.985 . S
C1414 C1415 1.363 1_545 S
C1414 C1420 1.379 . S
C1414 N1422 1.356 . S
C1415 C1414 1.363 1_565 S
C1415 C1421 1.363 . S
C1416 C1417 1.363 1_565 S
C1416 C1421 1.379 . S
C1416 N1423 1.356 . S
C1417 C1416 1.363 1_545 S
C1417 C1420 1.363 . S
N1418 C1420 1.356 . S
N1418 H1430 0.984 . S
N1418 H1431 0.985 . S
N1419 C1421 1.356 . S
N1419 H1424 0.984 . S
N1419 H1425 0.985 . S
C1420 C1414 1.379 . S
C1420 C1417 1.363 . S
C1420 N1418 1.356 . S
C1421 C1415 1.363 . S
C1421 C1416 1.379 . S
C1421 N1419 1.356 . S
N1422 C1414 1.356 . S
N1422 H1428 0.984 . S
N1422 H1429 0.984 . S
N1423 C1416 1.356 . S
N1423 H1426 0.984 . S
N1423 H1427 0.985 . S
H1424 N1419 0.984 . S
H1425 N1419 0.985 . S
H1426 N1423 0.984 . S
H1427 N1423 0.985 . S
H1428 N1422 0.984 . S
H1429 N1422 0.984 . S
H1430 N1418 0.984 . S
H1431 N1418 0.985 . S
C1432 C1433 1.363 . S
C1432 C1438 1.379 . S
C1432 N1440 1.356 . S
C1433 C1432 1.363 . S
C1433 C1439 1.363 . S
C1434 C1435 1.363 . S
C1434 C1439 1.379 . S
C1434 N1441 1.356 . S
C1435 C1434 1.363 . S
C1435 C1438 1.363 . S
N1436 C1438 1.356 . S
N1436 H1448 0.984 . S
N1436 H1449 0.985 . S
N1437 C1439 1.356 . S
N1437 H1442 0.984 . S
N1437 H1443 0.985 . S
C1438 C1432 1.379 . S
C1438 C1435 1.363 . S
C1438 N1436 1.356 . S
C1439 C1433 1.363 . S
C1439 C1434 1.379 . S
C1439 N1437 1.356 . S
N1440 C1432 1.356 . S
N1440 H1446 0.984 . S
N1440 H1447 0.984 . S
N1441 C1434 1.356 . S
N1441 H1444 0.984 . S
N1441 H1445 0.985 . S
H1442 N1437 0.984 . S
H1443 N1437 0.985 . S
H1444 N1441 0.984 . S
H1445 N1441 0.985 . S
H1446 N1440 0.984 . S
H1447 N1440 0.984 . S
H1448 N1436 0.984 . S
H1449 N1436 0.985 . S
C1450 C1451 1.363 . S
C1450 C1456 1.379 . S
C1450 N1458 1.356 . S
C1451 C1450 1.363 . S
C1451 C1457 1.363 . S
C1452 C1453 1.363 . S
C1452 C1457 1.379 . S
C1452 N1459 1.356 . S
C1453 C1452 1.363 . S
C1453 C1456 1.363 . S
N1454 C1456 1.356 . S
N1454 H1466 0.984 . S
N1454 H1467 0.985 . S
N1455 C1457 1.356 . S
N1455 H1460 0.984 . S
N1455 H1461 0.985 . S
C1456 C1450 1.379 . S
C1456 C1453 1.363 . S
C1456 N1454 1.356 . S
C1457 C1451 1.363 . S
C1457 C1452 1.379 . S
C1457 N1455 1.356 . S
N1458 C1450 1.356 . S
N1458 H1464 0.984 . S
N1458 H1465 0.984 . S
N1459 C1452 1.356 . S
N1459 H1462 0.984 . S
N1459 H1463 0.985 . S
H1460 N1455 0.984 . S
H1461 N1455 0.985 . S
H1462 N1459 0.984 . S
H1463 N1459 0.985 . S
H1464 N1458 0.984 . S
H1465 N1458 0.984 . S
H1466 N1454 0.984 . S
H1467 N1454 0.985 . S
C1468 C1469 1.363 . S
C1468 C1474 1.379 . S
C1468 N1476 1.356 . S
C1469 C1468 1.363 . S
C1469 C1475 1.363 . S
C1470 C1471 1.363 . S
C1470 C1475 1.379 . S
C1470 N1477 1.356 . S
C1471 C1470 1.363 . S
C1471 C1474 1.363 . S
N1472 C1474 1.356 . S
N1472 H1484 0.984 . S
N1472 H1485 0.985 . S
N1473 C1475 1.356 . S
N1473 H1478 0.984 . S
N1473 H1479 0.985 . S
C1474 C1468 1.379 . S
C1474 C1471 1.363 . S
C1474 N1472 1.356 . S
C1475 C1469 1.363 . S
C1475 C1470 1.379 . S
C1475 N1473 1.356 . S
N1476 C1468 1.356 . S
N1476 H1482 0.984 . S
N1476 H1483 0.984 . S
N1477 C1470 1.356 . S
N1477 H1480 0.984 . S
N1477 H1481 0.985 . S
H1478 N1473 0.984 . S
H1479 N1473 0.985 . S
H1480 N1477 0.984 . S
H1481 N1477 0.985 . S
H1482 N1476 0.984 . S
H1483 N1476 0.984 . S
H1484 N1472 0.984 . S
H1485 N1472 0.985 . S
C1486 C1487 1.363 1_545 S
C1486 C1492 1.379 . S
C1486 N1494 1.356 . S
C1487 C1486 1.363 1_565 S
C1487 C1493 1.363 . S
C1488 C1489 1.363 . S
C1488 C1493 1.379 . S
C1488 N1495 1.356 . S
C1489 C1488 1.363 . S
C1489 C1492 1.363 1_565 S
N1490 C1492 1.356 . S
N1490 H1502 0.984 . S
N1490 H1503 0.985 . S
N1491 C1493 1.356 . S
N1491 H1496 0.984 . S
N1491 H1497 0.985 . S
C1492 C1486 1.379 . S
C1492 C1489 1.363 1_545 S
C1492 N1490 1.356 . S
C1493 C1487 1.363 . S
C1493 C1488 1.379 . S
C1493 N1491 1.356 . S
N1494 C1486 1.356 . S
N1494 H1500 0.984 . S
N1494 H1501 0.984 . S
N1495 C1488 1.356 . S
N1495 H1498 0.984 . S
N1495 H1499 0.985 . S
H1496 N1491 0.984 . S
H1497 N1491 0.985 . S
H1498 N1495 0.984 . S
H1499 N1495 0.985 . S
H1500 N1494 0.984 . S
H1501 N1494 0.984 . S
H1502 N1490 0.984 . S
H1503 N1490 0.985 . S
C1504 C1505 1.363 . S
C1504 C1510 1.379 . S
C1504 N1512 1.356 . S
C1505 C1504 1.363 . S
C1505 C1511 1.363 . S
C1506 C1507 1.363 . S
C1506 C1511 1.379 . S
C1506 N1513 1.356 . S
C1507 C1506 1.363 . S
C1507 C1510 1.363 . S
N1508 C1510 1.356 . S
N1508 H1520 0.984 . S
N1508 H1521 0.985 . S
N1509 C1511 1.356 . S
N1509 H1514 0.984 . S
N1509 H1515 0.985 . S
C1510 C1504 1.379 . S
C1510 C1507 1.363 . S
C1510 N1508 1.356 . S
C1511 C1505 1.363 . S
C1511 C1506 1.379 . S
C1511 N1509 1.356 . S
N1512 C1504 1.356 . S
N1512 H1518 0.984 . S
N1512 H1519 0.984 . S
N1513 C1506 1.356 . S
N1513 H1516 0.984 . S
N1513 H1517 0.985 . S
H1514 N1509 0.984 . S
H1515 N1509 0.985 . S
H1516 N1513 0.984 . S
H1517 N1513 0.985 . S
H1518 N1512 0.984 . S
H1519 N1512 0.984 . S
H1520 N1508 0.984 . S
H1521 N1508 0.985 . S
C1522 C1523 1.363 . S
C1522 C1528 1.379 . S
C1522 N1530 1.356 . S
C1523 C1522 1.363 . S
C1523 C1529 1.363 . S
C1524 C1525 1.363 . S
C1524 C1529 1.379 . S
C1524 N1531 1.356 . S
C1525 C1524 1.363 . S
C1525 C1528 1.363 . S
N1526 C1528 1.356 . S
N1526 H1538 0.984 . S
N1526 H1539 0.985 . S
N1527 C1529 1.356 . S
N1527 H1532 0.984 . S
N1527 H1533 0.985 . S
C1528 C1522 1.379 . S
C1528 C1525 1.363 . S
C1528 N1526 1.356 . S
C1529 C1523 1.363 . S
C1529 C1524 1.379 . S
C1529 N1527 1.356 . S
N1530 C1522 1.356 . S
N1530 H1536 0.984 . S
N1530 H1537 0.984 . S
N1531 C1524 1.356 . S
N1531 H1534 0.984 . S
N1531 H1535 0.985 . S
H1532 N1527 0.984 . S
H1533 N1527 0.985 . S
H1534 N1531 0.984 . S
H1535 N1531 0.985 . S
H1536 N1530 0.984 . S
H1537 N1530 0.984 . S
H1538 N1526 0.984 . S
H1539 N1526 0.985 . S
C1540 C1541 1.363 . S
C1540 C1546 1.379 . S
C1540 N1548 1.356 . S
C1541 C1540 1.363 . S
C1541 C1547 1.363 . S
C1542 C1543 1.363 . S
C1542 C1547 1.379 . S
C1542 N1549 1.356 . S
C1543 C1542 1.363 . S
C1543 C1546 1.363 . S
N1544 C1546 1.356 . S
N1544 H1556 0.984 . S
N1544 H1557 0.985 . S
N1545 C1547 1.356 . S
N1545 H1550 0.984 . S
N1545 H1551 0.985 . S
C1546 C1540 1.379 . S
C1546 C1543 1.363 . S
C1546 N1544 1.356 . S
C1547 C1541 1.363 . S
C1547 C1542 1.379 . S
C1547 N1545 1.356 . S
N1548 C1540 1.356 . S
N1548 H1554 0.984 . S
N1548 H1555 0.984 . S
N1549 C1542 1.356 . S
N1549 H1552 0.984 . S
N1549 H1553 0.985 . S
H1550 N1545 0.984 . S
H1551 N1545 0.985 . S
H1552 N1549 0.984 . S
H1553 N1549 0.985 . S
H1554 N1548 0.984 . S
H1555 N1548 0.984 . S
H1556 N1544 0.984 . S
H1557 N1544 0.985 . S
C1558 C1559 1.363 . S
C1558 C1564 1.379 . S
C1558 N1566 1.356 . S
C1559 C1558 1.363 . S
C1559 C1565 1.363 . S
C1560 C1561 1.363 . S
C1560 C1565 1.379 . S
C1560 N1567 1.356 . S
C1561 C1560 1.363 . S
C1561 C1564 1.363 . S
N1562 C1564 1.356 . S
N1562 H1574 0.984 . S
N1562 H1575 0.985 . S
N1563 C1565 1.356 . S
N1563 H1568 0.984 . S
N1563 H1569 0.985 . S
C1564 C1558 1.379 . S
C1564 C1561 1.363 . S
C1564 N1562 1.356 . S
C1565 C1559 1.363 . S
C1565 C1560 1.379 . S
C1565 N1563 1.356 . S
N1566 C1558 1.356 . S
N1566 H1572 0.984 . S
N1566 H1573 0.984 . S
N1567 C1560 1.356 . S
N1567 H1570 0.984 . S
N1567 H1571 0.985 . S
H1568 N1563 0.984 . S
H1569 N1563 0.985 . S
H1570 N1567 0.984 . S
H1571 N1567 0.985 . S
H1572 N1566 0.984 . S
H1573 N1566 0.984 . S
H1574 N1562 0.984 . S
H1575 N1562 0.985 . S
C1576 C1577 1.363 . S
C1576 C1582 1.379 . S
C1576 N1584 1.356 . S
C1577 C1576 1.363 . S
C1577 C1583 1.363 . S
C1578 C1579 1.363 . S
C1578 C1583 1.379 . S
C1578 N1585 1.356 . S
C1579 C1578 1.363 . S
C1579 C1582 1.363 . S
N1580 C1582 1.356 . S
N1580 H1592 0.984 . S
N1580 H1593 0.985 . S
N1581 C1583 1.356 . S
N1581 H1586 0.984 . S
N1581 H1587 0.985 . S
C1582 C1576 1.379 . S
C1582 C1579 1.363 . S
C1582 N1580 1.356 . S
C1583 C1577 1.363 . S
C1583 C1578 1.379 . S
C1583 N1581 1.356 . S
N1584 C1576 1.356 . S
N1584 H1590 0.984 . S
N1584 H1591 0.984 . S
N1585 C1578 1.356 . S
N1585 H1588 0.984 . S
N1585 H1589 0.985 . S
H1586 N1581 0.984 . S
H1587 N1581 0.985 . S
H1588 N1585 0.984 . S
H1589 N1585 0.985 . S
H1590 N1584 0.984 . S
H1591 N1584 0.984 . S
H1592 N1580 0.984 . S
H1593 N1580 0.985 . S
C1594 C1595 1.363 . S
C1594 C1600 1.379 . S
C1594 N1602 1.356 . S
C1595 C1594 1.363 . S
C1595 C1601 1.363 . S
C1596 C1597 1.363 . S
C1596 C1601 1.379 . S
C1596 N1603 1.356 . S
C1597 C1596 1.363 . S
C1597 C1600 1.363 . S
N1598 C1600 1.356 . S
N1598 H1610 0.984 . S
N1598 H1611 0.985 . S
N1599 C1601 1.356 . S
N1599 H1604 0.984 . S
N1599 H1605 0.985 . S
C1600 C1594 1.379 . S
C1600 C1597 1.363 . S
C1600 N1598 1.356 . S
C1601 C1595 1.363 . S
C1601 C1596 1.379 . S
C1601 N1599 1.356 . S
N1602 C1594 1.356 . S
N1602 H1608 0.984 . S
N1602 H1609 0.984 . S
N1603 C1596 1.356 . S
N1603 H1606 0.984 . S
N1603 H1607 0.985 1_455 S
H1604 N1599 0.984 . S
H1605 N1599 0.985 . S
H1606 N1603 0.984 . S
H1607 N1603 0.985 1_655 S
H1608 N1602 0.984 . S
H1609 N1602 0.984 . S
H1610 N1598 0.984 . S
H1611 N1598 0.985 . S
C1612 C1613 1.363 . S
C1612 C1618 1.379 . S
C1612 N1620 1.356 . S
C1613 C1612 1.363 . S
C1613 C1619 1.363 . S
C1614 C1615 1.363 . S
C1614 C1619 1.379 . S
C1614 N1621 1.356 . S
C1615 C1614 1.363 . S
C1615 C1618 1.363 . S
N1616 C1618 1.356 . S
N1616 H1628 0.984 . S
N1616 H1629 0.985 . S
N1617 C1619 1.356 . S
N1617 H1622 0.984 . S
N1617 H1623 0.985 . S
C1618 C1612 1.379 . S
C1618 C1615 1.363 . S
C1618 N1616 1.356 . S
C1619 C1613 1.363 . S
C1619 C1614 1.379 . S
C1619 N1617 1.356 . S
N1620 C1612 1.356 . S
N1620 H1626 0.984 . S
N1620 H1627 0.984 . S
N1621 C1614 1.356 . S
N1621 H1624 0.984 . S
N1621 H1625 0.985 . S
H1622 N1617 0.984 . S
H1623 N1617 0.985 . S
H1624 N1621 0.984 . S
H1625 N1621 0.985 . S
H1626 N1620 0.984 . S
H1627 N1620 0.984 . S
H1628 N1616 0.984 . S
H1629 N1616 0.985 . S
C1630 C1631 1.363 . S
C1630 C1636 1.379 . S
C1630 N1638 1.356 . S
C1631 C1630 1.363 . S
C1631 C1637 1.363 . S
C1632 C1633 1.363 . S
C1632 C1637 1.379 . S
C1632 N1639 1.356 . S
C1633 C1632 1.363 . S
C1633 C1636 1.363 . S
N1634 C1636 1.356 . S
N1634 H1646 0.984 . S
N1634 H1647 0.985 . S
N1635 C1637 1.356 . S
N1635 H1640 0.984 . S
N1635 H1641 0.985 . S
C1636 C1630 1.379 . S
C1636 C1633 1.363 . S
C1636 N1634 1.356 . S
C1637 C1631 1.363 . S
C1637 C1632 1.379 . S
C1637 N1635 1.356 . S
N1638 C1630 1.356 . S
N1638 H1644 0.984 . S
N1638 H1645 0.984 . S
N1639 C1632 1.356 . S
N1639 H1642 0.984 . S
N1639 H1643 0.985 . S
H1640 N1635 0.984 . S
H1641 N1635 0.985 . S
H1642 N1639 0.984 . S
H1643 N1639 0.985 . S
H1644 N1638 0.984 . S
H1645 N1638 0.984 . S
H1646 N1634 0.984 . S
H1647 N1634 0.985 . S
C1648 C1649 1.363 . S
C1648 C1654 1.379 . S
C1648 N1656 1.356 . S
C1649 C1648 1.363 . S
C1649 C1655 1.363 . S
C1650 C1651 1.363 . S
C1650 C1655 1.379 . S
C1650 N1657 1.356 . S
C1651 C1650 1.363 . S
C1651 C1654 1.363 . S
N1652 C1654 1.356 . S
N1652 H1664 0.984 . S
N1652 H1665 0.985 . S
N1653 C1655 1.356 . S
N1653 H1658 0.984 . S
N1653 H1659 0.985 . S
C1654 C1648 1.379 . S
C1654 C1651 1.363 . S
C1654 N1652 1.356 . S
C1655 C1649 1.363 . S
C1655 C1650 1.379 . S
C1655 N1653 1.356 . S
N1656 C1648 1.356 . S
N1656 H1662 0.984 . S
N1656 H1663 0.984 . S
N1657 C1650 1.356 . S
N1657 H1660 0.984 . S
N1657 H1661 0.985 . S
H1658 N1653 0.984 . S
H1659 N1653 0.985 . S
H1660 N1657 0.984 . S
H1661 N1657 0.985 . S
H1662 N1656 0.984 . S
H1663 N1656 0.984 . S
H1664 N1652 0.984 . S
H1665 N1652 0.985 . S
C1666 C1667 1.363 . S
C1666 C1672 1.379 . S
C1666 N1674 1.356 . S
C1667 C1666 1.363 . S
C1667 C1673 1.363 . S
C1668 C1669 1.363 . S
C1668 C1673 1.379 . S
C1668 N1675 1.356 . S
C1669 C1668 1.363 . S
C1669 C1672 1.363 . S
N1670 C1672 1.356 . S
N1670 H1682 0.984 . S
N1670 H1683 0.985 . S
N1671 C1673 1.356 . S
N1671 H1676 0.984 . S
N1671 H1677 0.985 . S
C1672 C1666 1.379 . S
C1672 C1669 1.363 . S
C1672 N1670 1.356 . S
C1673 C1667 1.363 . S
C1673 C1668 1.379 . S
C1673 N1671 1.356 . S
N1674 C1666 1.356 . S
N1674 H1680 0.984 . S
N1674 H1681 0.984 . S
N1675 C1668 1.356 . S
N1675 H1678 0.984 . S
N1675 H1679 0.985 . S
H1676 N1671 0.984 . S
H1677 N1671 0.985 . S
H1678 N1675 0.984 . S
H1679 N1675 0.985 . S
H1680 N1674 0.984 . S
H1681 N1674 0.984 . S
H1682 N1670 0.984 . S
H1683 N1670 0.985 . S
C1684 C1685 1.363 1_565 S
C1684 C1690 1.379 . S
C1684 N1692 1.363 . S
C1685 C1684 1.363 1_545 S
C1685 C1691 1.363 1_556 S
C1686 C1687 1.363 . S
C1686 C1691 1.379 1_565 S
C1686 N1693 1.356 . S
C1687 C1686 1.363 . S
C1687 C1690 1.363 1_554 S
N1688 C1690 1.356 . S
N1688 H1700 0.984 . S
N1688 H1701 0.984 1_556 S
N1689 C1691 1.356 . S
N1689 H1694 0.984 . S
N1689 H1695 0.985 . S
C1690 C1684 1.379 . S
C1690 C1687 1.363 1_556 S
C1690 N1688 1.356 . S
C1691 C1685 1.363 1_554 S
C1691 C1686 1.379 1_545 S
C1691 N1689 1.356 . S
N1692 C1684 1.363 . S
N1692 H1698 0.992 . S
N1692 H1699 0.970 1_565 S
N1693 C1686 1.356 . S
N1693 H1696 0.984 . S
N1693 H1697 0.972 1_565 S
H1694 N1689 0.984 . S
H1695 N1689 0.985 . S
H1696 N1693 0.984 . S
H1697 N1693 0.972 1_545 S
H1698 N1692 0.992 . S
H1699 N1692 0.970 1_545 S
H1700 N1688 0.984 . S
H1701 N1688 0.984 1_554 S
C1702 C1703 1.363 . S
C1702 C1708 1.379 . S
C1702 N1710 1.356 . S
C1703 C1702 1.363 . S
C1703 C1709 1.363 . S
C1704 C1705 1.363 . S
C1704 C1709 1.379 . S
C1704 N1711 1.356 . S
C1705 C1704 1.363 . S
C1705 C1708 1.363 . S
N1706 C1708 1.356 . S
N1706 H1718 0.984 . S
N1706 H1719 0.985 . S
N1707 C1709 1.356 . S
N1707 H1712 0.984 . S
N1707 H1713 0.985 . S
C1708 C1702 1.379 . S
C1708 C1705 1.363 . S
C1708 N1706 1.356 . S
C1709 C1703 1.363 . S
C1709 C1704 1.379 . S
C1709 N1707 1.356 . S
N1710 C1702 1.356 . S
N1710 H1716 0.984 . S
N1710 H1717 0.984 . S
N1711 C1704 1.356 . S
N1711 H1714 0.984 . S
N1711 H1715 0.985 . S
H1712 N1707 0.984 . S
H1713 N1707 0.985 . S
H1714 N1711 0.984 . S
H1715 N1711 0.985 . S
H1716 N1710 0.984 . S
H1717 N1710 0.984 . S
H1718 N1706 0.984 . S
H1719 N1706 0.985 . S
C1720 C1721 1.363 . S
C1720 C1726 1.379 . S
C1720 N1728 1.356 1_545 S
C1721 C1720 1.363 . S
C1721 C1727 1.363 . S
C1722 C1723 1.363 . S
C1722 C1727 1.379 . S
C1722 N1729 1.356 . S
C1723 C1722 1.363 . S
C1723 C1726 1.363 . S
N1724 C1726 1.356 . S
N1724 H1736 0.984 . S
N1724 H1737 0.985 . S
N1725 C1727 1.356 . S
N1725 H1730 0.984 . S
N1725 H1731 0.985 . S
C1726 C1720 1.379 . S
C1726 C1723 1.363 . S
C1726 N1724 1.356 . S
C1727 C1721 1.363 . S
C1727 C1722 1.379 . S
C1727 N1725 1.356 . S
N1728 C1720 1.356 1_565 S
N1728 H1734 0.984 . S
N1728 H1735 0.984 . S
N1729 C1722 1.356 . S
N1729 H1732 0.984 . S
N1729 H1733 0.985 . S
H1730 N1725 0.984 . S
H1731 N1725 0.985 . S
H1732 N1729 0.984 . S
H1733 N1729 0.985 . S
H1734 N1728 0.984 . S
H1735 N1728 0.984 . S
H1736 N1724 0.984 . S
H1737 N1724 0.985 . S
C1738 C1739 1.363 . S
C1738 C1744 1.379 . S
C1738 N1746 1.356 . S
C1739 C1738 1.363 . S
C1739 C1745 1.363 . S
C1740 C1741 1.363 . S
C1740 C1745 1.379 . S
C1740 N1747 1.356 . S
C1741 C1740 1.363 . S
C1741 C1744 1.363 . S
N1742 C1744 1.356 . S
N1742 H1754 0.984 . S
N1742 H1755 0.985 . S
N1743 C1745 1.356 . S
N1743 H1748 0.984 . S
N1743 H1749 0.985 . S
C1744 C1738 1.379 . S
C1744 C1741 1.363 . S
C1744 N1742 1.356 . S
C1745 C1739 1.363 . S
C1745 C1740 1.379 . S
C1745 N1743 1.356 . S
N1746 C1738 1.356 . S
N1746 H1752 0.984 . S
N1746 H1753 0.984 . S
N1747 C1740 1.356 . S
N1747 H1750 0.984 . S
N1747 H1751 0.985 . S
H1748 N1743 0.984 . S
H1749 N1743 0.985 . S
H1750 N1747 0.984 . S
H1751 N1747 0.985 . S
H1752 N1746 0.984 . S
H1753 N1746 0.984 . S
H1754 N1742 0.984 . S
H1755 N1742 0.985 . S
C1756 C1757 1.363 . S
C1756 C1762 1.379 . S
C1756 N1764 1.356 . S
C1757 C1756 1.363 . S
C1757 C1763 1.363 . S
C1758 C1759 1.363 . S
C1758 C1763 1.379 . S
C1758 N1765 1.356 . S
C1759 C1758 1.363 . S
C1759 C1762 1.363 . S
N1760 C1762 1.356 . S
N1760 H1772 0.984 . S
N1760 H1773 0.985 . S
N1761 C1763 1.356 . S
N1761 H1766 0.984 . S
N1761 H1767 0.985 . S
C1762 C1756 1.379 . S
C1762 C1759 1.363 . S
C1762 N1760 1.356 . S
C1763 C1757 1.363 . S
C1763 C1758 1.379 . S
C1763 N1761 1.356 . S
N1764 C1756 1.356 . S
N1764 H1770 0.984 . S
N1764 H1771 0.984 . S
N1765 C1758 1.356 . S
N1765 H1768 0.984 . S
N1765 H1769 0.985 . S
H1766 N1761 0.984 . S
H1767 N1761 0.985 . S
H1768 N1765 0.984 . S
H1769 N1765 0.985 . S
H1770 N1764 0.984 . S
H1771 N1764 0.984 . S
H1772 N1760 0.984 . S
H1773 N1760 0.985 . S
C1774 C1775 1.363 . S
C1774 C1780 1.379 . S
C1774 N1782 1.356 . S
C1775 C1774 1.363 . S
C1775 C1781 1.363 . S
C1776 C1777 1.363 . S
C1776 C1781 1.379 . S
C1776 N1783 1.356 . S
C1777 C1776 1.363 . S
C1777 C1780 1.363 . S
N1778 C1780 1.356 . S
N1778 H1790 0.984 . S
N1778 H1791 0.985 . S
N1779 C1781 1.356 . S
N1779 H1784 0.984 . S
N1779 H1785 0.985 . S
C1780 C1774 1.379 . S
C1780 C1777 1.363 . S
C1780 N1778 1.356 . S
C1781 C1775 1.363 . S
C1781 C1776 1.379 . S
C1781 N1779 1.356 . S
N1782 C1774 1.356 . S
N1782 H1788 0.984 . S
N1782 H1789 0.984 . S
N1783 C1776 1.356 . S
N1783 H1786 0.984 . S
N1783 H1787 0.985 . S
H1784 N1779 0.984 . S
H1785 N1779 0.985 . S
H1786 N1783 0.984 . S
H1787 N1783 0.985 . S
H1788 N1782 0.984 . S
H1789 N1782 0.984 . S
H1790 N1778 0.984 . S
H1791 N1778 0.985 . S
C1792 C1793 1.363 . S
C1792 C1798 1.379 . S
C1792 N1800 1.356 . S
C1793 C1792 1.363 . S
C1793 C1799 1.363 . S
C1794 C1795 1.363 . S
C1794 C1799 1.379 . S
C1794 N1801 1.356 . S
C1795 C1794 1.363 . S
C1795 C1798 1.363 . S
N1796 C1798 1.356 . S
N1796 H1808 0.984 . S
N1796 H1809 0.985 . S
N1797 C1799 1.356 . S
N1797 H1802 0.984 . S
N1797 H1803 0.985 . S
C1798 C1792 1.379 . S
C1798 C1795 1.363 . S
C1798 N1796 1.356 . S
C1799 C1793 1.363 . S
C1799 C1794 1.379 . S
C1799 N1797 1.356 . S
N1800 C1792 1.356 . S
N1800 H1806 0.984 . S
N1800 H1807 0.984 . S
N1801 C1794 1.356 . S
N1801 H1804 0.984 . S
N1801 H1805 0.985 . S
H1802 N1797 0.984 . S
H1803 N1797 0.985 . S
H1804 N1801 0.984 . S
H1805 N1801 0.985 . S
H1806 N1800 0.984 . S
H1807 N1800 0.984 . S
H1808 N1796 0.984 . S
H1809 N1796 0.985 . S
C1810 C1811 1.363 . S
C1810 C1816 1.379 . S
C1810 N1818 1.356 . S
C1811 C1810 1.363 . S
C1811 C1817 1.363 . S
C1812 C1813 1.363 . S
C1812 C1817 1.379 . S
C1812 N1819 1.356 . S
C1813 C1812 1.363 . S
C1813 C1816 1.363 . S
N1814 C1816 1.356 . S
N1814 H1826 0.984 . S
N1814 H1827 0.985 . S
N1815 C1817 1.356 . S
N1815 H1820 0.984 . S
N1815 H1821 0.985 1_545 S
C1816 C1810 1.379 . S
C1816 C1813 1.363 . S
C1816 N1814 1.356 . S
C1817 C1811 1.363 . S
C1817 C1812 1.379 . S
C1817 N1815 1.356 . S
N1818 C1810 1.356 . S
N1818 H1824 0.984 . S
N1818 H1825 0.984 . S
N1819 C1812 1.356 . S
N1819 H1822 0.984 . S
N1819 H1823 0.985 1_545 S
H1820 N1815 0.984 . S
H1821 N1815 0.985 1_565 S
H1822 N1819 0.984 . S
H1823 N1819 0.985 1_565 S
H1824 N1818 0.984 . S
H1825 N1818 0.984 . S
H1826 N1814 0.984 . S
H1827 N1814 0.985 . S
C1828 C1829 1.363 . S
C1828 C1834 1.379 . S
C1828 N1836 1.356 . S
C1829 C1828 1.363 . S
C1829 C1835 1.363 . S
C1830 C1831 1.363 . S
C1830 C1835 1.379 . S
C1830 N1837 1.356 . S
C1831 C1830 1.363 . S
C1831 C1834 1.363 . S
N1832 C1834 1.356 . S
N1832 H1844 0.984 . S
N1832 H1845 0.985 . S
N1833 C1835 1.356 . S
N1833 H1838 0.984 . S
N1833 H1839 0.985 . S
C1834 C1828 1.379 . S
C1834 C1831 1.363 . S
C1834 N1832 1.356 . S
C1835 C1829 1.363 . S
C1835 C1830 1.379 . S
C1835 N1833 1.356 . S
N1836 C1828 1.356 . S
N1836 H1842 0.984 . S
N1836 H1843 0.984 . S
N1837 C1830 1.356 . S
N1837 H1840 0.984 . S
N1837 H1841 0.985 . S
H1838 N1833 0.984 . S
H1839 N1833 0.985 . S
H1840 N1837 0.984 . S
H1841 N1837 0.985 . S
H1842 N1836 0.984 . S
H1843 N1836 0.984 . S
H1844 N1832 0.984 . S
H1845 N1832 0.985 . S
C1846 C1847 1.363 . S
C1846 C1852 1.379 . S
C1846 N1854 1.356 . S
C1847 C1846 1.363 . S
C1847 C1853 1.363 . S
C1848 C1849 1.363 . S
C1848 C1853 1.379 . S
C1848 N1855 1.356 . S
C1849 C1848 1.363 . S
C1849 C1852 1.363 . S
N1850 C1852 1.356 . S
N1850 H1862 0.984 . S
N1850 H1863 0.985 . S
N1851 C1853 1.356 . S
N1851 H1856 0.984 . S
N1851 H1857 0.985 . S
C1852 C1846 1.379 . S
C1852 C1849 1.363 . S
C1852 N1850 1.356 . S
C1853 C1847 1.363 . S
C1853 C1848 1.379 . S
C1853 N1851 1.356 . S
N1854 C1846 1.356 . S
N1854 H1860 0.984 . S
N1854 H1861 0.984 . S
N1855 C1848 1.356 . S
N1855 H1858 0.984 . S
N1855 H1859 0.985 . S
H1856 N1851 0.984 . S
H1857 N1851 0.985 . S
H1858 N1855 0.984 . S
H1859 N1855 0.985 . S
H1860 N1854 0.984 . S
H1861 N1854 0.984 . S
H1862 N1850 0.984 . S
H1863 N1850 0.985 . S
C1864 C1865 1.363 . S
C1864 C1870 1.379 . S
C1864 N1872 1.356 . S
C1865 C1864 1.363 . S
C1865 C1871 1.363 . S
C1866 C1867 1.363 . S
C1866 C1871 1.379 . S
C1866 N1873 1.356 . S
C1867 C1866 1.363 . S
C1867 C1870 1.363 . S
N1868 C1870 1.356 . S
N1868 H1880 0.984 . S
N1868 H1881 0.985 . S
N1869 C1871 1.356 . S
N1869 H1874 0.984 . S
N1869 H1875 0.985 . S
C1870 C1864 1.379 . S
C1870 C1867 1.363 . S
C1870 N1868 1.356 . S
C1871 C1865 1.363 . S
C1871 C1866 1.379 . S
C1871 N1869 1.356 . S
N1872 C1864 1.356 . S
N1872 H1878 0.984 . S
N1872 H1879 0.984 . S
N1873 C1866 1.356 . S
N1873 H1876 0.984 . S
N1873 H1877 0.985 . S
H1874 N1869 0.984 . S
H1875 N1869 0.985 . S
H1876 N1873 0.984 . S
H1877 N1873 0.985 . S
H1878 N1872 0.984 . S
H1879 N1872 0.984 . S
H1880 N1868 0.984 . S
H1881 N1868 0.985 . S
C1882 C1883 1.363 . S
C1882 C1888 1.379 . S
C1882 N1890 1.356 1_545 S
C1883 C1882 1.363 . S
C1883 C1889 1.363 . S
C1884 C1885 1.363 . S
C1884 C1889 1.379 . S
C1884 N1891 1.356 . S
C1885 C1884 1.363 . S
C1885 C1888 1.363 . S
N1886 C1888 1.356 1_665 S
N1886 H1898 0.984 . S
N1886 H1899 0.985 1_565 S
N1887 C1889 1.356 . S
N1887 H1892 0.984 . S
N1887 H1893 0.985 . S
C1888 C1882 1.379 . S
C1888 C1885 1.363 . S
C1888 N1886 1.356 1_445 S
C1889 C1883 1.363 . S
C1889 C1884 1.379 . S
C1889 N1887 1.356 . S
N1890 C1882 1.356 1_565 S
N1890 H1896 0.984 1_455 S
N1890 H1897 0.984 . S
N1891 C1884 1.356 . S
N1891 H1894 0.984 . S
N1891 H1895 0.985 . S
H1892 N1887 0.984 . S
H1893 N1887 0.985 . S
H1894 N1891 0.984 . S
H1895 N1891 0.985 . S
H1896 N1890 0.984 1_655 S
H1897 N1890 0.984 . S
H1898 N1886 0.984 . S
H1899 N1886 0.985 1_545 S
C1900 C1901 1.363 . S
C1900 C1906 1.379 . S
C1900 N1908 1.356 . S
C1901 C1900 1.363 . S
C1901 C1907 1.363 . S
C1902 C1903 1.363 . S
C1902 C1907 1.379 . S
C1902 N1909 1.356 . S
C1903 C1902 1.363 . S
C1903 C1906 1.363 . S
N1904 C1906 1.356 . S
N1904 H1916 0.984 . S
N1904 H1917 0.985 . S
N1905 C1907 1.356 . S
N1905 H1910 0.984 . S
N1905 H1911 0.985 . S
C1906 C1900 1.379 . S
C1906 C1903 1.363 . S
C1906 N1904 1.356 . S
C1907 C1901 1.363 . S
C1907 C1902 1.379 . S
C1907 N1905 1.356 . S
N1908 C1900 1.356 . S
N1908 H1914 0.984 . S
N1908 H1915 0.984 . S
N1909 C1902 1.356 . S
N1909 H1912 0.984 . S
N1909 H1913 0.985 . S
H1910 N1905 0.984 . S
H1911 N1905 0.985 . S
H1912 N1909 0.984 . S
H1913 N1909 0.985 . S
H1914 N1908 0.984 . S
H1915 N1908 0.984 . S
H1916 N1904 0.984 . S
H1917 N1904 0.985 . S
C1918 C1919 1.363 . S
C1918 C1924 1.379 . S
C1918 N1926 1.356 . S
C1919 C1918 1.363 . S
C1919 C1925 1.363 . S
C1920 C1921 1.363 . S
C1920 C1925 1.379 . S
C1920 N1927 1.356 . S
C1921 C1920 1.363 . S
C1921 C1924 1.363 . S
N1922 C1924 1.356 . S
N1922 H1934 0.984 . S
N1922 H1935 0.985 . S
N1923 C1925 1.356 . S
N1923 H1928 0.984 1_455 S
N1923 H1929 0.985 1_455 S
C1924 C1918 1.379 . S
C1924 C1921 1.363 . S
C1924 N1922 1.356 . S
C1925 C1919 1.363 . S
C1925 C1920 1.379 . S
C1925 N1923 1.356 . S
N1926 C1918 1.356 . S
N1926 H1932 0.984 . S
N1926 H1933 0.984 . S
N1927 C1920 1.356 . S
N1927 H1930 0.984 . S
N1927 H1931 0.985 . S
H1928 N1923 0.984 1_655 S
H1929 N1923 0.985 1_655 S
H1930 N1927 0.984 . S
H1931 N1927 0.985 . S
H1932 N1926 0.984 . S
H1933 N1926 0.984 . S
H1934 N1922 0.984 . S
H1935 N1922 0.985 . S
C1936 C1937 1.363 . S
C1936 C1942 1.379 . S
C1936 N1944 1.356 . S
C1937 C1936 1.363 . S
C1937 C1943 1.363 . S
C1938 C1939 1.363 . S
C1938 C1943 1.379 . S
C1938 N1945 1.356 . S
C1939 C1938 1.363 . S
C1939 C1942 1.363 . S
N1940 C1942 1.356 . S
N1940 H1952 0.984 . S
N1940 H1953 0.985 . S
N1941 C1943 1.356 . S
N1941 H1946 0.984 . S
N1941 H1947 0.985 . S
C1942 C1936 1.379 . S
C1942 C1939 1.363 . S
C1942 N1940 1.356 . S
C1943 C1937 1.363 . S
C1943 C1938 1.379 . S
C1943 N1941 1.356 . S
N1944 C1936 1.356 . S
N1944 H1950 0.984 . S
N1944 H1951 0.984 . S
N1945 C1938 1.356 . S
N1945 H1948 0.984 . S
N1945 H1949 0.985 . S
H1946 N1941 0.984 . S
H1947 N1941 0.985 . S
H1948 N1945 0.984 . S
H1949 N1945 0.985 . S
H1950 N1944 0.984 . S
H1951 N1944 0.984 . S
H1952 N1940 0.984 . S
H1953 N1940 0.985 . S
C1954 C1955 1.363 1_655 S
C1954 C1960 1.379 . S
C1954 N1962 1.356 . S
C1955 C1954 1.363 1_455 S
C1955 C1961 1.363 . S
C1956 C1957 1.363 . S
C1956 C1961 1.379 . S
C1956 N1963 1.356 . S
C1957 C1956 1.363 . S
C1957 C1960 1.363 1_455 S
N1958 C1960 1.356 . S
N1958 H1970 0.984 . S
N1958 H1971 0.985 . S
N1959 C1961 1.369 . S
N1959 H1964 0.984 1_556 S
N1959 H1965 0.973 1_556 S
C1960 C1954 1.379 . S
C1960 C1957 1.363 1_655 S
C1960 N1958 1.356 . S
C1961 C1955 1.363 . S
C1961 C1956 1.379 . S
C1961 N1959 1.369 . S
N1962 C1954 1.356 . S
N1962 H1968 0.984 . S
N1962 H1969 0.984 . S
N1963 C1956 1.356 . S
N1963 H1966 0.984 . S
N1963 H1967 0.985 . S
H1964 N1959 0.984 1_554 S
H1965 N1959 0.973 1_554 S
H1966 N1963 0.984 . S
H1967 N1963 0.985 . S
H1968 N1962 0.984 . S
H1969 N1962 0.984 . S
H1970 N1958 0.984 . S
H1971 N1958 0.985 . S
C1972 C1973 1.363 . S
C1972 C1978 1.379 . S
C1972 N1980 1.356 . S
C1973 C1972 1.363 . S
C1973 C1979 1.363 . S
C1974 C1975 1.363 . S
C1974 C1979 1.379 . S
C1974 N1981 1.356 . S
C1975 C1974 1.363 . S
C1975 C1978 1.363 . S
N1976 C1978 1.356 . S
N1976 H1988 0.984 . S
N1976 H1989 0.985 . S
N1977 C1979 1.356 . S
N1977 H1982 0.984 . S
N1977 H1983 0.985 . S
C1978 C1972 1.379 . S
C1978 C1975 1.363 . S
C1978 N1976 1.356 . S
C1979 C1973 1.363 . S
C1979 C1974 1.379 . S
C1979 N1977 1.356 . S
N1980 C1972 1.356 . S
N1980 H1986 0.984 . S
N1980 H1987 0.984 . S
N1981 C1974 1.356 . S
N1981 H1984 0.984 . S
N1981 H1985 0.985 . S
H1982 N1977 0.984 . S
H1983 N1977 0.985 . S
H1984 N1981 0.984 . S
H1985 N1981 0.985 . S
H1986 N1980 0.984 . S
H1987 N1980 0.984 . S
H1988 N1976 0.984 . S
H1989 N1976 0.985 . S
C1990 C1991 1.363 . S
C1990 C1996 1.379 . S
C1990 N1998 1.328 1_556 S
C1991 C1990 1.363 . S
C1991 C1997 1.363 . S
C1992 C1993 1.363 . S
C1992 C1997 1.379 . S
C1992 N1999 1.356 . S
C1993 C1992 1.363 . S
C1993 C1996 1.363 . S
N1994 C1996 1.356 1_655 S
N1994 H2006 0.984 . S
N1994 H2007 0.985 . S
N1995 C1997 1.356 . S
N1995 H2000 0.984 . S
N1995 H2001 0.985 . S
C1996 C1990 1.379 . S
C1996 C1993 1.363 . S
C1996 N1994 1.356 1_455 S
C1997 C1991 1.363 . S
C1997 C1992 1.379 . S
C1997 N1995 1.356 . S
N1998 C1990 1.328 1_554 S
N1998 H2004 0.994 1_455 S
N1998 H2005 1.003 . S
N1999 C1992 1.356 . S
N1999 H2002 0.984 . S
N1999 H2003 0.985 . S
H2000 N1995 0.984 . S
H2001 N1995 0.985 . S
H2002 N1999 0.984 . S
H2003 N1999 0.985 . S
H2004 N1998 0.994 1_655 S
H2005 N1998 1.003 . S
H2006 N1994 0.984 . S
H2007 N1994 0.985 . S
C2008 C2009 1.363 . S
C2008 C2014 1.379 . S
C2008 N2016 1.356 . S
C2009 C2008 1.363 . S
C2009 C2015 1.363 . S
C2010 C2011 1.363 . S
C2010 C2015 1.379 . S
C2010 N2017 1.356 . S
C2011 C2010 1.363 . S
C2011 C2014 1.363 . S
N2012 C2014 1.356 . S
N2012 H2024 0.984 . S
N2012 H2025 0.985 . S
N2013 C2015 1.356 . S
N2013 H2018 0.984 . S
N2013 H2019 0.985 . S
C2014 C2008 1.379 . S
C2014 C2011 1.363 . S
C2014 N2012 1.356 . S
C2015 C2009 1.363 . S
C2015 C2010 1.379 . S
C2015 N2013 1.356 . S
N2016 C2008 1.356 . S
N2016 H2022 0.984 . S
N2016 H2023 0.984 . S
N2017 C2010 1.356 . S
N2017 H2020 0.984 . S
N2017 H2021 0.985 . S
H2018 N2013 0.984 . S
H2019 N2013 0.985 . S
H2020 N2017 0.984 . S
H2021 N2017 0.985 . S
H2022 N2016 0.984 . S
H2023 N2016 0.984 . S
H2024 N2012 0.984 . S
H2025 N2012 0.985 . S
C2026 C2027 1.363 . S
C2026 C2032 1.379 . S
C2026 N2034 1.356 . S
C2027 C2026 1.363 . S
C2027 C2033 1.363 . S
C2028 C2029 1.363 . S
C2028 C2033 1.379 . S
C2028 N2035 1.356 . S
C2029 C2028 1.363 . S
C2029 C2032 1.363 . S
N2030 C2032 1.356 . S
N2030 H2042 0.984 . S
N2030 H2043 0.985 . S
N2031 C2033 1.356 . S
N2031 H2036 0.984 . S
N2031 H2037 0.985 . S
C2032 C2026 1.379 . S
C2032 C2029 1.363 . S
C2032 N2030 1.356 . S
C2033 C2027 1.363 . S
C2033 C2028 1.379 . S
C2033 N2031 1.356 . S
N2034 C2026 1.356 . S
N2034 H2040 0.984 . S
N2034 H2041 0.984 . S
N2035 C2028 1.356 . S
N2035 H2038 0.984 . S
N2035 H2039 0.985 . S
H2036 N2031 0.984 . S
H2037 N2031 0.985 . S
H2038 N2035 0.984 . S
H2039 N2035 0.985 . S
H2040 N2034 0.984 . S
H2041 N2034 0.984 . S
H2042 N2030 0.984 . S
H2043 N2030 0.985 . S
C2044 C2045 1.363 . S
C2044 C2050 1.379 . S
C2044 N2052 1.356 . S
C2045 C2044 1.363 . S
C2045 C2051 1.363 . S
C2046 C2047 1.363 . S
C2046 C2051 1.379 . S
C2046 N2053 1.356 . S
C2047 C2046 1.363 . S
C2047 C2050 1.363 . S
N2048 C2050 1.356 . S
N2048 H2060 0.984 . S
N2048 H2061 0.985 . S
N2049 C2051 1.356 . S
N2049 H2054 0.984 . S
N2049 H2055 0.985 . S
C2050 C2044 1.379 . S
C2050 C2047 1.363 . S
C2050 N2048 1.356 . S
C2051 C2045 1.363 . S
C2051 C2046 1.379 . S
C2051 N2049 1.356 . S
N2052 C2044 1.356 . S
N2052 H2058 0.984 . S
N2052 H2059 0.984 . S
N2053 C2046 1.356 . S
N2053 H2056 0.984 . S
N2053 H2057 0.985 . S
H2054 N2049 0.984 . S
H2055 N2049 0.985 . S
H2056 N2053 0.984 . S
H2057 N2053 0.985 . S
H2058 N2052 0.984 . S
H2059 N2052 0.984 . S
H2060 N2048 0.984 . S
H2061 N2048 0.985 . S
C2062 C2063 1.363 . S
C2062 C2068 1.379 . S
C2062 N2070 1.356 . S
C2063 C2062 1.363 . S
C2063 C2069 1.363 . S
C2064 C2065 1.363 . S
C2064 C2069 1.379 . S
C2064 N2071 1.356 . S
C2065 C2064 1.363 . S
C2065 C2068 1.363 . S
N2066 C2068 1.356 . S
N2066 H2078 0.984 . S
N2066 H2079 0.985 . S
N2067 C2069 1.356 1_556 S
N2067 H2072 0.984 . S
N2067 H2073 0.985 . S
C2068 C2062 1.379 . S
C2068 C2065 1.363 . S
C2068 N2066 1.356 . S
C2069 C2063 1.363 . S
C2069 C2064 1.379 . S
C2069 N2067 1.356 1_554 S
N2070 C2062 1.356 . S
N2070 H2076 0.984 . S
N2070 H2077 0.984 1_554 S
N2071 C2064 1.356 . S
N2071 H2074 0.984 . S
N2071 H2075 0.985 . S
H2072 N2067 0.984 . S
H2073 N2067 0.985 . S
H2074 N2071 0.984 . S
H2075 N2071 0.985 . S
H2076 N2070 0.984 . S
H2077 N2070 0.984 1_556 S
H2078 N2066 0.984 . S
H2079 N2066 0.985 . S
C2080 C2081 1.363 . S
C2080 C2086 1.379 . S
C2080 N2088 1.356 . S
C2081 C2080 1.363 . S
C2081 C2087 1.363 . S
C2082 C2083 1.363 . S
C2082 C2087 1.379 . S
C2082 N2089 1.356 . S
C2083 C2082 1.363 . S
C2083 C2086 1.363 . S
N2084 C2086 1.356 . S
N2084 H2096 0.984 . S
N2084 H2097 0.985 . S
N2085 C2087 1.356 . S
N2085 H2090 0.984 . S
N2085 H2091 0.985 . S
C2086 C2080 1.379 . S
C2086 C2083 1.363 . S
C2086 N2084 1.356 . S
C2087 C2081 1.363 . S
C2087 C2082 1.379 . S
C2087 N2085 1.356 . S
N2088 C2080 1.356 . S
N2088 H2094 0.984 . S
N2088 H2095 0.984 . S
N2089 C2082 1.356 . S
N2089 H2092 0.984 . S
N2089 H2093 0.985 . S
H2090 N2085 0.984 . S
H2091 N2085 0.985 . S
H2092 N2089 0.984 . S
H2093 N2089 0.985 . S
H2094 N2088 0.984 . S
H2095 N2088 0.984 . S
H2096 N2084 0.984 . S
H2097 N2084 0.985 . S
C2098 C2099 1.363 . S
C2098 C2104 1.379 . S
C2098 N2106 1.356 . S
C2099 C2098 1.363 . S
C2099 C2105 1.363 . S
C2100 C2101 1.363 . S
C2100 C2105 1.379 . S
C2100 N2107 1.356 . S
C2101 C2100 1.363 . S
C2101 C2104 1.363 . S
N2102 C2104 1.356 . S
N2102 H2114 0.984 . S
N2102 H2115 0.985 . S
N2103 C2105 1.356 . S
N2103 H2108 0.984 . S
N2103 H2109 0.985 . S
C2104 C2098 1.379 . S
C2104 C2101 1.363 . S
C2104 N2102 1.356 . S
C2105 C2099 1.363 . S
C2105 C2100 1.379 . S
C2105 N2103 1.356 . S
N2106 C2098 1.356 . S
N2106 H2112 0.984 . S
N2106 H2113 0.984 . S
N2107 C2100 1.356 . S
N2107 H2110 0.984 . S
N2107 H2111 0.985 . S
H2108 N2103 0.984 . S
H2109 N2103 0.985 . S
H2110 N2107 0.984 . S
H2111 N2107 0.985 . S
H2112 N2106 0.984 . S
H2113 N2106 0.984 . S
H2114 N2102 0.984 . S
H2115 N2102 0.985 . S
C2116 C2117 1.363 . S
C2116 C2122 1.379 . S
C2116 N2124 1.356 . S
C2117 C2116 1.363 . S
C2117 C2123 1.363 . S
C2118 C2119 1.363 . S
C2118 C2123 1.379 . S
C2118 N2125 1.356 . S
C2119 C2118 1.363 . S
C2119 C2122 1.363 . S
N2120 C2122 1.356 . S
N2120 H2132 0.984 . S
N2120 H2133 0.985 . S
N2121 C2123 1.356 . S
N2121 H2126 0.984 . S
N2121 H2127 0.985 . S
C2122 C2116 1.379 . S
C2122 C2119 1.363 . S
C2122 N2120 1.356 . S
C2123 C2117 1.363 . S
C2123 C2118 1.379 . S
C2123 N2121 1.356 . S
N2124 C2116 1.356 . S
N2124 H2130 0.984 . S
N2124 H2131 0.984 . S
N2125 C2118 1.356 . S
N2125 H2128 0.984 . S
N2125 H2129 0.985 . S
H2126 N2121 0.984 . S
H2127 N2121 0.985 . S
H2128 N2125 0.984 . S
H2129 N2125 0.985 . S
H2130 N2124 0.984 . S
H2131 N2124 0.984 . S
H2132 N2120 0.984 . S
H2133 N2120 0.985 . S
C2134 C2135 1.363 . S
C2134 C2140 1.379 . S
C2134 N2142 1.356 . S
C2135 C2134 1.363 . S
C2135 C2141 1.363 . S
C2136 C2137 1.363 . S
C2136 C2141 1.379 . S
C2136 N2143 1.356 . S
C2137 C2136 1.363 . S
C2137 C2140 1.363 . S
N2138 C2140 1.356 . S
N2138 H2150 0.984 . S
N2138 H2151 0.985 . S
N2139 C2141 1.356 . S
N2139 H2144 0.984 . S
N2139 H2145 0.985 . S
C2140 C2134 1.379 . S
C2140 C2137 1.363 . S
C2140 N2138 1.356 . S
C2141 C2135 1.363 . S
C2141 C2136 1.379 . S
C2141 N2139 1.356 . S
N2142 C2134 1.356 . S
N2142 H2148 0.984 . S
N2142 H2149 0.984 . S
N2143 C2136 1.356 . S
N2143 H2146 0.984 . S
N2143 H2147 0.985 . S
H2144 N2139 0.984 . S
H2145 N2139 0.985 . S
H2146 N2143 0.984 . S
H2147 N2143 0.985 . S
H2148 N2142 0.984 . S
H2149 N2142 0.984 . S
H2150 N2138 0.984 . S
H2151 N2138 0.985 . S
C2152 C2153 1.363 . S
C2152 C2158 1.379 . S
C2152 N2160 1.356 . S
C2153 C2152 1.363 . S
C2153 C2159 1.363 1_556 S
C2154 C2155 1.363 1_554 S
C2154 C2159 1.379 . S
C2154 N2161 1.356 . S
C2155 C2154 1.363 1_556 S
C2155 C2158 1.363 . S
N2156 C2158 1.356 . S
N2156 H2168 0.984 . S
N2156 H2169 0.985 . S
N2157 C2159 1.356 . S
N2157 H2162 0.984 . S
N2157 H2163 0.985 . S
C2158 C2152 1.379 . S
C2158 C2155 1.363 . S
C2158 N2156 1.356 . S
C2159 C2153 1.363 1_554 S
C2159 C2154 1.379 . S
C2159 N2157 1.356 . S
N2160 C2152 1.356 . S
N2160 H2166 0.984 . S
N2160 H2167 0.984 . S
N2161 C2154 1.356 . S
N2161 H2164 0.984 . S
N2161 H2165 0.985 . S
H2162 N2157 0.984 . S
H2163 N2157 0.985 . S
H2164 N2161 0.984 . S
H2165 N2161 0.985 . S
H2166 N2160 0.984 . S
H2167 N2160 0.984 . S
H2168 N2156 0.984 . S
H2169 N2156 0.985 . S
C2170 C2171 1.363 . S
C2170 C2176 1.379 . S
C2170 N2178 1.356 . S
C2171 C2170 1.363 . S
C2171 C2177 1.363 . S
C2172 C2173 1.363 . S
C2172 C2177 1.379 . S
C2172 N2179 1.356 . S
C2173 C2172 1.363 . S
C2173 C2176 1.363 . S
N2174 C2176 1.356 . S
N2174 H2186 0.984 . S
N2174 H2187 0.985 . S
N2175 C2177 1.356 . S
N2175 H2180 0.984 . S
N2175 H2181 0.985 . S
C2176 C2170 1.379 . S
C2176 C2173 1.363 . S
C2176 N2174 1.356 . S
C2177 C2171 1.363 . S
C2177 C2172 1.379 . S
C2177 N2175 1.356 . S
N2178 C2170 1.356 . S
N2178 H2184 0.984 . S
N2178 H2185 0.984 . S
N2179 C2172 1.356 . S
N2179 H2182 0.984 . S
N2179 H2183 0.985 . S
H2180 N2175 0.984 . S
H2181 N2175 0.985 . S
H2182 N2179 0.984 . S
H2183 N2179 0.985 . S
H2184 N2178 0.984 . S
H2185 N2178 0.984 . S
H2186 N2174 0.984 . S
H2187 N2174 0.985 . S
C2188 C2189 1.363 . S
C2188 C2194 1.379 1_554 S
C2188 N2196 1.356 1_554 S
C2189 C2188 1.363 . S
C2189 C2195 1.363 . S
C2190 C2191 1.363 . S
C2190 C2195 1.379 . S
C2190 N2197 1.356 . S
C2191 C2190 1.363 . S
C2191 C2194 1.363 1_554 S
N2192 C2194 1.356 . S
N2192 H2204 0.984 . S
N2192 H2205 0.985 . S
N2193 C2195 1.356 . S
N2193 H2198 0.984 . S
N2193 H2199 0.985 . S
C2194 C2188 1.379 1_556 S
C2194 C2191 1.363 1_556 S
C2194 N2192 1.356 . S
C2195 C2189 1.363 . S
C2195 C2190 1.379 . S
C2195 N2193 1.356 . S
N2196 C2188 1.356 1_556 S
N2196 H2202 0.984 . S
N2196 H2203 0.984 1_556 S
N2197 C2190 1.356 . S
N2197 H2200 0.984 . S
N2197 H2201 0.985 . S
H2198 N2193 0.984 . S
H2199 N2193 0.985 . S
H2200 N2197 0.984 . S
H2201 N2197 0.985 . S
H2202 N2196 0.984 . S
H2203 N2196 0.984 1_554 S
H2204 N2192 0.984 . S
H2205 N2192 0.985 . S
C2206 C2207 1.362 1_545 S
C2206 C2212 1.375 1_545 S
C2206 N2214 1.362 . S
C2207 C2206 1.362 1_565 S
C2207 C2213 1.363 . S
C2208 C2209 1.363 . S
C2208 C2213 1.379 . S
C2208 N2215 1.356 . S
C2209 C2208 1.363 . S
C2209 C2212 1.363 . S
N2210 C2212 1.356 . S
N2210 H2222 0.984 1_565 S
N2210 H2223 0.985 . S
N2211 C2213 1.356 . S
N2211 H2216 0.984 . S
N2211 H2217 0.985 . S
C2212 C2206 1.375 1_565 S
C2212 C2209 1.363 . S
C2212 N2210 1.356 . S
C2213 C2207 1.363 . S
C2213 C2208 1.379 . S
C2213 N2211 1.356 . S
N2214 C2206 1.362 . S
N2214 H2220 0.984 . S
N2214 H2221 0.984 . S
N2215 C2208 1.356 . S
N2215 H2218 0.984 . S
N2215 H2219 0.985 . S
H2216 N2211 0.984 . S
H2217 N2211 0.985 . S
H2218 N2215 0.984 . S
H2219 N2215 0.985 . S
H2220 N2214 0.984 . S
H2221 N2214 0.984 . S
H2222 N2210 0.984 1_545 S
H2223 N2210 0.985 . S
C1363 C353 1.880 . S
C1361 C101 1.865 . S
C1381 C412 1.144 . S
C1379 C125 1.047 . S
C1397 C139 2.052 . S
C1399 C529 2.044 . S
C1417 C597 1.828 . S
C1415 C82 1.860 . S
C1435 C676 1.635 . S
C1433 C196 1.665 . S
C1453 C801 1.888 . S
C1451 C234 1.903 . S
C1469 C220 0.912 . S
C1471 C861 0.942 . S
C1489 C969 1.711 . S
C1487 C173 1.707 . S
C1505 C211 1.396 . S
C1507 C1065 1.399 . S
C1525 C1125 1.167 . S
C1523 C182 1.136 . S
C1541 C201 1.364 . S
C1543 C1028 1.528 . S
C1561 C1145 1.412 . S
C1559 C239 1.365 . S
C1577 C135 1.686 . S
C1579 C1213 1.690 . S
C1595 C87 1.774 . S
C1597 C1204 1.939 . S
C1613 C106 1.131 . S
C1615 C1233 1.270 . S
C1631 C116 1.286 . S
C1633 C1241 1.313 . S
C1649 C59 1.905 . S
C1651 C625 1.919 . S
C1667 C268 2.212 . S
C1669 C588 2.223 . S
C1687 C324 1.261 . S
C1685 C291 1.284 . S
C1705 C421 1.485 . S
C1703 C163 1.371 . S
C1721 C78 2.034 1_545 S
C1723 C685 2.072 . S
C1741 C977 1.208 . S
C1739 C215 1.203 . S
C1759 C705 1.698 . S
C1757 C177 1.733 . S
C1777 C889 1.847 . S
C1775 C230 1.830 . S
C1795 C881 1.893 . S
C1793 C272 1.878 . S
C1811 C296 1.054 . S
C1813 C949 1.152 . S
C1829 C158 2.051 . S
C1831 C713 2.043 . S
C1849 C764 1.809 . S
C1847 C253 1.840 . S
C1865 C63 1.655 . S
C1867 C509 1.625 . S
C1885 C617 1.894 . S
C1883 C6 1.908 . S
C1903 C333 0.941 . S
C1901 C30 0.912 . S
C1921 C449 1.715 . S
C1919 C40 1.714 . S
C1937 C21 1.406 . S
C1939 C1153 1.411 . S
C1955 C49 1.105 . S
C1957 C1037 1.138 . S
C1973 C68 1.356 . S
C1975 C1116 1.518 . S
C1991 C11 1.367 . S
C1993 C1057 1.411 . S
C2011 C1301 1.659 . S
C2009 C154 1.659 . S
C2029 C1292 1.948 . S
C2027 C258 1.778 . S
C2047 C1321 1.313 . S
C2045 C277 1.166 . S
C2063 C287 1.291 1_554 S
C2065 C1329 1.319 . S
C2081 C192 1.902 . S
C2083 C793 1.917 . S
C2101 C773 2.200 . S
C2099 C97 2.190 . S
C2119 C852 1.259 . S
C2117 C120 1.281 . S
C2137 C940 1.490 . S
C2135 C144 1.373 . S
C2153 C249 2.032 . S
C2155 C500 2.072 . S
C2173 C441 1.229 . S
C2171 C25 1.224 . S
C2189 C44 1.705 . S
C2191 C537 1.663 . S
C2209 C361 1.847 . S
C2207 C2 1.830 1_565 S
