# Generated by pormake.
# Topology nom, (4,4)-cn, num edge types: 1
# Building blocks:
#     Node 0, Type 0, BuildingBlock: GIZVER_clean_linker_0, # of connection points: 4
#     Node 1, Type 0, BuildingBlock: GIZVER_clean_linker_0, # of connection points: 4
#     Node 2, Type 0, BuildingBlock: GIZVER_clean_linker_0, # of connection points: 4
#     Node 3, Type 0, BuildingBlock: GIZVER_clean_linker_0, # of connection points: 4
#     Node 4, Type 0, BuildingBlock: GIZVER_clean_linker_0, # of connection points: 4
#     Node 5, Type 0, BuildingBlock: GIZVER_clean_linker_0, # of connection points: 4
#     Node 6, Type 1, BuildingBlock: NAHDIM_clean_sbu_0, # of connection points: 4
#     Node 7, Type 1, BuildingBlock: NAHDIM_clean_sbu_0, # of connection points: 4
#     Node 8, Type 1, BuildingBlock: NAHDIM_clean_sbu_0, # of connection points: 4
#     Node 9, Type 1, BuildingBlock: NAHDIM_clean_sbu_0, # of connection points: 4
#     Node 10, Type 1, BuildingBlock: NAHDIM_clean_sbu_0, # of connection points: 4
#     Node 11, Type 1, BuildingBlock: NAHDIM_clean_sbu_0, # of connection points: 4
#     Edge 12, Type (0, 1), BuildingBlock: EZIPEK_clean_linker_0, # of connection points: 2
#     Edge 13, Type (0, 1), BuildingBlock: EZIPEK_clean_linker_0, # of connection points: 2
#     Edge 14, Type (0, 1), BuildingBlock: EZIPEK_clean_linker_0, # of connection points: 2
#     Edge 15, Type (0, 1), BuildingBlock: EZIPEK_clean_linker_0, # of connection points: 2
#     Edge 16, Type (0, 1), BuildingBlock: EZIPEK_clean_linker_0, # of connection points: 2
#     Edge 17, Type (0, 1), BuildingBlock: EZIPEK_clean_linker_0, # of connection points: 2
#     Edge 18, Type (0, 1), BuildingBlock: EZIPEK_clean_linker_0, # of connection points: 2
#     Edge 19, Type (0, 1), BuildingBlock: EZIPEK_clean_linker_0, # of connection points: 2
#     Edge 20, Type (0, 1), BuildingBlock: EZIPEK_clean_linker_0, # of connection points: 2
#     Edge 21, Type (0, 1), BuildingBlock: EZIPEK_clean_linker_0, # of connection points: 2
#     Edge 22, Type (0, 1), BuildingBlock: EZIPEK_clean_linker_0, # of connection points: 2
#     Edge 23, Type (0, 1), BuildingBlock: EZIPEK_clean_linker_0, # of connection points: 2
#     Edge 24, Type (0, 1), BuildingBlock: EZIPEK_clean_linker_0, # of connection points: 2
#     Edge 25, Type (0, 1), BuildingBlock: EZIPEK_clean_linker_0, # of connection points: 2
#     Edge 26, Type (0, 1), BuildingBlock: EZIPEK_clean_linker_0, # of connection points: 2
#     Edge 27, Type (0, 1), BuildingBlock: EZIPEK_clean_linker_0, # of connection points: 2
#     Edge 28, Type (0, 1), BuildingBlock: EZIPEK_clean_linker_0, # of connection points: 2
#     Edge 29, Type (0, 1), BuildingBlock: EZIPEK_clean_linker_0, # of connection points: 2
#     Edge 30, Type (0, 1), BuildingBlock: EZIPEK_clean_linker_0, # of connection points: 2
#     Edge 31, Type (0, 1), BuildingBlock: EZIPEK_clean_linker_0, # of connection points: 2
#     Edge 32, Type (0, 1), BuildingBlock: EZIPEK_clean_linker_0, # of connection points: 2
#     Edge 33, Type (0, 1), BuildingBlock: EZIPEK_clean_linker_0, # of connection points: 2
#     Edge 34, Type (0, 1), BuildingBlock: EZIPEK_clean_linker_0, # of connection points: 2
#     Edge 35, Type (0, 1), BuildingBlock: EZIPEK_clean_linker_0, # of connection points: 2
# Relax obj value: 0.022
# Max RMSD: 0.126
# Mean RMSD: 0.094
data_MOF--net-nom--node1-NAHDIM_clean_sbu_0--node2-GIZVER_clean_linker_0--edge1-EZIPEK_clean_linker_0
_symmetry_space_group_name_H-M    P1
_symmetry_Int_Tables_number       1
_symmetry_cell_setting            triclinic
loop_
_symmetry_equiv_pos_as_xyz
'x, y, z'
_cell_length_a     33.990474
_cell_length_b     35.130804
_cell_length_c     34.341952
_cell_angle_alpha  89.690537
_cell_angle_beta   90.775695
_cell_angle_gamma 121.06974
loop_
_atom_site_label
_atom_site_type_symbol
_atom_site_fract_x
_atom_site_fract_y
_atom_site_fract_z
_atom_type_partial_charge
H0 H 0.9398 0.56912 0.34139 0.0
H1 H 0.98761 0.56657 0.22623 0.0
H2 H 0.85526 0.46162 0.26299 0.0
H3 H 1.00154 0.63686 0.31302 0.0
H4 H 0.01439 0.63802 0.26269 0.0
H5 H 0.03097 0.59928 0.36068 0.0
H6 H 0.17102 0.64001 0.33672 0.0
H7 H 0.0854 0.64449 0.24582 0.0
C8 C 0.93532 0.55239 0.31382 0.0
C9 C 0.89393 0.5125 0.30582 0.0
C10 C 0.96917 0.57241 0.28496 0.0
C11 C 0.96237 0.55089 0.24898 0.0
C12 C 0.92138 0.51083 0.24126 0.0
C13 C 0.88764 0.49175 0.26972 0.0
C14 C 0.00912 0.61921 0.29023 0.0
C15 C 0.05258 0.62015 0.30156 0.0
C16 C 0.05856 0.61008 0.34 0.0
C17 C 0.10126 0.61737 0.35266 0.0
C18 C 0.13763 0.63316 0.32653 0.0
C19 C 0.13196 0.6426 0.28793 0.0
C20 C 0.08926 0.63568 0.27533 0.0
H21 H 0.38858 0.93192 0.52715 0.0
H22 H 0.45172 0.9958 0.41888 0.0
H23 H 0.41719 0.86173 0.44094 0.0
H24 H 0.39402 1.0006 0.51056 0.0
H25 H 0.39815 0.01327 0.45988 0.0
H26 H 0.46915 0.0294 0.54999 0.0
H27 H 0.56835 0.16421 0.51977 0.0
H28 H 0.46281 0.08101 0.43727 0.0
C29 C 0.40395 0.93192 0.49971 0.0
C30 C 0.40281 0.89326 0.48756 0.0
C31 C 0.42191 0.96932 0.47506 0.0
C32 C 0.43963 0.96795 0.43872 0.0
C33 C 0.43757 0.92902 0.42641 0.0
C34 C 0.42007 0.89228 0.45113 0.0
C35 C 0.41618 0.00793 0.48468 0.0
C36 C 0.46174 0.04978 0.49222 0.0
C37 C 0.48373 0.05576 0.52852 0.0
C38 C 0.52193 0.09714 0.53851 0.0
C39 C 0.53967 0.1318 0.51148 0.0
C40 C 0.51877 0.12611 0.47493 0.0
C41 C 0.48005 0.08486 0.46502 0.0
H42 H 0.37214 0.45173 0.59507 0.0
H43 H 0.41949 0.44049 0.70936 0.0
H44 H 0.3867 0.54129 0.68654 0.0
H45 H 0.36957 0.38415 0.61287 0.0
H46 H 0.37367 0.37354 0.66307 0.0
H47 H 0.43736 0.41573 0.57117 0.0
H48 H 0.54603 0.39628 0.61093 0.0
H49 H 0.44603 0.38651 0.69199 0.0
C50 C 0.38242 0.4638 0.62464 0.0
C51 C 0.37867 0.49965 0.63762 0.0
C52 C 0.39637 0.4417 0.65064 0.0
C53 C 0.40919 0.45751 0.68898 0.0
C54 C 0.40562 0.49337 0.7019 0.0
C55 C 0.39041 0.51419 0.67618 0.0
C56 C 0.3916 0.3981 0.63941 0.0
C57 C 0.43751 0.40254 0.63268 0.0
C58 C 0.45543 0.41057 0.59493 0.0
C59 C 0.49459 0.40842 0.58716 0.0
C60 C 0.51686 0.39973 0.61737 0.0
C61 C 0.49955 0.39189 0.6552 0.0
C62 C 0.46032 0.39411 0.663 0.0
H63 H 0.94479 0.3821 0.7533 0.0
H64 H 0.96264 0.40309 0.87752 0.0
H65 H 0.83982 0.38259 0.82098 0.0
H66 H 0.99956 0.36898 0.79084 0.0
H67 H 0.00798 0.37985 0.84183 0.0
H68 H 0.02895 0.43548 0.74379 0.0
H69 H 0.1628 0.54157 0.77845 0.0
H70 H 0.07416 0.44702 0.86347 0.0
C71 C 0.93344 0.38765 0.78089 0.0
C72 C 0.88998 0.38305 0.78316 0.0
C73 C 0.96033 0.39557 0.81488 0.0
C74 C 0.94339 0.39933 0.85093 0.0
C75 C 0.89996 0.39473 0.85305 0.0
C76 C 0.87414 0.38787 0.81904 0.0
C77 C 1.00326 0.39299 0.81371 0.0
C78 C 0.04546 0.43742 0.8051 0.0
C79 C 0.05387 0.45367 0.76671 0.0
C80 C 0.09604 0.49139 0.75724 0.0
C81 C 0.12948 0.51355 0.78623 0.0
C82 C 0.12178 0.49771 0.82446 0.0
C83 C 0.07943 0.46009 0.8341 0.0
H84 H 0.61215 0.07106 0.03401 0.0
H85 H 0.58505 0.05568 0.91022 0.0
H86 H 0.61206 0.17501 0.96782 0.0
H87 H 0.62404 0.0189 -0.00399 0.0
H88 H 0.6148 0.01429 0.94468 0.0
H89 H 0.54933 0.98852 0.03911 0.0
H90 H 0.45348 0.85463 0.00314 0.0
H91 H 0.55241 0.94631 0.92197 0.0
C92 C 0.60554 0.08263 0.00679 0.0
C93 C 0.61135 0.12521 0.00502 0.0
C94 C 0.59562 0.05697 0.9726 0.0
C95 C 0.59031 0.074 0.937 0.0
C96 C 0.59619 0.11657 0.93539 0.0
C97 C 0.60562 0.14139 0.96948 0.0
C98 C 0.59967 0.01611 0.97265 0.0
C99 C 0.55444 0.97348 0.97903 0.0
C100 C 0.53445 0.96384 0.01613 0.0
C101 C 0.49776 0.92106 0.02462 0.0
C102 C 0.48047 0.88816 -0.0041 0.0
C103 C 0.5001 0.89698 0.95899 0.0
C104 C 0.53631 0.94 0.95019 0.0
H105 H 0.63219 0.56691 0.08236 0.0
H106 H 0.60771 0.5727 0.20447 0.0
H107 H 0.62115 0.46593 0.16038 0.0
H108 H 0.64964 0.63684 0.11241 0.0
H109 H 0.64433 0.64035 0.16355 0.0
H110 H 0.58051 0.60789 0.06853 0.0
H111 H 0.48176 0.63966 0.10848 0.0
H112 H 0.57667 0.63619 0.19014 0.0
C113 C 0.6247 0.55201 0.11107 0.0
C114 C 0.62572 0.51299 0.11755 0.0
C115 C 0.61804 0.57377 0.1424 0.0
C116 C 0.61086 0.55524 0.17989 0.0
C117 C 0.61176 0.51626 0.18627 0.0
C118 C 0.61848 0.49499 0.15502 0.0
C119 C 0.6263 0.62 0.13731 0.0
C120 C 0.58233 0.61989 0.13045 0.0
C121 C 0.56437 0.61459 0.09239 0.0
C122 C 0.52794 0.62151 0.08463 0.0
C123 C 0.50869 0.63257 0.11493 0.0
C124 C 0.52612 0.63802 0.15288 0.0
C125 C 0.56226 0.6306 0.16093 0.0
C126 C 0.61055 0.3014 0.41102 0.0
O127 O 0.65056 0.32589 0.42843 0.0
O128 O 0.69294 0.41801 0.39524 0.0
Zn129 Zn 0.62372 0.38682 0.39075 0.0
O130 O 0.59959 0.40203 0.43748 0.0
C131 C 0.62136 0.44826 0.33734 0.0
O132 O 0.64436 0.47585 0.36597 0.0
O133 O 0.59344 0.32002 0.39106 0.0
C134 C 0.56184 0.40125 0.43608 0.0
O135 O 0.53929 0.39327 0.40291 0.0
C136 C 0.71445 0.41717 0.36565 0.0
O137 O 0.69108 0.3935 0.33516 0.0
O138 O 0.60761 0.40727 0.34113 0.0
C139 C 0.3161 0.71456 0.54485 0.0
O140 O 0.33649 0.69368 0.5329 0.0
O141 O 0.27745 0.59786 0.55216 0.0
Zn142 Zn 0.23816 0.62543 0.5563 0.0
O143 O 0.19846 0.61029 0.50849 0.0
C144 C 0.16958 0.55974 0.60561 0.0
O145 O 0.16368 0.53436 0.5755 0.0
O146 O 0.27561 0.69243 0.5581 0.0
C147 C 0.16323 0.61399 0.50836 0.0
O148 O 0.15042 0.62405 0.54071 0.0
C149 C 0.29669 0.59537 0.5832 0.0
O150 O 0.29339 0.61372 0.61523 0.0
O151 O 0.19925 0.60102 0.60416 0.0
C152 C 0.59454 0.32235 0.73975 0.0
O153 O 0.6137 0.33045 0.77455 0.0
O154 O 0.69486 0.29524 0.72942 0.0
Zn155 Zn 0.62605 0.25835 0.72572 0.0
O156 O 0.60736 0.21731 0.68041 0.0
C157 C 0.62614 0.23051 0.80421 0.0
O158 O 0.66406 0.26961 0.8065 0.0
O159 O 0.59639 0.29471 0.7173 0.0
C160 C 0.60943 0.18224 0.6801 0.0
O161 O 0.62641 0.17213 0.71026 0.0
C162 C 0.72304 0.31317 0.70174 0.0
O163 O 0.70807 0.30944 0.6657 0.0
O164 O 0.60238 0.21922 0.77298 0.0
C165 C 0.42143 0.72216 0.90211 0.0
O166 O 0.39791 0.69924 0.93247 0.0
O167 O 0.32774 0.60271 0.87262 0.0
Zn168 Zn 0.39663 0.63547 0.87951 0.0
O169 O 0.41535 0.62376 0.9319 0.0
C170 C 0.40749 0.56991 0.84509 0.0
O171 O 0.37704 0.54824 0.87219 0.0
O172 O 0.425 0.70185 0.87315 0.0
C173 C 0.45771 0.63673 0.93556 0.0
O174 O 0.48548 0.65691 0.90638 0.0
C175 C 0.29798 0.59497 0.89835 0.0
O176 O 0.31092 0.60896 0.93425 0.0
O177 O 0.42082 0.61073 0.8403 0.0
C178 C 0.68999 0.4156 0.03597 0.0
O179 O 0.68492 0.40016 0.00036 0.0
O180 O 0.71184 0.31339 0.05708 0.0
Zn181 Zn 0.75157 0.38016 0.05569 0.0
O182 O 0.79668 0.40446 0.10048 0.0
C183 C 0.80218 0.37177 -0.00413 0.0
O184 O 0.79524 0.33881 0.01874 0.0
O185 O 0.71471 0.40999 0.06067 0.0
C186 C 0.83784 0.41296 0.10203 0.0
O187 O 0.85541 0.4035 0.07252 0.0
C188 C 0.69152 0.28691 0.0851 0.0
O189 O 0.69429 0.30224 0.12044 0.0
O190 O 0.78614 0.39605 0.00527 0.0
C191 C 0.42955 0.71342 0.2164 0.0
O192 O 0.39384 0.70061 0.1932 0.0
O193 O 0.3386 0.73662 0.24002 0.0
Zn194 Zn 0.4071 0.77818 0.23529 0.0
O195 O 0.42485 0.81001 0.18348 0.0
C196 C 0.45468 0.86244 0.28097 0.0
O197 O 0.48036 0.88218 0.25064 0.0
O198 O 0.4409 0.74524 0.24001 0.0
C199 C 0.42204 0.84353 0.17386 0.0
O200 O 0.40379 0.85893 0.19786 0.0
C201 C 0.30819 0.73019 0.21469 0.0
O202 O 0.32035 0.74929 0.18042 0.0
O203 O 0.42473 0.82119 0.27983 0.0
C204 C 0.18894 0.63852 0.24519 0.0
C205 C 0.17287 0.66447 0.2625 0.0
C206 C 0.24072 0.73271 0.23928 0.0
C207 C 0.25953 0.70708 0.22663 0.0
N208 N 0.25332 0.63621 0.21799 0.0
N209 N 0.18405 0.73614 0.27883 0.0
C210 C 0.23395 0.66006 0.22941 0.0
C211 C 0.19859 0.71155 0.25981 0.0
N212 N 0.16085 0.59334 0.24366 0.0
N213 N 0.26341 0.77738 0.232 0.0
H214 H 0.15299 0.72201 0.29355 0.0
H215 H 0.20396 0.77046 0.2823 0.0
H216 H 0.29525 0.79442 0.21846 0.0
H217 H 0.24928 0.79711 0.23661 0.0
H218 H 0.16856 0.5725 0.22848 0.0
H219 H 0.1278 0.57683 0.25511 0.0
H220 H 0.23895 0.60241 0.2233 0.0
H221 H 0.28531 0.65084 0.20469 0.0
C222 C 0.51706 0.19394 0.45649 0.0
C223 C 0.53497 0.16599 0.44997 0.0
C224 C 0.59573 0.22365 0.40955 0.0
C225 C 0.58194 0.2537 0.42112 0.0
N226 N 0.53262 0.26926 0.45935 0.0
N227 N 0.59096 0.153 0.42082 0.0
C228 C 0.54294 0.23919 0.44505 0.0
C229 C 0.57393 0.18032 0.42619 0.0
N230 N 0.47562 0.17731 0.4743 0.0
N231 N 0.62929 0.23653 0.38237 0.0
H232 H 0.57433 0.12037 0.43107 0.0
H233 H 0.62231 0.16306 0.40779 0.0
H234 H 0.64581 0.2681 0.36982 0.0
H235 H 0.63826 0.21512 0.36998 0.0
H236 H 0.45843 0.19462 0.47626 0.0
H237 H 0.45629 0.14456 0.48397 0.0
H238 H 0.50815 0.26164 0.48067 0.0
H239 H 0.55112 0.30299 0.45258 0.0
C240 C 0.31244 0.49885 0.60273 0.0
C241 C 0.36 0.52138 0.61241 0.0
C242 C 0.36815 0.59239 0.59321 0.0
C243 C 0.32042 0.56993 0.58471 0.0
N244 N 0.2511 0.50109 0.56817 0.0
N245 N 0.43525 0.58653 0.60636 0.0
C246 C 0.294 0.52286 0.5847 0.0
C247 C 0.38861 0.56725 0.60392 0.0
N248 N 0.28406 0.45558 0.61351 0.0
N249 N 0.3935 0.63776 0.5921 0.0
H250 H 0.45087 0.56849 0.61379 0.0
H251 H 0.45829 0.61898 0.59766 0.0
H252 H 0.37998 0.65683 0.5821 0.0
H253 H 0.42717 0.65649 0.60248 0.0
H254 H 0.24838 0.43945 0.6116 0.0
H255 H 0.29566 0.43664 0.62731 0.0
H256 H 0.23211 0.46676 0.56416 0.0
H257 H 0.23625 0.51758 0.55509 0.0
C258 C 0.82765 0.3193 0.74547 0.0
C259 C 0.85666 0.36596 0.75017 0.0
C260 C 0.8027 0.37855 0.71248 0.0
C261 C 0.77235 0.33191 0.71041 0.0
N262 N 0.76082 0.25844 0.71334 0.0
N263 N 0.87894 0.43988 0.73008 0.0
C264 C 0.78672 0.30249 0.72291 0.0
C265 C 0.84662 0.39557 0.73054 0.0
N266 N 0.83754 0.29109 0.76487 0.0
N267 N 0.78841 0.40626 0.6993 0.0
H268 H 0.91121 0.45255 0.74326 0.0
H269 H 0.8755 0.46329 0.71414 0.0
H270 H 0.75693 0.39456 0.68501 0.0
H271 H 0.80668 0.44048 0.70372 0.0
H272 H 0.81472 0.25699 0.76699 0.0
H273 H 0.86796 0.30206 0.78065 0.0
H274 H 0.7712 0.2357 0.71864 0.0
H275 H 0.73068 0.24548 0.69668 0.0
C276 C 0.44007 0.83718 0.91647 0.0
C277 C 0.48531 0.85872 0.93215 0.0
C278 C 0.49299 0.79627 0.91113 0.0
C279 C 0.4451 0.77129 0.90347 0.0
N280 N 0.37275 0.76764 0.896 0.0
N281 N 0.55498 0.85829 0.94613 0.0
C282 C 0.41865 0.79192 0.90473 0.0
C283 C 0.51231 0.83866 0.9291 0.0
N284 N 0.41774 0.86014 0.91336 0.0
N285 N 0.5198 0.77915 0.90203 0.0
H286 H 0.57073 0.88935 0.95952 0.0
H287 H 0.57361 0.84244 0.94938 0.0
H288 H 0.5066 0.74792 0.88937 0.0
H289 H 0.55555 0.79747 0.90361 0.0
H290 H 0.38597 0.84775 0.89958 0.0
H291 H 0.43316 0.89342 0.92171 0.0
H292 H 0.3502 0.77883 0.90069 0.0
H293 H 0.35685 0.73523 0.88519 0.0
C294 C 0.68877 0.51233 0.08101 0.0
C295 C 0.64104 0.4937 0.08714 0.0
C296 C 0.62404 0.42609 0.05207 0.0
C297 C 0.67185 0.44433 0.04701 0.0
N298 N 0.7481 0.50879 0.04569 0.0
N299 N 0.56291 0.43872 0.0708 0.0
C300 C 0.70365 0.48891 0.05783 0.0
C301 C 0.60853 0.4525 0.06983 0.0
N302 N 0.72004 0.55094 0.09937 0.0
N303 N 0.59385 0.38282 0.04206 0.0
H304 H 0.55099 0.45765 0.08375 0.0
H305 H 0.53749 0.41085 0.05601 0.0
H306 H 0.60402 0.36291 0.02838 0.0
H307 H 0.55919 0.36589 0.04911 0.0
H308 H 0.75519 0.56302 0.1001 0.0
H309 H 0.71077 0.56967 0.11613 0.0
H310 H 0.77202 0.54248 0.04948 0.0
H311 H 0.7598 0.49245 0.0283 0.0
C312 C 0.33248 0.819 0.49596 0.0
C313 C 0.37723 0.85084 0.50929 0.0
C314 C 0.37753 0.79505 0.55241 0.0
C315 C 0.33579 0.76198 0.53472 0.0
N316 N 0.27729 0.74126 0.48482 0.0
N317 N 0.44384 0.87009 0.54899 0.0
C318 C 0.31387 0.77363 0.50555 0.0
C319 C 0.40006 0.83926 0.53756 0.0
N320 N 0.30797 0.83219 0.47372 0.0
N321 N 0.39518 0.78421 0.58362 0.0
H322 H 0.46037 0.90309 0.53974 0.0
H323 H 0.46453 0.8626 0.566 0.0
H324 H 0.3795 0.75207 0.59491 0.0
H325 H 0.42315 0.80749 0.60017 0.0
H326 H 0.27344 0.8112 0.46639 0.0
H327 H 0.32087 0.86524 0.46579 0.0
H328 H 0.26374 0.74779 0.46005 0.0
H329 H 0.2631 0.70738 0.48986 0.0
C330 C 0.56363 0.40568 0.70106 0.0
C331 C 0.51969 0.37566 0.68484 0.0
C332 C 0.52052 0.31359 0.7168 0.0
C333 C 0.56742 0.34237 0.72682 0.0
N334 N 0.63492 0.4159 0.72777 0.0
N335 N 0.45712 0.30024 0.67456 0.0
C336 C 0.58921 0.38867 0.71944 0.0
C337 C 0.49796 0.32941 0.69246 0.0
N338 N 0.58074 0.45036 0.69868 0.0
N339 N 0.49752 0.27115 0.73092 0.0
H340 H 0.43914 0.31021 0.65656 0.0
H341 H 0.44263 0.26591 0.67522 0.0
H342 H 0.51307 0.25886 0.74934 0.0
H343 H 0.46218 0.24981 0.72772 0.0
H344 H 0.6107 0.47405 0.71288 0.0
H345 H 0.5626 0.46351 0.68526 0.0
H346 H 0.65404 0.44891 0.71891 0.0
H347 H 0.65464 0.40475 0.74154 0.0
C348 C 0.18951 0.49879 0.85548 0.0
C349 C 0.16128 0.51754 0.85223 0.0
C350 C 0.22025 0.58527 0.88533 0.0
C351 C 0.2487 0.56672 0.8879 0.0
N352 N 0.25608 0.5022 0.88587 0.0
N353 N 0.14422 0.57311 0.87146 0.0
C354 C 0.23179 0.52219 0.87637 0.0
C355 C 0.17484 0.559 0.86985 0.0
N356 N 0.17717 0.45986 0.83674 0.0
N357 N 0.23753 0.62867 0.89556 0.0
H358 H 0.11087 0.55436 0.86016 0.0
H359 H 0.15029 0.60116 0.88679 0.0
H360 H 0.27036 0.64862 0.90748 0.0
H361 H 0.22051 0.64576 0.89021 0.0
H362 H 0.19903 0.44755 0.83378 0.0
H363 H 0.14596 0.44102 0.82192 0.0
H364 H 0.24365 0.46853 0.88154 0.0
H365 H 0.28692 0.51841 0.90167 0.0
C366 C 0.67901 0.1831 0.04322 0.0
C367 C 0.63059 0.15699 0.0381 0.0
C368 C 0.62125 0.21128 0.07503 0.0
C369 C 0.66973 0.23871 0.07757 0.0
N370 N 0.74372 0.24542 0.07608 0.0
N371 N 0.55538 0.13901 0.0576 0.0
C372 C 0.6982 0.22255 0.06582 0.0
C373 C 0.60162 0.16861 0.0573 0.0
N374 N 0.70674 0.17202 0.0241 0.0
N375 N 0.59434 0.22717 0.08729 0.0
H376 H 0.54076 0.1077 0.04463 0.0
H377 H 0.53224 0.14372 0.07329 0.0
H378 H 0.60784 0.25778 0.10128 0.0
H379 H 0.55905 0.21106 0.08231 0.0
H380 H 0.74222 0.19284 0.0224 0.0
H381 H 0.69409 0.14281 0.00806 0.0
H382 H 0.76573 0.23359 0.07136 0.0
H383 H 0.75837 0.27441 0.09281 0.0
C384 C 0.53066 0.70414 0.18351 0.0
C385 C 0.50927 0.65729 0.18191 0.0
C386 C 0.44239 0.64942 0.21568 0.0
C387 C 0.46002 0.69549 0.21028 0.0
N388 N 0.52007 0.76704 0.18688 0.0
N389 N 0.44636 0.58462 0.19777 0.0
C390 C 0.50444 0.72325 0.1945 0.0
C391 C 0.46586 0.62971 0.1991 0.0
N392 N 0.57569 0.73026 0.17336 0.0
N393 N 0.40332 0.62478 0.23672 0.0
H394 H 0.46402 0.56971 0.18756 0.0
H395 H 0.41254 0.56212 0.2054 0.0
H396 H 0.38575 0.63865 0.24929 0.0
H397 H 0.39048 0.59179 0.24449 0.0
H398 H 0.59463 0.76454 0.17746 0.0
H399 H 0.59547 0.71716 0.16431 0.0
H400 H 0.54947 0.78737 0.1709 0.0
H401 H 0.50201 0.78262 0.19377 0.0
C402 C 0.82885 0.51442 0.33843 0.0
C403 C 0.85447 0.49325 0.33297 0.0
C404 C 0.79116 0.42393 0.3595 0.0
C405 C 0.76521 0.4448 0.36359 0.0
N406 N 0.76544 0.51317 0.37092 0.0
N407 N 0.866 0.43287 0.34871 0.0
C408 C 0.78631 0.49127 0.35811 0.0
C409 C 0.83757 0.4496 0.34727 0.0
N410 N 0.84288 0.55494 0.32205 0.0
N411 N 0.77089 0.37935 0.36618 0.0
H412 H 0.90027 0.45145 0.3402 0.0
H413 H 0.8571 0.40257 0.36151 0.0
H414 H 0.73785 0.36038 0.3774 0.0
H415 H 0.78599 0.36096 0.35931 0.0
H416 H 0.82241 0.56904 0.32096 0.0
H417 H 0.87327 0.57306 0.30666 0.0
H418 H 0.78137 0.54768 0.37075 0.0
H419 H 0.73414 0.49724 0.38526 0.0
C420 C 0.12421 0.6509 0.4191 0.0
C421 C 0.11013 0.61369 0.39443 0.0
C422 C 0.12093 0.57336 0.44788 0.0
C423 C 0.14074 0.61259 0.47081 0.0
N424 N 0.16555 0.69035 0.47743 0.0
N425 N 0.09629 0.54005 0.38368 0.0
C426 C 0.1429 0.65165 0.4565 0.0
C427 C 0.10851 0.57488 0.40844 0.0
N428 N 0.12003 0.68572 0.40663 0.0
N429 N 0.11304 0.53449 0.46423 0.0
H430 H 0.085 0.53934 0.35514 0.0
H431 H 0.09962 0.51296 0.3906 0.0
H432 H 0.12127 0.53229 0.49322 0.0
H433 H 0.09483 0.50377 0.45036 0.0
H434 H 0.12444 0.7113 0.4248 0.0
H435 H 0.10857 0.6875 0.37874 0.0
H436 H 0.17336 0.72111 0.46642 0.0
H437 H 0.18014 0.69284 0.50486 0.0
C438 C 0.51573 0.11538 0.60768 0.0
C439 C 0.54017 0.10729 0.57891 0.0
C440 C 0.60901 0.14066 0.62066 0.0
C441 C 0.58472 0.14962 0.64878 0.0
N442 N 0.51225 0.13286 0.67519 0.0
N443 N 0.60505 0.10133 0.56134 0.0
C444 C 0.53703 0.13253 0.6443 0.0
C445 C 0.58521 0.11613 0.58669 0.0
N446 N 0.47366 0.10987 0.59921 0.0
N447 N 0.65511 0.15769 0.6254 0.0
H448 H 0.58803 0.08324 0.53631 0.0
H449 H 0.63634 0.10345 0.56672 0.0
H450 H 0.67319 0.17495 0.65038 0.0
H451 H 0.67588 0.15675 0.60388 0.0
H452 H 0.45711 0.12063 0.61749 0.0
H453 H 0.45655 0.09764 0.57267 0.0
H454 H 0.47656 0.11713 0.67477 0.0
H455 H 0.52708 0.1449 0.70259 0.0
C456 C 0.38376 0.4819 0.77242 0.0
C457 C 0.41512 0.50835 0.74303 0.0
C458 C 0.45518 0.57022 0.78922 0.0
C459 C 0.41921 0.54591 0.81592 0.0
N460 N 0.37017 0.4722 0.8416 0.0
N461 N 0.48526 0.57447 0.72431 0.0
C462 C 0.38993 0.49957 0.81044 0.0
C463 C 0.45287 0.55142 0.75198 0.0
N464 N 0.34634 0.44123 0.7637 0.0
N465 N 0.49219 0.61002 0.80057 0.0
H466 H 0.48556 0.56029 0.69777 0.0
H467 H 0.5115 0.60747 0.72709 0.0
H468 H 0.49623 0.6215 0.82917 0.0
H469 H 0.52064 0.62962 0.78341 0.0
H470 H 0.31982 0.42329 0.78326 0.0
H471 H 0.33973 0.4269 0.73609 0.0
H472 H 0.35081 0.43769 0.83918 0.0
H473 H 0.37936 0.48343 0.8702 0.0
C474 C 0.84086 0.34674 0.90162 0.0
C475 C 0.87748 0.38947 0.89104 0.0
C476 C 0.86698 0.42083 0.95079 0.0
C477 C 0.82718 0.379 0.95903 0.0
N478 N 0.77047 0.3049 0.93756 0.0
N479 N 0.92182 0.4685 0.90224 0.0
C480 C 0.81252 0.34266 0.93315 0.0
C481 C 0.88962 0.42697 0.91471 0.0
N482 N 0.83372 0.30987 0.88201 0.0
N483 N 0.88437 0.45404 0.978 0.0
H484 H 0.93968 0.47407 0.87633 0.0
H485 H 0.92837 0.49755 0.91607 0.0
H486 H 0.8692 0.45093 0.00491 0.0
H487 H 0.91599 0.48338 0.97528 0.0
H488 H 0.81042 0.27755 0.89096 0.0
H489 H 0.85424 0.31135 0.85903 0.0
H490 H 0.75611 0.27921 0.91718 0.0
H491 H 0.74767 0.30118 0.95935 0.0
C492 C 0.43781 0.90027 0.07536 0.0
C493 C 0.48141 0.9077 0.065 0.0
C494 C 0.48906 0.88037 0.12866 0.0
C495 C 0.44285 0.86721 0.13697 0.0
N496 N 0.3708 0.85903 0.11574 0.0
N497 N 0.54621 0.89914 0.07921 0.0
C498 C 0.41662 0.87606 0.10984 0.0
C499 C 0.50655 0.89643 0.09101 0.0
N500 N 0.41677 0.91645 0.05217 0.0
N501 N 0.51687 0.87897 0.15705 0.0
H502 H 0.56088 0.91145 0.05212 0.0
H503 H 0.56268 0.8859 0.09511 0.0
H504 H 0.50596 0.86803 0.18527 0.0
H505 H 0.5521 0.89276 0.15377 0.0
H506 H 0.38704 0.91599 0.06 0.0
H507 H 0.43146 0.93403 0.0266 0.0
H508 H 0.34894 0.8604 0.09499 0.0
H509 H 0.35349 0.83982 0.13988 0.0
C510 C 0.57226 0.47141 0.24581 0.0
C511 C 0.61342 0.50129 0.22634 0.0
C512 C 0.65889 0.49305 0.27787 0.0
C513 C 0.6181 0.46592 0.29897 0.0
N514 N 0.53646 0.43365 0.30602 0.0
N515 N 0.69614 0.54702 0.22648 0.0
C516 C 0.57482 0.45623 0.28376 0.0
C517 C 0.65683 0.51421 0.2433 0.0
N518 N 0.53086 0.45671 0.22757 0.0
N519 N 0.69922 0.49658 0.28969 0.0
H520 H 0.69617 0.5629 0.20072 0.0
H521 H 0.72841 0.56122 0.23978 0.0
H522 H 0.7016 0.47995 0.31395 0.0
H523 H 0.72913 0.5121 0.27339 0.0
H524 H 0.49981 0.43108 0.23818 0.0
H525 H 0.52783 0.46832 0.20033 0.0
H526 H 0.50477 0.42959 0.2984 0.0
H527 H 0.5371 0.42165 0.33367 0.0
C528 C 0.41117 0.90857 0.35761 0.0
C529 C 0.44714 0.92329 0.38566 0.0
C530 C 0.49337 0.90954 0.34006 0.0
C531 C 0.45481 0.88885 0.31439 0.0
N532 N 0.37803 0.87051 0.29649 0.0
N533 N 0.52294 0.94044 0.40449 0.0
C534 C 0.41423 0.88951 0.3223 0.0
C535 C 0.48878 0.92529 0.37684 0.0
N536 N 0.37396 0.91252 0.36502 0.0
N537 N 0.53388 0.91331 0.3295 0.0
H538 H 0.52123 0.95419 0.43083 0.0
H539 H 0.55222 0.93832 0.40222 0.0
H540 H 0.53779 0.90042 0.30355 0.0
H541 H 0.56453 0.9314 0.3451 0.0
H542 H 0.3487 0.9068 0.3445 0.0
H543 H 0.36953 0.92459 0.39121 0.0
H544 H 0.34524 0.86406 0.30249 0.0
H545 H 0.38019 0.85953 0.26894 0.0
C546 C 0.54428 0.44765 0.52984 0.0
C547 C 0.50836 0.40812 0.5465 0.0
C548 C 0.50218 0.36619 0.48758 0.0
C549 C 0.54134 0.40466 0.47259 0.0
N550 N 0.60108 0.48166 0.47891 0.0
N551 N 0.4553 0.32892 0.54373 0.0
C552 C 0.56274 0.4454 0.49354 0.0
C553 C 0.48755 0.36722 0.52588 0.0
N554 N 0.56012 0.4873 0.54858 0.0
N555 N 0.47908 0.32854 0.46534 0.0
H556 H 0.4425 0.32827 0.57131 0.0
H557 H 0.44326 0.29727 0.5325 0.0
H558 H 0.49014 0.32506 0.43818 0.0
H559 H 0.44719 0.30143 0.47261 0.0
H560 H 0.5832 0.51805 0.53656 0.0
H561 H 0.54752 0.48975 0.57541 0.0
H562 H 0.62159 0.51082 0.49454 0.0
H563 H 0.61381 0.48198 0.45136 0.0
C564 C 0.13647 0.49024 0.69775 0.0
C565 C 0.10889 0.50416 0.71614 0.0
C566 C 0.11507 0.54904 0.65908 0.0
C567 C 0.14724 0.53944 0.64296 0.0
N568 N 0.19446 0.50681 0.64974 0.0
N569 N 0.07381 0.54869 0.71644 0.0
C570 C 0.15925 0.51128 0.66285 0.0
C571 C 0.09842 0.53391 0.69729 0.0
N572 N 0.14077 0.45679 0.71371 0.0
N573 N 0.09971 0.57168 0.63746 0.0
H574 H 0.05982 0.53701 0.74387 0.0
H575 H 0.06947 0.57427 0.70625 0.0
H576 H 0.1113 0.58319 0.60943 0.0
H577 H 0.07295 0.57598 0.64591 0.0
H578 H 0.15644 0.44202 0.69955 0.0
H579 H 0.12499 0.4409 0.7396 0.0
H580 H 0.20819 0.49074 0.6653 0.0
H581 H 0.21309 0.52289 0.62499 0.0
C582 C 0.64323 0.15993 0.87824 0.0
C583 C 0.60055 0.13922 0.89776 0.0
C584 C 0.57357 0.17764 0.85526 0.0
C585 C 0.61572 0.1971 0.83498 0.0
N586 N 0.68489 0.19703 0.81998 0.0
N587 N 0.52207 0.12107 0.90079 0.0
C588 C 0.64883 0.18528 0.84429 0.0
C589 C 0.56463 0.14566 0.8848 0.0
N590 N 0.67923 0.1572 0.89313 0.0
N591 N 0.54322 0.19136 0.84768 0.0
H592 H 0.51481 0.0976 0.92259 0.0
H593 H 0.49318 0.12104 0.89027 0.0
H594 H 0.54872 0.21485 0.8264 0.0
H595 H 0.51425 0.18204 0.86431 0.0
H596 H 0.71266 0.17637 0.88296 0.0
H597 H 0.67664 0.13838 0.9176 0.0
H598 H 0.70749 0.18551 0.8233 0.0
H599 H 0.68954 0.21452 0.79412 0.0
C600 C 0.48038 0.58534 0.02449 0.0
C601 C 0.51389 0.62425 0.04423 0.0
C602 C 0.50808 0.6709 -0.00592 0.0
C603 C 0.47656 0.63209 0.97306 0.0
N604 N 0.43859 0.55271 0.96419 0.0
N605 N 0.56675 0.7035 0.04455 0.0
C606 C 0.46432 0.58931 0.9871 0.0
C607 C 0.53008 0.66688 0.02786 0.0
N608 N 0.46296 0.54484 0.04201 0.0
N609 N 0.51513 0.71137 0.98293 0.0
H610 H 0.58364 0.70184 0.06951 0.0
H611 H 0.58309 0.73485 0.03174 0.0
H612 H 0.49845 0.71544 0.95901 0.0
H613 H 0.53394 0.74023 -0.00058 0.0
H614 H 0.43468 0.5158 0.03123 0.0
H615 H 0.47514 0.54069 0.06879 0.0
H616 H 0.43251 0.52123 0.97102 0.0
H617 H 0.42631 0.55444 0.93666 0.0
C618 C 0.89288 0.50808 0.17321 0.0
C619 C 0.91009 0.49093 0.20183 0.0
C620 C 0.88553 0.42437 0.16222 0.0
C621 C 0.86794 0.44144 0.13394 0.0
N622 N 0.86671 0.50416 0.1066 0.0
N623 N 0.93271 0.43876 0.22043 0.0
C624 C 0.87555 0.4849 0.13755 0.0
C625 C 0.90982 0.45101 0.19514 0.0
N626 N 0.89056 0.54502 0.18095 0.0
N627 N 0.87695 0.38201 0.1586 0.0
H628 H 0.95065 0.45784 0.24477 0.0
H629 H 0.93728 0.41207 0.21564 0.0
H630 H 0.85992 0.36198 0.13449 0.0
H631 H 0.88428 0.36573 0.18033 0.0
H632 H 0.87297 0.55563 0.16323 0.0
H633 H 0.90346 0.56354 0.2065 0.0
H634 H 0.87571 0.53734 0.10617 0.0
H635 H 0.85451 0.48819 0.07978 0.0
loop_
_geom_bond_atom_site_label_1
_geom_bond_atom_site_label_2
_geom_bond_distance
_geom_bond_site_symmetry_2
_ccdc_geom_bond_type
H0 C8 0.930 . S
H1 C11 0.930 . S
H2 C13 0.930 . S
H3 C14 0.970 1_655 S
H4 C14 0.970 . S
H5 C16 0.930 . S
H6 C18 0.930 . S
H7 C20 0.930 . S
C8 H0 0.930 . S
C8 C9 1.382 . S
C8 C10 1.426 . S
C9 C8 1.382 . S
C9 C13 1.389 . S
C10 C8 1.426 . S
C10 C11 1.375 . S
C10 C14 1.532 1_655 S
C11 H1 0.930 . S
C11 C10 1.375 . S
C11 C12 1.416 . S
C12 C11 1.416 . S
C12 C13 1.371 . S
C13 H2 0.930 . S
C13 C9 1.389 . S
C13 C12 1.371 . S
C14 H3 0.970 1_455 S
C14 H4 0.970 . S
C14 C10 1.532 1_455 S
C14 C15 1.499 . S
C15 C14 1.499 . S
C15 C16 1.370 . S
C15 C20 1.415 . S
C16 H5 0.930 . S
C16 C15 1.370 . S
C16 C17 1.407 . S
C17 C16 1.407 . S
C17 C18 1.365 . S
C18 H6 0.930 . S
C18 C17 1.365 . S
C18 C19 1.393 . S
C19 C18 1.393 . S
C19 C20 1.387 . S
C20 H7 0.930 . S
C20 C15 1.415 . S
C20 C19 1.387 . S
H21 C29 0.930 . S
H22 C32 0.930 . S
H23 C34 0.930 . S
H24 C35 0.971 1_565 S
H25 C35 0.970 . S
H26 C37 0.930 . S
H27 C39 0.930 . S
H28 C41 0.930 . S
C29 H21 0.930 . S
C29 C30 1.382 . S
C29 C31 1.426 . S
C30 C29 1.382 . S
C30 C34 1.389 . S
C31 C29 1.426 . S
C31 C32 1.375 . S
C31 C35 1.532 1_565 S
C32 H22 0.930 . S
C32 C31 1.375 . S
C32 C33 1.416 . S
C33 C32 1.416 . S
C33 C34 1.371 . S
C34 H23 0.930 . S
C34 C30 1.389 . S
C34 C33 1.371 . S
C35 H24 0.971 1_545 S
C35 H25 0.970 . S
C35 C31 1.532 1_545 S
C35 C36 1.499 . S
C36 C35 1.499 . S
C36 C37 1.370 . S
C36 C41 1.415 . S
C37 H26 0.930 . S
C37 C36 1.370 . S
C37 C38 1.407 . S
C38 C37 1.407 . S
C38 C39 1.365 . S
C39 H27 0.930 . S
C39 C38 1.365 . S
C39 C40 1.393 . S
C40 C39 1.393 . S
C40 C41 1.387 . S
C41 H28 0.930 . S
C41 C36 1.415 . S
C41 C40 1.387 . S
H42 C50 0.930 . S
H43 C53 0.930 . S
H44 C55 0.930 . S
H45 C56 0.970 . S
H46 C56 0.970 . S
H47 C58 0.930 . S
H48 C60 0.930 . S
H49 C62 0.930 . S
C50 H42 0.930 . S
C50 C51 1.382 . S
C50 C52 1.426 . S
C51 C50 1.382 . S
C51 C55 1.389 . S
C52 C50 1.426 . S
C52 C53 1.375 . S
C52 C56 1.532 . S
C53 H43 0.930 . S
C53 C52 1.375 . S
C53 C54 1.416 . S
C54 C53 1.416 . S
C54 C55 1.371 . S
C55 H44 0.930 . S
C55 C51 1.389 . S
C55 C54 1.371 . S
C56 H45 0.970 . S
C56 H46 0.970 . S
C56 C52 1.532 . S
C56 C57 1.499 . S
C57 C56 1.499 . S
C57 C58 1.370 . S
C57 C62 1.415 . S
C58 H47 0.930 . S
C58 C57 1.370 . S
C58 C59 1.407 . S
C59 C58 1.407 . S
C59 C60 1.365 . S
C60 H48 0.930 . S
C60 C59 1.365 . S
C60 C61 1.393 . S
C61 C60 1.393 . S
C61 C62 1.387 . S
C62 H49 0.930 . S
C62 C57 1.415 . S
C62 C61 1.387 . S
H63 C71 0.930 . S
H64 C74 0.930 . S
H65 C76 0.930 . S
H66 C77 0.970 1_655 S
H67 C77 0.970 . S
H68 C79 0.930 . S
H69 C81 0.930 . S
H70 C83 0.930 . S
C71 H63 0.930 . S
C71 C72 1.382 . S
C71 C73 1.426 . S
C72 C71 1.382 . S
C72 C76 1.389 . S
C73 C71 1.426 . S
C73 C74 1.375 . S
C73 C77 1.532 1_655 S
C74 H64 0.930 . S
C74 C73 1.375 . S
C74 C75 1.416 . S
C75 C74 1.416 . S
C75 C76 1.371 . S
C76 H65 0.930 . S
C76 C72 1.389 . S
C76 C75 1.371 . S
C77 H66 0.970 1_455 S
C77 H67 0.970 . S
C77 C73 1.532 1_455 S
C77 C78 1.499 . S
C78 C77 1.499 . S
C78 C79 1.370 . S
C78 C83 1.415 . S
C79 H68 0.930 . S
C79 C78 1.370 . S
C79 C80 1.407 . S
C80 C79 1.407 . S
C80 C81 1.365 . S
C81 H69 0.930 . S
C81 C80 1.365 . S
C81 C82 1.393 . S
C82 C81 1.393 . S
C82 C83 1.387 . S
C83 H70 0.930 . S
C83 C78 1.415 . S
C83 C82 1.387 . S
H84 C92 0.930 . S
H85 C95 0.930 . S
H86 C97 0.930 . S
H87 C98 0.970 1_554 S
H88 C98 0.970 . S
H89 C100 0.930 . S
H90 C102 0.930 . S
H91 C104 0.930 . S
C92 H84 0.930 . S
C92 C93 1.382 . S
C92 C94 1.426 1_554 S
C93 C92 1.382 . S
C93 C97 1.389 1_554 S
C94 C92 1.426 1_556 S
C94 C95 1.375 . S
C94 C98 1.532 . S
C95 H85 0.930 . S
C95 C94 1.375 . S
C95 C96 1.416 . S
C96 C95 1.416 . S
C96 C97 1.371 . S
C97 H86 0.930 . S
C97 C93 1.389 1_556 S
C97 C96 1.371 . S
C98 H87 0.970 1_556 S
C98 H88 0.970 . S
C98 C94 1.532 . S
C98 C99 1.499 1_546 S
C99 C98 1.499 1_564 S
C99 C100 1.370 . S
C99 C104 1.415 1_554 S
C100 H89 0.930 . S
C100 C99 1.370 . S
C100 C101 1.407 . S
C101 C100 1.407 . S
C101 C102 1.365 . S
C102 H90 0.930 . S
C102 C101 1.365 . S
C102 C103 1.393 1_554 S
C103 C102 1.393 1_556 S
C103 C104 1.387 . S
C104 H91 0.930 . S
C104 C99 1.415 1_556 S
C104 C103 1.387 . S
H105 C113 0.930 . S
H106 C116 0.930 . S
H107 C118 0.930 . S
H108 C119 0.970 . S
H109 C119 0.970 . S
H110 C121 0.930 . S
H111 C123 0.930 . S
H112 C125 0.930 . S
C113 H105 0.930 . S
C113 C114 1.382 . S
C113 C115 1.426 . S
C114 C113 1.382 . S
C114 C118 1.389 . S
C115 C113 1.426 . S
C115 C116 1.375 . S
C115 C119 1.532 . S
C116 H106 0.930 . S
C116 C115 1.375 . S
C116 C117 1.416 . S
C117 C116 1.416 . S
C117 C118 1.371 . S
C118 H107 0.930 . S
C118 C114 1.389 . S
C118 C117 1.371 . S
C119 H108 0.970 . S
C119 H109 0.970 . S
C119 C115 1.532 . S
C119 C120 1.499 . S
C120 C119 1.499 . S
C120 C121 1.370 . S
C120 C125 1.415 . S
C121 H110 0.930 . S
C121 C120 1.370 . S
C121 C122 1.407 . S
C122 C121 1.407 . S
C122 C123 1.365 . S
C123 H111 0.930 . S
C123 C122 1.365 . S
C123 C124 1.393 . S
C124 C123 1.393 . S
C124 C125 1.387 . S
C125 H112 0.930 . S
C125 C120 1.415 . S
C125 C124 1.387 . S
C126 O127 1.160 . S
C126 O133 1.185 . S
O127 C126 1.160 . S
O128 Zn129 1.899 . S
O128 C136 1.284 . S
Zn129 O128 1.899 . S
Zn129 O130 2.032 . S
Zn129 O133 2.086 . S
Zn129 O138 1.977 . S
O130 Zn129 2.032 . S
O130 C134 1.278 . S
C131 O132 1.203 . S
C131 O138 1.267 . S
O132 C131 1.203 . S
O133 C126 1.185 . S
O133 Zn129 2.086 . S
C134 O130 1.278 . S
C134 O135 1.211 . S
O135 C134 1.211 . S
C136 O128 1.284 . S
C136 O137 1.273 . S
O137 C136 1.273 . S
O138 Zn129 1.977 . S
O138 C131 1.267 . S
C139 O140 1.160 . S
C139 O146 1.185 . S
O140 C139 1.160 . S
O141 Zn142 1.899 . S
O141 C149 1.284 . S
Zn142 O141 1.899 . S
Zn142 O143 2.032 . S
Zn142 O146 2.086 . S
Zn142 O151 1.977 . S
O143 Zn142 2.032 . S
O143 C147 1.278 . S
C144 O145 1.203 . S
C144 O151 1.267 . S
O145 C144 1.203 . S
O146 C139 1.185 . S
O146 Zn142 2.086 . S
C147 O143 1.278 . S
C147 O148 1.211 . S
O148 C147 1.211 . S
C149 O141 1.284 . S
C149 O150 1.273 . S
O150 C149 1.273 . S
O151 Zn142 1.977 . S
O151 C144 1.267 . S
C152 O153 1.160 . S
C152 O159 1.185 . S
O153 C152 1.160 . S
O154 Zn155 1.899 . S
O154 C162 1.284 . S
Zn155 O154 1.899 . S
Zn155 O156 2.032 . S
Zn155 O159 2.086 . S
Zn155 O164 1.977 . S
O156 Zn155 2.032 . S
O156 C160 1.278 . S
C157 O158 1.203 . S
C157 O164 1.267 . S
O158 C157 1.203 . S
O159 C152 1.185 . S
O159 Zn155 2.086 . S
C160 O156 1.278 . S
C160 O161 1.211 . S
O161 C160 1.211 . S
C162 O154 1.284 . S
C162 O163 1.273 . S
O163 C162 1.273 . S
O164 Zn155 1.977 . S
O164 C157 1.267 . S
C165 O166 1.160 . S
C165 O172 1.185 . S
O166 C165 1.160 . S
O167 Zn168 1.899 . S
O167 C175 1.284 . S
Zn168 O167 1.899 . S
Zn168 O169 2.032 . S
Zn168 O172 2.086 . S
Zn168 O177 1.977 . S
O169 Zn168 2.032 . S
O169 C173 1.278 . S
C170 O171 1.203 . S
C170 O177 1.267 . S
O171 C170 1.203 . S
O172 C165 1.185 . S
O172 Zn168 2.086 . S
C173 O169 1.278 . S
C173 O174 1.211 . S
O174 C173 1.211 . S
C175 O167 1.284 . S
C175 O176 1.273 . S
O176 C175 1.273 . S
O177 Zn168 1.977 . S
O177 C170 1.267 . S
C178 O179 1.160 . S
C178 O185 1.185 . S
O179 C178 1.160 . S
O180 Zn181 1.899 . S
O180 C188 1.284 . S
Zn181 O180 1.899 . S
Zn181 O182 2.032 . S
Zn181 O185 2.086 . S
Zn181 O190 1.977 . S
O182 Zn181 2.032 . S
O182 C186 1.278 . S
C183 O184 1.204 . S
C183 O190 1.270 . S
O184 C183 1.204 . S
O185 C178 1.185 . S
O185 Zn181 2.086 . S
C186 O182 1.278 . S
C186 O187 1.211 . S
O187 C186 1.211 . S
C188 O180 1.284 . S
C188 O189 1.273 . S
O189 C188 1.273 . S
O190 Zn181 1.977 . S
O190 C183 1.270 . S
C191 O192 1.160 . S
C191 O198 1.185 . S
O192 C191 1.160 . S
O193 Zn194 1.899 . S
O193 C201 1.284 . S
Zn194 O193 1.899 . S
Zn194 O195 2.032 . S
Zn194 O198 2.086 . S
Zn194 O203 1.977 . S
O195 Zn194 2.032 . S
O195 C199 1.278 . S
C196 O197 1.203 . S
C196 O203 1.267 . S
O197 C196 1.203 . S
O198 C191 1.185 . S
O198 Zn194 2.086 . S
C199 O195 1.278 . S
C199 O200 1.211 . S
O200 C199 1.211 . S
C201 O193 1.284 . S
C201 O202 1.273 . S
O202 C201 1.273 . S
O203 Zn194 1.977 . S
O203 C196 1.267 . S
C204 C205 1.363 . S
C204 C210 1.379 . S
C204 N212 1.356 . S
C205 C204 1.363 . S
C205 C211 1.363 . S
C206 C207 1.363 . S
C206 C211 1.379 . S
C206 N213 1.356 . S
C207 C206 1.363 . S
C207 C210 1.363 . S
N208 C210 1.356 . S
N208 H220 0.984 . S
N208 H221 0.985 . S
N209 C211 1.356 . S
N209 H214 0.984 . S
N209 H215 0.985 . S
C210 C204 1.379 . S
C210 C207 1.363 . S
C210 N208 1.356 . S
C211 C205 1.363 . S
C211 C206 1.379 . S
C211 N209 1.356 . S
N212 C204 1.356 . S
N212 H218 0.984 . S
N212 H219 0.984 . S
N213 C206 1.356 . S
N213 H216 0.984 . S
N213 H217 0.985 . S
H214 N209 0.984 . S
H215 N209 0.985 . S
H216 N213 0.984 . S
H217 N213 0.985 . S
H218 N212 0.984 . S
H219 N212 0.984 . S
H220 N208 0.984 . S
H221 N208 0.985 . S
C222 C223 1.363 . S
C222 C228 1.379 . S
C222 N230 1.356 . S
C223 C222 1.363 . S
C223 C229 1.363 . S
C224 C225 1.363 . S
C224 C229 1.379 . S
C224 N231 1.356 . S
C225 C224 1.363 . S
C225 C228 1.363 . S
N226 C228 1.356 . S
N226 H238 0.984 . S
N226 H239 0.985 . S
N227 C229 1.356 . S
N227 H232 0.984 . S
N227 H233 0.985 . S
C228 C222 1.379 . S
C228 C225 1.363 . S
C228 N226 1.356 . S
C229 C223 1.363 . S
C229 C224 1.379 . S
C229 N227 1.356 . S
N230 C222 1.356 . S
N230 H236 0.984 . S
N230 H237 0.984 . S
N231 C224 1.356 . S
N231 H234 0.984 . S
N231 H235 0.985 . S
H232 N227 0.984 . S
H233 N227 0.985 . S
H234 N231 0.984 . S
H235 N231 0.985 . S
H236 N230 0.984 . S
H237 N230 0.984 . S
H238 N226 0.984 . S
H239 N226 0.985 . S
C240 C241 1.363 . S
C240 C246 1.379 . S
C240 N248 1.356 . S
C241 C240 1.363 . S
C241 C247 1.363 . S
C242 C243 1.363 . S
C242 C247 1.379 . S
C242 N249 1.356 . S
C243 C242 1.363 . S
C243 C246 1.363 . S
N244 C246 1.356 . S
N244 H256 0.984 . S
N244 H257 0.985 . S
N245 C247 1.356 . S
N245 H250 0.984 . S
N245 H251 0.985 . S
C246 C240 1.379 . S
C246 C243 1.363 . S
C246 N244 1.356 . S
C247 C241 1.363 . S
C247 C242 1.379 . S
C247 N245 1.356 . S
N248 C240 1.356 . S
N248 H254 0.984 . S
N248 H255 0.984 . S
N249 C242 1.356 . S
N249 H252 0.984 . S
N249 H253 0.985 . S
H250 N245 0.984 . S
H251 N245 0.985 . S
H252 N249 0.984 . S
H253 N249 0.985 . S
H254 N248 0.984 . S
H255 N248 0.984 . S
H256 N244 0.984 . S
H257 N244 0.985 . S
C258 C259 1.363 . S
C258 C264 1.379 . S
C258 N266 1.356 . S
C259 C258 1.363 . S
C259 C265 1.363 . S
C260 C261 1.363 . S
C260 C265 1.379 . S
C260 N267 1.356 . S
C261 C260 1.363 . S
C261 C264 1.363 . S
N262 C264 1.356 . S
N262 H274 0.984 . S
N262 H275 0.985 . S
N263 C265 1.356 . S
N263 H268 0.984 . S
N263 H269 0.985 . S
C264 C258 1.379 . S
C264 C261 1.363 . S
C264 N262 1.356 . S
C265 C259 1.363 . S
C265 C260 1.379 . S
C265 N263 1.356 . S
N266 C258 1.356 . S
N266 H272 0.984 . S
N266 H273 0.984 . S
N267 C260 1.356 . S
N267 H270 0.984 . S
N267 H271 0.985 . S
H268 N263 0.984 . S
H269 N263 0.985 . S
H270 N267 0.984 . S
H271 N267 0.985 . S
H272 N266 0.984 . S
H273 N266 0.984 . S
H274 N262 0.984 . S
H275 N262 0.985 . S
C276 C277 1.363 . S
C276 C282 1.379 . S
C276 N284 1.356 . S
C277 C276 1.363 . S
C277 C283 1.363 . S
C278 C279 1.363 . S
C278 C283 1.379 . S
C278 N285 1.356 . S
C279 C278 1.363 . S
C279 C282 1.363 . S
N280 C282 1.356 . S
N280 H292 0.984 . S
N280 H293 0.985 . S
N281 C283 1.356 1_554 S
N281 H286 0.984 . S
N281 H287 0.985 . S
C282 C276 1.379 . S
C282 C279 1.363 . S
C282 N280 1.356 . S
C283 C277 1.363 . S
C283 C278 1.379 . S
C283 N281 1.356 1_556 S
N284 C276 1.356 . S
N284 H290 0.984 . S
N284 H291 0.984 . S
N285 C278 1.356 . S
N285 H288 0.984 . S
N285 H289 0.985 . S
H286 N281 0.984 . S
H287 N281 0.985 . S
H288 N285 0.984 . S
H289 N285 0.985 . S
H290 N284 0.984 . S
H291 N284 0.984 . S
H292 N280 0.984 . S
H293 N280 0.985 . S
C294 C295 1.363 . S
C294 C300 1.379 . S
C294 N302 1.356 . S
C295 C294 1.363 . S
C295 C301 1.363 . S
C296 C297 1.363 . S
C296 C301 1.379 . S
C296 N303 1.356 . S
C297 C296 1.363 . S
C297 C300 1.363 . S
N298 C300 1.356 . S
N298 H310 0.984 . S
N298 H311 0.985 . S
N299 C301 1.356 . S
N299 H304 0.984 . S
N299 H305 0.985 . S
C300 C294 1.379 . S
C300 C297 1.363 . S
C300 N298 1.356 . S
C301 C295 1.363 . S
C301 C296 1.379 . S
C301 N299 1.356 . S
N302 C294 1.356 . S
N302 H308 0.984 . S
N302 H309 0.984 . S
N303 C296 1.356 . S
N303 H306 0.984 . S
N303 H307 0.985 . S
H304 N299 0.984 . S
H305 N299 0.985 . S
H306 N303 0.984 . S
H307 N303 0.985 . S
H308 N302 0.984 . S
H309 N302 0.984 . S
H310 N298 0.984 . S
H311 N298 0.985 . S
C312 C313 1.363 . S
C312 C318 1.379 . S
C312 N320 1.356 . S
C313 C312 1.363 . S
C313 C319 1.363 . S
C314 C315 1.363 . S
C314 C319 1.379 . S
C314 N321 1.356 . S
C315 C314 1.363 . S
C315 C318 1.363 . S
N316 C318 1.356 . S
N316 H328 0.984 . S
N316 H329 0.985 . S
N317 C319 1.356 . S
N317 H322 0.984 . S
N317 H323 0.985 . S
C318 C312 1.379 . S
C318 C315 1.363 . S
C318 N316 1.356 . S
C319 C313 1.363 . S
C319 C314 1.379 . S
C319 N317 1.356 . S
N320 C312 1.356 . S
N320 H326 0.984 . S
N320 H327 0.984 . S
N321 C314 1.356 . S
N321 H324 0.984 . S
N321 H325 0.985 . S
H322 N317 0.984 . S
H323 N317 0.985 . S
H324 N321 0.984 . S
H325 N321 0.985 . S
H326 N320 0.984 . S
H327 N320 0.984 . S
H328 N316 0.984 . S
H329 N316 0.985 . S
C330 C331 1.363 . S
C330 C336 1.379 . S
C330 N338 1.356 . S
C331 C330 1.363 . S
C331 C337 1.363 . S
C332 C333 1.363 . S
C332 C337 1.379 . S
C332 N339 1.356 . S
C333 C332 1.363 . S
C333 C336 1.363 . S
N334 C336 1.356 . S
N334 H346 0.984 . S
N334 H347 0.985 . S
N335 C337 1.356 . S
N335 H340 0.984 . S
N335 H341 0.985 . S
C336 C330 1.379 . S
C336 C333 1.363 . S
C336 N334 1.356 . S
C337 C331 1.363 . S
C337 C332 1.379 . S
C337 N335 1.356 . S
N338 C330 1.356 . S
N338 H344 0.984 . S
N338 H345 0.984 . S
N339 C332 1.356 . S
N339 H342 0.984 . S
N339 H343 0.985 . S
H340 N335 0.984 . S
H341 N335 0.985 . S
H342 N339 0.984 . S
H343 N339 0.985 . S
H344 N338 0.984 . S
H345 N338 0.984 . S
H346 N334 0.984 . S
H347 N334 0.985 . S
C348 C349 1.363 . S
C348 C354 1.379 . S
C348 N356 1.356 . S
C349 C348 1.363 . S
C349 C355 1.363 . S
C350 C351 1.363 . S
C350 C355 1.379 . S
C350 N357 1.356 . S
C351 C350 1.363 . S
C351 C354 1.363 . S
N352 C354 1.356 . S
N352 H364 0.984 . S
N352 H365 0.985 . S
N353 C355 1.356 . S
N353 H358 0.984 . S
N353 H359 0.985 . S
C354 C348 1.379 . S
C354 C351 1.363 . S
C354 N352 1.356 . S
C355 C349 1.363 . S
C355 C350 1.379 . S
C355 N353 1.356 . S
N356 C348 1.356 . S
N356 H362 0.984 . S
N356 H363 0.984 . S
N357 C350 1.356 . S
N357 H360 0.984 . S
N357 H361 0.985 . S
H358 N353 0.984 . S
H359 N353 0.985 . S
H360 N357 0.984 . S
H361 N357 0.985 . S
H362 N356 0.984 . S
H363 N356 0.984 . S
H364 N352 0.984 . S
H365 N352 0.985 . S
C366 C367 1.363 . S
C366 C372 1.379 . S
C366 N374 1.356 1_554 S
C367 C366 1.363 . S
C367 C373 1.363 . S
C368 C369 1.363 . S
C368 C373 1.379 . S
C368 N375 1.356 . S
C369 C368 1.363 . S
C369 C372 1.363 . S
N370 C372 1.356 . S
N370 H382 0.984 1_554 S
N370 H383 0.985 . S
N371 C373 1.356 . S
N371 H376 0.984 . S
N371 H377 0.985 . S
C372 C366 1.379 . S
C372 C369 1.363 . S
C372 N370 1.356 . S
C373 C367 1.363 . S
C373 C368 1.379 . S
C373 N371 1.356 . S
N374 C366 1.356 1_556 S
N374 H380 0.984 . S
N374 H381 0.984 . S
N375 C368 1.356 . S
N375 H378 0.984 . S
N375 H379 0.985 . S
H376 N371 0.984 . S
H377 N371 0.985 . S
H378 N375 0.984 . S
H379 N375 0.985 . S
H380 N374 0.984 . S
H381 N374 0.984 . S
H382 N370 0.984 1_556 S
H383 N370 0.985 . S
C384 C385 1.363 . S
C384 C390 1.379 . S
C384 N392 1.356 . S
C385 C384 1.363 . S
C385 C391 1.363 . S
C386 C387 1.363 . S
C386 C391 1.379 . S
C386 N393 1.356 . S
C387 C386 1.363 . S
C387 C390 1.363 . S
N388 C390 1.356 . S
N388 H400 0.984 . S
N388 H401 0.985 . S
N389 C391 1.356 . S
N389 H394 0.984 . S
N389 H395 0.985 . S
C390 C384 1.379 . S
C390 C387 1.363 . S
C390 N388 1.356 . S
C391 C385 1.363 . S
C391 C386 1.379 . S
C391 N389 1.356 . S
N392 C384 1.356 . S
N392 H398 0.984 . S
N392 H399 0.984 . S
N393 C386 1.356 . S
N393 H396 0.984 . S
N393 H397 0.985 . S
H394 N389 0.984 . S
H395 N389 0.985 . S
H396 N393 0.984 . S
H397 N393 0.985 . S
H398 N392 0.984 . S
H399 N392 0.984 . S
H400 N388 0.984 . S
H401 N388 0.985 . S
C402 C403 1.363 . S
C402 C408 1.379 . S
C402 N410 1.356 . S
C403 C402 1.363 . S
C403 C409 1.363 . S
C404 C405 1.363 . S
C404 C409 1.379 . S
C404 N411 1.356 . S
C405 C404 1.363 . S
C405 C408 1.363 . S
N406 C408 1.356 . S
N406 H418 0.984 . S
N406 H419 0.985 . S
N407 C409 1.356 . S
N407 H412 0.984 . S
N407 H413 0.985 . S
C408 C402 1.379 . S
C408 C405 1.363 . S
C408 N406 1.356 . S
C409 C403 1.363 . S
C409 C404 1.379 . S
C409 N407 1.356 . S
N410 C402 1.356 . S
N410 H416 0.984 . S
N410 H417 0.984 . S
N411 C404 1.356 . S
N411 H414 0.984 . S
N411 H415 0.985 . S
H412 N407 0.984 . S
H413 N407 0.985 . S
H414 N411 0.984 . S
H415 N411 0.985 . S
H416 N410 0.984 . S
H417 N410 0.984 . S
H418 N406 0.984 . S
H419 N406 0.985 . S
C420 C421 1.363 . S
C420 C426 1.379 . S
C420 N428 1.356 . S
C421 C420 1.363 . S
C421 C427 1.363 . S
C422 C423 1.363 . S
C422 C427 1.379 . S
C422 N429 1.356 . S
C423 C422 1.363 . S
C423 C426 1.363 . S
N424 C426 1.356 . S
N424 H436 0.984 . S
N424 H437 0.985 . S
N425 C427 1.356 . S
N425 H430 0.984 . S
N425 H431 0.985 . S
C426 C420 1.379 . S
C426 C423 1.363 . S
C426 N424 1.356 . S
C427 C421 1.363 . S
C427 C422 1.379 . S
C427 N425 1.356 . S
N428 C420 1.356 . S
N428 H434 0.984 . S
N428 H435 0.984 . S
N429 C422 1.356 . S
N429 H432 0.984 . S
N429 H433 0.985 . S
H430 N425 0.984 . S
H431 N425 0.985 . S
H432 N429 0.984 . S
H433 N429 0.985 . S
H434 N428 0.984 . S
H435 N428 0.984 . S
H436 N424 0.984 . S
H437 N424 0.985 . S
C438 C439 1.363 . S
C438 C444 1.379 . S
C438 N446 1.356 . S
C439 C438 1.363 . S
C439 C445 1.363 . S
C440 C441 1.363 . S
C440 C445 1.379 . S
C440 N447 1.356 . S
C441 C440 1.363 . S
C441 C444 1.363 . S
N442 C444 1.356 . S
N442 H454 0.984 . S
N442 H455 0.985 . S
N443 C445 1.356 . S
N443 H448 0.984 . S
N443 H449 0.985 . S
C444 C438 1.379 . S
C444 C441 1.363 . S
C444 N442 1.356 . S
C445 C439 1.363 . S
C445 C440 1.379 . S
C445 N443 1.356 . S
N446 C438 1.356 . S
N446 H452 0.984 . S
N446 H453 0.984 . S
N447 C440 1.356 . S
N447 H450 0.984 . S
N447 H451 0.985 . S
H448 N443 0.984 . S
H449 N443 0.985 . S
H450 N447 0.984 . S
H451 N447 0.985 . S
H452 N446 0.984 . S
H453 N446 0.984 . S
H454 N442 0.984 . S
H455 N442 0.985 . S
C456 C457 1.363 . S
C456 C462 1.379 . S
C456 N464 1.356 . S
C457 C456 1.363 . S
C457 C463 1.363 . S
C458 C459 1.363 . S
C458 C463 1.379 . S
C458 N465 1.356 . S
C459 C458 1.363 . S
C459 C462 1.363 . S
N460 C462 1.356 . S
N460 H472 0.984 . S
N460 H473 0.985 . S
N461 C463 1.356 . S
N461 H466 0.984 . S
N461 H467 0.985 . S
C462 C456 1.379 . S
C462 C459 1.363 . S
C462 N460 1.356 . S
C463 C457 1.363 . S
C463 C458 1.379 . S
C463 N461 1.356 . S
N464 C456 1.356 . S
N464 H470 0.984 . S
N464 H471 0.984 . S
N465 C458 1.356 . S
N465 H468 0.984 . S
N465 H469 0.985 . S
H466 N461 0.984 . S
H467 N461 0.985 . S
H468 N465 0.984 . S
H469 N465 0.985 . S
H470 N464 0.984 . S
H471 N464 0.984 . S
H472 N460 0.984 . S
H473 N460 0.985 . S
C474 C475 1.363 . S
C474 C480 1.379 . S
C474 N482 1.356 . S
C475 C474 1.363 . S
C475 C481 1.363 . S
C476 C477 1.363 . S
C476 C481 1.379 . S
C476 N483 1.356 . S
C477 C476 1.363 . S
C477 C480 1.363 . S
N478 C480 1.356 . S
N478 H490 0.984 . S
N478 H491 0.985 . S
N479 C481 1.356 . S
N479 H484 0.984 . S
N479 H485 0.985 . S
C480 C474 1.379 . S
C480 C477 1.363 . S
C480 N478 1.356 . S
C481 C475 1.363 . S
C481 C476 1.379 . S
C481 N479 1.356 . S
N482 C474 1.356 . S
N482 H488 0.984 . S
N482 H489 0.984 . S
N483 C476 1.356 . S
N483 H486 0.984 1_556 S
N483 H487 0.985 . S
H484 N479 0.984 . S
H485 N479 0.985 . S
H486 N483 0.984 1_554 S
H487 N483 0.985 . S
H488 N482 0.984 . S
H489 N482 0.984 . S
H490 N478 0.984 . S
H491 N478 0.985 . S
C492 C493 1.363 . S
C492 C498 1.379 . S
C492 N500 1.356 . S
C493 C492 1.363 . S
C493 C499 1.363 . S
C494 C495 1.363 . S
C494 C499 1.379 . S
C494 N501 1.356 . S
C495 C494 1.363 . S
C495 C498 1.363 . S
N496 C498 1.356 . S
N496 H508 0.984 . S
N496 H509 0.985 . S
N497 C499 1.356 . S
N497 H502 0.984 . S
N497 H503 0.985 . S
C498 C492 1.379 . S
C498 C495 1.363 . S
C498 N496 1.356 . S
C499 C493 1.363 . S
C499 C494 1.379 . S
C499 N497 1.356 . S
N500 C492 1.356 . S
N500 H506 0.984 . S
N500 H507 0.984 . S
N501 C494 1.356 . S
N501 H504 0.984 . S
N501 H505 0.985 . S
H502 N497 0.984 . S
H503 N497 0.985 . S
H504 N501 0.984 . S
H505 N501 0.985 . S
H506 N500 0.984 . S
H507 N500 0.984 . S
H508 N496 0.984 . S
H509 N496 0.985 . S
C510 C511 1.363 . S
C510 C516 1.379 . S
C510 N518 1.356 . S
C511 C510 1.363 . S
C511 C517 1.363 . S
C512 C513 1.363 . S
C512 C517 1.379 . S
C512 N519 1.356 . S
C513 C512 1.363 . S
C513 C516 1.363 . S
N514 C516 1.356 . S
N514 H526 0.984 . S
N514 H527 0.985 . S
N515 C517 1.356 . S
N515 H520 0.984 . S
N515 H521 0.985 . S
C516 C510 1.379 . S
C516 C513 1.363 . S
C516 N514 1.356 . S
C517 C511 1.363 . S
C517 C512 1.379 . S
C517 N515 1.356 . S
N518 C510 1.356 . S
N518 H524 0.984 . S
N518 H525 0.984 . S
N519 C512 1.356 . S
N519 H522 0.984 . S
N519 H523 0.985 . S
H520 N515 0.984 . S
H521 N515 0.985 . S
H522 N519 0.984 . S
H523 N519 0.985 . S
H524 N518 0.984 . S
H525 N518 0.984 . S
H526 N514 0.984 . S
H527 N514 0.985 . S
C528 C529 1.363 . S
C528 C534 1.379 . S
C528 N536 1.356 . S
C529 C528 1.363 . S
C529 C535 1.363 . S
C530 C531 1.363 . S
C530 C535 1.379 . S
C530 N537 1.356 . S
C531 C530 1.363 . S
C531 C534 1.363 . S
N532 C534 1.356 . S
N532 H544 0.984 . S
N532 H545 0.985 . S
N533 C535 1.356 . S
N533 H538 0.984 . S
N533 H539 0.985 . S
C534 C528 1.379 . S
C534 C531 1.363 . S
C534 N532 1.356 . S
C535 C529 1.363 . S
C535 C530 1.379 . S
C535 N533 1.356 . S
N536 C528 1.356 . S
N536 H542 0.984 . S
N536 H543 0.984 . S
N537 C530 1.356 . S
N537 H540 0.984 . S
N537 H541 0.985 . S
H538 N533 0.984 . S
H539 N533 0.985 . S
H540 N537 0.984 . S
H541 N537 0.985 . S
H542 N536 0.984 . S
H543 N536 0.984 . S
H544 N532 0.984 . S
H545 N532 0.985 . S
C546 C547 1.363 . S
C546 C552 1.379 . S
C546 N554 1.356 . S
C547 C546 1.363 . S
C547 C553 1.363 . S
C548 C549 1.363 . S
C548 C553 1.379 . S
C548 N555 1.356 . S
C549 C548 1.363 . S
C549 C552 1.363 . S
N550 C552 1.356 . S
N550 H562 0.984 . S
N550 H563 0.985 . S
N551 C553 1.356 . S
N551 H556 0.984 . S
N551 H557 0.985 . S
C552 C546 1.379 . S
C552 C549 1.363 . S
C552 N550 1.356 . S
C553 C547 1.363 . S
C553 C548 1.379 . S
C553 N551 1.356 . S
N554 C546 1.356 . S
N554 H560 0.984 . S
N554 H561 0.984 . S
N555 C548 1.356 . S
N555 H558 0.984 . S
N555 H559 0.985 . S
H556 N551 0.984 . S
H557 N551 0.985 . S
H558 N555 0.984 . S
H559 N555 0.985 . S
H560 N554 0.984 . S
H561 N554 0.984 . S
H562 N550 0.984 . S
H563 N550 0.985 . S
C564 C565 1.363 . S
C564 C570 1.379 . S
C564 N572 1.356 . S
C565 C564 1.363 . S
C565 C571 1.363 . S
C566 C567 1.363 . S
C566 C571 1.379 . S
C566 N573 1.356 . S
C567 C566 1.363 . S
C567 C570 1.363 . S
N568 C570 1.356 . S
N568 H580 0.984 . S
N568 H581 0.985 . S
N569 C571 1.356 . S
N569 H574 0.984 . S
N569 H575 0.985 . S
C570 C564 1.379 . S
C570 C567 1.363 . S
C570 N568 1.356 . S
C571 C565 1.363 . S
C571 C566 1.379 . S
C571 N569 1.356 . S
N572 C564 1.356 . S
N572 H578 0.984 . S
N572 H579 0.984 . S
N573 C566 1.356 . S
N573 H576 0.984 . S
N573 H577 0.985 . S
H574 N569 0.984 . S
H575 N569 0.985 . S
H576 N573 0.984 . S
H577 N573 0.985 . S
H578 N572 0.984 . S
H579 N572 0.984 . S
H580 N568 0.984 . S
H581 N568 0.985 . S
C582 C583 1.363 . S
C582 C588 1.379 . S
C582 N590 1.356 . S
C583 C582 1.363 . S
C583 C589 1.363 . S
C584 C585 1.363 . S
C584 C589 1.379 . S
C584 N591 1.356 . S
C585 C584 1.363 . S
C585 C588 1.363 . S
N586 C588 1.356 . S
N586 H598 0.984 . S
N586 H599 0.985 . S
N587 C589 1.356 . S
N587 H592 0.984 . S
N587 H593 0.985 . S
C588 C582 1.379 . S
C588 C585 1.363 . S
C588 N586 1.356 . S
C589 C583 1.363 . S
C589 C584 1.379 . S
C589 N587 1.356 . S
N590 C582 1.356 . S
N590 H596 0.984 . S
N590 H597 0.984 . S
N591 C584 1.356 . S
N591 H594 0.984 . S
N591 H595 0.985 . S
H592 N587 0.984 . S
H593 N587 0.985 . S
H594 N591 0.984 . S
H595 N591 0.985 . S
H596 N590 0.984 . S
H597 N590 0.984 . S
H598 N586 0.984 . S
H599 N586 0.985 . S
C600 C601 1.363 . S
C600 C606 1.379 1_554 S
C600 N608 1.356 . S
C601 C600 1.363 . S
C601 C607 1.363 . S
C602 C603 1.363 1_554 S
C602 C607 1.379 . S
C602 N609 1.356 . S
C603 C602 1.363 1_556 S
C603 C606 1.363 . S
N604 C606 1.356 . S
N604 H616 0.984 . S
N604 H617 0.985 . S
N605 C607 1.356 . S
N605 H610 0.984 . S
N605 H611 0.985 . S
C606 C600 1.379 1_556 S
C606 C603 1.363 . S
C606 N604 1.356 . S
C607 C601 1.363 . S
C607 C602 1.379 . S
C607 N605 1.356 . S
N608 C600 1.356 . S
N608 H614 0.984 . S
N608 H615 0.984 . S
N609 C602 1.356 . S
N609 H612 0.984 1_554 S
N609 H613 0.985 . S
H610 N605 0.984 . S
H611 N605 0.985 . S
H612 N609 0.984 1_556 S
H613 N609 0.985 . S
H614 N608 0.984 . S
H615 N608 0.984 . S
H616 N604 0.984 . S
H617 N604 0.985 . S
C618 C619 1.363 . S
C618 C624 1.379 . S
C618 N626 1.356 . S
C619 C618 1.363 . S
C619 C625 1.363 . S
C620 C621 1.363 . S
C620 C625 1.379 . S
C620 N627 1.356 . S
C621 C620 1.363 . S
C621 C624 1.363 . S
N622 C624 1.356 . S
N622 H634 0.984 . S
N622 H635 0.985 . S
N623 C625 1.356 . S
N623 H628 0.984 . S
N623 H629 0.985 . S
C624 C618 1.379 . S
C624 C621 1.363 . S
C624 N622 1.356 . S
C625 C619 1.363 . S
C625 C620 1.379 . S
C625 N623 1.356 . S
N626 C618 1.356 . S
N626 H632 0.984 . S
N626 H633 0.984 . S
N627 C620 1.356 . S
N627 H630 0.984 . S
N627 H631 0.985 . S
H628 N623 0.984 . S
H629 N623 0.985 . S
H630 N627 0.984 . S
H631 N627 0.985 . S
H632 N626 0.984 . S
H633 N626 0.984 . S
H634 N622 0.984 . S
H635 N622 0.985 . S
C207 C201 1.585 . S
C205 C19 1.488 . S
C223 C40 1.460 . S
C225 C126 1.484 . S
C241 C51 1.475 . S
C243 C149 1.606 . S
C259 C72 1.406 . S
C261 C162 1.497 . S
C279 C165 1.508 . S
C277 C103 1.482 . S
C295 C114 1.398 . S
C297 C178 1.453 . S
C313 C30 1.403 . S
C315 C139 1.459 . S
C331 C61 1.483 . S
C333 C152 1.510 . S
C349 C82 1.418 . S
C351 C175 1.493 . S
C369 C188 1.599 . S
C367 C93 1.469 . S
C387 C191 1.483 . S
C385 C124 1.459 . S
C405 C136 1.589 . S
C403 C9 1.474 . S
C421 C17 1.453 . S
C423 C147 1.481 . S
C439 C38 1.410 . S
C441 C160 1.452 . S
C459 C170 1.469 . S
C457 C54 1.420 . S
C475 C75 1.429 . S
C477 C183 1.455 1_556 S
C495 C199 1.477 . S
C493 C101 1.437 . S
C513 C131 1.447 . S
C511 C117 1.392 . S
C531 C196 1.445 . S
C529 C33 1.391 . S
C547 C59 1.438 . S
C549 C134 1.478 . S
C567 C144 1.461 . S
C565 C80 1.431 . S
C583 C96 1.421 . S
C585 C157 1.471 . S
C601 C122 1.409 . S
C603 C173 1.451 . S
C619 C12 1.450 . S
C621 C186 1.480 . S
