# Generated by pormake.
# Topology zzz, (3,6)-cn, num edge types: 1
# Building blocks:
#     Node 0, Type 0, BuildingBlock: PAMTOO_clean_linker_0, # of connection points: 3
#     Node 1, Type 0, BuildingBlock: PAMTOO_clean_linker_0, # of connection points: 3
#     Node 2, Type 0, BuildingBlock: PAMTOO_clean_linker_0, # of connection points: 3
#     Node 3, Type 0, BuildingBlock: PAMTOO_clean_linker_0, # of connection points: 3
#     Node 4, Type 0, BuildingBlock: PAMTOO_clean_linker_0, # of connection points: 3
#     Node 5, Type 0, BuildingBlock: PAMTOO_clean_linker_0, # of connection points: 3
#     Node 6, Type 0, BuildingBlock: PAMTOO_clean_linker_0, # of connection points: 3
#     Node 7, Type 0, BuildingBlock: PAMTOO_clean_linker_0, # of connection points: 3
#     Node 8, Type 1, BuildingBlock: KUMBOL_clean_sbu_1, # of connection points: 6
#     Node 9, Type 1, BuildingBlock: KUMBOL_clean_sbu_1, # of connection points: 6
#     Node 10, Type 1, BuildingBlock: KUMBOL_clean_sbu_1, # of connection points: 6
#     Node 11, Type 1, BuildingBlock: KUMBOL_clean_sbu_1, # of connection points: 6
#     Edge 12, Type (0, 1), BuildingBlock: AJUNOK_clean_linker_0, # of connection points: 2
#     Edge 13, Type (0, 1), BuildingBlock: AJUNOK_clean_linker_0, # of connection points: 2
#     Edge 14, Type (0, 1), BuildingBlock: AJUNOK_clean_linker_0, # of connection points: 2
#     Edge 15, Type (0, 1), BuildingBlock: AJUNOK_clean_linker_0, # of connection points: 2
#     Edge 16, Type (0, 1), BuildingBlock: AJUNOK_clean_linker_0, # of connection points: 2
#     Edge 17, Type (0, 1), BuildingBlock: AJUNOK_clean_linker_0, # of connection points: 2
#     Edge 18, Type (0, 1), BuildingBlock: AJUNOK_clean_linker_0, # of connection points: 2
#     Edge 19, Type (0, 1), BuildingBlock: AJUNOK_clean_linker_0, # of connection points: 2
#     Edge 20, Type (0, 1), BuildingBlock: AJUNOK_clean_linker_0, # of connection points: 2
#     Edge 21, Type (0, 1), BuildingBlock: AJUNOK_clean_linker_0, # of connection points: 2
#     Edge 22, Type (0, 1), BuildingBlock: AJUNOK_clean_linker_0, # of connection points: 2
#     Edge 23, Type (0, 1), BuildingBlock: AJUNOK_clean_linker_0, # of connection points: 2
#     Edge 24, Type (0, 1), BuildingBlock: AJUNOK_clean_linker_0, # of connection points: 2
#     Edge 25, Type (0, 1), BuildingBlock: AJUNOK_clean_linker_0, # of connection points: 2
#     Edge 26, Type (0, 1), BuildingBlock: AJUNOK_clean_linker_0, # of connection points: 2
#     Edge 27, Type (0, 1), BuildingBlock: AJUNOK_clean_linker_0, # of connection points: 2
#     Edge 28, Type (0, 1), BuildingBlock: AJUNOK_clean_linker_0, # of connection points: 2
#     Edge 29, Type (0, 1), BuildingBlock: AJUNOK_clean_linker_0, # of connection points: 2
#     Edge 30, Type (0, 1), BuildingBlock: AJUNOK_clean_linker_0, # of connection points: 2
#     Edge 31, Type (0, 1), BuildingBlock: AJUNOK_clean_linker_0, # of connection points: 2
#     Edge 32, Type (0, 1), BuildingBlock: AJUNOK_clean_linker_0, # of connection points: 2
#     Edge 33, Type (0, 1), BuildingBlock: AJUNOK_clean_linker_0, # of connection points: 2
#     Edge 34, Type (0, 1), BuildingBlock: AJUNOK_clean_linker_0, # of connection points: 2
#     Edge 35, Type (0, 1), BuildingBlock: AJUNOK_clean_linker_0, # of connection points: 2
# Relax obj value: 0.238
# Max RMSD: 0.126
# Mean RMSD: 0.084
data_MOF--net-zzz--node1-KUMBOL_clean_sbu_1--node2-PAMTOO_clean_linker_0--edge1-AJUNOK_clean_linker_0
_symmetry_space_group_name_H-M    P1
_symmetry_Int_Tables_number       1
_symmetry_cell_setting            triclinic
loop_
_symmetry_equiv_pos_as_xyz
'x, y, z'
_cell_length_a     35.970847
_cell_length_b     35.849522
_cell_length_c     11.44966
_cell_angle_alpha  90.086709
_cell_angle_beta   90.028038
_cell_angle_gamma 90.031052
loop_
_atom_site_label
_atom_site_type_symbol
_atom_site_fract_x
_atom_site_fract_y
_atom_site_fract_z
_atom_type_partial_charge
H0 H 0.87761 0.61087 0.29909 0.0
H1 H 0.76393 0.61931 0.18846 0.0
H2 H 0.79258 0.55006 0.48002 0.0
H3 H 0.72856 0.5143 0.2776 0.0
C4 C 0.72785 0.54215 0.23518 0.0
O5 O 0.73837 0.56839 0.31981 0.0
H6 H 0.74877 0.54114 0.16358 0.0
C7 C 0.84845 0.60458 0.31034 0.0
C8 C 0.83834 0.58291 0.40789 0.0
C9 C 0.82238 0.61487 0.22316 0.0
C10 C 0.78485 0.60815 0.24558 0.0
C11 C 0.77402 0.58196 0.32842 0.0
C12 C 0.80086 0.56936 0.41225 0.0
H13 H 0.11615 0.86929 0.37679 0.0
H14 H 0.09792 0.76566 0.20001 0.0
H15 H 1.02309 0.7997 0.47319 0.0
H16 H 1.02495 0.69872 0.36836 0.0
C17 C 0.04563 0.71162 0.30958 0.0
O18 O 0.03638 0.74939 0.29683 0.0
H19 H 0.07282 0.70901 0.35541 0.0
C20 C 0.10112 0.84316 0.37175 0.0
C21 C 0.06994 0.8378 0.4443 0.0
C22 C 0.11184 0.81716 0.2862 0.0
C23 C 0.09046 0.78521 0.26842 0.0
C24 C 0.05832 0.77869 0.33266 0.0
C25 C 0.04802 0.80479 0.4229 0.0
H26 H 0.71586 0.96698 0.36219 0.0
H27 H 0.81956 0.97443 0.17867 0.0
H28 H 0.80441 1.03289 0.5053 0.0
H29 H 0.86514 0.06917 0.30402 0.0
C30 C 0.86579 0.04227 0.25572 0.0
O31 O 0.85397 1.0144 0.33259 0.0
H32 H 0.84578 0.04506 0.18208 0.0
C33 C 0.74444 0.97626 0.35844 0.0
C34 C 0.75671 0.99997 0.44724 0.0
C35 C 0.76579 0.96881 0.25805 0.0
C36 C 0.80286 0.98047 0.25502 0.0
C37 C 0.81754 1.00324 0.3433 0.0
C38 C 0.7939 1.01416 0.43879 0.0
H39 H 0.47061 0.72349 0.37384 0.0
H40 H 0.49062 0.82454 0.18442 0.0
H41 H 0.57296 0.78327 0.42551 0.0
H42 H 0.58757 0.87622 0.31449 0.0
C43 C 0.55987 0.87151 0.27552 0.0
O44 O 0.55782 0.83342 0.24933 0.0
H45 H 0.53937 0.87892 0.34454 0.0
C46 C 0.48719 0.74839 0.36141 0.0
C47 C 0.52108 0.75135 0.42186 0.0
C48 C 0.47555 0.77474 0.2783 0.0
C49 C 0.49877 0.80483 0.25141 0.0
C50 C 0.53414 0.808 0.30028 0.0
C51 C 0.54549 0.78125 0.38747 0.0
H52 H 0.23012 0.62369 0.13815 0.0
H53 H 0.3406 0.61455 0.26952 0.0
H54 H 0.30127 0.5343 1.0184 0.0
H55 H 0.36241 0.49879 0.23801 0.0
C56 C 0.36136 0.52794 0.27099 0.0
O57 O 0.35653 0.55152 0.17452 0.0
H58 H 0.33655 0.52907 0.32906 0.0
C59 C 0.25693 0.60993 0.13463 0.0
C60 C 0.26227 0.57963 0.05789 0.0
C61 C 0.28463 0.622 0.21183 0.0
C62 C 0.31884 0.60397 0.21378 0.0
C63 C 0.32431 0.57086 0.15239 0.0
C64 C 0.29623 0.55884 0.07109 0.0
H65 H 0.05822 0.22898 0.25863 0.0
H66 H 0.0772 0.34344 0.34872 0.0
H67 H 0.06658 0.31215 0.98652 0.0
H68 H 1.02013 0.38123 0.17714 0.0
C69 C 0.04682 0.39619 0.16179 0.0
O70 O 0.07544 0.37015 0.14502 0.0
H71 H 0.04314 0.41156 0.07849 0.0
C72 C 0.06297 0.25742 0.23011 0.0
C73 C 0.06298 0.26552 0.10983 0.0
C74 C 0.06737 0.28546 0.31511 0.0
C75 C 0.07358 0.32212 0.28233 0.0
C76 C 0.07208 0.33262 0.16623 0.0
C77 C 0.06732 0.30421 0.07767 0.0
H78 H 0.35591 0.12619 0.17336 0.0
H79 H 0.24742 0.10696 0.31502 0.0
H80 H 0.29445 1.02723 0.0794 0.0
H81 H 0.18732 1.03285 0.14459 0.0
C82 C 0.19951 0.05335 0.2059 0.0
O83 O 0.2368 0.04384 0.22329 0.0
H84 H 0.19721 0.08093 0.16183 0.0
C85 C 0.33129 0.10903 0.17959 0.0
C86 C 0.32972 0.07577 0.11308 0.0
C87 C 0.30416 0.11794 0.26488 0.0
C88 C 0.27014 0.09909 0.25864 0.0
C89 C 0.26638 0.06619 0.19524 0.0
C90 C 0.29638 0.05407 0.12227 0.0
H91 H 0.48923 0.35453 0.19807 0.0
H92 H 0.50314 0.2396 0.292 0.0
H93 H 0.57521 0.28977 0.03764 0.0
H94 H 0.58846 0.18377 0.14906 0.0
C95 C 0.56265 0.19514 0.18853 0.0
O96 O 0.56711 0.23376 0.20045 0.0
H97 H 0.54051 0.18928 0.12318 0.0
C98 C 0.50183 0.32765 0.18344 0.0
C99 C 0.52881 0.32472 0.09457 0.0
C100 C 0.49517 0.29814 0.26279 0.0
C101 C 0.50995 0.2631 0.23653 0.0
C102 C 0.54184 0.26065 0.16864 0.0
C103 C 0.55082 0.29129 0.09279 0.0
C104 C 0.1281 0.11278 1.00776 0.0
C105 C 0.09506 0.1284 0.18606 0.0
C106 C 0.10002 0.10491 0.08803 0.0
C107 C 0.11781 0.1599 0.20072 0.0
C108 C 0.15211 0.1434 1.02552 0.0
C109 C 0.1466 0.16705 0.12172 0.0
N110 N 0.13123 0.09114 0.91038 0.0
C111 C 0.15851 0.09776 0.82973 0.0
C112 C 0.18059 0.1498 0.94464 0.0
C113 C 0.18375 0.12694 0.8463 0.0
Gd114 Gd 1.00654 0.06075 0.69199 0.0
Gd115 Gd 0.08969 0.04071 0.89688 0.0
N116 N 0.07817 0.07415 0.0719 0.0
C117 C 0.06802 0.11903 0.26848 0.0
C118 C 0.05529 0.06264 0.16007 0.0
C119 C 0.04869 0.08558 0.25676 0.0
H120 H 0.04224 1.03566 0.15819 0.0
H121 H 1.02897 0.0773 0.32302 0.0
H122 H 0.05079 1.02465 0.45614 0.0
H123 H 0.16116 0.07997 0.75393 0.0
H124 H 0.03695 0.98225 0.2936 0.0
H125 H 0.06313 0.1365 0.34429 0.0
H126 H 0.1141 0.17828 0.27502 0.0
H127 H 0.92929 0.06084 0.86068 0.0
H128 H 0.19984 0.17278 0.95614 0.0
H129 H 0.20546 0.13195 0.78287 0.0
H130 H 0.91134 0.94352 0.36116 0.0
H131 H 0.16438 0.19105 0.1356 0.0
H132 H 0.85057 0.98608 0.70816 0.0
H133 H 0.8685 1.02962 0.86611 0.0
N134 N 0.94778 1.03224 0.70806 0.0
C135 C 0.93814 1.009 0.61896 0.0
C136 C 0.92291 0.04029 0.79482 0.0
C137 C 0.87788 0.99885 0.70719 0.0
C138 C 0.88794 1.0233 0.79669 0.0
C139 C 0.90286 0.99174 0.6162 0.0
H140 H 0.86651 0.95476 0.5191 0.0
N141 N 0.9978 1.01865 0.53636 0.0
C142 C 0.96353 1.00263 0.52953 0.0
C143 C 0.98093 0.97156 0.35008 0.0
C144 C 0.95418 0.97878 0.43576 0.0
C145 C 1.02387 1.0118 0.45239 0.0
C146 C 1.01599 0.98792 0.35898 0.0
O147 O 0.07965 0.10084 0.82989 0.0
O148 O 1.01743 0.10332 0.83852 0.0
O149 O 1.01097 0.10696 0.57113 0.0
O150 O 0.95686 0.08968 0.63358 0.0
O151 O 1.03209 1.01993 0.96202 0.0
O152 O 0.99586 0.06557 0.88517 0.0
O153 O 1.01813 0.9976 0.70876 0.0
O154 O 0.07954 0.99329 0.76557 0.0
O155 O 0.10541 0.99335 1.00679 0.0
O156 O 0.14717 1.03049 0.94051 0.0
O157 O 0.06453 0.07062 0.60807 0.0
O158 O 0.10667 1.03376 0.70811 0.0
C159 C 0.04952 0.12036 0.85232 0.0
C160 C 1.00026 0.03844 0.95995 0.0
C161 C 0.9713 0.15355 0.64342 0.0
C162 C 0.99901 0.21456 0.67427 0.0
C163 C 0.9525 0.19187 0.8092 0.0
C164 C 0.94974 0.15867 0.74502 0.0
C165 C 0.97748 0.21969 0.77493 0.0
C166 C 0.99444 0.18225 0.60678 0.0
C167 C 0.97636 0.1166 0.58923 0.0
C168 C 0.91892 0.962 0.43223 0.0
C169 C 0.89347 0.96822 0.52261 0.0
H170 H 0.97496 0.95306 0.27754 0.0
C171 C 0.04926 0.97821 0.71935 0.0
C172 C 0.09702 0.05311 0.61537 0.0
C173 C 0.16268 0.9674 0.94406 0.0
C174 C 0.18574 0.90437 0.9703 0.0
C175 C 0.19608 0.93624 0.78685 0.0
C176 C 0.17726 0.96752 0.82985 0.0
C177 C 0.19981 0.9044 0.85617 0.0
C178 C 0.1678 0.93616 1.01424 0.0
C179 C 0.14077 0.99883 0.98961 0.0
H180 H 0.93618 0.19548 0.8878 0.0
H181 H 0.9319 0.13666 0.77743 0.0
H182 H 0.98031 0.24474 0.82717 0.0
H183 H 1.01051 0.1785 0.52737 0.0
H184 H 0.2067 0.93627 0.69841 0.0
H185 H 0.17357 0.99139 0.77315 0.0
H186 H 0.21258 0.87958 0.82003 0.0
H187 H 0.15559 0.93568 0.10095 0.0
C188 C 0.55627 0.92311 0.64171 0.0
C189 C 0.51885 0.88453 0.76917 0.0
C190 C 0.52636 0.91914 0.71591 0.0
C191 C 0.54381 0.8548 0.75365 0.0
C192 C 0.58015 0.89275 0.61982 0.0
C193 C 0.57455 0.85895 0.67937 0.0
N194 N 0.55959 0.95551 0.58169 0.0
C195 C 0.58245 0.95732 0.48679 0.0
C196 C 0.60775 0.89683 0.53468 0.0
C197 C 0.60831 0.929 0.46578 0.0
Gd198 Gd 0.56183 0.07962 0.87241 0.0
Gd199 Gd 0.52315 1.00575 0.65039 0.0
N200 N 0.50277 0.94833 0.72751 0.0
C201 C 0.48568 0.88048 0.83188 0.0
C202 C 0.46903 0.94372 0.78052 0.0
C203 C 0.46026 0.90995 0.83519 0.0
H204 H 0.4497 0.96666 0.78498 0.0
H205 H 0.43407 0.90679 0.88063 0.0
H206 H 0.65544 0.09349 0.84083 0.0
H207 H 0.58181 0.98154 0.43151 0.0
H208 H 0.6973 0.14365 0.78017 0.0
H209 H 0.47884 0.85436 0.87429 0.0
H210 H 0.53885 0.82811 0.79513 0.0
H211 H 0.47836 0.122 0.91511 0.0
H212 H 0.62708 0.87442 0.51621 0.0
H213 H 0.62804 0.93156 0.39498 0.0
H214 H 0.61845 0.25001 0.73773 0.0
H215 H 0.59281 0.83539 0.66456 0.0
H216 H 0.49005 0.23709 0.83331 0.0
H217 H 0.45134 0.18412 0.89806 0.0
N218 N 0.53196 0.13785 0.85294 0.0
C219 C 0.55414 0.16695 0.82139 0.0
C220 C 0.49568 0.14403 0.8831 0.0
C221 C 0.5021 0.20944 0.83854 0.0
C222 C 0.48016 0.17963 0.87486 0.0
C223 C 0.53959 0.20346 0.81251 0.0
H224 H 0.55226 0.26125 0.77618 0.0
N225 N 0.60583 0.12565 0.8191 0.0
C226 C 0.59184 0.16058 0.80225 0.0
C227 C 0.65355 0.18403 0.76066 0.0
C228 C 0.61545 0.19065 0.77256 0.0
C229 C 0.64348 0.11991 0.816 0.0
C230 C 0.66766 0.14867 0.78435 0.0
O231 O 0.52173 0.99297 0.8442 0.0
O232 O 0.57655 1.01739 0.90008 0.0
O233 O 0.59481 0.10675 1.0062 0.0
O234 O 0.54653 0.07451 0.05498 0.0
O235 O 0.47613 1.03415 0.75568 0.0
O236 O 0.50306 0.06095 0.91895 0.0
O237 O 0.53442 0.10063 0.704 0.0
O238 O 0.55201 0.05705 0.57081 0.0
O239 O 0.49114 1.03607 0.52482 0.0
O240 O 0.48971 0.97605 0.51984 0.0
O241 O 0.61027 0.05063 0.78171 0.0
O242 O 0.58664 1.01368 0.63239 0.0
C243 C 0.55118 0.99104 0.91051 0.0
C244 C 0.47343 0.04912 0.86131 0.0
C245 C 0.60073 0.06573 0.16109 0.0
C246 C 0.646 1.01554 0.1739 0.0
C247 C 0.61689 0.04059 0.34876 0.0
C248 C 0.59621 0.06519 0.28159 0.0
C249 C 0.64132 1.01553 0.29589 0.0
C250 C 0.62601 0.04126 0.10725 0.0
C251 C 0.57744 0.08976 0.08979 0.0
C252 C 0.60069 0.22667 0.76014 0.0
C253 C 0.56297 0.23309 0.78131 0.0
H254 H 0.67248 0.20637 0.73765 0.0
C255 C 0.54599 0.09235 0.59801 0.0
C256 C 0.61484 1.02934 0.68888 0.0
C257 C 0.43333 1.00904 0.48183 0.0
C258 C 0.37659 0.04651 0.49745 0.0
C259 C 0.37326 0.98065 0.44513 0.0
C260 C 0.41191 0.97781 0.45157 0.0
C261 C 0.3557 1.01477 0.4662 0.0
C262 C 0.41532 0.04306 0.50684 0.0
C263 C 0.47437 1.00684 0.4837 0.0
H264 H 0.61336 0.04061 0.44184 0.0
H265 H 0.57651 0.08345 0.32299 0.0
H266 H 0.65714 0.99683 0.3508 0.0
H267 H 0.6302 0.04224 1.01377 0.0
H268 H 0.35688 0.95655 0.42043 0.0
H269 H 0.42506 0.95137 0.43173 0.0
H270 H 0.32592 1.0165 0.45363 0.0
H271 H 0.43145 0.06729 0.53167 0.0
C272 C 0.46943 0.48084 1.02197 0.0
C273 C 0.50931 0.46626 0.18667 0.0
C274 C 0.50039 0.48928 0.09097 0.0
C275 C 0.48768 0.43467 0.21041 0.0
C276 C 0.44636 0.45036 0.05016 0.0
C277 C 0.45591 0.42708 0.14376 0.0
N278 N 0.46237 0.50192 0.92559 0.0
C279 C 0.43188 0.4952 0.85724 0.0
C280 C 0.41471 0.44371 0.98192 0.0
C281 C 0.40744 0.46625 0.88517 0.0
Gd282 Gd 0.57789 0.52675 0.66333 0.0
Gd283 Gd 0.50349 0.55164 0.89427 0.0
N284 N 0.52126 0.52012 0.06638 0.0
C285 C 0.5394 0.47598 0.25748 0.0
C286 C 0.5466 0.53257 0.14645 0.0
C287 C 0.55746 0.50981 0.23936 0.0
H288 H 0.55869 0.55997 0.14001 0.0
H289 H 0.57951 0.51851 0.29761 0.0
H290 H 0.53474 0.56929 0.43903 0.0
H291 H 0.42606 0.5127 0.78274 0.0
H292 H 0.5494 0.61553 0.2867 0.0
H293 H 0.5477 0.45838 0.32943 0.0
H294 H 0.495 0.41647 0.28208 0.0
H295 H 0.65921 0.50297 0.78236 0.0
H296 H 0.39609 0.42084 1.00194 0.0
H297 H 0.38318 0.46113 0.83156 0.0
H298 H 0.67749 0.64659 0.35669 0.0
H299 H 0.43896 0.40304 0.16482 0.0
H300 H 0.74368 0.57341 0.63764 0.0
H301 H 0.72497 0.52168 0.76948 0.0
N302 N 0.64104 0.54252 0.65649 0.0
C303 C 0.651 0.56932 0.57909 0.0
C304 C 0.66708 0.52545 0.72461 0.0
C305 C 0.71479 0.56504 0.64277 0.0
C306 C 0.70437 0.53605 0.71753 0.0
C307 C 0.68794 0.58216 0.57259 0.0
H308 H 0.72489 0.62228 0.49161 0.0
N309 N 0.58913 0.56982 0.51231 0.0
C310 C 0.62438 0.58301 0.50339 0.0
C311 C 0.60647 0.62179 0.3404 0.0
C312 C 0.63384 0.61002 0.41908 0.0
C313 C 0.56249 0.58052 0.43409 0.0
C314 C 0.57073 0.60671 0.34735 0.0
O315 O 0.51065 0.4911 0.82599 0.0
O316 O 0.57261 0.48646 0.81785 0.0
O317 O 0.55503 0.4841 0.5518 0.0
O318 O 0.61491 0.48793 0.57471 0.0
O319 O 0.56383 0.57019 0.93868 0.0
O320 O 0.59666 0.52352 0.85128 0.0
O321 O 0.56882 0.59031 0.67932 0.0
O322 O 0.51013 0.59783 0.75719 0.0
O323 O 0.49086 0.60335 0.98917 0.0
O324 O 0.45028 0.55986 0.97781 0.0
O325 O 0.51806 0.524 0.59301 0.0
O326 O 0.47765 0.55597 0.71463 0.0
C327 C 0.54071 0.47096 0.84468 0.0
C328 C 0.59475 0.55033 0.92891 0.0
C329 C 0.58603 0.42868 0.5917 0.0
C330 C 0.54838 0.37301 0.62337 0.0
C331 C 0.60379 0.3839 0.74051 0.0
C332 C 0.61032 0.41724 0.68097 0.0
C333 C 0.57272 0.36215 0.71344 0.0
C334 C 0.55595 0.40594 0.5617 0.0
C335 C 0.58693 0.46683 0.54467 0.0
C336 C 0.67 0.62478 0.41764 0.0
C337 C 0.69694 0.61105 0.49483 0.0
H338 H 0.61257 0.64251 0.2744 0.0
C339 C 0.53897 0.61105 0.69834 0.0
C340 C 0.48549 0.53974 0.61414 0.0
C341 C 0.42701 0.62075 0.97331 0.0
C342 C 0.39861 0.68167 0.99959 0.0
C343 C 0.37001 0.63693 0.86964 0.0
C344 C 0.39831 0.6113 0.89466 0.0
C345 C 0.37016 0.67225 0.92167 0.0
C346 C 0.42674 0.65588 1.02546 0.0
C347 C 0.45635 0.59401 1.00642 0.0
H348 H 0.62235 0.37536 0.80993 0.0
H349 H 0.63347 0.43458 0.70778 0.0
H350 H 0.56797 0.33672 0.76212 0.0
H351 H 0.53831 0.41432 0.48971 0.0
H352 H 0.34797 0.62941 0.80964 0.0
H353 H 0.39754 0.58416 0.85306 0.0
H354 H 0.34842 0.69206 0.90105 0.0
H355 H 0.44862 0.66335 0.08653 0.0
C356 C 0.08743 0.44271 0.87533 0.0
C357 C 0.12602 0.45567 0.04451 0.0
C358 C 0.10006 0.46735 0.9598 0.0
C359 C 0.13979 0.41904 0.04105 0.0
C360 C 0.10107 0.40583 0.87181 0.0
C361 C 0.12765 0.3943 0.95411 0.0
N362 N 0.06132 0.4546 0.79807 0.0
C363 C 0.04686 0.43051 0.71715 0.0
C364 C 0.08717 0.38144 0.7868 0.0
C365 C 0.05986 0.39382 0.70944 0.0
Gd366 Gd 0.06125 0.59922 0.61525 0.0
Gd367 Gd 0.04052 0.51654 0.82167 0.0
N368 N 0.08727 0.50296 0.95822 0.0
C369 C 0.13785 0.48137 0.12894 0.0
C370 C 0.09859 0.52809 0.04047 0.0
C371 C 0.12406 0.51776 0.12682 0.0
H372 H 0.08812 0.55622 0.03882 0.0
H373 H 0.13305 0.53788 0.19152 0.0
H374 H 0.07556 0.55528 0.35341 0.0
H375 H 1.02454 0.43904 0.66011 0.0
H376 H 0.04028 0.54472 0.17349 0.0
H377 H 0.15773 0.47347 0.19555 0.0
H378 H 0.15989 0.4096 0.10497 0.0
H379 H 1.02021 0.67154 0.75015 0.0
H380 H 0.09688 0.35288 0.7814 0.0
H381 H 0.04842 0.37495 0.64486 0.0
H382 H 0.94158 0.63123 0.19501 0.0
H383 H 0.13841 0.36608 0.9528 0.0
H384 H 0.93263 0.71088 0.52926 0.0
H385 H 0.96889 0.7157 0.71236 0.0
N386 N 1.01174 0.641 0.59306 0.0
C387 C 0.99294 0.63842 0.49034 0.0
C388 C 1.00385 0.66865 0.67168 0.0
C389 C 0.95485 0.6912 0.54612 0.0
C390 C 0.97516 0.69396 0.64973 0.0
C391 C 0.96366 0.66334 0.46488 0.0
H392 H 0.9219 0.67876 0.33742 0.0
N393 N 0.03347 0.58915 0.43204 0.0
C394 C 1.0035 0.61125 0.40946 0.0
C395 C 0.99733 0.58346 0.21797 0.0
C396 C 0.98475 0.60878 0.30177 0.0
C397 C 0.04874 0.56835 0.34408 0.0
C398 C 1.02981 0.5636 0.23871 0.0
O399 O 0.10325 0.5271 0.79226 0.0
O400 O 0.10616 0.5897 0.75153 0.0
O401 O 0.11102 0.61311 0.51491 0.0
O402 O 0.07275 0.6562 0.56554 0.0
O403 O 0.03313 0.57478 0.90761 0.0
O404 O 0.06531 0.61958 0.80259 0.0
O405 O 1.00071 0.59044 0.67804 0.0
O406 O 0.99495 0.52768 0.68614 0.0
O407 O 1.00595 0.52674 0.97167 0.0
O408 O 1.00467 0.47243 0.88807 0.0
O409 O 0.07809 0.53972 0.5511 0.0
O410 O 1.03161 0.50493 0.62924 0.0
C411 C 0.12204 0.55882 0.78867 0.0
C412 C 0.04759 0.60871 0.89731 0.0
C413 C 0.13573 0.67232 0.56437 0.0
C414 C 0.19856 0.69521 0.53577 0.0
C415 C 0.16523 0.71105 0.71261 0.0
C416 C 0.13455 0.69046 0.67348 0.0
C417 C 0.1975 0.71299 0.64474 0.0
C418 C 0.1674 0.67557 0.49535 0.0
C419 C 0.105 0.64885 0.52214 0.0
C420 C 0.95511 0.63273 0.27824 0.0
C421 C 0.94448 0.65998 0.35889 0.0
H422 H 0.98317 0.58036 0.13496 0.0
C423 C 0.97999 0.56039 0.66406 0.0
C424 C 0.05704 0.50935 0.54865 0.0
C425 C 0.94778 0.49764 0.9517 0.0
C426 C 0.8917 0.5358 0.93617 0.0
C427 C 0.88743 0.46841 0.96629 0.0
C428 C 0.92604 0.4657 0.96767 0.0
C429 C 0.87035 0.50313 0.95338 0.0
C430 C 0.9305 0.53218 0.93033 0.0
C431 C 0.98841 0.49509 0.96067 0.0
H432 H 0.16438 0.72456 0.79718 0.0
H433 H 0.11029 0.68829 0.72907 0.0
H434 H 0.22182 0.72724 0.67837 0.0
H435 H 0.16869 0.66075 0.41264 0.0
H436 H 0.87065 0.44376 0.98059 0.0
H437 H 0.93893 0.43884 0.98297 0.0
H438 H 0.84051 0.50421 0.96396 0.0
H439 H 0.94743 0.55661 0.91448 0.0
C440 C 0.16008 0.08656 0.36281 0.0
C441 C 0.17621 0.05333 0.31934 0.0
C442 C 0.13414 0.08648 0.45633 0.0
C443 C 0.12374 0.05319 0.51313 0.0
H444 H 0.1671 0.1129 0.32255 0.0
H445 H 0.12245 0.11277 0.48507 0.0
S446 S 0.15854 0.95863 0.43686 0.0
N447 N 0.17973 0.98626 0.34266 0.0
N448 N 0.13278 0.98613 0.51968 0.0
C449 C 0.14063 1.01999 0.47295 0.0
C450 C 0.16634 1.02002 0.37637 0.0
C451 C 0.58275 0.17112 0.39431 0.0
C452 C 0.55556 0.17372 0.30506 0.0
C453 C 0.57894 0.14612 0.49069 0.0
C454 C 0.5478 0.12223 0.50304 0.0
H455 H 0.60797 0.18746 0.38718 0.0
H456 H 0.60137 0.14443 0.55341 0.0
S457 S 0.46899 0.11783 0.29452 0.0
N458 N 0.4964 0.1498 0.23782 0.0
N459 N 0.48909 0.10408 0.41652 0.0
C460 C 0.52015 0.12545 0.41618 0.0
C461 C 0.52407 0.15068 0.31843 0.0
C462 C 0.42716 0.51125 0.34396 0.0
C463 C 0.3964 0.53582 0.34644 0.0
C464 C 0.45621 0.51316 0.42784 0.0
C465 C 0.45602 0.53973 0.51923 0.0
H466 H 0.42793 0.48919 0.27959 0.0
H467 H 0.47823 0.49264 0.42363 0.0
S468 S 0.38431 0.61317 0.55967 0.0
N469 N 0.3694 0.58893 0.44638 0.0
N470 N 0.42373 0.59344 0.59936 0.0
C471 C 0.42643 0.56555 0.51927 0.0
C472 C 0.39688 0.56343 0.43443 0.0
C473 C 0.08473 0.43079 0.32816 0.0
C474 C 0.05196 0.42561 0.26117 0.0
C475 C 0.08713 0.45867 0.41766 0.0
C476 C 0.05685 0.48247 0.44513 0.0
H477 H 0.1086 0.41316 0.31197 0.0
H478 H 0.11257 0.46092 0.46775 0.0
S479 S 0.96636 0.48294 0.28916 0.0
N480 N 0.98996 0.4493 0.22446 0.0
N481 N 0.99384 0.49934 0.39274 0.0
C482 C 1.02446 0.47771 0.37755 0.0
C483 C 1.02229 0.4502 0.28585 0.0
C484 C 0.92926 0.06706 0.19258 0.0
C485 C 0.90483 1.03628 0.20131 0.0
C486 C 0.96117 0.06643 0.12059 0.0
C487 C 0.97124 1.0347 0.05489 0.0
H488 H 0.9225 0.09292 0.23673 0.0
H489 H 0.97734 0.09179 0.11245 0.0
S490 S 0.9176 0.94638 0.04444 0.0
N491 N 0.8935 0.9729 0.13512 0.0
N492 N 0.95408 0.97132 1.00431 0.0
C493 C 0.9481 1.00314 0.06586 0.0
C494 C 0.91492 1.00404 0.13749 0.0
C495 C 0.58737 0.90933 0.10276 0.0
C496 C 0.55601 0.89857 0.16971 0.0
C497 C 0.58623 0.93952 1.0218 0.0
C498 C 0.55339 0.96015 1.00159 0.0
H499 H 0.61346 0.89489 0.11575 0.0
H500 H 0.61123 0.94652 0.97392 0.0
S501 S 0.46312 0.94346 0.15096 0.0
N502 N 0.49092 0.91151 0.20718 0.0
N503 N 0.48847 0.96681 0.0556 0.0
C504 C 0.52163 0.94895 0.06538 0.0
C505 C 0.52295 0.91865 0.1485 0.0
C506 C 0.66825 0.51616 0.14707 0.0
C507 C 0.68936 0.54808 0.17645 0.0
C508 C 0.63734 0.51774 0.07119 0.0
C509 C 0.62497 0.55143 1.02115 0.0
H510 H 0.67678 0.48903 0.17877 0.0
H511 H 0.62334 0.49193 0.04955 0.0
S512 S 0.66978 0.64353 0.0652 0.0
N513 N 0.6953 0.61484 0.14466 0.0
N514 N 0.63636 0.61788 1.00701 0.0
C515 C 0.64481 0.58389 0.05185 0.0
C516 C 0.6771 0.58219 0.12752 0.0
C517 C 0.07717 0.66497 0.16996 0.0
C518 C 0.0466 0.68865 0.19419 0.0
C519 C 0.07725 0.6396 0.07467 0.0
C520 C 0.04629 0.63548 1.00005 0.0
H521 H 0.10132 0.66565 0.22648 0.0
H522 H 0.10178 0.62271 0.06018 0.0
S523 S 0.95932 0.69088 1.02073 0.0
N524 N 0.98479 0.70661 0.13055 0.0
N525 N 0.98435 0.6582 0.95598 0.0
C526 C 1.01559 0.65895 1.02247 0.0
C527 C 1.01583 0.68546 0.11811 0.0
C528 C 0.07626 0.2467 0.4917 0.0
C529 C 0.05917 0.27725 0.43803 0.0
C530 C 0.05977 0.22992 0.5883 0.0
C531 C 1.02531 0.24268 0.63097 0.0
H532 H 0.10005 0.23333 0.45141 0.0
H533 H 0.0707 0.20334 0.61663 0.0
S534 S 0.9758 0.32837 0.54168 0.0
N535 N 1.01128 0.32514 0.4508 0.0
N536 N 0.97981 0.29263 0.63161 0.0
C537 C 1.01168 0.27691 0.59109 0.0
C538 C 1.02865 0.29434 0.49335 0.0
C539 C 0.35395 0.14243 0.39159 0.0
C540 C 0.31556 0.13559 0.38005 0.0
C541 C 0.37588 0.11433 0.44242 0.0
C542 C 0.35873 0.084 0.49991 0.0
H543 H 0.36746 0.16249 0.33508 0.0
H544 H 0.40521 0.11439 0.42498 0.0
S545 S 0.26204 0.08755 0.61095 0.0
N546 N 0.26458 0.12173 0.51443 0.0
N547 N 0.30342 0.06747 0.612 0.0
C548 C 0.32145 0.08908 0.53302 0.0
C549 C 0.30049 0.11809 0.47976 0.0
C550 C 0.51329 0.28958 0.47091 0.0
C551 C 0.4891 0.30683 0.38941 0.0
C552 C 0.52889 0.31 0.56183 0.0
C553 C 0.51931 0.34746 0.57821 0.0
H554 H 0.52593 0.26273 0.45457 0.0
H555 H 0.55256 0.29794 0.60609 0.0
S556 S 0.4378 0.39461 0.44527 0.0
N557 N 0.44263 0.35569 0.36905 0.0
N558 N 0.47129 0.3942 0.54409 0.0
C559 C 0.48742 0.36081 0.52007 0.0
C560 C 0.47205 0.34016 0.4252 0.0
C561 C 0.25688 0.68266 0.27378 0.0
C562 C 0.27494 0.64925 0.30382 0.0
C563 C 0.23616 0.70235 0.35701 0.0
C564 C 0.23345 0.6893 0.47235 0.0
H565 H 0.25569 0.69148 0.18338 0.0
H566 H 0.21874 0.7252 0.32805 0.0
S567 S 0.27949 0.60653 0.59856 0.0
N568 N 0.29142 0.60616 0.45935 0.0
N569 N 0.25433 0.64457 0.61645 0.0
C570 C 0.25542 0.65902 0.5067 0.0
C571 C 0.27565 0.63842 0.42183 0.0
C572 C 0.1335 0.82429 0.08096 0.0
C573 C 0.1413 0.82711 0.20128 0.0
C574 C 0.15361 0.84511 0.99969 0.0
C575 C 0.18151 0.86973 0.03686 0.0
H576 H 0.10911 0.80954 0.05016 0.0
H577 H 0.14371 0.84592 0.91027 0.0
S578 S 0.22034 0.87795 0.33505 0.0
N579 N 0.18532 0.84842 0.34855 0.0
N580 N 0.22183 0.88936 0.19535 0.0
C581 C 0.19343 0.86825 0.15332 0.0
C582 C 0.17345 0.84651 0.23599 0.0
C583 C 0.71369 0.93749 0.16065 0.0
C584 C 0.7454 0.96022 0.14797 0.0
C585 C 0.6785 0.95436 0.1557 0.0
C586 C 0.67508 0.99183 0.12062 0.0
H587 H 0.71602 0.91132 0.20728 0.0
H588 H 0.65525 0.9402 0.19578 0.0
S589 S 0.74894 0.04827 0.98109 0.0
N590 N 0.77055 1.01099 0.03179 0.0
N591 N 0.70455 0.04245 1.0132 0.0
C592 C 0.70569 1.00839 0.06496 0.0
C593 C 0.74127 0.99135 0.07464 0.0
C594 C 0.44856 0.76636 0.07996 0.0
C595 C 0.44336 0.76561 0.20195 0.0
C596 C 0.42768 0.7432 1.0069 0.0
C597 C 0.4014 0.71856 0.05393 0.0
H598 H 0.47204 0.7808 0.04178 0.0
H599 H 0.43604 0.74057 0.9164 0.0
S600 S 0.36836 0.71558 0.3595 0.0
N601 N 0.40249 0.74649 0.36066 0.0
N602 N 0.3646 0.70131 0.22271 0.0
C603 C 0.39132 0.72249 0.17137 0.0
C604 C 0.41209 0.74654 0.24585 0.0
C605 C 0.8728 0.62755 0.07993 0.0
C606 C 0.83483 0.62151 0.09923 0.0
C607 C 0.893 0.60194 1.01203 0.0
C608 C 0.87426 0.57345 0.94989 0.0
H609 H 0.88732 0.64719 0.1349 0.0
H610 H 0.9229 0.60213 1.02018 0.0
S611 S 0.77388 0.57518 0.8815 0.0
N612 N 0.77872 0.60474 0.99078 0.0
N613 N 0.81592 0.55934 0.85208 0.0
C614 C 0.83602 0.57858 0.93251 0.0
C615 C 0.81601 0.60308 1.00754 0.0
C616 C 1.02799 0.20621 0.04862 0.0
C617 C 0.05687 0.2323 1.02632 0.0
C618 C 1.02534 0.17126 0.99014 0.0
C619 C 0.05172 0.15955 0.90647 0.0
H620 H 1.00753 0.21244 0.11517 0.0
H621 H 1.0029 0.15264 1.01405 0.0
S622 S 0.13143 0.21765 0.80691 0.0
N623 N 0.11127 0.24396 0.9071 0.0
N624 N 0.10681 0.17875 0.79948 0.0
C625 C 0.08009 0.18574 0.8802 0.0
C626 C 0.08246 0.22173 0.93879 0.0
C627 C 0.40049 0.07239 0.09778 0.0
C628 C 0.36535 0.06366 0.04882 0.0
C629 C 0.43425 0.06707 0.03722 0.0
C630 C 0.4358 0.05187 0.92364 0.0
H631 H 0.40217 0.08383 0.18506 0.0
H632 H 0.45965 0.07533 0.08063 0.0
S633 S 0.35352 1.01327 0.7677 0.0
N634 N 0.33538 1.03221 0.88618 0.0
N635 N 0.39873 1.02113 0.77409 0.0
C636 C 0.4013 0.0396 0.87717 0.0
C637 C 0.36643 0.04549 0.93912 0.0
C638 C 0.56516 0.3838 0.03434 0.0
C639 C 0.53503 0.35901 1.01713 0.0
C640 C 0.56717 0.41913 0.97704 0.0
C641 C 0.53897 0.43202 0.90036 0.0
H642 H 0.58683 0.37643 0.09575 0.0
H643 H 0.59072 0.43692 0.99546 0.0
S644 S 0.4554 0.37676 0.81868 0.0
N645 N 0.47716 0.34976 0.91315 0.0
N646 N 0.48104 0.41483 0.80587 0.0
C647 C 0.50926 0.40697 0.88055 0.0
C648 C 0.50727 0.37112 0.93861 0.0
C649 C 0.20976 0.60206 0.92622 0.0
C650 C 0.23064 0.5717 0.97109 0.0
C651 C 0.1759 0.59732 0.86589 0.0
C652 C 0.16082 0.56178 0.84234 0.0
H653 H 0.21903 0.63042 0.94103 0.0
H654 H 0.16096 0.62221 0.84015 0.0
S655 S 0.20931 0.47239 0.90636 0.0
N656 N 0.23623 0.50419 0.96785 0.0
N657 N 0.17427 0.49529 0.84655 0.0
C658 C 0.18327 0.53094 0.87462 0.0
C659 C 0.21764 0.53584 0.9397 0.0
C660 C 0.09186 0.88843 0.58702 0.0
C661 C 0.06183 0.86901 0.53378 0.0
C662 C 0.08718 0.92213 0.65 0.0
C663 C 0.05209 0.93903 0.66531 0.0
H664 H 0.11996 0.87807 0.57716 0.0
H665 H 0.11184 0.93556 0.68429 0.0
S666 S 0.96274 0.89396 0.58028 0.0
N667 N 0.99451 0.86611 0.52348 0.0
N668 N 0.98562 0.92801 0.64614 0.0
C669 C 1.02129 0.91786 0.62465 0.0
C670 C 1.02613 0.88343 0.55872 0.0
C671 C 0.70709 0.98252 0.59578 0.0
C672 C 0.72699 1.01092 0.53606 0.0
C673 C 0.67164 0.98872 0.64692 0.0
C674 C 0.6541 1.02383 0.64271 0.0
H675 H 0.71804 0.95438 0.59629 0.0
H676 H 0.65736 0.96545 0.68725 0.0
S677 S 0.6925 0.10756 0.49471 0.0
N678 N 0.72497 0.07557 0.47494 0.0
N679 N 0.65953 0.08742 0.57276 0.0
C680 C 0.67409 0.05282 0.58739 0.0
C681 C 0.71002 0.04638 0.53398 0.0
C682 C 0.56255 0.69957 0.51227 0.0
C683 C 0.52922 0.72045 0.51179 0.0
C684 C 0.56623 0.66584 0.57774 0.0
C685 C 0.5365 0.65009 0.64287 0.0
H686 H 0.58553 0.7084 0.45787 0.0
H687 H 0.59254 0.65148 0.57477 0.0
S688 S 0.44546 0.69709 0.68927 0.0
N689 N 0.46798 0.72548 0.60078 0.0
N690 N 0.47399 0.66198 0.71402 0.0
C691 C 0.50402 0.67217 0.6495 0.0
C692 C 0.50066 0.70698 0.58655 0.0
C693 C 0.88821 0.60386 0.55127 0.0
C694 C 0.86903 0.57422 0.49618 0.0
C695 C 0.92209 0.59847 0.61239 0.0
C696 C 0.94016 0.56357 0.61713 0.0
H697 H 0.87747 0.63198 0.5439 0.0
H698 H 0.93479 0.62232 0.65401 0.0
S699 S 0.89777 0.47492 0.51146 0.0
N700 N 0.8679 0.50717 0.46878 0.0
N701 N 0.93164 0.49724 0.57983 0.0
C702 C 0.91961 0.53302 0.57165 0.0
C703 C 0.88445 0.53836 0.51147 0.0
loop_
_geom_bond_atom_site_label_1
_geom_bond_atom_site_label_2
_geom_bond_distance
_geom_bond_site_symmetry_2
_ccdc_geom_bond_type
H0 C7 0.929 . S
H1 C10 0.930 . S
H2 C12 0.929 . S
H3 C4 0.969 . S
C4 H3 0.969 . S
C4 O5 1.550 . S
C4 H6 0.973 . S
O5 C4 1.550 . S
O5 C11 1.412 . S
H6 C4 0.973 . S
C7 H0 0.929 . S
C7 C8 1.400 . S
C7 C9 1.364 . S
C8 C7 1.400 . S
C8 C12 1.377 . S
C9 C7 1.364 . S
C9 C10 1.374 . S
C10 H1 0.930 . S
C10 C9 1.374 . S
C10 C11 1.383 . S
C11 O5 1.412 . S
C11 C10 1.383 . S
C11 C12 1.394 . S
C12 H2 0.929 . S
C12 C8 1.377 . S
C12 C11 1.394 . S
H13 C20 0.929 . S
H14 C23 0.930 . S
H15 C25 0.929 . S
H16 C17 0.969 1_455 S
C17 H16 0.969 1_655 S
C17 O18 1.550 . S
C17 H19 0.973 . S
O18 C17 1.550 . S
O18 C24 1.412 . S
H19 C17 0.973 . S
C20 H13 0.929 . S
C20 C21 1.400 . S
C20 C22 1.364 . S
C21 C20 1.400 . S
C21 C25 1.377 . S
C22 C20 1.364 . S
C22 C23 1.374 . S
C23 H14 0.930 . S
C23 C22 1.374 . S
C23 C24 1.383 . S
C24 O18 1.412 . S
C24 C23 1.383 . S
C24 C25 1.394 . S
C25 H15 0.929 . S
C25 C21 1.377 . S
C25 C24 1.394 . S
H26 C33 0.929 . S
H27 C36 0.930 . S
H28 C38 0.929 . S
H29 C30 0.969 1_545 S
C30 H29 0.969 1_565 S
C30 O31 1.550 . S
C30 H32 0.973 . S
O31 C30 1.550 . S
O31 C37 1.412 . S
H32 C30 0.973 . S
C33 H26 0.929 . S
C33 C34 1.400 . S
C33 C35 1.364 . S
C34 C33 1.400 . S
C34 C38 1.377 . S
C35 C33 1.364 . S
C35 C36 1.374 . S
C36 H27 0.930 . S
C36 C35 1.374 . S
C36 C37 1.383 . S
C37 O31 1.412 . S
C37 C36 1.383 . S
C37 C38 1.394 . S
C38 H28 0.929 . S
C38 C34 1.377 . S
C38 C37 1.394 . S
H39 C46 0.929 . S
H40 C49 0.930 . S
H41 C51 0.929 . S
H42 C43 0.969 . S
C43 H42 0.969 . S
C43 O44 1.550 . S
C43 H45 0.973 . S
O44 C43 1.550 . S
O44 C50 1.412 . S
H45 C43 0.973 . S
C46 H39 0.929 . S
C46 C47 1.400 . S
C46 C48 1.364 . S
C47 C46 1.400 . S
C47 C51 1.377 . S
C48 C46 1.364 . S
C48 C49 1.374 . S
C49 H40 0.930 . S
C49 C48 1.374 . S
C49 C50 1.383 . S
C50 O44 1.412 . S
C50 C49 1.383 . S
C50 C51 1.394 . S
C51 H41 0.929 . S
C51 C47 1.377 . S
C51 C50 1.394 . S
H52 C59 0.929 . S
H53 C62 0.930 . S
H54 C64 0.929 . S
H55 C56 0.969 . S
C56 H55 0.969 . S
C56 O57 1.550 . S
C56 H58 0.973 . S
O57 C56 1.550 . S
O57 C63 1.412 . S
H58 C56 0.973 . S
C59 H52 0.929 . S
C59 C60 1.400 1_554 S
C59 C61 1.364 . S
C60 C59 1.400 1_556 S
C60 C64 1.377 . S
C61 C59 1.364 . S
C61 C62 1.374 . S
C62 H53 0.930 . S
C62 C61 1.374 . S
C62 C63 1.383 . S
C63 O57 1.412 . S
C63 C62 1.383 . S
C63 C64 1.394 1_554 S
C64 H54 0.929 . S
C64 C60 1.377 . S
C64 C63 1.394 1_556 S
H65 C72 0.929 . S
H66 C75 0.930 . S
H67 C77 0.929 . S
H68 C69 0.969 . S
C69 H68 0.969 . S
C69 O70 1.550 . S
C69 H71 0.973 . S
O70 C69 1.550 . S
O70 C76 1.412 . S
H71 C69 0.973 . S
C72 H65 0.929 . S
C72 C73 1.400 1_554 S
C72 C74 1.364 . S
C73 C72 1.400 1_556 S
C73 C77 1.377 . S
C74 C72 1.364 . S
C74 C75 1.374 . S
C75 H66 0.930 . S
C75 C74 1.374 . S
C75 C76 1.383 . S
C76 O70 1.412 . S
C76 C75 1.383 . S
C76 C77 1.394 1_554 S
C77 H67 0.929 . S
C77 C73 1.377 . S
C77 C76 1.394 1_556 S
H78 C85 0.929 . S
H79 C88 0.930 . S
H80 C90 0.929 . S
H81 C82 0.969 . S
C82 H81 0.969 . S
C82 O83 1.550 . S
C82 H84 0.973 . S
O83 C82 1.550 . S
O83 C89 1.412 . S
H84 C82 0.973 . S
C85 H78 0.929 . S
C85 C86 1.400 1_554 S
C85 C87 1.364 . S
C86 C85 1.400 1_556 S
C86 C90 1.377 . S
C87 C85 1.364 . S
C87 C88 1.374 . S
C88 H79 0.930 . S
C88 C87 1.374 . S
C88 C89 1.383 . S
C89 O83 1.412 . S
C89 C88 1.383 . S
C89 C90 1.394 1_554 S
C90 H80 0.929 . S
C90 C86 1.377 . S
C90 C89 1.394 1_556 S
H91 C98 0.929 . S
H92 C101 0.930 . S
H93 C103 0.929 . S
H94 C95 0.969 . S
C95 H94 0.969 . S
C95 O96 1.550 . S
C95 H97 0.973 . S
O96 C95 1.550 . S
O96 C102 1.412 . S
H97 C95 0.973 . S
C98 H91 0.929 . S
C98 C99 1.400 1_554 S
C98 C100 1.364 . S
C99 C98 1.400 1_556 S
C99 C103 1.377 . S
C100 C98 1.364 . S
C100 C101 1.374 . S
C101 H92 0.930 . S
C101 C100 1.374 . S
C101 C102 1.383 . S
C102 O96 1.412 . S
C102 C101 1.383 . S
C102 C103 1.394 1_554 S
C103 H93 0.929 . S
C103 C99 1.377 . S
C103 C102 1.394 1_556 S
C104 C106 1.422 . S
C104 C108 1.415 . S
C104 N110 1.369 1_554 S
C105 C106 1.421 . S
C105 C107 1.417 . S
C105 C117 1.422 . S
C106 C104 1.422 . S
C106 C105 1.421 . S
C106 N116 1.359 . S
C107 C105 1.417 . S
C107 C109 1.329 . S
C107 H126 0.930 . S
C108 C104 1.415 . S
C108 C109 1.437 . S
C108 C112 1.413 1_554 S
C109 C107 1.329 . S
C109 C108 1.437 . S
C109 H131 0.929 . S
N110 C104 1.369 1_556 S
N110 C111 1.338 . S
N110 Gd115 2.622 1_545 S
C111 N110 1.338 . S
C111 C113 1.378 . S
C111 H123 0.929 1_545 S
C112 C108 1.413 1_556 S
C112 C113 1.348 . S
C112 H128 0.931 . S
C113 C111 1.378 . S
C113 C112 1.348 . S
C113 H129 0.930 . S
Gd114 N134 2.622 . S
Gd114 N141 2.570 . S
Gd114 O148 2.353 1_655 S
Gd114 O149 2.468 . S
Gd114 O150 2.427 . S
Gd114 O152 2.388 . S
Gd114 O153 2.386 1_545 S
Gd114 O157 2.307 1_655 S
Gd114 C167 2.805 . S
Gd115 N110 2.622 1_565 S
Gd115 N116 2.570 1_566 S
Gd115 O147 2.386 1_565 S
Gd115 O151 2.307 1_465 S
Gd115 O154 2.353 . S
Gd115 O155 2.468 . S
Gd115 O156 2.427 . S
Gd115 O158 2.388 . S
Gd115 C179 2.805 . S
N116 C106 1.359 . S
N116 Gd115 2.570 1_544 S
N116 C118 1.343 . S
C117 C105 1.422 . S
C117 C119 1.321 . S
C117 H125 0.931 . S
C118 N116 1.343 . S
C118 C119 1.390 . S
C118 H120 0.952 . S
C119 C117 1.321 . S
C119 C118 1.390 . S
C119 H121 0.930 . S
H120 C118 0.952 . S
H121 C119 0.930 . S
H122 C145 0.931 1_455 S
H123 C111 0.929 1_565 S
H124 C146 0.930 1_455 S
H125 C117 0.931 . S
H126 C107 0.930 . S
H127 C136 0.929 . S
H128 C112 0.931 . S
H129 C113 0.930 . S
H130 C168 0.930 . S
H131 C109 0.929 . S
H132 C137 0.931 . S
H133 C138 0.930 . S
N134 Gd114 2.622 . S
N134 C135 1.369 1_545 S
N134 C136 1.338 . S
C135 N134 1.369 1_565 S
C135 C139 1.415 . S
C135 C142 1.422 . S
C136 H127 0.929 . S
C136 N134 1.338 . S
C136 C138 1.378 . S
C137 H132 0.931 . S
C137 C138 1.348 1_565 S
C137 C139 1.413 . S
C138 H133 0.930 . S
C138 C136 1.378 . S
C138 C137 1.348 1_545 S
C139 C135 1.415 . S
C139 C137 1.413 . S
C139 C169 1.437 . S
H140 C169 0.929 . S
N141 Gd114 2.570 . S
N141 C142 1.359 1_545 S
N141 C145 1.343 . S
C142 C135 1.422 . S
C142 N141 1.359 1_565 S
C142 C144 1.421 . S
C143 C144 1.422 . S
C143 C146 1.321 . S
C143 H170 0.931 . S
C144 C142 1.421 . S
C144 C143 1.422 . S
C144 C168 1.417 . S
C145 H122 0.931 1_655 S
C145 N141 1.343 . S
C145 C146 1.390 1_545 S
C146 H124 0.930 1_655 S
C146 C143 1.321 . S
C146 C145 1.390 1_565 S
O147 Gd115 2.386 1_545 S
O147 C159 1.265 . S
O148 Gd114 2.353 1_455 S
O148 C159 1.242 . S
O149 Gd114 2.468 . S
O149 C167 1.263 . S
O150 Gd114 2.427 . S
O150 C167 1.252 . S
O151 Gd115 2.307 1_645 S
O151 C160 1.261 . S
O152 Gd114 2.388 . S
O152 C160 1.252 . S
O153 Gd114 2.386 1_565 S
O153 C171 1.265 . S
O154 Gd115 2.353 . S
O154 C171 1.242 1_455 S
O155 Gd115 2.468 . S
O155 C179 1.263 . S
O156 Gd115 2.427 . S
O156 C179 1.252 . S
O157 Gd114 2.307 1_455 S
O157 C172 1.261 . S
O158 Gd115 2.388 . S
O158 C172 1.252 1_565 S
C159 O147 1.265 . S
C159 O148 1.242 . S
C160 O151 1.261 . S
C160 O152 1.252 . S
C161 C164 1.394 . S
C161 C166 1.370 . S
C161 C167 1.500 . S
C162 C165 1.383 . S
C162 C166 1.395 . S
C163 C164 1.396 . S
C163 C165 1.365 . S
C163 H180 0.929 . S
C164 C161 1.394 . S
C164 C163 1.396 . S
C164 H181 0.930 . S
C165 C162 1.383 . S
C165 C163 1.365 . S
C165 H182 0.931 . S
C166 C161 1.370 . S
C166 C162 1.395 . S
C166 H183 0.930 1_655 S
C167 Gd114 2.805 . S
C167 O149 1.263 . S
C167 O150 1.252 . S
C167 C161 1.500 . S
C168 H130 0.930 . S
C168 C144 1.417 . S
C168 C169 1.329 . S
C169 C139 1.437 . S
C169 H140 0.929 . S
C169 C168 1.329 . S
H170 C143 0.931 . S
C171 O153 1.265 . S
C171 O154 1.242 1_655 S
C172 O157 1.261 . S
C172 O158 1.252 1_545 S
C173 C176 1.394 . S
C173 C178 1.370 . S
C173 C179 1.500 1_554 S
C174 C177 1.383 . S
C174 C178 1.395 . S
C175 C176 1.396 . S
C175 C177 1.365 . S
C175 H184 0.929 . S
C176 C173 1.394 . S
C176 C175 1.396 . S
C176 H185 0.930 1_554 S
C177 C174 1.383 . S
C177 C175 1.365 . S
C177 H186 0.931 . S
C178 C173 1.370 . S
C178 C174 1.395 . S
C178 H187 0.930 . S
C179 Gd115 2.805 . S
C179 O155 1.263 . S
C179 O156 1.252 . S
C179 C173 1.500 1_556 S
H180 C163 0.929 . S
H181 C164 0.930 . S
H182 C165 0.931 . S
H183 C166 0.930 1_455 S
H184 C175 0.929 . S
H185 C176 0.930 1_556 S
H186 C177 0.931 . S
H187 C178 0.930 . S
C188 C190 1.422 . S
C188 C192 1.415 . S
C188 N194 1.369 . S
C189 C190 1.421 . S
C189 C191 1.417 . S
C189 C201 1.422 . S
C190 C188 1.422 . S
C190 C189 1.421 . S
C190 N200 1.359 . S
C191 C189 1.417 . S
C191 C193 1.329 . S
C191 H210 0.930 . S
C192 C188 1.415 . S
C192 C193 1.437 . S
C192 C196 1.413 . S
C193 C191 1.329 . S
C193 C192 1.437 . S
C193 H215 0.929 . S
N194 C188 1.369 . S
N194 C195 1.338 . S
N194 Gd199 2.622 . S
C195 N194 1.338 . S
C195 C197 1.378 . S
C195 H207 0.929 . S
C196 C192 1.413 . S
C196 C197 1.348 . S
C196 H212 0.931 . S
C197 C195 1.378 . S
C197 C196 1.348 . S
C197 H213 0.930 . S
Gd198 N218 2.622 . S
Gd198 N225 2.570 . S
Gd198 O232 2.353 1_545 S
Gd198 O233 2.468 . S
Gd198 O234 2.427 1_556 S
Gd198 O236 2.388 . S
Gd198 O237 2.386 . S
Gd198 O241 2.307 . S
Gd198 C251 2.805 1_556 S
Gd199 N194 2.622 . S
Gd199 N200 2.570 . S
Gd199 O231 2.386 . S
Gd199 O235 2.307 1_565 S
Gd199 O238 2.353 1_565 S
Gd199 O239 2.468 . S
Gd199 O240 2.427 . S
Gd199 O242 2.388 . S
Gd199 C263 2.805 . S
N200 C190 1.359 . S
N200 Gd199 2.570 . S
N200 C202 1.343 . S
C201 C189 1.422 . S
C201 C203 1.321 . S
C201 H209 0.931 . S
C202 N200 1.343 . S
C202 C203 1.390 . S
C202 H204 0.931 . S
C203 C201 1.321 . S
C203 C202 1.390 . S
C203 H205 0.930 . S
H204 C202 0.931 . S
H205 C203 0.930 . S
H206 C229 0.931 . S
H207 C195 0.929 . S
H208 C230 0.930 . S
H209 C201 0.931 . S
H210 C191 0.930 . S
H211 C220 0.929 1_554 S
H212 C196 0.931 . S
H213 C197 0.930 . S
H214 C252 0.930 . S
H215 C193 0.929 . S
H216 C221 0.931 1_554 S
H217 C222 0.930 . S
N218 Gd198 2.622 . S
N218 C219 1.369 . S
N218 C220 1.338 . S
C219 N218 1.369 . S
C219 C223 1.415 . S
C219 C226 1.422 . S
C220 H211 0.929 1_556 S
C220 N218 1.338 . S
C220 C222 1.378 1_556 S
C221 H216 0.931 1_556 S
C221 C222 1.348 1_556 S
C221 C223 1.413 . S
C222 H217 0.930 . S
C222 C220 1.378 1_554 S
C222 C221 1.348 1_554 S
C223 C219 1.415 . S
C223 C221 1.413 . S
C223 C253 1.437 . S
H224 C253 0.929 . S
N225 Gd198 2.570 . S
N225 C226 1.359 . S
N225 C229 1.343 . S
C226 C219 1.422 . S
C226 N225 1.359 . S
C226 C228 1.421 . S
C227 C228 1.422 . S
C227 C230 1.321 . S
C227 H254 0.931 . S
C228 C226 1.421 . S
C228 C227 1.422 . S
C228 C252 1.417 . S
C229 H206 0.931 . S
C229 N225 1.343 . S
C229 C230 1.390 . S
C230 H208 0.930 . S
C230 C227 1.321 . S
C230 C229 1.390 . S
O231 Gd199 2.386 . S
O231 C243 1.265 . S
O232 Gd198 2.353 1_565 S
O232 C243 1.242 . S
O233 Gd198 2.468 . S
O233 C251 1.263 1_556 S
O234 Gd198 2.427 1_554 S
O234 C251 1.252 . S
O235 Gd199 2.307 1_545 S
O235 C244 1.261 . S
O236 Gd198 2.388 . S
O236 C244 1.252 . S
O237 Gd198 2.386 . S
O237 C255 1.265 . S
O238 Gd199 2.353 1_545 S
O238 C255 1.242 . S
O239 Gd199 2.468 . S
O239 C263 1.263 . S
O240 Gd199 2.427 . S
O240 C263 1.252 . S
O241 Gd198 2.307 . S
O241 C256 1.264 . S
O242 Gd199 2.388 . S
O242 C256 1.250 1_565 S
C243 O231 1.265 . S
C243 O232 1.242 . S
C244 O235 1.261 . S
C244 O236 1.252 . S
C245 C248 1.394 . S
C245 C250 1.370 . S
C245 C251 1.500 . S
C246 C249 1.383 . S
C246 C250 1.395 . S
C247 C248 1.396 . S
C247 C249 1.365 . S
C247 H264 0.929 . S
C248 C245 1.394 . S
C248 C247 1.396 . S
C248 H265 0.930 . S
C249 C246 1.383 . S
C249 C247 1.365 . S
C249 H266 0.931 . S
C250 C245 1.370 . S
C250 C246 1.395 . S
C250 H267 0.930 . S
C251 Gd198 2.805 1_554 S
C251 O233 1.263 1_554 S
C251 O234 1.252 . S
C251 C245 1.500 . S
C252 H214 0.930 . S
C252 C228 1.417 . S
C252 C253 1.329 . S
C253 C223 1.437 . S
C253 H224 0.929 . S
C253 C252 1.329 . S
H254 C227 0.931 . S
C255 O237 1.265 . S
C255 O238 1.242 . S
C256 O241 1.264 . S
C256 O242 1.250 1_545 S
C257 C260 1.394 . S
C257 C262 1.370 . S
C257 C263 1.500 . S
C258 C261 1.383 . S
C258 C262 1.395 . S
C259 C260 1.396 . S
C259 C261 1.365 . S
C259 H268 0.929 . S
C260 C257 1.394 . S
C260 C259 1.396 . S
C260 H269 0.930 . S
C261 C258 1.383 . S
C261 C259 1.365 . S
C261 H270 0.931 . S
C262 C257 1.370 . S
C262 C258 1.395 . S
C262 H271 0.930 1_565 S
C263 Gd199 2.805 . S
C263 O239 1.263 . S
C263 O240 1.252 . S
C263 C257 1.500 . S
H264 C247 0.929 . S
H265 C248 0.930 . S
H266 C249 0.931 . S
H267 C250 0.930 . S
H268 C259 0.929 . S
H269 C260 0.930 . S
H270 C261 0.931 . S
H271 C262 0.930 1_545 S
C272 C274 1.422 . S
C272 C276 1.415 . S
C272 N278 1.369 1_554 S
C273 C274 1.421 . S
C273 C275 1.417 . S
C273 C285 1.422 . S
C274 C272 1.422 . S
C274 C273 1.421 . S
C274 N284 1.359 . S
C275 C273 1.417 . S
C275 C277 1.329 . S
C275 H294 0.930 . S
C276 C272 1.415 . S
C276 C277 1.437 . S
C276 C280 1.413 1_554 S
C277 C275 1.329 . S
C277 C276 1.437 . S
C277 H299 0.929 . S
N278 C272 1.369 1_556 S
N278 C279 1.338 . S
N278 Gd283 2.622 . S
C279 N278 1.338 . S
C279 C281 1.378 . S
C279 H291 0.929 . S
C280 C276 1.413 1_556 S
C280 C281 1.348 . S
C280 H296 0.931 . S
C281 C279 1.378 . S
C281 C280 1.348 . S
C281 H297 0.930 . S
Gd282 N302 2.622 . S
Gd282 N309 2.570 . S
Gd282 O316 2.353 . S
Gd282 O317 2.468 . S
Gd282 O318 2.427 . S
Gd282 O320 2.388 . S
Gd282 O321 2.386 . S
Gd282 O325 2.307 . S
Gd282 C335 2.805 . S
Gd283 N278 2.622 . S
Gd283 N284 2.570 1_556 S
Gd283 O315 2.386 . S
Gd283 O319 2.307 . S
Gd283 O322 2.353 . S
Gd283 O323 2.468 . S
Gd283 O324 2.427 . S
Gd283 O326 2.388 . S
Gd283 C347 2.805 . S
N284 C274 1.359 . S
N284 Gd283 2.570 1_554 S
N284 C286 1.343 . S
C285 C273 1.422 . S
C285 C287 1.321 . S
C285 H293 0.931 . S
C286 N284 1.343 . S
C286 C287 1.390 . S
C286 H288 0.931 . S
C287 C285 1.321 . S
C287 C286 1.390 . S
C287 H289 0.930 . S
H288 C286 0.931 . S
H289 C287 0.930 . S
H290 C313 0.931 . S
H291 C279 0.929 . S
H292 C314 0.930 . S
H293 C285 0.931 . S
H294 C275 0.930 . S
H295 C304 0.929 . S
H296 C280 0.931 . S
H297 C281 0.930 . S
H298 C336 0.930 . S
H299 C277 0.929 . S
H300 C305 0.931 . S
H301 C306 0.930 . S
N302 Gd282 2.622 . S
N302 C303 1.369 . S
N302 C304 1.338 . S
C303 N302 1.369 . S
C303 C307 1.415 . S
C303 C310 1.422 . S
C304 H295 0.929 . S
C304 N302 1.338 . S
C304 C306 1.378 . S
C305 H300 0.931 . S
C305 C306 1.348 . S
C305 C307 1.413 . S
C306 H301 0.930 . S
C306 C304 1.378 . S
C306 C305 1.348 . S
C307 C303 1.415 . S
C307 C305 1.413 . S
C307 C337 1.437 . S
H308 C337 0.929 . S
N309 Gd282 2.570 . S
N309 C310 1.359 . S
N309 C313 1.343 . S
C310 C303 1.422 . S
C310 N309 1.359 . S
C310 C312 1.421 . S
C311 C312 1.422 . S
C311 C314 1.321 . S
C311 H338 0.931 . S
C312 C310 1.421 . S
C312 C311 1.422 . S
C312 C336 1.417 . S
C313 H290 0.931 . S
C313 N309 1.343 . S
C313 C314 1.390 . S
C314 H292 0.930 . S
C314 C311 1.321 . S
C314 C313 1.390 . S
O315 Gd283 2.386 . S
O315 C327 1.265 . S
O316 Gd282 2.353 . S
O316 C327 1.242 . S
O317 Gd282 2.468 . S
O317 C335 1.263 . S
O318 Gd282 2.427 . S
O318 C335 1.252 . S
O319 Gd283 2.307 . S
O319 C328 1.261 . S
O320 Gd282 2.388 . S
O320 C328 1.252 . S
O321 Gd282 2.386 . S
O321 C339 1.265 . S
O322 Gd283 2.353 . S
O322 C339 1.242 . S
O323 Gd283 2.468 . S
O323 C347 1.263 . S
O324 Gd283 2.427 . S
O324 C347 1.252 . S
O325 Gd282 2.307 . S
O325 C340 1.261 . S
O326 Gd283 2.388 . S
O326 C340 1.252 . S
C327 O315 1.265 . S
C327 O316 1.242 . S
C328 O319 1.261 . S
C328 O320 1.252 . S
C329 C332 1.394 . S
C329 C334 1.370 . S
C329 C335 1.500 . S
C330 C333 1.383 . S
C330 C334 1.395 . S
C331 C332 1.396 . S
C331 C333 1.365 . S
C331 H348 0.929 . S
C332 C329 1.394 . S
C332 C331 1.396 . S
C332 H349 0.930 . S
C333 C330 1.383 . S
C333 C331 1.365 . S
C333 H350 0.931 . S
C334 C329 1.370 . S
C334 C330 1.395 . S
C334 H351 0.930 . S
C335 Gd282 2.805 . S
C335 O317 1.263 . S
C335 O318 1.252 . S
C335 C329 1.500 . S
C336 H298 0.930 . S
C336 C312 1.417 . S
C336 C337 1.329 . S
C337 C307 1.437 . S
C337 H308 0.929 . S
C337 C336 1.329 . S
H338 C311 0.931 . S
C339 O321 1.265 . S
C339 O322 1.242 . S
C340 O325 1.261 . S
C340 O326 1.252 . S
C341 C344 1.394 . S
C341 C346 1.370 . S
C341 C347 1.500 1_554 S
C342 C345 1.383 . S
C342 C346 1.395 . S
C343 C344 1.396 . S
C343 C345 1.365 . S
C343 H352 0.929 . S
C344 C341 1.394 . S
C344 C343 1.396 . S
C344 H353 0.930 1_554 S
C345 C342 1.383 . S
C345 C343 1.365 . S
C345 H354 0.931 . S
C346 C341 1.370 . S
C346 C342 1.395 . S
C346 H355 0.930 . S
C347 Gd283 2.805 . S
C347 O323 1.263 . S
C347 O324 1.252 . S
C347 C341 1.500 1_556 S
H348 C331 0.929 . S
H349 C332 0.930 . S
H350 C333 0.931 . S
H351 C334 0.930 . S
H352 C343 0.929 . S
H353 C344 0.930 1_556 S
H354 C345 0.931 . S
H355 C346 0.930 . S
C356 C358 1.422 . S
C356 C360 1.415 . S
C356 N362 1.369 1_554 S
C357 C358 1.421 . S
C357 C359 1.417 . S
C357 C369 1.422 . S
C358 C356 1.422 . S
C358 C357 1.421 . S
C358 N368 1.359 . S
C359 C357 1.417 . S
C359 C361 1.329 . S
C359 H378 0.930 . S
C360 C356 1.415 . S
C360 C361 1.437 . S
C360 C364 1.413 1_554 S
C361 C359 1.329 . S
C361 C360 1.437 . S
C361 H383 0.929 . S
N362 C356 1.369 1_556 S
N362 C363 1.339 . S
N362 Gd367 2.622 1_455 S
C363 N362 1.339 . S
C363 C365 1.383 . S
C363 H375 0.923 1_455 S
C364 C360 1.413 1_556 S
C364 C365 1.348 . S
C364 H380 0.931 . S
C365 C363 1.383 . S
C365 C364 1.348 . S
C365 H381 0.930 . S
Gd366 N386 2.622 . S
Gd366 N393 2.570 . S
Gd366 O400 2.353 . S
Gd366 O401 2.468 . S
Gd366 O402 2.427 . S
Gd366 O404 2.388 . S
Gd366 O405 2.386 1_455 S
Gd366 O409 2.307 . S
Gd366 C419 2.805 . S
Gd367 N362 2.622 1_655 S
Gd367 N368 2.570 1_656 S
Gd367 O399 2.386 1_655 S
Gd367 O403 2.307 1_655 S
Gd367 O406 2.353 . S
Gd367 O407 2.468 . S
Gd367 O408 2.427 . S
Gd367 O410 2.388 . S
Gd367 C431 2.805 . S
N368 C358 1.359 . S
N368 Gd367 2.570 1_454 S
N368 C370 1.343 . S
C369 C357 1.422 . S
C369 C371 1.321 . S
C369 H377 0.931 . S
C370 N368 1.343 . S
C370 C371 1.390 . S
C370 H372 0.931 . S
C371 C369 1.321 . S
C371 C370 1.390 . S
C371 H373 0.930 . S
H372 C370 0.931 . S
H373 C371 0.930 . S
H374 C397 0.931 . S
H375 C363 0.923 1_655 S
H376 C398 0.930 . S
H377 C369 0.931 . S
H378 C359 0.930 . S
H379 C388 0.929 . S
H380 C364 0.931 . S
H381 C365 0.930 . S
H382 C420 0.930 . S
H383 C361 0.929 . S
H384 C389 0.931 . S
H385 C390 0.930 . S
N386 Gd366 2.622 . S
N386 C387 1.369 1_455 S
N386 C388 1.338 . S
C387 N386 1.369 1_655 S
C387 C391 1.415 . S
C387 C394 1.422 . S
C388 H379 0.929 . S
C388 N386 1.338 . S
C388 C390 1.378 . S
C389 H384 0.931 . S
C389 C390 1.348 1_655 S
C389 C391 1.413 . S
C390 H385 0.930 . S
C390 C388 1.378 . S
C390 C389 1.348 1_455 S
C391 C387 1.415 . S
C391 C389 1.413 . S
C391 C421 1.437 . S
H392 C421 0.929 . S
N393 Gd366 2.570 . S
N393 C394 1.359 1_455 S
N393 C397 1.343 . S
C394 C387 1.422 . S
C394 N393 1.359 1_655 S
C394 C396 1.421 . S
C395 C396 1.422 . S
C395 C398 1.321 . S
C395 H422 0.931 . S
C396 C394 1.421 . S
C396 C395 1.422 . S
C396 C420 1.417 . S
C397 H374 0.931 . S
C397 N393 1.343 . S
C397 C398 1.390 1_455 S
C398 H376 0.930 . S
C398 C395 1.321 . S
C398 C397 1.390 1_655 S
O399 Gd367 2.386 1_455 S
O399 C411 1.265 . S
O400 Gd366 2.353 . S
O400 C411 1.242 . S
O401 Gd366 2.468 . S
O401 C419 1.263 . S
O402 Gd366 2.427 . S
O402 C419 1.252 . S
O403 Gd367 2.307 1_455 S
O403 C412 1.261 . S
O404 Gd366 2.388 . S
O404 C412 1.252 . S
O405 Gd366 2.386 1_655 S
O405 C423 1.265 . S
O406 Gd367 2.353 . S
O406 C423 1.242 . S
O407 Gd367 2.468 . S
O407 C431 1.263 . S
O408 Gd367 2.427 . S
O408 C431 1.252 . S
O409 Gd366 2.307 . S
O409 C424 1.261 . S
O410 Gd367 2.388 . S
O410 C424 1.252 1_655 S
C411 O399 1.265 . S
C411 O400 1.242 . S
C412 O403 1.261 . S
C412 O404 1.252 . S
C413 C416 1.394 . S
C413 C418 1.370 . S
C413 C419 1.500 . S
C414 C417 1.383 . S
C414 C418 1.395 . S
C415 C416 1.396 . S
C415 C417 1.365 . S
C415 H432 0.929 . S
C416 C413 1.394 . S
C416 C415 1.396 . S
C416 H433 0.930 . S
C417 C414 1.383 . S
C417 C415 1.365 . S
C417 H434 0.931 . S
C418 C413 1.370 . S
C418 C414 1.395 . S
C418 H435 0.930 . S
C419 Gd366 2.805 . S
C419 O401 1.263 . S
C419 O402 1.252 . S
C419 C413 1.500 . S
C420 H382 0.930 . S
C420 C396 1.417 . S
C420 C421 1.329 . S
C421 C391 1.437 . S
C421 H392 0.929 . S
C421 C420 1.329 . S
H422 C395 0.931 . S
C423 O405 1.265 . S
C423 O406 1.242 . S
C424 O409 1.261 . S
C424 O410 1.252 1_455 S
C425 C428 1.394 . S
C425 C430 1.370 . S
C425 C431 1.500 1_554 S
C426 C429 1.383 . S
C426 C430 1.395 . S
C427 C428 1.396 . S
C427 C429 1.365 . S
C427 H436 0.929 . S
C428 C425 1.394 . S
C428 C427 1.396 . S
C428 H437 0.930 1_554 S
C429 C426 1.383 . S
C429 C427 1.365 . S
C429 H438 0.931 . S
C430 C425 1.370 . S
C430 C426 1.395 . S
C430 H439 0.930 . S
C431 Gd367 2.805 . S
C431 O407 1.263 . S
C431 O408 1.252 . S
C431 C425 1.500 1_556 S
H432 C415 0.929 . S
H433 C416 0.930 . S
H434 C417 0.931 . S
H435 C418 0.930 . S
H436 C427 0.929 . S
H437 C428 0.930 1_556 S
H438 C429 0.931 . S
H439 C430 0.930 . S
C440 C441 1.369 . S
C440 C442 1.419 . S
C440 H444 0.930 . S
C441 C440 1.369 . S
C441 C450 1.429 . S
C442 C440 1.419 . S
C442 C443 1.363 . S
C442 H445 0.929 . S
C443 C442 1.363 . S
C443 C449 1.428 . S
H444 C440 0.930 . S
H445 C442 0.929 . S
S446 N447 1.613 . S
S446 N448 1.610 . S
N447 S446 1.613 . S
N447 C450 1.350 . S
N448 S446 1.610 . S
N448 C449 1.351 . S
C449 C443 1.428 . S
C449 N448 1.351 . S
C449 C450 1.434 . S
C450 C441 1.429 . S
C450 N447 1.350 . S
C450 C449 1.434 . S
C451 C452 1.369 . S
C451 C453 1.419 . S
C451 H455 0.930 . S
C452 C451 1.369 . S
C452 C461 1.429 . S
C453 C451 1.419 . S
C453 C454 1.363 . S
C453 H456 0.929 . S
C454 C453 1.363 . S
C454 C460 1.428 . S
H455 C451 0.930 . S
H456 C453 0.929 . S
S457 N458 1.613 . S
S457 N459 1.610 . S
N458 S457 1.613 . S
N458 C461 1.350 . S
N459 S457 1.610 . S
N459 C460 1.351 . S
C460 C454 1.428 . S
C460 N459 1.351 . S
C460 C461 1.434 . S
C461 C452 1.429 . S
C461 N458 1.350 . S
C461 C460 1.434 . S
C462 C463 1.369 . S
C462 C464 1.419 . S
C462 H466 0.930 . S
C463 C462 1.369 . S
C463 C472 1.429 . S
C464 C462 1.419 . S
C464 C465 1.363 . S
C464 H467 0.929 . S
C465 C464 1.363 . S
C465 C471 1.428 . S
H466 C462 0.930 . S
H467 C464 0.929 . S
S468 N469 1.613 . S
S468 N470 1.610 . S
N469 S468 1.613 . S
N469 C472 1.350 . S
N470 S468 1.610 . S
N470 C471 1.351 . S
C471 C465 1.428 . S
C471 N470 1.351 . S
C471 C472 1.434 . S
C472 C463 1.429 . S
C472 N469 1.350 . S
C472 C471 1.434 . S
C473 C474 1.369 . S
C473 C475 1.419 . S
C473 H477 0.930 . S
C474 C473 1.369 . S
C474 C483 1.428 1_455 S
C475 C473 1.419 . S
C475 C476 1.363 . S
C475 H478 0.929 . S
C476 C475 1.363 . S
C476 C482 1.428 1_455 S
H477 C473 0.930 . S
H478 C475 0.929 . S
S479 N480 1.613 . S
S479 N481 1.610 . S
N480 S479 1.613 . S
N480 C483 1.351 . S
N481 S479 1.610 . S
N481 C482 1.351 . S
C482 C476 1.428 1_655 S
C482 N481 1.351 . S
C482 C483 1.434 . S
C483 C474 1.428 1_655 S
C483 N480 1.351 . S
C483 C482 1.434 . S
C484 C485 1.369 1_545 S
C484 C486 1.419 . S
C484 H488 0.930 . S
C485 C484 1.369 1_565 S
C485 C494 1.429 . S
C486 C484 1.419 . S
C486 C487 1.363 1_545 S
C486 H489 0.929 . S
C487 C486 1.363 1_565 S
C487 C493 1.428 . S
H488 C484 0.930 . S
H489 C486 0.929 . S
S490 N491 1.613 . S
S490 N492 1.610 1_554 S
N491 S490 1.613 . S
N491 C494 1.350 . S
N492 S490 1.610 1_556 S
N492 C493 1.351 1_556 S
C493 C487 1.428 . S
C493 N492 1.351 1_554 S
C493 C494 1.434 . S
C494 C485 1.429 . S
C494 N491 1.350 . S
C494 C493 1.434 . S
C495 C496 1.369 . S
C495 C497 1.419 . S
C495 H499 0.930 . S
C496 C495 1.369 . S
C496 C505 1.429 . S
C497 C495 1.419 . S
C497 C498 1.363 . S
C497 H500 0.929 . S
C498 C497 1.363 . S
C498 C504 1.428 . S
H499 C495 0.930 . S
H500 C497 0.929 . S
S501 N502 1.613 . S
S501 N503 1.610 . S
N502 S501 1.613 . S
N502 C505 1.350 . S
N503 S501 1.610 . S
N503 C504 1.351 . S
C504 C498 1.428 . S
C504 N503 1.351 . S
C504 C505 1.434 . S
C505 C496 1.429 . S
C505 N502 1.350 . S
C505 C504 1.434 . S
C506 C507 1.369 . S
C506 C508 1.419 . S
C506 H510 0.930 . S
C507 C506 1.369 . S
C507 C516 1.429 . S
C508 C506 1.419 . S
C508 C509 1.363 . S
C508 H511 0.929 . S
C509 C508 1.363 . S
C509 C515 1.428 . S
H510 C506 0.930 . S
H511 C508 0.929 . S
S512 N513 1.613 . S
S512 N514 1.610 1_554 S
N513 S512 1.613 . S
N513 C516 1.350 . S
N514 S512 1.610 1_556 S
N514 C515 1.351 1_556 S
C515 C509 1.428 . S
C515 N514 1.351 1_554 S
C515 C516 1.434 . S
C516 C507 1.429 . S
C516 N513 1.350 . S
C516 C515 1.434 . S
C517 C518 1.369 1_455 S
C517 C519 1.419 . S
C517 H521 0.930 . S
C518 C517 1.369 1_655 S
C518 C527 1.429 . S
C519 C517 1.419 . S
C519 C520 1.363 1_455 S
C519 H522 0.929 . S
C520 C519 1.363 1_655 S
C520 C526 1.428 . S
H521 C517 0.930 . S
H522 C519 0.929 . S
S523 N524 1.613 . S
S523 N525 1.610 . S
N524 S523 1.613 . S
N524 C527 1.350 . S
N525 S523 1.610 . S
N525 C526 1.351 . S
C526 C520 1.428 . S
C526 N525 1.351 . S
C526 C527 1.434 . S
C527 C518 1.429 . S
C527 N524 1.350 . S
C527 C526 1.434 . S
C528 C529 1.369 . S
C528 C530 1.419 . S
C528 H532 0.930 . S
C529 C528 1.369 . S
C529 C538 1.429 . S
C530 C528 1.419 . S
C530 C531 1.363 1_455 S
C530 H533 0.929 . S
C531 C530 1.363 1_655 S
C531 C537 1.428 . S
H532 C528 0.930 . S
H533 C530 0.929 . S
S534 N535 1.613 1_556 S
S534 N536 1.610 1_556 S
N535 S534 1.613 1_554 S
N535 C538 1.350 1_655 S
N536 S534 1.610 1_554 S
N536 C537 1.351 . S
C537 C531 1.428 . S
C537 N536 1.351 . S
C537 C538 1.434 1_655 S
C538 C529 1.429 . S
C538 N535 1.350 1_455 S
C538 C537 1.434 1_455 S
C539 C540 1.369 . S
C539 C541 1.419 . S
C539 H543 0.930 . S
C540 C539 1.369 . S
C540 C549 1.429 . S
C541 C539 1.419 . S
C541 C542 1.363 . S
C541 H544 0.929 . S
C542 C541 1.363 . S
C542 C548 1.428 . S
H543 C539 0.930 . S
H544 C541 0.929 . S
S545 N546 1.613 . S
S545 N547 1.610 . S
N546 S545 1.613 . S
N546 C549 1.350 . S
N547 S545 1.610 . S
N547 C548 1.351 . S
C548 C542 1.428 . S
C548 N547 1.351 . S
C548 C549 1.434 . S
C549 C540 1.429 . S
C549 N546 1.350 . S
C549 C548 1.434 . S
C550 C551 1.369 . S
C550 C552 1.419 . S
C550 H554 0.930 . S
C551 C550 1.369 . S
C551 C560 1.429 . S
C552 C550 1.419 . S
C552 C553 1.363 . S
C552 H555 0.929 . S
C553 C552 1.363 . S
C553 C559 1.428 . S
H554 C550 0.930 . S
H555 C552 0.929 . S
S556 N557 1.613 . S
S556 N558 1.610 . S
N557 S556 1.613 . S
N557 C560 1.350 . S
N558 S556 1.610 . S
N558 C559 1.351 . S
C559 C553 1.428 . S
C559 N558 1.351 . S
C559 C560 1.434 . S
C560 C551 1.429 . S
C560 N557 1.350 . S
C560 C559 1.434 . S
C561 C562 1.369 . S
C561 C563 1.419 . S
C561 H565 0.930 . S
C562 C561 1.369 . S
C562 C571 1.429 . S
C563 C561 1.419 . S
C563 C564 1.363 . S
C563 H566 0.929 . S
C564 C563 1.363 . S
C564 C570 1.428 . S
H565 C561 0.930 . S
H566 C563 0.929 . S
S567 N568 1.613 . S
S567 N569 1.610 . S
N568 S567 1.613 . S
N568 C571 1.350 . S
N569 S567 1.610 . S
N569 C570 1.351 . S
C570 C564 1.428 . S
C570 N569 1.351 . S
C570 C571 1.434 . S
C571 C562 1.429 . S
C571 N568 1.350 . S
C571 C570 1.434 . S
C572 C573 1.369 . S
C572 C574 1.419 . S
C572 H576 0.930 . S
C573 C572 1.369 . S
C573 C582 1.429 1_655 S
C574 C572 1.419 . S
C574 C575 1.363 1_655 S
C574 H577 0.929 . S
C575 C574 1.363 1_455 S
C575 C581 1.428 . S
H576 C572 0.930 . S
H577 C574 0.929 . S
S578 N579 1.613 . S
S578 N580 1.610 . S
N579 S578 1.613 . S
N579 C582 1.350 . S
N580 S578 1.610 . S
N580 C581 1.351 . S
C581 C575 1.428 . S
C581 N580 1.351 . S
C581 C582 1.434 . S
C582 C573 1.429 1_455 S
C582 N579 1.350 . S
C582 C581 1.434 . S
C583 C584 1.369 . S
C583 C585 1.419 1_565 S
C583 H587 0.930 . S
C584 C583 1.369 . S
C584 C593 1.429 1_565 S
C585 C583 1.419 1_545 S
C585 C586 1.363 . S
C585 H588 0.929 . S
C586 C585 1.363 . S
C586 C592 1.428 . S
H587 C583 0.930 . S
H588 C585 0.929 . S
S589 N590 1.613 . S
S589 N591 1.610 . S
N590 S589 1.613 . S
N590 C593 1.350 . S
N591 S589 1.610 . S
N591 C592 1.351 . S
C592 C586 1.428 . S
C592 N591 1.351 . S
C592 C593 1.434 . S
C593 C584 1.429 1_545 S
C593 N590 1.350 . S
C593 C592 1.434 . S
C594 C595 1.369 . S
C594 C596 1.419 . S
C594 H598 0.930 . S
C595 C594 1.369 . S
C595 C604 1.429 . S
C596 C594 1.419 . S
C596 C597 1.363 . S
C596 H599 0.929 . S
C597 C596 1.363 . S
C597 C603 1.428 . S
H598 C594 0.930 . S
H599 C596 0.929 . S
S600 N601 1.613 . S
S600 N602 1.610 . S
N601 S600 1.613 . S
N601 C604 1.350 . S
N602 S600 1.610 . S
N602 C603 1.351 . S
C603 C597 1.428 . S
C603 N602 1.351 . S
C603 C604 1.434 . S
C604 C595 1.429 . S
C604 N601 1.350 . S
C604 C603 1.434 . S
C605 C606 1.369 . S
C605 C607 1.419 . S
C605 H609 0.930 . S
C606 C605 1.369 . S
C606 C615 1.429 . S
C607 C605 1.419 . S
C607 C608 1.363 . S
C607 H610 0.929 . S
C608 C607 1.363 . S
C608 C614 1.428 . S
H609 C605 0.930 . S
H610 C607 0.929 . S
S611 N612 1.613 . S
S611 N613 1.610 . S
N612 S611 1.613 . S
N612 C615 1.350 . S
N613 S611 1.610 . S
N613 C614 1.351 . S
C614 C608 1.428 . S
C614 N613 1.351 . S
C614 C615 1.434 . S
C615 C606 1.429 . S
C615 N612 1.350 . S
C615 C614 1.434 . S
C616 C617 1.369 . S
C616 C618 1.419 . S
C616 H620 0.930 1_455 S
C617 C616 1.369 . S
C617 C626 1.429 . S
C618 C616 1.419 . S
C618 C619 1.363 . S
C618 H621 0.929 1_455 S
C619 C618 1.363 . S
C619 C625 1.428 . S
H620 C616 0.930 1_655 S
H621 C618 0.929 1_655 S
S622 N623 1.613 . S
S622 N624 1.610 . S
N623 S622 1.613 . S
N623 C626 1.350 . S
N624 S622 1.610 . S
N624 C625 1.351 . S
C625 C619 1.428 . S
C625 N624 1.351 . S
C625 C626 1.434 . S
C626 C617 1.429 . S
C626 N623 1.350 . S
C626 C625 1.434 . S
C627 C628 1.369 . S
C627 C629 1.419 . S
C627 H631 0.930 . S
C628 C627 1.369 . S
C628 C637 1.429 . S
C629 C627 1.419 . S
C629 C630 1.363 . S
C629 H632 0.929 . S
C630 C629 1.363 . S
C630 C636 1.428 . S
H631 C627 0.930 . S
H632 C629 0.929 . S
S633 N634 1.613 . S
S633 N635 1.610 . S
N634 S633 1.613 . S
N634 C637 1.350 1_554 S
N635 S633 1.610 . S
N635 C636 1.351 1_554 S
C636 C630 1.428 . S
C636 N635 1.351 1_556 S
C636 C637 1.434 . S
C637 C628 1.429 . S
C637 N634 1.350 1_556 S
C637 C636 1.434 . S
C638 C639 1.369 . S
C638 C640 1.419 . S
C638 H642 0.930 1_556 S
C639 C638 1.369 . S
C639 C648 1.429 . S
C640 C638 1.419 . S
C640 C641 1.363 . S
C640 H643 0.929 . S
C641 C640 1.363 . S
C641 C647 1.428 . S
H642 C638 0.930 1_554 S
H643 C640 0.929 . S
S644 N645 1.613 . S
S644 N646 1.610 . S
N645 S644 1.613 . S
N645 C648 1.350 . S
N646 S644 1.610 . S
N646 C647 1.351 . S
C647 C641 1.428 . S
C647 N646 1.351 . S
C647 C648 1.434 . S
C648 C639 1.429 . S
C648 N645 1.350 . S
C648 C647 1.434 . S
C649 C650 1.369 . S
C649 C651 1.419 . S
C649 H653 0.930 . S
C650 C649 1.369 . S
C650 C659 1.429 . S
C651 C649 1.419 . S
C651 C652 1.363 . S
C651 H654 0.929 . S
C652 C651 1.363 . S
C652 C658 1.428 . S
H653 C649 0.930 . S
H654 C651 0.929 . S
S655 N656 1.613 . S
S655 N657 1.610 . S
N656 S655 1.613 . S
N656 C659 1.350 1_554 S
N657 S655 1.610 . S
N657 C658 1.351 1_554 S
C658 C652 1.428 . S
C658 N657 1.351 1_556 S
C658 C659 1.434 . S
C659 C650 1.429 . S
C659 N656 1.350 1_556 S
C659 C658 1.434 . S
C660 C661 1.369 1_455 S
C660 C662 1.419 . S
C660 H664 0.930 . S
C661 C660 1.369 1_655 S
C661 C670 1.429 . S
C662 C660 1.419 . S
C662 C663 1.363 1_455 S
C662 H665 0.929 . S
C663 C662 1.363 1_655 S
C663 C669 1.428 . S
H664 C660 0.930 . S
H665 C662 0.929 . S
S666 N667 1.613 . S
S666 N668 1.610 . S
N667 S666 1.613 . S
N667 C670 1.350 . S
N668 S666 1.610 . S
N668 C669 1.351 . S
C669 C663 1.428 . S
C669 N668 1.351 . S
C669 C670 1.434 . S
C670 C661 1.429 . S
C670 N667 1.350 . S
C670 C669 1.434 . S
C671 C672 1.369 . S
C671 C673 1.419 . S
C671 H675 0.930 . S
C672 C671 1.369 . S
C672 C681 1.429 1_565 S
C673 C671 1.419 . S
C673 C674 1.363 . S
C673 H676 0.929 . S
C674 C673 1.363 . S
C674 C680 1.428 1_565 S
H675 C671 0.930 . S
H676 C673 0.929 . S
S677 N678 1.613 . S
S677 N679 1.610 . S
N678 S677 1.613 . S
N678 C681 1.350 . S
N679 S677 1.610 . S
N679 C680 1.351 . S
C680 C674 1.428 1_545 S
C680 N679 1.351 . S
C680 C681 1.434 . S
C681 C672 1.429 1_545 S
C681 N678 1.350 . S
C681 C680 1.434 . S
C682 C683 1.369 . S
C682 C684 1.419 . S
C682 H686 0.930 . S
C683 C682 1.369 . S
C683 C692 1.429 . S
C684 C682 1.419 . S
C684 C685 1.363 . S
C684 H687 0.929 . S
C685 C684 1.363 . S
C685 C691 1.428 . S
H686 C682 0.930 . S
H687 C684 0.929 . S
S688 N689 1.613 . S
S688 N690 1.610 . S
N689 S688 1.613 . S
N689 C692 1.350 . S
N690 S688 1.610 . S
N690 C691 1.351 . S
C691 C685 1.428 . S
C691 N690 1.351 . S
C691 C692 1.434 . S
C692 C683 1.429 . S
C692 N689 1.350 . S
C692 C691 1.434 . S
C693 C694 1.369 . S
C693 C695 1.419 . S
C693 H697 0.930 . S
C694 C693 1.369 . S
C694 C703 1.429 . S
C695 C693 1.419 . S
C695 C696 1.363 . S
C695 H698 0.929 . S
C696 C695 1.363 . S
C696 C702 1.428 . S
H697 C693 0.930 . S
H698 C695 0.929 . S
S699 N700 1.613 . S
S699 N701 1.610 . S
N700 S699 1.613 . S
N700 C703 1.350 . S
N701 S699 1.610 . S
N701 C702 1.351 . S
C702 C696 1.428 . S
C702 N701 1.351 . S
C702 C703 1.434 . S
C703 C694 1.429 . S
C703 N700 1.350 . S
C703 C702 1.434 . S
C441 C82 1.799 . S
C443 C172 2.166 . S
C454 C255 2.172 . S
C452 C95 1.802 . S
C465 C340 2.165 . S
C463 C56 1.797 . S
C476 C424 2.150 . S
C474 C69 1.798 . S
C487 C160 2.167 1_564 S
C485 C30 1.772 . S
C496 C43 1.761 . S
C498 C243 2.174 1_554 S
C507 C4 1.767 . S
C509 C328 2.167 1_554 S
C518 C17 1.765 . S
C520 C412 2.152 1_654 S
C531 C162 0.764 . S
C529 C74 0.754 . S
C542 C258 0.756 1_545 S
C540 C87 0.760 . S
C553 C330 0.778 . S
C551 C100 0.773 . S
C562 C61 0.761 . S
C564 C414 0.753 . S
C573 C22 0.753 . S
C575 C174 0.763 . S
C586 C246 0.757 . S
C584 C35 0.750 . S
C597 C342 0.776 . S
C595 C48 0.763 . S
C606 C9 0.752 . S
C608 C426 0.745 . S
C617 C73 2.024 . S
C619 C159 2.279 . S
C628 C86 2.026 . S
C630 C244 2.323 . S
C641 C327 2.294 . S
C639 C99 2.044 . S
C652 C411 2.300 . S
C650 C60 2.040 . S
C661 C21 2.025 . S
C663 C171 2.279 . S
C674 C256 2.322 1_565 S
C672 C34 2.033 . S
C685 C339 2.297 . S
C683 C47 2.032 . S
C694 C8 2.048 . S
C696 C423 2.297 . S
