# Generated by pormake.
# Topology tsx, (6,3)-cn, num edge types: 1
# Building blocks:
#     Node 0, Type 0, BuildingBlock: CIFDUS_clean_sbu_1, # of connection points: 6
#     Node 1, Type 0, BuildingBlock: CIFDUS_clean_sbu_1, # of connection points: 6
#     Node 2, Type 1, BuildingBlock: CUQRIR_clean_linker_1, # of connection points: 3
#     Node 3, Type 1, BuildingBlock: CUQRIR_clean_linker_1, # of connection points: 3
#     Node 4, Type 1, BuildingBlock: CUQRIR_clean_linker_1, # of connection points: 3
#     Node 5, Type 1, BuildingBlock: CUQRIR_clean_linker_1, # of connection points: 3
#     Edge 6, Type (0, 1), BuildingBlock: XUDNAN_clean_linker_2, # of connection points: 2
#     Edge 7, Type (0, 1), BuildingBlock: XUDNAN_clean_linker_2, # of connection points: 2
#     Edge 8, Type (0, 1), BuildingBlock: XUDNAN_clean_linker_2, # of connection points: 2
#     Edge 9, Type (0, 1), BuildingBlock: XUDNAN_clean_linker_2, # of connection points: 2
#     Edge 10, Type (0, 1), BuildingBlock: XUDNAN_clean_linker_2, # of connection points: 2
#     Edge 11, Type (0, 1), BuildingBlock: XUDNAN_clean_linker_2, # of connection points: 2
#     Edge 12, Type (0, 1), BuildingBlock: XUDNAN_clean_linker_2, # of connection points: 2
#     Edge 13, Type (0, 1), BuildingBlock: XUDNAN_clean_linker_2, # of connection points: 2
#     Edge 14, Type (0, 1), BuildingBlock: XUDNAN_clean_linker_2, # of connection points: 2
#     Edge 15, Type (0, 1), BuildingBlock: XUDNAN_clean_linker_2, # of connection points: 2
#     Edge 16, Type (0, 1), BuildingBlock: XUDNAN_clean_linker_2, # of connection points: 2
#     Edge 17, Type (0, 1), BuildingBlock: XUDNAN_clean_linker_2, # of connection points: 2
# Relax obj value: 0.157
# Max RMSD: 0.174
# Mean RMSD: 0.160
data_MOF--net-tsx--node1-CIFDUS_clean_sbu_1--node2-CUQRIR_clean_linker_1--edge1-XUDNAN_clean_linker_2
_symmetry_space_group_name_H-M    P1
_symmetry_Int_Tables_number       1
_symmetry_cell_setting            triclinic
loop_
_symmetry_equiv_pos_as_xyz
'x, y, z'
_cell_length_a     17.217754
_cell_length_b     20.424793
_cell_length_c     32.981674
_cell_angle_alpha  86.023513
_cell_angle_beta   91.32472
_cell_angle_gamma 91.031604
loop_
_atom_site_label
_atom_site_type_symbol
_atom_site_fract_x
_atom_site_fract_y
_atom_site_fract_z
_atom_type_partial_charge
O0 O 0.96052 0.12124 -0.00432 0.0
Mn1 Mn 0.0324 0.03742 -0.00342 0.0
O2 O 0.86265 0.09918 0.95187 0.0
Mn3 Mn 0.89884 0.02029 0.93695 0.0
O4 O 0.10112 0.95241 -0.00665 0.0
O5 O 0.12315 0.09648 0.01304 0.0
Mn6 Mn 0.18664 0.04343 0.04178 0.0
O7 O 0.01047 0.01288 0.05842 0.0
O8 O 0.22233 0.9803 0.01029 0.0
O9 O 0.06292 0.06287 0.93636 0.0
O10 O 0.96858 0.02668 0.8957 0.0
O11 O 0.23531 0.12322 0.04127 0.0
O12 O 0.13133 0.01371 0.08683 0.0
C13 C 0.88332 0.93616 0.97592 0.0
C14 C 0.89673 0.13691 0.97607 0.0
C15 C 0.17437 0.94053 -0.00479 0.0
C16 C 0.17373 0.14246 0.02086 0.0
C17 C 0.05786 1.00538 0.08928 0.0
C18 C 0.03547 0.05174 0.9011 0.0
O19 O 0.93982 0.97875 0.98095 0.0
O20 O 0.83845 0.94736 0.94418 0.0
O21 O 0.51866 0.64405 0.48921 0.0
Mn22 Mn 0.59381 0.56363 0.49097 0.0
O23 O 0.43199 0.61514 0.44103 0.0
Mn24 Mn 0.46106 0.52841 0.4386 0.0
O25 O 0.65975 0.47707 0.487 0.0
O26 O 0.68583 0.63054 0.49798 0.0
Mn27 Mn 0.7506 0.56943 0.5198 0.0
O28 O 0.58812 0.55178 0.55415 0.0
O29 O 0.77984 0.51342 0.48262 0.0
O30 O 0.60928 0.58121 0.42841 0.0
O31 O 0.52979 0.51251 0.39905 0.0
O32 O 0.80951 0.64147 0.52022 0.0
O33 O 0.71409 0.53557 0.56942 0.0
C34 C 0.44045 0.45865 0.48601 0.0
C35 C 0.46016 0.65672 0.4648 0.0
C36 C 0.72915 0.47106 0.47483 0.0
C37 C 0.74762 0.6682 0.50377 0.0
C38 C 0.64387 0.53971 0.58003 0.0
C39 C 0.58908 0.54955 0.39781 0.0
O40 O 0.49944 0.50016 0.48689 0.0
O41 O 0.39472 0.463 0.45421 0.0
C42 C 0.06327 0.0596 0.41907 0.0
N43 N 0.08176 1.00247 0.40335 0.0
N44 N 0.98851 0.07527 0.40977 0.0
C45 C 0.12343 0.10587 0.4356 0.0
C46 C 0.96361 0.02706 0.38637 0.0
N47 N 0.02091 0.98375 0.38091 0.0
C48 C 0.88785 0.02937 0.36247 0.0
H49 H 0.17805 0.10319 0.4186 0.0
H50 H 0.13737 0.09133 0.46785 0.0
H51 H 0.10354 0.15728 0.43359 0.0
H52 H 0.89827 0.05161 0.33136 0.0
H53 H 0.84434 0.05902 0.37696 0.0
H54 H 0.8638 0.97906 0.35994 0.0
C55 C 0.02997 0.11401 0.55665 0.0
N56 N 0.07867 0.13458 0.58636 0.0
N57 N 0.98094 0.06594 0.57163 0.0
C58 C 0.02171 0.14668 0.5149 0.0
C59 C 1.00179 0.0577 0.61135 0.0
N60 N 0.06075 0.09924 0.62022 0.0
C61 C 0.96433 1.00908 0.64153 0.0
H62 H 0.97214 0.18037 0.51429 0.0
H63 H 0.00822 0.10902 0.49323 0.0
H64 H 0.07387 0.17589 0.50572 0.0
H65 H 1.00449 0.99577 0.66747 0.0
H66 H 0.94567 0.96402 0.62677 0.0
H67 H 0.91203 0.03151 0.65344 0.0
C68 C 0.52583 0.53414 0.91398 0.0
N69 N 0.59129 0.52317 0.89374 0.0
N70 N 0.49884 0.59504 0.90376 0.0
C71 C 0.48117 0.48153 0.93725 0.0
C72 C 0.54874 0.61982 0.8754 0.0
N73 N 0.60451 0.5758 0.86876 0.0
C74 C 0.53718 0.68403 0.85077 0.0
H75 H 0.46153 0.44489 0.91583 0.0
H76 H 0.42972 0.50199 0.95098 0.0
H77 H 0.51899 0.45575 0.9606 0.0
H78 H 0.58766 0.71715 0.85596 0.0
H79 H 0.4835 0.70882 0.85886 0.0
H80 H 0.53359 0.6756 0.8179 0.0
C81 C 0.48132 0.56694 0.05752 0.0
N82 N 0.51561 0.60975 0.08279 0.0
N83 N 0.41805 0.53582 0.07541 0.0
C84 C 0.53051 0.53344 0.02859 0.0
C85 C 0.42479 0.55314 0.11442 0.0
N86 N 0.48383 0.59689 0.11887 0.0
C87 C 0.38514 0.51681 0.15002 0.0
H88 H 0.51708 0.55358 -0.00259 0.0
H89 H 0.52453 0.47962 0.03258 0.0
H90 H 0.5932 0.54032 0.03556 0.0
H91 H 0.36335 0.46769 0.14232 0.0
H92 H 0.33605 0.54635 0.15941 0.0
H93 H 0.42512 0.50931 0.1767 0.0
H94 H 0.26198 0.22302 0.97337 0.0
H95 H 0.07142 0.22035 0.05625 0.0
H96 H 0.09888 0.337 0.06844 0.0
H97 H 0.43567 0.34878 0.98358 0.0
H98 H 0.38466 0.27547 0.97143 0.0
H99 H 0.39353 0.29609 0.02368 0.0
H100 H 0.29641 0.34296 0.9217 0.0
H101 H 0.33916 0.42019 0.93401 0.0
H102 H 0.23729 0.40668 0.93933 0.0
H103 H 0.16679 0.44751 0.08181 0.0
H104 H 0.26562 0.53139 0.09709 0.0
H105 H 0.41856 0.44922 0.01219 0.0
C106 C 0.22296 0.24852 -0.00806 0.0
C107 C 0.16312 0.21359 0.01278 0.0
C108 C 0.11542 0.24715 0.0386 0.0
C109 C 0.13141 0.3133 0.04607 0.0
C110 C 0.19492 0.34519 0.02718 0.0
C111 C 0.23887 0.31385 0.0 0.0
C112 C 0.30884 0.35515 -0.01295 0.0
C113 C 0.38505 0.31655 -0.0082 0.0
C114 C 0.29483 0.38279 0.94297 0.0
C115 C 0.30543 0.40898 0.01641 0.0
C116 C 0.23659 0.40531 0.03709 0.0
C117 C 0.2213 0.44965 0.06604 0.0
C118 C 0.27916 0.49632 0.07533 0.0
C119 C 0.35475 0.49551 0.05864 0.0
C120 C 0.36514 0.45276 0.02713 0.0
H121 H 0.3251 0.90052 0.00015 0.0
H122 H 0.09546 0.83893 0.9593 0.0
H123 H 0.15159 0.73692 0.93638 0.0
H124 H 0.42667 0.84635 0.91827 0.0
H125 H 0.51099 0.82137 0.94837 0.0
H126 H 0.4516 0.88617 0.96404 0.0
H127 H 0.43121 0.82267 0.03434 0.0
H128 H 0.49302 0.75952 0.01855 0.0
H129 H 0.39673 0.73862 0.03605 0.0
H130 H 0.23767 0.64323 0.91424 0.0
H131 H 0.34395 0.57231 0.8934 0.0
H132 H 0.5131 0.6971 0.95029 0.0
C133 C 0.28593 0.86559 -0.01326 0.0
C134 C 0.20549 0.87806 0.98165 0.0
C135 C 0.15714 0.83068 0.96364 0.0
C136 C 0.18857 0.77246 0.95067 0.0
C137 C 0.26834 0.76207 0.95617 0.0
C138 C 0.31608 0.80763 0.97389 0.0
C139 C 0.40032 0.78753 0.97468 0.0
C140 C 0.45029 0.83837 0.94986 0.0
C141 C 0.43208 0.7764 0.01853 0.0
C142 C 0.39321 0.7237 0.95423 0.0
C143 C 0.31678 0.70921 0.94388 0.0
C144 C 0.2974 0.65397 0.9227 0.0
C145 C 0.35774 0.61378 0.91115 0.0
C146 C 0.43611 0.62917 0.92083 0.0
C147 C 0.45348 0.68402 0.94322 0.0
H148 H 0.84174 0.81434 0.95733 0.0
H149 H 0.86528 0.9388 0.05795 0.0
H150 H 0.77908 0.86272 0.09871 0.0
H151 H 0.64822 0.7864 0.96339 0.0
H152 H 0.64996 0.70263 0.94921 0.0
H153 H 0.72571 0.75911 0.93314 0.0
H154 H 0.82625 0.67718 0.96682 0.0
H155 H 0.74836 0.62249 0.98367 0.0
H156 H 0.81864 0.65128 0.01998 0.0
H157 H 0.66416 0.79083 0.11991 0.0
H158 H 0.55373 0.71556 0.12753 0.0
H159 H 0.60366 0.63987 0.01169 0.0
C160 C 0.83218 0.8234 -0.0112 0.0
C161 C 0.86168 0.88132 0.00504 0.0
C162 C 0.8457 0.89341 0.04563 0.0
C163 C 0.79564 0.85095 0.06865 0.0
C164 C 0.76294 0.7966 0.05057 0.0
C165 C 0.78226 0.78179 0.01187 0.0
C166 C 0.73354 0.72472 -0.00233 0.0
C167 C 0.68651 0.74452 0.95859 0.0
C168 C 0.78477 0.6654 -0.0083 0.0
C169 C 0.68126 0.71141 0.03374 0.0
C170 C 0.69959 0.75286 0.06398 0.0
C171 C 0.65358 0.75462 0.09789 0.0
C172 C 0.59125 0.70972 0.10243 0.0
C173 C 0.57614 0.66069 0.07436 0.0
C174 C 0.61864 0.66666 0.0377 0.0
H175 H 0.74565 0.16809 0.96167 0.0
H176 H 0.97047 0.25589 -0.01157 0.0
H177 H 0.9159 0.36643 0.97129 0.0
H178 H 0.70617 0.26682 0.87499 0.0
H179 H 0.60312 0.27161 0.88247 0.0
H180 H 0.65557 0.20127 0.9034 0.0
H181 H 0.60768 0.22007 0.97569 0.0
H182 H 0.55312 0.28918 0.95449 0.0
H183 H 0.62196 0.2995 -0.00436 0.0
H184 H 0.83712 0.46731 0.94356 0.0
H185 H 0.74065 0.54747 0.91448 0.0
H186 H 0.57317 0.38955 0.901 0.0
C187 C 0.78314 0.21058 0.96516 0.0
C188 C 0.86239 0.2032 0.97686 0.0
C189 C 0.90936 0.26021 0.98046 0.0
C190 C 0.8789 0.32315 0.97027 0.0
C191 C 0.80143 0.32808 0.95663 0.0
C192 C 0.75407 0.27304 0.9547 0.0
C193 C 0.67474 0.28996 0.93644 0.0
C194 C 0.65905 0.25535 0.89699 0.0
C195 C 0.61061 0.27372 0.96743 0.0
C196 C 0.68456 0.36321 0.92779 0.0
C197 C 0.7577 0.38466 0.93982 0.0
C198 C 0.77973 0.45073 0.93439 0.0
C199 C 0.72499 0.4958 0.91745 0.0
C200 C 0.64923 0.47482 0.90598 0.0
C201 C 0.62982 0.40735 0.91037 0.0
H202 H 0.86818 0.73987 0.47535 0.0
H203 H 0.63682 0.75804 0.52126 0.0
H204 H 0.66547 0.87519 0.5327 0.0
H205 H 0.95731 0.81763 0.5503 0.0
H206 H 0.03381 0.85539 0.51993 0.0
H207 H 0.98794 0.78082 0.50529 0.0
H208 H 0.95178 0.83597 0.43449 0.0
H209 H 0.99949 0.90981 0.44942 0.0
H210 H 0.89983 0.91209 0.43106 0.0
H211 H 0.73202 0.98157 0.55394 0.0
H212 H 0.82489 0.06489 0.57912 0.0
H213 H 0.01231 0.97465 0.52011 0.0
C214 C 0.82207 0.76947 0.48582 0.0
C215 C 0.74981 0.74046 0.49663 0.0
C216 C 0.69173 0.7799 0.51161 0.0
C217 C 0.70807 0.8463 0.51862 0.0
C218 C 0.78246 0.87211 0.51027 0.0
C219 C 0.83804 0.83461 0.4937 0.0
C220 C 0.91676 0.86861 0.49306 0.0
C221 C 0.97741 0.82821 0.51868 0.0
C222 C 0.94341 0.8825 0.44929 0.0
C223 C 0.89812 0.93116 0.5125 0.0
C224 C 0.82028 0.93274 0.52216 0.0
C225 C 0.79227 0.98165 0.5453 0.0
C226 C 0.84514 0.02879 0.55946 0.0
C227 C 0.9249 0.02694 0.55031 0.0
C228 C 0.95103 0.97847 0.52581 0.0
H229 H 0.70604 0.3376 0.49409 0.0
H230 H 0.81436 0.47893 0.40797 0.0
H231 H 0.88407 0.39034 0.37843 0.0
H232 H 0.86328 0.24863 0.51693 0.0
H233 H 0.8231 0.16618 0.51924 0.0
H234 H 0.76286 0.23412 0.52903 0.0
H235 H 0.66391 0.209 0.47304 0.0
H236 H 0.71802 0.13673 0.46424 0.0
H237 H 0.69641 0.19613 0.42269 0.0
H238 H 0.95673 0.2924 0.3648 0.0
H239 H 0.022 0.18538 0.36428 0.0
H240 H 0.87021 0.10392 0.45833 0.0
C241 C 0.74176 0.34907 0.46787 0.0
C242 C 0.75417 0.41487 0.45282 0.0
C243 C 0.80361 0.42869 0.41953 0.0
C244 C 0.84352 0.37873 0.40257 0.0
C245 C 0.83337 0.31481 0.41914 0.0
C246 C 0.78264 0.2992 0.45046 0.0
C247 C 0.78847 0.22695 0.46469 0.0
C248 C 0.81086 0.21843 0.51015 0.0
C249 C 0.71216 0.19002 0.45561 0.0
C250 C 0.85324 0.2059 0.43802 0.0
C251 C 0.87717 0.25736 0.41159 0.0
C252 C 0.93803 0.25142 0.38498 0.0
C253 C 0.97519 0.19102 0.38507 0.0
C254 C 0.95193 0.1377 0.41176 0.0
C255 C 0.88933 0.14475 0.43808 0.0
H256 H 0.42717 0.32844 0.48023 0.0
H257 H 0.39549 0.48116 0.56249 0.0
H258 H 0.30681 0.40744 0.60329 0.0
H259 H 0.24354 0.28028 0.4728 0.0
H260 H 0.25731 0.19323 0.47136 0.0
H261 H 0.3333 0.24966 0.45496 0.0
H262 H 0.43053 0.19326 0.50673 0.0
H263 H 0.35527 0.13502 0.52241 0.0
H264 H 0.40556 0.18184 0.55956 0.0
H265 H 0.19735 0.32818 0.62365 0.0
H266 H 0.09274 0.24344 0.62875 0.0
H267 H 0.20037 0.13912 0.53569 0.0
C268 C 0.40557 0.3446 0.50841 0.0
C269 C 0.4198 0.40964 0.51903 0.0
C270 C 0.38755 0.43072 0.5548 0.0
C271 C 0.33622 0.38935 0.57777 0.0
C272 C 0.31905 0.32684 0.5648 0.0
C273 C 0.35486 0.30374 0.53163 0.0
C274 C 0.32076 0.23777 0.52121 0.0
C275 C 0.28673 0.2405 0.47751 0.0
C276 C 0.38166 0.18376 0.52789 0.0
C277 C 0.25727 0.22891 0.55217 0.0
C278 C 0.2573 0.28054 0.57721 0.0
C279 C 0.19864 0.28647 0.60517 0.0
C280 C 0.13942 0.23817 0.60791 0.0
C281 C 0.13927 0.18445 0.58301 0.0
C282 C 0.1995 0.17966 0.55514 0.0
H283 H 0.39581 0.72137 0.39795 0.0
H284 H 0.43178 0.73478 0.52768 0.0
H285 H 0.34318 0.82973 0.52507 0.0
H286 H 0.3821 0.90055 0.371 0.0
H287 H 0.30904 0.8886 0.33206 0.0
H288 H 0.38122 0.82691 0.34384 0.0
H289 H 0.2719 0.73986 0.35665 0.0
H290 H 0.19933 0.80125 0.34561 0.0
H291 H 0.19895 0.75298 0.39347 0.0
H292 H 0.23478 0.91059 0.50951 0.0
H293 H 0.1298 0.98126 0.48173 0.0
H294 H 0.17276 0.92154 0.36069 0.0
C295 C 0.38647 0.74526 0.42572 0.0
C296 C 0.42059 0.72078 0.46314 0.0
C297 C 0.40692 0.75317 0.49874 0.0
C298 C 0.35628 0.80677 0.49748 0.0
C299 C 0.32123 0.82793 0.46027 0.0
C300 C 0.33716 0.79905 0.42486 0.0
C301 C 0.29022 0.82936 0.389 0.0
C302 C 0.34386 0.86339 0.35709 0.0
C303 C 0.23696 0.77777 0.37009 0.0
C304 C 0.24345 0.87885 0.40987 0.0
C305 C 0.26206 0.877 0.45098 0.0
C306 C 0.22207 0.91415 0.47715 0.0
C307 C 0.16286 0.95495 0.46089 0.0
C308 C 0.14441 0.96 0.41857 0.0
C309 C 0.18526 0.92051 0.39292 0.0
H310 H 0.10646 0.06887 0.15317 0.0
H311 H 0.95167 0.911 0.11986 0.0
H312 H 0.93114 0.87976 0.19336 0.0
H313 H 0.20181 0.98092 0.234 0.0
H314 H 0.21254 0.05027 0.26472 0.0
H315 H 0.2083 0.06293 0.21015 0.0
H316 H 0.09148 0.14101 0.21371 0.0
H317 H 0.09761 0.13061 0.26827 0.0
H318 H 1.00733 0.11341 0.24205 0.0
H319 H 0.93314 0.86643 0.27333 0.0
H320 H 0.9466 0.88028 0.34771 0.0
H321 H 0.10828 0.04159 0.3236 0.0
C322 C 0.06702 0.02832 0.16125 0.0
C323 C 0.02996 0.99268 0.13105 0.0
C324 C 0.9792 0.93978 0.14267 0.0
C325 C 0.96833 0.92123 0.18429 0.0
C326 C 0.00919 0.95597 0.21338 0.0
C327 C 0.0568 1.00893 0.20196 0.0
C328 C 0.096 0.03834 0.2379 0.0
C329 C 0.18491 0.03275 0.23658 0.0
C330 C 0.0716 0.11005 0.24065 0.0
C331 C 0.06312 0.99413 0.27185 0.0
C332 C 0.01312 0.94665 0.25764 0.0
C333 C 0.97283 0.90306 0.28451 0.0
C334 C 0.9814 0.91055 0.32661 0.0
C335 C 0.02991 0.96101 0.34102 0.0
C336 C 0.07302 1.00133 0.31324 0.0
H337 H 0.98197 0.14056 0.84502 0.0
H338 H 0.1763 0.01355 0.87453 0.0
H339 H 0.22351 0.0342 0.80414 0.0
H340 H 0.93413 0.08208 0.75869 0.0
H341 H 0.90528 0.15726 0.73102 0.0
H342 H 0.90176 0.15044 0.78536 0.0
H343 H 0.99123 0.25338 0.78927 0.0
H344 H 0.9943 0.26113 0.73452 0.0
H345 H 0.08339 0.25656 0.76429 0.0
H346 H 0.22881 0.04593 0.7278 0.0
H347 H 0.19252 0.04891 0.65427 0.0
H348 H 0.99355 0.16604 0.67555 0.0
C349 C 0.03661 0.11991 0.83699 0.0
C350 C 0.0764 0.07638 0.86467 0.0
C351 C 0.14632 0.04818 0.85355 0.0
C352 C 0.17329 0.05971 0.81373 0.0
C353 C 0.13003 0.10027 0.78612 0.0
C354 C 0.06375 0.13097 0.79765 0.0
C355 C 0.01984 0.16281 0.76156 0.0
C356 C 0.93538 0.1365 0.75904 0.0
C357 C 0.02239 0.23794 0.76247 0.0
C358 C 0.06783 0.14073 0.72754 0.0
C359 C 0.13266 0.10656 0.74207 0.0
C360 C 0.17984 0.07446 0.71609 0.0
C361 C 0.15905 0.07615 0.6746 0.0
C362 C 0.09142 0.10882 0.66006 0.0
C363 C 0.04668 0.14263 0.68649 0.0
H364 H 0.58723 0.46101 0.64525 0.0
H365 H 0.68716 0.6522 0.60968 0.0
H366 H 0.70597 0.67505 0.68165 0.0
H367 H 0.48106 0.51755 0.73102 0.0
H368 H 0.49564 0.44235 0.76199 0.0
H369 H 0.49159 0.44122 0.70747 0.0
H370 H 0.62585 0.38524 0.7104 0.0
H371 H 0.63139 0.38871 0.76485 0.0
H372 H 0.7078 0.42512 0.73389 0.0
H373 H 0.72204 0.67525 0.75647 0.0
H374 H 0.70132 0.66513 0.83073 0.0
H375 H 0.58237 0.47872 0.81862 0.0
C376 C 0.61119 0.50809 0.65288 0.0
C377 C 0.63531 0.55522 0.62232 0.0
C378 C 0.66766 0.61601 0.63303 0.0
C379 C 0.67964 0.62904 0.67369 0.0
C380 C 0.65828 0.58089 0.70332 0.0
C381 C 0.6224 0.52256 0.69366 0.0
C382 C 0.60044 0.48155 0.73184 0.0
C383 C 0.51193 0.47003 0.73316 0.0
C384 C 0.64399 0.41628 0.73543 0.0
C385 C 0.62884 0.5264 0.76408 0.0
C386 C 0.66414 0.5825 0.74692 0.0
C387 C 0.69389 0.63181 0.77037 0.0
C388 C 0.68242 0.62564 0.81239 0.0
C389 C 0.6396 0.57173 0.82994 0.0
C390 C 0.61613 0.52003 0.80582 0.0
H391 H 0.51646 0.64098 0.35116 0.0
H392 H 0.70749 0.50632 0.35355 0.0
H393 H 0.7187 0.52554 0.27892 0.0
H394 H 0.42306 0.57842 0.27622 0.0
H395 H 0.3833 0.65218 0.25138 0.0
H396 H 0.40807 0.64944 0.30454 0.0
H397 H 0.49897 0.75096 0.29331 0.0
H398 H 0.47311 0.75547 0.2399 0.0
H399 H 0.57379 0.75126 0.25594 0.0
H400 H 0.68967 0.53882 0.20504 0.0
H401 H 0.62136 0.54223 0.13802 0.0
H402 H 0.4403 0.65883 0.18397 0.0
C403 C 0.56353 0.61889 0.33596 0.0
C404 C 0.61295 0.57411 0.35749 0.0
C405 C 0.67125 0.54254 0.33723 0.0
C406 C 0.67769 0.5532 0.29497 0.0
C407 C 0.62478 0.59493 0.27395 0.0
C408 C 0.56898 0.62772 0.29389 0.0
C409 C 0.50876 0.65813 0.26457 0.0
C410 C 0.42601 0.63296 0.27481 0.0
C411 C 0.51402 0.73343 0.26336 0.0
C412 C 0.53576 0.63316 0.22538 0.0
C413 C 0.6045 0.59917 0.2311 0.0
C414 C 0.63704 0.56668 0.2 0.0
C415 C 0.59794 0.56843 0.16231 0.0
C416 C 0.52653 0.60114 0.15651 0.0
C417 C 0.49548 0.63441 0.18813 0.0
loop_
_geom_bond_atom_site_label_1
_geom_bond_atom_site_label_2
_geom_bond_distance
_geom_bond_site_symmetry_2
_ccdc_geom_bond_type
O0 Mn1 2.164 . S
O0 C14 1.248 1_455 S
Mn1 O0 2.164 . S
Mn1 O4 2.160 1_545 S
Mn1 O5 2.221 1_556 S
Mn1 O7 2.163 1_556 S
Mn1 O9 2.160 . S
Mn1 O19 2.221 1_445 S
O2 Mn3 2.087 . S
O2 C14 1.256 . S
Mn3 O2 2.087 . S
Mn3 O10 2.089 . S
Mn3 O19 2.290 1_545 S
Mn3 O20 2.251 1_545 S
O4 Mn1 2.160 1_565 S
O4 C15 1.239 1_556 S
O5 Mn1 2.221 1_554 S
O5 Mn6 2.290 . S
O5 C16 1.278 . S
Mn6 O5 2.290 . S
Mn6 O8 2.089 1_545 S
Mn6 O11 2.251 . S
Mn6 O12 2.087 . S
O7 Mn1 2.163 1_554 S
O7 C17 1.244 . S
O8 Mn6 2.089 1_565 S
O8 C15 1.256 . S
O9 Mn1 2.160 . S
O9 C18 1.239 . S
O10 Mn3 2.089 . S
O10 C18 1.256 1_655 S
O11 Mn6 2.251 . S
O11 C16 1.241 . S
O12 Mn6 2.087 . S
O12 C17 1.256 . S
C13 O19 1.278 1_554 S
C13 O20 1.241 1_554 S
C14 O0 1.248 1_655 S
C14 O2 1.256 . S
C15 O4 1.239 1_554 S
C15 O8 1.256 . S
C16 O5 1.278 . S
C16 O11 1.241 . S
C17 O7 1.244 . S
C17 O12 1.256 . S
C18 O9 1.239 . S
C18 O10 1.256 1_455 S
O19 Mn1 2.221 1_665 S
O19 Mn3 2.290 1_565 S
O19 C13 1.278 1_556 S
O20 Mn3 2.251 1_565 S
O20 C13 1.241 1_556 S
O21 Mn22 2.163 . S
O21 C35 1.244 . S
Mn22 O21 2.163 . S
Mn22 O25 2.160 . S
Mn22 O26 2.221 . S
Mn22 O28 2.163 . S
Mn22 O30 2.160 . S
Mn22 O40 2.221 . S
O23 Mn24 2.087 . S
O23 C35 1.256 . S
Mn24 O23 2.087 . S
Mn24 O31 2.089 . S
Mn24 O40 2.290 . S
Mn24 O41 2.251 . S
O25 Mn22 2.160 . S
O25 C36 1.239 . S
O26 Mn22 2.221 . S
O26 Mn27 2.290 . S
O26 C37 1.278 . S
Mn27 O26 2.290 . S
Mn27 O29 2.089 . S
Mn27 O32 2.251 . S
Mn27 O33 2.087 . S
O28 Mn22 2.163 . S
O28 C38 1.244 . S
O29 Mn27 2.089 . S
O29 C36 1.256 . S
O30 Mn22 2.160 . S
O30 C39 1.239 . S
O31 Mn24 2.089 . S
O31 C39 1.256 . S
O32 Mn27 2.251 . S
O32 C37 1.241 . S
O33 Mn27 2.087 . S
O33 C38 1.256 . S
C34 O40 1.278 . S
C34 O41 1.241 . S
C35 O21 1.244 . S
C35 O23 1.256 . S
C36 O25 1.239 . S
C36 O29 1.256 . S
C37 O26 1.278 . S
C37 O32 1.241 . S
C38 O28 1.244 . S
C38 O33 1.256 . S
C39 O30 1.239 . S
C39 O31 1.256 . S
O40 Mn22 2.221 . S
O40 Mn24 2.290 . S
O40 C34 1.278 . S
O41 Mn24 2.251 . S
O41 C34 1.241 . S
C42 N43 1.317 1_545 S
C42 N44 1.348 1_455 S
C42 C45 1.485 1_545 S
N43 C42 1.317 1_565 S
N43 N47 1.370 1_565 S
N44 C42 1.348 1_655 S
N44 C46 1.346 . S
C45 C42 1.485 1_565 S
C45 H49 0.960 . S
C45 H50 0.961 1_565 S
C45 H51 0.960 . S
C46 N44 1.346 . S
C46 N47 1.307 1_655 S
C46 C48 1.486 . S
N47 N43 1.370 1_545 S
N47 C46 1.307 1_455 S
C48 C46 1.486 . S
C48 H52 0.960 . S
C48 H53 0.960 . S
C48 H54 0.959 . S
H49 C45 0.960 . S
H50 C45 0.961 1_545 S
H51 C45 0.960 . S
H52 C48 0.960 . S
H53 C48 0.960 . S
H54 C48 0.959 . S
C55 N56 1.317 . S
C55 N57 1.348 1_455 S
C55 C58 1.485 . S
N56 C55 1.317 . S
N56 N60 1.370 . S
N57 C55 1.348 1_655 S
N57 C59 1.346 . S
C58 C55 1.485 . S
C58 H62 0.960 1_455 S
C58 H63 0.961 . S
C58 H64 0.960 . S
C59 N57 1.346 . S
C59 N60 1.307 1_655 S
C59 C61 1.486 . S
N60 N56 1.370 . S
N60 C59 1.307 1_455 S
C61 C59 1.486 . S
C61 H65 0.960 1_545 S
C61 H66 0.960 . S
C61 H67 0.959 . S
H62 C58 0.960 1_655 S
H63 C58 0.961 . S
H64 C58 0.960 . S
H65 C61 0.960 1_565 S
H66 C61 0.960 . S
H67 C61 0.959 . S
C68 N69 1.317 . S
C68 N70 1.348 . S
C68 C71 1.485 1_556 S
N69 C68 1.317 . S
N69 N73 1.370 . S
N70 C68 1.348 . S
N70 C72 1.346 . S
C71 C68 1.485 1_554 S
C71 H75 0.960 . S
C71 H76 0.961 . S
C71 H77 0.960 . S
C72 N70 1.346 . S
C72 N73 1.307 . S
C72 C74 1.486 . S
N73 N69 1.370 . S
N73 C72 1.307 . S
C74 C72 1.486 . S
C74 H78 0.960 . S
C74 H79 0.960 . S
C74 H80 0.959 . S
H75 C71 0.960 . S
H76 C71 0.961 . S
H77 C71 0.960 . S
H78 C74 0.960 . S
H79 C74 0.960 . S
H80 C74 0.959 . S
C81 N82 1.317 . S
C81 N83 1.348 . S
C81 C84 1.485 1_554 S
N82 C81 1.317 . S
N82 N86 1.370 . S
N83 C81 1.348 . S
N83 C85 1.346 . S
C84 C81 1.485 1_556 S
C84 H88 0.960 . S
C84 H89 0.961 . S
C84 H90 0.960 . S
C85 N83 1.346 . S
C85 N86 1.307 . S
C85 C87 1.486 . S
N86 N82 1.370 . S
N86 C85 1.307 . S
C87 C85 1.486 . S
C87 H91 0.960 . S
C87 H92 0.960 . S
C87 H93 0.959 . S
H88 C84 0.960 . S
H89 C84 0.961 . S
H90 C84 0.960 . S
H91 C87 0.960 . S
H92 C87 0.960 . S
H93 C87 0.959 . S
H94 C106 0.930 . S
H95 C108 0.930 . S
H96 C109 0.930 . S
H97 C113 0.959 . S
H98 C113 0.959 . S
H99 C113 0.961 . S
H100 C114 0.960 . S
H101 C114 0.961 . S
H102 C114 0.959 . S
H103 C117 0.929 . S
H104 C118 0.931 . S
H105 C120 0.930 1_556 S
C106 H94 0.930 . S
C106 C107 1.399 1_556 S
C106 C111 1.399 . S
C107 C106 1.399 1_554 S
C107 C108 1.376 . S
C108 H95 0.930 . S
C108 C107 1.376 . S
C108 C109 1.388 . S
C109 H96 0.930 . S
C109 C108 1.388 . S
C109 C110 1.390 . S
C110 C109 1.390 . S
C110 C111 1.394 1_554 S
C110 C116 1.465 . S
C111 C106 1.399 . S
C111 C110 1.394 1_556 S
C111 C112 1.516 . S
C112 C111 1.516 . S
C112 C113 1.502 . S
C112 C114 1.561 . S
C112 C115 1.526 1_556 S
C113 H97 0.959 . S
C113 H98 0.959 . S
C113 H99 0.961 . S
C113 C112 1.502 . S
C114 H100 0.960 . S
C114 H101 0.961 . S
C114 H102 0.959 . S
C114 C112 1.561 . S
C115 C112 1.526 1_554 S
C115 C116 1.396 . S
C115 C120 1.390 . S
C116 C110 1.465 . S
C116 C115 1.396 . S
C116 C117 1.399 . S
C117 H103 0.929 . S
C117 C116 1.399 . S
C117 C118 1.385 . S
C118 H104 0.931 . S
C118 C117 1.385 . S
C118 C119 1.389 . S
C119 C118 1.389 . S
C119 C120 1.387 . S
C120 H105 0.930 1_554 S
C120 C115 1.390 . S
C120 C119 1.387 . S
H121 C133 0.930 . S
H122 C135 0.930 . S
H123 C136 0.930 . S
H124 C140 0.936 1_556 S
H125 C140 0.964 . S
H126 C140 0.971 . S
H127 C141 0.960 . S
H128 C141 0.961 . S
H129 C141 0.959 . S
H130 C144 0.929 . S
H131 C145 0.931 . S
H132 C147 0.930 1_554 S
C133 H121 0.930 . S
C133 C134 1.399 . S
C133 C138 1.399 . S
C134 C133 1.399 . S
C134 C135 1.376 1_554 S
C135 H122 0.930 . S
C135 C134 1.376 1_556 S
C135 C136 1.388 . S
C136 H123 0.930 . S
C136 C135 1.388 . S
C136 C137 1.390 . S
C137 C136 1.390 . S
C137 C138 1.394 1_556 S
C137 C143 1.465 . S
C138 C133 1.399 . S
C138 C137 1.394 1_554 S
C138 C139 1.516 . S
C139 C138 1.516 . S
C139 C140 1.509 . S
C139 C141 1.561 . S
C139 C142 1.526 1_554 S
C140 H124 0.936 1_554 S
C140 H125 0.964 . S
C140 H126 0.971 . S
C140 C139 1.509 . S
C141 H127 0.960 . S
C141 H128 0.961 . S
C141 H129 0.959 . S
C141 C139 1.561 . S
C142 C139 1.526 1_556 S
C142 C143 1.396 . S
C142 C147 1.390 . S
C143 C137 1.465 . S
C143 C142 1.396 . S
C143 C144 1.399 . S
C144 H130 0.929 . S
C144 C143 1.399 . S
C144 C145 1.385 . S
C145 H131 0.931 . S
C145 C144 1.385 . S
C145 C146 1.389 . S
C146 C145 1.389 . S
C146 C147 1.387 . S
C147 H132 0.930 1_556 S
C147 C142 1.390 . S
C147 C146 1.387 . S
H148 C160 0.914 1_556 S
H149 C162 0.930 . S
H150 C163 0.930 . S
H151 C167 0.959 . S
H152 C167 0.959 . S
H153 C167 0.961 . S
H154 C168 0.960 . S
H155 C168 0.961 . S
H156 C168 0.959 . S
H157 C171 0.929 . S
H158 C172 0.931 . S
H159 C174 0.928 . S
C160 H148 0.914 1_554 S
C160 C161 1.410 . S
C160 C165 1.404 . S
C161 C160 1.410 . S
C161 C162 1.376 . S
C162 H149 0.930 . S
C162 C161 1.376 . S
C162 C163 1.388 . S
C163 H150 0.930 . S
C163 C162 1.388 . S
C163 C164 1.390 . S
C164 C163 1.390 . S
C164 C165 1.394 . S
C164 C170 1.465 . S
C165 C160 1.404 . S
C165 C164 1.394 . S
C165 C166 1.516 1_554 S
C166 C165 1.516 1_556 S
C166 C167 1.502 . S
C166 C168 1.561 . S
C166 C169 1.526 1_556 S
C167 H151 0.959 . S
C167 H152 0.959 . S
C167 H153 0.961 . S
C167 C166 1.502 . S
C168 H154 0.960 . S
C168 H155 0.961 . S
C168 H156 0.959 . S
C168 C166 1.561 . S
C169 C166 1.526 1_554 S
C169 C170 1.396 . S
C169 C174 1.390 . S
C170 C164 1.465 . S
C170 C169 1.396 . S
C170 C171 1.399 . S
C171 H157 0.929 . S
C171 C170 1.399 . S
C171 C172 1.385 . S
C172 H158 0.931 . S
C172 C171 1.385 . S
C172 C173 1.389 . S
C173 C172 1.389 . S
C173 C174 1.387 . S
C174 H159 0.928 . S
C174 C169 1.390 . S
C174 C173 1.387 . S
H175 C187 0.930 . S
H176 C189 0.930 . S
H177 C190 0.930 . S
H178 C194 0.959 . S
H179 C194 0.959 . S
H180 C194 0.961 . S
H181 C195 0.960 . S
H182 C195 0.961 . S
H183 C195 0.959 . S
H184 C198 0.929 . S
H185 C199 0.931 . S
H186 C201 0.930 1_554 S
C187 H175 0.930 . S
C187 C188 1.399 1_554 S
C187 C192 1.399 1_554 S
C188 C187 1.399 1_556 S
C188 C189 1.376 . S
C189 H176 0.930 . S
C189 C188 1.376 . S
C189 C190 1.388 . S
C190 H177 0.930 . S
C190 C189 1.388 . S
C190 C191 1.390 . S
C191 C190 1.390 . S
C191 C192 1.394 . S
C191 C197 1.465 . S
C192 C187 1.399 1_556 S
C192 C191 1.394 . S
C192 C193 1.516 1_556 S
C193 C192 1.516 1_554 S
C193 C194 1.502 . S
C193 C195 1.561 . S
C193 C196 1.526 1_554 S
C194 H178 0.959 . S
C194 H179 0.959 . S
C194 H180 0.961 . S
C194 C193 1.502 . S
C195 H181 0.960 . S
C195 H182 0.961 . S
C195 H183 0.959 . S
C195 C193 1.561 . S
C196 C193 1.526 1_556 S
C196 C197 1.396 . S
C196 C201 1.390 . S
C197 C191 1.465 . S
C197 C196 1.396 . S
C197 C198 1.399 . S
C198 H184 0.929 . S
C198 C197 1.399 . S
C198 C199 1.385 . S
C199 H185 0.931 . S
C199 C198 1.385 . S
C199 C200 1.389 . S
C200 C199 1.389 . S
C200 C201 1.387 . S
C201 H186 0.930 1_556 S
C201 C196 1.390 . S
C201 C200 1.387 . S
H202 C214 0.930 . S
H203 C216 0.930 . S
H204 C217 0.930 . S
H205 C221 0.959 . S
H206 C221 0.959 . S
H207 C221 0.961 . S
H208 C222 0.960 . S
H209 C222 0.961 . S
H210 C222 0.959 . S
H211 C225 0.929 . S
H212 C226 0.931 . S
H213 C228 0.930 . S
C214 H202 0.930 . S
C214 C215 1.399 . S
C214 C219 1.399 . S
C215 C214 1.399 . S
C215 C216 1.376 . S
C216 H203 0.930 . S
C216 C215 1.376 . S
C216 C217 1.388 . S
C217 H204 0.930 . S
C217 C216 1.388 . S
C217 C218 1.390 . S
C218 C217 1.390 . S
C218 C219 1.394 . S
C218 C224 1.465 . S
C219 C214 1.399 . S
C219 C218 1.394 . S
C219 C220 1.516 . S
C220 C219 1.516 . S
C220 C221 1.502 . S
C220 C222 1.561 . S
C220 C223 1.526 . S
C221 H205 0.959 . S
C221 H206 0.959 . S
C221 H207 0.961 . S
C221 C220 1.502 . S
C222 H208 0.960 . S
C222 H209 0.961 . S
C222 H210 0.959 . S
C222 C220 1.561 . S
C223 C220 1.526 . S
C223 C224 1.396 . S
C223 C228 1.390 . S
C224 C218 1.465 . S
C224 C223 1.396 . S
C224 C225 1.399 . S
C225 H211 0.929 . S
C225 C224 1.399 . S
C225 C226 1.385 1_565 S
C226 H212 0.931 . S
C226 C225 1.385 1_545 S
C226 C227 1.389 1_545 S
C227 C226 1.389 1_565 S
C227 C228 1.387 . S
C228 H213 0.930 . S
C228 C223 1.390 . S
C228 C227 1.387 . S
H229 C241 0.930 . S
H230 C243 0.930 . S
H231 C244 0.930 . S
H232 C248 0.959 . S
H233 C248 0.959 . S
H234 C248 0.961 . S
H235 C249 0.960 . S
H236 C249 0.961 . S
H237 C249 0.959 . S
H238 C252 0.929 . S
H239 C253 0.931 . S
H240 C255 0.930 . S
C241 H229 0.930 . S
C241 C242 1.399 . S
C241 C246 1.399 . S
C242 C241 1.399 . S
C242 C243 1.376 . S
C243 H230 0.930 . S
C243 C242 1.376 . S
C243 C244 1.388 . S
C244 H231 0.930 . S
C244 C243 1.388 . S
C244 C245 1.390 . S
C245 C244 1.390 . S
C245 C246 1.394 . S
C245 C251 1.465 . S
C246 C241 1.399 . S
C246 C245 1.394 . S
C246 C247 1.516 . S
C247 C246 1.516 . S
C247 C248 1.502 . S
C247 C249 1.561 . S
C247 C250 1.526 . S
C248 H232 0.959 . S
C248 H233 0.959 . S
C248 H234 0.961 . S
C248 C247 1.502 . S
C249 H235 0.960 . S
C249 H236 0.961 . S
C249 H237 0.959 . S
C249 C247 1.561 . S
C250 C247 1.526 . S
C250 C251 1.396 . S
C250 C255 1.390 . S
C251 C245 1.465 . S
C251 C250 1.396 . S
C251 C252 1.399 . S
C252 H238 0.929 . S
C252 C251 1.399 . S
C252 C253 1.385 . S
C253 H239 0.931 . S
C253 C252 1.385 . S
C253 C254 1.389 . S
C254 C253 1.389 . S
C254 C255 1.387 . S
C255 H240 0.930 . S
C255 C250 1.390 . S
C255 C254 1.387 . S
H256 C268 0.930 . S
H257 C270 0.930 . S
H258 C271 0.930 . S
H259 C275 0.959 . S
H260 C275 0.959 . S
H261 C275 0.961 . S
H262 C276 0.960 . S
H263 C276 0.961 . S
H264 C276 0.959 . S
H265 C279 0.929 . S
H266 C280 0.931 . S
H267 C282 0.930 . S
C268 H256 0.930 . S
C268 C269 1.399 . S
C268 C273 1.399 . S
C269 C268 1.399 . S
C269 C270 1.376 . S
C270 H257 0.930 . S
C270 C269 1.376 . S
C270 C271 1.388 . S
C271 H258 0.930 . S
C271 C270 1.388 . S
C271 C272 1.390 . S
C272 C271 1.390 . S
C272 C273 1.394 . S
C272 C278 1.465 . S
C273 C268 1.399 . S
C273 C272 1.394 . S
C273 C274 1.516 . S
C274 C273 1.516 . S
C274 C275 1.502 . S
C274 C276 1.561 . S
C274 C277 1.526 . S
C275 H259 0.959 . S
C275 H260 0.959 . S
C275 H261 0.961 . S
C275 C274 1.502 . S
C276 H262 0.960 . S
C276 H263 0.961 . S
C276 H264 0.959 . S
C276 C274 1.561 . S
C277 C274 1.526 . S
C277 C278 1.396 . S
C277 C282 1.390 . S
C278 C272 1.465 . S
C278 C277 1.396 . S
C278 C279 1.399 . S
C279 H265 0.929 . S
C279 C278 1.399 . S
C279 C280 1.385 . S
C280 H266 0.931 . S
C280 C279 1.385 . S
C280 C281 1.389 . S
C281 C280 1.389 . S
C281 C282 1.387 . S
C282 H267 0.930 . S
C282 C277 1.390 . S
C282 C281 1.387 . S
H283 C295 0.930 . S
H284 C297 0.930 . S
H285 C298 0.930 . S
H286 C302 0.959 . S
H287 C302 0.959 . S
H288 C302 0.961 . S
H289 C303 0.960 . S
H290 C303 0.961 . S
H291 C303 0.959 . S
H292 C306 0.929 . S
H293 C307 0.931 . S
H294 C309 0.930 . S
C295 H283 0.930 . S
C295 C296 1.399 . S
C295 C300 1.399 . S
C296 C295 1.399 . S
C296 C297 1.376 . S
C297 H284 0.930 . S
C297 C296 1.376 . S
C297 C298 1.388 . S
C298 H285 0.930 . S
C298 C297 1.388 . S
C298 C299 1.390 . S
C299 C298 1.390 . S
C299 C300 1.394 . S
C299 C305 1.465 . S
C300 C295 1.399 . S
C300 C299 1.394 . S
C300 C301 1.516 . S
C301 C300 1.516 . S
C301 C302 1.502 . S
C301 C303 1.561 . S
C301 C304 1.526 . S
C302 H286 0.959 . S
C302 H287 0.959 . S
C302 H288 0.961 . S
C302 C301 1.502 . S
C303 H289 0.960 . S
C303 H290 0.961 . S
C303 H291 0.959 . S
C303 C301 1.561 . S
C304 C301 1.526 . S
C304 C305 1.396 . S
C304 C309 1.390 . S
C305 C299 1.465 . S
C305 C304 1.396 . S
C305 C306 1.399 . S
C306 H292 0.929 . S
C306 C305 1.399 . S
C306 C307 1.385 . S
C307 H293 0.931 . S
C307 C306 1.385 . S
C307 C308 1.389 . S
C308 C307 1.389 . S
C308 C309 1.387 . S
C309 H294 0.930 . S
C309 C304 1.390 . S
C309 C308 1.387 . S
H310 C322 0.930 . S
H311 C324 0.930 . S
H312 C325 0.930 1_655 S
H313 C329 0.959 . S
H314 C329 0.959 . S
H315 C329 0.961 . S
H316 C330 0.960 . S
H317 C330 0.961 . S
H318 C330 0.959 1_655 S
H319 C333 0.929 1_655 S
H320 C334 0.931 . S
H321 C336 0.930 . S
C322 H310 0.930 . S
C322 C323 1.401 . S
C322 C327 1.399 . S
C323 C322 1.401 . S
C323 C324 1.374 1_545 S
C324 H311 0.930 . S
C324 C323 1.374 1_565 S
C324 C325 1.388 . S
C325 H312 0.930 1_455 S
C325 C324 1.388 . S
C325 C326 1.390 . S
C326 C325 1.390 . S
C326 C327 1.394 1_565 S
C326 C332 1.465 . S
C327 C322 1.399 . S
C327 C326 1.394 1_545 S
C327 C328 1.516 . S
C328 C327 1.516 . S
C328 C329 1.502 . S
C328 C330 1.561 . S
C328 C331 1.526 . S
C329 H313 0.959 . S
C329 H314 0.959 . S
C329 H315 0.961 . S
C329 C328 1.502 . S
C330 H316 0.960 . S
C330 H317 0.961 . S
C330 H318 0.959 1_455 S
C330 C328 1.561 . S
C331 C328 1.526 . S
C331 C332 1.396 1_545 S
C331 C336 1.390 . S
C332 C326 1.465 . S
C332 C331 1.396 1_565 S
C332 C333 1.399 . S
C333 H319 0.929 1_455 S
C333 C332 1.399 . S
C333 C334 1.385 . S
C334 H320 0.931 . S
C334 C333 1.385 . S
C334 C335 1.389 . S
C335 C334 1.389 . S
C335 C336 1.387 1_565 S
C336 H321 0.930 . S
C336 C331 1.390 . S
C336 C335 1.387 1_545 S
H337 C349 0.930 . S
H338 C351 0.930 1_565 S
H339 C352 0.930 1_565 S
H340 C356 0.959 . S
H341 C356 0.959 . S
H342 C356 0.961 . S
H343 C357 0.960 . S
H344 C357 0.961 . S
H345 C357 0.959 . S
H346 C360 0.929 1_565 S
H347 C361 0.931 . S
H348 C363 0.930 1_655 S
C349 H337 0.930 . S
C349 C350 1.399 . S
C349 C354 1.399 . S
C350 C349 1.399 . S
C350 C351 1.376 . S
C351 H338 0.930 1_545 S
C351 C350 1.376 . S
C351 C352 1.388 . S
C352 H339 0.930 1_545 S
C352 C351 1.388 . S
C352 C353 1.390 . S
C353 C352 1.390 . S
C353 C354 1.394 . S
C353 C359 1.465 . S
C354 C349 1.399 . S
C354 C353 1.394 . S
C354 C355 1.516 . S
C355 C354 1.516 . S
C355 C356 1.502 1_455 S
C355 C357 1.561 . S
C355 C358 1.526 . S
C356 H340 0.959 . S
C356 H341 0.959 . S
C356 H342 0.961 . S
C356 C355 1.502 1_655 S
C357 H343 0.960 . S
C357 H344 0.961 . S
C357 H345 0.959 . S
C357 C355 1.561 . S
C358 C355 1.526 . S
C358 C359 1.396 . S
C358 C363 1.390 . S
C359 C353 1.465 . S
C359 C358 1.396 . S
C359 C360 1.399 . S
C360 H346 0.929 1_545 S
C360 C359 1.399 . S
C360 C361 1.385 . S
C361 H347 0.931 . S
C361 C360 1.385 . S
C361 C362 1.389 . S
C362 C361 1.389 . S
C362 C363 1.387 . S
C363 H348 0.930 1_455 S
C363 C358 1.390 . S
C363 C362 1.387 . S
H364 C376 0.930 . S
H365 C378 0.930 . S
H366 C379 0.930 . S
H367 C383 0.959 . S
H368 C383 0.959 . S
H369 C383 0.961 . S
H370 C384 0.960 . S
H371 C384 0.961 . S
H372 C384 0.959 . S
H373 C387 0.929 . S
H374 C388 0.931 . S
H375 C390 0.930 . S
C376 H364 0.930 . S
C376 C377 1.399 . S
C376 C381 1.399 . S
C377 C376 1.399 . S
C377 C378 1.376 . S
C378 H365 0.930 . S
C378 C377 1.376 . S
C378 C379 1.388 . S
C379 H366 0.930 . S
C379 C378 1.388 . S
C379 C380 1.390 . S
C380 C379 1.390 . S
C380 C381 1.394 . S
C380 C386 1.465 . S
C381 C376 1.399 . S
C381 C380 1.394 . S
C381 C382 1.516 . S
C382 C381 1.516 . S
C382 C383 1.502 . S
C382 C384 1.561 . S
C382 C385 1.526 . S
C383 H367 0.959 . S
C383 H368 0.959 . S
C383 H369 0.961 . S
C383 C382 1.502 . S
C384 H370 0.960 . S
C384 H371 0.961 . S
C384 H372 0.959 . S
C384 C382 1.561 . S
C385 C382 1.526 . S
C385 C386 1.396 . S
C385 C390 1.390 . S
C386 C380 1.465 . S
C386 C385 1.396 . S
C386 C387 1.399 . S
C387 H373 0.929 . S
C387 C386 1.399 . S
C387 C388 1.385 . S
C388 H374 0.931 . S
C388 C387 1.385 . S
C388 C389 1.389 . S
C389 C388 1.389 . S
C389 C390 1.387 . S
C390 H375 0.930 . S
C390 C385 1.390 . S
C390 C389 1.387 . S
H391 C403 0.930 . S
H392 C405 0.930 . S
H393 C406 0.930 . S
H394 C410 0.959 . S
H395 C410 0.959 . S
H396 C410 0.961 . S
H397 C411 0.960 . S
H398 C411 0.961 . S
H399 C411 0.959 . S
H400 C414 0.929 . S
H401 C415 0.931 . S
H402 C417 0.930 . S
C403 H391 0.930 . S
C403 C404 1.399 . S
C403 C408 1.399 . S
C404 C403 1.399 . S
C404 C405 1.376 . S
C405 H392 0.930 . S
C405 C404 1.376 . S
C405 C406 1.388 . S
C406 H393 0.930 . S
C406 C405 1.388 . S
C406 C407 1.390 . S
C407 C406 1.390 . S
C407 C408 1.394 . S
C407 C413 1.465 . S
C408 C403 1.399 . S
C408 C407 1.394 . S
C408 C409 1.516 . S
C409 C408 1.516 . S
C409 C410 1.502 . S
C409 C411 1.561 . S
C409 C412 1.526 . S
C410 H394 0.959 . S
C410 H395 0.959 . S
C410 H396 0.961 . S
C410 C409 1.502 . S
C411 H397 0.960 . S
C411 H398 0.961 . S
C411 H399 0.959 . S
C411 C409 1.561 . S
C412 C409 1.526 . S
C412 C413 1.396 . S
C412 C417 1.390 . S
C413 C407 1.465 . S
C413 C412 1.396 . S
C413 C414 1.399 . S
C414 H400 0.929 . S
C414 C413 1.399 . S
C414 C415 1.385 . S
C415 H401 0.931 . S
C415 C414 1.385 . S
C415 C416 1.389 . S
C416 C415 1.389 . S
C416 C417 1.387 . S
C417 H402 0.930 . S
C417 C412 1.390 . S
C417 C416 1.387 . S
C119 N83 1.356 . S
C107 C16 1.195 . S
C134 C15 1.455 . S
C146 N70 1.429 . S
C161 C13 1.390 . S
C173 N82 1.522 . S
C188 C14 1.425 . S
C200 N69 1.464 . S
C215 C37 1.282 . S
C227 N57 1.402 1_565 S
C242 C36 1.446 . S
C254 N44 1.404 . S
C281 N56 1.535 . S
C269 C34 1.243 . S
C308 N43 1.474 . S
C296 C35 1.385 . S
C323 C17 1.587 . S
C335 N47 1.591 1_565 S
C350 C18 1.428 . S
C362 N60 1.419 . S
C389 N73 1.564 . S
C377 C38 1.513 . S
C404 C39 1.431 . S
C416 N86 1.421 . S
