# Generated by pormake.
# Topology dag, (6,3)-cn, num edge types: 1
# Building blocks:
#     Node 0, Type 0, BuildingBlock: MIDCAF_clean_sbu_0, # of connection points: 6
#     Node 1, Type 0, BuildingBlock: MIDCAF_clean_sbu_0, # of connection points: 6
#     Node 2, Type 0, BuildingBlock: MIDCAF_clean_sbu_0, # of connection points: 6
#     Node 3, Type 0, BuildingBlock: MIDCAF_clean_sbu_0, # of connection points: 6
#     Node 4, Type 1, BuildingBlock: MIDCAF_clean_linker_0, # of connection points: 3
#     Node 5, Type 1, BuildingBlock: MIDCAF_clean_linker_0, # of connection points: 3
#     Node 6, Type 1, BuildingBlock: MIDCAF_clean_linker_0, # of connection points: 3
#     Node 7, Type 1, BuildingBlock: MIDCAF_clean_linker_0, # of connection points: 3
#     Node 8, Type 1, BuildingBlock: MIDCAF_clean_linker_0, # of connection points: 3
#     Node 9, Type 1, BuildingBlock: MIDCAF_clean_linker_0, # of connection points: 3
#     Node 10, Type 1, BuildingBlock: MIDCAF_clean_linker_0, # of connection points: 3
#     Node 11, Type 1, BuildingBlock: MIDCAF_clean_linker_0, # of connection points: 3
#     Edge 12, Type (0, 1), BuildingBlock: XIVTED_clean_linker_0, # of connection points: 2
#     Edge 13, Type (0, 1), BuildingBlock: XIVTED_clean_linker_0, # of connection points: 2
#     Edge 14, Type (0, 1), BuildingBlock: XIVTED_clean_linker_0, # of connection points: 2
#     Edge 15, Type (0, 1), BuildingBlock: XIVTED_clean_linker_0, # of connection points: 2
#     Edge 16, Type (0, 1), BuildingBlock: XIVTED_clean_linker_0, # of connection points: 2
#     Edge 17, Type (0, 1), BuildingBlock: XIVTED_clean_linker_0, # of connection points: 2
#     Edge 18, Type (0, 1), BuildingBlock: XIVTED_clean_linker_0, # of connection points: 2
#     Edge 19, Type (0, 1), BuildingBlock: XIVTED_clean_linker_0, # of connection points: 2
#     Edge 20, Type (0, 1), BuildingBlock: XIVTED_clean_linker_0, # of connection points: 2
#     Edge 21, Type (0, 1), BuildingBlock: XIVTED_clean_linker_0, # of connection points: 2
#     Edge 22, Type (0, 1), BuildingBlock: XIVTED_clean_linker_0, # of connection points: 2
#     Edge 23, Type (0, 1), BuildingBlock: XIVTED_clean_linker_0, # of connection points: 2
#     Edge 24, Type (0, 1), BuildingBlock: XIVTED_clean_linker_0, # of connection points: 2
#     Edge 25, Type (0, 1), BuildingBlock: XIVTED_clean_linker_0, # of connection points: 2
#     Edge 26, Type (0, 1), BuildingBlock: XIVTED_clean_linker_0, # of connection points: 2
#     Edge 27, Type (0, 1), BuildingBlock: XIVTED_clean_linker_0, # of connection points: 2
#     Edge 28, Type (0, 1), BuildingBlock: XIVTED_clean_linker_0, # of connection points: 2
#     Edge 29, Type (0, 1), BuildingBlock: XIVTED_clean_linker_0, # of connection points: 2
#     Edge 30, Type (0, 1), BuildingBlock: XIVTED_clean_linker_0, # of connection points: 2
#     Edge 31, Type (0, 1), BuildingBlock: XIVTED_clean_linker_0, # of connection points: 2
#     Edge 32, Type (0, 1), BuildingBlock: XIVTED_clean_linker_0, # of connection points: 2
#     Edge 33, Type (0, 1), BuildingBlock: XIVTED_clean_linker_0, # of connection points: 2
#     Edge 34, Type (0, 1), BuildingBlock: XIVTED_clean_linker_0, # of connection points: 2
#     Edge 35, Type (0, 1), BuildingBlock: XIVTED_clean_linker_0, # of connection points: 2
# Relax obj value: 0.310
# Max RMSD: 0.192
# Mean RMSD: 0.181
data_MOF--net-dag--node1-MIDCAF_clean_sbu_0--node2-MIDCAF_clean_linker_0--edge1-XIVTED_clean_linker_0
_symmetry_space_group_name_H-M    P1
_symmetry_Int_Tables_number       1
_symmetry_cell_setting            triclinic
loop_
_symmetry_equiv_pos_as_xyz
'x, y, z'
_cell_length_a     48.023246
_cell_length_b     49.2323
_cell_length_c     36.501359
_cell_angle_alpha  86.131026
_cell_angle_beta   90.004273
_cell_angle_gamma 90.000669
loop_
_atom_site_label
_atom_site_type_symbol
_atom_site_fract_x
_atom_site_fract_y
_atom_site_fract_z
_atom_type_partial_charge
Zn0 Zn 0.25452 0.84969 0.04866 0.0
Zn1 Zn 0.21879 0.87416 0.93457 0.0
Zn2 Zn 0.2293 0.85441 0.99162 0.0
C3 C 0.19194 0.90255 0.9821 0.0
C4 C 0.19052 0.82363 0.94837 0.0
O5 O 0.24108 0.81185 0.98874 0.0
O6 O 0.27049 0.81377 0.0353 0.0
C7 C 0.27331 0.89709 0.00594 0.0
O8 O 0.19107 0.87789 0.99607 0.0
O9 O 0.21031 0.90907 0.95818 0.0
O10 O 0.1859 0.84728 0.93377 0.0
O11 O 0.21377 0.81913 0.96545 0.0
O12 O 0.27478 0.88545 0.0379 0.0
O13 O 0.25863 0.88641 0.98167 0.0
O14 O 0.19496 0.85744 0.02927 0.0
O15 O 0.2194 0.84859 0.0797 0.0
C16 C 0.19604 0.8528 0.0642 0.0
O17 O 0.24318 0.82694 0.94906 0.0
O18 O 0.25489 0.86194 0.91175 0.0
C19 C 0.25977 0.8007 0.0101 0.0
C20 C 0.25624 0.83655 0.9202 0.0
Zn21 Zn 0.70496 0.67583 0.50717 0.0
Zn22 Zn 0.66821 0.69311 0.63876 0.0
Zn23 Zn 0.68678 0.68273 0.5731 0.0
C24 C 0.67769 0.63743 0.64053 0.0
C25 C 0.626 0.70828 0.58861 0.0
O26 O 0.72668 0.70565 0.56449 0.0
O27 O 0.7399 0.69623 0.50863 0.0
C28 C 0.70459 0.6245 0.54628 0.0
O29 O 0.68401 0.644 0.60678 0.0
O30 O 0.67136 0.65552 0.66201 0.0
O31 O 0.63117 0.7063 0.62259 0.0
O32 O 0.64432 0.70063 0.56556 0.0
O33 O 0.7087 0.63582 0.51468 0.0
O34 O 0.6965 0.63872 0.57269 0.0
O35 O 0.65361 0.69125 0.53111 0.0
O36 O 0.67332 0.68928 0.47651 0.0
C37 C 0.65188 0.69249 0.4957 0.0
O38 O 0.71515 0.71279 0.59757 0.0
O39 O 0.6954 0.721 0.65055 0.0
C40 C 0.74455 0.70747 0.53805 0.0
C41 C 0.71457 0.72553 0.62735 0.0
Zn42 Zn 0.76161 0.16149 0.04835 0.0
Zn43 Zn 0.83572 0.1903 0.14289 0.0
Zn44 Zn 0.80082 0.17688 0.09168 0.0
C45 C 0.86302 0.20022 0.07616 0.0
C46 C 0.82238 0.13511 0.15663 0.0
O47 O 0.76238 0.20149 0.09745 0.0
O48 O 0.72936 0.18111 0.06725 0.0
C49 C 0.80606 0.18756 0.00602 0.0
O50 O 0.83954 0.19209 0.06369 0.0
O51 O 0.86673 0.20144 0.11021 0.0
O52 O 0.83654 0.15368 0.17 0.0
O53 O 0.80864 0.14005 0.12665 0.0
O54 O 0.78162 0.17816 0.00396 0.0
O55 O 0.81803 0.18837 0.03749 0.0
O56 O 0.79694 0.13139 0.09355 0.0
O57 O 0.76351 0.1214 0.05511 0.0
C58 C 0.78277 0.11364 0.07685 0.0
O59 O 0.78037 0.206 0.12777 0.0
O60 O 0.81389 0.21899 0.16423 0.0
C61 C 0.73679 0.19988 0.08701 0.0
C62 C 0.78891 0.22054 0.15366 0.0
Zn63 Zn 0.27367 0.30334 0.59661 0.0
Zn64 Zn 0.31476 0.30308 0.46166 0.0
Zn65 Zn 0.29229 0.30467 0.52673 0.0
C66 C 0.35799 0.29507 0.50964 0.0
C67 C 0.29035 0.35394 0.46488 0.0
O68 O 0.2569 0.27592 0.53079 0.0
O69 O 0.24058 0.28088 0.58677 0.0
C70 C 0.32822 0.28876 0.6021 0.0
O71 O 0.33708 0.29417 0.53181 0.0
O72 O 0.35452 0.30129 0.47587 0.0
O73 O 0.29954 0.33849 0.44145 0.0
O74 O 0.28755 0.34527 0.49875 0.0
O75 O 0.30715 0.28742 0.62284 0.0
O76 O 0.32548 0.29511 0.56742 0.0
O77 O 0.27835 0.34666 0.53545 0.0
O78 O 0.26924 0.34376 0.59508 0.0
C79 C 0.27136 0.35792 0.565 0.0
O80 O 0.26943 0.2735 0.49659 0.0
O81 O 0.29658 0.26929 0.44832 0.0
C82 C 0.23863 0.2706 0.55609 0.0
C83 C 0.27567 0.26164 0.46722 0.0
C84 C 0.07763 0.17126 0.03584 0.0
C85 C 0.05959 0.18802 0.05456 0.0
C86 C 0.06846 0.19773 0.08801 0.0
C87 C 0.09434 0.19022 0.10294 0.0
H88 H 0.15178 0.20194 0.19209 0.0
H89 H 0.1641 0.2113 0.25481 0.0
H90 H 0.2088 0.13492 0.26672 0.0
H91 H 0.19786 0.12656 0.20353 0.0
H92 H 0.23487 0.12617 0.11429 0.0
H93 H 0.26467 0.09396 0.08513 0.0
H94 H 0.19697 0.07507 0.01294 0.0
H95 H 0.16775 0.1082 0.04092 0.0
H96 H 0.11673 0.15045 0.03583 0.0
H97 H 0.07153 0.16363 0.00988 0.0
H98 H 0.05495 0.21035 0.10348 0.0
H99 H 0.10011 0.19764 0.12915 0.0
N100 N 0.14471 0.16874 0.13725 0.0
N101 N 0.18571 0.14302 0.1351 0.0
N102 N 0.15629 0.14731 0.08378 0.0
C103 C 0.16817 0.15864 0.15394 0.0
C104 C 0.18003 0.13742 0.09994 0.0
C105 C 0.13857 0.16311 0.10214 0.0
C106 C 0.17421 0.16374 0.19268 0.0
C107 C 0.1642 0.18718 0.20823 0.0
C108 C 0.17109 0.19239 0.24439 0.0
C109 C 0.18771 0.17401 0.26608 0.0
C110 C 0.19665 0.14999 0.25077 0.0
C111 C 0.19028 0.1451 0.21447 0.0
C112 C 0.19883 0.11953 0.08022 0.0
C113 C 0.22647 0.11535 0.0919 0.0
C114 C 0.24354 0.09677 0.07522 0.0
C115 C 0.23325 0.08156 0.04686 0.0
C116 C 0.20589 0.0866 0.03427 0.0
C117 C 0.18897 0.1055 0.05057 0.0
C118 C 0.11207 0.1728 0.08481 0.0
C119 C 0.10361 0.16381 0.05071 0.0
C120 C 0.30925 0.57278 0.54028 0.0
C121 C 0.2901 0.56035 0.56526 0.0
C122 C 0.27913 0.57572 0.59297 0.0
C123 C 0.28787 0.60249 0.59654 0.0
H124 H 0.28043 0.66676 0.66618 0.0
H125 H 0.26903 0.69098 0.72074 0.0
H126 H 0.33113 0.75168 0.68945 0.0
H127 H 0.34174 0.72845 0.63515 0.0
H128 H 0.36459 0.73152 0.55149 0.0
H129 H 0.41068 0.74921 0.5357 0.0
H130 H 0.4378 0.66857 0.5126 0.0
H131 H 0.39144 0.6507 0.52835 0.0
H132 H 0.33343 0.60822 0.52474 0.0
H133 H 0.31826 0.56145 0.51878 0.0
H134 H 0.264 0.5669 0.61232 0.0
H135 H 0.27929 0.61342 0.61871 0.0
N136 N 0.30937 0.65622 0.6069 0.0
N137 N 0.34022 0.69176 0.59077 0.0
N138 N 0.33956 0.6533 0.55643 0.0
C139 C 0.32006 0.68103 0.6133 0.0
C140 C 0.35008 0.67826 0.56237 0.0
C141 C 0.31882 0.6423 0.57828 0.0
C142 C 0.31188 0.69566 0.64598 0.0
C143 C 0.29143 0.68541 0.67085 0.0
C144 C 0.28505 0.69917 0.70228 0.0
C145 C 0.299 0.72342 0.70942 0.0
C146 C 0.31946 0.73345 0.68455 0.0
C147 C 0.32568 0.71992 0.6533 0.0
C148 C 0.37462 0.68959 0.54207 0.0
C149 C 0.38009 0.71765 0.54194 0.0
C150 C 0.40646 0.72784 0.53281 0.0
C151 C 0.42793 0.71019 0.52365 0.0
C152 C 0.4216 0.68265 0.51952 0.0
C153 C 0.39506 0.6724 0.52864 0.0
C154 C 0.3079 0.61462 0.57253 0.0
C155 C 0.31809 0.59958 0.54391 0.0
C156 C 0.89073 0.83289 0.43238 0.0
C157 C 0.90231 0.80763 0.44443 0.0
C158 C 0.92486 0.79764 0.42448 0.0
C159 C 0.93381 0.81138 0.39164 0.0
H160 H -0.00125 0.8237 0.30474 0.0
H161 H 0.03981 0.81752 0.26645 0.0
H162 H 0.99766 0.85879 0.17405 0.0
H163 H 0.95682 0.86417 0.21147 0.0
H164 H 0.90545 0.90063 0.22176 0.0
H165 H 0.87838 0.9406 0.20074 0.0
H166 H 0.84616 0.94642 0.31034 0.0
H167 H 0.87309 0.9065 0.33159 0.0
H168 H 0.8894 0.86549 0.39123 0.0
H169 H 0.87321 0.84137 0.44634 0.0
H170 H 0.93483 0.7786 0.43331 0.0
H171 H 0.95013 0.80243 0.3759 0.0
N172 N 0.94741 0.84014 0.31971 0.0
N173 N 0.93216 0.87066 0.27152 0.0
N174 N 0.90785 0.8673 0.32688 0.0
C175 C 0.95062 0.85153 0.28479 0.0
C176 C 0.91075 0.87863 0.29235 0.0
C177 C 0.92584 0.84806 0.34089 0.0
C178 C 0.97455 0.84468 0.26139 0.0
C179 C 0.99814 0.83101 0.2761 0.0
C180 C 0.02174 0.82767 0.25421 0.0
C181 C 0.02215 0.83782 0.21718 0.0
C182 C 0.99809 0.85041 0.20225 0.0
C183 C 0.97465 0.85374 0.22398 0.0
C184 C 0.89179 0.90062 0.27847 0.0
C185 C 0.8923 0.91016 0.2413 0.0
C186 C 0.87661 0.93288 0.22916 0.0
C187 C 0.86036 0.94658 0.25403 0.0
C188 C 0.85872 0.93626 0.29073 0.0
C189 C 0.87415 0.9134 0.30282 0.0
C190 C 0.92054 0.8355 0.37834 0.0
C191 C 0.89982 0.84666 0.40006 0.0
C192 C 0.62741 0.35013 0.94275 0.0
C193 C 0.62182 0.32378 0.95828 0.0
C194 C 0.60635 0.3059 0.93763 0.0
C195 C 0.59792 0.31367 0.90182 0.0
H196 H 0.57508 0.33052 0.71785 0.0
H197 H 0.53747 0.31177 0.68273 0.0
H198 H 0.49145 0.29326 0.78316 0.0
H199 H 0.52976 0.31093 0.81837 0.0
H200 H 0.59532 0.39841 0.72462 0.0
H201 H 0.61446 0.4402 0.69599 0.0
H202 H 0.67163 0.44521 0.78679 0.0
H203 H 0.6517 0.40383 0.81622 0.0
H204 H 0.62465 0.37799 0.89533 0.0
H205 H 0.63878 0.36464 0.95802 0.0
H206 H 0.60197 0.28528 0.94829 0.0
H207 H 0.58697 0.299 0.88634 0.0
N208 N 0.5807 0.33154 0.82754 0.0
N209 N 0.58983 0.35879 0.77367 0.0
N210 N 0.61259 0.36766 0.82829 0.0
C211 C 0.57611 0.33758 0.79114 0.0
C212 C 0.60808 0.37394 0.79199 0.0
C213 C 0.59907 0.34648 0.84626 0.0
C214 C 0.55516 0.32256 0.7708 0.0
C215 C 0.55711 0.32203 0.73246 0.0
C216 C 0.53547 0.31139 0.71232 0.0
C217 C 0.51111 0.30151 0.72997 0.0
C218 C 0.50993 0.30052 0.76859 0.0
C219 C 0.53184 0.31078 0.78883 0.0
C220 C 0.62172 0.39791 0.77298 0.0
C221 C 0.61215 0.40824 0.7384 0.0
C222 C 0.62331 0.43218 0.72178 0.0
C223 C 0.64451 0.44625 0.73914 0.0
C224 C 0.65493 0.43523 0.77298 0.0
C225 C 0.64358 0.41141 0.7898 0.0
C226 C 0.60502 0.33941 0.88559 0.0
C227 C 0.61925 0.3578 0.90677 0.0
C228 C 0.57524 0.30257 0.58404 0.0
C229 C 0.55906 0.28527 0.56355 0.0
C230 C 0.57157 0.27274 0.53422 0.0
C231 C 0.59882 0.2793 0.52354 0.0
H232 H 0.66284 0.26682 0.44327 0.0
H233 H 0.67793 0.25532 0.38235 0.0
H234 H 0.71491 0.33519 0.36423 0.0
H235 H 0.70113 0.34602 0.42539 0.0
H236 H 0.7244 0.36914 0.50591 0.0
H237 H 0.73938 0.41433 0.52062 0.0
H238 H 0.66725 0.42125 0.59005 0.0
H239 H 0.65254 0.37569 0.57611 0.0
H240 H 0.6138 0.32369 0.58867 0.0
H241 H 0.56631 0.31217 0.60717 0.0
H242 H 0.55966 0.25944 0.51771 0.0
H243 H 0.60717 0.27048 0.49947 0.0
N244 N 0.65011 0.30175 0.49347 0.0
N245 N 0.6845 0.33558 0.4922 0.0
N246 N 0.65302 0.33125 0.54124 0.0
C247 C 0.67215 0.31446 0.47642 0.0
C248 C 0.67523 0.34399 0.52471 0.0
C249 C 0.64046 0.30997 0.52601 0.0
C250 C 0.68109 0.30719 0.43944 0.0
C251 C 0.6743 0.28184 0.42625 0.0
C252 C 0.68274 0.27536 0.39113 0.0
C253 C 0.69783 0.29424 0.3682 0.0
C254 C 0.70398 0.31981 0.38126 0.0
C255 C 0.69597 0.32609 0.41645 0.0
C256 C 0.68694 0.36901 0.53916 0.0
C257 C 0.71198 0.38004 0.52487 0.0
C258 C 0.72056 0.40598 0.53327 0.0
C259 C 0.70419 0.42162 0.55587 0.0
C260 C 0.68037 0.40973 0.57261 0.0
C261 C 0.67186 0.38363 0.56441 0.0
C262 C 0.61414 0.29858 0.54193 0.0
C263 C 0.6025 0.30914 0.57339 0.0
C264 C 0.10108 0.13093 0.66034 0.0
C265 C 0.08921 0.14858 0.63268 0.0
C266 C 0.06018 0.15254 0.6328 0.0
C267 C 0.04375 0.14059 0.6611 0.0
H268 H 0.9869 0.17105 0.74743 0.0
H269 H 0.94868 0.19543 0.77547 0.0
H270 H 0.91657 0.11898 0.82286 0.0
H271 H 0.95459 0.09487 0.79537 0.0
H272 H 0.00698 0.05633 0.83188 0.0
H273 H 0.02732 0.02654 0.88098 0.0
H274 H 0.10846 0.03778 0.83134 0.0
H275 H 0.08831 0.06757 0.78228 0.0
H276 H 0.09465 0.10606 0.70992 0.0
H277 H 0.12336 0.12762 0.66157 0.0
H278 H 0.05019 0.1655 0.61154 0.0
H279 H 0.0216 0.14477 0.66091 0.0
N280 N 0.01421 0.1256 0.72897 0.0
N281 N 0.00934 0.09645 0.78208 0.0
N282 N 0.04907 0.09356 0.7454 0.0
C283 C -0.00076 0.11688 0.75906 0.0
C284 C 0.03423 0.08473 0.7756 0.0
C285 C 0.03901 0.11372 0.72166 0.0
C286 C 0.97371 0.13111 0.76944 0.0
C287 C 0.97121 0.15949 0.76305 0.0
C288 C 0.94952 0.17344 0.77927 0.0
C289 C 0.92972 0.15911 0.80137 0.0
C290 C 0.93132 0.13057 0.80566 0.0
C291 C 0.95318 0.11676 0.79009 0.0
C292 C 0.04605 0.06449 0.80321 0.0
C293 C 0.02914 0.05231 0.83126 0.0
C294 C 0.04073 0.0352 0.85936 0.0
C295 C 0.06948 0.03018 0.86022 0.0
C296 C 0.08626 0.04171 0.83169 0.0
C297 C 0.07467 0.05857 0.80338 0.0
C298 C 0.05587 0.12407 0.68969 0.0
C299 C 0.08459 0.11871 0.68837 0.0
C300 C 0.36915 0.67218 0.15925 0.0
C301 C 0.349 0.65748 0.14069 0.0
C302 C 0.33982 0.63236 0.15682 0.0
C303 C 0.34928 0.62294 0.19152 0.0
H304 H 0.31468 0.58301 0.28368 0.0
H305 H 0.28768 0.54681 0.3156 0.0
H306 H 0.34984 0.53987 0.40141 0.0
H307 H 0.37623 0.57644 0.37035 0.0
H308 H 0.43222 0.60577 0.35895 0.0
H309 H 0.47222 0.62141 0.39166 0.0
H310 H 0.47563 0.69414 0.31849 0.0
H311 H 0.43563 0.67778 0.28452 0.0
H312 H 0.39354 0.67491 0.20803 0.0
H313 H 0.37645 0.69179 0.1479 0.0
H314 H 0.32475 0.62025 0.14302 0.0
H315 H 0.34116 0.60382 0.20347 0.0
N316 N 0.35937 0.6112 0.26842 0.0
N317 N 0.38854 0.61263 0.31942 0.0
N318 N 0.39883 0.63955 0.26562 0.0
C319 C 0.36547 0.6028 0.30361 0.0
C320 C 0.40532 0.63094 0.30083 0.0
C321 C 0.37589 0.62947 0.24918 0.0
C322 C 0.34783 0.58241 0.32418 0.0
C323 C 0.32241 0.57397 0.30958 0.0
C324 C 0.30693 0.55319 0.32785 0.0
C325 C 0.31664 0.5403 0.36096 0.0
C326 C 0.34145 0.54958 0.37628 0.0
C327 C 0.3568 0.57044 0.35819 0.0
C328 C 0.43053 0.64066 0.31928 0.0
C329 C 0.44138 0.62515 0.34972 0.0
C330 C 0.46429 0.63425 0.36875 0.0
C331 C 0.4769 0.65933 0.35826 0.0
C332 C 0.46648 0.67468 0.32728 0.0
C333 C 0.44355 0.66536 0.30785 0.0
C334 C 0.36835 0.6383 0.21087 0.0
C335 C 0.37882 0.66262 0.1939 0.0
C336 C 0.86866 0.91821 0.01793 0.0
C337 C 0.84439 0.93248 0.00684 0.0
C338 C 0.83022 0.92475 0.97544 0.0
C339 C 0.84043 0.90381 0.95513 0.0
H340 H 0.82176 0.85414 0.86705 0.0
H341 H 0.79908 0.84 0.8117 0.0
H342 H 0.87742 0.80851 0.7745 0.0
H343 H 0.89978 0.82174 0.83023 0.0
H344 H 0.95127 0.82013 0.88184 0.0
H345 H 0.99731 0.80232 0.89481 0.0
H346 H 0.98419 0.81076 0.01082 0.0
H347 H 0.93833 0.83031 0.99719 0.0
H348 H 0.89787 0.88702 0.00675 0.0
H349 H 0.8799 0.92335 0.04223 0.0
H350 H 0.81168 0.9355 0.96576 0.0
H351 H 0.8292 0.8989 0.9307 0.0
N352 N 0.86434 0.86324 0.91057 0.0
N353 N 0.90085 0.83379 0.89777 0.0
N354 N 0.90181 0.85699 0.95173 0.0
C355 C 0.87613 0.8455 0.88813 0.0
C356 C 0.91374 0.83923 0.92949 0.0
C357 C 0.87712 0.86921 0.9424 0.0
C358 C 0.86252 0.83883 0.85335 0.0
C359 C 0.83417 0.84436 0.84694 0.0
C360 C 0.82121 0.83638 0.81502 0.0
C361 C 0.83636 0.82292 0.78857 0.0
C362 C 0.86493 0.81827 0.79452 0.0
C363 C 0.87779 0.82599 0.82652 0.0
C364 C 0.94119 0.82682 0.93846 0.0
C365 C 0.95809 0.81803 0.91019 0.0
C366 C 0.98455 0.80745 0.91777 0.0
C367 C 0.99475 0.8048 0.95401 0.0
C368 C 0.9774 0.81284 0.9825 0.0
C369 C 0.95103 0.82399 0.97476 0.0
C370 C 0.86512 0.89002 0.96561 0.0
C371 C 0.87888 0.89724 0.99761 0.0
H372 H 0.30686 0.9254 0.05037 0.0
H373 H 0.23504 0.06361 0.9767 0.0
H374 H 0.25989 0.93468 0.94951 0.0
H375 H 0.26918 0.04694 0.08542 0.0
H376 H 0.25579 0.02126 0.95821 0.0
H377 H 0.3069 0.97468 0.05337 0.0
C378 C 0.29721 0.93782 0.02825 0.0
C379 C 0.28245 0.9258 1.00036 0.0
C380 C 0.25916 0.02723 0.98588 0.0
C381 C 0.28185 0.98225 0.00415 0.0
C382 C 0.24713 0.05131 0.99661 0.0
C383 C 0.24979 0.05875 0.03298 0.0
C384 C 0.27408 0.0105 0.01164 0.0
C385 C 0.26648 0.04231 0.0571 0.0
C386 C 0.29706 0.966 0.03014 0.0
C387 C 0.27085 0.943 0.97209 0.0
N388 N 0.27762 0.01886 0.04613 0.0
N389 N 0.27011 0.97037 0.97523 0.0
H390 H 0.57916 0.70466 0.62992 0.0
H391 H 0.47176 0.70283 0.47604 0.0
H392 H 0.60794 0.73232 0.52187 0.0
H393 H 0.45107 0.73674 0.57858 0.0
H394 H 0.52149 0.71115 0.48867 0.0
H395 H 0.53151 0.7133 0.61021 0.0
C396 C 0.57551 0.71262 0.60194 0.0
C397 C 0.59755 0.71659 0.57692 0.0
C398 C 0.50584 0.71712 0.50785 0.0
C399 C 0.54275 0.72613 0.5541 0.0
C400 C 0.47763 0.71241 0.50076 0.0
C401 C 0.45732 0.71905 0.52637 0.0
C402 C 0.5136 0.72738 0.5413 0.0
C403 C 0.46598 0.73144 0.55798 0.0
C404 C 0.54824 0.71757 0.59075 0.0
C405 C 0.5914 0.72744 0.54128 0.0
N406 N 0.49347 0.73459 0.56497 0.0
N407 N 0.5644 0.73116 0.53046 0.0
H408 H 0.78306 0.09495 0.15342 0.0
H409 H 0.82888 0.9606 0.19291 0.0
H410 H 0.86207 0.11277 0.20267 0.0
H411 H 0.86503 0.99334 0.28878 0.0
H412 H 0.81434 0.00675 0.1712 0.0
H413 H 0.78721 0.04758 0.17817 0.0
C414 C 0.80141 0.08881 0.16903 0.0
C415 C 0.82287 0.10742 0.17461 0.0
C416 C 0.82478 0.00364 0.19746 0.0
C417 C 0.82711 0.05396 0.20422 0.0
C418 C 0.83325 0.97745 0.20965 0.0
C419 C 0.84801 0.97328 0.2427 0.0
C420 C 0.83163 0.02566 0.21828 0.0
C421 C 0.85337 0.9957 0.26338 0.0
C422 C 0.80364 0.0619 0.18331 0.0
C423 C 0.84532 0.09892 0.19708 0.0
N424 N 0.8456 0.02103 0.25049 0.0
N425 N 0.84689 0.07274 0.21103 0.0
H426 H 0.37051 0.32344 0.58645 0.0
H427 H 0.47163 0.26128 0.74425 0.0
H428 H 0.34876 0.25257 0.65625 0.0
H429 H 0.49296 0.32773 0.66592 0.0
H430 H 0.42778 0.25554 0.71128 0.0
H431 H 0.41652 0.32345 0.61434 0.0
C432 C 0.37574 0.30752 0.60726 0.0
C433 C 0.35626 0.2875 0.61835 0.0
C434 C 0.44227 0.27115 0.70117 0.0
C435 C 0.40869 0.28775 0.65138 0.0
C436 C 0.46725 0.27453 0.72005 0.0
C437 C 0.48605 0.29516 0.7081 0.0
C438 C 0.436 0.28861 0.67025 0.0
C439 C 0.47942 0.31136 0.67613 0.0
C440 C 0.40194 0.30762 0.6234 0.0
C441 C 0.36351 0.26806 0.64658 0.0
N442 N 0.45493 0.30786 0.6586 0.0
N443 N 0.38926 0.26862 0.66218 0.0
H444 H 0.72152 0.5925 0.60749 0.0
H445 H 0.71922 0.45744 0.49943 0.0
H446 H 0.69565 0.58863 0.49481 0.0
H447 H 0.70071 0.45351 0.61547 0.0
H448 H 0.72306 0.5066 0.4996 0.0
H449 H 0.72431 0.54226 0.61304 0.0
C450 C 0.7162 0.58109 0.58414 0.0
C451 C 0.70753 0.59461 0.55101 0.0
C452 C 0.71843 0.49498 0.52513 0.0
C453 C 0.71217 0.53789 0.55647 0.0
C454 C 0.71654 0.46682 0.52519 0.0
C455 C 0.70969 0.45122 0.55752 0.0
C456 C 0.71352 0.50786 0.5576 0.0
C457 C 0.70583 0.46479 0.58987 0.0
C458 C 0.71804 0.55259 0.58722 0.0
C459 C 0.70213 0.57906 0.52101 0.0
N460 N 0.70773 0.49246 0.58911 0.0
N461 N 0.70456 0.55162 0.52446 0.0
H462 H 0.85405 0.2178 0.99483 0.0
H463 H 0.93853 0.20249 0.84311 0.0
H464 H 0.79294 0.17248 0.93775 0.0
H465 H 0.87429 0.14805 0.8101 0.0
H466 H 0.907 0.2193 0.88878 0.0
H467 H 0.8837 0.21921 0.94061 0.0
C468 C 0.84692 0.20817 0.97085 0.0
C469 C 0.82166 0.1939 0.97151 0.0
C470 C 0.89959 0.20377 0.87164 0.0
C471 C 0.85473 0.19641 0.9082 0.0
C472 C 0.91754 0.19446 0.84505 0.0
C473 C 0.90914 0.17349 0.82328 0.0
C474 C 0.87311 0.19182 0.87652 0.0
C475 C 0.88179 0.16383 0.82689 0.0
C476 C 0.86365 0.20937 0.93941 0.0
C477 C 0.81254 0.18323 0.93889 0.0
N478 N 0.86492 0.17282 0.8533 0.0
N479 N 0.82924 0.18433 0.90889 0.0
H480 H 0.25761 0.37416 0.40892 0.0
H481 H 0.29324 0.49885 0.32533 0.0
H482 H 0.31325 0.39813 0.49352 0.0
H483 H 0.3094 0.52446 0.4342 0.0
H484 H 0.27882 0.45469 0.35197 0.0
H485 H 0.25466 0.42172 0.38479 0.0
C486 C 0.26896 0.38962 0.42252 0.0
C487 C 0.28551 0.38256 0.45324 0.0
C488 C 0.2846 0.47015 0.37025 0.0
C489 C 0.28338 0.4365 0.42511 0.0
C490 C 0.29291 0.49553 0.35495 0.0
C491 C 0.30284 0.51541 0.37748 0.0
C492 C 0.28637 0.46449 0.40841 0.0
C493 C 0.30249 0.50955 0.4157 0.0
C494 C 0.26752 0.41666 0.40861 0.0
C495 C 0.30006 0.40303 0.46993 0.0
N496 N 0.29493 0.48443 0.42991 0.0
N497 N 0.29874 0.42915 0.45554 0.0
H498 H 0.1592 0.80467 0.89365 0.0
H499 H 0.03097 0.82079 0.00722 0.0
H500 H 0.16767 0.80204 0.0113 0.0
H501 H 0.02613 0.76821 0.91719 0.0
H502 H 0.08082 0.81228 0.01105 0.0
H503 H 0.11115 0.7885 0.90105 0.0
C504 C 0.15126 0.79946 0.92102 0.0
C505 C 0.16727 0.80437 0.95191 0.0
C506 C 0.06867 0.80215 0.99099 0.0
C507 C 0.11218 0.78756 0.96061 0.0
C508 C 0.04006 0.80694 0.98877 0.0
C509 C 0.02409 0.79581 0.96115 0.0
C510 C 0.0816 0.78672 0.9649 0.0
C511 C 0.03758 0.77823 0.93794 0.0
C512 C 0.12384 0.79043 0.92528 0.0
C513 C 0.15595 0.79807 0.98686 0.0
N514 N 0.06564 0.77484 0.93966 0.0
N515 N 0.12871 0.79084 0.99033 0.0
H516 H 0.83408 0.09142 0.09295 0.0
H517 H 0.79059 0.94692 0.02253 0.0
H518 H 0.75026 0.06979 0.064 0.0
H519 H 0.87575 0.97236 0.03634 0.0
H520 H 0.77487 0.9886 0.04884 0.0
H521 H 0.8488 0.04458 0.08465 0.0
C522 C 0.81865 0.07668 0.08565 0.0
C523 C 0.79091 0.08455 0.07899 0.0
C524 C 0.79701 0.98494 0.04645 0.0
C525 C 0.80773 0.03112 0.06861 0.0
C526 C 0.80602 0.96119 0.03122 0.0
C527 C 0.83457 0.95621 0.02666 0.0
C528 C 0.81665 0.00401 0.05719 0.0
C529 C 0.85355 0.97521 0.03935 0.0
C530 C 0.82711 0.04999 0.08063 0.0
C531 C 0.77189 0.06465 0.06918 0.0
N532 N 0.84426 -0.00163 0.05366 0.0
N533 N 0.78069 0.03897 0.06395 0.0
H534 H 0.39795 0.33322 0.5033 0.0
H535 H 0.52426 0.24074 0.56159 0.0
H536 H 0.38235 0.25139 0.548 0.0
H537 H 0.52381 0.32718 0.57509 0.0
H538 H 0.4733 0.24201 0.55545 0.0
H539 H 0.44574 0.32981 0.52608 0.0
C540 C 0.40476 0.3145 0.51792 0.0
C541 C 0.38649 0.29254 0.52385 0.0
C542 C 0.48442 0.2605 0.56064 0.0
C543 C 0.44102 0.2883 0.54959 0.0
C544 C 0.51343 0.25984 0.56401 0.0
C545 C 0.52837 0.28396 0.56839 0.0
C546 C 0.47049 0.28554 0.56084 0.0
C547 C 0.51326 0.30807 0.57179 0.0
C548 C 0.43187 0.31262 0.53117 0.0
C549 C 0.39605 0.2687 0.543 0.0
N550 N 0.48525 0.30835 0.56717 0.0
N551 N 0.42295 0.26702 0.55487 0.0
H552 H 0.19669 0.95638 0.99106 0.0
H553 H 0.05181 0.98076 0.89121 0.0
H554 H 0.13604 0.89294 0.9803 0.0
H555 H 0.116 0.04134 0.89927 0.0
H556 H 0.07653 0.95115 0.93717 0.0
H557 H 0.16128 0.99036 0.9739 0.0
C558 C 0.17555 0.94973 0.98639 0.0
C559 C 0.16922 0.92195 0.98662 0.0
C560 C 0.08496 0.9711 0.92931 0.0
C561 C 0.12896 0.9605 0.9651 0.0
C562 C 0.07087 0.98798 0.9031 0.0
C563 C 0.08225 0.01325 0.89088 0.0
C564 C 0.11051 0.97965 0.94338 0.0
C565 C 0.10691 0.02169 0.90723 0.0
C566 C 0.15538 0.96908 0.97617 0.0
C567 C 0.14164 0.91425 0.98031 0.0
N568 N 0.12034 0.00483 0.93229 0.0
N569 N 0.12261 0.93344 0.96872 0.0
H570 H 0.6387 0.71567 0.42769 0.0
H571 H 0.48445 0.65398 0.43284 0.0
H572 H 0.60356 0.66918 0.52082 0.0
H573 H 0.52405 0.68672 0.33319 0.0
H574 H 0.52588 0.66482 0.46718 0.0
H575 H 0.59458 0.71128 0.39468 0.0
C576 C 0.62151 0.70494 0.44136 0.0
C577 C 0.62453 0.6932 0.47723 0.0
C578 C 0.52544 0.66994 0.43786 0.0
C579 C 0.57434 0.68769 0.43957 0.0
C580 C 0.50183 0.66352 0.41809 0.0
C581 C 0.50087 0.66892 0.37981 0.0
C582 C 0.5482 0.68248 0.41954 0.0
C583 C 0.52376 0.6822 0.36261 0.0
C584 C 0.59642 0.70236 0.42251 0.0
C585 C 0.60188 0.67904 0.49348 0.0
N586 N 0.54655 0.68842 0.38258 0.0
N587 N 0.57775 0.67668 0.47454 0.0
H588 H 0.28672 0.38852 0.62039 0.0
H589 H 0.27887 0.53095 0.50507 0.0
H590 H 0.25057 0.39534 0.51212 0.0
H591 H 0.28605 0.52253 0.62317 0.0
H592 H 0.27036 0.4817 0.50495 0.0
H593 H 0.28779 0.43792 0.62052 0.0
C594 C 0.27887 0.40048 0.5966 0.0
C595 C 0.26933 0.38786 0.56566 0.0
C596 C 0.27349 0.49078 0.53084 0.0
C597 C 0.27076 0.44467 0.56546 0.0
C598 C 0.27852 0.51881 0.53094 0.0
C599 C 0.28314 0.53094 0.56422 0.0
C600 C 0.27354 0.47476 0.56419 0.0
C601 C 0.28226 0.51423 0.59691 0.0
C602 C 0.27956 0.42874 0.59665 0.0
C603 C 0.25919 0.40438 0.53582 0.0
N604 N 0.27781 0.48706 0.59602 0.0
N605 N 0.26052 0.43204 0.53616 0.0
H606 H 0.19195 0.85153 0.13884 0.0
H607 H 0.02713 0.82866 0.14386 0.0
H608 H 0.14166 0.85039 0.04089 0.0
H609 H 0.07607 0.84597 0.23875 0.0
H610 H 0.06916 0.83271 0.10612 0.0
H611 H 0.14995 0.84628 0.17606 0.0
C612 C 0.17204 0.8503 0.12511 0.0
C613 C 0.17035 0.85145 0.08664 0.0
C614 C 0.07069 0.83553 0.13522 0.0
C615 C 0.12205 0.84514 0.1293 0.0
C616 C 0.04669 0.83325 0.15683 0.0
C617 C 0.04795 0.83714 0.19462 0.0
C618 C 0.09622 0.84161 0.15147 0.0
C619 C 0.07405 0.8425 0.20991 0.0
C620 C 0.14804 0.84727 0.14644 0.0
C621 C 0.14393 0.84975 0.07045 0.0
N622 N 0.09708 0.84466 0.18828 0.0
N623 N 0.1208 0.84655 0.09189 0.0
H624 H 0.69367 0.61542 0.70758 0.0
H625 H 0.65238 0.46323 0.66632 0.0
H626 H 0.65733 0.59469 0.60514 0.0
H627 H 0.65828 0.49115 0.77579 0.0
H628 H 0.66307 0.50941 0.64124 0.0
H629 H 0.68931 0.56777 0.73097 0.0
C630 C 0.68499 0.60071 0.68997 0.0
C631 C 0.67634 0.6087 0.65421 0.0
C632 C 0.66218 0.50527 0.67074 0.0
C633 C 0.67117 0.55446 0.68065 0.0
C634 C 0.656 0.47897 0.68512 0.0
C635 C 0.65413 0.47325 0.7233 0.0
C636 C 0.66678 0.52593 0.69469 0.0
C637 C 0.65974 0.49439 0.74624 0.0
C638 C 0.68252 0.57361 0.70326 0.0
C639 C 0.66482 0.58909 0.6326 0.0
N640 N 0.6657 0.51979 0.73157 0.0
N641 N 0.66266 0.56277 0.6461 0.0
H642 H 0.89599 0.24483 0.07177 0.0
H643 H 0.02288 0.15304 0.02436 0.0
H644 H 0.88656 0.16572 0.02971 0.0
H645 H 0.03049 0.23604 0.05427 0.0
H646 H 0.97331 0.16062 0.01279 0.0
H647 H 0.94432 0.24608 0.05113 0.0
C648 C 0.90394 0.22814 0.05692 0.0
C649 C 0.8875 0.2051 0.05251 0.0
C650 C 0.9859 0.17735 0.02119 0.0
C651 C 0.94313 0.20565 0.03048 0.0
C652 C 0.0143 0.17307 0.02769 0.0
C653 C 0.03081 0.19378 0.04109 0.0
C654 C 0.97387 0.20244 0.02842 0.0
C655 C 0.01842 0.21925 0.04499 0.0
C656 C 0.93161 0.2287 0.04541 0.0
C657 C 0.89869 0.18386 0.0335 0.0
N658 N 0.99066 0.22271 0.03929 0.0
N659 N 0.92611 0.1843 0.02398 0.0
H660 H 0.31108 0.786 0.98881 0.0
H661 H 0.29389 0.65545 0.12131 0.0
H662 H 0.23196 0.75331 0.02541 0.0
H663 H 0.37304 0.68771 0.0828 0.0
H664 H 0.2707 0.68259 0.07222 0.0
H665 H 0.33305 0.74235 0.00666 0.0
C666 C 0.29818 0.76913 0.99921 0.0
C667 C 0.26983 0.77305 0.00597 0.0
C668 C 0.29319 0.68335 0.07399 0.0
C669 C 0.29485 0.72367 0.02821 0.0
C670 C 0.30655 0.6677 0.10201 0.0
C671 C 0.3355 0.66973 0.10681 0.0
C672 C 0.30879 0.70148 0.05085 0.0
C673 C 0.35061 0.68614 0.08091 0.0
C674 C 0.31073 0.7443 0.00977 0.0
C675 C 0.25393 0.75088 0.0198 0.0
N676 N 0.33704 0.70176 0.05449 0.0
N677 N 0.2668 0.72725 0.03145 0.0
H678 H 0.77081 0.71687 0.62994 0.0
H679 H 0.79398 0.84683 0.74697 0.0
H680 H 0.70774 0.77669 0.64815 0.0
H681 H 0.84626 0.77529 0.75544 0.0
H682 H 0.76798 0.8271 0.6977 0.0
H683 H 0.80478 0.74449 0.66161 0.0
C684 C 0.76442 0.73626 0.63952 0.0
C685 C 0.7366 0.74466 0.63655 0.0
C686 C 0.78538 0.8159 0.71009 0.0
C687 C 0.77481 0.77587 0.67323 0.0
C688 C 0.80011 0.82705 0.73845 0.0
C689 C 0.82216 0.81259 0.75593 0.0
C690 C 0.79271 0.7901 0.69894 0.0
C691 C 0.82956 0.78734 0.74281 0.0
C692 C 0.78365 0.75185 0.65789 0.0
C693 C 0.72909 0.76963 0.64997 0.0
N694 N 0.81473 0.77681 0.71539 0.0
N695 N 0.748 0.78425 0.66802 0.0
H696 H 0.73421 0.21033 0.17241 0.0
H697 H 0.74697 0.30945 0.33447 0.0
H698 H 0.80075 0.26796 0.1836 0.0
H699 H 0.67259 0.26245 0.31788 0.0
H700 H 0.76441 0.29699 0.27569 0.0
H701 H 0.70823 0.23205 0.22061 0.0
C702 C 0.74292 0.22808 0.18414 0.0
C703 C 0.76974 0.23726 0.17433 0.0
C704 C 0.74413 0.28953 0.28461 0.0
C705 C 0.74067 0.26163 0.22985 0.0
C706 C 0.73401 0.29681 0.31831 0.0
C707 C 0.70813 0.2871 0.33146 0.0
C708 C 0.72861 0.27196 0.26376 0.0
C709 C 0.69285 0.27011 0.3093 0.0
C710 C 0.72825 0.24028 0.21191 0.0
C711 C 0.78026 0.26007 0.1907 0.0
N712 N 0.70342 0.26289 0.27669 0.0
N713 N 0.7659 0.2712 0.21792 0.0
H714 H 0.23812 0.21816 0.53485 0.0
H715 H 0.08197 0.2016 0.60657 0.0
H716 H 0.18479 0.28321 0.56558 0.0
H717 H 0.13827 0.13369 0.59966 0.0
H718 H 0.11534 0.23073 0.57313 0.0
H719 H 0.19816 0.18671 0.54082 0.0
C720 C 0.2178 0.22591 0.54172 0.0
C721 C 0.21456 0.25308 0.55013 0.0
C722 C 0.12029 0.20937 0.57844 0.0
C723 C 0.16925 0.21765 0.55718 0.0
C724 C 0.10104 0.19255 0.59734 0.0
C725 C 0.10739 0.1651 0.60665 0.0
C726 C 0.14633 0.1989 0.56909 0.0
C727 C 0.13277 0.15488 0.59407 0.0
C728 C 0.19512 0.20802 0.54537 0.0
C729 C 0.18804 0.26227 0.55921 0.0
N730 N 0.15154 0.17188 0.57647 0.0
N731 N 0.16648 0.24456 0.56283 0.0
H732 H 0.75659 0.75954 0.55653 0.0
H733 H 0.89696 0.75191 0.45045 0.0
H734 H 0.79426 0.68469 0.52693 0.0
H735 H 0.87394 0.82354 0.50571 0.0
H736 H 0.86381 0.72565 0.48793 0.0
H737 H 0.80193 0.78243 0.54763 0.0
C738 C 0.77461 0.74783 0.54927 0.0
C739 C 0.77186 0.7204 0.54198 0.0
C740 C 0.86626 0.74704 0.49238 0.0
C741 C 0.82322 0.7462 0.53109 0.0
C742 C 0.88557 0.76214 0.47107 0.0
C743 C 0.88786 0.79037 0.47384 0.0
C744 C 0.84852 0.76025 0.51612 0.0
C745 C 0.8721 0.80211 0.50127 0.0
C746 C 0.80043 0.76083 0.54407 0.0
C747 C 0.79561 0.70602 0.53232 0.0
N748 N 0.85253 0.78719 0.52061 0.0
N749 N 0.82016 0.71915 0.52662 0.0
H750 H 0.68035 0.1967 0.0933 0.0
H751 H 0.67339 0.33623 0.98515 0.0
H752 H 0.74832 0.254 0.08986 0.0
H753 H 0.60018 0.28809 0.01252 0.0
H754 H 0.69817 0.31206 0.03531 0.0
H755 H 0.64813 0.234 0.07795 0.0
C756 C 0.68834 0.21732 0.0905 0.0
C757 C 0.71705 0.22226 0.09186 0.0
C758 C 0.67649 0.30715 0.03096 0.0
C759 C 0.68053 0.26491 0.07292 0.0
C760 C 0.66217 0.32111 1.00226 0.0
C761 C 0.63477 0.31372 0.99373 0.0
C762 C 0.66357 0.28524 0.05087 0.0
C763 C 0.6216 0.2938 0.01708 0.0
C764 C 0.66995 0.23865 0.08158 0.0
C765 C 0.72633 0.24931 0.08851 0.0
N766 N 0.63631 0.27982 0.04399 0.0
N767 N 0.70821 0.26959 0.078 0.0
H768 H 0.21888 0.26169 0.45856 0.0
H769 H 0.23774 0.16132 0.29944 0.0
H770 H 0.29268 0.2147 0.44047 0.0
H771 H 0.15989 0.20211 0.31838 0.0
H772 H 0.25473 0.17495 0.35779 0.0
H773 H 0.19342 0.23432 0.41554 0.0
C774 C 0.22938 0.24494 0.44661 0.0
C775 C 0.25791 0.24052 0.45262 0.0
C776 C 0.23379 0.18074 0.34951 0.0
C777 C 0.22941 0.20977 0.40304 0.0
C778 C 0.22389 0.17273 0.31604 0.0
C779 C 0.19725 0.18061 0.30345 0.0
C780 C 0.21728 0.19729 0.37064 0.0
C781 C 0.18079 0.19603 0.32634 0.0
C782 C 0.21499 0.22953 0.42177 0.0
C783 C 0.27073 0.21885 0.43622 0.0
N784 N 0.1912 0.20417 0.35857 0.0
N785 N 0.25653 0.20458 0.41181 0.0
H786 H 0.28556 0.85106 0.85805 0.0
H787 H 0.28713 0.703 0.78016 0.0
H788 H 0.25249 0.78066 0.92035 0.0
H789 H 0.29622 0.77858 0.71405 0.0
H790 H 0.27954 0.72918 0.8343 0.0
H791 H 0.29706 0.82246 0.80841 0.0
C792 C 0.28103 0.82948 0.86153 0.0
C793 C 0.26773 0.81833 0.89329 0.0
C794 C 0.28325 0.73991 0.80787 0.0
C795 C 0.28057 0.78539 0.83606 0.0
C796 C 0.28736 0.72503 0.77691 0.0
C797 C 0.29262 0.73856 0.74243 0.0
C798 C 0.28459 0.76848 0.8043 0.0
C799 C 0.29293 0.76715 0.74007 0.0
C800 C 0.28744 0.81317 0.833 0.0
C801 C 0.26262 0.79014 0.89627 0.0
N802 N 0.28914 0.78106 0.77049 0.0
N803 N 0.26883 0.77463 0.86782 0.0
loop_
_geom_bond_atom_site_label_1
_geom_bond_atom_site_label_2
_geom_bond_distance
_geom_bond_site_symmetry_2
_ccdc_geom_bond_type
Zn0 O6 1.920 . S
Zn0 O12 1.898 . S
Zn0 O15 1.905 . S
Zn1 O9 1.905 . S
Zn1 O10 1.898 . S
Zn1 O18 1.920 . S
Zn2 O5 2.080 . S
Zn2 O8 2.114 1_554 S
Zn2 O11 2.120 1_554 S
Zn2 O13 2.120 . S
Zn2 O14 2.114 . S
Zn2 O17 2.080 1_554 S
C3 O8 1.166 . S
C3 O9 1.182 . S
C4 O10 1.167 . S
C4 O11 1.299 . S
O5 Zn2 2.080 . S
O5 C19 1.305 . S
O6 Zn0 1.920 . S
O6 C19 1.234 . S
C7 O12 1.167 . S
C7 O13 1.299 . S
O8 Zn2 2.114 1_556 S
O8 C3 1.166 . S
O9 Zn1 1.905 . S
O9 C3 1.182 . S
O10 Zn1 1.898 . S
O10 C4 1.167 . S
O11 Zn2 2.120 1_556 S
O11 C4 1.299 . S
O12 Zn0 1.898 . S
O12 C7 1.167 . S
O13 Zn2 2.120 . S
O13 C7 1.299 . S
O14 Zn2 2.114 . S
O14 C16 1.166 . S
O15 Zn0 1.905 . S
O15 C16 1.182 . S
C16 O14 1.166 . S
C16 O15 1.182 . S
O17 Zn2 2.080 1_556 S
O17 C20 1.305 . S
O18 Zn1 1.920 . S
O18 C20 1.234 . S
C19 O5 1.305 . S
C19 O6 1.234 . S
C20 O17 1.305 . S
C20 O18 1.234 . S
Zn21 O27 1.920 . S
Zn21 O33 1.898 . S
Zn21 O36 1.905 . S
Zn22 O30 1.905 . S
Zn22 O31 1.898 . S
Zn22 O39 1.920 . S
Zn23 O26 2.080 . S
Zn23 O29 2.114 . S
Zn23 O32 2.120 . S
Zn23 O34 2.120 . S
Zn23 O35 2.114 . S
Zn23 O38 2.080 . S
C24 O29 1.166 . S
C24 O30 1.182 . S
C25 O31 1.167 . S
C25 O32 1.299 . S
O26 Zn23 2.080 . S
O26 C40 1.305 . S
O27 Zn21 1.920 . S
O27 C40 1.234 . S
C28 O33 1.167 . S
C28 O34 1.299 . S
O29 Zn23 2.114 . S
O29 C24 1.166 . S
O30 Zn22 1.905 . S
O30 C24 1.182 . S
O31 Zn22 1.898 . S
O31 C25 1.167 . S
O32 Zn23 2.120 . S
O32 C25 1.299 . S
O33 Zn21 1.898 . S
O33 C28 1.167 . S
O34 Zn23 2.120 . S
O34 C28 1.299 . S
O35 Zn23 2.114 . S
O35 C37 1.166 . S
O36 Zn21 1.905 . S
O36 C37 1.182 . S
C37 O35 1.166 . S
C37 O36 1.182 . S
O38 Zn23 2.080 . S
O38 C41 1.305 . S
O39 Zn22 1.920 . S
O39 C41 1.234 . S
C40 O26 1.305 . S
C40 O27 1.234 . S
C41 O38 1.305 . S
C41 O39 1.234 . S
Zn42 O48 1.920 . S
Zn42 O54 1.898 . S
Zn42 O57 1.905 . S
Zn43 O51 1.905 . S
Zn43 O52 1.898 . S
Zn43 O60 1.920 . S
Zn44 O47 2.080 . S
Zn44 O50 2.114 . S
Zn44 O53 2.120 . S
Zn44 O55 2.120 . S
Zn44 O56 2.114 . S
Zn44 O59 2.080 . S
C45 O50 1.166 . S
C45 O51 1.182 . S
C46 O52 1.167 . S
C46 O53 1.299 . S
O47 Zn44 2.080 . S
O47 C61 1.305 . S
O48 Zn42 1.920 . S
O48 C61 1.234 1_556 S
C49 O54 1.167 . S
C49 O55 1.299 1_556 S
O50 Zn44 2.114 . S
O50 C45 1.166 . S
O51 Zn43 1.905 . S
O51 C45 1.182 . S
O52 Zn43 1.898 . S
O52 C46 1.167 . S
O53 Zn44 2.120 . S
O53 C46 1.299 . S
O54 Zn42 1.898 . S
O54 C49 1.167 . S
O55 Zn44 2.120 . S
O55 C49 1.299 1_554 S
O56 Zn44 2.114 . S
O56 C58 1.166 . S
O57 Zn42 1.905 . S
O57 C58 1.182 1_556 S
C58 O56 1.166 . S
C58 O57 1.182 1_554 S
O59 Zn44 2.080 . S
O59 C62 1.305 . S
O60 Zn43 1.920 . S
O60 C62 1.234 . S
C61 O47 1.305 . S
C61 O48 1.234 1_554 S
C62 O59 1.305 . S
C62 O60 1.234 . S
Zn63 O69 1.920 . S
Zn63 O75 1.898 . S
Zn63 O78 1.905 . S
Zn64 O72 1.905 . S
Zn64 O73 1.898 . S
Zn64 O81 1.920 . S
Zn65 O68 2.080 . S
Zn65 O71 2.114 . S
Zn65 O74 2.120 . S
Zn65 O76 2.120 . S
Zn65 O77 2.114 . S
Zn65 O80 2.080 . S
C66 O71 1.166 . S
C66 O72 1.182 . S
C67 O73 1.167 . S
C67 O74 1.299 . S
O68 Zn65 2.080 . S
O68 C82 1.305 . S
O69 Zn63 1.920 . S
O69 C82 1.234 . S
C70 O75 1.167 . S
C70 O76 1.299 . S
O71 Zn65 2.114 . S
O71 C66 1.166 . S
O72 Zn64 1.905 . S
O72 C66 1.182 . S
O73 Zn64 1.898 . S
O73 C67 1.167 . S
O74 Zn65 2.120 . S
O74 C67 1.299 . S
O75 Zn63 1.898 . S
O75 C70 1.167 . S
O76 Zn65 2.120 . S
O76 C70 1.299 . S
O77 Zn65 2.114 . S
O77 C79 1.166 . S
O78 Zn63 1.905 . S
O78 C79 1.182 . S
C79 O77 1.166 . S
C79 O78 1.182 . S
O80 Zn65 2.080 . S
O80 C83 1.305 . S
O81 Zn64 1.920 . S
O81 C83 1.234 . S
C82 O68 1.305 . S
C82 O69 1.234 . S
C83 O80 1.305 . S
C83 O81 1.234 . S
C84 C85 1.384 . S
C84 H97 0.947 . S
C84 C119 1.382 . S
C85 C84 1.384 . S
C85 C86 1.378 . S
C86 C85 1.378 . S
C86 C87 1.378 . S
C86 H98 0.952 . S
C87 C86 1.378 . S
C87 H99 0.950 . S
C87 C118 1.383 . S
H88 C107 0.947 . S
H89 C108 0.946 . S
H90 C110 0.953 . S
H91 C111 0.945 . S
H92 C113 0.952 . S
H93 C114 0.949 . S
H94 C116 0.950 . S
H95 C117 0.948 . S
H96 C119 0.951 . S
H97 C84 0.947 . S
H98 C86 0.952 . S
H99 C87 0.950 . S
N100 C103 1.382 . S
N100 C105 1.363 . S
N101 C103 1.371 . S
N101 C104 1.372 . S
N102 C104 1.361 . S
N102 C105 1.377 . S
C103 N100 1.382 . S
C103 N101 1.371 . S
C103 C106 1.480 . S
C104 N101 1.372 . S
C104 N102 1.361 . S
C104 C112 1.457 . S
C105 N100 1.363 . S
C105 N102 1.377 . S
C105 C118 1.479 . S
C106 C103 1.480 . S
C106 C107 1.383 . S
C106 C111 1.385 . S
C107 H88 0.947 . S
C107 C106 1.383 . S
C107 C108 1.388 . S
C108 H89 0.946 . S
C108 C107 1.388 . S
C108 C109 1.384 . S
C109 C108 1.384 . S
C109 C110 1.377 . S
C110 H90 0.953 . S
C110 C109 1.377 . S
C110 C111 1.369 . S
C111 H91 0.945 . S
C111 C106 1.385 . S
C111 C110 1.369 . S
C112 C104 1.457 . S
C112 C113 1.372 . S
C112 C117 1.364 . S
C113 H92 0.952 . S
C113 C112 1.372 . S
C113 C114 1.389 . S
C114 H93 0.949 . S
C114 C113 1.389 . S
C114 C115 1.387 . S
C115 C114 1.387 . S
C115 C116 1.372 . S
C116 H94 0.950 . S
C116 C115 1.372 . S
C116 C117 1.379 . S
C117 H95 0.948 . S
C117 C112 1.364 . S
C117 C116 1.379 . S
C118 C87 1.383 . S
C118 C105 1.479 . S
C118 C119 1.398 . S
C119 C84 1.382 . S
C119 H96 0.951 . S
C119 C118 1.398 . S
C120 C121 1.384 . S
C120 H133 0.947 . S
C120 C155 1.382 . S
C121 C120 1.384 . S
C121 C122 1.378 . S
C122 C121 1.378 . S
C122 C123 1.378 . S
C122 H134 0.952 . S
C123 C122 1.378 . S
C123 H135 0.950 . S
C123 C154 1.383 . S
H124 C143 0.947 . S
H125 C144 0.946 . S
H126 C146 0.953 . S
H127 C147 0.945 . S
H128 C149 0.952 . S
H129 C150 0.949 . S
H130 C152 0.950 . S
H131 C153 0.948 . S
H132 C155 0.951 . S
H133 C120 0.947 . S
H134 C122 0.952 . S
H135 C123 0.950 . S
N136 C139 1.382 . S
N136 C141 1.363 . S
N137 C139 1.371 . S
N137 C140 1.372 . S
N138 C140 1.361 . S
N138 C141 1.377 . S
C139 N136 1.382 . S
C139 N137 1.371 . S
C139 C142 1.480 . S
C140 N137 1.372 . S
C140 N138 1.361 . S
C140 C148 1.457 . S
C141 N136 1.363 . S
C141 N138 1.377 . S
C141 C154 1.479 . S
C142 C139 1.480 . S
C142 C143 1.383 . S
C142 C147 1.385 . S
C143 H124 0.947 . S
C143 C142 1.383 . S
C143 C144 1.388 . S
C144 H125 0.946 . S
C144 C143 1.388 . S
C144 C145 1.384 . S
C145 C144 1.384 . S
C145 C146 1.377 . S
C146 H126 0.953 . S
C146 C145 1.377 . S
C146 C147 1.369 . S
C147 H127 0.945 . S
C147 C142 1.385 . S
C147 C146 1.369 . S
C148 C140 1.457 . S
C148 C149 1.372 . S
C148 C153 1.364 . S
C149 H128 0.952 . S
C149 C148 1.372 . S
C149 C150 1.389 . S
C150 H129 0.949 . S
C150 C149 1.389 . S
C150 C151 1.387 . S
C151 C150 1.387 . S
C151 C152 1.372 . S
C152 H130 0.950 . S
C152 C151 1.372 . S
C152 C153 1.379 . S
C153 H131 0.948 . S
C153 C148 1.364 . S
C153 C152 1.379 . S
C154 C123 1.383 . S
C154 C141 1.479 . S
C154 C155 1.398 . S
C155 C120 1.382 . S
C155 H132 0.951 . S
C155 C154 1.398 . S
C156 C157 1.384 . S
C156 H169 0.947 . S
C156 C191 1.382 . S
C157 C156 1.384 . S
C157 C158 1.378 . S
C158 C157 1.378 . S
C158 C159 1.378 . S
C158 H170 0.952 . S
C159 C158 1.378 . S
C159 H171 0.950 . S
C159 C190 1.383 . S
H160 C179 0.947 . S
H161 C180 0.946 . S
H162 C182 0.953 . S
H163 C183 0.945 . S
H164 C185 0.952 . S
H165 C186 0.949 . S
H166 C188 0.950 . S
H167 C189 0.948 . S
H168 C191 0.951 . S
H169 C156 0.947 . S
H170 C158 0.952 . S
H171 C159 0.950 . S
N172 C175 1.382 . S
N172 C177 1.363 . S
N173 C175 1.371 . S
N173 C176 1.372 . S
N174 C176 1.361 . S
N174 C177 1.377 . S
C175 N172 1.382 . S
C175 N173 1.371 . S
C175 C178 1.480 . S
C176 N173 1.372 . S
C176 N174 1.361 . S
C176 C184 1.457 . S
C177 N172 1.363 . S
C177 N174 1.377 . S
C177 C190 1.479 . S
C178 C175 1.480 . S
C178 C179 1.383 . S
C178 C183 1.385 . S
C179 H160 0.947 . S
C179 C178 1.383 . S
C179 C180 1.388 . S
C180 H161 0.946 . S
C180 C179 1.388 . S
C180 C181 1.384 . S
C181 C180 1.384 . S
C181 C182 1.377 . S
C182 H162 0.953 . S
C182 C181 1.377 . S
C182 C183 1.369 . S
C183 H163 0.945 . S
C183 C178 1.385 . S
C183 C182 1.369 . S
C184 C176 1.457 . S
C184 C185 1.372 . S
C184 C189 1.364 . S
C185 H164 0.952 . S
C185 C184 1.372 . S
C185 C186 1.389 . S
C186 H165 0.949 . S
C186 C185 1.389 . S
C186 C187 1.387 . S
C187 C186 1.387 . S
C187 C188 1.372 . S
C188 H166 0.950 . S
C188 C187 1.372 . S
C188 C189 1.379 . S
C189 H167 0.948 . S
C189 C184 1.364 . S
C189 C188 1.379 . S
C190 C159 1.383 . S
C190 C177 1.479 . S
C190 C191 1.398 . S
C191 C156 1.382 . S
C191 H168 0.951 . S
C191 C190 1.398 . S
C192 C193 1.384 . S
C192 H205 0.947 . S
C192 C227 1.382 . S
C193 C192 1.384 . S
C193 C194 1.378 . S
C194 C193 1.378 . S
C194 C195 1.378 . S
C194 H206 0.952 . S
C195 C194 1.378 . S
C195 H207 0.950 . S
C195 C226 1.383 . S
H196 C215 0.947 . S
H197 C216 0.946 . S
H198 C218 0.953 . S
H199 C219 0.945 . S
H200 C221 0.952 . S
H201 C222 0.949 . S
H202 C224 0.950 . S
H203 C225 0.948 . S
H204 C227 0.951 . S
H205 C192 0.947 . S
H206 C194 0.952 . S
H207 C195 0.950 . S
N208 C211 1.382 . S
N208 C213 1.363 . S
N209 C211 1.371 . S
N209 C212 1.372 . S
N210 C212 1.361 . S
N210 C213 1.377 . S
C211 N208 1.382 . S
C211 N209 1.371 . S
C211 C214 1.480 . S
C212 N209 1.372 . S
C212 N210 1.361 . S
C212 C220 1.457 . S
C213 N208 1.363 . S
C213 N210 1.377 . S
C213 C226 1.479 . S
C214 C211 1.480 . S
C214 C215 1.383 . S
C214 C219 1.385 . S
C215 H196 0.947 . S
C215 C214 1.383 . S
C215 C216 1.388 . S
C216 H197 0.946 . S
C216 C215 1.388 . S
C216 C217 1.384 . S
C217 C216 1.384 . S
C217 C218 1.377 . S
C218 H198 0.953 . S
C218 C217 1.377 . S
C218 C219 1.369 . S
C219 H199 0.945 . S
C219 C214 1.385 . S
C219 C218 1.369 . S
C220 C212 1.457 . S
C220 C221 1.372 . S
C220 C225 1.364 . S
C221 H200 0.952 . S
C221 C220 1.372 . S
C221 C222 1.389 . S
C222 H201 0.949 . S
C222 C221 1.389 . S
C222 C223 1.387 . S
C223 C222 1.387 . S
C223 C224 1.372 . S
C224 H202 0.950 . S
C224 C223 1.372 . S
C224 C225 1.379 . S
C225 H203 0.948 . S
C225 C220 1.364 . S
C225 C224 1.379 . S
C226 C195 1.383 . S
C226 C213 1.479 . S
C226 C227 1.398 . S
C227 C192 1.382 . S
C227 H204 0.951 . S
C227 C226 1.398 . S
C228 C229 1.384 . S
C228 H241 0.947 . S
C228 C263 1.382 . S
C229 C228 1.384 . S
C229 C230 1.378 . S
C230 C229 1.378 . S
C230 C231 1.378 . S
C230 H242 0.952 . S
C231 C230 1.378 . S
C231 H243 0.950 . S
C231 C262 1.383 . S
H232 C251 0.947 . S
H233 C252 0.946 . S
H234 C254 0.953 . S
H235 C255 0.945 . S
H236 C257 0.952 . S
H237 C258 0.949 . S
H238 C260 0.950 . S
H239 C261 0.948 . S
H240 C263 0.951 . S
H241 C228 0.947 . S
H242 C230 0.952 . S
H243 C231 0.950 . S
N244 C247 1.382 . S
N244 C249 1.363 . S
N245 C247 1.371 . S
N245 C248 1.372 . S
N246 C248 1.361 . S
N246 C249 1.377 . S
C247 N244 1.382 . S
C247 N245 1.371 . S
C247 C250 1.480 . S
C248 N245 1.372 . S
C248 N246 1.361 . S
C248 C256 1.457 . S
C249 N244 1.363 . S
C249 N246 1.377 . S
C249 C262 1.479 . S
C250 C247 1.480 . S
C250 C251 1.383 . S
C250 C255 1.385 . S
C251 H232 0.947 . S
C251 C250 1.383 . S
C251 C252 1.388 . S
C252 H233 0.946 . S
C252 C251 1.388 . S
C252 C253 1.384 . S
C253 C252 1.384 . S
C253 C254 1.377 . S
C254 H234 0.953 . S
C254 C253 1.377 . S
C254 C255 1.369 . S
C255 H235 0.945 . S
C255 C250 1.385 . S
C255 C254 1.369 . S
C256 C248 1.457 . S
C256 C257 1.372 . S
C256 C261 1.364 . S
C257 H236 0.952 . S
C257 C256 1.372 . S
C257 C258 1.389 . S
C258 H237 0.949 . S
C258 C257 1.389 . S
C258 C259 1.387 . S
C259 C258 1.387 . S
C259 C260 1.372 . S
C260 H238 0.950 . S
C260 C259 1.372 . S
C260 C261 1.379 . S
C261 H239 0.948 . S
C261 C256 1.364 . S
C261 C260 1.379 . S
C262 C231 1.383 . S
C262 C249 1.479 . S
C262 C263 1.398 . S
C263 C228 1.382 . S
C263 H240 0.951 . S
C263 C262 1.398 . S
C264 C265 1.384 . S
C264 H277 0.947 . S
C264 C299 1.382 . S
C265 C264 1.384 . S
C265 C266 1.378 . S
C266 C265 1.378 . S
C266 C267 1.378 . S
C266 H278 0.952 . S
C267 C266 1.378 . S
C267 H279 0.950 . S
C267 C298 1.383 . S
H268 C287 0.947 . S
H269 C288 0.946 . S
H270 C290 0.953 . S
H271 C291 0.945 . S
H272 C293 0.952 . S
H273 C294 0.949 . S
H274 C296 0.950 . S
H275 C297 0.948 . S
H276 C299 0.951 . S
H277 C264 0.947 . S
H278 C266 0.952 . S
H279 C267 0.950 . S
N280 C283 1.382 . S
N280 C285 1.363 . S
N281 C283 1.371 . S
N281 C284 1.372 . S
N282 C284 1.361 . S
N282 C285 1.377 . S
C283 N280 1.382 . S
C283 N281 1.371 . S
C283 C286 1.480 . S
C284 N281 1.372 . S
C284 N282 1.361 . S
C284 C292 1.457 . S
C285 N280 1.363 . S
C285 N282 1.377 . S
C285 C298 1.479 . S
C286 C283 1.480 . S
C286 C287 1.383 . S
C286 C291 1.385 . S
C287 H268 0.947 . S
C287 C286 1.383 . S
C287 C288 1.388 1_455 S
C288 H269 0.946 . S
C288 C287 1.388 1_655 S
C288 C289 1.384 . S
C289 C288 1.384 . S
C289 C290 1.377 . S
C290 H270 0.953 . S
C290 C289 1.377 . S
C290 C291 1.369 1_655 S
C291 H271 0.945 . S
C291 C286 1.385 . S
C291 C290 1.369 1_455 S
C292 C284 1.457 . S
C292 C293 1.372 . S
C292 C297 1.364 . S
C293 H272 0.952 . S
C293 C292 1.372 . S
C293 C294 1.389 . S
C294 H273 0.949 . S
C294 C293 1.389 . S
C294 C295 1.387 . S
C295 C294 1.387 . S
C295 C296 1.372 . S
C296 H274 0.950 . S
C296 C295 1.372 . S
C296 C297 1.379 . S
C297 H275 0.948 . S
C297 C292 1.364 . S
C297 C296 1.379 . S
C298 C267 1.383 . S
C298 C285 1.479 . S
C298 C299 1.398 . S
C299 C264 1.382 . S
C299 H276 0.951 . S
C299 C298 1.398 . S
C300 C301 1.384 . S
C300 H313 0.947 . S
C300 C335 1.382 . S
C301 C300 1.384 . S
C301 C302 1.378 . S
C302 C301 1.378 . S
C302 C303 1.378 . S
C302 H314 0.952 . S
C303 C302 1.378 . S
C303 H315 0.950 . S
C303 C334 1.383 . S
H304 C323 0.947 . S
H305 C324 0.946 . S
H306 C326 0.953 . S
H307 C327 0.945 . S
H308 C329 0.952 . S
H309 C330 0.949 . S
H310 C332 0.950 . S
H311 C333 0.948 . S
H312 C335 0.951 . S
H313 C300 0.947 . S
H314 C302 0.952 . S
H315 C303 0.950 . S
N316 C319 1.382 . S
N316 C321 1.363 . S
N317 C319 1.371 . S
N317 C320 1.372 . S
N318 C320 1.361 . S
N318 C321 1.377 . S
C319 N316 1.382 . S
C319 N317 1.371 . S
C319 C322 1.480 . S
C320 N317 1.372 . S
C320 N318 1.361 . S
C320 C328 1.457 . S
C321 N316 1.363 . S
C321 N318 1.377 . S
C321 C334 1.479 . S
C322 C319 1.480 . S
C322 C323 1.383 . S
C322 C327 1.385 . S
C323 H304 0.947 . S
C323 C322 1.383 . S
C323 C324 1.388 . S
C324 H305 0.946 . S
C324 C323 1.388 . S
C324 C325 1.384 . S
C325 C324 1.384 . S
C325 C326 1.377 . S
C326 H306 0.953 . S
C326 C325 1.377 . S
C326 C327 1.369 . S
C327 H307 0.945 . S
C327 C322 1.385 . S
C327 C326 1.369 . S
C328 C320 1.457 . S
C328 C329 1.372 . S
C328 C333 1.364 . S
C329 H308 0.952 . S
C329 C328 1.372 . S
C329 C330 1.389 . S
C330 H309 0.949 . S
C330 C329 1.389 . S
C330 C331 1.387 . S
C331 C330 1.387 . S
C331 C332 1.372 . S
C332 H310 0.950 . S
C332 C331 1.372 . S
C332 C333 1.379 . S
C333 H311 0.948 . S
C333 C328 1.364 . S
C333 C332 1.379 . S
C334 C303 1.383 . S
C334 C321 1.479 . S
C334 C335 1.398 . S
C335 C300 1.382 . S
C335 H312 0.951 . S
C335 C334 1.398 . S
C336 C337 1.384 . S
C336 H349 0.953 . S
C336 C371 1.382 . S
C337 C336 1.384 . S
C337 C338 1.378 . S
C338 C337 1.378 . S
C338 C339 1.378 . S
C338 H350 0.952 . S
C339 C338 1.378 . S
C339 H351 0.950 . S
C339 C370 1.383 . S
H340 C359 0.947 . S
H341 C360 0.946 . S
H342 C362 0.953 . S
H343 C363 0.945 . S
H344 C365 0.952 . S
H345 C366 0.949 . S
H346 C368 0.938 1_554 S
H347 C369 0.948 . S
H348 C371 0.951 . S
H349 C336 0.953 . S
H350 C338 0.952 . S
H351 C339 0.950 . S
N352 C355 1.382 . S
N352 C357 1.363 . S
N353 C355 1.371 . S
N353 C356 1.372 . S
N354 C356 1.361 . S
N354 C357 1.377 . S
C355 N352 1.382 . S
C355 N353 1.371 . S
C355 C358 1.480 . S
C356 N353 1.372 . S
C356 N354 1.361 . S
C356 C364 1.457 . S
C357 N352 1.363 . S
C357 N354 1.377 . S
C357 C370 1.479 . S
C358 C355 1.480 . S
C358 C359 1.383 . S
C358 C363 1.385 . S
C359 H340 0.947 . S
C359 C358 1.383 . S
C359 C360 1.388 . S
C360 H341 0.946 . S
C360 C359 1.388 . S
C360 C361 1.384 . S
C361 C360 1.384 . S
C361 C362 1.377 . S
C362 H342 0.953 . S
C362 C361 1.377 . S
C362 C363 1.369 . S
C363 H343 0.945 . S
C363 C358 1.385 . S
C363 C362 1.369 . S
C364 C356 1.457 . S
C364 C365 1.372 . S
C364 C369 1.364 . S
C365 H344 0.952 . S
C365 C364 1.372 . S
C365 C366 1.389 . S
C366 H345 0.949 . S
C366 C365 1.389 . S
C366 C367 1.387 . S
C367 C366 1.387 . S
C367 C368 1.372 . S
C368 H346 0.938 1_556 S
C368 C367 1.372 . S
C368 C369 1.379 . S
C369 H347 0.948 . S
C369 C364 1.364 . S
C369 C368 1.379 . S
C370 C339 1.383 . S
C370 C357 1.479 . S
C370 C371 1.398 . S
C371 C336 1.382 . S
C371 H348 0.951 . S
C371 C370 1.398 . S
H372 C378 0.930 . S
H373 C382 0.930 . S
H374 C387 0.929 . S
H375 C385 0.929 . S
H376 C380 0.929 . S
H377 C386 0.929 . S
C378 H372 0.930 . S
C378 C379 1.367 . S
C378 C386 1.378 . S
C379 C378 1.367 . S
C379 C387 1.433 . S
C380 H376 0.929 . S
C380 C382 1.378 1_565 S
C380 C384 1.350 . S
C381 C384 1.463 . S
C381 C386 1.350 . S
C381 N389 1.427 . S
C382 H373 0.930 . S
C382 C380 1.378 1_545 S
C382 C383 1.367 . S
C383 C382 1.367 . S
C383 C385 1.433 . S
C384 C380 1.350 . S
C384 C381 1.463 . S
C384 N388 1.427 . S
C385 H375 0.929 . S
C385 C383 1.433 . S
C385 N388 1.384 1_545 S
C386 H377 0.929 . S
C386 C378 1.378 . S
C386 C381 1.350 . S
C387 H374 0.929 . S
C387 C379 1.433 . S
C387 N389 1.384 . S
N388 C384 1.427 . S
N388 C385 1.384 1_565 S
N389 C381 1.427 . S
N389 C387 1.384 . S
H390 C396 0.930 . S
H391 C400 0.930 . S
H392 C405 0.929 . S
H393 C403 0.929 . S
H394 C398 0.929 . S
H395 C404 0.929 . S
C396 H390 0.930 . S
C396 C397 1.367 . S
C396 C404 1.378 . S
C397 C396 1.367 . S
C397 C405 1.433 . S
C398 H394 0.929 . S
C398 C400 1.378 . S
C398 C402 1.350 . S
C399 C402 1.463 . S
C399 C404 1.350 . S
C399 N407 1.427 . S
C400 H391 0.930 . S
C400 C398 1.378 . S
C400 C401 1.367 . S
C401 C400 1.367 . S
C401 C403 1.433 . S
C402 C398 1.350 . S
C402 C399 1.463 . S
C402 N406 1.427 . S
C403 H393 0.929 . S
C403 C401 1.433 . S
C403 N406 1.384 . S
C404 H395 0.929 . S
C404 C396 1.378 . S
C404 C399 1.350 . S
C405 H392 0.929 . S
C405 C397 1.433 . S
C405 N407 1.384 . S
N406 C402 1.427 . S
N406 C403 1.384 . S
N407 C399 1.427 . S
N407 C405 1.384 . S
H408 C414 0.930 . S
H409 C418 0.930 . S
H410 C423 0.929 . S
H411 C421 0.929 . S
H412 C416 0.929 . S
H413 C422 0.929 . S
C414 H408 0.930 . S
C414 C415 1.367 . S
C414 C422 1.378 . S
C415 C414 1.367 . S
C415 C423 1.433 . S
C416 H412 0.929 . S
C416 C418 1.378 . S
C416 C420 1.350 . S
C417 C420 1.463 . S
C417 C422 1.350 . S
C417 N425 1.427 . S
C418 H409 0.930 . S
C418 C416 1.378 . S
C418 C419 1.367 . S
C419 C418 1.367 . S
C419 C421 1.433 . S
C420 C416 1.350 . S
C420 C417 1.463 . S
C420 N424 1.427 . S
C421 H411 0.929 . S
C421 C419 1.433 . S
C421 N424 1.384 . S
C422 H413 0.929 . S
C422 C414 1.378 . S
C422 C417 1.350 . S
C423 H410 0.929 . S
C423 C415 1.433 . S
C423 N425 1.384 . S
N424 C420 1.427 . S
N424 C421 1.384 . S
N425 C417 1.427 . S
N425 C423 1.384 . S
H426 C432 0.930 . S
H427 C436 0.930 . S
H428 C441 0.929 . S
H429 C439 0.929 . S
H430 C434 0.929 . S
H431 C440 0.929 . S
C432 H426 0.930 . S
C432 C433 1.367 . S
C432 C440 1.378 . S
C433 C432 1.367 . S
C433 C441 1.433 . S
C434 H430 0.929 . S
C434 C436 1.378 . S
C434 C438 1.350 . S
C435 C438 1.463 . S
C435 C440 1.350 . S
C435 N443 1.427 . S
C436 H427 0.930 . S
C436 C434 1.378 . S
C436 C437 1.367 . S
C437 C436 1.367 . S
C437 C439 1.433 . S
C438 C434 1.350 . S
C438 C435 1.463 . S
C438 N442 1.427 . S
C439 H429 0.929 . S
C439 C437 1.433 . S
C439 N442 1.384 . S
C440 H431 0.929 . S
C440 C432 1.378 . S
C440 C435 1.350 . S
C441 H428 0.929 . S
C441 C433 1.433 . S
C441 N443 1.384 . S
N442 C438 1.427 . S
N442 C439 1.384 . S
N443 C435 1.427 . S
N443 C441 1.384 . S
H444 C450 0.930 . S
H445 C454 0.930 . S
H446 C459 0.929 . S
H447 C457 0.929 . S
H448 C452 0.929 . S
H449 C458 0.929 . S
C450 H444 0.930 . S
C450 C451 1.367 . S
C450 C458 1.378 . S
C451 C450 1.367 . S
C451 C459 1.433 . S
C452 H448 0.929 . S
C452 C454 1.378 . S
C452 C456 1.350 . S
C453 C456 1.463 . S
C453 C458 1.350 . S
C453 N461 1.427 . S
C454 H445 0.930 . S
C454 C452 1.378 . S
C454 C455 1.367 . S
C455 C454 1.367 . S
C455 C457 1.433 . S
C456 C452 1.350 . S
C456 C453 1.463 . S
C456 N460 1.427 . S
C457 H447 0.929 . S
C457 C455 1.433 . S
C457 N460 1.384 . S
C458 H449 0.929 . S
C458 C450 1.378 . S
C458 C453 1.350 . S
C459 H446 0.929 . S
C459 C451 1.433 . S
C459 N461 1.384 . S
N460 C456 1.427 . S
N460 C457 1.384 . S
N461 C453 1.427 . S
N461 C459 1.384 . S
H462 C468 0.930 . S
H463 C472 0.930 . S
H464 C477 0.929 . S
H465 C475 0.929 . S
H466 C470 0.929 . S
H467 C476 0.929 . S
C468 H462 0.930 . S
C468 C469 1.367 . S
C468 C476 1.378 . S
C469 C468 1.367 . S
C469 C477 1.433 . S
C470 H466 0.929 . S
C470 C472 1.378 . S
C470 C474 1.350 . S
C471 C474 1.463 . S
C471 C476 1.350 . S
C471 N479 1.427 . S
C472 H463 0.930 . S
C472 C470 1.378 . S
C472 C473 1.367 . S
C473 C472 1.367 . S
C473 C475 1.433 . S
C474 C470 1.350 . S
C474 C471 1.463 . S
C474 N478 1.427 . S
C475 H465 0.929 . S
C475 C473 1.433 . S
C475 N478 1.384 . S
C476 H467 0.929 . S
C476 C468 1.378 . S
C476 C471 1.350 . S
C477 H464 0.929 . S
C477 C469 1.433 . S
C477 N479 1.384 . S
N478 C474 1.427 . S
N478 C475 1.384 . S
N479 C471 1.427 . S
N479 C477 1.384 . S
H480 C486 0.930 . S
H481 C490 0.930 . S
H482 C495 0.929 . S
H483 C493 0.929 . S
H484 C488 0.929 . S
H485 C494 0.929 . S
C486 H480 0.930 . S
C486 C487 1.367 . S
C486 C494 1.378 . S
C487 C486 1.367 . S
C487 C495 1.433 . S
C488 H484 0.929 . S
C488 C490 1.378 . S
C488 C492 1.350 . S
C489 C492 1.463 . S
C489 C494 1.350 . S
C489 N497 1.427 . S
C490 H481 0.930 . S
C490 C488 1.378 . S
C490 C491 1.367 . S
C491 C490 1.367 . S
C491 C493 1.433 . S
C492 C488 1.350 . S
C492 C489 1.463 . S
C492 N496 1.427 . S
C493 H483 0.929 . S
C493 C491 1.433 . S
C493 N496 1.384 . S
C494 H485 0.929 . S
C494 C486 1.378 . S
C494 C489 1.350 . S
C495 H482 0.929 . S
C495 C487 1.433 . S
C495 N497 1.384 . S
N496 C492 1.427 . S
N496 C493 1.384 . S
N497 C489 1.427 . S
N497 C495 1.384 . S
H498 C504 0.930 . S
H499 C508 0.930 . S
H500 C513 0.929 1_554 S
H501 C511 0.929 . S
H502 C506 0.929 1_554 S
H503 C512 0.929 . S
C504 H498 0.930 . S
C504 C505 1.367 . S
C504 C512 1.378 . S
C505 C504 1.367 . S
C505 C513 1.433 . S
C506 H502 0.929 1_556 S
C506 C508 1.378 . S
C506 C510 1.350 1_655 S
C507 C510 1.463 . S
C507 C512 1.350 . S
C507 N515 1.427 . S
C508 H499 0.930 . S
C508 C506 1.378 . S
C508 C509 1.367 . S
C509 C508 1.367 . S
C509 C511 1.433 . S
C510 C506 1.350 1_455 S
C510 C507 1.463 . S
C510 N514 1.425 1_455 S
C511 H501 0.929 . S
C511 C509 1.433 . S
C511 N514 1.401 . S
C512 H503 0.929 . S
C512 C504 1.378 . S
C512 C507 1.350 . S
C513 H500 0.929 1_556 S
C513 C505 1.433 . S
C513 N515 1.384 . S
N514 C510 1.425 1_655 S
N514 C511 1.401 . S
N515 C507 1.427 . S
N515 C513 1.384 . S
H516 C522 0.930 . S
H517 C526 0.930 . S
H518 C531 0.929 . S
H519 C529 0.929 1_554 S
H520 C524 0.929 . S
H521 C530 0.929 . S
C522 H516 0.930 . S
C522 C523 1.367 . S
C522 C530 1.378 . S
C523 C522 1.367 . S
C523 C531 1.433 . S
C524 H520 0.929 . S
C524 C526 1.378 . S
C524 C528 1.350 1_556 S
C525 C528 1.463 1_545 S
C525 C530 1.350 . S
C525 N533 1.427 . S
C526 H517 0.930 . S
C526 C524 1.378 . S
C526 C527 1.367 . S
C527 C526 1.367 . S
C527 C529 1.437 . S
C528 C524 1.350 1_554 S
C528 C525 1.463 1_565 S
C528 N532 1.427 . S
C529 H519 0.929 1_556 S
C529 C527 1.437 . S
C529 N532 1.380 1_556 S
C530 H521 0.929 . S
C530 C522 1.378 . S
C530 C525 1.350 . S
C531 H518 0.929 . S
C531 C523 1.433 . S
C531 N533 1.384 . S
N532 C528 1.427 . S
N532 C529 1.380 1_554 S
N533 C525 1.427 . S
N533 C531 1.384 . S
H534 C540 0.930 . S
H535 C544 0.930 . S
H536 C549 0.929 . S
H537 C547 0.929 . S
H538 C542 0.929 . S
H539 C548 0.929 . S
C540 H534 0.930 . S
C540 C541 1.367 . S
C540 C548 1.378 . S
C541 C540 1.367 . S
C541 C549 1.433 . S
C542 H538 0.929 . S
C542 C544 1.378 . S
C542 C546 1.350 . S
C543 C546 1.463 . S
C543 C548 1.350 . S
C543 N551 1.427 . S
C544 H535 0.930 . S
C544 C542 1.378 . S
C544 C545 1.367 . S
C545 C544 1.367 . S
C545 C547 1.433 . S
C546 C542 1.350 . S
C546 C543 1.463 . S
C546 N550 1.427 . S
C547 H537 0.929 . S
C547 C545 1.433 . S
C547 N550 1.384 . S
C548 H539 0.929 . S
C548 C540 1.378 . S
C548 C543 1.350 . S
C549 H536 0.929 . S
C549 C541 1.433 . S
C549 N551 1.384 . S
N550 C546 1.427 . S
N550 C547 1.384 . S
N551 C543 1.427 . S
N551 C549 1.384 . S
H552 C558 0.930 . S
H553 C562 0.930 . S
H554 C567 0.929 . S
H555 C565 0.929 . S
H556 C560 0.929 . S
H557 C566 0.929 . S
C558 H552 0.930 . S
C558 C559 1.367 . S
C558 C566 1.378 . S
C559 C558 1.367 . S
C559 C567 1.433 . S
C560 H556 0.929 . S
C560 C562 1.378 1_565 S
C560 C564 1.350 . S
C561 C564 1.463 . S
C561 C566 1.350 . S
C561 N569 1.427 . S
C562 H553 0.930 . S
C562 C560 1.378 1_545 S
C562 C563 1.367 . S
C563 C562 1.367 . S
C563 C565 1.433 . S
C564 C560 1.350 . S
C564 C561 1.463 . S
C564 N568 1.427 1_565 S
C565 H555 0.929 . S
C565 C563 1.433 . S
C565 N568 1.384 . S
C566 H557 0.929 . S
C566 C558 1.378 . S
C566 C561 1.350 . S
C567 H554 0.929 . S
C567 C559 1.433 . S
C567 N569 1.384 . S
N568 C564 1.427 1_545 S
N568 C565 1.384 . S
N569 C561 1.427 . S
N569 C567 1.384 . S
H570 C576 0.930 . S
H571 C580 0.930 . S
H572 C585 0.929 . S
H573 C583 0.929 . S
H574 C578 0.929 . S
H575 C584 0.929 . S
C576 H570 0.930 . S
C576 C577 1.367 . S
C576 C584 1.378 . S
C577 C576 1.367 . S
C577 C585 1.433 . S
C578 H574 0.929 . S
C578 C580 1.378 . S
C578 C582 1.350 . S
C579 C582 1.463 . S
C579 C584 1.350 . S
C579 N587 1.427 . S
C580 H571 0.930 . S
C580 C578 1.378 . S
C580 C581 1.367 . S
C581 C580 1.367 . S
C581 C583 1.433 . S
C582 C578 1.350 . S
C582 C579 1.463 . S
C582 N586 1.427 . S
C583 H573 0.929 . S
C583 C581 1.433 . S
C583 N586 1.384 . S
C584 H575 0.929 . S
C584 C576 1.378 . S
C584 C579 1.350 . S
C585 H572 0.929 . S
C585 C577 1.433 . S
C585 N587 1.384 . S
N586 C582 1.427 . S
N586 C583 1.384 . S
N587 C579 1.427 . S
N587 C585 1.384 . S
H588 C594 0.930 . S
H589 C598 0.930 . S
H590 C603 0.929 . S
H591 C601 0.929 . S
H592 C596 0.929 . S
H593 C602 0.929 . S
C594 H588 0.930 . S
C594 C595 1.367 . S
C594 C602 1.378 . S
C595 C594 1.367 . S
C595 C603 1.433 . S
C596 H592 0.929 . S
C596 C598 1.378 . S
C596 C600 1.350 . S
C597 C600 1.463 . S
C597 C602 1.350 . S
C597 N605 1.427 . S
C598 H589 0.930 . S
C598 C596 1.378 . S
C598 C599 1.367 . S
C599 C598 1.367 . S
C599 C601 1.433 . S
C600 C596 1.350 . S
C600 C597 1.463 . S
C600 N604 1.427 . S
C601 H591 0.929 . S
C601 C599 1.433 . S
C601 N604 1.384 . S
C602 H593 0.929 . S
C602 C594 1.378 . S
C602 C597 1.350 . S
C603 H590 0.929 . S
C603 C595 1.433 . S
C603 N605 1.384 . S
N604 C600 1.427 . S
N604 C601 1.384 . S
N605 C597 1.427 . S
N605 C603 1.384 . S
H606 C612 0.930 . S
H607 C616 0.930 . S
H608 C621 0.929 . S
H609 C619 0.929 . S
H610 C614 0.929 . S
H611 C620 0.929 . S
C612 H606 0.930 . S
C612 C613 1.367 . S
C612 C620 1.378 . S
C613 C612 1.367 . S
C613 C621 1.433 . S
C614 H610 0.929 . S
C614 C616 1.378 1_455 S
C614 C618 1.350 . S
C615 C618 1.463 . S
C615 C620 1.350 . S
C615 N623 1.427 . S
C616 H607 0.930 . S
C616 C614 1.378 1_655 S
C616 C617 1.367 1_655 S
C617 C616 1.367 1_455 S
C617 C619 1.433 . S
C618 C614 1.350 . S
C618 C615 1.463 . S
C618 N622 1.427 . S
C619 H609 0.929 . S
C619 C617 1.433 . S
C619 N622 1.384 . S
C620 H611 0.929 . S
C620 C612 1.378 . S
C620 C615 1.350 . S
C621 H608 0.929 . S
C621 C613 1.433 . S
C621 N623 1.384 . S
N622 C618 1.427 . S
N622 C619 1.384 . S
N623 C615 1.427 . S
N623 C621 1.384 . S
H624 C630 0.930 . S
H625 C634 0.930 . S
H626 C639 0.929 . S
H627 C637 0.929 . S
H628 C632 0.929 . S
H629 C638 0.929 . S
C630 H624 0.930 . S
C630 C631 1.367 . S
C630 C638 1.378 . S
C631 C630 1.367 . S
C631 C639 1.433 . S
C632 H628 0.929 . S
C632 C634 1.378 . S
C632 C636 1.350 . S
C633 C636 1.463 . S
C633 C638 1.350 . S
C633 N641 1.427 . S
C634 H625 0.930 . S
C634 C632 1.378 . S
C634 C635 1.367 . S
C635 C634 1.367 . S
C635 C637 1.433 . S
C636 C632 1.350 . S
C636 C633 1.463 . S
C636 N640 1.427 . S
C637 H627 0.929 . S
C637 C635 1.433 . S
C637 N640 1.384 . S
C638 H629 0.929 . S
C638 C630 1.378 . S
C638 C633 1.350 . S
C639 H626 0.929 . S
C639 C631 1.433 . S
C639 N641 1.384 . S
N640 C636 1.427 . S
N640 C637 1.384 . S
N641 C633 1.427 . S
N641 C639 1.384 . S
H642 C648 0.930 . S
H643 C652 0.930 . S
H644 C657 0.929 . S
H645 C655 0.929 . S
H646 C650 0.929 . S
H647 C656 0.949 . S
C648 H642 0.930 . S
C648 C649 1.367 . S
C648 C656 1.378 . S
C649 C648 1.367 . S
C649 C657 1.433 . S
C650 H646 0.929 . S
C650 C652 1.378 . S
C650 C654 1.350 . S
C651 C654 1.426 1_655 S
C651 C656 1.365 . S
C651 N659 1.448 . S
C652 H643 0.930 . S
C652 C650 1.378 . S
C652 C653 1.367 . S
C653 C652 1.367 . S
C653 C655 1.433 . S
C654 C650 1.350 . S
C654 C651 1.426 1_455 S
C654 N658 1.427 . S
C655 H645 0.929 . S
C655 C653 1.433 . S
C655 N658 1.384 . S
C656 H647 0.949 . S
C656 C648 1.378 . S
C656 C651 1.365 . S
C657 H644 0.929 . S
C657 C649 1.433 . S
C657 N659 1.384 . S
N658 C654 1.427 . S
N658 C655 1.384 . S
N659 C651 1.448 . S
N659 C657 1.384 . S
H660 C666 0.930 . S
H661 C670 0.930 . S
H662 C675 0.929 . S
H663 C673 0.929 . S
H664 C668 0.929 . S
H665 C674 0.929 . S
C666 H660 0.930 . S
C666 C667 1.367 . S
C666 C674 1.378 . S
C667 C666 1.367 . S
C667 C675 1.433 . S
C668 H664 0.929 . S
C668 C670 1.378 . S
C668 C672 1.350 . S
C669 C672 1.463 . S
C669 C674 1.350 . S
C669 N677 1.427 . S
C670 H661 0.930 . S
C670 C668 1.378 . S
C670 C671 1.367 . S
C671 C670 1.367 . S
C671 C673 1.433 . S
C672 C668 1.350 . S
C672 C669 1.463 . S
C672 N676 1.427 . S
C673 H663 0.929 . S
C673 C671 1.433 . S
C673 N676 1.384 . S
C674 H665 0.929 . S
C674 C666 1.378 . S
C674 C669 1.350 . S
C675 H662 0.929 . S
C675 C667 1.433 . S
C675 N677 1.384 . S
N676 C672 1.427 . S
N676 C673 1.384 . S
N677 C669 1.427 . S
N677 C675 1.384 . S
H678 C684 0.930 . S
H679 C688 0.930 . S
H680 C693 0.929 . S
H681 C691 0.929 . S
H682 C686 0.929 . S
H683 C692 0.929 . S
C684 H678 0.930 . S
C684 C685 1.367 . S
C684 C692 1.378 . S
C685 C684 1.367 . S
C685 C693 1.433 . S
C686 H682 0.929 . S
C686 C688 1.378 . S
C686 C690 1.350 . S
C687 C690 1.463 . S
C687 C692 1.350 . S
C687 N695 1.427 . S
C688 H679 0.930 . S
C688 C686 1.378 . S
C688 C689 1.367 . S
C689 C688 1.367 . S
C689 C691 1.433 . S
C690 C686 1.350 . S
C690 C687 1.463 . S
C690 N694 1.427 . S
C691 H681 0.929 . S
C691 C689 1.433 . S
C691 N694 1.384 . S
C692 H683 0.929 . S
C692 C684 1.378 . S
C692 C687 1.350 . S
C693 H680 0.929 . S
C693 C685 1.433 . S
C693 N695 1.384 . S
N694 C690 1.427 . S
N694 C691 1.384 . S
N695 C687 1.427 . S
N695 C693 1.384 . S
H696 C702 0.930 . S
H697 C706 0.930 . S
H698 C711 0.929 . S
H699 C709 0.929 . S
H700 C704 0.929 . S
H701 C710 0.929 . S
C702 H696 0.930 . S
C702 C703 1.367 . S
C702 C710 1.378 . S
C703 C702 1.367 . S
C703 C711 1.433 . S
C704 H700 0.929 . S
C704 C706 1.378 . S
C704 C708 1.350 . S
C705 C708 1.463 . S
C705 C710 1.350 . S
C705 N713 1.427 . S
C706 H697 0.930 . S
C706 C704 1.378 . S
C706 C707 1.367 . S
C707 C706 1.367 . S
C707 C709 1.433 . S
C708 C704 1.350 . S
C708 C705 1.463 . S
C708 N712 1.427 . S
C709 H699 0.929 . S
C709 C707 1.433 . S
C709 N712 1.384 . S
C710 H701 0.929 . S
C710 C702 1.378 . S
C710 C705 1.350 . S
C711 H698 0.929 . S
C711 C703 1.433 . S
C711 N713 1.384 . S
N712 C708 1.427 . S
N712 C709 1.384 . S
N713 C705 1.427 . S
N713 C711 1.384 . S
H714 C720 0.930 . S
H715 C724 0.930 . S
H716 C729 0.929 . S
H717 C727 0.929 . S
H718 C722 0.929 . S
H719 C728 0.929 . S
C720 H714 0.930 . S
C720 C721 1.367 . S
C720 C728 1.378 . S
C721 C720 1.367 . S
C721 C729 1.433 . S
C722 H718 0.929 . S
C722 C724 1.378 . S
C722 C726 1.350 . S
C723 C726 1.463 . S
C723 C728 1.350 . S
C723 N731 1.427 . S
C724 H715 0.930 . S
C724 C722 1.378 . S
C724 C725 1.367 . S
C725 C724 1.367 . S
C725 C727 1.433 . S
C726 C722 1.350 . S
C726 C723 1.463 . S
C726 N730 1.427 . S
C727 H717 0.929 . S
C727 C725 1.433 . S
C727 N730 1.384 . S
C728 H719 0.929 . S
C728 C720 1.378 . S
C728 C723 1.350 . S
C729 H716 0.929 . S
C729 C721 1.433 . S
C729 N731 1.384 . S
N730 C726 1.427 . S
N730 C727 1.384 . S
N731 C723 1.427 . S
N731 C729 1.384 . S
H732 C738 0.930 . S
H733 C742 0.930 . S
H734 C747 0.929 . S
H735 C745 0.929 . S
H736 C740 0.929 . S
H737 C746 0.929 . S
C738 H732 0.930 . S
C738 C739 1.367 . S
C738 C746 1.378 . S
C739 C738 1.367 . S
C739 C747 1.433 . S
C740 H736 0.929 . S
C740 C742 1.378 . S
C740 C744 1.350 . S
C741 C744 1.463 . S
C741 C746 1.350 . S
C741 N749 1.427 . S
C742 H733 0.930 . S
C742 C740 1.378 . S
C742 C743 1.367 . S
C743 C742 1.367 . S
C743 C745 1.433 . S
C744 C740 1.350 . S
C744 C741 1.463 . S
C744 N748 1.427 . S
C745 H735 0.929 . S
C745 C743 1.433 . S
C745 N748 1.384 . S
C746 H737 0.929 . S
C746 C738 1.378 . S
C746 C741 1.350 . S
C747 H734 0.929 . S
C747 C739 1.433 . S
C747 N749 1.384 . S
N748 C744 1.427 . S
N748 C745 1.384 . S
N749 C741 1.427 . S
N749 C747 1.384 . S
H750 C756 0.930 . S
H751 C760 0.930 . S
H752 C765 0.929 . S
H753 C763 0.929 . S
H754 C758 0.929 . S
H755 C764 0.929 . S
C756 H750 0.930 . S
C756 C757 1.367 . S
C756 C764 1.378 . S
C757 C756 1.367 . S
C757 C765 1.433 . S
C758 H754 0.929 . S
C758 C760 1.378 . S
C758 C762 1.350 . S
C759 C762 1.463 . S
C759 C764 1.350 1_556 S
C759 N767 1.427 1_556 S
C760 H751 0.930 . S
C760 C758 1.378 . S
C760 C761 1.367 . S
C761 C760 1.367 . S
C761 C763 1.433 . S
C762 C758 1.350 . S
C762 C759 1.463 . S
C762 N766 1.427 . S
C763 H753 0.929 . S
C763 C761 1.433 . S
C763 N766 1.384 . S
C764 H755 0.929 . S
C764 C756 1.378 . S
C764 C759 1.350 1_554 S
C765 H752 0.929 . S
C765 C757 1.433 . S
C765 N767 1.384 . S
N766 C762 1.427 . S
N766 C763 1.384 . S
N767 C759 1.427 1_554 S
N767 C765 1.384 . S
H768 C774 0.930 . S
H769 C778 0.930 . S
H770 C783 0.929 . S
H771 C781 0.929 . S
H772 C776 0.929 . S
H773 C782 0.929 . S
C774 H768 0.930 . S
C774 C775 1.367 . S
C774 C782 1.378 . S
C775 C774 1.367 . S
C775 C783 1.433 . S
C776 H772 0.929 . S
C776 C778 1.378 . S
C776 C780 1.350 . S
C777 C780 1.463 . S
C777 C782 1.350 . S
C777 N785 1.427 . S
C778 H769 0.930 . S
C778 C776 1.378 . S
C778 C779 1.367 . S
C779 C778 1.367 . S
C779 C781 1.433 . S
C780 C776 1.350 . S
C780 C777 1.463 . S
C780 N784 1.427 . S
C781 H771 0.929 . S
C781 C779 1.433 . S
C781 N784 1.384 . S
C782 H773 0.929 . S
C782 C774 1.378 . S
C782 C777 1.350 . S
C783 H770 0.929 . S
C783 C775 1.433 . S
C783 N785 1.384 . S
N784 C780 1.427 . S
N784 C781 1.384 . S
N785 C777 1.427 . S
N785 C783 1.384 . S
H786 C792 0.930 . S
H787 C796 0.930 . S
H788 C801 0.929 . S
H789 C799 0.929 . S
H790 C794 0.929 . S
H791 C800 0.929 . S
C792 H786 0.930 . S
C792 C793 1.367 . S
C792 C800 1.378 . S
C793 C792 1.367 . S
C793 C801 1.433 . S
C794 H790 0.929 . S
C794 C796 1.378 . S
C794 C798 1.350 . S
C795 C798 1.463 . S
C795 C800 1.350 . S
C795 N803 1.427 . S
C796 H787 0.930 . S
C796 C794 1.378 . S
C796 C797 1.367 . S
C797 C796 1.367 . S
C797 C799 1.433 . S
C798 C794 1.350 . S
C798 C795 1.463 . S
C798 N802 1.427 . S
C799 H789 0.929 . S
C799 C797 1.433 . S
C799 N802 1.384 . S
C800 H791 0.929 . S
C800 C792 1.378 . S
C800 C795 1.350 . S
C801 H788 0.929 . S
C801 C793 1.433 . S
C801 N803 1.384 . S
N802 C798 1.427 . S
N802 C799 1.384 . S
N803 C795 1.427 . S
N803 C801 1.384 . S
C379 C7 1.097 . S
C383 C115 1.097 . S
C397 C25 0.967 . S
C401 C151 0.984 . S
C415 C46 0.781 . S
C419 C187 0.826 1_545 S
C437 C217 0.965 . S
C433 C70 0.975 . S
C455 C259 1.087 . S
C451 C28 1.124 . S
C469 C49 0.961 . S
C473 C289 0.982 . S
C487 C67 0.807 . S
C491 C325 0.798 . S
C505 C4 0.970 . S
C509 C367 0.964 . S
C523 C58 1.967 . S
C527 C337 1.986 . S
C545 C229 1.898 . S
C541 C66 1.811 . S
C563 C295 1.869 . S
C559 C3 1.758 . S
C577 C37 1.590 . S
C581 C331 1.649 . S
C599 C121 2.001 . S
C595 C79 1.977 . S
C613 C16 1.570 . S
C617 C181 1.638 1_455 S
C635 C223 1.873 . S
C631 C24 1.754 . S
C653 C85 1.886 . S
C649 C45 1.811 . S
C671 C301 1.116 . S
C667 C19 1.092 . S
C689 C361 1.369 . S
C685 C41 1.165 . S
C703 C62 1.304 . S
C707 C253 1.552 . S
C725 C265 1.330 . S
C721 C82 1.254 . S
C743 C157 1.132 . S
C739 C40 1.085 . S
C757 C61 1.250 . S
C761 C193 1.327 . S
C779 C109 1.539 . S
C775 C83 1.292 . S
C797 C145 1.382 . S
C793 C20 1.170 . S
