# Generated by pormake.
# Topology ptr, (4,4)-cn, num edge types: 1
# Building blocks:
#     Node 0, Type 0, BuildingBlock: CEKHIL_clean_sbu_0, # of connection points: 4
#     Node 1, Type 0, BuildingBlock: CEKHIL_clean_sbu_0, # of connection points: 4
#     Node 2, Type 0, BuildingBlock: CEKHIL_clean_sbu_0, # of connection points: 4
#     Node 3, Type 0, BuildingBlock: CEKHIL_clean_sbu_0, # of connection points: 4
#     Node 4, Type 0, BuildingBlock: CEKHIL_clean_sbu_0, # of connection points: 4
#     Node 5, Type 0, BuildingBlock: CEKHIL_clean_sbu_0, # of connection points: 4
#     Node 6, Type 0, BuildingBlock: CEKHIL_clean_sbu_0, # of connection points: 4
#     Node 7, Type 0, BuildingBlock: CEKHIL_clean_sbu_0, # of connection points: 4
#     Node 8, Type 0, BuildingBlock: CEKHIL_clean_sbu_0, # of connection points: 4
#     Node 9, Type 0, BuildingBlock: CEKHIL_clean_sbu_0, # of connection points: 4
#     Node 10, Type 0, BuildingBlock: CEKHIL_clean_sbu_0, # of connection points: 4
#     Node 11, Type 0, BuildingBlock: CEKHIL_clean_sbu_0, # of connection points: 4
#     Node 12, Type 0, BuildingBlock: CEKHIL_clean_sbu_0, # of connection points: 4
#     Node 13, Type 0, BuildingBlock: CEKHIL_clean_sbu_0, # of connection points: 4
#     Node 14, Type 0, BuildingBlock: CEKHIL_clean_sbu_0, # of connection points: 4
#     Node 15, Type 0, BuildingBlock: CEKHIL_clean_sbu_0, # of connection points: 4
#     Node 16, Type 0, BuildingBlock: CEKHIL_clean_sbu_0, # of connection points: 4
#     Node 17, Type 0, BuildingBlock: CEKHIL_clean_sbu_0, # of connection points: 4
#     Node 18, Type 1, BuildingBlock: GIZVER_clean_linker_0, # of connection points: 4
#     Node 19, Type 1, BuildingBlock: GIZVER_clean_linker_0, # of connection points: 4
#     Node 20, Type 1, BuildingBlock: GIZVER_clean_linker_0, # of connection points: 4
#     Node 21, Type 1, BuildingBlock: GIZVER_clean_linker_0, # of connection points: 4
#     Node 22, Type 1, BuildingBlock: GIZVER_clean_linker_0, # of connection points: 4
#     Node 23, Type 1, BuildingBlock: GIZVER_clean_linker_0, # of connection points: 4
#     Node 24, Type 1, BuildingBlock: GIZVER_clean_linker_0, # of connection points: 4
#     Node 25, Type 1, BuildingBlock: GIZVER_clean_linker_0, # of connection points: 4
#     Node 26, Type 1, BuildingBlock: GIZVER_clean_linker_0, # of connection points: 4
#     Node 27, Type 1, BuildingBlock: GIZVER_clean_linker_0, # of connection points: 4
#     Node 28, Type 1, BuildingBlock: GIZVER_clean_linker_0, # of connection points: 4
#     Node 29, Type 1, BuildingBlock: GIZVER_clean_linker_0, # of connection points: 4
#     Node 30, Type 1, BuildingBlock: GIZVER_clean_linker_0, # of connection points: 4
#     Node 31, Type 1, BuildingBlock: GIZVER_clean_linker_0, # of connection points: 4
#     Node 32, Type 1, BuildingBlock: GIZVER_clean_linker_0, # of connection points: 4
#     Node 33, Type 1, BuildingBlock: GIZVER_clean_linker_0, # of connection points: 4
#     Node 34, Type 1, BuildingBlock: GIZVER_clean_linker_0, # of connection points: 4
#     Node 35, Type 1, BuildingBlock: GIZVER_clean_linker_0, # of connection points: 4
#     Edge 36, Type (0, 1), BuildingBlock: EZIPEK_clean_linker_0, # of connection points: 2
#     Edge 37, Type (0, 1), BuildingBlock: EZIPEK_clean_linker_0, # of connection points: 2
#     Edge 38, Type (0, 1), BuildingBlock: EZIPEK_clean_linker_0, # of connection points: 2
#     Edge 39, Type (0, 1), BuildingBlock: EZIPEK_clean_linker_0, # of connection points: 2
#     Edge 40, Type (0, 1), BuildingBlock: EZIPEK_clean_linker_0, # of connection points: 2
#     Edge 41, Type (0, 1), BuildingBlock: EZIPEK_clean_linker_0, # of connection points: 2
#     Edge 42, Type (0, 1), BuildingBlock: EZIPEK_clean_linker_0, # of connection points: 2
#     Edge 43, Type (0, 1), BuildingBlock: EZIPEK_clean_linker_0, # of connection points: 2
#     Edge 44, Type (0, 1), BuildingBlock: EZIPEK_clean_linker_0, # of connection points: 2
#     Edge 45, Type (0, 1), BuildingBlock: EZIPEK_clean_linker_0, # of connection points: 2
#     Edge 46, Type (0, 1), BuildingBlock: EZIPEK_clean_linker_0, # of connection points: 2
#     Edge 47, Type (0, 1), BuildingBlock: EZIPEK_clean_linker_0, # of connection points: 2
#     Edge 48, Type (0, 1), BuildingBlock: EZIPEK_clean_linker_0, # of connection points: 2
#     Edge 49, Type (0, 1), BuildingBlock: EZIPEK_clean_linker_0, # of connection points: 2
#     Edge 50, Type (0, 1), BuildingBlock: EZIPEK_clean_linker_0, # of connection points: 2
#     Edge 51, Type (0, 1), BuildingBlock: EZIPEK_clean_linker_0, # of connection points: 2
#     Edge 52, Type (0, 1), BuildingBlock: EZIPEK_clean_linker_0, # of connection points: 2
#     Edge 53, Type (0, 1), BuildingBlock: EZIPEK_clean_linker_0, # of connection points: 2
#     Edge 54, Type (0, 1), BuildingBlock: EZIPEK_clean_linker_0, # of connection points: 2
#     Edge 55, Type (0, 1), BuildingBlock: EZIPEK_clean_linker_0, # of connection points: 2
#     Edge 56, Type (0, 1), BuildingBlock: EZIPEK_clean_linker_0, # of connection points: 2
#     Edge 57, Type (0, 1), BuildingBlock: EZIPEK_clean_linker_0, # of connection points: 2
#     Edge 58, Type (0, 1), BuildingBlock: EZIPEK_clean_linker_0, # of connection points: 2
#     Edge 59, Type (0, 1), BuildingBlock: EZIPEK_clean_linker_0, # of connection points: 2
#     Edge 60, Type (0, 1), BuildingBlock: EZIPEK_clean_linker_0, # of connection points: 2
#     Edge 61, Type (0, 1), BuildingBlock: EZIPEK_clean_linker_0, # of connection points: 2
#     Edge 62, Type (0, 1), BuildingBlock: EZIPEK_clean_linker_0, # of connection points: 2
#     Edge 63, Type (0, 1), BuildingBlock: EZIPEK_clean_linker_0, # of connection points: 2
#     Edge 64, Type (0, 1), BuildingBlock: EZIPEK_clean_linker_0, # of connection points: 2
#     Edge 65, Type (0, 1), BuildingBlock: EZIPEK_clean_linker_0, # of connection points: 2
#     Edge 66, Type (0, 1), BuildingBlock: EZIPEK_clean_linker_0, # of connection points: 2
#     Edge 67, Type (0, 1), BuildingBlock: EZIPEK_clean_linker_0, # of connection points: 2
#     Edge 68, Type (0, 1), BuildingBlock: EZIPEK_clean_linker_0, # of connection points: 2
#     Edge 69, Type (0, 1), BuildingBlock: EZIPEK_clean_linker_0, # of connection points: 2
#     Edge 70, Type (0, 1), BuildingBlock: EZIPEK_clean_linker_0, # of connection points: 2
#     Edge 71, Type (0, 1), BuildingBlock: EZIPEK_clean_linker_0, # of connection points: 2
#     Edge 72, Type (0, 1), BuildingBlock: EZIPEK_clean_linker_0, # of connection points: 2
#     Edge 73, Type (0, 1), BuildingBlock: EZIPEK_clean_linker_0, # of connection points: 2
#     Edge 74, Type (0, 1), BuildingBlock: EZIPEK_clean_linker_0, # of connection points: 2
#     Edge 75, Type (0, 1), BuildingBlock: EZIPEK_clean_linker_0, # of connection points: 2
#     Edge 76, Type (0, 1), BuildingBlock: EZIPEK_clean_linker_0, # of connection points: 2
#     Edge 77, Type (0, 1), BuildingBlock: EZIPEK_clean_linker_0, # of connection points: 2
#     Edge 78, Type (0, 1), BuildingBlock: EZIPEK_clean_linker_0, # of connection points: 2
#     Edge 79, Type (0, 1), BuildingBlock: EZIPEK_clean_linker_0, # of connection points: 2
#     Edge 80, Type (0, 1), BuildingBlock: EZIPEK_clean_linker_0, # of connection points: 2
#     Edge 81, Type (0, 1), BuildingBlock: EZIPEK_clean_linker_0, # of connection points: 2
#     Edge 82, Type (0, 1), BuildingBlock: EZIPEK_clean_linker_0, # of connection points: 2
#     Edge 83, Type (0, 1), BuildingBlock: EZIPEK_clean_linker_0, # of connection points: 2
#     Edge 84, Type (0, 1), BuildingBlock: EZIPEK_clean_linker_0, # of connection points: 2
#     Edge 85, Type (0, 1), BuildingBlock: EZIPEK_clean_linker_0, # of connection points: 2
#     Edge 86, Type (0, 1), BuildingBlock: EZIPEK_clean_linker_0, # of connection points: 2
#     Edge 87, Type (0, 1), BuildingBlock: EZIPEK_clean_linker_0, # of connection points: 2
#     Edge 88, Type (0, 1), BuildingBlock: EZIPEK_clean_linker_0, # of connection points: 2
#     Edge 89, Type (0, 1), BuildingBlock: EZIPEK_clean_linker_0, # of connection points: 2
#     Edge 90, Type (0, 1), BuildingBlock: EZIPEK_clean_linker_0, # of connection points: 2
#     Edge 91, Type (0, 1), BuildingBlock: EZIPEK_clean_linker_0, # of connection points: 2
#     Edge 92, Type (0, 1), BuildingBlock: EZIPEK_clean_linker_0, # of connection points: 2
#     Edge 93, Type (0, 1), BuildingBlock: EZIPEK_clean_linker_0, # of connection points: 2
#     Edge 94, Type (0, 1), BuildingBlock: EZIPEK_clean_linker_0, # of connection points: 2
#     Edge 95, Type (0, 1), BuildingBlock: EZIPEK_clean_linker_0, # of connection points: 2
#     Edge 96, Type (0, 1), BuildingBlock: EZIPEK_clean_linker_0, # of connection points: 2
#     Edge 97, Type (0, 1), BuildingBlock: EZIPEK_clean_linker_0, # of connection points: 2
#     Edge 98, Type (0, 1), BuildingBlock: EZIPEK_clean_linker_0, # of connection points: 2
#     Edge 99, Type (0, 1), BuildingBlock: EZIPEK_clean_linker_0, # of connection points: 2
#     Edge 100, Type (0, 1), BuildingBlock: EZIPEK_clean_linker_0, # of connection points: 2
#     Edge 101, Type (0, 1), BuildingBlock: EZIPEK_clean_linker_0, # of connection points: 2
#     Edge 102, Type (0, 1), BuildingBlock: EZIPEK_clean_linker_0, # of connection points: 2
#     Edge 103, Type (0, 1), BuildingBlock: EZIPEK_clean_linker_0, # of connection points: 2
#     Edge 104, Type (0, 1), BuildingBlock: EZIPEK_clean_linker_0, # of connection points: 2
#     Edge 105, Type (0, 1), BuildingBlock: EZIPEK_clean_linker_0, # of connection points: 2
#     Edge 106, Type (0, 1), BuildingBlock: EZIPEK_clean_linker_0, # of connection points: 2
#     Edge 107, Type (0, 1), BuildingBlock: EZIPEK_clean_linker_0, # of connection points: 2
# Relax obj value: 0.048
# Max RMSD: 0.108
# Mean RMSD: 0.077
data_MOF--net-ptr--node1-CEKHIL_clean_sbu_0--node2-GIZVER_clean_linker_0--edge1-EZIPEK_clean_linker_0
_symmetry_space_group_name_H-M    P1
_symmetry_Int_Tables_number       1
_symmetry_cell_setting            triclinic
loop_
_symmetry_equiv_pos_as_xyz
'x, y, z'
_cell_length_a     59.234685
_cell_length_b     58.494503
_cell_length_c     36.489644
_cell_angle_alpha  91.497302
_cell_angle_beta   89.787117
_cell_angle_gamma 121.01579
loop_
_atom_site_label
_atom_site_type_symbol
_atom_site_fract_x
_atom_site_fract_y
_atom_site_fract_z
_atom_type_partial_charge
Co0 Co 0.00846 0.37509 0.01286 0.0
O1 O 0.02141 0.3585 0.0452 0.0
O2 O 0.04631 0.39215 0.0092 0.0
C3 C 0.97428 0.33588 0.99008 0.0
O4 O 1.00434 0.39744 0.97441 0.0
Co5 Co 0.95453 0.36999 0.01627 0.0
O6 O 0.96395 0.39147 0.97175 0.0
C7 C 0.99538 0.40504 0.07015 0.0
C8 C 0.04473 0.37534 0.03303 0.0
C9 C 0.98727 0.40188 0.95988 0.0
O10 O 0.01217 0.40084 0.05351 0.0
O11 O 0.97121 0.39394 0.06031 0.0
O12 O 0.99789 0.34589 0.97699 0.0
O13 O 0.97191 0.34926 0.01708 0.0
Co14 Co 0.63637 0.63715 0.00826 0.0
O15 O 0.66726 0.65549 0.97752 0.0
O16 O 0.65773 0.62121 0.01219 0.0
C17 C 0.63957 0.67492 0.03239 0.0
O18 O 0.60883 0.61301 0.04504 0.0
Co19 Co 0.58615 0.63993 0.00454 0.0
O20 O 0.57305 0.61658 0.04726 0.0
C21 C 0.59603 0.6098 0.94722 0.0
C22 C 0.6737 0.6388 0.98944 0.0
C23 C 0.58653 0.60697 0.05894 0.0
O24 O 0.61574 0.6124 0.96571 0.0
O25 O 0.58272 0.62046 0.95717 0.0
O26 O 0.65359 0.66568 0.04563 0.0
O27 O 0.62457 0.66169 0.00467 0.0
Co28 Co 0.37383 0.99665 0.00542 0.0
O29 O 0.36136 0.01575 0.9778 0.0
O30 O 0.39096 0.03354 0.02281 0.0
C31 C 0.33339 0.96003 0.01502 0.0
O32 O 0.39066 0.98354 0.04157 0.0
Co33 Co 0.36697 0.94347 0.97748 0.0
O34 O 0.38115 0.94205 0.02567 0.0
C35 C 0.40474 0.99272 0.94176 0.0
C36 C 0.37716 0.0366 -0.00207 0.0
C37 C 0.39129 0.96226 0.04753 0.0
O38 O 0.40298 0.00627 0.96877 0.0
O39 O 0.38972 0.96741 0.93815 0.0
O40 O 0.3424 0.98151 0.03561 0.0
O41 O 0.34815 0.96201 0.98762 0.0
Co42 Co 1.00299 0.63744 0.01824 0.0
O43 O 0.98484 0.64921 0.98726 0.0
O44 O 0.96532 0.61685 0.02705 0.0
C45 C 0.03536 0.6799 0.03386 0.0
O46 O 0.01496 0.62006 0.05573 0.0
Co47 Co 0.06091 0.65246 0.00624 0.0
O48 O 0.05904 0.64187 0.05774 0.0
C49 C 0.01776 0.61172 0.95801 0.0
C50 C 0.96323 0.63125 0.00225 0.0
C51 C 0.03677 0.62498 0.07076 0.0
O52 O 0.99994 0.61142 0.97862 0.0
O53 O 0.04256 0.62754 0.96327 0.0
O54 O 0.01328 0.6682 0.05167 0.0
O55 O 0.0368 0.66542 0.00793 0.0
Co56 Co 0.37584 0.37032 -0.00058 0.0
O57 O 0.34529 0.35517 0.03033 0.0
O58 O 0.35415 0.3852 0.9882 0.0
C59 C 0.37299 0.3309 0.98439 0.0
O60 O 0.4043 0.39007 0.96118 0.0
Co61 Co 0.42494 0.36796 0.01804 0.0
O62 O 0.4414 0.39025 0.97465 0.0
C63 C 0.41162 0.40096 0.06317 0.0
C64 C 0.3386 0.37019 0.01371 0.0
C65 C 0.42829 0.39683 0.95455 0.0
O66 O 0.39625 0.39977 0.03745 0.0
O67 O 0.42182 0.38631 0.06284 0.0
O68 O 0.35897 0.33855 0.9671 0.0
O69 O 0.38685 0.34619 0.01174 0.0
Co70 Co 0.63321 0.00612 0.00375 0.0
O71 O 0.65057 0.99307 0.03446 0.0
O72 O 0.61929 0.96848 0.99356 0.0
C73 C 0.67106 0.0439 0.98764 0.0
O74 O 0.61095 0.01056 0.965 0.0
Co75 Co 0.63319 0.05773 0.01581 0.0
O76 O 0.61649 0.05135 0.96689 0.0
C77 C 0.60079 0.01265 0.06326 0.0
C78 C 0.63572 0.96994 0.01822 0.0
C79 C 0.60726 0.0285 0.95155 0.0
O80 O 0.60614 0.99768 0.04312 0.0
O81 O 0.61035 0.03743 0.05762 0.0
O82 O 0.66316 0.0211 0.97077 0.0
O83 O 0.65651 0.04332 0.0146 0.0
Co84 Co 0.66473 0.71031 0.34218 0.0
O85 O 0.67348 0.69006 0.37417 0.0
O86 O 0.70227 0.72409 0.34219 0.0
C87 C 0.62951 0.67369 0.31615 0.0
O88 O 0.66494 0.73563 0.30454 0.0
Co89 Co 0.6133 0.71061 0.34293 0.0
O90 O 0.62562 0.73181 0.2981 0.0
C91 C 0.65371 0.74203 0.3991 0.0
C92 C 0.69786 0.70544 0.36471 0.0
C93 C 0.64935 0.74139 0.28834 0.0
O94 O 0.66934 0.73573 0.38352 0.0
O95 O 0.63011 0.73332 0.38808 0.0
O96 O 0.65329 0.68211 0.30466 0.0
O97 O 0.62756 0.68708 0.34348 0.0
Co98 Co 0.31167 0.96994 0.34613 0.0
O99 O 0.34253 0.98702 0.31549 0.0
O100 O 0.33063 0.95138 0.34861 0.0
C101 C 0.31742 0.00795 0.37277 0.0
O102 O 0.28258 0.94642 0.38143 0.0
Co103 Co 0.26463 0.97877 0.34081 0.0
O104 O 0.25038 0.95579 0.3837 0.0
C105 C 0.26885 0.94234 0.28746 0.0
C106 C 0.34713 0.96868 0.32589 0.0
C107 C 0.26088 0.94286 0.3946 0.0
O108 O 0.28995 0.94638 0.30352 0.0
O109 O 0.25628 0.95378 0.29758 0.0
O110 O 0.33027 0.99713 0.3849 0.0
O111 O 0.30281 0.99662 0.34403 0.0
Co112 Co 0.03835 0.33131 0.336 0.0
O113 O 0.03039 0.35113 0.30188 0.0
O114 O 0.05668 0.36893 0.35039 0.0
C115 C 0.99586 0.29678 0.34221 0.0
O116 O 0.05079 0.31802 0.37818 0.0
Co117 Co 0.02713 0.27411 0.31808 0.0
O118 O 0.03836 0.27483 0.3691 0.0
C119 C 0.07402 0.32063 0.28707 0.0
C120 C 0.0455 0.37222 0.3221 0.0
C121 C 0.04928 0.29636 0.38841 0.0
O122 O 0.06931 0.33685 0.30538 0.0
O123 O 0.05772 0.29544 0.28563 0.0
O124 O 0.00477 0.31913 0.36081 0.0
O125 O 0.01237 0.29687 0.31904 0.0
Co126 Co 0.67869 0.98005 0.34073 0.0
O127 O 0.65733 0.98899 0.31164 0.0
O128 O 0.64177 0.95745 0.35294 0.0
C129 C 0.70974 0.02351 0.35421 0.0
O130 O 0.6943 0.96559 0.37711 0.0
Co131 Co 0.73655 0.99823 0.32113 0.0
O132 O 0.73752 0.98217 0.36747 0.0
C133 C 0.69229 0.95509 0.27771 0.0
C134 C 0.63713 0.97026 0.32835 0.0
C135 C 0.7166 0.96805 0.3855 0.0
O136 O 0.67541 0.95384 0.30109 0.0
O137 O 0.71696 0.97243 0.27972 0.0
O138 O 0.68847 0.01088 0.37361 0.0
O139 O 0.71111 0.00942 0.32761 0.0
Co140 Co 0.03579 0.70164 0.34829 0.0
O141 O 1.00325 0.68779 0.37434 0.0
O142 O 0.01416 0.7137 0.32616 0.0
C143 C 0.03587 0.66287 0.34472 0.0
O144 O 0.067 0.71893 0.31369 0.0
Co145 Co 0.08394 0.70454 0.38425 0.0
O146 O 0.10072 0.71585 0.3359 0.0
C147 C 0.06896 0.74293 0.40779 0.0
C148 C 0.99731 0.70069 0.35171 0.0
C149 C 0.09017 0.72223 0.311 0.0
O150 O 0.05222 0.73447 0.38127 0.0
O151 O 0.08252 0.73237 0.41573 0.0
O152 O 0.0225 0.66793 0.32155 0.0
O153 O 0.04695 0.68033 0.37136 0.0
Co154 Co 0.29702 0.33018 0.34078 0.0
O155 O 0.31023 0.31313 0.37139 0.0
O156 O 0.28128 0.29277 0.32615 0.0
C157 C 0.33693 0.36723 0.32971 0.0
O158 O 0.27999 0.34092 0.3015 0.0
Co159 Co 0.30058 0.38206 0.36435 0.0
O160 O 0.28458 0.38062 0.3161 0.0
C161 C 0.26371 0.33407 0.40187 0.0
C162 C 0.2953 0.29137 0.35235 0.0
C163 C 0.27713 0.3607 0.29418 0.0
O164 O 0.26706 0.32054 0.3763 0.0
O165 O 0.2775 0.35949 0.40439 0.0
O166 O 0.32855 0.34502 0.3111 0.0
O167 O 0.32212 0.3659 0.35687 0.0
Co168 Co 0.3258 0.02857 0.67311 0.0
O169 O 0.34141 0.01167 0.69955 0.0
O170 O 0.36286 0.0449 0.66181 0.0
C171 C 0.28922 0.99031 0.65374 0.0
O172 O 0.31794 0.05111 0.63932 0.0
Co173 Co 0.27381 0.02471 0.69248 0.0
O174 O 0.28071 0.05033 0.65352 0.0
C175 C 0.31892 0.05214 0.74324 0.0
C176 C 0.36355 0.02837 0.68417 0.0
C177 C 0.30111 0.05844 0.63401 0.0
O178 O 0.33387 0.05397 0.7164 0.0
O179 O 0.29391 0.03981 0.73934 0.0
O180 O 0.31133 0.99963 0.63633 0.0
O181 O 0.29005 0.00334 0.68337 0.0
Co182 Co 0.9681 0.30148 0.68102 0.0
O183 O 0.99899 0.31724 0.65023 0.0
O184 O 0.98919 0.28571 0.69025 0.0
C185 C 0.97109 0.3403 0.69902 0.0
O186 O 0.93988 0.28069 0.71912 0.0
Co187 Co 0.91851 0.30387 0.66737 0.0
O188 O 0.90257 0.28077 0.70974 0.0
C189 C 0.92806 0.26832 0.62081 0.0
C190 C 0.00499 0.30113 0.66531 0.0
C191 C 0.91616 0.27376 0.72784 0.0
O192 O 0.94805 0.27375 0.64101 0.0
O193 O 0.91406 0.27889 0.62623 0.0
O194 O 0.98498 0.33194 0.71507 0.0
O195 O 0.95691 0.32595 0.67118 0.0
Co196 Co 0.7182 0.67726 0.66607 0.0
O197 O 0.70638 0.69334 0.6313 0.0
O198 O 0.7327 0.71471 0.67885 0.0
C199 C 0.6781 0.63951 0.67536 0.0
O200 O 0.73375 0.66778 0.70875 0.0
Co201 Co 0.7165 0.62542 0.64702 0.0
O202 O 0.72969 0.62785 0.69739 0.0
C203 C 0.75926 0.67441 0.61725 0.0
C204 C 0.72029 0.71551 0.65006 0.0
C205 C 0.73655 0.6483 0.71793 0.0
O206 O 0.75063 0.68749 0.63527 0.0
O207 O 0.74663 0.64895 0.61569 0.0
O208 O 0.68491 0.66202 0.69219 0.0
O209 O 0.69436 0.641 0.65025 0.0
Co210 Co 0.33058 0.30202 0.68555 0.0
O211 O 0.31424 0.31607 0.65484 0.0
O212 O 0.29327 0.28487 0.69577 0.0
C213 C 0.36629 0.34242 0.70177 0.0
O214 O 0.33995 0.28262 0.72332 0.0
Co215 Co 0.38417 0.30822 0.66785 0.0
O216 O 0.37823 0.28514 0.70989 0.0
C217 C 0.33852 0.27318 0.62167 0.0
C218 C 0.29218 0.29939 0.67027 0.0
C219 C 0.35793 0.27698 0.72963 0.0
O220 O 0.32322 0.27413 0.64596 0.0
O221 O 0.3636 0.28757 0.62356 0.0
O222 O 0.3441 0.33316 0.71899 0.0
O223 O 0.3659 0.32785 0.67422 0.0
Co224 Co 0.70216 0.03221 0.67272 0.0
O225 O 0.67191 0.02134 0.7034 0.0
O226 O 0.68477 0.05154 0.66045 0.0
C227 C 0.69267 0.98976 0.6606 0.0
O228 O 0.7312 0.0478 0.63418 0.0
Co229 Co 0.74598 0.01938 0.68953 0.0
O230 O 0.76023 0.03423 0.64126 0.0
C231 C 0.74211 0.06058 0.73329 0.0
C232 C 0.66798 0.03798 0.68575 0.0
C233 C 0.75146 0.04664 0.6238 0.0
O234 O 0.7253 0.0603 0.7107 0.0
O235 O 0.75073 0.04455 0.73088 0.0
O236 O 0.6817 1.00007 0.64165 0.0
O237 O 0.70841 0.00531 0.68616 0.0
Co238 Co 0.95591 0.65658 0.66733 0.0
O239 O 0.97446 0.64585 0.69921 0.0
O240 O 0.94022 0.61821 0.66404 0.0
C241 C 0.99291 0.69089 0.64334 0.0
O242 O 0.93218 0.65951 0.62929 0.0
Co243 Co 0.961 0.7118 0.6726 0.0
O244 O 0.9458 0.70267 0.6224 0.0
C245 C 0.92899 0.67107 0.72697 0.0
C246 C 0.95828 0.6216 0.68736 0.0
C247 C 0.93224 0.67834 0.61166 0.0
O248 O 0.93199 0.6536 0.70891 0.0
O249 O 0.9396 0.69543 0.71764 0.0
O250 O 0.98336 0.66659 0.63081 0.0
O251 O 0.98059 0.69354 0.67091 0.0
H252 H 0.15942 0.33807 0.16087 0.0
H253 H 0.15268 0.36515 0.05506 0.0
H254 H 0.10599 0.36524 0.14535 0.0
H255 H 0.16723 0.32093 0.09714 0.0
H256 H 0.17573 0.34249 0.05969 0.0
H257 H 0.20008 0.3541 0.1609 0.0
H258 H 0.27567 0.36896 0.12927 0.0
H259 H 0.21934 0.35664 0.04594 0.0
C260 C 0.15308 0.34854 0.1438 0.0
C261 C 0.13403 0.35367 0.15793 0.0
C262 C 0.16104 0.35357 0.10702 0.0
C263 C 0.14846 0.36297 0.0841 0.0
C264 C 0.12822 0.36667 0.09779 0.0
C265 C 0.12183 0.36282 0.13487 0.0
C266 C 0.17703 0.34232 0.09008 0.0
C267 C 0.2059 0.35506 0.10182 0.0
C268 C 0.21349 0.35731 0.13908 0.0
C269 C 0.23848 0.36208 0.14898 0.0
C270 C 0.2565 0.36567 0.12168 0.0
C271 C 0.24987 0.36426 0.0847 0.0
C272 C 0.22469 0.35904 0.07476 0.0
H273 H 0.68496 0.83543 0.15837 0.0
H274 H 0.66554 0.80331 0.04735 0.0
H275 H 0.64996 0.75167 0.1373 0.0
H276 H 0.70655 0.86287 0.09701 0.0
H277 H 0.68729 0.85005 0.05619 0.0
H278 H 0.68587 0.87253 0.15393 0.0
H279 H 0.64512 0.91191 0.12461 0.0
H280 H 0.66004 0.86768 0.04222 0.0
C281 C 0.67563 0.81875 0.13912 0.0
C282 C 0.66614 0.79304 0.15226 0.0
C283 C 0.67403 0.82269 0.10134 0.0
C284 C 0.66504 0.80057 0.07665 0.0
C285 C 0.6572 0.77516 0.08976 0.0
C286 C 0.65642 0.77144 0.12737 0.0
C287 C 0.68594 0.85066 0.08658 0.0
C288 C 0.6716 0.8651 0.09772 0.0
C289 C 0.67416 0.87524 0.13389 0.0
C290 C 0.66405 0.8915 0.14366 0.0
C291 C 0.65153 0.89805 0.11723 0.0
C292 C 0.6511 0.89063 0.08048 0.0
C293 C 0.66003 0.87311 0.07084 0.0
H294 H 0.18232 0.79058 0.18424 0.0
H295 H 0.15556 0.78412 0.07243 0.0
H296 H 0.10048 0.74024 0.15698 0.0
H297 H 0.21169 0.79736 0.1299 0.0
H298 H 0.20082 0.79824 0.08481 0.0
H299 H 0.20691 0.83608 0.17518 0.0
H300 H 0.26725 0.91025 0.13254 0.0
H301 H 0.22946 0.84068 0.06153 0.0
C302 C 0.16657 0.78351 0.1641 0.0
C303 C 0.14051 0.76618 0.1749 0.0
C304 C 0.17231 0.7904 0.12702 0.0
C305 C 0.15143 0.77966 0.10118 0.0
C306 C 0.12559 0.76083 0.11173 0.0
C307 C 0.12035 0.75472 0.14866 0.0
C308 C 0.20058 0.80437 0.11388 0.0
C309 C 0.2156 0.83459 0.11765 0.0
C310 C 0.21828 0.84733 0.15205 0.0
C311 C 0.23689 0.87459 0.15735 0.0
C312 C 0.25261 0.88925 0.12821 0.0
C313 C 0.24966 0.87739 0.09355 0.0
C314 C 0.23105 0.85004 0.08818 0.0
H315 H 0.37533 0.20048 0.84447 0.0
H316 H 0.37175 0.21332 0.9607 0.0
H317 H 0.34611 0.24967 0.88395 0.0
H318 H 0.40667 0.19982 0.89089 0.0
H319 H 0.40043 0.19952 0.93854 0.0
H320 H 0.36522 0.15759 0.85255 0.0
H321 H 0.35736 0.08709 0.8977 0.0
H322 H 0.38922 0.15862 0.96475 0.0
C323 C 0.3682 0.20715 0.86725 0.0
C324 C 0.35769 0.22339 0.86024 0.0
C325 C 0.37253 0.20245 0.90371 0.0
C326 C 0.36628 0.21456 0.93283 0.0
C327 C 0.35811 0.23268 0.92544 0.0
C328 C 0.35193 0.23526 0.88955 0.0
C329 C 0.39058 0.19175 0.91135 0.0
C330 C 0.37751 0.16163 0.90949 0.0
C331 C 0.3668 0.14759 0.87603 0.0
C332 C 0.35954 0.12078 0.87203 0.0
C333 C 0.36267 0.10777 0.90129 0.0
C334 C 0.37319 0.12114 0.93473 0.0
C335 C 0.38032 0.14804 0.9391 0.0
H336 H 0.85355 0.18023 0.85466 0.0
H337 H 0.876 0.20411 0.96838 0.0
H338 H 0.91272 0.26053 0.88302 0.0
H339 H 0.85292 0.14801 0.91148 0.0
H340 H 0.84685 0.15823 0.95473 0.0
H341 H 0.82196 0.13873 0.85735 0.0
H342 H 0.74141 0.1034 0.888 0.0
H343 H 0.80224 0.14358 0.96993 0.0
C344 C 0.86474 0.19504 0.87576 0.0
C345 C 0.88298 0.22101 0.86504 0.0
C346 C 0.86183 0.18845 0.91316 0.0
C347 C 0.87761 0.20862 0.93954 0.0
C348 C 0.89603 0.23457 0.92852 0.0
C349 C 0.89858 0.24044 0.89144 0.0
C350 C 0.84489 0.15965 0.92469 0.0
C351 C 0.81593 0.14624 0.91402 0.0
C352 C 0.80776 0.13667 0.87771 0.0
C353 C 0.78096 0.122 0.86821 0.0
C354 C 0.76213 0.11617 0.89514 0.0
C355 C 0.7696 0.12255 0.93192 0.0
C356 C 0.7965 0.1388 0.94131 0.0
H357 H 0.83566 0.63254 0.84914 0.0
H358 H 0.84325 0.6147 0.96115 0.0
H359 H 0.90826 0.64231 0.88746 0.0
H360 H 0.79638 0.59201 0.89287 0.0
H361 H 0.80085 0.60167 0.93982 0.0
H362 H 0.79615 0.62432 0.8453 0.0
H363 H 0.74882 0.65542 0.88286 0.0
H364 H 0.78073 0.62544 0.96063 0.0
C365 C 0.84708 0.63209 0.87166 0.0
C366 C 0.8732 0.63905 0.86479 0.0
C367 C 0.83573 0.62317 0.9064 0.0
C368 C 0.85155 0.62208 0.93449 0.0
C369 C 0.87769 0.62898 0.92762 0.0
C370 C 0.88821 0.63731 0.89284 0.0
C371 C 0.80604 0.60977 0.9118 0.0
C372 C 0.79358 0.62647 0.90452 0.0
C373 C 0.78959 0.63142 0.86816 0.0
C374 C 0.77431 0.64276 0.86066 0.0
C375 C 0.76209 0.64839 0.88922 0.0
C376 C 0.76349 0.6413 0.92493 0.0
C377 C 0.78025 0.63155 0.93301 0.0
H378 H 0.84084 0.69815 0.48041 0.0
H379 H 0.79555 0.68106 0.38029 0.0
H380 H 0.77512 0.7089 0.47754 0.0
H381 H 0.81929 0.65227 0.41359 0.0
H382 H 0.83415 0.67652 0.37993 0.0
H383 H 0.84631 0.663 0.47798 0.0
H384 H 0.92749 0.69033 0.45686 0.0
H385 H 0.87922 0.69322 0.37197 0.0
C386 C 0.82562 0.69799 0.46435 0.0
C387 C 0.80758 0.70261 0.48306 0.0
C388 C 0.82091 0.68884 0.42748 0.0
C389 C 0.80011 0.68875 0.40833 0.0
C390 C 0.78437 0.69741 0.42566 0.0
C391 C 0.78842 0.70431 0.46314 0.0
C392 C 0.83336 0.67393 0.4101 0.0
C393 C 0.86014 0.68011 0.42451 0.0
C394 C 0.86307 0.67265 0.45997 0.0
C395 C 0.88777 0.67784 0.47246 0.0
C396 C 0.90875 0.68756 0.44799 0.0
C397 C 0.90542 0.69212 0.41159 0.0
C398 C 0.88155 0.68951 0.40024 0.0
H399 H 0.3278 0.15511 0.50904 0.0
H400 H 0.33061 0.12889 0.39777 0.0
H401 H 0.31833 0.07853 0.48832 0.0
H402 H 0.35989 0.18701 0.45006 0.0
H403 H 0.34402 0.17389 0.4072 0.0
H404 H 0.33496 0.19478 0.50201 0.0
H405 H 0.29335 0.23084 0.46235 0.0
H406 H 0.31476 0.18748 0.3874 0.0
C407 C 0.32645 0.14044 0.48932 0.0
C408 C 0.3218 0.11601 0.50233 0.0
C409 C 0.33 0.14568 0.45137 0.0
C410 C 0.32808 0.12552 0.42695 0.0
C411 C 0.32419 0.10141 0.44031 0.0
C412 C 0.3215 0.09718 0.47792 0.0
C413 C 0.34024 0.1736 0.43713 0.0
C414 C 0.32341 0.18592 0.44476 0.0
C415 C 0.32368 0.19637 0.48007 0.0
C416 C 0.31212 0.21177 0.48653 0.0
C417 C 0.30066 0.21742 0.45748 0.0
C418 C 0.30282 0.21 0.42154 0.0
C419 C 0.31274 0.19287 0.41533 0.0
H420 H 0.84557 0.11697 0.50619 0.0
H421 H 0.83064 0.12737 0.39536 0.0
H422 H 0.76604 0.08052 0.46819 0.0
H423 H 0.87861 0.12711 0.45774 0.0
H424 H 0.87157 0.13046 0.4114 0.0
H425 H 0.87794 0.16487 0.50411 0.0
H426 H 0.93631 0.24136 0.4647 0.0
H427 H 0.89757 0.17433 0.38918 0.0
C428 C 0.83177 0.11405 0.48455 0.0
C429 C 0.80469 0.09908 0.49117 0.0
C430 C 0.84094 0.1239 0.44947 0.0
C431 C 0.82265 0.11942 0.42156 0.0
C432 C 0.79516 0.10423 0.42757 0.0
C433 C 0.78679 0.09373 0.46272 0.0
C434 C 0.86981 0.1359 0.44028 0.0
C435 C 0.88596 0.16589 0.44604 0.0
C436 C 0.88912 0.17719 0.48153 0.0
C437 C 0.90712 0.20441 0.48813 0.0
C438 C 0.92226 0.22032 0.45937 0.0
C439 C 0.91854 0.20991 0.42355 0.0
C440 C 0.90022 0.1826 0.41683 0.0
H441 H 0.05709 0.54991 0.18524 0.0
H442 H 0.05618 0.56054 0.30279 0.0
H443 H 0.03717 0.60538 0.2313 0.0
H444 H 0.08789 0.54447 0.23016 0.0
H445 H 0.08125 0.54261 0.27787 0.0
H446 H 0.04059 0.50674 0.19132 0.0
H447 H 0.0292 0.43169 0.22284 0.0
H448 H 0.06966 0.49953 0.29639 0.0
C449 C 0.05286 0.55837 0.20911 0.0
C450 C 0.04521 0.57729 0.20402 0.0
C451 C 0.05707 0.55209 0.24474 0.0
C452 C 0.05264 0.56458 0.27525 0.0
C453 C 0.04558 0.58385 0.27023 0.0
C454 C 0.04213 0.59011 0.23485 0.0
C455 C 0.07163 0.53718 0.2503 0.0
C456 C 0.05555 0.50688 0.24558 0.0
C457 C 0.04235 0.49499 0.21214 0.0
C458 C 0.03324 0.46806 0.20385 0.0
C459 C 0.03603 0.45245 0.22962 0.0
C460 C 0.04862 0.4634 0.2632 0.0
C461 C 0.05856 0.49071 0.2712 0.0
H462 H 0.5248 0.51192 0.18849 0.0
H463 H 0.52826 0.54466 0.29712 0.0
H464 H 0.56764 0.5965 0.20809 0.0
H465 H 0.51456 0.48513 0.24764 0.0
H466 H 0.50892 0.49809 0.28912 0.0
H467 H 0.48169 0.48869 0.19118 0.0
H468 H 0.40619 0.42423 0.22158 0.0
H469 H 0.46453 0.46857 0.30498 0.0
C470 C 0.52977 0.5288 0.20672 0.0
C471 C 0.54523 0.55468 0.19342 0.0
C472 C 0.52167 0.52489 0.24372 0.0
C473 C 0.53208 0.54728 0.268 0.0
C474 C 0.5495 0.5729 0.25517 0.0
C475 C 0.55448 0.57653 0.21782 0.0
C476 C 0.50618 0.49702 0.25884 0.0
C477 C 0.47689 0.4815 0.24942 0.0
C478 C 0.46831 0.47742 0.2126 0.0
C479 C 0.44334 0.45604 0.20216 0.0
C480 C 0.42553 0.44086 0.22932 0.0
C481 C 0.43264 0.4462 0.26638 0.0
C482 C 0.45852 0.46601 0.27643 0.0
H483 H 0.50256 0.95981 0.17966 0.0
H484 H 0.5109 0.93924 0.2898 0.0
H485 H 0.57735 0.97517 0.21832 0.0
H486 H 0.4651 0.91462 0.2217 0.0
H487 H 0.46797 0.92485 0.2683 0.0
H488 H 0.45935 0.94125 0.17201 0.0
H489 H 0.41104 0.97209 0.20736 0.0
H490 H 0.44959 0.95105 0.28751 0.0
C491 C 0.51434 0.9594 0.2018 0.0
C492 C 0.54111 0.969 0.19549 0.0
C493 C 0.5029 0.94829 0.23567 0.0
C494 C 0.51921 0.94797 0.26369 0.0
C495 C 0.5461 0.95777 0.25741 0.0
C496 C 0.55668 0.96791 0.22327 0.0
C497 C 0.47312 0.93263 0.2401 0.0
C498 C 0.45884 0.94723 0.23091 0.0
C499 C 0.4528 0.94907 0.19409 0.0
C500 C 0.43627 0.95888 0.18568 0.0
C501 C 0.42507 0.9661 0.21397 0.0
C502 C 0.4293 0.96276 0.25052 0.0
C503 C 0.44698 0.95433 0.25914 0.0
H504 H 0.49607 0.02005 0.81694 0.0
H505 H 0.47305 0.01822 0.70405 0.0
H506 H 0.42901 0.02603 0.79166 0.0
H507 H 0.49277 0.98498 0.75421 0.0
H508 H 0.50383 0.00521 0.71549 0.0
H509 H 0.52054 0.00307 0.81555 0.0
H510 H 0.60282 0.04027 0.79393 0.0
H511 H 0.54948 0.02963 0.70698 0.0
C512 C 0.48401 0.02161 0.79642 0.0
C513 C 0.46224 0.02311 0.80848 0.0
C514 C 0.48767 0.01854 0.75876 0.0
C515 C 0.47103 0.02081 0.73315 0.0
C516 C 0.45048 0.02452 0.74515 0.0
C517 C 0.44599 0.02507 0.78262 0.0
C518 C 0.50374 0.00616 0.74597 0.0
C519 C 0.53182 0.01851 0.76072 0.0
C520 C 0.53667 0.01447 0.79721 0.0
C521 C 0.56245 0.02378 0.80982 0.0
C522 C 0.58315 0.03468 0.78486 0.0
C523 C 0.57834 0.03542 0.74764 0.0
C524 C 0.55306 0.02899 0.73593 0.0
H525 H 0.01827 0.49653 0.83411 0.0
H526 H 0.99939 0.46924 0.7211 0.0
H527 H 0.98277 0.41344 0.80582 0.0
H528 H 0.0398 0.52689 0.77716 0.0
H529 H 0.02282 0.51577 0.73429 0.0
H530 H 0.01698 0.53388 0.83222 0.0
H531 H 0.97272 0.5697 0.80245 0.0
H532 H 0.99108 0.528 0.72027 0.0
C533 C 0.00914 0.48056 0.81368 0.0
C534 C 0.9994 0.45424 0.82445 0.0
C535 C 0.00794 0.48612 0.77652 0.0
C536 C 0.99873 0.46516 0.75001 0.0
C537 C 0.99033 0.43913 0.76071 0.0
C538 C 0.98945 0.43369 0.79781 0.0
C539 C 0.01986 0.51461 0.76447 0.0
C540 C 1.00373 0.52699 0.77561 0.0
C541 C 0.00513 0.53629 0.81199 0.0
C542 C 0.99346 0.55113 0.82173 0.0
C543 C 0.98028 0.5568 0.79515 0.0
C544 C 0.98008 0.54929 0.75844 0.0
C545 C 0.99077 0.53333 0.74885 0.0
H546 H 0.51095 0.47556 0.82568 0.0
H547 H 0.48092 0.46488 0.71513 0.0
H548 H 0.42934 0.42158 0.80281 0.0
H549 H 0.53748 0.47982 0.76694 0.0
H550 H 0.52615 0.48433 0.72434 0.0
H551 H 0.5345 0.51913 0.81856 0.0
H552 H 0.60347 0.59026 0.78426 0.0
H553 H 0.56009 0.52609 0.70613 0.0
C554 C 0.49457 0.46847 0.80664 0.0
C555 C 0.46912 0.45027 0.81892 0.0
C556 C 0.49907 0.47503 0.76923 0.0
C557 C 0.47757 0.46207 0.74432 0.0
C558 C 0.4528 0.44176 0.75624 0.0
C559 C 0.4484 0.4374 0.79365 0.0
C560 C 0.52696 0.48887 0.75428 0.0
C561 C 0.54415 0.51886 0.76113 0.0
C562 C 0.54746 0.53029 0.79665 0.0
C563 C 0.5688 0.55598 0.80494 0.0
C564 C 0.58663 0.57066 0.77756 0.0
C565 C 0.58328 0.56027 0.74183 0.0
C566 C 0.56181 0.53454 0.73349 0.0
H567 H 0.7405 0.89491 0.50235 0.0
H568 H 0.71727 0.89291 0.6151 0.0
H569 H 0.70417 0.9389 0.53734 0.0
H570 H 0.76126 0.88341 0.55225 0.0
H571 H 0.75153 0.88304 0.59884 0.0
H572 H 0.70912 0.84608 0.515 0.0
H573 H 0.69499 0.77034 0.54882 0.0
H574 H 0.74436 0.84039 0.61526 0.0
C575 C 0.73106 0.90019 0.52365 0.0
C576 C 0.72102 0.91665 0.51545 0.0
C577 C 0.72969 0.89135 0.55974 0.0
C578 C 0.718 0.8991 0.58716 0.0
C579 C 0.70952 0.91692 0.57932 0.0
C580 C 0.71065 0.92508 0.54342 0.0
C581 C 0.74392 0.87702 0.57022 0.0
C582 C 0.72718 0.84685 0.56699 0.0
C583 C 0.71137 0.83441 0.5356 0.0
C584 C 0.70008 0.80695 0.52896 0.0
C585 C 0.70344 0.79154 0.55446 0.0
C586 C 0.71905 0.80331 0.5858 0.0
C587 C 0.7311 0.83105 0.592 0.0
H588 H 0.18201 0.84177 0.50557 0.0
H589 H 0.18361 0.86182 0.62081 0.0
H590 H 0.23498 0.9216 0.54596 0.0
H591 H 0.16289 0.80656 0.55293 0.0
H592 H 0.16157 0.81544 0.59983 0.0
H593 H 0.13744 0.83032 0.51312 0.0
H594 H 0.05597 0.78182 0.54373 0.0
H595 H 0.11627 0.78485 0.61037 0.0
C596 C 0.18924 0.85634 0.52809 0.0
C597 C 0.2091 0.88279 0.52164 0.0
C598 C 0.179 0.84867 0.56368 0.0
C599 C 0.19011 0.86762 0.59299 0.0
C600 C 0.21064 0.89378 0.58646 0.0
C601 C 0.21925 0.90129 0.55082 0.0
C602 C 0.15894 0.81965 0.5711 0.0
C603 C 0.13034 0.81158 0.56476 0.0
C604 C 0.12243 0.81815 0.53222 0.0
C605 C 0.09549 0.80699 0.52286 0.0
C606 C 0.07681 0.79089 0.549 0.0
C607 C 0.08396 0.78187 0.57943 0.0
C608 C 0.11075 0.79249 0.5875 0.0
H609 H 0.15863 0.28338 0.51201 0.0
H610 H 0.17083 0.27812 0.62731 0.0
H611 H 0.23605 0.30981 0.55359 0.0
H612 H 0.12279 0.24815 0.55798 0.0
H613 H 0.12718 0.25791 0.605 0.0
H614 H 0.11826 0.27757 0.51073 0.0
H615 H 0.06953 0.30656 0.5514 0.0
H616 H 0.10872 0.2833 0.62734 0.0
C617 C 0.17158 0.28778 0.53529 0.0
C618 C 0.19861 0.29855 0.52906 0.0
C619 C 0.1613 0.28139 0.57101 0.0
C620 C 0.17854 0.28478 0.60018 0.0
C621 C 0.20545 0.29473 0.59376 0.0
C622 C 0.21536 0.30246 0.55857 0.0
C623 C 0.13166 0.26595 0.57689 0.0
C624 C 0.11768 0.28122 0.57001 0.0
C625 C 0.11156 0.28439 0.53382 0.0
C626 C 0.09463 0.29402 0.52723 0.0
C627 C 0.08366 0.30044 0.5567 0.0
C628 C 0.08815 0.2961 0.59265 0.0
C629 C 0.10593 0.28743 0.59949 0.0
C630 C 0.02777 0.44828 0.10247 0.0
C631 C 1.00411 0.42302 0.10309 0.0
C632 C 0.99626 0.43309 0.16566 0.0
C633 C 0.02208 0.45565 0.16734 0.0
N634 N 0.06429 0.48263 0.13836 0.0
N635 N 0.96858 0.38909 0.13887 0.0
C636 C 0.03836 0.4629 0.13595 0.0
C637 C 0.98887 0.41483 0.13554 0.0
N638 N 0.03977 0.45868 0.06998 0.0
N639 N 0.97898 0.42892 0.19322 0.0
H640 H 0.9637 0.37421 0.11881 0.0
H641 H 0.95862 0.38174 0.16335 0.0
H642 H 0.98388 0.4422 0.21558 0.0
H643 H 0.95916 0.41393 0.19182 0.0
H644 H 0.05577 0.47806 0.06791 0.0
H645 H 0.03201 0.4491 0.04468 0.0
H646 H 0.07754 0.48648 0.11719 0.0
H647 H 0.07316 0.49362 0.1624 0.0
C648 C 0.54917 0.56871 0.09164 0.0
C649 C 0.57636 0.58872 0.09044 0.0
C650 C 0.58258 0.57458 0.15016 0.0
C651 C 0.55498 0.5601 0.15513 0.0
N652 N 0.51136 0.54362 0.1304 0.0
N653 N 0.6185 0.61317 0.1226 0.0
C654 C 0.53799 0.5568 0.12561 0.0
C655 C 0.59318 0.59204 0.12044 0.0
N656 N 0.53419 0.56073 0.0603 0.0
N657 N 0.5986 0.57245 0.17487 0.0
H658 H 0.62674 0.62819 0.10353 0.0
H659 H 0.63042 0.61753 0.14577 0.0
H660 H 0.59109 0.5597 0.19697 0.0
H661 H 0.61881 0.58103 0.17111 0.0
H662 H 0.51483 0.54472 0.05918 0.0
H663 H 0.54207 0.56811 0.03467 0.0
H664 H 0.49836 0.54338 0.11101 0.0
H665 H 0.5024 0.53434 0.15468 0.0
C666 C 0.43091 0.97901 0.089 0.0
C667 C 0.40372 0.96074 0.08181 0.0
C668 C 0.40072 0.93745 0.13808 0.0
C669 C 0.42679 0.95777 0.1477 0.0
N670 N 0.4664 0.99908 0.1342 0.0
N671 N 0.3616 0.92502 0.10216 0.0
C672 C 0.44191 0.97883 0.12356 0.0
C673 C 0.38832 0.94046 0.10693 0.0
N674 N 0.44637 0.9959 0.06238 0.0
N675 N 0.38789 0.91519 0.15877 0.0
H676 H 0.35154 0.92708 0.08032 0.0
H677 H 0.34904 0.9119 0.12166 0.0
H678 H 0.39646 0.91234 0.18179 0.0
H679 H 0.36986 0.8985 0.15115 0.0
H680 H 0.46679 0.00779 0.06459 0.0
H681 H 0.43906 0.9964 0.03664 0.0
H682 H 0.47717 0.0166 0.11982 0.0
H683 H 0.47537 0.99905 0.15874 0.0
C684 C 0.42996 0.02863 0.89496 0.0
C685 C 0.42578 0.00592 0.91404 0.0
C686 C 0.44897 0.9963 0.86647 0.0
C687 C 0.454 0.01946 0.84768 0.0
N688 N 0.45735 0.06234 0.85156 0.0
N689 N 0.44145 0.976 0.92551 0.0
C690 C 0.44738 0.03734 0.86471 0.0
C691 C 0.43899 0.99262 0.90244 0.0
N692 N 0.41602 0.0407 0.90348 0.0
N693 N 0.45112 0.97646 0.84934 0.0
H694 H 0.43494 0.97355 0.95255 0.0
H695 H 0.45261 0.96733 0.91902 0.0
H696 H 0.45556 0.97641 0.82175 0.0
H697 H 0.4453 0.95836 0.86161 0.0
H698 H 0.4166 0.05559 0.88771 0.0
H699 H 0.40214 0.03437 0.9242 0.0
H700 H 0.4547 0.07683 0.86468 0.0
H701 H 0.47056 0.06933 0.82984 0.0
C702 C 0.98648 0.43838 0.92588 0.0
C703 C 0.99481 0.41955 0.92786 0.0
C704 C 0.01589 0.43418 0.8684 0.0
C705 C 1.00193 0.44749 0.8627 0.0
N706 N 0.97231 0.46116 0.88601 0.0
N707 N 0.01433 0.39674 0.89683 0.0
C708 C 0.98701 0.44966 0.8916 0.0
C709 C 0.0091 0.41694 0.89828 0.0
N710 N 0.97871 0.446 0.95681 0.0
N711 N 0.03515 0.43752 0.84461 0.0
H712 H 0.00778 0.38194 0.91619 0.0
H713 H 0.02254 0.39283 0.87395 0.0
H714 H 0.04071 0.45038 0.82265 0.0
H715 H 0.04735 0.42988 0.84912 0.0
H716 H 0.97455 0.46128 0.95731 0.0
H717 H 0.97946 0.43926 0.98273 0.0
H718 H 0.9589 0.46057 0.90509 0.0
H719 H 0.97205 0.46959 0.86133 0.0
C720 C 0.58492 0.56922 0.90745 0.0
C721 C 0.5891 0.59535 0.91122 0.0
C722 C 0.57409 0.59229 0.84797 0.0
C723 C 0.57348 0.56793 0.84259 0.0
N724 N 0.5834 0.53564 0.86564 0.0
N725 N 0.59443 0.63436 0.88152 0.0
C726 C 0.58025 0.55696 0.8719 0.0
C727 C 0.58553 0.60764 0.8805 0.0
N728 N 0.58441 0.5557 0.9377 0.0
N729 N 0.56347 0.60067 0.82218 0.0
H730 H 0.60472 0.64692 0.90387 0.0
H731 H 0.59439 0.64458 0.85857 0.0
H732 H 0.55429 0.58957 0.79826 0.0
H733 H 0.56133 0.61715 0.82642 0.0
H734 H 0.57888 0.53565 0.93661 0.0
H735 H 0.58694 0.56364 0.96431 0.0
H736 H 0.59099 0.52872 0.88531 0.0
H737 H 0.58079 0.5264 0.83991 0.0
C738 C 0.01883 0.60877 0.89021 0.0
C739 C 0.00966 0.59541 0.9237 0.0
C740 C 0.98797 0.55228 0.89027 0.0
C741 C 0.99976 0.56577 0.85752 0.0
N742 N 0.03158 0.60632 0.82807 0.0
N743 N 0.98824 0.55446 0.95684 0.0
C744 C 0.01674 0.59388 0.85801 0.0
C745 C 0.99484 0.56711 0.92416 0.0
N746 N 0.0287 0.63564 0.88885 0.0
N747 N 0.96987 0.52553 0.88883 0.0
H748 H 0.99293 0.56472 0.98209 0.0
H749 H 0.97987 0.53394 0.95904 0.0
H750 H 0.96476 0.5141 0.86451 0.0
H751 H 0.95861 0.51506 0.91114 0.0
H752 H 0.03317 0.64582 0.86438 0.0
H753 H 0.02968 0.64725 0.91169 0.0
H754 H 0.0462 0.62646 0.82841 0.0
H755 H 0.03133 0.59607 0.80411 0.0
C756 C 0.44731 0.39949 0.89229 0.0
C757 C 0.441 0.41193 0.92114 0.0
C758 C 0.45715 0.45209 0.88474 0.0
C759 C 0.46422 0.43985 0.8566 0.0
N760 N 0.47205 0.40494 0.83688 0.0
N761 N 0.44429 0.45162 0.94815 0.0
C762 C 0.46141 0.41458 0.86167 0.0
C763 C 0.44727 0.43876 0.91839 0.0
N764 N 0.43832 0.37279 0.89298 0.0
N765 N 0.45903 0.47596 0.87872 0.0
H766 H 0.43698 0.44239 0.97309 0.0
H767 H 0.4509 0.47192 0.94912 0.0
H768 H 0.46728 0.48668 0.85501 0.0
H769 H 0.45131 0.4845 0.89623 0.0
H770 H 0.43984 0.362 0.87094 0.0
H771 H 0.42689 0.36077 0.91415 0.0
H772 H 0.47288 0.38782 0.84086 0.0
H773 H 0.48237 0.41547 0.81394 0.0
C774 C 0.59635 0.01032 0.886 0.0
C775 C 0.5917 0.02262 0.9169 0.0
C776 C 0.5643 0.03291 0.87846 0.0
C777 C 0.56824 0.01975 0.84811 0.0
N778 N 0.57975 0.98766 0.82716 0.0
N779 N 0.56362 0.03679 0.9446 0.0
C780 C 0.58137 0.00553 0.85345 0.0
C781 C 0.57319 0.03109 0.91381 0.0
N782 N 0.61632 0.00508 0.88631 0.0
N783 N 0.55343 0.04831 0.87355 0.0
H784 H 0.56861 0.03429 0.97097 0.0
H785 H 0.54845 0.04087 0.94388 0.0
H786 H 0.547 0.05061 0.84813 0.0
H787 H 0.55281 0.06056 0.8943 0.0
H788 H 0.62184 0.99853 0.86301 0.0
H789 H 0.62935 0.01003 0.90826 0.0
H790 H 0.58721 0.97518 0.83101 0.0
H791 H 0.5684 0.98333 0.80332 0.0
C792 C 0.59274 0.01587 0.13025 0.0
C793 C 0.58424 1.00139 0.09624 0.0
C794 C 0.54662 0.96476 0.12716 0.0
C795 C 0.55371 0.98067 0.15998 0.0
N796 N 0.57936 0.02423 0.18922 0.0
N797 N 0.54945 0.96458 0.06094 0.0
C798 C 0.57536 0.00722 0.16026 0.0
C799 C 0.56006 0.97654 0.0942 0.0
N800 N 0.618 0.0368 0.13491 0.0
N801 N 0.52803 0.93819 0.12762 0.0
H802 H 0.55811 0.97307 0.03613 0.0
H803 H 0.5307 0.94769 0.05796 0.0
H804 H 0.51809 0.92859 0.15125 0.0
H805 H 0.52424 0.92522 0.10524 0.0
H806 H 0.62559 0.04629 0.16028 0.0
H807 H 0.63235 0.04253 0.11481 0.0
H808 H 0.59364 0.04449 0.18919 0.0
H809 H 0.5666 0.01872 0.21143 0.0
C810 C 0.01765 0.60168 0.13112 0.0
C811 C 0.03649 0.60918 0.1027 0.0
C812 C 0.06118 0.59491 0.1401 0.0
C813 C 0.04113 0.58515 0.1669 0.0
N814 N 0.99598 0.57132 0.18055 0.0
N815 N 0.06982 0.60197 0.07553 0.0
C816 C 0.01787 0.58582 0.15985 0.0
C817 C 0.05627 0.60234 0.10567 0.0
N818 N 1.0007 0.61096 0.13252 0.0
N819 N 0.08546 0.59875 0.14777 0.0
H820 H 0.06518 0.60475 0.0491 0.0
H821 H 0.08309 0.5953 0.07632 0.0
H822 H 0.09084 0.59562 0.17344 0.0
H823 H 0.10114 0.608 0.12967 0.0
H824 H 0.98831 0.60767 0.15466 0.0
H825 H 1.00112 0.62449 0.11415 0.0
H826 H 0.97795 0.5696 0.17461 0.0
H827 H 0.99515 0.5587 0.2009 0.0
C828 C 0.44716 0.43422 0.10418 0.0
C829 C 0.42036 0.42134 0.09337 0.0
C830 C 0.41209 0.4411 0.14785 0.0
C831 C 0.43676 0.44718 0.16291 0.0
N832 N 0.47539 0.44299 0.1561 0.0
N833 N 0.37613 0.41117 0.10723 0.0
C834 C 0.45397 0.44241 0.14117 0.0
C835 C 0.40243 0.42473 0.11543 0.0
N836 N 0.46598 0.43791 0.07937 0.0
N837 N 0.39798 0.45088 0.16443 0.0
H838 H 0.36798 0.39831 0.08452 0.0
H839 H 0.36215 0.41107 0.12476 0.0
H840 H 0.40502 0.46364 0.18752 0.0
H841 H 0.38084 0.44865 0.15296 0.0
H842 H 0.48606 0.4488 0.0858 0.0
H843 H 0.46156 0.43277 0.0516 0.0
H844 H 0.487 0.43753 0.1411 0.0
H845 H 0.47961 0.44533 0.18408 0.0
C846 C 0.68836 0.785 0.42841 0.0
C847 C 0.66384 0.76078 0.43104 0.0
C848 C 0.66006 0.77276 0.49448 0.0
C849 C 0.68662 0.79396 0.4938 0.0
N850 N 0.72768 0.81787 0.46093 0.0
N851 N 0.62789 0.72956 0.46874 0.0
C852 C 0.70123 0.79969 0.4609 0.0
C853 C 0.64984 0.75418 0.46453 0.0
N854 N 0.69913 0.79423 0.39489 0.0
N855 N 0.64474 0.77031 0.52394 0.0
H856 H 0.62037 0.71468 0.44822 0.0
H857 H 0.61867 0.72294 0.49387 0.0
H858 H 0.65175 0.78386 0.54619 0.0
H859 H 0.62456 0.75658 0.5245 0.0
H860 H 0.71581 0.813 0.39144 0.0
H861 H 0.68978 0.78445 0.3703 0.0
H862 H 0.73955 0.82042 0.4384 0.0
H863 H 0.73832 0.82866 0.48423 0.0
C864 C 0.21958 0.90747 0.42406 0.0
C865 C 0.24754 0.92334 0.42413 0.0
C866 C 0.2483 0.90252 0.48108 0.0
C867 C 0.2209 0.89198 0.48501 0.0
N868 N 0.18116 0.88878 0.46226 0.0
N869 N 0.2885 0.93914 0.45789 0.0
C870 C 0.20657 0.89534 0.45688 0.0
C871 C 0.26207 0.92149 0.45373 0.0
N872 N 0.20541 0.90355 0.39267 0.0
N873 N 0.26123 0.89504 0.50429 0.0
H874 H 0.29931 0.95517 0.44089 0.0
H875 H 0.29914 0.93981 0.481 0.0
H876 H 0.25147 0.88108 0.52456 0.0
H877 H 0.28086 0.90056 0.50079 0.0
H878 H 0.18507 0.89052 0.39101 0.0
H879 H 0.21429 0.91068 0.36744 0.0
H880 H 0.17098 0.89368 0.44385 0.0
H881 H 0.1712 0.88076 0.48653 0.0
C882 C 0.04548 0.2774 0.45028 0.0
C883 C 0.06134 0.29626 0.42385 0.0
C884 C 0.09993 0.31351 0.46472 0.0
C885 C 0.08439 0.29337 0.48985 0.0
N886 N 0.04412 0.2524 0.50292 0.0
N887 N 0.10467 0.32867 0.40242 0.0
C888 C 0.05768 0.27412 0.48142 0.0
C889 C 0.08889 0.31339 0.43007 0.0
N890 N 0.01864 0.26341 0.44642 0.0
N891 N 0.12495 0.33317 0.47436 0.0
H892 H 0.09748 0.32888 0.37647 0.0
H893 H 0.12516 0.33935 0.40411 0.0
H894 H 0.13389 0.33346 0.49909 0.0
H895 H 0.13616 0.3501 0.45899 0.0
H896 H 0.00595 0.25143 0.46672 0.0
H897 H 0.00886 0.26579 0.42447 0.0
H898 H 0.02543 0.23639 0.49614 0.0
H899 H 0.05256 0.24909 0.52568 0.0
C900 C 0.11434 0.35856 0.25628 0.0
C901 C 0.09765 0.33102 0.26282 0.0
C902 C 0.11099 0.31919 0.20573 0.0
C903 C 0.12424 0.34636 0.19586 0.0
N904 N 0.14152 0.39267 0.21286 0.0
N905 N 0.0963 0.28923 0.25623 0.0
C906 C 0.12714 0.36639 0.22176 0.0
C907 C 0.10116 0.31254 0.24153 0.0
N908 N 0.11983 0.37678 0.28414 0.0
N909 N 0.10583 0.29939 0.18043 0.0
H910 H 0.09185 0.28531 0.28391 0.0
H911 H 0.10043 0.27596 0.24254 0.0
H912 H 0.11101 0.30285 0.15295 0.0
H913 H 0.0939 0.2792 0.18604 0.0
H914 H 0.13296 0.39718 0.28214 0.0
H915 H 0.1136 0.37102 0.31087 0.0
H916 H 0.14177 0.40802 0.22828 0.0
H917 H 0.15268 0.39909 0.18907 0.0
C918 C 0.67462 0.75742 0.22898 0.0
C919 C 0.6591 0.75981 0.25697 0.0
C920 C 0.65298 0.79026 0.21893 0.0
C921 C 0.66859 0.78785 0.19137 0.0
N922 N 0.70252 0.77818 0.17679 0.0
N923 N 0.64269 0.78669 0.28357 0.0
C924 C 0.68251 0.77478 0.19907 0.0
C925 C 0.65126 0.77895 0.2536 0.0
N926 N 0.67988 0.73725 0.22872 0.0
N927 N 0.63868 0.80196 0.21166 0.0
H928 H 0.64261 0.77991 0.30977 0.0
H929 H 0.63874 0.8021 0.28312 0.0
H930 H 0.63941 0.81055 0.1867 0.0
H931 H 0.62476 0.80151 0.22965 0.0
H932 H 0.68901 0.73354 0.20682 0.0
H933 H 0.6726 0.72229 0.24789 0.0
H934 H 0.71465 0.77067 0.18272 0.0
H935 H 0.70863 0.79095 0.15467 0.0
C936 C 0.25665 0.89834 0.25675 0.0
C937 C 0.25847 0.92351 0.25542 0.0
C938 C 0.23768 0.91121 0.1947 0.0
C939 C 0.24072 0.88872 0.19323 0.0
N940 N 0.2573 0.86318 0.22142 0.0
N941 N 0.25578 0.95606 0.21888 0.0
C942 C 0.25122 0.88273 0.22392 0.0
C943 C 0.25016 0.93053 0.22335 0.0
N944 N 0.25919 0.88887 0.28935 0.0
N945 N 0.22304 0.9142 0.16851 0.0
H946 H 0.26689 0.97162 0.23769 0.0
H947 H 0.25214 0.96248 0.19441 0.0
H948 H 0.2132 0.90003 0.14744 0.0
H949 H 0.21846 0.92918 0.17009 0.0
H950 H 0.25575 0.86963 0.29197 0.0
H951 H 0.2617 0.89896 0.31439 0.0
H952 H 0.26763 0.86016 0.24192 0.0
H953 H 0.25422 0.85158 0.1977 0.0
C954 C 0.6911 0.95033 0.20994 0.0
C955 C 0.68294 0.93785 0.24419 0.0
C956 C 0.66036 0.89401 0.2125 0.0
C957 C 0.67152 0.90671 0.17907 0.0
N958 N 0.7033 0.9465 0.14806 0.0
N959 N 0.6626 0.89755 0.27895 0.0
C960 C 0.68868 0.93475 0.17844 0.0
C961 C 0.6682 0.90955 0.24583 0.0
N962 N 0.70024 0.97698 0.20719 0.0
N963 N 0.64193 0.86737 0.21231 0.0
H964 H 0.66807 0.90826 0.30382 0.0
H965 H 0.65437 0.87709 0.28172 0.0
H966 H 0.63604 0.85545 0.18841 0.0
H967 H 0.63113 0.85755 0.23528 0.0
H968 H 0.70411 0.98639 0.18213 0.0
H969 H 0.70099 0.98898 0.22939 0.0
H970 H 0.71785 0.96665 0.14764 0.0
H971 H 0.703 0.93566 0.12473 0.0
C972 C 0.11363 0.76163 0.27058 0.0
C973 C 0.10576 0.73481 0.27795 0.0
C974 C 0.12894 0.73278 0.22335 0.0
C975 C 0.13345 0.75803 0.21333 0.0
N976 N 0.12951 0.79644 0.22581 0.0
N977 N 0.10365 0.69372 0.26007 0.0
C978 C 0.12591 0.77261 0.23673 0.0
C979 C 0.1131 0.72014 0.25425 0.0
N980 N 0.10992 0.77677 0.29633 0.0
N981 N 0.13976 0.72092 0.20305 0.0
H982 H 0.0916 0.68359 0.28204 0.0
H983 H 0.1059 0.68118 0.24161 0.0
H984 H 0.15135 0.72976 0.18015 0.0
H985 H 0.13933 0.70368 0.21068 0.0
H986 H 0.1177 0.79721 0.2943 0.0
H987 H 0.10082 0.76936 0.32133 0.0
H988 H 0.12143 0.80645 0.23923 0.0
H989 H 0.13958 0.80564 0.20202 0.0
C990 C 0.24167 0.33914 0.24517 0.0
C991 C 0.26604 0.36117 0.25787 0.0
C992 C 0.26806 0.38556 0.20315 0.0
C993 C 0.24599 0.36222 0.18797 0.0
N994 N 0.2144 0.31499 0.19229 0.0
N995 N 0.30549 0.40298 0.2442 0.0
C996 C 0.23337 0.33848 0.2084 0.0
C997 C 0.28005 0.38385 0.23568 0.0
N998 N 0.22606 0.31923 0.26841 0.0
N999 N 0.27752 0.40945 0.18657 0.0
H1000 H 0.3158 0.40158 0.26621 0.0
H1001 H 0.31732 0.41855 0.22694 0.0
H1002 H 0.2689 0.41151 0.16296 0.0
H1003 H 0.29209 0.42752 0.19837 0.0
H1004 H 0.20697 0.30405 0.26154 0.0
H1005 H 0.23111 0.31934 0.2958 0.0
H1006 H 0.20665 0.29665 0.20478 0.0
H1007 H 0.2081 0.31337 0.16521 0.0
C1008 C 0.22556 0.33043 0.43678 0.0
C1009 C 0.24238 0.32029 0.42914 0.0
C1010 C 0.22157 0.28882 0.47871 0.0
C1011 C 0.2097 0.30329 0.49137 0.0
N1012 N 0.20147 0.33922 0.48316 0.0
N1013 N 0.25775 0.29064 0.44536 0.0
C1014 C 0.21162 0.32424 0.47033 0.0
C1015 C 0.24046 0.29932 0.45031 0.0
N1016 N 0.22263 0.34565 0.41165 0.0
N1017 N 0.21483 0.26509 0.49404 0.0
H1018 H 0.27256 0.29826 0.42589 0.0
H1019 H 0.25889 0.27746 0.46284 0.0
H1020 H 0.20067 0.25672 0.51447 0.0
H1021 H 0.22109 0.2525 0.48381 0.0
H1022 H 0.20891 0.35166 0.41435 0.0
H1023 H 0.23179 0.34966 0.38618 0.0
H1024 H 0.20498 0.35661 0.47083 0.0
H1025 H 0.19119 0.33547 0.50765 0.0
C1026 C 0.73758 0.9687 0.44539 0.0
C1027 C 0.71842 0.95393 0.4176 0.0
C1028 C 0.70295 0.91289 0.45183 0.0
C1029 C 0.72296 0.92762 0.47855 0.0
N1030 N 0.76338 0.96768 0.49599 0.0
N1031 N 0.68697 0.91105 0.3901 0.0
C1032 C 0.74167 0.95493 0.47358 0.0
C1033 C 0.70225 0.9257 0.41953 0.0
N1034 N 0.75073 0.99597 0.44624 0.0
N1035 N 0.68413 0.88695 0.45789 0.0
H1036 H 0.68634 0.91966 0.36577 0.0
H1037 H 0.67681 0.89028 0.38853 0.0
H1038 H 0.68471 0.87668 0.48048 0.0
H1039 H 0.66722 0.87612 0.44168 0.0
H1040 H 0.76281 0.00759 0.46803 0.0
H1041 H 0.74747 0.00698 0.42719 0.0
H1042 H 0.77915 0.98677 0.49117 0.0
H1043 H 0.7668 0.95808 0.51707 0.0
C1044 C 0.05323 0.76676 0.4497 0.0
C1045 C 0.07376 0.76686 0.42916 0.0
C1046 C 0.10462 0.81112 0.45521 0.0
C1047 C 0.08664 0.80604 0.48358 0.0
N1048 N 0.04142 0.7935 0.48825 0.0
N1049 N 0.11834 0.79227 0.40647 0.0
C1050 C 0.0599 0.78866 0.4741 0.0
C1051 C 0.09928 0.79023 0.42962 0.0
N1052 N 0.02815 0.74526 0.44832 0.0
N1053 N 0.12515 0.83641 0.45118 0.0
H1054 H 0.11467 0.77786 0.38613 0.0
H1055 H 0.13789 0.80782 0.40851 0.0
H1056 H 0.12713 0.85181 0.46864 0.0
H1057 H 0.13791 0.84218 0.42902 0.0
H1058 H 0.01336 0.74354 0.46566 0.0
H1059 H 0.02254 0.72844 0.43157 0.0
H1060 H 0.02164 0.78265 0.48029 0.0
H1061 H 0.04693 0.80998 0.50585 0.0
C1062 C 0.35805 0.08513 0.78359 0.0
C1063 C 0.33051 0.06717 0.77894 0.0
C1064 C 0.32224 0.08592 0.83465 0.0
C1065 C 0.34931 0.10552 0.83705 0.0
N1066 N 0.39308 0.12585 0.8125 0.0
N1067 N 0.29034 0.04153 0.81295 0.0
C1068 C 0.36724 0.10582 0.81098 0.0
C1069 C 0.31349 0.065 0.80802 0.0
N1070 N 0.37543 0.08017 0.76572 0.0
N1071 N 0.30485 0.08737 0.8579 0.0
H1072 H 0.28557 0.02404 0.79827 0.0
H1073 H 0.27814 0.03818 0.83532 0.0
H1074 H 0.31071 0.10256 0.87784 0.0
H1075 H 0.28449 0.07512 0.85494 0.0
H1076 H 0.39573 0.09141 0.76996 0.0
H1077 H 0.3694 0.06214 0.75176 0.0
H1078 H 0.40649 0.12886 0.7919 0.0
H1079 H 0.40062 0.1409 0.83282 0.0
C1080 C 0.90607 0.23441 0.76618 0.0
C1081 C 0.9044 0.25751 0.76085 0.0
C1082 C 0.87943 0.24864 0.81761 0.0
C1083 C 0.88584 0.22923 0.82636 0.0
N1084 N 0.90728 0.2048 0.81026 0.0
N1085 N 0.89332 0.28928 0.78584 0.0
C1086 C 0.89949 0.22217 0.80086 0.0
C1087 C 0.89178 0.2652 0.78746 0.0
N1088 N 0.91318 0.22373 0.73791 0.0
N1089 N 0.86192 0.25157 0.83869 0.0
H1090 H 0.90396 0.30321 0.76603 0.0
H1091 H 0.88663 0.29678 0.80666 0.0
H1092 H 0.8525 0.23954 0.86098 0.0
H1093 H 0.85478 0.26387 0.83171 0.0
H1094 H 0.91242 0.20559 0.73941 0.0
H1095 H 0.91709 0.23151 0.71172 0.0
H1096 H 0.91996 0.20141 0.79433 0.0
H1097 H 0.90255 0.19516 0.8352 0.0
C1098 C 0.72944 0.62861 0.77936 0.0
C1099 C 0.74659 0.64838 0.75487 0.0
C1100 C 0.78276 0.66492 0.79975 0.0
C1101 C 0.76608 0.6436 0.82269 0.0
N1102 N 0.72544 0.60184 0.8311 0.0
N1103 N 0.79034 0.68324 0.73891 0.0
C1104 C 0.73998 0.6244 0.81143 0.0
C1105 C 0.77352 0.66606 0.76426 0.0
N1106 N 0.70288 0.61459 0.77265 0.0
N1107 N 0.80709 0.68437 0.81226 0.0
H1108 H 0.78412 0.68483 0.71288 0.0
H1109 H 0.81068 0.69458 0.74268 0.0
H1110 H 0.81469 0.68365 0.83768 0.0
H1111 H 0.81905 0.70196 0.79855 0.0
H1112 H 0.68913 0.60175 0.79134 0.0
H1113 H 0.69436 0.61797 0.75006 0.0
H1114 H 0.70727 0.58593 0.82218 0.0
H1115 H 0.73265 0.59782 0.85458 0.0
C1116 C 0.79256 0.67275 0.57757 0.0
C1117 C 0.78332 0.68839 0.59394 0.0
C1118 C 0.80423 0.72059 0.5453 0.0
C1119 C 0.80486 0.70026 0.52365 0.0
N1120 N 0.7967 0.65482 0.52008 0.0
N1121 N 0.79402 0.73358 0.60441 0.0
C1122 C 0.79915 0.67604 0.54023 0.0
C1123 C 0.79334 0.71453 0.58128 0.0
N1124 N 0.79423 0.65431 0.59761 0.0
N1125 N 0.81318 0.74506 0.53078 0.0
H1126 H 0.78911 0.72997 0.63199 0.0
H1127 H 0.80161 0.75337 0.59766 0.0
H1128 H 0.82267 0.7502 0.50555 0.0
H1129 H 0.81123 0.76013 0.54324 0.0
H1130 H 0.80263 0.64356 0.58749 0.0
H1131 H 0.79015 0.65247 0.62563 0.0
H1132 H 0.79019 0.63626 0.53138 0.0
H1133 H 0.79791 0.65423 0.49171 0.0
C1134 C 0.28504 0.07025 0.57754 0.0
C1135 C 0.30551 0.07672 0.6035 0.0
C1136 C 0.33632 0.11471 0.56658 0.0
C1137 C 0.31572 0.10821 0.54118 0.0
N1138 N 0.2693 0.08565 0.52822 0.0
N1139 N 0.34832 0.10969 0.62804 0.0
C1140 C 0.28961 0.08813 0.54903 0.0
C1141 C 0.33047 0.10045 0.59972 0.0
N1142 N 0.26207 0.0461 0.57796 0.0
N1143 N 0.36159 0.13364 0.5583 0.0
H1144 H 0.34435 0.10029 0.65314 0.0
H1145 H 0.36589 0.12805 0.62799 0.0
H1146 H 0.36627 0.14511 0.53495 0.0
H1147 H 0.37791 0.13697 0.57352 0.0
H1148 H 0.24779 0.03941 0.5573 0.0
H1149 H 0.25834 0.03145 0.5966 0.0
H1150 H 0.24956 0.07283 0.5345 0.0
H1151 H 0.27235 0.09851 0.50695 0.0
C1152 C 0.9147 0.25762 0.55474 0.0
C1153 C 0.9218 0.25056 0.58788 0.0
C1154 C 0.91933 0.21199 0.55567 0.0
C1155 C 0.90913 0.21757 0.52425 0.0
N1156 N 0.88912 0.24072 0.49888 0.0
N1157 N 0.92449 0.21691 0.62165 0.0
C1158 C 0.90403 0.23867 0.52558 0.0
C1159 C 0.92227 0.2265 0.58899 0.0
N1160 N 0.9198 0.28294 0.54985 0.0
N1161 N 0.92716 0.19376 0.55352 0.0
H1162 H 0.92529 0.22613 0.64682 0.0
H1163 H 0.92266 0.19831 0.62392 0.0
H1164 H 0.9256 0.18295 0.52952 0.0
H1165 H 0.93727 0.19112 0.57473 0.0
H1166 H 0.9167 0.28918 0.52484 0.0
H1167 H 0.93036 0.29859 0.5688 0.0
H1168 H 0.8834 0.25485 0.5003 0.0
H1169 H 0.88004 0.2264 0.47778 0.0
C1170 C 0.31221 0.22852 0.58839 0.0
C1171 C 0.32728 0.25681 0.58778 0.0
C1172 C 0.33355 0.25513 0.52197 0.0
C1173 C 0.31701 0.22693 0.52174 0.0
N1174 N 0.28663 0.18698 0.55327 0.0
N1175 N 0.34506 0.29679 0.55285 0.0
C1176 C 0.30504 0.21363 0.55456 0.0
C1177 C 0.33553 0.26999 0.55411 0.0
N1178 N 0.30583 0.21592 0.6211 0.0
N1179 N 0.34858 0.26769 0.49221 0.0
H1180 H 0.34612 0.30823 0.57596 0.0
H1181 H 0.34909 0.30692 0.52837 0.0
H1182 H 0.34904 0.25751 0.46861 0.0
H1183 H 0.3628 0.28796 0.49254 0.0
H1184 H 0.29746 0.1954 0.62327 0.0
H1185 H 0.31049 0.22621 0.64631 0.0
H1186 H 0.27536 0.17672 0.5757 0.0
H1187 H 0.28112 0.17554 0.52893 0.0
C1188 C 0.77104 0.04657 0.56266 0.0
C1189 C 0.76573 0.06067 0.59032 0.0
C1190 C 0.78746 0.10096 0.55357 0.0
C1191 C 0.79426 0.08724 0.52737 0.0
N1192 N 0.79823 0.0493 0.51132 0.0
N1193 N 0.77432 0.10299 0.61595 0.0
C1194 C 0.78791 0.06079 0.53338 0.0
C1195 C 0.77542 0.08838 0.58688 0.0
N1196 N 0.75875 0.01935 0.56309 0.0
N1197 N 0.79212 0.12583 0.54637 0.0
H1198 H 0.76651 0.09479 0.64122 0.0
H1199 H 0.78346 0.1237 0.61622 0.0
H1200 H 0.80201 0.13614 0.52306 0.0
H1201 H 0.78475 0.13551 0.56232 0.0
H1202 H 0.75992 0.00793 0.54161 0.0
H1203 H 0.74516 0.00791 0.58296 0.0
H1204 H 0.79705 0.03143 0.51746 0.0
H1205 H 0.81017 0.05888 0.48901 0.0
C1206 C 0.91493 0.6561 0.54872 0.0
C1207 C 0.9148 0.67201 0.57883 0.0
C1208 C 0.89212 0.68815 0.54075 0.0
C1209 C 0.89235 0.67243 0.51065 0.0
N1210 N 0.89583 0.63504 0.4896 0.0
N1211 N 0.89394 0.69416 0.60676 0.0
C1212 C 0.90095 0.65415 0.516 0.0
C1213 C 0.90022 0.68501 0.57588 0.0
N1214 N 0.92964 0.64426 0.55011 0.0
N1215 N 0.886 0.70739 0.53561 0.0
H1216 H 0.8987 0.69119 0.63303 0.0
H1217 H 0.88143 0.70177 0.60643 0.0
H1218 H 0.88104 0.71123 0.51011 0.0
H1219 H 0.88822 0.72118 0.5561 0.0
H1220 H 0.93299 0.63541 0.52724 0.0
H1221 H 0.94014 0.6448 0.57322 0.0
H1222 H 0.89951 0.61964 0.49322 0.0
H1223 H 0.88536 0.63305 0.46559 0.0
C1224 C 0.88842 0.63943 0.76255 0.0
C1225 C 0.91361 0.66312 0.76151 0.0
C1226 C 0.90838 0.6735 0.82536 0.0
C1227 C 0.88538 0.64795 0.8281 0.0
N1228 N 0.85604 0.60441 0.80038 0.0
N1229 N 0.95021 0.69924 0.79557 0.0
C1230 C 0.87597 0.63027 0.79695 0.0
C1231 C 0.92432 0.67933 0.79387 0.0
N1232 N 0.87592 0.62612 0.73075 0.0
N1233 N 0.91495 0.69232 0.85276 0.0
H1234 H 0.96335 0.70305 0.77426 0.0
H1235 H 0.9594 0.70985 0.81975 0.0
H1236 H 0.90338 0.68895 0.87595 0.0
H1237 H 0.93025 0.71205 0.85053 0.0
H1238 H 0.85652 0.61017 0.72987 0.0
H1239 H 0.88386 0.63274 0.70492 0.0
H1240 H 0.85041 0.59006 0.77933 0.0
H1241 H 0.84679 0.59663 0.82517 0.0
C1242 C 0.37676 0.2758 0.79003 0.0
C1243 C 0.35667 0.26239 0.76302 0.0
C1244 C 0.33769 0.22135 0.79827 0.0
C1245 C 0.35912 0.23443 0.82346 0.0
N1246 N 0.40219 0.27202 0.83861 0.0
N1247 N 0.31989 0.22147 0.73838 0.0
C1248 C 0.37975 0.26095 0.81757 0.0
C1249 C 0.3376 0.23484 0.76623 0.0
N1250 N 0.392 0.30302 0.79069 0.0
N1251 N 0.31718 0.19643 0.80555 0.0
H1252 H 0.319 0.23089 0.71501 0.0
H1253 H 0.30728 0.20085 0.7373 0.0
H1254 H 0.31732 0.18576 0.82795 0.0
H1255 H 0.29959 0.18694 0.79059 0.0
H1256 H 0.40535 0.31409 0.81174 0.0
H1257 H 0.38893 0.31468 0.77263 0.0
H1258 H 0.41887 0.29042 0.83332 0.0
H1259 H 0.4051 0.26164 0.85907 0.0
C1260 C 0.74465 0.0644 0.80078 0.0
C1261 C 0.7496 0.07746 0.76703 0.0
C1262 C 0.77403 0.12081 0.79965 0.0
C1263 C 0.77194 0.10735 0.83245 0.0
N1264 N 0.76085 0.06633 0.8619 0.0
N1265 N 0.77114 0.11804 0.73311 0.0
C1266 C 0.75887 0.07911 0.83232 0.0
C1267 C 0.76477 0.10573 0.76602 0.0
N1268 N 0.72587 0.03793 0.80283 0.0
N1269 N 0.78431 0.14777 0.80078 0.0
H1270 H 0.76433 0.10758 0.70813 0.0
H1271 H 0.78449 0.13836 0.73045 0.0
H1272 H 0.79161 0.15935 0.82487 0.0
H1273 H 0.78391 0.15831 0.77847 0.0
H1274 H 0.71982 0.02809 0.82756 0.0
H1275 H 0.71429 0.02661 0.78034 0.0
H1276 H 0.75361 0.04588 0.86172 0.0
H1277 H 0.77225 0.07647 0.88507 0.0
C1278 C 0.08922 0.39685 0.06436 0.0
C1279 C 0.0684 0.37474 0.04481 0.0
C1280 C 0.08952 0.34866 0.05435 0.0
C1281 C 0.11056 0.37085 0.07352 0.0
N1282 N 0.13364 0.41765 0.08966 0.0
N1283 N 0.0526 0.33279 0.01216 0.0
C1284 C 0.11147 0.39554 0.07599 0.0
C1285 C 0.06977 0.35162 0.03698 0.0
N1286 N 0.08709 0.41847 0.0736 0.0
N1287 N 0.08753 0.32431 0.05442 0.0
H1288 H 0.03838 0.33472 -0.00182 0.0
H1289 H 0.05422 0.31676 0.00262 0.0
H1290 H 0.1017 0.32121 0.06621 0.0
H1291 H 0.0709 0.30675 0.045 0.0
H1292 H 0.10019 0.4339 0.09125 0.0
H1293 H 0.07107 0.4201 0.06583 0.0
H1294 H 0.13665 0.43682 0.0893 0.0
H1295 H 0.15011 0.41707 0.0983 0.0
C1296 C 0.66909 0.72486 0.03917 0.0
C1297 C 0.64393 0.7016 0.04361 0.0
C1298 C 0.62641 0.72978 0.06371 0.0
C1299 C 0.65227 0.75218 0.06557 0.0
N1300 N 0.69901 0.77092 0.05802 0.0
N1301 N 0.59945 0.6818 0.06543 0.0
C1302 C 0.67385 0.74979 0.05369 0.0
C1303 C 0.62266 0.70404 0.05679 0.0
N1304 N 0.68824 0.72334 0.02023 0.0
N1305 N 0.60552 0.73318 0.06953 0.0
H1306 H 0.597 0.66293 0.06366 0.0
H1307 H 0.58399 0.68231 0.0783 0.0
H1308 H 0.60799 0.75198 0.07478 0.0
H1309 H 0.58599 0.71797 0.06553 0.0
H1310 H 0.70604 0.74007 0.01307 0.0
H1311 H 0.68539 0.70559 0.00851 0.0
H1312 H 0.7156 0.7693 0.05437 0.0
H1313 H 0.70336 0.78974 0.06747 0.0
C1314 C 0.30528 0.91027 0.02459 0.0
C1315 C 0.30746 0.9355 0.02287 0.0
C1316 C 0.26468 0.91659 0.05329 0.0
C1317 C 0.2668 0.89455 0.06376 0.0
N1318 N 0.29089 0.87144 0.06119 0.0
N1319 N 0.28655 0.9614 0.02967 0.0
C1320 C 0.28742 0.89144 0.04961 0.0
C1321 C 0.28616 0.93819 0.03523 0.0
N1322 N 0.319 0.90361 0.00109 0.0
N1323 N 0.24206 0.91665 0.06056 0.0
H1324 H 0.30035 0.97619 0.01283 0.0
H1325 H 0.27357 0.96615 0.04203 0.0
H1326 H 0.22593 0.90078 0.07313 0.0
H1327 H 0.23829 0.93106 0.05132 0.0
H1328 H 0.31723 0.88493 0.00045 0.0
H1329 H 0.32782 0.91471 0.97801 0.0
H1330 H 0.30745 0.87035 0.0545 0.0
H1331 H 0.27847 0.85729 0.0798 0.0
C1332 C 0.35642 0.06456 -0.00226 0.0
C1333 C 0.37907 0.0626 0.99214 0.0
C1334 C 0.40161 0.10666 0.96436 0.0
C1335 C 0.37736 0.10601 0.96349 0.0
N1336 N 0.33222 0.0862 0.98166 0.0
N1337 N 0.42397 0.08202 0.97207 0.0
C1338 C 0.35506 0.08575 0.98166 0.0
C1339 C 0.40216 0.08406 0.97687 0.0
N1340 N 0.33634 0.04614 0.01858 0.0
N1341 N 0.42388 0.12869 0.95234 0.0
H1342 H 0.42532 0.06613 0.98163 0.0
H1343 H 0.44028 0.09527 0.95703 0.0
H1344 H 0.4238 0.14525 0.9426 0.0
H1345 H 0.4427 0.13165 0.95487 0.0
H1346 H 0.32005 0.04736 0.02623 0.0
H1347 H 0.33708 0.03064 0.03092 0.0
H1348 H 0.31418 0.07055 0.99026 0.0
H1349 H 0.33127 0.10229 0.97179 0.0
C1350 C 0.95672 0.28652 0.98154 0.0
C1351 C 0.95255 0.30834 0.97961 0.0
C1352 C 0.90688 0.27715 0.95987 0.0
C1353 C 0.91288 0.25685 0.95461 0.0
N1354 N 0.94379 0.24196 0.95908 0.0
N1355 N 0.924 0.32449 0.96261 0.0
C1356 C 0.93781 0.26134 0.96548 0.0
C1357 C 0.92752 0.30361 0.96827 0.0
N1358 N 0.97824 0.28956 -0.00021 0.0
N1359 N 0.88146 0.27113 0.9557 0.0
H1360 H 0.93921 0.34411 0.96591 0.0
H1361 H 0.90706 0.32247 0.95079 0.0
H1362 H 0.86607 0.2518 0.94925 0.0
H1363 H 0.87534 0.28453 0.96224 0.0
H1364 H 0.98111 0.27377 0.00474 0.0
H1365 H 0.99175 0.30727 0.01351 0.0
H1366 H 0.96272 0.24522 0.96215 0.0
H1367 H 0.93 0.22296 0.94878 0.0
C1368 C 0.69483 0.61581 0.95849 0.0
C1369 C 0.69762 0.63887 0.97675 0.0
C1370 C 0.74556 0.66228 0.96798 0.0
C1371 C 0.74273 0.63903 0.95038 0.0
N1372 N 0.71576 0.59187 0.9364 0.0
N1373 N 0.72585 0.68185 0.00621 0.0
C1374 C 0.7177 0.61514 0.94848 0.0
C1375 C 0.72309 0.6615 0.98372 0.0
N1376 N 0.67032 0.59519 0.94842 0.0
N1377 N 0.7696 0.68532 0.9685 0.0
H1378 H 0.70987 0.68171 0.01855 0.0
H1379 H 0.74401 0.69773 0.01517 0.0
H1380 H 0.78658 0.686 0.95899 0.0
H1381 H 0.77251 0.70383 0.97675 0.0
H1382 H 0.66716 0.57926 0.93131 0.0
H1383 H 0.65302 0.59508 0.9542 0.0
H1384 H 0.69854 0.5733 0.9379 0.0
H1385 H 0.73197 0.59067 0.92805 0.0
C1386 C 0.93337 0.64946 0.9964 0.0
C1387 C 0.93752 0.62778 0.991 0.0
C1388 C 0.89615 0.60333 0.95562 0.0
C1389 C 0.89461 0.62673 0.95567 0.0
N1390 N 0.91115 0.67213 0.97604 0.0
N1391 N 0.92346 0.58409 0.96489 0.0
C1392 C 0.91283 0.6497 0.97658 0.0
C1393 C 0.91877 0.60443 0.9711 0.0
N1394 N 0.94896 0.66962 0.02084 0.0
N1395 N 0.87609 0.58018 0.94024 0.0
H1396 H 0.93961 0.58404 0.97599 0.0
H1397 H 0.91229 0.56799 0.94692 0.0
H1398 H 0.85951 0.57899 0.92835 0.0
H1399 H 0.87468 0.56176 0.9421 0.0
H1400 H 0.94564 0.68488 0.0286 0.0
H1401 H 0.96395 0.66976 0.036 0.0
H1402 H 0.92562 0.69063 0.98678 0.0
H1403 H 0.89562 0.6725 0.96322 0.0
C1404 C 0.34461 0.28069 0.9789 0.0
C1405 C 0.36992 0.30421 0.9768 0.0
C1406 C 0.38842 0.27738 0.95483 0.0
C1407 C 0.36265 0.25451 0.95184 0.0
N1408 N 0.31615 0.23364 0.96198 0.0
N1409 N 0.41663 0.32413 0.96674 0.0
C1410 C 0.34075 0.25589 0.96481 0.0
C1411 C 0.39195 0.30213 0.96671 0.0
N1412 N 0.32456 0.28201 0.99549 0.0
N1413 N 0.41025 0.27693 0.94403 0.0
H1414 H 0.42022 0.34296 0.97339 0.0
H1415 H 0.43341 0.32357 0.95947 0.0
H1416 H 0.41035 0.26012 0.93411 0.0
H1417 H 0.41035 0.26012 0.93411 0.0
H1418 H 0.30618 0.26543 0.0007 0.0
H1419 H 0.32702 0.29965 0.00711 0.0
H1420 H 0.2988 0.23366 0.96644 0.0
H1421 H 0.31316 0.21503 0.95377 0.0
C1422 C 0.71997 0.06334 0.98544 0.0
C1423 C 0.69828 0.06718 0.98235 0.0
C1424 C 0.72877 0.11335 0.9641 0.0
C1425 C 0.74875 0.1072 0.95916 0.0
N1426 N 0.76371 0.07609 0.96499 0.0
N1427 N 0.68216 0.09661 0.96976 0.0
C1428 C 0.74465 0.08232 0.97053 0.0
C1429 C 0.7028 0.09264 0.97278 0.0
N1430 N 0.71716 0.04186 0.00351 0.0
N1431 N 0.73474 0.13897 0.95962 0.0
H1432 H 0.66313 0.08216 0.97643 0.0
H1433 H 0.6836 0.11352 0.95867 0.0
H1434 H 0.75374 0.15419 0.95316 0.0
H1435 H 0.72183 0.1456 0.96566 0.0
H1436 H 0.73284 0.03922 0.00948 0.0
H1437 H 0.69969 0.02829 0.01624 0.0
H1438 H 0.76045 0.05694 0.96783 0.0
H1439 H 0.78246 0.08972 0.9556 0.0
C1440 C 0.66284 0.94841 0.02208 0.0
C1441 C 0.63817 0.94654 0.02668 0.0
C1442 C 0.62005 0.90164 0.05088 0.0
C1443 C 0.64583 0.90595 0.0532 0.0
N1444 N 0.69247 0.93428 0.04235 0.0
N1445 N 0.59301 0.92158 0.04658 0.0
C1446 C 0.66738 0.92934 0.03851 0.0
C1447 C 0.61648 0.92296 0.04069 0.0
N1448 N 0.68179 0.96818 0.0014 0.0
N1449 N 0.59912 0.87723 0.05923 0.0
H1450 H 0.5897 0.93686 0.04005 0.0
H1451 H 0.57742 0.90618 0.06044 0.0
H1452 H 0.60156 0.86152 0.06677 0.0
H1453 H 0.57957 0.87183 0.05531 0.0
H1454 H 0.69928 0.96914 0.99417 0.0
H1455 H 0.67879 0.98202 0.98819 0.0
H1456 H 0.70916 0.9526 0.03683 0.0
H1457 H 0.69679 0.92064 0.05316 0.0
C1458 C 0.08426 0.71298 0.03381 0.0
C1459 C 0.05874 0.70644 0.04523 0.0
C1460 C 0.07975 0.74489 0.0884 0.0
C1461 C 0.10385 0.74525 0.08465 0.0
N1462 N 0.12752 0.726 0.05576 0.0
N1463 N 0.03254 0.72124 0.07703 0.0
C1464 C 0.10588 0.72855 0.05762 0.0
C1465 C 0.05653 0.72401 0.07063 0.0
N1466 N 0.08828 0.70568 -0.00028 0.0
N1467 N 0.07938 0.76481 0.10828 0.0
H1468 H 0.01627 0.70969 0.05991 0.0
H1469 H 0.02888 0.73066 0.09887 0.0
H1470 H 0.09634 0.7807 0.12044 0.0
H1471 H 0.06304 0.76699 0.11001 0.0
H1472 H 0.10703 0.71143 0.9901 0.0
H1473 H 0.07378 0.69804 0.97927 0.0
H1474 H 0.12828 0.71204 0.03823 0.0
H1475 H 0.14338 0.73553 0.07404 0.0
C1476 C 0.28991 0.34524 0.02323 0.0
C1477 C 0.31418 0.36994 0.02396 0.0
C1478 C 0.29211 0.39184 0.05169 0.0
C1479 C 0.26943 0.36646 0.05718 0.0
N1480 N 0.24655 0.31857 0.04941 0.0
N1481 N 0.33901 0.41699 0.04028 0.0
C1482 C 0.26808 0.34303 0.04274 0.0
C1483 C 0.31539 0.39348 0.03787 0.0
N1484 N 0.28769 0.32402 0.00337 0.0
N1485 N 0.29133 0.41431 0.06017 0.0
H1486 H 0.35657 0.41917 0.03062 0.0
H1487 H 0.34166 0.43395 0.05429 0.0
H1488 H 0.27447 0.4135 0.07046 0.0
H1489 H 0.30631 0.43346 0.05382 0.0
H1490 H 0.26992 0.30617 -0.00103 0.0
H1491 H 0.30321 0.32524 0.98814 0.0
H1492 H 0.24581 0.30066 0.04369 0.0
H1493 H 0.22987 0.31614 0.06269 0.0
C1494 C 0.71768 0.69052 0.41349 0.0
C1495 C 0.71955 0.70176 0.37869 0.0
C1496 C 0.76484 0.71071 0.37402 0.0
C1497 C 0.76154 0.69659 0.40658 0.0
N1498 N 0.73042 0.66454 0.44872 0.0
N1499 N 0.74254 0.71351 0.32067 0.0
C1500 C 0.73646 0.6836 0.4234 0.0
C1501 C 0.74242 0.70919 0.35728 0.0
N1502 N 0.69938 0.68808 0.43845 0.0
N1503 N 0.78928 0.72642 0.35964 0.0
H1504 H 0.72581 0.70981 0.30619 0.0
H1505 H 0.75826 0.71711 0.30385 0.0
H1506 H 0.80642 0.7291 0.37173 0.0
H1507 H 0.79264 0.73888 0.33777 0.0
H1508 H 0.6989 0.68164 0.46498 0.0
H1509 H 0.68733 0.69598 0.43486 0.0
H1510 H 0.71164 0.65333 0.45973 0.0
H1511 H 0.74322 0.65793 0.45526 0.0
C1512 C 0.34196 0.05804 0.38126 0.0
C1513 C 0.3201 0.03261 0.3895 0.0
C1514 C 0.29848 0.05397 0.41913 0.0
C1515 C 0.32177 0.07927 0.41624 0.0
N1516 N 0.36742 0.10509 0.3985 0.0
N1517 N 0.28199 0.00723 0.42669 0.0
C1518 C 0.34401 0.08136 0.39804 0.0
C1519 C 0.29943 0.03074 0.4111 0.0
N1520 N 0.36068 0.05994 0.35748 0.0
N1521 N 0.27565 0.05216 0.4306 0.0
H1522 H 0.28493 0.99116 0.42585 0.0
H1523 H 0.26747 0.00518 0.44485 0.0
H1524 H 0.2743 0.06901 0.43626 0.0
H1525 H 0.2577 0.03414 0.43073 0.0
H1526 H 0.37558 0.07802 0.34753 0.0
H1527 H 0.36023 0.04324 0.34575 0.0
H1528 H 0.38496 0.107 0.38929 0.0
H1529 H 0.36977 0.12256 0.41049 0.0
C1530 C 0.96803 0.24649 0.34776 0.0
C1531 C 0.97056 0.2719 0.35188 0.0
C1532 C 0.9304 0.25104 0.38875 0.0
C1533 C 0.9335 0.22878 0.39379 0.0
N1534 N 0.95711 0.20622 0.37881 0.0
N1535 N 0.94977 0.29671 0.36922 0.0
C1536 C 0.95262 0.22653 0.37319 0.0
C1537 C 0.95028 0.27366 0.37017 0.0
N1538 N 0.97864 0.24064 0.31842 0.0
N1539 N 0.90815 0.25014 0.40108 0.0
H1540 H 0.9614 0.31193 0.35133 0.0
H1541 H 0.9379 0.30071 0.38603 0.0
H1542 H 0.89285 0.23325 0.41316 0.0
H1543 H 0.90362 0.26478 0.39616 0.0
H1544 H 0.97599 0.22176 0.31357 0.0
H1545 H 0.98603 0.2531 0.29608 0.0
H1546 H 0.97276 0.20556 0.36671 0.0
H1547 H 0.94675 0.19141 0.39776 0.0
C1548 C 0.03463 0.40846 0.32941 0.0
C1549 C 0.05001 0.39888 0.3127 0.0
C1550 C 0.07173 0.43872 0.27511 0.0
C1551 C 0.05324 0.44576 0.28702 0.0
N1552 N 0.01697 0.4378 0.32543 0.0
N1553 N 0.08245 0.40403 0.26839 0.0
C1554 C 0.03495 0.43103 0.31471 0.0
C1555 C 0.06862 0.41397 0.2855 0.0
N1556 N 0.01956 0.3958 0.35904 0.0
N1557 N 0.09206 0.45572 0.2534 0.0
H1558 H 0.08072 0.38606 0.27547 0.0
H1559 H 0.0942 0.41253 0.2456 0.0
H1560 H 0.09466 0.47396 0.24556 0.0
H1561 H 0.10758 0.45306 0.24613 0.0
H1562 H 0.00978 0.40312 0.37465 0.0
H1563 H 0.01842 0.37889 0.36978 0.0
H1564 H 1.00099 0.42611 0.34209 0.0
H1565 H 0.01746 0.45478 0.31621 0.0
C1566 C 0.60973 0.62409 0.30927 0.0
C1567 C 0.60711 0.64672 0.30535 0.0
C1568 C 0.56181 0.61729 0.28255 0.0
C1569 C 0.56645 0.59592 0.28005 0.0
N1570 N 0.5957 0.57911 0.2883 0.0
N1571 N 0.58101 0.66509 0.2856 0.0
C1572 C 0.59052 0.59923 0.2931 0.0
C1573 C 0.58305 0.64334 0.29185 0.0
N1574 N 0.63008 0.62605 0.32945 0.0
N1575 N 0.53713 0.61258 0.27541 0.0
H1576 H 0.59644 0.68439 0.29088 0.0
H1577 H 0.56507 0.66415 0.27217 0.0
H1578 H 0.52139 0.59355 0.26843 0.0
H1579 H 0.53172 0.62677 0.27983 0.0
H1580 H 0.63141 0.60958 0.33623 0.0
H1581 H 0.64415 0.64364 0.34279 0.0
H1582 H 0.61426 0.5817 0.29269 0.0
H1583 H 0.58194 0.56024 0.27766 0.0
C1584 C 0.39557 0.9885 0.31393 0.0
C1585 C 0.3693 0.9665 0.31082 0.0
C1586 C 0.38531 0.93995 0.27981 0.0
C1587 C 0.41076 0.96308 0.27781 0.0
N1588 N 0.4404 0.00976 0.29135 0.0
N1589 N 0.33858 0.92242 0.28575 0.0
C1590 C 0.41605 0.98746 0.29473 0.0
C1591 C 0.36401 0.94236 0.29287 0.0
N1592 N 0.40103 0.01005 0.33596 0.0
N1593 N 0.38144 0.9157 0.26851 0.0
H1594 H 0.32224 0.92362 0.29328 0.0
H1595 H 0.33362 0.90571 0.26909 0.0
H1596 H 0.39652 0.91326 0.25815 0.0
H1597 H 0.36398 0.89773 0.27269 0.0
H1598 H 0.42008 0.0256 0.34207 0.0
H1599 H 0.38659 0.01128 0.35081 0.0
H1600 H 0.44473 0.02887 0.29912 0.0
H1601 H 0.45605 0.00921 0.279 0.0
C1602 C 0.59245 0.93955 0.29964 0.0
C1603 C 0.61008 0.96383 0.31873 0.0
C1604 C 0.5811 0.98121 0.30598 0.0
C1605 C 0.56411 0.95745 0.28552 0.0
N1606 N 0.54952 0.91163 0.27044 0.0
N1607 N 0.61817 0.00463 0.34841 0.0
C1608 C 0.56838 0.93573 0.2852 0.0
C1609 C 0.60333 0.98364 0.32465 0.0
N1610 N 0.59952 0.92096 0.29311 0.0
N1611 N 0.5766 0.0019 0.30598 0.0
H1612 H 0.6344 0.0067 0.36264 0.0
H1613 H 0.61317 0.01864 0.35651 0.0
H1614 H 0.55977 1.00019 0.29409 0.0
H1615 H 0.5899 0.02099 0.31632 0.0
H1616 H 0.58914 0.90437 0.2756 0.0
H1617 H 0.6168 0.92286 0.3035 0.0
H1618 H 0.55016 0.89424 0.2721 0.0
H1619 H 0.53192 0.90853 0.25931 0.0
C1620 C 0.0613 0.63896 0.34108 0.0
C1621 C 0.03689 0.6379 0.34025 0.0
C1622 C 0.01681 0.59387 0.30916 0.0
C1623 C 0.04241 0.5989 0.30127 0.0
N1624 N 0.08954 0.62645 0.30968 0.0
N1625 N 0.98989 0.61149 0.33163 0.0
C1626 C 0.06483 0.62126 0.31776 0.0
C1627 C 0.01405 0.61419 0.32716 0.0
N1628 N 0.08063 0.65597 0.36505 0.0
N1629 N 0.99539 0.56982 0.29886 0.0
H1630 H 0.98724 0.62482 0.34801 0.0
H1631 H 0.97263 0.59639 0.31924 0.0
H1632 H 0.99723 0.55473 0.28592 0.0
H1633 H 0.97607 0.56394 0.30542 0.0
H1634 H 0.09846 0.65664 0.36797 0.0
H1635 H 0.07689 0.66582 0.38613 0.0
H1636 H 0.10657 0.64427 0.31737 0.0
H1637 H 0.09296 0.6137 0.29331 0.0
C1638 C 0.38501 0.38511 0.31942 0.0
C1639 C 0.36427 0.39041 0.32403 0.0
C1640 C 0.39461 0.43674 0.30613 0.0
C1641 C 0.41263 0.42932 0.29369 0.0
N1642 N 0.42597 0.39686 0.28909 0.0
N1643 N 0.35003 0.42241 0.32364 0.0
C1644 C 0.40831 0.40372 0.30103 0.0
C1645 C 0.36946 0.41675 0.31879 0.0
N1646 N 0.38262 0.36257 0.33356 0.0
N1647 N 0.40154 0.46291 0.3053 0.0
H1648 H 0.33188 0.40886 0.33411 0.0
H1649 H 0.35134 0.43995 0.31541 0.0
H1650 H 0.41975 0.47778 0.29571 0.0
H1651 H 0.39049 0.4703 0.31719 0.0
H1652 H 0.39782 0.35855 0.33367 0.0
H1653 H 0.3664 0.34938 0.34896 0.0
H1654 H 0.42237 0.37746 0.28942 0.0
H1655 H 0.44382 0.41048 0.27713 0.0
C1656 C 0.31958 0.26724 0.35865 0.0
C1657 C 0.29533 0.26652 0.36001 0.0
C1658 C 0.27447 0.2219 0.38595 0.0
C1659 C 0.2997 0.22535 0.39189 0.0
N1660 N 0.34701 0.25246 0.38521 0.0
N1661 N 0.24923 0.24321 0.37531 0.0
C1662 C 0.32245 0.24803 0.37784 0.0
C1663 C 0.27244 0.24357 0.37297 0.0
N1664 N 0.33989 0.28635 0.33887 0.0
N1665 N 0.25258 0.198 0.39364 0.0
H1666 H 0.24696 0.25863 0.36607 0.0
H1667 H 0.23269 0.22847 0.38853 0.0
H1668 H 0.25389 0.18204 0.4032 0.0
H1669 H 0.23348 0.19323 0.38732 0.0
H1670 H 0.3573 0.2865 0.33399 0.0
H1671 H 0.33815 0.30041 0.32406 0.0
H1672 H 0.36427 0.2704 0.38007 0.0
H1673 H 0.35036 0.23898 0.39866 0.0
C1674 C 0.72666 0.0679 0.3881 0.0
C1675 C 0.73122 0.05187 0.36268 0.0
C1676 C 0.77783 0.08727 0.36272 0.0
C1677 C 0.77444 0.09587 0.3977 0.0
N1678 N 0.7455 0.10394 0.43445 0.0
N1679 N 0.76109 0.05264 0.31588 0.0
C1680 C 0.74861 0.08946 0.40712 0.0
C1681 C 0.75679 0.06332 0.34687 0.0
N1682 N 0.70179 0.06341 0.39236 0.0
N1683 N 0.79873 0.10418 0.34196 0.0
H1684 H 0.7463 0.04049 0.29707 0.0
H1685 H 0.77994 0.0575 0.30786 0.0
H1686 H 0.80979 0.12451 0.34863 0.0
H1687 H 0.80163 0.09957 0.31524 0.0
H1688 H 0.69716 0.07487 0.4095 0.0
H1689 H 0.68618 0.05011 0.37525 0.0
H1690 H 0.72745 0.099 0.44579 0.0
H1691 H 0.76171 0.12098 0.44617 0.0
C1692 C 0.97328 0.72391 0.37132 0.0
C1693 C 0.97258 0.70089 0.35634 0.0
C1694 C 0.92534 0.67365 0.36832 0.0
C1695 C 0.92632 0.69629 0.38526 0.0
N1696 N 0.94855 0.74379 0.39485 0.0
N1697 N 0.94749 0.6562 0.33106 0.0
C1698 C 0.94947 0.72179 0.38378 0.0
C1699 C 0.94834 0.67653 0.35159 0.0
N1700 N 0.99687 0.74726 0.37577 0.0
N1701 N 0.9029 0.64912 0.37029 0.0
H1702 H 0.96416 0.65798 0.31846 0.0
H1703 H 0.93012 0.63865 0.32373 0.0
H1704 H 0.88539 0.64637 0.38116 0.0
H1705 H 0.90188 0.63132 0.36283 0.0
H1706 H 0.99926 0.76382 0.39061 0.0
H1707 H 0.01454 0.74972 0.36606 0.0
H1708 H 0.96407 0.7633 0.39191 0.0
H1709 H 0.93124 0.74247 0.40416 0.0
C1710 C 0.38733 0.00346 0.69176 0.0
C1711 C 0.38828 0.02824 0.69198 0.0
C1712 C 0.43456 0.05077 0.71271 0.0
C1713 C 0.43156 0.02565 0.71952 0.0
N1714 N 0.40503 0.97768 0.71633 0.0
N1715 N 0.41327 0.0761 0.70374 0.0
C1716 C 0.40803 0.00185 0.70881 0.0
C1717 C 0.41221 0.0522 0.70199 0.0
N1718 N 0.36705 0.98164 0.67417 0.0
N1719 N 0.45886 0.07328 0.71699 0.0
H1720 H 0.39766 0.07849 0.69652 0.0
H1721 H 0.42905 0.09348 0.71521 0.0
H1722 H 0.4754 0.07264 0.72511 0.0
H1723 H 0.46317 0.09209 0.70911 0.0
H1724 H 0.36638 0.9636 0.67033 0.0
H1725 H 0.35234 0.98251 0.65975 0.0
H1726 H 0.38715 0.95971 0.71351 0.0
H1727 H 0.42017 0.97574 0.72735 0.0
C1728 C 0.95405 0.37069 0.71777 0.0
C1729 C 0.97536 0.36728 0.70758 0.0
C1730 C 0.00669 0.41431 0.72328 0.0
C1731 C 0.98539 0.41742 0.73413 0.0
N1732 N 0.93915 0.40155 0.7324 0.0
N1733 N 0.02079 0.38779 0.68931 0.0
C1734 C 0.95914 0.39657 0.72786 0.0
C1735 C 1.00135 0.38975 0.70672 0.0
N1736 N 0.92927 0.34906 0.72038 0.0
N1737 N 0.03202 0.43428 0.73063 0.0
H1738 H 0.01737 0.37034 0.67579 0.0
H1739 H 0.03953 0.40412 0.68492 0.0
H1740 H 0.0368 0.45293 0.74146 0.0
H1741 H 0.04818 0.43184 0.7279 0.0
H1742 H 0.91348 0.34983 0.73159 0.0
H1743 H 0.925 0.32985 0.71412 0.0
H1744 H 0.91961 0.38786 0.72526 0.0
H1745 H 0.94266 0.42045 0.74001 0.0
C1746 C 0.62923 0.6185 0.6824 0.0
C1747 C 0.65137 0.61523 0.68149 0.0
C1748 C 0.62417 0.5706 0.70752 0.0
C1749 C 0.60404 0.57634 0.71469 0.0
N1750 N 0.5862 0.60479 0.7077 0.0
N1751 N 0.66881 0.58636 0.68888 0.0
C1752 C 0.60608 0.59987 0.70124 0.0
C1753 C 0.6483 0.59049 0.69203 0.0
N1754 N 0.6302 0.63914 0.66424 0.0
N1755 N 0.62032 0.54617 0.71584 0.0
H1756 H 0.68472 0.59802 0.67264 0.0
H1757 H 0.67011 0.57154 0.70215 0.0
H1758 H 0.60365 0.53163 0.72908 0.0
H1759 H 0.63268 0.53935 0.70746 0.0
H1760 H 0.61414 0.64161 0.66109 0.0
H1761 H 0.6465 0.65234 0.64895 0.0
H1762 H 0.58771 0.623 0.70304 0.0
H1763 H 0.56837 0.59079 0.71933 0.0
C1764 C 0.71206 0.75368 0.6573 0.0
C1765 C 0.72336 0.7409 0.63731 0.0
C1766 C 0.74005 0.77617 0.59214 0.0
C1767 C 0.72498 0.78614 0.60841 0.0
N1768 N 0.696 0.78447 0.65598 0.0
N1769 N 0.74601 0.73854 0.58339 0.0
C1770 C 0.71114 0.77522 0.64128 0.0
C1771 C 0.73695 0.75185 0.6042 0.0
N1772 N 0.70173 0.7449 0.69115 0.0
N1773 N 0.75728 0.79004 0.56491 0.0
H1774 H 0.74451 0.72083 0.59124 0.0
H1775 H 0.7533 0.74397 0.55703 0.0
H1776 H 0.75999 0.80804 0.55572 0.0
H1777 H 0.77068 0.78524 0.55418 0.0
H1778 H 0.69563 0.75497 0.70866 0.0
H1779 H 0.70085 0.72839 0.70287 0.0
H1780 H 0.68288 0.77536 0.67729 0.0
H1781 H 0.69563 0.8007 0.6455 0.0
C1782 C 0.24151 0.96014 0.63437 0.0
C1783 C 0.26616 0.9634 0.64464 0.0
C1784 C 0.24975 0.91646 0.6283 0.0
C1785 C 0.22579 0.91375 0.61605 0.0
N1786 N 0.19572 0.92962 0.61661 0.0
N1787 N 0.29048 0.94278 0.66289 0.0
C1788 C 0.22059 0.9345 0.62261 0.0
C1789 C 0.26923 0.94089 0.6453 0.0
N1790 N 0.23863 0.9818 0.63362 0.0
N1791 N 0.25442 0.89616 0.6217 0.0
H1792 H 0.30463 0.96018 0.67662 0.0
H1793 H 0.29271 0.92651 0.66708 0.0
H1794 H 0.24003 0.87756 0.61092 0.0
H1795 H 0.27276 0.8981 0.62533 0.0
H1796 H 0.22229 0.98144 0.62252 0.0
H1797 H 0.25351 1.00073 0.64209 0.0
H1798 H 0.18978 0.9431 0.62347 0.0
H1799 H 0.18033 0.91087 0.60781 0.0
C1800 C 0.05363 0.32177 0.65424 0.0
C1801 C 0.02777 0.299 0.65263 0.0
C1802 C 0.04518 0.27258 0.62488 0.0
C1803 C 0.07004 0.29624 0.62098 0.0
N1804 N 0.09841 0.3435 0.63132 0.0
N1805 N 0.99826 0.25321 0.63261 0.0
C1806 C 0.07449 0.32086 0.63593 0.0
C1807 C 0.0234 0.27437 0.63754 0.0
N1808 N 0.05829 0.34404 0.67387 0.0
N1809 N 0.04226 0.2484 0.6156 0.0
H1810 H 0.98158 0.25365 0.64051 0.0
H1811 H 0.99367 0.23591 0.61765 0.0
H1812 H 0.05761 0.24638 0.60536 0.0
H1813 H 0.02543 0.23024 0.62129 0.0
H1814 H 0.07705 0.36047 0.67892 0.0
H1815 H 0.0435 0.34517 0.6879 0.0
H1816 H 0.10214 0.36263 0.63741 0.0
H1817 H 0.11436 0.34308 0.61979 0.0
C1818 C 0.2475 0.2718 0.64003 0.0
C1819 C 0.2668 0.29619 0.65747 0.0
C1820 C 0.24036 0.31639 0.64299 0.0
C1821 C 0.22311 0.29334 0.62153 0.0
N1822 N 0.2093 0.24884 0.59943 0.0
N1823 N 0.28135 0.34122 0.67797 0.0
C1824 C 0.2261 0.27075 0.62069 0.0
C1825 C 0.263 0.31829 0.65992 0.0
N1826 N 0.24989 0.24978 0.64124 0.0
N1827 N 0.23488 0.33633 0.64703 0.0
H1828 H 0.29701 0.34256 0.69286 0.0
H1829 H 0.28163 0.35913 0.67769 0.0
H1830 H 0.21836 0.33516 0.63491 0.0
H1831 H 0.24535 0.35308 0.66418 0.0
H1832 H 0.23508 0.23067 0.63308 0.0
H1833 H 0.26618 0.25004 0.65235 0.0
H1834 H 0.21224 0.23314 0.5931 0.0
H1835 H 0.19262 0.24677 0.58656 0.0
C1836 C 0.71133 0.95967 0.66077 0.0
C1837 C 0.69099 0.96405 0.6498 0.0
C1838 C 0.67613 0.92685 0.60523 0.0
C1839 C 0.70117 0.9292 0.60835 0.0
N1840 N 0.74416 0.95066 0.63819 0.0
N1841 N 0.64912 0.94616 0.61882 0.0
C1842 C 0.71911 0.94602 0.63626 0.0
C1843 C 0.67168 0.94574 0.6243 0.0
N1844 N 0.72246 0.96741 0.69491 0.0
N1845 N 0.65679 0.90645 0.58433 0.0
H1846 H 0.6435 0.95661 0.63649 0.0
H1847 H 0.63593 0.93599 0.5973 0.0
H1848 H 0.65957 0.89207 0.57106 0.0
H1849 H 0.63753 0.90238 0.58265 0.0
H1850 H 0.73646 0.96316 0.70436 0.0
H1851 H 0.7147 0.97407 0.71536 0.0
H1852 H 0.75831 0.9649 0.65628 0.0
H1853 H 0.75164 0.94245 0.61968 0.0
C1854 C 0.03635 0.73478 0.6513 0.0
C1855 C 0.01707 0.71398 0.62789 0.0
C1856 C 0.04627 0.7345 0.57597 0.0
C1857 C 0.06279 0.75771 0.59786 0.0
N1858 N 0.07111 0.78127 0.65615 0.0
N1859 N 1.00166 0.69848 0.56567 0.0
C1860 C 0.0572 0.75827 0.63555 0.0
C1861 C 0.02148 0.71497 0.58955 0.0
N1862 N 0.03575 0.73172 0.68834 0.0
N1863 N 0.0543 0.73096 0.54224 0.0
H1864 H 0.98244 0.68552 0.57397 0.0
H1865 H 1.00355 0.70025 0.5373 0.0
H1866 H 0.0729 0.74427 0.53195 0.0
H1867 H 0.04369 0.71338 0.52653 0.0
H1868 H 0.05068 0.74543 0.70598 0.0
H1869 H 0.02226 0.71411 0.70097 0.0
H1870 H 0.06593 0.78336 0.68283 0.0
H1871 H 0.08635 0.79891 0.64556 0.0
C1872 C 0.98692 0.60214 0.69346 0.0
C1873 C 0.96187 0.59936 0.69822 0.0
C1874 C 0.94667 0.55708 0.72887 0.0
C1875 C 0.97303 0.56288 0.7307 0.0
N1876 N 0.01911 0.59266 0.71724 0.0
N1877 N 0.91771 0.57457 0.72189 0.0
C1878 C 0.99336 0.58562 0.71311 0.0
C1879 C 0.94145 0.57663 0.71568 0.0
N1880 N 1.00447 0.62039 0.66973 0.0
N1881 N 0.92681 0.53299 0.74038 0.0
H1882 H 0.91321 0.58861 0.71317 0.0
H1883 H 0.90313 0.56 0.73806 0.0
H1884 H 0.93037 0.51849 0.75012 0.0
H1885 H 0.90692 0.52647 0.737 0.0
H1886 H 0.02205 0.62153 0.66251 0.0
H1887 H 1.00015 0.63241 0.6542 0.0
H1888 H 0.03483 0.61091 0.70908 0.0
H1889 H 0.02504 0.5813 0.73118 0.0
C1890 C 0.41497 0.37307 0.71525 0.0
C1891 C 0.38961 0.36959 0.71011 0.0
C1892 C 0.40794 0.41707 0.72633 0.0
C1893 C 0.43317 0.42027 0.73106 0.0
N1894 N 0.46203 0.40314 0.71942 0.0
N1895 N 0.36386 0.39025 0.70047 0.0
C1896 C 0.43714 0.39898 0.72142 0.0
C1897 C 0.38664 0.39222 0.7125 0.0
N1898 N 0.41773 0.35143 0.71756 0.0
N1899 N 0.40424 0.43759 0.73615 0.0
H1900 H 0.34831 0.37273 0.68879 0.0
H1901 H 0.36142 0.40658 0.69861 0.0
H1902 H 0.41985 0.45641 0.74426 0.0
H1903 H 0.38575 0.43559 0.7378 0.0
H1904 H 0.43506 0.35245 0.72576 0.0
H1905 H 0.40178 0.33221 0.71572 0.0
H1906 H 0.46602 0.38897 0.70852 0.0
H1907 H 0.47899 0.42147 0.72502 0.0
C1908 C 0.61912 0.01623 0.68811 0.0
C1909 C 0.64417 0.03967 0.69296 0.0
C1910 C 0.62304 0.06279 0.71994 0.0
C1911 C 0.59896 0.03802 0.72161 0.0
N1912 N 0.57439 0.99031 0.70949 0.0
N1913 N 0.67059 0.0856 0.71373 0.0
C1914 C 0.5969 0.01457 0.70563 0.0
C1915 C 0.6463 0.06328 0.70827 0.0
N1916 N 0.61658 0.99558 0.66648 0.0
N1917 N 0.62354 0.0857 0.73006 0.0
H1918 H 0.68796 0.0867 0.70533 0.0
H1919 H 0.67372 0.10246 0.72853 0.0
H1920 H 0.60666 0.0856 0.73867 0.0
H1921 H 0.63985 0.10472 0.7268 0.0
H1922 H 0.59845 0.97899 0.65897 0.0
H1923 H 0.63248 0.99637 0.65288 0.0
H1924 H 0.57311 0.97226 0.70275 0.0
H1925 H 0.55743 0.98788 0.7218 0.0
loop_
_geom_bond_atom_site_label_1
_geom_bond_atom_site_label_2
_geom_bond_distance
_geom_bond_site_symmetry_2
_ccdc_geom_bond_type
Co0 O1 2.216 . S
Co0 O2 2.091 . S
Co0 O4 2.004 1_554 S
Co0 O10 2.021 . S
Co0 O12 2.137 1_454 S
Co0 O13 2.244 1_455 S
O1 Co0 2.216 . S
O1 C8 1.247 . S
O2 Co0 2.091 . S
O2 C8 1.261 . S
C3 O12 1.247 . S
C3 O13 1.272 1_556 S
O4 Co0 2.004 1_556 S
O4 C9 1.259 1_455 S
Co5 O6 2.061 1_554 S
Co5 O11 2.052 . S
Co5 O13 2.135 . S
O6 Co5 2.061 1_556 S
O6 C9 1.235 . S
C7 O10 1.238 1_655 S
C7 O11 1.241 . S
C8 O1 1.247 . S
C8 O2 1.261 . S
C9 O4 1.259 1_655 S
C9 O6 1.235 . S
O10 Co0 2.021 . S
O10 C7 1.238 1_455 S
O11 Co5 2.052 . S
O11 C7 1.241 . S
O12 Co0 2.137 1_656 S
O12 C3 1.247 . S
O13 Co0 2.244 1_655 S
O13 C3 1.272 1_554 S
O13 Co5 2.135 . S
Co14 O15 2.216 1_554 S
Co14 O16 2.091 . S
Co14 O18 2.004 . S
Co14 O24 2.021 1_554 S
Co14 O26 2.137 . S
Co14 O27 2.244 . S
O15 Co14 2.216 1_556 S
O15 C22 1.247 . S
O16 Co14 2.091 . S
O16 C22 1.261 1_554 S
C17 O26 1.247 . S
C17 O27 1.272 . S
O18 Co14 2.004 . S
O18 C23 1.259 . S
Co19 O20 2.061 . S
Co19 O25 2.052 1_554 S
Co19 O27 2.135 . S
O20 Co19 2.061 . S
O20 C23 1.235 . S
C21 O24 1.238 . S
C21 O25 1.241 . S
C22 O15 1.247 . S
C22 O16 1.261 1_556 S
C23 O18 1.259 . S
C23 O20 1.235 . S
O24 Co14 2.021 1_556 S
O24 C21 1.238 . S
O25 Co19 2.052 1_556 S
O25 C21 1.241 . S
O26 Co14 2.137 . S
O26 C17 1.247 . S
O27 Co14 2.244 . S
O27 C17 1.272 . S
O27 Co19 2.135 . S
Co28 O29 2.216 1_554 S
Co28 O30 2.091 . S
Co28 O32 2.004 . S
Co28 O38 2.021 1_554 S
Co28 O40 2.137 1_545 S
Co28 O41 2.244 1_545 S
O29 Co28 2.216 1_556 S
O29 C36 1.247 . S
O30 Co28 2.091 . S
O30 C36 1.261 1_554 S
C31 O40 1.247 . S
C31 O41 1.272 . S
O32 Co28 2.004 . S
O32 C37 1.289 . S
Co33 O34 2.061 . S
Co33 O39 2.052 1_554 S
Co33 O41 2.135 . S
O34 Co33 2.061 . S
O34 C37 1.207 1_565 S
C35 O38 1.238 1_565 S
C35 O39 1.241 . S
C36 O29 1.247 . S
C36 O30 1.261 1_556 S
C37 O32 1.289 . S
C37 O34 1.207 1_545 S
O38 Co28 2.021 1_556 S
O38 C35 1.238 1_545 S
O39 Co33 2.052 1_556 S
O39 C35 1.241 . S
O40 Co28 2.137 1_565 S
O40 C31 1.247 . S
O41 Co28 2.244 1_565 S
O41 C31 1.272 . S
O41 Co33 2.135 . S
Co42 O43 2.216 1_554 S
Co42 O44 2.091 . S
Co42 O46 2.004 . S
Co42 O52 2.021 1_554 S
Co42 O54 2.137 1_655 S
Co42 O55 2.244 1_655 S
O43 Co42 2.216 1_556 S
O43 C50 1.247 . S
O44 Co42 2.091 . S
O44 C50 1.261 1_554 S
C45 O54 1.247 . S
C45 O55 1.272 . S
O46 Co42 2.004 . S
O46 C51 1.259 1_655 S
Co47 O48 2.061 . S
Co47 O53 2.052 1_554 S
Co47 O55 2.135 . S
O48 Co47 2.061 . S
O48 C51 1.235 . S
C49 O52 1.238 1_455 S
C49 O53 1.241 . S
C50 O43 1.247 . S
C50 O44 1.261 1_556 S
C51 O46 1.259 1_455 S
C51 O48 1.235 . S
O52 Co42 2.021 1_556 S
O52 C49 1.238 1_655 S
O53 Co47 2.052 1_556 S
O53 C49 1.241 . S
O54 Co42 2.137 1_455 S
O54 C45 1.247 . S
O55 Co42 2.244 1_455 S
O55 C45 1.272 . S
O55 Co47 2.135 . S
Co56 O57 2.216 . S
Co56 O58 2.091 . S
Co56 O60 2.004 1_554 S
Co56 O66 2.021 . S
Co56 O68 2.137 1_554 S
Co56 O69 2.243 1_554 S
O57 Co56 2.216 . S
O57 C64 1.247 . S
O58 Co56 2.091 . S
O58 C64 1.261 . S
C59 O68 1.247 . S
C59 O69 1.278 . S
O60 Co56 2.004 1_556 S
O60 C65 1.259 . S
Co61 O62 2.057 1_554 S
Co61 O67 2.058 . S
Co61 O69 2.135 1_554 S
O62 Co61 2.057 1_556 S
O62 C65 1.235 . S
C63 O66 1.238 . S
C63 O67 1.241 . S
C64 O57 1.247 . S
C64 O58 1.261 . S
C65 O60 1.259 . S
C65 O62 1.235 . S
O66 Co56 2.021 . S
O66 C63 1.238 . S
O67 Co61 2.058 . S
O67 C63 1.241 . S
O68 Co56 2.137 1_556 S
O68 C59 1.247 . S
O69 Co56 2.243 1_556 S
O69 C59 1.278 . S
O69 Co61 2.135 1_556 S
Co70 O71 2.216 . S
Co70 O72 2.091 . S
Co70 O74 2.004 1_554 S
Co70 O80 2.021 . S
Co70 O82 2.137 1_564 S
Co70 O83 2.244 1_565 S
O71 Co70 2.216 . S
O71 C78 1.247 . S
O72 Co70 2.091 . S
O72 C78 1.261 . S
C73 O82 1.247 . S
C73 O83 1.272 1_556 S
O74 Co70 2.004 1_556 S
O74 C79 1.259 1_565 S
Co75 O76 2.061 1_554 S
Co75 O81 2.052 . S
Co75 O83 2.135 . S
O76 Co75 2.061 1_556 S
O76 C79 1.235 . S
C77 O80 1.238 1_545 S
C77 O81 1.241 . S
C78 O71 1.247 . S
C78 O72 1.261 . S
C79 O74 1.259 1_545 S
C79 O76 1.235 . S
O80 Co70 2.021 . S
O80 C77 1.238 1_565 S
O81 Co75 2.052 . S
O81 C77 1.241 . S
O82 Co70 2.137 1_546 S
O82 C73 1.247 . S
O83 Co70 2.244 1_545 S
O83 C73 1.272 1_554 S
O83 Co75 2.135 . S
Co84 O85 2.216 . S
Co84 O86 2.091 . S
Co84 O88 2.004 . S
Co84 O94 2.021 . S
Co84 O96 2.137 . S
Co84 O97 2.244 . S
O85 Co84 2.216 . S
O85 C92 1.247 . S
O86 Co84 2.091 . S
O86 C92 1.261 . S
C87 O96 1.247 . S
C87 O97 1.272 . S
O88 Co84 2.004 . S
O88 C93 1.259 . S
Co89 O90 2.061 . S
Co89 O95 2.052 . S
Co89 O97 2.135 . S
O90 Co89 2.061 . S
O90 C93 1.235 . S
C91 O94 1.238 . S
C91 O95 1.241 . S
C92 O85 1.247 . S
C92 O86 1.261 . S
C93 O88 1.259 . S
C93 O90 1.235 . S
O94 Co84 2.021 . S
O94 C91 1.238 . S
O95 Co89 2.052 . S
O95 C91 1.241 . S
O96 Co84 2.137 . S
O96 C87 1.247 . S
O97 Co84 2.244 . S
O97 C87 1.272 . S
O97 Co89 2.135 . S
Co98 O99 2.216 1_565 S
Co98 O100 2.091 . S
Co98 O102 2.004 . S
Co98 O108 2.021 . S
Co98 O110 2.137 1_565 S
Co98 O111 2.244 1_565 S
O99 Co98 2.216 1_545 S
O99 C106 1.247 1_545 S
O100 Co98 2.091 . S
O100 C106 1.261 . S
C101 O110 1.247 . S
C101 O111 1.272 . S
O102 Co98 2.004 . S
O102 C107 1.259 . S
Co103 O104 2.061 . S
Co103 O109 2.052 . S
Co103 O111 2.135 1_565 S
O104 Co103 2.061 . S
O104 C107 1.235 . S
C105 O108 1.238 . S
C105 O109 1.241 . S
C106 O99 1.247 1_565 S
C106 O100 1.261 . S
C107 O102 1.259 . S
C107 O104 1.235 . S
O108 Co98 2.021 . S
O108 C105 1.238 . S
O109 Co103 2.052 . S
O109 C105 1.241 . S
O110 Co98 2.137 1_545 S
O110 C101 1.247 . S
O111 Co98 2.244 1_545 S
O111 C101 1.272 . S
O111 Co103 2.135 1_545 S
Co112 O113 2.216 1_455 S
Co112 O114 2.091 . S
Co112 O116 2.004 . S
Co112 O122 2.021 . S
Co112 O124 2.137 1_455 S
Co112 O125 2.244 1_455 S
O113 Co112 2.216 1_655 S
O113 C120 1.247 1_655 S
O114 Co112 2.091 . S
O114 C120 1.261 . S
C115 O124 1.247 . S
C115 O125 1.272 . S
O116 Co112 2.004 . S
O116 C121 1.259 . S
Co117 O118 2.061 . S
Co117 O123 2.052 . S
Co117 O125 2.135 1_455 S
O118 Co117 2.061 . S
O118 C121 1.235 . S
C119 O122 1.238 . S
C119 O123 1.241 . S
C120 O113 1.247 1_455 S
C120 O114 1.261 . S
C121 O116 1.259 . S
C121 O118 1.235 . S
O122 Co112 2.021 . S
O122 C119 1.238 . S
O123 Co117 2.052 . S
O123 C119 1.241 . S
O124 Co112 2.137 1_655 S
O124 C115 1.247 . S
O125 Co112 2.244 1_655 S
O125 C115 1.272 . S
O125 Co117 2.135 1_655 S
Co126 O127 2.216 1_565 S
Co126 O128 2.091 . S
Co126 O130 2.004 . S
Co126 O136 2.021 . S
Co126 O138 2.137 1_565 S
Co126 O139 2.244 1_565 S
O127 Co126 2.216 1_545 S
O127 C134 1.247 1_545 S
O128 Co126 2.091 . S
O128 C134 1.261 . S
C129 O138 1.247 . S
C129 O139 1.272 . S
O130 Co126 2.004 . S
O130 C135 1.259 . S
Co131 O132 2.061 . S
Co131 O137 2.052 . S
Co131 O139 2.135 1_565 S
O132 Co131 2.061 . S
O132 C135 1.235 . S
C133 O136 1.238 . S
C133 O137 1.241 . S
C134 O127 1.247 1_565 S
C134 O128 1.261 . S
C135 O130 1.259 . S
C135 O132 1.235 . S
O136 Co126 2.021 . S
O136 C133 1.238 . S
O137 Co131 2.052 . S
O137 C133 1.241 . S
O138 Co126 2.137 1_545 S
O138 C129 1.247 . S
O139 Co126 2.244 1_545 S
O139 C129 1.272 . S
O139 Co131 2.135 1_545 S
Co140 O141 2.216 1_455 S
Co140 O142 2.091 1_455 S
Co140 O144 2.004 . S
Co140 O150 2.021 . S
Co140 O152 2.137 1_455 S
Co140 O153 2.244 . S
O141 Co140 2.216 1_655 S
O141 C148 1.247 . S
O142 Co140 2.091 1_655 S
O142 C148 1.261 . S
C143 O152 1.247 1_455 S
C143 O153 1.272 . S
O144 Co140 2.004 . S
O144 C149 1.259 . S
Co145 O146 2.061 . S
Co145 O151 2.052 . S
Co145 O153 2.135 . S
O146 Co145 2.061 . S
O146 C149 1.235 . S
C147 O150 1.238 . S
C147 O151 1.241 . S
C148 O141 1.247 . S
C148 O142 1.261 . S
C149 O144 1.259 . S
C149 O146 1.235 . S
O150 Co140 2.021 . S
O150 C147 1.238 . S
O151 Co145 2.052 . S
O151 C147 1.241 . S
O152 Co140 2.137 1_655 S
O152 C143 1.247 1_655 S
O153 Co140 2.244 . S
O153 C143 1.272 . S
O153 Co145 2.135 . S
Co154 O155 2.216 . S
Co154 O156 2.091 . S
Co154 O158 2.004 . S
Co154 O164 2.021 . S
Co154 O166 2.137 . S
Co154 O167 2.244 . S
O155 Co154 2.216 . S
O155 C162 1.247 . S
O156 Co154 2.091 . S
O156 C162 1.261 . S
C157 O166 1.247 . S
C157 O167 1.272 . S
O158 Co154 2.004 . S
O158 C163 1.259 . S
Co159 O160 2.061 . S
Co159 O165 2.052 . S
Co159 O167 2.135 . S
O160 Co159 2.061 . S
O160 C163 1.235 . S
C161 O164 1.238 . S
C161 O165 1.241 . S
C162 O155 1.247 . S
C162 O156 1.261 . S
C163 O158 1.259 . S
C163 O160 1.235 . S
O164 Co154 2.021 . S
O164 C161 1.238 . S
O165 Co159 2.052 . S
O165 C161 1.241 . S
O166 Co154 2.137 . S
O166 C157 1.247 . S
O167 Co154 2.244 . S
O167 C157 1.272 . S
O167 Co159 2.135 . S
Co168 O169 2.216 1_545 S
Co168 O170 2.091 . S
Co168 O172 2.004 . S
Co168 O178 2.021 . S
Co168 O180 2.137 1_545 S
Co168 O181 2.244 1_545 S
O169 Co168 2.216 1_565 S
O169 C176 1.247 1_565 S
O170 Co168 2.091 . S
O170 C176 1.261 . S
C171 O180 1.247 . S
C171 O181 1.272 . S
O172 Co168 2.004 . S
O172 C177 1.259 . S
Co173 O174 2.061 . S
Co173 O179 2.052 . S
Co173 O181 2.135 1_545 S
O174 Co173 2.061 . S
O174 C177 1.235 . S
C175 O178 1.238 . S
C175 O179 1.241 . S
C176 O169 1.247 1_545 S
C176 O170 1.261 . S
C177 O172 1.259 . S
C177 O174 1.235 . S
O178 Co168 2.021 . S
O178 C175 1.238 . S
O179 Co173 2.052 . S
O179 C175 1.241 . S
O180 Co168 2.137 1_565 S
O180 C171 1.247 . S
O181 Co168 2.244 1_565 S
O181 C171 1.272 . S
O181 Co173 2.135 1_565 S
Co182 O183 2.216 1_655 S
Co182 O184 2.091 1_655 S
Co182 O186 2.004 . S
Co182 O192 2.021 . S
Co182 O194 2.137 1_655 S
Co182 O195 2.244 . S
O183 Co182 2.216 1_455 S
O183 C190 1.247 . S
O184 Co182 2.091 1_455 S
O184 C190 1.261 . S
C185 O194 1.247 1_655 S
C185 O195 1.272 . S
O186 Co182 2.004 . S
O186 C191 1.259 . S
Co187 O188 2.061 . S
Co187 O193 2.052 . S
Co187 O195 2.135 . S
O188 Co187 2.061 . S
O188 C191 1.235 . S
C189 O192 1.238 . S
C189 O193 1.241 . S
C190 O183 1.247 . S
C190 O184 1.261 . S
C191 O186 1.259 . S
C191 O188 1.235 . S
O192 Co182 2.021 . S
O192 C189 1.238 . S
O193 Co187 2.052 . S
O193 C189 1.241 . S
O194 Co182 2.137 1_455 S
O194 C185 1.247 1_455 S
O195 Co182 2.244 . S
O195 C185 1.272 . S
O195 Co187 2.135 . S
Co196 O197 2.216 . S
Co196 O198 2.091 . S
Co196 O200 2.004 . S
Co196 O206 2.021 . S
Co196 O208 2.137 . S
Co196 O209 2.244 . S
O197 Co196 2.216 . S
O197 C204 1.247 . S
O198 Co196 2.091 . S
O198 C204 1.261 . S
C199 O208 1.247 . S
C199 O209 1.272 . S
O200 Co196 2.004 . S
O200 C205 1.259 . S
Co201 O202 2.061 . S
Co201 O207 2.052 . S
Co201 O209 2.135 . S
O202 Co201 2.061 . S
O202 C205 1.235 . S
C203 O206 1.238 . S
C203 O207 1.241 . S
C204 O197 1.247 . S
C204 O198 1.261 . S
C205 O200 1.259 . S
C205 O202 1.235 . S
O206 Co196 2.021 . S
O206 C203 1.238 . S
O207 Co201 2.052 . S
O207 C203 1.241 . S
O208 Co196 2.137 . S
O208 C199 1.247 . S
O209 Co196 2.244 . S
O209 C199 1.272 . S
O209 Co201 2.135 . S
Co210 O211 2.216 . S
Co210 O212 2.091 . S
Co210 O214 2.004 . S
Co210 O220 2.021 . S
Co210 O222 2.137 . S
Co210 O223 2.244 . S
O211 Co210 2.216 . S
O211 C218 1.247 . S
O212 Co210 2.091 . S
O212 C218 1.261 . S
C213 O222 1.247 . S
C213 O223 1.272 . S
O214 Co210 2.004 . S
O214 C219 1.259 . S
Co215 O216 2.061 . S
Co215 O221 2.052 . S
Co215 O223 2.135 . S
O216 Co215 2.061 . S
O216 C219 1.235 . S
C217 O220 1.238 . S
C217 O221 1.241 . S
C218 O211 1.247 . S
C218 O212 1.261 . S
C219 O214 1.259 . S
C219 O216 1.235 . S
O220 Co210 2.021 . S
O220 C217 1.238 . S
O221 Co215 2.052 . S
O221 C217 1.241 . S
O222 Co210 2.137 . S
O222 C213 1.247 . S
O223 Co210 2.244 . S
O223 C213 1.272 . S
O223 Co215 2.135 . S
Co224 O225 2.216 1_545 S
Co224 O226 2.091 . S
Co224 O228 2.004 . S
Co224 O234 2.021 . S
Co224 O236 2.137 1_545 S
Co224 O237 2.244 1_545 S
O225 Co224 2.216 1_565 S
O225 C232 1.247 1_565 S
O226 Co224 2.091 . S
O226 C232 1.261 . S
C227 O236 1.247 . S
C227 O237 1.272 . S
O228 Co224 2.004 . S
O228 C233 1.259 . S
Co229 O230 2.061 . S
Co229 O235 2.052 . S
Co229 O237 2.135 1_545 S
O230 Co229 2.061 . S
O230 C233 1.235 . S
C231 O234 1.238 . S
C231 O235 1.241 . S
C232 O225 1.247 1_545 S
C232 O226 1.261 . S
C233 O228 1.259 . S
C233 O230 1.235 . S
O234 Co224 2.021 . S
O234 C231 1.238 . S
O235 Co229 2.052 . S
O235 C231 1.241 . S
O236 Co224 2.137 1_565 S
O236 C227 1.247 . S
O237 Co224 2.244 1_565 S
O237 C227 1.272 . S
O237 Co229 2.135 1_565 S
Co238 O239 2.216 1_655 S
Co238 O240 2.091 . S
Co238 O242 2.004 . S
Co238 O248 2.021 . S
Co238 O250 2.137 1_655 S
Co238 O251 2.244 1_655 S
O239 Co238 2.216 1_455 S
O239 C246 1.247 1_455 S
O240 Co238 2.091 . S
O240 C246 1.261 . S
C241 O250 1.247 . S
C241 O251 1.272 . S
O242 Co238 2.004 . S
O242 C247 1.259 . S
Co243 O244 2.061 . S
Co243 O249 2.052 . S
Co243 O251 2.135 1_655 S
O244 Co243 2.061 . S
O244 C247 1.235 . S
C245 O248 1.238 . S
C245 O249 1.241 . S
C246 O239 1.247 1_655 S
C246 O240 1.261 . S
C247 O242 1.259 . S
C247 O244 1.235 . S
O248 Co238 2.021 . S
O248 C245 1.238 . S
O249 Co243 2.052 . S
O249 C245 1.241 . S
O250 Co238 2.137 1_455 S
O250 C241 1.247 . S
O251 Co238 2.244 1_455 S
O251 C241 1.272 . S
O251 Co243 2.135 1_455 S
H252 C260 0.930 . S
H253 C263 0.930 . S
H254 C265 0.930 . S
H255 C266 0.970 . S
H256 C266 0.970 . S
H257 C268 0.930 . S
H258 C270 0.930 . S
H259 C272 0.930 . S
C260 H252 0.930 . S
C260 C261 1.382 . S
C260 C262 1.426 . S
C261 C260 1.382 . S
C261 C265 1.389 . S
C262 C260 1.426 . S
C262 C263 1.375 . S
C262 C266 1.532 . S
C263 H253 0.930 . S
C263 C262 1.375 . S
C263 C264 1.416 . S
C264 C263 1.416 . S
C264 C265 1.371 . S
C265 H254 0.930 . S
C265 C261 1.389 . S
C265 C264 1.371 . S
C266 H255 0.970 . S
C266 H256 0.970 . S
C266 C262 1.532 . S
C266 C267 1.499 . S
C267 C266 1.499 . S
C267 C268 1.370 . S
C267 C272 1.415 . S
C268 H257 0.930 . S
C268 C267 1.370 . S
C268 C269 1.407 . S
C269 C268 1.407 . S
C269 C270 1.365 . S
C270 H258 0.930 . S
C270 C269 1.365 . S
C270 C271 1.393 . S
C271 C270 1.393 . S
C271 C272 1.387 . S
C272 H259 0.930 . S
C272 C267 1.415 . S
C272 C271 1.387 . S
H273 C281 0.930 . S
H274 C284 0.930 . S
H275 C286 0.930 . S
H276 C287 0.970 . S
H277 C287 0.970 . S
H278 C289 0.930 . S
H279 C291 0.930 . S
H280 C293 0.930 . S
C281 H273 0.930 . S
C281 C282 1.382 . S
C281 C283 1.426 . S
C282 C281 1.382 . S
C282 C286 1.389 . S
C283 C281 1.426 . S
C283 C284 1.375 . S
C283 C287 1.532 . S
C284 H274 0.930 . S
C284 C283 1.375 . S
C284 C285 1.416 . S
C285 C284 1.416 . S
C285 C286 1.371 . S
C286 H275 0.930 . S
C286 C282 1.389 . S
C286 C285 1.371 . S
C287 H276 0.970 . S
C287 H277 0.970 . S
C287 C283 1.532 . S
C287 C288 1.499 . S
C288 C287 1.499 . S
C288 C289 1.370 . S
C288 C293 1.415 . S
C289 H278 0.930 . S
C289 C288 1.370 . S
C289 C290 1.407 . S
C290 C289 1.407 . S
C290 C291 1.365 . S
C291 H279 0.930 . S
C291 C290 1.365 . S
C291 C292 1.393 . S
C292 C291 1.393 . S
C292 C293 1.387 . S
C293 H280 0.930 . S
C293 C288 1.415 . S
C293 C292 1.387 . S
H294 C302 0.930 . S
H295 C305 0.930 . S
H296 C307 0.930 . S
H297 C308 0.970 . S
H298 C308 0.970 . S
H299 C310 0.930 . S
H300 C312 0.930 . S
H301 C314 0.930 . S
C302 H294 0.930 . S
C302 C303 1.382 . S
C302 C304 1.426 . S
C303 C302 1.382 . S
C303 C307 1.389 . S
C304 C302 1.426 . S
C304 C305 1.375 . S
C304 C308 1.532 . S
C305 H295 0.930 . S
C305 C304 1.375 . S
C305 C306 1.416 . S
C306 C305 1.416 . S
C306 C307 1.371 . S
C307 H296 0.930 . S
C307 C303 1.389 . S
C307 C306 1.371 . S
C308 H297 0.970 . S
C308 H298 0.970 . S
C308 C304 1.532 . S
C308 C309 1.499 . S
C309 C308 1.499 . S
C309 C310 1.370 . S
C309 C314 1.415 . S
C310 H299 0.930 . S
C310 C309 1.370 . S
C310 C311 1.407 . S
C311 C310 1.407 . S
C311 C312 1.365 . S
C312 H300 0.930 . S
C312 C311 1.365 . S
C312 C313 1.393 . S
C313 C312 1.393 . S
C313 C314 1.387 . S
C314 H301 0.930 . S
C314 C309 1.415 . S
C314 C313 1.387 . S
H315 C323 0.930 . S
H316 C326 0.930 . S
H317 C328 0.930 . S
H318 C329 0.970 . S
H319 C329 0.970 . S
H320 C331 0.930 . S
H321 C333 0.930 . S
H322 C335 0.930 . S
C323 H315 0.930 . S
C323 C324 1.382 . S
C323 C325 1.426 . S
C324 C323 1.382 . S
C324 C328 1.389 . S
C325 C323 1.426 . S
C325 C326 1.375 . S
C325 C329 1.532 . S
C326 H316 0.930 . S
C326 C325 1.375 . S
C326 C327 1.416 . S
C327 C326 1.416 . S
C327 C328 1.371 . S
C328 H317 0.930 . S
C328 C324 1.389 . S
C328 C327 1.371 . S
C329 H318 0.970 . S
C329 H319 0.970 . S
C329 C325 1.532 . S
C329 C330 1.499 . S
C330 C329 1.499 . S
C330 C331 1.370 . S
C330 C335 1.415 . S
C331 H320 0.930 . S
C331 C330 1.370 . S
C331 C332 1.407 . S
C332 C331 1.407 . S
C332 C333 1.365 . S
C333 H321 0.930 . S
C333 C332 1.365 . S
C333 C334 1.393 . S
C334 C333 1.393 . S
C334 C335 1.387 . S
C335 H322 0.930 . S
C335 C330 1.415 . S
C335 C334 1.387 . S
H336 C344 0.930 . S
H337 C347 0.930 . S
H338 C349 0.930 . S
H339 C350 0.970 . S
H340 C350 0.970 . S
H341 C352 0.930 . S
H342 C354 0.930 . S
H343 C356 0.930 . S
C344 H336 0.930 . S
C344 C345 1.382 . S
C344 C346 1.426 . S
C345 C344 1.382 . S
C345 C349 1.389 . S
C346 C344 1.426 . S
C346 C347 1.375 . S
C346 C350 1.532 . S
C347 H337 0.930 . S
C347 C346 1.375 . S
C347 C348 1.416 . S
C348 C347 1.416 . S
C348 C349 1.371 . S
C349 H338 0.930 . S
C349 C345 1.389 . S
C349 C348 1.371 . S
C350 H339 0.970 . S
C350 H340 0.970 . S
C350 C346 1.532 . S
C350 C351 1.499 . S
C351 C350 1.499 . S
C351 C352 1.370 . S
C351 C356 1.415 . S
C352 H341 0.930 . S
C352 C351 1.370 . S
C352 C353 1.407 . S
C353 C352 1.407 . S
C353 C354 1.365 . S
C354 H342 0.930 . S
C354 C353 1.365 . S
C354 C355 1.393 . S
C355 C354 1.393 . S
C355 C356 1.387 . S
C356 H343 0.930 . S
C356 C351 1.415 . S
C356 C355 1.387 . S
H357 C365 0.930 . S
H358 C368 0.930 . S
H359 C370 0.930 . S
H360 C371 0.970 . S
H361 C371 0.970 . S
H362 C373 0.930 . S
H363 C375 0.930 . S
H364 C377 0.930 . S
C365 H357 0.930 . S
C365 C366 1.382 . S
C365 C367 1.426 . S
C366 C365 1.382 . S
C366 C370 1.389 . S
C367 C365 1.426 . S
C367 C368 1.375 . S
C367 C371 1.532 . S
C368 H358 0.930 . S
C368 C367 1.375 . S
C368 C369 1.416 . S
C369 C368 1.416 . S
C369 C370 1.371 . S
C370 H359 0.930 . S
C370 C366 1.389 . S
C370 C369 1.371 . S
C371 H360 0.970 . S
C371 H361 0.970 . S
C371 C367 1.532 . S
C371 C372 1.499 . S
C372 C371 1.499 . S
C372 C373 1.370 . S
C372 C377 1.415 . S
C373 H362 0.930 . S
C373 C372 1.370 . S
C373 C374 1.407 . S
C374 C373 1.407 . S
C374 C375 1.365 . S
C375 H363 0.930 . S
C375 C374 1.365 . S
C375 C376 1.393 . S
C376 C375 1.393 . S
C376 C377 1.387 . S
C377 H364 0.930 . S
C377 C372 1.415 . S
C377 C376 1.387 . S
H378 C386 0.930 . S
H379 C389 0.930 . S
H380 C391 0.930 . S
H381 C392 0.970 . S
H382 C392 0.970 . S
H383 C394 0.930 . S
H384 C396 0.930 . S
H385 C398 0.930 . S
C386 H378 0.930 . S
C386 C387 1.382 . S
C386 C388 1.426 . S
C387 C386 1.382 . S
C387 C391 1.389 . S
C388 C386 1.426 . S
C388 C389 1.375 . S
C388 C392 1.532 . S
C389 H379 0.930 . S
C389 C388 1.375 . S
C389 C390 1.416 . S
C390 C389 1.416 . S
C390 C391 1.371 . S
C391 H380 0.930 . S
C391 C387 1.389 . S
C391 C390 1.371 . S
C392 H381 0.970 . S
C392 H382 0.970 . S
C392 C388 1.532 . S
C392 C393 1.499 . S
C393 C392 1.499 . S
C393 C394 1.370 . S
C393 C398 1.415 . S
C394 H383 0.930 . S
C394 C393 1.370 . S
C394 C395 1.407 . S
C395 C394 1.407 . S
C395 C396 1.365 . S
C396 H384 0.930 . S
C396 C395 1.365 . S
C396 C397 1.393 . S
C397 C396 1.393 . S
C397 C398 1.387 . S
C398 H385 0.930 . S
C398 C393 1.415 . S
C398 C397 1.387 . S
H399 C407 0.930 . S
H400 C410 0.930 . S
H401 C412 0.930 . S
H402 C413 0.970 . S
H403 C413 0.970 . S
H404 C415 0.930 . S
H405 C417 0.930 . S
H406 C419 0.930 . S
C407 H399 0.930 . S
C407 C408 1.382 . S
C407 C409 1.426 . S
C408 C407 1.382 . S
C408 C412 1.389 . S
C409 C407 1.426 . S
C409 C410 1.375 . S
C409 C413 1.532 . S
C410 H400 0.930 . S
C410 C409 1.375 . S
C410 C411 1.416 . S
C411 C410 1.416 . S
C411 C412 1.371 . S
C412 H401 0.930 . S
C412 C408 1.389 . S
C412 C411 1.371 . S
C413 H402 0.970 . S
C413 H403 0.970 . S
C413 C409 1.532 . S
C413 C414 1.499 . S
C414 C413 1.499 . S
C414 C415 1.370 . S
C414 C419 1.415 . S
C415 H404 0.930 . S
C415 C414 1.370 . S
C415 C416 1.407 . S
C416 C415 1.407 . S
C416 C417 1.365 . S
C417 H405 0.930 . S
C417 C416 1.365 . S
C417 C418 1.393 . S
C418 C417 1.393 . S
C418 C419 1.387 . S
C419 H406 0.930 . S
C419 C414 1.415 . S
C419 C418 1.387 . S
H420 C428 0.930 . S
H421 C431 0.930 . S
H422 C433 0.930 . S
H423 C434 0.970 . S
H424 C434 0.970 . S
H425 C436 0.930 . S
H426 C438 0.930 . S
H427 C440 0.930 . S
C428 H420 0.930 . S
C428 C429 1.382 . S
C428 C430 1.426 . S
C429 C428 1.382 . S
C429 C433 1.389 . S
C430 C428 1.426 . S
C430 C431 1.375 . S
C430 C434 1.532 . S
C431 H421 0.930 . S
C431 C430 1.375 . S
C431 C432 1.416 . S
C432 C431 1.416 . S
C432 C433 1.371 . S
C433 H422 0.930 . S
C433 C429 1.389 . S
C433 C432 1.371 . S
C434 H423 0.970 . S
C434 H424 0.970 . S
C434 C430 1.532 . S
C434 C435 1.499 . S
C435 C434 1.499 . S
C435 C436 1.370 . S
C435 C440 1.415 . S
C436 H425 0.930 . S
C436 C435 1.370 . S
C436 C437 1.407 . S
C437 C436 1.407 . S
C437 C438 1.365 . S
C438 H426 0.930 . S
C438 C437 1.365 . S
C438 C439 1.393 . S
C439 C438 1.393 . S
C439 C440 1.387 . S
C440 H427 0.930 . S
C440 C435 1.415 . S
C440 C439 1.387 . S
H441 C449 0.930 . S
H442 C452 0.930 . S
H443 C454 0.930 . S
H444 C455 0.970 . S
H445 C455 0.970 . S
H446 C457 0.930 . S
H447 C459 0.930 . S
H448 C461 0.930 . S
C449 H441 0.930 . S
C449 C450 1.382 . S
C449 C451 1.426 . S
C450 C449 1.382 . S
C450 C454 1.389 1_455 S
C451 C449 1.426 . S
C451 C452 1.375 . S
C451 C455 1.532 . S
C452 H442 0.930 . S
C452 C451 1.375 . S
C452 C453 1.416 . S
C453 C452 1.416 . S
C453 C454 1.371 1_455 S
C454 H443 0.930 . S
C454 C450 1.389 1_655 S
C454 C453 1.371 1_655 S
C455 H444 0.970 . S
C455 H445 0.970 . S
C455 C451 1.532 . S
C455 C456 1.499 . S
C456 C455 1.499 . S
C456 C457 1.370 . S
C456 C461 1.415 . S
C457 H446 0.930 . S
C457 C456 1.370 . S
C457 C458 1.407 . S
C458 C457 1.407 . S
C458 C459 1.365 1_455 S
C459 H447 0.930 . S
C459 C458 1.365 1_655 S
C459 C460 1.393 1_655 S
C460 C459 1.393 1_455 S
C460 C461 1.387 . S
C461 H448 0.930 . S
C461 C456 1.415 . S
C461 C460 1.387 . S
H462 C470 0.930 . S
H463 C473 0.930 . S
H464 C475 0.930 . S
H465 C476 0.970 . S
H466 C476 0.970 . S
H467 C478 0.930 . S
H468 C480 0.930 . S
H469 C482 0.930 . S
C470 H462 0.930 . S
C470 C471 1.382 . S
C470 C472 1.426 . S
C471 C470 1.382 . S
C471 C475 1.389 . S
C472 C470 1.426 . S
C472 C473 1.375 . S
C472 C476 1.532 . S
C473 H463 0.930 . S
C473 C472 1.375 . S
C473 C474 1.416 . S
C474 C473 1.416 . S
C474 C475 1.371 . S
C475 H464 0.930 . S
C475 C471 1.389 . S
C475 C474 1.371 . S
C476 H465 0.970 . S
C476 H466 0.970 . S
C476 C472 1.532 . S
C476 C477 1.499 . S
C477 C476 1.499 . S
C477 C478 1.370 . S
C477 C482 1.415 . S
C478 H467 0.930 . S
C478 C477 1.370 . S
C478 C479 1.407 . S
C479 C478 1.407 . S
C479 C480 1.365 . S
C480 H468 0.930 . S
C480 C479 1.365 . S
C480 C481 1.393 . S
C481 C480 1.393 . S
C481 C482 1.387 . S
C482 H469 0.930 . S
C482 C477 1.415 . S
C482 C481 1.387 . S
H483 C491 0.930 . S
H484 C494 0.930 . S
H485 C496 0.930 . S
H486 C497 0.970 . S
H487 C497 0.970 . S
H488 C499 0.930 . S
H489 C501 0.930 . S
H490 C503 0.930 . S
C491 H483 0.930 . S
C491 C492 1.382 . S
C491 C493 1.426 . S
C492 C491 1.382 . S
C492 C496 1.389 1_565 S
C493 C491 1.426 . S
C493 C494 1.375 . S
C493 C497 1.532 . S
C494 H484 0.930 . S
C494 C493 1.375 . S
C494 C495 1.416 . S
C495 C494 1.416 . S
C495 C496 1.371 1_565 S
C496 H485 0.930 . S
C496 C492 1.389 1_545 S
C496 C495 1.371 1_545 S
C497 H486 0.970 . S
C497 H487 0.970 . S
C497 C493 1.532 . S
C497 C498 1.499 . S
C498 C497 1.499 . S
C498 C499 1.370 . S
C498 C503 1.415 . S
C499 H488 0.930 . S
C499 C498 1.370 . S
C499 C500 1.439 . S
C500 C499 1.439 . S
C500 C501 1.353 1_565 S
C501 H489 0.930 . S
C501 C500 1.353 1_545 S
C501 C502 1.393 1_545 S
C502 C501 1.393 1_565 S
C502 C503 1.387 . S
C503 H490 0.930 . S
C503 C498 1.415 . S
C503 C502 1.387 . S
H504 C512 0.930 . S
H505 C515 0.930 . S
H506 C517 0.930 . S
H507 C518 0.970 . S
H508 C518 0.970 . S
H509 C520 0.930 . S
H510 C522 0.930 . S
H511 C524 0.930 . S
C512 H504 0.930 . S
C512 C513 1.382 . S
C512 C514 1.426 . S
C513 C512 1.382 . S
C513 C517 1.389 1_565 S
C514 C512 1.426 . S
C514 C515 1.375 . S
C514 C518 1.532 . S
C515 H505 0.930 . S
C515 C514 1.375 . S
C515 C516 1.416 . S
C516 C515 1.416 . S
C516 C517 1.371 1_565 S
C517 H506 0.930 . S
C517 C513 1.389 1_545 S
C517 C516 1.371 1_545 S
C518 H507 0.970 . S
C518 H508 0.970 . S
C518 C514 1.532 . S
C518 C519 1.499 . S
C519 C518 1.499 . S
C519 C520 1.370 . S
C519 C524 1.415 . S
C520 H509 0.930 . S
C520 C519 1.370 . S
C520 C521 1.407 . S
C521 C520 1.407 . S
C521 C522 1.365 1_565 S
C522 H510 0.930 . S
C522 C521 1.365 1_545 S
C522 C523 1.393 1_545 S
C523 C522 1.393 1_565 S
C523 C524 1.387 . S
C524 H511 0.930 . S
C524 C519 1.415 . S
C524 C523 1.387 . S
H525 C533 0.930 . S
H526 C536 0.930 . S
H527 C538 0.930 . S
H528 C539 0.970 . S
H529 C539 0.970 . S
H530 C541 0.930 . S
H531 C543 0.930 . S
H532 C545 0.930 . S
C533 H525 0.930 . S
C533 C534 1.382 . S
C533 C535 1.426 . S
C534 C533 1.382 . S
C534 C538 1.389 1_455 S
C535 C533 1.426 . S
C535 C536 1.375 . S
C535 C539 1.532 . S
C536 H526 0.930 . S
C536 C535 1.375 . S
C536 C537 1.416 . S
C537 C536 1.416 . S
C537 C538 1.371 1_455 S
C538 H527 0.930 . S
C538 C534 1.389 1_655 S
C538 C537 1.371 1_655 S
C539 H528 0.970 . S
C539 H529 0.970 . S
C539 C535 1.532 . S
C539 C540 1.499 . S
C540 C539 1.499 . S
C540 C541 1.370 . S
C540 C545 1.415 . S
C541 H530 0.930 . S
C541 C540 1.370 . S
C541 C542 1.407 . S
C542 C541 1.407 . S
C542 C543 1.365 1_455 S
C543 H531 0.930 . S
C543 C542 1.365 1_655 S
C543 C544 1.393 1_655 S
C544 C543 1.393 1_455 S
C544 C545 1.387 . S
C545 H532 0.930 . S
C545 C540 1.415 . S
C545 C544 1.387 . S
H546 C554 0.930 . S
H547 C557 0.930 . S
H548 C559 0.930 . S
H549 C560 0.970 . S
H550 C560 0.970 . S
H551 C562 0.930 . S
H552 C564 0.930 . S
H553 C566 0.930 . S
C554 H546 0.930 . S
C554 C555 1.382 . S
C554 C556 1.426 . S
C555 C554 1.382 . S
C555 C559 1.389 . S
C556 C554 1.426 . S
C556 C557 1.375 . S
C556 C560 1.532 . S
C557 H547 0.930 . S
C557 C556 1.375 . S
C557 C558 1.416 . S
C558 C557 1.416 . S
C558 C559 1.371 . S
C559 H548 0.930 . S
C559 C555 1.389 . S
C559 C558 1.371 . S
C560 H549 0.970 . S
C560 H550 0.970 . S
C560 C556 1.532 . S
C560 C561 1.499 . S
C561 C560 1.499 . S
C561 C562 1.370 . S
C561 C566 1.415 . S
C562 H551 0.930 . S
C562 C561 1.370 . S
C562 C563 1.407 . S
C563 C562 1.407 . S
C563 C564 1.365 . S
C564 H552 0.930 . S
C564 C563 1.365 . S
C564 C565 1.393 . S
C565 C564 1.393 . S
C565 C566 1.387 . S
C566 H553 0.930 . S
C566 C561 1.415 . S
C566 C565 1.387 . S
H567 C575 0.930 . S
H568 C578 0.930 . S
H569 C580 0.930 . S
H570 C581 0.970 . S
H571 C581 0.970 . S
H572 C583 0.930 . S
H573 C585 0.930 . S
H574 C587 0.930 . S
C575 H567 0.930 . S
C575 C576 1.382 . S
C575 C577 1.426 . S
C576 C575 1.382 . S
C576 C580 1.389 . S
C577 C575 1.426 . S
C577 C578 1.375 . S
C577 C581 1.532 . S
C578 H568 0.930 . S
C578 C577 1.375 . S
C578 C579 1.416 . S
C579 C578 1.416 . S
C579 C580 1.371 . S
C580 H569 0.930 . S
C580 C576 1.389 . S
C580 C579 1.371 . S
C581 H570 0.970 . S
C581 H571 0.970 . S
C581 C577 1.532 . S
C581 C582 1.499 . S
C582 C581 1.499 . S
C582 C583 1.370 . S
C582 C587 1.415 . S
C583 H572 0.930 . S
C583 C582 1.370 . S
C583 C584 1.407 . S
C584 C583 1.407 . S
C584 C585 1.365 . S
C585 H573 0.930 . S
C585 C584 1.365 . S
C585 C586 1.393 . S
C586 C585 1.393 . S
C586 C587 1.387 . S
C587 H574 0.930 . S
C587 C582 1.415 . S
C587 C586 1.387 . S
H588 C596 0.930 . S
H589 C599 0.930 . S
H590 C601 0.930 . S
H591 C602 0.970 . S
H592 C602 0.970 . S
H593 C604 0.930 . S
H594 C606 0.930 . S
H595 C608 0.930 . S
C596 H588 0.930 . S
C596 C597 1.382 . S
C596 C598 1.426 . S
C597 C596 1.382 . S
C597 C601 1.389 . S
C598 C596 1.426 . S
C598 C599 1.375 . S
C598 C602 1.532 . S
C599 H589 0.930 . S
C599 C598 1.375 . S
C599 C600 1.416 . S
C600 C599 1.416 . S
C600 C601 1.371 . S
C601 H590 0.930 . S
C601 C597 1.389 . S
C601 C600 1.371 . S
C602 H591 0.970 . S
C602 H592 0.970 . S
C602 C598 1.532 . S
C602 C603 1.499 . S
C603 C602 1.499 . S
C603 C604 1.370 . S
C603 C608 1.415 . S
C604 H593 0.930 . S
C604 C603 1.370 . S
C604 C605 1.407 . S
C605 C604 1.407 . S
C605 C606 1.365 . S
C606 H594 0.930 . S
C606 C605 1.365 . S
C606 C607 1.393 . S
C607 C606 1.393 . S
C607 C608 1.387 . S
C608 H595 0.930 . S
C608 C603 1.415 . S
C608 C607 1.387 . S
H609 C617 0.930 . S
H610 C620 0.930 . S
H611 C622 0.930 . S
H612 C623 0.970 . S
H613 C623 0.970 . S
H614 C625 0.930 . S
H615 C627 0.930 . S
H616 C629 0.930 . S
C617 H609 0.930 . S
C617 C618 1.382 . S
C617 C619 1.426 . S
C618 C617 1.382 . S
C618 C622 1.389 . S
C619 C617 1.426 . S
C619 C620 1.375 . S
C619 C623 1.532 . S
C620 H610 0.930 . S
C620 C619 1.375 . S
C620 C621 1.416 . S
C621 C620 1.416 . S
C621 C622 1.371 . S
C622 H611 0.930 . S
C622 C618 1.389 . S
C622 C621 1.371 . S
C623 H612 0.970 . S
C623 H613 0.970 . S
C623 C619 1.532 . S
C623 C624 1.499 . S
C624 C623 1.499 . S
C624 C625 1.370 . S
C624 C629 1.415 . S
C625 H614 0.930 . S
C625 C624 1.370 . S
C625 C626 1.407 . S
C626 C625 1.407 . S
C626 C627 1.365 . S
C627 H615 0.930 . S
C627 C626 1.365 . S
C627 C628 1.393 . S
C628 C627 1.393 . S
C628 C629 1.387 . S
C629 H616 0.930 . S
C629 C624 1.415 . S
C629 C628 1.387 . S
C630 C631 1.363 1_455 S
C630 C636 1.379 . S
C630 N638 1.356 . S
C631 C630 1.363 1_655 S
C631 C637 1.363 . S
C632 C633 1.363 . S
C632 C637 1.379 . S
C632 N639 1.356 . S
C633 C632 1.363 . S
C633 C636 1.363 1_655 S
N634 C636 1.356 . S
N634 H646 0.984 . S
N634 H647 0.985 . S
N635 C637 1.356 . S
N635 H640 0.984 . S
N635 H641 0.985 . S
C636 C630 1.379 . S
C636 C633 1.363 1_455 S
C636 N634 1.356 . S
C637 C631 1.363 . S
C637 C632 1.379 . S
C637 N635 1.356 . S
N638 C630 1.356 . S
N638 H644 0.984 . S
N638 H645 0.984 . S
N639 C632 1.356 . S
N639 H642 0.984 . S
N639 H643 0.985 . S
H640 N635 0.984 . S
H641 N635 0.985 . S
H642 N639 0.984 . S
H643 N639 0.985 . S
H644 N638 0.984 . S
H645 N638 0.984 . S
H646 N634 0.984 . S
H647 N634 0.985 . S
C648 C649 1.363 . S
C648 C654 1.379 . S
C648 N656 1.356 . S
C649 C648 1.363 . S
C649 C655 1.363 . S
C650 C651 1.363 . S
C650 C655 1.379 . S
C650 N657 1.356 . S
C651 C650 1.363 . S
C651 C654 1.363 . S
N652 C654 1.356 . S
N652 H664 0.984 . S
N652 H665 0.985 . S
N653 C655 1.356 . S
N653 H658 0.984 . S
N653 H659 0.985 . S
C654 C648 1.379 . S
C654 C651 1.363 . S
C654 N652 1.356 . S
C655 C649 1.363 . S
C655 C650 1.379 . S
C655 N653 1.356 . S
N656 C648 1.356 . S
N656 H662 0.984 . S
N656 H663 0.984 . S
N657 C650 1.356 . S
N657 H660 0.984 . S
N657 H661 0.985 . S
H658 N653 0.984 . S
H659 N653 0.985 . S
H660 N657 0.984 . S
H661 N657 0.985 . S
H662 N656 0.984 . S
H663 N656 0.984 . S
H664 N652 0.984 . S
H665 N652 0.985 . S
C666 C667 1.363 . S
C666 C672 1.379 . S
C666 N674 1.356 . S
C667 C666 1.363 . S
C667 C673 1.363 1_545 S
C668 C669 1.363 1_565 S
C668 C673 1.379 . S
C668 N675 1.356 . S
C669 C668 1.363 1_545 S
C669 C672 1.363 . S
N670 C672 1.356 . S
N670 H682 0.984 . S
N670 H683 0.985 . S
N671 C673 1.356 . S
N671 H676 0.984 . S
N671 H677 0.985 . S
C672 C666 1.379 . S
C672 C669 1.363 . S
C672 N670 1.356 . S
C673 C667 1.363 1_565 S
C673 C668 1.379 . S
C673 N671 1.356 . S
N674 C666 1.356 . S
N674 H680 0.984 . S
N674 H681 0.984 . S
N675 C668 1.356 . S
N675 H678 0.984 . S
N675 H679 0.985 . S
H676 N671 0.984 . S
H677 N671 0.985 . S
H678 N675 0.984 . S
H679 N675 0.985 . S
H680 N674 0.984 . S
H681 N674 0.984 . S
H682 N670 0.984 . S
H683 N670 0.985 . S
C684 C685 1.363 1_545 S
C684 C690 1.379 . S
C684 N692 1.356 . S
C685 C684 1.363 1_565 S
C685 C691 1.363 . S
C686 C687 1.363 . S
C686 C691 1.379 . S
C686 N693 1.356 . S
C687 C686 1.363 . S
C687 C690 1.363 1_565 S
N688 C690 1.356 . S
N688 H700 0.984 . S
N688 H701 0.985 . S
N689 C691 1.356 . S
N689 H694 0.984 . S
N689 H695 0.985 . S
C690 C684 1.379 . S
C690 C687 1.363 1_545 S
C690 N688 1.356 . S
C691 C685 1.363 . S
C691 C686 1.379 . S
C691 N689 1.356 . S
N692 C684 1.356 . S
N692 H698 0.984 . S
N692 H699 0.984 . S
N693 C686 1.356 . S
N693 H696 0.984 . S
N693 H697 0.985 . S
H694 N689 0.984 . S
H695 N689 0.985 . S
H696 N693 0.984 . S
H697 N693 0.985 . S
H698 N692 0.984 . S
H699 N692 0.984 . S
H700 N688 0.984 . S
H701 N688 0.985 . S
C702 C703 1.377 . S
C702 C708 1.370 . S
C702 N710 1.356 1_455 S
C703 C702 1.377 . S
C703 C709 1.363 . S
C704 C705 1.363 . S
C704 C709 1.379 . S
C704 N711 1.356 . S
C705 C704 1.363 . S
C705 C708 1.363 . S
N706 C708 1.358 . S
N706 H718 0.983 1_455 S
N706 H719 0.984 . S
N707 C709 1.356 . S
N707 H712 0.984 . S
N707 H713 0.985 . S
C708 C702 1.370 . S
C708 C705 1.363 . S
C708 N706 1.358 . S
C709 C703 1.363 . S
C709 C704 1.379 . S
C709 N707 1.356 . S
N710 C702 1.356 1_655 S
N710 H716 0.984 . S
N710 H717 0.984 . S
N711 C704 1.356 . S
N711 H714 0.984 . S
N711 H715 0.985 . S
H712 N707 0.984 . S
H713 N707 0.985 . S
H714 N711 0.984 . S
H715 N711 0.985 . S
H716 N710 0.984 . S
H717 N710 0.984 . S
H718 N706 0.983 1_655 S
H719 N706 0.984 . S
C720 C721 1.363 . S
C720 C726 1.379 . S
C720 N728 1.356 . S
C721 C720 1.363 . S
C721 C727 1.363 . S
C722 C723 1.363 . S
C722 C727 1.379 . S
C722 N729 1.356 . S
C723 C722 1.363 . S
C723 C726 1.363 . S
N724 C726 1.356 . S
N724 H736 0.984 . S
N724 H737 0.985 . S
N725 C727 1.356 . S
N725 H730 0.984 . S
N725 H731 0.985 . S
C726 C720 1.379 . S
C726 C723 1.363 . S
C726 N724 1.356 . S
C727 C721 1.363 . S
C727 C722 1.379 . S
C727 N725 1.356 . S
N728 C720 1.356 . S
N728 H734 0.984 . S
N728 H735 0.984 . S
N729 C722 1.356 . S
N729 H732 0.984 . S
N729 H733 0.985 . S
H730 N725 0.984 . S
H731 N725 0.985 . S
H732 N729 0.984 . S
H733 N729 0.985 . S
H734 N728 0.984 . S
H735 N728 0.984 . S
H736 N724 0.984 . S
H737 N724 0.985 . S
C738 C739 1.363 . S
C738 C744 1.379 . S
C738 N746 1.356 . S
C739 C738 1.363 . S
C739 C745 1.363 1_455 S
C740 C741 1.352 1_655 S
C740 C745 1.379 . S
C740 N747 1.356 . S
C741 C740 1.352 1_455 S
C741 C744 1.356 . S
N742 C744 1.356 . S
N742 H754 0.984 . S
N742 H755 0.985 . S
N743 C745 1.356 . S
N743 H748 0.984 . S
N743 H749 0.985 . S
C744 C738 1.379 . S
C744 C741 1.356 . S
C744 N742 1.356 . S
C745 C739 1.363 1_655 S
C745 C740 1.379 . S
C745 N743 1.356 . S
N746 C738 1.356 . S
N746 H752 0.984 . S
N746 H753 0.984 . S
N747 C740 1.356 . S
N747 H750 0.984 . S
N747 H751 0.985 . S
H748 N743 0.984 . S
H749 N743 0.985 . S
H750 N747 0.984 . S
H751 N747 0.985 . S
H752 N746 0.984 . S
H753 N746 0.984 . S
H754 N742 0.984 . S
H755 N742 0.985 . S
C756 C757 1.363 . S
C756 C762 1.379 . S
C756 N764 1.356 . S
C757 C756 1.363 . S
C757 C763 1.363 . S
C758 C759 1.363 . S
C758 C763 1.379 . S
C758 N765 1.356 . S
C759 C758 1.363 . S
C759 C762 1.363 . S
N760 C762 1.356 . S
N760 H772 0.984 . S
N760 H773 0.985 . S
N761 C763 1.356 . S
N761 H766 0.984 . S
N761 H767 0.985 . S
C762 C756 1.379 . S
C762 C759 1.363 . S
C762 N760 1.356 . S
C763 C757 1.363 . S
C763 C758 1.379 . S
C763 N761 1.356 . S
N764 C756 1.356 . S
N764 H770 0.984 . S
N764 H771 0.984 . S
N765 C758 1.356 . S
N765 H768 0.984 . S
N765 H769 0.985 . S
H766 N761 0.984 . S
H767 N761 0.985 . S
H768 N765 0.984 . S
H769 N765 0.985 . S
H770 N764 0.984 . S
H771 N764 0.984 . S
H772 N760 0.984 . S
H773 N760 0.985 . S
C774 C775 1.363 . S
C774 C780 1.379 . S
C774 N782 1.356 . S
C775 C774 1.363 . S
C775 C781 1.363 1_565 S
C776 C777 1.339 1_545 S
C776 C781 1.379 . S
C776 N783 1.356 . S
C777 C776 1.339 1_565 S
C777 C780 1.411 . S
N778 C780 1.356 . S
N778 H790 0.984 . S
N778 H791 0.985 . S
N779 C781 1.356 . S
N779 H784 0.984 . S
N779 H785 0.985 . S
C780 C774 1.379 . S
C780 C777 1.411 . S
C780 N778 1.356 . S
C781 C775 1.363 1_545 S
C781 C776 1.379 . S
C781 N779 1.356 . S
N782 C774 1.356 . S
N782 H788 0.984 . S
N782 H789 0.984 . S
N783 C776 1.356 . S
N783 H786 0.984 . S
N783 H787 0.985 . S
H784 N779 0.984 . S
H785 N779 0.985 . S
H786 N783 0.984 . S
H787 N783 0.985 . S
H788 N782 0.984 . S
H789 N782 0.984 . S
H790 N778 0.984 . S
H791 N778 0.985 . S
C792 C793 1.363 . S
C792 C798 1.379 . S
C792 N800 1.356 . S
C793 C792 1.363 . S
C793 C799 1.363 1_545 S
C794 C795 1.363 1_565 S
C794 C799 1.379 . S
C794 N801 1.356 . S
C795 C794 1.363 1_545 S
C795 C798 1.363 . S
N796 C798 1.356 . S
N796 H808 0.984 . S
N796 H809 0.985 . S
N797 C799 1.356 . S
N797 H802 0.984 . S
N797 H803 0.985 . S
C798 C792 1.379 . S
C798 C795 1.363 . S
C798 N796 1.356 . S
C799 C793 1.363 1_565 S
C799 C794 1.379 . S
C799 N797 1.356 . S
N800 C792 1.356 . S
N800 H806 0.984 . S
N800 H807 0.984 . S
N801 C794 1.356 . S
N801 H804 0.984 . S
N801 H805 0.985 . S
H802 N797 0.984 . S
H803 N797 0.985 . S
H804 N801 0.984 . S
H805 N801 0.985 . S
H806 N800 0.984 . S
H807 N800 0.984 . S
H808 N796 0.984 . S
H809 N796 0.985 . S
C810 C811 1.363 . S
C810 C816 1.379 . S
C810 N818 1.356 . S
C811 C810 1.363 . S
C811 C817 1.363 1_655 S
C812 C813 1.363 1_455 S
C812 C817 1.379 . S
C812 N819 1.356 . S
C813 C812 1.363 1_655 S
C813 C816 1.363 . S
N814 C816 1.356 . S
N814 H826 0.984 . S
N814 H827 0.985 . S
N815 C817 1.356 . S
N815 H820 0.984 . S
N815 H821 0.985 . S
C816 C810 1.379 . S
C816 C813 1.363 . S
C816 N814 1.356 . S
C817 C811 1.363 1_455 S
C817 C812 1.379 . S
C817 N815 1.356 . S
N818 C810 1.356 . S
N818 H824 0.984 . S
N818 H825 0.984 . S
N819 C812 1.356 . S
N819 H822 0.984 . S
N819 H823 0.985 . S
H820 N815 0.984 . S
H821 N815 0.985 . S
H822 N819 0.984 . S
H823 N819 0.985 . S
H824 N818 0.984 . S
H825 N818 0.984 . S
H826 N814 0.984 . S
H827 N814 0.985 . S
C828 C829 1.363 . S
C828 C834 1.379 . S
C828 N836 1.356 . S
C829 C828 1.363 . S
C829 C835 1.363 . S
C830 C831 1.363 . S
C830 C835 1.379 . S
C830 N837 1.356 . S
C831 C830 1.363 . S
C831 C834 1.363 . S
N832 C834 1.356 . S
N832 H844 0.984 . S
N832 H845 0.985 . S
N833 C835 1.356 . S
N833 H838 0.984 . S
N833 H839 0.985 . S
C834 C828 1.379 . S
C834 C831 1.363 . S
C834 N832 1.356 . S
C835 C829 1.363 . S
C835 C830 1.379 . S
C835 N833 1.356 . S
N836 C828 1.356 . S
N836 H842 0.984 . S
N836 H843 0.984 . S
N837 C830 1.356 . S
N837 H840 0.984 . S
N837 H841 0.985 . S
H838 N833 0.984 . S
H839 N833 0.985 . S
H840 N837 0.984 . S
H841 N837 0.985 . S
H842 N836 0.984 . S
H843 N836 0.984 . S
H844 N832 0.984 . S
H845 N832 0.985 . S
C846 C847 1.363 . S
C846 C852 1.379 . S
C846 N854 1.356 . S
C847 C846 1.363 . S
C847 C853 1.363 . S
C848 C849 1.363 . S
C848 C853 1.379 . S
C848 N855 1.356 . S
C849 C848 1.363 . S
C849 C852 1.363 . S
N850 C852 1.356 . S
N850 H862 0.984 . S
N850 H863 0.985 . S
N851 C853 1.356 . S
N851 H856 0.984 . S
N851 H857 0.985 . S
C852 C846 1.379 . S
C852 C849 1.363 . S
C852 N850 1.356 . S
C853 C847 1.363 . S
C853 C848 1.379 . S
C853 N851 1.356 . S
N854 C846 1.356 . S
N854 H860 0.984 . S
N854 H861 0.984 . S
N855 C848 1.356 . S
N855 H858 0.984 . S
N855 H859 0.985 . S
H856 N851 0.984 . S
H857 N851 0.985 . S
H858 N855 0.984 . S
H859 N855 0.985 . S
H860 N854 0.984 . S
H861 N854 0.984 . S
H862 N850 0.984 . S
H863 N850 0.985 . S
C864 C865 1.363 . S
C864 C870 1.379 . S
C864 N872 1.356 . S
C865 C864 1.363 . S
C865 C871 1.363 . S
C866 C867 1.363 . S
C866 C871 1.379 . S
C866 N873 1.356 . S
C867 C866 1.363 . S
C867 C870 1.363 . S
N868 C870 1.356 . S
N868 H880 0.984 . S
N868 H881 0.985 . S
N869 C871 1.356 . S
N869 H874 0.984 . S
N869 H875 0.985 . S
C870 C864 1.379 . S
C870 C867 1.363 . S
C870 N868 1.356 . S
C871 C865 1.363 . S
C871 C866 1.379 . S
C871 N869 1.356 . S
N872 C864 1.356 . S
N872 H878 0.984 . S
N872 H879 0.984 . S
N873 C866 1.356 . S
N873 H876 0.984 . S
N873 H877 0.985 . S
H874 N869 0.984 . S
H875 N869 0.985 . S
H876 N873 0.984 . S
H877 N873 0.985 . S
H878 N872 0.984 . S
H879 N872 0.984 . S
H880 N868 0.984 . S
H881 N868 0.985 . S
C882 C883 1.363 . S
C882 C888 1.379 . S
C882 N890 1.356 . S
C883 C882 1.363 . S
C883 C889 1.363 . S
C884 C885 1.363 . S
C884 C889 1.379 . S
C884 N891 1.356 . S
C885 C884 1.363 . S
C885 C888 1.363 . S
N886 C888 1.356 . S
N886 H898 0.984 . S
N886 H899 0.985 . S
N887 C889 1.356 . S
N887 H892 0.984 . S
N887 H893 0.985 . S
C888 C882 1.379 . S
C888 C885 1.363 . S
C888 N886 1.356 . S
C889 C883 1.363 . S
C889 C884 1.379 . S
C889 N887 1.356 . S
N890 C882 1.356 . S
N890 H896 0.984 . S
N890 H897 0.984 . S
N891 C884 1.356 . S
N891 H894 0.984 . S
N891 H895 0.985 . S
H892 N887 0.984 . S
H893 N887 0.985 . S
H894 N891 0.984 . S
H895 N891 0.985 . S
H896 N890 0.984 . S
H897 N890 0.984 . S
H898 N886 0.984 . S
H899 N886 0.985 . S
C900 C901 1.363 . S
C900 C906 1.379 . S
C900 N908 1.356 . S
C901 C900 1.363 . S
C901 C907 1.363 . S
C902 C903 1.363 . S
C902 C907 1.379 . S
C902 N909 1.356 . S
C903 C902 1.363 . S
C903 C906 1.363 . S
N904 C906 1.356 . S
N904 H916 0.984 . S
N904 H917 0.985 . S
N905 C907 1.356 . S
N905 H910 0.984 . S
N905 H911 0.985 . S
C906 C900 1.379 . S
C906 C903 1.363 . S
C906 N904 1.356 . S
C907 C901 1.363 . S
C907 C902 1.379 . S
C907 N905 1.356 . S
N908 C900 1.356 . S
N908 H914 0.984 . S
N908 H915 0.984 . S
N909 C902 1.356 . S
N909 H912 0.984 . S
N909 H913 0.985 . S
H910 N905 0.984 . S
H911 N905 0.985 . S
H912 N909 0.984 . S
H913 N909 0.985 . S
H914 N908 0.984 . S
H915 N908 0.984 . S
H916 N904 0.984 . S
H917 N904 0.985 . S
C918 C919 1.363 . S
C918 C924 1.379 . S
C918 N926 1.356 . S
C919 C918 1.363 . S
C919 C925 1.363 . S
C920 C921 1.363 . S
C920 C925 1.379 . S
C920 N927 1.356 . S
C921 C920 1.363 . S
C921 C924 1.363 . S
N922 C924 1.356 . S
N922 H934 0.984 . S
N922 H935 0.985 . S
N923 C925 1.356 . S
N923 H928 0.984 . S
N923 H929 0.985 . S
C924 C918 1.379 . S
C924 C921 1.363 . S
C924 N922 1.356 . S
C925 C919 1.363 . S
C925 C920 1.379 . S
C925 N923 1.356 . S
N926 C918 1.356 . S
N926 H932 0.984 . S
N926 H933 0.984 . S
N927 C920 1.356 . S
N927 H930 0.984 . S
N927 H931 0.985 . S
H928 N923 0.984 . S
H929 N923 0.985 . S
H930 N927 0.984 . S
H931 N927 0.985 . S
H932 N926 0.984 . S
H933 N926 0.984 . S
H934 N922 0.984 . S
H935 N922 0.985 . S
C936 C937 1.363 . S
C936 C942 1.379 . S
C936 N944 1.356 . S
C937 C936 1.363 . S
C937 C943 1.363 . S
C938 C939 1.363 . S
C938 C943 1.379 . S
C938 N945 1.356 . S
C939 C938 1.363 . S
C939 C942 1.363 . S
N940 C942 1.356 . S
N940 H952 0.984 . S
N940 H953 0.985 . S
N941 C943 1.356 . S
N941 H946 0.984 . S
N941 H947 0.985 . S
C942 C936 1.379 . S
C942 C939 1.363 . S
C942 N940 1.356 . S
C943 C937 1.363 . S
C943 C938 1.379 . S
C943 N941 1.356 . S
N944 C936 1.356 . S
N944 H950 0.984 . S
N944 H951 0.984 . S
N945 C938 1.356 . S
N945 H948 0.984 . S
N945 H949 0.985 . S
H946 N941 0.984 . S
H947 N941 0.985 . S
H948 N945 0.984 . S
H949 N945 0.985 . S
H950 N944 0.984 . S
H951 N944 0.984 . S
H952 N940 0.984 . S
H953 N940 0.985 . S
C954 C955 1.363 . S
C954 C960 1.379 . S
C954 N962 1.356 . S
C955 C954 1.363 . S
C955 C961 1.363 . S
C956 C957 1.363 . S
C956 C961 1.379 . S
C956 N963 1.356 . S
C957 C956 1.363 . S
C957 C960 1.363 . S
N958 C960 1.356 . S
N958 H970 0.984 . S
N958 H971 0.985 . S
N959 C961 1.356 . S
N959 H964 0.984 . S
N959 H965 0.985 . S
C960 C954 1.379 . S
C960 C957 1.363 . S
C960 N958 1.356 . S
C961 C955 1.363 . S
C961 C956 1.379 . S
C961 N959 1.356 . S
N962 C954 1.356 . S
N962 H968 0.984 . S
N962 H969 0.984 . S
N963 C956 1.356 . S
N963 H966 0.984 . S
N963 H967 0.985 . S
H964 N959 0.984 . S
H965 N959 0.985 . S
H966 N963 0.984 . S
H967 N963 0.985 . S
H968 N962 0.984 . S
H969 N962 0.984 . S
H970 N958 0.984 . S
H971 N958 0.985 . S
C972 C973 1.363 . S
C972 C978 1.379 . S
C972 N980 1.356 . S
C973 C972 1.363 . S
C973 C979 1.363 . S
C974 C975 1.363 . S
C974 C979 1.379 . S
C974 N981 1.356 . S
C975 C974 1.363 . S
C975 C978 1.363 . S
N976 C978 1.356 . S
N976 H988 0.984 . S
N976 H989 0.985 . S
N977 C979 1.356 . S
N977 H982 0.984 . S
N977 H983 0.985 . S
C978 C972 1.379 . S
C978 C975 1.363 . S
C978 N976 1.356 . S
C979 C973 1.363 . S
C979 C974 1.379 . S
C979 N977 1.356 . S
N980 C972 1.356 . S
N980 H986 0.984 . S
N980 H987 0.984 . S
N981 C974 1.356 . S
N981 H984 0.984 . S
N981 H985 0.985 . S
H982 N977 0.984 . S
H983 N977 0.985 . S
H984 N981 0.984 . S
H985 N981 0.985 . S
H986 N980 0.984 . S
H987 N980 0.984 . S
H988 N976 0.984 . S
H989 N976 0.985 . S
C990 C991 1.363 . S
C990 C996 1.379 . S
C990 N998 1.356 . S
C991 C990 1.363 . S
C991 C997 1.363 . S
C992 C993 1.363 . S
C992 C997 1.379 . S
C992 N999 1.356 . S
C993 C992 1.363 . S
C993 C996 1.363 . S
N994 C996 1.356 . S
N994 H1006 0.984 . S
N994 H1007 0.985 . S
N995 C997 1.356 . S
N995 H1000 0.984 . S
N995 H1001 0.985 . S
C996 C990 1.379 . S
C996 C993 1.363 . S
C996 N994 1.356 . S
C997 C991 1.363 . S
C997 C992 1.379 . S
C997 N995 1.356 . S
N998 C990 1.356 . S
N998 H1004 0.984 . S
N998 H1005 0.984 . S
N999 C992 1.356 . S
N999 H1002 0.984 . S
N999 H1003 0.985 . S
H1000 N995 0.984 . S
H1001 N995 0.985 . S
H1002 N999 0.984 . S
H1003 N999 0.985 . S
H1004 N998 0.984 . S
H1005 N998 0.984 . S
H1006 N994 0.984 . S
H1007 N994 0.985 . S
C1008 C1009 1.363 . S
C1008 C1014 1.379 . S
C1008 N1016 1.356 . S
C1009 C1008 1.363 . S
C1009 C1015 1.363 . S
C1010 C1011 1.363 . S
C1010 C1015 1.379 . S
C1010 N1017 1.356 . S
C1011 C1010 1.363 . S
C1011 C1014 1.363 . S
N1012 C1014 1.356 . S
N1012 H1024 0.984 . S
N1012 H1025 0.985 . S
N1013 C1015 1.356 . S
N1013 H1018 0.984 . S
N1013 H1019 0.985 . S
C1014 C1008 1.379 . S
C1014 C1011 1.363 . S
C1014 N1012 1.356 . S
C1015 C1009 1.363 . S
C1015 C1010 1.379 . S
C1015 N1013 1.356 . S
N1016 C1008 1.356 . S
N1016 H1022 0.984 . S
N1016 H1023 0.984 . S
N1017 C1010 1.356 . S
N1017 H1020 0.984 . S
N1017 H1021 0.985 . S
H1018 N1013 0.984 . S
H1019 N1013 0.985 . S
H1020 N1017 0.984 . S
H1021 N1017 0.985 . S
H1022 N1016 0.984 . S
H1023 N1016 0.984 . S
H1024 N1012 0.984 . S
H1025 N1012 0.985 . S
C1026 C1027 1.363 . S
C1026 C1032 1.379 . S
C1026 N1034 1.356 . S
C1027 C1026 1.363 . S
C1027 C1033 1.363 . S
C1028 C1029 1.363 . S
C1028 C1033 1.379 . S
C1028 N1035 1.356 . S
C1029 C1028 1.363 . S
C1029 C1032 1.363 . S
N1030 C1032 1.356 . S
N1030 H1042 0.984 . S
N1030 H1043 0.985 . S
N1031 C1033 1.356 . S
N1031 H1036 0.984 . S
N1031 H1037 0.985 . S
C1032 C1026 1.379 . S
C1032 C1029 1.363 . S
C1032 N1030 1.356 . S
C1033 C1027 1.363 . S
C1033 C1028 1.379 . S
C1033 N1031 1.356 . S
N1034 C1026 1.356 . S
N1034 H1040 0.984 . S
N1034 H1041 0.984 . S
N1035 C1028 1.356 . S
N1035 H1038 0.984 . S
N1035 H1039 0.985 . S
H1036 N1031 0.984 . S
H1037 N1031 0.985 . S
H1038 N1035 0.984 . S
H1039 N1035 0.985 . S
H1040 N1034 0.984 . S
H1041 N1034 0.984 . S
H1042 N1030 0.984 . S
H1043 N1030 0.985 . S
C1044 C1045 1.363 . S
C1044 C1050 1.379 . S
C1044 N1052 1.356 . S
C1045 C1044 1.363 . S
C1045 C1051 1.363 . S
C1046 C1047 1.363 . S
C1046 C1051 1.379 . S
C1046 N1053 1.356 . S
C1047 C1046 1.363 . S
C1047 C1050 1.363 . S
N1048 C1050 1.356 . S
N1048 H1060 0.984 . S
N1048 H1061 0.985 . S
N1049 C1051 1.356 . S
N1049 H1054 0.984 . S
N1049 H1055 0.985 . S
C1050 C1044 1.379 . S
C1050 C1047 1.363 . S
C1050 N1048 1.356 . S
C1051 C1045 1.363 . S
C1051 C1046 1.379 . S
C1051 N1049 1.356 . S
N1052 C1044 1.356 . S
N1052 H1058 0.984 . S
N1052 H1059 0.984 . S
N1053 C1046 1.356 . S
N1053 H1056 0.984 . S
N1053 H1057 0.985 . S
H1054 N1049 0.984 . S
H1055 N1049 0.985 . S
H1056 N1053 0.984 . S
H1057 N1053 0.985 . S
H1058 N1052 0.984 . S
H1059 N1052 0.984 . S
H1060 N1048 0.984 . S
H1061 N1048 0.985 . S
C1062 C1063 1.363 . S
C1062 C1068 1.379 . S
C1062 N1070 1.356 . S
C1063 C1062 1.363 . S
C1063 C1069 1.363 . S
C1064 C1065 1.363 . S
C1064 C1069 1.379 . S
C1064 N1071 1.356 . S
C1065 C1064 1.363 . S
C1065 C1068 1.363 . S
N1066 C1068 1.356 . S
N1066 H1078 0.984 . S
N1066 H1079 0.985 . S
N1067 C1069 1.356 . S
N1067 H1072 0.984 . S
N1067 H1073 0.985 . S
C1068 C1062 1.379 . S
C1068 C1065 1.363 . S
C1068 N1066 1.356 . S
C1069 C1063 1.363 . S
C1069 C1064 1.379 . S
C1069 N1067 1.356 . S
N1070 C1062 1.356 . S
N1070 H1076 0.984 . S
N1070 H1077 0.984 . S
N1071 C1064 1.356 . S
N1071 H1074 0.984 . S
N1071 H1075 0.985 . S
H1072 N1067 0.984 . S
H1073 N1067 0.985 . S
H1074 N1071 0.984 . S
H1075 N1071 0.985 . S
H1076 N1070 0.984 . S
H1077 N1070 0.984 . S
H1078 N1066 0.984 . S
H1079 N1066 0.985 . S
C1080 C1081 1.363 . S
C1080 C1086 1.379 . S
C1080 N1088 1.356 . S
C1081 C1080 1.363 . S
C1081 C1087 1.363 . S
C1082 C1083 1.363 . S
C1082 C1087 1.379 . S
C1082 N1089 1.356 . S
C1083 C1082 1.363 . S
C1083 C1086 1.363 . S
N1084 C1086 1.356 . S
N1084 H1096 0.984 . S
N1084 H1097 0.985 . S
N1085 C1087 1.356 . S
N1085 H1090 0.984 . S
N1085 H1091 0.985 . S
C1086 C1080 1.379 . S
C1086 C1083 1.363 . S
C1086 N1084 1.356 . S
C1087 C1081 1.363 . S
C1087 C1082 1.379 . S
C1087 N1085 1.356 . S
N1088 C1080 1.356 . S
N1088 H1094 0.984 . S
N1088 H1095 0.984 . S
N1089 C1082 1.356 . S
N1089 H1092 0.984 . S
N1089 H1093 0.985 . S
H1090 N1085 0.984 . S
H1091 N1085 0.985 . S
H1092 N1089 0.984 . S
H1093 N1089 0.985 . S
H1094 N1088 0.984 . S
H1095 N1088 0.984 . S
H1096 N1084 0.984 . S
H1097 N1084 0.985 . S
C1098 C1099 1.363 . S
C1098 C1104 1.379 . S
C1098 N1106 1.356 . S
C1099 C1098 1.363 . S
C1099 C1105 1.363 . S
C1100 C1101 1.363 . S
C1100 C1105 1.379 . S
C1100 N1107 1.356 . S
C1101 C1100 1.363 . S
C1101 C1104 1.363 . S
N1102 C1104 1.356 . S
N1102 H1114 0.984 . S
N1102 H1115 0.985 . S
N1103 C1105 1.356 . S
N1103 H1108 0.984 . S
N1103 H1109 0.985 . S
C1104 C1098 1.379 . S
C1104 C1101 1.363 . S
C1104 N1102 1.356 . S
C1105 C1099 1.363 . S
C1105 C1100 1.379 . S
C1105 N1103 1.356 . S
N1106 C1098 1.356 . S
N1106 H1112 0.984 . S
N1106 H1113 0.984 . S
N1107 C1100 1.356 . S
N1107 H1110 0.984 . S
N1107 H1111 0.985 . S
H1108 N1103 0.984 . S
H1109 N1103 0.985 . S
H1110 N1107 0.984 . S
H1111 N1107 0.985 . S
H1112 N1106 0.984 . S
H1113 N1106 0.984 . S
H1114 N1102 0.984 . S
H1115 N1102 0.985 . S
C1116 C1117 1.363 . S
C1116 C1122 1.379 . S
C1116 N1124 1.356 . S
C1117 C1116 1.363 . S
C1117 C1123 1.363 . S
C1118 C1119 1.363 . S
C1118 C1123 1.379 . S
C1118 N1125 1.356 . S
C1119 C1118 1.363 . S
C1119 C1122 1.363 . S
N1120 C1122 1.356 . S
N1120 H1132 0.984 . S
N1120 H1133 0.985 . S
N1121 C1123 1.356 . S
N1121 H1126 0.984 . S
N1121 H1127 0.985 . S
C1122 C1116 1.379 . S
C1122 C1119 1.363 . S
C1122 N1120 1.356 . S
C1123 C1117 1.363 . S
C1123 C1118 1.379 . S
C1123 N1121 1.356 . S
N1124 C1116 1.356 . S
N1124 H1130 0.984 . S
N1124 H1131 0.984 . S
N1125 C1118 1.356 . S
N1125 H1128 0.984 . S
N1125 H1129 0.985 . S
H1126 N1121 0.984 . S
H1127 N1121 0.985 . S
H1128 N1125 0.984 . S
H1129 N1125 0.985 . S
H1130 N1124 0.984 . S
H1131 N1124 0.984 . S
H1132 N1120 0.984 . S
H1133 N1120 0.985 . S
C1134 C1135 1.363 . S
C1134 C1140 1.379 . S
C1134 N1142 1.356 . S
C1135 C1134 1.363 . S
C1135 C1141 1.363 . S
C1136 C1137 1.363 . S
C1136 C1141 1.379 . S
C1136 N1143 1.356 . S
C1137 C1136 1.363 . S
C1137 C1140 1.363 . S
N1138 C1140 1.356 . S
N1138 H1150 0.984 . S
N1138 H1151 0.985 . S
N1139 C1141 1.356 . S
N1139 H1144 0.984 . S
N1139 H1145 0.985 . S
C1140 C1134 1.379 . S
C1140 C1137 1.363 . S
C1140 N1138 1.356 . S
C1141 C1135 1.363 . S
C1141 C1136 1.379 . S
C1141 N1139 1.356 . S
N1142 C1134 1.356 . S
N1142 H1148 0.984 . S
N1142 H1149 0.984 . S
N1143 C1136 1.356 . S
N1143 H1146 0.984 . S
N1143 H1147 0.985 . S
H1144 N1139 0.984 . S
H1145 N1139 0.985 . S
H1146 N1143 0.984 . S
H1147 N1143 0.985 . S
H1148 N1142 0.984 . S
H1149 N1142 0.984 . S
H1150 N1138 0.984 . S
H1151 N1138 0.985 . S
C1152 C1153 1.363 . S
C1152 C1158 1.379 . S
C1152 N1160 1.356 . S
C1153 C1152 1.363 . S
C1153 C1159 1.363 . S
C1154 C1155 1.363 . S
C1154 C1159 1.379 . S
C1154 N1161 1.356 . S
C1155 C1154 1.363 . S
C1155 C1158 1.363 . S
N1156 C1158 1.356 . S
N1156 H1168 0.984 . S
N1156 H1169 0.985 . S
N1157 C1159 1.356 . S
N1157 H1162 0.984 . S
N1157 H1163 0.985 . S
C1158 C1152 1.379 . S
C1158 C1155 1.363 . S
C1158 N1156 1.356 . S
C1159 C1153 1.363 . S
C1159 C1154 1.379 . S
C1159 N1157 1.356 . S
N1160 C1152 1.356 . S
N1160 H1166 0.984 . S
N1160 H1167 0.984 . S
N1161 C1154 1.356 . S
N1161 H1164 0.984 . S
N1161 H1165 0.985 . S
H1162 N1157 0.984 . S
H1163 N1157 0.985 . S
H1164 N1161 0.984 . S
H1165 N1161 0.985 . S
H1166 N1160 0.984 . S
H1167 N1160 0.984 . S
H1168 N1156 0.984 . S
H1169 N1156 0.985 . S
C1170 C1171 1.363 . S
C1170 C1176 1.379 . S
C1170 N1178 1.356 . S
C1171 C1170 1.363 . S
C1171 C1177 1.363 . S
C1172 C1173 1.363 . S
C1172 C1177 1.379 . S
C1172 N1179 1.356 . S
C1173 C1172 1.363 . S
C1173 C1176 1.363 . S
N1174 C1176 1.356 . S
N1174 H1186 0.984 . S
N1174 H1187 0.985 . S
N1175 C1177 1.356 . S
N1175 H1180 0.984 . S
N1175 H1181 0.985 . S
C1176 C1170 1.379 . S
C1176 C1173 1.363 . S
C1176 N1174 1.356 . S
C1177 C1171 1.363 . S
C1177 C1172 1.379 . S
C1177 N1175 1.356 . S
N1178 C1170 1.356 . S
N1178 H1184 0.984 . S
N1178 H1185 0.984 . S
N1179 C1172 1.356 . S
N1179 H1182 0.984 . S
N1179 H1183 0.985 . S
H1180 N1175 0.984 . S
H1181 N1175 0.985 . S
H1182 N1179 0.984 . S
H1183 N1179 0.985 . S
H1184 N1178 0.984 . S
H1185 N1178 0.984 . S
H1186 N1174 0.984 . S
H1187 N1174 0.985 . S
C1188 C1189 1.363 . S
C1188 C1194 1.379 . S
C1188 N1196 1.356 . S
C1189 C1188 1.363 . S
C1189 C1195 1.363 . S
C1190 C1191 1.363 . S
C1190 C1195 1.379 . S
C1190 N1197 1.356 . S
C1191 C1190 1.363 . S
C1191 C1194 1.363 . S
N1192 C1194 1.356 . S
N1192 H1204 0.984 . S
N1192 H1205 0.985 . S
N1193 C1195 1.356 . S
N1193 H1198 0.984 . S
N1193 H1199 0.985 . S
C1194 C1188 1.379 . S
C1194 C1191 1.363 . S
C1194 N1192 1.356 . S
C1195 C1189 1.363 . S
C1195 C1190 1.379 . S
C1195 N1193 1.356 . S
N1196 C1188 1.356 . S
N1196 H1202 0.984 . S
N1196 H1203 0.984 . S
N1197 C1190 1.356 . S
N1197 H1200 0.984 . S
N1197 H1201 0.985 . S
H1198 N1193 0.984 . S
H1199 N1193 0.985 . S
H1200 N1197 0.984 . S
H1201 N1197 0.985 . S
H1202 N1196 0.984 . S
H1203 N1196 0.984 . S
H1204 N1192 0.984 . S
H1205 N1192 0.985 . S
C1206 C1207 1.363 . S
C1206 C1212 1.379 . S
C1206 N1214 1.356 . S
C1207 C1206 1.363 . S
C1207 C1213 1.363 . S
C1208 C1209 1.363 . S
C1208 C1213 1.379 . S
C1208 N1215 1.356 . S
C1209 C1208 1.363 . S
C1209 C1212 1.363 . S
N1210 C1212 1.356 . S
N1210 H1222 0.984 . S
N1210 H1223 0.985 . S
N1211 C1213 1.356 . S
N1211 H1216 0.984 . S
N1211 H1217 0.985 . S
C1212 C1206 1.379 . S
C1212 C1209 1.363 . S
C1212 N1210 1.356 . S
C1213 C1207 1.363 . S
C1213 C1208 1.379 . S
C1213 N1211 1.356 . S
N1214 C1206 1.356 . S
N1214 H1220 0.984 . S
N1214 H1221 0.984 . S
N1215 C1208 1.356 . S
N1215 H1218 0.984 . S
N1215 H1219 0.985 . S
H1216 N1211 0.984 . S
H1217 N1211 0.985 . S
H1218 N1215 0.984 . S
H1219 N1215 0.985 . S
H1220 N1214 0.984 . S
H1221 N1214 0.984 . S
H1222 N1210 0.984 . S
H1223 N1210 0.985 . S
C1224 C1225 1.363 . S
C1224 C1230 1.379 . S
C1224 N1232 1.356 . S
C1225 C1224 1.363 . S
C1225 C1231 1.363 . S
C1226 C1227 1.363 . S
C1226 C1231 1.379 . S
C1226 N1233 1.356 . S
C1227 C1226 1.363 . S
C1227 C1230 1.363 . S
N1228 C1230 1.356 . S
N1228 H1240 0.984 . S
N1228 H1241 0.985 . S
N1229 C1231 1.356 . S
N1229 H1234 0.984 . S
N1229 H1235 0.985 . S
C1230 C1224 1.379 . S
C1230 C1227 1.363 . S
C1230 N1228 1.356 . S
C1231 C1225 1.363 . S
C1231 C1226 1.379 . S
C1231 N1229 1.356 . S
N1232 C1224 1.356 . S
N1232 H1238 0.984 . S
N1232 H1239 0.984 . S
N1233 C1226 1.356 . S
N1233 H1236 0.984 . S
N1233 H1237 0.985 . S
H1234 N1229 0.984 . S
H1235 N1229 0.985 . S
H1236 N1233 0.984 . S
H1237 N1233 0.985 . S
H1238 N1232 0.984 . S
H1239 N1232 0.984 . S
H1240 N1228 0.984 . S
H1241 N1228 0.985 . S
C1242 C1243 1.363 . S
C1242 C1248 1.379 . S
C1242 N1250 1.356 . S
C1243 C1242 1.363 . S
C1243 C1249 1.363 . S
C1244 C1245 1.363 . S
C1244 C1249 1.379 . S
C1244 N1251 1.356 . S
C1245 C1244 1.363 . S
C1245 C1248 1.363 . S
N1246 C1248 1.356 . S
N1246 H1258 0.984 . S
N1246 H1259 0.985 . S
N1247 C1249 1.356 . S
N1247 H1252 0.984 . S
N1247 H1253 0.985 . S
C1248 C1242 1.379 . S
C1248 C1245 1.363 . S
C1248 N1246 1.356 . S
C1249 C1243 1.363 . S
C1249 C1244 1.379 . S
C1249 N1247 1.356 . S
N1250 C1242 1.356 . S
N1250 H1256 0.984 . S
N1250 H1257 0.984 . S
N1251 C1244 1.356 . S
N1251 H1254 0.984 . S
N1251 H1255 0.985 . S
H1252 N1247 0.984 . S
H1253 N1247 0.985 . S
H1254 N1251 0.984 . S
H1255 N1251 0.985 . S
H1256 N1250 0.984 . S
H1257 N1250 0.984 . S
H1258 N1246 0.984 . S
H1259 N1246 0.985 . S
C1260 C1261 1.363 . S
C1260 C1266 1.379 . S
C1260 N1268 1.356 . S
C1261 C1260 1.363 . S
C1261 C1267 1.363 . S
C1262 C1263 1.363 . S
C1262 C1267 1.379 . S
C1262 N1269 1.356 . S
C1263 C1262 1.363 . S
C1263 C1266 1.363 . S
N1264 C1266 1.356 . S
N1264 H1276 0.984 . S
N1264 H1277 0.985 . S
N1265 C1267 1.356 . S
N1265 H1270 0.984 . S
N1265 H1271 0.985 . S
C1266 C1260 1.379 . S
C1266 C1263 1.363 . S
C1266 N1264 1.356 . S
C1267 C1261 1.363 . S
C1267 C1262 1.379 . S
C1267 N1265 1.356 . S
N1268 C1260 1.356 . S
N1268 H1274 0.984 . S
N1268 H1275 0.984 . S
N1269 C1262 1.356 . S
N1269 H1272 0.984 . S
N1269 H1273 0.985 . S
H1270 N1265 0.984 . S
H1271 N1265 0.985 . S
H1272 N1269 0.984 . S
H1273 N1269 0.985 . S
H1274 N1268 0.984 . S
H1275 N1268 0.984 . S
H1276 N1264 0.984 . S
H1277 N1264 0.985 . S
C1278 C1279 1.363 . S
C1278 C1284 1.379 . S
C1278 N1286 1.356 . S
C1279 C1278 1.363 . S
C1279 C1285 1.363 . S
C1280 C1281 1.363 . S
C1280 C1285 1.379 . S
C1280 N1287 1.356 . S
C1281 C1280 1.363 . S
C1281 C1284 1.363 . S
N1282 C1284 1.356 . S
N1282 H1294 0.984 . S
N1282 H1295 0.985 . S
N1283 C1285 1.356 . S
N1283 H1288 0.984 . S
N1283 H1289 0.985 . S
C1284 C1278 1.379 . S
C1284 C1281 1.363 . S
C1284 N1282 1.356 . S
C1285 C1279 1.363 . S
C1285 C1280 1.379 . S
C1285 N1283 1.356 . S
N1286 C1278 1.356 . S
N1286 H1292 0.984 . S
N1286 H1293 0.984 . S
N1287 C1280 1.356 . S
N1287 H1290 0.984 . S
N1287 H1291 0.985 . S
H1288 N1283 0.984 . S
H1289 N1283 0.985 . S
H1290 N1287 0.984 . S
H1291 N1287 0.985 . S
H1292 N1286 0.984 . S
H1293 N1286 0.984 . S
H1294 N1282 0.984 . S
H1295 N1282 0.985 . S
C1296 C1297 1.363 . S
C1296 C1302 1.379 . S
C1296 N1304 1.356 . S
C1297 C1296 1.363 . S
C1297 C1303 1.363 . S
C1298 C1299 1.363 . S
C1298 C1303 1.379 . S
C1298 N1305 1.356 . S
C1299 C1298 1.363 . S
C1299 C1302 1.363 . S
N1300 C1302 1.356 . S
N1300 H1312 0.984 . S
N1300 H1313 0.985 . S
N1301 C1303 1.356 . S
N1301 H1306 0.984 . S
N1301 H1307 0.985 . S
C1302 C1296 1.379 . S
C1302 C1299 1.363 . S
C1302 N1300 1.356 . S
C1303 C1297 1.363 . S
C1303 C1298 1.379 . S
C1303 N1301 1.356 . S
N1304 C1296 1.356 . S
N1304 H1310 0.984 . S
N1304 H1311 0.984 . S
N1305 C1298 1.356 . S
N1305 H1308 0.984 . S
N1305 H1309 0.985 . S
H1306 N1301 0.984 . S
H1307 N1301 0.985 . S
H1308 N1305 0.984 . S
H1309 N1305 0.985 . S
H1310 N1304 0.984 . S
H1311 N1304 0.984 . S
H1312 N1300 0.984 . S
H1313 N1300 0.985 . S
C1314 C1315 1.363 . S
C1314 C1320 1.379 . S
C1314 N1322 1.356 . S
C1315 C1314 1.363 . S
C1315 C1321 1.363 . S
C1316 C1317 1.363 . S
C1316 C1321 1.379 . S
C1316 N1323 1.356 . S
C1317 C1316 1.363 . S
C1317 C1320 1.363 . S
N1318 C1320 1.356 . S
N1318 H1330 0.984 . S
N1318 H1331 0.985 . S
N1319 C1321 1.356 . S
N1319 H1324 0.984 . S
N1319 H1325 0.985 . S
C1320 C1314 1.379 . S
C1320 C1317 1.363 . S
C1320 N1318 1.356 . S
C1321 C1315 1.363 . S
C1321 C1316 1.379 . S
C1321 N1319 1.356 . S
N1322 C1314 1.356 . S
N1322 H1328 0.984 . S
N1322 H1329 0.984 . S
N1323 C1316 1.356 . S
N1323 H1326 0.984 . S
N1323 H1327 0.985 . S
H1324 N1319 0.984 . S
H1325 N1319 0.985 . S
H1326 N1323 0.984 . S
H1327 N1323 0.985 . S
H1328 N1322 0.984 . S
H1329 N1322 0.984 . S
H1330 N1318 0.984 . S
H1331 N1318 0.985 . S
C1332 C1333 1.363 . S
C1332 C1338 1.379 . S
C1332 N1340 1.356 1_556 S
C1333 C1332 1.363 . S
C1333 C1339 1.363 . S
C1334 C1335 1.363 . S
C1334 C1339 1.379 . S
C1334 N1341 1.356 . S
C1335 C1334 1.363 . S
C1335 C1338 1.363 . S
N1336 C1338 1.356 . S
N1336 H1348 0.984 1_556 S
N1336 H1349 0.985 . S
N1337 C1339 1.356 . S
N1337 H1342 0.984 . S
N1337 H1343 0.985 . S
C1338 C1332 1.379 . S
C1338 C1335 1.363 . S
C1338 N1336 1.356 . S
C1339 C1333 1.363 . S
C1339 C1334 1.379 . S
C1339 N1337 1.356 . S
N1340 C1332 1.356 1_554 S
N1340 H1346 0.984 . S
N1340 H1347 0.984 . S
N1341 C1334 1.356 . S
N1341 H1344 0.984 . S
N1341 H1345 0.985 . S
H1342 N1337 0.984 . S
H1343 N1337 0.985 . S
H1344 N1341 0.984 . S
H1345 N1341 0.985 . S
H1346 N1340 0.984 . S
H1347 N1340 0.984 . S
H1348 N1336 0.984 1_554 S
H1349 N1336 0.985 . S
C1350 C1351 1.363 . S
C1350 C1356 1.379 . S
C1350 N1358 1.356 1_556 S
C1351 C1350 1.363 . S
C1351 C1357 1.363 . S
C1352 C1353 1.363 . S
C1352 C1357 1.379 . S
C1352 N1359 1.356 . S
C1353 C1352 1.363 . S
C1353 C1356 1.363 . S
N1354 C1356 1.356 . S
N1354 H1366 0.984 1_556 S
N1354 H1367 0.985 . S
N1355 C1357 1.356 . S
N1355 H1360 0.984 . S
N1355 H1361 0.985 . S
C1356 C1350 1.379 . S
C1356 C1353 1.363 . S
C1356 N1354 1.356 . S
C1357 C1351 1.363 . S
C1357 C1352 1.379 . S
C1357 N1355 1.356 . S
N1358 C1350 1.356 1_554 S
N1358 H1364 0.984 . S
N1358 H1365 0.984 . S
N1359 C1352 1.356 . S
N1359 H1362 0.984 . S
N1359 H1363 0.985 . S
H1360 N1355 0.984 . S
H1361 N1355 0.985 . S
H1362 N1359 0.984 . S
H1363 N1359 0.985 . S
H1364 N1358 0.984 . S
H1365 N1358 0.984 . S
H1366 N1354 0.984 1_554 S
H1367 N1354 0.985 . S
C1368 C1369 1.363 . S
C1368 C1374 1.379 . S
C1368 N1376 1.356 . S
C1369 C1368 1.363 . S
C1369 C1375 1.363 . S
C1370 C1371 1.363 . S
C1370 C1375 1.379 . S
C1370 N1377 1.356 . S
C1371 C1370 1.363 . S
C1371 C1374 1.363 . S
N1372 C1374 1.356 . S
N1372 H1384 0.984 . S
N1372 H1385 0.985 . S
N1373 C1375 1.356 . S
N1373 H1378 0.984 . S
N1373 H1379 0.985 . S
C1374 C1368 1.379 . S
C1374 C1371 1.363 . S
C1374 N1372 1.356 . S
C1375 C1369 1.363 . S
C1375 C1370 1.379 . S
C1375 N1373 1.356 . S
N1376 C1368 1.356 . S
N1376 H1382 0.984 1_556 S
N1376 H1383 0.986 . S
N1377 C1370 1.356 . S
N1377 H1380 0.984 . S
N1377 H1381 0.985 . S
H1378 N1373 0.984 . S
H1379 N1373 0.985 . S
H1380 N1377 0.984 . S
H1381 N1377 0.985 . S
H1382 N1376 0.984 1_554 S
H1383 N1376 0.986 . S
H1384 N1372 0.984 . S
H1385 N1372 0.985 . S
C1386 C1387 1.363 . S
C1386 C1392 1.379 . S
C1386 N1394 1.356 . S
C1387 C1386 1.363 . S
C1387 C1393 1.363 . S
C1388 C1389 1.363 . S
C1388 C1393 1.379 . S
C1388 N1395 1.356 . S
C1389 C1388 1.363 . S
C1389 C1392 1.363 . S
N1390 C1392 1.356 . S
N1390 H1402 0.984 . S
N1390 H1403 0.985 . S
N1391 C1393 1.356 . S
N1391 H1396 0.984 . S
N1391 H1397 0.985 . S
C1392 C1386 1.379 . S
C1392 C1389 1.363 . S
C1392 N1390 1.356 . S
C1393 C1387 1.363 . S
C1393 C1388 1.379 . S
C1393 N1391 1.356 . S
N1394 C1386 1.356 . S
N1394 H1400 0.984 1_556 S
N1394 H1401 0.984 1_556 S
N1395 C1388 1.356 . S
N1395 H1398 0.984 . S
N1395 H1399 0.985 . S
H1396 N1391 0.984 . S
H1397 N1391 0.985 . S
H1398 N1395 0.984 . S
H1399 N1395 0.985 . S
H1400 N1394 0.984 1_554 S
H1401 N1394 0.984 1_554 S
H1402 N1390 0.984 . S
H1403 N1390 0.985 . S
C1404 C1405 1.363 . S
C1404 C1410 1.379 . S
C1404 N1412 1.356 1_556 S
C1405 C1404 1.363 . S
C1405 C1411 1.363 . S
C1406 C1407 1.363 . S
C1406 C1411 1.379 . S
C1406 N1413 1.356 . S
C1407 C1406 1.363 . S
C1407 C1410 1.363 . S
N1408 C1410 1.356 . S
N1408 H1420 0.984 1_556 S
N1408 H1421 0.985 . S
N1409 C1411 1.356 . S
N1409 H1414 0.984 . S
N1409 H1415 0.985 . S
C1410 C1404 1.379 . S
C1410 C1407 1.363 . S
C1410 N1408 1.356 . S
C1411 C1405 1.363 . S
C1411 C1406 1.379 . S
C1411 N1409 1.356 . S
N1412 C1404 1.356 1_554 S
N1412 H1418 0.984 . S
N1412 H1419 0.984 . S
N1413 C1406 1.356 . S
N1413 H1416 0.984 . S
N1413 H1417 0.985 . S
H1414 N1409 0.984 . S
H1415 N1409 0.985 . S
H1416 N1413 0.984 . S
H1417 N1413 0.985 . S
H1418 N1412 0.984 . S
H1419 N1412 0.984 . S
H1420 N1408 0.984 1_554 S
H1421 N1408 0.985 . S
C1422 C1423 1.363 . S
C1422 C1428 1.379 . S
C1422 N1430 1.356 . S
C1423 C1422 1.363 . S
C1423 C1429 1.363 . S
C1424 C1425 1.363 . S
C1424 C1429 1.379 . S
C1424 N1431 1.356 . S
C1425 C1424 1.363 . S
C1425 C1428 1.363 . S
N1426 C1428 1.356 . S
N1426 H1438 0.984 . S
N1426 H1439 0.985 . S
N1427 C1429 1.356 1_554 S
N1427 H1432 0.984 . S
N1427 H1433 0.985 . S
C1428 C1422 1.379 . S
C1428 C1425 1.363 . S
C1428 N1426 1.356 . S
C1429 C1423 1.363 . S
C1429 C1424 1.379 . S
C1429 N1427 1.356 1_556 S
N1430 C1422 1.356 . S
N1430 H1436 0.984 . S
N1430 H1437 0.984 . S
N1431 C1424 1.356 . S
N1431 H1434 0.984 . S
N1431 H1435 0.985 1_556 S
H1432 N1427 0.984 . S
H1433 N1427 0.985 . S
H1434 N1431 0.984 . S
H1435 N1431 0.985 1_554 S
H1436 N1430 0.984 . S
H1437 N1430 0.984 . S
H1438 N1426 0.984 . S
H1439 N1426 0.985 . S
C1440 C1441 1.363 . S
C1440 C1446 1.379 . S
C1440 N1448 1.356 . S
C1441 C1440 1.363 . S
C1441 C1447 1.363 . S
C1442 C1443 1.363 . S
C1442 C1447 1.379 . S
C1442 N1449 1.356 . S
C1443 C1442 1.363 . S
C1443 C1446 1.363 . S
N1444 C1446 1.356 . S
N1444 H1456 0.984 . S
N1444 H1457 0.985 . S
N1445 C1447 1.356 . S
N1445 H1450 0.984 . S
N1445 H1451 0.985 . S
C1446 C1440 1.379 . S
C1446 C1443 1.363 . S
C1446 N1444 1.356 . S
C1447 C1441 1.363 . S
C1447 C1442 1.379 . S
C1447 N1445 1.356 . S
N1448 C1440 1.356 . S
N1448 H1454 0.984 . S
N1448 H1455 0.984 . S
N1449 C1442 1.356 . S
N1449 H1452 0.984 . S
N1449 H1453 0.985 . S
H1450 N1445 0.984 . S
H1451 N1445 0.985 . S
H1452 N1449 0.984 . S
H1453 N1449 0.985 . S
H1454 N1448 0.984 . S
H1455 N1448 0.984 . S
H1456 N1444 0.984 . S
H1457 N1444 0.985 . S
C1458 C1459 1.363 . S
C1458 C1464 1.379 . S
C1458 N1466 1.356 . S
C1459 C1458 1.363 . S
C1459 C1465 1.363 . S
C1460 C1461 1.363 . S
C1460 C1465 1.379 . S
C1460 N1467 1.356 . S
C1461 C1460 1.363 . S
C1461 C1464 1.363 . S
N1462 C1464 1.356 . S
N1462 H1474 0.984 . S
N1462 H1475 0.985 . S
N1463 C1465 1.356 . S
N1463 H1468 0.984 . S
N1463 H1469 0.985 . S
C1464 C1458 1.379 . S
C1464 C1461 1.363 . S
C1464 N1462 1.356 . S
C1465 C1459 1.363 . S
C1465 C1460 1.379 . S
C1465 N1463 1.356 . S
N1466 C1458 1.356 . S
N1466 H1472 0.984 1_554 S
N1466 H1473 0.984 . S
N1467 C1460 1.356 . S
N1467 H1470 0.984 . S
N1467 H1471 0.985 . S
H1468 N1463 0.984 . S
H1469 N1463 0.985 . S
H1470 N1467 0.984 . S
H1471 N1467 0.985 . S
H1472 N1466 0.984 1_556 S
H1473 N1466 0.984 . S
H1474 N1462 0.984 . S
H1475 N1462 0.985 . S
C1476 C1477 1.363 . S
C1476 C1482 1.379 . S
C1476 N1484 1.356 . S
C1477 C1476 1.363 . S
C1477 C1483 1.363 . S
C1478 C1479 1.363 . S
C1478 C1483 1.379 . S
C1478 N1485 1.356 . S
C1479 C1478 1.363 . S
C1479 C1482 1.363 . S
N1480 C1482 1.356 . S
N1480 H1492 0.984 . S
N1480 H1493 0.985 . S
N1481 C1483 1.356 . S
N1481 H1486 0.984 . S
N1481 H1487 0.985 . S
C1482 C1476 1.379 . S
C1482 C1479 1.363 . S
C1482 N1480 1.356 . S
C1483 C1477 1.363 . S
C1483 C1478 1.379 . S
C1483 N1481 1.356 . S
N1484 C1476 1.356 . S
N1484 H1490 0.984 1_554 S
N1484 H1491 0.984 . S
N1485 C1478 1.356 . S
N1485 H1488 0.984 . S
N1485 H1489 0.985 . S
H1486 N1481 0.984 . S
H1487 N1481 0.985 . S
H1488 N1485 0.984 . S
H1489 N1485 0.985 . S
H1490 N1484 0.984 1_556 S
H1491 N1484 0.984 . S
H1492 N1480 0.984 . S
H1493 N1480 0.985 . S
C1494 C1495 1.363 . S
C1494 C1500 1.379 . S
C1494 N1502 1.356 . S
C1495 C1494 1.363 . S
C1495 C1501 1.363 . S
C1496 C1497 1.363 . S
C1496 C1501 1.379 . S
C1496 N1503 1.356 . S
C1497 C1496 1.363 . S
C1497 C1500 1.363 . S
N1498 C1500 1.356 . S
N1498 H1510 0.984 . S
N1498 H1511 0.985 . S
N1499 C1501 1.356 . S
N1499 H1504 0.984 . S
N1499 H1505 0.985 . S
C1500 C1494 1.379 . S
C1500 C1497 1.363 . S
C1500 N1498 1.356 . S
C1501 C1495 1.363 . S
C1501 C1496 1.379 . S
C1501 N1499 1.356 . S
N1502 C1494 1.356 . S
N1502 H1508 0.984 . S
N1502 H1509 0.984 . S
N1503 C1496 1.356 . S
N1503 H1506 0.984 . S
N1503 H1507 0.985 . S
H1504 N1499 0.984 . S
H1505 N1499 0.985 . S
H1506 N1503 0.984 . S
H1507 N1503 0.985 . S
H1508 N1502 0.984 . S
H1509 N1502 0.984 . S
H1510 N1498 0.984 . S
H1511 N1498 0.985 . S
C1512 C1513 1.363 . S
C1512 C1518 1.379 . S
C1512 N1520 1.356 . S
C1513 C1512 1.363 . S
C1513 C1519 1.363 . S
C1514 C1515 1.363 . S
C1514 C1519 1.379 . S
C1514 N1521 1.356 . S
C1515 C1514 1.363 . S
C1515 C1518 1.363 . S
N1516 C1518 1.356 . S
N1516 H1528 0.984 . S
N1516 H1529 0.985 . S
N1517 C1519 1.356 . S
N1517 H1522 0.984 . S
N1517 H1523 0.985 . S
C1518 C1512 1.379 . S
C1518 C1515 1.363 . S
C1518 N1516 1.356 . S
C1519 C1513 1.363 . S
C1519 C1514 1.379 . S
C1519 N1517 1.356 . S
N1520 C1512 1.356 . S
N1520 H1526 0.984 . S
N1520 H1527 0.984 . S
N1521 C1514 1.356 . S
N1521 H1524 0.984 . S
N1521 H1525 0.985 . S
H1522 N1517 0.984 . S
H1523 N1517 0.985 . S
H1524 N1521 0.984 . S
H1525 N1521 0.985 . S
H1526 N1520 0.984 . S
H1527 N1520 0.984 . S
H1528 N1516 0.984 . S
H1529 N1516 0.985 . S
C1530 C1531 1.363 . S
C1530 C1536 1.379 . S
C1530 N1538 1.356 . S
C1531 C1530 1.363 . S
C1531 C1537 1.363 . S
C1532 C1533 1.363 . S
C1532 C1537 1.379 . S
C1532 N1539 1.356 . S
C1533 C1532 1.363 . S
C1533 C1536 1.363 . S
N1534 C1536 1.356 . S
N1534 H1546 0.984 . S
N1534 H1547 0.985 . S
N1535 C1537 1.356 . S
N1535 H1540 0.984 . S
N1535 H1541 0.985 . S
C1536 C1530 1.379 . S
C1536 C1533 1.363 . S
C1536 N1534 1.356 . S
C1537 C1531 1.363 . S
C1537 C1532 1.379 . S
C1537 N1535 1.356 . S
N1538 C1530 1.356 . S
N1538 H1544 0.984 . S
N1538 H1545 0.984 . S
N1539 C1532 1.356 . S
N1539 H1542 0.984 . S
N1539 H1543 0.985 . S
H1540 N1535 0.984 . S
H1541 N1535 0.985 . S
H1542 N1539 0.984 . S
H1543 N1539 0.985 . S
H1544 N1538 0.984 . S
H1545 N1538 0.984 . S
H1546 N1534 0.984 . S
H1547 N1534 0.985 . S
C1548 C1549 1.363 1_655 S
C1548 C1554 1.379 . S
C1548 N1556 1.356 . S
C1549 C1548 1.363 1_455 S
C1549 C1555 1.363 . S
C1550 C1551 1.363 . S
C1550 C1555 1.379 . S
C1550 N1557 1.356 . S
C1551 C1550 1.363 . S
C1551 C1554 1.363 1_455 S
N1552 C1554 1.356 . S
N1552 H1564 0.984 . S
N1552 H1565 0.985 . S
N1553 C1555 1.356 . S
N1553 H1558 0.984 . S
N1553 H1559 0.985 . S
C1554 C1548 1.379 . S
C1554 C1551 1.363 1_655 S
C1554 N1552 1.356 . S
C1555 C1549 1.363 . S
C1555 C1550 1.379 . S
C1555 N1553 1.356 . S
N1556 C1548 1.356 . S
N1556 H1562 0.984 . S
N1556 H1563 0.984 . S
N1557 C1550 1.356 . S
N1557 H1560 0.984 . S
N1557 H1561 0.985 . S
H1558 N1553 0.984 . S
H1559 N1553 0.985 . S
H1560 N1557 0.984 . S
H1561 N1557 0.985 . S
H1562 N1556 0.984 . S
H1563 N1556 0.984 . S
H1564 N1552 0.984 . S
H1565 N1552 0.985 . S
C1566 C1567 1.363 . S
C1566 C1572 1.379 . S
C1566 N1574 1.356 . S
C1567 C1566 1.363 . S
C1567 C1573 1.363 . S
C1568 C1569 1.363 . S
C1568 C1573 1.379 . S
C1568 N1575 1.356 . S
C1569 C1568 1.363 . S
C1569 C1572 1.363 . S
N1570 C1572 1.356 . S
N1570 H1582 0.984 . S
N1570 H1583 0.985 . S
N1571 C1573 1.356 . S
N1571 H1576 0.984 . S
N1571 H1577 0.985 . S
C1572 C1566 1.379 . S
C1572 C1569 1.363 . S
C1572 N1570 1.356 . S
C1573 C1567 1.363 . S
C1573 C1568 1.379 . S
C1573 N1571 1.356 . S
N1574 C1566 1.356 . S
N1574 H1580 0.984 . S
N1574 H1581 0.984 . S
N1575 C1568 1.356 . S
N1575 H1578 0.984 . S
N1575 H1579 0.985 . S
H1576 N1571 0.984 . S
H1577 N1571 0.985 . S
H1578 N1575 0.984 . S
H1579 N1575 0.985 . S
H1580 N1574 0.984 . S
H1581 N1574 0.984 . S
H1582 N1570 0.984 . S
H1583 N1570 0.985 . S
C1584 C1585 1.363 1_545 S
C1584 C1590 1.379 . S
C1584 N1592 1.356 . S
C1585 C1584 1.363 1_565 S
C1585 C1591 1.363 . S
C1586 C1587 1.363 . S
C1586 C1591 1.379 . S
C1586 N1593 1.356 . S
C1587 C1586 1.363 . S
C1587 C1590 1.363 1_565 S
N1588 C1590 1.356 . S
N1588 H1600 0.984 . S
N1588 H1601 0.985 . S
N1589 C1591 1.356 . S
N1589 H1594 0.984 . S
N1589 H1595 0.985 . S
C1590 C1584 1.379 . S
C1590 C1587 1.363 1_545 S
C1590 N1588 1.356 . S
C1591 C1585 1.363 . S
C1591 C1586 1.379 . S
C1591 N1589 1.356 . S
N1592 C1584 1.356 . S
N1592 H1598 0.984 . S
N1592 H1599 0.984 . S
N1593 C1586 1.356 . S
N1593 H1596 0.984 . S
N1593 H1597 0.985 . S
H1594 N1589 0.984 . S
H1595 N1589 0.985 . S
H1596 N1593 0.984 . S
H1597 N1593 0.985 . S
H1598 N1592 0.984 . S
H1599 N1592 0.984 . S
H1600 N1588 0.984 . S
H1601 N1588 0.985 . S
C1602 C1603 1.363 . S
C1602 C1608 1.379 . S
C1602 N1610 1.356 . S
C1603 C1602 1.363 . S
C1603 C1609 1.363 1_565 S
C1604 C1605 1.363 1_545 S
C1604 C1609 1.379 . S
C1604 N1611 1.356 . S
C1605 C1604 1.363 1_565 S
C1605 C1608 1.363 . S
N1606 C1608 1.356 . S
N1606 H1618 0.984 . S
N1606 H1619 0.985 . S
N1607 C1609 1.356 . S
N1607 H1612 0.984 . S
N1607 H1613 0.985 . S
C1608 C1602 1.379 . S
C1608 C1605 1.363 . S
C1608 N1606 1.356 . S
C1609 C1603 1.363 1_545 S
C1609 C1604 1.379 . S
C1609 N1607 1.356 . S
N1610 C1602 1.356 . S
N1610 H1616 0.984 . S
N1610 H1617 0.984 . S
N1611 C1604 1.356 . S
N1611 H1614 0.984 . S
N1611 H1615 0.985 . S
H1612 N1607 0.984 . S
H1613 N1607 0.985 . S
H1614 N1611 0.984 . S
H1615 N1611 0.985 . S
H1616 N1610 0.984 . S
H1617 N1610 0.984 . S
H1618 N1606 0.984 . S
H1619 N1606 0.985 . S
C1620 C1621 1.363 . S
C1620 C1626 1.379 . S
C1620 N1628 1.356 . S
C1621 C1620 1.363 . S
C1621 C1627 1.363 1_455 S
C1622 C1623 1.363 1_655 S
C1622 C1627 1.379 . S
C1622 N1629 1.356 . S
C1623 C1622 1.363 1_455 S
C1623 C1626 1.363 . S
N1624 C1626 1.356 . S
N1624 H1636 0.984 . S
N1624 H1637 0.985 . S
N1625 C1627 1.356 . S
N1625 H1630 0.984 . S
N1625 H1631 0.985 . S
C1626 C1620 1.379 . S
C1626 C1623 1.363 . S
C1626 N1624 1.356 . S
C1627 C1621 1.363 1_655 S
C1627 C1622 1.379 . S
C1627 N1625 1.356 . S
N1628 C1620 1.356 . S
N1628 H1634 0.984 . S
N1628 H1635 0.984 . S
N1629 C1622 1.356 . S
N1629 H1632 0.984 . S
N1629 H1633 0.985 . S
H1630 N1625 0.984 . S
H1631 N1625 0.985 . S
H1632 N1629 0.984 . S
H1633 N1629 0.985 . S
H1634 N1628 0.984 . S
H1635 N1628 0.984 . S
H1636 N1624 0.984 . S
H1637 N1624 0.985 . S
C1638 C1639 1.363 . S
C1638 C1644 1.379 . S
C1638 N1646 1.356 . S
C1639 C1638 1.363 . S
C1639 C1645 1.363 . S
C1640 C1641 1.363 . S
C1640 C1645 1.379 . S
C1640 N1647 1.356 . S
C1641 C1640 1.363 . S
C1641 C1644 1.363 . S
N1642 C1644 1.356 . S
N1642 H1654 0.984 . S
N1642 H1655 0.985 . S
N1643 C1645 1.356 . S
N1643 H1648 0.984 . S
N1643 H1649 0.985 . S
C1644 C1638 1.379 . S
C1644 C1641 1.363 . S
C1644 N1642 1.356 . S
C1645 C1639 1.363 . S
C1645 C1640 1.379 . S
C1645 N1643 1.356 . S
N1646 C1638 1.356 . S
N1646 H1652 0.984 . S
N1646 H1653 0.984 . S
N1647 C1640 1.356 . S
N1647 H1650 0.984 . S
N1647 H1651 0.985 . S
H1648 N1643 0.984 . S
H1649 N1643 0.985 . S
H1650 N1647 0.984 . S
H1651 N1647 0.985 . S
H1652 N1646 0.984 . S
H1653 N1646 0.984 . S
H1654 N1642 0.984 . S
H1655 N1642 0.985 . S
C1656 C1657 1.363 . S
C1656 C1662 1.379 . S
C1656 N1664 1.356 . S
C1657 C1656 1.363 . S
C1657 C1663 1.363 . S
C1658 C1659 1.363 . S
C1658 C1663 1.379 . S
C1658 N1665 1.356 . S
C1659 C1658 1.363 . S
C1659 C1662 1.363 . S
N1660 C1662 1.356 . S
N1660 H1672 0.984 . S
N1660 H1673 0.985 . S
N1661 C1663 1.356 . S
N1661 H1666 0.984 . S
N1661 H1667 0.985 . S
C1662 C1656 1.379 . S
C1662 C1659 1.363 . S
C1662 N1660 1.356 . S
C1663 C1657 1.363 . S
C1663 C1658 1.379 . S
C1663 N1661 1.356 . S
N1664 C1656 1.356 . S
N1664 H1670 0.984 . S
N1664 H1671 0.984 . S
N1665 C1658 1.356 . S
N1665 H1668 0.984 . S
N1665 H1669 0.985 . S
H1666 N1661 0.984 . S
H1667 N1661 0.985 . S
H1668 N1665 0.984 . S
H1669 N1665 0.985 . S
H1670 N1664 0.984 . S
H1671 N1664 0.984 . S
H1672 N1660 0.984 . S
H1673 N1660 0.985 . S
C1674 C1675 1.363 . S
C1674 C1680 1.379 . S
C1674 N1682 1.356 . S
C1675 C1674 1.363 . S
C1675 C1681 1.363 . S
C1676 C1677 1.363 . S
C1676 C1681 1.379 . S
C1676 N1683 1.356 . S
C1677 C1676 1.363 . S
C1677 C1680 1.363 . S
N1678 C1680 1.356 . S
N1678 H1690 0.984 . S
N1678 H1691 0.985 . S
N1679 C1681 1.356 . S
N1679 H1684 0.984 . S
N1679 H1685 0.985 . S
C1680 C1674 1.379 . S
C1680 C1677 1.363 . S
C1680 N1678 1.356 . S
C1681 C1675 1.363 . S
C1681 C1676 1.379 . S
C1681 N1679 1.356 . S
N1682 C1674 1.356 . S
N1682 H1688 0.984 . S
N1682 H1689 0.984 . S
N1683 C1676 1.356 . S
N1683 H1686 0.984 . S
N1683 H1687 0.985 . S
H1684 N1679 0.984 . S
H1685 N1679 0.985 . S
H1686 N1683 0.984 . S
H1687 N1683 0.985 . S
H1688 N1682 0.984 . S
H1689 N1682 0.984 . S
H1690 N1678 0.984 . S
H1691 N1678 0.985 . S
C1692 C1693 1.363 . S
C1692 C1698 1.379 . S
C1692 N1700 1.356 . S
C1693 C1692 1.363 . S
C1693 C1699 1.363 . S
C1694 C1695 1.363 . S
C1694 C1699 1.379 . S
C1694 N1701 1.356 . S
C1695 C1694 1.363 . S
C1695 C1698 1.363 . S
N1696 C1698 1.356 . S
N1696 H1708 0.984 . S
N1696 H1709 0.985 . S
N1697 C1699 1.356 . S
N1697 H1702 0.984 . S
N1697 H1703 0.985 . S
C1698 C1692 1.379 . S
C1698 C1695 1.363 . S
C1698 N1696 1.356 . S
C1699 C1693 1.363 . S
C1699 C1694 1.379 . S
C1699 N1697 1.356 . S
N1700 C1692 1.356 . S
N1700 H1706 0.984 . S
N1700 H1707 0.984 . S
N1701 C1694 1.356 . S
N1701 H1704 0.984 . S
N1701 H1705 0.985 . S
H1702 N1697 0.984 . S
H1703 N1697 0.985 . S
H1704 N1701 0.984 . S
H1705 N1701 0.985 . S
H1706 N1700 0.984 . S
H1707 N1700 0.984 . S
H1708 N1696 0.984 . S
H1709 N1696 0.985 . S
C1710 C1711 1.363 1_565 S
C1710 C1716 1.379 . S
C1710 N1718 1.356 . S
C1711 C1710 1.363 1_545 S
C1711 C1717 1.363 . S
C1712 C1713 1.363 . S
C1712 C1717 1.379 . S
C1712 N1719 1.356 . S
C1713 C1712 1.363 . S
C1713 C1716 1.363 1_545 S
N1714 C1716 1.356 . S
N1714 H1726 0.984 . S
N1714 H1727 0.985 . S
N1715 C1717 1.356 . S
N1715 H1720 0.984 . S
N1715 H1721 0.985 . S
C1716 C1710 1.379 . S
C1716 C1713 1.363 1_565 S
C1716 N1714 1.356 . S
C1717 C1711 1.363 . S
C1717 C1712 1.379 . S
C1717 N1715 1.356 . S
N1718 C1710 1.356 . S
N1718 H1724 0.984 . S
N1718 H1725 0.984 . S
N1719 C1712 1.356 . S
N1719 H1722 0.984 . S
N1719 H1723 0.985 . S
H1720 N1715 0.984 . S
H1721 N1715 0.985 . S
H1722 N1719 0.984 . S
H1723 N1719 0.985 . S
H1724 N1718 0.984 . S
H1725 N1718 0.984 . S
H1726 N1714 0.984 . S
H1727 N1714 0.985 . S
C1728 C1729 1.363 . S
C1728 C1734 1.379 . S
C1728 N1736 1.356 . S
C1729 C1728 1.363 . S
C1729 C1735 1.363 1_655 S
C1730 C1731 1.363 1_455 S
C1730 C1735 1.379 . S
C1730 N1737 1.356 . S
C1731 C1730 1.363 1_655 S
C1731 C1734 1.363 . S
N1732 C1734 1.356 . S
N1732 H1744 0.984 . S
N1732 H1745 0.985 . S
N1733 C1735 1.356 . S
N1733 H1738 0.984 . S
N1733 H1739 0.985 . S
C1734 C1728 1.379 . S
C1734 C1731 1.363 . S
C1734 N1732 1.356 . S
C1735 C1729 1.363 1_455 S
C1735 C1730 1.379 . S
C1735 N1733 1.356 . S
N1736 C1728 1.356 . S
N1736 H1742 0.984 . S
N1736 H1743 0.984 . S
N1737 C1730 1.356 . S
N1737 H1740 0.984 . S
N1737 H1741 0.985 . S
H1738 N1733 0.984 . S
H1739 N1733 0.985 . S
H1740 N1737 0.984 . S
H1741 N1737 0.985 . S
H1742 N1736 0.984 . S
H1743 N1736 0.984 . S
H1744 N1732 0.984 . S
H1745 N1732 0.985 . S
C1746 C1747 1.363 . S
C1746 C1752 1.379 . S
C1746 N1754 1.356 . S
C1747 C1746 1.363 . S
C1747 C1753 1.363 . S
C1748 C1749 1.363 . S
C1748 C1753 1.379 . S
C1748 N1755 1.356 . S
C1749 C1748 1.363 . S
C1749 C1752 1.363 . S
N1750 C1752 1.356 . S
N1750 H1762 0.984 . S
N1750 H1763 0.985 . S
N1751 C1753 1.356 . S
N1751 H1756 0.984 . S
N1751 H1757 0.985 . S
C1752 C1746 1.379 . S
C1752 C1749 1.363 . S
C1752 N1750 1.356 . S
C1753 C1747 1.363 . S
C1753 C1748 1.379 . S
C1753 N1751 1.356 . S
N1754 C1746 1.356 . S
N1754 H1760 0.984 . S
N1754 H1761 0.984 . S
N1755 C1748 1.356 . S
N1755 H1758 0.984 . S
N1755 H1759 0.985 . S
H1756 N1751 0.984 . S
H1757 N1751 0.985 . S
H1758 N1755 0.984 . S
H1759 N1755 0.985 . S
H1760 N1754 0.984 . S
H1761 N1754 0.984 . S
H1762 N1750 0.984 . S
H1763 N1750 0.985 . S
C1764 C1765 1.363 . S
C1764 C1770 1.379 . S
C1764 N1772 1.356 . S
C1765 C1764 1.363 . S
C1765 C1771 1.363 . S
C1766 C1767 1.363 . S
C1766 C1771 1.379 . S
C1766 N1773 1.356 . S
C1767 C1766 1.363 . S
C1767 C1770 1.363 . S
N1768 C1770 1.356 . S
N1768 H1780 0.984 . S
N1768 H1781 0.985 . S
N1769 C1771 1.356 . S
N1769 H1774 0.984 . S
N1769 H1775 0.985 . S
C1770 C1764 1.379 . S
C1770 C1767 1.363 . S
C1770 N1768 1.356 . S
C1771 C1765 1.363 . S
C1771 C1766 1.379 . S
C1771 N1769 1.356 . S
N1772 C1764 1.356 . S
N1772 H1778 0.984 . S
N1772 H1779 0.984 . S
N1773 C1766 1.356 . S
N1773 H1776 0.984 . S
N1773 H1777 0.985 . S
H1774 N1769 0.984 . S
H1775 N1769 0.985 . S
H1776 N1773 0.984 . S
H1777 N1773 0.985 . S
H1778 N1772 0.984 . S
H1779 N1772 0.984 . S
H1780 N1768 0.984 . S
H1781 N1768 0.985 . S
C1782 C1783 1.363 . S
C1782 C1788 1.379 . S
C1782 N1790 1.356 . S
C1783 C1782 1.363 . S
C1783 C1789 1.363 . S
C1784 C1785 1.363 . S
C1784 C1789 1.379 . S
C1784 N1791 1.356 . S
C1785 C1784 1.363 . S
C1785 C1788 1.363 . S
N1786 C1788 1.356 . S
N1786 H1798 0.984 . S
N1786 H1799 0.985 . S
N1787 C1789 1.356 . S
N1787 H1792 0.984 . S
N1787 H1793 0.985 . S
C1788 C1782 1.379 . S
C1788 C1785 1.363 . S
C1788 N1786 1.356 . S
C1789 C1783 1.363 . S
C1789 C1784 1.379 . S
C1789 N1787 1.356 . S
N1790 C1782 1.356 . S
N1790 H1796 0.984 . S
N1790 H1797 0.984 . S
N1791 C1784 1.356 . S
N1791 H1794 0.984 . S
N1791 H1795 0.985 . S
H1792 N1787 0.984 . S
H1793 N1787 0.985 . S
H1794 N1791 0.984 . S
H1795 N1791 0.985 . S
H1796 N1790 0.984 . S
H1797 N1790 0.984 . S
H1798 N1786 0.984 . S
H1799 N1786 0.985 . S
C1800 C1801 1.363 . S
C1800 C1806 1.379 . S
C1800 N1808 1.356 . S
C1801 C1800 1.363 . S
C1801 C1807 1.363 . S
C1802 C1803 1.363 . S
C1802 C1807 1.379 . S
C1802 N1809 1.356 . S
C1803 C1802 1.363 . S
C1803 C1806 1.363 . S
N1804 C1806 1.356 . S
N1804 H1816 0.984 . S
N1804 H1817 0.985 . S
N1805 C1807 1.356 . S
N1805 H1810 0.984 . S
N1805 H1811 0.985 . S
C1806 C1800 1.379 . S
C1806 C1803 1.363 . S
C1806 N1804 1.356 . S
C1807 C1801 1.363 . S
C1807 C1802 1.379 . S
C1807 N1805 1.356 . S
N1808 C1800 1.356 . S
N1808 H1814 0.984 . S
N1808 H1815 0.984 . S
N1809 C1802 1.356 . S
N1809 H1812 0.984 . S
N1809 H1813 0.985 . S
H1810 N1805 0.984 . S
H1811 N1805 0.985 . S
H1812 N1809 0.984 . S
H1813 N1809 0.985 . S
H1814 N1808 0.984 . S
H1815 N1808 0.984 . S
H1816 N1804 0.984 . S
H1817 N1804 0.985 . S
C1818 C1819 1.363 . S
C1818 C1824 1.379 . S
C1818 N1826 1.356 . S
C1819 C1818 1.363 . S
C1819 C1825 1.363 . S
C1820 C1821 1.363 . S
C1820 C1825 1.379 . S
C1820 N1827 1.356 . S
C1821 C1820 1.363 . S
C1821 C1824 1.363 . S
N1822 C1824 1.356 . S
N1822 H1834 0.984 . S
N1822 H1835 0.985 . S
N1823 C1825 1.356 . S
N1823 H1828 0.984 . S
N1823 H1829 0.985 . S
C1824 C1818 1.379 . S
C1824 C1821 1.363 . S
C1824 N1822 1.356 . S
C1825 C1819 1.363 . S
C1825 C1820 1.379 . S
C1825 N1823 1.356 . S
N1826 C1818 1.356 . S
N1826 H1832 0.984 . S
N1826 H1833 0.984 . S
N1827 C1820 1.356 . S
N1827 H1830 0.984 . S
N1827 H1831 0.985 . S
H1828 N1823 0.984 . S
H1829 N1823 0.985 . S
H1830 N1827 0.984 . S
H1831 N1827 0.985 . S
H1832 N1826 0.984 . S
H1833 N1826 0.984 . S
H1834 N1822 0.984 . S
H1835 N1822 0.985 . S
C1836 C1837 1.363 . S
C1836 C1842 1.379 . S
C1836 N1844 1.356 . S
C1837 C1836 1.363 . S
C1837 C1843 1.363 . S
C1838 C1839 1.363 . S
C1838 C1843 1.379 . S
C1838 N1845 1.356 . S
C1839 C1838 1.363 . S
C1839 C1842 1.363 . S
N1840 C1842 1.356 . S
N1840 H1852 0.984 . S
N1840 H1853 0.985 . S
N1841 C1843 1.356 . S
N1841 H1846 0.984 . S
N1841 H1847 0.985 . S
C1842 C1836 1.379 . S
C1842 C1839 1.363 . S
C1842 N1840 1.356 . S
C1843 C1837 1.363 . S
C1843 C1838 1.379 . S
C1843 N1841 1.356 . S
N1844 C1836 1.356 . S
N1844 H1850 0.984 . S
N1844 H1851 0.984 . S
N1845 C1838 1.356 . S
N1845 H1848 0.984 . S
N1845 H1849 0.985 . S
H1846 N1841 0.984 . S
H1847 N1841 0.985 . S
H1848 N1845 0.984 . S
H1849 N1845 0.985 . S
H1850 N1844 0.984 . S
H1851 N1844 0.984 . S
H1852 N1840 0.984 . S
H1853 N1840 0.985 . S
C1854 C1855 1.363 . S
C1854 C1860 1.379 . S
C1854 N1862 1.356 . S
C1855 C1854 1.363 . S
C1855 C1861 1.363 . S
C1856 C1857 1.363 . S
C1856 C1861 1.379 . S
C1856 N1863 1.356 . S
C1857 C1856 1.363 . S
C1857 C1860 1.363 . S
N1858 C1860 1.356 . S
N1858 H1870 0.984 . S
N1858 H1871 0.985 . S
N1859 C1861 1.356 . S
N1859 H1864 0.984 . S
N1859 H1865 0.985 . S
C1860 C1854 1.379 . S
C1860 C1857 1.363 . S
C1860 N1858 1.356 . S
C1861 C1855 1.363 . S
C1861 C1856 1.379 . S
C1861 N1859 1.356 . S
N1862 C1854 1.356 . S
N1862 H1868 0.984 . S
N1862 H1869 0.984 . S
N1863 C1856 1.356 . S
N1863 H1866 0.984 . S
N1863 H1867 0.985 . S
H1864 N1859 0.984 . S
H1865 N1859 0.985 . S
H1866 N1863 0.984 . S
H1867 N1863 0.985 . S
H1868 N1862 0.984 . S
H1869 N1862 0.984 . S
H1870 N1858 0.984 . S
H1871 N1858 0.985 . S
C1872 C1873 1.363 1_455 S
C1872 C1878 1.379 . S
C1872 N1880 1.356 . S
C1873 C1872 1.363 1_655 S
C1873 C1879 1.363 . S
C1874 C1875 1.363 . S
C1874 C1879 1.379 . S
C1874 N1881 1.356 . S
C1875 C1874 1.363 . S
C1875 C1878 1.363 1_655 S
N1876 C1878 1.356 . S
N1876 H1888 0.984 . S
N1876 H1889 0.985 . S
N1877 C1879 1.356 . S
N1877 H1882 0.984 . S
N1877 H1883 0.985 . S
C1878 C1872 1.379 . S
C1878 C1875 1.363 1_455 S
C1878 N1876 1.356 . S
C1879 C1873 1.363 . S
C1879 C1874 1.379 . S
C1879 N1877 1.356 . S
N1880 C1872 1.356 . S
N1880 H1886 0.984 . S
N1880 H1887 0.984 . S
N1881 C1874 1.356 . S
N1881 H1884 0.984 . S
N1881 H1885 0.985 . S
H1882 N1877 0.984 . S
H1883 N1877 0.985 . S
H1884 N1881 0.984 . S
H1885 N1881 0.985 . S
H1886 N1880 0.984 . S
H1887 N1880 0.984 . S
H1888 N1876 0.984 . S
H1889 N1876 0.985 . S
C1890 C1891 1.363 . S
C1890 C1896 1.379 . S
C1890 N1898 1.356 . S
C1891 C1890 1.363 . S
C1891 C1897 1.363 . S
C1892 C1893 1.363 . S
C1892 C1897 1.379 . S
C1892 N1899 1.356 . S
C1893 C1892 1.363 . S
C1893 C1896 1.363 . S
N1894 C1896 1.356 . S
N1894 H1906 0.984 . S
N1894 H1907 0.985 . S
N1895 C1897 1.356 . S
N1895 H1900 0.984 . S
N1895 H1901 0.985 . S
C1896 C1890 1.379 . S
C1896 C1893 1.363 . S
C1896 N1894 1.356 . S
C1897 C1891 1.363 . S
C1897 C1892 1.379 . S
C1897 N1895 1.356 . S
N1898 C1890 1.356 . S
N1898 H1904 0.984 . S
N1898 H1905 0.984 . S
N1899 C1892 1.356 . S
N1899 H1902 0.984 . S
N1899 H1903 0.985 . S
H1900 N1895 0.984 . S
H1901 N1895 0.985 . S
H1902 N1899 0.984 . S
H1903 N1899 0.985 . S
H1904 N1898 0.984 . S
H1905 N1898 0.984 . S
H1906 N1894 0.984 . S
H1907 N1894 0.985 . S
C1908 C1909 1.363 1_565 S
C1908 C1914 1.379 . S
C1908 N1916 1.356 . S
C1909 C1908 1.363 1_545 S
C1909 C1915 1.363 . S
C1910 C1911 1.363 . S
C1910 C1915 1.379 . S
C1910 N1917 1.356 . S
C1911 C1910 1.363 . S
C1911 C1914 1.363 1_545 S
N1912 C1914 1.356 . S
N1912 H1924 0.984 . S
N1912 H1925 0.985 . S
N1913 C1915 1.356 . S
N1913 H1918 0.984 . S
N1913 H1919 0.985 . S
C1914 C1908 1.379 . S
C1914 C1911 1.363 1_565 S
C1914 N1912 1.356 . S
C1915 C1909 1.363 . S
C1915 C1910 1.379 . S
C1915 N1913 1.356 . S
N1916 C1908 1.356 . S
N1916 H1922 0.984 . S
N1916 H1923 0.984 . S
N1917 C1910 1.356 . S
N1917 H1920 0.984 . S
N1917 H1921 0.985 . S
H1918 N1913 0.984 . S
H1919 N1913 0.985 . S
H1920 N1917 0.984 . S
H1921 N1917 0.985 . S
H1922 N1916 0.984 . S
H1923 N1916 0.984 . S
H1924 N1912 0.984 . S
H1925 N1912 0.985 . S
C631 C7 1.520 . S
C633 C458 1.494 1_655 S
C649 C23 1.580 . S
C651 C471 1.558 . S
C669 C500 1.464 1_545 S
C667 C37 1.521 . S
C685 C35 1.510 . S
C687 C513 1.507 . S
C703 C9 1.546 1_455 S
C705 C534 1.527 . S
C721 C21 1.541 . S
C723 C563 1.502 . S
C739 C49 1.520 . S
C741 C542 1.518 . S
C759 C555 1.498 . S
C757 C65 1.557 . S
C777 C521 1.482 . S
C775 C79 1.527 1_565 S
C793 C77 1.506 . S
C795 C492 1.489 1_545 S
C813 C450 1.504 1_655 S
C811 C51 1.537 1_655 S
C829 C63 1.528 . S
C831 C479 1.534 . S
C847 C91 1.575 . S
C849 C584 1.533 . S
C865 C107 1.613 . S
C867 C597 1.591 . S
C885 C626 1.511 . S
C883 C121 1.619 . S
C901 C119 1.561 . S
C903 C261 1.586 . S
C919 C93 1.625 . S
C921 C282 1.602 . S
C937 C105 1.564 . S
C939 C311 1.520 . S
C955 C133 1.532 . S
C957 C290 1.539 . S
C973 C149 1.575 . S
C975 C303 1.514 . S
C993 C269 1.552 . S
C991 C163 1.584 . S
C1011 C618 1.532 . S
C1009 C161 1.566 . S
C1029 C576 1.518 . S
C1027 C135 1.596 . S
C1047 C605 1.572 . S
C1045 C147 1.557 . S
C1063 C175 1.548 . S
C1065 C332 1.505 . S
C1081 C191 1.597 . S
C1083 C345 1.577 . S
C1099 C205 1.611 . S
C1101 C374 1.508 . S
C1117 C203 1.585 . S
C1119 C387 1.614 . S
C1137 C408 1.604 . S
C1135 C177 1.629 . S
C1155 C437 1.536 . S
C1153 C189 1.573 . S
C1173 C416 1.574 . S
C1171 C217 1.562 . S
C1191 C429 1.523 . S
C1189 C233 1.590 . S
C1207 C247 1.588 . S
C1209 C395 1.555 . S
C1227 C366 1.504 . S
C1225 C245 1.540 . S
C1243 C219 1.594 . S
C1245 C324 1.523 . S
C1263 C353 1.558 . S
C1261 C231 1.551 . S
C1281 C264 1.426 . S
C1279 C8 1.524 . S
C1297 C17 1.488 . S
C1299 C285 1.373 . S
C1317 C313 1.411 . S
C1315 C31 1.527 . S
C1335 C334 1.410 . S
C1333 C36 1.527 . S
C1353 C348 1.407 . S
C1351 C3 1.519 . S
C1371 C376 1.366 . S
C1369 C22 1.491 . S
C1387 C50 1.551 . S
C1389 C369 1.376 . S
C1405 C59 1.505 . S
C1407 C327 1.327 . S
C1423 C73 1.536 . S
C1425 C355 1.458 . S
C1441 C78 1.555 . S
C1443 C292 1.477 . S
C1461 C306 1.359 . S
C1459 C45 1.534 . S
C1477 C64 1.515 . S
C1479 C271 1.429 . S
C1497 C390 1.418 . S
C1495 C92 1.530 . S
C1513 C101 1.547 . S
C1515 C411 1.424 . S
C1531 C115 1.560 . S
C1533 C439 1.432 . S
C1551 C460 1.390 . S
C1549 C120 1.481 . S
C1567 C87 1.520 . S
C1569 C474 1.399 . S
C1585 C106 1.470 . S
C1587 C502 1.384 . S
C1603 C134 1.493 . S
C1605 C495 1.363 . S
C1621 C143 1.485 . S
C1623 C453 1.346 . S
C1641 C481 1.452 . S
C1639 C157 1.543 . S
C1657 C162 1.540 . S
C1659 C418 1.451 . S
C1675 C129 1.574 . S
C1677 C432 1.390 . S
C1695 C397 1.470 . S
C1693 C148 1.560 . S
C1713 C516 1.363 1_545 S
C1711 C176 1.491 . S
C1729 C185 1.483 . S
C1731 C537 1.345 1_655 S
C1747 C199 1.527 . S
C1749 C565 1.407 . S
C1767 C586 1.393 . S
C1765 C204 1.515 . S
C1785 C600 1.429 . S
C1783 C171 1.558 . S
C1801 C190 1.541 . S
C1803 C628 1.414 . S
C1819 C218 1.552 . S
C1821 C621 1.371 . S
C1837 C227 1.562 . S
C1839 C579 1.382 . S
C1857 C607 1.473 . S
C1855 C241 1.570 . S
C1875 C544 1.392 1_655 S
C1873 C246 1.482 . S
C1893 C558 1.361 . S
C1891 C213 1.536 . S
C1909 C232 1.475 . S
C1911 C523 1.383 1_545 S
