# Generated by pormake.
# Topology ssc, (4,4)-cn, num edge types: 1
# Building blocks:
#     Node 0, Type 0, BuildingBlock: QUQFOY_clean_sbu_3, # of connection points: 4
#     Node 1, Type 0, BuildingBlock: QUQFOY_clean_sbu_3, # of connection points: 4
#     Node 2, Type 0, BuildingBlock: QUQFOY_clean_sbu_3, # of connection points: 4
#     Node 3, Type 0, BuildingBlock: QUQFOY_clean_sbu_3, # of connection points: 4
#     Node 4, Type 0, BuildingBlock: QUQFOY_clean_sbu_3, # of connection points: 4
#     Node 5, Type 0, BuildingBlock: QUQFOY_clean_sbu_3, # of connection points: 4
#     Node 6, Type 0, BuildingBlock: QUQFOY_clean_sbu_3, # of connection points: 4
#     Node 7, Type 0, BuildingBlock: QUQFOY_clean_sbu_3, # of connection points: 4
#     Node 8, Type 0, BuildingBlock: QUQFOY_clean_sbu_3, # of connection points: 4
#     Node 9, Type 0, BuildingBlock: QUQFOY_clean_sbu_3, # of connection points: 4
#     Node 10, Type 0, BuildingBlock: QUQFOY_clean_sbu_3, # of connection points: 4
#     Node 11, Type 0, BuildingBlock: QUQFOY_clean_sbu_3, # of connection points: 4
#     Node 12, Type 1, BuildingBlock: GIZVER_clean_linker_0, # of connection points: 4
#     Node 13, Type 1, BuildingBlock: GIZVER_clean_linker_0, # of connection points: 4
#     Node 14, Type 1, BuildingBlock: GIZVER_clean_linker_0, # of connection points: 4
#     Node 15, Type 1, BuildingBlock: GIZVER_clean_linker_0, # of connection points: 4
#     Node 16, Type 1, BuildingBlock: GIZVER_clean_linker_0, # of connection points: 4
#     Node 17, Type 1, BuildingBlock: GIZVER_clean_linker_0, # of connection points: 4
#     Node 18, Type 1, BuildingBlock: GIZVER_clean_linker_0, # of connection points: 4
#     Node 19, Type 1, BuildingBlock: GIZVER_clean_linker_0, # of connection points: 4
#     Node 20, Type 1, BuildingBlock: GIZVER_clean_linker_0, # of connection points: 4
#     Node 21, Type 1, BuildingBlock: GIZVER_clean_linker_0, # of connection points: 4
#     Node 22, Type 1, BuildingBlock: GIZVER_clean_linker_0, # of connection points: 4
#     Node 23, Type 1, BuildingBlock: GIZVER_clean_linker_0, # of connection points: 4
#     Edge 24, Type (0, 1), BuildingBlock: KIFKEQ_clean_linker_1, # of connection points: 2
#     Edge 25, Type (0, 1), BuildingBlock: KIFKEQ_clean_linker_1, # of connection points: 2
#     Edge 26, Type (0, 1), BuildingBlock: KIFKEQ_clean_linker_1, # of connection points: 2
#     Edge 27, Type (0, 1), BuildingBlock: KIFKEQ_clean_linker_1, # of connection points: 2
#     Edge 28, Type (0, 1), BuildingBlock: KIFKEQ_clean_linker_1, # of connection points: 2
#     Edge 29, Type (0, 1), BuildingBlock: KIFKEQ_clean_linker_1, # of connection points: 2
#     Edge 30, Type (0, 1), BuildingBlock: KIFKEQ_clean_linker_1, # of connection points: 2
#     Edge 31, Type (0, 1), BuildingBlock: KIFKEQ_clean_linker_1, # of connection points: 2
#     Edge 32, Type (0, 1), BuildingBlock: KIFKEQ_clean_linker_1, # of connection points: 2
#     Edge 33, Type (0, 1), BuildingBlock: KIFKEQ_clean_linker_1, # of connection points: 2
#     Edge 34, Type (0, 1), BuildingBlock: KIFKEQ_clean_linker_1, # of connection points: 2
#     Edge 35, Type (0, 1), BuildingBlock: KIFKEQ_clean_linker_1, # of connection points: 2
#     Edge 36, Type (0, 1), BuildingBlock: KIFKEQ_clean_linker_1, # of connection points: 2
#     Edge 37, Type (0, 1), BuildingBlock: KIFKEQ_clean_linker_1, # of connection points: 2
#     Edge 38, Type (0, 1), BuildingBlock: KIFKEQ_clean_linker_1, # of connection points: 2
#     Edge 39, Type (0, 1), BuildingBlock: KIFKEQ_clean_linker_1, # of connection points: 2
#     Edge 40, Type (0, 1), BuildingBlock: KIFKEQ_clean_linker_1, # of connection points: 2
#     Edge 41, Type (0, 1), BuildingBlock: KIFKEQ_clean_linker_1, # of connection points: 2
#     Edge 42, Type (0, 1), BuildingBlock: KIFKEQ_clean_linker_1, # of connection points: 2
#     Edge 43, Type (0, 1), BuildingBlock: KIFKEQ_clean_linker_1, # of connection points: 2
#     Edge 44, Type (0, 1), BuildingBlock: KIFKEQ_clean_linker_1, # of connection points: 2
#     Edge 45, Type (0, 1), BuildingBlock: KIFKEQ_clean_linker_1, # of connection points: 2
#     Edge 46, Type (0, 1), BuildingBlock: KIFKEQ_clean_linker_1, # of connection points: 2
#     Edge 47, Type (0, 1), BuildingBlock: KIFKEQ_clean_linker_1, # of connection points: 2
#     Edge 48, Type (0, 1), BuildingBlock: KIFKEQ_clean_linker_1, # of connection points: 2
#     Edge 49, Type (0, 1), BuildingBlock: KIFKEQ_clean_linker_1, # of connection points: 2
#     Edge 50, Type (0, 1), BuildingBlock: KIFKEQ_clean_linker_1, # of connection points: 2
#     Edge 51, Type (0, 1), BuildingBlock: KIFKEQ_clean_linker_1, # of connection points: 2
#     Edge 52, Type (0, 1), BuildingBlock: KIFKEQ_clean_linker_1, # of connection points: 2
#     Edge 53, Type (0, 1), BuildingBlock: KIFKEQ_clean_linker_1, # of connection points: 2
#     Edge 54, Type (0, 1), BuildingBlock: KIFKEQ_clean_linker_1, # of connection points: 2
#     Edge 55, Type (0, 1), BuildingBlock: KIFKEQ_clean_linker_1, # of connection points: 2
#     Edge 56, Type (0, 1), BuildingBlock: KIFKEQ_clean_linker_1, # of connection points: 2
#     Edge 57, Type (0, 1), BuildingBlock: KIFKEQ_clean_linker_1, # of connection points: 2
#     Edge 58, Type (0, 1), BuildingBlock: KIFKEQ_clean_linker_1, # of connection points: 2
#     Edge 59, Type (0, 1), BuildingBlock: KIFKEQ_clean_linker_1, # of connection points: 2
#     Edge 60, Type (0, 1), BuildingBlock: KIFKEQ_clean_linker_1, # of connection points: 2
#     Edge 61, Type (0, 1), BuildingBlock: KIFKEQ_clean_linker_1, # of connection points: 2
#     Edge 62, Type (0, 1), BuildingBlock: KIFKEQ_clean_linker_1, # of connection points: 2
#     Edge 63, Type (0, 1), BuildingBlock: KIFKEQ_clean_linker_1, # of connection points: 2
#     Edge 64, Type (0, 1), BuildingBlock: KIFKEQ_clean_linker_1, # of connection points: 2
#     Edge 65, Type (0, 1), BuildingBlock: KIFKEQ_clean_linker_1, # of connection points: 2
#     Edge 66, Type (0, 1), BuildingBlock: KIFKEQ_clean_linker_1, # of connection points: 2
#     Edge 67, Type (0, 1), BuildingBlock: KIFKEQ_clean_linker_1, # of connection points: 2
#     Edge 68, Type (0, 1), BuildingBlock: KIFKEQ_clean_linker_1, # of connection points: 2
#     Edge 69, Type (0, 1), BuildingBlock: KIFKEQ_clean_linker_1, # of connection points: 2
#     Edge 70, Type (0, 1), BuildingBlock: KIFKEQ_clean_linker_1, # of connection points: 2
#     Edge 71, Type (0, 1), BuildingBlock: KIFKEQ_clean_linker_1, # of connection points: 2
# Relax obj value: 0.121
# Max RMSD: 0.300
# Mean RMSD: 0.278
data_MOF--net-ssc--node1-QUQFOY_clean_sbu_3--node2-GIZVER_clean_linker_0--edge1-KIFKEQ_clean_linker_1
_symmetry_space_group_name_H-M    P1
_symmetry_Int_Tables_number       1
_symmetry_cell_setting            triclinic
loop_
_symmetry_equiv_pos_as_xyz
'x, y, z'
_cell_length_a     31.95513
_cell_length_b     32.203152
_cell_length_c     31.990529
_cell_angle_alpha  92.749561
_cell_angle_beta   90.142771
_cell_angle_gamma 91.599466
loop_
_atom_site_label
_atom_site_type_symbol
_atom_site_fract_x
_atom_site_fract_y
_atom_site_fract_z
_atom_type_partial_charge
C0 C 0.19178 0.2574 0.24183 0.0
O1 O 0.1943 0.2182 0.24187 0.0
Cd2 Cd 0.13486 0.17894 0.21262 0.0
O3 O 0.16067 0.27346 0.22448 0.0
Cd4 Cd 0.0972 0.25457 0.18375 0.0
C5 C 0.05212 0.2188 0.26854 0.0
O6 O 0.11842 0.19353 0.14035 0.0
O7 O 0.05207 0.20256 0.14925 0.0
O8 O 0.12082 0.30543 0.13503 0.0
C9 C 0.08096 0.18487 0.12872 0.0
O10 O 0.07698 0.18894 0.26206 0.0
C11 C 0.08608 0.3232 0.13231 0.0
O12 O 0.0533 0.24981 0.24539 0.0
O13 O 0.05655 0.31031 0.15529 0.0
C14 C 0.11557 0.7838 0.30313 0.0
O15 O 0.10283 0.82056 0.30913 0.0
Cd16 Cd 0.05224 0.83666 0.36314 0.0
O17 O 0.1 0.7544 0.32387 0.0
Cd18 Cd 0.04409 0.74826 0.37628 0.0
C19 C 0.96516 0.7883 0.32369 0.0
O20 O 0.06872 0.80353 0.4274 0.0
O21 O 0.00686 0.77686 0.43647 0.0
O22 O 0.07949 0.69105 0.40759 0.0
C23 C 0.03798 0.79766 0.45166 0.0
O24 O 0.98129 0.82326 0.33627 0.0
C25 C 0.04702 0.66747 0.40801 0.0
O26 O 0.98417 0.75499 0.32982 0.0
O27 O 0.01459 0.68012 0.39018 0.0
C28 C 0.68085 0.75952 0.71801 0.0
O29 O 0.68128 0.72021 0.7132 0.0
Cd30 Cd 0.62602 0.68351 0.67338 0.0
O31 O 0.65187 0.77956 0.70155 0.0
Cd32 Cd 0.58959 0.76684 0.65821 0.0
C33 C 0.53909 0.71252 0.72889 0.0
O34 O 0.61212 0.71213 0.6066 0.0
O35 O 0.54584 0.72026 0.61604 0.0
O36 O 0.60759 0.82608 0.61715 0.0
C37 C 0.57478 0.704 0.59443 0.0
O38 O 0.56205 0.68309 0.71538 0.0
C39 C 0.57216 0.84275 0.62072 0.0
O40 O 0.54524 0.74933 0.71704 0.0
O41 O 0.54546 0.82523 0.64386 0.0
C42 C 0.59468 0.30371 0.82651 0.0
O43 O 0.58596 0.34109 0.8364 0.0
Cd44 Cd 0.53613 0.35525 0.89167 0.0
O45 O 0.57546 0.27383 0.84348 0.0
Cd46 Cd 0.51925 0.26469 0.89425 0.0
C47 C 0.44557 0.31905 0.84691 0.0
O48 O 0.55128 0.31182 0.94919 0.0
O49 O 0.48896 0.28731 0.96055 0.0
O50 O 0.5541 0.20168 0.91222 0.0
C51 C 0.52226 0.30483 0.97507 0.0
O52 O 0.46497 0.3508 0.86333 0.0
C53 C 0.52084 0.17939 0.91392 0.0
O54 O 0.46055 0.2831 0.84962 0.0
O55 O 0.48719 0.19588 0.90287 0.0
C56 C 0.08108 0.02068 0.15693 0.0
O57 O 0.08688 0.05792 0.17101 0.0
Cd58 Cd 0.13193 0.0772 0.22823 0.0
O59 O 0.10312 0.99163 0.17027 0.0
Cd60 Cd 0.16238 0.98414 0.21967 0.0
C61 C 0.09254 0.00385 0.29511 0.0
O62 O 0.19913 0.05131 0.21204 0.0
O63 O 0.21063 0.02038 0.26897 0.0
O64 O 0.19728 0.9392 0.16793 0.0
C65 C 0.21967 0.05019 0.24582 0.0
O66 O 0.09795 0.04169 0.28581 0.0
C67 C 0.20716 0.9119 0.1933 0.0
O68 O 0.11062 0.97484 0.27434 0.0
O69 O 0.19527 0.91759 0.23094 0.0
C70 C 0.16134 0.90257 0.496 0.0
O71 O 0.17594 0.88604 0.46251 0.0
Cd72 Cd 0.23009 0.83667 0.46308 0.0
O73 O 0.17349 0.89113 0.53155 0.0
Cd74 Cd 0.2212 0.83957 0.55957 0.0
C75 C 0.30121 0.89725 0.522 0.0
O76 O 0.20627 0.78306 0.50717 0.0
O77 O 0.26166 0.77743 0.54488 0.0
O78 O 0.16474 0.82309 0.60745 0.0
C79 C 0.23501 0.76031 0.51966 0.0
O80 O 0.29088 0.87894 0.48717 0.0
C81 C 0.18833 0.81598 0.63811 0.0
O82 O 0.28005 0.8907 0.55492 0.0
O83 O 0.22718 0.82423 0.63381 0.0
C84 C 0.42875 0.98296 0.65677 0.0
O85 O 0.4228 0.94682 0.67029 0.0
Cd86 Cd 0.36825 0.92605 0.71699 0.0
O87 O 0.40479 0.01265 0.66741 0.0
Cd88 Cd 0.34354 0.02488 0.71395 0.0
C89 C 0.40249 -0.00454 0.79568 0.0
O90 O 0.30655 0.959 0.69676 0.0
O91 O 0.28026 -0.00359 0.74707 0.0
O92 O 0.31972 0.07363 0.66372 0.0
C93 C 0.27814 0.96332 0.72403 0.0
O94 O 0.3951 0.95811 0.78212 0.0
C95 C 0.30995 0.10186 0.69081 0.0
O96 O 0.38985 0.02612 0.77572 0.0
O97 O 0.31717 0.09492 0.72889 0.0
C98 C 0.16454 0.05786 0.02431 0.0
O99 O 0.17582 0.07171 0.06059 0.0
Cd100 Cd 0.22394 0.12871 0.07463 0.0
O101 O 0.17683 0.07592 0.99157 0.0
Cd102 Cd 0.22011 0.13814 0.9715 0.0
C103 C 0.30269 0.08902 0.0108 0.0
O104 O 0.20179 0.18164 0.0317 0.0
O105 O 0.25305 0.20537 -0.0041 0.0
O106 O 0.16722 0.15514 0.92037 0.0
C107 C 0.22846 0.21061 0.02659 0.0
O108 O 0.2878 0.09888 0.04674 0.0
C109 C 0.19296 0.16399 0.89168 0.0
O110 O 0.28379 0.09811 0.97742 0.0
O111 O 0.23135 0.15775 0.89893 0.0
C112 C 0.68141 0.36963 -0.00101 0.0
O113 O 0.69945 0.35168 0.96805 0.0
Cd114 Cd 0.75048 0.30001 0.97627 0.0
O115 O 0.68872 0.35919 0.0362 0.0
Cd116 Cd 0.73085 0.30858 0.07286 0.0
C117 C 0.81741 0.36058 0.04015 0.0
O118 O 0.71747 0.25185 0.02112 0.0
O119 O 0.76597 0.2415 0.06591 0.0
O120 O 0.66926 0.30301 0.11677 0.0
C121 C 0.74218 0.22673 0.03675 0.0
O122 O 0.81057 0.34097 0.00515 0.0
C123 C 0.68909 0.29684 0.15023 0.0
O124 O 0.79222 0.35647 0.0706 0.0
O125 O 0.72881 0.2991 0.1484 0.0
C126 C 0.93938 0.49796 0.14535 0.0
O127 O 0.92843 0.46177 0.15604 0.0
Cd128 Cd 0.87257 0.44782 0.20351 0.0
O129 O 0.91802 0.52941 0.15672 0.0
Cd130 Cd 0.8542 0.54593 0.19828 0.0
C131 C 0.91354 0.51747 0.27922 0.0
O132 O 0.81209 0.4823 0.18175 0.0
O133 O 0.79089 0.52093 0.23386 0.0
O134 O 0.83476 0.59136 0.14333 0.0
C135 C 0.78478 0.48887 0.2098 0.0
O136 O 0.90395 0.48028 0.2666 0.0
C137 C 0.82453 0.62182 0.16754 0.0
O138 O 0.90103 0.54829 0.25944 0.0
O139 O 0.82964 0.6178 0.20655 0.0
C140 C 0.67339 0.58414 0.52115 0.0
O141 O 0.68949 0.5951 0.55645 0.0
Cd142 Cd 0.73822 0.65277 0.56488 0.0
O143 O 0.68076 0.60532 0.48913 0.0
Cd144 Cd 0.71925 0.66916 0.46801 0.0
C145 C 0.80749 0.61814 0.48896 0.0
O146 O 0.70703 0.70986 0.53276 0.0
O147 O 0.75299 0.73556 0.49145 0.0
O148 O 0.65888 0.68417 0.42527 0.0
C149 C 0.7317 0.73984 0.5247 0.0
O150 O 0.79888 0.62535 0.52745 0.0
C151 C 0.67979 0.69423 0.39339 0.0
O152 O 0.78314 0.6296 0.46038 0.0
O153 O 0.71926 0.69092 0.39552 0.0
C154 C 0.6071 0.53919 0.65081 0.0
O155 O 0.62197 0.56952 0.67357 0.0
Cd156 Cd 0.67709 0.56398 0.72321 0.0
O157 O 0.62334 0.50342 0.65124 0.0
Cd158 Cd 0.68235 0.4695 0.6858 0.0
C159 C 0.62863 0.48498 0.77619 0.0
O160 O 0.73112 0.52928 0.68575 0.0
O161 O 0.74843 0.47917 0.72395 0.0
O162 O 0.69789 0.43004 0.62052 0.0
C163 C 0.75834 0.51356 0.70853 0.0
O164 O 0.64209 0.52259 0.77578 0.0
C165 C 0.70512 0.39642 0.63818 0.0
O166 O 0.63708 0.45899 0.74634 0.0
O167 O 0.69901 0.39629 0.67736 0.0
H168 H 0.09059 0.29498 0.53711 0.0
H169 H 0.03042 0.20354 0.45283 0.0
H170 H 0.08595 0.16606 0.56643 0.0
H171 H 0.07091 0.31228 0.46693 0.0
H172 H 0.04896 0.2735 0.43047 0.0
H173 H 0.9741 0.25372 0.50101 0.0
H174 H 0.89256 0.3509 0.47038 0.0
H175 H 0.02288 0.36193 0.44016 0.0
C176 C 0.07949 0.26329 0.53013 0.0
C177 C 0.09032 0.2318 0.55674 0.0
C178 C 0.05641 0.25344 0.49325 0.0
C179 C 0.04536 0.21169 0.4826 0.0
C180 C 0.05459 0.18037 0.50973 0.0
C181 C 0.07617 0.19081 0.54707 0.0
C182 C 0.04688 0.28667 0.46316 0.0
C183 C 0.00374 0.30468 0.46842 0.0
C184 C 0.9697 0.2828 0.48629 0.0
C185 C 0.9294 0.29892 0.48577 0.0
C186 C 0.92325 0.3373 0.46842 0.0
C187 C 0.95688 0.36061 0.45316 0.0
C188 C -0.00309 0.34397 0.45251 0.0
H189 H 0.11439 0.69708 0.85995 0.0
H190 H 0.05945 0.73341 0.97893 0.0
H191 H 0.08662 0.82481 0.88875 0.0
H192 H 0.10505 0.64598 0.91196 0.0
H193 H 0.09616 0.66418 0.96506 0.0
H194 H 0.02854 0.66507 0.86708 0.0
H195 H 0.93043 0.5911 0.91988 0.0
H196 H 0.04442 0.616 0.98916 0.0
C197 C 0.10111 0.72062 0.88092 0.0
C198 C 0.10116 0.76213 0.86935 0.0
C199 C 0.08457 0.70972 0.91994 0.0
C200 C 0.06995 0.74112 0.94798 0.0
C201 C 0.07008 0.78262 0.93644 0.0
C202 C 0.08448 0.79243 0.89676 0.0
C203 C 0.08413 0.66495 0.93244 0.0
C204 C 0.0405 0.64541 0.92978 0.0
C205 C 0.01622 0.6486 0.89333 0.0
C206 C 0.97613 0.63007 0.89041 0.0
C207 C 0.96068 0.60712 0.9233 0.0
C208 C 0.98532 0.60108 0.95859 0.0
C209 C 0.02521 0.62056 0.96193 0.0
H210 H 0.51281 0.65542 0.95935 0.0
H211 H 0.56264 0.76913 0.02048 0.0
H212 H 0.63243 0.65716 0.02044 0.0
H213 H 0.50345 0.75087 0.94305 0.0
H214 H 0.46925 0.71347 0.96496 0.0
H215 H 0.50039 0.82072 0.96867 0.0
H216 H 0.43042 0.85201 0.07921 0.0
H217 H 0.44827 0.72367 0.04278 0.0
C218 C 0.53728 0.67239 0.97708 0.0
C219 C 0.57331 0.65182 0.98814 0.0
C220 C 0.53304 0.71487 0.9882 0.0
C221 C 0.56529 0.73648 0.0114 0.0
C222 C 0.60101 0.71546 0.02316 0.0
C223 C 0.605 0.6735 0.01087 0.0
C224 C 0.49498 0.73645 0.97288 0.0
C225 C 0.47879 0.76863 0.00397 0.0
C226 C 0.48444 0.81112 -0.00337 0.0
C227 C 0.46736 0.84119 0.02405 0.0
C228 C 0.44577 0.82869 0.05948 0.0
C229 C 0.43813 0.78651 0.06627 0.0
C230 C 0.45505 0.75637 0.03856 0.0
H231 H 0.59342 0.23607 0.33296 0.0
H232 H 0.54697 0.26556 0.45698 0.0
H233 H 0.58317 0.36328 0.37662 0.0
H234 H 0.5708 0.18022 0.37449 0.0
H235 H 0.57883 0.19228 0.42936 0.0
H236 H 0.49117 0.22098 0.35658 0.0
H237 H 0.39804 0.15323 0.42394 0.0
H238 H 0.5273 0.14761 0.45938 0.0
C239 C 0.58346 0.25873 0.35663 0.0
C240 C 0.58867 0.30128 0.34975 0.0
C241 C 0.56645 0.24554 0.3946 0.0
C242 C 0.55744 0.27539 0.42672 0.0
C243 C 0.56297 0.31785 0.41996 0.0
C244 C 0.57718 0.33043 0.38108 0.0
C245 C 0.55977 0.19972 0.40169 0.0
C246 C 0.51417 0.18848 0.40939 0.0
C247 C 0.48281 0.20213 0.38264 0.0
C248 C 0.44075 0.1905 0.38869 0.0
C249 C 0.43021 0.16438 0.4211 0.0
C250 C 0.46106 0.14811 0.44629 0.0
C251 C 0.50312 0.16053 0.44049 0.0
H252 H 0.45893 0.99221 0.17795 0.0
H253 H 0.50297 0.05674 0.29198 0.0
H254 H 0.55096 0.09137 0.17294 0.0
H255 H 0.43044 0.00964 0.28259 0.0
H256 H 0.43361 0.96884 0.2427 0.0
H257 H 0.46153 -0.00101 0.34834 0.0
H258 H 0.55744 0.90996 0.36075 0.0
H259 H 0.50487 0.92826 0.23942 0.0
C260 C 0.47909 0.01551 0.19399 0.0
C261 C 0.50532 0.04103 0.17069 0.0
C262 C 0.47887 0.02021 0.23795 0.0
C263 C 0.50385 0.05197 0.25823 0.0
C264 C 0.53048 0.07703 0.23478 0.0
C265 C 0.53138 0.071 0.19122 0.0
C266 C 0.45262 0.99104 0.26316 0.0
C267 C 0.48061 0.96701 0.2906 0.0
C268 C 0.48217 0.97629 0.33402 0.0
C269 C 0.51013 0.95586 0.35905 0.0
C270 C 0.5368 0.9266 0.34082 0.0
C271 C 0.53496 0.91617 0.29787 0.0
C272 C 0.50658 0.93624 0.2727 0.0
H273 H 0.21858 0.42171 0.61741 0.0
H274 H 0.2764 0.52622 0.55774 0.0
H275 H 0.34808 0.4546 0.64023 0.0
H276 H 0.17873 0.4572 0.56801 0.0
H277 H 0.19031 0.51159 0.57716 0.0
H278 H 0.25562 0.44264 0.50567 0.0
H279 H 0.19842 0.48457 0.39421 0.0
H280 H 0.15332 0.52641 0.51447 0.0
C281 C 0.24577 0.44147 0.61171 0.0
C282 C 0.28375 0.43416 0.63173 0.0
C283 C 0.24313 0.47424 0.58414 0.0
C284 C 0.27837 0.50035 0.57798 0.0
C285 C 0.31607 0.49305 0.59807 0.0
C286 C 0.31866 0.45997 0.62459 0.0
C287 C 0.20242 0.48229 0.56253 0.0
C288 C 0.20633 0.48682 0.51571 0.0
C289 C 0.23406 0.46288 0.49097 0.0
C290 C 0.23264 0.46337 0.44703 0.0
C291 C 0.20233 0.48708 0.42793 0.0
C292 C 0.1728 0.50864 0.4521 0.0
C293 C 0.17631 0.50998 0.4958 0.0
H294 H -0.00291 0.96996 0.74337 0.0
H295 H 0.86264 0.97599 0.74995 0.0
H296 H 0.91925 0.86839 0.69345 0.0
H297 H 0.96539 0.03447 0.76398 0.0
H298 H 0.91018 0.03975 0.7583 0.0
H299 H -0.00491 0.02445 0.83189 0.0
H300 H 0.91367 0.02848 0.9383 0.0
H301 H 0.8614 0.01725 0.8145 0.0
C302 C 0.96637 0.95525 0.73886 0.0
C303 C 0.9626 0.91604 0.71791 0.0
C304 C 0.93041 0.9766 0.75162 0.0
C305 C 0.89051 0.95869 0.74271 0.0
C306 C 0.88655 0.91912 0.7228 0.0
C307 C 0.92262 0.89767 0.71155 0.0
C308 C 0.93447 0.01987 0.77136 0.0
C309 C 0.92887 0.019 0.81805 0.0
C310 C 0.96386 0.02214 0.84487 0.0
C311 C 0.95846 0.02486 0.88841 0.0
C312 C 0.91781 0.0232 0.90486 0.0
C313 C 0.88249 0.021 0.87861 0.0
C314 C 0.88836 0.01796 0.83513 0.0
H315 H 0.32589 0.6404 0.07688 0.0
H316 H 0.26351 0.52667 0.03105 0.0
H317 H 0.19155 0.63063 0.07364 0.0
H318 H 0.36649 0.58048 0.06226 0.0
H319 H 0.3394 0.53086 0.05858 0.0
H320 H 0.33783 0.62029 0.98497 0.0
H321 H 0.39612 0.54936 0.8859 0.0
H322 H 0.38072 0.49705 0.0059 0.0
C323 C 0.29734 0.62309 0.06824 0.0
C324 C 0.25843 0.64103 0.07625 0.0
C325 C 0.29945 0.58212 0.05092 0.0
C326 C 0.26217 0.55892 0.04222 0.0
C327 C 0.22323 0.5769 0.04955 0.0
C328 C 0.22176 0.61805 0.06547 0.0
C329 C 0.34138 0.56207 0.04509 0.0
C330 C 0.35384 0.55751 -0.00043 0.0
C331 C 0.35032 0.5911 0.97313 0.0
C332 C 0.36439 0.58754 0.93172 0.0
C333 C 0.38273 0.55071 0.91706 0.0
C334 C 0.38955 0.51822 0.94358 0.0
C335 C 0.37466 0.52159 0.98484 0.0
H336 H 0.70421 0.85935 0.12479 0.0
H337 H 0.76012 0.9648 0.06537 0.0
H338 H 0.83797 0.87186 0.11309 0.0
H339 H 0.65961 0.90351 0.08733 0.0
H340 H 0.6782 0.956 0.09867 0.0
H341 H 0.72678 0.89038 0.0126 0.0
H342 H 0.66927 0.9553 0.91529 0.0
H343 H 0.63024 0.97736 0.04294 0.0
C344 C 0.73163 0.876 0.11373 0.0
C345 C 0.77164 0.86108 0.12149 0.0
C346 C 0.7272 0.91274 0.09209 0.0
C347 C 0.76317 0.93556 0.08041 0.0
C348 C 0.8029 0.91967 0.08613 0.0
C349 C 0.80685 0.88239 0.10622 0.0
C350 C 0.68436 0.92691 0.07983 0.0
C351 C 0.6813 0.93557 0.0337 0.0
C352 C 0.70564 0.9141 0.0035 0.0
C353 C 0.70301 0.9229 0.96122 0.0
C354 C 0.6736 0.95122 0.94846 0.0
C355 C 0.64613 0.96986 0.97746 0.0
C356 C 0.65108 0.96289 0.02024 0.0
H357 H 0.47135 0.46559 0.25534 0.0
H358 H 0.33696 0.45397 0.25085 0.0
H359 H 0.41131 0.35003 0.21329 0.0
H360 H 0.42834 0.52711 0.2545 0.0
H361 H 0.37249 0.52231 0.25286 0.0
H362 H 0.4671 0.51873 0.32082 0.0
H363 H 0.39745 0.544 0.43309 0.0
H364 H 0.33245 0.51861 0.31642 0.0
C365 C 0.44322 0.44635 0.25051 0.0
C366 C 0.44635 0.40501 0.23524 0.0
C367 C 0.40385 0.46405 0.25622 0.0
C368 C 0.36729 0.43986 0.24788 0.0
C369 C 0.36986 0.39836 0.23304 0.0
C370 C 0.4094 0.38097 0.22795 0.0
C371 C 0.40098 0.50971 0.26717 0.0
C372 C 0.3998 0.5168 0.31383 0.0
C373 C 0.4373 0.52087 0.33679 0.0
C374 C 0.43642 0.52956 0.38004 0.0
C375 C 0.39775 0.53402 0.40022 0.0
C376 C 0.36003 0.53113 0.37753 0.0
C377 C 0.36129 0.52099 0.33441 0.0
H378 H 0.80385 0.15818 0.60397 0.0
H379 H 0.74338 0.04791 0.54825 0.0
H380 H 0.66996 0.14915 0.59623 0.0
H381 H 0.84438 0.09857 0.58946 0.0
H382 H 0.81651 0.04945 0.58456 0.0
H383 H 0.83015 0.14205 0.51586 0.0
H384 H 0.88003 0.0675 0.41436 0.0
H385 H 0.84916 0.01144 0.5296 0.0
C386 C 0.77555 0.14148 0.59344 0.0
C387 C 0.73651 0.1593 0.60057 0.0
C388 C 0.77807 0.10127 0.57468 0.0
C389 C 0.74125 0.07916 0.56206 0.0
C390 C 0.7019 0.0966 0.56892 0.0
C391 C 0.70013 0.13679 0.58777 0.0
C392 C 0.81974 0.08063 0.57115 0.0
C393 C 0.83365 0.07626 0.52626 0.0
C394 C 0.8375 0.11166 0.5022 0.0
C395 C 0.85329 0.10831 0.46142 0.0
C396 C 0.86493 0.06937 0.44474 0.0
C397 C 0.86449 0.03454 0.46937 0.0
C398 C 0.84825 0.03794 0.50999 0.0
H399 H 0.99394 0.47963 0.68145 0.0
H400 H 0.04796 0.54669 0.78985 0.0
H401 H 0.06814 0.59089 0.66676 0.0
H402 H 0.97569 0.49498 0.78697 0.0
H403 H 0.98009 0.45385 0.74794 0.0
H404 H 0.0096 0.48694 0.85101 0.0
H405 H 0.10788 0.40049 0.86208 0.0
H406 H 0.05459 0.41942 0.74111 0.0
C407 C 0.01283 0.50524 0.69526 0.0
C408 C 0.03083 0.53457 0.66947 0.0
C409 C 0.01903 0.50921 0.73886 0.0
C410 C 0.04309 0.54325 0.75633 0.0
C411 C 0.06085 0.5727 0.73025 0.0
C412 C 0.05472 0.56794 0.68701 0.0
C413 C -0.00159 0.47817 0.76652 0.0
C414 C 0.03027 0.45743 0.7927 0.0
C415 C 0.03167 0.46596 0.83619 0.0
C416 C 0.06001 0.44573 0.86094 0.0
C417 C 0.0877 0.41768 0.84221 0.0
C418 C 0.08582 0.40748 0.79912 0.0
C419 C 0.05705 0.42766 0.77429 0.0
H420 H 0.14524 0.3615 0.08553 0.0
H421 H 0.0118 0.35354 0.10637 0.0
H422 H 0.13401 0.4022 0.02489 0.0
H423 H 0.00034 0.39537 0.04609 0.0
H424 H -0.00058 0.40588 0.90204 0.0
H425 H 0.00332 0.38432 0.97355 0.0
H426 H 0.114 0.46321 0.99439 0.0
H427 H 0.11146 0.48206 0.92121 0.0
C428 C 0.1135 0.36927 0.07764 0.0
C429 C 0.07939 0.354 0.10044 0.0
C430 C 0.10701 0.39291 0.04293 0.0
C431 C 0.06619 0.40188 0.0302 0.0
C432 C 0.03214 0.38827 0.05436 0.0
C433 C 0.03871 0.36473 0.08925 0.0
C434 C 0.02366 0.41967 0.92248 0.0
C435 C 0.05508 0.44557 0.90655 0.0
C436 C 0.02602 0.40731 0.96352 0.0
C437 C 0.05932 0.42156 0.98976 0.0
C438 C 0.08846 0.45091 0.97479 0.0
C439 C 0.08674 0.4623 0.93321 0.0
H440 H 0.9298 0.72284 0.2767 0.0
H441 H 0.90911 0.85006 0.31901 0.0
H442 H 0.86731 0.72365 0.2323 0.0
H443 H 0.84724 0.85084 0.27498 0.0
H444 H 0.73976 0.85542 0.19986 0.0
H445 H 0.77559 0.82329 0.25694 0.0
H446 H 0.85785 0.76265 0.16775 0.0
H447 H 0.82127 0.79379 0.11085 0.0
C448 C 0.91153 0.75069 0.27713 0.0
C449 C 0.92481 0.78668 0.30076 0.0
C450 C 0.87573 0.75105 0.25182 0.0
C451 C 0.85227 0.78723 0.25018 0.0
C452 C 0.86414 0.82221 0.27597 0.0
C453 C 0.90004 0.82199 0.30081 0.0
C454 C 0.76389 0.83334 0.1923 0.0
C455 C 0.77869 0.82805 0.15115 0.0
C456 C 0.78475 0.81532 0.22504 0.0
C457 C 0.82052 0.7918 0.21691 0.0
C458 C 0.83076 0.78105 0.17516 0.0
C459 C 0.80984 0.79894 0.14249 0.0
H460 H 0.62453 0.67711 0.52889 0.0
H461 H 0.50047 0.66415 0.58078 0.0
H462 H 0.60378 0.62774 0.47076 0.0
H463 H 0.48171 0.61246 0.52592 0.0
H464 H 0.49464 0.58885 0.36098 0.0
H465 H 0.54108 0.62648 0.41154 0.0
H466 H 0.51035 0.53679 0.50328 0.0
H467 H 0.46342 0.49945 0.45304 0.0
C468 C 0.59343 0.66287 0.52853 0.0
C469 C 0.56439 0.6736 0.55988 0.0
C470 C 0.58184 0.63445 0.49567 0.0
C471 C 0.54205 0.61482 0.49528 0.0
C472 C 0.51315 0.62602 0.52639 0.0
C473 C 0.52391 0.65566 0.55777 0.0
C474 C 0.49941 0.57606 0.39128 0.0
C475 C 0.47496 0.54182 0.4036 0.0
C476 C 0.52595 0.59761 0.42015 0.0
C477 C 0.52818 0.58493 0.4614 0.0
C478 C 0.50825 0.54743 0.47177 0.0
C479 C 0.48165 0.52606 0.4431 0.0
H480 H 0.64321 0.23634 0.8224 0.0
H481 H 0.61834 0.34876 0.75941 0.0
H482 H 0.6899 0.21449 0.76644 0.0
H483 H 0.66504 0.32632 0.70239 0.0
H484 H 0.68319 0.22341 0.59135 0.0
H485 H 0.65807 0.26928 0.64801 0.0
H486 H 0.75537 0.22799 0.72891 0.0
H487 H 0.77893 0.18034 0.67311 0.0
C488 C 0.64832 0.25671 0.79679 0.0
C489 C 0.6269 0.294 0.79496 0.0
C490 C 0.6755 0.24444 0.76491 0.0
C491 C 0.68149 0.26892 0.73011 0.0
C492 C 0.66128 0.3071 0.72901 0.0
C493 C 0.63457 0.31985 0.76152 0.0
C494 C 0.69986 0.22493 0.62094 0.0
C495 C 0.73214 0.19729 0.62818 0.0
C496 C 0.68562 0.2514 0.65334 0.0
C497 C 0.70404 0.25129 0.69324 0.0
C498 C 0.74001 0.22795 0.69868 0.0
C499 C 0.75386 0.20102 0.66647 0.0
H500 H 0.97835 0.6186 0.42345 0.0
H501 H 0.10955 0.63625 0.45458 0.0
H502 H 0.96987 0.57214 0.48046 0.0
H503 H 0.1008 0.58996 0.51192 0.0
H504 H 0.96611 0.56494 0.62721 0.0
H505 H 0.96833 0.58505 0.55473 0.0
H506 H 0.08526 0.52234 0.5378 0.0
H507 H 0.08332 0.50338 0.61065 0.0
C508 C 0.00564 0.61166 0.44174 0.0
C509 C 0.04455 0.63147 0.4348 0.0
C510 C 0.00064 0.58506 0.47458 0.0
C511 C 0.03441 0.57739 0.501 0.0
C512 C 0.07409 0.59481 0.49203 0.0
C513 C 0.07913 0.62149 0.45917 0.0
C514 C 0.99121 0.55394 0.60723 0.0
C515 C 0.02444 0.53258 0.624 0.0
C516 C 0.99268 0.56552 0.56575 0.0
C517 C 0.02754 0.55598 0.5406 0.0
C518 C 0.05851 0.53083 0.55648 0.0
C519 C 0.05714 0.51945 0.59797 0.0
H520 H 0.69641 0.84292 0.72411 0.0
H521 H 0.73278 0.72821 0.77673 0.0
H522 H 0.72618 0.88199 0.78352 0.0
H523 H 0.76433 0.76775 0.83638 0.0
H524 H 0.70575 0.83887 0.95332 0.0
H525 H 0.72513 0.7979 0.89145 0.0
H526 H 0.7724 0.90925 0.83498 0.0
H527 H 0.75091 0.95057 0.89697 0.0
C528 C 0.71206 0.82608 0.74786 0.0
C529 C 0.71063 0.78242 0.7467 0.0
C530 C 0.7298 0.84864 0.78193 0.0
C531 C 0.74643 0.828 0.81573 0.0
C532 C 0.75051 0.78454 0.81153 0.0
C533 C 0.73258 0.76186 0.77727 0.0
C534 C 0.72161 0.8544 0.92829 0.0
C535 C 0.72586 0.89788 0.92929 0.0
C536 C 0.73312 0.83083 0.8927 0.0
C537 C 0.74937 0.85033 0.85751 0.0
C538 C 0.75876 0.89336 0.86097 0.0
C539 C 0.74656 0.91705 0.89639 0.0
H540 H 0.58546 0.35019 0.01518 0.0
H541 H 0.47169 0.27933 0.03739 0.0
H542 H 0.59073 0.36931 0.0904 0.0
H543 H 0.47697 0.29802 0.11153 0.0
H544 H 0.47952 0.32731 0.23773 0.0
H545 H 0.51797 0.29568 0.17928 0.0
H546 H 0.54111 0.41691 0.13084 0.0
H547 H 0.50187 0.44828 0.18798 0.0
C548 C 0.56195 0.33842 0.03615 0.0
C549 C 0.52762 0.31423 0.0204 0.0
C550 C 0.56519 0.34901 0.07904 0.0
C551 C 0.53448 0.33501 0.10679 0.0
C552 C 0.50164 0.30871 0.09114 0.0
C553 C 0.49815 0.2986 0.04846 0.0
C554 C 0.49457 0.34738 0.21569 0.0
C555 C 0.48585 0.38996 0.21624 0.0
C556 C 0.51672 0.32925 0.18232 0.0
C557 C 0.531 0.35371 0.14977 0.0
C558 C 0.52993 0.39718 0.15518 0.0
C559 C 0.50733 0.41526 0.18823 0.0
H560 H 0.05596 0.17394 0.33825 0.0
H561 H 0.97668 0.25702 0.27404 0.0
H562 H 0.00096 0.16287 0.38941 0.0
H563 H 0.92111 0.24533 0.32542 0.0
H564 H 0.83356 0.13089 0.38271 0.0
H565 H 0.87984 0.17212 0.33883 0.0
H566 H 0.95743 0.20502 0.44618 0.0
H567 H 0.91055 0.1657 0.49039 0.0
C568 C 0.027 0.19031 0.33543 0.0
C569 C 0.02052 0.21615 0.30203 0.0
C570 C -0.00433 0.1843 0.36495 0.0
C571 C 0.95699 0.20357 0.36145 0.0
C572 C 0.95078 0.23036 0.3288 0.0
C573 C 0.98255 0.23703 0.29957 0.0
C574 C 0.85907 0.14916 0.3973 0.0
C575 C 0.86855 0.14524 0.43982 0.0
C576 C 0.88564 0.17255 0.37223 0.0
C577 C 0.92235 0.19148 0.38932 0.0
C578 C 0.92919 0.19112 0.43259 0.0
C579 C 0.90217 0.16871 0.45784 0.0
H580 H 0.05588 0.05812 0.35052 0.0
H581 H 0.06029 0.92699 0.31472 0.0
H582 H 0.00103 0.04335 0.40059 0.0
H583 H 0.00423 0.9126 0.36501 0.0
H584 H 0.85844 0.98517 0.39774 0.0
H585 H 0.91988 0.95941 0.36053 0.0
H586 H -0.00516 0.98434 0.47151 0.0
H587 H 0.93356 0.00965 0.5089 0.0
C588 C 0.04554 0.02609 0.35359 0.0
C589 C 0.06245 -0.00624 0.32849 0.0
C590 C 0.01431 0.01766 0.38246 0.0
C591 C -0.00095 0.97683 0.38677 0.0
C592 C 0.01614 0.9442 0.36246 0.0
C593 C 0.04805 0.95255 0.33377 0.0
C594 C 0.88737 0.98233 0.41498 0.0
C595 C 0.89152 -3e-05 0.45587 0.0
C596 C 0.92253 0.96765 0.39369 0.0
C597 C 0.96195 0.97073 0.41315 0.0
C598 C 0.96465 0.98179 0.45603 0.0
C599 C 0.92945 -0.00396 0.47746 0.0
H600 H 0.23338 0.77107 0.69154 0.0
H601 H 0.10711 0.8032 0.66118 0.0
H602 H 0.20665 0.71838 0.73725 0.0
H603 H 0.08009 0.74855 0.70421 0.0
H604 H 0.14416 0.58541 0.72434 0.0
H605 H 0.17867 0.65282 0.71949 0.0
H606 H 0.0667 0.71227 0.76494 0.0
H607 H 0.03163 0.64404 0.76733 0.0
C608 C 0.19985 0.7678 0.69569 0.0
C609 C 0.17235 0.79152 0.67296 0.0
C610 C 0.18445 0.737 0.72136 0.0
C611 C 0.14115 0.72832 0.72395 0.0
C612 C 0.11362 0.75427 0.70357 0.0
C613 C 0.12908 0.78557 0.6785 0.0
C614 C 0.12771 0.61282 0.73528 0.0
C615 C 0.08535 0.60963 0.74615 0.0
C616 C 0.14744 0.65177 0.73248 0.0
C617 C 0.12514 0.6884 0.74065 0.0
C618 C 0.08444 0.68481 0.7572 0.0
C619 C 0.06453 0.64568 0.75947 0.0
H620 H 0.45 0.06537 0.81867 0.0
H621 H 0.42019 0.94019 0.85406 0.0
H622 H 0.50676 0.07023 0.87034 0.0
H623 H 0.47684 0.94457 0.90423 0.0
H624 H 0.56629 0.9567 0.00346 0.0
H625 H 0.50283 0.97409 0.96777 0.0
H626 H 0.57511 0.04066 0.8777 0.0
H627 H 0.63928 0.02521 0.91499 0.0
C628 C 0.45479 0.03937 0.83824 0.0
C629 C 0.43073 0.00232 0.83218 0.0
C630 C 0.48748 0.04206 0.86763 0.0
C631 C 0.49612 0.00803 0.89193 0.0
C632 C 0.47049 0.9719 0.88712 0.0
C633 C 0.43814 0.96918 0.85788 0.0
C634 C 0.56875 0.97648 0.97707 0.0
C635 C 0.60793 0.98931 0.96188 0.0
C636 C 0.53222 0.986 0.9563 0.0
C637 C 0.53376 0.00774 0.91933 0.0
C638 C 0.57266 0.02374 0.90607 0.0
C639 C 0.60946 0.01464 0.92723 0.0
H640 H 0.27293 0.28326 0.01945 0.0
H641 H 0.20299 0.21184 0.10793 0.0
H642 H 0.29423 0.33325 0.07583 0.0
H643 H 0.22528 0.2614 0.1643 0.0
H644 H 0.3132 0.4277 0.17892 0.0
H645 H 0.26702 0.38595 0.13168 0.0
H646 H 0.29918 0.2755 0.19459 0.0
H647 H 0.34497 0.31735 0.2423 0.0
C648 C 0.26159 0.27866 0.05082 0.0
C649 C 0.23664 0.24356 0.0594 0.0
C650 C 0.27349 0.3074 0.08302 0.0
C651 C 0.26121 0.30118 0.12447 0.0
C652 C 0.23491 0.26697 0.13271 0.0
C653 C 0.22226 0.23866 0.10039 0.0
C654 C 0.30906 0.39481 0.18384 0.0
C655 C 0.33303 0.37566 0.21399 0.0
C656 C 0.28299 0.37088 0.15648 0.0
C657 C 0.28017 0.32751 0.15907 0.0
C658 C 0.30086 0.30891 0.19185 0.0
C659 C 0.32711 0.3328 0.21909 0.0
H660 H 0.02322 0.07359 0.13025 0.0
H661 H 0.05478 0.94414 0.12423 0.0
H662 H 0.95722 0.05631 0.09514 0.0
H663 H 0.98828 0.92634 0.0905 0.0
H664 H 0.86725 0.89492 0.03609 0.0
H665 H 0.93808 0.92565 0.03688 0.0
H666 H 0.8956 0.02692 0.11849 0.0
H667 H 0.82507 -0.00274 0.11545 0.0
C668 C 0.01675 0.04161 0.12001 0.0
C669 C 0.04466 0.01045 0.12936 0.0
C670 C 0.97855 0.03155 0.1004 0.0
C671 C 0.96704 0.98991 0.0901 0.0
C672 C -0.00386 0.9589 0.09716 0.0
C673 C 0.03441 0.96906 0.11676 0.0
C674 C 0.87308 0.92464 0.05272 0.0
C675 C 0.84118 0.94366 0.07613 0.0
C676 C 0.91361 0.94202 0.05359 0.0
C677 C 0.92299 0.97813 0.07874 0.0
C678 C 0.88985 -0.00076 0.09856 0.0
C679 C 0.84924 0.98225 0.09699 0.0
H680 H 0.29149 0.70452 0.54375 0.0
H681 H 0.18694 0.71756 0.45991 0.0
H682 H 0.30387 0.63605 0.51221 0.0
H683 H 0.19901 0.64817 0.42846 0.0
H684 H 0.30363 0.58229 0.34403 0.0
H685 H 0.25681 0.62735 0.38278 0.0
H686 H 0.28244 0.56373 0.4954 0.0
H687 H 0.32956 0.51793 0.4563 0.0
C688 C 0.27069 0.69243 0.519 0.0
C689 C 0.239 0.71685 0.50355 0.0
C690 C 0.27734 0.65279 0.50131 0.0
C691 C 0.2525 0.63666 0.46764 0.0
C692 C 0.2189 0.65994 0.45409 0.0
C693 C 0.21215 0.6997 0.47196 0.0
C694 C 0.29793 0.57643 0.3766 0.0
C695 C 0.3215 0.54749 0.39743 0.0
C696 C 0.27086 0.6024 0.39894 0.0
C697 C 0.26703 0.59996 0.44249 0.0
C698 C 0.28578 0.567 0.46207 0.0
C699 C 0.31286 0.54094 0.43972 0.0
H700 H 0.43804 0.03198 0.59008 0.0
H701 H 0.50626 0.95603 0.67224 0.0
H702 H 0.50243 0.0497 0.55403 0.0
H703 H 0.57135 0.97746 0.64052 0.0
H704 H 0.6879 0.01396 0.58338 0.0
H705 H 0.62093 0.97927 0.59271 0.0
H706 H 0.55878 0.08984 0.55592 0.0
H707 H 0.62572 0.1222 0.54219 0.0
C708 C 0.46694 0.01882 0.60003 0.0
C709 C 0.46714 0.99198 0.63315 0.0
C710 C 0.50422 0.02951 0.57991 0.0
C711 C 0.543 0.01546 0.594 0.0
C712 C 0.5427 0.98838 0.62742 0.0
C713 C 0.50521 0.97626 0.64616 0.0
C714 C 0.65993 0.03016 0.57551 0.0
C715 C 0.66229 0.07147 0.56332 0.0
C716 C 0.62108 0.01051 0.58183 0.0
C717 C 0.5836 0.032 0.57718 0.0
C718 C 0.58623 0.07171 0.56048 0.0
C719 C 0.62502 0.09081 0.55301 0.0
H720 H 0.11323 0.17955 0.86768 0.0
H721 H 0.24237 0.20213 0.83399 0.0
H722 H 0.09197 0.2337 0.82278 0.0
H723 H 0.22099 0.25629 0.78818 0.0
H724 H 0.16894 0.39281 0.80727 0.0
H725 H 0.19855 0.32437 0.80976 0.0
H726 H 0.08342 0.2688 0.75915 0.0
H727 H 0.05347 0.33769 0.75796 0.0
C728 C 0.13699 0.1951 0.8495 0.0
C729 C 0.17957 0.18724 0.85526 0.0
C730 C 0.12476 0.22611 0.82333 0.0
C731 C 0.15484 0.2501 0.80231 0.0
C732 C 0.19707 0.23901 0.80451 0.0
C733 C 0.20931 0.20779 0.83064 0.0
C734 C 0.15067 0.36611 0.79494 0.0
C735 C 0.10864 0.37043 0.78334 0.0
C736 C 0.16765 0.32667 0.79625 0.0
C737 C 0.14286 0.29078 0.78598 0.0
C738 C 0.10295 0.29572 0.76841 0.0
C739 C 0.08593 0.33527 0.76718 0.0
H740 H 0.3444 0.05914 0.94087 0.0
H741 H 0.34346 0.05661 0.07589 0.0
H742 H 0.39727 0.00577 0.93808 0.0
H743 H 0.39383 0.00234 0.07303 0.0
H744 H 0.42971 0.86663 0.95446 0.0
H745 H 0.39818 0.93375 0.94755 0.0
H746 H 0.46133 0.98004 0.06084 0.0
H747 H 0.4914 0.91222 0.06828 0.0
C748 C 0.35576 0.04759 0.96992 0.0
C749 C 0.33935 0.0619 0.00856 0.0
C750 C 0.38577 0.0167 0.96832 0.0
C751 C 0.39981 -0.00054 0.0053 0.0
C752 C 0.38463 0.01527 0.04388 0.0
C753 C 0.35526 0.04637 0.04551 0.0
C754 C 0.43823 0.89182 0.97681 0.0
C755 C 0.46275 0.88442 0.01198 0.0
C756 C 0.41993 0.93032 0.97306 0.0
C757 C 0.42644 0.9623 0.00411 0.0
C758 C 0.45477 0.95598 0.03687 0.0
C759 C 0.47262 0.91735 0.04085 0.0
H760 H 0.88768 0.36442 0.99224 0.0
H761 H 0.82346 0.4304 0.09256 0.0
H762 H 0.93494 0.42398 0.98509 0.0
H763 H 0.87085 0.4904 0.0853 0.0
H764 H 0.02286 0.52985 0.97903 0.0
H765 H 0.98943 0.47067 0.01221 0.0
H766 H 0.87825 0.54159 0.03346 0.0
H767 H 0.91239 0.60118 0.00227 0.0
C768 C 0.88439 0.39128 0.01357 0.0
C769 C 0.85158 0.39276 0.04271 0.0
C770 C 0.91177 0.42545 0.0097 0.0
C771 C 0.90685 0.46219 0.0346 0.0
C772 C 0.87554 0.46272 0.06551 0.0
C773 C 0.84849 0.4282 0.06985 0.0
C774 C 0.99195 0.53325 0.99238 0.0
C775 C 0.97023 0.57012 0.98831 0.0
C776 C 0.97247 0.49906 0.01049 0.0
C777 C 0.93078 0.50084 0.0244 0.0
C778 C 0.91041 0.53895 0.02333 0.0
C779 C 0.92992 0.57317 0.00541 0.0
H780 H 0.81882 0.64255 0.0864 0.0
H781 H 0.7805 0.68173 0.21113 0.0
H782 H 0.76955 0.68887 0.05709 0.0
H783 H 0.73117 0.72925 0.18172 0.0
H784 H 0.60241 0.71637 0.1073 0.0
H785 H 0.66599 0.71333 0.14846 0.0
H786 H 0.73864 0.75215 0.04262 0.0
H787 H 0.67447 0.75302 0.00096 0.0
C788 C 0.80067 0.66206 0.10764 0.0
C789 C 0.80277 0.65764 0.151 0.0
C790 C 0.77253 0.68916 0.09081 0.0
C791 C 0.74558 0.71249 0.11694 0.0
C792 C 0.75069 0.71106 0.1606 0.0
C793 C 0.77914 0.68399 0.17748 0.0
C794 C 0.63176 0.72647 0.09365 0.0
C795 C 0.63376 0.73452 0.05102 0.0
C796 C 0.66848 0.72464 0.11721 0.0
C797 C 0.70781 0.73092 0.09841 0.0
C798 C 0.70899 0.7457 0.05765 0.0
C799 C 0.67223 0.74691 0.0339 0.0
H800 H 0.62396 0.55787 0.45488 0.0
H801 H 0.66617 0.52156 0.57588 0.0
H802 H 0.58565 0.49237 0.44464 0.0
H803 H 0.6283 0.45497 0.56513 0.0
H804 H 0.61597 0.32678 0.48572 0.0
H805 H 0.63521 0.39317 0.52111 0.0
H806 H 0.52814 0.44876 0.46553 0.0
H807 H 0.51028 0.38247 0.42865 0.0
C808 C 0.62431 0.53629 0.47979 0.0
C809 C 0.64757 0.54534 0.51652 0.0
C810 C 0.60205 0.49864 0.47403 0.0
C811 C 0.60304 0.46862 0.50451 0.0
C812 C 0.62642 0.4776 0.54127 0.0
C813 C 0.64799 0.5158 0.54748 0.0
C814 C 0.5954 0.3527 0.48287 0.0
C815 C 0.5619 0.34984 0.45437 0.0
C816 C 0.60651 0.39091 0.50298 0.0
C817 C 0.58396 0.42662 0.495 0.0
C818 C 0.54685 0.42208 0.47125 0.0
C819 C 0.53615 0.38404 0.45068 0.0
H820 H 0.2224 0.88249 0.11385 0.0
H821 H 0.25223 0.86237 0.24292 0.0
H822 H 0.27374 0.83207 0.0912 0.0
H823 H 0.30374 0.81124 0.22018 0.0
H824 H 0.36388 0.74655 0.04909 0.0
H825 H 0.29945 0.76177 0.08672 0.0
H826 H 0.37181 0.82258 0.18741 0.0
H827 H 0.43594 0.80718 0.14971 0.0
C828 C 0.23946 0.86669 0.1374 0.0
C829 C 0.23383 0.87691 0.1801 0.0
C830 C 0.26857 0.83729 0.12446 0.0
C831 C 0.29309 0.81768 0.15391 0.0
C832 C 0.28567 0.82612 0.19675 0.0
C833 C 0.25621 0.85538 0.20974 0.0
C834 C 0.36606 0.7609 0.08039 0.0
C835 C 0.40472 0.77634 0.09629 0.0
C836 C 0.3291 0.77013 0.10174 0.0
C837 C 0.33041 0.7945 0.13944 0.0
C838 C 0.36953 0.80391 0.15838 0.0
C839 C 0.40643 0.79494 0.13689 0.0
H840 H 0.12578 0.94721 0.56087 0.0
H841 H 0.12892 0.93487 0.42579 0.0
H842 H 0.08505 0.00922 0.55698 0.0
H843 H 0.08817 -0.00318 0.42188 0.0
H844 H 0.08685 0.14153 0.4407 0.0
H845 H 0.1008 0.06791 0.43249 0.0
H846 H 0.02461 0.04481 0.54101 0.0
H847 H 0.01292 0.11933 0.55036 0.0
C848 C 0.11702 0.95723 0.53029 0.0
C849 C 0.1313 0.9365 0.49366 0.0
C850 C 0.09318 0.99271 0.52799 0.0
C851 C 0.08305 0.00837 0.48897 0.0
C852 C 0.09528 0.98601 0.4524 0.0
C853 C 0.11891 0.95041 0.45469 0.0
C854 C 0.07188 0.12045 0.46184 0.0
C855 C 0.04949 0.13595 0.49655 0.0
C856 C 0.07985 0.07807 0.45722 0.0
C857 C 0.06499 0.0504 0.48697 0.0
C858 C 0.03787 0.06544 0.51847 0.0
C859 C 0.03064 0.10796 0.52355 0.0
H860 H 0.78458 0.40497 0.19171 0.0
H861 H 0.71065 0.50223 0.249 0.0
H862 H 0.73376 0.35274 0.21512 0.0
H863 H 0.65925 0.45026 0.27097 0.0
H864 H 0.5617 0.35262 0.29058 0.0
H865 H 0.60638 0.39469 0.2459 0.0
H866 H 0.71452 0.32991 0.28688 0.0
H867 H 0.66965 0.28745 0.33062 0.0
C868 C 0.75694 0.41521 0.20835 0.0
C869 C 0.75161 0.45763 0.21876 0.0
C870 C 0.72786 0.38532 0.22165 0.0
C871 C 0.69225 0.39736 0.24441 0.0
C872 C 0.68599 0.43998 0.25292 0.0
C873 C 0.71556 0.46974 0.24062 0.0
C874 C 0.59479 0.34636 0.28858 0.0
C875 C 0.61232 0.31669 0.3137 0.0
C876 C 0.62041 0.37069 0.26346 0.0
C877 C 0.66404 0.36599 0.26334 0.0
C878 C 0.68102 0.33412 0.28608 0.0
C879 C 0.65535 0.30964 0.31097 0.0
H880 H 0.82977 0.4822 0.73844 0.0
H881 H 0.77298 0.5976 0.70951 0.0
H882 H 0.88938 0.52089 0.77002 0.0
H883 H 0.83259 0.63652 0.74194 0.0
H884 H -0.00206 0.59394 0.81638 0.0
H885 H 0.9503 0.57254 0.75858 0.0
H886 H 0.85117 0.63966 0.82069 0.0
H887 H 0.89899 0.66073 0.87807 0.0
C888 C 0.83044 0.51585 0.73824 0.0
C889 C 0.79664 0.53696 0.72209 0.0
C890 C 0.86473 0.538 0.75589 0.0
C891 C 0.86551 0.5817 0.75838 0.0
C892 C 0.83267 0.60284 0.74033 0.0
C893 C 0.79866 0.5806 0.72187 0.0
C894 C 0.96653 0.60553 0.81639 0.0
C895 C 0.95196 0.62891 0.85115 0.0
C896 C 0.93925 0.59311 0.78371 0.0
C897 C 0.89704 0.60415 0.78546 0.0
C898 C 0.88364 0.63103 0.81836 0.0
C899 C 0.91086 0.64304 0.8512 0.0
H900 H 0.62332 0.88635 0.56984 0.0
H901 H 0.49484 0.87531 0.61058 0.0
H902 H 0.602 0.92898 0.51361 0.0
H903 H 0.47348 0.91941 0.55482 0.0
H904 H 0.45669 0.91567 0.40849 0.0
H905 H 0.46829 0.90198 0.48158 0.0
H906 H 0.57355 0.9896 0.48572 0.0
H907 H 0.5625 0.00169 0.41148 0.0
C908 C 0.59065 0.89409 0.56754 0.0
C909 C 0.56067 0.87683 0.5941 0.0
C910 C 0.57838 0.91888 0.5354 0.0
C911 C 0.53589 0.92716 0.5293 0.0
C912 C 0.50636 0.91285 0.55818 0.0
C913 C 0.51864 0.88785 0.59029 0.0
C914 C 0.48119 0.93318 0.42564 0.0
C915 C 0.5086 0.95979 0.40488 0.0
C916 C 0.48795 0.92539 0.46755 0.0
C917 C 0.52229 0.94425 0.48941 0.0
C918 C 0.54729 0.97406 0.46951 0.0
C919 C 0.54074 0.98143 0.42731 0.0
H920 H 0.39548 0.38617 0.8489 0.0
H921 H 0.4092 0.2649 0.78779 0.0
H922 H 0.34173 0.40181 0.79869 0.0
H923 H 0.35436 0.28015 0.73777 0.0
H924 H 0.24676 0.42864 0.70794 0.0
H925 H 0.2729 0.38899 0.76562 0.0
H926 H 0.35959 0.32823 0.68087 0.0
H927 H 0.33308 0.36742 0.62378 0.0
C928 C 0.38645 0.36256 0.82515 0.0
C929 C 0.40743 0.32482 0.82162 0.0
C930 C 0.35508 0.37124 0.79668 0.0
C931 C 0.34395 0.34236 0.76388 0.0
C932 C 0.36257 0.30323 0.76239 0.0
C933 C 0.39393 0.29448 0.79109 0.0
C934 C 0.27 0.40535 0.70149 0.0
C935 C 0.28819 0.40109 0.6617 0.0
C936 C 0.28529 0.38298 0.7345 0.0
C937 C 0.31891 0.35606 0.72803 0.0
C938 C 0.33359 0.34849 0.68704 0.0
C939 C 0.3185 0.37097 0.65424 0.0
H940 H 0.13236 0.16179 0.06403 0.0
H941 H 0.0054 0.14913 0.10805 0.0
H942 H 0.11274 0.12058 -0.00026 0.0
H943 H 0.98729 0.1053 0.04609 0.0
H944 H 0.97866 0.99206 0.96267 0.0
H945 H 0.01727 0.02889 0.01977 0.0
H946 H 0.05421 0.12516 0.93713 0.0
H947 H 0.01536 0.08859 0.87985 0.0
C948 C 0.10081 0.14919 0.0605 0.0
C949 C 0.07076 0.15768 0.09147 0.0
C950 C 0.08984 0.12535 0.02414 0.0
C951 C 0.04945 0.10763 0.01958 0.0
C952 C 0.01921 0.11708 0.04996 0.0
C953 C 0.02958 0.14231 0.08525 0.0
C954 C -0.00378 0.02033 0.95632 0.0
C955 C 0.99336 0.03791 0.9171 0.0
C956 C 0.01792 0.04152 0.98902 0.0
C957 C 0.03741 0.08034 0.98291 0.0
C958 C 0.03915 0.09534 0.9425 0.0
C959 C 0.01715 0.07424 0.90971 0.0
H960 H 0.16888 0.7196 0.30041 0.0
H961 H 0.1334 0.82608 0.23276 0.0
H962 H 0.21531 0.69851 0.24393 0.0
H963 H 0.17946 0.80444 0.17536 0.0
H964 H 0.30122 0.66311 0.14831 0.0
H965 H 0.27683 0.71046 0.20405 0.0
H966 H 0.17972 0.75085 0.12226 0.0
H967 H 0.20567 0.70532 0.06601 0.0
C968 C 0.17156 0.73887 0.27364 0.0
C969 C 0.14732 0.77429 0.27086 0.0
C970 C 0.19862 0.72708 0.24136 0.0
C971 C 0.20171 0.75009 0.20513 0.0
C972 C 0.1782 0.78623 0.2029 0.0
C973 C 0.15179 0.79861 0.23576 0.0
C974 C 0.27595 0.68354 0.1416 0.0
C975 C 0.25451 0.67959 0.10317 0.0
C976 C 0.26148 0.71021 0.17381 0.0
C977 C 0.22509 0.73299 0.16827 0.0
C978 C 0.20745 0.7334 0.12799 0.0
C979 C 0.22221 0.70709 0.09567 0.0
H980 H 0.45362 0.12735 0.92707 0.0
H981 H 0.58608 0.14358 0.95225 0.0
H982 H 0.44819 0.07726 0.98125 0.0
H983 H 0.58038 0.0953 0.00767 0.0
H984 H 0.56487 0.01701 0.11489 0.0
H985 H 0.56887 0.03543 0.04202 0.0
H986 H 0.44609 0.08841 0.05272 0.0
H987 H 0.44201 0.06826 0.1247 0.0
C988 C 0.48177 0.11948 0.94351 0.0
C989 C 0.52005 0.14028 0.9362 0.0
C990 C 0.4786 0.09093 0.97489 0.0
C991 C 0.51338 0.08319 0.00011 0.0
C992 C 0.55266 0.1004 0.98933 0.0
C993 C 0.55598 0.12842 0.95747 0.0
C994 C 0.53811 0.03084 0.10072 0.0
C995 C 0.5029 0.04077 0.12482 0.0
C996 C 0.5404 0.04174 0.05904 0.0
C997 C 0.5077 0.06323 0.04088 0.0
C998 C 0.4715 0.07091 0.06479 0.0
C999 C 0.46903 0.0595 0.10623 0.0
H1000 H 0.2038 0.34023 0.23367 0.0
H1001 H 0.24967 0.2376 0.30105 0.0
H1002 H 0.23884 0.38888 0.28237 0.0
H1003 H 0.28622 0.28689 0.35011 0.0
H1004 H 0.27548 0.47651 0.37464 0.0
H1005 H 0.29257 0.42373 0.32092 0.0
H1006 H 0.25395 0.328 0.40411 0.0
H1007 H 0.23983 0.38065 0.45834 0.0
C1008 C 0.22237 0.32803 0.25843 0.0
C1009 C 0.2226 0.28518 0.26455 0.0
C1010 C 0.24317 0.35606 0.28623 0.0
C1011 C 0.26461 0.34196 0.32107 0.0
C1012 C 0.26914 0.29881 0.32419 0.0
C1013 C 0.24829 0.27057 0.29607 0.0
C1014 C 0.27295 0.44418 0.38217 0.0
C1015 C 0.25584 0.4328 0.42052 0.0
C1016 C 0.28228 0.41382 0.35121 0.0
C1017 C 0.27305 0.37159 0.3575 0.0
C1018 C 0.26138 0.36011 0.39785 0.0
C1019 C 0.25304 0.39047 0.42913 0.0
H1020 H 0.98028 0.78086 0.51132 0.0
H1021 H 0.09807 0.84575 0.49268 0.0
H1022 H 0.98048 0.80546 0.58429 0.0
H1023 H 0.09806 0.87126 0.56651 0.0
H1024 H 0.98751 0.83542 0.71444 0.0
H1025 H 0.02034 0.80179 0.65335 0.0
H1026 H 0.04831 0.9221 0.60459 0.0
H1027 H 0.01528 0.95559 0.66529 0.0
C1028 C 0.0064 0.80033 0.5229 0.0
C1029 C 0.0389 0.81218 0.49616 0.0
C1030 C 0.00683 0.81393 0.5649 0.0
C1031 C 0.03958 0.83998 0.58111 0.0
C1032 C 0.07258 0.85117 0.55468 0.0
C1033 C 0.07241 0.83699 0.5126 0.0
C1034 C 0.00249 0.85467 0.69163 0.0
C1035 C -0.00215 0.89798 0.69394 0.0
C1036 C 0.02103 0.83545 0.6566 0.0
C1037 C 0.03555 0.85937 0.62374 0.0
C1038 C 0.03712 0.90291 0.62937 0.0
C1039 C 0.01833 0.92214 0.66433 0.0
H1040 H 0.49937 0.76591 0.78426 0.0
H1041 H 0.49927 0.63792 0.73701 0.0
H1042 H 0.4427 0.74846 0.83272 0.0
H1043 H 0.44291 0.62086 0.78456 0.0
H1044 H 0.33313 0.59439 0.85341 0.0
H1045 H 0.36662 0.63577 0.80025 0.0
H1046 H 0.44151 0.7013 0.89586 0.0
H1047 H 0.40791 0.65989 0.94912 0.0
C1048 C 0.48694 0.73425 0.78391 0.0
C1049 C 0.50399 0.70315 0.75721 0.0
C1050 C 0.45452 0.72437 0.81147 0.0
C1051 C 0.43801 0.6835 0.81193 0.0
C1052 C 0.45435 0.65284 0.78432 0.0
C1053 C 0.48709 0.66248 0.75749 0.0
C1054 C 0.35503 0.61926 0.86327 0.0
C1055 C 0.36841 0.62368 0.90513 0.0
C1056 C 0.3745 0.64263 0.83286 0.0
C1057 C 0.40746 0.67081 0.84399 0.0
C1058 C 0.4163 0.67965 0.88658 0.0
C1059 C 0.39686 0.65614 0.91707 0.0
H1060 H 0.57668 0.41559 0.7775 0.0
H1061 H 0.61099 0.52907 0.84852 0.0
H1062 H 0.51836 0.40386 0.82534 0.0
H1063 H 0.55295 0.51736 0.89562 0.0
H1064 H 0.38922 0.4717 0.86983 0.0
H1065 H 0.45219 0.44744 0.83471 0.0
H1066 H 0.522 0.46825 0.9496 0.0
H1067 H 0.45946 0.49469 0.98442 0.0
C1068 C 0.57263 0.43733 0.80397 0.0
C1069 C 0.59853 0.47333 0.80912 0.0
C1070 C 0.5392 0.43057 0.83132 0.0
C1071 C 0.5316 0.4592 0.86478 0.0
C1072 C 0.55874 0.49403 0.87097 0.0
C1073 C 0.59179 0.50099 0.84358 0.0
C1074 C 0.41759 0.46942 0.8881 0.0
C1075 C 0.41972 0.48623 0.9295 0.0
C1076 C 0.45369 0.45542 0.86797 0.0
C1077 C 0.49224 0.45747 0.88919 0.0
C1078 C 0.49279 0.46764 0.9324 0.0
C1079 C 0.4568 0.48215 0.95246 0.0
H1080 H 0.60535 0.29578 0.16559 0.0
H1081 H 0.72307 0.25864 0.21636 0.0
H1082 H 0.56819 0.24858 0.21009 0.0
H1083 H 0.68577 0.21216 0.26232 0.0
H1084 H 0.61471 0.08285 0.24063 0.0
H1085 H 0.6554 0.14744 0.24129 0.0
H1086 H 0.54347 0.21591 0.26946 0.0
H1087 H 0.50283 0.15043 0.26729 0.0
C1088 C 0.6232 0.27867 0.1875 0.0
C1089 C 0.66711 0.27992 0.18654 0.0
C1090 C 0.60183 0.25171 0.21346 0.0
C1091 C 0.62397 0.22541 0.23901 0.0
C1092 C 0.66776 0.23088 0.242 0.0
C1093 C 0.68916 0.25778 0.21586 0.0
C1094 C 0.59935 0.11161 0.24914 0.0
C1095 C 0.55578 0.11196 0.25372 0.0
C1096 C 0.62263 0.1489 0.24954 0.0
C1097 C 0.60261 0.18727 0.25427 0.0
C1098 C 0.55976 0.18704 0.26463 0.0
C1099 C 0.53649 0.14958 0.26417 0.0
H1100 H 0.9616 0.58763 0.30037 0.0
H1101 H 0.93851 0.46042 0.33309 0.0
H1102 H 0.02325 0.5918 0.34606 0.0
H1103 H -0.00025 0.46418 0.37751 0.0
H1104 H 0.09583 0.48233 0.47414 0.0
H1105 H 0.03019 0.49182 0.43898 0.0
H1106 H 0.09351 0.56457 0.34718 0.0
H1107 H 0.16003 0.55669 0.38435 0.0
C1108 C 0.96906 0.56091 0.31801 0.0
C1109 C 0.94516 0.52364 0.31301 0.0
C1110 C 0.0047 0.56314 0.34377 0.0
C1111 C 0.01671 0.52832 0.36539 0.0
C1112 C 0.99136 0.49191 0.36194 0.0
C1113 C 0.9561 0.48965 0.33624 0.0
C1114 C 0.09562 0.50167 0.44737 0.0
C1115 C 0.13285 0.51962 0.43256 0.0
C1116 C 0.05796 0.50638 0.42663 0.0
C1117 C 0.05633 0.52854 0.38999 0.0
C1118 C 0.09347 0.54765 0.37561 0.0
C1119 C 0.13154 0.54303 0.39667 0.0
H1120 H 0.78135 0.80901 0.51508 0.0
H1121 H 0.70243 0.74867 0.60482 0.0
H1122 H 0.80445 0.86035 0.56927 0.0
H1123 H 0.72576 0.80042 0.65886 0.0
H1124 H 0.84786 0.84514 0.73816 0.0
H1125 H 0.79672 0.80818 0.6923 0.0
H1126 H 0.78513 0.91794 0.62108 0.0
H1127 H 0.83636 0.95486 0.66726 0.0
C1128 C 0.76834 0.80718 0.54615 0.0
C1129 C 0.74069 0.77438 0.55581 0.0
C1130 C 0.78124 0.83686 0.57714 0.0
C1131 C 0.76691 0.83419 0.61847 0.0
C1132 C 0.73734 0.8029 0.62745 0.0
C1133 C 0.72412 0.77337 0.59644 0.0
C1134 C 0.8329 0.86182 0.71385 0.0
C1135 C 0.84604 0.90263 0.70598 0.0
C1136 C 0.80367 0.84072 0.68752 0.0
C1137 C 0.78757 0.86 0.65262 0.0
C1138 C 0.79748 0.90224 0.64745 0.0
C1139 C 0.82639 0.92348 0.67411 0.0
H1140 H 0.55791 0.60742 0.65218 0.0
H1141 H 0.5645 0.48114 0.60079 0.0
H1142 H 0.48555 0.60963 0.62864 0.0
H1143 H 0.49366 0.48471 0.57452 0.0
H1144 H 0.35121 0.54908 0.65368 0.0
H1145 H 0.4243 0.57237 0.6545 0.0
H1146 H 0.44011 0.51569 0.53049 0.0
H1147 H 0.3665 0.49243 0.53004 0.0
C1148 C 0.54464 0.58072 0.63442 0.0
C1149 C 0.56721 0.54406 0.62826 0.0
C1150 C 0.5032 0.58214 0.62079 0.0
C1151 C 0.48407 0.54765 0.5992 0.0
C1152 C 0.50774 0.51223 0.59019 0.0
C1153 C 0.54861 0.51022 0.60513 0.0
C1154 C 0.36994 0.54346 0.62589 0.0
C1155 C 0.35379 0.519 0.59192 0.0
C1156 C 0.41179 0.55678 0.62623 0.0
C1157 C 0.43815 0.5453 0.59275 0.0
C1158 C 0.42062 0.52462 0.55684 0.0
C1159 C 0.37855 0.51157 0.5564 0.0
H1160 H 0.79706 0.1684 0.05957 0.0
H1161 H 0.6982 0.18921 0.97125 0.0
H1162 H 0.81313 0.1038 0.02135 0.0
H1163 H 0.71387 0.12396 0.93322 0.0
H1164 H 0.84633 -0.00598 0.95088 0.0
H1165 H 0.79552 0.03285 0.9929 0.0
H1166 H 0.77546 0.11205 0.88987 0.0
H1167 H 0.826 0.07404 0.84853 0.0
C1168 C 0.77813 0.15868 0.03253 0.0
C1169 C 0.74719 0.18443 0.01775 0.0
C1170 C 0.78694 0.12129 0.01087 0.0
C1171 C 0.76498 0.10889 0.97396 0.0
C1172 C 0.73164 0.13295 0.96125 0.0
C1173 C 0.72282 0.17038 0.98295 0.0
C1174 C 0.82987 0.01879 0.93676 0.0
C1175 C 0.84124 0.03181 0.89687 0.0
C1176 C 0.80083 0.04103 0.96084 0.0
C1177 C 0.78251 0.07633 0.94517 0.0
C1178 C 0.78907 0.08513 0.90303 0.0
C1179 C 0.8182 0.06312 0.87912 0.0
H1180 H 0.9688 0.56788 0.10813 0.0
H1181 H 0.0015 0.44236 0.13374 0.0
H1182 H 0.03739 0.57937 0.07712 0.0
H1183 H 0.07023 0.45417 0.1038 0.0
H1184 H 0.20405 0.51146 0.09651 0.0
H1185 H 0.13383 0.488 0.11495 0.0
H1186 H 0.08242 0.56387 0.02061 0.0
H1187 H 0.15292 0.5889 0.00388 0.0
C1188 C 0.99042 0.54255 0.10665 0.0
C1189 C 0.97942 0.50403 0.12296 0.0
C1190 C 0.02976 0.549 0.08859 0.0
C1191 C 0.0592 0.51719 0.08675 0.0
C1192 C 0.04814 0.47893 0.10351 0.0
C1193 C 0.0086 0.47219 0.12078 0.0
C1194 C 0.17776 0.5218 0.07865 0.0
C1195 C 0.18374 0.55194 0.04887 0.0
C1196 C 0.13732 0.50859 0.08935 0.0
C1197 C 0.10211 0.525 0.07009 0.0
C1198 C 0.10862 0.5518 0.03712 0.0
C1199 C 0.14901 0.56547 0.02688 0.0
H1200 H 0.5963 0.70166 0.37944 0.0
H1201 H 0.71747 0.73262 0.32807 0.0
H1202 H 0.5638 0.74922 0.33359 0.0
H1203 H 0.68468 0.77997 0.28122 0.0
H1204 H 0.61943 0.91114 0.29875 0.0
H1205 H 0.6571 0.84696 0.30234 0.0
H1206 H 0.54422 0.77651 0.26744 0.0
H1207 H 0.50643 0.84137 0.26462 0.0
C1208 C 0.61586 0.71766 0.35736 0.0
C1209 C 0.65955 0.71419 0.35815 0.0
C1210 C 0.59714 0.74472 0.33061 0.0
C1211 C 0.62169 0.76902 0.30406 0.0
C1212 C 0.66496 0.76223 0.30177 0.0
C1213 C 0.68373 0.73501 0.32856 0.0
C1214 C 0.6033 0.88202 0.28976 0.0
C1215 C 0.56004 0.881 0.28197 0.0
C1216 C 0.62486 0.84507 0.29178 0.0
C1217 C 0.60339 0.80643 0.28631 0.0
C1218 C 0.56141 0.80577 0.2727 0.0
C1219 C 0.53985 0.84288 0.27059 0.0
H1220 H 0.85919 0.58037 0.54243 0.0
H1221 H 0.83487 0.59276 0.41065 0.0
H1222 H 0.90514 0.52359 0.52575 0.0
H1223 H 0.88276 0.53654 0.39377 0.0
H1224 H 0.90164 0.3916 0.39852 0.0
H1225 H 0.87518 0.462 0.40182 0.0
H1226 H 0.96832 0.49826 0.49576 0.0
H1227 H -0.00542 0.42798 0.49217 0.0
C1228 C 0.86453 0.5718 0.50977 0.0
C1229 C 0.84262 0.59064 0.47793 0.0
C1230 C 0.89117 0.53921 0.50016 0.0
C1231 C 0.89725 0.52512 0.45839 0.0
C1232 C 0.87809 0.5462 0.42629 0.0
C1233 C 0.85091 0.5786 0.43597 0.0
C1234 C 0.91743 0.41524 0.41854 0.0
C1235 C 0.95015 0.40461 0.44498 0.0
C1236 C 0.90231 0.45555 0.42054 0.0
C1237 C 0.91945 0.48582 0.4493 0.0
C1238 C 0.95423 0.47575 0.47345 0.0
C1239 C 0.96966 0.43559 0.47107 0.0
H1240 H 0.31718 0.96091 0.58099 0.0
H1241 H 0.36009 0.90911 0.46214 0.0
H1242 H 0.36327 0.02198 0.57321 0.0
H1243 H 0.40483 0.97002 0.45394 0.0
H1244 H 0.49679 0.07237 0.44908 0.0
H1245 H 0.46526 0.00987 0.47699 0.0
H1246 H 0.36436 0.08148 0.52925 0.0
H1247 H 0.39632 0.14437 0.50207 0.0
C1248 C 0.33714 0.96204 0.55372 0.0
C1249 C 0.33471 0.93018 0.52207 0.0
C1250 C 0.36335 -0.00278 0.54909 0.0
C1251 C 0.38812 0.00096 0.513 0.0
C1252 C 0.3872 0.96793 0.48262 0.0
C1253 C 0.36106 0.93303 0.48714 0.0
C1254 C 0.46873 0.07508 0.46785 0.0
C1255 C 0.44886 0.11328 0.47307 0.0
C1256 C 0.45029 0.03905 0.48326 0.0
C1257 C 0.41182 0.04028 0.5045 0.0
C1258 C 0.394 0.07919 0.51309 0.0
C1259 C 0.41228 0.11527 0.49744 0.0
H1260 H 0.26484 0.15537 0.74105 0.0
H1261 H 0.30291 0.13129 0.6129 0.0
H1262 H 0.21573 0.20671 0.71806 0.0
H1263 H 0.25424 0.18224 0.59012 0.0
H1264 H 0.16734 0.26839 0.5482 0.0
H1265 H 0.22896 0.25371 0.58958 0.0
H1266 H 0.14986 0.19271 0.67863 0.0
H1267 H 0.08841 0.208 0.63757 0.0
C1268 C 0.26361 0.16188 0.70816 0.0
C1269 C 0.28721 0.13883 0.67863 0.0
C1270 C 0.23546 0.19125 0.69506 0.0
C1271 C 0.23089 0.19846 0.6523 0.0
C1272 C 0.25722 0.17791 0.62335 0.0
C1273 C 0.28491 0.14831 0.63634 0.0
C1274 C 0.16295 0.25381 0.57776 0.0
C1275 C 0.12322 0.23857 0.58931 0.0
C1276 C 0.19831 0.24499 0.60124 0.0
C1277 C 0.19441 0.22092 0.63665 0.0
C1278 C 0.15408 0.21111 0.65141 0.0
C1279 C 0.11877 0.21979 0.62786 0.0
H1280 H 0.14807 0.00168 0.08389 0.0
H1281 H 0.12095 0.02722 0.95541 0.0
H1282 H 0.11139 0.93457 0.07473 0.0
H1283 H 0.08384 0.96047 0.9464 0.0
H1284 H 0.01469 0.84506 0.93146 0.0
H1285 H 0.02589 0.91513 0.96294 0.0
H1286 H 0.12617 0.87051 0.03826 0.0
H1287 H 0.11377 0.80065 0.00781 0.0
C1288 C 0.13356 0.99334 0.05391 0.0
C1289 C 0.1379 0.01955 0.02016 0.0
C1290 C 0.11243 0.95486 0.04873 0.0
C1291 C 0.09426 0.94212 0.01002 0.0
C1292 C 0.09676 0.96942 0.97694 0.0
C1293 C 0.11852 0.00756 0.98189 0.0
C1294 C 0.03753 0.85 0.95642 0.0
C1295 C 0.06363 0.8177 0.96703 0.0
C1296 C 0.04445 0.89019 0.97396 0.0
C1297 C 0.0779 0.89874 0.002 0.0
C1298 C 0.1002 0.86521 0.01669 0.0
C1299 C 0.09297 0.82495 -0.00058 0.0
H1300 H 0.7452 0.33204 0.67165 0.0
H1301 H 0.71328 0.38298 0.55373 0.0
H1302 H 0.79252 0.28431 0.6358 0.0
H1303 H 0.76148 0.33655 0.51801 0.0
H1304 H 0.85457 0.26833 0.45498 0.0
H1305 H 0.78898 0.27223 0.49388 0.0
H1306 H 0.85936 0.29832 0.60822 0.0
H1307 H 0.9242 0.29272 0.56942 0.0
C1308 C 0.74737 0.33223 0.63788 0.0
C1309 C 0.72581 0.36155 0.61553 0.0
C1310 C 0.77479 0.30504 0.61735 0.0
C1311 C 0.78148 0.30678 0.57403 0.0
C1312 C 0.75702 0.33373 0.55129 0.0
C1313 C 0.72955 0.36081 0.57183 0.0
C1314 C 0.85575 0.27245 0.48879 0.0
C1315 C 0.89418 0.28089 0.50928 0.0
C1316 C 0.81824 0.27533 0.51104 0.0
C1317 C 0.81873 0.28737 0.55393 0.0
C1318 C 0.85746 0.28928 0.57523 0.0
C1319 C 0.89491 0.28588 0.55302 0.0
H1320 H 0.66399 0.40436 0.92483 0.0
H1321 H 0.6393 0.41662 0.05761 0.0
H1322 H 0.62926 0.46936 0.9151 0.0
H1323 H 0.603 0.48075 0.04741 0.0
H1324 H 0.52505 0.58835 0.01617 0.0
H1325 H 0.54261 0.51467 0.01398 0.0
H1326 H 0.65034 0.54182 0.93751 0.0
H1327 H 0.63301 0.61524 0.94042 0.0
C1328 C 0.65024 0.42032 0.95179 0.0
C1329 C 0.65467 0.4054 0.99208 0.0
C1330 C 0.6301 0.45751 0.9461 0.0
C1331 C 0.61313 0.48004 0.98038 0.0
C1332 C 0.61525 0.46379 0.02027 0.0
C1333 C 0.6362 0.42707 0.02613 0.0
C1334 C 0.5517 0.57812 -0.00208 0.0
C1335 C 0.57781 0.60705 0.97849 0.0
C1336 C 0.56194 0.53619 -0.00306 0.0
C1337 C 0.59797 0.5226 0.97579 0.0
C1338 C 0.62223 0.55128 0.95377 0.0
C1339 C 0.6124 0.59322 0.9554 0.0
H1340 H 0.19975 0.96839 0.75597 0.0
H1341 H 0.29315 0.88037 0.71754 0.0
H1342 H 0.15542 0.91195 0.78082 0.0
H1343 H 0.24993 0.82404 0.7443 0.0
H1344 H 0.0714 0.80611 0.80565 0.0
H1345 H 0.11336 0.85081 0.76146 0.0
H1346 H 0.22613 0.7994 0.80992 0.0
H1347 H 0.18387 0.75401 0.85301 0.0
C1348 C 0.21043 0.93679 0.7523 0.0
C1349 C 0.24962 0.92863 0.73458 0.0
C1350 C 0.18498 0.90435 0.76629 0.0
C1351 C 0.19862 0.86311 0.76382 0.0
C1352 C 0.23791 0.85511 0.74585 0.0
C1353 C 0.26276 0.88741 0.73058 0.0
C1354 C 0.10511 0.80329 0.80544 0.0
C1355 C 0.12448 0.77675 0.8327 0.0
C1356 C 0.1292 0.82937 0.78078 0.0
C1357 C 0.17318 0.8296 0.78304 0.0
C1358 C 0.19238 0.80012 0.80735 0.0
C1359 C 0.16819 0.77378 0.83181 0.0
H1360 H 0.25976 0.10919 0.2001 0.0
H1361 H 0.24046 0.07091 0.32636 0.0
H1362 H 0.30932 0.16421 0.22656 0.0
H1363 H 0.28871 0.1256 0.35248 0.0
H1364 H 0.36375 0.22295 0.40226 0.0
H1365 H 0.30224 0.20455 0.35915 0.0
H1366 H 0.3821 0.15373 0.26203 0.0
H1367 H 0.44337 0.17226 0.30511 0.0
C1368 C 0.26559 0.11298 0.23346 0.0
C1369 C 0.24691 0.08541 0.26117 0.0
C1370 C 0.29365 0.1445 0.24852 0.0
C1371 C 0.30245 0.14945 0.29156 0.0
C1372 C 0.28195 0.12314 0.31923 0.0
C1373 C 0.25478 0.09133 0.30421 0.0
C1374 C 0.36819 0.20994 0.37077 0.0
C1375 C 0.40809 0.19802 0.35729 0.0
C1376 C 0.33304 0.19932 0.34616 0.0
C1377 C 0.33746 0.17664 0.30787 0.0
C1378 C 0.37778 0.17107 0.2915 0.0
C1379 C 0.41297 0.18174 0.31616 0.0
loop_
_geom_bond_atom_site_label_1
_geom_bond_atom_site_label_2
_geom_bond_distance
_geom_bond_site_symmetry_2
_ccdc_geom_bond_type
C0 O1 1.306 . S
C0 O3 1.160 . S
O1 C0 1.306 . S
O1 Cd2 2.228 . S
Cd2 O1 2.228 . S
Cd2 O6 2.273 . S
Cd2 O10 2.277 1_455 S
O3 C0 1.160 . S
O3 Cd4 2.203 1_455 S
Cd4 O3 2.203 1_655 S
Cd4 O6 2.411 1_655 S
Cd4 O7 2.333 . S
Cd4 O8 2.352 1_655 S
Cd4 O12 2.277 . S
Cd4 O13 2.356 . S
C5 O10 1.209 . S
C5 O12 1.226 . S
O6 Cd2 2.273 . S
O6 Cd4 2.411 1_455 S
O6 C9 1.334 . S
O7 Cd4 2.333 . S
O7 C9 1.198 1_655 S
O8 Cd4 2.352 1_455 S
O8 C11 1.258 1_455 S
C9 O6 1.334 . S
C9 O7 1.198 1_455 S
O10 Cd2 2.277 1_655 S
O10 C5 1.209 . S
C11 O8 1.258 1_655 S
C11 O13 1.282 . S
O12 Cd4 2.277 . S
O12 C5 1.226 . S
O13 Cd4 2.356 . S
O13 C11 1.282 . S
C14 O15 1.306 . S
C14 O17 1.160 . S
O15 C14 1.306 . S
O15 Cd16 2.228 . S
Cd16 O15 2.228 . S
Cd16 O20 2.273 . S
Cd16 O24 2.277 1_455 S
O17 C14 1.160 . S
O17 Cd18 2.203 1_455 S
Cd18 O17 2.203 1_655 S
Cd18 O20 2.411 1_655 S
Cd18 O21 2.333 . S
Cd18 O22 2.352 1_655 S
Cd18 O26 2.277 . S
Cd18 O27 2.356 . S
C19 O24 1.209 . S
C19 O26 1.226 . S
O20 Cd16 2.273 . S
O20 Cd18 2.411 1_455 S
O20 C23 1.320 . S
O21 Cd18 2.333 . S
O21 C23 1.214 1_655 S
O22 Cd18 2.352 1_455 S
O22 C25 1.258 1_455 S
C23 O20 1.320 . S
C23 O21 1.214 1_455 S
O24 Cd16 2.277 1_655 S
O24 C19 1.209 . S
C25 O22 1.258 1_655 S
C25 O27 1.282 . S
O26 Cd18 2.277 . S
O26 C19 1.226 . S
O27 Cd18 2.356 . S
O27 C25 1.282 . S
C28 O29 1.306 . S
C28 O31 1.160 . S
O29 C28 1.306 . S
O29 Cd30 2.228 . S
Cd30 O29 2.228 . S
Cd30 O34 2.273 . S
Cd30 O38 2.277 . S
O31 C28 1.160 . S
O31 Cd32 2.203 . S
Cd32 O31 2.203 . S
Cd32 O34 2.411 . S
Cd32 O35 2.333 . S
Cd32 O36 2.352 . S
Cd32 O40 2.277 . S
Cd32 O41 2.356 . S
C33 O38 1.209 . S
C33 O40 1.226 . S
O34 Cd30 2.273 . S
O34 Cd32 2.411 . S
O34 C37 1.320 . S
O35 Cd32 2.333 . S
O35 C37 1.214 . S
O36 Cd32 2.352 . S
O36 C39 1.258 . S
C37 O34 1.320 . S
C37 O35 1.214 . S
O38 Cd30 2.277 . S
O38 C33 1.209 . S
C39 O36 1.258 . S
C39 O41 1.282 . S
O40 Cd32 2.277 . S
O40 C33 1.226 . S
O41 Cd32 2.356 . S
O41 C39 1.282 . S
C42 O43 1.306 . S
C42 O45 1.160 . S
O43 C42 1.306 . S
O43 Cd44 2.228 . S
Cd44 O43 2.228 . S
Cd44 O48 2.273 . S
Cd44 O52 2.277 . S
O45 C42 1.160 . S
O45 Cd46 2.203 . S
Cd46 O45 2.203 . S
Cd46 O48 2.411 . S
Cd46 O49 2.333 . S
Cd46 O50 2.352 . S
Cd46 O54 2.277 . S
Cd46 O55 2.356 . S
C47 O52 1.209 . S
C47 O54 1.226 . S
O48 Cd44 2.273 . S
O48 Cd46 2.411 . S
O48 C51 1.320 . S
O49 Cd46 2.333 . S
O49 C51 1.214 . S
O50 Cd46 2.352 . S
O50 C53 1.258 . S
C51 O48 1.320 . S
C51 O49 1.214 . S
O52 Cd44 2.277 . S
O52 C47 1.209 . S
C53 O50 1.258 . S
C53 O55 1.282 . S
O54 Cd46 2.277 . S
O54 C47 1.226 . S
O55 Cd46 2.356 . S
O55 C53 1.282 . S
C56 O57 1.306 . S
C56 O59 1.160 1_545 S
O57 C56 1.306 . S
O57 Cd58 2.228 . S
Cd58 O57 2.228 . S
Cd58 O62 2.273 . S
Cd58 O66 2.277 . S
O59 C56 1.160 1_565 S
O59 Cd60 2.203 . S
Cd60 O59 2.203 . S
Cd60 O62 2.411 1_565 S
Cd60 O63 2.333 1_565 S
Cd60 O64 2.352 . S
Cd60 O68 2.277 . S
Cd60 O69 2.356 . S
C61 O66 1.209 . S
C61 O68 1.226 1_545 S
O62 Cd58 2.273 . S
O62 Cd60 2.411 1_545 S
O62 C65 1.320 . S
O63 Cd60 2.333 1_545 S
O63 C65 1.214 . S
O64 Cd60 2.352 . S
O64 C67 1.258 . S
C65 O62 1.320 . S
C65 O63 1.214 . S
O66 Cd58 2.277 . S
O66 C61 1.209 . S
C67 O64 1.258 . S
C67 O69 1.282 . S
O68 Cd60 2.277 . S
O68 C61 1.226 1_565 S
O69 Cd60 2.356 . S
O69 C67 1.282 . S
C70 O71 1.306 . S
C70 O73 1.160 . S
O71 C70 1.306 . S
O71 Cd72 2.228 . S
Cd72 O71 2.228 . S
Cd72 O76 2.273 . S
Cd72 O80 2.277 . S
O73 C70 1.160 . S
O73 Cd74 2.203 . S
Cd74 O73 2.203 . S
Cd74 O76 2.411 . S
Cd74 O77 2.333 . S
Cd74 O78 2.352 . S
Cd74 O82 2.277 . S
Cd74 O83 2.356 . S
C75 O80 1.209 . S
C75 O82 1.226 . S
O76 Cd72 2.273 . S
O76 Cd74 2.411 . S
O76 C79 1.320 . S
O77 Cd74 2.333 . S
O77 C79 1.214 . S
O78 Cd74 2.352 . S
O78 C81 1.258 . S
C79 O76 1.320 . S
C79 O77 1.214 . S
O80 Cd72 2.277 . S
O80 C75 1.209 . S
C81 O78 1.258 . S
C81 O83 1.282 . S
O82 Cd74 2.277 . S
O82 C75 1.226 . S
O83 Cd74 2.356 . S
O83 C81 1.282 . S
C84 O85 1.306 . S
C84 O87 1.160 1_565 S
O85 C84 1.306 . S
O85 Cd86 2.228 . S
Cd86 O85 2.228 . S
Cd86 O90 2.273 . S
Cd86 O94 2.277 . S
O87 C84 1.160 1_545 S
O87 Cd88 2.203 . S
Cd88 O87 2.203 . S
Cd88 O90 2.411 1_545 S
Cd88 O91 2.333 1_545 S
Cd88 O92 2.352 . S
Cd88 O96 2.277 . S
Cd88 O97 2.356 . S
C89 O94 1.209 1_545 S
C89 O96 1.226 . S
O90 Cd86 2.273 . S
O90 Cd88 2.411 1_565 S
O90 C93 1.320 . S
O91 Cd88 2.333 1_565 S
O91 C93 1.214 . S
O92 Cd88 2.352 . S
O92 C95 1.258 . S
C93 O90 1.320 . S
C93 O91 1.214 . S
O94 Cd86 2.277 . S
O94 C89 1.209 1_565 S
C95 O92 1.258 . S
C95 O97 1.282 . S
O96 Cd88 2.277 . S
O96 C89 1.226 . S
O97 Cd88 2.356 . S
O97 C95 1.282 . S
C98 O99 1.306 . S
C98 O101 1.160 1_554 S
O99 C98 1.306 . S
O99 Cd100 2.228 . S
Cd100 O99 2.228 . S
Cd100 O104 2.273 . S
Cd100 O108 2.277 . S
O101 C98 1.160 1_556 S
O101 Cd102 2.203 . S
Cd102 O101 2.203 . S
Cd102 O104 2.411 1_556 S
Cd102 O105 2.333 1_556 S
Cd102 O106 2.352 . S
Cd102 O110 2.277 . S
Cd102 O111 2.356 . S
C103 O108 1.209 1_556 S
C103 O110 1.226 . S
O104 Cd100 2.273 . S
O104 Cd102 2.411 1_554 S
O104 C107 1.320 . S
O105 Cd102 2.333 1_554 S
O105 C107 1.214 . S
O106 Cd102 2.352 . S
O106 C109 1.258 . S
C107 O104 1.320 . S
C107 O105 1.214 . S
O108 Cd100 2.277 . S
O108 C103 1.209 1_554 S
C109 O106 1.258 . S
C109 O111 1.282 . S
O110 Cd102 2.277 . S
O110 C103 1.226 . S
O111 Cd102 2.356 . S
O111 C109 1.282 . S
C112 O113 1.306 1_554 S
C112 O115 1.160 . S
O113 C112 1.306 1_556 S
O113 Cd114 2.228 . S
Cd114 O113 2.228 . S
Cd114 O118 2.273 . S
Cd114 O122 2.277 . S
O115 C112 1.160 . S
O115 Cd116 2.203 . S
Cd116 O115 2.203 . S
Cd116 O118 2.411 1_554 S
Cd116 O119 2.333 1_554 S
Cd116 O120 2.352 . S
Cd116 O124 2.277 . S
Cd116 O125 2.356 . S
C117 O122 1.209 1_554 S
C117 O124 1.226 . S
O118 Cd114 2.273 . S
O118 Cd116 2.411 1_556 S
O118 C121 1.320 . S
O119 Cd116 2.333 1_556 S
O119 C121 1.214 . S
O120 Cd116 2.352 . S
O120 C123 1.258 . S
C121 O118 1.320 . S
C121 O119 1.214 . S
O122 Cd114 2.277 . S
O122 C117 1.209 1_556 S
C123 O120 1.258 . S
C123 O125 1.282 . S
O124 Cd116 2.277 . S
O124 C117 1.226 . S
O125 Cd116 2.356 . S
O125 C123 1.282 . S
C126 O127 1.306 . S
C126 O129 1.160 . S
O127 C126 1.306 . S
O127 Cd128 2.228 . S
Cd128 O127 2.228 . S
Cd128 O132 2.273 . S
Cd128 O136 2.277 . S
O129 C126 1.160 . S
O129 Cd130 2.203 . S
Cd130 O129 2.203 . S
Cd130 O132 2.411 . S
Cd130 O133 2.333 . S
Cd130 O134 2.352 . S
Cd130 O138 2.277 . S
Cd130 O139 2.356 . S
C131 O136 1.209 . S
C131 O138 1.226 . S
O132 Cd128 2.273 . S
O132 Cd130 2.411 . S
O132 C135 1.320 . S
O133 Cd130 2.333 . S
O133 C135 1.214 . S
O134 Cd130 2.352 . S
O134 C137 1.258 . S
C135 O132 1.320 . S
C135 O133 1.214 . S
O136 Cd128 2.277 . S
O136 C131 1.209 . S
C137 O134 1.258 . S
C137 O139 1.282 . S
O138 Cd130 2.277 . S
O138 C131 1.226 . S
O139 Cd130 2.356 . S
O139 C137 1.282 . S
C140 O141 1.306 . S
C140 O143 1.160 . S
O141 C140 1.306 . S
O141 Cd142 2.228 . S
Cd142 O141 2.228 . S
Cd142 O146 2.273 . S
Cd142 O150 2.277 . S
O143 C140 1.160 . S
O143 Cd144 2.203 . S
Cd144 O143 2.203 . S
Cd144 O146 2.411 . S
Cd144 O147 2.333 . S
Cd144 O148 2.352 . S
Cd144 O152 2.277 . S
Cd144 O153 2.356 . S
C145 O150 1.209 . S
C145 O152 1.226 . S
O146 Cd142 2.273 . S
O146 Cd144 2.411 . S
O146 C149 1.320 . S
O147 Cd144 2.333 . S
O147 C149 1.214 . S
O148 Cd144 2.352 . S
O148 C151 1.258 . S
C149 O146 1.320 . S
C149 O147 1.214 . S
O150 Cd142 2.277 . S
O150 C145 1.209 . S
C151 O148 1.258 . S
C151 O153 1.282 . S
O152 Cd144 2.277 . S
O152 C145 1.226 . S
O153 Cd144 2.356 . S
O153 C151 1.282 . S
C154 O155 1.306 . S
C154 O157 1.160 . S
O155 C154 1.306 . S
O155 Cd156 2.228 . S
Cd156 O155 2.228 . S
Cd156 O160 2.273 . S
Cd156 O164 2.277 . S
O157 C154 1.160 . S
O157 Cd158 2.203 . S
Cd158 O157 2.203 . S
Cd158 O160 2.411 . S
Cd158 O161 2.333 . S
Cd158 O162 2.352 . S
Cd158 O166 2.277 . S
Cd158 O167 2.356 . S
C159 O164 1.209 . S
C159 O166 1.226 . S
O160 Cd156 2.273 . S
O160 Cd158 2.411 . S
O160 C163 1.320 . S
O161 Cd158 2.333 . S
O161 C163 1.214 . S
O162 Cd158 2.352 . S
O162 C165 1.258 . S
C163 O160 1.320 . S
C163 O161 1.214 . S
O164 Cd156 2.277 . S
O164 C159 1.209 . S
C165 O162 1.258 . S
C165 O167 1.282 . S
O166 Cd158 2.277 . S
O166 C159 1.226 . S
O167 Cd158 2.356 . S
O167 C165 1.282 . S
H168 C176 0.930 . S
H169 C179 0.930 . S
H170 C181 0.930 . S
H171 C182 0.970 . S
H172 C182 0.970 . S
H173 C184 0.930 1_455 S
H174 C186 0.930 . S
H175 C188 0.941 . S
C176 H168 0.930 . S
C176 C177 1.382 . S
C176 C178 1.426 . S
C177 C176 1.382 . S
C177 C181 1.389 . S
C178 C176 1.426 . S
C178 C179 1.375 . S
C178 C182 1.532 . S
C179 H169 0.930 . S
C179 C178 1.375 . S
C179 C180 1.416 . S
C180 C179 1.416 . S
C180 C181 1.371 . S
C181 H170 0.930 . S
C181 C177 1.389 . S
C181 C180 1.371 . S
C182 H171 0.970 . S
C182 H172 0.970 . S
C182 C178 1.532 . S
C182 C183 1.499 . S
C183 C182 1.499 . S
C183 C184 1.370 1_455 S
C183 C188 1.425 . S
C184 H173 0.930 1_655 S
C184 C183 1.370 1_655 S
C184 C185 1.407 . S
C185 C184 1.407 . S
C185 C186 1.365 . S
C186 H174 0.930 . S
C186 C185 1.365 . S
C186 C187 1.393 . S
C187 C186 1.393 . S
C187 C188 1.367 1_655 S
C188 H175 0.941 . S
C188 C183 1.425 . S
C188 C187 1.367 1_455 S
H189 C197 0.930 . S
H190 C200 0.930 1_554 S
H191 C202 0.930 . S
H192 C203 0.970 . S
H193 C203 0.970 . S
H194 C205 0.930 1_455 S
H195 C207 0.930 . S
H196 C209 0.930 1_554 S
C197 H189 0.930 . S
C197 C198 1.382 . S
C197 C199 1.426 . S
C198 C197 1.382 . S
C198 C202 1.389 . S
C199 C197 1.426 . S
C199 C200 1.375 . S
C199 C203 1.532 . S
C200 H190 0.930 1_556 S
C200 C199 1.375 . S
C200 C201 1.416 . S
C201 C200 1.416 . S
C201 C202 1.371 . S
C202 H191 0.930 . S
C202 C198 1.389 . S
C202 C201 1.371 . S
C203 H192 0.970 . S
C203 H193 0.970 . S
C203 C199 1.532 . S
C203 C204 1.499 . S
C204 C203 1.499 . S
C204 C205 1.370 1_455 S
C204 C209 1.415 . S
C205 H194 0.930 1_655 S
C205 C204 1.370 1_655 S
C205 C206 1.407 . S
C206 C205 1.407 . S
C206 C207 1.365 . S
C207 H195 0.930 . S
C207 C206 1.365 . S
C207 C208 1.393 . S
C208 C207 1.393 . S
C208 C209 1.387 1_655 S
C209 H196 0.930 1_556 S
C209 C204 1.415 . S
C209 C208 1.387 1_455 S
H210 C218 0.930 1_556 S
H211 C221 0.930 . S
H212 C223 0.930 . S
H213 C224 0.970 . S
H214 C224 0.970 . S
H215 C226 0.930 1_556 S
H216 C228 0.930 . S
H217 C230 0.930 . S
C218 H210 0.930 1_554 S
C218 C219 1.382 . S
C218 C220 1.426 . S
C219 C218 1.382 . S
C219 C223 1.389 . S
C220 C218 1.426 . S
C220 C221 1.375 . S
C220 C224 1.532 . S
C221 H211 0.930 . S
C221 C220 1.375 . S
C221 C222 1.416 . S
C222 C221 1.416 . S
C222 C223 1.371 . S
C223 H212 0.930 . S
C223 C219 1.389 . S
C223 C222 1.371 . S
C224 H213 0.970 . S
C224 H214 0.970 . S
C224 C220 1.532 . S
C224 C225 1.499 . S
C225 C224 1.499 . S
C225 C226 1.370 . S
C225 C230 1.415 . S
C226 H215 0.930 1_554 S
C226 C225 1.370 . S
C226 C227 1.407 . S
C227 C226 1.407 . S
C227 C228 1.365 . S
C228 H216 0.930 . S
C228 C227 1.365 . S
C228 C229 1.393 . S
C229 C228 1.393 . S
C229 C230 1.387 . S
C230 H217 0.930 . S
C230 C225 1.415 . S
C230 C229 1.387 . S
H231 C239 0.930 . S
H232 C242 0.930 . S
H233 C244 0.930 . S
H234 C245 0.970 . S
H235 C245 0.970 . S
H236 C247 0.930 . S
H237 C249 0.930 . S
H238 C251 0.930 . S
C239 H231 0.930 . S
C239 C240 1.382 . S
C239 C241 1.426 . S
C240 C239 1.382 . S
C240 C244 1.389 . S
C241 C239 1.426 . S
C241 C242 1.375 . S
C241 C245 1.532 . S
C242 H232 0.930 . S
C242 C241 1.375 . S
C242 C243 1.416 . S
C243 C242 1.416 . S
C243 C244 1.371 . S
C244 H233 0.930 . S
C244 C240 1.389 . S
C244 C243 1.371 . S
C245 H234 0.970 . S
C245 H235 0.970 . S
C245 C241 1.532 . S
C245 C246 1.499 . S
C246 C245 1.499 . S
C246 C247 1.370 . S
C246 C251 1.415 . S
C247 H236 0.930 . S
C247 C246 1.370 . S
C247 C248 1.407 . S
C248 C247 1.407 . S
C248 C249 1.365 . S
C249 H237 0.930 . S
C249 C248 1.365 . S
C249 C250 1.393 . S
C250 C249 1.393 . S
C250 C251 1.387 . S
C251 H238 0.930 . S
C251 C246 1.415 . S
C251 C250 1.387 . S
H252 C260 0.930 . S
H253 C263 0.930 . S
H254 C265 0.930 . S
H255 C266 0.970 . S
H256 C266 0.970 . S
H257 C268 0.930 . S
H258 C270 0.930 . S
H259 C272 0.930 . S
C260 H252 0.930 . S
C260 C261 1.382 . S
C260 C262 1.426 1_545 S
C261 C260 1.382 . S
C261 C265 1.389 . S
C262 C260 1.426 1_565 S
C262 C263 1.376 1_565 S
C262 C266 1.531 . S
C263 H253 0.930 . S
C263 C262 1.376 1_545 S
C263 C264 1.416 . S
C264 C263 1.416 . S
C264 C265 1.371 . S
C265 H254 0.930 . S
C265 C261 1.389 . S
C265 C264 1.371 . S
C266 H255 0.970 . S
C266 H256 0.970 . S
C266 C262 1.531 . S
C266 C267 1.499 . S
C267 C266 1.499 . S
C267 C268 1.370 . S
C267 C272 1.415 . S
C268 H257 0.930 . S
C268 C267 1.370 . S
C268 C269 1.407 . S
C269 C268 1.407 . S
C269 C270 1.365 . S
C270 H258 0.930 . S
C270 C269 1.365 . S
C270 C271 1.393 . S
C271 C270 1.393 . S
C271 C272 1.387 . S
C272 H259 0.930 . S
C272 C267 1.415 . S
C272 C271 1.387 . S
H273 C281 0.930 . S
H274 C284 0.930 . S
H275 C286 0.930 . S
H276 C287 0.970 . S
H277 C287 0.970 . S
H278 C289 0.930 . S
H279 C291 0.930 . S
H280 C293 0.930 . S
C281 H273 0.930 . S
C281 C282 1.382 . S
C281 C283 1.426 . S
C282 C281 1.382 . S
C282 C286 1.389 . S
C283 C281 1.426 . S
C283 C284 1.375 . S
C283 C287 1.532 . S
C284 H274 0.930 . S
C284 C283 1.375 . S
C284 C285 1.416 . S
C285 C284 1.416 . S
C285 C286 1.371 . S
C286 H275 0.930 . S
C286 C282 1.389 . S
C286 C285 1.371 . S
C287 H276 0.970 . S
C287 H277 0.970 . S
C287 C283 1.532 . S
C287 C288 1.499 . S
C288 C287 1.499 . S
C288 C289 1.370 . S
C288 C293 1.415 . S
C289 H278 0.930 . S
C289 C288 1.370 . S
C289 C290 1.407 . S
C290 C289 1.407 . S
C290 C291 1.365 . S
C291 H279 0.930 . S
C291 C290 1.365 . S
C291 C292 1.393 . S
C292 C291 1.393 . S
C292 C293 1.387 . S
C293 H280 0.930 . S
C293 C288 1.415 . S
C293 C292 1.387 . S
H294 C302 0.936 . S
H295 C305 0.930 . S
H296 C307 0.930 . S
H297 C308 0.970 . S
H298 C308 0.970 . S
H299 C310 0.930 . S
H300 C312 0.930 . S
H301 C314 0.930 . S
C302 H294 0.936 . S
C302 C303 1.382 . S
C302 C304 1.426 1_465 S
C303 C302 1.382 . S
C303 C307 1.389 1_455 S
C304 C302 1.426 1_645 S
C304 C305 1.375 1_545 S
C304 C308 1.532 . S
C305 H295 0.930 . S
C305 C304 1.375 1_565 S
C305 C306 1.416 . S
C306 C305 1.416 . S
C306 C307 1.371 . S
C307 H296 0.930 . S
C307 C303 1.389 1_655 S
C307 C306 1.371 . S
C308 H297 0.970 . S
C308 H298 0.970 . S
C308 C304 1.532 . S
C308 C309 1.499 . S
C309 C308 1.499 . S
C309 C310 1.370 1_655 S
C309 C314 1.415 . S
C310 H299 0.930 . S
C310 C309 1.370 1_455 S
C310 C311 1.407 . S
C311 C310 1.407 . S
C311 C312 1.365 1_455 S
C312 H300 0.930 . S
C312 C311 1.365 1_655 S
C312 C313 1.393 . S
C313 C312 1.393 . S
C313 C314 1.387 . S
C314 H301 0.930 . S
C314 C309 1.415 . S
C314 C313 1.387 . S
H315 C323 0.930 . S
H316 C326 0.930 . S
H317 C328 0.930 . S
H318 C329 0.970 . S
H319 C329 0.970 . S
H320 C331 0.930 1_554 S
H321 C333 0.930 . S
H322 C335 0.930 1_554 S
C323 H315 0.930 . S
C323 C324 1.382 . S
C323 C325 1.426 . S
C324 C323 1.382 . S
C324 C328 1.389 . S
C325 C323 1.426 . S
C325 C326 1.375 . S
C325 C329 1.532 . S
C326 H316 0.930 . S
C326 C325 1.375 . S
C326 C327 1.416 . S
C327 C326 1.416 . S
C327 C328 1.371 . S
C328 H317 0.930 . S
C328 C324 1.389 . S
C328 C327 1.371 . S
C329 H318 0.970 . S
C329 H319 0.970 . S
C329 C325 1.532 . S
C329 C330 1.499 . S
C330 C329 1.499 . S
C330 C331 1.370 1_554 S
C330 C335 1.415 1_554 S
C331 H320 0.930 1_556 S
C331 C330 1.370 1_556 S
C331 C332 1.407 . S
C332 C331 1.407 . S
C332 C333 1.365 . S
C333 H321 0.930 . S
C333 C332 1.365 . S
C333 C334 1.393 . S
C334 C333 1.393 . S
C334 C335 1.387 . S
C335 H322 0.930 1_556 S
C335 C330 1.415 1_556 S
C335 C334 1.387 . S
H336 C344 0.930 . S
H337 C347 0.930 1_545 S
H338 C349 0.930 . S
H339 C350 0.970 . S
H340 C350 0.970 . S
H341 C352 0.945 . S
H342 C354 0.930 . S
H343 C356 0.930 1_545 S
C344 H336 0.930 . S
C344 C345 1.382 . S
C344 C346 1.426 . S
C345 C344 1.382 . S
C345 C349 1.389 . S
C346 C344 1.426 . S
C346 C347 1.375 . S
C346 C350 1.532 . S
C347 H337 0.930 1_565 S
C347 C346 1.375 . S
C347 C348 1.416 . S
C348 C347 1.416 . S
C348 C349 1.371 . S
C349 H338 0.930 . S
C349 C345 1.389 . S
C349 C348 1.371 . S
C350 H339 0.970 . S
C350 H340 0.970 . S
C350 C346 1.532 . S
C350 C351 1.499 . S
C351 C350 1.499 . S
C351 C352 1.384 . S
C351 C356 1.415 . S
C352 H341 0.945 . S
C352 C351 1.384 . S
C352 C353 1.380 1_554 S
C353 C352 1.380 1_556 S
C353 C354 1.365 . S
C354 H342 0.930 . S
C354 C353 1.365 . S
C354 C355 1.393 . S
C355 C354 1.393 . S
C355 C356 1.387 1_556 S
C356 H343 0.930 1_565 S
C356 C351 1.415 . S
C356 C355 1.387 1_554 S
H357 C365 0.930 . S
H358 C368 0.930 . S
H359 C370 0.930 . S
H360 C371 0.970 . S
H361 C371 0.970 . S
H362 C373 0.930 . S
H363 C375 0.930 . S
H364 C377 0.930 . S
C365 H357 0.930 . S
C365 C366 1.382 . S
C365 C367 1.426 . S
C366 C365 1.382 . S
C366 C370 1.389 . S
C367 C365 1.426 . S
C367 C368 1.375 . S
C367 C371 1.532 . S
C368 H358 0.930 . S
C368 C367 1.375 . S
C368 C369 1.416 . S
C369 C368 1.416 . S
C369 C370 1.371 . S
C370 H359 0.930 . S
C370 C366 1.389 . S
C370 C369 1.371 . S
C371 H360 0.970 . S
C371 H361 0.970 . S
C371 C367 1.532 . S
C371 C372 1.499 . S
C372 C371 1.499 . S
C372 C373 1.370 . S
C372 C377 1.415 . S
C373 H362 0.930 . S
C373 C372 1.370 . S
C373 C374 1.407 . S
C374 C373 1.407 . S
C374 C375 1.365 . S
C375 H363 0.930 . S
C375 C374 1.365 . S
C375 C376 1.393 . S
C376 C375 1.393 . S
C376 C377 1.387 . S
C377 H364 0.930 . S
C377 C372 1.415 . S
C377 C376 1.387 . S
H378 C386 0.930 . S
H379 C389 0.930 . S
H380 C391 0.930 . S
H381 C392 0.970 . S
H382 C392 0.970 . S
H383 C394 0.930 . S
H384 C396 0.930 . S
H385 C398 0.930 . S
C386 H378 0.930 . S
C386 C387 1.382 . S
C386 C388 1.426 . S
C387 C386 1.382 . S
C387 C391 1.389 . S
C388 C386 1.426 . S
C388 C389 1.375 . S
C388 C392 1.532 . S
C389 H379 0.930 . S
C389 C388 1.375 . S
C389 C390 1.416 . S
C390 C389 1.416 . S
C390 C391 1.371 . S
C391 H380 0.930 . S
C391 C387 1.389 . S
C391 C390 1.371 . S
C392 H381 0.970 . S
C392 H382 0.970 . S
C392 C388 1.532 . S
C392 C393 1.499 . S
C393 C392 1.499 . S
C393 C394 1.370 . S
C393 C398 1.415 . S
C394 H383 0.930 . S
C394 C393 1.370 . S
C394 C395 1.407 . S
C395 C394 1.407 . S
C395 C396 1.365 . S
C396 H384 0.930 . S
C396 C395 1.365 . S
C396 C397 1.393 . S
C397 C396 1.393 . S
C397 C398 1.387 . S
C398 H385 0.930 . S
C398 C393 1.415 . S
C398 C397 1.387 . S
H399 C407 0.930 . S
H400 C410 0.930 . S
H401 C412 0.930 . S
H402 C413 0.970 . S
H403 C413 0.970 . S
H404 C415 0.930 . S
H405 C417 0.930 . S
H406 C419 0.930 . S
C407 H399 0.930 . S
C407 C408 1.382 . S
C407 C409 1.426 . S
C408 C407 1.382 . S
C408 C412 1.389 . S
C409 C407 1.426 . S
C409 C410 1.375 . S
C409 C413 1.532 . S
C410 H400 0.930 . S
C410 C409 1.375 . S
C410 C411 1.416 . S
C411 C410 1.416 . S
C411 C412 1.371 . S
C412 H401 0.930 . S
C412 C408 1.389 . S
C412 C411 1.371 . S
C413 H402 0.970 . S
C413 H403 0.970 . S
C413 C409 1.532 . S
C413 C414 1.499 . S
C414 C413 1.499 . S
C414 C415 1.370 . S
C414 C419 1.415 . S
C415 H404 0.930 . S
C415 C414 1.370 . S
C415 C416 1.407 . S
C416 C415 1.407 . S
C416 C417 1.365 . S
C417 H405 0.930 . S
C417 C416 1.365 . S
C417 C418 1.393 . S
C418 C417 1.393 . S
C418 C419 1.387 . S
C419 H406 0.930 . S
C419 C414 1.415 . S
C419 C418 1.387 . S
H420 C428 0.950 . S
H421 C433 0.950 . S
H422 C430 0.950 . S
H423 C432 0.950 . S
H424 C434 0.950 . S
H425 C436 0.950 . S
H426 C438 0.950 . S
H427 C439 0.950 . S
C428 H420 0.950 . S
C428 C429 1.386 1_455 S
C428 C430 1.391 . S
C429 C428 1.386 1_655 S
C429 C433 1.392 . S
C430 H422 0.950 . S
C430 C428 1.391 . S
C430 C431 1.400 1_554 S
C431 C430 1.400 1_556 S
C431 C432 1.398 1_455 S
C431 C437 1.491 . S
C432 H423 0.950 . S
C432 C431 1.398 1_655 S
C432 C433 1.391 1_556 S
C433 H421 0.950 . S
C433 C429 1.392 . S
C433 C432 1.391 1_554 S
C434 H424 0.950 . S
C434 C435 1.386 1_655 S
C434 C436 1.391 . S
C435 C434 1.386 1_455 S
C435 C439 1.393 . S
C436 H425 0.950 . S
C436 C434 1.391 . S
C436 C437 1.400 1_655 S
C437 C431 1.491 . S
C437 C436 1.400 1_455 S
C437 C438 1.398 . S
C438 H426 0.950 . S
C438 C437 1.398 . S
C438 C439 1.391 . S
C439 H427 0.950 . S
C439 C435 1.393 . S
C439 C438 1.391 . S
H440 C448 0.950 . S
H441 C453 0.950 . S
H442 C450 0.950 . S
H443 C452 0.950 . S
H444 C454 0.950 . S
H445 C456 0.950 . S
H446 C458 0.950 . S
H447 C459 0.950 . S
C448 H440 0.950 . S
C448 C449 1.386 . S
C448 C450 1.391 . S
C449 C448 1.386 . S
C449 C453 1.393 . S
C450 H442 0.950 . S
C450 C448 1.391 . S
C450 C451 1.400 . S
C451 C450 1.400 . S
C451 C452 1.398 . S
C451 C457 1.491 . S
C452 H443 0.950 . S
C452 C451 1.398 . S
C452 C453 1.391 . S
C453 H441 0.950 . S
C453 C449 1.393 . S
C453 C452 1.391 . S
C454 H444 0.950 . S
C454 C455 1.386 . S
C454 C456 1.391 . S
C455 C454 1.386 . S
C455 C459 1.393 . S
C456 H445 0.950 . S
C456 C454 1.391 . S
C456 C457 1.400 . S
C457 C451 1.491 . S
C457 C456 1.400 . S
C457 C458 1.398 . S
C458 H446 0.950 . S
C458 C457 1.398 . S
C458 C459 1.391 . S
C459 H447 0.950 . S
C459 C455 1.393 . S
C459 C458 1.391 . S
H460 C468 0.950 . S
H461 C473 0.950 . S
H462 C470 0.950 . S
H463 C472 0.950 . S
H464 C474 0.950 . S
H465 C476 0.950 . S
H466 C478 0.950 . S
H467 C479 0.950 . S
C468 H460 0.950 . S
C468 C469 1.386 . S
C468 C470 1.391 . S
C469 C468 1.386 . S
C469 C473 1.393 . S
C470 H462 0.950 . S
C470 C468 1.391 . S
C470 C471 1.400 . S
C471 C470 1.400 . S
C471 C472 1.398 . S
C471 C477 1.491 . S
C472 H463 0.950 . S
C472 C471 1.398 . S
C472 C473 1.391 . S
C473 H461 0.950 . S
C473 C469 1.393 . S
C473 C472 1.391 . S
C474 H464 0.950 . S
C474 C475 1.386 . S
C474 C476 1.391 . S
C475 C474 1.386 . S
C475 C479 1.393 . S
C476 H465 0.950 . S
C476 C474 1.391 . S
C476 C477 1.400 . S
C477 C471 1.491 . S
C477 C476 1.400 . S
C477 C478 1.398 . S
C478 H466 0.950 . S
C478 C477 1.398 . S
C478 C479 1.391 . S
C479 H467 0.950 . S
C479 C475 1.393 . S
C479 C478 1.391 . S
H480 C488 0.950 . S
H481 C493 0.950 . S
H482 C490 0.950 . S
H483 C492 0.950 . S
H484 C494 0.950 . S
H485 C496 0.950 . S
H486 C498 0.950 . S
H487 C499 0.950 . S
C488 H480 0.950 . S
C488 C489 1.386 . S
C488 C490 1.391 . S
C489 C488 1.386 . S
C489 C493 1.393 . S
C490 H482 0.950 . S
C490 C488 1.391 . S
C490 C491 1.400 . S
C491 C490 1.400 . S
C491 C492 1.398 . S
C491 C497 1.491 . S
C492 H483 0.950 . S
C492 C491 1.398 . S
C492 C493 1.391 . S
C493 H481 0.950 . S
C493 C489 1.393 . S
C493 C492 1.391 . S
C494 H484 0.950 . S
C494 C495 1.386 . S
C494 C496 1.391 . S
C495 C494 1.386 . S
C495 C499 1.393 . S
C496 H485 0.950 . S
C496 C494 1.391 . S
C496 C497 1.400 . S
C497 C491 1.491 . S
C497 C496 1.400 . S
C497 C498 1.398 . S
C498 H486 0.950 . S
C498 C497 1.398 . S
C498 C499 1.391 . S
C499 H487 0.950 . S
C499 C495 1.393 . S
C499 C498 1.391 . S
H500 C508 0.950 . S
H501 C513 0.950 . S
H502 C510 0.950 . S
H503 C512 0.950 . S
H504 C514 0.950 . S
H505 C516 0.950 . S
H506 C518 0.950 . S
H507 C519 0.950 . S
C508 H500 0.950 . S
C508 C509 1.386 1_655 S
C508 C510 1.391 . S
C509 C508 1.386 1_455 S
C509 C513 1.393 . S
C510 H502 0.950 . S
C510 C508 1.391 . S
C510 C511 1.400 1_655 S
C511 C510 1.400 1_455 S
C511 C512 1.398 . S
C511 C517 1.491 . S
C512 H503 0.950 . S
C512 C511 1.398 . S
C512 C513 1.391 . S
C513 H501 0.950 . S
C513 C509 1.393 . S
C513 C512 1.391 . S
C514 H504 0.950 . S
C514 C515 1.386 . S
C514 C516 1.391 . S
C515 C514 1.386 . S
C515 C519 1.393 1_455 S
C516 H505 0.950 . S
C516 C514 1.391 . S
C516 C517 1.400 . S
C517 C511 1.491 . S
C517 C516 1.400 . S
C517 C518 1.398 1_455 S
C518 H506 0.950 . S
C518 C517 1.398 1_655 S
C518 C519 1.391 . S
C519 H507 0.950 . S
C519 C515 1.393 1_655 S
C519 C518 1.391 . S
H520 C528 0.950 . S
H521 C533 0.950 . S
H522 C530 0.950 . S
H523 C532 0.950 . S
H524 C534 0.950 . S
H525 C536 0.950 . S
H526 C538 0.950 . S
H527 C539 0.950 . S
C528 H520 0.950 . S
C528 C529 1.386 . S
C528 C530 1.391 . S
C529 C528 1.386 . S
C529 C533 1.393 . S
C530 H522 0.950 . S
C530 C528 1.391 . S
C530 C531 1.400 . S
C531 C530 1.400 . S
C531 C532 1.398 . S
C531 C537 1.491 . S
C532 H523 0.950 . S
C532 C531 1.398 . S
C532 C533 1.391 . S
C533 H521 0.950 . S
C533 C529 1.393 . S
C533 C532 1.391 . S
C534 H524 0.950 . S
C534 C535 1.386 . S
C534 C536 1.391 . S
C535 C534 1.386 . S
C535 C539 1.393 . S
C536 H525 0.950 . S
C536 C534 1.391 . S
C536 C537 1.400 . S
C537 C531 1.491 . S
C537 C536 1.400 . S
C537 C538 1.398 . S
C538 H526 0.950 . S
C538 C537 1.398 . S
C538 C539 1.391 . S
C539 H527 0.950 . S
C539 C535 1.393 . S
C539 C538 1.391 . S
H540 C548 0.950 . S
H541 C553 0.950 . S
H542 C550 0.950 . S
H543 C552 0.950 . S
H544 C554 0.950 . S
H545 C556 0.950 . S
H546 C558 0.950 . S
H547 C559 0.950 . S
C548 H540 0.950 . S
C548 C549 1.386 . S
C548 C550 1.391 1_556 S
C549 C548 1.386 . S
C549 C553 1.393 . S
C550 H542 0.950 . S
C550 C548 1.391 1_554 S
C550 C551 1.400 . S
C551 C550 1.400 . S
C551 C552 1.398 . S
C551 C557 1.491 . S
C552 H543 0.950 . S
C552 C551 1.398 . S
C552 C553 1.391 1_554 S
C553 H541 0.950 . S
C553 C549 1.393 . S
C553 C552 1.391 1_556 S
C554 H544 0.950 . S
C554 C555 1.386 . S
C554 C556 1.391 . S
C555 C554 1.386 . S
C555 C559 1.393 . S
C556 H545 0.950 . S
C556 C554 1.391 . S
C556 C557 1.400 . S
C557 C551 1.491 . S
C557 C556 1.400 . S
C557 C558 1.398 . S
C558 H546 0.950 . S
C558 C557 1.398 . S
C558 C559 1.391 . S
C559 H547 0.950 . S
C559 C555 1.393 . S
C559 C558 1.391 . S
H560 C568 0.950 . S
H561 C573 0.950 . S
H562 C570 0.950 . S
H563 C572 0.950 . S
H564 C574 0.950 . S
H565 C576 0.950 . S
H566 C578 0.950 . S
H567 C579 0.950 . S
C568 H560 0.950 . S
C568 C569 1.386 . S
C568 C570 1.391 . S
C569 C568 1.386 . S
C569 C573 1.393 . S
C570 H562 0.950 . S
C570 C568 1.391 . S
C570 C571 1.400 . S
C571 C570 1.400 . S
C571 C572 1.398 . S
C571 C577 1.491 . S
C572 H563 0.950 . S
C572 C571 1.398 . S
C572 C573 1.391 . S
C573 H561 0.950 . S
C573 C569 1.393 . S
C573 C572 1.391 . S
C574 H564 0.950 . S
C574 C575 1.386 . S
C574 C576 1.391 . S
C575 C574 1.386 . S
C575 C579 1.393 . S
C576 H565 0.950 . S
C576 C574 1.391 . S
C576 C577 1.400 . S
C577 C571 1.491 . S
C577 C576 1.400 . S
C577 C578 1.398 . S
C578 H566 0.950 . S
C578 C577 1.398 . S
C578 C579 1.391 . S
C579 H567 0.950 . S
C579 C575 1.393 . S
C579 C578 1.391 . S
H580 C588 0.950 . S
H581 C593 0.950 . S
H582 C590 0.950 . S
H583 C592 0.965 . S
H584 C594 0.950 . S
H585 C596 0.950 . S
H586 C598 0.950 . S
H587 C599 0.950 . S
C588 H580 0.950 . S
C588 C589 1.386 . S
C588 C590 1.391 . S
C589 C588 1.386 . S
C589 C593 1.393 1_545 S
C590 H582 0.950 . S
C590 C588 1.391 . S
C590 C591 1.400 1_455 S
C591 C590 1.400 1_655 S
C591 C592 1.407 1_545 S
C591 C597 1.491 . S
C592 H583 0.965 . S
C592 C591 1.407 1_565 S
C592 C593 1.368 1_655 S
C593 H581 0.950 . S
C593 C589 1.393 1_565 S
C593 C592 1.368 1_455 S
C594 H584 0.950 . S
C594 C595 1.386 1_565 S
C594 C596 1.391 . S
C595 C594 1.386 1_545 S
C595 C599 1.393 . S
C596 H585 0.950 . S
C596 C594 1.391 . S
C596 C597 1.400 1_565 S
C597 C591 1.491 . S
C597 C596 1.400 1_545 S
C597 C598 1.398 . S
C598 H586 0.950 . S
C598 C597 1.398 . S
C598 C599 1.391 . S
C599 H587 0.950 . S
C599 C595 1.393 . S
C599 C598 1.391 . S
H600 C608 0.950 . S
H601 C613 0.950 . S
H602 C610 0.950 . S
H603 C612 0.950 . S
H604 C614 0.950 . S
H605 C616 0.950 . S
H606 C618 0.950 . S
H607 C619 0.950 . S
C608 H600 0.950 . S
C608 C609 1.386 . S
C608 C610 1.391 . S
C609 C608 1.386 . S
C609 C613 1.393 . S
C610 H602 0.950 . S
C610 C608 1.391 . S
C610 C611 1.400 . S
C611 C610 1.400 . S
C611 C612 1.398 . S
C611 C617 1.491 . S
C612 H603 0.950 . S
C612 C611 1.398 . S
C612 C613 1.391 . S
C613 H601 0.950 . S
C613 C609 1.393 . S
C613 C612 1.391 . S
C614 H604 0.950 . S
C614 C615 1.386 . S
C614 C616 1.391 . S
C615 C614 1.386 . S
C615 C619 1.393 . S
C616 H605 0.950 . S
C616 C614 1.391 . S
C616 C617 1.400 . S
C617 C611 1.491 . S
C617 C616 1.400 . S
C617 C618 1.398 . S
C618 H606 0.950 . S
C618 C617 1.398 . S
C618 C619 1.391 . S
C619 H607 0.950 . S
C619 C615 1.393 . S
C619 C618 1.391 . S
H620 C628 0.950 . S
H621 C633 0.950 . S
H622 C630 0.950 . S
H623 C632 0.950 . S
H624 C634 0.950 . S
H625 C636 0.950 . S
H626 C638 0.950 . S
H627 C639 0.950 . S
C628 H620 0.950 . S
C628 C629 1.386 . S
C628 C630 1.391 . S
C629 C628 1.386 . S
C629 C633 1.393 1_545 S
C630 H622 0.950 . S
C630 C628 1.391 . S
C630 C631 1.400 . S
C631 C630 1.400 . S
C631 C632 1.398 1_545 S
C631 C637 1.491 . S
C632 H623 0.950 . S
C632 C631 1.398 1_565 S
C632 C633 1.391 . S
C633 H621 0.950 . S
C633 C629 1.393 1_565 S
C633 C632 1.391 . S
C634 H624 0.950 . S
C634 C635 1.386 1_565 S
C634 C636 1.391 . S
C635 C634 1.386 1_545 S
C635 C639 1.393 . S
C636 H625 0.950 . S
C636 C634 1.391 . S
C636 C637 1.400 1_565 S
C637 C631 1.491 . S
C637 C636 1.400 1_545 S
C637 C638 1.398 . S
C638 H626 0.950 . S
C638 C637 1.398 . S
C638 C639 1.391 . S
C639 H627 0.950 . S
C639 C635 1.393 . S
C639 C638 1.391 . S
H640 C648 0.950 . S
H641 C653 0.950 . S
H642 C650 0.950 . S
H643 C652 0.950 . S
H644 C654 0.950 . S
H645 C656 0.950 . S
H646 C658 0.950 . S
H647 C659 0.950 . S
C648 H640 0.950 . S
C648 C649 1.386 . S
C648 C650 1.391 . S
C649 C648 1.386 . S
C649 C653 1.393 . S
C650 H642 0.950 . S
C650 C648 1.391 . S
C650 C651 1.400 . S
C651 C650 1.400 . S
C651 C652 1.398 . S
C651 C657 1.491 . S
C652 H643 0.950 . S
C652 C651 1.398 . S
C652 C653 1.391 . S
C653 H641 0.950 . S
C653 C649 1.393 . S
C653 C652 1.391 . S
C654 H644 0.950 . S
C654 C655 1.386 . S
C654 C656 1.391 . S
C655 C654 1.386 . S
C655 C659 1.393 . S
C656 H645 0.950 . S
C656 C654 1.391 . S
C656 C657 1.400 . S
C657 C651 1.491 . S
C657 C656 1.400 . S
C657 C658 1.398 . S
C658 H646 0.950 . S
C658 C657 1.398 . S
C658 C659 1.391 . S
C659 H647 0.950 . S
C659 C655 1.393 . S
C659 C658 1.391 . S
H660 C668 0.950 . S
H661 C673 0.950 . S
H662 C670 0.950 . S
H663 C672 0.950 1_655 S
H664 C674 0.950 . S
H665 C676 0.950 . S
H666 C678 0.950 . S
H667 C679 0.950 . S
C668 H660 0.950 . S
C668 C669 1.386 . S
C668 C670 1.391 1_455 S
C669 C668 1.386 . S
C669 C673 1.393 1_545 S
C670 H662 0.950 . S
C670 C668 1.391 1_655 S
C670 C671 1.400 . S
C671 C670 1.400 . S
C671 C672 1.398 1_645 S
C671 C677 1.491 . S
C672 H663 0.950 1_455 S
C672 C671 1.398 1_465 S
C672 C673 1.391 . S
C673 H661 0.950 . S
C673 C669 1.393 1_565 S
C673 C672 1.391 . S
C674 H664 0.950 . S
C674 C675 1.386 1_565 S
C674 C676 1.391 . S
C675 C674 1.386 1_545 S
C675 C679 1.393 . S
C676 H665 0.950 . S
C676 C674 1.391 . S
C676 C677 1.400 1_565 S
C677 C671 1.491 . S
C677 C676 1.400 1_545 S
C677 C678 1.398 . S
C678 H666 0.950 . S
C678 C677 1.398 . S
C678 C679 1.391 . S
C679 H667 0.950 . S
C679 C675 1.393 . S
C679 C678 1.391 . S
H680 C688 0.950 . S
H681 C693 0.950 . S
H682 C690 0.950 . S
H683 C692 0.950 . S
H684 C694 0.950 . S
H685 C696 0.950 . S
H686 C698 0.950 . S
H687 C699 0.950 . S
C688 H680 0.950 . S
C688 C689 1.386 . S
C688 C690 1.391 . S
C689 C688 1.386 . S
C689 C693 1.393 . S
C690 H682 0.950 . S
C690 C688 1.391 . S
C690 C691 1.400 . S
C691 C690 1.400 . S
C691 C692 1.398 . S
C691 C697 1.491 . S
C692 H683 0.950 . S
C692 C691 1.398 . S
C692 C693 1.391 . S
C693 H681 0.950 . S
C693 C689 1.393 . S
C693 C692 1.391 . S
C694 H684 0.950 . S
C694 C695 1.386 . S
C694 C696 1.391 . S
C695 C694 1.386 . S
C695 C699 1.393 . S
C696 H685 0.950 . S
C696 C694 1.391 . S
C696 C697 1.400 . S
C697 C691 1.491 . S
C697 C696 1.400 . S
C697 C698 1.398 . S
C698 H686 0.950 . S
C698 C697 1.398 . S
C698 C699 1.391 . S
C699 H687 0.950 . S
C699 C695 1.393 . S
C699 C698 1.391 . S
H700 C708 0.950 . S
H701 C713 0.950 . S
H702 C710 0.950 . S
H703 C712 0.950 . S
H704 C714 0.950 . S
H705 C716 0.950 . S
H706 C718 0.950 . S
H707 C719 0.950 . S
C708 H700 0.950 . S
C708 C709 1.386 . S
C708 C710 1.391 . S
C709 C708 1.386 . S
C709 C713 1.393 1_565 S
C710 H702 0.950 . S
C710 C708 1.391 . S
C710 C711 1.399 . S
C711 C710 1.399 . S
C711 C712 1.399 1_565 S
C711 C717 1.490 1_565 S
C712 H703 0.950 . S
C712 C711 1.399 1_545 S
C712 C713 1.391 . S
C713 H701 0.950 . S
C713 C709 1.393 1_545 S
C713 C712 1.391 . S
C714 H704 0.950 . S
C714 C715 1.386 . S
C714 C716 1.391 . S
C715 C714 1.386 . S
C715 C719 1.393 1_545 S
C716 H705 0.950 . S
C716 C714 1.391 . S
C716 C717 1.410 . S
C717 C711 1.490 1_545 S
C717 C716 1.410 . S
C717 C718 1.389 1_545 S
C718 H706 0.950 . S
C718 C717 1.389 1_565 S
C718 C719 1.391 . S
C719 H707 0.950 . S
C719 C715 1.393 1_565 S
C719 C718 1.391 . S
H720 C728 0.950 . S
H721 C733 0.950 . S
H722 C730 0.950 . S
H723 C732 0.950 . S
H724 C734 0.950 . S
H725 C736 0.950 . S
H726 C738 0.950 . S
H727 C739 0.950 . S
C728 H720 0.950 . S
C728 C729 1.386 . S
C728 C730 1.391 . S
C729 C728 1.386 . S
C729 C733 1.393 . S
C730 H722 0.950 . S
C730 C728 1.391 . S
C730 C731 1.400 . S
C731 C730 1.400 . S
C731 C732 1.398 . S
C731 C737 1.491 . S
C732 H723 0.950 . S
C732 C731 1.398 . S
C732 C733 1.391 . S
C733 H721 0.950 . S
C733 C729 1.393 . S
C733 C732 1.391 . S
C734 H724 0.950 . S
C734 C735 1.386 . S
C734 C736 1.391 . S
C735 C734 1.386 . S
C735 C739 1.393 . S
C736 H725 0.950 . S
C736 C734 1.391 . S
C736 C737 1.400 . S
C737 C731 1.491 . S
C737 C736 1.400 . S
C737 C738 1.398 . S
C738 H726 0.950 . S
C738 C737 1.398 . S
C738 C739 1.391 . S
C739 H727 0.950 . S
C739 C735 1.393 . S
C739 C738 1.391 . S
H740 C748 0.950 . S
H741 C753 0.950 . S
H742 C750 0.950 . S
H743 C752 0.950 . S
H744 C754 0.950 . S
H745 C756 0.950 . S
H746 C758 0.950 . S
H747 C759 0.950 . S
C748 H740 0.950 . S
C748 C749 1.386 . S
C748 C750 1.391 1_545 S
C749 C748 1.386 . S
C749 C753 1.393 1_556 S
C750 H742 0.950 . S
C750 C748 1.391 1_565 S
C750 C751 1.400 . S
C751 C750 1.400 . S
C751 C752 1.398 1_556 S
C751 C757 1.491 . S
C752 H743 0.950 . S
C752 C751 1.398 1_554 S
C752 C753 1.391 1_565 S
C753 H741 0.950 . S
C753 C749 1.393 1_554 S
C753 C752 1.391 1_545 S
C754 H744 0.950 . S
C754 C755 1.386 1_554 S
C754 C756 1.391 . S
C755 C754 1.386 1_556 S
C755 C759 1.393 . S
C756 H745 0.950 . S
C756 C754 1.391 . S
C756 C757 1.400 1_554 S
C757 C751 1.491 . S
C757 C756 1.400 1_556 S
C757 C758 1.398 . S
C758 H746 0.950 . S
C758 C757 1.398 . S
C758 C759 1.391 . S
C759 H747 0.950 . S
C759 C755 1.393 . S
C759 C758 1.391 . S
H760 C768 0.948 1_556 S
H761 C773 0.950 . S
H762 C770 0.950 1_556 S
H763 C772 0.950 . S
H764 C774 0.950 . S
H765 C776 0.950 . S
H766 C778 0.949 . S
H767 C779 0.950 . S
C768 H760 0.948 1_554 S
C768 C769 1.386 . S
C768 C770 1.391 . S
C769 C768 1.386 . S
C769 C773 1.393 . S
C770 H762 0.950 1_554 S
C770 C768 1.391 . S
C770 C771 1.400 . S
C771 C770 1.400 . S
C771 C772 1.398 . S
C771 C777 1.491 . S
C772 H763 0.950 . S
C772 C771 1.398 . S
C772 C773 1.391 . S
C773 H761 0.950 . S
C773 C769 1.393 . S
C773 C772 1.391 . S
C774 H764 0.950 . S
C774 C775 1.386 . S
C774 C776 1.391 . S
C775 C774 1.386 . S
C775 C779 1.393 1_554 S
C776 H765 0.950 . S
C776 C774 1.391 . S
C776 C777 1.400 . S
C777 C771 1.491 . S
C777 C776 1.400 . S
C777 C778 1.399 1_554 S
C778 H766 0.949 . S
C778 C777 1.399 1_556 S
C778 C779 1.390 . S
C779 H767 0.950 . S
C779 C775 1.393 1_556 S
C779 C778 1.390 . S
H780 C788 0.950 . S
H781 C793 0.950 . S
H782 C790 0.950 . S
H783 C792 0.950 . S
H784 C794 0.950 . S
H785 C796 0.950 . S
H786 C798 0.950 . S
H787 C799 0.950 . S
C788 H780 0.950 . S
C788 C789 1.386 . S
C788 C790 1.391 . S
C789 C788 1.386 . S
C789 C793 1.393 . S
C790 H782 0.950 . S
C790 C788 1.391 . S
C790 C791 1.400 . S
C791 C790 1.400 . S
C791 C792 1.398 . S
C791 C797 1.491 . S
C792 H783 0.950 . S
C792 C791 1.398 . S
C792 C793 1.391 . S
C793 H781 0.950 . S
C793 C789 1.393 . S
C793 C792 1.391 . S
C794 H784 0.950 . S
C794 C795 1.386 . S
C794 C796 1.391 . S
C795 C794 1.386 . S
C795 C799 1.393 . S
C796 H785 0.950 . S
C796 C794 1.391 . S
C796 C797 1.400 . S
C797 C791 1.491 . S
C797 C796 1.400 . S
C797 C798 1.398 . S
C798 H786 0.950 . S
C798 C797 1.398 . S
C798 C799 1.391 . S
C799 H787 0.950 . S
C799 C795 1.393 . S
C799 C798 1.391 . S
H800 C808 0.950 . S
H801 C813 0.950 . S
H802 C810 0.950 . S
H803 C812 0.950 . S
H804 C814 0.950 . S
H805 C816 0.950 . S
H806 C818 0.950 . S
H807 C819 0.950 . S
C808 H800 0.950 . S
C808 C809 1.386 . S
C808 C810 1.391 . S
C809 C808 1.386 . S
C809 C813 1.393 . S
C810 H802 0.950 . S
C810 C808 1.391 . S
C810 C811 1.400 . S
C811 C810 1.400 . S
C811 C812 1.398 . S
C811 C817 1.491 . S
C812 H803 0.950 . S
C812 C811 1.398 . S
C812 C813 1.391 . S
C813 H801 0.950 . S
C813 C809 1.393 . S
C813 C812 1.391 . S
C814 H804 0.950 . S
C814 C815 1.386 . S
C814 C816 1.391 . S
C815 C814 1.386 . S
C815 C819 1.393 . S
C816 H805 0.950 . S
C816 C814 1.391 . S
C816 C817 1.400 . S
C817 C811 1.491 . S
C817 C816 1.400 . S
C817 C818 1.398 . S
C818 H806 0.950 . S
C818 C817 1.398 . S
C818 C819 1.391 . S
C819 H807 0.950 . S
C819 C815 1.393 . S
C819 C818 1.391 . S
H820 C828 0.950 . S
H821 C833 0.950 . S
H822 C830 0.950 . S
H823 C832 0.950 . S
H824 C834 0.950 . S
H825 C836 0.950 . S
H826 C838 0.950 . S
H827 C839 0.950 . S
C828 H820 0.950 . S
C828 C829 1.386 . S
C828 C830 1.391 . S
C829 C828 1.386 . S
C829 C833 1.393 . S
C830 H822 0.950 . S
C830 C828 1.391 . S
C830 C831 1.400 . S
C831 C830 1.400 . S
C831 C832 1.398 . S
C831 C837 1.491 . S
C832 H823 0.950 . S
C832 C831 1.398 . S
C832 C833 1.391 . S
C833 H821 0.950 . S
C833 C829 1.393 . S
C833 C832 1.391 . S
C834 H824 0.950 . S
C834 C835 1.386 . S
C834 C836 1.391 . S
C835 C834 1.386 . S
C835 C839 1.393 . S
C836 H825 0.950 . S
C836 C834 1.391 . S
C836 C837 1.400 . S
C837 C831 1.491 . S
C837 C836 1.400 . S
C837 C838 1.398 . S
C838 H826 0.950 . S
C838 C837 1.398 . S
C838 C839 1.391 . S
C839 H827 0.950 . S
C839 C835 1.393 . S
C839 C838 1.391 . S
H840 C848 0.950 . S
H841 C853 0.950 . S
H842 C850 0.950 . S
H843 C852 0.950 . S
H844 C854 0.950 . S
H845 C856 0.950 . S
H846 C858 0.950 . S
H847 C859 0.950 . S
C848 H840 0.950 . S
C848 C849 1.386 . S
C848 C850 1.391 1_565 S
C849 C848 1.386 . S
C849 C853 1.393 . S
C850 H842 0.950 . S
C850 C848 1.391 1_545 S
C850 C851 1.400 . S
C851 C850 1.400 . S
C851 C852 1.398 . S
C851 C857 1.491 . S
C852 H843 0.950 . S
C852 C851 1.398 . S
C852 C853 1.391 1_545 S
C853 H841 0.950 . S
C853 C849 1.393 . S
C853 C852 1.391 1_565 S
C854 H844 0.950 . S
C854 C855 1.386 . S
C854 C856 1.391 . S
C855 C854 1.386 . S
C855 C859 1.393 . S
C856 H845 0.950 . S
C856 C854 1.391 . S
C856 C857 1.400 . S
C857 C851 1.491 . S
C857 C856 1.400 . S
C857 C858 1.398 . S
C858 H846 0.950 . S
C858 C857 1.398 . S
C858 C859 1.391 . S
C859 H847 0.950 . S
C859 C855 1.393 . S
C859 C858 1.391 . S
H860 C868 0.950 . S
H861 C873 0.950 . S
H862 C870 0.950 . S
H863 C872 0.950 . S
H864 C874 0.950 . S
H865 C876 0.950 . S
H866 C878 0.950 . S
H867 C879 0.950 . S
C868 H860 0.950 . S
C868 C869 1.386 . S
C868 C870 1.391 . S
C869 C868 1.386 . S
C869 C873 1.393 . S
C870 H862 0.950 . S
C870 C868 1.391 . S
C870 C871 1.400 . S
C871 C870 1.400 . S
C871 C872 1.398 . S
C871 C877 1.491 . S
C872 H863 0.950 . S
C872 C871 1.398 . S
C872 C873 1.391 . S
C873 H861 0.950 . S
C873 C869 1.393 . S
C873 C872 1.391 . S
C874 H864 0.950 . S
C874 C875 1.386 . S
C874 C876 1.391 . S
C875 C874 1.386 . S
C875 C879 1.393 . S
C876 H865 0.950 . S
C876 C874 1.391 . S
C876 C877 1.400 . S
C877 C871 1.491 . S
C877 C876 1.400 . S
C877 C878 1.398 . S
C878 H866 0.950 . S
C878 C877 1.398 . S
C878 C879 1.391 . S
C879 H867 0.950 . S
C879 C875 1.393 . S
C879 C878 1.391 . S
H880 C888 0.950 . S
H881 C893 0.950 . S
H882 C890 0.950 . S
H883 C892 0.950 . S
H884 C894 0.950 . S
H885 C896 0.950 . S
H886 C898 0.950 . S
H887 C899 0.950 . S
C888 H880 0.950 . S
C888 C889 1.386 . S
C888 C890 1.391 . S
C889 C888 1.386 . S
C889 C893 1.393 . S
C890 H882 0.950 . S
C890 C888 1.391 . S
C890 C891 1.400 . S
C891 C890 1.400 . S
C891 C892 1.398 . S
C891 C897 1.491 . S
C892 H883 0.950 . S
C892 C891 1.398 . S
C892 C893 1.391 . S
C893 H881 0.950 . S
C893 C889 1.393 . S
C893 C892 1.391 . S
C894 H884 0.950 . S
C894 C895 1.386 . S
C894 C896 1.391 . S
C895 C894 1.386 . S
C895 C899 1.393 . S
C896 H885 0.950 . S
C896 C894 1.391 . S
C896 C897 1.400 . S
C897 C891 1.491 . S
C897 C896 1.400 . S
C897 C898 1.398 . S
C898 H886 0.950 . S
C898 C897 1.398 . S
C898 C899 1.391 . S
C899 H887 0.950 . S
C899 C895 1.393 . S
C899 C898 1.391 . S
H900 C908 0.950 . S
H901 C913 0.950 . S
H902 C910 0.950 . S
H903 C912 0.950 . S
H904 C914 0.950 . S
H905 C916 0.950 . S
H906 C918 0.950 . S
H907 C919 0.950 . S
C908 H900 0.950 . S
C908 C909 1.386 . S
C908 C910 1.391 . S
C909 C908 1.386 . S
C909 C913 1.393 . S
C910 H902 0.950 . S
C910 C908 1.391 . S
C910 C911 1.400 . S
C911 C910 1.400 . S
C911 C912 1.398 . S
C911 C917 1.491 . S
C912 H903 0.950 . S
C912 C911 1.398 . S
C912 C913 1.391 . S
C913 H901 0.950 . S
C913 C909 1.393 . S
C913 C912 1.391 . S
C914 H904 0.950 . S
C914 C915 1.386 . S
C914 C916 1.391 . S
C915 C914 1.386 . S
C915 C919 1.393 . S
C916 H905 0.950 . S
C916 C914 1.391 . S
C916 C917 1.400 . S
C917 C911 1.491 . S
C917 C916 1.400 . S
C917 C918 1.398 . S
C918 H906 0.950 . S
C918 C917 1.398 . S
C918 C919 1.391 . S
C919 H907 0.950 . S
C919 C915 1.393 . S
C919 C918 1.391 . S
H920 C928 0.950 . S
H921 C933 0.950 . S
H922 C930 0.950 . S
H923 C932 0.950 . S
H924 C934 0.950 . S
H925 C936 0.950 . S
H926 C938 0.950 . S
H927 C939 0.950 . S
C928 H920 0.950 . S
C928 C929 1.386 . S
C928 C930 1.391 . S
C929 C928 1.386 . S
C929 C933 1.393 . S
C930 H922 0.950 . S
C930 C928 1.391 . S
C930 C931 1.400 . S
C931 C930 1.400 . S
C931 C932 1.398 . S
C931 C937 1.491 . S
C932 H923 0.950 . S
C932 C931 1.398 . S
C932 C933 1.391 . S
C933 H921 0.950 . S
C933 C929 1.393 . S
C933 C932 1.391 . S
C934 H924 0.950 . S
C934 C935 1.386 . S
C934 C936 1.391 . S
C935 C934 1.386 . S
C935 C939 1.393 . S
C936 H925 0.950 . S
C936 C934 1.391 . S
C936 C937 1.400 . S
C937 C931 1.491 . S
C937 C936 1.400 . S
C937 C938 1.398 . S
C938 H926 0.950 . S
C938 C937 1.398 . S
C938 C939 1.391 . S
C939 H927 0.950 . S
C939 C935 1.393 . S
C939 C938 1.391 . S
H940 C948 0.950 . S
H941 C953 0.950 . S
H942 C950 0.950 1_556 S
H943 C952 0.950 1_556 S
H944 C954 0.950 . S
H945 C956 0.950 . S
H946 C958 0.950 . S
H947 C959 0.950 . S
C948 H940 0.950 . S
C948 C949 1.386 . S
C948 C950 1.391 . S
C949 C948 1.386 . S
C949 C953 1.393 1_455 S
C950 H942 0.950 1_554 S
C950 C948 1.391 . S
C950 C951 1.400 1_554 S
C951 C950 1.400 1_556 S
C951 C952 1.398 1_456 S
C951 C957 1.491 . S
C952 H943 0.950 1_554 S
C952 C951 1.398 1_654 S
C952 C953 1.391 . S
C953 H941 0.950 . S
C953 C949 1.393 1_655 S
C953 C952 1.391 . S
C954 H944 0.950 . S
C954 C955 1.386 1_655 S
C954 C956 1.391 . S
C955 C954 1.386 1_455 S
C955 C959 1.393 . S
C956 H945 0.950 . S
C956 C954 1.391 . S
C956 C957 1.400 1_655 S
C957 C951 1.491 . S
C957 C956 1.400 1_455 S
C957 C958 1.398 . S
C958 H946 0.950 . S
C958 C957 1.398 . S
C958 C959 1.391 . S
C959 H947 0.950 . S
C959 C955 1.393 . S
C959 C958 1.391 . S
H960 C968 0.950 . S
H961 C973 0.950 . S
H962 C970 0.950 . S
H963 C972 0.950 . S
H964 C974 0.950 . S
H965 C976 0.950 . S
H966 C978 0.950 . S
H967 C979 0.950 . S
C968 H960 0.950 . S
C968 C969 1.386 . S
C968 C970 1.391 . S
C969 C968 1.386 . S
C969 C973 1.393 . S
C970 H962 0.950 . S
C970 C968 1.391 . S
C970 C971 1.400 . S
C971 C970 1.400 . S
C971 C972 1.398 . S
C971 C977 1.491 . S
C972 H963 0.950 . S
C972 C971 1.398 . S
C972 C973 1.391 . S
C973 H961 0.950 . S
C973 C969 1.393 . S
C973 C972 1.391 . S
C974 H964 0.950 . S
C974 C975 1.386 . S
C974 C976 1.391 . S
C975 C974 1.386 . S
C975 C979 1.393 . S
C976 H965 0.950 . S
C976 C974 1.391 . S
C976 C977 1.400 . S
C977 C971 1.491 . S
C977 C976 1.400 . S
C977 C978 1.398 . S
C978 H966 0.950 . S
C978 C977 1.398 . S
C978 C979 1.391 . S
C979 H967 0.950 . S
C979 C975 1.393 . S
C979 C978 1.391 . S
H980 C988 0.944 1_556 S
H981 C993 0.950 . S
H982 C990 0.950 . S
H983 C992 0.950 . S
H984 C994 0.950 . S
H985 C996 0.950 . S
H986 C998 0.950 . S
H987 C999 0.950 . S
C988 H980 0.944 1_554 S
C988 C989 1.367 1_554 S
C988 C990 1.415 . S
C989 C988 1.367 1_556 S
C989 C993 1.393 . S
C990 H982 0.950 . S
C990 C988 1.415 . S
C990 C991 1.400 . S
C991 C990 1.400 . S
C991 C992 1.398 . S
C991 C997 1.491 . S
C992 H983 0.950 . S
C992 C991 1.398 . S
C992 C993 1.391 1_554 S
C993 H981 0.950 . S
C993 C989 1.393 . S
C993 C992 1.391 1_556 S
C994 H984 0.950 . S
C994 C995 1.386 . S
C994 C996 1.391 . S
C995 C994 1.386 . S
C995 C999 1.393 . S
C996 H985 0.950 . S
C996 C994 1.391 . S
C996 C997 1.400 . S
C997 C991 1.491 . S
C997 C996 1.400 . S
C997 C998 1.398 . S
C998 H986 0.950 . S
C998 C997 1.398 . S
C998 C999 1.391 . S
C999 H987 0.950 . S
C999 C995 1.393 . S
C999 C998 1.391 . S
H1000 C1008 0.950 . S
H1001 C1013 0.950 . S
H1002 C1010 0.950 . S
H1003 C1012 0.950 . S
H1004 C1014 0.950 . S
H1005 C1016 0.950 . S
H1006 C1018 0.950 . S
H1007 C1019 0.950 . S
C1008 H1000 0.950 . S
C1008 C1009 1.386 . S
C1008 C1010 1.391 . S
C1009 C1008 1.386 . S
C1009 C1013 1.393 . S
C1010 H1002 0.950 . S
C1010 C1008 1.391 . S
C1010 C1011 1.400 . S
C1011 C1010 1.400 . S
C1011 C1012 1.398 . S
C1011 C1017 1.491 . S
C1012 H1003 0.950 . S
C1012 C1011 1.398 . S
C1012 C1013 1.391 . S
C1013 H1001 0.950 . S
C1013 C1009 1.393 . S
C1013 C1012 1.391 . S
C1014 H1004 0.950 . S
C1014 C1015 1.386 . S
C1014 C1016 1.391 . S
C1015 C1014 1.386 . S
C1015 C1019 1.393 . S
C1016 H1005 0.950 . S
C1016 C1014 1.391 . S
C1016 C1017 1.400 . S
C1017 C1011 1.491 . S
C1017 C1016 1.400 . S
C1017 C1018 1.398 . S
C1018 H1006 0.950 . S
C1018 C1017 1.398 . S
C1018 C1019 1.391 . S
C1019 H1007 0.950 . S
C1019 C1015 1.393 . S
C1019 C1018 1.391 . S
H1020 C1028 0.950 . S
H1021 C1033 0.950 . S
H1022 C1030 0.950 . S
H1023 C1032 0.950 . S
H1024 C1034 0.950 . S
H1025 C1036 0.950 . S
H1026 C1038 0.950 1_655 S
H1027 C1039 0.943 1_655 S
C1028 H1020 0.950 . S
C1028 C1029 1.386 1_655 S
C1028 C1030 1.391 . S
C1029 C1028 1.386 1_455 S
C1029 C1033 1.393 . S
C1030 H1022 0.950 . S
C1030 C1028 1.391 . S
C1030 C1031 1.400 1_655 S
C1031 C1030 1.400 1_455 S
C1031 C1032 1.398 . S
C1031 C1037 1.491 . S
C1032 H1023 0.950 . S
C1032 C1031 1.398 . S
C1032 C1033 1.391 . S
C1033 H1021 0.950 . S
C1033 C1029 1.393 . S
C1033 C1032 1.391 . S
C1034 H1024 0.950 . S
C1034 C1035 1.386 . S
C1034 C1036 1.391 . S
C1035 C1034 1.386 . S
C1035 C1039 1.393 . S
C1036 H1025 0.950 . S
C1036 C1034 1.391 . S
C1036 C1037 1.400 . S
C1037 C1031 1.491 . S
C1037 C1036 1.400 . S
C1037 C1038 1.398 . S
C1038 H1026 0.950 1_455 S
C1038 C1037 1.398 . S
C1038 C1039 1.391 . S
C1039 H1027 0.943 1_455 S
C1039 C1035 1.393 . S
C1039 C1038 1.391 . S
H1040 C1048 0.950 . S
H1041 C1053 0.950 . S
H1042 C1050 0.950 . S
H1043 C1052 0.950 . S
H1044 C1054 0.950 . S
H1045 C1056 0.950 . S
H1046 C1058 0.950 . S
H1047 C1059 0.950 . S
C1048 H1040 0.950 . S
C1048 C1049 1.386 . S
C1048 C1050 1.391 . S
C1049 C1048 1.386 . S
C1049 C1053 1.393 . S
C1050 H1042 0.950 . S
C1050 C1048 1.391 . S
C1050 C1051 1.400 . S
C1051 C1050 1.400 . S
C1051 C1052 1.398 . S
C1051 C1057 1.491 . S
C1052 H1043 0.950 . S
C1052 C1051 1.398 . S
C1052 C1053 1.391 . S
C1053 H1041 0.950 . S
C1053 C1049 1.393 . S
C1053 C1052 1.391 . S
C1054 H1044 0.950 . S
C1054 C1055 1.386 . S
C1054 C1056 1.391 . S
C1055 C1054 1.386 . S
C1055 C1059 1.393 . S
C1056 H1045 0.950 . S
C1056 C1054 1.391 . S
C1056 C1057 1.400 . S
C1057 C1051 1.491 . S
C1057 C1056 1.400 . S
C1057 C1058 1.398 . S
C1058 H1046 0.950 . S
C1058 C1057 1.398 . S
C1058 C1059 1.391 . S
C1059 H1047 0.950 . S
C1059 C1055 1.393 . S
C1059 C1058 1.391 . S
H1060 C1068 0.950 . S
H1061 C1073 0.950 . S
H1062 C1070 0.950 . S
H1063 C1072 0.950 . S
H1064 C1074 0.950 . S
H1065 C1076 0.950 . S
H1066 C1078 0.950 . S
H1067 C1079 0.950 . S
C1068 H1060 0.950 . S
C1068 C1069 1.386 . S
C1068 C1070 1.391 . S
C1069 C1068 1.386 . S
C1069 C1073 1.393 . S
C1070 H1062 0.950 . S
C1070 C1068 1.391 . S
C1070 C1071 1.400 . S
C1071 C1070 1.400 . S
C1071 C1072 1.398 . S
C1071 C1077 1.491 . S
C1072 H1063 0.950 . S
C1072 C1071 1.398 . S
C1072 C1073 1.391 . S
C1073 H1061 0.950 . S
C1073 C1069 1.393 . S
C1073 C1072 1.391 . S
C1074 H1064 0.950 . S
C1074 C1075 1.386 . S
C1074 C1076 1.391 . S
C1075 C1074 1.386 . S
C1075 C1079 1.393 . S
C1076 H1065 0.950 . S
C1076 C1074 1.391 . S
C1076 C1077 1.400 . S
C1077 C1071 1.491 . S
C1077 C1076 1.400 . S
C1077 C1078 1.398 . S
C1078 H1066 0.950 . S
C1078 C1077 1.398 . S
C1078 C1079 1.391 . S
C1079 H1067 0.950 . S
C1079 C1075 1.393 . S
C1079 C1078 1.391 . S
H1080 C1088 0.950 . S
H1081 C1093 0.950 . S
H1082 C1090 0.950 . S
H1083 C1092 0.950 . S
H1084 C1094 0.950 . S
H1085 C1096 0.950 . S
H1086 C1098 0.950 . S
H1087 C1099 0.950 . S
C1088 H1080 0.950 . S
C1088 C1089 1.386 . S
C1088 C1090 1.391 . S
C1089 C1088 1.386 . S
C1089 C1093 1.393 . S
C1090 H1082 0.950 . S
C1090 C1088 1.391 . S
C1090 C1091 1.400 . S
C1091 C1090 1.400 . S
C1091 C1092 1.398 . S
C1091 C1097 1.491 . S
C1092 H1083 0.950 . S
C1092 C1091 1.398 . S
C1092 C1093 1.391 . S
C1093 H1081 0.950 . S
C1093 C1089 1.393 . S
C1093 C1092 1.391 . S
C1094 H1084 0.950 . S
C1094 C1095 1.386 . S
C1094 C1096 1.391 . S
C1095 C1094 1.386 . S
C1095 C1099 1.393 . S
C1096 H1085 0.950 . S
C1096 C1094 1.391 . S
C1096 C1097 1.400 . S
C1097 C1091 1.491 . S
C1097 C1096 1.400 . S
C1097 C1098 1.398 . S
C1098 H1086 0.950 . S
C1098 C1097 1.398 . S
C1098 C1099 1.391 . S
C1099 H1087 0.950 . S
C1099 C1095 1.393 . S
C1099 C1098 1.391 . S
H1100 C1108 0.951 . S
H1101 C1113 0.950 . S
H1102 C1110 0.950 . S
H1103 C1112 0.950 . S
H1104 C1114 0.950 . S
H1105 C1116 0.950 . S
H1106 C1118 0.950 . S
H1107 C1119 0.950 . S
C1108 H1100 0.951 . S
C1108 C1109 1.390 . S
C1108 C1110 1.386 1_655 S
C1109 C1108 1.390 . S
C1109 C1113 1.393 . S
C1110 H1102 0.950 . S
C1110 C1108 1.386 1_455 S
C1110 C1111 1.400 . S
C1111 C1110 1.400 . S
C1111 C1112 1.398 . S
C1111 C1117 1.491 . S
C1112 H1103 0.950 . S
C1112 C1111 1.398 . S
C1112 C1113 1.391 1_455 S
C1113 H1101 0.950 . S
C1113 C1109 1.393 . S
C1113 C1112 1.391 1_655 S
C1114 H1104 0.950 . S
C1114 C1115 1.386 . S
C1114 C1116 1.391 . S
C1115 C1114 1.386 . S
C1115 C1119 1.393 . S
C1116 H1105 0.950 . S
C1116 C1114 1.391 . S
C1116 C1117 1.400 . S
C1117 C1111 1.491 . S
C1117 C1116 1.400 . S
C1117 C1118 1.398 . S
C1118 H1106 0.950 . S
C1118 C1117 1.398 . S
C1118 C1119 1.391 . S
C1119 H1107 0.950 . S
C1119 C1115 1.393 . S
C1119 C1118 1.391 . S
H1120 C1128 0.950 . S
H1121 C1133 0.950 . S
H1122 C1130 0.950 . S
H1123 C1132 0.950 . S
H1124 C1134 0.950 . S
H1125 C1136 0.950 . S
H1126 C1138 0.950 . S
H1127 C1139 0.950 . S
C1128 H1120 0.950 . S
C1128 C1129 1.386 . S
C1128 C1130 1.391 . S
C1129 C1128 1.386 . S
C1129 C1133 1.393 . S
C1130 H1122 0.950 . S
C1130 C1128 1.391 . S
C1130 C1131 1.400 . S
C1131 C1130 1.400 . S
C1131 C1132 1.398 . S
C1131 C1137 1.491 . S
C1132 H1123 0.950 . S
C1132 C1131 1.398 . S
C1132 C1133 1.391 . S
C1133 H1121 0.950 . S
C1133 C1129 1.393 . S
C1133 C1132 1.391 . S
C1134 H1124 0.950 . S
C1134 C1135 1.386 . S
C1134 C1136 1.391 . S
C1135 C1134 1.386 . S
C1135 C1139 1.393 . S
C1136 H1125 0.950 . S
C1136 C1134 1.391 . S
C1136 C1137 1.400 . S
C1137 C1131 1.491 . S
C1137 C1136 1.400 . S
C1137 C1138 1.398 . S
C1138 H1126 0.950 . S
C1138 C1137 1.398 . S
C1138 C1139 1.391 . S
C1139 H1127 0.950 . S
C1139 C1135 1.393 . S
C1139 C1138 1.391 . S
H1140 C1148 0.950 . S
H1141 C1153 0.950 . S
H1142 C1150 0.950 . S
H1143 C1152 0.950 . S
H1144 C1154 0.950 . S
H1145 C1156 0.950 . S
H1146 C1158 0.950 . S
H1147 C1159 0.950 . S
C1148 H1140 0.950 . S
C1148 C1149 1.386 . S
C1148 C1150 1.391 . S
C1149 C1148 1.386 . S
C1149 C1153 1.393 . S
C1150 H1142 0.950 . S
C1150 C1148 1.391 . S
C1150 C1151 1.400 . S
C1151 C1150 1.400 . S
C1151 C1152 1.398 . S
C1151 C1157 1.491 . S
C1152 H1143 0.950 . S
C1152 C1151 1.398 . S
C1152 C1153 1.391 . S
C1153 H1141 0.950 . S
C1153 C1149 1.393 . S
C1153 C1152 1.391 . S
C1154 H1144 0.950 . S
C1154 C1155 1.386 . S
C1154 C1156 1.391 . S
C1155 C1154 1.386 . S
C1155 C1159 1.393 . S
C1156 H1145 0.950 . S
C1156 C1154 1.391 . S
C1156 C1157 1.400 . S
C1157 C1151 1.491 . S
C1157 C1156 1.400 . S
C1157 C1158 1.398 . S
C1158 H1146 0.950 . S
C1158 C1157 1.398 . S
C1158 C1159 1.391 . S
C1159 H1147 0.950 . S
C1159 C1155 1.393 . S
C1159 C1158 1.391 . S
H1160 C1168 0.950 . S
H1161 C1173 0.950 . S
H1162 C1170 0.950 . S
H1163 C1172 0.950 . S
H1164 C1174 0.950 . S
H1165 C1176 0.950 . S
H1166 C1178 0.950 . S
H1167 C1179 0.950 . S
C1168 H1160 0.950 . S
C1168 C1169 1.386 . S
C1168 C1170 1.391 . S
C1169 C1168 1.386 . S
C1169 C1173 1.393 . S
C1170 H1162 0.950 . S
C1170 C1168 1.391 . S
C1170 C1171 1.400 . S
C1171 C1170 1.400 . S
C1171 C1172 1.398 . S
C1171 C1177 1.491 . S
C1172 H1163 0.950 . S
C1172 C1171 1.398 . S
C1172 C1173 1.391 . S
C1173 H1161 0.950 . S
C1173 C1169 1.393 . S
C1173 C1172 1.391 . S
C1174 H1164 0.950 . S
C1174 C1175 1.386 . S
C1174 C1176 1.391 . S
C1175 C1174 1.386 . S
C1175 C1179 1.393 . S
C1176 H1165 0.950 . S
C1176 C1174 1.391 . S
C1176 C1177 1.400 . S
C1177 C1171 1.491 . S
C1177 C1176 1.400 . S
C1177 C1178 1.398 . S
C1178 H1166 0.950 . S
C1178 C1177 1.398 . S
C1178 C1179 1.391 . S
C1179 H1167 0.950 . S
C1179 C1175 1.393 . S
C1179 C1178 1.391 . S
H1180 C1188 0.950 . S
H1181 C1193 0.950 1_655 S
H1182 C1190 0.950 . S
H1183 C1192 0.950 . S
H1184 C1194 0.950 . S
H1185 C1196 0.950 . S
H1186 C1198 0.950 . S
H1187 C1199 0.950 . S
C1188 H1180 0.950 . S
C1188 C1189 1.386 . S
C1188 C1190 1.391 1_655 S
C1189 C1188 1.386 . S
C1189 C1193 1.393 1_655 S
C1190 H1182 0.950 . S
C1190 C1188 1.391 1_455 S
C1190 C1191 1.400 . S
C1191 C1190 1.400 . S
C1191 C1192 1.398 . S
C1191 C1197 1.491 . S
C1192 H1183 0.950 . S
C1192 C1191 1.398 . S
C1192 C1193 1.391 . S
C1193 H1181 0.950 1_455 S
C1193 C1189 1.393 1_455 S
C1193 C1192 1.391 . S
C1194 H1184 0.950 . S
C1194 C1195 1.386 . S
C1194 C1196 1.391 . S
C1195 C1194 1.386 . S
C1195 C1199 1.393 . S
C1196 H1185 0.950 . S
C1196 C1194 1.391 . S
C1196 C1197 1.400 . S
C1197 C1191 1.491 . S
C1197 C1196 1.400 . S
C1197 C1198 1.398 . S
C1198 H1186 0.950 . S
C1198 C1197 1.398 . S
C1198 C1199 1.391 . S
C1199 H1187 0.950 . S
C1199 C1195 1.393 . S
C1199 C1198 1.391 . S
H1200 C1208 0.950 . S
H1201 C1213 0.950 . S
H1202 C1210 0.950 . S
H1203 C1212 0.950 . S
H1204 C1214 0.950 . S
H1205 C1216 0.950 . S
H1206 C1218 0.950 . S
H1207 C1219 0.950 . S
C1208 H1200 0.950 . S
C1208 C1209 1.386 . S
C1208 C1210 1.391 . S
C1209 C1208 1.386 . S
C1209 C1213 1.393 . S
C1210 H1202 0.950 . S
C1210 C1208 1.391 . S
C1210 C1211 1.400 . S
C1211 C1210 1.400 . S
C1211 C1212 1.398 . S
C1211 C1217 1.491 . S
C1212 H1203 0.950 . S
C1212 C1211 1.398 . S
C1212 C1213 1.391 . S
C1213 H1201 0.950 . S
C1213 C1209 1.393 . S
C1213 C1212 1.391 . S
C1214 H1204 0.950 . S
C1214 C1215 1.386 . S
C1214 C1216 1.391 . S
C1215 C1214 1.386 . S
C1215 C1219 1.393 . S
C1216 H1205 0.950 . S
C1216 C1214 1.391 . S
C1216 C1217 1.400 . S
C1217 C1211 1.491 . S
C1217 C1216 1.400 . S
C1217 C1218 1.398 . S
C1218 H1206 0.950 . S
C1218 C1217 1.398 . S
C1218 C1219 1.391 . S
C1219 H1207 0.950 . S
C1219 C1215 1.393 . S
C1219 C1218 1.391 . S
H1220 C1228 0.950 . S
H1221 C1233 0.950 . S
H1222 C1230 0.950 . S
H1223 C1232 0.950 . S
H1224 C1234 0.950 . S
H1225 C1236 0.950 . S
H1226 C1238 0.950 . S
H1227 C1239 0.950 . S
C1228 H1220 0.950 . S
C1228 C1229 1.386 . S
C1228 C1230 1.391 . S
C1229 C1228 1.386 . S
C1229 C1233 1.393 . S
C1230 H1222 0.950 . S
C1230 C1228 1.391 . S
C1230 C1231 1.400 . S
C1231 C1230 1.400 . S
C1231 C1232 1.398 . S
C1231 C1237 1.491 . S
C1232 H1223 0.950 . S
C1232 C1231 1.398 . S
C1232 C1233 1.391 . S
C1233 H1221 0.950 . S
C1233 C1229 1.393 . S
C1233 C1232 1.391 . S
C1234 H1224 0.950 . S
C1234 C1235 1.386 . S
C1234 C1236 1.391 . S
C1235 C1234 1.386 . S
C1235 C1239 1.393 . S
C1236 H1225 0.950 . S
C1236 C1234 1.391 . S
C1236 C1237 1.400 . S
C1237 C1231 1.491 . S
C1237 C1236 1.400 . S
C1237 C1238 1.398 . S
C1238 H1226 0.950 . S
C1238 C1237 1.398 . S
C1238 C1239 1.391 . S
C1239 H1227 0.950 . S
C1239 C1235 1.393 . S
C1239 C1238 1.391 . S
H1240 C1248 0.950 . S
H1241 C1253 0.950 . S
H1242 C1250 0.950 . S
H1243 C1252 0.950 . S
H1244 C1254 0.950 . S
H1245 C1256 0.950 . S
H1246 C1258 0.950 . S
H1247 C1259 0.950 . S
C1248 H1240 0.950 . S
C1248 C1249 1.386 . S
C1248 C1250 1.391 1_565 S
C1249 C1248 1.386 . S
C1249 C1253 1.393 . S
C1250 H1242 0.950 . S
C1250 C1248 1.391 1_545 S
C1250 C1251 1.400 . S
C1251 C1250 1.400 . S
C1251 C1252 1.398 . S
C1251 C1257 1.491 . S
C1252 H1243 0.950 . S
C1252 C1251 1.398 . S
C1252 C1253 1.391 1_545 S
C1253 H1241 0.950 . S
C1253 C1249 1.393 . S
C1253 C1252 1.391 1_565 S
C1254 H1244 0.950 . S
C1254 C1255 1.386 . S
C1254 C1256 1.391 . S
C1255 C1254 1.386 . S
C1255 C1259 1.393 . S
C1256 H1245 0.950 . S
C1256 C1254 1.391 . S
C1256 C1257 1.400 . S
C1257 C1251 1.491 . S
C1257 C1256 1.400 . S
C1257 C1258 1.398 . S
C1258 H1246 0.950 . S
C1258 C1257 1.398 . S
C1258 C1259 1.391 . S
C1259 H1247 0.950 . S
C1259 C1255 1.393 . S
C1259 C1258 1.391 . S
H1260 C1268 0.950 . S
H1261 C1273 0.950 . S
H1262 C1270 0.950 . S
H1263 C1272 0.950 . S
H1264 C1274 0.950 . S
H1265 C1276 0.950 . S
H1266 C1278 0.950 . S
H1267 C1279 0.950 . S
C1268 H1260 0.950 . S
C1268 C1269 1.386 . S
C1268 C1270 1.391 . S
C1269 C1268 1.386 . S
C1269 C1273 1.393 . S
C1270 H1262 0.950 . S
C1270 C1268 1.391 . S
C1270 C1271 1.400 . S
C1271 C1270 1.400 . S
C1271 C1272 1.398 . S
C1271 C1277 1.491 . S
C1272 H1263 0.950 . S
C1272 C1271 1.398 . S
C1272 C1273 1.391 . S
C1273 H1261 0.950 . S
C1273 C1269 1.393 . S
C1273 C1272 1.391 . S
C1274 H1264 0.950 . S
C1274 C1275 1.386 . S
C1274 C1276 1.391 . S
C1275 C1274 1.386 . S
C1275 C1279 1.393 . S
C1276 H1265 0.950 . S
C1276 C1274 1.391 . S
C1276 C1277 1.400 . S
C1277 C1271 1.491 . S
C1277 C1276 1.400 . S
C1277 C1278 1.398 . S
C1278 H1266 0.950 . S
C1278 C1277 1.398 . S
C1278 C1279 1.391 . S
C1279 H1267 0.950 . S
C1279 C1275 1.393 . S
C1279 C1278 1.391 . S
H1280 C1288 0.950 . S
H1281 C1293 0.950 . S
H1282 C1290 0.950 . S
H1283 C1292 0.950 1_565 S
H1284 C1294 0.950 . S
H1285 C1296 0.950 . S
H1286 C1298 0.950 . S
H1287 C1299 0.950 . S
C1288 H1280 0.950 . S
C1288 C1289 1.386 . S
C1288 C1290 1.391 1_545 S
C1289 C1288 1.386 . S
C1289 C1293 1.393 1_554 S
C1290 H1282 0.950 . S
C1290 C1288 1.391 1_565 S
C1290 C1291 1.400 . S
C1291 C1290 1.400 . S
C1291 C1292 1.398 1_564 S
C1291 C1297 1.491 . S
C1292 H1283 0.950 1_545 S
C1292 C1291 1.398 1_546 S
C1292 C1293 1.391 . S
C1293 H1281 0.950 . S
C1293 C1289 1.393 1_556 S
C1293 C1292 1.391 . S
C1294 H1284 0.950 . S
C1294 C1295 1.386 1_556 S
C1294 C1296 1.391 . S
C1295 C1294 1.386 1_554 S
C1295 C1299 1.393 . S
C1296 H1285 0.950 . S
C1296 C1294 1.391 . S
C1296 C1297 1.400 1_556 S
C1297 C1291 1.491 . S
C1297 C1296 1.400 1_554 S
C1297 C1298 1.398 . S
C1298 H1286 0.950 . S
C1298 C1297 1.398 . S
C1298 C1299 1.391 . S
C1299 H1287 0.950 . S
C1299 C1295 1.393 . S
C1299 C1298 1.391 . S
H1300 C1308 0.950 . S
H1301 C1313 0.950 . S
H1302 C1310 0.950 . S
H1303 C1312 0.950 . S
H1304 C1314 0.950 . S
H1305 C1316 0.950 . S
H1306 C1318 0.950 . S
H1307 C1319 0.950 . S
C1308 H1300 0.950 . S
C1308 C1309 1.386 . S
C1308 C1310 1.391 . S
C1309 C1308 1.386 . S
C1309 C1313 1.393 . S
C1310 H1302 0.950 . S
C1310 C1308 1.391 . S
C1310 C1311 1.400 . S
C1311 C1310 1.400 . S
C1311 C1312 1.398 . S
C1311 C1317 1.491 . S
C1312 H1303 0.950 . S
C1312 C1311 1.398 . S
C1312 C1313 1.391 . S
C1313 H1301 0.950 . S
C1313 C1309 1.393 . S
C1313 C1312 1.391 . S
C1314 H1304 0.950 . S
C1314 C1315 1.386 . S
C1314 C1316 1.391 . S
C1315 C1314 1.386 . S
C1315 C1319 1.393 . S
C1316 H1305 0.950 . S
C1316 C1314 1.391 . S
C1316 C1317 1.400 . S
C1317 C1311 1.491 . S
C1317 C1316 1.400 . S
C1317 C1318 1.398 . S
C1318 H1306 0.950 . S
C1318 C1317 1.398 . S
C1318 C1319 1.391 . S
C1319 H1307 0.950 . S
C1319 C1315 1.393 . S
C1319 C1318 1.391 . S
H1320 C1328 0.950 . S
H1321 C1333 0.950 . S
H1322 C1330 0.950 . S
H1323 C1332 0.950 . S
H1324 C1334 0.950 . S
H1325 C1336 0.950 . S
H1326 C1338 0.950 . S
H1327 C1339 0.950 . S
C1328 H1320 0.950 . S
C1328 C1329 1.386 1_556 S
C1328 C1330 1.391 . S
C1329 C1328 1.386 1_554 S
C1329 C1333 1.393 . S
C1330 H1322 0.950 . S
C1330 C1328 1.391 . S
C1330 C1331 1.400 1_556 S
C1331 C1330 1.400 1_554 S
C1331 C1332 1.398 . S
C1331 C1337 1.491 . S
C1332 H1323 0.950 . S
C1332 C1331 1.398 . S
C1332 C1333 1.391 . S
C1333 H1321 0.950 . S
C1333 C1329 1.393 . S
C1333 C1332 1.391 . S
C1334 H1324 0.950 . S
C1334 C1335 1.386 1_554 S
C1334 C1336 1.391 . S
C1335 C1334 1.386 1_556 S
C1335 C1339 1.393 . S
C1336 H1325 0.950 . S
C1336 C1334 1.391 . S
C1336 C1337 1.400 . S
C1337 C1331 1.491 . S
C1337 C1336 1.400 . S
C1337 C1338 1.398 1_554 S
C1338 H1326 0.950 . S
C1338 C1337 1.398 1_556 S
C1338 C1339 1.391 . S
C1339 H1327 0.950 . S
C1339 C1335 1.393 . S
C1339 C1338 1.391 . S
H1340 C1348 0.950 . S
H1341 C1353 0.950 . S
H1342 C1350 0.950 . S
H1343 C1352 0.950 . S
H1344 C1354 0.950 . S
H1345 C1356 0.950 . S
H1346 C1358 0.950 . S
H1347 C1359 0.950 . S
C1348 H1340 0.950 . S
C1348 C1349 1.386 . S
C1348 C1350 1.391 . S
C1349 C1348 1.386 . S
C1349 C1353 1.393 . S
C1350 H1342 0.950 . S
C1350 C1348 1.391 . S
C1350 C1351 1.400 . S
C1351 C1350 1.400 . S
C1351 C1352 1.398 . S
C1351 C1357 1.491 . S
C1352 H1343 0.950 . S
C1352 C1351 1.398 . S
C1352 C1353 1.391 . S
C1353 H1341 0.950 . S
C1353 C1349 1.393 . S
C1353 C1352 1.391 . S
C1354 H1344 0.950 . S
C1354 C1355 1.386 . S
C1354 C1356 1.391 . S
C1355 C1354 1.386 . S
C1355 C1359 1.393 . S
C1356 H1345 0.950 . S
C1356 C1354 1.391 . S
C1356 C1357 1.400 . S
C1357 C1351 1.491 . S
C1357 C1356 1.400 . S
C1357 C1358 1.398 . S
C1358 H1346 0.950 . S
C1358 C1357 1.398 . S
C1358 C1359 1.391 . S
C1359 H1347 0.950 . S
C1359 C1355 1.393 . S
C1359 C1358 1.391 . S
H1360 C1368 0.950 . S
H1361 C1373 0.950 . S
H1362 C1370 0.950 . S
H1363 C1372 0.950 . S
H1364 C1374 0.950 . S
H1365 C1376 0.950 . S
H1366 C1378 0.950 . S
H1367 C1379 0.950 . S
C1368 H1360 0.950 . S
C1368 C1369 1.386 . S
C1368 C1370 1.391 . S
C1369 C1368 1.386 . S
C1369 C1373 1.393 . S
C1370 H1362 0.950 . S
C1370 C1368 1.391 . S
C1370 C1371 1.400 . S
C1371 C1370 1.400 . S
C1371 C1372 1.398 . S
C1371 C1377 1.491 . S
C1372 H1363 0.950 . S
C1372 C1371 1.398 . S
C1372 C1373 1.391 . S
C1373 H1361 0.950 . S
C1373 C1369 1.393 . S
C1373 C1372 1.391 . S
C1374 H1364 0.950 . S
C1374 C1375 1.386 . S
C1374 C1376 1.391 . S
C1375 C1374 1.386 . S
C1375 C1379 1.393 . S
C1376 H1365 0.950 . S
C1376 C1374 1.391 . S
C1376 C1377 1.400 . S
C1377 C1371 1.491 . S
C1377 C1376 1.400 . S
C1377 C1378 1.398 . S
C1378 H1366 0.950 . S
C1378 C1377 1.398 . S
C1378 C1379 1.391 . S
C1379 H1367 0.950 . S
C1379 C1375 1.393 . S
C1379 C1378 1.391 . S
C435 C416 1.080 . S
C429 C11 1.140 . S
C449 C19 1.379 . S
C455 C345 1.256 . S
C469 C37 1.185 . S
C475 C374 1.043 . S
C495 C387 1.169 . S
C489 C42 1.299 . S
C509 C25 1.160 1_455 S
C515 C408 1.009 . S
C535 C353 1.244 . S
C529 C28 1.293 . S
C555 C366 1.001 . S
C549 C51 1.188 . S
C575 C395 1.297 . S
C569 C5 1.364 . S
C589 C61 1.139 . S
C595 C397 0.987 . S
C615 C411 1.289 . S
C609 C81 1.356 . S
C635 C355 0.996 1_545 S
C629 C89 1.218 . S
C655 C369 1.271 . S
C649 C107 1.288 . S
C669 C56 1.134 . S
C675 C348 1.023 1_545 S
C689 C79 1.310 . S
C695 C376 1.213 . S
C709 C84 1.187 . S
C715 C390 1.084 . S
C735 C418 1.278 . S
C729 C109 1.377 . S
C755 C227 1.144 1_556 S
C749 C103 1.266 . S
C775 C208 0.975 1_554 S
C769 C117 1.179 . S
C795 C222 1.272 . S
C789 C137 1.315 . S
C815 C243 1.005 . S
C809 C140 1.084 . S
C829 C67 1.267 . S
C835 C229 1.154 . S
C849 C70 1.170 . S
C855 C180 1.061 . S
C869 C135 1.384 . S
C875 C240 1.295 . S
C889 C163 1.329 . S
C895 C206 1.325 . S
C915 C269 1.057 . S
C909 C39 1.129 . S
C935 C282 1.239 . S
C929 C47 1.367 . S
C949 C9 1.192 . S
C955 C311 1.015 . S
C969 C14 1.308 . S
C975 C324 1.164 . S
C995 C261 0.969 . S
C989 C53 1.174 . S
C1015 C290 1.212 . S
C1009 C0 1.290 . S
C1029 C23 1.183 . S
C1035 C303 0.993 . S
C1055 C332 1.294 . S
C1049 C33 1.365 . S
C1069 C159 1.184 . S
C1075 C334 1.032 . S
C1089 C123 1.335 . S
C1095 C264 1.294 . S
C1115 C292 1.018 . S
C1109 C131 1.235 . S
C1129 C149 1.276 . S
C1135 C306 1.233 . S
C1155 C285 1.071 . S
C1149 C154 1.134 . S
C1169 C121 1.297 . S
C1175 C313 1.219 . S
C1195 C327 1.089 . S
C1189 C126 1.175 . S
C1215 C271 1.245 . S
C1209 C151 1.362 . S
C1235 C187 1.054 . S
C1229 C145 1.258 . S
C1255 C250 1.042 . S
C1249 C75 1.223 . S
C1269 C95 1.327 . S
C1275 C177 1.192 . S
C1295 C201 0.980 1_554 S
C1289 C98 1.135 . S
C1315 C185 1.207 . S
C1309 C165 1.285 . S
C1329 C112 1.202 . S
C1335 C219 0.974 1_556 S
C1349 C93 1.340 . S
C1355 C198 1.240 . S
C1369 C65 1.333 . S
C1375 C248 1.283 . S
