# Generated by pormake.
# Topology pth, (4,4)-cn, num edge types: 1
# Building blocks:
#     Node 0, Type 0, BuildingBlock: UXUYUI_clean_sbu_0, # of connection points: 4
#     Node 1, Type 0, BuildingBlock: UXUYUI_clean_sbu_0, # of connection points: 4
#     Node 2, Type 0, BuildingBlock: UXUYUI_clean_sbu_0, # of connection points: 4
#     Node 3, Type 1, BuildingBlock: MIFKUJ_clean_linker_1, # of connection points: 4
#     Node 4, Type 1, BuildingBlock: MIFKUJ_clean_linker_1, # of connection points: 4
#     Node 5, Type 1, BuildingBlock: MIFKUJ_clean_linker_1, # of connection points: 4
#     Edge 6, Type (0, 1), BuildingBlock: EZIPEK_clean_linker_0, # of connection points: 2
#     Edge 7, Type (0, 1), BuildingBlock: EZIPEK_clean_linker_0, # of connection points: 2
#     Edge 8, Type (0, 1), BuildingBlock: EZIPEK_clean_linker_0, # of connection points: 2
#     Edge 9, Type (0, 1), BuildingBlock: EZIPEK_clean_linker_0, # of connection points: 2
#     Edge 10, Type (0, 1), BuildingBlock: EZIPEK_clean_linker_0, # of connection points: 2
#     Edge 11, Type (0, 1), BuildingBlock: EZIPEK_clean_linker_0, # of connection points: 2
#     Edge 12, Type (0, 1), BuildingBlock: EZIPEK_clean_linker_0, # of connection points: 2
#     Edge 13, Type (0, 1), BuildingBlock: EZIPEK_clean_linker_0, # of connection points: 2
#     Edge 14, Type (0, 1), BuildingBlock: EZIPEK_clean_linker_0, # of connection points: 2
#     Edge 15, Type (0, 1), BuildingBlock: EZIPEK_clean_linker_0, # of connection points: 2
#     Edge 16, Type (0, 1), BuildingBlock: EZIPEK_clean_linker_0, # of connection points: 2
#     Edge 17, Type (0, 1), BuildingBlock: EZIPEK_clean_linker_0, # of connection points: 2
# Relax obj value: 0.075
# Max RMSD: 0.209
# Mean RMSD: 0.121
data_MOF--net-pth--node1-UXUYUI_clean_sbu_0--node2-MIFKUJ_clean_linker_1--edge1-EZIPEK_clean_linker_0
_symmetry_space_group_name_H-M    P1
_symmetry_Int_Tables_number       1
_symmetry_cell_setting            triclinic
loop_
_symmetry_equiv_pos_as_xyz
'x, y, z'
_cell_length_a     28.574119
_cell_length_b     28.580779
_cell_length_c     61.390753
_cell_angle_alpha  90.029962
_cell_angle_beta   89.99377
_cell_angle_gamma 120.00388
loop_
_atom_site_label
_atom_site_type_symbol
_atom_site_fract_x
_atom_site_fract_y
_atom_site_fract_z
_atom_type_partial_charge
Li0 Li 0.04624 0.03974 0.03366 0.0
Li1 Li 0.99221 0.03901 0.06182 0.0
Li2 Li 0.01552 0.96719 0.06056 0.0
Li3 Li 0.94961 0.97196 0.0329 0.0
C4 C 0.11842 0.07761 0.06484 0.0
N5 N 0.22929 0.14379 0.06329 0.0
C6 C 0.14096 0.13302 0.06112 0.0
C7 C 0.15221 0.05591 0.06794 0.0
C8 C 0.19712 0.16578 0.06034 0.0
C9 C 0.20819 0.09005 0.06707 0.0
C10 C 0.96088 0.08259 0.03132 0.0
C11 C 0.88295 0.09392 0.02864 0.0
N12 N 0.91467 0.14736 0.03329 0.0
C13 C 0.99281 0.13768 0.03595 0.0
C14 C 0.90557 0.0605 0.02752 0.0
C15 C 0.96864 0.16972 0.03692 0.0
C16 C 0.09389 0.12082 1.00216 0.0
N17 N 0.10362 0.08642 0.01405 0.0
C18 C 0.19175 0.12349 0.99825 0.0
C19 C 0.15126 0.08668 0.01215 0.0
C20 C 0.18292 0.16026 0.98636 0.0
C21 C 0.13323 0.1584 0.98824 0.0
H22 H 0.05564 0.11951 0.00357 0.0
H23 H 0.15825 0.05894 0.02161 0.0
C24 C 0.02579 0.11597 0.09522 0.0
N25 N 0.98233 0.08431 0.08246 0.0
C26 C 0.02452 0.15305 0.10961 0.0
C27 C 0.93263 0.12265 0.09842 0.0
C28 C 0.93584 0.08637 0.08406 0.0
C29 C 0.97779 0.15709 0.11109 0.0
H30 H 0.0619 0.11304 0.09407 0.0
H31 H 0.90162 0.06073 0.0739 0.0
C32 C 0.04819 0.95728 0.01431 0.0
N33 N 0.12102 0.95301 0.98593 0.0
C34 C 0.04598 0.9664 0.99207 0.0
C35 C 0.08725 0.94572 0.02211 0.0
C36 C 0.08326 0.96422 0.97799 0.0
C37 C 0.1237 0.94372 0.0075 0.0
C38 C 0.91187 0.95671 0.08238 0.0
C39 C 0.93311 0.9628 0.10336 0.0
C40 C 0.86007 0.94929 0.0795 0.0
C41 C 0.90218 0.9617 0.12119 0.0
C42 C 0.83037 0.9483 0.09775 0.0
N43 N 0.85189 0.95453 0.11804 0.0
C44 C 0.04642 0.9253 0.09682 0.0
C45 C 0.99914 0.86469 0.0679 0.0
C46 C 0.04442 0.8832 0.1092 0.0
N47 N 0.02351 0.91509 0.07667 0.0
C48 C 0.99631 0.82164 0.07965 0.0
C49 C 0.01844 0.83068 0.10062 0.0
H50 H 0.06461 0.96566 0.10352 0.0
H51 H 0.98047 0.85775 0.05201 0.0
C52 C 0.89572 0.93624 0.99288 0.0
N53 N 0.89042 0.92656 0.01468 0.0
C54 C 0.8578 0.8986 0.97843 0.0
C55 C 0.80782 0.84354 0.00925 0.0
C56 C 0.84736 0.88166 0.02308 0.0
C57 C 0.8137 0.85121 0.98661 0.0
H58 H 0.93056 0.97219 0.98669 0.0
H59 H 0.84487 0.87436 0.04043 0.0
O60 O 0.06353 0.04486 0.06564 0.0
O61 O 0.98379 0.05057 0.03022 0.0
O62 O 0.0125 0.95988 0.02841 0.0
O63 O 0.94197 0.95872 0.06472 0.0
H64 H 0.11531 0.15041 0.05862 0.0
H65 H 0.13541 0.01312 0.07081 0.0
H66 H 0.21513 0.20866 0.05732 0.0
H67 H 0.23485 0.07379 0.06933 0.0
H68 H 0.84015 0.07736 0.02584 0.0
H69 H 0.0357 0.15536 0.03894 0.0
H70 H 0.88032 0.01796 0.0239 0.0
H71 H 0.99277 0.21235 0.04059 0.0
H72 H 0.22978 0.12392 0.99704 0.0
H73 H 0.12518 0.18611 0.97916 0.0
H74 H 0.05991 0.1789 0.11929 0.0
H75 H 0.89588 0.12479 0.09929 0.0
H76 H 0.01628 0.97577 0.98578 0.0
H77 H 0.08979 0.93889 0.03929 0.0
H78 H 0.08228 0.97158 0.96076 0.0
H79 H 0.15429 0.93504 0.01333 0.0
H80 H 0.97331 0.96899 0.10582 0.0
H81 H 0.84331 0.94518 0.06334 0.0
H82 H 0.91822 0.96669 0.13752 0.0
H83 H 0.79034 0.94289 0.09578 0.0
H84 H 0.06156 0.89113 0.12543 0.0
H85 H 0.9758 0.78139 0.0727 0.0
H86 H 0.8635 0.90563 0.96104 0.0
H87 H 0.77431 0.80727 0.01605 0.0
Li88 Li 0.98574 0.95505 0.36431 0.0
Li89 Li 0.04916 0.01071 0.39245 0.0
Li90 Li 0.95379 0.99055 0.39416 0.0
Li91 Li 0.01544 0.05185 0.36676 0.0
C92 C 0.9949 0.90122 0.40249 0.0
N93 N 0.02343 0.82653 0.41587 0.0
C94 C 0.02825 0.89008 0.38944 0.0
C95 C 0.97608 0.87438 0.42235 0.0
C96 C 0.04218 0.85217 0.39647 0.0
C97 C 0.99096 0.83677 0.42883 0.0
C98 C 0.11296 0.04458 0.3552 0.0
C99 C 0.20134 0.12382 0.35794 0.0
N100 N 0.2222 0.09862 0.34589 0.0
C101 C 0.13522 0.01946 0.3428 0.0
C102 C 0.14622 0.09715 0.36281 0.0
C103 C 0.19056 0.04746 0.33829 0.0
C104 C 0.99406 0.91295 0.32459 0.0
N105 N 0.96908 0.89799 0.34428 0.0
C106 C 0.93524 0.80477 0.33607 0.0
C107 C 0.93876 0.84509 0.35002 0.0
C108 C 0.96301 0.81949 0.31615 0.0
C109 C 0.9916 0.87405 0.31017 0.0
H110 H 0.01782 0.95535 0.32051 0.0
H111 H 0.91948 0.83437 0.36582 0.0
C112 C 0.11374 0.03499 0.43081 0.0
N113 N 0.10791 0.01745 0.40983 0.0
C114 C 0.153 0.03428 0.44426 0.0
C115 C 0.17951 0.99795 0.41419 0.0
C116 C 0.14012 0.99951 0.40139 0.0
C117 C 0.18581 0.01491 0.43591 0.0
H118 H 0.08702 0.04823 0.43723 0.0
H119 H 0.13407 0.98447 0.38492 0.0
C120 C 0.88928 0.95266 0.35667 0.0
N121 N 0.78509 0.87618 0.34518 0.0
C122 C 0.86354 0.9625 0.3394 0.0
C123 C 0.86208 0.90396 0.36812 0.0
C124 C 0.81083 0.92331 0.33384 0.0
C125 C 0.80941 0.8658 0.36205 0.0
C126 C 0.03648 0.11145 0.40499 0.0
C127 C 0.99769 0.12728 0.40715 0.0
C128 C 0.09064 0.14844 0.40954 0.0
C129 C 0.01394 0.1804 0.41317 0.0
C130 C 0.10529 0.20119 0.41555 0.0
N131 N 0.06698 0.21597 0.41718 0.0
C132 C 0.89477 0.96399 0.43376 0.0
C133 C 0.86095 0.99548 0.40548 0.0
C134 C 0.85624 0.96237 0.44826 0.0
N135 N 0.89654 0.98067 0.41288 0.0
C136 C 0.82193 0.9946 0.41941 0.0
C137 C 0.81984 0.97851 0.4411 0.0
H138 H 0.92425 0.95345 0.43929 0.0
H139 H 0.86406 0.00974 0.38894 0.0
C140 C 0.06508 0.13435 0.33382 0.0
N141 N 0.02652 0.1122 0.34958 0.0
C142 C 0.06731 0.17451 0.32012 0.0
C143 C 0.98983 0.1678 0.33892 0.0
C144 C 0.98898 0.12776 0.35218 0.0
C145 C 0.02908 0.19118 0.32261 0.0
H146 H 0.09291 0.11972 0.3313 0.0
H147 H 0.9572 0.1077 0.36408 0.0
O148 O 0.98123 0.93868 0.39607 0.0
O149 O 0.05909 0.01728 0.36021 0.0
O150 O 0.94091 0.99071 0.36223 0.0
O151 O 0.0213 0.0595 0.39924 0.0
H152 H 0.04373 0.91089 0.37414 0.0
H153 H 0.95029 0.88257 0.43266 0.0
H154 H 0.06805 0.84329 0.38654 0.0
H155 H 0.97672 0.81573 0.44417 0.0
H156 H 0.22751 0.16458 0.36371 0.0
H157 H 0.11017 0.97854 0.33697 0.0
H158 H 0.12948 0.11725 0.37218 0.0
H159 H 0.20838 0.02846 0.32879 0.0
H160 H 0.91296 0.76285 0.34108 0.0
H161 H 0.01346 0.88647 0.2949 0.0
H162 H 0.15693 0.04743 0.46104 0.0
H163 H 0.2041 0.98251 0.40736 0.0
H164 H 0.88412 1.00006 0.33041 0.0
H165 H 0.88128 0.89565 0.38156 0.0
H166 H 0.79039 0.93037 0.32051 0.0
H167 H 0.78787 0.82794 0.37076 0.0
H168 H 0.95549 0.09897 0.40411 0.0
H169 H 0.12101 0.13648 0.40863 0.0
H170 H 0.98437 0.1933 0.41471 0.0
H171 H 0.1471 0.23029 0.41901 0.0
H172 H 0.8556 0.94996 0.46498 0.0
H173 H 0.79449 0.00753 0.41349 0.0
H174 H 0.0976 0.19145 0.30742 0.0
H175 H 0.95934 0.17941 0.34097 0.0
Li176 Li 0.0383 0.99044 0.70183 0.0
Li177 Li 0.033 0.04838 0.72985 0.0
Li178 Li 0.96296 0.94938 0.7287 0.0
Li179 Li 0.96274 0.01219 0.70196 0.0
C180 C 0.06852 0.95835 0.74098 0.0
N181 N 0.12138 0.90541 0.75544 0.0
C182 C 0.11918 0.98729 0.75094 0.0
C183 C 0.04435 0.90232 0.7388 0.0
C184 C 0.1454 0.95986 0.758 0.0
C185 C 0.07179 0.87633 0.7461 0.0
C186 C 0.0766 0.11523 0.69538 0.0
C187 C 0.09555 0.20745 0.69654 0.0
N188 N 0.14797 0.22478 0.69132 0.0
C189 C 0.13048 0.13391 0.68972 0.0
C190 C 0.05882 0.15223 0.69855 0.0
C191 C 0.166 0.18945 0.68786 0.0
C192 C 0.07891 0.96297 0.66406 0.0
N193 N 0.09023 0.98406 0.68455 0.0
C194 C 0.18297 0.00895 0.68058 0.0
C195 C 0.14099 0.00674 0.6929 0.0
C196 C 0.17261 0.98798 0.6594 0.0
C197 C 0.1199 0.96425 0.6511 0.0
H198 H 0.03847 0.94641 0.6576 0.0
H199 H 0.14938 0.02519 0.70883 0.0
C200 C 0.06105 0.12463 0.76486 0.0
N201 N 0.07974 0.10663 0.74835 0.0
C202 C 0.09742 0.16439 0.77916 0.0
C203 C 0.17118 0.16633 0.75905 0.0
C204 C 0.13355 0.12659 0.74525 0.0
C205 C 0.15308 0.18514 0.77632 0.0
H206 H 0.01803 0.10726 0.76725 0.0
H207 H 0.14719 0.1105 0.73236 0.0
C208 C 0.93472 0.88999 0.68876 0.0
N209 N 0.88462 0.78519 0.67318 0.0
C210 C 0.88219 0.86606 0.68044 0.0
C211 C 0.96216 0.86097 0.68867 0.0
C212 C 0.85742 0.81293 0.67279 0.0
C213 C 0.93606 0.80796 0.68085 0.0
C214 C 0.91372 0.02513 0.7376 0.0
C215 C 0.86108 0.98414 0.74223 0.0
C216 C 0.92531 0.07871 0.73658 0.0
C217 C 0.82057 0.99733 0.7452 0.0
C218 C 0.8837 0.09029 0.73965 0.0
N219 N 0.8326 0.04969 0.74382 0.0
C220 C 0.93313 0.88349 0.76634 0.0
C221 C 0.86702 0.85165 0.7387 0.0
C222 C 0.89972 0.83943 0.77957 0.0
N223 N 0.91705 0.88782 0.74603 0.0
C224 C 0.83249 0.807 0.75135 0.0
C225 C 0.84967 0.79729 0.77165 0.0
H226 H 0.97161 0.91496 0.77248 0.0
H227 H 0.85309 0.85837 0.72332 0.0
C228 C 0.93362 0.0604 0.66769 0.0
N229 N 0.91465 0.02258 0.68377 0.0
C230 C 0.89764 0.06411 0.6533 0.0
C231 C 0.82352 0.99022 0.67241 0.0
C232 C 0.86083 0.98778 0.68631 0.0
C233 C 0.84201 0.02839 0.6556 0.0
H234 H 0.97665 0.08671 0.66567 0.0
H235 H 0.84692 0.95703 0.69877 0.0
O236 O 0.04223 0.98467 0.73403 0.0
O237 O 0.04139 0.061 0.69762 0.0
O238 O 0.95966 0.94215 0.69622 0.0
O239 O 0.95381 0.01289 0.73444 0.0
H240 H 0.13823 0.03052 0.75311 0.0
H241 H 0.00448 0.87894 0.73185 0.0
H242 H 0.18479 0.98186 0.76557 0.0
H243 H 0.05352 0.83299 0.74446 0.0
H244 H 0.08235 0.23652 0.69907 0.0
H245 H 0.14487 0.10591 0.68693 0.0
H246 H 0.01704 0.13845 0.7024 0.0
H247 H 0.2079 0.20447 0.68366 0.0
H248 H 0.22345 0.02805 0.68728 0.0
H249 H 0.11097 0.94816 0.6347 0.0
H250 H 0.08244 0.17813 0.79247 0.0
H251 H 0.21392 0.18143 0.75658 0.0
H252 H 0.86056 0.88808 0.68003 0.0
H253 H 0.00343 0.87931 0.6943 0.0
H254 H 0.8166 0.79378 0.6665 0.0
H255 H 0.95682 0.78503 0.68078 0.0
H256 H 0.85147 0.94252 0.74331 0.0
H257 H 0.96602 0.11107 0.7336 0.0
H258 H 0.77956 0.96594 0.74859 0.0
H259 H 0.89208 0.13158 0.73878 0.0
H260 H 0.91334 0.84073 0.79602 0.0
H261 H 0.79204 0.78172 0.74522 0.0
H262 H 0.91294 0.09373 0.64033 0.0
H263 H 0.78079 0.96184 0.67441 0.0
H264 H 0.07695 0.46273 0.17394 0.0
H265 H 0.06865 0.38636 0.15242 0.0
H266 H 0.91634 0.28032 0.18358 0.0
H267 H 0.92482 0.35637 0.20528 0.0
H268 H 0.01012 0.50451 0.17385 0.0
H269 H 0.08201 0.43756 0.22603 0.0
H270 H 0.09051 0.3717 0.24889 0.0
H271 H 0.93902 0.32883 0.28 0.0
H272 H 0.9303 0.39478 0.25717 0.0
H273 H 0.9135 0.52829 0.25121 0.0
H274 H 0.90436 0.5957 0.27274 0.0
H275 H 0.05594 0.72146 0.24714 0.0
H276 H 0.06545 0.65404 0.22561 0.0
H277 H 0.99257 0.50222 0.25425 0.0
H278 H 0.92866 0.57983 0.19926 0.0
H279 H 0.92807 0.64454 0.17444 0.0
H280 H 0.08214 0.67696 0.14871 0.0
H281 H 0.08291 0.61327 0.17417 0.0
C282 C 1.00171 0.41512 0.1913 0.0
C283 C 0.04203 0.42297 0.17628 0.0
C284 C 0.03735 0.37954 0.16405 0.0
C285 C 0.99191 0.32785 0.16647 0.0
C286 C 0.95178 0.31988 0.1816 0.0
C287 C 0.95674 0.36316 0.19398 0.0
C288 C 0.00476 0.46155 0.20336 0.0
C289 C 0.0073 0.50464 0.19148 0.0
C290 C 1.00095 0.46147 0.22629 0.0
C291 C 0.00529 0.42078 0.2398 0.0
C292 C 0.05035 0.4137 0.23763 0.0
C293 C 0.05538 0.37643 0.25068 0.0
C294 C 0.01534 0.34561 0.26602 0.0
C295 C 0.97019 0.35236 0.26818 0.0
C296 C 0.96534 0.38995 0.25523 0.0
C297 C 0.99001 0.58619 0.23672 0.0
C298 C 0.94467 0.57039 0.25012 0.0
C299 C 0.93932 0.6087 0.26233 0.0
C300 C 0.9794 0.66331 0.26141 0.0
C301 C 0.02454 0.67941 0.2479 0.0
C302 C 0.02984 0.64106 0.23562 0.0
C303 C 0.99626 0.54464 0.22468 0.0
C304 C 0.99574 0.50243 0.23664 0.0
C305 C 0.00344 0.54645 0.20181 0.0
C306 C 0.00454 0.58944 0.18788 0.0
C307 C 0.9617 0.59997 0.18781 0.0
C308 C 0.96033 0.63571 0.17259 0.0
C309 C 0.99975 0.65901 0.15589 0.0
C310 C 0.04626 0.65387 0.15842 0.0
C311 C 0.04785 0.61842 0.17364 0.0
H312 H 0.609 0.07271 0.50385 0.0
H313 H 0.67627 0.0651 0.48154 0.0
H314 H 0.646 0.92294 0.51735 0.0
H315 H 0.57792 0.92962 0.53939 0.0
H316 H 0.50537 0.00917 0.50744 0.0
H317 H 0.65052 0.0818 0.55741 0.0
H318 H 0.72571 0.09059 0.57986 0.0
H319 H 0.61698 0.94242 0.61303 0.0
H320 H 0.54162 0.93332 0.59059 0.0
H321 H 0.39102 0.92069 0.58695 0.0
H322 H 0.32587 0.92103 0.61174 0.0
H323 H 0.35437 0.07193 0.58411 0.0
H324 H 0.42017 0.07154 0.5597 0.0
H325 H 0.49912 0.99708 0.58801 0.0
H326 H 0.35165 0.93229 0.5353 0.0
H327 H 0.28509 0.93158 0.51098 0.0
H328 H 0.40619 0.0844 0.48427 0.0
H329 H 0.47205 0.08486 0.50886 0.0
C330 C 0.58867 0.00203 0.52344 0.0
C331 C 0.61681 0.03992 0.50694 0.0
C332 C 0.65521 0.03572 0.49427 0.0
C333 C 0.66591 0.99349 0.49786 0.0
C334 C 0.63826 0.95584 0.51442 0.0
C335 C 0.59974 0.95992 0.52705 0.0
C336 C 0.54607 0.00499 0.53626 0.0
C337 C 0.50444 0.00741 0.5251 0.0
C338 C 0.54466 0.00244 0.55927 0.0
C339 C 0.5905 0.00666 0.57222 0.0
C340 C 0.6429 0.05086 0.56933 0.0
C341 C 0.68568 0.05606 0.58215 0.0
C342 C 0.67662 0.01712 0.59801 0.0
C343 C 0.62451 0.97275 0.60082 0.0
C344 C 0.58167 0.96768 0.58808 0.0
C345 C 0.41294 0.99762 0.57229 0.0
C346 C 0.38459 0.95498 0.58687 0.0
C347 C 0.34839 0.95644 0.60174 0.0
C348 C 0.3421 0.0024 0.60362 0.0
C349 C 0.36433 0.04056 0.58644 0.0
C350 C 0.40067 0.03923 0.5715 0.0
C351 C 0.45763 0.99988 0.55916 0.0
C352 C 0.50002 0.99885 0.57035 0.0
C353 C 0.46044 0.00539 0.53622 0.0
C354 C 0.41778 0.0071 0.52306 0.0
C355 C 0.36412 0.96489 0.52368 0.0
C356 C 0.32627 0.96347 0.5088 0.0
C357 C 0.34183 0.00225 0.49187 0.0
C358 C 0.39372 0.04863 0.49398 0.0
C359 C 0.43158 0.05014 0.50876 0.0
H360 H 0.45787 0.38973 0.83842 0.0
H361 H 0.38056 0.32264 0.817 0.0
H362 H 0.27568 0.36679 0.85049 0.0
H363 H 0.35272 0.43397 0.87189 0.0
H364 H 0.50364 0.49549 0.84005 0.0
H365 H 0.43329 0.35711 0.89136 0.0
H366 H 0.36739 0.28218 0.91393 0.0
H367 H 0.32351 0.38972 0.94539 0.0
H368 H 0.38988 0.46504 0.92293 0.0
H369 H 0.52688 0.61108 0.9197 0.0
H370 H 0.59398 0.68514 0.94214 0.0
H371 H 0.72072 0.66593 0.91304 0.0
H372 H 0.65333 0.5894 0.89156 0.0
H373 H 0.49803 0.5094 0.92041 0.0
H374 H 0.58718 0.65123 0.86184 0.0
H375 H 0.66449 0.71124 0.83846 0.0
H376 H 0.68683 0.57712 0.82179 0.0
H377 H 0.61004 0.51742 0.84491 0.0
C378 C 0.41104 0.41663 0.85686 0.0
C379 C 0.41825 0.38487 0.84122 0.0
C380 C 0.37429 0.34661 0.82907 0.0
C381 C 0.3227 0.33998 0.83226 0.0
C382 C 0.31527 0.37138 0.84792 0.0
C383 C 0.35913 0.40943 0.86014 0.0
C384 C 0.45788 0.45891 0.86918 0.0
C385 C 0.50263 0.49838 0.85765 0.0
C386 C 0.45733 0.46193 0.89213 0.0
C387 C 0.41616 0.41656 0.90536 0.0
C388 C 0.4092 0.36454 0.90298 0.0
C389 C 0.37185 0.32189 0.91586 0.0
C390 C 0.34063 0.33053 0.93123 0.0
C391 C 0.34728 0.3824 0.93357 0.0
C392 C 0.38506 0.42523 0.92082 0.0
C393 C 0.58489 0.59489 0.90366 0.0
C394 C 0.56906 0.62259 0.91813 0.0
C395 C 0.60729 0.665 0.93086 0.0
C396 C 0.66227 0.68113 0.92917 0.0
C397 C 0.67846 0.65421 0.91448 0.0
C398 C 0.64001 0.61089 0.90207 0.0
C399 C 0.5429 0.54787 0.89121 0.0
C400 C 0.49892 0.50703 0.90279 0.0
C401 C 0.54566 0.54226 0.86837 0.0
C402 C 0.59302 0.57993 0.85511 0.0
C403 C 0.609 0.63495 0.85325 0.0
C404 C 0.65287 0.66904 0.83996 0.0
C405 C 0.6811 0.64837 0.82847 0.0
C406 C 0.66545 0.59365 0.83056 0.0
C407 C 0.62166 0.55968 0.84367 0.0
C408 C 0.97938 0.1943 0.14835 0.0
C409 C 0.9774 0.19886 0.12539 0.0
C410 C 0.97639 0.28356 0.12981 0.0
C411 C 0.98541 0.28249 0.15249 0.0
N412 N 0.00311 0.24071 0.18313 0.0
N413 N 0.98296 0.25217 0.09394 0.0
C414 C 0.98881 0.23878 0.16175 0.0
C415 C 0.97816 0.24461 0.116 0.0
N416 N 0.97098 0.14697 0.15734 0.0
N417 N 0.96457 0.32086 0.12152 0.0
H418 H 0.98498 0.22495 0.08321 0.0
H419 H 0.9898 0.28772 0.08644 0.0
H420 H 0.96215 0.34965 0.13116 0.0
H421 H 0.95209 0.31996 0.10551 0.0
H422 H 0.96651 0.13927 0.17402 0.0
H423 H 0.96344 0.11339 0.148 0.0
H424 H 0.01184 0.2128 0.19017 0.0
H425 H 0.01083 0.27282 0.19343 0.0
C426 C 0.79901 0.02316 0.47193 0.0
C427 C 0.78073 0.98067 0.45643 0.0
C428 C 0.6869 0.94813 0.46738 0.0
C429 C 0.70551 0.98818 0.48393 0.0
N430 N 0.77923 0.05746 0.5047 0.0
N431 N 0.70889 0.89719 0.44185 0.0
C432 C 0.76163 0.02385 0.48702 0.0
C433 C 0.72507 0.94147 0.45488 0.0
N434 N 0.85166 0.06402 0.47166 0.0
N435 N 0.63281 0.91781 0.46306 0.0
H436 H 0.73577 0.89106 0.43244 0.0
H437 H 0.6697 0.86433 0.44176 0.0
H438 H 0.60355 0.92136 0.47189 0.0
H439 H 0.61714 0.89227 0.44965 0.0
H440 H 0.86594 0.09915 0.48087 0.0
H441 H 0.88037 0.06504 0.46088 0.0
H442 H 0.81974 0.08021 0.50915 0.0
H443 H 0.75297 0.05917 0.51607 0.0
C444 C 0.76275 0.70609 0.77666 0.0
C445 C 0.81238 0.7476 0.78521 0.0
C446 C 0.7795 0.71451 0.82203 0.0
C447 C 0.72638 0.68297 0.81364 0.0
N448 N 0.66697 0.64774 0.78249 0.0
N449 N 0.87375 0.75264 0.81315 0.0
C450 C 0.71788 0.67806 0.79079 0.0
C451 C 0.8233 0.74184 0.8073 0.0
N452 N 0.76087 0.68822 0.7559 0.0
N453 N 0.78842 0.71822 0.84398 0.0
H454 H 0.90347 0.76102 0.80145 0.0
H455 H 0.8831 0.74477 0.82864 0.0
H456 H 0.75768 0.69733 0.85532 0.0
H457 H 0.82587 0.74503 0.8508 0.0
H458 H 0.72708 0.65461 0.7494 0.0
H459 H 0.79573 0.70288 0.74639 0.0
H460 H 0.65844 0.64744 0.76596 0.0
H461 H 0.63286 0.6265 0.79228 0.0
C462 C 0.04675 0.7632 0.11033 0.0
C463 C 0.01153 0.78401 0.11369 0.0
C464 C 0.95381 0.70538 0.13625 0.0
C465 C 0.99576 0.69259 0.13737 0.0
N466 N 0.05386 0.68267 0.11165 0.0
N467 N 0.92991 0.77417 0.12981 0.0
C468 C 0.03489 0.71383 0.12045 0.0
C469 C 0.96459 0.75496 0.12669 0.0
N470 N 0.09182 0.79067 0.0977 0.0
N471 N 0.9017 0.66626 0.1401 0.0
H472 H 0.93548 0.80969 0.12264 0.0
H473 H 0.89793 0.75662 0.14086 0.0
H474 H 0.89123 0.6259 0.14212 0.0
H475 H 0.86882 0.67202 0.13769 0.0
H476 H 0.12144 0.77966 0.09657 0.0
H477 H 0.10154 0.82672 0.08978 0.0
H478 H 0.07862 0.69393 0.09792 0.0
H479 H 0.03832 0.64242 0.11628 0.0
C480 C 0.28169 0.04739 0.44677 0.0
C481 C 0.22592 0.0102 0.44968 0.0
C482 C 0.2493 0.95424 0.47227 0.0
C483 C 0.30348 0.99754 0.47353 0.0
N484 N 0.37017 0.05676 0.4476 0.0
N485 N 0.15578 0.92632 0.46496 0.0
C486 C 0.32022 0.03681 0.45671 0.0
C487 C 0.20939 0.9631 0.46244 0.0
N488 N 0.29811 0.09304 0.43466 0.0
N489 N 0.23817 0.90275 0.47628 0.0
H490 H 0.12521 0.93013 0.45736 0.0
H491 H 0.14193 0.89415 0.47587 0.0
H492 H 0.26903 0.89376 0.47858 0.0
H493 H 0.20023 0.86887 0.47377 0.0
H494 H 0.33844 0.12365 0.43381 0.0
H495 H 0.27107 0.10224 0.42703 0.0
H496 H 0.38271 0.08171 0.43393 0.0
H497 H 0.39553 0.04169 0.45182 0.0
C498 C 0.20514 0.20792 0.81141 0.0
C499 C 0.19296 0.2255 0.79168 0.0
C500 C 0.26573 0.31821 0.79859 0.0
C501 C 0.2766 0.30099 0.81869 0.0
N502 N 0.25177 0.23248 0.84622 0.0
N503 N 0.20447 0.29772 0.76804 0.0
C504 C 0.24468 0.2467 0.82573 0.0
C505 C 0.22114 0.28086 0.78575 0.0
N506 N 0.18038 0.15392 0.81603 0.0
N507 N 0.29901 0.36992 0.79153 0.0
H508 H 0.17227 0.27127 0.75817 0.0
H509 H 0.2195 0.33814 0.76405 0.0
H510 H 0.33096 0.39892 0.80081 0.0
H511 H 0.2973 0.38335 0.77596 0.0
H512 H 0.19191 0.1379 0.82879 0.0
H513 H 0.15037 0.12439 0.80619 0.0
H514 H 0.22597 0.19514 0.85327 0.0
H515 H 0.28129 0.25954 0.85693 0.0
C516 C 0.77553 0.05762 0.64543 0.0
C517 C 0.80277 0.02918 0.63999 0.0
C518 C 0.75248 0.99921 0.6056 0.0
C519 C 0.72158 0.02319 0.61206 0.0
N520 N 0.69966 0.07149 0.63858 0.0
N521 N 0.81475 0.96883 0.61619 0.0
C522 C 0.73215 0.05161 0.63208 0.0
C523 C 0.79081 0.99907 0.62035 0.0
N524 N 0.7919 0.09111 0.66316 0.0
N525 N 0.74566 0.97732 0.58522 0.0
H526 H 0.84408 0.96882 0.62631 0.0
H527 H 0.80324 0.94101 0.60352 0.0
H528 H 0.71701 0.97555 0.5742 0.0
H529 H 0.77085 0.9645 0.57856 0.0
H530 H 0.77772 0.11739 0.6668 0.0
H531 H 0.82298 0.09574 0.67346 0.0
H532 H 0.70101 0.08703 0.65405 0.0
H533 H 0.66864 0.06942 0.62892 0.0
C534 C 0.77255 0.75696 0.9715 0.0
C535 C 0.77566 0.80813 0.9715 0.0
C536 C 0.71088 0.7784 0.94129 0.0
C537 C 0.70248 0.72526 0.94335 0.0
N538 N 0.71756 0.6616 0.96368 0.0
N539 N 0.74048 0.86455 0.95893 0.0
C540 C 0.73118 0.71381 0.95937 0.0
C541 C 0.74281 0.81811 0.95707 0.0
N542 N 0.81026 0.74994 0.98244 0.0
N543 N 0.68978 0.79145 0.9239 0.0
H544 H 0.76236 0.8941 0.97059 0.0
H545 H 0.71304 0.87136 0.95031 0.0
H546 H 0.66724 0.76378 0.91173 0.0
H547 H 0.69911 0.83086 0.92043 0.0
H548 H 0.81292 0.71499 0.98115 0.0
H549 H 0.84235 0.78095 0.99098 0.0
H550 H 0.73349 0.65084 0.97676 0.0
H551 H 0.68647 0.62853 0.95562 0.0
C552 C 0.93444 0.75959 0.28309 0.0
C553 C 0.96604 0.77848 0.30232 0.0
C554 C 0.00318 0.71886 0.29551 0.0
C555 C 0.97503 0.70333 0.27539 0.0
N556 N 0.91943 0.71334 0.2484 0.0
N557 N 0.03669 0.78303 0.32533 0.0
C558 C 0.94213 0.72492 0.26871 0.0
C559 C 1.00211 0.75996 0.30815 0.0
N560 N 0.89614 0.77373 0.27891 0.0
N561 N 0.02978 0.69324 0.30281 0.0
H562 H 0.03689 0.81291 0.33516 0.0
H563 H 0.06813 0.77576 0.32886 0.0
H564 H 0.03231 0.66356 0.29385 0.0
H565 H 0.04574 0.69824 0.31844 0.0
H566 H 0.86785 0.75691 0.26642 0.0
H567 H 0.88981 0.7994 0.28903 0.0
H568 H 0.89986 0.73229 0.2416 0.0
H569 H 0.92365 0.68753 0.23758 0.0
C570 C 0.23834 0.95774 0.64934 0.0
C571 C 0.2182 0.99349 0.64594 0.0
C572 C 0.29649 0.04963 0.6229 0.0
C573 C 0.30866 0.0072 0.62202 0.0
N574 N 0.31859 0.95025 0.64833 0.0
N575 N 0.22898 0.07523 0.62961 0.0
C576 C 0.28745 0.96882 0.6392 0.0
C577 C 0.24745 0.03994 0.6327 0.0
N578 N 0.21056 0.91296 0.66207 0.0
N579 N 0.33588 0.10133 0.61853 0.0
H580 H 0.19407 0.07061 0.63704 0.0
H581 H 0.24646 0.10679 0.61839 0.0
H582 H 0.376 0.11122 0.61621 0.0
H583 H 0.33077 0.13466 0.62076 0.0
H584 H 0.22123 0.88309 0.66328 0.0
H585 H 0.17457 0.90365 0.66996 0.0
H586 H 0.30723 0.92607 0.66222 0.0
H587 H 0.35893 0.96575 0.64382 0.0
C588 C 0.21857 0.1978 0.94922 0.0
C589 C 0.22564 0.20166 0.97215 0.0
C590 C 0.31206 0.28569 0.96782 0.0
C591 C 0.30155 0.28535 0.9452 0.0
N592 N 0.24119 0.24508 0.91466 0.0
N593 N 0.27493 0.25317 0.00372 0.0
C594 C 0.25386 0.24235 0.93593 0.0
C595 C 0.27138 0.24658 0.9816 0.0
N596 N 0.17881 0.15104 0.94012 0.0
N597 N 0.3615 0.32247 0.97603 0.0
H598 H 0.24597 0.22557 0.01443 0.0
H599 H 0.3042 0.2882 0.01137 0.0
H600 H 0.39257 0.35145 0.96641 0.0
H601 H 0.37344 0.32106 0.99193 0.0
H602 H 0.17509 0.14373 0.92342 0.0
H603 H 0.15253 0.11743 0.94938 0.0
H604 H 0.20422 0.21779 0.90766 0.0
H605 H 0.2657 0.27728 0.90443 0.0
C606 C 1.00155 0.21413 0.28717 0.0
C607 C 0.02834 0.23139 0.30755 0.0
C608 C 0.04572 0.32332 0.30089 0.0
C609 C 0.02104 0.3066 0.28011 0.0
N610 N 0.98283 0.23921 0.25182 0.0
N611 N 0.08312 0.30299 0.33263 0.0
C612 C 1.00122 0.25288 0.27274 0.0
C613 C 0.05256 0.28625 0.31407 0.0
N614 N 0.9748 0.16037 0.28198 0.0
N615 N 0.0615 0.37434 0.30818 0.0
H616 H 0.08833 0.27671 0.3428 0.0
H617 H 0.10664 0.34331 0.33717 0.0
H618 H 0.05902 0.40325 0.29866 0.0
H619 H 0.07392 0.38719 0.32408 0.0
H620 H 0.94928 0.14427 0.2686 0.0
H621 H 0.97507 0.13091 0.29192 0.0
H622 H 0.97362 0.20263 0.2446 0.0
H623 H 0.98035 0.26605 0.24101 0.0
loop_
_geom_bond_atom_site_label_1
_geom_bond_atom_site_label_2
_geom_bond_distance
_geom_bond_site_symmetry_2
_ccdc_geom_bond_type
Li0 N17 1.990 . S
Li0 O60 1.956 . S
Li0 O61 1.970 1_455 S
Li0 O62 1.961 1_545 S
Li1 N25 1.990 . S
Li1 O60 1.970 1_655 S
Li1 O61 1.956 . S
Li1 O63 1.961 1_545 S
Li2 N47 1.990 . S
Li2 O60 1.961 1_565 S
Li2 O62 1.956 . S
Li2 O63 1.970 1_455 S
Li3 N53 1.990 . S
Li3 O61 1.961 1_565 S
Li3 O62 1.970 1_655 S
Li3 O63 1.956 . S
C4 C6 1.348 . S
C4 C7 1.356 . S
C4 O60 1.325 . S
N5 C8 1.314 . S
N5 C9 1.279 . S
C6 C4 1.348 . S
C6 C8 1.353 . S
C6 H64 0.929 . S
C7 C4 1.356 . S
C7 C9 1.358 . S
C7 H65 0.930 . S
C8 N5 1.314 . S
C8 C6 1.353 . S
C8 H66 0.930 . S
C9 N5 1.279 . S
C9 C7 1.358 . S
C9 H67 0.930 . S
C10 C13 1.348 1_655 S
C10 C14 1.356 . S
C10 O61 1.325 . S
C11 N12 1.265 1_554 S
C11 C14 1.376 . S
C11 H68 0.927 1_554 S
N12 C11 1.265 1_556 S
N12 C15 1.314 . S
C13 C10 1.348 1_455 S
C13 C15 1.353 1_454 S
C13 H69 0.929 . S
C14 C10 1.356 . S
C14 C11 1.376 . S
C14 H70 0.930 . S
C15 N12 1.314 . S
C15 C13 1.353 1_656 S
C15 H71 0.930 1_655 S
C16 N17 1.314 1_556 S
C16 C21 1.353 . S
C16 H22 0.930 . S
N17 Li0 1.990 . S
N17 C16 1.314 1_554 S
N17 C19 1.279 . S
C18 C19 1.358 . S
C18 C20 1.356 1_554 S
C18 H72 0.930 . S
C19 N17 1.279 . S
C19 C18 1.358 . S
C19 H23 0.930 . S
C20 C18 1.356 1_556 S
C20 C21 1.348 . S
C21 C16 1.353 . S
C21 C20 1.348 . S
C21 H73 0.929 . S
H22 C16 0.930 . S
H23 C19 0.930 . S
C24 N25 1.314 . S
C24 C26 1.353 . S
C24 H30 0.930 . S
N25 Li1 1.990 . S
N25 C24 1.314 . S
N25 C28 1.279 . S
C26 C24 1.353 . S
C26 C29 1.348 . S
C26 H74 0.929 . S
C27 C28 1.358 . S
C27 C29 1.356 . S
C27 H75 0.930 . S
C28 N25 1.279 . S
C28 C27 1.358 . S
C28 H31 0.930 . S
C29 C26 1.348 . S
C29 C27 1.356 . S
H30 C24 0.930 . S
H31 C28 0.930 . S
C32 C34 1.348 1_455 S
C32 C35 1.356 . S
C32 O62 1.325 . S
N33 C36 1.314 . S
N33 C37 1.265 1_556 S
C34 C32 1.348 1_655 S
C34 C36 1.353 1_654 S
C34 H76 0.929 . S
C35 C32 1.356 . S
C35 C37 1.375 . S
C35 H77 0.930 . S
C36 N33 1.314 . S
C36 C34 1.353 1_456 S
C36 H78 0.930 1_455 S
C37 N33 1.265 1_554 S
C37 C35 1.375 . S
C37 H79 0.927 1_554 S
C38 C39 1.348 . S
C38 C40 1.356 . S
C38 O63 1.325 . S
C39 C38 1.348 . S
C39 C41 1.353 . S
C39 H80 0.929 . S
C40 C38 1.356 . S
C40 C42 1.358 . S
C40 H81 0.930 . S
C41 C39 1.353 . S
C41 N43 1.314 . S
C41 H82 0.930 . S
C42 C40 1.358 . S
C42 N43 1.279 . S
C42 H83 0.930 . S
N43 C41 1.314 . S
N43 C42 1.279 . S
C44 C46 1.353 . S
C44 N47 1.314 . S
C44 H50 0.930 . S
C45 N47 1.279 . S
C45 C48 1.358 . S
C45 H51 0.930 . S
C46 C44 1.353 . S
C46 C49 1.348 . S
C46 H84 0.929 . S
N47 Li2 1.990 . S
N47 C44 1.314 . S
N47 C45 1.279 . S
C48 C45 1.358 . S
C48 C49 1.356 . S
C48 H85 0.930 . S
C49 C46 1.348 . S
C49 C48 1.356 . S
H50 C44 0.930 . S
H51 C45 0.930 . S
C52 N53 1.314 1_556 S
C52 C54 1.353 . S
C52 H58 0.930 . S
N53 Li3 1.990 . S
N53 C52 1.314 1_554 S
N53 C56 1.279 . S
C54 C52 1.353 . S
C54 C57 1.348 . S
C54 H86 0.929 . S
C55 C56 1.358 . S
C55 C57 1.356 1_554 S
C55 H87 0.930 . S
C56 N53 1.279 . S
C56 C55 1.358 . S
C56 H59 0.930 . S
C57 C54 1.348 . S
C57 C55 1.356 1_556 S
H58 C52 0.930 . S
H59 C56 0.930 . S
O60 Li0 1.956 . S
O60 Li1 1.970 1_455 S
O60 Li2 1.961 1_545 S
O60 C4 1.325 . S
O61 Li0 1.970 1_655 S
O61 Li1 1.956 . S
O61 Li3 1.961 1_545 S
O61 C10 1.325 . S
O62 Li0 1.961 1_565 S
O62 Li2 1.956 . S
O62 Li3 1.970 1_455 S
O62 C32 1.325 . S
O63 Li1 1.961 1_565 S
O63 Li2 1.970 1_655 S
O63 Li3 1.956 . S
O63 C38 1.325 . S
H64 C6 0.929 . S
H65 C7 0.930 . S
H66 C8 0.930 . S
H67 C9 0.930 . S
H68 C11 0.927 1_556 S
H69 C13 0.929 . S
H70 C14 0.930 . S
H71 C15 0.930 1_455 S
H72 C18 0.930 . S
H73 C21 0.929 . S
H74 C26 0.929 . S
H75 C27 0.930 . S
H76 C34 0.929 . S
H77 C35 0.930 . S
H78 C36 0.930 1_655 S
H79 C37 0.927 1_556 S
H80 C39 0.929 . S
H81 C40 0.930 . S
H82 C41 0.930 . S
H83 C42 0.930 . S
H84 C46 0.929 . S
H85 C48 0.930 . S
H86 C54 0.929 . S
H87 C55 0.930 . S
Li88 N105 1.990 . S
Li88 O148 1.956 . S
Li88 O149 1.970 1_665 S
Li88 O150 1.961 . S
Li89 N113 1.990 . S
Li89 O148 1.970 1_445 S
Li89 O149 1.956 . S
Li89 O151 1.961 . S
Li90 N135 1.990 . S
Li90 O148 1.961 . S
Li90 O150 1.956 . S
Li90 O151 1.970 1_665 S
Li91 N141 1.990 . S
Li91 O149 1.961 . S
Li91 O150 1.970 1_445 S
Li91 O151 1.956 . S
C92 C94 1.348 1_655 S
C92 C95 1.356 . S
C92 O148 1.325 . S
N93 C96 1.314 . S
N93 C97 1.279 . S
C94 C92 1.348 1_455 S
C94 C96 1.353 1_455 S
C94 H152 0.929 . S
C95 C92 1.356 . S
C95 C97 1.358 . S
C95 H153 0.930 . S
C96 N93 1.314 . S
C96 C94 1.353 1_655 S
C96 H154 0.930 1_655 S
C97 N93 1.279 . S
C97 C95 1.358 . S
C97 H155 0.930 . S
C98 C101 1.348 1_545 S
C98 C102 1.356 . S
C98 O149 1.325 . S
C99 N100 1.279 . S
C99 C102 1.358 . S
C99 H156 0.930 . S
N100 C99 1.279 . S
N100 C103 1.314 . S
C101 C98 1.348 1_565 S
C101 C103 1.353 1_565 S
C101 H157 0.929 . S
C102 C98 1.356 . S
C102 C99 1.358 . S
C102 H158 0.930 . S
C103 N100 1.314 . S
C103 C101 1.353 1_545 S
C103 H159 0.930 1_545 S
C104 N105 1.314 . S
C104 C109 1.353 . S
C104 H110 0.930 . S
N105 Li88 1.990 . S
N105 C104 1.314 . S
N105 C107 1.279 . S
C106 C107 1.358 . S
C106 C108 1.356 . S
C106 H160 0.930 . S
C107 N105 1.279 . S
C107 C106 1.358 . S
C107 H111 0.930 . S
C108 C106 1.356 . S
C108 C109 1.348 . S
C109 C104 1.353 . S
C109 C108 1.348 . S
C109 H161 0.929 . S
H110 C104 0.930 . S
H111 C107 0.930 . S
C112 N113 1.314 . S
C112 C114 1.353 . S
C112 H118 0.930 . S
N113 Li89 1.990 . S
N113 C112 1.314 . S
N113 C116 1.279 . S
C114 C112 1.353 . S
C114 C117 1.348 . S
C114 H162 0.929 . S
C115 C116 1.358 . S
C115 C117 1.356 . S
C115 H163 0.930 . S
C116 N113 1.279 . S
C116 C115 1.358 . S
C116 H119 0.930 . S
C117 C114 1.348 . S
C117 C115 1.356 . S
H118 C112 0.930 . S
H119 C116 0.930 . S
C120 C122 1.348 1_565 S
C120 C123 1.356 . S
C120 O150 1.325 . S
N121 C124 1.314 . S
N121 C125 1.279 . S
C122 C120 1.348 1_545 S
C122 C124 1.353 1_545 S
C122 H164 0.929 . S
C123 C120 1.356 . S
C123 C125 1.358 . S
C123 H165 0.930 . S
C124 N121 1.314 . S
C124 C122 1.353 1_565 S
C124 H166 0.930 1_565 S
C125 N121 1.279 . S
C125 C123 1.358 . S
C125 H167 0.930 . S
C126 C127 1.348 1_455 S
C126 C128 1.356 . S
C126 O151 1.325 . S
C127 C126 1.348 1_655 S
C127 C129 1.353 1_655 S
C127 H168 0.929 . S
C128 C126 1.356 . S
C128 C130 1.358 . S
C128 H169 0.930 . S
C129 C127 1.353 1_455 S
C129 N131 1.314 . S
C129 H170 0.930 1_455 S
C130 C128 1.358 . S
C130 N131 1.279 . S
C130 H171 0.930 . S
N131 C129 1.314 . S
N131 C130 1.279 . S
C132 C134 1.353 . S
C132 N135 1.314 . S
C132 H138 0.930 . S
C133 N135 1.279 . S
C133 C136 1.358 . S
C133 H139 0.930 . S
C134 C132 1.353 . S
C134 C137 1.348 . S
C134 H172 0.929 . S
N135 Li90 1.990 . S
N135 C132 1.314 . S
N135 C133 1.279 . S
C136 C133 1.358 . S
C136 C137 1.356 . S
C136 H173 0.930 . S
C137 C134 1.348 . S
C137 C136 1.356 . S
H138 C132 0.930 . S
H139 C133 0.930 . S
C140 N141 1.314 . S
C140 C142 1.353 . S
C140 H146 0.930 . S
N141 Li91 1.990 . S
N141 C140 1.314 . S
N141 C144 1.279 . S
C142 C140 1.353 . S
C142 C145 1.348 . S
C142 H174 0.929 . S
C143 C144 1.358 . S
C143 C145 1.356 . S
C143 H175 0.930 . S
C144 N141 1.279 . S
C144 C143 1.358 . S
C144 H147 0.930 . S
C145 C142 1.348 . S
C145 C143 1.356 . S
H146 C140 0.930 . S
H147 C144 0.930 . S
O148 Li88 1.956 . S
O148 Li89 1.970 1_665 S
O148 Li90 1.961 . S
O148 C92 1.325 . S
O149 Li88 1.970 1_445 S
O149 Li89 1.956 . S
O149 Li91 1.961 . S
O149 C98 1.325 . S
O150 Li88 1.961 . S
O150 Li90 1.956 . S
O150 Li91 1.970 1_665 S
O150 C120 1.325 . S
O151 Li89 1.961 . S
O151 Li90 1.970 1_445 S
O151 Li91 1.956 . S
O151 C126 1.325 . S
H152 C94 0.929 . S
H153 C95 0.930 . S
H154 C96 0.930 1_455 S
H155 C97 0.930 . S
H156 C99 0.930 . S
H157 C101 0.929 . S
H158 C102 0.930 . S
H159 C103 0.930 1_565 S
H160 C106 0.930 . S
H161 C109 0.929 . S
H162 C114 0.929 . S
H163 C115 0.930 . S
H164 C122 0.929 . S
H165 C123 0.930 . S
H166 C124 0.930 1_545 S
H167 C125 0.930 . S
H168 C127 0.929 . S
H169 C128 0.930 . S
H170 C129 0.930 1_655 S
H171 C130 0.930 . S
H172 C134 0.929 . S
H173 C136 0.930 . S
H174 C142 0.929 . S
H175 C143 0.930 . S
Li176 N193 1.990 . S
Li176 O236 1.956 . S
Li176 O237 1.970 1_565 S
Li176 O238 1.961 1_455 S
Li177 N201 1.990 . S
Li177 O236 1.970 1_545 S
Li177 O237 1.956 . S
Li177 O239 1.961 1_455 S
Li178 N223 1.990 . S
Li178 O236 1.961 1_655 S
Li178 O238 1.956 . S
Li178 O239 1.970 1_565 S
Li179 N229 1.990 . S
Li179 O237 1.961 1_655 S
Li179 O238 1.970 1_545 S
Li179 O239 1.956 . S
C180 C182 1.348 1_565 S
C180 C183 1.356 . S
C180 O236 1.325 . S
N181 C184 1.314 . S
N181 C185 1.279 . S
C182 C180 1.348 1_545 S
C182 C184 1.353 1_545 S
C182 H240 0.929 . S
C183 C180 1.356 . S
C183 C185 1.358 . S
C183 H241 0.930 . S
C184 N181 1.314 . S
C184 C182 1.353 1_565 S
C184 H242 0.930 1_565 S
C185 N181 1.279 . S
C185 C183 1.358 . S
C185 H243 0.930 . S
C186 C189 1.348 . S
C186 C190 1.356 . S
C186 O237 1.325 . S
C187 N188 1.279 . S
C187 C190 1.358 . S
C187 H244 0.930 . S
N188 C187 1.279 . S
N188 C191 1.314 . S
C189 C186 1.348 . S
C189 C191 1.353 . S
C189 H245 0.929 . S
C190 C186 1.356 . S
C190 C187 1.358 . S
C190 H246 0.930 . S
C191 N188 1.314 . S
C191 C189 1.353 . S
C191 H247 0.930 . S
C192 N193 1.314 . S
C192 C197 1.353 . S
C192 H198 0.930 . S
N193 Li176 1.990 . S
N193 C192 1.314 . S
N193 C195 1.279 . S
C194 C195 1.358 . S
C194 C196 1.356 . S
C194 H248 0.930 . S
C195 N193 1.279 . S
C195 C194 1.358 . S
C195 H199 0.930 . S
C196 C194 1.356 . S
C196 C197 1.348 . S
C197 C192 1.353 . S
C197 C196 1.348 . S
C197 H249 0.929 . S
H198 C192 0.930 . S
H199 C195 0.930 . S
C200 N201 1.314 . S
C200 C202 1.353 . S
C200 H206 0.930 . S
N201 Li177 1.990 . S
N201 C200 1.314 . S
N201 C204 1.279 . S
C202 C200 1.353 . S
C202 C205 1.348 . S
C202 H250 0.929 . S
C203 C204 1.358 . S
C203 C205 1.356 . S
C203 H251 0.930 . S
C204 N201 1.279 . S
C204 C203 1.358 . S
C204 H207 0.930 . S
C205 C202 1.348 . S
C205 C203 1.356 . S
H206 C200 0.930 . S
H207 C204 0.930 . S
C208 C210 1.348 . S
C208 C211 1.356 . S
C208 O238 1.325 . S
N209 C212 1.314 . S
N209 C213 1.279 . S
C210 C208 1.348 . S
C210 C212 1.353 . S
C210 H252 0.929 . S
C211 C208 1.356 . S
C211 C213 1.358 . S
C211 H253 0.930 . S
C212 N209 1.314 . S
C212 C210 1.353 . S
C212 H254 0.930 . S
C213 N209 1.279 . S
C213 C211 1.358 . S
C213 H255 0.930 . S
C214 C215 1.348 1_545 S
C214 C216 1.356 . S
C214 O239 1.325 . S
C215 C214 1.348 1_565 S
C215 C217 1.353 1_565 S
C215 H256 0.929 . S
C216 C214 1.356 . S
C216 C218 1.358 . S
C216 H257 0.930 . S
C217 C215 1.353 1_545 S
C217 N219 1.314 . S
C217 H258 0.930 1_545 S
C218 C216 1.358 . S
C218 N219 1.279 . S
C218 H259 0.930 . S
N219 C217 1.314 . S
N219 C218 1.279 . S
C220 C222 1.353 . S
C220 N223 1.314 . S
C220 H226 0.930 . S
C221 N223 1.279 . S
C221 C224 1.358 . S
C221 H227 0.930 . S
C222 C220 1.353 . S
C222 C225 1.348 . S
C222 H260 0.929 . S
N223 Li178 1.990 . S
N223 C220 1.314 . S
N223 C221 1.279 . S
C224 C221 1.358 . S
C224 C225 1.356 . S
C224 H261 0.930 . S
C225 C222 1.348 . S
C225 C224 1.356 . S
H226 C220 0.930 . S
H227 C221 0.930 . S
C228 N229 1.314 . S
C228 C230 1.353 . S
C228 H234 0.930 . S
N229 Li179 1.990 . S
N229 C228 1.314 . S
N229 C232 1.279 . S
C230 C228 1.353 . S
C230 C233 1.348 . S
C230 H262 0.929 . S
C231 C232 1.358 . S
C231 C233 1.356 . S
C231 H263 0.930 . S
C232 N229 1.279 . S
C232 C231 1.358 . S
C232 H235 0.930 . S
C233 C230 1.348 . S
C233 C231 1.356 . S
H234 C228 0.930 . S
H235 C232 0.930 . S
O236 Li176 1.956 . S
O236 Li177 1.970 1_565 S
O236 Li178 1.961 1_455 S
O236 C180 1.325 . S
O237 Li176 1.970 1_545 S
O237 Li177 1.956 . S
O237 Li179 1.961 1_455 S
O237 C186 1.325 . S
O238 Li176 1.961 1_655 S
O238 Li178 1.956 . S
O238 Li179 1.970 1_565 S
O238 C208 1.325 . S
O239 Li177 1.961 1_655 S
O239 Li178 1.970 1_545 S
O239 Li179 1.956 . S
O239 C214 1.325 . S
H240 C182 0.929 . S
H241 C183 0.930 . S
H242 C184 0.930 1_545 S
H243 C185 0.930 . S
H244 C187 0.930 . S
H245 C189 0.929 . S
H246 C190 0.930 . S
H247 C191 0.930 . S
H248 C194 0.930 . S
H249 C197 0.929 . S
H250 C202 0.929 . S
H251 C203 0.930 . S
H252 C210 0.929 . S
H253 C211 0.930 . S
H254 C212 0.930 . S
H255 C213 0.930 . S
H256 C215 0.929 . S
H257 C216 0.930 . S
H258 C217 0.930 1_565 S
H259 C218 0.930 . S
H260 C222 0.929 . S
H261 C224 0.930 . S
H262 C230 0.929 . S
H263 C231 0.930 . S
H264 C283 0.949 . S
H265 C284 0.950 . S
H266 C286 0.950 . S
H267 C287 0.950 . S
H268 C289 0.950 . S
H269 C292 0.950 . S
H270 C293 0.950 . S
H271 C295 0.951 . S
H272 C296 0.949 . S
H273 C298 0.949 . S
H274 C299 0.950 . S
H275 C301 0.950 . S
H276 C302 0.950 . S
H277 C304 0.950 . S
H278 C307 0.950 . S
H279 C308 0.950 . S
H280 C310 0.951 . S
H281 C311 0.949 . S
C282 C283 1.376 . S
C282 C287 1.386 1_455 S
C282 C288 1.483 . S
C283 H264 0.949 . S
C283 C282 1.376 . S
C283 C284 1.397 . S
C284 H265 0.950 . S
C284 C283 1.397 . S
C284 C285 1.391 . S
C285 C284 1.391 . S
C285 C286 1.405 1_455 S
C286 H266 0.950 . S
C286 C285 1.405 1_655 S
C286 C287 1.367 . S
C287 H267 0.950 . S
C287 C282 1.386 1_655 S
C287 C286 1.367 . S
C288 C282 1.483 . S
C288 C289 1.382 . S
C288 C290 1.403 1_455 S
C289 H268 0.950 . S
C289 C288 1.382 . S
C289 C305 1.411 . S
C290 C288 1.403 1_655 S
C290 C291 1.489 . S
C290 C304 1.411 . S
C291 C290 1.489 . S
C291 C292 1.383 1_655 S
C291 C296 1.382 . S
C292 H269 0.950 . S
C292 C291 1.383 1_455 S
C292 C293 1.395 . S
C293 H270 0.950 . S
C293 C292 1.395 . S
C293 C294 1.288 1_455 S
C294 C293 1.288 1_655 S
C294 C295 1.392 . S
C295 H271 0.951 . S
C295 C294 1.392 . S
C295 C296 1.392 . S
C296 H272 0.949 . S
C296 C291 1.382 . S
C296 C295 1.392 . S
C297 C298 1.376 . S
C297 C302 1.386 1_655 S
C297 C303 1.483 . S
C298 H273 0.949 . S
C298 C297 1.376 . S
C298 C299 1.397 . S
C299 H274 0.950 . S
C299 C298 1.397 . S
C299 C300 1.399 . S
C300 C299 1.399 . S
C300 C301 1.390 1_655 S
C301 H275 0.950 . S
C301 C300 1.390 1_455 S
C301 C302 1.367 . S
C302 H276 0.950 . S
C302 C297 1.386 1_455 S
C302 C301 1.367 . S
C303 C297 1.483 . S
C303 C304 1.382 . S
C303 C305 1.403 1_655 S
C304 H277 0.950 . S
C304 C290 1.411 . S
C304 C303 1.382 . S
C305 C289 1.411 . S
C305 C303 1.403 1_455 S
C305 C306 1.489 . S
C306 C305 1.489 . S
C306 C307 1.383 1_455 S
C306 C311 1.382 . S
C307 H278 0.950 . S
C307 C306 1.383 1_655 S
C307 C308 1.395 . S
C308 H279 0.950 . S
C308 C307 1.395 . S
C308 C309 1.288 1_655 S
C309 C308 1.288 1_455 S
C309 C310 1.392 . S
C310 H280 0.951 . S
C310 C309 1.392 . S
C310 C311 1.392 . S
C311 H281 0.949 . S
C311 C306 1.382 . S
C311 C310 1.392 . S
H312 C331 0.949 . S
H313 C332 0.950 . S
H314 C334 0.950 . S
H315 C335 0.950 . S
H316 C337 0.950 . S
H317 C340 0.950 . S
H318 C341 0.950 . S
H319 C343 0.951 . S
H320 C344 0.949 . S
H321 C346 0.949 . S
H322 C347 0.950 . S
H323 C349 0.950 . S
H324 C350 0.950 . S
H325 C352 0.950 . S
H326 C355 0.950 . S
H327 C356 0.950 . S
H328 C358 0.951 . S
H329 C359 0.949 . S
C330 C331 1.376 . S
C330 C335 1.386 1_545 S
C330 C336 1.483 . S
C331 H312 0.949 . S
C331 C330 1.376 . S
C331 C332 1.397 . S
C332 H313 0.950 . S
C332 C331 1.397 . S
C332 C333 1.391 . S
C333 C332 1.391 . S
C333 C334 1.405 1_545 S
C334 H314 0.950 . S
C334 C333 1.405 1_565 S
C334 C335 1.367 . S
C335 H315 0.950 . S
C335 C330 1.386 1_565 S
C335 C334 1.367 . S
C336 C330 1.483 . S
C336 C337 1.382 . S
C336 C338 1.403 1_545 S
C337 H316 0.950 . S
C337 C336 1.382 . S
C337 C353 1.411 . S
C338 C336 1.403 1_565 S
C338 C339 1.489 . S
C338 C352 1.411 . S
C339 C338 1.489 . S
C339 C340 1.383 1_565 S
C339 C344 1.382 . S
C340 H317 0.950 . S
C340 C339 1.383 1_545 S
C340 C341 1.395 . S
C341 H318 0.950 . S
C341 C340 1.395 . S
C341 C342 1.288 1_545 S
C342 C341 1.288 1_565 S
C342 C343 1.392 . S
C343 H319 0.951 . S
C343 C342 1.392 . S
C343 C344 1.392 . S
C344 H320 0.949 . S
C344 C339 1.382 . S
C344 C343 1.392 . S
C345 C346 1.376 . S
C345 C350 1.386 1_565 S
C345 C351 1.483 . S
C346 H321 0.949 . S
C346 C345 1.376 . S
C346 C347 1.397 . S
C347 H322 0.950 . S
C347 C346 1.397 . S
C347 C348 1.413 . S
C348 C347 1.413 . S
C348 C349 1.393 1_565 S
C349 H323 0.950 . S
C349 C348 1.393 1_545 S
C349 C350 1.367 . S
C350 H324 0.950 . S
C350 C345 1.386 1_545 S
C350 C349 1.367 . S
C351 C345 1.483 . S
C351 C352 1.382 . S
C351 C353 1.403 1_565 S
C352 H325 0.950 . S
C352 C338 1.411 . S
C352 C351 1.382 . S
C353 C337 1.411 . S
C353 C351 1.403 1_545 S
C353 C354 1.489 . S
C354 C353 1.489 . S
C354 C355 1.383 1_545 S
C354 C359 1.382 . S
C355 H326 0.950 . S
C355 C354 1.383 1_565 S
C355 C356 1.395 . S
C356 H327 0.950 . S
C356 C355 1.395 . S
C356 C357 1.288 1_565 S
C357 C356 1.288 1_545 S
C357 C358 1.392 . S
C358 H328 0.951 . S
C358 C357 1.392 . S
C358 C359 1.392 . S
C359 H329 0.949 . S
C359 C354 1.382 . S
C359 C358 1.392 . S
H360 C379 0.949 . S
H361 C380 0.950 . S
H362 C382 0.950 . S
H363 C383 0.950 . S
H364 C385 0.950 . S
H365 C388 0.950 . S
H366 C389 0.950 . S
H367 C391 0.951 . S
H368 C392 0.949 . S
H369 C394 0.949 . S
H370 C395 0.950 . S
H371 C397 0.950 . S
H372 C398 0.950 . S
H373 C400 0.950 . S
H374 C403 0.950 . S
H375 C404 0.950 . S
H376 C406 0.951 . S
H377 C407 0.949 . S
C378 C379 1.376 . S
C378 C383 1.386 . S
C378 C384 1.483 . S
C379 H360 0.949 . S
C379 C378 1.376 . S
C379 C380 1.397 . S
C380 H361 0.950 . S
C380 C379 1.397 . S
C380 C381 1.391 . S
C381 C380 1.391 . S
C381 C382 1.405 . S
C382 H362 0.950 . S
C382 C381 1.405 . S
C382 C383 1.367 . S
C383 H363 0.950 . S
C383 C378 1.386 . S
C383 C382 1.367 . S
C384 C378 1.483 . S
C384 C385 1.382 . S
C384 C386 1.403 . S
C385 H364 0.950 . S
C385 C384 1.382 . S
C385 C401 1.411 . S
C386 C384 1.403 . S
C386 C387 1.489 . S
C386 C400 1.411 . S
C387 C386 1.489 . S
C387 C388 1.383 . S
C387 C392 1.382 . S
C388 H365 0.950 . S
C388 C387 1.383 . S
C388 C389 1.395 . S
C389 H366 0.950 . S
C389 C388 1.395 . S
C389 C390 1.288 . S
C390 C389 1.288 . S
C390 C391 1.392 . S
C391 H367 0.951 . S
C391 C390 1.392 . S
C391 C392 1.392 . S
C392 H368 0.949 . S
C392 C387 1.382 . S
C392 C391 1.392 . S
C393 C394 1.376 . S
C393 C398 1.386 . S
C393 C399 1.483 . S
C394 H369 0.949 . S
C394 C393 1.376 . S
C394 C395 1.397 . S
C395 H370 0.950 . S
C395 C394 1.397 . S
C395 C396 1.391 . S
C396 C395 1.391 . S
C396 C397 1.405 . S
C397 H371 0.950 . S
C397 C396 1.405 . S
C397 C398 1.367 . S
C398 H372 0.950 . S
C398 C393 1.386 . S
C398 C397 1.367 . S
C399 C393 1.483 . S
C399 C400 1.382 . S
C399 C401 1.403 . S
C400 H373 0.950 . S
C400 C386 1.411 . S
C400 C399 1.382 . S
C401 C385 1.411 . S
C401 C399 1.403 . S
C401 C402 1.489 . S
C402 C401 1.489 . S
C402 C403 1.383 . S
C402 C407 1.382 . S
C403 H374 0.950 . S
C403 C402 1.383 . S
C403 C404 1.395 . S
C404 H375 0.950 . S
C404 C403 1.395 . S
C404 C405 1.288 . S
C405 C404 1.288 . S
C405 C406 1.392 . S
C406 H376 0.951 . S
C406 C405 1.392 . S
C406 C407 1.392 . S
C407 H377 0.949 . S
C407 C402 1.382 . S
C407 C406 1.392 . S
C408 C409 1.363 . S
C408 C414 1.379 . S
C408 N416 1.356 . S
C409 C408 1.363 . S
C409 C415 1.363 . S
C410 C411 1.363 1_455 S
C410 C415 1.379 1_455 S
C410 N417 1.356 . S
C411 C410 1.363 1_655 S
C411 C414 1.363 . S
N412 C414 1.356 . S
N412 H424 0.984 . S
N412 H425 0.985 . S
N413 C415 1.356 . S
N413 H418 0.984 . S
N413 H419 0.985 1_655 S
C414 C408 1.379 . S
C414 C411 1.363 . S
C414 N412 1.356 . S
C415 C409 1.363 . S
C415 C410 1.379 1_655 S
C415 N413 1.356 . S
N416 C408 1.356 . S
N416 H422 0.984 . S
N416 H423 0.984 . S
N417 C410 1.356 . S
N417 H420 0.984 . S
N417 H421 0.985 . S
H418 N413 0.984 . S
H419 N413 0.985 1_455 S
H420 N417 0.984 . S
H421 N417 0.985 . S
H422 N416 0.984 . S
H423 N416 0.984 . S
H424 N412 0.984 . S
H425 N412 0.985 . S
C426 C427 1.362 1_545 S
C426 C432 1.380 . S
C426 N434 1.356 . S
C427 C426 1.362 1_565 S
C427 C433 1.363 . S
C428 C429 1.363 . S
C428 C433 1.379 . S
C428 N435 1.356 . S
C429 C428 1.363 . S
C429 C432 1.363 1_565 S
N430 C432 1.356 . S
N430 H442 0.984 . S
N430 H443 0.985 . S
N431 C433 1.356 . S
N431 H436 0.984 . S
N431 H437 0.985 . S
C432 C426 1.380 . S
C432 C429 1.363 1_545 S
C432 N430 1.356 . S
C433 C427 1.363 . S
C433 C428 1.379 . S
C433 N431 1.356 . S
N434 C426 1.356 . S
N434 H440 0.984 . S
N434 H441 0.984 1_545 S
N435 C428 1.356 . S
N435 H438 0.984 . S
N435 H439 0.985 . S
H436 N431 0.984 . S
H437 N431 0.985 . S
H438 N435 0.984 . S
H439 N435 0.985 . S
H440 N434 0.984 . S
H441 N434 0.984 1_565 S
H442 N430 0.984 . S
H443 N430 0.985 . S
C444 C445 1.363 . S
C444 C450 1.379 . S
C444 N452 1.356 . S
C445 C444 1.363 . S
C445 C451 1.363 . S
C446 C447 1.363 . S
C446 C451 1.379 . S
C446 N453 1.356 . S
C447 C446 1.363 . S
C447 C450 1.363 . S
N448 C450 1.356 . S
N448 H460 0.984 . S
N448 H461 0.985 . S
N449 C451 1.356 . S
N449 H454 0.984 . S
N449 H455 0.985 . S
C450 C444 1.379 . S
C450 C447 1.363 . S
C450 N448 1.356 . S
C451 C445 1.363 . S
C451 C446 1.379 . S
C451 N449 1.356 . S
N452 C444 1.356 . S
N452 H458 0.984 . S
N452 H459 0.984 . S
N453 C446 1.356 . S
N453 H456 0.984 . S
N453 H457 0.985 . S
H454 N449 0.984 . S
H455 N449 0.985 . S
H456 N453 0.984 . S
H457 N453 0.985 . S
H458 N452 0.984 . S
H459 N452 0.984 . S
H460 N448 0.984 . S
H461 N448 0.985 . S
C462 C463 1.363 . S
C462 C468 1.379 . S
C462 N470 1.356 . S
C463 C462 1.363 . S
C463 C469 1.363 . S
C464 C465 1.363 1_655 S
C464 C469 1.379 1_655 S
C464 N471 1.356 . S
C465 C464 1.363 1_455 S
C465 C468 1.363 . S
N466 C468 1.356 . S
N466 H478 0.984 . S
N466 H479 0.985 . S
N467 C469 1.356 1_655 S
N467 H472 0.984 1_655 S
N467 H473 0.985 . S
C468 C462 1.379 . S
C468 C465 1.363 . S
C468 N466 1.356 . S
C469 C463 1.363 . S
C469 C464 1.379 1_455 S
C469 N467 1.356 1_455 S
N470 C462 1.356 . S
N470 H476 0.984 . S
N470 H477 0.984 . S
N471 C464 1.356 . S
N471 H474 0.984 . S
N471 H475 0.985 . S
H472 N467 0.984 1_455 S
H473 N467 0.985 . S
H474 N471 0.984 . S
H475 N471 0.985 . S
H476 N470 0.984 . S
H477 N470 0.984 . S
H478 N466 0.984 . S
H479 N466 0.985 . S
C480 C481 1.363 . S
C480 C486 1.379 . S
C480 N488 1.356 . S
C481 C480 1.363 . S
C481 C487 1.363 . S
C482 C483 1.363 1_565 S
C482 C487 1.379 1_565 S
C482 N489 1.356 . S
C483 C482 1.363 1_545 S
C483 C486 1.363 . S
N484 C486 1.356 . S
N484 H496 0.984 . S
N484 H497 0.985 . S
N485 C487 1.356 1_565 S
N485 H490 0.984 1_565 S
N485 H491 0.985 . S
C486 C480 1.379 . S
C486 C483 1.363 . S
C486 N484 1.356 . S
C487 C481 1.363 . S
C487 C482 1.379 1_545 S
C487 N485 1.356 1_545 S
N488 C480 1.356 . S
N488 H494 0.984 . S
N488 H495 0.984 . S
N489 C482 1.356 . S
N489 H492 0.984 . S
N489 H493 0.985 . S
H490 N485 0.984 1_545 S
H491 N485 0.985 . S
H492 N489 0.984 . S
H493 N489 0.985 . S
H494 N488 0.984 . S
H495 N488 0.984 . S
H496 N484 0.984 . S
H497 N484 0.985 . S
C498 C499 1.363 . S
C498 C504 1.379 . S
C498 N506 1.356 . S
C499 C498 1.363 . S
C499 C505 1.363 . S
C500 C501 1.363 . S
C500 C505 1.379 . S
C500 N507 1.356 . S
C501 C500 1.363 . S
C501 C504 1.363 . S
N502 C504 1.356 . S
N502 H514 0.984 . S
N502 H515 0.985 . S
N503 C505 1.356 . S
N503 H508 0.984 . S
N503 H509 0.985 . S
C504 C498 1.379 . S
C504 C501 1.363 . S
C504 N502 1.356 . S
C505 C499 1.363 . S
C505 C500 1.379 . S
C505 N503 1.356 . S
N506 C498 1.356 . S
N506 H512 0.984 . S
N506 H513 0.984 . S
N507 C500 1.356 . S
N507 H510 0.984 . S
N507 H511 0.985 . S
H508 N503 0.984 . S
H509 N503 0.985 . S
H510 N507 0.984 . S
H511 N507 0.985 . S
H512 N506 0.984 . S
H513 N506 0.984 . S
H514 N502 0.984 . S
H515 N502 0.985 . S
C516 C517 1.363 . S
C516 C522 1.379 . S
C516 N524 1.356 . S
C517 C516 1.363 . S
C517 C523 1.363 . S
C518 C519 1.363 . S
C518 C523 1.379 . S
C518 N525 1.356 1_545 S
C519 C518 1.363 . S
C519 C522 1.363 . S
N520 C522 1.356 . S
N520 H532 0.984 . S
N520 H533 0.985 . S
N521 C523 1.356 . S
N521 H526 0.984 . S
N521 H527 0.985 . S
C522 C516 1.379 . S
C522 C519 1.363 . S
C522 N520 1.356 . S
C523 C517 1.363 . S
C523 C518 1.379 . S
C523 N521 1.356 . S
N524 C516 1.356 . S
N524 H530 0.984 . S
N524 H531 0.984 . S
N525 C518 1.356 1_565 S
N525 H528 0.984 . S
N525 H529 0.985 . S
H526 N521 0.984 . S
H527 N521 0.985 . S
H528 N525 0.984 . S
H529 N525 0.985 . S
H530 N524 0.984 . S
H531 N524 0.984 . S
H532 N520 0.984 . S
H533 N520 0.985 . S
C534 C535 1.363 . S
C534 C540 1.379 . S
C534 N542 1.356 . S
C535 C534 1.363 . S
C535 C541 1.363 . S
C536 C537 1.363 . S
C536 C541 1.379 . S
C536 N543 1.356 . S
C537 C536 1.363 . S
C537 C540 1.363 . S
N538 C540 1.356 . S
N538 H550 0.984 . S
N538 H551 0.985 . S
N539 C541 1.356 . S
N539 H544 0.984 . S
N539 H545 0.985 . S
C540 C534 1.379 . S
C540 C537 1.363 . S
C540 N538 1.356 . S
C541 C535 1.363 . S
C541 C536 1.379 . S
C541 N539 1.356 . S
N542 C534 1.356 . S
N542 H548 0.984 1_556 S
N542 H549 0.984 1_556 S
N543 C536 1.356 . S
N543 H546 0.984 . S
N543 H547 0.985 . S
H544 N539 0.984 . S
H545 N539 0.985 . S
H546 N543 0.984 . S
H547 N543 0.985 . S
H548 N542 0.984 1_554 S
H549 N542 0.984 1_554 S
H550 N538 0.984 . S
H551 N538 0.985 . S
C552 C553 1.363 . S
C552 C558 1.379 . S
C552 N560 1.356 . S
C553 C552 1.363 . S
C553 C559 1.363 . S
C554 C555 1.363 1_455 S
C554 C559 1.379 1_455 S
C554 N561 1.356 . S
C555 C554 1.363 1_655 S
C555 C558 1.363 . S
N556 C558 1.356 . S
N556 H568 0.984 . S
N556 H569 0.985 . S
N557 C559 1.356 . S
N557 H562 0.984 . S
N557 H563 0.985 1_655 S
C558 C552 1.379 . S
C558 C555 1.363 . S
C558 N556 1.356 . S
C559 C553 1.363 . S
C559 C554 1.379 1_655 S
C559 N557 1.356 . S
N560 C552 1.356 . S
N560 H566 0.984 . S
N560 H567 0.984 . S
N561 C554 1.356 . S
N561 H564 0.984 . S
N561 H565 0.985 . S
H562 N557 0.984 . S
H563 N557 0.985 1_455 S
H564 N561 0.984 . S
H565 N561 0.985 . S
H566 N560 0.984 . S
H567 N560 0.984 . S
H568 N556 0.984 . S
H569 N556 0.985 . S
C570 C571 1.363 . S
C570 C576 1.379 . S
C570 N578 1.356 . S
C571 C570 1.363 . S
C571 C577 1.363 1_565 S
C572 C573 1.363 1_545 S
C572 C577 1.379 . S
C572 N579 1.356 . S
C573 C572 1.363 1_565 S
C573 C576 1.363 . S
N574 C576 1.356 . S
N574 H586 0.984 . S
N574 H587 0.985 . S
N575 C577 1.356 . S
N575 H580 0.984 1_545 S
N575 H581 0.985 . S
C576 C570 1.379 . S
C576 C573 1.363 . S
C576 N574 1.356 . S
C577 C571 1.363 1_545 S
C577 C572 1.379 . S
C577 N575 1.356 . S
N578 C570 1.356 . S
N578 H584 0.984 . S
N578 H585 0.984 . S
N579 C572 1.356 . S
N579 H582 0.984 . S
N579 H583 0.985 . S
H580 N575 0.984 1_565 S
H581 N575 0.985 . S
H582 N579 0.984 . S
H583 N579 0.985 . S
H584 N578 0.984 . S
H585 N578 0.984 . S
H586 N574 0.984 . S
H587 N574 0.985 . S
C588 C589 1.363 . S
C588 C594 1.379 . S
C588 N596 1.356 . S
C589 C588 1.363 . S
C589 C595 1.363 . S
C590 C591 1.363 . S
C590 C595 1.379 . S
C590 N597 1.356 . S
C591 C590 1.363 . S
C591 C594 1.363 . S
N592 C594 1.356 . S
N592 H604 0.984 . S
N592 H605 0.985 . S
N593 C595 1.356 . S
N593 H598 0.984 1_556 S
N593 H599 0.985 1_556 S
C594 C588 1.379 . S
C594 C591 1.363 . S
C594 N592 1.356 . S
C595 C589 1.363 . S
C595 C590 1.379 . S
C595 N593 1.356 . S
N596 C588 1.356 . S
N596 H602 0.984 . S
N596 H603 0.984 . S
N597 C590 1.356 . S
N597 H600 0.984 . S
N597 H601 0.985 . S
H598 N593 0.984 1_554 S
H599 N593 0.985 1_554 S
H600 N597 0.984 . S
H601 N597 0.985 . S
H602 N596 0.984 . S
H603 N596 0.984 . S
H604 N592 0.984 . S
H605 N592 0.985 . S
C606 C607 1.363 . S
C606 C612 1.379 . S
C606 N614 1.356 . S
C607 C606 1.363 . S
C607 C613 1.363 . S
C608 C609 1.363 . S
C608 C613 1.379 . S
C608 N615 1.338 1_455 S
C609 C608 1.363 . S
C609 C612 1.363 . S
N610 C612 1.356 . S
N610 H622 0.984 . S
N610 H623 0.985 . S
N611 C613 1.356 . S
N611 H616 0.984 . S
N611 H617 0.985 . S
C612 C606 1.379 . S
C612 C609 1.363 . S
C612 N610 1.356 . S
C613 C607 1.363 . S
C613 C608 1.379 . S
C613 N611 1.356 . S
N614 C606 1.356 . S
N614 H620 0.984 . S
N614 H621 0.984 . S
N615 C608 1.338 1_655 S
N615 H618 0.998 . S
N615 H619 0.991 . S
H616 N611 0.984 . S
H617 N611 0.985 . S
H618 N615 0.998 . S
H619 N615 0.991 . S
H620 N614 0.984 . S
H621 N614 0.984 . S
H622 N610 0.984 . S
H623 N610 0.985 . S
C411 C285 1.558 1_655 S
C409 C29 1.520 . S
C427 C137 1.520 . S
C429 C333 1.558 1_565 S
C445 C225 1.520 . S
C447 C405 1.522 . S
C463 C49 1.520 . S
C465 C309 1.522 . S
C483 C357 1.522 . S
C481 C117 1.520 . S
C499 C205 1.520 . S
C501 C381 1.558 . S
C519 C342 1.566 1_545 S
C517 C233 1.520 . S
C535 C57 1.520 . S
C537 C396 1.543 . S
C555 C300 1.554 . S
C553 C108 1.520 . S
C573 C348 1.537 . S
C571 C196 1.520 . S
C591 C390 1.565 . S
C589 C20 1.520 . S
C607 C145 1.520 . S
C609 C294 1.566 1_455 S
