# Generated by pormake.
# Topology llk, (3,12)-cn, num edge types: 1
# Building blocks:
#     Node 0, Type 0, BuildingBlock: KAKCAD_clean_linker_0, # of connection points: 3
#     Node 1, Type 0, BuildingBlock: KAKCAD_clean_linker_0, # of connection points: 3
#     Node 2, Type 0, BuildingBlock: KAKCAD_clean_linker_0, # of connection points: 3
#     Node 3, Type 0, BuildingBlock: KAKCAD_clean_linker_0, # of connection points: 3
#     Node 4, Type 0, BuildingBlock: KAKCAD_clean_linker_0, # of connection points: 3
#     Node 5, Type 0, BuildingBlock: KAKCAD_clean_linker_0, # of connection points: 3
#     Node 6, Type 0, BuildingBlock: KAKCAD_clean_linker_0, # of connection points: 3
#     Node 7, Type 0, BuildingBlock: KAKCAD_clean_linker_0, # of connection points: 3
#     Node 8, Type 0, BuildingBlock: KAKCAD_clean_linker_0, # of connection points: 3
#     Node 9, Type 0, BuildingBlock: KAKCAD_clean_linker_0, # of connection points: 3
#     Node 10, Type 0, BuildingBlock: KAKCAD_clean_linker_0, # of connection points: 3
#     Node 11, Type 0, BuildingBlock: KAKCAD_clean_linker_0, # of connection points: 3
#     Node 12, Type 0, BuildingBlock: KAKCAD_clean_linker_0, # of connection points: 3
#     Node 13, Type 0, BuildingBlock: KAKCAD_clean_linker_0, # of connection points: 3
#     Node 14, Type 0, BuildingBlock: KAKCAD_clean_linker_0, # of connection points: 3
#     Node 15, Type 0, BuildingBlock: KAKCAD_clean_linker_0, # of connection points: 3
#     Node 16, Type 0, BuildingBlock: KAKCAD_clean_linker_0, # of connection points: 3
#     Node 17, Type 0, BuildingBlock: KAKCAD_clean_linker_0, # of connection points: 3
#     Node 18, Type 0, BuildingBlock: KAKCAD_clean_linker_0, # of connection points: 3
#     Node 19, Type 0, BuildingBlock: KAKCAD_clean_linker_0, # of connection points: 3
#     Node 20, Type 0, BuildingBlock: KAKCAD_clean_linker_0, # of connection points: 3
#     Node 21, Type 0, BuildingBlock: KAKCAD_clean_linker_0, # of connection points: 3
#     Node 22, Type 0, BuildingBlock: KAKCAD_clean_linker_0, # of connection points: 3
#     Node 23, Type 0, BuildingBlock: KAKCAD_clean_linker_0, # of connection points: 3
#     Node 24, Type 1, BuildingBlock: EZIPEK_clean_sbu_0, # of connection points: 12
#     Node 25, Type 1, BuildingBlock: EZIPEK_clean_sbu_0, # of connection points: 12
#     Node 26, Type 1, BuildingBlock: EZIPEK_clean_sbu_0, # of connection points: 12
#     Node 27, Type 1, BuildingBlock: EZIPEK_clean_sbu_0, # of connection points: 12
#     Node 28, Type 1, BuildingBlock: EZIPEK_clean_sbu_0, # of connection points: 12
#     Node 29, Type 1, BuildingBlock: EZIPEK_clean_sbu_0, # of connection points: 12
#     Edge 30, Type (0, 1), BuildingBlock: OJICUG_clean_linker_0, # of connection points: 2
#     Edge 31, Type (0, 1), BuildingBlock: OJICUG_clean_linker_0, # of connection points: 2
#     Edge 32, Type (0, 1), BuildingBlock: OJICUG_clean_linker_0, # of connection points: 2
#     Edge 33, Type (0, 1), BuildingBlock: OJICUG_clean_linker_0, # of connection points: 2
#     Edge 34, Type (0, 1), BuildingBlock: OJICUG_clean_linker_0, # of connection points: 2
#     Edge 35, Type (0, 1), BuildingBlock: OJICUG_clean_linker_0, # of connection points: 2
#     Edge 36, Type (0, 1), BuildingBlock: OJICUG_clean_linker_0, # of connection points: 2
#     Edge 37, Type (0, 1), BuildingBlock: OJICUG_clean_linker_0, # of connection points: 2
#     Edge 38, Type (0, 1), BuildingBlock: OJICUG_clean_linker_0, # of connection points: 2
#     Edge 39, Type (0, 1), BuildingBlock: OJICUG_clean_linker_0, # of connection points: 2
#     Edge 40, Type (0, 1), BuildingBlock: OJICUG_clean_linker_0, # of connection points: 2
#     Edge 41, Type (0, 1), BuildingBlock: OJICUG_clean_linker_0, # of connection points: 2
#     Edge 42, Type (0, 1), BuildingBlock: OJICUG_clean_linker_0, # of connection points: 2
#     Edge 43, Type (0, 1), BuildingBlock: OJICUG_clean_linker_0, # of connection points: 2
#     Edge 44, Type (0, 1), BuildingBlock: OJICUG_clean_linker_0, # of connection points: 2
#     Edge 45, Type (0, 1), BuildingBlock: OJICUG_clean_linker_0, # of connection points: 2
#     Edge 46, Type (0, 1), BuildingBlock: OJICUG_clean_linker_0, # of connection points: 2
#     Edge 47, Type (0, 1), BuildingBlock: OJICUG_clean_linker_0, # of connection points: 2
#     Edge 48, Type (0, 1), BuildingBlock: OJICUG_clean_linker_0, # of connection points: 2
#     Edge 49, Type (0, 1), BuildingBlock: OJICUG_clean_linker_0, # of connection points: 2
#     Edge 50, Type (0, 1), BuildingBlock: OJICUG_clean_linker_0, # of connection points: 2
#     Edge 51, Type (0, 1), BuildingBlock: OJICUG_clean_linker_0, # of connection points: 2
#     Edge 52, Type (0, 1), BuildingBlock: OJICUG_clean_linker_0, # of connection points: 2
#     Edge 53, Type (0, 1), BuildingBlock: OJICUG_clean_linker_0, # of connection points: 2
#     Edge 54, Type (0, 1), BuildingBlock: OJICUG_clean_linker_0, # of connection points: 2
#     Edge 55, Type (0, 1), BuildingBlock: OJICUG_clean_linker_0, # of connection points: 2
#     Edge 56, Type (0, 1), BuildingBlock: OJICUG_clean_linker_0, # of connection points: 2
#     Edge 57, Type (0, 1), BuildingBlock: OJICUG_clean_linker_0, # of connection points: 2
#     Edge 58, Type (0, 1), BuildingBlock: OJICUG_clean_linker_0, # of connection points: 2
#     Edge 59, Type (0, 1), BuildingBlock: OJICUG_clean_linker_0, # of connection points: 2
#     Edge 60, Type (0, 1), BuildingBlock: OJICUG_clean_linker_0, # of connection points: 2
#     Edge 61, Type (0, 1), BuildingBlock: OJICUG_clean_linker_0, # of connection points: 2
#     Edge 62, Type (0, 1), BuildingBlock: OJICUG_clean_linker_0, # of connection points: 2
#     Edge 63, Type (0, 1), BuildingBlock: OJICUG_clean_linker_0, # of connection points: 2
#     Edge 64, Type (0, 1), BuildingBlock: OJICUG_clean_linker_0, # of connection points: 2
#     Edge 65, Type (0, 1), BuildingBlock: OJICUG_clean_linker_0, # of connection points: 2
#     Edge 66, Type (0, 1), BuildingBlock: OJICUG_clean_linker_0, # of connection points: 2
#     Edge 67, Type (0, 1), BuildingBlock: OJICUG_clean_linker_0, # of connection points: 2
#     Edge 68, Type (0, 1), BuildingBlock: OJICUG_clean_linker_0, # of connection points: 2
#     Edge 69, Type (0, 1), BuildingBlock: OJICUG_clean_linker_0, # of connection points: 2
#     Edge 70, Type (0, 1), BuildingBlock: OJICUG_clean_linker_0, # of connection points: 2
#     Edge 71, Type (0, 1), BuildingBlock: OJICUG_clean_linker_0, # of connection points: 2
#     Edge 72, Type (0, 1), BuildingBlock: OJICUG_clean_linker_0, # of connection points: 2
#     Edge 73, Type (0, 1), BuildingBlock: OJICUG_clean_linker_0, # of connection points: 2
#     Edge 74, Type (0, 1), BuildingBlock: OJICUG_clean_linker_0, # of connection points: 2
#     Edge 75, Type (0, 1), BuildingBlock: OJICUG_clean_linker_0, # of connection points: 2
#     Edge 76, Type (0, 1), BuildingBlock: OJICUG_clean_linker_0, # of connection points: 2
#     Edge 77, Type (0, 1), BuildingBlock: OJICUG_clean_linker_0, # of connection points: 2
#     Edge 78, Type (0, 1), BuildingBlock: OJICUG_clean_linker_0, # of connection points: 2
#     Edge 79, Type (0, 1), BuildingBlock: OJICUG_clean_linker_0, # of connection points: 2
#     Edge 80, Type (0, 1), BuildingBlock: OJICUG_clean_linker_0, # of connection points: 2
#     Edge 81, Type (0, 1), BuildingBlock: OJICUG_clean_linker_0, # of connection points: 2
#     Edge 82, Type (0, 1), BuildingBlock: OJICUG_clean_linker_0, # of connection points: 2
#     Edge 83, Type (0, 1), BuildingBlock: OJICUG_clean_linker_0, # of connection points: 2
#     Edge 84, Type (0, 1), BuildingBlock: OJICUG_clean_linker_0, # of connection points: 2
#     Edge 85, Type (0, 1), BuildingBlock: OJICUG_clean_linker_0, # of connection points: 2
#     Edge 86, Type (0, 1), BuildingBlock: OJICUG_clean_linker_0, # of connection points: 2
#     Edge 87, Type (0, 1), BuildingBlock: OJICUG_clean_linker_0, # of connection points: 2
#     Edge 88, Type (0, 1), BuildingBlock: OJICUG_clean_linker_0, # of connection points: 2
#     Edge 89, Type (0, 1), BuildingBlock: OJICUG_clean_linker_0, # of connection points: 2
#     Edge 90, Type (0, 1), BuildingBlock: OJICUG_clean_linker_0, # of connection points: 2
#     Edge 91, Type (0, 1), BuildingBlock: OJICUG_clean_linker_0, # of connection points: 2
#     Edge 92, Type (0, 1), BuildingBlock: OJICUG_clean_linker_0, # of connection points: 2
#     Edge 93, Type (0, 1), BuildingBlock: OJICUG_clean_linker_0, # of connection points: 2
#     Edge 94, Type (0, 1), BuildingBlock: OJICUG_clean_linker_0, # of connection points: 2
#     Edge 95, Type (0, 1), BuildingBlock: OJICUG_clean_linker_0, # of connection points: 2
#     Edge 96, Type (0, 1), BuildingBlock: OJICUG_clean_linker_0, # of connection points: 2
#     Edge 97, Type (0, 1), BuildingBlock: OJICUG_clean_linker_0, # of connection points: 2
#     Edge 98, Type (0, 1), BuildingBlock: OJICUG_clean_linker_0, # of connection points: 2
#     Edge 99, Type (0, 1), BuildingBlock: OJICUG_clean_linker_0, # of connection points: 2
#     Edge 100, Type (0, 1), BuildingBlock: OJICUG_clean_linker_0, # of connection points: 2
#     Edge 101, Type (0, 1), BuildingBlock: OJICUG_clean_linker_0, # of connection points: 2
# Relax obj value: 0.106
# Max RMSD: 0.160
# Mean RMSD: 0.134
data_MOF--net-llk--node1-EZIPEK_clean_sbu_0--node2-KAKCAD_clean_linker_0--edge1-OJICUG_clean_linker_0
_symmetry_space_group_name_H-M    P1
_symmetry_Int_Tables_number       1
_symmetry_cell_setting            triclinic
loop_
_symmetry_equiv_pos_as_xyz
'x, y, z'
_cell_length_a     44.728625
_cell_length_b     44.727507
_cell_length_c     44.72808
_cell_angle_alpha  89.997949
_cell_angle_beta   90.00025
_cell_angle_gamma 89.999258
loop_
_atom_site_label
_atom_site_type_symbol
_atom_site_fract_x
_atom_site_fract_y
_atom_site_fract_z
_atom_type_partial_charge
C0 C 0.99488 0.34836 0.3197 0.0
C1 C 0.01408 0.34579 0.34433 0.0
C2 C 0.99477 0.32641 0.29781 0.0
C3 C 0.0139 0.30172 0.30031 0.0
C4 C 0.03321 0.29918 0.32487 0.0
C5 C 0.03328 0.32114 0.34682 0.0
C6 C 0.01324 0.27837 0.27746 0.0
C7 C 0.0138 0.28614 0.24742 0.0
C8 C 0.012 0.26443 0.22505 0.0
C9 C 0.00947 0.23372 0.23341 0.0
C10 C 0.00908 0.2259 0.26438 0.0
C11 C 0.01112 0.24855 0.28579 0.0
C12 C 1.00661 0.19518 0.27714 0.0
C13 C 0.98032 0.18787 0.2929 0.0
C14 C 0.033 0.17981 0.28465 0.0
C15 C 0.03359 0.15953 0.30873 0.0
C16 C 0.00787 0.15437 0.32626 0.0
C17 C 0.01227 0.27675 0.19404 0.0
C18 C 0.98498 0.28555 0.18109 0.0
C19 C 0.03854 0.29115 0.18424 0.0
C20 C 0.03726 0.31554 0.16447 0.0
C21 C 0.0097 0.32599 0.15347 0.0
C22 C 0.98373 0.30969 0.1609 0.0
C23 C 0.98095 0.16793 0.31719 0.0
H24 H 0.9796 0.36705 0.31767 0.0
H25 H 0.9794 0.32847 0.2792 0.0
H26 H 0.04831 0.28036 0.32696 0.0
H27 H 0.04845 0.31901 0.36559 0.0
H28 H 0.01562 0.30958 0.24132 0.0
H29 H 0.01047 0.24288 0.30939 0.0
H30 H 0.00784 0.21653 0.21645 0.0
H31 H 0.95982 0.19997 0.28838 0.0
H32 H 0.05386 0.18568 0.27383 0.0
H33 H 0.05477 0.14958 0.31494 0.0
H34 H 0.96424 0.27578 0.18889 0.0
H35 H 0.05981 0.28561 0.19442 0.0
H36 H 0.96056 0.16412 0.32967 0.0
H37 H 0.96208 0.31698 0.15286 0.0
H38 H 0.05779 0.32708 0.15884 0.0
C39 C 0.69656 0.02308 0.34804 0.0
C40 C 0.67201 1.00378 0.34543 0.0
C41 C 0.7185 0.02326 0.32613 0.0
C42 C 0.71611 1.00411 0.30145 0.0
C43 C 0.69162 0.98472 0.29887 0.0
C44 C 0.66963 0.98457 0.32078 0.0
C45 C 0.73906 1.00471 0.2782 0.0
C46 C 0.76907 1.00404 0.28606 0.0
C47 C 0.79151 1.00544 0.2644 0.0
C48 C 0.78326 0.0077 0.23363 0.0
C49 C 0.75232 0.00828 0.22573 0.0
C50 C 0.73083 1.00663 0.24834 0.0
C51 C 0.73964 0.01048 0.19495 0.0
C52 C 0.72397 0.03675 0.18735 0.0
C53 C 0.73206 0.98395 0.17985 0.0
C54 C 0.70797 0.98322 0.15958 0.0
C55 C 0.69051 0.00894 0.15416 0.0
C56 C 0.82248 1.00493 0.2768 0.0
C57 C 0.83567 0.03212 0.28552 0.0
C58 C 0.83202 0.97862 0.29132 0.0
C59 C 0.85179 0.97981 0.31571 0.0
C60 C 0.86305 1.0073 0.32606 0.0
C61 C 0.85586 0.03328 0.30966 0.0
C62 C 0.69967 0.03597 0.16743 0.0
H63 H 0.6985 0.03835 0.36675 0.0
H64 H 0.73707 0.03868 0.32823 0.0
H65 H 0.68963 0.96958 0.28006 0.0
H66 H 0.65094 0.96931 0.31863 0.0
H67 H 0.77508 1.00237 0.30953 0.0
H68 H 0.70725 1.00736 0.24259 0.0
H69 H 0.80028 0.00898 0.21648 0.0
H70 H 0.72854 0.05735 0.19924 0.0
H71 H 0.74281 0.96312 0.18594 0.0
H72 H 0.7017 0.96196 0.14984 0.0
H73 H 0.82808 0.0529 0.27565 0.0
H74 H 0.82165 0.95742 0.28585 0.0
H75 H 0.68723 0.05635 0.16342 0.0
H76 H 0.86409 0.05488 0.31686 0.0
H77 H 0.85723 0.95927 0.32732 0.0
C78 C 0.99556 0.69564 0.34843 0.0
C79 C 0.01473 0.671 0.34583 0.0
C80 C 0.99546 0.71755 0.3265 0.0
C81 C 0.01457 0.71505 0.30179 0.0
C82 C 0.03386 0.69048 0.29923 0.0
C83 C 0.03393 0.66851 0.32118 0.0
C84 C 0.01383 0.73788 0.27842 0.0
C85 C 0.0143 0.76793 0.28615 0.0
C86 C 0.01227 0.79028 0.26445 0.0
C87 C 0.00963 0.78188 0.23375 0.0
C88 C 0.00937 0.75091 0.22595 0.0
C89 C 0.01163 0.72952 0.24861 0.0
C90 C 1.00679 0.73812 0.19525 0.0
C91 C 0.98053 0.72224 0.18809 0.0
C92 C 0.03313 0.73074 0.17972 0.0
C93 C 0.03371 0.70668 0.15942 0.0
C94 C 0.00804 0.68904 0.15438 0.0
C95 C 0.01239 0.82129 0.27675 0.0
C96 C 0.98505 0.8341 0.28561 0.0
C97 C 0.03863 0.83125 0.29108 0.0
C98 C 0.03731 0.85104 0.31546 0.0
C99 C 0.00971 0.86189 0.32596 0.0
C100 C 0.98374 0.85431 0.30973 0.0
C101 C 0.98116 0.69798 0.16811 0.0
H102 H 0.98028 0.69767 0.36712 0.0
H103 H 0.98008 0.73616 0.32857 0.0
H104 H 0.04894 0.68839 0.28039 0.0
H105 H 0.04907 0.64973 0.31902 0.0
H106 H 0.01618 0.77405 0.30958 0.0
H107 H 0.01105 0.70591 0.24296 0.0
H108 H 0.0078 0.79882 0.21657 0.0
H109 H 0.96008 0.72665 0.20031 0.0
H110 H 0.05397 0.74165 0.18548 0.0
H111 H 0.05486 0.70059 0.14934 0.0
H112 H 0.96432 0.82618 0.27589 0.0
H113 H 0.05995 0.82119 0.2855 0.0
H114 H 0.96081 0.6854 0.16441 0.0
H115 H 0.96207 0.86224 0.31706 0.0
H116 H 0.05783 0.85678 0.32694 0.0
C117 C 0.34931 0.02365 0.3202 0.0
C118 C 0.34675 1.00435 0.34475 0.0
C119 C 0.3274 0.02377 0.29826 0.0
C120 C 0.30276 1.00455 0.30066 0.0
C121 C 0.30023 0.98518 0.32517 0.0
C122 C 0.32214 0.9851 0.34715 0.0
C123 C 0.27954 1.00502 0.27769 0.0
C124 C 0.28744 1.00427 0.24769 0.0
C125 C 0.26579 1.00542 0.22521 0.0
C126 C 0.235 1.00754 0.23343 0.0
C127 C 0.22706 0.00824 0.26437 0.0
C128 C 0.24966 1.00682 0.28587 0.0
C129 C 0.19626 0.01031 0.27702 0.0
C130 C 0.18852 0.03659 0.29261 0.0
C131 C 0.18128 0.98374 0.28469 0.0
C132 C 0.161 0.98299 0.30876 0.0
C133 C 0.15545 0.00873 0.32614 0.0
C134 C 0.27822 1.00479 0.19425 0.0
C135 C 0.28683 0.03195 0.18091 0.0
C136 C 0.29285 0.9785 0.18487 0.0
C137 C 0.31722 0.97966 0.16507 0.0
C138 C 0.32745 1.00713 0.15363 0.0
C139 C 0.31096 0.03309 0.16069 0.0
C140 C 0.1686 0.03579 0.3169 0.0
H141 H 0.36799 0.03895 0.31823 0.0
H142 H 0.32946 0.03916 0.27967 0.0
H143 H 0.28146 0.96999 0.32717 0.0
H144 H 0.32003 0.96984 0.36585 0.0
H145 H 0.31092 1.00269 0.2417 0.0
H146 H 0.2439 0.00762 0.30945 0.0
H147 H 0.21785 0.00863 0.21639 0.0
H148 H 0.20031 0.05724 0.28797 0.0
H149 H 0.18748 0.9629 0.274 0.0
H150 H 0.15136 0.9617 0.3151 0.0
H151 H 0.27689 0.05273 0.18838 0.0
H152 H 0.28747 0.95733 0.19536 0.0
H153 H 0.16449 0.05619 0.32928 0.0
H154 H 0.31807 0.05467 0.15234 0.0
H155 H 0.32891 0.95913 0.15974 0.0
C156 C 0.9942 0.667 0.69541 0.0
C157 C 0.01339 0.66951 0.67077 0.0
C158 C 0.99418 0.68895 0.7173 0.0
C159 C 0.01338 0.71359 0.71478 0.0
C160 C 0.03267 0.71606 0.6902 0.0
C161 C 0.03266 0.6941 0.66826 0.0
C162 C 0.01287 0.73692 0.73765 0.0
C163 C 0.01352 0.72914 0.76768 0.0
C164 C 0.01202 0.75085 0.79007 0.0
C165 C 0.00969 0.78159 0.78173 0.0
C166 C 0.00916 0.78942 0.75077 0.0
C167 C 0.01091 0.76676 0.72934 0.0
C168 C 1.00687 0.82017 0.73803 0.0
C169 C 0.98058 0.82766 0.72234 0.0
C170 C 0.03334 0.83538 0.73047 0.0
C171 C 0.034 0.85568 0.70641 0.0
C172 C 0.00827 0.86101 0.68894 0.0
C173 C 0.01242 0.73853 0.82107 0.0
C174 C 0.98517 0.72984 0.83418 0.0
C175 C 0.03868 0.72402 0.83072 0.0
C176 C 0.03742 0.69965 0.85052 0.0
C177 C 0.00988 0.68932 0.86169 0.0
C178 C 0.98394 0.70571 0.85439 0.0
C179 C 0.98129 0.84761 0.69807 0.0
H180 H 0.97888 0.64835 0.69745 0.0
H181 H 0.97882 0.68694 0.73593 0.0
H182 H 0.04784 0.73483 0.6881 0.0
H183 H 0.04784 0.69618 0.64949 0.0
H184 H 0.01522 0.70569 0.77376 0.0
H185 H 0.01018 0.77244 0.70574 0.0
H186 H 0.0083 0.79878 0.79871 0.0
H187 H 0.96002 0.81569 0.7269 0.0
H188 H 0.05418 0.82936 0.74124 0.0
H189 H 0.05522 0.8655 0.70016 0.0
H190 H 0.96442 0.73969 0.82649 0.0
H191 H 0.05992 0.72947 0.82042 0.0
H192 H 0.9609 0.85156 0.68562 0.0
H193 H 0.96231 0.69853 0.86255 0.0
H194 H 0.05794 0.68804 0.85604 0.0
C195 C 0.34961 0.99209 0.69518 0.0
C196 C 0.34704 0.0114 0.67064 0.0
C197 C 0.32769 0.99193 0.7171 0.0
C198 C 0.30302 0.0111 0.71469 0.0
C199 C 0.30048 0.0305 0.6902 0.0
C200 C 0.32241 0.03063 0.66824 0.0
C201 C 0.27975 0.01054 0.73762 0.0
C202 C 0.28758 0.01124 0.76764 0.0
C203 C 0.26589 0.01001 0.79006 0.0
C204 C 0.23512 0.00786 0.78177 0.0
C205 C 0.22725 1.00721 0.75082 0.0
C206 C 0.24989 0.0087 0.72936 0.0
C207 C 0.19647 1.00513 0.73811 0.0
C208 C 0.18878 0.97888 0.72246 0.0
C209 C 0.1815 0.03171 0.73046 0.0
C210 C 0.16125 0.0325 0.70635 0.0
C211 C 0.15574 1.00677 0.68892 0.0
C212 C 0.27825 0.01061 0.82105 0.0
C213 C 0.28686 0.98344 0.83437 0.0
C214 C 0.29282 0.03691 0.8305 0.0
C215 C 0.31717 0.03574 0.85034 0.0
C216 C 0.32741 0.00826 0.86174 0.0
C217 C 0.31096 0.9823 0.85463 0.0
C218 C 0.16889 0.97971 0.69814 0.0
H219 H 0.36831 0.97681 0.69714 0.0
H220 H 0.32975 0.97651 0.73568 0.0
H221 H 0.2817 0.04566 0.6882 0.0
H222 H 0.32029 0.0459 0.64955 0.0
H223 H 0.31105 0.01285 0.77368 0.0
H224 H 0.24417 0.00794 0.70577 0.0
H225 H 0.21794 1.00672 0.79878 0.0
H226 H 0.20057 0.95822 0.72708 0.0
H227 H 0.18767 0.05254 0.74119 0.0
H228 H 0.15162 0.05379 0.70004 0.0
H229 H 0.27696 0.96265 0.82685 0.0
H230 H 0.28743 0.05808 0.82003 0.0
H231 H 0.1648 0.95932 0.68573 0.0
H232 H 0.31808 0.96071 0.86297 0.0
H233 H 0.32882 0.05627 0.85571 0.0
C234 C 0.99431 0.31978 0.66696 0.0
C235 C 0.01348 0.34444 0.66945 0.0
C236 C 0.9943 0.29791 0.68894 0.0
C237 C 0.0135 0.30047 0.71358 0.0
C238 C 0.03277 0.32506 0.71602 0.0
C239 C 0.03275 0.34698 0.69404 0.0
C240 C 0.01301 0.27762 0.73692 0.0
C241 C 0.01368 0.24758 0.72917 0.0
C242 C 0.01215 0.2252 0.75089 0.0
C243 C 0.00977 0.23356 0.78162 0.0
C244 C 0.00924 0.26452 0.78943 0.0
C245 C 0.01102 0.28594 0.76676 0.0
C246 C 1.00688 0.27727 0.82017 0.0
C247 C 0.98058 0.29297 0.8276 0.0
C248 C 0.03332 0.28481 0.83545 0.0
C249 C 0.03393 0.30886 0.85577 0.0
C250 C 0.00819 0.32633 0.86105 0.0
C251 C 0.01255 0.1942 0.73858 0.0
C252 C 0.98531 0.18109 0.72987 0.0
C253 C 0.03882 0.18453 0.72409 0.0
C254 C 0.03757 0.16473 0.69972 0.0
C255 C 0.01004 0.15357 0.68938 0.0
C256 C 0.98408 0.16088 0.70575 0.0
C257 C 0.98125 0.31723 0.84757 0.0
H258 H 0.97899 0.3177 0.64831 0.0
H259 H 0.97896 0.27926 0.68695 0.0
H260 H 0.04794 0.32719 0.73479 0.0
H261 H 0.04791 0.36577 0.6961 0.0
H262 H 0.0154 0.24148 0.70572 0.0
H263 H 0.01028 0.30954 0.77242 0.0
H264 H 0.00835 0.21659 0.79881 0.0
H265 H 0.96005 0.28843 0.81557 0.0
H266 H 0.05418 0.27404 0.82949 0.0
H267 H 0.05513 0.31509 0.86567 0.0
H268 H 0.96455 0.18878 0.73971 0.0
H269 H 0.06006 0.19483 0.72955 0.0
H270 H 0.96085 0.32967 0.85147 0.0
H271 H 0.96245 0.15273 0.69855 0.0
H272 H 0.0581 0.15921 0.68812 0.0
C273 C 0.69669 0.99197 0.66705 0.0
C274 C 0.67213 0.01126 0.6696 0.0
C275 C 0.71859 0.99181 0.689 0.0
C276 C 0.71614 0.01097 0.71368 0.0
C277 C 0.69164 0.03035 0.71619 0.0
C278 C 0.6697 0.03048 0.69424 0.0
C279 C 0.73906 0.01042 0.73696 0.0
C280 C 0.76908 0.01116 0.72915 0.0
C281 C 0.79149 0.00994 0.75085 0.0
C282 C 0.7832 0.00778 0.78161 0.0
C283 C 0.75225 1.00709 0.78947 0.0
C284 C 0.7308 0.00857 0.76682 0.0
C285 C 0.73954 1.00498 0.82025 0.0
C286 C 0.72391 0.97872 0.82792 0.0
C287 C 0.73192 0.03154 0.83527 0.0
C288 C 0.70785 0.03229 0.85556 0.0
C289 C 0.69043 1.00656 0.86105 0.0
C290 C 0.82249 0.01057 0.73851 0.0
C291 C 0.83584 0.98341 0.72993 0.0
C292 C 0.83192 0.03687 0.72393 0.0
C293 C 0.85177 0.0357 0.69959 0.0
C294 C 0.8632 0.00823 0.68937 0.0
C295 C 0.85611 0.98228 0.70584 0.0
C296 C 0.69962 0.97951 0.84785 0.0
H297 H 0.69868 0.9767 0.64835 0.0
H298 H 0.73718 0.97641 0.68695 0.0
H299 H 0.68961 0.0455 0.73499 0.0
H300 H 0.651 0.04573 0.69635 0.0
H301 H 0.77513 0.01278 0.70568 0.0
H302 H 0.7072 0.00779 0.77253 0.0
H303 H 0.8002 1.00665 0.7988 0.0
H304 H 0.72852 0.95808 0.81609 0.0
H305 H 0.74264 0.05237 0.82912 0.0
H306 H 0.70155 0.05357 0.86524 0.0
H307 H 0.82834 0.96262 0.73984 0.0
H308 H 0.82142 0.05803 0.72929 0.0
H309 H 0.68722 0.95912 0.85192 0.0
H310 H 0.86447 0.96069 0.69873 0.0
H311 H 0.85712 0.05623 0.68792 0.0
C312 C 0.34938 0.32019 0.99165 0.0
C313 C 0.34684 0.34476 0.01094 0.0
C314 C 0.32746 0.29826 0.99156 0.0
C315 C 0.30283 0.30069 0.01078 0.0
C316 C 0.30032 0.32521 0.03014 0.0
C317 C 0.32224 0.34718 0.0302 0.0
C318 C 0.27959 0.27773 0.01033 0.0
C319 C 0.28747 0.24772 0.0111 0.0
C320 C 0.2658 0.22527 0.01 0.0
C321 C 0.23501 0.23351 0.00791 0.0
C322 C 0.2271 0.26445 1.00718 0.0
C323 C 0.24972 0.28594 0.00855 0.0
C324 C 0.1963 0.27712 1.00514 0.0
C325 C 0.18855 0.29271 0.97887 0.0
C326 C 0.18136 0.2848 0.03173 0.0
C327 C 0.16109 0.30889 0.0325 0.0
C328 C 0.15553 0.32627 1.00675 0.0
C329 C 0.2782 0.19429 0.01066 0.0
C330 C 0.28678 0.18091 0.98351 0.0
C331 C 0.29284 0.18493 0.03695 0.0
C332 C 0.31719 0.16511 0.03579 0.0
C333 C 0.3274 0.15364 0.00833 0.0
C334 C 0.3109 0.16068 0.98238 0.0
C335 C 0.16863 0.31701 0.97968 0.0
H336 H 0.36805 0.31822 0.97635 0.0
H337 H 0.3295 0.27966 0.97617 0.0
H338 H 0.28156 0.32722 0.04534 0.0
H339 H 0.32014 0.36588 0.04546 0.0
H340 H 0.31095 0.24172 0.01267 0.0
H341 H 0.24397 0.30952 0.00774 0.0
H342 H 0.21785 0.21648 1.00686 0.0
H343 H 0.20031 0.28806 0.9582 0.0
H344 H 0.18758 0.27412 0.05256 0.0
H345 H 0.15148 0.31524 0.05379 0.0
H346 H 0.27683 0.18837 0.96272 0.0
H347 H 0.28748 0.19545 0.05811 0.0
H348 H 0.16451 0.32938 0.95928 0.0
H349 H 0.31799 0.1523 0.9608 0.0
H350 H 0.32889 0.1598 0.05632 0.0
C351 C 0.34955 0.69521 0.02318 0.0
C352 C 0.34697 0.67066 1.00387 0.0
C353 C 0.32763 0.71713 0.02334 0.0
C354 C 0.30296 0.71474 1.00417 0.0
C355 C 0.30041 0.69025 0.98478 0.0
C356 C 0.32233 0.66827 0.98465 0.0
C357 C 0.2797 0.73767 1.00474 0.0
C358 C 0.28754 0.76769 1.00406 0.0
C359 C 0.26587 0.79012 1.00535 0.0
C360 C 0.2351 0.78185 1.00753 0.0
C361 C 0.22721 0.7509 0.00815 0.0
C362 C 0.24984 0.72943 1.00661 0.0
C363 C 0.19643 0.73821 0.01027 0.0
C364 C 0.18877 0.72255 0.03653 0.0
C365 C 0.1814 0.73059 0.98371 0.0
C366 C 0.16114 0.7065 0.98295 0.0
C367 C 0.15566 0.68905 0.00867 0.0
C368 C 0.27824 0.82111 1.00478 0.0
C369 C 0.28689 0.83438 0.03196 0.0
C370 C 0.2928 0.83059 0.97848 0.0
C371 C 0.31716 0.85041 0.97966 0.0
C372 C 0.32743 0.86177 1.00715 0.0
C373 C 0.311 0.85462 0.03311 0.0
C374 C 0.16886 0.69824 0.03572 0.0
H375 H 0.36824 0.69716 0.03846 0.0
H376 H 0.3297 0.73571 0.03876 0.0
H377 H 0.28162 0.68825 0.96962 0.0
H378 H 0.3202 0.64958 0.96938 0.0
H379 H 0.31101 0.77372 1.00243 0.0
H380 H 0.24411 0.70584 1.00735 0.0
H381 H 0.21793 0.79886 0.00872 0.0
H382 H 0.2006 0.72714 0.05717 0.0
H383 H 0.18754 0.74133 0.96289 0.0
H384 H 0.15146 0.70021 0.96167 0.0
H385 H 0.277 0.82683 0.05274 0.0
H386 H 0.28739 0.82015 0.9573 0.0
H387 H 0.1648 0.68582 0.0561 0.0
H388 H 0.31814 0.86292 0.0547 0.0
H389 H 0.32881 0.8558 0.95913 0.0
C390 C 0.69662 0.34811 0.99184 0.0
C391 C 0.67205 0.34553 0.01111 0.0
C392 C 0.71855 0.32619 0.99171 0.0
C393 C 0.71612 0.30152 0.01089 0.0
C394 C 0.6916 0.29898 0.03024 0.0
C395 C 0.66963 0.3209 0.03034 0.0
C396 C 0.73907 0.27827 0.01038 0.0
C397 C 0.76908 0.28613 0.01114 0.0
C398 C 0.79152 0.26445 0.00996 0.0
C399 C 0.78327 0.23368 0.0078 0.0
C400 C 0.75233 0.22578 1.00708 0.0
C401 C 0.73085 0.2484 0.00853 0.0
C402 C 0.73965 0.19499 1.00497 0.0
C403 C 0.72406 0.1873 0.97869 0.0
C404 C 0.73199 0.17999 0.03153 0.0
C405 C 0.7079 0.15972 0.03227 0.0
C406 C 0.69051 0.15422 1.00652 0.0
C407 C 0.8225 0.27683 0.01061 0.0
C408 C 0.83586 0.28545 0.98346 0.0
C409 C 0.8319 0.29142 0.03692 0.0
C410 C 0.85172 0.31578 0.03578 0.0
C411 C 0.86315 0.32602 0.00832 0.0
C412 C 0.85609 0.30957 0.98235 0.0
C413 C 0.69975 0.16738 0.97947 0.0
H414 H 0.6986 0.3668 0.97656 0.0
H415 H 0.73715 0.32826 0.97633 0.0
H416 H 0.68959 0.28019 0.0454 0.0
H417 H 0.65092 0.31877 0.04558 0.0
H418 H 0.7751 0.3096 0.01276 0.0
H419 H 0.70726 0.24266 0.00772 0.0
H420 H 0.80029 0.21651 1.00669 0.0
H421 H 0.72869 0.19911 0.95805 0.0
H422 H 0.74268 0.18616 0.05237 0.0
H423 H 0.70157 0.15006 0.05355 0.0
H424 H 0.82837 0.27554 0.96267 0.0
H425 H 0.8214 0.28602 0.05808 0.0
H426 H 0.68737 0.1633 0.95907 0.0
H427 H 0.86444 0.31669 0.96077 0.0
H428 H 0.85705 0.32744 0.05632 0.0
C429 C 0.69667 0.66714 0.02292 0.0
C430 C 0.67211 0.6697 1.00364 0.0
C431 C 0.71858 0.68907 0.02308 0.0
C432 C 0.71616 0.71375 1.00392 0.0
C433 C 0.69166 0.71628 0.98454 0.0
C434 C 0.6697 0.69434 0.98441 0.0
C435 C 0.73907 0.73703 1.00451 0.0
C436 C 0.76909 0.72921 1.00383 0.0
C437 C 0.79151 0.7509 1.00522 0.0
C438 C 0.78321 0.78166 1.00749 0.0
C439 C 0.75226 0.78952 0.00809 0.0
C440 C 0.73081 0.76689 1.00644 0.0
C441 C 0.73956 0.82029 0.01031 0.0
C442 C 0.72388 0.82785 0.03658 0.0
C443 C 0.73199 0.83543 0.9838 0.0
C444 C 0.70792 0.85572 0.98309 0.0
C445 C 0.69046 0.86112 0.00881 0.0
C446 C 0.8225 0.73855 1.00469 0.0
C447 C 0.83572 0.72986 0.03189 0.0
C448 C 0.83204 0.72405 0.97839 0.0
C449 C 0.85185 0.69969 0.97956 0.0
C450 C 0.86314 0.68936 1.00706 0.0
C451 C 0.85595 0.70575 0.03303 0.0
C452 C 0.6996 0.8478 0.03582 0.0
H453 H 0.69864 0.64844 0.03821 0.0
H454 H 0.73716 0.68701 0.0385 0.0
H455 H 0.68964 0.73508 0.9694 0.0
H456 H 0.651 0.69647 0.96916 0.0
H457 H 0.77514 0.70575 1.00215 0.0
H458 H 0.70721 0.7726 1.00718 0.0
H459 H 0.80021 0.79883 0.00877 0.0
H460 H 0.72845 0.81594 0.05717 0.0
H461 H 0.74275 0.82936 0.96296 0.0
H462 H 0.70167 0.86549 0.96184 0.0
H463 H 0.82812 0.73971 0.05267 0.0
H464 H 0.82165 0.7295 0.95719 0.0
H465 H 0.68716 0.85179 0.0562 0.0
H466 H 0.8642 0.69856 0.05463 0.0
H467 H 0.85729 0.68808 0.95902 0.0
C468 C 0.49445 0.84822 0.81997 0.0
C469 C 0.51365 0.84567 0.8446 0.0
C470 C 0.49441 0.8263 0.79805 0.0
C471 C 0.5136 0.80165 0.80053 0.0
C472 C 0.53289 0.79913 0.82511 0.0
C473 C 0.5329 0.82106 0.84708 0.0
C474 C 0.51306 0.77836 0.77762 0.0
C475 C 0.51367 0.78619 0.7476 0.0
C476 C 0.51204 0.76452 0.72518 0.0
C477 C 0.50963 0.73378 0.73347 0.0
C478 C 0.50917 0.72589 0.76442 0.0
C479 C 0.51105 0.74851 0.78588 0.0
C480 C 0.50678 0.69513 0.77711 0.0
C481 C 0.48049 0.68772 0.79283 0.0
C482 C 0.53321 0.67981 0.78461 0.0
C483 C 0.53383 0.65948 0.80864 0.0
C484 C 0.50811 0.65421 0.82614 0.0
C485 C 0.51237 0.7769 0.6942 0.0
C486 C 0.4851 0.78564 0.68117 0.0
C487 C 0.53863 0.79139 0.68449 0.0
C488 C 0.53735 0.81578 0.66472 0.0
C489 C 0.50979 0.82615 0.65363 0.0
C490 C 0.48384 0.80978 0.66098 0.0
C491 C 0.48117 0.66773 0.81708 0.0
H492 H 0.47914 0.86689 0.81795 0.0
H493 H 0.47906 0.82835 0.77942 0.0
H494 H 0.54804 0.78034 0.82718 0.0
H495 H 0.54807 0.81895 0.86585 0.0
H496 H 0.51542 0.80965 0.74156 0.0
H497 H 0.51035 0.74279 0.80948 0.0
H498 H 0.50812 0.71662 0.71647 0.0
H499 H 0.45997 0.69977 0.78833 0.0
H500 H 0.55406 0.68577 0.77382 0.0
H501 H 0.55503 0.64956 0.81484 0.0
H502 H 0.46436 0.7758 0.68889 0.0
H503 H 0.55989 0.7859 0.69473 0.0
H504 H 0.46078 0.66384 0.82955 0.0
H505 H 0.4622 0.817 0.65288 0.0
H506 H 0.55786 0.82737 0.65916 0.0
C507 C 0.19652 0.5244 0.84792 0.0
C508 C 0.17194 0.50512 0.84541 0.0
C509 C 0.21843 0.52448 0.82598 0.0
C510 C 0.21598 0.50524 0.80136 0.0
C511 C 0.19145 0.4859 0.79888 0.0
C512 C 0.1695 0.48585 0.82081 0.0
C513 C 0.23895 0.50559 0.77813 0.0
C514 C 0.26895 0.50468 0.78601 0.0
C515 C 0.29141 0.50548 0.76434 0.0
C516 C 0.28319 0.50742 0.73354 0.0
C517 C 0.25226 0.50834 0.72562 0.0
C518 C 0.23076 0.50727 0.74824 0.0
C519 C 0.23961 0.51023 0.69481 0.0
C520 C 0.22414 0.53652 0.68688 0.0
C521 C 0.23182 0.48357 0.68004 0.0
C522 C 0.20772 0.48278 0.65978 0.0
C523 C 0.19045 0.50855 0.65406 0.0
C524 C 0.32237 0.50463 0.77674 0.0
C525 C 0.33594 0.53171 0.78524 0.0
C526 C 0.33155 0.47831 0.79145 0.0
C527 C 0.35138 0.4794 0.8158 0.0
C528 C 0.36304 0.50682 0.82593 0.0
C529 C 0.35617 0.53277 0.80935 0.0
C530 C 0.19982 0.53567 0.66698 0.0
H531 H 0.19852 0.53971 0.86659 0.0
H532 H 0.23705 0.53984 0.828 0.0
H533 H 0.18942 0.47068 0.78014 0.0
H534 H 0.1508 0.47059 0.81874 0.0
H535 H 0.27494 0.50319 0.8095 0.0
H536 H 0.20718 0.50818 0.74249 0.0
H537 H 0.30023 0.50821 0.71637 0.0
H538 H 0.22888 0.55724 0.6985 0.0
H539 H 0.24242 0.46274 0.68639 0.0
H540 H 0.20129 0.46145 0.65031 0.0
H541 H 0.32862 0.55252 0.77523 0.0
H542 H 0.32088 0.45722 0.78615 0.0
H543 H 0.18754 0.5561 0.66272 0.0
H544 H 0.36469 0.55431 0.81638 0.0
H545 H 0.35656 0.45887 0.82755 0.0
C546 C 0.49375 0.19531 0.84801 0.0
C547 C 0.51297 0.17069 0.84552 0.0
C548 C 0.49374 0.21721 0.82606 0.0
C549 C 0.51298 0.21471 0.80145 0.0
C550 C 0.53228 0.19014 0.79899 0.0
C551 C 0.53226 0.16819 0.82094 0.0
C552 C 0.51256 0.23764 0.77817 0.0
C553 C 0.51326 0.26765 0.78602 0.0
C554 C 0.5119 0.29009 0.76435 0.0
C555 C 0.50965 0.28183 0.73359 0.0
C556 C 0.50907 0.25088 0.72569 0.0
C557 C 0.51068 0.2294 0.74831 0.0
C558 C 0.50684 0.23821 0.69491 0.0
C559 C 0.48054 0.22259 0.68732 0.0
C560 C 0.53333 0.23062 0.67976 0.0
C561 C 0.534 0.20659 0.65942 0.0
C562 C 0.50825 0.18918 0.654 0.0
C563 C 0.51236 0.32106 0.77675 0.0
C564 C 0.48513 0.33422 0.78541 0.0
C565 C 0.53862 0.33062 0.79132 0.0
C566 C 0.53736 0.35038 0.81572 0.0
C567 C 0.50983 0.3616 0.82602 0.0
C568 C 0.4839 0.35439 0.80957 0.0
C569 C 0.48126 0.19833 0.66734 0.0
H570 H 0.47842 0.19735 0.86665 0.0
H571 H 0.47839 0.23584 0.82806 0.0
H572 H 0.54748 0.18806 0.78024 0.0
H573 H 0.54745 0.14944 0.81888 0.0
H574 H 0.5149 0.27368 0.80949 0.0
H575 H 0.50992 0.20581 0.74258 0.0
H576 H 0.50837 0.29884 0.71643 0.0
H577 H 0.45995 0.22716 0.69924 0.0
H578 H 0.55418 0.24134 0.68584 0.0
H579 H 0.55524 0.20032 0.64964 0.0
H580 H 0.46438 0.32661 0.7755 0.0
H581 H 0.55984 0.32028 0.78589 0.0
H582 H 0.46085 0.18593 0.66333 0.0
H583 H 0.46227 0.36259 0.81673 0.0
H584 H 0.55787 0.35584 0.82738 0.0
C585 C 0.84904 0.5265 0.82046 0.0
C586 C 0.84657 0.5072 0.84502 0.0
C587 C 0.82712 0.52652 0.79852 0.0
C588 C 0.80257 0.50719 0.80095 0.0
C589 C 0.80011 0.48786 0.82549 0.0
C590 C 0.82203 0.48787 0.84745 0.0
C591 C 0.77945 0.50725 0.77786 0.0
C592 C 0.78746 0.50606 0.74791 0.0
C593 C 0.76584 0.50605 0.72537 0.0
C594 C 0.73498 0.50751 0.73347 0.0
C595 C 0.72694 0.50884 0.76436 0.0
C596 C 0.74951 0.50857 0.78593 0.0
C597 C 0.69606 0.51025 0.77691 0.0
C598 C 0.6876 0.53654 0.7921 0.0
C599 C 0.68181 0.4834 0.78498 0.0
C600 C 0.66157 0.48245 0.8091 0.0
C601 C 0.65536 0.50829 0.82611 0.0
C602 C 0.77834 0.50475 0.69446 0.0
C603 C 0.78652 0.53165 0.68036 0.0
C604 C 0.79337 0.47843 0.68581 0.0
C605 C 0.81769 0.47942 0.66592 0.0
C606 C 0.82747 0.50671 0.6537 0.0
C607 C 0.8106 0.5326 0.66008 0.0
C608 C 0.66774 0.53556 0.81644 0.0
H609 H 0.8677 0.54183 0.81846 0.0
H610 H 0.82913 0.54185 0.77986 0.0
H611 H 0.78145 0.47254 0.82748 0.0
H612 H 0.82 0.47257 0.86612 0.0
H613 H 0.81099 0.50484 0.74201 0.0
H614 H 0.74366 0.5097 0.80948 0.0
H615 H 0.71785 0.50762 0.71637 0.0
H616 H 0.69881 0.55744 0.78715 0.0
H617 H 0.68857 0.46258 0.77461 0.0
H618 H 0.65251 0.46102 0.81576 0.0
H619 H 0.77627 0.55248 0.68727 0.0
H620 H 0.78833 0.45749 0.6969 0.0
H621 H 0.6631 0.55602 0.82853 0.0
H622 H 0.81736 0.55405 0.65113 0.0
H623 H 0.82967 0.45893 0.66114 0.0
C624 C 0.49507 0.16707 0.19543 0.0
C625 C 0.51426 0.16963 0.1708 0.0
C626 C 0.495 0.18901 0.21733 0.0
C627 C 0.51416 0.21369 0.21484 0.0
C628 C 0.53345 0.21621 0.19027 0.0
C629 C 0.53349 0.19426 0.1683 0.0
C630 C 0.51352 0.23702 0.2377 0.0
C631 C 0.51403 0.22923 0.26773 0.0
C632 C 0.51213 0.25091 0.29012 0.0
C633 C 0.50957 0.28163 0.28178 0.0
C634 C 0.50926 0.28948 0.25082 0.0
C635 C 0.51139 0.26685 0.22939 0.0
C636 C 0.50673 0.32021 0.23808 0.0
C637 C 0.48045 0.32746 0.22226 0.0
C638 C 0.53309 0.33568 0.23067 0.0
C639 C 0.53367 0.35602 0.20664 0.0
C640 C 0.50798 0.36113 0.18905 0.0
C641 C 0.51229 0.23856 0.32111 0.0
C642 C 0.48497 0.2297 0.33394 0.0
C643 C 0.53854 0.22418 0.33101 0.0
C644 C 0.53722 0.19976 0.35074 0.0
C645 C 0.50962 0.18925 0.3616 0.0
C646 C 0.48366 0.20552 0.35409 0.0
C647 C 0.48109 0.34745 0.19802 0.0
H648 H 0.47977 0.1484 0.19746 0.0
H649 H 0.47963 0.18696 0.23595 0.0
H650 H 0.54857 0.23502 0.18818 0.0
H651 H 0.54865 0.19639 0.14953 0.0
H652 H 0.51586 0.20579 0.27382 0.0
H653 H 0.51078 0.27254 0.20579 0.0
H654 H 0.50784 0.2988 0.29875 0.0
H655 H 0.45999 0.31528 0.2267 0.0
H656 H 0.55394 0.32986 0.24154 0.0
H657 H 0.55483 0.36606 0.20052 0.0
H658 H 0.46424 0.23945 0.32607 0.0
H659 H 0.55985 0.22977 0.32093 0.0
H660 H 0.46072 0.35121 0.18548 0.0
H661 H 0.46199 0.1982 0.36202 0.0
H662 H 0.55774 0.18825 0.35644 0.0
C663 C 0.84932 0.49127 0.19507 0.0
C664 C 0.84681 0.51057 0.17052 0.0
C665 C 0.82738 0.49118 0.21699 0.0
C666 C 0.80277 0.51043 0.21455 0.0
C667 C 0.80029 0.52979 0.19003 0.0
C668 C 0.82223 0.52984 0.16808 0.0
C669 C 0.77955 0.51004 0.23752 0.0
C670 C 0.78744 0.51088 0.26752 0.0
C671 C 0.76578 0.50995 0.28999 0.0
C672 C 0.73498 0.50795 0.28177 0.0
C673 C 0.72705 0.50713 0.25083 0.0
C674 C 0.74966 0.50834 0.22933 0.0
C675 C 0.69624 0.50518 0.23818 0.0
C676 C 0.68838 0.4789 0.22266 0.0
C677 C 0.68139 0.53181 0.23045 0.0
C678 C 0.66112 0.5326 0.20636 0.0
C679 C 0.65547 0.50684 0.18904 0.0
C680 C 0.7782 0.5107 0.32095 0.0
C681 C 0.78676 0.48358 0.33441 0.0
C682 C 0.79289 0.537 0.33021 0.0
C683 C 0.81727 0.53587 0.35 0.0
C684 C 0.82745 0.50843 0.36155 0.0
C685 C 0.8109 0.48248 0.35461 0.0
C686 C 0.66848 0.47974 0.19835 0.0
H687 H 0.86799 0.47595 0.19706 0.0
H688 H 0.82941 0.47579 0.23559 0.0
H689 H 0.78155 0.54501 0.18802 0.0
H690 H 0.82016 0.54512 0.14939 0.0
H691 H 0.81093 0.51239 0.27351 0.0
H692 H 0.7439 0.50748 0.20575 0.0
H693 H 0.71782 0.50705 0.29881 0.0
H694 H 0.70007 0.4582 0.22735 0.0
H695 H 0.68769 0.55264 0.24108 0.0
H696 H 0.65159 0.55392 0.19997 0.0
H697 H 0.77678 0.46278 0.32702 0.0
H698 H 0.78754 0.55813 0.31962 0.0
H699 H 0.66428 0.45933 0.18602 0.0
H700 H 0.81797 0.46091 0.36304 0.0
H701 H 0.829 0.5564 0.35524 0.0
C702 C 0.49478 0.82 0.1671 0.0
C703 C 0.51397 0.84463 0.16968 0.0
C704 C 0.49471 0.79807 0.18901 0.0
C705 C 0.51388 0.80054 0.21368 0.0
C706 C 0.53316 0.82511 0.21623 0.0
C707 C 0.53319 0.8471 0.19431 0.0
C708 C 0.51328 0.77763 0.23697 0.0
C709 C 0.51384 0.74761 0.22914 0.0
C710 C 0.51207 0.72518 0.25079 0.0
C711 C 0.50956 0.73348 0.28153 0.0
C712 C 0.50917 0.76443 0.28942 0.0
C713 C 0.51119 0.78589 0.26681 0.0
C714 C 0.50669 0.77712 0.32017 0.0
C715 C 0.48041 0.79288 0.32749 0.0
C716 C 0.53307 0.78457 0.33559 0.0
C717 C 0.53367 0.80859 0.35593 0.0
C718 C 0.50795 0.82614 0.3611 0.0
C719 C 0.51233 0.6942 0.23841 0.0
C720 C 0.48504 0.68125 0.22963 0.0
C721 C 0.53859 0.68443 0.22397 0.0
C722 C 0.53729 0.66466 0.19957 0.0
C723 C 0.50973 0.65365 0.18916 0.0
C724 C 0.48377 0.66106 0.20548 0.0
C725 C 0.48105 0.81712 0.34749 0.0
H726 H 0.47948 0.81799 0.14842 0.0
H727 H 0.47935 0.77945 0.18694 0.0
H728 H 0.54829 0.82718 0.23504 0.0
H729 H 0.54836 0.86587 0.19645 0.0
H730 H 0.51564 0.74156 0.20569 0.0
H731 H 0.51053 0.80948 0.27253 0.0
H732 H 0.50794 0.71647 0.29868 0.0
H733 H 0.45992 0.78841 0.31536 0.0
H734 H 0.55393 0.77374 0.32971 0.0
H735 H 0.55484 0.81476 0.36592 0.0
H736 H 0.4643 0.68902 0.23943 0.0
H737 H 0.55986 0.69461 0.22949 0.0
H738 H 0.46067 0.82963 0.3513 0.0
H739 H 0.46212 0.65301 0.19822 0.0
H740 H 0.55782 0.65905 0.18801 0.0
C741 C 0.19665 0.49164 0.16725 0.0
C742 C 0.17207 0.5109 0.1698 0.0
C743 C 0.21858 0.49155 0.18917 0.0
C744 C 0.21613 0.51074 0.21382 0.0
C745 C 0.1916 0.53008 0.21634 0.0
C746 C 0.16963 0.53015 0.19441 0.0
C747 C 0.23909 0.5103 0.23707 0.0
C748 C 0.26909 0.51111 0.2292 0.0
C749 C 0.29155 0.51003 0.25086 0.0
C750 C 0.28331 0.50791 0.28165 0.0
C751 C 0.25238 0.50714 0.28956 0.0
C752 C 0.23088 0.50849 0.26694 0.0
C753 C 0.23972 0.50508 0.32036 0.0
C754 C 0.22416 0.47879 0.3281 0.0
C755 C 0.23204 0.53165 0.33532 0.0
C756 C 0.20796 0.53239 0.3556 0.0
C757 C 0.19061 0.50664 0.36116 0.0
C758 C 0.32252 0.51072 0.23847 0.0
C759 C 0.33592 0.48359 0.22987 0.0
C760 C 0.33186 0.53704 0.22386 0.0
C761 C 0.35167 0.53591 0.19949 0.0
C762 C 0.36315 0.50846 0.18926 0.0
C763 C 0.35614 0.4825 0.20575 0.0
C764 C 0.19987 0.47958 0.34803 0.0
H765 H 0.19865 0.47635 0.14856 0.0
H766 H 0.23719 0.47617 0.18712 0.0
H767 H 0.18957 0.54526 0.23511 0.0
H768 H 0.15092 0.54539 0.19652 0.0
H769 H 0.2751 0.51269 0.20572 0.0
H770 H 0.2073 0.50765 0.27269 0.0
H771 H 0.30034 0.50689 0.29881 0.0
H772 H 0.22881 0.45813 0.31633 0.0
H773 H 0.24271 0.55249 0.32911 0.0
H774 H 0.20161 0.55368 0.36523 0.0
H775 H 0.32847 0.46279 0.23981 0.0
H776 H 0.32132 0.55818 0.22924 0.0
H777 H 0.18751 0.45917 0.35215 0.0
H778 H 0.36453 0.46093 0.19864 0.0
H779 H 0.35696 0.55645 0.18781 0.0
C780 C 0.84947 0.82015 0.49123 0.0
C781 C 0.84696 0.84472 0.51052 0.0
C782 C 0.82752 0.79824 0.49115 0.0
C783 C 0.80291 0.80069 0.51039 0.0
C784 C 0.80044 0.8252 0.52975 0.0
C785 C 0.82238 0.84715 0.5298 0.0
C786 C 0.77966 0.77773 0.50999 0.0
C787 C 0.78753 0.74773 0.51081 0.0
C788 C 0.76586 0.72527 0.50985 0.0
C789 C 0.73507 0.73352 0.50784 0.0
C790 C 0.72716 0.76446 0.50704 0.0
C791 C 0.74979 0.78595 0.50827 0.0
C792 C 0.69635 0.77713 0.50507 0.0
C793 C 0.68853 0.79268 0.47879 0.0
C794 C 0.68147 0.78483 0.53168 0.0
C795 C 0.66118 0.8089 0.53247 0.0
C796 C 0.65554 0.82624 0.50672 0.0
C797 C 0.77825 0.6943 0.51058 0.0
C798 C 0.78678 0.68084 0.48346 0.0
C799 C 0.79294 0.68501 0.53688 0.0
C800 C 0.81729 0.66519 0.53573 0.0
C801 C 0.82744 0.65363 0.50828 0.0
C802 C 0.81089 0.6606 0.48234 0.0
C803 C 0.6686 0.81697 0.47963 0.0
H804 H 0.86813 0.81816 0.47591 0.0
H805 H 0.82954 0.77964 0.47576 0.0
H806 H 0.7817 0.82723 0.54497 0.0
H807 H 0.82031 0.86585 0.54507 0.0
H808 H 0.81102 0.74172 0.51233 0.0
H809 H 0.74404 0.80953 0.50743 0.0
H810 H 0.7179 0.71649 0.5069 0.0
H811 H 0.70024 0.78802 0.45811 0.0
H812 H 0.68774 0.77417 0.55251 0.0
H813 H 0.65161 0.81526 0.55378 0.0
H814 H 0.77679 0.68824 0.46267 0.0
H815 H 0.78762 0.6956 0.55801 0.0
H816 H 0.66442 0.82932 0.45922 0.0
H817 H 0.81794 0.65215 0.46078 0.0
H818 H 0.82902 0.65994 0.55625 0.0
C819 C 0.84824 0.19419 0.53235 0.0
C820 C 0.84582 0.16951 0.51319 0.0
C821 C 0.82627 0.21613 0.53218 0.0
C822 C 0.80177 0.21355 0.51281 0.0
C823 C 0.79934 0.18881 0.49373 0.0
C824 C 0.82124 0.16688 0.49393 0.0
C825 C 0.77893 0.2369 0.51199 0.0
C826 C 0.78728 0.26671 0.50979 0.0
C827 C 0.76589 0.28936 0.50748 0.0
C828 C 0.73492 0.28154 0.50769 0.0
C829 C 0.72653 0.25084 0.51033 0.0
C830 C 0.74889 0.22915 0.5124 0.0
C831 C 0.69552 0.23852 0.51043 0.0
C832 C 0.68557 0.22418 0.53667 0.0
C833 C 0.6827 0.22966 0.48309 0.0
C834 C 0.66249 0.20553 0.48179 0.0
C835 C 0.65492 0.1893 0.50776 0.0
C836 C 0.77868 0.32006 0.50491 0.0
C837 C 0.78608 0.33555 0.53127 0.0
C838 C 0.79456 0.32725 0.47866 0.0
C839 C 0.81884 0.34721 0.47932 0.0
C840 C 0.82779 0.3609 0.50621 0.0
C841 C 0.81015 0.35584 0.53187 0.0
C842 C 0.6658 0.19979 0.53535 0.0
H843 H 0.86697 0.19637 0.54756 0.0
H844 H 0.82831 0.23499 0.54724 0.0
H845 H 0.78078 0.18672 0.47829 0.0
H846 H 0.81927 0.14817 0.47868 0.0
H847 H 0.81089 0.27237 0.50924 0.0
H848 H 0.74278 0.20572 0.51428 0.0
H849 H 0.71797 0.29872 0.50584 0.0
H850 H 0.69564 0.22976 0.55799 0.0
H851 H 0.69061 0.23938 0.46237 0.0
H852 H 0.65456 0.19821 0.46012 0.0
H853 H 0.77516 0.32977 0.55211 0.0
H854 H 0.79014 0.31506 0.4582 0.0
H855 H 0.66006 0.1883 0.55588 0.0
H856 H 0.81625 0.36588 0.55304 0.0
H857 H 0.83142 0.35093 0.45896 0.0
C858 C 0.19657 0.848 0.49082 0.0
C859 C 0.17198 0.84552 0.51007 0.0
C860 C 0.21848 0.82605 0.4908 0.0
C861 C 0.216 0.80145 0.51005 0.0
C862 C 0.19144 0.79899 0.52937 0.0
C863 C 0.1695 0.82094 0.52936 0.0
C864 C 0.23897 0.77822 0.50975 0.0
C865 C 0.26896 0.7861 0.51068 0.0
C866 C 0.29143 0.76443 0.5099 0.0
C867 C 0.28321 0.73363 0.50795 0.0
C868 C 0.25228 0.72571 0.50703 0.0
C869 C 0.23078 0.74833 0.50808 0.0
C870 C 0.23964 0.69489 0.50511 0.0
C871 C 0.22418 0.68698 0.47881 0.0
C872 C 0.23186 0.68009 0.53175 0.0
C873 C 0.20778 0.65981 0.53253 0.0
C874 C 0.19052 0.65409 0.50674 0.0
C875 C 0.32239 0.77683 0.51075 0.0
C876 C 0.33596 0.78533 0.48367 0.0
C877 C 0.33156 0.79155 0.53706 0.0
C878 C 0.35139 0.81591 0.53596 0.0
C879 C 0.36304 0.82603 0.50855 0.0
C880 C 0.35619 0.80945 0.4826 0.0
C881 C 0.19988 0.66706 0.47964 0.0
H882 H 0.1986 0.86666 0.47551 0.0
H883 H 0.23712 0.82806 0.47545 0.0
H884 H 0.18939 0.78027 0.5446 0.0
H885 H 0.15078 0.81889 0.5446 0.0
H886 H 0.27496 0.80959 0.51217 0.0
H887 H 0.2072 0.74257 0.50716 0.0
H888 H 0.30025 0.71646 0.50717 0.0
H889 H 0.22891 0.69862 0.4581 0.0
H890 H 0.24245 0.68643 0.55259 0.0
H891 H 0.20136 0.6503 0.55385 0.0
H892 H 0.32865 0.77531 0.46286 0.0
H893 H 0.32089 0.78626 0.55816 0.0
H894 H 0.1876 0.66281 0.45921 0.0
H895 H 0.36471 0.81647 0.46106 0.0
H896 H 0.35656 0.82767 0.55649 0.0
C897 C 0.19651 0.16737 0.52388 0.0
C898 C 0.17195 0.16995 0.50459 0.0
C899 C 0.21844 0.18928 0.52401 0.0
C900 C 0.21604 0.21394 0.50482 0.0
C901 C 0.19152 0.21649 0.48546 0.0
C902 C 0.16955 0.19457 0.48535 0.0
C903 C 0.23901 0.23717 0.50527 0.0
C904 C 0.26901 0.22928 0.50445 0.0
C905 C 0.29148 0.25094 0.50543 0.0
C906 C 0.28326 0.28173 0.50748 0.0
C907 C 0.25233 0.28966 0.50829 0.0
C908 C 0.23082 0.26705 0.50704 0.0
C909 C 0.23968 0.32047 0.51027 0.0
C910 C 0.22415 0.3283 0.53656 0.0
C911 C 0.23195 0.33533 0.48365 0.0
C912 C 0.20785 0.35558 0.48287 0.0
C913 C 0.19052 0.36121 0.50863 0.0
C914 C 0.32244 0.23854 0.50467 0.0
C915 C 0.33591 0.22997 0.53178 0.0
C916 C 0.33172 0.2239 0.47835 0.0
C917 C 0.35155 0.19955 0.47945 0.0
C918 C 0.3631 0.18935 0.50688 0.0
C919 C 0.35614 0.20586 0.53285 0.0
C920 C 0.19983 0.34819 0.53573 0.0
H921 H 0.19847 0.14867 0.53916 0.0
H922 H 0.23704 0.18721 0.53939 0.0
H923 H 0.18953 0.23526 0.47027 0.0
H924 H 0.15086 0.1967 0.47009 0.0
H925 H 0.275 0.20579 0.50289 0.0
H926 H 0.20724 0.27281 0.5079 0.0
H927 H 0.3003 0.29889 0.50841 0.0
H928 H 0.22884 0.3166 0.55725 0.0
H929 H 0.24259 0.32905 0.46282 0.0
H930 H 0.20146 0.36512 0.46156 0.0
H931 H 0.32851 0.23992 0.55258 0.0
H932 H 0.32113 0.22926 0.45723 0.0
H933 H 0.1875 0.35238 0.55614 0.0
H934 H 0.36459 0.19877 0.55441 0.0
H935 H 0.3568 0.18785 0.45891 0.0
C936 C 0.01134 0.93611 0.5817 0.0
C937 C 1.00659 0.93608 0.43366 0.0
C938 C 1.00685 0.07936 0.58168 0.0
C939 C 0.01091 0.07933 0.43357 0.0
C940 C 0.93677 0.07983 0.50896 0.0
C941 C 0.93695 0.93543 0.50827 0.0
C942 C 0.08121 0.07997 0.50681 0.0
C943 C 0.08133 0.93559 0.50807 0.0
C944 C 0.08052 1.00553 0.4335 0.0
C945 C 0.9373 0.01016 0.43373 0.0
C946 C 0.08078 0.01003 0.5816 0.0
C947 C 0.93755 1.00525 0.58177 0.0
Eu948 Eu 0.00912 0.95052 0.50766 0.0
O949 O 0.9822 0.98086 0.48151 0.0
O950 O 0.03589 0.981 0.53378 0.0
Eu951 Eu 0.95185 0.00764 0.50773 0.0
Eu952 Eu 0.06623 0.00777 0.50757 0.0
O953 O 0.98239 0.98096 0.53383 0.0
O954 O 0.03583 0.98094 0.48142 0.0
Eu955 Eu 0.00914 0.00774 0.56329 0.0
Eu956 Eu 0.00891 0.00769 0.45203 0.0
O957 O 0.98236 0.03445 0.53376 0.0
O958 O 0.98217 0.03456 0.48153 0.0
O959 O 0.03567 0.03449 0.48152 0.0
O960 O 0.03586 0.03464 0.53379 0.0
Eu961 Eu 0.00899 0.06502 0.50764 0.0
O962 O 0.00909 0.9259 0.55345 0.0
O963 O 0.00909 0.9259 0.46189 0.0
O964 O 0.00932 0.08957 0.55345 0.0
O965 O 0.00858 0.08957 0.46181 0.0
O966 O 0.92753 0.05151 0.50856 0.0
O967 O 0.92758 0.96371 0.50807 0.0
O968 O 0.0905 0.05167 0.50708 0.0
O969 O 0.09059 0.9639 0.50788 0.0
O970 O 0.05178 1.00444 0.4259 0.0
O971 O 0.966 0.01125 0.42603 0.0
O972 O 0.05207 0.01107 0.58928 0.0
O973 O 0.96628 1.0042 0.5894 0.0
O974 O 0.05292 0.08932 0.50703 0.0
O975 O 0.96503 0.08925 0.50854 0.0
O976 O 0.05304 0.92623 0.50794 0.0
O977 O 0.96527 0.92617 0.50808 0.0
O978 O 1.00533 0.96479 0.42599 0.0
O979 O 0.0122 0.0506 0.42598 0.0
O980 O 0.01249 0.96484 0.58933 0.0
O981 O 1.00556 0.05064 0.58932 0.0
O982 O 0.92732 1.00754 0.55353 0.0
O983 O 0.92714 0.00779 0.46199 0.0
O984 O 0.09094 0.00786 0.55332 0.0
O985 O 0.09077 0.00771 0.46175 0.0
C986 C 0.51009 0.93544 0.07983 0.0
C987 C 0.51011 0.07985 0.07995 0.0
C988 C 0.50997 0.93554 0.9354 0.0
C989 C 0.50978 0.07999 0.93551 0.0
C990 C 0.58312 0.00982 0.93602 0.0
C991 C 0.58315 1.00564 0.07925 0.0
C992 C 0.43504 1.00528 0.9361 0.0
C993 C 0.4351 0.01012 0.07929 0.0
C994 C 0.43505 0.0793 1.00531 0.0
C995 C 0.58313 0.07934 0.00973 0.0
C996 C 0.43508 0.93609 0.01012 0.0
C997 C 0.58315 0.9361 1.00557 0.0
Eu998 Eu 0.50911 0.00765 0.06487 0.0
O999 O 0.53519 0.03447 0.03443 0.0
O1000 O 0.48296 0.98082 0.03447 0.0
Eu1001 Eu 0.56465 0.00772 0.00765 0.0
Eu1002 Eu 0.45354 0.0077 0.0077 0.0
O1003 O 0.53521 0.98088 0.03437 0.0
O1004 O 0.48295 0.03455 0.03451 0.0
Eu1005 Eu 0.5091 0.95044 0.00762 0.0
Eu1006 Eu 0.50909 0.06498 0.00773 0.0
O1007 O 0.53516 0.98097 0.98084 0.0
O1008 O 0.53516 0.03453 0.98089 0.0
O1009 O 0.48298 0.03454 0.98087 0.0
O1010 O 0.48298 0.9809 0.98082 0.0
Eu1011 Eu 0.50908 0.00776 0.9504 0.0
O1012 O 0.50978 0.96373 0.08919 0.0
O1013 O 0.50975 0.05153 0.08919 0.0
O1014 O 0.50964 0.96385 0.92613 0.0
O1015 O 0.50955 0.05171 0.92614 0.0
O1016 O 0.59073 0.01089 0.96475 0.0
O1017 O 0.59076 1.00456 0.05052 0.0
O1018 O 0.42743 1.00407 0.96483 0.0
O1019 O 0.42746 0.01134 0.05057 0.0
O1020 O 0.46328 0.08953 0.00779 0.0
O1021 O 0.55489 0.08957 1.00757 0.0
O1022 O 0.46331 0.92587 0.00764 0.0
O1023 O 0.5549 0.92586 0.00772 0.0
O1024 O 0.46326 0.00774 0.92586 0.0
O1025 O 0.55487 0.00767 0.9258 0.0
O1026 O 0.46334 0.00765 0.08949 0.0
O1027 O 0.5549 0.00778 0.08948 0.0
O1028 O 0.50979 0.08924 0.05167 0.0
O1029 O 0.50951 0.08927 0.96382 0.0
O1030 O 0.50973 0.92617 0.05152 0.0
O1031 O 0.50969 0.92617 0.96368 0.0
O1032 O 0.59075 0.96483 1.00448 0.0
O1033 O 0.59074 0.0506 0.01083 0.0
O1034 O 0.42745 0.96482 0.01135 0.0
O1035 O 0.42744 0.05057 1.00406 0.0
C1036 C 1.00664 0.43374 0.07935 0.0
C1037 C 0.01117 0.43358 0.93615 0.0
C1038 C 0.01117 0.58182 0.07922 0.0
C1039 C 1.00672 0.58166 0.93594 0.0
C1040 C 0.93745 0.58172 0.00997 0.0
C1041 C 0.93746 0.43368 1.00538 0.0
C1042 C 0.08069 0.58173 1.00539 0.0
C1043 C 0.08063 0.43364 0.00996 0.0
C1044 C 0.08128 0.50708 0.93546 0.0
C1045 C 0.93686 0.50756 0.93546 0.0
C1046 C 0.08131 0.50843 0.07985 0.0
C1047 C 0.93689 0.50836 0.07989 0.0
Eu1048 Eu 0.00903 0.45216 0.00776 0.0
O1049 O 0.98228 0.48159 0.98088 0.0
O1050 O 0.0359 0.48156 0.03458 0.0
Eu1051 Eu 0.95185 0.5077 0.00768 0.0
Eu1052 Eu 0.06625 0.50768 0.00766 0.0
O1053 O 0.98222 0.4816 0.03458 0.0
O1054 O 0.0358 0.48158 0.98091 0.0
Eu1055 Eu 0.00909 0.50775 0.06494 0.0
Eu1056 Eu 0.00907 0.50764 0.9504 0.0
O1057 O 0.98238 0.53382 0.03439 0.0
O1058 O 0.98228 0.53382 0.98084 0.0
O1059 O 0.03586 0.53386 0.98079 0.0
O1060 O 0.03578 0.53385 0.03437 0.0
Eu1061 Eu 0.00905 0.56334 1.00758 0.0
O1062 O 1.00544 0.42609 0.05064 0.0
O1063 O 0.01234 0.42602 0.9649 0.0
O1064 O 0.0123 0.58941 0.05048 0.0
O1065 O 1.0055 0.58934 0.96465 0.0
O1066 O 0.92725 0.55348 1.00758 0.0
O1067 O 0.92724 0.46192 0.00779 0.0
O1068 O 0.09089 0.55347 1.00757 0.0
O1069 O 0.09085 0.46189 0.00775 0.0
O1070 O 0.05299 0.50724 0.92611 0.0
O1071 O 0.96515 0.5076 0.92614 0.0
O1072 O 0.05303 0.50822 0.08922 0.0
O1073 O 0.96519 0.50815 0.0892 0.0
O1074 O 0.05197 0.58938 1.00431 0.0
O1075 O 0.96616 0.58938 0.01113 0.0
O1076 O 0.05189 0.42604 0.01107 0.0
O1077 O 0.96617 0.42605 1.0042 0.0
O1078 O 0.00891 0.46181 0.92589 0.0
O1079 O 0.00915 0.55341 0.92577 0.0
O1080 O 0.00909 0.46197 0.08956 0.0
O1081 O 0.00897 0.55358 0.08947 0.0
O1082 O 0.92755 0.50814 0.0516 0.0
O1083 O 0.92754 0.5076 0.96376 0.0
O1084 O 0.09057 0.50817 0.05153 0.0
O1085 O 0.09056 0.5073 0.96377 0.0
C1086 C 0.5111 0.43624 0.08179 0.0
C1087 C 0.50663 0.57944 0.08146 0.0
C1088 C 0.50665 0.43583 0.93371 0.0
C1089 C 0.5112 0.5791 0.93338 0.0
C1090 C 0.58067 0.50514 0.93357 0.0
C1091 C 0.5806 0.51004 0.08164 0.0
C1092 C 0.43743 0.50979 0.93354 0.0
C1093 C 0.43743 0.50552 0.08159 0.0
C1094 C 0.43688 0.57989 1.00662 0.0
C1095 C 0.5813 0.57982 1.0066 0.0
C1096 C 0.43684 0.43545 0.00841 0.0
C1097 C 0.58126 0.43545 0.00849 0.0
Eu1098 Eu 0.50901 0.50783 0.06313 0.0
O1099 O 0.53591 0.53462 0.0337 0.0
O1100 O 0.4823 0.48094 0.03368 0.0
Eu1101 Eu 0.56623 0.50764 0.00761 0.0
Eu1102 Eu 0.45182 0.50767 1.00757 0.0
O1103 O 0.53577 0.48094 0.03373 0.0
O1104 O 0.48217 0.53462 0.03365 0.0
Eu1105 Eu 0.50905 0.45038 0.00771 0.0
Eu1106 Eu 0.50908 0.56492 1.00747 0.0
O1107 O 0.53585 0.48073 0.98145 0.0
O1108 O 0.53575 0.5343 0.98141 0.0
O1109 O 0.48238 0.53432 0.98143 0.0
O1110 O 0.48222 0.48075 0.98146 0.0
Eu1111 Eu 0.50904 0.50747 0.95194 0.0
O1112 O 0.51225 0.465 0.08932 0.0
O1113 O 0.50542 0.55074 0.08914 0.0
O1114 O 0.50547 0.46453 0.92599 0.0
O1115 O 0.51234 0.55035 0.92582 0.0
O1116 O 0.59087 0.50741 0.96183 0.0
O1117 O 0.59083 0.50782 0.0534 0.0
O1118 O 0.42723 0.5074 0.96178 0.0
O1119 O 0.42722 0.50793 0.05336 0.0
O1120 O 0.46518 0.58918 1.0069 0.0
O1121 O 0.55302 0.5892 1.00686 0.0
O1122 O 0.46514 0.42615 0.00817 0.0
O1123 O 0.55298 0.42608 0.00826 0.0
O1124 O 0.46615 0.511 0.92589 0.0
O1125 O 0.55195 0.50407 0.92591 0.0
O1126 O 0.46615 0.50429 0.08922 0.0
O1127 O 0.55187 0.51114 0.08925 0.0
O1128 O 0.50907 0.58961 0.05321 0.0
O1129 O 0.50897 0.58938 0.96161 0.0
O1130 O 0.50891 0.42594 0.05357 0.0
O1131 O 0.50907 0.42568 0.96197 0.0
O1132 O 0.59053 0.46376 0.0082 0.0
O1133 O 0.59055 0.55151 1.00694 0.0
O1134 O 0.4275 0.46375 0.00815 0.0
O1135 O 0.42752 0.5516 1.0069 0.0
C1136 C 0.00981 0.43524 0.57958 0.0
C1137 C 0.01013 0.43559 0.43517 0.0
C1138 C 0.00984 0.57967 0.57993 0.0
C1139 C 0.01027 0.58003 0.43548 0.0
C1140 C 0.93507 0.57925 0.50522 0.0
C1141 C 0.93504 0.43604 0.50943 0.0
C1142 C 0.08315 0.57923 0.50985 0.0
C1143 C 0.08311 0.43602 0.50539 0.0
C1144 C 0.08321 0.50982 0.436 0.0
C1145 C 0.93513 0.50542 0.43585 0.0
C1146 C 0.08306 0.50538 0.57922 0.0
C1147 C 0.93498 0.50978 0.57906 0.0
Eu1148 Eu 0.00908 0.45042 0.5074 0.0
O1149 O 0.98299 0.4809 0.48058 0.0
O1150 O 0.03516 0.4808 0.5343 0.0
Eu1151 Eu 0.95355 0.50765 0.50746 0.0
Eu1152 Eu 0.06465 0.50762 0.5076 0.0
O1153 O 0.98291 0.48077 0.5343 0.0
O1154 O 0.0352 0.48096 0.4807 0.0
Eu1155 Eu 0.00903 0.50748 0.5648 0.0
Eu1156 Eu 0.00916 0.50778 0.45026 0.0
O1157 O 0.98296 0.53442 0.53439 0.0
O1158 O 0.98301 0.53457 0.48071 0.0
O1159 O 0.03518 0.53448 0.48087 0.0
O1160 O 0.03514 0.53435 0.53441 0.0
Eu1161 Eu 0.0091 0.56491 0.50768 0.0
O1162 O 0.00951 0.42603 0.55125 0.0
O1163 O 0.00981 0.42619 0.46344 0.0
O1164 O 0.00961 0.58909 0.55166 0.0
O1165 O 0.00984 0.58925 0.46381 0.0
O1166 O 0.92745 0.55053 0.50399 0.0
O1167 O 0.92745 0.46477 0.51065 0.0
O1168 O 0.09075 0.5505 0.51091 0.0
O1169 O 0.09073 0.46474 0.50432 0.0
O1170 O 0.05498 0.50766 0.42573 0.0
O1171 O 0.96337 0.50783 0.42564 0.0
O1172 O 0.05481 0.50755 0.58943 0.0
O1173 O 0.9632 0.50741 0.58932 0.0
O1174 O 0.05491 0.58948 0.50768 0.0
O1175 O 0.9633 0.58948 0.50765 0.0
O1176 O 0.05486 0.4258 0.50755 0.0
O1177 O 0.96329 0.42581 0.50718 0.0
O1178 O 0.00977 0.46391 0.42592 0.0
O1179 O 0.00992 0.55176 0.42606 0.0
O1180 O 0.00957 0.46351 0.589 0.0
O1181 O 0.00951 0.55135 0.58916 0.0
O1182 O 0.9274 0.511 0.55032 0.0
O1183 O 0.92749 0.50421 0.46456 0.0
O1184 O 0.0907 0.50431 0.5505 0.0
O1185 O 0.09079 0.5109 0.46474 0.0
C1186 C 0.50666 0.93382 0.57938 0.0
C1187 C 0.51105 0.93342 0.43618 0.0
C1188 C 0.51133 0.0819 0.57895 0.0
C1189 C 0.50652 0.0815 0.43569 0.0
C1190 C 0.43746 0.08172 0.50977 0.0
C1191 C 0.43741 0.93366 0.50552 0.0
C1192 C 0.58069 0.08162 0.50475 0.0
C1193 C 0.58059 0.93358 0.50993 0.0
C1194 C 0.58121 1.00661 0.43531 0.0
C1195 C 0.43679 1.00682 0.4354 0.0
C1196 C 0.58134 0.00858 0.57968 0.0
C1197 C 0.43693 0.00866 0.57983 0.0
Eu1198 Eu 0.50899 0.95211 0.50776 0.0
O1199 O 0.48227 0.98155 0.48087 0.0
O1200 O 0.53591 0.98154 0.53452 0.0
Eu1201 Eu 0.45182 0.00768 0.5076 0.0
Eu1202 Eu 0.56622 0.00761 0.50751 0.0
O1203 O 0.48218 0.98161 0.53455 0.0
O1204 O 0.53574 0.98149 0.48084 0.0
Eu1205 Eu 0.50911 0.00781 0.56481 0.0
Eu1206 Eu 0.50901 1.0075 0.45029 0.0
O1207 O 0.48241 0.03383 0.53421 0.0
O1208 O 0.48222 0.03377 0.48066 0.0
O1209 O 0.53584 0.03376 0.4806 0.0
O1210 O 0.53578 0.03385 0.53418 0.0
Eu1211 Eu 0.50906 0.06332 0.50734 0.0
O1212 O 0.50544 0.92612 0.55068 0.0
O1213 O 0.51221 0.9259 0.46494 0.0
O1214 O 0.5125 0.08945 0.5502 0.0
O1215 O 0.50533 0.08923 0.46439 0.0
O1216 O 0.42725 0.05349 0.50735 0.0
O1217 O 0.4272 0.9619 0.50791 0.0
O1218 O 0.59086 0.05338 0.50716 0.0
O1219 O 0.59082 0.96182 0.5077 0.0
O1220 O 0.55292 1.00689 0.42596 0.0
O1221 O 0.46508 1.00703 0.42608 0.0
O1222 O 0.55306 0.00835 0.58907 0.0
O1223 O 0.46523 0.00839 0.58911 0.0
O1224 O 0.55198 0.08932 0.50365 0.0
O1225 O 0.46618 0.08936 0.51097 0.0
O1226 O 0.55185 0.92598 0.51104 0.0
O1227 O 0.46612 0.92603 0.50429 0.0
O1228 O 0.50885 0.96163 0.42586 0.0
O1229 O 0.509 0.05324 0.42556 0.0
O1230 O 0.5091 0.96208 0.58953 0.0
O1231 O 0.50905 0.05368 0.58924 0.0
O1232 O 0.42755 0.00836 0.55155 0.0
O1233 O 0.42747 1.0071 0.4637 0.0
O1234 O 0.59058 0.00827 0.55136 0.0
O1235 O 0.59049 1.00692 0.46362 0.0
C1236 C 0.15671 0.11674 0.50402 0.0
C1237 C 0.14873 0.147 0.50474 0.0
H1238 H 0.14156 0.07167 0.50401 0.0
C1239 C 0.11856 0.15527 0.50599 0.0
H1240 H 0.17995 0.11 0.50273 0.0
C1241 C 0.09652 0.13345 0.50668 0.0
C1242 C 0.10441 0.10305 0.50608 0.0
H1243 H 0.11206 0.1786 0.50688 0.0
H1244 H 0.07338 0.14049 0.50783 0.0
C1245 C 0.13471 0.09489 0.50467 0.0
C1246 C 0.86124 0.11636 0.51342 0.0
C1247 C 0.86912 0.14665 0.51285 0.0
H1248 H 0.8765 0.07134 0.51268 0.0
C1249 C 0.89924 0.15503 0.51122 0.0
H1250 H 0.83804 0.10954 0.51497 0.0
C1251 C 0.92133 0.13327 0.50992 0.0
C1252 C 0.91353 0.10284 0.51028 0.0
H1253 H 0.90565 0.17838 0.51043 0.0
H1254 H 0.94443 0.14039 0.50846 0.0
C1255 C 0.88328 0.09458 0.51216 0.0
C1256 C 0.86166 0.89809 0.50905 0.0
C1257 C 0.86992 0.86791 0.5103 0.0
H1258 H 0.87645 0.94326 0.50724 0.0
C1259 C 0.90018 0.85992 0.51097 0.0
H1260 H 0.83834 0.9046 0.5082 0.0
C1261 C 0.92204 0.88192 0.51031 0.0
C1262 C 0.91388 0.91222 0.50893 0.0
H1263 H 0.90691 0.83668 0.51224 0.0
H1264 H 0.94525 0.87506 0.51093 0.0
C1265 C 0.88349 0.92012 0.50835 0.0
C1266 C 0.11862 0.86027 0.50862 0.0
C1267 C 0.1488 0.8685 0.50984 0.0
H1268 H 0.07345 0.87509 0.5069 0.0
C1269 C 0.15681 0.89876 0.51054 0.0
H1270 H 0.11209 0.83695 0.50774 0.0
C1271 C 0.13483 0.92064 0.50995 0.0
C1272 C 0.10452 0.91251 0.50863 0.0
H1273 H 0.18006 0.90547 0.51179 0.0
H1274 H 0.1417 0.94385 0.51061 0.0
C1275 C 0.0966 0.88212 0.50799 0.0
C1276 C 0.51437 0.11646 0.15545 0.0
C1277 C 0.51383 0.14674 0.14753 0.0
H1278 H 0.51366 0.07142 0.14023 0.0
C1279 C 0.51221 0.15508 0.1174 0.0
H1280 H 0.51591 0.10966 0.17865 0.0
C1281 C 0.51094 0.1333 0.09533 0.0
C1282 C 0.51131 0.10288 0.10317 0.0
H1283 H 0.51144 0.17842 0.11095 0.0
H1284 H 0.50952 0.14039 0.07222 0.0
C1285 C 0.51314 0.09465 0.13343 0.0
C1286 C 0.90004 0.51107 0.15535 0.0
C1287 C 0.86979 0.51038 0.14734 0.0
H1288 H 0.94513 0.51107 0.14026 0.0
C1289 C 0.86155 0.50913 0.11716 0.0
H1290 H 0.90675 0.51234 0.1786 0.0
C1291 C 0.8834 0.50844 0.09514 0.0
C1292 C 0.91379 0.50904 0.10307 0.0
H1293 H 0.83824 0.50826 0.11063 0.0
H1294 H 0.87639 0.50732 0.07199 0.0
C1295 C 0.92192 0.51042 0.13338 0.0
C1296 C 0.51201 0.89804 0.1551 0.0
C1297 C 0.51358 0.86789 0.14678 0.0
H1298 H 0.50943 0.94321 0.14037 0.0
C1299 C 0.51416 0.85996 0.1165 0.0
H1300 H 0.51122 0.9045 0.17843 0.0
C1301 C 0.51301 0.88197 0.09468 0.0
C1302 C 0.51123 0.91224 0.10289 0.0
H1303 H 0.51568 0.83675 0.10972 0.0
H1304 H 0.51356 0.87515 0.07146 0.0
C1305 C 0.51082 0.92009 0.1333 0.0
C1306 C 0.11869 0.50938 0.15514 0.0
C1307 C 0.14885 0.51068 0.14685 0.0
H1308 H 0.0735 0.50744 0.14036 0.0
C1309 C 0.15682 0.51137 0.11659 0.0
H1310 H 0.11219 0.50851 0.17846 0.0
C1311 C 0.13482 0.51064 0.09474 0.0
C1312 C 0.10452 0.50919 0.10291 0.0
H1313 H 0.18005 0.51268 0.10984 0.0
H1314 H 0.14166 0.51127 0.07152 0.0
C1315 C 0.09664 0.50861 0.13331 0.0
C1316 C 0.51384 0.89886 0.85991 0.0
C1317 C 0.51326 0.86858 0.86785 0.0
H1318 H 0.5133 0.94391 0.87509 0.0
C1319 C 0.51173 0.86027 0.898 0.0
H1320 H 0.51531 0.90563 0.83669 0.0
C1321 C 0.5106 0.88207 0.92005 0.0
C1322 C 0.51103 0.91249 0.91219 0.0
H1323 H 0.51094 0.83694 0.90446 0.0
H1324 H 0.50925 0.87501 0.94317 0.0
C1325 C 0.51274 0.92068 0.88191 0.0
C1326 C 0.11858 0.50652 0.86014 0.0
C1327 C 0.14876 0.50531 0.86839 0.0
H1328 H 0.07341 0.50822 0.87496 0.0
C1329 C 0.15677 0.50459 0.89864 0.0
H1330 H 0.11206 0.50741 0.83683 0.0
C1331 C 0.13479 0.50516 0.92051 0.0
C1332 C 0.10448 0.50649 0.91238 0.0
H1333 H 0.18001 0.50335 0.90536 0.0
H1334 H 0.14165 0.50449 0.94372 0.0
C1335 C 0.09656 0.50713 0.88199 0.0
C1336 C 0.51118 0.11732 0.8602 0.0
C1337 C 0.51261 0.14748 0.86847 0.0
H1338 H 0.50895 0.07216 0.87499 0.0
C1339 C 0.51319 0.15547 0.89873 0.0
H1340 H 0.51038 0.11082 0.83688 0.0
C1341 C 0.51225 0.13348 0.92059 0.0
C1342 C 0.51067 0.10319 0.91243 0.0
H1343 H 0.51459 0.1787 0.90547 0.0
H1344 H 0.51282 0.14033 0.94381 0.0
C1345 C 0.5102 0.09529 0.88203 0.0
C1346 C 0.89985 0.50636 0.86003 0.0
C1347 C 0.86962 0.50724 0.86813 0.0
H1348 H 0.94497 0.50565 0.87504 0.0
C1349 C 0.86146 0.5082 0.89834 0.0
H1350 H 0.9065 0.5053 0.83676 0.0
C1351 C 0.88336 0.50833 0.92031 0.0
C1352 C 0.91372 0.50745 0.91231 0.0
H1353 H 0.83817 0.50919 0.90493 0.0
H1354 H 0.8764 0.5092 0.94349 0.0
C1355 C 0.92178 0.50645 0.88196 0.0
C1356 C 0.65681 0.61651 1.00326 0.0
C1357 C 0.64887 0.64678 1.00387 0.0
H1358 H 0.64163 0.57145 1.00357 0.0
C1359 C 0.61871 0.65509 1.00521 0.0
H1360 H 0.68004 0.60974 1.00191 0.0
C1361 C 0.59665 0.63328 1.00613 0.0
C1362 C 0.60452 0.60288 1.00567 0.0
H1363 H 0.61224 0.67842 1.00602 0.0
H1364 H 0.57352 0.64035 1.00734 0.0
C1365 C 0.6348 0.59468 1.00414 0.0
C1366 C 0.3616 0.61727 1.0054 0.0
C1367 C 0.36989 0.64743 1.00406 0.0
H1368 H 0.37635 0.57208 1.00747 0.0
C1369 C 0.40016 0.65539 1.00339 0.0
H1370 H 0.33827 0.61079 1.00626 0.0
C1371 C 0.42199 0.63338 1.0042 0.0
C1372 C 0.41381 0.60309 1.00573 0.0
H1373 H 0.40691 0.67862 1.00204 0.0
H1374 H 0.44521 0.64022 1.00359 0.0
C1375 C 0.38341 0.59522 1.00626 0.0
C1376 C 0.36152 0.39814 0.00942 0.0
C1377 C 0.36979 0.36797 0.01073 0.0
H1378 H 0.37633 0.44331 1.00746 0.0
C1379 C 0.40005 0.35998 0.01141 0.0
H1380 H 0.3382 0.40464 0.00856 0.0
C1381 C 0.4219 0.38196 0.01066 0.0
C1382 C 0.41375 0.41226 0.0092 0.0
H1383 H 0.40678 0.33674 0.01272 0.0
H1384 H 0.44512 0.3751 0.01129 0.0
C1385 C 0.38336 0.42017 0.00864 0.0
C1386 C 0.61866 0.36017 0.00957 0.0
C1387 C 0.64882 0.36846 0.0109 0.0
H1388 H 0.57347 0.37493 1.00756 0.0
C1389 C 0.65677 0.39873 0.01159 0.0
H1390 H 0.61217 0.33684 0.00871 0.0
C1391 C 0.63477 0.42057 0.01082 0.0
C1392 C 0.60448 0.41238 0.00932 0.0
H1393 H 0.68 0.40549 0.01292 0.0
H1394 H 0.6416 0.44379 0.01144 0.0
C1395 C 0.5966 0.38198 0.00876 0.0
C1396 C 0.01147 0.65492 0.61738 0.0
C1397 C 0.01297 0.64659 0.64753 0.0
H1398 H 0.00907 0.64021 0.5722 0.0
C1399 C 0.01353 0.61631 0.65546 0.0
H1400 H 0.01069 0.67825 0.61092 0.0
C1401 C 0.01248 0.5945 0.63344 0.0
C1402 C 0.01082 0.60271 0.60317 0.0
H1403 H 0.01498 0.60954 0.67867 0.0
H1404 H 0.01303 0.57127 0.64025 0.0
C1405 C 0.01038 0.63312 0.59532 0.0
C1406 C 0.40023 0.01187 0.65535 0.0
C1407 C 0.36996 0.0112 0.6474 0.0
H1408 H 0.44528 0.01167 0.64017 0.0
C1409 C 0.36166 0.00986 0.61724 0.0
H1410 H 0.40699 0.01321 0.67858 0.0
C1411 C 0.38346 0.00902 0.59518 0.0
C1412 C 0.41387 0.00955 0.60305 0.0
H1413 H 0.33833 0.00901 0.61076 0.0
H1414 H 0.3764 0.00781 0.57205 0.0
C1415 C 0.42206 0.01107 0.63334 0.0
C1416 C 0.01357 0.35973 0.61624 0.0
C1417 C 0.01302 0.36767 0.64652 0.0
H1418 H 0.01303 0.37492 0.57118 0.0
C1419 C 0.0115 0.39781 0.65483 0.0
H1420 H 0.01503 0.33651 0.60947 0.0
C1421 C 0.01037 0.41987 0.63303 0.0
C1422 C 0.01081 0.41201 0.60262 0.0
H1423 H 0.01072 0.40428 0.67816 0.0
H1424 H 0.00905 0.44299 0.6401 0.0
C1425 C 0.01248 0.38174 0.59441 0.0
C1426 C 0.65686 0.0117 0.61639 0.0
C1427 C 0.64891 0.01105 0.64666 0.0
H1428 H 0.64168 0.01152 0.57133 0.0
C1429 C 0.61874 0.00973 0.65495 0.0
H1430 H 0.68009 0.01303 0.60963 0.0
C1431 C 0.59669 0.00891 0.63314 0.0
C1432 C 0.60456 0.00943 0.60274 0.0
H1433 H 0.61226 0.00889 0.67828 0.0
H1434 H 0.57356 0.00772 0.6402 0.0
C1435 C 0.63485 0.01092 0.59455 0.0
C1436 C 0.01427 0.39896 0.35967 0.0
C1437 C 0.01369 0.36868 0.36759 0.0
H1438 H 0.01366 0.444 0.37488 0.0
C1439 C 0.01209 0.36035 0.39772 0.0
H1440 H 0.01581 0.40575 0.33646 0.0
C1441 C 0.01087 0.38213 0.41979 0.0
C1442 C 0.01129 0.41255 0.41195 0.0
H1443 H 0.01128 0.33701 0.40417 0.0
H1444 H 0.00946 0.37505 0.4429 0.0
C1445 C 0.0131 0.42077 0.38168 0.0
C1446 C 0.61861 1.00532 0.36004 0.0
C1447 C 0.64877 1.00396 0.36835 0.0
H1448 H 0.57342 1.00743 0.37479 0.0
C1449 C 0.65671 1.00329 0.39862 0.0
H1450 H 0.61214 1.00617 0.33671 0.0
C1451 C 0.6347 1.00413 0.42044 0.0
C1452 C 0.60442 1.00568 0.41225 0.0
H1453 H 0.67994 1.00193 0.40538 0.0
H1454 H 0.64153 1.00352 0.44367 0.0
C1455 C 0.59655 1.0062 0.38185 0.0
C1456 C 0.01482 0.65556 0.39898 0.0
C1457 C 0.01427 0.6477 0.36869 0.0
H1458 H 0.01402 0.64029 0.44399 0.0
C1459 C 0.01258 0.61758 0.3603 0.0
H1460 H 0.01642 0.67875 0.40581 0.0
C1461 C 0.01121 0.59548 0.38205 0.0
C1462 C 0.01157 0.60328 0.41248 0.0
H1463 H 0.0118 0.61117 0.33695 0.0
H1464 H 0.00972 0.57239 0.37493 0.0
C1465 C 0.01349 0.63352 0.42075 0.0
C1466 C 0.36145 1.00583 0.39812 0.0
C1467 C 0.36971 1.00453 0.36795 0.0
H1468 H 0.37628 0.00777 0.44329 0.0
C1469 C 0.39996 1.00383 0.35995 0.0
H1470 H 0.33814 1.00669 0.40464 0.0
C1471 C 0.42183 1.00456 0.38192 0.0
C1472 C 0.41369 1.00603 0.41223 0.0
H1473 H 0.40669 1.00251 0.33671 0.0
H1474 H 0.44504 1.00392 0.37505 0.0
C1475 C 0.3833 1.0066 0.42015 0.0
C1476 C 0.99464 0.14504 0.38094 0.0
C1477 C 0.00941 0.13601 0.35447 0.0
H1478 H 0.98401 0.13491 0.42692 0.0
C1479 C 0.02604 0.10938 0.35531 0.0
H1480 H 0.98197 0.16566 0.38135 0.0
C1481 C 0.02717 0.0919 0.38131 0.0
C1482 C 0.01204 0.10054 0.40763 0.0
H1483 H 0.03766 0.10157 0.33555 0.0
H1484 H 0.03975 0.0712 0.38064 0.0
C1485 C 0.99612 0.12765 0.40725 0.0
C1486 C 0.90672 0.02704 0.35609 0.0
C1487 C 0.88104 0.00903 0.35447 0.0
H1488 H 0.94412 0.04161 0.38217 0.0
C1489 C 0.87262 0.99291 0.38033 0.0
H1490 H 0.91399 0.03974 0.3368 0.0
C1491 C 0.88975 0.99435 0.4068 0.0
C1492 C 0.91603 0.01157 0.4079 0.0
H1493 H 0.85272 0.97912 0.38011 0.0
H1494 H 0.88307 0.98114 0.42596 0.0
C1495 C 0.92402 0.02808 0.38223 0.0
C1496 C 0.98968 0.90538 0.35606 0.0
C1497 C 0.0079 0.87986 0.35438 0.0
H1498 H 0.97489 0.94267 0.3822 0.0
C1499 C 0.02419 0.87157 0.38018 0.0
H1500 H 0.97684 0.91253 0.33681 0.0
C1501 C 0.02269 0.88869 0.40666 0.0
C1502 C 1.00526 0.91482 0.40782 0.0
H1503 H 0.03815 0.85179 0.3799 0.0
H1504 H 0.03602 0.88211 0.42577 0.0
C1505 C 0.98859 0.92268 0.38221 0.0
C1506 C 0.14608 0.02201 0.38079 0.0
C1507 C 0.13715 1.00708 0.35438 0.0
H1508 H 0.1359 0.03274 0.42674 0.0
C1509 C 0.11066 0.99023 0.3553 0.0
H1510 H 0.16659 0.03487 0.38113 0.0
C1511 C 0.0932 0.98907 0.38133 0.0
C1512 C 0.10174 1.00437 0.40757 0.0
H1513 H 0.10293 0.97848 0.33559 0.0
H1514 H 0.07258 0.97636 0.38073 0.0
C1515 C 0.12873 0.02048 0.40712 0.0
C1516 C 0.99503 0.8704 0.63428 0.0
C1517 C 0.00986 0.87937 0.66074 0.0
H1518 H 0.98435 0.8806 0.58833 0.0
C1519 C 0.02658 0.90595 0.65989 0.0
H1520 H 0.98228 0.84983 0.63388 0.0
C1521 C 0.02772 0.92345 0.6339 0.0
C1522 C 0.01252 0.91487 0.6076 0.0
H1523 H 0.03825 0.91371 0.67964 0.0
H1524 H 0.04035 0.94411 0.63456 0.0
C1525 C 0.99652 0.88781 0.60798 0.0
C1526 C 0.111 0.02537 0.65974 0.0
C1527 C 0.13745 0.00846 0.66067 0.0
H1528 H 0.07296 0.03932 0.63431 0.0
C1529 C 0.14636 0.9935 0.63427 0.0
H1530 H 0.1033 0.03715 0.67944 0.0
C1531 C 0.12901 0.99505 0.60793 0.0
C1532 C 0.10205 0.01122 0.60748 0.0
H1533 H 0.16684 0.9806 0.63393 0.0
H1534 H 0.13614 0.98276 0.58833 0.0
C1535 C 0.09355 0.02656 0.63371 0.0
C1536 C 0.02438 0.14395 0.6351 0.0
C1537 C 0.00825 0.13558 0.66098 0.0
H1538 H 0.03607 0.13349 0.58946 0.0
C1539 C 0.99018 0.10994 0.65937 0.0
H1540 H 0.03822 0.16382 0.63532 0.0
C1541 C 0.98907 0.09264 0.63323 0.0
C1542 C 1.00558 0.1006 0.60754 0.0
H1543 H 0.97746 0.10272 0.67867 0.0
H1544 H 0.97547 0.07259 0.6333 0.0
C1545 C 0.02286 0.12683 0.60863 0.0
C1546 C 0.90706 0.98865 0.65952 0.0
C1547 C 0.88125 1.0065 0.66101 0.0
H1548 H 0.94457 0.97417 0.63355 0.0
C1549 C 0.87277 0.02245 0.63506 0.0
H1550 H 0.91437 0.97609 0.67888 0.0
C1551 C 0.88994 0.02097 0.60862 0.0
C1552 C 0.91632 1.00391 0.60763 0.0
H1553 H 0.85278 0.03611 0.63519 0.0
H1554 H 0.88319 0.03404 0.58938 0.0
C1555 C 0.9244 0.98759 0.6334 0.0
C1556 C 0.35737 0.02676 0.10983 0.0
C1557 C 0.35584 0.00887 0.1356 0.0
H1558 H 0.38336 0.04129 0.07235 0.0
C1559 C 0.38177 0.99287 0.14406 0.0
H1560 H 0.33802 0.03937 0.10253 0.0
C1561 C 0.40822 0.99434 0.12689 0.0
C1562 C 0.40924 0.01145 0.10054 0.0
H1563 H 0.38161 0.97917 0.16402 0.0
H1564 H 0.42743 0.98123 0.13363 0.0
C1565 C 0.38349 0.02783 0.0925 0.0
C1566 C 0.02413 0.38024 0.14388 0.0
C1567 C 0.00792 0.35441 0.13552 0.0
H1568 H 0.03592 0.42586 0.13342 0.0
C1569 C 0.98978 0.35609 0.10993 0.0
H1570 H 0.03802 0.37997 0.16371 0.0
C1571 C 0.9887 0.38225 0.09265 0.0
C1572 C 1.0053 0.40788 0.1006 0.0
H1573 H 0.97701 0.33682 0.10272 0.0
H1574 H 0.97507 0.38223 0.07262 0.0
C1575 C 0.02264 0.40673 0.12678 0.0
C1576 C 0.66138 0.99049 0.10933 0.0
C1577 C 0.66227 1.00729 0.13586 0.0
H1578 H 0.63599 0.97662 0.07125 0.0
C1579 C 0.63583 0.02214 0.14483 0.0
H1580 H 0.68112 0.9788 0.10158 0.0
C1581 C 0.6095 0.02059 0.12748 0.0
C1582 C 0.60908 1.00452 0.10046 0.0
H1583 H 0.63546 0.03496 0.16536 0.0
H1584 H 0.58986 0.03279 0.13467 0.0
C1585 C 0.63536 0.9893 0.09188 0.0
C1586 C 0.995 0.63432 0.14505 0.0
C1587 C 0.0096 0.66086 0.13598 0.0
H1588 H 0.98452 0.5883 0.13493 0.0
C1589 C 0.02609 0.66013 0.10925 0.0
H1590 H 0.98243 0.63382 0.16574 0.0
C1591 C 0.02725 0.63415 0.09174 0.0
C1592 C 0.01228 0.60776 0.10043 0.0
H1593 H 0.03758 0.67995 0.1014 0.0
H1594 H 0.03971 0.6349 0.07098 0.0
C1595 C 0.99651 0.60803 0.12762 0.0
C1596 C 0.35729 0.98866 0.90559 0.0
C1597 C 0.35578 1.00653 0.8798 0.0
H1598 H 0.38327 0.97416 0.94308 0.0
C1599 C 0.38171 0.02251 0.87134 0.0
H1600 H 0.33794 0.97607 0.91289 0.0
C1601 C 0.40815 0.02105 0.88851 0.0
C1602 C 0.40916 1.00396 0.91487 0.0
H1603 H 0.38157 0.03619 0.85136 0.0
H1604 H 0.42738 0.03413 0.88176 0.0
C1605 C 0.38341 0.9876 0.92293 0.0
C1606 C 0.02635 0.35533 0.90608 0.0
C1607 C 0.00974 0.35452 0.87944 0.0
H1608 H 0.04 0.38064 0.9443 0.0
C1609 C 0.99498 0.38099 0.87041 0.0
H1610 H 0.03796 0.33557 0.91388 0.0
C1611 C 0.99644 0.40729 0.88783 0.0
C1612 C 0.01232 0.40764 0.91495 0.0
H1613 H 0.98231 0.38142 0.84979 0.0
H1614 H 0.98434 0.42696 0.88057 0.0
C1615 C 0.02745 0.38132 0.92359 0.0
C1616 C 0.66131 0.02504 0.90588 0.0
C1617 C 0.6622 0.00821 0.87937 0.0
H1618 H 0.63592 0.03891 0.94397 0.0
C1619 C 0.63577 0.99332 0.87043 0.0
H1620 H 0.68104 0.03676 0.91361 0.0
C1621 C 0.60945 0.99486 0.88779 0.0
C1622 C 0.60903 0.01095 0.9148 0.0
H1623 H 0.63541 0.98049 0.8499 0.0
H1624 H 0.58982 0.98264 0.88062 0.0
C1625 C 0.6353 0.02621 0.92335 0.0
C1626 C 0.02421 0.63504 0.87131 0.0
C1627 C 0.00808 0.66092 0.87968 0.0
H1628 H 0.0359 0.5894 0.8818 0.0
C1629 C 0.99001 0.65933 0.90532 0.0
H1630 H 0.03804 0.63525 0.85144 0.0
C1631 C 0.9889 0.63319 0.92263 0.0
C1632 C 1.00541 0.6075 0.91468 0.0
H1633 H 0.97731 0.67863 0.91254 0.0
H1634 H 0.97531 0.63327 0.94269 0.0
C1635 C 0.02269 0.60858 0.88845 0.0
C1636 C 0.11077 0.35546 0.0253 0.0
C1637 C 0.13724 0.35452 0.00841 0.0
H1638 H 0.07272 0.3809 0.0392 0.0
C1639 C 0.14616 0.38091 0.99346 0.0
H1640 H 0.10305 0.33575 0.03707 0.0
C1641 C 0.12882 0.40725 0.99499 0.0
C1642 C 0.10185 0.40772 0.01113 0.0
H1643 H 0.16666 0.38124 0.98057 0.0
H1644 H 0.13598 0.42686 0.98271 0.0
C1645 C 0.09332 0.38149 0.02646 0.0
C1646 C 0.14629 0.63439 0.0219 0.0
C1647 C 0.13736 0.66081 1.00699 0.0
H1648 H 0.13609 0.58843 0.0326 0.0
C1649 C 0.11087 0.65991 0.99013 0.0
H1650 H 0.16679 0.63403 0.03476 0.0
C1651 C 0.09341 0.63389 0.98894 0.0
C1652 C 0.10194 0.60763 1.00423 0.0
H1653 H 0.10315 0.67963 0.97839 0.0
H1654 H 0.0728 0.63451 0.97622 0.0
C1655 C 0.12893 0.60806 0.02035 0.0
C1656 C 0.35728 0.10979 0.98874 0.0
C1657 C 0.35577 0.13559 1.0066 0.0
H1658 H 0.38326 0.0723 0.97423 0.0
C1659 C 0.38172 0.14407 0.02255 0.0
H1660 H 0.33792 0.10248 0.97617 0.0
C1661 C 0.40817 0.1269 0.02108 0.0
C1662 C 0.40917 0.10053 1.004 0.0
H1663 H 0.38159 0.16405 0.03622 0.0
H1664 H 0.4274 0.13366 0.03415 0.0
C1665 C 0.3834 0.09246 0.98767 0.0
C1666 C 0.87271 0.38033 0.0226 0.0
C1667 C 0.88119 0.35441 1.00661 0.0
H1668 H 0.88312 0.426 0.03425 0.0
C1669 C 0.90696 0.35594 0.98873 0.0
H1670 H 0.85274 0.38017 0.03629 0.0
C1671 C 0.92429 0.38207 0.98768 0.0
C1672 C 0.91622 0.40781 1.00405 0.0
H1673 H 0.91428 0.3366 0.97612 0.0
H1674 H 0.94444 0.38195 0.97423 0.0
C1675 C 0.88987 0.40679 0.02115 0.0
C1676 C 0.66138 0.906 0.99042 0.0
C1677 C 0.66224 0.87945 1.00718 0.0
H1678 H 0.63602 0.94413 0.97661 0.0
C1679 C 0.63579 0.87046 0.022 0.0
H1680 H 0.68113 0.91377 0.97876 0.0
C1681 C 0.60947 0.88784 0.02046 0.0
C1682 C 0.60908 0.91489 1.00444 0.0
H1683 H 0.6354 0.8499 0.03477 0.0
H1684 H 0.58981 0.88063 0.03263 0.0
C1685 C 0.63537 0.92348 0.98925 0.0
C1686 C 0.87274 0.63509 0.99269 0.0
C1687 C 0.88116 0.66097 0.00878 0.0
H1688 H 0.8832 0.58945 0.98097 0.0
C1689 C 0.90688 0.65939 0.02675 0.0
H1690 H 0.85282 0.63528 0.97893 0.0
C1691 C 0.9242 0.63326 0.02779 0.0
C1692 C 0.91619 0.60757 0.01133 0.0
H1693 H 0.91414 0.6787 0.03942 0.0
H1694 H 0.94431 0.63335 0.04131 0.0
C1695 C 0.8899 0.60863 0.99414 0.0
C1696 C 0.38173 0.87136 0.99285 0.0
C1697 C 0.35581 0.8798 0.00888 0.0
H1698 H 0.42738 0.8818 0.9812 0.0
C1699 C 0.35735 0.90556 0.02679 0.0
H1700 H 0.38156 0.85141 0.97914 0.0
C1701 C 0.38348 0.92289 0.02785 0.0
C1702 C 0.40921 0.91486 0.01145 0.0
H1703 H 0.33802 0.91284 0.03942 0.0
H1704 H 0.38336 0.94302 0.04133 0.0
C1705 C 0.40818 0.88852 0.99432 0.0
C1706 C 0.63586 0.14487 0.99322 0.0
C1707 C 0.66227 0.13593 0.00816 0.0
H1708 H 0.58991 0.13471 0.98249 0.0
C1709 C 0.66133 0.10944 0.02502 0.0
H1710 H 0.63553 0.16538 0.98036 0.0
C1711 C 0.6353 0.09199 0.02618 0.0
C1712 C 0.60906 0.10055 0.01088 0.0
H1713 H 0.68104 0.1017 0.03677 0.0
H1714 H 0.63589 0.07139 0.0389 0.0
C1715 C 0.60952 0.12753 0.99475 0.0
C1716 C 0.49495 0.64485 0.88082 0.0
C1717 C 0.50968 0.63582 0.85432 0.0
H1718 H 0.48437 0.63469 0.9268 0.0
C1719 C 0.52628 0.60917 0.85512 0.0
H1720 H 0.4823 0.66548 0.88126 0.0
C1721 C 0.52741 0.59166 0.8811 0.0
C1722 C 0.51233 0.6003 0.90744 0.0
H1723 H 0.53787 0.60137 0.83534 0.0
H1724 H 0.53996 0.57094 0.8804 0.0
C1725 C 0.49645 0.62743 0.90711 0.0
C1726 C 0.40695 0.5263 0.85576 0.0
C1727 C 0.38111 0.50852 0.85429 0.0
H1728 H 0.44449 0.54075 0.8817 0.0
C1729 C 0.37259 0.49263 0.88027 0.0
H1730 H 0.41431 0.53882 0.83638 0.0
C1731 C 0.38977 0.49409 0.90671 0.0
C1732 C 0.41619 0.5111 0.90767 0.0
H1733 H 0.35256 0.47902 0.88017 0.0
H1734 H 0.38299 0.48107 0.92597 0.0
C1735 C 0.42429 0.52737 0.88188 0.0
C1736 C 0.52413 0.37119 0.88032 0.0
C1737 C 0.50802 0.37958 0.85444 0.0
H1738 H 0.53582 0.38166 0.92596 0.0
C1739 C 0.48995 0.40521 0.85604 0.0
H1740 H 0.53797 0.35133 0.88011 0.0
C1741 C 0.48882 0.4225 0.88219 0.0
C1742 C 0.50532 0.41455 0.90788 0.0
H1743 H 0.47725 0.41245 0.83673 0.0
H1744 H 0.47523 0.44256 0.88211 0.0
C1745 C 0.52261 0.38832 0.90679 0.0
C1746 C 0.61103 0.48923 0.85561 0.0
C1747 C 0.63718 0.50658 0.85442 0.0
H1748 H 0.57323 0.47503 0.88128 0.0
C1749 C 0.6459 0.52199 0.88062 0.0
H1750 H 0.6035 0.47709 0.83605 0.0
C1751 C 0.62863 0.52047 0.907 0.0
C1752 C 0.60193 0.50388 0.9077 0.0
H1753 H 0.66616 0.53525 0.88074 0.0
H1754 H 0.63559 0.53312 0.92644 0.0
C1755 C 0.59362 0.48809 0.88167 0.0
C1756 C 0.49494 0.37044 0.13433 0.0
C1757 C 0.50954 0.37953 0.16087 0.0
H1758 H 0.48446 0.38054 0.08831 0.0
C1759 C 0.52602 0.40626 0.16013 0.0
H1760 H 0.48238 0.34975 0.13385 0.0
C1761 C 0.52716 0.42377 0.13415 0.0
C1762 C 0.5122 0.41506 0.10776 0.0
H1763 H 0.53751 0.41412 0.17995 0.0
H1764 H 0.53962 0.44454 0.13489 0.0
C1765 C 0.49644 0.38786 0.10804 0.0
C1766 C 0.6461 0.4935 0.13441 0.0
C1767 C 0.63719 0.50851 0.16078 0.0
H1768 H 0.6359 0.4827 0.08848 0.0
C1769 C 0.61076 0.52545 0.1598 0.0
H1770 H 0.66656 0.48056 0.13411 0.0
C1771 C 0.59332 0.52661 0.13377 0.0
C1772 C 0.60183 0.51123 0.10756 0.0
H1773 H 0.60307 0.53727 0.17949 0.0
H1774 H 0.57274 0.53939 0.13433 0.0
C1775 C 0.62876 0.49503 0.10806 0.0
C1776 C 0.48978 0.6101 0.15909 0.0
C1777 C 0.50792 0.63568 0.16074 0.0
H1778 H 0.47505 0.57277 0.13297 0.0
C1779 C 0.52413 0.64402 0.1349 0.0
H1780 H 0.47701 0.6029 0.17836 0.0
C1781 C 0.52263 0.6269 0.10842 0.0
C1782 C 0.50528 0.60072 0.10729 0.0
H1783 H 0.53802 0.66384 0.13515 0.0
H1784 H 0.53591 0.63352 0.08929 0.0
C1785 C 0.48869 0.5928 0.13294 0.0
C1786 C 0.40696 0.48889 0.15934 0.0
C1787 C 0.38118 0.50676 0.16088 0.0
H1788 H 0.44443 0.47438 0.13333 0.0
C1789 C 0.37269 0.52275 0.13495 0.0
H1790 H 0.41428 0.47629 0.17868 0.0
C1791 C 0.38984 0.52129 0.10849 0.0
C1792 C 0.4162 0.5042 0.10747 0.0
H1793 H 0.35271 0.53642 0.13511 0.0
H1794 H 0.38309 0.53438 0.08928 0.0
C1795 C 0.42427 0.48783 0.13321 0.0
C1796 C 0.88193 0.4929 0.6442 0.0
C1797 C 0.85577 0.50839 0.63551 0.0
H1798 H 0.92773 0.48168 0.6339 0.0
C1799 C 0.857 0.52578 0.60938 0.0
H1800 H 0.88202 0.47961 0.66444 0.0
C1801 C 0.88307 0.52687 0.59198 0.0
C1802 C 0.90906 0.51101 0.60027 0.0
H1803 H 0.83748 0.53799 0.60188 0.0
H1804 H 0.88272 0.53998 0.5716 0.0
C1805 C 0.90832 0.49438 0.62694 0.0
C1806 C 0.48986 0.85619 0.61005 0.0
C1807 C 0.50798 0.85456 0.63565 0.0
H1808 H 0.47514 0.88228 0.57271 0.0
C1809 C 0.52416 0.88042 0.644 0.0
H1810 H 0.47712 0.8369 0.60285 0.0
C1811 C 0.52265 0.90689 0.62687 0.0
C1812 C 0.50532 0.908 0.60067 0.0
H1813 H 0.53803 0.88019 0.66384 0.0
H1814 H 0.5359 0.92604 0.63349 0.0
C1815 C 0.48876 0.88233 0.59275 0.0
C1816 C 0.13585 0.52198 0.64467 0.0
C1817 C 0.16219 0.5069 0.6358 0.0
H1818 H 0.08994 0.53284 0.63446 0.0
C1819 C 0.16118 0.48988 0.60942 0.0
H1820 H 0.13558 0.53497 0.6651 0.0
C1821 C 0.13514 0.48873 0.59198 0.0
C1822 C 0.10896 0.50419 0.60046 0.0
H1823 H 0.18084 0.47801 0.60175 0.0
H1824 H 0.13567 0.4759 0.57144 0.0
C1825 C 0.1095 0.52046 0.62735 0.0
C1826 C 0.52655 0.16013 0.60905 0.0
C1827 C 0.50984 0.16098 0.63563 0.0
H1828 H 0.54029 0.13479 0.57088 0.0
C1829 C 0.49501 0.13453 0.64461 0.0
H1830 H 0.53822 0.17988 0.60129 0.0
C1831 C 0.4965 0.10823 0.62722 0.0
C1832 C 0.51248 0.10784 0.60015 0.0
H1833 H 0.48226 0.13413 0.66519 0.0
H1834 H 0.48433 0.08857 0.63444 0.0
C1835 C 0.52767 0.13413 0.59155 0.0
C1836 C 0.88179 0.52264 0.37107 0.0
C1837 C 0.85584 0.5067 0.37958 0.0
H1838 H 0.92748 0.53423 0.38145 0.0
C1839 C 0.85736 0.48886 0.40539 0.0
H1840 H 0.88165 0.5363 0.35108 0.0
C1841 C 0.88349 0.48779 0.4227 0.0
C1842 C 0.90926 0.50411 0.41461 0.0
H1843 H 0.838 0.4763 0.41273 0.0
H1844 H 0.88335 0.47436 0.44287 0.0
C1845 C 0.90825 0.52117 0.38823 0.0
C1846 C 0.52602 0.85508 0.4062 0.0
C1847 C 0.50951 0.85432 0.3795 0.0
H1848 H 0.53963 0.88035 0.44446 0.0
C1849 C 0.49487 0.88084 0.37042 0.0
H1850 H 0.53754 0.83528 0.41405 0.0
C1851 C 0.49636 0.90714 0.38783 0.0
C1852 C 0.51215 0.90744 0.41501 0.0
H1853 H 0.48228 0.88131 0.34974 0.0
H1854 H 0.48435 0.92685 0.38052 0.0
C1855 C 0.52715 0.88107 0.42371 0.0
C1856 C 0.16142 0.52513 0.40593 0.0
C1857 C 0.16236 0.50827 0.37944 0.0
H1858 H 0.13597 0.539 0.44399 0.0
C1859 C 0.13596 0.49334 0.37049 0.0
H1860 H 0.18113 0.53688 0.41367 0.0
C1861 C 0.10962 0.49486 0.38782 0.0
C1862 C 0.10915 0.51098 0.41481 0.0
H1863 H 0.13564 0.48048 0.34998 0.0
H1864 H 0.09001 0.48261 0.38064 0.0
C1865 C 0.13539 0.52628 0.42337 0.0
C1866 C 0.52414 0.13503 0.37123 0.0
C1867 C 0.50781 0.1608 0.37951 0.0
H1868 H 0.53603 0.08945 0.38176 0.0
C1869 C 0.48952 0.15906 0.40499 0.0
H1870 H 0.53815 0.13535 0.35149 0.0
C1871 C 0.48842 0.13289 0.42225 0.0
C1872 C 0.50515 0.10731 0.4144 0.0
H1873 H 0.47665 0.17828 0.41214 0.0
H1874 H 0.47468 0.13285 0.44221 0.0
C1875 C 0.52263 0.10852 0.38831 0.0
C1876 C 0.61078 0.85541 0.52529 0.0
C1877 C 0.63724 0.85448 0.50838 0.0
H1878 H 0.57272 0.88084 0.53919 0.0
C1879 C 0.64614 0.88088 0.49341 0.0
H1880 H 0.60308 0.83571 0.53707 0.0
C1881 C 0.62878 0.90721 0.49494 0.0
C1882 C 0.60182 0.90766 0.5111 0.0
H1883 H 0.66662 0.88121 0.48051 0.0
H1884 H 0.63592 0.92681 0.48265 0.0
C1885 C 0.59331 0.88143 0.52644 0.0
C1886 C 0.61141 0.1592 0.48776 0.0
C1887 C 0.63696 0.16088 0.50595 0.0
H1888 H 0.57409 0.13307 0.47304 0.0
C1889 C 0.64525 0.13507 0.52223 0.0
H1890 H 0.60425 0.17845 0.47494 0.0
C1891 C 0.62813 0.1086 0.52074 0.0
C1892 C 0.60197 0.10744 0.50335 0.0
H1893 H 0.66505 0.13534 0.53616 0.0
H1894 H 0.63471 0.08949 0.53408 0.0
C1895 C 0.5941 0.13306 0.4867 0.0
C1896 C 0.88178 0.64407 0.52245 0.0
C1897 C 0.85581 0.63557 0.50655 0.0
H1898 H 0.92748 0.63367 0.53398 0.0
C1899 C 0.85728 0.60974 0.48874 0.0
H1900 H 0.88168 0.66408 0.53607 0.0
C1901 C 0.88339 0.59239 0.48766 0.0
C1902 C 0.90919 0.60049 0.50393 0.0
H1903 H 0.8379 0.6024 0.47621 0.0
H1904 H 0.88322 0.57221 0.47426 0.0
C1905 C 0.90822 0.62689 0.52096 0.0
C1906 C 0.37258 0.88038 0.52272 0.0
C1907 C 0.3811 0.8544 0.50684 0.0
H1908 H 0.38297 0.92608 0.53426 0.0
C1909 C 0.40695 0.85587 0.48905 0.0
H1910 H 0.35256 0.88028 0.53633 0.0
C1911 C 0.42428 0.88199 0.48797 0.0
C1912 C 0.41617 0.90779 0.50423 0.0
H1913 H 0.41431 0.83649 0.47654 0.0
H1914 H 0.44447 0.88182 0.47458 0.0
C1915 C 0.38976 0.90682 0.52124 0.0
C1916 C 0.16126 0.40588 0.49 0.0
C1917 C 0.16226 0.37947 0.50697 0.0
H1918 H 0.13577 0.44387 0.47603 0.0
C1919 C 0.13589 0.37056 0.52199 0.0
H1920 H 0.18094 0.41358 0.47817 0.0
C1921 C 0.10953 0.38788 0.52045 0.0
C1922 C 0.10902 0.4148 0.50422 0.0
H1923 H 0.1356 0.3501 0.53494 0.0
H1924 H 0.08996 0.38074 0.53278 0.0
C1925 C 0.13522 0.42331 0.48883 0.0
C1926 C 0.40697 0.15947 0.5264 0.0
C1927 C 0.38115 0.16098 0.50857 0.0
H1928 H 0.44448 0.13349 0.54086 0.0
C1929 C 0.37266 0.13503 0.49261 0.0
H1930 H 0.4143 0.17882 0.53897 0.0
C1931 C 0.38983 0.10859 0.49406 0.0
C1932 C 0.41622 0.10759 0.5111 0.0
H1933 H 0.35266 0.13517 0.47897 0.0
H1934 H 0.38306 0.08936 0.48099 0.0
C1935 C 0.4243 0.13335 0.52744 0.0
C1936 C 0.88252 0.37023 0.49317 0.0
C1937 C 0.85598 0.37929 0.50779 0.0
H1938 H 0.92853 0.38036 0.48269 0.0
C1939 C 0.85673 0.40598 0.52434 0.0
H1940 H 0.883 0.34957 0.48056 0.0
C1941 C 0.88272 0.42349 0.52551 0.0
C1942 C 0.9091 0.41482 0.51052 0.0
H1943 H 0.83692 0.41382 0.53585 0.0
H1944 H 0.88198 0.44422 0.53802 0.0
C1945 C 0.90881 0.38765 0.49469 0.0
C1946 C 0.16128 0.60939 0.52534 0.0
C1947 C 0.16227 0.63582 0.50838 0.0
H1948 H 0.1358 0.57137 0.53925 0.0
C1949 C 0.13592 0.64471 0.49333 0.0
H1950 H 0.18095 0.60171 0.53718 0.0
C1951 C 0.10957 0.62738 0.49484 0.0
C1952 C 0.10906 0.60045 0.51105 0.0
H1953 H 0.13563 0.66517 0.48039 0.0
H1954 H 0.09 0.63451 0.48249 0.0
C1955 C 0.13525 0.59194 0.52647 0.0
loop_
_geom_bond_atom_site_label_1
_geom_bond_atom_site_label_2
_geom_bond_distance
_geom_bond_site_symmetry_2
_ccdc_geom_bond_type
C0 C1 1.386 1_655 S
C0 C2 1.397 . S
C0 H24 0.931 . S
C1 C0 1.386 1_455 S
C1 C5 1.397 . S
C2 C0 1.397 . S
C2 C3 1.384 1_655 S
C2 H25 0.930 . S
C3 C2 1.384 1_455 S
C3 C4 1.377 . S
C3 C6 1.481 . S
C4 C3 1.377 . S
C4 C5 1.389 . S
C4 H26 0.929 . S
C5 C1 1.397 . S
C5 C4 1.389 . S
C5 H27 0.931 . S
C6 C3 1.481 . S
C6 C7 1.387 . S
C6 C11 1.390 . S
C7 C6 1.387 . S
C7 C8 1.401 . S
C7 H28 0.929 1_455 S
C8 C7 1.401 . S
C8 C9 1.377 . S
C8 C17 1.511 1_455 S
C9 C8 1.377 . S
C9 C10 1.394 . S
C9 H30 0.930 . S
C10 C9 1.394 . S
C10 C11 1.361 . S
C10 C12 1.500 . S
C11 C6 1.390 . S
C11 C10 1.361 . S
C11 H29 0.931 . S
C12 C10 1.500 . S
C12 C13 1.371 1_455 S
C12 C14 1.365 . S
C13 C12 1.371 1_655 S
C13 C23 1.386 . S
C13 H31 0.931 . S
C14 C12 1.365 . S
C14 C15 1.409 . S
C14 H32 0.929 . S
C15 C14 1.409 . S
C15 C16 1.380 . S
C15 H33 0.930 . S
C16 C15 1.380 . S
C16 C23 1.357 1_455 S
C17 C8 1.511 1_655 S
C17 C18 1.340 . S
C17 C19 1.372 1_655 S
C18 C17 1.340 . S
C18 C22 1.394 . S
C18 H34 0.930 . S
C19 C17 1.372 1_455 S
C19 C20 1.392 . S
C19 H35 0.931 . S
C20 C19 1.392 . S
C20 C21 1.331 . S
C20 H38 0.932 . S
C21 C20 1.331 . S
C21 C22 1.336 1_455 S
C22 C18 1.394 . S
C22 C21 1.336 1_655 S
C22 H37 0.929 . S
C23 C13 1.386 . S
C23 C16 1.357 1_655 S
C23 H36 0.928 . S
H24 C0 0.931 . S
H25 C2 0.930 . S
H26 C4 0.929 . S
H27 C5 0.931 . S
H28 C7 0.929 1_655 S
H29 C11 0.931 . S
H30 C9 0.930 . S
H31 C13 0.931 . S
H32 C14 0.929 . S
H33 C15 0.930 . S
H34 C18 0.930 . S
H35 C19 0.931 . S
H36 C23 0.928 . S
H37 C22 0.929 . S
H38 C20 0.932 . S
C39 C40 1.396 . S
C39 C41 1.397 . S
C39 H63 0.931 . S
C40 C39 1.396 . S
C40 C44 1.387 1_545 S
C41 C39 1.397 . S
C41 C42 1.390 . S
C41 H64 0.930 . S
C42 C41 1.390 . S
C42 C43 1.371 1_545 S
C42 C45 1.480 . S
C43 C42 1.371 1_565 S
C43 C44 1.389 . S
C43 H65 0.929 . S
C44 C40 1.387 1_565 S
C44 C43 1.389 . S
C44 H66 0.931 . S
C45 C42 1.480 . S
C45 C46 1.389 . S
C45 C50 1.390 . S
C46 C45 1.389 . S
C46 C47 1.402 . S
C46 H67 0.930 . S
C47 C46 1.402 . S
C47 C48 1.377 . S
C47 C56 1.513 . S
C48 C47 1.377 . S
C48 C49 1.392 . S
C48 H69 0.931 . S
C49 C48 1.392 . S
C49 C50 1.361 . S
C49 C51 1.499 1_545 S
C50 C45 1.390 . S
C50 C49 1.361 . S
C50 H68 0.931 . S
C51 C49 1.499 1_565 S
C51 C52 1.362 1_565 S
C51 C53 1.374 . S
C52 C51 1.362 1_545 S
C52 C62 1.386 . S
C52 H70 0.931 . S
C53 C51 1.374 . S
C53 C54 1.409 . S
C53 H71 0.929 . S
C54 C53 1.409 . S
C54 C55 1.379 . S
C54 H72 0.930 . S
C55 C54 1.379 . S
C55 C62 1.359 1_565 S
C56 C47 1.513 . S
C56 C57 1.341 . S
C56 C58 1.371 1_545 S
C57 C56 1.341 . S
C57 C61 1.394 . S
C57 H73 0.930 . S
C58 C56 1.371 1_565 S
C58 C59 1.392 . S
C58 H74 0.931 . S
C59 C58 1.392 . S
C59 C60 1.321 1_565 S
C59 H77 0.932 . S
C60 C59 1.321 1_545 S
C60 C61 1.346 . S
C61 C57 1.394 . S
C61 C60 1.346 . S
C61 H76 0.929 . S
C62 C52 1.386 . S
C62 C55 1.359 1_545 S
C62 H75 0.928 . S
H63 C39 0.931 . S
H64 C41 0.930 . S
H65 C43 0.929 . S
H66 C44 0.931 . S
H67 C46 0.930 . S
H68 C50 0.931 . S
H69 C48 0.931 . S
H70 C52 0.931 . S
H71 C53 0.929 . S
H72 C54 0.930 . S
H73 C57 0.930 . S
H74 C58 0.931 . S
H75 C62 0.928 . S
H76 C61 0.929 . S
H77 C59 0.932 . S
C78 C79 1.386 1_655 S
C78 C80 1.397 . S
C78 H102 0.931 . S
C79 C78 1.386 1_455 S
C79 C83 1.397 . S
C80 C78 1.397 . S
C80 C81 1.384 1_655 S
C80 H103 0.930 . S
C81 C80 1.384 1_455 S
C81 C82 1.377 . S
C81 C84 1.481 . S
C82 C81 1.377 . S
C82 C83 1.389 . S
C82 H104 0.929 . S
C83 C79 1.397 . S
C83 C82 1.389 . S
C83 H105 0.931 . S
C84 C81 1.481 . S
C84 C85 1.387 . S
C84 C89 1.390 . S
C85 C84 1.387 . S
C85 C86 1.401 . S
C85 H106 0.929 1_455 S
C86 C85 1.401 . S
C86 C87 1.377 . S
C86 C95 1.511 1_455 S
C87 C86 1.377 . S
C87 C88 1.394 . S
C87 H108 0.930 . S
C88 C87 1.394 . S
C88 C89 1.361 . S
C88 C90 1.500 . S
C89 C84 1.390 . S
C89 C88 1.361 . S
C89 H107 0.931 . S
C90 C88 1.500 . S
C90 C91 1.371 1_455 S
C90 C92 1.365 . S
C91 C90 1.371 1_655 S
C91 C101 1.386 . S
C91 H109 0.931 . S
C92 C90 1.365 . S
C92 C93 1.409 . S
C92 H110 0.929 . S
C93 C92 1.409 . S
C93 C94 1.380 . S
C93 H111 0.930 . S
C94 C93 1.380 . S
C94 C101 1.357 1_455 S
C95 C86 1.511 1_655 S
C95 C96 1.340 . S
C95 C97 1.372 1_655 S
C96 C95 1.340 . S
C96 C100 1.394 . S
C96 H112 0.930 . S
C97 C95 1.372 1_455 S
C97 C98 1.392 . S
C97 H113 0.931 . S
C98 C97 1.392 . S
C98 C99 1.331 . S
C98 H116 0.932 . S
C99 C98 1.331 . S
C99 C100 1.336 1_455 S
C100 C96 1.394 . S
C100 C99 1.336 1_655 S
C100 H115 0.929 . S
C101 C91 1.386 . S
C101 C94 1.357 1_655 S
C101 H114 0.928 . S
H102 C78 0.931 . S
H103 C80 0.930 . S
H104 C82 0.929 . S
H105 C83 0.931 . S
H106 C85 0.929 1_655 S
H107 C89 0.931 . S
H108 C87 0.930 . S
H109 C91 0.931 . S
H110 C92 0.929 . S
H111 C93 0.930 . S
H112 C96 0.930 . S
H113 C97 0.931 . S
H114 C101 0.928 . S
H115 C100 0.929 . S
H116 C98 0.932 . S
C117 C118 1.396 . S
C117 C119 1.397 . S
C117 H141 0.931 . S
C118 C117 1.396 . S
C118 C122 1.387 1_545 S
C119 C117 1.397 . S
C119 C120 1.391 . S
C119 H142 0.930 . S
C120 C119 1.391 . S
C120 C121 1.371 1_545 S
C120 C123 1.480 . S
C121 C120 1.371 1_565 S
C121 C122 1.389 . S
C121 H143 0.929 . S
C122 C118 1.387 1_565 S
C122 C121 1.389 . S
C122 H144 0.931 . S
C123 C120 1.480 . S
C123 C124 1.389 . S
C123 C128 1.390 . S
C124 C123 1.389 . S
C124 C125 1.402 . S
C124 H145 0.930 . S
C125 C124 1.402 . S
C125 C126 1.377 . S
C125 C134 1.513 . S
C126 C125 1.377 . S
C126 C127 1.392 . S
C126 H147 0.931 . S
C127 C126 1.392 . S
C127 C128 1.361 . S
C127 C129 1.499 1_545 S
C128 C123 1.390 . S
C128 C127 1.361 . S
C128 H146 0.931 . S
C129 C127 1.499 1_565 S
C129 C130 1.362 1_565 S
C129 C131 1.374 . S
C130 C129 1.362 1_545 S
C130 C140 1.386 . S
C130 H148 0.931 . S
C131 C129 1.374 . S
C131 C132 1.409 . S
C131 H149 0.929 . S
C132 C131 1.409 . S
C132 C133 1.379 . S
C132 H150 0.930 . S
C133 C132 1.379 . S
C133 C140 1.359 1_565 S
C134 C125 1.513 . S
C134 C135 1.341 . S
C134 C136 1.371 1_545 S
C135 C134 1.341 . S
C135 C139 1.394 . S
C135 H151 0.930 . S
C136 C134 1.371 1_565 S
C136 C137 1.392 . S
C136 H152 0.931 . S
C137 C136 1.392 . S
C137 C138 1.321 1_565 S
C137 H155 0.932 . S
C138 C137 1.321 1_545 S
C138 C139 1.346 . S
C139 C135 1.394 . S
C139 C138 1.346 . S
C139 H154 0.929 . S
C140 C130 1.386 . S
C140 C133 1.359 1_545 S
C140 H153 0.928 . S
H141 C117 0.931 . S
H142 C119 0.930 . S
H143 C121 0.929 . S
H144 C122 0.931 . S
H145 C124 0.930 . S
H146 C128 0.931 . S
H147 C126 0.931 . S
H148 C130 0.931 . S
H149 C131 0.929 . S
H150 C132 0.930 . S
H151 C135 0.930 . S
H152 C136 0.931 . S
H153 C140 0.928 . S
H154 C139 0.929 . S
H155 C137 0.932 . S
C156 C157 1.386 1_655 S
C156 C158 1.397 . S
C156 H180 0.931 . S
C157 C156 1.386 1_455 S
C157 C161 1.397 . S
C158 C156 1.397 . S
C158 C159 1.384 1_655 S
C158 H181 0.930 . S
C159 C158 1.384 1_455 S
C159 C160 1.377 . S
C159 C162 1.481 . S
C160 C159 1.377 . S
C160 C161 1.389 . S
C160 H182 0.929 . S
C161 C157 1.397 . S
C161 C160 1.389 . S
C161 H183 0.931 . S
C162 C159 1.481 . S
C162 C163 1.387 . S
C162 C167 1.390 . S
C163 C162 1.387 . S
C163 C164 1.401 . S
C163 H184 0.929 1_455 S
C164 C163 1.401 . S
C164 C165 1.377 . S
C164 C173 1.511 1_455 S
C165 C164 1.377 . S
C165 C166 1.394 . S
C165 H186 0.930 . S
C166 C165 1.394 . S
C166 C167 1.361 . S
C166 C168 1.500 . S
C167 C162 1.390 . S
C167 C166 1.361 . S
C167 H185 0.931 . S
C168 C166 1.500 . S
C168 C169 1.371 1_455 S
C168 C170 1.365 . S
C169 C168 1.371 1_655 S
C169 C179 1.386 . S
C169 H187 0.931 . S
C170 C168 1.365 . S
C170 C171 1.409 . S
C170 H188 0.929 . S
C171 C170 1.409 . S
C171 C172 1.380 . S
C171 H189 0.930 . S
C172 C171 1.380 . S
C172 C179 1.357 1_455 S
C173 C164 1.511 1_655 S
C173 C174 1.340 . S
C173 C175 1.372 1_655 S
C174 C173 1.340 . S
C174 C178 1.394 . S
C174 H190 0.930 . S
C175 C173 1.372 1_455 S
C175 C176 1.392 . S
C175 H191 0.931 . S
C176 C175 1.392 . S
C176 C177 1.331 . S
C176 H194 0.932 . S
C177 C176 1.331 . S
C177 C178 1.336 1_455 S
C178 C174 1.394 . S
C178 C177 1.336 1_655 S
C178 H193 0.929 . S
C179 C169 1.386 . S
C179 C172 1.357 1_655 S
C179 H192 0.928 . S
H180 C156 0.931 . S
H181 C158 0.930 . S
H182 C160 0.929 . S
H183 C161 0.931 . S
H184 C163 0.929 1_655 S
H185 C167 0.931 . S
H186 C165 0.930 . S
H187 C169 0.931 . S
H188 C170 0.929 . S
H189 C171 0.930 . S
H190 C174 0.930 . S
H191 C175 0.931 . S
H192 C179 0.928 . S
H193 C178 0.929 . S
H194 C176 0.932 . S
C195 C196 1.389 . S
C195 C197 1.397 . S
C195 H219 0.931 . S
C196 C195 1.389 . S
C196 C200 1.394 1_565 S
C197 C195 1.397 . S
C197 C198 1.383 . S
C197 H220 0.930 . S
C198 C197 1.383 . S
C198 C199 1.378 1_565 S
C198 C201 1.480 . S
C199 C198 1.378 1_545 S
C199 C200 1.389 . S
C199 H221 0.929 . S
C200 C196 1.394 1_545 S
C200 C199 1.389 . S
C200 H222 0.931 . S
C201 C198 1.480 . S
C201 C202 1.388 . S
C201 C206 1.390 . S
C202 C201 1.388 . S
C202 C203 1.402 . S
C202 H223 0.930 . S
C203 C202 1.402 . S
C203 C204 1.376 . S
C203 C212 1.512 . S
C204 C203 1.376 . S
C204 C205 1.392 1_565 S
C204 H225 0.933 . S
C205 C204 1.392 1_545 S
C205 C206 1.361 1_545 S
C205 C207 1.499 . S
C206 C201 1.390 . S
C206 C205 1.361 1_565 S
C206 H224 0.931 . S
C207 C205 1.499 . S
C207 C208 1.357 1_545 S
C207 C209 1.380 . S
C208 C207 1.357 1_565 S
C208 C218 1.386 . S
C208 H226 0.931 . S
C209 C207 1.380 . S
C209 C210 1.409 . S
C209 H227 0.929 . S
C210 C209 1.409 . S
C210 C211 1.384 . S
C210 H228 0.930 . S
C211 C210 1.384 . S
C211 C218 1.353 1_545 S
C212 C203 1.512 . S
C212 C213 1.341 . S
C212 C214 1.371 1_565 S
C213 C212 1.341 . S
C213 C217 1.394 . S
C213 H229 0.930 . S
C214 C212 1.371 1_545 S
C214 C215 1.392 . S
C214 H230 0.931 . S
C215 C214 1.392 . S
C215 C216 1.325 1_545 S
C215 H233 0.932 . S
C216 C215 1.325 1_565 S
C216 C217 1.342 . S
C217 C213 1.394 . S
C217 C216 1.342 . S
C217 H232 0.929 . S
C218 C208 1.386 . S
C218 C211 1.353 1_565 S
C218 H231 0.928 . S
H219 C195 0.931 . S
H220 C197 0.930 . S
H221 C199 0.929 . S
H222 C200 0.931 . S
H223 C202 0.930 . S
H224 C206 0.931 . S
H225 C204 0.933 . S
H226 C208 0.931 . S
H227 C209 0.929 . S
H228 C210 0.930 . S
H229 C213 0.930 . S
H230 C214 0.931 . S
H231 C218 0.928 . S
H232 C217 0.929 . S
H233 C215 0.932 . S
C234 C235 1.386 1_655 S
C234 C236 1.397 . S
C234 H258 0.931 . S
C235 C234 1.386 1_455 S
C235 C239 1.397 . S
C236 C234 1.397 . S
C236 C237 1.384 1_655 S
C236 H259 0.930 . S
C237 C236 1.384 1_455 S
C237 C238 1.377 . S
C237 C240 1.481 . S
C238 C237 1.377 . S
C238 C239 1.389 . S
C238 H260 0.929 . S
C239 C235 1.397 . S
C239 C238 1.389 . S
C239 H261 0.931 . S
C240 C237 1.481 . S
C240 C241 1.387 . S
C240 C245 1.390 . S
C241 C240 1.387 . S
C241 C242 1.401 . S
C241 H262 0.929 1_455 S
C242 C241 1.401 . S
C242 C243 1.377 . S
C242 C251 1.511 1_455 S
C243 C242 1.377 . S
C243 C244 1.394 . S
C243 H264 0.930 . S
C244 C243 1.394 . S
C244 C245 1.361 . S
C244 C246 1.500 . S
C245 C240 1.390 . S
C245 C244 1.361 . S
C245 H263 0.931 . S
C246 C244 1.500 . S
C246 C247 1.371 1_455 S
C246 C248 1.365 . S
C247 C246 1.371 1_655 S
C247 C257 1.386 . S
C247 H265 0.931 . S
C248 C246 1.365 . S
C248 C249 1.409 . S
C248 H266 0.929 . S
C249 C248 1.409 . S
C249 C250 1.380 . S
C249 H267 0.930 . S
C250 C249 1.380 . S
C250 C257 1.357 1_455 S
C251 C242 1.511 1_655 S
C251 C252 1.340 . S
C251 C253 1.372 1_655 S
C252 C251 1.340 . S
C252 C256 1.394 . S
C252 H268 0.930 . S
C253 C251 1.372 1_455 S
C253 C254 1.392 . S
C253 H269 0.931 . S
C254 C253 1.392 . S
C254 C255 1.331 . S
C254 H272 0.932 . S
C255 C254 1.331 . S
C255 C256 1.336 1_455 S
C256 C252 1.394 . S
C256 C255 1.336 1_655 S
C256 H271 0.929 . S
C257 C247 1.386 . S
C257 C250 1.357 1_655 S
C257 H270 0.928 . S
H258 C234 0.931 . S
H259 C236 0.930 . S
H260 C238 0.929 . S
H261 C239 0.931 . S
H262 C241 0.929 1_655 S
H263 C245 0.931 . S
H264 C243 0.930 . S
H265 C247 0.931 . S
H266 C248 0.929 . S
H267 C249 0.930 . S
H268 C252 0.930 . S
H269 C253 0.931 . S
H270 C257 0.928 . S
H271 C256 0.929 . S
H272 C254 0.932 . S
C273 C274 1.389 . S
C273 C275 1.397 . S
C273 H297 0.931 . S
C274 C273 1.389 . S
C274 C278 1.394 1_565 S
C275 C273 1.397 . S
C275 C276 1.383 . S
C275 H298 0.930 . S
C276 C275 1.383 . S
C276 C277 1.378 1_565 S
C276 C279 1.480 . S
C277 C276 1.378 1_545 S
C277 C278 1.389 . S
C277 H299 0.929 . S
C278 C274 1.394 1_545 S
C278 C277 1.389 . S
C278 H300 0.931 . S
C279 C276 1.480 . S
C279 C280 1.388 . S
C279 C284 1.390 . S
C280 C279 1.388 . S
C280 C281 1.402 . S
C280 H301 0.930 . S
C281 C280 1.402 . S
C281 C282 1.376 . S
C281 C290 1.512 . S
C282 C281 1.376 . S
C282 C283 1.392 1_565 S
C282 H303 0.933 . S
C283 C282 1.392 1_545 S
C283 C284 1.361 1_545 S
C283 C285 1.499 . S
C284 C279 1.390 . S
C284 C283 1.361 1_565 S
C284 H302 0.931 . S
C285 C283 1.499 . S
C285 C286 1.357 1_545 S
C285 C287 1.380 . S
C286 C285 1.357 1_565 S
C286 C296 1.386 . S
C286 H304 0.931 . S
C287 C285 1.380 . S
C287 C288 1.409 . S
C287 H305 0.929 . S
C288 C287 1.409 . S
C288 C289 1.384 . S
C288 H306 0.930 . S
C289 C288 1.384 . S
C289 C296 1.353 1_545 S
C290 C281 1.512 . S
C290 C291 1.341 . S
C290 C292 1.371 1_565 S
C291 C290 1.341 . S
C291 C295 1.394 . S
C291 H307 0.930 . S
C292 C290 1.371 1_545 S
C292 C293 1.392 . S
C292 H308 0.931 . S
C293 C292 1.392 . S
C293 C294 1.325 1_545 S
C293 H311 0.932 . S
C294 C293 1.325 1_565 S
C294 C295 1.342 . S
C295 C291 1.394 . S
C295 C294 1.342 . S
C295 H310 0.929 . S
C296 C286 1.386 . S
C296 C289 1.353 1_565 S
C296 H309 0.928 . S
H297 C273 0.931 . S
H298 C275 0.930 . S
H299 C277 0.929 . S
H300 C278 0.931 . S
H301 C280 0.930 . S
H302 C284 0.931 . S
H303 C282 0.933 . S
H304 C286 0.931 . S
H305 C287 0.929 . S
H306 C288 0.930 . S
H307 C291 0.930 . S
H308 C292 0.931 . S
H309 C296 0.928 . S
H310 C295 0.929 . S
H311 C293 0.932 . S
C312 C313 1.389 . S
C312 C314 1.397 . S
C312 H336 0.931 . S
C313 C312 1.389 . S
C313 C317 1.394 1_556 S
C314 C312 1.397 . S
C314 C315 1.383 . S
C314 H337 0.930 . S
C315 C314 1.383 . S
C315 C316 1.378 1_556 S
C315 C318 1.480 . S
C316 C315 1.378 1_554 S
C316 C317 1.389 . S
C316 H338 0.929 . S
C317 C313 1.394 1_554 S
C317 C316 1.389 . S
C317 H339 0.931 . S
C318 C315 1.480 . S
C318 C319 1.388 . S
C318 C323 1.390 . S
C319 C318 1.388 . S
C319 C320 1.402 . S
C319 H340 0.930 . S
C320 C319 1.402 . S
C320 C321 1.376 . S
C320 C329 1.512 . S
C321 C320 1.376 . S
C321 C322 1.392 1_556 S
C321 H342 0.933 . S
C322 C321 1.392 1_554 S
C322 C323 1.361 1_554 S
C322 C324 1.499 . S
C323 C318 1.390 . S
C323 C322 1.361 1_556 S
C323 H341 0.931 . S
C324 C322 1.499 . S
C324 C325 1.357 1_554 S
C324 C326 1.380 . S
C325 C324 1.357 1_556 S
C325 C335 1.386 . S
C325 H343 0.931 . S
C326 C324 1.380 . S
C326 C327 1.409 . S
C326 H344 0.929 . S
C327 C326 1.409 . S
C327 C328 1.384 . S
C327 H345 0.930 . S
C328 C327 1.384 . S
C328 C335 1.353 1_554 S
C329 C320 1.512 . S
C329 C330 1.341 . S
C329 C331 1.371 1_556 S
C330 C329 1.341 . S
C330 C334 1.394 . S
C330 H346 0.930 . S
C331 C329 1.371 1_554 S
C331 C332 1.392 . S
C331 H347 0.931 . S
C332 C331 1.392 . S
C332 C333 1.325 1_554 S
C332 H350 0.932 . S
C333 C332 1.325 1_556 S
C333 C334 1.342 . S
C334 C330 1.394 . S
C334 C333 1.342 . S
C334 H349 0.929 . S
C335 C325 1.386 . S
C335 C328 1.353 1_556 S
C335 H348 0.928 . S
H336 C312 0.931 . S
H337 C314 0.930 . S
H338 C316 0.929 . S
H339 C317 0.931 . S
H340 C319 0.930 . S
H341 C323 0.931 . S
H342 C321 0.933 . S
H343 C325 0.931 . S
H344 C326 0.929 . S
H345 C327 0.930 . S
H346 C330 0.930 . S
H347 C331 0.931 . S
H348 C335 0.928 . S
H349 C334 0.929 . S
H350 C332 0.932 . S
C351 C352 1.396 . S
C351 C353 1.397 . S
C351 H375 0.931 . S
C352 C351 1.396 . S
C352 C356 1.387 1_554 S
C353 C351 1.397 . S
C353 C354 1.391 . S
C353 H376 0.930 . S
C354 C353 1.391 . S
C354 C355 1.371 1_554 S
C354 C357 1.480 . S
C355 C354 1.371 1_556 S
C355 C356 1.389 . S
C355 H377 0.929 . S
C356 C352 1.387 1_556 S
C356 C355 1.389 . S
C356 H378 0.931 . S
C357 C354 1.480 . S
C357 C358 1.389 . S
C357 C362 1.390 . S
C358 C357 1.389 . S
C358 C359 1.402 . S
C358 H379 0.930 . S
C359 C358 1.402 . S
C359 C360 1.377 . S
C359 C368 1.513 . S
C360 C359 1.377 . S
C360 C361 1.392 . S
C360 H381 0.931 . S
C361 C360 1.392 . S
C361 C362 1.361 . S
C361 C363 1.499 1_554 S
C362 C357 1.390 . S
C362 C361 1.361 . S
C362 H380 0.931 . S
C363 C361 1.499 1_556 S
C363 C364 1.362 1_556 S
C363 C365 1.374 . S
C364 C363 1.362 1_554 S
C364 C374 1.386 . S
C364 H382 0.931 . S
C365 C363 1.374 . S
C365 C366 1.409 . S
C365 H383 0.929 . S
C366 C365 1.409 . S
C366 C367 1.379 . S
C366 H384 0.930 . S
C367 C366 1.379 . S
C367 C374 1.359 1_556 S
C368 C359 1.513 . S
C368 C369 1.341 . S
C368 C370 1.371 1_554 S
C369 C368 1.341 . S
C369 C373 1.394 . S
C369 H385 0.930 . S
C370 C368 1.371 1_556 S
C370 C371 1.392 . S
C370 H386 0.931 . S
C371 C370 1.392 . S
C371 C372 1.321 1_556 S
C371 H389 0.932 . S
C372 C371 1.321 1_554 S
C372 C373 1.346 . S
C373 C369 1.394 . S
C373 C372 1.346 . S
C373 H388 0.929 . S
C374 C364 1.386 . S
C374 C367 1.359 1_554 S
C374 H387 0.928 . S
H375 C351 0.931 . S
H376 C353 0.930 . S
H377 C355 0.929 . S
H378 C356 0.931 . S
H379 C358 0.930 . S
H380 C362 0.931 . S
H381 C360 0.931 . S
H382 C364 0.931 . S
H383 C365 0.929 . S
H384 C366 0.930 . S
H385 C369 0.930 . S
H386 C370 0.931 . S
H387 C374 0.928 . S
H388 C373 0.929 . S
H389 C371 0.932 . S
C390 C391 1.389 . S
C390 C392 1.397 . S
C390 H414 0.931 . S
C391 C390 1.389 . S
C391 C395 1.394 1_556 S
C392 C390 1.397 . S
C392 C393 1.383 . S
C392 H415 0.930 . S
C393 C392 1.383 . S
C393 C394 1.378 1_556 S
C393 C396 1.480 . S
C394 C393 1.378 1_554 S
C394 C395 1.389 . S
C394 H416 0.929 . S
C395 C391 1.394 1_554 S
C395 C394 1.389 . S
C395 H417 0.931 . S
C396 C393 1.480 . S
C396 C397 1.388 . S
C396 C401 1.390 . S
C397 C396 1.388 . S
C397 C398 1.402 . S
C397 H418 0.930 . S
C398 C397 1.402 . S
C398 C399 1.376 . S
C398 C407 1.512 . S
C399 C398 1.376 . S
C399 C400 1.392 1_556 S
C399 H420 0.933 . S
C400 C399 1.392 1_554 S
C400 C401 1.361 1_554 S
C400 C402 1.499 . S
C401 C396 1.390 . S
C401 C400 1.361 1_556 S
C401 H419 0.931 . S
C402 C400 1.499 . S
C402 C403 1.357 1_554 S
C402 C404 1.380 . S
C403 C402 1.357 1_556 S
C403 C413 1.386 . S
C403 H421 0.931 . S
C404 C402 1.380 . S
C404 C405 1.409 . S
C404 H422 0.929 . S
C405 C404 1.409 . S
C405 C406 1.384 . S
C405 H423 0.930 . S
C406 C405 1.384 . S
C406 C413 1.353 1_554 S
C407 C398 1.512 . S
C407 C408 1.341 . S
C407 C409 1.371 1_556 S
C408 C407 1.341 . S
C408 C412 1.394 . S
C408 H424 0.930 . S
C409 C407 1.371 1_554 S
C409 C410 1.392 . S
C409 H425 0.931 . S
C410 C409 1.392 . S
C410 C411 1.325 1_554 S
C410 H428 0.932 . S
C411 C410 1.325 1_556 S
C411 C412 1.342 . S
C412 C408 1.394 . S
C412 C411 1.342 . S
C412 H427 0.929 . S
C413 C403 1.386 . S
C413 C406 1.353 1_556 S
C413 H426 0.928 . S
H414 C390 0.931 . S
H415 C392 0.930 . S
H416 C394 0.929 . S
H417 C395 0.931 . S
H418 C397 0.930 . S
H419 C401 0.931 . S
H420 C399 0.933 . S
H421 C403 0.931 . S
H422 C404 0.929 . S
H423 C405 0.930 . S
H424 C408 0.930 . S
H425 C409 0.931 . S
H426 C413 0.928 . S
H427 C412 0.929 . S
H428 C410 0.932 . S
C429 C430 1.396 . S
C429 C431 1.397 . S
C429 H453 0.931 . S
C430 C429 1.396 . S
C430 C434 1.387 1_554 S
C431 C429 1.397 . S
C431 C432 1.390 . S
C431 H454 0.930 . S
C432 C431 1.390 . S
C432 C433 1.371 1_554 S
C432 C435 1.480 . S
C433 C432 1.371 1_556 S
C433 C434 1.389 . S
C433 H455 0.929 . S
C434 C430 1.387 1_556 S
C434 C433 1.389 . S
C434 H456 0.931 . S
C435 C432 1.480 . S
C435 C436 1.389 . S
C435 C440 1.390 . S
C436 C435 1.389 . S
C436 C437 1.402 . S
C436 H457 0.930 . S
C437 C436 1.402 . S
C437 C438 1.377 . S
C437 C446 1.513 . S
C438 C437 1.377 . S
C438 C439 1.392 . S
C438 H459 0.931 . S
C439 C438 1.392 . S
C439 C440 1.361 . S
C439 C441 1.499 1_554 S
C440 C435 1.390 . S
C440 C439 1.361 . S
C440 H458 0.931 . S
C441 C439 1.499 1_556 S
C441 C442 1.362 1_556 S
C441 C443 1.374 . S
C442 C441 1.362 1_554 S
C442 C452 1.386 . S
C442 H460 0.931 . S
C443 C441 1.374 . S
C443 C444 1.409 . S
C443 H461 0.929 . S
C444 C443 1.409 . S
C444 C445 1.379 . S
C444 H462 0.930 . S
C445 C444 1.379 . S
C445 C452 1.359 1_556 S
C446 C437 1.513 . S
C446 C447 1.341 . S
C446 C448 1.371 1_554 S
C447 C446 1.341 . S
C447 C451 1.394 . S
C447 H463 0.930 . S
C448 C446 1.371 1_556 S
C448 C449 1.392 . S
C448 H464 0.931 . S
C449 C448 1.392 . S
C449 C450 1.321 1_556 S
C449 H467 0.932 . S
C450 C449 1.321 1_554 S
C450 C451 1.346 . S
C451 C447 1.394 . S
C451 C450 1.346 . S
C451 H466 0.929 . S
C452 C442 1.386 . S
C452 C445 1.359 1_554 S
C452 H465 0.928 . S
H453 C429 0.931 . S
H454 C431 0.930 . S
H455 C433 0.929 . S
H456 C434 0.931 . S
H457 C436 0.930 . S
H458 C440 0.931 . S
H459 C438 0.931 . S
H460 C442 0.931 . S
H461 C443 0.929 . S
H462 C444 0.930 . S
H463 C447 0.930 . S
H464 C448 0.931 . S
H465 C452 0.928 . S
H466 C451 0.929 . S
H467 C449 0.932 . S
C468 C469 1.386 . S
C468 C470 1.397 . S
C468 H492 0.931 . S
C469 C468 1.386 . S
C469 C473 1.397 . S
C470 C468 1.397 . S
C470 C471 1.384 . S
C470 H493 0.930 . S
C471 C470 1.384 . S
C471 C472 1.377 . S
C471 C474 1.481 . S
C472 C471 1.377 . S
C472 C473 1.389 . S
C472 H494 0.929 . S
C473 C469 1.397 . S
C473 C472 1.389 . S
C473 H495 0.931 . S
C474 C471 1.481 . S
C474 C475 1.387 . S
C474 C479 1.390 . S
C475 C474 1.387 . S
C475 C476 1.401 . S
C475 H496 0.930 . S
C476 C475 1.401 . S
C476 C477 1.376 . S
C476 C485 1.511 . S
C477 C476 1.376 . S
C477 C478 1.392 . S
C477 H498 0.931 . S
C478 C477 1.392 . S
C478 C479 1.361 . S
C478 C480 1.500 . S
C479 C474 1.390 . S
C479 C478 1.361 . S
C479 H497 0.931 . S
C480 C478 1.500 . S
C480 C481 1.371 . S
C480 C482 1.365 . S
C481 C480 1.371 . S
C481 C491 1.386 . S
C481 H499 0.931 . S
C482 C480 1.365 . S
C482 C483 1.409 . S
C482 H500 0.929 . S
C483 C482 1.409 . S
C483 C484 1.380 . S
C483 H501 0.930 . S
C484 C483 1.380 . S
C484 C491 1.357 . S
C485 C476 1.511 . S
C485 C486 1.341 . S
C485 C487 1.371 . S
C486 C485 1.341 . S
C486 C490 1.394 . S
C486 H502 0.930 . S
C487 C485 1.371 . S
C487 C488 1.392 . S
C487 H503 0.931 . S
C488 C487 1.392 . S
C488 C489 1.331 . S
C488 H506 0.932 . S
C489 C488 1.331 . S
C489 C490 1.336 . S
C490 C486 1.394 . S
C490 C489 1.336 . S
C490 H505 0.929 . S
C491 C481 1.386 . S
C491 C484 1.357 . S
C491 H504 0.928 . S
H492 C468 0.931 . S
H493 C470 0.930 . S
H494 C472 0.929 . S
H495 C473 0.931 . S
H496 C475 0.930 . S
H497 C479 0.931 . S
H498 C477 0.931 . S
H499 C481 0.931 . S
H500 C482 0.929 . S
H501 C483 0.930 . S
H502 C486 0.930 . S
H503 C487 0.931 . S
H504 C491 0.928 . S
H505 C490 0.929 . S
H506 C488 0.932 . S
C507 C508 1.386 . S
C507 C509 1.397 . S
C507 H531 0.931 . S
C508 C507 1.386 . S
C508 C512 1.397 . S
C509 C507 1.397 . S
C509 C510 1.384 . S
C509 H532 0.930 . S
C510 C509 1.384 . S
C510 C511 1.377 . S
C510 C513 1.481 . S
C511 C510 1.377 . S
C511 C512 1.389 . S
C511 H533 0.929 . S
C512 C508 1.397 . S
C512 C511 1.389 . S
C512 H534 0.931 . S
C513 C510 1.481 . S
C513 C514 1.387 . S
C513 C518 1.390 . S
C514 C513 1.387 . S
C514 C515 1.401 . S
C514 H535 0.930 . S
C515 C514 1.401 . S
C515 C516 1.376 . S
C515 C524 1.511 . S
C516 C515 1.376 . S
C516 C517 1.392 . S
C516 H537 0.931 . S
C517 C516 1.392 . S
C517 C518 1.361 . S
C517 C519 1.500 . S
C518 C513 1.390 . S
C518 C517 1.361 . S
C518 H536 0.931 . S
C519 C517 1.500 . S
C519 C520 1.371 . S
C519 C521 1.365 . S
C520 C519 1.371 . S
C520 C530 1.386 . S
C520 H538 0.931 . S
C521 C519 1.365 . S
C521 C522 1.409 . S
C521 H539 0.929 . S
C522 C521 1.409 . S
C522 C523 1.380 . S
C522 H540 0.930 . S
C523 C522 1.380 . S
C523 C530 1.357 . S
C524 C515 1.511 . S
C524 C525 1.341 . S
C524 C526 1.371 . S
C525 C524 1.341 . S
C525 C529 1.394 . S
C525 H541 0.930 . S
C526 C524 1.371 . S
C526 C527 1.392 . S
C526 H542 0.931 . S
C527 C526 1.392 . S
C527 C528 1.331 . S
C527 H545 0.932 . S
C528 C527 1.331 . S
C528 C529 1.336 . S
C529 C525 1.394 . S
C529 C528 1.336 . S
C529 H544 0.929 . S
C530 C520 1.386 . S
C530 C523 1.357 . S
C530 H543 0.928 . S
H531 C507 0.931 . S
H532 C509 0.930 . S
H533 C511 0.929 . S
H534 C512 0.931 . S
H535 C514 0.930 . S
H536 C518 0.931 . S
H537 C516 0.931 . S
H538 C520 0.931 . S
H539 C521 0.929 . S
H540 C522 0.930 . S
H541 C525 0.930 . S
H542 C526 0.931 . S
H543 C530 0.928 . S
H544 C529 0.929 . S
H545 C527 0.932 . S
C546 C547 1.386 . S
C546 C548 1.397 . S
C546 H570 0.931 . S
C547 C546 1.386 . S
C547 C551 1.397 . S
C548 C546 1.397 . S
C548 C549 1.384 . S
C548 H571 0.930 . S
C549 C548 1.384 . S
C549 C550 1.377 . S
C549 C552 1.481 . S
C550 C549 1.377 . S
C550 C551 1.389 . S
C550 H572 0.929 . S
C551 C547 1.397 . S
C551 C550 1.389 . S
C551 H573 0.931 . S
C552 C549 1.481 . S
C552 C553 1.387 . S
C552 C557 1.390 . S
C553 C552 1.387 . S
C553 C554 1.401 . S
C553 H574 0.930 . S
C554 C553 1.401 . S
C554 C555 1.376 . S
C554 C563 1.511 . S
C555 C554 1.376 . S
C555 C556 1.392 . S
C555 H576 0.931 . S
C556 C555 1.392 . S
C556 C557 1.361 . S
C556 C558 1.500 . S
C557 C552 1.390 . S
C557 C556 1.361 . S
C557 H575 0.931 . S
C558 C556 1.500 . S
C558 C559 1.371 . S
C558 C560 1.365 . S
C559 C558 1.371 . S
C559 C569 1.386 . S
C559 H577 0.931 . S
C560 C558 1.365 . S
C560 C561 1.409 . S
C560 H578 0.929 . S
C561 C560 1.409 . S
C561 C562 1.380 . S
C561 H579 0.930 . S
C562 C561 1.380 . S
C562 C569 1.357 . S
C563 C554 1.511 . S
C563 C564 1.341 . S
C563 C565 1.371 . S
C564 C563 1.341 . S
C564 C568 1.394 . S
C564 H580 0.930 . S
C565 C563 1.371 . S
C565 C566 1.392 . S
C565 H581 0.931 . S
C566 C565 1.392 . S
C566 C567 1.331 . S
C566 H584 0.932 . S
C567 C566 1.331 . S
C567 C568 1.336 . S
C568 C564 1.394 . S
C568 C567 1.336 . S
C568 H583 0.929 . S
C569 C559 1.386 . S
C569 C562 1.357 . S
C569 H582 0.928 . S
H570 C546 0.931 . S
H571 C548 0.930 . S
H572 C550 0.929 . S
H573 C551 0.931 . S
H574 C553 0.930 . S
H575 C557 0.931 . S
H576 C555 0.931 . S
H577 C559 0.931 . S
H578 C560 0.929 . S
H579 C561 0.930 . S
H580 C564 0.930 . S
H581 C565 0.931 . S
H582 C569 0.928 . S
H583 C568 0.929 . S
H584 C566 0.932 . S
C585 C586 1.386 . S
C585 C587 1.397 . S
C585 H609 0.931 . S
C586 C585 1.386 . S
C586 C590 1.397 . S
C587 C585 1.397 . S
C587 C588 1.384 . S
C587 H610 0.930 . S
C588 C587 1.384 . S
C588 C589 1.377 . S
C588 C591 1.481 . S
C589 C588 1.377 . S
C589 C590 1.389 . S
C589 H611 0.929 . S
C590 C586 1.397 . S
C590 C589 1.389 . S
C590 H612 0.931 . S
C591 C588 1.481 . S
C591 C592 1.387 . S
C591 C596 1.390 . S
C592 C591 1.387 . S
C592 C593 1.401 . S
C592 H613 0.930 . S
C593 C592 1.401 . S
C593 C594 1.376 . S
C593 C602 1.511 . S
C594 C593 1.376 . S
C594 C595 1.392 . S
C594 H615 0.931 . S
C595 C594 1.392 . S
C595 C596 1.361 . S
C595 C597 1.500 . S
C596 C591 1.390 . S
C596 C595 1.361 . S
C596 H614 0.931 . S
C597 C595 1.500 . S
C597 C598 1.371 . S
C597 C599 1.365 . S
C598 C597 1.371 . S
C598 C608 1.386 . S
C598 H616 0.931 . S
C599 C597 1.365 . S
C599 C600 1.409 . S
C599 H617 0.929 . S
C600 C599 1.409 . S
C600 C601 1.380 . S
C600 H618 0.930 . S
C601 C600 1.380 . S
C601 C608 1.357 . S
C602 C593 1.511 . S
C602 C603 1.341 . S
C602 C604 1.371 . S
C603 C602 1.341 . S
C603 C607 1.394 . S
C603 H619 0.930 . S
C604 C602 1.371 . S
C604 C605 1.392 . S
C604 H620 0.931 . S
C605 C604 1.392 . S
C605 C606 1.331 . S
C605 H623 0.932 . S
C606 C605 1.331 . S
C606 C607 1.336 . S
C607 C603 1.394 . S
C607 C606 1.336 . S
C607 H622 0.929 . S
C608 C598 1.386 . S
C608 C601 1.357 . S
C608 H621 0.928 . S
H609 C585 0.931 . S
H610 C587 0.930 . S
H611 C589 0.929 . S
H612 C590 0.931 . S
H613 C592 0.930 . S
H614 C596 0.931 . S
H615 C594 0.931 . S
H616 C598 0.931 . S
H617 C599 0.929 . S
H618 C600 0.930 . S
H619 C603 0.930 . S
H620 C604 0.931 . S
H621 C608 0.928 . S
H622 C607 0.929 . S
H623 C605 0.932 . S
C624 C625 1.386 . S
C624 C626 1.397 . S
C624 H648 0.931 . S
C625 C624 1.386 . S
C625 C629 1.397 . S
C626 C624 1.397 . S
C626 C627 1.384 . S
C626 H649 0.930 . S
C627 C626 1.384 . S
C627 C628 1.377 . S
C627 C630 1.481 . S
C628 C627 1.377 . S
C628 C629 1.389 . S
C628 H650 0.929 . S
C629 C625 1.397 . S
C629 C628 1.389 . S
C629 H651 0.931 . S
C630 C627 1.481 . S
C630 C631 1.387 . S
C630 C635 1.390 . S
C631 C630 1.387 . S
C631 C632 1.401 . S
C631 H652 0.930 . S
C632 C631 1.401 . S
C632 C633 1.376 . S
C632 C641 1.511 . S
C633 C632 1.376 . S
C633 C634 1.392 . S
C633 H654 0.931 . S
C634 C633 1.392 . S
C634 C635 1.361 . S
C634 C636 1.500 . S
C635 C630 1.390 . S
C635 C634 1.361 . S
C635 H653 0.931 . S
C636 C634 1.500 . S
C636 C637 1.371 . S
C636 C638 1.365 . S
C637 C636 1.371 . S
C637 C647 1.386 . S
C637 H655 0.931 . S
C638 C636 1.365 . S
C638 C639 1.409 . S
C638 H656 0.929 . S
C639 C638 1.409 . S
C639 C640 1.380 . S
C639 H657 0.930 . S
C640 C639 1.380 . S
C640 C647 1.357 . S
C641 C632 1.511 . S
C641 C642 1.341 . S
C641 C643 1.371 . S
C642 C641 1.341 . S
C642 C646 1.394 . S
C642 H658 0.930 . S
C643 C641 1.371 . S
C643 C644 1.392 . S
C643 H659 0.931 . S
C644 C643 1.392 . S
C644 C645 1.331 . S
C644 H662 0.932 . S
C645 C644 1.331 . S
C645 C646 1.336 . S
C646 C642 1.394 . S
C646 C645 1.336 . S
C646 H661 0.929 . S
C647 C637 1.386 . S
C647 C640 1.357 . S
C647 H660 0.928 . S
H648 C624 0.931 . S
H649 C626 0.930 . S
H650 C628 0.929 . S
H651 C629 0.931 . S
H652 C631 0.930 . S
H653 C635 0.931 . S
H654 C633 0.931 . S
H655 C637 0.931 . S
H656 C638 0.929 . S
H657 C639 0.930 . S
H658 C642 0.930 . S
H659 C643 0.931 . S
H660 C647 0.928 . S
H661 C646 0.929 . S
H662 C644 0.932 . S
C663 C664 1.386 . S
C663 C665 1.397 . S
C663 H687 0.931 . S
C664 C663 1.386 . S
C664 C668 1.397 . S
C665 C663 1.397 . S
C665 C666 1.384 . S
C665 H688 0.930 . S
C666 C665 1.384 . S
C666 C667 1.377 . S
C666 C669 1.481 . S
C667 C666 1.377 . S
C667 C668 1.389 . S
C667 H689 0.929 . S
C668 C664 1.397 . S
C668 C667 1.389 . S
C668 H690 0.931 . S
C669 C666 1.481 . S
C669 C670 1.387 . S
C669 C674 1.390 . S
C670 C669 1.387 . S
C670 C671 1.401 . S
C670 H691 0.930 . S
C671 C670 1.401 . S
C671 C672 1.376 . S
C671 C680 1.511 . S
C672 C671 1.376 . S
C672 C673 1.392 . S
C672 H693 0.931 . S
C673 C672 1.392 . S
C673 C674 1.361 . S
C673 C675 1.500 . S
C674 C669 1.390 . S
C674 C673 1.361 . S
C674 H692 0.931 . S
C675 C673 1.500 . S
C675 C676 1.371 . S
C675 C677 1.365 . S
C676 C675 1.371 . S
C676 C686 1.386 . S
C676 H694 0.931 . S
C677 C675 1.365 . S
C677 C678 1.409 . S
C677 H695 0.929 . S
C678 C677 1.409 . S
C678 C679 1.380 . S
C678 H696 0.930 . S
C679 C678 1.380 . S
C679 C686 1.357 . S
C680 C671 1.511 . S
C680 C681 1.341 . S
C680 C682 1.371 . S
C681 C680 1.341 . S
C681 C685 1.394 . S
C681 H697 0.930 . S
C682 C680 1.371 . S
C682 C683 1.392 . S
C682 H698 0.931 . S
C683 C682 1.392 . S
C683 C684 1.331 . S
C683 H701 0.932 . S
C684 C683 1.331 . S
C684 C685 1.336 . S
C685 C681 1.394 . S
C685 C684 1.336 . S
C685 H700 0.929 . S
C686 C676 1.386 . S
C686 C679 1.357 . S
C686 H699 0.928 . S
H687 C663 0.931 . S
H688 C665 0.930 . S
H689 C667 0.929 . S
H690 C668 0.931 . S
H691 C670 0.930 . S
H692 C674 0.931 . S
H693 C672 0.931 . S
H694 C676 0.931 . S
H695 C677 0.929 . S
H696 C678 0.930 . S
H697 C681 0.930 . S
H698 C682 0.931 . S
H699 C686 0.928 . S
H700 C685 0.929 . S
H701 C683 0.932 . S
C702 C703 1.386 . S
C702 C704 1.397 . S
C702 H726 0.931 . S
C703 C702 1.386 . S
C703 C707 1.397 . S
C704 C702 1.397 . S
C704 C705 1.384 . S
C704 H727 0.930 . S
C705 C704 1.384 . S
C705 C706 1.377 . S
C705 C708 1.481 . S
C706 C705 1.377 . S
C706 C707 1.389 . S
C706 H728 0.929 . S
C707 C703 1.397 . S
C707 C706 1.389 . S
C707 H729 0.931 . S
C708 C705 1.481 . S
C708 C709 1.387 . S
C708 C713 1.390 . S
C709 C708 1.387 . S
C709 C710 1.401 . S
C709 H730 0.930 . S
C710 C709 1.401 . S
C710 C711 1.376 . S
C710 C719 1.511 . S
C711 C710 1.376 . S
C711 C712 1.392 . S
C711 H732 0.931 . S
C712 C711 1.392 . S
C712 C713 1.361 . S
C712 C714 1.500 . S
C713 C708 1.390 . S
C713 C712 1.361 . S
C713 H731 0.931 . S
C714 C712 1.500 . S
C714 C715 1.371 . S
C714 C716 1.365 . S
C715 C714 1.371 . S
C715 C725 1.386 . S
C715 H733 0.931 . S
C716 C714 1.365 . S
C716 C717 1.409 . S
C716 H734 0.929 . S
C717 C716 1.409 . S
C717 C718 1.380 . S
C717 H735 0.930 . S
C718 C717 1.380 . S
C718 C725 1.357 . S
C719 C710 1.511 . S
C719 C720 1.341 . S
C719 C721 1.371 . S
C720 C719 1.341 . S
C720 C724 1.394 . S
C720 H736 0.930 . S
C721 C719 1.371 . S
C721 C722 1.392 . S
C721 H737 0.931 . S
C722 C721 1.392 . S
C722 C723 1.331 . S
C722 H740 0.932 . S
C723 C722 1.331 . S
C723 C724 1.336 . S
C724 C720 1.394 . S
C724 C723 1.336 . S
C724 H739 0.929 . S
C725 C715 1.386 . S
C725 C718 1.357 . S
C725 H738 0.928 . S
H726 C702 0.931 . S
H727 C704 0.930 . S
H728 C706 0.929 . S
H729 C707 0.931 . S
H730 C709 0.930 . S
H731 C713 0.931 . S
H732 C711 0.931 . S
H733 C715 0.931 . S
H734 C716 0.929 . S
H735 C717 0.930 . S
H736 C720 0.930 . S
H737 C721 0.931 . S
H738 C725 0.928 . S
H739 C724 0.929 . S
H740 C722 0.932 . S
C741 C742 1.386 . S
C741 C743 1.397 . S
C741 H765 0.931 . S
C742 C741 1.386 . S
C742 C746 1.397 . S
C743 C741 1.397 . S
C743 C744 1.384 . S
C743 H766 0.930 . S
C744 C743 1.384 . S
C744 C745 1.377 . S
C744 C747 1.481 . S
C745 C744 1.377 . S
C745 C746 1.389 . S
C745 H767 0.929 . S
C746 C742 1.397 . S
C746 C745 1.389 . S
C746 H768 0.931 . S
C747 C744 1.481 . S
C747 C748 1.387 . S
C747 C752 1.390 . S
C748 C747 1.387 . S
C748 C749 1.401 . S
C748 H769 0.930 . S
C749 C748 1.401 . S
C749 C750 1.376 . S
C749 C758 1.511 . S
C750 C749 1.376 . S
C750 C751 1.392 . S
C750 H771 0.931 . S
C751 C750 1.392 . S
C751 C752 1.361 . S
C751 C753 1.500 . S
C752 C747 1.390 . S
C752 C751 1.361 . S
C752 H770 0.931 . S
C753 C751 1.500 . S
C753 C754 1.371 . S
C753 C755 1.365 . S
C754 C753 1.371 . S
C754 C764 1.386 . S
C754 H772 0.931 . S
C755 C753 1.365 . S
C755 C756 1.409 . S
C755 H773 0.929 . S
C756 C755 1.409 . S
C756 C757 1.380 . S
C756 H774 0.930 . S
C757 C756 1.380 . S
C757 C764 1.357 . S
C758 C749 1.511 . S
C758 C759 1.341 . S
C758 C760 1.371 . S
C759 C758 1.341 . S
C759 C763 1.394 . S
C759 H775 0.930 . S
C760 C758 1.371 . S
C760 C761 1.392 . S
C760 H776 0.931 . S
C761 C760 1.392 . S
C761 C762 1.331 . S
C761 H779 0.932 . S
C762 C761 1.331 . S
C762 C763 1.336 . S
C763 C759 1.394 . S
C763 C762 1.336 . S
C763 H778 0.929 . S
C764 C754 1.386 . S
C764 C757 1.357 . S
C764 H777 0.928 . S
H765 C741 0.931 . S
H766 C743 0.930 . S
H767 C745 0.929 . S
H768 C746 0.931 . S
H769 C748 0.930 . S
H770 C752 0.931 . S
H771 C750 0.931 . S
H772 C754 0.931 . S
H773 C755 0.929 . S
H774 C756 0.930 . S
H775 C759 0.930 . S
H776 C760 0.931 . S
H777 C764 0.928 . S
H778 C763 0.929 . S
H779 C761 0.932 . S
C780 C781 1.386 . S
C780 C782 1.397 . S
C780 H804 0.931 . S
C781 C780 1.386 . S
C781 C785 1.397 . S
C782 C780 1.397 . S
C782 C783 1.384 . S
C782 H805 0.930 . S
C783 C782 1.384 . S
C783 C784 1.377 . S
C783 C786 1.481 . S
C784 C783 1.377 . S
C784 C785 1.389 . S
C784 H806 0.929 . S
C785 C781 1.397 . S
C785 C784 1.389 . S
C785 H807 0.931 . S
C786 C783 1.481 . S
C786 C787 1.387 . S
C786 C791 1.390 . S
C787 C786 1.387 . S
C787 C788 1.401 . S
C787 H808 0.930 . S
C788 C787 1.401 . S
C788 C789 1.376 . S
C788 C797 1.511 . S
C789 C788 1.376 . S
C789 C790 1.392 . S
C789 H810 0.931 . S
C790 C789 1.392 . S
C790 C791 1.361 . S
C790 C792 1.500 . S
C791 C786 1.390 . S
C791 C790 1.361 . S
C791 H809 0.931 . S
C792 C790 1.500 . S
C792 C793 1.371 . S
C792 C794 1.365 . S
C793 C792 1.371 . S
C793 C803 1.386 . S
C793 H811 0.931 . S
C794 C792 1.365 . S
C794 C795 1.409 . S
C794 H812 0.929 . S
C795 C794 1.409 . S
C795 C796 1.380 . S
C795 H813 0.930 . S
C796 C795 1.380 . S
C796 C803 1.357 . S
C797 C788 1.511 . S
C797 C798 1.341 . S
C797 C799 1.371 . S
C798 C797 1.341 . S
C798 C802 1.394 . S
C798 H814 0.930 . S
C799 C797 1.371 . S
C799 C800 1.392 . S
C799 H815 0.931 . S
C800 C799 1.392 . S
C800 C801 1.331 . S
C800 H818 0.932 . S
C801 C800 1.331 . S
C801 C802 1.336 . S
C802 C798 1.394 . S
C802 C801 1.336 . S
C802 H817 0.929 . S
C803 C793 1.386 . S
C803 C796 1.357 . S
C803 H816 0.928 . S
H804 C780 0.931 . S
H805 C782 0.930 . S
H806 C784 0.929 . S
H807 C785 0.931 . S
H808 C787 0.930 . S
H809 C791 0.931 . S
H810 C789 0.931 . S
H811 C793 0.931 . S
H812 C794 0.929 . S
H813 C795 0.930 . S
H814 C798 0.930 . S
H815 C799 0.931 . S
H816 C803 0.928 . S
H817 C802 0.929 . S
H818 C800 0.932 . S
C819 C820 1.386 . S
C819 C821 1.397 . S
C819 H843 0.931 . S
C820 C819 1.386 . S
C820 C824 1.397 . S
C821 C819 1.397 . S
C821 C822 1.384 . S
C821 H844 0.930 . S
C822 C821 1.384 . S
C822 C823 1.377 . S
C822 C825 1.481 . S
C823 C822 1.377 . S
C823 C824 1.389 . S
C823 H845 0.929 . S
C824 C820 1.397 . S
C824 C823 1.389 . S
C824 H846 0.931 . S
C825 C822 1.481 . S
C825 C826 1.387 . S
C825 C830 1.390 . S
C826 C825 1.387 . S
C826 C827 1.401 . S
C826 H847 0.930 . S
C827 C826 1.401 . S
C827 C828 1.376 . S
C827 C836 1.511 . S
C828 C827 1.376 . S
C828 C829 1.392 . S
C828 H849 0.931 . S
C829 C828 1.392 . S
C829 C830 1.361 . S
C829 C831 1.500 . S
C830 C825 1.390 . S
C830 C829 1.361 . S
C830 H848 0.931 . S
C831 C829 1.500 . S
C831 C832 1.371 . S
C831 C833 1.365 . S
C832 C831 1.371 . S
C832 C842 1.386 . S
C832 H850 0.931 . S
C833 C831 1.365 . S
C833 C834 1.409 . S
C833 H851 0.929 . S
C834 C833 1.409 . S
C834 C835 1.380 . S
C834 H852 0.930 . S
C835 C834 1.380 . S
C835 C842 1.357 . S
C836 C827 1.511 . S
C836 C837 1.341 . S
C836 C838 1.371 . S
C837 C836 1.341 . S
C837 C841 1.394 . S
C837 H853 0.930 . S
C838 C836 1.371 . S
C838 C839 1.392 . S
C838 H854 0.931 . S
C839 C838 1.392 . S
C839 C840 1.331 . S
C839 H857 0.932 . S
C840 C839 1.331 . S
C840 C841 1.336 . S
C841 C837 1.394 . S
C841 C840 1.336 . S
C841 H856 0.929 . S
C842 C832 1.386 . S
C842 C835 1.357 . S
C842 H855 0.928 . S
H843 C819 0.931 . S
H844 C821 0.930 . S
H845 C823 0.929 . S
H846 C824 0.931 . S
H847 C826 0.930 . S
H848 C830 0.931 . S
H849 C828 0.931 . S
H850 C832 0.931 . S
H851 C833 0.929 . S
H852 C834 0.930 . S
H853 C837 0.930 . S
H854 C838 0.931 . S
H855 C842 0.928 . S
H856 C841 0.929 . S
H857 C839 0.932 . S
C858 C859 1.386 . S
C858 C860 1.397 . S
C858 H882 0.931 . S
C859 C858 1.386 . S
C859 C863 1.397 . S
C860 C858 1.397 . S
C860 C861 1.384 . S
C860 H883 0.930 . S
C861 C860 1.384 . S
C861 C862 1.377 . S
C861 C864 1.481 . S
C862 C861 1.377 . S
C862 C863 1.389 . S
C862 H884 0.929 . S
C863 C859 1.397 . S
C863 C862 1.389 . S
C863 H885 0.931 . S
C864 C861 1.481 . S
C864 C865 1.387 . S
C864 C869 1.390 . S
C865 C864 1.387 . S
C865 C866 1.401 . S
C865 H886 0.930 . S
C866 C865 1.401 . S
C866 C867 1.376 . S
C866 C875 1.511 . S
C867 C866 1.376 . S
C867 C868 1.392 . S
C867 H888 0.931 . S
C868 C867 1.392 . S
C868 C869 1.361 . S
C868 C870 1.500 . S
C869 C864 1.390 . S
C869 C868 1.361 . S
C869 H887 0.931 . S
C870 C868 1.500 . S
C870 C871 1.371 . S
C870 C872 1.365 . S
C871 C870 1.371 . S
C871 C881 1.386 . S
C871 H889 0.931 . S
C872 C870 1.365 . S
C872 C873 1.409 . S
C872 H890 0.929 . S
C873 C872 1.409 . S
C873 C874 1.380 . S
C873 H891 0.930 . S
C874 C873 1.380 . S
C874 C881 1.357 . S
C875 C866 1.511 . S
C875 C876 1.341 . S
C875 C877 1.371 . S
C876 C875 1.341 . S
C876 C880 1.394 . S
C876 H892 0.930 . S
C877 C875 1.371 . S
C877 C878 1.392 . S
C877 H893 0.931 . S
C878 C877 1.392 . S
C878 C879 1.331 . S
C878 H896 0.932 . S
C879 C878 1.331 . S
C879 C880 1.336 . S
C880 C876 1.394 . S
C880 C879 1.336 . S
C880 H895 0.929 . S
C881 C871 1.386 . S
C881 C874 1.357 . S
C881 H894 0.928 . S
H882 C858 0.931 . S
H883 C860 0.930 . S
H884 C862 0.929 . S
H885 C863 0.931 . S
H886 C865 0.930 . S
H887 C869 0.931 . S
H888 C867 0.931 . S
H889 C871 0.931 . S
H890 C872 0.929 . S
H891 C873 0.930 . S
H892 C876 0.930 . S
H893 C877 0.931 . S
H894 C881 0.928 . S
H895 C880 0.929 . S
H896 C878 0.932 . S
C897 C898 1.386 . S
C897 C899 1.397 . S
C897 H921 0.931 . S
C898 C897 1.386 . S
C898 C902 1.397 . S
C899 C897 1.397 . S
C899 C900 1.384 . S
C899 H922 0.930 . S
C900 C899 1.384 . S
C900 C901 1.377 . S
C900 C903 1.481 . S
C901 C900 1.377 . S
C901 C902 1.389 . S
C901 H923 0.929 . S
C902 C898 1.397 . S
C902 C901 1.389 . S
C902 H924 0.931 . S
C903 C900 1.481 . S
C903 C904 1.387 . S
C903 C908 1.390 . S
C904 C903 1.387 . S
C904 C905 1.401 . S
C904 H925 0.930 . S
C905 C904 1.401 . S
C905 C906 1.376 . S
C905 C914 1.511 . S
C906 C905 1.376 . S
C906 C907 1.392 . S
C906 H927 0.931 . S
C907 C906 1.392 . S
C907 C908 1.361 . S
C907 C909 1.500 . S
C908 C903 1.390 . S
C908 C907 1.361 . S
C908 H926 0.931 . S
C909 C907 1.500 . S
C909 C910 1.371 . S
C909 C911 1.365 . S
C910 C909 1.371 . S
C910 C920 1.386 . S
C910 H928 0.931 . S
C911 C909 1.365 . S
C911 C912 1.409 . S
C911 H929 0.929 . S
C912 C911 1.409 . S
C912 C913 1.380 . S
C912 H930 0.930 . S
C913 C912 1.380 . S
C913 C920 1.357 . S
C914 C905 1.511 . S
C914 C915 1.341 . S
C914 C916 1.371 . S
C915 C914 1.341 . S
C915 C919 1.394 . S
C915 H931 0.930 . S
C916 C914 1.371 . S
C916 C917 1.392 . S
C916 H932 0.931 . S
C917 C916 1.392 . S
C917 C918 1.331 . S
C917 H935 0.932 . S
C918 C917 1.331 . S
C918 C919 1.336 . S
C919 C915 1.394 . S
C919 C918 1.336 . S
C919 H934 0.929 . S
C920 C910 1.386 . S
C920 C913 1.357 . S
C920 H933 0.928 . S
H921 C897 0.931 . S
H922 C899 0.930 . S
H923 C901 0.929 . S
H924 C902 0.931 . S
H925 C904 0.930 . S
H926 C908 0.931 . S
H927 C906 0.931 . S
H928 C910 0.931 . S
H929 C911 0.929 . S
H930 C912 0.930 . S
H931 C915 0.930 . S
H932 C916 0.931 . S
H933 C920 0.928 . S
H934 C919 0.929 . S
H935 C917 0.932 . S
C936 O962 1.283 . S
C936 O980 1.283 . S
C937 O963 1.283 . S
C937 O978 1.283 . S
C938 O964 1.283 . S
C938 O981 1.283 . S
C939 O965 1.283 . S
C939 O979 1.283 . S
C940 O966 1.283 . S
C940 O975 1.283 . S
C941 O967 1.283 . S
C941 O977 1.283 . S
C942 O968 1.283 . S
C942 O974 1.283 . S
C943 O969 1.283 . S
C943 O976 1.283 . S
C944 O970 1.283 . S
C944 O985 1.283 . S
C945 O971 1.283 . S
C945 O983 1.283 . S
C946 O972 1.283 . S
C946 O984 1.283 . S
C947 O973 1.283 . S
C947 O982 1.283 . S
Eu948 O949 2.370 1_455 S
Eu948 O950 2.370 . S
Eu948 O953 2.370 1_455 S
Eu948 O954 2.370 . S
Eu948 O962 2.363 . S
Eu948 O963 2.363 . S
Eu948 O976 2.363 . S
Eu948 O977 2.363 1_455 S
O949 Eu948 2.370 1_655 S
O949 Eu951 2.370 1_565 S
O949 Eu956 2.370 1_665 S
O950 Eu948 2.370 . S
O950 Eu952 2.370 1_565 S
O950 Eu955 2.370 1_565 S
Eu951 O949 2.370 1_545 S
Eu951 O953 2.370 1_545 S
Eu951 O957 2.370 . S
Eu951 O958 2.370 . S
Eu951 O966 2.363 . S
Eu951 O967 2.363 1_545 S
Eu951 O982 2.363 . S
Eu951 O983 2.363 . S
Eu952 O950 2.370 1_545 S
Eu952 O954 2.370 1_545 S
Eu952 O959 2.370 . S
Eu952 O960 2.370 . S
Eu952 O968 2.363 . S
Eu952 O969 2.363 1_545 S
Eu952 O984 2.363 . S
Eu952 O985 2.363 . S
O953 Eu948 2.370 1_655 S
O953 Eu951 2.370 1_565 S
O953 Eu955 2.370 1_665 S
O954 Eu948 2.370 . S
O954 Eu952 2.370 1_565 S
O954 Eu956 2.370 1_565 S
Eu955 O950 2.370 1_545 S
Eu955 O953 2.370 1_445 S
Eu955 O957 2.370 1_455 S
Eu955 O960 2.370 . S
Eu955 O972 2.363 . S
Eu955 O973 2.363 1_455 S
Eu955 O980 2.363 1_545 S
Eu955 O981 2.362 . S
Eu956 O949 2.370 1_445 S
Eu956 O954 2.370 1_545 S
Eu956 O958 2.370 1_455 S
Eu956 O959 2.370 . S
Eu956 O970 2.363 . S
Eu956 O971 2.363 1_455 S
Eu956 O978 2.362 1_545 S
Eu956 O979 2.363 . S
O957 Eu951 2.370 . S
O957 Eu955 2.370 1_655 S
O957 Eu961 2.370 1_655 S
O958 Eu951 2.370 . S
O958 Eu956 2.370 1_655 S
O958 Eu961 2.370 1_655 S
O959 Eu952 2.370 . S
O959 Eu956 2.370 . S
O959 Eu961 2.370 . S
O960 Eu952 2.370 . S
O960 Eu955 2.370 . S
O960 Eu961 2.370 . S
Eu961 O957 2.370 1_455 S
Eu961 O958 2.370 1_455 S
Eu961 O959 2.370 . S
Eu961 O960 2.370 . S
Eu961 O964 2.363 . S
Eu961 O965 2.363 . S
Eu961 O974 2.363 . S
Eu961 O975 2.363 1_455 S
O962 C936 1.283 . S
O962 Eu948 2.363 . S
O963 C937 1.283 . S
O963 Eu948 2.363 . S
O964 C938 1.283 . S
O964 Eu961 2.363 . S
O965 C939 1.283 . S
O965 Eu961 2.363 . S
O966 C940 1.283 . S
O966 Eu951 2.363 . S
O967 C941 1.283 . S
O967 Eu951 2.363 1_565 S
O968 C942 1.283 . S
O968 Eu952 2.363 . S
O969 C943 1.283 . S
O969 Eu952 2.363 1_565 S
O970 C944 1.283 . S
O970 Eu956 2.363 . S
O971 C945 1.283 . S
O971 Eu956 2.363 1_655 S
O972 C946 1.283 . S
O972 Eu955 2.363 . S
O973 C947 1.283 . S
O973 Eu955 2.363 1_655 S
O974 C942 1.283 . S
O974 Eu961 2.363 . S
O975 C940 1.283 . S
O975 Eu961 2.363 1_655 S
O976 C943 1.283 . S
O976 Eu948 2.363 . S
O977 C941 1.283 . S
O977 Eu948 2.363 1_655 S
O978 C937 1.283 . S
O978 Eu956 2.362 1_565 S
O979 C939 1.283 . S
O979 Eu956 2.363 . S
O980 C936 1.283 . S
O980 Eu955 2.363 1_565 S
O981 C938 1.283 . S
O981 Eu955 2.362 . S
O982 C947 1.283 . S
O982 Eu951 2.363 . S
O983 C945 1.283 . S
O983 Eu951 2.363 . S
O984 C946 1.283 . S
O984 Eu952 2.363 . S
O985 C944 1.283 . S
O985 Eu952 2.363 . S
C986 O1012 1.283 . S
C986 O1030 1.283 . S
C987 O1013 1.283 . S
C987 O1028 1.283 . S
C988 O1014 1.283 . S
C988 O1031 1.283 . S
C989 O1015 1.283 . S
C989 O1029 1.283 . S
C990 O1016 1.283 . S
C990 O1025 1.283 . S
C991 O1017 1.283 . S
C991 O1027 1.283 . S
C992 O1018 1.283 . S
C992 O1024 1.283 . S
C993 O1019 1.283 . S
C993 O1026 1.283 . S
C994 O1020 1.283 . S
C994 O1035 1.283 . S
C995 O1021 1.283 . S
C995 O1033 1.283 . S
C996 O1022 1.283 . S
C996 O1034 1.283 . S
C997 O1023 1.283 . S
C997 O1032 1.283 . S
Eu998 O999 2.371 . S
Eu998 O1000 2.369 1_545 S
Eu998 O1003 2.369 1_545 S
Eu998 O1004 2.371 . S
Eu998 O1012 2.361 1_545 S
Eu998 O1013 2.365 . S
Eu998 O1026 2.363 . S
Eu998 O1027 2.363 . S
O999 Eu998 2.371 . S
O999 Eu1001 2.370 . S
O999 Eu1006 2.369 . S
O1000 Eu998 2.369 1_565 S
O1000 Eu1002 2.370 1_565 S
O1000 Eu1005 2.371 . S
Eu1001 O999 2.370 . S
Eu1001 O1003 2.370 1_545 S
Eu1001 O1007 2.370 1_544 S
Eu1001 O1008 2.370 1_554 S
Eu1001 O1016 2.363 1_554 S
Eu1001 O1017 2.363 . S
Eu1001 O1032 2.363 1_545 S
Eu1001 O1033 2.363 . S
Eu1002 O1000 2.370 1_545 S
Eu1002 O1004 2.370 . S
Eu1002 O1009 2.370 1_554 S
Eu1002 O1010 2.370 1_544 S
Eu1002 O1018 2.363 1_554 S
Eu1002 O1019 2.363 . S
Eu1002 O1034 2.363 1_545 S
Eu1002 O1035 2.363 . S
O1003 Eu998 2.369 1_565 S
O1003 Eu1001 2.370 1_565 S
O1003 Eu1005 2.371 . S
O1004 Eu998 2.371 . S
O1004 Eu1002 2.370 . S
O1004 Eu1006 2.369 . S
Eu1005 O1000 2.371 . S
Eu1005 O1003 2.371 . S
Eu1005 O1007 2.369 1_554 S
Eu1005 O1010 2.369 1_554 S
Eu1005 O1022 2.363 . S
Eu1005 O1023 2.363 . S
Eu1005 O1030 2.365 . S
Eu1005 O1031 2.361 1_554 S
Eu1006 O999 2.369 . S
Eu1006 O1004 2.369 . S
Eu1006 O1008 2.371 1_554 S
Eu1006 O1009 2.371 1_554 S
Eu1006 O1020 2.363 . S
Eu1006 O1021 2.363 . S
Eu1006 O1028 2.361 . S
Eu1006 O1029 2.365 1_554 S
O1007 Eu1001 2.370 1_566 S
O1007 Eu1005 2.369 1_556 S
O1007 Eu1011 2.371 1_565 S
O1008 Eu1001 2.370 1_556 S
O1008 Eu1006 2.371 1_556 S
O1008 Eu1011 2.369 . S
O1009 Eu1002 2.370 1_556 S
O1009 Eu1006 2.371 1_556 S
O1009 Eu1011 2.369 . S
O1010 Eu1002 2.370 1_566 S
O1010 Eu1005 2.369 1_556 S
O1010 Eu1011 2.371 1_565 S
Eu1011 O1007 2.371 1_545 S
Eu1011 O1008 2.369 . S
Eu1011 O1009 2.369 . S
Eu1011 O1010 2.371 1_545 S
Eu1011 O1014 2.365 1_545 S
Eu1011 O1015 2.361 . S
Eu1011 O1024 2.363 . S
Eu1011 O1025 2.363 . S
O1012 C986 1.283 . S
O1012 Eu998 2.361 1_565 S
O1013 C987 1.283 . S
O1013 Eu998 2.365 . S
O1014 C988 1.283 . S
O1014 Eu1011 2.365 1_565 S
O1015 C989 1.283 . S
O1015 Eu1011 2.361 . S
O1016 C990 1.283 . S
O1016 Eu1001 2.363 1_556 S
O1017 C991 1.283 . S
O1017 Eu1001 2.363 . S
O1018 C992 1.283 . S
O1018 Eu1002 2.363 1_556 S
O1019 C993 1.283 . S
O1019 Eu1002 2.363 . S
O1020 C994 1.283 . S
O1020 Eu1006 2.363 . S
O1021 C995 1.283 . S
O1021 Eu1006 2.363 . S
O1022 C996 1.283 . S
O1022 Eu1005 2.363 . S
O1023 C997 1.283 . S
O1023 Eu1005 2.363 . S
O1024 C992 1.283 . S
O1024 Eu1011 2.363 . S
O1025 C990 1.283 . S
O1025 Eu1011 2.363 . S
O1026 C993 1.283 . S
O1026 Eu998 2.363 . S
O1027 C991 1.283 . S
O1027 Eu998 2.363 . S
O1028 C987 1.283 . S
O1028 Eu1006 2.361 . S
O1029 C989 1.283 . S
O1029 Eu1006 2.365 1_556 S
O1030 C986 1.283 . S
O1030 Eu1005 2.365 . S
O1031 C988 1.283 . S
O1031 Eu1005 2.361 1_556 S
O1032 C997 1.283 . S
O1032 Eu1001 2.363 1_565 S
O1033 C995 1.283 . S
O1033 Eu1001 2.363 . S
O1034 C996 1.283 . S
O1034 Eu1002 2.363 1_565 S
O1035 C994 1.283 . S
O1035 Eu1002 2.363 . S
C1036 O1062 1.283 . S
C1036 O1080 1.283 . S
C1037 O1063 1.283 . S
C1037 O1078 1.283 . S
C1038 O1064 1.283 . S
C1038 O1081 1.283 . S
C1039 O1065 1.283 . S
C1039 O1079 1.283 . S
C1040 O1066 1.283 . S
C1040 O1075 1.283 . S
C1041 O1067 1.283 . S
C1041 O1077 1.283 . S
C1042 O1068 1.283 . S
C1042 O1074 1.283 . S
C1043 O1069 1.283 . S
C1043 O1076 1.283 . S
C1044 O1070 1.283 . S
C1044 O1085 1.283 . S
C1045 O1071 1.283 . S
C1045 O1083 1.283 . S
C1046 O1072 1.283 . S
C1046 O1084 1.283 . S
C1047 O1073 1.283 . S
C1047 O1082 1.283 . S
Eu1048 O1049 2.370 1_454 S
Eu1048 O1050 2.370 . S
Eu1048 O1053 2.370 1_455 S
Eu1048 O1054 2.370 1_554 S
Eu1048 O1062 2.362 . S
Eu1048 O1063 2.363 1_554 S
Eu1048 O1076 2.363 . S
Eu1048 O1077 2.363 1_455 S
O1049 Eu1048 2.370 1_656 S
O1049 Eu1051 2.370 1_556 S
O1049 Eu1056 2.370 1_655 S
O1050 Eu1048 2.370 . S
O1050 Eu1052 2.370 . S
O1050 Eu1055 2.370 . S
Eu1051 O1049 2.370 1_554 S
Eu1051 O1053 2.370 . S
Eu1051 O1057 2.370 . S
Eu1051 O1058 2.370 1_554 S
Eu1051 O1066 2.363 . S
Eu1051 O1067 2.363 . S
Eu1051 O1082 2.363 . S
Eu1051 O1083 2.363 1_554 S
Eu1052 O1050 2.370 . S
Eu1052 O1054 2.370 1_554 S
Eu1052 O1059 2.370 1_554 S
Eu1052 O1060 2.370 . S
Eu1052 O1068 2.363 . S
Eu1052 O1069 2.363 . S
Eu1052 O1084 2.363 . S
Eu1052 O1085 2.363 1_554 S
O1053 Eu1048 2.370 1_655 S
O1053 Eu1051 2.370 . S
O1053 Eu1055 2.370 1_655 S
O1054 Eu1048 2.370 1_556 S
O1054 Eu1052 2.370 1_556 S
O1054 Eu1056 2.370 . S
Eu1055 O1050 2.370 . S
Eu1055 O1053 2.370 1_455 S
Eu1055 O1057 2.370 1_455 S
Eu1055 O1060 2.370 . S
Eu1055 O1072 2.363 . S
Eu1055 O1073 2.363 1_455 S
Eu1055 O1080 2.363 . S
Eu1055 O1081 2.363 . S
Eu1056 O1049 2.370 1_455 S
Eu1056 O1054 2.370 . S
Eu1056 O1058 2.370 1_455 S
Eu1056 O1059 2.370 . S
Eu1056 O1070 2.363 . S
Eu1056 O1071 2.363 1_455 S
Eu1056 O1078 2.363 . S
Eu1056 O1079 2.363 . S
O1057 Eu1051 2.370 . S
O1057 Eu1055 2.370 1_655 S
O1057 Eu1061 2.370 1_655 S
O1058 Eu1051 2.370 1_556 S
O1058 Eu1056 2.370 1_655 S
O1058 Eu1061 2.370 1_656 S
O1059 Eu1052 2.370 1_556 S
O1059 Eu1056 2.370 . S
O1059 Eu1061 2.370 1_556 S
O1060 Eu1052 2.370 . S
O1060 Eu1055 2.370 . S
O1060 Eu1061 2.370 . S
Eu1061 O1057 2.370 1_455 S
Eu1061 O1058 2.370 1_454 S
Eu1061 O1059 2.370 1_554 S
Eu1061 O1060 2.370 . S
Eu1061 O1064 2.363 . S
Eu1061 O1065 2.362 1_554 S
Eu1061 O1074 2.363 . S
Eu1061 O1075 2.363 1_455 S
O1062 C1036 1.283 . S
O1062 Eu1048 2.362 . S
O1063 C1037 1.283 . S
O1063 Eu1048 2.363 1_556 S
O1064 C1038 1.283 . S
O1064 Eu1061 2.363 . S
O1065 C1039 1.283 . S
O1065 Eu1061 2.362 1_556 S
O1066 C1040 1.283 . S
O1066 Eu1051 2.363 . S
O1067 C1041 1.283 . S
O1067 Eu1051 2.363 . S
O1068 C1042 1.283 . S
O1068 Eu1052 2.363 . S
O1069 C1043 1.283 . S
O1069 Eu1052 2.363 . S
O1070 C1044 1.283 . S
O1070 Eu1056 2.363 . S
O1071 C1045 1.283 . S
O1071 Eu1056 2.363 1_655 S
O1072 C1046 1.283 . S
O1072 Eu1055 2.363 . S
O1073 C1047 1.283 . S
O1073 Eu1055 2.363 1_655 S
O1074 C1042 1.283 . S
O1074 Eu1061 2.363 . S
O1075 C1040 1.283 . S
O1075 Eu1061 2.363 1_655 S
O1076 C1043 1.283 . S
O1076 Eu1048 2.363 . S
O1077 C1041 1.283 . S
O1077 Eu1048 2.363 1_655 S
O1078 C1037 1.283 . S
O1078 Eu1056 2.363 . S
O1079 C1039 1.283 . S
O1079 Eu1056 2.363 . S
O1080 C1036 1.283 . S
O1080 Eu1055 2.363 . S
O1081 C1038 1.283 . S
O1081 Eu1055 2.363 . S
O1082 C1047 1.283 . S
O1082 Eu1051 2.363 . S
O1083 C1045 1.283 . S
O1083 Eu1051 2.363 1_556 S
O1084 C1046 1.283 . S
O1084 Eu1052 2.363 . S
O1085 C1044 1.283 . S
O1085 Eu1052 2.363 1_556 S
C1086 O1112 1.283 . S
C1086 O1130 1.283 . S
C1087 O1113 1.283 . S
C1087 O1128 1.283 . S
C1088 O1114 1.283 . S
C1088 O1131 1.283 . S
C1089 O1115 1.283 . S
C1089 O1129 1.283 . S
C1090 O1116 1.283 . S
C1090 O1125 1.283 . S
C1091 O1117 1.283 . S
C1091 O1127 1.283 . S
C1092 O1118 1.283 . S
C1092 O1124 1.283 . S
C1093 O1119 1.283 . S
C1093 O1126 1.283 . S
C1094 O1120 1.283 . S
C1094 O1135 1.283 . S
C1095 O1121 1.283 . S
C1095 O1133 1.283 . S
C1096 O1122 1.283 . S
C1096 O1134 1.283 . S
C1097 O1123 1.283 . S
C1097 O1132 1.283 . S
Eu1098 O1099 2.370 . S
Eu1098 O1100 2.370 . S
Eu1098 O1103 2.370 . S
Eu1098 O1104 2.370 . S
Eu1098 O1112 2.363 . S
Eu1098 O1113 2.363 . S
Eu1098 O1126 2.363 . S
Eu1098 O1127 2.363 . S
O1099 Eu1098 2.370 . S
O1099 Eu1101 2.370 . S
O1099 Eu1106 2.370 . S
O1100 Eu1098 2.370 . S
O1100 Eu1102 2.370 . S
O1100 Eu1105 2.370 . S
Eu1101 O1099 2.370 . S
Eu1101 O1103 2.370 . S
Eu1101 O1107 2.370 1_554 S
Eu1101 O1108 2.370 1_554 S
Eu1101 O1116 2.363 1_554 S
Eu1101 O1117 2.363 . S
Eu1101 O1132 2.363 . S
Eu1101 O1133 2.363 . S
Eu1102 O1100 2.370 . S
Eu1102 O1104 2.370 . S
Eu1102 O1109 2.370 1_554 S
Eu1102 O1110 2.370 1_554 S
Eu1102 O1118 2.363 1_554 S
Eu1102 O1119 2.363 . S
Eu1102 O1134 2.363 . S
Eu1102 O1135 2.363 . S
O1103 Eu1098 2.370 . S
O1103 Eu1101 2.370 . S
O1103 Eu1105 2.370 . S
O1104 Eu1098 2.370 . S
O1104 Eu1102 2.370 . S
O1104 Eu1106 2.370 . S
Eu1105 O1100 2.370 . S
Eu1105 O1103 2.370 . S
Eu1105 O1107 2.370 1_554 S
Eu1105 O1110 2.370 1_554 S
Eu1105 O1122 2.363 . S
Eu1105 O1123 2.363 . S
Eu1105 O1130 2.362 . S
Eu1105 O1131 2.363 1_554 S
Eu1106 O1099 2.370 . S
Eu1106 O1104 2.370 . S
Eu1106 O1108 2.370 1_554 S
Eu1106 O1109 2.370 1_554 S
Eu1106 O1120 2.363 . S
Eu1106 O1121 2.363 . S
Eu1106 O1128 2.363 . S
Eu1106 O1129 2.362 1_554 S
O1107 Eu1101 2.370 1_556 S
O1107 Eu1105 2.370 1_556 S
O1107 Eu1111 2.370 . S
O1108 Eu1101 2.370 1_556 S
O1108 Eu1106 2.370 1_556 S
O1108 Eu1111 2.370 . S
O1109 Eu1102 2.370 1_556 S
O1109 Eu1106 2.370 1_556 S
O1109 Eu1111 2.370 . S
O1110 Eu1102 2.370 1_556 S
O1110 Eu1105 2.370 1_556 S
O1110 Eu1111 2.370 . S
Eu1111 O1107 2.370 . S
Eu1111 O1108 2.370 . S
Eu1111 O1109 2.370 . S
Eu1111 O1110 2.370 . S
Eu1111 O1114 2.363 . S
Eu1111 O1115 2.363 . S
Eu1111 O1124 2.363 . S
Eu1111 O1125 2.363 . S
O1112 C1086 1.283 . S
O1112 Eu1098 2.363 . S
O1113 C1087 1.283 . S
O1113 Eu1098 2.363 . S
O1114 C1088 1.283 . S
O1114 Eu1111 2.363 . S
O1115 C1089 1.283 . S
O1115 Eu1111 2.363 . S
O1116 C1090 1.283 . S
O1116 Eu1101 2.363 1_556 S
O1117 C1091 1.283 . S
O1117 Eu1101 2.363 . S
O1118 C1092 1.283 . S
O1118 Eu1102 2.363 1_556 S
O1119 C1093 1.283 . S
O1119 Eu1102 2.363 . S
O1120 C1094 1.283 . S
O1120 Eu1106 2.363 . S
O1121 C1095 1.283 . S
O1121 Eu1106 2.363 . S
O1122 C1096 1.283 . S
O1122 Eu1105 2.363 . S
O1123 C1097 1.283 . S
O1123 Eu1105 2.363 . S
O1124 C1092 1.283 . S
O1124 Eu1111 2.363 . S
O1125 C1090 1.283 . S
O1125 Eu1111 2.363 . S
O1126 C1093 1.283 . S
O1126 Eu1098 2.363 . S
O1127 C1091 1.283 . S
O1127 Eu1098 2.363 . S
O1128 C1087 1.283 . S
O1128 Eu1106 2.363 . S
O1129 C1089 1.283 . S
O1129 Eu1106 2.362 1_556 S
O1130 C1086 1.283 . S
O1130 Eu1105 2.362 . S
O1131 C1088 1.283 . S
O1131 Eu1105 2.363 1_556 S
O1132 C1097 1.283 . S
O1132 Eu1101 2.363 . S
O1133 C1095 1.283 . S
O1133 Eu1101 2.363 . S
O1134 C1096 1.283 . S
O1134 Eu1102 2.363 . S
O1135 C1094 1.283 . S
O1135 Eu1102 2.363 . S
C1136 O1162 1.283 . S
C1136 O1180 1.283 . S
C1137 O1163 1.283 . S
C1137 O1178 1.283 . S
C1138 O1164 1.283 . S
C1138 O1181 1.283 . S
C1139 O1165 1.283 . S
C1139 O1179 1.283 . S
C1140 O1166 1.283 . S
C1140 O1175 1.283 . S
C1141 O1167 1.283 . S
C1141 O1177 1.283 . S
C1142 O1168 1.283 . S
C1142 O1174 1.283 . S
C1143 O1169 1.283 . S
C1143 O1176 1.283 . S
C1144 O1170 1.283 . S
C1144 O1185 1.283 . S
C1145 O1171 1.283 . S
C1145 O1183 1.283 . S
C1146 O1172 1.283 . S
C1146 O1184 1.283 . S
C1147 O1173 1.283 . S
C1147 O1182 1.283 . S
Eu1148 O1149 2.370 1_455 S
Eu1148 O1150 2.370 . S
Eu1148 O1153 2.370 1_455 S
Eu1148 O1154 2.370 . S
Eu1148 O1162 2.363 . S
Eu1148 O1163 2.363 . S
Eu1148 O1176 2.363 . S
Eu1148 O1177 2.363 1_455 S
O1149 Eu1148 2.370 1_655 S
O1149 Eu1151 2.370 . S
O1149 Eu1156 2.370 1_655 S
O1150 Eu1148 2.370 . S
O1150 Eu1152 2.370 . S
O1150 Eu1155 2.370 . S
Eu1151 O1149 2.370 . S
Eu1151 O1153 2.370 . S
Eu1151 O1157 2.370 . S
Eu1151 O1158 2.370 . S
Eu1151 O1166 2.363 . S
Eu1151 O1167 2.363 . S
Eu1151 O1182 2.363 . S
Eu1151 O1183 2.363 . S
Eu1152 O1150 2.370 . S
Eu1152 O1154 2.370 . S
Eu1152 O1159 2.370 . S
Eu1152 O1160 2.370 . S
Eu1152 O1168 2.363 . S
Eu1152 O1169 2.363 . S
Eu1152 O1184 2.363 . S
Eu1152 O1185 2.363 . S
O1153 Eu1148 2.370 1_655 S
O1153 Eu1151 2.370 . S
O1153 Eu1155 2.370 1_655 S
O1154 Eu1148 2.370 . S
O1154 Eu1152 2.370 . S
O1154 Eu1156 2.370 . S
Eu1155 O1150 2.370 . S
Eu1155 O1153 2.370 1_455 S
Eu1155 O1157 2.370 1_455 S
Eu1155 O1160 2.370 . S
Eu1155 O1172 2.363 . S
Eu1155 O1173 2.363 1_455 S
Eu1155 O1180 2.363 . S
Eu1155 O1181 2.363 . S
Eu1156 O1149 2.370 1_455 S
Eu1156 O1154 2.370 . S
Eu1156 O1158 2.370 1_455 S
Eu1156 O1159 2.370 . S
Eu1156 O1170 2.363 . S
Eu1156 O1171 2.363 1_455 S
Eu1156 O1178 2.363 . S
Eu1156 O1179 2.363 . S
O1157 Eu1151 2.370 . S
O1157 Eu1155 2.370 1_655 S
O1157 Eu1161 2.370 1_655 S
O1158 Eu1151 2.370 . S
O1158 Eu1156 2.370 1_655 S
O1158 Eu1161 2.370 1_655 S
O1159 Eu1152 2.370 . S
O1159 Eu1156 2.370 . S
O1159 Eu1161 2.370 . S
O1160 Eu1152 2.370 . S
O1160 Eu1155 2.370 . S
O1160 Eu1161 2.370 . S
Eu1161 O1157 2.370 1_455 S
Eu1161 O1158 2.370 1_455 S
Eu1161 O1159 2.370 . S
Eu1161 O1160 2.370 . S
Eu1161 O1164 2.363 . S
Eu1161 O1165 2.363 . S
Eu1161 O1174 2.363 . S
Eu1161 O1175 2.363 1_455 S
O1162 C1136 1.283 . S
O1162 Eu1148 2.363 . S
O1163 C1137 1.283 . S
O1163 Eu1148 2.363 . S
O1164 C1138 1.283 . S
O1164 Eu1161 2.363 . S
O1165 C1139 1.283 . S
O1165 Eu1161 2.363 . S
O1166 C1140 1.283 . S
O1166 Eu1151 2.363 . S
O1167 C1141 1.283 . S
O1167 Eu1151 2.363 . S
O1168 C1142 1.283 . S
O1168 Eu1152 2.363 . S
O1169 C1143 1.283 . S
O1169 Eu1152 2.363 . S
O1170 C1144 1.283 . S
O1170 Eu1156 2.363 . S
O1171 C1145 1.283 . S
O1171 Eu1156 2.363 1_655 S
O1172 C1146 1.283 . S
O1172 Eu1155 2.363 . S
O1173 C1147 1.283 . S
O1173 Eu1155 2.363 1_655 S
O1174 C1142 1.283 . S
O1174 Eu1161 2.363 . S
O1175 C1140 1.283 . S
O1175 Eu1161 2.363 1_655 S
O1176 C1143 1.283 . S
O1176 Eu1148 2.363 . S
O1177 C1141 1.283 . S
O1177 Eu1148 2.363 1_655 S
O1178 C1137 1.283 . S
O1178 Eu1156 2.363 . S
O1179 C1139 1.283 . S
O1179 Eu1156 2.363 . S
O1180 C1136 1.283 . S
O1180 Eu1155 2.363 . S
O1181 C1138 1.283 . S
O1181 Eu1155 2.363 . S
O1182 C1147 1.283 . S
O1182 Eu1151 2.363 . S
O1183 C1145 1.283 . S
O1183 Eu1151 2.363 . S
O1184 C1146 1.283 . S
O1184 Eu1152 2.363 . S
O1185 C1144 1.283 . S
O1185 Eu1152 2.363 . S
C1186 O1212 1.283 . S
C1186 O1230 1.283 . S
C1187 O1213 1.283 . S
C1187 O1228 1.283 . S
C1188 O1214 1.283 . S
C1188 O1231 1.283 . S
C1189 O1215 1.283 . S
C1189 O1229 1.283 . S
C1190 O1216 1.283 . S
C1190 O1225 1.283 . S
C1191 O1217 1.283 . S
C1191 O1227 1.283 . S
C1192 O1218 1.283 . S
C1192 O1224 1.283 . S
C1193 O1219 1.283 . S
C1193 O1226 1.283 . S
C1194 O1220 1.283 . S
C1194 O1235 1.283 . S
C1195 O1221 1.283 . S
C1195 O1233 1.283 . S
C1196 O1222 1.283 . S
C1196 O1234 1.283 . S
C1197 O1223 1.283 . S
C1197 O1232 1.283 . S
Eu1198 O1199 2.370 . S
Eu1198 O1200 2.370 . S
Eu1198 O1203 2.370 . S
Eu1198 O1204 2.370 . S
Eu1198 O1212 2.363 . S
Eu1198 O1213 2.363 . S
Eu1198 O1226 2.363 . S
Eu1198 O1227 2.363 . S
O1199 Eu1198 2.370 . S
O1199 Eu1201 2.370 1_565 S
O1199 Eu1206 2.370 1_565 S
O1200 Eu1198 2.370 . S
O1200 Eu1202 2.370 1_565 S
O1200 Eu1205 2.370 1_565 S
Eu1201 O1199 2.370 1_545 S
Eu1201 O1203 2.370 1_545 S
Eu1201 O1207 2.370 . S
Eu1201 O1208 2.370 . S
Eu1201 O1216 2.363 . S
Eu1201 O1217 2.363 1_545 S
Eu1201 O1232 2.363 . S
Eu1201 O1233 2.363 . S
Eu1202 O1200 2.370 1_545 S
Eu1202 O1204 2.370 1_545 S
Eu1202 O1209 2.370 . S
Eu1202 O1210 2.370 . S
Eu1202 O1218 2.363 . S
Eu1202 O1219 2.363 1_545 S
Eu1202 O1234 2.363 . S
Eu1202 O1235 2.363 . S
O1203 Eu1198 2.370 . S
O1203 Eu1201 2.370 1_565 S
O1203 Eu1205 2.370 1_565 S
O1204 Eu1198 2.370 . S
O1204 Eu1202 2.370 1_565 S
O1204 Eu1206 2.370 1_565 S
Eu1205 O1200 2.370 1_545 S
Eu1205 O1203 2.370 1_545 S
Eu1205 O1207 2.370 . S
Eu1205 O1210 2.370 . S
Eu1205 O1222 2.363 . S
Eu1205 O1223 2.363 . S
Eu1205 O1230 2.363 1_545 S
Eu1205 O1231 2.362 . S
Eu1206 O1199 2.370 1_545 S
Eu1206 O1204 2.370 1_545 S
Eu1206 O1208 2.370 . S
Eu1206 O1209 2.370 . S
Eu1206 O1220 2.363 . S
Eu1206 O1221 2.363 . S
Eu1206 O1228 2.362 1_545 S
Eu1206 O1229 2.363 . S
O1207 Eu1201 2.370 . S
O1207 Eu1205 2.370 . S
O1207 Eu1211 2.370 . S
O1208 Eu1201 2.370 . S
O1208 Eu1206 2.370 . S
O1208 Eu1211 2.370 . S
O1209 Eu1202 2.370 . S
O1209 Eu1206 2.370 . S
O1209 Eu1211 2.370 . S
O1210 Eu1202 2.370 . S
O1210 Eu1205 2.370 . S
O1210 Eu1211 2.370 . S
Eu1211 O1207 2.370 . S
Eu1211 O1208 2.370 . S
Eu1211 O1209 2.370 . S
Eu1211 O1210 2.370 . S
Eu1211 O1214 2.363 . S
Eu1211 O1215 2.363 . S
Eu1211 O1224 2.363 . S
Eu1211 O1225 2.363 . S
O1212 C1186 1.283 . S
O1212 Eu1198 2.363 . S
O1213 C1187 1.283 . S
O1213 Eu1198 2.363 . S
O1214 C1188 1.283 . S
O1214 Eu1211 2.363 . S
O1215 C1189 1.283 . S
O1215 Eu1211 2.363 . S
O1216 C1190 1.283 . S
O1216 Eu1201 2.363 . S
O1217 C1191 1.283 . S
O1217 Eu1201 2.363 1_565 S
O1218 C1192 1.283 . S
O1218 Eu1202 2.363 . S
O1219 C1193 1.283 . S
O1219 Eu1202 2.363 1_565 S
O1220 C1194 1.283 . S
O1220 Eu1206 2.363 . S
O1221 C1195 1.283 . S
O1221 Eu1206 2.363 . S
O1222 C1196 1.283 . S
O1222 Eu1205 2.363 . S
O1223 C1197 1.283 . S
O1223 Eu1205 2.363 . S
O1224 C1192 1.283 . S
O1224 Eu1211 2.363 . S
O1225 C1190 1.283 . S
O1225 Eu1211 2.363 . S
O1226 C1193 1.283 . S
O1226 Eu1198 2.363 . S
O1227 C1191 1.283 . S
O1227 Eu1198 2.363 . S
O1228 C1187 1.283 . S
O1228 Eu1206 2.362 1_565 S
O1229 C1189 1.283 . S
O1229 Eu1206 2.363 . S
O1230 C1186 1.283 . S
O1230 Eu1205 2.363 1_565 S
O1231 C1188 1.283 . S
O1231 Eu1205 2.362 . S
O1232 C1197 1.283 . S
O1232 Eu1201 2.363 . S
O1233 C1195 1.283 . S
O1233 Eu1201 2.363 . S
O1234 C1196 1.283 . S
O1234 Eu1202 2.363 . S
O1235 C1194 1.283 . S
O1235 Eu1202 2.363 . S
C1236 C1237 1.387 . S
C1236 H1240 0.950 . S
C1236 C1245 1.390 . S
C1237 C1236 1.387 . S
C1237 C1239 1.387 . S
H1238 C1245 0.950 . S
C1239 C1237 1.387 . S
C1239 C1241 1.390 . S
C1239 H1243 0.950 . S
H1240 C1236 0.950 . S
C1241 C1239 1.390 . S
C1241 C1242 1.387 . S
C1241 H1244 0.950 . S
C1242 C1241 1.387 . S
C1242 C1245 1.387 . S
H1243 C1239 0.950 . S
H1244 C1241 0.950 . S
C1245 C1236 1.390 . S
C1245 H1238 0.950 . S
C1245 C1242 1.387 . S
C1246 C1247 1.387 . S
C1246 H1250 0.950 . S
C1246 C1255 1.390 . S
C1247 C1246 1.387 . S
C1247 C1249 1.387 . S
H1248 C1255 0.950 . S
C1249 C1247 1.387 . S
C1249 C1251 1.390 . S
C1249 H1253 0.950 . S
H1250 C1246 0.950 . S
C1251 C1249 1.390 . S
C1251 C1252 1.387 . S
C1251 H1254 0.950 . S
C1252 C1251 1.387 . S
C1252 C1255 1.387 . S
H1253 C1249 0.950 . S
H1254 C1251 0.950 . S
C1255 C1246 1.390 . S
C1255 H1248 0.950 . S
C1255 C1252 1.387 . S
C1256 C1257 1.387 . S
C1256 H1260 0.950 . S
C1256 C1265 1.390 . S
C1257 C1256 1.387 . S
C1257 C1259 1.387 . S
H1258 C1265 0.950 . S
C1259 C1257 1.387 . S
C1259 C1261 1.390 . S
C1259 H1263 0.950 . S
H1260 C1256 0.950 . S
C1261 C1259 1.390 . S
C1261 C1262 1.387 . S
C1261 H1264 0.950 . S
C1262 C1261 1.387 . S
C1262 C1265 1.387 . S
H1263 C1259 0.950 . S
H1264 C1261 0.950 . S
C1265 C1256 1.390 . S
C1265 H1258 0.950 . S
C1265 C1262 1.387 . S
C1266 C1267 1.387 . S
C1266 H1270 0.950 . S
C1266 C1275 1.390 . S
C1267 C1266 1.387 . S
C1267 C1269 1.387 . S
H1268 C1275 0.950 . S
C1269 C1267 1.387 . S
C1269 C1271 1.390 . S
C1269 H1273 0.950 . S
H1270 C1266 0.950 . S
C1271 C1269 1.390 . S
C1271 C1272 1.387 . S
C1271 H1274 0.950 . S
C1272 C1271 1.387 . S
C1272 C1275 1.387 . S
H1273 C1269 0.950 . S
H1274 C1271 0.950 . S
C1275 C1266 1.390 . S
C1275 H1268 0.950 . S
C1275 C1272 1.387 . S
C1276 C1277 1.387 . S
C1276 H1280 0.950 . S
C1276 C1285 1.390 . S
C1277 C1276 1.387 . S
C1277 C1279 1.387 . S
H1278 C1285 0.950 . S
C1279 C1277 1.387 . S
C1279 C1281 1.390 . S
C1279 H1283 0.950 . S
H1280 C1276 0.950 . S
C1281 C1279 1.390 . S
C1281 C1282 1.387 . S
C1281 H1284 0.950 . S
C1282 C1281 1.387 . S
C1282 C1285 1.387 . S
H1283 C1279 0.950 . S
H1284 C1281 0.950 . S
C1285 C1276 1.390 . S
C1285 H1278 0.950 . S
C1285 C1282 1.387 . S
C1286 C1287 1.387 . S
C1286 H1290 0.950 . S
C1286 C1295 1.390 . S
C1287 C1286 1.387 . S
C1287 C1289 1.387 . S
H1288 C1295 0.950 . S
C1289 C1287 1.387 . S
C1289 C1291 1.390 . S
C1289 H1293 0.950 . S
H1290 C1286 0.950 . S
C1291 C1289 1.390 . S
C1291 C1292 1.387 . S
C1291 H1294 0.950 . S
C1292 C1291 1.387 . S
C1292 C1295 1.387 . S
H1293 C1289 0.950 . S
H1294 C1291 0.950 . S
C1295 C1286 1.390 . S
C1295 H1288 0.950 . S
C1295 C1292 1.387 . S
C1296 C1297 1.387 . S
C1296 H1300 0.950 . S
C1296 C1305 1.390 . S
C1297 C1296 1.387 . S
C1297 C1299 1.387 . S
H1298 C1305 0.950 . S
C1299 C1297 1.387 . S
C1299 C1301 1.390 . S
C1299 H1303 0.950 . S
H1300 C1296 0.950 . S
C1301 C1299 1.390 . S
C1301 C1302 1.387 . S
C1301 H1304 0.950 . S
C1302 C1301 1.387 . S
C1302 C1305 1.387 . S
H1303 C1299 0.950 . S
H1304 C1301 0.950 . S
C1305 C1296 1.390 . S
C1305 H1298 0.950 . S
C1305 C1302 1.387 . S
C1306 C1307 1.387 . S
C1306 H1310 0.950 . S
C1306 C1315 1.390 . S
C1307 C1306 1.387 . S
C1307 C1309 1.387 . S
H1308 C1315 0.950 . S
C1309 C1307 1.387 . S
C1309 C1311 1.390 . S
C1309 H1313 0.950 . S
H1310 C1306 0.950 . S
C1311 C1309 1.390 . S
C1311 C1312 1.387 . S
C1311 H1314 0.950 . S
C1312 C1311 1.387 . S
C1312 C1315 1.387 . S
H1313 C1309 0.950 . S
H1314 C1311 0.950 . S
C1315 C1306 1.390 . S
C1315 H1308 0.950 . S
C1315 C1312 1.387 . S
C1316 C1317 1.387 . S
C1316 H1320 0.950 . S
C1316 C1325 1.390 . S
C1317 C1316 1.387 . S
C1317 C1319 1.387 . S
H1318 C1325 0.950 . S
C1319 C1317 1.387 . S
C1319 C1321 1.390 . S
C1319 H1323 0.950 . S
H1320 C1316 0.950 . S
C1321 C1319 1.390 . S
C1321 C1322 1.387 . S
C1321 H1324 0.950 . S
C1322 C1321 1.387 . S
C1322 C1325 1.387 . S
H1323 C1319 0.950 . S
H1324 C1321 0.950 . S
C1325 C1316 1.390 . S
C1325 H1318 0.950 . S
C1325 C1322 1.387 . S
C1326 C1327 1.387 . S
C1326 H1330 0.950 . S
C1326 C1335 1.390 . S
C1327 C1326 1.387 . S
C1327 C1329 1.387 . S
H1328 C1335 0.950 . S
C1329 C1327 1.387 . S
C1329 C1331 1.390 . S
C1329 H1333 0.950 . S
H1330 C1326 0.950 . S
C1331 C1329 1.390 . S
C1331 C1332 1.387 . S
C1331 H1334 0.950 . S
C1332 C1331 1.387 . S
C1332 C1335 1.387 . S
H1333 C1329 0.950 . S
H1334 C1331 0.950 . S
C1335 C1326 1.390 . S
C1335 H1328 0.950 . S
C1335 C1332 1.387 . S
C1336 C1337 1.387 . S
C1336 H1340 0.950 . S
C1336 C1345 1.390 . S
C1337 C1336 1.387 . S
C1337 C1339 1.387 . S
H1338 C1345 0.950 . S
C1339 C1337 1.387 . S
C1339 C1341 1.390 . S
C1339 H1343 0.950 . S
H1340 C1336 0.950 . S
C1341 C1339 1.390 . S
C1341 C1342 1.387 . S
C1341 H1344 0.950 . S
C1342 C1341 1.387 . S
C1342 C1345 1.387 . S
H1343 C1339 0.950 . S
H1344 C1341 0.950 . S
C1345 C1336 1.390 . S
C1345 H1338 0.950 . S
C1345 C1342 1.387 . S
C1346 C1347 1.387 . S
C1346 H1350 0.950 . S
C1346 C1355 1.390 . S
C1347 C1346 1.387 . S
C1347 C1349 1.387 . S
H1348 C1355 0.950 . S
C1349 C1347 1.387 . S
C1349 C1351 1.390 . S
C1349 H1353 0.950 . S
H1350 C1346 0.950 . S
C1351 C1349 1.390 . S
C1351 C1352 1.387 . S
C1351 H1354 0.950 . S
C1352 C1351 1.387 . S
C1352 C1355 1.387 . S
H1353 C1349 0.950 . S
H1354 C1351 0.950 . S
C1355 C1346 1.390 . S
C1355 H1348 0.950 . S
C1355 C1352 1.387 . S
C1356 C1357 1.384 1_556 S
C1356 H1360 0.950 . S
C1356 C1365 1.390 . S
C1357 C1356 1.384 1_554 S
C1357 C1359 1.391 . S
H1358 C1365 0.950 . S
C1359 C1357 1.391 . S
C1359 C1361 1.390 . S
C1359 H1363 0.950 . S
H1360 C1356 0.950 . S
C1361 C1359 1.390 . S
C1361 C1362 1.389 . S
C1361 H1364 0.950 . S
C1362 C1361 1.389 . S
C1362 C1365 1.386 1_554 S
H1363 C1359 0.950 . S
H1364 C1361 0.950 . S
C1365 C1356 1.390 . S
C1365 H1358 0.950 . S
C1365 C1362 1.386 1_556 S
C1366 C1367 1.390 . S
C1366 H1370 0.950 . S
C1366 C1375 1.390 . S
C1367 C1366 1.390 . S
C1367 C1369 1.385 1_554 S
H1368 C1375 0.950 . S
C1369 C1367 1.385 1_556 S
C1369 C1371 1.390 . S
C1369 H1373 0.950 . S
H1370 C1366 0.950 . S
C1371 C1369 1.390 . S
C1371 C1372 1.387 1_556 S
C1371 H1374 0.950 . S
C1372 C1371 1.387 1_554 S
C1372 C1375 1.388 . S
H1373 C1369 0.950 . S
H1374 C1371 0.950 . S
C1375 C1366 1.390 . S
C1375 H1368 0.950 . S
C1375 C1372 1.388 . S
C1376 C1377 1.387 1_556 S
C1376 H1380 0.950 . S
C1376 C1385 1.390 . S
C1377 C1376 1.387 1_554 S
C1377 C1379 1.388 . S
H1378 C1385 0.950 . S
C1379 C1377 1.388 . S
C1379 C1381 1.390 . S
C1379 H1383 0.950 . S
H1380 C1376 0.950 . S
C1381 C1379 1.390 . S
C1381 C1382 1.390 . S
C1381 H1384 0.950 . S
C1382 C1381 1.390 . S
C1382 C1385 1.385 1_554 S
H1383 C1379 0.950 . S
H1384 C1381 0.950 . S
C1385 C1376 1.390 . S
C1385 H1378 0.950 . S
C1385 C1382 1.385 1_556 S
C1386 C1387 1.390 1_556 S
C1386 H1390 0.950 . S
C1386 C1395 1.390 . S
C1387 C1386 1.390 1_554 S
C1387 C1389 1.385 . S
H1388 C1395 0.950 . S
C1389 C1387 1.385 . S
C1389 C1391 1.390 . S
C1389 H1393 0.950 . S
H1390 C1386 0.950 . S
C1391 C1389 1.390 . S
C1391 C1392 1.387 . S
C1391 H1394 0.950 . S
C1392 C1391 1.387 . S
C1392 C1395 1.388 1_554 S
H1393 C1389 0.950 . S
H1394 C1391 0.950 . S
C1395 C1386 1.390 . S
C1395 H1388 0.950 . S
C1395 C1392 1.388 1_556 S
C1396 C1397 1.387 1_655 S
C1396 H1400 0.950 . S
C1396 C1405 1.390 . S
C1397 C1396 1.387 1_455 S
C1397 C1399 1.387 . S
H1398 C1405 0.950 . S
C1399 C1397 1.387 . S
C1399 C1401 1.390 . S
C1399 H1403 0.950 . S
H1400 C1396 0.950 . S
C1401 C1399 1.390 . S
C1401 C1402 1.387 . S
C1401 H1404 0.950 . S
C1402 C1401 1.387 . S
C1402 C1405 1.387 1_455 S
H1403 C1399 0.950 . S
H1404 C1401 0.950 . S
C1405 C1396 1.390 . S
C1405 H1398 0.950 . S
C1405 C1402 1.387 1_655 S
C1406 C1407 1.388 . S
C1406 H1410 0.950 . S
C1406 C1415 1.390 . S
C1407 C1406 1.388 . S
C1407 C1409 1.387 1_545 S
H1408 C1415 0.950 . S
C1409 C1407 1.387 1_565 S
C1409 C1411 1.390 . S
C1409 H1413 0.950 . S
H1410 C1406 0.950 . S
C1411 C1409 1.390 . S
C1411 C1412 1.385 1_565 S
C1411 H1414 0.950 . S
C1412 C1411 1.385 1_545 S
C1412 C1415 1.390 . S
H1413 C1409 0.950 . S
H1414 C1411 0.950 . S
C1415 C1406 1.390 . S
C1415 H1408 0.950 . S
C1415 C1412 1.390 . S
C1416 C1417 1.387 . S
C1416 H1420 0.950 . S
C1416 C1425 1.390 . S
C1417 C1416 1.387 . S
C1417 C1419 1.387 1_455 S
H1418 C1425 0.950 . S
C1419 C1417 1.387 1_655 S
C1419 C1421 1.390 . S
C1419 H1423 0.950 . S
H1420 C1416 0.950 . S
C1421 C1419 1.390 . S
C1421 C1422 1.387 1_655 S
C1421 H1424 0.950 . S
C1422 C1421 1.387 1_455 S
C1422 C1425 1.387 . S
H1423 C1419 0.950 . S
H1424 C1421 0.950 . S
C1425 C1416 1.390 . S
C1425 H1418 0.950 . S
C1425 C1422 1.387 . S
C1426 C1427 1.388 . S
C1426 H1430 0.950 . S
C1426 C1435 1.390 . S
C1427 C1426 1.388 . S
C1427 C1429 1.387 1_545 S
H1428 C1435 0.950 . S
C1429 C1427 1.387 1_565 S
C1429 C1431 1.390 . S
C1429 H1433 0.950 . S
H1430 C1426 0.950 . S
C1431 C1429 1.390 . S
C1431 C1432 1.385 1_565 S
C1431 H1434 0.950 . S
C1432 C1431 1.385 1_545 S
C1432 C1435 1.390 . S
H1433 C1429 0.950 . S
H1434 C1431 0.950 . S
C1435 C1426 1.390 . S
C1435 H1428 0.950 . S
C1435 C1432 1.390 . S
C1436 C1437 1.387 . S
C1436 H1440 0.950 . S
C1436 C1445 1.390 . S
C1437 C1436 1.387 . S
C1437 C1439 1.387 1_455 S
H1438 C1445 0.950 . S
C1439 C1437 1.387 1_655 S
C1439 C1441 1.390 . S
C1439 H1443 0.950 . S
H1440 C1436 0.950 . S
C1441 C1439 1.390 . S
C1441 C1442 1.387 1_655 S
C1441 H1444 0.950 . S
C1442 C1441 1.387 1_455 S
C1442 C1445 1.387 . S
H1443 C1439 0.950 . S
H1444 C1441 0.950 . S
C1445 C1436 1.390 . S
C1445 H1438 0.950 . S
C1445 C1442 1.387 . S
C1446 C1447 1.391 . S
C1446 H1450 0.950 . S
C1446 C1455 1.390 . S
C1447 C1446 1.391 . S
C1447 C1449 1.384 1_545 S
H1448 C1455 0.950 . S
C1449 C1447 1.384 1_565 S
C1449 C1451 1.390 . S
C1449 H1453 0.950 . S
H1450 C1446 0.950 . S
C1451 C1449 1.390 . S
C1451 C1452 1.386 1_565 S
C1451 H1454 0.950 . S
C1452 C1451 1.386 1_545 S
C1452 C1455 1.388 . S
H1453 C1449 0.950 . S
H1454 C1451 0.950 . S
C1455 C1446 1.390 . S
C1455 H1448 0.950 . S
C1455 C1452 1.388 . S
C1456 C1457 1.387 . S
C1456 H1460 0.950 . S
C1456 C1465 1.390 . S
C1457 C1456 1.387 . S
C1457 C1459 1.387 1_455 S
H1458 C1465 0.950 . S
C1459 C1457 1.387 1_655 S
C1459 C1461 1.390 . S
C1459 H1463 0.950 . S
H1460 C1456 0.950 . S
C1461 C1459 1.390 . S
C1461 C1462 1.387 1_655 S
C1461 H1464 0.950 . S
C1462 C1461 1.387 1_455 S
C1462 C1465 1.387 . S
H1463 C1459 0.950 . S
H1464 C1461 0.950 . S
C1465 C1456 1.390 . S
C1465 H1458 0.950 . S
C1465 C1462 1.387 . S
C1466 C1467 1.391 . S
C1466 H1470 0.950 . S
C1466 C1475 1.390 . S
C1467 C1466 1.391 . S
C1467 C1469 1.384 1_545 S
H1468 C1475 0.950 . S
C1469 C1467 1.384 1_565 S
C1469 C1471 1.390 . S
C1469 H1473 0.950 . S
H1470 C1466 0.950 . S
C1471 C1469 1.390 . S
C1471 C1472 1.386 1_565 S
C1471 H1474 0.950 . S
C1472 C1471 1.386 1_545 S
C1472 C1475 1.388 . S
H1473 C1469 0.950 . S
H1474 C1471 0.950 . S
C1475 C1466 1.390 . S
C1475 H1468 0.950 . S
C1475 C1472 1.388 . S
C1476 C1477 1.387 1_655 S
C1476 H1480 0.950 . S
C1476 C1485 1.390 . S
C1477 C1476 1.387 1_455 S
C1477 C1479 1.387 . S
H1478 C1485 0.950 . S
C1479 C1477 1.387 . S
C1479 C1481 1.390 . S
C1479 H1483 0.950 . S
H1480 C1476 0.950 . S
C1481 C1479 1.390 . S
C1481 C1482 1.387 . S
C1481 H1484 0.950 . S
C1482 C1481 1.387 . S
C1482 C1485 1.387 1_455 S
H1483 C1479 0.950 . S
H1484 C1481 0.950 . S
C1485 C1476 1.390 . S
C1485 H1478 0.950 . S
C1485 C1482 1.387 1_655 S
C1486 C1487 1.389 . S
C1486 H1490 0.950 . S
C1486 C1495 1.390 . S
C1487 C1486 1.389 . S
C1487 C1489 1.386 1_545 S
H1488 C1495 0.950 . S
C1489 C1487 1.386 1_565 S
C1489 C1491 1.390 . S
C1489 H1493 0.950 . S
H1490 C1486 0.950 . S
C1491 C1489 1.390 . S
C1491 C1492 1.387 1_565 S
C1491 H1494 0.950 . S
C1492 C1491 1.387 1_545 S
C1492 C1495 1.388 . S
H1493 C1489 0.950 . S
H1494 C1491 0.950 . S
C1495 C1486 1.390 . S
C1495 H1488 0.950 . S
C1495 C1492 1.388 . S
C1496 C1497 1.387 1_655 S
C1496 H1500 0.950 . S
C1496 C1505 1.390 . S
C1497 C1496 1.387 1_455 S
C1497 C1499 1.387 . S
H1498 C1505 0.950 . S
C1499 C1497 1.387 . S
C1499 C1501 1.390 . S
C1499 H1503 0.950 . S
H1500 C1496 0.950 . S
C1501 C1499 1.390 . S
C1501 C1502 1.387 . S
C1501 H1504 0.950 . S
C1502 C1501 1.387 . S
C1502 C1505 1.387 1_455 S
H1503 C1499 0.950 . S
H1504 C1501 0.950 . S
C1505 C1496 1.390 . S
C1505 H1498 0.950 . S
C1505 C1502 1.387 1_655 S
C1506 C1507 1.390 . S
C1506 H1510 0.950 . S
C1506 C1515 1.390 . S
C1507 C1506 1.390 . S
C1507 C1509 1.385 1_545 S
H1508 C1515 0.950 . S
C1509 C1507 1.385 1_565 S
C1509 C1511 1.390 . S
C1509 H1513 0.950 . S
H1510 C1506 0.950 . S
C1511 C1509 1.390 . S
C1511 C1512 1.387 1_565 S
C1511 H1514 0.950 . S
C1512 C1511 1.387 1_545 S
C1512 C1515 1.388 . S
H1513 C1509 0.950 . S
H1514 C1511 0.950 . S
C1515 C1506 1.390 . S
C1515 H1508 0.950 . S
C1515 C1512 1.388 . S
C1516 C1517 1.387 1_655 S
C1516 H1520 0.950 . S
C1516 C1525 1.390 . S
C1517 C1516 1.387 1_455 S
C1517 C1519 1.387 . S
H1518 C1525 0.950 . S
C1519 C1517 1.387 . S
C1519 C1521 1.390 . S
C1519 H1523 0.950 . S
H1520 C1516 0.950 . S
C1521 C1519 1.390 . S
C1521 C1522 1.387 . S
C1521 H1524 0.950 . S
C1522 C1521 1.387 . S
C1522 C1525 1.387 1_455 S
H1523 C1519 0.950 . S
H1524 C1521 0.950 . S
C1525 C1516 1.390 . S
C1525 H1518 0.950 . S
C1525 C1522 1.387 1_655 S
C1526 C1527 1.385 . S
C1526 H1530 0.950 . S
C1526 C1535 1.390 . S
C1527 C1526 1.385 . S
C1527 C1529 1.390 1_545 S
H1528 C1535 0.950 . S
C1529 C1527 1.390 1_565 S
C1529 C1531 1.390 . S
C1529 H1533 0.950 . S
H1530 C1526 0.950 . S
C1531 C1529 1.390 . S
C1531 C1532 1.389 1_565 S
C1531 H1534 0.950 . S
C1532 C1531 1.389 1_545 S
C1532 C1535 1.386 . S
H1533 C1529 0.950 . S
H1534 C1531 0.950 . S
C1535 C1526 1.390 . S
C1535 H1528 0.950 . S
C1535 C1532 1.386 . S
C1536 C1537 1.387 . S
C1536 H1540 0.950 . S
C1536 C1545 1.390 . S
C1537 C1536 1.387 . S
C1537 C1539 1.387 1_455 S
H1538 C1545 0.950 . S
C1539 C1537 1.387 1_655 S
C1539 C1541 1.390 . S
C1539 H1543 0.950 . S
H1540 C1536 0.950 . S
C1541 C1539 1.390 . S
C1541 C1542 1.387 1_655 S
C1541 H1544 0.950 . S
C1542 C1541 1.387 1_455 S
C1542 C1545 1.387 . S
H1543 C1539 0.950 . S
H1544 C1541 0.950 . S
C1545 C1536 1.390 . S
C1545 H1538 0.950 . S
C1545 C1542 1.387 . S
C1546 C1547 1.390 1_565 S
C1546 H1550 0.950 . S
C1546 C1555 1.390 . S
C1547 C1546 1.390 1_545 S
C1547 C1549 1.385 . S
H1548 C1555 0.950 . S
C1549 C1547 1.385 . S
C1549 C1551 1.390 . S
C1549 H1553 0.950 . S
H1550 C1546 0.950 . S
C1551 C1549 1.390 . S
C1551 C1552 1.386 . S
C1551 H1554 0.950 . S
C1552 C1551 1.386 . S
C1552 C1555 1.389 1_545 S
H1553 C1549 0.950 . S
H1554 C1551 0.950 . S
C1555 C1546 1.390 . S
C1555 H1548 0.950 . S
C1555 C1552 1.389 1_565 S
C1556 C1557 1.391 . S
C1556 H1560 0.950 . S
C1556 C1565 1.390 . S
C1557 C1556 1.391 . S
C1557 C1559 1.384 1_545 S
H1558 C1565 0.950 . S
C1559 C1557 1.384 1_565 S
C1559 C1561 1.390 . S
C1559 H1563 0.950 . S
H1560 C1556 0.950 . S
C1561 C1559 1.390 . S
C1561 C1562 1.384 1_565 S
C1561 H1564 0.950 . S
C1562 C1561 1.384 1_545 S
C1562 C1565 1.391 . S
H1563 C1559 0.950 . S
H1564 C1561 0.950 . S
C1565 C1556 1.390 . S
C1565 H1558 0.950 . S
C1565 C1562 1.391 . S
C1566 C1567 1.387 . S
C1566 H1570 0.950 . S
C1566 C1575 1.390 . S
C1567 C1566 1.387 . S
C1567 C1569 1.387 1_455 S
H1568 C1575 0.950 . S
C1569 C1567 1.387 1_655 S
C1569 C1571 1.390 . S
C1569 H1573 0.950 . S
H1570 C1566 0.950 . S
C1571 C1569 1.390 . S
C1571 C1572 1.387 1_655 S
C1571 H1574 0.950 . S
C1572 C1571 1.387 1_455 S
C1572 C1575 1.387 . S
H1573 C1569 0.950 . S
H1574 C1571 0.950 . S
C1575 C1566 1.390 . S
C1575 H1568 0.950 . S
C1575 C1572 1.387 . S
C1576 C1577 1.384 1_565 S
C1576 H1580 0.950 . S
C1576 C1585 1.390 . S
C1577 C1576 1.384 1_545 S
C1577 C1579 1.391 . S
H1578 C1585 0.950 . S
C1579 C1577 1.391 . S
C1579 C1581 1.390 . S
C1579 H1583 0.950 . S
H1580 C1576 0.950 . S
C1581 C1579 1.390 . S
C1581 C1582 1.391 . S
C1581 H1584 0.950 . S
C1582 C1581 1.391 . S
C1582 C1585 1.384 1_545 S
H1583 C1579 0.950 . S
H1584 C1581 0.950 . S
C1585 C1576 1.390 . S
C1585 H1578 0.950 . S
C1585 C1582 1.384 1_565 S
C1586 C1587 1.387 1_655 S
C1586 H1590 0.950 . S
C1586 C1595 1.390 . S
C1587 C1586 1.387 1_455 S
C1587 C1589 1.387 . S
H1588 C1595 0.950 . S
C1589 C1587 1.387 . S
C1589 C1591 1.390 . S
C1589 H1593 0.950 . S
H1590 C1586 0.950 . S
C1591 C1589 1.390 . S
C1591 C1592 1.387 . S
C1591 H1594 0.950 . S
C1592 C1591 1.387 . S
C1592 C1595 1.387 1_455 S
H1593 C1589 0.950 . S
H1594 C1591 0.950 . S
C1595 C1586 1.390 . S
C1595 H1588 0.950 . S
C1595 C1592 1.387 1_655 S
C1596 C1597 1.387 1_565 S
C1596 H1600 0.950 . S
C1596 C1605 1.390 . S
C1597 C1596 1.387 1_545 S
C1597 C1599 1.388 . S
H1598 C1605 0.950 . S
C1599 C1597 1.388 . S
C1599 C1601 1.390 . S
C1599 H1603 0.950 . S
H1600 C1596 0.950 . S
C1601 C1599 1.390 . S
C1601 C1602 1.388 . S
C1601 H1604 0.950 . S
C1602 C1601 1.388 . S
C1602 C1605 1.387 1_545 S
H1603 C1599 0.950 . S
H1604 C1601 0.950 . S
C1605 C1596 1.390 . S
C1605 H1598 0.950 . S
C1605 C1602 1.387 1_565 S
C1606 C1607 1.387 . S
C1606 H1610 0.950 . S
C1606 C1615 1.390 . S
C1607 C1606 1.387 . S
C1607 C1609 1.387 1_455 S
H1608 C1615 0.950 . S
C1609 C1607 1.387 1_655 S
C1609 C1611 1.390 . S
C1609 H1613 0.950 . S
H1610 C1606 0.950 . S
C1611 C1609 1.390 . S
C1611 C1612 1.387 1_655 S
C1611 H1614 0.950 . S
C1612 C1611 1.387 1_455 S
C1612 C1615 1.387 . S
H1613 C1609 0.950 . S
H1614 C1611 0.950 . S
C1615 C1606 1.390 . S
C1615 H1608 0.950 . S
C1615 C1612 1.387 . S
C1616 C1617 1.384 . S
C1616 H1620 0.950 . S
C1616 C1625 1.390 . S
C1617 C1616 1.384 . S
C1617 C1619 1.391 1_545 S
H1618 C1625 0.950 . S
C1619 C1617 1.391 1_565 S
C1619 C1621 1.390 . S
C1619 H1623 0.950 . S
H1620 C1616 0.950 . S
C1621 C1619 1.390 . S
C1621 C1622 1.391 1_565 S
C1621 H1624 0.950 . S
C1622 C1621 1.391 1_545 S
C1622 C1625 1.384 . S
H1623 C1619 0.950 . S
H1624 C1621 0.950 . S
C1625 C1616 1.390 . S
C1625 H1618 0.950 . S
C1625 C1622 1.384 . S
C1626 C1627 1.387 . S
C1626 H1630 0.950 . S
C1626 C1635 1.390 . S
C1627 C1626 1.387 . S
C1627 C1629 1.387 1_455 S
H1628 C1635 0.950 . S
C1629 C1627 1.387 1_655 S
C1629 C1631 1.390 . S
C1629 H1633 0.950 . S
H1630 C1626 0.950 . S
C1631 C1629 1.390 . S
C1631 C1632 1.387 1_655 S
C1631 H1634 0.950 . S
C1632 C1631 1.387 1_455 S
C1632 C1635 1.387 . S
H1633 C1629 0.950 . S
H1634 C1631 0.950 . S
C1635 C1626 1.390 . S
C1635 H1628 0.950 . S
C1635 C1632 1.387 . S
C1636 C1637 1.385 . S
C1636 H1640 0.950 . S
C1636 C1645 1.390 . S
C1637 C1636 1.385 . S
C1637 C1639 1.390 1_554 S
H1638 C1645 0.950 . S
C1639 C1637 1.390 1_556 S
C1639 C1641 1.390 . S
C1639 H1643 0.950 . S
H1640 C1636 0.950 . S
C1641 C1639 1.390 . S
C1641 C1642 1.389 1_556 S
C1641 H1644 0.950 . S
C1642 C1641 1.389 1_554 S
C1642 C1645 1.386 . S
H1643 C1639 0.950 . S
H1644 C1641 0.950 . S
C1645 C1636 1.390 . S
C1645 H1638 0.950 . S
C1645 C1642 1.386 . S
C1646 C1647 1.390 . S
C1646 H1650 0.950 . S
C1646 C1655 1.390 . S
C1647 C1646 1.390 . S
C1647 C1649 1.385 1_554 S
H1648 C1655 0.950 . S
C1649 C1647 1.385 1_556 S
C1649 C1651 1.390 . S
C1649 H1653 0.950 . S
H1650 C1646 0.950 . S
C1651 C1649 1.390 . S
C1651 C1652 1.387 1_556 S
C1651 H1654 0.950 . S
C1652 C1651 1.387 1_554 S
C1652 C1655 1.388 . S
H1653 C1649 0.950 . S
H1654 C1651 0.950 . S
C1655 C1646 1.390 . S
C1655 H1648 0.950 . S
C1655 C1652 1.388 . S
C1656 C1657 1.391 1_556 S
C1656 H1660 0.950 . S
C1656 C1665 1.390 . S
C1657 C1656 1.391 1_554 S
C1657 C1659 1.384 . S
H1658 C1665 0.950 . S
C1659 C1657 1.384 . S
C1659 C1661 1.390 . S
C1659 H1663 0.950 . S
H1660 C1656 0.950 . S
C1661 C1659 1.390 . S
C1661 C1662 1.384 . S
C1661 H1664 0.950 . S
C1662 C1661 1.384 . S
C1662 C1665 1.391 1_554 S
H1663 C1659 0.950 . S
H1664 C1661 0.950 . S
C1665 C1656 1.390 . S
C1665 H1658 0.950 . S
C1665 C1662 1.391 1_556 S
C1666 C1667 1.385 . S
C1666 H1670 0.950 . S
C1666 C1675 1.390 . S
C1667 C1666 1.385 . S
C1667 C1669 1.390 1_554 S
H1668 C1675 0.950 . S
C1669 C1667 1.390 1_556 S
C1669 C1671 1.390 . S
C1669 H1673 0.950 . S
H1670 C1666 0.950 . S
C1671 C1669 1.390 . S
C1671 C1672 1.389 1_556 S
C1671 H1674 0.950 . S
C1672 C1671 1.389 1_554 S
C1672 C1675 1.386 . S
H1673 C1669 0.950 . S
H1674 C1671 0.950 . S
C1675 C1666 1.390 . S
C1675 H1668 0.950 . S
C1675 C1672 1.386 . S
C1676 C1677 1.385 1_556 S
C1676 H1680 0.950 . S
C1676 C1685 1.390 . S
C1677 C1676 1.385 1_554 S
C1677 C1679 1.390 . S
H1678 C1685 0.950 . S
C1679 C1677 1.390 . S
C1679 C1681 1.390 . S
C1679 H1683 0.950 . S
H1680 C1676 0.950 . S
C1681 C1679 1.390 . S
C1681 C1682 1.390 . S
C1681 H1684 0.950 . S
C1682 C1681 1.390 . S
C1682 C1685 1.385 1_554 S
H1683 C1679 0.950 . S
H1684 C1681 0.950 . S
C1685 C1676 1.390 . S
C1685 H1678 0.950 . S
C1685 C1682 1.385 1_556 S
C1686 C1687 1.386 1_556 S
C1686 H1690 0.950 . S
C1686 C1695 1.390 . S
C1687 C1686 1.386 1_554 S
C1687 C1689 1.389 . S
H1688 C1695 0.950 . S
C1689 C1687 1.389 . S
C1689 C1691 1.390 . S
C1689 H1693 0.950 . S
H1690 C1686 0.950 . S
C1691 C1689 1.390 . S
C1691 C1692 1.388 . S
C1691 H1694 0.950 . S
C1692 C1691 1.388 . S
C1692 C1695 1.387 1_554 S
H1693 C1689 0.950 . S
H1694 C1691 0.950 . S
C1695 C1686 1.390 . S
C1695 H1688 0.950 . S
C1695 C1692 1.387 1_556 S
C1696 C1697 1.384 1_556 S
C1696 H1700 0.950 . S
C1696 C1705 1.390 . S
C1697 C1696 1.384 1_554 S
C1697 C1699 1.391 . S
H1698 C1705 0.950 . S
C1699 C1697 1.391 . S
C1699 C1701 1.390 . S
C1699 H1703 0.950 . S
H1700 C1696 0.950 . S
C1701 C1699 1.390 . S
C1701 C1702 1.391 . S
C1701 H1704 0.950 . S
C1702 C1701 1.391 . S
C1702 C1705 1.384 1_554 S
H1703 C1699 0.950 . S
H1704 C1701 0.950 . S
C1705 C1696 1.390 . S
C1705 H1698 0.950 . S
C1705 C1702 1.384 1_556 S
C1706 C1707 1.391 1_556 S
C1706 H1710 0.950 . S
C1706 C1715 1.390 . S
C1707 C1706 1.391 1_554 S
C1707 C1709 1.384 . S
H1708 C1715 0.950 . S
C1709 C1707 1.384 . S
C1709 C1711 1.390 . S
C1709 H1713 0.950 . S
H1710 C1706 0.950 . S
C1711 C1709 1.390 . S
C1711 C1712 1.384 . S
C1711 H1714 0.950 . S
C1712 C1711 1.384 . S
C1712 C1715 1.391 1_554 S
H1713 C1709 0.950 . S
H1714 C1711 0.950 . S
C1715 C1706 1.390 . S
C1715 H1708 0.950 . S
C1715 C1712 1.391 1_556 S
C1716 C1717 1.387 . S
C1716 H1720 0.950 . S
C1716 C1725 1.390 . S
C1717 C1716 1.387 . S
C1717 C1719 1.387 . S
H1718 C1725 0.950 . S
C1719 C1717 1.387 . S
C1719 C1721 1.390 . S
C1719 H1723 0.950 . S
H1720 C1716 0.950 . S
C1721 C1719 1.390 . S
C1721 C1722 1.387 . S
C1721 H1724 0.950 . S
C1722 C1721 1.387 . S
C1722 C1725 1.387 . S
H1723 C1719 0.950 . S
H1724 C1721 0.950 . S
C1725 C1716 1.390 . S
C1725 H1718 0.950 . S
C1725 C1722 1.387 . S
C1726 C1727 1.387 . S
C1726 H1730 0.950 . S
C1726 C1735 1.390 . S
C1727 C1726 1.387 . S
C1727 C1729 1.387 . S
H1728 C1735 0.950 . S
C1729 C1727 1.387 . S
C1729 C1731 1.390 . S
C1729 H1733 0.950 . S
H1730 C1726 0.950 . S
C1731 C1729 1.390 . S
C1731 C1732 1.387 . S
C1731 H1734 0.950 . S
C1732 C1731 1.387 . S
C1732 C1735 1.387 . S
H1733 C1729 0.950 . S
H1734 C1731 0.950 . S
C1735 C1726 1.390 . S
C1735 H1728 0.950 . S
C1735 C1732 1.387 . S
C1736 C1737 1.387 . S
C1736 H1740 0.950 . S
C1736 C1745 1.390 . S
C1737 C1736 1.387 . S
C1737 C1739 1.387 . S
H1738 C1745 0.950 . S
C1739 C1737 1.387 . S
C1739 C1741 1.390 . S
C1739 H1743 0.950 . S
H1740 C1736 0.950 . S
C1741 C1739 1.390 . S
C1741 C1742 1.387 . S
C1741 H1744 0.950 . S
C1742 C1741 1.387 . S
C1742 C1745 1.387 . S
H1743 C1739 0.950 . S
H1744 C1741 0.950 . S
C1745 C1736 1.390 . S
C1745 H1738 0.950 . S
C1745 C1742 1.387 . S
C1746 C1747 1.387 . S
C1746 H1750 0.950 . S
C1746 C1755 1.390 . S
C1747 C1746 1.387 . S
C1747 C1749 1.387 . S
H1748 C1755 0.950 . S
C1749 C1747 1.387 . S
C1749 C1751 1.390 . S
C1749 H1753 0.950 . S
H1750 C1746 0.950 . S
C1751 C1749 1.390 . S
C1751 C1752 1.387 . S
C1751 H1754 0.950 . S
C1752 C1751 1.387 . S
C1752 C1755 1.387 . S
H1753 C1749 0.950 . S
H1754 C1751 0.950 . S
C1755 C1746 1.390 . S
C1755 H1748 0.950 . S
C1755 C1752 1.387 . S
C1756 C1757 1.387 . S
C1756 H1760 0.950 . S
C1756 C1765 1.390 . S
C1757 C1756 1.387 . S
C1757 C1759 1.387 . S
H1758 C1765 0.950 . S
C1759 C1757 1.387 . S
C1759 C1761 1.390 . S
C1759 H1763 0.950 . S
H1760 C1756 0.950 . S
C1761 C1759 1.390 . S
C1761 C1762 1.387 . S
C1761 H1764 0.950 . S
C1762 C1761 1.387 . S
C1762 C1765 1.387 . S
H1763 C1759 0.950 . S
H1764 C1761 0.950 . S
C1765 C1756 1.390 . S
C1765 H1758 0.950 . S
C1765 C1762 1.387 . S
C1766 C1767 1.387 . S
C1766 H1770 0.950 . S
C1766 C1775 1.390 . S
C1767 C1766 1.387 . S
C1767 C1769 1.387 . S
H1768 C1775 0.950 . S
C1769 C1767 1.387 . S
C1769 C1771 1.390 . S
C1769 H1773 0.950 . S
H1770 C1766 0.950 . S
C1771 C1769 1.390 . S
C1771 C1772 1.387 . S
C1771 H1774 0.950 . S
C1772 C1771 1.387 . S
C1772 C1775 1.387 . S
H1773 C1769 0.950 . S
H1774 C1771 0.950 . S
C1775 C1766 1.390 . S
C1775 H1768 0.950 . S
C1775 C1772 1.387 . S
C1776 C1777 1.387 . S
C1776 H1780 0.950 . S
C1776 C1785 1.390 . S
C1777 C1776 1.387 . S
C1777 C1779 1.387 . S
H1778 C1785 0.950 . S
C1779 C1777 1.387 . S
C1779 C1781 1.390 . S
C1779 H1783 0.950 . S
H1780 C1776 0.950 . S
C1781 C1779 1.390 . S
C1781 C1782 1.387 . S
C1781 H1784 0.950 . S
C1782 C1781 1.387 . S
C1782 C1785 1.387 . S
H1783 C1779 0.950 . S
H1784 C1781 0.950 . S
C1785 C1776 1.390 . S
C1785 H1778 0.950 . S
C1785 C1782 1.387 . S
C1786 C1787 1.387 . S
C1786 H1790 0.950 . S
C1786 C1795 1.390 . S
C1787 C1786 1.387 . S
C1787 C1789 1.387 . S
H1788 C1795 0.950 . S
C1789 C1787 1.387 . S
C1789 C1791 1.390 . S
C1789 H1793 0.950 . S
H1790 C1786 0.950 . S
C1791 C1789 1.390 . S
C1791 C1792 1.387 . S
C1791 H1794 0.950 . S
C1792 C1791 1.387 . S
C1792 C1795 1.387 . S
H1793 C1789 0.950 . S
H1794 C1791 0.950 . S
C1795 C1786 1.390 . S
C1795 H1788 0.950 . S
C1795 C1792 1.387 . S
C1796 C1797 1.387 . S
C1796 H1800 0.950 . S
C1796 C1805 1.390 . S
C1797 C1796 1.387 . S
C1797 C1799 1.387 . S
H1798 C1805 0.950 . S
C1799 C1797 1.387 . S
C1799 C1801 1.390 . S
C1799 H1803 0.950 . S
H1800 C1796 0.950 . S
C1801 C1799 1.390 . S
C1801 C1802 1.387 . S
C1801 H1804 0.950 . S
C1802 C1801 1.387 . S
C1802 C1805 1.387 . S
H1803 C1799 0.950 . S
H1804 C1801 0.950 . S
C1805 C1796 1.390 . S
C1805 H1798 0.950 . S
C1805 C1802 1.387 . S
C1806 C1807 1.387 . S
C1806 H1810 0.950 . S
C1806 C1815 1.390 . S
C1807 C1806 1.387 . S
C1807 C1809 1.387 . S
H1808 C1815 0.950 . S
C1809 C1807 1.387 . S
C1809 C1811 1.390 . S
C1809 H1813 0.950 . S
H1810 C1806 0.950 . S
C1811 C1809 1.390 . S
C1811 C1812 1.387 . S
C1811 H1814 0.950 . S
C1812 C1811 1.387 . S
C1812 C1815 1.387 . S
H1813 C1809 0.950 . S
H1814 C1811 0.950 . S
C1815 C1806 1.390 . S
C1815 H1808 0.950 . S
C1815 C1812 1.387 . S
C1816 C1817 1.387 . S
C1816 H1820 0.950 . S
C1816 C1825 1.390 . S
C1817 C1816 1.387 . S
C1817 C1819 1.387 . S
H1818 C1825 0.950 . S
C1819 C1817 1.387 . S
C1819 C1821 1.390 . S
C1819 H1823 0.950 . S
H1820 C1816 0.950 . S
C1821 C1819 1.390 . S
C1821 C1822 1.387 . S
C1821 H1824 0.950 . S
C1822 C1821 1.387 . S
C1822 C1825 1.387 . S
H1823 C1819 0.950 . S
H1824 C1821 0.950 . S
C1825 C1816 1.390 . S
C1825 H1818 0.950 . S
C1825 C1822 1.387 . S
C1826 C1827 1.387 . S
C1826 H1830 0.950 . S
C1826 C1835 1.390 . S
C1827 C1826 1.387 . S
C1827 C1829 1.387 . S
H1828 C1835 0.950 . S
C1829 C1827 1.387 . S
C1829 C1831 1.390 . S
C1829 H1833 0.950 . S
H1830 C1826 0.950 . S
C1831 C1829 1.390 . S
C1831 C1832 1.387 . S
C1831 H1834 0.950 . S
C1832 C1831 1.387 . S
C1832 C1835 1.387 . S
H1833 C1829 0.950 . S
H1834 C1831 0.950 . S
C1835 C1826 1.390 . S
C1835 H1828 0.950 . S
C1835 C1832 1.387 . S
C1836 C1837 1.387 . S
C1836 H1840 0.950 . S
C1836 C1845 1.390 . S
C1837 C1836 1.387 . S
C1837 C1839 1.387 . S
H1838 C1845 0.950 . S
C1839 C1837 1.387 . S
C1839 C1841 1.390 . S
C1839 H1843 0.950 . S
H1840 C1836 0.950 . S
C1841 C1839 1.390 . S
C1841 C1842 1.387 . S
C1841 H1844 0.950 . S
C1842 C1841 1.387 . S
C1842 C1845 1.387 . S
H1843 C1839 0.950 . S
H1844 C1841 0.950 . S
C1845 C1836 1.390 . S
C1845 H1838 0.950 . S
C1845 C1842 1.387 . S
C1846 C1847 1.387 . S
C1846 H1850 0.950 . S
C1846 C1855 1.390 . S
C1847 C1846 1.387 . S
C1847 C1849 1.387 . S
H1848 C1855 0.950 . S
C1849 C1847 1.387 . S
C1849 C1851 1.390 . S
C1849 H1853 0.950 . S
H1850 C1846 0.950 . S
C1851 C1849 1.390 . S
C1851 C1852 1.387 . S
C1851 H1854 0.950 . S
C1852 C1851 1.387 . S
C1852 C1855 1.387 . S
H1853 C1849 0.950 . S
H1854 C1851 0.950 . S
C1855 C1846 1.390 . S
C1855 H1848 0.950 . S
C1855 C1852 1.387 . S
C1856 C1857 1.387 . S
C1856 H1860 0.950 . S
C1856 C1865 1.390 . S
C1857 C1856 1.387 . S
C1857 C1859 1.387 . S
H1858 C1865 0.950 . S
C1859 C1857 1.387 . S
C1859 C1861 1.390 . S
C1859 H1863 0.950 . S
H1860 C1856 0.950 . S
C1861 C1859 1.390 . S
C1861 C1862 1.387 . S
C1861 H1864 0.950 . S
C1862 C1861 1.387 . S
C1862 C1865 1.387 . S
H1863 C1859 0.950 . S
H1864 C1861 0.950 . S
C1865 C1856 1.390 . S
C1865 H1858 0.950 . S
C1865 C1862 1.387 . S
C1866 C1867 1.387 . S
C1866 H1870 0.950 . S
C1866 C1875 1.390 . S
C1867 C1866 1.387 . S
C1867 C1869 1.387 . S
H1868 C1875 0.950 . S
C1869 C1867 1.387 . S
C1869 C1871 1.390 . S
C1869 H1873 0.950 . S
H1870 C1866 0.950 . S
C1871 C1869 1.390 . S
C1871 C1872 1.387 . S
C1871 H1874 0.950 . S
C1872 C1871 1.387 . S
C1872 C1875 1.387 . S
H1873 C1869 0.950 . S
H1874 C1871 0.950 . S
C1875 C1866 1.390 . S
C1875 H1868 0.950 . S
C1875 C1872 1.387 . S
C1876 C1877 1.387 . S
C1876 H1880 0.950 . S
C1876 C1885 1.390 . S
C1877 C1876 1.387 . S
C1877 C1879 1.387 . S
H1878 C1885 0.950 . S
C1879 C1877 1.387 . S
C1879 C1881 1.390 . S
C1879 H1883 0.950 . S
H1880 C1876 0.950 . S
C1881 C1879 1.390 . S
C1881 C1882 1.387 . S
C1881 H1884 0.950 . S
C1882 C1881 1.387 . S
C1882 C1885 1.387 . S
H1883 C1879 0.950 . S
H1884 C1881 0.950 . S
C1885 C1876 1.390 . S
C1885 H1878 0.950 . S
C1885 C1882 1.387 . S
C1886 C1887 1.387 . S
C1886 H1890 0.950 . S
C1886 C1895 1.390 . S
C1887 C1886 1.387 . S
C1887 C1889 1.387 . S
H1888 C1895 0.950 . S
C1889 C1887 1.387 . S
C1889 C1891 1.390 . S
C1889 H1893 0.950 . S
H1890 C1886 0.950 . S
C1891 C1889 1.390 . S
C1891 C1892 1.387 . S
C1891 H1894 0.950 . S
C1892 C1891 1.387 . S
C1892 C1895 1.387 . S
H1893 C1889 0.950 . S
H1894 C1891 0.950 . S
C1895 C1886 1.390 . S
C1895 H1888 0.950 . S
C1895 C1892 1.387 . S
C1896 C1897 1.387 . S
C1896 H1900 0.950 . S
C1896 C1905 1.390 . S
C1897 C1896 1.387 . S
C1897 C1899 1.387 . S
H1898 C1905 0.950 . S
C1899 C1897 1.387 . S
C1899 C1901 1.390 . S
C1899 H1903 0.950 . S
H1900 C1896 0.950 . S
C1901 C1899 1.390 . S
C1901 C1902 1.387 . S
C1901 H1904 0.950 . S
C1902 C1901 1.387 . S
C1902 C1905 1.387 . S
H1903 C1899 0.950 . S
H1904 C1901 0.950 . S
C1905 C1896 1.390 . S
C1905 H1898 0.950 . S
C1905 C1902 1.387 . S
C1906 C1907 1.387 . S
C1906 H1910 0.950 . S
C1906 C1915 1.390 . S
C1907 C1906 1.387 . S
C1907 C1909 1.387 . S
H1908 C1915 0.950 . S
C1909 C1907 1.387 . S
C1909 C1911 1.390 . S
C1909 H1913 0.950 . S
H1910 C1906 0.950 . S
C1911 C1909 1.390 . S
C1911 C1912 1.387 . S
C1911 H1914 0.950 . S
C1912 C1911 1.387 . S
C1912 C1915 1.387 . S
H1913 C1909 0.950 . S
H1914 C1911 0.950 . S
C1915 C1906 1.390 . S
C1915 H1908 0.950 . S
C1915 C1912 1.387 . S
C1916 C1917 1.387 . S
C1916 H1920 0.950 . S
C1916 C1925 1.390 . S
C1917 C1916 1.387 . S
C1917 C1919 1.387 . S
H1918 C1925 0.950 . S
C1919 C1917 1.387 . S
C1919 C1921 1.390 . S
C1919 H1923 0.950 . S
H1920 C1916 0.950 . S
C1921 C1919 1.390 . S
C1921 C1922 1.387 . S
C1921 H1924 0.950 . S
C1922 C1921 1.387 . S
C1922 C1925 1.387 . S
H1923 C1919 0.950 . S
H1924 C1921 0.950 . S
C1925 C1916 1.390 . S
C1925 H1918 0.950 . S
C1925 C1922 1.387 . S
C1926 C1927 1.387 . S
C1926 H1930 0.950 . S
C1926 C1935 1.390 . S
C1927 C1926 1.387 . S
C1927 C1929 1.387 . S
H1928 C1935 0.950 . S
C1929 C1927 1.387 . S
C1929 C1931 1.390 . S
C1929 H1933 0.950 . S
H1930 C1926 0.950 . S
C1931 C1929 1.390 . S
C1931 C1932 1.387 . S
C1931 H1934 0.950 . S
C1932 C1931 1.387 . S
C1932 C1935 1.387 . S
H1933 C1929 0.950 . S
H1934 C1931 0.950 . S
C1935 C1926 1.390 . S
C1935 H1928 0.950 . S
C1935 C1932 1.387 . S
C1936 C1937 1.387 . S
C1936 H1940 0.950 . S
C1936 C1945 1.390 . S
C1937 C1936 1.387 . S
C1937 C1939 1.387 . S
H1938 C1945 0.950 . S
C1939 C1937 1.387 . S
C1939 C1941 1.390 . S
C1939 H1943 0.950 . S
H1940 C1936 0.950 . S
C1941 C1939 1.390 . S
C1941 C1942 1.387 . S
C1941 H1944 0.950 . S
C1942 C1941 1.387 . S
C1942 C1945 1.387 . S
H1943 C1939 0.950 . S
H1944 C1941 0.950 . S
C1945 C1936 1.390 . S
C1945 H1938 0.950 . S
C1945 C1942 1.387 . S
C1946 C1947 1.387 . S
C1946 H1950 0.950 . S
C1946 C1955 1.390 . S
C1947 C1946 1.387 . S
C1947 C1949 1.387 . S
H1948 C1955 0.950 . S
C1949 C1947 1.387 . S
C1949 C1951 1.390 . S
C1949 H1953 0.950 . S
H1950 C1946 0.950 . S
C1951 C1949 1.390 . S
C1951 C1952 1.387 . S
C1951 H1954 0.950 . S
C1952 C1951 1.387 . S
C1952 C1955 1.387 . S
H1953 C1949 0.950 . S
H1954 C1951 0.950 . S
C1955 C1946 1.390 . S
C1955 H1948 0.950 . S
C1955 C1952 1.387 . S
C1242 C942 1.141 . S
C1237 C898 1.140 . S
C1247 C820 1.139 . S
C1252 C940 1.139 . S
C1262 C941 1.140 . S
C1257 C781 1.140 . S
C1267 C859 1.140 . S
C1272 C943 1.141 . S
C1282 C987 1.140 . S
C1277 C625 1.139 . S
C1292 C1047 1.140 . S
C1287 C664 1.139 . S
C1297 C703 1.140 . S
C1302 C986 1.140 . S
C1312 C1046 1.140 . S
C1307 C742 1.139 . S
C1317 C469 1.140 . S
C1322 C988 1.141 . S
C1332 C1044 1.140 . S
C1327 C508 1.141 . S
C1337 C547 1.140 . S
C1342 C989 1.140 . S
C1347 C586 1.140 . S
C1352 C1045 1.140 . S
C1362 C1095 1.141 . S
C1357 C430 1.140 . S
C1367 C352 1.139 . S
C1372 C1094 1.140 . S
C1377 C313 1.139 1_554 S
C1382 C1096 1.140 . S
C1392 C1097 1.140 . S
C1387 C391 1.140 1_554 S
C1397 C157 1.140 . S
C1402 C1138 1.140 . S
C1407 C196 1.139 1_545 S
C1412 C1197 1.140 . S
C1417 C235 1.140 . S
C1422 C1136 1.140 . S
C1427 C274 1.140 1_545 S
C1432 C1196 1.141 . S
C1442 C1137 1.140 . S
C1437 C1 1.140 . S
C1452 C1194 1.140 . S
C1447 C40 1.140 . S
C1457 C79 1.140 . S
C1462 C1139 1.140 . S
C1472 C1195 1.140 . S
C1467 C118 1.139 . S
C1482 C939 2.082 . S
C1477 C16 1.907 . S
C1487 C60 1.924 . S
C1492 C945 2.096 . S
C1497 C99 1.928 . S
C1502 C937 2.100 . S
C1507 C133 1.910 1_545 S
C1512 C944 2.085 . S
C1517 C172 1.907 . S
C1522 C936 2.083 . S
C1532 C946 2.087 . S
C1527 C211 1.914 . S
C1537 C255 1.924 . S
C1542 C938 2.097 . S
C1552 C947 2.096 . S
C1547 C294 1.924 1_545 S
C1562 C993 2.098 . S
C1557 C138 1.926 . S
C1567 C21 1.924 . S
C1572 C1036 2.097 . S
C1582 C991 2.085 . S
C1577 C55 1.912 1_545 S
C1592 C1038 2.082 . S
C1587 C94 1.907 . S
C1597 C216 1.926 1_545 S
C1602 C992 2.099 . S
C1612 C1037 2.084 . S
C1607 C250 1.912 . S
C1622 C990 2.085 . S
C1617 C289 1.913 . S
C1632 C1039 2.097 . S
C1627 C177 1.924 . S
C1642 C1043 2.087 . S
C1637 C328 1.914 . S
C1647 C367 1.910 1_554 S
C1652 C1042 2.085 . S
C1662 C994 2.098 . S
C1657 C333 1.926 1_554 S
C1672 C1041 2.094 . S
C1667 C411 1.921 1_554 S
C1677 C445 1.912 1_554 S
C1682 C997 2.086 . S
C1687 C450 1.921 . S
C1692 C1040 2.094 . S
C1702 C996 2.096 . S
C1697 C372 1.923 . S
C1712 C995 2.083 . S
C1707 C406 1.908 . S
C1722 C1089 2.082 . S
C1717 C484 1.908 . S
C1732 C1092 2.096 . S
C1727 C528 1.925 . S
C1737 C567 1.924 . S
C1742 C1088 2.098 . S
C1752 C1090 2.087 . S
C1747 C601 1.915 . S
C1762 C1086 2.082 . S
C1757 C640 1.907 . S
C1767 C679 1.910 . S
C1772 C1091 2.085 . S
C1777 C723 1.928 . S
C1782 C1087 2.098 . S
C1792 C1093 2.096 . S
C1787 C762 1.924 . S
C1802 C1147 2.096 . S
C1797 C606 1.923 . S
C1807 C489 1.928 . S
C1812 C1186 2.100 . S
C1822 C1146 2.083 . S
C1817 C523 1.908 . S
C1832 C1188 2.084 . S
C1827 C562 1.911 . S
C1842 C1145 2.096 . S
C1837 C684 1.923 . S
C1847 C718 1.911 . S
C1852 C1187 2.085 . S
C1862 C1144 2.085 . S
C1857 C757 1.912 . S
C1872 C1189 2.097 . S
C1867 C645 1.923 . S
C1882 C1193 2.087 . S
C1877 C796 1.915 . S
C1887 C835 1.914 . S
C1892 C1192 2.086 . S
C1902 C1140 2.096 . S
C1897 C801 1.923 . S
C1907 C879 1.921 . S
C1912 C1191 2.095 . S
C1922 C1143 2.085 . S
C1917 C913 1.912 . S
C1932 C1190 2.096 . S
C1927 C918 1.924 . S
C1942 C1141 2.096 . S
C1937 C840 1.923 . S
C1947 C874 1.912 . S
C1952 C1142 2.085 . S
