# Generated by pormake.
# Topology dag, (6,3)-cn, num edge types: 1
# Building blocks:
#     Node 0, Type 0, BuildingBlock: IZENUY_clean_sbu_0, # of connection points: 6
#     Node 1, Type 0, BuildingBlock: IZENUY_clean_sbu_0, # of connection points: 6
#     Node 2, Type 0, BuildingBlock: IZENUY_clean_sbu_0, # of connection points: 6
#     Node 3, Type 0, BuildingBlock: IZENUY_clean_sbu_0, # of connection points: 6
#     Node 4, Type 1, BuildingBlock: VETTIZ_charged_linker_0, # of connection points: 3
#     Node 5, Type 1, BuildingBlock: VETTIZ_charged_linker_0, # of connection points: 3
#     Node 6, Type 1, BuildingBlock: VETTIZ_charged_linker_0, # of connection points: 3
#     Node 7, Type 1, BuildingBlock: VETTIZ_charged_linker_0, # of connection points: 3
#     Node 8, Type 1, BuildingBlock: VETTIZ_charged_linker_0, # of connection points: 3
#     Node 9, Type 1, BuildingBlock: VETTIZ_charged_linker_0, # of connection points: 3
#     Node 10, Type 1, BuildingBlock: VETTIZ_charged_linker_0, # of connection points: 3
#     Node 11, Type 1, BuildingBlock: VETTIZ_charged_linker_0, # of connection points: 3
#     Edge 12, Type (0, 1), BuildingBlock: KIFKEQ_clean_linker_1, # of connection points: 2
#     Edge 13, Type (0, 1), BuildingBlock: KIFKEQ_clean_linker_1, # of connection points: 2
#     Edge 14, Type (0, 1), BuildingBlock: KIFKEQ_clean_linker_1, # of connection points: 2
#     Edge 15, Type (0, 1), BuildingBlock: KIFKEQ_clean_linker_1, # of connection points: 2
#     Edge 16, Type (0, 1), BuildingBlock: KIFKEQ_clean_linker_1, # of connection points: 2
#     Edge 17, Type (0, 1), BuildingBlock: KIFKEQ_clean_linker_1, # of connection points: 2
#     Edge 18, Type (0, 1), BuildingBlock: KIFKEQ_clean_linker_1, # of connection points: 2
#     Edge 19, Type (0, 1), BuildingBlock: KIFKEQ_clean_linker_1, # of connection points: 2
#     Edge 20, Type (0, 1), BuildingBlock: KIFKEQ_clean_linker_1, # of connection points: 2
#     Edge 21, Type (0, 1), BuildingBlock: KIFKEQ_clean_linker_1, # of connection points: 2
#     Edge 22, Type (0, 1), BuildingBlock: KIFKEQ_clean_linker_1, # of connection points: 2
#     Edge 23, Type (0, 1), BuildingBlock: KIFKEQ_clean_linker_1, # of connection points: 2
#     Edge 24, Type (0, 1), BuildingBlock: KIFKEQ_clean_linker_1, # of connection points: 2
#     Edge 25, Type (0, 1), BuildingBlock: KIFKEQ_clean_linker_1, # of connection points: 2
#     Edge 26, Type (0, 1), BuildingBlock: KIFKEQ_clean_linker_1, # of connection points: 2
#     Edge 27, Type (0, 1), BuildingBlock: KIFKEQ_clean_linker_1, # of connection points: 2
#     Edge 28, Type (0, 1), BuildingBlock: KIFKEQ_clean_linker_1, # of connection points: 2
#     Edge 29, Type (0, 1), BuildingBlock: KIFKEQ_clean_linker_1, # of connection points: 2
#     Edge 30, Type (0, 1), BuildingBlock: KIFKEQ_clean_linker_1, # of connection points: 2
#     Edge 31, Type (0, 1), BuildingBlock: KIFKEQ_clean_linker_1, # of connection points: 2
#     Edge 32, Type (0, 1), BuildingBlock: KIFKEQ_clean_linker_1, # of connection points: 2
#     Edge 33, Type (0, 1), BuildingBlock: KIFKEQ_clean_linker_1, # of connection points: 2
#     Edge 34, Type (0, 1), BuildingBlock: KIFKEQ_clean_linker_1, # of connection points: 2
#     Edge 35, Type (0, 1), BuildingBlock: KIFKEQ_clean_linker_1, # of connection points: 2
# Relax obj value: 0.264
# Max RMSD: 0.202
# Mean RMSD: 0.161
data_MOF--net-dag--node1-IZENUY_clean_sbu_0--node2-VETTIZ_charged_linker_0--edge1-KIFKEQ_clean_linker_1
_symmetry_space_group_name_H-M    P1
_symmetry_Int_Tables_number       1
_symmetry_cell_setting            triclinic
loop_
_symmetry_equiv_pos_as_xyz
'x, y, z'
_cell_length_a     48.264153
_cell_length_b     48.256987
_cell_length_c     41.798831
_cell_angle_alpha  93.265532
_cell_angle_beta   86.736934
_cell_angle_gamma 87.72095
loop_
_atom_site_label
_atom_site_type_symbol
_atom_site_fract_x
_atom_site_fract_y
_atom_site_fract_z
_atom_type_partial_charge
Fe0 Fe 0.21221 0.83264 0.08084 0.0
Fe1 Fe 0.1539 0.85075 0.06398 0.0
O2 O 0.17713 0.8249 0.07639 0.0
Fe3 Fe 0.16519 0.79162 0.08443 0.0
O4 O 0.17536 0.79491 0.12547 0.0
O5 O 0.21699 0.80984 0.11396 0.0
O6 O 0.20238 0.86023 0.11128 0.0
C7 C 0.1865 0.88069 0.10634 0.0
C8 C 0.21805 0.78032 0.0523 0.0
O9 O 0.17155 0.88009 0.08245 0.0
C10 C 0.1366 0.80177 0.03181 0.0
O11 O 0.21377 0.85689 0.04831 0.0
O12 O 0.17384 0.85268 0.02618 0.0
O13 O 0.19815 0.773 0.07062 0.0
O14 O 0.22383 0.8055 0.05093 0.0
C15 C 0.1219 0.82883 0.11112 0.0
O16 O 0.13165 0.82637 0.04341 0.0
O17 O 0.15412 0.78596 0.04377 0.0
C18 C 0.19894 0.85915 0.02438 0.0
O19 O 0.13301 0.85017 0.10116 0.0
O20 O 0.13015 0.80471 0.0999 0.0
C21 C 0.19945 0.80015 0.13359 0.0
Fe22 Fe 0.69851 0.66209 0.52714 0.0
Fe23 Fe 0.65922 0.7071 0.56212 0.0
O24 O 0.66512 0.67309 0.54427 0.0
Fe25 Fe 0.63765 0.6501 0.54381 0.0
O26 O 0.65658 0.62552 0.56639 0.0
O27 O 0.6957 0.62551 0.53686 0.0
O28 O 0.71395 0.66804 0.5655 0.0
C29 C 0.71189 0.69083 0.58203 0.0
C30 C 0.66505 0.63996 0.48249 0.0
O31 O 0.69452 0.70977 0.57562 0.0
C32 C 0.6095 0.69766 0.53082 0.0
O33 O 0.70712 0.69674 0.51427 0.0
O34 O 0.66846 0.72224 0.52445 0.0
O35 O 0.64947 0.63225 0.5054 0.0
O36 O 0.68511 0.65528 0.48773 0.0
C37 C 0.63045 0.6775 0.60551 0.0
O38 O 0.62261 0.71059 0.552 0.0
O39 O 0.61703 0.67318 0.52116 0.0
C40 C 0.69155 0.7176 0.50894 0.0
O41 O 0.64978 0.6939 0.60095 0.0
O42 O 0.62074 0.66394 0.58219 0.0
C43 C 0.68006 0.61446 0.55749 0.0
Fe44 Fe 0.83707 0.20831 0.00305 0.0
Fe45 Fe 0.85062 0.14851 0.01884 0.0
O46 O 0.82664 0.17375 0.00653 0.0
Fe47 Fe 0.79269 0.1642 0.99765 0.0
O48 O 0.79696 0.17557 0.95724 0.0
O49 O 0.81552 0.21541 0.96932 0.0
O50 O 0.86484 0.1973 0.97334 0.0
C51 C 0.88389 0.17973 0.9782 0.0
C52 C 0.78452 0.21756 0.0306 0.0
O53 O 0.88149 0.16445 0.00169 0.0
C54 C 0.79996 0.13305 0.04903 0.0
O55 O 0.86042 0.20748 0.03661 0.0
O56 O 0.85294 0.16731 0.05715 0.0
O57 O 0.77595 0.19777 0.01295 0.0
O58 O 0.81008 0.22151 0.0321 0.0
C59 C 0.82786 0.11923 0.97006 0.0
O60 O 0.82457 0.1273 0.03804 0.0
O61 O 0.78558 0.152 0.03758 0.0
C62 C 0.86102 0.19183 0.06005 0.0
O63 O 0.84953 0.12869 0.9812 0.0
O64 O 0.80393 0.12896 0.98049 0.0
C65 C 0.80389 0.19933 0.94969 0.0
Fe66 Fe 0.36463 0.356 0.53691 0.0
Fe67 Fe 0.30613 0.34011 0.55936 0.0
O68 O 0.33822 0.3317 0.53739 0.0
Fe69 Fe 0.34392 0.29904 0.51579 0.0
O70 O 0.37336 0.28996 0.53875 0.0
O71 O 0.3934 0.3298 0.53451 0.0
O72 O 0.36628 0.35627 0.57988 0.0
C73 C 0.34613 0.36223 0.59986 0.0
C74 C 0.36873 0.3366 0.4742 0.0
O75 O 0.32135 0.36153 0.59133 0.0
C76 C 0.29037 0.31199 0.50224 0.0
O77 O 0.34077 0.38672 0.53927 0.0
O78 O 0.29925 0.36997 0.53621 0.0
O79 O 0.36637 0.31215 0.48332 0.0
O80 O 0.36462 0.35727 0.49388 0.0
C81 C 0.31446 0.28599 0.57339 0.0
O82 O 0.28518 0.32017 0.53141 0.0
O83 O 0.31494 0.30605 0.49146 0.0
C84 C 0.31558 0.38943 0.53261 0.0
O85 O 0.31074 0.31092 0.58394 0.0
O86 O 0.32253 0.27996 0.54433 0.0
C87 C 0.39406 0.30475 0.54204 0.0
C88 C 0.14258 0.07462 0.25123 0.0
C89 C 0.12904 0.05499 0.23233 0.0
C90 C 0.10207 0.06144 0.22302 0.0
C91 C 0.10326 0.10738 0.24931 0.0
C92 C 0.12918 0.10051 0.25975 0.0
C93 C 0.14015 0.12362 0.28047 0.0
H94 H 0.12644 0.25567 0.34514 0.0
C95 C 0.09597 0.13649 0.26042 0.0
C96 C 0.11732 0.14607 0.27892 0.0
H97 H 0.18778 0.19145 0.36254 0.0
H98 H 0.16701 0.15958 0.32553 0.0
H99 H 0.12513 0.24135 0.26792 0.0
H100 H 0.07333 0.21517 0.34733 0.0
H101 H 0.05228 0.22651 0.31707 0.0
H102 H 0.07421 0.25066 0.33655 0.0
H103 H 0.09915 0.26436 0.28882 0.0
H104 H 0.0908 0.24068 0.25608 0.0
C105 C 0.16801 0.13217 0.2645 0.0
C106 C 0.14232 0.1135 0.31489 0.0
C107 C 0.00919 0.18351 0.22244 0.0
C108 C 0.99872 0.21108 0.22448 0.0
C109 C 0.01289 0.23157 0.24149 0.0
C110 C 0.0372 0.22444 0.25673 0.0
C111 C 0.04755 0.19662 0.25439 0.0
C112 C 0.03366 0.17683 0.23708 0.0
C113 C 0.04859 0.14886 0.23466 0.0
C114 C 0.07354 0.15482 0.25394 0.0
C115 C 0.07273 0.18271 0.26583 0.0
C116 C 0.05694 0.14134 0.19872 0.0
C117 C 0.02953 0.12796 0.25086 0.0
C118 C 0.13529 0.23473 0.34073 0.0
C119 C 0.1586 0.22586 0.35675 0.0
C120 C 0.16962 0.19851 0.35068 0.0
C121 C 0.15753 0.18004 0.32922 0.0
C122 C 0.13392 0.18885 0.31385 0.0
C123 C 0.12305 0.21573 0.3197 0.0
C124 C 0.09717 0.22079 0.30191 0.0
C125 C 0.094 0.19228 0.28535 0.0
C126 C 0.11592 0.1739 0.29208 0.0
C127 C 0.10309 0.24308 0.27749 0.0
C128 C 0.07285 0.22887 0.32683 0.0
H129 H 0.06881 0.09138 0.22299 0.0
H130 H 0.16316 0.06991 0.2591 0.0
H131 H 0.12914 0.09551 0.31916 0.0
H132 H 0.13471 0.12959 0.33365 0.0
H133 H 0.164 0.10686 0.31932 0.0
H134 H 0.16625 0.13389 0.23825 0.0
H135 H 0.18493 0.1165 0.26781 0.0
H136 H 0.17444 0.15265 0.27377 0.0
H137 H 0.99895 0.16756 0.20877 0.0
H138 H 0.00515 0.25302 0.2429 0.0
H139 H 0.04717 0.24083 0.26945 0.0
H140 H 0.06213 0.16022 0.1859 0.0
H141 H 0.03973 0.13145 0.18644 0.0
H142 H 0.07582 0.12762 0.19497 0.0
H143 H 0.01706 0.13817 0.27179 0.0
H144 H 0.04128 0.11066 0.26083 0.0
H145 H 0.01478 0.11933 0.23383 0.0
H146 H 0.09134 0.04656 0.20837 0.0
C147 C 0.08914 0.08754 0.23133 0.0
C148 C 0.38789 0.49614 0.80783 0.0
C149 C 0.40419 0.47862 0.78554 0.0
C150 C 0.43249 0.48397 0.7797 0.0
C151 C 0.42692 0.52566 0.8149 0.0
C152 C 0.39973 0.51934 0.82238 0.0
C153 C 0.38514 0.54067 0.84577 0.0
H154 H 0.38639 0.66408 0.9304 0.0
C155 C 0.43201 0.55265 0.83149 0.0
C156 C 0.4078 0.56128 0.85017 0.0
H157 H 0.31908 0.60754 0.92411 0.0
H158 H 0.34857 0.57521 0.89084 0.0
H159 H 0.43895 0.61711 0.93255 0.0
H160 H 0.40009 0.66141 0.8598 0.0
H161 H 0.4344 0.65449 0.84463 0.0
H162 H 0.42766 0.67595 0.88128 0.0
H163 H 0.43975 0.65399 0.92883 0.0
H164 H 0.46501 0.63051 0.90707 0.0
C165 C 0.37754 0.52638 0.87717 0.0
C166 C 0.35996 0.55351 0.8295 0.0
C167 C 0.51727 0.60446 0.79799 0.0
C168 C 0.52472 0.63198 0.80444 0.0
C169 C 0.5099 0.64834 0.82922 0.0
C170 C 0.48704 0.6379 0.84613 0.0
C171 C 0.47853 0.61106 0.83768 0.0
C172 C 0.49399 0.59456 0.81453 0.0
C173 C 0.48098 0.56725 0.80731 0.0
C174 C 0.45466 0.5705 0.82914 0.0
C175 C 0.45338 0.59617 0.84688 0.0
C176 C 0.5008 0.5436 0.81724 0.0
C177 C 0.47467 0.56546 0.7713 0.0
C178 C 0.37782 0.64483 0.92188 0.0
C179 C 0.35017 0.63857 0.93034 0.0
C180 C 0.34034 0.61291 0.91879 0.0
C181 C 0.35747 0.59416 0.89906 0.0
C182 C 0.38465 0.60119 0.89008 0.0
C183 C 0.39443 0.62615 0.90149 0.0
C184 C 0.42313 0.63105 0.88756 0.0
C185 C 0.4293 0.60444 0.86677 0.0
C186 C 0.40666 0.58707 0.86837 0.0
C187 C 0.44289 0.63348 0.91535 0.0
C188 C 0.42148 0.6571 0.86741 0.0
H189 H 0.46537 0.51074 0.78823 0.0
H190 H 0.36621 0.49229 0.81316 0.0
H191 H 0.36498 0.55546 0.80343 0.0
H192 H 0.35392 0.57484 0.83898 0.0
H193 H 0.34166 0.54037 0.83186 0.0
H194 H 0.39358 0.5101 0.88174 0.0
H195 H 0.35736 0.5162 0.87586 0.0
H196 H 0.37675 0.54085 0.89869 0.0
H197 H 0.52803 0.59157 0.77874 0.0
H198 H 0.51543 0.66955 0.83468 0.0
H199 H 0.47619 0.65152 0.86425 0.0
H200 H 0.5135 0.55081 0.83725 0.0
H201 H 0.51538 0.53585 0.79687 0.0
H202 H 0.48947 0.52599 0.82659 0.0
H203 H 0.46594 0.58574 0.76417 0.0
H204 H 0.45906 0.55028 0.7653 0.0
H205 H 0.49385 0.56014 0.75586 0.0
H206 H 0.44546 0.47082 0.76256 0.0
C207 C 0.44395 0.50732 0.79436 0.0
C208 C 0.76379 0.86999 0.33972 0.0
C209 C 0.77609 0.84835 0.35607 0.0
C210 C 0.80383 0.83949 0.34747 0.0
C211 C 0.80668 0.87325 0.30702 0.0
C212 C 0.77953 0.88222 0.31537 0.0
C213 C 0.77022 0.90571 0.29559 0.0
H214 H 0.80022 0.98788 0.17232 0.0
C215 C 0.81723 0.88949 0.28049 0.0
C216 C 0.79599 0.90861 0.27349 0.0
H217 H 0.72518 0.99193 0.23386 0.0
H218 H 0.74354 0.95394 0.26375 0.0
H219 H 0.84061 0.98366 0.22807 0.0
H220 H 0.80778 0.92256 0.16354 0.0
H221 H 0.84241 0.91165 0.16787 0.0
H222 H 0.83495 0.94467 0.15125 0.0
H223 H 0.85289 0.97845 0.18677 0.0
H224 H 0.86791 0.95918 0.21772 0.0
C225 C 0.76387 0.93189 0.31835 0.0
C226 C 0.7452 0.89632 0.27682 0.0
C227 C 0.91582 0.8697 0.23234 0.0
C228 C 0.93107 0.88079 0.20671 0.0
C229 C 0.91799 0.90099 0.1889 0.0
C230 C 0.89058 0.91046 0.19684 0.0
C231 C 0.87581 0.8996 0.22284 0.0
C232 C 0.88831 0.87936 0.23988 0.0
C233 C 0.86902 0.86979 0.2662 0.0
C234 C 0.84313 0.88806 0.26244 0.0
C235 C 0.84735 0.90549 0.23714 0.0
C236 C 0.882 0.87643 0.29869 0.0
C237 C 0.86407 0.83856 0.25875 0.0
C238 C 0.78769 0.98042 0.19214 0.0
C239 C 0.76126 0.99241 0.20071 0.0
C240 C 0.74561 0.9827 0.22691 0.0
C241 C 0.75633 0.96076 0.24411 0.0
C242 C 0.78302 0.94888 0.23511 0.0
C243 C 0.79818 0.95905 0.20961 0.0
C244 C 0.82649 0.94524 0.20384 0.0
C245 C 0.82606 0.92481 0.22993 0.0
C246 C 0.80054 0.92668 0.24812 0.0
C247 C 0.84828 0.96763 0.20909 0.0
C248 C 0.8283 0.93035 0.16983 0.0
H249 H 0.84005 0.84392 0.31782 0.0
H250 H 0.74257 0.87735 0.34592 0.0
H251 H 0.74919 0.87482 0.26603 0.0
H252 H 0.74107 0.90934 0.25664 0.0
H253 H 0.72607 0.89645 0.29294 0.0
H254 H 0.77862 0.93283 0.33785 0.0
H255 H 0.74251 0.93185 0.32977 0.0
H256 H 0.7664 0.95139 0.30612 0.0
H257 H 0.92518 0.85417 0.24656 0.0
H258 H 0.9289 0.90941 0.16853 0.0
H259 H 0.88201 0.92592 0.18237 0.0
H260 H 0.89239 0.8966 0.29855 0.0
H261 H 0.89787 0.86015 0.3036 0.0
H262 H 0.86646 0.87889 0.31919 0.0
H263 H 0.86565 0.83319 0.23244 0.0
H264 H 0.84297 0.8327 0.26665 0.0
H265 H 0.87963 0.8251 0.26981 0.0
H266 H 0.81364 0.82258 0.35923 0.0
C267 C 0.81912 0.85178 0.32317 0.0
C268 C 0.71498 0.26225 0.73072 0.0
C269 C 0.73757 0.27438 0.74515 0.0
C270 C 0.7489 0.29807 0.73217 0.0
C271 C 0.71477 0.29779 0.69185 0.0
C272 C 0.70394 0.27426 0.70419 0.0
C273 C 0.67917 0.2648 0.68683 0.0
H274 H 0.58907 0.28632 0.57137 0.0
C275 C 0.69835 0.30538 0.66468 0.0
C276 C 0.67773 0.28583 0.66122 0.0
H277 H 0.5829 0.22826 0.64598 0.0
H278 H 0.62796 0.2411 0.66368 0.0
H279 H 0.60075 0.33183 0.61115 0.0
H280 H 0.6595 0.27852 0.55426 0.0
H281 H 0.66953 0.31291 0.55015 0.0
H282 H 0.63559 0.30308 0.53872 0.0
H283 H 0.61087 0.33914 0.57073 0.0
H284 H 0.62875 0.35299 0.60442 0.0
C285 C 0.65332 0.26742 0.71083 0.0
C286 C 0.68581 0.23503 0.67199 0.0
C287 C 0.71126 0.39753 0.6137 0.0
C288 C 0.69718 0.4103 0.58948 0.0
C289 C 0.68002 0.39428 0.57024 0.0
C290 C 0.6749 0.36683 0.57682 0.0
C291 C 0.68687 0.35525 0.60308 0.0
C292 C 0.7058 0.36994 0.62006 0.0
C293 C 0.71697 0.3536 0.64657 0.0
C294 C 0.69989 0.32778 0.64412 0.0
C295 C 0.6821 0.32915 0.61884 0.0
C296 C 0.71052 0.37065 0.67885 0.0
C297 C 0.74832 0.34674 0.63842 0.0
C298 C 0.59791 0.27565 0.59078 0.0
C299 C 0.58278 0.25598 0.60701 0.0
C300 C 0.59438 0.24336 0.63304 0.0
C301 C 0.62035 0.25105 0.64341 0.0
C302 C 0.63441 0.27213 0.62816 0.0
C303 C 0.62321 0.28383 0.60209 0.0
C304 C 0.63898 0.30811 0.59112 0.0
C305 C 0.66142 0.3093 0.61507 0.0
C306 C 0.659 0.28792 0.63636 0.0
C307 C 0.61899 0.3344 0.59423 0.0
C308 C 0.6515 0.30054 0.55665 0.0
H309 H 0.74715 0.32783 0.69689 0.0
H310 H 0.70559 0.24427 0.7404 0.0
H311 H 0.70696 0.23348 0.6598 0.0
H312 H 0.67146 0.22878 0.65352 0.0
H313 H 0.68517 0.21968 0.69082 0.0
H314 H 0.65588 0.28333 0.73067 0.0
H315 H 0.64951 0.24743 0.72189 0.0
H316 H 0.63432 0.27458 0.69959 0.0
H317 H 0.72479 0.40925 0.62865 0.0
H318 H 0.66961 0.4034 0.55084 0.0
H319 H 0.66078 0.35612 0.56213 0.0
H320 H 0.68883 0.37955 0.68027 0.0
H321 H 0.72468 0.38813 0.68137 0.0
H322 H 0.71207 0.35813 0.69997 0.0
H323 H 0.7535 0.34636 0.61211 0.0
H324 H 0.75486 0.32578 0.64536 0.0
H325 H 0.76134 0.36239 0.65008 0.0
H326 H 0.76648 0.30759 0.74265 0.0
C327 C 0.73774 0.30972 0.70552 0.0
C328 C 0.62678 0.50738 0.27284 0.0
C329 C 0.61129 0.52597 0.29483 0.0
C330 C 0.58286 0.52159 0.30144 0.0
C331 C 0.58645 0.47933 0.26719 0.0
C332 C 0.61388 0.48438 0.25912 0.0
C333 C 0.62719 0.46218 0.23573 0.0
H334 H 0.61876 0.33714 0.15526 0.0
C335 C 0.5799 0.45252 0.25122 0.0
C336 C 0.60351 0.44254 0.23224 0.0
H337 H 0.68806 0.39137 0.15453 0.0
H338 H 0.66108 0.42549 0.1888 0.0
H339 H 0.6059 0.34358 0.22742 0.0
H340 H 0.56926 0.38576 0.15144 0.0
H341 H 0.54222 0.37627 0.17823 0.0
H342 H 0.56521 0.34966 0.15805 0.0
H343 H 0.57917 0.32844 0.20499 0.0
H344 H 0.57116 0.35078 0.24071 0.0
C345 C 0.6521 0.44846 0.25156 0.0
C346 C 0.635 0.47569 0.20389 0.0
C347 C 0.49086 0.40692 0.28512 0.0
C348 C 0.48131 0.38013 0.27884 0.0
C349 C 0.4956 0.36234 0.25498 0.0
C350 C 0.51973 0.3707 0.23862 0.0
C351 C 0.52998 0.39693 0.24661 0.0
C352 C 0.51527 0.41476 0.26906 0.0
C353 C 0.52998 0.44118 0.27581 0.0
C354 C 0.55627 0.43601 0.25423 0.0
C355 C 0.55612 0.4101 0.23722 0.0
C356 C 0.53609 0.44297 0.3119 0.0
C357 C 0.51173 0.46579 0.26522 0.0
C358 C 0.62821 0.35631 0.16248 0.0
C359 C 0.65564 0.36145 0.15205 0.0
C360 C 0.66687 0.38694 0.16178 0.0
C361 C 0.65124 0.40669 0.18193 0.0
C362 C 0.62412 0.40088 0.19276 0.0
C363 C 0.61299 0.37613 0.18279 0.0
C364 C 0.5842 0.37304 0.19743 0.0
C365 C 0.57965 0.40031 0.21728 0.0
C366 C 0.60315 0.41649 0.21465 0.0
C367 C 0.58487 0.34761 0.2186 0.0
C368 C 0.56401 0.37087 0.17 0.0
H369 H 0.54888 0.49604 0.29429 0.0
H370 H 0.64855 0.51042 0.26689 0.0
H371 H 0.62002 0.49306 0.19971 0.0
H372 H 0.63411 0.46114 0.18261 0.0
H373 H 0.656 0.48427 0.20419 0.0
H374 H 0.64669 0.44539 0.27732 0.0
H375 H 0.67041 0.46167 0.25033 0.0
H376 H 0.65829 0.42758 0.24079 0.0
H377 H 0.48057 0.42087 0.30372 0.0
H378 H 0.48848 0.34166 0.24965 0.0
H379 H 0.52999 0.35604 0.22115 0.0
H380 H 0.54286 0.42222 0.31969 0.0
H381 H 0.51727 0.45024 0.32706 0.0
H382 H 0.55311 0.45662 0.31759 0.0
H383 H 0.49877 0.45914 0.24521 0.0
H384 H 0.52424 0.4825 0.25558 0.0
H385 H 0.49745 0.47466 0.28531 0.0
H386 H 0.57045 0.53538 0.31845 0.0
C387 C 0.57038 0.49851 0.28765 0.0
C388 C 0.21408 0.15712 0.73712 0.0
C389 C 0.2402 0.14796 0.72292 0.0
C390 C 0.25343 0.12404 0.73404 0.0
C391 C 0.21459 0.11903 0.77255 0.0
C392 C 0.20169 0.14239 0.7615 0.0
C393 C 0.17369 0.14928 0.77818 0.0
H394 H 0.07227 0.1161 0.88551 0.0
C395 C 0.19604 0.1088 0.7983 0.0
C396 C 0.17202 0.12651 0.80156 0.0
H397 H 0.07081 0.18384 0.82229 0.0
H398 H 0.11811 0.17115 0.80251 0.0
H399 H 0.10231 0.07045 0.83504 0.0
H400 H 0.13055 0.1257 0.90908 0.0
H401 H 0.1539 0.09679 0.9075 0.0
H402 H 0.1175 0.09256 0.91788 0.0
H403 H 0.09507 0.06702 0.8772 0.0
H404 H 0.12596 0.05128 0.8565 0.0
C405 C 0.15152 0.14678 0.75286 0.0
C406 C 0.17434 0.1784 0.7957 0.0
C407 C 0.22388 0.02299 0.85727 0.0
C408 C 0.21079 0.01036 0.88324 0.0
C409 C 0.18528 0.02161 0.89705 0.0
C410 C 0.17257 0.04496 0.88504 0.0
C411 C 0.18552 0.05738 0.85894 0.0
C412 C 0.21096 0.04678 0.84574 0.0
C413 C 0.22195 0.06395 0.81913 0.0
C414 C 0.19867 0.08613 0.81839 0.0
C415 C 0.17734 0.0818 0.84155 0.0
C416 C 0.22497 0.04524 0.7877 0.0
C417 C 0.24939 0.0764 0.82936 0.0
C418 C 0.08205 0.12805 0.86716 0.0
C419 C 0.06773 0.15063 0.85494 0.0
C420 C 0.08145 0.16624 0.83188 0.0
C421 C 0.10881 0.15873 0.82037 0.0
C422 C 0.12256 0.13548 0.83221 0.0
C423 C 0.10922 0.1209 0.85557 0.0
C424 C 0.12692 0.0972 0.86604 0.0
C425 C 0.15291 0.09929 0.84434 0.0
C426 C 0.15028 0.12164 0.82456 0.0
C427 C 0.1119 0.06996 0.8586 0.0
C428 C 0.13246 0.10309 0.90199 0.0
H429 H 0.2518 0.09146 0.76611 0.0
H430 H 0.20346 0.17568 0.72974 0.0
H431 H 0.19486 0.18151 0.80593 0.0
H432 H 0.15905 0.18138 0.81641 0.0
H433 H 0.17076 0.19509 0.77898 0.0
H434 H 0.15749 0.12976 0.73436 0.0
H435 H 0.14908 0.16632 0.74029 0.0
H436 H 0.13104 0.14127 0.76314 0.0
H437 H 0.24365 0.01472 0.84649 0.0
H438 H 0.17497 0.012 0.91703 0.0
H439 H 0.15301 0.05226 0.89649 0.0
H440 H 0.20722 0.0313 0.78609 0.0
H441 H 0.24437 0.03196 0.78663 0.0
H442 H 0.22469 0.05715 0.76596 0.0
H443 H 0.24805 0.08258 0.85547 0.0
H444 H 0.25422 0.09557 0.81739 0.0
H445 H 0.26713 0.06106 0.82465 0.0
H446 H 0.27344 0.11634 0.72339 0.0
C447 C 0.24078 0.10954 0.75877 0.0
C448 C 0.25995 0.71777 0.35772 0.0
C449 C 0.26948 0.74166 0.34359 0.0
C450 C 0.29103 0.75612 0.35743 0.0
C451 C 0.29461 0.72202 0.39742 0.0
C452 C 0.27285 0.7083 0.38451 0.0
C453 C 0.2667 0.68221 0.40124 0.0
H454 H 0.30206 0.59116 0.51095 0.0
C455 C 0.30452 0.70607 0.42393 0.0
C456 C 0.28804 0.68288 0.42661 0.0
H457 H 0.2408 0.58226 0.44017 0.0
H458 H 0.24871 0.62884 0.42384 0.0
H459 H 0.34529 0.61279 0.46529 0.0
H460 H 0.28782 0.65813 0.53333 0.0
H461 H 0.31985 0.67413 0.53524 0.0
H462 H 0.31741 0.6383 0.54507 0.0
H463 H 0.35024 0.61479 0.50756 0.0
H464 H 0.36341 0.64037 0.48158 0.0
C465 C 0.27202 0.65706 0.37652 0.0
C466 C 0.23668 0.68527 0.41645 0.0
C467 C 0.39341 0.73189 0.47547 0.0
C468 C 0.40877 0.7195 0.49888 0.0
C469 C 0.39685 0.69831 0.51628 0.0
C470 C 0.37095 0.68836 0.50901 0.0
C471 C 0.35689 0.69945 0.48383 0.0
C472 C 0.36758 0.72159 0.4684 0.0
C473 C 0.34945 0.73097 0.44261 0.0
C474 C 0.32693 0.70987 0.44408 0.0
C475 C 0.33163 0.69126 0.46798 0.0
C476 C 0.36693 0.72817 0.4102 0.0
C477 C 0.33783 0.76085 0.45244 0.0
C478 C 0.28978 0.59962 0.4926 0.0
C479 C 0.27058 0.58333 0.47703 0.0
C480 C 0.25563 0.5946 0.4525 0.0
C481 C 0.2604 0.62152 0.44298 0.0
C482 C 0.28083 0.63702 0.45762 0.0
C483 C 0.29487 0.6261 0.48226 0.0
C484 C 0.31759 0.64422 0.49308 0.0
C485 C 0.3149 0.66787 0.47091 0.0
C486 C 0.29326 0.66366 0.4503 0.0
C487 C 0.34566 0.62735 0.48688 0.0
C488 C 0.3106 0.65417 0.5286 0.0
H489 H 0.32002 0.75829 0.3935 0.0
H490 H 0.2436 0.70609 0.34739 0.0
H491 H 0.23252 0.70643 0.42816 0.0
H492 H 0.23273 0.67077 0.43551 0.0
H493 H 0.22131 0.6821 0.39792 0.0
H494 H 0.28799 0.66145 0.35743 0.0
H495 H 0.25277 0.65182 0.36456 0.0
H496 H 0.28049 0.63837 0.3873 0.0
H497 H 0.4018 0.74855 0.46211 0.0
H498 H 0.40822 0.6883 0.53436 0.0
H499 H 0.36346 0.67156 0.52234 0.0
H500 H 0.37998 0.70854 0.40828 0.0
H501 H 0.38102 0.74569 0.40797 0.0
H502 H 0.35424 0.72709 0.3891 0.0
H503 H 0.3363 0.7648 0.47899 0.0
H504 H 0.31638 0.76457 0.44512 0.0
H505 H 0.35137 0.77666 0.44229 0.0
H506 H 0.29844 0.77477 0.34715 0.0
C507 C 0.30349 0.74655 0.38436 0.0
C508 C 0.8565 0.91219 0.8477 0.0
C509 C 0.87272 0.9327 0.86149 0.0
C510 C 0.90034 0.92585 0.86819 0.0
C511 C 0.89503 0.87828 0.84862 0.0
C512 C 0.86822 0.88527 0.84107 0.0
C513 C 0.85458 0.86121 0.82485 0.0
H514 H 0.86337 0.72844 0.76212 0.0
C515 C 0.90069 0.8485 0.83944 0.0
C516 C 0.87726 0.83844 0.82509 0.0
H517 H 0.79642 0.79024 0.75851 0.0
H518 H 0.8208 0.8226 0.79109 0.0
H519 H 0.91642 0.77002 0.75492 0.0
H520 H 0.87065 0.74042 0.83677 0.0
H521 H 0.90456 0.74559 0.84833 0.0
H522 H 0.89884 0.72004 0.81632 0.0
H523 H 0.91511 0.73411 0.76403 0.0
H524 H 0.93938 0.75639 0.7823 0.0
C525 C 0.84857 0.86893 0.79028 0.0
C526 C 0.8285 0.85465 0.84596 0.0
C527 C 0.98975 0.80127 0.87098 0.0
C528 C 0.99904 0.77336 0.87063 0.0
C529 C 0.98346 0.75277 0.85572 0.0
C530 C 0.95874 0.76006 0.84136 0.0
C531 C 0.94928 0.78811 0.84272 0.0
C532 C 0.96473 0.8081 0.85753 0.0
C533 C 0.95046 0.83642 0.85961 0.0
C534 C 0.92374 0.83022 0.8438 0.0
C535 C 0.9233 0.80202 0.83342 0.0
C536 C 0.96861 0.85593 0.83991 0.0
C537 C 0.94518 0.84585 0.89563 0.0
C538 C 0.85415 0.749 0.76841 0.0
C539 C 0.82803 0.75689 0.75769 0.0
C540 C 0.81639 0.78362 0.76672 0.0
C541 C 0.83069 0.80251 0.78543 0.0
C542 C 0.85697 0.79467 0.79541 0.0
C543 C 0.86814 0.76816 0.78752 0.0
C544 C 0.89577 0.76339 0.8019 0.0
C545 C 0.90006 0.79203 0.81757 0.0
C546 C 0.87717 0.81016 0.81367 0.0
C547 C 0.91798 0.75542 0.77446 0.0
C548 C 0.89254 0.74111 0.82701 0.0
H549 H 0.9326 0.89482 0.86791 0.0
H550 H 0.83535 0.91711 0.84186 0.0
H551 H 0.83276 0.85655 0.87186 0.0
H552 H 0.82194 0.83315 0.84167 0.0
H553 H 0.8108 0.86929 0.8422 0.0
H554 H 0.86338 0.88418 0.78121 0.0
H555 H 0.82728 0.87835 0.78934 0.0
H556 H 0.85131 0.85098 0.77258 0.0
H557 H 0.001 0.81735 0.88314 0.0
H558 H 0.99023 0.73109 0.85565 0.0
H559 H 0.94764 0.74359 0.83034 0.0
H560 H 0.98025 0.84427 0.8193 0.0
H561 H 0.98408 0.86597 0.85493 0.0
H562 H 0.95616 0.87215 0.82885 0.0
H563 H 0.93938 0.82801 0.90999 0.0
H564 H 0.92771 0.86123 0.9003 0.0
H565 H 0.96407 0.85458 0.90554 0.0
H566 H 0.91311 0.94142 0.87889 0.0
C567 C 0.91155 0.89877 0.86193 0.0
H568 H 0.18861 0.88453 0.17148 0.0
H569 H 0.18153 0.93384 0.0891 0.0
H570 H 0.17956 0.9266 0.20717 0.0
H571 H 0.17343 0.97574 0.12457 0.0
H572 H 0.17881 0.04801 0.19855 0.0
H573 H 0.19892 0.00498 0.17104 0.0
H574 H 0.1315 0.95952 0.21149 0.0
H575 H 0.11105 0.00264 0.23839 0.0
C576 C 0.18589 0.90445 0.16108 0.0
C577 C 0.18567 0.90608 0.12766 0.0
C578 C 0.18063 0.92838 0.18142 0.0
C579 C 0.17592 0.95428 0.16849 0.0
C580 C 0.17728 0.95603 0.13505 0.0
C581 C 0.18178 0.9321 0.11481 0.0
C582 C 0.1687 0.02868 0.20212 0.0
C583 C 0.14339 0.0285 0.2204 0.0
C584 C 0.18013 0.00418 0.18638 0.0
C585 C 0.16673 0.97907 0.1893 0.0
C586 C 0.14233 0.97861 0.20919 0.0
C587 C 0.13059 0.00321 0.22437 0.0
H588 H 0.57603 0.67008 0.62044 0.0
H589 H 0.65454 0.68085 0.66326 0.0
H590 H 0.55366 0.66419 0.67329 0.0
H591 H 0.63206 0.67406 0.71647 0.0
H592 H 0.57657 0.6115 0.78268 0.0
H593 H 0.60507 0.62752 0.73743 0.0
H594 H 0.54586 0.69575 0.72938 0.0
H595 H 0.51761 0.68008 0.7747 0.0
C596 C 0.58845 0.67131 0.64123 0.0
C597 C 0.61699 0.67587 0.63786 0.0
C598 C 0.57563 0.66811 0.67144 0.0
C599 C 0.59118 0.6688 0.69881 0.0
C600 C 0.6197 0.67356 0.69562 0.0
C601 C 0.63246 0.6775 0.66534 0.0
C602 C 0.57013 0.63036 0.77179 0.0
C603 C 0.54491 0.64453 0.78212 0.0
C604 C 0.58644 0.63957 0.74608 0.0
C605 C 0.5775 0.66276 0.73001 0.0
C606 C 0.55314 0.67783 0.74149 0.0
C607 C 0.5371 0.66893 0.7675 0.0
H608 H 0.81429 0.07895 0.05496 0.0
H609 H 0.75639 0.14449 0.09404 0.0
H610 H 0.79446 0.04731 0.09219 0.0
H611 H 0.73668 0.11241 0.13232 0.0
H612 H 0.75844 0.04771 0.21798 0.0
H613 H 0.76014 0.08485 0.18025 0.0
H614 H 0.7463 0.02522 0.10252 0.0
H615 H 0.74472 0.98831 0.14015 0.0
C616 C 0.79727 0.08662 0.07155 0.0
C617 C 0.78698 0.11425 0.07168 0.0
C618 C 0.78572 0.06838 0.09267 0.0
C619 C 0.76382 0.07734 0.11484 0.0
C620 C 0.75343 0.105 0.11524 0.0
C621 C 0.76468 0.12326 0.09343 0.0
C622 C 0.75427 0.04294 0.19312 0.0
C623 C 0.75134 0.01531 0.18183 0.0
C624 C 0.75534 0.06412 0.17153 0.0
C625 C 0.75372 0.05775 0.13848 0.0
C626 C 0.74776 0.0306 0.12787 0.0
C627 C 0.74664 0.00954 0.14937 0.0
H628 H 0.43149 0.3314 0.57698 0.0
H629 H 0.41497 0.25096 0.53318 0.0
H630 H 0.47509 0.31247 0.59531 0.0
H631 H 0.45938 0.23219 0.55083 0.0
H632 H 0.56197 0.2426 0.54896 0.0
H633 H 0.51351 0.24915 0.53514 0.0
H634 H 0.48933 0.27087 0.63463 0.0
H635 H 0.53758 0.26374 0.64856 0.0
C636 C 0.43723 0.30966 0.57126 0.0
C637 C 0.41998 0.29266 0.55353 0.0
C638 C 0.46202 0.29881 0.58197 0.0
C639 C 0.47038 0.27088 0.5746 0.0
C640 C 0.45321 0.25376 0.55689 0.0
C641 C 0.42792 0.26448 0.54685 0.0
C642 C 0.54609 0.24774 0.56797 0.0
C643 C 0.55341 0.25261 0.59981 0.0
C644 C 0.51845 0.25147 0.56009 0.0
C645 C 0.49789 0.26064 0.58385 0.0
C646 C 0.5049 0.26375 0.61596 0.0
C647 C 0.53242 0.2595 0.62392 0.0
H648 H 0.70316 0.62754 0.43156 0.0
H649 H 0.61567 0.62753 0.45965 0.0
H650 H 0.69407 0.60462 0.37929 0.0
H651 H 0.60664 0.60515 0.40802 0.0
H652 H 0.59182 0.57955 0.3087 0.0
H653 H 0.60822 0.6125 0.34913 0.0
H654 H 0.67733 0.55597 0.36367 0.0
H655 H 0.66086 0.52289 0.32335 0.0
C656 C 0.68201 0.62309 0.42634 0.0
C657 C 0.66014 0.62904 0.44968 0.0
C658 C 0.67683 0.60993 0.39658 0.0
C659 C 0.64964 0.60322 0.38954 0.0
C660 C 0.62776 0.61038 0.41248 0.0
C661 C 0.63297 0.62297 0.44221 0.0
C662 C 0.61081 0.57439 0.32008 0.0
C663 C 0.62474 0.5484 0.3133 0.0
C664 C 0.62022 0.59326 0.34316 0.0
C665 C 0.64379 0.58659 0.3599 0.0
C666 C 0.65918 0.56173 0.35105 0.0
C667 C 0.64972 0.54278 0.32795 0.0
H668 H 0.92545 0.14022 0.97857 0.0
H669 H 0.90125 0.21396 0.93111 0.0
H670 H 0.96798 0.13521 0.94468 0.0
H671 H 0.94434 0.20871 0.89673 0.0
H672 H 0.04355 0.20137 0.8758 0.0
H673 H 0.99721 0.21023 0.90268 0.0
H674 H 0.98014 0.12353 0.88663 0.0
H675 H 0.02613 0.11474 0.86009 0.0
C676 C 0.92921 0.15544 0.96092 0.0
C677 C 0.90993 0.17753 0.9576 0.0
C678 C 0.95353 0.15241 0.94129 0.0
C679 C 0.95932 0.1714 0.91783 0.0
C680 C 0.94034 0.19379 0.91466 0.0
C681 C 0.91571 0.19673 0.93425 0.0
C682 C 0.02959 0.18441 0.87748 0.0
C683 C 0.03852 0.15729 0.86645 0.0
C684 C 0.00313 0.18946 0.8928 0.0
C685 C 0.98534 0.16745 0.89723 0.0
C686 C 0.99367 0.14076 0.88418 0.0
C687 C 0.01996 0.13574 0.869 0.0
H688 H 0.26342 0.41365 0.54429 0.0
H689 H 0.34401 0.42617 0.49829 0.0
H690 H 0.24718 0.45989 0.52954 0.0
H691 H 0.32751 0.47178 0.48285 0.0
H692 H 0.27843 0.53901 0.43412 0.0
H693 H 0.28564 0.49022 0.44604 0.0
H694 H 0.26771 0.51199 0.54683 0.0
H695 H 0.26112 0.56099 0.53502 0.0
C696 C 0.27749 0.42614 0.53073 0.0
C697 C 0.305 0.41649 0.52256 0.0
C698 C 0.26823 0.45249 0.52239 0.0
C699 C 0.2861 0.46914 0.50496 0.0
C700 C 0.31331 0.45915 0.49606 0.0
C701 C 0.32277 0.4332 0.50507 0.0
C702 C 0.27528 0.53324 0.4587 0.0
C703 C 0.26919 0.55364 0.48369 0.0
C704 C 0.27955 0.50543 0.46549 0.0
C705 C 0.27724 0.49753 0.4973 0.0
C706 C 0.26939 0.51764 0.5221 0.0
C707 C 0.26568 0.54556 0.51538 0.0
H708 H 0.1507 0.7665 0.97914 0.0
H709 H 0.0813 0.81183 0.03026 0.0
H710 H 0.11991 0.75134 0.93697 0.0
H711 H 0.05069 0.79599 0.98911 0.0
H712 H 0.99897 0.74462 0.92438 0.0
H713 H 0.03499 0.74461 0.96348 0.0
H714 H 0.08879 0.78735 0.89862 0.0
H715 H 0.05244 0.78807 0.85993 0.0
C716 C 0.12884 0.77276 0.98157 0.0
C717 C 0.11832 0.79046 0.00768 0.0
C718 C 0.11134 0.76412 0.95759 0.0
C719 C 0.083 0.77234 0.96011 0.0
C720 C 0.07241 0.78913 0.98687 0.0
C721 C 0.08994 0.79835 0.01022 0.0
C722 C 0.01891 0.753 0.91804 0.0
C723 C 0.02312 0.76624 0.88924 0.0
C724 C 0.0394 0.7531 0.94038 0.0
C725 C 0.06455 0.76595 0.9339 0.0
C726 C 0.06967 0.77704 0.90392 0.0
C727 C 0.04895 0.77747 0.88187 0.0
H728 H 0.87593 0.09607 0.94163 0.0
H729 H 0.78732 0.08538 0.94823 0.0
H730 H 0.88293 0.05252 0.91043 0.0
H731 H 0.79433 0.04164 0.91547 0.0
H732 H 0.82688 0.94824 0.90035 0.0
H733 H 0.81268 0.99528 0.92146 0.0
H734 H 0.87788 0.0281 0.86117 0.0
H735 H 0.89271 0.98098 0.84154 0.0
C736 C 0.8578 0.08461 0.93599 0.0
C737 C 0.83105 0.09412 0.94781 0.0
C738 C 0.86182 0.05963 0.91766 0.0
C739 C 0.83921 0.04346 0.91025 0.0
C740 C 0.81225 0.05343 0.92102 0.0
C741 C 0.8082 0.07856 0.93961 0.0
C742 C 0.83775 0.96566 0.8913 0.0
C743 C 0.86108 0.96114 0.86974 0.0
C744 C 0.82958 0.99262 0.90323 0.0
C745 C 0.84443 0.01552 0.89346 0.0
C746 C 0.86644 0.01093 0.86993 0.0
C747 C 0.87487 0.98401 0.8585 0.0
H748 H 0.37926 0.38611 0.44865 0.0
H749 H 0.38297 0.2976 0.42492 0.0
H750 H 0.40146 0.39388 0.39676 0.0
H751 H 0.40454 0.30554 0.37211 0.0
H752 H 0.48124 0.33153 0.30873 0.0
H753 H 0.44914 0.31901 0.352 0.0
H754 H 0.39835 0.39316 0.34027 0.0
H755 H 0.43111 0.40603 0.29752 0.0
C756 C 0.38444 0.36828 0.43215 0.0
C757 C 0.37971 0.34117 0.44119 0.0
C758 C 0.39693 0.37279 0.40212 0.0
C759 C 0.40486 0.35034 0.38016 0.0
C760 C 0.39905 0.32327 0.38862 0.0
C761 C 0.38661 0.31873 0.41884 0.0
C762 C 0.4628 0.34475 0.31481 0.0
C763 C 0.45878 0.36989 0.30002 0.0
C764 C 0.44434 0.33755 0.33963 0.0
C765 C 0.42135 0.35528 0.35 0.0
C766 C 0.41621 0.37937 0.33342 0.0
C767 C 0.43485 0.38669 0.30883 0.0
H768 H 0.24775 0.88595 0.0176 0.0
H769 H 0.17325 0.86799 0.96897 0.0
H770 H 0.26041 0.91843 0.97713 0.0
H771 H 0.18576 0.90063 0.9289 0.0
H772 H 0.21235 0.95772 0.8564 0.0
H773 H 0.21759 0.91517 0.88529 0.0
H774 H 0.23836 0.96428 0.9696 0.0
H775 H 0.23321 0.0064 0.9406 0.0
C776 C 0.23433 0.88849 0.99796 0.0
C777 C 0.20918 0.87479 0.99689 0.0
C778 C 0.2416 0.90714 0.97481 0.0
C779 C 0.22398 0.91232 0.94999 0.0
C780 C 0.19995 0.89697 0.94753 0.0
C781 C 0.19262 0.87842 0.97073 0.0
C782 C 0.21923 0.95911 0.88064 0.0
C783 C 0.22254 0.9851 0.89638 0.0
C784 C 0.22194 0.93487 0.89728 0.0
C785 C 0.22807 0.93638 0.92984 0.0
C786 C 0.2339 0.9623 0.94449 0.0
C787 C 0.23097 0.98646 0.92795 0.0
H788 H 0.57954 0.67959 0.481 0.0
H789 H 0.57737 0.74051 0.56112 0.0
H790 H 0.53151 0.69231 0.47182 0.0
H791 H 0.52916 0.75341 0.55168 0.0
H792 H 0.43581 0.72628 0.55455 0.0
H793 H 0.48586 0.72769 0.5596 0.0
H794 H 0.49849 0.72883 0.45656 0.0
H795 H 0.44857 0.72663 0.45143 0.0
C796 C 0.56897 0.69609 0.49627 0.0
C797 C 0.58216 0.7088 0.52201 0.0
C798 C 0.54148 0.70353 0.49086 0.0
C799 C 0.52649 0.72376 0.51116 0.0
C800 C 0.54013 0.73756 0.53585 0.0
C801 C 0.56777 0.73027 0.54111 0.0
C802 C 0.44926 0.72727 0.53303 0.0
C803 C 0.43826 0.72603 0.5026 0.0
C804 C 0.47791 0.72835 0.53593 0.0
C805 C 0.49613 0.7281 0.50842 0.0
C806 C 0.48497 0.72873 0.47814 0.0
C807 C 0.45634 0.72775 0.47526 0.0
H808 H 0.39677 0.36681 0.62486 0.0
H809 H 0.30909 0.38373 0.64822 0.0
H810 H 0.40754 0.39066 0.6748 0.0
H811 H 0.31994 0.407 0.69918 0.0
H812 H 0.35619 0.483 0.75476 0.0
H813 H 0.33948 0.45028 0.7146 0.0
H814 H 0.40645 0.39177 0.73166 0.0
H815 H 0.42359 0.42504 0.7713 0.0
C816 C 0.3797 0.37523 0.64092 0.0
C817 C 0.35206 0.37374 0.63225 0.0
C818 C 0.3859 0.3887 0.66986 0.0
C819 C 0.36463 0.40088 0.69107 0.0
C820 C 0.33685 0.3982 0.68317 0.0
C821 C 0.33062 0.38475 0.65404 0.0
C822 C 0.36692 0.46286 0.7505 0.0
C823 C 0.39136 0.45666 0.76586 0.0
C824 C 0.3573 0.44403 0.72751 0.0
C825 C 0.37182 0.4185 0.71954 0.0
C826 C 0.39514 0.41152 0.73667 0.0
C827 C 0.40491 0.43048 0.75944 0.0
H828 H 0.07714 0.79587 0.1132 0.0
H829 H 0.10872 0.87097 0.15575 0.0
H830 H 0.03193 0.80697 0.14113 0.0
H831 H 0.06411 0.88147 0.18494 0.0
H832 H 0.97378 0.91292 0.1886 0.0
H833 H 0.02071 0.89803 0.17006 0.0
H834 H 0.0029 0.81324 0.18926 0.0
H835 H 0.95504 0.82807 0.20598 0.0
C836 C 0.07459 0.81435 0.12924 0.0
C837 C 0.09622 0.83278 0.132 0.0
C838 C 0.04871 0.8207 0.14537 0.0
C839 C 0.04417 0.8454 0.16491 0.0
C840 C 0.06658 0.86271 0.16937 0.0
C841 C 0.09221 0.85662 0.15284 0.0
C842 C 0.97975 0.89105 0.18869 0.0
C843 C 0.96048 0.87165 0.19833 0.0
C844 C 0.00691 0.88253 0.17856 0.0
C845 C 0.01574 0.85438 0.17819 0.0
C846 C 0.99674 0.83503 0.18887 0.0
C847 C 0.96939 0.84358 0.19881 0.0
H848 H 0.65278 0.58583 0.60314 0.0
H849 H 0.7231 0.57878 0.53388 0.0
H850 H 0.65992 0.53712 0.61384 0.0
H851 H 0.72997 0.52975 0.54443 0.0
H852 H 0.74196 0.44405 0.58942 0.0
H853 H 0.74104 0.49474 0.58559 0.0
H854 H 0.65201 0.49535 0.57929 0.0
H855 H 0.65284 0.44543 0.58366 0.0
C856 C 0.66995 0.57399 0.59041 0.0
C857 C 0.68706 0.5861 0.56723 0.0
C858 C 0.67398 0.54605 0.5965 0.0
C859 C 0.6952 0.52952 0.57956 0.0
C860 C 0.71347 0.542 0.55788 0.0
C861 C 0.70944 0.57005 0.55176 0.0
C862 C 0.72226 0.45515 0.58731 0.0
C863 C 0.69752 0.44077 0.5865 0.0
C864 C 0.72175 0.48406 0.585 0.0
C865 C 0.69642 0.499 0.5824 0.0
C866 C 0.67179 0.48451 0.58175 0.0
C867 C 0.67233 0.45582 0.58379 0.0
H868 H 0.87103 0.1612 0.11137 0.0
H869 H 0.88465 0.24162 0.0742 0.0
H870 H 0.90034 0.17217 0.15497 0.0
H871 H 0.91342 0.25313 0.11891 0.0
H872 H 0.9965 0.23939 0.17043 0.0
H873 H 0.95871 0.23979 0.13397 0.0
H874 H 0.90747 0.19803 0.20286 0.0
H875 H 0.94595 0.19654 0.23832 0.0
C876 C 0.87984 0.1815 0.11283 0.0
C877 C 0.87576 0.20036 0.08896 0.0
C878 C 0.89652 0.18795 0.13816 0.0
C879 C 0.9094 0.21357 0.14056 0.0
C880 C 0.90419 0.23304 0.11757 0.0
C881 C 0.88757 0.2265 0.09202 0.0
C882 C 0.97681 0.2311 0.17801 0.0
C883 C 0.97395 0.21794 0.20698 0.0
C884 C 0.9551 0.23132 0.1572 0.0
C885 C 0.93011 0.21851 0.16518 0.0
C886 C 0.92662 0.20746 0.19555 0.0
C887 C 0.94847 0.20688 0.21605 0.0
H888 H 0.17535 0.76426 0.1742 0.0
H889 H 0.24326 0.81947 0.16501 0.0
H890 H 0.19157 0.75037 0.22535 0.0
H891 H 0.25879 0.80661 0.21666 0.0
H892 H 0.2987 0.7546 0.28947 0.0
H893 H 0.28087 0.76898 0.23951 0.0
H894 H 0.19683 0.76415 0.28 0.0
H895 H 0.21497 0.74869 0.32976 0.0
C896 C 0.19356 0.77366 0.1833 0.0
C897 C 0.20822 0.79272 0.16542 0.0
C898 C 0.20278 0.76583 0.21274 0.0
C899 C 0.22666 0.77717 0.22512 0.0
C900 C 0.24075 0.79689 0.20757 0.0
C901 C 0.23177 0.8044 0.178 0.0
C902 C 0.27642 0.75679 0.28772 0.0
C903 C 0.2582 0.75072 0.3135 0.0
C904 C 0.26615 0.76516 0.25912 0.0
C905 C 0.23736 0.76802 0.2557 0.0
C906 C 0.21911 0.76187 0.28159 0.0
C907 C 0.22944 0.75313 0.31014 0.0
H908 H 0.70663 0.73353 0.62731 0.0
H909 H 0.75848 0.66048 0.59735 0.0
H910 H 0.73565 0.74314 0.67165 0.0
H911 H 0.78783 0.6703 0.64244 0.0
H912 H 0.84816 0.72939 0.70165 0.0
H913 H 0.82062 0.70832 0.65991 0.0
H914 H 0.74656 0.72222 0.72268 0.0
H915 H 0.77395 0.74342 0.76403 0.0
C916 C 0.72427 0.71948 0.63014 0.0
C917 C 0.73029 0.69629 0.60864 0.0
C918 C 0.74076 0.72485 0.65584 0.0
C919 C 0.76381 0.70727 0.66076 0.0
C920 C 0.77013 0.68415 0.6392 0.0
C921 C 0.75335 0.67855 0.61347 0.0
C922 C 0.82613 0.72712 0.70678 0.0
C923 C 0.81305 0.73839 0.73579 0.0
C924 C 0.81039 0.7151 0.68292 0.0
C925 C 0.78139 0.71418 0.68785 0.0
C926 C 0.7688 0.72322 0.71798 0.0
C927 C 0.78445 0.73526 0.74166 0.0
H928 H 0.79557 0.26804 0.05848 0.0
H929 H 0.72815 0.21377 0.04109 0.0
H930 H 0.76299 0.30238 0.0859 0.0
H931 H 0.69542 0.24848 0.0688 0.0
H932 H 0.65699 0.30503 0.15707 0.0
H933 H 0.68651 0.26992 0.12591 0.0
H934 H 0.72326 0.3339 0.07147 0.0
H935 H 0.69325 0.36907 0.10197 0.0
C936 C 0.77378 0.26339 0.0605 0.0
C937 C 0.76445 0.23811 0.04756 0.0
C938 C 0.75511 0.28321 0.07602 0.0
C939 C 0.72669 0.27816 0.07928 0.0
C940 C 0.71727 0.25283 0.06667 0.0
C941 C 0.73597 0.23304 0.05075 0.0
C942 C 0.67095 0.31162 0.13804 0.0
C943 C 0.67279 0.33994 0.13212 0.0
C944 C 0.68788 0.29147 0.12026 0.0
C945 C 0.70722 0.29922 0.0964 0.0
C946 C 0.70876 0.32741 0.09004 0.0
C947 C 0.69166 0.34754 0.10761 0.0
H948 H 0.27875 0.2911 0.62634 0.0
H949 H 0.33079 0.23076 0.56773 0.0
H950 H 0.26278 0.25441 0.65976 0.0
H951 H 0.31506 0.19402 0.60208 0.0
H952 H 0.29538 0.15925 0.71295 0.0
H953 H 0.31563 0.1902 0.67425 0.0
H954 H 0.23516 0.20456 0.63707 0.0
H955 H 0.215 0.17276 0.67431 0.0
C956 C 0.287 0.27007 0.62077 0.0
C957 C 0.30596 0.26378 0.59432 0.0
C958 C 0.27779 0.24913 0.63985 0.0
C959 C 0.28774 0.2216 0.63329 0.0
C960 C 0.30721 0.21522 0.60746 0.0
C961 C 0.31607 0.23615 0.58786 0.0
C962 C 0.28213 0.16836 0.69594 0.0
C963 C 0.25345 0.16385 0.69713 0.0
C964 C 0.29374 0.1861 0.67394 0.0
C965 C 0.27679 0.19975 0.65308 0.0
C966 C 0.2485 0.19433 0.65319 0.0
C967 C 0.23699 0.17634 0.67472 0.0
H968 H 0.74379 0.7196 0.48089 0.0
H969 H 0.66314 0.76253 0.48705 0.0
H970 H 0.76173 0.75407 0.44588 0.0
H971 H 0.68136 0.79725 0.45179 0.0
H972 H 0.72301 0.83 0.35552 0.0
H973 H 0.70054 0.80009 0.39382 0.0
H974 H 0.77165 0.80449 0.45178 0.0
H975 H 0.7939 0.83438 0.41389 0.0
C976 C 0.72985 0.73638 0.47479 0.0
C977 C 0.70205 0.73836 0.48695 0.0
C978 C 0.74021 0.75625 0.45487 0.0
C979 C 0.72302 0.77852 0.44639 0.0
C980 C 0.69506 0.78029 0.45795 0.0
C981 C 0.6847 0.76048 0.47821 0.0
C982 C 0.73351 0.82507 0.37684 0.0
C983 C 0.76039 0.83415 0.38146 0.0
C984 C 0.72069 0.80791 0.39869 0.0
C985 C 0.7346 0.79956 0.42543 0.0
C986 C 0.76072 0.81007 0.43099 0.0
C987 C 0.77343 0.8272 0.40932 0.0
H988 H 0.76891 0.17576 0.90774 0.0
H989 H 0.82098 0.24582 0.92101 0.0
H990 H 0.75396 0.19358 0.858 0.0
H991 H 0.80681 0.26316 0.87055 0.0
H992 H 0.75049 0.30297 0.80008 0.0
H993 H 0.76767 0.28437 0.84849 0.0
H994 H 0.76776 0.20125 0.804 0.0
H995 H 0.74981 0.21998 0.75587 0.0
C996 C 0.77744 0.19481 0.89985 0.0
C997 C 0.79601 0.20946 0.9185 0.0
C998 C 0.76898 0.20497 0.87115 0.0
C999 C 0.77909 0.22989 0.86018 0.0
C1000 C 0.79817 0.2442 0.87851 0.0
C1001 C 0.80643 0.23417 0.90739 0.0
C1002 C 0.75441 0.28075 0.80058 0.0
C1003 C 0.74881 0.26293 0.7742 0.0
C1004 C 0.76436 0.27006 0.82831 0.0
C1005 C 0.76919 0.24127 0.83024 0.0
C1006 C 0.76386 0.22347 0.80362 0.0
C1007 C 0.75365 0.23418 0.77599 0.0
H1008 H 0.23576 0.3052 0.52041 0.0
H1009 H 0.29296 0.30483 0.43696 0.0
H1010 H 0.19915 0.28993 0.48619 0.0
H1011 H 0.25638 0.28969 0.40293 0.0
H1012 H 0.18034 0.27619 0.34666 0.0
H1013 H 0.20891 0.30299 0.38299 0.0
H1014 H 0.19522 0.2436 0.45515 0.0
H1015 H 0.16702 0.21694 0.41887 0.0
C1016 C 0.2404 0.3023 0.49475 0.0
C1017 C 0.26734 0.30585 0.48142 0.0
C1018 C 0.21946 0.29353 0.47521 0.0
C1019 C 0.22497 0.28858 0.44195 0.0
C1020 C 0.25147 0.29359 0.42844 0.0
C1021 C 0.27248 0.302 0.44799 0.0
C1022 C 0.183 0.26935 0.37058 0.0
C1023 C 0.17173 0.24453 0.38006 0.0
C1024 C 0.1994 0.28453 0.39124 0.0
C1025 C 0.20432 0.2753 0.42182 0.0
C1026 C 0.19157 0.25136 0.43187 0.0
C1027 C 0.1756 0.23602 0.4111 0.0
H1028 H 0.23334 0.7291 0.07114 0.0
H1029 H 0.24446 0.78381 0.99376 0.0
H1030 H 0.2661 0.69505 0.04317 0.0
H1031 H 0.27553 0.74914 0.96443 0.0
H1032 H 0.35001 0.69559 0.93088 0.0
H1033 H 0.31926 0.72902 0.96173 0.0
H1034 H 0.27418 0.66207 0.00167 0.0
H1035 H 0.30704 0.6286 0.97369 0.0
C1036 C 0.2425 0.73356 0.04783 0.0
C1037 C 0.23656 0.75904 0.03461 0.0
C1038 C 0.26118 0.71399 0.03162 0.0
C1039 C 0.27374 0.7192 0.00142 0.0
C1040 C 0.26704 0.74455 0.98796 0.0
C1041 C 0.24899 0.76438 0.00459 0.0
C1042 C 0.33407 0.68785 0.94688 0.0
C1043 C 0.33126 0.65916 0.94968 0.0
C1044 C 0.31588 0.70718 0.96414 0.0
C1045 C 0.29381 0.69845 0.98405 0.0
C1046 C 0.29103 0.66977 0.98695 0.0
C1047 C 0.30968 0.65043 0.97032 0.0
loop_
_geom_bond_atom_site_label_1
_geom_bond_atom_site_label_2
_geom_bond_distance
_geom_bond_site_symmetry_2
_ccdc_geom_bond_type
Fe0 O2 1.918 . S
Fe0 O5 1.997 . S
Fe0 O6 2.002 . S
Fe0 O11 1.976 . S
Fe0 O14 1.996 . S
Fe1 O2 1.918 . S
Fe1 O9 1.997 . S
Fe1 O12 1.996 . S
Fe1 O16 1.976 . S
Fe1 O19 2.002 . S
O2 Fe0 1.918 . S
O2 Fe1 1.918 . S
O2 Fe3 1.918 . S
Fe3 O2 1.918 . S
Fe3 O4 2.002 . S
Fe3 O13 1.976 . S
Fe3 O17 1.996 . S
Fe3 O20 1.997 . S
O4 Fe3 2.002 . S
O4 C21 1.295 . S
O5 Fe0 1.997 . S
O5 C21 1.235 . S
O6 Fe0 2.002 . S
O6 C7 1.295 . S
C7 O6 1.295 . S
C7 O9 1.235 . S
C8 O13 1.287 . S
C8 O14 1.255 . S
O9 Fe1 1.997 . S
O9 C7 1.235 . S
C10 O16 1.287 . S
C10 O17 1.255 . S
O11 Fe0 1.976 . S
O11 C18 1.287 . S
O12 Fe1 1.996 . S
O12 C18 1.255 . S
O13 Fe3 1.976 . S
O13 C8 1.287 . S
O14 Fe0 1.996 . S
O14 C8 1.255 . S
C15 O19 1.295 . S
C15 O20 1.235 . S
O16 Fe1 1.976 . S
O16 C10 1.287 . S
O17 Fe3 1.996 . S
O17 C10 1.255 . S
C18 O11 1.287 . S
C18 O12 1.255 . S
O19 Fe1 2.002 . S
O19 C15 1.295 . S
O20 Fe3 1.997 . S
O20 C15 1.235 . S
C21 O4 1.295 . S
C21 O5 1.235 . S
Fe22 O24 1.918 . S
Fe22 O27 1.997 . S
Fe22 O28 2.002 . S
Fe22 O33 1.976 . S
Fe22 O36 1.996 . S
Fe23 O24 1.918 . S
Fe23 O31 1.997 . S
Fe23 O34 1.996 . S
Fe23 O38 1.976 . S
Fe23 O41 2.002 . S
O24 Fe22 1.918 . S
O24 Fe23 1.918 . S
O24 Fe25 1.918 . S
Fe25 O24 1.918 . S
Fe25 O26 2.002 . S
Fe25 O35 1.976 . S
Fe25 O39 1.996 . S
Fe25 O42 1.997 . S
O26 Fe25 2.002 . S
O26 C43 1.295 . S
O27 Fe22 1.997 . S
O27 C43 1.235 . S
O28 Fe22 2.002 . S
O28 C29 1.295 . S
C29 O28 1.295 . S
C29 O31 1.235 . S
C30 O35 1.287 . S
C30 O36 1.255 . S
O31 Fe23 1.997 . S
O31 C29 1.235 . S
C32 O38 1.287 . S
C32 O39 1.255 . S
O33 Fe22 1.976 . S
O33 C40 1.287 . S
O34 Fe23 1.996 . S
O34 C40 1.255 . S
O35 Fe25 1.976 . S
O35 C30 1.287 . S
O36 Fe22 1.996 . S
O36 C30 1.255 . S
C37 O41 1.295 . S
C37 O42 1.235 . S
O38 Fe23 1.976 . S
O38 C32 1.287 . S
O39 Fe25 1.996 . S
O39 C32 1.255 . S
C40 O33 1.287 . S
C40 O34 1.255 . S
O41 Fe23 2.002 . S
O41 C37 1.295 . S
O42 Fe25 1.997 . S
O42 C37 1.235 . S
C43 O26 1.295 . S
C43 O27 1.235 . S
Fe44 O46 1.918 . S
Fe44 O49 1.995 1_554 S
Fe44 O50 2.002 1_554 S
Fe44 O55 1.977 . S
Fe44 O58 1.996 . S
Fe45 O46 1.918 . S
Fe45 O53 1.997 1_554 S
Fe45 O56 1.996 . S
Fe45 O60 1.976 . S
Fe45 O63 2.002 1_554 S
O46 Fe44 1.918 . S
O46 Fe45 1.918 . S
O46 Fe47 1.919 . S
Fe47 O46 1.919 . S
Fe47 O48 1.996 1_554 S
Fe47 O57 1.979 . S
Fe47 O61 2.001 . S
Fe47 O64 1.993 1_554 S
O48 Fe47 1.996 1_556 S
O48 C65 1.295 . S
O49 Fe44 1.995 1_556 S
O49 C65 1.235 . S
O50 Fe44 2.002 1_556 S
O50 C51 1.295 . S
C51 O50 1.295 . S
C51 O53 1.235 . S
C52 O57 1.287 . S
C52 O58 1.255 . S
O53 Fe45 1.997 1_556 S
O53 C51 1.235 . S
C54 O60 1.287 . S
C54 O61 1.255 . S
O55 Fe44 1.977 . S
O55 C62 1.287 . S
O56 Fe45 1.996 . S
O56 C62 1.255 . S
O57 Fe47 1.979 . S
O57 C52 1.287 . S
O58 Fe44 1.996 . S
O58 C52 1.255 . S
C59 O63 1.295 . S
C59 O64 1.235 . S
O60 Fe45 1.976 . S
O60 C54 1.287 . S
O61 Fe47 2.001 . S
O61 C54 1.255 . S
C62 O55 1.287 . S
C62 O56 1.255 . S
O63 Fe45 2.002 1_556 S
O63 C59 1.295 . S
O64 Fe47 1.993 1_556 S
O64 C59 1.235 . S
C65 O48 1.295 . S
C65 O49 1.235 . S
Fe66 O68 1.918 . S
Fe66 O71 1.997 . S
Fe66 O72 2.002 . S
Fe66 O77 1.976 . S
Fe66 O80 1.996 . S
Fe67 O68 1.918 . S
Fe67 O75 1.997 . S
Fe67 O78 1.996 . S
Fe67 O82 1.976 . S
Fe67 O85 2.002 . S
O68 Fe66 1.918 . S
O68 Fe67 1.918 . S
O68 Fe69 1.918 . S
Fe69 O68 1.918 . S
Fe69 O70 2.002 . S
Fe69 O79 1.976 . S
Fe69 O83 1.996 . S
Fe69 O86 1.997 . S
O70 Fe69 2.002 . S
O70 C87 1.295 . S
O71 Fe66 1.997 . S
O71 C87 1.235 . S
O72 Fe66 2.002 . S
O72 C73 1.295 . S
C73 O72 1.295 . S
C73 O75 1.235 . S
C74 O79 1.287 . S
C74 O80 1.255 . S
O75 Fe67 1.997 . S
O75 C73 1.235 . S
C76 O82 1.287 . S
C76 O83 1.255 . S
O77 Fe66 1.976 . S
O77 C84 1.287 . S
O78 Fe67 1.996 . S
O78 C84 1.255 . S
O79 Fe69 1.976 . S
O79 C74 1.287 . S
O80 Fe66 1.996 . S
O80 C74 1.255 . S
C81 O85 1.295 . S
C81 O86 1.235 . S
O82 Fe67 1.976 . S
O82 C76 1.287 . S
O83 Fe69 1.996 . S
O83 C76 1.255 . S
C84 O77 1.287 . S
C84 O78 1.255 . S
O85 Fe67 2.002 . S
O85 C81 1.295 . S
O86 Fe69 1.997 . S
O86 C81 1.235 . S
C87 O70 1.295 . S
C87 O71 1.235 . S
C88 C89 1.391 . S
C88 C92 1.391 . S
C88 H130 0.948 . S
C89 C88 1.391 . S
C89 C90 1.391 . S
C90 C89 1.391 . S
C90 H146 0.947 . S
C90 C147 1.392 . S
C91 C92 1.391 . S
C91 C95 1.397 . S
C91 C147 1.419 . S
C92 C88 1.391 . S
C92 C91 1.391 . S
C92 C93 1.399 . S
C93 C92 1.399 . S
C93 C96 1.396 . S
C93 C105 1.453 . S
C93 C106 1.684 . S
H94 C118 0.948 . S
C95 C91 1.397 . S
C95 C96 1.394 . S
C95 C114 1.723 . S
C96 C93 1.396 . S
C96 C95 1.394 . S
C96 C126 1.723 . S
H97 C120 0.947 . S
H98 C121 0.948 . S
H99 C127 0.982 . S
H100 C128 0.979 . S
H101 C128 0.980 . S
H102 C128 0.983 . S
H103 C127 0.979 . S
H104 C127 0.977 . S
C105 C93 1.453 . S
C105 H134 0.982 . S
C105 H135 0.979 . S
C105 H136 0.977 . S
C106 C93 1.684 . S
C106 H131 0.979 . S
C106 H132 0.980 . S
C106 H133 0.983 . S
C107 C108 1.391 . S
C107 C112 1.391 . S
C107 H137 0.948 . S
C108 C107 1.391 . S
C108 C109 1.391 . S
C109 C108 1.391 . S
C109 C110 1.392 . S
C109 H138 0.947 . S
C110 C109 1.392 . S
C110 C111 1.419 . S
C110 H139 0.948 . S
C111 C110 1.419 . S
C111 C112 1.391 . S
C111 C115 1.397 . S
C112 C107 1.391 . S
C112 C111 1.391 . S
C112 C113 1.399 . S
C113 C112 1.399 . S
C113 C114 1.396 . S
C113 C116 1.453 . S
C113 C117 1.684 . S
C114 C95 1.723 . S
C114 C113 1.396 . S
C114 C115 1.394 . S
C115 C111 1.397 . S
C115 C114 1.394 . S
C115 C125 1.723 . S
C116 C113 1.453 . S
C116 H140 0.982 . S
C116 H141 0.979 . S
C116 H142 0.977 . S
C117 C113 1.684 . S
C117 H143 0.979 . S
C117 H144 0.980 . S
C117 H145 0.983 . S
C118 H94 0.948 . S
C118 C119 1.391 . S
C118 C123 1.391 . S
C119 C118 1.391 . S
C119 C120 1.391 . S
C120 H97 0.947 . S
C120 C119 1.391 . S
C120 C121 1.392 . S
C121 H98 0.948 . S
C121 C120 1.392 . S
C121 C122 1.419 . S
C122 C121 1.419 . S
C122 C123 1.391 . S
C122 C126 1.397 . S
C123 C118 1.391 . S
C123 C122 1.391 . S
C123 C124 1.399 . S
C124 C123 1.399 . S
C124 C125 1.396 . S
C124 C127 1.453 . S
C124 C128 1.684 . S
C125 C115 1.723 . S
C125 C124 1.396 . S
C125 C126 1.394 . S
C126 C96 1.723 . S
C126 C122 1.397 . S
C126 C125 1.394 . S
C127 H99 0.982 . S
C127 H103 0.979 . S
C127 H104 0.977 . S
C127 C124 1.453 . S
C128 H100 0.979 . S
C128 H101 0.980 . S
C128 H102 0.983 . S
C128 C124 1.684 . S
H129 C147 0.948 . S
H130 C88 0.948 . S
H131 C106 0.979 . S
H132 C106 0.980 . S
H133 C106 0.983 . S
H134 C105 0.982 . S
H135 C105 0.979 . S
H136 C105 0.977 . S
H137 C107 0.948 . S
H138 C109 0.947 . S
H139 C110 0.948 . S
H140 C116 0.982 . S
H141 C116 0.979 . S
H142 C116 0.977 . S
H143 C117 0.979 . S
H144 C117 0.980 . S
H145 C117 0.983 . S
H146 C90 0.947 . S
C147 C90 1.392 . S
C147 C91 1.419 . S
C147 H129 0.948 . S
C148 C149 1.391 . S
C148 C152 1.391 . S
C148 H190 0.948 . S
C149 C148 1.391 . S
C149 C150 1.391 . S
C150 C149 1.391 . S
C150 H206 0.947 . S
C150 C207 1.392 . S
C151 C152 1.391 . S
C151 C155 1.397 . S
C151 C207 1.419 . S
C152 C148 1.391 . S
C152 C151 1.391 . S
C152 C153 1.399 . S
C153 C152 1.399 . S
C153 C156 1.396 . S
C153 C165 1.453 . S
C153 C166 1.684 . S
H154 C178 0.948 . S
C155 C151 1.397 . S
C155 C156 1.394 . S
C155 C174 1.723 . S
C156 C153 1.396 . S
C156 C155 1.394 . S
C156 C186 1.723 . S
H157 C180 0.947 . S
H158 C181 0.948 . S
H159 C187 0.982 . S
H160 C188 0.979 . S
H161 C188 0.980 . S
H162 C188 0.983 . S
H163 C187 0.979 . S
H164 C187 0.977 . S
C165 C153 1.453 . S
C165 H194 0.982 . S
C165 H195 0.979 . S
C165 H196 0.977 . S
C166 C153 1.684 . S
C166 H191 0.979 . S
C166 H192 0.980 . S
C166 H193 0.983 . S
C167 C168 1.391 . S
C167 C172 1.391 . S
C167 H197 0.948 . S
C168 C167 1.391 . S
C168 C169 1.391 . S
C169 C168 1.391 . S
C169 C170 1.392 . S
C169 H198 0.947 . S
C170 C169 1.392 . S
C170 C171 1.419 . S
C170 H199 0.948 . S
C171 C170 1.419 . S
C171 C172 1.391 . S
C171 C175 1.397 . S
C172 C167 1.391 . S
C172 C171 1.391 . S
C172 C173 1.399 . S
C173 C172 1.399 . S
C173 C174 1.396 . S
C173 C176 1.453 . S
C173 C177 1.684 . S
C174 C155 1.723 . S
C174 C173 1.396 . S
C174 C175 1.394 . S
C175 C171 1.397 . S
C175 C174 1.394 . S
C175 C185 1.723 . S
C176 C173 1.453 . S
C176 H200 0.982 . S
C176 H201 0.979 . S
C176 H202 0.977 . S
C177 C173 1.684 . S
C177 H203 0.979 . S
C177 H204 0.980 . S
C177 H205 0.983 . S
C178 H154 0.948 . S
C178 C179 1.391 . S
C178 C183 1.391 . S
C179 C178 1.391 . S
C179 C180 1.391 . S
C180 H157 0.947 . S
C180 C179 1.391 . S
C180 C181 1.392 . S
C181 H158 0.948 . S
C181 C180 1.392 . S
C181 C182 1.419 . S
C182 C181 1.419 . S
C182 C183 1.391 . S
C182 C186 1.397 . S
C183 C178 1.391 . S
C183 C182 1.391 . S
C183 C184 1.399 . S
C184 C183 1.399 . S
C184 C185 1.396 . S
C184 C187 1.453 . S
C184 C188 1.684 . S
C185 C175 1.723 . S
C185 C184 1.396 . S
C185 C186 1.394 . S
C186 C156 1.723 . S
C186 C182 1.397 . S
C186 C185 1.394 . S
C187 H159 0.982 . S
C187 H163 0.979 . S
C187 H164 0.977 . S
C187 C184 1.453 . S
C188 H160 0.979 . S
C188 H161 0.980 . S
C188 H162 0.983 . S
C188 C184 1.684 . S
H189 C207 0.948 . S
H190 C148 0.948 . S
H191 C166 0.979 . S
H192 C166 0.980 . S
H193 C166 0.983 . S
H194 C165 0.982 . S
H195 C165 0.979 . S
H196 C165 0.977 . S
H197 C167 0.948 . S
H198 C169 0.947 . S
H199 C170 0.948 . S
H200 C176 0.982 . S
H201 C176 0.979 . S
H202 C176 0.977 . S
H203 C177 0.979 . S
H204 C177 0.980 . S
H205 C177 0.983 . S
H206 C150 0.947 . S
C207 C150 1.392 . S
C207 C151 1.419 . S
C207 H189 0.948 . S
C208 C209 1.391 . S
C208 C212 1.391 . S
C208 H250 0.948 . S
C209 C208 1.391 . S
C209 C210 1.391 . S
C210 C209 1.391 . S
C210 H266 0.947 . S
C210 C267 1.392 . S
C211 C212 1.391 . S
C211 C215 1.397 . S
C211 C267 1.419 . S
C212 C208 1.391 . S
C212 C211 1.391 . S
C212 C213 1.399 . S
C213 C212 1.399 . S
C213 C216 1.396 . S
C213 C225 1.453 . S
C213 C226 1.684 . S
H214 C238 0.948 . S
C215 C211 1.397 . S
C215 C216 1.394 . S
C215 C234 1.723 . S
C216 C213 1.396 . S
C216 C215 1.394 . S
C216 C246 1.723 . S
H217 C240 0.947 . S
H218 C241 0.948 . S
H219 C247 0.982 . S
H220 C248 0.979 . S
H221 C248 0.980 . S
H222 C248 0.983 . S
H223 C247 0.979 . S
H224 C247 0.977 . S
C225 C213 1.453 . S
C225 H254 0.982 . S
C225 H255 0.979 . S
C225 H256 0.977 . S
C226 C213 1.684 . S
C226 H251 0.979 . S
C226 H252 0.980 . S
C226 H253 0.983 . S
C227 C228 1.391 . S
C227 C232 1.391 . S
C227 H257 0.948 . S
C228 C227 1.391 . S
C228 C229 1.391 . S
C229 C228 1.391 . S
C229 C230 1.392 . S
C229 H258 0.947 . S
C230 C229 1.392 . S
C230 C231 1.419 . S
C230 H259 0.948 . S
C231 C230 1.419 . S
C231 C232 1.391 . S
C231 C235 1.397 . S
C232 C227 1.391 . S
C232 C231 1.391 . S
C232 C233 1.399 . S
C233 C232 1.399 . S
C233 C234 1.396 . S
C233 C236 1.453 . S
C233 C237 1.684 . S
C234 C215 1.723 . S
C234 C233 1.396 . S
C234 C235 1.394 . S
C235 C231 1.397 . S
C235 C234 1.394 . S
C235 C245 1.723 . S
C236 C233 1.453 . S
C236 H260 0.982 . S
C236 H261 0.979 . S
C236 H262 0.977 . S
C237 C233 1.684 . S
C237 H263 0.979 . S
C237 H264 0.980 . S
C237 H265 0.983 . S
C238 H214 0.948 . S
C238 C239 1.391 . S
C238 C243 1.391 . S
C239 C238 1.391 . S
C239 C240 1.391 . S
C240 H217 0.947 . S
C240 C239 1.391 . S
C240 C241 1.392 . S
C241 H218 0.948 . S
C241 C240 1.392 . S
C241 C242 1.419 . S
C242 C241 1.419 . S
C242 C243 1.391 . S
C242 C246 1.397 . S
C243 C238 1.391 . S
C243 C242 1.391 . S
C243 C244 1.399 . S
C244 C243 1.399 . S
C244 C245 1.396 . S
C244 C247 1.453 . S
C244 C248 1.684 . S
C245 C235 1.723 . S
C245 C244 1.396 . S
C245 C246 1.394 . S
C246 C216 1.723 . S
C246 C242 1.397 . S
C246 C245 1.394 . S
C247 H219 0.982 . S
C247 H223 0.979 . S
C247 H224 0.977 . S
C247 C244 1.453 . S
C248 H220 0.979 . S
C248 H221 0.980 . S
C248 H222 0.983 . S
C248 C244 1.684 . S
H249 C267 0.948 . S
H250 C208 0.948 . S
H251 C226 0.979 . S
H252 C226 0.980 . S
H253 C226 0.983 . S
H254 C225 0.982 . S
H255 C225 0.979 . S
H256 C225 0.977 . S
H257 C227 0.948 . S
H258 C229 0.947 . S
H259 C230 0.948 . S
H260 C236 0.982 . S
H261 C236 0.979 . S
H262 C236 0.977 . S
H263 C237 0.979 . S
H264 C237 0.980 . S
H265 C237 0.983 . S
H266 C210 0.947 . S
C267 C210 1.392 . S
C267 C211 1.419 . S
C267 H249 0.948 . S
C268 C269 1.391 . S
C268 C272 1.391 . S
C268 H310 0.948 . S
C269 C268 1.391 . S
C269 C270 1.391 . S
C270 C269 1.391 . S
C270 H326 0.947 . S
C270 C327 1.392 . S
C271 C272 1.391 . S
C271 C275 1.397 . S
C271 C327 1.419 . S
C272 C268 1.391 . S
C272 C271 1.391 . S
C272 C273 1.399 . S
C273 C272 1.399 . S
C273 C276 1.396 . S
C273 C285 1.453 . S
C273 C286 1.684 . S
H274 C298 0.948 . S
C275 C271 1.397 . S
C275 C276 1.394 . S
C275 C294 1.723 . S
C276 C273 1.396 . S
C276 C275 1.394 . S
C276 C306 1.723 . S
H277 C300 0.947 . S
H278 C301 0.948 . S
H279 C307 0.982 . S
H280 C308 0.979 . S
H281 C308 0.980 . S
H282 C308 0.983 . S
H283 C307 0.979 . S
H284 C307 0.977 . S
C285 C273 1.453 . S
C285 H314 0.982 . S
C285 H315 0.979 . S
C285 H316 0.977 . S
C286 C273 1.684 . S
C286 H311 0.979 . S
C286 H312 0.980 . S
C286 H313 0.983 . S
C287 C288 1.391 . S
C287 C292 1.391 . S
C287 H317 0.948 . S
C288 C287 1.391 . S
C288 C289 1.391 . S
C289 C288 1.391 . S
C289 C290 1.392 . S
C289 H318 0.947 . S
C290 C289 1.392 . S
C290 C291 1.419 . S
C290 H319 0.948 . S
C291 C290 1.419 . S
C291 C292 1.391 . S
C291 C295 1.397 . S
C292 C287 1.391 . S
C292 C291 1.391 . S
C292 C293 1.399 . S
C293 C292 1.399 . S
C293 C294 1.396 . S
C293 C296 1.453 . S
C293 C297 1.684 . S
C294 C275 1.723 . S
C294 C293 1.396 . S
C294 C295 1.394 . S
C295 C291 1.397 . S
C295 C294 1.394 . S
C295 C305 1.723 . S
C296 C293 1.453 . S
C296 H320 0.982 . S
C296 H321 0.979 . S
C296 H322 0.977 . S
C297 C293 1.684 . S
C297 H323 0.979 . S
C297 H324 0.980 . S
C297 H325 0.983 . S
C298 H274 0.948 . S
C298 C299 1.391 . S
C298 C303 1.391 . S
C299 C298 1.391 . S
C299 C300 1.391 . S
C300 H277 0.947 . S
C300 C299 1.391 . S
C300 C301 1.392 . S
C301 H278 0.948 . S
C301 C300 1.392 . S
C301 C302 1.419 . S
C302 C301 1.419 . S
C302 C303 1.391 . S
C302 C306 1.397 . S
C303 C298 1.391 . S
C303 C302 1.391 . S
C303 C304 1.399 . S
C304 C303 1.399 . S
C304 C305 1.396 . S
C304 C307 1.453 . S
C304 C308 1.684 . S
C305 C295 1.723 . S
C305 C304 1.396 . S
C305 C306 1.394 . S
C306 C276 1.723 . S
C306 C302 1.397 . S
C306 C305 1.394 . S
C307 H279 0.982 . S
C307 H283 0.979 . S
C307 H284 0.977 . S
C307 C304 1.453 . S
C308 H280 0.979 . S
C308 H281 0.980 . S
C308 H282 0.983 . S
C308 C304 1.684 . S
H309 C327 0.948 . S
H310 C268 0.948 . S
H311 C286 0.979 . S
H312 C286 0.980 . S
H313 C286 0.983 . S
H314 C285 0.982 . S
H315 C285 0.979 . S
H316 C285 0.977 . S
H317 C287 0.948 . S
H318 C289 0.947 . S
H319 C290 0.948 . S
H320 C296 0.982 . S
H321 C296 0.979 . S
H322 C296 0.977 . S
H323 C297 0.979 . S
H324 C297 0.980 . S
H325 C297 0.983 . S
H326 C270 0.947 . S
C327 C270 1.392 . S
C327 C271 1.419 . S
C327 H309 0.948 . S
C328 C329 1.391 . S
C328 C332 1.391 . S
C328 H370 0.948 . S
C329 C328 1.391 . S
C329 C330 1.391 . S
C330 C329 1.391 . S
C330 H386 0.947 . S
C330 C387 1.392 . S
C331 C332 1.391 . S
C331 C335 1.397 . S
C331 C387 1.419 . S
C332 C328 1.391 . S
C332 C331 1.391 . S
C332 C333 1.399 . S
C333 C332 1.399 . S
C333 C336 1.396 . S
C333 C345 1.453 . S
C333 C346 1.684 . S
H334 C358 0.948 . S
C335 C331 1.397 . S
C335 C336 1.394 . S
C335 C354 1.723 . S
C336 C333 1.396 . S
C336 C335 1.394 . S
C336 C366 1.723 . S
H337 C360 0.947 . S
H338 C361 0.948 . S
H339 C367 0.982 . S
H340 C368 0.979 . S
H341 C368 0.980 . S
H342 C368 0.983 . S
H343 C367 0.979 . S
H344 C367 0.977 . S
C345 C333 1.453 . S
C345 H374 0.982 . S
C345 H375 0.979 . S
C345 H376 0.977 . S
C346 C333 1.684 . S
C346 H371 0.979 . S
C346 H372 0.980 . S
C346 H373 0.983 . S
C347 C348 1.391 . S
C347 C352 1.391 . S
C347 H377 0.948 . S
C348 C347 1.391 . S
C348 C349 1.391 . S
C349 C348 1.391 . S
C349 C350 1.392 . S
C349 H378 0.947 . S
C350 C349 1.392 . S
C350 C351 1.419 . S
C350 H379 0.948 . S
C351 C350 1.419 . S
C351 C352 1.391 . S
C351 C355 1.397 . S
C352 C347 1.391 . S
C352 C351 1.391 . S
C352 C353 1.399 . S
C353 C352 1.399 . S
C353 C354 1.396 . S
C353 C356 1.453 . S
C353 C357 1.684 . S
C354 C335 1.723 . S
C354 C353 1.396 . S
C354 C355 1.394 . S
C355 C351 1.397 . S
C355 C354 1.394 . S
C355 C365 1.723 . S
C356 C353 1.453 . S
C356 H380 0.982 . S
C356 H381 0.979 . S
C356 H382 0.977 . S
C357 C353 1.684 . S
C357 H383 0.979 . S
C357 H384 0.980 . S
C357 H385 0.983 . S
C358 H334 0.948 . S
C358 C359 1.391 . S
C358 C363 1.391 . S
C359 C358 1.391 . S
C359 C360 1.391 . S
C360 H337 0.947 . S
C360 C359 1.391 . S
C360 C361 1.392 . S
C361 H338 0.948 . S
C361 C360 1.392 . S
C361 C362 1.419 . S
C362 C361 1.419 . S
C362 C363 1.391 . S
C362 C366 1.397 . S
C363 C358 1.391 . S
C363 C362 1.391 . S
C363 C364 1.399 . S
C364 C363 1.399 . S
C364 C365 1.396 . S
C364 C367 1.453 . S
C364 C368 1.684 . S
C365 C355 1.723 . S
C365 C364 1.396 . S
C365 C366 1.394 . S
C366 C336 1.723 . S
C366 C362 1.397 . S
C366 C365 1.394 . S
C367 H339 0.982 . S
C367 H343 0.979 . S
C367 H344 0.977 . S
C367 C364 1.453 . S
C368 H340 0.979 . S
C368 H341 0.980 . S
C368 H342 0.983 . S
C368 C364 1.684 . S
H369 C387 0.948 . S
H370 C328 0.948 . S
H371 C346 0.979 . S
H372 C346 0.980 . S
H373 C346 0.983 . S
H374 C345 0.982 . S
H375 C345 0.979 . S
H376 C345 0.977 . S
H377 C347 0.948 . S
H378 C349 0.947 . S
H379 C350 0.948 . S
H380 C356 0.982 . S
H381 C356 0.979 . S
H382 C356 0.977 . S
H383 C357 0.979 . S
H384 C357 0.980 . S
H385 C357 0.983 . S
H386 C330 0.947 . S
C387 C330 1.392 . S
C387 C331 1.419 . S
C387 H369 0.948 . S
C388 C389 1.391 . S
C388 C392 1.391 . S
C388 H430 0.948 . S
C389 C388 1.391 . S
C389 C390 1.391 . S
C390 C389 1.391 . S
C390 H446 0.947 . S
C390 C447 1.392 . S
C391 C392 1.391 . S
C391 C395 1.397 . S
C391 C447 1.419 . S
C392 C388 1.391 . S
C392 C391 1.391 . S
C392 C393 1.399 . S
C393 C392 1.399 . S
C393 C396 1.396 . S
C393 C405 1.453 . S
C393 C406 1.684 . S
H394 C418 0.948 . S
C395 C391 1.397 . S
C395 C396 1.394 . S
C395 C414 1.723 . S
C396 C393 1.396 . S
C396 C395 1.394 . S
C396 C426 1.723 . S
H397 C420 0.947 . S
H398 C421 0.948 . S
H399 C427 0.982 . S
H400 C428 0.979 . S
H401 C428 0.980 . S
H402 C428 0.983 . S
H403 C427 0.979 . S
H404 C427 0.977 . S
C405 C393 1.453 . S
C405 H434 0.982 . S
C405 H435 0.979 . S
C405 H436 0.977 . S
C406 C393 1.684 . S
C406 H431 0.979 . S
C406 H432 0.980 . S
C406 H433 0.983 . S
C407 C408 1.391 . S
C407 C412 1.391 . S
C407 H437 0.948 . S
C408 C407 1.391 . S
C408 C409 1.391 . S
C409 C408 1.391 . S
C409 C410 1.392 . S
C409 H438 0.947 . S
C410 C409 1.392 . S
C410 C411 1.419 . S
C410 H439 0.948 . S
C411 C410 1.419 . S
C411 C412 1.391 . S
C411 C415 1.397 . S
C412 C407 1.391 . S
C412 C411 1.391 . S
C412 C413 1.399 . S
C413 C412 1.399 . S
C413 C414 1.396 . S
C413 C416 1.453 . S
C413 C417 1.684 . S
C414 C395 1.723 . S
C414 C413 1.396 . S
C414 C415 1.394 . S
C415 C411 1.397 . S
C415 C414 1.394 . S
C415 C425 1.723 . S
C416 C413 1.453 . S
C416 H440 0.982 . S
C416 H441 0.979 . S
C416 H442 0.977 . S
C417 C413 1.684 . S
C417 H443 0.979 . S
C417 H444 0.980 . S
C417 H445 0.983 . S
C418 H394 0.948 . S
C418 C419 1.391 . S
C418 C423 1.391 . S
C419 C418 1.391 . S
C419 C420 1.391 . S
C420 H397 0.947 . S
C420 C419 1.391 . S
C420 C421 1.392 . S
C421 H398 0.948 . S
C421 C420 1.392 . S
C421 C422 1.419 . S
C422 C421 1.419 . S
C422 C423 1.391 . S
C422 C426 1.397 . S
C423 C418 1.391 . S
C423 C422 1.391 . S
C423 C424 1.399 . S
C424 C423 1.399 . S
C424 C425 1.396 . S
C424 C427 1.453 . S
C424 C428 1.684 . S
C425 C415 1.723 . S
C425 C424 1.396 . S
C425 C426 1.394 . S
C426 C396 1.723 . S
C426 C422 1.397 . S
C426 C425 1.394 . S
C427 H399 0.982 . S
C427 H403 0.979 . S
C427 H404 0.977 . S
C427 C424 1.453 . S
C428 H400 0.979 . S
C428 H401 0.980 . S
C428 H402 0.983 . S
C428 C424 1.684 . S
H429 C447 0.948 . S
H430 C388 0.948 . S
H431 C406 0.979 . S
H432 C406 0.980 . S
H433 C406 0.983 . S
H434 C405 0.982 . S
H435 C405 0.979 . S
H436 C405 0.977 . S
H437 C407 0.948 . S
H438 C409 0.947 . S
H439 C410 0.948 . S
H440 C416 0.982 . S
H441 C416 0.979 . S
H442 C416 0.977 . S
H443 C417 0.979 . S
H444 C417 0.980 . S
H445 C417 0.983 . S
H446 C390 0.947 . S
C447 C390 1.392 . S
C447 C391 1.419 . S
C447 H429 0.948 . S
C448 C449 1.391 . S
C448 C452 1.391 . S
C448 H490 0.948 . S
C449 C448 1.391 . S
C449 C450 1.391 . S
C450 C449 1.391 . S
C450 H506 0.947 . S
C450 C507 1.392 . S
C451 C452 1.391 . S
C451 C455 1.397 . S
C451 C507 1.419 . S
C452 C448 1.391 . S
C452 C451 1.391 . S
C452 C453 1.399 . S
C453 C452 1.399 . S
C453 C456 1.396 . S
C453 C465 1.453 . S
C453 C466 1.684 . S
H454 C478 0.948 . S
C455 C451 1.397 . S
C455 C456 1.394 . S
C455 C474 1.723 . S
C456 C453 1.396 . S
C456 C455 1.394 . S
C456 C486 1.723 . S
H457 C480 0.947 . S
H458 C481 0.948 . S
H459 C487 0.982 . S
H460 C488 0.979 . S
H461 C488 0.980 . S
H462 C488 0.983 . S
H463 C487 0.979 . S
H464 C487 0.977 . S
C465 C453 1.453 . S
C465 H494 0.982 . S
C465 H495 0.979 . S
C465 H496 0.977 . S
C466 C453 1.684 . S
C466 H491 0.979 . S
C466 H492 0.980 . S
C466 H493 0.983 . S
C467 C468 1.391 . S
C467 C472 1.391 . S
C467 H497 0.948 . S
C468 C467 1.391 . S
C468 C469 1.391 . S
C469 C468 1.391 . S
C469 C470 1.392 . S
C469 H498 0.947 . S
C470 C469 1.392 . S
C470 C471 1.419 . S
C470 H499 0.948 . S
C471 C470 1.419 . S
C471 C472 1.391 . S
C471 C475 1.397 . S
C472 C467 1.391 . S
C472 C471 1.391 . S
C472 C473 1.399 . S
C473 C472 1.399 . S
C473 C474 1.396 . S
C473 C476 1.453 . S
C473 C477 1.684 . S
C474 C455 1.723 . S
C474 C473 1.396 . S
C474 C475 1.394 . S
C475 C471 1.397 . S
C475 C474 1.394 . S
C475 C485 1.723 . S
C476 C473 1.453 . S
C476 H500 0.982 . S
C476 H501 0.979 . S
C476 H502 0.977 . S
C477 C473 1.684 . S
C477 H503 0.979 . S
C477 H504 0.980 . S
C477 H505 0.983 . S
C478 H454 0.948 . S
C478 C479 1.391 . S
C478 C483 1.391 . S
C479 C478 1.391 . S
C479 C480 1.391 . S
C480 H457 0.947 . S
C480 C479 1.391 . S
C480 C481 1.392 . S
C481 H458 0.948 . S
C481 C480 1.392 . S
C481 C482 1.419 . S
C482 C481 1.419 . S
C482 C483 1.391 . S
C482 C486 1.397 . S
C483 C478 1.391 . S
C483 C482 1.391 . S
C483 C484 1.399 . S
C484 C483 1.399 . S
C484 C485 1.396 . S
C484 C487 1.453 . S
C484 C488 1.684 . S
C485 C475 1.723 . S
C485 C484 1.396 . S
C485 C486 1.394 . S
C486 C456 1.723 . S
C486 C482 1.397 . S
C486 C485 1.394 . S
C487 H459 0.982 . S
C487 H463 0.979 . S
C487 H464 0.977 . S
C487 C484 1.453 . S
C488 H460 0.979 . S
C488 H461 0.980 . S
C488 H462 0.983 . S
C488 C484 1.684 . S
H489 C507 0.948 . S
H490 C448 0.948 . S
H491 C466 0.979 . S
H492 C466 0.980 . S
H493 C466 0.983 . S
H494 C465 0.982 . S
H495 C465 0.979 . S
H496 C465 0.977 . S
H497 C467 0.948 . S
H498 C469 0.947 . S
H499 C470 0.948 . S
H500 C476 0.982 . S
H501 C476 0.979 . S
H502 C476 0.977 . S
H503 C477 0.979 . S
H504 C477 0.980 . S
H505 C477 0.983 . S
H506 C450 0.947 . S
C507 C450 1.392 . S
C507 C451 1.419 . S
C507 H489 0.948 . S
C508 C509 1.391 . S
C508 C512 1.391 . S
C508 H550 0.948 . S
C509 C508 1.391 . S
C509 C510 1.391 . S
C510 C509 1.391 . S
C510 H566 0.947 . S
C510 C567 1.392 . S
C511 C512 1.391 . S
C511 C515 1.397 . S
C511 C567 1.419 . S
C512 C508 1.391 . S
C512 C511 1.391 . S
C512 C513 1.399 . S
C513 C512 1.399 . S
C513 C516 1.396 . S
C513 C525 1.453 . S
C513 C526 1.684 . S
H514 C538 0.948 . S
C515 C511 1.397 . S
C515 C516 1.394 . S
C515 C534 1.723 . S
C516 C513 1.396 . S
C516 C515 1.394 . S
C516 C546 1.723 . S
H517 C540 0.947 . S
H518 C541 0.948 . S
H519 C547 0.982 . S
H520 C548 0.979 . S
H521 C548 0.980 . S
H522 C548 0.983 . S
H523 C547 0.979 . S
H524 C547 0.977 . S
C525 C513 1.453 . S
C525 H554 0.982 . S
C525 H555 0.979 . S
C525 H556 0.977 . S
C526 C513 1.684 . S
C526 H551 0.979 . S
C526 H552 0.980 . S
C526 H553 0.983 . S
C527 C528 1.391 . S
C527 C532 1.391 . S
C527 H557 0.948 . S
C528 C527 1.391 . S
C528 C529 1.391 . S
C529 C528 1.391 . S
C529 C530 1.392 . S
C529 H558 0.947 . S
C530 C529 1.392 . S
C530 C531 1.419 . S
C530 H559 0.948 . S
C531 C530 1.419 . S
C531 C532 1.391 . S
C531 C535 1.397 . S
C532 C527 1.391 . S
C532 C531 1.391 . S
C532 C533 1.399 . S
C533 C532 1.399 . S
C533 C534 1.396 . S
C533 C536 1.453 . S
C533 C537 1.684 . S
C534 C515 1.723 . S
C534 C533 1.396 . S
C534 C535 1.394 . S
C535 C531 1.397 . S
C535 C534 1.394 . S
C535 C545 1.723 . S
C536 C533 1.453 . S
C536 H560 0.982 . S
C536 H561 0.979 . S
C536 H562 0.977 . S
C537 C533 1.684 . S
C537 H563 0.979 . S
C537 H564 0.980 . S
C537 H565 0.983 . S
C538 H514 0.948 . S
C538 C539 1.391 . S
C538 C543 1.391 . S
C539 C538 1.391 . S
C539 C540 1.391 . S
C540 H517 0.947 . S
C540 C539 1.391 . S
C540 C541 1.392 . S
C541 H518 0.948 . S
C541 C540 1.392 . S
C541 C542 1.419 . S
C542 C541 1.419 . S
C542 C543 1.391 . S
C542 C546 1.397 . S
C543 C538 1.391 . S
C543 C542 1.391 . S
C543 C544 1.399 . S
C544 C543 1.399 . S
C544 C545 1.396 . S
C544 C547 1.453 . S
C544 C548 1.684 . S
C545 C535 1.723 . S
C545 C544 1.396 . S
C545 C546 1.394 . S
C546 C516 1.723 . S
C546 C542 1.397 . S
C546 C545 1.394 . S
C547 H519 0.982 . S
C547 H523 0.979 . S
C547 H524 0.977 . S
C547 C544 1.453 . S
C548 H520 0.979 . S
C548 H521 0.980 . S
C548 H522 0.983 . S
C548 C544 1.684 . S
H549 C567 0.948 . S
H550 C508 0.948 . S
H551 C526 0.979 . S
H552 C526 0.980 . S
H553 C526 0.983 . S
H554 C525 0.982 . S
H555 C525 0.979 . S
H556 C525 0.977 . S
H557 C527 0.948 . S
H558 C529 0.947 . S
H559 C530 0.948 . S
H560 C536 0.982 . S
H561 C536 0.979 . S
H562 C536 0.977 . S
H563 C537 0.979 . S
H564 C537 0.980 . S
H565 C537 0.983 . S
H566 C510 0.947 . S
C567 C510 1.392 . S
C567 C511 1.419 . S
C567 H549 0.948 . S
H568 C576 0.950 . S
H569 C581 0.950 . S
H570 C578 0.950 . S
H571 C580 0.950 . S
H572 C582 0.950 . S
H573 C584 0.950 . S
H574 C586 0.950 1_565 S
H575 C587 0.950 . S
C576 H568 0.950 . S
C576 C577 1.386 . S
C576 C578 1.391 . S
C577 C576 1.386 . S
C577 C581 1.393 . S
C578 H570 0.950 . S
C578 C576 1.391 . S
C578 C579 1.400 . S
C579 C578 1.400 . S
C579 C580 1.398 . S
C579 C585 1.491 1_565 S
C580 H571 0.950 . S
C580 C579 1.398 . S
C580 C581 1.391 . S
C581 H569 0.950 . S
C581 C577 1.393 . S
C581 C580 1.391 . S
C582 H572 0.950 . S
C582 C583 1.386 . S
C582 C584 1.391 . S
C583 C582 1.386 . S
C583 C587 1.393 . S
C584 H573 0.950 . S
C584 C582 1.391 . S
C584 C585 1.400 . S
C585 C579 1.491 1_545 S
C585 C584 1.400 . S
C585 C586 1.398 . S
C586 H574 0.950 1_545 S
C586 C585 1.398 . S
C586 C587 1.391 . S
C587 H575 0.950 . S
C587 C583 1.393 . S
C587 C586 1.391 . S
H588 C596 0.950 . S
H589 C601 0.950 . S
H590 C598 0.950 . S
H591 C600 0.950 . S
H592 C602 0.950 . S
H593 C604 0.950 . S
H594 C606 0.950 . S
H595 C607 0.950 . S
C596 H588 0.950 . S
C596 C597 1.386 . S
C596 C598 1.391 . S
C597 C596 1.386 . S
C597 C601 1.393 . S
C598 H590 0.950 . S
C598 C596 1.391 . S
C598 C599 1.400 . S
C599 C598 1.400 . S
C599 C600 1.398 . S
C599 C605 1.491 . S
C600 H591 0.950 . S
C600 C599 1.398 . S
C600 C601 1.391 . S
C601 H589 0.950 . S
C601 C597 1.393 . S
C601 C600 1.391 . S
C602 H592 0.950 . S
C602 C603 1.386 . S
C602 C604 1.391 . S
C603 C602 1.386 . S
C603 C607 1.393 . S
C604 H593 0.950 . S
C604 C602 1.391 . S
C604 C605 1.400 . S
C605 C599 1.491 . S
C605 C604 1.400 . S
C605 C606 1.398 . S
C606 H594 0.950 . S
C606 C605 1.398 . S
C606 C607 1.391 . S
C607 H595 0.950 . S
C607 C603 1.393 . S
C607 C606 1.391 . S
H608 C616 0.950 . S
H609 C621 0.950 . S
H610 C618 0.950 . S
H611 C620 0.950 . S
H612 C622 0.950 . S
H613 C624 0.950 . S
H614 C626 0.950 . S
H615 C627 0.950 . S
C616 H608 0.950 . S
C616 C617 1.386 . S
C616 C618 1.391 . S
C617 C616 1.386 . S
C617 C621 1.393 . S
C618 H610 0.950 . S
C618 C616 1.391 . S
C618 C619 1.400 . S
C619 C618 1.400 . S
C619 C620 1.398 . S
C619 C625 1.491 . S
C620 H611 0.950 . S
C620 C619 1.398 . S
C620 C621 1.391 . S
C621 H609 0.950 . S
C621 C617 1.393 . S
C621 C620 1.391 . S
C622 H612 0.950 . S
C622 C623 1.386 . S
C622 C624 1.391 . S
C623 C622 1.386 . S
C623 C627 1.393 1_545 S
C624 H613 0.950 . S
C624 C622 1.391 . S
C624 C625 1.400 . S
C625 C619 1.491 . S
C625 C624 1.400 . S
C625 C626 1.398 . S
C626 H614 0.950 . S
C626 C625 1.398 . S
C626 C627 1.391 1_545 S
C627 H615 0.950 . S
C627 C623 1.393 1_565 S
C627 C626 1.391 1_565 S
H628 C636 0.950 . S
H629 C641 0.950 . S
H630 C638 0.950 . S
H631 C640 0.950 . S
H632 C642 0.950 . S
H633 C644 0.950 . S
H634 C646 0.950 . S
H635 C647 0.950 . S
C636 H628 0.950 . S
C636 C637 1.386 . S
C636 C638 1.391 . S
C637 C636 1.386 . S
C637 C641 1.393 . S
C638 H630 0.950 . S
C638 C636 1.391 . S
C638 C639 1.400 . S
C639 C638 1.400 . S
C639 C640 1.398 . S
C639 C645 1.491 . S
C640 H631 0.950 . S
C640 C639 1.398 . S
C640 C641 1.391 . S
C641 H629 0.950 . S
C641 C637 1.393 . S
C641 C640 1.391 . S
C642 H632 0.950 . S
C642 C643 1.386 . S
C642 C644 1.391 . S
C643 C642 1.386 . S
C643 C647 1.393 . S
C644 H633 0.950 . S
C644 C642 1.391 . S
C644 C645 1.400 . S
C645 C639 1.491 . S
C645 C644 1.400 . S
C645 C646 1.398 . S
C646 H634 0.950 . S
C646 C645 1.398 . S
C646 C647 1.391 . S
C647 H635 0.950 . S
C647 C643 1.393 . S
C647 C646 1.391 . S
H648 C656 0.950 . S
H649 C661 0.950 . S
H650 C658 0.950 . S
H651 C660 0.950 . S
H652 C662 0.950 . S
H653 C664 0.950 . S
H654 C666 0.950 . S
H655 C667 0.950 . S
C656 H648 0.950 . S
C656 C657 1.386 . S
C656 C658 1.391 . S
C657 C656 1.386 . S
C657 C661 1.393 . S
C658 H650 0.950 . S
C658 C656 1.391 . S
C658 C659 1.400 . S
C659 C658 1.400 . S
C659 C660 1.398 . S
C659 C665 1.491 . S
C660 H651 0.950 . S
C660 C659 1.398 . S
C660 C661 1.391 . S
C661 H649 0.950 . S
C661 C657 1.393 . S
C661 C660 1.391 . S
C662 H652 0.950 . S
C662 C663 1.386 . S
C662 C664 1.391 . S
C663 C662 1.386 . S
C663 C667 1.393 . S
C664 H653 0.950 . S
C664 C662 1.391 . S
C664 C665 1.400 . S
C665 C659 1.491 . S
C665 C664 1.400 . S
C665 C666 1.398 . S
C666 H654 0.950 . S
C666 C665 1.398 . S
C666 C667 1.391 . S
C667 H655 0.950 . S
C667 C663 1.393 . S
C667 C666 1.391 . S
H668 C676 0.950 . S
H669 C681 0.950 . S
H670 C678 0.950 . S
H671 C680 0.950 . S
H672 C682 0.950 . S
H673 C684 0.950 . S
H674 C686 0.950 . S
H675 C687 0.950 . S
C676 H668 0.950 . S
C676 C677 1.386 . S
C676 C678 1.391 . S
C677 C676 1.386 . S
C677 C681 1.393 . S
C678 H670 0.950 . S
C678 C676 1.391 . S
C678 C679 1.400 . S
C679 C678 1.400 . S
C679 C680 1.398 . S
C679 C685 1.491 1_655 S
C680 H671 0.950 . S
C680 C679 1.398 . S
C680 C681 1.391 . S
C681 H669 0.950 . S
C681 C677 1.393 . S
C681 C680 1.391 . S
C682 H672 0.950 . S
C682 C683 1.386 . S
C682 C684 1.391 . S
C683 C682 1.386 . S
C683 C687 1.393 . S
C684 H673 0.950 . S
C684 C682 1.391 . S
C684 C685 1.400 . S
C685 C679 1.491 1_455 S
C685 C684 1.400 . S
C685 C686 1.398 . S
C686 H674 0.950 . S
C686 C685 1.398 . S
C686 C687 1.391 . S
C687 H675 0.950 . S
C687 C683 1.393 . S
C687 C686 1.391 . S
H688 C696 0.950 . S
H689 C701 0.950 . S
H690 C698 0.950 . S
H691 C700 0.950 . S
H692 C702 0.950 . S
H693 C704 0.950 . S
H694 C706 0.950 . S
H695 C707 0.950 . S
C696 H688 0.950 . S
C696 C697 1.386 . S
C696 C698 1.391 . S
C697 C696 1.386 . S
C697 C701 1.393 . S
C698 H690 0.950 . S
C698 C696 1.391 . S
C698 C699 1.400 . S
C699 C698 1.400 . S
C699 C700 1.398 . S
C699 C705 1.491 . S
C700 H691 0.950 . S
C700 C699 1.398 . S
C700 C701 1.391 . S
C701 H689 0.950 . S
C701 C697 1.393 . S
C701 C700 1.391 . S
C702 H692 0.950 . S
C702 C703 1.386 . S
C702 C704 1.391 . S
C703 C702 1.386 . S
C703 C707 1.393 . S
C704 H693 0.950 . S
C704 C702 1.391 . S
C704 C705 1.400 . S
C705 C699 1.491 . S
C705 C704 1.400 . S
C705 C706 1.398 . S
C706 H694 0.950 . S
C706 C705 1.398 . S
C706 C707 1.391 . S
C707 H695 0.950 . S
C707 C703 1.393 . S
C707 C706 1.391 . S
H708 C716 0.950 . S
H709 C721 0.950 . S
H710 C718 0.950 . S
H711 C720 0.950 . S
H712 C722 0.950 . S
H713 C724 0.950 . S
H714 C726 0.950 . S
H715 C727 0.950 . S
C716 H708 0.950 . S
C716 C717 1.386 1_556 S
C716 C718 1.391 . S
C717 C716 1.386 1_554 S
C717 C721 1.393 . S
C718 H710 0.950 . S
C718 C716 1.391 . S
C718 C719 1.400 . S
C719 C718 1.400 . S
C719 C720 1.398 . S
C719 C725 1.491 . S
C720 H711 0.950 . S
C720 C719 1.398 . S
C720 C721 1.391 1_556 S
C721 H709 0.950 . S
C721 C717 1.393 . S
C721 C720 1.391 1_554 S
C722 H712 0.950 . S
C722 C723 1.386 1_655 S
C722 C724 1.391 1_655 S
C723 C722 1.386 1_455 S
C723 C727 1.393 . S
C724 H713 0.950 . S
C724 C722 1.391 1_455 S
C724 C725 1.400 . S
C725 C719 1.491 . S
C725 C724 1.400 . S
C725 C726 1.398 . S
C726 H714 0.950 . S
C726 C725 1.398 . S
C726 C727 1.391 . S
C727 H715 0.950 . S
C727 C723 1.393 . S
C727 C726 1.391 . S
H728 C736 0.950 . S
H729 C741 0.950 . S
H730 C738 0.950 . S
H731 C740 0.950 . S
H732 C742 0.950 . S
H733 C744 0.950 . S
H734 C746 0.952 . S
H735 C747 0.950 . S
C736 H728 0.950 . S
C736 C737 1.386 . S
C736 C738 1.391 . S
C737 C736 1.386 . S
C737 C741 1.393 . S
C738 H730 0.950 . S
C738 C736 1.391 . S
C738 C739 1.400 . S
C739 C738 1.400 . S
C739 C740 1.398 . S
C739 C745 1.491 1_545 S
C740 H731 0.950 . S
C740 C739 1.398 . S
C740 C741 1.391 . S
C741 H729 0.950 . S
C741 C737 1.393 . S
C741 C740 1.391 . S
C742 H732 0.950 . S
C742 C743 1.386 . S
C742 C744 1.391 . S
C743 C742 1.386 . S
C743 C747 1.393 . S
C744 H733 0.950 . S
C744 C742 1.391 . S
C744 C745 1.400 . S
C745 C739 1.491 1_565 S
C745 C744 1.400 . S
C745 C746 1.398 . S
C746 H734 0.952 . S
C746 C745 1.398 . S
C746 C747 1.391 . S
C747 H735 0.950 . S
C747 C743 1.393 . S
C747 C746 1.391 . S
H748 C756 0.950 . S
H749 C761 0.950 . S
H750 C758 0.950 . S
H751 C760 0.950 . S
H752 C762 0.950 . S
H753 C764 0.950 . S
H754 C766 0.950 . S
H755 C767 0.950 . S
C756 H748 0.950 . S
C756 C757 1.386 . S
C756 C758 1.391 . S
C757 C756 1.386 . S
C757 C761 1.393 . S
C758 H750 0.950 . S
C758 C756 1.391 . S
C758 C759 1.400 . S
C759 C758 1.400 . S
C759 C760 1.398 . S
C759 C765 1.491 . S
C760 H751 0.950 . S
C760 C759 1.398 . S
C760 C761 1.391 . S
C761 H749 0.950 . S
C761 C757 1.393 . S
C761 C760 1.391 . S
C762 H752 0.950 . S
C762 C763 1.386 . S
C762 C764 1.391 . S
C763 C762 1.386 . S
C763 C767 1.393 . S
C764 H753 0.950 . S
C764 C762 1.391 . S
C764 C765 1.400 . S
C765 C759 1.491 . S
C765 C764 1.400 . S
C765 C766 1.398 . S
C766 H754 0.950 . S
C766 C765 1.398 . S
C766 C767 1.391 . S
C767 H755 0.950 . S
C767 C763 1.393 . S
C767 C766 1.391 . S
H768 C776 0.950 1_554 S
H769 C781 0.950 . S
H770 C778 0.950 . S
H771 C780 0.950 . S
H772 C782 0.950 1_545 S
H773 C784 0.950 . S
H774 C786 0.950 . S
H775 C787 0.950 . S
C776 H768 0.950 1_556 S
C776 C777 1.386 1_556 S
C776 C778 1.391 . S
C777 C776 1.386 1_554 S
C777 C781 1.393 1_554 S
C778 H770 0.950 . S
C778 C776 1.391 . S
C778 C779 1.400 . S
C779 C778 1.400 . S
C779 C780 1.398 . S
C779 C785 1.491 . S
C780 H771 0.950 . S
C780 C779 1.398 . S
C780 C781 1.391 . S
C781 H769 0.950 . S
C781 C777 1.393 1_556 S
C781 C780 1.391 . S
C782 H772 0.950 1_565 S
C782 C783 1.386 . S
C782 C784 1.391 . S
C783 C782 1.386 . S
C783 C787 1.393 . S
C784 H773 0.950 . S
C784 C782 1.391 . S
C784 C785 1.400 . S
C785 C779 1.491 . S
C785 C784 1.400 . S
C785 C786 1.398 . S
C786 H774 0.950 . S
C786 C785 1.398 . S
C786 C787 1.391 . S
C787 H775 0.950 . S
C787 C783 1.393 . S
C787 C786 1.391 . S
H788 C796 0.950 . S
H789 C801 0.950 . S
H790 C798 0.950 . S
H791 C800 0.950 . S
H792 C802 0.950 . S
H793 C804 0.950 . S
H794 C806 0.950 . S
H795 C807 0.950 . S
C796 H788 0.950 . S
C796 C797 1.386 . S
C796 C798 1.391 . S
C797 C796 1.386 . S
C797 C801 1.393 . S
C798 H790 0.950 . S
C798 C796 1.391 . S
C798 C799 1.400 . S
C799 C798 1.400 . S
C799 C800 1.398 . S
C799 C805 1.491 . S
C800 H791 0.950 . S
C800 C799 1.398 . S
C800 C801 1.391 . S
C801 H789 0.950 . S
C801 C797 1.393 . S
C801 C800 1.391 . S
C802 H792 0.950 . S
C802 C803 1.386 . S
C802 C804 1.391 . S
C803 C802 1.386 . S
C803 C807 1.393 . S
C804 H793 0.950 . S
C804 C802 1.391 . S
C804 C805 1.400 . S
C805 C799 1.491 . S
C805 C804 1.400 . S
C805 C806 1.398 . S
C806 H794 0.950 . S
C806 C805 1.398 . S
C806 C807 1.391 . S
C807 H795 0.950 . S
C807 C803 1.393 . S
C807 C806 1.391 . S
H808 C816 0.950 . S
H809 C821 0.950 . S
H810 C818 0.950 . S
H811 C820 0.950 . S
H812 C822 0.950 . S
H813 C824 0.950 . S
H814 C826 0.950 . S
H815 C827 0.950 . S
C816 H808 0.950 . S
C816 C817 1.386 . S
C816 C818 1.391 . S
C817 C816 1.386 . S
C817 C821 1.393 . S
C818 H810 0.950 . S
C818 C816 1.391 . S
C818 C819 1.400 . S
C819 C818 1.400 . S
C819 C820 1.398 . S
C819 C825 1.491 . S
C820 H811 0.950 . S
C820 C819 1.398 . S
C820 C821 1.391 . S
C821 H809 0.950 . S
C821 C817 1.393 . S
C821 C820 1.391 . S
C822 H812 0.950 . S
C822 C823 1.386 . S
C822 C824 1.391 . S
C823 C822 1.386 . S
C823 C827 1.393 . S
C824 H813 0.950 . S
C824 C822 1.391 . S
C824 C825 1.400 . S
C825 C819 1.491 . S
C825 C824 1.400 . S
C825 C826 1.398 . S
C826 H814 0.950 . S
C826 C825 1.398 . S
C826 C827 1.391 . S
C827 H815 0.950 . S
C827 C823 1.393 . S
C827 C826 1.391 . S
H828 C836 0.950 . S
H829 C841 0.950 . S
H830 C838 0.950 . S
H831 C840 0.950 . S
H832 C842 0.950 . S
H833 C844 0.950 1_455 S
H834 C846 0.950 . S
H835 C847 0.950 . S
C836 H828 0.950 . S
C836 C837 1.386 . S
C836 C838 1.391 . S
C837 C836 1.386 . S
C837 C841 1.393 . S
C838 H830 0.950 . S
C838 C836 1.391 . S
C838 C839 1.400 . S
C839 C838 1.400 . S
C839 C840 1.398 . S
C839 C845 1.491 1_455 S
C840 H831 0.950 . S
C840 C839 1.398 . S
C840 C841 1.391 . S
C841 H829 0.950 . S
C841 C837 1.393 . S
C841 C840 1.391 . S
C842 H832 0.950 . S
C842 C843 1.386 . S
C842 C844 1.391 . S
C843 C842 1.386 . S
C843 C847 1.393 . S
C844 H833 0.950 1_655 S
C844 C842 1.391 . S
C844 C845 1.400 . S
C845 C839 1.491 1_655 S
C845 C844 1.400 . S
C845 C846 1.398 . S
C846 H834 0.950 . S
C846 C845 1.398 . S
C846 C847 1.391 . S
C847 H835 0.950 . S
C847 C843 1.393 . S
C847 C846 1.391 . S
H848 C856 0.950 . S
H849 C861 0.950 . S
H850 C858 0.950 . S
H851 C860 0.950 . S
H852 C862 0.950 . S
H853 C864 0.950 . S
H854 C866 0.950 . S
H855 C867 0.950 . S
C856 H848 0.950 . S
C856 C857 1.386 . S
C856 C858 1.391 . S
C857 C856 1.386 . S
C857 C861 1.393 . S
C858 H850 0.950 . S
C858 C856 1.391 . S
C858 C859 1.400 . S
C859 C858 1.400 . S
C859 C860 1.398 . S
C859 C865 1.491 . S
C860 H851 0.950 . S
C860 C859 1.398 . S
C860 C861 1.391 . S
C861 H849 0.950 . S
C861 C857 1.393 . S
C861 C860 1.391 . S
C862 H852 0.950 . S
C862 C863 1.386 . S
C862 C864 1.391 . S
C863 C862 1.386 . S
C863 C867 1.393 . S
C864 H853 0.950 . S
C864 C862 1.391 . S
C864 C865 1.400 . S
C865 C859 1.491 . S
C865 C864 1.400 . S
C865 C866 1.398 . S
C866 H854 0.950 . S
C866 C865 1.398 . S
C866 C867 1.391 . S
C867 H855 0.950 . S
C867 C863 1.393 . S
C867 C866 1.391 . S
H868 C876 0.950 . S
H869 C881 0.950 . S
H870 C878 0.950 . S
H871 C880 0.950 . S
H872 C882 0.950 1_455 S
H873 C884 0.950 . S
H874 C886 0.950 . S
H875 C887 0.950 . S
C876 H868 0.950 . S
C876 C877 1.386 . S
C876 C878 1.391 . S
C877 C876 1.386 . S
C877 C881 1.393 . S
C878 H870 0.950 . S
C878 C876 1.391 . S
C878 C879 1.400 . S
C879 C878 1.400 . S
C879 C880 1.398 . S
C879 C885 1.491 . S
C880 H871 0.950 . S
C880 C879 1.398 . S
C880 C881 1.391 . S
C881 H869 0.950 . S
C881 C877 1.393 . S
C881 C880 1.391 . S
C882 H872 0.950 1_655 S
C882 C883 1.386 . S
C882 C884 1.391 . S
C883 C882 1.386 . S
C883 C887 1.393 . S
C884 H873 0.950 . S
C884 C882 1.391 . S
C884 C885 1.400 . S
C885 C879 1.491 . S
C885 C884 1.400 . S
C885 C886 1.398 . S
C886 H874 0.950 . S
C886 C885 1.398 . S
C886 C887 1.391 . S
C887 H875 0.950 . S
C887 C883 1.393 . S
C887 C886 1.391 . S
H888 C896 0.950 . S
H889 C901 0.950 . S
H890 C898 0.950 . S
H891 C900 0.950 . S
H892 C902 0.950 . S
H893 C904 0.950 . S
H894 C906 0.950 . S
H895 C907 0.950 . S
C896 H888 0.950 . S
C896 C897 1.386 . S
C896 C898 1.391 . S
C897 C896 1.386 . S
C897 C901 1.393 . S
C898 H890 0.950 . S
C898 C896 1.391 . S
C898 C899 1.400 . S
C899 C898 1.400 . S
C899 C900 1.398 . S
C899 C905 1.491 . S
C900 H891 0.950 . S
C900 C899 1.398 . S
C900 C901 1.391 . S
C901 H889 0.950 . S
C901 C897 1.393 . S
C901 C900 1.391 . S
C902 H892 0.950 . S
C902 C903 1.386 . S
C902 C904 1.391 . S
C903 C902 1.386 . S
C903 C907 1.393 . S
C904 H893 0.950 . S
C904 C902 1.391 . S
C904 C905 1.400 . S
C905 C899 1.491 . S
C905 C904 1.400 . S
C905 C906 1.398 . S
C906 H894 0.950 . S
C906 C905 1.398 . S
C906 C907 1.391 . S
C907 H895 0.950 . S
C907 C903 1.393 . S
C907 C906 1.391 . S
H908 C916 0.950 . S
H909 C921 0.950 . S
H910 C918 0.950 . S
H911 C920 0.950 . S
H912 C922 0.950 . S
H913 C924 0.950 . S
H914 C926 0.950 . S
H915 C927 0.950 . S
C916 H908 0.950 . S
C916 C917 1.386 . S
C916 C918 1.391 . S
C917 C916 1.386 . S
C917 C921 1.393 . S
C918 H910 0.950 . S
C918 C916 1.391 . S
C918 C919 1.400 . S
C919 C918 1.400 . S
C919 C920 1.398 . S
C919 C925 1.491 . S
C920 H911 0.950 . S
C920 C919 1.398 . S
C920 C921 1.391 . S
C921 H909 0.950 . S
C921 C917 1.393 . S
C921 C920 1.391 . S
C922 H912 0.950 . S
C922 C923 1.386 . S
C922 C924 1.391 . S
C923 C922 1.386 . S
C923 C927 1.393 . S
C924 H913 0.950 . S
C924 C922 1.391 . S
C924 C925 1.400 . S
C925 C919 1.491 . S
C925 C924 1.400 . S
C925 C926 1.398 . S
C926 H914 0.950 . S
C926 C925 1.398 . S
C926 C927 1.391 . S
C927 H915 0.950 . S
C927 C923 1.393 . S
C927 C926 1.391 . S
H928 C936 0.950 . S
H929 C941 0.950 . S
H930 C938 0.950 . S
H931 C940 0.950 . S
H932 C942 0.950 . S
H933 C944 0.950 . S
H934 C946 0.950 . S
H935 C947 0.950 . S
C936 H928 0.950 . S
C936 C937 1.386 . S
C936 C938 1.391 . S
C937 C936 1.386 . S
C937 C941 1.393 . S
C938 H930 0.950 . S
C938 C936 1.391 . S
C938 C939 1.400 . S
C939 C938 1.400 . S
C939 C940 1.398 . S
C939 C945 1.491 . S
C940 H931 0.950 . S
C940 C939 1.398 . S
C940 C941 1.391 . S
C941 H929 0.950 . S
C941 C937 1.393 . S
C941 C940 1.391 . S
C942 H932 0.950 . S
C942 C943 1.386 . S
C942 C944 1.391 . S
C943 C942 1.386 . S
C943 C947 1.393 . S
C944 H933 0.950 . S
C944 C942 1.391 . S
C944 C945 1.400 . S
C945 C939 1.491 . S
C945 C944 1.400 . S
C945 C946 1.398 . S
C946 H934 0.950 . S
C946 C945 1.398 . S
C946 C947 1.391 . S
C947 H935 0.950 . S
C947 C943 1.393 . S
C947 C946 1.391 . S
H948 C956 0.950 . S
H949 C961 0.950 . S
H950 C958 0.950 . S
H951 C960 0.950 . S
H952 C962 0.950 . S
H953 C964 0.950 . S
H954 C966 0.950 . S
H955 C967 0.950 . S
C956 H948 0.950 . S
C956 C957 1.386 . S
C956 C958 1.391 . S
C957 C956 1.386 . S
C957 C961 1.393 . S
C958 H950 0.950 . S
C958 C956 1.391 . S
C958 C959 1.400 . S
C959 C958 1.400 . S
C959 C960 1.398 . S
C959 C965 1.491 . S
C960 H951 0.950 . S
C960 C959 1.398 . S
C960 C961 1.391 . S
C961 H949 0.950 . S
C961 C957 1.393 . S
C961 C960 1.391 . S
C962 H952 0.950 . S
C962 C963 1.386 . S
C962 C964 1.391 . S
C963 C962 1.386 . S
C963 C967 1.393 . S
C964 H953 0.950 . S
C964 C962 1.391 . S
C964 C965 1.400 . S
C965 C959 1.491 . S
C965 C964 1.400 . S
C965 C966 1.398 . S
C966 H954 0.950 . S
C966 C965 1.398 . S
C966 C967 1.391 . S
C967 H955 0.950 . S
C967 C963 1.393 . S
C967 C966 1.391 . S
H968 C976 0.950 . S
H969 C981 0.950 . S
H970 C978 0.950 . S
H971 C980 0.950 . S
H972 C982 0.950 . S
H973 C984 0.950 . S
H974 C986 0.950 . S
H975 C987 0.950 . S
C976 H968 0.950 . S
C976 C977 1.386 . S
C976 C978 1.391 . S
C977 C976 1.386 . S
C977 C981 1.393 . S
C978 H970 0.950 . S
C978 C976 1.391 . S
C978 C979 1.400 . S
C979 C978 1.400 . S
C979 C980 1.398 . S
C979 C985 1.491 . S
C980 H971 0.950 . S
C980 C979 1.398 . S
C980 C981 1.391 . S
C981 H969 0.950 . S
C981 C977 1.393 . S
C981 C980 1.391 . S
C982 H972 0.950 . S
C982 C983 1.386 . S
C982 C984 1.391 . S
C983 C982 1.386 . S
C983 C987 1.393 . S
C984 H973 0.950 . S
C984 C982 1.391 . S
C984 C985 1.400 . S
C985 C979 1.491 . S
C985 C984 1.400 . S
C985 C986 1.398 . S
C986 H974 0.950 . S
C986 C985 1.398 . S
C986 C987 1.391 . S
C987 H975 0.950 . S
C987 C983 1.393 . S
C987 C986 1.391 . S
H988 C996 0.950 . S
H989 C1001 0.950 . S
H990 C998 0.950 . S
H991 C1000 0.950 . S
H992 C1002 0.950 . S
H993 C1004 0.950 . S
H994 C1006 0.950 . S
H995 C1007 0.950 . S
C996 H988 0.950 . S
C996 C997 1.386 . S
C996 C998 1.391 . S
C997 C996 1.386 . S
C997 C1001 1.393 . S
C998 H990 0.950 . S
C998 C996 1.391 . S
C998 C999 1.400 . S
C999 C998 1.400 . S
C999 C1000 1.398 . S
C999 C1005 1.491 . S
C1000 H991 0.950 . S
C1000 C999 1.398 . S
C1000 C1001 1.391 . S
C1001 H989 0.950 . S
C1001 C997 1.393 . S
C1001 C1000 1.391 . S
C1002 H992 0.950 . S
C1002 C1003 1.386 . S
C1002 C1004 1.391 . S
C1003 C1002 1.386 . S
C1003 C1007 1.393 . S
C1004 H993 0.950 . S
C1004 C1002 1.391 . S
C1004 C1005 1.400 . S
C1005 C999 1.491 . S
C1005 C1004 1.400 . S
C1005 C1006 1.398 . S
C1006 H994 0.950 . S
C1006 C1005 1.398 . S
C1006 C1007 1.391 . S
C1007 H995 0.950 . S
C1007 C1003 1.393 . S
C1007 C1006 1.391 . S
H1008 C1016 0.950 . S
H1009 C1021 0.950 . S
H1010 C1018 0.950 . S
H1011 C1020 0.950 . S
H1012 C1022 0.950 . S
H1013 C1024 0.950 . S
H1014 C1026 0.950 . S
H1015 C1027 0.950 . S
C1016 H1008 0.950 . S
C1016 C1017 1.386 . S
C1016 C1018 1.391 . S
C1017 C1016 1.386 . S
C1017 C1021 1.393 . S
C1018 H1010 0.950 . S
C1018 C1016 1.391 . S
C1018 C1019 1.400 . S
C1019 C1018 1.400 . S
C1019 C1020 1.398 . S
C1019 C1025 1.491 . S
C1020 H1011 0.950 . S
C1020 C1019 1.398 . S
C1020 C1021 1.391 . S
C1021 H1009 0.950 . S
C1021 C1017 1.393 . S
C1021 C1020 1.391 . S
C1022 H1012 0.950 . S
C1022 C1023 1.386 . S
C1022 C1024 1.391 . S
C1023 C1022 1.386 . S
C1023 C1027 1.393 . S
C1024 H1013 0.950 . S
C1024 C1022 1.391 . S
C1024 C1025 1.400 . S
C1025 C1019 1.491 . S
C1025 C1024 1.400 . S
C1025 C1026 1.398 . S
C1026 H1014 0.950 . S
C1026 C1025 1.398 . S
C1026 C1027 1.391 . S
C1027 H1015 0.950 . S
C1027 C1023 1.393 . S
C1027 C1026 1.391 . S
H1028 C1036 0.950 . S
H1029 C1041 0.950 1_556 S
H1030 C1038 0.950 . S
H1031 C1040 0.950 . S
H1032 C1042 0.950 . S
H1033 C1044 0.950 . S
H1034 C1046 0.950 . S
H1035 C1047 0.950 . S
C1036 H1028 0.950 . S
C1036 C1037 1.386 . S
C1036 C1038 1.391 . S
C1037 C1036 1.386 . S
C1037 C1041 1.393 . S
C1038 H1030 0.950 . S
C1038 C1036 1.391 . S
C1038 C1039 1.400 . S
C1039 C1038 1.400 . S
C1039 C1040 1.398 1_554 S
C1039 C1045 1.491 . S
C1040 H1031 0.950 . S
C1040 C1039 1.398 1_556 S
C1040 C1041 1.391 1_556 S
C1041 H1029 0.950 1_554 S
C1041 C1037 1.393 . S
C1041 C1040 1.391 1_554 S
C1042 H1032 0.950 . S
C1042 C1043 1.386 . S
C1042 C1044 1.391 . S
C1043 C1042 1.386 . S
C1043 C1047 1.393 1_556 S
C1044 H1033 0.950 . S
C1044 C1042 1.391 . S
C1044 C1045 1.400 1_556 S
C1045 C1039 1.491 . S
C1045 C1044 1.400 1_554 S
C1045 C1046 1.398 . S
C1046 H1034 0.950 . S
C1046 C1045 1.398 . S
C1046 C1047 1.391 . S
C1047 H1035 0.950 . S
C1047 C1043 1.393 1_554 S
C1047 C1046 1.391 . S
C577 C7 1.330 . S
C583 C89 1.247 . S
C597 C37 1.593 . S
C603 C168 1.491 . S
C617 C54 1.408 . S
C623 C239 1.363 1_545 S
C643 C299 1.711 . S
C637 C87 1.711 . S
C663 C329 1.433 . S
C657 C30 1.548 . S
C677 C51 1.360 . S
C683 C419 1.356 . S
C697 C84 1.697 . S
C703 C479 1.686 . S
C717 C10 1.433 . S
C723 C528 1.396 1_455 S
C737 C59 1.357 . S
C743 C509 1.318 . S
C763 C348 1.545 . S
C757 C74 1.555 . S
C783 C408 1.230 1_565 S
C777 C18 1.446 . S
C797 C32 1.709 . S
C803 C468 1.589 . S
C823 C149 1.422 . S
C817 C73 1.598 . S
C837 C15 1.346 . S
C843 C228 1.260 . S
C863 C288 1.626 . S
C857 C43 1.716 . S
C883 C108 1.386 1_655 S
C877 C62 1.410 . S
C903 C449 1.655 . S
C897 C21 1.702 . S
C923 C539 1.062 . S
C917 C29 1.137 . S
C937 C52 1.341 . S
C943 C359 1.316 . S
C963 C389 1.125 . S
C957 C81 1.131 . S
C983 C209 1.056 . S
C977 C40 1.100 . S
C997 C65 1.671 . S
C1003 C269 1.625 . S
C1023 C119 1.022 . S
C1017 C76 1.094 . S
C1043 C179 1.321 . S
C1037 C8 1.395 . S
