# Generated by pormake.
# Topology pth, (4,4)-cn, num edge types: 1
# Building blocks:
#     Node 0, Type 0, BuildingBlock: TATPOV_clean_sbu_0, # of connection points: 4
#     Node 1, Type 0, BuildingBlock: TATPOV_clean_sbu_0, # of connection points: 4
#     Node 2, Type 0, BuildingBlock: TATPOV_clean_sbu_0, # of connection points: 4
#     Node 3, Type 1, BuildingBlock: NAWXER_clean_linker_0, # of connection points: 4
#     Node 4, Type 1, BuildingBlock: NAWXER_clean_linker_0, # of connection points: 4
#     Node 5, Type 1, BuildingBlock: NAWXER_clean_linker_0, # of connection points: 4
#     Edge 6, Type (0, 1), BuildingBlock: KIFKEQ_clean_linker_1, # of connection points: 2
#     Edge 7, Type (0, 1), BuildingBlock: KIFKEQ_clean_linker_1, # of connection points: 2
#     Edge 8, Type (0, 1), BuildingBlock: KIFKEQ_clean_linker_1, # of connection points: 2
#     Edge 9, Type (0, 1), BuildingBlock: KIFKEQ_clean_linker_1, # of connection points: 2
#     Edge 10, Type (0, 1), BuildingBlock: KIFKEQ_clean_linker_1, # of connection points: 2
#     Edge 11, Type (0, 1), BuildingBlock: KIFKEQ_clean_linker_1, # of connection points: 2
#     Edge 12, Type (0, 1), BuildingBlock: KIFKEQ_clean_linker_1, # of connection points: 2
#     Edge 13, Type (0, 1), BuildingBlock: KIFKEQ_clean_linker_1, # of connection points: 2
#     Edge 14, Type (0, 1), BuildingBlock: KIFKEQ_clean_linker_1, # of connection points: 2
#     Edge 15, Type (0, 1), BuildingBlock: KIFKEQ_clean_linker_1, # of connection points: 2
#     Edge 16, Type (0, 1), BuildingBlock: KIFKEQ_clean_linker_1, # of connection points: 2
#     Edge 17, Type (0, 1), BuildingBlock: KIFKEQ_clean_linker_1, # of connection points: 2
# Relax obj value: 0.037
# Max RMSD: 0.160
# Mean RMSD: 0.080
data_MOF--net-pth--node1-TATPOV_clean_sbu_0--node2-NAWXER_clean_linker_0--edge1-KIFKEQ_clean_linker_1
_symmetry_space_group_name_H-M    P1
_symmetry_Int_Tables_number       1
_symmetry_cell_setting            triclinic
loop_
_symmetry_equiv_pos_as_xyz
'x, y, z'
_cell_length_a     29.535179
_cell_length_b     29.316302
_cell_length_c     64.879089
_cell_angle_alpha  92.480835
_cell_angle_beta   92.157419
_cell_angle_gamma 120.818
loop_
_atom_site_label
_atom_site_type_symbol
_atom_site_fract_x
_atom_site_fract_y
_atom_site_fract_z
_atom_type_partial_charge
Zn0 Zn 0.13563 0.01857 0.03251 0.0
Zn1 Zn 0.07848 0.0556 0.05039 0.0
O2 O 0.08596 0.01025 0.07222 0.0
O3 O 0.13334 0.98053 0.05801 0.0
O4 O 0.0456 0.09273 0.06488 0.0
O5 O 0.196 0.09262 0.02857 0.0
O6 O 0.14456 0.12001 0.04044 0.0
C7 C 0.10801 0.98259 0.07299 0.0
C8 C 0.03213 0.98353 0.01127 0.0
O9 O 0.02662 0.00955 0.02621 0.0
O10 O 0.07435 0.98228 0.01044 0.0
C11 C 0.01898 0.07781 0.08075 0.0
O12 O 0.00844 0.03278 0.08829 0.0
C13 C 0.18723 0.12992 0.03254 0.0
Zn14 Zn 0.15567 0.10602 0.3603 0.0
Zn15 Zn 0.07451 0.08095 0.38356 0.0
O16 O 0.1382 0.10218 0.4044 0.0
O17 O 0.20675 0.13343 0.38541 0.0
O18 O 0.01615 0.07044 0.40154 0.0
O19 O 0.14071 0.15444 0.34407 0.0
O20 O 0.07693 0.13645 0.3646 0.0
C21 C 0.18785 0.12335 0.40295 0.0
C22 C 0.07193 0.99436 0.35576 0.0
O23 O 0.04753 0.0088 0.36767 0.0
O24 O 0.11845 0.02747 0.3512 0.0
C25 C 0.00723 0.04874 0.41864 0.0
O26 O 0.0365 0.02981 0.4253 0.0
C27 C 0.1034 0.16065 0.34951 0.0
Zn28 Zn 0.08798 0.92577 0.7385 0.0
Zn29 Zn 0.04174 0.96949 0.71695 0.0
O30 O 0.08828 0.961 0.69603 0.0
O31 O 0.12404 0.92256 0.71307 0.0
O32 O -0.00036 0.99368 0.70045 0.0
O33 O 0.01767 0.86393 0.74509 0.0
O34 O 0.98144 0.90225 0.7284 0.0
C35 C 0.11851 0.94188 0.69674 0.0
C36 C 0.11509 0.03213 0.75467 0.0
O37 O 0.08532 0.02956 0.73937 0.0
O38 O 0.12194 0.99349 0.75752 0.0
C39 C 0.01356 0.01973 0.6844 0.0
O40 O 0.06041 0.03512 0.67777 0.0
C41 C 0.97688 0.86475 0.73902 0.0
C42 C 0.96015 0.34727 0.24344 0.0
C43 C -0.00161 0.36851 0.26024 0.0
C44 C 0.9522 0.38109 0.23117 0.0
C45 C 0.98329 0.43661 0.23528 0.0
C46 C 0.02897 0.42393 0.26435 0.0
C47 C 0.02147 0.45752 0.25203 0.0
C48 C 0.97574 0.4742 0.22323 0.0
C49 C 0.01839 0.383 0.17888 0.0
C50 C 0.97761 0.35174 0.16355 0.0
C51 C 0.01767 0.42322 0.19095 0.0
C52 C 0.97583 0.43257 0.18812 0.0
C53 C 0.93665 0.36242 0.16031 0.0
C54 C 0.93594 0.40266 0.17244 0.0
C55 C 0.97353 0.47348 0.20141 0.0
C56 C 0.03818 0.69825 0.18918 0.0
C57 C 0.00997 0.69307 0.17044 0.0
C58 C 0.02571 0.6537 0.20005 0.0
C59 C 0.98407 0.60292 0.19266 0.0
C60 C 0.9681 0.64226 0.16307 0.0
C61 C 0.95553 0.59755 0.17402 0.0
C62 C 0.97391 0.55532 0.20343 0.0
C63 C 0.93363 0.64781 0.24942 0.0
C64 C 0.96815 0.66822 0.2674 0.0
C65 C 0.9355 0.61139 0.23531 0.0
C66 C 0.97196 0.59491 0.23896 0.0
C67 C 0.00488 0.65188 0.27077 0.0
C68 C 0.0064 0.61534 0.25682 0.0
C69 C 0.97281 0.55401 0.22514 0.0
H70 H 0.93579 0.30459 0.24006 0.0
H71 H 0.92149 0.36387 0.2187 0.0
H72 H 0.05923 0.44144 0.27699 0.0
H73 H 0.04591 0.50017 0.25556 0.0
H74 H 0.05115 0.37667 0.18145 0.0
H75 H 0.04966 0.44685 0.2026 0.0
H76 H 0.90456 0.33897 0.1487 0.0
H77 H 0.90356 0.40961 0.16989 0.0
H78 H 0.07042 0.73676 0.19537 0.0
H79 H 0.04974 0.65891 0.21398 0.0
H80 H 0.94612 0.63678 0.14852 0.0
H81 H 0.92389 0.5587 0.16782 0.0
H82 H 0.90463 0.65928 0.24643 0.0
H83 H 0.90784 0.59531 0.2218 0.0
H84 H 0.03306 0.66777 0.28411 0.0
H85 H 0.03494 0.60328 0.25994 0.0
N86 N 0.97462 0.51407 0.23411 0.0
N87 N 0.97299 0.51427 0.19232 0.0
C88 C 0.74577 0.08911 0.52218 0.0
C89 C 0.73059 0.05122 0.5053 0.0
C90 C 0.70769 0.09036 0.53399 0.0
C91 C 0.65374 0.0534 0.52926 0.0
C92 C 0.67644 0.01483 0.50048 0.0
C93 C 0.63847 0.01616 0.51226 0.0
C94 C 0.61267 0.05344 0.54164 0.0
C95 C 0.70902 0.01102 0.58308 0.0
C96 C 0.73648 0.04907 0.5998 0.0
C97 C 0.66854 0.01128 0.57131 0.0
C98 C 0.65506 0.04991 0.5759 0.0
C99 C 0.7221 0.08705 0.60456 0.0
C100 C 0.68159 0.08723 0.59279 0.0
C101 C 0.61304 0.05143 0.56337 0.0
C102 C 0.39048 0.98862 0.57837 0.0
C103 C 0.39745 0.01714 0.59736 0.0
C104 C 0.43387 -0.00038 0.5671 0.0
C105 C 0.48514 0.03958 0.5745 0.0
C106 C 0.44879 0.05716 0.60476 0.0
C107 C 0.49229 0.06794 0.59351 0.0
C108 C 0.53131 0.04959 0.56295 0.0
C109 C 0.44569 0.10862 0.52426 0.0
C110 C 0.42476 0.08129 0.50473 0.0
C111 C 0.48014 0.09959 0.53633 0.0
C112 C 0.49386 0.06255 0.52924 0.0
C113 C 0.43841 0.04407 0.49772 0.0
C114 C 0.47284 0.03506 0.5098 0.0
C115 C 0.53262 0.05487 0.54141 0.0
H116 H 0.78705 0.11837 0.52609 0.0
H117 H 0.72037 0.12036 0.54672 0.0
H118 H 0.66334 0.98475 0.48775 0.0
H119 H 0.59705 0.9874 0.50829 0.0
H120 H 0.71828 0.98051 0.57926 0.0
H121 H 0.64766 0.9812 0.55866 0.0
H122 H 0.74268 0.11719 0.61721 0.0
H123 H 0.67158 0.11719 0.59665 0.0
H124 H 0.35143 0.95769 0.57224 0.0
H125 H 0.4274 0.97624 0.55272 0.0
H126 H 0.45546 0.07927 0.61948 0.0
H127 H 0.53153 0.09848 0.59963 0.0
H128 H 0.43675 0.13821 0.52995 0.0
H129 H 0.49708 0.12259 0.551 0.0
H130 H 0.42249 0.02189 0.48285 0.0
H131 H 0.48304 0.00652 0.50395 0.0
N132 N 0.57268 0.05549 0.53153 0.0
N133 N 0.57212 0.04918 0.57319 0.0
C134 C 0.37474 0.36752 0.86267 0.0
C135 C 0.34421 0.36856 0.84575 0.0
C136 C 0.41474 0.41479 0.87294 0.0
C137 C 0.42439 0.4642 0.86681 0.0
C138 C 0.35273 0.41793 0.84002 0.0
C139 C 0.39273 0.46534 0.85039 0.0
C140 C 0.47194 0.51412 0.87537 0.0
C141 C 0.37375 0.44678 0.93032 0.0
C142 C 0.39706 0.42837 0.94452 0.0
C143 C 0.40259 0.47829 0.9146 0.0
C144 C 0.45534 0.49235 0.91294 0.0
C145 C 0.45003 0.44287 0.94269 0.0
C146 C 0.47893 0.47497 0.92725 0.0
C147 C 0.48721 0.52603 0.89673 0.0
C148 C 0.69178 0.73804 0.90038 0.0
C149 C 0.71895 0.72828 0.9162 0.0
C150 C 0.64354 0.69659 0.89123 0.0
C151 C 0.62185 0.64482 0.89777 0.0
C152 C 0.6971 0.67636 0.9226 0.0
C153 C 0.64902 0.63519 0.91354 0.0
C154 C 0.56968 0.60071 0.88925 0.0
C155 C 0.67498 0.6359 0.83708 0.0
C156 C 0.66301 0.65813 0.82051 0.0
C157 C 0.64014 0.61416 0.85262 0.0
C158 C 0.59268 0.61433 0.85195 0.0
C159 C 0.6154 0.65821 0.81981 0.0
C160 C 0.58017 0.63586 0.83531 0.0
C161 C 0.55483 0.58859 0.86789 0.0
H162 H 0.36885 0.3301 0.86756 0.0
H163 H 0.43971 0.41254 0.885 0.0
H164 H 0.33029 0.42007 0.82689 0.0
H165 H 0.40008 0.50301 0.84516 0.0
H166 H 0.33337 0.43721 0.93141 0.0
H167 H 0.38394 0.49207 0.90389 0.0
H168 H 0.46913 0.42858 0.95292 0.0
H169 H 0.5196 0.48529 0.92619 0.0
H170 H 0.70773 0.77767 0.89514 0.0
H171 H 0.62276 0.70522 0.87937 0.0
H172 H 0.71654 0.66773 0.93501 0.0
H173 H 0.6329 0.59566 0.91894 0.0
H174 H 0.71158 0.63572 0.83813 0.0
H175 H 0.64999 0.59654 0.86505 0.0
H176 H 0.60512 0.67482 0.80713 0.0
H177 H 0.54333 0.63558 0.83438 0.0
N178 N 0.50636 0.54605 0.86177 0.0
N179 N 0.53538 0.56881 0.90278 0.0
H180 H 0.03737 0.17446 0.06967 0.0
H181 H 0.96949 0.06302 0.11685 0.0
H182 H 0.02257 0.2376 0.08935 0.0
H183 H 0.9537 0.12601 0.13638 0.0
H184 H 0.00295 0.27983 0.1769 0.0
H185 H 0.00756 0.21108 0.15627 0.0
H186 H 0.95552 0.25473 0.10141 0.0
H187 H 0.95287 0.32495 0.12195 0.0
C188 C 0.01861 0.16309 0.08411 0.0
C189 C 0.00495 0.11377 0.09175 0.0
C190 C 0.00985 0.19925 0.09535 0.0
C191 C 0.98719 0.18702 0.11451 0.0
C192 C 0.97197 0.13699 0.12183 0.0
C193 C 0.9807 0.10074 0.11057 0.0
C194 C 0.99279 0.27498 0.16042 0.0
C195 C 0.97795 0.30819 0.15105 0.0
C196 C 0.99473 0.23506 0.14863 0.0
C197 C 0.98189 0.22735 0.12718 0.0
C198 C 0.96616 0.25995 0.11786 0.0
C199 C 0.96415 0.29987 0.12967 0.0
H200 H 0.94417 0.08949 0.41014 0.0
H201 H 0.97628 0.00457 0.4557 0.0
H202 H 0.87791 0.08968 0.43121 0.0
H203 H 0.90881 0.00364 0.47661 0.0
H204 H 0.82615 0.06456 0.51866 0.0
H205 H 0.89254 0.06335 0.49777 0.0
H206 H 0.79145 0.03096 0.44249 0.0
H207 H 0.72631 0.03462 0.46325 0.0
C208 C 0.93681 0.07045 0.42459 0.0
C209 C 0.9656 0.04701 0.43123 0.0
C210 C 0.89855 0.07032 0.43663 0.0
C211 C 0.88791 0.0466 0.4556 0.0
C212 C 0.91648 0.02286 0.4622 0.0
C213 C 0.95491 0.02308 0.45015 0.0
C214 C 0.81836 0.05774 0.50203 0.0
C215 C 0.77091 0.04981 0.49264 0.0
C216 C 0.85613 0.05635 0.49007 0.0
C217 C 0.84737 0.04702 0.46844 0.0
C218 C 0.79981 0.03885 0.45908 0.0
C219 C 0.76213 0.04032 0.47102 0.0
H220 H 0.95461 0.78406 0.76391 0.0
H221 H 0.88146 0.85734 0.73086 0.0
H222 H 0.87306 0.72916 0.78024 0.0
H223 H 0.79897 0.80103 0.74686 0.0
H224 H 0.6984 0.75442 0.80449 0.0
H225 H 0.76888 0.79799 0.78109 0.0
H226 H 0.78297 0.65828 0.77637 0.0
H227 H 0.71332 0.61541 0.80014 0.0
C228 C 0.92077 0.78767 0.75977 0.0
C229 C 0.92482 0.82555 0.74624 0.0
C230 C 0.87375 0.75586 0.76907 0.0
C231 C 0.82946 0.7609 0.76499 0.0
C232 C 0.83262 0.79679 0.75061 0.0
C233 C 0.8798 0.8288 0.74133 0.0
C234 C 0.71598 0.73277 0.79814 0.0
C235 C 0.70092 0.68187 0.80432 0.0
C236 C 0.75625 0.7576 0.78466 0.0
C237 C 0.78199 0.73183 0.77698 0.0
C238 C 0.76479 0.67971 0.78233 0.0
C239 C 0.72487 0.65511 0.79591 0.0
H240 H 0.15578 0.92585 0.08091 0.0
H241 H 0.04016 0.96027 0.10388 0.0
H242 H 0.13335 0.85971 0.10608 0.0
H243 H 0.01821 0.89426 0.12937 0.0
H244 H 0.94623 0.72087 0.14949 0.0
H245 H 0.97321 0.79606 0.12808 0.0
H246 H 0.13708 0.84755 0.14284 0.0
H247 H 0.11019 0.77162 0.16358 0.0
C248 C 0.12616 0.91997 0.09156 0.0
C249 C 0.09958 0.94822 0.09028 0.0
C250 C 0.11345 0.88213 0.10607 0.0
C251 C 0.07375 0.87146 0.11965 0.0
C252 C 0.04849 0.90109 0.11893 0.0
C253 C 0.06142 0.93924 0.10444 0.0
C254 C 0.98798 0.7482 0.14811 0.0
C255 C 0.02601 0.74013 0.1582 0.0
C256 C 0.00347 0.79164 0.13606 0.0
C257 C 0.05732 0.8278 0.13376 0.0
C258 C 0.09529 0.8202 0.14415 0.0
C259 C 0.07984 0.77692 0.15621 0.0
H260 H 0.15997 0.0767 0.4397 0.0
H261 H 0.29536 0.18313 0.40697 0.0
H262 H 0.21851 0.07203 0.46602 0.0
H263 H 0.35376 0.17961 0.43347 0.0
H264 H 0.42767 0.09254 0.46321 0.0
H265 H 0.37107 0.10994 0.44096 0.0
H266 H 0.28899 0.11651 0.49371 0.0
H267 H 0.34467 0.0969 0.51599 0.0
C268 C 0.20227 0.10028 0.43843 0.0
C269 C 0.223 0.12963 0.42109 0.0
C270 C 0.23585 0.09763 0.45353 0.0
C271 C 0.29075 0.12456 0.4516 0.0
C272 C 0.31156 0.15723 0.43511 0.0
C273 C 0.27809 0.15957 0.41999 0.0
C274 C 0.39729 0.09722 0.47008 0.0
C275 C 0.39048 0.09294 0.49136 0.0
C276 C 0.36532 0.10806 0.45736 0.0
C277 C 0.32576 0.11513 0.46558 0.0
C278 C 0.31898 0.1111 0.48689 0.0
C279 C 0.35113 0.10028 0.49966 0.0
H280 H 0.1689 0.04424 0.79145 0.0
H281 H 0.12444 0.12941 0.7505 0.0
H282 H 0.21973 0.12457 0.81423 0.0
H283 H 0.17674 0.21062 0.77321 0.0
H284 H 0.24439 0.33617 0.82908 0.0
H285 H 0.18471 0.25407 0.8077 0.0
H286 H 0.30173 0.20758 0.81213 0.0
H287 H 0.36072 0.28877 0.83335 0.0
C288 C 0.16996 0.08015 0.78729 0.0
C289 C 0.14307 0.08054 0.76903 0.0
C290 C 0.19931 0.1263 0.80033 0.0
C291 C 0.20287 0.17417 0.79539 0.0
C292 C 0.17453 0.17428 0.7775 0.0
C293 C 0.14481 0.12784 0.76444 0.0
C294 C 0.25719 0.30829 0.82545 0.0
C295 C 0.30697 0.31862 0.83312 0.0
C296 C 0.22312 0.2614 0.81319 0.0
C297 C 0.23829 0.22408 0.80839 0.0
C298 C 0.28826 0.23482 0.81595 0.0
C299 C 0.32211 0.28141 0.82815 0.0
H300 H 0.02784 0.07074 0.64865 0.0
H301 H 0.91279 0.9895 0.69336 0.0
H302 H 0.96311 0.08189 0.62847 0.0
H303 H 0.84805 -0.00047 0.67302 0.0
H304 H 0.75707 0.066 0.64183 0.0
H305 H 0.82686 0.06451 0.66245 0.0
H306 H 0.88175 0.02761 0.60693 0.0
H307 H 0.81338 0.0315 0.58621 0.0
C308 C 0.98886 0.0554 0.65421 0.0
C309 C 0.97552 0.02917 0.67261 0.0
C310 C 0.95164 0.06148 0.64257 0.0
C311 C 0.90031 0.04149 0.64909 0.0
C312 C 0.88738 0.01607 0.66768 0.0
C313 C 0.92451 0.01004 0.67929 0.0
C314 C 0.78448 0.05834 0.63398 0.0
C315 C 0.77951 0.04876 0.61235 0.0
C316 C 0.82416 0.05689 0.64583 0.0
C317 C 0.85981 0.04571 0.63637 0.0
C318 C 0.85531 0.03685 0.61472 0.0
C319 C 0.81565 0.03837 0.60285 0.0
H320 H 0.93066 0.96323 0.01079 0.0
H321 H 0.03578 0.93545 0.97493 0.0
H322 H 0.8578 0.90693 0.98531 0.0
H323 H 0.96341 0.88049 0.94924 0.0
H324 H 0.80811 0.72655 0.927 0.0
H325 H 0.88555 0.79346 0.94822 0.0
H326 H 0.82108 0.89667 0.95006 0.0
H327 H 0.74228 0.82842 0.92944 0.0
C328 C 0.9384 0.94575 0.99733 0.0
C329 C 0.98884 0.95326 0.99503 0.0
C330 C 0.89672 0.91379 0.98264 0.0
C331 C 0.90472 0.88891 0.9653 0.0
C332 C 0.95571 0.89827 0.96261 0.0
C333 C 0.99723 0.92992 0.97732 0.0
C334 C 0.81055 0.7636 0.93188 0.0
C335 C 0.76889 0.772 0.92674 0.0
C336 C 0.85522 0.80225 0.94385 0.0
C337 C 0.85942 0.85037 0.95092 0.0
C338 C 0.8187 0.85972 0.94508 0.0
C339 C 0.77388 0.82093 0.93307 0.0
H340 H 0.11772 0.9359 0.34958 0.0
H341 H 0.96921 0.93011 0.34065 0.0
H342 H 0.07961 0.84921 0.33044 0.0
H343 H 0.93136 0.84349 0.32073 0.0
H344 H 0.95383 0.75138 0.25933 0.0
H345 H 0.96695 0.82362 0.2838 0.0
H346 H 0.9967 0.74793 0.33373 0.0
H347 H 0.98127 0.67439 0.30962 0.0
C348 C 0.07668 0.91562 0.34372 0.0
C349 C 0.04629 0.9394 0.34653 0.0
C350 C 0.05488 0.86608 0.33287 0.0
C351 C 0.00267 0.83999 0.32421 0.0
C352 C 0.97169 0.86303 0.32738 0.0
C353 C 0.99318 0.9122 0.33878 0.0
C354 C 0.96137 0.74911 0.27561 0.0
C355 C 0.96758 0.70761 0.28244 0.0
C356 C 0.96886 0.79048 0.28958 0.0
C357 C 0.98313 0.7912 0.31052 0.0
C358 C 0.98602 0.74821 0.31759 0.0
C359 C 0.97775 0.70653 0.30373 0.0
H360 H 0.13863 0.00366 0.66385 0.0
H361 H 0.17342 0.89144 0.69045 0.0
H362 H 0.20186 0.01965 0.63776 0.0
H363 H 0.23644 0.90757 0.66449 0.0
H364 H 0.31712 0.9184 0.60528 0.0
H365 H 0.24343 0.89634 0.62675 0.0
H366 H 0.30089 0.06379 0.63924 0.0
H367 H 0.37417 0.08586 0.61745 0.0
C368 C 0.15909 0.98179 0.66394 0.0
C369 C 0.15119 0.94647 0.67929 0.0
C370 C 0.19557 0.99127 0.6491 0.0
C371 C 0.22432 0.96511 0.64917 0.0
C372 C 0.21462 0.92805 0.66394 0.0
C373 C 0.17865 0.91899 0.67887 0.0
C374 C 0.3136 0.95047 0.61237 0.0
C375 C 0.35151 0.00389 0.60973 0.0
C376 C 0.27162 0.93784 0.62478 0.0
C377 C 0.26641 0.97832 0.63469 0.0
C378 C 0.30357 0.03171 0.63164 0.0
C379 C 0.34583 0.04437 0.61936 0.0
H380 H 0.16347 0.20614 0.02459 0.0
H381 H 0.29004 0.17292 0.02307 0.0
H382 H 0.21533 0.28567 0.00593 0.0
H383 H 0.34218 0.25321 0.00479 0.0
H384 H 0.43186 0.42493 0.98405 0.0
H385 H 0.38381 0.35914 0.00884 0.0
H386 H 0.2437 0.28675 0.96717 0.0
H387 H 0.29201 0.35023 0.9418 0.0
C388 C 0.2029 0.21657 0.0208 0.0
C389 C 0.22258 0.18307 0.02515 0.0
C390 C 0.23234 0.26189 0.01003 0.0
C391 C 0.28242 0.27514 0.00387 0.0
C392 C 0.30368 0.24384 0.00948 0.0
C393 C 0.27382 0.1979 0.01988 0.0
C394 C 0.39091 0.39485 0.98004 0.0
C395 C 0.36615 0.39263 0.96071 0.0
C396 C 0.3634 0.35756 0.99435 0.0
C397 C 0.31024 0.31811 0.98986 0.0
C398 C 0.28461 0.31728 0.97106 0.0
C399 C 0.31233 0.35387 0.95657 0.0
H400 H 0.02773 0.18547 0.35732 0.0
H401 H 0.14319 0.20702 0.31372 0.0
H402 H 0.99787 0.23232 0.33562 0.0
H403 H 0.11349 0.25404 0.29221 0.0
H404 H 0.00979 0.28475 0.24809 0.0
H405 H 0.03323 0.23316 0.2701 0.0
H406 H 0.03216 0.32359 0.32426 0.0
H407 H 0.00791 0.37436 0.30232 0.0
C408 C 0.04702 0.20052 0.34321 0.0
C409 C 0.08788 0.19252 0.33727 0.0
C410 C 0.02991 0.22735 0.3308 0.0
C411 C 0.05305 0.24639 0.31214 0.0
C412 C 0.09432 0.23901 0.30634 0.0
C413 C 0.11166 0.21253 0.31879 0.0
C414 C 0.01374 0.2929 0.26472 0.0
C415 C 0.00737 0.33368 0.27351 0.0
C416 C 0.02767 0.26383 0.27729 0.0
C417 C 0.03497 0.27472 0.29888 0.0
C418 C 0.02661 0.31416 0.30769 0.0
C419 C 0.0131 0.34344 0.29513 0.0
loop_
_geom_bond_atom_site_label_1
_geom_bond_atom_site_label_2
_geom_bond_distance
_geom_bond_site_symmetry_2
_ccdc_geom_bond_type
Zn0 O3 2.031 1_545 S
Zn0 O5 2.049 . S
Zn0 O10 2.067 1_545 S
Zn1 O2 1.962 . S
Zn1 O4 1.986 . S
Zn1 O6 1.996 . S
Zn1 O9 1.943 . S
O2 Zn1 1.962 . S
O2 C7 1.254 1_545 S
O3 Zn0 2.031 1_565 S
O3 C7 1.269 . S
O4 Zn1 1.986 . S
O4 C11 1.262 . S
O5 Zn0 2.049 . S
O5 C13 1.260 . S
O6 Zn1 1.996 . S
O6 C13 1.257 . S
C7 O2 1.254 1_565 S
C7 O3 1.269 . S
C8 O9 1.249 1_565 S
C8 O10 1.270 . S
O9 Zn1 1.943 . S
O9 C8 1.249 1_545 S
O10 Zn0 2.067 1_565 S
O10 C8 1.270 . S
C11 O4 1.262 . S
C11 O12 1.232 . S
O12 C11 1.232 . S
C13 O5 1.260 . S
C13 O6 1.257 . S
Zn14 O17 2.031 . S
Zn14 O19 2.049 . S
Zn14 O24 2.067 . S
Zn15 O16 1.962 . S
Zn15 O18 1.986 1_455 S
Zn15 O20 1.996 . S
Zn15 O23 1.943 1_455 S
O16 Zn15 1.962 . S
O16 C21 1.254 . S
O17 Zn14 2.031 . S
O17 C21 1.269 . S
O18 Zn15 1.986 1_655 S
O18 C25 1.262 . S
O19 Zn14 2.049 . S
O19 C27 1.260 . S
O20 Zn15 1.996 . S
O20 C27 1.257 . S
C21 O16 1.254 . S
C21 O17 1.269 . S
C22 O23 1.249 1_465 S
C22 O24 1.270 1_565 S
O23 Zn15 1.943 1_655 S
O23 C22 1.249 1_645 S
O24 Zn14 2.067 . S
O24 C22 1.270 1_545 S
C25 O18 1.262 . S
C25 O26 1.232 . S
O26 C25 1.232 . S
C27 O19 1.260 . S
C27 O20 1.257 . S
Zn28 O31 2.031 1_565 S
Zn28 O33 2.049 . S
Zn28 O38 2.067 1_565 S
Zn29 O30 1.962 1_545 S
Zn29 O32 1.986 1_445 S
Zn29 O34 1.996 1_445 S
Zn29 O37 1.943 . S
O30 Zn29 1.962 1_565 S
O30 C35 1.254 . S
O31 Zn28 2.031 1_545 S
O31 C35 1.269 1_545 S
O32 Zn29 1.986 1_665 S
O32 C39 1.262 1_565 S
O33 Zn28 2.049 . S
O33 C41 1.260 1_455 S
O34 Zn29 1.996 1_665 S
O34 C41 1.257 . S
C35 O30 1.254 . S
C35 O31 1.269 1_565 S
C36 O37 1.249 . S
C36 O38 1.270 . S
O37 Zn29 1.943 . S
O37 C36 1.249 . S
O38 Zn28 2.067 1_545 S
O38 C36 1.270 . S
C39 O32 1.262 1_545 S
C39 O40 1.232 1_655 S
O40 C39 1.232 1_455 S
C41 O33 1.260 1_655 S
C41 O34 1.257 . S
C42 C43 1.384 . S
C42 C44 1.384 . S
C42 H70 0.931 1_455 S
C43 C42 1.384 . S
C43 C46 1.382 . S
C44 C42 1.384 . S
C44 C45 1.381 . S
C44 H71 0.930 1_455 S
C45 C44 1.381 . S
C45 C47 1.381 . S
C45 C48 1.487 . S
C46 C43 1.382 . S
C46 C47 1.387 . S
C46 H72 0.930 . S
C47 C45 1.381 . S
C47 C46 1.387 . S
C47 H73 0.931 . S
C48 C45 1.487 . S
C48 C55 1.399 . S
C48 N86 1.343 . S
C49 C50 1.384 . S
C49 C51 1.384 . S
C49 H74 0.931 . S
C50 C49 1.384 . S
C50 C53 1.382 . S
C51 C49 1.384 . S
C51 C52 1.381 . S
C51 H75 0.930 . S
C52 C51 1.381 . S
C52 C54 1.381 . S
C52 C55 1.487 . S
C53 C50 1.382 . S
C53 C54 1.387 . S
C53 H76 0.930 1_455 S
C54 C52 1.381 . S
C54 C53 1.387 . S
C54 H77 0.931 1_455 S
C55 C48 1.399 . S
C55 C52 1.487 . S
C55 N87 1.343 . S
C56 C57 1.384 . S
C56 C58 1.384 . S
C56 H78 0.931 . S
C57 C56 1.384 . S
C57 C60 1.382 . S
C58 C56 1.384 . S
C58 C59 1.381 . S
C58 H79 0.930 . S
C59 C58 1.381 . S
C59 C61 1.381 . S
C59 C62 1.487 . S
C60 C57 1.382 . S
C60 C61 1.387 . S
C60 H80 0.930 1_455 S
C61 C59 1.381 . S
C61 C60 1.387 . S
C61 H81 0.931 1_455 S
C62 C59 1.487 . S
C62 C69 1.399 . S
C62 N87 1.343 . S
C63 C64 1.384 . S
C63 C65 1.384 . S
C63 H82 0.931 1_455 S
C64 C63 1.384 . S
C64 C67 1.382 . S
C65 C63 1.384 . S
C65 C66 1.381 . S
C65 H83 0.930 1_455 S
C66 C65 1.381 . S
C66 C68 1.381 . S
C66 C69 1.487 . S
C67 C64 1.382 . S
C67 C68 1.387 . S
C67 H84 0.930 . S
C68 C66 1.381 . S
C68 C67 1.387 . S
C68 H85 0.931 . S
C69 C62 1.399 . S
C69 C66 1.487 . S
C69 N86 1.343 . S
H70 C42 0.931 1_655 S
H71 C44 0.930 1_655 S
H72 C46 0.930 . S
H73 C47 0.931 . S
H74 C49 0.931 . S
H75 C51 0.930 . S
H76 C53 0.930 1_655 S
H77 C54 0.931 1_655 S
H78 C56 0.931 . S
H79 C58 0.930 . S
H80 C60 0.930 1_655 S
H81 C61 0.931 1_655 S
H82 C63 0.931 1_655 S
H83 C65 0.930 1_655 S
H84 C67 0.930 . S
H85 C68 0.931 . S
N86 C48 1.343 . S
N86 C69 1.343 . S
N87 C55 1.343 . S
N87 C62 1.343 . S
C88 C89 1.384 . S
C88 C90 1.384 . S
C88 H116 0.931 . S
C89 C88 1.384 . S
C89 C92 1.382 . S
C90 C88 1.384 . S
C90 C91 1.381 . S
C90 H117 0.930 . S
C91 C90 1.381 . S
C91 C93 1.381 . S
C91 C94 1.487 . S
C92 C89 1.382 . S
C92 C93 1.387 . S
C92 H118 0.930 1_545 S
C93 C91 1.381 . S
C93 C92 1.387 . S
C93 H119 0.931 1_545 S
C94 C91 1.487 . S
C94 C101 1.399 . S
C94 N132 1.343 . S
C95 C96 1.384 1_565 S
C95 C97 1.376 1_565 S
C95 H120 0.931 . S
C96 C95 1.384 1_545 S
C96 C99 1.382 . S
C97 C95 1.376 1_545 S
C97 C98 1.396 . S
C97 H121 0.923 1_545 S
C98 C97 1.396 . S
C98 C100 1.381 . S
C98 C101 1.487 . S
C99 C96 1.382 . S
C99 C100 1.387 . S
C99 H122 0.930 . S
C100 C98 1.381 . S
C100 C99 1.387 . S
C100 H123 0.931 . S
C101 C94 1.399 . S
C101 C98 1.487 . S
C101 N133 1.343 . S
C102 C103 1.384 1_565 S
C102 C104 1.389 1_565 S
C102 H124 0.931 . S
C103 C102 1.384 1_545 S
C103 C106 1.382 . S
C104 C102 1.389 1_545 S
C104 C105 1.384 . S
C104 H125 0.922 1_545 S
C105 C104 1.384 . S
C105 C107 1.381 . S
C105 C108 1.487 . S
C106 C103 1.382 . S
C106 C107 1.387 . S
C106 H126 0.930 . S
C107 C105 1.381 . S
C107 C106 1.387 . S
C107 H127 0.931 . S
C108 C105 1.487 . S
C108 C115 1.399 . S
C108 N133 1.343 . S
C109 C110 1.384 . S
C109 C111 1.384 . S
C109 H128 0.931 . S
C110 C109 1.384 . S
C110 C113 1.382 . S
C111 C109 1.384 . S
C111 C112 1.381 . S
C111 H129 0.930 . S
C112 C111 1.381 . S
C112 C114 1.381 . S
C112 C115 1.487 . S
C113 C110 1.382 . S
C113 C114 1.387 . S
C113 H130 0.930 1_545 S
C114 C112 1.381 . S
C114 C113 1.387 . S
C114 H131 0.931 1_545 S
C115 C108 1.399 . S
C115 C112 1.487 . S
C115 N132 1.343 . S
H116 C88 0.931 . S
H117 C90 0.930 . S
H118 C92 0.930 1_565 S
H119 C93 0.931 1_565 S
H120 C95 0.931 . S
H121 C97 0.923 1_565 S
H122 C99 0.930 . S
H123 C100 0.931 . S
H124 C102 0.931 . S
H125 C104 0.922 1_565 S
H126 C106 0.930 . S
H127 C107 0.931 . S
H128 C109 0.931 . S
H129 C111 0.930 . S
H130 C113 0.930 1_565 S
H131 C114 0.931 1_565 S
N132 C94 1.343 . S
N132 C115 1.343 . S
N133 C101 1.343 . S
N133 C108 1.343 . S
C134 C135 1.384 . S
C134 C136 1.384 . S
C134 H162 0.931 . S
C135 C134 1.384 . S
C135 C138 1.382 . S
C136 C134 1.384 . S
C136 C137 1.381 . S
C136 H163 0.930 . S
C137 C136 1.381 . S
C137 C139 1.381 . S
C137 C140 1.487 . S
C138 C135 1.382 . S
C138 C139 1.387 . S
C138 H164 0.930 . S
C139 C137 1.381 . S
C139 C138 1.387 . S
C139 H165 0.931 . S
C140 C137 1.487 . S
C140 C147 1.399 . S
C140 N178 1.343 . S
C141 C142 1.384 . S
C141 C143 1.384 . S
C141 H166 0.931 . S
C142 C141 1.384 . S
C142 C145 1.382 . S
C143 C141 1.384 . S
C143 C144 1.381 . S
C143 H167 0.930 . S
C144 C143 1.381 . S
C144 C146 1.381 . S
C144 C147 1.487 . S
C145 C142 1.382 . S
C145 C146 1.387 . S
C145 H168 0.930 . S
C146 C144 1.381 . S
C146 C145 1.387 . S
C146 H169 0.931 . S
C147 C140 1.399 . S
C147 C144 1.487 . S
C147 N179 1.343 . S
C148 C149 1.384 . S
C148 C150 1.384 . S
C148 H170 0.931 . S
C149 C148 1.384 . S
C149 C152 1.382 . S
C150 C148 1.384 . S
C150 C151 1.381 . S
C150 H171 0.930 . S
C151 C150 1.381 . S
C151 C153 1.381 . S
C151 C154 1.487 . S
C152 C149 1.382 . S
C152 C153 1.387 . S
C152 H172 0.930 . S
C153 C151 1.381 . S
C153 C152 1.387 . S
C153 H173 0.931 . S
C154 C151 1.487 . S
C154 C161 1.399 . S
C154 N179 1.343 . S
C155 C156 1.384 . S
C155 C157 1.384 . S
C155 H174 0.931 . S
C156 C155 1.384 . S
C156 C159 1.382 . S
C157 C155 1.384 . S
C157 C158 1.381 . S
C157 H175 0.930 . S
C158 C157 1.381 . S
C158 C160 1.381 . S
C158 C161 1.487 . S
C159 C156 1.382 . S
C159 C160 1.387 . S
C159 H176 0.930 . S
C160 C158 1.381 . S
C160 C159 1.387 . S
C160 H177 0.931 . S
C161 C154 1.399 . S
C161 C158 1.487 . S
C161 N178 1.343 . S
H162 C134 0.931 . S
H163 C136 0.930 . S
H164 C138 0.930 . S
H165 C139 0.931 . S
H166 C141 0.931 . S
H167 C143 0.930 . S
H168 C145 0.930 . S
H169 C146 0.931 . S
H170 C148 0.931 . S
H171 C150 0.930 . S
H172 C152 0.930 . S
H173 C153 0.931 . S
H174 C155 0.931 . S
H175 C157 0.930 . S
H176 C159 0.930 . S
H177 C160 0.931 . S
N178 C140 1.343 . S
N178 C161 1.343 . S
N179 C147 1.343 . S
N179 C154 1.343 . S
H180 C188 0.950 . S
H181 C193 0.950 1_655 S
H182 C190 0.950 . S
H183 C192 0.950 1_655 S
H184 C194 0.950 1_655 S
H185 C196 0.950 1_655 S
H186 C198 0.950 . S
H187 C199 0.950 . S
C188 H180 0.950 . S
C188 C189 1.386 . S
C188 C190 1.391 . S
C189 C188 1.386 . S
C189 C193 1.393 . S
C190 H182 0.950 . S
C190 C188 1.391 . S
C190 C191 1.400 . S
C191 C190 1.400 . S
C191 C192 1.398 . S
C191 C197 1.491 . S
C192 H183 0.950 1_455 S
C192 C191 1.398 . S
C192 C193 1.391 . S
C193 H181 0.950 1_455 S
C193 C189 1.393 . S
C193 C192 1.391 . S
C194 H184 0.950 1_455 S
C194 C195 1.386 . S
C194 C196 1.391 . S
C195 C194 1.386 . S
C195 C199 1.393 . S
C196 H185 0.950 1_455 S
C196 C194 1.391 . S
C196 C197 1.400 . S
C197 C191 1.491 . S
C197 C196 1.400 . S
C197 C198 1.398 . S
C198 H186 0.950 . S
C198 C197 1.398 . S
C198 C199 1.391 . S
C199 H187 0.950 . S
C199 C195 1.393 . S
C199 C198 1.391 . S
H200 C208 0.950 . S
H201 C213 0.950 1_565 S
H202 C210 0.950 . S
H203 C212 0.950 1_565 S
H204 C214 0.950 . S
H205 C216 0.950 . S
H206 C218 0.950 . S
H207 C219 0.950 . S
C208 H200 0.950 . S
C208 C209 1.386 . S
C208 C210 1.391 . S
C209 C208 1.386 . S
C209 C213 1.393 . S
C210 H202 0.950 . S
C210 C208 1.391 . S
C210 C211 1.400 . S
C211 C210 1.400 . S
C211 C212 1.398 . S
C211 C217 1.491 . S
C212 H203 0.950 1_545 S
C212 C211 1.398 . S
C212 C213 1.391 . S
C213 H201 0.950 1_545 S
C213 C209 1.393 . S
C213 C212 1.391 . S
C214 H204 0.950 . S
C214 C215 1.386 . S
C214 C216 1.391 . S
C215 C214 1.386 . S
C215 C219 1.393 . S
C216 H205 0.950 . S
C216 C214 1.391 . S
C216 C217 1.400 . S
C217 C211 1.491 . S
C217 C216 1.400 . S
C217 C218 1.398 . S
C218 H206 0.950 . S
C218 C217 1.398 . S
C218 C219 1.391 . S
C219 H207 0.950 . S
C219 C215 1.393 . S
C219 C218 1.391 . S
H220 C228 0.950 . S
H221 C233 0.950 . S
H222 C230 0.950 . S
H223 C232 0.950 . S
H224 C234 0.950 . S
H225 C236 0.950 . S
H226 C238 0.950 . S
H227 C239 0.950 . S
C228 H220 0.950 . S
C228 C229 1.386 . S
C228 C230 1.391 . S
C229 C228 1.386 . S
C229 C233 1.393 . S
C230 H222 0.950 . S
C230 C228 1.391 . S
C230 C231 1.400 . S
C231 C230 1.400 . S
C231 C232 1.398 . S
C231 C237 1.491 . S
C232 H223 0.950 . S
C232 C231 1.398 . S
C232 C233 1.391 . S
C233 H221 0.950 . S
C233 C229 1.393 . S
C233 C232 1.391 . S
C234 H224 0.950 . S
C234 C235 1.386 . S
C234 C236 1.391 . S
C235 C234 1.386 . S
C235 C239 1.393 . S
C236 H225 0.950 . S
C236 C234 1.391 . S
C236 C237 1.400 . S
C237 C231 1.491 . S
C237 C236 1.400 . S
C237 C238 1.398 . S
C238 H226 0.950 . S
C238 C237 1.398 . S
C238 C239 1.391 . S
C239 H227 0.950 . S
C239 C235 1.393 . S
C239 C238 1.391 . S
H240 C248 0.950 . S
H241 C253 0.950 1_545 S
H242 C250 0.950 . S
H243 C252 0.950 . S
H244 C254 0.950 . S
H245 C256 0.950 . S
H246 C258 0.950 . S
H247 C259 0.950 . S
C248 H240 0.950 . S
C248 C249 1.386 . S
C248 C250 1.391 . S
C249 C248 1.386 . S
C249 C253 1.393 . S
C250 H242 0.950 . S
C250 C248 1.391 . S
C250 C251 1.400 . S
C251 C250 1.400 . S
C251 C252 1.398 . S
C251 C257 1.491 . S
C252 H243 0.950 . S
C252 C251 1.398 . S
C252 C253 1.391 . S
C253 H241 0.950 1_565 S
C253 C249 1.393 . S
C253 C252 1.391 . S
C254 H244 0.950 . S
C254 C255 1.386 . S
C254 C256 1.391 . S
C255 C254 1.386 . S
C255 C259 1.393 . S
C256 H245 0.950 . S
C256 C254 1.391 . S
C256 C257 1.400 . S
C257 C251 1.491 . S
C257 C256 1.400 . S
C257 C258 1.398 . S
C258 H246 0.950 . S
C258 C257 1.398 . S
C258 C259 1.391 . S
C259 H247 0.950 . S
C259 C255 1.393 . S
C259 C258 1.391 . S
H260 C268 0.950 . S
H261 C273 0.950 . S
H262 C270 0.950 . S
H263 C272 0.950 . S
H264 C274 0.950 . S
H265 C276 0.950 . S
H266 C278 0.950 . S
H267 C279 0.950 1_565 S
C268 H260 0.950 . S
C268 C269 1.386 . S
C268 C270 1.391 . S
C269 C268 1.386 . S
C269 C273 1.393 . S
C270 H262 0.950 . S
C270 C268 1.391 . S
C270 C271 1.400 . S
C271 C270 1.400 . S
C271 C272 1.398 . S
C271 C277 1.491 . S
C272 H263 0.950 . S
C272 C271 1.398 . S
C272 C273 1.391 . S
C273 H261 0.950 . S
C273 C269 1.393 . S
C273 C272 1.391 . S
C274 H264 0.950 . S
C274 C275 1.386 . S
C274 C276 1.391 . S
C275 C274 1.386 . S
C275 C279 1.393 . S
C276 H265 0.950 . S
C276 C274 1.391 . S
C276 C277 1.400 . S
C277 C271 1.491 . S
C277 C276 1.400 . S
C277 C278 1.398 . S
C278 H266 0.950 . S
C278 C277 1.398 . S
C278 C279 1.391 . S
C279 H267 0.950 1_545 S
C279 C275 1.393 . S
C279 C278 1.391 . S
H280 C288 0.950 . S
H281 C293 0.950 . S
H282 C290 0.950 . S
H283 C292 0.950 . S
H284 C294 0.950 . S
H285 C296 0.950 . S
H286 C298 0.950 . S
H287 C299 0.950 . S
C288 H280 0.950 . S
C288 C289 1.386 . S
C288 C290 1.391 . S
C289 C288 1.386 . S
C289 C293 1.393 . S
C290 H282 0.950 . S
C290 C288 1.391 . S
C290 C291 1.400 . S
C291 C290 1.400 . S
C291 C292 1.398 . S
C291 C297 1.491 . S
C292 H283 0.950 . S
C292 C291 1.398 . S
C292 C293 1.391 . S
C293 H281 0.950 . S
C293 C289 1.393 . S
C293 C292 1.391 . S
C294 H284 0.950 . S
C294 C295 1.386 . S
C294 C296 1.391 . S
C295 C294 1.386 . S
C295 C299 1.393 . S
C296 H285 0.950 . S
C296 C294 1.391 . S
C296 C297 1.400 . S
C297 C291 1.491 . S
C297 C296 1.400 . S
C297 C298 1.398 . S
C298 H286 0.950 . S
C298 C297 1.398 . S
C298 C299 1.391 . S
C299 H287 0.950 . S
C299 C295 1.393 . S
C299 C298 1.391 . S
H300 C308 0.950 . S
H301 C313 0.950 1_565 S
H302 C310 0.950 . S
H303 C312 0.946 1_565 S
H304 C314 0.953 . S
H305 C316 0.945 1_565 S
H306 C318 0.950 . S
H307 C319 0.950 . S
C308 H300 0.950 . S
C308 C309 1.386 . S
C308 C310 1.391 . S
C309 C308 1.386 . S
C309 C313 1.393 . S
C310 H302 0.950 . S
C310 C308 1.391 . S
C310 C311 1.400 . S
C311 C310 1.400 . S
C311 C312 1.411 . S
C311 C317 1.491 . S
C312 H303 0.946 1_545 S
C312 C311 1.411 . S
C312 C313 1.382 . S
C313 H301 0.950 1_545 S
C313 C309 1.393 . S
C313 C312 1.382 . S
C314 H304 0.953 . S
C314 C315 1.374 1_565 S
C314 C316 1.404 1_565 S
C315 C314 1.374 1_545 S
C315 C319 1.393 . S
C316 H305 0.945 1_545 S
C316 C314 1.404 1_545 S
C316 C317 1.401 . S
C317 C311 1.491 . S
C317 C316 1.401 . S
C317 C318 1.398 . S
C318 H306 0.950 . S
C318 C317 1.398 . S
C318 C319 1.391 . S
C319 H307 0.950 . S
C319 C315 1.393 . S
C319 C318 1.391 . S
H320 C328 0.950 . S
H321 C333 0.950 . S
H322 C330 0.950 . S
H323 C332 0.950 . S
H324 C334 0.950 . S
H325 C336 0.950 . S
H326 C338 0.950 . S
H327 C339 0.950 . S
C328 H320 0.950 . S
C328 C329 1.386 . S
C328 C330 1.391 . S
C329 C328 1.386 . S
C329 C333 1.393 1_554 S
C330 H322 0.950 . S
C330 C328 1.391 . S
C330 C331 1.400 1_554 S
C331 C330 1.400 1_556 S
C331 C332 1.398 . S
C331 C337 1.491 . S
C332 H323 0.950 . S
C332 C331 1.398 . S
C332 C333 1.391 . S
C333 H321 0.950 . S
C333 C329 1.393 1_556 S
C333 C332 1.391 . S
C334 H324 0.950 . S
C334 C335 1.386 . S
C334 C336 1.391 . S
C335 C334 1.386 . S
C335 C339 1.393 . S
C336 H325 0.950 . S
C336 C334 1.391 . S
C336 C337 1.400 . S
C337 C331 1.491 . S
C337 C336 1.400 . S
C337 C338 1.398 . S
C338 H326 0.950 . S
C338 C337 1.398 . S
C338 C339 1.391 . S
C339 H327 0.950 . S
C339 C335 1.393 . S
C339 C338 1.391 . S
H340 C348 0.950 . S
H341 C353 0.950 . S
H342 C350 0.950 . S
H343 C352 0.950 . S
H344 C354 0.950 . S
H345 C356 0.950 . S
H346 C358 0.950 . S
H347 C359 0.950 . S
C348 H340 0.950 . S
C348 C349 1.386 . S
C348 C350 1.391 . S
C349 C348 1.386 . S
C349 C353 1.393 . S
C350 H342 0.950 . S
C350 C348 1.391 . S
C350 C351 1.400 . S
C351 C350 1.400 . S
C351 C352 1.398 . S
C351 C357 1.491 . S
C352 H343 0.950 . S
C352 C351 1.398 . S
C352 C353 1.391 . S
C353 H341 0.950 . S
C353 C349 1.393 . S
C353 C352 1.391 . S
C354 H344 0.950 . S
C354 C355 1.386 . S
C354 C356 1.391 . S
C355 C354 1.386 . S
C355 C359 1.393 . S
C356 H345 0.950 . S
C356 C354 1.391 . S
C356 C357 1.400 . S
C357 C351 1.491 . S
C357 C356 1.400 . S
C357 C358 1.398 . S
C358 H346 0.950 . S
C358 C357 1.398 . S
C358 C359 1.391 . S
C359 H347 0.950 . S
C359 C355 1.393 . S
C359 C358 1.391 . S
H360 C368 0.950 . S
H361 C373 0.950 . S
H362 C370 0.950 1_565 S
H363 C372 0.950 . S
H364 C374 0.950 . S
H365 C376 0.950 . S
H366 C378 0.950 . S
H367 C379 0.950 . S
C368 H360 0.950 . S
C368 C369 1.386 1_565 S
C368 C370 1.391 1_565 S
C369 C368 1.386 1_545 S
C369 C373 1.393 . S
C370 H362 0.950 1_545 S
C370 C368 1.391 1_545 S
C370 C371 1.400 . S
C371 C370 1.400 . S
C371 C372 1.398 . S
C371 C377 1.491 . S
C372 H363 0.950 . S
C372 C371 1.398 . S
C372 C373 1.391 . S
C373 H361 0.950 . S
C373 C369 1.393 . S
C373 C372 1.391 . S
C374 H364 0.950 . S
C374 C375 1.386 . S
C374 C376 1.391 . S
C375 C374 1.386 . S
C375 C379 1.393 . S
C376 H365 0.950 . S
C376 C374 1.391 . S
C376 C377 1.400 . S
C377 C371 1.491 . S
C377 C376 1.400 . S
C377 C378 1.398 . S
C378 H366 0.950 . S
C378 C377 1.398 . S
C378 C379 1.391 . S
C379 H367 0.950 . S
C379 C375 1.393 . S
C379 C378 1.391 . S
H380 C388 0.950 . S
H381 C393 0.950 . S
H382 C390 0.950 . S
H383 C392 0.950 . S
H384 C394 0.950 . S
H385 C396 0.950 . S
H386 C398 0.950 . S
H387 C399 0.950 . S
C388 H380 0.950 . S
C388 C389 1.386 1_556 S
C388 C390 1.391 . S
C389 C388 1.386 1_554 S
C389 C393 1.393 . S
C390 H382 0.950 . S
C390 C388 1.391 . S
C390 C391 1.400 . S
C391 C390 1.400 . S
C391 C392 1.398 1_556 S
C391 C397 1.491 . S
C392 H383 0.950 . S
C392 C391 1.398 1_554 S
C392 C393 1.391 . S
C393 H381 0.950 . S
C393 C389 1.393 . S
C393 C392 1.391 . S
C394 H384 0.950 . S
C394 C395 1.386 . S
C394 C396 1.391 . S
C395 C394 1.386 . S
C395 C399 1.393 . S
C396 H385 0.950 . S
C396 C394 1.391 . S
C396 C397 1.400 . S
C397 C391 1.491 . S
C397 C396 1.400 . S
C397 C398 1.398 . S
C398 H386 0.950 . S
C398 C397 1.398 . S
C398 C399 1.391 . S
C399 H387 0.950 . S
C399 C395 1.393 . S
C399 C398 1.391 . S
H400 C408 0.950 . S
H401 C413 0.950 . S
H402 C410 0.950 . S
H403 C412 0.950 . S
H404 C414 0.950 . S
H405 C416 0.950 . S
H406 C418 0.950 . S
H407 C419 0.950 . S
C408 H400 0.950 . S
C408 C409 1.386 . S
C408 C410 1.391 . S
C409 C408 1.386 . S
C409 C413 1.393 . S
C410 H402 0.950 . S
C410 C408 1.391 . S
C410 C411 1.400 . S
C411 C410 1.400 . S
C411 C412 1.398 . S
C411 C417 1.491 . S
C412 H403 0.950 . S
C412 C411 1.398 . S
C412 C413 1.391 . S
C413 H401 0.950 . S
C413 C409 1.393 . S
C413 C412 1.391 . S
C414 H404 0.950 . S
C414 C415 1.386 . S
C414 C416 1.391 . S
C415 C414 1.386 . S
C415 C419 1.393 . S
C416 H405 0.950 . S
C416 C414 1.391 . S
C416 C417 1.400 . S
C417 C411 1.491 . S
C417 C416 1.400 . S
C417 C418 1.398 . S
C418 H406 0.950 . S
C418 C417 1.398 . S
C418 C419 1.391 . S
C419 H407 0.950 . S
C419 C415 1.393 . S
C419 C418 1.391 . S
C195 C50 1.330 . S
C189 C11 1.325 . S
C209 C25 1.391 . S
C215 C89 1.400 . S
C229 C41 1.370 . S
C235 C156 1.438 . S
C249 C7 1.356 . S
C255 C57 1.358 . S
C275 C110 1.421 . S
C269 C21 1.412 . S
C289 C36 1.398 . S
C295 C135 1.451 . S
C315 C96 1.389 . S
C309 C39 1.370 . S
C329 C8 1.405 1_655 S
C335 C149 1.460 . S
C355 C64 1.503 . S
C349 C22 1.451 . S
C375 C103 1.415 . S
C369 C35 1.408 1_545 S
C395 C142 1.435 . S
C389 C13 1.384 . S
C409 C27 1.418 . S
C415 C43 1.476 . S
