# Generated by pormake.
# Topology eea, (3,6)-cn, num edge types: 1
# Building blocks:
#     Node 0, Type 0, BuildingBlock: BETDIP_clean_linker_0, # of connection points: 3
#     Node 1, Type 0, BuildingBlock: BETDIP_clean_linker_0, # of connection points: 3
#     Node 2, Type 0, BuildingBlock: BETDIP_clean_linker_0, # of connection points: 3
#     Node 3, Type 0, BuildingBlock: BETDIP_clean_linker_0, # of connection points: 3
#     Node 4, Type 0, BuildingBlock: BETDIP_clean_linker_0, # of connection points: 3
#     Node 5, Type 0, BuildingBlock: BETDIP_clean_linker_0, # of connection points: 3
#     Node 6, Type 0, BuildingBlock: BETDIP_clean_linker_0, # of connection points: 3
#     Node 7, Type 0, BuildingBlock: BETDIP_clean_linker_0, # of connection points: 3
#     Node 8, Type 0, BuildingBlock: BETDIP_clean_linker_0, # of connection points: 3
#     Node 9, Type 0, BuildingBlock: BETDIP_clean_linker_0, # of connection points: 3
#     Node 10, Type 0, BuildingBlock: BETDIP_clean_linker_0, # of connection points: 3
#     Node 11, Type 0, BuildingBlock: BETDIP_clean_linker_0, # of connection points: 3
#     Node 12, Type 0, BuildingBlock: BETDIP_clean_linker_0, # of connection points: 3
#     Node 13, Type 0, BuildingBlock: BETDIP_clean_linker_0, # of connection points: 3
#     Node 14, Type 0, BuildingBlock: BETDIP_clean_linker_0, # of connection points: 3
#     Node 15, Type 0, BuildingBlock: BETDIP_clean_linker_0, # of connection points: 3
#     Node 16, Type 0, BuildingBlock: BETDIP_clean_linker_0, # of connection points: 3
#     Node 17, Type 0, BuildingBlock: BETDIP_clean_linker_0, # of connection points: 3
#     Node 18, Type 1, BuildingBlock: KUMBUR_clean_sbu_0, # of connection points: 6
#     Node 19, Type 1, BuildingBlock: KUMBUR_clean_sbu_0, # of connection points: 6
#     Node 20, Type 1, BuildingBlock: KUMBUR_clean_sbu_0, # of connection points: 6
#     Node 21, Type 1, BuildingBlock: KUMBUR_clean_sbu_0, # of connection points: 6
#     Node 22, Type 1, BuildingBlock: KUMBUR_clean_sbu_0, # of connection points: 6
#     Node 23, Type 1, BuildingBlock: KUMBUR_clean_sbu_0, # of connection points: 6
#     Node 24, Type 1, BuildingBlock: KUMBUR_clean_sbu_0, # of connection points: 6
#     Node 25, Type 1, BuildingBlock: KUMBUR_clean_sbu_0, # of connection points: 6
#     Node 26, Type 1, BuildingBlock: KUMBUR_clean_sbu_0, # of connection points: 6
#     Edge 27, Type (0, 1), BuildingBlock: TEMPAE_clean_linker_10, # of connection points: 2
#     Edge 28, Type (0, 1), BuildingBlock: TEMPAE_clean_linker_10, # of connection points: 2
#     Edge 29, Type (0, 1), BuildingBlock: TEMPAE_clean_linker_10, # of connection points: 2
#     Edge 30, Type (0, 1), BuildingBlock: TEMPAE_clean_linker_10, # of connection points: 2
#     Edge 31, Type (0, 1), BuildingBlock: TEMPAE_clean_linker_10, # of connection points: 2
#     Edge 32, Type (0, 1), BuildingBlock: TEMPAE_clean_linker_10, # of connection points: 2
#     Edge 33, Type (0, 1), BuildingBlock: TEMPAE_clean_linker_10, # of connection points: 2
#     Edge 34, Type (0, 1), BuildingBlock: TEMPAE_clean_linker_10, # of connection points: 2
#     Edge 35, Type (0, 1), BuildingBlock: TEMPAE_clean_linker_10, # of connection points: 2
#     Edge 36, Type (0, 1), BuildingBlock: TEMPAE_clean_linker_10, # of connection points: 2
#     Edge 37, Type (0, 1), BuildingBlock: TEMPAE_clean_linker_10, # of connection points: 2
#     Edge 38, Type (0, 1), BuildingBlock: TEMPAE_clean_linker_10, # of connection points: 2
#     Edge 39, Type (0, 1), BuildingBlock: TEMPAE_clean_linker_10, # of connection points: 2
#     Edge 40, Type (0, 1), BuildingBlock: TEMPAE_clean_linker_10, # of connection points: 2
#     Edge 41, Type (0, 1), BuildingBlock: TEMPAE_clean_linker_10, # of connection points: 2
#     Edge 42, Type (0, 1), BuildingBlock: TEMPAE_clean_linker_10, # of connection points: 2
#     Edge 43, Type (0, 1), BuildingBlock: TEMPAE_clean_linker_10, # of connection points: 2
#     Edge 44, Type (0, 1), BuildingBlock: TEMPAE_clean_linker_10, # of connection points: 2
#     Edge 45, Type (0, 1), BuildingBlock: TEMPAE_clean_linker_10, # of connection points: 2
#     Edge 46, Type (0, 1), BuildingBlock: TEMPAE_clean_linker_10, # of connection points: 2
#     Edge 47, Type (0, 1), BuildingBlock: TEMPAE_clean_linker_10, # of connection points: 2
#     Edge 48, Type (0, 1), BuildingBlock: TEMPAE_clean_linker_10, # of connection points: 2
#     Edge 49, Type (0, 1), BuildingBlock: TEMPAE_clean_linker_10, # of connection points: 2
#     Edge 50, Type (0, 1), BuildingBlock: TEMPAE_clean_linker_10, # of connection points: 2
#     Edge 51, Type (0, 1), BuildingBlock: TEMPAE_clean_linker_10, # of connection points: 2
#     Edge 52, Type (0, 1), BuildingBlock: TEMPAE_clean_linker_10, # of connection points: 2
#     Edge 53, Type (0, 1), BuildingBlock: TEMPAE_clean_linker_10, # of connection points: 2
#     Edge 54, Type (0, 1), BuildingBlock: TEMPAE_clean_linker_10, # of connection points: 2
#     Edge 55, Type (0, 1), BuildingBlock: TEMPAE_clean_linker_10, # of connection points: 2
#     Edge 56, Type (0, 1), BuildingBlock: TEMPAE_clean_linker_10, # of connection points: 2
#     Edge 57, Type (0, 1), BuildingBlock: TEMPAE_clean_linker_10, # of connection points: 2
#     Edge 58, Type (0, 1), BuildingBlock: TEMPAE_clean_linker_10, # of connection points: 2
#     Edge 59, Type (0, 1), BuildingBlock: TEMPAE_clean_linker_10, # of connection points: 2
#     Edge 60, Type (0, 1), BuildingBlock: TEMPAE_clean_linker_10, # of connection points: 2
#     Edge 61, Type (0, 1), BuildingBlock: TEMPAE_clean_linker_10, # of connection points: 2
#     Edge 62, Type (0, 1), BuildingBlock: TEMPAE_clean_linker_10, # of connection points: 2
#     Edge 63, Type (0, 1), BuildingBlock: TEMPAE_clean_linker_10, # of connection points: 2
#     Edge 64, Type (0, 1), BuildingBlock: TEMPAE_clean_linker_10, # of connection points: 2
#     Edge 65, Type (0, 1), BuildingBlock: TEMPAE_clean_linker_10, # of connection points: 2
#     Edge 66, Type (0, 1), BuildingBlock: TEMPAE_clean_linker_10, # of connection points: 2
#     Edge 67, Type (0, 1), BuildingBlock: TEMPAE_clean_linker_10, # of connection points: 2
#     Edge 68, Type (0, 1), BuildingBlock: TEMPAE_clean_linker_10, # of connection points: 2
#     Edge 69, Type (0, 1), BuildingBlock: TEMPAE_clean_linker_10, # of connection points: 2
#     Edge 70, Type (0, 1), BuildingBlock: TEMPAE_clean_linker_10, # of connection points: 2
#     Edge 71, Type (0, 1), BuildingBlock: TEMPAE_clean_linker_10, # of connection points: 2
#     Edge 72, Type (0, 1), BuildingBlock: TEMPAE_clean_linker_10, # of connection points: 2
#     Edge 73, Type (0, 1), BuildingBlock: TEMPAE_clean_linker_10, # of connection points: 2
#     Edge 74, Type (0, 1), BuildingBlock: TEMPAE_clean_linker_10, # of connection points: 2
#     Edge 75, Type (0, 1), BuildingBlock: TEMPAE_clean_linker_10, # of connection points: 2
#     Edge 76, Type (0, 1), BuildingBlock: TEMPAE_clean_linker_10, # of connection points: 2
#     Edge 77, Type (0, 1), BuildingBlock: TEMPAE_clean_linker_10, # of connection points: 2
#     Edge 78, Type (0, 1), BuildingBlock: TEMPAE_clean_linker_10, # of connection points: 2
#     Edge 79, Type (0, 1), BuildingBlock: TEMPAE_clean_linker_10, # of connection points: 2
#     Edge 80, Type (0, 1), BuildingBlock: TEMPAE_clean_linker_10, # of connection points: 2
# Relax obj value: 0.025
# Max RMSD: 0.166
# Mean RMSD: 0.120
data_MOF--net-eea--node1-KUMBUR_clean_sbu_0--node2-BETDIP_clean_linker_0--edge1-TEMPAE_clean_linker_10
_symmetry_space_group_name_H-M    P1
_symmetry_Int_Tables_number       1
_symmetry_cell_setting            triclinic
loop_
_symmetry_equiv_pos_as_xyz
'x, y, z'
_cell_length_a     54.961682
_cell_length_b     56.474917
_cell_length_c     67.573674
_cell_angle_alpha  90.072773
_cell_angle_beta   90.044606
_cell_angle_gamma 119.98285
loop_
_atom_site_label
_atom_site_type_symbol
_atom_site_fract_x
_atom_site_fract_y
_atom_site_fract_z
_atom_type_partial_charge
H0 H 0.2018 0.08417 0.38771 0.0
H1 H 0.2322 0.14024 0.43677 0.0
H2 H 0.24502 0.07123 0.43601 0.0
H3 H 0.18899 0.13945 0.42837 0.0
C4 C 0.19443 0.144 0.41283 0.0
C5 C 0.21231 0.09022 0.40193 0.0
C6 C 0.22299 0.07477 0.41074 0.0
C7 C 0.21504 0.11348 0.41141 0.0
C8 C 0.22931 0.12185 0.42959 0.0
C9 C 0.24018 0.10667 0.43849 0.0
C10 C 0.23676 0.08307 0.42908 0.0
N11 N 0.20419 0.12877 0.40208 0.0
H12 H 0.93501 0.12495 0.38505 0.0
H13 H 0.87922 0.09806 0.43495 0.0
H14 H 0.94883 0.1802 0.4334 0.0
H15 H 0.88009 0.05756 0.42621 0.0
C16 C 0.87436 0.05778 0.41084 0.0
C17 C 0.929 0.12927 0.39928 0.0
C18 C 0.94541 0.15509 0.40823 0.0
C19 C 0.90539 0.10848 0.40899 0.0
C20 C 0.89762 0.11391 0.42753 0.0
C21 C 0.9132 0.13969 0.4365 0.0
C22 C 0.93707 0.16008 0.42676 0.0
N23 N 0.88925 0.08243 0.39979 0.0
H24 H 0.89021 0.80995 0.38351 0.0
H25 H 0.91569 0.77838 0.43228 0.0
H26 H 0.83533 0.77362 0.43355 0.0
H27 H 0.95889 0.81416 0.42323 0.0
C28 C 0.95798 0.81093 0.40733 0.0
C29 C 0.88578 0.80008 0.39783 0.0
C30 C 0.85998 0.7924 0.4074 0.0
C31 C 0.90644 0.79592 0.40697 0.0
C32 C 0.90064 0.78299 0.4256 0.0
C33 C 0.87505 0.7749 0.43535 0.0
C34 C 0.85505 0.77983 0.42611 0.0
N35 N 0.93255 0.8042 0.39707 0.0
H36 H 0.08662 0.19584 0.64393 0.0
H37 H 0.14344 0.22543 0.59453 0.0
H38 H 0.07001 0.23375 0.59436 0.0
H39 H 0.14906 0.18936 0.60397 0.0
C40 C 0.15238 0.19355 0.61975 0.0
C41 C 0.09232 0.20566 0.62959 0.0
C42 C 0.07463 0.21369 0.6201 0.0
C43 C 0.11698 0.20938 0.62033 0.0
C44 C 0.12433 0.22205 0.60163 0.0
C45 C 0.10739 0.23068 0.59203 0.0
C46 C 0.08268 0.22639 0.60142 0.0
N47 N 0.13446 0.20088 0.63014 0.0
H48 H 0.81783 0.89434 0.63965 0.0
H49 H 0.79768 0.92121 0.58571 0.0
H50 H 0.79204 0.84263 0.58808 0.0
H51 H 0.83438 0.96272 0.59813 0.0
C52 C 0.82615 0.96083 0.61303 0.0
C53 C 0.81106 0.89062 0.62433 0.0
C54 C 0.80564 0.86625 0.61499 0.0
C55 C 0.80897 0.91081 0.61371 0.0
C56 C 0.80007 0.906 0.59386 0.0
C57 C 0.79404 0.8815 0.58448 0.0
C58 C 0.79708 0.86183 0.59512 0.0
N59 N 0.8156 0.93568 0.6233 0.0
H60 H 0.11808 0.91918 0.64243 0.0
H61 H 0.09202 0.86202 0.59396 0.0
H62 H 0.17047 0.9375 0.5909 0.0
H63 H 0.04892 0.85646 0.60387 0.0
C64 C 0.05054 0.85378 0.61965 0.0
C65 C 0.12194 0.91355 0.62792 0.0
C66 C 0.14657 0.93151 0.61754 0.0
C67 C 0.10166 0.88881 0.61925 0.0
C68 C 0.10701 0.88143 0.60051 0.0
C69 C 0.13173 0.8989 0.59014 0.0
C70 C 0.15117 0.92403 0.59868 0.0
N71 N 0.07621 0.87152 0.6296 0.0
H72 H 0.86324 0.41519 0.72349 0.0
H73 H 0.89371 0.47071 0.77291 0.0
H74 H 0.90718 0.40208 0.77112 0.0
H75 H 0.85208 0.4721 0.76421 0.0
C76 C 0.85712 0.4759 0.74857 0.0
C77 C 0.87379 0.42113 0.7377 0.0
C78 C 0.88475 0.40578 0.74622 0.0
C79 C 0.87651 0.44426 0.74736 0.0
C80 C 0.89082 0.45242 0.76557 0.0
C81 C 0.90183 0.4372 0.77422 0.0
C82 C 0.89863 0.41385 0.76451 0.0
N83 N 0.86591 0.45973 0.73803 0.0
H84 H 0.60324 0.45619 0.71863 0.0
H85 H 0.55036 0.42647 0.76976 0.0
H86 H 0.61285 0.5118 0.7653 0.0
H87 H 0.55061 0.38688 0.75989 0.0
C88 C 0.54473 0.38751 0.74461 0.0
C89 C 0.59697 0.46013 0.73289 0.0
C90 C 0.61176 0.48636 0.74139 0.0
C91 C 0.57471 0.43855 0.74307 0.0
C92 C 0.56711 0.44337 0.7619 0.0
C93 C 0.58057 0.46975 0.77035 0.0
C94 C 0.60268 0.49109 0.75968 0.0
N95 N 0.55948 0.4124 0.73384 0.0
H96 H 0.55991 0.14524 0.71723 0.0
H97 H 0.58599 0.11427 0.76605 0.0
H98 H 0.50511 0.10843 0.7672 0.0
H99 H 0.62904 0.15114 0.7571 0.0
C100 C 0.62817 0.14757 0.74124 0.0
C101 C 0.5556 0.13541 0.73156 0.0
C102 C 0.52973 0.12741 0.74111 0.0
C103 C 0.57646 0.1316 0.74074 0.0
C104 C 0.57076 0.11862 0.75935 0.0
C105 C 0.54505 0.11015 0.76903 0.0
C106 C 0.5249 0.11485 0.7598 0.0
N107 N 0.60265 0.14022 0.7309 0.0
H108 H 0.75088 0.52342 0.97529 0.0
H109 H 0.80803 0.55405 0.9261 0.0
H110 H 0.73438 0.56191 0.92598 0.0
H111 H 0.81323 0.51715 0.93502 0.0
C112 C 0.81654 0.52123 0.95081 0.0
C113 C 0.75662 0.53343 0.96101 0.0
C114 C 0.73911 0.54186 0.95174 0.0
C115 C 0.78117 0.53706 0.95164 0.0
C116 C 0.7886 0.55002 0.93306 0.0
C117 C 0.77183 0.559 0.92371 0.0
C118 C 0.74722 0.55484 0.93315 0.0
N119 N 0.79858 0.52841 0.96131 0.0
H120 H 0.47917 0.22609 0.97387 0.0
H121 H 0.45537 0.25091 0.92061 0.0
H122 H 0.46006 0.17719 0.92111 0.0
H123 H 0.43391 0.26479 0.94563 0.0
C124 C 0.45296 0.27596 0.95439 0.0
C125 C 0.47292 0.22248 0.95844 0.0
C126 C 0.47067 0.19958 0.94858 0.0
C127 C 0.46681 0.24066 0.94857 0.0
C128 C 0.45911 0.23634 0.92848 0.0
C129 C 0.45701 0.21367 0.91835 0.0
C130 C 0.4627 0.19534 0.92857 0.0
N131 N 0.4693 0.26361 0.95896 0.0
H132 H 0.7837 0.25205 0.97543 0.0
H133 H 0.75837 0.19734 0.92546 0.0
H134 H 0.8394 0.27008 0.92586 0.0
H135 H 0.715 0.19025 0.9352 0.0
C136 C 0.71634 0.18786 0.95105 0.0
C137 C 0.78804 0.24689 0.9609 0.0
C138 C 0.81406 0.26398 0.95177 0.0
C139 C 0.7676 0.22302 0.95143 0.0
C140 C 0.77358 0.21604 0.93274 0.0
C141 C 0.79935 0.23306 0.92336 0.0
C142 C 0.8194 0.25696 0.93298 0.0
N143 N 0.74165 0.20589 0.96123 0.0
H144 H 0.53447 0.74918 0.05495 0.0
H145 H 0.56331 0.80642 0.10331 0.0
H146 H 0.57422 0.73622 0.10539 0.0
H147 H 0.51947 0.80425 0.09358 0.0
C148 C 0.52584 0.80906 0.0782 0.0
C149 C 0.54447 0.75558 0.06932 0.0
C150 C 0.55363 0.73967 0.07931 0.0
C151 C 0.54709 0.77916 0.07818 0.0
C152 C 0.56039 0.7877 0.09668 0.0
C153 C 0.57033 0.77236 0.10656 0.0
C154 C 0.56642 0.7481 0.09793 0.0
N155 N 0.53682 0.79441 0.06809 0.0
H156 H 0.26813 0.79003 0.0505 0.0
H157 H 0.21602 0.76147 0.10237 0.0
H158 H 0.28712 0.84263 0.10134 0.0
H159 H 0.21484 0.72116 0.09121 0.0
C160 C 0.20856 0.72217 0.07612 0.0
C161 C 0.26339 0.79376 0.06535 0.0
C162 C 0.28103 0.81891 0.07481 0.0
C163 C 0.24019 0.77279 0.07531 0.0
C164 C 0.23408 0.77737 0.09469 0.0
C165 C 0.25116 0.80239 0.10424 0.0
C166 C 0.2744 0.82302 0.09416 0.0
N167 N 0.22305 0.74732 0.06563 0.0
H168 H 0.22865 0.48017 0.05127 0.0
H169 H 0.25342 0.44746 0.09971 0.0
H170 H 0.1738 0.44428 0.10134 0.0
H171 H 0.29688 0.48266 0.09065 0.0
C172 C 0.29585 0.47979 0.07471 0.0
C173 C 0.22416 0.47023 0.06557 0.0
C174 C 0.19854 0.46289 0.07521 0.0
C175 C 0.24455 0.4656 0.07458 0.0
C176 C 0.23861 0.45247 0.09314 0.0
C177 C 0.21312 0.44467 0.10294 0.0
C178 C 0.19343 0.45018 0.09387 0.0
N179 N 0.27051 0.47361 0.06459 0.0
H180 H 0.41839 0.86546 0.31099 0.0
H181 H 0.47537 0.89412 0.26164 0.0
H182 H 0.40254 0.90326 0.26089 0.0
H183 H 0.48016 0.85747 0.27113 0.0
C184 C 0.48348 0.86165 0.28691 0.0
C185 C 0.42421 0.87513 0.2966 0.0
C186 C 0.40692 0.88365 0.28706 0.0
C187 C 0.44861 0.87816 0.28734 0.0
C188 C 0.45609 0.89056 0.26857 0.0
C189 C 0.43953 0.89956 0.25892 0.0
C190 C 0.41514 0.8961 0.2683 0.0
N191 N 0.46579 0.86936 0.29724 0.0
H192 H 0.15702 0.56299 0.30313 0.0
H193 H 0.12625 0.5874 0.25324 0.0
H194 H 0.10965 0.50471 0.25745 0.0
H195 H 0.16809 0.62946 0.26079 0.0
C196 C 0.16305 0.62887 0.2764 0.0
C197 C 0.14592 0.55806 0.28912 0.0
C198 C 0.13365 0.53141 0.28148 0.0
C199 C 0.14377 0.57844 0.27885 0.0
C200 C 0.12897 0.57201 0.26086 0.0
C201 C 0.11638 0.5454 0.25312 0.0
C202 C 0.11883 0.52519 0.26352 0.0
N203 N 0.1551 0.60477 0.28751 0.0
H204 H 0.4502 0.58785 0.30728 0.0
H205 H 0.42313 0.53183 0.25804 0.0
H206 H 0.50415 0.60446 0.2568 0.0
H207 H 0.38019 0.52602 0.2681 0.0
C208 C 0.38181 0.52358 0.28391 0.0
C209 C 0.45405 0.58232 0.29273 0.0
C210 C 0.47981 0.59915 0.28314 0.0
C211 C 0.43322 0.55823 0.28367 0.0
C212 C 0.4386 0.55072 0.26498 0.0
C213 C 0.46407 0.56741 0.25516 0.0
C214 C 0.48443 0.59158 0.26431 0.0
N215 N 0.40746 0.54143 0.29383 0.0
Tb216 Tb 0.48801 0.991 0.98939 0.0
C217 C 0.54514 0.08099 0.05137 0.0
C218 C 0.59413 0.09389 0.04958 0.0
C219 C 0.58111 0.12785 0.05837 0.0
C220 C 0.56546 0.0742 0.04752 0.0
C221 C 0.55259 0.10771 0.05728 0.0
C222 C 0.60188 0.12093 0.05454 0.0
C223 C 0.50327 0.09186 0.06224 0.0
N224 N 0.51791 0.06088 0.05024 0.0
C225 C 0.49698 0.06562 0.0564 0.0
C226 C 0.53117 0.11311 0.06241 0.0
Tb227 Tb 0.50952 0.01905 0.0391 0.0
N228 N 0.55701 0.04785 0.04281 0.0
C229 C 0.57636 0.03943 0.04134 0.0
C230 C 0.61404 0.08561 0.04714 0.0
C231 C 0.60508 0.05819 0.04324 0.0
H232 H 0.47534 0.04938 0.05612 0.0
H233 H 0.62029 0.05148 0.04162 0.0
H234 H 0.62381 0.13646 0.05593 0.0
H235 H 0.48658 0.0957 0.06655 0.0
H236 H 0.56997 0.01841 0.03819 0.0
H237 H 0.37738 0.95922 0.98689 0.0
H238 H 0.63627 0.10004 0.04874 0.0
H239 H 0.52191 0.96045 0.97227 0.0
H240 H 0.4277 0.99194 0.9907 0.0
H241 H 0.51042 0.91418 0.96153 0.0
H242 H 0.58732 0.1486 0.06266 0.0
H243 H 0.36117 0.91081 0.97904 0.0
H244 H 0.37334 0.8743 0.97147 0.0
H245 H 0.53599 0.1334 0.06698 0.0
H246 H 0.40963 0.86189 0.96475 0.0
N247 N 0.44047 0.96243 0.98561 0.0
C248 C 0.42123 0.97097 0.98727 0.0
C249 C 0.38341 0.92507 0.98084 0.0
C250 C 0.40319 0.91666 0.9783 0.0
C251 C 0.3925 0.95241 0.98516 0.0
C252 C 0.43189 0.93615 0.98059 0.0
H253 H 0.46091 0.87676 0.96074 0.0
N254 N 0.47938 0.94916 0.97809 0.0
C255 C 0.49381 0.9181 0.96587 0.0
C256 C 0.45211 0.92921 0.97676 0.0
C257 C 0.50023 0.94432 0.97189 0.0
C258 C 0.46584 0.89701 0.96549 0.0
C259 C 0.44451 0.90255 0.97061 0.0
O260 O 0.51101 0.0033 0.96281 0.0
O261 O 0.52014 0.02131 0.00824 0.0
O262 O 0.50687 0.04971 0.02125 0.0
O263 O 0.47655 0.02253 0.99611 0.0
O264 O 0.5332 0.0061 0.98609 0.0
O265 O 0.47401 0.00665 0.96653 0.0
O266 O 0.48702 0.00738 0.06592 0.0
O267 O 0.47748 0.98877 0.02024 0.0
O268 O 0.49101 0.96044 0.00711 0.0
O269 O 0.52106 0.98756 0.03243 0.0
O270 O 0.4642 0.00348 0.04251 0.0
O271 O 0.52346 0.00318 0.06183 0.0
C272 C 0.54192 0.02363 1.00027 0.0
C273 C 0.4848 0.99893 0.93409 0.0
C274 C 0.48956 0.00613 0.89827 0.0
C275 C 0.49688 0.01639 0.91773 0.0
C276 C 0.46986 0.97829 0.89548 0.0
C277 C 0.46498 0.97132 0.93089 0.0
C278 C 0.45759 0.96109 0.91169 0.0
C279 C 0.48964 0.04572 0.00633 0.0
C280 C 0.49366 0.0095 0.95435 0.0
C281 C 0.41595 0.88261 0.96924 0.0
C282 C 0.3953 0.88967 0.97305 0.0
C283 C 0.45559 0.98603 0.02829 0.0
C284 C 0.51363 0.01143 0.0944 0.0
C285 C 0.5024 0.99395 0.11087 0.0
C286 C 0.51102 0.00405 0.13029 0.0
C287 C 0.53079 0.03199 0.13281 0.0
C288 C 0.53354 0.03903 0.0974 0.0
C289 C 0.54197 0.04923 0.1165 0.0
C290 C 0.50818 0.96446 0.02208 0.0
C291 C 0.50419 0.00079 0.07421 0.0
H292 H 0.51225 0.03774 0.92012 0.0
H293 H 0.46362 0.9699 0.88071 0.0
H294 H 0.45527 0.95766 0.94319 0.0
H295 H 0.4423 0.93974 0.90937 0.0
H296 H 0.48726 0.97253 0.10851 0.0
H297 H 0.53745 0.04068 0.14745 0.0
H298 H 0.54253 0.05272 0.08503 0.0
H299 H 0.55719 0.07064 0.11867 0.0
Tb300 Tb 0.02498 0.49963 0.98979 0.0
C301 C 0.92851 0.46266 0.04897 0.0
C302 C 0.9145 0.49678 0.04607 0.0
C303 C 0.88021 0.45045 0.05576 0.0
C304 C 0.93498 0.48883 0.04428 0.0
C305 C 0.90129 0.4433 0.05535 0.0
C306 C 0.88684 0.47722 0.05119 0.0
C307 C 0.91895 0.41295 0.06324 0.0
N308 N 0.9497 0.45698 0.049 0.0
C309 C 0.94568 0.43304 0.05701 0.0
C310 C 0.89651 0.4179 0.06205 0.0
Tb311 Tb 0.99265 0.49055 0.03793 0.0
N312 N 0.96204 0.50712 0.03975 0.0
C313 C 0.97035 0.5343 0.03812 0.0
C314 C 0.92276 0.52435 0.04361 0.0
C315 C 0.95084 0.54321 0.03974 0.0
H316 H 0.96289 0.429 0.05791 0.0
H317 H 0.95753 0.56467 0.03813 0.0
H318 H 0.8707 0.48283 0.05234 0.0
H319 H 0.91569 0.39368 0.06895 0.0
H320 H 0.99192 0.54932 0.03518 0.0
H321 H 0.05772 0.42384 0.98783 0.0
H322 H 0.90787 0.53144 0.04541 0.0
H323 H 0.0575 0.56403 0.97455 0.0
H324 H 0.02402 0.44007 0.99143 0.0
H325 H 0.10576 0.59954 0.96563 0.0
H326 H 0.85906 0.43579 0.06038 0.0
H327 H 0.10767 0.45663 0.98102 0.0
H328 H 0.14576 0.5053 0.97543 0.0
H329 H 0.87589 0.40243 0.06706 0.0
H330 H 0.15905 0.55337 0.96989 0.0
N331 N 0.0546 0.48213 0.98737 0.0
C332 C 0.04573 0.45482 0.9886 0.0
C333 C 0.09307 0.46404 0.98295 0.0
C334 C 0.10195 0.49186 0.9812 0.0
C335 C 0.06483 0.44544 0.98661 0.0
C336 C 0.08189 0.50028 0.98327 0.0
H337 H 0.14418 0.5887 0.96596 0.0
N338 N 0.06877 0.53376 0.98065 0.0
C339 C 0.10144 0.57928 0.96972 0.0
C340 C 0.08932 0.52715 0.97997 0.0
C341 C 0.07413 0.55911 0.97471 0.0
C342 C 0.1231 0.57311 0.96999 0.0
C343 C 0.11706 0.5466 0.97473 0.0
O344 O 0.01599 0.51145 0.96251 0.0
O345 O 0.9911 0.49823 0.00685 0.0
O346 O 0.96323 0.45494 0.02055 0.0
O347 O 0.9917 0.45664 0.99409 0.0
O348 O 0.00847 0.52765 0.98576 0.0
O349 O 0.01212 0.47174 0.96609 0.0
O350 O 1.00372 0.48134 0.06553 0.0
O351 O 0.02574 0.49097 0.02063 0.0
O352 O 0.05494 0.53233 0.0088 0.0
O353 O 0.02472 0.53381 0.03222 0.0
O354 O 0.00973 0.46301 0.04257 0.0
O355 O 0.00706 0.52044 0.0603 0.0
C356 C 0.98872 0.51703 0.99868 0.0
C357 C 0.02389 0.49175 0.93433 0.0
C358 C 0.01922 0.48905 0.89834 0.0
C359 C 0.00722 0.48548 0.91729 0.0
C360 C 0.0483 0.49901 0.89681 0.0
C361 C 0.05269 0.50121 0.93246 0.0
C362 C 0.06482 0.50487 0.91379 0.0
C363 C 0.96837 0.44408 0.00482 0.0
C364 C 0.0108 0.48882 0.95378 0.0
C365 C 0.13753 0.53869 0.9737 0.0
C366 C 0.12996 0.51132 0.97685 0.0
C367 C 0.02859 0.47257 0.02899 0.0
C368 C 0.99629 0.50295 0.09274 0.0
C369 C 0.01237 0.5073 0.10987 0.0
C370 C 1.00077 0.50586 0.1287 0.0
C371 C 0.97268 0.49978 0.13008 0.0
C372 C 0.96844 0.49723 0.09442 0.0
C373 C 0.95669 0.49554 0.11301 0.0
C374 C 0.04942 0.54485 0.02314 0.0
C375 C 0.00899 0.5045 0.07332 0.0
H376 H 0.98484 0.47757 0.91887 0.0
H377 H 0.05837 0.50252 0.8825 0.0
H378 H 0.06581 0.50582 0.94533 0.0
H379 H 0.08714 0.51242 0.91247 0.0
H380 H 0.03407 0.51224 0.10849 0.0
H381 H 0.96301 0.49813 0.14436 0.0
H382 H 0.95583 0.49419 0.08145 0.0
H383 H 0.93513 0.49097 0.1142 0.0
Tb384 Tb 0.52803 0.50792 0.03758 0.0
C385 C 0.47707 0.55273 0.97913 0.0
C386 C 0.42747 0.51939 0.97831 0.0
C387 C 0.44312 0.56746 0.97293 0.0
C388 C 0.45563 0.52603 0.98091 0.0
C389 C 0.47119 0.57373 0.97473 0.0
C390 C 0.42129 0.54032 0.9747 0.0
C391 C 0.5212 0.60503 0.97272 0.0
N392 N 0.50389 0.55793 0.98105 0.0
C393 C 0.52597 0.58345 0.977 0.0
C394 C 0.4937 0.60023 0.97185 0.0
Tb395 Tb 0.50931 0.52136 0.98902 0.0
N396 N 0.46248 0.50644 0.98454 0.0
C397 C 0.44208 0.47944 0.98448 0.0
C398 C 0.40645 0.49189 0.97903 0.0
C399 C 0.41383 0.47182 0.98194 0.0
H400 H 0.54729 0.58737 0.97774 0.0
H401 H 0.39775 0.45046 0.9823 0.0
H402 H 0.39975 0.53567 0.9729 0.0
H403 H 0.53873 0.62534 0.97011 0.0
H404 H 0.44732 0.46363 0.98683 0.0
H405 H 0.63965 0.58063 0.04111 0.0
H406 H 0.38458 0.48591 0.97694 0.0
H407 H 0.49287 0.4453 0.05559 0.0
H408 H 0.5898 0.56635 0.03771 0.0
H409 H 0.50241 0.40857 0.06536 0.0
H410 H 0.43811 0.58335 0.96975 0.0
H411 H 0.65413 0.54628 0.04709 0.0
H412 H 0.64017 0.49705 0.05276 0.0
H413 H 0.49007 0.61698 0.9685 0.0
H414 H 0.60257 0.44976 0.05908 0.0
N415 N 0.57543 0.52373 0.04088 0.0
C416 C 0.59544 0.55087 0.04019 0.0
C417 C 0.63208 0.53973 0.04528 0.0
C418 C 0.61154 0.51218 0.04696 0.0
C419 C 0.62395 0.55919 0.04209 0.0
C420 C 0.5831 0.50487 0.04489 0.0
H421 H 0.55098 0.41659 0.0642 0.0
N422 N 0.53535 0.47332 0.04798 0.0
C423 C 0.51944 0.42811 0.06049 0.0
C424 C 0.5622 0.47853 0.04843 0.0
C425 C 0.51412 0.44898 0.05497 0.0
C426 C 0.54685 0.43267 0.05974 0.0
C427 C 0.56878 0.45839 0.05415 0.0
O428 O 0.50501 0.49724 0.06417 0.0
O429 O 0.49698 0.50992 0.01928 0.0
O430 O 0.51115 0.552 0.00929 0.0
O431 O 0.54159 0.55162 0.033 0.0
O432 O 0.48241 0.48045 0.04029 0.0
O433 O 0.54274 0.53611 0.06116 0.0
O434 O 0.53433 0.53324 0.96349 0.0
O435 O 0.53974 0.51745 0.00691 0.0
O436 O 0.52036 0.47303 0.01921 0.0
O437 O 0.49605 0.47771 0.99221 0.0
O438 O 0.55495 0.54889 0.98732 0.0
O439 O 0.49346 0.49707 0.96324 0.0
C440 C 0.47457 0.49096 0.0266 0.0
C441 C 0.53164 0.51656 0.09304 0.0
C442 C 0.52864 0.51995 0.12896 0.0
C443 C 0.52092 0.52323 0.10968 0.0
C444 C 0.54713 0.50966 0.1312 0.0
C445 C 0.55035 0.50677 0.09567 0.0
C446 C 0.55795 0.50325 0.11466 0.0
C447 C 0.52873 0.56334 0.02421 0.0
C448 C 0.52289 0.51969 0.0731 0.0
C449 C 0.59703 0.46501 0.05497 0.0
C450 C 0.61843 0.49193 0.05141 0.0
C451 C 0.56231 0.53659 0.99994 0.0
C452 C 0.51089 0.52109 0.93294 0.0
C453 C 0.51717 0.5104 0.91615 0.0
C454 C 0.51757 0.5208 0.89701 0.0
C455 C 0.5109 0.54186 0.89532 0.0
C456 C 0.50328 0.54115 0.93057 0.0
C457 C 0.50327 0.55142 0.91188 0.0
C458 C 0.50473 0.4637 0.00301 0.0
C459 C 0.51549 0.51332 0.9528 0.0
H460 H 0.50687 0.53128 0.10755 0.0
H461 H 0.55309 0.5063 0.14576 0.0
H462 H 0.55906 0.50182 0.08311 0.0
H463 H 0.57223 0.49546 0.11658 0.0
H464 H 0.52212 0.49429 0.91828 0.0
H465 H 0.51207 0.55163 0.88134 0.0
H466 H 0.49813 0.54949 0.94315 0.0
H467 H 0.49805 0.56744 0.91026 0.0
Tb468 Tb 0.15562 0.32434 0.32297 0.0
C469 C 0.21089 0.41469 0.38568 0.0
C470 C 0.26 0.42843 0.38302 0.0
C471 C 0.24645 0.46146 0.39336 0.0
C472 C 0.23139 0.4085 0.38105 0.0
C473 C 0.21805 0.44094 0.39256 0.0
C474 C 0.26744 0.45521 0.38857 0.0
C475 C 0.16896 0.42354 0.39972 0.0
N476 N 0.18385 0.39416 0.38496 0.0
C477 C 0.16299 0.39782 0.39276 0.0
C478 C 0.19655 0.44536 0.39923 0.0
Tb479 Tb 0.17565 0.35299 0.37262 0.0
N480 N 0.22319 0.38231 0.37607 0.0
C481 C 0.24279 0.3742 0.37448 0.0
C482 C 0.28015 0.42056 0.38015 0.0
C483 C 0.27147 0.39323 0.37616 0.0
H484 H 0.14157 0.38114 0.39301 0.0
H485 H 0.28686 0.38678 0.37434 0.0
H486 H 0.28931 0.47094 0.38988 0.0
H487 H 0.15225 0.42653 0.40535 0.0
H488 H 0.23666 0.35325 0.3713 0.0
H489 H 0.04532 0.29347 0.31881 0.0
H490 H 0.30235 0.43518 0.38166 0.0
H491 H 0.18944 0.29293 0.30748 0.0
H492 H 0.09571 0.32603 0.32281 0.0
H493 H 0.17771 0.24619 0.29774 0.0
H494 H 0.25243 0.48191 0.39834 0.0
H495 H 0.02884 0.24472 0.31204 0.0
H496 H 0.04072 0.20771 0.30573 0.0
H497 H 0.20113 0.46523 0.40467 0.0
H498 H 0.07682 0.19471 0.30016 0.0
N499 N 0.10814 0.29608 0.31885 0.0
C500 C 0.08907 0.3049 0.31982 0.0
C501 C 0.05108 0.25891 0.31389 0.0
C502 C 0.07073 0.25021 0.312 0.0
C503 C 0.06033 0.28644 0.3176 0.0
C504 C 0.09944 0.26961 0.31436 0.0
H505 H 0.12807 0.20904 0.29687 0.0
N506 N 0.1469 0.28212 0.31262 0.0
C507 C 0.16115 0.25043 0.30158 0.0
C508 C 0.11957 0.26232 0.3112 0.0
C509 C 0.16771 0.27689 0.30702 0.0
C510 C 0.1331 0.22949 0.30116 0.0
C511 C 0.11185 0.23541 0.30564 0.0
O512 O 0.17909 0.33536 0.29656 0.0
O513 O 0.18698 0.35553 0.34179 0.0
O514 O 0.17052 0.38303 0.3555 0.0
O515 O 0.14487 0.3566 0.32811 0.0
O516 O 0.20087 0.33958 0.3206 0.0
O517 O 0.14212 0.33904 0.29921 0.0
O518 O 0.15214 0.33932 0.39898 0.0
O519 O 0.14412 0.3225 0.35356 0.0
O520 O 0.15777 0.29401 0.34148 0.0
O521 O 0.18792 0.32193 0.36635 0.0
O522 O 0.13031 0.33752 0.37532 0.0
O523 O 0.18999 0.33757 0.3954 0.0
C524 C 0.20903 0.3579 0.33423 0.0
C525 C 0.15381 0.33078 0.26723 0.0
C526 C 0.15832 0.33819 0.23139 0.0
C527 C 0.16528 0.34844 0.25088 0.0
C528 C 0.13952 0.31011 0.22858 0.0
C529 C 0.13497 0.30294 0.26399 0.0
C530 C 0.1279 0.2927 0.24477 0.0
C531 C 0.15542 0.37904 0.33921 0.0
C532 C 0.1621 0.34155 0.28749 0.0
C533 C 0.08324 0.2156 0.3042 0.0
C534 C 0.0627 0.22301 0.30736 0.0
C535 C 0.12203 0.31998 0.36115 0.0
C536 C 0.17832 0.34416 0.42784 0.0
C537 C 0.1655 0.32672 0.44413 0.0
C538 C 0.17282 0.33673 0.46366 0.0
C539 C 0.19325 0.36434 0.46657 0.0
C540 C 0.19877 0.37153 0.43119 0.0
C541 C 0.20613 0.38153 0.45044 0.0
C542 C 0.17493 0.29844 0.35651 0.0
C543 C 0.16992 0.33377 0.40749 0.0
H544 H 0.17992 0.36998 0.25333 0.0
H545 H 0.13349 0.30167 0.21381 0.0
H546 H 0.12575 0.28911 0.27627 0.0
H547 H 0.11334 0.27116 0.24241 0.0
H548 H 0.14963 0.30557 0.44159 0.0
H549 H 0.19961 0.37258 0.48136 0.0
H550 H 0.2091 0.38516 0.41896 0.0
H551 H 0.22195 0.40268 0.45288 0.0
Tb552 Tb 0.69098 0.83846 0.32227 0.0
C553 C 0.59529 0.79898 0.38056 0.0
C554 C 0.58435 0.83549 0.37997 0.0
C555 C 0.54735 0.78891 0.38628 0.0
C556 C 0.60392 0.82635 0.37788 0.0
C557 C 0.56712 0.78014 0.38544 0.0
C558 C 0.55596 0.81655 0.38359 0.0
C559 C 0.58083 0.74623 0.39111 0.0
N560 N 0.61497 0.79121 0.37996 0.0
C561 C 0.60849 0.76569 0.38639 0.0
C562 C 0.55991 0.75332 0.39023 0.0
Tb563 Tb 0.65914 0.82404 0.37038 0.0
N564 N 0.63164 0.84418 0.37442 0.0
C565 C 0.64119 0.87178 0.37473 0.0
C566 C 0.59398 0.86349 0.37903 0.0
C567 C 0.62254 0.88168 0.3767 0.0
H568 H 0.62446 0.75994 0.38693 0.0
H569 H 0.6303 0.90347 0.37641 0.0
H570 H 0.54065 0.8232 0.38499 0.0
H571 H 0.57567 0.72578 0.39538 0.0
H572 H 0.66292 0.88681 0.37299 0.0
H573 H 0.72195 0.76173 0.31477 0.0
H574 H 0.57969 0.87132 0.38076 0.0
H575 H 0.72542 0.9046 0.31144 0.0
H576 H 0.68853 0.77828 0.31879 0.0
H577 H 0.77451 0.94051 0.30498 0.0
H578 H 0.52555 0.77467 0.38973 0.0
H579 H 0.77267 0.79462 0.31112 0.0
H580 H 0.81161 0.84356 0.3086 0.0
H581 H 0.5385 0.73825 0.39401 0.0
H582 H 0.82604 0.89237 0.30618 0.0
N583 N 0.71995 0.82048 0.31798 0.0
C584 C 0.71054 0.79302 0.31719 0.0
C585 C 0.75811 0.8021 0.313 0.0
C586 C 0.7675 0.83013 0.31293 0.0
C587 C 0.72947 0.78347 0.31495 0.0
C588 C 0.7476 0.83872 0.31525 0.0
H589 H 0.81227 0.92874 0.30455 0.0
N590 N 0.73552 0.87307 0.31521 0.0
C591 C 0.76953 0.91965 0.30755 0.0
C592 C 0.75573 0.86604 0.31395 0.0
C593 C 0.74176 0.89927 0.31113 0.0
C594 C 0.7908 0.91294 0.30738 0.0
C595 C 0.78395 0.88575 0.31021 0.0
O596 O 0.68491 0.85512 0.2962 0.0
O597 O 0.65651 0.83478 0.34013 0.0
O598 O 0.63192 0.78815 0.35233 0.0
O599 O 0.65657 0.79558 0.32259 0.0
O600 O 0.67484 0.86706 0.32129 0.0
O601 O 0.67855 0.81414 0.2966 0.0
O602 O 0.69343 0.83982 0.39024 0.0
O603 O 0.69149 0.82506 0.35199 0.0
O604 O 0.72047 0.86837 0.34321 0.0
O605 O 0.68997 0.86806 0.36712 0.0
O606 O 0.67122 0.79234 0.36999 0.0
O607 O 0.65143 0.81915 0.40111 0.0
C608 C 0.65457 0.8547 0.33366 0.0
C609 C 0.6927 0.83815 0.26641 0.0
C610 C 0.68816 0.83446 0.23047 0.0
C611 C 0.67592 0.82989 0.24937 0.0
C612 C 0.71759 0.84733 0.22892 0.0
C613 C 0.72196 0.85081 0.26458 0.0
C614 C 0.73431 0.85536 0.24591 0.0
C615 C 0.63523 0.78039 0.33452 0.0
C616 C 0.67902 0.83346 0.28579 0.0
C617 C 0.80416 0.87752 0.30881 0.0
C618 C 0.79594 0.84973 0.31016 0.0
C619 C 0.69192 0.80409 0.35783 0.0
C620 C 0.68538 0.81476 0.41967 0.0
C621 C 0.69968 0.82755 0.43717 0.0
C622 C 0.70717 0.81343 0.45078 0.0
C623 C 0.70095 0.78665 0.44636 0.0
C624 C 0.67862 0.78769 0.41587 0.0
C625 C 0.68673 0.7739 0.429 0.0
C626 C 0.71481 0.87984 0.3582 0.0
C627 C 0.67773 0.83004 0.40574 0.0
H628 H 0.65327 0.81967 0.2509 0.0
H629 H 0.7277 0.85148 0.21459 0.0
H630 H 0.73527 0.85725 0.27746 0.0
H631 H 0.75694 0.86527 0.2446 0.0
H632 H 0.70433 0.84822 0.44039 0.0
H633 H 0.70697 0.7755 0.45639 0.0
H634 H 0.66691 0.77689 0.40296 0.0
H635 H 0.68171 0.75315 0.42581 0.0
Tb636 Tb 0.19016 0.83833 0.37159 0.0
C637 C 0.13659 0.87732 0.31184 0.0
C638 C 0.0879 0.8414 0.31306 0.0
C639 C 0.09947 0.88803 0.30598 0.0
C640 C 0.11677 0.85016 0.31503 0.0
C641 C 0.12816 0.89631 0.30654 0.0
C642 C 0.07936 0.8606 0.30923 0.0
C643 C 0.17676 0.92917 0.29989 0.0
N644 N 0.16412 0.8846 0.31224 0.0
C645 C 0.18405 0.90956 0.30512 0.0
C646 C 0.14876 0.92272 0.30105 0.0
Tb647 Tb 0.17382 0.85169 0.3228 0.0
N648 N 0.12581 0.83208 0.31863 0.0
C649 C 0.10681 0.80455 0.31828 0.0
C650 C 0.06848 0.81348 0.31422 0.0
C651 C 0.07802 0.79499 0.31645 0.0
H652 H 0.20579 0.91484 0.30441 0.0
H653 H 0.06319 0.77325 0.31678 0.0
H654 H 0.05728 0.85427 0.308 0.0
H655 H 0.19276 0.94925 0.29504 0.0
H656 H 0.113 0.7894 0.31986 0.0
H657 H 0.29991 0.91502 0.37941 0.0
H658 H 0.04618 0.80593 0.31263 0.0
H659 H 0.15641 0.77236 0.38291 0.0
H660 H 0.24953 0.8985 0.37515 0.0
H661 H 0.16842 0.73647 0.39002 0.0
H662 H 0.0926 0.90242 0.30226 0.0
H663 H 0.31675 0.88211 0.38363 0.0
H664 H 0.30525 0.83317 0.38689 0.0
H665 H 0.14314 0.9379 0.29689 0.0
H666 H 0.26942 0.78443 0.38966 0.0
N667 N 0.23751 0.8563 0.37645 0.0
C668 C 0.25634 0.88375 0.37705 0.0
C669 C 0.29452 0.87465 0.38171 0.0
C670 C 0.27505 0.84664 0.38207 0.0
C671 C 0.28507 0.89329 0.37942 0.0
C672 C 0.24635 0.83808 0.37959 0.0
H673 H 0.21823 0.74816 0.39111 0.0
N674 N 0.19899 0.80386 0.37956 0.0
C675 C 0.18493 0.7573 0.38747 0.0
C676 C 0.22637 0.81083 0.38112 0.0
C677 C 0.1782 0.77768 0.38354 0.0
C678 C 0.21308 0.76397 0.38802 0.0
C679 C 0.23424 0.79112 0.38519 0.0
O680 O 0.16682 0.82251 0.39774 0.0
O681 O 0.15952 0.84121 0.35303 0.0
O682 O 0.18283 0.88784 0.34018 0.0
O683 O 0.19995 0.88106 0.37018 0.0
O684 O 0.14475 0.8094 0.3723 0.0
O685 O 0.20197 0.86368 0.39674 0.0
O686 O 0.19378 0.8371 0.30359 0.0
O687 O 0.20494 0.85135 0.34186 0.0
O688 O 0.18975 0.80849 0.35105 0.0
O689 O 0.15923 0.80796 0.32705 0.0
O690 O 0.21836 0.88361 0.32333 0.0
O691 O 0.16902 0.85313 0.29187 0.0
C692 C 0.13713 0.82129 0.35954 0.0
C693 C 0.19149 0.84117 0.42758 0.0
C694 C 0.19041 0.8461 0.46348 0.0
C695 C 0.18237 0.84935 0.44431 0.0
C696 C 0.2077 0.83443 0.46555 0.0
C697 C 0.20884 0.82979 0.43001 0.0
C698 C 0.21686 0.82642 0.44892 0.0
C699 C 0.19404 0.89587 0.35799 0.0
C700 C 0.18264 0.84473 0.40779 0.0
C701 C 0.26287 0.79929 0.38677 0.0
C702 C 0.28326 0.82704 0.38522 0.0
C703 C 0.22694 0.87232 0.33598 0.0
C704 C 0.20766 0.85921 0.27267 0.0
C705 C 0.20654 0.84695 0.2543 0.0
C706 C 0.2271 0.86135 0.23977 0.0
C707 C 0.24914 0.88784 0.24406 0.0
C708 C 0.22966 0.88588 0.27641 0.0
C709 C 0.25035 0.89995 0.26226 0.0
C710 C 0.17259 0.79683 0.33594 0.0
C711 C 0.18578 0.84394 0.28764 0.0
H712 H 0.1693 0.85854 0.44235 0.0
H713 H 0.2139 0.83118 0.48006 0.0
H714 H 0.21617 0.82347 0.4174 0.0
H715 H 0.23014 0.81747 0.45069 0.0
H716 H 0.18944 0.8265 0.2512 0.0
H717 H 0.26554 0.89918 0.23333 0.0
H718 H 0.23105 0.89611 0.29011 0.0
H719 H 0.26734 0.92041 0.26539 0.0
Tb720 Tb 0.82087 0.65685 0.65643 0.0
C721 C 0.87718 0.747 0.71859 0.0
C722 C 0.92623 0.76004 0.71732 0.0
C723 C 0.91292 0.79386 0.72586 0.0
C724 C 0.89762 0.7403 0.715 0.0
C725 C 0.88444 0.77367 0.72449 0.0
C726 C 0.93381 0.78703 0.7223 0.0
C727 C 0.835 0.75771 0.72887 0.0
N728 N 0.85 0.72684 0.71721 0.0
C729 C 0.8289 0.73151 0.72308 0.0
C730 C 0.86287 0.77899 0.72932 0.0
Tb731 Tb 0.84193 0.68508 0.70612 0.0
N732 N 0.88934 0.71401 0.71023 0.0
C733 C 0.90878 0.70568 0.70896 0.0
C734 C 0.94625 0.75186 0.7151 0.0
C735 C 0.93745 0.72448 0.71113 0.0
H736 H 0.80728 0.71525 0.72259 0.0
H737 H 0.95273 0.71785 0.70967 0.0
H738 H 0.9557 0.80259 0.72388 0.0
H739 H 0.81819 0.76148 0.73295 0.0
H740 H 0.90252 0.6847 0.70577 0.0
H741 H 0.71026 0.62483 0.65274 0.0
H742 H 0.96843 0.76631 0.71691 0.0
H743 H 0.85513 0.62617 0.64021 0.0
H744 H 0.76053 0.6577 0.65674 0.0
H745 H 0.84387 0.57974 0.63011 0.0
H746 H 0.91899 0.81458 0.73014 0.0
H747 H 0.69424 0.57629 0.64557 0.0
H748 H 0.7066 0.53968 0.6389 0.0
H749 H 0.86754 0.79925 0.73386 0.0
H750 H 0.74305 0.52727 0.6329 0.0
N751 N 0.77341 0.62815 0.6524 0.0
C752 C 0.75412 0.63668 0.6536 0.0
C753 C 0.71644 0.59061 0.64746 0.0
C754 C 0.7363 0.5822 0.64538 0.0
C755 C 0.72543 0.61803 0.65137 0.0
C756 C 0.76495 0.60179 0.64773 0.0
H757 H 0.79441 0.5422 0.6293 0.0
N758 N 0.8125 0.61489 0.6456 0.0
C759 C 0.82717 0.58369 0.63414 0.0
C760 C 0.78526 0.59486 0.64427 0.0
C761 C 0.83346 0.61 0.63978 0.0
C762 C 0.79923 0.56254 0.63375 0.0
C763 C 0.7778 0.56809 0.63849 0.0
O764 O 0.84383 0.66861 0.62981 0.0
O765 O 0.85287 0.68726 0.67533 0.0
O766 O 0.83953 0.71568 0.68808 0.0
O767 O 0.80932 0.6884 0.66291 0.0
O768 O 0.86614 0.67205 0.65331 0.0
O769 O 0.80715 0.67252 0.6334 0.0
O770 O 0.8192 0.67329 0.73283 0.0
O771 O 0.80995 0.65484 0.68718 0.0
O772 O 0.82324 0.62628 0.67463 0.0
O773 O 0.85378 0.65385 0.69952 0.0
O774 O 0.79658 0.66962 0.70934 0.0
O775 O 0.85557 0.66892 0.72883 0.0
C776 C 0.87473 0.68961 0.66747 0.0
C777 C 0.81774 0.66438 0.60101 0.0
C778 C 0.82178 0.67152 0.56513 0.0
C779 C 0.82927 0.68188 0.58457 0.0
C780 C 0.80243 0.64356 0.56246 0.0
C781 C 0.79832 0.63665 0.59789 0.0
C782 C 0.79074 0.62634 0.57873 0.0
C783 C 0.82224 0.71157 0.67318 0.0
C784 C 0.82671 0.67505 0.62125 0.0
C785 C 0.74927 0.54806 0.6371 0.0
C786 C 0.72853 0.55512 0.64052 0.0
C787 C 0.78802 0.65224 0.69507 0.0
C788 C 0.84547 0.67683 0.76139 0.0
C789 C 0.83457 0.65892 0.77764 0.0
C790 C 0.84295 0.66865 0.79715 0.0
C791 C 0.8622 0.69666 0.8 0.0
C792 C 0.86483 0.70451 0.76468 0.0
C793 C 0.87307 0.71434 0.78388 0.0
C794 C 0.84055 0.63048 0.68955 0.0
C795 C 0.83621 0.66649 0.74113 0.0
H796 H 0.84436 0.70333 0.58689 0.0
H797 H 0.79603 0.63506 0.54773 0.0
H798 H 0.78907 0.62294 0.61024 0.0
H799 H 0.77574 0.60488 0.57648 0.0
H800 H 0.81986 0.63745 0.77503 0.0
H801 H 0.86866 0.70505 0.81473 0.0
H802 H 0.87353 0.71855 0.75246 0.0
H803 H 0.88787 0.73581 0.7863 0.0
Tb804 Tb 0.35977 0.16951 0.65489 0.0
C805 C 0.26365 0.13109 0.71272 0.0
C806 C 0.25282 0.16774 0.71302 0.0
C807 C 0.21569 0.12092 0.71843 0.0
C808 C 0.2724 0.15867 0.71068 0.0
C809 C 0.23536 0.11206 0.71709 0.0
C810 C 0.22441 0.1487 0.71646 0.0
C811 C 0.24842 0.07729 0.72048 0.0
N812 N 0.28316 0.12311 0.71146 0.0
C813 C 0.27624 0.09687 0.71628 0.0
C814 C 0.2278 0.08481 0.72057 0.0
Tb815 Tb 0.32746 0.15661 0.70286 0.0
N816 N 0.30011 0.17664 0.70721 0.0
C817 C 0.30961 0.20421 0.70751 0.0
C818 C 0.26242 0.19575 0.7123 0.0
C819 C 0.29094 0.21403 0.70977 0.0
H820 H 0.29193 0.09073 0.71597 0.0
H821 H 0.29863 0.2358 0.70955 0.0
H822 H 0.20911 0.15532 0.71809 0.0
H823 H 0.24289 0.05639 0.72358 0.0
H824 H 0.33134 0.21923 0.70564 0.0
H825 H 0.39492 0.09572 0.64901 0.0
H826 H 0.2481 0.20352 0.71421 0.0
H827 H 0.39195 0.23526 0.64293 0.0
H828 H 0.36015 0.11061 0.65271 0.0
H829 H 0.44035 0.27222 0.63603 0.0
H830 H 0.19381 0.10656 0.72155 0.0
H831 H 0.44515 0.12987 0.64471 0.0
H832 H 0.48273 0.17928 0.64159 0.0
H833 H 0.20626 0.0696 0.72388 0.0
H834 H 0.49522 0.22751 0.6383 0.0
N835 N 0.3903 0.15317 0.65123 0.0
C836 C 0.38194 0.12591 0.65093 0.0
C837 C 0.43001 0.13664 0.64659 0.0
C838 C 0.43836 0.16442 0.64611 0.0
C839 C 0.40165 0.1173 0.64886 0.0
C840 C 0.41769 0.17205 0.64827 0.0
H841 H 0.47946 0.26237 0.63593 0.0
N842 N 0.40369 0.20495 0.64729 0.0
C843 C 0.43624 0.25171 0.63897 0.0
C844 C 0.42469 0.19899 0.64633 0.0
C845 C 0.40884 0.2307 0.64281 0.0
C846 C 0.45828 0.24609 0.63899 0.0
C847 C 0.45258 0.21934 0.64231 0.0
O848 O 0.35219 0.18374 0.62816 0.0
O849 O 0.32589 0.16726 0.67258 0.0
O850 O 0.29852 0.12372 0.68331 0.0
O851 O 0.32676 0.12594 0.65686 0.0
O852 O 0.34318 0.1978 0.65251 0.0
O853 O 0.34704 0.14335 0.63016 0.0
O854 O 0.36095 0.17327 0.72341 0.0
O855 O 0.35982 0.15687 0.68491 0.0
O856 O 0.38904 0.2002 0.67555 0.0
O857 O 0.35847 0.20052 0.69925 0.0
O858 O 0.33941 0.12473 0.70322 0.0
O859 O 0.31854 0.15009 0.73335 0.0
C860 C 0.32366 0.1867 0.66554 0.0
C861 C 0.36041 0.16553 0.59924 0.0
C862 C 0.35639 0.16247 0.56325 0.0
C863 C 0.34394 0.15836 0.58207 0.0
C864 C 0.3857 0.17382 0.56196 0.0
C865 C 0.38951 0.17656 0.59765 0.0
C866 C 0.40207 0.1807 0.57909 0.0
C867 C 0.30309 0.11335 0.66716 0.0
C868 C 0.34672 0.16161 0.61856 0.0
C869 C 0.47359 0.21214 0.64116 0.0
C870 C 0.46647 0.18469 0.64302 0.0
C871 C 0.36022 0.13611 0.69117 0.0
C872 C 0.35293 0.14702 0.75229 0.0
C873 C 0.36792 0.16005 0.76954 0.0
C874 C 0.37579 0.14606 0.78303 0.0
C875 C 0.36952 0.11926 0.77854 0.0
C876 C 0.34569 0.11977 0.74867 0.0
C877 C 0.35447 0.10623 0.76151 0.0
C878 C 0.38337 0.21195 0.69038 0.0
C879 C 0.34472 0.16206 0.73853 0.0
H880 H 0.32136 0.14933 0.58342 0.0
H881 H 0.39603 0.17768 0.54773 0.0
H882 H 0.40254 0.18202 0.61064 0.0
H883 H 0.42459 0.18938 0.57797 0.0
H884 H 0.3726 0.18073 0.77274 0.0
H885 H 0.37591 0.10821 0.78837 0.0
H886 H 0.33296 0.10863 0.73618 0.0
H887 H 0.34918 0.08538 0.7584 0.0
Tb888 Tb 0.86151 0.17611 0.70444 0.0
C889 C 0.8064 0.21441 0.64303 0.0
C890 C 0.75712 0.18072 0.64524 0.0
C891 C 0.7713 0.22718 0.63529 0.0
C892 C 0.78561 0.18831 0.64748 0.0
C893 C 0.7996 0.23398 0.63625 0.0
C894 C 0.75005 0.20053 0.63978 0.0
C895 C 0.84882 0.26395 0.62928 0.0
N896 N 0.83333 0.21984 0.64373 0.0
C897 C 0.85441 0.24373 0.63606 0.0
C898 C 0.82135 0.25928 0.62976 0.0
Tb899 Tb 0.84088 0.18601 0.65553 0.0
N900 N 0.79344 0.16978 0.65234 0.0
C901 C 0.77357 0.14266 0.65367 0.0
C902 C 0.73671 0.15325 0.64767 0.0
C903 C 0.745 0.1341 0.65168 0.0
H904 H 0.87574 0.24763 0.63577 0.0
H905 H 0.72941 0.11269 0.6532 0.0
H906 H 0.72826 0.1952 0.63828 0.0
H907 H 0.86571 0.28315 0.62378 0.0
H908 H 0.77939 0.12744 0.65678 0.0
H909 H 0.97214 0.25158 0.70823 0.0
H910 H 0.71463 0.14648 0.64574 0.0
H911 H 0.82724 0.11151 0.71922 0.0
H912 H 0.92187 0.23566 0.70432 0.0
H913 H 0.83857 0.07573 0.72829 0.0
H914 H 0.76561 0.24202 0.63037 0.0
H915 H 0.98811 0.21846 0.71474 0.0
H916 H 0.97579 0.16965 0.72033 0.0
H917 H 0.81705 0.2749 0.62441 0.0
H918 H 0.93939 0.12158 0.7255 0.0
N919 N 0.90899 0.19348 0.708 0.0
C920 C 0.92828 0.22079 0.70711 0.0
C921 C 0.96593 0.21122 0.71282 0.0
C922 C 0.94608 0.18343 0.71443 0.0
C923 C 0.95697 0.22999 0.70929 0.0
C924 C 0.91743 0.17519 0.71215 0.0
H925 H 0.88806 0.08638 0.72877 0.0
N926 N 0.86984 0.14184 0.71399 0.0
C927 C 0.85524 0.09606 0.72454 0.0
C928 C 0.89711 0.14833 0.71514 0.0
C929 C 0.84891 0.11639 0.71947 0.0
C930 C 0.8832 0.10212 0.72474 0.0
C931 C 0.90461 0.12869 0.72039 0.0
O932 O 0.83913 0.1641 0.73126 0.0
O933 O 0.82974 0.17747 0.68641 0.0
O934 O 0.84643 0.22086 0.67307 0.0
O935 O 0.87273 0.21904 0.69981 0.0
O936 O 0.81617 0.14775 0.70734 0.0
O937 O 0.87598 0.20385 0.72827 0.0
O938 O 0.86362 0.19525 0.62884 0.0
O939 O 0.87273 0.18542 0.67382 0.0
O940 O 0.85887 0.14393 0.6854 0.0
O941 O 0.82798 0.14279 0.66135 0.0
O942 O 0.88639 0.21406 0.65232 0.0
O943 O 0.82557 0.15679 0.63263 0.0
C944 C 0.80776 0.15837 0.6941 0.0
C945 C 0.86581 0.1839 0.76009 0.0
C946 C 0.86359 0.1877 0.79605 0.0
C947 C 0.85555 0.19088 0.77684 0.0
C948 C 0.88198 0.17726 0.79811 0.0
C949 C 0.88441 0.17395 0.76256 0.0
C950 C 0.89237 0.17059 0.78147 0.0
C951 C 0.86212 0.23146 0.68911 0.0
C952 C 0.85657 0.18676 0.74024 0.0
C953 C 0.93314 0.13642 0.7217 0.0
C954 C 0.95387 0.16379 0.71877 0.0
C955 C 0.89485 0.20418 0.66607 0.0
C956 C 0.83627 0.17527 0.60037 0.0
C957 C 0.84977 0.17214 0.58376 0.0
C958 C 0.84194 0.17531 0.56451 0.0
C959 C 0.8204 0.18166 0.56218 0.0
C960 C 0.81467 0.18133 0.59768 0.0
C961 C 0.80686 0.18458 0.57868 0.0
C962 C 0.84111 0.13172 0.67067 0.0
C963 C 0.84528 0.1726 0.62036 0.0
H964 H 0.84157 0.19904 0.77484 0.0
H965 H 0.88815 0.17394 0.8126 0.0
H966 H 0.89272 0.1687 0.74994 0.0
H967 H 0.90655 0.16266 0.78324 0.0
H968 H 0.86655 0.16755 0.58582 0.0
H969 H 0.81368 0.18389 0.54757 0.0
H970 H 0.80377 0.18348 0.6102 0.0
H971 H 0.79016 0.18926 0.57673 0.0
C972 C 0.30637 0.84741 0.0449 0.0
C973 C 0.30663 0.84102 0.06495 0.0
C974 C 0.32992 0.86966 0.03611 0.0
C975 C 0.3542 0.886 0.04767 0.0
C976 C 0.35488 0.87908 0.06771 0.0
C977 C 0.33128 0.85661 0.076 0.0
C978 C 0.32875 0.87589 0.01455 0.0
C979 C 0.38032 0.89587 0.0806 0.0
C980 C 0.42693 0.93474 0.02763 0.0
C981 C 0.4285 0.96013 0.03005 0.0
C982 C 0.40209 0.91022 0.03175 0.0
C983 C 0.37858 0.91113 0.03936 0.0
C984 C 0.37982 0.9367 0.04136 0.0
C985 C 0.40477 0.96087 0.03669 0.0
C986 C 0.40167 0.88349 0.02896 0.0
C987 C 0.35534 0.93867 0.04955 0.0
H988 H 0.28749 0.83551 0.03621 0.0
H989 H 0.33204 0.85142 0.09134 0.0
H990 H 0.33306 0.89718 0.01283 0.0
H991 H 0.34528 0.87422 0.00632 0.0
H992 H 0.30806 0.86177 0.00772 0.0
H993 H 0.37757 0.88762 0.09586 0.0
H994 H 0.39912 0.89654 0.074 0.0
H995 H 0.38456 0.91723 0.0815 0.0
H996 H 0.44529 0.9339 0.02314 0.0
H997 H 0.40604 0.98049 0.03882 0.0
H998 H 0.38151 0.86787 0.0223 0.0
H999 H 0.40373 0.87571 0.04356 0.0
H1000 H 0.41917 0.88586 0.01937 0.0
H1001 H 0.33578 0.92463 0.04145 0.0
H1002 H 0.35875 0.95975 0.0486 0.0
H1003 H 0.3521 0.9323 0.06531 0.0
C1004 C 0.16986 0.46282 0.04582 0.0
C1005 C 0.17662 0.46788 0.06601 0.0
C1006 C 0.14736 0.46486 0.0376 0.0
C1007 C 0.13107 0.4721 0.04979 0.0
C1008 C 0.13848 0.47821 0.07001 0.0
C1009 C 0.16114 0.47621 0.07779 0.0
C1010 C 0.14073 0.45883 0.01592 0.0
C1011 C 0.12187 0.48604 0.08364 0.0
C1012 C 0.08161 0.49599 0.03022 0.0
C1013 C 0.0553 0.47214 0.03169 0.0
C1014 C 0.1066 0.49597 0.03486 0.0
C1015 C 0.10529 0.47173 0.04195 0.0
C1016 C 0.07876 0.44751 0.04323 0.0
C1017 C 0.05419 0.44804 0.03813 0.0
C1018 C 0.13429 0.5222 0.03286 0.0
C1019 C 0.07618 0.4212 0.05079 0.0
H1020 H 0.18155 0.45635 0.03655 0.0
H1021 H 0.16651 0.48085 0.09329 0.0
H1022 H 0.11862 0.4423 0.01397 0.0
H1023 H 0.14311 0.47732 0.00844 0.0
H1024 H 0.15471 0.45259 0.00853 0.0
H1025 H 0.1308 0.49098 0.09883 0.0
H1026 H 0.12126 0.50402 0.07766 0.0
H1027 H 0.09985 0.46896 0.08456 0.0
H1028 H 0.08276 0.51493 0.02593 0.0
H1029 H 0.0339 0.42963 0.03959 0.0
H1030 H 0.1499 0.5184 0.02527 0.0
H1031 H 0.14272 0.53046 0.04778 0.0
H1032 H 0.13215 0.53798 0.02446 0.0
H1033 H 0.09007 0.41599 0.04221 0.0
H1034 H 0.0543 0.4038 0.04983 0.0
H1035 H 0.08309 0.42382 0.06647 0.0
C1036 C 0.56004 0.71413 0.0515 0.0
C1037 C 0.54986 0.71411 0.07049 0.0
C1038 C 0.55759 0.69014 0.04339 0.0
C1039 C 0.54416 0.66559 0.05445 0.0
C1040 C 0.53344 0.66544 0.07351 0.0
C1041 C 0.53666 0.68981 0.08139 0.0
C1042 C 0.56961 0.6911 0.02313 0.0
C1043 C 0.51846 0.63952 0.08556 0.0
C1044 C 0.51364 0.59799 0.02732 0.0
C1045 C 0.53338 0.58987 0.03158 0.0
C1046 C 0.51704 0.62272 0.03449 0.0
C1047 C 0.54095 0.63991 0.04604 0.0
C1048 C 0.56124 0.63208 0.05012 0.0
C1049 C 0.55707 0.60697 0.04298 0.0
C1050 C 0.49471 0.63012 0.03006 0.0
C1051 C 0.58722 0.65014 0.06215 0.0
H1052 H 0.57046 0.73306 0.04319 0.0
H1053 H 0.52863 0.68985 0.09603 0.0
H1054 H 0.58546 0.68445 0.02408 0.0
H1055 H 0.55279 0.67671 0.01299 0.0
H1056 H 0.57967 0.71189 0.01656 0.0
H1057 H 0.51092 0.64283 0.09999 0.0
H1058 H 0.50017 0.62369 0.07715 0.0
H1059 H 0.53273 0.63132 0.08841 0.0
H1060 H 0.4951 0.58475 0.01869 0.0
H1061 H 0.57244 0.60082 0.04621 0.0
H1062 H 0.50419 0.65035 0.02272 0.0
H1063 H 0.48515 0.63172 0.04409 0.0
H1064 H 0.47779 0.61479 0.02038 0.0
H1065 H 0.59874 0.67083 0.05549 0.0
H1066 H 0.60164 0.64173 0.06313 0.0
H1067 H 0.58116 0.65253 0.07735 0.0
C1068 C 0.86362 0.29438 0.96292 0.0
C1069 C 0.83593 0.28925 0.96161 0.0
C1070 C 0.8851 0.31903 0.97082 0.0
C1071 C 0.87885 0.33925 0.9773 0.0
C1072 C 0.8508 0.33397 0.97635 0.0
C1073 C 0.82961 0.30892 0.96865 0.0
C1074 C 0.9146 0.32361 0.97191 0.0
C1075 C 0.84335 0.35513 0.9829 0.0
C1076 C 0.93077 0.39586 0.01128 0.0
C1077 C 0.94599 0.41708 0.99788 0.0
C1078 C 0.90882 0.37043 0.00484 0.0
C1079 C 0.90185 0.36621 0.98447 0.0
C1080 C 0.91726 0.38763 0.97084 0.0
C1081 C 0.93931 0.41274 0.9777 0.0
C1082 C 0.89331 0.34801 0.01981 0.0
C1083 C 0.91032 0.38412 0.94903 0.0
H1084 H 0.86849 0.27908 0.95764 0.0
H1085 H 0.80826 0.30507 0.96749 0.0
H1086 H 0.92866 0.34092 0.9622 0.0
H1087 H 0.92283 0.32917 0.98722 0.0
H1088 H 0.91567 0.30526 0.96729 0.0
H1089 H 0.82046 0.34759 0.98174 0.0
H1090 H 0.85003 0.36124 0.99846 0.0
H1091 H 0.85477 0.37376 0.97368 0.0
H1092 H 0.93645 0.39888 0.02675 0.0
H1093 H 0.95097 0.42923 0.96732 0.0
H1094 H 0.89575 0.33015 0.01613 0.0
H1095 H 0.87053 0.34099 0.01931 0.0
H1096 H 0.90103 0.35474 0.03514 0.0
H1097 H 0.91282 0.3672 0.94296 0.0
H1098 H 0.92391 0.40297 0.94045 0.0
H1099 H 0.88807 0.3785 0.94678 0.0
C1100 C 0.68846 0.53012 0.94952 0.0
C1101 C 0.71241 0.53746 0.96117 0.0
C1102 C 0.66401 0.52834 0.95759 0.0
C1103 C 0.66307 0.5337 0.97798 0.0
C1104 C 0.68667 0.53994 0.99004 0.0
C1105 C 0.71101 0.54176 0.98153 0.0
C1106 C 0.63945 0.52157 0.94409 0.0
C1107 C 0.68641 0.5452 0.01189 0.0
C1108 C 0.61299 0.55981 0.99075 0.0
C1109 C 0.58881 0.53596 0.99686 0.0
C1110 C 0.63757 0.55953 0.98539 0.0
C1111 C 0.63817 0.53473 0.98612 0.0
C1112 C 0.61407 0.51071 0.99295 0.0
C1113 C 0.58955 0.51151 0.99789 0.0
C1114 C 0.66259 0.58564 0.97818 0.0
C1115 C 0.61376 0.48392 0.9944 0.0
H1116 H 0.6889 0.52603 0.93389 0.0
H1117 H 0.72928 0.54746 0.99073 0.0
H1118 H 0.6201 0.50376 0.94992 0.0
H1119 H 0.63565 0.5391 0.94358 0.0
H1120 H 0.64301 0.51687 0.92876 0.0
H1121 H 0.70657 0.55036 0.01922 0.0
H1122 H 0.68217 0.56223 0.01435 0.0
H1123 H 0.66926 0.52676 0.01908 0.0
H1124 H 0.61243 0.5787 0.98973 0.0
H1125 H 0.57079 0.49285 1.00216 0.0
H1126 H 0.66664 0.58334 0.9624 0.0
H1127 H 0.68165 0.58994 0.98667 0.0
H1128 H 0.65938 0.6035 0.97955 0.0
H1129 H 0.61333 0.47595 0.97932 0.0
H1130 H 0.5952 0.46832 0.00269 0.0
H1131 H 0.63308 0.48685 1.00184 0.0
C1132 C 0.49187 0.1695 0.95035 0.0
C1133 C 0.47559 0.17938 0.95914 0.0
C1134 C 0.49476 0.14866 0.95928 0.0
C1135 C 0.48086 0.13732 0.97738 0.0
C1136 C 0.46506 0.14775 0.98663 0.0
C1137 C 0.46268 0.16877 0.97741 0.0
C1138 C 0.51209 0.13829 0.94908 0.0
C1139 C 0.44988 0.13607 0.00589 0.0
C1140 C 0.46435 0.06467 0.98711 0.0
C1141 C 0.48606 0.06886 1.00007 0.0
C1142 C 0.46193 0.08676 0.98009 0.0
C1143 C 0.48186 0.11367 0.98605 0.0
C1144 C 0.50347 0.11799 0.99947 0.0
C1145 C 0.50529 0.09552 0.00633 0.0
C1146 C 0.43845 0.08135 0.9659 0.0
C1147 C 0.52526 0.14637 0.00605 0.0
H1148 H 0.50212 0.17792 0.93632 0.0
H1149 H 0.44988 0.17622 0.98414 0.0
H1150 H 0.52819 0.13903 0.95938 0.0
H1151 H 0.49839 0.11662 0.94467 0.0
H1152 H 0.52281 0.15033 0.93566 0.0
H1153 H 0.43986 0.14752 0.01174 0.0
H1154 H 0.43337 0.11442 0.00367 0.0
H1155 H 0.46467 0.13633 0.01719 0.0
H1156 H 0.44936 0.04413 0.98227 0.0
H1157 H 0.52235 0.09902 0.01616 0.0
H1158 H 0.44736 0.09075 0.95135 0.0
H1159 H 0.42636 0.09087 0.97149 0.0
H1160 H 0.42377 0.05915 0.96363 0.0
H1161 H 0.53822 0.15806 0.99319 0.0
H1162 H 0.53939 0.14604 0.01768 0.0
H1163 H 0.51494 0.15754 0.01186 0.0
C1164 C 0.66736 0.14899 0.95015 0.0
C1165 C 0.69142 0.16586 0.9613 0.0
C1166 C 0.64365 0.12711 0.95889 0.0
C1167 C 0.64395 0.12186 0.97936 0.0
C1168 C 0.668 0.13919 0.99083 0.0
C1169 C 0.69152 0.16103 0.98166 0.0
C1170 C 0.61847 0.10923 0.94609 0.0
C1171 C 0.66894 0.13448 0.01272 0.0
C1172 C 0.57102 0.07484 0.99993 0.0
C1173 C 0.5692 0.04925 0.99843 0.0
C1174 C 0.59597 0.09898 0.99524 0.0
C1175 C 0.61943 0.09741 0.98827 0.0
C1176 C 0.61801 0.07167 0.98747 0.0
C1177 C 0.59286 0.04791 0.99245 0.0
C1178 C 0.59652 0.12592 0.99661 0.0
C1179 C 0.64251 0.06901 0.98022 0.0
H1180 H 0.66722 0.15272 0.93443 0.0
H1181 H 0.71003 0.17407 0.99038 0.0
H1182 H 0.61459 0.08797 0.94608 0.0
H1183 H 0.59943 0.10863 0.95218 0.0
H1184 H 0.6213 0.11652 0.93055 0.0
H1185 H 0.68936 0.14942 0.0195 0.0
H1186 H 0.65195 0.1361 0.02033 0.0
H1187 H 0.66519 0.11354 0.01536 0.0
H1188 H 0.55268 0.07606 0.00399 0.0
H1189 H 0.59138 0.0281 0.99108 0.0
H1190 H 0.59489 0.13275 0.98153 0.0
H1191 H 0.61658 0.1419 0.00317 0.0
H1192 H 0.57885 0.12429 0.00564 0.0
H1193 H 0.63911 0.04809 0.98245 0.0
H1194 H 0.66207 0.08381 0.98798 0.0
H1195 H 0.64572 0.07385 0.96419 0.0
C1196 C 0.84635 0.52461 0.98051 0.0
C1197 C 0.83984 0.51909 0.96036 0.0
C1198 C 0.86938 0.52361 0.98889 0.0
C1199 C 0.88627 0.51689 0.97688 0.0
C1200 C 0.87934 0.51085 0.9566 0.0
C1201 C 0.85632 0.51202 0.94865 0.0
C1202 C 0.87566 0.52985 0.01058 0.0
C1203 C 0.89664 0.50367 0.94313 0.0
C1204 C 0.9631 0.54129 0.98887 0.0
C1205 C 0.96204 0.51727 0.99544 0.0
C1206 C 0.9385 0.54173 0.98372 0.0
C1207 C 0.91202 0.51746 0.985 0.0
C1208 C 0.91078 0.49327 0.99217 0.0
C1209 C 0.93579 0.49337 0.99701 0.0
C1210 C 0.941 0.56801 0.9762 0.0
C1211 C 0.88313 0.467 0.99409 0.0
H1212 H 0.83368 0.52999 0.9897 0.0
H1213 H 0.85138 0.50772 0.93305 0.0
H1214 H 0.87264 0.51125 0.01829 0.0
H1215 H 0.89787 0.54606 0.01268 0.0
H1216 H 0.86187 0.53658 0.01762 0.0
H1217 H 0.88803 0.49873 0.92785 0.0
H1218 H 0.91851 0.52105 0.94243 0.0
H1219 H 0.89757 0.48586 0.94912 0.0
H1220 H 0.98335 0.55975 0.98745 0.0
H1221 H 0.9348 0.47456 1.00164 0.0
H1222 H 0.92677 0.57296 0.9846 0.0
H1223 H 0.93446 0.56552 0.96044 0.0
H1224 H 0.96278 0.58552 0.97741 0.0
H1225 H 0.86766 0.47068 1.00201 0.0
H1226 H 0.88535 0.45103 1.00215 0.0
H1227 H 0.87449 0.45909 0.97915 0.0
C1228 C 0.44101 0.31215 0.96125 0.0
C1229 C 0.46058 0.30321 0.96221 0.0
C1230 C 0.44778 0.33815 0.9682 0.0
C1231 C 0.47496 0.35573 0.9759 0.0
C1232 C 0.49486 0.34681 0.97683 0.0
C1233 C 0.48735 0.32052 0.97009 0.0
C1234 C 0.42587 0.34681 0.96728 0.0
C1235 C 0.52417 0.36517 0.98471 0.0
C1236 C 0.50046 0.43177 0.97621 0.0
C1237 C 0.49696 0.43615 0.99613 0.0
C1238 C 0.49366 0.40569 0.96944 0.0
C1239 C 0.48263 0.38352 0.98289 0.0
C1240 C 0.47871 0.38787 0.00299 0.0
C1241 C 0.48601 0.41423 0.00937 0.0
C1242 C 0.49848 0.40191 0.94795 0.0
C1243 C 0.46653 0.36468 0.0177 0.0
H1244 H 0.42031 0.2987 0.95514 0.0
H1245 H 0.50262 0.31373 0.97068 0.0
H1246 H 0.42239 0.35261 0.98226 0.0
H1247 H 0.43336 0.36509 0.95771 0.0
H1248 H 0.40547 0.3304 0.96139 0.0
H1249 H 0.53719 0.35519 0.98433 0.0
H1250 H 0.53479 0.38423 0.97585 0.0
H1251 H 0.52318 0.37118 1.00019 0.0
H1252 H 0.50898 0.44887 0.96602 0.0
H1253 H 0.48242 0.41752 0.02458 0.0
H1254 H 0.47833 0.38698 0.94087 0.0
H1255 H 0.51281 0.39345 0.94681 0.0
H1256 H 0.50767 0.42137 0.93952 0.0
H1257 H 0.44521 0.34882 0.01287 0.0
H1258 H 0.46509 0.3716 0.03283 0.0
H1259 H 0.47966 0.35486 0.01835 0.0
C1260 C 0.1747 0.67232 0.07746 0.0
C1261 C 0.18559 0.69697 0.06706 0.0
C1262 C 0.15245 0.64803 0.06977 0.0
C1263 C 0.14055 0.64844 0.05128 0.0
C1264 C 0.15145 0.67333 0.04067 0.0
C1265 C 0.17397 0.69734 0.04866 0.0
C1266 C 0.1417 0.62189 0.08145 0.0
C1267 C 0.13919 0.67459 0.02097 0.0
C1268 C 0.10026 0.58043 0.02444 0.0
C1269 C 0.07238 0.57195 0.02969 0.0
C1270 C 0.12255 0.60552 0.03097 0.0
C1271 C 0.1169 0.62268 0.04306 0.0
C1272 C 0.08876 0.61449 0.04815 0.0
C1273 C 0.06684 0.58914 0.04149 0.0
C1274 C 0.1522 0.61326 0.02535 0.0
C1275 C 0.08187 0.6323 0.06091 0.0
H1276 H 0.18366 0.67204 0.09171 0.0
H1277 H 0.1822 0.7164 0.04061 0.0
H1278 H 0.11915 0.61346 0.085 0.0
H1279 H 0.14339 0.60632 0.07247 0.0
H1280 H 0.15345 0.62499 0.0955 0.0
H1281 H 0.14993 0.69553 0.01463 0.0
H1282 H 0.14082 0.66052 0.01028 0.0
H1283 H 0.11653 0.6677 0.02268 0.0
H1284 H 0.10486 0.56717 0.01556 0.0
H1285 H 0.04537 0.58278 0.04557 0.0
H1286 H 0.16431 0.61455 0.03886 0.0
H1287 H 0.16293 0.63371 0.01829 0.0
H1288 H 0.15289 0.59827 0.01503 0.0
H1289 H 0.09123 0.63455 0.07583 0.0
H1290 H 0.05886 0.62375 0.06258 0.0
H1291 H 0.09112 0.65307 0.05444 0.0
C1292 C 0.32265 0.48001 0.044 0.0
C1293 C 0.32143 0.48302 0.06454 0.0
C1294 C 0.34695 0.48223 0.03503 0.0
C1295 C 0.37052 0.48756 0.04687 0.0
C1296 C 0.36941 0.49108 0.06755 0.0
C1297 C 0.345 0.48879 0.07606 0.0
C1298 C 0.34741 0.47884 0.01293 0.0
C1299 C 0.39386 0.49672 0.08084 0.0
C1300 C 0.42308 0.4651 0.0329 0.0
C1301 C 0.44709 0.48998 0.02825 0.0
C1302 C 0.39754 0.46379 0.03773 0.0
C1303 C 0.39589 0.48806 0.03813 0.0
C1304 C 0.41978 0.51311 0.03255 0.0
C1305 C 0.44517 0.51383 0.028 0.0
C1306 C 0.37274 0.4366 0.04349 0.0
C1307 C 0.41908 0.53947 0.03241 0.0
H1308 H 0.3046 0.4757 0.03496 0.0
H1309 H 0.34423 0.4912 0.09193 0.0
H1310 H 0.36366 0.49835 0.0063 0.0
H1311 H 0.35313 0.46307 0.00933 0.0
H1312 H 0.32685 0.47297 0.00594 0.0
H1313 H 0.38999 0.49969 0.09654 0.0
H1314 H 0.39801 0.47943 0.08004 0.0
H1315 H 0.41313 0.5153 0.07577 0.0
H1316 H 0.42455 0.44665 0.03335 0.0
H1317 H 0.4637 0.53325 0.02501 0.0
H1318 H 0.3537 0.43293 0.03525 0.0
H1319 H 0.36833 0.4368 0.0595 0.0
H1320 H 0.37651 0.41933 0.04059 0.0
H1321 H 0.39964 0.5365 0.02516 0.0
H1322 H 0.43752 0.55607 0.02462 0.0
H1323 H 0.41906 0.54613 0.04786 0.0
C1324 C 0.50738 0.84114 0.07771 0.0
C1325 C 0.52242 0.83045 0.06822 0.0
C1326 C 0.50474 0.86232 0.06912 0.0
C1327 C 0.51789 0.87332 0.05075 0.0
C1328 C 0.53288 0.86239 0.04098 0.0
C1329 C 0.53484 0.84091 0.0498 0.0
C1330 C 0.48824 0.8732 0.07985 0.0
C1331 C 0.54736 0.87381 0.02146 0.0
C1332 C 0.49253 0.9147 0.02227 0.0
C1333 C 0.51197 0.94144 0.02823 0.0
C1334 C 0.4945 0.89233 0.02915 0.0
C1335 C 0.51662 0.89685 0.04215 0.0
C1336 C 0.53682 0.92385 0.04772 0.0
C1337 C 0.53415 0.94583 0.04079 0.0
C1338 C 0.47234 0.86384 0.02305 0.0
C1339 C 0.56091 0.92947 0.06137 0.0
H1340 H 0.49776 0.83298 0.09195 0.0
H1341 H 0.54664 0.83278 0.04247 0.0
H1342 H 0.50233 0.89495 0.0839 0.0
H1343 H 0.47166 0.87238 0.07001 0.0
H1344 H 0.4782 0.86153 0.09354 0.0
H1345 H 0.55748 0.86249 0.0155 0.0
H1346 H 0.53206 0.87302 0.01039 0.0
H1347 H 0.56368 0.8956 0.02333 0.0
H1348 H 0.47517 0.91109 0.01271 0.0
H1349 H 0.54932 0.96644 0.04537 0.0
H1350 H 0.45998 0.85246 0.03621 0.0
H1351 H 0.4823 0.85248 0.01698 0.0
H1352 H 0.45768 0.86399 0.01178 0.0
H1353 H 0.55265 0.92052 0.07614 0.0
H1354 H 0.57581 0.9517 0.06323 0.0
H1355 H 0.57259 0.91965 0.05555 0.0
C1356 C 0.99538 0.19339 0.41002 0.0
C1357 C 0.97137 0.177 0.39857 0.0
C1358 C 0.01944 0.21533 0.40165 0.0
C1359 C 0.01978 0.22106 0.38123 0.0
C1360 C 0.99605 0.20405 0.3694 0.0
C1361 C 0.97211 0.18223 0.3782 0.0
C1362 C 0.04432 0.23279 0.41483 0.0
C1363 C 0.99581 0.20918 0.34752 0.0
C1364 C 0.07095 0.29529 0.36865 0.0
C1365 C 0.09482 0.29418 0.36289 0.0
C1366 C 0.04582 0.27141 0.37352 0.0
C1367 C 0.04456 0.24574 0.37273 0.0
C1368 C 0.06825 0.24439 0.36602 0.0
C1369 C 0.09322 0.26866 0.36155 0.0
C1370 C 0.02112 0.27387 0.38059 0.0
C1371 C 0.06788 0.21754 0.36461 0.0
H1372 H 0.9953 0.18915 0.42567 0.0
H1373 H 0.9537 0.16975 0.36922 0.0
H1374 H 0.06342 0.23328 0.40899 0.0
H1375 H 0.04843 0.25413 0.41494 0.0
H1376 H 0.04097 0.22523 0.43032 0.0
H1377 H 0.97577 0.19412 0.34033 0.0
H1378 H 0.99917 0.23002 0.34502 0.0
H1379 H 0.01333 0.20816 0.3402 0.0
H1380 H 0.07224 0.31503 0.36995 0.0
H1381 H 0.11168 0.26758 0.35773 0.0
H1382 H 0.01744 0.26854 0.39653 0.0
H1383 H 1.00179 0.2593 0.37249 0.0
H1384 H 0.02456 0.29485 0.37862 0.0
H1385 H 0.06967 0.21077 0.37968 0.0
H1386 H 0.08557 0.21932 0.35553 0.0
H1387 H 0.04785 0.20146 0.35809 0.0
C1388 C 0.82141 0.80427 0.40997 0.0
C1389 C 0.83776 0.79702 0.39814 0.0
C1390 C 0.79869 0.80608 0.40208 0.0
C1391 C 0.7922 0.80108 0.38167 0.0
C1392 C 0.80924 0.79486 0.36944 0.0
C1393 C 0.8317 0.79283 0.37779 0.0
C1394 C 0.78116 0.81273 0.41576 0.0
C1395 C 0.80357 0.7901 0.34754 0.0
C1396 C 0.71624 0.7784 0.36762 0.0
C1397 C 0.71809 0.80303 0.36172 0.0
C1398 C 0.74027 0.77733 0.37352 0.0
C1399 C 0.76698 0.80147 0.37347 0.0
C1400 C 0.76903 0.82629 0.36703 0.0
C1401 C 0.74457 0.82685 0.36165 0.0
C1402 C 0.73691 0.75047 0.38049 0.0
C1403 C 0.79694 0.8525 0.36639 0.0
H1404 H 0.82622 0.80835 0.42558 0.0
H1405 H 0.84399 0.78717 0.36844 0.0
H1406 H 0.78097 0.83123 0.41048 0.0
H1407 H 0.75908 0.79567 0.41571 0.0
H1408 H 0.78906 0.81632 0.43124 0.0
H1409 H 0.81767 0.78399 0.34019 0.0
H1410 H 0.78146 0.77399 0.34489 0.0
H1411 H 0.8066 0.80912 0.34051 0.0
H1412 H 0.6958 0.76001 0.36806 0.0
H1413 H 0.74623 0.84615 0.35778 0.0
H1414 H 0.74273 0.75208 0.39636 0.0
H1415 H 0.75126 0.74561 0.37217 0.0
H1416 H 0.71505 0.7333 0.37866 0.0
H1417 H 0.80472 0.8592 0.38168 0.0
H1418 H 0.79545 0.86921 0.35885 0.0
H1419 H 0.81276 0.84921 0.35858 0.0
C1420 C 0.1934 0.02991 0.39372 0.0
C1421 C 0.21963 0.04975 0.40107 0.0
C1422 C 0.18948 0.0052 0.38593 0.0
C1423 C 0.2124 0.00038 0.38542 0.0
C1424 C 0.23913 0.0207 0.39227 0.0
C1425 C 0.2424 0.04513 0.40006 0.0
C1426 C 0.16066 0.98394 0.37877 0.0
C1427 C 0.26412 0.01639 0.39176 0.0
C1428 C 0.1967 0.92692 0.38512 0.0
C1429 C 0.19976 0.92288 0.36502 0.0
C1430 C 0.20074 0.95209 0.39195 0.0
C1431 C 0.20821 0.97371 0.37836 0.0
C1432 C 0.21178 0.96984 0.35811 0.0
C1433 C 0.20757 0.94445 0.35171 0.0
C1434 C 0.1967 0.95543 0.41367 0.0
C1435 C 0.22002 0.9925 0.34321 0.0
H1436 H 0.17572 0.03336 0.39464 0.0
H1437 H 0.2628 0.06062 0.4055 0.0
H1438 H 0.16182 0.978 0.36329 0.0
H1439 H 0.15266 0.96525 0.38796 0.0
H1440 H 0.14534 0.99131 0.37944 0.0
H1441 H 0.28374 0.03473 0.39681 0.0
H1442 H 0.26013 0.99892 0.4014 0.0
H1443 H 0.26738 0.01119 0.37652 0.0
H1444 H 0.19055 0.9102 0.39544 0.0
H1445 H 0.21087 0.94166 0.33633 0.0
H1446 H 0.17989 0.96068 0.41555 0.0
H1447 H 0.21625 0.97254 0.41999 0.0
H1448 H 0.19098 0.93663 0.42229 0.0
H1449 H 0.20425 0.99929 0.34311 0.0
H1450 H 0.22178 0.98607 0.32798 0.0
H1451 H 0.24047 0.01042 0.34743 0.0
C1452 C 0.49604 0.64404 0.30048 0.0
C1453 C 0.5022 0.62471 0.29248 0.0
C1454 C 0.51754 0.66928 0.30772 0.0
C1455 C 0.54582 0.67519 0.30712 0.0
C1456 C 0.55201 0.65539 0.2996 0.0
C1457 C 0.53017 0.63048 0.29233 0.0
C1458 C 0.5101 0.68989 0.31557 0.0
C1459 C 0.58179 0.66067 0.29896 0.0
C1460 C 0.605 0.74944 0.30741 0.0
C1461 C 0.61323 0.75326 0.32733 0.0
C1462 C 0.58295 0.72421 0.30066 0.0
C1463 C 0.56903 0.7022 0.31411 0.0
C1464 C 0.57766 0.70587 0.33417 0.0
C1465 C 0.59967 0.73132 0.34049 0.0
C1466 C 0.57434 0.7212 0.27917 0.0
C1467 C 0.56373 0.68289 0.34895 0.0
H1468 H 0.47449 0.63977 0.30048 0.0
H1469 H 0.535 0.61546 0.28638 0.0
H1470 H 0.51796 0.69577 0.33094 0.0
H1471 H 0.52047 0.70874 0.30648 0.0
H1472 H 0.48708 0.68195 0.31546 0.0
H1473 H 0.58296 0.64279 0.29329 0.0
H1474 H 0.59477 0.67848 0.28932 0.0
H1475 H 0.59122 0.6658 0.31398 0.0
H1476 H 0.61538 0.7664 0.29719 0.0
H1477 H 0.60657 0.73388 0.35571 0.0
H1478 H 0.55189 0.71539 0.27801 0.0
H1479 H 0.57655 0.70457 0.27221 0.0
H1480 H 0.58711 0.74032 0.27065 0.0
H1481 H 0.5409 0.67563 0.34967 0.0
H1482 H 0.57276 0.68917 0.36404 0.0
H1483 H 0.56605 0.66532 0.34415 0.0
C1484 C 0.37859 0.88385 0.31669 0.0
C1485 C 0.38025 0.87972 0.29633 0.0
C1486 C 0.35413 0.88194 0.32509 0.0
C1487 C 0.33067 0.87582 0.3129 0.0
C1488 C 0.33196 0.87095 0.29246 0.0
C1489 C 0.35649 0.87275 0.28451 0.0
C1490 C 0.35345 0.88667 0.34701 0.0
C1491 C 0.30753 0.8643 0.27884 0.0
C1492 C 0.25658 0.84987 0.3329 0.0
C1493 C 0.25438 0.87358 0.3326 0.0
C1494 C 0.28171 0.85054 0.32765 0.0
C1495 C 0.30507 0.87538 0.32117 0.0
C1496 C 0.30306 0.89946 0.32106 0.0
C1497 C 0.27781 0.89826 0.32677 0.0
C1498 C 0.28275 0.82435 0.3283 0.0
C1499 C 0.32724 0.92636 0.31416 0.0
H1500 H 0.39668 0.88931 0.32603 0.0
H1501 H 0.35706 0.86875 0.26888 0.0
H1502 H 0.34835 0.9031 0.34967 0.0
H1503 H 0.33665 0.86781 0.35403 0.0
H1504 H 0.37372 0.89236 0.35438 0.0
H1505 H 0.31168 0.86078 0.26334 0.0
H1506 H 0.28841 0.84575 0.28413 0.0
H1507 H 0.30291 0.88132 0.27897 0.0
H1508 H 0.23847 0.83055 0.33676 0.0
H1509 H 0.27613 0.91658 0.3262 0.0
H1510 H 0.30241 0.82781 0.33551 0.0
H1511 H 0.2826 0.81717 0.31299 0.0
H1512 H 0.26458 0.80791 0.33641 0.0
H1513 H 0.34665 0.93114 0.32239 0.0
H1514 H 0.32306 0.94354 0.31614 0.0
H1515 H 0.33129 0.92489 0.29824 0.0
C1516 C 0.16307 0.51486 0.29797 0.0
C1517 C 0.13653 0.51001 0.29204 0.0
C1518 C 0.16634 0.49408 0.30668 0.0
C1519 C 0.1424 0.46802 0.30974 0.0
C1520 C 0.11544 0.46333 0.3044 0.0
C1521 C 0.11285 0.48435 0.29546 0.0
C1522 C 0.19546 0.4997 0.31196 0.0
C1523 C 0.0894 0.43593 0.30771 0.0
C1524 C 0.15181 0.40601 0.31153 0.0
C1525 C 0.15158 0.40155 0.33194 0.0
C1526 C 0.14911 0.42775 0.30413 0.0
C1527 C 0.14571 0.4452 0.31749 0.0
C1528 C 0.14527 0.44068 0.33812 0.0
C1529 C 0.14837 0.41894 0.34508 0.0
C1530 C 0.15013 0.43214 0.28203 0.0
C1531 C 0.14129 0.45863 0.3528 0.0
H1532 H 0.1814 0.53466 0.29518 0.0
H1533 H 0.09229 0.48073 0.29104 0.0
H1534 H 0.19626 0.4946 0.32771 0.0
H1535 H 0.20077 0.4865 0.30291 0.0
H1536 H 0.21171 0.52138 0.30945 0.0
H1537 H 0.06986 0.43621 0.30398 0.0
H1538 H 0.09034 0.42016 0.29845 0.0
H1539 H 0.08827 0.42962 0.32338 0.0
H1540 H 0.1547 0.39283 0.3013 0.0
H1541 H 0.14768 0.41525 0.36078 0.0
H1542 H 0.16739 0.45297 0.27833 0.0
H1543 H 0.13024 0.43067 0.27691 0.0
H1544 H 0.15342 0.417 0.2737 0.0
H1545 H 0.15797 0.48026 0.35087 0.0
H1546 H 0.14179 0.45255 0.36836 0.0
H1547 H 0.12087 0.45759 0.35007 0.0
C1548 C 0.35724 0.49665 0.3146 0.0
C1549 C 0.35697 0.50157 0.29428 0.0
C1550 C 0.33381 0.47473 0.32382 0.0
C1551 C 0.30966 0.45738 0.31242 0.0
C1552 C 0.30917 0.46276 0.292 0.0
C1553 C 0.33278 0.48474 0.28323 0.0
C1554 C 0.33496 0.46992 0.34567 0.0
C1555 C 0.28393 0.44486 0.27925 0.0
C1556 C 0.25971 0.38309 0.3255 0.0
C1557 C 0.23587 0.38389 0.33181 0.0
C1558 C 0.28448 0.40711 0.32032 0.0
C1559 C 0.28539 0.43262 0.32131 0.0
C1560 C 0.26174 0.43365 0.32854 0.0
C1561 C 0.23713 0.40923 0.33343 0.0
C1562 C 0.30916 0.40499 0.31276 0.0
C1563 C 0.26179 0.46032 0.33013 0.0
H1564 H 0.37583 0.50967 0.32326 0.0
H1565 H 0.33248 0.48853 0.26752 0.0
H1566 H 0.31791 0.4713 0.3534 0.0
H1567 H 0.33145 0.44903 0.34819 0.0
H1568 H 0.35538 0.48494 0.35241 0.0
H1569 H 0.28653 0.45234 0.26377 0.0
H1570 H 0.28031 0.42369 0.27902 0.0
H1571 H 0.26484 0.44393 0.28555 0.0
H1572 H 0.25869 0.36348 0.32409 0.0
H1573 H 0.21863 0.40998 0.33789 0.0
H1574 H 0.32868 0.41981 0.32056 0.0
H1575 H 0.31224 0.41018 0.29678 0.0
H1576 H 0.3061 0.38414 0.31468 0.0
H1577 H 0.28169 0.47637 0.33684 0.0
H1578 H 0.24392 0.45826 0.33914 0.0
H1579 H 0.2602 0.46734 0.31511 0.0
C1580 C 0.52352 0.8529 0.28455 0.0
C1581 C 0.50664 0.85922 0.29647 0.0
C1582 C 0.54636 0.85134 0.29244 0.0
C1583 C 0.55262 0.85607 0.3129 0.0
C1584 C 0.53531 0.86197 0.32513 0.0
C1585 C 0.51256 0.86356 0.31678 0.0
C1586 C 0.56419 0.8452 0.27871 0.0
C1587 C 0.54095 0.86679 0.34702 0.0
C1588 C 0.60171 0.83117 0.33159 0.0
C1589 C 0.62795 0.8552 0.33092 0.0
C1590 C 0.57678 0.83141 0.32703 0.0
C1591 C 0.57814 0.85611 0.32099 0.0
C1592 C 0.60461 0.88049 0.32065 0.0
C1593 C 0.62909 0.87971 0.32558 0.0
C1594 C 0.54912 0.80499 0.328 0.0
C1595 C 0.60728 0.90727 0.31419 0.0
H1596 H 0.51907 0.84952 0.26884 0.0
H1597 H 0.49958 0.86836 0.32612 0.0
H1598 H 0.5861 0.86256 0.27875 0.0
H1599 H 0.56483 0.8269 0.28395 0.0
H1600 H 0.55624 0.84149 0.26325 0.0
H1601 H 0.52553 0.87095 0.35459 0.0
H1602 H 0.54013 0.84859 0.35388 0.0
H1603 H 0.56235 0.88436 0.34954 0.0
H1604 H 0.6007 0.81203 0.3353 0.0
H1605 H 0.64936 0.89829 0.32484 0.0
H1606 H 0.5411 0.79805 0.31278 0.0
H1607 H 0.53327 0.80807 0.33596 0.0
H1608 H 0.55113 0.78857 0.33554 0.0
H1609 H 0.6015 0.90599 0.29833 0.0
H1610 H 0.62896 0.92472 0.31618 0.0
H1611 H 0.59261 0.91149 0.32269 0.0
C1612 C 0.15271 0.65162 0.30436 0.0
C1613 C 0.16476 0.65329 0.28576 0.0
C1614 C 0.15327 0.67457 0.31284 0.0
C1615 C 0.16654 0.69977 0.30259 0.0
C1616 C 0.17903 0.70161 0.28392 0.0
C1617 C 0.17774 0.67822 0.27564 0.0
C1618 C 0.13942 0.67179 0.33267 0.0
C1619 C 0.1938 0.72828 0.27272 0.0
C1620 C 0.1481 0.75449 0.31517 0.0
C1621 C 0.17024 0.77148 0.32782 0.0
C1622 C 0.14638 0.73079 0.30707 0.0
C1623 C 0.16758 0.72431 0.31148 0.0
C1624 C 0.18999 0.74144 0.32423 0.0
C1625 C 0.19095 0.76471 0.33232 0.0
C1626 C 0.12194 0.71274 0.29376 0.0
C1627 C 0.21323 0.73548 0.32907 0.0
H1628 H 0.1424 0.63228 0.31215 0.0
H1629 H 0.187 0.67943 0.26124 0.0
H1630 H 0.15509 0.68595 0.34354 0.0
H1631 H 0.12294 0.67758 0.33131 0.0
H1632 H 0.12968 0.65066 0.33859 0.0
H1633 H 0.20288 0.72635 0.25853 0.0
H1634 H 0.17888 0.73561 0.2695 0.0
H1635 H 0.21095 0.74414 0.28193 0.0
H1636 H 0.13205 0.7596 0.31165 0.0
H1637 H 0.20836 0.77793 0.34187 0.0
H1638 H 0.11074 0.69157 0.29963 0.0
H1639 H 0.1297 0.71183 0.27879 0.0
H1640 H 0.10672 0.72016 0.29235 0.0
H1641 H 0.20435 0.71483 0.33568 0.0
H1642 H 0.22888 0.75064 0.33954 0.0
H1643 H 0.22426 0.73558 0.31529 0.0
C1644 C 0.84048 0.00795 0.41311 0.0
C1645 C 0.8515 0.03216 0.40211 0.0
C1646 C 0.81822 0.98333 0.4058 0.0
C1647 C 0.80639 0.98295 0.3871 0.0
C1648 C 0.81743 0.00738 0.3759 0.0
C1649 C 0.83999 0.03171 0.3835 0.0
C1650 C 0.80738 0.95771 0.4181 0.0
C1651 C 0.80524 0.00784 0.35597 0.0
C1652 C 0.76587 0.91433 0.36095 0.0
C1653 C 0.73791 0.90635 0.36563 0.0
C1654 C 0.78825 0.93929 0.36761 0.0
C1655 C 0.78267 0.95687 0.37926 0.0
C1656 C 0.7545 0.949 0.38402 0.0
C1657 C 0.73247 0.92374 0.37727 0.0
C1658 C 0.81792 0.94661 0.36238 0.0
C1659 C 0.74765 0.96725 0.3963 0.0
H1660 H 0.84934 0.00827 0.42752 0.0
H1661 H 0.84829 0.05042 0.375 0.0
H1662 H 0.78484 0.94949 0.42156 0.0
H1663 H 0.80901 0.94173 0.40962 0.0
H1664 H 0.81911 0.96138 0.43222 0.0
H1665 H 0.81609 0.02848 0.34914 0.0
H1666 H 0.80678 0.99325 0.34575 0.0
H1667 H 0.78261 0.00113 0.35754 0.0
H1668 H 0.77039 0.90086 0.35227 0.0
H1669 H 0.711 0.91777 0.38097 0.0
H1670 H 0.83007 0.94904 0.3761 0.0
H1671 H 0.82857 0.96645 0.35447 0.0
H1672 H 0.81863 0.93087 0.35291 0.0
H1673 H 0.75723 0.97019 0.41121 0.0
H1674 H 0.72466 0.9587 0.39804 0.0
H1675 H 0.75675 0.98772 0.38935 0.0
C1676 C 0.98528 0.81069 0.37699 0.0
C1677 C 0.9838 0.81421 0.39744 0.0
C1678 C 0.0098 0.81296 0.36834 0.0
C1679 C 0.03333 0.81876 0.38041 0.0
C1680 C 0.03195 0.82278 0.40099 0.0
C1681 C 0.00735 0.8205 0.40917 0.0
C1682 C 0.01045 0.80885 0.34635 0.0
C1683 C 0.0563 0.82889 0.41453 0.0
C1684 C 0.08587 0.79585 0.36714 0.0
C1685 C 0.10982 0.82054 0.36201 0.0
C1686 C 0.06046 0.79478 0.37206 0.0
C1687 C 0.05884 0.81907 0.37204 0.0
C1688 C 0.08275 0.84395 0.36615 0.0
C1689 C 0.10804 0.84446 0.36149 0.0
C1690 C 0.03572 0.76779 0.37826 0.0
C1691 C 0.08206 0.87029 0.36555 0.0
H1692 H 0.96725 0.80593 0.36778 0.0
H1693 H 0.00639 0.82329 0.42498 0.0
H1694 H 0.02841 0.82717 0.33967 0.0
H1695 H 0.01363 0.79125 0.34342 0.0
H1696 H 0.99079 0.80506 0.3389 0.0
H1697 H 0.05227 0.83232 0.43009 0.0
H1698 H 0.0605 0.81162 0.41422 0.0
H1699 H 0.07559 0.84733 0.40933 0.0
H1700 H 0.08723 0.77736 0.36774 0.0
H1701 H 0.12662 0.86372 0.35793 0.0
H1702 H 0.01665 0.76374 0.3699 0.0
H1703 H 0.03133 0.76859 0.39419 0.0
H1704 H 0.03954 0.75044 0.37586 0.0
H1705 H 0.06282 0.86721 0.3579 0.0
H1706 H 0.10071 0.88682 0.3579 0.0
H1707 H 0.08154 0.87709 0.38088 0.0
C1708 C 0.20259 0.17582 0.38458 0.0
C1709 C 0.19083 0.16549 0.40319 0.0
C1710 C 0.20038 0.19728 0.37599 0.0
C1711 C 0.18576 0.2083 0.38615 0.0
C1712 C 0.17336 0.19751 0.40476 0.0
C1713 C 0.17628 0.17636 0.41313 0.0
C1714 C 0.21414 0.20854 0.35624 0.0
C1715 C 0.15725 0.20846 0.4159 0.0
C1716 C 0.20126 0.28046 0.37553 0.0
C1717 C 0.17876 0.27563 0.36316 0.0
C1718 C 0.2042 0.25873 0.38269 0.0
C1719 C 0.18391 0.23155 0.37759 0.0
C1720 C 0.16134 0.22658 0.36491 0.0
C1721 C 0.15914 0.2487 0.35775 0.0
C1722 C 0.22878 0.26483 0.39597 0.0
C1723 C 0.13906 0.19789 0.35934 0.0
H1724 H 0.21404 0.16758 0.37692 0.0
H1725 H 0.1672 0.16831 0.42752 0.0
H1726 H 0.19836 0.20733 0.34543 0.0
H1727 H 0.23027 0.23044 0.35784 0.0
H1728 H 0.22433 0.19738 0.3501 0.0
H1729 H 0.14789 0.19703 0.4298 0.0
H1730 H 0.17139 0.23031 0.41965 0.0
H1731 H 0.14017 0.20733 0.40645 0.0
H1732 H 0.21656 0.30123 0.37968 0.0
H1733 H 0.14152 0.24477 0.34835 0.0
H1734 H 0.24049 0.25513 0.38995 0.0
H1735 H 0.22108 0.25603 0.41086 0.0
H1736 H 0.24354 0.28712 0.39761 0.0
H1737 H 0.14887 0.18663 0.35286 0.0
H1738 H 0.12365 0.19763 0.34856 0.0
H1739 H 0.12757 0.18665 0.37281 0.0
C1740 C 0.63803 0.514 0.71137 0.0
C1741 C 0.63726 0.50892 0.73176 0.0
C1742 C 0.66177 0.53613 0.70263 0.0
C1743 C 0.68533 0.55347 0.71452 0.0
C1744 C 0.68491 0.54792 0.73498 0.0
C1745 C 0.66099 0.52578 0.7433 0.0
C1746 C 0.66157 0.54116 0.68073 0.0
C1747 C 0.70961 0.56565 0.74822 0.0
C1748 C 0.75897 0.60098 0.69519 0.0
C1749 C 0.76069 0.62654 0.69663 0.0
C1750 C 0.73389 0.57673 0.69948 0.0
C1751 C 0.71014 0.57812 0.70601 0.0
C1752 C 0.71151 0.60384 0.70682 0.0
C1753 C 0.7368 0.62772 0.70224 0.0
C1754 C 0.73349 0.54986 0.69816 0.0
C1755 C 0.68672 0.60632 0.71361 0.0
H1756 H 0.61981 0.50109 0.70235 0.0
H1757 H 0.66085 0.52165 0.75898 0.0
H1758 H 0.66509 0.56203 0.67816 0.0
H1759 H 0.679 0.53994 0.67346 0.0
H1760 H 0.64149 0.52614 0.67357 0.0
H1761 H 0.7062 0.55822 0.76374 0.0
H1762 H 0.72885 0.56627 0.74253 0.0
H1763 H 0.71353 0.58692 0.74818 0.0
H1764 H 0.77745 0.59985 0.69147 0.0
H1765 H 0.73818 0.64749 0.70359 0.0
H1766 H 0.71346 0.53374 0.69167 0.0
H1767 H 0.7353 0.54318 0.71326 0.0
H1768 H 0.75116 0.55158 0.6891 0.0
H1769 H 0.66745 0.5916 0.70551 0.0
H1770 H 0.69014 0.62726 0.71141 0.0
H1771 H 0.68295 0.60124 0.72959 0.0
C1772 C 0.50086 0.12669 0.71158 0.0
C1773 C 0.50725 0.13155 0.73184 0.0
C1774 C 0.47801 0.12804 0.70327 0.0
C1775 C 0.461 0.13437 0.71545 0.0
C1776 C 0.46783 0.14006 0.73576 0.0
C1777 C 0.49089 0.13883 0.74361 0.0
C1778 C 0.47206 0.12264 0.68145 0.0
C1779 C 0.45036 0.14687 0.74937 0.0
C1780 C 0.41283 0.15915 0.69499 0.0
C1781 C 0.38641 0.13527 0.6954 0.0
C1782 C 0.43742 0.1589 0.70043 0.0
C1783 C 0.43557 0.13435 0.70727 0.0
C1784 C 0.40893 0.11014 0.70771 0.0
C1785 C 0.38475 0.11089 0.70175 0.0
C1786 C 0.46526 0.18516 0.69937 0.0
C1787 C 0.40584 0.08355 0.71506 0.0
H1788 H 0.51321 0.12103 0.70229 0.0
H1789 H 0.49594 0.14335 0.75916 0.0
H1790 H 0.44954 0.10763 0.67887 0.0
H1791 H 0.47674 0.14194 0.67399 0.0
H1792 H 0.485 0.11485 0.67446 0.0
H1793 H 0.45853 0.15098 0.76478 0.0
H1794 H 0.44986 0.1651 0.74382 0.0
H1795 H 0.42836 0.12967 0.7496 0.0
H1796 H 0.41437 0.17828 0.69075 0.0
H1797 H 0.36436 0.09246 0.70243 0.0
H1798 H 0.48089 0.18176 0.69141 0.0
H1799 H 0.47342 0.19218 0.71454 0.0
H1800 H 0.46352 0.20169 0.69175 0.0
H1801 H 0.42003 0.07851 0.70669 0.0
H1802 H 0.38397 0.06628 0.71361 0.0
H1803 H 0.4121 0.08567 0.73087 0.0
C1804 C 0.90544 0.37834 0.73331 0.0
C1805 C 0.88184 0.38127 0.73611 0.0
C1806 C 0.90287 0.35462 0.72466 0.0
C1807 C 0.87598 0.33323 0.71902 0.0
C1808 C 0.85211 0.33628 0.72155 0.0
C1809 C 0.85538 0.36043 0.72995 0.0
C1810 C 0.92885 0.35227 0.72189 0.0
C1811 C 0.82307 0.31373 0.71592 0.0
C1812 C 0.87051 0.27867 0.68353 0.0
C1813 C 0.86648 0.25781 0.69657 0.0
C1814 C 0.87375 0.30344 0.6906 0.0
C1815 C 0.87269 0.30722 0.71122 0.0
C1816 C 0.86867 0.28619 0.72448 0.0
C1817 C 0.86581 0.26178 0.71698 0.0
C1818 C 0.87846 0.32557 0.67602 0.0
C1819 C 0.86706 0.28932 0.74657 0.0
H1820 H 0.92594 0.39464 0.73792 0.0
H1821 H 0.83712 0.36269 0.73227 0.0
H1822 H 0.92734 0.33535 0.73111 0.0
H1823 H 0.93053 0.34728 0.70624 0.0
H1824 H 0.94836 0.37138 0.726 0.0
H1825 H 0.80682 0.31966 0.71831 0.0
H1826 H 0.82261 0.30808 0.70015 0.0
H1827 H 0.81747 0.29521 0.72484 0.0
H1828 H 0.87169 0.27588 0.66785 0.0
H1829 H 0.86238 0.24552 0.7271 0.0
H1830 H 0.89881 0.34429 0.67917 0.0
H1831 H 0.86178 0.33104 0.67762 0.0
H1832 H 0.87857 0.31928 0.66045 0.0
H1833 H 0.88683 0.30709 0.75198 0.0
H1834 H 0.86347 0.27085 0.75482 0.0
H1835 H 0.84975 0.29339 0.75004 0.0
C1836 C 0.17986 0.95968 0.64462 0.0
C1837 C 0.16781 0.95824 0.62606 0.0
C1838 C 0.20188 0.98462 0.65188 0.0
C1839 C 0.21168 0.00872 0.64044 0.0
C1840 C 0.19893 0.00744 0.62194 0.0
C1841 C 0.17735 0.9822 0.61491 0.0
C1842 C 0.21513 0.98507 0.67155 0.0
C1843 C 0.20826 0.0327 0.60947 0.0
C1844 C 0.25223 0.07795 0.66584 0.0
C1845 C 0.28002 0.08651 0.66027 0.0
C1846 C 0.22987 0.05268 0.65962 0.0
C1847 C 0.23536 0.03529 0.64766 0.0
C1848 C 0.26341 0.04372 0.64209 0.0
C1849 C 0.28539 0.06935 0.64832 0.0
C1850 C 0.20031 0.04481 0.66563 0.0
C1851 C 0.2702 0.02563 0.62956 0.0
H1852 H 0.17269 0.94112 0.65316 0.0
H1853 H 0.16793 0.98112 0.6006 0.0
H1854 H 0.23772 0.99193 0.66943 0.0
H1855 H 0.21392 0.99992 0.68168 0.0
H1856 H 0.20485 0.96469 0.67877 0.0
H1857 H 0.19544 0.02842 0.59582 0.0
H1858 H 0.20682 0.04864 0.61816 0.0
H1859 H 0.23057 0.04127 0.60515 0.0
H1860 H 0.24781 0.09125 0.67483 0.0
H1861 H 0.30681 0.07579 0.64403 0.0
H1862 H 0.19047 0.02515 0.67376 0.0
H1863 H 0.18736 0.0418 0.65224 0.0
H1864 H 0.19967 0.06054 0.67516 0.0
H1865 H 0.26196 0.00537 0.63671 0.0
H1866 H 0.29314 0.03465 0.62718 0.0
H1867 H 0.25976 0.02212 0.61493 0.0
C1868 C 0.02386 0.20144 0.61758 0.0
C1869 C 0.04778 0.20915 0.62937 0.0
C1870 C 0.99919 0.19938 0.62547 0.0
C1871 C 0.99797 0.20484 0.6458 0.0
C1872 C 0.02157 0.21152 0.658 0.0
C1873 C 0.04614 0.21361 0.64967 0.0
C1874 C 0.97463 0.19209 0.61183 0.0
C1875 C 0.02102 0.21689 0.6798 0.0
C1876 C 0.94591 0.22888 0.65782 0.0
C1877 C 0.92207 0.20464 0.66381 0.0
C1878 C 0.97108 0.22947 0.65285 0.0
C1879 C 0.97259 0.20514 0.65378 0.0
C1880 C 0.94884 0.18076 0.66051 0.0
C1881 C 0.92379 0.18071 0.66508 0.0
C1882 C 0.9957 0.25593 0.64573 0.0
C1883 C 0.94938 0.15439 0.66211 0.0
H1884 H 0.02449 0.19724 0.60199 0.0
H1885 H 0.06438 0.21959 0.65898 0.0
H1886 H 0.95549 0.17397 0.61757 0.0
H1887 H 0.97025 0.20925 0.61129 0.0
H1888 H 0.97854 0.18762 0.59652 0.0
H1889 H 0.04115 0.22226 0.68728 0.0
H1890 H 0.01657 0.23383 0.68206 0.0
H1891 H 1.00388 0.19845 0.68699 0.0
H1892 H 0.94462 0.24736 0.65654 0.0
H1893 H 0.90537 0.1617 0.66906 0.0
H1894 H 0.99994 0.25384 0.62995 0.0
H1895 H 0.01488 0.26068 0.65425 0.0
H1896 H 0.99188 0.27341 0.64713 0.0
H1897 H 0.94889 0.14627 0.64706 0.0
H1898 H 0.93114 0.13861 0.67057 0.0
H1899 H 0.969 0.15791 0.66941 0.0
C1900 C 0.79635 0.83547 0.64407 0.0
C1901 C 0.80915 0.84531 0.62567 0.0
C1902 C 0.7979 0.8141 0.65349 0.0
C1903 C 0.81284 0.80267 0.64431 0.0
C1904 C 0.82654 0.81319 0.62603 0.0
C1905 C 0.82441 0.83431 0.61689 0.0
C1906 C 0.78292 0.80325 0.67293 0.0
C1907 C 0.84302 0.80179 0.61592 0.0
C1908 C 0.83766 0.76126 0.67319 0.0
C1909 C 0.81833 0.73455 0.6671 0.0
C1910 C 0.83557 0.78361 0.66645 0.0
C1911 C 0.81356 0.77912 0.65337 0.0
C1912 C 0.79341 0.75213 0.64772 0.0
C1913 C 0.79613 0.73015 0.65458 0.0
C1914 C 0.85764 0.81208 0.67266 0.0
C1915 C 0.76948 0.74655 0.63393 0.0
H1916 H 0.78441 0.8439 0.65078 0.0
H1917 H 0.83459 0.84218 0.60275 0.0
H1918 H 0.76615 0.78161 0.6711 0.0
H1919 H 0.79776 0.80366 0.68424 0.0
H1920 H 0.77328 0.81517 0.67853 0.0
H1921 H 0.85345 0.8131 0.60218 0.0
H1922 H 0.85929 0.80264 0.62609 0.0
H1923 H 0.82881 0.78 0.61205 0.0
H1924 H 0.85506 0.76488 0.68271 0.0
H1925 H 0.78103 0.70955 0.64992 0.0
H1926 H 0.84763 0.82364 0.67826 0.0
H1927 H 0.87057 0.8233 0.65966 0.0
H1928 H 0.8718 0.81187 0.68433 0.0
H1929 H 0.75801 0.75675 0.63945 0.0
H1930 H 0.75435 0.72434 0.63227 0.0
H1931 H 0.7779 0.75513 0.6191 0.0
C1932 C 0.02554 0.82658 0.65017 0.0
C1933 C 0.02559 0.83168 0.62985 0.0
C1934 C 1.00184 0.80472 0.65922 0.0
C1935 C 0.97778 0.78764 0.64765 0.0
C1936 C 0.9777 0.79313 0.62721 0.0
C1937 C 1.00154 0.81503 0.61862 0.0
C1938 C 1.00256 0.7998 0.68109 0.0
C1939 C 0.95258 0.77551 0.61428 0.0
C1940 C 0.92584 0.71363 0.66012 0.0
C1941 C 0.9022 0.71513 0.6659 0.0
C1942 C 0.95125 0.73733 0.65546 0.0
C1943 C 0.95299 0.76321 0.6564 0.0
C1944 C 0.92953 0.76492 0.66317 0.0
C1945 C 0.9043 0.74084 0.66752 0.0
C1946 C 0.9757 0.73447 0.64838 0.0
C1947 C 0.93041 0.792 0.66471 0.0
H1948 H 0.04403 0.83947 0.65896 0.0
H1949 H 1.0015 0.81896 0.60292 0.0
H1950 H 0.98604 0.80219 0.6887 0.0
H1951 H 0.99794 0.77857 0.68372 0.0
H1952 H 0.0232 0.81418 0.68788 0.0
H1953 H 0.95564 0.7829 0.59875 0.0
H1954 H 0.94847 0.75417 0.61423 0.0
H1955 H 0.93359 0.7751 0.62027 0.0
H1956 H 0.92417 0.69374 0.65865 0.0
H1957 H 0.88599 0.7422 0.67143 0.0
H1958 H 0.9952 0.74905 0.65632 0.0
H1959 H 0.97923 0.7395 0.63239 0.0
H1960 H 0.97205 0.71344 0.65052 0.0
H1961 H 0.95032 0.80763 0.67165 0.0
H1962 H 0.91253 0.79038 0.67347 0.0
H1963 H 0.92943 0.79929 0.64965 0.0
C1964 C 0.19257 0.18506 0.61739 0.0
C1965 C 0.17568 0.19137 0.62929 0.0
C1966 C 0.21552 0.1837 0.62527 0.0
C1967 C 0.22188 0.18865 0.6457 0.0
C1968 C 0.20459 0.19459 0.65792 0.0
C1969 C 0.18171 0.19594 0.64958 0.0
C1970 C 0.23331 0.17745 0.61157 0.0
C1971 C 0.21035 0.19963 0.67978 0.0
C1972 C 0.27082 0.16362 0.66427 0.0
C1973 C 0.29714 0.18752 0.66334 0.0
C1974 C 0.24593 0.16398 0.6599 0.0
C1975 C 0.24738 0.18869 0.6538 0.0
C1976 C 0.27392 0.21299 0.65328 0.0
C1977 C 0.2984 0.21207 0.658 0.0
C1978 C 0.21821 0.13763 0.66103 0.0
C1979 C 0.27667 0.23977 0.64676 0.0
H1980 H 0.18803 0.1815 0.6017 0.0
H1981 H 0.16872 0.20073 0.65891 0.0
H1982 H 0.25522 0.19481 0.61155 0.0
H1983 H 0.23394 0.15919 0.61688 0.0
H1984 H 0.22531 0.17365 0.59612 0.0
H1985 H 0.19525 0.20431 0.68727 0.0
H1986 H 0.20907 0.1813 0.68679 0.0
H1987 H 0.23195 0.21691 0.68224 0.0
H1988 H 0.26967 0.14444 0.6679 0.0
H1989 H 0.31873 0.23054 0.65703 0.0
H1990 H 0.21005 0.13057 0.64586 0.0
H1991 H 0.20248 0.14085 0.66903 0.0
H1992 H 0.2202 0.12121 0.66861 0.0
H1993 H 0.27093 0.23847 0.63089 0.0
H1994 H 0.29835 0.25719 0.64876 0.0
H1995 H 0.26199 0.24404 0.65521 0.0
C1996 C 0.81438 0.98299 0.64068 0.0
C1997 C 0.82759 0.98503 0.62252 0.0
C1998 C 0.81534 0.00604 0.64934 0.0
C1999 C 0.83007 0.03161 0.63966 0.0
C2000 C 0.84356 0.03374 0.62138 0.0
C2001 C 0.842 0.01033 0.61297 0.0
C2002 C 0.80054 0.00304 0.66878 0.0
C2003 C 0.85973 0.06075 0.61074 0.0
C2004 C 0.81467 0.08859 0.65107 0.0
C2005 C 0.83703 0.10522 0.66369 0.0
C2006 C 0.81166 0.06409 0.64357 0.0
C2007 C 0.83167 0.0563 0.64868 0.0
C2008 C 0.85401 0.0728 0.66168 0.0
C2009 C 0.85637 0.09702 0.66906 0.0
C2010 C 0.7874 0.04682 0.62989 0.0
C2011 C 0.87595 0.06535 0.66732 0.0
H2012 H 0.80304 0.96338 0.64804 0.0
H2013 H 0.85217 0.01182 0.59891 0.0
H2014 H 0.81586 0.01645 0.68013 0.0
H2015 H 0.78476 0.00968 0.66708 0.0
H2016 H 0.78978 0.98166 0.6743 0.0
H2017 H 0.86924 0.05894 0.59673 0.0
H2018 H 0.84562 0.06897 0.60729 0.0
H2019 H 0.87673 0.07589 0.62043 0.0
H2020 H 0.79961 0.09478 0.64693 0.0
H2021 H 0.87391 0.1099 0.67863 0.0
H2022 H 0.77548 0.02553 0.63546 0.0
H2023 H 0.79549 0.04603 0.61501 0.0
H2024 H 0.77276 0.0549 0.62834 0.0
H2025 H 0.86578 0.04434 0.67343 0.0
H2026 H 0.89109 0.07966 0.67844 0.0
H2027 H 0.88781 0.06563 0.65396 0.0
C2028 C 0.51001 0.36252 0.71724 0.0
C2029 C 0.52156 0.36225 0.73569 0.0
C2030 C 0.48718 0.33859 0.70942 0.0
C2031 C 0.47585 0.31383 0.72023 0.0
C2032 C 0.48768 0.31348 0.73878 0.0
C2033 C 0.51025 0.33772 0.74631 0.0
C2034 C 0.47501 0.33983 0.68966 0.0
C2035 C 0.47652 0.28747 0.75066 0.0
C2036 C 0.40155 0.25558 0.70991 0.0
C2037 C 0.40668 0.23831 0.69787 0.0
C2038 C 0.42381 0.2805 0.71697 0.0
C2039 C 0.45189 0.28814 0.7121 0.0
C2040 C 0.45715 0.27073 0.69999 0.0
C2041 C 0.43455 0.24613 0.69305 0.0
C2042 C 0.41731 0.29859 0.72973 0.0
C2043 C 0.4867 0.27784 0.6946 0.0
H2044 H 0.51852 0.38147 0.70902 0.0
H2045 H 0.51912 0.33749 0.7606 0.0
H2046 H 0.47632 0.32545 0.6791 0.0
H2047 H 0.45245 0.33332 0.69137 0.0
H2048 H 0.48605 0.36067 0.68317 0.0
H2049 H 0.48823 0.29058 0.76473 0.0
H2050 H 0.45403 0.27942 0.75419 0.0
H2051 H 0.47788 0.2716 0.74183 0.0
H2052 H 0.38015 0.24974 0.71374 0.0
H2053 H 0.43887 0.23276 0.68406 0.0
H2054 H 0.4267 0.31931 0.72316 0.0
H2055 H 0.42681 0.30088 0.7446 0.0
H2056 H 0.39436 0.29028 0.73151 0.0
H2057 H 0.49766 0.29799 0.68713 0.0
H2058 H 0.48715 0.26235 0.68468 0.0
H2059 H 0.49873 0.27948 0.70823 0.0
C2060 C 0.67799 0.15847 0.74311 0.0
C2061 C 0.65409 0.151 0.73145 0.0
C2062 C 0.70267 0.16085 0.735 0.0
C2063 C 0.70372 0.15563 0.71459 0.0
C2064 C 0.67981 0.1486 0.7026 0.0
C2065 C 0.65528 0.14639 0.71115 0.0
C2066 C 0.72745 0.16832 0.74846 0.0
C2067 C 0.68008 0.14328 0.68077 0.0
C2068 C 0.77811 0.18106 0.69507 0.0
C2069 C 0.78038 0.15746 0.69657 0.0
C2070 C 0.75275 0.18045 0.69964 0.0
C2071 C 0.72927 0.15584 0.70641 0.0
C2072 C 0.73137 0.13184 0.70742 0.0
C2073 C 0.75684 0.133 0.70259 0.0
C2074 C 0.75151 0.20646 0.69798 0.0
C2075 C 0.70703 0.10511 0.71445 0.0
H2076 H 0.67725 0.16212 0.7588 0.0
H2077 H 0.63698 0.14074 0.70199 0.0
H2078 H 0.732 0.15126 0.74892 0.0
H2079 H 0.74645 0.18651 0.74263 0.0
H2080 H 0.72369 0.17278 0.76381 0.0
H2081 H 0.65929 0.13617 0.67372 0.0
H2082 H 0.6958 0.16236 0.67336 0.0
H2083 H 0.68641 0.12769 0.67824 0.0
H2084 H 0.79634 0.20018 0.69083 0.0
H2085 H 0.75856 0.11476 0.70393 0.0
H2086 H 0.75094 0.21408 0.71302 0.0
H2087 H 0.7321 0.20255 0.69017 0.0
H2088 H 0.76995 0.22271 0.68997 0.0
H2089 H 0.70275 0.10694 0.73026 0.0
H2090 H 0.71121 0.08788 0.71291 0.0
H2091 H 0.68776 0.10015 0.70598 0.0
C2092 C 0.86532 0.50665 0.71963 0.0
C2093 C 0.85375 0.49721 0.73842 0.0
C2094 C 0.86339 0.52794 0.71049 0.0
C2095 C 0.84923 0.53971 0.72029 0.0
C2096 C 0.83695 0.52978 0.73907 0.0
C2097 C 0.83961 0.50879 0.748 0.0
C2098 C 0.87706 0.53828 0.69058 0.0
C2099 C 0.8213 0.54156 0.74982 0.0
C2100 C 0.86645 0.61206 0.70853 0.0
C2101 C 0.84401 0.60745 0.69617 0.0
C2102 C 0.86883 0.59017 0.71601 0.0
C2103 C 0.84802 0.56304 0.71126 0.0
C2104 C 0.8256 0.55828 0.69848 0.0
C2105 C 0.82398 0.58057 0.69098 0.0
C2106 C 0.89332 0.59605 0.72933 0.0
C2107 C 0.80279 0.52966 0.69328 0.0
H2108 H 0.87647 0.49786 0.71224 0.0
H2109 H 0.83066 0.50143 0.76253 0.0
H2110 H 0.86137 0.53716 0.67972 0.0
H2111 H 0.89363 0.56008 0.69182 0.0
H2112 H 0.88668 0.52647 0.68471 0.0
H2113 H 0.81177 0.5306 0.76385 0.0
H2114 H 0.83583 0.56342 0.7533 0.0
H2115 H 0.80442 0.54057 0.74024 0.0
H2116 H 0.88208 0.6328 0.7125 0.0
H2117 H 0.80646 0.57682 0.68154 0.0
H2118 H 0.90446 0.58563 0.72362 0.0
H2119 H 0.88556 0.5879 0.74435 0.0
H2120 H 0.90858 0.61829 0.73058 0.0
H2121 H 0.8121 0.51764 0.68736 0.0
H2122 H 0.78778 0.52952 0.68218 0.0
H2123 H 0.79092 0.51913 0.70683 0.0
C2124 C 0.44745 0.93706 0.2352 0.0
C2125 C 0.44801 0.91295 0.23911 0.0
C2126 C 0.45644 0.95047 0.21688 0.0
C2127 C 0.46608 0.93945 0.20199 0.0
C2128 C 0.46606 0.91475 0.20569 0.0
C2129 C 0.45717 0.90189 0.2242 0.0
C2130 C 0.45634 0.97688 0.21366 0.0
C2131 C 0.47586 0.90213 0.19018 0.0
C2132 C 0.471 0.96604 0.14932 0.0
C2133 C 0.49958 0.98593 0.14803 0.0
C2134 C 0.45987 0.95029 0.16659 0.0
C2135 C 0.47767 0.95463 0.18304 0.0
C2136 C 0.50662 0.97417 0.18163 0.0
C2137 C 0.5172 0.98938 0.16417 0.0
C2138 C 0.42895 0.92947 0.16741 0.0
C2139 C 0.52639 0.97946 0.19876 0.0
H2140 H 0.44067 0.94589 0.24669 0.0
H2141 H 0.45731 0.88306 0.22701 0.0
H2142 H 0.47816 0.99382 0.21137 0.0
H2143 H 0.44423 0.97541 0.20012 0.0
H2144 H 0.44713 0.98216 0.22637 0.0
H2145 H 0.47306 0.88209 0.19493 0.0
H2146 H 0.46413 0.8992 0.17617 0.0
H2147 H 0.49842 0.91608 0.18695 0.0
H2148 H 0.45712 0.96329 0.13705 0.0
H2149 H 0.53941 0.00421 0.16322 0.0
H2150 H 0.41859 0.93561 0.17876 0.0
H2151 H 0.42589 0.90925 0.17184 0.0
H2152 H 0.41831 0.92724 0.15297 0.0
H2153 H 0.51958 0.98665 0.21178 0.0
H2154 H 0.54842 0.99502 0.19518 0.0
H2155 H 0.52581 0.96026 0.2031 0.0
C2156 C 0.07375 0.51492 0.233 0.0
C2157 C 0.10016 0.53862 0.23439 0.0
C2158 C 0.05768 0.50881 0.21564 0.0
C2159 C 0.06836 0.5268 0.19931 0.0
C2160 C 0.09523 0.55051 0.2005 0.0
C2161 C 0.1108 0.55616 0.21806 0.0
C2162 C 0.02903 0.48341 0.21494 0.0
C2163 C 0.10739 0.57005 0.18332 0.0
C2164 C 0.03616 0.50041 0.14865 0.0
C2165 C 0.01801 0.51104 0.14683 0.0
C2166 C 0.05275 0.50542 0.16564 0.0
C2167 C 0.05102 0.5213 0.18119 0.0
C2168 C 0.03269 0.53202 0.17948 0.0
C2169 C 0.01648 0.52682 0.1623 0.0
C2170 C 0.0721 0.49369 0.16695 0.0
C2171 C 0.03029 0.54907 0.19578 0.0
H2172 H 0.06534 0.50147 0.24567 0.0
H2173 H 0.13137 0.57433 0.21902 0.0
H2174 H 0.01267 0.48921 0.21282 0.0
H2175 H 0.02766 0.47046 0.20215 0.0
H2176 H 0.02422 0.47106 0.22866 0.0
H2177 H 0.12896 0.58709 0.18642 0.0
H2178 H 0.10801 0.55899 0.16992 0.0
H2179 H 0.09379 0.57884 0.17984 0.0
H2180 H 0.03719 0.4879 0.13686 0.0
H2181 H 1.00284 0.53546 0.16086 0.0
H2182 H 0.06639 0.47989 0.17991 0.0
H2183 H 0.09407 0.51038 0.16919 0.0
H2184 H 0.07124 0.48206 0.15345 0.0
H2185 H 0.02393 0.53728 0.20979 0.0
H2186 H 0.01478 0.5556 0.19223 0.0
H2187 H 0.05102 0.56757 0.19842 0.0
C2188 C 0.481 0.57863 0.22017 0.0
C2189 C 0.46999 0.55947 0.23556 0.0
C2190 C 0.48873 0.57211 0.20205 0.0
C2191 C 0.48571 0.54591 0.19933 0.0
C2192 C 0.47388 0.52623 0.21463 0.0
C2193 C 0.46602 0.53321 0.23253 0.0
C2194 C 0.50086 0.59354 0.18602 0.0
C2195 C 0.47056 0.49816 0.21239 0.0
C2196 C 0.48961 0.52136 0.14751 0.0
C2197 C 0.51761 0.52721 0.14673 0.0
C2198 C 0.47896 0.52759 0.16443 0.0
C2199 C 0.49664 0.5397 0.18105 0.0
C2200 C 0.52494 0.54583 0.18031 0.0
C2201 C 0.5351 0.5397 0.16315 0.0
C2202 C 0.44874 0.52099 0.16458 0.0
C2203 C 0.5445 0.55873 0.19771 0.0
H2204 H 0.48378 0.59885 0.2224 0.0
H2205 H 0.45774 0.51843 0.24445 0.0
H2206 H 0.52317 0.5996 0.18347 0.0
H2207 H 0.48948 0.58511 0.17188 0.0
H2208 H 0.49979 0.61212 0.18987 0.0
H2209 H 0.45951 0.48471 0.22518 0.0
H2210 H 0.45868 0.4882 0.19869 0.0
H2211 H 0.49156 0.50001 0.211 0.0
H2212 H 0.47581 0.51144 0.13502 0.0
H2213 H 0.55691 0.54485 0.16259 0.0
H2214 H 0.44765 0.53966 0.16801 0.0
H2215 H 0.43704 0.50588 0.17637 0.0
H2216 H 0.43805 0.51256 0.15021 0.0
H2217 H 0.54638 0.57875 0.2013 0.0
H2218 H 0.56584 0.56196 0.19483 0.0
H2219 H 0.53579 0.54556 0.21096 0.0
C2220 C 0.94005 0.47258 0.79531 0.0
C2221 C 0.9174 0.44595 0.79313 0.0
C2222 C 0.95633 0.48051 0.81263 0.0
C2223 C 0.94944 0.46143 0.82819 0.0
C2224 C 0.92599 0.43477 0.82629 0.0
C2225 C 0.91038 0.42727 0.80868 0.0
C2226 C 0.98144 0.50899 0.81402 0.0
C2227 C 0.91771 0.41403 0.8427 0.0
C2228 C 0.00652 0.47002 0.86393 0.0
C2229 C 1.00147 0.48231 0.88027 0.0
C2230 C 0.98998 0.4635 0.84679 0.0
C2231 C 0.9675 0.46892 0.84609 0.0
C2232 C 0.96213 0.48118 0.86253 0.0
C2233 C 0.97934 0.48795 0.87935 0.0
C2234 C 0.9965 0.45065 0.82947 0.0
C2235 C 0.93813 0.48699 0.86237 0.0
H2236 H 0.94558 0.48691 0.78318 0.0
H2237 H 0.89269 0.40673 0.807 0.0
H2238 H 0.98003 0.51943 0.82751 0.0
H2239 H 1.00093 0.5078 0.81527 0.0
H2240 H 0.98329 0.52167 0.80093 0.0
H2241 H 0.8979 0.39478 0.83936 0.0
H2242 H 0.93463 0.40908 0.84513 0.0
H2243 H 0.915 0.42263 0.85675 0.0
H2244 H 0.02322 0.46512 0.86459 0.0
H2245 H 0.97554 0.49787 0.89174 0.0
H2246 H 1.00001 0.4631 0.81596 0.0
H2247 H 0.97836 0.43002 0.82647 0.0
H2248 H 0.01537 0.4487 0.83212 0.0
H2249 H 0.94088 0.50112 0.8501 0.0
H2250 H 0.93649 0.4962 0.87649 0.0
H2251 H 0.91802 0.46777 0.85974 0.0
C2252 C 0.54382 0.45846 0.79701 0.0
C2253 C 0.57143 0.47514 0.79005 0.0
C2254 C 0.53508 0.46337 0.81532 0.0
C2255 C 0.55358 0.48684 0.82644 0.0
C2256 C 0.58133 0.50395 0.81957 0.0
C2257 C 0.59017 0.4973 0.80198 0.0
C2258 C 0.50579 0.44336 0.8224 0.0
C2259 C 0.60179 0.52958 0.83058 0.0
C2260 C 0.51715 0.51358 0.85998 0.0
C2261 C 0.52581 0.51068 0.879 0.0
C2262 C 0.52672 0.50671 0.84287 0.0
C2263 C 0.54354 0.49433 0.84462 0.0
C2264 C 0.55099 0.48967 0.8637 0.0
C2265 C 0.54294 0.49875 0.88052 0.0
C2266 C 0.51896 0.51316 0.82293 0.0
C2267 C 0.56778 0.47543 0.86672 0.0
H2268 H 0.52853 0.44157 0.78816 0.0
H2269 H 0.6119 0.50985 0.79762 0.0
H2270 H 0.50391 0.44342 0.83874 0.0
H2271 H 0.49067 0.44864 0.81572 0.0
H2272 H 0.4995 0.42226 0.81754 0.0
H2273 H 0.61971 0.5437 0.82109 0.0
H2274 H 0.59128 0.54068 0.8362 0.0
H2275 H 0.61039 0.52399 0.84345 0.0
H2276 H 0.50297 0.52149 0.85819 0.0
H2277 H 0.55056 0.49662 0.89479 0.0
H2278 H 0.501 0.49442 0.81667 0.0
H2279 H 0.53674 0.52054 0.81237 0.0
H2280 H 0.51259 0.52893 0.8241 0.0
H2281 H 0.56637 0.46246 0.85393 0.0
H2282 H 0.56048 0.46239 0.88015 0.0
H2283 H 0.59015 0.49098 0.86918 0.0
C2284 C 0.51186 0.0744 0.79294 0.0
C2285 C 0.53891 0.09607 0.78867 0.0
C2286 C 0.50546 0.06133 0.81143 0.0
C2287 C 0.5267 0.06966 0.82602 0.0
C2288 C 0.55413 0.09129 0.8218 0.0
C2289 C 0.55986 0.10433 0.80326 0.0
C2290 C 0.47589 0.03844 0.8153 0.0
C2291 C 0.57745 0.10058 0.83687 0.0
C2292 C 0.50152 0.04864 0.87906 0.0
C2293 C 0.50199 0.02413 0.88073 0.0
C2294 C 0.51029 0.06416 0.86155 0.0
C2295 C 0.52015 0.05515 0.84545 0.0
C2296 C 0.52191 0.03109 0.84747 0.0
C2297 C 0.51263 0.01579 0.865 0.0
C2298 C 0.50779 0.08951 0.85995 0.0
C2299 C 0.53275 0.02098 0.83085 0.0
H2300 H 0.49561 0.06737 0.78172 0.0
H2301 H 0.58074 0.12123 0.80028 0.0
H2302 H 0.47598 0.01913 0.81809 0.0
H2303 H 0.4674 0.04302 0.82875 0.0
H2304 H 0.46151 0.03513 0.80271 0.0
H2305 H 0.59769 0.11753 0.83127 0.0
H2306 H 0.57171 0.10751 0.85055 0.0
H2307 H 0.58049 0.08322 0.84101 0.0
H2308 H 0.49314 0.05505 0.89114 0.0
H2309 H 0.51333 0.99701 0.86634 0.0
H2310 H 0.49175 0.08626 0.84864 0.0
H2311 H 0.52798 0.10713 0.85503 0.0
H2312 H 0.50167 0.09487 0.87421 0.0
H2313 H 0.51807 0.01469 0.81811 0.0
H2314 H 0.53505 0.00329 0.83537 0.0
H2315 H 0.55342 0.03762 0.82567 0.0
C2316 C 0.09546 0.23881 0.55754 0.0
C2317 C 0.1157 0.24452 0.57231 0.0
C2318 C 0.10295 0.25215 0.5391 0.0
C2319 C 0.13141 0.27159 0.5352 0.0
C2320 C 0.15198 0.27715 0.54991 0.0
C2321 C 0.14389 0.26369 0.56825 0.0
C2322 C 0.08033 0.24568 0.52388 0.0
C2323 C 0.18257 0.29769 0.54639 0.0
C2324 C 0.15764 0.29297 0.48232 0.0
C2325 C 0.15968 0.3187 0.48116 0.0
C2326 C 0.14785 0.27707 0.49963 0.0
C2327 C 0.13965 0.28702 0.51611 0.0
C2328 C 0.14064 0.31251 0.51469 0.0
C2329 C 0.15072 0.32804 0.4973 0.0
C2330 C 0.14725 0.25008 0.50054 0.0
C2331 C 0.13176 0.32376 0.53175 0.0
H2332 H 0.07369 0.22376 0.56035 0.0
H2333 H 0.15967 0.26863 0.57959 0.0
H2334 H 0.07938 0.2644 0.52043 0.0
H2335 H 0.08539 0.23875 0.50991 0.0
H2336 H 0.05928 0.2296 0.529 0.0
H2337 H 0.19615 0.29876 0.55894 0.0
H2338 H 0.19 0.29235 0.53274 0.0
H2339 H 0.18516 0.31828 0.54413 0.0
H2340 H 0.16471 0.28571 0.46996 0.0
H2341 H 0.15186 0.34773 0.4964 0.0
H2342 H 0.12617 0.23359 0.50519 0.0
H2343 H 0.16253 0.25125 0.51179 0.0
H2344 H 0.15253 0.24438 0.4861 0.0
H2345 H 0.1102 0.30857 0.53657 0.0
H2346 H 0.1322 0.34309 0.52788 0.0
H2347 H 0.14594 0.32773 0.54456 0.0
C2348 C 0.79445 0.86417 0.55051 0.0
C2349 C 0.7839 0.87596 0.56374 0.0
C2350 C 0.78328 0.85645 0.53141 0.0
C2351 C 0.76107 0.86069 0.52543 0.0
C2352 C 0.75114 0.87366 0.53841 0.0
C2353 C 0.76267 0.88113 0.55746 0.0
C2354 C 0.79445 0.84271 0.51795 0.0
C2355 C 0.72748 0.87851 0.53252 0.0
C2356 C 0.74279 0.85323 0.47072 0.0
C2357 C 0.72061 0.82613 0.46988 0.0
C2358 C 0.75594 0.86503 0.48878 0.0
C2359 C 0.74662 0.84929 0.50631 0.0
C2360 C 0.72392 0.8221 0.50557 0.0
C2361 C 0.71118 0.81088 0.48737 0.0
C2362 C 0.78007 0.8941 0.48907 0.0
C2363 C 0.71329 0.80471 0.52398 0.0
H2364 H 0.81118 0.86057 0.55522 0.0
H2365 H 0.75431 0.89005 0.56771 0.0
H2366 H 0.77788 0.82118 0.51534 0.0
H2367 H 0.80016 0.85303 0.50335 0.0
H2368 H 0.81317 0.84282 0.52427 0.0
H2369 H 0.72414 0.89125 0.54352 0.0
H2370 H 0.73178 0.8887 0.51789 0.0
H2371 H 0.70771 0.85861 0.53111 0.0
H2372 H 0.75022 0.86501 0.4572 0.0
H2373 H 0.69368 0.79009 0.48682 0.0
H2374 H 0.79953 0.89445 0.49393 0.0
H2375 H 0.77586 0.90642 0.49988 0.0
H2376 H 0.78386 0.90399 0.47431 0.0
H2377 H 0.73029 0.80207 0.53055 0.0
H2378 H 0.69498 0.78416 0.52091 0.0
H2379 H 0.70707 0.81502 0.53522 0.0
C2380 C 0.1483 0.90952 0.55497 0.0
C2381 C 0.13774 0.89074 0.57063 0.0
C2382 C 0.15564 0.9026 0.53685 0.0
C2383 C 0.15251 0.87632 0.53435 0.0
C2384 C 0.14126 0.85707 0.54994 0.0
C2385 C 0.13396 0.86449 0.56787 0.0
C2386 C 0.16729 0.9236 0.52052 0.0
C2387 C 0.13775 0.82889 0.54791 0.0
C2388 C 0.15313 0.84962 0.48269 0.0
C2389 C 0.18082 0.85471 0.48131 0.0
C2390 C 0.14369 0.85688 0.49973 0.0
C2391 C 0.16233 0.8694 0.51583 0.0
C2392 C 0.19039 0.8749 0.51443 0.0
C2393 C 0.1993 0.8676 0.49719 0.0
C2394 C 0.11365 0.85079 0.50064 0.0
C2395 C 0.21095 0.88828 0.53124 0.0
H2396 H 0.15092 0.92972 0.55694 0.0
H2397 H 0.12609 0.84999 0.57998 0.0
H2398 H 0.1893 0.9291 0.51734 0.0
H2399 H 0.15505 0.915 0.50671 0.0
H2400 H 0.16693 0.94254 0.52441 0.0
H2401 H 0.12744 0.81588 0.56103 0.0
H2402 H 0.12505 0.81851 0.53458 0.0
H2403 H 0.15861 0.83061 0.54592 0.0
H2404 H 0.13861 0.83942 0.4706 0.0
H2405 H 0.22086 0.87207 0.49612 0.0
H2406 H 0.11308 0.86973 0.50404 0.0
H2407 H 0.1024 0.83607 0.51274 0.0
H2408 H 0.10217 0.84206 0.48655 0.0
H2409 H 0.21307 0.90841 0.53478 0.0
H2410 H 0.2321 0.89137 0.52774 0.0
H2411 H 0.20301 0.87548 0.54473 0.0
C2412 C 0.60777 0.80922 0.12727 0.0
C2413 C 0.58582 0.78214 0.12547 0.0
C2414 C 0.62396 0.81832 0.14458 0.0
C2415 C 0.61788 0.79992 0.16049 0.0
C2416 C 0.59525 0.77275 0.15895 0.0
C2417 C 0.57955 0.76413 0.1414 0.0
C2418 C 0.64807 0.84738 0.14563 0.0
C2419 C 0.58795 0.75266 0.17572 0.0
C2420 C 0.67642 0.81373 0.19655 0.0
C2421 C 0.67023 0.82578 0.21247 0.0
C2422 C 0.65958 0.80531 0.17951 0.0
C2423 C 0.63585 0.80882 0.17845 0.0
C2424 C 0.6294 0.82087 0.19446 0.0
C2425 C 0.64676 0.82935 0.21125 0.0
C2426 C 0.66716 0.79261 0.16266 0.0
C2427 C 0.60419 0.82482 0.19386 0.0
H2428 H 0.61283 0.82307 0.11487 0.0
H2429 H 0.5624 0.74326 0.14007 0.0
H2430 H 0.6459 0.85784 0.15885 0.0
H2431 H 0.66817 0.84738 0.14719 0.0
H2432 H 0.64932 0.85939 0.13227 0.0
H2433 H 0.56889 0.73269 0.17251 0.0
H2434 H 0.60574 0.7491 0.17856 0.0
H2435 H 0.58437 0.76116 0.18951 0.0
H2436 H 0.69425 0.81054 0.19751 0.0
H2437 H 0.64208 0.83902 0.22336 0.0
H2438 H 0.67032 0.80451 0.1489 0.0
H2439 H 0.64969 0.77155 0.15984 0.0
H2440 H 0.68655 0.79172 0.16571 0.0
H2441 H 0.6061 0.83824 0.18128 0.0
H2442 H 0.60178 0.83405 0.20772 0.0
H2443 H 0.58479 0.80489 0.19143 0.0
C2444 C 0.21747 0.79971 0.13046 0.0
C2445 C 0.24494 0.80717 0.1248 0.0
C2446 C 0.21177 0.80566 0.14952 0.0
C2447 C 0.23407 0.81938 0.1632 0.0
C2448 C 0.26168 0.82613 0.15777 0.0
C2449 C 0.26676 0.81994 0.13865 0.0
C2450 C 0.18208 0.79816 0.15477 0.0
C2451 C 0.28603 0.84069 0.17194 0.0
C2452 C 0.23072 0.86501 0.20296 0.0
C2453 C 0.22588 0.84921 0.22004 0.0
C2454 C 0.2324 0.8551 0.18429 0.0
C2455 C 0.22916 0.82869 0.18264 0.0
C2456 C 0.22312 0.81215 0.19972 0.0
C2457 C 0.2215 0.82262 0.21826 0.0
C2458 C 0.23867 0.87332 0.16644 0.0
C2459 C 0.21949 0.78388 0.19852 0.0
H2460 H 0.20055 0.78999 0.11977 0.0
H2461 H 0.28794 0.8253 0.13447 0.0
H2462 H 0.1758 0.78684 0.16897 0.0
H2463 H 0.18086 0.81704 0.1568 0.0
H2464 H 0.16677 0.78544 0.14314 0.0
H2465 H 0.30587 0.84299 0.16585 0.0
H2466 H 0.28934 0.86132 0.17533 0.0
H2467 H 0.28134 0.82935 0.18611 0.0
H2468 H 0.23363 0.88541 0.20424 0.0
H2469 H 0.21788 0.81039 0.23145 0.0
H2470 H 0.22281 0.86246 0.15469 0.0
H2471 H 0.25946 0.87855 0.16027 0.0
H2472 H 0.23888 0.89262 0.17007 0.0
H2473 H 0.20401 0.7717 0.18686 0.0
H2474 H 0.21241 0.77274 0.21279 0.0
H2475 H 0.23974 0.78539 0.19437 0.0
C2476 C 0.22769 0.43808 0.13704 0.0
C2477 C 0.20674 0.43037 0.12251 0.0
C2478 C 0.22184 0.42469 0.15546 0.0
C2479 C 0.19431 0.4032 0.15959 0.0
C2480 C 0.17304 0.39546 0.14508 0.0
C2481 C 0.17954 0.40895 0.12674 0.0
C2482 C 0.24517 0.43344 0.17045 0.0
C2483 C 0.14339 0.3727 0.14884 0.0
C2484 C 0.18057 0.34842 0.19777 0.0
C2485 C 0.17018 0.35643 0.21386 0.0
C2486 C 0.18949 0.36401 0.18035 0.0
C2487 C 0.18773 0.38812 0.17881 0.0
C2488 C 0.1781 0.39679 0.19524 0.0
C2489 C 0.16959 0.38093 0.21261 0.0
C2490 C 0.20002 0.35421 0.16335 0.0
C2491 C 0.1757 0.42224 0.19419 0.0
H2492 H 0.24869 0.4548 0.1341 0.0
H2493 H 0.16327 0.4024 0.11556 0.0
H2494 H 0.23946 0.4399 0.18437 0.0
H2495 H 0.24819 0.41593 0.17412 0.0
H2496 H 0.26542 0.45057 0.16503 0.0
H2497 H 0.12901 0.36987 0.13636 0.0
H2498 H 0.14325 0.35321 0.15126 0.0
H2499 H 0.13505 0.37705 0.16248 0.0
H2500 H 0.18144 0.3297 0.19876 0.0
H2501 H 0.16141 0.38713 0.22493 0.0
H2502 H 0.22079 0.37083 0.15831 0.0
H2503 H 0.18535 0.34854 0.15064 0.0
H2504 H 0.20202 0.33619 0.1674 0.0
H2505 H 0.19592 0.43994 0.1894 0.0
H2506 H 0.16966 0.42723 0.20862 0.0
H2507 H 0.15966 0.41937 0.18299 0.0
C2508 C 0.79016 0.56317 0.88902 0.0
C2509 C 0.78039 0.57324 0.90422 0.0
C2510 C 0.79916 0.57689 0.8708 0.0
C2511 C 0.79862 0.60143 0.86772 0.0
C2512 C 0.78838 0.61147 0.8829 0.0
C2513 C 0.77933 0.59724 0.90091 0.0
C2514 C 0.80964 0.56533 0.85496 0.0
C2515 C 0.78766 0.63766 0.88032 0.0
C2516 C 0.84934 0.65339 0.83074 0.0
C2517 C 0.83171 0.65003 0.81463 0.0
C2518 C 0.8389 0.6375 0.84793 0.0
C2519 C 0.8101 0.61741 0.84907 0.0
C2520 C 0.79232 0.61325 0.83266 0.0
C2521 C 0.80329 0.62965 0.81567 0.0
C2522 C 0.85864 0.64263 0.86504 0.0
C2523 C 0.76155 0.59188 0.83321 0.0
H2524 H 0.79071 0.54446 0.89136 0.0
H2525 H 0.7721 0.60532 0.91263 0.0
H2526 H 0.79796 0.56263 0.84097 0.0
H2527 H 0.83213 0.57985 0.85191 0.0
H2528 H 0.80738 0.54534 0.85927 0.0
H2529 H 0.77808 0.64216 0.89321 0.0
H2530 H 0.80934 0.655 0.8783 0.0
H2531 H 0.77558 0.63647 0.86683 0.0
H2532 H 0.87145 0.66863 0.82997 0.0
H2533 H 0.7894 0.62698 0.80343 0.0
H2534 H 0.85855 0.62352 0.86896 0.0
H2535 H 0.85143 0.64906 0.87826 0.0
H2536 H 0.88056 0.65868 0.86168 0.0
H2537 H 0.75897 0.57169 0.83715 0.0
H2538 H 0.75092 0.58998 0.81882 0.0
H2539 H 0.75082 0.59722 0.84481 0.0
C2540 C 0.42578 0.21187 0.89062 0.0
C2541 C 0.44803 0.20849 0.8973 0.0
C2542 C 0.41545 0.20466 0.87124 0.0
C2543 C 0.42752 0.19361 0.85834 0.0
C2544 C 0.45074 0.19124 0.86472 0.0
C2545 C 0.46079 0.19882 0.8841 0.0
C2546 C 0.39076 0.20763 0.86492 0.0
C2547 C 0.46413 0.17948 0.85139 0.0
C2548 C 0.38038 0.14299 0.81955 0.0
C2549 C 0.38919 0.15868 0.80221 0.0
C2550 C 0.39265 0.15422 0.83787 0.0
C2551 C 0.41413 0.18193 0.83895 0.0
C2552 C 0.42292 0.19806 0.82158 0.0
C2553 C 0.41036 0.18621 0.80337 0.0
C2554 C 0.38268 0.13633 0.85607 0.0
C2555 C 0.44566 0.22773 0.82224 0.0
H2556 H 0.41568 0.21914 0.90076 0.0
H2557 H 0.47835 0.19668 0.88906 0.0
H2558 H 0.39492 0.218 0.85036 0.0
H2559 H 0.37191 0.18709 0.86318 0.0
H2560 H 0.38589 0.21939 0.87585 0.0
H2561 H 0.48341 0.1811 0.85801 0.0
H2562 H 0.44896 0.15759 0.84848 0.0
H2563 H 0.4696 0.19011 0.83691 0.0
H2564 H 0.3636 0.12188 0.81884 0.0
H2565 H 0.41737 0.19838 0.79 0.0
H2566 H 0.37468 0.14523 0.86718 0.0
H2567 H 0.40048 0.13535 0.86296 0.0
H2568 H 0.36575 0.11517 0.85267 0.0
H2569 H 0.43985 0.23911 0.83283 0.0
H2570 H 0.44947 0.23769 0.80751 0.0
H2571 H 0.46556 0.22945 0.8276 0.0
C2572 C 0.81694 0.24535 0.88859 0.0
C2573 C 0.80577 0.22576 0.90369 0.0
C2574 C 0.82473 0.2393 0.87031 0.0
C2575 C 0.82163 0.21314 0.86716 0.0
C2576 C 0.80977 0.19308 0.8822 0.0
C2577 C 0.80183 0.19959 0.90025 0.0
C2578 C 0.83688 0.26111 0.85455 0.0
C2579 C 0.80641 0.16505 0.87951 0.0
C2580 C 0.82495 0.18938 0.81495 0.0
C2581 C 0.85289 0.19507 0.81395 0.0
C2582 C 0.81455 0.19549 0.83204 0.0
C2583 C 0.8324 0.2073 0.84863 0.0
C2584 C 0.86065 0.21333 0.84765 0.0
C2585 C 0.87058 0.20736 0.83031 0.0
C2586 C 0.78438 0.18905 0.83244 0.0
C2587 C 0.88037 0.22587 0.86502 0.0
H2588 H 0.8197 0.26551 0.89114 0.0
H2589 H 0.79341 0.18448 0.91196 0.0
H2590 H 0.85912 0.26708 0.85181 0.0
H2591 H 0.82535 0.25308 0.84041 0.0
H2592 H 0.83599 0.27968 0.85878 0.0
H2593 H 0.79556 0.15135 0.89222 0.0
H2594 H 0.79432 0.15536 0.86583 0.0
H2595 H 0.82738 0.16692 0.87779 0.0
H2596 H 0.81099 0.17962 0.80251 0.0
H2597 H 0.89235 0.2124 0.82958 0.0
H2598 H 0.78341 0.20766 0.83629 0.0
H2599 H 0.77267 0.17361 0.84404 0.0
H2600 H 0.77361 0.18106 0.81802 0.0
H2601 H 0.88231 0.24582 0.86893 0.0
H2602 H 0.90168 0.22913 0.86192 0.0
H2603 H 0.87176 0.21242 0.87815 0.0
C2604 C 0.2489 0.09723 0.47306 0.0
C2605 C 0.25574 0.11571 0.4574 0.0
C2606 C 0.2644 0.1051 0.49072 0.0
C2607 C 0.28752 0.13196 0.49256 0.0
C2608 C 0.29428 0.15082 0.47687 0.0
C2609 C 0.27814 0.14249 0.45949 0.0
C2610 C 0.25631 0.08458 0.50726 0.0
C2611 C 0.319 0.17952 0.47822 0.0
C2612 C 0.31613 0.15963 0.54374 0.0
C2613 C 0.33884 0.15489 0.54506 0.0
C2614 C 0.29915 0.15216 0.52678 0.0
C2615 C 0.30526 0.14002 0.51064 0.0
C2616 C 0.32826 0.1354 0.51177 0.0
C2617 C 0.34466 0.14272 0.52901 0.0
C2618 C 0.27463 0.15719 0.52614 0.0
C2619 C 0.33551 0.12263 0.49478 0.0
H2620 H 0.23139 0.07658 0.47147 0.0
H2621 H 0.28356 0.15668 0.44727 0.0
H2622 H 0.27361 0.08027 0.51007 0.0
H2623 H 0.25296 0.09308 0.52114 0.0
H2624 H 0.23691 0.06499 0.50384 0.0
H2625 H 0.32088 0.19192 0.46494 0.0
H2626 H 0.31704 0.19001 0.49149 0.0
H2627 H 0.3387 0.17878 0.47987 0.0
H2628 H 0.31175 0.16943 0.55593 0.0
H2629 H 0.36185 0.13857 0.53001 0.0
H2630 H 0.25485 0.13767 0.52346 0.0
H2631 H 0.27724 0.17105 0.5137 0.0
H2632 H 0.27242 0.16639 0.54009 0.0
H2633 H 0.31769 0.10183 0.49175 0.0
H2634 H 0.35454 0.1211 0.49782 0.0
H2635 H 0.33913 0.13488 0.48115 0.0
C2636 C 0.87574 0.13571 0.45977 0.0
C2637 C 0.90427 0.14538 0.45592 0.0
C2638 C 0.86691 0.1408 0.47796 0.0
C2639 C 0.88708 0.15617 0.49267 0.0
C2640 C 0.91592 0.16603 0.48892 0.0
C2641 C 0.92416 0.16046 0.47062 0.0
C2642 C 0.83595 0.12991 0.48138 0.0
C2643 C 0.93805 0.18255 0.50421 0.0
C2644 C 0.86373 0.18999 0.53095 0.0
C2645 C 0.85571 0.17157 0.54679 0.0
C2646 C 0.87485 0.1857 0.51351 0.0
C2647 C 0.87786 0.1623 0.51179 0.0
C2648 C 0.87057 0.14404 0.52795 0.0
C2649 C 0.85966 0.14894 0.54529 0.0
C2650 C 0.8827 0.20584 0.49672 0.0
C2651 C 0.87334 0.1188 0.52666 0.0
H2652 H 0.86026 0.12444 0.44842 0.0
H2653 H 0.94621 0.16772 0.46788 0.0
H2654 H 0.82897 0.11692 0.49481 0.0
H2655 H 0.83204 0.14713 0.48396 0.0
H2656 H 0.82289 0.11766 0.46865 0.0
H2657 H 0.95958 0.18866 0.49902 0.0
H2658 H 0.93724 0.20128 0.50795 0.0
H2659 H 0.93388 0.17056 0.51804 0.0
H2660 H 0.8611 0.20773 0.53216 0.0
H2661 H 0.85329 0.13453 0.55743 0.0
H2662 H 0.8689 0.19566 0.48379 0.0
H2663 H 0.90462 0.21308 0.49196 0.0
H2664 H 0.88073 0.22386 0.50086 0.0
H2665 H 0.8588 0.10481 0.51518 0.0
H2666 H 0.86847 0.1076 0.54094 0.0
H2667 H 0.89495 0.12437 0.52214 0.0
C2668 C 0.8419 0.73957 0.45958 0.0
C2669 C 0.86897 0.76104 0.4551 0.0
C2670 C 0.83567 0.72659 0.47812 0.0
C2671 C 0.8571 0.73488 0.49258 0.0
C2672 C 0.88451 0.75639 0.48818 0.0
C2673 C 0.89008 0.7693 0.46958 0.0
C2674 C 0.80612 0.70381 0.48217 0.0
C2675 C 0.90802 0.76568 0.50309 0.0
C2676 C 0.83302 0.71391 0.5459 0.0
C2677 C 0.83369 0.68948 0.54747 0.0
C2678 C 0.84129 0.72934 0.52831 0.0
C2679 C 0.85082 0.72032 0.51202 0.0
C2680 C 0.85272 0.69632 0.51391 0.0
C2681 C 0.84398 0.68114 0.53153 0.0
C2682 C 0.83869 0.75465 0.52689 0.0
C2683 C 0.86319 0.68618 0.49709 0.0
H2684 H 0.82551 0.73257 0.44847 0.0
H2685 H 0.91097 0.78607 0.46646 0.0
H2686 H 0.80616 0.68445 0.48486 0.0
H2687 H 0.79788 0.70842 0.49574 0.0
H2688 H 0.79158 0.70057 0.46971 0.0
H2689 H 0.92816 0.78272 0.49743 0.0
H2690 H 0.9024 0.77248 0.51689 0.0
H2691 H 0.91119 0.74835 0.50705 0.0
H2692 H 0.82491 0.72035 0.55813 0.0
H2693 H 0.84486 0.66244 0.53276 0.0
H2694 H 0.82247 0.75137 0.51573 0.0
H2695 H 0.85879 0.77229 0.52184 0.0
H2696 H 0.83279 0.75999 0.54124 0.0
H2697 H 0.84833 0.68001 0.48446 0.0
H2698 H 0.86545 0.6684 0.50143 0.0
H2699 H 0.88382 0.70277 0.4918 0.0
loop_
_geom_bond_atom_site_label_1
_geom_bond_atom_site_label_2
_geom_bond_distance
_geom_bond_site_symmetry_2
_ccdc_geom_bond_type
H0 C5 0.930 . S
H1 C8 0.930 . S
H2 C10 0.930 . S
H3 C4 1.016 . S
C4 H3 1.016 . S
C4 N11 1.286 . S
C5 H0 0.930 . S
C5 C6 1.397 . S
C5 C7 1.361 . S
C6 C5 1.397 . S
C6 C10 1.390 . S
C7 C5 1.361 . S
C7 C8 1.393 . S
C7 N11 1.413 . S
C8 H1 0.930 . S
C8 C7 1.393 . S
C8 C9 1.399 . S
C9 C8 1.399 . S
C9 C10 1.381 . S
C10 H2 0.930 . S
C10 C6 1.390 . S
C10 C9 1.381 . S
N11 C4 1.286 . S
N11 C7 1.413 . S
H12 C17 0.930 . S
H13 C20 0.930 . S
H14 C22 0.930 . S
H15 C16 1.016 . S
C16 H15 1.016 . S
C16 N23 1.286 . S
C17 H12 0.930 . S
C17 C18 1.397 . S
C17 C19 1.361 . S
C18 C17 1.397 . S
C18 C22 1.390 . S
C19 C17 1.361 . S
C19 C20 1.393 . S
C19 N23 1.413 . S
C20 H13 0.930 . S
C20 C19 1.393 . S
C20 C21 1.399 . S
C21 C20 1.399 . S
C21 C22 1.381 . S
C22 H14 0.930 . S
C22 C18 1.390 . S
C22 C21 1.381 . S
N23 C16 1.286 . S
N23 C19 1.413 . S
H24 C29 0.930 . S
H25 C32 0.930 . S
H26 C34 0.930 . S
H27 C28 1.016 . S
C28 H27 1.016 . S
C28 N35 1.286 . S
C29 H24 0.930 . S
C29 C30 1.397 . S
C29 C31 1.361 . S
C30 C29 1.397 . S
C30 C34 1.390 . S
C31 C29 1.361 . S
C31 C32 1.393 . S
C31 N35 1.413 . S
C32 H25 0.930 . S
C32 C31 1.393 . S
C32 C33 1.399 . S
C33 C32 1.399 . S
C33 C34 1.381 . S
C34 H26 0.930 . S
C34 C30 1.390 . S
C34 C33 1.381 . S
N35 C28 1.286 . S
N35 C31 1.413 . S
H36 C41 0.930 . S
H37 C44 0.930 . S
H38 C46 0.930 . S
H39 C40 1.016 . S
C40 H39 1.016 . S
C40 N47 1.286 . S
C41 H36 0.930 . S
C41 C42 1.397 . S
C41 C43 1.361 . S
C42 C41 1.397 . S
C42 C46 1.390 . S
C43 C41 1.361 . S
C43 C44 1.393 . S
C43 N47 1.413 . S
C44 H37 0.930 . S
C44 C43 1.393 . S
C44 C45 1.399 . S
C45 C44 1.399 . S
C45 C46 1.381 . S
C46 H38 0.930 . S
C46 C42 1.390 . S
C46 C45 1.381 . S
N47 C40 1.286 . S
N47 C43 1.413 . S
H48 C53 0.930 . S
H49 C56 0.930 . S
H50 C58 0.930 . S
H51 C52 1.016 . S
C52 H51 1.016 . S
C52 N59 1.286 . S
C53 H48 0.930 . S
C53 C54 1.397 . S
C53 C55 1.361 . S
C54 C53 1.397 . S
C54 C58 1.390 . S
C55 C53 1.361 . S
C55 C56 1.393 . S
C55 N59 1.413 . S
C56 H49 0.930 . S
C56 C55 1.393 . S
C56 C57 1.399 . S
C57 C56 1.399 . S
C57 C58 1.381 . S
C58 H50 0.930 . S
C58 C54 1.390 . S
C58 C57 1.381 . S
N59 C52 1.286 . S
N59 C55 1.413 . S
H60 C65 0.930 . S
H61 C68 0.930 . S
H62 C70 0.930 . S
H63 C64 1.016 . S
C64 H63 1.016 . S
C64 N71 1.286 . S
C65 H60 0.930 . S
C65 C66 1.397 . S
C65 C67 1.361 . S
C66 C65 1.397 . S
C66 C70 1.390 . S
C67 C65 1.361 . S
C67 C68 1.393 . S
C67 N71 1.413 . S
C68 H61 0.930 . S
C68 C67 1.393 . S
C68 C69 1.399 . S
C69 C68 1.399 . S
C69 C70 1.381 . S
C70 H62 0.930 . S
C70 C66 1.390 . S
C70 C69 1.381 . S
N71 C64 1.286 . S
N71 C67 1.413 . S
H72 C77 0.930 . S
H73 C80 0.930 . S
H74 C82 0.930 . S
H75 C76 1.016 . S
C76 H75 1.016 . S
C76 N83 1.286 . S
C77 H72 0.930 . S
C77 C78 1.397 . S
C77 C79 1.361 . S
C78 C77 1.397 . S
C78 C82 1.390 . S
C79 C77 1.361 . S
C79 C80 1.393 . S
C79 N83 1.413 . S
C80 H73 0.930 . S
C80 C79 1.393 . S
C80 C81 1.399 . S
C81 C80 1.399 . S
C81 C82 1.381 . S
C82 H74 0.930 . S
C82 C78 1.390 . S
C82 C81 1.381 . S
N83 C76 1.286 . S
N83 C79 1.413 . S
H84 C89 0.930 . S
H85 C92 0.930 . S
H86 C94 0.930 . S
H87 C88 1.016 . S
C88 H87 1.016 . S
C88 N95 1.286 . S
C89 H84 0.930 . S
C89 C90 1.397 . S
C89 C91 1.361 . S
C90 C89 1.397 . S
C90 C94 1.390 . S
C91 C89 1.361 . S
C91 C92 1.393 . S
C91 N95 1.413 . S
C92 H85 0.930 . S
C92 C91 1.393 . S
C92 C93 1.399 . S
C93 C92 1.399 . S
C93 C94 1.381 . S
C94 H86 0.930 . S
C94 C90 1.390 . S
C94 C93 1.381 . S
N95 C88 1.286 . S
N95 C91 1.413 . S
H96 C101 0.930 . S
H97 C104 0.930 . S
H98 C106 0.930 . S
H99 C100 1.016 . S
C100 H99 1.016 . S
C100 N107 1.286 . S
C101 H96 0.930 . S
C101 C102 1.397 . S
C101 C103 1.361 . S
C102 C101 1.397 . S
C102 C106 1.390 . S
C103 C101 1.361 . S
C103 C104 1.393 . S
C103 N107 1.413 . S
C104 H97 0.930 . S
C104 C103 1.393 . S
C104 C105 1.399 . S
C105 C104 1.399 . S
C105 C106 1.381 . S
C106 H98 0.930 . S
C106 C102 1.390 . S
C106 C105 1.381 . S
N107 C100 1.286 . S
N107 C103 1.413 . S
H108 C113 0.930 . S
H109 C116 0.930 . S
H110 C118 0.930 . S
H111 C112 1.016 . S
C112 H111 1.016 . S
C112 N119 1.286 . S
C113 H108 0.930 . S
C113 C114 1.397 . S
C113 C115 1.361 . S
C114 C113 1.397 . S
C114 C118 1.390 . S
C115 C113 1.361 . S
C115 C116 1.393 . S
C115 N119 1.413 . S
C116 H109 0.930 . S
C116 C115 1.393 . S
C116 C117 1.399 . S
C117 C116 1.399 . S
C117 C118 1.381 . S
C118 H110 0.930 . S
C118 C114 1.390 . S
C118 C117 1.381 . S
N119 C112 1.286 . S
N119 C115 1.413 . S
H120 C125 0.930 . S
H121 C128 0.930 . S
H122 C130 0.930 . S
H123 C124 1.016 . S
C124 H123 1.016 . S
C124 N131 1.286 . S
C125 H120 0.930 . S
C125 C126 1.397 . S
C125 C127 1.361 . S
C126 C125 1.397 . S
C126 C130 1.390 . S
C127 C125 1.361 . S
C127 C128 1.393 . S
C127 N131 1.413 . S
C128 H121 0.930 . S
C128 C127 1.393 . S
C128 C129 1.399 . S
C129 C128 1.399 . S
C129 C130 1.381 . S
C130 H122 0.930 . S
C130 C126 1.390 . S
C130 C129 1.381 . S
N131 C124 1.286 . S
N131 C127 1.413 . S
H132 C137 0.930 . S
H133 C140 0.930 . S
H134 C142 0.930 . S
H135 C136 1.016 . S
C136 H135 1.016 . S
C136 N143 1.286 . S
C137 H132 0.930 . S
C137 C138 1.397 . S
C137 C139 1.361 . S
C138 C137 1.397 . S
C138 C142 1.390 . S
C139 C137 1.361 . S
C139 C140 1.393 . S
C139 N143 1.413 . S
C140 H133 0.930 . S
C140 C139 1.393 . S
C140 C141 1.399 . S
C141 C140 1.399 . S
C141 C142 1.381 . S
C142 H134 0.930 . S
C142 C138 1.390 . S
C142 C141 1.381 . S
N143 C136 1.286 . S
N143 C139 1.413 . S
H144 C149 0.930 . S
H145 C152 0.930 . S
H146 C154 0.930 . S
H147 C148 1.016 . S
C148 H147 1.016 . S
C148 N155 1.286 . S
C149 H144 0.930 . S
C149 C150 1.397 . S
C149 C151 1.361 . S
C150 C149 1.397 . S
C150 C154 1.390 . S
C151 C149 1.361 . S
C151 C152 1.393 . S
C151 N155 1.413 . S
C152 H145 0.930 . S
C152 C151 1.393 . S
C152 C153 1.399 . S
C153 C152 1.399 . S
C153 C154 1.381 . S
C154 H146 0.930 . S
C154 C150 1.390 . S
C154 C153 1.381 . S
N155 C148 1.286 . S
N155 C151 1.413 . S
H156 C161 0.930 . S
H157 C164 0.930 . S
H158 C166 0.930 . S
H159 C160 1.016 . S
C160 H159 1.016 . S
C160 N167 1.286 . S
C161 H156 0.930 . S
C161 C162 1.397 . S
C161 C163 1.361 . S
C162 C161 1.397 . S
C162 C166 1.390 . S
C163 C161 1.361 . S
C163 C164 1.393 . S
C163 N167 1.413 . S
C164 H157 0.930 . S
C164 C163 1.393 . S
C164 C165 1.399 . S
C165 C164 1.399 . S
C165 C166 1.381 . S
C166 H158 0.930 . S
C166 C162 1.390 . S
C166 C165 1.381 . S
N167 C160 1.286 . S
N167 C163 1.413 . S
H168 C173 0.930 . S
H169 C176 0.930 . S
H170 C178 0.930 . S
H171 C172 1.016 . S
C172 H171 1.016 . S
C172 N179 1.286 . S
C173 H168 0.930 . S
C173 C174 1.397 . S
C173 C175 1.361 . S
C174 C173 1.397 . S
C174 C178 1.390 . S
C175 C173 1.361 . S
C175 C176 1.393 . S
C175 N179 1.413 . S
C176 H169 0.930 . S
C176 C175 1.393 . S
C176 C177 1.399 . S
C177 C176 1.399 . S
C177 C178 1.381 . S
C178 H170 0.930 . S
C178 C174 1.390 . S
C178 C177 1.381 . S
N179 C172 1.286 . S
N179 C175 1.413 . S
H180 C185 0.930 . S
H181 C188 0.930 . S
H182 C190 0.930 . S
H183 C184 1.016 . S
C184 H183 1.016 . S
C184 N191 1.286 . S
C185 H180 0.930 . S
C185 C186 1.397 . S
C185 C187 1.361 . S
C186 C185 1.397 . S
C186 C190 1.390 . S
C187 C185 1.361 . S
C187 C188 1.393 . S
C187 N191 1.413 . S
C188 H181 0.930 . S
C188 C187 1.393 . S
C188 C189 1.399 . S
C189 C188 1.399 . S
C189 C190 1.381 . S
C190 H182 0.930 . S
C190 C186 1.390 . S
C190 C189 1.381 . S
N191 C184 1.286 . S
N191 C187 1.413 . S
H192 C197 0.930 . S
H193 C200 0.930 . S
H194 C202 0.930 . S
H195 C196 1.016 . S
C196 H195 1.016 . S
C196 N203 1.286 . S
C197 H192 0.930 . S
C197 C198 1.397 . S
C197 C199 1.361 . S
C198 C197 1.397 . S
C198 C202 1.390 . S
C199 C197 1.361 . S
C199 C200 1.393 . S
C199 N203 1.413 . S
C200 H193 0.930 . S
C200 C199 1.393 . S
C200 C201 1.399 . S
C201 C200 1.399 . S
C201 C202 1.381 . S
C202 H194 0.930 . S
C202 C198 1.390 . S
C202 C201 1.381 . S
N203 C196 1.286 . S
N203 C199 1.413 . S
H204 C209 0.930 . S
H205 C212 0.930 . S
H206 C214 0.930 . S
H207 C208 1.016 . S
C208 H207 1.016 . S
C208 N215 1.286 . S
C209 H204 0.930 . S
C209 C210 1.397 . S
C209 C211 1.361 . S
C210 C209 1.397 . S
C210 C214 1.390 . S
C211 C209 1.361 . S
C211 C212 1.393 . S
C211 N215 1.413 . S
C212 H205 0.930 . S
C212 C211 1.393 . S
C212 C213 1.399 . S
C213 C212 1.399 . S
C213 C214 1.381 . S
C214 H206 0.930 . S
C214 C210 1.390 . S
C214 C213 1.381 . S
N215 C208 1.286 . S
N215 C211 1.413 . S
Tb216 N247 2.660 . S
Tb216 N254 2.600 . S
Tb216 O260 2.546 . S
Tb216 O261 2.610 1_566 S
Tb216 O263 2.320 1_565 S
Tb216 O264 2.552 1_565 S
Tb216 O265 2.413 1_565 S
Tb216 O267 2.362 1_556 S
Tb216 O268 2.419 . S
Tb216 C280 2.832 1_565 S
C217 C220 1.432 . S
C217 C221 1.414 . S
C217 N224 1.359 . S
C218 C220 1.417 . S
C218 C222 1.432 . S
C218 C230 1.410 . S
C219 C221 1.444 . S
C219 C222 1.317 . S
C219 H242 0.929 . S
C220 C217 1.432 . S
C220 C218 1.417 . S
C220 N228 1.360 . S
C221 C217 1.414 . S
C221 C219 1.444 . S
C221 C226 1.385 . S
C222 C218 1.432 . S
C222 C219 1.317 . S
C222 H234 0.930 . S
C223 C225 1.392 . S
C223 C226 1.370 . S
C223 H235 0.931 . S
N224 C217 1.359 . S
N224 C225 1.327 . S
N224 Tb227 2.600 . S
C225 C223 1.392 . S
C225 N224 1.327 . S
C225 H232 0.930 . S
C226 C221 1.385 . S
C226 C223 1.370 . S
C226 H245 0.930 . S
Tb227 N224 2.600 . S
Tb227 N228 2.660 . S
Tb227 O261 2.362 . S
Tb227 O262 2.421 . S
Tb227 O266 2.546 . S
Tb227 O267 2.610 1_545 S
Tb227 O269 2.320 1_545 S
Tb227 O270 2.552 1_545 S
Tb227 O271 2.413 1_545 S
Tb227 C291 2.833 . S
N228 C220 1.360 . S
N228 Tb227 2.660 . S
N228 C229 1.305 . S
C229 N228 1.305 . S
C229 C231 1.407 . S
C229 H236 0.930 . S
C230 C218 1.410 . S
C230 C231 1.345 . S
C230 H238 0.930 . S
C231 C229 1.407 . S
C231 C230 1.345 . S
C231 H233 0.930 . S
H232 C225 0.930 . S
H233 C231 0.930 . S
H234 C222 0.930 . S
H235 C223 0.931 . S
H236 C229 0.930 . S
H237 C251 0.930 . S
H238 C230 0.930 . S
H239 C257 0.930 . S
H240 C248 0.930 . S
H241 C255 0.931 . S
H242 C219 0.929 . S
H243 C249 0.930 . S
H244 C282 0.930 . S
H245 C226 0.930 . S
H246 C281 0.929 . S
N247 Tb216 2.660 . S
N247 C248 1.305 . S
N247 C252 1.360 . S
C248 H240 0.930 . S
C248 N247 1.305 . S
C248 C251 1.407 . S
C249 H243 0.930 . S
C249 C250 1.410 . S
C249 C251 1.345 . S
C250 C249 1.410 . S
C250 C252 1.417 . S
C250 C282 1.432 . S
C251 H237 0.930 . S
C251 C248 1.407 . S
C251 C249 1.345 . S
C252 N247 1.360 . S
C252 C250 1.417 . S
C252 C256 1.432 . S
H253 C258 0.930 . S
N254 Tb216 2.600 . S
N254 C256 1.359 . S
N254 C257 1.327 . S
C255 H241 0.931 . S
C255 C257 1.392 . S
C255 C258 1.370 . S
C256 C252 1.432 . S
C256 N254 1.359 . S
C256 C259 1.414 . S
C257 H239 0.930 . S
C257 N254 1.327 . S
C257 C255 1.392 . S
C258 H253 0.930 . S
C258 C255 1.370 . S
C258 C259 1.385 . S
C259 C256 1.414 . S
C259 C258 1.385 . S
C259 C281 1.444 . S
O260 Tb216 2.546 . S
O260 C280 1.241 1_565 S
O261 Tb216 2.610 1_544 S
O261 Tb227 2.362 . S
O261 C272 1.283 1_554 S
O262 Tb227 2.421 . S
O262 C279 1.262 . S
O263 Tb216 2.320 1_545 S
O263 C279 1.260 1_556 S
O264 Tb216 2.552 1_545 S
O264 C272 1.243 . S
O265 Tb216 2.413 1_545 S
O265 C280 1.264 . S
O266 Tb227 2.546 . S
O266 C291 1.251 . S
O267 Tb216 2.362 1_554 S
O267 Tb227 2.610 1_565 S
O267 C283 1.283 . S
O268 Tb216 2.419 . S
O268 C290 1.265 1_556 S
O269 Tb227 2.320 1_565 S
O269 C290 1.260 . S
O270 Tb227 2.552 1_565 S
O270 C283 1.243 . S
O271 Tb227 2.413 1_565 S
O271 C291 1.256 1_565 S
C272 O261 1.283 1_556 S
C272 O264 1.243 . S
C273 C275 1.382 . S
C273 C277 1.393 1_545 S
C273 C280 1.501 . S
C274 C275 1.400 . S
C274 C276 1.384 . S
C275 C273 1.382 . S
C275 C274 1.400 . S
C275 H292 0.930 . S
C276 C274 1.384 . S
C276 C278 1.392 1_545 S
C276 H293 0.931 . S
C277 C273 1.393 1_565 S
C277 C278 1.401 . S
C277 H294 0.930 . S
C278 C276 1.392 1_565 S
C278 C277 1.401 . S
C278 H295 0.930 . S
C279 O262 1.262 . S
C279 O263 1.260 1_554 S
C280 Tb216 2.832 1_545 S
C280 O260 1.241 1_545 S
C280 O265 1.264 . S
C280 C273 1.501 . S
C281 H246 0.929 . S
C281 C259 1.444 . S
C281 C282 1.317 . S
C282 H244 0.930 . S
C282 C250 1.432 . S
C282 C281 1.317 . S
C283 O267 1.283 . S
C283 O270 1.243 . S
C284 C285 1.382 1_545 S
C284 C288 1.393 . S
C284 C291 1.500 . S
C285 C284 1.382 1_565 S
C285 C286 1.400 . S
C285 H296 0.930 . S
C286 C285 1.400 . S
C286 C287 1.384 . S
C287 C286 1.384 . S
C287 C289 1.392 1_565 S
C287 H297 0.931 . S
C288 C284 1.393 . S
C288 C289 1.401 . S
C288 H298 0.930 . S
C289 C287 1.392 1_545 S
C289 C288 1.401 . S
C289 H299 0.930 . S
C290 O268 1.265 1_554 S
C290 O269 1.260 . S
C291 Tb227 2.833 . S
C291 O266 1.251 . S
C291 O271 1.256 1_545 S
C291 C284 1.500 . S
H292 C275 0.930 . S
H293 C276 0.931 . S
H294 C277 0.930 . S
H295 C278 0.930 . S
H296 C285 0.930 . S
H297 C287 0.931 . S
H298 C288 0.930 . S
H299 C289 0.930 . S
Tb300 N331 2.660 . S
Tb300 N338 2.600 . S
Tb300 O344 2.546 . S
Tb300 O345 2.610 1_456 S
Tb300 O347 2.320 1_455 S
Tb300 O348 2.552 1_455 S
Tb300 O349 2.419 . S
Tb300 O351 2.362 1_556 S
Tb300 O352 2.393 1_556 S
Tb300 C364 2.833 . S
C301 C304 1.432 . S
C301 C305 1.414 . S
C301 N308 1.359 . S
C302 C304 1.417 . S
C302 C306 1.432 . S
C302 C314 1.410 . S
C303 C305 1.444 . S
C303 C306 1.317 . S
C303 H326 0.929 . S
C304 C301 1.432 . S
C304 C302 1.417 . S
C304 N312 1.360 . S
C305 C301 1.414 . S
C305 C303 1.444 . S
C305 C310 1.385 . S
C306 C302 1.432 . S
C306 C303 1.317 . S
C306 H318 0.930 . S
C307 C309 1.392 . S
C307 C310 1.370 . S
C307 H319 0.931 . S
N308 C301 1.359 . S
N308 C309 1.327 . S
N308 Tb311 2.600 . S
C309 C307 1.392 . S
C309 N308 1.327 . S
C309 H316 0.930 . S
C310 C305 1.385 . S
C310 C307 1.370 . S
C310 H329 0.930 . S
Tb311 N308 2.600 . S
Tb311 N312 2.660 . S
Tb311 O345 2.362 . S
Tb311 O346 2.421 . S
Tb311 O350 2.546 . S
Tb311 O351 2.610 1_655 S
Tb311 O353 2.320 1_655 S
Tb311 O354 2.552 1_655 S
Tb311 O355 2.413 1_655 S
Tb311 C375 2.833 . S
N312 C304 1.360 . S
N312 Tb311 2.660 . S
N312 C313 1.305 . S
C313 N312 1.305 . S
C313 C315 1.407 . S
C313 H320 0.930 . S
C314 C302 1.410 . S
C314 C315 1.345 . S
C314 H322 0.930 . S
C315 C313 1.407 . S
C315 C314 1.345 . S
C315 H317 0.930 . S
H316 C309 0.930 . S
H317 C315 0.930 . S
H318 C306 0.930 . S
H319 C307 0.931 . S
H320 C313 0.930 . S
H321 C335 0.930 . S
H322 C314 0.930 . S
H323 C341 0.930 . S
H324 C332 0.930 . S
H325 C339 0.931 . S
H326 C303 0.929 . S
H327 C333 0.930 . S
H328 C366 0.930 . S
H329 C310 0.930 . S
H330 C365 0.929 . S
N331 Tb300 2.660 . S
N331 C332 1.305 . S
N331 C336 1.360 . S
C332 H324 0.930 . S
C332 N331 1.305 . S
C332 C335 1.407 . S
C333 H327 0.930 . S
C333 C334 1.410 . S
C333 C335 1.345 . S
C334 C333 1.410 . S
C334 C336 1.417 . S
C334 C366 1.432 . S
C335 H321 0.930 . S
C335 C332 1.407 . S
C335 C333 1.345 . S
C336 N331 1.360 . S
C336 C334 1.417 . S
C336 C340 1.432 . S
H337 C342 0.930 . S
N338 Tb300 2.600 . S
N338 C340 1.359 . S
N338 C341 1.327 . S
C339 H325 0.931 . S
C339 C341 1.392 . S
C339 C342 1.370 . S
C340 C336 1.432 . S
C340 N338 1.359 . S
C340 C343 1.414 . S
C341 H323 0.930 . S
C341 N338 1.327 . S
C341 C339 1.392 . S
C342 H337 0.930 . S
C342 C339 1.370 . S
C342 C343 1.385 . S
C343 C340 1.414 . S
C343 C342 1.385 . S
C343 C365 1.444 . S
O344 Tb300 2.546 . S
O344 C364 1.251 . S
O345 Tb300 2.610 1_654 S
O345 Tb311 2.362 . S
O345 C356 1.283 1_554 S
O346 Tb311 2.421 . S
O346 C363 1.262 . S
O347 Tb300 2.320 1_655 S
O347 C363 1.260 1_556 S
O348 Tb300 2.552 1_655 S
O348 C356 1.243 . S
O349 Tb300 2.419 . S
O349 C364 1.255 . S
O350 Tb311 2.546 . S
O350 C375 1.251 . S
O351 Tb300 2.362 1_554 S
O351 Tb311 2.610 1_455 S
O351 C367 1.283 . S
O352 Tb300 2.393 1_554 S
O352 C374 1.317 . S
O353 Tb311 2.320 1_455 S
O353 C374 1.260 . S
O354 Tb311 2.552 1_455 S
O354 C367 1.243 . S
O355 Tb311 2.413 1_455 S
O355 C375 1.256 1_455 S
C356 O345 1.283 1_556 S
C356 O348 1.243 . S
C357 C359 1.382 1_455 S
C357 C361 1.393 . S
C357 C364 1.500 . S
C358 C359 1.400 . S
C358 C360 1.384 . S
C359 C357 1.382 1_655 S
C359 C358 1.400 . S
C359 H376 0.930 . S
C360 C358 1.384 . S
C360 C362 1.392 1_655 S
C360 H377 0.931 . S
C361 C357 1.393 . S
C361 C362 1.401 . S
C361 H378 0.930 . S
C362 C360 1.392 1_455 S
C362 C361 1.401 . S
C362 H379 0.930 . S
C363 O346 1.262 . S
C363 O347 1.260 1_554 S
C364 Tb300 2.833 . S
C364 O344 1.251 . S
C364 O349 1.255 . S
C364 C357 1.500 . S
C365 H330 0.929 . S
C365 C343 1.444 . S
C365 C366 1.317 . S
C366 H328 0.930 . S
C366 C334 1.432 . S
C366 C365 1.317 . S
C367 O351 1.283 . S
C367 O354 1.243 . S
C368 C369 1.382 . S
C368 C372 1.393 1_455 S
C368 C375 1.500 1_455 S
C369 C368 1.382 . S
C369 C370 1.400 . S
C369 H380 0.930 . S
C370 C369 1.400 . S
C370 C371 1.384 . S
C371 C370 1.384 . S
C371 C373 1.392 1_455 S
C371 H381 0.931 . S
C372 C368 1.393 1_655 S
C372 C373 1.401 . S
C372 H382 0.930 . S
C373 C371 1.392 1_655 S
C373 C372 1.401 . S
C373 H383 0.930 . S
C374 O352 1.317 . S
C374 O353 1.260 . S
C375 Tb311 2.833 . S
C375 O350 1.251 . S
C375 O355 1.256 1_655 S
C375 C368 1.500 1_655 S
H376 C359 0.930 . S
H377 C360 0.931 . S
H378 C361 0.930 . S
H379 C362 0.930 . S
H380 C369 0.930 . S
H381 C371 0.931 . S
H382 C372 0.930 . S
H383 C373 0.930 . S
Tb384 N415 2.660 . S
Tb384 N422 2.600 . S
Tb384 O428 2.546 . S
Tb384 O429 2.610 . S
Tb384 O431 2.320 . S
Tb384 O432 2.552 . S
Tb384 O433 2.413 . S
Tb384 O435 2.362 . S
Tb384 O436 2.421 . S
Tb384 C448 2.833 . S
C385 C388 1.432 . S
C385 C389 1.414 . S
C385 N392 1.359 . S
C386 C388 1.417 . S
C386 C390 1.432 . S
C386 C398 1.410 . S
C387 C389 1.444 . S
C387 C390 1.317 . S
C387 H410 0.929 . S
C388 C385 1.432 . S
C388 C386 1.417 . S
C388 N396 1.360 . S
C389 C385 1.414 . S
C389 C387 1.444 . S
C389 C394 1.385 . S
C390 C386 1.432 . S
C390 C387 1.317 . S
C390 H402 0.930 . S
C391 C393 1.392 . S
C391 C394 1.370 . S
C391 H403 0.931 . S
N392 C385 1.359 . S
N392 C393 1.327 . S
N392 Tb395 2.600 . S
C393 C391 1.392 . S
C393 N392 1.327 . S
C393 H400 0.930 . S
C394 C389 1.385 . S
C394 C391 1.370 . S
C394 H413 0.930 . S
Tb395 N392 2.600 . S
Tb395 N396 2.660 . S
Tb395 O429 2.362 1_556 S
Tb395 O430 2.421 1_556 S
Tb395 O434 2.546 . S
Tb395 O435 2.610 1_556 S
Tb395 O437 2.320 . S
Tb395 O438 2.552 . S
Tb395 O439 2.413 . S
Tb395 C459 2.833 . S
N396 C388 1.360 . S
N396 Tb395 2.660 . S
N396 C397 1.305 . S
C397 N396 1.305 . S
C397 C399 1.407 . S
C397 H404 0.930 . S
C398 C386 1.410 . S
C398 C399 1.345 . S
C398 H406 0.930 . S
C399 C397 1.407 . S
C399 C398 1.345 . S
C399 H401 0.930 . S
H400 C393 0.930 . S
H401 C399 0.930 . S
H402 C390 0.930 . S
H403 C391 0.931 . S
H404 C397 0.930 . S
H405 C419 0.930 . S
H406 C398 0.930 . S
H407 C425 0.930 . S
H408 C416 0.930 . S
H409 C423 0.931 . S
H410 C387 0.929 . S
H411 C417 0.930 . S
H412 C450 0.930 . S
H413 C394 0.930 . S
H414 C449 0.929 . S
N415 Tb384 2.660 . S
N415 C416 1.305 . S
N415 C420 1.360 . S
C416 H408 0.930 . S
C416 N415 1.305 . S
C416 C419 1.407 . S
C417 H411 0.930 . S
C417 C418 1.410 . S
C417 C419 1.345 . S
C418 C417 1.410 . S
C418 C420 1.417 . S
C418 C450 1.432 . S
C419 H405 0.930 . S
C419 C416 1.407 . S
C419 C417 1.345 . S
C420 N415 1.360 . S
C420 C418 1.417 . S
C420 C424 1.432 . S
H421 C426 0.930 . S
N422 Tb384 2.600 . S
N422 C424 1.359 . S
N422 C425 1.327 . S
C423 H409 0.931 . S
C423 C425 1.392 . S
C423 C426 1.370 . S
C424 C420 1.432 . S
C424 N422 1.359 . S
C424 C427 1.414 . S
C425 H407 0.930 . S
C425 N422 1.327 . S
C425 C423 1.392 . S
C426 H421 0.930 . S
C426 C423 1.370 . S
C426 C427 1.385 . S
C427 C424 1.414 . S
C427 C426 1.385 . S
C427 C449 1.444 . S
O428 Tb384 2.546 . S
O428 C448 1.251 . S
O429 Tb384 2.610 . S
O429 Tb395 2.362 1_554 S
O429 C440 1.283 . S
O430 Tb395 2.421 1_554 S
O430 C447 1.262 . S
O431 Tb384 2.320 . S
O431 C447 1.260 . S
O432 Tb384 2.552 . S
O432 C440 1.243 . S
O433 Tb384 2.413 . S
O433 C448 1.256 . S
O434 Tb395 2.546 . S
O434 C459 1.251 . S
O435 Tb384 2.362 . S
O435 Tb395 2.610 1_554 S
O435 C451 1.283 1_554 S
O436 Tb384 2.421 . S
O436 C458 1.262 . S
O437 Tb395 2.320 . S
O437 C458 1.260 1_556 S
O438 Tb395 2.552 . S
O438 C451 1.243 . S
O439 Tb395 2.413 . S
O439 C459 1.256 . S
C440 O429 1.283 . S
C440 O432 1.243 . S
C441 C443 1.382 . S
C441 C445 1.393 . S
C441 C448 1.500 . S
C442 C443 1.400 . S
C442 C444 1.384 . S
C443 C441 1.382 . S
C443 C442 1.400 . S
C443 H460 0.930 . S
C444 C442 1.384 . S
C444 C446 1.392 . S
C444 H461 0.931 . S
C445 C441 1.393 . S
C445 C446 1.401 . S
C445 H462 0.930 . S
C446 C444 1.392 . S
C446 C445 1.401 . S
C446 H463 0.930 . S
C447 O430 1.262 . S
C447 O431 1.260 . S
C448 Tb384 2.833 . S
C448 O428 1.251 . S
C448 O433 1.256 . S
C448 C441 1.500 . S
C449 H414 0.929 . S
C449 C427 1.444 . S
C449 C450 1.317 . S
C450 H412 0.930 . S
C450 C418 1.432 . S
C450 C449 1.317 . S
C451 O435 1.283 1_556 S
C451 O438 1.243 . S
C452 C453 1.382 . S
C452 C456 1.393 . S
C452 C459 1.500 . S
C453 C452 1.382 . S
C453 C454 1.400 . S
C453 H464 0.930 . S
C454 C453 1.400 . S
C454 C455 1.384 . S
C455 C454 1.384 . S
C455 C457 1.392 . S
C455 H465 0.931 . S
C456 C452 1.393 . S
C456 C457 1.401 . S
C456 H466 0.930 . S
C457 C455 1.392 . S
C457 C456 1.401 . S
C457 H467 0.930 . S
C458 O436 1.262 . S
C458 O437 1.260 1_554 S
C459 Tb395 2.833 . S
C459 O434 1.251 . S
C459 O439 1.256 . S
C459 C452 1.500 . S
H460 C443 0.930 . S
H461 C444 0.931 . S
H462 C445 0.930 . S
H463 C446 0.930 . S
H464 C453 0.930 . S
H465 C455 0.931 . S
H466 C456 0.930 . S
H467 C457 0.930 . S
Tb468 N499 2.660 . S
Tb468 N506 2.600 . S
Tb468 O512 2.546 . S
Tb468 O513 2.610 . S
Tb468 O515 2.320 . S
Tb468 O516 2.552 . S
Tb468 O517 2.413 . S
Tb468 O519 2.362 . S
Tb468 O520 2.421 . S
Tb468 C532 2.833 . S
C469 C472 1.432 . S
C469 C473 1.414 . S
C469 N476 1.359 . S
C470 C472 1.417 . S
C470 C474 1.432 . S
C470 C482 1.410 . S
C471 C473 1.444 . S
C471 C474 1.317 . S
C471 H494 0.929 . S
C472 C469 1.432 . S
C472 C470 1.417 . S
C472 N480 1.360 . S
C473 C469 1.414 . S
C473 C471 1.444 . S
C473 C478 1.385 . S
C474 C470 1.432 . S
C474 C471 1.317 . S
C474 H486 0.930 . S
C475 C477 1.392 . S
C475 C478 1.370 . S
C475 H487 0.931 . S
N476 C469 1.359 . S
N476 C477 1.327 . S
N476 Tb479 2.600 . S
C477 C475 1.392 . S
C477 N476 1.327 . S
C477 H484 0.930 . S
C478 C473 1.385 . S
C478 C475 1.370 . S
C478 H497 0.930 . S
Tb479 N476 2.600 . S
Tb479 N480 2.660 . S
Tb479 O513 2.362 . S
Tb479 O514 2.421 . S
Tb479 O518 2.546 . S
Tb479 O519 2.610 . S
Tb479 O521 2.320 . S
Tb479 O522 2.552 . S
Tb479 O523 2.413 . S
Tb479 C543 2.833 . S
N480 C472 1.360 . S
N480 Tb479 2.660 . S
N480 C481 1.305 . S
C481 N480 1.305 . S
C481 C483 1.407 . S
C481 H488 0.930 . S
C482 C470 1.410 . S
C482 C483 1.345 . S
C482 H490 0.930 . S
C483 C481 1.407 . S
C483 C482 1.345 . S
C483 H485 0.930 . S
H484 C477 0.930 . S
H485 C483 0.930 . S
H486 C474 0.930 . S
H487 C475 0.931 . S
H488 C481 0.930 . S
H489 C503 0.930 . S
H490 C482 0.930 . S
H491 C509 0.930 . S
H492 C500 0.930 . S
H493 C507 0.931 . S
H494 C471 0.929 . S
H495 C501 0.936 . S
H496 C534 0.930 . S
H497 C478 0.930 . S
H498 C533 0.929 . S
N499 Tb468 2.660 . S
N499 C500 1.305 . S
N499 C504 1.360 . S
C500 H492 0.930 . S
C500 N499 1.305 . S
C500 C503 1.407 . S
C501 H495 0.936 . S
C501 C502 1.410 . S
C501 C503 1.345 . S
C502 C501 1.410 . S
C502 C504 1.417 . S
C502 C534 1.432 . S
C503 H489 0.930 . S
C503 C500 1.407 . S
C503 C501 1.345 . S
C504 N499 1.360 . S
C504 C502 1.417 . S
C504 C508 1.432 . S
H505 C510 0.930 . S
N506 Tb468 2.600 . S
N506 C508 1.359 . S
N506 C509 1.327 . S
C507 H493 0.931 . S
C507 C509 1.392 . S
C507 C510 1.370 . S
C508 C504 1.432 . S
C508 N506 1.359 . S
C508 C511 1.414 . S
C509 H491 0.930 . S
C509 N506 1.327 . S
C509 C507 1.392 . S
C510 H505 0.930 . S
C510 C507 1.370 . S
C510 C511 1.385 . S
C511 C508 1.414 . S
C511 C510 1.385 . S
C511 C533 1.444 . S
O512 Tb468 2.546 . S
O512 C532 1.251 . S
O513 Tb468 2.610 . S
O513 Tb479 2.362 . S
O513 C524 1.283 . S
O514 Tb479 2.421 . S
O514 C531 1.262 . S
O515 Tb468 2.320 . S
O515 C531 1.260 . S
O516 Tb468 2.552 . S
O516 C524 1.243 . S
O517 Tb468 2.413 . S
O517 C532 1.256 . S
O518 Tb479 2.546 . S
O518 C543 1.251 . S
O519 Tb468 2.362 . S
O519 Tb479 2.610 . S
O519 C535 1.283 . S
O520 Tb468 2.421 . S
O520 C542 1.262 . S
O521 Tb479 2.320 . S
O521 C542 1.260 . S
O522 Tb479 2.552 . S
O522 C535 1.243 . S
O523 Tb479 2.413 . S
O523 C543 1.256 . S
C524 O513 1.283 . S
C524 O516 1.243 . S
C525 C527 1.382 . S
C525 C529 1.393 . S
C525 C532 1.500 . S
C526 C527 1.400 . S
C526 C528 1.384 . S
C527 C525 1.382 . S
C527 C526 1.400 . S
C527 H544 0.930 . S
C528 C526 1.384 . S
C528 C530 1.392 . S
C528 H545 0.931 . S
C529 C525 1.393 . S
C529 C530 1.401 . S
C529 H546 0.930 . S
C530 C528 1.392 . S
C530 C529 1.401 . S
C530 H547 0.930 . S
C531 O514 1.262 . S
C531 O515 1.260 . S
C532 Tb468 2.833 . S
C532 O512 1.251 . S
C532 O517 1.256 . S
C532 C525 1.500 . S
C533 H498 0.929 . S
C533 C511 1.444 . S
C533 C534 1.317 . S
C534 H496 0.930 . S
C534 C502 1.432 . S
C534 C533 1.317 . S
C535 O519 1.283 . S
C535 O522 1.243 . S
C536 C537 1.382 . S
C536 C540 1.393 . S
C536 C543 1.500 . S
C537 C536 1.382 . S
C537 C538 1.400 . S
C537 H548 0.930 . S
C538 C537 1.400 . S
C538 C539 1.384 . S
C539 C538 1.384 . S
C539 C541 1.392 . S
C539 H549 0.931 . S
C540 C536 1.393 . S
C540 C541 1.401 . S
C540 H550 0.930 . S
C541 C539 1.392 . S
C541 C540 1.401 . S
C541 H551 0.930 . S
C542 O520 1.262 . S
C542 O521 1.260 . S
C543 Tb479 2.833 . S
C543 O518 1.251 . S
C543 O523 1.256 . S
C543 C536 1.500 . S
H544 C527 0.930 . S
H545 C528 0.931 . S
H546 C529 0.930 . S
H547 C530 0.930 . S
H548 C537 0.930 . S
H549 C539 0.931 . S
H550 C540 0.930 . S
H551 C541 0.930 . S
Tb552 N583 2.660 . S
Tb552 N590 2.600 . S
Tb552 O596 2.546 . S
Tb552 O597 2.610 . S
Tb552 O599 2.320 . S
Tb552 O600 2.552 . S
Tb552 O601 2.413 . S
Tb552 O603 2.362 . S
Tb552 O604 2.421 . S
Tb552 C616 2.833 . S
C553 C556 1.432 . S
C553 C557 1.414 . S
C553 N560 1.359 . S
C554 C556 1.417 . S
C554 C558 1.432 . S
C554 C566 1.410 . S
C555 C557 1.444 . S
C555 C558 1.317 . S
C555 H578 0.929 . S
C556 C553 1.432 . S
C556 C554 1.417 . S
C556 N564 1.360 . S
C557 C553 1.414 . S
C557 C555 1.444 . S
C557 C562 1.385 . S
C558 C554 1.432 . S
C558 C555 1.317 . S
C558 H570 0.930 . S
C559 C561 1.392 . S
C559 C562 1.370 . S
C559 H571 0.931 . S
N560 C553 1.359 . S
N560 C561 1.327 . S
N560 Tb563 2.600 . S
C561 C559 1.392 . S
C561 N560 1.327 . S
C561 H568 0.930 . S
C562 C557 1.385 . S
C562 C559 1.370 . S
C562 H581 0.930 . S
Tb563 N560 2.600 . S
Tb563 N564 2.660 . S
Tb563 O597 2.362 . S
Tb563 O598 2.421 . S
Tb563 O602 2.546 . S
Tb563 O603 2.610 . S
Tb563 O605 2.320 . S
Tb563 O606 2.552 . S
Tb563 O607 2.413 . S
Tb563 C627 2.833 . S
N564 C556 1.360 . S
N564 Tb563 2.660 . S
N564 C565 1.305 . S
C565 N564 1.305 . S
C565 C567 1.407 . S
C565 H572 0.930 . S
C566 C554 1.410 . S
C566 C567 1.345 . S
C566 H574 0.930 . S
C567 C565 1.407 . S
C567 C566 1.345 . S
C567 H569 0.930 . S
H568 C561 0.930 . S
H569 C567 0.930 . S
H570 C558 0.930 . S
H571 C559 0.931 . S
H572 C565 0.930 . S
H573 C587 0.930 . S
H574 C566 0.930 . S
H575 C593 0.930 . S
H576 C584 0.930 . S
H577 C591 0.931 . S
H578 C555 0.929 . S
H579 C585 0.930 . S
H580 C618 0.930 . S
H581 C562 0.930 . S
H582 C617 0.929 . S
N583 Tb552 2.660 . S
N583 C584 1.305 . S
N583 C588 1.360 . S
C584 H576 0.930 . S
C584 N583 1.305 . S
C584 C587 1.407 . S
C585 H579 0.930 . S
C585 C586 1.410 . S
C585 C587 1.345 . S
C586 C585 1.410 . S
C586 C588 1.417 . S
C586 C618 1.432 . S
C587 H573 0.930 . S
C587 C584 1.407 . S
C587 C585 1.345 . S
C588 N583 1.360 . S
C588 C586 1.417 . S
C588 C592 1.432 . S
H589 C594 0.930 . S
N590 Tb552 2.600 . S
N590 C592 1.359 . S
N590 C593 1.327 . S
C591 H577 0.931 . S
C591 C593 1.392 . S
C591 C594 1.370 . S
C592 C588 1.432 . S
C592 N590 1.359 . S
C592 C595 1.414 . S
C593 H575 0.930 . S
C593 N590 1.327 . S
C593 C591 1.392 . S
C594 H589 0.930 . S
C594 C591 1.370 . S
C594 C595 1.385 . S
C595 C592 1.414 . S
C595 C594 1.385 . S
C595 C617 1.444 . S
O596 Tb552 2.546 . S
O596 C616 1.251 . S
O597 Tb552 2.610 . S
O597 Tb563 2.362 . S
O597 C608 1.283 . S
O598 Tb563 2.421 . S
O598 C615 1.262 . S
O599 Tb552 2.320 . S
O599 C615 1.260 . S
O600 Tb552 2.552 . S
O600 C608 1.243 . S
O601 Tb552 2.413 . S
O601 C616 1.256 . S
O602 Tb563 2.546 . S
O602 C627 1.251 . S
O603 Tb552 2.362 . S
O603 Tb563 2.610 . S
O603 C619 1.283 . S
O604 Tb552 2.421 . S
O604 C626 1.262 . S
O605 Tb563 2.320 . S
O605 C626 1.260 . S
O606 Tb563 2.552 . S
O606 C619 1.243 . S
O607 Tb563 2.413 . S
O607 C627 1.256 . S
C608 O597 1.283 . S
C608 O600 1.243 . S
C609 C611 1.382 . S
C609 C613 1.393 . S
C609 C616 1.500 . S
C610 C611 1.400 . S
C610 C612 1.384 . S
C611 C609 1.382 . S
C611 C610 1.400 . S
C611 H628 0.930 . S
C612 C610 1.384 . S
C612 C614 1.392 . S
C612 H629 0.931 . S
C613 C609 1.393 . S
C613 C614 1.401 . S
C613 H630 0.930 . S
C614 C612 1.392 . S
C614 C613 1.401 . S
C614 H631 0.930 . S
C615 O598 1.262 . S
C615 O599 1.260 . S
C616 Tb552 2.833 . S
C616 O596 1.251 . S
C616 O601 1.256 . S
C616 C609 1.500 . S
C617 H582 0.929 . S
C617 C595 1.444 . S
C617 C618 1.317 . S
C618 H580 0.930 . S
C618 C586 1.432 . S
C618 C617 1.317 . S
C619 O603 1.283 . S
C619 O606 1.243 . S
C620 C621 1.382 . S
C620 C624 1.393 . S
C620 C627 1.500 . S
C621 C620 1.382 . S
C621 C622 1.400 . S
C621 H632 0.930 . S
C622 C621 1.400 . S
C622 C623 1.384 . S
C623 C622 1.384 . S
C623 C625 1.392 . S
C623 H633 0.931 . S
C624 C620 1.393 . S
C624 C625 1.401 . S
C624 H634 0.930 . S
C625 C623 1.392 . S
C625 C624 1.401 . S
C625 H635 0.930 . S
C626 O604 1.262 . S
C626 O605 1.260 . S
C627 Tb563 2.833 . S
C627 O602 1.251 . S
C627 O607 1.256 . S
C627 C620 1.500 . S
H628 C611 0.930 . S
H629 C612 0.931 . S
H630 C613 0.930 . S
H631 C614 0.930 . S
H632 C621 0.930 . S
H633 C623 0.931 . S
H634 C624 0.930 . S
H635 C625 0.930 . S
Tb636 N667 2.660 . S
Tb636 N674 2.600 . S
Tb636 O680 2.546 . S
Tb636 O681 2.610 . S
Tb636 O683 2.320 . S
Tb636 O684 2.552 . S
Tb636 O685 2.413 . S
Tb636 O687 2.362 . S
Tb636 O688 2.421 . S
Tb636 C700 2.833 . S
C637 C640 1.432 . S
C637 C641 1.414 . S
C637 N644 1.359 . S
C638 C640 1.417 . S
C638 C642 1.432 . S
C638 C650 1.410 . S
C639 C641 1.444 . S
C639 C642 1.317 . S
C639 H662 0.929 . S
C640 C637 1.432 . S
C640 C638 1.417 . S
C640 N648 1.360 . S
C641 C637 1.414 . S
C641 C639 1.444 . S
C641 C646 1.385 . S
C642 C638 1.432 . S
C642 C639 1.317 . S
C642 H654 0.930 . S
C643 C645 1.392 . S
C643 C646 1.370 . S
C643 H655 0.931 . S
N644 C637 1.359 . S
N644 C645 1.327 . S
N644 Tb647 2.600 . S
C645 C643 1.392 . S
C645 N644 1.327 . S
C645 H652 0.930 . S
C646 C641 1.385 . S
C646 C643 1.370 . S
C646 H665 0.930 . S
Tb647 N644 2.600 . S
Tb647 N648 2.660 . S
Tb647 O681 2.362 . S
Tb647 O682 2.421 . S
Tb647 O686 2.546 . S
Tb647 O687 2.610 . S
Tb647 O689 2.320 . S
Tb647 O690 2.552 . S
Tb647 O691 2.413 . S
Tb647 C711 2.833 . S
N648 C640 1.360 . S
N648 Tb647 2.660 . S
N648 C649 1.305 . S
C649 N648 1.305 . S
C649 C651 1.407 . S
C649 H656 0.930 . S
C650 C638 1.410 . S
C650 C651 1.345 . S
C650 H658 0.930 . S
C651 C649 1.407 . S
C651 C650 1.345 . S
C651 H653 0.930 . S
H652 C645 0.930 . S
H653 C651 0.930 . S
H654 C642 0.930 . S
H655 C643 0.931 . S
H656 C649 0.930 . S
H657 C671 0.930 . S
H658 C650 0.930 . S
H659 C677 0.930 . S
H660 C668 0.930 . S
H661 C675 0.931 . S
H662 C639 0.929 . S
H663 C669 0.930 . S
H664 C702 0.930 . S
H665 C646 0.930 . S
H666 C701 0.929 . S
N667 Tb636 2.660 . S
N667 C668 1.305 . S
N667 C672 1.360 . S
C668 H660 0.930 . S
C668 N667 1.305 . S
C668 C671 1.407 . S
C669 H663 0.930 . S
C669 C670 1.410 . S
C669 C671 1.345 . S
C670 C669 1.410 . S
C670 C672 1.417 . S
C670 C702 1.432 . S
C671 H657 0.930 . S
C671 C668 1.407 . S
C671 C669 1.345 . S
C672 N667 1.360 . S
C672 C670 1.417 . S
C672 C676 1.432 . S
H673 C678 0.930 . S
N674 Tb636 2.600 . S
N674 C676 1.359 . S
N674 C677 1.327 . S
C675 H661 0.931 . S
C675 C677 1.392 . S
C675 C678 1.370 . S
C676 C672 1.432 . S
C676 N674 1.359 . S
C676 C679 1.414 . S
C677 H659 0.930 . S
C677 N674 1.327 . S
C677 C675 1.392 . S
C678 H673 0.930 . S
C678 C675 1.370 . S
C678 C679 1.385 . S
C679 C676 1.414 . S
C679 C678 1.385 . S
C679 C701 1.444 . S
O680 Tb636 2.546 . S
O680 C700 1.251 . S
O681 Tb636 2.610 . S
O681 Tb647 2.362 . S
O681 C692 1.283 . S
O682 Tb647 2.421 . S
O682 C699 1.262 . S
O683 Tb636 2.320 . S
O683 C699 1.260 . S
O684 Tb636 2.552 . S
O684 C692 1.243 . S
O685 Tb636 2.413 . S
O685 C700 1.256 . S
O686 Tb647 2.546 . S
O686 C711 1.251 . S
O687 Tb636 2.362 . S
O687 Tb647 2.610 . S
O687 C703 1.283 . S
O688 Tb636 2.421 . S
O688 C710 1.262 . S
O689 Tb647 2.320 . S
O689 C710 1.260 . S
O690 Tb647 2.552 . S
O690 C703 1.243 . S
O691 Tb647 2.413 . S
O691 C711 1.256 . S
C692 O681 1.283 . S
C692 O684 1.243 . S
C693 C695 1.382 . S
C693 C697 1.393 . S
C693 C700 1.500 . S
C694 C695 1.400 . S
C694 C696 1.384 . S
C695 C693 1.382 . S
C695 C694 1.400 . S
C695 H712 0.930 . S
C696 C694 1.384 . S
C696 C698 1.392 . S
C696 H713 0.931 . S
C697 C693 1.393 . S
C697 C698 1.401 . S
C697 H714 0.930 . S
C698 C696 1.392 . S
C698 C697 1.401 . S
C698 H715 0.930 . S
C699 O682 1.262 . S
C699 O683 1.260 . S
C700 Tb636 2.833 . S
C700 O680 1.251 . S
C700 O685 1.256 . S
C700 C693 1.500 . S
C701 H666 0.929 . S
C701 C679 1.444 . S
C701 C702 1.317 . S
C702 H664 0.930 . S
C702 C670 1.432 . S
C702 C701 1.317 . S
C703 O687 1.283 . S
C703 O690 1.243 . S
C704 C705 1.382 . S
C704 C708 1.393 . S
C704 C711 1.500 . S
C705 C704 1.382 . S
C705 C706 1.400 . S
C705 H716 0.930 . S
C706 C705 1.400 . S
C706 C707 1.384 . S
C707 C706 1.384 . S
C707 C709 1.392 . S
C707 H717 0.931 . S
C708 C704 1.393 . S
C708 C709 1.401 . S
C708 H718 0.930 . S
C709 C707 1.392 . S
C709 C708 1.401 . S
C709 H719 0.930 . S
C710 O688 1.262 . S
C710 O689 1.260 . S
C711 Tb647 2.833 . S
C711 O686 1.251 . S
C711 O691 1.256 . S
C711 C704 1.500 . S
H712 C695 0.930 . S
H713 C696 0.931 . S
H714 C697 0.930 . S
H715 C698 0.930 . S
H716 C705 0.930 . S
H717 C707 0.931 . S
H718 C708 0.930 . S
H719 C709 0.930 . S
Tb720 N751 2.660 . S
Tb720 N758 2.600 . S
Tb720 O764 2.546 . S
Tb720 O765 2.610 . S
Tb720 O767 2.320 . S
Tb720 O768 2.552 . S
Tb720 O769 2.413 . S
Tb720 O771 2.362 . S
Tb720 O772 2.421 . S
Tb720 C784 2.833 . S
C721 C724 1.432 . S
C721 C725 1.414 . S
C721 N728 1.359 . S
C722 C724 1.417 . S
C722 C726 1.432 . S
C722 C734 1.410 . S
C723 C725 1.444 . S
C723 C726 1.317 . S
C723 H746 0.929 . S
C724 C721 1.432 . S
C724 C722 1.417 . S
C724 N732 1.360 . S
C725 C721 1.414 . S
C725 C723 1.444 . S
C725 C730 1.385 . S
C726 C722 1.432 . S
C726 C723 1.317 . S
C726 H738 0.930 . S
C727 C729 1.392 . S
C727 C730 1.370 . S
C727 H739 0.931 . S
N728 C721 1.359 . S
N728 C729 1.327 . S
N728 Tb731 2.600 . S
C729 C727 1.392 . S
C729 N728 1.327 . S
C729 H736 0.930 . S
C730 C725 1.385 . S
C730 C727 1.370 . S
C730 H749 0.930 . S
Tb731 N728 2.600 . S
Tb731 N732 2.660 . S
Tb731 O765 2.362 . S
Tb731 O766 2.421 . S
Tb731 O770 2.546 . S
Tb731 O771 2.610 . S
Tb731 O773 2.320 . S
Tb731 O774 2.552 . S
Tb731 O775 2.413 . S
Tb731 C795 2.833 . S
N732 C724 1.360 . S
N732 Tb731 2.660 . S
N732 C733 1.305 . S
C733 N732 1.305 . S
C733 C735 1.407 . S
C733 H740 0.930 . S
C734 C722 1.410 . S
C734 C735 1.345 . S
C734 H742 0.930 . S
C735 C733 1.407 . S
C735 C734 1.345 . S
C735 H737 0.930 . S
H736 C729 0.930 . S
H737 C735 0.930 . S
H738 C726 0.930 . S
H739 C727 0.931 . S
H740 C733 0.930 . S
H741 C755 0.930 . S
H742 C734 0.930 . S
H743 C761 0.930 . S
H744 C752 0.930 . S
H745 C759 0.931 . S
H746 C723 0.929 . S
H747 C753 0.930 . S
H748 C786 0.930 . S
H749 C730 0.930 . S
H750 C785 0.929 . S
N751 Tb720 2.660 . S
N751 C752 1.305 . S
N751 C756 1.360 . S
C752 H744 0.930 . S
C752 N751 1.305 . S
C752 C755 1.407 . S
C753 H747 0.930 . S
C753 C754 1.410 . S
C753 C755 1.345 . S
C754 C753 1.410 . S
C754 C756 1.417 . S
C754 C786 1.432 . S
C755 H741 0.930 . S
C755 C752 1.407 . S
C755 C753 1.345 . S
C756 N751 1.360 . S
C756 C754 1.417 . S
C756 C760 1.432 . S
H757 C762 0.930 . S
N758 Tb720 2.600 . S
N758 C760 1.359 . S
N758 C761 1.327 . S
C759 H745 0.931 . S
C759 C761 1.392 . S
C759 C762 1.370 . S
C760 C756 1.432 . S
C760 N758 1.359 . S
C760 C763 1.414 . S
C761 H743 0.930 . S
C761 N758 1.327 . S
C761 C759 1.392 . S
C762 H757 0.930 . S
C762 C759 1.370 . S
C762 C763 1.385 . S
C763 C760 1.414 . S
C763 C762 1.385 . S
C763 C785 1.444 . S
O764 Tb720 2.546 . S
O764 C784 1.251 . S
O765 Tb720 2.610 . S
O765 Tb731 2.362 . S
O765 C776 1.283 . S
O766 Tb731 2.421 . S
O766 C783 1.262 . S
O767 Tb720 2.320 . S
O767 C783 1.260 . S
O768 Tb720 2.552 . S
O768 C776 1.243 . S
O769 Tb720 2.413 . S
O769 C784 1.256 . S
O770 Tb731 2.546 . S
O770 C795 1.251 . S
O771 Tb720 2.362 . S
O771 Tb731 2.610 . S
O771 C787 1.283 . S
O772 Tb720 2.421 . S
O772 C794 1.262 . S
O773 Tb731 2.320 . S
O773 C794 1.260 . S
O774 Tb731 2.552 . S
O774 C787 1.243 . S
O775 Tb731 2.413 . S
O775 C795 1.256 . S
C776 O765 1.283 . S
C776 O768 1.243 . S
C777 C779 1.382 . S
C777 C781 1.393 . S
C777 C784 1.500 . S
C778 C779 1.400 . S
C778 C780 1.384 . S
C779 C777 1.382 . S
C779 C778 1.400 . S
C779 H796 0.930 . S
C780 C778 1.384 . S
C780 C782 1.392 . S
C780 H797 0.931 . S
C781 C777 1.393 . S
C781 C782 1.401 . S
C781 H798 0.930 . S
C782 C780 1.392 . S
C782 C781 1.401 . S
C782 H799 0.930 . S
C783 O766 1.262 . S
C783 O767 1.260 . S
C784 Tb720 2.833 . S
C784 O764 1.251 . S
C784 O769 1.256 . S
C784 C777 1.500 . S
C785 H750 0.929 . S
C785 C763 1.444 . S
C785 C786 1.317 . S
C786 H748 0.930 . S
C786 C754 1.432 . S
C786 C785 1.317 . S
C787 O771 1.283 . S
C787 O774 1.243 . S
C788 C789 1.382 . S
C788 C792 1.393 . S
C788 C795 1.500 . S
C789 C788 1.382 . S
C789 C790 1.400 . S
C789 H800 0.930 . S
C790 C789 1.400 . S
C790 C791 1.384 . S
C791 C790 1.384 . S
C791 C793 1.392 . S
C791 H801 0.931 . S
C792 C788 1.393 . S
C792 C793 1.401 . S
C792 H802 0.930 . S
C793 C791 1.392 . S
C793 C792 1.401 . S
C793 H803 0.930 . S
C794 O772 1.262 . S
C794 O773 1.260 . S
C795 Tb731 2.833 . S
C795 O770 1.251 . S
C795 O775 1.256 . S
C795 C788 1.500 . S
H796 C779 0.930 . S
H797 C780 0.931 . S
H798 C781 0.930 . S
H799 C782 0.930 . S
H800 C789 0.930 . S
H801 C791 0.931 . S
H802 C792 0.930 . S
H803 C793 0.930 . S
Tb804 N835 2.660 . S
Tb804 N842 2.600 . S
Tb804 O848 2.546 . S
Tb804 O849 2.610 . S
Tb804 O851 2.320 . S
Tb804 O852 2.552 . S
Tb804 O853 2.413 . S
Tb804 O855 2.362 . S
Tb804 O856 2.421 . S
Tb804 C868 2.833 . S
C805 C808 1.432 . S
C805 C809 1.414 . S
C805 N812 1.359 . S
C806 C808 1.417 . S
C806 C810 1.432 . S
C806 C818 1.410 . S
C807 C809 1.444 . S
C807 C810 1.317 . S
C807 H830 0.929 . S
C808 C805 1.432 . S
C808 C806 1.417 . S
C808 N816 1.360 . S
C809 C805 1.414 . S
C809 C807 1.444 . S
C809 C814 1.385 . S
C810 C806 1.432 . S
C810 C807 1.317 . S
C810 H822 0.930 . S
C811 C813 1.392 . S
C811 C814 1.370 . S
C811 H823 0.931 . S
N812 C805 1.359 . S
N812 C813 1.327 . S
N812 Tb815 2.600 . S
C813 C811 1.392 . S
C813 N812 1.327 . S
C813 H820 0.930 . S
C814 C809 1.385 . S
C814 C811 1.370 . S
C814 H833 0.930 . S
Tb815 N812 2.600 . S
Tb815 N816 2.660 . S
Tb815 O849 2.362 . S
Tb815 O850 2.421 . S
Tb815 O854 2.546 . S
Tb815 O855 2.610 . S
Tb815 O857 2.320 . S
Tb815 O858 2.552 . S
Tb815 O859 2.413 . S
Tb815 C879 2.833 . S
N816 C808 1.360 . S
N816 Tb815 2.660 . S
N816 C817 1.305 . S
C817 N816 1.305 . S
C817 C819 1.407 . S
C817 H824 0.930 . S
C818 C806 1.410 . S
C818 C819 1.345 . S
C818 H826 0.930 . S
C819 C817 1.407 . S
C819 C818 1.345 . S
C819 H821 0.930 . S
H820 C813 0.930 . S
H821 C819 0.930 . S
H822 C810 0.930 . S
H823 C811 0.931 . S
H824 C817 0.930 . S
H825 C839 0.930 . S
H826 C818 0.930 . S
H827 C845 0.930 . S
H828 C836 0.930 . S
H829 C843 0.931 . S
H830 C807 0.929 . S
H831 C837 0.930 . S
H832 C870 0.930 . S
H833 C814 0.930 . S
H834 C869 0.929 . S
N835 Tb804 2.660 . S
N835 C836 1.305 . S
N835 C840 1.360 . S
C836 H828 0.930 . S
C836 N835 1.305 . S
C836 C839 1.407 . S
C837 H831 0.930 . S
C837 C838 1.410 . S
C837 C839 1.345 . S
C838 C837 1.410 . S
C838 C840 1.417 . S
C838 C870 1.432 . S
C839 H825 0.930 . S
C839 C836 1.407 . S
C839 C837 1.345 . S
C840 N835 1.360 . S
C840 C838 1.417 . S
C840 C844 1.432 . S
H841 C846 0.930 . S
N842 Tb804 2.600 . S
N842 C844 1.359 . S
N842 C845 1.327 . S
C843 H829 0.931 . S
C843 C845 1.392 . S
C843 C846 1.370 . S
C844 C840 1.432 . S
C844 N842 1.359 . S
C844 C847 1.414 . S
C845 H827 0.930 . S
C845 N842 1.327 . S
C845 C843 1.392 . S
C846 H841 0.930 . S
C846 C843 1.370 . S
C846 C847 1.385 . S
C847 C844 1.414 . S
C847 C846 1.385 . S
C847 C869 1.444 . S
O848 Tb804 2.546 . S
O848 C868 1.251 . S
O849 Tb804 2.610 . S
O849 Tb815 2.362 . S
O849 C860 1.283 . S
O850 Tb815 2.421 . S
O850 C867 1.262 . S
O851 Tb804 2.320 . S
O851 C867 1.260 . S
O852 Tb804 2.552 . S
O852 C860 1.243 . S
O853 Tb804 2.413 . S
O853 C868 1.256 . S
O854 Tb815 2.546 . S
O854 C879 1.251 . S
O855 Tb804 2.362 . S
O855 Tb815 2.610 . S
O855 C871 1.283 . S
O856 Tb804 2.421 . S
O856 C878 1.262 . S
O857 Tb815 2.320 . S
O857 C878 1.260 . S
O858 Tb815 2.552 . S
O858 C871 1.243 . S
O859 Tb815 2.413 . S
O859 C879 1.256 . S
C860 O849 1.283 . S
C860 O852 1.243 . S
C861 C863 1.382 . S
C861 C865 1.393 . S
C861 C868 1.500 . S
C862 C863 1.400 . S
C862 C864 1.384 . S
C863 C861 1.382 . S
C863 C862 1.400 . S
C863 H880 0.930 . S
C864 C862 1.384 . S
C864 C866 1.392 . S
C864 H881 0.931 . S
C865 C861 1.393 . S
C865 C866 1.401 . S
C865 H882 0.930 . S
C866 C864 1.392 . S
C866 C865 1.401 . S
C866 H883 0.930 . S
C867 O850 1.262 . S
C867 O851 1.260 . S
C868 Tb804 2.833 . S
C868 O848 1.251 . S
C868 O853 1.256 . S
C868 C861 1.500 . S
C869 H834 0.929 . S
C869 C847 1.444 . S
C869 C870 1.317 . S
C870 H832 0.930 . S
C870 C838 1.432 . S
C870 C869 1.317 . S
C871 O855 1.283 . S
C871 O858 1.243 . S
C872 C873 1.382 . S
C872 C876 1.393 . S
C872 C879 1.500 . S
C873 C872 1.382 . S
C873 C874 1.400 . S
C873 H884 0.930 . S
C874 C873 1.400 . S
C874 C875 1.384 . S
C875 C874 1.384 . S
C875 C877 1.392 . S
C875 H885 0.931 . S
C876 C872 1.393 . S
C876 C877 1.401 . S
C876 H886 0.930 . S
C877 C875 1.392 . S
C877 C876 1.401 . S
C877 H887 0.930 . S
C878 O856 1.262 . S
C878 O857 1.260 . S
C879 Tb815 2.833 . S
C879 O854 1.251 . S
C879 O859 1.256 . S
C879 C872 1.500 . S
H880 C863 0.930 . S
H881 C864 0.931 . S
H882 C865 0.930 . S
H883 C866 0.930 . S
H884 C873 0.930 . S
H885 C875 0.931 . S
H886 C876 0.930 . S
H887 C877 0.930 . S
Tb888 N919 2.660 . S
Tb888 N926 2.600 . S
Tb888 O932 2.546 . S
Tb888 O933 2.610 . S
Tb888 O935 2.320 . S
Tb888 O936 2.552 . S
Tb888 O937 2.413 . S
Tb888 O939 2.362 . S
Tb888 O940 2.421 . S
Tb888 C952 2.833 . S
C889 C892 1.432 . S
C889 C893 1.414 . S
C889 N896 1.359 . S
C890 C892 1.417 . S
C890 C894 1.432 . S
C890 C902 1.410 . S
C891 C893 1.444 . S
C891 C894 1.317 . S
C891 H914 0.929 . S
C892 C889 1.432 . S
C892 C890 1.417 . S
C892 N900 1.360 . S
C893 C889 1.414 . S
C893 C891 1.444 . S
C893 C898 1.385 . S
C894 C890 1.432 . S
C894 C891 1.317 . S
C894 H906 0.930 . S
C895 C897 1.392 . S
C895 C898 1.370 . S
C895 H907 0.931 . S
N896 C889 1.359 . S
N896 C897 1.327 . S
N896 Tb899 2.600 . S
C897 C895 1.392 . S
C897 N896 1.327 . S
C897 H904 0.930 . S
C898 C893 1.385 . S
C898 C895 1.370 . S
C898 H917 0.930 . S
Tb899 N896 2.600 . S
Tb899 N900 2.660 . S
Tb899 O933 2.362 . S
Tb899 O934 2.421 . S
Tb899 O938 2.546 . S
Tb899 O939 2.610 . S
Tb899 O941 2.320 . S
Tb899 O942 2.552 . S
Tb899 O943 2.413 . S
Tb899 C963 2.833 . S
N900 C892 1.360 . S
N900 Tb899 2.660 . S
N900 C901 1.305 . S
C901 N900 1.305 . S
C901 C903 1.407 . S
C901 H908 0.930 . S
C902 C890 1.410 . S
C902 C903 1.345 . S
C902 H910 0.930 . S
C903 C901 1.407 . S
C903 C902 1.345 . S
C903 H905 0.930 . S
H904 C897 0.930 . S
H905 C903 0.930 . S
H906 C894 0.930 . S
H907 C895 0.931 . S
H908 C901 0.930 . S
H909 C923 0.930 . S
H910 C902 0.930 . S
H911 C929 0.930 . S
H912 C920 0.930 . S
H913 C927 0.931 . S
H914 C891 0.929 . S
H915 C921 0.930 1_455 S
H916 C954 0.930 1_455 S
H917 C898 0.930 . S
H918 C953 0.929 . S
N919 Tb888 2.660 . S
N919 C920 1.305 . S
N919 C924 1.360 . S
C920 H912 0.930 . S
C920 N919 1.305 . S
C920 C923 1.407 . S
C921 H915 0.930 1_655 S
C921 C922 1.410 . S
C921 C923 1.345 . S
C922 C921 1.410 . S
C922 C924 1.417 . S
C922 C954 1.432 . S
C923 H909 0.930 . S
C923 C920 1.407 . S
C923 C921 1.345 . S
C924 N919 1.360 . S
C924 C922 1.417 . S
C924 C928 1.432 . S
H925 C930 0.930 . S
N926 Tb888 2.600 . S
N926 C928 1.359 . S
N926 C929 1.327 . S
C927 H913 0.931 . S
C927 C929 1.392 . S
C927 C930 1.370 . S
C928 C924 1.432 . S
C928 N926 1.359 . S
C928 C931 1.414 . S
C929 H911 0.930 . S
C929 N926 1.327 . S
C929 C927 1.392 . S
C930 H925 0.930 . S
C930 C927 1.370 . S
C930 C931 1.385 . S
C931 C928 1.414 . S
C931 C930 1.385 . S
C931 C953 1.444 . S
O932 Tb888 2.546 . S
O932 C952 1.251 . S
O933 Tb888 2.610 . S
O933 Tb899 2.362 . S
O933 C944 1.283 . S
O934 Tb899 2.421 . S
O934 C951 1.262 . S
O935 Tb888 2.320 . S
O935 C951 1.260 . S
O936 Tb888 2.552 . S
O936 C944 1.243 . S
O937 Tb888 2.413 . S
O937 C952 1.256 . S
O938 Tb899 2.546 . S
O938 C963 1.251 . S
O939 Tb888 2.362 . S
O939 Tb899 2.610 . S
O939 C955 1.283 . S
O940 Tb888 2.421 . S
O940 C962 1.262 . S
O941 Tb899 2.320 . S
O941 C962 1.260 . S
O942 Tb899 2.552 . S
O942 C955 1.243 . S
O943 Tb899 2.413 . S
O943 C963 1.256 . S
C944 O933 1.283 . S
C944 O936 1.243 . S
C945 C947 1.382 . S
C945 C949 1.393 . S
C945 C952 1.500 . S
C946 C947 1.400 . S
C946 C948 1.384 . S
C947 C945 1.382 . S
C947 C946 1.400 . S
C947 H964 0.930 . S
C948 C946 1.384 . S
C948 C950 1.392 . S
C948 H965 0.931 . S
C949 C945 1.393 . S
C949 C950 1.401 . S
C949 H966 0.930 . S
C950 C948 1.392 . S
C950 C949 1.401 . S
C950 H967 0.930 . S
C951 O934 1.262 . S
C951 O935 1.260 . S
C952 Tb888 2.833 . S
C952 O932 1.251 . S
C952 O937 1.256 . S
C952 C945 1.500 . S
C953 H918 0.929 . S
C953 C931 1.444 . S
C953 C954 1.317 . S
C954 H916 0.930 1_655 S
C954 C922 1.432 . S
C954 C953 1.317 . S
C955 O939 1.283 . S
C955 O942 1.243 . S
C956 C957 1.382 . S
C956 C960 1.393 . S
C956 C963 1.500 . S
C957 C956 1.382 . S
C957 C958 1.400 . S
C957 H968 0.930 . S
C958 C957 1.400 . S
C958 C959 1.384 . S
C959 C958 1.384 . S
C959 C961 1.392 . S
C959 H969 0.931 . S
C960 C956 1.393 . S
C960 C961 1.401 . S
C960 H970 0.930 . S
C961 C959 1.392 . S
C961 C960 1.401 . S
C961 H971 0.930 . S
C962 O940 1.262 . S
C962 O941 1.260 . S
C963 Tb899 2.833 . S
C963 O938 1.251 . S
C963 O943 1.256 . S
C963 C956 1.500 . S
H964 C947 0.930 . S
H965 C948 0.931 . S
H966 C949 0.930 . S
H967 C950 0.930 . S
H968 C957 0.930 . S
H969 C959 0.931 . S
H970 C960 0.930 . S
H971 C961 0.930 . S
C972 C973 1.391 . S
C972 C974 1.394 . S
C972 H988 0.931 . S
C973 C972 1.391 . S
C973 C977 1.376 . S
C974 C972 1.394 . S
C974 C975 1.369 . S
C974 C978 1.531 . S
C975 C974 1.369 . S
C975 C976 1.410 . S
C975 C983 1.503 . S
C976 C975 1.410 . S
C976 C977 1.392 . S
C976 C979 1.511 . S
C977 C973 1.376 . S
C977 C976 1.392 . S
C977 H989 0.929 . S
C978 C974 1.531 . S
C978 H990 0.960 . S
C978 H991 0.962 . S
C978 H992 0.960 . S
C979 C976 1.511 . S
C979 H993 0.961 . S
C979 H994 0.961 . S
C979 H995 0.961 . S
C980 C981 1.370 . S
C980 C982 1.363 . S
C980 H996 0.931 . S
C981 C980 1.370 . S
C981 C985 1.408 . S
C982 C980 1.363 . S
C982 C983 1.370 . S
C982 C986 1.524 . S
C983 C975 1.503 . S
C983 C982 1.370 . S
C983 C984 1.403 . S
C984 C983 1.403 . S
C984 C985 1.404 . S
C984 C987 1.539 . S
C985 C981 1.408 . S
C985 C984 1.404 . S
C985 H997 0.930 . S
C986 C982 1.524 . S
C986 H998 0.956 . S
C986 H999 0.961 . S
C986 H1000 0.961 . S
C987 C984 1.539 . S
C987 H1001 0.958 . S
C987 H1002 0.961 . S
C987 H1003 0.960 . S
H988 C972 0.931 . S
H989 C977 0.929 . S
H990 C978 0.960 . S
H991 C978 0.962 . S
H992 C978 0.960 . S
H993 C979 0.961 . S
H994 C979 0.961 . S
H995 C979 0.961 . S
H996 C980 0.931 . S
H997 C985 0.930 . S
H998 C986 0.956 . S
H999 C986 0.961 . S
H1000 C986 0.961 . S
H1001 C987 0.958 . S
H1002 C987 0.961 . S
H1003 C987 0.960 . S
C1004 C1005 1.391 . S
C1004 C1006 1.394 . S
C1004 H1020 0.931 . S
C1005 C1004 1.391 . S
C1005 C1009 1.376 . S
C1006 C1004 1.394 . S
C1006 C1007 1.369 . S
C1006 C1010 1.531 . S
C1007 C1006 1.369 . S
C1007 C1008 1.410 . S
C1007 C1015 1.503 . S
C1008 C1007 1.410 . S
C1008 C1009 1.392 . S
C1008 C1011 1.511 . S
C1009 C1005 1.376 . S
C1009 C1008 1.392 . S
C1009 H1021 0.929 . S
C1010 C1006 1.531 . S
C1010 H1022 0.960 . S
C1010 H1023 0.962 . S
C1010 H1024 0.960 . S
C1011 C1008 1.511 . S
C1011 H1025 0.961 . S
C1011 H1026 0.961 . S
C1011 H1027 0.961 . S
C1012 C1013 1.370 . S
C1012 C1014 1.363 . S
C1012 H1028 0.931 . S
C1013 C1012 1.370 . S
C1013 C1017 1.408 . S
C1014 C1012 1.363 . S
C1014 C1015 1.370 . S
C1014 C1018 1.524 . S
C1015 C1007 1.503 . S
C1015 C1014 1.370 . S
C1015 C1016 1.403 . S
C1016 C1015 1.403 . S
C1016 C1017 1.404 . S
C1016 C1019 1.539 . S
C1017 C1013 1.408 . S
C1017 C1016 1.404 . S
C1017 H1029 0.930 . S
C1018 C1014 1.524 . S
C1018 H1030 0.956 . S
C1018 H1031 0.961 . S
C1018 H1032 0.961 . S
C1019 C1016 1.539 . S
C1019 H1033 0.958 . S
C1019 H1034 0.961 . S
C1019 H1035 0.960 . S
H1020 C1004 0.931 . S
H1021 C1009 0.929 . S
H1022 C1010 0.960 . S
H1023 C1010 0.962 . S
H1024 C1010 0.960 . S
H1025 C1011 0.961 . S
H1026 C1011 0.961 . S
H1027 C1011 0.961 . S
H1028 C1012 0.931 . S
H1029 C1017 0.930 . S
H1030 C1018 0.956 . S
H1031 C1018 0.961 . S
H1032 C1018 0.961 . S
H1033 C1019 0.958 . S
H1034 C1019 0.961 . S
H1035 C1019 0.960 . S
C1036 C1037 1.391 . S
C1036 C1038 1.394 . S
C1036 H1052 0.931 . S
C1037 C1036 1.391 . S
C1037 C1041 1.376 . S
C1038 C1036 1.394 . S
C1038 C1039 1.369 . S
C1038 C1042 1.531 . S
C1039 C1038 1.369 . S
C1039 C1040 1.410 . S
C1039 C1047 1.503 . S
C1040 C1039 1.410 . S
C1040 C1041 1.392 . S
C1040 C1043 1.511 . S
C1041 C1037 1.376 . S
C1041 C1040 1.392 . S
C1041 H1053 0.929 . S
C1042 C1038 1.531 . S
C1042 H1054 0.960 . S
C1042 H1055 0.962 . S
C1042 H1056 0.960 . S
C1043 C1040 1.511 . S
C1043 H1057 0.961 . S
C1043 H1058 0.961 . S
C1043 H1059 0.961 . S
C1044 C1045 1.370 . S
C1044 C1046 1.363 . S
C1044 H1060 0.931 . S
C1045 C1044 1.370 . S
C1045 C1049 1.408 . S
C1046 C1044 1.363 . S
C1046 C1047 1.370 . S
C1046 C1050 1.524 . S
C1047 C1039 1.503 . S
C1047 C1046 1.370 . S
C1047 C1048 1.403 . S
C1048 C1047 1.403 . S
C1048 C1049 1.404 . S
C1048 C1051 1.539 . S
C1049 C1045 1.408 . S
C1049 C1048 1.404 . S
C1049 H1061 0.930 . S
C1050 C1046 1.524 . S
C1050 H1062 0.956 . S
C1050 H1063 0.961 . S
C1050 H1064 0.961 . S
C1051 C1048 1.539 . S
C1051 H1065 0.958 . S
C1051 H1066 0.961 . S
C1051 H1067 0.960 . S
H1052 C1036 0.931 . S
H1053 C1041 0.929 . S
H1054 C1042 0.960 . S
H1055 C1042 0.962 . S
H1056 C1042 0.960 . S
H1057 C1043 0.961 . S
H1058 C1043 0.961 . S
H1059 C1043 0.961 . S
H1060 C1044 0.931 . S
H1061 C1049 0.930 . S
H1062 C1050 0.956 . S
H1063 C1050 0.961 . S
H1064 C1050 0.961 . S
H1065 C1051 0.958 . S
H1066 C1051 0.961 . S
H1067 C1051 0.960 . S
C1068 C1069 1.391 . S
C1068 C1070 1.394 . S
C1068 H1084 0.931 . S
C1069 C1068 1.391 . S
C1069 C1073 1.376 . S
C1070 C1068 1.394 . S
C1070 C1071 1.369 . S
C1070 C1074 1.531 . S
C1071 C1070 1.369 . S
C1071 C1072 1.410 . S
C1071 C1079 1.503 . S
C1072 C1071 1.410 . S
C1072 C1073 1.392 . S
C1072 C1075 1.511 . S
C1073 C1069 1.376 . S
C1073 C1072 1.392 . S
C1073 H1085 0.929 . S
C1074 C1070 1.531 . S
C1074 H1086 0.960 . S
C1074 H1087 0.962 . S
C1074 H1088 0.960 . S
C1075 C1072 1.511 . S
C1075 H1089 0.961 . S
C1075 H1090 0.961 . S
C1075 H1091 0.961 . S
C1076 C1077 1.370 1_554 S
C1076 C1078 1.363 1_554 S
C1076 H1092 0.931 . S
C1077 C1076 1.370 1_556 S
C1077 C1081 1.408 . S
C1078 C1076 1.363 1_556 S
C1078 C1079 1.370 . S
C1078 C1082 1.524 1_556 S
C1079 C1071 1.503 . S
C1079 C1078 1.370 . S
C1079 C1080 1.403 . S
C1080 C1079 1.403 . S
C1080 C1081 1.404 . S
C1080 C1083 1.539 . S
C1081 C1077 1.408 . S
C1081 C1080 1.404 . S
C1081 H1093 0.930 . S
C1082 C1078 1.524 1_554 S
C1082 H1094 0.956 . S
C1082 H1095 0.961 . S
C1082 H1096 0.961 . S
C1083 C1080 1.539 . S
C1083 H1097 0.958 . S
C1083 H1098 0.961 . S
C1083 H1099 0.960 . S
H1084 C1068 0.931 . S
H1085 C1073 0.929 . S
H1086 C1074 0.960 . S
H1087 C1074 0.962 . S
H1088 C1074 0.960 . S
H1089 C1075 0.961 . S
H1090 C1075 0.961 . S
H1091 C1075 0.961 . S
H1092 C1076 0.931 . S
H1093 C1081 0.930 . S
H1094 C1082 0.956 . S
H1095 C1082 0.961 . S
H1096 C1082 0.961 . S
H1097 C1083 0.958 . S
H1098 C1083 0.961 . S
H1099 C1083 0.960 . S
C1100 C1101 1.391 . S
C1100 C1102 1.394 . S
C1100 H1116 0.931 . S
C1101 C1100 1.391 . S
C1101 C1105 1.376 . S
C1102 C1100 1.394 . S
C1102 C1103 1.369 . S
C1102 C1106 1.531 . S
C1103 C1102 1.369 . S
C1103 C1104 1.410 . S
C1103 C1111 1.503 . S
C1104 C1103 1.410 . S
C1104 C1105 1.392 . S
C1104 C1107 1.511 1_556 S
C1105 C1101 1.376 . S
C1105 C1104 1.392 . S
C1105 H1117 0.929 . S
C1106 C1102 1.531 . S
C1106 H1118 0.960 . S
C1106 H1119 0.962 . S
C1106 H1120 0.960 . S
C1107 C1104 1.511 1_554 S
C1107 H1121 0.961 . S
C1107 H1122 0.961 . S
C1107 H1123 0.961 . S
C1108 C1109 1.370 . S
C1108 C1110 1.363 . S
C1108 H1124 0.931 . S
C1109 C1108 1.370 . S
C1109 C1113 1.408 . S
C1110 C1108 1.363 . S
C1110 C1111 1.370 . S
C1110 C1114 1.524 . S
C1111 C1103 1.503 . S
C1111 C1110 1.370 . S
C1111 C1112 1.403 . S
C1112 C1111 1.403 . S
C1112 C1113 1.404 . S
C1112 C1115 1.539 . S
C1113 C1109 1.408 . S
C1113 C1112 1.404 . S
C1113 H1125 0.930 . S
C1114 C1110 1.524 . S
C1114 H1126 0.956 . S
C1114 H1127 0.961 . S
C1114 H1128 0.961 . S
C1115 C1112 1.539 . S
C1115 H1129 0.958 . S
C1115 H1130 0.961 . S
C1115 H1131 0.960 . S
H1116 C1100 0.931 . S
H1117 C1105 0.929 . S
H1118 C1106 0.960 . S
H1119 C1106 0.962 . S
H1120 C1106 0.960 . S
H1121 C1107 0.961 . S
H1122 C1107 0.961 . S
H1123 C1107 0.961 . S
H1124 C1108 0.931 . S
H1125 C1113 0.930 . S
H1126 C1114 0.956 . S
H1127 C1114 0.961 . S
H1128 C1114 0.961 . S
H1129 C1115 0.958 . S
H1130 C1115 0.961 . S
H1131 C1115 0.960 . S
C1132 C1133 1.391 . S
C1132 C1134 1.394 . S
C1132 H1148 0.931 . S
C1133 C1132 1.391 . S
C1133 C1137 1.376 . S
C1134 C1132 1.394 . S
C1134 C1135 1.369 . S
C1134 C1138 1.531 . S
C1135 C1134 1.369 . S
C1135 C1136 1.410 . S
C1135 C1143 1.503 . S
C1136 C1135 1.410 . S
C1136 C1137 1.392 . S
C1136 C1139 1.511 . S
C1137 C1133 1.376 . S
C1137 C1136 1.392 . S
C1137 H1149 0.929 . S
C1138 C1134 1.531 . S
C1138 H1150 0.960 . S
C1138 H1151 0.962 . S
C1138 H1152 0.960 . S
C1139 C1136 1.511 . S
C1139 H1153 0.961 . S
C1139 H1154 0.961 . S
C1139 H1155 0.961 1_556 S
C1140 C1141 1.370 . S
C1140 C1142 1.363 . S
C1140 H1156 0.931 . S
C1141 C1140 1.370 . S
C1141 C1145 1.408 1_556 S
C1142 C1140 1.363 . S
C1142 C1143 1.370 . S
C1142 C1146 1.524 . S
C1143 C1135 1.503 . S
C1143 C1142 1.370 . S
C1143 C1144 1.403 1_556 S
C1144 C1143 1.403 1_554 S
C1144 C1145 1.404 . S
C1144 C1147 1.539 . S
C1145 C1141 1.408 1_554 S
C1145 C1144 1.404 . S
C1145 H1157 0.930 . S
C1146 C1142 1.524 . S
C1146 H1158 0.956 . S
C1146 H1159 0.961 . S
C1146 H1160 0.961 . S
C1147 C1144 1.539 . S
C1147 H1161 0.958 . S
C1147 H1162 0.961 . S
C1147 H1163 0.960 . S
H1148 C1132 0.931 . S
H1149 C1137 0.929 . S
H1150 C1138 0.960 . S
H1151 C1138 0.962 . S
H1152 C1138 0.960 . S
H1153 C1139 0.961 . S
H1154 C1139 0.961 . S
H1155 C1139 0.961 1_554 S
H1156 C1140 0.931 . S
H1157 C1145 0.930 . S
H1158 C1146 0.956 . S
H1159 C1146 0.961 . S
H1160 C1146 0.961 . S
H1161 C1147 0.958 . S
H1162 C1147 0.961 . S
H1163 C1147 0.960 . S
C1164 C1165 1.391 . S
C1164 C1166 1.394 . S
C1164 H1180 0.931 . S
C1165 C1164 1.391 . S
C1165 C1169 1.376 . S
C1166 C1164 1.394 . S
C1166 C1167 1.369 . S
C1166 C1170 1.531 . S
C1167 C1166 1.369 . S
C1167 C1168 1.410 . S
C1167 C1175 1.503 . S
C1168 C1167 1.410 . S
C1168 C1169 1.392 . S
C1168 C1171 1.511 1_556 S
C1169 C1165 1.376 . S
C1169 C1168 1.392 . S
C1169 H1181 0.929 . S
C1170 C1166 1.531 . S
C1170 H1182 0.960 . S
C1170 H1183 0.962 . S
C1170 H1184 0.960 . S
C1171 C1168 1.511 1_554 S
C1171 H1185 0.961 . S
C1171 H1186 0.961 . S
C1171 H1187 0.961 . S
C1172 C1173 1.370 . S
C1172 C1174 1.363 . S
C1172 H1188 0.931 . S
C1173 C1172 1.370 . S
C1173 C1177 1.408 1_556 S
C1174 C1172 1.363 . S
C1174 C1175 1.370 . S
C1174 C1178 1.524 . S
C1175 C1167 1.503 . S
C1175 C1174 1.370 . S
C1175 C1176 1.403 1_556 S
C1176 C1175 1.403 1_554 S
C1176 C1177 1.404 . S
C1176 C1179 1.539 . S
C1177 C1173 1.408 1_554 S
C1177 C1176 1.404 . S
C1177 H1189 0.930 . S
C1178 C1174 1.524 . S
C1178 H1190 0.956 . S
C1178 H1191 0.961 . S
C1178 H1192 0.961 . S
C1179 C1176 1.539 . S
C1179 H1193 0.958 . S
C1179 H1194 0.961 . S
C1179 H1195 0.960 . S
H1180 C1164 0.931 . S
H1181 C1169 0.929 . S
H1182 C1170 0.960 . S
H1183 C1170 0.962 . S
H1184 C1170 0.960 . S
H1185 C1171 0.961 . S
H1186 C1171 0.961 . S
H1187 C1171 0.961 . S
H1188 C1172 0.931 . S
H1189 C1177 0.930 . S
H1190 C1178 0.956 . S
H1191 C1178 0.961 . S
H1192 C1178 0.961 . S
H1193 C1179 0.958 . S
H1194 C1179 0.961 . S
H1195 C1179 0.960 . S
C1196 C1197 1.391 . S
C1196 C1198 1.394 . S
C1196 H1212 0.931 . S
C1197 C1196 1.391 . S
C1197 C1201 1.376 . S
C1198 C1196 1.394 . S
C1198 C1199 1.369 . S
C1198 C1202 1.531 1_556 S
C1199 C1198 1.369 . S
C1199 C1200 1.410 . S
C1199 C1207 1.503 . S
C1200 C1199 1.410 . S
C1200 C1201 1.392 . S
C1200 C1203 1.511 . S
C1201 C1197 1.376 . S
C1201 C1200 1.392 . S
C1201 H1213 0.929 . S
C1202 C1198 1.531 1_554 S
C1202 H1214 0.960 . S
C1202 H1215 0.962 . S
C1202 H1216 0.960 . S
C1203 C1200 1.511 . S
C1203 H1217 0.961 . S
C1203 H1218 0.961 . S
C1203 H1219 0.961 . S
C1204 C1205 1.370 . S
C1204 C1206 1.363 . S
C1204 H1220 0.931 . S
C1205 C1204 1.370 . S
C1205 C1209 1.408 . S
C1206 C1204 1.363 . S
C1206 C1207 1.370 . S
C1206 C1210 1.524 . S
C1207 C1199 1.503 . S
C1207 C1206 1.370 . S
C1207 C1208 1.403 . S
C1208 C1207 1.403 . S
C1208 C1209 1.404 . S
C1208 C1211 1.539 . S
C1209 C1205 1.408 . S
C1209 C1208 1.404 . S
C1209 H1221 0.930 1_556 S
C1210 C1206 1.524 . S
C1210 H1222 0.956 . S
C1210 H1223 0.961 . S
C1210 H1224 0.961 . S
C1211 C1208 1.539 . S
C1211 H1225 0.958 1_556 S
C1211 H1226 0.961 . S
C1211 H1227 0.960 . S
H1212 C1196 0.931 . S
H1213 C1201 0.929 . S
H1214 C1202 0.960 . S
H1215 C1202 0.962 . S
H1216 C1202 0.960 . S
H1217 C1203 0.961 . S
H1218 C1203 0.961 . S
H1219 C1203 0.961 . S
H1220 C1204 0.931 . S
H1221 C1209 0.930 1_554 S
H1222 C1210 0.956 . S
H1223 C1210 0.961 . S
H1224 C1210 0.961 . S
H1225 C1211 0.958 1_554 S
H1226 C1211 0.961 . S
H1227 C1211 0.960 . S
C1228 C1229 1.391 . S
C1228 C1230 1.394 . S
C1228 H1244 0.931 . S
C1229 C1228 1.391 . S
C1229 C1233 1.376 . S
C1230 C1228 1.394 . S
C1230 C1231 1.369 . S
C1230 C1234 1.531 . S
C1231 C1230 1.369 . S
C1231 C1232 1.410 . S
C1231 C1239 1.503 . S
C1232 C1231 1.410 . S
C1232 C1233 1.392 . S
C1232 C1235 1.511 1_556 S
C1233 C1229 1.376 . S
C1233 C1232 1.392 . S
C1233 H1245 0.929 . S
C1234 C1230 1.531 . S
C1234 H1246 0.960 . S
C1234 H1247 0.962 . S
C1234 H1248 0.960 . S
C1235 C1232 1.511 1_554 S
C1235 H1249 0.961 1_554 S
C1235 H1250 0.961 1_554 S
C1235 H1251 0.961 . S
C1236 C1237 1.370 . S
C1236 C1238 1.363 . S
C1236 H1252 0.931 . S
C1237 C1236 1.370 . S
C1237 C1241 1.408 1_556 S
C1238 C1236 1.363 . S
C1238 C1239 1.370 . S
C1238 C1242 1.524 . S
C1239 C1231 1.503 . S
C1239 C1238 1.370 . S
C1239 C1240 1.403 1_556 S
C1240 C1239 1.403 1_554 S
C1240 C1241 1.404 . S
C1240 C1243 1.539 . S
C1241 C1237 1.408 1_554 S
C1241 C1240 1.404 . S
C1241 H1253 0.930 . S
C1242 C1238 1.524 . S
C1242 H1254 0.956 . S
C1242 H1255 0.961 . S
C1242 H1256 0.961 . S
C1243 C1240 1.539 . S
C1243 H1257 0.958 . S
C1243 H1258 0.961 . S
C1243 H1259 0.960 . S
H1244 C1228 0.931 . S
H1245 C1233 0.929 . S
H1246 C1234 0.960 . S
H1247 C1234 0.962 . S
H1248 C1234 0.960 . S
H1249 C1235 0.961 1_556 S
H1250 C1235 0.961 1_556 S
H1251 C1235 0.961 . S
H1252 C1236 0.931 . S
H1253 C1241 0.930 . S
H1254 C1242 0.956 . S
H1255 C1242 0.961 . S
H1256 C1242 0.961 . S
H1257 C1243 0.958 . S
H1258 C1243 0.961 . S
H1259 C1243 0.960 . S
C1260 C1261 1.391 . S
C1260 C1262 1.394 . S
C1260 H1276 0.931 . S
C1261 C1260 1.391 . S
C1261 C1265 1.376 . S
C1262 C1260 1.394 . S
C1262 C1263 1.369 . S
C1262 C1266 1.531 . S
C1263 C1262 1.369 . S
C1263 C1264 1.410 . S
C1263 C1271 1.503 . S
C1264 C1263 1.410 . S
C1264 C1265 1.392 . S
C1264 C1267 1.511 . S
C1265 C1261 1.376 . S
C1265 C1264 1.392 . S
C1265 H1277 0.929 . S
C1266 C1262 1.531 . S
C1266 H1278 0.960 . S
C1266 H1279 0.962 . S
C1266 H1280 0.960 . S
C1267 C1264 1.511 . S
C1267 H1281 0.961 1_554 S
C1267 H1282 0.961 . S
C1267 H1283 0.961 1_554 S
C1268 C1269 1.370 . S
C1268 C1270 1.363 . S
C1268 H1284 0.931 . S
C1269 C1268 1.370 . S
C1269 C1273 1.408 . S
C1270 C1268 1.363 . S
C1270 C1271 1.370 . S
C1270 C1274 1.524 . S
C1271 C1263 1.503 . S
C1271 C1270 1.370 . S
C1271 C1272 1.403 . S
C1272 C1271 1.403 . S
C1272 C1273 1.404 . S
C1272 C1275 1.539 . S
C1273 C1269 1.408 . S
C1273 C1272 1.404 . S
C1273 H1285 0.930 . S
C1274 C1270 1.524 . S
C1274 H1286 0.956 . S
C1274 H1287 0.961 . S
C1274 H1288 0.961 . S
C1275 C1272 1.539 . S
C1275 H1289 0.958 . S
C1275 H1290 0.961 . S
C1275 H1291 0.960 . S
H1276 C1260 0.931 . S
H1277 C1265 0.929 . S
H1278 C1266 0.960 . S
H1279 C1266 0.962 . S
H1280 C1266 0.960 . S
H1281 C1267 0.961 1_556 S
H1282 C1267 0.961 . S
H1283 C1267 0.961 1_556 S
H1284 C1268 0.931 . S
H1285 C1273 0.930 . S
H1286 C1274 0.956 . S
H1287 C1274 0.961 . S
H1288 C1274 0.961 . S
H1289 C1275 0.958 . S
H1290 C1275 0.961 . S
H1291 C1275 0.960 . S
C1292 C1293 1.391 . S
C1292 C1294 1.394 . S
C1292 H1308 0.931 . S
C1293 C1292 1.391 . S
C1293 C1297 1.376 . S
C1294 C1292 1.394 . S
C1294 C1295 1.369 . S
C1294 C1298 1.531 . S
C1295 C1294 1.369 . S
C1295 C1296 1.410 . S
C1295 C1303 1.503 . S
C1296 C1295 1.410 . S
C1296 C1297 1.392 . S
C1296 C1299 1.511 . S
C1297 C1293 1.376 . S
C1297 C1296 1.392 . S
C1297 H1309 0.929 . S
C1298 C1294 1.531 . S
C1298 H1310 0.960 . S
C1298 H1311 0.962 . S
C1298 H1312 0.963 1_554 S
C1299 C1296 1.511 . S
C1299 H1313 0.961 . S
C1299 H1314 0.961 . S
C1299 H1315 0.961 . S
C1300 C1301 1.370 . S
C1300 C1302 1.363 . S
C1300 H1316 0.931 . S
C1301 C1300 1.370 . S
C1301 C1305 1.408 . S
C1302 C1300 1.363 . S
C1302 C1303 1.370 . S
C1302 C1306 1.524 . S
C1303 C1295 1.503 . S
C1303 C1302 1.370 . S
C1303 C1304 1.403 . S
C1304 C1303 1.403 . S
C1304 C1305 1.404 . S
C1304 C1307 1.539 . S
C1305 C1301 1.408 . S
C1305 C1304 1.404 . S
C1305 H1317 0.930 . S
C1306 C1302 1.524 . S
C1306 H1318 0.956 . S
C1306 H1319 0.961 . S
C1306 H1320 0.961 . S
C1307 C1304 1.539 . S
C1307 H1321 0.958 . S
C1307 H1322 0.961 . S
C1307 H1323 0.960 . S
H1308 C1292 0.931 . S
H1309 C1297 0.929 . S
H1310 C1298 0.960 . S
H1311 C1298 0.962 . S
H1312 C1298 0.963 1_556 S
H1313 C1299 0.961 . S
H1314 C1299 0.961 . S
H1315 C1299 0.961 . S
H1316 C1300 0.931 . S
H1317 C1305 0.930 . S
H1318 C1306 0.956 . S
H1319 C1306 0.961 . S
H1320 C1306 0.961 . S
H1321 C1307 0.958 . S
H1322 C1307 0.961 . S
H1323 C1307 0.960 . S
C1324 C1325 1.391 . S
C1324 C1326 1.394 . S
C1324 H1340 0.931 . S
C1325 C1324 1.391 . S
C1325 C1329 1.376 . S
C1326 C1324 1.394 . S
C1326 C1327 1.369 . S
C1326 C1330 1.531 . S
C1327 C1326 1.369 . S
C1327 C1328 1.410 . S
C1327 C1335 1.503 . S
C1328 C1327 1.410 . S
C1328 C1329 1.392 . S
C1328 C1331 1.511 . S
C1329 C1325 1.376 . S
C1329 C1328 1.392 . S
C1329 H1341 0.929 . S
C1330 C1326 1.531 . S
C1330 H1342 0.960 . S
C1330 H1343 0.962 . S
C1330 H1344 0.960 . S
C1331 C1328 1.511 . S
C1331 H1345 0.961 . S
C1331 H1346 0.961 . S
C1331 H1347 0.961 . S
C1332 C1333 1.370 . S
C1332 C1334 1.363 . S
C1332 H1348 0.931 . S
C1333 C1332 1.370 . S
C1333 C1337 1.408 . S
C1334 C1332 1.363 . S
C1334 C1335 1.370 . S
C1334 C1338 1.524 . S
C1335 C1327 1.503 . S
C1335 C1334 1.370 . S
C1335 C1336 1.403 . S
C1336 C1335 1.403 . S
C1336 C1337 1.404 . S
C1336 C1339 1.539 . S
C1337 C1333 1.408 . S
C1337 C1336 1.404 . S
C1337 H1349 0.930 . S
C1338 C1334 1.524 . S
C1338 H1350 0.956 . S
C1338 H1351 0.961 . S
C1338 H1352 0.922 1_554 S
C1339 C1336 1.539 . S
C1339 H1353 0.958 . S
C1339 H1354 0.961 . S
C1339 H1355 0.960 . S
H1340 C1324 0.931 . S
H1341 C1329 0.929 . S
H1342 C1330 0.960 . S
H1343 C1330 0.962 . S
H1344 C1330 0.960 . S
H1345 C1331 0.961 . S
H1346 C1331 0.961 . S
H1347 C1331 0.961 . S
H1348 C1332 0.931 . S
H1349 C1337 0.930 . S
H1350 C1338 0.956 . S
H1351 C1338 0.961 . S
H1352 C1338 0.922 1_556 S
H1353 C1339 0.958 . S
H1354 C1339 0.961 . S
H1355 C1339 0.960 . S
C1356 C1357 1.391 . S
C1356 C1358 1.394 . S
C1356 H1372 0.931 . S
C1357 C1356 1.391 . S
C1357 C1361 1.376 . S
C1358 C1356 1.394 . S
C1358 C1359 1.369 . S
C1358 C1362 1.531 . S
C1359 C1358 1.369 . S
C1359 C1360 1.410 . S
C1359 C1367 1.503 1_655 S
C1360 C1359 1.410 . S
C1360 C1361 1.392 . S
C1360 C1363 1.511 . S
C1361 C1357 1.376 . S
C1361 C1360 1.392 . S
C1361 H1373 0.929 . S
C1362 C1358 1.531 . S
C1362 H1374 0.960 1_655 S
C1362 H1375 0.962 . S
C1362 H1376 0.960 . S
C1363 C1360 1.511 . S
C1363 H1377 0.961 . S
C1363 H1378 0.961 1_655 S
C1363 H1379 0.961 1_655 S
C1364 C1365 1.370 . S
C1364 C1366 1.363 . S
C1364 H1380 0.931 . S
C1365 C1364 1.370 . S
C1365 C1369 1.408 . S
C1366 C1364 1.363 . S
C1366 C1367 1.370 . S
C1366 C1370 1.524 1_455 S
C1367 C1359 1.503 1_455 S
C1367 C1366 1.370 . S
C1367 C1368 1.403 . S
C1368 C1367 1.403 . S
C1368 C1369 1.404 . S
C1368 C1371 1.539 . S
C1369 C1365 1.408 . S
C1369 C1368 1.404 . S
C1369 H1381 0.930 . S
C1370 C1366 1.524 1_655 S
C1370 H1382 0.956 . S
C1370 H1383 0.961 . S
C1370 H1384 0.961 . S
C1371 C1368 1.539 . S
C1371 H1385 0.958 . S
C1371 H1386 0.961 . S
C1371 H1387 0.960 . S
H1372 C1356 0.931 . S
H1373 C1361 0.929 . S
H1374 C1362 0.960 1_455 S
H1375 C1362 0.962 . S
H1376 C1362 0.960 . S
H1377 C1363 0.961 . S
H1378 C1363 0.961 1_455 S
H1379 C1363 0.961 1_455 S
H1380 C1364 0.931 . S
H1381 C1369 0.930 . S
H1382 C1370 0.956 . S
H1383 C1370 0.961 . S
H1384 C1370 0.961 . S
H1385 C1371 0.958 . S
H1386 C1371 0.961 . S
H1387 C1371 0.960 . S
C1388 C1389 1.391 . S
C1388 C1390 1.394 . S
C1388 H1404 0.931 . S
C1389 C1388 1.391 . S
C1389 C1393 1.376 . S
C1390 C1388 1.394 . S
C1390 C1391 1.369 . S
C1390 C1394 1.531 . S
C1391 C1390 1.369 . S
C1391 C1392 1.410 . S
C1391 C1399 1.503 . S
C1392 C1391 1.410 . S
C1392 C1393 1.392 . S
C1392 C1395 1.511 . S
C1393 C1389 1.376 . S
C1393 C1392 1.392 . S
C1393 H1405 0.929 . S
C1394 C1390 1.531 . S
C1394 H1406 0.960 . S
C1394 H1407 0.962 . S
C1394 H1408 0.960 . S
C1395 C1392 1.511 . S
C1395 H1409 0.961 . S
C1395 H1410 0.961 . S
C1395 H1411 0.961 . S
C1396 C1397 1.370 . S
C1396 C1398 1.363 . S
C1396 H1412 0.931 . S
C1397 C1396 1.370 . S
C1397 C1401 1.408 . S
C1398 C1396 1.363 . S
C1398 C1399 1.370 . S
C1398 C1402 1.524 . S
C1399 C1391 1.503 . S
C1399 C1398 1.370 . S
C1399 C1400 1.403 . S
C1400 C1399 1.403 . S
C1400 C1401 1.404 . S
C1400 C1403 1.539 . S
C1401 C1397 1.408 . S
C1401 C1400 1.404 . S
C1401 H1413 0.930 . S
C1402 C1398 1.524 . S
C1402 H1414 0.956 . S
C1402 H1415 0.961 . S
C1402 H1416 0.961 . S
C1403 C1400 1.539 . S
C1403 H1417 0.958 . S
C1403 H1418 0.961 . S
C1403 H1419 0.960 . S
H1404 C1388 0.931 . S
H1405 C1393 0.929 . S
H1406 C1394 0.960 . S
H1407 C1394 0.962 . S
H1408 C1394 0.960 . S
H1409 C1395 0.961 . S
H1410 C1395 0.961 . S
H1411 C1395 0.961 . S
H1412 C1396 0.931 . S
H1413 C1401 0.930 . S
H1414 C1402 0.956 . S
H1415 C1402 0.961 . S
H1416 C1402 0.961 . S
H1417 C1403 0.958 . S
H1418 C1403 0.961 . S
H1419 C1403 0.960 . S
C1420 C1421 1.391 . S
C1420 C1422 1.394 . S
C1420 H1436 0.931 . S
C1421 C1420 1.391 . S
C1421 C1425 1.376 . S
C1422 C1420 1.394 . S
C1422 C1423 1.369 . S
C1422 C1426 1.531 . S
C1423 C1422 1.369 . S
C1423 C1424 1.410 . S
C1423 C1431 1.503 1_545 S
C1424 C1423 1.410 . S
C1424 C1425 1.392 . S
C1424 C1427 1.511 . S
C1425 C1421 1.376 . S
C1425 C1424 1.392 . S
C1425 H1437 0.929 . S
C1426 C1422 1.531 . S
C1426 H1438 0.939 1_545 S
C1426 H1439 0.962 1_545 S
C1426 H1440 0.960 . S
C1427 C1424 1.511 . S
C1427 H1441 0.961 . S
C1427 H1442 0.961 . S
C1427 H1443 0.961 . S
C1428 C1429 1.370 . S
C1428 C1430 1.363 . S
C1428 H1444 0.931 . S
C1429 C1428 1.370 . S
C1429 C1433 1.408 . S
C1430 C1428 1.363 . S
C1430 C1431 1.370 . S
C1430 C1434 1.524 . S
C1431 C1423 1.503 1_565 S
C1431 C1430 1.370 . S
C1431 C1432 1.403 . S
C1432 C1431 1.403 . S
C1432 C1433 1.404 . S
C1432 C1435 1.539 1_565 S
C1433 C1429 1.408 . S
C1433 C1432 1.404 . S
C1433 H1445 0.930 . S
C1434 C1430 1.524 . S
C1434 H1446 0.956 . S
C1434 H1447 0.961 . S
C1434 H1448 0.961 . S
C1435 C1432 1.539 1_545 S
C1435 H1449 0.958 . S
C1435 H1450 0.961 . S
C1435 H1451 0.960 . S
H1436 C1420 0.931 . S
H1437 C1425 0.929 . S
H1438 C1426 0.939 1_565 S
H1439 C1426 0.962 1_565 S
H1440 C1426 0.960 . S
H1441 C1427 0.961 . S
H1442 C1427 0.961 . S
H1443 C1427 0.961 . S
H1444 C1428 0.931 . S
H1445 C1433 0.930 . S
H1446 C1434 0.956 . S
H1447 C1434 0.961 . S
H1448 C1434 0.961 . S
H1449 C1435 0.958 . S
H1450 C1435 0.961 . S
H1451 C1435 0.960 . S
C1452 C1453 1.391 . S
C1452 C1454 1.394 . S
C1452 H1468 0.931 . S
C1453 C1452 1.391 . S
C1453 C1457 1.376 . S
C1454 C1452 1.394 . S
C1454 C1455 1.369 . S
C1454 C1458 1.531 . S
C1455 C1454 1.369 . S
C1455 C1456 1.410 . S
C1455 C1463 1.503 . S
C1456 C1455 1.410 . S
C1456 C1457 1.392 . S
C1456 C1459 1.511 . S
C1457 C1453 1.376 . S
C1457 C1456 1.392 . S
C1457 H1469 0.929 . S
C1458 C1454 1.531 . S
C1458 H1470 0.960 . S
C1458 H1471 0.962 . S
C1458 H1472 0.960 . S
C1459 C1456 1.511 . S
C1459 H1473 0.961 . S
C1459 H1474 0.961 . S
C1459 H1475 0.961 . S
C1460 C1461 1.370 . S
C1460 C1462 1.363 . S
C1460 H1476 0.931 . S
C1461 C1460 1.370 . S
C1461 C1465 1.408 . S
C1462 C1460 1.363 . S
C1462 C1463 1.370 . S
C1462 C1466 1.524 . S
C1463 C1455 1.503 . S
C1463 C1462 1.370 . S
C1463 C1464 1.403 . S
C1464 C1463 1.403 . S
C1464 C1465 1.404 . S
C1464 C1467 1.539 . S
C1465 C1461 1.408 . S
C1465 C1464 1.404 . S
C1465 H1477 0.930 . S
C1466 C1462 1.524 . S
C1466 H1478 0.956 . S
C1466 H1479 0.961 . S
C1466 H1480 0.961 . S
C1467 C1464 1.539 . S
C1467 H1481 0.958 . S
C1467 H1482 0.961 . S
C1467 H1483 0.960 . S
H1468 C1452 0.931 . S
H1469 C1457 0.929 . S
H1470 C1458 0.960 . S
H1471 C1458 0.962 . S
H1472 C1458 0.960 . S
H1473 C1459 0.961 . S
H1474 C1459 0.961 . S
H1475 C1459 0.961 . S
H1476 C1460 0.931 . S
H1477 C1465 0.930 . S
H1478 C1466 0.956 . S
H1479 C1466 0.961 . S
H1480 C1466 0.961 . S
H1481 C1467 0.958 . S
H1482 C1467 0.961 . S
H1483 C1467 0.960 . S
C1484 C1485 1.391 . S
C1484 C1486 1.394 . S
C1484 H1500 0.931 . S
C1485 C1484 1.391 . S
C1485 C1489 1.376 . S
C1486 C1484 1.394 . S
C1486 C1487 1.369 . S
C1486 C1490 1.531 . S
C1487 C1486 1.369 . S
C1487 C1488 1.410 . S
C1487 C1495 1.503 . S
C1488 C1487 1.410 . S
C1488 C1489 1.392 . S
C1488 C1491 1.511 . S
C1489 C1485 1.376 . S
C1489 C1488 1.392 . S
C1489 H1501 0.929 . S
C1490 C1486 1.531 . S
C1490 H1502 0.960 . S
C1490 H1503 0.962 . S
C1490 H1504 0.960 . S
C1491 C1488 1.511 . S
C1491 H1505 0.961 . S
C1491 H1506 0.961 . S
C1491 H1507 0.961 . S
C1492 C1493 1.370 . S
C1492 C1494 1.363 . S
C1492 H1508 0.931 . S
C1493 C1492 1.370 . S
C1493 C1497 1.408 . S
C1494 C1492 1.363 . S
C1494 C1495 1.370 . S
C1494 C1498 1.524 . S
C1495 C1487 1.503 . S
C1495 C1494 1.370 . S
C1495 C1496 1.403 . S
C1496 C1495 1.403 . S
C1496 C1497 1.404 . S
C1496 C1499 1.539 . S
C1497 C1493 1.408 . S
C1497 C1496 1.404 . S
C1497 H1509 0.930 . S
C1498 C1494 1.524 . S
C1498 H1510 0.956 . S
C1498 H1511 0.961 . S
C1498 H1512 0.961 . S
C1499 C1496 1.539 . S
C1499 H1513 0.958 . S
C1499 H1514 0.961 . S
C1499 H1515 0.960 . S
H1500 C1484 0.931 . S
H1501 C1489 0.929 . S
H1502 C1490 0.960 . S
H1503 C1490 0.962 . S
H1504 C1490 0.960 . S
H1505 C1491 0.961 . S
H1506 C1491 0.961 . S
H1507 C1491 0.961 . S
H1508 C1492 0.931 . S
H1509 C1497 0.930 . S
H1510 C1498 0.956 . S
H1511 C1498 0.961 . S
H1512 C1498 0.961 . S
H1513 C1499 0.958 . S
H1514 C1499 0.961 . S
H1515 C1499 0.960 . S
C1516 C1517 1.391 . S
C1516 C1518 1.394 . S
C1516 H1532 0.931 . S
C1517 C1516 1.391 . S
C1517 C1521 1.376 . S
C1518 C1516 1.394 . S
C1518 C1519 1.369 . S
C1518 C1522 1.531 . S
C1519 C1518 1.369 . S
C1519 C1520 1.410 . S
C1519 C1527 1.503 . S
C1520 C1519 1.410 . S
C1520 C1521 1.392 . S
C1520 C1523 1.511 . S
C1521 C1517 1.376 . S
C1521 C1520 1.392 . S
C1521 H1533 0.929 . S
C1522 C1518 1.531 . S
C1522 H1534 0.960 . S
C1522 H1535 0.962 . S
C1522 H1536 0.960 . S
C1523 C1520 1.511 . S
C1523 H1537 0.961 . S
C1523 H1538 0.961 . S
C1523 H1539 0.961 . S
C1524 C1525 1.370 . S
C1524 C1526 1.363 . S
C1524 H1540 0.931 . S
C1525 C1524 1.370 . S
C1525 C1529 1.408 . S
C1526 C1524 1.363 . S
C1526 C1527 1.370 . S
C1526 C1530 1.524 . S
C1527 C1519 1.503 . S
C1527 C1526 1.370 . S
C1527 C1528 1.403 . S
C1528 C1527 1.403 . S
C1528 C1529 1.404 . S
C1528 C1531 1.539 . S
C1529 C1525 1.408 . S
C1529 C1528 1.404 . S
C1529 H1541 0.930 . S
C1530 C1526 1.524 . S
C1530 H1542 0.956 . S
C1530 H1543 0.961 . S
C1530 H1544 0.961 . S
C1531 C1528 1.539 . S
C1531 H1545 0.958 . S
C1531 H1546 0.961 . S
C1531 H1547 0.960 . S
H1532 C1516 0.931 . S
H1533 C1521 0.929 . S
H1534 C1522 0.960 . S
H1535 C1522 0.962 . S
H1536 C1522 0.960 . S
H1537 C1523 0.961 . S
H1538 C1523 0.961 . S
H1539 C1523 0.961 . S
H1540 C1524 0.931 . S
H1541 C1529 0.930 . S
H1542 C1530 0.956 . S
H1543 C1530 0.961 . S
H1544 C1530 0.961 . S
H1545 C1531 0.958 . S
H1546 C1531 0.961 . S
H1547 C1531 0.960 . S
C1548 C1549 1.391 . S
C1548 C1550 1.394 . S
C1548 H1564 0.931 . S
C1549 C1548 1.391 . S
C1549 C1553 1.376 . S
C1550 C1548 1.394 . S
C1550 C1551 1.369 . S
C1550 C1554 1.531 . S
C1551 C1550 1.369 . S
C1551 C1552 1.410 . S
C1551 C1559 1.503 . S
C1552 C1551 1.410 . S
C1552 C1553 1.392 . S
C1552 C1555 1.511 . S
C1553 C1549 1.376 . S
C1553 C1552 1.392 . S
C1553 H1565 0.929 . S
C1554 C1550 1.531 . S
C1554 H1566 0.960 . S
C1554 H1567 0.962 . S
C1554 H1568 0.960 . S
C1555 C1552 1.511 . S
C1555 H1569 0.961 . S
C1555 H1570 0.961 . S
C1555 H1571 0.961 . S
C1556 C1557 1.370 . S
C1556 C1558 1.363 . S
C1556 H1572 0.931 . S
C1557 C1556 1.370 . S
C1557 C1561 1.408 . S
C1558 C1556 1.363 . S
C1558 C1559 1.370 . S
C1558 C1562 1.524 . S
C1559 C1551 1.503 . S
C1559 C1558 1.370 . S
C1559 C1560 1.403 . S
C1560 C1559 1.403 . S
C1560 C1561 1.404 . S
C1560 C1563 1.539 . S
C1561 C1557 1.408 . S
C1561 C1560 1.404 . S
C1561 H1573 0.930 . S
C1562 C1558 1.524 . S
C1562 H1574 0.956 . S
C1562 H1575 0.961 . S
C1562 H1576 0.961 . S
C1563 C1560 1.539 . S
C1563 H1577 0.958 . S
C1563 H1578 0.961 . S
C1563 H1579 0.960 . S
H1564 C1548 0.931 . S
H1565 C1553 0.929 . S
H1566 C1554 0.960 . S
H1567 C1554 0.962 . S
H1568 C1554 0.960 . S
H1569 C1555 0.961 . S
H1570 C1555 0.961 . S
H1571 C1555 0.961 . S
H1572 C1556 0.931 . S
H1573 C1561 0.930 . S
H1574 C1562 0.956 . S
H1575 C1562 0.961 . S
H1576 C1562 0.961 . S
H1577 C1563 0.958 . S
H1578 C1563 0.961 . S
H1579 C1563 0.960 . S
C1580 C1581 1.391 . S
C1580 C1582 1.394 . S
C1580 H1596 0.931 . S
C1581 C1580 1.391 . S
C1581 C1585 1.376 . S
C1582 C1580 1.394 . S
C1582 C1583 1.369 . S
C1582 C1586 1.531 . S
C1583 C1582 1.369 . S
C1583 C1584 1.410 . S
C1583 C1591 1.503 . S
C1584 C1583 1.410 . S
C1584 C1585 1.392 . S
C1584 C1587 1.511 . S
C1585 C1581 1.376 . S
C1585 C1584 1.392 . S
C1585 H1597 0.929 . S
C1586 C1582 1.531 . S
C1586 H1598 0.960 . S
C1586 H1599 0.962 . S
C1586 H1600 0.960 . S
C1587 C1584 1.511 . S
C1587 H1601 0.961 . S
C1587 H1602 0.961 . S
C1587 H1603 0.961 . S
C1588 C1589 1.370 . S
C1588 C1590 1.363 . S
C1588 H1604 0.931 . S
C1589 C1588 1.370 . S
C1589 C1593 1.408 . S
C1590 C1588 1.363 . S
C1590 C1591 1.370 . S
C1590 C1594 1.524 . S
C1591 C1583 1.503 . S
C1591 C1590 1.370 . S
C1591 C1592 1.403 . S
C1592 C1591 1.403 . S
C1592 C1593 1.404 . S
C1592 C1595 1.539 . S
C1593 C1589 1.408 . S
C1593 C1592 1.404 . S
C1593 H1605 0.930 . S
C1594 C1590 1.524 . S
C1594 H1606 0.956 . S
C1594 H1607 0.961 . S
C1594 H1608 0.961 . S
C1595 C1592 1.539 . S
C1595 H1609 0.958 . S
C1595 H1610 0.961 . S
C1595 H1611 0.960 . S
H1596 C1580 0.931 . S
H1597 C1585 0.929 . S
H1598 C1586 0.960 . S
H1599 C1586 0.962 . S
H1600 C1586 0.960 . S
H1601 C1587 0.961 . S
H1602 C1587 0.961 . S
H1603 C1587 0.961 . S
H1604 C1588 0.931 . S
H1605 C1593 0.930 . S
H1606 C1594 0.956 . S
H1607 C1594 0.961 . S
H1608 C1594 0.961 . S
H1609 C1595 0.958 . S
H1610 C1595 0.961 . S
H1611 C1595 0.960 . S
C1612 C1613 1.391 . S
C1612 C1614 1.394 . S
C1612 H1628 0.931 . S
C1613 C1612 1.391 . S
C1613 C1617 1.376 . S
C1614 C1612 1.394 . S
C1614 C1615 1.369 . S
C1614 C1618 1.531 . S
C1615 C1614 1.369 . S
C1615 C1616 1.410 . S
C1615 C1623 1.503 . S
C1616 C1615 1.410 . S
C1616 C1617 1.392 . S
C1616 C1619 1.511 . S
C1617 C1613 1.376 . S
C1617 C1616 1.392 . S
C1617 H1629 0.929 . S
C1618 C1614 1.531 . S
C1618 H1630 0.960 . S
C1618 H1631 0.962 . S
C1618 H1632 0.960 . S
C1619 C1616 1.511 . S
C1619 H1633 0.961 . S
C1619 H1634 0.961 . S
C1619 H1635 0.961 . S
C1620 C1621 1.370 . S
C1620 C1622 1.363 . S
C1620 H1636 0.931 . S
C1621 C1620 1.370 . S
C1621 C1625 1.408 . S
C1622 C1620 1.363 . S
C1622 C1623 1.370 . S
C1622 C1626 1.524 . S
C1623 C1615 1.503 . S
C1623 C1622 1.370 . S
C1623 C1624 1.403 . S
C1624 C1623 1.403 . S
C1624 C1625 1.404 . S
C1624 C1627 1.539 . S
C1625 C1621 1.408 . S
C1625 C1624 1.404 . S
C1625 H1637 0.930 . S
C1626 C1622 1.524 . S
C1626 H1638 0.956 . S
C1626 H1639 0.961 . S
C1626 H1640 0.961 . S
C1627 C1624 1.539 . S
C1627 H1641 0.958 . S
C1627 H1642 0.961 . S
C1627 H1643 0.960 . S
H1628 C1612 0.931 . S
H1629 C1617 0.929 . S
H1630 C1618 0.960 . S
H1631 C1618 0.962 . S
H1632 C1618 0.960 . S
H1633 C1619 0.961 . S
H1634 C1619 0.961 . S
H1635 C1619 0.961 . S
H1636 C1620 0.931 . S
H1637 C1625 0.930 . S
H1638 C1626 0.956 . S
H1639 C1626 0.961 . S
H1640 C1626 0.961 . S
H1641 C1627 0.958 . S
H1642 C1627 0.961 . S
H1643 C1627 0.960 . S
C1644 C1645 1.359 1_565 S
C1644 C1646 1.418 . S
C1644 H1660 0.939 1_565 S
C1645 C1644 1.359 1_545 S
C1645 C1649 1.376 . S
C1646 C1644 1.418 . S
C1646 C1647 1.369 . S
C1646 C1650 1.531 . S
C1647 C1646 1.369 . S
C1647 C1648 1.410 . S
C1647 C1655 1.503 . S
C1648 C1647 1.410 . S
C1648 C1649 1.392 1_565 S
C1648 C1651 1.511 . S
C1649 C1645 1.376 . S
C1649 C1648 1.392 1_545 S
C1649 H1661 0.929 . S
C1650 C1646 1.531 . S
C1650 H1662 0.960 . S
C1650 H1663 0.962 . S
C1650 H1664 0.960 . S
C1651 C1648 1.511 . S
C1651 H1665 0.961 . S
C1651 H1666 0.961 . S
C1651 H1667 0.961 . S
C1652 C1653 1.370 . S
C1652 C1654 1.363 . S
C1652 H1668 0.931 . S
C1653 C1652 1.370 . S
C1653 C1657 1.408 . S
C1654 C1652 1.363 . S
C1654 C1655 1.370 . S
C1654 C1658 1.524 . S
C1655 C1647 1.503 . S
C1655 C1654 1.370 . S
C1655 C1656 1.403 . S
C1656 C1655 1.403 . S
C1656 C1657 1.404 . S
C1656 C1659 1.539 . S
C1657 C1653 1.408 . S
C1657 C1656 1.404 . S
C1657 H1669 0.930 . S
C1658 C1654 1.524 . S
C1658 H1670 0.956 . S
C1658 H1671 0.961 . S
C1658 H1672 0.961 . S
C1659 C1656 1.539 . S
C1659 H1673 0.958 . S
C1659 H1674 0.961 . S
C1659 H1675 0.960 . S
H1660 C1644 0.939 1_545 S
H1661 C1649 0.929 . S
H1662 C1650 0.960 . S
H1663 C1650 0.962 . S
H1664 C1650 0.960 . S
H1665 C1651 0.961 . S
H1666 C1651 0.961 . S
H1667 C1651 0.961 . S
H1668 C1652 0.931 . S
H1669 C1657 0.930 . S
H1670 C1658 0.956 . S
H1671 C1658 0.961 . S
H1672 C1658 0.961 . S
H1673 C1659 0.958 . S
H1674 C1659 0.961 . S
H1675 C1659 0.960 . S
C1676 C1677 1.391 1_455 S
C1676 C1678 1.394 . S
C1676 H1692 0.931 1_455 S
C1677 C1676 1.391 1_655 S
C1677 C1681 1.376 1_655 S
C1678 C1676 1.394 . S
C1678 C1679 1.369 . S
C1678 C1682 1.531 . S
C1679 C1678 1.369 . S
C1679 C1680 1.410 . S
C1679 C1687 1.503 . S
C1680 C1679 1.410 . S
C1680 C1681 1.392 . S
C1680 C1683 1.511 . S
C1681 C1677 1.376 1_455 S
C1681 C1680 1.392 . S
C1681 H1693 0.929 . S
C1682 C1678 1.531 . S
C1682 H1694 0.960 . S
C1682 H1695 0.962 . S
C1682 H1696 0.960 . S
C1683 C1680 1.511 . S
C1683 H1697 0.961 . S
C1683 H1698 0.961 . S
C1683 H1699 0.961 . S
C1684 C1685 1.370 . S
C1684 C1686 1.363 . S
C1684 H1700 0.931 . S
C1685 C1684 1.370 . S
C1685 C1689 1.408 . S
C1686 C1684 1.363 . S
C1686 C1687 1.370 . S
C1686 C1690 1.524 . S
C1687 C1679 1.503 . S
C1687 C1686 1.370 . S
C1687 C1688 1.403 . S
C1688 C1687 1.403 . S
C1688 C1689 1.404 . S
C1688 C1691 1.539 . S
C1689 C1685 1.408 . S
C1689 C1688 1.404 . S
C1689 H1701 0.930 . S
C1690 C1686 1.524 . S
C1690 H1702 0.956 . S
C1690 H1703 0.961 . S
C1690 H1704 0.961 . S
C1691 C1688 1.539 . S
C1691 H1705 0.958 . S
C1691 H1706 0.961 . S
C1691 H1707 0.960 . S
H1692 C1676 0.931 1_655 S
H1693 C1681 0.929 . S
H1694 C1682 0.960 . S
H1695 C1682 0.962 . S
H1696 C1682 0.960 . S
H1697 C1683 0.961 . S
H1698 C1683 0.961 . S
H1699 C1683 0.961 . S
H1700 C1684 0.931 . S
H1701 C1689 0.930 . S
H1702 C1690 0.956 . S
H1703 C1690 0.961 . S
H1704 C1690 0.961 . S
H1705 C1691 0.958 . S
H1706 C1691 0.961 . S
H1707 C1691 0.960 . S
C1708 C1709 1.391 . S
C1708 C1710 1.394 . S
C1708 H1724 0.931 . S
C1709 C1708 1.391 . S
C1709 C1713 1.376 . S
C1710 C1708 1.394 . S
C1710 C1711 1.369 . S
C1710 C1714 1.531 . S
C1711 C1710 1.369 . S
C1711 C1712 1.410 . S
C1711 C1719 1.503 . S
C1712 C1711 1.410 . S
C1712 C1713 1.392 . S
C1712 C1715 1.511 . S
C1713 C1709 1.376 . S
C1713 C1712 1.392 . S
C1713 H1725 0.929 . S
C1714 C1710 1.531 . S
C1714 H1726 0.960 . S
C1714 H1727 0.962 . S
C1714 H1728 0.960 . S
C1715 C1712 1.511 . S
C1715 H1729 0.961 . S
C1715 H1730 0.961 . S
C1715 H1731 0.961 . S
C1716 C1717 1.370 . S
C1716 C1718 1.363 . S
C1716 H1732 0.931 . S
C1717 C1716 1.370 . S
C1717 C1721 1.408 . S
C1718 C1716 1.363 . S
C1718 C1719 1.370 . S
C1718 C1722 1.524 . S
C1719 C1711 1.503 . S
C1719 C1718 1.370 . S
C1719 C1720 1.403 . S
C1720 C1719 1.403 . S
C1720 C1721 1.404 . S
C1720 C1723 1.539 . S
C1721 C1717 1.408 . S
C1721 C1720 1.404 . S
C1721 H1733 0.930 . S
C1722 C1718 1.524 . S
C1722 H1734 0.956 . S
C1722 H1735 0.961 . S
C1722 H1736 0.961 . S
C1723 C1720 1.539 . S
C1723 H1737 0.958 . S
C1723 H1738 0.961 . S
C1723 H1739 0.960 . S
H1724 C1708 0.931 . S
H1725 C1713 0.929 . S
H1726 C1714 0.960 . S
H1727 C1714 0.962 . S
H1728 C1714 0.960 . S
H1729 C1715 0.961 . S
H1730 C1715 0.961 . S
H1731 C1715 0.961 . S
H1732 C1716 0.931 . S
H1733 C1721 0.930 . S
H1734 C1722 0.956 . S
H1735 C1722 0.961 . S
H1736 C1722 0.961 . S
H1737 C1723 0.958 . S
H1738 C1723 0.961 . S
H1739 C1723 0.960 . S
C1740 C1741 1.391 . S
C1740 C1742 1.394 . S
C1740 H1756 0.931 . S
C1741 C1740 1.391 . S
C1741 C1745 1.376 . S
C1742 C1740 1.394 . S
C1742 C1743 1.369 . S
C1742 C1746 1.531 . S
C1743 C1742 1.369 . S
C1743 C1744 1.410 . S
C1743 C1751 1.503 . S
C1744 C1743 1.410 . S
C1744 C1745 1.392 . S
C1744 C1747 1.511 . S
C1745 C1741 1.376 . S
C1745 C1744 1.392 . S
C1745 H1757 0.929 . S
C1746 C1742 1.531 . S
C1746 H1758 0.960 . S
C1746 H1759 0.962 . S
C1746 H1760 0.960 . S
C1747 C1744 1.511 . S
C1747 H1761 0.961 . S
C1747 H1762 0.961 . S
C1747 H1763 0.961 . S
C1748 C1749 1.370 . S
C1748 C1750 1.363 . S
C1748 H1764 0.931 . S
C1749 C1748 1.370 . S
C1749 C1753 1.408 . S
C1750 C1748 1.363 . S
C1750 C1751 1.370 . S
C1750 C1754 1.524 . S
C1751 C1743 1.503 . S
C1751 C1750 1.370 . S
C1751 C1752 1.403 . S
C1752 C1751 1.403 . S
C1752 C1753 1.404 . S
C1752 C1755 1.539 . S
C1753 C1749 1.408 . S
C1753 C1752 1.404 . S
C1753 H1765 0.930 . S
C1754 C1750 1.524 . S
C1754 H1766 0.956 . S
C1754 H1767 0.961 . S
C1754 H1768 0.961 . S
C1755 C1752 1.539 . S
C1755 H1769 0.958 . S
C1755 H1770 0.961 . S
C1755 H1771 0.960 . S
H1756 C1740 0.931 . S
H1757 C1745 0.929 . S
H1758 C1746 0.960 . S
H1759 C1746 0.962 . S
H1760 C1746 0.960 . S
H1761 C1747 0.961 . S
H1762 C1747 0.961 . S
H1763 C1747 0.961 . S
H1764 C1748 0.931 . S
H1765 C1753 0.930 . S
H1766 C1754 0.956 . S
H1767 C1754 0.961 . S
H1768 C1754 0.961 . S
H1769 C1755 0.958 . S
H1770 C1755 0.961 . S
H1771 C1755 0.960 . S
C1772 C1773 1.391 . S
C1772 C1774 1.394 . S
C1772 H1788 0.931 . S
C1773 C1772 1.391 . S
C1773 C1777 1.376 . S
C1774 C1772 1.394 . S
C1774 C1775 1.369 . S
C1774 C1778 1.531 . S
C1775 C1774 1.369 . S
C1775 C1776 1.410 . S
C1775 C1783 1.503 . S
C1776 C1775 1.410 . S
C1776 C1777 1.392 . S
C1776 C1779 1.511 . S
C1777 C1773 1.376 . S
C1777 C1776 1.392 . S
C1777 H1789 0.929 . S
C1778 C1774 1.531 . S
C1778 H1790 0.960 . S
C1778 H1791 0.962 . S
C1778 H1792 0.960 . S
C1779 C1776 1.511 . S
C1779 H1793 0.961 . S
C1779 H1794 0.961 . S
C1779 H1795 0.961 . S
C1780 C1781 1.370 . S
C1780 C1782 1.363 . S
C1780 H1796 0.931 . S
C1781 C1780 1.370 . S
C1781 C1785 1.408 . S
C1782 C1780 1.363 . S
C1782 C1783 1.370 . S
C1782 C1786 1.524 . S
C1783 C1775 1.503 . S
C1783 C1782 1.370 . S
C1783 C1784 1.403 . S
C1784 C1783 1.403 . S
C1784 C1785 1.404 . S
C1784 C1787 1.539 . S
C1785 C1781 1.408 . S
C1785 C1784 1.404 . S
C1785 H1797 0.930 . S
C1786 C1782 1.524 . S
C1786 H1798 0.956 . S
C1786 H1799 0.961 . S
C1786 H1800 0.961 . S
C1787 C1784 1.539 . S
C1787 H1801 0.958 . S
C1787 H1802 0.961 . S
C1787 H1803 0.960 . S
H1788 C1772 0.931 . S
H1789 C1777 0.929 . S
H1790 C1778 0.960 . S
H1791 C1778 0.962 . S
H1792 C1778 0.960 . S
H1793 C1779 0.961 . S
H1794 C1779 0.961 . S
H1795 C1779 0.961 . S
H1796 C1780 0.931 . S
H1797 C1785 0.930 . S
H1798 C1786 0.956 . S
H1799 C1786 0.961 . S
H1800 C1786 0.961 . S
H1801 C1787 0.958 . S
H1802 C1787 0.961 . S
H1803 C1787 0.960 . S
C1804 C1805 1.391 . S
C1804 C1806 1.394 . S
C1804 H1820 0.931 . S
C1805 C1804 1.391 . S
C1805 C1809 1.376 . S
C1806 C1804 1.394 . S
C1806 C1807 1.369 . S
C1806 C1810 1.531 . S
C1807 C1806 1.369 . S
C1807 C1808 1.410 . S
C1807 C1815 1.503 . S
C1808 C1807 1.410 . S
C1808 C1809 1.392 . S
C1808 C1811 1.511 . S
C1809 C1805 1.376 . S
C1809 C1808 1.392 . S
C1809 H1821 0.929 . S
C1810 C1806 1.531 . S
C1810 H1822 0.960 . S
C1810 H1823 0.962 . S
C1810 H1824 0.960 . S
C1811 C1808 1.511 . S
C1811 H1825 0.961 . S
C1811 H1826 0.961 . S
C1811 H1827 0.961 . S
C1812 C1813 1.370 . S
C1812 C1814 1.363 . S
C1812 H1828 0.931 . S
C1813 C1812 1.370 . S
C1813 C1817 1.408 . S
C1814 C1812 1.363 . S
C1814 C1815 1.370 . S
C1814 C1818 1.524 . S
C1815 C1807 1.503 . S
C1815 C1814 1.370 . S
C1815 C1816 1.403 . S
C1816 C1815 1.403 . S
C1816 C1817 1.404 . S
C1816 C1819 1.539 . S
C1817 C1813 1.408 . S
C1817 C1816 1.404 . S
C1817 H1829 0.930 . S
C1818 C1814 1.524 . S
C1818 H1830 0.956 . S
C1818 H1831 0.961 . S
C1818 H1832 0.961 . S
C1819 C1816 1.539 . S
C1819 H1833 0.958 . S
C1819 H1834 0.961 . S
C1819 H1835 0.960 . S
H1820 C1804 0.931 . S
H1821 C1809 0.929 . S
H1822 C1810 0.960 . S
H1823 C1810 0.962 . S
H1824 C1810 0.960 . S
H1825 C1811 0.961 . S
H1826 C1811 0.961 . S
H1827 C1811 0.961 . S
H1828 C1812 0.931 . S
H1829 C1817 0.930 . S
H1830 C1818 0.956 . S
H1831 C1818 0.961 . S
H1832 C1818 0.961 . S
H1833 C1819 0.958 . S
H1834 C1819 0.961 . S
H1835 C1819 0.960 . S
C1836 C1837 1.391 . S
C1836 C1838 1.394 . S
C1836 H1852 0.931 . S
C1837 C1836 1.391 . S
C1837 C1841 1.376 . S
C1838 C1836 1.394 . S
C1838 C1839 1.369 . S
C1838 C1842 1.531 . S
C1839 C1838 1.369 . S
C1839 C1840 1.410 . S
C1839 C1847 1.503 1_565 S
C1840 C1839 1.410 . S
C1840 C1841 1.392 . S
C1840 C1843 1.511 1_565 S
C1841 C1837 1.376 . S
C1841 C1840 1.392 . S
C1841 H1853 0.929 . S
C1842 C1838 1.531 . S
C1842 H1854 0.960 . S
C1842 H1855 0.962 . S
C1842 H1856 0.960 . S
C1843 C1840 1.511 1_545 S
C1843 H1857 0.961 . S
C1843 H1858 0.961 . S
C1843 H1859 0.961 . S
C1844 C1845 1.370 . S
C1844 C1846 1.363 . S
C1844 H1860 0.931 . S
C1845 C1844 1.370 . S
C1845 C1849 1.408 . S
C1846 C1844 1.363 . S
C1846 C1847 1.370 . S
C1846 C1850 1.524 . S
C1847 C1839 1.503 1_545 S
C1847 C1846 1.370 . S
C1847 C1848 1.403 . S
C1848 C1847 1.403 . S
C1848 C1849 1.404 . S
C1848 C1851 1.539 . S
C1849 C1845 1.408 . S
C1849 C1848 1.404 . S
C1849 H1861 0.930 . S
C1850 C1846 1.524 . S
C1850 H1862 0.994 . S
C1850 H1863 0.961 . S
C1850 H1864 0.961 . S
C1851 C1848 1.539 . S
C1851 H1865 0.958 . S
C1851 H1866 0.961 . S
C1851 H1867 0.960 . S
H1852 C1836 0.931 . S
H1853 C1841 0.929 . S
H1854 C1842 0.960 . S
H1855 C1842 0.962 . S
H1856 C1842 0.960 . S
H1857 C1843 0.961 . S
H1858 C1843 0.961 . S
H1859 C1843 0.961 . S
H1860 C1844 0.931 . S
H1861 C1849 0.930 . S
H1862 C1850 0.994 . S
H1863 C1850 0.961 . S
H1864 C1850 0.961 . S
H1865 C1851 0.958 . S
H1866 C1851 0.961 . S
H1867 C1851 0.960 . S
C1868 C1869 1.391 . S
C1868 C1870 1.394 . S
C1868 H1884 0.931 . S
C1869 C1868 1.391 . S
C1869 C1873 1.376 . S
C1870 C1868 1.394 . S
C1870 C1871 1.369 . S
C1870 C1874 1.531 1_455 S
C1871 C1870 1.369 . S
C1871 C1872 1.410 . S
C1871 C1879 1.503 1_455 S
C1872 C1871 1.410 . S
C1872 C1873 1.392 . S
C1872 C1875 1.511 . S
C1873 C1869 1.376 . S
C1873 C1872 1.392 . S
C1873 H1885 0.929 . S
C1874 C1870 1.531 1_655 S
C1874 H1886 0.960 . S
C1874 H1887 0.962 . S
C1874 H1888 0.960 . S
C1875 C1872 1.511 . S
C1875 H1889 0.961 . S
C1875 H1890 0.961 . S
C1875 H1891 0.961 . S
C1876 C1877 1.370 . S
C1876 C1878 1.363 . S
C1876 H1892 0.931 . S
C1877 C1876 1.370 . S
C1877 C1881 1.408 . S
C1878 C1876 1.363 . S
C1878 C1879 1.370 . S
C1878 C1882 1.524 1_655 S
C1879 C1871 1.503 1_655 S
C1879 C1878 1.370 . S
C1879 C1880 1.403 . S
C1880 C1879 1.403 . S
C1880 C1881 1.404 . S
C1880 C1883 1.539 . S
C1881 C1877 1.408 . S
C1881 C1880 1.404 . S
C1881 H1893 0.930 . S
C1882 C1878 1.524 1_455 S
C1882 H1894 0.956 . S
C1882 H1895 0.961 . S
C1882 H1896 0.961 . S
C1883 C1880 1.539 . S
C1883 H1897 0.958 . S
C1883 H1898 0.961 . S
C1883 H1899 0.960 . S
H1884 C1868 0.931 . S
H1885 C1873 0.929 . S
H1886 C1874 0.960 . S
H1887 C1874 0.962 . S
H1888 C1874 0.960 . S
H1889 C1875 0.961 . S
H1890 C1875 0.961 . S
H1891 C1875 0.961 . S
H1892 C1876 0.931 . S
H1893 C1881 0.930 . S
H1894 C1882 0.956 . S
H1895 C1882 0.961 . S
H1896 C1882 0.961 . S
H1897 C1883 0.958 . S
H1898 C1883 0.961 . S
H1899 C1883 0.960 . S
C1900 C1901 1.391 . S
C1900 C1902 1.394 . S
C1900 H1916 0.931 . S
C1901 C1900 1.391 . S
C1901 C1905 1.376 . S
C1902 C1900 1.394 . S
C1902 C1903 1.369 . S
C1902 C1906 1.531 . S
C1903 C1902 1.369 . S
C1903 C1904 1.410 . S
C1903 C1911 1.503 . S
C1904 C1903 1.410 . S
C1904 C1905 1.392 . S
C1904 C1907 1.511 . S
C1905 C1901 1.376 . S
C1905 C1904 1.392 . S
C1905 H1917 0.929 . S
C1906 C1902 1.531 . S
C1906 H1918 0.960 . S
C1906 H1919 0.962 . S
C1906 H1920 0.960 . S
C1907 C1904 1.511 . S
C1907 H1921 0.961 . S
C1907 H1922 0.961 . S
C1907 H1923 0.961 . S
C1908 C1909 1.370 . S
C1908 C1910 1.363 . S
C1908 H1924 0.931 . S
C1909 C1908 1.370 . S
C1909 C1913 1.408 . S
C1910 C1908 1.363 . S
C1910 C1911 1.370 . S
C1910 C1914 1.524 . S
C1911 C1903 1.503 . S
C1911 C1910 1.370 . S
C1911 C1912 1.403 . S
C1912 C1911 1.403 . S
C1912 C1913 1.404 . S
C1912 C1915 1.539 . S
C1913 C1909 1.408 . S
C1913 C1912 1.404 . S
C1913 H1925 0.930 . S
C1914 C1910 1.524 . S
C1914 H1926 0.956 . S
C1914 H1927 0.961 . S
C1914 H1928 0.961 . S
C1915 C1912 1.539 . S
C1915 H1929 0.958 . S
C1915 H1930 0.961 . S
C1915 H1931 0.960 . S
H1916 C1900 0.931 . S
H1917 C1905 0.929 . S
H1918 C1906 0.960 . S
H1919 C1906 0.962 . S
H1920 C1906 0.960 . S
H1921 C1907 0.961 . S
H1922 C1907 0.961 . S
H1923 C1907 0.961 . S
H1924 C1908 0.931 . S
H1925 C1913 0.930 . S
H1926 C1914 0.956 . S
H1927 C1914 0.961 . S
H1928 C1914 0.961 . S
H1929 C1915 0.958 . S
H1930 C1915 0.961 . S
H1931 C1915 0.960 . S
C1932 C1933 1.391 . S
C1932 C1934 1.394 1_455 S
C1932 H1948 0.931 . S
C1933 C1932 1.391 . S
C1933 C1937 1.376 1_455 S
C1934 C1932 1.394 1_655 S
C1934 C1935 1.369 . S
C1934 C1938 1.531 . S
C1935 C1934 1.369 . S
C1935 C1936 1.410 . S
C1935 C1943 1.503 . S
C1936 C1935 1.410 . S
C1936 C1937 1.392 . S
C1936 C1939 1.511 . S
C1937 C1933 1.376 1_655 S
C1937 C1936 1.392 . S
C1937 H1949 0.929 . S
C1938 C1934 1.531 . S
C1938 H1950 0.960 . S
C1938 H1951 0.962 . S
C1938 H1952 0.960 . S
C1939 C1936 1.511 . S
C1939 H1953 0.961 . S
C1939 H1954 0.961 . S
C1939 H1955 0.961 . S
C1940 C1941 1.370 . S
C1940 C1942 1.363 . S
C1940 H1956 0.931 . S
C1941 C1940 1.370 . S
C1941 C1945 1.408 . S
C1942 C1940 1.363 . S
C1942 C1943 1.370 . S
C1942 C1946 1.524 . S
C1943 C1935 1.503 . S
C1943 C1942 1.370 . S
C1943 C1944 1.403 . S
C1944 C1943 1.403 . S
C1944 C1945 1.404 . S
C1944 C1947 1.539 . S
C1945 C1941 1.408 . S
C1945 C1944 1.404 . S
C1945 H1957 0.930 . S
C1946 C1942 1.524 . S
C1946 H1958 0.956 . S
C1946 H1959 0.961 . S
C1946 H1960 0.961 . S
C1947 C1944 1.539 . S
C1947 H1961 0.958 . S
C1947 H1962 0.961 . S
C1947 H1963 0.960 . S
H1948 C1932 0.931 . S
H1949 C1937 0.929 . S
H1950 C1938 0.960 . S
H1951 C1938 0.962 . S
H1952 C1938 0.960 . S
H1953 C1939 0.961 . S
H1954 C1939 0.961 . S
H1955 C1939 0.961 . S
H1956 C1940 0.931 . S
H1957 C1945 0.930 . S
H1958 C1946 0.956 . S
H1959 C1946 0.961 . S
H1960 C1946 0.961 . S
H1961 C1947 0.958 . S
H1962 C1947 0.961 . S
H1963 C1947 0.960 . S
C1964 C1965 1.391 . S
C1964 C1966 1.394 . S
C1964 H1980 0.931 . S
C1965 C1964 1.391 . S
C1965 C1969 1.376 . S
C1966 C1964 1.394 . S
C1966 C1967 1.369 . S
C1966 C1970 1.531 . S
C1967 C1966 1.369 . S
C1967 C1968 1.410 . S
C1967 C1975 1.503 . S
C1968 C1967 1.410 . S
C1968 C1969 1.392 . S
C1968 C1971 1.511 . S
C1969 C1965 1.376 . S
C1969 C1968 1.392 . S
C1969 H1981 0.929 . S
C1970 C1966 1.531 . S
C1970 H1982 0.960 . S
C1970 H1983 0.962 . S
C1970 H1984 0.960 . S
C1971 C1968 1.511 . S
C1971 H1985 0.961 . S
C1971 H1986 0.961 . S
C1971 H1987 0.961 . S
C1972 C1973 1.370 . S
C1972 C1974 1.363 . S
C1972 H1988 0.931 . S
C1973 C1972 1.370 . S
C1973 C1977 1.408 . S
C1974 C1972 1.363 . S
C1974 C1975 1.370 . S
C1974 C1978 1.524 . S
C1975 C1967 1.503 . S
C1975 C1974 1.370 . S
C1975 C1976 1.403 . S
C1976 C1975 1.403 . S
C1976 C1977 1.404 . S
C1976 C1979 1.539 . S
C1977 C1973 1.408 . S
C1977 C1976 1.404 . S
C1977 H1989 0.930 . S
C1978 C1974 1.524 . S
C1978 H1990 0.956 . S
C1978 H1991 0.961 . S
C1978 H1992 0.961 . S
C1979 C1976 1.539 . S
C1979 H1993 0.958 . S
C1979 H1994 0.961 . S
C1979 H1995 0.960 . S
H1980 C1964 0.931 . S
H1981 C1969 0.929 . S
H1982 C1970 0.960 . S
H1983 C1970 0.962 . S
H1984 C1970 0.960 . S
H1985 C1971 0.961 . S
H1986 C1971 0.961 . S
H1987 C1971 0.961 . S
H1988 C1972 0.931 . S
H1989 C1977 0.930 . S
H1990 C1978 0.956 . S
H1991 C1978 0.961 . S
H1992 C1978 0.961 . S
H1993 C1979 0.958 . S
H1994 C1979 0.961 . S
H1995 C1979 0.960 . S
C1996 C1997 1.395 . S
C1996 C1998 1.371 1_565 S
C1996 H2012 0.949 . S
C1997 C1996 1.395 . S
C1997 C2001 1.376 1_565 S
C1998 C1996 1.371 1_545 S
C1998 C1999 1.369 . S
C1998 C2002 1.531 . S
C1999 C1998 1.369 . S
C1999 C2000 1.410 . S
C1999 C2007 1.503 . S
C2000 C1999 1.410 . S
C2000 C2001 1.392 . S
C2000 C2003 1.511 . S
C2001 C1997 1.376 1_545 S
C2001 C2000 1.392 . S
C2001 H2013 0.929 1_545 S
C2002 C1998 1.531 . S
C2002 H2014 0.960 . S
C2002 H2015 0.962 . S
C2002 H2016 0.960 . S
C2003 C2000 1.511 . S
C2003 H2017 0.961 . S
C2003 H2018 0.961 . S
C2003 H2019 0.961 . S
C2004 C2005 1.370 . S
C2004 C2006 1.363 . S
C2004 H2020 0.931 . S
C2005 C2004 1.370 . S
C2005 C2009 1.408 . S
C2006 C2004 1.363 . S
C2006 C2007 1.370 . S
C2006 C2010 1.524 . S
C2007 C1999 1.503 . S
C2007 C2006 1.370 . S
C2007 C2008 1.403 . S
C2008 C2007 1.403 . S
C2008 C2009 1.404 . S
C2008 C2011 1.539 . S
C2009 C2005 1.408 . S
C2009 C2008 1.404 . S
C2009 H2021 0.930 . S
C2010 C2006 1.524 . S
C2010 H2022 0.956 . S
C2010 H2023 0.961 . S
C2010 H2024 0.961 . S
C2011 C2008 1.539 . S
C2011 H2025 0.958 . S
C2011 H2026 0.961 . S
C2011 H2027 0.960 . S
H2012 C1996 0.949 . S
H2013 C2001 0.929 1_565 S
H2014 C2002 0.960 . S
H2015 C2002 0.962 . S
H2016 C2002 0.960 . S
H2017 C2003 0.961 . S
H2018 C2003 0.961 . S
H2019 C2003 0.961 . S
H2020 C2004 0.931 . S
H2021 C2009 0.930 . S
H2022 C2010 0.956 . S
H2023 C2010 0.961 . S
H2024 C2010 0.961 . S
H2025 C2011 0.958 . S
H2026 C2011 0.961 . S
H2027 C2011 0.960 . S
C2028 C2029 1.391 . S
C2028 C2030 1.394 . S
C2028 H2044 0.931 . S
C2029 C2028 1.391 . S
C2029 C2033 1.376 . S
C2030 C2028 1.394 . S
C2030 C2031 1.369 . S
C2030 C2034 1.531 . S
C2031 C2030 1.369 . S
C2031 C2032 1.410 . S
C2031 C2039 1.503 . S
C2032 C2031 1.410 . S
C2032 C2033 1.392 . S
C2032 C2035 1.511 . S
C2033 C2029 1.376 . S
C2033 C2032 1.392 . S
C2033 H2045 0.929 . S
C2034 C2030 1.531 . S
C2034 H2046 0.960 . S
C2034 H2047 0.962 . S
C2034 H2048 0.960 . S
C2035 C2032 1.511 . S
C2035 H2049 0.961 . S
C2035 H2050 0.961 . S
C2035 H2051 0.961 . S
C2036 C2037 1.370 . S
C2036 C2038 1.363 . S
C2036 H2052 0.931 . S
C2037 C2036 1.370 . S
C2037 C2041 1.408 . S
C2038 C2036 1.363 . S
C2038 C2039 1.370 . S
C2038 C2042 1.524 . S
C2039 C2031 1.503 . S
C2039 C2038 1.370 . S
C2039 C2040 1.403 . S
C2040 C2039 1.403 . S
C2040 C2041 1.404 . S
C2040 C2043 1.539 . S
C2041 C2037 1.408 . S
C2041 C2040 1.404 . S
C2041 H2053 0.930 . S
C2042 C2038 1.524 . S
C2042 H2054 0.956 . S
C2042 H2055 0.961 . S
C2042 H2056 0.961 . S
C2043 C2040 1.539 . S
C2043 H2057 0.958 . S
C2043 H2058 0.961 . S
C2043 H2059 0.960 . S
H2044 C2028 0.931 . S
H2045 C2033 0.929 . S
H2046 C2034 0.960 . S
H2047 C2034 0.962 . S
H2048 C2034 0.960 . S
H2049 C2035 0.961 . S
H2050 C2035 0.961 . S
H2051 C2035 0.961 . S
H2052 C2036 0.931 . S
H2053 C2041 0.930 . S
H2054 C2042 0.956 . S
H2055 C2042 0.961 . S
H2056 C2042 0.961 . S
H2057 C2043 0.958 . S
H2058 C2043 0.961 . S
H2059 C2043 0.960 . S
C2060 C2061 1.391 . S
C2060 C2062 1.394 . S
C2060 H2076 0.931 . S
C2061 C2060 1.391 . S
C2061 C2065 1.376 . S
C2062 C2060 1.394 . S
C2062 C2063 1.369 . S
C2062 C2066 1.531 . S
C2063 C2062 1.369 . S
C2063 C2064 1.410 . S
C2063 C2071 1.503 . S
C2064 C2063 1.410 . S
C2064 C2065 1.392 . S
C2064 C2067 1.511 . S
C2065 C2061 1.376 . S
C2065 C2064 1.392 . S
C2065 H2077 0.929 . S
C2066 C2062 1.531 . S
C2066 H2078 0.960 . S
C2066 H2079 0.962 . S
C2066 H2080 0.960 . S
C2067 C2064 1.511 . S
C2067 H2081 0.961 . S
C2067 H2082 0.961 . S
C2067 H2083 0.961 . S
C2068 C2069 1.370 . S
C2068 C2070 1.363 . S
C2068 H2084 0.931 . S
C2069 C2068 1.370 . S
C2069 C2073 1.408 . S
C2070 C2068 1.363 . S
C2070 C2071 1.370 . S
C2070 C2074 1.524 . S
C2071 C2063 1.503 . S
C2071 C2070 1.370 . S
C2071 C2072 1.403 . S
C2072 C2071 1.403 . S
C2072 C2073 1.404 . S
C2072 C2075 1.539 . S
C2073 C2069 1.408 . S
C2073 C2072 1.404 . S
C2073 H2085 0.930 . S
C2074 C2070 1.524 . S
C2074 H2086 0.956 . S
C2074 H2087 0.961 . S
C2074 H2088 0.961 . S
C2075 C2072 1.539 . S
C2075 H2089 0.958 . S
C2075 H2090 0.961 . S
C2075 H2091 0.960 . S
H2076 C2060 0.931 . S
H2077 C2065 0.929 . S
H2078 C2066 0.960 . S
H2079 C2066 0.962 . S
H2080 C2066 0.960 . S
H2081 C2067 0.961 . S
H2082 C2067 0.961 . S
H2083 C2067 0.961 . S
H2084 C2068 0.931 . S
H2085 C2073 0.930 . S
H2086 C2074 0.956 . S
H2087 C2074 0.961 . S
H2088 C2074 0.961 . S
H2089 C2075 0.958 . S
H2090 C2075 0.961 . S
H2091 C2075 0.960 . S
C2092 C2093 1.391 . S
C2092 C2094 1.394 . S
C2092 H2108 0.931 . S
C2093 C2092 1.391 . S
C2093 C2097 1.376 . S
C2094 C2092 1.394 . S
C2094 C2095 1.369 . S
C2094 C2098 1.531 . S
C2095 C2094 1.369 . S
C2095 C2096 1.410 . S
C2095 C2103 1.503 . S
C2096 C2095 1.410 . S
C2096 C2097 1.392 . S
C2096 C2099 1.511 . S
C2097 C2093 1.376 . S
C2097 C2096 1.392 . S
C2097 H2109 0.929 . S
C2098 C2094 1.531 . S
C2098 H2110 0.960 . S
C2098 H2111 0.962 . S
C2098 H2112 0.960 . S
C2099 C2096 1.511 . S
C2099 H2113 0.961 . S
C2099 H2114 0.961 . S
C2099 H2115 0.961 . S
C2100 C2101 1.370 . S
C2100 C2102 1.363 . S
C2100 H2116 0.931 . S
C2101 C2100 1.370 . S
C2101 C2105 1.408 . S
C2102 C2100 1.363 . S
C2102 C2103 1.370 . S
C2102 C2106 1.524 . S
C2103 C2095 1.503 . S
C2103 C2102 1.370 . S
C2103 C2104 1.403 . S
C2104 C2103 1.403 . S
C2104 C2105 1.404 . S
C2104 C2107 1.539 . S
C2105 C2101 1.408 . S
C2105 C2104 1.404 . S
C2105 H2117 0.930 . S
C2106 C2102 1.524 . S
C2106 H2118 0.956 . S
C2106 H2119 0.961 . S
C2106 H2120 0.961 . S
C2107 C2104 1.539 . S
C2107 H2121 0.958 . S
C2107 H2122 0.961 . S
C2107 H2123 0.960 . S
H2108 C2092 0.931 . S
H2109 C2097 0.929 . S
H2110 C2098 0.960 . S
H2111 C2098 0.962 . S
H2112 C2098 0.960 . S
H2113 C2099 0.961 . S
H2114 C2099 0.961 . S
H2115 C2099 0.961 . S
H2116 C2100 0.931 . S
H2117 C2105 0.930 . S
H2118 C2106 0.956 . S
H2119 C2106 0.961 . S
H2120 C2106 0.961 . S
H2121 C2107 0.958 . S
H2122 C2107 0.961 . S
H2123 C2107 0.960 . S
C2124 C2125 1.391 . S
C2124 C2126 1.394 . S
C2124 H2140 0.931 . S
C2125 C2124 1.391 . S
C2125 C2129 1.376 . S
C2126 C2124 1.394 . S
C2126 C2127 1.369 . S
C2126 C2130 1.531 . S
C2127 C2126 1.369 . S
C2127 C2128 1.410 . S
C2127 C2135 1.503 . S
C2128 C2127 1.410 . S
C2128 C2129 1.392 . S
C2128 C2131 1.511 . S
C2129 C2125 1.376 . S
C2129 C2128 1.392 . S
C2129 H2141 0.929 . S
C2130 C2126 1.531 . S
C2130 H2142 0.960 . S
C2130 H2143 0.962 . S
C2130 H2144 0.960 . S
C2131 C2128 1.511 . S
C2131 H2145 0.961 . S
C2131 H2146 0.961 . S
C2131 H2147 0.961 . S
C2132 C2133 1.370 . S
C2132 C2134 1.363 . S
C2132 H2148 0.931 . S
C2133 C2132 1.370 . S
C2133 C2137 1.408 . S
C2134 C2132 1.363 . S
C2134 C2135 1.370 . S
C2134 C2138 1.524 . S
C2135 C2127 1.503 . S
C2135 C2134 1.370 . S
C2135 C2136 1.403 . S
C2136 C2135 1.403 . S
C2136 C2137 1.404 . S
C2136 C2139 1.539 . S
C2137 C2133 1.408 . S
C2137 C2136 1.404 . S
C2137 H2149 0.930 . S
C2138 C2134 1.524 . S
C2138 H2150 0.956 . S
C2138 H2151 0.961 . S
C2138 H2152 0.961 . S
C2139 C2136 1.539 . S
C2139 H2153 0.958 . S
C2139 H2154 0.961 . S
C2139 H2155 0.960 . S
H2140 C2124 0.931 . S
H2141 C2129 0.929 . S
H2142 C2130 0.960 . S
H2143 C2130 0.962 . S
H2144 C2130 0.960 . S
H2145 C2131 0.961 . S
H2146 C2131 0.961 . S
H2147 C2131 0.961 . S
H2148 C2132 0.931 . S
H2149 C2137 0.930 . S
H2150 C2138 0.956 . S
H2151 C2138 0.961 . S
H2152 C2138 0.961 . S
H2153 C2139 0.958 . S
H2154 C2139 0.961 . S
H2155 C2139 0.960 . S
C2156 C2157 1.391 . S
C2156 C2158 1.394 . S
C2156 H2172 0.931 . S
C2157 C2156 1.391 . S
C2157 C2161 1.376 . S
C2158 C2156 1.394 . S
C2158 C2159 1.369 . S
C2158 C2162 1.531 . S
C2159 C2158 1.369 . S
C2159 C2160 1.410 . S
C2159 C2167 1.503 . S
C2160 C2159 1.410 . S
C2160 C2161 1.392 . S
C2160 C2163 1.511 . S
C2161 C2157 1.376 . S
C2161 C2160 1.392 . S
C2161 H2173 0.929 . S
C2162 C2158 1.531 . S
C2162 H2174 0.960 . S
C2162 H2175 0.962 . S
C2162 H2176 0.960 . S
C2163 C2160 1.511 . S
C2163 H2177 0.961 . S
C2163 H2178 0.961 . S
C2163 H2179 0.961 . S
C2164 C2165 1.370 . S
C2164 C2166 1.363 . S
C2164 H2180 0.931 . S
C2165 C2164 1.370 . S
C2165 C2169 1.408 . S
C2166 C2164 1.363 . S
C2166 C2167 1.370 . S
C2166 C2170 1.524 . S
C2167 C2159 1.503 . S
C2167 C2166 1.370 . S
C2167 C2168 1.403 . S
C2168 C2167 1.403 . S
C2168 C2169 1.404 . S
C2168 C2171 1.539 . S
C2169 C2165 1.408 . S
C2169 C2168 1.404 . S
C2169 H2181 0.930 . S
C2170 C2166 1.524 . S
C2170 H2182 0.956 . S
C2170 H2183 0.961 . S
C2170 H2184 0.961 . S
C2171 C2168 1.539 . S
C2171 H2185 0.958 . S
C2171 H2186 0.987 . S
C2171 H2187 0.960 . S
H2172 C2156 0.931 . S
H2173 C2161 0.929 . S
H2174 C2162 0.960 . S
H2175 C2162 0.962 . S
H2176 C2162 0.960 . S
H2177 C2163 0.961 . S
H2178 C2163 0.961 . S
H2179 C2163 0.961 . S
H2180 C2164 0.931 . S
H2181 C2169 0.930 . S
H2182 C2170 0.956 . S
H2183 C2170 0.961 . S
H2184 C2170 0.961 . S
H2185 C2171 0.958 . S
H2186 C2171 0.987 . S
H2187 C2171 0.960 . S
C2188 C2189 1.391 . S
C2188 C2190 1.394 . S
C2188 H2204 0.931 . S
C2189 C2188 1.391 . S
C2189 C2193 1.376 . S
C2190 C2188 1.394 . S
C2190 C2191 1.369 . S
C2190 C2194 1.531 . S
C2191 C2190 1.369 . S
C2191 C2192 1.410 . S
C2191 C2199 1.503 . S
C2192 C2191 1.410 . S
C2192 C2193 1.392 . S
C2192 C2195 1.511 . S
C2193 C2189 1.376 . S
C2193 C2192 1.392 . S
C2193 H2205 0.929 . S
C2194 C2190 1.531 . S
C2194 H2206 0.960 . S
C2194 H2207 0.962 . S
C2194 H2208 0.960 . S
C2195 C2192 1.511 . S
C2195 H2209 0.961 . S
C2195 H2210 0.961 . S
C2195 H2211 0.961 . S
C2196 C2197 1.370 . S
C2196 C2198 1.363 . S
C2196 H2212 0.931 . S
C2197 C2196 1.370 . S
C2197 C2201 1.408 . S
C2198 C2196 1.363 . S
C2198 C2199 1.370 . S
C2198 C2202 1.524 . S
C2199 C2191 1.503 . S
C2199 C2198 1.370 . S
C2199 C2200 1.403 . S
C2200 C2199 1.403 . S
C2200 C2201 1.404 . S
C2200 C2203 1.539 . S
C2201 C2197 1.408 . S
C2201 C2200 1.404 . S
C2201 H2213 0.930 . S
C2202 C2198 1.524 . S
C2202 H2214 0.956 . S
C2202 H2215 0.961 . S
C2202 H2216 0.961 . S
C2203 C2200 1.539 . S
C2203 H2217 0.958 . S
C2203 H2218 0.961 . S
C2203 H2219 0.960 . S
H2204 C2188 0.931 . S
H2205 C2193 0.929 . S
H2206 C2194 0.960 . S
H2207 C2194 0.962 . S
H2208 C2194 0.960 . S
H2209 C2195 0.961 . S
H2210 C2195 0.961 . S
H2211 C2195 0.961 . S
H2212 C2196 0.931 . S
H2213 C2201 0.930 . S
H2214 C2202 0.956 . S
H2215 C2202 0.961 . S
H2216 C2202 0.961 . S
H2217 C2203 0.958 . S
H2218 C2203 0.961 . S
H2219 C2203 0.960 . S
C2220 C2221 1.391 . S
C2220 C2222 1.394 . S
C2220 H2236 0.931 . S
C2221 C2220 1.391 . S
C2221 C2225 1.376 . S
C2222 C2220 1.394 . S
C2222 C2223 1.369 . S
C2222 C2226 1.531 . S
C2223 C2222 1.369 . S
C2223 C2224 1.410 . S
C2223 C2231 1.503 . S
C2224 C2223 1.410 . S
C2224 C2225 1.392 . S
C2224 C2227 1.511 . S
C2225 C2221 1.376 . S
C2225 C2224 1.392 . S
C2225 H2237 0.929 . S
C2226 C2222 1.531 . S
C2226 H2238 0.960 . S
C2226 H2239 0.962 . S
C2226 H2240 0.960 . S
C2227 C2224 1.511 . S
C2227 H2241 0.961 . S
C2227 H2242 0.961 . S
C2227 H2243 0.961 . S
C2228 C2229 1.370 . S
C2228 C2230 1.363 . S
C2228 H2244 0.931 . S
C2229 C2228 1.370 . S
C2229 C2233 1.408 . S
C2230 C2228 1.363 . S
C2230 C2231 1.370 . S
C2230 C2234 1.524 . S
C2231 C2223 1.503 . S
C2231 C2230 1.370 . S
C2231 C2232 1.403 . S
C2232 C2231 1.403 . S
C2232 C2233 1.404 . S
C2232 C2235 1.539 . S
C2233 C2229 1.408 . S
C2233 C2232 1.404 . S
C2233 H2245 0.930 . S
C2234 C2230 1.524 . S
C2234 H2246 0.956 . S
C2234 H2247 0.961 . S
C2234 H2248 0.961 . S
C2235 C2232 1.539 . S
C2235 H2249 0.958 . S
C2235 H2250 0.961 . S
C2235 H2251 0.960 . S
H2236 C2220 0.931 . S
H2237 C2225 0.929 . S
H2238 C2226 0.960 . S
H2239 C2226 0.962 . S
H2240 C2226 0.960 . S
H2241 C2227 0.961 . S
H2242 C2227 0.961 . S
H2243 C2227 0.961 . S
H2244 C2228 0.931 . S
H2245 C2233 0.930 . S
H2246 C2234 0.956 . S
H2247 C2234 0.961 . S
H2248 C2234 0.961 . S
H2249 C2235 0.958 . S
H2250 C2235 0.961 . S
H2251 C2235 0.960 . S
C2252 C2253 1.391 . S
C2252 C2254 1.394 . S
C2252 H2268 0.931 . S
C2253 C2252 1.391 . S
C2253 C2257 1.376 . S
C2254 C2252 1.394 . S
C2254 C2255 1.369 . S
C2254 C2258 1.531 . S
C2255 C2254 1.369 . S
C2255 C2256 1.410 . S
C2255 C2263 1.503 . S
C2256 C2255 1.410 . S
C2256 C2257 1.392 . S
C2256 C2259 1.511 . S
C2257 C2253 1.376 . S
C2257 C2256 1.392 . S
C2257 H2269 0.929 . S
C2258 C2254 1.531 . S
C2258 H2270 0.960 . S
C2258 H2271 0.962 . S
C2258 H2272 0.960 . S
C2259 C2256 1.511 . S
C2259 H2273 0.961 . S
C2259 H2274 0.961 . S
C2259 H2275 0.961 . S
C2260 C2261 1.370 . S
C2260 C2262 1.363 . S
C2260 H2276 0.931 . S
C2261 C2260 1.370 . S
C2261 C2265 1.408 . S
C2262 C2260 1.363 . S
C2262 C2263 1.370 . S
C2262 C2266 1.524 . S
C2263 C2255 1.503 . S
C2263 C2262 1.370 . S
C2263 C2264 1.403 . S
C2264 C2263 1.403 . S
C2264 C2265 1.404 . S
C2264 C2267 1.539 . S
C2265 C2261 1.408 . S
C2265 C2264 1.404 . S
C2265 H2277 0.930 . S
C2266 C2262 1.524 . S
C2266 H2278 0.956 . S
C2266 H2279 0.961 . S
C2266 H2280 0.961 . S
C2267 C2264 1.539 . S
C2267 H2281 0.958 . S
C2267 H2282 0.961 . S
C2267 H2283 0.960 . S
H2268 C2252 0.931 . S
H2269 C2257 0.929 . S
H2270 C2258 0.960 . S
H2271 C2258 0.962 . S
H2272 C2258 0.960 . S
H2273 C2259 0.961 . S
H2274 C2259 0.961 . S
H2275 C2259 0.961 . S
H2276 C2260 0.931 . S
H2277 C2265 0.930 . S
H2278 C2266 0.956 . S
H2279 C2266 0.961 . S
H2280 C2266 0.961 . S
H2281 C2267 0.958 . S
H2282 C2267 0.961 . S
H2283 C2267 0.960 . S
C2284 C2285 1.391 . S
C2284 C2286 1.394 . S
C2284 H2300 0.931 . S
C2285 C2284 1.391 . S
C2285 C2289 1.376 . S
C2286 C2284 1.394 . S
C2286 C2287 1.369 . S
C2286 C2290 1.531 . S
C2287 C2286 1.369 . S
C2287 C2288 1.410 . S
C2287 C2295 1.503 . S
C2288 C2287 1.410 . S
C2288 C2289 1.392 . S
C2288 C2291 1.511 . S
C2289 C2285 1.376 . S
C2289 C2288 1.392 . S
C2289 H2301 0.929 . S
C2290 C2286 1.531 . S
C2290 H2302 0.960 . S
C2290 H2303 0.962 . S
C2290 H2304 0.960 . S
C2291 C2288 1.511 . S
C2291 H2305 0.961 . S
C2291 H2306 0.961 . S
C2291 H2307 0.961 . S
C2292 C2293 1.370 . S
C2292 C2294 1.363 . S
C2292 H2308 0.931 . S
C2293 C2292 1.370 . S
C2293 C2297 1.408 . S
C2294 C2292 1.363 . S
C2294 C2295 1.370 . S
C2294 C2298 1.524 . S
C2295 C2287 1.503 . S
C2295 C2294 1.370 . S
C2295 C2296 1.403 . S
C2296 C2295 1.403 . S
C2296 C2297 1.404 . S
C2296 C2299 1.539 . S
C2297 C2293 1.408 . S
C2297 C2296 1.404 . S
C2297 H2309 0.930 . S
C2298 C2294 1.524 . S
C2298 H2310 0.956 . S
C2298 H2311 0.961 . S
C2298 H2312 0.961 . S
C2299 C2296 1.539 . S
C2299 H2313 0.958 . S
C2299 H2314 0.961 . S
C2299 H2315 0.960 . S
H2300 C2284 0.931 . S
H2301 C2289 0.929 . S
H2302 C2290 0.960 . S
H2303 C2290 0.962 . S
H2304 C2290 0.960 . S
H2305 C2291 0.961 . S
H2306 C2291 0.961 . S
H2307 C2291 0.961 . S
H2308 C2292 0.931 . S
H2309 C2297 0.930 . S
H2310 C2298 0.956 . S
H2311 C2298 0.961 . S
H2312 C2298 0.961 . S
H2313 C2299 0.958 . S
H2314 C2299 0.961 . S
H2315 C2299 0.960 . S
C2316 C2317 1.391 . S
C2316 C2318 1.394 . S
C2316 H2332 0.931 . S
C2317 C2316 1.391 . S
C2317 C2321 1.376 . S
C2318 C2316 1.394 . S
C2318 C2319 1.369 . S
C2318 C2322 1.531 . S
C2319 C2318 1.369 . S
C2319 C2320 1.410 . S
C2319 C2327 1.503 . S
C2320 C2319 1.410 . S
C2320 C2321 1.392 . S
C2320 C2323 1.511 . S
C2321 C2317 1.376 . S
C2321 C2320 1.392 . S
C2321 H2333 0.929 . S
C2322 C2318 1.531 . S
C2322 H2334 0.960 . S
C2322 H2335 0.962 . S
C2322 H2336 0.960 . S
C2323 C2320 1.511 . S
C2323 H2337 0.961 . S
C2323 H2338 0.961 . S
C2323 H2339 0.961 . S
C2324 C2325 1.370 . S
C2324 C2326 1.363 . S
C2324 H2340 0.931 . S
C2325 C2324 1.370 . S
C2325 C2329 1.408 . S
C2326 C2324 1.363 . S
C2326 C2327 1.370 . S
C2326 C2330 1.524 . S
C2327 C2319 1.503 . S
C2327 C2326 1.370 . S
C2327 C2328 1.403 . S
C2328 C2327 1.403 . S
C2328 C2329 1.404 . S
C2328 C2331 1.539 . S
C2329 C2325 1.408 . S
C2329 C2328 1.404 . S
C2329 H2341 0.930 . S
C2330 C2326 1.524 . S
C2330 H2342 0.956 . S
C2330 H2343 0.961 . S
C2330 H2344 0.961 . S
C2331 C2328 1.539 . S
C2331 H2345 0.958 . S
C2331 H2346 0.961 . S
C2331 H2347 0.960 . S
H2332 C2316 0.931 . S
H2333 C2321 0.929 . S
H2334 C2322 0.960 . S
H2335 C2322 0.962 . S
H2336 C2322 0.960 . S
H2337 C2323 0.961 . S
H2338 C2323 0.961 . S
H2339 C2323 0.961 . S
H2340 C2324 0.931 . S
H2341 C2329 0.930 . S
H2342 C2330 0.956 . S
H2343 C2330 0.961 . S
H2344 C2330 0.961 . S
H2345 C2331 0.958 . S
H2346 C2331 0.961 . S
H2347 C2331 0.960 . S
C2348 C2349 1.391 . S
C2348 C2350 1.394 . S
C2348 H2364 0.931 . S
C2349 C2348 1.391 . S
C2349 C2353 1.376 . S
C2350 C2348 1.394 . S
C2350 C2351 1.369 . S
C2350 C2354 1.531 . S
C2351 C2350 1.369 . S
C2351 C2352 1.410 . S
C2351 C2359 1.503 . S
C2352 C2351 1.410 . S
C2352 C2353 1.392 . S
C2352 C2355 1.511 . S
C2353 C2349 1.376 . S
C2353 C2352 1.392 . S
C2353 H2365 0.929 . S
C2354 C2350 1.531 . S
C2354 H2366 0.960 . S
C2354 H2367 0.962 . S
C2354 H2368 0.960 . S
C2355 C2352 1.511 . S
C2355 H2369 0.961 . S
C2355 H2370 0.961 . S
C2355 H2371 0.961 . S
C2356 C2357 1.370 . S
C2356 C2358 1.363 . S
C2356 H2372 0.931 . S
C2357 C2356 1.370 . S
C2357 C2361 1.408 . S
C2358 C2356 1.363 . S
C2358 C2359 1.370 . S
C2358 C2362 1.524 . S
C2359 C2351 1.503 . S
C2359 C2358 1.370 . S
C2359 C2360 1.403 . S
C2360 C2359 1.403 . S
C2360 C2361 1.404 . S
C2360 C2363 1.539 . S
C2361 C2357 1.408 . S
C2361 C2360 1.404 . S
C2361 H2373 0.930 . S
C2362 C2358 1.524 . S
C2362 H2374 0.956 . S
C2362 H2375 0.961 . S
C2362 H2376 0.961 . S
C2363 C2360 1.539 . S
C2363 H2377 0.958 . S
C2363 H2378 0.961 . S
C2363 H2379 0.960 . S
H2364 C2348 0.931 . S
H2365 C2353 0.929 . S
H2366 C2354 0.960 . S
H2367 C2354 0.962 . S
H2368 C2354 0.960 . S
H2369 C2355 0.961 . S
H2370 C2355 0.961 . S
H2371 C2355 0.961 . S
H2372 C2356 0.931 . S
H2373 C2361 0.930 . S
H2374 C2362 0.956 . S
H2375 C2362 0.961 . S
H2376 C2362 0.961 . S
H2377 C2363 0.958 . S
H2378 C2363 0.961 . S
H2379 C2363 0.960 . S
C2380 C2381 1.391 . S
C2380 C2382 1.394 . S
C2380 H2396 0.931 . S
C2381 C2380 1.391 . S
C2381 C2385 1.376 . S
C2382 C2380 1.394 . S
C2382 C2383 1.369 . S
C2382 C2386 1.531 . S
C2383 C2382 1.369 . S
C2383 C2384 1.410 . S
C2383 C2391 1.503 . S
C2384 C2383 1.410 . S
C2384 C2385 1.392 . S
C2384 C2387 1.511 . S
C2385 C2381 1.376 . S
C2385 C2384 1.392 . S
C2385 H2397 0.929 . S
C2386 C2382 1.531 . S
C2386 H2398 0.960 . S
C2386 H2399 0.962 . S
C2386 H2400 0.960 . S
C2387 C2384 1.511 . S
C2387 H2401 0.961 . S
C2387 H2402 0.961 . S
C2387 H2403 0.961 . S
C2388 C2389 1.370 . S
C2388 C2390 1.363 . S
C2388 H2404 0.931 . S
C2389 C2388 1.370 . S
C2389 C2393 1.408 . S
C2390 C2388 1.363 . S
C2390 C2391 1.370 . S
C2390 C2394 1.524 . S
C2391 C2383 1.503 . S
C2391 C2390 1.370 . S
C2391 C2392 1.403 . S
C2392 C2391 1.403 . S
C2392 C2393 1.404 . S
C2392 C2395 1.539 . S
C2393 C2389 1.408 . S
C2393 C2392 1.404 . S
C2393 H2405 0.930 . S
C2394 C2390 1.524 . S
C2394 H2406 0.956 . S
C2394 H2407 0.961 . S
C2394 H2408 0.961 . S
C2395 C2392 1.539 . S
C2395 H2409 0.958 . S
C2395 H2410 0.961 . S
C2395 H2411 0.960 . S
H2396 C2380 0.931 . S
H2397 C2385 0.929 . S
H2398 C2386 0.960 . S
H2399 C2386 0.962 . S
H2400 C2386 0.960 . S
H2401 C2387 0.961 . S
H2402 C2387 0.961 . S
H2403 C2387 0.961 . S
H2404 C2388 0.931 . S
H2405 C2393 0.930 . S
H2406 C2394 0.956 . S
H2407 C2394 0.961 . S
H2408 C2394 0.961 . S
H2409 C2395 0.958 . S
H2410 C2395 0.961 . S
H2411 C2395 0.960 . S
C2412 C2413 1.391 . S
C2412 C2414 1.394 . S
C2412 H2428 0.931 . S
C2413 C2412 1.391 . S
C2413 C2417 1.376 . S
C2414 C2412 1.394 . S
C2414 C2415 1.369 . S
C2414 C2418 1.531 . S
C2415 C2414 1.369 . S
C2415 C2416 1.410 . S
C2415 C2423 1.503 . S
C2416 C2415 1.410 . S
C2416 C2417 1.392 . S
C2416 C2419 1.511 . S
C2417 C2413 1.376 . S
C2417 C2416 1.392 . S
C2417 H2429 0.929 . S
C2418 C2414 1.531 . S
C2418 H2430 0.960 . S
C2418 H2431 0.962 . S
C2418 H2432 0.960 . S
C2419 C2416 1.511 . S
C2419 H2433 0.961 . S
C2419 H2434 0.961 . S
C2419 H2435 0.961 . S
C2420 C2421 1.370 . S
C2420 C2422 1.363 . S
C2420 H2436 0.931 . S
C2421 C2420 1.370 . S
C2421 C2425 1.408 . S
C2422 C2420 1.363 . S
C2422 C2423 1.370 . S
C2422 C2426 1.524 . S
C2423 C2415 1.503 . S
C2423 C2422 1.370 . S
C2423 C2424 1.403 . S
C2424 C2423 1.403 . S
C2424 C2425 1.404 . S
C2424 C2427 1.539 . S
C2425 C2421 1.408 . S
C2425 C2424 1.404 . S
C2425 H2437 0.930 . S
C2426 C2422 1.524 . S
C2426 H2438 0.956 . S
C2426 H2439 0.961 . S
C2426 H2440 0.961 . S
C2427 C2424 1.539 . S
C2427 H2441 0.958 . S
C2427 H2442 0.961 . S
C2427 H2443 0.960 . S
H2428 C2412 0.931 . S
H2429 C2417 0.929 . S
H2430 C2418 0.960 . S
H2431 C2418 0.962 . S
H2432 C2418 0.960 . S
H2433 C2419 0.961 . S
H2434 C2419 0.961 . S
H2435 C2419 0.961 . S
H2436 C2420 0.931 . S
H2437 C2425 0.930 . S
H2438 C2426 0.956 . S
H2439 C2426 0.961 . S
H2440 C2426 0.961 . S
H2441 C2427 0.958 . S
H2442 C2427 0.961 . S
H2443 C2427 0.960 . S
C2444 C2445 1.391 . S
C2444 C2446 1.394 . S
C2444 H2460 0.931 . S
C2445 C2444 1.391 . S
C2445 C2449 1.376 . S
C2446 C2444 1.394 . S
C2446 C2447 1.369 . S
C2446 C2450 1.531 . S
C2447 C2446 1.369 . S
C2447 C2448 1.410 . S
C2447 C2455 1.503 . S
C2448 C2447 1.410 . S
C2448 C2449 1.392 . S
C2448 C2451 1.511 . S
C2449 C2445 1.376 . S
C2449 C2448 1.392 . S
C2449 H2461 0.929 . S
C2450 C2446 1.531 . S
C2450 H2462 0.960 . S
C2450 H2463 0.962 . S
C2450 H2464 0.960 . S
C2451 C2448 1.511 . S
C2451 H2465 0.961 . S
C2451 H2466 0.961 . S
C2451 H2467 0.961 . S
C2452 C2453 1.370 . S
C2452 C2454 1.363 . S
C2452 H2468 0.931 . S
C2453 C2452 1.370 . S
C2453 C2457 1.408 . S
C2454 C2452 1.363 . S
C2454 C2455 1.370 . S
C2454 C2458 1.524 . S
C2455 C2447 1.503 . S
C2455 C2454 1.370 . S
C2455 C2456 1.403 . S
C2456 C2455 1.403 . S
C2456 C2457 1.404 . S
C2456 C2459 1.539 . S
C2457 C2453 1.408 . S
C2457 C2456 1.404 . S
C2457 H2469 0.930 . S
C2458 C2454 1.524 . S
C2458 H2470 0.956 . S
C2458 H2471 0.961 . S
C2458 H2472 0.961 . S
C2459 C2456 1.539 . S
C2459 H2473 0.958 . S
C2459 H2474 0.961 . S
C2459 H2475 0.960 . S
H2460 C2444 0.931 . S
H2461 C2449 0.929 . S
H2462 C2450 0.960 . S
H2463 C2450 0.962 . S
H2464 C2450 0.960 . S
H2465 C2451 0.961 . S
H2466 C2451 0.961 . S
H2467 C2451 0.961 . S
H2468 C2452 0.931 . S
H2469 C2457 0.930 . S
H2470 C2458 0.956 . S
H2471 C2458 0.961 . S
H2472 C2458 0.961 . S
H2473 C2459 0.958 . S
H2474 C2459 0.961 . S
H2475 C2459 0.960 . S
C2476 C2477 1.391 . S
C2476 C2478 1.394 . S
C2476 H2492 0.931 . S
C2477 C2476 1.391 . S
C2477 C2481 1.376 . S
C2478 C2476 1.394 . S
C2478 C2479 1.369 . S
C2478 C2482 1.531 . S
C2479 C2478 1.369 . S
C2479 C2480 1.410 . S
C2479 C2487 1.503 . S
C2480 C2479 1.410 . S
C2480 C2481 1.392 . S
C2480 C2483 1.511 . S
C2481 C2477 1.376 . S
C2481 C2480 1.392 . S
C2481 H2493 0.929 . S
C2482 C2478 1.531 . S
C2482 H2494 0.960 . S
C2482 H2495 0.962 . S
C2482 H2496 0.960 . S
C2483 C2480 1.511 . S
C2483 H2497 0.961 . S
C2483 H2498 0.961 . S
C2483 H2499 0.961 . S
C2484 C2485 1.370 . S
C2484 C2486 1.363 . S
C2484 H2500 0.931 . S
C2485 C2484 1.370 . S
C2485 C2489 1.408 . S
C2486 C2484 1.363 . S
C2486 C2487 1.370 . S
C2486 C2490 1.524 . S
C2487 C2479 1.503 . S
C2487 C2486 1.370 . S
C2487 C2488 1.403 . S
C2488 C2487 1.403 . S
C2488 C2489 1.404 . S
C2488 C2491 1.539 . S
C2489 C2485 1.408 . S
C2489 C2488 1.404 . S
C2489 H2501 0.930 . S
C2490 C2486 1.524 . S
C2490 H2502 0.956 . S
C2490 H2503 0.961 . S
C2490 H2504 0.961 . S
C2491 C2488 1.539 . S
C2491 H2505 0.958 . S
C2491 H2506 0.961 . S
C2491 H2507 0.960 . S
H2492 C2476 0.931 . S
H2493 C2481 0.929 . S
H2494 C2482 0.960 . S
H2495 C2482 0.962 . S
H2496 C2482 0.960 . S
H2497 C2483 0.961 . S
H2498 C2483 0.961 . S
H2499 C2483 0.961 . S
H2500 C2484 0.931 . S
H2501 C2489 0.930 . S
H2502 C2490 0.956 . S
H2503 C2490 0.961 . S
H2504 C2490 0.961 . S
H2505 C2491 0.958 . S
H2506 C2491 0.961 . S
H2507 C2491 0.960 . S
C2508 C2509 1.391 . S
C2508 C2510 1.394 . S
C2508 H2524 0.931 . S
C2509 C2508 1.391 . S
C2509 C2513 1.376 . S
C2510 C2508 1.394 . S
C2510 C2511 1.369 . S
C2510 C2514 1.531 . S
C2511 C2510 1.369 . S
C2511 C2512 1.410 . S
C2511 C2519 1.503 . S
C2512 C2511 1.410 . S
C2512 C2513 1.392 . S
C2512 C2515 1.511 . S
C2513 C2509 1.376 . S
C2513 C2512 1.392 . S
C2513 H2525 0.929 . S
C2514 C2510 1.531 . S
C2514 H2526 0.960 . S
C2514 H2527 0.962 . S
C2514 H2528 0.960 . S
C2515 C2512 1.511 . S
C2515 H2529 0.961 . S
C2515 H2530 0.961 . S
C2515 H2531 0.961 . S
C2516 C2517 1.370 . S
C2516 C2518 1.363 . S
C2516 H2532 0.931 . S
C2517 C2516 1.370 . S
C2517 C2521 1.408 . S
C2518 C2516 1.363 . S
C2518 C2519 1.370 . S
C2518 C2522 1.524 . S
C2519 C2511 1.503 . S
C2519 C2518 1.370 . S
C2519 C2520 1.403 . S
C2520 C2519 1.403 . S
C2520 C2521 1.404 . S
C2520 C2523 1.539 . S
C2521 C2517 1.408 . S
C2521 C2520 1.404 . S
C2521 H2533 0.930 . S
C2522 C2518 1.524 . S
C2522 H2534 0.956 . S
C2522 H2535 0.961 . S
C2522 H2536 0.961 . S
C2523 C2520 1.539 . S
C2523 H2537 0.958 . S
C2523 H2538 0.961 . S
C2523 H2539 0.960 . S
H2524 C2508 0.931 . S
H2525 C2513 0.929 . S
H2526 C2514 0.960 . S
H2527 C2514 0.962 . S
H2528 C2514 0.960 . S
H2529 C2515 0.961 . S
H2530 C2515 0.961 . S
H2531 C2515 0.961 . S
H2532 C2516 0.931 . S
H2533 C2521 0.930 . S
H2534 C2522 0.956 . S
H2535 C2522 0.961 . S
H2536 C2522 0.961 . S
H2537 C2523 0.958 . S
H2538 C2523 0.961 . S
H2539 C2523 0.960 . S
C2540 C2541 1.391 . S
C2540 C2542 1.394 . S
C2540 H2556 0.931 . S
C2541 C2540 1.391 . S
C2541 C2545 1.376 . S
C2542 C2540 1.394 . S
C2542 C2543 1.369 . S
C2542 C2546 1.531 . S
C2543 C2542 1.369 . S
C2543 C2544 1.410 . S
C2543 C2551 1.503 . S
C2544 C2543 1.410 . S
C2544 C2545 1.392 . S
C2544 C2547 1.511 . S
C2545 C2541 1.376 . S
C2545 C2544 1.392 . S
C2545 H2557 0.929 . S
C2546 C2542 1.531 . S
C2546 H2558 0.960 . S
C2546 H2559 0.962 . S
C2546 H2560 0.960 . S
C2547 C2544 1.511 . S
C2547 H2561 0.961 . S
C2547 H2562 0.961 . S
C2547 H2563 0.961 . S
C2548 C2549 1.370 . S
C2548 C2550 1.363 . S
C2548 H2564 0.931 . S
C2549 C2548 1.370 . S
C2549 C2553 1.408 . S
C2550 C2548 1.363 . S
C2550 C2551 1.370 . S
C2550 C2554 1.524 . S
C2551 C2543 1.503 . S
C2551 C2550 1.370 . S
C2551 C2552 1.403 . S
C2552 C2551 1.403 . S
C2552 C2553 1.404 . S
C2552 C2555 1.539 . S
C2553 C2549 1.408 . S
C2553 C2552 1.404 . S
C2553 H2565 0.930 . S
C2554 C2550 1.524 . S
C2554 H2566 0.956 . S
C2554 H2567 0.961 . S
C2554 H2568 0.961 . S
C2555 C2552 1.539 . S
C2555 H2569 0.958 . S
C2555 H2570 0.961 . S
C2555 H2571 0.960 . S
H2556 C2540 0.931 . S
H2557 C2545 0.929 . S
H2558 C2546 0.960 . S
H2559 C2546 0.962 . S
H2560 C2546 0.960 . S
H2561 C2547 0.961 . S
H2562 C2547 0.961 . S
H2563 C2547 0.961 . S
H2564 C2548 0.931 . S
H2565 C2553 0.930 . S
H2566 C2554 0.956 . S
H2567 C2554 0.961 . S
H2568 C2554 0.961 . S
H2569 C2555 0.958 . S
H2570 C2555 0.961 . S
H2571 C2555 0.960 . S
C2572 C2573 1.391 . S
C2572 C2574 1.394 . S
C2572 H2588 0.931 . S
C2573 C2572 1.391 . S
C2573 C2577 1.376 . S
C2574 C2572 1.394 . S
C2574 C2575 1.369 . S
C2574 C2578 1.531 . S
C2575 C2574 1.369 . S
C2575 C2576 1.410 . S
C2575 C2583 1.503 . S
C2576 C2575 1.410 . S
C2576 C2577 1.392 . S
C2576 C2579 1.511 . S
C2577 C2573 1.376 . S
C2577 C2576 1.392 . S
C2577 H2589 0.929 . S
C2578 C2574 1.531 . S
C2578 H2590 0.960 . S
C2578 H2591 0.962 . S
C2578 H2592 0.960 . S
C2579 C2576 1.511 . S
C2579 H2593 0.961 . S
C2579 H2594 0.961 . S
C2579 H2595 0.961 . S
C2580 C2581 1.370 . S
C2580 C2582 1.363 . S
C2580 H2596 0.931 . S
C2581 C2580 1.370 . S
C2581 C2585 1.408 . S
C2582 C2580 1.363 . S
C2582 C2583 1.370 . S
C2582 C2586 1.524 . S
C2583 C2575 1.503 . S
C2583 C2582 1.370 . S
C2583 C2584 1.403 . S
C2584 C2583 1.403 . S
C2584 C2585 1.404 . S
C2584 C2587 1.539 . S
C2585 C2581 1.408 . S
C2585 C2584 1.404 . S
C2585 H2597 0.930 . S
C2586 C2582 1.524 . S
C2586 H2598 0.956 . S
C2586 H2599 0.961 . S
C2586 H2600 0.961 . S
C2587 C2584 1.539 . S
C2587 H2601 0.958 . S
C2587 H2602 0.961 . S
C2587 H2603 0.960 . S
H2588 C2572 0.931 . S
H2589 C2577 0.929 . S
H2590 C2578 0.960 . S
H2591 C2578 0.962 . S
H2592 C2578 0.960 . S
H2593 C2579 0.961 . S
H2594 C2579 0.961 . S
H2595 C2579 0.961 . S
H2596 C2580 0.931 . S
H2597 C2585 0.930 . S
H2598 C2586 0.956 . S
H2599 C2586 0.961 . S
H2600 C2586 0.961 . S
H2601 C2587 0.958 . S
H2602 C2587 0.961 . S
H2603 C2587 0.960 . S
C2604 C2605 1.391 . S
C2604 C2606 1.394 . S
C2604 H2620 0.931 . S
C2605 C2604 1.391 . S
C2605 C2609 1.376 . S
C2606 C2604 1.394 . S
C2606 C2607 1.369 . S
C2606 C2610 1.531 . S
C2607 C2606 1.369 . S
C2607 C2608 1.410 . S
C2607 C2615 1.503 . S
C2608 C2607 1.410 . S
C2608 C2609 1.392 . S
C2608 C2611 1.511 . S
C2609 C2605 1.376 . S
C2609 C2608 1.392 . S
C2609 H2621 0.929 . S
C2610 C2606 1.531 . S
C2610 H2622 0.960 . S
C2610 H2623 0.962 . S
C2610 H2624 0.960 . S
C2611 C2608 1.511 . S
C2611 H2625 0.961 . S
C2611 H2626 0.961 . S
C2611 H2627 0.961 . S
C2612 C2613 1.370 . S
C2612 C2614 1.363 . S
C2612 H2628 0.931 . S
C2613 C2612 1.370 . S
C2613 C2617 1.408 . S
C2614 C2612 1.363 . S
C2614 C2615 1.370 . S
C2614 C2618 1.524 . S
C2615 C2607 1.503 . S
C2615 C2614 1.370 . S
C2615 C2616 1.403 . S
C2616 C2615 1.403 . S
C2616 C2617 1.404 . S
C2616 C2619 1.539 . S
C2617 C2613 1.408 . S
C2617 C2616 1.404 . S
C2617 H2629 0.930 . S
C2618 C2614 1.524 . S
C2618 H2630 0.956 . S
C2618 H2631 0.961 . S
C2618 H2632 0.961 . S
C2619 C2616 1.539 . S
C2619 H2633 0.958 . S
C2619 H2634 0.961 . S
C2619 H2635 0.960 . S
H2620 C2604 0.931 . S
H2621 C2609 0.929 . S
H2622 C2610 0.960 . S
H2623 C2610 0.962 . S
H2624 C2610 0.960 . S
H2625 C2611 0.961 . S
H2626 C2611 0.961 . S
H2627 C2611 0.961 . S
H2628 C2612 0.931 . S
H2629 C2617 0.930 . S
H2630 C2618 0.956 . S
H2631 C2618 0.961 . S
H2632 C2618 0.961 . S
H2633 C2619 0.958 . S
H2634 C2619 0.961 . S
H2635 C2619 0.960 . S
C2636 C2637 1.391 . S
C2636 C2638 1.394 . S
C2636 H2652 0.931 . S
C2637 C2636 1.391 . S
C2637 C2641 1.376 . S
C2638 C2636 1.394 . S
C2638 C2639 1.369 . S
C2638 C2642 1.531 . S
C2639 C2638 1.369 . S
C2639 C2640 1.410 . S
C2639 C2647 1.503 . S
C2640 C2639 1.410 . S
C2640 C2641 1.392 . S
C2640 C2643 1.511 . S
C2641 C2637 1.376 . S
C2641 C2640 1.392 . S
C2641 H2653 0.929 . S
C2642 C2638 1.531 . S
C2642 H2654 0.960 . S
C2642 H2655 0.962 . S
C2642 H2656 0.960 . S
C2643 C2640 1.511 . S
C2643 H2657 0.961 . S
C2643 H2658 0.961 . S
C2643 H2659 0.961 . S
C2644 C2645 1.370 . S
C2644 C2646 1.363 . S
C2644 H2660 0.931 . S
C2645 C2644 1.370 . S
C2645 C2649 1.408 . S
C2646 C2644 1.363 . S
C2646 C2647 1.370 . S
C2646 C2650 1.524 . S
C2647 C2639 1.503 . S
C2647 C2646 1.370 . S
C2647 C2648 1.403 . S
C2648 C2647 1.403 . S
C2648 C2649 1.404 . S
C2648 C2651 1.539 . S
C2649 C2645 1.408 . S
C2649 C2648 1.404 . S
C2649 H2661 0.930 . S
C2650 C2646 1.524 . S
C2650 H2662 0.956 . S
C2650 H2663 0.961 . S
C2650 H2664 0.961 . S
C2651 C2648 1.539 . S
C2651 H2665 0.958 . S
C2651 H2666 0.961 . S
C2651 H2667 0.960 . S
H2652 C2636 0.931 . S
H2653 C2641 0.929 . S
H2654 C2642 0.960 . S
H2655 C2642 0.962 . S
H2656 C2642 0.960 . S
H2657 C2643 0.961 . S
H2658 C2643 0.961 . S
H2659 C2643 0.961 . S
H2660 C2644 0.931 . S
H2661 C2649 0.930 . S
H2662 C2650 0.956 . S
H2663 C2650 0.961 . S
H2664 C2650 0.961 . S
H2665 C2651 0.958 . S
H2666 C2651 0.961 . S
H2667 C2651 0.960 . S
C2668 C2669 1.391 . S
C2668 C2670 1.394 . S
C2668 H2684 0.931 . S
C2669 C2668 1.391 . S
C2669 C2673 1.376 . S
C2670 C2668 1.394 . S
C2670 C2671 1.369 . S
C2670 C2674 1.531 . S
C2671 C2670 1.369 . S
C2671 C2672 1.410 . S
C2671 C2679 1.503 . S
C2672 C2671 1.410 . S
C2672 C2673 1.392 . S
C2672 C2675 1.511 . S
C2673 C2669 1.376 . S
C2673 C2672 1.392 . S
C2673 H2685 0.929 . S
C2674 C2670 1.531 . S
C2674 H2686 0.960 . S
C2674 H2687 0.962 . S
C2674 H2688 0.960 . S
C2675 C2672 1.511 . S
C2675 H2689 0.961 . S
C2675 H2690 0.961 . S
C2675 H2691 0.961 . S
C2676 C2677 1.370 . S
C2676 C2678 1.363 . S
C2676 H2692 0.931 . S
C2677 C2676 1.370 . S
C2677 C2681 1.408 . S
C2678 C2676 1.363 . S
C2678 C2679 1.370 . S
C2678 C2682 1.524 . S
C2679 C2671 1.503 . S
C2679 C2678 1.370 . S
C2679 C2680 1.403 . S
C2680 C2679 1.403 . S
C2680 C2681 1.404 . S
C2680 C2683 1.539 . S
C2681 C2677 1.408 . S
C2681 C2680 1.404 . S
C2681 H2693 0.930 . S
C2682 C2678 1.524 . S
C2682 H2694 0.956 . S
C2682 H2695 0.961 . S
C2682 H2696 0.961 . S
C2683 C2680 1.539 . S
C2683 H2697 0.958 . S
C2683 H2698 0.961 . S
C2683 H2699 0.960 . S
H2684 C2668 0.931 . S
H2685 C2673 0.929 . S
H2686 C2674 0.960 . S
H2687 C2674 0.962 . S
H2688 C2674 0.960 . S
H2689 C2675 0.961 . S
H2690 C2675 0.961 . S
H2691 C2675 0.961 . S
H2692 C2676 0.931 . S
H2693 C2681 0.930 . S
H2694 C2682 0.956 . S
H2695 C2682 0.961 . S
H2696 C2682 0.961 . S
H2697 C2683 0.958 . S
H2698 C2683 0.961 . S
H2699 C2683 0.960 . S
C973 C162 1.437 . S
C981 C283 1.382 . S
C1005 C174 1.467 . S
C1013 C367 1.424 . S
C1037 C150 1.431 . S
C1045 C447 1.439 . S
C1069 C138 1.419 . S
C1077 C363 1.429 1_556 S
C1109 C451 1.378 . S
C1101 C114 1.439 . S
C1133 C126 1.413 . S
C1141 C279 1.398 1_556 S
C1173 C272 1.451 . S
C1165 C136 1.510 . S
C1205 C356 1.480 . S
C1197 C112 1.523 . S
C1229 C124 1.529 . S
C1237 C458 1.475 1_556 S
C1261 C160 1.488 . S
C1269 C374 1.442 . S
C1293 C172 1.473 . S
C1301 C440 1.426 . S
C1333 C290 1.426 . S
C1325 C148 1.445 . S
C1365 C535 1.390 . S
C1357 C18 1.449 . S
C1389 C30 1.483 . S
C1397 C619 1.429 . S
C1421 C6 1.448 . S
C1429 C699 1.434 . S
C1453 C210 1.422 . S
C1461 C615 1.418 . S
C1485 C186 1.419 . S
C1493 C703 1.366 . S
C1517 C198 1.409 . S
C1525 C531 1.394 . S
C1549 C208 1.474 . S
C1557 C524 1.435 . S
C1581 C184 1.524 . S
C1589 C608 1.469 . S
C1621 C710 1.487 . S
C1613 C196 1.525 . S
C1645 C16 1.460 . S
C1653 C626 1.453 . S
C1685 C692 1.431 . S
C1677 C28 1.486 . S
C1709 C4 1.464 . S
C1717 C542 1.445 . S
C1749 C787 1.394 . S
C1741 C90 1.444 . S
C1773 C102 1.461 . S
C1781 C871 1.410 . S
C1813 C951 1.447 . S
C1805 C78 1.441 . S
C1845 C867 1.424 . S
C1837 C66 1.412 . S
C1877 C955 1.379 . S
C1869 C42 1.439 . S
C1901 C54 1.390 . S
C1909 C783 1.398 . S
C1933 C64 1.505 . S
C1941 C776 1.457 . S
C1965 C40 1.500 . S
C1973 C860 1.455 . S
C2005 C962 1.495 . S
C1997 C52 1.497 . S
C2029 C88 1.496 . S
C2037 C878 1.460 . S
C2061 C100 1.472 . S
C2069 C944 1.413 . S
C2093 C76 1.472 . S
C2101 C794 1.442 . S
C2125 C189 1.573 . S
C2133 C286 1.440 . S
C2165 C370 1.462 . S
C2157 C201 1.625 . S
C2189 C213 1.556 . S
C2197 C442 1.398 . S
C2221 C81 1.607 . S
C2229 C358 1.393 . S
C2253 C93 1.590 . S
C2261 C454 1.468 . S
C2293 C274 1.346 . S
C2285 C105 1.536 . S
C2317 C45 1.547 . S
C2325 C538 1.429 . S
C2349 C57 1.617 . S
C2357 C622 1.461 . S
C2381 C69 1.555 . S
C2389 C694 1.389 . S
C2413 C153 1.605 . S
C2421 C610 1.407 . S
C2453 C706 1.468 . S
C2445 C165 1.592 . S
C2477 C177 1.522 . S
C2485 C526 1.384 . S
C2509 C117 1.565 . S
C2517 C790 1.461 . S
C2541 C129 1.631 . S
C2549 C874 1.500 . S
C2581 C946 1.380 . S
C2573 C141 1.557 . S
C2605 C9 1.579 . S
C2613 C862 1.406 . S
C2637 C21 1.594 . S
C2645 C958 1.467 . S
C2669 C33 1.538 . S
C2677 C778 1.346 . S
