# Generated by pormake.
# Topology pyr, (3,6)-cn, num edge types: 1
# Building blocks:
#     Node 0, Type 0, BuildingBlock: CUQRIR_clean_linker_1, # of connection points: 3
#     Node 1, Type 0, BuildingBlock: CUQRIR_clean_linker_1, # of connection points: 3
#     Node 2, Type 0, BuildingBlock: CUQRIR_clean_linker_1, # of connection points: 3
#     Node 3, Type 0, BuildingBlock: CUQRIR_clean_linker_1, # of connection points: 3
#     Node 4, Type 0, BuildingBlock: CUQRIR_clean_linker_1, # of connection points: 3
#     Node 5, Type 0, BuildingBlock: CUQRIR_clean_linker_1, # of connection points: 3
#     Node 6, Type 0, BuildingBlock: CUQRIR_clean_linker_1, # of connection points: 3
#     Node 7, Type 0, BuildingBlock: CUQRIR_clean_linker_1, # of connection points: 3
#     Node 8, Type 1, BuildingBlock: PAMTUU_clean_sbu_0, # of connection points: 6
#     Node 9, Type 1, BuildingBlock: PAMTUU_clean_sbu_0, # of connection points: 6
#     Node 10, Type 1, BuildingBlock: PAMTUU_clean_sbu_0, # of connection points: 6
#     Node 11, Type 1, BuildingBlock: PAMTUU_clean_sbu_0, # of connection points: 6
#     Edge 12, Type (0, 1), BuildingBlock: CIFDUS_clean_linker_0, # of connection points: 2
#     Edge 13, Type (0, 1), BuildingBlock: CIFDUS_clean_linker_0, # of connection points: 2
#     Edge 14, Type (0, 1), BuildingBlock: CIFDUS_clean_linker_0, # of connection points: 2
#     Edge 15, Type (0, 1), BuildingBlock: CIFDUS_clean_linker_0, # of connection points: 2
#     Edge 16, Type (0, 1), BuildingBlock: CIFDUS_clean_linker_0, # of connection points: 2
#     Edge 17, Type (0, 1), BuildingBlock: CIFDUS_clean_linker_0, # of connection points: 2
#     Edge 18, Type (0, 1), BuildingBlock: CIFDUS_clean_linker_0, # of connection points: 2
#     Edge 19, Type (0, 1), BuildingBlock: CIFDUS_clean_linker_0, # of connection points: 2
#     Edge 20, Type (0, 1), BuildingBlock: CIFDUS_clean_linker_0, # of connection points: 2
#     Edge 21, Type (0, 1), BuildingBlock: CIFDUS_clean_linker_0, # of connection points: 2
#     Edge 22, Type (0, 1), BuildingBlock: CIFDUS_clean_linker_0, # of connection points: 2
#     Edge 23, Type (0, 1), BuildingBlock: CIFDUS_clean_linker_0, # of connection points: 2
#     Edge 24, Type (0, 1), BuildingBlock: CIFDUS_clean_linker_0, # of connection points: 2
#     Edge 25, Type (0, 1), BuildingBlock: CIFDUS_clean_linker_0, # of connection points: 2
#     Edge 26, Type (0, 1), BuildingBlock: CIFDUS_clean_linker_0, # of connection points: 2
#     Edge 27, Type (0, 1), BuildingBlock: CIFDUS_clean_linker_0, # of connection points: 2
#     Edge 28, Type (0, 1), BuildingBlock: CIFDUS_clean_linker_0, # of connection points: 2
#     Edge 29, Type (0, 1), BuildingBlock: CIFDUS_clean_linker_0, # of connection points: 2
#     Edge 30, Type (0, 1), BuildingBlock: CIFDUS_clean_linker_0, # of connection points: 2
#     Edge 31, Type (0, 1), BuildingBlock: CIFDUS_clean_linker_0, # of connection points: 2
#     Edge 32, Type (0, 1), BuildingBlock: CIFDUS_clean_linker_0, # of connection points: 2
#     Edge 33, Type (0, 1), BuildingBlock: CIFDUS_clean_linker_0, # of connection points: 2
#     Edge 34, Type (0, 1), BuildingBlock: CIFDUS_clean_linker_0, # of connection points: 2
#     Edge 35, Type (0, 1), BuildingBlock: CIFDUS_clean_linker_0, # of connection points: 2
# Relax obj value: 0.231
# Max RMSD: 0.258
# Mean RMSD: 0.168
data_MOF--net-pyr--node1-PAMTUU_clean_sbu_0--node2-CUQRIR_clean_linker_1--edge1-CIFDUS_clean_linker_0
_symmetry_space_group_name_H-M    P1
_symmetry_Int_Tables_number       1
_symmetry_cell_setting            triclinic
loop_
_symmetry_equiv_pos_as_xyz
'x, y, z'
_cell_length_a     31.046195
_cell_length_b     31.167847
_cell_length_c     28.858769
_cell_angle_alpha  89.336455
_cell_angle_beta   90.073876
_cell_angle_gamma 107.54289
loop_
_atom_site_label
_atom_site_type_symbol
_atom_site_fract_x
_atom_site_fract_y
_atom_site_fract_z
_atom_type_partial_charge
C0 C 0.36295 0.3884 0.29496 0.0
N1 N 0.39232 0.36405 0.29917 0.0
N2 N 0.36591 0.40766 0.25223 0.0
C3 C 0.32551 0.38668 0.32912 0.0
C4 C 0.39798 0.39369 0.23059 0.0
N5 N 0.41397 0.36705 0.25896 0.0
C6 C 0.41227 0.40446 0.181 0.0
H7 H 0.29318 0.38312 0.31086 0.0
H8 H 0.33444 0.41866 0.34854 0.0
H9 H 0.31963 0.35842 0.35427 0.0
H10 H 0.44828 0.40623 0.17656 0.0
H11 H 0.40716 0.43682 0.17001 0.0
H12 H 0.39169 0.37752 0.15833 0.0
C13 C 0.11786 0.78692 0.74022 0.0
N14 N 0.11828 0.82645 0.75955 0.0
N15 N 0.14695 0.76845 0.76186 0.0
C16 C 0.09114 0.76767 0.69773 0.0
C17 C 0.16247 0.79676 0.79769 0.0
N18 N 0.14515 0.83181 0.79628 0.0
C19 C 0.20214 0.79529 0.82754 0.0
H20 H 0.08694 0.73111 0.69529 0.0
H21 H 0.10859 0.78467 0.66604 0.0
H22 H 0.05754 0.77333 0.69903 0.0
H23 H 0.23224 0.79906 0.80533 0.0
H24 H 0.19417 0.76224 0.84561 0.0
H25 H 0.21122 0.82184 0.85402 0.0
C26 C 0.63003 0.4104 0.90294 0.0
N27 N 0.65622 0.40711 0.94001 0.0
N28 N 0.6474 0.4501 0.87955 0.0
C29 C 0.58492 0.37699 0.89237 0.0
C30 C 0.68511 0.471 0.90421 0.0
N31 N 0.69036 0.44529 0.94092 0.0
C32 C 0.71778 0.51609 0.89172 0.0
H33 H 0.58991 0.35126 0.86847 0.0
H34 H 0.56212 0.39379 0.87544 0.0
H35 H 0.56847 0.35974 0.92445 0.0
H36 H 0.70721 0.54275 0.90931 0.0
H37 H 0.71816 0.52228 0.85376 0.0
H38 H 0.75248 0.51848 0.90335 0.0
C39 C 0.84583 0.72285 0.38734 0.0
N40 N 0.88678 0.75287 0.37637 0.0
N41 N 0.82911 0.7337 0.42758 0.0
C42 C 0.8224 0.68247 0.35863 0.0
C43 C 0.86155 0.77103 0.44126 0.0
N44 N 0.89648 0.7833 0.41051 0.0
C45 C 0.86036 0.79425 0.48661 0.0
H46 H 0.81785 0.69339 0.32276 0.0
H47 H 0.78867 0.66374 0.37252 0.0
H48 H 0.84377 0.65968 0.35695 0.0
H49 H 0.895 0.81097 0.49947 0.0
H50 H 0.84162 0.76993 0.51337 0.0
H51 H 0.84292 0.8202 0.48145 0.0
C52 C 0.64891 0.8234 0.99209 0.0
N53 N 0.67735 0.81724 0.95914 0.0
N54 N 0.62062 0.84483 0.97424 0.0
C55 C 0.65067 0.81186 1.04263 0.0
C56 C 0.63245 0.85083 0.92894 0.0
N57 N 0.66699 0.83419 0.9197 0.0
C58 C 0.61711 0.88144 0.89641 0.0
H59 H 0.61629 0.80299 1.05798 0.0
H60 H 0.67221 0.84163 1.06115 0.0
H61 H 0.66488 0.78345 1.04756 0.0
H62 H 0.6431 0.91491 0.89537 0.0
H63 H 0.58455 0.88572 0.90768 0.0
H64 H 0.61318 0.86777 0.86083 0.0
C65 C 0.89951 0.37199 0.49842 0.0
N66 N 0.91922 0.34761 0.47166 0.0
N67 N 0.87426 0.39184 0.47263 0.0
C68 C 0.90143 0.37361 0.55044 0.0
C69 C 0.88032 0.37962 0.42882 0.0
N70 N 0.90723 0.35242 0.42805 0.0
C71 C 0.8522 0.38629 0.3882 0.0
H72 H 0.87112 0.34835 0.56508 0.0
H73 H 0.90102 0.40724 0.56232 0.0
H74 H 0.93218 0.36642 0.5636 0.0
H75 H 0.87445 0.40033 0.3582 0.0
H76 H 0.83246 0.40957 0.39619 0.0
H77 H 0.82861 0.35333 0.37792 0.0
C78 C 0.34191 0.71429 0.30573 0.0
N79 N 0.38103 0.7465 0.31697 0.0
N80 N 0.32271 0.7263 0.26747 0.0
C81 C 0.32245 0.67093 0.3325 0.0
C82 C 0.35168 0.76679 0.25521 0.0
N83 N 0.38749 0.77924 0.28475 0.0
C84 C 0.34536 0.79435 0.21369 0.0
H85 H 0.3486 0.65357 0.33703 0.0
H86 H 0.29244 0.64797 0.31554 0.0
H87 H 0.3121 0.67854 0.36746 0.0
H88 H 0.31225 0.78082 0.19663 0.0
H89 H 0.37133 0.79486 0.18721 0.0
H90 H 0.34959 0.82955 0.22411 0.0
C91 C 0.13152 0.41305 0.7966 0.0
N92 N 0.15864 0.40475 0.76279 0.0
N93 N 0.15136 0.45294 0.81798 0.0
C94 C 0.08414 0.38356 0.80585 0.0
C95 C 0.19164 0.46863 0.79541 0.0
N96 N 0.19611 0.43998 0.76159 0.0
C97 C 0.22786 0.51102 0.80849 0.0
H98 H 0.06246 0.38614 0.776 0.0
H99 H 0.06951 0.39325 0.83755 0.0
H100 H 0.08376 0.34792 0.80886 0.0
H101 H 0.26197 0.50788 0.80183 0.0
H102 H 0.22513 0.51871 0.84562 0.0
H103 H 0.22386 0.53959 0.78745 0.0
Tb104 Tb 0.09407 0.099 0.55732 0.0
Tb105 Tb 0.9956 0.08558 0.60265 0.0
C106 C 1.00958 1.01923 0.52415 0.0
C107 C 0.2165 0.14341 0.52685 0.0
C108 C 0.29817 0.20983 0.50746 0.0
C109 C 0.25961 0.22209 0.51938 0.0
C110 C 0.21886 0.18897 0.529 0.0
C111 C 0.25584 0.1313 0.51965 0.0
C112 C 0.29656 0.16433 0.51016 0.0
C113 C 0.1732 0.10805 0.52955 0.0
O114 O 0.07222 0.15549 0.53109 0.0
O115 O 0.99701 0.11816 0.53605 0.0
O116 O 0.03616 0.15461 0.62064 0.0
O117 O 0.10511 0.14265 0.61835 0.0
O118 O 0.92487 1.0583 0.599 0.0
O119 O 0.9565 0.10126 0.65513 0.0
O120 O 0.03031 1.05381 0.65133 0.0
O121 O 0.07622 1.03709 0.59767 0.0
O122 O 0.04838 1.04882 0.51232 0.0
O123 O 0.98772 1.02421 0.56201 0.0
C124 C 0.02998 0.15306 0.5222 0.0
O125 O 0.15891 0.09487 0.57126 0.0
O126 O 0.14095 0.11287 0.50275 0.0
C127 C 0.07936 0.16708 0.63142 0.0
C128 C 0.89327 1.04009 0.6731 0.0
C129 C 0.84408 0.97879 0.74012 0.0
C130 C 0.89129 0.98934 0.73798 0.0
C131 C 0.91566 1.01955 0.70455 0.0
C132 C 0.84607 1.02869 0.6742 0.0
C133 C 0.82155 0.99807 0.70745 0.0
C134 C 0.91917 0.0736 0.63953 0.0
C135 C 0.05698 1.03062 0.63855 0.0
H136 H 0.25982 0.25687 0.51702 0.0
H137 H 0.18874 0.19875 0.53536 0.0
H138 H 0.25455 0.09618 0.51874 0.0
H139 H 0.32586 0.15414 0.50106 0.0
H140 H 0.90935 0.97463 0.76256 0.0
H141 H 0.95209 1.02756 0.70386 0.0
H142 H 0.8283 1.04404 0.64994 0.0
H143 H 0.78516 0.99071 0.7087 0.0
Tb144 Tb 0.56314 0.11615 0.17053 0.0
Tb145 Tb 0.48113 0.08992 0.09406 0.0
C146 C 0.5583 1.04657 0.09029 0.0
C147 C 0.67852 0.1515 0.22851 0.0
C148 C 0.76878 0.18313 0.25865 0.0
C149 C 0.74721 0.13673 0.25476 0.0
C150 C 0.70238 0.12105 0.24004 0.0
C151 C 0.70169 0.19778 0.22738 0.0
C152 C 0.74653 0.21344 0.24213 0.0
C153 C 0.6287 0.13519 0.22634 0.0
O154 O 0.57924 0.1724 0.12034 0.0
O155 O 0.53823 0.13691 1.05787 0.0
O156 O 0.48308 0.15097 0.12918 0.0
O157 O 0.50961 0.13944 0.19999 0.0
O158 O 0.45468 0.07978 1.02662 0.0
O159 O 0.41278 0.0847 0.08555 0.0
O160 O 0.46201 1.03315 0.14389 0.0
O161 O 0.51925 1.05247 0.19829 0.0
O162 O 0.58395 0.08145 0.11304 0.0
O163 O 0.51512 1.04035 0.08388 0.0
C164 C 0.56903 0.17145 0.07594 0.0
O165 O 0.60716 0.16341 0.21369 0.0
O166 O 0.61036 0.09528 0.20953 0.0
C167 C 0.48596 0.15827 0.17355 0.0
C168 C 0.37512 1.04991 1.01822 0.0
C169 C 0.29771 0.99532 0.97357 0.0
C170 C 0.3141 1.04155 0.9633 0.0
C171 C 0.35245 0.06852 0.98543 0.0
C172 C 0.35875 1.00396 1.02938 0.0
C173 C 0.32016 0.97677 1.00715 0.0
C174 C 0.4148 0.08017 1.0407 0.0
C175 C 0.48234 1.02411 0.18149 0.0
H176 H 0.76366 0.11263 0.26695 0.0
H177 H 0.68541 0.08516 0.24121 0.0
H178 H 0.6843 0.22212 0.21865 0.0
H179 H 0.76204 0.24943 0.24504 0.0
H180 H 0.29728 1.05688 0.93804 0.0
H181 H 0.36448 0.10411 0.97686 0.0
H182 H 0.37587 0.98923 1.05489 0.0
H183 H 0.30854 0.94113 1.01536 0.0
Tb184 Tb 0.51391 0.55783 0.56754 0.0
Tb185 Tb 0.51137 0.64203 0.63046 0.0
C186 C 0.47187 0.63331 0.53049 0.0
C187 C 0.57034 0.48306 0.51858 0.0
C188 C 0.65455 0.46683 0.50999 0.0
C189 C 0.61761 0.44307 0.48273 0.0
C190 C 0.57582 0.45151 0.48667 0.0
C191 C 0.60678 0.50532 0.54706 0.0
C192 C 0.64861 0.49774 0.5424 0.0
C193 C 0.52821 0.49557 0.52066 0.0
O194 O 0.58301 0.60227 0.57164 0.0
O195 O 0.56846 0.66877 0.58276 0.0
O196 O 0.5588 0.614 0.66602 0.0
O197 O 0.53172 0.54244 0.63866 0.0
O198 O 0.51185 0.70932 0.63681 0.0
O199 O 0.50478 0.66601 0.69701 0.0
O200 O 0.45236 0.58622 0.65097 0.0
O201 O 0.44234 0.54005 0.5878 0.0
O202 O 0.49608 0.60648 0.51978 0.0
O203 O 0.46436 0.64002 0.57409 0.0
C204 C 0.5951 0.64618 0.56747 0.0
O205 O 0.50743 0.48897 0.5605 0.0
O206 O 0.53145 0.53538 0.50392 0.0
C207 C 0.55446 0.57088 0.66994 0.0
C208 C 0.45397 0.70762 0.69047 0.0
C209 C 0.36374 0.70118 0.71246 0.0
C210 C 0.39694 0.70969 0.74729 0.0
C211 C 0.44173 0.71278 0.73636 0.0
C212 C 0.42083 0.69959 0.65571 0.0
C213 C 0.37629 0.69634 0.66657 0.0
C214 C 0.49858 0.70256 0.67994 0.0
C215 C 0.4272 0.55263 0.62644 0.0
H216 H 0.6215 0.41908 0.45745 0.0
H217 H 0.54816 0.43404 0.46436 0.0
H218 H 0.60314 0.52921 0.57247 0.0
H219 H 0.67641 0.51609 0.56412 0.0
H220 H 0.38835 0.71419 0.78289 0.0
H221 H 0.46652 0.71802 0.76384 0.0
H222 H 0.42893 0.69448 0.62016 0.0
H223 H 0.35147 0.68927 0.63904 0.0
Tb224 Tb 1.01118 0.63456 1.06171 0.0
Tb225 Tb 1.00623 0.55466 0.13525 0.0
C226 C 0.04807 0.55458 1.03381 0.0
C227 C 0.97067 0.70816 0.98534 0.0
C228 C 0.89341 0.73201 0.95964 0.0
C229 C 0.93491 0.76542 0.96654 0.0
C230 C 0.9733 0.75353 0.97924 0.0
C231 C 0.92957 0.67471 0.97705 0.0
C232 C 0.89136 0.68654 0.96403 0.0
C233 C 1.00922 0.69602 1.00481 0.0
O234 O 0.95241 0.5788 1.04251 0.0
O235 O 0.93619 0.53949 0.11136 0.0
O236 O 0.99332 0.6095 0.17558 0.0
O237 O 0.96495 0.64208 0.11673 0.0
O238 O 0.99476 0.48631 0.15266 0.0
O239 O 1.01943 0.53796 0.20344 0.0
O240 O 0.07715 0.59243 0.1276 0.0
O241 O 0.06754 0.66005 0.10941 0.0
O242 O 0.05473 0.59836 1.03065 0.0
O243 O 0.02421 0.53105 1.06843 0.0
C244 C 0.92477 0.5482 0.0691 0.0
O245 O 1.01524 0.70231 1.04914 0.0
O246 O 1.01275 0.65711 0.99273 0.0
C247 C 0.97163 0.63763 0.16147 0.0
C248 C 0.05613 0.48296 0.19984 0.0
C249 C 0.14312 0.4745 0.21468 0.0
C250 C 0.11441 0.47462 0.25237 0.0
C251 C 0.07126 0.47878 0.24498 0.0
C252 C 0.08439 0.48175 0.16214 0.0
C253 C 0.1273 0.47726 0.16948 0.0
C254 C 1.01501 0.49649 0.19246 0.0
C255 C 0.0918 0.63637 0.1279 0.0
H256 H 0.9374 0.80073 0.96309 0.0
H257 H 1.00464 0.77976 0.98578 0.0
H258 H 0.92653 0.63943 0.98215 0.0
H259 H 0.85971 0.66014 0.95954 0.0
H260 H 0.12553 0.47202 0.28759 0.0
H261 H 0.05039 0.48047 0.27455 0.0
H262 H 0.07411 0.48612 0.12697 0.0
H263 H 0.14876 0.47769 0.1398 0.0
H264 H 0.40662 0.37634 0.39028 0.0
H265 H 0.36518 0.27472 0.28582 0.0
H266 H 0.34665 0.216 0.34455 0.0
H267 H 0.32574 0.19508 0.42375 0.0
H268 H 0.34799 0.29661 0.52869 0.0
H269 H 0.39011 0.35387 0.47271 0.0
C270 C 0.39481 0.34114 0.38088 0.0
C271 C 0.38901 0.32967 0.33385 0.0
C272 C 0.37958 0.3077 0.41522 0.0
C273 C 0.37235 0.28426 0.32149 0.0
C274 C 0.3607 0.25066 0.35524 0.0
C275 C 0.34137 0.22941 0.43492 0.0
C276 C 0.33416 0.24175 0.48012 0.0
C277 C 0.36214 0.26218 0.40201 0.0
C278 C 0.35342 0.28653 0.49393 0.0
C279 C 0.37707 0.31918 0.46187 0.0
H280 H 0.13554 0.8449 0.88609 0.0
H281 H 0.20105 0.90883 0.76131 0.0
H282 H 0.2507 0.96985 0.8062 0.0
H283 H 0.2841 0.99697 0.88108 0.0
H284 H 0.22483 0.92845 1.00693 0.0
H285 H 0.16486 0.87647 0.96197 0.0
C286 C 0.1596 0.8733 0.86904 0.0
C287 C 0.16424 0.87313 0.82067 0.0
C288 C 0.19024 0.90632 0.89542 0.0
C289 C 0.19613 0.90909 0.79838 0.0
C290 C 0.22513 0.94341 0.82417 0.0
C291 C 0.25748 0.97132 0.89879 0.0
C292 C 0.259 0.96634 0.9472 0.0
C293 C 0.22382 0.94119 0.87273 0.0
C294 C 0.2247 0.93247 0.9696 0.0
C295 C 0.1903 0.90298 0.94396 0.0
H296 H 0.63518 0.53183 0.86374 0.0
H297 H 0.6205 0.4039 0.80034 0.0
H298 H 0.58978 0.42881 0.73028 0.0
H299 H 0.56695 0.48757 0.68628 0.0
H300 H 0.58621 0.61704 0.74899 0.0
H301 H 0.61581 0.59146 0.81876 0.0
C302 C 0.6258 0.5096 0.83439 0.0
C303 C 0.63005 0.46582 0.83769 0.0
C304 C 0.60898 0.52461 0.79362 0.0
C305 C 0.61699 0.4374 0.79927 0.0
C306 C 0.59965 0.45181 0.75897 0.0
C307 C 0.57768 0.51025 0.71514 0.0
C308 C 0.57404 0.55436 0.71184 0.0
C309 C 0.59534 0.49538 0.75562 0.0
C310 C 0.58853 0.58306 0.74991 0.0
C311 C 0.60547 0.56838 0.79018 0.0
H312 H 0.876 0.75433 0.283 0.0
H313 H 0.96118 0.72643 0.38925 0.0
H314 H 0.99559 0.68832 0.33269 0.0
H315 H 0.99607 0.65572 0.25388 0.0
H316 H 0.90948 0.68329 0.14804 0.0
H317 H 0.88086 0.72732 0.20294 0.0
C318 C 0.90321 0.74124 0.29341 0.0
C319 C 0.91659 0.74449 0.3406 0.0
C320 C 0.92168 0.7177 0.26069 0.0
C321 C 0.95116 0.72609 0.35329 0.0
C322 C 0.97017 0.70328 0.32091 0.0
C323 C 0.97095 0.67133 0.24268 0.0
C324 C 0.95477 0.66519 0.19633 0.0
C325 C 0.95479 0.69759 0.2747 0.0
C326 C 0.92263 0.68669 0.18303 0.0
C327 C 0.90622 0.71221 0.21461 0.0
H328 H 0.38703 0.30486 0.19433 0.0
H329 H 0.49054 0.35696 0.2956 0.0
H330 H 0.52192 0.29454 0.28109 0.0
H331 H 0.51799 0.22342 0.23966 0.0
H332 H 0.40923 0.17065 0.14292 0.0
H333 H 0.38109 0.23421 0.15621 0.0
C334 C 0.4174 0.30329 0.21191 0.0
C335 C 0.43748 0.33594 0.24475 0.0
C336 C 0.43333 0.26631 0.20522 0.0
C337 C 0.47536 0.3325 0.26937 0.0
C338 C 0.49275 0.29654 0.26154 0.0
C339 C 0.48764 0.22553 0.22241 0.0
C340 C 0.46569 0.19238 0.19039 0.0
C341 C 0.47153 0.26272 0.22997 0.0
C342 C 0.42673 0.19578 0.1677 0.0
C343 C 0.41077 0.2323 0.17492 0.0
H344 H 0.06384 0.87651 0.78207 0.0
H345 H 0.15858 0.86027 0.68002 0.0
H346 H 0.14804 0.92224 0.63397 0.0
H347 H 0.11197 0.98016 0.62212 0.0
H348 H 1.01749 0.99977 0.72313 0.0
H349 H 0.02793 0.93778 0.77041 0.0
C350 C 0.08172 0.88667 0.7496 0.0
C351 C 0.11076 0.86318 0.73345 0.0
C352 C 0.07574 0.92293 0.72336 0.0
C353 C 0.13477 0.87695 0.69196 0.0
C354 C 0.12914 0.91262 0.66596 0.0
C355 C 0.09351 0.97107 0.65446 0.0
C356 C 0.06376 0.99447 0.66882 0.0
C357 C 0.09956 0.93562 0.68114 0.0
C358 C 0.04052 0.98223 0.7111 0.0
C359 C 0.04645 0.94674 0.73815 0.0
H360 H 0.77179 0.43168 0.93736 0.0
H361 H 0.69024 0.49239 1.0182 0.0
H362 H 0.75458 0.52639 0.06924 0.0
H363 H 0.83668 0.54453 0.08655 0.0
H364 H 0.91932 0.48873 1.00081 0.0
H365 H 0.85287 0.44718 0.95646 0.0
C366 C 0.76807 0.45133 0.967 0.0
C367 C 0.72606 0.45841 0.97506 0.0
C368 C 0.80583 0.47214 0.99505 0.0
C369 C 0.72194 0.48549 1.01233 0.0
C370 C 0.75887 0.50525 1.04117 0.0
C371 C 0.83978 0.52248 1.0588 0.0
C372 C 0.88275 0.51911 1.04741 0.0
C373 C 0.80134 0.49958 1.03241 0.0
C374 C 0.88653 0.4914 1.01054 0.0
C375 C 0.84853 0.46777 0.98503 0.0
H376 H 0.76489 0.76989 0.4557 0.0
H377 H 0.8003 0.64661 0.456 0.0
H378 H 0.73132 0.60865 0.49976 0.0
H379 H 0.661 0.61055 0.53818 0.0
H380 H 0.62728 0.7351 0.54112 0.0
H381 H 0.69568 0.77258 0.49686 0.0
C382 C 0.75738 0.73471 0.46541 0.0
C383 C 0.78733 0.71088 0.45187 0.0
C384 C 0.71812 0.71342 0.49156 0.0
C385 C 0.77733 0.66536 0.46497 0.0
C386 C 0.73807 0.64379 0.49033 0.0
C387 C 0.66859 0.64598 0.52943 0.0
C388 C 0.63864 0.66983 0.54326 0.0
C389 C 0.70819 0.66746 0.50388 0.0
C390 C 0.6495 0.71578 0.53137 0.0
C391 C 0.68863 0.73726 0.50577 0.0
H392 H 0.33769 0.47612 0.28092 0.0
H393 H 0.31437 0.37214 0.17879 0.0
H394 H 0.24475 0.38695 0.15467 0.0
H395 H 0.18546 0.42224 0.17 0.0
H396 H 0.20542 0.52221 0.27656 0.0
H397 H 0.28059 0.51562 0.29251 0.0
C398 C 0.31775 0.45767 0.25262 0.0
C399 C 0.33136 0.4236 0.2312 0.0
C400 C 0.27644 0.46468 0.24081 0.0
C401 C 0.30524 0.39934 0.1949 0.0
C402 C 0.26497 0.40724 0.18174 0.0
C403 C 0.20654 0.44303 0.19625 0.0
C404 C 0.18969 0.47221 0.22248 0.0
C405 C 0.24947 0.43872 0.20554 0.0
C406 C 0.21728 0.49877 0.25659 0.0
C407 C 0.26037 0.49528 0.26547 0.0
H408 H 0.63965 0.31976 0.91809 0.0
H409 H 0.6527 0.40807 1.03423 0.0
H410 H 0.63172 0.34321 0.08732 0.0
H411 H 0.60314 0.26041 0.10028 0.0
H412 H 0.58256 0.17263 0.98249 0.0
H413 H 0.61193 0.23755 0.93083 0.0
C414 C 0.63804 0.32476 0.95506 0.0
C415 C 0.64831 0.36901 0.97202 0.0
C416 C 0.62388 0.28705 0.98519 0.0
C417 C 0.64631 0.37478 1.02013 0.0
C418 C 0.63359 0.33747 1.05051 0.0
C419 C 0.60567 0.25545 1.06338 0.0
C420 C 0.59071 0.21137 1.04548 0.0
C421 C 0.62153 0.29333 1.03343 0.0
C422 C 0.59365 0.20591 0.99738 0.0
C423 C 0.6105 0.24314 0.96772 0.0
H424 H 0.88218 0.86322 0.40288 0.0
H425 H 0.98609 0.80149 0.43013 0.0
H426 H 0.03355 0.87179 0.46451 0.0
H427 H 0.04035 0.94792 0.4979 0.0
H428 H 0.92924 1.00258 0.48062 0.0
H429 H 0.88965 0.93862 0.43268 0.0
C430 C 0.91611 0.86588 0.41449 0.0
C431 C 0.93082 0.82711 0.4125 0.0
C432 C 0.94128 0.90509 0.43797 0.0
C433 C 0.97425 0.83078 0.42953 0.0
C434 C 1.00094 0.87086 0.45037 0.0
C435 C 1.00774 0.94601 0.48307 0.0
C436 C 0.98792 0.98046 0.4928 0.0
C437 C 0.98408 0.90775 0.45658 0.0
C438 C 0.9453 0.97685 0.47386 0.0
C439 C 0.92267 0.94022 0.44623 0.0
H440 H 0.17523 0.70006 0.7947 0.0
H441 H 0.18453 0.78923 0.67734 0.0
H442 H 0.24894 0.76966 0.64791 0.0
H443 H 0.31165 0.74051 0.66354 0.0
H444 H 0.31035 0.65894 0.78554 0.0
H445 H 0.23543 0.66382 0.8064 0.0
C446 C 0.19086 0.71419 0.76216 0.0
C447 C 0.17482 0.74591 0.73832 0.0
C448 C 0.23067 0.70575 0.74735 0.0
C449 C 0.19512 0.76385 0.69591 0.0
C450 C 0.23285 0.75351 0.67954 0.0
C451 C 0.29458 0.72284 0.69412 0.0
C452 C 0.31665 0.69982 0.72319 0.0
C453 C 0.25225 0.72651 0.70622 0.0
C454 C 0.29432 0.67765 0.76307 0.0
C455 C 0.25141 0.68017 0.77481 0.0
H456 H 0.74872 0.89324 0.92523 0.0
H457 H 0.65299 0.81153 0.82986 0.0
H458 H 0.70116 0.84781 0.76411 0.0
H459 H 0.76793 0.9074 0.73458 0.0
H460 H 0.86372 0.98777 0.83164 0.0
H461 H 0.81884 0.94662 0.8964 0.0
C462 C 0.73933 0.88254 0.89005 0.0
C463 C 0.69797 0.84981 0.88186 0.0
C464 C 0.76701 0.90349 0.85305 0.0
C465 C 0.68502 0.83669 0.83639 0.0
C466 C 0.71238 0.85751 0.79909 0.0
C467 C 0.77898 0.91551 0.76996 0.0
C468 C 0.81878 0.95062 0.77851 0.0
C469 C 0.75298 0.89172 0.80703 0.0
C470 C 0.83327 0.96067 0.82434 0.0
C471 C 0.80756 0.93736 0.86133 0.0
H472 H 0.86804 0.26372 0.43437 0.0
H473 H 0.93707 0.36969 0.33983 0.0
H474 H 0.90585 0.32114 0.27392 0.0
H475 H 0.84485 0.25505 0.24592 0.0
H476 H 0.77923 0.14941 0.3433 0.0
H477 H 0.82597 0.19014 0.40549 0.0
C478 C 0.87898 0.27527 0.39962 0.0
C479 C 0.90455 0.32022 0.39186 0.0
C480 C 0.86107 0.24725 0.3624 0.0
C481 C 0.91699 0.33517 0.34633 0.0
C482 C 0.89889 0.30755 0.30879 0.0
C483 C 0.84206 0.24031 0.28044 0.0
C484 C 0.8079 0.1998 0.29011 0.0
C485 C 0.8686 0.26445 0.31661 0.0
C486 C 0.80509 0.18056 0.33477 0.0
C487 C 0.83148 0.20412 0.37065 0.0
H488 H 0.36646 0.74109 0.40887 0.0
H489 H 0.46187 0.73183 0.30486 0.0
H490 H 0.49915 0.69475 0.36106 0.0
H491 H 0.49968 0.65774 0.439 0.0
H492 H 0.40022 0.66522 0.54046 0.0
H493 H 0.36924 0.70856 0.48652 0.0
C494 C 0.3964 0.73231 0.39901 0.0
C495 C 0.41178 0.74016 0.35275 0.0
C496 C 0.41607 0.70892 0.43099 0.0
C497 C 0.45002 0.7275 0.34038 0.0
C498 C 0.4707 0.70529 0.37241 0.0
C499 C 0.47107 0.6686 0.44918 0.0
C500 C 0.45236 0.65748 0.4942 0.0
C501 C 0.45313 0.69438 0.41756 0.0
C502 C 0.41563 0.67283 0.5065 0.0
C503 C 0.39781 0.69798 0.47555 0.0
H504 H 0.11876 0.42367 0.90445 0.0
H505 H 0.14264 0.53644 0.81021 0.0
H506 H 0.11501 0.57873 0.86817 0.0
H507 H 0.08307 0.58395 0.94631 0.0
H508 H 0.05626 0.46953 1.03929 0.0
H509 H 0.08518 0.42823 0.98193 0.0
C510 C 0.11737 0.45728 0.89644 0.0
C511 C 0.13272 0.47659 0.85256 0.0
C512 C 0.1008 0.48145 0.93013 0.0
C513 C 0.1313 0.52065 0.84345 0.0
C514 C 0.11535 0.54489 0.87673 0.0
C515 C 0.08368 0.55006 0.95422 0.0
C516 C 0.06737 0.53037 0.99779 0.0
C517 C 0.09999 0.52579 0.92036 0.0
C518 C 0.06836 0.48604 1.00654 0.0
C519 C 0.08499 0.46215 0.97351 0.0
H520 H 0.66687 0.91859 1.0185 0.0
H521 H 0.53264 0.83711 0.98386 0.0
H522 H 0.50105 0.89334 1.01735 0.0
H523 H 0.51274 0.96699 1.05191 0.0
H524 H 0.64737 1.04896 0.08759 0.0
H525 H 0.67827 0.9912 1.05761 0.0
C526 C 0.63068 0.91305 1.01941 0.0
C527 C 0.6017 0.87405 0.99959 0.0
C528 C 0.61326 0.94571 1.03793 0.0
C529 C 0.55502 0.86691 0.99965 0.0
C530 C 0.53725 0.89909 1.01834 0.0
C531 C 0.54888 0.97239 1.05336 0.0
C532 C 0.57776 1.01246 0.07173 0.0
C533 C 0.56619 0.93893 1.03679 0.0
C534 C 0.62444 1.01858 0.0734 0.0
C535 C 0.64209 0.98553 1.05644 0.0
H536 H 0.99733 0.33301 0.44604 0.0
H537 H 0.87851 0.28081 0.53087 0.0
H538 H 0.90287 0.21635 0.55324 0.0
H539 H 0.95573 0.1736 0.54701 0.0
H540 H 0.0771 0.22385 0.46532 0.0
H541 H 0.05406 0.2903 0.44295 0.0
C542 C 0.97742 0.30771 0.46995 0.0
C543 C 0.93681 0.31219 0.48786 0.0
C544 C 0.99167 0.27022 0.48249 0.0
C545 C 0.91071 0.27902 0.51825 0.0
C546 C 0.92425 0.24177 0.53038 0.0
C547 C 0.97714 0.19876 0.52386 0.0
C548 C 1.01757 0.1933 0.5069 0.0
C549 C 0.96433 0.23686 0.51241 0.0
C550 C 0.0455 0.22705 0.47829 0.0
C551 C 0.03236 0.26501 0.46567 0.0
H552 H 0.25024 0.75444 0.25264 0.0
H553 H 0.30306 0.6438 0.22946 0.0
H554 H 0.23514 0.60462 0.1853 0.0
H555 H 0.16203 0.60392 0.15014 0.0
H556 H 0.11462 0.71969 0.16581 0.0
H557 H 0.17959 0.75556 0.21441 0.0
C558 C 0.24671 0.72177 0.23774 0.0
C559 C 0.28138 0.7019 0.24428 0.0
C560 C 0.20897 0.70092 0.21018 0.0
C561 C 0.27655 0.65947 0.22514 0.0
C562 C 0.23798 0.63738 0.19955 0.0
C563 C 0.16613 0.63714 0.16393 0.0
C564 C 0.13353 0.65916 0.15407 0.0
C565 C 0.20423 0.65811 0.19122 0.0
C566 C 0.13939 0.70219 0.17227 0.0
C567 C 0.17639 0.72261 0.20043 0.0
H568 H 0.2293 0.51333 0.70707 0.0
H569 H 0.25029 0.38741 0.74529 0.0
H570 H 0.32157 0.40825 0.70171 0.0
H571 H 0.38296 0.46678 0.65964 0.0
H572 H 0.36407 0.59564 0.62965 0.0
H573 H 0.28829 0.57006 0.66338 0.0
C574 C 0.24922 0.4902 0.70532 0.0
C575 C 0.23388 0.44849 0.72914 0.0
C576 C 0.29136 0.50354 0.68207 0.0
C577 C 0.2603 0.41903 0.72644 0.0
C578 C 0.30163 0.43141 0.70203 0.0
C579 C 0.36175 0.48876 0.6596 0.0
C580 C 0.37903 0.53297 0.64135 0.0
C581 C 0.31818 0.47409 0.68057 0.0
C582 C 0.3515 0.56141 0.64284 0.0
C583 C 0.30812 0.5468 0.66231 0.0
H584 H 0.70342 0.75643 0.91147 0.0
H585 H 0.74344 0.85321 1.02062 0.0
H586 H 0.8147 0.83593 1.02972 0.0
H587 H 0.86556 0.7934 1.00642 0.0
H588 H 0.82693 0.69721 0.89614 0.0
H589 H 0.75533 0.71425 0.88715 0.0
C590 C 0.72777 0.77317 0.93746 0.0
C591 C 0.71789 0.80481 0.9664 0.0
C592 C 0.76896 0.76359 0.9418 0.0
C593 C 0.74971 0.82733 0.9994 0.0
C594 C 0.79066 0.81797 1.00407 0.0
C595 C 0.84173 0.77665 0.97998 0.0
C596 C 0.85152 0.74436 0.95178 0.0
C597 C 0.80065 0.78623 0.97541 0.0
C598 C 0.81997 0.72215 0.91831 0.0
C599 C 0.77911 0.73185 0.91319 0.0
H600 H 0.44562 0.81493 0.21607 0.0
H601 H 0.39945 0.84544 0.3482 0.0
H602 H 0.42782 0.92645 0.32974 0.0
H603 H 0.45518 0.98842 0.26987 0.0
H604 H 0.48376 0.95233 0.13214 0.0
H605 H 0.47112 0.87457 0.15731 0.0
C606 C 0.44293 0.83949 0.24132 0.0
C607 C 0.42036 0.82384 0.2835 0.0
C608 C 0.45423 0.88535 0.2281 0.0
C609 C 0.41723 0.85622 0.31583 0.0
C610 C 0.43236 0.90262 0.30461 0.0
C611 C 0.45827 0.96337 0.24543 0.0
C612 C 0.46992 0.97635 0.19875 0.0
C613 C 0.44887 0.91755 0.25986 0.0
C614 C 0.47413 0.94337 0.16781 0.0
C615 C 0.46736 0.89883 0.18238 0.0
H616 H 0.18317 0.32805 0.76425 0.0
H617 H 0.10104 0.39547 0.69123 0.0
H618 H 0.06765 0.3279 0.645 0.0
H619 H 0.05955 0.24777 0.62713 0.0
H620 H 0.14653 0.18258 0.69597 0.0
H621 H 0.18033 0.25038 0.74122 0.0
C622 C 0.15912 0.3284 0.73713 0.0
C623 C 0.1455 0.3674 0.73046 0.0
C624 C 0.14031 0.28923 0.71026 0.0
C625 C 0.11279 0.36639 0.69639 0.0
C626 C 0.09341 0.32752 0.67023 0.0
C627 C 0.08586 0.24838 0.65209 0.0
C628 C 0.09987 0.20948 0.65842 0.0
C629 C 0.10639 0.28838 0.67719 0.0
C630 C 0.13475 0.21159 0.69036 0.0
C631 C 0.15421 0.25055 0.71633 0.0
H632 H 0.85701 0.47131 0.47387 0.0
H633 H 0.79984 0.33001 0.50352 0.0
H634 H 0.72585 0.34029 0.518 0.0
H635 H 0.67642 0.38907 0.51766 0.0
H636 H 0.73356 0.53092 0.48956 0.0
H637 H 0.80834 0.52133 0.47882 0.0
C638 C 0.8284 0.44324 0.48454 0.0
C639 C 0.83354 0.40015 0.48833 0.0
C640 C 0.78592 0.44947 0.49228 0.0
C641 C 0.79639 0.36354 0.50131 0.0
C642 C 0.75414 0.36936 0.50905 0.0
C643 C 0.70535 0.41774 0.50919 0.0
C644 C 0.69965 0.46054 0.50403 0.0
C645 C 0.74829 0.41202 0.50382 0.0
C646 C 0.73734 0.49768 0.49369 0.0
C647 C 0.78003 0.49219 0.48756 0.0
loop_
_geom_bond_atom_site_label_1
_geom_bond_atom_site_label_2
_geom_bond_distance
_geom_bond_site_symmetry_2
_ccdc_geom_bond_type
C0 N1 1.317 . S
C0 N2 1.348 . S
C0 C3 1.485 . S
N1 C0 1.317 . S
N1 N5 1.370 . S
N2 C0 1.348 . S
N2 C4 1.346 . S
C3 C0 1.485 . S
C3 H7 0.960 . S
C3 H8 0.961 . S
C3 H9 0.960 . S
C4 N2 1.346 . S
C4 N5 1.307 . S
C4 C6 1.486 . S
N5 N1 1.370 . S
N5 C4 1.307 . S
C6 C4 1.486 . S
C6 H10 0.960 . S
C6 H11 0.960 . S
C6 H12 0.959 . S
H7 C3 0.960 . S
H8 C3 0.961 . S
H9 C3 0.960 . S
H10 C6 0.960 . S
H11 C6 0.960 . S
H12 C6 0.959 . S
C13 N14 1.317 . S
C13 N15 1.348 . S
C13 C16 1.485 . S
N14 C13 1.317 . S
N14 N18 1.370 . S
N15 C13 1.348 . S
N15 C17 1.346 . S
C16 C13 1.485 . S
C16 H20 0.960 . S
C16 H21 0.961 . S
C16 H22 0.960 . S
C17 N15 1.346 . S
C17 N18 1.307 . S
C17 C19 1.486 . S
N18 N14 1.370 . S
N18 C17 1.307 . S
C19 C17 1.486 . S
C19 H23 0.960 . S
C19 H24 0.960 . S
C19 H25 0.959 . S
H20 C16 0.960 . S
H21 C16 0.961 . S
H22 C16 0.960 . S
H23 C19 0.960 . S
H24 C19 0.960 . S
H25 C19 0.959 . S
C26 N27 1.317 . S
C26 N28 1.348 . S
C26 C29 1.485 . S
N27 C26 1.317 . S
N27 N31 1.370 . S
N28 C26 1.348 . S
N28 C30 1.346 . S
C29 C26 1.485 . S
C29 H33 0.960 . S
C29 H34 0.961 . S
C29 H35 0.960 . S
C30 N28 1.346 . S
C30 N31 1.307 . S
C30 C32 1.486 . S
N31 N27 1.370 . S
N31 C30 1.307 . S
C32 C30 1.486 . S
C32 H36 0.960 . S
C32 H37 0.960 . S
C32 H38 0.959 . S
H33 C29 0.960 . S
H34 C29 0.961 . S
H35 C29 0.960 . S
H36 C32 0.960 . S
H37 C32 0.960 . S
H38 C32 0.959 . S
C39 N40 1.317 . S
C39 N41 1.348 . S
C39 C42 1.485 . S
N40 C39 1.317 . S
N40 N44 1.370 . S
N41 C39 1.348 . S
N41 C43 1.346 . S
C42 C39 1.485 . S
C42 H46 0.960 . S
C42 H47 0.961 . S
C42 H48 0.960 . S
C43 N41 1.346 . S
C43 N44 1.307 . S
C43 C45 1.486 . S
N44 N40 1.370 . S
N44 C43 1.307 . S
C45 C43 1.486 . S
C45 H49 0.960 . S
C45 H50 0.960 . S
C45 H51 0.959 . S
H46 C42 0.960 . S
H47 C42 0.961 . S
H48 C42 0.960 . S
H49 C45 0.960 . S
H50 C45 0.960 . S
H51 C45 0.959 . S
C52 N53 1.317 . S
C52 N54 1.348 . S
C52 C55 1.485 . S
N53 C52 1.317 . S
N53 N57 1.370 . S
N54 C52 1.348 . S
N54 C56 1.346 . S
C55 C52 1.485 . S
C55 H59 0.960 . S
C55 H60 0.961 . S
C55 H61 0.960 . S
C56 N54 1.346 . S
C56 N57 1.307 . S
C56 C58 1.486 . S
N57 N53 1.370 . S
N57 C56 1.307 . S
C58 C56 1.486 . S
C58 H62 0.960 . S
C58 H63 0.960 . S
C58 H64 0.959 . S
H59 C55 0.960 . S
H60 C55 0.961 . S
H61 C55 0.960 . S
H62 C58 0.960 . S
H63 C58 0.960 . S
H64 C58 0.959 . S
C65 N66 1.317 . S
C65 N67 1.348 . S
C65 C68 1.485 . S
N66 C65 1.317 . S
N66 N70 1.370 . S
N67 C65 1.348 . S
N67 C69 1.346 . S
C68 C65 1.485 . S
C68 H72 0.960 . S
C68 H73 0.961 . S
C68 H74 0.960 . S
C69 N67 1.346 . S
C69 N70 1.307 . S
C69 C71 1.486 . S
N70 N66 1.370 . S
N70 C69 1.307 . S
C71 C69 1.486 . S
C71 H75 0.960 . S
C71 H76 0.960 . S
C71 H77 0.959 . S
H72 C68 0.960 . S
H73 C68 0.961 . S
H74 C68 0.960 . S
H75 C71 0.960 . S
H76 C71 0.960 . S
H77 C71 0.959 . S
C78 N79 1.317 . S
C78 N80 1.348 . S
C78 C81 1.485 . S
N79 C78 1.317 . S
N79 N83 1.370 . S
N80 C78 1.348 . S
N80 C82 1.346 . S
C81 C78 1.485 . S
C81 H85 0.960 . S
C81 H86 0.961 . S
C81 H87 0.960 . S
C82 N80 1.346 . S
C82 N83 1.307 . S
C82 C84 1.486 . S
N83 N79 1.370 . S
N83 C82 1.307 . S
C84 C82 1.486 . S
C84 H88 0.960 . S
C84 H89 0.960 . S
C84 H90 0.959 . S
H85 C81 0.960 . S
H86 C81 0.961 . S
H87 C81 0.960 . S
H88 C84 0.960 . S
H89 C84 0.960 . S
H90 C84 0.959 . S
C91 N92 1.317 . S
C91 N93 1.348 . S
C91 C94 1.485 . S
N92 C91 1.317 . S
N92 N96 1.370 . S
N93 C91 1.348 . S
N93 C95 1.346 . S
C94 C91 1.485 . S
C94 H98 0.960 . S
C94 H99 0.961 . S
C94 H100 0.960 . S
C95 N93 1.346 . S
C95 N96 1.307 . S
C95 C97 1.486 . S
N96 N92 1.370 . S
N96 C95 1.307 . S
C97 C95 1.486 . S
C97 H101 0.960 . S
C97 H102 0.960 . S
C97 H103 0.959 . S
H98 C94 0.960 . S
H99 C94 0.961 . S
H100 C94 0.960 . S
H101 C97 0.960 . S
H102 C97 0.960 . S
H103 C97 0.959 . S
Tb104 C113 2.764 . S
Tb104 O114 2.325 . S
Tb104 O117 2.303 . S
Tb104 O121 2.322 1_545 S
Tb104 O122 2.349 1_545 S
Tb104 O125 2.415 . S
Tb104 O126 2.399 . S
Tb105 O115 2.322 . S
Tb105 O116 2.349 1_655 S
Tb105 O118 2.415 1_545 S
Tb105 O119 2.399 1_545 S
Tb105 O120 2.325 1_645 S
Tb105 O123 2.297 1_645 S
Tb105 C134 2.764 1_545 S
C106 O122 1.261 . S
C106 O123 1.262 . S
C107 C110 1.358 . S
C107 C111 1.332 . S
C107 C113 1.504 . S
C108 C109 1.373 . S
C108 C112 1.308 . S
C109 C108 1.373 . S
C109 C110 1.429 . S
C109 H136 0.932 . S
C110 C107 1.358 . S
C110 C109 1.429 . S
C110 H137 0.930 . S
C111 C107 1.332 . S
C111 C112 1.394 . S
C111 H138 0.932 . S
C112 C108 1.308 . S
C112 C111 1.394 . S
C112 H139 0.929 . S
C113 Tb104 2.764 . S
C113 C107 1.504 . S
C113 O125 1.239 . S
C113 O126 1.263 . S
O114 Tb104 2.325 . S
O114 C124 1.236 . S
O115 Tb105 2.322 . S
O115 C124 1.257 1_655 S
O116 Tb105 2.349 1_455 S
O116 C127 1.261 . S
O117 Tb104 2.303 . S
O117 C127 1.257 . S
O118 Tb105 2.415 1_565 S
O118 C134 1.239 . S
O119 Tb105 2.399 1_565 S
O119 C134 1.263 . S
O120 Tb105 2.325 1_465 S
O120 C135 1.236 . S
O121 Tb104 2.322 1_565 S
O121 C135 1.257 . S
O122 Tb104 2.349 1_565 S
O122 C106 1.261 . S
O123 Tb105 2.297 1_465 S
O123 C106 1.262 . S
C124 O114 1.236 . S
C124 O115 1.257 1_455 S
O125 Tb104 2.415 . S
O125 C113 1.239 . S
O126 Tb104 2.399 . S
O126 C113 1.263 . S
C127 O116 1.261 . S
C127 O117 1.257 . S
C128 C131 1.358 . S
C128 C132 1.332 . S
C128 C134 1.504 . S
C129 C130 1.373 . S
C129 C133 1.308 . S
C130 C129 1.373 . S
C130 C131 1.429 . S
C130 H140 0.932 . S
C131 C128 1.358 . S
C131 C130 1.429 . S
C131 H141 0.930 . S
C132 C128 1.332 . S
C132 C133 1.394 . S
C132 H142 0.932 . S
C133 C129 1.308 . S
C133 C132 1.394 . S
C133 H143 0.929 . S
C134 Tb105 2.764 1_565 S
C134 O118 1.239 . S
C134 O119 1.263 . S
C134 C128 1.504 . S
C135 O120 1.236 . S
C135 O121 1.257 . S
H136 C109 0.932 . S
H137 C110 0.930 . S
H138 C111 0.932 . S
H139 C112 0.929 . S
H140 C130 0.932 . S
H141 C131 0.930 . S
H142 C132 0.932 . S
H143 C133 0.929 . S
Tb144 C153 2.764 . S
Tb144 O154 2.325 . S
Tb144 O157 2.303 . S
Tb144 O161 2.322 1_545 S
Tb144 O162 2.349 1_545 S
Tb144 O165 2.415 . S
Tb144 O166 2.399 . S
Tb145 O155 2.322 . S
Tb145 O156 2.349 . S
Tb145 O158 2.415 1_544 S
Tb145 O159 2.399 1_545 S
Tb145 O160 2.325 1_545 S
Tb145 O163 2.303 . S
Tb145 C174 2.764 1_544 S
C146 O162 1.261 . S
C146 O163 1.257 1_565 S
C147 C150 1.358 . S
C147 C151 1.332 . S
C147 C153 1.504 . S
C148 C149 1.373 . S
C148 C152 1.308 . S
C149 C148 1.373 . S
C149 C150 1.429 . S
C149 H176 0.932 . S
C150 C147 1.358 . S
C150 C149 1.429 . S
C150 H177 0.930 . S
C151 C147 1.332 . S
C151 C152 1.394 . S
C151 H178 0.932 . S
C152 C148 1.308 . S
C152 C151 1.394 . S
C152 H179 0.929 . S
C153 Tb144 2.764 . S
C153 C147 1.504 . S
C153 O165 1.239 . S
C153 O166 1.263 . S
O154 Tb144 2.325 . S
O154 C164 1.236 . S
O155 Tb145 2.322 . S
O155 C164 1.257 . S
O156 Tb145 2.349 . S
O156 C167 1.261 . S
O157 Tb144 2.303 . S
O157 C167 1.257 . S
O158 Tb145 2.415 1_566 S
O158 C174 1.239 . S
O159 Tb145 2.399 1_565 S
O159 C174 1.263 1_554 S
O160 Tb145 2.325 1_565 S
O160 C175 1.236 . S
O161 Tb144 2.322 1_565 S
O161 C175 1.257 . S
O162 Tb144 2.349 1_565 S
O162 C146 1.261 . S
O163 Tb145 2.303 . S
O163 C146 1.257 1_545 S
C164 O154 1.236 . S
C164 O155 1.257 . S
O165 Tb144 2.415 . S
O165 C153 1.239 . S
O166 Tb144 2.399 . S
O166 C153 1.263 . S
C167 O156 1.261 . S
C167 O157 1.257 . S
C168 C171 1.358 . S
C168 C172 1.332 . S
C168 C174 1.504 . S
C169 C170 1.373 . S
C169 C173 1.308 . S
C170 C169 1.373 . S
C170 C171 1.429 . S
C170 H180 0.932 . S
C171 C168 1.358 . S
C171 C170 1.429 . S
C171 H181 0.930 . S
C172 C168 1.332 . S
C172 C173 1.394 . S
C172 H182 0.932 . S
C173 C169 1.308 . S
C173 C172 1.394 . S
C173 H183 0.929 . S
C174 Tb145 2.764 1_566 S
C174 O158 1.239 . S
C174 O159 1.263 1_556 S
C174 C168 1.504 . S
C175 O160 1.236 . S
C175 O161 1.257 . S
H176 C149 0.932 . S
H177 C150 0.930 . S
H178 C151 0.932 . S
H179 C152 0.929 . S
H180 C170 0.932 . S
H181 C171 0.930 . S
H182 C172 0.932 . S
H183 C173 0.929 . S
Tb184 C193 2.764 . S
Tb184 O194 2.325 . S
Tb184 O197 2.303 . S
Tb184 O201 2.322 . S
Tb184 O202 2.349 . S
Tb184 O205 2.415 . S
Tb184 O206 2.399 . S
Tb185 O195 2.322 . S
Tb185 O196 2.349 . S
Tb185 O198 2.415 . S
Tb185 O199 2.399 . S
Tb185 O200 2.325 . S
Tb185 O203 2.303 . S
Tb185 C214 2.764 . S
C186 O202 1.261 . S
C186 O203 1.257 . S
C187 C190 1.358 . S
C187 C191 1.332 . S
C187 C193 1.504 . S
C188 C189 1.373 . S
C188 C192 1.308 . S
C189 C188 1.373 . S
C189 C190 1.429 . S
C189 H216 0.932 . S
C190 C187 1.358 . S
C190 C189 1.429 . S
C190 H217 0.930 . S
C191 C187 1.332 . S
C191 C192 1.394 . S
C191 H218 0.932 . S
C192 C188 1.308 . S
C192 C191 1.394 . S
C192 H219 0.929 . S
C193 Tb184 2.764 . S
C193 C187 1.504 . S
C193 O205 1.239 . S
C193 O206 1.263 . S
O194 Tb184 2.325 . S
O194 C204 1.236 . S
O195 Tb185 2.322 . S
O195 C204 1.257 . S
O196 Tb185 2.349 . S
O196 C207 1.261 . S
O197 Tb184 2.303 . S
O197 C207 1.257 . S
O198 Tb185 2.415 . S
O198 C214 1.239 . S
O199 Tb185 2.399 . S
O199 C214 1.263 . S
O200 Tb185 2.325 . S
O200 C215 1.236 . S
O201 Tb184 2.322 . S
O201 C215 1.257 . S
O202 Tb184 2.349 . S
O202 C186 1.261 . S
O203 Tb185 2.303 . S
O203 C186 1.257 . S
C204 O194 1.236 . S
C204 O195 1.257 . S
O205 Tb184 2.415 . S
O205 C193 1.239 . S
O206 Tb184 2.399 . S
O206 C193 1.263 . S
C207 O196 1.261 . S
C207 O197 1.257 . S
C208 C211 1.358 . S
C208 C212 1.332 . S
C208 C214 1.504 . S
C209 C210 1.373 . S
C209 C213 1.308 . S
C210 C209 1.373 . S
C210 C211 1.429 . S
C210 H220 0.932 . S
C211 C208 1.358 . S
C211 C210 1.429 . S
C211 H221 0.930 . S
C212 C208 1.332 . S
C212 C213 1.394 . S
C212 H222 0.932 . S
C213 C209 1.308 . S
C213 C212 1.394 . S
C213 H223 0.929 . S
C214 Tb185 2.764 . S
C214 O198 1.239 . S
C214 O199 1.263 . S
C214 C208 1.504 . S
C215 O200 1.236 . S
C215 O201 1.257 . S
H216 C189 0.932 . S
H217 C190 0.930 . S
H218 C191 0.932 . S
H219 C192 0.929 . S
H220 C210 0.932 . S
H221 C211 0.930 . S
H222 C212 0.932 . S
H223 C213 0.929 . S
Tb224 C233 2.764 . S
Tb224 O234 2.325 . S
Tb224 O237 2.303 1_556 S
Tb224 O241 2.322 1_656 S
Tb224 O242 2.349 1_655 S
Tb224 O245 2.415 . S
Tb224 O246 2.399 . S
Tb225 O235 2.322 1_455 S
Tb225 O236 2.349 1_455 S
Tb225 O238 2.415 . S
Tb225 O239 2.399 . S
Tb225 O240 2.325 . S
Tb225 O243 2.303 1_554 S
Tb225 C254 2.764 . S
C226 O242 1.261 . S
C226 O243 1.257 . S
C227 C230 1.358 . S
C227 C231 1.332 . S
C227 C233 1.504 . S
C228 C229 1.373 . S
C228 C232 1.308 . S
C229 C228 1.373 . S
C229 C230 1.429 . S
C229 H256 0.932 . S
C230 C227 1.358 . S
C230 C229 1.429 . S
C230 H257 0.930 . S
C231 C227 1.332 . S
C231 C232 1.394 . S
C231 H258 0.932 . S
C232 C228 1.308 . S
C232 C231 1.394 . S
C232 H259 0.929 . S
C233 Tb224 2.764 . S
C233 C227 1.504 . S
C233 O245 1.239 . S
C233 O246 1.263 . S
O234 Tb224 2.325 . S
O234 C244 1.236 . S
O235 Tb225 2.322 1_655 S
O235 C244 1.257 1_554 S
O236 Tb225 2.349 1_655 S
O236 C247 1.261 . S
O237 Tb224 2.303 1_554 S
O237 C247 1.257 . S
O238 Tb225 2.415 . S
O238 C254 1.239 . S
O239 Tb225 2.399 . S
O239 C254 1.263 . S
O240 Tb225 2.325 . S
O240 C255 1.236 . S
O241 Tb224 2.322 1_454 S
O241 C255 1.257 . S
O242 Tb224 2.349 1_455 S
O242 C226 1.261 . S
O243 Tb225 2.303 1_556 S
O243 C226 1.257 . S
C244 O234 1.236 . S
C244 O235 1.257 1_556 S
O245 Tb224 2.415 . S
O245 C233 1.239 . S
O246 Tb224 2.399 . S
O246 C233 1.263 . S
C247 O236 1.261 . S
C247 O237 1.257 . S
C248 C251 1.358 . S
C248 C252 1.332 . S
C248 C254 1.504 . S
C249 C250 1.373 . S
C249 C253 1.308 . S
C250 C249 1.373 . S
C250 C251 1.429 . S
C250 H260 0.932 . S
C251 C248 1.358 . S
C251 C250 1.429 . S
C251 H261 0.930 . S
C252 C248 1.332 . S
C252 C253 1.394 . S
C252 H262 0.932 . S
C253 C249 1.308 . S
C253 C252 1.394 . S
C253 H263 0.929 . S
C254 Tb225 2.764 . S
C254 O238 1.239 . S
C254 O239 1.263 . S
C254 C248 1.504 . S
C255 O240 1.236 . S
C255 O241 1.257 . S
H256 C229 0.932 . S
H257 C230 0.930 . S
H258 C231 0.932 . S
H259 C232 0.929 . S
H260 C250 0.932 . S
H261 C251 0.930 . S
H262 C252 0.932 . S
H263 C253 0.929 . S
H264 C270 0.930 . S
H265 C273 0.930 . S
H266 C274 0.930 . S
H267 C275 0.930 . S
H268 C278 0.930 . S
H269 C279 0.930 . S
C270 H264 0.930 . S
C270 C271 1.355 . S
C270 C272 1.415 . S
C271 C270 1.355 . S
C271 C273 1.419 . S
C272 C270 1.415 . S
C272 C277 1.425 . S
C272 C279 1.409 . S
C273 H265 0.930 . S
C273 C271 1.419 . S
C273 C274 1.362 . S
C274 H266 0.930 . S
C274 C273 1.362 . S
C274 C277 1.409 . S
C275 H267 0.930 . S
C275 C276 1.355 . S
C275 C277 1.415 . S
C276 C275 1.355 . S
C276 C278 1.419 . S
C277 C272 1.425 . S
C277 C274 1.409 . S
C277 C275 1.415 . S
C278 H268 0.930 . S
C278 C276 1.419 . S
C278 C279 1.362 . S
C279 H269 0.930 . S
C279 C272 1.409 . S
C279 C278 1.362 . S
H280 C286 0.930 . S
H281 C289 0.930 . S
H282 C290 0.930 . S
H283 C291 0.930 . S
H284 C294 0.930 . S
H285 C295 0.930 . S
C286 H280 0.930 . S
C286 C287 1.355 . S
C286 C288 1.415 . S
C287 C286 1.355 . S
C287 C289 1.419 . S
C288 C286 1.415 . S
C288 C293 1.425 . S
C288 C295 1.409 . S
C289 H281 0.930 . S
C289 C287 1.419 . S
C289 C290 1.362 . S
C290 H282 0.930 . S
C290 C289 1.362 . S
C290 C293 1.409 . S
C291 H283 0.930 . S
C291 C292 1.355 . S
C291 C293 1.415 . S
C292 C291 1.355 . S
C292 C294 1.419 . S
C293 C288 1.425 . S
C293 C290 1.409 . S
C293 C291 1.415 . S
C294 H284 0.930 . S
C294 C292 1.419 . S
C294 C295 1.362 . S
C295 H285 0.930 . S
C295 C288 1.409 . S
C295 C294 1.362 . S
H296 C302 0.930 . S
H297 C305 0.930 . S
H298 C306 0.930 . S
H299 C307 0.930 . S
H300 C310 0.930 . S
H301 C311 0.930 . S
C302 H296 0.930 . S
C302 C303 1.355 . S
C302 C304 1.415 . S
C303 C302 1.355 . S
C303 C305 1.419 . S
C304 C302 1.415 . S
C304 C309 1.425 . S
C304 C311 1.409 . S
C305 H297 0.930 . S
C305 C303 1.419 . S
C305 C306 1.362 . S
C306 H298 0.930 . S
C306 C305 1.362 . S
C306 C309 1.409 . S
C307 H299 0.930 . S
C307 C308 1.355 . S
C307 C309 1.415 . S
C308 C307 1.355 . S
C308 C310 1.419 . S
C309 C304 1.425 . S
C309 C306 1.409 . S
C309 C307 1.415 . S
C310 H300 0.930 . S
C310 C308 1.419 . S
C310 C311 1.362 . S
C311 H301 0.930 . S
C311 C304 1.409 . S
C311 C310 1.362 . S
H312 C318 0.930 . S
H313 C321 0.930 . S
H314 C322 0.930 . S
H315 C323 0.930 . S
H316 C326 0.930 . S
H317 C327 0.930 . S
C318 H312 0.930 . S
C318 C319 1.355 . S
C318 C320 1.415 . S
C319 C318 1.355 . S
C319 C321 1.419 . S
C320 C318 1.415 . S
C320 C325 1.425 . S
C320 C327 1.409 . S
C321 H313 0.930 . S
C321 C319 1.419 . S
C321 C322 1.362 . S
C322 H314 0.930 . S
C322 C321 1.362 . S
C322 C325 1.409 . S
C323 H315 0.930 . S
C323 C324 1.355 . S
C323 C325 1.415 . S
C324 C323 1.355 . S
C324 C326 1.419 . S
C325 C320 1.425 . S
C325 C322 1.409 . S
C325 C323 1.415 . S
C326 H316 0.930 . S
C326 C324 1.419 . S
C326 C327 1.362 . S
C327 H317 0.930 . S
C327 C320 1.409 . S
C327 C326 1.362 . S
H328 C334 0.930 . S
H329 C337 0.930 . S
H330 C338 0.930 . S
H331 C339 0.930 . S
H332 C342 0.930 . S
H333 C343 0.930 . S
C334 H328 0.930 . S
C334 C335 1.355 . S
C334 C336 1.415 . S
C335 C334 1.355 . S
C335 C337 1.419 . S
C336 C334 1.415 . S
C336 C341 1.425 . S
C336 C343 1.409 . S
C337 H329 0.930 . S
C337 C335 1.419 . S
C337 C338 1.362 . S
C338 H330 0.930 . S
C338 C337 1.362 . S
C338 C341 1.409 . S
C339 H331 0.930 . S
C339 C340 1.355 . S
C339 C341 1.415 . S
C340 C339 1.355 . S
C340 C342 1.419 . S
C341 C336 1.425 . S
C341 C338 1.409 . S
C341 C339 1.415 . S
C342 H332 0.930 . S
C342 C340 1.419 . S
C342 C343 1.362 . S
C343 H333 0.930 . S
C343 C336 1.409 . S
C343 C342 1.362 . S
H344 C350 0.930 . S
H345 C353 0.930 . S
H346 C354 0.930 . S
H347 C355 0.930 . S
H348 C358 0.930 . S
H349 C359 0.930 . S
C350 H344 0.930 . S
C350 C351 1.355 . S
C350 C352 1.415 . S
C351 C350 1.355 . S
C351 C353 1.419 . S
C352 C350 1.415 . S
C352 C357 1.425 . S
C352 C359 1.409 . S
C353 H345 0.930 . S
C353 C351 1.419 . S
C353 C354 1.362 . S
C354 H346 0.930 . S
C354 C353 1.362 . S
C354 C357 1.409 . S
C355 H347 0.930 . S
C355 C356 1.355 . S
C355 C357 1.415 . S
C356 C355 1.355 . S
C356 C358 1.419 . S
C357 C352 1.425 . S
C357 C354 1.409 . S
C357 C355 1.415 . S
C358 H348 0.930 . S
C358 C356 1.419 . S
C358 C359 1.362 . S
C359 H349 0.930 . S
C359 C352 1.409 . S
C359 C358 1.362 . S
H360 C366 0.930 . S
H361 C369 0.930 . S
H362 C370 0.930 . S
H363 C371 0.930 . S
H364 C374 0.930 . S
H365 C375 0.930 . S
C366 H360 0.930 . S
C366 C367 1.355 . S
C366 C368 1.415 . S
C367 C366 1.355 . S
C367 C369 1.419 . S
C368 C366 1.415 . S
C368 C373 1.425 . S
C368 C375 1.409 . S
C369 H361 0.930 . S
C369 C367 1.419 . S
C369 C370 1.362 . S
C370 H362 0.930 . S
C370 C369 1.362 . S
C370 C373 1.409 . S
C371 H363 0.930 . S
C371 C372 1.355 . S
C371 C373 1.415 . S
C372 C371 1.355 . S
C372 C374 1.419 . S
C373 C368 1.425 . S
C373 C370 1.409 . S
C373 C371 1.415 . S
C374 H364 0.930 . S
C374 C372 1.419 . S
C374 C375 1.362 . S
C375 H365 0.930 . S
C375 C368 1.409 . S
C375 C374 1.362 . S
H376 C382 0.930 . S
H377 C385 0.930 . S
H378 C386 0.930 . S
H379 C387 0.930 . S
H380 C390 0.930 . S
H381 C391 0.930 . S
C382 H376 0.930 . S
C382 C383 1.355 . S
C382 C384 1.415 . S
C383 C382 1.355 . S
C383 C385 1.419 . S
C384 C382 1.415 . S
C384 C389 1.425 . S
C384 C391 1.409 . S
C385 H377 0.930 . S
C385 C383 1.419 . S
C385 C386 1.362 . S
C386 H378 0.930 . S
C386 C385 1.362 . S
C386 C389 1.409 . S
C387 H379 0.930 . S
C387 C388 1.355 . S
C387 C389 1.415 . S
C388 C387 1.355 . S
C388 C390 1.419 . S
C389 C384 1.425 . S
C389 C386 1.409 . S
C389 C387 1.415 . S
C390 H380 0.930 . S
C390 C388 1.419 . S
C390 C391 1.362 . S
C391 H381 0.930 . S
C391 C384 1.409 . S
C391 C390 1.362 . S
H392 C398 0.930 . S
H393 C401 0.930 . S
H394 C402 0.930 . S
H395 C403 0.930 . S
H396 C406 0.930 . S
H397 C407 0.930 . S
C398 H392 0.930 . S
C398 C399 1.355 . S
C398 C400 1.415 . S
C399 C398 1.355 . S
C399 C401 1.419 . S
C400 C398 1.415 . S
C400 C405 1.425 . S
C400 C407 1.409 . S
C401 H393 0.930 . S
C401 C399 1.419 . S
C401 C402 1.362 . S
C402 H394 0.930 . S
C402 C401 1.362 . S
C402 C405 1.409 . S
C403 H395 0.930 . S
C403 C404 1.355 . S
C403 C405 1.415 . S
C404 C403 1.355 . S
C404 C406 1.419 . S
C405 C400 1.425 . S
C405 C402 1.409 . S
C405 C403 1.415 . S
C406 H396 0.930 . S
C406 C404 1.419 . S
C406 C407 1.362 . S
C407 H397 0.930 . S
C407 C400 1.409 . S
C407 C406 1.362 . S
H408 C414 0.930 . S
H409 C417 0.930 . S
H410 C418 0.930 . S
H411 C419 0.930 . S
H412 C422 0.930 . S
H413 C423 0.930 . S
C414 H408 0.930 . S
C414 C415 1.355 . S
C414 C416 1.415 . S
C415 C414 1.355 . S
C415 C417 1.419 . S
C416 C414 1.415 . S
C416 C421 1.425 . S
C416 C423 1.409 . S
C417 H409 0.930 . S
C417 C415 1.419 . S
C417 C418 1.362 . S
C418 H410 0.930 . S
C418 C417 1.362 . S
C418 C421 1.409 . S
C419 H411 0.930 . S
C419 C420 1.355 . S
C419 C421 1.415 1_554 S
C420 C419 1.355 . S
C420 C422 1.419 1_554 S
C421 C416 1.425 . S
C421 C418 1.409 . S
C421 C419 1.415 1_556 S
C422 H412 0.930 . S
C422 C420 1.419 1_556 S
C422 C423 1.362 . S
C423 H413 0.930 . S
C423 C416 1.409 . S
C423 C422 1.362 . S
H424 C430 0.930 . S
H425 C433 0.930 . S
H426 C434 0.930 . S
H427 C435 0.930 . S
H428 C438 0.930 . S
H429 C439 0.930 . S
C430 H424 0.930 . S
C430 C431 1.355 . S
C430 C432 1.415 . S
C431 C430 1.355 . S
C431 C433 1.419 . S
C432 C430 1.415 . S
C432 C437 1.425 . S
C432 C439 1.409 . S
C433 H425 0.930 . S
C433 C431 1.419 . S
C433 C434 1.362 . S
C434 H426 0.930 . S
C434 C433 1.362 . S
C434 C437 1.409 . S
C435 H427 0.930 . S
C435 C436 1.355 . S
C435 C437 1.415 . S
C436 C435 1.355 . S
C436 C438 1.419 . S
C437 C432 1.425 . S
C437 C434 1.409 . S
C437 C435 1.415 . S
C438 H428 0.930 . S
C438 C436 1.419 . S
C438 C439 1.362 . S
C439 H429 0.930 . S
C439 C432 1.409 . S
C439 C438 1.362 . S
H440 C446 0.930 . S
H441 C449 0.930 . S
H442 C450 0.930 . S
H443 C451 0.930 . S
H444 C454 0.930 . S
H445 C455 0.930 . S
C446 H440 0.930 . S
C446 C447 1.355 . S
C446 C448 1.415 . S
C447 C446 1.355 . S
C447 C449 1.419 . S
C448 C446 1.415 . S
C448 C453 1.425 . S
C448 C455 1.409 . S
C449 H441 0.930 . S
C449 C447 1.419 . S
C449 C450 1.362 . S
C450 H442 0.930 . S
C450 C449 1.362 . S
C450 C453 1.409 . S
C451 H443 0.930 . S
C451 C452 1.355 . S
C451 C453 1.415 . S
C452 C451 1.355 . S
C452 C454 1.419 . S
C453 C448 1.425 . S
C453 C450 1.409 . S
C453 C451 1.415 . S
C454 H444 0.930 . S
C454 C452 1.419 . S
C454 C455 1.362 . S
C455 H445 0.930 . S
C455 C448 1.409 . S
C455 C454 1.362 . S
H456 C462 0.930 . S
H457 C465 0.930 . S
H458 C466 0.930 . S
H459 C467 0.930 . S
H460 C470 0.930 . S
H461 C471 0.930 . S
C462 H456 0.930 . S
C462 C463 1.355 . S
C462 C464 1.415 . S
C463 C462 1.355 . S
C463 C465 1.419 . S
C464 C462 1.415 . S
C464 C469 1.425 . S
C464 C471 1.409 . S
C465 H457 0.930 . S
C465 C463 1.419 . S
C465 C466 1.362 . S
C466 H458 0.930 . S
C466 C465 1.362 . S
C466 C469 1.409 . S
C467 H459 0.930 . S
C467 C468 1.355 . S
C467 C469 1.415 . S
C468 C467 1.355 . S
C468 C470 1.419 . S
C469 C464 1.425 . S
C469 C466 1.409 . S
C469 C467 1.415 . S
C470 H460 0.930 . S
C470 C468 1.419 . S
C470 C471 1.362 . S
C471 H461 0.930 . S
C471 C464 1.409 . S
C471 C470 1.362 . S
H472 C478 0.930 . S
H473 C481 0.930 . S
H474 C482 0.930 . S
H475 C483 0.930 . S
H476 C486 0.930 . S
H477 C487 0.930 . S
C478 H472 0.930 . S
C478 C479 1.355 . S
C478 C480 1.415 . S
C479 C478 1.355 . S
C479 C481 1.419 . S
C480 C478 1.415 . S
C480 C485 1.425 . S
C480 C487 1.409 . S
C481 H473 0.930 . S
C481 C479 1.419 . S
C481 C482 1.362 . S
C482 H474 0.930 . S
C482 C481 1.362 . S
C482 C485 1.409 . S
C483 H475 0.930 . S
C483 C484 1.355 . S
C483 C485 1.415 . S
C484 C483 1.355 . S
C484 C486 1.419 . S
C485 C480 1.425 . S
C485 C482 1.409 . S
C485 C483 1.415 . S
C486 H476 0.930 . S
C486 C484 1.419 . S
C486 C487 1.362 . S
C487 H477 0.930 . S
C487 C480 1.409 . S
C487 C486 1.362 . S
H488 C494 0.930 . S
H489 C497 0.930 . S
H490 C498 0.930 . S
H491 C499 0.930 . S
H492 C502 0.930 . S
H493 C503 0.930 . S
C494 H488 0.930 . S
C494 C495 1.355 . S
C494 C496 1.415 . S
C495 C494 1.355 . S
C495 C497 1.419 . S
C496 C494 1.415 . S
C496 C501 1.425 . S
C496 C503 1.409 . S
C497 H489 0.930 . S
C497 C495 1.419 . S
C497 C498 1.362 . S
C498 H490 0.930 . S
C498 C497 1.362 . S
C498 C501 1.409 . S
C499 H491 0.930 . S
C499 C500 1.355 . S
C499 C501 1.415 . S
C500 C499 1.355 . S
C500 C502 1.419 . S
C501 C496 1.425 . S
C501 C498 1.409 . S
C501 C499 1.415 . S
C502 H492 0.930 . S
C502 C500 1.419 . S
C502 C503 1.362 . S
C503 H493 0.930 . S
C503 C496 1.409 . S
C503 C502 1.362 . S
H504 C510 0.930 . S
H505 C513 0.930 . S
H506 C514 0.930 . S
H507 C515 0.930 . S
H508 C518 0.930 . S
H509 C519 0.930 . S
C510 H504 0.930 . S
C510 C511 1.355 . S
C510 C512 1.415 . S
C511 C510 1.355 . S
C511 C513 1.419 . S
C512 C510 1.415 . S
C512 C517 1.425 . S
C512 C519 1.409 . S
C513 H505 0.930 . S
C513 C511 1.419 . S
C513 C514 1.362 . S
C514 H506 0.930 . S
C514 C513 1.362 . S
C514 C517 1.409 . S
C515 H507 0.930 . S
C515 C516 1.355 . S
C515 C517 1.415 . S
C516 C515 1.355 . S
C516 C518 1.419 . S
C517 C512 1.425 . S
C517 C514 1.409 . S
C517 C515 1.415 . S
C518 H508 0.930 . S
C518 C516 1.419 . S
C518 C519 1.362 . S
C519 H509 0.930 . S
C519 C512 1.409 . S
C519 C518 1.362 . S
H520 C526 0.930 . S
H521 C529 0.930 . S
H522 C530 0.930 . S
H523 C531 0.928 1_554 S
H524 C534 0.930 . S
H525 C535 0.930 . S
C526 H520 0.930 . S
C526 C527 1.355 . S
C526 C528 1.415 . S
C527 C526 1.355 . S
C527 C529 1.419 . S
C528 C526 1.415 . S
C528 C533 1.425 . S
C528 C535 1.409 . S
C529 H521 0.930 . S
C529 C527 1.419 . S
C529 C530 1.362 . S
C530 H522 0.930 . S
C530 C529 1.362 . S
C530 C533 1.409 . S
C531 H523 0.928 1_556 S
C531 C532 1.355 1_556 S
C531 C533 1.415 . S
C532 C531 1.355 1_554 S
C532 C534 1.419 . S
C533 C528 1.425 . S
C533 C530 1.409 . S
C533 C531 1.415 . S
C534 H524 0.930 . S
C534 C532 1.419 . S
C534 C535 1.362 1_554 S
C535 H525 0.930 . S
C535 C528 1.409 . S
C535 C534 1.362 1_556 S
H536 C542 0.930 . S
H537 C545 0.930 . S
H538 C546 0.930 . S
H539 C547 0.930 . S
H540 C550 0.930 . S
H541 C551 0.930 . S
C542 H536 0.930 . S
C542 C543 1.355 . S
C542 C544 1.415 . S
C543 C542 1.355 . S
C543 C545 1.419 . S
C544 C542 1.415 . S
C544 C549 1.425 . S
C544 C551 1.409 1_655 S
C545 H537 0.930 . S
C545 C543 1.419 . S
C545 C546 1.362 . S
C546 H538 0.930 . S
C546 C545 1.362 . S
C546 C549 1.409 . S
C547 H539 0.930 . S
C547 C548 1.355 . S
C547 C549 1.415 . S
C548 C547 1.355 . S
C548 C550 1.419 1_655 S
C549 C544 1.425 . S
C549 C546 1.409 . S
C549 C547 1.415 . S
C550 H540 0.930 . S
C550 C548 1.419 1_455 S
C550 C551 1.362 . S
C551 H541 0.930 . S
C551 C544 1.409 1_455 S
C551 C550 1.362 . S
H552 C558 0.930 . S
H553 C561 0.930 . S
H554 C562 0.930 . S
H555 C563 0.930 . S
H556 C566 0.930 . S
H557 C567 0.930 . S
C558 H552 0.930 . S
C558 C559 1.355 . S
C558 C560 1.415 . S
C559 C558 1.355 . S
C559 C561 1.419 . S
C560 C558 1.415 . S
C560 C565 1.425 . S
C560 C567 1.409 . S
C561 H553 0.930 . S
C561 C559 1.419 . S
C561 C562 1.362 . S
C562 H554 0.930 . S
C562 C561 1.362 . S
C562 C565 1.409 . S
C563 H555 0.930 . S
C563 C564 1.355 . S
C563 C565 1.415 . S
C564 C563 1.355 . S
C564 C566 1.419 . S
C565 C560 1.425 . S
C565 C562 1.409 . S
C565 C563 1.415 . S
C566 H556 0.930 . S
C566 C564 1.419 . S
C566 C567 1.362 . S
C567 H557 0.930 . S
C567 C560 1.409 . S
C567 C566 1.362 . S
H568 C574 0.930 . S
H569 C577 0.930 . S
H570 C578 0.930 . S
H571 C579 0.930 . S
H572 C582 0.930 . S
H573 C583 0.930 . S
C574 H568 0.930 . S
C574 C575 1.355 . S
C574 C576 1.415 . S
C575 C574 1.355 . S
C575 C577 1.419 . S
C576 C574 1.415 . S
C576 C581 1.425 . S
C576 C583 1.409 . S
C577 H569 0.930 . S
C577 C575 1.419 . S
C577 C578 1.362 . S
C578 H570 0.930 . S
C578 C577 1.362 . S
C578 C581 1.409 . S
C579 H571 0.930 . S
C579 C580 1.355 . S
C579 C581 1.415 . S
C580 C579 1.355 . S
C580 C582 1.419 . S
C581 C576 1.425 . S
C581 C578 1.409 . S
C581 C579 1.415 . S
C582 H572 0.930 . S
C582 C580 1.419 . S
C582 C583 1.362 . S
C583 H573 0.930 . S
C583 C576 1.409 . S
C583 C582 1.362 . S
H584 C590 0.930 . S
H585 C593 0.930 . S
H586 C594 0.930 . S
H587 C595 0.930 . S
H588 C598 0.930 . S
H589 C599 0.930 . S
C590 H584 0.930 . S
C590 C591 1.355 . S
C590 C592 1.415 . S
C591 C590 1.355 . S
C591 C593 1.419 . S
C592 C590 1.415 . S
C592 C597 1.425 . S
C592 C599 1.409 . S
C593 H585 0.930 . S
C593 C591 1.419 . S
C593 C594 1.362 . S
C594 H586 0.930 . S
C594 C593 1.362 . S
C594 C597 1.409 . S
C595 H587 0.930 . S
C595 C596 1.355 . S
C595 C597 1.415 . S
C596 C595 1.355 . S
C596 C598 1.419 . S
C597 C592 1.425 . S
C597 C594 1.409 . S
C597 C595 1.415 . S
C598 H588 0.930 . S
C598 C596 1.419 . S
C598 C599 1.362 . S
C599 H589 0.930 . S
C599 C592 1.409 . S
C599 C598 1.362 . S
H600 C606 0.930 . S
H601 C609 0.930 . S
H602 C610 0.930 . S
H603 C611 0.930 . S
H604 C614 0.930 . S
H605 C615 0.930 . S
C606 H600 0.930 . S
C606 C607 1.355 . S
C606 C608 1.415 . S
C607 C606 1.355 . S
C607 C609 1.419 . S
C608 C606 1.415 . S
C608 C613 1.425 . S
C608 C615 1.409 . S
C609 H601 0.930 . S
C609 C607 1.419 . S
C609 C610 1.362 . S
C610 H602 0.930 . S
C610 C609 1.362 . S
C610 C613 1.409 . S
C611 H603 0.930 . S
C611 C612 1.355 . S
C611 C613 1.415 . S
C612 C611 1.355 . S
C612 C614 1.419 . S
C613 C608 1.425 . S
C613 C610 1.409 . S
C613 C611 1.415 . S
C614 H604 0.930 . S
C614 C612 1.419 . S
C614 C615 1.362 . S
C615 H605 0.930 . S
C615 C608 1.409 . S
C615 C614 1.362 . S
H616 C622 0.930 . S
H617 C625 0.930 . S
H618 C626 0.930 . S
H619 C627 0.930 . S
H620 C630 0.930 . S
H621 C631 0.930 . S
C622 H616 0.930 . S
C622 C623 1.355 . S
C622 C624 1.415 . S
C623 C622 1.355 . S
C623 C625 1.419 . S
C624 C622 1.415 . S
C624 C629 1.425 . S
C624 C631 1.409 . S
C625 H617 0.930 . S
C625 C623 1.419 . S
C625 C626 1.362 . S
C626 H618 0.930 . S
C626 C625 1.362 . S
C626 C629 1.409 . S
C627 H619 0.930 . S
C627 C628 1.355 . S
C627 C629 1.415 . S
C628 C627 1.355 . S
C628 C630 1.419 . S
C629 C624 1.425 . S
C629 C626 1.409 . S
C629 C627 1.415 . S
C630 H620 0.930 . S
C630 C628 1.419 . S
C630 C631 1.362 . S
C631 H621 0.930 . S
C631 C624 1.409 . S
C631 C630 1.362 . S
H632 C638 0.930 . S
H633 C641 0.930 . S
H634 C642 0.930 . S
H635 C643 0.930 . S
H636 C646 0.930 . S
H637 C647 0.930 . S
C638 H632 0.930 . S
C638 C639 1.355 . S
C638 C640 1.415 . S
C639 C638 1.355 . S
C639 C641 1.419 . S
C640 C638 1.415 . S
C640 C645 1.425 . S
C640 C647 1.409 . S
C641 H633 0.930 . S
C641 C639 1.419 . S
C641 C642 1.362 . S
C642 H634 0.930 . S
C642 C641 1.362 . S
C642 C645 1.409 . S
C643 H635 0.930 . S
C643 C644 1.355 . S
C643 C645 1.415 . S
C644 C643 1.355 . S
C644 C646 1.419 . S
C645 C640 1.425 . S
C645 C642 1.409 . S
C645 C643 1.415 . S
C646 H636 0.930 . S
C646 C644 1.419 . S
C646 C647 1.362 . S
C647 H637 0.930 . S
C647 C640 1.409 . S
C647 C646 1.362 . S
C271 N1 0.853 . S
C276 C108 0.792 . S
C287 N18 1.197 . S
C292 C169 1.210 . S
C308 C207 2.140 . S
C303 N28 2.201 . S
C319 N40 2.598 . S
C324 C247 2.637 . S
C340 C167 1.467 . S
C335 N5 1.480 . S
C356 C135 1.674 . S
C351 N14 1.533 . S
C372 C244 1.826 . S
C367 N31 1.844 . S
C388 C204 1.657 . S
C383 N41 1.688 . S
C399 N2 0.964 . S
C404 C249 1.000 . S
C420 C164 2.556 . S
C415 N27 2.535 . S
C431 N44 2.389 . S
C436 C106 2.417 1_655 S
C447 N15 1.089 . S
C452 C209 1.139 . S
C468 C129 1.282 . S
C463 N57 1.310 . S
C479 N70 0.845 . S
C484 C148 0.903 . S
C495 N79 2.424 . S
C500 C186 2.433 . S
C511 N93 2.370 . S
C516 C226 2.358 . S
C527 N54 1.203 . S
C532 C146 1.214 . S
C548 C124 2.231 1_655 S
C543 N66 2.181 . S
C564 C255 1.389 . S
C559 N80 1.444 . S
C580 C215 1.932 . S
C575 N96 1.912 . S
C591 N53 1.204 . S
C596 C228 1.213 . S
C612 C175 2.137 . S
C607 N83 2.067 . S
C628 C127 2.448 . S
C623 N92 2.494 . S
C639 N67 1.272 . S
C644 C188 1.324 . S
