# Generated by pormake.
# Topology pth, (4,4)-cn, num edge types: 1
# Building blocks:
#     Node 0, Type 0, BuildingBlock: QUQFOY_clean_sbu_1, # of connection points: 4
#     Node 1, Type 0, BuildingBlock: QUQFOY_clean_sbu_1, # of connection points: 4
#     Node 2, Type 0, BuildingBlock: QUQFOY_clean_sbu_1, # of connection points: 4
#     Node 3, Type 1, BuildingBlock: AZAVOO_clean_linker_0, # of connection points: 4
#     Node 4, Type 1, BuildingBlock: AZAVOO_clean_linker_0, # of connection points: 4
#     Node 5, Type 1, BuildingBlock: AZAVOO_clean_linker_0, # of connection points: 4
#     Edge 6, Type (0, 1), BuildingBlock: AJUNOK_clean_linker_0, # of connection points: 2
#     Edge 7, Type (0, 1), BuildingBlock: AJUNOK_clean_linker_0, # of connection points: 2
#     Edge 8, Type (0, 1), BuildingBlock: AJUNOK_clean_linker_0, # of connection points: 2
#     Edge 9, Type (0, 1), BuildingBlock: AJUNOK_clean_linker_0, # of connection points: 2
#     Edge 10, Type (0, 1), BuildingBlock: AJUNOK_clean_linker_0, # of connection points: 2
#     Edge 11, Type (0, 1), BuildingBlock: AJUNOK_clean_linker_0, # of connection points: 2
#     Edge 12, Type (0, 1), BuildingBlock: AJUNOK_clean_linker_0, # of connection points: 2
#     Edge 13, Type (0, 1), BuildingBlock: AJUNOK_clean_linker_0, # of connection points: 2
#     Edge 14, Type (0, 1), BuildingBlock: AJUNOK_clean_linker_0, # of connection points: 2
#     Edge 15, Type (0, 1), BuildingBlock: AJUNOK_clean_linker_0, # of connection points: 2
#     Edge 16, Type (0, 1), BuildingBlock: AJUNOK_clean_linker_0, # of connection points: 2
#     Edge 17, Type (0, 1), BuildingBlock: AJUNOK_clean_linker_0, # of connection points: 2
# Relax obj value: 0.128
# Max RMSD: 0.231
# Mean RMSD: 0.168
data_MOF--net-pth--node1-QUQFOY_clean_sbu_1--node2-AZAVOO_clean_linker_0--edge1-AJUNOK_clean_linker_0
_symmetry_space_group_name_H-M    P1
_symmetry_Int_Tables_number       1
_symmetry_cell_setting            triclinic
loop_
_symmetry_equiv_pos_as_xyz
'x, y, z'
_cell_length_a     19.636227
_cell_length_b     21.981606
_cell_length_c     57.159733
_cell_angle_alpha  92.723774
_cell_angle_beta   88.524954
_cell_angle_gamma 120.48749
loop_
_atom_site_label
_atom_site_type_symbol
_atom_site_fract_x
_atom_site_fract_y
_atom_site_fract_z
_atom_type_partial_charge
O0 O 0.13966 0.17308 0.07282 0.0
Cd1 Cd 0.04927 0.09716 0.09181 0.0
Cd2 Cd 0.13708 0.03889 0.08579 0.0
O3 O 0.22378 0.13477 0.07359 0.0
O4 O 0.99693 0.14626 0.10708 0.0
O5 O 0.05633 0.10274 0.12699 0.0
C6 C 0.02002 0.13793 0.12698 0.0
C7 C 0.15304 0.97797 0.11531 0.0
C8 C 0.20634 0.18008 0.06749 0.0
C9 C 0.98449 0.97373 0.05902 0.0
O10 O 0.05019 0.97696 0.06187 0.0
O11 O 0.96712 0.01414 0.07108 0.0
O12 O 0.1835 0.9812 0.0948 0.0
O13 O 0.11753 0.01336 0.11939 0.0
O14 O 0.01202 0.11427 0.43681 0.0
Cd15 Cd 0.09041 0.12936 0.41004 0.0
Cd16 Cd 0.01136 0.98929 0.41352 0.0
O17 O 0.92542 1.00102 0.43095 0.0
O18 O 0.12564 0.22684 0.40011 0.0
O19 O 0.0619 0.13232 0.3766 0.0
C20 C 0.09301 0.19978 0.38007 0.0
C21 C 0.9884 0.8947 0.38789 0.0
C22 C 0.94716 0.05961 0.44197 0.0
C23 C 0.17574 0.07741 0.4342 0.0
O24 O 0.10838 0.02148 0.43403 0.0
O25 O 0.18855 0.12848 0.42169 0.0
O26 O 0.96952 0.8855 0.40971 0.0
O27 O 0.01504 0.9572 0.38019 0.0
O28 O 0.96962 0.02827 0.72698 0.0
Cd29 Cd 0.03476 0.01251 0.75105 0.0
Cd30 Cd 0.12498 0.15605 0.75081 0.0
O31 O 0.02941 0.14424 0.73224 0.0
O32 O 0.96513 0.9179 0.76425 0.0
O33 O 0.0108 0.01865 0.78519 0.0
C34 C 0.96827 0.95051 0.7839 0.0
C35 C 0.1893 0.2465 0.77927 0.0
C36 C 0.97504 0.08686 0.72282 0.0
C37 C 0.19622 0.07009 0.73154 0.0
O38 O 0.20124 0.12995 0.73395 0.0
O39 O 0.13532 0.0148 0.73852 0.0
O40 O 0.19387 0.2596 0.75738 0.0
O41 O 0.14389 0.1819 0.78519 0.0
H42 H 0.99699 0.4196 0.09798 0.0
H43 H 0.14324 0.99508 0.28828 0.0
H44 H 0.90972 0.38381 0.22827 0.0
H45 H 0.89262 0.28091 0.20484 0.0
H46 H 0.14115 0.35452 0.21247 0.0
H47 H 0.15723 0.45653 0.23639 0.0
H48 H 0.94134 0.49981 0.19249 0.0
H49 H 0.94241 0.46241 0.1515 0.0
H50 H 0.18371 0.51133 0.15949 0.0
H51 H 0.18183 0.54895 0.2004 0.0
H52 H 0.96174 0.64249 0.21256 0.0
H53 H 0.98945 0.73459 0.18498 0.0
H54 H 0.23484 0.79149 0.18266 0.0
H55 H 0.20619 0.69837 0.20989 0.0
H56 H 0.93611 0.64711 0.26498 0.0
H57 H 0.93965 0.75724 0.27669 0.0
H58 H 0.19434 0.87086 0.27018 0.0
H59 H 0.18987 0.76008 0.25873 0.0
H60 H 0.91528 0.5364 0.29654 0.0
H61 H 0.89568 0.60582 0.32788 0.0
H62 H 0.14828 0.74461 0.33307 0.0
H63 H 0.16732 0.67525 0.30158 0.0
H64 H 0.93023 0.3851 0.27821 0.0
H65 H 0.94073 0.30699 0.30536 0.0
H66 H 0.18205 0.46864 0.32045 0.0
H67 H 0.17072 0.5465 0.29357 0.0
O68 O -0.00182 0.43554 0.11411 0.0
O69 O 0.12217 0.46152 0.11914 0.0
O70 O 0.00907 0.89 0.28643 0.0
O71 O 0.1401 0.95091 0.28342 0.0
C72 C 0.04806 0.4979 0.24179 0.0
C73 C 0.05903 0.54599 0.22445 0.0
C74 C 0.06653 0.61161 0.23094 0.0
C75 C 0.06025 0.62838 0.25465 0.0
C76 C 0.05146 0.58135 0.27216 0.0
C77 C 0.04738 0.51659 0.26579 0.0
C78 C 0.03461 0.42732 0.23406 0.0
C79 C 0.95968 0.376 0.22574 0.0
C80 C 0.95018 0.31768 0.21222 0.0
C81 C 0.01559 0.30989 0.20673 0.0
C82 C 0.08942 0.35846 0.21671 0.0
C83 C 0.09879 0.41677 0.23036 0.0
C84 C 0.06143 0.52688 0.19932 0.0
C85 C 0.99448 0.50284 0.18526 0.0
C86 C 0.99522 0.48132 0.1619 0.0
C87 C 0.06307 0.48364 0.15223 0.0
C88 C 0.13045 0.50872 0.16639 0.0
C89 C 0.12961 0.5303 0.18973 0.0
C90 C 0.08187 0.66361 0.213 0.0
C91 C 0.0212 0.6744 0.20585 0.0
C92 C 0.03726 0.72722 0.19029 0.0
C93 C 0.11423 0.76994 0.18162 0.0
C94 C 0.17475 0.75856 0.18874 0.0
C95 C 0.15858 0.70561 0.20427 0.0
C96 C 0.06274 0.69575 0.26116 0.0
C97 C 0.99255 0.69588 0.26612 0.0
C98 C 0.99477 0.75885 0.27275 0.0
C99 C 0.06733 0.82291 0.27436 0.0
C100 C 0.13751 0.82252 0.26911 0.0
C101 C 0.13518 0.75943 0.26254 0.0
C102 C 0.04271 0.60075 0.29678 0.0
C103 C 0.96652 0.57926 0.30537 0.0
C104 C 0.95539 0.61945 0.32314 0.0
C105 C 0.02047 0.68124 0.33261 0.0
C106 C 0.09711 0.69766 0.32585 0.0
C107 C 0.10816 0.65742 0.30816 0.0
C108 C 0.0497 0.47152 0.28393 0.0
C109 C 0.98511 0.40371 0.28751 0.0
C110 C 0.9915 0.35896 0.30283 0.0
C111 C 0.06272 0.38123 0.31474 0.0
C112 C 0.12645 0.44996 0.31155 0.0
C113 C 0.11999 0.49457 0.29628 0.0
C114 C 0.06326 0.45969 0.12752 0.0
C115 C 0.07007 0.88979 0.28173 0.0
H116 H 0.64867 0.04048 0.42983 0.0
H117 H 0.17537 0.16148 0.62866 0.0
H118 H 0.64645 0.97794 0.56635 0.0
H119 H 0.7287 0.96336 0.53632 0.0
H120 H 0.86453 0.19005 0.53021 0.0
H121 H 0.7859 0.20389 0.56129 0.0
H122 H 0.54374 0.99039 0.52737 0.0
H123 H 0.57392 0.98992 0.48557 0.0
H124 H 0.71694 0.21795 0.48963 0.0
H125 H 0.68461 0.21761 0.53132 0.0
H126 H 0.40088 0.99168 0.5451 0.0
H127 H 0.32287 0.98806 0.51188 0.0
H128 H 0.45729 0.21613 0.51085 0.0
H129 H 0.53743 0.21882 0.54365 0.0
H130 H 0.36892 0.98956 0.60371 0.0
H131 H 0.25039 0.98878 0.61846 0.0
H132 H 0.35914 0.21086 0.60476 0.0
H133 H 0.47769 0.21102 0.59029 0.0
H134 H 0.48767 0.98316 0.6329 0.0
H135 H 0.4146 0.97125 0.66928 0.0
H136 H 0.48676 0.1925 0.6687 0.0
H137 H 0.56495 0.20504 0.63351 0.0
H138 H 0.60566 0.98137 0.62018 0.0
H139 H 0.68768 0.97996 0.65147 0.0
H140 H 0.84452 0.205 0.646 0.0
H141 H 0.75919 0.20632 0.61575 0.0
O142 O 0.63632 0.04198 0.44628 0.0
O143 O 0.71332 0.15879 0.44968 0.0
O144 O 0.16892 0.04651 0.63002 0.0
O145 O 0.22095 0.16005 0.62256 0.0
C146 C 0.64237 0.09849 0.57446 0.0
C147 C 0.59417 0.10385 0.55771 0.0
C148 C 0.52635 0.1058 0.56486 0.0
C149 C 0.50569 0.10177 0.58869 0.0
C150 C 0.55459 0.09765 0.6056 0.0
C151 C 0.62309 0.09592 0.59846 0.0
C152 C 0.70999 0.09195 0.5658 0.0
C153 C 0.69696 0.02448 0.55946 0.0
C154 C 0.7425 0.01622 0.5418 0.0
C155 C 0.80051 0.07533 0.53005 0.0
C156 C 0.81984 0.14325 0.53869 0.0
C157 C 0.77549 0.15146 0.55668 0.0
C158 C 0.61252 0.10397 0.53231 0.0
C159 C 0.58141 0.04012 0.51915 0.0
C160 C 0.59884 0.04005 0.4953 0.0
C161 C 0.6484 0.10387 0.48429 0.0
C162 C 0.67892 0.16784 0.49759 0.0
C163 C 0.66062 0.16786 0.52137 0.0
C164 C 0.47368 0.10548 0.54684 0.0
C165 C 0.41281 0.04079 0.53782 0.0
C166 C 0.36881 0.03892 0.51881 0.0
C167 C 0.38456 0.10183 0.50865 0.0
C168 C 0.44503 0.16682 0.51801 0.0
C169 C 0.48973 0.16855 0.53693 0.0
C170 C 0.43179 0.10037 0.59599 0.0
C171 C 0.36683 0.03789 0.60383 0.0
C172 C 0.2993 0.03763 0.61228 0.0
C173 C 0.29544 0.09988 0.6129 0.0
C174 C 0.3602 0.16207 0.60457 0.0
C175 C 0.42782 0.16227 0.59618 0.0
C176 C 0.53202 0.09508 0.63063 0.0
C177 C 0.49146 0.02987 0.64137 0.0
C178 C 0.44811 0.02282 0.66185 0.0
C179 C 0.44264 0.08036 0.6714 0.0
C180 C 0.48957 0.14707 0.66181 0.0
C181 C 0.53444 0.15443 0.64169 0.0
C182 C 0.67574 0.09414 0.61611 0.0
C183 C 0.65718 0.0304 0.62599 0.0
C184 C 0.70443 0.02969 0.64371 0.0
C185 C 0.77178 0.09264 0.65158 0.0
C186 C 0.79164 0.15603 0.64094 0.0
C187 C 0.74364 0.1568 0.62346 0.0
C188 C 0.66813 0.1035 0.45907 0.0
C189 C 0.22449 0.10022 0.62233 0.0
H190 H 0.70134 0.71706 0.07812 0.0
H191 H 0.20716 0.13843 0.88542 0.0
H192 H 0.62721 0.75203 0.95257 0.0
H193 H 0.7155 0.83893 0.98169 0.0
H194 H 0.89394 0.7853 0.9629 0.0
H195 H 0.80173 0.69363 0.93518 0.0
H196 H 0.55364 0.65511 0.9858 0.0
H197 H 0.59903 0.68676 0.02641 0.0
H198 H 0.7562 0.60466 0.01397 0.0
H199 H 0.71104 0.57431 0.97327 0.0
H200 H 0.42838 0.53156 0.97376 0.0
H201 H 0.35407 0.45296 0.00534 0.0
H202 H 0.47267 0.3349 0.99076 0.0
H203 H 0.55033 0.41673 0.95993 0.0
H204 H 0.36469 0.48038 0.91611 0.0
H205 H 0.24962 0.36705 0.90395 0.0
H206 H 0.39403 0.27003 0.90287 0.0
H207 H 0.50863 0.38383 0.91485 0.0
H208 H 0.46371 0.59439 0.8817 0.0
H209 H 0.37471 0.52537 0.84917 0.0
H210 H 0.48716 0.40019 0.84203 0.0
H211 H 0.57597 0.46941 0.87441 0.0
H212 H 0.65181 0.76072 0.90449 0.0
H213 H 0.73961 0.84421 0.87581 0.0
H214 H 0.78159 0.68333 0.84437 0.0
H215 H 0.70044 0.60282 0.8746 0.0
O216 O 0.6838 0.70363 0.06205 0.0
O217 O 0.75527 0.65193 0.05574 0.0
O218 O 0.17958 0.23592 0.89151 0.0
O219 O 0.25129 0.18356 0.89062 0.0
C220 C 0.64356 0.64481 0.93433 0.0
C221 C 0.60328 0.59518 0.95182 0.0
C222 C 0.53922 0.5281 0.94581 0.0
C223 C 0.51523 0.50976 0.92235 0.0
C224 C 0.55665 0.55831 0.90461 0.0
C225 C 0.62184 0.62612 0.91048 0.0
C226 C 0.70764 0.7158 0.94211 0.0
C227 C 0.68659 0.76108 0.95405 0.0
C228 C 0.7371 0.81048 0.97087 0.0
C229 C 0.81034 0.81657 0.97545 0.0
C230 C 0.83611 0.77905 0.96067 0.0
C231 C 0.78449 0.72804 0.94433 0.0
C232 C 0.62946 0.61285 0.97664 0.0
C233 C 0.59786 0.64405 0.99191 0.0
C234 C 0.62397 0.66212 0.01507 0.0
C235 C 0.68141 0.6484 0.02342 0.0
C236 C 0.71195 0.616 0.0081 0.0
C237 C 0.68631 0.5986 0.98487 0.0
C238 C 0.49375 0.47905 0.96449 0.0
C239 C 0.43847 0.48888 0.97748 0.0
C240 C 0.39596 0.44384 0.99538 0.0
C241 C 0.40667 0.3871 0.00017 0.0
C242 C 0.46338 0.37824 0.98741 0.0
C243 C 0.50695 0.42421 0.9697 0.0
C244 C 0.44468 0.44004 0.91638 0.0
C245 C 0.37107 0.4344 0.91338 0.0
C246 C 0.30559 0.3697 0.9064 0.0
C247 C 0.31266 0.30946 0.90242 0.0
C248 C 0.3865 0.31531 0.90579 0.0
C249 C 0.45195 0.3801 0.91272 0.0
C250 C 0.52652 0.53711 0.88032 0.0
C251 C 0.47179 0.55451 0.87231 0.0
C252 C 0.42053 0.51463 0.85392 0.0
C253 C 0.42361 0.457 0.84341 0.0
C254 C 0.48331 0.44402 0.85004 0.0
C255 C 0.53476 0.48412 0.86826 0.0
C256 C 0.66952 0.6754 0.89179 0.0
C257 C 0.68054 0.74367 0.89155 0.0
C258 C 0.7298 0.79106 0.87483 0.0
C259 C 0.7671 0.77042 0.85747 0.0
C260 C 0.75455 0.70144 0.85754 0.0
C261 C 0.70707 0.65483 0.87463 0.0
C262 C 0.70923 0.66795 0.04801 0.0
C263 C 0.24366 0.24091 0.89456 0.0
C264 C 0.97608 0.21544 0.14716 0.0
C265 C 0.01101 0.17344 0.14863 0.0
C266 C 0.97536 0.25708 0.16634 0.0
C267 C 0.00932 0.25845 0.18787 0.0
H268 H 0.95134 0.21829 0.13081 0.0
H269 H 0.95085 0.29079 0.16394 0.0
S270 S 0.10132 0.15324 0.20187 0.0
N271 N 0.07569 0.13219 0.17406 0.0
N272 N 0.07366 0.21049 0.21018 0.0
C273 C 0.04154 0.21466 0.18998 0.0
C274 C 0.0423 0.172 0.17039 0.0
C275 C 0.95083 0.11177 0.48176 0.0
C276 C 0.90618 0.06254 0.46369 0.0
C277 C 0.91677 0.11371 0.50332 0.0
C278 C 0.83623 0.06717 0.50772 0.0
H279 H 0.01343 0.14842 0.47947 0.0
H280 H 0.9541 0.1521 0.51669 0.0
S281 S 0.6925 0.92977 0.46583 0.0
N282 N 0.77725 0.9663 0.45144 0.0
N283 N 0.71179 0.97141 0.49176 0.0
C284 C 0.79054 0.01772 0.48973 0.0
C285 C 0.82579 0.01513 0.46779 0.0
C286 C 0.93961 0.86569 0.81522 0.0
C287 C 0.92066 0.91037 0.8039 0.0
C288 C 0.89073 0.82214 0.8329 0.0
C289 C 0.82 0.82038 0.83951 0.0
H290 H 0.99233 0.8641 0.81026 0.0
H291 H 0.90838 0.78922 0.84135 0.0
S292 S 0.74268 0.92547 0.8137 0.0
N293 N 0.82734 0.95053 0.79996 0.0
N294 N 0.73289 0.8663 0.83231 0.0
C295 C 0.80066 0.86514 0.8281 0.0
C296 C 0.85152 0.91055 0.81047 0.0
C297 C 0.1141 0.92442 0.15461 0.0
C298 C 0.15223 0.93007 0.13293 0.0
C299 C 0.1035 0.87348 0.17042 0.0
C300 C 0.13085 0.82633 0.16525 0.0
H301 H 0.09031 0.95838 0.15922 0.0
H302 H 0.07286 0.87048 0.18675 0.0
S303 S 0.23657 0.81985 0.11134 0.0
N304 N 0.21985 0.88512 0.10755 0.0
N305 N 0.19891 0.78906 0.13722 0.0
C306 C 0.1711 0.83258 0.144 0.0
C307 C 0.18203 0.88449 0.12787 0.0
C308 C 0.20255 0.04831 0.47287 0.0
C309 C 0.23267 0.08557 0.4522 0.0
C310 C 0.25227 0.05504 0.49098 0.0
C311 C 0.33452 0.09864 0.48915 0.0
H312 H 0.13949 0.01434 0.47538 0.0
H313 H 0.2258 0.02606 0.50666 0.0
S314 S 0.44395 0.20596 0.43842 0.0
N315 N 0.34999 0.16763 0.43081 0.0
N316 N 0.4447 0.1787 0.46481 0.0
C317 C 0.36596 0.13638 0.46859 0.0
C318 C 0.31476 0.13017 0.45012 0.0
C319 C 0.25935 0.28317 0.81773 0.0
C320 C 0.2417 0.30236 0.79657 0.0
C321 C 0.31778 0.33381 0.83281 0.0
C322 C 0.36001 0.40567 0.82748 0.0
H323 H 0.23015 0.22827 0.8223 0.0
H324 H 0.33072 0.3165 0.84867 0.0
S325 S 0.33229 0.48465 0.77538 0.0
N326 N 0.26836 0.39923 0.77177 0.0
N327 N 0.37757 0.49429 0.80041 0.0
C328 C 0.34071 0.42619 0.80698 0.0
C329 C 0.28176 0.37455 0.79145 0.0
C330 C 0.88983 0.03653 0.68731 0.0
C331 C 0.92087 0.08836 0.70562 0.0
C332 C 0.84175 0.03834 0.67001 0.0
C333 C 0.82192 0.09158 0.67046 0.0
H334 H 0.90438 0.99508 0.68597 0.0
H335 H 0.82114 0.99835 0.65592 0.0
S336 S 0.88132 0.23544 0.71608 0.0
N337 N 0.92507 0.19228 0.72393 0.0
N338 N 0.83234 0.19437 0.69185 0.0
C339 C 0.85074 0.14262 0.68907 0.0
C340 C 0.9007 0.14131 0.70654 0.0
C341 C 0.89853 0.95625 0.02507 0.0
C342 C 0.93389 0.92964 0.03932 0.0
C343 C 0.86015 0.9202 0.00423 0.0
C344 C 0.85478 0.85571 0.99704 0.0
H345 H 0.90325 0.00671 0.02955 0.0
H346 H 0.83557 0.94368 0.99351 0.0
S347 S 0.93102 0.76048 0.0298 0.0
N348 N 0.95802 0.83383 0.04569 0.0
N349 N 0.88287 0.76413 0.00717 0.0
C350 C 0.88766 0.82745 0.01171 0.0
C351 C 0.92781 0.86482 0.03269 0.0
C352 C 0.03604 0.85493 0.35273 0.0
C353 C 0.98856 0.83759 0.37298 0.0
C354 C 0.04636 0.80405 0.34005 0.0
C355 C 0.00865 0.73349 0.34683 0.0
H356 H 0.06777 0.90877 0.34702 0.0
H357 H 0.08444 0.82018 0.3248 0.0
S358 S 0.87499 0.6595 0.39774 0.0
N359 N 0.90132 0.74387 0.39879 0.0
N360 N 0.9201 0.64822 0.3746 0.0
C361 C 0.95912 0.71477 0.36657 0.0
C362 C 0.94928 0.76679 0.37972 0.0
C363 C 0.33857 0.11855 0.72185 0.0
C364 C 0.25932 0.06499 0.7187 0.0
C365 C 0.39849 0.12059 0.70745 0.0
C366 C 0.38109 0.06992 0.68907 0.0
H367 H 0.35408 0.1602 0.73518 0.0
H368 H 0.45854 0.16362 0.71021 0.0
S369 S 0.18175 0.91987 0.67328 0.0
N370 N 0.16627 0.95961 0.69629 0.0
N371 N 0.27793 0.96486 0.6685 0.0
C372 C 0.302 0.01501 0.68616 0.0
C373 C 0.24133 0.01225 0.70114 0.0
C374 C 0.34025 0.26411 0.05118 0.0
C375 C 0.2579 0.2353 0.05117 0.0
C376 C 0.3885 0.31375 0.03475 0.0
C377 C 0.35573 0.3354 0.01765 0.0
H378 H 0.36749 0.24834 0.06398 0.0
H379 H 0.45181 0.33547 0.03546 0.0
S380 S 0.1427 0.26931 0.00845 0.0
N381 N 0.14538 0.22875 0.03166 0.0
N382 N 0.23568 0.32004 0.00055 0.0
C383 C 0.27338 0.30569 0.01716 0.0
C384 C 0.22457 0.25615 0.03398 0.0
C385 C 0.11193 0.31589 0.36862 0.0
C386 C 0.08768 0.24494 0.36244 0.0
C387 C 0.1037 0.35925 0.35311 0.0
C388 C 0.07087 0.33368 0.33072 0.0
H389 H 0.13647 0.33818 0.38578 0.0
H390 H 0.1221 0.41305 0.35889 0.0
S391 S 0.00322 0.15371 0.3051 0.0
N392 N 0.03234 0.15205 0.3318 0.0
N393 N 0.01795 0.23404 0.30255 0.0
C394 C 0.04771 0.26334 0.32406 0.0
C395 C 0.05597 0.21895 0.3399 0.0
loop_
_geom_bond_atom_site_label_1
_geom_bond_atom_site_label_2
_geom_bond_distance
_geom_bond_site_symmetry_2
_ccdc_geom_bond_type
O0 Cd1 2.223 . S
O0 C8 1.315 . S
Cd1 O0 2.223 . S
Cd1 O4 2.297 . S
Cd1 O5 2.439 . S
Cd1 O11 2.240 . S
Cd2 O3 2.240 . S
Cd2 O10 2.223 1_545 S
Cd2 O12 2.297 1_545 S
Cd2 O13 2.439 1_545 S
O3 Cd2 2.240 . S
O3 C8 1.279 . S
O4 Cd1 2.297 . S
O4 C6 1.247 . S
O5 Cd1 2.439 . S
O5 C6 1.208 . S
C6 O4 1.247 . S
C6 O5 1.208 . S
C7 O12 1.247 . S
C7 O13 1.208 . S
C8 O0 1.315 . S
C8 O3 1.279 . S
C9 O10 1.315 . S
C9 O11 1.279 1_565 S
O10 Cd2 2.223 1_565 S
O10 C9 1.315 . S
O11 Cd1 2.240 . S
O11 C9 1.279 1_545 S
O12 Cd2 2.297 1_565 S
O12 C7 1.247 . S
O13 Cd2 2.439 1_565 S
O13 C7 1.208 . S
O14 Cd15 2.223 . S
O14 C22 1.315 1_455 S
Cd15 O14 2.223 . S
Cd15 O18 2.297 . S
Cd15 O19 2.439 . S
Cd15 O25 2.240 . S
Cd16 O17 2.240 1_565 S
Cd16 O24 2.223 1_655 S
Cd16 O26 2.297 1_655 S
Cd16 O27 2.439 1_655 S
O17 Cd16 2.240 1_545 S
O17 C22 1.279 . S
O18 Cd15 2.297 . S
O18 C20 1.247 . S
O19 Cd15 2.439 . S
O19 C20 1.208 . S
C20 O18 1.247 . S
C20 O19 1.208 . S
C21 O26 1.247 . S
C21 O27 1.208 . S
C22 O14 1.315 1_655 S
C22 O17 1.279 . S
C23 O24 1.315 1_545 S
C23 O25 1.279 . S
O24 Cd16 2.223 1_455 S
O24 C23 1.315 1_565 S
O25 Cd15 2.240 . S
O25 C23 1.279 . S
O26 Cd16 2.297 1_455 S
O26 C21 1.247 . S
O27 Cd16 2.439 1_455 S
O27 C21 1.208 . S
O28 Cd29 2.223 1_545 S
O28 C36 1.315 . S
Cd29 O28 2.223 1_565 S
Cd29 O32 2.297 1_455 S
Cd29 O33 2.439 1_565 S
Cd29 O39 2.240 1_565 S
Cd30 O31 2.240 . S
Cd30 O38 2.223 . S
Cd30 O40 2.297 . S
Cd30 O41 2.439 . S
O31 Cd30 2.240 . S
O31 C36 1.279 . S
O32 Cd29 2.297 1_655 S
O32 C34 1.247 . S
O33 Cd29 2.439 1_545 S
O33 C34 1.208 1_445 S
C34 O32 1.247 . S
C34 O33 1.208 1_665 S
C35 O40 1.247 . S
C35 O41 1.208 . S
C36 O28 1.315 . S
C36 O31 1.279 . S
C37 O38 1.315 . S
C37 O39 1.279 . S
O38 Cd30 2.223 . S
O38 C37 1.315 . S
O39 Cd29 2.240 1_545 S
O39 C37 1.279 . S
O40 Cd30 2.297 . S
O40 C35 1.247 . S
O41 Cd30 2.439 . S
O41 C35 1.208 . S
H42 O68 0.856 . S
H43 O71 0.854 . S
H44 C79 0.930 . S
H45 C80 0.930 . S
H46 C82 0.930 . S
H47 C83 0.930 . S
H48 C85 0.931 1_655 S
H49 C86 0.930 1_655 S
H50 C88 0.930 . S
H51 C89 0.929 . S
H52 C91 0.930 1_655 S
H53 C92 0.931 1_655 S
H54 C94 0.930 . S
H55 C95 0.929 . S
H56 C97 0.931 . S
H57 C98 0.941 . S
H58 C100 0.930 . S
H59 C101 0.932 . S
H60 C103 0.930 . S
H61 C104 0.929 . S
H62 C106 0.931 . S
H63 C107 0.930 . S
H64 C109 0.929 . S
H65 C110 0.931 . S
H66 C112 0.930 . S
H67 C113 0.929 . S
O68 H42 0.856 . S
O68 C114 1.300 . S
O69 C114 1.209 . S
O70 C115 1.199 . S
O71 H43 0.854 . S
O71 C115 1.297 . S
C72 C73 1.404 . S
C72 C77 1.397 . S
C72 C78 1.492 . S
C73 C72 1.404 . S
C73 C74 1.396 . S
C73 C84 1.492 . S
C74 C73 1.396 . S
C74 C75 1.397 . S
C74 C90 1.509 . S
C75 C74 1.397 . S
C75 C76 1.412 . S
C75 C96 1.485 . S
C76 C75 1.412 . S
C76 C77 1.388 . S
C76 C102 1.490 . S
C77 C72 1.397 . S
C77 C76 1.388 . S
C77 C108 1.519 . S
C78 C72 1.492 . S
C78 C79 1.363 1_455 S
C78 C83 1.390 . S
C79 H44 0.930 . S
C79 C78 1.363 1_655 S
C79 C80 1.372 . S
C80 H45 0.930 . S
C80 C79 1.372 . S
C80 C81 1.383 1_655 S
C81 C80 1.383 1_455 S
C81 C82 1.395 . S
C82 H46 0.930 . S
C82 C81 1.395 . S
C82 C83 1.362 . S
C83 H47 0.930 . S
C83 C78 1.390 . S
C83 C82 1.362 . S
C84 C73 1.492 . S
C84 C85 1.377 . S
C84 C89 1.397 . S
C85 H48 0.931 1_455 S
C85 C84 1.377 . S
C85 C86 1.376 . S
C86 H49 0.930 1_455 S
C86 C85 1.376 . S
C86 C87 1.376 . S
C87 C86 1.376 . S
C87 C88 1.378 . S
C87 C114 1.486 . S
C88 H50 0.930 . S
C88 C87 1.378 . S
C88 C89 1.376 . S
C89 H51 0.929 . S
C89 C84 1.397 . S
C89 C88 1.376 . S
C90 C74 1.509 . S
C90 C91 1.391 . S
C90 C95 1.386 . S
C91 H52 0.930 1_455 S
C91 C90 1.391 . S
C91 C92 1.375 . S
C92 H53 0.931 1_455 S
C92 C91 1.375 . S
C92 C93 1.375 . S
C93 C92 1.375 . S
C93 C94 1.361 . S
C94 H54 0.930 . S
C94 C93 1.361 . S
C94 C95 1.399 . S
C95 H55 0.929 . S
C95 C90 1.386 . S
C95 C94 1.399 . S
C96 C75 1.485 . S
C96 C97 1.394 1_455 S
C96 C101 1.360 . S
C97 H56 0.931 . S
C97 C96 1.394 1_655 S
C97 C98 1.366 . S
C98 H57 0.941 . S
C98 C97 1.366 . S
C98 C99 1.391 1_655 S
C99 C98 1.391 1_455 S
C99 C100 1.390 . S
C99 C115 1.476 . S
C100 H58 0.930 . S
C100 C99 1.390 . S
C100 C101 1.366 . S
C101 H59 0.932 . S
C101 C96 1.360 . S
C101 C100 1.366 . S
C102 C76 1.490 . S
C102 C103 1.380 1_455 S
C102 C107 1.386 . S
C103 H60 0.930 . S
C103 C102 1.380 1_655 S
C103 C104 1.381 . S
C104 H61 0.929 . S
C104 C103 1.381 . S
C104 C105 1.371 1_655 S
C105 C104 1.371 1_455 S
C105 C106 1.380 . S
C106 H62 0.931 . S
C106 C105 1.380 . S
C106 C107 1.387 . S
C107 H63 0.930 . S
C107 C102 1.386 . S
C107 C106 1.387 . S
C108 C77 1.519 . S
C108 C109 1.377 1_455 S
C108 C113 1.361 . S
C109 H64 0.929 . S
C109 C108 1.377 1_655 S
C109 C110 1.386 . S
C110 H65 0.931 . S
C110 C109 1.386 . S
C110 C111 1.363 1_655 S
C111 C110 1.363 1_455 S
C111 C112 1.385 . S
C112 H66 0.930 . S
C112 C111 1.385 . S
C112 C113 1.396 . S
C113 H67 0.929 . S
C113 C108 1.361 . S
C113 C112 1.396 . S
C114 O68 1.300 . S
C114 O69 1.209 . S
C114 C87 1.486 . S
C115 O70 1.199 . S
C115 O71 1.297 . S
C115 C99 1.476 . S
H116 O142 0.856 . S
H117 O145 0.854 . S
H118 C153 0.930 1_565 S
H119 C154 0.930 . S
H120 C156 0.930 . S
H121 C157 0.930 . S
H122 C159 0.931 1_565 S
H123 C160 0.930 1_565 S
H124 C162 0.930 . S
H125 C163 0.929 . S
H126 C165 0.930 1_565 S
H127 C166 0.931 . S
H128 C168 0.930 . S
H129 C169 0.929 . S
H130 C171 0.931 . S
H131 C172 0.930 . S
H132 C174 0.930 . S
H133 C175 0.932 . S
H134 C177 0.930 1_565 S
H135 C178 0.929 1_565 S
H136 C180 0.931 . S
H137 C181 0.930 . S
H138 C183 0.929 1_565 S
H139 C184 0.931 . S
H140 C186 0.930 . S
H141 C187 0.929 . S
O142 H116 0.856 . S
O142 C188 1.300 . S
O143 C188 1.209 . S
O144 C189 1.199 . S
O145 H117 0.854 . S
O145 C189 1.297 . S
C146 C147 1.404 . S
C146 C151 1.397 . S
C146 C152 1.492 . S
C147 C146 1.404 . S
C147 C148 1.396 . S
C147 C158 1.492 . S
C148 C147 1.396 . S
C148 C149 1.397 . S
C148 C164 1.509 . S
C149 C148 1.397 . S
C149 C150 1.412 . S
C149 C170 1.485 . S
C150 C149 1.412 . S
C150 C151 1.388 . S
C150 C176 1.490 . S
C151 C146 1.397 . S
C151 C150 1.388 . S
C151 C182 1.519 . S
C152 C146 1.492 . S
C152 C153 1.363 . S
C152 C157 1.390 . S
C153 H118 0.930 1_545 S
C153 C152 1.363 . S
C153 C154 1.372 1_545 S
C154 H119 0.930 . S
C154 C153 1.372 1_565 S
C154 C155 1.383 1_565 S
C155 C154 1.383 1_545 S
C155 C156 1.395 . S
C156 H120 0.930 . S
C156 C155 1.395 . S
C156 C157 1.362 . S
C157 H121 0.930 . S
C157 C152 1.390 . S
C157 C156 1.362 . S
C158 C147 1.492 . S
C158 C159 1.377 . S
C158 C163 1.397 . S
C159 H122 0.931 1_545 S
C159 C158 1.377 . S
C159 C160 1.376 . S
C160 H123 0.930 1_545 S
C160 C159 1.376 . S
C160 C161 1.376 . S
C161 C160 1.376 . S
C161 C162 1.378 . S
C161 C188 1.486 . S
C162 H124 0.930 . S
C162 C161 1.378 . S
C162 C163 1.376 . S
C163 H125 0.929 . S
C163 C158 1.397 . S
C163 C162 1.376 . S
C164 C148 1.509 . S
C164 C165 1.391 . S
C164 C169 1.386 . S
C165 H126 0.930 1_545 S
C165 C164 1.391 . S
C165 C166 1.375 . S
C166 H127 0.931 . S
C166 C165 1.375 . S
C166 C167 1.375 . S
C167 C166 1.375 . S
C167 C168 1.361 . S
C168 H128 0.930 . S
C168 C167 1.361 . S
C168 C169 1.399 . S
C169 H129 0.929 . S
C169 C164 1.386 . S
C169 C168 1.399 . S
C170 C149 1.485 . S
C170 C171 1.394 . S
C170 C175 1.360 . S
C171 H130 0.931 . S
C171 C170 1.394 . S
C171 C172 1.372 . S
C172 H131 0.930 . S
C172 C171 1.372 . S
C172 C173 1.397 . S
C173 C172 1.397 . S
C173 C174 1.390 . S
C173 C189 1.476 . S
C174 H132 0.930 . S
C174 C173 1.390 . S
C174 C175 1.366 . S
C175 H133 0.932 . S
C175 C170 1.360 . S
C175 C174 1.366 . S
C176 C150 1.490 . S
C176 C177 1.380 . S
C176 C181 1.386 . S
C177 H134 0.930 1_545 S
C177 C176 1.380 . S
C177 C178 1.381 . S
C178 H135 0.929 1_545 S
C178 C177 1.381 . S
C178 C179 1.371 . S
C179 C178 1.371 . S
C179 C180 1.380 . S
C180 H136 0.931 . S
C180 C179 1.380 . S
C180 C181 1.387 . S
C181 H137 0.930 . S
C181 C176 1.386 . S
C181 C180 1.387 . S
C182 C151 1.519 . S
C182 C183 1.377 . S
C182 C187 1.361 . S
C183 H138 0.929 1_545 S
C183 C182 1.377 . S
C183 C184 1.386 . S
C184 H139 0.931 . S
C184 C183 1.386 . S
C184 C185 1.363 . S
C185 C184 1.363 . S
C185 C186 1.385 . S
C186 H140 0.930 . S
C186 C185 1.385 . S
C186 C187 1.396 . S
C187 H141 0.929 . S
C187 C182 1.361 . S
C187 C186 1.396 . S
C188 O142 1.300 . S
C188 O143 1.209 . S
C188 C161 1.486 . S
C189 O144 1.199 . S
C189 O145 1.297 . S
C189 C173 1.476 . S
H190 O216 0.856 . S
H191 O219 0.854 . S
H192 C227 0.930 . S
H193 C228 0.930 . S
H194 C230 0.930 . S
H195 C231 0.930 . S
H196 C233 0.931 1_556 S
H197 C234 0.930 . S
H198 C236 0.930 . S
H199 C237 0.929 . S
H200 C239 0.930 . S
H201 C240 0.931 . S
H202 C242 0.930 1_554 S
H203 C243 0.929 . S
H204 C245 0.931 . S
H205 C246 0.930 . S
H206 C248 0.930 . S
H207 C249 0.932 . S
H208 C251 0.930 . S
H209 C252 0.929 . S
H210 C254 0.931 . S
H211 C255 0.930 . S
H212 C257 0.929 . S
H213 C258 0.931 . S
H214 C260 0.930 . S
H215 C261 0.929 . S
O216 H190 0.856 . S
O216 C262 1.300 . S
O217 C262 1.209 . S
O218 C263 1.199 . S
O219 H191 0.854 . S
O219 C263 1.297 . S
C220 C221 1.404 . S
C220 C225 1.397 . S
C220 C226 1.492 . S
C221 C220 1.404 . S
C221 C222 1.396 . S
C221 C232 1.492 . S
C222 C221 1.396 . S
C222 C223 1.397 . S
C222 C238 1.509 . S
C223 C222 1.397 . S
C223 C224 1.412 . S
C223 C244 1.485 . S
C224 C223 1.412 . S
C224 C225 1.388 . S
C224 C250 1.490 . S
C225 C220 1.397 . S
C225 C224 1.388 . S
C225 C256 1.519 . S
C226 C220 1.492 . S
C226 C227 1.363 . S
C226 C231 1.390 . S
C227 H192 0.930 . S
C227 C226 1.363 . S
C227 C228 1.372 . S
C228 H193 0.930 . S
C228 C227 1.372 . S
C228 C229 1.383 . S
C229 C228 1.383 . S
C229 C230 1.395 . S
C230 H194 0.930 . S
C230 C229 1.395 . S
C230 C231 1.362 . S
C231 H195 0.930 . S
C231 C226 1.390 . S
C231 C230 1.362 . S
C232 C221 1.492 . S
C232 C233 1.377 1_556 S
C232 C237 1.397 . S
C233 H196 0.931 1_554 S
C233 C232 1.377 1_554 S
C233 C234 1.376 . S
C234 H197 0.930 . S
C234 C233 1.376 . S
C234 C235 1.376 . S
C235 C234 1.376 . S
C235 C236 1.378 . S
C235 C262 1.486 . S
C236 H198 0.930 . S
C236 C235 1.378 . S
C236 C237 1.376 1_554 S
C237 H199 0.929 . S
C237 C232 1.397 . S
C237 C236 1.376 1_556 S
C238 C222 1.509 . S
C238 C239 1.391 . S
C238 C243 1.386 . S
C239 H200 0.930 . S
C239 C238 1.391 . S
C239 C240 1.375 . S
C240 H201 0.931 . S
C240 C239 1.375 . S
C240 C241 1.375 1_556 S
C241 C240 1.375 1_554 S
C241 C242 1.361 1_554 S
C242 H202 0.930 1_556 S
C242 C241 1.361 1_556 S
C242 C243 1.399 . S
C243 H203 0.929 . S
C243 C238 1.386 . S
C243 C242 1.399 . S
C244 C223 1.485 . S
C244 C245 1.394 . S
C244 C249 1.360 . S
C245 H204 0.931 . S
C245 C244 1.394 . S
C245 C246 1.372 . S
C246 H205 0.930 . S
C246 C245 1.372 . S
C246 C247 1.397 . S
C247 C246 1.397 . S
C247 C248 1.390 . S
C247 C263 1.476 . S
C248 H206 0.930 . S
C248 C247 1.390 . S
C248 C249 1.366 . S
C249 H207 0.932 . S
C249 C244 1.360 . S
C249 C248 1.366 . S
C250 C224 1.490 . S
C250 C251 1.380 . S
C250 C255 1.386 . S
C251 H208 0.930 . S
C251 C250 1.380 . S
C251 C252 1.381 . S
C252 H209 0.929 . S
C252 C251 1.381 . S
C252 C253 1.371 . S
C253 C252 1.371 . S
C253 C254 1.380 . S
C254 H210 0.931 . S
C254 C253 1.380 . S
C254 C255 1.387 . S
C255 H211 0.930 . S
C255 C250 1.386 . S
C255 C254 1.387 . S
C256 C225 1.519 . S
C256 C257 1.377 . S
C256 C261 1.361 . S
C257 H212 0.929 . S
C257 C256 1.377 . S
C257 C258 1.386 . S
C258 H213 0.931 . S
C258 C257 1.386 . S
C258 C259 1.363 . S
C259 C258 1.363 . S
C259 C260 1.385 . S
C260 H214 0.930 . S
C260 C259 1.385 . S
C260 C261 1.396 . S
C261 H215 0.929 . S
C261 C256 1.361 . S
C261 C260 1.396 . S
C262 O216 1.300 . S
C262 O217 1.209 . S
C262 C235 1.486 . S
C263 O218 1.199 . S
C263 O219 1.297 . S
C263 C247 1.476 . S
C264 C265 1.369 . S
C264 C266 1.419 . S
C264 H268 0.930 . S
C265 C264 1.369 . S
C265 C274 1.429 . S
C266 C264 1.419 . S
C266 C267 1.363 . S
C266 H269 0.929 . S
C267 C266 1.363 . S
C267 C273 1.428 . S
H268 C264 0.930 . S
H269 C266 0.929 . S
S270 N271 1.613 . S
S270 N272 1.610 . S
N271 S270 1.613 . S
N271 C274 1.350 . S
N272 S270 1.610 . S
N272 C273 1.351 . S
C273 C267 1.428 . S
C273 N272 1.351 . S
C273 C274 1.434 . S
C274 C265 1.429 . S
C274 N271 1.350 . S
C274 C273 1.434 . S
C275 C276 1.369 . S
C275 C277 1.419 . S
C275 H279 0.930 1_655 S
C276 C275 1.369 . S
C276 C285 1.429 . S
C277 C275 1.419 . S
C277 C278 1.363 . S
C277 H280 0.929 . S
C278 C277 1.363 . S
C278 C284 1.428 . S
H279 C275 0.930 1_455 S
H280 C277 0.929 . S
S281 N282 1.613 . S
S281 N283 1.610 . S
N282 S281 1.613 . S
N282 C285 1.350 . S
N283 S281 1.610 . S
N283 C284 1.351 . S
C284 C278 1.428 . S
C284 N283 1.351 . S
C284 C285 1.434 . S
C285 C276 1.429 . S
C285 N282 1.350 . S
C285 C284 1.434 . S
C286 C287 1.369 . S
C286 C288 1.419 . S
C286 H290 0.930 . S
C287 C286 1.369 . S
C287 C296 1.429 . S
C288 C286 1.419 . S
C288 C289 1.363 . S
C288 H291 0.929 . S
C289 C288 1.363 . S
C289 C295 1.428 . S
H290 C286 0.930 . S
H291 C288 0.929 . S
S292 N293 1.613 . S
S292 N294 1.610 . S
N293 S292 1.613 . S
N293 C296 1.350 . S
N294 S292 1.610 . S
N294 C295 1.351 . S
C295 C289 1.428 . S
C295 N294 1.351 . S
C295 C296 1.434 . S
C296 C287 1.429 . S
C296 N293 1.350 . S
C296 C295 1.434 . S
C297 C298 1.369 . S
C297 C299 1.419 . S
C297 H301 0.930 1_455 S
C298 C297 1.369 . S
C298 C307 1.429 . S
C299 C297 1.419 . S
C299 C300 1.363 . S
C299 H302 0.929 1_455 S
C300 C299 1.363 . S
C300 C306 1.428 . S
H301 C297 0.930 1_655 S
H302 C299 0.929 1_655 S
S303 N304 1.613 . S
S303 N305 1.610 . S
N304 S303 1.613 . S
N304 C307 1.350 . S
N305 S303 1.610 . S
N305 C306 1.351 . S
C306 C300 1.428 . S
C306 N305 1.351 . S
C306 C307 1.434 . S
C307 C298 1.429 . S
C307 N304 1.350 . S
C307 C306 1.434 . S
C308 C309 1.369 . S
C308 C310 1.419 . S
C308 H312 0.930 . S
C309 C308 1.369 . S
C309 C318 1.429 . S
C310 C308 1.419 . S
C310 C311 1.363 . S
C310 H313 0.929 . S
C311 C310 1.363 . S
C311 C317 1.428 . S
H312 C308 0.930 . S
H313 C310 0.929 . S
S314 N315 1.613 . S
S314 N316 1.610 . S
N315 S314 1.613 . S
N315 C318 1.350 . S
N316 S314 1.610 . S
N316 C317 1.351 . S
C317 C311 1.428 . S
C317 N316 1.351 . S
C317 C318 1.434 . S
C318 C309 1.429 . S
C318 N315 1.350 . S
C318 C317 1.434 . S
C319 C320 1.369 . S
C319 C321 1.419 . S
C319 H323 0.930 . S
C320 C319 1.369 . S
C320 C329 1.429 . S
C321 C319 1.419 . S
C321 C322 1.363 . S
C321 H324 0.929 . S
C322 C321 1.363 . S
C322 C328 1.428 . S
H323 C319 0.930 . S
H324 C321 0.929 . S
S325 N326 1.613 . S
S325 N327 1.610 . S
N326 S325 1.613 . S
N326 C329 1.350 . S
N327 S325 1.610 . S
N327 C328 1.351 . S
C328 C322 1.428 . S
C328 N327 1.351 . S
C328 C329 1.434 . S
C329 C320 1.429 . S
C329 N326 1.350 . S
C329 C328 1.434 . S
C330 C331 1.369 . S
C330 C332 1.419 . S
C330 H334 0.930 1_655 S
C331 C330 1.369 . S
C331 C340 1.429 . S
C332 C330 1.419 . S
C332 C333 1.363 . S
C332 H335 0.929 . S
C333 C332 1.363 . S
C333 C339 1.428 . S
H334 C330 0.930 1_455 S
H335 C332 0.929 . S
S336 N337 1.613 . S
S336 N338 1.610 . S
N337 S336 1.613 . S
N337 C340 1.350 . S
N338 S336 1.610 . S
N338 C339 1.351 . S
C339 C333 1.428 . S
C339 N338 1.351 . S
C339 C340 1.434 . S
C340 C331 1.429 . S
C340 N337 1.350 . S
C340 C339 1.434 . S
C341 C342 1.369 . S
C341 C343 1.419 1_554 S
C341 H345 0.930 1_565 S
C342 C341 1.369 . S
C342 C351 1.429 . S
C343 C341 1.419 1_556 S
C343 C344 1.363 . S
C343 H346 0.929 . S
C344 C343 1.363 . S
C344 C350 1.428 . S
H345 C341 0.930 1_545 S
H346 C343 0.929 . S
S347 N348 1.613 . S
S347 N349 1.610 1_554 S
N348 S347 1.613 . S
N348 C351 1.350 . S
N349 S347 1.610 1_556 S
N349 C350 1.351 . S
C350 C344 1.428 . S
C350 N349 1.351 . S
C350 C351 1.434 1_556 S
C351 C342 1.429 . S
C351 N348 1.350 . S
C351 C350 1.434 1_554 S
C352 C353 1.369 . S
C352 C354 1.419 . S
C352 H356 0.930 . S
C353 C352 1.369 . S
C353 C362 1.429 . S
C354 C352 1.419 . S
C354 C355 1.363 . S
C354 H357 0.929 . S
C355 C354 1.363 . S
C355 C361 1.428 1_455 S
H356 C352 0.930 . S
H357 C354 0.929 . S
S358 N359 1.613 . S
S358 N360 1.610 . S
N359 S358 1.613 . S
N359 C362 1.350 1_655 S
N360 S358 1.610 . S
N360 C361 1.351 . S
C361 C355 1.428 1_655 S
C361 N360 1.351 . S
C361 C362 1.434 1_655 S
C362 C353 1.429 . S
C362 N359 1.350 1_455 S
C362 C361 1.434 1_455 S
C363 C364 1.369 . S
C363 C365 1.419 . S
C363 H367 0.930 . S
C364 C363 1.369 . S
C364 C373 1.429 . S
C365 C363 1.419 . S
C365 C366 1.363 . S
C365 H368 0.929 . S
C366 C365 1.363 . S
C366 C372 1.428 . S
H367 C363 0.930 . S
H368 C365 0.929 . S
S369 N370 1.613 . S
S369 N371 1.610 . S
N370 S369 1.613 . S
N370 C373 1.350 . S
N371 S369 1.610 . S
N371 C372 1.351 . S
C372 C366 1.428 . S
C372 N371 1.351 . S
C372 C373 1.434 . S
C373 C364 1.429 . S
C373 N370 1.350 . S
C373 C372 1.434 . S
C374 C375 1.369 . S
C374 C376 1.419 . S
C374 H378 0.930 . S
C375 C374 1.369 . S
C375 C384 1.429 . S
C376 C374 1.419 . S
C376 C377 1.363 . S
C376 H379 0.929 . S
C377 C376 1.363 . S
C377 C383 1.428 . S
H378 C374 0.930 . S
H379 C376 0.929 . S
S380 N381 1.613 . S
S380 N382 1.610 . S
N381 S380 1.613 . S
N381 C384 1.350 . S
N382 S380 1.610 . S
N382 C383 1.351 . S
C383 C377 1.428 . S
C383 N382 1.351 . S
C383 C384 1.434 . S
C384 C375 1.429 . S
C384 N381 1.350 . S
C384 C383 1.434 . S
C385 C386 1.369 . S
C385 C387 1.419 . S
C385 H389 0.930 . S
C386 C385 1.369 . S
C386 C395 1.429 . S
C387 C385 1.419 . S
C387 C388 1.363 . S
C387 H390 0.929 . S
C388 C387 1.363 . S
C388 C394 1.428 . S
H389 C385 0.930 . S
H390 C387 0.929 . S
S391 N392 1.613 . S
S391 N393 1.610 . S
N392 S391 1.613 . S
N392 C395 1.350 . S
N393 S391 1.610 . S
N393 C394 1.351 . S
C394 C388 1.428 . S
C394 N393 1.351 . S
C394 C395 1.434 . S
C395 C386 1.429 . S
C395 N392 1.350 . S
C395 C394 1.434 . S
C267 C81 1.510 . S
C265 C6 1.638 . S
C276 C22 1.677 . S
C278 C155 1.525 . S
C287 C34 1.868 . S
C289 C259 1.888 . S
C298 C7 0.932 . S
C300 C93 0.945 . S
C311 C167 1.070 . S
C309 C23 1.087 . S
C320 C35 1.442 . S
C322 C253 1.377 . S
C333 C185 2.090 . S
C331 C36 2.099 1_655 S
C342 C9 1.859 1_655 S
C344 C229 1.711 . S
C355 C105 1.579 . S
C353 C21 1.683 . S
C366 C179 1.588 . S
C364 C37 1.758 . S
C377 C241 1.182 . S
C375 C8 1.179 . S
C386 C20 2.091 . S
C388 C111 2.123 . S
