# Generated by pormake.
# Topology anh, (6,3)-cn, num edge types: 1
# Building blocks:
#     Node 0, Type 0, BuildingBlock: BETDEL_clean_sbu_0, # of connection points: 6
#     Node 1, Type 0, BuildingBlock: BETDEL_clean_sbu_0, # of connection points: 6
#     Node 2, Type 0, BuildingBlock: BETDEL_clean_sbu_0, # of connection points: 6
#     Node 3, Type 1, BuildingBlock: MIDCAF_clean_linker_0, # of connection points: 3
#     Node 4, Type 1, BuildingBlock: MIDCAF_clean_linker_0, # of connection points: 3
#     Node 5, Type 1, BuildingBlock: MIDCAF_clean_linker_0, # of connection points: 3
#     Node 6, Type 1, BuildingBlock: MIDCAF_clean_linker_0, # of connection points: 3
#     Node 7, Type 1, BuildingBlock: MIDCAF_clean_linker_0, # of connection points: 3
#     Node 8, Type 1, BuildingBlock: MIDCAF_clean_linker_0, # of connection points: 3
#     Edge 9, Type (0, 1), BuildingBlock: ZUJKAS_clean_linker_0, # of connection points: 2
#     Edge 10, Type (0, 1), BuildingBlock: ZUJKAS_clean_linker_0, # of connection points: 2
#     Edge 11, Type (0, 1), BuildingBlock: ZUJKAS_clean_linker_0, # of connection points: 2
#     Edge 12, Type (0, 1), BuildingBlock: ZUJKAS_clean_linker_0, # of connection points: 2
#     Edge 13, Type (0, 1), BuildingBlock: ZUJKAS_clean_linker_0, # of connection points: 2
#     Edge 14, Type (0, 1), BuildingBlock: ZUJKAS_clean_linker_0, # of connection points: 2
#     Edge 15, Type (0, 1), BuildingBlock: ZUJKAS_clean_linker_0, # of connection points: 2
#     Edge 16, Type (0, 1), BuildingBlock: ZUJKAS_clean_linker_0, # of connection points: 2
#     Edge 17, Type (0, 1), BuildingBlock: ZUJKAS_clean_linker_0, # of connection points: 2
#     Edge 18, Type (0, 1), BuildingBlock: ZUJKAS_clean_linker_0, # of connection points: 2
#     Edge 19, Type (0, 1), BuildingBlock: ZUJKAS_clean_linker_0, # of connection points: 2
#     Edge 20, Type (0, 1), BuildingBlock: ZUJKAS_clean_linker_0, # of connection points: 2
#     Edge 21, Type (0, 1), BuildingBlock: ZUJKAS_clean_linker_0, # of connection points: 2
#     Edge 22, Type (0, 1), BuildingBlock: ZUJKAS_clean_linker_0, # of connection points: 2
#     Edge 23, Type (0, 1), BuildingBlock: ZUJKAS_clean_linker_0, # of connection points: 2
#     Edge 24, Type (0, 1), BuildingBlock: ZUJKAS_clean_linker_0, # of connection points: 2
#     Edge 25, Type (0, 1), BuildingBlock: ZUJKAS_clean_linker_0, # of connection points: 2
#     Edge 26, Type (0, 1), BuildingBlock: ZUJKAS_clean_linker_0, # of connection points: 2
# Relax obj value: 0.137
# Max RMSD: 0.165
# Mean RMSD: 0.131
data_MOF--net-anh--node1-BETDEL_clean_sbu_0--node2-MIDCAF_clean_linker_0--edge1-ZUJKAS_clean_linker_0
_symmetry_space_group_name_H-M    P1
_symmetry_Int_Tables_number       1
_symmetry_cell_setting            triclinic
loop_
_symmetry_equiv_pos_as_xyz
'x, y, z'
_cell_length_a     44.326926
_cell_length_b     44.378813
_cell_length_c     80.343733
_cell_angle_alpha  90.029663
_cell_angle_beta   90.044198
_cell_angle_gamma 120.02179
loop_
_atom_site_label
_atom_site_type_symbol
_atom_site_fract_x
_atom_site_fract_y
_atom_site_fract_z
_atom_type_partial_charge
Dy0 Dy 0.05194 0.49658 0.16381 0.0
C1 C 0.96594 0.55575 0.18416 0.0
C2 C 0.09943 0.47705 0.15595 0.0
Dy3 Dy 1.00747 0.53476 0.16924 0.0
O4 O 0.09482 0.48617 0.17065 0.0
O5 O 0.07776 0.47826 0.1454 0.0
O6 O 0.0324 0.47095 0.18861 0.0
O7 O 0.03947 0.52082 0.18421 0.0
C8 C 0.02846 0.49609 0.19445 0.0
C9 C 0.01641 0.52726 0.13658 0.0
O10 O 0.06154 0.57987 0.1728 0.0
O11 O 0.09251 0.55372 0.16273 0.0
O12 O 0.98703 0.57175 0.17184 0.0
O13 O 0.96798 0.52858 0.18843 0.0
O14 O 0.9996 0.54236 0.14198 0.0
O15 O 0.02644 0.51749 0.149 0.0
O16 O 0.99836 0.4523 0.15815 0.0
O17 O 0.96741 0.47754 0.16932 0.0
C18 C 0.09103 0.58145 0.16798 0.0
C19 C 0.96885 0.45032 0.16328 0.0
Dy20 Dy 0.49686 0.03742 0.49704 0.0
C21 C 0.64292 0.12463 0.509 0.0
C22 C 0.42907 0.99158 0.48924 0.0
Dy23 Dy 0.57578 0.07888 0.49999 0.0
O24 O 0.44089 1.00275 0.50408 0.0
O25 O 0.4543 0.00575 0.4785 0.0
O26 O 0.49225 0.05755 0.52186 0.0
O27 O 0.53388 0.04858 0.51725 0.0
C28 C 0.52102 0.06048 0.52755 0.0
C29 C 0.5518 0.05607 0.46932 0.0
O30 O 0.56873 0.02645 0.50587 0.0
O31 O 0.51144 0.99527 0.49664 0.0
O32 O 0.63259 0.11278 0.49407 0.0
O33 O 0.61656 0.11122 0.5191 0.0
O34 O 0.58056 0.05913 0.47513 0.0
O35 O 0.53878 0.06785 0.47963 0.0
O36 O 0.50354 0.09001 0.49195 0.0
O37 O 0.56121 0.12096 0.5007 0.0
C38 C 0.54063 0.99662 0.50178 0.0
C39 C 0.53177 0.11969 0.49613 0.0
Dy40 Dy 0.58887 0.58871 0.83126 0.0
C41 C 0.52789 0.44384 0.85141 0.0
C42 C 0.61001 0.65645 0.82439 0.0
Dy43 Dy 0.5496 0.50631 0.83643 0.0
O44 O 0.60425 0.64282 0.83913 0.0
O45 O 0.60444 0.63303 0.81317 0.0
O46 O 0.61516 0.59379 0.85578 0.0
O47 O 0.56441 0.55204 0.85167 0.0
C48 C 0.58957 0.56521 0.86175 0.0
C49 C 0.55678 0.52271 0.8038 0.0
O50 O 0.50491 0.51586 0.84012 0.0
O51 O 0.53202 0.57361 0.83092 0.0
O52 O 0.5121 0.44901 0.83902 0.0
O53 O 0.55529 0.47291 0.8557 0.0
O54 O 0.54135 0.49081 0.80919 0.0
O55 O 0.56704 0.54258 0.81621 0.0
O56 O 0.63218 0.57856 0.82478 0.0
O57 O 0.60669 0.52262 0.83617 0.0
C58 C 0.50393 0.54432 0.83582 0.0
C59 C 0.63394 0.55094 0.82988 0.0
C60 C 0.43456 0.8961 0.20563 0.0
C61 C 0.41831 0.89904 0.1912 0.0
C62 C 0.43271 0.93171 0.18329 0.0
C63 C 0.46234 0.96091 0.18993 0.0
H64 H 0.57213 0.06078 0.18126 0.0
H65 H 0.6258 0.109 0.16937 0.0
H66 H 0.67103 0.13585 0.21853 0.0
H67 H 0.61859 0.08847 0.23025 0.0
H68 H 0.57722 0.06001 0.26166 0.0
H69 H 0.57242 0.0612 0.29183 0.0
H70 H 0.46558 0.97778 0.28911 0.0
H71 H 0.47015 0.97649 0.25888 0.0
H72 H 0.47456 0.92216 0.22386 0.0
H73 H 0.42401 0.8715 0.21213 0.0
H74 H 0.4208 0.93473 0.17212 0.0
H75 H 0.47237 0.98594 0.1839 0.0
N76 N 0.53304 0.01518 0.20563 0.0
N77 N 0.55513 0.04265 0.23141 0.0
N78 N 0.5024 0.99022 0.23046 0.0
C79 C 0.55853 0.04216 0.21461 0.0
C80 C 0.52717 0.01706 0.23943 0.0
C81 C 0.50496 0.98894 0.21366 0.0
C82 C 0.59078 0.07057 0.20674 0.0
C83 C 0.59364 0.07691 0.18947 0.0
C84 C 0.62431 0.10462 0.18268 0.0
C85 C 0.65289 0.12616 0.19298 0.0
C86 C 0.6499 0.11954 0.21016 0.0
C87 C 0.61945 0.09234 0.21691 0.0
C88 C 0.5241 0.01809 0.25779 0.0
C89 C 0.55263 0.04194 0.26744 0.0
C90 C 0.54998 0.04252 0.28476 0.0
C91 C 0.51866 0.01953 0.29283 0.0
C92 C 0.48997 0.99599 0.28322 0.0
C93 C 0.49271 0.99514 0.2659 0.0
C94 C 0.47745 0.95802 0.20478 0.0
C95 C 0.46349 0.92521 0.21239 0.0
C96 C 0.51047 0.43521 0.54128 0.0
C97 C 0.5252 0.43668 0.52562 0.0
C98 C 0.54129 0.46861 0.51699 0.0
C99 C 0.54272 0.49842 0.52398 0.0
H100 H 0.5614 0.6143 0.51854 0.0
H101 H 0.56189 0.66614 0.50716 0.0
H102 H 0.50113 0.66632 0.54907 0.0
H103 H 0.50106 0.61551 0.5604 0.0
H104 H 0.54194 0.60782 0.59515 0.0
H105 H 0.54681 0.60974 0.62537 0.0
H106 H 0.54657 0.51229 0.62487 0.0
H107 H 0.54103 0.50991 0.59471 0.0
H108 H 0.50135 0.46275 0.56059 0.0
H109 H 0.49821 0.41121 0.54833 0.0
H110 H 0.55279 0.47051 0.50487 0.0
H111 H 0.55562 0.52275 0.5172 0.0
N112 N 0.53234 0.55505 0.54005 0.0
N113 N 0.5365 0.58306 0.56555 0.0
N114 N 0.53545 0.52997 0.56535 0.0
C115 C 0.53385 0.58235 0.54869 0.0
C116 C 0.53767 0.55724 0.57398 0.0
C117 C 0.53275 0.52846 0.54847 0.0
C118 C 0.53129 0.61089 0.54038 0.0
C119 C 0.54777 0.62522 0.52513 0.0
C120 C 0.54826 0.65498 0.5187 0.0
C121 C 0.53151 0.67032 0.52722 0.0
C122 C 0.51399 0.65504 0.54211 0.0
C123 C 0.51412 0.62597 0.54865 0.0
C124 C 0.54097 0.55864 0.59241 0.0
C125 C 0.54291 0.58675 0.60144 0.0
C126 C 0.54594 0.588 0.6188 0.0
C127 C 0.54705 0.56116 0.62756 0.0
C128 C 0.54529 0.53316 0.61854 0.0
C129 C 0.54229 0.53191 0.6012 0.0
C130 C 0.52884 0.49697 0.53989 0.0
C131 C 0.51249 0.46491 0.54834 0.0
C132 C 0.96518 0.56437 0.87658 0.0
C133 C 0.95854 0.56007 0.85941 0.0
C134 C 0.98005 0.55264 0.84933 0.0
C135 C 1.00778 0.54995 0.85635 0.0
H136 H 0.10024 0.52321 0.85125 0.0
H137 H 0.15178 0.5233 0.83968 0.0
H138 H 0.21356 0.58654 0.8809 0.0
H139 H 0.16259 0.58602 0.89243 0.0
H140 H 0.11438 0.54087 0.9276 0.0
H141 H 0.11218 0.53583 0.95785 0.0
H142 H 0.01382 0.53393 0.95808 0.0
H143 H 0.01615 0.53956 0.92795 0.0
H144 H 0.99624 0.56488 0.89688 0.0
H145 H 0.94889 0.56952 0.88478 0.0
H146 H 0.97563 0.54922 0.83603 0.0
H147 H 0.02389 0.54424 0.84832 0.0
N148 N 0.06987 0.55236 0.87305 0.0
N149 N 0.09445 0.54731 0.89818 0.0
N150 N 0.04149 0.54658 0.89856 0.0
C151 C 0.09613 0.55099 0.88136 0.0
C152 C 0.06711 0.54476 0.90687 0.0
C153 C 0.04245 0.55047 0.88175 0.0
C154 C 0.12738 0.55455 0.87274 0.0
C155 C 0.12502 0.53759 0.85761 0.0
C156 C 0.15442 0.53742 0.85109 0.0
C157 C 0.18678 0.55494 0.85939 0.0
C158 C 0.18921 0.57308 0.87411 0.0
C159 C 0.1599 0.57265 0.88075 0.0
C160 C 0.06552 0.5408 0.92527 0.0
C161 C 0.09223 0.53934 0.93407 0.0
C162 C 0.0909 0.53623 0.95143 0.0
C163 C 0.0629 0.53461 0.96039 0.0
C164 C 0.03603 0.53567 0.95158 0.0
C165 C 0.03731 0.53872 0.93426 0.0
C166 C 0.0141 0.55406 0.87361 0.0
C167 C 0.99236 0.56136 0.88355 0.0
C168 C 0.09345 0.6784 0.44049 0.0
C169 C 0.10193 0.68495 0.45745 0.0
C170 C 0.08193 0.6589 0.46911 0.0
C171 C 0.05417 0.62687 0.46388 0.0
H172 H 0.98039 0.52679 0.48024 0.0
H173 H 0.94461 0.47906 0.4993 0.0
H174 H 0.87914 0.41926 0.45818 0.0
H175 H 0.91416 0.46651 0.43927 0.0
H176 H 0.93381 0.49158 0.40279 0.0
H177 H 0.92615 0.48078 0.37291 0.0
H178 H 0.0161 0.58186 0.36375 0.0
H179 H 0.02328 0.59308 0.39344 0.0
H180 H 0.06043 0.64249 0.42206 0.0
H181 H 0.1087 0.69764 0.43115 0.0
H182 H 0.08768 0.66329 0.48229 0.0
H183 H 0.03937 0.6073 0.47317 0.0
N184 N 0.99758 0.56033 0.45198 0.0
N185 N 0.9656 0.52385 0.42977 0.0
N186 N 0.01084 0.58036 0.42448 0.0
C187 C 0.97161 0.52906 0.44641 0.0
C188 C 0.9851 0.54934 0.41873 0.0
C189 C 0.01726 0.58618 0.44104 0.0
C190 C 0.95014 0.50061 0.4582 0.0
C191 C 0.95826 0.50351 0.47528 0.0
C192 C 0.93792 0.47616 0.4862 0.0
C193 C 0.90893 0.44559 0.48025 0.0
C194 C 0.90094 0.44274 0.4632 0.0
C195 C 0.92125 0.46984 0.45233 0.0
C196 C 0.97926 0.54316 0.40057 0.0
C197 C 0.95182 0.51162 0.39441 0.0
C198 C 0.94748 0.50535 0.37727 0.0
C199 C 0.97052 0.53043 0.36593 0.0
C200 C 0.99752 0.56218 0.3721 0.0
C201 C 1.00179 0.56851 0.38919 0.0
C202 C 0.04594 0.62026 0.44687 0.0
C203 C 0.06584 0.64653 0.43527 0.0
C204 C 0.55856 0.16952 0.79918 0.0
C205 C 0.56134 0.16708 0.81649 0.0
C206 C 0.56644 0.14049 0.82287 0.0
C207 C 0.56898 0.11701 0.81213 0.0
H208 H 0.59226 0.0347 0.80962 0.0
H209 H 0.59926 0.98596 0.81892 0.0
H210 H 0.5656 0.93767 0.77064 0.0
H211 H 0.55839 0.9857 0.76139 0.0
H212 H 0.55368 0.02656 0.73192 0.0
H213 H 0.55286 0.03305 0.70193 0.0
H214 H 0.57954 0.14022 0.70818 0.0
H215 H 0.58042 0.13388 0.73843 0.0
H216 H 0.55876 0.14899 0.77522 0.0
H217 H 0.55391 0.18925 0.79385 0.0
H218 H 0.56892 0.13809 0.83615 0.0
H219 H 0.57304 0.09689 0.81744 0.0
N220 N 0.57115 0.06738 0.78922 0.0
N221 N 0.57063 0.04838 0.76195 0.0
N222 N 0.56746 0.09875 0.76651 0.0
C223 C 0.5721 0.04406 0.77858 0.0
C224 C 0.56845 0.07563 0.7558 0.0
C225 C 0.56862 0.09474 0.78325 0.0
C226 C 0.57489 0.01416 0.78476 0.0
C227 C 0.5861 0.01352 0.80106 0.0
C228 C 0.59031 0.98579 0.80635 0.0
C229 C 0.58291 0.95807 0.7955 0.0
C230 C 0.57112 0.95847 0.77934 0.0
C231 C 0.56725 0.9862 0.77401 0.0
C232 C 0.56715 0.07973 0.73759 0.0
C233 C 0.55935 0.05156 0.72697 0.0
C234 C 0.55865 0.05517 0.70978 0.0
C235 C 0.56603 0.08709 0.70277 0.0
C236 C 0.57391 0.11537 0.7133 0.0
C237 C 0.57421 0.11165 0.73059 0.0
C238 C 0.56642 0.11966 0.79478 0.0
C239 C 0.56116 0.14622 0.78847 0.0
C240 C 0.65767 0.5201 0.12986 0.0
C241 C 0.6524 0.51536 0.14711 0.0
C242 C 0.61905 0.50459 0.15356 0.0
C243 C 0.59123 0.49733 0.14284 0.0
H244 H 0.49171 0.49584 0.13744 0.0
H245 H 0.43572 0.49066 0.14467 0.0
H246 H 0.39078 0.43248 0.09944 0.0
H247 H 0.44651 0.43838 0.09204 0.0
H248 H 0.49828 0.464 0.06111 0.0
H249 H 0.5084 0.46537 0.0314 0.0
H250 H 0.6141 0.48907 0.04063 0.0
H251 H 0.60433 0.48862 0.0705 0.0
H252 H 0.63518 0.51628 0.10596 0.0
H253 H 0.68323 0.52917 0.12453 0.0
H254 H 0.6142 0.50066 0.16681 0.0
H255 H 0.56562 0.48818 0.14812 0.0
N256 N 0.53505 0.48394 0.1194 0.0
N257 N 0.51349 0.4715 0.09207 0.0
N258 N 0.57153 0.48781 0.09731 0.0
C259 C 0.5082 0.47422 0.1085 0.0
C260 C 0.545 0.47824 0.08634 0.0
C261 C 0.56685 0.49066 0.11384 0.0
C262 C 0.47371 0.46795 0.11406 0.0
C263 C 0.46975 0.48164 0.12915 0.0
C264 C 0.43765 0.4786 0.1333 0.0
C265 C 0.40892 0.46162 0.12249 0.0
C266 C 0.41259 0.44652 0.10783 0.0
C267 C 0.44457 0.44977 0.10363 0.0
C268 C 0.55057 0.47649 0.06826 0.0
C269 C 0.52365 0.46927 0.05688 0.0
C270 C 0.52936 0.46976 0.03979 0.0
C271 C 0.56207 0.47734 0.03362 0.0
C272 C 0.58873 0.48358 0.04498 0.0
C273 C 0.58306 0.48319 0.06212 0.0
C274 C 0.59632 0.50069 0.1255 0.0
C275 C 0.63003 0.51278 0.1192 0.0
H276 H 0.14176 0.46898 0.1776 0.0
H277 H 0.19205 0.46242 0.17104 0.0
H278 H 0.1712 0.46259 0.11861 0.0
H279 H 0.12056 0.46909 0.12511 0.0
H280 H 0.19635 0.40941 0.15018 0.0
H281 H 0.27358 0.54547 0.12691 0.0
H282 H 0.23558 0.53113 0.1399 0.0
H283 H 0.23062 0.51916 0.11832 0.0
C284 C 0.14767 0.46725 0.16467 0.0
C285 C 0.12747 0.46969 0.15184 0.0
C286 C 0.17633 0.46346 0.16096 0.0
C287 C 0.18543 0.46239 0.14437 0.0
C288 C 0.16466 0.4637 0.1315 0.0
H289 H 0.36745 0.47087 0.10039 0.0
H290 H 0.31233 0.4688 0.10577 0.0
C291 C 0.13576 0.46725 0.13521 0.0
C292 C 0.21755 0.46142 0.14064 0.0
H293 H 0.30022 0.51106 0.12581 0.0
C294 C 0.21909 0.43153 0.14481 0.0
C295 C 0.24706 0.49044 0.13372 0.0
C296 C 0.24697 0.52354 0.12953 0.0
C297 C 0.2494 0.42972 0.14201 0.0
C298 C 0.2791 0.45892 0.13524 0.0
C299 C 0.27743 0.48875 0.13103 0.0
C300 C 0.31209 0.45903 0.13215 0.0
C301 C 0.24913 0.39637 0.14602 0.0
C302 C 0.33046 0.45455 0.14526 0.0
C303 C 0.36191 0.4553 0.1422 0.0
C304 C 0.3756 0.46079 0.12598 0.0
C305 C 0.3573 0.4658 0.11296 0.0
C306 C 0.3259 0.46491 0.11602 0.0
H307 H 0.22216 0.37391 0.14682 0.0
H308 H 0.26365 0.39055 0.13649 0.0
H309 H 0.26192 0.39912 0.15824 0.0
H310 H 0.32064 0.45075 0.15787 0.0
H311 H 0.37531 0.4513 0.15249 0.0
H312 H 0.69742 0.15839 0.48796 0.0
H313 H 0.75197 0.21177 0.49336 0.0
H314 H 0.72273 0.20897 0.54482 0.0
H315 H 0.66717 0.15569 0.53926 0.0
H316 H 0.74032 0.26923 0.5322 0.0
H317 H 0.84346 0.24148 0.51461 0.0
H318 H 0.81228 0.22674 0.49804 0.0
H319 H 0.79933 0.20705 0.51837 0.0
C320 C 0.70296 0.16864 0.50052 0.0
C321 C 0.6781 0.15308 0.51317 0.0
C322 C 0.7344 0.19902 0.50366 0.0
C323 C 0.74187 0.21417 0.51959 0.0
C324 C 0.71769 0.19762 0.53248 0.0
H325 H 0.92998 0.41691 0.5047 0.0
H326 H 0.89313 0.36373 0.52066 0.0
C327 C 0.68602 0.16722 0.5293 0.0
C328 C 0.77214 0.24973 0.52179 0.0
H329 H 0.85511 0.30096 0.50774 0.0
C330 C 0.76579 0.27606 0.52735 0.0
C331 C 0.8058 0.25889 0.51601 0.0
C332 C 0.81562 0.23186 0.51163 0.0
C333 C 0.79082 0.31129 0.5254 0.0
C334 C 0.82251 0.32031 0.51726 0.0
C335 C 0.83045 0.29412 0.51358 0.0
C336 C 0.84469 0.35532 0.50994 0.0
C337 C 0.7823 0.33842 0.53134 0.0
C338 C 0.8297 0.36843 0.49878 0.0
C339 C 0.85053 0.39868 0.48979 0.0
C340 C 0.88693 0.41629 0.49155 0.0
C341 C 0.90196 0.404 0.50319 0.0
C342 C 0.88098 0.37359 0.51225 0.0
H343 H 0.7662 0.32956 0.54282 0.0
H344 H 0.80621 0.36368 0.53392 0.0
H345 H 0.76678 0.34245 0.52166 0.0
H346 H 0.80192 0.35438 0.4964 0.0
H347 H 0.83818 0.40771 0.48104 0.0
H348 H 0.60743 0.68504 0.79464 0.0
H349 H 0.61019 0.74119 0.79057 0.0
H350 H 0.6311 0.7637 0.84293 0.0
H351 H 0.62776 0.70762 0.84709 0.0
H352 H 0.575 0.76822 0.83201 0.0
H353 H 0.68872 0.84302 0.79059 0.0
H354 H 0.65843 0.80009 0.78315 0.0
H355 H 0.68216 0.80523 0.80208 0.0
C356 C 0.61341 0.70239 0.80517 0.0
C357 C 0.61722 0.69207 0.82117 0.0
C358 C 0.61512 0.73446 0.80284 0.0
C359 C 0.62107 0.75666 0.81645 0.0
C360 C 0.62654 0.74697 0.83228 0.0
H361 H 0.63919 0.96203 0.81155 0.0
H362 H 0.64957 0.91389 0.81802 0.0
C363 C 0.62464 0.71496 0.83462 0.0
C364 C 0.61775 0.78804 0.81466 0.0
H365 H 0.64983 0.8652 0.79398 0.0
C366 C 0.59158 0.78958 0.82381 0.0
C367 C 0.63959 0.81593 0.80406 0.0
C368 C 0.66904 0.81627 0.79451 0.0
C369 C 0.58605 0.81788 0.82232 0.0
C370 C 0.60694 0.84509 0.81123 0.0
C371 C 0.63376 0.84411 0.80241 0.0
C372 C 0.60023 0.87399 0.80806 0.0
C373 C 0.55784 0.81843 0.8326 0.0
C374 C 0.56903 0.86728 0.80042 0.0
C375 C 0.56303 0.89454 0.79678 0.0
C376 C 0.58819 0.92903 0.80068 0.0
C377 C 0.61921 0.93565 0.8086 0.0
C378 C 0.62528 0.9083 0.81217 0.0
H379 H 0.55046 0.80061 0.84345 0.0
H380 H 0.56629 0.84512 0.83717 0.0
H381 H 0.5343 0.80985 0.82476 0.0
H382 H 0.54957 0.84097 0.79701 0.0
H383 H 0.53881 0.8887 0.79076 0.0
H384 H 0.94501 0.59708 0.16932 0.0
H385 H 0.89046 0.59625 0.17404 0.0
H386 H 0.86935 0.52879 0.21643 0.0
H387 H 0.92345 0.52815 0.21111 0.0
H388 H 0.81809 0.50012 0.19708 0.0
H389 H 0.84541 0.63452 0.20223 0.0
H390 H 0.86797 0.63248 0.1842 0.0
H391 H 0.87951 0.62382 0.20451 0.0
C392 C 0.9293 0.58299 0.17997 0.0
C393 C 0.93817 0.56239 0.18974 0.0
C394 C 0.89815 0.5828 0.18279 0.0
C395 C 0.87571 0.56275 0.19572 0.0
C396 C 0.88615 0.5445 0.20638 0.0
H397 H 0.672 0.54814 0.17758 0.0
H398 H 0.72229 0.5579 0.19461 0.0
C399 C 0.91705 0.54416 0.20336 0.0
C400 C 0.83919 0.55575 0.19591 0.0
H401 H 0.79122 0.5943 0.18659 0.0
C402 C 0.8122 0.52088 0.19535 0.0
C403 C 0.83084 0.5825 0.19409 0.0
C404 C 0.85757 0.62037 0.19651 0.0
C405 C 0.77809 0.51214 0.19118 0.0
C406 C 0.77097 0.53888 0.18695 0.0
C407 C 0.79688 0.57372 0.18937 0.0
C408 C 0.73902 0.53124 0.17765 0.0
C409 C 0.75038 0.47419 0.19056 0.0
C410 C 0.73195 0.51329 0.16248 0.0
C411 C 0.70344 0.5076 0.15287 0.0
C412 C 0.68152 0.52019 0.15804 0.0
C413 C 0.68831 0.53792 0.17334 0.0
C414 C 0.71705 0.54362 0.18303 0.0
H415 H 0.75546 0.45903 0.20003 0.0
H416 H 0.72399 0.4705 0.19268 0.0
H417 H 0.75085 0.46341 0.17816 0.0
H418 H 0.74899 0.50425 0.15785 0.0
H419 H 0.6987 0.49346 0.14127 0.0
H420 H 0.37613 0.95892 0.51129 0.0
H421 H 0.31837 0.90877 0.50612 0.0
H422 H 0.3431 0.91173 0.45401 0.0
H423 H 0.40135 0.96173 0.45918 0.0
H424 H 0.26384 0.89846 0.4853 0.0
H425 H 0.31719 0.81293 0.46823 0.0
H426 H 0.34336 0.8549 0.47792 0.0
H427 H 0.3338 0.85192 0.45603 0.0
C428 C 0.36915 0.94906 0.4987 0.0
C429 C 0.3932 0.96392 0.48564 0.0
C430 C 0.33616 0.92047 0.49578 0.0
C431 C 0.32674 0.90622 0.47976 0.0
C432 C 0.35018 0.92197 0.46653 0.0
H433 H 0.12157 0.75019 0.44589 0.0
H434 H 0.17517 0.80437 0.45221 0.0
C435 C 0.38329 0.9506 0.46946 0.0
C436 C 0.29284 0.87415 0.47711 0.0
H437 H 0.25636 0.7892 0.4652 0.0
C438 C 0.26213 0.87454 0.4809 0.0
C439 C 0.29082 0.84286 0.4717 0.0
C440 C 0.32302 0.84036 0.46838 0.0
C441 C 0.22932 0.84451 0.47916 0.0
C442 C 0.22728 0.81353 0.47324 0.0
C443 C 0.25803 0.81306 0.46967 0.0
C444 C 0.19358 0.78131 0.47039 0.0
C445 C 0.19723 0.84607 0.48397 0.0
C446 C 0.18629 0.75031 0.47842 0.0
C447 C 0.1559 0.71916 0.47465 0.0
C448 C 0.13238 0.71848 0.46271 0.0
C449 C 0.13936 0.7498 0.45502 0.0
C450 C 0.16977 0.78087 0.45876 0.0
H451 H 0.20362 0.86806 0.49259 0.0
H452 H 0.18536 0.85 0.47261 0.0
H453 H 0.17759 0.82148 0.48998 0.0
H454 H 0.20449 0.7501 0.48737 0.0
H455 H 0.15152 0.69544 0.48064 0.0
H456 H 0.48683 0.38166 0.83644 0.0
H457 H 0.48682 0.32774 0.84168 0.0
H458 H 0.55236 0.37394 0.88479 0.0
H459 H 0.55399 0.42889 0.87891 0.0
H460 H 0.58143 0.35053 0.86648 0.0
H461 H 0.44605 0.24477 0.86994 0.0
H462 H 0.44938 0.26926 0.85169 0.0
H463 H 0.45719 0.2897 0.87192 0.0
C464 C 0.50032 0.37997 0.84734 0.0
C465 C 0.52069 0.40942 0.85718 0.0
C466 C 0.50001 0.3489 0.85047 0.0
C467 C 0.51927 0.3464 0.86378 0.0
C468 C 0.53727 0.37512 0.87446 0.0
H469 H 0.52642 0.15438 0.84624 0.0
H470 H 0.51873 0.19597 0.86327 0.0
C471 C 0.53816 0.40648 0.87112 0.0
C472 C 0.52573 0.31662 0.86442 0.0
H473 H 0.48655 0.2302 0.855 0.0
C474 C 0.5605 0.32403 0.86453 0.0
C475 C 0.49871 0.2817 0.86238 0.0
C476 C 0.46079 0.27099 0.86419 0.0
C477 C 0.569 0.29835 0.86077 0.0
C478 C 0.54217 0.26473 0.85621 0.0
C479 C 0.50728 0.25627 0.858 0.0
C480 C 0.54978 0.24005 0.84727 0.0
C481 C 0.60683 0.30803 0.86103 0.0
C482 C 0.56983 0.25101 0.83268 0.0
C483 C 0.57456 0.22756 0.82309 0.0
C484 C 0.55877 0.19235 0.82767 0.0
C485 C 0.53921 0.18142 0.84247 0.0
C486 C 0.53463 0.20508 0.85216 0.0
H487 H 0.62118 0.32747 0.87096 0.0
H488 H 0.6099 0.28496 0.8631 0.0
H489 H 0.61906 0.32018 0.84898 0.0
H490 H 0.58096 0.27758 0.82835 0.0
H491 H 0.59013 0.23694 0.81189 0.0
H492 H 0.48554 0.92983 0.50034 0.0
H493 H 0.48652 0.87553 0.50327 0.0
H494 H 0.59826 0.93367 0.5088 0.0
H495 H 0.59737 0.98818 0.50644 0.0
H496 H 0.5155 0.84661 0.48522 0.0
H497 H 0.57298 0.87146 0.54851 0.0
H498 H 0.5577 0.89839 0.53925 0.0
H499 H 0.59986 0.90458 0.53387 0.0
C500 C 0.51037 0.93116 0.50226 0.0
C501 C 0.54136 0.96352 0.5033 0.0
C502 C 0.51088 0.89998 0.50391 0.0
C503 C 0.54237 0.9003 0.50659 0.0
C504 C 0.57347 0.93257 0.50725 0.0
H505 H 0.58907 0.73072 0.51706 0.0
H506 H 0.59279 0.78664 0.51063 0.0
C507 C 0.57295 0.96381 0.50578 0.0
C508 C 0.54252 0.86684 0.50845 0.0
H509 H 0.5673 0.82187 0.5344 0.0
C510 C 0.52679 0.84126 0.496 0.0
C511 C 0.55717 0.85959 0.52253 0.0
C512 C 0.57256 0.88479 0.53688 0.0
C513 C 0.52545 0.80896 0.49722 0.0
C514 C 0.5402 0.8019 0.51123 0.0
C515 C 0.55628 0.82748 0.52358 0.0
C516 C 0.53767 0.76746 0.51375 0.0
C517 C 0.50837 0.78254 0.48349 0.0
C518 C 0.50544 0.73807 0.5175 0.0
C519 C 0.50329 0.70625 0.52126 0.0
C520 C 0.53331 0.70302 0.52126 0.0
C521 C 0.56543 0.73224 0.51697 0.0
C522 C 0.56762 0.76424 0.5134 0.0
H523 H 0.50431 0.79426 0.4721 0.0
H524 H 0.52437 0.77052 0.48027 0.0
H525 H 0.48259 0.76151 0.48782 0.0
H526 H 0.48204 0.74001 0.51798 0.0
H527 H 0.47816 0.68423 0.52447 0.0
H528 H 0.64775 0.49972 0.83927 0.0
H529 H 0.70421 0.50303 0.84138 0.0
H530 H 0.75476 0.60784 0.82239 0.0
H531 H 0.69809 0.60484 0.82014 0.0
H532 H 0.78076 0.56377 0.80897 0.0
H533 H 0.77536 0.56238 0.87802 0.0
H534 H 0.73785 0.52738 0.86807 0.0
H535 H 0.74725 0.57142 0.86529 0.0
C536 C 0.67072 0.52349 0.8354 0.0
C537 C 0.66819 0.55215 0.82966 0.0
C538 C 0.70309 0.52532 0.83667 0.0
C539 C 0.7338 0.55584 0.83228 0.0
C540 C 0.7314 0.58405 0.82591 0.0
H541 H 0.94014 0.60889 0.86671 0.0
H542 H 0.88722 0.60923 0.85858 0.0
C543 C 0.69894 0.58229 0.82465 0.0
C544 C 0.76835 0.55861 0.83507 0.0
H545 H 0.82106 0.55718 0.86576 0.0
C546 C 0.78968 0.56244 0.82137 0.0
C547 C 0.78016 0.55726 0.85128 0.0
C548 C 0.75917 0.55469 0.86655 0.0
C549 C 0.82217 0.5643 0.82345 0.0
C550 C 0.83351 0.56198 0.83965 0.0
C551 C 0.81236 0.55872 0.85333 0.0
C552 C 0.86744 0.56358 0.8429 0.0
C553 C 0.84433 0.56927 0.80834 0.0
C554 C 0.87446 0.53814 0.83658 0.0
C555 C 0.90489 0.53787 0.84125 0.0
C556 C 0.9287 0.56283 0.85247 0.0
C557 C 0.92216 0.58898 0.85824 0.0
C558 C 0.89191 0.58927 0.85356 0.0
H559 H 0.83622 0.5792 0.79754 0.0
H560 H 0.87226 0.58765 0.81102 0.0
H561 H 0.84163 0.54387 0.80476 0.0
H562 H 0.85575 0.51765 0.82857 0.0
H563 H 0.90892 0.51717 0.83671 0.0
H564 H 0.15792 0.5937 0.16526 0.0
H565 H 0.21226 0.64919 0.1676 0.0
H566 H 0.15397 0.70219 0.17447 0.0
H567 H 0.09943 0.64659 0.17267 0.0
H568 H 0.23995 0.70722 0.14956 0.0
H569 H 0.21833 0.73905 0.21359 0.0
H570 H 0.19108 0.69685 0.20435 0.0
H571 H 0.18433 0.73262 0.19942 0.0
C572 C 0.15655 0.61711 0.16731 0.0
C573 C 0.12414 0.6155 0.16891 0.0
C574 C 0.18776 0.64892 0.16863 0.0
C575 C 0.18743 0.67998 0.17154 0.0
C576 C 0.1551 0.67858 0.17271 0.0
H577 H 0.35708 0.89611 0.1825 0.0
H578 H 0.30089 0.844 0.17624 0.0
C579 C 0.12384 0.6467 0.17157 0.0
C580 C 0.22093 0.71366 0.1732 0.0
H581 H 0.26722 0.78309 0.19919 0.0
C582 C 0.24586 0.72373 0.16044 0.0
C583 C 0.22889 0.73537 0.1874 0.0
C584 C 0.20442 0.72531 0.20204 0.0
C585 C 0.27822 0.75475 0.16146 0.0
C586 C 0.28602 0.77635 0.17561 0.0
C587 C 0.26106 0.76662 0.18827 0.0
C588 C 0.32059 0.80828 0.17793 0.0
C589 C 0.30388 0.76434 0.14737 0.0
C590 C 0.35037 0.80556 0.18082 0.0
C591 C 0.38238 0.83521 0.18448 0.0
C592 C 0.38538 0.8683 0.18524 0.0
C593 C 0.35575 0.8711 0.1818 0.0
C594 C 0.32359 0.84133 0.17833 0.0
H595 H 0.29139 0.74902 0.13594 0.0
H596 H 0.31606 0.79248 0.14442 0.0
H597 H 0.32492 0.75913 0.15117 0.0
H598 H 0.34862 0.78033 0.18075 0.0
H599 H 0.40471 0.83217 0.18703 0.0
H600 H 0.58618 0.18655 0.49921 0.0
H601 H 0.58357 0.24018 0.5016 0.0
H602 H 0.4719 0.18144 0.49633 0.0
H603 H 0.47416 0.12752 0.49379 0.0
H604 H 0.54821 0.26799 0.47789 0.0
H605 H 0.49579 0.23772 0.54243 0.0
H606 H 0.5193 0.21829 0.53333 0.0
H607 H 0.47534 0.2039 0.52702 0.0
C608 C 0.56102 0.18494 0.49842 0.0
C609 C 0.53035 0.15255 0.49635 0.0
C610 C 0.55963 0.21571 0.49976 0.0
C611 C 0.52755 0.2148 0.49926 0.0
C612 C 0.49694 0.1827 0.49684 0.0
H613 H 0.46986 0.37032 0.52411 0.0
H614 H 0.47004 0.31722 0.51611 0.0
C615 C 0.49831 0.15191 0.49533 0.0
C616 C 0.52607 0.24725 0.50187 0.0
H617 H 0.50338 0.28936 0.53048 0.0
C618 C 0.53837 0.27273 0.48936 0.0
C619 C 0.51316 0.25332 0.51682 0.0
C620 C 0.50028 0.22707 0.53078 0.0
C621 C 0.53765 0.30394 0.49132 0.0
C622 C 0.52523 0.31033 0.50642 0.0
C623 C 0.51288 0.28465 0.51889 0.0
C624 C 0.52479 0.34331 0.50971 0.0
C625 C 0.54941 0.32929 0.477 0.0
C626 C 0.55537 0.376 0.5086 0.0
C627 C 0.55519 0.40654 0.51298 0.0
C628 C 0.52458 0.40502 0.51888 0.0
C629 C 0.49391 0.37239 0.51969 0.0
C630 C 0.494 0.34197 0.51513 0.0
H631 H 0.54733 0.3161 0.46495 0.0
H632 H 0.53383 0.34253 0.47621 0.0
H633 H 0.57716 0.34934 0.47884 0.0
H634 H 0.57972 0.37786 0.50491 0.0
H635 H 0.57936 0.43119 0.51248 0.0
H636 H 0.49266 0.59968 0.83412 0.0
H637 H 0.43744 0.59909 0.83659 0.0
H638 H 0.383 0.48741 0.84174 0.0
H639 H 0.43828 0.48787 0.83982 0.0
H640 H 0.37973 0.57045 0.81815 0.0
H641 H 0.34573 0.51292 0.88132 0.0
H642 H 0.38812 0.52805 0.87228 0.0
H643 H 0.35213 0.48603 0.86674 0.0
C644 C 0.46899 0.57494 0.83584 0.0
C645 C 0.4701 0.54383 0.83692 0.0
C646 C 0.43734 0.57465 0.83723 0.0
C647 C 0.40594 0.54329 0.83969 0.0
C648 C 0.40686 0.51209 0.84035 0.0
H649 H 0.18974 0.49721 0.84973 0.0
H650 H 0.24199 0.49341 0.84346 0.0
C651 C 0.43857 0.51238 0.83914 0.0
C652 C 0.37239 0.54338 0.84137 0.0
H653 H 0.3022 0.51889 0.86698 0.0
C654 C 0.36287 0.55921 0.82885 0.0
C655 C 0.35022 0.52881 0.85535 0.0
C656 C 0.35968 0.51331 0.86977 0.0
C657 C 0.33192 0.56069 0.8299 0.0
C658 C 0.30982 0.54602 0.84382 0.0
C659 C 0.31904 0.52987 0.85624 0.0
C660 C 0.27787 0.54861 0.84615 0.0
C661 C 0.3229 0.5778 0.81607 0.0
C662 C 0.28065 0.58091 0.8496 0.0
C663 C 0.25093 0.58312 0.85326 0.0
C664 C 0.2177 0.55307 0.85346 0.0
C665 C 0.21486 0.52087 0.84947 0.0
C666 C 0.24471 0.51863 0.846 0.0
H667 H 0.33865 0.58145 0.80471 0.0
H668 H 0.29484 0.56208 0.81282 0.0
H669 H 0.32802 0.60375 0.82031 0.0
H670 H 0.30597 0.60433 0.84995 0.0
H671 H 0.25399 0.60831 0.85625 0.0
H672 H 0.90361 0.43627 0.17251 0.0
H673 H 0.85067 0.37977 0.17481 0.0
H674 H 0.90568 0.3293 0.15662 0.0
H675 H 0.95917 0.38605 0.15417 0.0
H676 H 0.8358 0.30255 0.14293 0.0
H677 H 0.83852 0.30983 0.21194 0.0
H678 H 0.84089 0.34692 0.20169 0.0
H679 H 0.87583 0.33779 0.19929 0.0
C680 C 0.90463 0.4133 0.16887 0.0
C681 C 0.93598 0.4159 0.16327 0.0
C682 C 0.87422 0.38091 0.17025 0.0
C683 C 0.87427 0.35021 0.16614 0.0
C684 C 0.90505 0.35264 0.15994 0.0
H685 H 0.71996 0.14494 0.20111 0.0
H686 H 0.7735 0.19763 0.19311 0.0
C687 C 0.93565 0.38515 0.15856 0.0
C688 C 0.84251 0.31569 0.16897 0.0
H689 H 0.7877 0.26391 0.19963 0.0
C690 C 0.82531 0.29399 0.15532 0.0
C691 C 0.82902 0.30435 0.18516 0.0
C692 C 0.84712 0.32573 0.2004 0.0
C693 C 0.79461 0.26158 0.15742 0.0
C694 C 0.78059 0.25073 0.17358 0.0
C695 C 0.79821 0.27224 0.18722 0.0
C696 C 0.7481 0.21696 0.17684 0.0
C697 C 0.77775 0.23902 0.14236 0.0
C698 C 0.71581 0.20979 0.17017 0.0
C699 C 0.68495 0.1795 0.17476 0.0
C700 C 0.68574 0.15597 0.18625 0.0
C701 C 0.71828 0.1627 0.19242 0.0
C702 C 0.74899 0.19281 0.18782 0.0
H703 H 0.7961 0.24674 0.1317 0.0
H704 H 0.76802 0.21119 0.14526 0.0
H705 H 0.75521 0.24173 0.13846 0.0
H706 H 0.71427 0.22825 0.16192 0.0
H707 H 0.66034 0.17533 0.16991 0.0
H708 H 1.00377 0.55784 0.11054 0.0
H709 H 0.0169 0.55582 0.08119 0.0
H710 H 0.0596 0.48992 0.09316 0.0
H711 H 0.04603 0.49161 0.12272 0.0
H712 H 0.08525 0.57707 0.06742 0.0
H713 H 0.98751 0.43813 0.05486 0.0
H714 H 0.98415 0.46126 0.07262 0.0
H715 H 0.01603 0.44765 0.07247 0.0
C716 C 0.01585 0.54279 0.10694 0.0
C717 C 0.02411 0.525 0.11891 0.0
C718 C 0.02339 0.54174 0.09018 0.0
C719 C 0.03906 0.52263 0.08501 0.0
C720 C 0.04722 0.5046 0.0969 0.0
H721 H 0.0797 0.49505 0.98046 0.0
H722 H 0.07795 0.492 0.01096 0.0
C723 C 0.03974 0.50577 0.11376 0.0
C724 C 0.04717 0.52243 0.06714 0.0
H725 H 0.02049 0.47194 0.03214 0.0
C726 C 0.07138 0.55402 0.05972 0.0
C727 C 0.02919 0.49225 0.05718 0.0
C728 C 1.00259 0.45784 0.06457 0.0
C729 C 0.0774 0.55648 0.04251 0.0
C730 C 0.05816 0.52671 0.03241 0.0
C731 C 0.03506 0.49475 0.03991 0.0
C732 C 0.05993 0.52885 0.01399 0.0
C733 C 0.10411 0.59103 0.03527 0.0
C734 C 0.04999 0.55024 0.0056 0.0
C735 C 0.05108 0.55215 0.98825 0.0
C736 C 0.06192 0.53249 0.97888 0.0
C737 C 0.07166 0.51086 0.98732 0.0
C738 C 0.07049 0.50892 0.00472 0.0
H739 H 0.12367 0.60769 0.04475 0.0
H740 H 0.11792 0.58747 0.02459 0.0
H741 H 0.0908 0.60505 0.03078 0.0
H742 H 0.04113 0.56535 0.01249 0.0
H743 H 0.04372 0.56931 0.98218 0.0
H744 H 0.58253 0.03739 0.44551 0.0
H745 H 0.56779 0.02717 0.416 0.0
H746 H 0.48126 0.04431 0.42392 0.0
H747 H 0.49664 0.05563 0.45355 0.0
H748 H 0.50919 0.97905 0.39987 0.0
H749 H 0.53414 0.11276 0.38683 0.0
H750 H 0.54688 0.10152 0.40613 0.0
H751 H 0.50215 0.08929 0.4026 0.0
C752 C 0.56033 0.03896 0.44098 0.0
C753 C 0.54091 0.04761 0.45177 0.0
C754 C 0.55187 0.03302 0.42412 0.0
C755 C 0.52378 0.03553 0.41768 0.0
C756 C 0.50352 0.04299 0.42854 0.0
H757 H 0.46635 0.01799 0.31163 0.0
H758 H 0.46302 0.01924 0.34213 0.0
C759 C 0.51214 0.04918 0.44547 0.0
C760 C 0.51656 0.03086 0.39953 0.0
H761 H 0.5175 0.07407 0.36416 0.0
C762 C 0.51069 0.99972 0.39209 0.0
C763 C 0.51853 0.05786 0.38938 0.0
C764 C 0.52604 0.09237 0.39656 0.0
C765 C 0.50766 0.99522 0.37476 0.0
C766 C 0.51074 0.0226 0.36462 0.0
C767 C 0.51516 0.05317 0.37204 0.0
C768 C 0.51207 0.02098 0.34625 0.0
C769 C 0.50176 0.96144 0.36737 0.0
C770 C 0.54089 0.02186 0.33856 0.0
C771 C 0.54297 0.02135 0.32123 0.0
C772 C 0.51617 0.01984 0.31126 0.0
C773 C 0.48722 0.01883 0.31901 0.0
C774 C 0.48533 0.01967 0.33638 0.0
H775 H 0.492 0.94031 0.37678 0.0
H776 H 0.48285 0.95312 0.35691 0.0
H777 H 0.52677 0.96523 0.36239 0.0
H778 H 0.56196 0.02323 0.34599 0.0
H779 H 0.56544 0.02187 0.31562 0.0
H780 H 0.52628 0.47934 0.7778 0.0
H781 H 0.52799 0.49424 0.74845 0.0
H782 H 0.5935 0.60299 0.7603 0.0
H783 H 0.59207 0.58801 0.7899 0.0
H784 H 0.50619 0.54105 0.7347 0.0
H785 H 0.64522 0.58266 0.72191 0.0
H786 H 0.62229 0.55611 0.73967 0.0
H787 H 0.63571 0.60152 0.73957 0.0
C788 C 0.54118 0.50645 0.77418 0.0
C789 C 0.55895 0.5326 0.78612 0.0
C790 C 0.54206 0.5149 0.75741 0.0
C791 C 0.56097 0.54966 0.7522 0.0
C792 C 0.57899 0.57596 0.76407 0.0
H793 H 0.5875 0.61719 0.64768 0.0
H794 H 0.59098 0.61834 0.67816 0.0
C795 C 0.57799 0.56746 0.78095 0.0
C796 C 0.56091 0.55777 0.73433 0.0
H797 H 0.61095 0.58117 0.69922 0.0
C798 C 0.52917 0.55018 0.72695 0.0
C799 C 0.59098 0.56988 0.72431 0.0
C800 C 0.62555 0.57792 0.73165 0.0
C801 C 0.52645 0.55349 0.70974 0.0
C802 C 0.55611 0.56393 0.69958 0.0
C803 C 0.58822 0.57297 0.70703 0.0
C804 C 0.55377 0.56356 0.68115 0.0
C805 C 0.49174 0.54551 0.70256 0.0
C806 C 0.53204 0.5323 0.67274 0.0
C807 C 0.52985 0.53158 0.65539 0.0
C808 C 0.54956 0.56208 0.64605 0.0
C809 C 0.5716 0.59334 0.65451 0.0
C810 C 0.5738 0.59402 0.67191 0.0
H811 H 0.47522 0.54851 0.71206 0.0
H812 H 0.49515 0.56273 0.69185 0.0
H813 H 0.47763 0.51814 0.69815 0.0
H814 H 0.51686 0.50834 0.67961 0.0
H815 H 0.5124 0.50714 0.6493 0.0
H816 H 0.49256 0.08179 0.55139 0.0
H817 H 0.51019 0.09483 0.58048 0.0
H818 H 0.59582 0.07672 0.57148 0.0
H819 H 0.57727 0.06215 0.54243 0.0
H820 H 0.56035 0.04227 0.59779 0.0
H821 H 0.58694 0.17724 0.6038 0.0
H822 H 0.54437 0.14985 0.59526 0.0
H823 H 0.58226 0.1567 0.58382 0.0
C824 C 0.51538 0.08099 0.55557 0.0
C825 C 0.53361 0.07104 0.54469 0.0
C826 C 0.52569 0.08885 0.57216 0.0
C827 C 0.55479 0.0875 0.57809 0.0
C828 C 0.5735 0.07827 0.56712 0.0
H829 H 0.61522 0.13874 0.68321 0.0
H830 H 0.61669 0.14126 0.65267 0.0
C831 C 0.56295 0.07003 0.55054 0.0
C832 C 0.5632 0.09211 0.59609 0.0
H833 H 0.57284 0.14394 0.62943 0.0
C834 C 0.56371 0.06481 0.60465 0.0
C835 C 0.56821 0.12176 0.60505 0.0
C836 C 0.57081 0.15318 0.59645 0.0
C837 C 0.5671 0.06545 0.622 0.0
C838 C 0.56901 0.09369 0.63107 0.0
C839 C 0.57062 0.12197 0.62247 0.0
C840 C 0.56763 0.09338 0.64947 0.0
C841 C 0.56822 0.03564 0.63044 0.0
C842 C 0.53905 0.06628 0.65772 0.0
C843 C 0.53824 0.06473 0.67505 0.0
C844 C 0.56576 0.09055 0.68446 0.0
C845 C 0.59364 0.11856 0.67622 0.0
C846 C 0.59457 0.11995 0.65882 0.0
H847 H 0.57799 0.02278 0.62187 0.0
H848 H 0.5851 0.04456 0.64167 0.0
H849 H 0.54148 0.01585 0.6343 0.0
H850 H 0.51747 0.0461 0.65074 0.0
H851 H 0.51615 0.0432 0.68111 0.0
H852 H 0.53515 0.51051 0.87746 0.0
H853 H 0.53377 0.49119 0.90621 0.0
H854 H 0.64146 0.57035 0.91252 0.0
H855 H 0.64305 0.58974 0.88384 0.0
H856 H 0.57914 0.46999 0.92377 0.0
H857 H 0.58578 0.59012 0.94875 0.0
H858 H 0.57406 0.57619 0.92744 0.0
H859 H 0.61883 0.5968 0.93388 0.0
C860 C 0.5586 0.5235 0.88494 0.0
C861 C 0.58915 0.55175 0.87853 0.0
C862 C 0.55779 0.51243 0.9013 0.0
C863 C 0.5874 0.52965 0.91146 0.0
C864 C 0.61826 0.55704 0.90488 0.0
H865 H 0.62028 0.5264 0.01743 0.0
H866 H 0.62873 0.53602 0.98747 0.0
C867 C 0.61912 0.56806 0.88854 0.0
C868 C 0.58556 0.52036 0.92922 0.0
H869 H 0.58788 0.5516 0.96826 0.0
C870 C 0.58105 0.48774 0.93354 0.0
C871 C 0.58804 0.54367 0.94185 0.0
C872 C 0.59167 0.57857 0.93783 0.0
C873 C 0.57947 0.47798 0.95029 0.0
C874 C 0.58181 0.50128 0.96293 0.0
C875 C 0.58635 0.53389 0.95854 0.0
C876 C 0.57852 0.49226 0.98082 0.0
C877 C 0.57589 0.44314 0.95429 0.0
C878 C 0.5477 0.46412 0.98701 0.0
C879 C 0.54293 0.45831 0.00414 0.0
C880 C 0.56875 0.4808 0.01541 0.0
C881 C 0.60006 0.5083 0.00912 0.0
C882 C 0.60485 0.51399 0.99199 0.0
H883 H 0.5847 0.43317 0.94378 0.0
H884 H 0.59112 0.44472 0.96557 0.0
H885 H 0.54808 0.42402 0.9567 0.0
H886 H 0.52675 0.44743 0.97864 0.0
H887 H 0.51867 0.43668 0.00857 0.0
H888 H 1.00074 0.44321 0.21684 0.0
H889 H 0.98209 0.44493 0.24534 0.0
H890 H 1.008 0.55159 0.23825 0.0
H891 H 0.0266 0.54999 0.20972 0.0
H892 H 0.02661 0.49107 0.26953 0.0
H893 H 0.91125 0.50701 0.26014 0.0
H894 H 0.92848 0.49175 0.24389 0.0
H895 H 0.94938 0.53732 0.24878 0.0
C896 C 1.00205 0.46687 0.22132 0.0
C897 C 0.01507 0.49647 0.21114 0.0
C898 C 0.99132 0.46779 0.23755 0.0
C899 C 0.99326 0.49823 0.2438 0.0
C900 C 1.00561 0.52762 0.23353 0.0
H901 H 0.97955 0.5748 0.34024 0.0
H902 H 0.9821 0.56464 0.31049 0.0
C903 C 0.0164 0.52674 0.2173 0.0
C904 C 0.98553 0.50024 0.26153 0.0
H905 H 0.93431 0.51597 0.28769 0.0
C906 C 1.00619 0.49614 0.27353 0.0
C907 C 0.95908 0.50716 0.26662 0.0
C908 C 0.93554 0.51079 0.25421 0.0
C909 C 1.00172 0.49963 0.29053 0.0
C910 C 0.97529 0.5066 0.29568 0.0
C911 C 0.95441 0.51045 0.28368 0.0
C912 C 0.97006 0.51131 0.31346 0.0
C913 C 0.02616 0.49703 0.30279 0.0
C914 C 0.9614 0.48434 0.32491 0.0
C915 C 0.9604 0.49019 0.34193 0.0
C916 C 0.96772 0.52305 0.34779 0.0
C917 C 0.9745 0.54942 0.33617 0.0
C918 C 0.97566 0.54358 0.31916 0.0
H919 H 0.04999 0.50016 0.29663 0.0
H920 H 0.03411 0.51706 0.3127 0.0
H921 H 0.0127 0.47102 0.30878 0.0
H922 H 0.9564 0.45905 0.32071 0.0
H923 H 0.95528 0.46936 0.35052 0.0
loop_
_geom_bond_atom_site_label_1
_geom_bond_atom_site_label_2
_geom_bond_distance
_geom_bond_site_symmetry_2
_ccdc_geom_bond_type
Dy0 O4 2.398 . S
Dy0 O5 2.491 . S
Dy0 O6 2.403 . S
Dy0 O7 2.664 . S
Dy0 O11 2.326 . S
Dy0 O15 2.310 . S
Dy0 O16 2.325 1_455 S
C1 O12 1.185 . S
C1 O13 1.355 . S
C2 O4 1.185 . S
C2 O5 1.355 . S
Dy3 O7 2.310 . S
Dy3 O10 2.351 . S
Dy3 O12 2.398 1_455 S
Dy3 O13 2.491 1_455 S
Dy3 O14 2.403 . S
Dy3 O15 2.664 . S
Dy3 O17 2.326 1_455 S
O4 Dy0 2.398 . S
O4 C2 1.185 . S
O5 Dy0 2.491 . S
O5 C2 1.355 . S
O6 Dy0 2.403 . S
O6 C8 1.254 . S
O7 Dy0 2.664 . S
O7 Dy3 2.310 . S
O7 C8 1.268 . S
C8 O6 1.254 . S
C8 O7 1.268 . S
C9 O14 1.254 . S
C9 O15 1.268 . S
O10 Dy3 2.351 . S
O10 C18 1.249 . S
O11 Dy0 2.326 . S
O11 C18 1.267 . S
O12 C1 1.185 . S
O12 Dy3 2.398 1_655 S
O13 C1 1.355 . S
O13 Dy3 2.491 1_655 S
O14 Dy3 2.403 . S
O14 C9 1.254 . S
O15 Dy0 2.310 . S
O15 Dy3 2.664 . S
O15 C9 1.268 . S
O16 Dy0 2.325 1_655 S
O16 C19 1.283 . S
O17 Dy3 2.326 1_655 S
O17 C19 1.267 . S
C18 O10 1.249 . S
C18 O11 1.267 . S
C19 O16 1.283 . S
C19 O17 1.267 . S
Dy20 O24 2.398 1_545 S
Dy20 O25 2.491 1_545 S
Dy20 O26 2.403 . S
Dy20 O27 2.664 . S
Dy20 O31 2.326 1_545 S
Dy20 O35 2.310 . S
Dy20 O36 2.351 . S
C21 O32 1.185 . S
C21 O33 1.355 . S
C22 O24 1.185 . S
C22 O25 1.355 . S
Dy23 O27 2.310 . S
Dy23 O30 2.351 . S
Dy23 O32 2.398 . S
Dy23 O33 2.491 . S
Dy23 O34 2.403 . S
Dy23 O35 2.664 . S
Dy23 O37 2.326 . S
O24 Dy20 2.398 1_565 S
O24 C22 1.185 . S
O25 Dy20 2.491 1_565 S
O25 C22 1.355 . S
O26 Dy20 2.403 . S
O26 C28 1.254 . S
O27 Dy20 2.664 . S
O27 Dy23 2.310 . S
O27 C28 1.268 . S
C28 O26 1.254 . S
C28 O27 1.268 . S
C29 O34 1.254 . S
C29 O35 1.268 . S
O30 Dy23 2.351 . S
O30 C38 1.249 1_545 S
O31 Dy20 2.326 1_565 S
O31 C38 1.267 . S
O32 C21 1.185 . S
O32 Dy23 2.398 . S
O33 C21 1.355 . S
O33 Dy23 2.491 . S
O34 Dy23 2.403 . S
O34 C29 1.254 . S
O35 Dy20 2.310 . S
O35 Dy23 2.664 . S
O35 C29 1.268 . S
O36 Dy20 2.351 . S
O36 C39 1.249 . S
O37 Dy23 2.326 . S
O37 C39 1.267 . S
C38 O30 1.249 1_565 S
C38 O31 1.267 . S
C39 O36 1.249 . S
C39 O37 1.267 . S
Dy40 O44 2.398 . S
Dy40 O45 2.491 . S
Dy40 O46 2.403 . S
Dy40 O47 2.664 . S
Dy40 O51 2.326 . S
Dy40 O55 2.310 . S
Dy40 O56 2.351 . S
C41 O52 1.185 . S
C41 O53 1.355 . S
C42 O44 1.185 . S
C42 O45 1.355 . S
Dy43 O47 2.310 . S
Dy43 O50 2.351 . S
Dy43 O52 2.398 . S
Dy43 O53 2.491 . S
Dy43 O54 2.403 . S
Dy43 O55 2.664 . S
Dy43 O57 2.326 . S
O44 Dy40 2.398 . S
O44 C42 1.185 . S
O45 Dy40 2.491 . S
O45 C42 1.355 . S
O46 Dy40 2.403 . S
O46 C48 1.254 . S
O47 Dy40 2.664 . S
O47 Dy43 2.310 . S
O47 C48 1.268 . S
C48 O46 1.254 . S
C48 O47 1.268 . S
C49 O54 1.254 . S
C49 O55 1.268 . S
O50 Dy43 2.351 . S
O50 C58 1.249 . S
O51 Dy40 2.326 . S
O51 C58 1.267 . S
O52 C41 1.185 . S
O52 Dy43 2.398 . S
O53 C41 1.355 . S
O53 Dy43 2.491 . S
O54 Dy43 2.403 . S
O54 C49 1.254 . S
O55 Dy40 2.310 . S
O55 Dy43 2.664 . S
O55 C49 1.268 . S
O56 Dy40 2.351 . S
O56 C59 1.249 . S
O57 Dy43 2.326 . S
O57 C59 1.267 . S
C58 O50 1.249 . S
C58 O51 1.267 . S
C59 O56 1.249 . S
C59 O57 1.267 . S
C60 C61 1.384 . S
C60 H73 0.947 . S
C60 C95 1.382 . S
C61 C60 1.384 . S
C61 C62 1.378 . S
C62 C61 1.378 . S
C62 C63 1.378 . S
C62 H74 0.952 . S
C63 C62 1.378 . S
C63 H75 0.950 . S
C63 C94 1.383 . S
H64 C83 0.947 . S
H65 C84 0.946 . S
H66 C86 0.953 . S
H67 C87 0.945 . S
H68 C89 0.952 . S
H69 C90 0.949 . S
H70 C92 0.950 . S
H71 C93 0.948 . S
H72 C95 0.951 . S
H73 C60 0.947 . S
H74 C62 0.952 . S
H75 C63 0.950 . S
N76 C79 1.382 . S
N76 C81 1.363 1_545 S
N77 C79 1.371 . S
N77 C80 1.372 . S
N78 C80 1.361 1_565 S
N78 C81 1.377 . S
C79 N76 1.382 . S
C79 N77 1.371 . S
C79 C82 1.480 . S
C80 N77 1.372 . S
C80 N78 1.361 1_545 S
C80 C88 1.457 . S
C81 N76 1.363 1_565 S
C81 N78 1.377 . S
C81 C94 1.479 . S
C82 C79 1.480 . S
C82 C83 1.383 . S
C82 C87 1.385 . S
C83 H64 0.947 . S
C83 C82 1.383 . S
C83 C84 1.388 . S
C84 H65 0.946 . S
C84 C83 1.388 . S
C84 C85 1.384 . S
C85 C84 1.384 . S
C85 C86 1.377 . S
C86 H66 0.953 . S
C86 C85 1.377 . S
C86 C87 1.369 . S
C87 H67 0.945 . S
C87 C82 1.385 . S
C87 C86 1.369 . S
C88 C80 1.457 . S
C88 C89 1.372 . S
C88 C93 1.364 1_545 S
C89 H68 0.952 . S
C89 C88 1.372 . S
C89 C90 1.389 . S
C90 H69 0.949 . S
C90 C89 1.389 . S
C90 C91 1.387 . S
C91 C90 1.387 . S
C91 C92 1.372 1_545 S
C92 H70 0.950 . S
C92 C91 1.372 1_565 S
C92 C93 1.379 . S
C93 H71 0.948 . S
C93 C88 1.364 1_565 S
C93 C92 1.379 . S
C94 C63 1.383 . S
C94 C81 1.479 . S
C94 C95 1.398 . S
C95 C60 1.382 . S
C95 H72 0.951 . S
C95 C94 1.398 . S
C96 C97 1.384 . S
C96 H109 0.947 . S
C96 C131 1.382 . S
C97 C96 1.384 . S
C97 C98 1.378 . S
C98 C97 1.378 . S
C98 C99 1.378 . S
C98 H110 0.952 . S
C99 C98 1.378 . S
C99 H111 0.950 . S
C99 C130 1.383 . S
H100 C119 0.947 . S
H101 C120 0.946 . S
H102 C122 0.953 . S
H103 C123 0.945 . S
H104 C125 0.952 . S
H105 C126 0.949 . S
H106 C128 0.950 . S
H107 C129 0.948 . S
H108 C131 0.951 . S
H109 C96 0.947 . S
H110 C98 0.952 . S
H111 C99 0.950 . S
N112 C115 1.382 . S
N112 C117 1.363 . S
N113 C115 1.371 . S
N113 C116 1.372 . S
N114 C116 1.361 . S
N114 C117 1.377 . S
C115 N112 1.382 . S
C115 N113 1.371 . S
C115 C118 1.480 . S
C116 N113 1.372 . S
C116 N114 1.361 . S
C116 C124 1.457 . S
C117 N112 1.363 . S
C117 N114 1.377 . S
C117 C130 1.479 . S
C118 C115 1.480 . S
C118 C119 1.383 . S
C118 C123 1.385 . S
C119 H100 0.947 . S
C119 C118 1.383 . S
C119 C120 1.388 . S
C120 H101 0.946 . S
C120 C119 1.388 . S
C120 C121 1.384 . S
C121 C120 1.384 . S
C121 C122 1.377 . S
C122 H102 0.953 . S
C122 C121 1.377 . S
C122 C123 1.369 . S
C123 H103 0.945 . S
C123 C118 1.385 . S
C123 C122 1.369 . S
C124 C116 1.457 . S
C124 C125 1.372 . S
C124 C129 1.364 . S
C125 H104 0.952 . S
C125 C124 1.372 . S
C125 C126 1.389 . S
C126 H105 0.949 . S
C126 C125 1.389 . S
C126 C127 1.387 . S
C127 C126 1.387 . S
C127 C128 1.372 . S
C128 H106 0.950 . S
C128 C127 1.372 . S
C128 C129 1.379 . S
C129 H107 0.948 . S
C129 C124 1.364 . S
C129 C128 1.379 . S
C130 C99 1.383 . S
C130 C117 1.479 . S
C130 C131 1.398 . S
C131 C96 1.382 . S
C131 H108 0.951 . S
C131 C130 1.398 . S
C132 C133 1.384 . S
C132 H145 0.947 . S
C132 C167 1.382 . S
C133 C132 1.384 . S
C133 C134 1.378 . S
C134 C133 1.378 . S
C134 C135 1.378 1_655 S
C134 H146 0.952 . S
C135 C134 1.378 1_455 S
C135 H147 0.950 . S
C135 C166 1.383 . S
H136 C155 0.947 . S
H137 C156 0.946 . S
H138 C158 0.953 . S
H139 C159 0.945 . S
H140 C161 0.952 . S
H141 C162 0.949 . S
H142 C164 0.950 . S
H143 C165 0.948 . S
H144 C167 0.951 . S
H145 C132 0.947 . S
H146 C134 0.952 . S
H147 C135 0.950 . S
N148 C151 1.382 . S
N148 C153 1.363 . S
N149 C151 1.371 . S
N149 C152 1.372 . S
N150 C152 1.361 . S
N150 C153 1.377 . S
C151 N148 1.382 . S
C151 N149 1.371 . S
C151 C154 1.480 . S
C152 N149 1.372 . S
C152 N150 1.361 . S
C152 C160 1.457 . S
C153 N148 1.363 . S
C153 N150 1.377 . S
C153 C166 1.479 . S
C154 C151 1.480 . S
C154 C155 1.383 . S
C154 C159 1.385 . S
C155 H136 0.947 . S
C155 C154 1.383 . S
C155 C156 1.388 . S
C156 H137 0.946 . S
C156 C155 1.388 . S
C156 C157 1.384 . S
C157 C156 1.384 . S
C157 C158 1.377 . S
C158 H138 0.953 . S
C158 C157 1.377 . S
C158 C159 1.369 . S
C159 H139 0.945 . S
C159 C154 1.385 . S
C159 C158 1.369 . S
C160 C152 1.457 . S
C160 C161 1.372 . S
C160 C165 1.364 . S
C161 H140 0.952 . S
C161 C160 1.372 . S
C161 C162 1.389 . S
C162 H141 0.949 . S
C162 C161 1.389 . S
C162 C163 1.387 . S
C163 C162 1.387 . S
C163 C164 1.372 . S
C164 H142 0.950 . S
C164 C163 1.372 . S
C164 C165 1.379 . S
C165 H143 0.948 . S
C165 C160 1.364 . S
C165 C164 1.379 . S
C166 C135 1.383 . S
C166 C153 1.479 . S
C166 C167 1.398 1_455 S
C167 C132 1.382 . S
C167 H144 0.951 . S
C167 C166 1.398 1_655 S
C168 C169 1.384 . S
C168 H181 0.947 . S
C168 C203 1.382 . S
C169 C168 1.384 . S
C169 C170 1.378 . S
C170 C169 1.378 . S
C170 C171 1.378 . S
C170 H182 0.952 . S
C171 C170 1.378 . S
C171 H183 0.950 . S
C171 C202 1.383 . S
H172 C191 0.947 . S
H173 C192 0.946 . S
H174 C194 0.953 . S
H175 C195 0.945 . S
H176 C197 0.952 . S
H177 C198 0.949 . S
H178 C200 0.950 . S
H179 C201 0.948 . S
H180 C203 0.951 . S
H181 C168 0.947 . S
H182 C170 0.952 . S
H183 C171 0.950 . S
N184 C187 1.382 1_455 S
N184 C189 1.363 . S
N185 C187 1.371 . S
N185 C188 1.372 1_655 S
N186 C188 1.361 . S
N186 C189 1.377 . S
C187 N184 1.382 1_655 S
C187 N185 1.371 . S
C187 C190 1.480 . S
C188 N185 1.372 1_455 S
C188 N186 1.361 . S
C188 C196 1.457 . S
C189 N184 1.363 . S
C189 N186 1.377 . S
C189 C202 1.479 . S
C190 C187 1.480 . S
C190 C191 1.383 . S
C190 C195 1.385 . S
C191 H172 0.947 . S
C191 C190 1.383 . S
C191 C192 1.388 . S
C192 H173 0.946 . S
C192 C191 1.388 . S
C192 C193 1.384 . S
C193 C192 1.384 . S
C193 C194 1.377 . S
C194 H174 0.953 . S
C194 C193 1.377 . S
C194 C195 1.369 . S
C195 H175 0.945 . S
C195 C190 1.385 . S
C195 C194 1.369 . S
C196 C188 1.457 . S
C196 C197 1.372 1_455 S
C196 C201 1.364 . S
C197 H176 0.952 . S
C197 C196 1.372 1_655 S
C197 C198 1.389 . S
C198 H177 0.949 . S
C198 C197 1.389 . S
C198 C199 1.387 1_655 S
C199 C198 1.387 1_455 S
C199 C200 1.372 . S
C200 H178 0.950 . S
C200 C199 1.372 . S
C200 C201 1.379 . S
C201 H179 0.948 . S
C201 C196 1.364 . S
C201 C200 1.379 . S
C202 C171 1.383 . S
C202 C189 1.479 . S
C202 C203 1.398 . S
C203 C168 1.382 . S
C203 H180 0.951 . S
C203 C202 1.398 . S
C204 C205 1.384 . S
C204 H217 0.947 . S
C204 C239 1.382 . S
C205 C204 1.384 . S
C205 C206 1.378 . S
C206 C205 1.378 . S
C206 C207 1.378 . S
C206 H218 0.952 . S
C207 C206 1.378 . S
C207 H219 0.950 . S
C207 C238 1.383 . S
H208 C227 0.947 . S
H209 C228 0.946 . S
H210 C230 0.953 . S
H211 C231 0.945 . S
H212 C233 0.952 . S
H213 C234 0.949 . S
H214 C236 0.950 . S
H215 C237 0.948 . S
H216 C239 0.951 . S
H217 C204 0.947 . S
H218 C206 0.952 . S
H219 C207 0.950 . S
N220 C223 1.382 . S
N220 C225 1.363 . S
N221 C223 1.371 . S
N221 C224 1.372 . S
N222 C224 1.361 . S
N222 C225 1.377 . S
C223 N220 1.382 . S
C223 N221 1.371 . S
C223 C226 1.480 . S
C224 N221 1.372 . S
C224 N222 1.361 . S
C224 C232 1.457 . S
C225 N220 1.363 . S
C225 N222 1.377 . S
C225 C238 1.479 . S
C226 C223 1.480 . S
C226 C227 1.383 . S
C226 C231 1.385 1_545 S
C227 H208 0.947 . S
C227 C226 1.383 . S
C227 C228 1.388 1_545 S
C228 H209 0.946 . S
C228 C227 1.388 1_565 S
C228 C229 1.384 . S
C229 C228 1.384 . S
C229 C230 1.377 . S
C230 H210 0.953 . S
C230 C229 1.377 . S
C230 C231 1.369 . S
C231 H211 0.945 . S
C231 C226 1.385 1_565 S
C231 C230 1.369 . S
C232 C224 1.457 . S
C232 C233 1.372 . S
C232 C237 1.364 . S
C233 H212 0.952 . S
C233 C232 1.372 . S
C233 C234 1.389 . S
C234 H213 0.949 . S
C234 C233 1.389 . S
C234 C235 1.387 . S
C235 C234 1.387 . S
C235 C236 1.372 . S
C236 H214 0.950 . S
C236 C235 1.372 . S
C236 C237 1.379 . S
C237 H215 0.948 . S
C237 C232 1.364 . S
C237 C236 1.379 . S
C238 C207 1.383 . S
C238 C225 1.479 . S
C238 C239 1.398 . S
C239 C204 1.382 . S
C239 H216 0.951 . S
C239 C238 1.398 . S
C240 C241 1.384 . S
C240 H253 0.947 . S
C240 C275 1.382 . S
C241 C240 1.384 . S
C241 C242 1.378 . S
C242 C241 1.378 . S
C242 C243 1.378 . S
C242 H254 0.952 . S
C243 C242 1.378 . S
C243 H255 0.950 . S
C243 C274 1.383 . S
H244 C263 0.947 . S
H245 C264 0.946 . S
H246 C266 0.953 . S
H247 C267 0.945 . S
H248 C269 0.952 . S
H249 C270 0.949 . S
H250 C272 0.950 . S
H251 C273 0.948 . S
H252 C275 0.951 . S
H253 C240 0.947 . S
H254 C242 0.952 . S
H255 C243 0.950 . S
N256 C259 1.382 . S
N256 C261 1.363 . S
N257 C259 1.371 . S
N257 C260 1.372 . S
N258 C260 1.361 . S
N258 C261 1.377 . S
C259 N256 1.382 . S
C259 N257 1.371 . S
C259 C262 1.480 . S
C260 N257 1.372 . S
C260 N258 1.361 . S
C260 C268 1.457 . S
C261 N256 1.363 . S
C261 N258 1.377 . S
C261 C274 1.479 . S
C262 C259 1.480 . S
C262 C263 1.383 . S
C262 C267 1.385 . S
C263 H244 0.947 . S
C263 C262 1.383 . S
C263 C264 1.388 . S
C264 H245 0.946 . S
C264 C263 1.388 . S
C264 C265 1.384 . S
C265 C264 1.384 . S
C265 C266 1.377 . S
C266 H246 0.953 . S
C266 C265 1.377 . S
C266 C267 1.369 . S
C267 H247 0.945 . S
C267 C262 1.385 . S
C267 C266 1.369 . S
C268 C260 1.457 . S
C268 C269 1.372 . S
C268 C273 1.364 . S
C269 H248 0.952 . S
C269 C268 1.372 . S
C269 C270 1.389 . S
C270 H249 0.949 . S
C270 C269 1.389 . S
C270 C271 1.387 . S
C271 C270 1.387 . S
C271 C272 1.372 . S
C272 H250 0.950 . S
C272 C271 1.372 . S
C272 C273 1.379 . S
C273 H251 0.948 . S
C273 C268 1.364 . S
C273 C272 1.379 . S
C274 C243 1.383 . S
C274 C261 1.479 . S
C274 C275 1.398 . S
C275 C240 1.382 . S
C275 H252 0.951 . S
C275 C274 1.398 . S
H276 C284 0.929 . S
H277 C286 0.930 . S
H278 C288 0.930 . S
H279 C291 0.929 . S
H280 C294 0.930 . S
H281 C296 0.960 . S
H282 C296 0.960 . S
H283 C296 0.960 . S
C284 H276 0.929 . S
C284 C285 1.377 . S
C284 C286 1.384 . S
C285 C284 1.377 . S
C285 C291 1.390 . S
C286 H277 0.930 . S
C286 C284 1.384 . S
C286 C287 1.372 . S
C287 C286 1.372 . S
C287 C288 1.400 . S
C287 C292 1.490 . S
C288 H278 0.930 . S
C288 C287 1.400 . S
C288 C291 1.386 . S
H289 C305 0.930 . S
H290 C306 0.931 . S
C291 H279 0.929 . S
C291 C285 1.390 . S
C291 C288 1.386 . S
C292 C287 1.490 . S
C292 C294 1.395 . S
C292 C295 1.403 . S
H293 C299 0.930 . S
C294 H280 0.930 . S
C294 C292 1.395 . S
C294 C297 1.403 . S
C295 C292 1.403 . S
C295 C296 1.524 . S
C295 C299 1.400 . S
C296 H281 0.960 . S
C296 H282 0.960 . S
C296 H283 0.960 . S
C296 C295 1.524 . S
C297 C294 1.403 . S
C297 C298 1.392 . S
C297 C301 1.495 . S
C298 C297 1.392 . S
C298 C299 1.385 . S
C298 C300 1.478 . S
C299 H293 0.930 . S
C299 C295 1.400 . S
C299 C298 1.385 . S
C300 C298 1.478 . S
C300 C302 1.381 . S
C300 C306 1.383 . S
C301 C297 1.495 . S
C301 H307 0.959 . S
C301 H308 0.961 . S
C301 H309 0.960 . S
C302 C300 1.381 . S
C302 C303 1.394 . S
C302 H310 0.930 . S
C303 C302 1.394 . S
C303 C304 1.383 . S
C303 H311 0.929 . S
C304 C303 1.383 . S
C304 C305 1.377 . S
C305 H289 0.930 . S
C305 C304 1.377 . S
C305 C306 1.379 . S
C306 H290 0.931 . S
C306 C300 1.383 . S
C306 C305 1.379 . S
H307 C301 0.959 . S
H308 C301 0.961 . S
H309 C301 0.960 . S
H310 C302 0.930 . S
H311 C303 0.929 . S
H312 C320 0.929 . S
H313 C322 0.930 . S
H314 C324 0.930 . S
H315 C327 0.929 . S
H316 C330 0.930 . S
H317 C332 0.960 . S
H318 C332 0.960 . S
H319 C332 0.960 . S
C320 H312 0.929 . S
C320 C321 1.377 . S
C320 C322 1.384 . S
C321 C320 1.377 . S
C321 C327 1.390 . S
C322 H313 0.930 . S
C322 C320 1.384 . S
C322 C323 1.372 . S
C323 C322 1.372 . S
C323 C324 1.400 . S
C323 C328 1.490 . S
C324 H314 0.930 . S
C324 C323 1.400 . S
C324 C327 1.386 . S
H325 C341 0.930 . S
H326 C342 0.931 . S
C327 H315 0.929 . S
C327 C321 1.390 . S
C327 C324 1.386 . S
C328 C323 1.490 . S
C328 C330 1.395 . S
C328 C331 1.403 . S
H329 C335 0.930 . S
C330 H316 0.930 . S
C330 C328 1.395 . S
C330 C333 1.403 . S
C331 C328 1.403 . S
C331 C332 1.524 . S
C331 C335 1.400 . S
C332 H317 0.960 . S
C332 H318 0.960 . S
C332 H319 0.960 . S
C332 C331 1.524 . S
C333 C330 1.403 . S
C333 C334 1.392 . S
C333 C337 1.495 . S
C334 C333 1.392 . S
C334 C335 1.385 . S
C334 C336 1.478 . S
C335 H329 0.930 . S
C335 C331 1.400 . S
C335 C334 1.385 . S
C336 C334 1.478 . S
C336 C338 1.381 . S
C336 C342 1.383 . S
C337 C333 1.495 . S
C337 H343 0.959 . S
C337 H344 0.961 . S
C337 H345 0.960 . S
C338 C336 1.381 . S
C338 C339 1.394 . S
C338 H346 0.930 . S
C339 C338 1.394 . S
C339 C340 1.383 . S
C339 H347 0.929 . S
C340 C339 1.383 . S
C340 C341 1.377 . S
C341 H325 0.930 . S
C341 C340 1.377 . S
C341 C342 1.379 . S
C342 H326 0.931 . S
C342 C336 1.383 . S
C342 C341 1.379 . S
H343 C337 0.959 . S
H344 C337 0.961 . S
H345 C337 0.960 . S
H346 C338 0.930 . S
H347 C339 0.929 . S
H348 C356 0.929 . S
H349 C358 0.930 . S
H350 C360 0.930 . S
H351 C363 0.929 . S
H352 C366 0.930 . S
H353 C368 0.960 . S
H354 C368 0.960 . S
H355 C368 0.960 . S
C356 H348 0.929 . S
C356 C357 1.377 . S
C356 C358 1.384 . S
C357 C356 1.377 . S
C357 C363 1.390 . S
C358 H349 0.930 . S
C358 C356 1.384 . S
C358 C359 1.372 . S
C359 C358 1.372 . S
C359 C360 1.400 . S
C359 C364 1.490 . S
C360 H350 0.930 . S
C360 C359 1.400 . S
C360 C363 1.386 . S
H361 C377 0.930 . S
H362 C378 0.931 . S
C363 H351 0.929 . S
C363 C357 1.390 . S
C363 C360 1.386 . S
C364 C359 1.490 . S
C364 C366 1.395 . S
C364 C367 1.403 . S
H365 C371 0.930 . S
C366 H352 0.930 . S
C366 C364 1.395 . S
C366 C369 1.403 . S
C367 C364 1.403 . S
C367 C368 1.524 . S
C367 C371 1.400 . S
C368 H353 0.960 . S
C368 H354 0.960 . S
C368 H355 0.960 . S
C368 C367 1.524 . S
C369 C366 1.403 . S
C369 C370 1.392 . S
C369 C373 1.495 . S
C370 C369 1.392 . S
C370 C371 1.385 . S
C370 C372 1.478 . S
C371 H365 0.930 . S
C371 C367 1.400 . S
C371 C370 1.385 . S
C372 C370 1.478 . S
C372 C374 1.381 . S
C372 C378 1.383 . S
C373 C369 1.495 . S
C373 H379 0.959 . S
C373 H380 0.961 . S
C373 H381 0.960 . S
C374 C372 1.381 . S
C374 C375 1.394 . S
C374 H382 0.930 . S
C375 C374 1.394 . S
C375 C376 1.383 . S
C375 H383 0.929 . S
C376 C375 1.383 . S
C376 C377 1.377 . S
C377 H361 0.930 . S
C377 C376 1.377 . S
C377 C378 1.379 . S
C378 H362 0.931 . S
C378 C372 1.383 . S
C378 C377 1.379 . S
H379 C373 0.959 . S
H380 C373 0.961 . S
H381 C373 0.960 . S
H382 C374 0.930 . S
H383 C375 0.929 . S
H384 C392 0.929 . S
H385 C394 0.930 . S
H386 C396 0.930 . S
H387 C399 0.929 . S
H388 C402 0.930 . S
H389 C404 0.960 . S
H390 C404 0.960 . S
H391 C404 0.960 . S
C392 H384 0.929 . S
C392 C393 1.377 . S
C392 C394 1.384 . S
C393 C392 1.377 . S
C393 C399 1.390 . S
C394 H385 0.930 . S
C394 C392 1.384 . S
C394 C395 1.372 . S
C395 C394 1.372 . S
C395 C396 1.400 . S
C395 C400 1.490 . S
C396 H386 0.930 . S
C396 C395 1.400 . S
C396 C399 1.386 . S
H397 C413 0.930 . S
H398 C414 0.931 . S
C399 H387 0.929 . S
C399 C393 1.390 . S
C399 C396 1.386 . S
C400 C395 1.490 . S
C400 C402 1.395 . S
C400 C403 1.403 . S
H401 C407 0.930 . S
C402 H388 0.930 . S
C402 C400 1.395 . S
C402 C405 1.403 . S
C403 C400 1.403 . S
C403 C404 1.524 . S
C403 C407 1.400 . S
C404 H389 0.960 . S
C404 H390 0.960 . S
C404 H391 0.960 . S
C404 C403 1.524 . S
C405 C402 1.403 . S
C405 C406 1.392 . S
C405 C409 1.495 . S
C406 C405 1.392 . S
C406 C407 1.385 . S
C406 C408 1.478 . S
C407 H401 0.930 . S
C407 C403 1.400 . S
C407 C406 1.385 . S
C408 C406 1.478 . S
C408 C410 1.381 . S
C408 C414 1.383 . S
C409 C405 1.495 . S
C409 H415 0.959 . S
C409 H416 0.961 . S
C409 H417 0.960 . S
C410 C408 1.381 . S
C410 C411 1.394 . S
C410 H418 0.930 . S
C411 C410 1.394 . S
C411 C412 1.383 . S
C411 H419 0.929 . S
C412 C411 1.383 . S
C412 C413 1.377 . S
C413 H397 0.930 . S
C413 C412 1.377 . S
C413 C414 1.379 . S
C414 H398 0.931 . S
C414 C408 1.383 . S
C414 C413 1.379 . S
H415 C409 0.959 . S
H416 C409 0.961 . S
H417 C409 0.960 . S
H418 C410 0.930 . S
H419 C411 0.929 . S
H420 C428 0.929 . S
H421 C430 0.930 . S
H422 C432 0.930 . S
H423 C435 0.929 . S
H424 C438 0.930 . S
H425 C440 0.960 . S
H426 C440 0.960 . S
H427 C440 0.960 . S
C428 H420 0.929 . S
C428 C429 1.377 . S
C428 C430 1.384 . S
C429 C428 1.377 . S
C429 C435 1.390 . S
C430 H421 0.930 . S
C430 C428 1.384 . S
C430 C431 1.372 . S
C431 C430 1.372 . S
C431 C432 1.400 . S
C431 C436 1.490 . S
C432 H422 0.930 . S
C432 C431 1.400 . S
C432 C435 1.386 . S
H433 C449 0.930 . S
H434 C450 0.931 . S
C435 H423 0.929 . S
C435 C429 1.390 . S
C435 C432 1.386 . S
C436 C431 1.490 . S
C436 C438 1.395 . S
C436 C439 1.403 . S
H437 C443 0.930 . S
C438 H424 0.930 . S
C438 C436 1.395 . S
C438 C441 1.403 . S
C439 C436 1.403 . S
C439 C440 1.524 . S
C439 C443 1.400 . S
C440 H425 0.960 . S
C440 H426 0.960 . S
C440 H427 0.960 . S
C440 C439 1.524 . S
C441 C438 1.403 . S
C441 C442 1.392 . S
C441 C445 1.495 . S
C442 C441 1.392 . S
C442 C443 1.385 . S
C442 C444 1.478 . S
C443 H437 0.930 . S
C443 C439 1.400 . S
C443 C442 1.385 . S
C444 C442 1.478 . S
C444 C446 1.381 . S
C444 C450 1.383 . S
C445 C441 1.495 . S
C445 H451 0.959 . S
C445 H452 0.961 . S
C445 H453 0.960 . S
C446 C444 1.381 . S
C446 C447 1.394 . S
C446 H454 0.930 . S
C447 C446 1.394 . S
C447 C448 1.383 . S
C447 H455 0.929 . S
C448 C447 1.383 . S
C448 C449 1.377 . S
C449 H433 0.930 . S
C449 C448 1.377 . S
C449 C450 1.379 . S
C450 H434 0.931 . S
C450 C444 1.383 . S
C450 C449 1.379 . S
H451 C445 0.959 . S
H452 C445 0.961 . S
H453 C445 0.960 . S
H454 C446 0.930 . S
H455 C447 0.929 . S
H456 C464 0.929 . S
H457 C466 0.930 . S
H458 C468 0.930 . S
H459 C471 0.929 . S
H460 C474 0.930 . S
H461 C476 0.960 . S
H462 C476 0.960 . S
H463 C476 0.960 . S
C464 H456 0.929 . S
C464 C465 1.377 . S
C464 C466 1.384 . S
C465 C464 1.377 . S
C465 C471 1.390 . S
C466 H457 0.930 . S
C466 C464 1.384 . S
C466 C467 1.372 . S
C467 C466 1.372 . S
C467 C468 1.400 . S
C467 C472 1.490 . S
C468 H458 0.930 . S
C468 C467 1.400 . S
C468 C471 1.386 . S
H469 C485 0.930 . S
H470 C486 0.931 . S
C471 H459 0.929 . S
C471 C465 1.390 . S
C471 C468 1.386 . S
C472 C467 1.490 . S
C472 C474 1.395 . S
C472 C475 1.403 . S
H473 C479 0.930 . S
C474 H460 0.930 . S
C474 C472 1.395 . S
C474 C477 1.403 . S
C475 C472 1.403 . S
C475 C476 1.524 . S
C475 C479 1.400 . S
C476 H461 0.960 . S
C476 H462 0.960 . S
C476 H463 0.960 . S
C476 C475 1.524 . S
C477 C474 1.403 . S
C477 C478 1.392 . S
C477 C481 1.495 . S
C478 C477 1.392 . S
C478 C479 1.385 . S
C478 C480 1.478 . S
C479 H473 0.930 . S
C479 C475 1.400 . S
C479 C478 1.385 . S
C480 C478 1.478 . S
C480 C482 1.381 . S
C480 C486 1.383 . S
C481 C477 1.495 . S
C481 H487 0.959 . S
C481 H488 0.961 . S
C481 H489 0.960 . S
C482 C480 1.381 . S
C482 C483 1.394 . S
C482 H490 0.930 . S
C483 C482 1.394 . S
C483 C484 1.383 . S
C483 H491 0.929 . S
C484 C483 1.383 . S
C484 C485 1.377 . S
C485 H469 0.930 . S
C485 C484 1.377 . S
C485 C486 1.379 . S
C486 H470 0.931 . S
C486 C480 1.383 . S
C486 C485 1.379 . S
H487 C481 0.959 . S
H488 C481 0.961 . S
H489 C481 0.960 . S
H490 C482 0.930 . S
H491 C483 0.929 . S
H492 C500 0.929 . S
H493 C502 0.930 . S
H494 C504 0.930 . S
H495 C507 0.929 . S
H496 C510 0.930 . S
H497 C512 0.960 . S
H498 C512 0.960 . S
H499 C512 0.960 . S
C500 H492 0.929 . S
C500 C501 1.377 . S
C500 C502 1.384 . S
C501 C500 1.377 . S
C501 C507 1.390 . S
C502 H493 0.930 . S
C502 C500 1.384 . S
C502 C503 1.372 . S
C503 C502 1.372 . S
C503 C504 1.400 . S
C503 C508 1.490 . S
C504 H494 0.930 . S
C504 C503 1.400 . S
C504 C507 1.386 . S
H505 C521 0.930 . S
H506 C522 0.931 . S
C507 H495 0.929 . S
C507 C501 1.390 . S
C507 C504 1.386 . S
C508 C503 1.490 . S
C508 C510 1.395 . S
C508 C511 1.403 . S
H509 C515 0.930 . S
C510 H496 0.930 . S
C510 C508 1.395 . S
C510 C513 1.403 . S
C511 C508 1.403 . S
C511 C512 1.524 . S
C511 C515 1.400 . S
C512 H497 0.960 . S
C512 H498 0.960 . S
C512 H499 0.960 . S
C512 C511 1.524 . S
C513 C510 1.403 . S
C513 C514 1.392 . S
C513 C517 1.495 . S
C514 C513 1.392 . S
C514 C515 1.385 . S
C514 C516 1.478 . S
C515 H509 0.930 . S
C515 C511 1.400 . S
C515 C514 1.385 . S
C516 C514 1.478 . S
C516 C518 1.381 . S
C516 C522 1.383 . S
C517 C513 1.495 . S
C517 H523 0.959 . S
C517 H524 0.961 . S
C517 H525 0.960 . S
C518 C516 1.381 . S
C518 C519 1.394 . S
C518 H526 0.930 . S
C519 C518 1.394 . S
C519 C520 1.383 . S
C519 H527 0.929 . S
C520 C519 1.383 . S
C520 C521 1.377 . S
C521 H505 0.930 . S
C521 C520 1.377 . S
C521 C522 1.379 . S
C522 H506 0.931 . S
C522 C516 1.383 . S
C522 C521 1.379 . S
H523 C517 0.959 . S
H524 C517 0.961 . S
H525 C517 0.960 . S
H526 C518 0.930 . S
H527 C519 0.929 . S
H528 C536 0.929 . S
H529 C538 0.930 . S
H530 C540 0.930 . S
H531 C543 0.929 . S
H532 C546 0.930 . S
H533 C548 0.960 . S
H534 C548 0.960 . S
H535 C548 0.960 . S
C536 H528 0.929 . S
C536 C537 1.377 . S
C536 C538 1.384 . S
C537 C536 1.377 . S
C537 C543 1.390 . S
C538 H529 0.930 . S
C538 C536 1.384 . S
C538 C539 1.372 . S
C539 C538 1.372 . S
C539 C540 1.400 . S
C539 C544 1.490 . S
C540 H530 0.930 . S
C540 C539 1.400 . S
C540 C543 1.386 . S
H541 C557 0.930 . S
H542 C558 0.931 . S
C543 H531 0.929 . S
C543 C537 1.390 . S
C543 C540 1.386 . S
C544 C539 1.490 . S
C544 C546 1.395 . S
C544 C547 1.403 . S
H545 C551 0.930 . S
C546 H532 0.930 . S
C546 C544 1.395 . S
C546 C549 1.403 . S
C547 C544 1.403 . S
C547 C548 1.524 . S
C547 C551 1.400 . S
C548 H533 0.960 . S
C548 H534 0.960 . S
C548 H535 0.960 . S
C548 C547 1.524 . S
C549 C546 1.403 . S
C549 C550 1.392 . S
C549 C553 1.495 . S
C550 C549 1.392 . S
C550 C551 1.385 . S
C550 C552 1.478 . S
C551 H545 0.930 . S
C551 C547 1.400 . S
C551 C550 1.385 . S
C552 C550 1.478 . S
C552 C554 1.381 . S
C552 C558 1.383 . S
C553 C549 1.495 . S
C553 H559 0.959 . S
C553 H560 0.961 . S
C553 H561 0.960 . S
C554 C552 1.381 . S
C554 C555 1.394 . S
C554 H562 0.930 . S
C555 C554 1.394 . S
C555 C556 1.383 . S
C555 H563 0.929 . S
C556 C555 1.383 . S
C556 C557 1.377 . S
C557 H541 0.930 . S
C557 C556 1.377 . S
C557 C558 1.379 . S
C558 H542 0.931 . S
C558 C552 1.383 . S
C558 C557 1.379 . S
H559 C553 0.959 . S
H560 C553 0.961 . S
H561 C553 0.960 . S
H562 C554 0.930 . S
H563 C555 0.929 . S
H564 C572 0.929 . S
H565 C574 0.930 . S
H566 C576 0.930 . S
H567 C579 0.929 . S
H568 C582 0.930 . S
H569 C584 0.960 . S
H570 C584 0.960 . S
H571 C584 0.960 . S
C572 H564 0.929 . S
C572 C573 1.377 . S
C572 C574 1.384 . S
C573 C572 1.377 . S
C573 C579 1.390 . S
C574 H565 0.930 . S
C574 C572 1.384 . S
C574 C575 1.372 . S
C575 C574 1.372 . S
C575 C576 1.400 . S
C575 C580 1.490 . S
C576 H566 0.930 . S
C576 C575 1.400 . S
C576 C579 1.386 . S
H577 C593 0.930 . S
H578 C594 0.931 . S
C579 H567 0.929 . S
C579 C573 1.390 . S
C579 C576 1.386 . S
C580 C575 1.490 . S
C580 C582 1.395 . S
C580 C583 1.403 . S
H581 C587 0.930 . S
C582 H568 0.930 . S
C582 C580 1.395 . S
C582 C585 1.403 . S
C583 C580 1.403 . S
C583 C584 1.524 . S
C583 C587 1.400 . S
C584 H569 0.960 . S
C584 H570 0.960 . S
C584 H571 0.960 . S
C584 C583 1.524 . S
C585 C582 1.403 . S
C585 C586 1.392 . S
C585 C589 1.495 . S
C586 C585 1.392 . S
C586 C587 1.385 . S
C586 C588 1.478 . S
C587 H581 0.930 . S
C587 C583 1.400 . S
C587 C586 1.385 . S
C588 C586 1.478 . S
C588 C590 1.381 . S
C588 C594 1.383 . S
C589 C585 1.495 . S
C589 H595 0.959 . S
C589 H596 0.961 . S
C589 H597 0.960 . S
C590 C588 1.381 . S
C590 C591 1.394 . S
C590 H598 0.930 . S
C591 C590 1.394 . S
C591 C592 1.383 . S
C591 H599 0.929 . S
C592 C591 1.383 . S
C592 C593 1.377 . S
C593 H577 0.930 . S
C593 C592 1.377 . S
C593 C594 1.379 . S
C594 H578 0.931 . S
C594 C588 1.383 . S
C594 C593 1.379 . S
H595 C589 0.959 . S
H596 C589 0.961 . S
H597 C589 0.960 . S
H598 C590 0.930 . S
H599 C591 0.929 . S
H600 C608 0.929 . S
H601 C610 0.930 . S
H602 C612 0.930 . S
H603 C615 0.929 . S
H604 C618 0.930 . S
H605 C620 0.960 . S
H606 C620 0.960 . S
H607 C620 0.960 . S
C608 H600 0.929 . S
C608 C609 1.377 . S
C608 C610 1.384 . S
C609 C608 1.377 . S
C609 C615 1.390 . S
C610 H601 0.930 . S
C610 C608 1.384 . S
C610 C611 1.372 . S
C611 C610 1.372 . S
C611 C612 1.400 . S
C611 C616 1.490 . S
C612 H602 0.930 . S
C612 C611 1.400 . S
C612 C615 1.386 . S
H613 C629 0.930 . S
H614 C630 0.931 . S
C615 H603 0.929 . S
C615 C609 1.390 . S
C615 C612 1.386 . S
C616 C611 1.490 . S
C616 C618 1.395 . S
C616 C619 1.403 . S
H617 C623 0.930 . S
C618 H604 0.930 . S
C618 C616 1.395 . S
C618 C621 1.403 . S
C619 C616 1.403 . S
C619 C620 1.524 . S
C619 C623 1.400 . S
C620 H605 0.960 . S
C620 H606 0.960 . S
C620 H607 0.960 . S
C620 C619 1.524 . S
C621 C618 1.403 . S
C621 C622 1.392 . S
C621 C625 1.495 . S
C622 C621 1.392 . S
C622 C623 1.385 . S
C622 C624 1.478 . S
C623 H617 0.930 . S
C623 C619 1.400 . S
C623 C622 1.385 . S
C624 C622 1.478 . S
C624 C626 1.381 . S
C624 C630 1.383 . S
C625 C621 1.495 . S
C625 H631 0.959 . S
C625 H632 0.961 . S
C625 H633 0.960 . S
C626 C624 1.381 . S
C626 C627 1.394 . S
C626 H634 0.930 . S
C627 C626 1.394 . S
C627 C628 1.383 . S
C627 H635 0.929 . S
C628 C627 1.383 . S
C628 C629 1.377 . S
C629 H613 0.930 . S
C629 C628 1.377 . S
C629 C630 1.379 . S
C630 H614 0.931 . S
C630 C624 1.383 . S
C630 C629 1.379 . S
H631 C625 0.959 . S
H632 C625 0.961 . S
H633 C625 0.960 . S
H634 C626 0.930 . S
H635 C627 0.929 . S
H636 C644 0.929 . S
H637 C646 0.930 . S
H638 C648 0.930 . S
H639 C651 0.929 . S
H640 C654 0.930 . S
H641 C656 0.960 . S
H642 C656 0.960 . S
H643 C656 0.960 . S
C644 H636 0.929 . S
C644 C645 1.377 . S
C644 C646 1.384 . S
C645 C644 1.377 . S
C645 C651 1.390 . S
C646 H637 0.930 . S
C646 C644 1.384 . S
C646 C647 1.372 . S
C647 C646 1.372 . S
C647 C648 1.400 . S
C647 C652 1.490 . S
C648 H638 0.930 . S
C648 C647 1.400 . S
C648 C651 1.386 . S
H649 C665 0.930 . S
H650 C666 0.931 . S
C651 H639 0.929 . S
C651 C645 1.390 . S
C651 C648 1.386 . S
C652 C647 1.490 . S
C652 C654 1.395 . S
C652 C655 1.403 . S
H653 C659 0.930 . S
C654 H640 0.930 . S
C654 C652 1.395 . S
C654 C657 1.403 . S
C655 C652 1.403 . S
C655 C656 1.524 . S
C655 C659 1.400 . S
C656 H641 0.960 . S
C656 H642 0.960 . S
C656 H643 0.960 . S
C656 C655 1.524 . S
C657 C654 1.403 . S
C657 C658 1.392 . S
C657 C661 1.495 . S
C658 C657 1.392 . S
C658 C659 1.385 . S
C658 C660 1.478 . S
C659 H653 0.930 . S
C659 C655 1.400 . S
C659 C658 1.385 . S
C660 C658 1.478 . S
C660 C662 1.381 . S
C660 C666 1.383 . S
C661 C657 1.495 . S
C661 H667 0.959 . S
C661 H668 0.961 . S
C661 H669 0.960 . S
C662 C660 1.381 . S
C662 C663 1.394 . S
C662 H670 0.930 . S
C663 C662 1.394 . S
C663 C664 1.383 . S
C663 H671 0.929 . S
C664 C663 1.383 . S
C664 C665 1.377 . S
C665 H649 0.930 . S
C665 C664 1.377 . S
C665 C666 1.379 . S
C666 H650 0.931 . S
C666 C660 1.383 . S
C666 C665 1.379 . S
H667 C661 0.959 . S
H668 C661 0.961 . S
H669 C661 0.960 . S
H670 C662 0.930 . S
H671 C663 0.929 . S
H672 C680 0.929 . S
H673 C682 0.930 . S
H674 C684 0.930 . S
H675 C687 0.929 . S
H676 C690 0.930 . S
H677 C692 0.960 . S
H678 C692 0.960 . S
H679 C692 0.960 . S
C680 H672 0.929 . S
C680 C681 1.377 . S
C680 C682 1.384 . S
C681 C680 1.377 . S
C681 C687 1.390 . S
C682 H673 0.930 . S
C682 C680 1.384 . S
C682 C683 1.372 . S
C683 C682 1.372 . S
C683 C684 1.400 . S
C683 C688 1.490 . S
C684 H674 0.930 . S
C684 C683 1.400 . S
C684 C687 1.386 . S
H685 C701 0.930 . S
H686 C702 0.931 . S
C687 H675 0.929 . S
C687 C681 1.390 . S
C687 C684 1.386 . S
C688 C683 1.490 . S
C688 C690 1.395 . S
C688 C691 1.403 . S
H689 C695 0.930 . S
C690 H676 0.930 . S
C690 C688 1.395 . S
C690 C693 1.403 . S
C691 C688 1.403 . S
C691 C692 1.524 . S
C691 C695 1.400 . S
C692 H677 0.960 . S
C692 H678 0.960 . S
C692 H679 0.960 . S
C692 C691 1.524 . S
C693 C690 1.403 . S
C693 C694 1.392 . S
C693 C697 1.495 . S
C694 C693 1.392 . S
C694 C695 1.385 . S
C694 C696 1.478 . S
C695 H689 0.930 . S
C695 C691 1.400 . S
C695 C694 1.385 . S
C696 C694 1.478 . S
C696 C698 1.381 . S
C696 C702 1.383 . S
C697 C693 1.495 . S
C697 H703 0.959 . S
C697 H704 0.961 . S
C697 H705 0.960 . S
C698 C696 1.381 . S
C698 C699 1.394 . S
C698 H706 0.930 . S
C699 C698 1.394 . S
C699 C700 1.383 . S
C699 H707 0.929 . S
C700 C699 1.383 . S
C700 C701 1.377 . S
C701 H685 0.930 . S
C701 C700 1.377 . S
C701 C702 1.379 . S
C702 H686 0.931 . S
C702 C696 1.383 . S
C702 C701 1.379 . S
H703 C697 0.959 . S
H704 C697 0.961 . S
H705 C697 0.960 . S
H706 C698 0.930 . S
H707 C699 0.929 . S
H708 C716 0.929 . S
H709 C718 0.930 . S
H710 C720 0.930 . S
H711 C723 0.929 . S
H712 C726 0.930 . S
H713 C728 0.960 . S
H714 C728 0.960 . S
H715 C728 0.964 . S
C716 H708 0.929 . S
C716 C717 1.377 . S
C716 C718 1.384 . S
C717 C716 1.377 . S
C717 C723 1.390 . S
C718 H709 0.930 . S
C718 C716 1.384 . S
C718 C719 1.372 . S
C719 C718 1.372 . S
C719 C720 1.400 . S
C719 C724 1.490 . S
C720 H710 0.930 . S
C720 C719 1.400 . S
C720 C723 1.386 . S
H721 C737 0.930 . S
H722 C738 0.931 . S
C723 H711 0.929 . S
C723 C717 1.390 . S
C723 C720 1.386 . S
C724 C719 1.490 . S
C724 C726 1.395 . S
C724 C727 1.403 . S
H725 C731 0.930 . S
C726 H712 0.930 . S
C726 C724 1.395 . S
C726 C729 1.403 . S
C727 C724 1.403 . S
C727 C728 1.524 1_455 S
C727 C731 1.400 . S
C728 H713 0.960 . S
C728 H714 0.960 . S
C728 H715 0.964 . S
C728 C727 1.524 1_655 S
C729 C726 1.403 . S
C729 C730 1.392 . S
C729 C733 1.495 . S
C730 C729 1.392 . S
C730 C731 1.385 . S
C730 C732 1.478 . S
C731 H725 0.930 . S
C731 C727 1.400 . S
C731 C730 1.385 . S
C732 C730 1.478 . S
C732 C734 1.381 . S
C732 C738 1.383 . S
C733 C729 1.495 . S
C733 H739 0.959 . S
C733 H740 0.961 . S
C733 H741 0.960 . S
C734 C732 1.381 . S
C734 C735 1.394 1_554 S
C734 H742 0.930 . S
C735 C734 1.394 1_556 S
C735 C736 1.383 . S
C735 H743 0.929 . S
C736 C735 1.383 . S
C736 C737 1.377 . S
C737 H721 0.930 . S
C737 C736 1.377 . S
C737 C738 1.379 1_556 S
C738 H722 0.931 . S
C738 C732 1.383 . S
C738 C737 1.379 1_554 S
H739 C733 0.959 . S
H740 C733 0.961 . S
H741 C733 0.960 . S
H742 C734 0.930 . S
H743 C735 0.929 . S
H744 C752 0.929 . S
H745 C754 0.930 . S
H746 C756 0.930 . S
H747 C759 0.929 . S
H748 C762 0.930 1_565 S
H749 C764 0.960 . S
H750 C764 0.960 . S
H751 C764 0.960 . S
C752 H744 0.929 . S
C752 C753 1.377 . S
C752 C754 1.384 . S
C753 C752 1.377 . S
C753 C759 1.390 . S
C754 H745 0.930 . S
C754 C752 1.384 . S
C754 C755 1.372 . S
C755 C754 1.372 . S
C755 C756 1.400 . S
C755 C760 1.490 . S
C756 H746 0.930 . S
C756 C755 1.400 . S
C756 C759 1.386 . S
H757 C773 0.930 1_565 S
H758 C774 0.931 1_565 S
C759 H747 0.929 . S
C759 C753 1.390 . S
C759 C756 1.386 . S
C760 C755 1.490 . S
C760 C762 1.395 . S
C760 C763 1.403 . S
H761 C767 0.930 . S
C762 H748 0.930 1_545 S
C762 C760 1.395 . S
C762 C765 1.403 1_545 S
C763 C760 1.403 . S
C763 C764 1.524 . S
C763 C767 1.400 . S
C764 H749 0.960 . S
C764 H750 0.960 . S
C764 H751 0.960 . S
C764 C763 1.524 . S
C765 C762 1.403 1_565 S
C765 C766 1.392 1_565 S
C765 C769 1.495 . S
C766 C765 1.392 1_545 S
C766 C767 1.385 . S
C766 C768 1.478 . S
C767 H761 0.930 . S
C767 C763 1.400 . S
C767 C766 1.385 . S
C768 C766 1.478 . S
C768 C770 1.381 . S
C768 C774 1.383 . S
C769 C765 1.495 . S
C769 H775 0.959 . S
C769 H776 0.961 . S
C769 H777 0.960 . S
C770 C768 1.381 . S
C770 C771 1.394 . S
C770 H778 0.930 . S
C771 C770 1.394 . S
C771 C772 1.383 . S
C771 H779 0.929 . S
C772 C771 1.383 . S
C772 C773 1.377 . S
C773 H757 0.930 1_545 S
C773 C772 1.377 . S
C773 C774 1.379 . S
C774 H758 0.931 1_545 S
C774 C768 1.383 . S
C774 C773 1.379 . S
H775 C769 0.959 . S
H776 C769 0.961 . S
H777 C769 0.960 . S
H778 C770 0.930 . S
H779 C771 0.929 . S
H780 C788 0.929 . S
H781 C790 0.930 . S
H782 C792 0.930 . S
H783 C795 0.929 . S
H784 C798 0.930 . S
H785 C800 0.960 . S
H786 C800 0.960 . S
H787 C800 0.960 . S
C788 H780 0.929 . S
C788 C789 1.377 . S
C788 C790 1.384 . S
C789 C788 1.377 . S
C789 C795 1.390 . S
C790 H781 0.930 . S
C790 C788 1.384 . S
C790 C791 1.372 . S
C791 C790 1.372 . S
C791 C792 1.400 . S
C791 C796 1.490 . S
C792 H782 0.930 . S
C792 C791 1.400 . S
C792 C795 1.386 . S
H793 C809 0.930 . S
H794 C810 0.931 . S
C795 H783 0.929 . S
C795 C789 1.390 . S
C795 C792 1.386 . S
C796 C791 1.490 . S
C796 C798 1.395 . S
C796 C799 1.403 . S
H797 C803 0.930 . S
C798 H784 0.930 . S
C798 C796 1.395 . S
C798 C801 1.403 . S
C799 C796 1.403 . S
C799 C800 1.524 . S
C799 C803 1.400 . S
C800 H785 0.960 . S
C800 H786 0.960 . S
C800 H787 0.960 . S
C800 C799 1.524 . S
C801 C798 1.403 . S
C801 C802 1.392 . S
C801 C805 1.495 . S
C802 C801 1.392 . S
C802 C803 1.385 . S
C802 C804 1.478 . S
C803 H797 0.930 . S
C803 C799 1.400 . S
C803 C802 1.385 . S
C804 C802 1.478 . S
C804 C806 1.381 . S
C804 C810 1.383 . S
C805 C801 1.495 . S
C805 H811 0.959 . S
C805 H812 0.961 . S
C805 H813 0.960 . S
C806 C804 1.381 . S
C806 C807 1.394 . S
C806 H814 0.930 . S
C807 C806 1.394 . S
C807 C808 1.383 . S
C807 H815 0.929 . S
C808 C807 1.383 . S
C808 C809 1.377 . S
C809 H793 0.930 . S
C809 C808 1.377 . S
C809 C810 1.379 . S
C810 H794 0.931 . S
C810 C804 1.383 . S
C810 C809 1.379 . S
H811 C805 0.959 . S
H812 C805 0.961 . S
H813 C805 0.960 . S
H814 C806 0.930 . S
H815 C807 0.929 . S
H816 C824 0.929 . S
H817 C826 0.930 . S
H818 C828 0.930 . S
H819 C831 0.929 . S
H820 C834 0.930 1_565 S
H821 C836 0.960 . S
H822 C836 0.960 . S
H823 C836 0.960 . S
C824 H816 0.929 . S
C824 C825 1.377 . S
C824 C826 1.384 . S
C825 C824 1.377 . S
C825 C831 1.390 . S
C826 H817 0.930 . S
C826 C824 1.384 . S
C826 C827 1.372 . S
C827 C826 1.372 . S
C827 C828 1.400 . S
C827 C832 1.490 . S
C828 H818 0.930 . S
C828 C827 1.400 . S
C828 C831 1.386 . S
H829 C845 0.930 . S
H830 C846 0.931 . S
C831 H819 0.929 . S
C831 C825 1.390 . S
C831 C828 1.386 . S
C832 C827 1.490 . S
C832 C834 1.395 . S
C832 C835 1.403 . S
H833 C839 0.930 . S
C834 H820 0.930 1_545 S
C834 C832 1.395 . S
C834 C837 1.403 . S
C835 C832 1.403 . S
C835 C836 1.524 . S
C835 C839 1.400 . S
C836 H821 0.960 . S
C836 H822 0.960 . S
C836 H823 0.960 . S
C836 C835 1.524 . S
C837 C834 1.403 . S
C837 C838 1.392 . S
C837 C841 1.495 1_545 S
C838 C837 1.392 . S
C838 C839 1.385 . S
C838 C840 1.478 . S
C839 H833 0.930 . S
C839 C835 1.400 . S
C839 C838 1.385 . S
C840 C838 1.478 . S
C840 C842 1.381 . S
C840 C846 1.383 . S
C841 C837 1.495 1_565 S
C841 H847 0.959 . S
C841 H848 0.961 . S
C841 H849 0.960 . S
C842 C840 1.381 . S
C842 C843 1.394 . S
C842 H850 0.930 . S
C843 C842 1.394 . S
C843 C844 1.383 . S
C843 H851 0.929 . S
C844 C843 1.383 . S
C844 C845 1.377 . S
C845 H829 0.930 . S
C845 C844 1.377 . S
C845 C846 1.379 . S
C846 H830 0.931 . S
C846 C840 1.383 . S
C846 C845 1.379 . S
H847 C841 0.959 . S
H848 C841 0.961 . S
H849 C841 0.960 . S
H850 C842 0.930 . S
H851 C843 0.929 . S
H852 C860 0.929 . S
H853 C862 0.930 . S
H854 C864 0.930 . S
H855 C867 0.929 . S
H856 C870 0.930 . S
H857 C872 0.960 . S
H858 C872 0.960 . S
H859 C872 0.960 . S
C860 H852 0.929 . S
C860 C861 1.377 . S
C860 C862 1.384 . S
C861 C860 1.377 . S
C861 C867 1.390 . S
C862 H853 0.930 . S
C862 C860 1.384 . S
C862 C863 1.372 . S
C863 C862 1.372 . S
C863 C864 1.400 . S
C863 C868 1.490 . S
C864 H854 0.930 . S
C864 C863 1.400 . S
C864 C867 1.386 . S
H865 C881 0.930 . S
H866 C882 0.968 . S
C867 H855 0.929 . S
C867 C861 1.390 . S
C867 C864 1.386 . S
C868 C863 1.490 . S
C868 C870 1.395 . S
C868 C871 1.403 . S
H869 C875 0.930 . S
C870 H856 0.930 . S
C870 C868 1.395 . S
C870 C873 1.403 . S
C871 C868 1.403 . S
C871 C872 1.524 . S
C871 C875 1.400 . S
C872 H857 0.960 . S
C872 H858 0.960 . S
C872 H859 0.960 . S
C872 C871 1.524 . S
C873 C870 1.403 . S
C873 C874 1.392 . S
C873 C877 1.495 . S
C874 C873 1.392 . S
C874 C875 1.385 . S
C874 C876 1.478 . S
C875 H869 0.930 . S
C875 C871 1.400 . S
C875 C874 1.385 . S
C876 C874 1.478 . S
C876 C878 1.381 . S
C876 C882 1.421 . S
C877 C873 1.495 . S
C877 H883 0.959 . S
C877 H884 0.961 . S
C877 H885 0.960 . S
C878 C876 1.381 . S
C878 C879 1.394 1_556 S
C878 H886 0.930 . S
C879 C878 1.394 1_554 S
C879 C880 1.383 . S
C879 H887 0.929 . S
C880 C879 1.383 . S
C880 C881 1.377 . S
C881 H865 0.930 . S
C881 C880 1.377 . S
C881 C882 1.308 1_554 S
C882 H866 0.968 . S
C882 C876 1.421 . S
C882 C881 1.308 1_556 S
H883 C877 0.959 . S
H884 C877 0.961 . S
H885 C877 0.960 . S
H886 C878 0.930 . S
H887 C879 0.929 . S
H888 C896 0.929 . S
H889 C898 0.930 . S
H890 C900 0.930 . S
H891 C903 0.929 . S
H892 C906 0.930 . S
H893 C908 0.960 . S
H894 C908 0.960 1_655 S
H895 C908 0.960 . S
C896 H888 0.929 . S
C896 C897 1.377 1_655 S
C896 C898 1.384 . S
C897 C896 1.377 1_455 S
C897 C903 1.390 . S
C898 H889 0.930 . S
C898 C896 1.384 . S
C898 C899 1.372 1_655 S
C899 C898 1.372 1_455 S
C899 C900 1.400 . S
C899 C904 1.490 . S
C900 H890 0.930 . S
C900 C899 1.400 . S
C900 C903 1.386 . S
H901 C917 0.930 . S
H902 C918 0.931 . S
C903 H891 0.929 . S
C903 C897 1.390 . S
C903 C900 1.386 . S
C904 C899 1.490 . S
C904 C906 1.395 . S
C904 C907 1.403 . S
H905 C911 0.930 . S
C906 H892 0.930 . S
C906 C904 1.395 . S
C906 C909 1.403 . S
C907 C904 1.403 . S
C907 C908 1.524 . S
C907 C911 1.400 . S
C908 H893 0.960 . S
C908 H894 0.960 1_455 S
C908 H895 0.960 . S
C908 C907 1.524 . S
C909 C906 1.403 . S
C909 C910 1.392 . S
C909 C913 1.495 . S
C910 C909 1.392 . S
C910 C911 1.385 . S
C910 C912 1.478 . S
C911 H905 0.930 . S
C911 C907 1.400 . S
C911 C910 1.385 . S
C912 C910 1.478 . S
C912 C914 1.381 1_455 S
C912 C918 1.383 . S
C913 C909 1.495 . S
C913 H919 0.959 . S
C913 H920 0.961 . S
C913 H921 0.942 1_455 S
C914 C912 1.381 1_655 S
C914 C915 1.394 . S
C914 H922 0.930 . S
C915 C914 1.394 . S
C915 C916 1.383 1_655 S
C915 H923 0.929 . S
C916 C915 1.383 1_455 S
C916 C917 1.377 . S
C917 H901 0.930 . S
C917 C916 1.377 . S
C917 C918 1.379 . S
C918 H902 0.931 . S
C918 C912 1.383 . S
C918 C917 1.379 . S
H919 C913 0.959 . S
H920 C913 0.961 . S
H921 C913 0.942 1_655 S
H922 C914 0.930 . S
H923 C915 0.929 . S
C285 C2 1.038 . S
C304 C265 1.022 . S
C321 C21 0.955 . S
C340 C193 0.956 . S
C357 C42 1.032 . S
C376 C229 1.025 . S
C393 C1 0.951 . S
C412 C241 0.950 . S
C448 C169 1.046 . S
C429 C22 1.035 . S
C484 C205 0.954 . S
C465 C41 0.952 . S
C501 C38 1.817 . S
C520 C121 1.793 . S
C537 C59 1.902 . S
C556 C133 1.885 . S
C573 C18 1.814 . S
C592 C61 1.809 . S
C628 C97 1.881 . S
C609 C39 1.902 . S
C664 C157 1.799 . S
C645 C58 1.818 . S
C681 C19 1.905 . S
C700 C85 1.859 . S
C736 C163 1.564 . S
C717 C9 1.498 . S
C753 C29 1.498 . S
C772 C91 1.552 . S
C789 C49 1.497 . S
C808 C127 1.564 . S
C844 C235 1.386 . S
C825 C28 1.353 . S
C880 C271 1.374 . S
C861 C48 1.353 . S
C897 C8 1.359 . S
C916 C199 1.371 . S
