# Generated by pormake.
# Topology pyr, (3,6)-cn, num edge types: 1
# Building blocks:
#     Node 0, Type 0, BuildingBlock: CUQRIR_clean_linker_1, # of connection points: 3
#     Node 1, Type 0, BuildingBlock: CUQRIR_clean_linker_1, # of connection points: 3
#     Node 2, Type 0, BuildingBlock: CUQRIR_clean_linker_1, # of connection points: 3
#     Node 3, Type 0, BuildingBlock: CUQRIR_clean_linker_1, # of connection points: 3
#     Node 4, Type 0, BuildingBlock: CUQRIR_clean_linker_1, # of connection points: 3
#     Node 5, Type 0, BuildingBlock: CUQRIR_clean_linker_1, # of connection points: 3
#     Node 6, Type 0, BuildingBlock: CUQRIR_clean_linker_1, # of connection points: 3
#     Node 7, Type 0, BuildingBlock: CUQRIR_clean_linker_1, # of connection points: 3
#     Node 8, Type 1, BuildingBlock: JUFBIX_clean_sbu_0, # of connection points: 6
#     Node 9, Type 1, BuildingBlock: JUFBIX_clean_sbu_0, # of connection points: 6
#     Node 10, Type 1, BuildingBlock: JUFBIX_clean_sbu_0, # of connection points: 6
#     Node 11, Type 1, BuildingBlock: JUFBIX_clean_sbu_0, # of connection points: 6
#     Edge 12, Type (0, 1), BuildingBlock: UVAHIK_clean_linker_0, # of connection points: 2
#     Edge 13, Type (0, 1), BuildingBlock: UVAHIK_clean_linker_0, # of connection points: 2
#     Edge 14, Type (0, 1), BuildingBlock: UVAHIK_clean_linker_0, # of connection points: 2
#     Edge 15, Type (0, 1), BuildingBlock: UVAHIK_clean_linker_0, # of connection points: 2
#     Edge 16, Type (0, 1), BuildingBlock: UVAHIK_clean_linker_0, # of connection points: 2
#     Edge 17, Type (0, 1), BuildingBlock: UVAHIK_clean_linker_0, # of connection points: 2
#     Edge 18, Type (0, 1), BuildingBlock: UVAHIK_clean_linker_0, # of connection points: 2
#     Edge 19, Type (0, 1), BuildingBlock: UVAHIK_clean_linker_0, # of connection points: 2
#     Edge 20, Type (0, 1), BuildingBlock: UVAHIK_clean_linker_0, # of connection points: 2
#     Edge 21, Type (0, 1), BuildingBlock: UVAHIK_clean_linker_0, # of connection points: 2
#     Edge 22, Type (0, 1), BuildingBlock: UVAHIK_clean_linker_0, # of connection points: 2
#     Edge 23, Type (0, 1), BuildingBlock: UVAHIK_clean_linker_0, # of connection points: 2
#     Edge 24, Type (0, 1), BuildingBlock: UVAHIK_clean_linker_0, # of connection points: 2
#     Edge 25, Type (0, 1), BuildingBlock: UVAHIK_clean_linker_0, # of connection points: 2
#     Edge 26, Type (0, 1), BuildingBlock: UVAHIK_clean_linker_0, # of connection points: 2
#     Edge 27, Type (0, 1), BuildingBlock: UVAHIK_clean_linker_0, # of connection points: 2
#     Edge 28, Type (0, 1), BuildingBlock: UVAHIK_clean_linker_0, # of connection points: 2
#     Edge 29, Type (0, 1), BuildingBlock: UVAHIK_clean_linker_0, # of connection points: 2
#     Edge 30, Type (0, 1), BuildingBlock: UVAHIK_clean_linker_0, # of connection points: 2
#     Edge 31, Type (0, 1), BuildingBlock: UVAHIK_clean_linker_0, # of connection points: 2
#     Edge 32, Type (0, 1), BuildingBlock: UVAHIK_clean_linker_0, # of connection points: 2
#     Edge 33, Type (0, 1), BuildingBlock: UVAHIK_clean_linker_0, # of connection points: 2
#     Edge 34, Type (0, 1), BuildingBlock: UVAHIK_clean_linker_0, # of connection points: 2
#     Edge 35, Type (0, 1), BuildingBlock: UVAHIK_clean_linker_0, # of connection points: 2
# Relax obj value: 0.121
# Max RMSD: 0.216
# Mean RMSD: 0.151
data_MOF--net-pry--node1-JUFBIX_clean_sbu_0--node2-CUQRIR_clean_linker_1--edge1-UVAHIK_clean_linker_0
_symmetry_space_group_name_H-M    P1
_symmetry_Int_Tables_number       1
_symmetry_cell_setting            triclinic
loop_
_symmetry_equiv_pos_as_xyz
'x, y, z'
_cell_length_a     45.486892
_cell_length_b     43.457898
_cell_length_c     44.600168
_cell_angle_alpha  83.09874
_cell_angle_beta   90.659444
_cell_angle_gamma 94.057333
loop_
_atom_site_label
_atom_site_type_symbol
_atom_site_fract_x
_atom_site_fract_y
_atom_site_fract_z
_atom_type_partial_charge
C0 C 0.17376 0.20534 0.18339 0.0
N1 N 0.19424 0.18473 0.19202 0.0
N2 N 0.18294 0.22516 0.15897 0.0
C3 C 0.14507 0.20682 0.19951 0.0
C4 C 0.20998 0.21592 0.15312 0.0
N5 N 0.21708 0.19142 0.17329 0.0
C6 C 0.22847 0.22948 0.12637 0.0
H7 H 0.12791 0.19169 0.18949 0.0
H8 H 0.13792 0.23088 0.19693 0.0
H9 H 0.14685 0.19841 0.22389 0.0
H10 H 0.24472 0.24747 0.13349 0.0
H11 H 0.21465 0.24054 0.10804 0.0
H12 H 0.24067 0.21129 0.1175 0.0
C13 C 0.42679 0.8689 0.62937 0.0
N14 N 0.4202 0.88883 0.649 0.0
N15 N 0.44792 0.85048 0.64097 0.0
C16 C 0.40974 0.86471 0.60081 0.0
C17 C 0.45365 0.85954 0.66851 0.0
N18 N 0.43679 0.88284 0.67338 0.0
C19 C 0.47504 0.84497 0.69088 0.0
H20 H 0.38577 0.86198 0.60572 0.0
H21 H 0.41605 0.84431 0.59028 0.0
H22 H 0.41376 0.88586 0.58442 0.0
H23 H 0.49215 0.83383 0.67925 0.0
H24 H 0.46289 0.82689 0.70662 0.0
H25 H 0.4857 0.86262 0.70429 0.0
C26 C 0.65369 0.37891 0.8442 0.0
N27 N 0.66831 0.37338 0.87071 0.0
N28 N 0.66133 0.40783 0.83061 0.0
C29 C 0.63009 0.35717 0.8327 0.0
C30 C 0.68083 0.41993 0.8499 0.0
N31 N 0.68483 0.39911 0.87453 0.0
C32 C 0.69781 0.45099 0.8434 0.0
H33 H 0.6405 0.34109 0.81918 0.0
H34 H 0.61414 0.37018 0.81806 0.0
H35 H 0.61798 0.34318 0.8517 0.0
H36 H 0.68644 0.46851 0.85424 0.0
H37 H 0.69909 0.45857 0.81877 0.0
H38 H 0.72049 0.45007 0.85276 0.0
C39 C 0.94623 0.62371 0.4087 0.0
N40 N 0.97002 0.64409 0.403 0.0
N41 N 0.93049 0.63078 0.43225 0.0
C42 C 0.93615 0.59944 0.38868 0.0
C43 C 0.94577 0.65613 0.44087 0.0
N44 N 0.96963 0.66429 0.42307 0.0
C45 C 0.93503 0.67548 0.46376 0.0
H46 H 0.92887 0.61107 0.36659 0.0
H47 H 0.91777 0.58373 0.39903 0.0
H48 H 0.95469 0.58533 0.3844 0.0
H49 H 0.92414 0.66045 0.48287 0.0
H50 H 0.91858 0.69094 0.45286 0.0
H51 H 0.95342 0.69004 0.47254 0.0
C52 C 0.81971 0.87063 0.88143 0.0
N53 N 0.84271 0.8661 0.86363 0.0
N54 N 0.80764 0.89781 0.87197 0.0
C55 C 0.81053 0.8496 0.90958 0.0
C56 C 0.8245 0.90987 0.8478 0.0
N57 N 0.84603 0.8908 0.84278 0.0
C58 C 0.81837 0.93902 0.82763 0.0
H59 H 0.79417 0.83121 0.90344 0.0
H60 H 0.80032 0.86269 0.92614 0.0
H61 H 0.82968 0.83821 0.9204 0.0
H62 H 0.8317 0.95892 0.83544 0.0
H63 H 0.79475 0.94371 0.82843 0.0
H64 H 0.82447 0.93722 0.80392 0.0
C65 C 0.64369 0.15689 0.46945 0.0
N66 N 0.64864 0.13238 0.45466 0.0
N67 N 0.6184 0.16947 0.45981 0.0
C68 C 0.66421 0.16953 0.4924 0.0
C69 C 0.60791 0.1514 0.43884 0.0
N70 N 0.6262 0.12871 0.43583 0.0
C71 C 0.58285 0.15939 0.41763 0.0
H72 H 0.65179 0.18136 0.50842 0.0
H73 H 0.68072 0.18675 0.48075 0.0
H74 H 0.6761 0.15058 0.50502 0.0
H75 H 0.59007 0.17991 0.40147 0.0
H76 H 0.56384 0.16564 0.43043 0.0
H77 H 0.57566 0.13985 0.40479 0.0
C78 C 0.34731 0.63911 0.14383 0.0
N79 N 0.37017 0.65597 0.155 0.0
N80 N 0.3395 0.65242 0.11613 0.0
C81 C 0.33142 0.61075 0.16064 0.0
C82 C 0.35861 0.67777 0.11079 0.0
N83 N 0.3775 0.67971 0.13424 0.0
C84 C 0.35711 0.70216 0.08396 0.0
H85 H 0.32283 0.5943 0.14499 0.0
H86 H 0.31241 0.61801 0.17279 0.0
H87 H 0.34617 0.59846 0.17728 0.0
H88 H 0.34836 0.72324 0.0913 0.0
H89 H 0.34277 0.69388 0.06587 0.0
H90 H 0.37948 0.70879 0.07468 0.0
C91 C 0.08631 0.38462 0.61995 0.0
N92 N 0.10145 0.37688 0.59634 0.0
N93 N 0.10039 0.40912 0.63145 0.0
C94 C 0.05925 0.36653 0.63342 0.0
C95 C 0.12467 0.41594 0.61404 0.0
N96 N 0.12539 0.39626 0.59282 0.0
C97 C 0.14914 0.43966 0.62003 0.0
H98 H 0.04388 0.36019 0.61533 0.0
H99 H 0.04771 0.38003 0.64869 0.0
H100 H 0.06583 0.34467 0.64641 0.0
H101 H 0.15797 0.43376 0.64316 0.0
H102 H 0.14029 0.46288 0.61903 0.0
H103 H 0.16733 0.44105 0.60349 0.0
Co104 Co 0.01831 0.0149 0.50716 0.0
C105 C 0.04514 0.95786 0.50561 0.0
Co106 Co 0.06101 0.01004 0.53067 0.0
C107 C 0.95678 0.02477 0.49223 0.0
C108 C 0.97875 1.00189 0.45994 0.0
N109 N 0.98297 0.01406 0.4862 0.0
N110 N 0.93641 0.01975 0.47065 0.0
C111 C 0.95028 0.0052 0.45043 0.0
H112 H 0.95301 0.03652 0.51175 0.0
H113 H 0.99542 0.99134 0.44831 0.0
C114 C 0.03429 0.06739 0.53131 0.0
N115 N 0.09754 0.01194 0.55008 0.0
C116 C 0.11522 0.98949 0.56134 0.0
C117 C 0.11422 0.03882 0.55114 0.0
N118 N 0.14207 1.00162 0.56901 0.0
C119 C 0.14133 0.03256 0.5628 0.0
C120 C 0.06631 0.03496 0.46946 0.0
O121 O 0.01364 0.05618 0.51562 0.0
O122 O 0.0553 0.05073 0.53993 0.0
O123 O 0.0806 0.02707 0.49351 0.0
O124 O 0.03832 0.0315 0.47026 0.0
O125 O 0.06603 0.96917 0.52099 0.0
H126 H 0.10798 0.06165 0.54215 0.0
H127 H 0.10935 0.96485 0.56193 0.0
O128 O 0.02327 0.97386 0.49848 0.0
O129 O 0.99859 0.99833 0.54455 0.0
O130 O 0.04119 0.99298 0.56767 0.0
C131 C 0.01304 0.99007 0.56857 0.0
H132 H 0.94061 0.99726 0.43022 0.0
H133 H 0.1597 0.04938 0.5651 0.0
Co134 Co 0.50548 0.03618 0.02519 0.0
C135 C 0.50157 0.98479 0.06993 0.0
Co136 Co 0.53313 0.04093 0.06557 0.0
C137 C 0.48516 0.02647 0.96453 0.0
C138 C 0.45012 0.02449 0.99648 0.0
N139 N 0.47955 0.03049 0.99346 0.0
N140 N 0.46045 0.01776 0.94973 0.0
C141 C 0.43838 0.01668 0.96974 0.0
H142 H 0.50709 0.02772 0.95511 0.0
H143 H 0.43808 0.02391 0.01732 0.0
C144 C 0.53747 0.09219 0.021 0.0
N145 N 0.55887 0.04605 0.09732 0.0
C146 C 0.55395 0.04175 0.1274 0.0
C147 C 0.58797 0.05421 0.09447 0.0
N148 N 0.57898 0.04654 0.14329 0.0
C149 C 0.60039 0.05437 0.12264 0.0
C150 C 0.56084 0.01496 0.01836 0.0
O151 O 0.51954 0.07594 1.00616 0.0
O152 O 0.54544 0.08135 0.04734 0.0
O153 O 0.56419 0.0237 0.04452 0.0
O154 O 0.53594 0.01766 1.00541 0.0
O155 O 0.52078 1.00057 0.08364 0.0
H156 H 0.59948 0.05969 0.07321 0.0
H157 H 0.53259 0.0348 0.13743 0.0
O158 O 0.49185 0.99631 0.04449 0.0
O159 O 0.47535 0.05497 0.04526 0.0
O160 O 0.50168 0.05797 0.08627 0.0
C161 C 0.47755 0.06224 0.07203 0.0
H162 H 0.41558 0.00935 0.9657 0.0
H163 H 0.6233 0.06035 0.1276 0.0
Co164 Co 0.53767 0.53902 0.48312 0.0
C165 C 0.4932 0.54108 0.4397 0.0
Co166 Co 0.49528 0.51502 0.49905 0.0
C167 C 0.59996 0.55696 0.47515 0.0
C168 C 0.57223 0.59129 0.45427 0.0
N169 N 0.57144 0.56265 0.46985 0.0
N170 N 0.61843 0.58114 0.46381 0.0
C171 C 0.60104 0.60273 0.4506 0.0
H172 H 0.60697 0.53598 0.48799 0.0
H173 H 0.55301 0.60336 0.44665 0.0
C174 C 0.54009 0.51366 0.54247 0.0
N175 N 0.46172 0.49061 0.51225 0.0
C176 C 0.433 0.49336 0.50494 0.0
C177 C 0.46242 0.4624 0.52856 0.0
N178 N 0.4161 0.46768 0.51568 0.0
C179 C 0.4345 0.44825 0.53058 0.0
C180 C 0.53504 0.4785 0.47374 0.0
O181 O 0.55504 0.52961 0.5215 0.0
O182 O 0.51353 0.50464 0.53729 0.0
O183 O 0.50971 0.4798 0.4849 0.0
O184 O 0.55243 0.50285 0.47042 0.0
O185 O 0.47748 0.52605 0.46071 0.0
H186 H 0.48224 0.45207 0.53718 0.0
H187 H 0.42491 0.51293 0.49068 0.0
O188 O 0.52015 0.54837 0.4448 0.0
O189 O 0.52259 0.57486 0.49624 0.0
O190 O 0.48113 0.55031 0.51329 0.0
C191 C 0.49784 0.57514 0.50916 0.0
H192 H 0.60864 0.62523 0.43917 0.0
H193 H 0.42822 0.42516 0.54154 0.0
Co194 Co 1.00787 0.53532 0.98623 0.0
C195 C 0.95079 0.5098 0.99938 0.0
Co196 Co 0.99297 0.54013 0.03223 0.0
C197 C 0.04023 0.52158 0.93333 0.0
C198 C 1.00099 0.54528 0.92283 0.0
N199 N 0.01746 0.53342 0.94625 0.0
N200 N 0.03869 0.52644 0.90288 0.0
C201 C 0.01408 0.54127 0.89629 0.0
H202 H 0.05754 0.50983 0.94588 0.0
H203 H 0.98043 0.55592 0.92484 0.0
C204 C 0.05009 0.5652 0.01866 0.0
N205 N 0.98233 0.54236 0.07187 0.0
C206 C 0.98955 0.56487 0.08963 0.0
C207 C 0.96616 0.52034 0.08967 0.0
N208 N 0.97836 0.55777 0.11774 0.0
C209 C 0.96357 0.52978 0.11777 0.0
C210 C 0.02275 0.48566 0.02687 0.0
O211 O 0.04493 0.55571 0.99313 0.0
O212 O 0.03014 0.56112 0.03878 0.0
O213 O 1.00991 0.50113 0.04477 0.0
O214 O 0.02386 0.49593 0.99885 0.0
O215 O 0.95587 0.51878 0.02512 0.0
H216 H 0.95722 0.49852 0.08281 0.0
H217 H 1.00273 0.58604 0.08208 0.0
O218 O 0.97066 0.51487 0.97931 0.0
O219 O 0.99231 0.5748 0.97435 0.0
O220 O 0.97626 0.57949 0.01941 0.0
C221 C 0.97913 0.59038 0.99169 0.0
H222 H 1.00572 0.54787 0.87377 0.0
H223 H 0.95235 0.51667 0.13699 0.0
C224 C 0.2007 0.17225 0.24688 0.0
C225 C 0.19224 0.16259 0.21894 0.0
C226 C 0.19039 0.15542 0.27407 0.0
C227 C 0.12802 0.09859 0.30243 0.0
H228 H 0.16839 0.10145 0.37907 0.0
C229 C 0.06649 0.06148 0.41584 0.0
C230 C 0.08204 0.048 0.44093 0.0
C231 C 0.08123 0.0739 0.38911 0.0
C232 C 0.15678 0.09997 0.35792 0.0
H233 H 0.16732 0.12722 0.19747 0.0
H234 H 0.15078 0.09654 0.24464 0.0
H235 H 0.19341 0.12304 0.33258 0.0
H236 H 0.12555 0.03684 0.45719 0.0
H237 H 0.15109 0.05746 0.41052 0.0
H238 H 0.09179 0.07461 0.32756 0.0
C239 C 0.16469 0.11761 0.2459 0.0
C240 C 0.17111 0.11287 0.33106 0.0
C241 C 0.17471 0.13473 0.21876 0.0
C242 C 0.1128 0.04717 0.43843 0.0
C243 C 0.12753 0.05927 0.41157 0.0
C244 C 0.11383 0.08543 0.32922 0.0
C245 C 0.17136 0.1283 0.27405 0.0
C246 C 0.1569 0.11269 0.30279 0.0
C247 C 0.11203 0.07293 0.38638 0.0
C248 C 0.12778 0.08615 0.35754 0.0
H249 H 0.2134 0.1942 0.24754 0.0
H250 H 0.19591 0.16491 0.29493 0.0
H251 H 0.11586 0.09826 0.28146 0.0
H252 H 0.04284 0.06278 0.41691 0.0
H253 H 0.06836 0.0847 0.37072 0.0
C254 C 0.44593 0.92997 0.69831 0.0
C255 C 0.43655 0.89844 0.69992 0.0
C256 C 0.44863 0.94451 0.72462 0.0
C257 C 0.45511 0.92492 0.80792 0.0
H258 H 0.44075 0.01167 0.80931 0.0
C259 C 0.44009 0.97973 0.91706 0.0
C260 C 0.45858 0.00628 0.92083 0.0
C261 C 0.43852 0.9679 0.88936 0.0
C262 C 0.44507 0.9875 0.80906 0.0
H263 H 0.42096 0.85756 0.72921 0.0
H264 H 0.42419 0.883 0.77524 0.0
H265 H 0.43385 0.9883 0.76227 0.0
H266 H 0.48966 0.04151 0.8987 0.0
H267 H 0.48629 0.02112 0.84945 0.0
H268 H 0.4651 0.92396 0.85505 0.0
C269 C 0.43075 0.89643 0.75406 0.0
C270 C 0.44121 0.97408 0.78216 0.0
C271 C 0.42859 0.88186 0.72781 0.0
C272 C 0.47531 0.02099 0.89624 0.0
C273 C 0.47328 0.00947 0.86821 0.0
C274 C 0.45844 0.93819 0.83482 0.0
C275 C 0.44149 0.92778 0.75294 0.0
C276 C 0.44596 0.94251 0.7813 0.0
C277 C 0.45504 0.98265 0.86471 0.0
C278 C 0.45329 0.96949 0.83566 0.0
H279 H 0.45221 0.94293 0.6768 0.0
H280 H 0.45722 0.96853 0.7228 0.0
H281 H 0.45984 0.90084 0.80805 0.0
H282 H 0.42726 0.96773 0.93576 0.0
H283 H 0.42424 0.94725 0.88713 0.0
C284 C 0.65482 0.40659 0.77601 0.0
C285 C 0.65174 0.42177 0.80166 0.0
C286 C 0.64434 0.41928 0.74804 0.0
C287 C 0.63376 0.45926 0.68891 0.0
H288 H 0.55579 0.49031 0.68571 0.0
C289 C 0.58304 0.515 0.578 0.0
C290 C 0.55346 0.50561 0.57249 0.0
C291 C 0.5958 0.50705 0.60625 0.0
C292 C 0.57755 0.48164 0.68625 0.0
H293 H 0.6359 0.46205 0.81864 0.0
H294 H 0.61759 0.48471 0.76947 0.0
H295 H 0.57731 0.47221 0.73446 0.0
H296 H 0.51401 0.4807 0.59236 0.0
H297 H 0.53636 0.46664 0.64158 0.0
H298 H 0.63369 0.46787 0.64067 0.0
C299 C 0.62788 0.46285 0.77098 0.0
C300 C 0.59002 0.47161 0.71418 0.0
C301 C 0.63849 0.45013 0.79897 0.0
C302 C 0.53684 0.48833 0.59589 0.0
C303 C 0.54959 0.48045 0.62416 0.0
C304 C 0.62134 0.46937 0.661 0.0
C305 C 0.63053 0.44743 0.74526 0.0
C306 C 0.61812 0.45998 0.71578 0.0
C307 C 0.57923 0.48961 0.62961 0.0
C308 C 0.59297 0.48035 0.65935 0.0
H309 H 0.66516 0.38474 0.77776 0.0
H310 H 0.64641 0.40666 0.72874 0.0
H311 H 0.65558 0.45071 0.68945 0.0
H312 H 0.59643 0.52842 0.56046 0.0
H313 H 0.6186 0.51473 0.60986 0.0
C314 C 1.00269 0.62631 0.36617 0.0
C315 C 0.98521 0.64913 0.37455 0.0
C316 C 1.00943 0.62541 0.33578 0.0
C317 C 0.97355 0.64634 0.26318 0.0
H318 H 0.03884 0.60755 0.23155 0.0
C319 C 0.95977 0.57357 0.16483 0.0
C320 C 0.98203 0.57546 0.14301 0.0
C321 C 0.96371 0.58913 0.19032 0.0
C322 C 0.02065 0.61887 0.23987 0.0
H323 H 0.96305 0.6903 0.35847 0.0
H324 H 0.976 0.68993 0.30558 0.0
H325 H 0.04289 0.62529 0.28157 0.0
H326 H 0.02584 0.59543 0.13065 0.0
H327 H 0.03284 0.62275 0.17553 0.0
H328 H 0.95105 0.63932 0.22194 0.0
C329 C 0.98401 0.67222 0.32223 0.0
C330 C 0.02287 0.6288 0.26862 0.0
C331 C 0.97706 0.67285 0.35257 0.0
C332 C 1.00822 0.59376 0.147 0.0
C333 C 1.01232 0.60916 0.17277 0.0
C334 C 0.97135 0.63642 0.23458 0.0
C335 C 0.99883 0.64749 0.31327 0.0
C336 C 0.99901 0.6419 0.28096 0.0
C337 C 0.99011 0.60688 0.19476 0.0
C338 C 0.99448 0.62171 0.22298 0.0
H339 H 1.00888 0.60765 0.38285 0.0
H340 H 0.02074 0.60592 0.3298 0.0
H341 H 0.95454 0.65592 0.27196 0.0
H342 H 0.93926 0.55991 0.16225 0.0
H343 H 0.94631 0.58655 0.207 0.0
C344 C 0.24231 0.14329 0.16872 0.0
C345 C 0.24372 0.17488 0.1729 0.0
C346 C 0.26792 0.12896 0.16207 0.0
C347 C 0.3512 0.14046 0.15911 0.0
H348 H 0.34242 0.08243 0.09964 0.0
C349 C 0.45174 0.08017 0.11659 0.0
C350 C 0.45174 0.07478 0.08607 0.0
C351 C 0.4268 0.09097 0.12947 0.0
C352 C 0.34549 0.09878 0.11608 0.0
H353 H 0.27325 0.21573 0.17495 0.0
H354 H 0.31767 0.19126 0.16313 0.0
H355 H 0.29901 0.10324 0.11853 0.0
H356 H 0.42522 0.07719 0.04522 0.0
H357 H 0.38256 0.09639 0.06718 0.0
H358 H 0.39784 0.13686 0.15572 0.0
C359 C 0.29706 0.17713 0.16517 0.0
C360 C 0.32032 0.11043 0.12739 0.0
C361 C 0.27152 0.19133 0.17187 0.0
C362 C 0.42619 0.08083 0.06883 0.0
C363 C 0.40142 0.09166 0.0816 0.0
C364 C 0.37642 0.12886 0.14772 0.0
C365 C 0.29568 0.14587 0.15937 0.0
C366 C 0.32266 0.13174 0.1489 0.0
C367 C 0.40108 0.09675 0.11221 0.0
C368 C 0.37407 0.10808 0.1257 0.0
H369 H 0.22119 0.13011 0.16906 0.0
H370 H 0.26578 0.10473 0.15841 0.0
H371 H 0.35419 0.15642 0.17593 0.0
H372 H 0.47089 0.07569 0.13068 0.0
H373 H 0.42754 0.09424 0.15315 0.0
C374 C 0.38992 0.92871 0.62364 0.0
C375 C 0.39401 0.90551 0.64762 0.0
C376 C 0.36201 0.93944 0.61763 0.0
C377 C 0.28596 0.93911 0.64698 0.0
H378 H 0.26598 0.94434 0.56182 0.0
C379 C 0.16821 0.96133 0.60042 0.0
C380 C 0.16819 0.98576 0.57681 0.0
C381 C 0.19479 0.94881 0.6101 0.0
C382 C 0.27124 0.94301 0.58567 0.0
H383 H 0.37314 0.87637 0.68515 0.0
H384 H 0.32409 0.89512 0.67486 0.0
H385 H 0.31515 0.93124 0.5784 0.0
H386 H 0.19513 0.01522 0.54374 0.0
H387 H 0.24122 0.9934 0.5602 0.0
H388 H 0.24179 0.95106 0.65402 0.0
C389 C 0.34236 0.90532 0.66082 0.0
C390 C 0.29948 0.93577 0.59516 0.0
C391 C 0.37036 0.8947 0.66684 0.0
C392 C 0.19472 0.99652 0.56216 0.0
C393 C 0.22103 0.98389 0.57146 0.0
C394 C 0.25756 0.94634 0.63744 0.0
C395 C 0.33768 0.9269 0.63541 0.0
C396 C 0.30736 0.93428 0.62584 0.0
C397 C 0.22148 0.96025 0.59582 0.0
C398 C 0.25013 0.94887 0.60661 0.0
H399 H 0.40802 0.93717 0.60862 0.0
H400 H 0.35924 0.95663 0.59829 0.0
H401 H 0.29137 0.93808 0.67078 0.0
H402 H 0.14792 0.95286 0.61205 0.0
H403 H 0.19455 0.93046 0.62882 0.0
C404 C 0.72912 0.38397 0.90336 0.0
C405 C 0.70554 0.40312 0.89859 0.0
C406 C 0.75294 0.39226 0.92163 0.0
C407 C 0.79148 0.46339 0.93924 0.0
H408 H 0.83847 0.41081 0.99434 0.0
C409 C 0.91359 0.49358 0.96182 0.0
C410 C 0.92182 0.49476 0.99214 0.0
C411 C 0.88585 0.48075 0.95448 0.0
C412 C 0.82537 0.42573 0.97917 0.0
H413 H 0.68664 0.44397 0.91103 0.0
H414 H 0.72823 0.45868 0.94292 0.0
H415 H 0.79063 0.38997 0.97629 0.0
H416 H 0.90777 0.48256 0.03861 0.0
H417 H 0.85916 0.45929 0.02559 0.0
H418 H 0.82651 0.49869 0.94105 0.0
C419 C 0.72861 0.43752 0.93237 0.0
C420 C 0.79816 0.41382 0.96878 0.0
C421 C 0.70485 0.42914 0.91428 0.0
C422 C 0.90195 0.48208 0.01505 0.0
C423 C 0.87428 0.46867 1.00766 0.0
C424 C 0.81874 0.47504 0.94916 0.0
C425 C 0.75343 0.41989 0.93521 0.0
C426 C 0.78106 0.43255 0.94856 0.0
C427 C 0.86589 0.46835 0.97728 0.0
C428 C 0.83608 0.45627 0.96893 0.0
H429 H 0.73006 0.36392 0.89124 0.0
H430 H 0.77183 0.37831 0.92332 0.0
H431 H 0.77901 0.47824 0.92333 0.0
H432 H 0.92835 0.50317 0.94364 0.0
H433 H 0.87992 0.48057 0.9309 0.0
C434 C 0.87923 0.62984 0.41457 0.0
C435 C 0.89967 0.62265 0.43765 0.0
C436 C 0.84914 0.62362 0.41977 0.0
C437 C 0.79421 0.57882 0.47137 0.0
H438 H 0.74348 0.64096 0.43465 0.0
C439 C 0.6668 0.55846 0.46449 0.0
C440 C 0.65004 0.58414 0.46604 0.0
C441 C 0.69763 0.56217 0.46418 0.0
C442 C 0.75726 0.62351 0.44545 0.0
H443 H 0.90519 0.60332 0.4841 0.0
H444 H 0.85207 0.59291 0.49376 0.0
H445 H 0.79636 0.64938 0.42839 0.0
H446 H 0.65221 0.63327 0.47066 0.0
H447 H 0.70577 0.63972 0.47088 0.0
H448 H 0.75483 0.5533 0.489 0.0
C449 C 0.85935 0.60283 0.47142 0.0
C450 C 0.78765 0.62813 0.44145 0.0
C451 C 0.88962 0.60891 0.46606 0.0
C452 C 0.66461 0.61325 0.46872 0.0
C453 C 0.69531 0.6169 0.46879 0.0
C454 C 0.76366 0.57424 0.47553 0.0
C455 C 0.83875 0.61047 0.44838 0.0
C456 C 0.8065 0.60573 0.45403 0.0
C457 C 0.71224 0.59161 0.46574 0.0
C458 C 0.74481 0.5965 0.46247 0.0
H459 H 0.88665 0.64071 0.39258 0.0
H460 H 0.834 0.62928 0.40134 0.0
H461 H 0.80811 0.56103 0.48124 0.0
H462 H 0.65605 0.5358 0.46231 0.0
H463 H 0.70995 0.54223 0.46157 0.0
C464 C 0.139 0.24566 0.13205 0.0
C465 C 0.16765 0.25069 0.14346 0.0
C466 C 0.12368 0.27056 0.11816 0.0
C467 C 0.12108 0.35626 0.11445 0.0
H468 H 0.07228 0.34782 0.04365 0.0
C469 C 0.03955 0.44849 0.0705 0.0
C470 C 0.03781 0.4572 0.0391 0.0
C471 C 0.05525 0.4231 0.08239 0.0
C472 C 0.08591 0.35069 0.06332 0.0
H473 H 0.20275 0.28567 0.14913 0.0
H474 H 0.17619 0.32928 0.12488 0.0
H475 H 0.10038 0.3045 0.06529 0.0
H476 H 0.05108 0.4453 0.99565 0.0
H477 H 0.07821 0.40081 0.01639 0.0
H478 H 0.10671 0.40241 0.11251 0.0
C479 C 0.16538 0.30612 0.12675 0.0
C480 C 0.10186 0.32568 0.07594 0.0
C481 C 0.18076 0.28115 0.14041 0.0
C482 C 0.0518 0.4393 0.01992 0.0
C483 C 0.06733 0.41367 0.03185 0.0
C484 C 0.10494 0.38113 0.10203 0.0
C485 C 0.13652 0.30125 0.11553 0.0
C486 C 0.11971 0.32806 0.10172 0.0
C487 C 0.06958 0.40539 0.0633 0.0
C488 C 0.08704 0.37876 0.07629 0.0
H489 H 0.12844 0.22239 0.13403 0.0
H490 H 0.10147 0.26581 0.1101 0.0
H491 H 0.1343 0.359 0.13443 0.0
H492 H 0.02913 0.4616 0.08607 0.0
H493 H 0.05603 0.41726 0.10667 0.0
C494 C 0.66718 0.31658 0.88108 0.0
C495 C 0.66501 0.34544 0.89157 0.0
C496 C 0.65733 0.28923 0.89877 0.0
C497 C 0.60522 0.26327 0.96157 0.0
H498 H 0.6318 0.18251 0.95063 0.0
C499 C 0.5609 0.1449 0.02633 0.0
C500 C 0.55056 0.12268 1.00756 0.0
C501 C 0.57576 0.17272 0.01409 0.0
C502 C 0.62418 0.20497 0.95379 0.0
H503 H 0.65369 0.36858 0.92964 0.0
H504 H 0.63794 0.32058 0.96165 0.0
H505 H 0.66018 0.22945 0.92888 0.0
H506 H 0.54743 0.11209 0.96132 0.0
H507 H 0.5743 0.16059 0.93995 0.0
H508 H 0.56966 0.23832 0.98732 0.0
C509 C 0.646 0.31899 0.93919 0.0
C510 C 0.64033 0.2319 0.94127 0.0
C511 C 0.65546 0.34646 0.92116 0.0
C512 C 0.55497 0.12895 0.97625 0.0
C513 C 0.57048 0.15648 0.96408 0.0
C514 C 0.58946 0.2363 0.97464 0.0
C515 C 0.64562 0.2901 0.92772 0.0
C516 C 0.63073 0.26148 0.94439 0.0
C517 C 0.58116 0.17844 0.98296 0.0
C518 C 0.5985 0.20697 0.97031 0.0
H519 H 0.67483 0.3154 0.85838 0.0
H520 H 0.65729 0.26769 0.88885 0.0
H521 H 0.59669 0.28545 0.96408 0.0
H522 H 0.55777 0.14063 0.05056 0.0
H523 H 0.58383 0.18935 0.02903 0.0
C524 C 0.97591 0.72096 0.41207 0.0
C525 C 0.98775 0.69276 0.42254 0.0
C526 C 0.99096 0.74909 0.4167 0.0
C527 C 0.04013 0.78162 0.47126 0.0
H528 H 0.03761 0.85616 0.4143 0.0
C529 C 0.06786 0.90661 0.50417 0.0
C530 C 0.04602 0.92705 0.49469 0.0
C531 C 0.06794 0.87763 0.49321 0.0
C532 C 0.03862 0.83553 0.43044 0.0
H533 H 0.02444 0.67128 0.44545 0.0
H534 H 0.05112 0.72082 0.45397 0.0
H535 H 0.02542 0.80549 0.3973 0.0
H536 H 1.00735 0.93308 0.46609 0.0
H537 H 1.00757 0.88319 0.4473 0.0
H538 H 0.05194 0.8119 0.50473 0.0
C539 C 0.03034 0.72118 0.44188 0.0
C540 C 0.03167 0.80654 0.42069 0.0
C541 C 0.01534 0.69297 0.43683 0.0
C542 C 0.02454 0.91802 0.47394 0.0
C543 C 0.02481 0.88945 0.46287 0.0
C544 C 0.04706 0.81072 0.48105 0.0
C545 C 0.01798 0.74953 0.43239 0.0
C546 C 0.03125 0.77936 0.44123 0.0
C547 C 0.04646 0.86889 0.47228 0.0
C548 C 0.04521 0.83803 0.46097 0.0
H549 H 0.9543 0.72106 0.40162 0.0
H550 H 0.98056 0.77044 0.40957 0.0
H551 H 0.03982 0.7611 0.48767 0.0
H552 H 0.08471 0.91291 0.52012 0.0
H553 H 0.08486 0.86218 0.5009 0.0
C554 C 0.47318 0.82441 0.60392 0.0
C555 C 0.45608 0.82266 0.63001 0.0
C556 C 0.47814 0.79744 0.59115 0.0
C557 C 0.47242 0.71118 0.60666 0.0
H558 H 0.47016 0.71628 0.51924 0.0
C559 C 0.46818 0.60274 0.54309 0.0
C560 C 0.48973 0.60381 0.52062 0.0
C561 C 0.4628 0.62956 0.55599 0.0
C562 C 0.47091 0.71459 0.54367 0.0
H563 H 0.4309 0.79228 0.66363 0.0
H564 H 0.43889 0.74491 0.6412 0.0
H565 H 0.46479 0.76288 0.54358 0.0
H566 H 0.52165 0.63389 0.4931 0.0
H567 H 0.51187 0.68072 0.51528 0.0
H568 H 0.478 0.66266 0.60656 0.0
C569 C 0.44917 0.76678 0.63082 0.0
C570 C 0.46807 0.74128 0.55764 0.0
C571 C 0.44451 0.79374 0.64369 0.0
C572 C 0.50497 0.63235 0.51046 0.0
C573 C 0.4993 0.65917 0.52304 0.0
C574 C 0.47492 0.68442 0.59267 0.0
C575 C 0.4657 0.76835 0.60413 0.0
C576 C 0.46897 0.73995 0.58931 0.0
C577 C 0.47855 0.65792 0.54627 0.0
C578 C 0.47435 0.68594 0.56106 0.0
H579 H 0.48207 0.84674 0.59315 0.0
H580 H 0.49144 0.79944 0.57093 0.0
H581 H 0.47362 0.70936 0.63107 0.0
H582 H 0.45615 0.58104 0.55139 0.0
H583 H 0.4465 0.62811 0.57372 0.0
C584 C 0.86871 0.87523 0.79684 0.0
C585 C 0.86751 0.89605 0.8185 0.0
C586 C 0.88616 0.88295 0.77071 0.0
C587 C 0.94724 0.93909 0.73667 0.0
H588 H 0.91464 0.91764 0.66065 0.0
C589 C 0.0129 0.96809 0.62391 0.0
C590 C 0.99722 0.97745 0.59733 0.0
C591 C 0.99807 0.95663 0.65093 0.0
C592 C 0.92409 0.92408 0.68159 0.0
H593 H 0.88458 0.94064 0.83039 0.0
H594 H 0.91482 0.95426 0.78522 0.0
H595 H 0.88802 0.90038 0.7075 0.0
H596 H 0.95324 0.98184 0.57879 0.0
H597 H 0.9275 0.9623 0.62568 0.0
H598 H 0.98287 0.96354 0.71073 0.0
C599 C 0.90257 0.93184 0.78813 0.0
C600 C 0.90893 0.91373 0.70869 0.0
C601 C 0.88511 0.92413 0.81408 0.0
C602 C 0.96619 0.97482 0.59865 0.0
C603 C 0.95135 0.96335 0.62566 0.0
C604 C 0.96242 0.94939 0.70959 0.0
C605 C 0.90302 0.91168 0.76563 0.0
C606 C 0.92009 0.92125 0.73673 0.0
C607 C 0.967 0.9541 0.65236 0.0
C608 C 0.95105 0.94228 0.6815 0.0
H609 H 0.8552 0.85355 0.79952 0.0
H610 H 0.88614 0.86651 0.7543 0.0
H611 H 0.95692 0.94518 0.75764 0.0
H612 H 0.03677 0.96961 0.62391 0.0
H613 H 1.01108 0.94941 0.67067 0.0
C614 C 0.6082 0.08415 0.41003 0.0
C615 C 0.62647 0.11139 0.41044 0.0
C616 C 0.60488 0.07004 0.38349 0.0
C617 C 0.63578 0.07154 0.30603 0.0
H618 H 0.5556 0.04463 0.2861 0.0
C619 C 0.60823 0.03417 0.18935 0.0
C620 C 0.58249 0.04505 0.17547 0.0
C621 C 0.61333 0.03576 0.22005 0.0
C622 C 0.5781 0.05217 0.29123 0.0
H623 H 0.65608 0.14517 0.3846 0.0
H624 H 0.65014 0.12117 0.33792 0.0
H625 H 0.56667 0.05988 0.33594 0.0
H626 H 0.54143 0.06518 0.18281 0.0
H627 H 0.5506 0.06907 0.23631 0.0
H628 H 0.64691 0.0659 0.26079 0.0
C629 C 0.63882 0.10998 0.35797 0.0
C630 C 0.58457 0.06046 0.32004 0.0
C631 C 0.64224 0.12384 0.38455 0.0
C632 C 0.56134 0.05644 0.1931 0.0
C633 C 0.56663 0.05853 0.22377 0.0
C634 C 0.62927 0.06359 0.27716 0.0
C635 C 0.6196 0.08325 0.3569 0.0
C636 C 0.6134 0.07085 0.32761 0.0
C637 C 0.59301 0.0488 0.23751 0.0
C638 C 0.60024 0.0543 0.26918 0.0
H639 H 0.59578 0.07452 0.42995 0.0
H640 H 0.59027 0.04925 0.38363 0.0
H641 H 0.65832 0.07892 0.31119 0.0
H642 H 0.62463 0.02479 0.17627 0.0
H643 H 0.6335 0.02726 0.22996 0.0
C644 C 0.41409 0.64705 0.18665 0.0
C645 C 0.38369 0.65015 0.18424 0.0
C646 C 0.42675 0.63766 0.21467 0.0
C647 C 0.41203 0.62589 0.29755 0.0
H648 H 0.47054 0.56518 0.29746 0.0
C649 C 0.44964 0.55205 0.40612 0.0
C650 C 0.48031 0.55154 0.40999 0.0
C651 C 0.43784 0.56445 0.37854 0.0
C652 C 0.45434 0.58225 0.2978 0.0
H653 H 0.34296 0.64857 0.20901 0.0
H654 H 0.36461 0.63106 0.25785 0.0
H655 H 0.4508 0.58842 0.2497 0.0
H656 H 0.52261 0.56277 0.38783 0.0
H657 H 0.50196 0.58388 0.3397 0.0
H658 H 0.4152 0.61897 0.34585 0.0
C659 C 0.37891 0.63594 0.23837 0.0
C660 C 0.44316 0.59577 0.27044 0.0
C661 C 0.36638 0.6456 0.21041 0.0
C662 C 0.49887 0.56285 0.38556 0.0
C663 C 0.48708 0.57485 0.35796 0.0
C664 C 0.423 0.6121 0.32495 0.0
C665 C 0.40915 0.63113 0.24075 0.0
C666 C 0.42187 0.61779 0.26994 0.0
C667 C 0.45649 0.57613 0.35428 0.0
C668 C 0.44427 0.59017 0.32531 0.0
H669 H 0.42777 0.65076 0.16666 0.0
H670 H 0.45024 0.63495 0.21577 0.0
H671 H 0.39598 0.64308 0.29805 0.0
H672 H 0.4348 0.54359 0.42458 0.0
H673 H 0.41414 0.56493 0.37617 0.0
C674 C 0.09197 0.452 0.66077 0.0
C675 C 0.09528 0.42038 0.65976 0.0
C676 C 0.0895 0.4635 0.68846 0.0
C677 C 0.10398 0.44487 0.77045 0.0
H678 H 0.04944 0.50836 0.77671 0.0
C679 C 0.06244 0.4845 0.88209 0.0
C680 C 0.05709 0.51603 0.88084 0.0
C681 C 0.07274 0.47291 0.85647 0.0
C682 C 0.06511 0.49097 0.77523 0.0
H683 H 0.09877 0.3758 0.68634 0.0
H684 H 0.0933 0.39554 0.73503 0.0
H685 H 0.05401 0.48735 0.72913 0.0
H686 H 0.0611 0.56073 0.85365 0.0
H687 H 0.07979 0.54084 0.8092 0.0
H688 H 0.11433 0.44815 0.81713 0.0
C689 C 0.09312 0.41165 0.71453 0.0
C690 C 0.06773 0.4789 0.74792 0.0
C691 C 0.09579 0.40025 0.68678 0.0
C692 C 0.06492 0.53629 0.85487 0.0
C693 C 0.07536 0.52486 0.82947 0.0
C694 C 0.10118 0.45685 0.79798 0.0
C695 C 0.0901 0.44348 0.7157 0.0
C696 C 0.08728 0.45583 0.7451 0.0
C697 C 0.07786 0.49284 0.82948 0.0
C698 C 0.08187 0.48021 0.80051 0.0
H699 H 0.09162 0.46781 0.64009 0.0
H700 H 0.08761 0.4882 0.68851 0.0
H701 H 0.11948 0.42733 0.76894 0.0
H702 H 0.05627 0.46852 0.9019 0.0
H703 H 0.0745 0.44812 0.85708 0.0
C704 C 0.75605 0.89207 0.89077 0.0
C705 C 0.78247 0.9105 0.88472 0.0
C706 C 0.73213 0.90366 0.90443 0.0
C707 C 0.71286 0.96732 0.94931 0.0
H708 H 0.63286 0.93943 0.92994 0.0
C709 C 0.61277 0.99752 0.01803 0.0
C710 C 0.58585 1.00256 1.00295 0.0
C711 C 0.63644 0.98648 1.00341 0.0
C712 C 0.65498 0.94783 0.93553 0.0
H713 H 0.80423 0.9558 0.88802 0.0
H714 H 0.76235 0.97656 0.91092 0.0
H715 H 0.67391 0.92129 0.90412 0.0
H716 H 0.56311 0.99993 0.96026 0.0
H717 H 0.6043 0.9814 0.93467 0.0
H718 H 0.69389 0.99462 0.98003 0.0
C719 C 0.76015 0.9528 0.90576 0.0
C720 C 0.67875 0.93698 0.92091 0.0
C721 C 0.78414 0.94109 0.89222 0.0
C722 C 0.58336 0.99618 0.97277 0.0
C723 C 0.60709 0.98531 0.95808 0.0
C724 C 0.68908 0.97829 0.96382 0.0
C725 C 0.73373 0.93422 0.91233 0.0
C726 C 0.70817 0.94641 0.92759 0.0
C727 C 0.63412 0.98027 0.9731 0.0
C728 C 0.65966 0.96868 0.9573 0.0
H729 H 0.75397 0.86851 0.88504 0.0
H730 H 0.71255 0.8883 0.90933 0.0
H731 H 0.735 0.97499 0.95554 0.0
H732 H 0.6156 1.00204 0.04129 0.0
H733 H 0.6565 0.98248 0.01613 0.0
C734 C 0.6777 0.08627 0.46099 0.0
C735 C 0.67619 0.11835 0.45354 0.0
C736 C 0.70497 0.07313 0.46154 0.0
C737 C 0.78172 0.08917 0.43403 0.0
H738 H 0.80077 0.02944 0.50197 0.0
C739 C 0.89188 0.03209 0.44059 0.0
C740 C 0.90645 0.02875 0.46867 0.0
C741 C 0.86295 0.04075 0.43838 0.0
C742 C 0.79582 0.04625 0.48296 0.0
H743 H 0.70097 0.16174 0.43907 0.0
H744 H 0.74864 0.13924 0.44054 0.0
H745 H 0.75149 0.04862 0.49781 0.0
H746 H 0.9016 0.03165 0.51656 0.0
H747 H 0.85125 0.04778 0.51253 0.0
H748 H 0.82616 0.08782 0.4197 0.0
C749 C 0.72907 0.12401 0.44599 0.0
C750 C 0.76748 0.0569 0.48036 0.0
C751 C 0.70193 0.137 0.44548 0.0
C752 C 0.89122 0.03429 0.49454 0.0
C753 C 0.8622 0.04314 0.49229 0.0
C754 C 0.80998 0.07863 0.43667 0.0
C755 C 0.73099 0.09197 0.4543 0.0
C756 C 0.76024 0.07874 0.45601 0.0
C757 C 0.84781 0.04662 0.46412 0.0
C758 C 0.81745 0.05719 0.46125 0.0
H759 H 0.65788 0.07161 0.46696 0.0
H760 H 0.70571 0.04831 0.46762 0.0
H761 H 0.77675 0.10573 0.41481 0.0
H762 H 0.90288 0.02847 0.42008 0.0
H763 H 0.85243 0.04281 0.41638 0.0
C764 C 0.30697 0.61763 0.08869 0.0
C765 C 0.31248 0.64598 0.10041 0.0
C766 C 0.27947 0.61018 0.07617 0.0
C767 C 0.21257 0.64232 0.04308 0.0
H768 H 0.17279 0.56504 0.0792 0.0
C769 C 0.10042 0.58786 1.00269 0.0
C770 C 0.07968 0.57864 0.02574 0.0
C771 C 0.12922 0.59801 1.00979 0.0
C772 C 0.18369 0.58665 0.06893 0.0
H773 H 0.29463 0.68936 0.10735 0.0
H774 H 0.24659 0.6768 0.08464 0.0
H775 H 0.22363 0.5787 0.09359 0.0
H776 H 0.0726 0.57351 0.07419 0.0
H777 H 0.12308 0.59067 0.0865 0.0
H778 H 0.17246 0.65016 0.01839 0.0
C779 C 0.2634 0.66027 0.08525 0.0
C780 C 0.21278 0.59432 0.07693 0.0
C781 C 0.29071 0.66745 0.0982 0.0
C782 C 0.08807 0.58048 0.05593 0.0
C783 C 0.11695 0.59012 0.06302 0.0
C784 C 0.18357 0.63438 0.03466 0.0
C785 C 0.25734 0.6313 0.07472 0.0
C786 C 0.22735 0.62236 0.06433 0.0
C787 C 0.13783 0.59858 0.04005 0.0
C788 C 0.16881 0.60668 0.04787 0.0
H789 H 0.32375 0.60103 0.08992 0.0
H790 H 0.27534 0.58779 0.06797 0.0
H791 H 0.22343 0.66406 0.03307 0.0
H792 H 0.09454 0.58675 0.97922 0.0
H793 H 0.14503 0.60438 0.99173 0.0
C794 C 0.15182 0.40887 0.54479 0.0
C795 C 0.1502 0.39326 0.57412 0.0
C796 C 0.17873 0.41294 0.52939 0.0
C797 C 0.25653 0.38987 0.53373 0.0
H798 H 0.2748 0.47498 0.49853 0.0
C799 C 0.37543 0.43156 0.50243 0.0
C800 C 0.38526 0.46068 0.51072 0.0
C801 C 0.34539 0.4227 0.50158 0.0
C802 C 0.27012 0.45113 0.50834 0.0
H803 H 0.17428 0.36858 0.61018 0.0
H804 H 0.22128 0.37544 0.58374 0.0
H805 H 0.22437 0.4578 0.51319 0.0
H806 H 0.37178 0.50399 0.52333 0.0
H807 H 0.31907 0.48823 0.52327 0.0
H808 H 0.30243 0.38371 0.53117 0.0
C809 C 0.20202 0.38413 0.57202 0.0
C810 C 0.24104 0.4411 0.5163 0.0
C811 C 0.17518 0.38009 0.58724 0.0
C812 C 0.36454 0.48148 0.51674 0.0
C813 C 0.33439 0.4724 0.51654 0.0
C814 C 0.28558 0.39997 0.52611 0.0
C815 C 0.2044 0.40155 0.54331 0.0
C816 C 0.23404 0.41057 0.52991 0.0
C817 C 0.32446 0.44251 0.50976 0.0
C818 C 0.29294 0.43097 0.51401 0.0
H819 H 0.13271 0.41952 0.53464 0.0
H820 H 0.1797 0.42611 0.50718 0.0
H821 H 0.25187 0.36607 0.54369 0.0
H822 H 0.39115 0.41538 0.49726 0.0
H823 H 0.33865 0.39992 0.49537 0.0
C824 C 0.88987 0.84287 0.87795 0.0
C825 C 0.86053 0.8396 0.868 0.0
C826 C 0.90462 0.81661 0.88975 0.0
C827 C 0.88756 0.7363 0.92734 0.0
H828 H 0.97017 0.72545 0.91504 0.0
C829 C 0.94834 0.63632 0.99552 0.0
C830 C 0.96723 0.62048 0.97893 0.0
C831 C 0.93648 0.6639 0.98241 0.0
C832 C 0.94703 0.72804 0.9187 0.0
H833 H 0.82423 0.80647 0.86099 0.0
H834 H 0.84985 0.7607 0.88089 0.0
H835 H 0.9479 0.77109 0.88933 0.0
H836 H 0.98873 0.62186 0.93553 0.0
H837 H 0.96833 0.66953 0.91302 0.0
H838 H 0.88655 0.69321 0.95646 0.0
C839 C 0.86147 0.7834 0.88022 0.0
C840 C 0.9343 0.7544 0.90408 0.0
C841 C 0.8469 0.80953 0.86838 0.0
C842 C 0.97429 0.63329 0.94912 0.0
C843 C 0.9627 0.66088 0.93618 0.0
C844 C 0.90033 0.71013 0.94214 0.0
C845 C 0.89023 0.78655 0.89202 0.0
C846 C 0.90427 0.75878 0.90792 0.0
C847 C 0.94345 0.67655 0.95248 0.0
C848 C 0.93021 0.70541 0.93787 0.0
H849 H 0.90066 0.86583 0.87838 0.0
H850 H 0.92671 0.82004 0.89862 0.0
H851 H 0.8645 0.73902 0.93131 0.0
H852 H 0.94239 0.6272 0.01848 0.0
H853 H 0.92193 0.67541 0.9958 0.0
C854 C 0.42101 0.71511 0.12052 0.0
C855 C 0.39638 0.70657 0.13898 0.0
C856 C 0.43595 0.74429 0.12082 0.0
C857 C 0.46864 0.80595 0.13136 0.0
H858 H 0.41381 0.8709 0.1216 0.0
C859 C 0.50526 0.93756 0.10775 0.0
C860 C 0.49065 0.9533 0.08317 0.0
C861 C 0.49521 0.90742 0.11962 0.0
C862 C 0.42939 0.85302 0.12447 0.0
H863 H 0.36889 0.72023 0.17351 0.0
H864 H 0.39507 0.77148 0.17436 0.0
H865 H 0.39532 0.81707 0.13514 0.0
H866 H 0.45383 0.95001 0.05209 0.0
H867 H 0.4362 0.89768 0.07297 0.0
H868 H 0.50259 0.84204 0.11956 0.0
C869 C 0.40278 0.75584 0.15948 0.0
C870 C 0.41887 0.82224 0.13254 0.0
C871 C 0.38798 0.72658 0.15923 0.0
C872 C 0.4656 0.93851 0.071 0.0
C873 C 0.45537 0.90861 0.08308 0.0
C874 C 0.47921 0.83686 0.12354 0.0
C875 C 0.42629 0.7654 0.13951 0.0
C876 C 0.43828 0.79827 0.13539 0.0
C877 C 0.47013 0.89271 0.10741 0.0
C878 C 0.45957 0.86057 0.11927 0.0
H879 H 0.42764 0.6998 0.10477 0.0
H880 H 0.45382 0.75103 0.10501 0.0
H881 H 0.4841 0.78796 0.13356 0.0
H882 H 0.52467 0.94836 0.11758 0.0
H883 H 0.50691 0.8957 0.13844 0.0
C884 C 0.11327 0.32373 0.59065 0.0
C885 C 0.09613 0.34889 0.58243 0.0
C886 C 0.1057 0.295 0.5806 0.0
C887 C 0.04149 0.24853 0.55485 0.0
H888 H 0.10127 0.19385 0.53767 0.0
C889 C 0.01824 0.12212 0.5221 0.0
C890 C 0.03609 0.10018 0.53749 0.0
C891 C 0.02349 0.15383 0.52512 0.0
C892 C 0.08432 0.20886 0.54246 0.0
H893 H 0.05824 0.36463 0.55703 0.0
H894 H 0.04495 0.31431 0.5388 0.0
H895 H 0.1157 0.24743 0.54518 0.0
H896 H 0.0721 0.09411 0.56961 0.0
H897 H 0.08109 0.1489 0.57471 0.0
H898 H 1.01017 0.20953 0.55231 0.0
C899 C 0.0641 0.31657 0.55322 0.0
C900 C 0.09258 0.23953 0.54681 0.0
C901 C 0.07177 0.34533 0.56333 0.0
C902 C 0.05819 0.11037 0.55705 0.0
C903 C 0.06349 0.14182 0.55989 0.0
C904 C 0.03318 0.21777 0.55028 0.0
C905 C 0.08073 0.29091 0.56215 0.0
C906 C 0.07139 0.25953 0.55383 0.0
C907 C 0.04676 0.16397 0.54339 0.0
C908 C 0.05465 0.19745 0.54485 0.0
H909 H 0.13173 0.32599 0.60596 0.0
H910 H 0.1187 0.27566 0.5884 0.0
H911 H 0.02462 0.26323 0.56046 0.0
H912 H 1.00107 0.11498 0.50686 0.0
H913 H 1.01019 0.17048 0.51226 0.0
C914 C 0.63132 0.22565 0.45228 0.0
C915 C 0.6111 0.2007 0.46207 0.0
C916 C 0.62403 0.25616 0.453 0.0
C917 C 0.57165 0.30307 0.48715 0.0
H918 H 0.59574 0.36562 0.42079 0.0
C919 C 0.52407 0.42195 0.47146 0.0
C920 C 0.54432 0.44808 0.46731 0.0
C921 C 0.53306 0.39238 0.46928 0.0
C922 C 0.58914 0.34842 0.43956 0.0
H923 H 0.56758 0.18752 0.48004 0.0
H924 H 0.55416 0.24109 0.48068 0.0
H925 H 0.60942 0.31227 0.42064 0.0
H926 H 0.58963 0.46382 0.45619 0.0
H927 H 0.60538 0.41164 0.45205 0.0
H928 H 0.55088 0.33911 0.50572 0.0
C929 C 0.57595 0.23717 0.47308 0.0
C930 C 0.59698 0.31791 0.43956 0.0
C931 C 0.58342 0.20659 0.47255 0.0
C932 C 0.57354 0.44412 0.45949 0.0
C933 C 0.58254 0.41434 0.45713 0.0
C934 C 0.56362 0.33345 0.487 0.0
C935 C 0.59618 0.26232 0.46321 0.0
C936 C 0.58821 0.29485 0.46331 0.0
C937 C 0.56248 0.38818 0.46276 0.0
C938 C 0.57211 0.35635 0.46313 0.0
H939 H 0.65263 0.22145 0.44363 0.0
H940 H 0.64026 0.2749 0.44562 0.0
H941 H 0.56506 0.28608 0.50609 0.0
H942 H 0.50131 0.42415 0.47726 0.0
H943 H 0.51704 0.37266 0.47315 0.0
loop_
_geom_bond_atom_site_label_1
_geom_bond_atom_site_label_2
_geom_bond_distance
_geom_bond_site_symmetry_2
_ccdc_geom_bond_type
C0 N1 1.317 . S
C0 N2 1.348 . S
C0 C3 1.485 . S
N1 C0 1.317 . S
N1 N5 1.370 . S
N2 C0 1.348 . S
N2 C4 1.346 . S
C3 C0 1.485 . S
C3 H7 0.960 . S
C3 H8 0.961 . S
C3 H9 0.960 . S
C4 N2 1.346 . S
C4 N5 1.307 . S
C4 C6 1.486 . S
N5 N1 1.370 . S
N5 C4 1.307 . S
C6 C4 1.486 . S
C6 H10 0.960 . S
C6 H11 0.960 . S
C6 H12 0.959 . S
H7 C3 0.960 . S
H8 C3 0.961 . S
H9 C3 0.960 . S
H10 C6 0.960 . S
H11 C6 0.960 . S
H12 C6 0.959 . S
C13 N14 1.317 . S
C13 N15 1.348 . S
C13 C16 1.485 . S
N14 C13 1.317 . S
N14 N18 1.370 . S
N15 C13 1.348 . S
N15 C17 1.346 . S
C16 C13 1.485 . S
C16 H20 0.960 . S
C16 H21 0.961 . S
C16 H22 0.960 . S
C17 N15 1.346 . S
C17 N18 1.307 . S
C17 C19 1.486 . S
N18 N14 1.370 . S
N18 C17 1.307 . S
C19 C17 1.486 . S
C19 H23 0.960 . S
C19 H24 0.960 . S
C19 H25 0.959 . S
H20 C16 0.960 . S
H21 C16 0.961 . S
H22 C16 0.960 . S
H23 C19 0.960 . S
H24 C19 0.960 . S
H25 C19 0.959 . S
C26 N27 1.317 . S
C26 N28 1.348 . S
C26 C29 1.485 . S
N27 C26 1.317 . S
N27 N31 1.370 . S
N28 C26 1.348 . S
N28 C30 1.346 . S
C29 C26 1.485 . S
C29 H33 0.960 . S
C29 H34 0.961 . S
C29 H35 0.960 . S
C30 N28 1.346 . S
C30 N31 1.307 . S
C30 C32 1.486 . S
N31 N27 1.370 . S
N31 C30 1.307 . S
C32 C30 1.486 . S
C32 H36 0.960 . S
C32 H37 0.960 . S
C32 H38 0.959 . S
H33 C29 0.960 . S
H34 C29 0.961 . S
H35 C29 0.960 . S
H36 C32 0.960 . S
H37 C32 0.960 . S
H38 C32 0.959 . S
C39 N40 1.317 . S
C39 N41 1.348 . S
C39 C42 1.485 . S
N40 C39 1.317 . S
N40 N44 1.370 . S
N41 C39 1.348 . S
N41 C43 1.346 . S
C42 C39 1.485 . S
C42 H46 0.960 . S
C42 H47 0.961 . S
C42 H48 0.960 . S
C43 N41 1.346 . S
C43 N44 1.307 . S
C43 C45 1.486 . S
N44 N40 1.370 . S
N44 C43 1.307 . S
C45 C43 1.486 . S
C45 H49 0.960 . S
C45 H50 0.960 . S
C45 H51 0.959 . S
H46 C42 0.960 . S
H47 C42 0.961 . S
H48 C42 0.960 . S
H49 C45 0.960 . S
H50 C45 0.960 . S
H51 C45 0.959 . S
C52 N53 1.317 . S
C52 N54 1.348 . S
C52 C55 1.485 . S
N53 C52 1.317 . S
N53 N57 1.370 . S
N54 C52 1.348 . S
N54 C56 1.346 . S
C55 C52 1.485 . S
C55 H59 0.960 . S
C55 H60 0.961 . S
C55 H61 0.960 . S
C56 N54 1.346 . S
C56 N57 1.307 . S
C56 C58 1.486 . S
N57 N53 1.370 . S
N57 C56 1.307 . S
C58 C56 1.486 . S
C58 H62 0.960 . S
C58 H63 0.960 . S
C58 H64 0.959 . S
H59 C55 0.960 . S
H60 C55 0.961 . S
H61 C55 0.960 . S
H62 C58 0.960 . S
H63 C58 0.960 . S
H64 C58 0.959 . S
C65 N66 1.317 . S
C65 N67 1.348 . S
C65 C68 1.485 . S
N66 C65 1.317 . S
N66 N70 1.370 . S
N67 C65 1.348 . S
N67 C69 1.346 . S
C68 C65 1.485 . S
C68 H72 0.960 . S
C68 H73 0.961 . S
C68 H74 0.960 . S
C69 N67 1.346 . S
C69 N70 1.307 . S
C69 C71 1.486 . S
N70 N66 1.370 . S
N70 C69 1.307 . S
C71 C69 1.486 . S
C71 H75 0.960 . S
C71 H76 0.960 . S
C71 H77 0.959 . S
H72 C68 0.960 . S
H73 C68 0.961 . S
H74 C68 0.960 . S
H75 C71 0.960 . S
H76 C71 0.960 . S
H77 C71 0.959 . S
C78 N79 1.317 . S
C78 N80 1.348 . S
C78 C81 1.485 . S
N79 C78 1.317 . S
N79 N83 1.370 . S
N80 C78 1.348 . S
N80 C82 1.346 . S
C81 C78 1.485 . S
C81 H85 0.960 . S
C81 H86 0.961 . S
C81 H87 0.960 . S
C82 N80 1.346 . S
C82 N83 1.307 . S
C82 C84 1.486 . S
N83 N79 1.370 . S
N83 C82 1.307 . S
C84 C82 1.486 . S
C84 H88 0.960 . S
C84 H89 0.960 . S
C84 H90 0.959 . S
H85 C81 0.960 . S
H86 C81 0.961 . S
H87 C81 0.960 . S
H88 C84 0.960 . S
H89 C84 0.960 . S
H90 C84 0.959 . S
C91 N92 1.317 . S
C91 N93 1.348 . S
C91 C94 1.485 . S
N92 C91 1.317 . S
N92 N96 1.370 . S
N93 C91 1.348 . S
N93 C95 1.346 . S
C94 C91 1.485 . S
C94 H98 0.960 . S
C94 H99 0.961 . S
C94 H100 0.960 . S
C95 N93 1.346 . S
C95 N96 1.307 . S
C95 C97 1.486 . S
N96 N92 1.370 . S
N96 C95 1.307 . S
C97 C95 1.486 . S
C97 H101 0.960 . S
C97 H102 0.960 . S
C97 H103 0.959 . S
H98 C94 0.960 . S
H99 C94 0.961 . S
H100 C94 0.960 . S
H101 C97 0.960 . S
H102 C97 0.960 . S
H103 C97 0.959 . S
Co104 N109 2.057 1_455 S
Co104 O121 2.021 . S
Co104 O124 2.062 . S
Co104 O128 2.117 1_545 S
Co104 O129 2.020 . S
C105 O125 1.259 . S
C105 O128 1.258 . S
Co106 N115 2.057 1_545 S
Co106 O122 2.117 . S
Co106 O123 2.020 . S
Co106 O125 2.021 1_545 S
Co106 O130 2.062 1_545 S
C107 N109 1.316 . S
C107 N110 1.347 . S
C107 H112 0.931 . S
C108 N109 1.375 . S
C108 C111 1.350 . S
C108 H113 0.930 1_545 S
N109 Co104 2.057 1_655 S
N109 C107 1.316 . S
N109 C108 1.375 . S
N110 C107 1.347 . S
N110 C111 1.373 . S
C111 C108 1.350 . S
C111 N110 1.373 . S
C111 H132 0.931 . S
H112 C107 0.931 . S
H113 C108 0.930 1_565 S
C114 O121 1.259 . S
C114 O122 1.258 . S
N115 Co106 2.057 1_565 S
N115 C116 1.316 . S
N115 C117 1.375 1_565 S
C116 N115 1.316 . S
C116 N118 1.347 . S
C116 H127 0.931 . S
C117 N115 1.375 1_545 S
C117 C119 1.350 . S
C117 H126 0.930 . S
N118 C116 1.347 . S
N118 C119 1.373 1_565 S
C119 C117 1.350 . S
C119 N118 1.373 1_545 S
C119 H133 0.931 . S
C120 O123 1.256 . S
C120 O124 1.255 . S
O121 Co104 2.021 . S
O121 C114 1.259 . S
O122 Co106 2.117 . S
O122 C114 1.258 . S
O123 Co106 2.020 . S
O123 C120 1.256 . S
O124 Co104 2.062 . S
O124 C120 1.255 . S
O125 C105 1.259 . S
O125 Co106 2.021 1_565 S
H126 C117 0.930 . S
H127 C116 0.931 . S
O128 Co104 2.117 1_565 S
O128 C105 1.258 . S
O129 Co104 2.020 . S
O129 C131 1.256 1_545 S
O130 Co106 2.062 1_565 S
O130 C131 1.255 . S
C131 O129 1.256 1_565 S
C131 O130 1.255 . S
H132 C111 0.931 . S
H133 C119 0.931 . S
Co134 N139 2.057 1_545 S
Co134 O151 2.021 . S
Co134 O154 2.062 . S
Co134 O158 2.117 1_546 S
Co134 O159 2.020 1_556 S
C135 O155 1.259 . S
C135 O158 1.258 . S
Co136 N145 2.057 . S
Co136 O152 2.117 . S
Co136 O153 2.020 . S
Co136 O155 2.021 1_545 S
Co136 O160 2.062 . S
C137 N139 1.316 1_545 S
C137 N140 1.347 1_545 S
C137 H142 0.931 . S
C138 N139 1.375 . S
C138 C141 1.350 . S
C138 H143 0.930 . S
N139 Co134 2.057 1_565 S
N139 C137 1.316 1_565 S
N139 C138 1.375 . S
N140 C137 1.347 1_565 S
N140 C141 1.373 . S
C141 C138 1.350 . S
C141 N140 1.373 . S
C141 H162 0.931 . S
H142 C137 0.931 . S
H143 C138 0.930 . S
C144 O151 1.259 1_554 S
C144 O152 1.258 . S
N145 Co136 2.057 . S
N145 C146 1.316 . S
N145 C147 1.375 . S
C146 N145 1.316 . S
C146 N148 1.347 . S
C146 H157 0.931 . S
C147 N145 1.375 . S
C147 C149 1.350 . S
C147 H156 0.930 . S
N148 C146 1.347 . S
N148 C149 1.373 . S
C149 C147 1.350 . S
C149 N148 1.373 . S
C149 H163 0.931 . S
C150 O153 1.256 . S
C150 O154 1.255 1_554 S
O151 Co134 2.021 . S
O151 C144 1.259 1_556 S
O152 Co136 2.117 . S
O152 C144 1.258 . S
O153 Co136 2.020 . S
O153 C150 1.256 . S
O154 Co134 2.062 . S
O154 C150 1.255 1_556 S
O155 C135 1.259 . S
O155 Co136 2.021 1_565 S
H156 C147 0.930 . S
H157 C146 0.931 . S
O158 Co134 2.117 1_564 S
O158 C135 1.258 . S
O159 Co134 2.020 1_554 S
O159 C161 1.256 . S
O160 Co136 2.062 . S
O160 C161 1.255 . S
C161 O159 1.256 . S
C161 O160 1.255 . S
H162 C141 0.931 . S
H163 C149 0.931 . S
Co164 N169 2.057 . S
Co164 O181 2.021 . S
Co164 O184 2.062 . S
Co164 O188 2.117 . S
Co164 O189 2.020 . S
C165 O185 1.259 . S
C165 O188 1.258 . S
Co166 N175 2.057 . S
Co166 O182 2.117 . S
Co166 O183 2.020 . S
Co166 O185 2.021 . S
Co166 O190 2.062 . S
C167 N169 1.316 . S
C167 N170 1.347 . S
C167 H172 0.931 . S
C168 N169 1.375 . S
C168 C171 1.350 . S
C168 H173 0.930 . S
N169 Co164 2.057 . S
N169 C167 1.316 . S
N169 C168 1.375 . S
N170 C167 1.347 . S
N170 C171 1.373 . S
C171 C168 1.350 . S
C171 N170 1.373 . S
C171 H192 0.931 . S
H172 C167 0.931 . S
H173 C168 0.930 . S
C174 O181 1.259 . S
C174 O182 1.258 . S
N175 Co166 2.057 . S
N175 C176 1.316 . S
N175 C177 1.375 . S
C176 N175 1.316 . S
C176 N178 1.347 . S
C176 H187 0.931 . S
C177 N175 1.375 . S
C177 C179 1.350 . S
C177 H186 0.930 . S
N178 C176 1.347 . S
N178 C179 1.373 . S
C179 C177 1.350 . S
C179 N178 1.373 . S
C179 H193 0.931 . S
C180 O183 1.256 . S
C180 O184 1.255 . S
O181 Co164 2.021 . S
O181 C174 1.259 . S
O182 Co166 2.117 . S
O182 C174 1.258 . S
O183 Co166 2.020 . S
O183 C180 1.256 . S
O184 Co164 2.062 . S
O184 C180 1.255 . S
O185 C165 1.259 . S
O185 Co166 2.021 . S
H186 C177 0.930 . S
H187 C176 0.931 . S
O188 Co164 2.117 . S
O188 C165 1.258 . S
O189 Co164 2.020 . S
O189 C191 1.256 . S
O190 Co166 2.062 . S
O190 C191 1.255 . S
C191 O189 1.256 . S
C191 O190 1.255 . S
H192 C171 0.931 . S
H193 C179 0.931 . S
Co194 N199 2.057 . S
Co194 O211 2.021 . S
Co194 O214 2.062 . S
Co194 O218 2.117 1_455 S
Co194 O219 2.020 1_455 S
C195 O215 1.259 1_556 S
C195 O218 1.258 . S
Co196 N205 2.057 . S
Co196 O212 2.117 1_655 S
Co196 O213 2.020 1_655 S
Co196 O215 2.021 . S
Co196 O220 2.062 . S
C197 N199 1.316 . S
C197 N200 1.347 . S
C197 H202 0.931 . S
C198 N199 1.375 1_655 S
C198 C201 1.350 1_655 S
C198 H203 0.930 . S
N199 Co194 2.057 . S
N199 C197 1.316 . S
N199 C198 1.375 1_455 S
N200 C197 1.347 . S
N200 C201 1.373 . S
C201 C198 1.350 1_455 S
C201 N200 1.373 . S
C201 H222 0.931 1_455 S
H202 C197 0.931 . S
H203 C198 0.930 . S
C204 O211 1.259 1_554 S
C204 O212 1.258 . S
N205 Co196 2.057 . S
N205 C206 1.316 . S
N205 C207 1.375 1_655 S
C206 N205 1.316 . S
C206 N208 1.347 . S
C206 H217 0.931 . S
C207 N205 1.375 1_455 S
C207 C209 1.350 1_455 S
C207 H216 0.930 . S
N208 C206 1.347 . S
N208 C209 1.373 . S
C209 C207 1.350 1_655 S
C209 N208 1.373 . S
C209 H223 0.931 1_655 S
C210 O213 1.256 . S
C210 O214 1.255 1_554 S
O211 Co194 2.021 . S
O211 C204 1.259 1_556 S
O212 Co196 2.117 1_455 S
O212 C204 1.258 . S
O213 Co196 2.020 1_455 S
O213 C210 1.256 . S
O214 Co194 2.062 . S
O214 C210 1.255 1_556 S
O215 C195 1.259 1_554 S
O215 Co196 2.021 . S
H216 C207 0.930 . S
H217 C206 0.931 . S
O218 Co194 2.117 1_655 S
O218 C195 1.258 . S
O219 Co194 2.020 1_655 S
O219 C221 1.256 . S
O220 Co196 2.062 . S
O220 C221 1.255 1_554 S
C221 O219 1.256 . S
C221 O220 1.255 1_556 S
H222 C201 0.931 1_655 S
H223 C209 0.931 1_455 S
C224 C225 1.349 . S
C224 C226 1.327 . S
C224 H249 0.950 . S
C225 C224 1.349 . S
C225 C241 1.349 . S
C226 C224 1.327 . S
C226 C245 1.429 . S
C226 H250 0.950 . S
C227 C244 1.574 . S
C227 C246 1.368 . S
C227 H251 0.949 . S
H228 C232 0.949 . S
C229 C230 1.349 . S
C229 C231 1.327 . S
C229 H252 0.950 . S
C230 C229 1.349 . S
C230 C242 1.349 . S
C231 C229 1.327 . S
C231 C247 1.429 . S
C231 H253 0.950 . S
C232 H228 0.949 . S
C232 C240 1.574 . S
C232 C248 1.368 . S
H233 C241 0.950 . S
H234 C239 0.950 . S
H235 C240 0.949 . S
H236 C242 0.950 . S
H237 C243 0.950 . S
H238 C244 0.949 . S
C239 H234 0.950 . S
C239 C241 1.327 . S
C239 C245 1.429 . S
C240 C232 1.574 . S
C240 H235 0.949 . S
C240 C246 1.368 . S
C241 C225 1.349 . S
C241 H233 0.950 . S
C241 C239 1.327 . S
C242 C230 1.349 . S
C242 H236 0.950 . S
C242 C243 1.327 . S
C243 H237 0.950 . S
C243 C242 1.327 . S
C243 C247 1.429 . S
C244 C227 1.574 . S
C244 H238 0.949 . S
C244 C248 1.368 . S
C245 C226 1.429 . S
C245 C239 1.429 . S
C245 C246 1.523 . S
C246 C227 1.368 . S
C246 C240 1.368 . S
C246 C245 1.523 . S
C247 C231 1.429 . S
C247 C243 1.429 . S
C247 C248 1.523 . S
C248 C232 1.368 . S
C248 C244 1.368 . S
C248 C247 1.523 . S
H249 C224 0.950 . S
H250 C226 0.950 . S
H251 C227 0.949 . S
H252 C229 0.950 . S
H253 C231 0.950 . S
C254 C255 1.349 . S
C254 C256 1.327 . S
C254 H279 0.950 . S
C255 C254 1.349 . S
C255 C271 1.349 . S
C256 C254 1.327 . S
C256 C275 1.429 . S
C256 H280 0.950 . S
C257 C274 1.574 . S
C257 C276 1.368 . S
C257 H281 0.949 . S
H258 C262 0.949 . S
C259 C260 1.349 . S
C259 C261 1.327 . S
C259 H282 0.950 . S
C260 C259 1.349 . S
C260 C272 1.349 . S
C261 C259 1.327 . S
C261 C277 1.429 . S
C261 H283 0.950 . S
C262 H258 0.949 . S
C262 C270 1.574 . S
C262 C278 1.368 . S
H263 C271 0.950 . S
H264 C269 0.950 . S
H265 C270 0.949 . S
H266 C272 0.950 1_545 S
H267 C273 0.950 . S
H268 C274 0.949 . S
C269 H264 0.950 . S
C269 C271 1.327 . S
C269 C275 1.429 . S
C270 C262 1.574 . S
C270 H265 0.949 . S
C270 C276 1.368 . S
C271 C255 1.349 . S
C271 H263 0.950 . S
C271 C269 1.327 . S
C272 C260 1.349 . S
C272 H266 0.950 1_565 S
C272 C273 1.327 . S
C273 H267 0.950 . S
C273 C272 1.327 . S
C273 C277 1.429 . S
C274 C257 1.574 . S
C274 H268 0.949 . S
C274 C278 1.368 . S
C275 C256 1.429 . S
C275 C269 1.429 . S
C275 C276 1.523 . S
C276 C257 1.368 . S
C276 C270 1.368 . S
C276 C275 1.523 . S
C277 C261 1.429 . S
C277 C273 1.429 . S
C277 C278 1.523 . S
C278 C262 1.368 . S
C278 C274 1.368 . S
C278 C277 1.523 . S
H279 C254 0.950 . S
H280 C256 0.950 . S
H281 C257 0.949 . S
H282 C259 0.950 . S
H283 C261 0.950 . S
C284 C285 1.349 . S
C284 C286 1.327 . S
C284 H309 0.950 . S
C285 C284 1.349 . S
C285 C301 1.349 . S
C286 C284 1.327 . S
C286 C305 1.429 . S
C286 H310 0.950 . S
C287 C304 1.574 . S
C287 C306 1.368 . S
C287 H311 0.949 . S
H288 C292 0.949 . S
C289 C290 1.349 . S
C289 C291 1.327 . S
C289 H312 0.950 . S
C290 C289 1.349 . S
C290 C302 1.349 . S
C291 C289 1.327 . S
C291 C307 1.429 . S
C291 H313 0.950 . S
C292 H288 0.949 . S
C292 C300 1.574 . S
C292 C308 1.368 . S
H293 C301 0.950 . S
H294 C299 0.950 . S
H295 C300 0.949 . S
H296 C302 0.950 . S
H297 C303 0.950 . S
H298 C304 0.949 . S
C299 H294 0.950 . S
C299 C301 1.327 . S
C299 C305 1.429 . S
C300 C292 1.574 . S
C300 H295 0.949 . S
C300 C306 1.368 . S
C301 C285 1.349 . S
C301 H293 0.950 . S
C301 C299 1.327 . S
C302 C290 1.349 . S
C302 H296 0.950 . S
C302 C303 1.327 . S
C303 H297 0.950 . S
C303 C302 1.327 . S
C303 C307 1.429 . S
C304 C287 1.574 . S
C304 H298 0.949 . S
C304 C308 1.368 . S
C305 C286 1.429 . S
C305 C299 1.429 . S
C305 C306 1.523 . S
C306 C287 1.368 . S
C306 C300 1.368 . S
C306 C305 1.523 . S
C307 C291 1.429 . S
C307 C303 1.429 . S
C307 C308 1.523 . S
C308 C292 1.368 . S
C308 C304 1.368 . S
C308 C307 1.523 . S
H309 C284 0.950 . S
H310 C286 0.950 . S
H311 C287 0.949 . S
H312 C289 0.950 . S
H313 C291 0.950 . S
C314 C315 1.349 . S
C314 C316 1.327 . S
C314 H339 0.950 . S
C315 C314 1.349 . S
C315 C331 1.349 . S
C316 C314 1.327 . S
C316 C335 1.429 . S
C316 H340 0.950 . S
C317 C334 1.574 . S
C317 C336 1.368 . S
C317 H341 0.949 . S
H318 C322 0.949 . S
C319 C320 1.349 . S
C319 C321 1.327 . S
C319 H342 0.950 . S
C320 C319 1.349 . S
C320 C332 1.349 . S
C321 C319 1.327 . S
C321 C337 1.429 . S
C321 H343 0.950 . S
C322 H318 0.949 . S
C322 C330 1.574 . S
C322 C338 1.368 . S
H323 C331 0.950 . S
H324 C329 0.950 . S
H325 C330 0.949 . S
H326 C332 0.950 . S
H327 C333 0.950 . S
H328 C334 0.949 . S
C329 H324 0.950 . S
C329 C331 1.327 . S
C329 C335 1.429 . S
C330 C322 1.574 . S
C330 H325 0.949 . S
C330 C336 1.368 . S
C331 C315 1.349 . S
C331 H323 0.950 . S
C331 C329 1.327 . S
C332 C320 1.349 . S
C332 H326 0.950 . S
C332 C333 1.327 . S
C333 H327 0.950 . S
C333 C332 1.327 . S
C333 C337 1.429 . S
C334 C317 1.574 . S
C334 H328 0.949 . S
C334 C338 1.368 . S
C335 C316 1.429 . S
C335 C329 1.429 . S
C335 C336 1.523 . S
C336 C317 1.368 . S
C336 C330 1.368 . S
C336 C335 1.523 . S
C337 C321 1.429 . S
C337 C333 1.429 . S
C337 C338 1.523 . S
C338 C322 1.368 . S
C338 C334 1.368 . S
C338 C337 1.523 . S
H339 C314 0.950 . S
H340 C316 0.950 . S
H341 C317 0.949 . S
H342 C319 0.950 . S
H343 C321 0.950 . S
C344 C345 1.349 . S
C344 C346 1.327 . S
C344 H369 0.950 . S
C345 C344 1.349 . S
C345 C361 1.349 . S
C346 C344 1.327 . S
C346 C365 1.429 . S
C346 H370 0.950 . S
C347 C364 1.574 . S
C347 C366 1.368 . S
C347 H371 0.949 . S
H348 C352 0.949 . S
C349 C350 1.349 . S
C349 C351 1.327 . S
C349 H372 0.950 . S
C350 C349 1.349 . S
C350 C362 1.349 . S
C351 C349 1.327 . S
C351 C367 1.429 . S
C351 H373 0.950 . S
C352 H348 0.949 . S
C352 C360 1.574 . S
C352 C368 1.368 . S
H353 C361 0.950 . S
H354 C359 0.950 . S
H355 C360 0.949 . S
H356 C362 0.950 . S
H357 C363 0.950 . S
H358 C364 0.949 . S
C359 H354 0.950 . S
C359 C361 1.327 . S
C359 C365 1.429 . S
C360 C352 1.574 . S
C360 H355 0.949 . S
C360 C366 1.368 . S
C361 C345 1.349 . S
C361 H353 0.950 . S
C361 C359 1.327 . S
C362 C350 1.349 . S
C362 H356 0.950 . S
C362 C363 1.327 . S
C363 H357 0.950 . S
C363 C362 1.327 . S
C363 C367 1.429 . S
C364 C347 1.574 . S
C364 H358 0.949 . S
C364 C368 1.368 . S
C365 C346 1.429 . S
C365 C359 1.429 . S
C365 C366 1.523 . S
C366 C347 1.368 . S
C366 C360 1.368 . S
C366 C365 1.523 . S
C367 C351 1.429 . S
C367 C363 1.429 . S
C367 C368 1.523 . S
C368 C352 1.368 . S
C368 C364 1.368 . S
C368 C367 1.523 . S
H369 C344 0.950 . S
H370 C346 0.950 . S
H371 C347 0.949 . S
H372 C349 0.950 . S
H373 C351 0.950 . S
C374 C375 1.349 . S
C374 C376 1.327 . S
C374 H399 0.950 . S
C375 C374 1.349 . S
C375 C391 1.349 . S
C376 C374 1.327 . S
C376 C395 1.429 . S
C376 H400 0.950 . S
C377 C394 1.574 . S
C377 C396 1.368 . S
C377 H401 0.949 . S
H378 C382 0.949 . S
C379 C380 1.349 . S
C379 C381 1.327 . S
C379 H402 0.950 . S
C380 C379 1.349 . S
C380 C392 1.349 . S
C381 C379 1.327 . S
C381 C397 1.429 . S
C381 H403 0.950 . S
C382 H378 0.949 . S
C382 C390 1.574 . S
C382 C398 1.368 . S
H383 C391 0.950 . S
H384 C389 0.950 . S
H385 C390 0.949 . S
H386 C392 0.950 . S
H387 C393 0.950 . S
H388 C394 0.949 . S
C389 H384 0.950 . S
C389 C391 1.327 . S
C389 C395 1.429 . S
C390 C382 1.574 . S
C390 H385 0.949 . S
C390 C396 1.368 . S
C391 C375 1.349 . S
C391 H383 0.950 . S
C391 C389 1.327 . S
C392 C380 1.349 . S
C392 H386 0.950 . S
C392 C393 1.327 . S
C393 H387 0.950 . S
C393 C392 1.327 . S
C393 C397 1.429 . S
C394 C377 1.574 . S
C394 H388 0.949 . S
C394 C398 1.368 . S
C395 C376 1.429 . S
C395 C389 1.429 . S
C395 C396 1.523 . S
C396 C377 1.368 . S
C396 C390 1.368 . S
C396 C395 1.523 . S
C397 C381 1.429 . S
C397 C393 1.429 . S
C397 C398 1.523 . S
C398 C382 1.368 . S
C398 C394 1.368 . S
C398 C397 1.523 . S
H399 C374 0.950 . S
H400 C376 0.950 . S
H401 C377 0.949 . S
H402 C379 0.950 . S
H403 C381 0.950 . S
C404 C405 1.349 . S
C404 C406 1.327 . S
C404 H429 0.950 . S
C405 C404 1.349 . S
C405 C421 1.349 . S
C406 C404 1.327 . S
C406 C425 1.429 . S
C406 H430 0.950 . S
C407 C424 1.574 . S
C407 C426 1.368 . S
C407 H431 0.949 . S
H408 C412 0.949 . S
C409 C410 1.349 . S
C409 C411 1.327 . S
C409 H432 0.950 . S
C410 C409 1.349 . S
C410 C422 1.349 . S
C411 C409 1.327 . S
C411 C427 1.429 . S
C411 H433 0.950 . S
C412 H408 0.949 . S
C412 C420 1.574 . S
C412 C428 1.368 . S
H413 C421 0.950 . S
H414 C419 0.950 . S
H415 C420 0.949 . S
H416 C422 0.950 . S
H417 C423 0.950 . S
H418 C424 0.949 . S
C419 H414 0.950 . S
C419 C421 1.327 . S
C419 C425 1.429 . S
C420 C412 1.574 . S
C420 H415 0.949 . S
C420 C426 1.368 . S
C421 C405 1.349 . S
C421 H413 0.950 . S
C421 C419 1.327 . S
C422 C410 1.349 . S
C422 H416 0.950 . S
C422 C423 1.327 . S
C423 H417 0.950 . S
C423 C422 1.327 . S
C423 C427 1.429 . S
C424 C407 1.574 . S
C424 H418 0.949 . S
C424 C428 1.368 . S
C425 C406 1.429 . S
C425 C419 1.429 . S
C425 C426 1.523 . S
C426 C407 1.368 . S
C426 C420 1.368 . S
C426 C425 1.523 . S
C427 C411 1.429 . S
C427 C423 1.429 . S
C427 C428 1.523 . S
C428 C412 1.368 . S
C428 C424 1.368 . S
C428 C427 1.523 . S
H429 C404 0.950 . S
H430 C406 0.950 . S
H431 C407 0.949 . S
H432 C409 0.950 . S
H433 C411 0.950 . S
C434 C435 1.349 . S
C434 C436 1.327 . S
C434 H459 0.950 . S
C435 C434 1.349 . S
C435 C451 1.349 . S
C436 C434 1.327 . S
C436 C455 1.429 . S
C436 H460 0.950 . S
C437 C454 1.574 . S
C437 C456 1.368 . S
C437 H461 0.949 . S
H438 C442 0.949 . S
C439 C440 1.349 . S
C439 C441 1.327 . S
C439 H462 0.950 . S
C440 C439 1.349 . S
C440 C452 1.349 . S
C441 C439 1.327 . S
C441 C457 1.429 . S
C441 H463 0.950 . S
C442 H438 0.949 . S
C442 C450 1.574 . S
C442 C458 1.368 . S
H443 C451 0.950 . S
H444 C449 0.950 . S
H445 C450 0.949 . S
H446 C452 0.950 . S
H447 C453 0.950 . S
H448 C454 0.949 . S
C449 H444 0.950 . S
C449 C451 1.327 . S
C449 C455 1.429 . S
C450 C442 1.574 . S
C450 H445 0.949 . S
C450 C456 1.368 . S
C451 C435 1.349 . S
C451 H443 0.950 . S
C451 C449 1.327 . S
C452 C440 1.349 . S
C452 H446 0.950 . S
C452 C453 1.327 . S
C453 H447 0.950 . S
C453 C452 1.327 . S
C453 C457 1.429 . S
C454 C437 1.574 . S
C454 H448 0.949 . S
C454 C458 1.368 . S
C455 C436 1.429 . S
C455 C449 1.429 . S
C455 C456 1.523 . S
C456 C437 1.368 . S
C456 C450 1.368 . S
C456 C455 1.523 . S
C457 C441 1.429 . S
C457 C453 1.429 . S
C457 C458 1.523 . S
C458 C442 1.368 . S
C458 C454 1.368 . S
C458 C457 1.523 . S
H459 C434 0.950 . S
H460 C436 0.950 . S
H461 C437 0.949 . S
H462 C439 0.950 . S
H463 C441 0.950 . S
C464 C465 1.349 . S
C464 C466 1.327 . S
C464 H489 0.950 . S
C465 C464 1.349 . S
C465 C481 1.349 . S
C466 C464 1.327 . S
C466 C485 1.429 . S
C466 H490 0.950 . S
C467 C484 1.574 . S
C467 C486 1.368 . S
C467 H491 0.949 . S
H468 C472 0.949 . S
C469 C470 1.349 . S
C469 C471 1.327 . S
C469 H492 0.950 . S
C470 C469 1.349 . S
C470 C482 1.349 . S
C471 C469 1.327 . S
C471 C487 1.429 . S
C471 H493 0.950 . S
C472 H468 0.949 . S
C472 C480 1.574 . S
C472 C488 1.368 . S
H473 C481 0.950 . S
H474 C479 0.950 . S
H475 C480 0.949 . S
H476 C482 0.950 1_655 S
H477 C483 0.950 . S
H478 C484 0.949 . S
C479 H474 0.950 . S
C479 C481 1.327 . S
C479 C485 1.429 . S
C480 C472 1.574 . S
C480 H475 0.949 . S
C480 C486 1.368 . S
C481 C465 1.349 . S
C481 H473 0.950 . S
C481 C479 1.327 . S
C482 C470 1.349 . S
C482 H476 0.950 1_455 S
C482 C483 1.327 . S
C483 H477 0.950 . S
C483 C482 1.327 . S
C483 C487 1.429 . S
C484 C467 1.574 . S
C484 H478 0.949 . S
C484 C488 1.368 . S
C485 C466 1.429 . S
C485 C479 1.429 . S
C485 C486 1.523 . S
C486 C467 1.368 . S
C486 C480 1.368 . S
C486 C485 1.523 . S
C487 C471 1.429 . S
C487 C483 1.429 . S
C487 C488 1.523 . S
C488 C472 1.368 . S
C488 C484 1.368 . S
C488 C487 1.523 . S
H489 C464 0.950 . S
H490 C466 0.950 . S
H491 C467 0.949 . S
H492 C469 0.950 . S
H493 C471 0.950 . S
C494 C495 1.349 . S
C494 C496 1.327 . S
C494 H519 0.950 . S
C495 C494 1.349 . S
C495 C511 1.349 . S
C496 C494 1.327 . S
C496 C515 1.429 . S
C496 H520 0.950 . S
C497 C514 1.574 . S
C497 C516 1.368 . S
C497 H521 0.949 . S
H498 C502 0.949 . S
C499 C500 1.349 . S
C499 C501 1.327 . S
C499 H522 0.950 1_556 S
C500 C499 1.349 . S
C500 C512 1.349 . S
C501 C499 1.327 . S
C501 C517 1.429 . S
C501 H523 0.950 . S
C502 H498 0.949 . S
C502 C510 1.574 . S
C502 C518 1.368 . S
H503 C511 0.950 . S
H504 C509 0.950 . S
H505 C510 0.949 . S
H506 C512 0.950 . S
H507 C513 0.950 . S
H508 C514 0.949 . S
C509 H504 0.950 . S
C509 C511 1.327 . S
C509 C515 1.429 . S
C510 C502 1.574 . S
C510 H505 0.949 . S
C510 C516 1.368 . S
C511 C495 1.349 . S
C511 H503 0.950 . S
C511 C509 1.327 . S
C512 C500 1.349 . S
C512 H506 0.950 . S
C512 C513 1.327 . S
C513 H507 0.950 . S
C513 C512 1.327 . S
C513 C517 1.429 . S
C514 C497 1.574 . S
C514 H508 0.949 . S
C514 C518 1.368 . S
C515 C496 1.429 . S
C515 C509 1.429 . S
C515 C516 1.523 . S
C516 C497 1.368 . S
C516 C510 1.368 . S
C516 C515 1.523 . S
C517 C501 1.429 . S
C517 C513 1.429 . S
C517 C518 1.523 . S
C518 C502 1.368 . S
C518 C514 1.368 . S
C518 C517 1.523 . S
H519 C494 0.950 . S
H520 C496 0.950 . S
H521 C497 0.949 . S
H522 C499 0.950 1_554 S
H523 C501 0.950 . S
C524 C525 1.349 . S
C524 C526 1.327 . S
C524 H549 0.950 . S
C525 C524 1.349 . S
C525 C541 1.349 . S
C526 C524 1.327 . S
C526 C545 1.429 . S
C526 H550 0.950 . S
C527 C544 1.574 . S
C527 C546 1.368 . S
C527 H551 0.949 . S
H528 C532 0.949 . S
C529 C530 1.349 . S
C529 C531 1.327 . S
C529 H552 0.950 . S
C530 C529 1.349 . S
C530 C542 1.349 1_455 S
C531 C529 1.327 . S
C531 C547 1.429 1_455 S
C531 H553 0.950 . S
C532 H528 0.949 . S
C532 C540 1.574 . S
C532 C548 1.368 . S
H533 C541 0.950 . S
H534 C539 0.950 . S
H535 C540 0.949 . S
H536 C542 0.950 . S
H537 C543 0.950 . S
H538 C544 0.949 . S
C539 H534 0.950 . S
C539 C541 1.327 . S
C539 C545 1.429 . S
C540 C532 1.574 . S
C540 H535 0.949 . S
C540 C546 1.368 . S
C541 C525 1.349 . S
C541 H533 0.950 . S
C541 C539 1.327 . S
C542 C530 1.349 1_655 S
C542 H536 0.950 . S
C542 C543 1.327 . S
C543 H537 0.950 . S
C543 C542 1.327 . S
C543 C547 1.429 . S
C544 C527 1.574 . S
C544 H538 0.949 . S
C544 C548 1.368 . S
C545 C526 1.429 . S
C545 C539 1.429 . S
C545 C546 1.523 . S
C546 C527 1.368 . S
C546 C540 1.368 . S
C546 C545 1.523 . S
C547 C531 1.429 1_655 S
C547 C543 1.429 . S
C547 C548 1.523 . S
C548 C532 1.368 . S
C548 C544 1.368 . S
C548 C547 1.523 . S
H549 C524 0.950 . S
H550 C526 0.950 . S
H551 C527 0.949 . S
H552 C529 0.950 . S
H553 C531 0.950 . S
C554 C555 1.349 . S
C554 C556 1.327 . S
C554 H579 0.950 . S
C555 C554 1.349 . S
C555 C571 1.349 . S
C556 C554 1.327 . S
C556 C575 1.429 . S
C556 H580 0.950 . S
C557 C574 1.574 . S
C557 C576 1.368 . S
C557 H581 0.949 . S
H558 C562 0.949 . S
C559 C560 1.349 . S
C559 C561 1.327 . S
C559 H582 0.950 . S
C560 C559 1.349 . S
C560 C572 1.349 . S
C561 C559 1.327 . S
C561 C577 1.429 . S
C561 H583 0.950 . S
C562 H558 0.949 . S
C562 C570 1.574 . S
C562 C578 1.368 . S
H563 C571 0.950 . S
H564 C569 0.950 . S
H565 C570 0.949 . S
H566 C572 0.950 . S
H567 C573 0.950 . S
H568 C574 0.949 . S
C569 H564 0.950 . S
C569 C571 1.327 . S
C569 C575 1.429 . S
C570 C562 1.574 . S
C570 H565 0.949 . S
C570 C576 1.368 . S
C571 C555 1.349 . S
C571 H563 0.950 . S
C571 C569 1.327 . S
C572 C560 1.349 . S
C572 H566 0.950 . S
C572 C573 1.327 . S
C573 H567 0.950 . S
C573 C572 1.327 . S
C573 C577 1.429 . S
C574 C557 1.574 . S
C574 H568 0.949 . S
C574 C578 1.368 . S
C575 C556 1.429 . S
C575 C569 1.429 . S
C575 C576 1.523 . S
C576 C557 1.368 . S
C576 C570 1.368 . S
C576 C575 1.523 . S
C577 C561 1.429 . S
C577 C573 1.429 . S
C577 C578 1.523 . S
C578 C562 1.368 . S
C578 C574 1.368 . S
C578 C577 1.523 . S
H579 C554 0.950 . S
H580 C556 0.950 . S
H581 C557 0.949 . S
H582 C559 0.950 . S
H583 C561 0.950 . S
C584 C585 1.349 . S
C584 C586 1.327 . S
C584 H609 0.950 . S
C585 C584 1.349 . S
C585 C601 1.349 . S
C586 C584 1.327 . S
C586 C605 1.429 . S
C586 H610 0.950 . S
C587 C604 1.574 . S
C587 C606 1.368 . S
C587 H611 0.949 . S
H588 C592 0.949 . S
C589 C590 1.349 . S
C589 C591 1.327 . S
C589 H612 0.950 1_565 S
C590 C589 1.349 . S
C590 C602 1.349 1_455 S
C591 C589 1.327 . S
C591 C607 1.429 1_455 S
C591 H613 0.950 1_565 S
C592 H588 0.949 . S
C592 C600 1.574 . S
C592 C608 1.368 . S
H593 C601 0.950 . S
H594 C599 0.950 . S
H595 C600 0.949 . S
H596 C602 0.950 . S
H597 C603 0.950 . S
H598 C604 0.946 1_545 S
C599 H594 0.950 . S
C599 C601 1.327 . S
C599 C605 1.429 . S
C600 C592 1.574 . S
C600 H595 0.949 . S
C600 C606 1.368 . S
C601 C585 1.349 . S
C601 H593 0.950 . S
C601 C599 1.327 . S
C602 C590 1.349 1_655 S
C602 H596 0.950 . S
C602 C603 1.327 . S
C603 H597 0.950 . S
C603 C602 1.327 . S
C603 C607 1.429 . S
C604 C587 1.574 . S
C604 H598 0.946 1_565 S
C604 C608 1.368 . S
C605 C586 1.429 . S
C605 C599 1.429 . S
C605 C606 1.523 . S
C606 C587 1.368 . S
C606 C600 1.368 . S
C606 C605 1.523 . S
C607 C591 1.429 1_655 S
C607 C603 1.429 . S
C607 C608 1.523 . S
C608 C592 1.368 . S
C608 C604 1.368 . S
C608 C607 1.523 . S
H609 C584 0.950 . S
H610 C586 0.950 . S
H611 C587 0.949 . S
H612 C589 0.950 1_545 S
H613 C591 0.950 1_545 S
C614 C615 1.349 . S
C614 C616 1.327 . S
C614 H639 0.950 . S
C615 C614 1.349 . S
C615 C631 1.349 . S
C616 C614 1.327 . S
C616 C635 1.429 . S
C616 H640 0.950 . S
C617 C634 1.574 . S
C617 C636 1.368 . S
C617 H641 0.949 . S
H618 C622 0.949 . S
C619 C620 1.349 . S
C619 C621 1.327 . S
C619 H642 0.950 . S
C620 C619 1.349 . S
C620 C632 1.349 . S
C621 C619 1.327 . S
C621 C637 1.429 . S
C621 H643 0.950 . S
C622 H618 0.949 . S
C622 C630 1.574 . S
C622 C638 1.368 . S
H623 C631 0.950 . S
H624 C629 0.950 . S
H625 C630 0.949 . S
H626 C632 0.950 . S
H627 C633 0.950 . S
H628 C634 0.949 . S
C629 H624 0.950 . S
C629 C631 1.327 . S
C629 C635 1.429 . S
C630 C622 1.574 . S
C630 H625 0.949 . S
C630 C636 1.368 . S
C631 C615 1.349 . S
C631 H623 0.950 . S
C631 C629 1.327 . S
C632 C620 1.349 . S
C632 H626 0.950 . S
C632 C633 1.327 . S
C633 H627 0.950 . S
C633 C632 1.327 . S
C633 C637 1.429 . S
C634 C617 1.574 . S
C634 H628 0.949 . S
C634 C638 1.368 . S
C635 C616 1.429 . S
C635 C629 1.429 . S
C635 C636 1.523 . S
C636 C617 1.368 . S
C636 C630 1.368 . S
C636 C635 1.523 . S
C637 C621 1.429 . S
C637 C633 1.429 . S
C637 C638 1.523 . S
C638 C622 1.368 . S
C638 C634 1.368 . S
C638 C637 1.523 . S
H639 C614 0.950 . S
H640 C616 0.950 . S
H641 C617 0.949 . S
H642 C619 0.950 . S
H643 C621 0.950 . S
C644 C645 1.349 . S
C644 C646 1.327 . S
C644 H669 0.950 . S
C645 C644 1.349 . S
C645 C661 1.349 . S
C646 C644 1.327 . S
C646 C665 1.429 . S
C646 H670 0.950 . S
C647 C664 1.574 . S
C647 C666 1.368 . S
C647 H671 0.949 . S
H648 C652 0.949 . S
C649 C650 1.349 . S
C649 C651 1.327 . S
C649 H672 0.950 . S
C650 C649 1.349 . S
C650 C662 1.349 . S
C651 C649 1.327 . S
C651 C667 1.429 . S
C651 H673 0.950 . S
C652 H648 0.949 . S
C652 C660 1.574 . S
C652 C668 1.368 . S
H653 C661 0.950 . S
H654 C659 0.950 . S
H655 C660 0.949 . S
H656 C662 0.950 . S
H657 C663 0.950 . S
H658 C664 0.949 . S
C659 H654 0.950 . S
C659 C661 1.327 . S
C659 C665 1.429 . S
C660 C652 1.574 . S
C660 H655 0.949 . S
C660 C666 1.368 . S
C661 C645 1.349 . S
C661 H653 0.950 . S
C661 C659 1.327 . S
C662 C650 1.349 . S
C662 H656 0.950 . S
C662 C663 1.327 . S
C663 H657 0.950 . S
C663 C662 1.327 . S
C663 C667 1.429 . S
C664 C647 1.574 . S
C664 H658 0.949 . S
C664 C668 1.368 . S
C665 C646 1.429 . S
C665 C659 1.429 . S
C665 C666 1.523 . S
C666 C647 1.368 . S
C666 C660 1.368 . S
C666 C665 1.523 . S
C667 C651 1.429 . S
C667 C663 1.429 . S
C667 C668 1.523 . S
C668 C652 1.368 . S
C668 C664 1.368 . S
C668 C667 1.523 . S
H669 C644 0.950 . S
H670 C646 0.950 . S
H671 C647 0.949 . S
H672 C649 0.950 . S
H673 C651 0.950 . S
C674 C675 1.349 . S
C674 C676 1.327 . S
C674 H699 0.950 . S
C675 C674 1.349 . S
C675 C691 1.349 . S
C676 C674 1.327 . S
C676 C695 1.429 . S
C676 H700 0.950 . S
C677 C694 1.574 . S
C677 C696 1.368 . S
C677 H701 0.949 . S
H678 C682 0.949 . S
C679 C680 1.349 . S
C679 C681 1.327 . S
C679 H702 0.950 . S
C680 C679 1.349 . S
C680 C692 1.349 . S
C681 C679 1.327 . S
C681 C697 1.429 . S
C681 H703 0.950 . S
C682 H678 0.949 . S
C682 C690 1.574 . S
C682 C698 1.368 . S
H683 C691 0.950 . S
H684 C689 0.950 . S
H685 C690 0.949 . S
H686 C692 0.950 . S
H687 C693 0.950 . S
H688 C694 0.949 . S
C689 H684 0.950 . S
C689 C691 1.327 . S
C689 C695 1.429 . S
C690 C682 1.574 . S
C690 H685 0.949 . S
C690 C696 1.368 . S
C691 C675 1.349 . S
C691 H683 0.950 . S
C691 C689 1.327 . S
C692 C680 1.349 . S
C692 H686 0.950 . S
C692 C693 1.327 . S
C693 H687 0.950 . S
C693 C692 1.327 . S
C693 C697 1.429 . S
C694 C677 1.574 . S
C694 H688 0.949 . S
C694 C698 1.368 . S
C695 C676 1.429 . S
C695 C689 1.429 . S
C695 C696 1.523 . S
C696 C677 1.368 . S
C696 C690 1.368 . S
C696 C695 1.523 . S
C697 C681 1.429 . S
C697 C693 1.429 . S
C697 C698 1.523 . S
C698 C682 1.368 . S
C698 C694 1.368 . S
C698 C697 1.523 . S
H699 C674 0.950 . S
H700 C676 0.950 . S
H701 C677 0.949 . S
H702 C679 0.950 . S
H703 C681 0.950 . S
C704 C705 1.349 . S
C704 C706 1.327 . S
C704 H729 0.950 . S
C705 C704 1.349 . S
C705 C721 1.349 . S
C706 C704 1.327 . S
C706 C725 1.429 . S
C706 H730 0.950 . S
C707 C724 1.574 . S
C707 C726 1.368 . S
C707 H731 0.949 1_565 S
H708 C712 0.949 . S
C709 C710 1.339 1_546 S
C709 C711 1.327 . S
C709 H732 0.950 . S
C710 C709 1.339 1_564 S
C710 C722 1.350 . S
C711 C709 1.327 . S
C711 C727 1.429 1_545 S
C711 H733 0.950 . S
C712 H708 0.949 . S
C712 C720 1.574 . S
C712 C728 1.368 . S
H713 C721 0.950 . S
H714 C719 0.950 . S
H715 C720 0.949 . S
H716 C722 0.950 . S
H717 C723 0.953 . S
H718 C724 0.949 1_545 S
C719 H714 0.950 . S
C719 C721 1.327 . S
C719 C725 1.429 . S
C720 C712 1.574 . S
C720 H715 0.949 . S
C720 C726 1.368 . S
C721 C705 1.349 . S
C721 H713 0.950 . S
C721 C719 1.327 . S
C722 C710 1.350 . S
C722 H716 0.950 . S
C722 C723 1.327 1_554 S
C723 H717 0.953 . S
C723 C722 1.327 1_556 S
C723 C727 1.429 . S
C724 C707 1.574 . S
C724 H718 0.949 1_565 S
C724 C728 1.368 . S
C725 C706 1.429 . S
C725 C719 1.429 . S
C725 C726 1.523 . S
C726 C707 1.368 . S
C726 C720 1.368 . S
C726 C725 1.523 . S
C727 C711 1.429 1_565 S
C727 C723 1.429 . S
C727 C728 1.523 . S
C728 C712 1.368 . S
C728 C724 1.368 . S
C728 C727 1.523 . S
H729 C704 0.950 . S
H730 C706 0.950 . S
H731 C707 0.949 1_545 S
H732 C709 0.950 . S
H733 C711 0.950 . S
C734 C735 1.349 . S
C734 C736 1.327 . S
C734 H759 0.950 . S
C735 C734 1.349 . S
C735 C751 1.349 . S
C736 C734 1.327 . S
C736 C755 1.429 . S
C736 H760 0.950 . S
C737 C754 1.574 . S
C737 C756 1.368 . S
C737 H761 0.949 . S
H738 C742 0.949 . S
C739 C740 1.349 . S
C739 C741 1.327 . S
C739 H762 0.950 . S
C740 C739 1.349 . S
C740 C752 1.349 . S
C741 C739 1.327 . S
C741 C757 1.429 . S
C741 H763 0.950 . S
C742 H738 0.949 . S
C742 C750 1.574 . S
C742 C758 1.368 . S
H743 C751 0.950 . S
H744 C749 0.950 . S
H745 C750 0.949 . S
H746 C752 0.950 . S
H747 C753 0.950 . S
H748 C754 0.949 . S
C749 H744 0.950 . S
C749 C751 1.327 . S
C749 C755 1.429 . S
C750 C742 1.574 . S
C750 H745 0.949 . S
C750 C756 1.368 . S
C751 C735 1.349 . S
C751 H743 0.950 . S
C751 C749 1.327 . S
C752 C740 1.349 . S
C752 H746 0.950 . S
C752 C753 1.327 . S
C753 H747 0.950 . S
C753 C752 1.327 . S
C753 C757 1.429 . S
C754 C737 1.574 . S
C754 H748 0.949 . S
C754 C758 1.368 . S
C755 C736 1.429 . S
C755 C749 1.429 . S
C755 C756 1.523 . S
C756 C737 1.368 . S
C756 C750 1.368 . S
C756 C755 1.523 . S
C757 C741 1.429 . S
C757 C753 1.429 . S
C757 C758 1.523 . S
C758 C742 1.368 . S
C758 C754 1.368 . S
C758 C757 1.523 . S
H759 C734 0.950 . S
H760 C736 0.950 . S
H761 C737 0.949 . S
H762 C739 0.950 . S
H763 C741 0.950 . S
C764 C765 1.349 . S
C764 C766 1.327 . S
C764 H789 0.950 . S
C765 C764 1.349 . S
C765 C781 1.349 . S
C766 C764 1.327 . S
C766 C785 1.429 . S
C766 H790 0.950 . S
C767 C784 1.574 . S
C767 C786 1.368 . S
C767 H791 0.949 . S
H768 C772 0.949 . S
C769 C770 1.349 . S
C769 C771 1.327 . S
C769 H792 0.938 1_554 S
C770 C769 1.349 . S
C770 C782 1.349 . S
C771 C769 1.327 . S
C771 C787 1.429 . S
C771 H793 0.950 . S
C772 H768 0.949 . S
C772 C780 1.574 . S
C772 C788 1.368 . S
H773 C781 0.950 . S
H774 C779 0.950 . S
H775 C780 0.949 . S
H776 C782 0.950 . S
H777 C783 0.950 . S
H778 C784 0.949 . S
C779 H774 0.950 . S
C779 C781 1.327 . S
C779 C785 1.429 . S
C780 C772 1.574 . S
C780 H775 0.949 . S
C780 C786 1.368 . S
C781 C765 1.349 . S
C781 H773 0.950 . S
C781 C779 1.327 . S
C782 C770 1.349 . S
C782 H776 0.950 . S
C782 C783 1.327 . S
C783 H777 0.950 . S
C783 C782 1.327 . S
C783 C787 1.429 . S
C784 C767 1.574 . S
C784 H778 0.949 . S
C784 C788 1.368 . S
C785 C766 1.429 . S
C785 C779 1.429 . S
C785 C786 1.523 . S
C786 C767 1.368 . S
C786 C780 1.368 . S
C786 C785 1.523 . S
C787 C771 1.429 . S
C787 C783 1.429 . S
C787 C788 1.523 . S
C788 C772 1.368 . S
C788 C784 1.368 . S
C788 C787 1.523 . S
H789 C764 0.950 . S
H790 C766 0.950 . S
H791 C767 0.949 . S
H792 C769 0.938 1_556 S
H793 C771 0.950 . S
C794 C795 1.349 . S
C794 C796 1.327 . S
C794 H819 0.950 . S
C795 C794 1.349 . S
C795 C811 1.349 . S
C796 C794 1.327 . S
C796 C815 1.429 . S
C796 H820 0.950 . S
C797 C814 1.574 . S
C797 C816 1.368 . S
C797 H821 0.949 . S
H798 C802 0.949 . S
C799 C800 1.349 . S
C799 C801 1.327 . S
C799 H822 0.950 . S
C800 C799 1.349 . S
C800 C812 1.349 . S
C801 C799 1.327 . S
C801 C817 1.429 . S
C801 H823 0.950 . S
C802 H798 0.949 . S
C802 C810 1.574 . S
C802 C818 1.368 . S
H803 C811 0.950 . S
H804 C809 0.950 . S
H805 C810 0.949 . S
H806 C812 0.950 . S
H807 C813 0.950 . S
H808 C814 0.949 . S
C809 H804 0.950 . S
C809 C811 1.327 . S
C809 C815 1.429 . S
C810 C802 1.574 . S
C810 H805 0.949 . S
C810 C816 1.368 . S
C811 C795 1.349 . S
C811 H803 0.950 . S
C811 C809 1.327 . S
C812 C800 1.349 . S
C812 H806 0.950 . S
C812 C813 1.327 . S
C813 H807 0.950 . S
C813 C812 1.327 . S
C813 C817 1.429 . S
C814 C797 1.574 . S
C814 H808 0.949 . S
C814 C818 1.368 . S
C815 C796 1.429 . S
C815 C809 1.429 . S
C815 C816 1.523 . S
C816 C797 1.368 . S
C816 C810 1.368 . S
C816 C815 1.523 . S
C817 C801 1.429 . S
C817 C813 1.429 . S
C817 C818 1.523 . S
C818 C802 1.368 . S
C818 C814 1.368 . S
C818 C817 1.523 . S
H819 C794 0.950 . S
H820 C796 0.950 . S
H821 C797 0.949 . S
H822 C799 0.950 . S
H823 C801 0.950 . S
C824 C825 1.349 . S
C824 C826 1.327 . S
C824 H849 0.950 . S
C825 C824 1.349 . S
C825 C841 1.349 . S
C826 C824 1.327 . S
C826 C845 1.429 . S
C826 H850 0.950 . S
C827 C844 1.574 . S
C827 C846 1.368 . S
C827 H851 0.949 . S
H828 C832 0.949 . S
C829 C830 1.349 . S
C829 C831 1.327 . S
C829 H852 0.950 1_556 S
C830 C829 1.349 . S
C830 C842 1.349 . S
C831 C829 1.327 . S
C831 C847 1.429 . S
C831 H853 0.950 . S
C832 H828 0.949 . S
C832 C840 1.574 . S
C832 C848 1.368 . S
H833 C841 0.950 . S
H834 C839 0.950 . S
H835 C840 0.949 . S
H836 C842 0.936 1_455 S
H837 C843 0.950 . S
H838 C844 0.949 . S
C839 H834 0.950 . S
C839 C841 1.327 . S
C839 C845 1.429 . S
C840 C832 1.574 . S
C840 H835 0.949 . S
C840 C846 1.368 . S
C841 C825 1.349 . S
C841 H833 0.950 . S
C841 C839 1.327 . S
C842 C830 1.349 . S
C842 H836 0.936 1_655 S
C842 C843 1.327 . S
C843 H837 0.950 . S
C843 C842 1.327 . S
C843 C847 1.429 . S
C844 C827 1.574 . S
C844 H838 0.949 . S
C844 C848 1.368 . S
C845 C826 1.429 . S
C845 C839 1.429 . S
C845 C846 1.523 . S
C846 C827 1.368 . S
C846 C840 1.368 . S
C846 C845 1.523 . S
C847 C831 1.429 . S
C847 C843 1.429 . S
C847 C848 1.523 . S
C848 C832 1.368 . S
C848 C844 1.368 . S
C848 C847 1.523 . S
H849 C824 0.950 . S
H850 C826 0.950 . S
H851 C827 0.949 . S
H852 C829 0.950 1_554 S
H853 C831 0.950 . S
C854 C855 1.349 . S
C854 C856 1.327 . S
C854 H879 0.950 . S
C855 C854 1.349 . S
C855 C871 1.349 . S
C856 C854 1.327 . S
C856 C875 1.429 . S
C856 H880 0.950 . S
C857 C874 1.574 . S
C857 C876 1.368 . S
C857 H881 0.949 . S
H858 C862 0.949 . S
C859 C860 1.349 . S
C859 C861 1.327 . S
C859 H882 0.950 . S
C860 C859 1.349 . S
C860 C872 1.349 . S
C861 C859 1.327 . S
C861 C877 1.429 . S
C861 H883 0.950 . S
C862 H858 0.949 . S
C862 C870 1.574 . S
C862 C878 1.368 . S
H863 C871 0.950 . S
H864 C869 0.950 . S
H865 C870 0.949 . S
H866 C872 0.950 . S
H867 C873 0.950 . S
H868 C874 0.949 . S
C869 H864 0.950 . S
C869 C871 1.327 . S
C869 C875 1.429 . S
C870 C862 1.574 . S
C870 H865 0.949 . S
C870 C876 1.368 . S
C871 C855 1.349 . S
C871 H863 0.950 . S
C871 C869 1.327 . S
C872 C860 1.349 . S
C872 H866 0.950 . S
C872 C873 1.327 . S
C873 H867 0.950 . S
C873 C872 1.327 . S
C873 C877 1.429 . S
C874 C857 1.574 . S
C874 H868 0.949 . S
C874 C878 1.368 . S
C875 C856 1.429 . S
C875 C869 1.429 . S
C875 C876 1.523 . S
C876 C857 1.368 . S
C876 C870 1.368 . S
C876 C875 1.523 . S
C877 C861 1.429 . S
C877 C873 1.429 . S
C877 C878 1.523 . S
C878 C862 1.368 . S
C878 C874 1.368 . S
C878 C877 1.523 . S
H879 C854 0.950 . S
H880 C856 0.950 . S
H881 C857 0.949 . S
H882 C859 0.950 . S
H883 C861 0.950 . S
C884 C885 1.349 . S
C884 C886 1.327 . S
C884 H909 0.950 . S
C885 C884 1.349 . S
C885 C901 1.349 . S
C886 C884 1.327 . S
C886 C905 1.429 . S
C886 H910 0.950 . S
C887 C904 1.574 . S
C887 C906 1.368 . S
C887 H911 0.949 . S
H888 C892 0.949 . S
C889 C890 1.349 . S
C889 C891 1.327 . S
C889 H912 0.950 . S
C890 C889 1.349 . S
C890 C902 1.349 . S
C891 C889 1.327 . S
C891 C907 1.429 . S
C891 H913 0.950 . S
C892 H888 0.949 . S
C892 C900 1.574 . S
C892 C908 1.368 . S
H893 C901 0.950 . S
H894 C899 0.950 . S
H895 C900 0.949 . S
H896 C902 0.950 . S
H897 C903 0.950 . S
H898 C904 0.949 . S
C899 H894 0.950 . S
C899 C901 1.327 . S
C899 C905 1.429 . S
C900 C892 1.574 . S
C900 H895 0.949 . S
C900 C906 1.368 . S
C901 C885 1.349 . S
C901 H893 0.950 . S
C901 C899 1.327 . S
C902 C890 1.349 . S
C902 H896 0.950 . S
C902 C903 1.327 . S
C903 H897 0.950 . S
C903 C902 1.327 . S
C903 C907 1.429 . S
C904 C887 1.574 . S
C904 H898 0.949 . S
C904 C908 1.368 . S
C905 C886 1.429 . S
C905 C899 1.429 . S
C905 C906 1.523 . S
C906 C887 1.368 . S
C906 C900 1.368 . S
C906 C905 1.523 . S
C907 C891 1.429 . S
C907 C903 1.429 . S
C907 C908 1.523 . S
C908 C892 1.368 . S
C908 C904 1.368 . S
C908 C907 1.523 . S
H909 C884 0.950 . S
H910 C886 0.950 . S
H911 C887 0.949 . S
H912 C889 0.950 . S
H913 C891 0.950 . S
C914 C915 1.349 . S
C914 C916 1.327 . S
C914 H939 0.950 . S
C915 C914 1.349 . S
C915 C931 1.349 . S
C916 C914 1.327 . S
C916 C935 1.429 . S
C916 H940 0.950 . S
C917 C934 1.574 . S
C917 C936 1.368 . S
C917 H941 0.949 . S
H918 C922 0.949 . S
C919 C920 1.349 . S
C919 C921 1.327 . S
C919 H942 0.950 . S
C920 C919 1.349 . S
C920 C932 1.349 . S
C921 C919 1.327 . S
C921 C937 1.429 . S
C921 H943 0.950 . S
C922 H918 0.949 . S
C922 C930 1.574 . S
C922 C938 1.368 . S
H923 C931 0.950 . S
H924 C929 0.950 . S
H925 C930 0.949 . S
H926 C932 0.950 . S
H927 C933 0.950 . S
H928 C934 0.949 . S
C929 H924 0.950 . S
C929 C931 1.327 . S
C929 C935 1.429 . S
C930 C922 1.574 . S
C930 H925 0.949 . S
C930 C936 1.368 . S
C931 C915 1.349 . S
C931 H923 0.950 . S
C931 C929 1.327 . S
C932 C920 1.349 . S
C932 H926 0.950 . S
C932 C933 1.327 . S
C933 H927 0.950 . S
C933 C932 1.327 . S
C933 C937 1.429 . S
C934 C917 1.574 . S
C934 H928 0.949 . S
C934 C938 1.368 . S
C935 C916 1.429 . S
C935 C929 1.429 . S
C935 C936 1.523 . S
C936 C917 1.368 . S
C936 C930 1.368 . S
C936 C935 1.523 . S
C937 C921 1.429 . S
C937 C933 1.429 . S
C937 C938 1.523 . S
C938 C922 1.368 . S
C938 C934 1.368 . S
C938 C937 1.523 . S
H939 C914 0.950 . S
H940 C916 0.950 . S
H941 C917 0.949 . S
H942 C919 0.950 . S
H943 C921 0.950 . S
C225 N1 2.049 . S
C230 C120 2.116 . S
C255 N18 1.450 . S
C260 N140 1.424 . S
C290 C174 1.387 . S
C285 N28 1.386 . S
C315 N40 1.406 . S
C320 N208 1.387 . S
C350 C161 2.752 . S
C345 N5 2.712 . S
C380 N118 1.199 . S
C375 N14 1.218 . S
C410 C195 1.881 . S
C405 N31 1.846 . S
C440 N170 0.588 . S
C435 N41 0.579 . S
C465 N2 1.699 . S
C470 C210 1.715 . S
C500 C144 1.742 1_556 S
C495 N27 1.714 . S
C525 N44 1.557 . S
C530 C105 1.601 . S
C555 N15 1.188 . S
C560 C191 1.194 . S
C590 C131 2.522 . S
C585 N57 2.504 . S
C615 N70 0.916 . S
C620 N148 0.906 . S
C645 N79 1.728 . S
C650 C165 1.776 . S
C675 N93 1.054 . S
C680 N200 1.031 . S
C705 N54 2.262 . S
C710 C150 2.274 1_565 S
C740 N110 1.639 . S
C735 N66 1.669 . S
C770 C204 1.288 . S
C765 N80 1.279 . S
C800 N178 0.941 . S
C795 N96 0.942 . S
C825 N53 1.753 . S
C830 C221 1.780 . S
C860 C135 1.594 . S
C855 N83 1.560 . S
C890 C114 1.610 . S
C885 N92 1.587 . S
C915 N67 1.210 . S
C920 C180 1.219 . S
