# Generated by pormake.
# Topology ftw, (4,12)-cn, num edge types: 1
# Building blocks:
#     Node 0, Type 0, BuildingBlock: NAHDIM_clean_linker_0, # of connection points: 4
#     Node 1, Type 0, BuildingBlock: NAHDIM_clean_linker_0, # of connection points: 4
#     Node 2, Type 0, BuildingBlock: NAHDIM_clean_linker_0, # of connection points: 4
#     Node 3, Type 1, BuildingBlock: QEWDON_clean_sbu_0, # of connection points: 12
#     Edge 4, Type (0, 1), BuildingBlock: UVAHIK_clean_linker_0, # of connection points: 2
#     Edge 5, Type (0, 1), BuildingBlock: UVAHIK_clean_linker_0, # of connection points: 2
#     Edge 6, Type (0, 1), BuildingBlock: UVAHIK_clean_linker_0, # of connection points: 2
#     Edge 7, Type (0, 1), BuildingBlock: UVAHIK_clean_linker_0, # of connection points: 2
#     Edge 8, Type (0, 1), BuildingBlock: UVAHIK_clean_linker_0, # of connection points: 2
#     Edge 9, Type (0, 1), BuildingBlock: UVAHIK_clean_linker_0, # of connection points: 2
#     Edge 10, Type (0, 1), BuildingBlock: UVAHIK_clean_linker_0, # of connection points: 2
#     Edge 11, Type (0, 1), BuildingBlock: UVAHIK_clean_linker_0, # of connection points: 2
#     Edge 12, Type (0, 1), BuildingBlock: UVAHIK_clean_linker_0, # of connection points: 2
#     Edge 13, Type (0, 1), BuildingBlock: UVAHIK_clean_linker_0, # of connection points: 2
#     Edge 14, Type (0, 1), BuildingBlock: UVAHIK_clean_linker_0, # of connection points: 2
#     Edge 15, Type (0, 1), BuildingBlock: UVAHIK_clean_linker_0, # of connection points: 2
# Relax obj value: 0.035
# Max RMSD: 0.106
# Mean RMSD: 0.084
data_MOF--net-ftw--node1-QEWDON_clean_sbu_0--node2-NAHDIM_clean_linker_0--edge1-UVAHIK_clean_linker_0
_symmetry_space_group_name_H-M    P1
_symmetry_Int_Tables_number       1
_symmetry_cell_setting            triclinic
loop_
_symmetry_equiv_pos_as_xyz
'x, y, z'
_cell_length_a     38.300379
_cell_length_b     37.79189
_cell_length_c     39.582224
_cell_angle_alpha  90.311881
_cell_angle_beta   89.60958
_cell_angle_gamma 89.677484
loop_
_atom_site_label
_atom_site_type_symbol
_atom_site_fract_x
_atom_site_fract_y
_atom_site_fract_z
_atom_type_partial_charge
C0 C 0.9419 0.62421 0.30227 0.0
C1 C 0.93681 0.65543 0.32692 0.0
C2 C 0.96598 0.62793 0.37552 0.0
C3 C 0.93933 0.60426 0.38438 0.0
C4 C 0.94605 0.57576 0.40603 0.0
C5 C 0.98003 0.57093 0.41912 0.0
C6 C 0.0064 0.59577 0.41163 0.0
C7 C 0.99889 0.62418 0.39013 0.0
C8 C 0.91713 0.55014 0.41412 0.0
C9 C 0.04281 0.59158 0.4254 0.0
C10 C 0.09981 0.40267 0.30776 0.0
C11 C 0.08411 0.36957 0.32426 0.0
C12 C 0.04115 0.39783 0.3629 0.0
C13 C 0.06525 0.41382 0.38474 0.0
C14 C 0.05415 0.43869 0.40909 0.0
C15 C 0.01811 0.44666 0.41251 0.0
C16 C 0.99365 0.42868 0.39215 0.0
C17 C 0.00556 0.40467 0.36747 0.0
C18 C 0.08107 0.45743 0.43026 0.0
C19 C 0.95497 0.43575 0.39558 0.0
C20 C 0.01236 0.36681 0.62802 0.0
C21 C 0.04088 0.38793 0.61843 0.0
C22 C 0.0356 0.42058 0.60238 0.0
C23 C 0.00121 0.43209 0.59527 0.0
C24 C 0.9725 0.41107 0.60516 0.0
C25 C 0.97851 0.37882 0.6216 0.0
C26 C 0.06679 0.4427 0.59278 0.0
C27 C 0.93549 0.42253 0.59804 0.0
C28 C 0.90811 0.68799 0.64033 0.0
C29 C 0.92631 0.66844 0.66918 0.0
C30 C 0.96164 0.62233 0.64026 0.0
C31 C 0.9957 0.61249 0.63141 0.0
C32 C 0.00252 0.58165 0.61259 0.0
C33 C 0.97441 0.56012 0.60231 0.0
C34 C 0.93984 0.5695 0.61163 0.0
C35 C 0.93374 0.60054 0.63051 0.0
C36 C 0.03972 0.57236 0.6032 0.0
C37 C 0.90934 0.547 0.60107 0.0
C38 C 0.98865 0.53823 0.43799 0.0
C39 C 0.99905 0.50862 0.41915 0.0
C40 C 0.00636 0.47632 0.43465 0.0
C41 C 0.00282 0.47317 0.47008 0.0
C42 C 0.00834 0.44071 0.48641 0.0
C43 C 0.00545 0.43811 0.5214 0.0
C44 C 0.9973 0.46796 0.5414 0.0
C45 C 0.99523 0.46583 0.57705 0.0
C46 C 0.98741 0.49615 0.59613 0.0
C47 C 0.98116 0.52867 0.58056 0.0
C48 C 0.98247 0.53119 0.54494 0.0
C49 C 0.97559 0.56336 0.52844 0.0
C50 C 0.97722 0.56567 0.49339 0.0
C51 C 0.98634 0.53605 0.47356 0.0
C52 C 0.99337 0.50334 0.48964 0.0
C53 C 0.99098 0.50081 0.52535 0.0
C54 C 0.05913 0.29843 0.6157 0.0
C55 C 0.04659 0.31585 0.64871 0.0
O56 O 0.96139 0.65414 0.35254 0.0
O57 O 0.9572 0.65312 0.65776 0.0
O58 O 0.01604 0.33482 0.6433 0.0
O59 O 0.05079 0.37644 0.33668 0.0
H60 H 0.91012 0.65457 0.33813 0.0
H61 H 0.93729 0.59862 0.31509 0.0
H62 H 0.96889 0.62405 0.29177 0.0
H63 H 0.92308 0.62609 0.2811 0.0
H64 H 0.91345 0.60751 0.37404 0.0
H65 H 0.01915 0.64288 0.38353 0.0
H66 H 0.92346 0.5239 0.40284 0.0
H67 H 0.89149 0.55912 0.40427 0.0
H68 H 0.91492 0.54663 0.44188 0.0
H69 H 0.06001 0.61398 0.41838 0.0
H70 H 0.05462 0.56663 0.41558 0.0
H71 H 0.04175 0.58961 0.45337 0.0
H72 H 0.10121 0.36079 0.34527 0.0
H73 H 0.12541 0.39609 0.29584 0.0
H74 H 0.10433 0.42382 0.32671 0.0
H75 H 0.08209 0.41338 0.28815 0.0
H76 H 0.09279 0.40776 0.38241 0.0
H77 H 0.98708 0.39175 0.35092 0.0
H78 H 0.0771 0.45078 0.45728 0.0
H79 H 0.07798 0.48653 0.42778 0.0
H80 H 0.10819 0.45001 0.42291 0.0
H81 H 0.93924 0.41517 0.38266 0.0
H82 H 0.94873 0.46176 0.38413 0.0
H83 H 0.94714 0.43695 0.42263 0.0
H84 H 0.06715 0.33386 0.65837 0.0
H85 H 0.06731 0.37927 0.62323 0.0
H86 H 0.95667 0.36249 0.62917 0.0
H87 H 0.06889 0.44417 0.56485 0.0
H88 H 0.09159 0.43167 0.60274 0.0
H89 H 0.06338 0.47014 0.60251 0.0
H90 H 0.91609 0.40234 0.60581 0.0
H91 H 0.93242 0.42778 0.57063 0.0
H92 H 0.92966 0.44757 0.61179 0.0
H93 H 0.90865 0.64766 0.67923 0.0
H94 H 0.88368 0.70078 0.64969 0.0
H95 H 0.90115 0.66924 0.61983 0.0
H96 H 0.92547 0.70858 0.62956 0.0
H97 H 0.01704 0.62937 0.6391 0.0
H98 H 0.90718 0.60764 0.63713 0.0
H99 H 0.04273 0.57231 0.57528 0.0
H100 H 0.04611 0.54531 0.61216 0.0
H101 H 0.05877 0.59123 0.61412 0.0
H102 H 0.88407 0.55734 0.61104 0.0
H103 H 0.9131 0.51951 0.61019 0.0
H104 H 0.90804 0.54587 0.57307 0.0
H105 H 0.00141 0.51074 0.39189 0.0
H106 H 0.01495 0.41696 0.47229 0.0
H107 H 0.01002 0.41243 0.53258 0.0
H108 H 0.98633 0.49446 0.62348 0.0
H109 H 0.96876 0.58713 0.54242 0.0
H110 H 0.9716 0.59105 0.48204 0.0
H111 H 0.03881 0.28044 0.60559 0.0
H112 H 0.08346 0.28301 0.62004 0.0
H113 H 0.06484 0.31883 0.59641 0.0
C114 C 0.69048 0.11428 0.63871 0.0
C115 C 0.67847 0.08411 0.6617 0.0
C116 C 0.64113 0.0469 0.62547 0.0
C117 C 0.6387 0.01384 0.60974 0.0
C118 C 0.6089 0.0042 0.59151 0.0
C119 C 0.58096 0.02861 0.58843 0.0
C120 C 0.58317 0.06221 0.60419 0.0
C121 C 0.61312 0.07097 0.62273 0.0
C122 C 0.60724 0.96783 0.57565 0.0
C123 C 0.55391 0.0889 0.60132 0.0
C124 C 0.31978 0.92533 0.6225 0.0
C125 C 0.33764 0.95747 0.63828 0.0
C126 C 0.40064 0.96105 0.62805 0.0
C127 C 0.40308 0.99617 0.61692 0.0
C128 C 0.43248 0.00762 0.5987 0.0
C129 C 0.46 0.98348 0.59162 0.0
C130 C 0.45817 0.94846 0.60393 0.0
C131 C 0.42858 0.93782 0.62231 0.0
C132 C 0.43408 0.04545 0.58682 0.0
C133 C 0.48719 0.92216 0.59716 0.0
C134 C 0.39834 0.9508 0.37576 0.0
C135 C 0.39864 0.98641 0.38602 0.0
C136 C 0.42787 0.00074 0.40228 0.0
C137 C 0.45734 0.97896 0.40837 0.0
C138 C 0.45757 0.94344 0.39685 0.0
C139 C 0.42813 0.92993 0.38033 0.0
C140 C 0.42716 0.03902 0.4133 0.0
C141 C 0.48866 0.9196 0.40261 0.0
C142 C 0.69539 0.1202 0.36896 0.0
C143 C 0.68845 0.08231 0.35715 0.0
C144 C 0.62808 0.06475 0.36607 0.0
C145 C 0.59695 0.0835 0.37098 0.0
C146 C 0.56979 0.06952 0.39071 0.0
C147 C 0.57356 0.03539 0.40489 0.0
C148 C 0.60454 0.01565 0.3987 0.0
C149 C 0.63166 0.03073 0.37961 0.0
C150 C 0.53717 0.09136 0.39655 0.0
C151 C 0.60895 0.97862 0.41216 0.0
C152 C 0.54926 0.01863 0.56916 0.0
C153 C 0.52026 0.00654 0.58731 0.0
C154 C 0.49033 0.99475 0.57076 0.0
C155 C 0.48948 0.99408 0.53502 0.0
C156 C 0.4605 0.98074 0.51755 0.0
C157 C 0.4599 0.98012 0.4824 0.0
C158 C 0.48806 0.99325 0.46333 0.0
C159 C 0.48751 0.99305 0.42758 0.0
C160 C 0.51587 0.00651 0.40942 0.0
C161 C 0.54496 0.02042 0.42594 0.0
C162 C 0.54607 0.02063 0.46171 0.0
C163 C 0.57484 0.03439 0.47926 0.0
C164 C 0.576 0.03372 0.51442 0.0
C165 C 0.54816 0.01987 0.53343 0.0
C166 C 0.51838 0.00698 0.51632 0.0
C167 C 0.51752 0.00693 0.48042 0.0
C168 C 0.32505 0.90749 0.39241 0.0
C169 C 0.33577 0.94012 0.37218 0.0
O170 O 0.67095 0.05423 0.64264 0.0
O171 O 0.65384 0.07967 0.34737 0.0
O172 O 0.36998 0.936 0.361 0.0
O173 O 0.37219 0.94891 0.64498 0.0
H174 H 0.65477 0.09276 0.67601 0.0
H175 H 0.66948 0.12185 0.62095 0.0
H176 H 0.71378 0.10616 0.62362 0.0
H177 H 0.69709 0.13796 0.6541 0.0
H178 H 0.66033 0.9954 0.61199 0.0
H179 H 0.61439 0.09669 0.63473 0.0
H180 H 0.58268 0.95448 0.58326 0.0
H181 H 0.62972 0.95087 0.58292 0.0
H182 H 0.60713 0.97028 0.54772 0.0
H183 H 0.56076 0.11492 0.61259 0.0
H184 H 0.5303 0.07874 0.61439 0.0
H185 H 0.54712 0.0928 0.57435 0.0
H186 H 0.3358 0.97915 0.61947 0.0
H187 H 0.29201 0.93152 0.61697 0.0
H188 H 0.32098 0.90224 0.63973 0.0
H189 H 0.3331 0.91807 0.5984 0.0
H190 H 0.3823 0.0148 0.62275 0.0
H191 H 0.42673 0.91096 0.63158 0.0
H192 H 0.4587 0.05786 0.59545 0.0
H193 H 0.41164 0.06154 0.59622 0.0
H194 H 0.43416 0.04598 0.55878 0.0
H195 H 0.48142 0.89566 0.60777 0.0
H196 H 0.51182 0.93199 0.60837 0.0
H197 H 0.49156 0.91943 0.5695 0.0
H198 H 0.33326 0.9631 0.38974 0.0
H199 H 0.3762 0.00311 0.38111 0.0
H200 H 0.42785 0.90265 0.37175 0.0
H201 H 0.42808 0.04058 0.44129 0.0
H202 H 0.40336 0.05311 0.40458 0.0
H203 H 0.45053 0.05286 0.40333 0.0
H204 H 0.48452 0.89241 0.39264 0.0
H205 H 0.49415 0.91801 0.43008 0.0
H206 H 0.51209 0.93092 0.39014 0.0
H207 H 0.69389 0.06448 0.37883 0.0
H208 H 0.72285 0.12291 0.37746 0.0
H209 H 0.67786 0.12697 0.39054 0.0
H210 H 0.69048 0.13924 0.34819 0.0
H211 H 0.59433 0.10955 0.35993 0.0
H212 H 0.6554 0.01578 0.37475 0.0
H213 H 0.5308 0.0926 0.42395 0.0
H214 H 0.51487 0.07863 0.38358 0.0
H215 H 0.53985 0.11876 0.38687 0.0
H216 H 0.63251 0.96521 0.40157 0.0
H217 H 0.58563 0.96248 0.40617 0.0
H218 H 0.61137 0.97965 0.44007 0.0
H219 H 0.52105 0.00615 0.6147 0.0
H220 H 0.43801 0.97038 0.53084 0.0
H221 H 0.43697 0.96931 0.47039 0.0
H222 H 0.51518 0.00638 0.38202 0.0
H223 H 0.59695 0.04559 0.46602 0.0
H224 H 0.59894 0.04439 0.52653 0.0
H225 H 0.32802 0.88299 0.377 0.0
H226 H 0.29746 0.91003 0.40102 0.0
H227 H 0.34185 0.90502 0.41506 0.0
C228 C 0.63392 0.69776 0.9146 0.0
C229 C 0.63919 0.6836 0.95031 0.0
C230 C 0.61396 0.63017 0.97206 0.0
C231 C 0.62379 0.62641 0.00578 0.0
C232 C 0.6021 0.60871 0.02881 0.0
C233 C 0.56958 0.5953 0.01781 0.0
C234 C 0.55946 0.59971 0.98368 0.0
C235 C 0.58223 0.6165 0.96104 0.0
C236 C 0.61391 0.60448 0.06485 0.0
C237 C 0.52454 0.58703 0.97111 0.0
C238 C 0.37863 0.66638 0.22254 0.0
C239 C 0.38811 0.66393 0.18498 0.0
C240 C 0.44301 0.64673 0.15737 0.0
C241 C 0.42855 0.63591 0.12648 0.0
C242 C 0.4484 0.61641 0.10293 0.0
C243 C 0.48323 0.60698 0.11068 0.0
C244 C 0.49824 0.61886 0.14124 0.0
C245 C 0.47798 0.63899 0.16403 0.0
C246 C 0.43189 0.60524 0.07005 0.0
C247 C 0.53537 0.60951 0.1502 0.0
C248 C 0.40284 0.39183 0.15086 0.0
C249 C 0.39268 0.40819 0.12068 0.0
C250 C 0.41779 0.42108 0.09792 0.0
C251 C 0.45369 0.4181 0.10583 0.0
C252 C 0.46396 0.40044 0.13561 0.0
C253 C 0.43831 0.38714 0.15754 0.0
C254 C 0.40591 0.43854 0.06574 0.0
C255 C 0.50197 0.39649 0.14474 0.0
C256 C 0.6503 0.3523 0.90551 0.0
C257 C 0.63934 0.34877 0.94258 0.0
C258 C 0.58397 0.36608 0.96903 0.0
C259 C 0.55017 0.37706 0.96101 0.0
C260 C 0.52995 0.39687 0.98408 0.0
C261 C 0.5438 0.40519 0.01618 0.0
C262 C 0.57725 0.39242 0.02516 0.0
C263 C 0.59706 0.37306 0.00145 0.0
C264 C 0.49427 0.40986 0.9738 0.0
C265 C 0.59237 0.39999 0.05954 0.0
C266 C 0.54591 0.57725 0.04204 0.0
C267 C 0.52675 0.59825 0.0648 0.0
C268 C 0.50325 0.58317 0.08764 0.0
C269 C 0.49828 0.54611 0.0877 0.0
C270 C 0.47485 0.53008 0.11037 0.0
C271 C 0.46915 0.49379 0.10942 0.0
C272 C 0.48677 0.47203 0.08586 0.0
C273 C 0.48034 0.43523 0.084 0.0
C274 C 0.49915 0.41419 0.06102 0.0
C275 C 0.52425 0.42898 0.03959 0.0
C276 C 0.53046 0.46585 0.04055 0.0
C277 C 0.55513 0.48168 0.01898 0.0
C278 C 0.56068 0.51803 0.0198 0.0
C279 C 0.54149 0.54007 0.04192 0.0
C280 C 0.51716 0.52456 0.06449 0.0
C281 C 0.51151 0.48744 0.06367 0.0
C282 C 0.33648 0.39152 0.21635 0.0
C283 C 0.34548 0.39262 0.1787 0.0
O284 O 0.63484 0.64726 0.94993 0.0
O285 O 0.60322 0.34924 0.9448 0.0
O286 O 0.37935 0.38025 0.17413 0.0
O287 O 0.42412 0.6644 0.18136 0.0
H288 H 0.61885 0.69631 0.96677 0.0
H289 H 0.6073 0.69106 0.90572 0.0
H290 H 0.65334 0.68588 0.89682 0.0
H291 H 0.63667 0.72702 0.91435 0.0
H292 H 0.64856 0.63713 0.01389 0.0
H293 H 0.57501 0.61981 0.93481 0.0
H294 H 0.59787 0.62192 0.0815 0.0
H295 H 0.6418 0.6116 0.06807 0.0
H296 H 0.61009 0.57679 0.07331 0.0
H297 H 0.51816 0.59809 0.94593 0.0
H298 H 0.50342 0.59448 0.9892 0.0
H299 H 0.52496 0.55776 0.96893 0.0
H300 H 0.3778 0.638 0.17608 0.0
H301 H 0.3498 0.66653 0.22594 0.0
H302 H 0.38955 0.69069 0.23419 0.0
H303 H 0.38945 0.64309 0.236 0.0
H304 H 0.40182 0.64253 0.12057 0.0
H305 H 0.48905 0.64783 0.18772 0.0
H306 H 0.42747 0.57624 0.07027 0.0
H307 H 0.44963 0.61109 0.04851 0.0
H308 H 0.40644 0.6187 0.06582 0.0
H309 H 0.54268 0.61945 0.17564 0.0
H310 H 0.55344 0.62101 0.13122 0.0
H311 H 0.53899 0.58034 0.14949 0.0
H312 H 0.34369 0.42086 0.17089 0.0
H313 H 0.36524 0.41091 0.11478 0.0
H314 H 0.44585 0.37399 0.18066 0.0
H315 H 0.41032 0.46748 0.06757 0.0
H316 H 0.37776 0.43402 0.06084 0.0
H317 H 0.42137 0.42841 0.04386 0.0
H318 H 0.50556 0.38356 0.16963 0.0
H319 H 0.51456 0.42289 0.14541 0.0
H320 H 0.51564 0.38041 0.12512 0.0
H321 H 0.65032 0.37233 0.95573 0.0
H322 H 0.67923 0.35155 0.90311 0.0
H323 H 0.64082 0.37799 0.89547 0.0
H324 H 0.63909 0.3307 0.8899 0.0
H325 H 0.54012 0.37111 0.9361 0.0
H326 H 0.62275 0.3636 0.00831 0.0
H327 H 0.49347 0.43922 0.97483 0.0
H328 H 0.47431 0.4 0.99186 0.0
H329 H 0.48723 0.40107 0.94792 0.0
H330 H 0.61727 0.38549 0.06374 0.0
H331 H 0.57341 0.39257 0.0796 0.0
H332 H 0.59734 0.42879 0.06211 0.0
H333 H 0.52993 0.62676 0.06454 0.0
H334 H 0.4604 0.54543 0.12899 0.0
H335 H 0.45062 0.48306 0.12736 0.0
H336 H 0.49425 0.38596 0.05983 0.0
H337 H 0.57036 0.46617 0.00108 0.0
H338 H 0.58004 0.52867 0.00265 0.0
H339 H 0.33806 0.36397 0.22595 0.0
H340 H 0.30971 0.40205 0.22094 0.0
H341 H 0.35515 0.40812 0.23071 0.0
Zn342 Zn 0.09312 0.08952 0.98347 0.0
Zn343 Zn 0.07087 0.07728 0.06067 0.0
O344 O 0.07936 0.0515 0.0171 0.0
H345 H 0.07031 0.02847 0.01127 0.0
C346 C 0.97822 0.06975 0.91636 0.0
O347 O 0.00284 0.05864 0.93675 0.0
Zn348 Zn 0.97144 0.93934 0.04972 0.0
Zn349 Zn 0.95889 0.95334 0.96975 0.0
O350 O 0.97518 0.97591 0.01337 0.0
H351 H 0.99059 0.99601 0.01451 0.0
Zn352 Zn 0.93418 0.05254 0.97489 0.0
O353 O 0.9703 0.06482 0.01037 0.0
Zn354 Zn 0.94367 0.06265 0.05371 0.0
H355 H 0.99532 0.06577 0.00725 0.0
Zn356 Zn 0.10066 0.9209 0.98186 0.0
O357 O 0.06997 0.94885 0.01417 0.0
H358 H 0.04969 0.96274 0.00823 0.0
Zn359 Zn 0.09557 0.95042 0.05781 0.0
C360 C 0.04637 0.88403 0.94426 0.0
O361 O 0.02958 0.8885 0.97304 0.0
O362 O 0.10835 0.13623 0.00617 0.0
O363 O 0.09017 0.12735 0.05892 0.0
O364 O 0.94112 0.90263 0.9764 0.0
O365 O 0.95007 0.89362 0.03119 0.0
O366 O 0.88459 0.06631 0.99127 0.0
O367 O 0.89365 0.07896 0.04557 0.0
C368 C 0.10421 0.02004 0.09824 0.0
O369 O 0.14669 0.9022 0.00228 0.0
O370 O 0.14442 0.92922 0.05239 0.0
O371 O 0.93118 0.98367 0.93529 0.0
C372 C 0.10474 0.14677 0.03666 0.0
O373 O 0.11784 0.0744 0.93861 0.0
C374 C 0.93194 0.99054 0.08911 0.0
O375 O 0.94661 0.06873 0.92623 0.0
C376 C 0.93921 0.883 0.00242 0.0
O377 O 0.07746 0.89532 0.94145 0.0
C378 C 1.00038 0.09742 0.08795 0.0
O379 O 0.09665 0.05278 0.09813 0.0
O380 O 0.095 0.00147 0.07293 0.0
C381 C 0.87367 0.07772 0.01986 0.0
O382 O 0.94006 0.95793 0.08713 0.0
O383 O 0.9457 0.01147 0.06784 0.0
C384 C 0.03664 0.91804 0.09093 0.0
O385 O 0.96728 0.09541 0.08683 0.0
O386 O 0.01869 0.07707 0.06917 0.0
C387 C 0.16035 0.90979 0.03069 0.0
O388 O 0.06956 0.9217 0.09232 0.0
O389 O 0.02063 0.93242 0.06646 0.0
C390 C 0.93888 0.98169 0.90405 0.0
O391 O 0.96541 0.96172 0.89452 0.0
C392 C 0.13725 0.047 0.93786 0.0
O393 O 0.14084 0.02831 0.96553 0.0
C394 C 0.05746 0.34301 0.27171 0.0
C395 C 0.0817 0.34034 0.29809 0.0
C396 C 0.05533 0.31656 0.24712 0.0
C397 C 0.07215 0.22253 0.23282 0.0
H398 H 0.05749 0.24718 0.13895 0.0
C399 C 0.04484 0.11681 0.13007 0.0
C400 C 0.01663 0.12487 0.10902 0.0
C401 C 0.05891 0.14279 0.1512 0.0
C402 C 0.06148 0.23989 0.16508 0.0
H403 H 0.12313 0.30814 0.31905 0.0
H404 H 0.11905 0.26137 0.2761 0.0
H405 H 0.07084 0.29351 0.18001 0.0
H406 H 0.98076 0.16598 0.09337 0.0
H407 H 0.00509 0.2114 0.13021 0.0
H408 H 0.0616 0.16907 0.21814 0.0
C409 C 0.10166 0.284 0.27465 0.0
C410 C 0.06915 0.26639 0.18855 0.0
C411 C 0.10399 0.3107 0.29918 0.0
C412 C 0.00273 0.15926 0.10925 0.0
C413 C 0.01688 0.18528 0.13011 0.0
C414 C 0.06435 0.196 0.20934 0.0
C415 C 0.07731 0.28672 0.24835 0.0
C416 C 0.07366 0.25811 0.22283 0.0
C417 C 0.04497 0.17731 0.15153 0.0
C418 C 0.058 0.20455 0.1754 0.0
H419 H 0.04002 0.36561 0.27021 0.0
H420 H 0.03593 0.31916 0.22749 0.0
H421 H 0.0753 0.21538 0.2591 0.0
H422 H 0.05507 0.09017 0.13116 0.0
H423 H 0.08049 0.13582 0.16745 0.0
C424 C 0.7461 0.05883 0.33514 0.0
C425 C 0.71284 0.07266 0.32817 0.0
C426 C 0.76984 0.05165 0.30901 0.0
C427 C 0.78894 0.07137 0.21867 0.0
H428 H 0.84752 0.98786 0.22593 0.0
C429 C 0.90081 0.03823 0.12294 0.0
C430 C 0.90604 0.00233 0.11489 0.0
C431 C 0.87709 0.04828 0.14844 0.0
C432 C 0.83116 0.01113 0.22325 0.0
H433 H 0.67892 0.09126 0.2883 0.0
H434 H 0.71978 0.07736 0.24247 0.0
H435 H 0.80594 0.00171 0.27057 0.0
H436 H 0.88942 0.9489 0.12657 0.0
H437 H 0.84783 0.96629 0.16996 0.0
H438 H 0.81344 0.07991 0.17058 0.0
C439 C 0.72771 0.07232 0.26821 0.0
C440 C 0.8076 0.01939 0.2492 0.0
C441 C 0.70406 0.07982 0.29443 0.0
C442 C 0.88645 0.97682 0.13233 0.0
C443 C 0.86266 0.98679 0.15747 0.0
C444 C 0.81241 0.06293 0.1925 0.0
C445 C 0.76093 0.05807 0.27515 0.0
C446 C 0.78611 0.04959 0.24731 0.0
C447 C 0.85799 0.02258 0.16629 0.0
C448 C 0.83368 0.03255 0.19438 0.0
H449 H 0.75389 0.05395 0.36097 0.0
H450 H 0.79542 0.04152 0.31549 0.0
H451 H 0.77318 0.09512 0.21652 0.0
H452 H 0.91549 0.0585 0.11013 0.0
H453 H 0.87435 0.07608 0.1547 0.0
C454 C 0.9732 0.70619 0.3041 0.0
C455 C 0.94054 0.68967 0.30748 0.0
C456 C 0.97704 0.73588 0.28362 0.0
C457 C 0.94298 0.77619 0.20791 0.0
H458 H 0.99633 0.85754 0.23714 0.0
C459 C 0.98374 0.88702 0.11497 0.0
C460 C 0.01866 0.89776 0.11782 0.0
C461 C 0.96829 0.86611 0.14006 0.0
C462 C 0.98148 0.83497 0.2285 0.0
H463 H 0.88669 0.69071 0.29116 0.0
H464 H 0.89365 0.74249 0.25464 0.0
H465 H 0.98062 0.81205 0.27787 0.0
H466 H 0.06449 0.89549 0.14979 0.0
H467 H 0.03815 0.85881 0.19264 0.0
H468 H 0.94543 0.79802 0.15816 0.0
C469 C 0.91596 0.73277 0.26856 0.0
C470 C 0.9724 0.80903 0.25188 0.0
C471 C 0.91195 0.70336 0.28954 0.0
C472 C 0.03751 0.88774 0.14661 0.0
C473 C 0.02223 0.86693 0.17151 0.0
C474 C 0.95242 0.80198 0.18436 0.0
C475 C 0.94858 0.74922 0.26535 0.0
C476 C 0.95384 0.77896 0.24165 0.0
C477 C 0.98752 0.85558 0.16852 0.0
C478 C 0.97269 0.83116 0.19421 0.0
H479 H 0.99601 0.69579 0.31675 0.0
H480 H 0.00265 0.74765 0.28109 0.0
H481 H 0.92881 0.75313 0.19933 0.0
H482 H 0.96855 0.89402 0.09315 0.0
H483 H 0.94142 0.858 0.13704 0.0
C484 C 0.28887 0.97466 0.34178 0.0
C485 C 0.3117 0.94549 0.34239 0.0
C486 C 0.26516 0.97881 0.31543 0.0
C487 C 0.24561 0.94922 0.22792 0.0
H488 H 0.1547 0.98936 0.24956 0.0
C489 C 0.13634 0.9706 0.12815 0.0
C490 C 0.12353 0.00549 0.12757 0.0
C491 C 0.1574 0.95893 0.15475 0.0
C492 C 0.17997 0.97806 0.24316 0.0
H493 H 0.32801 0.89804 0.31555 0.0
H494 H 0.28595 0.90473 0.26979 0.0
H495 H 0.19591 0.97752 0.29475 0.0
H496 H 0.12123 0.0549 0.15595 0.0
H497 H 0.15695 0.0344 0.20231 0.0
H498 H 0.22926 0.94982 0.17616 0.0
C499 C 0.28669 0.92475 0.28944 0.0
C500 C 0.20373 0.97151 0.269 0.0
C501 C 0.31066 0.92078 0.31572 0.0
C502 C 0.1308 0.02788 0.15517 0.0
C503 C 0.15121 0.01612 0.18194 0.0
C504 C 0.22162 0.95547 0.20205 0.0
C505 C 0.26338 0.95366 0.28913 0.0
C506 C 0.2372 0.95782 0.26169 0.0
C507 C 0.16522 0.98175 0.18179 0.0
C508 C 0.18887 0.97071 0.20937 0.0
H509 H 0.28916 0.99423 0.36188 0.0
H510 H 0.24827 0.00188 0.31568 0.0
H511 H 0.27118 0.93889 0.22126 0.0
H512 H 0.13059 0.95245 0.10801 0.0
H513 H 0.16756 0.93212 0.15421 0.0
C514 C 0.96305 0.71721 0.69471 0.0
C515 C 0.93451 0.69414 0.69746 0.0
C516 C 0.97101 0.74051 0.72101 0.0
C517 C 0.95803 0.7529 0.81264 0.0
H518 H 0.99477 0.84637 0.79456 0.0
C519 C 0.99707 0.84905 0.91984 0.0
C520 C 0.02957 0.86562 0.91563 0.0
C521 C 0.98178 0.83072 0.89302 0.0
C522 C 0.98467 0.82028 0.8 0.0
H523 H 0.89077 0.67887 0.72902 0.0
H524 H 0.90448 0.71985 0.775 0.0
H525 H 0.97436 0.80973 0.74785 0.0
H526 H 0.07118 0.87652 0.87977 0.0
H527 H 0.0447 0.84435 0.83315 0.0
H528 H 0.96876 0.76331 0.86474 0.0
C529 C 0.92124 0.71923 0.75286 0.0
C530 C 0.97303 0.79927 0.77324 0.0
C531 C 0.91332 0.69585 0.72654 0.0
C532 C 0.04615 0.864 0.88388 0.0
C533 C 0.03083 0.8458 0.85707 0.0
C534 C 0.96958 0.77396 0.83941 0.0
C535 C 0.95039 0.74159 0.75054 0.0
C536 C 0.9601 0.76509 0.77919 0.0
C537 C 0.99863 0.8287 0.86139 0.0
C538 C 0.98357 0.80765 0.83332 0.0
H539 H 0.97951 0.71685 0.67235 0.0
H540 H 0.99384 0.75709 0.71848 0.0
H541 H 0.94864 0.72655 0.8181 0.0
H542 H 0.98366 0.84976 0.94399 0.0
H543 H 0.95679 0.81808 0.89705 0.0
C544 C 0.29544 0.99713 0.67046 0.0
C545 C 0.3189 0.96842 0.67052 0.0
C546 C 0.27616 0.00588 0.69948 0.0
C547 C 0.24315 0.96747 0.77898 0.0
H548 H 0.22889 0.0655 0.80526 0.0
C549 C 0.17961 0.00791 0.90646 0.0
C550 C 0.15666 0.03708 0.90667 0.0
C551 C 0.19894 -0.00073 0.87745 0.0
C552 C 0.23225 0.038 0.79805 0.0
H553 H 0.34023 0.92606 0.70086 0.0
H554 H 0.30692 0.94158 0.75177 0.0
H555 H 0.26427 0.05138 0.7555 0.0
H556 H 0.13548 0.0796 0.87626 0.0
H557 H 0.16893 0.06428 0.82557 0.0
H558 H 0.21108 0.95407 0.82147 0.0
C559 C 0.30332 0.95728 0.72924 0.0
C560 C 0.25259 0.02991 0.76953 0.0
C561 C 0.32264 0.94859 0.70023 0.0
C562 C 0.15309 0.05708 0.87704 0.0
C563 C 0.17242 0.04843 0.84802 0.0
C564 C 0.22279 0.97556 0.80747 0.0
C565 C 0.27969 0.98592 0.72915 0.0
C566 C 0.25831 0.99454 0.75967 0.0
C567 C 0.19577 0.01956 0.84794 0.0
C568 C 0.2171 0.01093 0.81738 0.0
H569 H 0.29161 0.01252 0.64777 0.0
H570 H 0.25783 0.02777 0.69838 0.0
H571 H 0.24654 0.93997 0.77176 0.0
H572 H 0.18302 0.99195 0.92885 0.0
H573 H 0.21694 0.9771 0.8784 0.0
C574 C 0.00815 0.26994 0.67727 0.0
C575 C 0.04029 0.28765 0.67511 0.0
C576 C 0.00294 0.2435 0.70132 0.0
C577 C 0.03873 0.20995 0.78195 0.0
H578 H 0.9812 0.1284 0.7621 0.0
C579 C 0.0221 0.09731 0.87761 0.0
C580 C 0.98739 0.08754 0.88432 0.0
C581 C 0.03016 0.11825 0.84967 0.0
C582 C 0.99723 0.15109 0.76801 0.0
H583 H 0.09276 0.28994 0.69494 0.0
H584 H 0.08399 0.24336 0.73653 0.0
H585 H 0.99235 0.17209 0.71814 0.0
H586 H 0.93427 0.09005 0.86574 0.0
H587 H 0.94842 0.12656 0.81689 0.0
H588 H 0.04364 0.18892 0.83177 0.0
C589 C 0.06235 0.25076 0.72053 0.0
C590 C 0.00352 0.17622 0.74289 0.0
C591 C 0.06746 0.27738 0.69666 0.0
C592 C 0.96122 0.09743 0.86143 0.0
C593 C 0.96935 0.11817 0.83333 0.0
C594 C 0.03267 0.18471 0.80693 0.0
C595 C 0.02993 0.23366 0.72339 0.0
C596 C 0.02414 0.20614 0.74963 0.0
C597 C 0.00376 0.1296 0.82768 0.0
C598 C 0.01166 0.15514 0.80033 0.0
H599 H 0.98695 0.27669 0.66048 0.0
H600 H 0.97754 0.23116 0.70293 0.0
H601 H 0.05418 0.23292 0.78832 0.0
H602 H 0.04291 0.08994 0.89463 0.0
H603 H 0.057 0.12617 0.84564 0.0
C604 C 0.73739 0.05723 0.67601 0.0
C605 C 0.70698 0.07518 0.68669 0.0
C606 C 0.76404 0.0497 0.69887 0.0
C607 C 0.79861 0.0754 0.78295 0.0
H608 H 0.84487 0.98404 0.77719 0.0
C609 C 0.88642 0.0181 0.88851 0.0
C610 C 0.91611 0.99851 0.87854 0.0
C611 C 0.86295 0.03072 0.8644 0.0
C612 C 0.83258 0.00988 0.77886 0.0
H613 H 0.68108 0.10001 0.72955 0.0
H614 H 0.72724 0.08617 0.76972 0.0
H615 H 0.79949 0.99887 0.73687 0.0
H616 H 0.94541 0.97854 0.83531 0.0
H617 H 0.90453 0.0006 0.79335 0.0
H618 H 0.83142 0.08599 0.82547 0.0
C619 C 0.73068 0.0782 0.74358 0.0
C620 C 0.80652 0.01841 0.75572 0.0
C621 C 0.70406 0.08585 0.72067 0.0
C622 C 0.92263 0.99322 0.84389 0.0
C623 C 0.89911 0.00571 0.81983 0.0
C624 C 0.82462 0.06679 0.80624 0.0
C625 C 0.76099 0.05996 0.73299 0.0
C626 C 0.78912 0.05124 0.75747 0.0
C627 C 0.86861 0.02391 0.82983 0.0
C628 C 0.84187 0.0339 0.80447 0.0
H629 H 0.74057 0.04915 0.64987 0.0
H630 H 0.78725 0.03617 0.68966 0.0
H631 H 0.78615 0.10114 0.78476 0.0
H632 H 0.88072 0.02284 0.915 0.0
H633 H 0.83965 0.04454 0.87296 0.0
C634 C 0.32483 0.33394 0.15454 0.0
C635 C 0.31968 0.37052 0.159 0.0
C636 C 0.29958 0.31342 0.13847 0.0
C637 C 0.20587 0.3102 0.12101 0.0
H638 H 0.23316 0.23897 0.05495 0.0
C639 C 0.1197 0.19164 0.08122 0.0
C640 C 0.12166 0.18016 0.04738 0.0
C641 C 0.14051 0.21951 0.09259 0.0
C642 C 0.22501 0.25902 0.07305 0.0
H643 H 0.28375 0.41408 0.15109 0.0
H644 H 0.23942 0.37812 0.12303 0.0
H645 H 0.2772 0.27804 0.07864 0.0
H646 H 0.14513 0.19086 0.99842 0.0
H647 H 0.18126 0.23939 0.01829 0.0
H648 H 0.15368 0.2907 0.11575 0.0
C649 C 0.26315 0.36546 0.13167 0.0
C650 C 0.25032 0.28113 0.08687 0.0
C651 C 0.28858 0.38604 0.14745 0.0
C652 C 0.14315 0.19873 0.02471 0.0
C653 C 0.16406 0.22643 0.03612 0.0
C654 C 0.18054 0.28783 0.10738 0.0
C655 C 0.26837 0.32892 0.12709 0.0
C656 C 0.24109 0.30675 0.1112 0.0
C657 C 0.16381 0.23635 0.07038 0.0
C658 C 0.1899 0.26186 0.08338 0.0
H659 H 0.34815 0.32109 0.1639 0.0
H660 H 0.30407 0.28522 0.13577 0.0
H661 H 0.19805 0.32956 0.13992 0.0
H662 H 0.10331 0.17809 0.09931 0.0
H663 H 0.13972 0.22652 0.11916 0.0
C664 C 0.3462 0.68705 0.14107 0.0
C665 C 0.37169 0.69407 0.16553 0.0
C666 C 0.33031 0.7147 0.12358 0.0
C667 C 0.30115 0.80373 0.13358 0.0
H668 H 0.29634 0.8062 0.0358 0.0
C669 C 0.21251 0.90509 0.06828 0.0
C670 C 0.19341 0.89244 0.04057 0.0
C671 C 0.24077 0.88572 0.08075 0.0
C672 C 0.29709 0.80579 0.06313 0.0
H673 H 0.40081 0.7355 0.19062 0.0
H674 H 0.37163 0.78417 0.16097 0.0
H675 H 0.33278 0.76181 0.06328 0.0
H676 H 0.18986 0.8503 0.00339 0.0
H677 H 0.23784 0.81587 0.02583 0.0
H678 H 0.26371 0.8457 0.134 0.0
C679 C 0.36455 0.75712 0.15509 0.0
C680 C 0.3182 0.78053 0.07877 0.0
C681 C 0.38108 0.72938 0.17204 0.0
C682 C 0.20416 0.8609 0.02465 0.0
C683 C 0.23196 0.84119 0.03751 0.0
C684 C 0.27943 0.82849 0.11802 0.0
C685 C 0.33904 0.74994 0.13075 0.0
C686 C 0.31995 0.77899 0.1141 0.0
C687 C 0.25015 0.85287 0.06625 0.0
C688 C 0.27656 0.82946 0.08255 0.0
H689 H 0.3384 0.66013 0.13561 0.0
H690 H 0.31043 0.70861 0.10512 0.0
H691 H 0.3019 0.80277 0.16092 0.0
H692 H 0.20503 0.92951 0.08092 0.0
H693 H 0.25465 0.89613 0.10233 0.0
C694 C 0.64289 0.28177 0.94551 0.0
C695 C 0.65381 0.31498 0.95749 0.0
C696 C 0.65876 0.25075 0.95704 0.0
C697 C 0.71286 0.2127 0.02439 0.0
H698 H 0.75353 0.15546 0.95261 0.0
C699 C 0.83231 0.12253 0.04422 0.0
C700 C 0.83875 0.09448 0.02158 0.0
C701 C 0.80259 0.14381 0.04075 0.0
C702 C 0.74168 0.17034 0.97317 0.0
H703 H 0.68866 0.34167 0.99203 0.0
H704 H 0.71599 0.2874 0.01265 0.0
H705 H 0.71406 0.20351 0.93869 0.0
H706 H 0.8174 0.06426 0.97997 0.0
H707 H 0.76466 0.10008 0.97504 0.0
H708 H 0.74056 0.1797 0.05896 0.0
C709 C 0.69524 0.28541 0.99428 0.0
C710 C 0.71913 0.1981 0.96506 0.0
C711 C 0.67976 0.31644 0.98236 0.0
C712 C 0.81335 0.08607 0.99747 0.0
C713 C 0.78327 0.10687 0.99445 0.0
C714 C 0.735 0.1845 0.0326 0.0
C715 C 0.68542 0.25234 0.9812 0.0
C716 C 0.70523 0.2201 0.99049 0.0
C717 C 0.77832 0.13707 0.01495 0.0
C718 C 0.75052 0.16352 0.00702 0.0
H719 H 0.62275 0.27992 0.92651 0.0
H720 H 0.65064 0.22555 0.94668 0.0
H721 H 0.70216 0.22913 0.04449 0.0
H722 H 0.85147 0.12973 0.06303 0.0
H723 H 0.80002 0.16688 0.05692 0.0
C724 C 0.67944 0.72494 0.98127 0.0
C725 C 0.67508 0.69338 0.963 0.0
C726 C 0.71273 0.73648 0.9901 0.0
C727 C 0.8045 0.72844 0.96259 0.0
H728 H 0.81935 0.78534 0.04292 0.0
C729 C 0.90608 0.83849 0.96858 0.0
C730 C 0.91994 0.84918 0.99979 0.0
C731 C 0.88228 0.81075 0.96682 0.0
C732 C 0.81611 0.76892 0.02068 0.0
H733 H 0.70221 0.64905 0.93957 0.0
H734 H 0.7605 0.66868 0.95574 0.0
H735 H 0.7653 0.75268 0.03683 0.0
H736 H 0.92205 0.83682 0.05322 0.0
H737 H 0.88095 0.78783 0.05001 0.0
H738 H 0.85533 0.74468 0.94645 0.0
C739 C 0.73815 0.68469 0.96311 0.0
C740 C 0.78478 0.75059 0.01694 0.0
C741 C 0.70477 0.67325 0.9541 0.0
C742 C 0.91159 0.82955 0.02881 0.0
C743 C 0.88781 0.80161 0.02701 0.0
C744 C 0.83598 0.74652 0.96646 0.0
C745 C 0.74258 0.71674 0.98079 0.0
C746 C 0.77803 0.73119 0.9873 0.0
C747 C 0.87184 0.79276 0.99618 0.0
C748 C 0.84167 0.76806 0.99498 0.0
H749 H 0.65707 0.74129 0.98788 0.0
H750 H 0.71505 0.76167 0.00302 0.0
H751 H 0.80028 0.71387 0.93936 0.0
H752 H 0.91209 0.85278 0.94564 0.0
H753 H 0.87045 0.80501 0.94265 0.0
loop_
_geom_bond_atom_site_label_1
_geom_bond_atom_site_label_2
_geom_bond_distance
_geom_bond_site_symmetry_2
_ccdc_geom_bond_type
C0 C1 1.560 . S
C0 H61 0.959 . S
C0 H62 0.959 . S
C0 H63 0.960 . S
C1 C0 1.560 . S
C1 O56 1.426 . S
C1 H60 0.980 . S
C2 C3 1.407 1_455 S
C2 C7 1.418 . S
C2 O56 1.334 . S
C3 C2 1.407 1_655 S
C3 C4 1.360 . S
C3 H64 0.929 . S
C4 C3 1.360 . S
C4 C5 1.401 1_655 S
C4 C8 1.527 . S
C5 C4 1.401 1_455 S
C5 C6 1.405 . S
C5 C38 1.587 1_455 S
C6 C5 1.405 . S
C6 C7 1.332 . S
C6 C9 1.496 . S
C7 C2 1.418 . S
C7 C6 1.332 . S
C7 H65 0.929 . S
C8 C4 1.527 . S
C8 H66 0.959 . S
C8 H67 0.961 . S
C8 H68 0.961 . S
C9 C6 1.496 . S
C9 H69 0.960 . S
C9 H70 0.960 . S
C9 H71 0.961 . S
C10 C11 1.517 . S
C10 H73 0.961 1_655 S
C10 H74 0.960 . S
C10 H75 0.959 . S
C11 C10 1.517 . S
C11 O59 1.468 . S
C11 H72 0.980 1_655 S
C12 C13 1.349 1_655 S
C12 C17 1.367 . S
C12 O59 1.408 . S
C13 C12 1.349 1_455 S
C13 C14 1.407 . S
C13 H76 0.930 . S
C14 C13 1.407 . S
C14 C15 1.449 1_455 S
C14 C18 1.535 . S
C15 C14 1.449 1_655 S
C15 C16 1.384 . S
C15 C40 1.553 . S
C16 C15 1.384 . S
C16 C17 1.364 . S
C16 C19 1.450 . S
C17 C12 1.367 . S
C17 C16 1.364 . S
C17 H77 0.931 . S
C18 C14 1.535 . S
C18 H78 0.959 . S
C18 H79 0.961 . S
C18 H80 0.959 . S
C19 C16 1.450 . S
C19 H81 0.960 . S
C19 H82 0.960 . S
C19 H83 0.960 . S
C20 C21 1.309 1_655 S
C20 C25 1.304 . S
C20 O58 1.435 . S
C21 C20 1.309 1_455 S
C21 C22 1.476 . S
C21 H85 0.930 . S
C22 C21 1.476 . S
C22 C23 1.400 1_455 S
C22 C26 1.567 . S
C23 C22 1.400 1_655 S
C23 C24 1.373 . S
C23 C45 1.432 . S
C24 C23 1.373 . S
C24 C25 1.339 . S
C24 C27 1.530 . S
C25 C20 1.304 . S
C25 C24 1.339 . S
C25 H86 0.930 . S
C26 C22 1.567 . S
C26 H87 0.961 . S
C26 H88 0.960 . S
C26 H89 0.958 . S
C27 C24 1.530 . S
C27 H90 0.961 . S
C27 H91 0.960 . S
C27 H92 0.960 . S
C28 C29 1.530 . S
C28 H94 0.961 . S
C28 H95 0.961 . S
C28 H96 0.959 . S
C29 C28 1.530 . S
C29 O57 1.412 . S
C29 H93 0.980 . S
C30 C31 1.288 . S
C30 C35 1.377 1_455 S
C30 O57 1.393 . S
C31 C30 1.288 . S
C31 C32 1.369 . S
C31 H97 0.932 . S
C32 C31 1.369 . S
C32 C33 1.398 . S
C32 C36 1.527 . S
C33 C32 1.398 . S
C33 C34 1.380 1_455 S
C33 C47 1.497 . S
C34 C33 1.380 1_655 S
C34 C35 1.383 . S
C34 C37 1.603 . S
C35 C30 1.377 1_655 S
C35 C34 1.383 . S
C35 H98 0.929 . S
C36 C32 1.527 . S
C36 H99 0.961 . S
C36 H100 0.959 . S
C36 H101 0.959 . S
C37 C34 1.603 . S
C37 H102 0.960 . S
C37 H103 0.962 . S
C37 H104 0.961 . S
C38 C5 1.587 1_655 S
C38 C39 1.360 . S
C38 C51 1.412 . S
C39 C38 1.360 . S
C39 C40 1.365 . S
C39 H105 0.929 . S
C40 C15 1.553 . S
C40 C39 1.365 . S
C40 C41 1.404 . S
C41 C40 1.404 . S
C41 C42 1.395 . S
C41 C52 1.451 . S
C42 C41 1.395 . S
C42 C43 1.322 . S
C42 H106 0.930 . S
C43 C42 1.322 . S
C43 C44 1.459 . S
C43 H107 0.929 . S
C44 C43 1.459 . S
C44 C45 1.445 . S
C44 C53 1.395 . S
C45 C23 1.432 . S
C45 C44 1.445 . S
C45 C46 1.374 . S
C46 C45 1.374 . S
C46 C47 1.435 1_655 S
C46 H108 0.929 1_655 S
C47 C33 1.497 . S
C47 C46 1.435 1_455 S
C47 C48 1.361 . S
C48 C47 1.361 . S
C48 C49 1.402 . S
C48 C53 1.444 1_455 S
C49 C48 1.402 . S
C49 C50 1.347 . S
C49 H109 0.929 . S
C50 C49 1.347 . S
C50 C51 1.455 1_455 S
C50 H110 0.930 . S
C51 C38 1.412 . S
C51 C50 1.455 1_655 S
C51 C52 1.331 . S
C52 C41 1.451 . S
C52 C51 1.331 . S
C52 C53 1.497 . S
C53 C44 1.395 . S
C53 C48 1.444 1_655 S
C53 C52 1.497 . S
C54 C55 1.582 1_655 S
C54 H111 0.962 . S
C54 H112 0.959 . S
C54 H113 0.958 . S
C55 C54 1.582 1_455 S
C55 O58 1.458 1_455 S
C55 H84 0.980 . S
O56 C1 1.426 . S
O56 C2 1.334 . S
O57 C29 1.412 . S
O57 C30 1.393 . S
O58 C20 1.435 . S
O58 C55 1.458 1_655 S
O59 C11 1.468 . S
O59 C12 1.408 . S
H60 C1 0.980 . S
H61 C0 0.959 . S
H62 C0 0.959 . S
H63 C0 0.960 . S
H64 C3 0.929 . S
H65 C7 0.929 . S
H66 C8 0.959 . S
H67 C8 0.961 . S
H68 C8 0.961 . S
H69 C9 0.960 . S
H70 C9 0.960 . S
H71 C9 0.961 . S
H72 C11 0.980 1_455 S
H73 C10 0.961 1_455 S
H74 C10 0.960 . S
H75 C10 0.959 . S
H76 C13 0.930 . S
H77 C17 0.931 . S
H78 C18 0.959 . S
H79 C18 0.961 . S
H80 C18 0.959 . S
H81 C19 0.960 . S
H82 C19 0.960 . S
H83 C19 0.960 . S
H84 C55 0.980 . S
H85 C21 0.930 . S
H86 C25 0.930 . S
H87 C26 0.961 . S
H88 C26 0.960 . S
H89 C26 0.958 . S
H90 C27 0.961 . S
H91 C27 0.960 . S
H92 C27 0.960 . S
H93 C29 0.980 . S
H94 C28 0.961 . S
H95 C28 0.961 . S
H96 C28 0.959 . S
H97 C31 0.932 . S
H98 C35 0.929 . S
H99 C36 0.961 . S
H100 C36 0.959 . S
H101 C36 0.959 . S
H102 C37 0.960 . S
H103 C37 0.962 . S
H104 C37 0.961 . S
H105 C39 0.929 . S
H106 C42 0.930 . S
H107 C43 0.929 . S
H108 C46 0.929 1_455 S
H109 C49 0.929 . S
H110 C50 0.930 . S
H111 C54 0.962 . S
H112 C54 0.959 . S
H113 C54 0.958 . S
C114 C115 1.560 . S
C114 H175 0.959 . S
C114 H176 0.959 . S
C114 H177 0.960 . S
C115 C114 1.560 . S
C115 O170 1.426 . S
C115 H174 0.980 . S
C116 C117 1.407 1_545 S
C116 C121 1.418 . S
C116 O170 1.334 . S
C117 C116 1.407 1_565 S
C117 C118 1.360 . S
C117 H178 0.929 . S
C118 C117 1.360 . S
C118 C119 1.401 1_565 S
C118 C122 1.527 . S
C119 C118 1.401 1_545 S
C119 C120 1.405 . S
C119 C152 1.587 1_545 S
C120 C119 1.405 . S
C120 C121 1.332 . S
C120 C123 1.496 . S
C121 C116 1.418 . S
C121 C120 1.332 . S
C121 H179 0.929 . S
C122 C118 1.527 . S
C122 H180 0.959 . S
C122 H181 0.961 . S
C122 H182 0.961 . S
C123 C120 1.496 . S
C123 H183 0.960 . S
C123 H184 0.960 . S
C123 H185 0.961 . S
C124 C125 1.517 . S
C124 H187 0.961 . S
C124 H188 0.960 . S
C124 H189 0.959 . S
C125 C124 1.517 . S
C125 O173 1.468 . S
C125 H186 0.980 1_565 S
C126 C127 1.349 . S
C126 C131 1.367 . S
C126 O173 1.408 . S
C127 C126 1.349 . S
C127 C128 1.407 1_565 S
C127 H190 0.930 1_565 S
C128 C127 1.407 1_545 S
C128 C129 1.449 1_545 S
C128 C132 1.535 . S
C129 C128 1.449 1_565 S
C129 C130 1.384 . S
C129 C154 1.553 . S
C130 C129 1.384 . S
C130 C131 1.364 . S
C130 C133 1.450 . S
C131 C126 1.367 . S
C131 C130 1.364 . S
C131 H191 0.931 . S
C132 C128 1.535 . S
C132 H192 0.959 . S
C132 H193 0.961 . S
C132 H194 0.959 . S
C133 C130 1.450 . S
C133 H195 0.960 . S
C133 H196 0.960 . S
C133 H197 0.960 . S
C134 C135 1.309 1_565 S
C134 C139 1.304 . S
C134 O172 1.435 . S
C135 C134 1.309 1_545 S
C135 C136 1.476 . S
C135 H199 0.930 . S
C136 C135 1.476 . S
C136 C137 1.400 1_545 S
C136 C140 1.567 . S
C137 C136 1.400 1_565 S
C137 C138 1.373 . S
C137 C159 1.432 . S
C138 C137 1.373 . S
C138 C139 1.339 . S
C138 C141 1.530 . S
C139 C134 1.304 . S
C139 C138 1.339 . S
C139 H200 0.930 . S
C140 C136 1.567 . S
C140 H201 0.961 . S
C140 H202 0.960 . S
C140 H203 0.958 . S
C141 C138 1.530 . S
C141 H204 0.961 . S
C141 H205 0.960 . S
C141 H206 0.960 . S
C142 C143 1.530 . S
C142 H208 0.961 . S
C142 H209 0.961 . S
C142 H210 0.959 . S
C143 C142 1.530 . S
C143 O171 1.412 . S
C143 H207 0.980 . S
C144 C145 1.288 . S
C144 C149 1.377 1_545 S
C144 O171 1.393 . S
C145 C144 1.288 . S
C145 C146 1.369 . S
C145 H211 0.932 . S
C146 C145 1.369 . S
C146 C147 1.398 . S
C146 C150 1.527 . S
C147 C146 1.398 . S
C147 C148 1.380 1_545 S
C147 C161 1.497 . S
C148 C147 1.380 1_565 S
C148 C149 1.383 . S
C148 C151 1.603 . S
C149 C144 1.377 1_565 S
C149 C148 1.383 . S
C149 H212 0.929 . S
C150 C146 1.527 . S
C150 H213 0.961 . S
C150 H214 0.959 . S
C150 H215 0.959 . S
C151 C148 1.603 . S
C151 H216 0.960 . S
C151 H217 0.962 . S
C151 H218 0.961 . S
C152 C119 1.587 1_565 S
C152 C153 1.360 . S
C152 C165 1.412 . S
C153 C152 1.360 . S
C153 C154 1.365 . S
C153 H219 0.929 . S
C154 C129 1.553 . S
C154 C153 1.365 . S
C154 C155 1.404 . S
C155 C154 1.404 . S
C155 C156 1.395 . S
C155 C166 1.451 . S
C156 C155 1.395 . S
C156 C157 1.322 . S
C156 H220 0.930 . S
C157 C156 1.322 . S
C157 C158 1.459 . S
C157 H221 0.929 . S
C158 C157 1.459 . S
C158 C159 1.445 . S
C158 C167 1.395 . S
C159 C137 1.432 . S
C159 C158 1.445 . S
C159 C160 1.370 . S
C160 C159 1.370 . S
C160 C161 1.438 1_565 S
C160 H222 0.930 . S
C161 C147 1.497 . S
C161 C160 1.438 1_545 S
C161 C162 1.360 1_545 S
C162 C161 1.360 1_565 S
C162 C163 1.401 1_565 S
C162 C167 1.446 . S
C163 C162 1.401 1_545 S
C163 C164 1.348 . S
C163 H223 0.929 . S
C164 C163 1.348 . S
C164 C165 1.453 1_545 S
C164 H224 0.932 . S
C165 C152 1.412 . S
C165 C164 1.453 1_565 S
C165 C166 1.331 . S
C166 C155 1.451 . S
C166 C165 1.331 . S
C166 C167 1.497 . S
C167 C158 1.395 . S
C167 C162 1.446 . S
C167 C166 1.497 . S
C168 C169 1.581 1_565 S
C168 H225 0.962 . S
C168 H226 0.959 . S
C168 H227 0.958 . S
C169 C168 1.581 1_545 S
C169 O172 1.457 1_545 S
C169 H198 0.980 . S
O170 C115 1.426 . S
O170 C116 1.334 . S
O171 C143 1.412 . S
O171 C144 1.393 . S
O172 C134 1.435 . S
O172 C169 1.457 1_565 S
O173 C125 1.468 . S
O173 C126 1.408 . S
H174 C115 0.980 . S
H175 C114 0.959 . S
H176 C114 0.959 . S
H177 C114 0.960 . S
H178 C117 0.929 . S
H179 C121 0.929 . S
H180 C122 0.959 . S
H181 C122 0.961 . S
H182 C122 0.961 . S
H183 C123 0.960 . S
H184 C123 0.960 . S
H185 C123 0.961 . S
H186 C125 0.980 1_545 S
H187 C124 0.961 . S
H188 C124 0.960 . S
H189 C124 0.959 . S
H190 C127 0.930 1_545 S
H191 C131 0.931 . S
H192 C132 0.959 . S
H193 C132 0.961 . S
H194 C132 0.959 . S
H195 C133 0.960 . S
H196 C133 0.960 . S
H197 C133 0.960 . S
H198 C169 0.980 . S
H199 C135 0.930 . S
H200 C139 0.930 . S
H201 C140 0.961 . S
H202 C140 0.960 . S
H203 C140 0.958 . S
H204 C141 0.961 . S
H205 C141 0.960 . S
H206 C141 0.960 . S
H207 C143 0.980 . S
H208 C142 0.961 . S
H209 C142 0.961 . S
H210 C142 0.959 . S
H211 C145 0.932 . S
H212 C149 0.929 . S
H213 C150 0.961 . S
H214 C150 0.959 . S
H215 C150 0.959 . S
H216 C151 0.960 . S
H217 C151 0.962 . S
H218 C151 0.961 . S
H219 C153 0.929 . S
H220 C156 0.930 . S
H221 C157 0.929 . S
H222 C160 0.930 . S
H223 C163 0.929 . S
H224 C164 0.932 . S
H225 C168 0.962 . S
H226 C168 0.959 . S
H227 C168 0.958 . S
C228 C229 1.560 1_556 S
C228 H289 0.959 . S
C228 H290 0.959 . S
C228 H291 0.960 . S
C229 C228 1.560 1_554 S
C229 O284 1.426 1_554 S
C229 H288 0.980 . S
C230 C231 1.392 1_556 S
C230 C235 1.427 . S
C230 O284 1.341 . S
C231 C230 1.392 1_554 S
C231 C232 1.360 . S
C231 H292 0.929 . S
C232 C231 1.360 . S
C232 C233 1.401 . S
C232 C236 1.527 . S
C233 C232 1.401 . S
C233 C234 1.405 1_554 S
C233 C266 1.587 . S
C234 C233 1.405 1_556 S
C234 C235 1.332 . S
C234 C237 1.496 . S
C235 C230 1.427 . S
C235 C234 1.332 . S
C235 H293 0.929 . S
C236 C232 1.527 . S
C236 H294 0.959 . S
C236 H295 0.961 . S
C236 H296 0.961 . S
C237 C234 1.496 . S
C237 H297 0.960 . S
C237 H298 0.960 . S
C237 H299 0.961 . S
C238 C239 1.517 . S
C238 H301 0.961 . S
C238 H302 0.960 . S
C238 H303 0.959 . S
C239 C238 1.517 . S
C239 O287 1.468 . S
C239 H300 0.980 . S
C240 C241 1.349 . S
C240 C245 1.367 . S
C240 O287 1.408 . S
C241 C240 1.349 . S
C241 C242 1.407 . S
C241 H304 0.930 . S
C242 C241 1.407 . S
C242 C243 1.449 . S
C242 C246 1.535 1_554 S
C243 C242 1.449 . S
C243 C244 1.384 . S
C243 C268 1.553 . S
C244 C243 1.384 . S
C244 C245 1.364 . S
C244 C247 1.450 . S
C245 C240 1.367 . S
C245 C244 1.364 . S
C245 H305 0.931 . S
C246 C242 1.535 1_556 S
C246 H306 0.959 . S
C246 H307 0.961 . S
C246 H308 0.959 . S
C247 C244 1.450 . S
C247 H309 0.960 . S
C247 H310 0.960 . S
C247 H311 0.960 . S
C248 C249 1.309 . S
C248 C253 1.304 . S
C248 O286 1.435 . S
C249 C248 1.309 . S
C249 C250 1.476 . S
C249 H313 0.930 . S
C250 C249 1.476 . S
C250 C251 1.400 . S
C250 C254 1.567 1_554 S
C251 C250 1.400 . S
C251 C252 1.373 . S
C251 C273 1.432 . S
C252 C251 1.373 . S
C252 C253 1.339 . S
C252 C255 1.530 . S
C253 C248 1.304 . S
C253 C252 1.339 . S
C253 H314 0.930 . S
C254 C250 1.567 1_556 S
C254 H315 0.961 . S
C254 H316 0.960 . S
C254 H317 0.958 . S
C255 C252 1.530 . S
C255 H318 0.961 . S
C255 H319 0.960 . S
C255 H320 0.960 . S
C256 C257 1.530 1_556 S
C256 H322 0.961 1_556 S
C256 H323 0.961 . S
C256 H324 0.959 . S
C257 C256 1.530 1_554 S
C257 O285 1.412 1_554 S
C257 H321 0.980 . S
C258 C259 1.272 1_554 S
C258 C263 1.398 . S
C258 O285 1.387 1_554 S
C259 C258 1.272 1_556 S
C259 C260 1.369 . S
C259 H325 0.932 . S
C260 C259 1.369 . S
C260 C261 1.398 1_556 S
C260 C264 1.527 . S
C261 C260 1.398 1_554 S
C261 C262 1.380 . S
C261 C275 1.497 . S
C262 C261 1.380 . S
C262 C263 1.383 . S
C262 C265 1.603 . S
C263 C258 1.398 . S
C263 C262 1.383 . S
C263 H326 0.929 . S
C264 C260 1.527 . S
C264 H327 0.961 . S
C264 H328 0.959 . S
C264 H329 0.959 . S
C265 C262 1.603 . S
C265 H330 0.960 . S
C265 H331 0.962 . S
C265 H332 0.961 . S
C266 C233 1.587 . S
C266 C267 1.360 . S
C266 C279 1.412 . S
C267 C266 1.360 . S
C267 C268 1.365 . S
C267 H333 0.929 . S
C268 C243 1.553 . S
C268 C267 1.365 . S
C268 C269 1.404 . S
C269 C268 1.404 . S
C269 C270 1.395 . S
C269 C280 1.451 . S
C270 C269 1.395 . S
C270 C271 1.322 . S
C270 H334 0.930 . S
C271 C270 1.322 . S
C271 C272 1.459 . S
C271 H335 0.929 . S
C272 C271 1.459 . S
C272 C273 1.445 . S
C272 C281 1.395 . S
C273 C251 1.432 . S
C273 C272 1.445 . S
C273 C274 1.370 . S
C274 C273 1.370 . S
C274 C275 1.438 . S
C274 H336 0.930 . S
C275 C261 1.497 . S
C275 C274 1.438 . S
C275 C276 1.360 . S
C276 C275 1.360 . S
C276 C277 1.401 . S
C276 C281 1.446 . S
C277 C276 1.401 . S
C277 C278 1.347 . S
C277 H337 0.929 . S
C278 C277 1.347 . S
C278 C279 1.455 . S
C278 H338 0.930 . S
C279 C266 1.412 . S
C279 C278 1.455 . S
C279 C280 1.331 . S
C280 C269 1.451 . S
C280 C279 1.331 . S
C280 C281 1.497 . S
C281 C272 1.395 . S
C281 C276 1.446 . S
C281 C280 1.497 . S
C282 C283 1.582 . S
C282 H339 0.962 . S
C282 H340 0.959 . S
C282 H341 0.958 . S
C283 C282 1.582 . S
C283 O286 1.458 . S
C283 H312 0.980 . S
O284 C229 1.426 1_556 S
O284 C230 1.341 . S
O285 C257 1.412 1_556 S
O285 C258 1.387 1_556 S
O286 C248 1.435 . S
O286 C283 1.458 . S
O287 C239 1.468 . S
O287 C240 1.408 . S
H288 C229 0.980 . S
H289 C228 0.959 . S
H290 C228 0.959 . S
H291 C228 0.960 . S
H292 C231 0.929 . S
H293 C235 0.929 . S
H294 C236 0.959 . S
H295 C236 0.961 . S
H296 C236 0.961 . S
H297 C237 0.960 . S
H298 C237 0.960 . S
H299 C237 0.961 . S
H300 C239 0.980 . S
H301 C238 0.961 . S
H302 C238 0.960 . S
H303 C238 0.959 . S
H304 C241 0.930 . S
H305 C245 0.931 . S
H306 C246 0.959 . S
H307 C246 0.961 . S
H308 C246 0.959 . S
H309 C247 0.960 . S
H310 C247 0.960 . S
H311 C247 0.960 . S
H312 C283 0.980 . S
H313 C249 0.930 . S
H314 C253 0.930 . S
H315 C254 0.961 . S
H316 C254 0.960 . S
H317 C254 0.958 . S
H318 C255 0.961 . S
H319 C255 0.960 . S
H320 C255 0.960 . S
H321 C257 0.980 . S
H322 C256 0.961 1_554 S
H323 C256 0.961 . S
H324 C256 0.959 . S
H325 C259 0.932 . S
H326 C263 0.929 . S
H327 C264 0.961 . S
H328 C264 0.959 . S
H329 C264 0.959 . S
H330 C265 0.960 . S
H331 C265 0.962 . S
H332 C265 0.961 . S
H333 C267 0.929 . S
H334 C270 0.930 . S
H335 C271 0.929 . S
H336 C274 0.930 . S
H337 C277 0.929 . S
H338 C278 0.930 . S
H339 C282 0.962 . S
H340 C282 0.959 . S
H341 C282 0.958 . S
Zn342 O344 1.933 1_556 S
Zn342 O362 1.985 . S
Zn342 O373 1.955 . S
Zn343 O344 1.911 . S
Zn343 O363 1.970 . S
Zn343 O379 1.945 . S
Zn343 O386 1.981 . S
O344 Zn342 1.933 1_554 S
O344 Zn343 1.911 . S
O344 H345 0.841 . S
H345 O344 0.841 . S
C346 O347 1.246 . S
C346 O375 1.276 1_455 S
O347 C346 1.246 . S
Zn348 O350 1.911 . S
Zn348 O365 1.970 . S
Zn348 O382 1.945 . S
Zn348 O389 1.981 . S
Zn349 O350 1.933 1_556 S
Zn349 O364 1.985 . S
Zn349 O371 1.955 . S
O350 Zn348 1.911 . S
O350 Zn349 1.933 1_554 S
O350 H351 0.841 1_565 S
H351 O350 0.841 1_545 S
Zn352 O353 1.933 1_556 S
Zn352 O366 1.985 . S
Zn352 O375 1.955 . S
O353 Zn352 1.933 1_554 S
O353 Zn354 1.911 . S
O353 H355 0.841 1_655 S
Zn354 O353 1.911 . S
Zn354 O367 1.970 . S
Zn354 O383 1.981 . S
Zn354 O385 1.945 . S
H355 O353 0.841 1_455 S
Zn356 O357 1.933 1_556 S
Zn356 O369 1.985 . S
Zn356 O377 1.955 . S
O357 Zn356 1.933 1_554 S
O357 H358 0.841 . S
O357 Zn359 1.911 . S
H358 O357 0.841 . S
Zn359 O357 1.911 . S
Zn359 O370 1.970 . S
Zn359 O380 1.981 . S
Zn359 O388 1.945 . S
C360 O361 1.246 1_455 S
C360 O377 1.276 . S
O361 C360 1.246 1_655 S
O362 Zn342 1.985 . S
O362 C372 1.245 1_556 S
O363 Zn343 1.970 . S
O363 C372 1.263 . S
O364 Zn349 1.985 . S
O364 C376 1.245 1_556 S
O365 Zn348 1.970 . S
O365 C376 1.263 . S
O366 Zn352 1.985 . S
O366 C381 1.245 1_556 S
O367 Zn354 1.970 . S
O367 C381 1.263 . S
C368 O379 1.262 . S
C368 O380 1.245 1_545 S
O369 Zn356 1.985 . S
O369 C387 1.245 1_556 S
O370 Zn359 1.970 . S
O370 C387 1.263 . S
O371 Zn349 1.955 . S
O371 C390 1.276 1_565 S
C372 O362 1.245 1_554 S
C372 O363 1.263 . S
O373 Zn342 1.955 . S
O373 C392 1.276 . S
C374 O382 1.262 1_545 S
C374 O383 1.245 . S
O375 C346 1.276 1_655 S
O375 Zn352 1.955 . S
C376 O364 1.245 1_554 S
C376 O365 1.263 . S
O377 Zn356 1.955 . S
O377 C360 1.276 . S
C378 O385 1.262 1_455 S
C378 O386 1.245 . S
O379 Zn343 1.945 . S
O379 C368 1.262 . S
O380 Zn359 1.981 . S
O380 C368 1.245 1_565 S
C381 O366 1.245 1_554 S
C381 O367 1.263 . S
O382 Zn348 1.945 . S
O382 C374 1.262 1_565 S
O383 Zn354 1.981 . S
O383 C374 1.245 . S
C384 O388 1.262 . S
C384 O389 1.245 1_455 S
O385 Zn354 1.945 . S
O385 C378 1.262 1_655 S
O386 Zn343 1.981 . S
O386 C378 1.245 . S
C387 O369 1.245 1_554 S
C387 O370 1.263 . S
O388 Zn359 1.945 . S
O388 C384 1.262 . S
O389 Zn348 1.981 . S
O389 C384 1.245 1_655 S
C390 O371 1.276 1_545 S
C390 O391 1.246 . S
O391 C390 1.246 . S
C392 O373 1.276 . S
C392 O393 1.246 1_545 S
O393 C392 1.246 1_565 S
C394 C395 1.349 1_655 S
C394 C396 1.327 . S
C394 H419 0.950 . S
C395 C394 1.349 1_455 S
C395 C411 1.349 . S
C396 C394 1.327 . S
C396 C415 1.429 1_655 S
C396 H420 0.950 . S
C397 C414 1.574 . S
C397 C416 1.368 . S
C397 H421 0.949 . S
H398 C402 0.949 . S
C399 C400 1.349 . S
C399 C401 1.327 . S
C399 H422 0.950 . S
C400 C399 1.349 . S
C400 C412 1.349 1_455 S
C401 C399 1.327 . S
C401 C417 1.429 . S
C401 H423 0.950 . S
C402 H398 0.949 . S
C402 C410 1.574 . S
C402 C418 1.368 1_655 S
H403 C411 0.950 . S
H404 C409 0.950 . S
H405 C410 0.949 . S
H406 C412 0.950 . S
H407 C413 0.950 . S
H408 C414 0.949 . S
C409 H404 0.950 . S
C409 C411 1.327 . S
C409 C415 1.429 . S
C410 C402 1.574 . S
C410 H405 0.949 . S
C410 C416 1.368 1_655 S
C411 C395 1.349 . S
C411 H403 0.950 . S
C411 C409 1.327 . S
C412 C400 1.349 1_655 S
C412 H406 0.950 . S
C412 C413 1.327 . S
C413 H407 0.950 . S
C413 C412 1.327 . S
C413 C417 1.429 1_655 S
C414 C397 1.574 . S
C414 H408 0.949 . S
C414 C418 1.368 . S
C415 C396 1.429 1_455 S
C415 C409 1.429 . S
C415 C416 1.523 . S
C416 C397 1.368 . S
C416 C410 1.368 1_455 S
C416 C415 1.523 . S
C417 C401 1.429 . S
C417 C413 1.429 1_455 S
C417 C418 1.523 . S
C418 C402 1.368 1_455 S
C418 C414 1.368 . S
C418 C417 1.523 . S
H419 C394 0.950 . S
H420 C396 0.950 . S
H421 C397 0.949 . S
H422 C399 0.950 . S
H423 C401 0.950 . S
C424 C425 1.349 1_565 S
C424 C426 1.327 . S
C424 H449 0.950 . S
C425 C424 1.349 1_545 S
C425 C441 1.349 . S
C426 C424 1.327 . S
C426 C445 1.429 1_565 S
C426 H450 0.950 . S
C427 C444 1.574 . S
C427 C446 1.368 . S
C427 H451 0.949 . S
H428 C432 0.949 . S
C429 C430 1.349 . S
C429 C431 1.327 . S
C429 H452 0.950 . S
C430 C429 1.349 . S
C430 C442 1.349 1_545 S
C431 C429 1.327 . S
C431 C447 1.429 . S
C431 H453 0.950 . S
C432 H428 0.949 . S
C432 C440 1.574 . S
C432 C448 1.368 1_565 S
H433 C441 0.950 . S
H434 C439 0.950 . S
H435 C440 0.949 . S
H436 C442 0.950 . S
H437 C443 0.950 . S
H438 C444 0.949 . S
C439 H434 0.950 . S
C439 C441 1.327 . S
C439 C445 1.429 . S
C440 C432 1.574 . S
C440 H435 0.949 . S
C440 C446 1.368 1_565 S
C441 C425 1.349 . S
C441 H433 0.950 . S
C441 C439 1.327 . S
C442 C430 1.349 1_565 S
C442 H436 0.950 . S
C442 C443 1.327 . S
C443 H437 0.950 . S
C443 C442 1.327 . S
C443 C447 1.429 1_565 S
C444 C427 1.574 . S
C444 H438 0.949 . S
C444 C448 1.368 . S
C445 C426 1.429 1_545 S
C445 C439 1.429 . S
C445 C446 1.523 . S
C446 C427 1.368 . S
C446 C440 1.368 1_545 S
C446 C445 1.523 . S
C447 C431 1.429 . S
C447 C443 1.429 1_545 S
C447 C448 1.523 . S
C448 C432 1.368 1_545 S
C448 C444 1.368 . S
C448 C447 1.523 . S
H449 C424 0.950 . S
H450 C426 0.950 . S
H451 C427 0.949 . S
H452 C429 0.950 . S
H453 C431 0.950 . S
C454 C455 1.349 . S
C454 C456 1.327 . S
C454 H479 0.950 . S
C455 C454 1.349 . S
C455 C471 1.349 . S
C456 C454 1.327 . S
C456 C475 1.429 . S
C456 H480 0.950 . S
C457 C474 1.574 . S
C457 C476 1.368 . S
C457 H481 0.949 . S
H458 C462 0.949 . S
C459 C460 1.349 . S
C459 C461 1.327 . S
C459 H482 0.950 . S
C460 C459 1.349 . S
C460 C472 1.349 . S
C461 C459 1.327 . S
C461 C477 1.429 . S
C461 H483 0.950 . S
C462 H458 0.949 . S
C462 C470 1.574 . S
C462 C478 1.368 . S
H463 C471 0.950 . S
H464 C469 0.950 . S
H465 C470 0.949 . S
H466 C472 0.950 . S
H467 C473 0.950 . S
H468 C474 0.949 . S
C469 H464 0.950 . S
C469 C471 1.327 . S
C469 C475 1.429 . S
C470 C462 1.574 . S
C470 H465 0.949 . S
C470 C476 1.368 . S
C471 C455 1.349 . S
C471 H463 0.950 . S
C471 C469 1.327 . S
C472 C460 1.349 . S
C472 H466 0.950 . S
C472 C473 1.327 . S
C473 H467 0.950 . S
C473 C472 1.327 . S
C473 C477 1.429 . S
C474 C457 1.574 . S
C474 H468 0.949 . S
C474 C478 1.368 . S
C475 C456 1.429 . S
C475 C469 1.429 . S
C475 C476 1.523 . S
C476 C457 1.368 . S
C476 C470 1.368 . S
C476 C475 1.523 . S
C477 C461 1.429 . S
C477 C473 1.429 . S
C477 C478 1.523 . S
C478 C462 1.368 . S
C478 C474 1.368 . S
C478 C477 1.523 . S
H479 C454 0.950 . S
H480 C456 0.950 . S
H481 C457 0.949 . S
H482 C459 0.950 . S
H483 C461 0.950 . S
C484 C485 1.349 1_565 S
C484 C486 1.327 . S
C484 H509 0.950 . S
C485 C484 1.349 1_545 S
C485 C501 1.349 . S
C486 C484 1.327 . S
C486 C505 1.429 1_565 S
C486 H510 0.950 . S
C487 C504 1.574 . S
C487 C506 1.368 . S
C487 H511 0.949 . S
H488 C492 0.949 . S
C489 C490 1.349 . S
C489 C491 1.327 . S
C489 H512 0.950 . S
C490 C489 1.349 . S
C490 C502 1.349 1_545 S
C491 C489 1.327 . S
C491 C507 1.429 . S
C491 H513 0.950 . S
C492 H488 0.949 . S
C492 C500 1.574 . S
C492 C508 1.368 1_565 S
H493 C501 0.950 . S
H494 C499 0.950 . S
H495 C500 0.949 . S
H496 C502 0.950 . S
H497 C503 0.950 . S
H498 C504 0.949 . S
C499 H494 0.950 . S
C499 C501 1.327 . S
C499 C505 1.429 . S
C500 C492 1.574 . S
C500 H495 0.949 . S
C500 C506 1.368 1_565 S
C501 C485 1.349 . S
C501 H493 0.950 . S
C501 C499 1.327 . S
C502 C490 1.349 1_565 S
C502 H496 0.950 . S
C502 C503 1.327 . S
C503 H497 0.950 . S
C503 C502 1.327 . S
C503 C507 1.429 1_565 S
C504 C487 1.574 . S
C504 H498 0.949 . S
C504 C508 1.368 . S
C505 C486 1.429 1_545 S
C505 C499 1.429 . S
C505 C506 1.523 . S
C506 C487 1.368 . S
C506 C500 1.368 1_545 S
C506 C505 1.523 . S
C507 C491 1.429 . S
C507 C503 1.429 1_545 S
C507 C508 1.523 . S
C508 C492 1.368 1_545 S
C508 C504 1.368 . S
C508 C507 1.523 . S
H509 C484 0.950 . S
H510 C486 0.950 . S
H511 C487 0.949 . S
H512 C489 0.950 . S
H513 C491 0.950 . S
C514 C515 1.349 . S
C514 C516 1.327 . S
C514 H539 0.950 . S
C515 C514 1.349 . S
C515 C531 1.349 1_455 S
C516 C514 1.327 . S
C516 C535 1.429 . S
C516 H540 0.950 . S
C517 C534 1.574 . S
C517 C536 1.368 1_655 S
C517 H541 0.949 . S
H518 C522 0.949 . S
C519 C520 1.349 1_655 S
C519 C521 1.327 . S
C519 H542 0.950 . S
C520 C519 1.349 1_455 S
C520 C532 1.349 . S
C521 C519 1.327 . S
C521 C537 1.429 1_655 S
C521 H543 0.950 . S
C522 H518 0.949 . S
C522 C530 1.574 . S
C522 C538 1.368 . S
H523 C531 0.950 . S
H524 C529 0.950 . S
H525 C530 0.949 . S
H526 C532 0.950 . S
H527 C533 0.950 . S
H528 C534 0.949 . S
C529 H524 0.950 . S
C529 C531 1.327 . S
C529 C535 1.429 1_655 S
C530 C522 1.574 . S
C530 H525 0.949 . S
C530 C536 1.368 . S
C531 C515 1.349 1_655 S
C531 H523 0.950 . S
C531 C529 1.327 . S
C532 C520 1.349 . S
C532 H526 0.950 . S
C532 C533 1.327 . S
C533 H527 0.950 . S
C533 C532 1.327 . S
C533 C537 1.429 . S
C534 C517 1.574 . S
C534 H528 0.949 . S
C534 C538 1.368 1_655 S
C535 C516 1.429 . S
C535 C529 1.429 1_455 S
C535 C536 1.523 . S
C536 C517 1.368 1_455 S
C536 C530 1.368 . S
C536 C535 1.523 . S
C537 C521 1.429 1_455 S
C537 C533 1.429 . S
C537 C538 1.523 . S
C538 C522 1.368 . S
C538 C534 1.368 1_455 S
C538 C537 1.523 . S
H539 C514 0.950 . S
H540 C516 0.950 . S
H541 C517 0.949 . S
H542 C519 0.950 . S
H543 C521 0.950 . S
C544 C545 1.349 . S
C544 C546 1.327 . S
C544 H569 0.950 . S
C545 C544 1.349 . S
C545 C561 1.349 1_545 S
C546 C544 1.327 . S
C546 C565 1.449 . S
C546 H570 0.950 . S
C547 C564 1.574 . S
C547 C566 1.367 1_565 S
C547 H571 0.949 . S
H548 C552 0.949 . S
C549 C550 1.349 . S
C549 C551 1.327 . S
C549 H572 0.950 . S
C550 C549 1.349 . S
C550 C562 1.349 1_565 S
C551 C549 1.327 . S
C551 C567 1.429 . S
C551 H573 0.950 . S
C552 H548 0.949 . S
C552 C560 1.574 . S
C552 C568 1.368 1_545 S
H553 C561 0.950 . S
H554 C559 0.950 . S
H555 C560 0.949 . S
H556 C562 0.950 . S
H557 C563 0.950 . S
H558 C564 0.949 . S
C559 H554 0.950 . S
C559 C561 1.327 . S
C559 C565 1.409 1_565 S
C560 C552 1.574 . S
C560 H555 0.949 . S
C560 C566 1.370 . S
C561 C545 1.349 1_565 S
C561 H553 0.950 . S
C561 C559 1.327 . S
C562 C550 1.349 1_545 S
C562 H556 0.950 . S
C562 C563 1.327 . S
C563 H557 0.950 . S
C563 C562 1.327 . S
C563 C567 1.429 1_545 S
C564 C547 1.574 . S
C564 H558 0.949 . S
C564 C568 1.368 . S
C565 C546 1.449 . S
C565 C559 1.409 1_545 S
C565 C566 1.522 . S
C566 C547 1.367 1_545 S
C566 C560 1.370 . S
C566 C565 1.522 . S
C567 C551 1.429 . S
C567 C563 1.429 1_565 S
C567 C568 1.523 . S
C568 C552 1.368 1_565 S
C568 C564 1.368 . S
C568 C567 1.523 . S
H569 C544 0.950 . S
H570 C546 0.950 . S
H571 C547 0.949 . S
H572 C549 0.950 . S
H573 C551 0.950 . S
C574 C575 1.349 . S
C574 C576 1.327 . S
C574 H599 0.950 . S
C575 C574 1.349 . S
C575 C591 1.349 . S
C576 C574 1.327 . S
C576 C595 1.429 . S
C576 H600 0.950 . S
C577 C594 1.574 . S
C577 C596 1.368 . S
C577 H601 0.949 . S
H578 C582 0.949 . S
C579 C580 1.349 . S
C579 C581 1.327 . S
C579 H602 0.950 . S
C580 C579 1.349 . S
C580 C592 1.349 . S
C581 C579 1.327 . S
C581 C597 1.429 . S
C581 H603 0.950 . S
C582 H578 0.949 . S
C582 C590 1.574 . S
C582 C598 1.368 . S
H583 C591 0.950 . S
H584 C589 0.950 . S
H585 C590 0.949 . S
H586 C592 0.950 . S
H587 C593 0.950 . S
H588 C594 0.949 . S
C589 H584 0.950 . S
C589 C591 1.327 . S
C589 C595 1.429 . S
C590 C582 1.574 . S
C590 H585 0.949 . S
C590 C596 1.368 . S
C591 C575 1.349 . S
C591 H583 0.950 . S
C591 C589 1.327 . S
C592 C580 1.349 . S
C592 H586 0.950 . S
C592 C593 1.327 . S
C593 H587 0.950 . S
C593 C592 1.327 . S
C593 C597 1.429 . S
C594 C577 1.574 . S
C594 H588 0.949 . S
C594 C598 1.368 . S
C595 C576 1.429 . S
C595 C589 1.429 . S
C595 C596 1.523 . S
C596 C577 1.368 . S
C596 C590 1.368 . S
C596 C595 1.523 . S
C597 C581 1.429 . S
C597 C593 1.429 . S
C597 C598 1.523 . S
C598 C582 1.368 . S
C598 C594 1.368 . S
C598 C597 1.523 . S
H599 C574 0.950 . S
H600 C576 0.950 . S
H601 C577 0.949 . S
H602 C579 0.950 . S
H603 C581 0.950 . S
C604 C605 1.349 1_565 S
C604 C606 1.327 . S
C604 H629 0.950 . S
C605 C604 1.349 1_545 S
C605 C621 1.349 . S
C606 C604 1.327 . S
C606 C625 1.429 1_565 S
C606 H630 0.950 . S
C607 C624 1.574 . S
C607 C626 1.368 . S
C607 H631 0.949 . S
H608 C612 0.949 . S
C609 C610 1.349 . S
C609 C611 1.327 . S
C609 H632 0.950 . S
C610 C609 1.349 . S
C610 C622 1.349 1_545 S
C611 C609 1.327 . S
C611 C627 1.429 . S
C611 H633 0.950 . S
C612 H608 0.949 . S
C612 C620 1.574 . S
C612 C628 1.368 1_565 S
H613 C621 0.950 . S
H614 C619 0.950 . S
H615 C620 0.949 . S
H616 C622 0.950 . S
H617 C623 0.950 . S
H618 C624 0.949 . S
C619 H614 0.950 . S
C619 C621 1.327 . S
C619 C625 1.429 . S
C620 C612 1.574 . S
C620 H615 0.949 . S
C620 C626 1.368 1_565 S
C621 C605 1.349 . S
C621 H613 0.950 . S
C621 C619 1.327 . S
C622 C610 1.349 1_565 S
C622 H616 0.950 . S
C622 C623 1.327 . S
C623 H617 0.950 . S
C623 C622 1.327 . S
C623 C627 1.429 1_565 S
C624 C607 1.574 . S
C624 H618 0.949 . S
C624 C628 1.368 . S
C625 C606 1.429 1_545 S
C625 C619 1.429 . S
C625 C626 1.523 . S
C626 C607 1.368 . S
C626 C620 1.368 1_545 S
C626 C625 1.523 . S
C627 C611 1.429 . S
C627 C623 1.429 1_545 S
C627 C628 1.523 . S
C628 C612 1.368 1_545 S
C628 C624 1.368 . S
C628 C627 1.523 . S
H629 C604 0.950 . S
H630 C606 0.950 . S
H631 C607 0.949 . S
H632 C609 0.950 . S
H633 C611 0.950 . S
C634 C635 1.349 1_556 S
C634 C636 1.327 . S
C634 H659 0.950 . S
C635 C634 1.349 1_554 S
C635 C651 1.349 . S
C636 C634 1.327 . S
C636 C655 1.429 1_556 S
C636 H660 0.950 . S
C637 C654 1.574 . S
C637 C656 1.368 . S
C637 H661 0.949 . S
H638 C642 0.949 . S
C639 C640 1.349 . S
C639 C641 1.327 . S
C639 H662 0.950 . S
C640 C639 1.349 . S
C640 C652 1.349 1_554 S
C641 C639 1.327 . S
C641 C657 1.429 . S
C641 H663 0.950 . S
C642 H638 0.949 . S
C642 C650 1.574 . S
C642 C658 1.368 1_556 S
H643 C651 0.950 . S
H644 C649 0.950 . S
H645 C650 0.949 . S
H646 C652 0.950 . S
H647 C653 0.950 . S
H648 C654 0.949 . S
C649 H644 0.950 . S
C649 C651 1.327 . S
C649 C655 1.429 . S
C650 C642 1.574 . S
C650 H645 0.949 . S
C650 C656 1.368 1_556 S
C651 C635 1.349 . S
C651 H643 0.950 . S
C651 C649 1.327 . S
C652 C640 1.349 1_556 S
C652 H646 0.950 . S
C652 C653 1.327 . S
C653 H647 0.950 . S
C653 C652 1.327 . S
C653 C657 1.429 1_556 S
C654 C637 1.574 . S
C654 H648 0.949 . S
C654 C658 1.368 . S
C655 C636 1.429 1_554 S
C655 C649 1.429 . S
C655 C656 1.523 . S
C656 C637 1.368 . S
C656 C650 1.368 1_554 S
C656 C655 1.523 . S
C657 C641 1.429 . S
C657 C653 1.429 1_554 S
C657 C658 1.523 . S
C658 C642 1.368 1_554 S
C658 C654 1.368 . S
C658 C657 1.523 . S
H659 C634 0.950 . S
H660 C636 0.950 . S
H661 C637 0.949 . S
H662 C639 0.950 . S
H663 C641 0.950 . S
C664 C665 1.349 . S
C664 C666 1.329 . S
C664 H689 0.950 1_554 S
C665 C664 1.349 . S
C665 C681 1.349 . S
C666 C664 1.329 . S
C666 C685 1.442 . S
C666 H690 0.934 1_554 S
C667 C684 1.574 . S
C667 C686 1.368 . S
C667 H691 0.949 . S
H668 C672 0.949 . S
C669 C670 1.349 . S
C669 C671 1.327 . S
C669 H692 0.950 . S
C670 C669 1.349 . S
C670 C682 1.349 1_554 S
C671 C669 1.327 . S
C671 C687 1.429 . S
C671 H693 0.950 . S
C672 H668 0.949 . S
C672 C680 1.574 . S
C672 C688 1.368 1_556 S
H673 C681 0.950 . S
H674 C679 0.950 . S
H675 C680 0.949 . S
H676 C682 0.950 . S
H677 C683 0.950 . S
H678 C684 0.949 . S
C679 H674 0.950 . S
C679 C681 1.327 . S
C679 C685 1.429 . S
C680 C672 1.574 . S
C680 H675 0.949 . S
C680 C686 1.368 1_556 S
C681 C665 1.349 . S
C681 H673 0.950 . S
C681 C679 1.327 . S
C682 C670 1.349 1_556 S
C682 H676 0.950 . S
C682 C683 1.327 . S
C683 H677 0.950 . S
C683 C682 1.327 . S
C683 C687 1.429 1_556 S
C684 C667 1.574 . S
C684 H678 0.949 . S
C684 C688 1.368 . S
C685 C666 1.442 . S
C685 C679 1.429 . S
C685 C686 1.523 . S
C686 C667 1.368 . S
C686 C680 1.368 1_554 S
C686 C685 1.523 . S
C687 C671 1.429 . S
C687 C683 1.429 1_554 S
C687 C688 1.523 . S
C688 C672 1.368 1_554 S
C688 C684 1.368 . S
C688 C687 1.523 . S
H689 C664 0.950 1_556 S
H690 C666 0.934 1_556 S
H691 C667 0.949 . S
H692 C669 0.950 . S
H693 C671 0.950 . S
C694 C695 1.349 . S
C694 C696 1.328 . S
C694 H719 0.950 1_554 S
C695 C694 1.349 . S
C695 C711 1.349 . S
C696 C694 1.328 . S
C696 C715 1.441 . S
C696 H720 0.937 1_554 S
C697 C714 1.574 . S
C697 C716 1.368 . S
C697 H721 0.949 . S
H698 C702 0.949 . S
C699 C700 1.349 . S
C699 C701 1.327 . S
C699 H722 0.950 . S
C700 C699 1.349 . S
C700 C712 1.349 1_554 S
C701 C699 1.327 . S
C701 C717 1.429 . S
C701 H723 0.950 . S
C702 H698 0.949 . S
C702 C710 1.574 . S
C702 C718 1.368 1_556 S
H703 C711 0.950 . S
H704 C709 0.950 . S
H705 C710 0.949 . S
H706 C712 0.950 . S
H707 C713 0.950 . S
H708 C714 0.949 . S
C709 H704 0.950 . S
C709 C711 1.327 . S
C709 C715 1.429 . S
C710 C702 1.574 . S
C710 H705 0.949 . S
C710 C716 1.368 1_556 S
C711 C695 1.349 . S
C711 H703 0.950 . S
C711 C709 1.327 . S
C712 C700 1.349 1_556 S
C712 H706 0.950 . S
C712 C713 1.327 . S
C713 H707 0.950 . S
C713 C712 1.327 . S
C713 C717 1.429 1_556 S
C714 C697 1.574 . S
C714 H708 0.949 . S
C714 C718 1.368 . S
C715 C696 1.441 . S
C715 C709 1.429 . S
C715 C716 1.523 . S
C716 C697 1.368 . S
C716 C710 1.368 1_554 S
C716 C715 1.523 . S
C717 C701 1.429 . S
C717 C713 1.429 1_554 S
C717 C718 1.523 . S
C718 C702 1.368 1_554 S
C718 C714 1.368 . S
C718 C717 1.523 . S
H719 C694 0.950 1_556 S
H720 C696 0.937 1_556 S
H721 C697 0.949 . S
H722 C699 0.950 . S
H723 C701 0.950 . S
C724 C725 1.349 . S
C724 C726 1.327 . S
C724 H749 0.950 . S
C725 C724 1.349 . S
C725 C741 1.349 1_554 S
C726 C724 1.327 . S
C726 C745 1.429 . S
C726 H750 0.950 . S
C727 C744 1.574 . S
C727 C746 1.368 1_556 S
C727 H751 0.949 . S
H728 C732 0.949 . S
C729 C730 1.349 1_556 S
C729 C731 1.327 . S
C729 H752 0.950 . S
C730 C729 1.349 1_554 S
C730 C742 1.349 . S
C731 C729 1.327 . S
C731 C747 1.429 1_556 S
C731 H753 0.950 . S
C732 H728 0.949 . S
C732 C740 1.574 . S
C732 C748 1.368 . S
H733 C741 0.950 . S
H734 C739 0.950 . S
H735 C740 0.949 . S
H736 C742 0.950 . S
H737 C743 0.950 . S
H738 C744 0.949 . S
C739 H734 0.950 . S
C739 C741 1.327 . S
C739 C745 1.429 1_556 S
C740 C732 1.574 . S
C740 H735 0.949 . S
C740 C746 1.368 . S
C741 C725 1.349 1_556 S
C741 H733 0.950 . S
C741 C739 1.327 . S
C742 C730 1.349 . S
C742 H736 0.950 . S
C742 C743 1.327 . S
C743 H737 0.950 . S
C743 C742 1.327 . S
C743 C747 1.429 . S
C744 C727 1.574 . S
C744 H738 0.949 . S
C744 C748 1.368 1_556 S
C745 C726 1.429 . S
C745 C739 1.429 1_554 S
C745 C746 1.523 . S
C746 C727 1.368 1_554 S
C746 C740 1.368 . S
C746 C745 1.523 . S
C747 C731 1.429 1_554 S
C747 C743 1.429 . S
C747 C748 1.523 . S
C748 C732 1.368 . S
C748 C744 1.368 1_554 S
C748 C747 1.523 . S
H749 C724 0.950 . S
H750 C726 0.950 . S
H751 C727 0.949 . S
H752 C729 0.950 . S
H753 C731 0.950 . S
C400 C378 1.643 . S
C395 C11 1.008 1_455 S
C430 C374 1.601 . S
C425 C143 1.392 . S
C460 C384 1.392 . S
C455 C1 1.106 . S
C490 C368 1.760 . S
C485 C169 1.405 . S
C515 C29 1.437 . S
C520 C360 1.623 . S
C550 C392 1.880 1_565 S
C545 C125 1.191 1_545 S
C575 C55 1.467 . S
C580 C346 1.790 . S
C605 C115 1.298 . S
C610 C390 1.623 . S
C635 C283 0.859 . S
C640 C372 1.076 . S
C665 C239 0.706 . S
C670 C387 1.079 . S
C700 C381 0.935 . S
C695 C257 0.846 . S
C730 C376 0.825 . S
C725 C229 0.770 . S
