# Generated by pormake.
# Topology ptr, (4,4)-cn, num edge types: 1
# Building blocks:
#     Node 0, Type 0, BuildingBlock: AZAVOO_clean_sbu_0, # of connection points: 4
#     Node 1, Type 0, BuildingBlock: AZAVOO_clean_sbu_0, # of connection points: 4
#     Node 2, Type 0, BuildingBlock: AZAVOO_clean_sbu_0, # of connection points: 4
#     Node 3, Type 0, BuildingBlock: AZAVOO_clean_sbu_0, # of connection points: 4
#     Node 4, Type 0, BuildingBlock: AZAVOO_clean_sbu_0, # of connection points: 4
#     Node 5, Type 0, BuildingBlock: AZAVOO_clean_sbu_0, # of connection points: 4
#     Node 6, Type 0, BuildingBlock: AZAVOO_clean_sbu_0, # of connection points: 4
#     Node 7, Type 0, BuildingBlock: AZAVOO_clean_sbu_0, # of connection points: 4
#     Node 8, Type 0, BuildingBlock: AZAVOO_clean_sbu_0, # of connection points: 4
#     Node 9, Type 0, BuildingBlock: AZAVOO_clean_sbu_0, # of connection points: 4
#     Node 10, Type 0, BuildingBlock: AZAVOO_clean_sbu_0, # of connection points: 4
#     Node 11, Type 0, BuildingBlock: AZAVOO_clean_sbu_0, # of connection points: 4
#     Node 12, Type 0, BuildingBlock: AZAVOO_clean_sbu_0, # of connection points: 4
#     Node 13, Type 0, BuildingBlock: AZAVOO_clean_sbu_0, # of connection points: 4
#     Node 14, Type 0, BuildingBlock: AZAVOO_clean_sbu_0, # of connection points: 4
#     Node 15, Type 0, BuildingBlock: AZAVOO_clean_sbu_0, # of connection points: 4
#     Node 16, Type 0, BuildingBlock: AZAVOO_clean_sbu_0, # of connection points: 4
#     Node 17, Type 0, BuildingBlock: AZAVOO_clean_sbu_0, # of connection points: 4
#     Node 18, Type 1, BuildingBlock: NAWXER_clean_linker_0, # of connection points: 4
#     Node 19, Type 1, BuildingBlock: NAWXER_clean_linker_0, # of connection points: 4
#     Node 20, Type 1, BuildingBlock: NAWXER_clean_linker_0, # of connection points: 4
#     Node 21, Type 1, BuildingBlock: NAWXER_clean_linker_0, # of connection points: 4
#     Node 22, Type 1, BuildingBlock: NAWXER_clean_linker_0, # of connection points: 4
#     Node 23, Type 1, BuildingBlock: NAWXER_clean_linker_0, # of connection points: 4
#     Node 24, Type 1, BuildingBlock: NAWXER_clean_linker_0, # of connection points: 4
#     Node 25, Type 1, BuildingBlock: NAWXER_clean_linker_0, # of connection points: 4
#     Node 26, Type 1, BuildingBlock: NAWXER_clean_linker_0, # of connection points: 4
#     Node 27, Type 1, BuildingBlock: NAWXER_clean_linker_0, # of connection points: 4
#     Node 28, Type 1, BuildingBlock: NAWXER_clean_linker_0, # of connection points: 4
#     Node 29, Type 1, BuildingBlock: NAWXER_clean_linker_0, # of connection points: 4
#     Node 30, Type 1, BuildingBlock: NAWXER_clean_linker_0, # of connection points: 4
#     Node 31, Type 1, BuildingBlock: NAWXER_clean_linker_0, # of connection points: 4
#     Node 32, Type 1, BuildingBlock: NAWXER_clean_linker_0, # of connection points: 4
#     Node 33, Type 1, BuildingBlock: NAWXER_clean_linker_0, # of connection points: 4
#     Node 34, Type 1, BuildingBlock: NAWXER_clean_linker_0, # of connection points: 4
#     Node 35, Type 1, BuildingBlock: NAWXER_clean_linker_0, # of connection points: 4
#     Edge 36, Type (0, 1), BuildingBlock: UVAHIK_clean_linker_0, # of connection points: 2
#     Edge 37, Type (0, 1), BuildingBlock: UVAHIK_clean_linker_0, # of connection points: 2
#     Edge 38, Type (0, 1), BuildingBlock: UVAHIK_clean_linker_0, # of connection points: 2
#     Edge 39, Type (0, 1), BuildingBlock: UVAHIK_clean_linker_0, # of connection points: 2
#     Edge 40, Type (0, 1), BuildingBlock: UVAHIK_clean_linker_0, # of connection points: 2
#     Edge 41, Type (0, 1), BuildingBlock: UVAHIK_clean_linker_0, # of connection points: 2
#     Edge 42, Type (0, 1), BuildingBlock: UVAHIK_clean_linker_0, # of connection points: 2
#     Edge 43, Type (0, 1), BuildingBlock: UVAHIK_clean_linker_0, # of connection points: 2
#     Edge 44, Type (0, 1), BuildingBlock: UVAHIK_clean_linker_0, # of connection points: 2
#     Edge 45, Type (0, 1), BuildingBlock: UVAHIK_clean_linker_0, # of connection points: 2
#     Edge 46, Type (0, 1), BuildingBlock: UVAHIK_clean_linker_0, # of connection points: 2
#     Edge 47, Type (0, 1), BuildingBlock: UVAHIK_clean_linker_0, # of connection points: 2
#     Edge 48, Type (0, 1), BuildingBlock: UVAHIK_clean_linker_0, # of connection points: 2
#     Edge 49, Type (0, 1), BuildingBlock: UVAHIK_clean_linker_0, # of connection points: 2
#     Edge 50, Type (0, 1), BuildingBlock: UVAHIK_clean_linker_0, # of connection points: 2
#     Edge 51, Type (0, 1), BuildingBlock: UVAHIK_clean_linker_0, # of connection points: 2
#     Edge 52, Type (0, 1), BuildingBlock: UVAHIK_clean_linker_0, # of connection points: 2
#     Edge 53, Type (0, 1), BuildingBlock: UVAHIK_clean_linker_0, # of connection points: 2
#     Edge 54, Type (0, 1), BuildingBlock: UVAHIK_clean_linker_0, # of connection points: 2
#     Edge 55, Type (0, 1), BuildingBlock: UVAHIK_clean_linker_0, # of connection points: 2
#     Edge 56, Type (0, 1), BuildingBlock: UVAHIK_clean_linker_0, # of connection points: 2
#     Edge 57, Type (0, 1), BuildingBlock: UVAHIK_clean_linker_0, # of connection points: 2
#     Edge 58, Type (0, 1), BuildingBlock: UVAHIK_clean_linker_0, # of connection points: 2
#     Edge 59, Type (0, 1), BuildingBlock: UVAHIK_clean_linker_0, # of connection points: 2
#     Edge 60, Type (0, 1), BuildingBlock: UVAHIK_clean_linker_0, # of connection points: 2
#     Edge 61, Type (0, 1), BuildingBlock: UVAHIK_clean_linker_0, # of connection points: 2
#     Edge 62, Type (0, 1), BuildingBlock: UVAHIK_clean_linker_0, # of connection points: 2
#     Edge 63, Type (0, 1), BuildingBlock: UVAHIK_clean_linker_0, # of connection points: 2
#     Edge 64, Type (0, 1), BuildingBlock: UVAHIK_clean_linker_0, # of connection points: 2
#     Edge 65, Type (0, 1), BuildingBlock: UVAHIK_clean_linker_0, # of connection points: 2
#     Edge 66, Type (0, 1), BuildingBlock: UVAHIK_clean_linker_0, # of connection points: 2
#     Edge 67, Type (0, 1), BuildingBlock: UVAHIK_clean_linker_0, # of connection points: 2
#     Edge 68, Type (0, 1), BuildingBlock: UVAHIK_clean_linker_0, # of connection points: 2
#     Edge 69, Type (0, 1), BuildingBlock: UVAHIK_clean_linker_0, # of connection points: 2
#     Edge 70, Type (0, 1), BuildingBlock: UVAHIK_clean_linker_0, # of connection points: 2
#     Edge 71, Type (0, 1), BuildingBlock: UVAHIK_clean_linker_0, # of connection points: 2
#     Edge 72, Type (0, 1), BuildingBlock: UVAHIK_clean_linker_0, # of connection points: 2
#     Edge 73, Type (0, 1), BuildingBlock: UVAHIK_clean_linker_0, # of connection points: 2
#     Edge 74, Type (0, 1), BuildingBlock: UVAHIK_clean_linker_0, # of connection points: 2
#     Edge 75, Type (0, 1), BuildingBlock: UVAHIK_clean_linker_0, # of connection points: 2
#     Edge 76, Type (0, 1), BuildingBlock: UVAHIK_clean_linker_0, # of connection points: 2
#     Edge 77, Type (0, 1), BuildingBlock: UVAHIK_clean_linker_0, # of connection points: 2
#     Edge 78, Type (0, 1), BuildingBlock: UVAHIK_clean_linker_0, # of connection points: 2
#     Edge 79, Type (0, 1), BuildingBlock: UVAHIK_clean_linker_0, # of connection points: 2
#     Edge 80, Type (0, 1), BuildingBlock: UVAHIK_clean_linker_0, # of connection points: 2
#     Edge 81, Type (0, 1), BuildingBlock: UVAHIK_clean_linker_0, # of connection points: 2
#     Edge 82, Type (0, 1), BuildingBlock: UVAHIK_clean_linker_0, # of connection points: 2
#     Edge 83, Type (0, 1), BuildingBlock: UVAHIK_clean_linker_0, # of connection points: 2
#     Edge 84, Type (0, 1), BuildingBlock: UVAHIK_clean_linker_0, # of connection points: 2
#     Edge 85, Type (0, 1), BuildingBlock: UVAHIK_clean_linker_0, # of connection points: 2
#     Edge 86, Type (0, 1), BuildingBlock: UVAHIK_clean_linker_0, # of connection points: 2
#     Edge 87, Type (0, 1), BuildingBlock: UVAHIK_clean_linker_0, # of connection points: 2
#     Edge 88, Type (0, 1), BuildingBlock: UVAHIK_clean_linker_0, # of connection points: 2
#     Edge 89, Type (0, 1), BuildingBlock: UVAHIK_clean_linker_0, # of connection points: 2
#     Edge 90, Type (0, 1), BuildingBlock: UVAHIK_clean_linker_0, # of connection points: 2
#     Edge 91, Type (0, 1), BuildingBlock: UVAHIK_clean_linker_0, # of connection points: 2
#     Edge 92, Type (0, 1), BuildingBlock: UVAHIK_clean_linker_0, # of connection points: 2
#     Edge 93, Type (0, 1), BuildingBlock: UVAHIK_clean_linker_0, # of connection points: 2
#     Edge 94, Type (0, 1), BuildingBlock: UVAHIK_clean_linker_0, # of connection points: 2
#     Edge 95, Type (0, 1), BuildingBlock: UVAHIK_clean_linker_0, # of connection points: 2
#     Edge 96, Type (0, 1), BuildingBlock: UVAHIK_clean_linker_0, # of connection points: 2
#     Edge 97, Type (0, 1), BuildingBlock: UVAHIK_clean_linker_0, # of connection points: 2
#     Edge 98, Type (0, 1), BuildingBlock: UVAHIK_clean_linker_0, # of connection points: 2
#     Edge 99, Type (0, 1), BuildingBlock: UVAHIK_clean_linker_0, # of connection points: 2
#     Edge 100, Type (0, 1), BuildingBlock: UVAHIK_clean_linker_0, # of connection points: 2
#     Edge 101, Type (0, 1), BuildingBlock: UVAHIK_clean_linker_0, # of connection points: 2
#     Edge 102, Type (0, 1), BuildingBlock: UVAHIK_clean_linker_0, # of connection points: 2
#     Edge 103, Type (0, 1), BuildingBlock: UVAHIK_clean_linker_0, # of connection points: 2
#     Edge 104, Type (0, 1), BuildingBlock: UVAHIK_clean_linker_0, # of connection points: 2
#     Edge 105, Type (0, 1), BuildingBlock: UVAHIK_clean_linker_0, # of connection points: 2
#     Edge 106, Type (0, 1), BuildingBlock: UVAHIK_clean_linker_0, # of connection points: 2
#     Edge 107, Type (0, 1), BuildingBlock: UVAHIK_clean_linker_0, # of connection points: 2
# Relax obj value: 0.082
# Max RMSD: 0.297
# Mean RMSD: 0.120
data_MOF--net-ptr--node1-AZAVOO_clean_sbu_0--node2-NAWXER_clean_linker_0--edge1-UVAHIK_clean_linker_0
_symmetry_space_group_name_H-M    P1
_symmetry_Int_Tables_number       1
_symmetry_cell_setting            triclinic
loop_
_symmetry_equiv_pos_as_xyz
'x, y, z'
_cell_length_a     109.28625
_cell_length_b     107.42387
_cell_length_c     76.900086
_cell_angle_alpha  91.059816
_cell_angle_beta   90.743874
_cell_angle_gamma 120.11766
loop_
_atom_site_label
_atom_site_type_symbol
_atom_site_fract_x
_atom_site_fract_y
_atom_site_fract_z
_atom_type_partial_charge
Mg0 Mg 0.01615 0.33568 0.98121 0.0
O1 O 0.00546 0.3419 0.0026 0.0
O2 O 0.98788 0.34358 0.9898 0.0
Mg3 Mg 0.98761 0.33909 0.96064 0.0
C4 C 0.99516 0.34433 0.00331 0.0
C5 C 0.03684 0.33852 0.01184 0.0
O6 O 0.04047 0.35213 0.01082 0.0
O7 O 0.99753 0.31267 0.97923 0.0
O8 O 0.98101 0.3155 0.96545 0.0
O9 O 0.03087 0.35903 0.97666 0.0
O10 O 0.01028 0.34591 0.96286 0.0
C11 C 0.98522 0.30748 0.97221 0.0
C12 C 0.02134 0.35835 0.96585 0.0
O13 O 0.02711 0.32927 0.0017 0.0
Mg14 Mg 0.6638 0.65761 0.03751 0.0
O15 O 0.64483 0.65132 0.01901 0.0
O16 O 0.62607 0.64599 0.03514 0.0
Mg17 Mg 0.63317 0.64916 0.06383 0.0
C18 C 0.63173 0.64726 0.02037 0.0
C19 C 0.67932 0.65958 0.00252 0.0
O20 O 0.67039 0.64565 0.00174 0.0
O21 O 0.66582 0.67927 0.04357 0.0
O22 O 0.64735 0.67366 0.06042 0.0
O23 O 0.65794 0.63454 0.03847 0.0
O24 O 0.65047 0.64522 0.05687 0.0
C25 C 0.6585 0.68293 0.05287 0.0
C26 C 0.65014 0.63364 0.05148 0.0
O27 O 0.67887 0.66707 0.01521 0.0
Mg28 Mg 0.33058 0.97876 0.98374 0.0
O29 O 0.34659 0.98918 0.00653 0.0
O30 O 0.36688 0.00664 0.99625 0.0
Mg31 Mg 0.36403 0.00693 0.96684 0.0
C32 C 0.35939 -0.00072 0.00882 0.0
C33 C 0.31262 0.96073 0.01501 0.0
O34 O 0.32262 0.95735 0.01594 0.0
O35 O 0.32763 0.99823 0.98183 0.0
O36 O 0.34799 0.01451 0.97038 0.0
O37 O 0.33811 0.96307 0.9794 0.0
O38 O 0.34704 0.98409 0.9668 0.0
C39 C 0.33565 0.0107 0.97587 0.0
C40 C 0.34754 0.97255 0.96947 0.0
O41 O 0.3129 0.96888 0.00308 0.0
Mg42 Mg 0.99731 0.67088 0.0319 0.0
O43 O 0.00643 0.66385 0.00945 0.0
O44 O 0.02264 0.65933 0.02095 0.0
Mg45 Mg 0.0236 0.66292 0.0504 0.0
C46 C 0.01569 0.65999 0.00788 0.0
C47 C 0.97862 0.6713 0.00096 0.0
O48 O 0.97521 0.6577 -5e-05 0.0
O49 O 0.01741 0.69288 0.03482 0.0
O50 O 0.03244 0.68715 0.04728 0.0
O51 O 0.98089 0.64782 0.03534 0.0
O52 O 0.0017 0.65875 0.04907 0.0
C53 C 0.02952 0.69648 0.04157 0.0
C54 C 0.98993 0.64705 0.04568 0.0
O55 O 0.9876 0.67953 0.01255 0.0
Mg56 Mg 0.33645 0.34885 0.97127 0.0
O57 O 0.35366 0.35299 0.99171 0.0
O58 O 0.37288 0.35647 0.97772 0.0
Mg59 Mg 0.36821 0.3555 0.94849 0.0
C60 C 0.36639 0.3555 0.99177 0.0
C61 C 0.32034 0.34769 0.00481 0.0
O62 O 0.33056 0.3612 0.00584 0.0
O63 O 0.33292 0.32657 0.96481 0.0
O64 O 0.35191 0.33129 0.9495 0.0
O65 O 0.3438 0.37225 0.97115 0.0
O66 O 0.35202 0.36157 0.9539 0.0
C67 C 0.33999 0.32239 0.95584 0.0
C68 C 0.35268 0.3733 0.95947 0.0
O69 O 0.31986 0.33977 0.99205 0.0
Mg70 Mg 0.66167 0.00492 0.02782 0.0
O71 O 0.64499 0.99306 0.00618 0.0
O72 O 0.62549 0.97548 0.01785 0.0
Mg73 Mg 0.62971 0.97641 0.0472 0.0
C74 C 0.63231 0.98255 0.00473 0.0
C75 C 0.69123 0.0193 0.0122 0.0
O76 O 0.69412 0.01866 0.02869 0.0
O77 O 0.6659 0.98635 0.03013 0.0
O78 O 0.64643 0.96974 0.04295 0.0
O79 O 0.65294 0.01964 0.03201 0.0
O80 O 0.64596 -0.00062 0.04581 0.0
C81 C 0.65865 0.97399 0.03673 0.0
C82 C 0.64447 0.01029 0.04286 0.0
O83 O 0.67849 0.01483 0.00744 0.0
Mg84 Mg 0.67218 0.66568 0.3236 0.0
O85 O 0.66194 0.67291 0.34459 0.0
O86 O 0.64614 0.67687 0.33071 0.0
Mg87 Mg 0.64689 0.67331 0.3015 0.0
C88 C 0.6524 0.67648 0.34465 0.0
C89 C 0.69119 0.66567 0.35439 0.0
O90 O 0.69579 0.67954 0.3538 0.0
O91 O 0.65215 0.6437 0.32014 0.0
O92 O 0.63778 0.64909 0.30531 0.0
O93 O 0.68898 0.68855 0.32031 0.0
O94 O 0.66876 0.67777 0.3053 0.0
C95 C 0.64041 0.63992 0.3122 0.0
C96 C 0.68053 0.68939 0.30905 0.0
O97 O 0.68114 0.65709 0.3441 0.0
Mg98 Mg 0.32864 0.99221 0.37717 0.0
O99 O 0.30918 0.98627 0.35968 0.0
O100 O 0.29127 0.98232 0.37676 0.0
Mg101 Mg 0.29945 0.98635 0.405 0.0
C102 C 0.2963 0.98289 0.36171 0.0
C103 C 0.34048 0.99026 0.34142 0.0
O104 O 0.32963 0.97713 0.34227 0.0
O105 O 0.33202 0.01466 0.3819 0.0
O106 O 0.31422 0.01035 0.39942 0.0
O107 O 0.32171 0.96897 0.37947 0.0
O108 O 0.31579 0.98115 0.39766 0.0
C109 C 0.32519 0.01902 0.3911 0.0
C110 C 0.31461 0.96906 0.39277 0.0
O111 O 0.34268 -0.00067 0.35364 0.0
Mg112 Mg 0.00856 0.32244 0.32137 0.0
O113 O 0.02555 0.33338 0.34303 0.0
O114 O 0.04572 0.34915 0.33071 0.0
Mg115 Mg 0.04187 0.34733 0.30125 0.0
C116 C 0.03861 0.34308 0.34412 0.0
C117 C 0.97924 0.31238 0.33644 0.0
O118 O 0.97687 0.31354 0.31991 0.0
O119 O 0.00754 0.34278 0.31785 0.0
O120 O 0.0274 0.35705 0.30397 0.0
O121 O 0.01376 0.30495 0.31841 0.0
O122 O 0.02393 0.32515 0.3039 0.0
C123 C 0.01566 0.3545 0.31036 0.0
C124 C 0.02318 0.31311 0.30747 0.0
O125 O 0.99147 0.31505 0.34139 0.0
Mg126 Mg 0.65261 0.99017 0.36496 0.0
O127 O 0.66474 0.98348 0.34627 0.0
O128 O 0.68046 0.9807 0.36212 0.0
Mg129 Mg 0.6786 0.98573 0.39058 0.0
C130 C 0.67461 0.98043 0.34753 0.0
C131 C 0.6355 0.98644 0.33069 0.0
O132 O 0.6338 0.97349 0.33194 0.0
O133 O 0.6716 0.01301 0.36763 0.0
O134 O 0.68668 0.00925 0.38353 0.0
O135 O 0.63716 0.96697 0.36913 0.0
O136 O 0.65654 0.97996 0.3853 0.0
C137 C 0.68353 0.01762 0.3755 0.0
C138 C 0.6456 0.96761 0.38154 0.0
O139 O 0.64321 0.99609 0.34205 0.0
Mg140 Mg 0.01018 0.67849 0.31216 0.0
O141 O 0.02857 0.68527 0.33183 0.0
O142 O 0.04823 0.69244 0.31672 0.0
Mg143 Mg 0.04255 0.69113 0.28773 0.0
C144 C 0.04186 0.69003 0.33114 0.0
C145 C 0.98184 0.65764 0.32733 0.0
O146 O 0.97969 0.65522 0.31044 0.0
O147 O 0.0104 0.65804 0.30465 0.0
O148 O 0.02973 0.66638 0.2886 0.0
O149 O 0.01397 0.70091 0.31272 0.0
O150 O 0.0238 0.69271 0.29426 0.0
C151 C 0.01873 0.65597 0.29513 0.0
C152 C 0.02258 0.70333 0.30013 0.0
O153 O 0.99411 0.66695 0.33303 0.0
Mg154 Mg 0.32722 0.34714 0.36146 0.0
O155 O 0.30876 0.33373 0.34215 0.0
O156 O 0.29039 0.31809 0.35747 0.0
Mg157 Mg 0.29677 0.32176 0.38632 0.0
C158 C 0.296 0.32341 0.343 0.0
C159 C 0.35403 0.35466 0.3407 0.0
O160 O 0.3566 0.34987 0.35508 0.0
O161 O 0.33038 0.32799 0.36522 0.0
O162 O 0.31232 0.31356 0.3818 0.0
O163 O 0.32016 0.36329 0.36525 0.0
O164 O 0.31321 0.34404 0.38106 0.0
C165 C 0.32366 0.31658 0.37391 0.0
C166 C 0.31243 0.3553 0.37763 0.0
O167 O 0.34265 0.35509 0.33918 0.0
Mg168 Mg 0.34394 0.00716 0.65617 0.0
O169 O 0.33258 0.01448 0.67528 0.0
O170 O 0.31723 0.01807 0.65975 0.0
Mg171 Mg 0.31897 0.01344 0.63103 0.0
C172 C 0.32305 0.01802 0.67423 0.0
C173 C 0.36131 0.00936 0.68968 0.0
O174 O 0.36436 0.0228 0.68852 0.0
O175 O 0.32432 0.9848 0.65286 0.0
O176 O 0.31002 0.98949 0.63671 0.0
O177 O 0.36018 0.03017 0.65267 0.0
O178 O 0.34076 0.01821 0.63624 0.0
C179 C 0.31265 0.98066 0.64453 0.0
C180 C 0.35202 0.03021 0.64034 0.0
O181 O 0.35266 4e-05 0.67863 0.0
Mg182 Mg 0.9897 0.31914 0.70212 0.0
O183 O 0.97259 0.31247 0.68056 0.0
O184 O 0.95239 0.30732 0.69333 0.0
Mg185 Mg 0.95623 0.3097 0.72276 0.0
C186 C 0.95946 0.3086 0.67973 0.0
C187 C 0.01759 0.34087 0.68299 0.0
O188 O 0.01888 0.34946 0.69614 0.0
O189 O 0.99059 0.34065 0.70643 0.0
O190 O 0.97055 0.33415 0.72039 0.0
O191 O 0.98446 0.29636 0.70436 0.0
O192 O 0.97433 0.3062 0.7196 0.0
C193 C 0.98222 0.3438 0.71422 0.0
C194 C 0.97507 0.29491 0.71548 0.0
O195 O 0.00686 0.32826 0.68188 0.0
Mg196 Mg 0.6827 0.65558 0.65535 0.0
O197 O 0.70019 0.66889 0.67565 0.0
O198 O 0.71879 0.68603 0.66201 0.0
Mg199 Mg 0.71357 0.68267 0.63277 0.0
C200 C 0.7127 0.67976 0.67588 0.0
C201 C 0.66783 0.64061 0.68974 0.0
O202 O 0.67866 0.63851 0.69096 0.0
O203 O 0.6783 0.67385 0.65138 0.0
O204 O 0.69665 0.68922 0.63586 0.0
O205 O 0.69069 0.64024 0.65226 0.0
O206 O 0.69786 0.65979 0.63687 0.0
C207 C 0.6848 0.6854 0.64291 0.0
C208 C 0.69897 0.64875 0.64061 0.0
O209 O 0.66663 0.64702 0.67668 0.0
Mg210 Mg 0.32078 0.33021 0.70037 0.0
O211 O 0.33192 0.32377 0.67977 0.0
O212 O 0.34766 0.31997 0.69406 0.0
Mg213 Mg 0.34614 0.32304 0.7232 0.0
C214 C 0.34168 0.3205 0.67995 0.0
C215 C 0.31243 0.35044 0.68077 0.0
O216 O 0.31893 0.35879 0.69447 0.0
O217 O 0.34056 0.35238 0.70434 0.0
O218 O 0.35495 0.34719 0.71943 0.0
O219 O 0.30434 0.30712 0.70293 0.0
O220 O 0.32417 0.31807 0.71871 0.0
C221 C 0.35225 0.35628 0.71246 0.0
C222 C 0.31268 0.30633 0.71439 0.0
O223 O 0.31175 0.3383 0.67928 0.0
Mg224 Mg 0.6778 0.01096 0.6452 0.0
O225 O 0.69597 0.01763 0.66521 0.0
O226 O 0.71423 0.01866 0.6512 0.0
Mg227 Mg 0.70821 0.01397 0.62225 0.0
C228 C 0.70857 0.01978 0.66512 0.0
C229 C 0.66373 0.01539 0.67762 0.0
O230 O 0.67457 0.02845 0.67612 0.0
O231 O 0.67371 0.98804 0.64356 0.0
O232 O 0.69182 0.99045 0.62788 0.0
O233 O 0.68531 0.03392 0.63989 0.0
O234 O 0.69225 0.02061 0.62557 0.0
C235 C 0.68026 0.98264 0.63568 0.0
C236 C 0.69325 0.03297 0.6282 0.0
O237 O 0.66225 0.0055 0.66699 0.0
Mg238 Mg 0.98898 0.68139 0.6941 0.0
O239 O 0.97016 0.67024 0.67471 0.0
O240 O 0.95076 0.65694 0.68998 0.0
Mg241 Mg 0.95697 0.66053 0.71892 0.0
C242 C 0.95688 0.66145 0.67554 0.0
C243 C 0.01688 0.6899 0.67678 0.0
O244 O 0.01995 0.6902 0.69341 0.0
O245 O 0.98841 0.66023 0.69871 0.0
O246 O 0.96919 0.64852 0.71484 0.0
O247 O 0.98554 0.70022 0.69685 0.0
O248 O 0.97593 0.68117 0.7134 0.0
C249 C 0.97994 0.64933 0.70737 0.0
C250 C 0.97725 0.69335 0.70943 0.0
O251 O 0.00436 0.68651 0.6722 0.0
C252 C 0.20544 0.30503 0.13715 0.0
C253 C 0.20418 0.29805 0.12103 0.0
C254 C 0.1935 0.30139 0.14694 0.0
C255 C 0.18009 0.29042 0.14103 0.0
C256 C 0.1907 0.28718 0.11505 0.0
C257 C 0.17877 0.28345 0.12494 0.0
C258 C 0.16732 0.287 0.15091 0.0
C259 C 0.19495 0.27716 0.1857 0.0
C260 C 0.19808 0.28411 0.20216 0.0
C261 C 0.18451 0.27708 0.17483 0.0
C262 C 0.17742 0.28438 0.18005 0.0
C263 C 0.19077 0.29109 0.20749 0.0
C264 C 0.18061 0.29126 0.19655 0.0
C265 C 0.16633 0.28469 0.16901 0.0
C266 C 0.10863 0.2759 0.18603 0.0
C267 C 0.11285 0.28517 0.20079 0.0
C268 C 0.1188 0.27555 0.17546 0.0
C269 C 0.13328 0.28442 0.17962 0.0
C270 C 0.12732 0.29379 0.20503 0.0
C271 C 0.13741 0.29334 0.19462 0.0
C272 C 0.14438 0.2845 0.16884 0.0
C273 C 0.12408 0.30403 0.13662 0.0
C274 C 0.11812 0.29684 0.1206 0.0
C275 C 0.13276 0.30064 0.14651 0.0
C276 C 0.13545 0.28977 0.14079 0.0
C277 C 0.12091 0.28601 0.11484 0.0
C278 C 0.12956 0.28258 0.1248 0.0
C279 C 0.1453 0.28671 0.15075 0.0
H280 H 0.21565 0.31337 0.14222 0.0
H281 H 0.19474 0.30727 0.15904 0.0
H282 H 0.18931 0.28178 0.10254 0.0
H283 H 0.16848 0.27516 0.11998 0.0
H284 H 0.2004 0.2716 0.18142 0.0
H285 H 0.18196 0.27125 0.16245 0.0
H286 H 0.19308 0.29661 0.22007 0.0
H287 H 0.1753 0.29693 0.20098 0.0
H288 H 0.09752 0.26915 0.18254 0.0
H289 H 0.1154 0.2684 0.16409 0.0
H290 H 0.13084 0.30086 0.21649 0.0
H291 H 0.14851 0.30019 0.19815 0.0
H292 H 0.12209 0.31235 0.14152 0.0
H293 H 0.13756 0.30672 0.15849 0.0
H294 H 0.11669 0.28043 0.10243 0.0
H295 H 0.13172 0.27435 0.11998 0.0
N296 N 0.15669 0.28775 0.14247 0.0
N297 N 0.1549 0.28358 0.17716 0.0
C298 C 0.70516 0.89958 0.15151 0.0
C299 C 0.7148 0.90594 0.13808 0.0
C300 C 0.7066 0.89053 0.16306 0.0
C301 C 0.71788 0.88786 0.16168 0.0
C302 C 0.72609 0.90326 0.13666 0.0
C303 C 0.72759 0.89427 0.14835 0.0
C304 C 0.71855 0.87707 0.17267 0.0
C305 C 0.72267 0.91226 0.2095 0.0
C306 C 0.71045 0.90755 0.21936 0.0
C307 C 0.72494 0.90229 0.20022 0.0
C308 C 0.71512 0.88749 0.2009 0.0
C309 C 0.70074 0.89275 0.22011 0.0
C310 C 0.70314 0.88281 0.21113 0.0
C311 C 0.71696 0.8767 0.19089 0.0
C312 C 0.72251 0.82519 0.20972 0.0
C313 C 0.71139 0.81879 0.22146 0.0
C314 C 0.72437 0.83687 0.20001 0.0
C315 C 0.71518 0.84236 0.20196 0.0
C316 C 0.70245 0.82454 0.22368 0.0
C317 C 0.7044 0.83629 0.21414 0.0
C318 C 0.71653 0.85429 0.19132 0.0
C319 C 0.70037 0.81643 0.15402 0.0
C320 C 0.70847 0.81826 0.13922 0.0
C321 C 0.7036 0.82805 0.16529 0.0
C322 C 0.71526 0.84172 0.16235 0.0
C323 C 0.72023 0.83192 0.13635 0.0
C324 C 0.72355 0.84354 0.14778 0.0
C325 C 0.71763 0.8544 0.17301 0.0
H326 H 0.69613 0.90111 0.15266 0.0
H327 H 0.69855 0.88518 0.17265 0.0
H328 H 0.73366 0.90801 0.12641 0.0
H329 H 0.73622 0.89213 0.14684 0.0
H330 H 0.73031 0.92363 0.20878 0.0
H331 H 0.73433 0.9061 0.19252 0.0
H332 H 0.69134 0.88885 0.22781 0.0
H333 H 0.69545 0.87144 0.21185 0.0
H334 H 0.72954 0.82094 0.20775 0.0
H335 H 0.7329 0.84155 0.19089 0.0
H336 H 0.69392 0.81993 0.23281 0.0
H337 H 0.69725 0.84041 0.21593 0.0
H338 H 0.69136 0.80604 0.15679 0.0
H339 H 0.69661 0.82639 0.17595 0.0
H340 H 0.72658 0.83377 0.12496 0.0
H341 H 0.73241 0.85404 0.14502 0.0
N342 N 0.71882 0.8659 0.16447 0.0
N343 N 0.71605 0.86535 0.1995 0.0
C344 C 0.12128 0.8284 0.14872 0.0
C345 C 0.11599 0.83016 0.13275 0.0
C346 C 0.12928 0.84021 0.15997 0.0
C347 C 0.13204 0.85399 0.15556 0.0
C348 C 0.11866 0.84394 0.12842 0.0
C349 C 0.12675 0.85578 0.13966 0.0
C350 C 0.14157 0.86668 0.1667 0.0
C351 C 0.10256 0.83894 0.19655 0.0
C352 C 0.10517 0.8348 0.21276 0.0
C353 C 0.11364 0.84996 0.18756 0.0
C354 C 0.12758 0.85663 0.19438 0.0
C355 C 0.11894 0.842 0.21999 0.0
C356 C 0.13003 0.85276 0.21087 0.0
C357 C 0.1398 0.86765 0.18475 0.0
C358 C 0.19208 0.9246 0.20655 0.0
C359 C 0.19432 0.92017 0.22278 0.0
C360 C 0.18162 0.91466 0.19489 0.0
C361 C 0.17355 0.90006 0.19908 0.0
C362 C 0.18599 0.90567 0.22711 0.0
C363 C 0.17576 0.89575 0.2154 0.0
C364 C 0.16252 0.88907 0.18705 0.0
C365 C 0.20263 0.9061 0.15639 0.0
C366 C 0.20211 0.91151 0.14004 0.0
C367 C 0.19043 0.89892 0.16617 0.0
C368 C 0.17754 0.89727 0.15996 0.0
C369 C 0.18921 0.91 0.134 0.0
C370 C 0.17706 0.90291 0.14384 0.0
C371 C 0.16422 0.88809 0.16897 0.0
H372 H 0.11931 0.8179 0.15248 0.0
H373 H 0.13355 0.83862 0.17197 0.0
H374 H 0.11485 0.84564 0.11612 0.0
H375 H 0.12897 0.86637 0.13589 0.0
H376 H 0.09196 0.83363 0.19083 0.0
H377 H 0.11129 0.85313 0.17525 0.0
H378 H 0.12123 0.83893 0.23242 0.0
H379 H 0.14062 0.85778 0.21655 0.0
H380 H 0.19828 0.93577 0.20301 0.0
H381 H 0.17984 0.91842 0.18267 0.0
H382 H 0.18758 0.90194 0.23947 0.0
H383 H 0.16968 0.88459 0.21904 0.0
H384 H 0.2124 0.90717 0.1615 0.0
H385 H 0.19101 0.89426 0.1783 0.0
H386 H 0.18834 0.91377 0.12133 0.0
H387 H 0.16717 0.90151 0.13864 0.0
N388 N 0.15362 0.87701 0.15954 0.0
N389 N 0.15037 0.87881 0.19412 0.0
C390 C 0.29873 0.09996 0.82039 0.0
C391 C 0.29081 0.0934 0.80496 0.0
C392 C 0.29615 0.10935 0.83042 0.0
C393 C 0.28521 0.11199 0.82567 0.0
C394 C 0.28004 0.09631 0.80008 0.0
C395 C 0.27728 0.10547 0.81033 0.0
C396 C 0.28283 0.12253 0.83559 0.0
C397 C 0.2791 0.08941 0.87386 0.0
C398 C 0.28906 0.0955 0.88775 0.0
C399 C 0.27658 0.09823 0.86294 0.0
C400 C 0.28414 0.11326 0.86562 0.0
C401 C 0.29599 0.11045 0.89088 0.0
C402 C 0.29357 0.1192 0.87995 0.0
C403 C 0.28244 0.12313 0.85398 0.0
C404 C 0.27356 0.17391 0.86781 0.0
C405 C 0.28355 0.18045 0.8816 0.0
C406 C 0.27242 0.16202 0.85855 0.0
C407 C 0.28139 0.15661 0.86277 0.0
C408 C 0.2921 0.17462 0.88617 0.0
C409 C 0.29098 0.16281 0.87691 0.0
C410 C 0.28116 0.14464 0.85264 0.0
C411 C 0.29544 0.18145 0.81672 0.0
C412 C 0.28691 0.17856 0.80164 0.0
C413 C 0.29379 0.1703 0.82725 0.0
C414 C 0.28326 0.15602 0.82329 0.0
C415 C 0.27659 0.16419 0.79746 0.0
C416 C 0.27483 0.15303 0.80816 0.0
C417 C 0.28166 0.14415 0.8343 0.0
H418 H 0.30702 0.09795 0.82473 0.0
H419 H 0.30289 0.1147 0.84175 0.0
H420 H 0.27393 0.09183 0.7881 0.0
H421 H 0.26901 0.1076 0.80614 0.0
H422 H 0.27357 0.07791 0.87115 0.0
H423 H 0.26894 0.09335 0.85227 0.0
H424 H 0.30345 0.11544 0.90172 0.0
H425 H 0.29937 0.13074 0.88249 0.0
H426 H 0.2667 0.17804 0.86414 0.0
H427 H 0.26468 0.15717 0.84797 0.0
H428 H 0.30004 0.1795 0.89652 0.0
H429 H 0.29798 0.1588 0.88047 0.0
H430 H 0.30339 0.19236 0.82051 0.0
H431 H 0.30082 0.17287 0.83847 0.0
H432 H 0.27002 0.16151 0.78578 0.0
H433 H 0.26684 0.14206 0.80464 0.0
N434 N 0.28228 0.13301 0.82651 0.0
N435 N 0.28164 0.13416 0.86166 0.0
C436 C 0.8983 0.16269 0.88448 0.0
C437 C 0.89452 0.16861 0.89846 0.0
C438 C 0.88787 0.15163 0.87386 0.0
C439 C 0.87347 0.14643 0.87688 0.0
C440 C 0.88009 0.16306 0.90173 0.0
C441 C 0.8697 0.15206 0.89111 0.0
C442 C 0.86214 0.13505 0.86557 0.0
C443 C 0.88523 0.17288 0.83096 0.0
C444 C 0.89045 0.17019 0.81557 0.0
C445 C 0.87629 0.16159 0.84147 0.0
C446 C 0.87268 0.14738 0.83712 0.0
C447 C 0.88686 0.15594 0.81128 0.0
C448 C 0.87804 0.14466 0.82193 0.0
C449 C 0.86212 0.13519 0.8472 0.0
C450 C 0.80283 0.09075 0.8259 0.0
C451 C 0.8056 0.08503 0.81081 0.0
C452 C 0.81382 0.09976 0.83756 0.0
C453 C 0.82775 0.10293 0.83468 0.0
C454 C 0.8196 0.08834 0.80794 0.0
C455 C 0.83052 0.09717 0.81973 0.0
C456 C 0.83974 0.11335 0.84608 0.0
C457 C 0.81001 0.0779 0.88095 0.0
C458 C 0.80578 0.08282 0.89545 0.0
C459 C 0.82116 0.08768 0.87084 0.0
C460 C 0.8279 0.10254 0.8748 0.0
C461 C 0.81277 0.09761 0.89962 0.0
C462 C 0.82368 0.10735 0.88939 0.0
C463 C 0.83969 0.11331 0.86447 0.0
H464 H 0.90932 0.16658 0.88179 0.0
H465 H 0.89105 0.14718 0.86326 0.0
H466 H 0.87679 0.16749 0.91222 0.0
H467 H 0.85868 0.1482 0.89377 0.0
H468 H 0.88789 0.18372 0.83479 0.0
H469 H 0.8719 0.16398 0.85273 0.0
H470 H 0.89047 0.15342 0.79939 0.0
H471 H 0.87517 0.13375 0.81812 0.0
H472 H 0.7922 0.08839 0.82865 0.0
H473 H 0.81143 0.10448 0.84864 0.0
H474 H 0.82226 0.08448 0.7963 0.0
H475 H 0.84121 0.09969 0.81702 0.0
H476 H 0.80483 0.06651 0.87761 0.0
H477 H 0.82451 0.08361 0.86003 0.0
H478 H 0.80961 0.10168 0.91065 0.0
H479 H 0.82874 0.11873 0.89281 0.0
N480 N 0.8509 0.12417 0.8734 0.0
N481 N 0.851 0.12425 0.83824 0.0
C482 C 0.81155 0.72504 0.89359 0.0
C483 C 0.80541 0.71342 0.90487 0.0
C484 C 0.82356 0.72786 0.88434 0.0
C485 C 0.82946 0.71893 0.88596 0.0
C486 C 0.81167 0.70485 0.90696 0.0
C487 C 0.8236 0.70762 0.89764 0.0
C488 C 0.84161 0.72112 0.87548 0.0
C489 C 0.80575 0.70822 0.83683 0.0
C490 C 0.80843 0.71715 0.82252 0.0
C491 C 0.81668 0.71041 0.84833 0.0
C492 C 0.83047 0.72201 0.84637 0.0
C493 C 0.82226 0.72877 0.82058 0.0
C494 C 0.83312 0.73119 0.8324 0.0
C495 C 0.84246 0.72359 0.8574 0.0
C496 C 0.88978 0.71587 0.83441 0.0
C497 C 0.89759 0.72804 0.82426 0.0
C498 C 0.87944 0.71513 0.84548 0.0
C499 C 0.87673 0.72657 0.8467 0.0
C500 C 0.89484 0.73949 0.82555 0.0
C501 C 0.88442 0.7387 0.83658 0.0
C502 C 0.86513 0.7254 0.85742 0.0
C503 C 0.89872 0.72717 0.89335 0.0
C504 C 0.89399 0.71447 0.90267 0.0
C505 C 0.88904 0.72992 0.88465 0.0
C506 C 0.87445 0.71999 0.88506 0.0
C507 C 0.87936 0.70479 0.90347 0.0
C508 C 0.86971 0.70757 0.89483 0.0
C509 C 0.86398 0.72221 0.87525 0.0
H510 H 0.80708 0.73196 0.89196 0.0
H511 H 0.82813 0.73691 0.87578 0.0
H512 H 0.80712 0.69576 0.91545 0.0
H513 H 0.82801 0.70063 0.89918 0.0
H514 H 0.79525 0.69929 0.83901 0.0
H515 H 0.81435 0.7027 0.85842 0.0
H516 H 0.82489 0.73573 0.80958 0.0
H517 H 0.84371 0.74003 0.83034 0.0
H518 H 0.89136 0.70671 0.83344 0.0
H519 H 0.87332 0.70547 0.85278 0.0
H520 H 0.90073 0.74906 0.81804 0.0
H521 H 0.88235 0.74756 0.83722 0.0
H522 H 0.90992 0.73483 0.8925 0.0
H523 H 0.89294 0.73974 0.8775 0.0
H524 H 0.87536 0.69506 0.91081 0.0
H525 H 0.85851 0.69981 0.89547 0.0
N526 N 0.85229 0.72028 0.8836 0.0
N527 N 0.85433 0.7259 0.8492 0.0
C528 C 0.7743 0.60808 0.45168 0.0
C529 C 0.77881 0.61955 0.44022 0.0
C530 C 0.78418 0.60581 0.46072 0.0
C531 C 0.79875 0.61507 0.45862 0.0
C532 C 0.7934 0.6284 0.43762 0.0
C533 C 0.80324 0.62613 0.44665 0.0
C534 C 0.80943 0.61374 0.46922 0.0
C535 C 0.78659 0.62683 0.50737 0.0
C536 C 0.78068 0.61765 0.52145 0.0
C537 C 0.79548 0.62504 0.49601 0.0
C538 C 0.79833 0.61379 0.49818 0.0
C539 C 0.78347 0.60632 0.52351 0.0
C540 C 0.79223 0.60444 0.512 0.0
C541 C 0.80893 0.61273 0.48749 0.0
C542 C 0.86686 0.62747 0.51011 0.0
C543 C 0.8632 0.61922 0.52512 0.0
C544 C 0.8565 0.62498 0.49745 0.0
C545 C 0.8424 0.61393 0.49939 0.0
C546 C 0.84924 0.60794 0.52681 0.0
C547 C 0.83897 0.6053 0.51405 0.0
C548 C 0.83079 0.61272 0.488 0.0
C549 C 0.8597 0.60632 0.45256 0.0
C550 C 0.86444 0.61545 0.43835 0.0
C551 C 0.84879 0.60547 0.46272 0.0
C552 C 0.84281 0.61413 0.45917 0.0
C553 C 0.85822 0.62379 0.43453 0.0
C554 C 0.84755 0.62317 0.44486 0.0
C555 C 0.83125 0.61356 0.46965 0.0
H556 H 0.76314 0.60088 0.45373 0.0
H557 H 0.78044 0.59697 0.46957 0.0
H558 H 0.79726 0.63742 0.42904 0.0
H559 H 0.81442 0.63338 0.44476 0.0
H560 H 0.78454 0.63557 0.50527 0.0
H561 H 0.80044 0.63275 0.48587 0.0
H562 H 0.77931 0.59921 0.53436 0.0
H563 H 0.79451 0.59585 0.51412 0.0
H564 H 0.87753 0.63635 0.50867 0.0
H565 H 0.85938 0.63216 0.48663 0.0
H566 H 0.8462 0.60144 0.53828 0.0
H567 H 0.82817 0.59684 0.51598 0.0
H568 H 0.86426 0.59966 0.45559 0.0
H569 H 0.84498 0.59797 0.47323 0.0
H570 H 0.86176 0.63096 0.42366 0.0
H571 H 0.84308 0.62988 0.44172 0.0
N572 N 0.82058 0.61414 0.46105 0.0
N573 N 0.81957 0.61219 0.49606 0.0
C574 C 0.36743 0.2376 0.48304 0.0
C575 C 0.37655 0.24316 0.46899 0.0
C576 C 0.36877 0.22847 0.49462 0.0
C577 C 0.37952 0.22506 0.49263 0.0
C578 C 0.38735 0.23982 0.46705 0.0
C579 C 0.38882 0.23087 0.47879 0.0
C580 C 0.38004 0.21401 0.50331 0.0
C581 C 0.38421 0.24838 0.542 0.0
C582 C 0.37241 0.24324 0.55279 0.0
C583 C 0.38643 0.2388 0.53177 0.0
C584 C 0.37692 0.22393 0.53219 0.0
C585 C 0.36291 0.22831 0.55301 0.0
C586 C 0.36523 0.21878 0.543 0.0
C587 C 0.37886 0.21347 0.52159 0.0
C588 C 0.38681 0.16247 0.53672 0.0
C589 C 0.37796 0.15729 0.55105 0.0
C590 C 0.38763 0.17386 0.52731 0.0
C591 C 0.37922 0.1799 0.53167 0.0
C592 C 0.37011 0.1638 0.55598 0.0
C593 C 0.3707 0.17497 0.54634 0.0
C594 C 0.3793 0.19145 0.52125 0.0
C595 C 0.36333 0.15381 0.48356 0.0
C596 C 0.37152 0.15597 0.46876 0.0
C597 C 0.36616 0.16531 0.49485 0.0
C598 C 0.37746 0.17917 0.49183 0.0
C599 C 0.38284 0.16986 0.46575 0.0
C600 C 0.38572 0.18137 0.47714 0.0
C601 C 0.37968 0.1916 0.50287 0.0
H602 H 0.35883 0.23978 0.48461 0.0
H603 H 0.36101 0.22362 0.50463 0.0
H604 H 0.39452 0.24399 0.45633 0.0
H605 H 0.39705 0.2282 0.47682 0.0
H606 H 0.39185 0.25978 0.54166 0.0
H607 H 0.39562 0.24298 0.52365 0.0
H608 H 0.35353 0.22392 0.56079 0.0
H609 H 0.35771 0.20735 0.54343 0.0
H610 H 0.39313 0.15775 0.53287 0.0
H611 H 0.39478 0.17784 0.51655 0.0
H612 H 0.36321 0.15996 0.567 0.0
H613 H 0.36423 0.17953 0.55015 0.0
H614 H 0.35464 0.14323 0.48639 0.0
H615 H 0.3593 0.16339 0.50573 0.0
H616 H 0.38922 0.17193 0.45435 0.0
H617 H 0.39432 0.19203 0.47437 0.0
N618 N 0.38033 0.20301 0.49472 0.0
N619 N 0.37865 0.20228 0.52983 0.0
C620 C 0.79134 0.15592 0.45237 0.0
C621 C 0.78254 0.15775 0.44046 0.0
C622 C 0.80023 0.16702 0.46397 0.0
C623 C 0.80045 0.18019 0.46411 0.0
C624 C 0.78285 0.17101 0.44045 0.0
C625 C 0.79187 0.18221 0.45209 0.0
C626 C 0.81007 0.19187 0.47646 0.0
C627 C 0.77562 0.1587 0.50922 0.0
C628 C 0.78036 0.15149 0.52003 0.0
C629 C 0.78534 0.17099 0.50059 0.0
C630 C 0.79992 0.17628 0.50279 0.0
C631 C 0.79495 0.15676 0.52207 0.0
C632 C 0.80464 0.16911 0.51364 0.0
C633 C 0.81042 0.18958 0.49443 0.0
C634 C 0.85807 0.24545 0.52438 0.0
C635 C 0.86491 0.23982 0.53452 0.0
C636 C 0.84737 0.23663 0.51224 0.0
C637 C 0.84329 0.22204 0.51012 0.0
C638 C 0.86094 0.22526 0.53196 0.0
C639 C 0.85016 0.21646 0.52007 0.0
C640 C 0.83159 0.21224 0.49807 0.0
C641 C 0.86774 0.24044 0.46452 0.0
C642 C 0.86507 0.24883 0.45294 0.0
C643 C 0.85675 0.22957 0.4736 0.0
C644 C 0.84288 0.22697 0.47154 0.0
C645 C 0.85116 0.24622 0.45086 0.0
C646 C 0.84014 0.23532 0.46005 0.0
C647 C 0.83113 0.21472 0.48017 0.0
H648 H 0.79124 0.14579 0.45288 0.0
H649 H 0.80701 0.16532 0.47284 0.0
H650 H 0.77626 0.17275 0.43134 0.0
H651 H 0.79203 0.19237 0.45185 0.0
H652 H 0.76441 0.15482 0.50744 0.0
H653 H 0.78149 0.17649 0.49246 0.0
H654 H 0.79888 0.15151 0.53052 0.0
H655 H 0.81585 0.17307 0.51556 0.0
H656 H 0.86072 0.25656 0.52612 0.0
H657 H 0.84208 0.24112 0.50481 0.0
H658 H 0.86617 0.2206 0.53914 0.0
H659 H 0.84724 0.20524 0.51853 0.0
H660 H 0.87825 0.24189 0.46604 0.0
H661 H 0.85906 0.22288 0.48182 0.0
H662 H 0.84879 0.2525 0.44202 0.0
H663 H 0.82947 0.23333 0.45808 0.0
N664 N 0.82037 0.20443 0.47 0.0
N665 N 0.82121 0.19977 0.50449 0.0
C666 C 0.9584 0.50971 0.1366 0.0
C667 C 0.96882 0.51722 0.12427 0.0
C668 C 0.95861 0.49893 0.14623 0.0
C669 C 0.96924 0.49542 0.14372 0.0
C670 C 0.97907 0.5132 0.12127 0.0
C671 C 0.9792 0.50232 0.13082 0.0
C672 C 0.97024 0.48493 0.15495 0.0
C673 C 0.98405 0.52451 0.18862 0.0
C674 C 0.97608 0.52267 0.20353 0.0
C675 C 0.98198 0.51261 0.17861 0.0
C676 C 0.97166 0.49862 0.18305 0.0
C677 C 0.96584 0.50868 0.20808 0.0
C678 C 0.96366 0.49677 0.19794 0.0
C679 C 0.9702 0.4859 0.1733 0.0
C680 C 0.98311 0.44095 0.19715 0.0
C681 C 0.97415 0.43606 0.21143 0.0
C682 C 0.98183 0.44978 0.18504 0.0
C683 C 0.97132 0.45357 0.18675 0.0
C684 C 0.96369 0.4399 0.21319 0.0
C685 C 0.96229 0.44856 0.20095 0.0
C686 C 0.97057 0.46396 0.17505 0.0
C687 C 0.96375 0.42654 0.14044 0.0
C688 C 0.97522 0.43031 0.12947 0.0
C689 C 0.96234 0.43723 0.14932 0.0
C690 C 0.97231 0.45183 0.14723 0.0
C691 C 0.98509 0.44494 0.12731 0.0
C692 C 0.98356 0.4556 0.13597 0.0
C693 C 0.97122 0.46331 0.15672 0.0
H694 H 0.95014 0.51226 0.13896 0.0
H695 H 0.95061 0.49349 0.15585 0.0
H696 H 0.98732 0.51882 0.11199 0.0
H697 H 0.98745 0.49971 0.12864 0.0
H698 H 0.99224 0.53513 0.18502 0.0
H699 H 0.98878 0.51437 0.16771 0.0
H700 H 0.95955 0.50696 0.21951 0.0
H701 H 0.95581 0.48607 0.20179 0.0
H702 H 0.99144 0.43836 0.1957 0.0
H703 H 0.98937 0.45401 0.17471 0.0
H704 H 0.95664 0.43623 0.22407 0.0
H705 H 0.95423 0.45151 0.20268 0.0
H706 H 0.95599 0.41534 0.14231 0.0
H707 H 0.95348 0.4341 0.1578 0.0
H708 H 0.99391 0.44814 0.11874 0.0
H709 H 0.99132 0.46681 0.13413 0.0
N710 N 0.97099 0.47381 0.14736 0.0
N711 N 0.97015 0.47526 0.18258 0.0
C712 C 0.47175 0.41804 0.14385 0.0
C713 C 0.46591 0.42366 0.13205 0.0
C714 C 0.48245 0.42717 0.15583 0.0
C715 C 0.48751 0.44204 0.15613 0.0
C716 C 0.47088 0.43855 0.13275 0.0
C717 C 0.48166 0.44763 0.14448 0.0
C718 C 0.49918 0.45209 0.16801 0.0
C719 C 0.46163 0.42739 0.2022 0.0
C720 C 0.46419 0.42112 0.21663 0.0
C721 C 0.47279 0.43683 0.19195 0.0
C722 C 0.48667 0.43988 0.19568 0.0
C723 C 0.47803 0.42405 0.22024 0.0
C724 C 0.48916 0.43335 0.20986 0.0
C725 C 0.49884 0.45107 0.18628 0.0
C726 C 0.54276 0.51022 0.20992 0.0
C727 C 0.54836 0.50732 0.22486 0.0
C728 C 0.53406 0.49917 0.19808 0.0
C729 C 0.53096 0.48499 0.20072 0.0
C730 C 0.54522 0.4931 0.22751 0.0
C731 C 0.53652 0.48203 0.21561 0.0
C732 C 0.52098 0.47309 0.18881 0.0
C733 C 0.55858 0.50191 0.15717 0.0
C734 C 0.55551 0.50713 0.14211 0.0
C735 C 0.54765 0.49093 0.16636 0.0
C736 C 0.53345 0.48537 0.16098 0.0
C737 C 0.5414 0.50126 0.1364 0.0
C738 C 0.53048 0.49053 0.14577 0.0
C739 C 0.52159 0.47378 0.17047 0.0
H740 H 0.4683 0.40667 0.14359 0.0
H741 H 0.48695 0.42267 0.16461 0.0
H742 H 0.46642 0.44326 0.12425 0.0
H743 H 0.48537 0.45907 0.14458 0.0
H744 H 0.45109 0.42553 0.19934 0.0
H745 H 0.47061 0.44219 0.1816 0.0
H746 H 0.48028 0.41932 0.23127 0.0
H747 H 0.49979 0.43567 0.21313 0.0
H748 H 0.54506 0.52106 0.20739 0.0
H749 H 0.52956 0.50169 0.18699 0.0
H750 H 0.5492 0.49046 0.239 0.0
H751 H 0.53407 0.47113 0.21807 0.0
H752 H 0.56943 0.50618 0.16166 0.0
H753 H 0.55034 0.48677 0.17759 0.0
H754 H 0.53879 0.50518 0.12486 0.0
H755 H 0.51966 0.48636 0.14121 0.0
N756 N 0.51056 0.46334 0.16087 0.0
N757 N 0.50975 0.46164 0.19595 0.0
C758 C 0.46106 0.02431 0.21975 0.0
C759 C 0.4537 0.01267 0.23076 0.0
C760 C 0.47195 0.02519 0.20959 0.0
C761 C 0.47562 0.01441 0.2102 0.0
C762 C 0.45772 0.00215 0.23177 0.0
C763 C 0.46866 0.00307 0.22166 0.0
C764 C 0.48655 0.01479 0.19876 0.0
C765 C 0.44955 0.00567 0.1638 0.0
C766 C 0.45238 0.01502 0.14992 0.0
C767 C 0.46057 0.00629 0.17388 0.0
C768 C 0.47471 0.01666 0.1708 0.0
C769 C 0.46657 0.0253 0.14676 0.0
C770 C 0.47758 0.02612 0.15711 0.0
C771 C 0.4866 0.01686 0.18064 0.0
C772 C 0.53089 0.00565 0.15375 0.0
C773 C 0.53894 0.01782 0.14376 0.0
C774 C 0.52118 0.00548 0.16551 0.0
C775 C 0.5193 0.01743 0.16733 0.0
C776 C 0.53717 0.02984 0.14577 0.0
C777 C 0.52728 0.02957 0.15732 0.0
C778 C 0.50841 0.01695 0.17883 0.0
C779 C 0.5438 0.02091 0.21321 0.0
C780 C 0.53983 0.00884 0.2235 0.0
C781 C 0.53353 0.02275 0.20451 0.0
C782 C 0.5191 0.01254 0.2059 0.0
C783 C 0.52537 0.99874 0.22503 0.0
C784 C 0.51511 0.00064 0.21641 0.0
C785 C 0.50807 0.0143 0.19676 0.0
H786 H 0.45818 0.03256 0.21867 0.0
H787 H 0.47739 0.0342 0.20109 0.0
H788 H 0.4524 0.99319 0.24037 0.0
H789 H 0.47143 0.99472 0.22245 0.0
H790 H 0.4388 0.99769 0.16681 0.0
H791 H 0.45799 0.9984 0.18381 0.0
H792 H 0.46927 0.03247 0.13597 0.0
H793 H 0.48839 0.03404 0.15421 0.0
H794 H 0.53213 0.99629 0.15247 0.0
H795 H 0.51494 0.99592 0.17293 0.0
H796 H 0.5432 0.0393 0.13811 0.0
H797 H 0.52585 0.03882 0.15846 0.0
H798 H 0.55486 0.02886 0.21176 0.0
H799 H 0.53686 0.0322 0.19679 0.0
H800 H 0.52197 0.98945 0.23308 0.0
H801 H 0.50404 0.9927 0.2178 0.0
N802 N 0.49716 0.01335 0.20608 0.0
N803 N 0.49766 0.01808 0.17145 0.0
C804 C 0.54927 0.99712 0.80116 0.0
C805 C 0.54711 0.98921 0.78553 0.0
C806 C 0.53785 0.99458 0.8114 0.0
C807 C 0.52404 0.98387 0.80643 0.0
C808 C 0.53323 0.97874 0.78035 0.0
C809 C 0.52179 0.97615 0.79068 0.0
C810 C 0.51193 0.98104 0.81737 0.0
C811 C 0.53777 0.96733 0.84978 0.0
C812 C 0.54451 0.97657 0.86428 0.0
C813 C 0.52742 0.9684 0.84012 0.0
C814 C 0.52357 0.97862 0.84494 0.0
C815 C 0.54075 0.9869 0.86891 0.0
C816 C 0.53026 0.9878 0.85944 0.0
C817 C 0.51209 0.97933 0.83551 0.0
C818 C 0.45334 0.9631 0.85642 0.0
C819 C 0.45656 0.9719 0.87149 0.0
C820 C 0.46405 0.96507 0.84512 0.0
C821 C 0.47812 0.97585 0.84875 0.0
C822 C 0.47067 0.98256 0.87516 0.0
C823 C 0.48135 0.98444 0.86396 0.0
C824 C 0.48968 0.97786 0.83732 0.0
C825 C 0.46301 0.99126 0.80723 0.0
C826 C 0.45683 0.98321 0.79175 0.0
C827 C 0.4736 0.99011 0.81615 0.0
C828 C 0.47807 0.98069 0.80993 0.0
C829 C 0.46151 0.97399 0.78538 0.0
C830 C 0.47206 0.97279 0.79436 0.0
C831 C 0.48944 0.97953 0.81915 0.0
H832 H 0.55981 0.0052 0.80561 0.0
H833 H 0.53983 0.00103 0.82321 0.0
H834 H 0.53118 0.97264 0.76823 0.0
H835 H 0.5112 0.968 0.78647 0.0
H836 H 0.54049 0.95927 0.84598 0.0
H837 H 0.52222 0.96106 0.82911 0.0
H838 H 0.54565 0.99402 0.88017 0.0
H839 H 0.52735 0.99568 0.86342 0.0
H840 H 0.44254 0.95484 0.85327 0.0
H841 H 0.46137 0.95811 0.83364 0.0
H842 H 0.47347 0.98936 0.88681 0.0
H843 H 0.49217 0.9927 0.8671 0.0
H844 H 0.45987 0.9987 0.81227 0.0
H845 H 0.47843 0.99674 0.82777 0.0
H846 H 0.45691 0.96759 0.77354 0.0
H847 H 0.47545 0.96557 0.78922 0.0
N848 N 0.50056 0.98097 0.80984 0.0
N849 N 0.50102 0.9779 0.84479 0.0
C850 C 0.0096 0.55334 0.81207 0.0
C851 C 0.0179 0.55928 0.79739 0.0
C852 C 0.01284 0.54561 0.82381 0.0
C853 C 0.0246 0.54386 0.82128 0.0
C854 C 0.02974 0.55765 0.79496 0.0
C855 C 0.033 0.54991 0.80675 0.0
C856 C 0.02719 0.53438 0.83258 0.0
C857 C 0.03398 0.57146 0.86785 0.0
C858 C 0.02329 0.5675 0.88015 0.0
C859 C 0.03514 0.56096 0.85818 0.0
C860 C 0.02572 0.54629 0.86072 0.0
C861 C 0.01379 0.55274 0.88244 0.0
C862 C 0.01512 0.54228 0.87299 0.0
C863 C 0.02698 0.53503 0.85093 0.0
C864 C 0.04106 0.48936 0.87081 0.0
C865 C 0.0305 0.48177 0.88291 0.0
C866 C 0.04082 0.50008 0.86105 0.0
C867 C 0.03004 0.50342 0.86329 0.0
C868 C 0.01998 0.48544 0.8855 0.0
C869 C 0.01984 0.49628 0.87589 0.0
C870 C 0.02907 0.51401 0.85222 0.0
C871 C 0.01672 0.47517 0.81778 0.0
C872 C 0.02522 0.4775 0.80327 0.0
C873 C 0.01814 0.48675 0.82788 0.0
C874 C 0.02829 0.50092 0.82392 0.0
C875 C 0.03528 0.49169 0.79918 0.0
C876 C 0.03678 0.5033 0.80941 0.0
C877 C 0.0291 0.51327 0.83385 0.0
H878 H 0.00048 0.55452 0.81441 0.0
H879 H 0.00588 0.54062 0.83456 0.0
H880 H 0.03624 0.56196 0.78368 0.0
H881 H 0.04197 0.54847 0.80438 0.0
H882 H 0.04165 0.58267 0.86591 0.0
H883 H 0.04355 0.56428 0.84893 0.0
H884 H 0.00524 0.54922 0.89148 0.0
H885 H 0.0077 0.53101 0.87508 0.0
H886 H 0.04926 0.48671 0.86853 0.0
H887 H 0.04892 0.50562 0.85156 0.0
H888 H 0.01181 0.47986 0.89488 0.0
H889 H 0.01149 0.49876 0.87789 0.0
H890 H 0.00863 0.46439 0.821 0.0
H891 H 0.01099 0.48461 0.8385 0.0
H892 H 0.04198 0.4938 0.78807 0.0
H893 H 0.04451 0.51416 0.80593 0.0
N894 N 0.02828 0.52355 0.82477 0.0
N895 N 0.02789 0.52479 0.86006 0.0
C896 C 0.53943 0.58143 0.80391 0.0
C897 C 0.54528 0.57438 0.79451 0.0
C898 C 0.52659 0.57347 0.81234 0.0
C899 C 0.51948 0.55836 0.81156 0.0
C900 C 0.53809 0.55926 0.79385 0.0
C901 C 0.52529 0.55135 0.80217 0.0
C902 C 0.50588 0.54953 0.82016 0.0
C903 C 0.53831 0.57198 0.8637 0.0
C904 C 0.53552 0.58083 0.87468 0.0
C905 C 0.52814 0.56255 0.85149 0.0
C906 C 0.51502 0.5619 0.84984 0.0
C907 C 0.52238 0.58019 0.87293 0.0
C908 C 0.5122 0.57075 0.8607 0.0
C909 C 0.50378 0.55117 0.83793 0.0
C910 C 0.45564 0.49369 0.85341 0.0
C911 C 0.44934 0.4973 0.86693 0.0
C912 C 0.46558 0.5043 0.84294 0.0
C913 C 0.46913 0.51874 0.84532 0.0
C914 C 0.45284 0.51175 0.86926 0.0
C915 C 0.46267 0.52236 0.85858 0.0
C916 C 0.48082 0.5302 0.83555 0.0
C917 C 0.44766 0.50121 0.79599 0.0
C918 C 0.45213 0.4941 0.78437 0.0
C919 C 0.45752 0.51276 0.80656 0.0
C920 C 0.47201 0.51729 0.80587 0.0
C921 C 0.46669 0.49911 0.78318 0.0
C922 C 0.4765 0.51057 0.79378 0.0
C923 C 0.48267 0.52898 0.81754 0.0
H924 H 0.54463 0.59307 0.80449 0.0
H925 H 0.52216 0.57909 0.81929 0.0
H926 H 0.54241 0.55348 0.78703 0.0
H927 H 0.52001 0.5397 0.80146 0.0
H928 H 0.54818 0.57195 0.86495 0.0
H929 H 0.53039 0.55548 0.84367 0.0
H930 H 0.51993 0.58695 0.88106 0.0
H931 H 0.50209 0.5703 0.85978 0.0
H932 H 0.45308 0.48266 0.85105 0.0
H933 H 0.4708 0.50122 0.83334 0.0
H934 H 0.44836 0.51496 0.87971 0.0
H935 H 0.46546 0.53347 0.86092 0.0
H936 H 0.43652 0.49762 0.79724 0.0
H937 H 0.45379 0.51803 0.81541 0.0
H938 H 0.47053 0.49411 0.77409 0.0
H939 H 0.48761 0.51396 0.7928 0.0
N940 N 0.49521 0.5386 0.81068 0.0
N941 N 0.49134 0.54141 0.84494 0.0
C942 C 0.63417 0.76237 0.4907 0.0
C943 C 0.62624 0.75629 0.47517 0.0
C944 C 0.63218 0.77208 0.50086 0.0
C945 C 0.62183 0.77559 0.49613 0.0
C946 C 0.61607 0.76005 0.47028 0.0
C947 C 0.6139 0.76958 0.48065 0.0
C948 C 0.62007 0.78639 0.50644 0.0
C949 C 0.61205 0.75101 0.54344 0.0
C950 C 0.62167 0.75572 0.5577 0.0
C951 C 0.61128 0.76101 0.53272 0.0
C952 C 0.6203 0.77584 0.53596 0.0
C953 C 0.63036 0.77056 0.56113 0.0
C954 C 0.62964 0.78049 0.55042 0.0
C955 C 0.62003 0.7868 0.52485 0.0
C956 C 0.6157 0.83946 0.54313 0.0
C957 C 0.62585 0.84483 0.55685 0.0
C958 C 0.614 0.82799 0.53242 0.0
C959 C 0.62254 0.82183 0.53514 0.0
C960 C 0.6343 0.83857 0.55953 0.0
C961 C 0.63263 0.82718 0.54885 0.0
C962 C 0.62082 0.80939 0.52452 0.0
C963 C 0.63549 0.84592 0.4879 0.0
C964 C 0.62468 0.84405 0.47612 0.0
C965 C 0.63408 0.83446 0.49763 0.0
C966 C 0.62188 0.82085 0.49574 0.0
C967 C 0.61255 0.83029 0.4741 0.0
C968 C 0.61123 0.81877 0.48372 0.0
C969 C 0.62037 0.80879 0.50617 0.0
H970 H 0.64201 0.75969 0.49505 0.0
H971 H 0.63892 0.777 0.5123 0.0
H972 H 0.60998 0.75591 0.45823 0.0
H973 H 0.60608 0.77236 0.47648 0.0
H974 H 0.60515 0.73963 0.54058 0.0
H975 H 0.6037 0.75716 0.52192 0.0
H976 H 0.63806 0.77455 0.57181 0.0
H977 H 0.63667 0.79187 0.55324 0.0
H978 H 0.60893 0.84398 0.54086 0.0
H979 H 0.60588 0.8238 0.52222 0.0
H980 H 0.6424 0.84261 0.56976 0.0
H981 H 0.63934 0.8226 0.55123 0.0
H982 H 0.64513 0.85623 0.48952 0.0
H983 H 0.64255 0.83619 0.50661 0.0
H984 H 0.60394 0.82846 0.46532 0.0
H985 H 0.60177 0.80831 0.48204 0.0
N986 N 0.62001 0.79733 0.49781 0.0
N987 N 0.62055 0.79834 0.53306 0.0
C988 C 0.14121 0.75173 0.4904 0.0
C989 C 0.13446 0.75628 0.47853 0.0
C990 C 0.15163 0.76165 0.50209 0.0
C991 C 0.15557 0.77626 0.50186 0.0
C992 C 0.13835 0.77088 0.47848 0.0
C993 C 0.14892 0.7808 0.4899 0.0
C994 C 0.16688 0.78705 0.51361 0.0
C995 C 0.12928 0.76212 0.54696 0.0
C996 C 0.13138 0.75435 0.56003 0.0
C997 C 0.14065 0.77225 0.53758 0.0
C998 C 0.15437 0.77476 0.54098 0.0
C999 C 0.14514 0.75684 0.56334 0.0
C1000 C 0.15655 0.76704 0.55397 0.0
C1001 C 0.16653 0.78616 0.53188 0.0
C1002 C 0.20905 0.8463 0.55478 0.0
C1003 C 0.21559 0.84399 0.56925 0.0
C1004 C 0.20011 0.8349 0.54347 0.0
C1005 C 0.19771 0.82097 0.54616 0.0
C1006 C 0.21299 0.82997 0.57209 0.0
C1007 C 0.20405 0.81855 0.5607 0.0
C1008 C 0.18798 0.80881 0.53438 0.0
C1009 C 0.22481 0.83904 0.50247 0.0
C1010 C 0.22122 0.84396 0.48754 0.0
C1011 C 0.21431 0.8277 0.5117 0.0
C1012 C 0.19999 0.82146 0.50649 0.0
C1013 C 0.20699 0.83744 0.48202 0.0
C1014 C 0.19648 0.82634 0.49143 0.0
C1015 C 0.18855 0.80946 0.51601 0.0
H1016 H 0.13839 0.74053 0.49064 0.0
H1017 H 0.15676 0.75797 0.5111 0.0
H1018 H 0.13342 0.77467 0.46931 0.0
H1019 H 0.15186 0.79204 0.48948 0.0
H1020 H 0.1189 0.76075 0.54436 0.0
H1021 H 0.13878 0.77842 0.52802 0.0
H1022 H 0.14712 0.75097 0.57323 0.0
H1023 H 0.16708 0.76893 0.55688 0.0
H1024 H 0.21091 0.85696 0.55209 0.0
H1025 H 0.19502 0.83699 0.53264 0.0
H1026 H 0.21768 0.82777 0.58325 0.0
H1027 H 0.20215 0.80784 0.5632 0.0
H1028 H 0.23576 0.84383 0.50681 0.0
H1029 H 0.21742 0.82379 0.52281 0.0
H1030 H 0.20398 0.84111 0.47058 0.0
H1031 H 0.18556 0.82165 0.48701 0.0
N1032 N 0.17787 0.79862 0.50641 0.0
N1033 N 0.17709 0.79707 0.54158 0.0
C1034 C 0.2251 0.39065 0.50036 0.0
C1035 C 0.22154 0.37942 0.48809 0.0
C1036 C 0.21471 0.39052 0.51092 0.0
C1037 C 0.20062 0.37923 0.5092 0.0
C1038 C 0.20741 0.36826 0.48627 0.0
C1039 C 0.19703 0.36825 0.49661 0.0
C1040 C 0.18944 0.37882 0.52014 0.0
C1041 C 0.21696 0.36956 0.55478 0.0
C1042 C 0.22307 0.37891 0.56932 0.0
C1043 C 0.20635 0.36982 0.54476 0.0
C1044 C 0.2019 0.37973 0.54876 0.0
C1045 C 0.21841 0.38861 0.57358 0.0
C1046 C 0.20792 0.38901 0.56338 0.0
C1047 C 0.1903 0.37974 0.53852 0.0
C1048 C 0.13079 0.36307 0.55681 0.0
C1049 C 0.1333 0.37255 0.57103 0.0
C1050 C 0.14189 0.36473 0.5465 0.0
C1051 C 0.15571 0.37618 0.54979 0.0
C1052 C 0.14721 0.38384 0.57454 0.0
C1053 C 0.1583 0.38561 0.56403 0.0
C1054 C 0.16756 0.37785 0.53904 0.0
C1055 C 0.13833 0.38308 0.50116 0.0
C1056 C 0.1313 0.37111 0.48965 0.0
C1057 C 0.14975 0.38489 0.51155 0.0
C1058 C 0.15439 0.37486 0.51034 0.0
C1059 C 0.13591 0.36106 0.4886 0.0
C1060 C 0.14746 0.36302 0.49871 0.0
C1061 C 0.16671 0.37676 0.52068 0.0
H1062 H 0.23594 0.39935 0.50199 0.0
H1063 H 0.21764 0.39922 0.52038 0.0
H1064 H 0.20439 0.35957 0.47677 0.0
H1065 H 0.1862 0.3595 0.495 0.0
H1066 H 0.22009 0.36173 0.55144 0.0
H1067 H 0.20144 0.36204 0.5341 0.0
H1068 H 0.22293 0.39592 0.58475 0.0
H1069 H 0.2045 0.39659 0.56691 0.0
H1070 H 0.12023 0.35433 0.55357 0.0
H1071 H 0.13963 0.3569 0.53608 0.0
H1072 H 0.14961 0.39117 0.58557 0.0
H1073 H 0.16892 0.39436 0.56703 0.0
H1074 H 0.13496 0.39098 0.50212 0.0
H1075 H 0.15508 0.39418 0.52033 0.0
H1076 H 0.13077 0.35185 0.47966 0.0
H1077 H 0.15095 0.35521 0.49754 0.0
N1078 N 0.17764 0.37724 0.51197 0.0
N1079 N 0.17937 0.37937 0.54726 0.0
C1080 C 0.97947 0.34937 0.02202 0.0
C1081 C 0.99227 0.34944 0.01995 0.0
C1082 C 0.9774 0.3559 0.03669 0.0
C1083 C 0.99761 0.38559 0.06741 0.0
H1084 H 0.96228 0.37036 0.0917 0.0
C1085 C 0.99003 0.41977 0.11999 0.0
C1086 C 0.97686 0.4191 0.12003 0.0
C1087 C 0.99187 0.40978 0.11019 0.0
C1088 C 0.97218 0.37484 0.08496 0.0
H1089 H 0.01271 0.3559 0.03206 0.0
H1090 H 0.00914 0.36748 0.05762 0.0
H1091 H 0.96543 0.35517 0.07031 0.0
H1092 H 0.95523 0.40734 0.11011 0.0
H1093 H 0.95849 0.39014 0.09253 0.0
H1094 H 0.00419 0.40544 0.08127 0.0
C1095 C 0.00073 0.36235 0.04784 0.0
C1096 C 0.974 0.36609 0.07278 0.0
C1097 C 0.00273 0.35564 0.03326 0.0
C1098 C 0.96547 0.40802 0.11041 0.0
C1099 C 0.96734 0.39813 0.1004 0.0
C1100 C 0.99575 0.39439 0.07941 0.0
C1101 C 0.98816 0.3628 0.04952 0.0
C1102 C 0.98667 0.37144 0.06373 0.0
C1103 C 0.98063 0.39899 0.09997 0.0
C1104 C 0.98294 0.3892 0.0882 0.0
H1105 H 0.97117 0.34462 0.01205 0.0
H1106 H 0.96765 0.35616 0.03756 0.0
H1107 H 0.00741 0.3901 0.06044 0.0
H1108 H -0.00106 0.42809 0.12751 0.0
H1109 H 0.00216 0.4106 0.11052 0.0
C1110 C 0.63718 0.60666 0.05124 0.0
C1111 C 0.64101 0.61982 0.05981 0.0
C1112 C 0.62868 0.59365 0.05944 0.0
C1113 C 0.61927 0.57786 0.1019 0.0
H1114 H 0.58331 0.54948 0.08071 0.0
C1115 C 0.57633 0.53198 0.1411 0.0
C1116 C 0.56692 0.51892 0.13249 0.0
C1117 C 0.58631 0.54359 0.13175 0.0
C1118 C 0.59345 0.5571 0.0867 0.0
H1119 H 0.63912 0.62976 0.08367 0.0
H1120 H 0.62458 0.60705 0.0981 0.0
H1121 H 0.59911 0.57097 0.06492 0.0
H1122 H 0.56087 0.5074 0.10762 0.0
H1123 H 0.5787 0.52743 0.09132 0.0
H1124 H 0.61389 0.56403 0.12352 0.0
C1125 C 0.62806 0.60681 0.08503 0.0
C1126 C 0.60244 0.56944 0.07765 0.0
C1127 C 0.63628 0.61977 0.07672 0.0
C1128 C 0.56796 0.51745 0.11449 0.0
C1129 C 0.57811 0.52897 0.10517 0.0
C1130 C 0.61042 0.5654 0.11082 0.0
C1131 C 0.62418 0.59366 0.07646 0.0
C1132 C 0.61528 0.58003 0.08532 0.0
C1133 C 0.58725 0.5423 0.11361 0.0
C1134 C 0.59725 0.55497 0.1035 0.0
H1135 H 0.64067 0.60641 0.03819 0.0
H1136 H 0.62579 0.5836 0.05261 0.0
H1137 H 0.62923 0.58586 0.10798 0.0
H1138 H 0.57561 0.53338 0.15496 0.0
H1139 H 0.59294 0.55371 0.1387 0.0
C1140 C 0.37885 0.01464 0.03036 0.0
C1141 C 0.36621 0.00175 0.02628 0.0
C1142 C 0.38621 0.0163 0.04603 0.0
C1143 C 0.39326 0.99511 0.07585 0.0
H1144 H 0.40944 0.02894 0.10655 0.0
C1145 C 0.42884 -2e-05 0.13429 0.0
C1146 C 0.4407 0.01359 0.13824 0.0
C1147 C 0.41828 0.9985 0.12261 0.0
C1148 C 0.40515 0.01948 0.09802 0.0
H1149 H 0.3511 0.98071 0.03573 0.0
H1150 H 0.36418 0.98353 0.06293 0.0
H1151 H 0.39356 0.02671 0.0825 0.0
H1152 H 0.4503 0.03641 0.13334 0.0
H1153 H 0.43242 0.03373 0.11219 0.0
H1154 H 0.40533 0.98816 0.09047 0.0
C1155 C 0.3683 0.99235 0.05402 0.0
C1156 C 0.39598 0.01819 0.08434 0.0
C1157 C 0.3608 0.99078 0.03849 0.0
C1158 C 0.44151 0.02571 0.1304 0.0
C1159 C 0.43107 0.0242 0.11845 0.0
C1160 C 0.40261 0.99651 0.0893 0.0
C1161 C 0.38119 0.00502 0.05777 0.0
C1162 C 0.39002 0.00602 0.07309 0.0
C1163 C 0.41937 0.01054 0.11422 0.0
C1164 C 0.40878 0.00876 0.10052 0.0
H1165 H 0.38325 0.02332 0.02126 0.0
H1166 H 0.39618 0.02614 0.04858 0.0
H1167 H 0.38899 0.98573 0.06718 0.0
H1168 H 0.42784 0.99033 0.13982 0.0
H1169 H 0.40931 0.98784 0.12001 0.0
C1170 C 0.36957 0.98169 0.95248 0.0
C1171 C 0.35891 0.97063 0.96202 0.0
C1172 C 0.38034 0.98007 0.94534 0.0
C1173 C 0.38847 0.95467 0.92649 0.0
H1174 H 0.42748 0.98483 0.93454 0.0
C1175 C 0.43499 0.95647 0.88873 0.0
C1176 C 0.44528 0.97017 0.88335 0.0
C1177 C 0.42461 0.95502 0.90033 0.0
C1178 C 0.41664 0.97635 0.93206 0.0
H1179 H 0.351 0.94897 0.97116 0.0
H1180 H 0.36978 0.94598 0.958 0.0
H1181 H 0.40886 0.98486 0.95161 0.0
H1182 H 0.45256 0.99299 0.88537 0.0
H1183 H 0.43438 0.99048 0.9052 0.0
H1184 H 0.39611 0.94661 0.90622 0.0
C1185 C 0.36982 0.95601 0.95648 0.0
C1186 C 0.40603 0.97632 0.94195 0.0
C1187 C 0.35914 0.95774 0.96399 0.0
C1188 C 0.4449 0.98233 0.88955 0.0
C1189 C 0.43452 0.98088 0.90099 0.0
C1190 C 0.3991 0.95479 0.91641 0.0
C1191 C 0.38055 0.96724 0.94723 0.0
C1192 C 0.39184 0.96571 0.93893 0.0
C1193 C 0.42431 0.96723 0.90665 0.0
C1194 C 0.41325 0.96589 0.91875 0.0
H1195 H 0.3696 0.99161 0.9503 0.0
H1196 H 0.38837 0.98878 0.93797 0.0
H1197 H 0.37756 0.94644 0.92388 0.0
H1198 H 0.43512 0.94693 0.88424 0.0
H1199 H 0.41697 0.94436 0.90451 0.0
C1200 C 0.01205 0.3705 0.9467 0.0
C1201 C 0.02279 0.37143 0.95783 0.0
C1202 C 0.01339 0.38276 0.93898 0.0
C1203 C 0.03358 0.42275 0.94211 0.0
H1204 H 0.01821 0.4189 0.89529 0.0
C1205 C 0.04234 0.47103 0.90031 0.0
C1206 C 0.03007 0.46962 0.89224 0.0
C1207 C 0.04191 0.45939 0.90872 0.0
C1208 C 0.02248 0.42011 0.9084 0.0
H1209 H 0.04348 0.38601 0.96941 0.0
H1210 H 0.04604 0.40739 0.95549 0.0
H1211 H 0.01692 0.39803 0.90895 0.0
H1212 H 0.00781 0.45495 0.88649 0.0
H1213 H 0.0071 0.43457 0.90101 0.0
H1214 H 0.03938 0.445 0.94125 0.0
C1215 C 0.03639 0.39721 0.95308 0.0
C1216 C 0.02169 0.40814 0.91629 0.0
C1217 C 0.03497 0.38493 0.96098 0.0
C1218 C 0.01739 0.45637 0.89274 0.0
C1219 C 0.01701 0.44469 0.90091 0.0
C1220 C 0.03452 0.43479 0.9341 0.0
C1221 C 0.02562 0.39627 0.94195 0.0
C1222 C 0.02706 0.40924 0.93334 0.0
C1223 C 0.02926 0.44607 0.90894 0.0
C1224 C 0.02882 0.43352 0.91725 0.0
H1225 H 0.00258 0.36029 0.94384 0.0
H1226 H 0.00474 0.38162 0.93077 0.0
H1227 H 0.03767 0.42399 0.95531 0.0
H1228 H 0.05224 0.48116 0.90017 0.0
H1229 H 0.05152 0.4607 0.91475 0.0
C1230 C 0.60799 0.63768 0.00548 0.0
C1231 C 0.62264 0.64317 0.00437 0.0
C1232 C 0.59926 0.63287 0.99054 0.0
C1233 C 0.59786 0.61918 0.94583 0.0
H1234 H 0.56528 0.62424 0.9407 0.0
C1235 C 0.56059 0.59754 0.88518 0.0
C1236 C 0.54602 0.59016 0.88843 0.0
C1237 C 0.57047 0.60557 0.89845 0.0
C1238 C 0.5743 0.62268 0.94199 0.0
H1239 H 0.63965 0.64833 0.98648 0.0
H1240 H 0.62443 0.64011 0.96041 0.0
H1241 H 0.5817 0.63567 0.96543 0.0
H1242 H 0.53044 0.58556 0.90821 0.0
H1243 H 0.54765 0.59962 0.93128 0.0
H1244 H 0.59036 0.60606 0.92253 0.0
C1245 C 0.61966 0.6393 0.97291 0.0
C1246 C 0.5837 0.62922 0.95616 0.0
C1247 C 0.6284 0.6441 0.98786 0.0
C1248 C 0.54156 0.59129 0.90516 0.0
C1249 C 0.55143 0.59934 0.91841 0.0
C1250 C 0.58847 0.61268 0.93165 0.0
C1251 C 0.60496 0.63346 0.97409 0.0
C1252 C 0.5955 0.62739 0.95838 0.0
C1253 C 0.56601 0.60645 0.91526 0.0
C1254 C 0.57649 0.6142 0.92968 0.0
H1255 H 0.60316 0.63677 0.01796 0.0
H1256 H 0.58797 0.62827 0.99197 0.0
H1257 H 0.6067 0.61736 0.94726 0.0
H1258 H 0.56438 0.59708 0.87237 0.0
H1259 H 0.58162 0.61109 0.89554 0.0
C1260 C 0.00645 0.64922 0.97806 0.0
C1261 C 0.01742 0.6546 0.99076 0.0
C1262 C 0.00706 0.64188 0.96317 0.0
C1263 C 0.03051 0.63442 0.93621 0.0
H1264 H 0.998 0.59591 0.93087 0.0
C1265 C 0.02549 0.59197 0.88392 0.0
C1266 C 0.0222 0.57862 0.89085 0.0
C1267 C 0.02458 0.60239 0.89414 0.0
C1268 C 0.0071 0.60667 0.93212 0.0
H1269 H 0.03807 0.65744 0.99717 0.0
H1270 H 0.03921 0.64485 0.97108 0.0
H1271 H 0.9974 0.61309 0.9516 0.0
H1272 H 0.01563 0.56602 0.91421 0.0
H1273 H 0.01356 0.58394 0.93166 0.0
H1274 H 0.04031 0.62781 0.91697 0.0
C1275 C 0.03011 0.64621 0.97269 0.0
C1276 C 0.00671 0.61654 0.94386 0.0
C1277 C 0.02941 0.65335 0.98768 0.0
C1278 C 0.01791 0.57597 0.90822 0.0
C1279 C 0.01678 0.58627 0.91829 0.0
C1280 C 0.03081 0.6246 0.92424 0.0
C1281 C 0.01875 0.64001 0.96056 0.0
C1282 C 0.01853 0.6304 0.94632 0.0
C1283 C 0.02013 0.59958 0.91138 0.0
C1284 C 0.01923 0.61053 0.92242 0.0
H1285 H 0.99705 0.64999 0.98004 0.0
H1286 H 0.9982 0.63728 0.95395 0.0
H1287 H 0.03975 0.64505 0.93783 0.0
H1288 H 0.02862 0.59435 0.87054 0.0
H1289 H 0.02716 0.61256 0.8885 0.0
C1290 C 0.375 0.38911 0.94386 0.0
C1291 C 0.36325 0.38748 0.95297 0.0
C1292 C 0.38468 0.40239 0.93718 0.0
C1293 C 0.38729 0.43449 0.91978 0.0
H1294 H 0.42774 0.45075 0.92676 0.0
C1295 C 0.42772 0.48609 0.88545 0.0
C1296 C 0.43969 0.48609 0.87898 0.0
C1297 C 0.41864 0.47536 0.89659 0.0
C1298 C 0.41648 0.4463 0.92453 0.0
H1299 H 0.35245 0.39853 0.96225 0.0
H1300 H 0.36925 0.42173 0.95006 0.0
H1301 H 0.41139 0.42936 0.94234 0.0
H1302 H 0.45173 0.47503 0.8797 0.0
H1303 H 0.43564 0.45605 0.89822 0.0
H1304 H 0.39227 0.45088 0.90129 0.0
C1305 C 0.37099 0.4127 0.94834 0.0
C1306 C 0.40715 0.43412 0.93355 0.0
C1307 C 0.36143 0.39946 0.95534 0.0
C1308 C 0.44246 0.47523 0.88411 0.0
C1309 C 0.43334 0.46446 0.89505 0.0
C1310 C 0.39663 0.44656 0.91053 0.0
C1311 C 0.38267 0.41425 0.93918 0.0
C1312 C 0.39249 0.42798 0.93103 0.0
C1313 C 0.42129 0.46435 0.90143 0.0
C1314 C 0.41135 0.45245 0.91254 0.0
H1315 H 0.37673 0.38014 0.94179 0.0
H1316 H 0.39355 0.4033 0.93001 0.0
H1317 H 0.37601 0.42986 0.91754 0.0
H1318 H 0.42522 0.49425 0.8817 0.0
H1319 H 0.40954 0.47571 0.9014 0.0
C1320 C 0.61229 0.96614 0.98436 0.0
C1321 C 0.62489 0.97925 0.98757 0.0
C1322 C 0.60451 0.9637 0.96884 0.0
C1323 C 0.60585 0.97878 0.92485 0.0
H1324 H 0.56521 0.96007 0.92999 0.0
C1325 C 0.56789 0.98726 0.88016 0.0
C1326 C 0.55495 0.97507 0.87514 0.0
C1327 C 0.57717 0.98606 0.89176 0.0
C1328 C 0.57652 0.96512 0.92828 0.0
H1329 H 0.63946 -0.0001 0.97676 0.0
H1330 H 0.6257 0.99592 0.95011 0.0
H1331 H 0.58007 0.96099 0.95434 0.0
H1332 H 0.54166 0.95206 0.87794 0.0
H1333 H 0.55781 0.94999 0.89851 0.0
H1334 H 0.60218 0.9836 0.89901 0.0
C1335 C 0.62194 0.98731 0.95928 0.0
C1336 C 0.58507 0.96561 0.94222 0.0
C1337 C 0.62982 0.98965 0.97467 0.0
C1338 C 0.55162 0.96159 0.88153 0.0
C1339 C 0.5608 0.96043 0.89335 0.0
C1340 C 0.59728 0.97848 0.91099 0.0
C1341 C 0.60903 0.97441 0.95629 0.0
C1342 C 0.59988 0.97264 0.9408 0.0
C1343 C 0.57356 0.97269 0.89875 0.0
C1344 C 0.58256 0.97181 0.91267 0.0
H1345 H 0.60829 0.95784 0.99397 0.0
H1346 H 0.59481 0.95349 0.96684 0.0
H1347 H 0.61716 0.98402 0.92313 0.0
H1348 H 0.57072 0.99776 0.87534 0.0
H1349 H 0.58689 0.99569 0.89583 0.0
C1350 C 0.62905 0.02139 0.04548 0.0
C1351 C 0.63308 0.0116 0.05125 0.0
C1352 C 0.61816 0.02236 0.05364 0.0
C1353 C 0.58805 0.00209 0.08298 0.0
H1354 H 0.59121 0.03925 0.09172 0.0
C1355 C 0.54459 0.00642 0.11893 0.0
C1356 C 0.549 0.01786 0.13109 0.0
C1357 C 0.55415 0.00618 0.10727 0.0
C1358 C 0.59021 0.02879 0.08949 0.0
H1359 H 0.62915 0.99545 0.07031 0.0
H1360 H 0.61059 0.9974 0.08472 0.0
H1361 H 0.6094 0.03777 0.07532 0.0
H1362 H 0.56673 0.03808 0.14057 0.0
H1363 H 0.58364 0.03744 0.12068 0.0
H1364 H 0.56938 0.99315 0.09793 0.0
C1365 C 0.61543 0.00401 0.0736 0.0
C1366 C 0.60054 0.02792 0.07986 0.0
C1367 C 0.62616 0.00295 0.06538 0.0
C1368 C 0.56308 0.02918 0.13122 0.0
C1369 C 0.57272 0.02884 0.11974 0.0
C1370 C 0.57784 0.00297 0.09276 0.0
C1371 C 0.6112 0.01364 0.06778 0.0
C1372 C 0.59969 0.01457 0.07673 0.0
C1373 C 0.5684 0.01725 0.10771 0.0
C1374 C 0.57886 0.01634 0.09632 0.0
H1375 H 0.6342 0.02818 0.03459 0.0
H1376 H 0.61509 0.02982 0.04875 0.0
H1377 H 0.58689 0.99158 0.08054 0.0
H1378 H 0.53371 0.99768 0.11842 0.0
H1379 H 0.55034 0.99726 0.09794 0.0
C1380 C 0.97467 0.62029 0.04834 0.0
C1381 C 0.98717 0.6332 0.0528 0.0
C1382 C 0.97201 0.6073 0.0555 0.0
C1383 C 0.98263 0.5933 0.0929 0.0
H1384 H 0.96536 0.55765 0.06542 0.0
C1385 C 0.97331 0.53223 0.09777 0.0
C1386 C 0.9694 0.52963 0.11526 0.0
C1387 C 0.9746 0.54439 0.08971 0.0
C1388 C 0.97027 0.56754 0.07324 0.0
H1389 H 0.00669 0.64254 0.06824 0.0
H1390 H 0.00228 0.61998 0.08024 0.0
H1391 H 0.96976 0.57991 0.052 0.0
H1392 H 0.96365 0.53778 0.1379 0.0
H1393 H 0.9654 0.55859 0.12371 0.0
H1394 H 0.98361 0.58113 0.11396 0.0
C1395 C 0.99438 0.61986 0.07148 0.0
C1396 C 0.97264 0.58026 0.0656 0.0
C1397 C 0.99699 0.63282 0.06442 0.0
C1398 C 0.96651 0.53931 0.12436 0.0
C1399 C 0.96772 0.55139 0.11628 0.0
C1400 C 0.98032 0.58063 0.10049 0.0
C1401 C 0.98181 0.60696 0.06724 0.0
C1402 C 0.97892 0.59331 0.07533 0.0
C1403 C 0.97197 0.5542 0.09893 0.0
C1404 C 0.97414 0.56759 0.09077 0.0
H1405 H 0.96687 0.62024 0.03946 0.0
H1406 H 0.96215 0.59759 0.05209 0.0
H1407 H 0.98729 0.6031 0.10086 0.0
H1408 H 0.97544 0.52492 0.09031 0.0
H1409 H 0.97801 0.54628 0.07638 0.0
C1410 C 0.36948 0.36227 0.02356 0.0
C1411 C 0.37426 0.35847 0.00859 0.0
C1412 C 0.37782 0.36689 0.03884 0.0
C1413 C 0.408 0.36797 0.0622 0.0
H1414 H 0.41602 0.40571 0.0788 0.0
C1415 C 0.44416 0.40018 0.12276 0.0
C1416 C 0.45481 0.41423 0.11887 0.0
C1417 C 0.4334 0.39174 0.11049 0.0
C1418 C 0.41378 0.39512 0.07438 0.0
H1419 H 0.39114 0.35566 0.99828 0.0
H1420 H 0.4056 0.36356 0.02506 0.0
H1421 H 0.39818 0.39311 0.05569 0.0
H1422 H 0.46283 0.43 0.09854 0.0
H1423 H 0.44382 0.41553 0.07761 0.0
H1424 H 0.42384 0.37018 0.08084 0.0
C1425 C 0.39543 0.36304 0.0249 0.0
C1426 C 0.40352 0.38787 0.06127 0.0
C1427 C 0.38719 0.35861 0.00955 0.0
C1428 C 0.45461 0.41944 0.10227 0.0
C1429 C 0.44377 0.41113 0.09019 0.0
C1430 C 0.41813 0.37514 0.07557 0.0
C1431 C 0.391 0.36759 0.03954 0.0
C1432 C 0.40072 0.37435 0.05481 0.0
C1433 C 0.433 0.39728 0.09424 0.0
C1434 C 0.4213 0.38891 0.08148 0.0
H1435 H 0.35957 0.36228 0.02328 0.0
H1436 H 0.37413 0.37027 0.04999 0.0
H1437 H 0.406 0.35754 0.05745 0.0
H1438 H 0.44389 0.39583 0.13543 0.0
H1439 H 0.42517 0.38106 0.11387 0.0
C1440 C 0.6361 0.68097 0.36278 0.0
C1441 C 0.64912 0.68143 0.3611 0.0
C1442 C 0.63357 0.68725 0.37733 0.0
C1443 C 0.65223 0.71703 0.40805 0.0
H1444 H 0.61722 0.69948 0.43322 0.0
C1445 C 0.64263 0.74859 0.46241 0.0
C1446 C 0.62889 0.74646 0.46388 0.0
C1447 C 0.6452 0.73959 0.4516 0.0
C1448 C 0.62699 0.70462 0.4262 0.0
H1449 H 0.66952 0.68844 0.37364 0.0
H1450 H 0.66517 0.69973 0.39897 0.0
H1451 H 0.62136 0.68525 0.41146 0.0
H1452 H 0.60701 0.73285 0.45521 0.0
H1453 H 0.6116 0.71774 0.43565 0.0
H1454 H 0.65765 0.73658 0.42194 0.0
C1455 C 0.65692 0.69439 0.38903 0.0
C1456 C 0.62939 0.69641 0.41384 0.0
C1457 C 0.65937 0.68786 0.3746 0.0
C1458 C 0.61778 0.73501 0.45426 0.0
C1459 C 0.62038 0.72614 0.44322 0.0
C1460 C 0.64976 0.72531 0.42019 0.0
C1461 C 0.64408 0.69434 0.39038 0.0
C1462 C 0.64199 0.70257 0.40456 0.0
C1463 C 0.63415 0.72834 0.44167 0.0
C1464 C 0.63705 0.71927 0.42935 0.0
H1465 H 0.62797 0.67604 0.35263 0.0
H1466 H 0.62361 0.68713 0.37798 0.0
H1467 H 0.66195 0.72212 0.40088 0.0
H1468 H 0.65154 0.75739 0.46937 0.0
H1469 H 0.6559 0.74152 0.45103 0.0
C1470 C 0.30095 0.9565 0.41882 0.0
C1471 C 0.30521 0.95573 0.40187 0.0
C1472 C 0.29252 0.94395 0.4278 0.0
C1473 C 0.26612 0.90638 0.4221 0.0
H1474 H 0.27807 0.90208 0.46823 0.0
C1475 C 0.23316 0.85455 0.45977 0.0
C1476 C 0.23218 0.85602 0.47778 0.0
C1477 C 0.2429 0.86623 0.45031 0.0
C1478 C 0.27445 0.90317 0.45547 0.0
H1479 H 0.30382 0.94128 0.38088 0.0
H1480 H 0.28866 0.91925 0.39649 0.0
H1481 H 0.29313 0.92361 0.45201 0.0
H1482 H 0.24053 0.87066 0.50013 0.0
H1483 H 0.25716 0.89127 0.48361 0.0
H1484 H 0.24718 0.88637 0.42569 0.0
C1485 C 0.29203 0.9296 0.40283 0.0
C1486 C 0.28314 0.91546 0.44617 0.0
C1487 C 0.3007 0.94217 0.39395 0.0
C1488 C 0.24122 0.86927 0.48625 0.0
C1489 C 0.25079 0.88104 0.47676 0.0
C1490 C 0.25731 0.89421 0.43151 0.0
C1491 C 0.28799 0.93041 0.41988 0.0
C1492 C 0.27902 0.91718 0.42945 0.0
C1493 C 0.25167 0.87972 0.45862 0.0
C1494 C 0.26133 0.89245 0.44836 0.0
H1495 H 0.30432 0.9668 0.42527 0.0
H1496 H 0.28943 0.94481 0.4409 0.0
H1497 H 0.26268 0.90756 0.40927 0.0
H1498 H 0.22635 0.84436 0.45301 0.0
H1499 H 0.24348 0.86467 0.43647 0.0
C1500 C 0.04019 0.33775 0.37541 0.0
C1501 C 0.04595 0.34698 0.36137 0.0
C1502 C 0.04772 0.34083 0.39124 0.0
C1503 C 0.07653 0.36959 0.41795 0.0
H1504 H 0.08243 0.33913 0.43465 0.0
C1505 C 0.12139 0.38029 0.46704 0.0
C1506 C 0.11953 0.36928 0.47813 0.0
C1507 C 0.11094 0.3779 0.4546 0.0
C1508 C 0.08067 0.34769 0.43049 0.0
H1509 H 0.06384 0.36703 0.3532 0.0
H1510 H 0.07687 0.37247 0.38093 0.0
H1511 H 0.06658 0.33442 0.40982 0.0
H1512 H 0.10505 0.34749 0.48576 0.0
H1513 H 0.08651 0.34346 0.46459 0.0
H1514 H 0.09057 0.38288 0.43863 0.0
C1515 C 0.06656 0.36283 0.37964 0.0
C1516 C 0.07161 0.34497 0.41617 0.0
C1517 C 0.05914 0.35965 0.36373 0.0
C1518 C 0.10677 0.35609 0.47719 0.0
C1519 C 0.09621 0.35377 0.46497 0.0
C1520 C 0.08546 0.37226 0.43245 0.0
C1521 C 0.06104 0.35331 0.39343 0.0
C1522 C 0.06963 0.35595 0.40959 0.0
C1523 C 0.09831 0.3645 0.45317 0.0
C1524 C 0.08784 0.36141 0.43874 0.0
H1525 H 0.03006 0.3279 0.37403 0.0
H1526 H 0.0432 0.33336 0.40173 0.0
H1527 H 0.07507 0.3782 0.4132 0.0
H1528 H 0.13122 0.39051 0.46744 0.0
H1529 H 0.11306 0.38636 0.44564 0.0
C1530 C 0.02977 0.29447 0.29991 0.0
C1531 C 0.03267 0.30877 0.29928 0.0
C1532 C 0.03821 0.29019 0.29101 0.0
C1533 C 0.07334 0.30424 0.27276 0.0
H1534 H 0.05541 0.27297 0.23835 0.0
C1535 C 0.10457 0.2998 0.21681 0.0
C1536 C 0.10239 0.2862 0.21181 0.0
C1537 C 0.09561 0.30107 0.22849 0.0
C1538 C 0.06057 0.28156 0.2481 0.0
H1539 H 0.04685 0.32981 0.28908 0.0
H1540 H 0.06167 0.32247 0.27404 0.0
H1541 H 0.0408 0.27772 0.25822 0.0
H1542 H 0.0889 0.26321 0.21459 0.0
H1543 H 0.07314 0.26541 0.23527 0.0
H1544 H 0.09307 0.30825 0.26268 0.0
C1545 C 0.05288 0.31456 0.28136 0.0
C1546 C 0.05221 0.28426 0.25947 0.0
C1547 C 0.04434 0.31876 0.28997 0.0
C1548 C 0.09075 0.27382 0.21822 0.0
C1549 C 0.08177 0.27509 0.23005 0.0
C1550 C 0.08167 0.30148 0.26154 0.0
C1551 C 0.04982 0.30023 0.28164 0.0
C1552 C 0.05854 0.29589 0.27153 0.0
C1553 C 0.0843 0.28876 0.23556 0.0
C1554 C 0.07537 0.29042 0.24872 0.0
H1555 H 0.02079 0.2865 0.3069 0.0
H1556 H 0.03567 0.27907 0.29141 0.0
H1557 H 0.07847 0.31313 0.28214 0.0
H1558 H 0.11332 0.3095 0.2118 0.0
H1559 H 0.09759 0.31174 0.23205 0.0
C1560 C 0.67435 0.70423 0.29003 0.0
C1561 C 0.68406 0.70326 0.30126 0.0
C1562 C 0.67775 0.71726 0.28249 0.0
C1563 C 0.7075 0.7511 0.26884 0.0
H1564 H 0.68052 0.76451 0.26926 0.0
C1565 C 0.72 0.80549 0.23978 0.0
C1566 C 0.70885 0.80592 0.23109 0.0
C1567 C 0.71742 0.7934 0.24915 0.0
C1568 C 0.68811 0.76084 0.26881 0.0
H1569 H 0.70508 0.71523 0.31322 0.0
H1570 H 0.7111 0.73799 0.29974 0.0
H1571 H 0.67514 0.74257 0.28413 0.0
H1572 H 0.68638 0.79394 0.22486 0.0
H1573 H 0.6819 0.77274 0.24074 0.0
H1574 H 0.72029 0.76907 0.25307 0.0
C1575 C 0.70081 0.72863 0.29692 0.0
C1576 C 0.68504 0.74831 0.27741 0.0
C1577 C 0.69733 0.71562 0.30467 0.0
C1578 C 0.69513 0.79398 0.23169 0.0
C1579 C 0.69257 0.78186 0.24087 0.0
C1580 C 0.71051 0.76356 0.26005 0.0
C1581 C 0.69103 0.72957 0.2858 0.0
C1582 C 0.69465 0.74326 0.2774 0.0
C1583 C 0.70366 0.78144 0.24985 0.0
C1584 C 0.70079 0.76852 0.25979 0.0
H1585 H 0.66413 0.69491 0.28691 0.0
H1586 H 0.67008 0.71764 0.27378 0.0
H1587 H 0.71503 0.74735 0.26851 0.0
H1588 H 0.73067 0.81462 0.23962 0.0
H1589 H 0.72619 0.79355 0.25608 0.0
C1590 C 0.29213 0.98089 0.32928 0.0
C1591 C 0.28681 0.97924 0.34616 0.0
C1592 C 0.28306 0.97707 0.31468 0.0
C1593 C 0.2468 0.96861 0.3009 0.0
H1594 H 0.25195 0.94753 0.26296 0.0
C1595 C 0.2022 0.93072 0.25285 0.0
C1596 C 0.20539 0.93043 0.23527 0.0
C1597 C 0.21286 0.93918 0.26508 0.0
C1598 C 0.2505 0.95362 0.2733 0.0
H1599 H 0.26774 0.97237 0.36086 0.0
H1600 H 0.25196 0.96545 0.33552 0.0
H1601 H 0.26931 0.95743 0.28691 0.0
H1602 H 0.22213 0.93906 0.21656 0.0
H1603 H 0.24091 0.95385 0.23807 0.0
H1604 H 0.22767 0.96426 0.28755 0.0
C1605 C 0.26318 0.96997 0.3335 0.0
C1606 C 0.26046 0.95931 0.28705 0.0
C1607 C 0.27224 0.97385 0.34807 0.0
C1608 C 0.21939 0.93916 0.23003 0.0
C1609 C 0.23013 0.94751 0.24234 0.0
C1610 C 0.2368 0.96283 0.28722 0.0
C1611 C 0.26844 0.97147 0.31661 0.0
C1612 C 0.2586 0.96664 0.30119 0.0
C1613 C 0.22699 0.94743 0.26003 0.0
C1614 C 0.23841 0.95505 0.27344 0.0
H1615 H 0.30331 0.98508 0.32731 0.0
H1616 H 0.28751 0.97854 0.30188 0.0
H1617 H 0.24518 0.97447 0.31138 0.0
H1618 H 0.19146 0.92414 0.25719 0.0
H1619 H 0.21013 0.93878 0.27863 0.0
C1620 C 0.69198 0.97586 0.33186 0.0
C1621 C 0.67912 0.97588 0.33172 0.0
C1622 C 0.69583 0.97061 0.31744 0.0
C1623 C 0.6801 0.9445 0.28168 0.0
H1624 H 0.71814 0.96303 0.26398 0.0
C1625 C 0.69458 0.91711 0.22742 0.0
C1626 C 0.70776 0.91791 0.2291 0.0
C1627 C 0.69145 0.92591 0.23779 0.0
C1628 C 0.7075 0.95764 0.26886 0.0
H1629 H 0.66039 0.97075 0.31615 0.0
H1630 H 0.66705 0.96134 0.29103 0.0
H1631 H 0.71203 0.97538 0.28623 0.0
H1632 H 0.72815 0.92872 0.24254 0.0
H1633 H 0.72259 0.94378 0.26114 0.0
H1634 H 0.67564 0.9265 0.2651 0.0
C1635 C 0.67414 0.96544 0.30232 0.0
C1636 C 0.704 0.96476 0.28154 0.0
C1637 C 0.67036 0.97088 0.31666 0.0
C1638 C 0.71794 0.92799 0.24094 0.0
C1639 C 0.71474 0.93665 0.25153 0.0
C1640 C 0.68363 0.93731 0.26919 0.0
C1641 C 0.68683 0.96511 0.30266 0.0
C1642 C 0.6903 0.9582 0.28818 0.0
C1643 C 0.70135 0.93554 0.25031 0.0
C1644 C 0.69742 0.94371 0.26272 0.0
H1645 H 0.699 0.97971 0.34321 0.0
H1646 H 0.70562 0.97038 0.31812 0.0
H1647 H 0.66952 0.93909 0.28676 0.0
H1648 H 0.68662 0.90954 0.2182 0.0
H1649 H 0.68118 0.925 0.23614 0.0
C1650 C 0.03621 0.71896 0.27584 0.0
C1651 C 0.03054 0.71764 0.29244 0.0
C1652 C 0.0429 0.73225 0.26787 0.0
C1653 C 0.06286 0.77054 0.27598 0.0
H1654 H 0.05059 0.77319 0.22932 0.0
C1655 C 0.09156 0.82359 0.23948 0.0
C1656 C 0.09386 0.82242 0.22176 0.0
C1657 C 0.08212 0.81144 0.2485 0.0
C1658 C 0.05427 0.77263 0.24227 0.0
H1659 H 0.02772 0.72925 0.31393 0.0
H1660 H 0.03992 0.75272 0.30012 0.0
H1661 H 0.03798 0.75061 0.24456 0.0
H1662 H 0.08796 0.8078 0.19945 0.0
H1663 H 0.07188 0.78648 0.2152 0.0
H1664 H 0.07961 0.79221 0.27349 0.0
C1665 C 0.03895 0.74335 0.29326 0.0
C1666 C 0.04698 0.75972 0.25101 0.0
C1667 C 0.03199 0.72996 0.30112 0.0
C1668 C 0.08622 0.80899 0.21307 0.0
C1669 C 0.07697 0.79679 0.22214 0.0
C1670 C 0.07033 0.78339 0.26714 0.0
C1671 C 0.04427 0.74454 0.27648 0.0
C1672 C 0.05132 0.75853 0.26784 0.0
C1673 C 0.07498 0.79779 0.24006 0.0
C1674 C 0.06625 0.78456 0.25005 0.0
H1675 H 0.0352 0.70965 0.2688 0.0
H1676 H 0.04706 0.73296 0.25499 0.0
H1677 H 0.06645 0.76982 0.28892 0.0
H1678 H 0.09728 0.83389 0.24641 0.0
H1679 H 0.08062 0.81272 0.26217 0.0
C1680 C 0.27279 0.30737 0.32753 0.0
C1681 C 0.28731 0.31749 0.32675 0.0
C1682 C 0.26445 0.30201 0.31234 0.0
C1683 C 0.26318 0.31085 0.26649 0.0
H1684 H 0.23131 0.27182 0.26389 0.0
C1685 C 0.22297 0.28999 0.20859 0.0
C1686 C 0.20898 0.28434 0.21395 0.0
C1687 C 0.23365 0.29219 0.22062 0.0
C1688 C 0.24021 0.28272 0.2644 0.0
H1689 H 0.3045 0.32963 0.30927 0.0
H1690 H 0.28995 0.32009 0.2827 0.0
H1691 H 0.24824 0.2794 0.2883 0.0
H1692 H 0.19495 0.27578 0.23564 0.0
H1693 H 0.21349 0.27939 0.25658 0.0
H1694 H 0.25496 0.31419 0.2427 0.0
C1695 C 0.28498 0.3165 0.29512 0.0
C1696 C 0.24987 0.2871 0.27842 0.0
C1697 C 0.29333 0.32193 0.31036 0.0
C1698 C 0.20568 0.28018 0.23124 0.0
C1699 C 0.21628 0.28218 0.24317 0.0
C1700 C 0.25357 0.30642 0.25239 0.0
C1701 C 0.27041 0.30654 0.29594 0.0
C1702 C 0.26124 0.30135 0.27991 0.0
C1703 C 0.23043 0.28854 0.23811 0.0
C1704 C 0.24178 0.29244 0.25146 0.0
H1705 H 0.26776 0.30374 0.33991 0.0
H1706 H 0.25323 0.29459 0.31352 0.0
H1707 H 0.27172 0.32193 0.26727 0.0
H1708 H 0.22575 0.29334 0.19533 0.0
H1709 H 0.24446 0.29705 0.21637 0.0
C1710 C 0.29514 0.35002 0.40116 0.0
C1711 C 0.30325 0.359 0.38782 0.0
C1712 C 0.28729 0.35388 0.4118 0.0
C1713 C 0.27178 0.37738 0.41549 0.0
H1714 H 0.27065 0.36825 0.46424 0.0
C1715 C 0.24177 0.39101 0.46772 0.0
C1716 C 0.23249 0.37907 0.47737 0.0
C1717 C 0.25162 0.39025 0.45693 0.0
C1718 C 0.27089 0.37087 0.45066 0.0
H1719 H 0.30933 0.37904 0.37501 0.0
H1720 H 0.29571 0.38593 0.3939 0.0
H1721 H 0.28554 0.36387 0.44473 0.0
H1722 H 0.2264 0.35719 0.48378 0.0
H1723 H 0.2437 0.35593 0.46519 0.0
H1724 H 0.25703 0.38437 0.42162 0.0
C1725 C 0.29531 0.37578 0.39593 0.0
C1726 C 0.27935 0.3683 0.43946 0.0
C1727 C 0.30313 0.37185 0.38515 0.0
C1728 C 0.2334 0.3665 0.47638 0.0
C1729 C 0.24335 0.36582 0.46585 0.0
C1730 C 0.26339 0.38008 0.42679 0.0
C1731 C 0.28748 0.36692 0.40956 0.0
C1732 C 0.2796 0.37114 0.42164 0.0
C1733 C 0.25248 0.37764 0.45593 0.0
C1734 C 0.26261 0.37651 0.44438 0.0
H1735 H 0.295 0.34009 0.40369 0.0
H1736 H 0.28111 0.34662 0.42189 0.0
H1737 H 0.2717 0.37964 0.40183 0.0
H1738 H 0.2412 0.40078 0.46823 0.0
H1739 H 0.25859 0.39951 0.44945 0.0
C1740 C 0.6503 0.95587 0.40646 0.0
C1741 C 0.64314 0.95458 0.39062 0.0
C1742 C 0.64774 0.94362 0.41538 0.0
C1743 C 0.63587 0.90544 0.40969 0.0
H1744 H 0.62779 0.90361 0.45883 0.0
C1745 C 0.62094 0.85446 0.44879 0.0
C1746 C 0.62609 0.85642 0.46607 0.0
C1747 C 0.6224 0.86613 0.43938 0.0
C1748 C 0.63024 0.904 0.44518 0.0
H1749 H 0.62789 0.93946 0.37154 0.0
H1750 H 0.62364 0.91797 0.38703 0.0
H1751 H 0.63189 0.92462 0.44271 0.0
H1752 H 0.63662 0.87229 0.48705 0.0
H1753 H 0.6398 0.89264 0.47046 0.0
H1754 H 0.6347 0.88508 0.41218 0.0
C1755 C 0.63114 0.9285 0.39255 0.0
C1756 C 0.63251 0.91602 0.43594 0.0
C1757 C 0.63353 0.94078 0.38374 0.0
C1758 C 0.63272 0.87036 0.47369 0.0
C1759 C 0.63433 0.88204 0.46423 0.0
C1760 C 0.6338 0.89348 0.41898 0.0
C1761 C 0.63814 0.92982 0.40852 0.0
C1762 C 0.6354 0.91688 0.41814 0.0
C1763 C 0.62918 0.8801 0.44695 0.0
C1764 C 0.63101 0.89263 0.43688 0.0
H1765 H 0.65773 0.96636 0.41212 0.0
H1766 H 0.65337 0.94493 0.42759 0.0
H1767 H 0.6382 0.9059 0.39599 0.0
H1768 H 0.61592 0.84393 0.44239 0.0
H1769 H 0.61812 0.86415 0.42619 0.0
C1770 C 0.04554 0.69676 0.36293 0.0
C1771 C 0.05032 0.69355 0.34754 0.0
C1772 C 0.05409 0.70129 0.37805 0.0
C1773 C 0.09181 0.71719 0.39218 0.0
H1774 H 0.07601 0.71022 0.43823 0.0
C1775 C 0.12687 0.73746 0.45472 0.0
C1776 C 0.12375 0.74604 0.4657 0.0
C1777 C 0.11741 0.72905 0.44127 0.0
C1778 C 0.08054 0.7122 0.42543 0.0
H1779 H 0.06748 0.69183 0.33618 0.0
H1780 H 0.08211 0.69911 0.36267 0.0
H1781 H 0.0604 0.69883 0.41278 0.0
H1782 H 0.10808 0.75206 0.47185 0.0
H1783 H 0.09139 0.7371 0.44852 0.0
H1784 H 0.11196 0.73044 0.40495 0.0
C1785 C 0.07201 0.69869 0.36298 0.0
C1786 C 0.07161 0.70577 0.41082 0.0
C1787 C 0.06358 0.69441 0.34778 0.0
C1788 C 0.11074 0.74557 0.4635 0.0
C1789 C 0.10118 0.73697 0.45024 0.0
C1790 C 0.10073 0.72341 0.4068 0.0
C1791 C 0.06753 0.7025 0.37823 0.0
C1792 C 0.07709 0.70837 0.39396 0.0
C1793 C 0.10456 0.72888 0.43877 0.0
C1794 C 0.09517 0.72115 0.42353 0.0
H1795 H 0.03541 0.69628 0.36313 0.0
H1796 H 0.05031 0.70433 0.38939 0.0
H1797 H 0.09645 0.71974 0.37947 0.0
H1798 H 0.13688 0.73772 0.45611 0.0
H1799 H 0.12023 0.72286 0.43263 0.0
C1800 C 0.3061 0.02264 0.69085 0.0
C1801 C 0.31919 0.02313 0.6901 0.0
C1802 C 0.30294 0.02865 0.70514 0.0
C1803 C 0.31985 0.05772 0.73695 0.0
H1804 H 0.28459 0.03825 0.76149 0.0
C1805 C 0.30807 0.0869 0.79215 0.0
C1806 C 0.29407 0.08402 0.79369 0.0
C1807 C 0.31121 0.07845 0.78111 0.0
C1808 C 0.29441 0.04394 0.75464 0.0
H1809 H 0.3391 0.03006 0.70393 0.0
H1810 H 0.33367 0.04093 0.72874 0.0
H1811 H 0.28971 0.02512 0.73923 0.0
H1812 H 0.27235 0.06955 0.785 0.0
H1813 H 0.27791 0.05548 0.76501 0.0
H1814 H 0.32433 0.07672 0.75146 0.0
C1815 C 0.32585 0.03573 0.7183 0.0
C1816 C 0.29737 0.03635 0.74199 0.0
C1817 C 0.32891 0.02946 0.70416 0.0
C1818 C 0.28329 0.07232 0.78398 0.0
C1819 C 0.28647 0.06404 0.77269 0.0
C1820 C 0.31679 0.06538 0.74934 0.0
C1821 C 0.3129 0.03551 0.71882 0.0
C1822 C 0.31008 0.0432 0.73299 0.0
C1823 C 0.3005 0.06704 0.771 0.0
C1824 C 0.30399 0.05864 0.75832 0.0
H1825 H 0.29838 0.01779 0.68024 0.0
H1826 H 0.29291 0.02842 0.70519 0.0
H1827 H 0.32965 0.06329 0.73001 0.0
H1828 H 0.31673 0.0959 0.79918 0.0
H1829 H 0.32211 0.08097 0.78048 0.0
C1830 C 0.96767 0.26909 0.7203 0.0
C1831 C 0.96552 0.28082 0.7231 0.0
C1832 C 0.9592 0.25605 0.72843 0.0
C1833 C 0.92493 0.23462 0.74891 0.0
H1834 H 0.94368 0.21867 0.77606 0.0
C1835 C 0.89578 0.19304 0.80105 0.0
C1836 C 0.89903 0.18209 0.80368 0.0
C1837 C 0.9037 0.2042 0.78985 0.0
C1838 C 0.93823 0.2228 0.7683 0.0
H1839 H 0.95266 0.28794 0.73651 0.0
H1840 H 0.93774 0.26515 0.75029 0.0
H1841 H 0.95766 0.23952 0.75827 0.0
H1842 H 0.91324 0.17435 0.79649 0.0
H1843 H 0.92677 0.19359 0.77644 0.0
H1844 H 0.90551 0.21795 0.75877 0.0
C1845 C 0.94596 0.26605 0.7418 0.0
C1846 C 0.94626 0.23476 0.75814 0.0
C1847 C 0.95454 0.27913 0.7339 0.0
C1848 C 0.91036 0.18254 0.79467 0.0
C1849 C 0.91823 0.19366 0.78332 0.0
C1850 C 0.91689 0.22258 0.75889 0.0
C1851 C 0.9483 0.25444 0.7393 0.0
C1852 C 0.9397 0.24094 0.74863 0.0
C1853 C 0.91499 0.20464 0.78078 0.0
C1854 C 0.92346 0.21669 0.76901 0.0
H1855 H 0.97607 0.27006 0.7121 0.0
H1856 H 0.96118 0.24723 0.72625 0.0
H1857 H 0.9196 0.23908 0.7415 0.0
H1858 H 0.88699 0.19294 0.80752 0.0
H1859 H 0.90103 0.21258 0.78847 0.0
C1860 C 0.73278 0.69842 0.69454 0.0
C1861 C 0.72076 0.68462 0.69261 0.0
C1862 C 0.74109 0.7025 0.70985 0.0
C1863 C 0.75253 0.68729 0.74299 0.0
H1864 H 0.76381 0.72211 0.7706 0.0
C1865 C 0.78678 0.69943 0.80501 0.0
C1866 C 0.7971 0.7138 0.80912 0.0
C1867 C 0.77659 0.69614 0.7919 0.0
C1868 C 0.76095 0.71245 0.76291 0.0
H1869 H 0.70782 0.66442 0.70541 0.0
H1870 H 0.72258 0.67146 0.73193 0.0
H1871 H 0.74767 0.7162 0.7455 0.0
H1872 H 0.80435 0.73601 0.80277 0.0
H1873 H 0.7872 0.73024 0.77916 0.0
H1874 H 0.76622 0.68375 0.75953 0.0
C1875 C 0.72545 0.67912 0.72164 0.0
C1876 C 0.75163 0.70905 0.74863 0.0
C1877 C 0.717 0.67514 0.70649 0.0
C1878 C 0.79678 0.7248 0.79983 0.0
C1879 C 0.78674 0.72149 0.78642 0.0
C1880 C 0.76204 0.69081 0.757 0.0
C1881 C 0.73765 0.69276 0.72334 0.0
C1882 C 0.7473 0.6964 0.73863 0.0
C1883 C 0.77658 0.70709 0.78215 0.0
C1884 C 0.76635 0.7034 0.76725 0.0
H1885 H 0.73591 0.70599 0.6841 0.0
H1886 H 0.7505 0.71305 0.71087 0.0
H1887 H 0.74951 0.67758 0.73528 0.0
H1888 H 0.78673 0.69058 0.81158 0.0
H1889 H 0.76877 0.68494 0.78934 0.0
C1890 C 0.70654 0.6315 0.63023 0.0
C1891 C 0.70888 0.64561 0.6313 0.0
C1892 C 0.71477 0.62816 0.61944 0.0
C1893 C 0.73694 0.64215 0.58077 0.0
H1894 H 0.7478 0.61376 0.59115 0.0
C1895 C 0.77623 0.63456 0.53956 0.0
C1896 C 0.77227 0.62037 0.53443 0.0
C1897 C 0.76849 0.63722 0.55183 0.0
C1898 C 0.74472 0.62163 0.58807 0.0
H1899 H 0.72233 0.66744 0.62294 0.0
H1900 H 0.73693 0.6618 0.60472 0.0
H1901 H 0.7349 0.61951 0.61261 0.0
H1902 H 0.75704 0.59784 0.5383 0.0
H1903 H 0.74366 0.60256 0.56009 0.0
H1904 H 0.74696 0.64443 0.5564 0.0
C1905 C 0.72841 0.65317 0.61163 0.0
C1906 C 0.73733 0.62491 0.60032 0.0
C1907 C 0.72009 0.65644 0.62219 0.0
C1908 C 0.76047 0.60889 0.54208 0.0
C1909 C 0.7528 0.61157 0.55453 0.0
C1910 C 0.74442 0.63897 0.56866 0.0
C1911 C 0.72558 0.63892 0.60968 0.0
C1912 C 0.73343 0.63529 0.59684 0.0
C1913 C 0.7567 0.62577 0.55942 0.0
C1914 C 0.74844 0.62874 0.57221 0.0
H1915 H 0.69794 0.62291 0.63709 0.0
H1916 H 0.71224 0.61706 0.6182 0.0
H1917 H 0.73377 0.64989 0.57743 0.0
H1918 H 0.78546 0.64366 0.53429 0.0
H1919 H 0.77183 0.64827 0.55558 0.0
C1920 C 0.34917 0.04304 0.61527 0.0
C1921 C 0.35514 0.04362 0.63177 0.0
C1922 C 0.3524 0.0557 0.60686 0.0
C1923 C 0.36216 0.09278 0.61396 0.0
H1924 H 0.37778 0.099 0.56785 0.0
C1925 C 0.37863 0.14566 0.57865 0.0
C1926 C 0.37657 0.14482 0.56054 0.0
C1927 C 0.3769 0.1337 0.58763 0.0
C1928 C 0.37321 0.09737 0.58059 0.0
H1929 H 0.36893 0.05786 0.65257 0.0
H1930 H 0.3742 0.08007 0.63801 0.0
H1931 H 0.37253 0.07718 0.58295 0.0
H1932 H 0.37091 0.13094 0.53755 0.0
H1933 H 0.36721 0.10986 0.55316 0.0
H1934 H 0.36213 0.11252 0.61145 0.0
C1935 C 0.3672 0.06978 0.63156 0.0
C1936 C 0.37031 0.08491 0.58926 0.0
C1937 C 0.36422 0.05711 0.63983 0.0
C1938 C 0.37273 0.13187 0.55152 0.0
C1939 C 0.3707 0.11982 0.56051 0.0
C1940 C 0.36477 0.10511 0.60516 0.0
C1941 C 0.36141 0.06916 0.61495 0.0
C1942 C 0.36475 0.08251 0.60599 0.0
C1943 C 0.37275 0.12055 0.57871 0.0
C1944 C 0.37031 0.10758 0.58831 0.0
H1945 H 0.34217 0.03279 0.60874 0.0
H1946 H 0.34775 0.05499 0.59408 0.0
H1947 H 0.35776 0.09107 0.62682 0.0
H1948 H 0.3817 0.1556 0.58585 0.0
H1949 H 0.37888 0.13482 0.60156 0.0
C1950 C 0.93862 0.30369 0.66077 0.0
C1951 C 0.95197 0.30483 0.66258 0.0
C1952 C 0.93097 0.29898 0.64501 0.0
C1953 C 0.92588 0.27555 0.60781 0.0
H1954 H 0.90418 0.29168 0.58809 0.0
C1955 C 0.87676 0.24278 0.5637 0.0
C1956 C 0.87589 0.24886 0.54801 0.0
C1957 C 0.8873 0.25094 0.57618 0.0
C1958 C 0.9103 0.28716 0.59336 0.0
H1959 H 0.96795 0.30234 0.64904 0.0
H1960 H 0.95442 0.29385 0.62155 0.0
H1961 H 0.92089 0.30431 0.61245 0.0
H1962 H 0.88538 0.26852 0.53341 0.0
H1963 H 0.90357 0.28294 0.55566 0.0
H1964 H 0.91496 0.25815 0.58918 0.0
C1965 C 0.94994 0.29667 0.63237 0.0
C1966 C 0.91977 0.29432 0.60732 0.0
C1967 C 0.95769 0.30157 0.64808 0.0
C1968 C 0.88564 0.2635 0.54538 0.0
C1969 C 0.89609 0.27174 0.55805 0.0
C1970 C 0.91628 0.2683 0.59404 0.0
C1971 C 0.93642 0.29513 0.63077 0.0
C1972 C 0.92751 0.28847 0.61483 0.0
C1973 C 0.89711 0.26547 0.57346 0.0
C1974 C 0.90824 0.27392 0.58688 0.0
H1975 H 0.93394 0.30619 0.67164 0.0
H1976 H 0.92053 0.29778 0.64419 0.0
H1977 H 0.93161 0.27072 0.61343 0.0
H1978 H 0.86922 0.23169 0.56647 0.0
H1979 H 0.88767 0.24592 0.58812 0.0
C1980 C 0.33622 0.31094 0.64908 0.0
C1981 C 0.34569 0.3163 0.66348 0.0
C1982 C 0.33933 0.3052 0.63443 0.0
C1983 C 0.3679 0.30314 0.61171 0.0
H1984 H 0.33886 0.2639 0.59974 0.0
C1985 C 0.37305 0.26686 0.55806 0.0
C1986 C 0.36992 0.25324 0.5639 0.0
C1987 C 0.37016 0.27591 0.56839 0.0
C1988 C 0.34702 0.27489 0.60285 0.0
H1989 H 0.36621 0.3207 0.67334 0.0
H1990 H 0.37167 0.31087 0.64772 0.0
H1991 H 0.33381 0.27813 0.62048 0.0
H1992 H 0.36186 0.23885 0.58562 0.0
H1993 H 0.35643 0.25439 0.60321 0.0
H1994 H 0.38121 0.2997 0.59433 0.0
C1995 C 0.36184 0.31103 0.64778 0.0
C1996 C 0.3441 0.28307 0.61459 0.0
C1997 C 0.35865 0.31656 0.66251 0.0
C1998 C 0.36405 0.24904 0.58042 0.0
C1999 C 0.36098 0.25797 0.59057 0.0
C2000 C 0.37076 0.29501 0.59974 0.0
C2001 C 0.35205 0.30495 0.63379 0.0
C2002 C 0.35461 0.29716 0.61946 0.0
C2003 C 0.36391 0.27144 0.58463 0.0
C2004 C 0.36045 0.28069 0.59557 0.0
H2005 H 0.32614 0.31058 0.64944 0.0
H2006 H 0.33163 0.30064 0.62376 0.0
H2007 H 0.37617 0.314 0.6152 0.0
H2008 H 0.37743 0.2704 0.54535 0.0
H2009 H 0.3725 0.28626 0.56353 0.0
C2010 C 0.71181 0.04453 0.60582 0.0
C2011 C 0.70285 0.04554 0.61798 0.0
C2012 C 0.72013 0.05608 0.59527 0.0
C2013 C 0.73425 0.09526 0.59067 0.0
H2014 H 0.73828 0.08668 0.54257 0.0
C2015 C 0.75968 0.13922 0.53949 0.0
C2016 C 0.77024 0.13879 0.52973 0.0
C2017 C 0.7509 0.12769 0.54984 0.0
C2018 C 0.73728 0.08921 0.55599 0.0
H2019 H 0.6957 0.05953 0.62877 0.0
H2020 H 0.70995 0.07956 0.6101 0.0
H2021 H 0.72437 0.06703 0.56194 0.0
H2022 H 0.7796 0.12586 0.52255 0.0
H2023 H 0.76417 0.10563 0.54054 0.0
H2024 H 0.74703 0.11749 0.58454 0.0
C2025 C 0.71078 0.06995 0.60892 0.0
C2026 C 0.72939 0.07797 0.56713 0.0
C2027 C 0.70256 0.05844 0.61959 0.0
C2028 C 0.77158 0.12647 0.53005 0.0
C2029 C 0.76271 0.11488 0.54024 0.0
C2030 C 0.74203 0.1065 0.57947 0.0
C2031 C 0.71956 0.06886 0.59651 0.0
C2032 C 0.72786 0.08085 0.58465 0.0
C2033 C 0.75244 0.11548 0.55043 0.0
C2034 C 0.74368 0.10357 0.56206 0.0
H2035 H 0.71228 0.03476 0.60422 0.0
H2036 H 0.72698 0.05496 0.5861 0.0
H2037 H 0.73346 0.09787 0.60413 0.0
H2038 H 0.7585 0.14865 0.53955 0.0
H2039 H 0.74298 0.12835 0.55748 0.0
C2040 C 0.9521 0.66504 0.64462 0.0
C2041 C 0.94822 0.65637 0.65928 0.0
C2042 C 0.94344 0.6605 0.62959 0.0
C2043 C 0.90644 0.63419 0.61487 0.0
H2044 H 0.92184 0.64635 0.56915 0.0
C2045 C 0.87001 0.62614 0.55629 0.0
C2046 C 0.87346 0.62321 0.53981 0.0
C2047 C 0.87953 0.63 0.57034 0.0
C2048 C 0.91734 0.64266 0.58177 0.0
H2049 H 0.93264 0.63588 0.66944 0.0
H2050 H 0.91794 0.62761 0.64304 0.0
H2051 H 0.9378 0.65267 0.59427 0.0
H2052 H 0.88952 0.62202 0.52492 0.0
H2053 H 0.90604 0.62812 0.5497 0.0
H2054 H 0.88606 0.62355 0.60237 0.0
C2055 C 0.9273 0.6382 0.64328 0.0
C2056 C 0.92652 0.64651 0.59628 0.0
C2057 C 0.93578 0.64288 0.65842 0.0
C2058 C 0.88666 0.62425 0.53756 0.0
C2059 C 0.89613 0.62784 0.55174 0.0
C2060 C 0.89731 0.63012 0.60037 0.0
C2061 C 0.93085 0.64705 0.62874 0.0
C2062 C 0.92119 0.64246 0.61308 0.0
C2063 C 0.89267 0.63073 0.56836 0.0
C2064 C 0.90259 0.63448 0.58363 0.0
H2065 H 0.96161 0.67553 0.64496 0.0
H2066 H 0.94647 0.66775 0.61884 0.0
H2067 H 0.90184 0.63102 0.62754 0.0
H2068 H 0.85998 0.62566 0.55826 0.0
H2069 H 0.8766 0.63255 0.58273 0.0
C2070 C 0.9684 0.71076 0.71324 0.0
C2071 C 0.96984 0.69931 0.71942 0.0
C2072 C 0.9619 0.71666 0.72341 0.0
C2073 C 0.95582 0.72232 0.76825 0.0
H2074 H 0.9209 0.72025 0.75296 0.0
C2075 C 0.91673 0.72268 0.81662 0.0
C2076 C 0.90818 0.72848 0.812 0.0
C2077 C 0.92586 0.72197 0.80466 0.0
C2078 C 0.93082 0.72126 0.75734 0.0
H2079 H 0.96566 0.68509 0.74102 0.0
H2080 H 0.95466 0.69558 0.75877 0.0
H2081 H 0.93397 0.71386 0.73258 0.0
H2082 H 0.90289 0.73854 0.79126 0.0
H2083 H 0.91922 0.73778 0.77057 0.0
H2084 H 0.95279 0.72963 0.79297 0.0
C2085 C 0.95845 0.69991 0.74608 0.0
C2086 C 0.93825 0.71755 0.74565 0.0
C2087 C 0.96465 0.69386 0.73585 0.0
C2088 C 0.90939 0.73409 0.79531 0.0
C2089 C 0.91863 0.73348 0.78336 0.0
C2090 C 0.94854 0.72624 0.77984 0.0
C2091 C 0.95709 0.71139 0.74001 0.0
C2092 C 0.95055 0.71762 0.75122 0.0
C2093 C 0.92681 0.7272 0.7878 0.0
C2094 C 0.93568 0.72526 0.77472 0.0
H2095 H 0.9723 0.71516 0.70062 0.0
H2096 H 0.96088 0.72549 0.71849 0.0
H2097 H 0.9654 0.72259 0.77274 0.0
H2098 H 0.91624 0.71847 0.82944 0.0
H2099 H 0.93182 0.71686 0.8085 0.0
C2100 C 0.29633 0.27985 0.71789 0.0
C2101 C 0.30945 0.29233 0.72159 0.0
C2102 C 0.29318 0.26668 0.72492 0.0
C2103 C 0.30965 0.24694 0.74199 0.0
H2104 H 0.27561 0.22578 0.76846 0.0
C2105 C 0.30252 0.20229 0.78784 0.0
C2106 C 0.2889 0.19052 0.79033 0.0
C2107 C 0.30442 0.21386 0.77794 0.0
C2108 C 0.28502 0.23136 0.76083 0.0
H2109 H 0.32947 0.30067 0.73574 0.0
H2110 H 0.32415 0.27766 0.74749 0.0
H2111 H 0.27992 0.24745 0.75362 0.0
H2112 H 0.2666 0.18167 0.78398 0.0
H2113 H 0.26997 0.20155 0.76605 0.0
H2114 H 0.31475 0.23087 0.74886 0.0
C2115 C 0.31632 0.27811 0.73914 0.0
C2116 C 0.2875 0.24381 0.7524 0.0
C2117 C 0.31936 0.2913 0.73239 0.0
C2118 C 0.27726 0.19047 0.78225 0.0
C2119 C 0.27918 0.202 0.77215 0.0
C2120 C 0.30708 0.23439 0.75017 0.0
C2121 C 0.3032 0.26569 0.73553 0.0
C2122 C 0.29996 0.25185 0.74319 0.0
C2123 C 0.29278 0.21391 0.77 0.0
C2124 C 0.29488 0.22657 0.76001 0.0
H2125 H 0.28842 0.28028 0.70968 0.0
H2126 H 0.28299 0.25724 0.72193 0.0
H2127 H 0.31925 0.25286 0.73475 0.0
H2128 H 0.31178 0.20262 0.79357 0.0
H2129 H 0.31504 0.22289 0.77684 0.0
C2130 C 0.71406 0.03107 0.69514 0.0
C2131 C 0.71715 0.02427 0.68151 0.0
C2132 C 0.72283 0.03629 0.71005 0.0
C2133 C 0.75928 0.04663 0.72545 0.0
H2134 H 0.74477 0.04844 0.77062 0.0
C2135 C 0.79421 0.06497 0.7881 0.0
C2136 C 0.79413 0.07622 0.79768 0.0
C2137 C 0.78414 0.05749 0.77482 0.0
C2138 C 0.74894 0.048 0.75806 0.0
H2139 H 0.73143 0.01697 0.67319 0.0
H2140 H 0.74634 0.02545 0.69943 0.0
H2141 H 0.72836 0.03706 0.74584 0.0
H2142 H 0.78301 0.08812 0.80089 0.0
H2143 H 0.76518 0.07469 0.77813 0.0
H2144 H 0.77982 0.05733 0.73785 0.0
C2145 C 0.73749 0.02731 0.69841 0.0
C2146 C 0.73956 0.04156 0.74382 0.0
C2147 C 0.72888 0.02233 0.68338 0.0
C2148 C 0.78333 0.0794 0.79404 0.0
C2149 C 0.77313 0.07175 0.78093 0.0
C2150 C 0.76859 0.05283 0.73974 0.0
C2151 C 0.73477 0.03462 0.71183 0.0
C2152 C 0.74462 0.0409 0.72726 0.0
C2153 C 0.77359 0.06091 0.771 0.0
C2154 C 0.76353 0.05368 0.75614 0.0
H2155 H 0.70514 0.0328 0.69403 0.0
H2156 H 0.72046 0.04203 0.71993 0.0
H2157 H 0.76366 0.04667 0.7129 0.0
H2158 H 0.80213 0.06197 0.79076 0.0
H2159 H 0.78461 0.04905 0.76748 0.0
C2160 C 0.04051 0.31948 0.02527 0.0
C2161 C 0.04446 0.33407 0.02403 0.0
C2162 C 0.04809 0.31536 0.03621 0.0
C2163 C 0.08312 0.32953 0.05757 0.0
H2164 H 0.06401 0.29559 0.08551 0.0
C2165 C 0.11323 0.31548 0.10834 0.0
C2166 C 0.10937 0.30093 0.10976 0.0
C2167 C 0.1051 0.3194 0.09814 0.0
C2168 C 0.06952 0.305 0.07763 0.0
H2169 H 0.05934 0.35573 0.03361 0.0
H2170 H 0.07252 0.34851 0.05273 0.0
H2171 H 0.05011 0.30268 0.06749 0.0
H2172 H 0.09382 0.27908 0.1016 0.0
H2173 H 0.07981 0.28595 0.08346 0.0
H2174 H 0.10251 0.33181 0.06755 0.0
C2175 C 0.06365 0.34028 0.04508 0.0
C2176 C 0.06155 0.30907 0.06733 0.0
C2177 C 0.05604 0.34441 0.03419 0.0
C2178 C 0.09717 0.29039 0.10068 0.0
C2179 C 0.08904 0.29432 0.09044 0.0
C2180 C 0.09108 0.32544 0.06782 0.0
C2181 C 0.05983 0.32572 0.04612 0.0
C2182 C 0.06826 0.3214 0.0572 0.0
C2183 C 0.09292 0.30888 0.08902 0.0
C2184 C 0.08439 0.31314 0.07801 0.0
H2185 H 0.03165 0.31124 0.01762 0.0
H2186 H 0.04496 0.30407 0.03658 0.0
H2187 H 0.08862 0.33894 0.04969 0.0
H2188 H 0.12266 0.3239 0.11496 0.0
H2189 H 0.10832 0.33069 0.09752 0.0
C2190 C 0.67784 0.70876 0.05282 0.0
C2191 C 0.66375 0.69843 0.0563 0.0
C2192 C 0.68337 0.72313 0.05817 0.0
C2193 C 0.67406 0.75009 0.07288 0.0
H2194 H 0.70807 0.7652 0.10193 0.0
C2195 C 0.68988 0.79642 0.12268 0.0
C2196 C 0.70427 0.80606 0.12658 0.0
C2197 C 0.68578 0.7846 0.1114 0.0
C2198 C 0.69876 0.76134 0.09356 0.0
H2199 H 0.6442 0.69529 0.06716 0.0
H2200 H 0.65385 0.72042 0.07632 0.0
H2201 H 0.69926 0.74228 0.08626 0.0
H2202 H 0.72566 0.81101 0.12119 0.0
H2203 H 0.71851 0.7906 0.101 0.0
H2204 H 0.67347 0.76907 0.08021 0.0
C2205 C 0.66061 0.71736 0.06952 0.0
C2206 C 0.69369 0.74817 0.08461 0.0
C2207 C 0.65511 0.70295 0.06437 0.0
C2208 C 0.71449 0.80382 0.11844 0.0
C2209 C 0.71038 0.79203 0.10701 0.0
C2210 C 0.67921 0.76335 0.08167 0.0
C2211 C 0.67488 0.7275 0.06688 0.0
C2212 C 0.68112 0.74227 0.07451 0.0
C2213 C 0.69596 0.78217 0.10351 0.0
C2214 C 0.69143 0.76897 0.09248 0.0
H2215 H 0.68479 0.70566 0.0466 0.0
H2216 H 0.69438 0.73078 0.05585 0.0
H2217 H 0.66443 0.74584 0.065 0.0
H2218 H 0.68172 0.79796 0.1284 0.0
H2219 H 0.67458 0.77716 0.10924 0.0
C2220 C 0.30016 0.9456 0.04046 0.0
C2221 C 0.30146 0.95565 0.02812 0.0
C2222 C 0.28973 0.94107 0.05301 0.0
C2223 C 0.25587 0.93966 0.06254 0.0
H2224 H 0.26426 0.93364 0.10976 0.0
C2225 C 0.21759 0.92954 0.11828 0.0
C2226 C 0.21466 0.91784 0.1288 0.0
C2227 C 0.22869 0.93468 0.10664 0.0
C2228 C 0.26176 0.93521 0.0966 0.0
H2229 H 0.29292 0.96893 0.01937 0.0
H2230 H 0.275 0.96128 0.04139 0.0
H2231 H 0.28252 0.94135 0.08794 0.0
H2232 H 0.2213 0.90252 0.13545 0.0
H2233 H 0.24081 0.91169 0.11537 0.0
H2234 H 0.23517 0.93366 0.07126 0.0
C2235 C 0.2818 0.95663 0.04119 0.0
C2236 C 0.27219 0.93956 0.08408 0.0
C2237 C 0.29214 0.96108 0.0286 0.0
C2238 C 0.22338 0.9117 0.12777 0.0
C2239 C 0.23454 0.91691 0.11622 0.0
C2240 C 0.24551 0.93542 0.07507 0.0
C2241 C 0.28044 0.94655 0.05354 0.0
C2242 C 0.26936 0.94183 0.06688 0.0
C2243 C 0.23716 0.9283 0.10535 0.0
C2244 C 0.24834 0.93314 0.09222 0.0
H2245 H 0.30715 0.94119 0.04041 0.0
H2246 H 0.28885 0.93314 0.06217 0.0
H2247 H 0.25323 0.94103 0.04936 0.0
H2248 H 0.21125 0.93468 0.11896 0.0
H2249 H 0.23061 0.94363 0.09859 0.0
C2250 C 0.31531 0.015 0.97139 0.0
C2251 C 0.32999 0.02044 0.97297 0.0
C2252 C 0.3101 0.02353 0.96475 0.0
C2253 C 0.32164 0.05298 0.93465 0.0
H2254 H 0.28814 0.05418 0.94801 0.0
C2255 C 0.30709 0.09162 0.90313 0.0
C2256 C 0.29283 0.08654 0.89853 0.0
C2257 C 0.31089 0.08348 0.91333 0.0
C2258 C 0.29743 0.0538 0.94404 0.0
H2259 H 0.35062 0.03953 0.97064 0.0
H2260 H 0.34154 0.05443 0.95942 0.0
H2261 H 0.29626 0.04064 0.96537 0.0
H2262 H 0.27137 0.06889 0.90111 0.0
H2263 H 0.2781 0.0544 0.91876 0.0
H2264 H 0.3228 0.06587 0.91328 0.0
C2265 C 0.33407 0.04346 0.96278 0.0
C2266 C 0.30209 0.04612 0.95401 0.0
C2267 C 0.33927 0.03494 0.96929 0.0
C2268 C 0.28244 0.07304 0.90435 0.0
C2269 C 0.28628 0.06483 0.9146 0.0
C2270 C 0.31698 0.06057 0.92473 0.0
C2271 C 0.31949 0.03764 0.95968 0.0
C2272 C 0.31435 0.04579 0.9495 0.0
C2273 C 0.30057 0.06995 0.9191 0.0
C2274 C 0.30493 0.06122 0.92939 0.0
H2275 H 0.30788 0.00386 0.97414 0.0
H2276 H 0.2988 0.01877 0.96253 0.0
H2277 H 0.33088 0.05258 0.93052 0.0
H2278 H 0.31538 0.10188 0.89867 0.0
H2279 H 0.32197 0.08782 0.91674 0.0
C2280 C 0.96171 0.28578 0.96486 0.0
C2281 C 0.97591 0.29165 0.97034 0.0
C2282 C 0.95337 0.2711 0.96074 0.0
C2283 C 0.95678 0.24092 0.94442 0.0
H2284 H 0.91659 0.21908 0.9531 0.0
C2285 C 0.91704 0.19245 0.90137 0.0
C2286 C 0.90546 0.18092 0.90923 0.0
C2287 C 0.92654 0.20469 0.91122 0.0
C2288 C 0.92784 0.22492 0.95076 0.0
H2289 H 0.99229 0.28654 0.97661 0.0
H2290 H 0.97766 0.26084 0.96937 0.0
H2291 H 0.93112 0.24267 0.96725 0.0
H2292 H 0.89527 0.17287 0.9338 0.0
H2293 H 0.91183 0.19427 0.95097 0.0
H2294 H 0.95344 0.22327 0.92766 0.0
C2295 C 0.97305 0.26767 0.96815 0.0
C2296 C 0.93613 0.2385 0.95875 0.0
C2297 C 0.98139 0.28237 0.97241 0.0
C2298 C 0.90393 0.18168 0.92729 0.0
C2299 C 0.91342 0.19393 0.93713 0.0
C2300 C 0.94847 0.22736 0.93637 0.0
C2301 C 0.95904 0.26194 0.96193 0.0
C2302 C 0.95063 0.24678 0.95537 0.0
C2303 C 0.92468 0.20569 0.92915 0.0
C2304 C 0.93385 0.21933 0.93916 0.0
H2305 H 0.95712 0.29259 0.96319 0.0
H2306 H 0.94266 0.26707 0.95584 0.0
H2307 H 0.9679 0.24708 0.94144 0.0
H2308 H 0.91843 0.1923 0.88746 0.0
H2309 H 0.935 0.21364 0.90462 0.0
C2310 C 0.69297 0.65796 0.97747 0.0
C2311 C 0.69073 0.66638 0.98981 0.0
C2312 C 0.70468 0.6643 0.96674 0.0
C2313 C 0.74053 0.69565 0.96644 0.0
H2314 H 0.74001 0.68331 0.9186 0.0
C2315 C 0.79094 0.70614 0.9317 0.0
C2316 C 0.79232 0.70995 0.91416 0.0
C2317 C 0.77834 0.70207 0.94021 0.0
C2318 C 0.7403 0.68699 0.93188 0.0
H2319 H 0.69855 0.68817 -0.00014 0.0
H2320 H 0.71884 0.69919 0.98105 0.0
H2321 H 0.71782 0.67392 0.93402 0.0
H2322 H 0.78162 0.71262 0.89183 0.0
H2323 H 0.75959 0.70563 0.9068 0.0
H2324 H 0.76298 0.70867 0.96436 0.0
C2325 C 0.71173 0.68766 0.97991 0.0
C2326 C 0.72761 0.6815 0.94076 0.0
C2327 C 0.70006 0.68134 0.99063 0.0
C2328 C 0.7809 0.70985 0.9054 0.0
C2329 C 0.76825 0.70571 0.9139 0.0
C2330 C 0.75319 0.7011 0.95759 0.0
C2331 C 0.71436 0.67917 0.96813 0.0
C2332 C 0.72761 0.68566 0.9582 0.0
C2333 C 0.76681 0.70168 0.93137 0.0
C2334 C 0.75324 0.69669 0.9403 0.0
H2335 H 0.68596 0.64641 0.97649 0.0
H2336 H 0.70647 0.65744 0.95789 0.0
H2337 H 0.74093 0.69896 0.97992 0.0
H2338 H 0.79961 0.70624 0.93883 0.0
H2339 H 0.77752 0.69889 0.95362 0.0
C2340 C 0.97513 0.6913 0.99045 0.0
C2341 C 0.97157 0.67678 0.98935 0.0
C2342 C 0.96799 0.69631 0.98007 0.0
C2343 C 0.94491 0.68721 0.94054 0.0
H2344 H 0.93354 0.71261 0.96215 0.0
C2345 C 0.90211 0.69714 0.91034 0.0
C2346 C 0.90418 0.71115 0.91141 0.0
C2347 C 0.91138 0.69381 0.91895 0.0
C2348 C 0.93681 0.70569 0.95584 0.0
H2349 H 0.95787 0.65619 0.97623 0.0
H2350 H 0.94532 0.66487 0.95831 0.0
H2351 H 0.94783 0.7052 0.97878 0.0
H2352 H 0.91773 0.7327 0.92222 0.0
H2353 H 0.93404 0.7269 0.9372 0.0
H2354 H 0.93365 0.68751 0.9177 0.0
C2355 C 0.95375 0.67245 0.96703 0.0
C2356 C 0.94501 0.70144 0.96537 0.0
C2357 C 0.9609 0.66745 0.9774 0.0
C2358 C 0.91589 0.72182 0.92108 0.0
C2359 C 0.92515 0.71847 0.92978 0.0
C2360 C 0.93668 0.69143 0.93103 0.0
C2361 C 0.95713 0.68691 0.96834 0.0
C2362 C 0.94904 0.69203 0.95789 0.0
C2363 C 0.92295 0.7044 0.92888 0.0
C2364 C 0.93241 0.70061 0.93863 0.0
H2365 H 0.98335 0.69881 0.99946 0.0
H2366 H 0.971 0.70756 0.98122 0.0
H2367 H 0.94803 0.68016 0.93427 0.0
H2368 H 0.89329 0.68872 0.90282 0.0
H2369 H 0.9093 0.68283 0.91813 0.0
C2370 C 0.3415 0.30189 0.94214 0.0
C2371 C 0.33367 0.30687 0.95131 0.0
C2372 C 0.33508 0.28764 0.93595 0.0
C2373 C 0.30357 0.25138 0.93966 0.0
H2374 H 0.31314 0.24627 0.89269 0.0
C2375 C 0.28879 0.196 0.90857 0.0
C2376 C 0.28582 0.19383 0.89057 0.0
C2377 C 0.29294 0.20935 0.9166 0.0
C2378 C 0.31019 0.2475 0.90573 0.0
H2379 H 0.31308 0.30054 0.96185 0.0
H2380 H 0.30186 0.27571 0.95086 0.0
H2381 H 0.32414 0.27026 0.90601 0.0
H2382 H 0.28413 0.20376 0.86705 0.0
H2383 H 0.29097 0.22693 0.88114 0.0
H2384 H 0.28942 0.22856 0.93921 0.0
C2385 C 0.31299 0.28282 0.94857 0.0
C2386 C 0.31669 0.26125 0.91348 0.0
C2387 C 0.31943 0.29708 0.95483 0.0
C2388 C 0.28628 0.20505 0.88095 0.0
C2389 C 0.29039 0.21839 0.88899 0.0
C2390 C 0.29704 0.23758 0.93188 0.0
C2391 C 0.32066 0.27804 0.93871 0.0
C2392 C 0.31356 0.26335 0.93059 0.0
C2393 C 0.29415 0.22081 0.90681 0.0
C2394 C 0.30034 0.23549 0.91485 0.0
H2395 H 0.35252 0.30908 0.93935 0.0
H2396 H 0.34137 0.28421 0.92875 0.0
H2397 H 0.30097 0.25263 0.95288 0.0
H2398 H 0.28831 0.18749 0.9164 0.0
H2399 H 0.29581 0.21085 0.93033 0.0
C2400 C 0.69918 0.02259 0.98137 0.0
C2401 C 0.70253 0.02441 0.99928 0.0
C2402 C 0.70986 0.02695 0.96919 0.0
C2403 C 0.74748 0.03673 0.96499 0.0
H2404 H 0.7454 0.05557 0.92345 0.0
C2405 C 0.79561 0.07359 0.92442 0.0
C2406 C 0.79396 0.07276 0.90623 0.0
C2407 C 0.78406 0.06541 0.93483 0.0
C2408 C 0.74601 0.05011 0.93485 0.0
H2409 H 0.71971 0.03241 0.01848 0.0
H2410 H 0.73833 0.04039 0.9973 0.0
H2411 H 0.72594 0.04621 0.94362 0.0
H2412 H 0.77914 0.06243 0.88456 0.0
H2413 H 0.75878 0.04814 0.90285 0.0
H2414 H 0.76784 0.04119 0.95647 0.0
C2415 C 0.72745 0.03526 0.99261 0.0
C2416 C 0.73486 0.04474 0.94642 0.0
C2417 C 0.71677 0.0308 0.00477 0.0
C2418 C 0.78066 0.06319 0.89857 0.0
C2419 C 0.76904 0.05512 0.90901 0.0
C2420 C 0.75867 0.04221 0.9535 0.0
C2421 C 0.72413 0.03332 0.97466 0.0
C2422 C 0.73555 0.03818 0.96177 0.0
C2423 C 0.7706 0.05636 0.92724 0.0
C2424 C 0.75813 0.04914 0.93844 0.0
H2425 H 0.68829 0.01761 0.97673 0.0
H2426 H 0.7069 0.02514 0.9555 0.0
H2427 H 0.74822 0.03145 0.97649 0.0
H2428 H 0.80579 0.08086 0.93061 0.0
H2429 H 0.78556 0.06667 0.94884 0.0
C2430 C 0.6569 0.95067 0.04431 0.0
C2431 C 0.66527 0.96509 0.03964 0.0
C2432 C 0.66316 0.94319 0.05108 0.0
C2433 C 0.67771 0.93711 0.08018 0.0
H2434 H 0.71346 0.93991 0.06876 0.0
C2435 C 0.70808 0.92428 0.13045 0.0
C2436 C 0.71238 0.91454 0.12507 0.0
C2437 C 0.70374 0.93079 0.11825 0.0
C2438 C 0.70344 0.939 0.07202 0.0
H2439 H 0.68684 0.98252 0.03678 0.0
H2440 H 0.69777 0.96952 0.04895 0.0
H2441 H 0.70241 0.9491 0.04862 0.0
H2442 H 0.71628 0.90459 0.10264 0.0
H2443 H 0.70869 0.91608 0.08122 0.0
H2444 H 0.67867 0.92715 0.10352 0.0
C2445 C 0.68637 0.96396 0.04727 0.0
C2446 C 0.69715 0.94428 0.06056 0.0
C2447 C 0.68009 0.97143 0.04034 0.0
C2448 C 0.71309 0.91212 0.10716 0.0
C2449 C 0.70873 0.91867 0.09491 0.0
C2450 C 0.684 0.93195 0.09161 0.0
C2451 C 0.67793 0.95002 0.05349 0.0
C2452 C 0.68424 0.94344 0.06459 0.0
C2453 C 0.70359 0.9277 0.10039 0.0
C2454 C 0.697 0.93299 0.08778 0.0
H2455 H 0.64545 0.94539 0.04363 0.0
H2456 H 0.6564 0.93231 0.05535 0.0
H2457 H 0.6679 0.93651 0.08386 0.0
H2458 H 0.70769 0.92655 0.14416 0.0
H2459 H 0.70011 0.93797 0.12282 0.0
C2460 C 0.05398 0.71602 0.04995 0.0
C2461 C 0.04001 0.7119 0.04494 0.0
C2462 C 0.06322 0.72993 0.05643 0.0
C2463 C 0.06889 0.76684 0.06238 0.0
H2464 H 0.08784 0.76632 0.10512 0.0
C2465 C 0.09558 0.81518 0.11197 0.0
C2466 C 0.1081 0.81767 0.12049 0.0
C2467 C 0.08792 0.80304 0.10099 0.0
C2468 C 0.08284 0.76674 0.09307 0.0
H2469 H 0.02513 0.71951 0.04157 0.0
H2470 H 0.04128 0.74381 0.0531 0.0
H2471 H 0.07377 0.74415 0.08824 0.0
H2472 H 0.1228 0.80983 0.12347 0.0
H2473 H 0.10958 0.7888 0.10424 0.0
H2474 H 0.07792 0.78951 0.06745 0.0
C2475 C 0.04509 0.73628 0.05193 0.0
C2476 C 0.07476 0.754 0.08336 0.0
C2477 C 0.03582 0.72233 0.04534 0.0
C2478 C 0.11302 0.80803 0.11739 0.0
C2479 C 0.10544 0.79598 0.10636 0.0
C2480 C 0.07705 0.77966 0.07212 0.0
C2481 C 0.05871 0.74004 0.05815 0.0
C2482 C 0.0677 0.75387 0.0679 0.0
C2483 C 0.09267 0.79319 0.09824 0.0
C2484 C 0.08412 0.77974 0.08759 0.0
H2485 H 0.05762 0.70833 0.04956 0.0
H2486 H 0.07377 0.73262 0.0607 0.0
H2487 H 0.06361 0.76709 0.05049 0.0
H2488 H 0.0915 0.8224 0.11418 0.0
H2489 H 0.07806 0.80115 0.09507 0.0
C2490 C 0.29923 0.3271 0.01799 0.0
C2491 C 0.30926 0.34188 0.01801 0.0
C2492 C 0.28846 0.32167 0.03008 0.0
C2493 C 0.27769 0.33067 0.07191 0.0
H2494 H 0.23999 0.30196 0.05551 0.0
C2495 C 0.22724 0.31701 0.10922 0.0
C2496 C 0.21682 0.30241 0.11024 0.0
C2497 C 0.23896 0.3212 0.09881 0.0
C2498 C 0.25049 0.30984 0.06034 0.0
H2499 H 0.31594 0.36253 0.03085 0.0
H2500 H 0.29697 0.35313 0.05167 0.0
H2501 H 0.25969 0.3105 0.03577 0.0
H2502 H 0.21074 0.28073 0.10134 0.0
H2503 H 0.23113 0.28811 0.08288 0.0
H2504 H 0.26833 0.33024 0.09636 0.0
C2505 C 0.29757 0.34567 0.04254 0.0
C2506 C 0.26179 0.31472 0.04905 0.0
C2507 C 0.3084 0.35108 0.03053 0.0
C2508 C 0.21845 0.29208 0.10065 0.0
C2509 C 0.23014 0.29629 0.09012 0.0
C2510 C 0.26635 0.32586 0.08316 0.0
C2511 C 0.2874 0.33091 0.04238 0.0
C2512 C 0.27552 0.32527 0.05466 0.0
C2513 C 0.24048 0.3109 0.08906 0.0
C2514 C 0.25263 0.31547 0.07744 0.0
H2515 H 0.29967 0.3197 0.0086 0.0
H2516 H 0.28096 0.31022 0.02978 0.0
H2517 H 0.28815 0.33861 0.07675 0.0
H2518 H 0.2262 0.32528 0.11616 0.0
H2519 H 0.24666 0.33255 0.09803 0.0
C2520 C 0.69417 0.64551 0.3656 0.0
C2521 C 0.69864 0.66028 0.36548 0.0
C2522 C 0.702 0.64062 0.37478 0.0
C2523 C 0.73827 0.65317 0.39074 0.0
H2524 H 0.72106 0.61802 0.41673 0.0
C2525 C 0.77035 0.62728 0.41424 0.0
C2526 C 0.76845 0.62268 0.43149 0.0
C2527 C 0.76123 0.63124 0.40646 0.0
C2528 C 0.72601 0.6279 0.40959 0.0
H2529 H 0.71454 0.68141 0.37551 0.0
H2530 H 0.72814 0.67286 0.39154 0.0
H2531 H 0.70613 0.62648 0.40361 0.0
H2532 H 0.75527 0.61841 0.45399 0.0
H2533 H 0.73926 0.62519 0.44032 0.0
H2534 H 0.75813 0.65468 0.39676 0.0
C2535 C 0.71869 0.66509 0.38434 0.0
C2536 C 0.71746 0.63268 0.40197 0.0
C2537 C 0.71083 0.66998 0.37524 0.0
C2538 C 0.75694 0.62173 0.4406 0.0
C2539 C 0.74778 0.62564 0.43279 0.0
C2540 C 0.74679 0.64836 0.39825 0.0
C2541 C 0.7145 0.65039 0.38398 0.0
C2542 C 0.7235 0.64538 0.39246 0.0
C2543 C 0.74995 0.63064 0.41571 0.0
C2544 C 0.74077 0.63565 0.40773 0.0
H2545 H 0.68481 0.63775 0.35825 0.0
H2546 H 0.69854 0.62924 0.37415 0.0
H2547 H 0.74324 0.66291 0.38332 0.0
H2548 H 0.77894 0.62789 0.40673 0.0
H2549 H 0.76302 0.63479 0.39316 0.0
C2550 C 0.32187 0.03962 0.39997 0.0
C2551 C 0.33058 0.03465 0.39319 0.0
C2552 C 0.32732 0.05425 0.40374 0.0
C2553 C 0.36015 0.08587 0.41765 0.0
H2554 H 0.33922 0.10573 0.40999 0.0
C2555 C 0.37869 0.14204 0.44877 0.0
C2556 C 0.36798 0.14378 0.45636 0.0
C2557 C 0.37523 0.13019 0.4377 0.0
C2558 C 0.34517 0.10032 0.4123 0.0
H2559 H 0.35171 0.04123 0.38438 0.0
H2560 H 0.36127 0.06683 0.39125 0.0
H2561 H 0.33094 0.0821 0.39618 0.0
H2562 H 0.34527 0.13478 0.45761 0.0
H2563 H 0.33925 0.11393 0.43896 0.0
H2564 H 0.37397 0.10365 0.43447 0.0
C2565 C 0.35023 0.05934 0.3936 0.0
C2566 C 0.34046 0.08683 0.40432 0.0
C2567 C 0.34473 0.04471 0.38961 0.0
C2568 C 0.35378 0.13363 0.45226 0.0
C2569 C 0.35033 0.12178 0.44129 0.0
C2570 C 0.3648 0.0993 0.42576 0.0
C2571 C 0.34163 0.0642 0.40098 0.0
C2572 C 0.34771 0.07933 0.40725 0.0
C2573 C 0.36099 0.11981 0.43401 0.0
C2574 C 0.35716 0.10652 0.42354 0.0
H2575 H 0.31091 0.03217 0.40277 0.0
H2576 H 0.32048 0.05767 0.40957 0.0
H2577 H 0.36586 0.08026 0.42029 0.0
H2578 H 0.38974 0.14964 0.4517 0.0
H2579 H 0.38371 0.12909 0.43216 0.0
C2580 C 0.97095 0.30918 0.36705 0.0
C2581 C 0.96788 0.30818 0.34912 0.0
C2582 C 0.96021 0.30509 0.37905 0.0
C2583 C 0.9231 0.29694 0.38366 0.0
H2584 H 0.92383 0.27497 0.4227 0.0
C2585 C 0.87447 0.26011 0.4243 0.0
C2586 C 0.87667 0.25945 0.44223 0.0
C2587 C 0.88587 0.26849 0.41372 0.0
C2588 C 0.92358 0.2813 0.41204 0.0
H2589 H 0.95116 0.30227 0.32968 0.0
H2590 H 0.93234 0.29475 0.35059 0.0
H2591 H 0.94325 0.2846 0.40262 0.0
H2592 H 0.89233 0.26794 0.46335 0.0
H2593 H 0.91225 0.28249 0.44484 0.0
H2594 H 0.9031 0.29312 0.39289 0.0
C2595 C 0.9431 0.29897 0.35543 0.0
C2596 C 0.93473 0.28683 0.40051 0.0
C2597 C 0.95387 0.30317 0.34343 0.0
C2598 C 0.89036 0.26801 0.44952 0.0
C2599 C 0.90175 0.27634 0.43894 0.0
C2600 C 0.91188 0.2913 0.39516 0.0
C2601 C 0.94613 0.2998 0.37338 0.0
C2602 C 0.93458 0.29462 0.3861 0.0
C2603 C 0.89968 0.27633 0.42088 0.0
C2604 C 0.91197 0.28334 0.40939 0.0
H2605 H 0.98168 0.31314 0.37186 0.0
H2606 H 0.96296 0.30611 0.39279 0.0
H2607 H 0.92276 0.30308 0.37285 0.0
H2608 H 0.86408 0.25354 0.41827 0.0
H2609 H 0.88398 0.26819 0.39982 0.0
C2610 C 0.99624 0.36043 0.30911 0.0
C2611 C 0.01059 0.36471 0.30711 0.0
C2612 C 0.99088 0.36895 0.30295 0.0
C2613 C 0.00051 0.40475 0.2863 0.0
H2614 H 0.96903 0.38298 0.25375 0.0
C2615 C 0.97698 0.43132 0.24254 0.0
C2616 C 0.97612 0.42747 0.22481 0.0
C2617 C 0.97964 0.42368 0.25512 0.0
C2618 C 0.97774 0.38917 0.26289 0.0
H2619 H 0.03079 0.38188 0.29851 0.0
H2620 H 0.02143 0.39673 0.28784 0.0
H2621 H 0.97688 0.37029 0.27278 0.0
H2622 H 0.97692 0.41246 0.20632 0.0
H2623 H 0.98143 0.39901 0.22832 0.0
H2624 H 0.00166 0.42366 0.27589 0.0
C2625 C 0.01432 0.38677 0.29409 0.0
C2626 C 0.98215 0.38193 0.2739 0.0
C2627 C 0.01966 0.37821 0.3001 0.0
C2628 C 0.97761 0.41566 0.2199 0.0
C2629 C 0.98007 0.40792 0.23248 0.0
C2630 C 0.99599 0.412 0.2754 0.0
C2631 C -0.00021 0.38197 0.29487 0.0
C2632 C 0.99381 0.38965 0.2854 0.0
C2633 C 0.98125 0.41195 0.25018 0.0
C2634 C 0.98482 0.40428 0.26327 0.0
H2635 H 0.98896 0.35013 0.31454 0.0
H2636 H 0.97966 0.36508 0.30388 0.0
H2637 H 0.00948 0.41095 0.2951 0.0
H2638 H 0.97598 0.44046 0.24664 0.0
H2639 H 0.98047 0.42697 0.26869 0.0
C2640 C 0.6162 0.6201 0.30319 0.0
C2641 C 0.62995 0.62442 0.30941 0.0
C2642 C 0.6069 0.60579 0.29812 0.0
C2643 C 0.60764 0.57456 0.28019 0.0
H2644 H 0.56709 0.55543 0.28628 0.0
C2645 C 0.5694 0.52003 0.24549 0.0
C2646 C 0.55722 0.51907 0.23772 0.0
C2647 C 0.57795 0.53143 0.2571 0.0
C2648 C 0.57839 0.56065 0.2844 0.0
H2649 H 0.64446 0.61688 0.31603 0.0
H2650 H 0.62817 0.59182 0.30707 0.0
H2651 H 0.58257 0.57796 0.30225 0.0
H2652 H 0.54421 0.52904 0.2366 0.0
H2653 H 0.55927 0.54905 0.25639 0.0
H2654 H 0.60346 0.55759 0.26184 0.0
C2655 C 0.62466 0.59959 0.30604 0.0
C2656 C 0.58725 0.57353 0.2936 0.0
C2657 C 0.63394 0.61392 0.31127 0.0
C2658 C 0.55363 0.52958 0.24213 0.0
C2659 C 0.56217 0.54094 0.2537 0.0
C2660 C 0.59877 0.56171 0.27094 0.0
C2661 C 0.61116 0.59545 0.29904 0.0
C2662 C 0.60194 0.5808 0.29129 0.0
C2663 C 0.5745 0.54209 0.26123 0.0
C2664 C 0.58401 0.55478 0.27261 0.0
H2665 H 0.61275 0.62788 0.30167 0.0
H2666 H 0.59662 0.60299 0.29265 0.0
H2667 H 0.6189 0.57999 0.27796 0.0
H2668 H 0.5725 0.51216 0.24231 0.0
H2669 H 0.58731 0.53192 0.26279 0.0
C2670 C 0.34974 0.9833 0.31567 0.0
C2671 C 0.35086 0.99398 0.3275 0.0
C2672 C 0.36035 0.98642 0.30372 0.0
C2673 C 0.39826 0.0117 0.29789 0.0
H2674 H 0.39054 0.99414 0.25157 0.0
C2675 C 0.44266 0.02343 0.24972 0.0
C2676 C 0.4417 0.01137 0.24094 0.0
C2677 C 0.43133 0.02214 0.25932 0.0
C2678 C 0.39285 -0.00094 0.26451 0.0
H2679 H 0.36363 0.0165 0.33544 0.0
H2680 H 0.38201 0.022 0.31437 0.0
H2681 H 0.37092 0.99068 0.26961 0.0
H2682 H 0.42803 0.98858 0.23504 0.0
H2683 H 0.40832 0.98629 0.25197 0.0
H2684 H 0.42018 0.01997 0.29284 0.0
C2685 C 0.37309 0.01113 0.3146 0.0
C2686 C 0.38162 0.99707 0.27484 0.0
C2687 C 0.36251 0.008 0.3266 0.0
C2688 C 0.42914 0.99803 0.24183 0.0
C2689 C 0.41779 0.99676 0.25135 0.0
C2690 C 0.40948 0.01373 0.28753 0.0
C2691 C 0.37228 0.00031 0.30327 0.0
C2692 C 0.38419 0.00324 0.29174 0.0
C2693 C 0.41879 0.00879 0.26025 0.0
C2694 C 0.40689 0.00729 0.27082 0.0
H2695 H 0.34091 0.97239 0.31602 0.0
H2696 H 0.35945 0.97779 0.2953 0.0
H2697 H 0.40062 0.0164 0.31094 0.0
H2698 H 0.45224 0.03383 0.24935 0.0
H2699 H 0.43237 0.03162 0.26594 0.0
C2700 C 0.62873 0.00299 0.31627 0.0
C2701 C 0.62744 0.98932 0.31729 0.0
C2702 C 0.62019 0.00531 0.30461 0.0
C2703 C 0.58578 0.98565 0.28149 0.0
H2704 H 0.5996 0.02052 0.25534 0.0
C2705 C 0.54954 0.99319 0.23299 0.0
C2706 C 0.5507 0.00682 0.23278 0.0
C2707 C 0.55951 0.99116 0.24215 0.0
C2708 C 0.59554 0.01078 0.26269 0.0
H2709 H 0.61651 0.96752 0.30638 0.0
H2710 H 0.60166 0.9716 0.28605 0.0
H2711 H 0.61611 0.01688 0.27324 0.0
H2712 H 0.56324 0.02901 0.24199 0.0
H2713 H 0.58053 0.02546 0.25818 0.0
H2714 H 0.5652 0.97963 0.27131 0.0
C2715 C 0.60916 0.98047 0.29442 0.0
C2716 C 0.60501 0.00869 0.27291 0.0
C2717 C 0.61773 0.97816 0.30601 0.0
C2718 C 0.56215 0.01842 0.24174 0.0
C2719 C 0.57208 0.01638 0.25099 0.0
C2720 C 0.57631 0.98776 0.27136 0.0
C2721 C 0.61013 0.994 0.29378 0.0
C2722 C 0.60023 0.99611 0.28245 0.0
C2723 C 0.57083 0.0027 0.25141 0.0
C2724 C 0.58105 0.00036 0.26185 0.0
H2725 H 0.63611 0.01183 0.32476 0.0
H2726 H 0.62112 0.01583 0.30452 0.0
H2727 H 0.5817 0.97596 0.28893 0.0
H2728 H 0.54097 0.98409 0.22597 0.0
H2729 H 0.55836 0.98054 0.2419 0.0
C2730 C 0.00097 0.62964 0.29166 0.0
C2731 C 0.01491 0.64107 0.29005 0.0
C2732 C 0.99685 0.61603 0.28439 0.0
C2733 C 0.99166 0.58651 0.27236 0.0
H2734 H 0.00692 0.58754 0.22682 0.0
C2735 C 0.98054 0.53516 0.23276 0.0
C2736 C 0.97897 0.53534 0.21461 0.0
C2737 C 0.98449 0.54756 0.24302 0.0
C2738 C 0.00245 0.58704 0.23945 0.0
H2739 H 0.03572 0.64688 0.28078 0.0
H2740 H 0.02866 0.6231 0.26855 0.0
H2741 H 0.01496 0.60981 0.24346 0.0
H2742 H 0.97959 0.54834 0.19307 0.0
H2743 H 0.98625 0.56988 0.21095 0.0
H2744 H 0.97877 0.56371 0.26796 0.0
C2745 C 0.02077 0.62474 0.27491 0.0
C2746 C 0.00725 0.59981 0.24915 0.0
C2747 C 0.02485 0.63836 0.28202 0.0
C2748 C 0.98095 0.54798 0.207 0.0
C2749 C 0.98481 0.56032 0.21724 0.0
C2750 C 0.98681 0.57369 0.2626 0.0
C2751 C 0.00662 0.61354 0.27549 0.0
C2752 C 0.0019 0.59974 0.2657 0.0
C2753 C 0.9869 0.56035 0.23533 0.0
C2754 C 0.99208 0.57384 0.24596 0.0
H2755 H 0.99304 0.63136 0.29776 0.0
H2756 H 0.98585 0.60768 0.285 0.0
H2757 H 0.9874 0.58605 0.28512 0.0
H2758 H 0.97922 0.52561 0.23896 0.0
H2759 H 0.98613 0.54724 0.25689 0.0
C2760 C 0.36423 0.36872 0.31386 0.0
C2761 C 0.36438 0.35965 0.32666 0.0
C2762 C 0.37452 0.37398 0.30112 0.0
C2763 C 0.41037 0.37988 0.2925 0.0
H2764 H 0.4022 0.38792 0.24621 0.0
C2765 C 0.45476 0.41547 0.24659 0.0
C2766 C 0.45267 0.41245 0.22862 0.0
C2767 C 0.44374 0.40793 0.25795 0.0
C2768 C 0.40465 0.38555 0.25899 0.0
H2769 H 0.375 0.34842 0.33574 0.0
H2770 H 0.39258 0.35711 0.3132 0.0
H2771 H 0.38312 0.37621 0.2666 0.0
H2772 H 0.43755 0.39898 0.2084 0.0
H2773 H 0.41833 0.38541 0.22832 0.0
H2774 H 0.43177 0.38874 0.28475 0.0
C2775 C 0.38487 0.36062 0.31329 0.0
C2776 C 0.39372 0.37903 0.2708 0.0
C2777 C 0.37473 0.35557 0.32617 0.0
C2778 C 0.43939 0.40157 0.22222 0.0
C2779 C 0.42839 0.39387 0.23363 0.0
C2780 C 0.42124 0.38621 0.28064 0.0
C2781 C 0.38505 0.37009 0.30076 0.0
C2782 C 0.39647 0.37628 0.28779 0.0
C2783 C 0.43039 0.39704 0.25164 0.0
C2784 C 0.41858 0.38935 0.26382 0.0
H2785 H 0.3564 0.37209 0.31396 0.0
H2786 H 0.37443 0.38141 0.29188 0.0
H2787 H 0.41298 0.37812 0.30552 0.0
H2788 H 0.46482 0.42399 0.25183 0.0
H2789 H 0.44562 0.41092 0.27166 0.0
C2790 C 0.34445 0.31274 0.37356 0.0
C2791 C 0.33003 0.30743 0.37669 0.0
C2792 C 0.35112 0.3053 0.37928 0.0
C2793 C 0.34522 0.27076 0.39613 0.0
H2794 H 0.37733 0.29483 0.42693 0.0
C2795 C 0.37198 0.26294 0.46096 0.0
C2796 C 0.37418 0.25163 0.45581 0.0
C2797 C 0.36868 0.27021 0.44858 0.0
C2798 C 0.36846 0.28801 0.41825 0.0
H2799 H 0.31105 0.28952 0.38686 0.0
H2800 H 0.32266 0.27651 0.39666 0.0
H2801 H 0.36719 0.30589 0.40863 0.0
H2802 H 0.37484 0.23912 0.43377 0.0
H2803 H 0.36886 0.25176 0.41209 0.0
H2804 H 0.3462 0.25283 0.40627 0.0
C2805 C 0.32883 0.28646 0.38991 0.0
C2806 C 0.36274 0.29433 0.40767 0.0
C2807 C 0.32219 0.29397 0.38439 0.0
C2808 C 0.3733 0.2479 0.43804 0.0
C2809 C 0.3698 0.25504 0.42568 0.0
C2810 C 0.35105 0.26445 0.40657 0.0
C2811 C 0.34345 0.29231 0.38798 0.0
C2812 C 0.35083 0.28574 0.39685 0.0
C2813 C 0.36733 0.26617 0.43086 0.0
C2814 C 0.36247 0.27299 0.41808 0.0
H2815 H 0.3508 0.32304 0.3676 0.0
H2816 H 0.36238 0.30996 0.37748 0.0
H2817 H 0.33607 0.26391 0.38786 0.0
H2818 H 0.37265 0.26604 0.47458 0.0
H2819 H 0.36668 0.27866 0.45294 0.0
C2820 C 0.70843 0.03783 0.37766 0.0
C2821 C 0.69394 0.03319 0.37628 0.0
C2822 C 0.71831 0.05233 0.38089 0.0
C2823 C 0.72335 0.0894 0.38406 0.0
H2824 H 0.75277 0.09494 0.41729 0.0
C2825 C 0.75867 0.14171 0.42609 0.0
C2826 C 0.77295 0.14562 0.42847 0.0
C2827 C 0.74926 0.12903 0.41679 0.0
C2828 C 0.74474 0.09361 0.40783 0.0
H2829 H 0.67844 0.04012 0.37637 0.0
H2830 H 0.69568 0.06547 0.38274 0.0
H2831 H 0.73595 0.07088 0.4065 0.0
H2832 H 0.78881 0.13999 0.4217 0.0
H2833 H 0.77241 0.11788 0.40567 0.0
H2834 H 0.73203 0.11231 0.38616 0.0
C2835 C 0.69947 0.05797 0.38093 0.0
C2836 C 0.7351 0.07979 0.40154 0.0
C2837 C 0.68957 0.04344 0.37733 0.0
C2838 C 0.7778 0.13709 0.42044 0.0
C2839 C 0.76843 0.12445 0.41123 0.0
C2840 C 0.73297 0.1033 0.39055 0.0
C2841 C 0.71393 0.06251 0.38327 0.0
C2842 C 0.72431 0.07746 0.38949 0.0
C2843 C 0.75398 0.12005 0.40977 0.0
C2844 C 0.74381 0.10552 0.40243 0.0
H2845 H 0.71211 0.03018 0.37662 0.0
H2846 H 0.72939 0.05547 0.38201 0.0
H2847 H 0.71523 0.08804 0.37472 0.0
H2848 H 0.75462 0.14804 0.43217 0.0
H2849 H 0.73817 0.12587 0.41591 0.0
C2850 C 0.956 0.64214 0.33243 0.0
C2851 C 0.96987 0.65055 0.33923 0.0
C2852 C 0.9445 0.63648 0.34343 0.0
C2853 C 0.9334 0.62711 0.3884 0.0
H2854 H 0.90401 0.63558 0.37533 0.0
C2855 C 0.88911 0.62012 0.43485 0.0
C2856 C 0.8759 0.61646 0.42741 0.0
C2857 C 0.90041 0.62271 0.42424 0.0
C2858 C 0.91194 0.63283 0.37905 0.0
H2859 H 0.98259 0.65904 0.36301 0.0
H2860 H 0.9624 0.64901 0.3823 0.0
H2861 H 0.92403 0.64267 0.3566 0.0
H2862 H 0.86376 0.61172 0.4033 0.0
H2863 H 0.88322 0.61564 0.38476 0.0
H2864 H 0.92122 0.61713 0.41081 0.0
C2865 C 0.96049 0.64686 0.36841 0.0
C2866 C 0.92346 0.63698 0.36832 0.0
C2867 C 0.97203 0.65266 0.35737 0.0
C2868 C 0.87393 0.61472 0.40929 0.0
C2869 C 0.88512 0.61708 0.39871 0.0
C2870 C 0.92175 0.62279 0.39908 0.0
C2871 C 0.94661 0.63899 0.3615 0.0
C2872 C 0.93431 0.63419 0.37288 0.0
C2873 C 0.89862 0.62151 0.406 0.0
C2874 C 0.91087 0.62562 0.39454 0.0
H2875 H 0.95396 0.64023 0.31853 0.0
H2876 H 0.93391 0.6303 0.33779 0.0
H2877 H 0.94161 0.62478 0.39215 0.0
H2878 H 0.89086 0.62159 0.44882 0.0
H2879 H 0.91066 0.62622 0.43032 0.0
C2880 C 0.37989 0.01617 0.71313 0.0
C2881 C 0.369 0.00547 0.70248 0.0
C2882 C 0.38807 0.01279 0.72403 0.0
C2883 C 0.39929 0.98581 0.72853 0.0
H2884 H 0.41395 0.00503 0.77344 0.0
C2885 C 0.44603 0.98564 0.76393 0.0
C2886 C 0.44575 0.98466 0.78213 0.0
C2887 C 0.43581 0.98735 0.7549 0.0
C2888 C 0.40983 -0.00056 0.76101 0.0
H2889 H 0.35776 0.98268 0.69551 0.0
H2890 H 0.37189 0.97673 0.71476 0.0
H2891 H 0.39707 0.00915 0.7572 0.0
H2892 H 0.43431 0.98436 0.80509 0.0
H2893 H 0.41639 0.98722 0.78933 0.0
H2894 H 0.4119 0.97596 0.73242 0.0
C2895 C 0.3743 0.98781 0.71441 0.0
C2896 C 0.40027 0.00193 0.75161 0.0
C2897 C 0.36614 0.9912 0.70345 0.0
C2898 C 0.43493 0.98529 0.79109 0.0
C2899 C 0.42467 0.98694 0.78205 0.0
C2900 C 0.40882 0.98329 0.73795 0.0
C2901 C 0.38553 0.9986 0.72461 0.0
C2902 C 0.39499 0.99526 0.73516 0.0
C2903 C 0.42501 0.98805 0.76385 0.0
C2904 C 0.41433 0.9902 0.75422 0.0
H2905 H 0.38239 0.02727 0.71269 0.0
H2906 H 0.39672 0.02141 0.73154 0.0
H2907 H 0.39557 0.98061 0.71583 0.0
H2908 H 0.45435 0.98542 0.75667 0.0
H2909 H 0.43655 0.98842 0.74093 0.0
C2910 C 0.97685 0.36281 0.72404 0.0
C2911 C 0.98669 0.35908 0.71794 0.0
C2912 C 0.98135 0.37669 0.73051 0.0
C2913 C 0.99472 0.40115 0.75685 0.0
H2914 H 0.02531 0.43675 0.7396 0.0
C2915 C 0.02091 0.45239 0.79974 0.0
C2916 C 0.02306 0.4651 0.79213 0.0
C2917 C 0.01741 0.44018 0.78943 0.0
C2918 C 0.0167 0.4269 0.74451 0.0
H2919 H 0.00888 0.36733 0.7127 0.0
H2920 H 0.01675 0.39156 0.72429 0.0
H2921 H 0.01659 0.41431 0.72244 0.0
H2922 H 0.02372 0.47514 0.76769 0.0
H2923 H 0.01755 0.45372 0.74962 0.0
H2924 H 0.99467 0.41359 0.77878 0.0
C2925 C 0.00554 0.38375 0.72394 0.0
C2926 C 0.01178 0.41405 0.73475 0.0
C2927 C 0.00102 0.36984 0.71733 0.0
C2928 C 0.02223 0.46552 0.77391 0.0
C2929 C 0.01869 0.45327 0.76357 0.0
C2930 C -0.00036 0.41392 0.76657 0.0
C2931 C 0.9958 0.38716 0.73117 0.0
C2932 C 0.00074 0.40103 0.74085 0.0
C2933 C 0.01593 0.44037 0.77126 0.0
C2934 C 0.01075 0.42692 0.76061 0.0
H2935 H 0.9657 0.35484 0.72444 0.0
H2936 H 0.97353 0.37909 0.73558 0.0
H2937 H 0.98636 0.39129 0.7621 0.0
H2938 H 0.02174 0.45183 0.81372 0.0
H2939 H 0.01566 0.4305 0.79572 0.0
C2940 C 0.64643 0.63927 0.70291 0.0
C2941 C 0.65695 0.63538 0.70319 0.0
C2942 C 0.63576 0.63389 0.7151 0.0
C2943 C 0.61621 0.60284 0.74211 0.0
H2944 H 0.60174 0.62591 0.76296 0.0
C2945 C 0.56038 0.5777 0.76884 0.0
C2946 C 0.55877 0.58262 0.78525 0.0
C2947 C 0.57325 0.58482 0.76046 0.0
C2948 C 0.60577 0.61938 0.75737 0.0
H2949 H 0.66472 0.6231 0.71677 0.0
H2950 H 0.64592 0.61357 0.73802 0.0
H2951 H 0.62327 0.63752 0.74596 0.0
H2952 H 0.56937 0.59913 0.80553 0.0
H2953 H 0.59189 0.61181 0.79059 0.0
H2954 H 0.59859 0.58467 0.7532 0.0
C2955 C 0.64597 0.62076 0.7283 0.0
C2956 C 0.618 0.62599 0.74756 0.0
C2957 C 0.65674 0.62625 0.71617 0.0
C2958 C 0.57024 0.59513 0.79284 0.0
C2959 C 0.58313 0.60235 0.78435 0.0
C2960 C 0.60394 0.59623 0.75178 0.0
C2961 C 0.6353 0.62443 0.72778 0.0
C2962 C 0.62321 0.61774 0.73962 0.0
C2963 C 0.58479 0.59713 0.76819 0.0
C2964 C 0.59846 0.60439 0.75925 0.0
H2965 H 0.64633 0.64634 0.69313 0.0
H2966 H 0.62759 0.63677 0.71425 0.0
H2967 H 0.61991 0.59619 0.73604 0.0
H2968 H 0.55167 0.56831 0.76243 0.0
H2969 H 0.57415 0.58075 0.74783 0.0
C2970 C 0.68471 0.70664 0.63032 0.0
C2971 C 0.67758 0.69363 0.63912 0.0
C2972 C 0.6773 0.71303 0.6237 0.0
C2973 C 0.64348 0.71305 0.62408 0.0
H2974 H 0.65304 0.72456 0.57637 0.0
C2975 C 0.62453 0.73412 0.56042 0.0
C2976 C 0.6235 0.74541 0.56841 0.0
C2977 C 0.62882 0.72605 0.5701 0.0
C2978 C 0.65008 0.72121 0.5896 0.0
H2979 H 0.65727 0.67774 0.64908 0.0
H2980 H 0.64434 0.68888 0.63735 0.0
H2981 H 0.66582 0.71511 0.59223 0.0
H2982 H 0.6249 0.75624 0.59307 0.0
H2983 H 0.63268 0.74236 0.60991 0.0
H2984 H 0.62763 0.71912 0.62128 0.0
C2985 C 0.65566 0.69412 0.6356 0.0
C2986 C 0.65759 0.71603 0.59879 0.0
C2987 C 0.66308 0.68774 0.64229 0.0
C2988 C 0.62584 0.74776 0.58651 0.0
C2989 C 0.63015 0.73971 0.59619 0.0
C2990 C 0.63596 0.7183 0.61485 0.0
C2991 C 0.66261 0.70653 0.62568 0.0
C2992 C 0.65448 0.71203 0.61618 0.0
C2993 C 0.63219 0.72913 0.58796 0.0
C2994 C 0.63925 0.72249 0.59752 0.0
H2995 H 0.69591 0.71159 0.62786 0.0
H2996 H 0.68301 0.7228 0.61648 0.0
H2997 H 0.64085 0.71003 0.63746 0.0
H2998 H 0.62282 0.73206 0.5465 0.0
H2999 H 0.63005 0.71778 0.56347 0.0
C3000 C 0.30615 0.95466 0.64498 0.0
C3001 C 0.30214 0.96509 0.64269 0.0
C3002 C 0.2966 0.94013 0.64092 0.0
C3003 C 0.25867 0.91371 0.63221 0.0
H3004 H 0.27265 0.89569 0.60019 0.0
C3005 C 0.22168 0.86685 0.58575 0.0
C3006 C 0.22507 0.85622 0.58126 0.0
C3007 C 0.23091 0.87879 0.59619 0.0
C3008 C 0.26859 0.90039 0.6094 0.0
H3009 H 0.28472 0.96834 0.63533 0.0
H3010 H 0.26813 0.94308 0.62842 0.0
H3011 H 0.2891 0.91892 0.61398 0.0
H3012 H 0.24074 0.84965 0.58466 0.0
H3013 H 0.25673 0.87035 0.60325 0.0
H3014 H 0.23813 0.89534 0.62742 0.0
C3015 C 0.27863 0.94609 0.6333 0.0
C3016 C 0.27805 0.91373 0.6173 0.0
C3017 C 0.28818 0.96059 0.63715 0.0
C3018 C 0.23776 0.8576 0.58793 0.0
C3019 C 0.247 0.86955 0.59844 0.0
C3020 C 0.24923 0.90034 0.6244 0.0
C3021 C 0.28282 0.93574 0.63473 0.0
C3022 C 0.27313 0.9207 0.62845 0.0
C3023 C 0.24376 0.88038 0.60253 0.0
C3024 C 0.25401 0.89369 0.61253 0.0
H3025 H 0.31682 0.95778 0.64921 0.0
H3026 H 0.30009 0.93236 0.64227 0.0
H3027 H 0.25461 0.91874 0.64094 0.0
H3028 H 0.21189 0.86602 0.58108 0.0
H3029 H 0.22812 0.88698 0.59886 0.0
C3030 C 0.02907 0.3353 0.65849 0.0
C3031 C 0.02893 0.34544 0.67016 0.0
C3032 C 0.04015 0.33937 0.64702 0.0
C3033 C 0.07733 0.36781 0.6406 0.0
H3034 H 0.07051 0.34893 0.59514 0.0
C3035 C 0.12085 0.38233 0.58933 0.0
C3036 C 0.12144 0.37046 0.58225 0.0
C3037 C 0.10956 0.38025 0.59965 0.0
C3038 C 0.07255 0.35427 0.60781 0.0
H3039 H 0.04011 0.36791 0.67859 0.0
H3040 H 0.05928 0.37513 0.65819 0.0
H3041 H 0.05055 0.34385 0.61339 0.0
H3042 H 0.11073 0.34709 0.58102 0.0
H3043 H 0.0909 0.34356 0.5985 0.0
H3044 H 0.09939 0.37832 0.63478 0.0
C3045 C 0.051 0.36394 0.6582 0.0
C3046 C 0.06114 0.35132 0.61832 0.0
C3047 C 0.03996 0.35983 0.66983 0.0
C3048 C 0.11049 0.3565 0.58584 0.0
C3049 C 0.09914 0.35445 0.59593 0.0
C3050 C 0.08874 0.37089 0.62996 0.0
C3051 C 0.05131 0.35373 0.64676 0.0
C3052 C 0.06339 0.35783 0.635 0.0
C3053 C 0.09855 0.36629 0.6029 0.0
C3054 C 0.08646 0.36395 0.61362 0.0
H3055 H 0.02078 0.32411 0.65848 0.0
H3056 H 0.04014 0.33114 0.63866 0.0
H3057 H 0.0795 0.37289 0.65343 0.0
H3058 H 0.12898 0.39323 0.58667 0.0
H3059 H 0.1093 0.38956 0.60482 0.0
C3060 C 0.30736 0.36877 0.66812 0.0
C3061 C 0.30511 0.35469 0.66788 0.0
C3062 C 0.29982 0.37256 0.65664 0.0
C3063 C 0.27709 0.36015 0.61624 0.0
H3064 H 0.26421 0.38551 0.63395 0.0
C3065 C 0.24511 0.37736 0.57266 0.0
C3066 C 0.23389 0.3781 0.58031 0.0
C3067 C 0.25486 0.37577 0.58293 0.0
C3068 C 0.26761 0.37832 0.62882 0.0
H3069 H 0.29329 0.33358 0.65523 0.0
H3070 H 0.27987 0.34003 0.63559 0.0
H3071 H 0.27894 0.37994 0.6524 0.0
H3072 H 0.22407 0.3778 0.6047 0.0
H3073 H 0.24082 0.37466 0.62263 0.0
H3074 H 0.26517 0.35794 0.59299 0.0
C3075 C 0.28769 0.34829 0.64434 0.0
C3076 C 0.27627 0.37529 0.63933 0.0
C3077 C 0.29534 0.34455 0.6557 0.0
C3078 C 0.23272 0.37744 0.59847 0.0
C3079 C 0.24237 0.37568 0.60874 0.0
C3080 C 0.26832 0.36306 0.60579 0.0
C3081 C 0.28973 0.36232 0.64475 0.0
C3082 C 0.28105 0.36608 0.63323 0.0
C3083 C 0.25351 0.3747 0.6011 0.0
C3084 C 0.26337 0.37212 0.61198 0.0
H3085 H 0.3149 0.37687 0.67726 0.0
H3086 H 0.3019 0.38353 0.65712 0.0
H3087 H 0.28072 0.35318 0.61098 0.0
H3088 H 0.24636 0.37801 0.55869 0.0
H3089 H 0.26345 0.37536 0.5766 0.0
C3090 C 0.68126 0.96059 0.62716 0.0
C3091 C 0.67356 0.9668 0.63381 0.0
C3092 C 0.67447 0.94594 0.62272 0.0
C3093 C 0.64008 0.91716 0.60711 0.0
H3094 H 0.65733 0.89349 0.61257 0.0
C3095 C 0.63056 0.85717 0.5862 0.0
C3096 C 0.62794 0.8571 0.56823 0.0
C3097 C 0.63407 0.86932 0.59666 0.0
C3098 C 0.65225 0.89986 0.61113 0.0
H3099 H 0.65281 0.96227 0.64197 0.0
H3100 H 0.64096 0.93663 0.63411 0.0
H3101 H 0.66769 0.91683 0.62781 0.0
H3102 H 0.62641 0.86953 0.54729 0.0
H3103 H 0.63248 0.89074 0.56559 0.0
H3104 H 0.62483 0.90034 0.59008 0.0
C3105 C 0.65224 0.94318 0.63224 0.0
C3106 C 0.65825 0.91327 0.61975 0.0
C3107 C 0.65905 0.95785 0.63684 0.0
C3108 C 0.62824 0.8692 0.56111 0.0
C3109 C 0.63172 0.88135 0.5716 0.0
C3110 C 0.63411 0.90378 0.5984 0.0
C3111 C 0.65982 0.93717 0.62473 0.0
C3112 C 0.6524 0.92218 0.61756 0.0
C3113 C 0.63497 0.88165 0.58941 0.0
C3114 C 0.6403 0.89512 0.60005 0.0
H3115 H 0.69245 0.96716 0.62475 0.0
H3116 H 0.68059 0.94164 0.61684 0.0
H3117 H 0.6354 0.92385 0.60504 0.0
H3118 H 0.63011 0.8479 0.59215 0.0
H3119 H 0.63629 0.86915 0.6104 0.0
C3120 C 0.04212 0.69933 0.66908 0.0
C3121 C 0.02796 0.69385 0.66372 0.0
C3122 C 0.05272 0.7036 0.65685 0.0
C3123 C 0.06034 0.71533 0.61157 0.0
H3124 H 0.09296 0.71073 0.61948 0.0
C3125 C 0.10577 0.73573 0.56323 0.0
C3126 C 0.11936 0.74434 0.57078 0.0
C3127 C 0.09419 0.72746 0.57361 0.0
C3128 C 0.08391 0.71209 0.61712 0.0
H3129 H 0.01372 0.68813 0.64129 0.0
H3130 H 0.0322 0.69534 0.61989 0.0
H3131 H 0.07324 0.69999 0.63932 0.0
H3132 H 0.13148 0.75066 0.59515 0.0
H3133 H 0.11131 0.73608 0.61318 0.0
H3134 H 0.07108 0.72754 0.58947 0.0
C3135 C 0.03516 0.69662 0.63358 0.0
C3136 C 0.07264 0.70599 0.6285 0.0
C3137 C 0.02456 0.69242 0.64584 0.0
C3138 C 0.12121 0.74401 0.58886 0.0
C3139 C 0.10964 0.73567 0.59922 0.0
C3140 C 0.07156 0.72134 0.60014 0.0
C3141 C 0.04939 0.70239 0.63895 0.0
C3142 C 0.06082 0.70776 0.62604 0.0
C3143 C 0.09598 0.72754 0.59174 0.0
C3144 C 0.08356 0.71998 0.60296 0.0
H3145 H 0.0451 0.70059 0.68277 0.0
H3146 H 0.06358 0.70821 0.66147 0.0
H3147 H 0.05152 0.7171 0.60942 0.0
H3148 H 0.10403 0.73552 0.54931 0.0
H3149 H 0.0838 0.72113 0.56747 0.0
C3150 C 0.99729 0.6407 0.71032 0.0
C3151 C 0.98324 0.63778 0.71037 0.0
C3152 C 0.00066 0.63055 0.71636 0.0
C3153 C 0.98638 0.6005 0.74647 0.0
H3154 H 0.01758 0.59585 0.73126 0.0
C3155 C -0.00037 0.56128 0.77962 0.0
C3156 C 0.01391 0.56682 0.78449 0.0
C3157 C 0.9957 0.56868 0.76821 0.0
C3158 C 0.00886 0.5971 0.73565 0.0
H3159 H 0.96154 0.62149 0.71513 0.0
H3160 H 0.96732 0.60363 0.72502 0.0
H3161 H 0.0107 0.61066 0.71456 0.0
H3162 H 0.03532 0.58425 0.78077 0.0
H3163 H 0.02842 0.59723 0.76078 0.0
H3164 H 0.9846 0.58712 0.7676 0.0
C3165 C 0.97583 0.61393 0.721 0.0
C3166 C 0.00493 0.60557 0.72611 0.0
C3167 C 0.9725 0.62413 0.71523 0.0
C3168 C 0.02424 0.57968 0.77719 0.0
C3169 C 0.0203 0.58708 0.76572 0.0
C3170 C 0.99024 0.592 0.75589 0.0
C3171 C 0.99 0.61723 0.72234 0.0
C3172 C 0.99369 0.60744 0.7315 0.0
C3173 C 0.00596 0.58178 0.76137 0.0
C3174 C 0.00158 0.59028 0.75067 0.0
H3175 H 0.00579 0.65115 0.70667 0.0
H3176 H 0.01169 0.63349 0.71727 0.0
H3177 H 0.97792 0.60198 0.7513 0.0
H3178 H 0.99145 0.55122 0.78468 0.0
H3179 H 0.98459 0.5642 0.76485 0.0
C3180 C 0.35903 0.38239 0.71217 0.0
C3181 C 0.36279 0.3718 0.71483 0.0
C3182 C 0.36867 0.39689 0.7163 0.0
C3183 C 0.40672 0.42259 0.7257 0.0
H3184 H 0.39312 0.4424 0.75542 0.0
C3185 C 0.4438 0.46938 0.77174 0.0
C3186 C 0.44171 0.4812 0.77393 0.0
C3187 C 0.43413 0.45719 0.76202 0.0
C3188 C 0.39705 0.43713 0.74688 0.0
H3189 H 0.37984 0.36825 0.72309 0.0
H3190 H 0.39652 0.39337 0.73021 0.0
H3191 H 0.3763 0.41902 0.74205 0.0
H3192 H 0.42775 0.48943 0.76752 0.0
H3193 H 0.4107 0.46797 0.75062 0.0
H3194 H 0.42749 0.44047 0.7309 0.0
C3195 C 0.38618 0.39054 0.72492 0.0
C3196 C 0.38741 0.42375 0.7392 0.0
C3197 C 0.37656 0.3761 0.72096 0.0
C3198 C 0.42961 0.48046 0.76622 0.0
C3199 C 0.41987 0.4682 0.75651 0.0
C3200 C 0.41633 0.43594 0.73335 0.0
C3201 C 0.38229 0.40108 0.72294 0.0
C3202 C 0.39219 0.41616 0.72891 0.0
C3203 C 0.42205 0.45644 0.75427 0.0
C3204 C 0.41165 0.44319 0.74442 0.0
H3205 H 0.34851 0.37944 0.70746 0.0
H3206 H 0.36541 0.40479 0.7145 0.0
H3207 H 0.4107 0.41712 0.71758 0.0
H3208 H 0.45282 0.46942 0.77781 0.0
H3209 H 0.43596 0.4482 0.76091 0.0
C3210 C 0.65329 0.02389 0.70046 0.0
C3211 C 0.65277 0.01252 0.69052 0.0
C3212 C 0.64235 0.02137 0.71165 0.0
C3213 C 0.61244 0.99301 0.73507 0.0
H3214 H 0.59737 0.01882 0.7323 0.0
C3215 C 0.55995 0.98039 0.76665 0.0
C3216 C 0.55933 0.99189 0.77474 0.0
C3217 C 0.57158 0.98292 0.75677 0.0
C3218 C 0.60156 0.01162 0.73342 0.0
H3219 H 0.64064 0.9895 0.68498 0.0
H3220 H 0.62157 0.98512 0.70454 0.0
H3221 H 0.61763 0.02329 0.71503 0.0
H3222 H 0.57037 0.01512 0.77854 0.0
H3223 H 0.59081 0.0195 0.76176 0.0
H3224 H 0.59642 0.98137 0.75353 0.0
C3225 C 0.63044 0.99597 0.70369 0.0
C3226 C 0.61317 0.01419 0.72352 0.0
C3227 C 0.64133 0.9985 0.69243 0.0
C3228 C 0.57059 0.00599 0.77266 0.0
C3229 C 0.58223 0.00852 0.76285 0.0
C3230 C 0.60087 0.99049 0.74506 0.0
C3231 C 0.63074 0.00741 0.71321 0.0
C3232 C 0.6187 0.00489 0.72419 0.0
C3233 C 0.58288 0.99702 0.7548 0.0
C3234 C 0.59526 -0.00026 0.74431 0.0
H3235 H 0.66198 0.03481 0.69935 0.0
H3236 H 0.64295 0.03036 0.719 0.0
H3237 H 0.61658 0.98575 0.73598 0.0
H3238 H 0.55154 0.96938 0.76814 0.0
H3239 H 0.57166 0.97383 0.75056 0.0
loop_
_geom_bond_atom_site_label_1
_geom_bond_atom_site_label_2
_geom_bond_distance
_geom_bond_site_symmetry_2
_ccdc_geom_bond_type
Mg0 O1 2.028 1_556 S
Mg0 O7 1.986 1_455 S
Mg0 O9 2.114 . S
Mg0 O10 2.251 . S
Mg0 O13 2.010 1_556 S
O1 Mg0 2.028 1_554 S
O1 C4 1.250 1_455 S
O2 Mg3 2.028 1_554 S
O2 C4 1.248 . S
Mg3 O2 2.028 1_556 S
Mg3 O8 2.032 . S
Mg3 O10 2.079 1_655 S
C4 O1 1.250 1_655 S
C4 O2 1.248 . S
C5 O6 1.264 . S
C5 O13 1.249 . S
O6 C5 1.264 . S
O7 Mg0 1.986 1_655 S
O7 C11 1.246 . S
O8 Mg3 2.032 . S
O8 C11 1.259 . S
O9 Mg0 2.114 . S
O9 C12 1.252 . S
O10 Mg0 2.251 . S
O10 Mg3 2.079 1_455 S
O10 C12 1.273 . S
C11 O7 1.246 . S
C11 O8 1.259 . S
C12 O9 1.252 . S
C12 O10 1.273 . S
O13 Mg0 2.010 1_554 S
O13 C5 1.249 . S
Mg14 O15 2.028 1_554 S
Mg14 O21 1.986 . S
Mg14 O23 2.114 . S
Mg14 O24 2.251 . S
Mg14 O27 2.010 . S
O15 Mg14 2.028 1_556 S
O15 C18 1.250 . S
O16 Mg17 2.028 . S
O16 C18 1.248 1_554 S
Mg17 O16 2.028 . S
Mg17 O22 2.032 . S
Mg17 O24 2.079 . S
C18 O15 1.250 . S
C18 O16 1.248 1_556 S
C19 O20 1.254 1_556 S
C19 O27 1.239 1_556 S
O20 C19 1.254 1_554 S
O21 Mg14 1.986 . S
O21 C25 1.246 . S
O22 Mg17 2.032 . S
O22 C25 1.259 . S
O23 Mg14 2.114 . S
O23 C26 1.252 . S
O24 Mg14 2.251 . S
O24 Mg17 2.079 . S
O24 C26 1.273 . S
C25 O21 1.246 . S
C25 O22 1.259 . S
C26 O23 1.252 . S
C26 O24 1.273 . S
O27 Mg14 2.010 . S
O27 C19 1.239 1_554 S
Mg28 O29 2.004 1_566 S
Mg28 O35 1.986 1_565 S
Mg28 O37 2.127 . S
Mg28 O38 2.273 1_565 S
Mg28 O41 1.997 1_556 S
O29 Mg28 2.004 1_544 S
O29 C32 1.271 . S
O30 Mg31 2.028 1_554 S
O30 C32 1.248 . S
Mg31 O30 2.028 1_556 S
Mg31 O36 2.032 . S
Mg31 O38 2.079 . S
C32 O29 1.271 . S
C32 O30 1.248 . S
C33 O34 1.264 . S
C33 O41 1.249 . S
O34 C33 1.264 . S
O35 Mg28 1.986 1_545 S
O35 C39 1.249 . S
O36 Mg31 2.032 . S
O36 C39 1.259 . S
O37 Mg28 2.127 . S
O37 C40 1.252 . S
O38 Mg28 2.273 1_545 S
O38 Mg31 2.079 . S
O38 C40 1.273 1_545 S
C39 O35 1.249 . S
C39 O36 1.259 . S
C40 O37 1.252 . S
C40 O38 1.273 1_565 S
O41 Mg28 1.997 1_554 S
O41 C33 1.249 . S
Mg42 O43 2.008 1_654 S
Mg42 O49 1.986 1_655 S
Mg42 O51 2.114 . S
Mg42 O52 2.251 1_655 S
Mg42 O55 2.010 . S
O43 Mg42 2.008 1_456 S
O43 C46 1.300 . S
O44 Mg45 2.028 . S
O44 C46 1.248 1_554 S
Mg45 O44 2.028 . S
Mg45 O50 2.032 . S
Mg45 O52 2.079 . S
C46 O43 1.300 . S
C46 O44 1.248 1_556 S
C47 O48 1.264 . S
C47 O55 1.249 . S
O48 C47 1.264 . S
O49 Mg42 1.986 1_455 S
O49 C53 1.246 . S
O50 Mg45 2.032 . S
O50 C53 1.259 . S
O51 Mg42 2.114 . S
O51 C54 1.252 . S
O52 Mg42 2.251 1_455 S
O52 Mg45 2.079 . S
O52 C54 1.273 1_455 S
C53 O49 1.246 . S
C53 O50 1.259 . S
C54 O51 1.252 . S
C54 O52 1.273 1_655 S
O55 Mg42 2.010 . S
O55 C47 1.249 . S
Mg56 O57 2.063 . S
Mg56 O63 1.984 1_554 S
Mg56 O65 2.102 1_554 S
Mg56 O66 2.227 1_554 S
Mg56 O69 2.028 . S
O57 Mg56 2.063 . S
O57 C60 1.250 . S
O58 Mg59 2.028 1_554 S
O58 C60 1.248 . S
Mg59 O58 2.028 1_556 S
Mg59 O64 2.032 . S
Mg59 O66 2.079 . S
C60 O57 1.250 . S
C60 O58 1.248 . S
C61 O62 1.264 . S
C61 O69 1.249 . S
O62 C61 1.264 . S
O63 Mg56 1.984 1_556 S
O63 C67 1.246 . S
O64 Mg59 2.032 . S
O64 C67 1.259 . S
O65 Mg56 2.102 1_556 S
O65 C68 1.252 . S
O66 Mg56 2.227 1_556 S
O66 Mg59 2.079 . S
O66 C68 1.273 . S
C67 O63 1.246 . S
C67 O64 1.259 . S
C68 O65 1.252 . S
C68 O66 1.273 . S
O69 Mg56 2.028 . S
O69 C61 1.249 . S
Mg70 O71 2.028 1_554 S
Mg70 O77 1.986 1_545 S
Mg70 O79 2.114 . S
Mg70 O80 2.251 1_545 S
Mg70 O83 2.010 . S
O71 Mg70 2.028 1_556 S
O71 C74 1.250 1_545 S
O72 Mg73 2.028 . S
O72 C74 1.248 1_554 S
Mg73 O72 2.028 . S
Mg73 O78 2.032 . S
Mg73 O80 2.079 . S
C74 O71 1.250 1_565 S
C74 O72 1.248 1_556 S
C75 O76 1.264 . S
C75 O83 1.249 . S
O76 C75 1.264 . S
O77 Mg70 1.986 1_565 S
O77 C81 1.246 . S
O78 Mg73 2.032 . S
O78 C81 1.259 . S
O79 Mg70 2.114 . S
O79 C82 1.252 . S
O80 Mg70 2.251 1_565 S
O80 Mg73 2.079 . S
O80 C82 1.273 1_565 S
C81 O77 1.246 . S
C81 O78 1.259 . S
C82 O79 1.252 . S
C82 O80 1.273 1_545 S
O83 Mg70 2.010 . S
O83 C75 1.249 . S
Mg84 O85 2.028 . S
Mg84 O91 1.986 . S
Mg84 O93 2.114 . S
Mg84 O94 2.251 . S
Mg84 O97 2.010 . S
O85 Mg84 2.028 . S
O85 C88 1.250 . S
O86 Mg87 2.028 . S
O86 C88 1.248 . S
Mg87 O86 2.028 . S
Mg87 O92 2.032 . S
Mg87 O94 2.079 . S
C88 O85 1.250 . S
C88 O86 1.248 . S
C89 O90 1.264 . S
C89 O97 1.249 . S
O90 C89 1.264 . S
O91 Mg84 1.986 . S
O91 C95 1.246 . S
O92 Mg87 2.032 . S
O92 C95 1.259 . S
O93 Mg84 2.114 . S
O93 C96 1.252 . S
O94 Mg84 2.251 . S
O94 Mg87 2.079 . S
O94 C96 1.273 . S
C95 O91 1.246 . S
C95 O92 1.259 . S
C96 O93 1.252 . S
C96 O94 1.273 . S
O97 Mg84 2.010 . S
O97 C89 1.249 . S
Mg98 O99 2.028 . S
Mg98 O105 1.986 1_565 S
Mg98 O107 2.114 . S
Mg98 O108 2.251 . S
Mg98 O111 2.010 . S
O99 Mg98 2.028 . S
O99 C102 1.250 . S
O100 Mg101 2.028 . S
O100 C102 1.248 . S
Mg101 O100 2.028 . S
Mg101 O106 2.032 1_565 S
Mg101 O108 2.079 . S
C102 O99 1.250 . S
C102 O100 1.248 . S
C103 O104 1.264 . S
C103 O111 1.249 . S
O104 C103 1.264 . S
O105 Mg98 1.986 1_545 S
O105 C109 1.246 . S
O106 Mg101 2.032 1_545 S
O106 C109 1.259 . S
O107 Mg98 2.114 . S
O107 C110 1.252 . S
O108 Mg98 2.251 . S
O108 Mg101 2.079 . S
O108 C110 1.273 . S
C109 O105 1.246 . S
C109 O106 1.259 . S
C110 O107 1.252 . S
C110 O108 1.273 . S
O111 Mg98 2.010 . S
O111 C103 1.249 . S
Mg112 O113 2.028 . S
Mg112 O119 1.986 . S
Mg112 O121 2.114 . S
Mg112 O122 2.251 . S
Mg112 O125 2.010 1_455 S
O113 Mg112 2.028 . S
O113 C116 1.250 . S
O114 Mg115 2.028 . S
O114 C116 1.248 . S
Mg115 O114 2.028 . S
Mg115 O120 2.032 . S
Mg115 O122 2.079 . S
C116 O113 1.250 . S
C116 O114 1.248 . S
C117 O118 1.264 . S
C117 O125 1.249 . S
O118 C117 1.264 . S
O119 Mg112 1.986 . S
O119 C123 1.246 . S
O120 Mg115 2.032 . S
O120 C123 1.259 . S
O121 Mg112 2.114 . S
O121 C124 1.252 . S
O122 Mg112 2.251 . S
O122 Mg115 2.079 . S
O122 C124 1.273 . S
C123 O119 1.246 . S
C123 O120 1.259 . S
C124 O121 1.252 . S
C124 O122 1.273 . S
O125 Mg112 2.010 1_655 S
O125 C117 1.249 . S
Mg126 O127 2.028 . S
Mg126 O133 1.986 1_565 S
Mg126 O135 2.114 . S
Mg126 O136 2.251 . S
Mg126 O139 2.010 . S
O127 Mg126 2.028 . S
O127 C130 1.250 . S
O128 Mg129 2.028 . S
O128 C130 1.248 . S
Mg129 O128 2.028 . S
Mg129 O134 1.977 1_565 S
Mg129 O136 2.079 . S
C130 O127 1.250 . S
C130 O128 1.248 . S
C131 O132 1.264 . S
C131 O139 1.249 . S
O132 C131 1.264 . S
O133 Mg126 1.986 1_545 S
O133 C137 1.246 . S
O134 Mg129 1.977 1_545 S
O134 C137 1.310 . S
O135 Mg126 2.114 . S
O135 C138 1.252 . S
O136 Mg126 2.251 . S
O136 Mg129 2.079 . S
O136 C138 1.273 . S
C137 O133 1.246 . S
C137 O134 1.310 . S
C138 O135 1.252 . S
C138 O136 1.273 . S
O139 Mg126 2.010 . S
O139 C131 1.249 . S
Mg140 O141 2.028 . S
Mg140 O147 1.986 . S
Mg140 O149 2.114 . S
Mg140 O150 2.251 . S
Mg140 O153 2.010 1_455 S
O141 Mg140 2.028 . S
O141 C144 1.250 . S
O142 Mg143 2.028 . S
O142 C144 1.248 . S
Mg143 O142 2.028 . S
Mg143 O148 2.032 . S
Mg143 O150 2.079 . S
C144 O141 1.250 . S
C144 O142 1.248 . S
C145 O146 1.264 . S
C145 O153 1.249 . S
O146 C145 1.264 . S
O147 Mg140 1.986 . S
O147 C151 1.246 . S
O148 Mg143 2.032 . S
O148 C151 1.259 . S
O149 Mg140 2.114 . S
O149 C152 1.252 . S
O150 Mg140 2.251 . S
O150 Mg143 2.079 . S
O150 C152 1.273 . S
C151 O147 1.246 . S
C151 O148 1.259 . S
C152 O149 1.252 . S
C152 O150 1.273 . S
O153 Mg140 2.010 1_655 S
O153 C145 1.249 . S
Mg154 O155 2.028 . S
Mg154 O161 1.986 . S
Mg154 O163 2.114 . S
Mg154 O164 2.251 . S
Mg154 O167 2.010 . S
O155 Mg154 2.028 . S
O155 C158 1.250 . S
O156 Mg157 2.028 . S
O156 C158 1.248 . S
Mg157 O156 2.028 . S
Mg157 O162 2.032 . S
Mg157 O164 2.079 . S
C158 O155 1.250 . S
C158 O156 1.248 . S
C159 O160 1.264 . S
C159 O167 1.249 . S
O160 C159 1.264 . S
O161 Mg154 1.986 . S
O161 C165 1.246 . S
O162 Mg157 2.032 . S
O162 C165 1.259 . S
O163 Mg154 2.114 . S
O163 C166 1.252 . S
O164 Mg154 2.251 . S
O164 Mg157 2.079 . S
O164 C166 1.273 . S
C165 O161 1.246 . S
C165 O162 1.259 . S
C166 O163 1.252 . S
C166 O164 1.273 . S
O167 Mg154 2.010 . S
O167 C159 1.249 . S
Mg168 O169 2.028 . S
Mg168 O175 1.986 1_545 S
Mg168 O177 2.114 . S
Mg168 O178 2.251 . S
Mg168 O181 2.010 . S
O169 Mg168 2.028 . S
O169 C172 1.250 . S
O170 Mg171 2.028 . S
O170 C172 1.248 . S
Mg171 O170 2.028 . S
Mg171 O176 2.032 . S
Mg171 O178 2.079 . S
C172 O169 1.250 . S
C172 O170 1.248 . S
C173 O174 1.264 . S
C173 O181 1.249 . S
O174 C173 1.264 . S
O175 Mg168 1.986 1_565 S
O175 C179 1.246 . S
O176 Mg171 2.032 . S
O176 C179 1.259 1_545 S
O177 Mg168 2.114 . S
O177 C180 1.252 . S
O178 Mg168 2.251 . S
O178 Mg171 2.079 . S
O178 C180 1.273 . S
C179 O175 1.246 . S
C179 O176 1.259 1_565 S
C180 O177 1.252 . S
C180 O178 1.273 . S
O181 Mg168 2.010 . S
O181 C173 1.249 . S
Mg182 O183 2.028 . S
Mg182 O189 1.986 . S
Mg182 O191 2.114 . S
Mg182 O192 2.251 . S
Mg182 O195 2.010 1_655 S
O183 Mg182 2.028 . S
O183 C186 1.250 . S
O184 Mg185 2.028 . S
O184 C186 1.248 . S
Mg185 O184 2.028 . S
Mg185 O190 2.032 . S
Mg185 O192 2.079 . S
C186 O183 1.250 . S
C186 O184 1.248 . S
C187 O188 1.264 . S
C187 O195 1.249 . S
O188 C187 1.264 . S
O189 Mg182 1.986 . S
O189 C193 1.246 . S
O190 Mg185 2.032 . S
O190 C193 1.259 . S
O191 Mg182 2.114 . S
O191 C194 1.252 . S
O192 Mg182 2.251 . S
O192 Mg185 2.079 . S
O192 C194 1.273 . S
C193 O189 1.246 . S
C193 O190 1.259 . S
C194 O191 1.252 . S
C194 O192 1.273 . S
O195 Mg182 2.010 1_455 S
O195 C187 1.249 . S
Mg196 O197 2.028 . S
Mg196 O203 1.986 . S
Mg196 O205 2.114 . S
Mg196 O206 2.251 . S
Mg196 O209 2.010 . S
O197 Mg196 2.028 . S
O197 C200 1.250 . S
O198 Mg199 2.028 . S
O198 C200 1.248 . S
Mg199 O198 2.028 . S
Mg199 O204 2.032 . S
Mg199 O206 2.079 . S
C200 O197 1.250 . S
C200 O198 1.248 . S
C201 O202 1.264 . S
C201 O209 1.249 . S
O202 C201 1.264 . S
O203 Mg196 1.986 . S
O203 C207 1.246 . S
O204 Mg199 2.032 . S
O204 C207 1.259 . S
O205 Mg196 2.114 . S
O205 C208 1.252 . S
O206 Mg196 2.251 . S
O206 Mg199 2.079 . S
O206 C208 1.273 . S
C207 O203 1.246 . S
C207 O204 1.259 . S
C208 O205 1.252 . S
C208 O206 1.273 . S
O209 Mg196 2.010 . S
O209 C201 1.249 . S
Mg210 O211 2.028 . S
Mg210 O217 1.986 . S
Mg210 O219 2.114 . S
Mg210 O220 2.251 . S
Mg210 O223 2.010 . S
O211 Mg210 2.028 . S
O211 C214 1.250 . S
O212 Mg213 2.028 . S
O212 C214 1.248 . S
Mg213 O212 2.028 . S
Mg213 O218 2.032 . S
Mg213 O220 2.079 . S
C214 O211 1.250 . S
C214 O212 1.248 . S
C215 O216 1.264 . S
C215 O223 1.249 . S
O216 C215 1.264 . S
O217 Mg210 1.986 . S
O217 C221 1.246 . S
O218 Mg213 2.032 . S
O218 C221 1.259 . S
O219 Mg210 2.114 . S
O219 C222 1.252 . S
O220 Mg210 2.251 . S
O220 Mg213 2.079 . S
O220 C222 1.273 . S
C221 O217 1.246 . S
C221 O218 1.259 . S
C222 O219 1.252 . S
C222 O220 1.273 . S
O223 Mg210 2.010 . S
O223 C215 1.249 . S
Mg224 O225 2.028 . S
Mg224 O231 1.986 1_545 S
Mg224 O233 2.114 . S
Mg224 O234 2.251 . S
Mg224 O237 2.010 . S
O225 Mg224 2.028 . S
O225 C228 1.250 . S
O226 Mg227 2.028 . S
O226 C228 1.248 . S
Mg227 O226 2.028 . S
Mg227 O232 2.032 1_545 S
Mg227 O234 2.079 . S
C228 O225 1.250 . S
C228 O226 1.248 . S
C229 O230 1.264 . S
C229 O237 1.249 . S
O230 C229 1.264 . S
O231 Mg224 1.986 1_565 S
O231 C235 1.246 . S
O232 Mg227 2.032 1_565 S
O232 C235 1.259 . S
O233 Mg224 2.114 . S
O233 C236 1.252 . S
O234 Mg224 2.251 . S
O234 Mg227 2.079 . S
O234 C236 1.273 . S
C235 O231 1.246 . S
C235 O232 1.259 . S
C236 O233 1.252 . S
C236 O234 1.273 . S
O237 Mg224 2.010 . S
O237 C229 1.249 . S
Mg238 O239 2.028 . S
Mg238 O245 1.986 . S
Mg238 O247 2.114 . S
Mg238 O248 2.251 . S
Mg238 O251 2.010 1_655 S
O239 Mg238 2.028 . S
O239 C242 1.250 . S
O240 Mg241 2.028 . S
O240 C242 1.248 . S
Mg241 O240 2.028 . S
Mg241 O246 2.032 . S
Mg241 O248 2.079 . S
C242 O239 1.250 . S
C242 O240 1.248 . S
C243 O244 1.264 . S
C243 O251 1.249 . S
O244 C243 1.264 . S
O245 Mg238 1.986 . S
O245 C249 1.246 . S
O246 Mg241 2.032 . S
O246 C249 1.259 . S
O247 Mg238 2.114 . S
O247 C250 1.252 . S
O248 Mg238 2.251 . S
O248 Mg241 2.079 . S
O248 C250 1.273 . S
C249 O245 1.246 . S
C249 O246 1.259 . S
C250 O247 1.252 . S
C250 O248 1.273 . S
O251 Mg238 2.010 1_455 S
O251 C243 1.249 . S
C252 C253 1.384 . S
C252 C254 1.384 . S
C252 H280 0.931 . S
C253 C252 1.384 . S
C253 C256 1.382 . S
C254 C252 1.384 . S
C254 C255 1.381 . S
C254 H281 0.930 . S
C255 C254 1.381 . S
C255 C257 1.381 . S
C255 C258 1.487 . S
C256 C253 1.382 . S
C256 C257 1.387 . S
C256 H282 0.930 . S
C257 C255 1.381 . S
C257 C256 1.387 . S
C257 H283 0.931 . S
C258 C255 1.487 . S
C258 C265 1.399 . S
C258 N296 1.343 . S
C259 C260 1.384 . S
C259 C261 1.384 . S
C259 H284 0.931 . S
C260 C259 1.384 . S
C260 C263 1.382 . S
C261 C259 1.384 . S
C261 C262 1.381 . S
C261 H285 0.930 . S
C262 C261 1.381 . S
C262 C264 1.381 . S
C262 C265 1.487 . S
C263 C260 1.382 . S
C263 C264 1.387 . S
C263 H286 0.930 . S
C264 C262 1.381 . S
C264 C263 1.387 . S
C264 H287 0.931 . S
C265 C258 1.399 . S
C265 C262 1.487 . S
C265 N297 1.343 . S
C266 C267 1.384 . S
C266 C268 1.384 . S
C266 H288 0.931 . S
C267 C266 1.384 . S
C267 C270 1.382 . S
C268 C266 1.384 . S
C268 C269 1.381 . S
C268 H289 0.930 . S
C269 C268 1.381 . S
C269 C271 1.381 . S
C269 C272 1.487 . S
C270 C267 1.382 . S
C270 C271 1.387 . S
C270 H290 0.930 . S
C271 C269 1.381 . S
C271 C270 1.387 . S
C271 H291 0.931 . S
C272 C269 1.487 . S
C272 C279 1.399 . S
C272 N297 1.343 . S
C273 C274 1.384 . S
C273 C275 1.384 . S
C273 H292 0.931 . S
C274 C273 1.384 . S
C274 C277 1.382 . S
C275 C273 1.384 . S
C275 C276 1.381 . S
C275 H293 0.930 . S
C276 C275 1.381 . S
C276 C278 1.381 . S
C276 C279 1.487 . S
C277 C274 1.382 . S
C277 C278 1.387 . S
C277 H294 0.930 . S
C278 C276 1.381 . S
C278 C277 1.387 . S
C278 H295 0.931 . S
C279 C272 1.399 . S
C279 C276 1.487 . S
C279 N296 1.343 . S
H280 C252 0.931 . S
H281 C254 0.930 . S
H282 C256 0.930 . S
H283 C257 0.931 . S
H284 C259 0.931 . S
H285 C261 0.930 . S
H286 C263 0.930 . S
H287 C264 0.931 . S
H288 C266 0.931 . S
H289 C268 0.930 . S
H290 C270 0.930 . S
H291 C271 0.931 . S
H292 C273 0.931 . S
H293 C275 0.930 . S
H294 C277 0.930 . S
H295 C278 0.931 . S
N296 C258 1.343 . S
N296 C279 1.343 . S
N297 C265 1.343 . S
N297 C272 1.343 . S
C298 C299 1.384 . S
C298 C300 1.384 . S
C298 H326 0.931 . S
C299 C298 1.384 . S
C299 C302 1.382 . S
C300 C298 1.384 . S
C300 C301 1.381 . S
C300 H327 0.930 . S
C301 C300 1.381 . S
C301 C303 1.381 . S
C301 C304 1.487 . S
C302 C299 1.382 . S
C302 C303 1.387 . S
C302 H328 0.930 . S
C303 C301 1.381 . S
C303 C302 1.387 . S
C303 H329 0.931 . S
C304 C301 1.487 . S
C304 C311 1.399 . S
C304 N342 1.343 . S
C305 C306 1.384 . S
C305 C307 1.384 . S
C305 H330 0.931 . S
C306 C305 1.384 . S
C306 C309 1.382 . S
C307 C305 1.384 . S
C307 C308 1.381 . S
C307 H331 0.930 . S
C308 C307 1.381 . S
C308 C310 1.381 . S
C308 C311 1.487 . S
C309 C306 1.382 . S
C309 C310 1.387 . S
C309 H332 0.930 . S
C310 C308 1.381 . S
C310 C309 1.387 . S
C310 H333 0.931 . S
C311 C304 1.399 . S
C311 C308 1.487 . S
C311 N343 1.343 . S
C312 C313 1.384 . S
C312 C314 1.384 . S
C312 H334 0.931 . S
C313 C312 1.384 . S
C313 C316 1.382 . S
C314 C312 1.384 . S
C314 C315 1.381 . S
C314 H335 0.930 . S
C315 C314 1.381 . S
C315 C317 1.381 . S
C315 C318 1.487 . S
C316 C313 1.382 . S
C316 C317 1.387 . S
C316 H336 0.930 . S
C317 C315 1.381 . S
C317 C316 1.387 . S
C317 H337 0.931 . S
C318 C315 1.487 . S
C318 C325 1.399 . S
C318 N343 1.343 . S
C319 C320 1.384 . S
C319 C321 1.384 . S
C319 H338 0.931 . S
C320 C319 1.384 . S
C320 C323 1.382 . S
C321 C319 1.384 . S
C321 C322 1.381 . S
C321 H339 0.930 . S
C322 C321 1.381 . S
C322 C324 1.381 . S
C322 C325 1.487 . S
C323 C320 1.382 . S
C323 C324 1.387 . S
C323 H340 0.930 . S
C324 C322 1.381 . S
C324 C323 1.387 . S
C324 H341 0.931 . S
C325 C318 1.399 . S
C325 C322 1.487 . S
C325 N342 1.343 . S
H326 C298 0.931 . S
H327 C300 0.930 . S
H328 C302 0.930 . S
H329 C303 0.931 . S
H330 C305 0.931 . S
H331 C307 0.930 . S
H332 C309 0.930 . S
H333 C310 0.931 . S
H334 C312 0.931 . S
H335 C314 0.930 . S
H336 C316 0.930 . S
H337 C317 0.931 . S
H338 C319 0.931 . S
H339 C321 0.930 . S
H340 C323 0.930 . S
H341 C324 0.931 . S
N342 C304 1.343 . S
N342 C325 1.343 . S
N343 C311 1.343 . S
N343 C318 1.343 . S
C344 C345 1.384 . S
C344 C346 1.384 . S
C344 H372 0.931 . S
C345 C344 1.384 . S
C345 C348 1.382 . S
C346 C344 1.384 . S
C346 C347 1.381 . S
C346 H373 0.930 . S
C347 C346 1.381 . S
C347 C349 1.381 . S
C347 C350 1.487 . S
C348 C345 1.382 . S
C348 C349 1.387 . S
C348 H374 0.930 . S
C349 C347 1.381 . S
C349 C348 1.387 . S
C349 H375 0.931 . S
C350 C347 1.487 . S
C350 C357 1.399 . S
C350 N388 1.343 . S
C351 C352 1.384 . S
C351 C353 1.384 . S
C351 H376 0.931 . S
C352 C351 1.384 . S
C352 C355 1.382 . S
C353 C351 1.384 . S
C353 C354 1.381 . S
C353 H377 0.930 . S
C354 C353 1.381 . S
C354 C356 1.381 . S
C354 C357 1.487 . S
C355 C352 1.382 . S
C355 C356 1.387 . S
C355 H378 0.930 . S
C356 C354 1.381 . S
C356 C355 1.387 . S
C356 H379 0.931 . S
C357 C350 1.399 . S
C357 C354 1.487 . S
C357 N389 1.343 . S
C358 C359 1.384 . S
C358 C360 1.384 . S
C358 H380 0.931 . S
C359 C358 1.384 . S
C359 C362 1.382 . S
C360 C358 1.384 . S
C360 C361 1.381 . S
C360 H381 0.930 . S
C361 C360 1.381 . S
C361 C363 1.381 . S
C361 C364 1.487 . S
C362 C359 1.382 . S
C362 C363 1.387 . S
C362 H382 0.930 . S
C363 C361 1.381 . S
C363 C362 1.387 . S
C363 H383 0.931 . S
C364 C361 1.487 . S
C364 C371 1.399 . S
C364 N389 1.343 . S
C365 C366 1.384 . S
C365 C367 1.384 . S
C365 H384 0.931 . S
C366 C365 1.384 . S
C366 C369 1.382 . S
C367 C365 1.384 . S
C367 C368 1.381 . S
C367 H385 0.930 . S
C368 C367 1.381 . S
C368 C370 1.381 . S
C368 C371 1.487 . S
C369 C366 1.382 . S
C369 C370 1.387 . S
C369 H386 0.930 . S
C370 C368 1.381 . S
C370 C369 1.387 . S
C370 H387 0.931 . S
C371 C364 1.399 . S
C371 C368 1.487 . S
C371 N388 1.343 . S
H372 C344 0.931 . S
H373 C346 0.930 . S
H374 C348 0.930 . S
H375 C349 0.931 . S
H376 C351 0.931 . S
H377 C353 0.930 . S
H378 C355 0.930 . S
H379 C356 0.931 . S
H380 C358 0.931 . S
H381 C360 0.930 . S
H382 C362 0.930 . S
H383 C363 0.931 . S
H384 C365 0.931 . S
H385 C367 0.930 . S
H386 C369 0.930 . S
H387 C370 0.931 . S
N388 C350 1.343 . S
N388 C371 1.343 . S
N389 C357 1.343 . S
N389 C364 1.343 . S
C390 C391 1.384 . S
C390 C392 1.384 . S
C390 H418 0.931 . S
C391 C390 1.384 . S
C391 C394 1.382 . S
C392 C390 1.384 . S
C392 C393 1.381 . S
C392 H419 0.930 . S
C393 C392 1.381 . S
C393 C395 1.381 . S
C393 C396 1.487 . S
C394 C391 1.382 . S
C394 C395 1.387 . S
C394 H420 0.930 . S
C395 C393 1.381 . S
C395 C394 1.387 . S
C395 H421 0.931 . S
C396 C393 1.487 . S
C396 C403 1.399 . S
C396 N434 1.343 . S
C397 C398 1.384 . S
C397 C399 1.384 . S
C397 H422 0.931 . S
C398 C397 1.384 . S
C398 C401 1.382 . S
C399 C397 1.384 . S
C399 C400 1.381 . S
C399 H423 0.930 . S
C400 C399 1.381 . S
C400 C402 1.381 . S
C400 C403 1.487 . S
C401 C398 1.382 . S
C401 C402 1.387 . S
C401 H424 0.930 . S
C402 C400 1.381 . S
C402 C401 1.387 . S
C402 H425 0.931 . S
C403 C396 1.399 . S
C403 C400 1.487 . S
C403 N435 1.343 . S
C404 C405 1.384 . S
C404 C406 1.384 . S
C404 H426 0.931 . S
C405 C404 1.384 . S
C405 C408 1.382 . S
C406 C404 1.384 . S
C406 C407 1.381 . S
C406 H427 0.930 . S
C407 C406 1.381 . S
C407 C409 1.381 . S
C407 C410 1.487 . S
C408 C405 1.382 . S
C408 C409 1.387 . S
C408 H428 0.930 . S
C409 C407 1.381 . S
C409 C408 1.387 . S
C409 H429 0.931 . S
C410 C407 1.487 . S
C410 C417 1.399 . S
C410 N435 1.343 . S
C411 C412 1.384 . S
C411 C413 1.384 . S
C411 H430 0.931 . S
C412 C411 1.384 . S
C412 C415 1.382 . S
C413 C411 1.384 . S
C413 C414 1.381 . S
C413 H431 0.930 . S
C414 C413 1.381 . S
C414 C416 1.381 . S
C414 C417 1.487 . S
C415 C412 1.382 . S
C415 C416 1.387 . S
C415 H432 0.930 . S
C416 C414 1.381 . S
C416 C415 1.387 . S
C416 H433 0.931 . S
C417 C410 1.399 . S
C417 C414 1.487 . S
C417 N434 1.343 . S
H418 C390 0.931 . S
H419 C392 0.930 . S
H420 C394 0.930 . S
H421 C395 0.931 . S
H422 C397 0.931 . S
H423 C399 0.930 . S
H424 C401 0.930 . S
H425 C402 0.931 . S
H426 C404 0.931 . S
H427 C406 0.930 . S
H428 C408 0.930 . S
H429 C409 0.931 . S
H430 C411 0.931 . S
H431 C413 0.930 . S
H432 C415 0.930 . S
H433 C416 0.931 . S
N434 C396 1.343 . S
N434 C417 1.343 . S
N435 C403 1.343 . S
N435 C410 1.343 . S
C436 C437 1.384 . S
C436 C438 1.384 . S
C436 H464 0.931 . S
C437 C436 1.384 . S
C437 C440 1.382 . S
C438 C436 1.384 . S
C438 C439 1.381 . S
C438 H465 0.930 . S
C439 C438 1.381 . S
C439 C441 1.381 . S
C439 C442 1.487 . S
C440 C437 1.382 . S
C440 C441 1.387 . S
C440 H466 0.930 . S
C441 C439 1.381 . S
C441 C440 1.387 . S
C441 H467 0.931 . S
C442 C439 1.487 . S
C442 C449 1.399 . S
C442 N480 1.343 . S
C443 C444 1.384 . S
C443 C445 1.384 . S
C443 H468 0.931 . S
C444 C443 1.384 . S
C444 C447 1.382 . S
C445 C443 1.384 . S
C445 C446 1.381 . S
C445 H469 0.930 . S
C446 C445 1.381 . S
C446 C448 1.381 . S
C446 C449 1.487 . S
C447 C444 1.382 . S
C447 C448 1.387 . S
C447 H470 0.930 . S
C448 C446 1.381 . S
C448 C447 1.387 . S
C448 H471 0.931 . S
C449 C442 1.399 . S
C449 C446 1.487 . S
C449 N481 1.343 . S
C450 C451 1.384 . S
C450 C452 1.384 . S
C450 H472 0.931 . S
C451 C450 1.384 . S
C451 C454 1.382 . S
C452 C450 1.384 . S
C452 C453 1.381 . S
C452 H473 0.930 . S
C453 C452 1.381 . S
C453 C455 1.381 . S
C453 C456 1.487 . S
C454 C451 1.382 . S
C454 C455 1.387 . S
C454 H474 0.930 . S
C455 C453 1.381 . S
C455 C454 1.387 . S
C455 H475 0.931 . S
C456 C453 1.487 . S
C456 C463 1.399 . S
C456 N481 1.343 . S
C457 C458 1.384 . S
C457 C459 1.384 . S
C457 H476 0.931 . S
C458 C457 1.384 . S
C458 C461 1.382 . S
C459 C457 1.384 . S
C459 C460 1.381 . S
C459 H477 0.930 . S
C460 C459 1.381 . S
C460 C462 1.381 . S
C460 C463 1.487 . S
C461 C458 1.382 . S
C461 C462 1.387 . S
C461 H478 0.930 . S
C462 C460 1.381 . S
C462 C461 1.387 . S
C462 H479 0.931 . S
C463 C456 1.399 . S
C463 C460 1.487 . S
C463 N480 1.343 . S
H464 C436 0.931 . S
H465 C438 0.930 . S
H466 C440 0.930 . S
H467 C441 0.931 . S
H468 C443 0.931 . S
H469 C445 0.930 . S
H470 C447 0.930 . S
H471 C448 0.931 . S
H472 C450 0.931 . S
H473 C452 0.930 . S
H474 C454 0.930 . S
H475 C455 0.931 . S
H476 C457 0.931 . S
H477 C459 0.930 . S
H478 C461 0.930 . S
H479 C462 0.931 . S
N480 C442 1.343 . S
N480 C463 1.343 . S
N481 C449 1.343 . S
N481 C456 1.343 . S
C482 C483 1.384 . S
C482 C484 1.384 . S
C482 H510 0.931 . S
C483 C482 1.384 . S
C483 C486 1.382 . S
C484 C482 1.384 . S
C484 C485 1.381 . S
C484 H511 0.930 . S
C485 C484 1.381 . S
C485 C487 1.381 . S
C485 C488 1.487 . S
C486 C483 1.382 . S
C486 C487 1.387 . S
C486 H512 0.930 . S
C487 C485 1.381 . S
C487 C486 1.387 . S
C487 H513 0.931 . S
C488 C485 1.487 . S
C488 C495 1.399 . S
C488 N526 1.343 . S
C489 C490 1.384 . S
C489 C491 1.384 . S
C489 H514 0.931 . S
C490 C489 1.384 . S
C490 C493 1.382 . S
C491 C489 1.384 . S
C491 C492 1.381 . S
C491 H515 0.930 . S
C492 C491 1.381 . S
C492 C494 1.381 . S
C492 C495 1.487 . S
C493 C490 1.382 . S
C493 C494 1.387 . S
C493 H516 0.930 . S
C494 C492 1.381 . S
C494 C493 1.387 . S
C494 H517 0.931 . S
C495 C488 1.399 . S
C495 C492 1.487 . S
C495 N527 1.343 . S
C496 C497 1.384 . S
C496 C498 1.384 . S
C496 H518 0.931 . S
C497 C496 1.384 . S
C497 C500 1.382 . S
C498 C496 1.384 . S
C498 C499 1.381 . S
C498 H519 0.930 . S
C499 C498 1.381 . S
C499 C501 1.381 . S
C499 C502 1.487 . S
C500 C497 1.382 . S
C500 C501 1.387 . S
C500 H520 0.930 . S
C501 C499 1.381 . S
C501 C500 1.387 . S
C501 H521 0.931 . S
C502 C499 1.487 . S
C502 C509 1.399 . S
C502 N527 1.343 . S
C503 C504 1.384 . S
C503 C505 1.384 . S
C503 H522 0.931 . S
C504 C503 1.384 . S
C504 C507 1.382 . S
C505 C503 1.384 . S
C505 C506 1.381 . S
C505 H523 0.930 . S
C506 C505 1.381 . S
C506 C508 1.381 . S
C506 C509 1.487 . S
C507 C504 1.382 . S
C507 C508 1.387 . S
C507 H524 0.930 . S
C508 C506 1.381 . S
C508 C507 1.387 . S
C508 H525 0.931 . S
C509 C502 1.399 . S
C509 C506 1.487 . S
C509 N526 1.343 . S
H510 C482 0.931 . S
H511 C484 0.930 . S
H512 C486 0.930 . S
H513 C487 0.931 . S
H514 C489 0.931 . S
H515 C491 0.930 . S
H516 C493 0.930 . S
H517 C494 0.931 . S
H518 C496 0.931 . S
H519 C498 0.930 . S
H520 C500 0.930 . S
H521 C501 0.931 . S
H522 C503 0.931 . S
H523 C505 0.930 . S
H524 C507 0.930 . S
H525 C508 0.931 . S
N526 C488 1.343 . S
N526 C509 1.343 . S
N527 C495 1.343 . S
N527 C502 1.343 . S
C528 C529 1.384 . S
C528 C530 1.384 . S
C528 H556 0.931 . S
C529 C528 1.384 . S
C529 C532 1.382 . S
C530 C528 1.384 . S
C530 C531 1.381 . S
C530 H557 0.930 . S
C531 C530 1.381 . S
C531 C533 1.381 . S
C531 C534 1.487 . S
C532 C529 1.382 . S
C532 C533 1.387 . S
C532 H558 0.930 . S
C533 C531 1.381 . S
C533 C532 1.387 . S
C533 H559 0.931 . S
C534 C531 1.487 . S
C534 C541 1.399 . S
C534 N572 1.343 . S
C535 C536 1.384 . S
C535 C537 1.384 . S
C535 H560 0.931 . S
C536 C535 1.384 . S
C536 C539 1.382 . S
C537 C535 1.384 . S
C537 C538 1.381 . S
C537 H561 0.930 . S
C538 C537 1.381 . S
C538 C540 1.381 . S
C538 C541 1.487 . S
C539 C536 1.382 . S
C539 C540 1.387 . S
C539 H562 0.930 . S
C540 C538 1.381 . S
C540 C539 1.387 . S
C540 H563 0.931 . S
C541 C534 1.399 . S
C541 C538 1.487 . S
C541 N573 1.343 . S
C542 C543 1.384 . S
C542 C544 1.384 . S
C542 H564 0.931 . S
C543 C542 1.384 . S
C543 C546 1.382 . S
C544 C542 1.384 . S
C544 C545 1.381 . S
C544 H565 0.930 . S
C545 C544 1.381 . S
C545 C547 1.381 . S
C545 C548 1.487 . S
C546 C543 1.382 . S
C546 C547 1.387 . S
C546 H566 0.930 . S
C547 C545 1.381 . S
C547 C546 1.387 . S
C547 H567 0.931 . S
C548 C545 1.487 . S
C548 C555 1.399 . S
C548 N573 1.343 . S
C549 C550 1.384 . S
C549 C551 1.384 . S
C549 H568 0.931 . S
C550 C549 1.384 . S
C550 C553 1.382 . S
C551 C549 1.384 . S
C551 C552 1.381 . S
C551 H569 0.930 . S
C552 C551 1.381 . S
C552 C554 1.381 . S
C552 C555 1.487 . S
C553 C550 1.382 . S
C553 C554 1.387 . S
C553 H570 0.930 . S
C554 C552 1.381 . S
C554 C553 1.387 . S
C554 H571 0.931 . S
C555 C548 1.399 . S
C555 C552 1.487 . S
C555 N572 1.343 . S
H556 C528 0.931 . S
H557 C530 0.930 . S
H558 C532 0.930 . S
H559 C533 0.931 . S
H560 C535 0.931 . S
H561 C537 0.930 . S
H562 C539 0.930 . S
H563 C540 0.931 . S
H564 C542 0.931 . S
H565 C544 0.930 . S
H566 C546 0.930 . S
H567 C547 0.931 . S
H568 C549 0.931 . S
H569 C551 0.930 . S
H570 C553 0.930 . S
H571 C554 0.931 . S
N572 C534 1.343 . S
N572 C555 1.343 . S
N573 C541 1.343 . S
N573 C548 1.343 . S
C574 C575 1.384 . S
C574 C576 1.384 . S
C574 H602 0.931 . S
C575 C574 1.384 . S
C575 C578 1.382 . S
C576 C574 1.384 . S
C576 C577 1.381 . S
C576 H603 0.930 . S
C577 C576 1.381 . S
C577 C579 1.381 . S
C577 C580 1.487 . S
C578 C575 1.382 . S
C578 C579 1.387 . S
C578 H604 0.930 . S
C579 C577 1.381 . S
C579 C578 1.387 . S
C579 H605 0.931 . S
C580 C577 1.487 . S
C580 C587 1.399 . S
C580 N618 1.343 . S
C581 C582 1.384 . S
C581 C583 1.384 . S
C581 H606 0.931 . S
C582 C581 1.384 . S
C582 C585 1.382 . S
C583 C581 1.384 . S
C583 C584 1.381 . S
C583 H607 0.930 . S
C584 C583 1.381 . S
C584 C586 1.381 . S
C584 C587 1.487 . S
C585 C582 1.382 . S
C585 C586 1.387 . S
C585 H608 0.930 . S
C586 C584 1.381 . S
C586 C585 1.387 . S
C586 H609 0.931 . S
C587 C580 1.399 . S
C587 C584 1.487 . S
C587 N619 1.343 . S
C588 C589 1.384 . S
C588 C590 1.384 . S
C588 H610 0.931 . S
C589 C588 1.384 . S
C589 C592 1.382 . S
C590 C588 1.384 . S
C590 C591 1.381 . S
C590 H611 0.930 . S
C591 C590 1.381 . S
C591 C593 1.381 . S
C591 C594 1.487 . S
C592 C589 1.382 . S
C592 C593 1.387 . S
C592 H612 0.930 . S
C593 C591 1.381 . S
C593 C592 1.387 . S
C593 H613 0.931 . S
C594 C591 1.487 . S
C594 C601 1.399 . S
C594 N619 1.343 . S
C595 C596 1.384 . S
C595 C597 1.384 . S
C595 H614 0.931 . S
C596 C595 1.384 . S
C596 C599 1.382 . S
C597 C595 1.384 . S
C597 C598 1.381 . S
C597 H615 0.930 . S
C598 C597 1.381 . S
C598 C600 1.381 . S
C598 C601 1.487 . S
C599 C596 1.382 . S
C599 C600 1.387 . S
C599 H616 0.930 . S
C600 C598 1.381 . S
C600 C599 1.387 . S
C600 H617 0.931 . S
C601 C594 1.399 . S
C601 C598 1.487 . S
C601 N618 1.343 . S
H602 C574 0.931 . S
H603 C576 0.930 . S
H604 C578 0.930 . S
H605 C579 0.931 . S
H606 C581 0.931 . S
H607 C583 0.930 . S
H608 C585 0.930 . S
H609 C586 0.931 . S
H610 C588 0.931 . S
H611 C590 0.930 . S
H612 C592 0.930 . S
H613 C593 0.931 . S
H614 C595 0.931 . S
H615 C597 0.930 . S
H616 C599 0.930 . S
H617 C600 0.931 . S
N618 C580 1.343 . S
N618 C601 1.343 . S
N619 C587 1.343 . S
N619 C594 1.343 . S
C620 C621 1.384 . S
C620 C622 1.384 . S
C620 H648 0.931 . S
C621 C620 1.384 . S
C621 C624 1.382 . S
C622 C620 1.384 . S
C622 C623 1.381 . S
C622 H649 0.930 . S
C623 C622 1.381 . S
C623 C625 1.381 . S
C623 C626 1.487 . S
C624 C621 1.382 . S
C624 C625 1.387 . S
C624 H650 0.930 . S
C625 C623 1.381 . S
C625 C624 1.387 . S
C625 H651 0.931 . S
C626 C623 1.487 . S
C626 C633 1.399 . S
C626 N664 1.343 . S
C627 C628 1.384 . S
C627 C629 1.384 . S
C627 H652 0.931 . S
C628 C627 1.384 . S
C628 C631 1.382 . S
C629 C627 1.384 . S
C629 C630 1.381 . S
C629 H653 0.930 . S
C630 C629 1.381 . S
C630 C632 1.381 . S
C630 C633 1.487 . S
C631 C628 1.382 . S
C631 C632 1.387 . S
C631 H654 0.930 . S
C632 C630 1.381 . S
C632 C631 1.387 . S
C632 H655 0.931 . S
C633 C626 1.399 . S
C633 C630 1.487 . S
C633 N665 1.343 . S
C634 C635 1.384 . S
C634 C636 1.384 . S
C634 H656 0.931 . S
C635 C634 1.384 . S
C635 C638 1.382 . S
C636 C634 1.384 . S
C636 C637 1.381 . S
C636 H657 0.930 . S
C637 C636 1.381 . S
C637 C639 1.381 . S
C637 C640 1.487 . S
C638 C635 1.382 . S
C638 C639 1.387 . S
C638 H658 0.930 . S
C639 C637 1.381 . S
C639 C638 1.387 . S
C639 H659 0.931 . S
C640 C637 1.487 . S
C640 C647 1.399 . S
C640 N665 1.343 . S
C641 C642 1.384 . S
C641 C643 1.384 . S
C641 H660 0.931 . S
C642 C641 1.384 . S
C642 C645 1.382 . S
C643 C641 1.384 . S
C643 C644 1.381 . S
C643 H661 0.930 . S
C644 C643 1.381 . S
C644 C646 1.381 . S
C644 C647 1.487 . S
C645 C642 1.382 . S
C645 C646 1.387 . S
C645 H662 0.930 . S
C646 C644 1.381 . S
C646 C645 1.387 . S
C646 H663 0.931 . S
C647 C640 1.399 . S
C647 C644 1.487 . S
C647 N664 1.343 . S
H648 C620 0.931 . S
H649 C622 0.930 . S
H650 C624 0.930 . S
H651 C625 0.931 . S
H652 C627 0.931 . S
H653 C629 0.930 . S
H654 C631 0.930 . S
H655 C632 0.931 . S
H656 C634 0.931 . S
H657 C636 0.930 . S
H658 C638 0.930 . S
H659 C639 0.931 . S
H660 C641 0.931 . S
H661 C643 0.930 . S
H662 C645 0.930 . S
H663 C646 0.931 . S
N664 C626 1.343 . S
N664 C647 1.343 . S
N665 C633 1.343 . S
N665 C640 1.343 . S
C666 C667 1.384 . S
C666 C668 1.384 . S
C666 H694 0.931 . S
C667 C666 1.384 . S
C667 C670 1.382 1_655 S
C668 C666 1.384 . S
C668 C669 1.384 . S
C668 H695 0.930 . S
C669 C668 1.384 . S
C669 C671 1.380 1_655 S
C669 C672 1.479 1_655 S
C670 C667 1.382 1_455 S
C670 C671 1.387 . S
C670 H696 0.930 . S
C671 C669 1.380 1_455 S
C671 C670 1.387 . S
C671 H697 0.931 . S
C672 C669 1.479 1_455 S
C672 C679 1.398 1_455 S
C672 N710 1.311 . S
C673 C674 1.384 . S
C673 C675 1.384 . S
C673 H698 0.931 . S
C674 C673 1.384 . S
C674 C677 1.382 1_455 S
C675 C673 1.384 . S
C675 C676 1.382 1_455 S
C675 H699 0.930 . S
C676 C675 1.382 1_655 S
C676 C678 1.378 . S
C676 C679 1.495 . S
C677 C674 1.382 1_655 S
C677 C678 1.387 . S
C677 H700 0.930 . S
C678 C676 1.378 . S
C678 C677 1.387 . S
C678 H701 0.931 . S
C679 C672 1.398 1_655 S
C679 C676 1.495 . S
C679 N711 1.364 . S
C680 C681 1.384 . S
C680 C682 1.384 . S
C680 H702 0.931 . S
C681 C680 1.384 . S
C681 C684 1.382 1_455 S
C682 C680 1.384 . S
C682 C683 1.404 . S
C682 H703 0.930 . S
C683 C682 1.404 . S
C683 C685 1.369 1_455 S
C683 C686 1.479 1_455 S
C684 C681 1.382 1_655 S
C684 C685 1.387 . S
C684 H704 0.930 . S
C685 C683 1.369 1_655 S
C685 C684 1.387 . S
C685 H705 0.931 . S
C686 C683 1.479 1_655 S
C686 C693 1.398 1_655 S
C686 N711 1.311 . S
C687 C688 1.441 . S
C687 C689 1.384 . S
C687 H706 0.931 . S
C688 C687 1.441 . S
C688 C691 1.365 1_655 S
C689 C687 1.384 . S
C689 C690 1.378 1_655 S
C689 H707 0.930 . S
C690 C689 1.378 1_455 S
C690 C692 1.390 . S
C690 C693 1.495 . S
C691 C688 1.365 1_455 S
C691 C692 1.387 . S
C691 H708 0.930 . S
C692 C690 1.390 . S
C692 C691 1.387 . S
C692 H709 0.931 . S
C693 C686 1.398 1_455 S
C693 C690 1.495 . S
C693 N710 1.364 . S
H694 C666 0.931 . S
H695 C668 0.930 . S
H696 C670 0.930 . S
H697 C671 0.931 . S
H698 C673 0.931 . S
H699 C675 0.930 . S
H700 C677 0.930 . S
H701 C678 0.931 . S
H702 C680 0.931 . S
H703 C682 0.930 . S
H704 C684 0.930 . S
H705 C685 0.931 . S
H706 C687 0.931 . S
H707 C689 0.930 . S
H708 C691 0.930 . S
H709 C692 0.931 . S
N710 C672 1.311 . S
N710 C693 1.364 . S
N711 C679 1.364 . S
N711 C686 1.311 . S
C712 C713 1.384 . S
C712 C714 1.384 . S
C712 H740 0.931 . S
C713 C712 1.384 . S
C713 C716 1.382 . S
C714 C712 1.384 . S
C714 C715 1.381 . S
C714 H741 0.930 . S
C715 C714 1.381 . S
C715 C717 1.381 . S
C715 C718 1.487 . S
C716 C713 1.382 . S
C716 C717 1.387 . S
C716 H742 0.930 . S
C717 C715 1.381 . S
C717 C716 1.387 . S
C717 H743 0.931 . S
C718 C715 1.487 . S
C718 C725 1.399 . S
C718 N756 1.343 . S
C719 C720 1.384 . S
C719 C721 1.384 . S
C719 H744 0.931 . S
C720 C719 1.384 . S
C720 C723 1.382 . S
C721 C719 1.384 . S
C721 C722 1.381 . S
C721 H745 0.930 . S
C722 C721 1.381 . S
C722 C724 1.381 . S
C722 C725 1.487 . S
C723 C720 1.382 . S
C723 C724 1.387 . S
C723 H746 0.930 . S
C724 C722 1.381 . S
C724 C723 1.387 . S
C724 H747 0.931 . S
C725 C718 1.399 . S
C725 C722 1.487 . S
C725 N757 1.343 . S
C726 C727 1.384 . S
C726 C728 1.384 . S
C726 H748 0.931 . S
C727 C726 1.384 . S
C727 C730 1.382 . S
C728 C726 1.384 . S
C728 C729 1.381 . S
C728 H749 0.930 . S
C729 C728 1.381 . S
C729 C731 1.381 . S
C729 C732 1.487 . S
C730 C727 1.382 . S
C730 C731 1.387 . S
C730 H750 0.930 . S
C731 C729 1.381 . S
C731 C730 1.387 . S
C731 H751 0.931 . S
C732 C729 1.487 . S
C732 C739 1.399 . S
C732 N757 1.343 . S
C733 C734 1.384 . S
C733 C735 1.384 . S
C733 H752 0.931 . S
C734 C733 1.384 . S
C734 C737 1.382 . S
C735 C733 1.384 . S
C735 C736 1.381 . S
C735 H753 0.930 . S
C736 C735 1.381 . S
C736 C738 1.381 . S
C736 C739 1.487 . S
C737 C734 1.382 . S
C737 C738 1.387 . S
C737 H754 0.930 . S
C738 C736 1.381 . S
C738 C737 1.387 . S
C738 H755 0.931 . S
C739 C732 1.399 . S
C739 C736 1.487 . S
C739 N756 1.343 . S
H740 C712 0.931 . S
H741 C714 0.930 . S
H742 C716 0.930 . S
H743 C717 0.931 . S
H744 C719 0.931 . S
H745 C721 0.930 . S
H746 C723 0.930 . S
H747 C724 0.931 . S
H748 C726 0.931 . S
H749 C728 0.930 . S
H750 C730 0.930 . S
H751 C731 0.931 . S
H752 C733 0.931 . S
H753 C735 0.930 . S
H754 C737 0.930 . S
H755 C738 0.931 . S
N756 C718 1.343 . S
N756 C739 1.343 . S
N757 C725 1.343 . S
N757 C732 1.343 . S
C758 C759 1.384 1_545 S
C758 C760 1.384 . S
C758 H786 0.931 . S
C759 C758 1.384 1_565 S
C759 C762 1.382 . S
C760 C758 1.384 . S
C760 C761 1.381 1_545 S
C760 H787 0.930 . S
C761 C760 1.381 1_565 S
C761 C763 1.381 . S
C761 C764 1.487 . S
C762 C759 1.382 . S
C762 C763 1.387 . S
C762 H788 0.930 . S
C763 C761 1.381 . S
C763 C762 1.387 . S
C763 H789 0.931 . S
C764 C761 1.487 . S
C764 C771 1.399 1_565 S
C764 N802 1.343 . S
C765 C766 1.384 1_565 S
C765 C767 1.384 . S
C765 H790 0.931 . S
C766 C765 1.384 1_545 S
C766 C769 1.382 . S
C767 C765 1.384 . S
C767 C768 1.381 1_565 S
C767 H791 0.930 . S
C768 C767 1.381 1_545 S
C768 C770 1.381 . S
C768 C771 1.487 . S
C769 C766 1.382 . S
C769 C770 1.387 . S
C769 H792 0.930 . S
C770 C768 1.381 . S
C770 C769 1.387 . S
C770 H793 0.931 . S
C771 C764 1.399 1_545 S
C771 C768 1.487 . S
C771 N803 1.343 . S
C772 C773 1.384 1_565 S
C772 C774 1.384 . S
C772 H794 0.931 . S
C773 C772 1.384 1_545 S
C773 C776 1.382 . S
C774 C772 1.384 . S
C774 C775 1.381 1_565 S
C774 H795 0.930 . S
C775 C774 1.381 1_545 S
C775 C777 1.381 . S
C775 C778 1.487 . S
C776 C773 1.382 . S
C776 C777 1.387 . S
C776 H796 0.930 . S
C777 C775 1.381 . S
C777 C776 1.387 . S
C777 H797 0.931 . S
C778 C775 1.487 . S
C778 C785 1.399 1_545 S
C778 N803 1.343 . S
C779 C780 1.384 1_545 S
C779 C781 1.384 . S
C779 H798 0.931 . S
C780 C779 1.384 1_565 S
C780 C783 1.382 . S
C781 C779 1.384 . S
C781 C782 1.381 1_545 S
C781 H799 0.930 . S
C782 C781 1.381 1_565 S
C782 C784 1.381 . S
C782 C785 1.487 . S
C783 C780 1.382 . S
C783 C784 1.387 . S
C783 H800 0.930 . S
C784 C782 1.381 . S
C784 C783 1.387 . S
C784 H801 0.931 . S
C785 C778 1.399 1_565 S
C785 C782 1.487 . S
C785 N802 1.343 . S
H786 C758 0.931 . S
H787 C760 0.930 . S
H788 C762 0.930 . S
H789 C763 0.931 . S
H790 C765 0.931 . S
H791 C767 0.930 . S
H792 C769 0.930 . S
H793 C770 0.931 . S
H794 C772 0.931 . S
H795 C774 0.930 . S
H796 C776 0.930 . S
H797 C777 0.931 . S
H798 C779 0.931 . S
H799 C781 0.930 . S
H800 C783 0.930 . S
H801 C784 0.931 . S
N802 C764 1.343 . S
N802 C785 1.343 . S
N803 C771 1.343 . S
N803 C778 1.343 . S
C804 C805 1.384 . S
C804 C806 1.384 . S
C804 H832 0.931 . S
C805 C804 1.384 . S
C805 C808 1.382 1_545 S
C806 C804 1.384 . S
C806 C807 1.385 . S
C806 H833 0.930 . S
C807 C806 1.385 . S
C807 C809 1.371 1_545 S
C807 C810 1.493 1_545 S
C808 C805 1.382 1_565 S
C808 C809 1.387 . S
C808 H834 0.930 . S
C809 C807 1.371 1_565 S
C809 C808 1.387 . S
C809 H835 0.931 . S
C810 C807 1.493 1_565 S
C810 C817 1.399 1_565 S
C810 N848 1.367 . S
C811 C812 1.384 . S
C811 C813 1.384 . S
C811 H836 0.931 . S
C812 C811 1.384 . S
C812 C815 1.382 1_565 S
C813 C811 1.384 . S
C813 C814 1.372 . S
C813 H837 0.930 . S
C814 C813 1.372 . S
C814 C816 1.386 1_565 S
C814 C817 1.482 1_565 S
C815 C812 1.382 1_545 S
C815 C816 1.387 . S
C815 H838 0.930 . S
C816 C814 1.386 1_545 S
C816 C815 1.387 . S
C816 H839 0.931 . S
C817 C810 1.399 1_545 S
C817 C814 1.482 1_545 S
C817 N849 1.320 . S
C818 C819 1.384 . S
C818 C820 1.384 . S
C818 H840 0.931 . S
C819 C818 1.384 . S
C819 C822 1.382 1_565 S
C820 C818 1.384 . S
C820 C821 1.381 . S
C820 H841 0.930 . S
C821 C820 1.381 . S
C821 C823 1.383 1_565 S
C821 C824 1.493 1_565 S
C822 C819 1.382 1_545 S
C822 C823 1.387 . S
C822 H842 0.930 . S
C823 C821 1.383 1_545 S
C823 C822 1.387 . S
C823 H843 0.931 . S
C824 C821 1.493 1_545 S
C824 C831 1.399 1_545 S
C824 N849 1.367 . S
C825 C826 1.384 . S
C825 C827 1.384 . S
C825 H844 0.931 . S
C826 C825 1.384 . S
C826 C829 1.382 1_545 S
C827 C825 1.384 . S
C827 C828 1.392 . S
C827 H845 0.930 . S
C828 C827 1.392 . S
C828 C830 1.376 1_545 S
C828 C831 1.482 1_545 S
C829 C826 1.382 1_565 S
C829 C830 1.387 . S
C829 H846 0.930 . S
C830 C828 1.376 1_565 S
C830 C829 1.387 . S
C830 H847 0.931 . S
C831 C824 1.399 1_565 S
C831 C828 1.482 1_565 S
C831 N848 1.320 . S
H832 C804 0.931 . S
H833 C806 0.930 . S
H834 C808 0.930 . S
H835 C809 0.931 . S
H836 C811 0.931 . S
H837 C813 0.930 . S
H838 C815 0.930 . S
H839 C816 0.931 . S
H840 C818 0.931 . S
H841 C820 0.930 . S
H842 C822 0.930 . S
H843 C823 0.931 . S
H844 C825 0.931 . S
H845 C827 0.930 . S
H846 C829 0.930 . S
H847 C830 0.931 . S
N848 C810 1.367 . S
N848 C831 1.320 . S
N849 C817 1.320 . S
N849 C824 1.367 . S
C850 C851 1.384 . S
C850 C852 1.384 . S
C850 H878 0.931 . S
C851 C850 1.384 . S
C851 C854 1.382 1_655 S
C852 C850 1.384 . S
C852 C853 1.422 . S
C852 H879 0.930 . S
C853 C852 1.422 . S
C853 C855 1.360 1_655 S
C853 C856 1.466 . S
C854 C851 1.382 1_455 S
C854 C855 1.387 . S
C854 H880 0.930 . S
C855 C853 1.360 1_455 S
C855 C854 1.387 . S
C855 H881 0.931 . S
C856 C853 1.466 . S
C856 C863 1.398 . S
C856 N894 1.325 1_655 S
C857 C858 1.384 . S
C857 C859 1.384 . S
C857 H882 0.931 . S
C858 C857 1.384 . S
C858 C861 1.382 1_455 S
C859 C857 1.384 . S
C859 C860 1.382 1_455 S
C859 H883 0.930 . S
C860 C859 1.382 1_655 S
C860 C862 1.380 . S
C860 C863 1.499 . S
C861 C858 1.382 1_655 S
C861 C862 1.387 . S
C861 H884 0.930 . S
C862 C860 1.380 . S
C862 C861 1.387 . S
C862 H885 0.931 . S
C863 C856 1.398 . S
C863 C860 1.499 . S
C863 N895 1.360 . S
C864 C865 1.384 . S
C864 C866 1.384 . S
C864 H886 0.931 . S
C865 C864 1.384 . S
C865 C868 1.382 1_455 S
C866 C864 1.384 . S
C866 C867 1.402 . S
C866 H887 0.930 . S
C867 C866 1.402 . S
C867 C869 1.371 1_455 S
C867 C870 1.475 1_455 S
C868 C865 1.382 1_655 S
C868 C869 1.387 . S
C868 H888 0.930 . S
C869 C867 1.371 1_655 S
C869 C868 1.387 . S
C869 H889 0.931 . S
C870 C867 1.475 1_655 S
C870 C877 1.399 1_655 S
C870 N895 1.315 . S
C871 C872 1.384 . S
C871 C873 1.384 . S
C871 H890 0.931 . S
C872 C871 1.384 . S
C872 C875 1.382 1_655 S
C873 C871 1.384 . S
C873 C874 1.382 . S
C873 H891 0.930 . S
C874 C873 1.382 . S
C874 C876 1.380 1_655 S
C874 C877 1.490 1_655 S
C875 C872 1.382 1_455 S
C875 C876 1.387 . S
C875 H892 0.930 . S
C876 C874 1.380 1_455 S
C876 C875 1.387 . S
C876 H893 0.931 . S
C877 C870 1.399 1_455 S
C877 C874 1.490 1_455 S
C877 N894 1.360 . S
H878 C850 0.931 . S
H879 C852 0.930 . S
H880 C854 0.930 . S
H881 C855 0.931 . S
H882 C857 0.931 . S
H883 C859 0.930 . S
H884 C861 0.930 . S
H885 C862 0.931 . S
H886 C864 0.931 . S
H887 C866 0.930 . S
H888 C868 0.930 . S
H889 C869 0.931 . S
H890 C871 0.931 . S
H891 C873 0.930 . S
H892 C875 0.930 . S
H893 C876 0.931 . S
N894 C856 1.325 1_455 S
N894 C877 1.360 . S
N895 C863 1.360 . S
N895 C870 1.315 . S
C896 C897 1.384 . S
C896 C898 1.384 . S
C896 H924 0.931 . S
C897 C896 1.384 . S
C897 C900 1.382 . S
C898 C896 1.384 . S
C898 C899 1.381 . S
C898 H925 0.930 . S
C899 C898 1.381 . S
C899 C901 1.381 . S
C899 C902 1.487 . S
C900 C897 1.382 . S
C900 C901 1.387 . S
C900 H926 0.930 . S
C901 C899 1.381 . S
C901 C900 1.387 . S
C901 H927 0.931 . S
C902 C899 1.487 . S
C902 C909 1.399 . S
C902 N940 1.343 . S
C903 C904 1.384 . S
C903 C905 1.384 . S
C903 H928 0.931 . S
C904 C903 1.384 . S
C904 C907 1.382 . S
C905 C903 1.384 . S
C905 C906 1.381 . S
C905 H929 0.930 . S
C906 C905 1.381 . S
C906 C908 1.381 . S
C906 C909 1.487 . S
C907 C904 1.382 . S
C907 C908 1.387 . S
C907 H930 0.930 . S
C908 C906 1.381 . S
C908 C907 1.387 . S
C908 H931 0.931 . S
C909 C902 1.399 . S
C909 C906 1.487 . S
C909 N941 1.343 . S
C910 C911 1.384 . S
C910 C912 1.384 . S
C910 H932 0.931 . S
C911 C910 1.384 . S
C911 C914 1.382 . S
C912 C910 1.384 . S
C912 C913 1.381 . S
C912 H933 0.930 . S
C913 C912 1.381 . S
C913 C915 1.381 . S
C913 C916 1.487 . S
C914 C911 1.382 . S
C914 C915 1.387 . S
C914 H934 0.930 . S
C915 C913 1.381 . S
C915 C914 1.387 . S
C915 H935 0.931 . S
C916 C913 1.487 . S
C916 C923 1.399 . S
C916 N941 1.343 . S
C917 C918 1.384 . S
C917 C919 1.384 . S
C917 H936 0.931 . S
C918 C917 1.384 . S
C918 C921 1.382 . S
C919 C917 1.384 . S
C919 C920 1.381 . S
C919 H937 0.930 . S
C920 C919 1.381 . S
C920 C922 1.381 . S
C920 C923 1.487 . S
C921 C918 1.382 . S
C921 C922 1.387 . S
C921 H938 0.930 . S
C922 C920 1.381 . S
C922 C921 1.387 . S
C922 H939 0.931 . S
C923 C916 1.399 . S
C923 C920 1.487 . S
C923 N940 1.343 . S
H924 C896 0.931 . S
H925 C898 0.930 . S
H926 C900 0.930 . S
H927 C901 0.931 . S
H928 C903 0.931 . S
H929 C905 0.930 . S
H930 C907 0.930 . S
H931 C908 0.931 . S
H932 C910 0.931 . S
H933 C912 0.930 . S
H934 C914 0.930 . S
H935 C915 0.931 . S
H936 C917 0.931 . S
H937 C919 0.930 . S
H938 C921 0.930 . S
H939 C922 0.931 . S
N940 C902 1.343 . S
N940 C923 1.343 . S
N941 C909 1.343 . S
N941 C916 1.343 . S
C942 C943 1.384 . S
C942 C944 1.384 . S
C942 H970 0.931 . S
C943 C942 1.384 . S
C943 C946 1.382 . S
C944 C942 1.384 . S
C944 C945 1.381 . S
C944 H971 0.930 . S
C945 C944 1.381 . S
C945 C947 1.381 . S
C945 C948 1.487 . S
C946 C943 1.382 . S
C946 C947 1.387 . S
C946 H972 0.930 . S
C947 C945 1.381 . S
C947 C946 1.387 . S
C947 H973 0.931 . S
C948 C945 1.487 . S
C948 C955 1.399 . S
C948 N986 1.343 . S
C949 C950 1.384 . S
C949 C951 1.384 . S
C949 H974 0.931 . S
C950 C949 1.384 . S
C950 C953 1.382 . S
C951 C949 1.384 . S
C951 C952 1.381 . S
C951 H975 0.930 . S
C952 C951 1.381 . S
C952 C954 1.381 . S
C952 C955 1.487 . S
C953 C950 1.382 . S
C953 C954 1.387 . S
C953 H976 0.930 . S
C954 C952 1.381 . S
C954 C953 1.387 . S
C954 H977 0.931 . S
C955 C948 1.399 . S
C955 C952 1.487 . S
C955 N987 1.343 . S
C956 C957 1.384 . S
C956 C958 1.384 . S
C956 H978 0.931 . S
C957 C956 1.384 . S
C957 C960 1.382 . S
C958 C956 1.384 . S
C958 C959 1.381 . S
C958 H979 0.930 . S
C959 C958 1.381 . S
C959 C961 1.381 . S
C959 C962 1.487 . S
C960 C957 1.382 . S
C960 C961 1.387 . S
C960 H980 0.930 . S
C961 C959 1.381 . S
C961 C960 1.387 . S
C961 H981 0.931 . S
C962 C959 1.487 . S
C962 C969 1.399 . S
C962 N987 1.343 . S
C963 C964 1.384 . S
C963 C965 1.384 . S
C963 H982 0.931 . S
C964 C963 1.384 . S
C964 C967 1.382 . S
C965 C963 1.384 . S
C965 C966 1.381 . S
C965 H983 0.930 . S
C966 C965 1.381 . S
C966 C968 1.381 . S
C966 C969 1.487 . S
C967 C964 1.382 . S
C967 C968 1.387 . S
C967 H984 0.930 . S
C968 C966 1.381 . S
C968 C967 1.387 . S
C968 H985 0.931 . S
C969 C962 1.399 . S
C969 C966 1.487 . S
C969 N986 1.343 . S
H970 C942 0.931 . S
H971 C944 0.930 . S
H972 C946 0.930 . S
H973 C947 0.931 . S
H974 C949 0.931 . S
H975 C951 0.930 . S
H976 C953 0.930 . S
H977 C954 0.931 . S
H978 C956 0.931 . S
H979 C958 0.930 . S
H980 C960 0.930 . S
H981 C961 0.931 . S
H982 C963 0.931 . S
H983 C965 0.930 . S
H984 C967 0.930 . S
H985 C968 0.931 . S
N986 C948 1.343 . S
N986 C969 1.343 . S
N987 C955 1.343 . S
N987 C962 1.343 . S
C988 C989 1.384 . S
C988 C990 1.384 . S
C988 H1016 0.931 . S
C989 C988 1.384 . S
C989 C992 1.382 . S
C990 C988 1.384 . S
C990 C991 1.381 . S
C990 H1017 0.930 . S
C991 C990 1.381 . S
C991 C993 1.381 . S
C991 C994 1.487 . S
C992 C989 1.382 . S
C992 C993 1.387 . S
C992 H1018 0.930 . S
C993 C991 1.381 . S
C993 C992 1.387 . S
C993 H1019 0.931 . S
C994 C991 1.487 . S
C994 C1001 1.399 . S
C994 N1032 1.343 . S
C995 C996 1.384 . S
C995 C997 1.384 . S
C995 H1020 0.931 . S
C996 C995 1.384 . S
C996 C999 1.382 . S
C997 C995 1.384 . S
C997 C998 1.381 . S
C997 H1021 0.930 . S
C998 C997 1.381 . S
C998 C1000 1.381 . S
C998 C1001 1.487 . S
C999 C996 1.382 . S
C999 C1000 1.387 . S
C999 H1022 0.930 . S
C1000 C998 1.381 . S
C1000 C999 1.387 . S
C1000 H1023 0.931 . S
C1001 C994 1.399 . S
C1001 C998 1.487 . S
C1001 N1033 1.343 . S
C1002 C1003 1.384 . S
C1002 C1004 1.384 . S
C1002 H1024 0.931 . S
C1003 C1002 1.384 . S
C1003 C1006 1.382 . S
C1004 C1002 1.384 . S
C1004 C1005 1.381 . S
C1004 H1025 0.930 . S
C1005 C1004 1.381 . S
C1005 C1007 1.381 . S
C1005 C1008 1.487 . S
C1006 C1003 1.382 . S
C1006 C1007 1.387 . S
C1006 H1026 0.930 . S
C1007 C1005 1.381 . S
C1007 C1006 1.387 . S
C1007 H1027 0.931 . S
C1008 C1005 1.487 . S
C1008 C1015 1.399 . S
C1008 N1033 1.343 . S
C1009 C1010 1.384 . S
C1009 C1011 1.384 . S
C1009 H1028 0.931 . S
C1010 C1009 1.384 . S
C1010 C1013 1.382 . S
C1011 C1009 1.384 . S
C1011 C1012 1.381 . S
C1011 H1029 0.930 . S
C1012 C1011 1.381 . S
C1012 C1014 1.381 . S
C1012 C1015 1.487 . S
C1013 C1010 1.382 . S
C1013 C1014 1.387 . S
C1013 H1030 0.930 . S
C1014 C1012 1.381 . S
C1014 C1013 1.387 . S
C1014 H1031 0.931 . S
C1015 C1008 1.399 . S
C1015 C1012 1.487 . S
C1015 N1032 1.343 . S
H1016 C988 0.931 . S
H1017 C990 0.930 . S
H1018 C992 0.930 . S
H1019 C993 0.931 . S
H1020 C995 0.931 . S
H1021 C997 0.930 . S
H1022 C999 0.930 . S
H1023 C1000 0.931 . S
H1024 C1002 0.931 . S
H1025 C1004 0.930 . S
H1026 C1006 0.930 . S
H1027 C1007 0.931 . S
H1028 C1009 0.931 . S
H1029 C1011 0.930 . S
H1030 C1013 0.930 . S
H1031 C1014 0.931 . S
N1032 C994 1.343 . S
N1032 C1015 1.343 . S
N1033 C1001 1.343 . S
N1033 C1008 1.343 . S
C1034 C1035 1.384 . S
C1034 C1036 1.384 . S
C1034 H1062 0.931 . S
C1035 C1034 1.384 . S
C1035 C1038 1.382 . S
C1036 C1034 1.384 . S
C1036 C1037 1.381 . S
C1036 H1063 0.930 . S
C1037 C1036 1.381 . S
C1037 C1039 1.381 . S
C1037 C1040 1.487 . S
C1038 C1035 1.382 . S
C1038 C1039 1.387 . S
C1038 H1064 0.930 . S
C1039 C1037 1.381 . S
C1039 C1038 1.387 . S
C1039 H1065 0.931 . S
C1040 C1037 1.487 . S
C1040 C1047 1.399 . S
C1040 N1078 1.343 . S
C1041 C1042 1.384 . S
C1041 C1043 1.384 . S
C1041 H1066 0.931 . S
C1042 C1041 1.384 . S
C1042 C1045 1.382 . S
C1043 C1041 1.384 . S
C1043 C1044 1.381 . S
C1043 H1067 0.930 . S
C1044 C1043 1.381 . S
C1044 C1046 1.381 . S
C1044 C1047 1.487 . S
C1045 C1042 1.382 . S
C1045 C1046 1.387 . S
C1045 H1068 0.930 . S
C1046 C1044 1.381 . S
C1046 C1045 1.387 . S
C1046 H1069 0.931 . S
C1047 C1040 1.399 . S
C1047 C1044 1.487 . S
C1047 N1079 1.343 . S
C1048 C1049 1.384 . S
C1048 C1050 1.384 . S
C1048 H1070 0.931 . S
C1049 C1048 1.384 . S
C1049 C1052 1.382 . S
C1050 C1048 1.384 . S
C1050 C1051 1.381 . S
C1050 H1071 0.930 . S
C1051 C1050 1.381 . S
C1051 C1053 1.381 . S
C1051 C1054 1.487 . S
C1052 C1049 1.382 . S
C1052 C1053 1.387 . S
C1052 H1072 0.930 . S
C1053 C1051 1.381 . S
C1053 C1052 1.387 . S
C1053 H1073 0.931 . S
C1054 C1051 1.487 . S
C1054 C1061 1.399 . S
C1054 N1079 1.343 . S
C1055 C1056 1.384 . S
C1055 C1057 1.384 . S
C1055 H1074 0.931 . S
C1056 C1055 1.384 . S
C1056 C1059 1.382 . S
C1057 C1055 1.384 . S
C1057 C1058 1.381 . S
C1057 H1075 0.930 . S
C1058 C1057 1.381 . S
C1058 C1060 1.381 . S
C1058 C1061 1.487 . S
C1059 C1056 1.382 . S
C1059 C1060 1.387 . S
C1059 H1076 0.930 . S
C1060 C1058 1.381 . S
C1060 C1059 1.387 . S
C1060 H1077 0.931 . S
C1061 C1054 1.399 . S
C1061 C1058 1.487 . S
C1061 N1078 1.343 . S
H1062 C1034 0.931 . S
H1063 C1036 0.930 . S
H1064 C1038 0.930 . S
H1065 C1039 0.931 . S
H1066 C1041 0.931 . S
H1067 C1043 0.930 . S
H1068 C1045 0.930 . S
H1069 C1046 0.931 . S
H1070 C1048 0.931 . S
H1071 C1050 0.930 . S
H1072 C1052 0.930 . S
H1073 C1053 0.931 . S
H1074 C1055 0.931 . S
H1075 C1057 0.930 . S
H1076 C1059 0.930 . S
H1077 C1060 0.931 . S
N1078 C1040 1.343 . S
N1078 C1061 1.343 . S
N1079 C1047 1.343 . S
N1079 C1054 1.343 . S
C1080 C1081 1.349 . S
C1080 C1082 1.327 . S
C1080 H1105 0.950 . S
C1081 C1080 1.349 . S
C1081 C1097 1.349 1_655 S
C1082 C1080 1.327 . S
C1082 C1101 1.429 . S
C1082 H1106 0.950 . S
C1083 C1100 1.574 . S
C1083 C1102 1.368 1_455 S
C1083 H1107 0.949 . S
H1084 C1088 0.949 . S
C1085 C1086 1.349 1_455 S
C1085 C1087 1.327 . S
C1085 H1108 0.950 . S
C1086 C1085 1.349 1_655 S
C1086 C1098 1.349 . S
C1087 C1085 1.327 . S
C1087 C1103 1.429 1_455 S
C1087 H1109 0.950 . S
C1088 H1084 0.949 . S
C1088 C1096 1.574 . S
C1088 C1104 1.368 . S
H1089 C1097 0.950 . S
H1090 C1095 0.950 . S
H1091 C1096 0.949 . S
H1092 C1098 0.950 . S
H1093 C1099 0.950 . S
H1094 C1100 0.949 . S
C1095 H1090 0.950 . S
C1095 C1097 1.327 . S
C1095 C1101 1.429 1_455 S
C1096 C1088 1.574 . S
C1096 H1091 0.949 . S
C1096 C1102 1.368 . S
C1097 C1081 1.349 1_455 S
C1097 H1089 0.950 . S
C1097 C1095 1.327 . S
C1098 C1086 1.349 . S
C1098 H1092 0.950 . S
C1098 C1099 1.327 . S
C1099 H1093 0.950 . S
C1099 C1098 1.327 . S
C1099 C1103 1.429 . S
C1100 C1083 1.574 . S
C1100 H1094 0.949 . S
C1100 C1104 1.368 1_455 S
C1101 C1082 1.429 . S
C1101 C1095 1.429 1_655 S
C1101 C1102 1.523 . S
C1102 C1083 1.368 1_655 S
C1102 C1096 1.368 . S
C1102 C1101 1.523 . S
C1103 C1087 1.429 1_655 S
C1103 C1099 1.429 . S
C1103 C1104 1.523 . S
C1104 C1088 1.368 . S
C1104 C1100 1.368 1_655 S
C1104 C1103 1.523 . S
H1105 C1080 0.950 . S
H1106 C1082 0.950 . S
H1107 C1083 0.949 . S
H1108 C1085 0.950 . S
H1109 C1087 0.950 . S
C1110 C1111 1.349 . S
C1110 C1112 1.327 . S
C1110 H1135 0.950 . S
C1111 C1110 1.349 . S
C1111 C1127 1.349 . S
C1112 C1110 1.327 . S
C1112 C1131 1.429 . S
C1112 H1136 0.950 . S
C1113 C1130 1.574 . S
C1113 C1132 1.368 . S
C1113 H1137 0.949 . S
H1114 C1118 0.949 . S
C1115 C1116 1.349 . S
C1115 C1117 1.327 . S
C1115 H1138 0.950 . S
C1116 C1115 1.349 . S
C1116 C1128 1.349 . S
C1117 C1115 1.327 . S
C1117 C1133 1.429 . S
C1117 H1139 0.950 . S
C1118 H1114 0.949 . S
C1118 C1126 1.574 . S
C1118 C1134 1.368 . S
H1119 C1127 0.950 . S
H1120 C1125 0.950 . S
H1121 C1126 0.949 . S
H1122 C1128 0.950 . S
H1123 C1129 0.950 . S
H1124 C1130 0.949 . S
C1125 H1120 0.950 . S
C1125 C1127 1.327 . S
C1125 C1131 1.429 . S
C1126 C1118 1.574 . S
C1126 H1121 0.949 . S
C1126 C1132 1.368 . S
C1127 C1111 1.349 . S
C1127 H1119 0.950 . S
C1127 C1125 1.327 . S
C1128 C1116 1.349 . S
C1128 H1122 0.950 . S
C1128 C1129 1.327 . S
C1129 H1123 0.950 . S
C1129 C1128 1.327 . S
C1129 C1133 1.429 . S
C1130 C1113 1.574 . S
C1130 H1124 0.949 . S
C1130 C1134 1.368 . S
C1131 C1112 1.429 . S
C1131 C1125 1.429 . S
C1131 C1132 1.523 . S
C1132 C1113 1.368 . S
C1132 C1126 1.368 . S
C1132 C1131 1.523 . S
C1133 C1117 1.429 . S
C1133 C1129 1.429 . S
C1133 C1134 1.523 . S
C1134 C1118 1.368 . S
C1134 C1130 1.368 . S
C1134 C1133 1.523 . S
H1135 C1110 0.950 . S
H1136 C1112 0.950 . S
H1137 C1113 0.949 . S
H1138 C1115 0.950 . S
H1139 C1117 0.950 . S
C1140 C1141 1.349 . S
C1140 C1142 1.327 . S
C1140 H1165 0.950 . S
C1141 C1140 1.349 . S
C1141 C1157 1.349 1_545 S
C1142 C1140 1.327 . S
C1142 C1161 1.429 . S
C1142 H1166 0.950 . S
C1143 C1160 1.574 . S
C1143 C1162 1.368 1_565 S
C1143 H1167 0.949 . S
H1144 C1148 0.949 . S
C1145 C1146 1.349 1_565 S
C1145 C1147 1.327 . S
C1145 H1168 0.950 . S
C1146 C1145 1.349 1_545 S
C1146 C1158 1.349 . S
C1147 C1145 1.327 . S
C1147 C1163 1.429 1_565 S
C1147 H1169 0.950 . S
C1148 H1144 0.949 . S
C1148 C1156 1.574 . S
C1148 C1164 1.368 . S
H1149 C1157 0.950 . S
H1150 C1155 0.950 . S
H1151 C1156 0.949 . S
H1152 C1158 0.950 . S
H1153 C1159 0.950 . S
H1154 C1160 0.949 . S
C1155 H1150 0.950 . S
C1155 C1157 1.327 . S
C1155 C1161 1.429 1_565 S
C1156 C1148 1.574 . S
C1156 H1151 0.949 . S
C1156 C1162 1.368 . S
C1157 C1141 1.349 1_565 S
C1157 H1149 0.950 . S
C1157 C1155 1.327 . S
C1158 C1146 1.349 . S
C1158 H1152 0.950 . S
C1158 C1159 1.327 . S
C1159 H1153 0.950 . S
C1159 C1158 1.327 . S
C1159 C1163 1.429 . S
C1160 C1143 1.574 . S
C1160 H1154 0.949 . S
C1160 C1164 1.368 1_565 S
C1161 C1142 1.429 . S
C1161 C1155 1.429 1_545 S
C1161 C1162 1.523 . S
C1162 C1143 1.368 1_545 S
C1162 C1156 1.368 . S
C1162 C1161 1.523 . S
C1163 C1147 1.429 1_545 S
C1163 C1159 1.429 . S
C1163 C1164 1.523 . S
C1164 C1148 1.368 . S
C1164 C1160 1.368 1_545 S
C1164 C1163 1.523 . S
H1165 C1140 0.950 . S
H1166 C1142 0.950 . S
H1167 C1143 0.949 . S
H1168 C1145 0.950 . S
H1169 C1147 0.950 . S
C1170 C1171 1.333 1_545 S
C1170 C1172 1.306 . S
C1170 H1195 0.993 . S
C1171 C1170 1.333 1_565 S
C1171 C1187 1.349 . S
C1172 C1170 1.306 . S
C1172 C1191 1.429 1_545 S
C1172 H1196 0.950 . S
C1173 C1190 1.574 . S
C1173 C1192 1.368 . S
C1173 H1197 0.949 . S
H1174 C1178 0.949 . S
C1175 C1176 1.349 . S
C1175 C1177 1.327 . S
C1175 H1198 0.950 . S
C1176 C1175 1.349 . S
C1176 C1188 1.349 1_565 S
C1177 C1175 1.327 . S
C1177 C1193 1.429 . S
C1177 H1199 0.950 . S
C1178 H1174 0.949 . S
C1178 C1186 1.574 . S
C1178 C1194 1.368 1_545 S
H1179 C1187 0.950 . S
H1180 C1185 0.950 . S
H1181 C1186 0.949 . S
H1182 C1188 0.950 . S
H1183 C1189 0.950 . S
H1184 C1190 0.949 . S
C1185 H1180 0.950 . S
C1185 C1187 1.327 . S
C1185 C1191 1.429 . S
C1186 C1178 1.574 . S
C1186 H1181 0.949 . S
C1186 C1192 1.368 1_545 S
C1187 C1171 1.349 . S
C1187 H1179 0.950 . S
C1187 C1185 1.327 . S
C1188 C1176 1.349 1_545 S
C1188 H1182 0.950 . S
C1188 C1189 1.327 . S
C1189 H1183 0.950 . S
C1189 C1188 1.327 . S
C1189 C1193 1.429 1_545 S
C1190 C1173 1.574 . S
C1190 H1184 0.949 . S
C1190 C1194 1.368 . S
C1191 C1172 1.429 1_565 S
C1191 C1185 1.429 . S
C1191 C1192 1.523 . S
C1192 C1173 1.368 . S
C1192 C1186 1.368 1_565 S
C1192 C1191 1.523 . S
C1193 C1177 1.429 . S
C1193 C1189 1.429 1_565 S
C1193 C1194 1.523 . S
C1194 C1178 1.368 1_565 S
C1194 C1190 1.368 . S
C1194 C1193 1.523 . S
H1195 C1170 0.993 . S
H1196 C1172 0.950 . S
H1197 C1173 0.949 . S
H1198 C1175 0.950 . S
H1199 C1177 0.950 . S
C1200 C1201 1.349 . S
C1200 C1202 1.327 . S
C1200 H1225 0.955 . S
C1201 C1200 1.349 . S
C1201 C1217 1.349 . S
C1202 C1200 1.327 . S
C1202 C1221 1.429 . S
C1202 H1226 0.950 1_455 S
C1203 C1220 1.574 . S
C1203 C1222 1.368 . S
C1203 H1227 0.949 . S
H1204 C1208 0.965 . S
C1205 C1206 1.349 . S
C1205 C1207 1.327 . S
C1205 H1228 0.950 . S
C1206 C1205 1.349 . S
C1206 C1218 1.349 1_455 S
C1207 C1205 1.327 . S
C1207 C1223 1.429 . S
C1207 H1229 0.950 . S
C1208 H1204 0.965 . S
C1208 C1216 1.560 1_655 S
C1208 C1224 1.366 1_655 S
H1209 C1217 0.950 . S
H1210 C1215 0.950 . S
H1211 C1216 0.949 1_655 S
H1212 C1218 0.950 . S
H1213 C1219 0.950 . S
H1214 C1220 0.949 . S
C1215 H1210 0.950 . S
C1215 C1217 1.327 . S
C1215 C1221 1.429 . S
C1216 C1208 1.560 1_455 S
C1216 H1211 0.949 1_455 S
C1216 C1222 1.368 . S
C1217 C1201 1.349 . S
C1217 H1209 0.950 . S
C1217 C1215 1.327 . S
C1218 C1206 1.349 1_655 S
C1218 H1212 0.950 . S
C1218 C1219 1.327 . S
C1219 H1213 0.950 . S
C1219 C1218 1.327 . S
C1219 C1223 1.429 1_655 S
C1220 C1203 1.574 . S
C1220 H1214 0.949 . S
C1220 C1224 1.368 . S
C1221 C1202 1.429 . S
C1221 C1215 1.429 . S
C1221 C1222 1.523 . S
C1222 C1203 1.368 . S
C1222 C1216 1.368 . S
C1222 C1221 1.523 . S
C1223 C1207 1.429 . S
C1223 C1219 1.429 1_455 S
C1223 C1224 1.523 . S
C1224 C1208 1.366 1_455 S
C1224 C1220 1.368 . S
C1224 C1223 1.523 . S
H1225 C1200 0.955 . S
H1226 C1202 0.950 1_655 S
H1227 C1203 0.949 . S
H1228 C1205 0.950 . S
H1229 C1207 0.950 . S
C1230 C1231 1.349 . S
C1230 C1232 1.327 . S
C1230 H1255 0.950 . S
C1231 C1230 1.349 . S
C1231 C1247 1.349 . S
C1232 C1230 1.327 . S
C1232 C1251 1.429 . S
C1232 H1256 0.950 . S
C1233 C1250 1.574 . S
C1233 C1252 1.368 . S
C1233 H1257 0.949 . S
H1234 C1238 0.949 . S
C1235 C1236 1.349 . S
C1235 C1237 1.327 . S
C1235 H1258 0.950 . S
C1236 C1235 1.349 . S
C1236 C1248 1.349 . S
C1237 C1235 1.327 . S
C1237 C1253 1.429 . S
C1237 H1259 0.950 . S
C1238 H1234 0.949 . S
C1238 C1246 1.574 . S
C1238 C1254 1.368 . S
H1239 C1247 0.950 . S
H1240 C1245 0.950 . S
H1241 C1246 0.949 . S
H1242 C1248 0.950 . S
H1243 C1249 0.950 . S
H1244 C1250 0.949 . S
C1245 H1240 0.950 . S
C1245 C1247 1.327 . S
C1245 C1251 1.429 . S
C1246 C1238 1.574 . S
C1246 H1241 0.949 . S
C1246 C1252 1.368 . S
C1247 C1231 1.349 . S
C1247 H1239 0.950 . S
C1247 C1245 1.327 . S
C1248 C1236 1.349 . S
C1248 H1242 0.950 . S
C1248 C1249 1.327 . S
C1249 H1243 0.950 . S
C1249 C1248 1.327 . S
C1249 C1253 1.429 . S
C1250 C1233 1.574 . S
C1250 H1244 0.949 . S
C1250 C1254 1.368 . S
C1251 C1232 1.429 . S
C1251 C1245 1.429 . S
C1251 C1252 1.523 . S
C1252 C1233 1.368 . S
C1252 C1246 1.368 . S
C1252 C1251 1.523 . S
C1253 C1237 1.429 . S
C1253 C1249 1.429 . S
C1253 C1254 1.523 . S
C1254 C1238 1.368 . S
C1254 C1250 1.368 . S
C1254 C1253 1.523 . S
H1255 C1230 0.950 . S
H1256 C1232 0.950 . S
H1257 C1233 0.949 . S
H1258 C1235 0.950 . S
H1259 C1237 0.950 . S
C1260 C1261 1.349 . S
C1260 C1262 1.327 . S
C1260 H1285 0.967 . S
C1261 C1260 1.349 . S
C1261 C1277 1.349 . S
C1262 C1260 1.327 . S
C1262 C1281 1.429 . S
C1262 H1286 0.958 1_455 S
C1263 C1280 1.574 . S
C1263 C1282 1.368 . S
C1263 H1287 0.949 . S
H1264 C1268 0.954 1_655 S
C1265 C1266 1.349 . S
C1265 C1267 1.327 . S
C1265 H1288 0.950 . S
C1266 C1265 1.349 . S
C1266 C1278 1.349 1_455 S
C1267 C1265 1.327 . S
C1267 C1283 1.429 . S
C1267 H1289 0.950 . S
C1268 H1264 0.954 1_455 S
C1268 C1276 1.566 . S
C1268 C1284 1.372 . S
H1269 C1277 0.950 . S
H1270 C1275 0.950 . S
H1271 C1276 0.949 1_655 S
H1272 C1278 0.950 . S
H1273 C1279 0.969 . S
H1274 C1280 0.949 . S
C1275 H1270 0.950 . S
C1275 C1277 1.327 . S
C1275 C1281 1.429 . S
C1276 C1268 1.566 . S
C1276 H1271 0.949 1_455 S
C1276 C1282 1.368 . S
C1277 C1261 1.349 . S
C1277 H1269 0.950 . S
C1277 C1275 1.327 . S
C1278 C1266 1.349 1_655 S
C1278 H1272 0.950 . S
C1278 C1279 1.299 . S
C1279 H1273 0.969 . S
C1279 C1278 1.299 . S
C1279 C1283 1.447 1_655 S
C1280 C1263 1.574 . S
C1280 H1274 0.949 . S
C1280 C1284 1.368 . S
C1281 C1262 1.429 . S
C1281 C1275 1.429 . S
C1281 C1282 1.523 . S
C1282 C1263 1.368 . S
C1282 C1276 1.368 . S
C1282 C1281 1.523 . S
C1283 C1267 1.429 . S
C1283 C1279 1.447 1_455 S
C1283 C1284 1.523 . S
C1284 C1268 1.372 . S
C1284 C1280 1.368 . S
C1284 C1283 1.523 . S
H1285 C1260 0.967 . S
H1286 C1262 0.958 1_655 S
H1287 C1263 0.949 . S
H1288 C1265 0.950 . S
H1289 C1267 0.950 . S
C1290 C1291 1.349 . S
C1290 C1292 1.327 . S
C1290 H1315 0.950 . S
C1291 C1290 1.349 . S
C1291 C1307 1.349 . S
C1292 C1290 1.327 . S
C1292 C1311 1.429 . S
C1292 H1316 0.950 . S
C1293 C1310 1.574 . S
C1293 C1312 1.368 . S
C1293 H1317 0.949 . S
H1294 C1298 0.949 . S
C1295 C1296 1.349 . S
C1295 C1297 1.327 . S
C1295 H1318 0.950 . S
C1296 C1295 1.349 . S
C1296 C1308 1.349 . S
C1297 C1295 1.327 . S
C1297 C1313 1.429 . S
C1297 H1319 0.950 . S
C1298 H1294 0.949 . S
C1298 C1306 1.574 . S
C1298 C1314 1.368 . S
H1299 C1307 0.950 . S
H1300 C1305 0.950 . S
H1301 C1306 0.949 . S
H1302 C1308 0.950 . S
H1303 C1309 0.950 . S
H1304 C1310 0.949 . S
C1305 H1300 0.950 . S
C1305 C1307 1.327 . S
C1305 C1311 1.429 . S
C1306 C1298 1.574 . S
C1306 H1301 0.949 . S
C1306 C1312 1.368 . S
C1307 C1291 1.349 . S
C1307 H1299 0.950 . S
C1307 C1305 1.327 . S
C1308 C1296 1.349 . S
C1308 H1302 0.950 . S
C1308 C1309 1.327 . S
C1309 H1303 0.950 . S
C1309 C1308 1.327 . S
C1309 C1313 1.429 . S
C1310 C1293 1.574 . S
C1310 H1304 0.949 . S
C1310 C1314 1.368 . S
C1311 C1292 1.429 . S
C1311 C1305 1.429 . S
C1311 C1312 1.523 . S
C1312 C1293 1.368 . S
C1312 C1306 1.368 . S
C1312 C1311 1.523 . S
C1313 C1297 1.429 . S
C1313 C1309 1.429 . S
C1313 C1314 1.523 . S
C1314 C1298 1.368 . S
C1314 C1310 1.368 . S
C1314 C1313 1.523 . S
H1315 C1290 0.950 . S
H1316 C1292 0.950 . S
H1317 C1293 0.949 . S
H1318 C1295 0.950 . S
H1319 C1297 0.950 . S
C1320 C1321 1.349 . S
C1320 C1322 1.327 . S
C1320 H1345 0.950 . S
C1321 C1320 1.349 . S
C1321 C1337 1.349 1_565 S
C1322 C1320 1.327 . S
C1322 C1341 1.429 . S
C1322 H1346 0.950 . S
C1323 C1340 1.574 . S
C1323 C1342 1.368 1_545 S
C1323 H1347 0.949 . S
H1324 C1328 0.949 . S
C1325 C1326 1.349 1_545 S
C1325 C1327 1.327 . S
C1325 H1348 0.950 . S
C1326 C1325 1.349 1_565 S
C1326 C1338 1.349 . S
C1327 C1325 1.327 . S
C1327 C1343 1.429 1_545 S
C1327 H1349 0.950 . S
C1328 H1324 0.949 . S
C1328 C1336 1.574 . S
C1328 C1344 1.368 . S
H1329 C1337 0.950 . S
H1330 C1335 0.950 . S
H1331 C1336 0.949 . S
H1332 C1338 0.950 . S
H1333 C1339 0.950 . S
H1334 C1340 0.949 . S
C1335 H1330 0.950 . S
C1335 C1337 1.327 . S
C1335 C1341 1.429 1_545 S
C1336 C1328 1.574 . S
C1336 H1331 0.949 . S
C1336 C1342 1.368 . S
C1337 C1321 1.349 1_545 S
C1337 H1329 0.950 . S
C1337 C1335 1.327 . S
C1338 C1326 1.349 . S
C1338 H1332 0.950 . S
C1338 C1339 1.327 . S
C1339 H1333 0.950 . S
C1339 C1338 1.327 . S
C1339 C1343 1.429 . S
C1340 C1323 1.574 . S
C1340 H1334 0.949 . S
C1340 C1344 1.368 1_545 S
C1341 C1322 1.429 . S
C1341 C1335 1.429 1_565 S
C1341 C1342 1.523 . S
C1342 C1323 1.368 1_565 S
C1342 C1336 1.368 . S
C1342 C1341 1.523 . S
C1343 C1327 1.429 1_565 S
C1343 C1339 1.429 . S
C1343 C1344 1.523 . S
C1344 C1328 1.368 . S
C1344 C1340 1.368 1_565 S
C1344 C1343 1.523 . S
H1345 C1320 0.950 . S
H1346 C1322 0.950 . S
H1347 C1323 0.949 . S
H1348 C1325 0.950 . S
H1349 C1327 0.950 . S
C1350 C1351 1.349 . S
C1350 C1352 1.327 . S
C1350 H1375 0.950 . S
C1351 C1350 1.349 . S
C1351 C1367 1.349 . S
C1352 C1350 1.327 . S
C1352 C1371 1.429 . S
C1352 H1376 0.950 . S
C1353 C1370 1.574 . S
C1353 C1372 1.368 1_565 S
C1353 H1377 0.949 . S
H1354 C1358 0.949 . S
C1355 C1356 1.349 1_565 S
C1355 C1357 1.327 . S
C1355 H1378 0.950 . S
C1356 C1355 1.349 1_545 S
C1356 C1368 1.349 . S
C1357 C1355 1.327 . S
C1357 C1373 1.429 1_565 S
C1357 H1379 0.950 . S
C1358 H1354 0.949 . S
C1358 C1366 1.574 . S
C1358 C1374 1.368 . S
H1359 C1367 0.950 1_565 S
H1360 C1365 0.938 1_565 S
H1361 C1366 0.949 . S
H1362 C1368 0.950 . S
H1363 C1369 0.950 . S
H1364 C1370 0.949 . S
C1365 H1360 0.938 1_545 S
C1365 C1367 1.322 . S
C1365 C1371 1.445 . S
C1366 C1358 1.574 . S
C1366 H1361 0.949 . S
C1366 C1372 1.368 . S
C1367 C1351 1.349 . S
C1367 H1359 0.950 1_545 S
C1367 C1365 1.322 . S
C1368 C1356 1.349 . S
C1368 H1362 0.950 . S
C1368 C1369 1.327 . S
C1369 H1363 0.950 . S
C1369 C1368 1.327 . S
C1369 C1373 1.429 . S
C1370 C1353 1.574 . S
C1370 H1364 0.949 . S
C1370 C1374 1.368 1_565 S
C1371 C1352 1.429 . S
C1371 C1365 1.445 . S
C1371 C1372 1.523 . S
C1372 C1353 1.368 1_545 S
C1372 C1366 1.368 . S
C1372 C1371 1.523 . S
C1373 C1357 1.429 1_545 S
C1373 C1369 1.429 . S
C1373 C1374 1.523 . S
C1374 C1358 1.368 . S
C1374 C1370 1.368 1_545 S
C1374 C1373 1.523 . S
H1375 C1350 0.950 . S
H1376 C1352 0.950 . S
H1377 C1353 0.949 . S
H1378 C1355 0.950 . S
H1379 C1357 0.950 . S
C1380 C1381 1.349 . S
C1380 C1382 1.327 . S
C1380 H1405 0.950 . S
C1381 C1380 1.349 . S
C1381 C1397 1.349 . S
C1382 C1380 1.327 . S
C1382 C1401 1.429 . S
C1382 H1406 0.950 . S
C1383 C1400 1.540 . S
C1383 C1402 1.426 . S
C1383 H1407 0.930 1_655 S
H1384 C1388 0.949 . S
C1385 C1386 1.349 1_455 S
C1385 C1387 1.327 . S
C1385 H1408 0.950 . S
C1386 C1385 1.349 1_655 S
C1386 C1398 1.349 . S
C1387 C1385 1.327 . S
C1387 C1403 1.429 1_455 S
C1387 H1409 0.950 . S
C1388 H1384 0.949 . S
C1388 C1396 1.574 . S
C1388 C1404 1.368 . S
H1389 C1397 0.953 . S
H1390 C1395 0.950 1_455 S
H1391 C1396 0.949 . S
H1392 C1398 0.950 . S
H1393 C1399 0.950 . S
H1394 C1400 0.955 1_455 S
C1395 H1390 0.950 1_655 S
C1395 C1397 1.327 . S
C1395 C1401 1.429 . S
C1396 C1388 1.574 . S
C1396 H1391 0.949 . S
C1396 C1402 1.368 . S
C1397 C1381 1.349 . S
C1397 H1389 0.953 . S
C1397 C1395 1.327 . S
C1398 C1386 1.349 . S
C1398 H1392 0.950 . S
C1398 C1399 1.327 . S
C1399 H1393 0.950 . S
C1399 C1398 1.327 . S
C1399 C1403 1.429 . S
C1400 C1383 1.540 . S
C1400 H1394 0.955 1_655 S
C1400 C1404 1.365 . S
C1401 C1382 1.429 . S
C1401 C1395 1.429 . S
C1401 C1402 1.523 . S
C1402 C1383 1.426 . S
C1402 C1396 1.368 . S
C1402 C1401 1.523 . S
C1403 C1387 1.429 1_655 S
C1403 C1399 1.429 . S
C1403 C1404 1.523 . S
C1404 C1388 1.368 . S
C1404 C1400 1.365 . S
C1404 C1403 1.523 . S
H1405 C1380 0.950 . S
H1406 C1382 0.950 . S
H1407 C1383 0.930 1_455 S
H1408 C1385 0.950 . S
H1409 C1387 0.950 . S
C1410 C1411 1.349 . S
C1410 C1412 1.327 . S
C1410 H1435 0.950 . S
C1411 C1410 1.349 . S
C1411 C1427 1.349 . S
C1412 C1410 1.327 . S
C1412 C1431 1.429 . S
C1412 H1436 0.950 . S
C1413 C1430 1.574 . S
C1413 C1432 1.368 . S
C1413 H1437 0.949 . S
H1414 C1418 0.949 . S
C1415 C1416 1.349 . S
C1415 C1417 1.327 . S
C1415 H1438 0.950 . S
C1416 C1415 1.349 . S
C1416 C1428 1.349 . S
C1417 C1415 1.327 . S
C1417 C1433 1.429 . S
C1417 H1439 0.950 . S
C1418 H1414 0.949 . S
C1418 C1426 1.574 . S
C1418 C1434 1.368 . S
H1419 C1427 0.950 . S
H1420 C1425 0.950 . S
H1421 C1426 0.949 . S
H1422 C1428 0.950 . S
H1423 C1429 0.950 . S
H1424 C1430 0.949 . S
C1425 H1420 0.950 . S
C1425 C1427 1.327 . S
C1425 C1431 1.429 . S
C1426 C1418 1.574 . S
C1426 H1421 0.949 . S
C1426 C1432 1.368 . S
C1427 C1411 1.349 . S
C1427 H1419 0.950 . S
C1427 C1425 1.327 . S
C1428 C1416 1.349 . S
C1428 H1422 0.950 . S
C1428 C1429 1.327 . S
C1429 H1423 0.950 . S
C1429 C1428 1.327 . S
C1429 C1433 1.429 . S
C1430 C1413 1.574 . S
C1430 H1424 0.949 . S
C1430 C1434 1.368 . S
C1431 C1412 1.429 . S
C1431 C1425 1.429 . S
C1431 C1432 1.523 . S
C1432 C1413 1.368 . S
C1432 C1426 1.368 . S
C1432 C1431 1.523 . S
C1433 C1417 1.429 . S
C1433 C1429 1.429 . S
C1433 C1434 1.523 . S
C1434 C1418 1.368 . S
C1434 C1430 1.368 . S
C1434 C1433 1.523 . S
H1435 C1410 0.950 . S
H1436 C1412 0.950 . S
H1437 C1413 0.949 . S
H1438 C1415 0.950 . S
H1439 C1417 0.950 . S
C1440 C1441 1.349 . S
C1440 C1442 1.327 . S
C1440 H1465 0.950 . S
C1441 C1440 1.349 . S
C1441 C1457 1.349 . S
C1442 C1440 1.327 . S
C1442 C1461 1.429 . S
C1442 H1466 0.950 . S
C1443 C1460 1.574 . S
C1443 C1462 1.368 . S
C1443 H1467 0.949 . S
H1444 C1448 0.949 . S
C1445 C1446 1.349 . S
C1445 C1447 1.327 . S
C1445 H1468 0.950 . S
C1446 C1445 1.349 . S
C1446 C1458 1.349 . S
C1447 C1445 1.327 . S
C1447 C1463 1.429 . S
C1447 H1469 0.950 . S
C1448 H1444 0.949 . S
C1448 C1456 1.574 . S
C1448 C1464 1.368 . S
H1449 C1457 0.950 . S
H1450 C1455 0.950 . S
H1451 C1456 0.949 . S
H1452 C1458 0.950 . S
H1453 C1459 0.950 . S
H1454 C1460 0.949 . S
C1455 H1450 0.950 . S
C1455 C1457 1.327 . S
C1455 C1461 1.429 . S
C1456 C1448 1.574 . S
C1456 H1451 0.949 . S
C1456 C1462 1.368 . S
C1457 C1441 1.349 . S
C1457 H1449 0.950 . S
C1457 C1455 1.327 . S
C1458 C1446 1.349 . S
C1458 H1452 0.950 . S
C1458 C1459 1.327 . S
C1459 H1453 0.950 . S
C1459 C1458 1.327 . S
C1459 C1463 1.429 . S
C1460 C1443 1.574 . S
C1460 H1454 0.949 . S
C1460 C1464 1.368 . S
C1461 C1442 1.429 . S
C1461 C1455 1.429 . S
C1461 C1462 1.523 . S
C1462 C1443 1.368 . S
C1462 C1456 1.368 . S
C1462 C1461 1.523 . S
C1463 C1447 1.429 . S
C1463 C1459 1.429 . S
C1463 C1464 1.523 . S
C1464 C1448 1.368 . S
C1464 C1460 1.368 . S
C1464 C1463 1.523 . S
H1465 C1440 0.950 . S
H1466 C1442 0.950 . S
H1467 C1443 0.949 . S
H1468 C1445 0.950 . S
H1469 C1447 0.950 . S
C1470 C1471 1.349 . S
C1470 C1472 1.327 . S
C1470 H1495 0.950 . S
C1471 C1470 1.349 . S
C1471 C1487 1.349 . S
C1472 C1470 1.327 . S
C1472 C1491 1.429 . S
C1472 H1496 0.950 . S
C1473 C1490 1.574 . S
C1473 C1492 1.368 . S
C1473 H1497 0.949 . S
H1474 C1478 0.949 . S
C1475 C1476 1.349 . S
C1475 C1477 1.327 . S
C1475 H1498 0.950 . S
C1476 C1475 1.349 . S
C1476 C1488 1.349 . S
C1477 C1475 1.327 . S
C1477 C1493 1.429 . S
C1477 H1499 0.950 . S
C1478 H1474 0.949 . S
C1478 C1486 1.574 . S
C1478 C1494 1.368 . S
H1479 C1487 0.950 . S
H1480 C1485 0.950 . S
H1481 C1486 0.949 . S
H1482 C1488 0.950 . S
H1483 C1489 0.950 . S
H1484 C1490 0.949 . S
C1485 H1480 0.950 . S
C1485 C1487 1.327 . S
C1485 C1491 1.429 . S
C1486 C1478 1.574 . S
C1486 H1481 0.949 . S
C1486 C1492 1.368 . S
C1487 C1471 1.349 . S
C1487 H1479 0.950 . S
C1487 C1485 1.327 . S
C1488 C1476 1.349 . S
C1488 H1482 0.950 . S
C1488 C1489 1.327 . S
C1489 H1483 0.950 . S
C1489 C1488 1.327 . S
C1489 C1493 1.429 . S
C1490 C1473 1.574 . S
C1490 H1484 0.949 . S
C1490 C1494 1.368 . S
C1491 C1472 1.429 . S
C1491 C1485 1.429 . S
C1491 C1492 1.523 . S
C1492 C1473 1.368 . S
C1492 C1486 1.368 . S
C1492 C1491 1.523 . S
C1493 C1477 1.429 . S
C1493 C1489 1.429 . S
C1493 C1494 1.523 . S
C1494 C1478 1.368 . S
C1494 C1490 1.368 . S
C1494 C1493 1.523 . S
H1495 C1470 0.950 . S
H1496 C1472 0.950 . S
H1497 C1473 0.949 . S
H1498 C1475 0.950 . S
H1499 C1477 0.950 . S
C1500 C1501 1.349 . S
C1500 C1502 1.327 . S
C1500 H1525 0.950 . S
C1501 C1500 1.349 . S
C1501 C1517 1.349 . S
C1502 C1500 1.327 . S
C1502 C1521 1.429 . S
C1502 H1526 0.950 . S
C1503 C1520 1.574 . S
C1503 C1522 1.368 . S
C1503 H1527 0.949 . S
H1504 C1508 0.949 . S
C1505 C1506 1.349 . S
C1505 C1507 1.327 . S
C1505 H1528 0.950 . S
C1506 C1505 1.349 . S
C1506 C1518 1.349 . S
C1507 C1505 1.327 . S
C1507 C1523 1.429 . S
C1507 H1529 0.950 . S
C1508 H1504 0.949 . S
C1508 C1516 1.574 . S
C1508 C1524 1.368 . S
H1509 C1517 0.950 . S
H1510 C1515 0.950 . S
H1511 C1516 0.949 . S
H1512 C1518 0.950 . S
H1513 C1519 0.950 . S
H1514 C1520 0.949 . S
C1515 H1510 0.950 . S
C1515 C1517 1.327 . S
C1515 C1521 1.429 . S
C1516 C1508 1.574 . S
C1516 H1511 0.949 . S
C1516 C1522 1.368 . S
C1517 C1501 1.349 . S
C1517 H1509 0.950 . S
C1517 C1515 1.327 . S
C1518 C1506 1.349 . S
C1518 H1512 0.950 . S
C1518 C1519 1.327 . S
C1519 H1513 0.950 . S
C1519 C1518 1.327 . S
C1519 C1523 1.429 . S
C1520 C1503 1.574 . S
C1520 H1514 0.949 . S
C1520 C1524 1.368 . S
C1521 C1502 1.429 . S
C1521 C1515 1.429 . S
C1521 C1522 1.523 . S
C1522 C1503 1.368 . S
C1522 C1516 1.368 . S
C1522 C1521 1.523 . S
C1523 C1507 1.429 . S
C1523 C1519 1.429 . S
C1523 C1524 1.523 . S
C1524 C1508 1.368 . S
C1524 C1520 1.368 . S
C1524 C1523 1.523 . S
H1525 C1500 0.950 . S
H1526 C1502 0.950 . S
H1527 C1503 0.949 . S
H1528 C1505 0.950 . S
H1529 C1507 0.950 . S
C1530 C1531 1.349 . S
C1530 C1532 1.327 . S
C1530 H1555 0.950 . S
C1531 C1530 1.349 . S
C1531 C1547 1.349 . S
C1532 C1530 1.327 . S
C1532 C1551 1.429 . S
C1532 H1556 0.950 . S
C1533 C1550 1.574 . S
C1533 C1552 1.368 . S
C1533 H1557 0.949 . S
H1534 C1538 0.949 . S
C1535 C1536 1.349 . S
C1535 C1537 1.327 . S
C1535 H1558 0.950 . S
C1536 C1535 1.349 . S
C1536 C1548 1.349 . S
C1537 C1535 1.327 . S
C1537 C1553 1.429 . S
C1537 H1559 0.950 . S
C1538 H1534 0.949 . S
C1538 C1546 1.574 . S
C1538 C1554 1.368 . S
H1539 C1547 0.950 . S
H1540 C1545 0.950 . S
H1541 C1546 0.949 . S
H1542 C1548 0.950 . S
H1543 C1549 0.950 . S
H1544 C1550 0.949 . S
C1545 H1540 0.950 . S
C1545 C1547 1.327 . S
C1545 C1551 1.429 . S
C1546 C1538 1.574 . S
C1546 H1541 0.949 . S
C1546 C1552 1.368 . S
C1547 C1531 1.349 . S
C1547 H1539 0.950 . S
C1547 C1545 1.327 . S
C1548 C1536 1.349 . S
C1548 H1542 0.950 . S
C1548 C1549 1.327 . S
C1549 H1543 0.950 . S
C1549 C1548 1.327 . S
C1549 C1553 1.429 . S
C1550 C1533 1.574 . S
C1550 H1544 0.949 . S
C1550 C1554 1.368 . S
C1551 C1532 1.429 . S
C1551 C1545 1.429 . S
C1551 C1552 1.523 . S
C1552 C1533 1.368 . S
C1552 C1546 1.368 . S
C1552 C1551 1.523 . S
C1553 C1537 1.429 . S
C1553 C1549 1.429 . S
C1553 C1554 1.523 . S
C1554 C1538 1.368 . S
C1554 C1550 1.368 . S
C1554 C1553 1.523 . S
H1555 C1530 0.950 . S
H1556 C1532 0.950 . S
H1557 C1533 0.949 . S
H1558 C1535 0.950 . S
H1559 C1537 0.950 . S
C1560 C1561 1.349 . S
C1560 C1562 1.327 . S
C1560 H1585 0.950 . S
C1561 C1560 1.349 . S
C1561 C1577 1.349 . S
C1562 C1560 1.327 . S
C1562 C1581 1.429 . S
C1562 H1586 0.950 . S
C1563 C1580 1.574 . S
C1563 C1582 1.368 . S
C1563 H1587 0.949 . S
H1564 C1568 0.949 . S
C1565 C1566 1.349 . S
C1565 C1567 1.327 . S
C1565 H1588 0.950 . S
C1566 C1565 1.349 . S
C1566 C1578 1.349 . S
C1567 C1565 1.327 . S
C1567 C1583 1.429 . S
C1567 H1589 0.950 . S
C1568 H1564 0.949 . S
C1568 C1576 1.574 . S
C1568 C1584 1.368 . S
H1569 C1577 0.950 . S
H1570 C1575 0.950 . S
H1571 C1576 0.949 . S
H1572 C1578 0.950 . S
H1573 C1579 0.950 . S
H1574 C1580 0.949 . S
C1575 H1570 0.950 . S
C1575 C1577 1.327 . S
C1575 C1581 1.429 . S
C1576 C1568 1.574 . S
C1576 H1571 0.949 . S
C1576 C1582 1.368 . S
C1577 C1561 1.349 . S
C1577 H1569 0.950 . S
C1577 C1575 1.327 . S
C1578 C1566 1.349 . S
C1578 H1572 0.950 . S
C1578 C1579 1.327 . S
C1579 H1573 0.950 . S
C1579 C1578 1.327 . S
C1579 C1583 1.429 . S
C1580 C1563 1.574 . S
C1580 H1574 0.949 . S
C1580 C1584 1.368 . S
C1581 C1562 1.429 . S
C1581 C1575 1.429 . S
C1581 C1582 1.523 . S
C1582 C1563 1.368 . S
C1582 C1576 1.368 . S
C1582 C1581 1.523 . S
C1583 C1567 1.429 . S
C1583 C1579 1.429 . S
C1583 C1584 1.523 . S
C1584 C1568 1.368 . S
C1584 C1580 1.368 . S
C1584 C1583 1.523 . S
H1585 C1560 0.950 . S
H1586 C1562 0.950 . S
H1587 C1563 0.949 . S
H1588 C1565 0.950 . S
H1589 C1567 0.950 . S
C1590 C1591 1.349 . S
C1590 C1592 1.327 . S
C1590 H1615 0.950 . S
C1591 C1590 1.349 . S
C1591 C1607 1.349 . S
C1592 C1590 1.327 . S
C1592 C1611 1.429 . S
C1592 H1616 0.950 . S
C1593 C1610 1.574 . S
C1593 C1612 1.368 . S
C1593 H1617 0.949 . S
H1594 C1598 0.949 . S
C1595 C1596 1.349 . S
C1595 C1597 1.327 . S
C1595 H1618 0.950 . S
C1596 C1595 1.349 . S
C1596 C1608 1.349 . S
C1597 C1595 1.327 . S
C1597 C1613 1.429 . S
C1597 H1619 0.950 . S
C1598 H1594 0.949 . S
C1598 C1606 1.574 . S
C1598 C1614 1.368 . S
H1599 C1607 0.950 . S
H1600 C1605 0.950 . S
H1601 C1606 0.949 . S
H1602 C1608 0.950 . S
H1603 C1609 0.950 . S
H1604 C1610 0.949 . S
C1605 H1600 0.950 . S
C1605 C1607 1.327 . S
C1605 C1611 1.429 . S
C1606 C1598 1.574 . S
C1606 H1601 0.949 . S
C1606 C1612 1.368 . S
C1607 C1591 1.349 . S
C1607 H1599 0.950 . S
C1607 C1605 1.327 . S
C1608 C1596 1.349 . S
C1608 H1602 0.950 . S
C1608 C1609 1.327 . S
C1609 H1603 0.950 . S
C1609 C1608 1.327 . S
C1609 C1613 1.429 . S
C1610 C1593 1.574 . S
C1610 H1604 0.949 . S
C1610 C1614 1.368 . S
C1611 C1592 1.429 . S
C1611 C1605 1.429 . S
C1611 C1612 1.523 . S
C1612 C1593 1.368 . S
C1612 C1606 1.368 . S
C1612 C1611 1.523 . S
C1613 C1597 1.429 . S
C1613 C1609 1.429 . S
C1613 C1614 1.523 . S
C1614 C1598 1.368 . S
C1614 C1610 1.368 . S
C1614 C1613 1.523 . S
H1615 C1590 0.950 . S
H1616 C1592 0.950 . S
H1617 C1593 0.949 . S
H1618 C1595 0.950 . S
H1619 C1597 0.950 . S
C1620 C1621 1.349 . S
C1620 C1622 1.327 . S
C1620 H1645 0.950 . S
C1621 C1620 1.349 . S
C1621 C1637 1.349 . S
C1622 C1620 1.327 . S
C1622 C1641 1.429 . S
C1622 H1646 0.950 . S
C1623 C1640 1.574 . S
C1623 C1642 1.368 . S
C1623 H1647 0.949 . S
H1624 C1628 0.949 . S
C1625 C1626 1.349 . S
C1625 C1627 1.327 . S
C1625 H1648 0.950 . S
C1626 C1625 1.349 . S
C1626 C1638 1.349 . S
C1627 C1625 1.327 . S
C1627 C1643 1.429 . S
C1627 H1649 0.950 . S
C1628 H1624 0.949 . S
C1628 C1636 1.574 . S
C1628 C1644 1.368 . S
H1629 C1637 0.950 . S
H1630 C1635 0.950 . S
H1631 C1636 0.949 . S
H1632 C1638 0.950 . S
H1633 C1639 0.950 . S
H1634 C1640 0.949 . S
C1635 H1630 0.950 . S
C1635 C1637 1.327 . S
C1635 C1641 1.429 . S
C1636 C1628 1.574 . S
C1636 H1631 0.949 . S
C1636 C1642 1.368 . S
C1637 C1621 1.349 . S
C1637 H1629 0.950 . S
C1637 C1635 1.327 . S
C1638 C1626 1.349 . S
C1638 H1632 0.950 . S
C1638 C1639 1.327 . S
C1639 H1633 0.950 . S
C1639 C1638 1.327 . S
C1639 C1643 1.429 . S
C1640 C1623 1.574 . S
C1640 H1634 0.949 . S
C1640 C1644 1.368 . S
C1641 C1622 1.429 . S
C1641 C1635 1.429 . S
C1641 C1642 1.523 . S
C1642 C1623 1.368 . S
C1642 C1636 1.368 . S
C1642 C1641 1.523 . S
C1643 C1627 1.429 . S
C1643 C1639 1.429 . S
C1643 C1644 1.523 . S
C1644 C1628 1.368 . S
C1644 C1640 1.368 . S
C1644 C1643 1.523 . S
H1645 C1620 0.950 . S
H1646 C1622 0.950 . S
H1647 C1623 0.949 . S
H1648 C1625 0.950 . S
H1649 C1627 0.950 . S
C1650 C1651 1.349 . S
C1650 C1652 1.327 . S
C1650 H1675 0.950 . S
C1651 C1650 1.349 . S
C1651 C1667 1.349 . S
C1652 C1650 1.327 . S
C1652 C1671 1.429 . S
C1652 H1676 0.950 . S
C1653 C1670 1.574 . S
C1653 C1672 1.368 . S
C1653 H1677 0.949 . S
H1654 C1658 0.949 . S
C1655 C1656 1.349 . S
C1655 C1657 1.327 . S
C1655 H1678 0.950 . S
C1656 C1655 1.349 . S
C1656 C1668 1.349 . S
C1657 C1655 1.327 . S
C1657 C1673 1.429 . S
C1657 H1679 0.950 . S
C1658 H1654 0.949 . S
C1658 C1666 1.574 . S
C1658 C1674 1.368 . S
H1659 C1667 0.950 . S
H1660 C1665 0.950 . S
H1661 C1666 0.949 . S
H1662 C1668 0.950 . S
H1663 C1669 0.950 . S
H1664 C1670 0.949 . S
C1665 H1660 0.950 . S
C1665 C1667 1.327 . S
C1665 C1671 1.429 . S
C1666 C1658 1.574 . S
C1666 H1661 0.949 . S
C1666 C1672 1.368 . S
C1667 C1651 1.349 . S
C1667 H1659 0.950 . S
C1667 C1665 1.327 . S
C1668 C1656 1.349 . S
C1668 H1662 0.950 . S
C1668 C1669 1.327 . S
C1669 H1663 0.950 . S
C1669 C1668 1.327 . S
C1669 C1673 1.429 . S
C1670 C1653 1.574 . S
C1670 H1664 0.949 . S
C1670 C1674 1.368 . S
C1671 C1652 1.429 . S
C1671 C1665 1.429 . S
C1671 C1672 1.523 . S
C1672 C1653 1.368 . S
C1672 C1666 1.368 . S
C1672 C1671 1.523 . S
C1673 C1657 1.429 . S
C1673 C1669 1.429 . S
C1673 C1674 1.523 . S
C1674 C1658 1.368 . S
C1674 C1670 1.368 . S
C1674 C1673 1.523 . S
H1675 C1650 0.950 . S
H1676 C1652 0.950 . S
H1677 C1653 0.949 . S
H1678 C1655 0.950 . S
H1679 C1657 0.950 . S
C1680 C1681 1.349 . S
C1680 C1682 1.327 . S
C1680 H1705 0.950 . S
C1681 C1680 1.349 . S
C1681 C1697 1.349 . S
C1682 C1680 1.327 . S
C1682 C1701 1.429 . S
C1682 H1706 0.950 . S
C1683 C1700 1.574 . S
C1683 C1702 1.368 . S
C1683 H1707 0.949 . S
H1684 C1688 0.949 . S
C1685 C1686 1.349 . S
C1685 C1687 1.327 . S
C1685 H1708 0.950 . S
C1686 C1685 1.349 . S
C1686 C1698 1.349 . S
C1687 C1685 1.327 . S
C1687 C1703 1.429 . S
C1687 H1709 0.950 . S
C1688 H1684 0.949 . S
C1688 C1696 1.574 . S
C1688 C1704 1.368 . S
H1689 C1697 0.950 . S
H1690 C1695 0.950 . S
H1691 C1696 0.949 . S
H1692 C1698 0.950 . S
H1693 C1699 0.950 . S
H1694 C1700 0.949 . S
C1695 H1690 0.950 . S
C1695 C1697 1.327 . S
C1695 C1701 1.429 . S
C1696 C1688 1.574 . S
C1696 H1691 0.949 . S
C1696 C1702 1.368 . S
C1697 C1681 1.349 . S
C1697 H1689 0.950 . S
C1697 C1695 1.327 . S
C1698 C1686 1.349 . S
C1698 H1692 0.950 . S
C1698 C1699 1.327 . S
C1699 H1693 0.950 . S
C1699 C1698 1.327 . S
C1699 C1703 1.429 . S
C1700 C1683 1.574 . S
C1700 H1694 0.949 . S
C1700 C1704 1.368 . S
C1701 C1682 1.429 . S
C1701 C1695 1.429 . S
C1701 C1702 1.523 . S
C1702 C1683 1.368 . S
C1702 C1696 1.368 . S
C1702 C1701 1.523 . S
C1703 C1687 1.429 . S
C1703 C1699 1.429 . S
C1703 C1704 1.523 . S
C1704 C1688 1.368 . S
C1704 C1700 1.368 . S
C1704 C1703 1.523 . S
H1705 C1680 0.950 . S
H1706 C1682 0.950 . S
H1707 C1683 0.949 . S
H1708 C1685 0.950 . S
H1709 C1687 0.950 . S
C1710 C1711 1.349 . S
C1710 C1712 1.327 . S
C1710 H1735 0.950 . S
C1711 C1710 1.349 . S
C1711 C1727 1.349 . S
C1712 C1710 1.327 . S
C1712 C1731 1.429 . S
C1712 H1736 0.950 . S
C1713 C1730 1.574 . S
C1713 C1732 1.368 . S
C1713 H1737 0.949 . S
H1714 C1718 0.949 . S
C1715 C1716 1.349 . S
C1715 C1717 1.327 . S
C1715 H1738 0.950 . S
C1716 C1715 1.349 . S
C1716 C1728 1.349 . S
C1717 C1715 1.327 . S
C1717 C1733 1.429 . S
C1717 H1739 0.950 . S
C1718 H1714 0.949 . S
C1718 C1726 1.574 . S
C1718 C1734 1.368 . S
H1719 C1727 0.950 . S
H1720 C1725 0.950 . S
H1721 C1726 0.949 . S
H1722 C1728 0.950 . S
H1723 C1729 0.950 . S
H1724 C1730 0.949 . S
C1725 H1720 0.950 . S
C1725 C1727 1.327 . S
C1725 C1731 1.429 . S
C1726 C1718 1.574 . S
C1726 H1721 0.949 . S
C1726 C1732 1.368 . S
C1727 C1711 1.349 . S
C1727 H1719 0.950 . S
C1727 C1725 1.327 . S
C1728 C1716 1.349 . S
C1728 H1722 0.950 . S
C1728 C1729 1.327 . S
C1729 H1723 0.950 . S
C1729 C1728 1.327 . S
C1729 C1733 1.429 . S
C1730 C1713 1.574 . S
C1730 H1724 0.949 . S
C1730 C1734 1.368 . S
C1731 C1712 1.429 . S
C1731 C1725 1.429 . S
C1731 C1732 1.523 . S
C1732 C1713 1.368 . S
C1732 C1726 1.368 . S
C1732 C1731 1.523 . S
C1733 C1717 1.429 . S
C1733 C1729 1.429 . S
C1733 C1734 1.523 . S
C1734 C1718 1.368 . S
C1734 C1730 1.368 . S
C1734 C1733 1.523 . S
H1735 C1710 0.950 . S
H1736 C1712 0.950 . S
H1737 C1713 0.949 . S
H1738 C1715 0.950 . S
H1739 C1717 0.950 . S
C1740 C1741 1.349 . S
C1740 C1742 1.327 . S
C1740 H1765 0.950 . S
C1741 C1740 1.349 . S
C1741 C1757 1.349 . S
C1742 C1740 1.327 . S
C1742 C1761 1.429 . S
C1742 H1766 0.950 . S
C1743 C1760 1.574 . S
C1743 C1762 1.368 . S
C1743 H1767 0.949 . S
H1744 C1748 0.949 . S
C1745 C1746 1.349 . S
C1745 C1747 1.327 . S
C1745 H1768 0.950 . S
C1746 C1745 1.349 . S
C1746 C1758 1.349 . S
C1747 C1745 1.327 . S
C1747 C1763 1.429 . S
C1747 H1769 0.950 . S
C1748 H1744 0.949 . S
C1748 C1756 1.574 . S
C1748 C1764 1.368 . S
H1749 C1757 0.950 . S
H1750 C1755 0.950 . S
H1751 C1756 0.949 . S
H1752 C1758 0.950 . S
H1753 C1759 0.950 . S
H1754 C1760 0.949 . S
C1755 H1750 0.950 . S
C1755 C1757 1.327 . S
C1755 C1761 1.429 . S
C1756 C1748 1.574 . S
C1756 H1751 0.949 . S
C1756 C1762 1.368 . S
C1757 C1741 1.349 . S
C1757 H1749 0.950 . S
C1757 C1755 1.327 . S
C1758 C1746 1.349 . S
C1758 H1752 0.950 . S
C1758 C1759 1.327 . S
C1759 H1753 0.950 . S
C1759 C1758 1.327 . S
C1759 C1763 1.429 . S
C1760 C1743 1.574 . S
C1760 H1754 0.949 . S
C1760 C1764 1.368 . S
C1761 C1742 1.429 . S
C1761 C1755 1.429 . S
C1761 C1762 1.523 . S
C1762 C1743 1.368 . S
C1762 C1756 1.368 . S
C1762 C1761 1.523 . S
C1763 C1747 1.429 . S
C1763 C1759 1.429 . S
C1763 C1764 1.523 . S
C1764 C1748 1.368 . S
C1764 C1760 1.368 . S
C1764 C1763 1.523 . S
H1765 C1740 0.950 . S
H1766 C1742 0.950 . S
H1767 C1743 0.949 . S
H1768 C1745 0.950 . S
H1769 C1747 0.950 . S
C1770 C1771 1.349 . S
C1770 C1772 1.327 . S
C1770 H1795 0.950 . S
C1771 C1770 1.349 . S
C1771 C1787 1.349 . S
C1772 C1770 1.327 . S
C1772 C1791 1.429 . S
C1772 H1796 0.950 . S
C1773 C1790 1.574 . S
C1773 C1792 1.368 . S
C1773 H1797 0.949 . S
H1774 C1778 0.949 . S
C1775 C1776 1.349 . S
C1775 C1777 1.327 . S
C1775 H1798 0.950 . S
C1776 C1775 1.349 . S
C1776 C1788 1.349 . S
C1777 C1775 1.327 . S
C1777 C1793 1.429 . S
C1777 H1799 0.950 . S
C1778 H1774 0.949 . S
C1778 C1786 1.574 . S
C1778 C1794 1.368 . S
H1779 C1787 0.950 . S
H1780 C1785 0.950 . S
H1781 C1786 0.949 . S
H1782 C1788 0.950 . S
H1783 C1789 0.950 . S
H1784 C1790 0.949 . S
C1785 H1780 0.950 . S
C1785 C1787 1.327 . S
C1785 C1791 1.429 . S
C1786 C1778 1.574 . S
C1786 H1781 0.949 . S
C1786 C1792 1.368 . S
C1787 C1771 1.349 . S
C1787 H1779 0.950 . S
C1787 C1785 1.327 . S
C1788 C1776 1.349 . S
C1788 H1782 0.950 . S
C1788 C1789 1.327 . S
C1789 H1783 0.950 . S
C1789 C1788 1.327 . S
C1789 C1793 1.429 . S
C1790 C1773 1.574 . S
C1790 H1784 0.949 . S
C1790 C1794 1.368 . S
C1791 C1772 1.429 . S
C1791 C1785 1.429 . S
C1791 C1792 1.523 . S
C1792 C1773 1.368 . S
C1792 C1786 1.368 . S
C1792 C1791 1.523 . S
C1793 C1777 1.429 . S
C1793 C1789 1.429 . S
C1793 C1794 1.523 . S
C1794 C1778 1.368 . S
C1794 C1790 1.368 . S
C1794 C1793 1.523 . S
H1795 C1770 0.950 . S
H1796 C1772 0.950 . S
H1797 C1773 0.949 . S
H1798 C1775 0.950 . S
H1799 C1777 0.950 . S
C1800 C1801 1.349 . S
C1800 C1802 1.327 . S
C1800 H1825 0.950 . S
C1801 C1800 1.349 . S
C1801 C1817 1.349 . S
C1802 C1800 1.327 . S
C1802 C1821 1.429 . S
C1802 H1826 0.950 . S
C1803 C1820 1.574 . S
C1803 C1822 1.368 . S
C1803 H1827 0.949 . S
H1804 C1808 0.949 . S
C1805 C1806 1.349 . S
C1805 C1807 1.327 . S
C1805 H1828 0.950 . S
C1806 C1805 1.349 . S
C1806 C1818 1.349 . S
C1807 C1805 1.327 . S
C1807 C1823 1.429 . S
C1807 H1829 0.950 . S
C1808 H1804 0.949 . S
C1808 C1816 1.574 . S
C1808 C1824 1.368 . S
H1809 C1817 0.950 . S
H1810 C1815 0.950 . S
H1811 C1816 0.949 . S
H1812 C1818 0.950 . S
H1813 C1819 0.950 . S
H1814 C1820 0.949 . S
C1815 H1810 0.950 . S
C1815 C1817 1.327 . S
C1815 C1821 1.429 . S
C1816 C1808 1.574 . S
C1816 H1811 0.949 . S
C1816 C1822 1.368 . S
C1817 C1801 1.349 . S
C1817 H1809 0.950 . S
C1817 C1815 1.327 . S
C1818 C1806 1.349 . S
C1818 H1812 0.950 . S
C1818 C1819 1.327 . S
C1819 H1813 0.950 . S
C1819 C1818 1.327 . S
C1819 C1823 1.429 . S
C1820 C1803 1.574 . S
C1820 H1814 0.949 . S
C1820 C1824 1.368 . S
C1821 C1802 1.429 . S
C1821 C1815 1.429 . S
C1821 C1822 1.523 . S
C1822 C1803 1.368 . S
C1822 C1816 1.368 . S
C1822 C1821 1.523 . S
C1823 C1807 1.429 . S
C1823 C1819 1.429 . S
C1823 C1824 1.523 . S
C1824 C1808 1.368 . S
C1824 C1820 1.368 . S
C1824 C1823 1.523 . S
H1825 C1800 0.950 . S
H1826 C1802 0.950 . S
H1827 C1803 0.949 . S
H1828 C1805 0.950 . S
H1829 C1807 0.950 . S
C1830 C1831 1.349 . S
C1830 C1832 1.327 . S
C1830 H1855 0.950 . S
C1831 C1830 1.349 . S
C1831 C1847 1.349 . S
C1832 C1830 1.327 . S
C1832 C1851 1.429 . S
C1832 H1856 0.950 . S
C1833 C1850 1.574 . S
C1833 C1852 1.368 . S
C1833 H1857 0.949 . S
H1834 C1838 0.949 . S
C1835 C1836 1.349 . S
C1835 C1837 1.327 . S
C1835 H1858 0.950 . S
C1836 C1835 1.349 . S
C1836 C1848 1.349 . S
C1837 C1835 1.327 . S
C1837 C1853 1.429 . S
C1837 H1859 0.950 . S
C1838 H1834 0.949 . S
C1838 C1846 1.574 . S
C1838 C1854 1.368 . S
H1839 C1847 0.950 . S
H1840 C1845 0.950 . S
H1841 C1846 0.949 . S
H1842 C1848 0.950 . S
H1843 C1849 0.950 . S
H1844 C1850 0.949 . S
C1845 H1840 0.950 . S
C1845 C1847 1.327 . S
C1845 C1851 1.429 . S
C1846 C1838 1.574 . S
C1846 H1841 0.949 . S
C1846 C1852 1.368 . S
C1847 C1831 1.349 . S
C1847 H1839 0.950 . S
C1847 C1845 1.327 . S
C1848 C1836 1.349 . S
C1848 H1842 0.950 . S
C1848 C1849 1.327 . S
C1849 H1843 0.950 . S
C1849 C1848 1.327 . S
C1849 C1853 1.429 . S
C1850 C1833 1.574 . S
C1850 H1844 0.949 . S
C1850 C1854 1.368 . S
C1851 C1832 1.429 . S
C1851 C1845 1.429 . S
C1851 C1852 1.523 . S
C1852 C1833 1.368 . S
C1852 C1846 1.368 . S
C1852 C1851 1.523 . S
C1853 C1837 1.429 . S
C1853 C1849 1.429 . S
C1853 C1854 1.523 . S
C1854 C1838 1.368 . S
C1854 C1850 1.368 . S
C1854 C1853 1.523 . S
H1855 C1830 0.950 . S
H1856 C1832 0.950 . S
H1857 C1833 0.949 . S
H1858 C1835 0.950 . S
H1859 C1837 0.950 . S
C1860 C1861 1.349 . S
C1860 C1862 1.327 . S
C1860 H1885 0.950 . S
C1861 C1860 1.349 . S
C1861 C1877 1.349 . S
C1862 C1860 1.327 . S
C1862 C1881 1.429 . S
C1862 H1886 0.950 . S
C1863 C1880 1.574 . S
C1863 C1882 1.368 . S
C1863 H1887 0.949 . S
H1864 C1868 0.949 . S
C1865 C1866 1.349 . S
C1865 C1867 1.327 . S
C1865 H1888 0.950 . S
C1866 C1865 1.349 . S
C1866 C1878 1.349 . S
C1867 C1865 1.327 . S
C1867 C1883 1.429 . S
C1867 H1889 0.950 . S
C1868 H1864 0.949 . S
C1868 C1876 1.574 . S
C1868 C1884 1.368 . S
H1869 C1877 0.950 . S
H1870 C1875 0.950 . S
H1871 C1876 0.949 . S
H1872 C1878 0.950 . S
H1873 C1879 0.950 . S
H1874 C1880 0.949 . S
C1875 H1870 0.950 . S
C1875 C1877 1.327 . S
C1875 C1881 1.429 . S
C1876 C1868 1.574 . S
C1876 H1871 0.949 . S
C1876 C1882 1.368 . S
C1877 C1861 1.349 . S
C1877 H1869 0.950 . S
C1877 C1875 1.327 . S
C1878 C1866 1.349 . S
C1878 H1872 0.950 . S
C1878 C1879 1.327 . S
C1879 H1873 0.950 . S
C1879 C1878 1.327 . S
C1879 C1883 1.429 . S
C1880 C1863 1.574 . S
C1880 H1874 0.949 . S
C1880 C1884 1.368 . S
C1881 C1862 1.429 . S
C1881 C1875 1.429 . S
C1881 C1882 1.523 . S
C1882 C1863 1.368 . S
C1882 C1876 1.368 . S
C1882 C1881 1.523 . S
C1883 C1867 1.429 . S
C1883 C1879 1.429 . S
C1883 C1884 1.523 . S
C1884 C1868 1.368 . S
C1884 C1880 1.368 . S
C1884 C1883 1.523 . S
H1885 C1860 0.950 . S
H1886 C1862 0.950 . S
H1887 C1863 0.949 . S
H1888 C1865 0.950 . S
H1889 C1867 0.950 . S
C1890 C1891 1.349 . S
C1890 C1892 1.327 . S
C1890 H1915 0.950 . S
C1891 C1890 1.349 . S
C1891 C1907 1.349 . S
C1892 C1890 1.327 . S
C1892 C1911 1.429 . S
C1892 H1916 0.950 . S
C1893 C1910 1.574 . S
C1893 C1912 1.368 . S
C1893 H1917 0.949 . S
H1894 C1898 0.949 . S
C1895 C1896 1.349 . S
C1895 C1897 1.327 . S
C1895 H1918 0.950 . S
C1896 C1895 1.349 . S
C1896 C1908 1.349 . S
C1897 C1895 1.327 . S
C1897 C1913 1.429 . S
C1897 H1919 0.950 . S
C1898 H1894 0.949 . S
C1898 C1906 1.574 . S
C1898 C1914 1.368 . S
H1899 C1907 0.950 . S
H1900 C1905 0.950 . S
H1901 C1906 0.949 . S
H1902 C1908 0.950 . S
H1903 C1909 0.950 . S
H1904 C1910 0.949 . S
C1905 H1900 0.950 . S
C1905 C1907 1.327 . S
C1905 C1911 1.429 . S
C1906 C1898 1.574 . S
C1906 H1901 0.949 . S
C1906 C1912 1.368 . S
C1907 C1891 1.349 . S
C1907 H1899 0.950 . S
C1907 C1905 1.327 . S
C1908 C1896 1.349 . S
C1908 H1902 0.950 . S
C1908 C1909 1.327 . S
C1909 H1903 0.950 . S
C1909 C1908 1.327 . S
C1909 C1913 1.429 . S
C1910 C1893 1.574 . S
C1910 H1904 0.949 . S
C1910 C1914 1.368 . S
C1911 C1892 1.429 . S
C1911 C1905 1.429 . S
C1911 C1912 1.523 . S
C1912 C1893 1.368 . S
C1912 C1906 1.368 . S
C1912 C1911 1.523 . S
C1913 C1897 1.429 . S
C1913 C1909 1.429 . S
C1913 C1914 1.523 . S
C1914 C1898 1.368 . S
C1914 C1910 1.368 . S
C1914 C1913 1.523 . S
H1915 C1890 0.950 . S
H1916 C1892 0.950 . S
H1917 C1893 0.949 . S
H1918 C1895 0.950 . S
H1919 C1897 0.950 . S
C1920 C1921 1.349 . S
C1920 C1922 1.327 . S
C1920 H1945 0.950 . S
C1921 C1920 1.349 . S
C1921 C1937 1.349 . S
C1922 C1920 1.327 . S
C1922 C1941 1.429 . S
C1922 H1946 0.950 . S
C1923 C1940 1.574 . S
C1923 C1942 1.368 . S
C1923 H1947 0.949 . S
H1924 C1928 0.949 . S
C1925 C1926 1.349 . S
C1925 C1927 1.327 . S
C1925 H1948 0.950 . S
C1926 C1925 1.349 . S
C1926 C1938 1.349 . S
C1927 C1925 1.327 . S
C1927 C1943 1.429 . S
C1927 H1949 0.950 . S
C1928 H1924 0.949 . S
C1928 C1936 1.574 . S
C1928 C1944 1.368 . S
H1929 C1937 0.950 . S
H1930 C1935 0.950 . S
H1931 C1936 0.949 . S
H1932 C1938 0.950 . S
H1933 C1939 0.950 . S
H1934 C1940 0.949 . S
C1935 H1930 0.950 . S
C1935 C1937 1.327 . S
C1935 C1941 1.429 . S
C1936 C1928 1.574 . S
C1936 H1931 0.949 . S
C1936 C1942 1.368 . S
C1937 C1921 1.349 . S
C1937 H1929 0.950 . S
C1937 C1935 1.327 . S
C1938 C1926 1.349 . S
C1938 H1932 0.950 . S
C1938 C1939 1.327 . S
C1939 H1933 0.950 . S
C1939 C1938 1.327 . S
C1939 C1943 1.429 . S
C1940 C1923 1.574 . S
C1940 H1934 0.949 . S
C1940 C1944 1.368 . S
C1941 C1922 1.429 . S
C1941 C1935 1.429 . S
C1941 C1942 1.523 . S
C1942 C1923 1.368 . S
C1942 C1936 1.368 . S
C1942 C1941 1.523 . S
C1943 C1927 1.429 . S
C1943 C1939 1.429 . S
C1943 C1944 1.523 . S
C1944 C1928 1.368 . S
C1944 C1940 1.368 . S
C1944 C1943 1.523 . S
H1945 C1920 0.950 . S
H1946 C1922 0.950 . S
H1947 C1923 0.949 . S
H1948 C1925 0.950 . S
H1949 C1927 0.950 . S
C1950 C1951 1.349 . S
C1950 C1952 1.327 . S
C1950 H1975 0.950 . S
C1951 C1950 1.349 . S
C1951 C1967 1.349 . S
C1952 C1950 1.327 . S
C1952 C1971 1.429 . S
C1952 H1976 0.950 . S
C1953 C1970 1.574 . S
C1953 C1972 1.368 . S
C1953 H1977 0.949 . S
H1954 C1958 0.949 . S
C1955 C1956 1.349 . S
C1955 C1957 1.327 . S
C1955 H1978 0.950 . S
C1956 C1955 1.349 . S
C1956 C1968 1.349 . S
C1957 C1955 1.327 . S
C1957 C1973 1.429 . S
C1957 H1979 0.950 . S
C1958 H1954 0.949 . S
C1958 C1966 1.574 . S
C1958 C1974 1.368 . S
H1959 C1967 0.950 . S
H1960 C1965 0.950 . S
H1961 C1966 0.949 . S
H1962 C1968 0.950 . S
H1963 C1969 0.950 . S
H1964 C1970 0.949 . S
C1965 H1960 0.950 . S
C1965 C1967 1.327 . S
C1965 C1971 1.429 . S
C1966 C1958 1.574 . S
C1966 H1961 0.949 . S
C1966 C1972 1.368 . S
C1967 C1951 1.349 . S
C1967 H1959 0.950 . S
C1967 C1965 1.327 . S
C1968 C1956 1.349 . S
C1968 H1962 0.950 . S
C1968 C1969 1.327 . S
C1969 H1963 0.950 . S
C1969 C1968 1.327 . S
C1969 C1973 1.429 . S
C1970 C1953 1.574 . S
C1970 H1964 0.949 . S
C1970 C1974 1.368 . S
C1971 C1952 1.429 . S
C1971 C1965 1.429 . S
C1971 C1972 1.523 . S
C1972 C1953 1.368 . S
C1972 C1966 1.368 . S
C1972 C1971 1.523 . S
C1973 C1957 1.429 . S
C1973 C1969 1.429 . S
C1973 C1974 1.523 . S
C1974 C1958 1.368 . S
C1974 C1970 1.368 . S
C1974 C1973 1.523 . S
H1975 C1950 0.950 . S
H1976 C1952 0.950 . S
H1977 C1953 0.949 . S
H1978 C1955 0.950 . S
H1979 C1957 0.950 . S
C1980 C1981 1.349 . S
C1980 C1982 1.327 . S
C1980 H2005 0.950 . S
C1981 C1980 1.349 . S
C1981 C1997 1.349 . S
C1982 C1980 1.327 . S
C1982 C2001 1.429 . S
C1982 H2006 0.950 . S
C1983 C2000 1.574 . S
C1983 C2002 1.368 . S
C1983 H2007 0.949 . S
H1984 C1988 0.949 . S
C1985 C1986 1.349 . S
C1985 C1987 1.327 . S
C1985 H2008 0.950 . S
C1986 C1985 1.349 . S
C1986 C1998 1.349 . S
C1987 C1985 1.327 . S
C1987 C2003 1.429 . S
C1987 H2009 0.950 . S
C1988 H1984 0.949 . S
C1988 C1996 1.574 . S
C1988 C2004 1.368 . S
H1989 C1997 0.950 . S
H1990 C1995 0.950 . S
H1991 C1996 0.949 . S
H1992 C1998 0.950 . S
H1993 C1999 0.950 . S
H1994 C2000 0.949 . S
C1995 H1990 0.950 . S
C1995 C1997 1.327 . S
C1995 C2001 1.429 . S
C1996 C1988 1.574 . S
C1996 H1991 0.949 . S
C1996 C2002 1.368 . S
C1997 C1981 1.349 . S
C1997 H1989 0.950 . S
C1997 C1995 1.327 . S
C1998 C1986 1.349 . S
C1998 H1992 0.950 . S
C1998 C1999 1.327 . S
C1999 H1993 0.950 . S
C1999 C1998 1.327 . S
C1999 C2003 1.429 . S
C2000 C1983 1.574 . S
C2000 H1994 0.949 . S
C2000 C2004 1.368 . S
C2001 C1982 1.429 . S
C2001 C1995 1.429 . S
C2001 C2002 1.523 . S
C2002 C1983 1.368 . S
C2002 C1996 1.368 . S
C2002 C2001 1.523 . S
C2003 C1987 1.429 . S
C2003 C1999 1.429 . S
C2003 C2004 1.523 . S
C2004 C1988 1.368 . S
C2004 C2000 1.368 . S
C2004 C2003 1.523 . S
H2005 C1980 0.950 . S
H2006 C1982 0.950 . S
H2007 C1983 0.949 . S
H2008 C1985 0.950 . S
H2009 C1987 0.950 . S
C2010 C2011 1.349 . S
C2010 C2012 1.327 . S
C2010 H2035 0.950 . S
C2011 C2010 1.349 . S
C2011 C2027 1.349 . S
C2012 C2010 1.327 . S
C2012 C2031 1.429 . S
C2012 H2036 0.950 . S
C2013 C2030 1.574 . S
C2013 C2032 1.368 . S
C2013 H2037 0.949 . S
H2014 C2018 0.949 . S
C2015 C2016 1.349 . S
C2015 C2017 1.327 . S
C2015 H2038 0.950 . S
C2016 C2015 1.349 . S
C2016 C2028 1.349 . S
C2017 C2015 1.327 . S
C2017 C2033 1.429 . S
C2017 H2039 0.950 . S
C2018 H2014 0.949 . S
C2018 C2026 1.574 . S
C2018 C2034 1.368 . S
H2019 C2027 0.950 . S
H2020 C2025 0.950 . S
H2021 C2026 0.949 . S
H2022 C2028 0.950 . S
H2023 C2029 0.950 . S
H2024 C2030 0.949 . S
C2025 H2020 0.950 . S
C2025 C2027 1.327 . S
C2025 C2031 1.429 . S
C2026 C2018 1.574 . S
C2026 H2021 0.949 . S
C2026 C2032 1.368 . S
C2027 C2011 1.349 . S
C2027 H2019 0.950 . S
C2027 C2025 1.327 . S
C2028 C2016 1.349 . S
C2028 H2022 0.950 . S
C2028 C2029 1.327 . S
C2029 H2023 0.950 . S
C2029 C2028 1.327 . S
C2029 C2033 1.429 . S
C2030 C2013 1.574 . S
C2030 H2024 0.949 . S
C2030 C2034 1.368 . S
C2031 C2012 1.429 . S
C2031 C2025 1.429 . S
C2031 C2032 1.523 . S
C2032 C2013 1.368 . S
C2032 C2026 1.368 . S
C2032 C2031 1.523 . S
C2033 C2017 1.429 . S
C2033 C2029 1.429 . S
C2033 C2034 1.523 . S
C2034 C2018 1.368 . S
C2034 C2030 1.368 . S
C2034 C2033 1.523 . S
H2035 C2010 0.950 . S
H2036 C2012 0.950 . S
H2037 C2013 0.949 . S
H2038 C2015 0.950 . S
H2039 C2017 0.950 . S
C2040 C2041 1.349 . S
C2040 C2042 1.327 . S
C2040 H2065 0.950 . S
C2041 C2040 1.349 . S
C2041 C2057 1.349 . S
C2042 C2040 1.327 . S
C2042 C2061 1.429 . S
C2042 H2066 0.950 . S
C2043 C2060 1.574 . S
C2043 C2062 1.368 . S
C2043 H2067 0.949 . S
H2044 C2048 0.949 . S
C2045 C2046 1.349 . S
C2045 C2047 1.327 . S
C2045 H2068 0.950 . S
C2046 C2045 1.349 . S
C2046 C2058 1.349 . S
C2047 C2045 1.327 . S
C2047 C2063 1.429 . S
C2047 H2069 0.950 . S
C2048 H2044 0.949 . S
C2048 C2056 1.574 . S
C2048 C2064 1.368 . S
H2049 C2057 0.950 . S
H2050 C2055 0.950 . S
H2051 C2056 0.949 . S
H2052 C2058 0.950 . S
H2053 C2059 0.950 . S
H2054 C2060 0.949 . S
C2055 H2050 0.950 . S
C2055 C2057 1.327 . S
C2055 C2061 1.429 . S
C2056 C2048 1.574 . S
C2056 H2051 0.949 . S
C2056 C2062 1.368 . S
C2057 C2041 1.349 . S
C2057 H2049 0.950 . S
C2057 C2055 1.327 . S
C2058 C2046 1.349 . S
C2058 H2052 0.950 . S
C2058 C2059 1.327 . S
C2059 H2053 0.950 . S
C2059 C2058 1.327 . S
C2059 C2063 1.429 . S
C2060 C2043 1.574 . S
C2060 H2054 0.949 . S
C2060 C2064 1.368 . S
C2061 C2042 1.429 . S
C2061 C2055 1.429 . S
C2061 C2062 1.523 . S
C2062 C2043 1.368 . S
C2062 C2056 1.368 . S
C2062 C2061 1.523 . S
C2063 C2047 1.429 . S
C2063 C2059 1.429 . S
C2063 C2064 1.523 . S
C2064 C2048 1.368 . S
C2064 C2060 1.368 . S
C2064 C2063 1.523 . S
H2065 C2040 0.950 . S
H2066 C2042 0.950 . S
H2067 C2043 0.949 . S
H2068 C2045 0.950 . S
H2069 C2047 0.950 . S
C2070 C2071 1.349 . S
C2070 C2072 1.327 . S
C2070 H2095 0.950 . S
C2071 C2070 1.349 . S
C2071 C2087 1.349 . S
C2072 C2070 1.327 . S
C2072 C2091 1.429 . S
C2072 H2096 0.950 . S
C2073 C2090 1.574 . S
C2073 C2092 1.368 . S
C2073 H2097 0.949 . S
H2074 C2078 0.949 . S
C2075 C2076 1.349 . S
C2075 C2077 1.327 . S
C2075 H2098 0.950 . S
C2076 C2075 1.349 . S
C2076 C2088 1.349 . S
C2077 C2075 1.327 . S
C2077 C2093 1.429 . S
C2077 H2099 0.950 . S
C2078 H2074 0.949 . S
C2078 C2086 1.574 . S
C2078 C2094 1.368 . S
H2079 C2087 0.950 . S
H2080 C2085 0.950 . S
H2081 C2086 0.949 . S
H2082 C2088 0.950 . S
H2083 C2089 0.950 . S
H2084 C2090 0.949 . S
C2085 H2080 0.950 . S
C2085 C2087 1.327 . S
C2085 C2091 1.429 . S
C2086 C2078 1.574 . S
C2086 H2081 0.949 . S
C2086 C2092 1.368 . S
C2087 C2071 1.349 . S
C2087 H2079 0.950 . S
C2087 C2085 1.327 . S
C2088 C2076 1.349 . S
C2088 H2082 0.950 . S
C2088 C2089 1.327 . S
C2089 H2083 0.950 . S
C2089 C2088 1.327 . S
C2089 C2093 1.429 . S
C2090 C2073 1.574 . S
C2090 H2084 0.949 . S
C2090 C2094 1.368 . S
C2091 C2072 1.429 . S
C2091 C2085 1.429 . S
C2091 C2092 1.523 . S
C2092 C2073 1.368 . S
C2092 C2086 1.368 . S
C2092 C2091 1.523 . S
C2093 C2077 1.429 . S
C2093 C2089 1.429 . S
C2093 C2094 1.523 . S
C2094 C2078 1.368 . S
C2094 C2090 1.368 . S
C2094 C2093 1.523 . S
H2095 C2070 0.950 . S
H2096 C2072 0.950 . S
H2097 C2073 0.949 . S
H2098 C2075 0.950 . S
H2099 C2077 0.950 . S
C2100 C2101 1.349 . S
C2100 C2102 1.327 . S
C2100 H2125 0.950 . S
C2101 C2100 1.349 . S
C2101 C2117 1.349 . S
C2102 C2100 1.327 . S
C2102 C2121 1.429 . S
C2102 H2126 0.950 . S
C2103 C2120 1.574 . S
C2103 C2122 1.368 . S
C2103 H2127 0.949 . S
H2104 C2108 0.949 . S
C2105 C2106 1.349 . S
C2105 C2107 1.327 . S
C2105 H2128 0.950 . S
C2106 C2105 1.349 . S
C2106 C2118 1.349 . S
C2107 C2105 1.327 . S
C2107 C2123 1.429 . S
C2107 H2129 0.950 . S
C2108 H2104 0.949 . S
C2108 C2116 1.574 . S
C2108 C2124 1.368 . S
H2109 C2117 0.950 . S
H2110 C2115 0.950 . S
H2111 C2116 0.949 . S
H2112 C2118 0.950 . S
H2113 C2119 0.950 . S
H2114 C2120 0.949 . S
C2115 H2110 0.950 . S
C2115 C2117 1.327 . S
C2115 C2121 1.429 . S
C2116 C2108 1.574 . S
C2116 H2111 0.949 . S
C2116 C2122 1.368 . S
C2117 C2101 1.349 . S
C2117 H2109 0.950 . S
C2117 C2115 1.327 . S
C2118 C2106 1.349 . S
C2118 H2112 0.950 . S
C2118 C2119 1.327 . S
C2119 H2113 0.950 . S
C2119 C2118 1.327 . S
C2119 C2123 1.429 . S
C2120 C2103 1.574 . S
C2120 H2114 0.949 . S
C2120 C2124 1.368 . S
C2121 C2102 1.429 . S
C2121 C2115 1.429 . S
C2121 C2122 1.523 . S
C2122 C2103 1.368 . S
C2122 C2116 1.368 . S
C2122 C2121 1.523 . S
C2123 C2107 1.429 . S
C2123 C2119 1.429 . S
C2123 C2124 1.523 . S
C2124 C2108 1.368 . S
C2124 C2120 1.368 . S
C2124 C2123 1.523 . S
H2125 C2100 0.950 . S
H2126 C2102 0.950 . S
H2127 C2103 0.949 . S
H2128 C2105 0.950 . S
H2129 C2107 0.950 . S
C2130 C2131 1.349 . S
C2130 C2132 1.327 . S
C2130 H2155 0.950 . S
C2131 C2130 1.349 . S
C2131 C2147 1.349 . S
C2132 C2130 1.327 . S
C2132 C2151 1.429 . S
C2132 H2156 0.950 . S
C2133 C2150 1.574 . S
C2133 C2152 1.368 . S
C2133 H2157 0.949 . S
H2134 C2138 0.949 . S
C2135 C2136 1.349 . S
C2135 C2137 1.327 . S
C2135 H2158 0.950 . S
C2136 C2135 1.349 . S
C2136 C2148 1.349 . S
C2137 C2135 1.327 . S
C2137 C2153 1.429 . S
C2137 H2159 0.950 . S
C2138 H2134 0.949 . S
C2138 C2146 1.574 . S
C2138 C2154 1.368 . S
H2139 C2147 0.950 . S
H2140 C2145 0.950 . S
H2141 C2146 0.949 . S
H2142 C2148 0.950 . S
H2143 C2149 0.950 . S
H2144 C2150 0.949 . S
C2145 H2140 0.950 . S
C2145 C2147 1.327 . S
C2145 C2151 1.429 . S
C2146 C2138 1.574 . S
C2146 H2141 0.949 . S
C2146 C2152 1.368 . S
C2147 C2131 1.349 . S
C2147 H2139 0.950 . S
C2147 C2145 1.327 . S
C2148 C2136 1.349 . S
C2148 H2142 0.950 . S
C2148 C2149 1.327 . S
C2149 H2143 0.950 . S
C2149 C2148 1.327 . S
C2149 C2153 1.429 . S
C2150 C2133 1.574 . S
C2150 H2144 0.949 . S
C2150 C2154 1.368 . S
C2151 C2132 1.429 . S
C2151 C2145 1.429 . S
C2151 C2152 1.523 . S
C2152 C2133 1.368 . S
C2152 C2146 1.368 . S
C2152 C2151 1.523 . S
C2153 C2137 1.429 . S
C2153 C2149 1.429 . S
C2153 C2154 1.523 . S
C2154 C2138 1.368 . S
C2154 C2150 1.368 . S
C2154 C2153 1.523 . S
H2155 C2130 0.950 . S
H2156 C2132 0.950 . S
H2157 C2133 0.949 . S
H2158 C2135 0.950 . S
H2159 C2137 0.950 . S
C2160 C2161 1.349 . S
C2160 C2162 1.327 . S
C2160 H2185 0.950 . S
C2161 C2160 1.349 . S
C2161 C2177 1.349 . S
C2162 C2160 1.327 . S
C2162 C2181 1.429 . S
C2162 H2186 0.950 . S
C2163 C2180 1.574 . S
C2163 C2182 1.368 . S
C2163 H2187 0.949 . S
H2164 C2168 0.949 . S
C2165 C2166 1.349 . S
C2165 C2167 1.327 . S
C2165 H2188 0.950 . S
C2166 C2165 1.349 . S
C2166 C2178 1.349 . S
C2167 C2165 1.327 . S
C2167 C2183 1.429 . S
C2167 H2189 0.950 . S
C2168 H2164 0.949 . S
C2168 C2176 1.574 . S
C2168 C2184 1.368 . S
H2169 C2177 0.950 . S
H2170 C2175 0.950 . S
H2171 C2176 0.949 . S
H2172 C2178 0.950 . S
H2173 C2179 0.950 . S
H2174 C2180 0.949 . S
C2175 H2170 0.950 . S
C2175 C2177 1.327 . S
C2175 C2181 1.429 . S
C2176 C2168 1.574 . S
C2176 H2171 0.949 . S
C2176 C2182 1.368 . S
C2177 C2161 1.349 . S
C2177 H2169 0.950 . S
C2177 C2175 1.327 . S
C2178 C2166 1.349 . S
C2178 H2172 0.950 . S
C2178 C2179 1.327 . S
C2179 H2173 0.950 . S
C2179 C2178 1.327 . S
C2179 C2183 1.429 . S
C2180 C2163 1.574 . S
C2180 H2174 0.949 . S
C2180 C2184 1.368 . S
C2181 C2162 1.429 . S
C2181 C2175 1.429 . S
C2181 C2182 1.523 . S
C2182 C2163 1.368 . S
C2182 C2176 1.368 . S
C2182 C2181 1.523 . S
C2183 C2167 1.429 . S
C2183 C2179 1.429 . S
C2183 C2184 1.523 . S
C2184 C2168 1.368 . S
C2184 C2180 1.368 . S
C2184 C2183 1.523 . S
H2185 C2160 0.950 . S
H2186 C2162 0.950 . S
H2187 C2163 0.949 . S
H2188 C2165 0.950 . S
H2189 C2167 0.950 . S
C2190 C2191 1.349 . S
C2190 C2192 1.327 . S
C2190 H2215 0.950 . S
C2191 C2190 1.349 . S
C2191 C2207 1.349 . S
C2192 C2190 1.327 . S
C2192 C2211 1.429 . S
C2192 H2216 0.950 . S
C2193 C2210 1.574 . S
C2193 C2212 1.368 . S
C2193 H2217 0.949 . S
H2194 C2198 0.949 . S
C2195 C2196 1.349 . S
C2195 C2197 1.327 . S
C2195 H2218 0.950 . S
C2196 C2195 1.349 . S
C2196 C2208 1.349 . S
C2197 C2195 1.327 . S
C2197 C2213 1.429 . S
C2197 H2219 0.950 . S
C2198 H2194 0.949 . S
C2198 C2206 1.574 . S
C2198 C2214 1.368 . S
H2199 C2207 0.950 . S
H2200 C2205 0.950 . S
H2201 C2206 0.949 . S
H2202 C2208 0.950 . S
H2203 C2209 0.950 . S
H2204 C2210 0.949 . S
C2205 H2200 0.950 . S
C2205 C2207 1.327 . S
C2205 C2211 1.429 . S
C2206 C2198 1.574 . S
C2206 H2201 0.949 . S
C2206 C2212 1.368 . S
C2207 C2191 1.349 . S
C2207 H2199 0.950 . S
C2207 C2205 1.327 . S
C2208 C2196 1.349 . S
C2208 H2202 0.950 . S
C2208 C2209 1.327 . S
C2209 H2203 0.950 . S
C2209 C2208 1.327 . S
C2209 C2213 1.429 . S
C2210 C2193 1.574 . S
C2210 H2204 0.949 . S
C2210 C2214 1.368 . S
C2211 C2192 1.429 . S
C2211 C2205 1.429 . S
C2211 C2212 1.523 . S
C2212 C2193 1.368 . S
C2212 C2206 1.368 . S
C2212 C2211 1.523 . S
C2213 C2197 1.429 . S
C2213 C2209 1.429 . S
C2213 C2214 1.523 . S
C2214 C2198 1.368 . S
C2214 C2210 1.368 . S
C2214 C2213 1.523 . S
H2215 C2190 0.950 . S
H2216 C2192 0.950 . S
H2217 C2193 0.949 . S
H2218 C2195 0.950 . S
H2219 C2197 0.950 . S
C2220 C2221 1.349 . S
C2220 C2222 1.327 . S
C2220 H2245 0.950 . S
C2221 C2220 1.349 . S
C2221 C2237 1.349 . S
C2222 C2220 1.327 . S
C2222 C2241 1.429 . S
C2222 H2246 0.950 . S
C2223 C2240 1.574 . S
C2223 C2242 1.368 . S
C2223 H2247 0.949 . S
H2224 C2228 0.949 . S
C2225 C2226 1.349 . S
C2225 C2227 1.327 . S
C2225 H2248 0.950 . S
C2226 C2225 1.349 . S
C2226 C2238 1.349 . S
C2227 C2225 1.327 . S
C2227 C2243 1.429 . S
C2227 H2249 0.950 . S
C2228 H2224 0.949 . S
C2228 C2236 1.574 . S
C2228 C2244 1.368 . S
H2229 C2237 0.950 . S
H2230 C2235 0.950 . S
H2231 C2236 0.949 . S
H2232 C2238 0.950 . S
H2233 C2239 0.950 . S
H2234 C2240 0.949 . S
C2235 H2230 0.950 . S
C2235 C2237 1.327 . S
C2235 C2241 1.429 . S
C2236 C2228 1.574 . S
C2236 H2231 0.949 . S
C2236 C2242 1.368 . S
C2237 C2221 1.349 . S
C2237 H2229 0.950 . S
C2237 C2235 1.327 . S
C2238 C2226 1.349 . S
C2238 H2232 0.950 . S
C2238 C2239 1.327 . S
C2239 H2233 0.950 . S
C2239 C2238 1.327 . S
C2239 C2243 1.429 . S
C2240 C2223 1.574 . S
C2240 H2234 0.949 . S
C2240 C2244 1.368 . S
C2241 C2222 1.429 . S
C2241 C2235 1.429 . S
C2241 C2242 1.523 . S
C2242 C2223 1.368 . S
C2242 C2236 1.368 . S
C2242 C2241 1.523 . S
C2243 C2227 1.429 . S
C2243 C2239 1.429 . S
C2243 C2244 1.523 . S
C2244 C2228 1.368 . S
C2244 C2240 1.368 . S
C2244 C2243 1.523 . S
H2245 C2220 0.950 . S
H2246 C2222 0.950 . S
H2247 C2223 0.949 . S
H2248 C2225 0.950 . S
H2249 C2227 0.950 . S
C2250 C2251 1.349 . S
C2250 C2252 1.327 . S
C2250 H2275 0.946 . S
C2251 C2250 1.349 . S
C2251 C2267 1.349 . S
C2252 C2250 1.327 . S
C2252 C2271 1.429 . S
C2252 H2276 0.950 . S
C2253 C2270 1.574 . S
C2253 C2272 1.368 . S
C2253 H2277 0.949 . S
H2254 C2258 0.949 . S
C2255 C2256 1.349 . S
C2255 C2257 1.327 . S
C2255 H2278 0.950 . S
C2256 C2255 1.349 . S
C2256 C2268 1.349 . S
C2257 C2255 1.327 . S
C2257 C2273 1.429 . S
C2257 H2279 0.950 . S
C2258 H2254 0.949 . S
C2258 C2266 1.574 . S
C2258 C2274 1.368 . S
H2259 C2267 0.950 . S
H2260 C2265 0.950 . S
H2261 C2266 0.949 . S
H2262 C2268 0.950 . S
H2263 C2269 0.950 . S
H2264 C2270 0.949 . S
C2265 H2260 0.950 . S
C2265 C2267 1.327 . S
C2265 C2271 1.429 . S
C2266 C2258 1.574 . S
C2266 H2261 0.949 . S
C2266 C2272 1.368 . S
C2267 C2251 1.349 . S
C2267 H2259 0.950 . S
C2267 C2265 1.327 . S
C2268 C2256 1.349 . S
C2268 H2262 0.950 . S
C2268 C2269 1.327 . S
C2269 H2263 0.950 . S
C2269 C2268 1.327 . S
C2269 C2273 1.429 . S
C2270 C2253 1.574 . S
C2270 H2264 0.949 . S
C2270 C2274 1.368 . S
C2271 C2252 1.429 . S
C2271 C2265 1.429 . S
C2271 C2272 1.523 . S
C2272 C2253 1.368 . S
C2272 C2266 1.368 . S
C2272 C2271 1.523 . S
C2273 C2257 1.429 . S
C2273 C2269 1.429 . S
C2273 C2274 1.523 . S
C2274 C2258 1.368 . S
C2274 C2270 1.368 . S
C2274 C2273 1.523 . S
H2275 C2250 0.946 . S
H2276 C2252 0.950 . S
H2277 C2253 0.949 . S
H2278 C2255 0.950 . S
H2279 C2257 0.950 . S
C2280 C2281 1.349 . S
C2280 C2282 1.327 . S
C2280 H2305 0.950 1_556 S
C2281 C2280 1.349 . S
C2281 C2297 1.349 . S
C2282 C2280 1.327 . S
C2282 C2301 1.429 . S
C2282 H2306 0.950 . S
C2283 C2300 1.574 . S
C2283 C2302 1.368 . S
C2283 H2307 0.949 . S
H2284 C2288 0.949 . S
C2285 C2286 1.349 . S
C2285 C2287 1.327 . S
C2285 H2308 0.950 . S
C2286 C2285 1.349 . S
C2286 C2298 1.349 . S
C2287 C2285 1.327 . S
C2287 C2303 1.429 . S
C2287 H2309 0.950 . S
C2288 H2284 0.949 . S
C2288 C2296 1.574 . S
C2288 C2304 1.368 . S
H2289 C2297 0.950 . S
H2290 C2295 0.950 . S
H2291 C2296 0.949 . S
H2292 C2298 0.950 . S
H2293 C2299 0.950 . S
H2294 C2300 0.949 . S
C2295 H2290 0.950 . S
C2295 C2297 1.327 . S
C2295 C2301 1.429 . S
C2296 C2288 1.574 . S
C2296 H2291 0.949 . S
C2296 C2302 1.368 . S
C2297 C2281 1.349 . S
C2297 H2289 0.950 . S
C2297 C2295 1.327 . S
C2298 C2286 1.349 . S
C2298 H2292 0.950 . S
C2298 C2299 1.327 . S
C2299 H2293 0.950 . S
C2299 C2298 1.327 . S
C2299 C2303 1.429 . S
C2300 C2283 1.574 . S
C2300 H2294 0.949 . S
C2300 C2304 1.368 . S
C2301 C2282 1.429 . S
C2301 C2295 1.429 . S
C2301 C2302 1.523 . S
C2302 C2283 1.368 . S
C2302 C2296 1.368 . S
C2302 C2301 1.523 . S
C2303 C2287 1.429 . S
C2303 C2299 1.429 . S
C2303 C2304 1.523 . S
C2304 C2288 1.368 . S
C2304 C2300 1.368 . S
C2304 C2303 1.523 . S
H2305 C2280 0.950 1_554 S
H2306 C2282 0.950 . S
H2307 C2283 0.949 . S
H2308 C2285 0.950 . S
H2309 C2287 0.950 . S
C2310 C2311 1.349 . S
C2310 C2312 1.327 . S
C2310 H2335 0.950 . S
C2311 C2310 1.349 . S
C2311 C2327 1.349 . S
C2312 C2310 1.327 . S
C2312 C2331 1.429 . S
C2312 H2336 0.950 . S
C2313 C2330 1.574 . S
C2313 C2332 1.368 . S
C2313 H2337 0.949 . S
H2314 C2318 0.949 . S
C2315 C2316 1.349 . S
C2315 C2317 1.327 . S
C2315 H2338 0.950 . S
C2316 C2315 1.349 . S
C2316 C2328 1.349 . S
C2317 C2315 1.327 . S
C2317 C2333 1.429 . S
C2317 H2339 0.950 . S
C2318 H2314 0.949 . S
C2318 C2326 1.574 . S
C2318 C2334 1.368 . S
H2319 C2327 0.950 . S
H2320 C2325 0.950 . S
H2321 C2326 0.949 . S
H2322 C2328 0.950 . S
H2323 C2329 0.950 . S
H2324 C2330 0.949 . S
C2325 H2320 0.950 . S
C2325 C2327 1.327 . S
C2325 C2331 1.429 . S
C2326 C2318 1.574 . S
C2326 H2321 0.949 . S
C2326 C2332 1.368 . S
C2327 C2311 1.349 . S
C2327 H2319 0.950 . S
C2327 C2325 1.327 . S
C2328 C2316 1.349 . S
C2328 H2322 0.950 . S
C2328 C2329 1.327 . S
C2329 H2323 0.950 . S
C2329 C2328 1.327 . S
C2329 C2333 1.429 . S
C2330 C2313 1.574 . S
C2330 H2324 0.949 . S
C2330 C2334 1.368 . S
C2331 C2312 1.429 . S
C2331 C2325 1.429 . S
C2331 C2332 1.523 . S
C2332 C2313 1.368 . S
C2332 C2326 1.368 . S
C2332 C2331 1.523 . S
C2333 C2317 1.429 . S
C2333 C2329 1.429 . S
C2333 C2334 1.523 . S
C2334 C2318 1.368 . S
C2334 C2330 1.368 . S
C2334 C2333 1.523 . S
H2335 C2310 0.950 . S
H2336 C2312 0.950 . S
H2337 C2313 0.949 . S
H2338 C2315 0.950 . S
H2339 C2317 0.950 . S
C2340 C2341 1.349 . S
C2340 C2342 1.327 . S
C2340 H2365 0.950 1_556 S
C2341 C2340 1.349 . S
C2341 C2357 1.349 . S
C2342 C2340 1.327 . S
C2342 C2361 1.429 . S
C2342 H2366 0.950 . S
C2343 C2360 1.574 . S
C2343 C2362 1.368 . S
C2343 H2367 0.949 . S
H2344 C2348 0.949 . S
C2345 C2346 1.349 . S
C2345 C2347 1.327 . S
C2345 H2368 0.950 . S
C2346 C2345 1.349 . S
C2346 C2358 1.349 . S
C2347 C2345 1.327 . S
C2347 C2363 1.429 . S
C2347 H2369 0.950 . S
C2348 H2344 0.949 . S
C2348 C2356 1.574 . S
C2348 C2364 1.368 . S
H2349 C2357 0.950 . S
H2350 C2355 0.950 . S
H2351 C2356 0.949 . S
H2352 C2358 0.950 . S
H2353 C2359 0.950 . S
H2354 C2360 0.949 . S
C2355 H2350 0.950 . S
C2355 C2357 1.327 . S
C2355 C2361 1.429 . S
C2356 C2348 1.574 . S
C2356 H2351 0.949 . S
C2356 C2362 1.368 . S
C2357 C2341 1.349 . S
C2357 H2349 0.950 . S
C2357 C2355 1.327 . S
C2358 C2346 1.349 . S
C2358 H2352 0.950 . S
C2358 C2359 1.327 . S
C2359 H2353 0.950 . S
C2359 C2358 1.327 . S
C2359 C2363 1.429 . S
C2360 C2343 1.574 . S
C2360 H2354 0.949 . S
C2360 C2364 1.368 . S
C2361 C2342 1.429 . S
C2361 C2355 1.429 . S
C2361 C2362 1.523 . S
C2362 C2343 1.368 . S
C2362 C2356 1.368 . S
C2362 C2361 1.523 . S
C2363 C2347 1.429 . S
C2363 C2359 1.429 . S
C2363 C2364 1.523 . S
C2364 C2348 1.368 . S
C2364 C2360 1.368 . S
C2364 C2363 1.523 . S
H2365 C2340 0.950 1_554 S
H2366 C2342 0.950 . S
H2367 C2343 0.949 . S
H2368 C2345 0.950 . S
H2369 C2347 0.950 . S
C2370 C2371 1.349 . S
C2370 C2372 1.327 . S
C2370 H2395 0.950 . S
C2371 C2370 1.349 . S
C2371 C2387 1.349 . S
C2372 C2370 1.327 . S
C2372 C2391 1.429 . S
C2372 H2396 0.950 . S
C2373 C2390 1.574 . S
C2373 C2392 1.368 . S
C2373 H2397 0.949 . S
H2374 C2378 0.949 . S
C2375 C2376 1.349 . S
C2375 C2377 1.327 . S
C2375 H2398 0.950 . S
C2376 C2375 1.349 . S
C2376 C2388 1.349 . S
C2377 C2375 1.327 . S
C2377 C2393 1.429 . S
C2377 H2399 0.950 . S
C2378 H2374 0.949 . S
C2378 C2386 1.574 . S
C2378 C2394 1.368 . S
H2379 C2387 0.950 . S
H2380 C2385 0.950 . S
H2381 C2386 0.949 . S
H2382 C2388 0.950 . S
H2383 C2389 0.950 . S
H2384 C2390 0.949 . S
C2385 H2380 0.950 . S
C2385 C2387 1.327 . S
C2385 C2391 1.429 . S
C2386 C2378 1.574 . S
C2386 H2381 0.949 . S
C2386 C2392 1.368 . S
C2387 C2371 1.349 . S
C2387 H2379 0.950 . S
C2387 C2385 1.327 . S
C2388 C2376 1.349 . S
C2388 H2382 0.950 . S
C2388 C2389 1.327 . S
C2389 H2383 0.950 . S
C2389 C2388 1.327 . S
C2389 C2393 1.429 . S
C2390 C2373 1.574 . S
C2390 H2384 0.949 . S
C2390 C2394 1.368 . S
C2391 C2372 1.429 . S
C2391 C2385 1.429 . S
C2391 C2392 1.523 . S
C2392 C2373 1.368 . S
C2392 C2386 1.368 . S
C2392 C2391 1.523 . S
C2393 C2377 1.429 . S
C2393 C2389 1.429 . S
C2393 C2394 1.523 . S
C2394 C2378 1.368 . S
C2394 C2390 1.368 . S
C2394 C2393 1.523 . S
H2395 C2370 0.950 . S
H2396 C2372 0.950 . S
H2397 C2373 0.949 . S
H2398 C2375 0.950 . S
H2399 C2377 0.950 . S
C2400 C2401 1.349 . S
C2400 C2402 1.327 . S
C2400 H2425 0.950 . S
C2401 C2400 1.349 . S
C2401 C2417 1.358 . S
C2402 C2400 1.327 . S
C2402 C2421 1.429 . S
C2402 H2426 0.950 . S
C2403 C2420 1.574 . S
C2403 C2422 1.368 . S
C2403 H2427 0.949 . S
H2404 C2408 0.949 . S
C2405 C2406 1.349 . S
C2405 C2407 1.327 . S
C2405 H2428 0.950 . S
C2406 C2405 1.349 . S
C2406 C2418 1.349 . S
C2407 C2405 1.327 . S
C2407 C2423 1.429 . S
C2407 H2429 0.950 . S
C2408 H2404 0.949 . S
C2408 C2416 1.574 . S
C2408 C2424 1.368 . S
H2409 C2417 0.932 1_554 S
H2410 C2415 0.950 . S
H2411 C2416 0.949 . S
H2412 C2418 0.950 . S
H2413 C2419 0.950 . S
H2414 C2420 0.949 . S
C2415 H2410 0.950 . S
C2415 C2417 1.336 . S
C2415 C2421 1.429 . S
C2416 C2408 1.574 . S
C2416 H2411 0.949 . S
C2416 C2422 1.368 . S
C2417 C2401 1.358 . S
C2417 H2409 0.932 1_556 S
C2417 C2415 1.336 . S
C2418 C2406 1.349 . S
C2418 H2412 0.950 . S
C2418 C2419 1.327 . S
C2419 H2413 0.950 . S
C2419 C2418 1.327 . S
C2419 C2423 1.429 . S
C2420 C2403 1.574 . S
C2420 H2414 0.949 . S
C2420 C2424 1.368 . S
C2421 C2402 1.429 . S
C2421 C2415 1.429 . S
C2421 C2422 1.523 . S
C2422 C2403 1.368 . S
C2422 C2416 1.368 . S
C2422 C2421 1.523 . S
C2423 C2407 1.429 . S
C2423 C2419 1.429 . S
C2423 C2424 1.523 . S
C2424 C2408 1.368 . S
C2424 C2420 1.368 . S
C2424 C2423 1.523 . S
H2425 C2400 0.950 . S
H2426 C2402 0.950 . S
H2427 C2403 0.949 . S
H2428 C2405 0.950 . S
H2429 C2407 0.950 . S
C2430 C2431 1.349 . S
C2430 C2432 1.327 . S
C2430 H2455 0.950 . S
C2431 C2430 1.349 . S
C2431 C2447 1.349 . S
C2432 C2430 1.327 . S
C2432 C2451 1.429 . S
C2432 H2456 0.950 . S
C2433 C2450 1.574 . S
C2433 C2452 1.368 . S
C2433 H2457 0.949 . S
H2434 C2438 0.949 . S
C2435 C2436 1.349 . S
C2435 C2437 1.327 . S
C2435 H2458 0.950 . S
C2436 C2435 1.349 . S
C2436 C2448 1.349 . S
C2437 C2435 1.327 . S
C2437 C2453 1.429 . S
C2437 H2459 0.950 . S
C2438 H2434 0.949 . S
C2438 C2446 1.574 . S
C2438 C2454 1.368 . S
H2439 C2447 0.950 . S
H2440 C2445 0.950 . S
H2441 C2446 0.949 . S
H2442 C2448 0.950 . S
H2443 C2449 0.950 . S
H2444 C2450 0.949 . S
C2445 H2440 0.950 . S
C2445 C2447 1.327 . S
C2445 C2451 1.429 . S
C2446 C2438 1.574 . S
C2446 H2441 0.949 . S
C2446 C2452 1.368 . S
C2447 C2431 1.349 . S
C2447 H2439 0.950 . S
C2447 C2445 1.327 . S
C2448 C2436 1.349 . S
C2448 H2442 0.950 . S
C2448 C2449 1.327 . S
C2449 H2443 0.950 . S
C2449 C2448 1.327 . S
C2449 C2453 1.429 . S
C2450 C2433 1.574 . S
C2450 H2444 0.949 . S
C2450 C2454 1.368 . S
C2451 C2432 1.429 . S
C2451 C2445 1.429 . S
C2451 C2452 1.523 . S
C2452 C2433 1.368 . S
C2452 C2446 1.368 . S
C2452 C2451 1.523 . S
C2453 C2437 1.429 . S
C2453 C2449 1.429 . S
C2453 C2454 1.523 . S
C2454 C2438 1.368 . S
C2454 C2450 1.368 . S
C2454 C2453 1.523 . S
H2455 C2430 0.950 . S
H2456 C2432 0.950 . S
H2457 C2433 0.949 . S
H2458 C2435 0.950 . S
H2459 C2437 0.950 . S
C2460 C2461 1.349 . S
C2460 C2462 1.327 . S
C2460 H2485 0.950 . S
C2461 C2460 1.349 . S
C2461 C2477 1.349 . S
C2462 C2460 1.327 . S
C2462 C2481 1.429 . S
C2462 H2486 0.950 . S
C2463 C2480 1.574 . S
C2463 C2482 1.368 . S
C2463 H2487 0.949 . S
H2464 C2468 0.949 . S
C2465 C2466 1.349 . S
C2465 C2467 1.327 . S
C2465 H2488 0.950 . S
C2466 C2465 1.349 . S
C2466 C2478 1.349 . S
C2467 C2465 1.327 . S
C2467 C2483 1.429 . S
C2467 H2489 0.950 . S
C2468 H2464 0.949 . S
C2468 C2476 1.574 . S
C2468 C2484 1.368 . S
H2469 C2477 0.950 . S
H2470 C2475 0.950 . S
H2471 C2476 0.949 . S
H2472 C2478 0.950 . S
H2473 C2479 0.950 . S
H2474 C2480 0.949 . S
C2475 H2470 0.950 . S
C2475 C2477 1.327 . S
C2475 C2481 1.429 . S
C2476 C2468 1.574 . S
C2476 H2471 0.949 . S
C2476 C2482 1.368 . S
C2477 C2461 1.349 . S
C2477 H2469 0.950 . S
C2477 C2475 1.327 . S
C2478 C2466 1.349 . S
C2478 H2472 0.950 . S
C2478 C2479 1.327 . S
C2479 H2473 0.950 . S
C2479 C2478 1.327 . S
C2479 C2483 1.429 . S
C2480 C2463 1.574 . S
C2480 H2474 0.949 . S
C2480 C2484 1.368 . S
C2481 C2462 1.429 . S
C2481 C2475 1.429 . S
C2481 C2482 1.523 . S
C2482 C2463 1.368 . S
C2482 C2476 1.368 . S
C2482 C2481 1.523 . S
C2483 C2467 1.429 . S
C2483 C2479 1.429 . S
C2483 C2484 1.523 . S
C2484 C2468 1.368 . S
C2484 C2480 1.368 . S
C2484 C2483 1.523 . S
H2485 C2460 0.950 . S
H2486 C2462 0.950 . S
H2487 C2463 0.949 . S
H2488 C2465 0.950 . S
H2489 C2467 0.950 . S
C2490 C2491 1.349 . S
C2490 C2492 1.327 . S
C2490 H2515 0.950 . S
C2491 C2490 1.349 . S
C2491 C2507 1.349 . S
C2492 C2490 1.327 . S
C2492 C2511 1.429 . S
C2492 H2516 0.950 . S
C2493 C2510 1.574 . S
C2493 C2512 1.368 . S
C2493 H2517 0.949 . S
H2494 C2498 0.949 . S
C2495 C2496 1.349 . S
C2495 C2497 1.327 . S
C2495 H2518 0.950 . S
C2496 C2495 1.349 . S
C2496 C2508 1.349 . S
C2497 C2495 1.327 . S
C2497 C2513 1.429 . S
C2497 H2519 0.950 . S
C2498 H2494 0.949 . S
C2498 C2506 1.574 . S
C2498 C2514 1.368 . S
H2499 C2507 0.950 . S
H2500 C2505 0.950 . S
H2501 C2506 0.949 . S
H2502 C2508 0.950 . S
H2503 C2509 0.950 . S
H2504 C2510 0.949 . S
C2505 H2500 0.950 . S
C2505 C2507 1.327 . S
C2505 C2511 1.429 . S
C2506 C2498 1.574 . S
C2506 H2501 0.949 . S
C2506 C2512 1.368 . S
C2507 C2491 1.349 . S
C2507 H2499 0.950 . S
C2507 C2505 1.327 . S
C2508 C2496 1.349 . S
C2508 H2502 0.950 . S
C2508 C2509 1.327 . S
C2509 H2503 0.950 . S
C2509 C2508 1.327 . S
C2509 C2513 1.429 . S
C2510 C2493 1.574 . S
C2510 H2504 0.949 . S
C2510 C2514 1.368 . S
C2511 C2492 1.429 . S
C2511 C2505 1.429 . S
C2511 C2512 1.523 . S
C2512 C2493 1.368 . S
C2512 C2506 1.368 . S
C2512 C2511 1.523 . S
C2513 C2497 1.429 . S
C2513 C2509 1.429 . S
C2513 C2514 1.523 . S
C2514 C2498 1.368 . S
C2514 C2510 1.368 . S
C2514 C2513 1.523 . S
H2515 C2490 0.950 . S
H2516 C2492 0.950 . S
H2517 C2493 0.949 . S
H2518 C2495 0.950 . S
H2519 C2497 0.950 . S
C2520 C2521 1.349 . S
C2520 C2522 1.327 . S
C2520 H2545 0.950 . S
C2521 C2520 1.349 . S
C2521 C2537 1.349 . S
C2522 C2520 1.327 . S
C2522 C2541 1.429 . S
C2522 H2546 0.950 . S
C2523 C2540 1.574 . S
C2523 C2542 1.368 . S
C2523 H2547 0.949 . S
H2524 C2528 0.949 . S
C2525 C2526 1.349 . S
C2525 C2527 1.327 . S
C2525 H2548 0.950 . S
C2526 C2525 1.349 . S
C2526 C2538 1.349 . S
C2527 C2525 1.327 . S
C2527 C2543 1.429 . S
C2527 H2549 0.950 . S
C2528 H2524 0.949 . S
C2528 C2536 1.574 . S
C2528 C2544 1.368 . S
H2529 C2537 0.950 . S
H2530 C2535 0.950 . S
H2531 C2536 0.949 . S
H2532 C2538 0.950 . S
H2533 C2539 0.950 . S
H2534 C2540 0.949 . S
C2535 H2530 0.950 . S
C2535 C2537 1.327 . S
C2535 C2541 1.429 . S
C2536 C2528 1.574 . S
C2536 H2531 0.949 . S
C2536 C2542 1.368 . S
C2537 C2521 1.349 . S
C2537 H2529 0.950 . S
C2537 C2535 1.327 . S
C2538 C2526 1.349 . S
C2538 H2532 0.950 . S
C2538 C2539 1.327 . S
C2539 H2533 0.950 . S
C2539 C2538 1.327 . S
C2539 C2543 1.429 . S
C2540 C2523 1.574 . S
C2540 H2534 0.949 . S
C2540 C2544 1.368 . S
C2541 C2522 1.429 . S
C2541 C2535 1.429 . S
C2541 C2542 1.523 . S
C2542 C2523 1.368 . S
C2542 C2536 1.368 . S
C2542 C2541 1.523 . S
C2543 C2527 1.429 . S
C2543 C2539 1.429 . S
C2543 C2544 1.523 . S
C2544 C2528 1.368 . S
C2544 C2540 1.368 . S
C2544 C2543 1.523 . S
H2545 C2520 0.950 . S
H2546 C2522 0.950 . S
H2547 C2523 0.949 . S
H2548 C2525 0.950 . S
H2549 C2527 0.950 . S
C2550 C2551 1.349 . S
C2550 C2552 1.327 . S
C2550 H2575 0.950 . S
C2551 C2550 1.349 . S
C2551 C2567 1.349 . S
C2552 C2550 1.327 . S
C2552 C2571 1.429 . S
C2552 H2576 0.950 . S
C2553 C2570 1.574 . S
C2553 C2572 1.368 . S
C2553 H2577 0.949 . S
H2554 C2558 0.949 . S
C2555 C2556 1.349 . S
C2555 C2557 1.327 . S
C2555 H2578 0.950 . S
C2556 C2555 1.349 . S
C2556 C2568 1.349 . S
C2557 C2555 1.327 . S
C2557 C2573 1.429 . S
C2557 H2579 0.950 . S
C2558 H2554 0.949 . S
C2558 C2566 1.574 . S
C2558 C2574 1.368 . S
H2559 C2567 0.950 . S
H2560 C2565 0.950 . S
H2561 C2566 0.949 . S
H2562 C2568 0.950 . S
H2563 C2569 0.950 . S
H2564 C2570 0.949 . S
C2565 H2560 0.950 . S
C2565 C2567 1.327 . S
C2565 C2571 1.429 . S
C2566 C2558 1.574 . S
C2566 H2561 0.949 . S
C2566 C2572 1.368 . S
C2567 C2551 1.349 . S
C2567 H2559 0.950 . S
C2567 C2565 1.327 . S
C2568 C2556 1.349 . S
C2568 H2562 0.950 . S
C2568 C2569 1.327 . S
C2569 H2563 0.950 . S
C2569 C2568 1.327 . S
C2569 C2573 1.429 . S
C2570 C2553 1.574 . S
C2570 H2564 0.949 . S
C2570 C2574 1.368 . S
C2571 C2552 1.429 . S
C2571 C2565 1.429 . S
C2571 C2572 1.523 . S
C2572 C2553 1.368 . S
C2572 C2566 1.368 . S
C2572 C2571 1.523 . S
C2573 C2557 1.429 . S
C2573 C2569 1.429 . S
C2573 C2574 1.523 . S
C2574 C2558 1.368 . S
C2574 C2570 1.368 . S
C2574 C2573 1.523 . S
H2575 C2550 0.950 . S
H2576 C2552 0.950 . S
H2577 C2553 0.949 . S
H2578 C2555 0.950 . S
H2579 C2557 0.950 . S
C2580 C2581 1.349 . S
C2580 C2582 1.327 . S
C2580 H2605 0.950 . S
C2581 C2580 1.349 . S
C2581 C2597 1.349 . S
C2582 C2580 1.327 . S
C2582 C2601 1.429 . S
C2582 H2606 0.950 . S
C2583 C2600 1.574 . S
C2583 C2602 1.368 . S
C2583 H2607 0.949 . S
H2584 C2588 0.949 . S
C2585 C2586 1.349 . S
C2585 C2587 1.327 . S
C2585 H2608 0.950 . S
C2586 C2585 1.349 . S
C2586 C2598 1.349 . S
C2587 C2585 1.327 . S
C2587 C2603 1.429 . S
C2587 H2609 0.950 . S
C2588 H2584 0.949 . S
C2588 C2596 1.574 . S
C2588 C2604 1.368 . S
H2589 C2597 0.950 . S
H2590 C2595 0.950 . S
H2591 C2596 0.949 . S
H2592 C2598 0.950 . S
H2593 C2599 0.950 . S
H2594 C2600 0.949 . S
C2595 H2590 0.950 . S
C2595 C2597 1.327 . S
C2595 C2601 1.429 . S
C2596 C2588 1.574 . S
C2596 H2591 0.949 . S
C2596 C2602 1.368 . S
C2597 C2581 1.349 . S
C2597 H2589 0.950 . S
C2597 C2595 1.327 . S
C2598 C2586 1.349 . S
C2598 H2592 0.950 . S
C2598 C2599 1.327 . S
C2599 H2593 0.950 . S
C2599 C2598 1.327 . S
C2599 C2603 1.429 . S
C2600 C2583 1.574 . S
C2600 H2594 0.949 . S
C2600 C2604 1.368 . S
C2601 C2582 1.429 . S
C2601 C2595 1.429 . S
C2601 C2602 1.523 . S
C2602 C2583 1.368 . S
C2602 C2596 1.368 . S
C2602 C2601 1.523 . S
C2603 C2587 1.429 . S
C2603 C2599 1.429 . S
C2603 C2604 1.523 . S
C2604 C2588 1.368 . S
C2604 C2600 1.368 . S
C2604 C2603 1.523 . S
H2605 C2580 0.950 . S
H2606 C2582 0.950 . S
H2607 C2583 0.949 . S
H2608 C2585 0.950 . S
H2609 C2587 0.950 . S
C2610 C2611 1.349 . S
C2610 C2612 1.327 . S
C2610 H2635 0.950 . S
C2611 C2610 1.349 . S
C2611 C2627 1.349 . S
C2612 C2610 1.327 . S
C2612 C2631 1.429 . S
C2612 H2636 0.950 . S
C2613 C2630 1.574 . S
C2613 C2632 1.368 . S
C2613 H2637 0.949 . S
H2614 C2618 0.949 1_655 S
C2615 C2616 1.349 . S
C2615 C2617 1.327 . S
C2615 H2638 0.950 . S
C2616 C2615 1.349 . S
C2616 C2628 1.349 1_455 S
C2617 C2615 1.327 . S
C2617 C2633 1.429 . S
C2617 H2639 0.950 . S
C2618 H2614 0.949 1_455 S
C2618 C2626 1.574 . S
C2618 C2634 1.368 . S
H2619 C2627 0.950 . S
H2620 C2625 0.950 . S
H2621 C2626 0.942 . S
H2622 C2628 0.950 . S
H2623 C2629 0.945 . S
H2624 C2630 0.949 . S
C2625 H2620 0.950 . S
C2625 C2627 1.327 . S
C2625 C2631 1.429 . S
C2626 C2618 1.574 . S
C2626 H2621 0.942 . S
C2626 C2632 1.368 . S
C2627 C2611 1.349 . S
C2627 H2619 0.950 . S
C2627 C2625 1.327 . S
C2628 C2616 1.349 1_655 S
C2628 H2622 0.950 . S
C2628 C2629 1.359 . S
C2629 H2623 0.945 . S
C2629 C2628 1.359 . S
C2629 C2633 1.405 1_655 S
C2630 C2613 1.574 . S
C2630 H2624 0.949 . S
C2630 C2634 1.368 . S
C2631 C2612 1.429 . S
C2631 C2625 1.429 . S
C2631 C2632 1.523 . S
C2632 C2613 1.368 . S
C2632 C2626 1.368 . S
C2632 C2631 1.523 . S
C2633 C2617 1.429 . S
C2633 C2629 1.405 1_455 S
C2633 C2634 1.523 . S
C2634 C2618 1.368 . S
C2634 C2630 1.368 . S
C2634 C2633 1.523 . S
H2635 C2610 0.950 . S
H2636 C2612 0.950 . S
H2637 C2613 0.949 . S
H2638 C2615 0.950 . S
H2639 C2617 0.950 . S
C2640 C2641 1.349 . S
C2640 C2642 1.327 . S
C2640 H2665 0.950 . S
C2641 C2640 1.349 . S
C2641 C2657 1.349 . S
C2642 C2640 1.327 . S
C2642 C2661 1.429 . S
C2642 H2666 0.950 . S
C2643 C2660 1.574 . S
C2643 C2662 1.368 . S
C2643 H2667 0.949 . S
H2644 C2648 0.949 . S
C2645 C2646 1.349 . S
C2645 C2647 1.327 . S
C2645 H2668 0.950 . S
C2646 C2645 1.349 . S
C2646 C2658 1.349 . S
C2647 C2645 1.327 . S
C2647 C2663 1.429 . S
C2647 H2669 0.950 . S
C2648 H2644 0.949 . S
C2648 C2656 1.574 . S
C2648 C2664 1.368 . S
H2649 C2657 0.950 . S
H2650 C2655 0.950 . S
H2651 C2656 0.949 . S
H2652 C2658 0.950 . S
H2653 C2659 0.950 . S
H2654 C2660 0.949 . S
C2655 H2650 0.950 . S
C2655 C2657 1.327 . S
C2655 C2661 1.429 . S
C2656 C2648 1.574 . S
C2656 H2651 0.949 . S
C2656 C2662 1.368 . S
C2657 C2641 1.349 . S
C2657 H2649 0.950 . S
C2657 C2655 1.327 . S
C2658 C2646 1.349 . S
C2658 H2652 0.950 . S
C2658 C2659 1.327 . S
C2659 H2653 0.950 . S
C2659 C2658 1.327 . S
C2659 C2663 1.429 . S
C2660 C2643 1.574 . S
C2660 H2654 0.949 . S
C2660 C2664 1.368 . S
C2661 C2642 1.429 . S
C2661 C2655 1.429 . S
C2661 C2662 1.523 . S
C2662 C2643 1.368 . S
C2662 C2656 1.368 . S
C2662 C2661 1.523 . S
C2663 C2647 1.429 . S
C2663 C2659 1.429 . S
C2663 C2664 1.523 . S
C2664 C2648 1.368 . S
C2664 C2660 1.368 . S
C2664 C2663 1.523 . S
H2665 C2640 0.950 . S
H2666 C2642 0.950 . S
H2667 C2643 0.949 . S
H2668 C2645 0.950 . S
H2669 C2647 0.950 . S
C2670 C2671 1.349 . S
C2670 C2672 1.327 . S
C2670 H2695 0.950 . S
C2671 C2670 1.349 . S
C2671 C2687 1.349 . S
C2672 C2670 1.327 . S
C2672 C2691 1.429 . S
C2672 H2696 0.950 . S
C2673 C2690 1.574 . S
C2673 C2692 1.368 1_545 S
C2673 H2697 0.949 . S
H2674 C2678 0.949 . S
C2675 C2676 1.349 1_545 S
C2675 C2677 1.327 . S
C2675 H2698 0.950 . S
C2676 C2675 1.349 1_565 S
C2676 C2688 1.349 . S
C2677 C2675 1.327 . S
C2677 C2693 1.429 1_545 S
C2677 H2699 0.950 . S
C2678 H2674 0.949 . S
C2678 C2686 1.574 . S
C2678 C2694 1.368 . S
H2679 C2687 0.950 1_545 S
H2680 C2685 0.950 1_545 S
H2681 C2686 0.949 . S
H2682 C2688 0.950 . S
H2683 C2689 0.950 . S
H2684 C2690 0.949 . S
C2685 H2680 0.950 1_565 S
C2685 C2687 1.327 . S
C2685 C2691 1.429 . S
C2686 C2678 1.574 . S
C2686 H2681 0.949 . S
C2686 C2692 1.368 . S
C2687 C2671 1.349 . S
C2687 H2679 0.950 1_565 S
C2687 C2685 1.327 . S
C2688 C2676 1.349 . S
C2688 H2682 0.950 . S
C2688 C2689 1.327 . S
C2689 H2683 0.950 . S
C2689 C2688 1.327 . S
C2689 C2693 1.429 . S
C2690 C2673 1.574 . S
C2690 H2684 0.949 . S
C2690 C2694 1.368 1_545 S
C2691 C2672 1.429 . S
C2691 C2685 1.429 . S
C2691 C2692 1.523 . S
C2692 C2673 1.368 1_565 S
C2692 C2686 1.368 . S
C2692 C2691 1.523 . S
C2693 C2677 1.429 1_565 S
C2693 C2689 1.429 . S
C2693 C2694 1.523 . S
C2694 C2678 1.368 . S
C2694 C2690 1.368 1_565 S
C2694 C2693 1.523 . S
H2695 C2670 0.950 . S
H2696 C2672 0.950 . S
H2697 C2673 0.949 . S
H2698 C2675 0.950 . S
H2699 C2677 0.950 . S
C2700 C2701 1.349 . S
C2700 C2702 1.327 . S
C2700 H2725 0.950 1_565 S
C2701 C2700 1.349 . S
C2701 C2717 1.349 . S
C2702 C2700 1.327 . S
C2702 C2721 1.429 . S
C2702 H2726 0.950 1_565 S
C2703 C2720 1.574 . S
C2703 C2722 1.368 . S
C2703 H2727 0.949 . S
H2704 C2708 0.949 . S
C2705 C2706 1.349 . S
C2705 C2707 1.327 . S
C2705 H2728 0.950 . S
C2706 C2705 1.349 . S
C2706 C2718 1.349 1_565 S
C2707 C2705 1.327 . S
C2707 C2723 1.429 . S
C2707 H2729 0.950 . S
C2708 H2704 0.949 . S
C2708 C2716 1.574 . S
C2708 C2724 1.368 1_545 S
H2709 C2717 0.950 . S
H2710 C2715 0.950 . S
H2711 C2716 0.949 . S
H2712 C2718 0.950 . S
H2713 C2719 0.950 . S
H2714 C2720 0.949 . S
C2715 H2710 0.950 . S
C2715 C2717 1.327 . S
C2715 C2721 1.429 . S
C2716 C2708 1.574 . S
C2716 H2711 0.949 . S
C2716 C2722 1.368 1_545 S
C2717 C2701 1.349 . S
C2717 H2709 0.950 . S
C2717 C2715 1.327 . S
C2718 C2706 1.349 1_545 S
C2718 H2712 0.950 . S
C2718 C2719 1.327 . S
C2719 H2713 0.950 . S
C2719 C2718 1.327 . S
C2719 C2723 1.429 1_545 S
C2720 C2703 1.574 . S
C2720 H2714 0.949 . S
C2720 C2724 1.368 . S
C2721 C2702 1.429 . S
C2721 C2715 1.429 . S
C2721 C2722 1.523 . S
C2722 C2703 1.368 . S
C2722 C2716 1.368 1_565 S
C2722 C2721 1.523 . S
C2723 C2707 1.429 . S
C2723 C2719 1.429 1_565 S
C2723 C2724 1.523 . S
C2724 C2708 1.368 1_565 S
C2724 C2720 1.368 . S
C2724 C2723 1.523 . S
H2725 C2700 0.950 1_545 S
H2726 C2702 0.950 1_545 S
H2727 C2703 0.949 . S
H2728 C2705 0.950 . S
H2729 C2707 0.950 . S
C2730 C2731 1.349 . S
C2730 C2732 1.327 . S
C2730 H2755 0.950 . S
C2731 C2730 1.349 . S
C2731 C2747 1.349 . S
C2732 C2730 1.327 . S
C2732 C2751 1.429 . S
C2732 H2756 0.950 . S
C2733 C2750 1.574 . S
C2733 C2752 1.368 . S
C2733 H2757 0.949 . S
H2734 C2738 0.949 . S
C2735 C2736 1.349 . S
C2735 C2737 1.327 . S
C2735 H2758 0.950 . S
C2736 C2735 1.349 . S
C2736 C2748 1.349 . S
C2737 C2735 1.327 . S
C2737 C2753 1.429 . S
C2737 H2759 0.950 . S
C2738 H2734 0.949 . S
C2738 C2746 1.574 . S
C2738 C2754 1.368 . S
H2739 C2747 0.950 . S
H2740 C2745 0.950 . S
H2741 C2746 0.949 . S
H2742 C2748 0.950 . S
H2743 C2749 0.950 . S
H2744 C2750 0.949 . S
C2745 H2740 0.950 . S
C2745 C2747 1.327 . S
C2745 C2751 1.429 . S
C2746 C2738 1.574 . S
C2746 H2741 0.949 . S
C2746 C2752 1.368 . S
C2747 C2731 1.349 . S
C2747 H2739 0.950 . S
C2747 C2745 1.327 . S
C2748 C2736 1.349 . S
C2748 H2742 0.950 . S
C2748 C2749 1.327 . S
C2749 H2743 0.950 . S
C2749 C2748 1.327 . S
C2749 C2753 1.429 . S
C2750 C2733 1.574 . S
C2750 H2744 0.949 . S
C2750 C2754 1.368 . S
C2751 C2732 1.429 . S
C2751 C2745 1.429 . S
C2751 C2752 1.523 . S
C2752 C2733 1.368 . S
C2752 C2746 1.368 . S
C2752 C2751 1.523 . S
C2753 C2737 1.429 . S
C2753 C2749 1.429 . S
C2753 C2754 1.523 . S
C2754 C2738 1.368 . S
C2754 C2750 1.368 . S
C2754 C2753 1.523 . S
H2755 C2730 0.950 . S
H2756 C2732 0.950 . S
H2757 C2733 0.949 . S
H2758 C2735 0.950 . S
H2759 C2737 0.950 . S
C2760 C2761 1.349 . S
C2760 C2762 1.327 . S
C2760 H2785 0.950 . S
C2761 C2760 1.349 . S
C2761 C2777 1.349 . S
C2762 C2760 1.327 . S
C2762 C2781 1.429 . S
C2762 H2786 0.950 . S
C2763 C2780 1.574 . S
C2763 C2782 1.368 . S
C2763 H2787 0.949 . S
H2764 C2768 0.949 . S
C2765 C2766 1.349 . S
C2765 C2767 1.327 . S
C2765 H2788 0.950 . S
C2766 C2765 1.349 . S
C2766 C2778 1.349 . S
C2767 C2765 1.327 . S
C2767 C2783 1.429 . S
C2767 H2789 0.950 . S
C2768 H2764 0.949 . S
C2768 C2776 1.574 . S
C2768 C2784 1.368 . S
H2769 C2777 0.950 . S
H2770 C2775 0.950 . S
H2771 C2776 0.949 . S
H2772 C2778 0.950 . S
H2773 C2779 0.950 . S
H2774 C2780 0.949 . S
C2775 H2770 0.950 . S
C2775 C2777 1.327 . S
C2775 C2781 1.429 . S
C2776 C2768 1.574 . S
C2776 H2771 0.949 . S
C2776 C2782 1.368 . S
C2777 C2761 1.349 . S
C2777 H2769 0.950 . S
C2777 C2775 1.327 . S
C2778 C2766 1.349 . S
C2778 H2772 0.950 . S
C2778 C2779 1.327 . S
C2779 H2773 0.950 . S
C2779 C2778 1.327 . S
C2779 C2783 1.429 . S
C2780 C2763 1.574 . S
C2780 H2774 0.949 . S
C2780 C2784 1.368 . S
C2781 C2762 1.429 . S
C2781 C2775 1.429 . S
C2781 C2782 1.523 . S
C2782 C2763 1.368 . S
C2782 C2776 1.368 . S
C2782 C2781 1.523 . S
C2783 C2767 1.429 . S
C2783 C2779 1.429 . S
C2783 C2784 1.523 . S
C2784 C2768 1.368 . S
C2784 C2780 1.368 . S
C2784 C2783 1.523 . S
H2785 C2760 0.950 . S
H2786 C2762 0.950 . S
H2787 C2763 0.949 . S
H2788 C2765 0.950 . S
H2789 C2767 0.950 . S
C2790 C2791 1.349 . S
C2790 C2792 1.327 . S
C2790 H2815 0.950 . S
C2791 C2790 1.349 . S
C2791 C2807 1.349 . S
C2792 C2790 1.327 . S
C2792 C2811 1.429 . S
C2792 H2816 0.950 . S
C2793 C2810 1.574 . S
C2793 C2812 1.368 . S
C2793 H2817 0.949 . S
H2794 C2798 0.949 . S
C2795 C2796 1.349 . S
C2795 C2797 1.327 . S
C2795 H2818 0.950 . S
C2796 C2795 1.349 . S
C2796 C2808 1.349 . S
C2797 C2795 1.327 . S
C2797 C2813 1.429 . S
C2797 H2819 0.950 . S
C2798 H2794 0.949 . S
C2798 C2806 1.574 . S
C2798 C2814 1.368 . S
H2799 C2807 0.950 . S
H2800 C2805 0.950 . S
H2801 C2806 0.949 . S
H2802 C2808 0.950 . S
H2803 C2809 0.950 . S
H2804 C2810 0.949 . S
C2805 H2800 0.950 . S
C2805 C2807 1.327 . S
C2805 C2811 1.429 . S
C2806 C2798 1.574 . S
C2806 H2801 0.949 . S
C2806 C2812 1.368 . S
C2807 C2791 1.349 . S
C2807 H2799 0.950 . S
C2807 C2805 1.327 . S
C2808 C2796 1.349 . S
C2808 H2802 0.950 . S
C2808 C2809 1.327 . S
C2809 H2803 0.950 . S
C2809 C2808 1.327 . S
C2809 C2813 1.429 . S
C2810 C2793 1.574 . S
C2810 H2804 0.949 . S
C2810 C2814 1.368 . S
C2811 C2792 1.429 . S
C2811 C2805 1.429 . S
C2811 C2812 1.523 . S
C2812 C2793 1.368 . S
C2812 C2806 1.368 . S
C2812 C2811 1.523 . S
C2813 C2797 1.429 . S
C2813 C2809 1.429 . S
C2813 C2814 1.523 . S
C2814 C2798 1.368 . S
C2814 C2810 1.368 . S
C2814 C2813 1.523 . S
H2815 C2790 0.950 . S
H2816 C2792 0.950 . S
H2817 C2793 0.949 . S
H2818 C2795 0.950 . S
H2819 C2797 0.950 . S
C2820 C2821 1.349 . S
C2820 C2822 1.327 . S
C2820 H2845 0.950 . S
C2821 C2820 1.349 . S
C2821 C2837 1.349 . S
C2822 C2820 1.327 . S
C2822 C2841 1.429 . S
C2822 H2846 0.950 . S
C2823 C2840 1.574 . S
C2823 C2842 1.368 . S
C2823 H2847 0.949 . S
H2824 C2828 0.949 . S
C2825 C2826 1.349 . S
C2825 C2827 1.327 . S
C2825 H2848 0.950 . S
C2826 C2825 1.349 . S
C2826 C2838 1.349 . S
C2827 C2825 1.327 . S
C2827 C2843 1.429 . S
C2827 H2849 0.950 . S
C2828 H2824 0.949 . S
C2828 C2836 1.574 . S
C2828 C2844 1.368 . S
H2829 C2837 0.950 . S
H2830 C2835 0.950 . S
H2831 C2836 0.949 . S
H2832 C2838 0.950 . S
H2833 C2839 0.950 . S
H2834 C2840 0.949 . S
C2835 H2830 0.950 . S
C2835 C2837 1.327 . S
C2835 C2841 1.429 . S
C2836 C2828 1.574 . S
C2836 H2831 0.949 . S
C2836 C2842 1.368 . S
C2837 C2821 1.349 . S
C2837 H2829 0.950 . S
C2837 C2835 1.327 . S
C2838 C2826 1.349 . S
C2838 H2832 0.950 . S
C2838 C2839 1.327 . S
C2839 H2833 0.950 . S
C2839 C2838 1.327 . S
C2839 C2843 1.429 . S
C2840 C2823 1.574 . S
C2840 H2834 0.949 . S
C2840 C2844 1.368 . S
C2841 C2822 1.429 . S
C2841 C2835 1.429 . S
C2841 C2842 1.523 . S
C2842 C2823 1.368 . S
C2842 C2836 1.368 . S
C2842 C2841 1.523 . S
C2843 C2827 1.429 . S
C2843 C2839 1.429 . S
C2843 C2844 1.523 . S
C2844 C2828 1.368 . S
C2844 C2840 1.368 . S
C2844 C2843 1.523 . S
H2845 C2820 0.950 . S
H2846 C2822 0.950 . S
H2847 C2823 0.949 . S
H2848 C2825 0.950 . S
H2849 C2827 0.950 . S
C2850 C2851 1.349 . S
C2850 C2852 1.327 . S
C2850 H2875 0.950 . S
C2851 C2850 1.349 . S
C2851 C2867 1.349 . S
C2852 C2850 1.327 . S
C2852 C2871 1.429 . S
C2852 H2876 0.950 . S
C2853 C2870 1.574 . S
C2853 C2872 1.368 . S
C2853 H2877 0.949 . S
H2854 C2858 0.949 . S
C2855 C2856 1.349 . S
C2855 C2857 1.327 . S
C2855 H2878 0.950 . S
C2856 C2855 1.349 . S
C2856 C2868 1.349 . S
C2857 C2855 1.327 . S
C2857 C2873 1.429 . S
C2857 H2879 0.950 . S
C2858 H2854 0.949 . S
C2858 C2866 1.574 . S
C2858 C2874 1.368 . S
H2859 C2867 0.950 . S
H2860 C2865 0.950 . S
H2861 C2866 0.949 . S
H2862 C2868 0.950 . S
H2863 C2869 0.950 . S
H2864 C2870 0.949 . S
C2865 H2860 0.950 . S
C2865 C2867 1.327 . S
C2865 C2871 1.429 . S
C2866 C2858 1.574 . S
C2866 H2861 0.949 . S
C2866 C2872 1.368 . S
C2867 C2851 1.349 . S
C2867 H2859 0.950 . S
C2867 C2865 1.327 . S
C2868 C2856 1.349 . S
C2868 H2862 0.950 . S
C2868 C2869 1.327 . S
C2869 H2863 0.950 . S
C2869 C2868 1.327 . S
C2869 C2873 1.429 . S
C2870 C2853 1.574 . S
C2870 H2864 0.949 . S
C2870 C2874 1.368 . S
C2871 C2852 1.429 . S
C2871 C2865 1.429 . S
C2871 C2872 1.523 . S
C2872 C2853 1.368 . S
C2872 C2866 1.368 . S
C2872 C2871 1.523 . S
C2873 C2857 1.429 . S
C2873 C2869 1.429 . S
C2873 C2874 1.523 . S
C2874 C2858 1.368 . S
C2874 C2870 1.368 . S
C2874 C2873 1.523 . S
H2875 C2850 0.950 . S
H2876 C2852 0.950 . S
H2877 C2853 0.949 . S
H2878 C2855 0.950 . S
H2879 C2857 0.950 . S
C2880 C2881 1.349 . S
C2880 C2882 1.327 . S
C2880 H2905 0.950 . S
C2881 C2880 1.349 . S
C2881 C2897 1.349 . S
C2882 C2880 1.327 . S
C2882 C2901 1.429 . S
C2882 H2906 0.950 . S
C2883 C2900 1.578 1_545 S
C2883 C2902 1.368 . S
C2883 H2907 0.949 1_545 S
H2884 C2888 0.949 . S
C2885 C2886 1.349 1_565 S
C2885 C2887 1.327 . S
C2885 H2908 0.950 . S
C2886 C2885 1.349 1_545 S
C2886 C2898 1.349 . S
C2887 C2885 1.327 . S
C2887 C2903 1.429 1_565 S
C2887 H2909 0.950 . S
C2888 H2884 0.949 . S
C2888 C2896 1.574 . S
C2888 C2904 1.368 . S
H2889 C2897 0.950 . S
H2890 C2895 0.900 1_565 S
H2891 C2896 0.949 . S
H2892 C2898 0.950 . S
H2893 C2899 0.950 . S
H2894 C2900 0.942 . S
C2895 H2890 0.900 1_545 S
C2895 C2897 1.327 . S
C2895 C2901 1.429 . S
C2896 C2888 1.574 . S
C2896 H2891 0.949 . S
C2896 C2902 1.368 . S
C2897 C2881 1.349 . S
C2897 H2889 0.950 . S
C2897 C2895 1.327 . S
C2898 C2886 1.349 . S
C2898 H2892 0.950 . S
C2898 C2899 1.327 . S
C2899 H2893 0.950 . S
C2899 C2898 1.327 . S
C2899 C2903 1.429 . S
C2900 C2883 1.578 1_565 S
C2900 H2894 0.942 . S
C2900 C2904 1.372 1_565 S
C2901 C2882 1.429 . S
C2901 C2895 1.429 . S
C2901 C2902 1.523 . S
C2902 C2883 1.368 . S
C2902 C2896 1.368 . S
C2902 C2901 1.523 . S
C2903 C2887 1.429 1_545 S
C2903 C2899 1.429 . S
C2903 C2904 1.523 . S
C2904 C2888 1.368 . S
C2904 C2900 1.372 1_545 S
C2904 C2903 1.523 . S
H2905 C2880 0.950 . S
H2906 C2882 0.950 . S
H2907 C2883 0.949 1_565 S
H2908 C2885 0.950 . S
H2909 C2887 0.950 . S
C2910 C2911 1.349 . S
C2910 C2912 1.327 . S
C2910 H2935 0.950 . S
C2911 C2910 1.349 . S
C2911 C2927 1.349 . S
C2912 C2910 1.327 . S
C2912 C2931 1.429 . S
C2912 H2936 0.950 . S
C2913 C2930 1.574 . S
C2913 C2932 1.368 . S
C2913 H2937 0.949 . S
H2914 C2918 0.949 . S
C2915 C2916 1.337 1_455 S
C2915 C2917 1.369 1_455 S
C2915 H2938 0.954 . S
C2916 C2915 1.337 1_655 S
C2916 C2928 1.349 . S
C2917 C2915 1.369 1_655 S
C2917 C2933 1.448 . S
C2917 H2939 0.902 1_655 S
C2918 H2914 0.949 . S
C2918 C2926 1.574 . S
C2918 C2934 1.368 . S
H2919 C2927 0.950 . S
H2920 C2925 0.950 . S
H2921 C2926 0.949 . S
H2922 C2928 0.950 . S
H2923 C2929 0.950 . S
H2924 C2930 0.960 . S
C2925 H2920 0.950 . S
C2925 C2927 1.327 . S
C2925 C2931 1.429 . S
C2926 C2918 1.574 . S
C2926 H2921 0.949 . S
C2926 C2932 1.368 . S
C2927 C2911 1.349 . S
C2927 H2919 0.950 . S
C2927 C2925 1.327 . S
C2928 C2916 1.349 . S
C2928 H2922 0.950 . S
C2928 C2929 1.327 . S
C2929 H2923 0.950 . S
C2929 C2928 1.327 . S
C2929 C2933 1.429 . S
C2930 C2913 1.574 . S
C2930 H2924 0.960 . S
C2930 C2934 1.368 . S
C2931 C2912 1.429 . S
C2931 C2925 1.429 . S
C2931 C2932 1.523 . S
C2932 C2913 1.368 . S
C2932 C2926 1.368 . S
C2932 C2931 1.523 . S
C2933 C2917 1.448 . S
C2933 C2929 1.429 . S
C2933 C2934 1.523 . S
C2934 C2918 1.368 . S
C2934 C2930 1.368 . S
C2934 C2933 1.523 . S
H2935 C2910 0.950 . S
H2936 C2912 0.950 . S
H2937 C2913 0.949 . S
H2938 C2915 0.954 . S
H2939 C2917 0.902 1_455 S
C2940 C2941 1.349 . S
C2940 C2942 1.327 . S
C2940 H2965 0.950 . S
C2941 C2940 1.349 . S
C2941 C2957 1.349 . S
C2942 C2940 1.327 . S
C2942 C2961 1.429 . S
C2942 H2966 0.950 . S
C2943 C2960 1.574 . S
C2943 C2962 1.368 . S
C2943 H2967 0.949 . S
H2944 C2948 0.949 . S
C2945 C2946 1.349 . S
C2945 C2947 1.327 . S
C2945 H2968 0.950 . S
C2946 C2945 1.349 . S
C2946 C2958 1.349 . S
C2947 C2945 1.327 . S
C2947 C2963 1.429 . S
C2947 H2969 0.950 . S
C2948 H2944 0.949 . S
C2948 C2956 1.574 . S
C2948 C2964 1.368 . S
H2949 C2957 0.950 . S
H2950 C2955 0.950 . S
H2951 C2956 0.949 . S
H2952 C2958 0.950 . S
H2953 C2959 0.950 . S
H2954 C2960 0.949 . S
C2955 H2950 0.950 . S
C2955 C2957 1.327 . S
C2955 C2961 1.429 . S
C2956 C2948 1.574 . S
C2956 H2951 0.949 . S
C2956 C2962 1.368 . S
C2957 C2941 1.349 . S
C2957 H2949 0.950 . S
C2957 C2955 1.327 . S
C2958 C2946 1.349 . S
C2958 H2952 0.950 . S
C2958 C2959 1.327 . S
C2959 H2953 0.950 . S
C2959 C2958 1.327 . S
C2959 C2963 1.429 . S
C2960 C2943 1.574 . S
C2960 H2954 0.949 . S
C2960 C2964 1.368 . S
C2961 C2942 1.429 . S
C2961 C2955 1.429 . S
C2961 C2962 1.523 . S
C2962 C2943 1.368 . S
C2962 C2956 1.368 . S
C2962 C2961 1.523 . S
C2963 C2947 1.429 . S
C2963 C2959 1.429 . S
C2963 C2964 1.523 . S
C2964 C2948 1.368 . S
C2964 C2960 1.368 . S
C2964 C2963 1.523 . S
H2965 C2940 0.950 . S
H2966 C2942 0.950 . S
H2967 C2943 0.949 . S
H2968 C2945 0.950 . S
H2969 C2947 0.950 . S
C2970 C2971 1.349 . S
C2970 C2972 1.327 . S
C2970 H2995 0.950 . S
C2971 C2970 1.349 . S
C2971 C2987 1.349 . S
C2972 C2970 1.327 . S
C2972 C2991 1.429 . S
C2972 H2996 0.950 . S
C2973 C2990 1.574 . S
C2973 C2992 1.368 . S
C2973 H2997 0.949 . S
H2974 C2978 0.949 . S
C2975 C2976 1.349 . S
C2975 C2977 1.327 . S
C2975 H2998 0.950 . S
C2976 C2975 1.349 . S
C2976 C2988 1.349 . S
C2977 C2975 1.327 . S
C2977 C2993 1.429 . S
C2977 H2999 0.950 . S
C2978 H2974 0.949 . S
C2978 C2986 1.574 . S
C2978 C2994 1.368 . S
H2979 C2987 0.950 . S
H2980 C2985 0.950 . S
H2981 C2986 0.949 . S
H2982 C2988 0.950 . S
H2983 C2989 0.950 . S
H2984 C2990 0.949 . S
C2985 H2980 0.950 . S
C2985 C2987 1.327 . S
C2985 C2991 1.429 . S
C2986 C2978 1.574 . S
C2986 H2981 0.949 . S
C2986 C2992 1.368 . S
C2987 C2971 1.349 . S
C2987 H2979 0.950 . S
C2987 C2985 1.327 . S
C2988 C2976 1.349 . S
C2988 H2982 0.950 . S
C2988 C2989 1.327 . S
C2989 H2983 0.950 . S
C2989 C2988 1.327 . S
C2989 C2993 1.429 . S
C2990 C2973 1.574 . S
C2990 H2984 0.949 . S
C2990 C2994 1.368 . S
C2991 C2972 1.429 . S
C2991 C2985 1.429 . S
C2991 C2992 1.523 . S
C2992 C2973 1.368 . S
C2992 C2986 1.368 . S
C2992 C2991 1.523 . S
C2993 C2977 1.429 . S
C2993 C2989 1.429 . S
C2993 C2994 1.523 . S
C2994 C2978 1.368 . S
C2994 C2990 1.368 . S
C2994 C2993 1.523 . S
H2995 C2970 0.950 . S
H2996 C2972 0.950 . S
H2997 C2973 0.949 . S
H2998 C2975 0.950 . S
H2999 C2977 0.950 . S
C3000 C3001 1.349 . S
C3000 C3002 1.327 . S
C3000 H3025 0.950 . S
C3001 C3000 1.349 . S
C3001 C3017 1.349 . S
C3002 C3000 1.327 . S
C3002 C3021 1.429 . S
C3002 H3026 0.950 . S
C3003 C3020 1.574 . S
C3003 C3022 1.368 . S
C3003 H3027 0.949 . S
H3004 C3008 0.949 . S
C3005 C3006 1.349 . S
C3005 C3007 1.327 . S
C3005 H3028 0.950 . S
C3006 C3005 1.349 . S
C3006 C3018 1.349 . S
C3007 C3005 1.327 . S
C3007 C3023 1.429 . S
C3007 H3029 0.950 . S
C3008 H3004 0.949 . S
C3008 C3016 1.574 . S
C3008 C3024 1.368 . S
H3009 C3017 0.950 . S
H3010 C3015 0.950 . S
H3011 C3016 0.949 . S
H3012 C3018 0.950 . S
H3013 C3019 0.950 . S
H3014 C3020 0.949 . S
C3015 H3010 0.950 . S
C3015 C3017 1.327 . S
C3015 C3021 1.429 . S
C3016 C3008 1.574 . S
C3016 H3011 0.949 . S
C3016 C3022 1.368 . S
C3017 C3001 1.349 . S
C3017 H3009 0.950 . S
C3017 C3015 1.327 . S
C3018 C3006 1.349 . S
C3018 H3012 0.950 . S
C3018 C3019 1.327 . S
C3019 H3013 0.950 . S
C3019 C3018 1.327 . S
C3019 C3023 1.429 . S
C3020 C3003 1.574 . S
C3020 H3014 0.949 . S
C3020 C3024 1.368 . S
C3021 C3002 1.429 . S
C3021 C3015 1.429 . S
C3021 C3022 1.523 . S
C3022 C3003 1.368 . S
C3022 C3016 1.368 . S
C3022 C3021 1.523 . S
C3023 C3007 1.429 . S
C3023 C3019 1.429 . S
C3023 C3024 1.523 . S
C3024 C3008 1.368 . S
C3024 C3020 1.368 . S
C3024 C3023 1.523 . S
H3025 C3000 0.950 . S
H3026 C3002 0.950 . S
H3027 C3003 0.949 . S
H3028 C3005 0.950 . S
H3029 C3007 0.950 . S
C3030 C3031 1.349 . S
C3030 C3032 1.327 . S
C3030 H3055 0.950 . S
C3031 C3030 1.349 . S
C3031 C3047 1.349 . S
C3032 C3030 1.327 . S
C3032 C3051 1.429 . S
C3032 H3056 0.950 . S
C3033 C3050 1.574 . S
C3033 C3052 1.368 . S
C3033 H3057 0.949 . S
H3034 C3038 0.949 . S
C3035 C3036 1.349 . S
C3035 C3037 1.327 . S
C3035 H3058 0.950 . S
C3036 C3035 1.349 . S
C3036 C3048 1.349 . S
C3037 C3035 1.327 . S
C3037 C3053 1.429 . S
C3037 H3059 0.950 . S
C3038 H3034 0.949 . S
C3038 C3046 1.574 . S
C3038 C3054 1.368 . S
H3039 C3047 0.950 . S
H3040 C3045 0.950 . S
H3041 C3046 0.949 . S
H3042 C3048 0.950 . S
H3043 C3049 0.950 . S
H3044 C3050 0.949 . S
C3045 H3040 0.950 . S
C3045 C3047 1.327 . S
C3045 C3051 1.429 . S
C3046 C3038 1.574 . S
C3046 H3041 0.949 . S
C3046 C3052 1.368 . S
C3047 C3031 1.349 . S
C3047 H3039 0.950 . S
C3047 C3045 1.327 . S
C3048 C3036 1.349 . S
C3048 H3042 0.950 . S
C3048 C3049 1.327 . S
C3049 H3043 0.950 . S
C3049 C3048 1.327 . S
C3049 C3053 1.429 . S
C3050 C3033 1.574 . S
C3050 H3044 0.949 . S
C3050 C3054 1.368 . S
C3051 C3032 1.429 . S
C3051 C3045 1.429 . S
C3051 C3052 1.523 . S
C3052 C3033 1.368 . S
C3052 C3046 1.368 . S
C3052 C3051 1.523 . S
C3053 C3037 1.429 . S
C3053 C3049 1.429 . S
C3053 C3054 1.523 . S
C3054 C3038 1.368 . S
C3054 C3050 1.368 . S
C3054 C3053 1.523 . S
H3055 C3030 0.950 . S
H3056 C3032 0.950 . S
H3057 C3033 0.949 . S
H3058 C3035 0.950 . S
H3059 C3037 0.950 . S
C3060 C3061 1.349 . S
C3060 C3062 1.327 . S
C3060 H3085 0.950 . S
C3061 C3060 1.349 . S
C3061 C3077 1.349 . S
C3062 C3060 1.327 . S
C3062 C3081 1.429 . S
C3062 H3086 0.950 . S
C3063 C3080 1.574 . S
C3063 C3082 1.368 . S
C3063 H3087 0.949 . S
H3064 C3068 0.949 . S
C3065 C3066 1.349 . S
C3065 C3067 1.327 . S
C3065 H3088 0.950 . S
C3066 C3065 1.349 . S
C3066 C3078 1.349 . S
C3067 C3065 1.327 . S
C3067 C3083 1.429 . S
C3067 H3089 0.950 . S
C3068 H3064 0.949 . S
C3068 C3076 1.574 . S
C3068 C3084 1.368 . S
H3069 C3077 0.950 . S
H3070 C3075 0.950 . S
H3071 C3076 0.949 . S
H3072 C3078 0.950 . S
H3073 C3079 0.950 . S
H3074 C3080 0.949 . S
C3075 H3070 0.950 . S
C3075 C3077 1.327 . S
C3075 C3081 1.429 . S
C3076 C3068 1.574 . S
C3076 H3071 0.949 . S
C3076 C3082 1.368 . S
C3077 C3061 1.349 . S
C3077 H3069 0.950 . S
C3077 C3075 1.327 . S
C3078 C3066 1.349 . S
C3078 H3072 0.950 . S
C3078 C3079 1.327 . S
C3079 H3073 0.950 . S
C3079 C3078 1.327 . S
C3079 C3083 1.429 . S
C3080 C3063 1.574 . S
C3080 H3074 0.949 . S
C3080 C3084 1.368 . S
C3081 C3062 1.429 . S
C3081 C3075 1.429 . S
C3081 C3082 1.523 . S
C3082 C3063 1.368 . S
C3082 C3076 1.368 . S
C3082 C3081 1.523 . S
C3083 C3067 1.429 . S
C3083 C3079 1.429 . S
C3083 C3084 1.523 . S
C3084 C3068 1.368 . S
C3084 C3080 1.368 . S
C3084 C3083 1.523 . S
H3085 C3060 0.950 . S
H3086 C3062 0.950 . S
H3087 C3063 0.949 . S
H3088 C3065 0.950 . S
H3089 C3067 0.950 . S
C3090 C3091 1.349 . S
C3090 C3092 1.327 . S
C3090 H3115 0.950 . S
C3091 C3090 1.349 . S
C3091 C3107 1.349 . S
C3092 C3090 1.327 . S
C3092 C3111 1.429 . S
C3092 H3116 0.950 . S
C3093 C3110 1.574 . S
C3093 C3112 1.368 . S
C3093 H3117 0.949 . S
H3094 C3098 0.949 . S
C3095 C3096 1.349 . S
C3095 C3097 1.327 . S
C3095 H3118 0.950 . S
C3096 C3095 1.349 . S
C3096 C3108 1.349 . S
C3097 C3095 1.327 . S
C3097 C3113 1.429 . S
C3097 H3119 0.950 . S
C3098 H3094 0.949 . S
C3098 C3106 1.574 . S
C3098 C3114 1.368 . S
H3099 C3107 0.950 . S
H3100 C3105 0.950 . S
H3101 C3106 0.949 . S
H3102 C3108 0.950 . S
H3103 C3109 0.950 . S
H3104 C3110 0.949 . S
C3105 H3100 0.950 . S
C3105 C3107 1.327 . S
C3105 C3111 1.429 . S
C3106 C3098 1.574 . S
C3106 H3101 0.949 . S
C3106 C3112 1.368 . S
C3107 C3091 1.349 . S
C3107 H3099 0.950 . S
C3107 C3105 1.327 . S
C3108 C3096 1.349 . S
C3108 H3102 0.950 . S
C3108 C3109 1.327 . S
C3109 H3103 0.950 . S
C3109 C3108 1.327 . S
C3109 C3113 1.429 . S
C3110 C3093 1.574 . S
C3110 H3104 0.949 . S
C3110 C3114 1.368 . S
C3111 C3092 1.429 . S
C3111 C3105 1.429 . S
C3111 C3112 1.523 . S
C3112 C3093 1.368 . S
C3112 C3106 1.368 . S
C3112 C3111 1.523 . S
C3113 C3097 1.429 . S
C3113 C3109 1.429 . S
C3113 C3114 1.523 . S
C3114 C3098 1.368 . S
C3114 C3110 1.368 . S
C3114 C3113 1.523 . S
H3115 C3090 0.950 . S
H3116 C3092 0.950 . S
H3117 C3093 0.949 . S
H3118 C3095 0.950 . S
H3119 C3097 0.950 . S
C3120 C3121 1.349 . S
C3120 C3122 1.327 . S
C3120 H3145 0.950 . S
C3121 C3120 1.349 . S
C3121 C3137 1.349 . S
C3122 C3120 1.327 . S
C3122 C3141 1.429 . S
C3122 H3146 0.950 . S
C3123 C3140 1.574 . S
C3123 C3142 1.368 . S
C3123 H3147 0.949 . S
H3124 C3128 0.949 . S
C3125 C3126 1.349 . S
C3125 C3127 1.327 . S
C3125 H3148 0.950 . S
C3126 C3125 1.349 . S
C3126 C3138 1.349 . S
C3127 C3125 1.327 . S
C3127 C3143 1.429 . S
C3127 H3149 0.950 . S
C3128 H3124 0.949 . S
C3128 C3136 1.574 . S
C3128 C3144 1.368 . S
H3129 C3137 0.950 . S
H3130 C3135 0.950 . S
H3131 C3136 0.949 . S
H3132 C3138 0.950 . S
H3133 C3139 0.950 . S
H3134 C3140 0.949 . S
C3135 H3130 0.950 . S
C3135 C3137 1.327 . S
C3135 C3141 1.429 . S
C3136 C3128 1.574 . S
C3136 H3131 0.949 . S
C3136 C3142 1.368 . S
C3137 C3121 1.349 . S
C3137 H3129 0.950 . S
C3137 C3135 1.327 . S
C3138 C3126 1.349 . S
C3138 H3132 0.950 . S
C3138 C3139 1.327 . S
C3139 H3133 0.950 . S
C3139 C3138 1.327 . S
C3139 C3143 1.429 . S
C3140 C3123 1.574 . S
C3140 H3134 0.949 . S
C3140 C3144 1.368 . S
C3141 C3122 1.429 . S
C3141 C3135 1.429 . S
C3141 C3142 1.523 . S
C3142 C3123 1.368 . S
C3142 C3136 1.368 . S
C3142 C3141 1.523 . S
C3143 C3127 1.429 . S
C3143 C3139 1.429 . S
C3143 C3144 1.523 . S
C3144 C3128 1.368 . S
C3144 C3140 1.368 . S
C3144 C3143 1.523 . S
H3145 C3120 0.950 . S
H3146 C3122 0.950 . S
H3147 C3123 0.949 . S
H3148 C3125 0.950 . S
H3149 C3127 0.950 . S
C3150 C3151 1.348 . S
C3150 C3152 1.327 1_655 S
C3150 H3175 0.950 1_655 S
C3151 C3150 1.348 . S
C3151 C3167 1.349 . S
C3152 C3150 1.327 1_455 S
C3152 C3171 1.429 1_455 S
C3152 H3176 0.950 . S
C3153 C3170 1.574 . S
C3153 C3172 1.368 . S
C3153 H3177 0.949 . S
H3154 C3158 0.949 . S
C3155 C3156 1.349 . S
C3155 C3157 1.327 . S
C3155 H3178 0.950 . S
C3156 C3155 1.349 . S
C3156 C3168 1.349 1_655 S
C3157 C3155 1.327 . S
C3157 C3173 1.429 . S
C3157 H3179 0.950 . S
C3158 H3154 0.949 . S
C3158 C3166 1.574 . S
C3158 C3174 1.368 1_455 S
H3159 C3167 0.950 . S
H3160 C3165 0.950 . S
H3161 C3166 0.949 . S
H3162 C3168 0.950 . S
H3163 C3169 0.950 . S
H3164 C3170 0.949 . S
C3165 H3160 0.950 . S
C3165 C3167 1.327 . S
C3165 C3171 1.429 . S
C3166 C3158 1.574 . S
C3166 H3161 0.949 . S
C3166 C3172 1.368 1_455 S
C3167 C3151 1.349 . S
C3167 H3159 0.950 . S
C3167 C3165 1.327 . S
C3168 C3156 1.349 1_455 S
C3168 H3162 0.950 . S
C3168 C3169 1.327 . S
C3169 H3163 0.950 . S
C3169 C3168 1.327 . S
C3169 C3173 1.429 1_455 S
C3170 C3153 1.574 . S
C3170 H3164 0.949 . S
C3170 C3174 1.368 . S
C3171 C3152 1.429 1_655 S
C3171 C3165 1.429 . S
C3171 C3172 1.523 . S
C3172 C3153 1.368 . S
C3172 C3166 1.368 1_655 S
C3172 C3171 1.523 . S
C3173 C3157 1.429 . S
C3173 C3169 1.429 1_655 S
C3173 C3174 1.523 . S
C3174 C3158 1.368 1_655 S
C3174 C3170 1.368 . S
C3174 C3173 1.523 . S
H3175 C3150 0.950 1_455 S
H3176 C3152 0.950 . S
H3177 C3153 0.949 . S
H3178 C3155 0.950 . S
H3179 C3157 0.950 . S
C3180 C3181 1.349 . S
C3180 C3182 1.327 . S
C3180 H3205 0.950 . S
C3181 C3180 1.349 . S
C3181 C3197 1.349 . S
C3182 C3180 1.327 . S
C3182 C3201 1.429 . S
C3182 H3206 0.950 . S
C3183 C3200 1.574 . S
C3183 C3202 1.368 . S
C3183 H3207 0.949 . S
H3184 C3188 0.949 . S
C3185 C3186 1.349 . S
C3185 C3187 1.327 . S
C3185 H3208 0.950 . S
C3186 C3185 1.349 . S
C3186 C3198 1.349 . S
C3187 C3185 1.327 . S
C3187 C3203 1.429 . S
C3187 H3209 0.950 . S
C3188 H3184 0.949 . S
C3188 C3196 1.574 . S
C3188 C3204 1.368 . S
H3189 C3197 0.950 . S
H3190 C3195 0.950 . S
H3191 C3196 0.949 . S
H3192 C3198 0.950 . S
H3193 C3199 0.950 . S
H3194 C3200 0.949 . S
C3195 H3190 0.950 . S
C3195 C3197 1.327 . S
C3195 C3201 1.429 . S
C3196 C3188 1.574 . S
C3196 H3191 0.949 . S
C3196 C3202 1.368 . S
C3197 C3181 1.349 . S
C3197 H3189 0.950 . S
C3197 C3195 1.327 . S
C3198 C3186 1.349 . S
C3198 H3192 0.950 . S
C3198 C3199 1.327 . S
C3199 H3193 0.950 . S
C3199 C3198 1.327 . S
C3199 C3203 1.429 . S
C3200 C3183 1.574 . S
C3200 H3194 0.949 . S
C3200 C3204 1.368 . S
C3201 C3182 1.429 . S
C3201 C3195 1.429 . S
C3201 C3202 1.523 . S
C3202 C3183 1.368 . S
C3202 C3196 1.368 . S
C3202 C3201 1.523 . S
C3203 C3187 1.429 . S
C3203 C3199 1.429 . S
C3203 C3204 1.523 . S
C3204 C3188 1.368 . S
C3204 C3200 1.368 . S
C3204 C3203 1.523 . S
H3205 C3180 0.950 . S
H3206 C3182 0.950 . S
H3207 C3183 0.949 . S
H3208 C3185 0.950 . S
H3209 C3187 0.950 . S
C3210 C3211 1.349 . S
C3210 C3212 1.327 . S
C3210 H3235 0.950 . S
C3211 C3210 1.349 . S
C3211 C3227 1.349 . S
C3212 C3210 1.327 . S
C3212 C3231 1.429 . S
C3212 H3236 0.950 . S
C3213 C3230 1.574 . S
C3213 C3232 1.368 1_565 S
C3213 H3237 0.949 . S
H3214 C3218 0.949 . S
C3215 C3216 1.349 1_565 S
C3215 C3217 1.327 . S
C3215 H3238 0.950 . S
C3216 C3215 1.349 1_545 S
C3216 C3228 1.349 . S
C3217 C3215 1.327 . S
C3217 C3233 1.429 1_565 S
C3217 H3239 0.950 . S
C3218 H3214 0.949 . S
C3218 C3226 1.574 . S
C3218 C3234 1.368 . S
H3219 C3227 0.950 1_565 S
H3220 C3225 0.901 1_565 S
H3221 C3226 0.949 . S
H3222 C3228 0.950 . S
H3223 C3229 0.950 . S
H3224 C3230 0.949 . S
C3225 H3220 0.901 1_545 S
C3225 C3227 1.306 . S
C3225 C3231 1.501 . S
C3226 C3218 1.574 . S
C3226 H3221 0.949 . S
C3226 C3232 1.368 . S
C3227 C3211 1.349 . S
C3227 H3219 0.950 1_545 S
C3227 C3225 1.306 . S
C3228 C3216 1.349 . S
C3228 H3222 0.950 . S
C3228 C3229 1.327 . S
C3229 H3223 0.950 . S
C3229 C3228 1.327 . S
C3229 C3233 1.429 . S
C3230 C3213 1.574 . S
C3230 H3224 0.949 . S
C3230 C3234 1.368 1_565 S
C3231 C3212 1.429 . S
C3231 C3225 1.501 . S
C3231 C3232 1.523 . S
C3232 C3213 1.368 1_545 S
C3232 C3226 1.368 . S
C3232 C3231 1.523 . S
C3233 C3217 1.429 1_545 S
C3233 C3229 1.429 . S
C3233 C3234 1.523 . S
C3234 C3218 1.368 . S
C3234 C3230 1.368 1_545 S
C3234 C3233 1.523 . S
H3235 C3210 0.950 . S
H3236 C3212 0.950 . S
H3237 C3213 0.949 . S
H3238 C3215 0.950 . S
H3239 C3217 0.950 . S
C1081 C4 1.386 . S
C1086 C688 1.398 . S
C1111 C26 1.529 . S
C1116 C734 1.522 . S
C1146 C766 1.370 . S
C1141 C32 1.330 . S
C1171 C40 1.352 . S
C1176 C819 1.373 . S
C1201 C12 1.411 . S
C1206 C865 1.438 . S
C1231 C18 1.444 . S
C1236 C904 1.488 . S
C1261 C46 1.365 . S
C1266 C858 1.404 . S
C1296 C911 1.524 . S
C1291 C68 1.523 . S
C1326 C812 1.389 . S
C1321 C74 1.345 . S
C1351 C82 1.343 . S
C1356 C773 1.362 . S
C1386 C667 1.448 . S
C1381 C54 1.430 . S
C1411 C60 1.440 . S
C1416 C713 1.476 . S
C1441 C88 1.594 . S
C1446 C943 1.636 . S
C1471 C110 1.613 . S
C1476 C1010 1.596 . S
C1506 C1056 1.574 . S
C1501 C116 1.539 . S
C1531 C124 1.441 . S
C1536 C267 1.435 . S
C1561 C96 1.536 . S
C1566 C313 1.530 . S
C1591 C102 1.495 . S
C1596 C359 1.520 . S
C1621 C130 1.485 . S
C1626 C306 1.513 . S
C1651 C152 1.602 . S
C1656 C352 1.588 . S
C1686 C260 1.576 . S
C1681 C158 1.543 . S
C1716 C1035 1.537 . S
C1711 C166 1.546 . S
C1746 C964 1.511 . S
C1741 C138 1.512 . S
C1776 C989 1.570 . S
C1771 C144 1.539 . S
C1801 C172 1.495 . S
C1806 C391 1.533 . S
C1831 C194 1.596 . S
C1836 C444 1.591 . S
C1861 C200 1.548 . S
C1866 C490 1.590 . S
C1891 C208 1.532 . S
C1896 C536 1.533 . S
C1926 C589 1.517 . S
C1921 C180 1.525 . S
C1956 C635 1.558 . S
C1951 C186 1.526 . S
C1986 C582 1.635 . S
C1981 C214 1.601 . S
C2016 C628 1.595 . S
C2011 C236 1.612 . S
C2041 C242 1.520 . S
C2046 C543 1.566 . S
C2076 C497 1.434 . S
C2071 C250 1.434 . S
C2101 C222 1.542 . S
C2106 C412 1.543 . S
C2136 C451 1.540 . S
C2131 C228 1.505 . S
C2166 C274 1.489 . S
C2161 C5 1.297 . S
C2191 C25 1.381 . S
C2196 C320 1.370 . S
C2226 C366 1.515 . S
C2221 C33 1.326 . S
C2256 C398 1.367 . S
C2251 C39 1.363 . S
C2286 C437 1.433 . S
C2281 C11 1.450 . S
C2316 C483 1.366 . S
C2311 C19 1.198 . S
C2341 C47 1.317 1_556 S
C2346 C504 1.511 . S
C2371 C67 1.378 . S
C2376 C405 1.357 . S
C2401 C75 1.323 1_556 S
C2406 C458 1.500 . S
C2431 C81 1.385 . S
C2436 C299 1.389 . S
C2466 C345 1.420 . S
C2461 C53 1.423 . S
C2491 C61 1.171 . S
C2496 C253 1.367 . S
C2526 C529 1.412 . S
C2521 C89 1.217 . S
C2551 C109 1.507 . S
C2556 C596 1.500 . S
C2581 C117 1.297 . S
C2586 C642 1.508 . S
C2616 C681 1.164 . S
C2611 C123 1.142 . S
C2641 C95 1.367 . S
C2646 C727 1.363 . S
C2671 C103 1.045 . S
C2676 C759 1.192 . S
C2701 C131 1.041 . S
C2706 C780 1.181 . S
C2731 C151 1.174 . S
C2736 C674 1.189 . S
C2766 C720 1.401 . S
C2761 C159 1.203 . S
C2791 C165 1.350 . S
C2796 C575 1.346 . S
C2821 C137 1.480 . S
C2826 C621 1.472 . S
C2856 C550 1.480 . S
C2851 C145 1.279 . S
C2886 C826 1.208 . S
C2881 C173 1.055 . S
C2911 C193 1.154 . S
C2916 C872 1.171 . S
C2941 C201 1.195 . S
C2946 C897 1.382 . S
C2976 C950 1.321 . S
C2971 C207 1.334 . S
C3006 C1003 1.492 . S
C3001 C179 1.500 . S
C3031 C187 1.284 . S
C3036 C1049 1.496 . S
C3061 C215 1.235 . S
C3066 C1042 1.446 . S
C3091 C235 1.502 . S
C3096 C957 1.484 . S
C3126 C996 1.501 . S
C3121 C243 1.291 . S
C3156 C851 1.142 . S
C3151 C249 1.120 . S
C3186 C918 1.363 . S
C3181 C221 1.376 . S
C3211 C229 1.049 . S
C3216 C805 1.199 . S
