# Generated by pormake.
# Topology zzz, (3,6)-cn, num edge types: 1
# Building blocks:
#     Node 0, Type 0, BuildingBlock: BETDAH_clean_linker_0, # of connection points: 3
#     Node 1, Type 0, BuildingBlock: BETDAH_clean_linker_0, # of connection points: 3
#     Node 2, Type 0, BuildingBlock: BETDAH_clean_linker_0, # of connection points: 3
#     Node 3, Type 0, BuildingBlock: BETDAH_clean_linker_0, # of connection points: 3
#     Node 4, Type 0, BuildingBlock: BETDAH_clean_linker_0, # of connection points: 3
#     Node 5, Type 0, BuildingBlock: BETDAH_clean_linker_0, # of connection points: 3
#     Node 6, Type 0, BuildingBlock: BETDAH_clean_linker_0, # of connection points: 3
#     Node 7, Type 0, BuildingBlock: BETDAH_clean_linker_0, # of connection points: 3
#     Node 8, Type 1, BuildingBlock: BETDIP_clean_sbu_0, # of connection points: 6
#     Node 9, Type 1, BuildingBlock: BETDIP_clean_sbu_0, # of connection points: 6
#     Node 10, Type 1, BuildingBlock: BETDIP_clean_sbu_0, # of connection points: 6
#     Node 11, Type 1, BuildingBlock: BETDIP_clean_sbu_0, # of connection points: 6
#     Edge 12, Type (0, 1), BuildingBlock: CIFDUS_clean_linker_0, # of connection points: 2
#     Edge 13, Type (0, 1), BuildingBlock: CIFDUS_clean_linker_0, # of connection points: 2
#     Edge 14, Type (0, 1), BuildingBlock: CIFDUS_clean_linker_0, # of connection points: 2
#     Edge 15, Type (0, 1), BuildingBlock: CIFDUS_clean_linker_0, # of connection points: 2
#     Edge 16, Type (0, 1), BuildingBlock: CIFDUS_clean_linker_0, # of connection points: 2
#     Edge 17, Type (0, 1), BuildingBlock: CIFDUS_clean_linker_0, # of connection points: 2
#     Edge 18, Type (0, 1), BuildingBlock: CIFDUS_clean_linker_0, # of connection points: 2
#     Edge 19, Type (0, 1), BuildingBlock: CIFDUS_clean_linker_0, # of connection points: 2
#     Edge 20, Type (0, 1), BuildingBlock: CIFDUS_clean_linker_0, # of connection points: 2
#     Edge 21, Type (0, 1), BuildingBlock: CIFDUS_clean_linker_0, # of connection points: 2
#     Edge 22, Type (0, 1), BuildingBlock: CIFDUS_clean_linker_0, # of connection points: 2
#     Edge 23, Type (0, 1), BuildingBlock: CIFDUS_clean_linker_0, # of connection points: 2
#     Edge 24, Type (0, 1), BuildingBlock: CIFDUS_clean_linker_0, # of connection points: 2
#     Edge 25, Type (0, 1), BuildingBlock: CIFDUS_clean_linker_0, # of connection points: 2
#     Edge 26, Type (0, 1), BuildingBlock: CIFDUS_clean_linker_0, # of connection points: 2
#     Edge 27, Type (0, 1), BuildingBlock: CIFDUS_clean_linker_0, # of connection points: 2
#     Edge 28, Type (0, 1), BuildingBlock: CIFDUS_clean_linker_0, # of connection points: 2
#     Edge 29, Type (0, 1), BuildingBlock: CIFDUS_clean_linker_0, # of connection points: 2
#     Edge 30, Type (0, 1), BuildingBlock: CIFDUS_clean_linker_0, # of connection points: 2
#     Edge 31, Type (0, 1), BuildingBlock: CIFDUS_clean_linker_0, # of connection points: 2
#     Edge 32, Type (0, 1), BuildingBlock: CIFDUS_clean_linker_0, # of connection points: 2
#     Edge 33, Type (0, 1), BuildingBlock: CIFDUS_clean_linker_0, # of connection points: 2
#     Edge 34, Type (0, 1), BuildingBlock: CIFDUS_clean_linker_0, # of connection points: 2
#     Edge 35, Type (0, 1), BuildingBlock: CIFDUS_clean_linker_0, # of connection points: 2
# Relax obj value: 0.302
# Max RMSD: 0.177
# Mean RMSD: 0.149
data_MOF--net-zzz--node1-BETDIP_clean_sbu_0--node2-BETDAH_clean_linker_0--edge1-CIFDUS_clean_linker_0
_symmetry_space_group_name_H-M    P1
_symmetry_Int_Tables_number       1
_symmetry_cell_setting            triclinic
loop_
_symmetry_equiv_pos_as_xyz
'x, y, z'
_cell_length_a     45.44313
_cell_length_b     45.360709
_cell_length_c     11.99563
_cell_angle_alpha  89.366057
_cell_angle_beta   89.780576
_cell_angle_gamma 89.977397
loop_
_atom_site_label
_atom_site_type_symbol
_atom_site_fract_x
_atom_site_fract_y
_atom_site_fract_z
_atom_type_partial_charge
H0 H 0.82524 0.47143 0.46236 0.0
H1 H 0.73885 0.48465 0.32806 0.0
H2 H 0.77306 0.54407 0.57585 0.0
C3 C 0.80447 0.48328 0.46305 0.0
C4 C 0.80208 0.50856 0.52764 0.0
C5 C 0.78193 0.47454 0.3913 0.0
C6 C 0.75579 0.49093 0.38646 0.0
C7 C 0.75196 0.51566 0.45553 0.0
C8 C 0.7753 0.52437 0.52634 0.0
N9 N 0.72552 0.53271 0.45244 0.0
C10 C 0.70383 0.53052 0.37023 0.0
H11 H 0.98132 0.82376 0.31979 0.0
H12 H 0.9929 0.73239 0.25935 0.0
H13 H 0.02975 0.77054 0.55611 0.0
C14 C 0.98842 0.80259 0.35207 0.0
C15 C 1.00451 0.80105 0.45202 0.0
C16 C 0.98364 0.77787 0.28497 0.0
C17 C 0.99575 0.7508 0.31493 0.0
C18 C 1.01276 0.7479 0.41169 0.0
C19 C 1.01674 0.77298 0.48123 0.0
N20 N 0.02683 0.72035 0.43703 0.0
C21 C 0.02733 0.69606 0.36469 0.0
H22 H 0.7217 0.0645 0.39884 0.0
H23 H 0.80562 0.05283 0.23965 0.0
H24 H 0.77851 0.99449 0.50803 0.0
C25 C 0.74295 0.0536 0.39575 0.0
C26 C 0.74776 0.02921 0.46545 0.0
C27 C 0.76342 0.06196 0.31336 0.0
C28 C 0.79014 0.04662 0.30464 0.0
C29 C 0.79621 0.0227 0.377 0.0
C30 C 0.77457 1.0137 0.45569 0.0
N31 N 0.82316 1.00661 0.36976 0.0
C32 C 0.84608 1.01275 0.2946 0.0
H33 H 0.49289 0.71709 0.40633 0.0
H34 H 0.5081 0.80486 0.28229 0.0
H35 H 0.56006 0.77008 0.55512 0.0
C36 C 0.50421 0.73807 0.41301 0.0
C37 C 0.52687 0.74077 0.49049 0.0
C38 C 0.4975 0.76094 0.33776 0.0
C39 C 0.51316 0.78749 0.34187 0.0
C40 C 0.53534 0.79133 0.42242 0.0
C41 C 0.5424 0.76764 0.49554 0.0
N42 N 0.55109 0.81842 0.43056 0.0
C43 C 0.54985 0.84124 0.35137 0.0
H44 H 0.22792 0.56532 0.17322 0.0
H45 H 0.31171 0.54811 0.32293 0.0
H46 H 0.27179 0.48335 0.10897 0.0
C47 C 0.2472 0.55132 0.18088 0.0
C48 C 0.24702 0.52368 0.13042 0.0
C49 C 0.2703 0.5602 0.24995 0.0
C50 C 0.29432 0.54137 0.26726 0.0
C51 C 0.29543 0.51377 0.21443 0.0
C52 C 0.27146 0.50488 0.14712 0.0
N53 N 0.31994 0.49442 0.22927 0.0
C54 C 0.3421 0.49817 0.30876 0.0
H55 H 0.97683 0.22577 0.15957 0.0
H56 H 0.98999 0.31288 0.28398 0.0
H57 H 0.04456 0.28043 0.01523 0.0
C58 C 0.98813 0.24682 0.1537 0.0
C59 C 1.01131 0.25 0.07748 0.0
C60 C 0.98038 0.26939 0.22733 0.0
C61 C 0.99581 0.29602 0.22463 0.0
C62 C 1.01887 0.3006 0.14776 0.0
C63 C 0.02642 0.27744 0.07308 0.0
N64 N 0.03509 0.32776 0.14726 0.0
C65 C 0.03235 0.34957 0.22944 0.0
H66 H 0.32835 0.97565 0.15642 0.0
H67 H 0.24314 0.98969 0.30312 0.0
H68 H 0.27605 0.04893 0.04724 0.0
C69 C 0.3075 0.9873 0.15742 0.0
C70 C 0.3046 1.0124 0.09 0.0
C71 C 0.28579 0.97918 0.23565 0.0
C72 C 0.25965 0.99566 0.24157 0.0
C73 C 0.25556 1.0205 0.17157 0.0
C74 C 0.27846 0.0291 0.09753 0.0
N75 N 0.22942 0.03795 0.17701 0.0
C76 C 0.20547 0.03268 0.24843 0.0
H77 H 0.56996 0.3195 0.20344 0.0
H78 H 0.55613 0.23044 0.31522 0.0
H79 H 0.51349 0.26287 0.01615 0.0
C80 C 0.56059 0.29783 0.18978 0.0
C81 C 0.54137 0.29405 0.10053 0.0
C82 C 0.56605 0.27509 0.26693 0.0
C83 C 0.55247 0.24765 0.2535 0.0
C84 C 0.53396 0.24277 0.16131 0.0
C85 C 0.52859 0.26611 0.08458 0.0
N86 N 0.51969 0.21513 0.14606 0.0
C87 C 0.51813 0.19281 0.2272 0.0
Tb88 Tb 0.03791 1.01594 0.84943 0.0
Tb89 Tb 1.00656 0.0366 0.66325 0.0
C90 C 0.05123 0.98276 1.00726 0.0
C91 C 0.03942 0.95261 0.01389 0.0
C92 C 1.00993 0.94777 0.98374 0.0
C93 C 1.00027 0.91981 0.95499 0.0
C94 C 1.0193 0.89549 0.9622 0.0
C95 C 0.04848 0.90017 0.99832 0.0
C96 C 0.05853 0.92852 0.02221 0.0
C97 C 0.07357 0.03659 0.69253 0.0
C98 C 1.01834 0.97015 0.66386 0.0
C99 C 0.98505 0.06363 0.499 0.0
C100 C 0.96471 0.0885 0.49171 0.0
C101 C 0.95613 0.09921 0.38732 0.0
C102 C 0.93832 0.12415 0.37947 0.0
C103 C 0.9291 0.13897 0.47623 0.0
C104 C 0.93642 0.12708 0.58116 0.0
C105 C 0.95403 0.10189 0.58882 0.0
C106 C 0.97141 1.01625 0.82446 0.0
C107 C 0.02607 0.08331 0.85206 0.0
O108 O 0.0318 1.00387 0.01752 0.0
O109 O 0.0689 0.98737 0.92263 0.0
O110 O 0.05093 1.02091 0.67632 0.0
O111 O 0.07681 0.04052 0.79865 0.0
O112 O 0.02225 0.97477 0.77097 0.0
O113 O 1.01647 0.9931 0.59597 0.0
O114 O 1.01108 0.06942 0.53962 0.0
O115 O 0.97375 0.03968 0.54198 0.0
O116 O 0.99388 0.03212 0.83612 0.0
O117 O 0.96759 1.01219 0.71951 0.0
O118 O 1.0154 0.07912 0.75032 0.0
O119 O 0.0351 0.06054 0.91239 0.0
H120 H 0.99468 0.96596 0.9742 0.0
H121 H 0.97789 0.91752 0.92587 0.0
H122 H 0.06367 0.88199 1.00907 0.0
H123 H 0.08145 0.93175 0.0435 0.0
H124 H 0.96419 0.08902 0.31188 0.0
H125 H 0.9337 0.13306 0.29722 0.0
H126 H 0.92978 0.1381 0.65686 0.0
H127 H 0.96017 0.09348 0.67035 0.0
Tb128 Tb 0.52999 0.04013 0.87417 0.0
Tb129 Tb 0.52561 0.99483 0.71305 0.0
C130 C 0.54561 0.07369 0.02804 0.0
C131 C 0.57177 0.0921 0.04279 0.0
C132 C 0.58137 0.09807 0.15047 0.0
C133 C 0.60857 0.1115 0.16717 0.0
C134 C 0.62684 0.11882 0.07584 0.0
C135 C 0.61628 0.11443 0.96729 0.0
C136 C 0.58887 0.10118 0.95087 0.0
C137 C 0.51738 0.06093 0.6723 0.0
C138 C 0.58855 1.01882 0.74308 0.0
C139 C 0.50827 0.96193 0.55958 0.0
C140 C 0.4784 0.95183 0.53181 0.0
C141 C 0.45481 0.9718 0.53165 0.0
C142 C 0.4262 0.96195 0.51533 0.0
C143 C 0.42035 0.93188 0.4985 0.0
C144 C 0.44398 0.91186 0.49743 0.0
C145 C 0.4728 0.92177 0.51479 0.0
C146 C 0.54017 0.97428 0.91218 0.0
C147 C 0.46749 1.01662 0.84234 0.0
O148 O 0.55046 0.04526 0.02921 0.0
O149 O 0.52797 0.08174 0.94775 0.0
O150 O 0.53556 0.0408 0.69606 0.0
O151 O 0.50532 0.06958 0.7639 0.0
O152 O 0.57691 0.03325 0.82835 0.0
O153 O 0.57163 1.00353 0.67588 0.0
O154 O 0.51359 0.9901 0.54549 0.0
O155 O 0.51836 0.95201 0.65447 0.0
O156 O 0.52096 0.99392 0.89243 0.0
O157 O 0.55181 0.96616 0.81888 0.0
O158 O 0.47888 1.00468 0.75161 0.0
O159 O 0.48481 0.02904 0.91584 0.0
H160 H 0.5685 0.09077 0.22153 0.0
H161 H 0.61623 0.11396 0.25195 0.0
H162 H 0.62986 0.11978 0.89545 0.0
H163 H 0.58173 0.09669 0.86668 0.0
H164 H 0.45835 0.9951 0.54484 0.0
H165 H 0.40867 0.97814 0.51322 0.0
H166 H 0.44016 0.88862 0.48356 0.0
H167 H 0.49066 0.90596 0.51609 0.0
Tb168 Tb 0.50188 0.52712 0.92423 0.0
Tb169 Tb 0.54315 0.51425 0.75419 0.0
C170 C 0.47213 0.54848 0.08102 0.0
C171 C 0.45455 0.57546 0.08946 0.0
C172 C 0.44848 0.58712 0.19434 0.0
C173 C 0.43622 0.61519 0.2031 0.0
C174 C 0.43024 0.63221 0.10685 0.0
C175 C 0.43451 0.61958 1.00162 0.0
C176 C 0.44641 0.59126 0.99307 0.0
C177 C 0.47614 0.51053 0.73661 0.0
C178 C 0.52461 0.57984 0.76715 0.0
C179 C 0.57234 0.49181 0.59769 0.0
C180 C 0.58782 0.46361 0.58647 0.0
C181 C 0.59787 0.45486 0.4817 0.0
C182 C 0.61 0.42689 0.46787 0.0
C183 C 0.61202 0.40704 0.55867 0.0
C184 C 0.60317 0.41644 0.6649 0.0
C185 C 0.59133 0.44462 0.67879 0.0
C186 C 0.56903 0.53043 0.94248 0.0
C187 C 0.52053 0.46219 0.91541 0.0
O188 O 0.50045 0.55263 0.06899 0.0
O189 O 0.4621 0.52868 0.0129 0.0
O190 O 0.498 0.52766 0.74397 0.0
O191 O 0.46833 0.50254 0.83589 0.0
O192 O 0.5125 0.57181 0.86313 0.0
O193 O 0.5355 0.55978 0.69952 0.0
O194 O 0.54369 0.49009 0.60585 0.0
O195 O 0.5834 0.50985 0.67015 0.0
O196 O 0.54701 0.51358 0.93419 0.0
O197 O 0.5771 0.53826 0.84327 0.0
O198 O 0.53093 0.46933 0.81542 0.0
O199 O 0.51211 0.48316 0.98343 0.0
H200 H 0.45477 0.5753 0.26944 0.0
H201 H 0.43374 0.62445 0.28545 0.0
H202 H 0.4302 0.63221 0.92627 0.0
H203 H 0.45072 0.58231 0.91125 0.0
H204 H 0.59532 0.46918 0.40967 0.0
H205 H 0.61603 0.42017 0.38446 0.0
H206 H 0.60443 0.40164 0.73624 0.0
H207 H 0.58407 0.45121 0.76088 0.0
Tb208 Tb 1.01946 0.50733 0.88078 0.0
Tb209 Tb 0.03458 0.5499 0.69861 0.0
C210 C 0.9965 0.4863 0.05376 0.0
C211 C 0.96989 0.4681 0.06236 0.0
C212 C 0.95678 0.46249 0.16609 0.0
C213 C 0.9283 0.45086 0.17162 0.0
C214 C 0.91252 0.44505 0.07329 0.0
C215 C 0.92668 0.44861 0.96991 0.0
C216 C 0.9552 0.45993 0.96457 0.0
C217 C 0.02548 0.47612 0.6937 0.0
C218 C 0.97055 0.52773 0.70499 0.0
C219 C 0.05789 0.57959 0.54389 0.0
C220 C 0.086 0.59547 0.53794 0.0
C221 C 0.10129 0.59696 0.43674 0.0
C222 C 0.1303 0.607 0.43364 0.0
C223 C 0.14467 0.61518 0.53242 0.0
C224 C 0.1286 0.61556 0.63263 0.0
C225 C 0.09941 0.60586 0.6353 0.0
C226 C 1.01524 0.57429 0.88575 0.0
C227 C 0.08617 0.52511 0.8578 0.0
O228 O 0.99158 0.51326 0.01785 0.0
O229 O 1.01906 0.47408 1.0039 0.0
O230 O 0.02835 0.50367 0.70521 0.0
O231 O 1.01972 0.46534 0.79125 0.0
O232 O 0.97606 0.51975 0.80963 0.0
O233 O 0.99211 0.53605 0.63775 0.0
O234 O 0.06016 0.5509 0.55259 0.0
O235 O 0.0383 0.5902 0.61252 0.0
O236 O 0.03307 0.55291 0.87825 0.0
O237 O 1.00749 0.58207 0.78608 0.0
O238 O 0.07818 0.54133 0.77033 0.0
O239 O 0.06659 0.5103 0.91839 0.0
H240 H 0.96776 0.46879 0.24224 0.0
H241 H 0.91776 0.44878 0.25249 0.0
H242 H 0.91503 0.4444 0.89308 0.0
H243 H 0.96501 0.46409 0.88355 0.0
H244 H 0.09145 0.58852 0.36148 0.0
H245 H 0.14224 0.60583 0.35547 0.0
H246 H 0.1392 0.62153 0.70993 0.0
H247 H 0.08797 0.60474 0.71465 0.0
H248 H 0.19283 0.06295 0.43444 0.0
H249 H 0.15932 0.99595 0.21776 0.0
H250 H 0.11434 0.99206 0.33139 0.0
H251 H 0.08464 1.00749 0.49572 0.0
H252 H 0.11938 0.07397 0.71311 0.0
H253 H 0.16328 0.07855 0.59634 0.0
C254 C 0.17568 0.04743 0.41268 0.0
C255 C 0.17937 0.0296 0.31864 0.0
C256 C 0.1499 0.04541 0.47842 0.0
C257 C 0.15698 1.00974 0.29046 0.0
C258 C 0.13123 1.00761 0.35523 0.0
C259 C 0.10169 0.02318 0.51663 0.0
C260 C 0.09862 0.04046 0.61311 0.0
C261 C 0.12737 0.02535 0.44964 0.0
C262 C 0.12113 0.06043 0.63952 0.0
C263 C 0.14634 0.06301 0.57288 0.0
H264 H 0.55734 0.1512 0.29392 0.0
H265 H 0.46897 0.1827 0.34564 0.0
H266 H 0.4602 0.14363 0.48452 0.0
H267 H 0.47802 0.10098 0.59444 0.0
H268 H 0.56623 0.06892 0.5421 0.0
H269 H 0.57513 0.10807 0.40455 0.0
C270 C 0.53622 0.14938 0.33589 0.0
C271 C 0.51378 0.16968 0.31029 0.0
C272 C 0.53133 0.12671 0.41551 0.0
C273 C 0.48651 0.16726 0.36458 0.0
C274 C 0.48148 0.1449 0.44371 0.0
C275 C 0.49894 0.1022 0.55078 0.0
C276 C 0.52127 0.08183 0.57737 0.0
C277 C 0.5037 0.12448 0.46985 0.0
C278 C 0.54844 0.08391 0.5215 0.0
C279 C 0.55356 0.10636 0.44269 0.0
H280 H 0.3988 0.51782 0.29481 0.0
H281 H 0.33445 0.48042 0.52003 0.0
H282 H 0.37055 0.47998 0.67086 0.0
H283 H 0.42014 0.4902 0.73933 0.0
H284 H 0.48504 0.52878 0.51913 0.0
H285 H 0.44942 0.52818 0.36536 0.0
C286 C 0.3928 0.5097 0.37719 0.0
C287 C 0.364 0.49923 0.39694 0.0
C288 C 0.41383 0.50956 0.46403 0.0
C289 C 0.35643 0.48866 0.50342 0.0
C290 C 0.3771 0.48836 0.5895 0.0
C291 C 0.4266 0.49851 0.65772 0.0
C292 C 0.45531 0.50952 0.64094 0.0
C293 C 0.40584 0.49871 0.57086 0.0
C294 C 0.46313 0.52023 0.53448 0.0
C295 C 0.44269 0.52002 0.4467 0.0
H296 H 0.03635 0.41019 0.22527 0.0
H297 H 0.02316 0.33516 0.44348 0.0
H298 H 1.01996 0.3677 0.60412 0.0
H299 H 0.02127 0.417 0.68406 0.0
H300 H 0.03447 0.4932 0.47221 0.0
H301 H 0.03725 0.46099 0.30816 0.0
C302 C 0.03273 0.40109 0.30814 0.0
C303 C 0.02998 0.37017 0.32254 0.0
C304 C 0.031 0.42019 0.40129 0.0
C305 C 0.02531 0.35873 0.43017 0.0
C306 C 0.02351 0.37738 0.52217 0.0
C307 C 0.02485 0.42672 0.60211 0.0
C308 C 0.02782 0.45762 0.59107 0.0
C309 C 0.02642 0.40807 0.50895 0.0
C310 C 0.0323 0.46959 0.4837 0.0
C311 C 0.03384 0.45109 0.38981 0.0
H312 H 0.85814 0.98264 0.10785 0.0
H313 H 0.89013 0.05251 0.31486 0.0
H314 H 0.93296 0.0591 0.19139 0.0
H315 H 0.96128 0.04514 0.02203 0.0
H316 H 0.92793 0.97596 0.81383 0.0
H317 H 0.88625 0.96862 0.94023 0.0
C318 C 0.87452 0.99933 0.12551 0.0
C319 C 0.87101 1.01719 0.21957 0.0
C320 C 0.89907 1.00293 0.05426 0.0
C321 C 0.89236 0.03863 0.24235 0.0
C322 C 0.9169 0.04231 0.17206 0.0
C323 C 0.94499 0.02832 1.00513 0.0
C324 C 0.94772 1.01111 0.90846 0.0
C325 C 0.92056 0.02457 0.07757 0.0
C326 C 0.9263 0.98956 0.88732 0.0
C327 C 0.90239 0.98537 0.95953 0.0
H328 H 0.51917 0.89281 0.34028 0.0
H329 H 0.58449 0.84072 0.17118 0.0
H330 H 0.58867 0.87838 0.02441 0.0
H331 H 0.57304 0.92524 0.94152 0.0
H332 H 0.50684 0.97772 0.10437 0.0
H333 H 0.504 0.94124 0.2572 0.0
C334 C 0.53426 0.88987 0.2711 0.0
C335 C 0.55146 0.86407 0.26566 0.0
C336 C 0.53649 0.91175 0.18652 0.0
C337 C 0.57101 0.86038 0.17636 0.0
C338 C 0.57344 0.88193 0.0927 0.0
C339 C 0.55809 0.92888 0.01073 0.0
C340 C 0.54012 0.95419 0.01125 0.0
C341 C 0.55623 0.90761 0.09661 0.0
C342 C 0.52095 0.95849 0.10191 0.0
C343 C 0.51922 0.93753 0.18899 0.0
H344 H 0.64496 0.5197 0.38652 0.0
H345 H 0.71411 0.54266 0.15462 0.0
H346 H 0.67836 0.54569 1.00266 0.0
H347 H 0.62761 0.54197 0.93534 0.0
H348 H 0.55795 0.5175 0.16297 0.0
H349 H 0.59333 0.51584 0.31727 0.0
C350 C 0.65208 0.52524 0.30246 0.0
C351 C 0.68212 0.53088 0.28118 0.0
C352 C 0.63126 0.5269 0.21508 0.0
C353 C 0.69114 0.53813 0.17248 0.0
C354 C 0.67069 0.53993 0.08574 0.0
C355 C 0.62009 0.53623 0.0187 0.0
C356 C 0.59008 0.52994 0.03754 0.0
C357 C 0.64071 0.53443 0.10599 0.0
C358 C 0.58089 0.52238 0.1461 0.0
C359 C 0.60119 0.52123 0.23421 0.0
H360 H 0.98521 0.67738 0.2217 0.0
H361 H 0.07305 0.65858 0.33528 0.0
H362 H 0.07686 0.61783 0.20279 0.0
H363 H 0.05545 0.58771 0.05068 0.0
H364 H 0.96844 0.60864 0.9322 0.0
H365 H 0.96375 0.64732 0.07145 0.0
C366 C 1.00507 0.66416 0.21808 0.0
C367 C 0.02881 0.671 0.28841 0.0
C368 C 1.00708 0.64064 0.14161 0.0
C369 C 0.05444 0.65375 0.28232 0.0
C370 C 0.05657 0.6303 0.20688 0.0
C371 C 0.03529 0.6004 0.05689 0.0
C372 C 1.01213 0.59492 0.98163 0.0
C373 C 0.03305 0.62345 0.13579 0.0
C374 C 0.98647 0.61214 0.98941 0.0
C375 C 0.98382 0.63443 0.06888 0.0
H376 H 0.92446 0.24969 0.20927 0.0
H377 H 0.99086 0.2716 0.44952 0.0
H378 H 0.97078 0.23529 0.58019 0.0
H379 H 0.94837 0.18642 0.5883 0.0
H380 H 0.88652 0.16064 0.33585 0.0
H381 H 0.88976 0.20952 0.24982 0.0
C382 C 0.93337 0.24757 0.2928 0.0
C383 C 0.95968 0.26216 0.31866 0.0
C384 C 0.923 0.22516 0.36386 0.0
C385 C 0.97089 0.26006 0.42733 0.0
C386 C 0.95966 0.23892 0.50142 0.0
C387 C 0.9343 0.19198 0.51826 0.0
C388 C 0.91836 0.16967 0.46487 0.0
C389 C 0.93776 0.21946 0.46547 0.0
C390 C 0.89975 0.17732 0.37581 0.0
C391 C 0.90183 0.20518 0.32603 0.0
H392 H 0.31062 0.92515 0.21065 0.0
H393 H 0.28154 0.9862 0.46056 0.0
H394 H 0.3191 0.96801 0.58816 0.0
H395 H 0.36941 0.94859 0.59891 0.0
H396 H 0.4031 0.8951 0.33218 0.0
H397 H 0.35505 0.89578 0.24267 0.0
C398 C 0.31169 0.9334 0.29513 0.0
C399 C 0.29435 0.95786 0.32444 0.0
C400 C 0.3352 0.92489 0.36365 0.0
C401 C 0.29507 0.9678 0.43494 0.0
C402 C 0.31701 0.95778 0.50732 0.0
C403 C 0.3659 0.93634 0.52291 0.0
C404 C 0.38997 0.9228 0.46988 0.0
C405 C 0.3388 0.93854 0.46808 0.0
C406 C 0.38505 0.9061 0.37381 0.0
C407 C 0.35759 0.90673 0.32192 0.0
H408 H 0.62162 0.29545 0.28222 0.0
H409 H 0.54484 0.2744 0.47855 0.0
H410 H 0.55846 0.31155 0.61475 0.0
H411 H 0.58209 0.35965 0.63731 0.0
H412 H 0.65576 0.38391 0.42841 0.0
H413 H 0.65386 0.33596 0.33823 0.0
C414 C 0.60887 0.29796 0.35825 0.0
C415 C 0.58194 0.28299 0.36941 0.0
C416 C 0.61571 0.32082 0.43134 0.0
C417 C 0.56556 0.28594 0.46806 0.0
C418 C 0.57306 0.30762 0.54477 0.0
C419 C 0.59863 0.35392 0.57602 0.0
C420 C 0.61842 0.37556 0.537 0.0
C421 C 0.59657 0.32681 0.52153 0.0
C422 C 0.6398 0.36782 0.45753 0.0
C423 C 0.63866 0.34044 0.40582 0.0
H424 H 0.2649 0.56147 0.47258 0.0
H425 H 0.26183 0.617 0.17981 0.0
H426 H 0.22395 0.64748 0.26555 0.0
H427 H 0.18088 0.64562 0.39067 0.0
H428 H 0.18131 0.58606 0.67278 0.0
H429 H 0.2311 0.5706 0.62768 0.0
C430 C 0.25727 0.58137 0.43074 0.0
C431 C 0.2651 0.58645 0.31894 0.0
C432 C 0.23405 0.59746 0.47768 0.0
C433 C 0.25558 0.61248 0.26557 0.0
C434 C 0.23345 0.62954 0.31379 0.0
C435 C 0.19247 0.63027 0.44482 0.0
C436 C 0.17724 0.61639 0.53303 0.0
C437 C 0.22064 0.62035 0.41482 0.0
C438 C 0.19253 0.59697 0.60421 0.0
C439 C 0.22095 0.58779 0.57743 0.0
H440 H 1.01208 0.76836 0.09205 0.0
H441 H 0.92994 0.80007 0.22343 0.0
H442 H 0.92966 0.84012 0.08675 0.0
H443 H 0.96354 0.87525 1.00271 0.0
H444 H 0.04867 0.84637 0.88485 0.0
H445 H 0.03712 0.79608 0.94284 0.0
C446 C 0.99319 0.78292 0.08557 0.0
C447 C 0.97216 0.78293 0.17158 0.0
C448 C 0.99472 0.80737 0.01364 0.0
C449 C 0.94699 0.80064 0.16004 0.0
C450 C 0.94722 0.82397 0.08345 0.0
C451 C 0.9792 0.858 0.98392 0.0
C452 C 1.00789 0.86503 0.94741 0.0
C453 C 0.97276 0.82936 0.02046 0.0
C454 C 0.02717 0.84187 0.92029 0.0
C455 C 1.0205 0.81301 0.95268 0.0
H456 H 0.74112 0.11687 0.33914 0.0
H457 H 0.76115 0.05193 0.0909 0.0
H458 H 0.72232 0.07148 0.97137 0.0
H459 H 0.67378 0.09487 0.97066 0.0
H460 H 0.6507 0.15616 0.22913 0.0
H461 H 0.69955 0.15062 0.3108 0.0
C462 C 0.73789 0.10809 0.25628 0.0
C463 C 0.75319 0.08251 0.22505 0.0
C464 C 0.71419 0.11812 0.19175 0.0
C465 C 0.74937 0.07145 0.11719 0.0
C466 C 0.72677 0.0823 0.04964 0.0
C467 C 0.67987 0.10814 0.04163 0.0
C468 C 0.65839 0.12514 0.09613 0.0
C469 C 0.70752 0.10384 0.09075 0.0
C470 C 0.66668 0.14231 0.18766 0.0
C471 C 0.69457 0.13905 0.23457 0.0
H472 H 0.4401 0.74668 0.35566 0.0
H473 H 0.51037 0.75782 0.11749 0.0
H474 H 0.48794 0.72129 0.99642 0.0
H475 H 0.45927 0.67557 0.99624 0.0
H476 H 0.39249 0.66092 0.24705 0.0
H477 H 0.40188 0.70961 0.32382 0.0
C478 C 0.44944 0.74226 0.27411 0.0
C479 C 0.4771 0.75411 0.24631 0.0
C480 C 0.4375 0.71977 0.20918 0.0
C481 C 0.48915 0.74868 0.14065 0.0
C482 C 0.47658 0.72737 0.07243 0.0
C483 C 0.4457 0.68363 0.06403 0.0
C484 C 0.42594 0.66439 0.1186 0.0
C485 C 0.45233 0.71099 0.11113 0.0
C486 C 0.40835 0.67517 0.20571 0.0
C487 C 0.41387 0.70292 0.25002 0.0
H488 H 0.78676 0.48298 0.17005 0.0
H489 H 0.79685 0.417 0.42743 0.0
H490 H 0.83843 0.39559 0.32778 0.0
H491 H 0.88072 0.4075 0.20582 0.0
H492 H 0.87179 0.47567 0.95513 0.0
H493 H 0.821 0.48406 0.01148 0.0
C494 C 0.79686 0.46276 0.20039 0.0
C495 C 0.78972 0.45222 0.30754 0.0
C496 C 0.82188 0.45178 0.14587 0.0
C497 C 0.80246 0.42573 0.34562 0.0
C498 C 0.8267 0.4139 0.28984 0.0
C499 C 0.8672 0.42333 0.16088 0.0
C500 C 0.88014 0.44158 0.07907 0.0
C501 C 0.83816 0.42857 0.19582 0.0
C502 C 0.86238 0.46159 0.01941 0.0
C503 C 0.83334 0.46657 0.05221 0.0
H504 H 0.02978 0.19711 0.1577 0.0
H505 H 1.00883 0.24157 0.84948 0.0
H506 H 1.01145 0.19435 0.75039 0.0
H507 H 1.01642 0.13902 0.75481 0.0
H508 H 0.03753 0.09635 0.06826 0.0
H509 H 0.03789 0.14368 0.16031 0.0
C510 C 0.02651 0.19662 0.06819 0.0
C511 C 1.01957 0.22313 0.01118 0.0
C512 C 0.02756 0.16931 0.01248 0.0
C513 C 1.01487 0.22181 0.89541 0.0
C514 C 1.01599 0.19462 0.83898 0.0
C515 C 0.02127 0.14008 0.84307 0.0
C516 C 0.02686 0.11358 0.90367 0.0
C517 C 0.02175 0.16799 0.897 0.0
C518 C 0.03315 0.11588 0.01826 0.0
C519 C 0.0334 0.14315 0.07167 0.0
H520 H 0.33404 0.98258 0.92821 0.0
H521 H 0.33622 0.06287 0.1162 0.0
H522 H 0.38693 0.07194 0.05422 0.0
H523 H 0.43261 0.05397 0.9633 0.0
H524 H 0.42954 0.97447 0.76983 0.0
H525 H 0.3775 0.9682 0.81649 0.0
C526 C 0.34533 1.00256 0.95252 0.0
C527 C 0.33122 0.02218 0.02602 0.0
C528 C 0.37464 1.00742 0.91741 0.0
C529 C 0.3463 0.04774 0.05814 0.0
C530 C 0.37549 0.05267 0.02398 0.0
C531 C 0.42047 0.0354 0.93072 0.0
C532 C 0.43518 1.0145 0.86421 0.0
C533 C 0.39023 0.03217 0.95655 0.0
C534 C 0.41892 0.99086 0.8212 0.0
C535 C 0.38909 0.98722 0.84812 0.0
H536 H 0.51305 0.3412 0.17943 0.0
H537 H 0.55263 0.3079 0.87971 0.0
H538 H 0.54854 0.35704 0.79159 0.0
H539 H 0.53823 0.41105 0.80846 0.0
H540 H 0.49989 0.44265 0.11516 0.0
H541 H 0.4994 0.393 0.19143 0.0
C542 C 0.52017 0.34457 0.09375 0.0
C543 C 0.53289 0.32096 0.03586 0.0
C544 C 0.51865 0.37289 0.04563 0.0
C545 C 0.54235 0.32563 0.92542 0.0
C546 C 0.5404 0.35384 0.87575 0.0
C547 C 0.52961 0.40702 0.89161 0.0
C548 C 0.51942 0.43093 0.95597 0.0
C549 C 0.52936 0.37793 0.93627 0.0
C550 C 0.50816 0.42504 0.06346 0.0
C551 C 0.50775 0.39649 0.10754 0.0
H552 H 0.21879 0.55497 0.96977 0.0
H553 H 0.21285 0.4739 0.15847 0.0
H554 H 0.16248 0.46635 0.09021 0.0
H555 H 0.11812 0.48563 0.98902 0.0
H556 H 0.12582 0.5676 0.80499 0.0
H557 H 0.17669 0.57238 0.86276 0.0
C558 C 0.20668 0.53532 0.99441 0.0
C559 C 0.21971 0.51502 0.06906 0.0
C560 C 0.17756 0.53162 0.95748 0.0
C561 C 0.20363 0.48969 0.09992 0.0
C562 C 0.1746 0.48561 0.06206 0.0
C563 C 0.13103 0.50438 0.96079 0.0
C564 C 0.11781 0.52625 0.89234 0.0
C565 C 0.16098 0.50687 0.99295 0.0
C566 C 0.13513 0.55029 0.85651 0.0
C567 C 0.16443 0.55305 0.88918 0.0
H568 H 0.97023 0.85188 0.45703 0.0
H569 H 0.05023 0.81606 0.59759 0.0
H570 H 0.06051 0.86388 0.68173 0.0
H571 H 0.04856 0.91777 0.705 0.0
H572 H 0.97347 0.95359 0.53153 0.0
H573 H 0.96052 0.90445 0.46662 0.0
C574 C 0.99059 0.85418 0.50262 0.0
C575 C 1.00974 0.82959 0.51635 0.0
C576 C 0.99753 0.88235 0.5444 0.0
C577 C 0.03476 0.83384 0.58386 0.0
C578 C 0.04091 0.86155 0.63149 0.0
C579 C 0.02948 0.91477 0.65233 0.0
C580 C 1.01208 0.93963 0.62266 0.0
C581 C 0.02277 0.88624 0.61058 0.0
C582 C 0.98744 0.93516 0.55464 0.0
C583 C 0.97992 0.90693 0.51796 0.0
H584 H 0.71868 0.05912 0.62796 0.0
H585 H 0.71869 0.97683 0.45237 0.0
H586 H 0.66953 0.96549 0.52605 0.0
H587 H 0.62415 0.98181 0.62321 0.0
H588 H 0.62524 0.06337 0.80445 0.0
H589 H 0.67609 0.07208 0.74672 0.0
C590 C 0.70826 0.03828 0.60878 0.0
C591 C 0.72246 1.01874 0.5353 0.0
C592 C 0.67984 0.03207 0.65076 0.0
C593 C 0.70852 0.99199 0.51011 0.0
C594 C 0.68019 0.98572 0.55105 0.0
C595 C 0.63561 1.00135 0.65092 0.0
C596 C 0.62057 0.02214 0.71692 0.0
C597 C 0.66523 1.00603 0.61854 0.0
C598 C 0.63604 0.04707 0.75339 0.0
C599 C 0.66521 0.05211 0.72012 0.0
H600 H 0.49349 0.71236 0.64534 0.0
H601 H 0.57696 0.70784 0.47578 0.0
H602 H 0.58411 0.65721 0.54523 0.0
H603 H 0.56412 0.61237 0.64124 0.0
H604 H 0.48147 0.61875 0.81679 0.0
H605 H 0.47641 0.67006 0.75839 0.0
C606 C 0.51365 0.70056 0.62658 0.0
C607 C 0.53485 0.71396 0.55674 0.0
C608 C 0.51742 0.67143 0.66603 0.0
C609 C 0.56063 0.69824 0.53126 0.0
C610 C 0.56448 0.66911 0.56967 0.0
C611 C 0.54509 0.62508 0.6668 0.0
C612 C 0.52301 0.61149 0.7325 0.0
C613 C 0.54263 0.65513 0.63468 0.0
C614 C 0.49875 0.62849 0.76642 0.0
C615 C 0.49582 0.65794 0.7329 0.0
H616 H 0.85255 0.52442 0.42709 0.0
H617 H 0.81367 0.5137 0.75266 0.0
H618 H 0.86245 0.51937 0.83873 0.0
H619 H 0.91733 0.52243 0.81856 0.0
H620 H 0.95446 0.5321 0.48791 0.0
H621 H 0.9056 0.53097 0.40741 0.0
C622 C 0.85468 0.52396 0.51719 0.0
C623 C 0.82948 0.51894 0.5834 0.0
C624 C 0.88277 0.52615 0.56519 0.0
C625 C 0.83261 0.51803 0.69989 0.0
C626 C 0.86062 0.52075 0.74886 0.0
C627 C 0.91469 0.52441 0.729 0.0
C628 C 0.93988 0.52725 0.65981 0.0
C629 C 0.88606 0.52397 0.68209 0.0
C630 C 0.9358 0.52992 0.54385 0.0
C631 C 0.90772 0.52933 0.49726 0.0
loop_
_geom_bond_atom_site_label_1
_geom_bond_atom_site_label_2
_geom_bond_distance
_geom_bond_site_symmetry_2
_ccdc_geom_bond_type
H0 C3 0.929 . S
H1 C6 0.929 . S
H2 C8 0.930 . S
C3 H0 0.929 . S
C3 C4 1.398 . S
C3 C5 1.396 . S
C4 C3 1.398 . S
C4 C8 1.407 . S
C5 C3 1.396 . S
C5 C6 1.394 . S
C6 H1 0.929 . S
C6 C5 1.394 . S
C6 C7 1.382 . S
C7 C6 1.382 . S
C7 C8 1.392 . S
C7 N9 1.420 . S
C8 H2 0.930 . S
C8 C4 1.407 . S
C8 C7 1.392 . S
N9 C7 1.420 . S
N9 C10 1.244 . S
C10 N9 1.244 . S
H11 C14 0.929 . S
H12 C17 0.929 . S
H13 C19 0.930 . S
C14 H11 0.929 . S
C14 C15 1.395 1_655 S
C14 C16 1.394 1_655 S
C15 C14 1.395 1_455 S
C15 C19 1.414 . S
C16 C14 1.394 1_455 S
C16 C17 1.397 . S
C17 H12 0.929 . S
C17 C16 1.397 . S
C17 C18 1.382 . S
C18 C17 1.382 . S
C18 C19 1.392 . S
C18 N20 1.420 . S
C19 H13 0.930 . S
C19 C15 1.414 . S
C19 C18 1.392 . S
N20 C18 1.420 . S
N20 C21 1.232 1_455 S
C21 N20 1.232 1_655 S
H22 C25 0.929 . S
H23 C28 0.929 . S
H24 C30 0.930 . S
C25 H22 0.929 . S
C25 C26 1.395 1_565 S
C25 C27 1.395 1_565 S
C26 C25 1.395 1_545 S
C26 C30 1.414 . S
C27 C25 1.395 1_545 S
C27 C28 1.397 . S
C28 H23 0.929 . S
C28 C27 1.397 . S
C28 C29 1.382 . S
C29 C28 1.382 . S
C29 C30 1.392 . S
C29 N31 1.420 . S
C30 H24 0.930 . S
C30 C26 1.414 . S
C30 C29 1.392 . S
N31 C29 1.420 . S
N31 C32 1.231 1_545 S
C32 N31 1.231 1_565 S
H33 C36 0.929 . S
H34 C39 0.929 . S
H35 C41 0.930 . S
C36 H33 0.929 . S
C36 C37 1.398 . S
C36 C38 1.396 . S
C37 C36 1.398 . S
C37 C41 1.407 . S
C38 C36 1.396 . S
C38 C39 1.394 . S
C39 H34 0.929 . S
C39 C38 1.394 . S
C39 C40 1.382 . S
C40 C39 1.382 . S
C40 C41 1.392 . S
C40 N42 1.420 . S
C41 H35 0.930 . S
C41 C37 1.407 . S
C41 C40 1.392 . S
N42 C40 1.420 . S
N42 C43 1.244 . S
C43 N42 1.244 . S
H44 C47 0.929 . S
H45 C50 0.929 . S
H46 C52 0.930 . S
C47 H44 0.929 . S
C47 C48 1.398 1_554 S
C47 C49 1.396 . S
C48 C47 1.398 1_556 S
C48 C52 1.407 . S
C49 C47 1.396 . S
C49 C50 1.394 . S
C50 H45 0.929 . S
C50 C49 1.394 . S
C50 C51 1.382 . S
C51 C50 1.382 . S
C51 C52 1.392 1_554 S
C51 N53 1.420 . S
C52 H46 0.930 . S
C52 C48 1.407 . S
C52 C51 1.392 1_556 S
N53 C51 1.420 . S
N53 C54 1.244 . S
C54 N53 1.244 . S
H55 C58 0.929 . S
H56 C61 0.929 . S
H57 C63 0.930 . S
C58 H55 0.929 . S
C58 C59 1.398 1_654 S
C58 C60 1.394 1_655 S
C59 C58 1.398 1_456 S
C59 C63 1.407 . S
C60 C58 1.394 1_455 S
C60 C61 1.398 . S
C61 H56 0.929 . S
C61 C60 1.398 . S
C61 C62 1.382 . S
C62 C61 1.382 . S
C62 C63 1.392 1_554 S
C62 N64 1.420 . S
C63 H57 0.930 . S
C63 C59 1.407 . S
C63 C62 1.392 1_556 S
N64 C62 1.420 . S
N64 C65 1.236 1_455 S
C65 N64 1.236 1_655 S
H66 C69 0.929 . S
H67 C72 0.929 . S
H68 C74 0.930 . S
C69 H66 0.929 . S
C69 C70 1.398 1_564 S
C69 C71 1.394 1_565 S
C70 C69 1.398 1_546 S
C70 C74 1.407 . S
C71 C69 1.394 1_545 S
C71 C72 1.398 . S
C72 H67 0.929 . S
C72 C71 1.398 . S
C72 C73 1.382 . S
C73 C72 1.382 . S
C73 C74 1.392 1_554 S
C73 N75 1.420 . S
C74 H68 0.930 . S
C74 C70 1.407 . S
C74 C73 1.392 1_556 S
N75 C73 1.420 . S
N75 C76 1.236 1_545 S
C76 N75 1.236 1_565 S
H77 C80 0.929 . S
H78 C83 0.929 . S
H79 C85 0.930 . S
C80 H77 0.929 . S
C80 C81 1.398 1_554 S
C80 C82 1.396 . S
C81 C80 1.398 1_556 S
C81 C85 1.407 . S
C82 C80 1.396 . S
C82 C83 1.394 . S
C83 H78 0.929 . S
C83 C82 1.394 . S
C83 C84 1.382 . S
C84 C83 1.382 . S
C84 C85 1.392 1_554 S
C84 N86 1.420 . S
C85 H79 0.930 . S
C85 C81 1.407 . S
C85 C84 1.392 1_556 S
N86 C84 1.420 . S
N86 C87 1.244 . S
C87 N86 1.244 . S
Tb88 C90 2.809 1_556 S
Tb88 O108 2.484 1_556 S
Tb88 O109 2.440 . S
Tb88 O110 2.658 1_565 S
Tb88 O111 2.409 . S
Tb88 O112 2.378 . S
Tb88 O116 2.325 1_455 S
Tb88 O119 2.341 1_565 S
Tb89 C99 2.809 . S
Tb89 O110 2.325 1_655 S
Tb89 O113 2.341 1_545 S
Tb89 O114 2.484 . S
Tb89 O115 2.440 . S
Tb89 O116 2.658 1_545 S
Tb89 O117 2.409 . S
Tb89 O118 2.378 . S
C90 Tb88 2.809 1_554 S
C90 C91 1.514 . S
C90 O108 1.248 . S
C90 O109 1.266 1_554 S
C91 C90 1.514 . S
C91 C92 1.359 . S
C91 C96 1.348 . S
C92 C91 1.359 . S
C92 C93 1.380 . S
C92 H120 0.929 1_455 S
C93 C92 1.380 . S
C93 C94 1.347 . S
C93 H121 0.931 1_455 S
C94 C93 1.347 . S
C94 C95 1.369 . S
C95 C94 1.369 . S
C95 C96 1.408 . S
C95 H122 0.930 . S
C96 C91 1.348 . S
C96 C95 1.408 . S
C96 H123 0.930 . S
C97 O110 1.281 1_565 S
C97 O111 1.254 . S
C98 O112 1.236 1_655 S
C98 O113 1.266 . S
C99 Tb89 2.809 . S
C99 C100 1.514 . S
C99 O114 1.248 . S
C99 O115 1.266 . S
C100 C99 1.514 . S
C100 C101 1.359 . S
C100 C105 1.348 . S
C101 C100 1.359 . S
C101 C102 1.380 . S
C101 H124 0.929 1_655 S
C102 C101 1.380 . S
C102 C103 1.347 . S
C102 H125 0.931 1_655 S
C103 C102 1.347 . S
C103 C104 1.369 . S
C104 C103 1.369 . S
C104 C105 1.408 . S
C104 H126 0.930 . S
C105 C100 1.348 . S
C105 C104 1.408 . S
C105 H127 0.930 . S
C106 O116 1.281 1_545 S
C106 O117 1.254 . S
C107 O118 1.236 1_455 S
C107 O119 1.266 . S
O108 Tb88 2.484 1_554 S
O108 C90 1.248 . S
O109 Tb88 2.440 . S
O109 C90 1.266 1_556 S
O110 Tb88 2.658 1_545 S
O110 Tb89 2.325 1_455 S
O110 C97 1.281 1_545 S
O111 Tb88 2.409 . S
O111 C97 1.254 . S
O112 Tb88 2.378 . S
O112 C98 1.236 1_455 S
O113 Tb89 2.341 1_565 S
O113 C98 1.266 . S
O114 Tb89 2.484 . S
O114 C99 1.248 . S
O115 Tb89 2.440 . S
O115 C99 1.266 . S
O116 Tb88 2.325 1_655 S
O116 Tb89 2.658 1_565 S
O116 C106 1.281 1_565 S
O117 Tb89 2.409 . S
O117 C106 1.254 . S
O118 Tb89 2.378 . S
O118 C107 1.236 1_655 S
O119 Tb88 2.341 1_545 S
O119 C107 1.266 . S
H120 C92 0.929 1_655 S
H121 C93 0.931 1_655 S
H122 C95 0.930 . S
H123 C96 0.930 . S
H124 C101 0.929 1_455 S
H125 C102 0.931 1_455 S
H126 C104 0.930 . S
H127 C105 0.930 . S
Tb128 C130 2.809 1_556 S
Tb128 O148 2.484 1_556 S
Tb128 O149 2.440 . S
Tb128 O150 2.658 . S
Tb128 O151 2.409 . S
Tb128 O152 2.378 . S
Tb128 O156 2.325 1_545 S
Tb128 O159 2.341 . S
Tb129 C139 2.809 . S
Tb129 O150 2.325 1_565 S
Tb129 O153 2.341 . S
Tb129 O154 2.484 . S
Tb129 O155 2.440 . S
Tb129 O156 2.658 . S
Tb129 O157 2.409 . S
Tb129 O158 2.378 . S
C130 Tb128 2.809 1_554 S
C130 C131 1.514 . S
C130 O148 1.248 . S
C130 O149 1.266 1_554 S
C131 C130 1.514 . S
C131 C132 1.359 . S
C131 C136 1.348 . S
C132 C131 1.359 . S
C132 C133 1.380 . S
C132 H160 0.929 1_545 S
C133 C132 1.380 . S
C133 C134 1.347 . S
C133 H161 0.931 1_545 S
C134 C133 1.347 . S
C134 C135 1.369 . S
C135 C134 1.369 . S
C135 C136 1.408 . S
C135 H162 0.930 . S
C136 C131 1.348 . S
C136 C135 1.408 . S
C136 H163 0.930 . S
C137 O150 1.281 . S
C137 O151 1.254 . S
C138 O152 1.236 1_565 S
C138 O153 1.266 . S
C139 Tb129 2.809 . S
C139 C140 1.514 . S
C139 O154 1.248 . S
C139 O155 1.266 . S
C140 C139 1.514 . S
C140 C141 1.359 . S
C140 C145 1.348 . S
C141 C140 1.359 . S
C141 C142 1.380 . S
C141 H164 0.929 1_565 S
C142 C141 1.380 . S
C142 C143 1.347 . S
C142 H165 0.931 1_565 S
C143 C142 1.347 . S
C143 C144 1.369 . S
C144 C143 1.369 . S
C144 C145 1.408 . S
C144 H166 0.930 . S
C145 C140 1.348 . S
C145 C144 1.408 . S
C145 H167 0.930 . S
C146 O156 1.281 . S
C146 O157 1.254 . S
C147 O158 1.236 1_545 S
C147 O159 1.266 . S
O148 Tb128 2.484 1_554 S
O148 C130 1.248 . S
O149 Tb128 2.440 . S
O149 C130 1.266 1_556 S
O150 Tb128 2.658 . S
O150 Tb129 2.325 1_545 S
O150 C137 1.281 . S
O151 Tb128 2.409 . S
O151 C137 1.254 . S
O152 Tb128 2.378 . S
O152 C138 1.236 1_545 S
O153 Tb129 2.341 . S
O153 C138 1.266 . S
O154 Tb129 2.484 . S
O154 C139 1.248 . S
O155 Tb129 2.440 . S
O155 C139 1.266 . S
O156 Tb128 2.325 1_565 S
O156 Tb129 2.658 . S
O156 C146 1.281 . S
O157 Tb129 2.409 . S
O157 C146 1.254 . S
O158 Tb129 2.378 . S
O158 C147 1.236 1_565 S
O159 Tb128 2.341 . S
O159 C147 1.266 . S
H160 C132 0.929 1_565 S
H161 C133 0.931 1_565 S
H162 C135 0.930 . S
H163 C136 0.930 . S
H164 C141 0.929 1_545 S
H165 C142 0.931 1_545 S
H166 C144 0.930 . S
H167 C145 0.930 . S
Tb168 C170 2.809 1_556 S
Tb168 O188 2.484 1_556 S
Tb168 O189 2.440 . S
Tb168 O190 2.658 . S
Tb168 O191 2.409 . S
Tb168 O192 2.378 . S
Tb168 O196 2.325 . S
Tb168 O199 2.341 . S
Tb169 C179 2.809 . S
Tb169 O190 2.325 . S
Tb169 O193 2.341 . S
Tb169 O194 2.484 . S
Tb169 O195 2.440 . S
Tb169 O196 2.658 . S
Tb169 O197 2.409 . S
Tb169 O198 2.378 . S
C170 Tb168 2.809 1_554 S
C170 C171 1.514 . S
C170 O188 1.248 . S
C170 O189 1.266 1_554 S
C171 C170 1.514 . S
C171 C172 1.359 . S
C171 C176 1.348 . S
C172 C171 1.359 . S
C172 C173 1.380 . S
C172 H200 0.929 . S
C173 C172 1.380 . S
C173 C174 1.347 . S
C173 H201 0.931 . S
C174 C173 1.347 . S
C174 C175 1.369 . S
C175 C174 1.369 . S
C175 C176 1.408 . S
C175 H202 0.930 . S
C176 C171 1.348 . S
C176 C175 1.408 . S
C176 H203 0.930 . S
C177 O190 1.281 . S
C177 O191 1.254 . S
C178 O192 1.236 . S
C178 O193 1.266 . S
C179 Tb169 2.809 . S
C179 C180 1.514 . S
C179 O194 1.248 . S
C179 O195 1.266 . S
C180 C179 1.514 . S
C180 C181 1.359 . S
C180 C185 1.348 . S
C181 C180 1.359 . S
C181 C182 1.380 . S
C181 H204 0.929 . S
C182 C181 1.380 . S
C182 C183 1.347 . S
C182 H205 0.931 . S
C183 C182 1.347 . S
C183 C184 1.369 . S
C184 C183 1.369 . S
C184 C185 1.408 . S
C184 H206 0.930 . S
C185 C180 1.348 . S
C185 C184 1.408 . S
C185 H207 0.930 . S
C186 O196 1.281 . S
C186 O197 1.254 . S
C187 O198 1.236 . S
C187 O199 1.266 . S
O188 Tb168 2.484 1_554 S
O188 C170 1.248 . S
O189 Tb168 2.440 . S
O189 C170 1.266 1_556 S
O190 Tb168 2.658 . S
O190 Tb169 2.325 . S
O190 C177 1.281 . S
O191 Tb168 2.409 . S
O191 C177 1.254 . S
O192 Tb168 2.378 . S
O192 C178 1.236 . S
O193 Tb169 2.341 . S
O193 C178 1.266 . S
O194 Tb169 2.484 . S
O194 C179 1.248 . S
O195 Tb169 2.440 . S
O195 C179 1.266 . S
O196 Tb168 2.325 . S
O196 Tb169 2.658 . S
O196 C186 1.281 . S
O197 Tb169 2.409 . S
O197 C186 1.254 . S
O198 Tb169 2.378 . S
O198 C187 1.236 . S
O199 Tb168 2.341 . S
O199 C187 1.266 . S
H200 C172 0.929 . S
H201 C173 0.931 . S
H202 C175 0.930 . S
H203 C176 0.930 . S
H204 C181 0.929 . S
H205 C182 0.931 . S
H206 C184 0.930 . S
H207 C185 0.930 . S
Tb208 C210 2.809 1_556 S
Tb208 O228 2.484 1_556 S
Tb208 O229 2.440 . S
Tb208 O230 2.658 1_655 S
Tb208 O231 2.409 . S
Tb208 O232 2.378 . S
Tb208 O236 2.325 . S
Tb208 O239 2.341 1_655 S
Tb209 C219 2.809 . S
Tb209 O230 2.325 . S
Tb209 O233 2.341 1_455 S
Tb209 O234 2.484 . S
Tb209 O235 2.440 . S
Tb209 O236 2.658 1_455 S
Tb209 O237 2.409 . S
Tb209 O238 2.378 . S
C210 Tb208 2.809 1_554 S
C210 C211 1.514 . S
C210 O228 1.248 . S
C210 O229 1.266 1_554 S
C211 C210 1.514 . S
C211 C212 1.359 . S
C211 C216 1.348 . S
C212 C211 1.359 . S
C212 C213 1.380 . S
C212 H240 0.929 . S
C213 C212 1.380 . S
C213 C214 1.347 . S
C213 H241 0.931 . S
C214 C213 1.347 . S
C214 C215 1.369 . S
C215 C214 1.369 . S
C215 C216 1.408 . S
C215 H242 0.930 . S
C216 C211 1.348 . S
C216 C215 1.408 . S
C216 H243 0.930 . S
C217 O230 1.275 1_655 S
C217 O231 1.261 . S
C218 O232 1.236 . S
C218 O233 1.266 . S
C219 Tb209 2.809 . S
C219 C220 1.514 . S
C219 O234 1.248 . S
C219 O235 1.266 . S
C220 C219 1.514 . S
C220 C221 1.359 . S
C220 C225 1.348 . S
C221 C220 1.359 . S
C221 C222 1.380 . S
C221 H244 0.929 . S
C222 C221 1.380 . S
C222 C223 1.347 . S
C222 H245 0.931 . S
C223 C222 1.347 . S
C223 C224 1.369 . S
C224 C223 1.369 . S
C224 C225 1.408 . S
C224 H246 0.930 . S
C225 C220 1.348 . S
C225 C224 1.408 . S
C225 H247 0.930 . S
C226 O236 1.272 1_455 S
C226 O237 1.265 . S
C227 O238 1.236 . S
C227 O239 1.266 . S
O228 Tb208 2.484 1_554 S
O228 C210 1.248 . S
O229 Tb208 2.440 . S
O229 C210 1.266 1_556 S
O230 Tb208 2.658 1_455 S
O230 Tb209 2.325 . S
O230 C217 1.275 1_455 S
O231 Tb208 2.409 . S
O231 C217 1.261 . S
O232 Tb208 2.378 . S
O232 C218 1.236 . S
O233 Tb209 2.341 1_655 S
O233 C218 1.266 . S
O234 Tb209 2.484 . S
O234 C219 1.248 . S
O235 Tb209 2.440 . S
O235 C219 1.266 . S
O236 Tb208 2.325 . S
O236 Tb209 2.658 1_655 S
O236 C226 1.272 1_655 S
O237 Tb209 2.409 . S
O237 C226 1.265 . S
O238 Tb209 2.378 . S
O238 C227 1.236 . S
O239 Tb208 2.341 1_455 S
O239 C227 1.266 . S
H240 C212 0.929 . S
H241 C213 0.931 . S
H242 C215 0.930 . S
H243 C216 0.930 . S
H244 C221 0.929 . S
H245 C222 0.931 . S
H246 C224 0.930 . S
H247 C225 0.930 . S
H248 C254 0.930 . S
H249 C257 0.930 . S
H250 C258 0.930 . S
H251 C259 0.930 . S
H252 C262 0.930 . S
H253 C263 0.930 . S
C254 H248 0.930 . S
C254 C255 1.355 . S
C254 C256 1.415 . S
C255 C254 1.355 . S
C255 C257 1.419 . S
C256 C254 1.415 . S
C256 C261 1.425 1_565 S
C256 C263 1.409 1_565 S
C257 H249 0.930 . S
C257 C255 1.419 . S
C257 C258 1.362 . S
C258 H250 0.930 . S
C258 C257 1.362 . S
C258 C261 1.409 1_565 S
C259 H251 0.930 . S
C259 C260 1.355 . S
C259 C261 1.415 . S
C260 C259 1.355 . S
C260 C262 1.419 . S
C261 C256 1.425 1_545 S
C261 C258 1.409 1_545 S
C261 C259 1.415 . S
C262 H252 0.930 . S
C262 C260 1.419 . S
C262 C263 1.362 . S
C263 H253 0.930 . S
C263 C256 1.409 1_545 S
C263 C262 1.362 . S
H264 C270 0.930 . S
H265 C273 0.930 . S
H266 C274 0.930 . S
H267 C275 0.930 . S
H268 C278 0.930 . S
H269 C279 0.930 . S
C270 H264 0.930 . S
C270 C271 1.355 . S
C270 C272 1.415 . S
C271 C270 1.355 . S
C271 C273 1.419 . S
C272 C270 1.415 . S
C272 C277 1.425 . S
C272 C279 1.409 . S
C273 H265 0.930 . S
C273 C271 1.419 . S
C273 C274 1.362 . S
C274 H266 0.930 . S
C274 C273 1.362 . S
C274 C277 1.409 . S
C275 H267 0.930 . S
C275 C276 1.355 . S
C275 C277 1.415 . S
C276 C275 1.355 . S
C276 C278 1.419 . S
C277 C272 1.425 . S
C277 C274 1.409 . S
C277 C275 1.415 . S
C278 H268 0.930 . S
C278 C276 1.419 . S
C278 C279 1.362 . S
C279 H269 0.930 . S
C279 C272 1.409 . S
C279 C278 1.362 . S
H280 C286 0.930 . S
H281 C289 0.930 . S
H282 C290 0.930 . S
H283 C291 0.930 . S
H284 C294 0.930 . S
H285 C295 0.930 . S
C286 H280 0.930 . S
C286 C287 1.355 . S
C286 C288 1.415 . S
C287 C286 1.355 . S
C287 C289 1.419 . S
C288 C286 1.415 . S
C288 C293 1.425 . S
C288 C295 1.409 . S
C289 H281 0.930 . S
C289 C287 1.419 . S
C289 C290 1.362 . S
C290 H282 0.930 . S
C290 C289 1.362 . S
C290 C293 1.409 . S
C291 H283 0.930 . S
C291 C292 1.355 . S
C291 C293 1.415 . S
C292 C291 1.355 . S
C292 C294 1.419 . S
C293 C288 1.425 . S
C293 C290 1.409 . S
C293 C291 1.415 . S
C294 H284 0.930 . S
C294 C292 1.419 . S
C294 C295 1.362 . S
C295 H285 0.930 . S
C295 C288 1.409 . S
C295 C294 1.362 . S
H296 C302 0.930 . S
H297 C305 0.930 . S
H298 C306 0.930 . S
H299 C307 0.930 . S
H300 C310 0.930 . S
H301 C311 0.930 . S
C302 H296 0.930 . S
C302 C303 1.356 . S
C302 C304 1.415 . S
C303 C302 1.356 . S
C303 C305 1.417 1_455 S
C304 C302 1.415 . S
C304 C309 1.425 1_455 S
C304 C311 1.409 . S
C305 H297 0.930 . S
C305 C303 1.417 1_655 S
C305 C306 1.362 . S
C306 H298 0.930 . S
C306 C305 1.362 . S
C306 C309 1.409 . S
C307 H299 0.930 . S
C307 C308 1.355 1_655 S
C307 C309 1.415 . S
C308 C307 1.355 1_455 S
C308 C310 1.419 . S
C309 C304 1.425 1_655 S
C309 C306 1.409 . S
C309 C307 1.415 . S
C310 H300 0.930 . S
C310 C308 1.419 . S
C310 C311 1.362 . S
C311 H301 0.930 . S
C311 C304 1.409 . S
C311 C310 1.362 . S
H312 C318 0.930 . S
H313 C321 0.930 . S
H314 C322 0.930 . S
H315 C323 0.930 . S
H316 C326 0.930 . S
H317 C327 0.930 . S
C318 H312 0.930 . S
C318 C319 1.355 1_565 S
C318 C320 1.415 . S
C319 C318 1.355 1_545 S
C319 C321 1.419 . S
C320 C318 1.415 . S
C320 C325 1.425 1_565 S
C320 C327 1.409 . S
C321 H313 0.930 . S
C321 C319 1.419 . S
C321 C322 1.362 . S
C322 H314 0.930 . S
C322 C321 1.362 . S
C322 C325 1.409 . S
C323 H315 0.930 . S
C323 C324 1.355 1_544 S
C323 C325 1.415 . S
C324 C323 1.355 1_566 S
C324 C326 1.419 . S
C325 C320 1.425 1_545 S
C325 C322 1.409 . S
C325 C323 1.415 . S
C326 H316 0.930 . S
C326 C324 1.419 . S
C326 C327 1.362 1_556 S
C327 H317 0.930 . S
C327 C320 1.409 . S
C327 C326 1.362 1_554 S
H328 C334 0.930 . S
H329 C337 0.930 . S
H330 C338 0.930 . S
H331 C339 0.930 . S
H332 C342 0.930 . S
H333 C343 0.930 . S
C334 H328 0.930 . S
C334 C335 1.355 . S
C334 C336 1.415 . S
C335 C334 1.355 . S
C335 C337 1.419 . S
C336 C334 1.415 . S
C336 C341 1.425 . S
C336 C343 1.409 . S
C337 H329 0.930 . S
C337 C335 1.419 . S
C337 C338 1.362 . S
C338 H330 0.930 . S
C338 C337 1.362 . S
C338 C341 1.409 . S
C339 H331 0.930 . S
C339 C340 1.355 . S
C339 C341 1.415 . S
C340 C339 1.355 . S
C340 C342 1.419 1_554 S
C341 C336 1.425 . S
C341 C338 1.409 . S
C341 C339 1.415 . S
C342 H332 0.930 . S
C342 C340 1.419 1_556 S
C342 C343 1.362 1_556 S
C343 H333 0.930 . S
C343 C336 1.409 . S
C343 C342 1.362 1_554 S
H344 C350 0.930 . S
H345 C353 0.930 . S
H346 C354 0.930 . S
H347 C355 0.930 1_556 S
H348 C358 0.930 . S
H349 C359 0.930 . S
C350 H344 0.930 . S
C350 C351 1.355 . S
C350 C352 1.415 . S
C351 C350 1.355 . S
C351 C353 1.419 . S
C352 C350 1.415 . S
C352 C357 1.425 . S
C352 C359 1.409 . S
C353 H345 0.930 . S
C353 C351 1.419 . S
C353 C354 1.362 . S
C354 H346 0.930 . S
C354 C353 1.362 . S
C354 C357 1.409 . S
C355 H347 0.930 1_554 S
C355 C356 1.355 . S
C355 C357 1.415 . S
C356 C355 1.355 . S
C356 C358 1.419 . S
C357 C352 1.425 . S
C357 C354 1.409 . S
C357 C355 1.415 . S
C358 H348 0.930 . S
C358 C356 1.419 . S
C358 C359 1.362 . S
C359 H349 0.930 . S
C359 C352 1.409 . S
C359 C358 1.362 . S
H360 C366 0.930 . S
H361 C369 0.930 . S
H362 C370 0.930 . S
H363 C371 0.930 . S
H364 C374 0.930 . S
H365 C375 0.930 . S
C366 H360 0.930 . S
C366 C367 1.359 . S
C366 C368 1.415 . S
C367 C366 1.359 . S
C367 C369 1.415 1_655 S
C368 C366 1.415 . S
C368 C373 1.425 1_655 S
C368 C375 1.409 . S
C369 H361 0.930 . S
C369 C367 1.415 1_455 S
C369 C370 1.362 . S
C370 H362 0.930 . S
C370 C369 1.362 . S
C370 C373 1.409 . S
C371 H363 0.930 . S
C371 C372 1.352 1_454 S
C371 C373 1.415 . S
C372 C371 1.352 1_656 S
C372 C374 1.422 . S
C373 C368 1.425 1_455 S
C373 C370 1.409 . S
C373 C371 1.415 . S
C374 H364 0.930 . S
C374 C372 1.422 . S
C374 C375 1.362 1_556 S
C375 H365 0.930 . S
C375 C368 1.409 . S
C375 C374 1.362 1_554 S
H376 C382 0.930 . S
H377 C385 0.930 . S
H378 C386 0.930 . S
H379 C387 0.930 . S
H380 C390 0.930 . S
H381 C391 0.930 . S
C382 H376 0.930 . S
C382 C383 1.355 1_655 S
C382 C384 1.415 . S
C383 C382 1.355 1_455 S
C383 C385 1.419 . S
C384 C382 1.415 . S
C384 C389 1.425 . S
C384 C391 1.409 . S
C385 H377 0.930 . S
C385 C383 1.419 . S
C385 C386 1.362 . S
C386 H378 0.930 . S
C386 C385 1.362 . S
C386 C389 1.409 1_455 S
C387 H379 0.930 . S
C387 C388 1.355 . S
C387 C389 1.415 . S
C388 C387 1.355 . S
C388 C390 1.419 . S
C389 C384 1.425 . S
C389 C386 1.409 1_655 S
C389 C387 1.415 . S
C390 H380 0.930 . S
C390 C388 1.419 . S
C390 C391 1.362 . S
C391 H381 0.930 . S
C391 C384 1.409 . S
C391 C390 1.362 . S
H392 C398 0.930 . S
H393 C401 0.930 . S
H394 C402 0.930 . S
H395 C403 0.930 . S
H396 C406 0.930 . S
H397 C407 0.930 . S
C398 H392 0.930 . S
C398 C399 1.355 1_565 S
C398 C400 1.415 . S
C399 C398 1.355 1_545 S
C399 C401 1.419 . S
C400 C398 1.415 . S
C400 C405 1.425 . S
C400 C407 1.409 . S
C401 H393 0.930 . S
C401 C399 1.419 . S
C401 C402 1.362 . S
C402 H394 0.930 . S
C402 C401 1.362 . S
C402 C405 1.409 1_545 S
C403 H395 0.930 . S
C403 C404 1.355 . S
C403 C405 1.415 . S
C404 C403 1.355 . S
C404 C406 1.419 . S
C405 C400 1.425 . S
C405 C402 1.409 1_565 S
C405 C403 1.415 . S
C406 H396 0.930 . S
C406 C404 1.419 . S
C406 C407 1.362 . S
C407 H397 0.930 . S
C407 C400 1.409 . S
C407 C406 1.362 . S
H408 C414 0.930 . S
H409 C417 0.930 . S
H410 C418 0.930 . S
H411 C419 0.930 . S
H412 C422 0.930 . S
H413 C423 0.930 . S
C414 H408 0.930 . S
C414 C415 1.355 . S
C414 C416 1.415 . S
C415 C414 1.355 . S
C415 C417 1.419 . S
C416 C414 1.415 . S
C416 C421 1.425 . S
C416 C423 1.409 . S
C417 H409 0.930 . S
C417 C415 1.419 . S
C417 C418 1.362 . S
C418 H410 0.930 . S
C418 C417 1.362 . S
C418 C421 1.409 . S
C419 H411 0.930 . S
C419 C420 1.355 . S
C419 C421 1.415 . S
C420 C419 1.355 . S
C420 C422 1.419 . S
C421 C416 1.425 . S
C421 C418 1.409 . S
C421 C419 1.415 . S
C422 H412 0.930 . S
C422 C420 1.419 . S
C422 C423 1.362 . S
C423 H413 0.930 . S
C423 C416 1.409 . S
C423 C422 1.362 . S
H424 C430 0.930 . S
H425 C433 0.930 . S
H426 C434 0.930 . S
H427 C435 0.930 . S
H428 C438 0.930 . S
H429 C439 0.930 . S
C430 H424 0.930 . S
C430 C431 1.355 . S
C430 C432 1.415 . S
C431 C430 1.355 . S
C431 C433 1.419 . S
C432 C430 1.415 . S
C432 C437 1.425 . S
C432 C439 1.409 . S
C433 H425 0.930 . S
C433 C431 1.419 . S
C433 C434 1.362 . S
C434 H426 0.930 . S
C434 C433 1.362 . S
C434 C437 1.409 . S
C435 H427 0.930 . S
C435 C436 1.355 . S
C435 C437 1.415 . S
C436 C435 1.355 . S
C436 C438 1.419 . S
C437 C432 1.425 . S
C437 C434 1.409 . S
C437 C435 1.415 . S
C438 H428 0.930 . S
C438 C436 1.419 . S
C438 C439 1.362 . S
C439 H429 0.930 . S
C439 C432 1.409 . S
C439 C438 1.362 . S
H440 C446 0.930 . S
H441 C449 0.930 . S
H442 C450 0.930 . S
H443 C451 0.930 . S
H444 C454 0.930 . S
H445 C455 0.930 . S
C446 H440 0.930 . S
C446 C447 1.355 1_455 S
C446 C448 1.415 . S
C447 C446 1.355 1_655 S
C447 C449 1.419 . S
C448 C446 1.415 . S
C448 C453 1.425 . S
C448 C455 1.409 . S
C449 H441 0.930 . S
C449 C447 1.419 . S
C449 C450 1.362 . S
C450 H442 0.930 . S
C450 C449 1.362 . S
C450 C453 1.409 1_655 S
C451 H443 0.930 . S
C451 C452 1.355 . S
C451 C453 1.415 . S
C452 C451 1.355 . S
C452 C454 1.419 . S
C453 C448 1.425 . S
C453 C450 1.409 1_455 S
C453 C451 1.415 . S
C454 H444 0.930 . S
C454 C452 1.419 . S
C454 C455 1.362 . S
C455 H445 0.930 . S
C455 C448 1.409 . S
C455 C454 1.362 . S
H456 C462 0.930 . S
H457 C465 0.930 . S
H458 C466 0.930 . S
H459 C467 0.930 . S
H460 C470 0.930 . S
H461 C471 0.930 . S
C462 H456 0.930 . S
C462 C463 1.355 1_545 S
C462 C464 1.415 . S
C463 C462 1.355 1_565 S
C463 C465 1.419 . S
C464 C462 1.415 . S
C464 C469 1.425 . S
C464 C471 1.409 . S
C465 H457 0.930 . S
C465 C463 1.419 . S
C465 C466 1.362 . S
C466 H458 0.930 . S
C466 C465 1.362 . S
C466 C469 1.409 1_565 S
C467 H459 0.930 . S
C467 C468 1.355 . S
C467 C469 1.415 . S
C468 C467 1.355 . S
C468 C470 1.419 . S
C469 C464 1.425 . S
C469 C466 1.409 1_545 S
C469 C467 1.415 . S
C470 H460 0.930 . S
C470 C468 1.419 . S
C470 C471 1.362 . S
C471 H461 0.930 . S
C471 C464 1.409 . S
C471 C470 1.362 . S
H472 C478 0.930 . S
H473 C481 0.930 . S
H474 C482 0.930 . S
H475 C483 0.930 . S
H476 C486 0.930 . S
H477 C487 0.930 . S
C478 H472 0.930 . S
C478 C479 1.355 . S
C478 C480 1.415 . S
C479 C478 1.355 . S
C479 C481 1.419 . S
C480 C478 1.415 . S
C480 C485 1.425 . S
C480 C487 1.409 . S
C481 H473 0.930 . S
C481 C479 1.419 . S
C481 C482 1.362 . S
C482 H474 0.930 . S
C482 C481 1.362 . S
C482 C485 1.409 . S
C483 H475 0.930 . S
C483 C484 1.355 . S
C483 C485 1.415 . S
C484 C483 1.355 . S
C484 C486 1.419 . S
C485 C480 1.425 . S
C485 C482 1.409 . S
C485 C483 1.415 . S
C486 H476 0.930 . S
C486 C484 1.419 . S
C486 C487 1.362 . S
C487 H477 0.930 . S
C487 C480 1.409 . S
C487 C486 1.362 . S
H488 C494 0.930 . S
H489 C497 0.930 . S
H490 C498 0.930 . S
H491 C499 0.930 . S
H492 C502 0.930 . S
H493 C503 0.930 . S
C494 H488 0.930 . S
C494 C495 1.355 . S
C494 C496 1.415 . S
C495 C494 1.355 . S
C495 C497 1.419 . S
C496 C494 1.415 . S
C496 C501 1.425 . S
C496 C503 1.409 . S
C497 H489 0.930 . S
C497 C495 1.419 . S
C497 C498 1.362 . S
C498 H490 0.930 . S
C498 C497 1.362 . S
C498 C501 1.409 . S
C499 H491 0.930 . S
C499 C500 1.355 . S
C499 C501 1.415 . S
C500 C499 1.355 . S
C500 C502 1.419 . S
C501 C496 1.425 . S
C501 C498 1.409 . S
C501 C499 1.415 . S
C502 H492 0.930 . S
C502 C500 1.419 . S
C502 C503 1.362 . S
C503 H493 0.930 . S
C503 C496 1.409 . S
C503 C502 1.362 . S
H504 C510 0.930 . S
H505 C513 0.930 . S
H506 C514 0.930 1_554 S
H507 C515 0.930 . S
H508 C518 0.930 . S
H509 C519 0.930 . S
C510 H504 0.930 . S
C510 C511 1.355 1_455 S
C510 C512 1.415 . S
C511 C510 1.355 1_655 S
C511 C513 1.418 . S
C512 C510 1.415 . S
C512 C517 1.425 1_455 S
C512 C519 1.409 . S
C513 H505 0.930 . S
C513 C511 1.418 . S
C513 C514 1.362 . S
C514 H506 0.930 1_556 S
C514 C513 1.362 . S
C514 C517 1.409 . S
C515 H507 0.930 . S
C515 C516 1.355 1_655 S
C515 C517 1.415 . S
C516 C515 1.355 1_455 S
C516 C518 1.419 . S
C517 C512 1.425 1_655 S
C517 C514 1.409 . S
C517 C515 1.415 . S
C518 H508 0.930 . S
C518 C516 1.419 . S
C518 C519 1.362 . S
C519 H509 0.930 . S
C519 C512 1.409 . S
C519 C518 1.362 . S
H520 C526 0.930 . S
H521 C529 0.930 . S
H522 C530 0.930 . S
H523 C531 0.930 . S
H524 C534 0.930 . S
H525 C535 0.930 . S
C526 H520 0.930 . S
C526 C527 1.355 1_565 S
C526 C528 1.415 . S
C527 C526 1.355 1_545 S
C527 C529 1.419 . S
C528 C526 1.415 . S
C528 C533 1.425 1_565 S
C528 C535 1.409 . S
C529 H521 0.930 . S
C529 C527 1.419 . S
C529 C530 1.362 . S
C530 H522 0.930 . S
C530 C529 1.362 . S
C530 C533 1.409 . S
C531 H523 0.930 . S
C531 C532 1.355 . S
C531 C533 1.415 . S
C532 C531 1.355 . S
C532 C534 1.419 1_545 S
C533 C528 1.425 1_545 S
C533 C530 1.409 . S
C533 C531 1.415 . S
C534 H524 0.930 . S
C534 C532 1.419 1_565 S
C534 C535 1.362 . S
C535 H525 0.930 . S
C535 C528 1.409 . S
C535 C534 1.362 . S
H536 C542 0.930 . S
H537 C545 0.930 . S
H538 C546 0.930 . S
H539 C547 0.930 . S
H540 C550 0.930 . S
H541 C551 0.930 . S
C542 H536 0.930 . S
C542 C543 1.355 . S
C542 C544 1.415 . S
C543 C542 1.355 . S
C543 C545 1.419 . S
C544 C542 1.415 . S
C544 C549 1.425 . S
C544 C551 1.409 . S
C545 H537 0.930 . S
C545 C543 1.419 . S
C545 C546 1.362 . S
C546 H538 0.930 . S
C546 C545 1.362 . S
C546 C549 1.409 . S
C547 H539 0.930 . S
C547 C548 1.355 . S
C547 C549 1.415 . S
C548 C547 1.355 . S
C548 C550 1.419 . S
C549 C544 1.425 . S
C549 C546 1.409 . S
C549 C547 1.415 . S
C550 H540 0.930 . S
C550 C548 1.419 . S
C550 C551 1.362 . S
C551 H541 0.930 . S
C551 C544 1.409 . S
C551 C550 1.362 . S
H552 C558 0.930 . S
H553 C561 0.930 . S
H554 C562 0.930 . S
H555 C563 0.930 . S
H556 C566 0.930 . S
H557 C567 0.930 . S
C558 H552 0.930 . S
C558 C559 1.355 . S
C558 C560 1.415 . S
C559 C558 1.355 . S
C559 C561 1.419 . S
C560 C558 1.415 . S
C560 C565 1.425 . S
C560 C567 1.409 . S
C561 H553 0.930 . S
C561 C559 1.419 . S
C561 C562 1.362 . S
C562 H554 0.930 . S
C562 C561 1.362 . S
C562 C565 1.409 . S
C563 H555 0.930 . S
C563 C564 1.355 . S
C563 C565 1.415 . S
C564 C563 1.355 . S
C564 C566 1.419 . S
C565 C560 1.425 . S
C565 C562 1.409 . S
C565 C563 1.415 . S
C566 H556 0.930 . S
C566 C564 1.419 . S
C566 C567 1.362 . S
C567 H557 0.930 . S
C567 C560 1.409 . S
C567 C566 1.362 . S
H568 C574 0.930 . S
H569 C577 0.930 . S
H570 C578 0.930 . S
H571 C579 0.930 . S
H572 C582 0.930 . S
H573 C583 0.930 . S
C574 H568 0.930 . S
C574 C575 1.368 . S
C574 C576 1.415 . S
C575 C574 1.368 . S
C575 C577 1.404 1_655 S
C576 C574 1.415 . S
C576 C581 1.425 1_655 S
C576 C583 1.409 . S
C577 H569 0.930 . S
C577 C575 1.404 1_455 S
C577 C578 1.362 . S
C578 H570 0.930 . S
C578 C577 1.362 . S
C578 C581 1.409 . S
C579 H571 0.930 . S
C579 C580 1.355 1_455 S
C579 C581 1.415 . S
C580 C579 1.355 1_655 S
C580 C582 1.419 . S
C581 C576 1.425 1_455 S
C581 C578 1.409 . S
C581 C579 1.415 . S
C582 H572 0.930 . S
C582 C580 1.419 . S
C582 C583 1.362 . S
C583 H573 0.930 . S
C583 C576 1.409 . S
C583 C582 1.362 . S
H584 C590 0.930 . S
H585 C593 0.930 . S
H586 C594 0.930 . S
H587 C595 0.930 . S
H588 C598 0.930 . S
H589 C599 0.930 . S
C590 H584 0.930 . S
C590 C591 1.355 1_545 S
C590 C592 1.415 . S
C591 C590 1.355 1_565 S
C591 C593 1.419 . S
C592 C590 1.415 . S
C592 C597 1.425 1_545 S
C592 C599 1.409 . S
C593 H585 0.930 . S
C593 C591 1.419 . S
C593 C594 1.362 . S
C594 H586 0.930 . S
C594 C593 1.362 . S
C594 C597 1.409 . S
C595 H587 0.930 . S
C595 C596 1.355 . S
C595 C597 1.415 . S
C596 C595 1.355 . S
C596 C598 1.419 1_565 S
C597 C592 1.425 1_565 S
C597 C594 1.409 . S
C597 C595 1.415 . S
C598 H588 0.930 . S
C598 C596 1.419 1_545 S
C598 C599 1.362 . S
C599 H589 0.930 . S
C599 C592 1.409 . S
C599 C598 1.362 . S
H600 C606 0.930 . S
H601 C609 0.930 . S
H602 C610 0.930 . S
H603 C611 0.930 . S
H604 C614 0.930 . S
H605 C615 0.930 . S
C606 H600 0.930 . S
C606 C607 1.355 . S
C606 C608 1.415 . S
C607 C606 1.355 . S
C607 C609 1.419 . S
C608 C606 1.415 . S
C608 C613 1.425 . S
C608 C615 1.409 . S
C609 H601 0.930 . S
C609 C607 1.419 . S
C609 C610 1.362 . S
C610 H602 0.930 . S
C610 C609 1.362 . S
C610 C613 1.409 . S
C611 H603 0.930 . S
C611 C612 1.355 . S
C611 C613 1.415 . S
C612 C611 1.355 . S
C612 C614 1.419 . S
C613 C608 1.425 . S
C613 C610 1.409 . S
C613 C611 1.415 . S
C614 H604 0.930 . S
C614 C612 1.419 . S
C614 C615 1.362 . S
C615 H605 0.930 . S
C615 C608 1.409 . S
C615 C614 1.362 . S
H616 C622 0.930 . S
H617 C625 0.930 . S
H618 C626 0.930 . S
H619 C627 0.930 . S
H620 C630 0.930 . S
H621 C631 0.930 . S
C622 H616 0.930 . S
C622 C623 1.355 . S
C622 C624 1.415 . S
C623 C622 1.355 . S
C623 C625 1.419 . S
C624 C622 1.415 . S
C624 C629 1.425 . S
C624 C631 1.409 . S
C625 H617 0.930 . S
C625 C623 1.419 . S
C625 C626 1.362 . S
C626 H618 0.930 . S
C626 C625 1.362 . S
C626 C629 1.409 . S
C627 H619 0.930 . S
C627 C628 1.355 . S
C627 C629 1.415 . S
C628 C627 1.355 . S
C628 C630 1.419 . S
C629 C624 1.425 . S
C629 C626 1.409 . S
C629 C627 1.415 . S
C630 H620 0.930 . S
C630 C628 1.419 . S
C630 C631 1.362 . S
C631 H621 0.930 . S
C631 C624 1.409 . S
C631 C630 1.362 . S
C255 C76 1.897 . S
C260 C97 2.030 1_545 S
C276 C137 2.051 . S
C271 C87 1.858 . S
C292 C177 2.068 . S
C287 C54 1.855 . S
C308 C217 2.051 1_455 S
C303 C65 1.830 1_455 S
C324 C106 2.037 1_565 S
C319 C32 1.897 1_545 S
C335 C43 1.890 . S
C340 C146 2.050 1_554 S
C351 C10 1.855 . S
C356 C186 2.074 1_554 S
C367 C21 1.913 . S
C372 C226 2.043 1_655 S
C388 C103 0.675 . S
C383 C60 0.682 . S
C404 C143 0.640 . S
C399 C71 0.692 . S
C420 C183 0.675 . S
C415 C82 0.682 . S
C431 C49 0.591 . S
C436 C223 0.517 . S
C447 C16 0.540 1_655 S
C452 C94 0.613 . S
C468 C134 0.660 . S
C463 C27 0.597 1_565 S
C484 C174 0.679 . S
C479 C38 0.638 . S
C495 C5 0.507 . S
C500 C214 0.540 . S
C511 C59 2.122 1_655 S
C516 C107 2.421 . S
C527 C70 2.070 . S
C532 C147 2.348 . S
C548 C187 2.363 . S
C543 C81 2.067 . S
C564 C227 2.375 . S
C559 C48 2.114 . S
C575 C15 2.109 1_655 S
C580 C98 2.428 . S
C596 C138 2.349 . S
C591 C26 2.068 1_565 S
C612 C178 2.339 . S
C607 C37 2.118 . S
C623 C4 2.097 . S
C628 C218 2.409 . S
