# Generated by pormake.
# Topology rtl, (3,6)-cn, num edge types: 1
# Building blocks:
#     Node 0, Type 0, BuildingBlock: BELTOD_clean_linker_0, # of connection points: 3
#     Node 1, Type 0, BuildingBlock: BELTOD_clean_linker_0, # of connection points: 3
#     Node 2, Type 0, BuildingBlock: BELTOD_clean_linker_0, # of connection points: 3
#     Node 3, Type 0, BuildingBlock: BELTOD_clean_linker_0, # of connection points: 3
#     Node 4, Type 1, BuildingBlock: LEVNOQ01_clean_sbu_1, # of connection points: 6
#     Node 5, Type 1, BuildingBlock: LEVNOQ01_clean_sbu_1, # of connection points: 6
#     Edge 6, Type (0, 1), BuildingBlock: CIFDUS_clean_linker_0, # of connection points: 2
#     Edge 7, Type (0, 1), BuildingBlock: CIFDUS_clean_linker_0, # of connection points: 2
#     Edge 8, Type (0, 1), BuildingBlock: CIFDUS_clean_linker_0, # of connection points: 2
#     Edge 9, Type (0, 1), BuildingBlock: CIFDUS_clean_linker_0, # of connection points: 2
#     Edge 10, Type (0, 1), BuildingBlock: CIFDUS_clean_linker_0, # of connection points: 2
#     Edge 11, Type (0, 1), BuildingBlock: CIFDUS_clean_linker_0, # of connection points: 2
#     Edge 12, Type (0, 1), BuildingBlock: CIFDUS_clean_linker_0, # of connection points: 2
#     Edge 13, Type (0, 1), BuildingBlock: CIFDUS_clean_linker_0, # of connection points: 2
#     Edge 14, Type (0, 1), BuildingBlock: CIFDUS_clean_linker_0, # of connection points: 2
#     Edge 15, Type (0, 1), BuildingBlock: CIFDUS_clean_linker_0, # of connection points: 2
#     Edge 16, Type (0, 1), BuildingBlock: CIFDUS_clean_linker_0, # of connection points: 2
#     Edge 17, Type (0, 1), BuildingBlock: CIFDUS_clean_linker_0, # of connection points: 2
# Relax obj value: 0.023
# Max RMSD: 0.060
# Mean RMSD: 0.042
data_MOF--net-rtl--node1-LEVNOQ01_clean_sbu_1--node2-BELTOD_clean_linker_0--edge1-CIFDUS_clean_linker_0
_symmetry_space_group_name_H-M    P1
_symmetry_Int_Tables_number       1
_symmetry_cell_setting            triclinic
loop_
_symmetry_equiv_pos_as_xyz
'x, y, z'
_cell_length_a     31.484008
_cell_length_b     35.408049
_cell_length_c     24.219324
_cell_angle_alpha  89.319353
_cell_angle_beta   98.619342
_cell_angle_gamma 89.856821
loop_
_atom_site_label
_atom_site_type_symbol
_atom_site_fract_x
_atom_site_fract_y
_atom_site_fract_z
_atom_type_partial_charge
P0 P 0.2928 0.90482 0.10145 0.0
H1 H 0.30884 0.94697 0.20535 0.0
H2 H 0.26591 0.95799 0.27999 0.0
H3 H 0.16639 0.88602 0.19642 0.0
H4 H 0.20941 0.87535 0.12183 0.0
H5 H 0.37601 0.88713 0.07032 0.0
H6 H 0.42075 0.83091 0.08056 0.0
H7 H 0.33199 0.77711 0.17677 0.0
H8 H 0.28596 0.83313 0.16307 0.0
H9 H 0.2102 0.93877 0.05257 0.0
H10 H 0.30461 0.86438 0.99941 0.0
O11 O 0.32333 0.94302 0.09836 0.0
H12 H 0.17085 0.94024 0.95726 0.0
H13 H 0.26598 0.86655 0.90434 0.0
C14 C 0.26163 0.91133 0.15723 0.0
C15 C 0.27772 0.93365 0.20307 0.0
C16 C 0.25335 0.93966 0.24597 0.0
C17 C 0.21252 0.92329 0.24375 0.0
C18 C 0.19734 0.89968 0.19873 0.0
C19 C 0.22184 0.89356 0.15606 0.0
C20 C 0.32783 0.86447 0.11618 0.0
C21 C 0.36646 0.86342 0.09425 0.0
C22 C 0.39231 0.83116 0.10072 0.0
C23 C 0.38044 0.7992 0.13005 0.0
C24 C 0.3421 0.80086 0.15344 0.0
C25 C 0.31582 0.83307 0.14603 0.0
C26 C 0.25991 0.90073 0.03382 0.0
C27 C 0.22188 0.92191 0.02095 0.0
C28 C 0.19939 0.92277 0.96644 0.0
C29 C 0.21523 0.9033 0.9235 0.0
C30 C 0.25295 0.88169 0.93666 0.0
C31 C 0.27501 0.88039 0.99125 0.0
P32 P 0.79809 0.58828 0.60031 0.0
H33 H 0.80079 0.56911 0.48389 0.0
H34 H 0.74463 0.55776 0.40439 0.0
H35 H 0.64769 0.58064 0.50851 0.0
H36 H 0.70396 0.59147 0.58779 0.0
H37 H 0.88121 0.62576 0.59883 0.0
H38 H 0.90065 0.69204 0.58826 0.0
H39 H 0.76807 0.72446 0.58744 0.0
H40 H 0.74876 0.65818 0.59566 0.0
H41 H 0.76848 0.5178 0.64431 0.0
H42 H 0.78554 0.63299 0.69886 0.0
O43 O 0.84012 0.56054 0.59466 0.0
H44 H 0.73754 0.50204 0.72845 0.0
H45 H 0.75246 0.6184 0.78035 0.0
C46 C 0.75652 0.57998 0.54207 0.0
C47 C 0.76742 0.57145 0.4896 0.0
C48 C 0.73529 0.56539 0.44406 0.0
C49 C 0.69163 0.56801 0.45019 0.0
C50 C 0.68096 0.57771 0.50262 0.0
C51 C 0.71312 0.58386 0.54802 0.0
C52 C 0.81346 0.6371 0.5973 0.0
C53 C 0.8564 0.64718 0.59658 0.0
C54 C 0.86756 0.68514 0.59115 0.0
C55 C 0.83588 0.71358 0.58664 0.0
C56 C 0.79315 0.70326 0.58976 0.0
C57 C 0.78203 0.66538 0.59452 0.0
C58 C 0.77891 0.5766 0.66486 0.0
C59 C 0.76565 0.53967 0.67446 0.0
C60 C 0.74764 0.53081 0.72243 0.0
C61 C 0.74214 0.55893 0.76144 0.0
C62 C 0.75671 0.59571 0.7521 0.0
C63 C 0.77518 0.60434 0.70463 0.0
P64 P 0.82755 0.21273 0.99214 0.0
H65 H 0.82473 0.21324 0.8719 0.0
H66 H 0.83286 0.16282 0.80665 0.0
H67 H 0.82069 0.07982 0.93561 0.0
H68 H 0.81295 0.13062 1.0009 0.0
H69 H 0.82067 0.29307 0.01121 0.0
H70 H 0.75977 0.33611 0.0077 0.0
H71 H 0.6728 0.24381 0.9604 0.0
H72 H 0.73437 0.20061 0.96462 0.0
H73 H 0.90371 0.17252 0.04305 0.0
H74 H 0.78469 0.20955 0.09294 0.0
O75 O 0.8691 0.23819 0.97754 0.0
H76 H 0.92632 0.14546 0.13589 0.0
H77 H 0.80758 0.18338 0.18678 0.0
C78 C 0.81963 0.17567 0.94153 0.0
C79 C 0.82258 0.18418 0.88566 0.0
C80 C 0.82689 0.15522 0.84824 0.0
C81 C 0.82825 0.11724 0.86625 0.0
C82 C 0.82063 0.10882 0.92083 0.0
C83 C 0.81625 0.13788 0.95822 0.0
C84 C 0.78196 0.24386 0.9873 0.0
C85 C 0.78853 0.28215 0.99943 0.0
C86 C 0.75367 0.3068 0.99704 0.0
C87 C 0.71145 0.29351 0.98304 0.0
C88 C 0.70495 0.25491 0.97124 0.0
C89 C 0.74003 0.23024 0.97345 0.0
C90 C 0.84285 0.19341 0.06137 0.0
C91 C 0.88264 0.17514 0.07431 0.0
C92 C 0.89563 0.1599 0.12756 0.0
C93 C 0.86904 0.16268 0.16914 0.0
C94 C 0.82878 0.18065 0.15573 0.0
C95 C 0.81574 0.19583 0.10216 0.0
P96 P 0.2721 0.3547 0.48262 0.0
H97 H 0.27318 0.32934 0.5973 0.0
H98 H 0.28485 0.36205 0.68664 0.0
H99 H 0.29251 0.46823 0.59855 0.0
H100 H 0.27865 0.43574 0.51012 0.0
H101 H 0.25976 0.27586 0.45002 0.0
H102 H 0.2012 0.23187 0.45557 0.0
H103 H 0.12338 0.32317 0.50349 0.0
H104 H 0.18304 0.3669 0.49949 0.0
H105 H 0.33821 0.40278 0.44968 0.0
H106 H 0.20711 0.37468 0.38505 0.0
O107 O 0.31604 0.32767 0.48751 0.0
H108 H 0.34337 0.44007 0.36579 0.0
H109 H 0.21197 0.41222 0.3006 0.0
C110 C 0.27541 0.38 0.5471 0.0
C111 C 0.27665 0.35977 0.59741 0.0
C112 C 0.28364 0.37849 0.64845 0.0
C113 C 0.28997 0.41782 0.65004 0.0
C114 C 0.28719 0.43805 0.59918 0.0
C115 C 0.27976 0.41934 0.54825 0.0
C116 C 0.22597 0.32436 0.4757 0.0
C117 C 0.22989 0.28654 0.46094 0.0
C118 C 0.1961 0.26144 0.46352 0.0
C119 C 0.15766 0.27387 0.48056 0.0
C120 C 0.15282 0.31255 0.49117 0.0
C121 C 0.18678 0.33759 0.48881 0.0
C122 C 0.27251 0.3857 0.42331 0.0
C123 C 0.31028 0.4052 0.41772 0.0
C124 C 0.31299 0.42688 0.36996 0.0
C125 C 0.27799 0.42924 0.32653 0.0
C126 C 0.23949 0.41084 0.33328 0.0
C127 C 0.23672 0.38932 0.38149 0.0
O128 O 0.99109 0.02809 0.66805 0.0
Mg129 Mg 0.03938 0.03168 0.61519 0.0
O130 O 0.94495 0.01911 0.5926 0.0
Mg131 Mg 0.99462 -0.00274 0.53889 0.0
O132 O 0.03061 0.05672 0.53772 0.0
O133 O 0.05835 0.08583 0.61692 0.0
O134 O 0.04203 0.97542 0.48097 0.0
O135 O 0.95717 0.03488 0.46383 0.0
Mg136 Mg 0.94403 0.96892 0.46843 0.0
O137 O 0.95668 0.93763 0.54014 0.0
O138 O 0.9894 0.96869 0.4116 0.0
O139 O 0.89413 0.00943 0.45672 0.0
O140 O 0.91445 0.91907 0.46206 0.0
C141 C 0.07437 0.96609 0.63977 0.0
C142 C 0.95259 0.02604 0.64441 0.0
C143 C 0.04817 0.0862 0.5634 0.0
C144 C 0.02931 0.9693 0.42939 0.0
C145 C 0.91717 0.03649 0.44514 0.0
C146 C 0.93087 0.91297 0.51334 0.0
O147 O 0.0931 -0.00341 0.63209 0.0
O148 O 0.0354 0.96228 0.61635 0.0
O149 O 0.51268 0.49495 0.17395 0.0
Mg150 Mg 0.48082 0.46189 0.10596 0.0
O151 O 0.54025 0.53231 0.11543 0.0
Mg152 Mg 0.49185 0.51533 0.03884 0.0
O153 O 0.51651 0.45091 0.04521 0.0
O154 O 0.50351 0.40863 0.11054 0.0
O155 O 0.4424 0.49623 0.96299 0.0
O156 O 0.54699 0.51793 0.98365 0.0
Mg157 Mg 0.47501 0.57845 0.94426 0.0
O158 O 0.4733 0.57832 0.02821 0.0
O159 O 0.42506 0.54407 0.90398 0.0
O160 O 0.53726 0.56762 0.92635 0.0
O161 O 0.46083 0.63 0.97456 0.0
C162 C 0.40555 0.49324 0.09584 0.0
C163 C 0.53857 0.52108 0.16524 0.0
C164 C 0.52107 0.41708 0.06724 0.0
C165 C 0.42028 0.51005 0.91884 0.0
C166 C 0.55929 0.53934 0.94638 0.0
C167 C 0.46281 0.61376 0.02284 0.0
O168 O 0.41363 0.46013 0.08248 0.0
O169 O 0.43464 0.51788 0.09366 0.0
H170 H 0.12915 0.20991 0.42386 0.0
H171 H 0.11541 0.27428 0.57063 0.0
H172 H 0.07456 0.22332 0.60492 0.0
H173 H 0.05238 0.15743 0.60058 0.0
H174 H 0.06733 0.09101 0.45665 0.0
H175 H 0.09791 0.14578 0.41378 0.0
C176 C 0.11675 0.21292 0.46301 0.0
C177 C 0.12584 0.24581 0.49483 0.0
C178 C 0.09403 0.18295 0.48339 0.0
C179 C 0.10874 0.24956 0.54492 0.0
C180 C 0.0857 0.22021 0.56498 0.0
C181 C 0.06181 0.15508 0.55945 0.0
C182 C 0.05857 0.12016 0.53226 0.0
C183 C 0.07965 0.18633 0.53564 0.0
C184 C 0.06987 0.11762 0.4785 0.0
C185 C 0.08756 0.14885 0.4542 0.0
H186 H 0.35154 0.72602 0.12692 0.0
H187 H 0.46796 0.79163 0.1369 0.0
H188 H 0.50727 0.73593 0.11478 0.0
H189 H 0.50469 0.67241 0.07433 0.0
H190 H 0.38974 0.60611 0.06792 0.0
H191 H 0.35418 0.65782 0.10967 0.0
C192 C 0.3858 0.72809 0.12634 0.0
C193 C 0.40619 0.7636 0.13133 0.0
C194 C 0.40854 0.69571 0.11429 0.0
C195 C 0.45081 0.76519 0.13068 0.0
C196 C 0.47353 0.73322 0.11849 0.0
C197 C 0.47258 0.66875 0.08471 0.0
C198 C 0.4497 0.63581 0.06831 0.0
C199 C 0.4522 0.69886 0.10746 0.0
C200 C 0.40798 0.63121 0.08099 0.0
C201 C 0.38748 0.661 0.10398 0.0
H202 H 0.90679 0.75515 0.62937 0.0
H203 H 0.78867 0.76111 0.51279 0.0
H204 H 0.80644 0.82435 0.48452 0.0
H205 H 0.85703 0.87582 0.48705 0.0
H206 H 0.97641 0.87192 0.60047 0.0
H207 H 0.95665 0.80997 0.63599 0.0
C208 C 0.88498 0.77038 0.59787 0.0
C209 C 0.84637 0.75327 0.57335 0.0
C210 C 0.8957 0.80691 0.58099 0.0
C211 C 0.81821 0.77362 0.53309 0.0
C212 C 0.82849 0.80975 0.51646 0.0
C213 C 0.87879 0.86153 0.51973 0.0
C214 C 0.91839 0.87801 0.54052 0.0
C215 C 0.86736 0.82631 0.53936 0.0
C216 C 0.94577 0.85963 0.58371 0.0
C217 C 0.93455 0.82419 0.60373 0.0
H218 H 0.63898 0.27988 0.02785 0.0
H219 H 0.70167 0.36604 0.94229 0.0
H220 H 0.64562 0.41149 0.95581 0.0
H221 H 0.58236 0.42812 0.99983 0.0
H222 H 0.52148 0.3415 0.08716 0.0
H223 H 0.57262 0.29483 0.06397 0.0
C224 C 0.63989 0.30834 0.01103 0.0
C225 C 0.67461 0.3196 0.98452 0.0
C226 C 0.60794 0.33439 0.01956 0.0
C227 C 0.67558 0.35681 0.96364 0.0
C228 C 0.6435 0.3828 0.97123 0.0
C229 C 0.5799 0.39891 0.01293 0.0
C230 C 0.54845 0.38844 0.0457 0.0
C231 C 0.61006 0.37215 1.00038 0.0
C232 C 0.5457 0.35045 0.06244 0.0
C233 C 0.57496 0.32367 0.04925 0.0
H234 H 0.1281 0.94102 0.22594 0.0
H235 H 0.23523 0.92603 0.35781 0.0
H236 H 0.18873 0.94031 0.4276 0.0
H237 H 0.11642 0.95549 0.45096 0.0
H238 H 0.01036 0.96935 0.31662 0.0
H239 H 0.05756 0.95693 0.24843 0.0
C240 C 0.14124 0.94048 0.26999 0.0
C241 C 0.1849 0.93206 0.28665 0.0
C242 C 0.11443 0.94856 0.30961 0.0
C243 C 0.20167 0.93249 0.34386 0.0
C244 C 0.17507 0.94054 0.38378 0.0
C245 C 0.10378 0.95591 0.40677 0.0
C246 C 0.05976 0.96305 0.38918 0.0
C247 C 0.13124 0.94845 0.36716 0.0
C248 C 0.04394 0.96356 0.33164 0.0
C249 C 0.07092 0.9565 0.29237 0.0
H250 H 0.67406 0.51147 0.76448 0.0
H251 H 0.75675 0.58868 0.86693 0.0
H252 H 0.7096 0.58578 0.93795 0.0
H253 H 0.63942 0.56829 0.96454 0.0
H254 H 0.55914 0.48888 0.86447 0.0
H255 H 0.61162 0.48459 0.79975 0.0
C256 C 0.68274 0.52679 0.80297 0.0
C257 C 0.71843 0.55114 0.80929 0.0
C258 C 0.65583 0.52459 0.84418 0.0
C259 C 0.72868 0.57079 0.85974 0.0
C260 C 0.70189 0.56895 0.90072 0.0
C261 C 0.63441 0.54905 0.92965 0.0
C262 C 0.59598 0.5287 0.91911 0.0
C263 C 0.66455 0.54704 0.89245 0.0
C264 C 0.58902 0.50431 0.87349 0.0
C265 C 0.61876 0.5022 0.83625 0.0
H266 H 0.82107 0.12322 0.23488 0.0
H267 H 0.94925 0.16495 0.23069 0.0
H268 H 0.97466 0.13266 0.31904 0.0
H269 H 0.96177 0.08848 0.39352 0.0
H270 H 0.83364 0.0464 0.39733 0.0
H271 H 0.80679 0.08388 0.31419 0.0
C272 C 0.85437 0.12589 0.25379 0.0
C273 C 0.88326 0.14612 0.2257 0.0
C274 C 0.86885 0.10721 0.30469 0.0
C275 C 0.92646 0.14891 0.25072 0.0
C276 C 0.94101 0.13063 0.30146 0.0
C277 C 0.92782 0.08802 0.37679 0.0
C278 C 0.89987 0.06438 0.40139 0.0
C279 C 0.91268 0.10907 0.32825 0.0
C280 C 0.85596 0.06418 0.3791 0.0
C281 C 0.84057 0.08548 0.33134 0.0
H282 H 0.34288 0.39162 0.74236 0.0
H283 H 0.26606 0.48846 0.6794 0.0
H284 H 0.29689 0.52468 0.76053 0.0
H285 H 0.35156 0.53097 0.84345 0.0
H286 H 0.42646 0.43368 0.90823 0.0
H287 H 0.38926 0.39511 0.83311 0.0
C288 C 0.33187 0.42028 0.74693 0.0
C289 C 0.30283 0.43747 0.70397 0.0
C290 C 0.3495 0.44094 0.79395 0.0
C291 C 0.2893 0.4748 0.71087 0.0
C292 C 0.30674 0.49552 0.75744 0.0
C293 C 0.35922 0.50116 0.84161 0.0
C294 C 0.39214 0.48533 0.88071 0.0
C295 C 0.33789 0.47925 0.79823 0.0
C296 C 0.40129 0.44656 0.8785 0.0
C297 C 0.38024 0.42455 0.83533 0.0
H298 H 0.68685 0.58938 0.3405 0.0
H299 H 0.6195 0.52616 0.4536 0.0
H300 H 0.56498 0.5082 0.37608 0.0
H301 H 0.53848 0.50739 0.27586 0.0
H302 H 0.60572 0.56978 0.16172 0.0
H303 H 0.65813 0.59103 0.2399 0.0
C304 C 0.66027 0.57162 0.34811 0.0
C305 C 0.65742 0.55904 0.40285 0.0
C306 C 0.62905 0.56112 0.30315 0.0
C307 C 0.62233 0.53657 0.41208 0.0
C308 C 0.59124 0.52606 0.36769 0.0
C309 C 0.56444 0.5258 0.26797 0.0
C310 C 0.56829 0.53667 0.21285 0.0
C311 C 0.59456 0.53777 0.31301 0.0
C312 C 0.60198 0.56086 0.20365 0.0
C313 C 0.63207 0.57295 0.24835 0.0
H314 H 0.80907 0.10644 0.7534 0.0
H315 H 0.88758 0.06302 0.90222 0.0
H316 H 0.92955 0.02613 0.84565 0.0
H317 H 0.95196 0.01516 0.75467 0.0
H318 H 0.87515 0.0588 0.60509 0.0
H319 H 0.82458 0.08653 0.66097 0.0
C320 C 0.83484 0.08832 0.77336 0.0
C321 C 0.84549 0.088 0.83196 0.0
C322 C 0.8597 0.06775 0.74044 0.0
C323 C 0.87844 0.06378 0.85729 0.0
C324 C 0.90289 0.04296 0.82493 0.0
C325 C 0.92368 0.03016 0.7343 0.0
C326 C 0.91765 0.03566 0.67615 0.0
C327 C 0.89505 0.04612 0.7666 0.0
C328 C 0.88054 0.05444 0.64995 0.0
C329 C 0.85178 0.07047 0.6819 0.0
H330 H 0.31812 0.49544 0.30744 0.0
H331 H 0.25281 0.40055 0.22308 0.0
H332 H 0.27911 0.41862 0.13705 0.0
H333 H 0.33303 0.45247 0.09296 0.0
H334 H 0.40241 0.54483 0.17845 0.0
H335 H 0.36148 0.53737 0.25605 0.0
C336 C 0.30892 0.47925 0.26983 0.0
C337 C 0.28427 0.44626 0.27201 0.0
C338 C 0.32529 0.48914 0.22078 0.0
C339 C 0.27174 0.42603 0.22269 0.0
C340 C 0.28712 0.43615 0.1735 0.0
C341 C 0.33817 0.47177 0.12778 0.0
C342 C 0.37135 0.49849 0.1307 0.0
C343 C 0.31572 0.46638 0.17302 0.0
C344 C 0.37726 0.5238 0.17543 0.0
C345 C 0.35421 0.51924 0.22016 0.0
H346 H 0.13069 0.89568 0.87808 0.0
H347 H 0.25534 0.92403 0.83651 0.0
H348 H 0.22305 0.94042 0.74128 0.0
H349 H 0.15884 0.95364 0.67335 0.0
H350 H 0.03374 0.92535 0.71306 0.0
H351 H 0.06667 0.90094 0.80469 0.0
C352 C 0.15069 0.90501 0.84783 0.0
C353 C 0.19529 0.9089 0.86437 0.0
C354 C 0.13186 0.91423 0.79278 0.0
C355 C 0.22099 0.92065 0.82473 0.0
C356 C 0.20254 0.93015 0.77031 0.0
C357 C 0.13888 0.94116 0.7015 0.0
C358 C 0.09395 0.94146 0.6866 0.0
C359 C 0.15796 0.92788 0.75428 0.0
C360 C 0.06843 0.92515 0.72333 0.0
C361 C 0.08724 0.91168 0.77606 0.0
loop_
_geom_bond_atom_site_label_1
_geom_bond_atom_site_label_2
_geom_bond_distance
_geom_bond_site_symmetry_2
_ccdc_geom_bond_type
P0 O11 1.490 . S
P0 C14 1.812 . S
P0 C20 1.803 . S
P0 C26 1.819 . S
H1 C15 0.941 . S
H2 C16 0.939 . S
H3 C18 0.940 . S
H4 C19 0.940 . S
H5 C21 0.939 . S
H6 C22 0.942 . S
H7 C24 0.940 . S
H8 C25 0.939 . S
H9 C27 0.941 . S
H10 C31 0.938 1_554 S
O11 P0 1.490 . S
H12 C28 0.939 . S
H13 C30 0.940 . S
C14 P0 1.812 . S
C14 C15 1.389 . S
C14 C19 1.391 . S
C15 H1 0.941 . S
C15 C14 1.389 . S
C15 C16 1.397 . S
C16 H2 0.939 . S
C16 C15 1.397 . S
C16 C17 1.378 . S
C17 C16 1.378 . S
C17 C18 1.378 . S
C18 H3 0.940 . S
C18 C17 1.378 . S
C18 C19 1.396 . S
C19 H4 0.940 . S
C19 C14 1.391 . S
C19 C18 1.396 . S
C20 P0 1.803 . S
C20 C21 1.378 . S
C20 C25 1.400 . S
C21 H5 0.939 . S
C21 C20 1.378 . S
C21 C22 1.361 . S
C22 H6 0.942 . S
C22 C21 1.361 . S
C22 C23 1.369 . S
C23 C22 1.369 . S
C23 C24 1.404 . S
C24 H7 0.940 . S
C24 C23 1.404 . S
C24 C25 1.389 . S
C25 H8 0.939 . S
C25 C20 1.400 . S
C25 C24 1.389 . S
C26 P0 1.819 . S
C26 C27 1.391 . S
C26 C31 1.391 1_554 S
C27 H9 0.941 . S
C27 C26 1.391 . S
C27 C28 1.396 1_554 S
C28 H12 0.939 . S
C28 C27 1.396 1_556 S
C28 C29 1.397 . S
C29 C28 1.397 . S
C29 C30 1.385 . S
C30 H13 0.940 . S
C30 C29 1.385 . S
C30 C31 1.388 . S
C31 H10 0.938 1_556 S
C31 C26 1.391 1_556 S
C31 C30 1.388 . S
P32 O43 1.490 . S
P32 C46 1.812 . S
P32 C52 1.803 . S
P32 C58 1.819 . S
H33 C47 0.941 . S
H34 C48 0.939 . S
H35 C50 0.940 . S
H36 C51 0.940 . S
H37 C53 0.939 . S
H38 C54 0.942 . S
H39 C56 0.940 . S
H40 C57 0.939 . S
H41 C59 0.941 . S
H42 C63 0.939 . S
O43 P32 1.490 . S
H44 C60 0.939 . S
H45 C62 0.940 . S
C46 P32 1.812 . S
C46 C47 1.389 . S
C46 C51 1.391 . S
C47 H33 0.941 . S
C47 C46 1.389 . S
C47 C48 1.397 . S
C48 H34 0.939 . S
C48 C47 1.397 . S
C48 C49 1.378 . S
C49 C48 1.378 . S
C49 C50 1.378 . S
C50 H35 0.940 . S
C50 C49 1.378 . S
C50 C51 1.396 . S
C51 H36 0.940 . S
C51 C46 1.391 . S
C51 C50 1.396 . S
C52 P32 1.803 . S
C52 C53 1.378 . S
C52 C57 1.400 . S
C53 H37 0.939 . S
C53 C52 1.378 . S
C53 C54 1.361 . S
C54 H38 0.942 . S
C54 C53 1.361 . S
C54 C55 1.369 . S
C55 C54 1.369 . S
C55 C56 1.404 . S
C56 H39 0.940 . S
C56 C55 1.404 . S
C56 C57 1.389 . S
C57 H40 0.939 . S
C57 C52 1.400 . S
C57 C56 1.389 . S
C58 P32 1.819 . S
C58 C59 1.391 . S
C58 C63 1.391 . S
C59 H41 0.941 . S
C59 C58 1.391 . S
C59 C60 1.396 . S
C60 H44 0.939 . S
C60 C59 1.396 . S
C60 C61 1.397 . S
C61 C60 1.397 . S
C61 C62 1.385 . S
C62 H45 0.940 . S
C62 C61 1.385 . S
C62 C63 1.388 . S
C63 H42 0.939 . S
C63 C58 1.391 . S
C63 C62 1.388 . S
P64 O75 1.490 . S
P64 C78 1.812 1_554 S
P64 C84 1.803 1_554 S
P64 C90 1.819 . S
H65 C79 0.941 . S
H66 C80 0.939 . S
H67 C82 0.940 . S
H68 C83 0.940 . S
H69 C85 0.939 . S
H70 C86 0.942 . S
H71 C88 0.940 . S
H72 C89 0.939 . S
H73 C91 0.941 . S
H74 C95 0.939 . S
O75 P64 1.490 . S
H76 C92 0.939 . S
H77 C94 0.940 . S
C78 P64 1.812 1_556 S
C78 C79 1.389 . S
C78 C83 1.391 . S
C79 H65 0.941 . S
C79 C78 1.389 . S
C79 C80 1.397 . S
C80 H66 0.939 . S
C80 C79 1.397 . S
C80 C81 1.378 . S
C81 C80 1.378 . S
C81 C82 1.378 . S
C82 H67 0.940 . S
C82 C81 1.378 . S
C82 C83 1.396 . S
C83 H68 0.940 . S
C83 C78 1.391 . S
C83 C82 1.396 . S
C84 P64 1.803 1_556 S
C84 C85 1.378 1_556 S
C84 C89 1.400 . S
C85 H69 0.939 . S
C85 C84 1.378 1_554 S
C85 C86 1.361 . S
C86 H70 0.942 . S
C86 C85 1.361 . S
C86 C87 1.369 1_554 S
C87 C86 1.369 1_556 S
C87 C88 1.404 . S
C88 H71 0.940 . S
C88 C87 1.404 . S
C88 C89 1.389 . S
C89 H72 0.939 . S
C89 C84 1.400 . S
C89 C88 1.389 . S
C90 P64 1.819 . S
C90 C91 1.391 . S
C90 C95 1.391 . S
C91 H73 0.941 . S
C91 C90 1.391 . S
C91 C92 1.396 . S
C92 H76 0.939 . S
C92 C91 1.396 . S
C92 C93 1.397 . S
C93 C92 1.397 . S
C93 C94 1.385 . S
C94 H77 0.940 . S
C94 C93 1.385 . S
C94 C95 1.388 . S
C95 H74 0.939 . S
C95 C90 1.391 . S
C95 C94 1.388 . S
P96 O107 1.490 . S
P96 C110 1.812 . S
P96 C116 1.803 . S
P96 C122 1.819 . S
H97 C111 0.941 . S
H98 C112 0.939 . S
H99 C114 0.940 . S
H100 C115 0.940 . S
H101 C117 0.939 . S
H102 C118 0.942 . S
H103 C120 0.940 . S
H104 C121 0.939 . S
H105 C123 0.941 . S
H106 C127 0.939 . S
O107 P96 1.490 . S
H108 C124 0.939 . S
H109 C126 0.940 . S
C110 P96 1.812 . S
C110 C111 1.389 . S
C110 C115 1.391 . S
C111 H97 0.941 . S
C111 C110 1.389 . S
C111 C112 1.397 . S
C112 H98 0.939 . S
C112 C111 1.397 . S
C112 C113 1.378 . S
C113 C112 1.378 . S
C113 C114 1.378 . S
C114 H99 0.940 . S
C114 C113 1.378 . S
C114 C115 1.396 . S
C115 H100 0.940 . S
C115 C110 1.391 . S
C115 C114 1.396 . S
C116 P96 1.803 . S
C116 C117 1.378 . S
C116 C121 1.400 . S
C117 H101 0.939 . S
C117 C116 1.378 . S
C117 C118 1.361 . S
C118 H102 0.942 . S
C118 C117 1.361 . S
C118 C119 1.369 . S
C119 C118 1.369 . S
C119 C120 1.404 . S
C120 H103 0.940 . S
C120 C119 1.404 . S
C120 C121 1.389 . S
C121 H104 0.939 . S
C121 C116 1.400 . S
C121 C120 1.389 . S
C122 P96 1.819 . S
C122 C123 1.391 . S
C122 C127 1.391 . S
C123 H105 0.941 . S
C123 C122 1.391 . S
C123 C124 1.396 . S
C124 H108 0.939 . S
C124 C123 1.396 . S
C124 C125 1.397 . S
C125 C124 1.397 . S
C125 C126 1.385 . S
C126 H109 0.940 . S
C126 C125 1.385 . S
C126 C127 1.388 . S
C127 H106 0.939 . S
C127 C122 1.391 . S
C127 C126 1.388 . S
O128 Mg129 1.990 1_655 S
O128 C142 1.253 . S
Mg129 O128 1.990 1_455 S
Mg129 O132 2.180 . S
Mg129 O133 2.117 . S
Mg129 O147 2.030 . S
O130 Mg131 2.072 1_655 S
O130 C142 1.260 . S
Mg131 O130 2.072 1_455 S
Mg131 O132 2.099 . S
Mg131 O134 2.079 1_545 S
Mg131 O135 2.072 1_455 S
Mg131 O137 2.099 1_445 S
Mg131 O148 2.079 1_545 S
O132 Mg129 2.180 . S
O132 Mg131 2.099 . S
O132 C143 1.279 . S
O133 Mg129 2.117 . S
O133 C143 1.250 . S
O134 Mg131 2.079 1_565 S
O134 C144 1.264 . S
O135 Mg131 2.072 1_655 S
O135 C145 1.260 . S
Mg136 O137 2.180 . S
Mg136 O138 2.030 1_655 S
Mg136 O139 1.990 1_565 S
Mg136 O140 2.117 . S
O137 Mg131 2.099 1_665 S
O137 Mg136 2.180 . S
O137 C146 1.279 . S
O138 Mg136 2.030 1_455 S
O138 C144 1.248 . S
O139 Mg136 1.990 1_545 S
O139 C145 1.253 . S
O140 Mg136 2.117 . S
O140 C146 1.250 . S
C141 O147 1.248 1_565 S
C141 O148 1.264 . S
C142 O128 1.253 . S
C142 O130 1.260 . S
C143 O132 1.279 . S
C143 O133 1.250 . S
C144 O134 1.264 . S
C144 O138 1.248 . S
C145 O135 1.260 . S
C145 O139 1.253 . S
C146 O137 1.279 . S
C146 O140 1.250 . S
O147 Mg129 2.030 . S
O147 C141 1.248 1_545 S
O148 Mg131 2.079 1_565 S
O148 C141 1.264 . S
O149 Mg150 1.990 . S
O149 C163 1.253 . S
Mg150 O149 1.990 . S
Mg150 O153 2.180 . S
Mg150 O154 2.117 . S
Mg150 O168 2.030 . S
O151 Mg152 2.072 . S
O151 C163 1.260 . S
Mg152 O151 2.072 . S
Mg152 O153 2.099 . S
Mg152 O155 2.079 1_554 S
Mg152 O156 2.072 1_554 S
Mg152 O158 2.099 . S
Mg152 O169 2.079 . S
O153 Mg150 2.180 . S
O153 Mg152 2.099 . S
O153 C164 1.279 . S
O154 Mg150 2.117 . S
O154 C164 1.250 . S
O155 Mg152 2.079 1_556 S
O155 C165 1.264 . S
O156 Mg152 2.072 1_556 S
O156 C166 1.260 . S
Mg157 O158 2.180 1_556 S
Mg157 O159 2.030 . S
Mg157 O160 1.990 . S
Mg157 O161 2.117 . S
O158 Mg152 2.099 . S
O158 Mg157 2.180 1_554 S
O158 C167 1.279 . S
O159 Mg157 2.030 . S
O159 C165 1.248 . S
O160 Mg157 1.990 . S
O160 C166 1.253 . S
O161 Mg157 2.117 . S
O161 C167 1.250 1_556 S
C162 O168 1.248 . S
C162 O169 1.264 . S
C163 O149 1.253 . S
C163 O151 1.260 . S
C164 O153 1.279 . S
C164 O154 1.250 . S
C165 O155 1.264 . S
C165 O159 1.248 . S
C166 O156 1.260 . S
C166 O160 1.253 . S
C167 O158 1.279 . S
C167 O161 1.250 1_554 S
O168 Mg150 2.030 . S
O168 C162 1.248 . S
O169 Mg152 2.079 . S
O169 C162 1.264 . S
H170 C176 0.930 . S
H171 C179 0.930 . S
H172 C180 0.930 . S
H173 C181 0.930 . S
H174 C184 0.930 . S
H175 C185 0.930 . S
C176 H170 0.930 . S
C176 C177 1.355 . S
C176 C178 1.415 . S
C177 C176 1.355 . S
C177 C179 1.419 . S
C178 C176 1.415 . S
C178 C183 1.425 . S
C178 C185 1.409 . S
C179 H171 0.930 . S
C179 C177 1.419 . S
C179 C180 1.362 . S
C180 H172 0.930 . S
C180 C179 1.362 . S
C180 C183 1.409 . S
C181 H173 0.930 . S
C181 C182 1.355 . S
C181 C183 1.415 . S
C182 C181 1.355 . S
C182 C184 1.419 . S
C183 C178 1.425 . S
C183 C180 1.409 . S
C183 C181 1.415 . S
C184 H174 0.930 . S
C184 C182 1.419 . S
C184 C185 1.362 . S
C185 H175 0.930 . S
C185 C178 1.409 . S
C185 C184 1.362 . S
H186 C192 0.930 . S
H187 C195 0.930 . S
H188 C196 0.930 . S
H189 C197 0.930 . S
H190 C200 0.930 1_556 S
H191 C201 0.930 1_556 S
C192 H186 0.930 . S
C192 C193 1.355 . S
C192 C194 1.415 . S
C193 C192 1.355 . S
C193 C195 1.419 . S
C194 C192 1.415 . S
C194 C199 1.425 . S
C194 C201 1.409 . S
C195 H187 0.930 . S
C195 C193 1.419 . S
C195 C196 1.362 . S
C196 H188 0.930 . S
C196 C195 1.362 . S
C196 C199 1.409 . S
C197 H189 0.930 . S
C197 C198 1.355 . S
C197 C199 1.415 . S
C198 C197 1.355 . S
C198 C200 1.419 . S
C199 C194 1.425 . S
C199 C196 1.409 . S
C199 C197 1.415 . S
C200 H190 0.930 1_554 S
C200 C198 1.419 . S
C200 C201 1.362 . S
C201 H191 0.930 1_554 S
C201 C194 1.409 . S
C201 C200 1.362 . S
H202 C208 0.930 . S
H203 C211 0.930 . S
H204 C212 0.930 . S
H205 C213 0.930 . S
H206 C216 0.930 . S
H207 C217 0.930 . S
C208 H202 0.930 . S
C208 C209 1.355 . S
C208 C210 1.415 . S
C209 C208 1.355 . S
C209 C211 1.419 . S
C210 C208 1.415 . S
C210 C215 1.425 . S
C210 C217 1.409 . S
C211 H203 0.930 . S
C211 C209 1.419 . S
C211 C212 1.362 . S
C212 H204 0.930 . S
C212 C211 1.362 . S
C212 C215 1.409 . S
C213 H205 0.930 . S
C213 C214 1.355 . S
C213 C215 1.415 . S
C214 C213 1.355 . S
C214 C216 1.419 . S
C215 C210 1.425 . S
C215 C212 1.409 . S
C215 C213 1.415 . S
C216 H206 0.930 . S
C216 C214 1.419 . S
C216 C217 1.362 . S
C217 H207 0.930 . S
C217 C210 1.409 . S
C217 C216 1.362 . S
H218 C224 0.930 . S
H219 C227 0.930 . S
H220 C228 0.930 . S
H221 C229 0.930 . S
H222 C232 0.930 . S
H223 C233 0.930 . S
C224 H218 0.930 . S
C224 C225 1.355 1_554 S
C224 C226 1.415 . S
C225 C224 1.355 1_556 S
C225 C227 1.419 . S
C226 C224 1.415 . S
C226 C231 1.425 1_554 S
C226 C233 1.409 . S
C227 H219 0.930 . S
C227 C225 1.419 . S
C227 C228 1.362 . S
C228 H220 0.930 . S
C228 C227 1.362 . S
C228 C231 1.409 . S
C229 H221 0.930 . S
C229 C230 1.355 1_556 S
C229 C231 1.415 . S
C230 C229 1.355 1_554 S
C230 C232 1.419 . S
C231 C226 1.425 1_556 S
C231 C228 1.409 . S
C231 C229 1.415 . S
C232 H222 0.930 . S
C232 C230 1.419 . S
C232 C233 1.362 . S
C233 H223 0.930 . S
C233 C226 1.409 . S
C233 C232 1.362 . S
H234 C240 0.930 . S
H235 C243 0.930 . S
H236 C244 0.930 . S
H237 C245 0.930 . S
H238 C248 0.930 . S
H239 C249 0.930 . S
C240 H234 0.930 . S
C240 C241 1.355 . S
C240 C242 1.415 . S
C241 C240 1.355 . S
C241 C243 1.419 . S
C242 C240 1.415 . S
C242 C247 1.425 . S
C242 C249 1.409 . S
C243 H235 0.930 . S
C243 C241 1.419 . S
C243 C244 1.362 . S
C244 H236 0.930 . S
C244 C243 1.362 . S
C244 C247 1.409 . S
C245 H237 0.930 . S
C245 C246 1.355 . S
C245 C247 1.415 . S
C246 C245 1.355 . S
C246 C248 1.419 . S
C247 C242 1.425 . S
C247 C244 1.409 . S
C247 C245 1.415 . S
C248 H238 0.930 . S
C248 C246 1.419 . S
C248 C249 1.362 . S
C249 H239 0.930 . S
C249 C242 1.409 . S
C249 C248 1.362 . S
H250 C256 0.930 . S
H251 C259 0.930 . S
H252 C260 0.930 . S
H253 C261 0.930 . S
H254 C264 0.930 . S
H255 C265 0.930 . S
C256 H250 0.930 . S
C256 C257 1.355 . S
C256 C258 1.415 . S
C257 C256 1.355 . S
C257 C259 1.419 . S
C258 C256 1.415 . S
C258 C263 1.425 . S
C258 C265 1.409 . S
C259 H251 0.930 . S
C259 C257 1.419 . S
C259 C260 1.362 . S
C260 H252 0.930 . S
C260 C259 1.362 . S
C260 C263 1.409 . S
C261 H253 0.930 . S
C261 C262 1.355 . S
C261 C263 1.415 . S
C262 C261 1.355 . S
C262 C264 1.419 . S
C263 C258 1.425 . S
C263 C260 1.409 . S
C263 C261 1.415 . S
C264 H254 0.930 . S
C264 C262 1.419 . S
C264 C265 1.362 . S
C265 H255 0.930 . S
C265 C258 1.409 . S
C265 C264 1.362 . S
H266 C272 0.930 . S
H267 C275 0.930 . S
H268 C276 0.930 . S
H269 C277 0.930 . S
H270 C280 0.930 . S
H271 C281 0.930 . S
C272 H266 0.930 . S
C272 C273 1.355 . S
C272 C274 1.415 . S
C273 C272 1.355 . S
C273 C275 1.419 . S
C274 C272 1.415 . S
C274 C279 1.425 . S
C274 C281 1.409 . S
C275 H267 0.930 . S
C275 C273 1.419 . S
C275 C276 1.362 . S
C276 H268 0.930 . S
C276 C275 1.362 . S
C276 C279 1.409 . S
C277 H269 0.930 . S
C277 C278 1.355 . S
C277 C279 1.415 . S
C278 C277 1.355 . S
C278 C280 1.419 . S
C279 C274 1.425 . S
C279 C276 1.409 . S
C279 C277 1.415 . S
C280 H270 0.930 . S
C280 C278 1.419 . S
C280 C281 1.362 . S
C281 H271 0.930 . S
C281 C274 1.409 . S
C281 C280 1.362 . S
H282 C288 0.930 . S
H283 C291 0.930 . S
H284 C292 0.930 . S
H285 C293 0.930 . S
H286 C296 0.930 . S
H287 C297 0.930 . S
C288 H282 0.930 . S
C288 C289 1.355 . S
C288 C290 1.415 . S
C289 C288 1.355 . S
C289 C291 1.419 . S
C290 C288 1.415 . S
C290 C295 1.425 . S
C290 C297 1.409 . S
C291 H283 0.930 . S
C291 C289 1.419 . S
C291 C292 1.362 . S
C292 H284 0.930 . S
C292 C291 1.362 . S
C292 C295 1.409 . S
C293 H285 0.930 . S
C293 C294 1.355 . S
C293 C295 1.415 . S
C294 C293 1.355 . S
C294 C296 1.419 . S
C295 C290 1.425 . S
C295 C292 1.409 . S
C295 C293 1.415 . S
C296 H286 0.930 . S
C296 C294 1.419 . S
C296 C297 1.362 . S
C297 H287 0.930 . S
C297 C290 1.409 . S
C297 C296 1.362 . S
H298 C304 0.930 . S
H299 C307 0.930 . S
H300 C308 0.930 . S
H301 C309 0.930 . S
H302 C312 0.930 . S
H303 C313 0.930 . S
C304 H298 0.930 . S
C304 C305 1.355 . S
C304 C306 1.415 . S
C305 C304 1.355 . S
C305 C307 1.419 . S
C306 C304 1.415 . S
C306 C311 1.425 . S
C306 C313 1.409 . S
C307 H299 0.930 . S
C307 C305 1.419 . S
C307 C308 1.362 . S
C308 H300 0.930 . S
C308 C307 1.362 . S
C308 C311 1.409 . S
C309 H301 0.930 . S
C309 C310 1.355 . S
C309 C311 1.415 . S
C310 C309 1.355 . S
C310 C312 1.419 . S
C311 C306 1.425 . S
C311 C308 1.409 . S
C311 C309 1.415 . S
C312 H302 0.930 . S
C312 C310 1.419 . S
C312 C313 1.362 . S
C313 H303 0.930 . S
C313 C306 1.409 . S
C313 C312 1.362 . S
H314 C320 0.930 . S
H315 C323 0.930 . S
H316 C324 0.930 . S
H317 C325 0.930 . S
H318 C328 0.930 . S
H319 C329 0.930 . S
C320 H314 0.930 . S
C320 C321 1.355 . S
C320 C322 1.415 . S
C321 C320 1.355 . S
C321 C323 1.419 . S
C322 C320 1.415 . S
C322 C327 1.425 . S
C322 C329 1.409 . S
C323 H315 0.930 . S
C323 C321 1.419 . S
C323 C324 1.362 . S
C324 H316 0.930 . S
C324 C323 1.362 . S
C324 C327 1.409 . S
C325 H317 0.930 . S
C325 C326 1.355 . S
C325 C327 1.415 . S
C326 C325 1.355 . S
C326 C328 1.419 . S
C327 C322 1.425 . S
C327 C324 1.409 . S
C327 C325 1.415 . S
C328 H318 0.930 . S
C328 C326 1.419 . S
C328 C329 1.362 . S
C329 H319 0.930 . S
C329 C322 1.409 . S
C329 C328 1.362 . S
H330 C336 0.930 . S
H331 C339 0.930 . S
H332 C340 0.930 . S
H333 C341 0.930 . S
H334 C344 0.930 . S
H335 C345 0.930 . S
C336 H330 0.930 . S
C336 C337 1.355 . S
C336 C338 1.415 . S
C337 C336 1.355 . S
C337 C339 1.419 . S
C338 C336 1.415 . S
C338 C343 1.425 . S
C338 C345 1.409 . S
C339 H331 0.930 . S
C339 C337 1.419 . S
C339 C340 1.362 . S
C340 H332 0.930 . S
C340 C339 1.362 . S
C340 C343 1.409 . S
C341 H333 0.930 . S
C341 C342 1.355 . S
C341 C343 1.415 . S
C342 C341 1.355 . S
C342 C344 1.419 . S
C343 C338 1.425 . S
C343 C340 1.409 . S
C343 C341 1.415 . S
C344 H334 0.930 . S
C344 C342 1.419 . S
C344 C345 1.362 . S
C345 H335 0.930 . S
C345 C338 1.409 . S
C345 C344 1.362 . S
H346 C352 0.930 . S
H347 C355 0.930 . S
H348 C356 0.930 . S
H349 C357 0.930 . S
H350 C360 0.930 1_545 S
H351 C361 0.930 1_545 S
C352 H346 0.930 . S
C352 C353 1.355 . S
C352 C354 1.415 . S
C353 C352 1.355 . S
C353 C355 1.419 . S
C354 C352 1.415 . S
C354 C359 1.425 . S
C354 C361 1.409 . S
C355 H347 0.930 . S
C355 C353 1.419 . S
C355 C356 1.362 . S
C356 H348 0.930 . S
C356 C355 1.362 . S
C356 C359 1.409 . S
C357 H349 0.930 . S
C357 C358 1.355 . S
C357 C359 1.415 . S
C358 C357 1.355 . S
C358 C360 1.419 . S
C359 C354 1.425 . S
C359 C356 1.409 . S
C359 C357 1.415 . S
C360 H350 0.930 1_565 S
C360 C358 1.419 . S
C360 C361 1.362 . S
C361 H351 0.930 1_565 S
C361 C354 1.409 . S
C361 C360 1.362 . S
C182 C143 1.393 . S
C177 C119 1.427 . S
C193 C23 1.522 . S
C198 C167 1.259 . S
C209 C55 1.633 . S
C214 C146 1.457 . S
C225 C87 1.538 . S
C230 C164 1.361 . S
C246 C144 1.528 . S
C241 C17 1.583 . S
C262 C166 1.527 . S
C257 C61 1.585 . S
C273 C93 1.443 . S
C278 C145 1.460 . S
C289 C113 1.503 . S
C294 C165 1.487 . S
C310 C163 1.496 . S
C305 C49 1.580 . S
C326 C142 1.515 . S
C321 C81 1.540 . S
C342 C162 1.551 . S
C337 C125 1.474 . S
C353 C29 1.572 . S
C358 C141 1.444 . S
