# Generated by pormake.
# Topology pyr, (3,6)-cn, num edge types: 1
# Building blocks:
#     Node 0, Type 0, BuildingBlock: BETDAH_clean_linker_0, # of connection points: 3
#     Node 1, Type 0, BuildingBlock: BETDAH_clean_linker_0, # of connection points: 3
#     Node 2, Type 0, BuildingBlock: BETDAH_clean_linker_0, # of connection points: 3
#     Node 3, Type 0, BuildingBlock: BETDAH_clean_linker_0, # of connection points: 3
#     Node 4, Type 0, BuildingBlock: BETDAH_clean_linker_0, # of connection points: 3
#     Node 5, Type 0, BuildingBlock: BETDAH_clean_linker_0, # of connection points: 3
#     Node 6, Type 0, BuildingBlock: BETDAH_clean_linker_0, # of connection points: 3
#     Node 7, Type 0, BuildingBlock: BETDAH_clean_linker_0, # of connection points: 3
#     Node 8, Type 1, BuildingBlock: MIFKUJ_clean_sbu_0, # of connection points: 6
#     Node 9, Type 1, BuildingBlock: MIFKUJ_clean_sbu_0, # of connection points: 6
#     Node 10, Type 1, BuildingBlock: MIFKUJ_clean_sbu_0, # of connection points: 6
#     Node 11, Type 1, BuildingBlock: MIFKUJ_clean_sbu_0, # of connection points: 6
#     Edge 12, Type (0, 1), BuildingBlock: ZUJKAS_clean_linker_0, # of connection points: 2
#     Edge 13, Type (0, 1), BuildingBlock: ZUJKAS_clean_linker_0, # of connection points: 2
#     Edge 14, Type (0, 1), BuildingBlock: ZUJKAS_clean_linker_0, # of connection points: 2
#     Edge 15, Type (0, 1), BuildingBlock: ZUJKAS_clean_linker_0, # of connection points: 2
#     Edge 16, Type (0, 1), BuildingBlock: ZUJKAS_clean_linker_0, # of connection points: 2
#     Edge 17, Type (0, 1), BuildingBlock: ZUJKAS_clean_linker_0, # of connection points: 2
#     Edge 18, Type (0, 1), BuildingBlock: ZUJKAS_clean_linker_0, # of connection points: 2
#     Edge 19, Type (0, 1), BuildingBlock: ZUJKAS_clean_linker_0, # of connection points: 2
#     Edge 20, Type (0, 1), BuildingBlock: ZUJKAS_clean_linker_0, # of connection points: 2
#     Edge 21, Type (0, 1), BuildingBlock: ZUJKAS_clean_linker_0, # of connection points: 2
#     Edge 22, Type (0, 1), BuildingBlock: ZUJKAS_clean_linker_0, # of connection points: 2
#     Edge 23, Type (0, 1), BuildingBlock: ZUJKAS_clean_linker_0, # of connection points: 2
#     Edge 24, Type (0, 1), BuildingBlock: ZUJKAS_clean_linker_0, # of connection points: 2
#     Edge 25, Type (0, 1), BuildingBlock: ZUJKAS_clean_linker_0, # of connection points: 2
#     Edge 26, Type (0, 1), BuildingBlock: ZUJKAS_clean_linker_0, # of connection points: 2
#     Edge 27, Type (0, 1), BuildingBlock: ZUJKAS_clean_linker_0, # of connection points: 2
#     Edge 28, Type (0, 1), BuildingBlock: ZUJKAS_clean_linker_0, # of connection points: 2
#     Edge 29, Type (0, 1), BuildingBlock: ZUJKAS_clean_linker_0, # of connection points: 2
#     Edge 30, Type (0, 1), BuildingBlock: ZUJKAS_clean_linker_0, # of connection points: 2
#     Edge 31, Type (0, 1), BuildingBlock: ZUJKAS_clean_linker_0, # of connection points: 2
#     Edge 32, Type (0, 1), BuildingBlock: ZUJKAS_clean_linker_0, # of connection points: 2
#     Edge 33, Type (0, 1), BuildingBlock: ZUJKAS_clean_linker_0, # of connection points: 2
#     Edge 34, Type (0, 1), BuildingBlock: ZUJKAS_clean_linker_0, # of connection points: 2
#     Edge 35, Type (0, 1), BuildingBlock: ZUJKAS_clean_linker_0, # of connection points: 2
# Relax obj value: 0.054
# Max RMSD: 0.192
# Mean RMSD: 0.127
data_MOF--net-pyr--node1-MIFKUJ_clean_sbu_0--node2-BETDAH_clean_linker_0--edge1-ZUJKAS_clean_linker_0
_symmetry_space_group_name_H-M    P1
_symmetry_Int_Tables_number       1
_symmetry_cell_setting            triclinic
loop_
_symmetry_equiv_pos_as_xyz
'x, y, z'
_cell_length_a     49.187714
_cell_length_b     44.671078
_cell_length_c     50.262086
_cell_angle_alpha  86.654771
_cell_angle_beta   89.110986
_cell_angle_gamma 102.74871
loop_
_atom_site_label
_atom_site_type_symbol
_atom_site_fract_x
_atom_site_fract_y
_atom_site_fract_z
_atom_type_partial_charge
H0 H 0.21428 0.1563 0.21472 0.0
H1 H 0.22605 0.20808 0.13904 0.0
H2 H 0.15991 0.2167 0.19289 0.0
C3 C 0.20815 0.17269 0.2006 0.0
C4 C 0.18536 0.18556 0.20686 0.0
C5 C 0.2231 0.1807 0.17626 0.0
C6 C 0.21497 0.20187 0.15807 0.0
C7 C 0.19226 0.21479 0.16378 0.0
C8 C 0.17735 0.20657 0.18822 0.0
N9 N 0.18526 0.2359 0.14425 0.0
C10 C 0.16312 0.25042 0.14608 0.0
H11 H 0.39593 0.86135 0.74213 0.0
H12 H 0.35121 0.93295 0.75001 0.0
H13 H 0.33792 0.87761 0.68235 0.0
C14 C 0.38066 0.87376 0.73481 0.0
C15 C 0.36743 0.86615 0.71065 0.0
C16 C 0.37513 0.89789 0.74918 0.0
C17 C 0.35609 0.91452 0.73904 0.0
C18 C 0.34266 0.90747 0.71512 0.0
C19 C 0.34837 0.88327 0.7008 0.0
N20 N 0.32368 0.92558 0.70654 0.0
C21 C 0.30688 0.92181 0.68442 0.0
H22 H 0.69575 0.33767 0.89083 0.0
H23 H 0.69658 0.3926 0.81735 0.0
H24 H 0.6418 0.30331 0.82771 0.0
C25 C 0.68786 0.34074 0.87109 0.0
C26 C 0.66699 0.31738 0.86157 0.0
C27 C 0.69896 0.36785 0.85526 0.0
C28 C 0.68833 0.37182 0.82975 0.0
C29 C 0.66754 0.3485 0.82 0.0
C30 C 0.65739 0.32134 0.83573 0.0
N31 N 0.6571 0.35103 0.79404 0.0
C32 C 0.65352 0.3784 0.78155 0.0
H33 H 0.80704 0.71712 0.372 0.0
H34 H 0.85386 0.70662 0.30121 0.0
H35 H 0.77165 0.65028 0.31696 0.0
C36 C 0.80889 0.7057 0.35382 0.0
C37 C 0.7867 0.6824 0.34664 0.0
C38 C 0.83332 0.71453 0.33768 0.0
C39 C 0.83525 0.69981 0.31389 0.0
C40 C 0.81289 0.67647 0.30653 0.0
C41 C 0.78887 0.66804 0.32293 0.0
N42 N 0.81316 0.66133 0.28254 0.0
C43 C 0.83667 0.66109 0.26698 0.0
H44 H 0.88441 0.85025 0.79336 0.0
H45 H 0.82301 0.86121 0.8519 0.0
H46 H 0.83218 0.91419 0.77688 0.0
C47 C 0.86783 0.86107 0.79944 0.0
C48 C 0.85987 0.88303 0.78195 0.0
C49 C 0.85466 0.85295 0.8247 0.0
C50 C 0.83337 0.86741 0.83255 0.0
C51 C 0.82516 0.88939 0.81509 0.0
C52 C 0.8384 0.89691 0.78999 0.0
N53 N 0.8037 0.90454 0.82175 0.0
C54 C 0.78925 0.90124 0.84609 0.0
H55 H 0.70764 0.16648 0.34818 0.0
H56 H 0.71529 0.20891 0.42316 0.0
H57 H 0.64913 0.21988 0.37127 0.0
C58 C 0.70064 0.18089 0.36223 0.0
C59 C 0.67698 0.19283 0.35662 0.0
C60 C 0.71458 0.18626 0.38626 0.0
C61 C 0.70462 0.20406 0.40466 0.0
C62 C 0.68125 0.21633 0.39946 0.0
C63 C 0.6673 0.21059 0.37541 0.0
N64 N 0.67254 0.23395 0.41925 0.0
C65 C 0.652 0.25086 0.41681 0.0
H66 H 0.31258 0.69863 0.17776 0.0
H67 H 0.28837 0.6077 0.21583 0.0
H68 H 0.36239 0.66979 0.23982 0.0
C69 C 0.31598 0.68148 0.19275 0.0
C70 C 0.33963 0.68778 0.2086 0.0
C71 C 0.29747 0.65263 0.19507 0.0
C72 C 0.30261 0.63005 0.21367 0.0
C73 C 0.32554 0.63618 0.23018 0.0
C74 C 0.34423 0.66508 0.22753 0.0
N75 N 0.3293 0.61247 0.24883 0.0
C76 C 0.3454 0.61723 0.27129 0.0
H77 H 0.18248 0.33852 0.67427 0.0
H78 H 0.16134 0.40257 0.72736 0.0
H79 H 0.09785 0.32735 0.70307 0.0
C80 C 0.16717 0.34571 0.68669 0.0
C81 C 0.13927 0.32948 0.68704 0.0
C82 C 0.17529 0.37211 0.70107 0.0
C83 C 0.15518 0.38216 0.71632 0.0
C84 C 0.12718 0.36579 0.71712 0.0
C85 C 0.11946 0.33977 0.70235 0.0
N86 N 0.10598 0.37479 0.73214 0.0
C87 C 0.11031 0.39764 0.75021 0.0
Zn88 Zn 0.04663 0.01569 0.50237 0.0
Zn89 Zn 0.99321 0.03705 0.48126 0.0
C90 C 0.07479 0.07407 0.52 0.0
O91 O 0.09485 0.06883 0.50461 0.0
C92 C 0.96173 0.98006 0.4649 0.0
O93 O 0.94348 0.98708 0.48144 0.0
O94 O 0.07866 0.99633 0.51393 0.0
O95 O 0.01123 0.98733 0.51727 0.0
O96 O 0.99067 0.02595 0.52076 0.0
C97 C 0.08069 0.99064 0.53884 0.0
O98 O 0.06184 0.9968 0.55522 0.0
O99 O 0.05157 0.05467 0.52175 0.0
C100 C 0.95669 0.06549 0.44886 0.0
O101 O 0.97337 0.06058 0.42971 0.0
O102 O 0.96132 0.05777 0.47284 0.0
O103 O 0.02827 0.06461 0.46523 0.0
O104 O 0.05097 0.02744 0.46274 0.0
O105 O 0.98563 0.99801 0.46172 0.0
C106 C 0.99439 0.99994 0.52956 0.0
C107 C 0.04617 0.0529 0.45355 0.0
Zn108 Zn 0.54009 0.99383 0.03955 0.0
Zn109 Zn 0.50456 0.03873 0.0871 0.0
C110 C 0.50458 0.96459 1.00078 0.0
O111 O 0.51056 0.94107 0.01454 0.0
C112 C 0.5384 0.08543 0.11815 0.0
O113 O 0.53197 0.10441 0.09956 0.0
O114 O 0.57192 0.97589 0.0267 0.0
O115 O 0.55678 0.03779 0.04711 0.0
O116 O 0.52047 0.05866 0.05144 0.0
C117 C 0.58309 0.98642 0.0041 0.0
O118 O 0.57392 0.00842 0.99109 0.0
O119 O 0.5142 0.99152 0.00829 0.0
C120 C 0.45722 0.04869 0.11646 0.0
O121 O 0.46878 0.03528 0.1358 0.0
O122 O 0.46856 0.0522 0.09325 0.0
O123 O 0.4966 0.99261 0.09399 0.0
O124 O 0.52012 0.96599 0.06993 0.0
O125 O 0.52985 0.05661 0.11635 0.0
C126 C 0.54383 0.05852 0.04035 0.0
C127 C 0.50285 0.96741 0.08866 0.0
Zn128 Zn 0.50099 0.52185 0.53908 0.0
Zn129 Zn 0.4847 0.57495 0.57252 0.0
C130 C 0.53543 0.56026 0.49954 0.0
O131 O 0.51483 0.54682 0.48501 0.0
C132 C 0.44726 0.53655 0.61042 0.0
O133 O 0.46623 0.55025 0.6265 0.0
O134 O 0.50562 0.48297 0.52215 0.0
O135 O 0.50453 0.51459 0.57861 0.0
O136 O 0.51914 0.56309 0.58772 0.0
C137 C 0.52854 0.47497 0.52646 0.0
O138 O 0.54643 0.49127 0.54209 0.0
O139 O 0.53427 0.55391 0.52458 0.0
C140 C 0.45659 0.62225 0.58202 0.0
O141 O 0.44028 0.6063 0.56496 0.0
O142 O 0.47872 0.61373 0.58872 0.0
O143 O 0.48278 0.5825 0.53267 0.0
O144 O 0.46634 0.53386 0.52533 0.0
O145 O 0.45099 0.54252 0.58542 0.0
C146 C 0.51932 0.5348 0.59231 0.0
C147 C 0.46832 0.56221 0.51881 0.0
Zn148 Zn 0.98974 0.57881 0.9905 0.0
Zn149 Zn 0.00426 0.52492 0.02595 0.0
C150 C 0.95131 0.54403 0.9573 0.0
O151 O 0.96992 0.56002 0.93989 0.0
C152 C 0.04179 0.55864 0.06038 0.0
O153 O 0.02141 0.54467 0.07698 0.0
O154 O 0.98344 0.61775 0.97157 0.0
O155 O 0.98957 0.5864 0.02955 0.0
O156 O 0.97142 0.53818 0.04247 0.0
C157 C 0.96159 0.6259 0.97941 0.0
O158 O 0.94637 0.60964 0.99917 0.0
O159 O 0.9554 0.54709 0.98202 0.0
C160 C 0.03028 0.47622 0.03852 0.0
O161 O 0.04661 0.49192 0.01921 0.0
O162 O 0.00848 0.48521 0.04521 0.0
O163 O 0.00571 0.51838 0.98658 0.0
O164 O 0.0231 0.56684 0.97369 0.0
O165 O 0.03918 0.5549 0.03559 0.0
C166 C 0.97463 0.56669 0.04605 0.0
C167 C 0.02064 0.53839 0.97025 0.0
H168 H 0.20718 0.17951 0.25603 0.0
H169 H 0.18214 0.1593 0.29791 0.0
H170 H 0.10376 0.15157 0.2587 0.0
H171 H 0.12875 0.17096 0.2164 0.0
H172 H 0.14227 0.17946 0.3279 0.0
H173 H 0.09986 0.06402 0.2909 0.0
H174 H 0.12737 0.09199 0.27337 0.0
H175 H 0.0918 0.09561 0.27117 0.0
C176 C 0.1846 0.17344 0.25628 0.0
C177 C 0.16995 0.17642 0.2328 0.0
C178 C 0.17033 0.16209 0.28027 0.0
C179 C 0.14112 0.15342 0.2813 0.0
C180 C 0.12633 0.15759 0.2582 0.0
H181 H 0.03836 0.10547 0.42707 0.0
H182 H 0.06131 0.13051 0.38561 0.0
C183 C 0.14062 0.16897 0.23413 0.0
C184 C 0.1264 0.13923 0.30645 0.0
H185 H 0.08545 0.07257 0.33433 0.0
C186 C 0.12975 0.15613 0.32932 0.0
C187 C 0.11048 0.10861 0.30831 0.0
C188 C 0.10729 0.08882 0.28473 0.0
C189 C 0.11749 0.14328 0.354 0.0
C190 C 0.10113 0.11287 0.35573 0.0
C191 C 0.09787 0.09594 0.33289 0.0
C192 C 0.08751 0.09797 0.38114 0.0
C193 C 0.12272 0.16209 0.37814 0.0
C194 C 0.09423 0.071 0.39214 0.0
C195 C 0.08103 0.05647 0.4158 0.0
C196 C 0.06075 0.06859 0.42884 0.0
C197 C 0.05404 0.09561 0.41769 0.0
C198 C 0.06723 0.11008 0.39403 0.0
H199 H 0.14115 0.18156 0.37495 0.0
H200 H 0.10428 0.17178 0.38228 0.0
H201 H 0.12605 0.14764 0.396 0.0
H202 H 0.10976 0.0612 0.38243 0.0
H203 H 0.08666 0.03568 0.42379 0.0
H204 H 0.39675 0.95517 0.76655 0.0
H205 H 0.41857 0.96795 0.80908 0.0
H206 H 0.40677 0.87142 0.83238 0.0
H207 H 0.38479 0.85841 0.78998 0.0
H208 H 0.39647 0.95276 0.86083 0.0
H209 H 0.48957 0.90426 0.84495 0.0
H210 H 0.46721 0.91106 0.81818 0.0
H211 H 0.4571 0.8775 0.84072 0.0
C212 C 0.3987 0.93663 0.78075 0.0
C213 C 0.38907 0.90573 0.77479 0.0
C214 C 0.41128 0.94399 0.80501 0.0
C215 C 0.41466 0.92066 0.82377 0.0
C216 C 0.40496 0.88981 0.81797 0.0
H217 H 0.48 0.90975 0.98131 0.0
H218 H 0.45739 0.9008 0.93875 0.0
C219 C 0.3924 0.88241 0.7937 0.0
C220 C 0.42779 0.92859 0.84962 0.0
H221 H 0.48185 0.91898 0.88862 0.0
C222 C 0.41525 0.94558 0.86686 0.0
C223 C 0.45233 0.91926 0.85742 0.0
C224 C 0.46753 0.90226 0.83927 0.0
C225 C 0.42612 0.95269 0.89202 0.0
C226 C 0.45043 0.94297 0.89996 0.0
C227 C 0.46315 0.92633 0.88256 0.0
C228 C 0.46273 0.94901 0.92648 0.0
C229 C 0.41103 0.96973 0.91021 0.0
C230 C 0.47315 0.97917 0.93387 0.0
C231 C 0.48608 0.98442 0.95836 0.0
C232 C 0.48899 0.95957 0.97578 0.0
C233 C 0.47815 0.92945 0.96841 0.0
C234 C 0.46523 0.92425 0.94404 0.0
H235 H 0.38937 0.96906 0.90387 0.0
H236 H 0.41029 0.95992 0.93109 0.0
H237 H 0.42234 0.99418 0.90979 0.0
H238 H 0.4719 0.99864 0.92043 0.0
H239 H 0.49438 0.00789 0.96332 0.0
H240 H 0.68637 0.42276 0.749 0.0
H241 H 0.6705 0.46088 0.7193 0.0
H242 H 0.58628 0.42654 0.75017 0.0
H243 H 0.60229 0.38923 0.78007 0.0
H244 H 0.63535 0.44758 0.68012 0.0
H245 H 0.5905 0.51726 0.74844 0.0
H246 H 0.61311 0.49261 0.75977 0.0
H247 H 0.57636 0.47713 0.75625 0.0
C248 C 0.66465 0.42411 0.74983 0.0
C249 C 0.64548 0.40355 0.76682 0.0
C250 C 0.65558 0.44574 0.73289 0.0
C251 C 0.62724 0.447 0.73281 0.0
C252 C 0.60833 0.42676 0.7504 0.0
H253 H 0.52336 0.47627 0.60701 0.0
H254 H 0.55289 0.45956 0.64056 0.0
C255 C 0.61742 0.40531 0.76734 0.0
C256 C 0.61668 0.46661 0.71234 0.0
H257 H 0.57167 0.5145 0.7039 0.0
C258 C 0.6219 0.46271 0.68536 0.0
C259 C 0.59949 0.48681 0.71902 0.0
C260 C 0.59481 0.49396 0.74747 0.0
C261 C 0.60893 0.47677 0.66503 0.0
C262 C 0.58973 0.49464 0.67186 0.0
C263 C 0.586 0.50033 0.69869 0.0
C264 C 0.57177 0.50543 0.65167 0.0
C265 C 0.61551 0.47179 0.63641 0.0
C266 C 0.57178 0.53678 0.64739 0.0
C267 C 0.55461 0.54651 0.62825 0.0
C268 C 0.53701 0.52497 0.61324 0.0
C269 C 0.53674 0.49356 0.61803 0.0
C270 C 0.5538 0.48393 0.6371 0.0
H271 H 0.6366 0.46693 0.63417 0.0
H272 H 0.60015 0.45164 0.62987 0.0
H273 H 0.61442 0.49214 0.62302 0.0
H274 H 0.5853 0.55373 0.65863 0.0
H275 H 0.55526 0.57085 0.62511 0.0
H276 H 0.85976 0.6975 0.22401 0.0
H277 H 0.88784 0.6828 0.18805 0.0
H278 H 0.8864 0.59648 0.23184 0.0
H279 H 0.85847 0.61118 0.26773 0.0
H280 H 0.94214 0.65719 0.19021 0.0
H281 H 0.84601 0.57847 0.15738 0.0
H282 H 0.84483 0.61038 0.17753 0.0
H283 H 0.85349 0.57628 0.1923 0.0
C284 C 0.86617 0.67581 0.22616 0.0
C285 C 0.85734 0.65547 0.24848 0.0
C286 C 0.88207 0.66741 0.20569 0.0
C287 C 0.88895 0.6385 0.20731 0.0
C288 C 0.8812 0.61884 0.23026 0.0
H289 H 0.94952 0.53154 0.08995 0.0
H290 H 0.93036 0.54925 0.12986 0.0
C291 C 0.86543 0.62728 0.25073 0.0
C292 C 0.90211 0.62773 0.18414 0.0
H293 H 0.88792 0.5786 0.13413 0.0
C294 C 0.93038 0.64004 0.17788 0.0
C295 C 0.88661 0.60528 0.16827 0.0
C296 C 0.856 0.59185 0.17397 0.0
C297 C 0.94373 0.63012 0.15621 0.0
C298 C 0.92813 0.6079 0.14009 0.0
C299 C 0.89985 0.59558 0.1465 0.0
C300 C 0.94051 0.59738 0.1162 0.0
C301 C 0.97452 0.64306 0.15115 0.0
C302 C 0.9522 0.61848 0.09511 0.0
C303 C 0.96325 0.60845 0.07236 0.0
C304 C 0.9625 0.57704 0.07007 0.0
C305 C 0.9504 0.55587 0.09106 0.0
C306 C 0.9395 0.56597 0.1139 0.0
H307 H 0.98484 0.65235 0.16938 0.0
H308 H 0.98508 0.62531 0.1441 0.0
H309 H 0.97745 0.66221 0.13555 0.0
H310 H 0.9525 0.6427 0.09609 0.0
H311 H 0.97218 0.62534 0.05646 0.0
H312 H 0.2737 0.20948 0.1534 0.0
H313 H 0.31281 0.18643 0.14209 0.0
H314 H 0.26619 0.09786 0.17375 0.0
H315 H 0.2267 0.12054 0.18447 0.0
H316 H 0.34325 0.15521 0.17626 0.0
H317 H 0.29142 0.08042 0.09894 0.0
H318 H 0.27773 0.11166 0.11088 0.0
H319 H 0.27253 0.0757 0.13034 0.0
C320 C 0.27165 0.18502 0.15768 0.0
C321 C 0.24703 0.16681 0.16972 0.0
C322 C 0.29407 0.17194 0.15135 0.0
C323 C 0.29225 0.14037 0.15675 0.0
C324 C 0.26785 0.12217 0.16901 0.0
H325 H 0.42893 0.04628 0.16408 0.0
H326 H 0.38887 0.06842 0.17361 0.0
C327 C 0.24542 0.13524 0.17539 0.0
C328 C 0.31614 0.12666 0.15009 0.0
H329 H 0.33556 0.07297 0.11275 0.0
C330 C 0.34161 0.13728 0.16233 0.0
C331 C 0.31401 0.10355 0.13166 0.0
C332 C 0.28755 0.0923 0.11697 0.0
C333 C 0.36492 0.12503 0.15698 0.0
C334 C 0.36255 0.10124 0.13919 0.0
C335 C 0.33722 0.091 0.12658 0.0
C336 C 0.38625 0.08693 0.13322 0.0
C337 C 0.39202 0.13798 0.17011 0.0
C338 C 0.39752 0.0892 0.10717 0.0
C339 C 0.42036 0.07643 0.10161 0.0
C340 C 0.43222 0.06099 0.12199 0.0
C341 C 0.42043 0.05816 0.14794 0.0
C342 C 0.39762 0.07095 0.15348 0.0
H343 H 0.39232 0.16091 0.17773 0.0
H344 H 0.39473 0.12221 0.18727 0.0
H345 H 0.41002 0.14012 0.15598 0.0
H346 H 0.38893 0.1013 0.09123 0.0
H347 H 0.42888 0.07897 0.08139 0.0
H348 H 0.28519 0.97074 0.67542 0.0
H349 H 0.24844 0.97665 0.64469 0.0
H350 H 0.24648 0.88638 0.61739 0.0
H351 H 0.28316 0.88022 0.64892 0.0
H352 H 0.2457 0.97636 0.59079 0.0
H353 H 0.16527 0.88011 0.63885 0.0
H354 H 0.19807 0.89493 0.65407 0.0
H355 H 0.19656 0.87014 0.62699 0.0
C356 C 0.27701 0.95226 0.6627 0.0
C357 C 0.2868 0.92508 0.66438 0.0
C358 C 0.25605 0.95564 0.64514 0.0
C359 C 0.24439 0.93185 0.6289 0.0
C360 C 0.25477 0.90483 0.63005 0.0
H361 H 0.12425 0.97588 0.51127 0.0
H362 H 0.16421 0.95821 0.52993 0.0
C363 C 0.27581 0.90139 0.64784 0.0
C364 C 0.22099 0.93567 0.61151 0.0
H365 H 0.15109 0.90921 0.60343 0.0
C366 C 0.22508 0.96145 0.59328 0.0
C367 C 0.19401 0.91635 0.61496 0.0
C368 C 0.188 0.88895 0.63489 0.0
C369 C 0.20284 0.96912 0.5792 0.0
C370 C 0.17578 0.95009 0.58297 0.0
C371 C 0.17186 0.92368 0.60045 0.0
C372 C 0.15085 0.95882 0.5711 0.0
C373 C 0.20825 0.99845 0.56153 0.0
C374 C 0.12959 0.96408 0.58793 0.0
C375 C 0.10669 0.97389 0.57736 0.0
C376 C 0.10445 0.97867 0.54964 0.0
C377 C 0.12541 0.97264 0.53271 0.0
C378 C 0.14835 0.96268 0.54335 0.0
H379 H 0.22883 0.01363 0.56516 0.0
H380 H 0.20805 0.99271 0.54035 0.0
H381 H 0.19178 0.01143 0.56474 0.0
H382 H 0.131 0.96121 0.60939 0.0
H383 H 0.09094 0.97817 0.59103 0.0
H384 H 0.70541 0.38925 0.90526 0.0
H385 H 0.74719 0.42145 0.92297 0.0
H386 H 0.78806 0.43039 0.84548 0.0
H387 H 0.7465 0.39786 0.82767 0.0
H388 H 0.80023 0.40611 0.92254 0.0
H389 H 0.80376 0.51941 0.86922 0.0
H390 H 0.77251 0.48915 0.87206 0.0
H391 H 0.79967 0.48761 0.84821 0.0
C392 C 0.72322 0.39828 0.89192 0.0
C393 C 0.72269 0.39087 0.86507 0.0
C394 C 0.74701 0.41673 0.90206 0.0
C395 C 0.77063 0.42842 0.88551 0.0
C396 C 0.76987 0.42202 0.85848 0.0
H397 H 0.93921 0.52885 0.90643 0.0
H398 H 0.89527 0.49984 0.89019 0.0
C399 C 0.74608 0.40348 0.84832 0.0
C400 C 0.79671 0.44536 0.89696 0.0
H401 H 0.84392 0.51416 0.89306 0.0
C402 C 0.80972 0.42981 0.91627 0.0
C403 C 0.80903 0.47618 0.88861 0.0
C404 C 0.79546 0.49423 0.86855 0.0
C405 C 0.83515 0.44405 0.92702 0.0
C406 C 0.84755 0.47489 0.91862 0.0
C407 C 0.83438 0.49051 0.89946 0.0
C408 C 0.87447 0.49126 0.92902 0.0
C409 C 0.8489 0.42564 0.94664 0.0
C410 C 0.87743 0.49597 0.95631 0.0
C411 C 0.90266 0.51239 0.96573 0.0
C412 C 0.92524 0.5247 0.94794 0.0
C413 C 0.92223 0.51971 0.92067 0.0
C414 C 0.89711 0.50319 0.91132 0.0
H415 H 0.84066 0.4005 0.94558 0.0
H416 H 0.87184 0.4308 0.94302 0.0
H417 H 0.84472 0.43173 0.96716 0.0
H418 H 0.86006 0.48749 0.97026 0.0
H419 H 0.90424 0.51606 0.98681 0.0
H420 H 0.76042 0.62441 0.36451 0.0
H421 H 0.71743 0.6087 0.39177 0.0
H422 H 0.71195 0.7036 0.39413 0.0
H423 H 0.75552 0.71948 0.36748 0.0
H424 H 0.69906 0.67382 0.44191 0.0
H425 H 0.64041 0.60464 0.3651 0.0
H426 H 0.67152 0.59193 0.37338 0.0
H427 H 0.67404 0.62997 0.35806 0.0
C428 C 0.74997 0.64187 0.37081 0.0
C429 C 0.76109 0.6731 0.36374 0.0
C430 C 0.72537 0.63289 0.38627 0.0
C431 C 0.71109 0.65491 0.39443 0.0
C432 C 0.72252 0.68621 0.3879 0.0
H433 H 0.53891 0.59256 0.45163 0.0
H434 H 0.58115 0.62044 0.42723 0.0
C435 C 0.74738 0.69525 0.37273 0.0
C436 C 0.68428 0.64517 0.40978 0.0
H437 H 0.62025 0.59659 0.40921 0.0
C438 C 0.68169 0.65716 0.43468 0.0
C439 C 0.6614 0.62398 0.40007 0.0
C440 C 0.66184 0.61216 0.37256 0.0
C441 C 0.65717 0.64772 0.45053 0.0
C442 C 0.63498 0.625 0.44155 0.0
C443 C 0.63732 0.61377 0.41629 0.0
C444 C 0.60931 0.61186 0.45802 0.0
C445 C 0.65524 0.66251 0.47652 0.0
C446 C 0.61096 0.59827 0.48371 0.0
C447 C 0.58675 0.58285 0.49791 0.0
C448 C 0.56057 0.58005 0.48635 0.0
C449 C 0.55887 0.59426 0.46095 0.0
C450 C 0.58299 0.61017 0.447 0.0
H451 H 0.66894 0.68594 0.47598 0.0
H452 H 0.63354 0.6642 0.48129 0.0
H453 H 0.6623 0.64847 0.49284 0.0
H454 H 0.631 0.59844 0.49238 0.0
H455 H 0.58866 0.57179 0.51734 0.0
H456 H 0.15229 0.29297 0.17848 0.0
H457 H 0.1217 0.32877 0.16872 0.0
H458 H 0.09792 0.28461 0.09584 0.0
H459 H 0.12785 0.24862 0.10597 0.0
H460 H 0.12921 0.36943 0.12745 0.0
H461 H 0.02362 0.29622 0.1216 0.0
H462 H 0.05184 0.28227 0.13685 0.0
H463 H 0.04794 0.28252 0.10124 0.0
C464 C 0.13978 0.29046 0.16085 0.0
C465 C 0.14197 0.26804 0.14306 0.0
C466 C 0.12242 0.3109 0.15523 0.0
C467 C 0.10711 0.30913 0.13173 0.0
C468 C 0.10878 0.28593 0.11446 0.0
H469 H 0.07395 0.45053 0.02681 0.0
H470 H 0.09029 0.41044 0.05264 0.0
C471 C 0.126 0.26549 0.12015 0.0
C472 C 0.09237 0.33369 0.12338 0.0
H473 H 0.03208 0.3456 0.09616 0.0
C474 C 0.10778 0.36423 0.12113 0.0
C475 C 0.06427 0.32714 0.11544 0.0
C476 C 0.0459 0.29527 0.11919 0.0
C477 C 0.09649 0.388 0.10964 0.0
C478 C 0.06926 0.38098 0.0996 0.0
C479 C 0.05315 0.35085 0.10341 0.0
C480 C 0.05806 0.40422 0.08354 0.0
C481 C 0.11407 0.42037 0.10791 0.0
C482 C 0.03379 0.41319 0.09175 0.0
C483 C 0.02419 0.4361 0.07684 0.0
C484 C 0.03868 0.45025 0.05342 0.0
C485 C 0.06241 0.44037 0.04486 0.0
C486 C 0.07191 0.41754 0.05969 0.0
H487 H 0.1301 0.42349 0.12346 0.0
H488 H 0.12508 0.42515 0.08816 0.0
H489 H 0.10103 0.43749 0.11013 0.0
H490 H 0.02265 0.40297 0.10999 0.0
H491 H 0.00582 0.44317 0.08395 0.0
H492 H 0.61238 0.28628 0.86682 0.0
H493 H 0.5926 0.24073 0.89611 0.0
H494 H 0.67439 0.23927 0.92492 0.0
H495 H 0.69459 0.28427 0.89513 0.0
H496 H 0.61066 0.17956 0.89978 0.0
H497 H 0.62126 0.24389 0.99211 0.0
H498 H 0.62066 0.26266 0.95936 0.0
H499 H 0.65127 0.25015 0.96981 0.0
C500 C 0.62627 0.27603 0.87905 0.0
C501 C 0.65509 0.28906 0.87869 0.0
C502 C 0.61489 0.25011 0.89586 0.0
C503 C 0.63205 0.23692 0.91275 0.0
C504 C 0.66082 0.24942 0.91218 0.0
H505 H 0.59294 0.06554 0.01169 0.0
H506 H 0.61445 0.10814 0.97992 0.0
C507 C 0.67227 0.27522 0.89526 0.0
C508 C 0.6197 0.21044 0.93139 0.0
H509 H 0.6038 0.19022 0.99726 0.0
C510 C 0.6092 0.18177 0.9211 0.0
C511 C 0.6177 0.21365 0.9591 0.0
C512 C 0.62813 0.24423 0.97091 0.0
C513 C 0.59684 0.15604 0.93797 0.0
C514 C 0.59504 0.15921 0.96572 0.0
C515 C 0.60539 0.18793 0.97596 0.0
C516 C 0.58185 0.13312 0.98444 0.0
C517 C 0.58534 0.12576 0.92606 0.0
C518 C 0.55657 0.13332 0.9976 0.0
C519 C 0.54413 0.10899 0.01562 0.0
C520 C 0.55694 0.08415 0.02102 0.0
C521 C 0.58242 0.08419 0.00788 0.0
C522 C 0.59473 0.10845 0.98969 0.0
H523 H 0.58423 0.12834 0.90401 0.0
H524 H 0.599 0.10962 0.93106 0.0
H525 H 0.56417 0.11529 0.93456 0.0
H526 H 0.54641 0.15229 0.99384 0.0
H527 H 0.52456 0.10978 0.02542 0.0
H528 H 0.8616 0.76467 0.30687 0.0
H529 H 0.89318 0.81051 0.32228 0.0
H530 H 0.88634 0.76806 0.40215 0.0
H531 H 0.85555 0.72216 0.38677 0.0
H532 H 0.877 0.84621 0.35815 0.0
H533 H 0.96865 0.80676 0.39628 0.0
H534 H 0.94437 0.78461 0.37437 0.0
H535 H 0.93683 0.78247 0.40971 0.0
C536 C 0.86759 0.7648 0.32751 0.0
C537 C 0.85601 0.73995 0.34566 0.0
C538 C 0.8855 0.79102 0.33632 0.0
C539 C 0.89236 0.79263 0.36333 0.0
C540 C 0.88188 0.76718 0.38114 0.0
H541 H 0.91197 0.93829 0.46646 0.0
H542 H 0.89803 0.89439 0.43913 0.0
C543 C 0.86401 0.74106 0.37238 0.0
C544 C 0.90726 0.82202 0.37376 0.0
H545 H 0.9591 0.85224 0.41536 0.0
C546 C 0.8953 0.84769 0.37021 0.0
C547 C 0.93131 0.82414 0.38927 0.0
C548 C 0.94619 0.79808 0.39239 0.0
C549 C 0.90568 0.87474 0.38306 0.0
C550 C 0.92832 0.87595 0.40027 0.0
C551 C 0.94143 0.85105 0.4025 0.0
C552 C 0.93746 0.90212 0.41727 0.0
C553 C 0.89194 0.90158 0.37851 0.0
C554 C 0.96461 0.92043 0.41467 0.0
C555 C 0.97273 0.94557 0.4304 0.0
C556 C 0.95387 0.95262 0.44912 0.0
C557 C 0.92696 0.93367 0.45213 0.0
C558 C 0.91889 0.90865 0.43641 0.0
H559 H 0.88097 0.9006 0.35932 0.0
H560 H 0.87627 0.90093 0.39478 0.0
H561 H 0.90745 0.92381 0.37851 0.0
H562 H 0.97932 0.91559 0.40016 0.0
H563 H 0.99365 0.95965 0.42767 0.0
H564 H 0.37301 0.80987 0.7312 0.0
H565 H 0.38823 0.76964 0.70796 0.0
H566 H 0.39152 0.82348 0.63346 0.0
H567 H 0.37705 0.8644 0.65678 0.0
H568 H 0.36488 0.73503 0.66717 0.0
H569 H 0.46956 0.80538 0.6363 0.0
H570 H 0.44748 0.81714 0.6608 0.0
H571 H 0.44095 0.8218 0.62589 0.0
C572 C 0.3771 0.81327 0.70988 0.0
C573 C 0.37413 0.84055 0.69591 0.0
C574 C 0.38567 0.79016 0.6966 0.0
C575 C 0.39155 0.79377 0.66905 0.0
C576 C 0.38767 0.82047 0.65482 0.0
H577 H 0.41171 0.64653 0.56989 0.0
H578 H 0.39647 0.68834 0.59058 0.0
C579 C 0.37906 0.84367 0.66812 0.0
C580 C 0.40175 0.76947 0.65545 0.0
H581 H 0.45712 0.7556 0.62002 0.0
C582 C 0.38502 0.73954 0.65683 0.0
C583 C 0.42826 0.77525 0.64235 0.0
C584 C 0.44777 0.80654 0.64139 0.0
C585 C 0.39392 0.71533 0.64523 0.0
C586 C 0.42009 0.72129 0.63149 0.0
C587 C 0.43698 0.75112 0.63037 0.0
C588 C 0.43022 0.69677 0.61818 0.0
C589 C 0.37543 0.68344 0.64829 0.0
C590 C 0.45485 0.68824 0.62617 0.0
C591 C 0.46379 0.66435 0.61422 0.0
C592 C 0.44829 0.64866 0.59397 0.0
C593 C 0.42405 0.65788 0.58558 0.0
C594 C 0.41519 0.68172 0.59748 0.0
H595 H 0.35999 0.68117 0.66507 0.0
H596 H 0.36376 0.6786 0.62974 0.0
H597 H 0.38796 0.6658 0.65172 0.0
H598 H 0.46687 0.69968 0.64201 0.0
H599 H 0.48257 0.65789 0.62111 0.0
H600 H 0.83639 0.89238 0.73399 0.0
H601 H 0.86028 0.90911 0.69085 0.0
H602 H 0.93949 0.90986 0.72669 0.0
H603 H 0.91584 0.89403 0.77009 0.0
H604 H 0.93892 0.96304 0.6958 0.0
H605 H 0.89679 0.85988 0.64035 0.0
H606 H 0.8704 0.87537 0.65617 0.0
H607 H 0.89444 0.85963 0.67626 0.0
C608 C 0.8589 0.89614 0.7327 0.0
C609 C 0.87422 0.89186 0.75547 0.0
C610 C 0.87248 0.90533 0.70797 0.0
C611 C 0.90161 0.91026 0.7055 0.0
C612 C 0.91697 0.90592 0.72814 0.0
H613 H 0.99991 0.94625 0.55607 0.0
H614 H 0.97809 0.92377 0.59895 0.0
C615 C 0.90341 0.8967 0.75288 0.0
C616 C 0.91618 0.92156 0.6796 0.0
H617 H 0.92058 0.90479 0.61445 0.0
C618 C 0.93506 0.95022 0.67805 0.0
C619 C 0.91135 0.90461 0.65656 0.0
C620 C 0.89235 0.87303 0.65737 0.0
C621 C 0.94869 0.96279 0.65389 0.0
C622 C 0.94296 0.94645 0.63062 0.0
C623 C 0.9247 0.91739 0.63229 0.0
C624 C 0.95544 0.95946 0.60429 0.0
C625 C 0.96923 0.9934 0.65352 0.0
C626 C 0.94946 0.9866 0.5929 0.0
C627 C 0.96184 0.99948 0.56846 0.0
C628 C 0.98035 0.98537 0.55486 0.0
C629 C 0.98579 0.95774 0.56604 0.0
C630 C 0.97335 0.94485 0.59052 0.0
H631 H 0.97667 0.99895 0.67379 0.0
H632 H 0.98754 0.99368 0.64023 0.0
H633 H 0.95893 0.01178 0.64586 0.0
H634 H 0.93527 0.99791 0.60298 0.0
H635 H 0.95702 0.02066 0.56036 0.0
H636 H 0.62087 0.17275 0.34992 0.0
H637 H 0.59734 0.15602 0.30891 0.0
H638 H 0.67616 0.18049 0.26537 0.0
H639 H 0.69978 0.19667 0.30631 0.0
H640 H 0.59246 0.18433 0.2605 0.0
H641 H 0.64945 0.09164 0.24881 0.0
H642 H 0.65067 0.11218 0.27877 0.0
H643 H 0.67224 0.12887 0.25007 0.0
C644 C 0.6331 0.17485 0.33153 0.0
C645 C 0.6622 0.1857 0.33138 0.0
C646 C 0.61967 0.16519 0.30813 0.0
C647 C 0.63507 0.16628 0.28417 0.0
C648 C 0.66394 0.17854 0.28375 0.0
H649 H 0.56429 0.14497 0.12614 0.0
H650 H 0.5878 0.16492 0.16607 0.0
C651 C 0.67739 0.18791 0.30713 0.0
C652 C 0.62105 0.15418 0.25974 0.0
H653 H 0.62214 0.1025 0.21243 0.0
C654 C 0.59889 0.16638 0.25002 0.0
C655 C 0.62912 0.13036 0.2463 0.0
C656 C 0.65147 0.11476 0.25664 0.0
C657 C 0.58487 0.15577 0.22704 0.0
C658 C 0.59368 0.13282 0.21301 0.0
C659 C 0.61559 0.12034 0.22296 0.0
C660 C 0.58003 0.12078 0.18838 0.0
C661 C 0.56032 0.16876 0.21844 0.0
C662 C 0.5688 0.08915 0.18714 0.0
C663 C 0.55577 0.0776 0.16417 0.0
C664 C 0.55364 0.09747 0.14192 0.0
C665 C 0.56536 0.12907 0.143 0.0
C666 C 0.57861 0.14056 0.16592 0.0
H667 H 0.55139 0.17908 0.23515 0.0
H668 H 0.56729 0.18714 0.2024 0.0
H669 H 0.54362 0.15075 0.2106 0.0
H670 H 0.56978 0.07338 0.20414 0.0
H671 H 0.54695 0.05314 0.16405 0.0
H672 H 0.32215 0.59727 0.31929 0.0
H673 H 0.34615 0.59479 0.36142 0.0
H674 H 0.42458 0.63713 0.32123 0.0
H675 H 0.40042 0.63912 0.2788 0.0
H676 H 0.4274 0.58551 0.35173 0.0
H677 H 0.37845 0.66088 0.41117 0.0
H678 H 0.35298 0.63167 0.39671 0.0
H679 H 0.37598 0.66046 0.37538 0.0
C680 C 0.34445 0.60647 0.31964 0.0
C681 C 0.35958 0.61855 0.29616 0.0
C682 C 0.35811 0.60523 0.34368 0.0
C683 C 0.38709 0.61629 0.34458 0.0
C684 C 0.40218 0.62873 0.321 0.0
H685 H 0.47222 0.62054 0.49669 0.0
H686 H 0.45462 0.6356 0.45384 0.0
C687 C 0.38846 0.62992 0.29689 0.0
C688 C 0.40168 0.61253 0.36974 0.0
H689 H 0.40075 0.62573 0.43595 0.0
C690 C 0.42185 0.59465 0.37008 0.0
C691 C 0.39472 0.6248 0.3936 0.0
C692 C 0.37456 0.64579 0.39419 0.0
C693 C 0.43432 0.58758 0.39386 0.0
C694 C 0.42597 0.59815 0.418 0.0
C695 C 0.40678 0.61722 0.41748 0.0
C696 C 0.4364 0.58904 0.44406 0.0
C697 C 0.45626 0.56876 0.39291 0.0
C698 C 0.43149 0.55791 0.45301 0.0
C699 C 0.44152 0.54921 0.47744 0.0
C700 C 0.4565 0.57151 0.49353 0.0
C701 C 0.46082 0.60276 0.48478 0.0
C702 C 0.45081 0.61143 0.46029 0.0
H703 H 0.46605 0.57031 0.37265 0.0
H704 H 0.47286 0.57637 0.40735 0.0
H705 H 0.44641 0.54425 0.39814 0.0
H706 H 0.41983 0.54031 0.44108 0.0
H707 H 0.43767 0.52497 0.48363 0.0
H708 H 0.09469 0.45156 0.74384 0.0
H709 H 0.08585 0.48387 0.77947 0.0
H710 H 0.11433 0.42339 0.83742 0.0
H711 H 0.12343 0.39136 0.80172 0.0
H712 H 0.04764 0.46172 0.82002 0.0
H713 H 0.1508 0.50814 0.86196 0.0
H714 H 0.14698 0.49253 0.82952 0.0
H715 H 0.14371 0.46728 0.85917 0.0
C716 C 0.09982 0.44583 0.76412 0.0
C717 C 0.10996 0.41937 0.77023 0.0
C718 C 0.0947 0.46416 0.78443 0.0
C719 C 0.09972 0.45626 0.81109 0.0
C720 C 0.11091 0.43036 0.81697 0.0
H721 H 0.0158 0.4797 0.9554 0.0
H722 H 0.0361 0.46281 0.9159 0.0
C723 C 0.11602 0.41203 0.79664 0.0
C724 C 0.09005 0.47268 0.83295 0.0
H725 H 0.11067 0.50943 0.88944 0.0
C726 C 0.06152 0.47253 0.83497 0.0
C727 C 0.10817 0.48693 0.85239 0.0
C728 C 0.13917 0.48905 0.85057 0.0
C729 C 0.05044 0.48512 0.85645 0.0
C730 C 0.0683 0.49795 0.87656 0.0
C731 C 0.09701 0.4993 0.87406 0.0
C732 C 0.05712 0.50857 0.90095 0.0
C733 C 0.01959 0.48422 0.8577 0.0
C734 C 0.06266 0.5399 0.90584 0.0
C735 C 0.05096 0.54974 0.92843 0.0
C736 C 0.03375 0.52832 0.94659 0.0
C737 C 0.02882 0.49687 0.94181 0.0
C738 C 0.04037 0.48714 0.91922 0.0
H739 H 0.00998 0.48024 0.83799 0.0
H740 H 0.00911 0.46519 0.87204 0.0
H741 H 0.01566 0.50603 0.86475 0.0
H742 H 0.07563 0.55675 0.89196 0.0
H743 H 0.05526 0.5741 0.93158 0.0
H744 H 0.79317 0.9482 0.87764 0.0
H745 H 0.75864 0.95441 0.91128 0.0
H746 H 0.71084 0.86308 0.8993 0.0
H747 H 0.74529 0.85722 0.86512 0.0
H748 H 0.67955 0.90462 0.89434 0.0
H749 H 0.73771 0.92313 0.98724 0.0
H750 H 0.75519 0.94836 0.9602 0.0
H751 H 0.75105 0.9074 0.95878 0.0
C752 C 0.77569 0.92917 0.88284 0.0
C753 C 0.77183 0.90216 0.86922 0.0
C754 C 0.75604 0.93263 0.90214 0.0
C755 C 0.73231 0.90903 0.90818 0.0
C756 C 0.72909 0.88148 0.89516 0.0
H757 H 0.60523 0.93849 0.02375 0.0
H758 H 0.64047 0.91611 1.00204 0.0
C759 C 0.74876 0.87807 0.87577 0.0
C760 C 0.70937 0.9148 0.92535 0.0
H761 H 0.69581 0.94318 0.98462 0.0
C762 C 0.68301 0.91251 0.91427 0.0
C763 C 0.71368 0.92476 0.95149 0.0
C764 C 0.74088 0.92574 0.96522 0.0
C765 C 0.66137 0.92149 0.928 0.0
C766 C 0.66636 0.93367 0.95327 0.0
C767 C 0.69216 0.93431 0.96504 0.0
C768 C 0.64558 0.94745 0.96693 0.0
C769 C 0.63345 0.91829 0.9151 0.0
C770 C 0.63728 0.97287 0.95465 0.0
C771 C 0.61725 0.98565 0.96692 0.0
C772 C 0.6052 0.97341 0.99188 0.0
C773 C 0.61405 0.94839 0.0045 0.0
C774 C 0.63416 0.93558 0.99214 0.0
H775 H 0.63037 0.90044 0.90026 0.0
H776 H 0.61609 0.91224 0.93021 0.0
H777 H 0.63243 0.94049 0.9045 0.0
H778 H 0.64629 0.98282 0.93546 0.0
H779 H 0.61112 0.00505 0.95672 0.0
H780 H 0.75769 0.18196 0.35233 0.0
H781 H 0.79831 0.16051 0.36257 0.0
H782 H 0.76888 0.14067 0.44432 0.0
H783 H 0.72773 0.16089 0.43406 0.0
H784 H 0.83957 0.17926 0.39819 0.0
H785 H 0.78426 0.0589 0.42525 0.0
H786 H 0.76747 0.08639 0.40838 0.0
H787 H 0.77188 0.08656 0.44384 0.0
C788 C 0.75962 0.17259 0.3724 0.0
C789 C 0.73933 0.17309 0.39234 0.0
C790 C 0.78297 0.16054 0.37826 0.0
C791 C 0.78647 0.14856 0.40412 0.0
C792 C 0.76638 0.1492 0.4241 0.0
H793 H 0.91548 0.07417 0.483 0.0
H794 H 0.87476 0.09515 0.47192 0.0
C795 C 0.74302 0.16117 0.41826 0.0
C796 C 0.81153 0.13626 0.41041 0.0
H797 H 0.83237 0.07235 0.43534 0.0
C798 C 0.83801 0.15583 0.40615 0.0
C799 C 0.80948 0.10567 0.42083 0.0
C800 C 0.78177 0.08305 0.42462 0.0
C801 C 0.86243 0.14585 0.41252 0.0
C802 C 0.86035 0.11536 0.42313 0.0
C803 C 0.83391 0.09576 0.42732 0.0
C804 C 0.88538 0.10325 0.4298 0.0
C805 C 0.89025 0.1682 0.40838 0.0
C806 C 0.90474 0.10063 0.40976 0.0
C807 C 0.928 0.08861 0.416 0.0
C808 C 0.93234 0.0789 0.44242 0.0
C809 C 0.91286 0.08155 0.46247 0.0
C810 C 0.88954 0.09348 0.45618 0.0
H811 H 0.88794 0.1924 0.40624 0.0
H812 H 0.90408 0.16582 0.42527 0.0
H813 H 0.90061 0.16322 0.3899 0.0
H814 H 0.90169 0.10754 0.38921 0.0
H815 H 0.94249 0.08679 0.40005 0.0
H816 H 0.27947 0.60181 0.16707 0.0
H817 H 0.23786 0.58988 0.1402 0.0
H818 H 0.21802 0.67604 0.15816 0.0
H819 H 0.25992 0.68832 0.18466 0.0
H820 H 0.18509 0.58194 0.15704 0.0
H821 H 0.20787 0.67719 0.07864 0.0
H822 H 0.23415 0.66849 0.10062 0.0
H823 H 0.21004 0.69046 0.11171 0.0
C824 C 0.26629 0.61826 0.16515 0.0
C825 C 0.27287 0.64597 0.17795 0.0
C826 C 0.24261 0.6115 0.14971 0.0
C827 C 0.22504 0.63226 0.14683 0.0
C828 C 0.23166 0.66005 0.15949 0.0
H829 H 0.05081 0.57878 0.11019 0.0
H830 H 0.09563 0.59912 0.12997 0.0
C831 C 0.2555 0.66696 0.17474 0.0
C832 C 0.19876 0.62373 0.13223 0.0
H833 H 0.16091 0.6476 0.08203 0.0
C834 C 0.17991 0.59622 0.14053 0.0
C835 C 0.19215 0.6422 0.11049 0.0
C836 C 0.21225 0.67107 0.09964 0.0
C837 C 0.15445 0.58691 0.12803 0.0
C838 C 0.14727 0.60605 0.1071 0.0
C839 C 0.16632 0.63323 0.09835 0.0
C840 C 0.12008 0.59783 0.09406 0.0
C841 C 0.13565 0.55639 0.13713 0.0
C842 C 0.1189 0.59205 0.0669 0.0
C843 C 0.09323 0.58076 0.05541 0.0
C844 C 0.06842 0.57501 0.071 0.0
C845 C 0.0696 0.58256 0.09777 0.0
C846 C 0.09519 0.59407 0.10914 0.0
H847 H 0.14732 0.54102 0.14792 0.0
H848 H 0.11918 0.56036 0.15097 0.0
H849 H 0.12536 0.5444 0.11998 0.0
H850 H 0.13791 0.59503 0.0549 0.0
H851 H 0.09295 0.5752 0.03471 0.0
H852 H 0.2223 0.34997 0.70727 0.0
H853 H 0.27049 0.37727 0.69688 0.0
H854 H 0.2424 0.46061 0.67732 0.0
H855 H 0.19425 0.43351 0.68839 0.0
H856 H 0.2902 0.40151 0.64938 0.0
H857 H 0.30918 0.49338 0.72047 0.0
H858 H 0.27973 0.46103 0.72417 0.0
H859 H 0.27855 0.49353 0.70162 0.0
C860 C 0.22654 0.37428 0.70128 0.0
C861 C 0.20462 0.38969 0.69867 0.0
C862 C 0.25404 0.38984 0.69532 0.0
C863 C 0.26015 0.42107 0.68651 0.0
C864 C 0.23834 0.43673 0.68468 0.0
H865 H 0.39957 0.51423 0.58397 0.0
H866 H 0.35497 0.48492 0.6031 0.0
C867 C 0.21082 0.42123 0.69095 0.0
C868 C 0.28887 0.43637 0.67697 0.0
H869 H 0.34104 0.49998 0.68289 0.0
C870 C 0.30142 0.42289 0.65692 0.0
C871 C 0.30369 0.46406 0.687 0.0
C872 C 0.29222 0.47867 0.7097 0.0
C873 C 0.32804 0.43668 0.64618 0.0
C874 C 0.34222 0.46521 0.65519 0.0
C875 C 0.33002 0.47829 0.67574 0.0
C876 C 0.36957 0.48206 0.6434 0.0
C877 C 0.34078 0.42032 0.62549 0.0
C878 C 0.3925 0.49074 0.65973 0.0
C879 C 0.41794 0.50786 0.6489 0.0
C880 C 0.42093 0.51662 0.62149 0.0
C881 C 0.39804 0.50757 0.6051 0.0
C882 C 0.37255 0.49068 0.616 0.0
H883 H 0.33161 0.39519 0.62702 0.0
H884 H 0.33655 0.42939 0.60532 0.0
H885 H 0.3637 0.42398 0.62751 0.0
H886 H 0.39067 0.48442 0.68093 0.0
H887 H 0.43516 0.51448 0.66207 0.0
H888 H 0.86435 0.85464 0.87827 0.0
H889 H 0.88203 0.81708 0.90675 0.0
H890 H 0.88323 0.76112 0.83986 0.0
H891 H 0.86494 0.798 0.81155 0.0
H892 H 0.86095 0.72749 0.88662 0.0
H893 H 0.96298 0.80597 0.90339 0.0
H894 H 0.93282 0.82035 0.91194 0.0
H895 H 0.93985 0.81413 0.87776 0.0
C896 C 0.86808 0.83414 0.86975 0.0
C897 C 0.86351 0.82942 0.84261 0.0
C898 C 0.87847 0.8129 0.88595 0.0
C899 C 0.88445 0.78664 0.87526 0.0
C900 C 0.87901 0.78139 0.84843 0.0
H901 H 0.9845 0.66095 0.93451 0.0
H902 H 0.96592 0.70075 0.90994 0.0
C903 C 0.8687 0.80256 0.83226 0.0
C904 C 0.89641 0.76447 0.89185 0.0
H905 H 0.95407 0.75686 0.92637 0.0
C906 C 0.88126 0.73391 0.89539 0.0
C907 C 0.92311 0.77284 0.90289 0.0
C908 C 0.94082 0.80503 0.89868 0.0
C909 C 0.89202 0.7115 0.90983 0.0
C910 C 0.91846 0.72001 0.92136 0.0
C911 C 0.93372 0.75051 0.91767 0.0
C912 C 0.93064 0.69736 0.93707 0.0
C913 C 0.87524 0.67876 0.91214 0.0
C914 C 0.91734 0.6829 0.96078 0.0
C915 C 0.92784 0.66022 0.9748 0.0
C916 C 0.95198 0.65165 0.96547 0.0
C917 C 0.96585 0.66696 0.94219 0.0
C918 C 0.95528 0.68969 0.92814 0.0
H919 H 0.85888 0.67463 0.89695 0.0
H920 H 0.88893 0.66228 0.90989 0.0
H921 H 0.86479 0.67391 0.93214 0.0
H922 H 0.89861 0.68892 0.96828 0.0
H923 H 0.91676 0.64909 0.99278 0.0
H924 H 0.32931 0.74539 0.20366 0.0
H925 H 0.36216 0.79322 0.18845 0.0
H926 H 0.42889 0.7449 0.18678 0.0
H927 H 0.39613 0.69688 0.20196 0.0
H928 H 0.42311 0.82276 0.21019 0.0
H929 H 0.41445 0.78301 0.10687 0.0
H930 H 0.3871 0.76916 0.13188 0.0
H931 H 0.4192 0.75656 0.13397 0.0
C932 C 0.35108 0.74509 0.20047 0.0
C933 C 0.36017 0.71743 0.20381 0.0
C934 C 0.36979 0.77239 0.19191 0.0
C935 C 0.3978 0.7724 0.18642 0.0
C936 C 0.40729 0.74522 0.191 0.0
H937 H 0.51641 0.91109 0.08915 0.0
H938 H 0.4937 0.86398 0.1151 0.0
C939 C 0.38862 0.7179 0.19976 0.0
C940 C 0.41631 0.80015 0.17348 0.0
H941 H 0.44144 0.83239 0.11234 0.0
C942 C 0.42738 0.82491 0.18884 0.0
C943 C 0.42179 0.80263 0.14568 0.0
C944 C 0.41003 0.77656 0.12844 0.0
C945 C 0.44378 0.85238 0.17699 0.0
C946 C 0.44849 0.8553 0.14898 0.0
C947 C 0.43782 0.83017 0.13378 0.0
C948 C 0.46347 0.88447 0.13476 0.0
C949 C 0.45609 0.87783 0.19464 0.0
C950 C 0.45395 0.91163 0.13706 0.0
C951 C 0.46702 0.93866 0.12243 0.0
C952 C 0.48961 0.93896 0.10481 0.0
C953 C 0.49907 0.91168 0.1025 0.0
C954 C 0.48613 0.88473 0.11735 0.0
H955 H 0.45844 0.86867 0.2153 0.0
H956 H 0.47678 0.89092 0.18676 0.0
H957 H 0.44191 0.89394 0.19562 0.0
H958 H 0.43598 0.9118 0.14973 0.0
H959 H 0.45903 0.95916 0.12453 0.0
H960 H 0.16608 0.28263 0.68109 0.0
H961 H 0.15343 0.2395 0.65244 0.0
H962 H 0.08052 0.27149 0.6281 0.0
H963 H 0.09338 0.31512 0.65617 0.0
H964 H 0.10382 0.19276 0.65291 0.0
H965 H 0.12135 0.26395 0.55716 0.0
H966 H 0.13437 0.27858 0.58834 0.0
H967 H 0.09825 0.27506 0.58085 0.0
C968 C 0.14744 0.28058 0.66951 0.0
C969 C 0.13083 0.3024 0.67077 0.0
C970 C 0.14017 0.25585 0.6533 0.0
C971 C 0.11627 0.25258 0.63791 0.0
C972 C 0.09929 0.27389 0.63953 0.0
H973 H 0.0389 0.08963 0.55619 0.0
H974 H 0.04814 0.13309 0.58473 0.0
C975 C 0.10651 0.29861 0.65579 0.0
C976 C 0.10922 0.2269 0.62009 0.0
H977 H 0.10215 0.21075 0.55465 0.0
C978 C 0.1034 0.19664 0.63143 0.0
C979 C 0.10904 0.23212 0.59207 0.0
C980 C 0.11631 0.26415 0.57877 0.0
C981 C 0.09717 0.17138 0.61547 0.0
C982 C 0.09645 0.17661 0.58748 0.0
C983 C 0.10248 0.20687 0.57613 0.0
C984 C 0.09038 0.15093 0.56958 0.0
C985 C 0.09203 0.13931 0.62862 0.0
C986 C 0.11079 0.14711 0.55108 0.0
C987 C 0.10557 0.1224 0.53466 0.0
C988 C 0.07974 0.10115 0.53635 0.0
C989 C 0.05906 0.1055 0.55447 0.0
C990 C 0.06434 0.13021 0.5709 0.0
H991 H 0.0995 0.13931 0.64937 0.0
H992 H 0.0693 0.12907 0.62934 0.0
H993 H 0.10252 0.12441 0.61709 0.0
H994 H 0.13098 0.16297 0.54967 0.0
H995 H 0.12191 0.11978 0.52089 0.0
H996 H 0.59822 0.23438 0.43411 0.0
H997 H 0.56896 0.2693 0.44754 0.0
H998 H 0.63477 0.34721 0.42193 0.0
H999 H 0.66364 0.31231 0.40811 0.0
H1000 H 0.58198 0.30814 0.48626 0.0
H1001 H 0.56764 0.37557 0.39389 0.0
H1002 H 0.57949 0.34009 0.3935 0.0
H1003 H 0.6037 0.3757 0.39883 0.0
C1004 C 0.60593 0.25898 0.43056 0.0
C1005 C 0.63286 0.27084 0.41976 0.0
C1006 C 0.58933 0.2789 0.43835 0.0
C1007 C 0.59946 0.31096 0.43546 0.0
C1008 C 0.62612 0.32267 0.42373 0.0
H1009 H 0.57469 0.45152 0.53404 0.0
H1010 H 0.58818 0.40988 0.51161 0.0
C1011 C 0.64265 0.30275 0.4159 0.0
C1012 C 0.58381 0.33203 0.44754 0.0
H1013 H 0.56152 0.39867 0.43525 0.0
C1014 C 0.5771 0.32764 0.47497 0.0
C1015 C 0.57709 0.35732 0.43286 0.0
C1016 C 0.58209 0.36228 0.40309 0.0
C1017 C 0.56521 0.3486 0.48831 0.0
C1018 C 0.56031 0.37502 0.47398 0.0
C1019 C 0.56562 0.37862 0.44631 0.0
C1020 C 0.55145 0.40006 0.4877 0.0
C1021 C 0.55833 0.34244 0.51776 0.0
C1022 C 0.5265 0.40889 0.48137 0.0
C1023 C 0.51867 0.4329 0.4942 0.0
C1024 C 0.53584 0.4487 0.51339 0.0
C1025 C 0.56085 0.4398 0.51951 0.0
C1026 C 0.56857 0.41585 0.50678 0.0
H1027 H 0.55513 0.31757 0.52384 0.0
H1028 H 0.57594 0.355 0.52915 0.0
H1029 H 0.53928 0.3504 0.52334 0.0
H1030 H 0.51305 0.39715 0.46657 0.0
H1031 H 0.49936 0.43929 0.4889 0.0
loop_
_geom_bond_atom_site_label_1
_geom_bond_atom_site_label_2
_geom_bond_distance
_geom_bond_site_symmetry_2
_ccdc_geom_bond_type
H0 C3 0.929 . S
H1 C6 0.929 . S
H2 C8 0.930 . S
C3 H0 0.929 . S
C3 C4 1.398 . S
C3 C5 1.396 . S
C4 C3 1.398 . S
C4 C8 1.407 . S
C5 C3 1.396 . S
C5 C6 1.394 . S
C6 H1 0.929 . S
C6 C5 1.394 . S
C6 C7 1.382 . S
C7 C6 1.382 . S
C7 C8 1.392 . S
C7 N9 1.420 . S
C8 H2 0.930 . S
C8 C4 1.407 . S
C8 C7 1.392 . S
N9 C7 1.420 . S
N9 C10 1.244 . S
C10 N9 1.244 . S
H11 C14 0.929 . S
H12 C17 0.929 . S
H13 C19 0.930 . S
C14 H11 0.929 . S
C14 C15 1.398 . S
C14 C16 1.396 . S
C15 C14 1.398 . S
C15 C19 1.407 . S
C16 C14 1.396 . S
C16 C17 1.394 . S
C17 H12 0.929 . S
C17 C16 1.394 . S
C17 C18 1.382 . S
C18 C17 1.382 . S
C18 C19 1.392 . S
C18 N20 1.420 . S
C19 H13 0.930 . S
C19 C15 1.407 . S
C19 C18 1.392 . S
N20 C18 1.420 . S
N20 C21 1.244 . S
C21 N20 1.244 . S
H22 C25 0.929 . S
H23 C28 0.929 . S
H24 C30 0.930 . S
C25 H22 0.929 . S
C25 C26 1.398 . S
C25 C27 1.396 . S
C26 C25 1.398 . S
C26 C30 1.407 . S
C27 C25 1.396 . S
C27 C28 1.394 . S
C28 H23 0.929 . S
C28 C27 1.394 . S
C28 C29 1.382 . S
C29 C28 1.382 . S
C29 C30 1.392 . S
C29 N31 1.420 . S
C30 H24 0.930 . S
C30 C26 1.407 . S
C30 C29 1.392 . S
N31 C29 1.420 . S
N31 C32 1.244 . S
C32 N31 1.244 . S
H33 C36 0.929 . S
H34 C39 0.929 . S
H35 C41 0.930 . S
C36 H33 0.929 . S
C36 C37 1.398 . S
C36 C38 1.396 . S
C37 C36 1.398 . S
C37 C41 1.407 . S
C38 C36 1.396 . S
C38 C39 1.394 . S
C39 H34 0.929 . S
C39 C38 1.394 . S
C39 C40 1.382 . S
C40 C39 1.382 . S
C40 C41 1.392 . S
C40 N42 1.420 . S
C41 H35 0.930 . S
C41 C37 1.407 . S
C41 C40 1.392 . S
N42 C40 1.420 . S
N42 C43 1.244 . S
C43 N42 1.244 . S
H44 C47 0.929 . S
H45 C50 0.929 . S
H46 C52 0.930 . S
C47 H44 0.929 . S
C47 C48 1.398 . S
C47 C49 1.396 . S
C48 C47 1.398 . S
C48 C52 1.407 . S
C49 C47 1.396 . S
C49 C50 1.394 . S
C50 H45 0.929 . S
C50 C49 1.394 . S
C50 C51 1.382 . S
C51 C50 1.382 . S
C51 C52 1.392 . S
C51 N53 1.420 . S
C52 H46 0.930 . S
C52 C48 1.407 . S
C52 C51 1.392 . S
N53 C51 1.420 . S
N53 C54 1.244 . S
C54 N53 1.244 . S
H55 C58 0.929 . S
H56 C61 0.929 . S
H57 C63 0.930 . S
C58 H55 0.929 . S
C58 C59 1.398 . S
C58 C60 1.396 . S
C59 C58 1.398 . S
C59 C63 1.407 . S
C60 C58 1.396 . S
C60 C61 1.394 . S
C61 H56 0.929 . S
C61 C60 1.394 . S
C61 C62 1.382 . S
C62 C61 1.382 . S
C62 C63 1.392 . S
C62 N64 1.420 . S
C63 H57 0.930 . S
C63 C59 1.407 . S
C63 C62 1.392 . S
N64 C62 1.420 . S
N64 C65 1.244 . S
C65 N64 1.244 . S
H66 C69 0.929 . S
H67 C72 0.929 . S
H68 C74 0.930 . S
C69 H66 0.929 . S
C69 C70 1.398 . S
C69 C71 1.396 . S
C70 C69 1.398 . S
C70 C74 1.407 . S
C71 C69 1.396 . S
C71 C72 1.394 . S
C72 H67 0.929 . S
C72 C71 1.394 . S
C72 C73 1.382 . S
C73 C72 1.382 . S
C73 C74 1.392 . S
C73 N75 1.420 . S
C74 H68 0.930 . S
C74 C70 1.407 . S
C74 C73 1.392 . S
N75 C73 1.420 . S
N75 C76 1.244 . S
C76 N75 1.244 . S
H77 C80 0.929 . S
H78 C83 0.929 . S
H79 C85 0.930 . S
C80 H77 0.929 . S
C80 C81 1.398 . S
C80 C82 1.396 . S
C81 C80 1.398 . S
C81 C85 1.407 . S
C82 C80 1.396 . S
C82 C83 1.394 . S
C83 H78 0.929 . S
C83 C82 1.394 . S
C83 C84 1.382 . S
C84 C83 1.382 . S
C84 C85 1.392 . S
C84 N86 1.420 . S
C85 H79 0.930 . S
C85 C81 1.407 . S
C85 C84 1.392 . S
N86 C84 1.420 . S
N86 C87 1.244 . S
C87 N86 1.244 . S
Zn88 O94 1.969 . S
Zn88 O95 1.965 1_545 S
Zn88 O99 2.024 . S
Zn88 O104 1.969 . S
Zn89 O96 1.969 1_545 S
Zn89 O102 1.969 . S
Zn89 O103 1.965 1_655 S
Zn89 O105 2.024 1_545 S
C90 O91 1.229 . S
C90 O99 1.058 . S
O91 C90 1.229 . S
C92 O93 1.229 . S
C92 O105 1.058 . S
O93 C92 1.229 . S
O94 Zn88 1.969 . S
O94 C97 1.267 1_545 S
O95 Zn88 1.965 1_565 S
O95 C106 1.260 1_455 S
O96 Zn89 1.969 1_565 S
O96 C106 1.258 . S
C97 O94 1.267 1_565 S
C97 O98 1.223 1_565 S
O98 C97 1.223 1_545 S
O99 Zn88 2.024 . S
O99 C90 1.058 . S
C100 O101 1.228 . S
C100 O102 1.267 . S
O101 C100 1.228 . S
O102 Zn89 1.969 . S
O102 C100 1.267 . S
O103 Zn89 1.965 1_455 S
O103 C107 1.260 . S
O104 Zn88 1.969 . S
O104 C107 1.258 . S
O105 Zn89 2.024 1_565 S
O105 C92 1.058 . S
C106 O95 1.260 1_655 S
C106 O96 1.258 . S
C107 O103 1.260 . S
C107 O104 1.258 . S
Zn108 O114 1.969 . S
Zn108 O115 1.965 1_565 S
Zn108 O119 2.024 1_554 S
Zn108 O124 1.969 . S
Zn109 O116 1.969 . S
Zn109 O122 1.969 . S
Zn109 O123 1.965 . S
Zn109 O125 2.024 . S
C110 O111 1.229 . S
C110 O119 1.058 . S
O111 C110 1.229 . S
C112 O113 1.229 . S
C112 O125 1.058 . S
O113 C112 1.229 . S
O114 Zn108 1.969 . S
O114 C117 1.267 1_554 S
O115 Zn108 1.965 1_545 S
O115 C126 1.260 . S
O116 Zn109 1.969 . S
O116 C126 1.258 . S
C117 O114 1.267 1_556 S
C117 O118 1.228 . S
O118 C117 1.228 . S
O119 Zn108 2.024 1_556 S
O119 C110 1.058 . S
C120 O121 1.228 . S
C120 O122 1.267 . S
O121 C120 1.228 . S
O122 Zn109 1.969 . S
O122 C120 1.267 . S
O123 Zn109 1.965 . S
O123 C127 1.260 1_545 S
O124 Zn108 1.969 . S
O124 C127 1.258 . S
O125 Zn109 2.024 . S
O125 C112 1.058 . S
C126 O115 1.260 . S
C126 O116 1.258 . S
C127 O123 1.260 1_565 S
C127 O124 1.258 . S
Zn128 O134 1.969 . S
Zn128 O135 1.965 . S
Zn128 O139 2.024 . S
Zn128 O144 1.969 . S
Zn129 O136 1.969 . S
Zn129 O142 1.969 . S
Zn129 O143 1.965 . S
Zn129 O145 2.024 . S
C130 O131 1.229 . S
C130 O139 1.058 . S
O131 C130 1.229 . S
C132 O133 1.229 . S
C132 O145 1.058 . S
O133 C132 1.229 . S
O134 Zn128 1.969 . S
O134 C137 1.267 . S
O135 Zn128 1.965 . S
O135 C146 1.260 . S
O136 Zn129 1.969 . S
O136 C146 1.258 . S
C137 O134 1.267 . S
C137 O138 1.228 . S
O138 C137 1.228 . S
O139 Zn128 2.024 . S
O139 C130 1.058 . S
C140 O141 1.228 . S
C140 O142 1.267 . S
O141 C140 1.228 . S
O142 Zn129 1.969 . S
O142 C140 1.267 . S
O143 Zn129 1.965 . S
O143 C147 1.260 . S
O144 Zn128 1.969 . S
O144 C147 1.258 . S
O145 Zn129 2.024 . S
O145 C132 1.058 . S
C146 O135 1.260 . S
C146 O136 1.258 . S
C147 O143 1.260 . S
C147 O144 1.258 . S
Zn148 O154 1.969 . S
Zn148 O155 1.960 1_656 S
Zn148 O159 2.024 . S
Zn148 O164 1.969 1_655 S
Zn149 O156 1.969 . S
Zn149 O162 1.969 . S
Zn149 O163 1.959 1_554 S
Zn149 O165 2.024 . S
C150 O151 1.229 . S
C150 O159 1.058 . S
O151 C150 1.229 . S
C152 O153 1.229 . S
C152 O165 1.058 . S
O153 C152 1.229 . S
O154 Zn148 1.969 . S
O154 C157 1.267 . S
O155 Zn148 1.960 1_454 S
O155 C166 1.260 1_455 S
O156 Zn149 1.969 . S
O156 C166 1.258 1_455 S
C157 O154 1.267 . S
C157 O158 1.228 . S
O158 C157 1.228 . S
O159 Zn148 2.024 . S
O159 C150 1.058 . S
C160 O161 1.228 . S
C160 O162 1.267 . S
O161 C160 1.228 . S
O162 Zn149 1.969 . S
O162 C160 1.267 . S
O163 Zn149 1.959 1_556 S
O163 C167 1.266 . S
O164 Zn148 1.969 1_455 S
O164 C167 1.258 . S
O165 Zn149 2.024 . S
O165 C152 1.058 . S
C166 O155 1.260 1_655 S
C166 O156 1.258 1_655 S
C167 O163 1.266 . S
C167 O164 1.258 . S
H168 C176 0.929 . S
H169 C178 0.930 . S
H170 C180 0.930 . S
H171 C183 0.929 . S
H172 C186 0.930 . S
H173 C188 0.960 . S
H174 C188 0.960 . S
H175 C188 0.960 . S
C176 H168 0.929 . S
C176 C177 1.377 . S
C176 C178 1.384 . S
C177 C176 1.377 . S
C177 C183 1.390 . S
C178 H169 0.930 . S
C178 C176 1.384 . S
C178 C179 1.372 . S
C179 C178 1.372 . S
C179 C180 1.400 . S
C179 C184 1.490 . S
C180 H170 0.930 . S
C180 C179 1.400 . S
C180 C183 1.386 . S
H181 C197 0.930 . S
H182 C198 0.931 . S
C183 H171 0.929 . S
C183 C177 1.390 . S
C183 C180 1.386 . S
C184 C179 1.490 . S
C184 C186 1.395 . S
C184 C187 1.403 . S
H185 C191 0.930 . S
C186 H172 0.930 . S
C186 C184 1.395 . S
C186 C189 1.403 . S
C187 C184 1.403 . S
C187 C188 1.524 . S
C187 C191 1.400 . S
C188 H173 0.960 . S
C188 H174 0.960 . S
C188 H175 0.960 . S
C188 C187 1.524 . S
C189 C186 1.403 . S
C189 C190 1.392 . S
C189 C193 1.495 . S
C190 C189 1.392 . S
C190 C191 1.385 . S
C190 C192 1.478 . S
C191 H185 0.930 . S
C191 C187 1.400 . S
C191 C190 1.385 . S
C192 C190 1.478 . S
C192 C194 1.381 . S
C192 C198 1.383 . S
C193 C189 1.495 . S
C193 H199 0.959 . S
C193 H200 0.961 . S
C193 H201 0.960 . S
C194 C192 1.381 . S
C194 C195 1.394 . S
C194 H202 0.930 . S
C195 C194 1.394 . S
C195 C196 1.383 . S
C195 H203 0.929 . S
C196 C195 1.383 . S
C196 C197 1.377 . S
C197 H181 0.930 . S
C197 C196 1.377 . S
C197 C198 1.379 . S
C198 H182 0.931 . S
C198 C192 1.383 . S
C198 C197 1.379 . S
H199 C193 0.959 . S
H200 C193 0.961 . S
H201 C193 0.960 . S
H202 C194 0.930 . S
H203 C195 0.929 . S
H204 C212 0.929 . S
H205 C214 0.930 . S
H206 C216 0.930 . S
H207 C219 0.929 . S
H208 C222 0.930 . S
H209 C224 0.960 . S
H210 C224 0.960 . S
H211 C224 0.960 . S
C212 H204 0.929 . S
C212 C213 1.377 . S
C212 C214 1.384 . S
C213 C212 1.377 . S
C213 C219 1.390 . S
C214 H205 0.930 . S
C214 C212 1.384 . S
C214 C215 1.372 . S
C215 C214 1.372 . S
C215 C216 1.400 . S
C215 C220 1.490 . S
C216 H206 0.930 . S
C216 C215 1.400 . S
C216 C219 1.386 . S
H217 C233 0.930 . S
H218 C234 0.931 . S
C219 H207 0.929 . S
C219 C213 1.390 . S
C219 C216 1.386 . S
C220 C215 1.490 . S
C220 C222 1.395 . S
C220 C223 1.403 . S
H221 C227 0.930 . S
C222 H208 0.930 . S
C222 C220 1.395 . S
C222 C225 1.403 . S
C223 C220 1.403 . S
C223 C224 1.524 . S
C223 C227 1.400 . S
C224 H209 0.960 . S
C224 H210 0.960 . S
C224 H211 0.960 . S
C224 C223 1.524 . S
C225 C222 1.403 . S
C225 C226 1.392 . S
C225 C229 1.495 . S
C226 C225 1.392 . S
C226 C227 1.385 . S
C226 C228 1.478 . S
C227 H221 0.930 . S
C227 C223 1.400 . S
C227 C226 1.385 . S
C228 C226 1.478 . S
C228 C230 1.381 . S
C228 C234 1.383 . S
C229 C225 1.495 . S
C229 H235 0.959 . S
C229 H236 0.961 . S
C229 H237 0.952 1_565 S
C230 C228 1.381 . S
C230 C231 1.394 . S
C230 H238 0.930 . S
C231 C230 1.394 . S
C231 C232 1.383 . S
C231 H239 0.929 . S
C232 C231 1.383 . S
C232 C233 1.377 . S
C233 H217 0.930 . S
C233 C232 1.377 . S
C233 C234 1.379 . S
C234 H218 0.931 . S
C234 C228 1.383 . S
C234 C233 1.379 . S
H235 C229 0.959 . S
H236 C229 0.961 . S
H237 C229 0.952 1_545 S
H238 C230 0.930 . S
H239 C231 0.929 . S
H240 C248 0.929 . S
H241 C250 0.930 . S
H242 C252 0.930 . S
H243 C255 0.929 . S
H244 C258 0.930 . S
H245 C260 0.960 . S
H246 C260 0.960 . S
H247 C260 0.960 . S
C248 H240 0.929 . S
C248 C249 1.377 . S
C248 C250 1.384 . S
C249 C248 1.377 . S
C249 C255 1.390 . S
C250 H241 0.930 . S
C250 C248 1.384 . S
C250 C251 1.372 . S
C251 C250 1.372 . S
C251 C252 1.400 . S
C251 C256 1.490 . S
C252 H242 0.930 . S
C252 C251 1.400 . S
C252 C255 1.386 . S
H253 C269 0.930 . S
H254 C270 0.931 . S
C255 H243 0.929 . S
C255 C249 1.390 . S
C255 C252 1.386 . S
C256 C251 1.490 . S
C256 C258 1.395 . S
C256 C259 1.403 . S
H257 C263 0.930 . S
C258 H244 0.930 . S
C258 C256 1.395 . S
C258 C261 1.403 . S
C259 C256 1.403 . S
C259 C260 1.524 . S
C259 C263 1.400 . S
C260 H245 0.960 . S
C260 H246 0.960 . S
C260 H247 0.960 . S
C260 C259 1.524 . S
C261 C258 1.403 . S
C261 C262 1.392 . S
C261 C265 1.495 . S
C262 C261 1.392 . S
C262 C263 1.385 . S
C262 C264 1.478 . S
C263 H257 0.930 . S
C263 C259 1.400 . S
C263 C262 1.385 . S
C264 C262 1.478 . S
C264 C266 1.381 . S
C264 C270 1.383 . S
C265 C261 1.495 . S
C265 H271 0.959 . S
C265 H272 0.961 . S
C265 H273 0.960 . S
C266 C264 1.381 . S
C266 C267 1.394 . S
C266 H274 0.930 . S
C267 C266 1.394 . S
C267 C268 1.383 . S
C267 H275 0.929 . S
C268 C267 1.383 . S
C268 C269 1.377 . S
C269 H253 0.930 . S
C269 C268 1.377 . S
C269 C270 1.379 . S
C270 H254 0.931 . S
C270 C264 1.383 . S
C270 C269 1.379 . S
H271 C265 0.959 . S
H272 C265 0.961 . S
H273 C265 0.960 . S
H274 C266 0.930 . S
H275 C267 0.929 . S
H276 C284 0.929 . S
H277 C286 0.930 . S
H278 C288 0.930 . S
H279 C291 0.929 . S
H280 C294 0.930 . S
H281 C296 0.960 . S
H282 C296 0.960 . S
H283 C296 0.960 . S
C284 H276 0.929 . S
C284 C285 1.377 . S
C284 C286 1.384 . S
C285 C284 1.377 . S
C285 C291 1.390 . S
C286 H277 0.930 . S
C286 C284 1.384 . S
C286 C287 1.372 . S
C287 C286 1.372 . S
C287 C288 1.400 . S
C287 C292 1.490 . S
C288 H278 0.930 . S
C288 C287 1.400 . S
C288 C291 1.386 . S
H289 C305 0.930 . S
H290 C306 0.931 . S
C291 H279 0.929 . S
C291 C285 1.390 . S
C291 C288 1.386 . S
C292 C287 1.490 . S
C292 C294 1.395 . S
C292 C295 1.403 . S
H293 C299 0.930 . S
C294 H280 0.930 . S
C294 C292 1.395 . S
C294 C297 1.403 . S
C295 C292 1.403 . S
C295 C296 1.524 . S
C295 C299 1.400 . S
C296 H281 0.960 . S
C296 H282 0.960 . S
C296 H283 0.960 . S
C296 C295 1.524 . S
C297 C294 1.403 . S
C297 C298 1.392 . S
C297 C301 1.495 . S
C298 C297 1.392 . S
C298 C299 1.385 . S
C298 C300 1.478 . S
C299 H293 0.930 . S
C299 C295 1.400 . S
C299 C298 1.385 . S
C300 C298 1.478 . S
C300 C302 1.381 . S
C300 C306 1.383 . S
C301 C297 1.495 . S
C301 H307 0.959 . S
C301 H308 0.961 . S
C301 H309 0.960 . S
C302 C300 1.381 . S
C302 C303 1.394 . S
C302 H310 0.930 . S
C303 C302 1.394 . S
C303 C304 1.383 . S
C303 H311 0.929 . S
C304 C303 1.383 . S
C304 C305 1.377 . S
C305 H289 0.930 . S
C305 C304 1.377 . S
C305 C306 1.379 . S
C306 H290 0.931 . S
C306 C300 1.383 . S
C306 C305 1.379 . S
H307 C301 0.959 . S
H308 C301 0.961 . S
H309 C301 0.960 . S
H310 C302 0.930 . S
H311 C303 0.929 . S
H312 C320 0.929 . S
H313 C322 0.930 . S
H314 C324 0.930 . S
H315 C327 0.929 . S
H316 C330 0.930 . S
H317 C332 0.960 . S
H318 C332 0.960 . S
H319 C332 0.960 . S
C320 H312 0.929 . S
C320 C321 1.377 . S
C320 C322 1.384 . S
C321 C320 1.377 . S
C321 C327 1.390 . S
C322 H313 0.930 . S
C322 C320 1.384 . S
C322 C323 1.372 . S
C323 C322 1.372 . S
C323 C324 1.400 . S
C323 C328 1.490 . S
C324 H314 0.930 . S
C324 C323 1.400 . S
C324 C327 1.386 . S
H325 C341 0.930 . S
H326 C342 0.931 . S
C327 H315 0.929 . S
C327 C321 1.390 . S
C327 C324 1.386 . S
C328 C323 1.490 . S
C328 C330 1.395 . S
C328 C331 1.403 . S
H329 C335 0.930 . S
C330 H316 0.930 . S
C330 C328 1.395 . S
C330 C333 1.403 . S
C331 C328 1.403 . S
C331 C332 1.524 . S
C331 C335 1.400 . S
C332 H317 0.960 . S
C332 H318 0.960 . S
C332 H319 0.960 . S
C332 C331 1.524 . S
C333 C330 1.403 . S
C333 C334 1.392 . S
C333 C337 1.495 . S
C334 C333 1.392 . S
C334 C335 1.385 . S
C334 C336 1.478 . S
C335 H329 0.930 . S
C335 C331 1.400 . S
C335 C334 1.385 . S
C336 C334 1.478 . S
C336 C338 1.381 . S
C336 C342 1.383 . S
C337 C333 1.495 . S
C337 H343 0.959 . S
C337 H344 0.961 . S
C337 H345 0.960 . S
C338 C336 1.381 . S
C338 C339 1.394 . S
C338 H346 0.930 . S
C339 C338 1.394 . S
C339 C340 1.383 . S
C339 H347 0.929 . S
C340 C339 1.383 . S
C340 C341 1.377 . S
C341 H325 0.930 . S
C341 C340 1.377 . S
C341 C342 1.379 . S
C342 H326 0.931 . S
C342 C336 1.383 . S
C342 C341 1.379 . S
H343 C337 0.959 . S
H344 C337 0.961 . S
H345 C337 0.960 . S
H346 C338 0.930 . S
H347 C339 0.929 . S
H348 C356 0.929 . S
H349 C358 0.930 . S
H350 C360 0.930 . S
H351 C363 0.929 . S
H352 C366 0.930 . S
H353 C368 0.960 . S
H354 C368 0.960 . S
H355 C368 0.960 . S
C356 H348 0.929 . S
C356 C357 1.377 . S
C356 C358 1.384 . S
C357 C356 1.377 . S
C357 C363 1.390 . S
C358 H349 0.930 . S
C358 C356 1.384 . S
C358 C359 1.372 . S
C359 C358 1.372 . S
C359 C360 1.400 . S
C359 C364 1.490 . S
C360 H350 0.930 . S
C360 C359 1.400 . S
C360 C363 1.386 . S
H361 C377 0.930 . S
H362 C378 0.931 . S
C363 H351 0.929 . S
C363 C357 1.390 . S
C363 C360 1.386 . S
C364 C359 1.490 . S
C364 C366 1.395 . S
C364 C367 1.403 . S
H365 C371 0.930 . S
C366 H352 0.930 . S
C366 C364 1.395 . S
C366 C369 1.403 . S
C367 C364 1.403 . S
C367 C368 1.524 . S
C367 C371 1.400 . S
C368 H353 0.960 . S
C368 H354 0.960 . S
C368 H355 0.960 . S
C368 C367 1.524 . S
C369 C366 1.403 . S
C369 C370 1.392 . S
C369 C373 1.495 . S
C370 C369 1.392 . S
C370 C371 1.385 . S
C370 C372 1.478 . S
C371 H365 0.930 . S
C371 C367 1.400 . S
C371 C370 1.385 . S
C372 C370 1.478 . S
C372 C374 1.381 . S
C372 C378 1.383 . S
C373 C369 1.495 . S
C373 H379 0.959 . S
C373 H380 0.961 . S
C373 H381 0.959 . S
C374 C372 1.381 . S
C374 C375 1.394 1_565 S
C374 H382 0.930 1_565 S
C375 C374 1.394 1_545 S
C375 C376 1.383 1_545 S
C375 H383 0.929 . S
C376 C375 1.383 1_565 S
C376 C377 1.377 . S
C377 H361 0.930 . S
C377 C376 1.377 . S
C377 C378 1.379 . S
C378 H362 0.931 . S
C378 C372 1.383 . S
C378 C377 1.379 . S
H379 C373 0.959 . S
H380 C373 0.961 . S
H381 C373 0.959 . S
H382 C374 0.930 1_545 S
H383 C375 0.929 . S
H384 C392 0.929 . S
H385 C394 0.930 . S
H386 C396 0.930 . S
H387 C399 0.929 . S
H388 C402 0.930 . S
H389 C404 0.960 . S
H390 C404 0.960 . S
H391 C404 0.960 . S
C392 H384 0.929 . S
C392 C393 1.377 . S
C392 C394 1.384 . S
C393 C392 1.377 . S
C393 C399 1.390 . S
C394 H385 0.930 . S
C394 C392 1.384 . S
C394 C395 1.372 . S
C395 C394 1.372 . S
C395 C396 1.400 . S
C395 C400 1.490 . S
C396 H386 0.930 . S
C396 C395 1.400 . S
C396 C399 1.386 . S
H397 C413 0.930 . S
H398 C414 0.931 . S
C399 H387 0.929 . S
C399 C393 1.390 . S
C399 C396 1.386 . S
C400 C395 1.490 . S
C400 C402 1.395 . S
C400 C403 1.403 . S
H401 C407 0.930 . S
C402 H388 0.930 . S
C402 C400 1.395 . S
C402 C405 1.403 . S
C403 C400 1.403 . S
C403 C404 1.524 . S
C403 C407 1.400 . S
C404 H389 0.960 . S
C404 H390 0.960 . S
C404 H391 0.960 . S
C404 C403 1.524 . S
C405 C402 1.403 . S
C405 C406 1.392 . S
C405 C409 1.495 . S
C406 C405 1.392 . S
C406 C407 1.385 . S
C406 C408 1.478 . S
C407 H401 0.930 . S
C407 C403 1.400 . S
C407 C406 1.385 . S
C408 C406 1.478 . S
C408 C410 1.381 . S
C408 C414 1.383 . S
C409 C405 1.495 . S
C409 H415 0.959 . S
C409 H416 0.961 . S
C409 H417 0.960 . S
C410 C408 1.381 . S
C410 C411 1.394 . S
C410 H418 0.930 . S
C411 C410 1.394 . S
C411 C412 1.383 . S
C411 H419 0.929 . S
C412 C411 1.383 . S
C412 C413 1.377 . S
C413 H397 0.930 . S
C413 C412 1.377 . S
C413 C414 1.379 . S
C414 H398 0.931 . S
C414 C408 1.383 . S
C414 C413 1.379 . S
H415 C409 0.959 . S
H416 C409 0.961 . S
H417 C409 0.960 . S
H418 C410 0.930 . S
H419 C411 0.929 . S
H420 C428 0.929 . S
H421 C430 0.930 . S
H422 C432 0.930 . S
H423 C435 0.929 . S
H424 C438 0.930 . S
H425 C440 0.960 . S
H426 C440 0.960 . S
H427 C440 0.960 . S
C428 H420 0.929 . S
C428 C429 1.377 . S
C428 C430 1.384 . S
C429 C428 1.377 . S
C429 C435 1.390 . S
C430 H421 0.930 . S
C430 C428 1.384 . S
C430 C431 1.372 . S
C431 C430 1.372 . S
C431 C432 1.400 . S
C431 C436 1.490 . S
C432 H422 0.930 . S
C432 C431 1.400 . S
C432 C435 1.386 . S
H433 C449 0.930 . S
H434 C450 0.931 . S
C435 H423 0.929 . S
C435 C429 1.390 . S
C435 C432 1.386 . S
C436 C431 1.490 . S
C436 C438 1.395 . S
C436 C439 1.403 . S
H437 C443 0.930 . S
C438 H424 0.930 . S
C438 C436 1.395 . S
C438 C441 1.403 . S
C439 C436 1.403 . S
C439 C440 1.524 . S
C439 C443 1.400 . S
C440 H425 0.960 . S
C440 H426 0.960 . S
C440 H427 0.960 . S
C440 C439 1.524 . S
C441 C438 1.403 . S
C441 C442 1.392 . S
C441 C445 1.495 . S
C442 C441 1.392 . S
C442 C443 1.385 . S
C442 C444 1.478 . S
C443 H437 0.930 . S
C443 C439 1.400 . S
C443 C442 1.385 . S
C444 C442 1.478 . S
C444 C446 1.381 . S
C444 C450 1.383 . S
C445 C441 1.495 . S
C445 H451 0.959 . S
C445 H452 0.961 . S
C445 H453 0.960 . S
C446 C444 1.381 . S
C446 C447 1.394 . S
C446 H454 0.930 . S
C447 C446 1.394 . S
C447 C448 1.383 . S
C447 H455 0.929 . S
C448 C447 1.383 . S
C448 C449 1.377 . S
C449 H433 0.930 . S
C449 C448 1.377 . S
C449 C450 1.379 . S
C450 H434 0.931 . S
C450 C444 1.383 . S
C450 C449 1.379 . S
H451 C445 0.959 . S
H452 C445 0.961 . S
H453 C445 0.960 . S
H454 C446 0.930 . S
H455 C447 0.929 . S
H456 C464 0.929 . S
H457 C466 0.930 . S
H458 C468 0.930 . S
H459 C471 0.929 . S
H460 C474 0.930 . S
H461 C476 0.960 . S
H462 C476 0.960 . S
H463 C476 0.960 . S
C464 H456 0.929 . S
C464 C465 1.377 . S
C464 C466 1.384 . S
C465 C464 1.377 . S
C465 C471 1.390 . S
C466 H457 0.930 . S
C466 C464 1.384 . S
C466 C467 1.372 . S
C467 C466 1.372 . S
C467 C468 1.400 . S
C467 C472 1.490 . S
C468 H458 0.930 . S
C468 C467 1.400 . S
C468 C471 1.386 . S
H469 C485 0.930 . S
H470 C486 0.931 . S
C471 H459 0.929 . S
C471 C465 1.390 . S
C471 C468 1.386 . S
C472 C467 1.490 . S
C472 C474 1.395 . S
C472 C475 1.403 . S
H473 C479 0.930 . S
C474 H460 0.930 . S
C474 C472 1.395 . S
C474 C477 1.403 . S
C475 C472 1.403 . S
C475 C476 1.524 . S
C475 C479 1.400 . S
C476 H461 0.960 . S
C476 H462 0.960 . S
C476 H463 0.960 . S
C476 C475 1.524 . S
C477 C474 1.403 . S
C477 C478 1.392 . S
C477 C481 1.495 . S
C478 C477 1.392 . S
C478 C479 1.385 . S
C478 C480 1.478 . S
C479 H473 0.930 . S
C479 C475 1.400 . S
C479 C478 1.385 . S
C480 C478 1.478 . S
C480 C482 1.381 . S
C480 C486 1.383 . S
C481 C477 1.495 . S
C481 H487 0.959 . S
C481 H488 0.961 . S
C481 H489 0.960 . S
C482 C480 1.381 . S
C482 C483 1.394 . S
C482 H490 0.930 . S
C483 C482 1.394 . S
C483 C484 1.383 . S
C483 H491 0.929 . S
C484 C483 1.383 . S
C484 C485 1.377 . S
C485 H469 0.930 . S
C485 C484 1.377 . S
C485 C486 1.379 . S
C486 H470 0.931 . S
C486 C480 1.383 . S
C486 C485 1.379 . S
H487 C481 0.959 . S
H488 C481 0.961 . S
H489 C481 0.960 . S
H490 C482 0.930 . S
H491 C483 0.929 . S
H492 C500 0.929 . S
H493 C502 0.930 . S
H494 C504 0.930 . S
H495 C507 0.929 . S
H496 C510 0.930 . S
H497 C512 0.960 . S
H498 C512 0.960 . S
H499 C512 0.960 . S
C500 H492 0.929 . S
C500 C501 1.377 . S
C500 C502 1.384 . S
C501 C500 1.377 . S
C501 C507 1.390 . S
C502 H493 0.930 . S
C502 C500 1.384 . S
C502 C503 1.372 . S
C503 C502 1.372 . S
C503 C504 1.400 . S
C503 C508 1.490 . S
C504 H494 0.930 . S
C504 C503 1.400 . S
C504 C507 1.386 . S
H505 C521 0.930 . S
H506 C522 0.931 . S
C507 H495 0.929 . S
C507 C501 1.390 . S
C507 C504 1.386 . S
C508 C503 1.490 . S
C508 C510 1.395 . S
C508 C511 1.403 . S
H509 C515 0.930 . S
C510 H496 0.930 . S
C510 C508 1.395 . S
C510 C513 1.403 . S
C511 C508 1.403 . S
C511 C512 1.524 . S
C511 C515 1.400 . S
C512 H497 0.960 . S
C512 H498 0.960 . S
C512 H499 0.960 . S
C512 C511 1.524 . S
C513 C510 1.403 . S
C513 C514 1.392 . S
C513 C517 1.495 . S
C514 C513 1.392 . S
C514 C515 1.385 . S
C514 C516 1.478 . S
C515 H509 0.930 . S
C515 C511 1.400 . S
C515 C514 1.385 . S
C516 C514 1.478 . S
C516 C518 1.381 . S
C516 C522 1.383 . S
C517 C513 1.495 . S
C517 H523 0.959 . S
C517 H524 0.961 . S
C517 H525 0.960 . S
C518 C516 1.381 . S
C518 C519 1.394 . S
C518 H526 0.930 . S
C519 C518 1.394 . S
C519 C520 1.383 . S
C519 H527 0.929 . S
C520 C519 1.383 . S
C520 C521 1.377 . S
C521 H505 0.930 . S
C521 C520 1.377 . S
C521 C522 1.379 . S
C522 H506 0.931 . S
C522 C516 1.383 . S
C522 C521 1.379 . S
H523 C517 0.959 . S
H524 C517 0.961 . S
H525 C517 0.960 . S
H526 C518 0.930 . S
H527 C519 0.929 . S
H528 C536 0.929 . S
H529 C538 0.930 . S
H530 C540 0.930 . S
H531 C543 0.929 . S
H532 C546 0.930 . S
H533 C548 0.960 . S
H534 C548 0.960 . S
H535 C548 0.960 . S
C536 H528 0.929 . S
C536 C537 1.377 . S
C536 C538 1.384 . S
C537 C536 1.377 . S
C537 C543 1.390 . S
C538 H529 0.930 . S
C538 C536 1.384 . S
C538 C539 1.372 . S
C539 C538 1.372 . S
C539 C540 1.400 . S
C539 C544 1.490 . S
C540 H530 0.930 . S
C540 C539 1.400 . S
C540 C543 1.386 . S
H541 C557 0.930 . S
H542 C558 0.931 . S
C543 H531 0.929 . S
C543 C537 1.390 . S
C543 C540 1.386 . S
C544 C539 1.490 . S
C544 C546 1.395 . S
C544 C547 1.403 . S
H545 C551 0.930 . S
C546 H532 0.930 . S
C546 C544 1.395 . S
C546 C549 1.403 . S
C547 C544 1.403 . S
C547 C548 1.524 . S
C547 C551 1.400 . S
C548 H533 0.960 . S
C548 H534 0.960 . S
C548 H535 0.960 . S
C548 C547 1.524 . S
C549 C546 1.403 . S
C549 C550 1.392 . S
C549 C553 1.495 . S
C550 C549 1.392 . S
C550 C551 1.385 . S
C550 C552 1.478 . S
C551 H545 0.930 . S
C551 C547 1.400 . S
C551 C550 1.385 . S
C552 C550 1.478 . S
C552 C554 1.381 . S
C552 C558 1.383 . S
C553 C549 1.495 . S
C553 H559 0.959 . S
C553 H560 0.961 . S
C553 H561 0.960 . S
C554 C552 1.381 . S
C554 C555 1.394 . S
C554 H562 0.930 . S
C555 C554 1.394 . S
C555 C556 1.383 . S
C555 H563 0.929 . S
C556 C555 1.383 . S
C556 C557 1.377 . S
C557 H541 0.930 . S
C557 C556 1.377 . S
C557 C558 1.379 . S
C558 H542 0.931 . S
C558 C552 1.383 . S
C558 C557 1.379 . S
H559 C553 0.959 . S
H560 C553 0.961 . S
H561 C553 0.960 . S
H562 C554 0.930 . S
H563 C555 0.929 . S
H564 C572 0.929 . S
H565 C574 0.930 . S
H566 C576 0.930 . S
H567 C579 0.929 . S
H568 C582 0.930 . S
H569 C584 0.960 . S
H570 C584 0.960 . S
H571 C584 0.960 . S
C572 H564 0.929 . S
C572 C573 1.377 . S
C572 C574 1.384 . S
C573 C572 1.377 . S
C573 C579 1.390 . S
C574 H565 0.930 . S
C574 C572 1.384 . S
C574 C575 1.372 . S
C575 C574 1.372 . S
C575 C576 1.400 . S
C575 C580 1.490 . S
C576 H566 0.930 . S
C576 C575 1.400 . S
C576 C579 1.386 . S
H577 C593 0.930 . S
H578 C594 0.931 . S
C579 H567 0.929 . S
C579 C573 1.390 . S
C579 C576 1.386 . S
C580 C575 1.490 . S
C580 C582 1.395 . S
C580 C583 1.403 . S
H581 C587 0.930 . S
C582 H568 0.930 . S
C582 C580 1.395 . S
C582 C585 1.403 . S
C583 C580 1.403 . S
C583 C584 1.524 . S
C583 C587 1.400 . S
C584 H569 0.960 . S
C584 H570 0.960 . S
C584 H571 0.960 . S
C584 C583 1.524 . S
C585 C582 1.403 . S
C585 C586 1.392 . S
C585 C589 1.495 . S
C586 C585 1.392 . S
C586 C587 1.385 . S
C586 C588 1.478 . S
C587 H581 0.930 . S
C587 C583 1.400 . S
C587 C586 1.385 . S
C588 C586 1.478 . S
C588 C590 1.381 . S
C588 C594 1.383 . S
C589 C585 1.495 . S
C589 H595 0.959 . S
C589 H596 0.961 . S
C589 H597 0.960 . S
C590 C588 1.381 . S
C590 C591 1.394 . S
C590 H598 0.930 . S
C591 C590 1.394 . S
C591 C592 1.383 . S
C591 H599 0.929 . S
C592 C591 1.383 . S
C592 C593 1.377 . S
C593 H577 0.930 . S
C593 C592 1.377 . S
C593 C594 1.379 . S
C594 H578 0.931 . S
C594 C588 1.383 . S
C594 C593 1.379 . S
H595 C589 0.959 . S
H596 C589 0.961 . S
H597 C589 0.960 . S
H598 C590 0.930 . S
H599 C591 0.929 . S
H600 C608 0.929 . S
H601 C610 0.930 . S
H602 C612 0.930 . S
H603 C615 0.929 . S
H604 C618 0.930 . S
H605 C620 0.960 . S
H606 C620 0.960 . S
H607 C620 0.960 . S
C608 H600 0.929 . S
C608 C609 1.377 . S
C608 C610 1.384 . S
C609 C608 1.377 . S
C609 C615 1.390 . S
C610 H601 0.930 . S
C610 C608 1.384 . S
C610 C611 1.372 . S
C611 C610 1.372 . S
C611 C612 1.400 . S
C611 C616 1.490 . S
C612 H602 0.930 . S
C612 C611 1.400 . S
C612 C615 1.386 . S
H613 C629 0.930 . S
H614 C630 0.931 . S
C615 H603 0.929 . S
C615 C609 1.390 . S
C615 C612 1.386 . S
C616 C611 1.490 . S
C616 C618 1.395 . S
C616 C619 1.403 . S
H617 C623 0.930 . S
C618 H604 0.930 . S
C618 C616 1.395 . S
C618 C621 1.403 . S
C619 C616 1.403 . S
C619 C620 1.524 . S
C619 C623 1.400 . S
C620 H605 0.960 . S
C620 H606 0.960 . S
C620 H607 0.960 . S
C620 C619 1.524 . S
C621 C618 1.403 . S
C621 C622 1.392 . S
C621 C625 1.495 . S
C622 C621 1.392 . S
C622 C623 1.385 . S
C622 C624 1.478 . S
C623 H617 0.930 . S
C623 C619 1.400 . S
C623 C622 1.385 . S
C624 C622 1.478 . S
C624 C626 1.381 . S
C624 C630 1.383 . S
C625 C621 1.495 . S
C625 H631 0.959 . S
C625 H632 0.961 . S
C625 H633 0.960 . S
C626 C624 1.381 . S
C626 C627 1.394 . S
C626 H634 0.930 . S
C627 C626 1.394 . S
C627 C628 1.383 . S
C627 H635 0.929 . S
C628 C627 1.383 . S
C628 C629 1.377 . S
C629 H613 0.930 . S
C629 C628 1.377 . S
C629 C630 1.379 . S
C630 H614 0.931 . S
C630 C624 1.383 . S
C630 C629 1.379 . S
H631 C625 0.959 . S
H632 C625 0.961 . S
H633 C625 0.960 . S
H634 C626 0.930 . S
H635 C627 0.929 . S
H636 C644 0.929 . S
H637 C646 0.930 . S
H638 C648 0.930 . S
H639 C651 0.929 . S
H640 C654 0.930 . S
H641 C656 0.960 . S
H642 C656 0.960 . S
H643 C656 0.960 . S
C644 H636 0.929 . S
C644 C645 1.377 . S
C644 C646 1.384 . S
C645 C644 1.377 . S
C645 C651 1.390 . S
C646 H637 0.930 . S
C646 C644 1.384 . S
C646 C647 1.372 . S
C647 C646 1.372 . S
C647 C648 1.400 . S
C647 C652 1.490 . S
C648 H638 0.930 . S
C648 C647 1.400 . S
C648 C651 1.386 . S
H649 C665 0.930 . S
H650 C666 0.931 . S
C651 H639 0.929 . S
C651 C645 1.390 . S
C651 C648 1.386 . S
C652 C647 1.490 . S
C652 C654 1.395 . S
C652 C655 1.403 . S
H653 C659 0.930 . S
C654 H640 0.930 . S
C654 C652 1.395 . S
C654 C657 1.403 . S
C655 C652 1.403 . S
C655 C656 1.524 . S
C655 C659 1.400 . S
C656 H641 0.960 . S
C656 H642 0.960 . S
C656 H643 0.960 . S
C656 C655 1.524 . S
C657 C654 1.403 . S
C657 C658 1.392 . S
C657 C661 1.495 . S
C658 C657 1.392 . S
C658 C659 1.385 . S
C658 C660 1.478 . S
C659 H653 0.930 . S
C659 C655 1.400 . S
C659 C658 1.385 . S
C660 C658 1.478 . S
C660 C662 1.381 . S
C660 C666 1.383 . S
C661 C657 1.495 . S
C661 H667 0.959 . S
C661 H668 0.961 . S
C661 H669 0.960 . S
C662 C660 1.381 . S
C662 C663 1.394 . S
C662 H670 0.930 . S
C663 C662 1.394 . S
C663 C664 1.383 . S
C663 H671 0.929 . S
C664 C663 1.383 . S
C664 C665 1.377 . S
C665 H649 0.930 . S
C665 C664 1.377 . S
C665 C666 1.379 . S
C666 H650 0.931 . S
C666 C660 1.383 . S
C666 C665 1.379 . S
H667 C661 0.959 . S
H668 C661 0.961 . S
H669 C661 0.960 . S
H670 C662 0.930 . S
H671 C663 0.929 . S
H672 C680 0.929 . S
H673 C682 0.930 . S
H674 C684 0.930 . S
H675 C687 0.929 . S
H676 C690 0.930 . S
H677 C692 0.960 . S
H678 C692 0.960 . S
H679 C692 0.960 . S
C680 H672 0.929 . S
C680 C681 1.377 . S
C680 C682 1.384 . S
C681 C680 1.377 . S
C681 C687 1.390 . S
C682 H673 0.930 . S
C682 C680 1.384 . S
C682 C683 1.372 . S
C683 C682 1.372 . S
C683 C684 1.400 . S
C683 C688 1.490 . S
C684 H674 0.930 . S
C684 C683 1.400 . S
C684 C687 1.386 . S
H685 C701 0.930 . S
H686 C702 0.931 . S
C687 H675 0.929 . S
C687 C681 1.390 . S
C687 C684 1.386 . S
C688 C683 1.490 . S
C688 C690 1.395 . S
C688 C691 1.403 . S
H689 C695 0.930 . S
C690 H676 0.930 . S
C690 C688 1.395 . S
C690 C693 1.403 . S
C691 C688 1.403 . S
C691 C692 1.524 . S
C691 C695 1.400 . S
C692 H677 0.960 . S
C692 H678 0.960 . S
C692 H679 0.960 . S
C692 C691 1.524 . S
C693 C690 1.403 . S
C693 C694 1.392 . S
C693 C697 1.495 . S
C694 C693 1.392 . S
C694 C695 1.385 . S
C694 C696 1.478 . S
C695 H689 0.930 . S
C695 C691 1.400 . S
C695 C694 1.385 . S
C696 C694 1.478 . S
C696 C698 1.381 . S
C696 C702 1.383 . S
C697 C693 1.495 . S
C697 H703 0.959 . S
C697 H704 0.961 . S
C697 H705 0.960 . S
C698 C696 1.381 . S
C698 C699 1.394 . S
C698 H706 0.930 . S
C699 C698 1.394 . S
C699 C700 1.383 . S
C699 H707 0.929 . S
C700 C699 1.383 . S
C700 C701 1.377 . S
C701 H685 0.930 . S
C701 C700 1.377 . S
C701 C702 1.379 . S
C702 H686 0.931 . S
C702 C696 1.383 . S
C702 C701 1.379 . S
H703 C697 0.959 . S
H704 C697 0.961 . S
H705 C697 0.960 . S
H706 C698 0.930 . S
H707 C699 0.929 . S
H708 C716 0.929 . S
H709 C718 0.930 . S
H710 C720 0.930 . S
H711 C723 0.929 . S
H712 C726 0.930 . S
H713 C728 0.960 . S
H714 C728 0.960 . S
H715 C728 0.960 . S
C716 H708 0.929 . S
C716 C717 1.377 . S
C716 C718 1.384 . S
C717 C716 1.377 . S
C717 C723 1.390 . S
C718 H709 0.930 . S
C718 C716 1.384 . S
C718 C719 1.372 . S
C719 C718 1.372 . S
C719 C720 1.400 . S
C719 C724 1.490 . S
C720 H710 0.930 . S
C720 C719 1.400 . S
C720 C723 1.386 . S
H721 C737 0.930 . S
H722 C738 0.931 . S
C723 H711 0.929 . S
C723 C717 1.390 . S
C723 C720 1.386 . S
C724 C719 1.490 . S
C724 C726 1.395 . S
C724 C727 1.403 . S
H725 C731 0.930 . S
C726 H712 0.930 . S
C726 C724 1.395 . S
C726 C729 1.403 . S
C727 C724 1.403 . S
C727 C728 1.524 . S
C727 C731 1.400 . S
C728 H713 0.960 . S
C728 H714 0.960 . S
C728 H715 0.960 . S
C728 C727 1.524 . S
C729 C726 1.403 . S
C729 C730 1.392 . S
C729 C733 1.495 . S
C730 C729 1.392 . S
C730 C731 1.385 . S
C730 C732 1.478 . S
C731 H725 0.930 . S
C731 C727 1.400 . S
C731 C730 1.385 . S
C732 C730 1.478 . S
C732 C734 1.381 . S
C732 C738 1.383 . S
C733 C729 1.495 . S
C733 H739 0.959 . S
C733 H740 0.961 . S
C733 H741 0.960 . S
C734 C732 1.381 . S
C734 C735 1.394 . S
C734 H742 0.930 . S
C735 C734 1.394 . S
C735 C736 1.383 . S
C735 H743 0.929 . S
C736 C735 1.383 . S
C736 C737 1.377 . S
C737 H721 0.930 . S
C737 C736 1.377 . S
C737 C738 1.379 . S
C738 H722 0.931 . S
C738 C732 1.383 . S
C738 C737 1.379 . S
H739 C733 0.959 . S
H740 C733 0.961 . S
H741 C733 0.960 . S
H742 C734 0.930 . S
H743 C735 0.929 . S
H744 C752 0.929 . S
H745 C754 0.930 . S
H746 C756 0.930 . S
H747 C759 0.929 . S
H748 C762 0.930 . S
H749 C764 0.960 . S
H750 C764 0.960 . S
H751 C764 0.960 . S
C752 H744 0.929 . S
C752 C753 1.377 . S
C752 C754 1.384 . S
C753 C752 1.377 . S
C753 C759 1.390 . S
C754 H745 0.930 . S
C754 C752 1.384 . S
C754 C755 1.372 . S
C755 C754 1.372 . S
C755 C756 1.400 . S
C755 C760 1.490 . S
C756 H746 0.930 . S
C756 C755 1.400 . S
C756 C759 1.386 . S
H757 C773 0.930 . S
H758 C774 0.931 . S
C759 H747 0.929 . S
C759 C753 1.390 . S
C759 C756 1.386 . S
C760 C755 1.490 . S
C760 C762 1.395 . S
C760 C763 1.403 . S
H761 C767 0.930 . S
C762 H748 0.930 . S
C762 C760 1.395 . S
C762 C765 1.403 . S
C763 C760 1.403 . S
C763 C764 1.524 . S
C763 C767 1.400 . S
C764 H749 0.960 . S
C764 H750 0.960 . S
C764 H751 0.960 . S
C764 C763 1.524 . S
C765 C762 1.403 . S
C765 C766 1.392 . S
C765 C769 1.495 . S
C766 C765 1.392 . S
C766 C767 1.385 . S
C766 C768 1.478 . S
C767 H761 0.930 . S
C767 C763 1.400 . S
C767 C766 1.385 . S
C768 C766 1.478 . S
C768 C770 1.381 . S
C768 C774 1.383 . S
C769 C765 1.495 . S
C769 H775 0.959 . S
C769 H776 0.961 . S
C769 H777 0.960 . S
C770 C768 1.381 . S
C770 C771 1.394 . S
C770 H778 0.930 . S
C771 C770 1.394 . S
C771 C772 1.383 . S
C771 H779 0.929 1_565 S
C772 C771 1.383 . S
C772 C773 1.377 . S
C773 H757 0.930 . S
C773 C772 1.377 . S
C773 C774 1.379 . S
C774 H758 0.931 . S
C774 C768 1.383 . S
C774 C773 1.379 . S
H775 C769 0.959 . S
H776 C769 0.961 . S
H777 C769 0.960 . S
H778 C770 0.930 . S
H779 C771 0.929 1_545 S
H780 C788 0.929 . S
H781 C790 0.930 . S
H782 C792 0.930 . S
H783 C795 0.929 . S
H784 C798 0.930 . S
H785 C800 0.960 . S
H786 C800 0.960 . S
H787 C800 0.960 . S
C788 H780 0.929 . S
C788 C789 1.377 . S
C788 C790 1.384 . S
C789 C788 1.377 . S
C789 C795 1.390 . S
C790 H781 0.930 . S
C790 C788 1.384 . S
C790 C791 1.372 . S
C791 C790 1.372 . S
C791 C792 1.400 . S
C791 C796 1.490 . S
C792 H782 0.930 . S
C792 C791 1.400 . S
C792 C795 1.386 . S
H793 C809 0.930 . S
H794 C810 0.931 . S
C795 H783 0.929 . S
C795 C789 1.390 . S
C795 C792 1.386 . S
C796 C791 1.490 . S
C796 C798 1.395 . S
C796 C799 1.403 . S
H797 C803 0.930 . S
C798 H784 0.930 . S
C798 C796 1.395 . S
C798 C801 1.403 . S
C799 C796 1.403 . S
C799 C800 1.524 . S
C799 C803 1.400 . S
C800 H785 0.960 . S
C800 H786 0.960 . S
C800 H787 0.960 . S
C800 C799 1.524 . S
C801 C798 1.403 . S
C801 C802 1.392 . S
C801 C805 1.495 . S
C802 C801 1.392 . S
C802 C803 1.385 . S
C802 C804 1.478 . S
C803 H797 0.930 . S
C803 C799 1.400 . S
C803 C802 1.385 . S
C804 C802 1.478 . S
C804 C806 1.381 . S
C804 C810 1.383 . S
C805 C801 1.495 . S
C805 H811 0.959 . S
C805 H812 0.961 . S
C805 H813 0.960 . S
C806 C804 1.381 . S
C806 C807 1.394 . S
C806 H814 0.930 . S
C807 C806 1.394 . S
C807 C808 1.383 . S
C807 H815 0.929 . S
C808 C807 1.383 . S
C808 C809 1.377 . S
C809 H793 0.930 . S
C809 C808 1.377 . S
C809 C810 1.379 . S
C810 H794 0.931 . S
C810 C804 1.383 . S
C810 C809 1.379 . S
H811 C805 0.959 . S
H812 C805 0.961 . S
H813 C805 0.960 . S
H814 C806 0.930 . S
H815 C807 0.929 . S
H816 C824 0.929 . S
H817 C826 0.930 . S
H818 C828 0.930 . S
H819 C831 0.929 . S
H820 C834 0.930 . S
H821 C836 0.960 . S
H822 C836 0.960 . S
H823 C836 0.960 . S
C824 H816 0.929 . S
C824 C825 1.377 . S
C824 C826 1.384 . S
C825 C824 1.377 . S
C825 C831 1.390 . S
C826 H817 0.930 . S
C826 C824 1.384 . S
C826 C827 1.372 . S
C827 C826 1.372 . S
C827 C828 1.400 . S
C827 C832 1.490 . S
C828 H818 0.930 . S
C828 C827 1.400 . S
C828 C831 1.386 . S
H829 C845 0.930 . S
H830 C846 0.931 . S
C831 H819 0.929 . S
C831 C825 1.390 . S
C831 C828 1.386 . S
C832 C827 1.490 . S
C832 C834 1.395 . S
C832 C835 1.403 . S
H833 C839 0.930 . S
C834 H820 0.930 . S
C834 C832 1.395 . S
C834 C837 1.403 . S
C835 C832 1.403 . S
C835 C836 1.524 . S
C835 C839 1.400 . S
C836 H821 0.960 . S
C836 H822 0.960 . S
C836 H823 0.960 . S
C836 C835 1.524 . S
C837 C834 1.403 . S
C837 C838 1.392 . S
C837 C841 1.495 . S
C838 C837 1.392 . S
C838 C839 1.385 . S
C838 C840 1.478 . S
C839 H833 0.930 . S
C839 C835 1.400 . S
C839 C838 1.385 . S
C840 C838 1.478 . S
C840 C842 1.381 . S
C840 C846 1.383 . S
C841 C837 1.495 . S
C841 H847 0.959 . S
C841 H848 0.961 . S
C841 H849 0.960 . S
C842 C840 1.381 . S
C842 C843 1.394 . S
C842 H850 0.930 . S
C843 C842 1.394 . S
C843 C844 1.383 . S
C843 H851 0.929 . S
C844 C843 1.383 . S
C844 C845 1.377 . S
C845 H829 0.930 . S
C845 C844 1.377 . S
C845 C846 1.379 . S
C846 H830 0.931 . S
C846 C840 1.383 . S
C846 C845 1.379 . S
H847 C841 0.959 . S
H848 C841 0.961 . S
H849 C841 0.960 . S
H850 C842 0.930 . S
H851 C843 0.929 . S
H852 C860 0.929 . S
H853 C862 0.930 . S
H854 C864 0.930 . S
H855 C867 0.929 . S
H856 C870 0.930 . S
H857 C872 0.960 . S
H858 C872 0.960 . S
H859 C872 0.960 . S
C860 H852 0.929 . S
C860 C861 1.377 . S
C860 C862 1.384 . S
C861 C860 1.377 . S
C861 C867 1.390 . S
C862 H853 0.930 . S
C862 C860 1.384 . S
C862 C863 1.372 . S
C863 C862 1.372 . S
C863 C864 1.400 . S
C863 C868 1.490 . S
C864 H854 0.930 . S
C864 C863 1.400 . S
C864 C867 1.386 . S
H865 C881 0.930 . S
H866 C882 0.931 . S
C867 H855 0.929 . S
C867 C861 1.390 . S
C867 C864 1.386 . S
C868 C863 1.490 . S
C868 C870 1.395 . S
C868 C871 1.403 . S
H869 C875 0.930 . S
C870 H856 0.930 . S
C870 C868 1.395 . S
C870 C873 1.403 . S
C871 C868 1.403 . S
C871 C872 1.524 . S
C871 C875 1.400 . S
C872 H857 0.960 . S
C872 H858 0.960 . S
C872 H859 0.960 . S
C872 C871 1.524 . S
C873 C870 1.403 . S
C873 C874 1.392 . S
C873 C877 1.495 . S
C874 C873 1.392 . S
C874 C875 1.385 . S
C874 C876 1.478 . S
C875 H869 0.930 . S
C875 C871 1.400 . S
C875 C874 1.385 . S
C876 C874 1.478 . S
C876 C878 1.381 . S
C876 C882 1.383 . S
C877 C873 1.495 . S
C877 H883 0.959 . S
C877 H884 0.961 . S
C877 H885 0.960 . S
C878 C876 1.381 . S
C878 C879 1.394 . S
C878 H886 0.930 . S
C879 C878 1.394 . S
C879 C880 1.383 . S
C879 H887 0.929 . S
C880 C879 1.383 . S
C880 C881 1.377 . S
C881 H865 0.930 . S
C881 C880 1.377 . S
C881 C882 1.379 . S
C882 H866 0.931 . S
C882 C876 1.383 . S
C882 C881 1.379 . S
H883 C877 0.959 . S
H884 C877 0.961 . S
H885 C877 0.960 . S
H886 C878 0.930 . S
H887 C879 0.929 . S
H888 C896 0.929 . S
H889 C898 0.930 . S
H890 C900 0.930 . S
H891 C903 0.929 . S
H892 C906 0.930 . S
H893 C908 0.960 . S
H894 C908 0.960 . S
H895 C908 0.960 . S
C896 H888 0.929 . S
C896 C897 1.377 . S
C896 C898 1.384 . S
C897 C896 1.377 . S
C897 C903 1.390 . S
C898 H889 0.930 . S
C898 C896 1.384 . S
C898 C899 1.372 . S
C899 C898 1.372 . S
C899 C900 1.400 . S
C899 C904 1.490 . S
C900 H890 0.930 . S
C900 C899 1.400 . S
C900 C903 1.386 . S
H901 C917 0.930 . S
H902 C918 0.931 . S
C903 H891 0.929 . S
C903 C897 1.390 . S
C903 C900 1.386 . S
C904 C899 1.490 . S
C904 C906 1.395 . S
C904 C907 1.403 . S
H905 C911 0.930 . S
C906 H892 0.930 . S
C906 C904 1.395 . S
C906 C909 1.403 . S
C907 C904 1.403 . S
C907 C908 1.524 . S
C907 C911 1.400 . S
C908 H893 0.960 . S
C908 H894 0.960 . S
C908 H895 0.960 . S
C908 C907 1.524 . S
C909 C906 1.403 . S
C909 C910 1.392 . S
C909 C913 1.495 . S
C910 C909 1.392 . S
C910 C911 1.385 . S
C910 C912 1.478 . S
C911 H905 0.930 . S
C911 C907 1.400 . S
C911 C910 1.385 . S
C912 C910 1.478 . S
C912 C914 1.381 . S
C912 C918 1.383 . S
C913 C909 1.495 . S
C913 H919 0.959 . S
C913 H920 0.961 . S
C913 H921 0.960 . S
C914 C912 1.381 . S
C914 C915 1.394 . S
C914 H922 0.930 . S
C915 C914 1.394 . S
C915 C916 1.383 . S
C915 H923 0.929 . S
C916 C915 1.383 . S
C916 C917 1.377 . S
C917 H901 0.930 . S
C917 C916 1.377 . S
C917 C918 1.379 . S
C918 H902 0.931 . S
C918 C912 1.383 . S
C918 C917 1.379 . S
H919 C913 0.959 . S
H920 C913 0.961 . S
H921 C913 0.960 . S
H922 C914 0.930 . S
H923 C915 0.929 . S
H924 C932 0.929 . S
H925 C934 0.930 . S
H926 C936 0.930 . S
H927 C939 0.929 . S
H928 C942 0.930 . S
H929 C944 0.960 . S
H930 C944 0.960 . S
H931 C944 0.960 . S
C932 H924 0.929 . S
C932 C933 1.377 . S
C932 C934 1.384 . S
C933 C932 1.377 . S
C933 C939 1.390 . S
C934 H925 0.930 . S
C934 C932 1.384 . S
C934 C935 1.372 . S
C935 C934 1.372 . S
C935 C936 1.400 . S
C935 C940 1.490 . S
C936 H926 0.930 . S
C936 C935 1.400 . S
C936 C939 1.386 . S
H937 C953 0.930 . S
H938 C954 0.931 . S
C939 H927 0.929 . S
C939 C933 1.390 . S
C939 C936 1.386 . S
C940 C935 1.490 . S
C940 C942 1.395 . S
C940 C943 1.403 . S
H941 C947 0.930 . S
C942 H928 0.930 . S
C942 C940 1.395 . S
C942 C945 1.403 . S
C943 C940 1.403 . S
C943 C944 1.524 . S
C943 C947 1.400 . S
C944 H929 0.960 . S
C944 H930 0.960 . S
C944 H931 0.960 . S
C944 C943 1.524 . S
C945 C942 1.403 . S
C945 C946 1.392 . S
C945 C949 1.495 . S
C946 C945 1.392 . S
C946 C947 1.385 . S
C946 C948 1.478 . S
C947 H941 0.930 . S
C947 C943 1.400 . S
C947 C946 1.385 . S
C948 C946 1.478 . S
C948 C950 1.381 . S
C948 C954 1.383 . S
C949 C945 1.495 . S
C949 H955 0.959 . S
C949 H956 0.961 . S
C949 H957 0.960 . S
C950 C948 1.381 . S
C950 C951 1.394 . S
C950 H958 0.930 . S
C951 C950 1.394 . S
C951 C952 1.383 . S
C951 H959 0.929 . S
C952 C951 1.383 . S
C952 C953 1.377 . S
C953 H937 0.930 . S
C953 C952 1.377 . S
C953 C954 1.379 . S
C954 H938 0.931 . S
C954 C948 1.383 . S
C954 C953 1.379 . S
H955 C949 0.959 . S
H956 C949 0.961 . S
H957 C949 0.960 . S
H958 C950 0.930 . S
H959 C951 0.929 . S
H960 C968 0.929 . S
H961 C970 0.930 . S
H962 C972 0.930 . S
H963 C975 0.929 . S
H964 C978 0.930 . S
H965 C980 0.960 . S
H966 C980 0.960 . S
H967 C980 0.960 . S
C968 H960 0.929 . S
C968 C969 1.377 . S
C968 C970 1.384 . S
C969 C968 1.377 . S
C969 C975 1.390 . S
C970 H961 0.930 . S
C970 C968 1.384 . S
C970 C971 1.372 . S
C971 C970 1.372 . S
C971 C972 1.400 . S
C971 C976 1.490 . S
C972 H962 0.930 . S
C972 C971 1.400 . S
C972 C975 1.386 . S
H973 C989 0.930 . S
H974 C990 0.931 . S
C975 H963 0.929 . S
C975 C969 1.390 . S
C975 C972 1.386 . S
C976 C971 1.490 . S
C976 C978 1.395 . S
C976 C979 1.403 . S
H977 C983 0.930 . S
C978 H964 0.930 . S
C978 C976 1.395 . S
C978 C981 1.403 . S
C979 C976 1.403 . S
C979 C980 1.524 . S
C979 C983 1.400 . S
C980 H965 0.960 . S
C980 H966 0.960 . S
C980 H967 0.960 . S
C980 C979 1.524 . S
C981 C978 1.403 . S
C981 C982 1.392 . S
C981 C985 1.495 . S
C982 C981 1.392 . S
C982 C983 1.385 . S
C982 C984 1.478 . S
C983 H977 0.930 . S
C983 C979 1.400 . S
C983 C982 1.385 . S
C984 C982 1.478 . S
C984 C986 1.381 . S
C984 C990 1.383 . S
C985 C981 1.495 . S
C985 H991 0.959 . S
C985 H992 0.961 . S
C985 H993 0.960 . S
C986 C984 1.381 . S
C986 C987 1.394 . S
C986 H994 0.930 . S
C987 C986 1.394 . S
C987 C988 1.383 . S
C987 H995 0.929 . S
C988 C987 1.383 . S
C988 C989 1.377 . S
C989 H973 0.930 . S
C989 C988 1.377 . S
C989 C990 1.379 . S
C990 H974 0.931 . S
C990 C984 1.383 . S
C990 C989 1.379 . S
H991 C985 0.959 . S
H992 C985 0.961 . S
H993 C985 0.960 . S
H994 C986 0.930 . S
H995 C987 0.929 . S
H996 C1004 0.929 . S
H997 C1006 0.930 . S
H998 C1008 0.930 . S
H999 C1011 0.929 . S
H1000 C1014 0.930 . S
H1001 C1016 0.960 . S
H1002 C1016 0.960 . S
H1003 C1016 0.960 . S
C1004 H996 0.929 . S
C1004 C1005 1.377 . S
C1004 C1006 1.384 . S
C1005 C1004 1.377 . S
C1005 C1011 1.390 . S
C1006 H997 0.930 . S
C1006 C1004 1.384 . S
C1006 C1007 1.372 . S
C1007 C1006 1.372 . S
C1007 C1008 1.400 . S
C1007 C1012 1.490 . S
C1008 H998 0.930 . S
C1008 C1007 1.400 . S
C1008 C1011 1.386 . S
H1009 C1025 0.930 . S
H1010 C1026 0.931 . S
C1011 H999 0.929 . S
C1011 C1005 1.390 . S
C1011 C1008 1.386 . S
C1012 C1007 1.490 . S
C1012 C1014 1.395 . S
C1012 C1015 1.403 . S
H1013 C1019 0.930 . S
C1014 H1000 0.930 . S
C1014 C1012 1.395 . S
C1014 C1017 1.403 . S
C1015 C1012 1.403 . S
C1015 C1016 1.524 . S
C1015 C1019 1.400 . S
C1016 H1001 0.960 . S
C1016 H1002 0.960 . S
C1016 H1003 0.960 . S
C1016 C1015 1.524 . S
C1017 C1014 1.403 . S
C1017 C1018 1.392 . S
C1017 C1021 1.495 . S
C1018 C1017 1.392 . S
C1018 C1019 1.385 . S
C1018 C1020 1.478 . S
C1019 H1013 0.930 . S
C1019 C1015 1.400 . S
C1019 C1018 1.385 . S
C1020 C1018 1.478 . S
C1020 C1022 1.381 . S
C1020 C1026 1.383 . S
C1021 C1017 1.495 . S
C1021 H1027 0.959 . S
C1021 H1028 0.961 . S
C1021 H1029 0.960 . S
C1022 C1020 1.381 . S
C1022 C1023 1.394 . S
C1022 H1030 0.930 . S
C1023 C1022 1.394 . S
C1023 C1024 1.383 . S
C1023 H1031 0.929 . S
C1024 C1023 1.383 . S
C1024 C1025 1.377 . S
C1025 H1009 0.930 . S
C1025 C1024 1.377 . S
C1025 C1026 1.379 . S
C1026 H1010 0.931 . S
C1026 C1020 1.383 . S
C1026 C1025 1.379 . S
H1027 C1021 0.959 . S
H1028 C1021 0.961 . S
H1029 C1021 0.960 . S
H1030 C1022 0.930 . S
H1031 C1023 0.929 . S
C177 C4 1.652 . S
C196 C107 1.618 . S
C213 C16 1.601 . S
C232 C110 1.568 . S
C268 C146 1.239 . S
C249 C32 1.249 . S
C285 C43 1.481 . S
C304 C166 1.453 . S
C340 C120 2.217 . S
C321 C5 2.248 . S
C376 C97 1.293 . S
C357 C21 1.315 . S
C412 C150 1.379 . S
C393 C27 1.421 . S
C448 C130 1.251 . S
C429 C37 1.314 . S
C465 C10 1.372 . S
C484 C160 1.284 . S
C520 C126 1.780 1_556 S
C501 C26 1.792 . S
C537 C38 1.416 . S
C556 C92 1.343 . S
C573 C15 1.503 . S
C592 C140 1.416 . S
C628 C106 1.759 . S
C609 C48 1.766 . S
C645 C59 1.356 . S
C664 C112 1.262 . S
C681 C76 1.604 . S
C700 C147 1.569 . S
C717 C87 1.278 . S
C736 C167 1.225 . S
C753 C54 1.554 . S
C772 C117 1.496 . S
C808 C100 2.062 . S
C789 C60 2.077 . S
C844 C152 1.317 . S
C825 C71 1.464 . S
C880 C132 1.235 . S
C861 C82 1.246 . S
C897 C49 1.635 . S
C916 C157 1.527 . S
C952 C127 1.312 . S
C933 C70 1.318 . S
C988 C90 1.734 . S
C969 C81 1.800 . S
C1005 C65 1.320 . S
C1024 C137 1.281 . S
