# Generated by pormake.
# Topology nom, (4,4)-cn, num edge types: 1
# Building blocks:
#     Node 0, Type 0, BuildingBlock: MUDLON_clean_linker_0, # of connection points: 4
#     Node 1, Type 0, BuildingBlock: MUDLON_clean_linker_0, # of connection points: 4
#     Node 2, Type 0, BuildingBlock: MUDLON_clean_linker_0, # of connection points: 4
#     Node 3, Type 0, BuildingBlock: MUDLON_clean_linker_0, # of connection points: 4
#     Node 4, Type 0, BuildingBlock: MUDLON_clean_linker_0, # of connection points: 4
#     Node 5, Type 0, BuildingBlock: MUDLON_clean_linker_0, # of connection points: 4
#     Node 6, Type 1, BuildingBlock: QUQFOY_clean_sbu_3, # of connection points: 4
#     Node 7, Type 1, BuildingBlock: QUQFOY_clean_sbu_3, # of connection points: 4
#     Node 8, Type 1, BuildingBlock: QUQFOY_clean_sbu_3, # of connection points: 4
#     Node 9, Type 1, BuildingBlock: QUQFOY_clean_sbu_3, # of connection points: 4
#     Node 10, Type 1, BuildingBlock: QUQFOY_clean_sbu_3, # of connection points: 4
#     Node 11, Type 1, BuildingBlock: QUQFOY_clean_sbu_3, # of connection points: 4
#     Edge 12, Type (0, 1), BuildingBlock: EZIPEK_clean_linker_0, # of connection points: 2
#     Edge 13, Type (0, 1), BuildingBlock: EZIPEK_clean_linker_0, # of connection points: 2
#     Edge 14, Type (0, 1), BuildingBlock: EZIPEK_clean_linker_0, # of connection points: 2
#     Edge 15, Type (0, 1), BuildingBlock: EZIPEK_clean_linker_0, # of connection points: 2
#     Edge 16, Type (0, 1), BuildingBlock: EZIPEK_clean_linker_0, # of connection points: 2
#     Edge 17, Type (0, 1), BuildingBlock: EZIPEK_clean_linker_0, # of connection points: 2
#     Edge 18, Type (0, 1), BuildingBlock: EZIPEK_clean_linker_0, # of connection points: 2
#     Edge 19, Type (0, 1), BuildingBlock: EZIPEK_clean_linker_0, # of connection points: 2
#     Edge 20, Type (0, 1), BuildingBlock: EZIPEK_clean_linker_0, # of connection points: 2
#     Edge 21, Type (0, 1), BuildingBlock: EZIPEK_clean_linker_0, # of connection points: 2
#     Edge 22, Type (0, 1), BuildingBlock: EZIPEK_clean_linker_0, # of connection points: 2
#     Edge 23, Type (0, 1), BuildingBlock: EZIPEK_clean_linker_0, # of connection points: 2
#     Edge 24, Type (0, 1), BuildingBlock: EZIPEK_clean_linker_0, # of connection points: 2
#     Edge 25, Type (0, 1), BuildingBlock: EZIPEK_clean_linker_0, # of connection points: 2
#     Edge 26, Type (0, 1), BuildingBlock: EZIPEK_clean_linker_0, # of connection points: 2
#     Edge 27, Type (0, 1), BuildingBlock: EZIPEK_clean_linker_0, # of connection points: 2
#     Edge 28, Type (0, 1), BuildingBlock: EZIPEK_clean_linker_0, # of connection points: 2
#     Edge 29, Type (0, 1), BuildingBlock: EZIPEK_clean_linker_0, # of connection points: 2
#     Edge 30, Type (0, 1), BuildingBlock: EZIPEK_clean_linker_0, # of connection points: 2
#     Edge 31, Type (0, 1), BuildingBlock: EZIPEK_clean_linker_0, # of connection points: 2
#     Edge 32, Type (0, 1), BuildingBlock: EZIPEK_clean_linker_0, # of connection points: 2
#     Edge 33, Type (0, 1), BuildingBlock: EZIPEK_clean_linker_0, # of connection points: 2
#     Edge 34, Type (0, 1), BuildingBlock: EZIPEK_clean_linker_0, # of connection points: 2
#     Edge 35, Type (0, 1), BuildingBlock: EZIPEK_clean_linker_0, # of connection points: 2
# Relax obj value: 0.008
# Max RMSD: 0.107
# Mean RMSD: 0.061
data_MOF--net-nom--node1-QUQFOY_clean_sbu_3--node2-MUDLON_clean_linker_0--edge1-EZIPEK_clean_linker_0
_symmetry_space_group_name_H-M    P1
_symmetry_Int_Tables_number       1
_symmetry_cell_setting            triclinic
loop_
_symmetry_equiv_pos_as_xyz
'x, y, z'
_cell_length_a     48.300569
_cell_length_b     50.442154
_cell_length_c     48.710134
_cell_angle_alpha  90.562706
_cell_angle_beta   89.738851
_cell_angle_gamma 120.72123
loop_
_atom_site_label
_atom_site_type_symbol
_atom_site_fract_x
_atom_site_fract_y
_atom_site_fract_z
_atom_type_partial_charge
H0 H 0.16328 0.55451 0.30742 0.0
N1 N 0.1143 0.55661 0.33027 0.0
H2 H 0.20637 0.59446 0.27901 0.0
H3 H 0.1133 0.60513 0.30557 0.0
H4 H 0.15579 0.64427 0.27707 0.0
H5 H 0.15867 0.61518 0.3498 0.0
H6 H 0.18589 0.62743 0.39369 0.0
H7 H 0.09981 0.51973 0.37359 0.0
H8 H 0.12535 0.53309 0.41915 0.0
H9 H 0.07047 0.50934 0.30074 0.0
H10 H 0.08319 0.5843 0.35291 0.0
H11 H 0.01506 0.49594 0.29103 0.0
H12 H 0.02801 0.57128 0.34314 0.0
H13 H 0.87909 0.45877 0.26433 0.0
H14 H 0.85376 0.43479 0.2202 0.0
H15 H 0.85689 0.51842 0.19655 0.0
H16 H 0.88236 0.54249 0.24066 0.0
H17 H 0.86269 0.54411 0.29608 0.0
H18 H 0.81319 0.5226 0.32363 0.0
H19 H 0.8188 0.44145 0.33902 0.0
H20 H 0.86828 0.46291 0.31141 0.0
H21 H 0.94136 0.51525 0.25007 0.0
H22 H 0.99216 0.52177 0.26467 0.0
H23 H 0.97043 0.53202 0.34873 0.0
N24 N 0.89523 0.51668 0.28217 0.0
H25 H 0.91924 0.52565 0.33434 0.0
C26 C 0.13493 0.57651 0.30868 0.0
C27 C 0.16098 0.5735 0.30011 0.0
C28 C 0.1855 0.59623 0.28404 0.0
C29 C 0.18405 0.62214 0.27612 0.0
C30 C 0.15704 0.62424 0.28292 0.0
C31 C 0.13268 0.60169 0.29916 0.0
C32 C 0.12755 0.56596 0.35773 0.0
C33 C 0.1511 0.59674 0.36438 0.0
C34 C 0.16666 0.60398 0.38973 0.0
C35 C 0.15801 0.58113 0.4096 0.0
C36 C 0.13272 0.551 0.40395 0.0
C37 C 0.11808 0.54341 0.37806 0.0
C38 C 0.08088 0.54764 0.32751 0.0
C39 C 0.06109 0.52259 0.31037 0.0
C40 C 0.0296 0.51513 0.30474 0.0
C41 C 0.01725 0.53267 0.31621 0.0
C42 C 0.03671 0.55712 0.33425 0.0
C43 C 0.06827 0.56461 0.33982 0.0
C44 C 0.88268 0.50256 0.25567 0.0
C45 C 0.87449 0.472 0.24963 0.0
C46 C 0.86017 0.45837 0.22451 0.0
C47 C 0.85354 0.47493 0.20533 0.0
C48 C 0.86195 0.50541 0.21119 0.0
C49 C 0.87648 0.51911 0.23619 0.0
C50 C 0.86915 0.50524 0.30173 0.0
C51 C 0.85358 0.52199 0.30586 0.0
C52 C 0.82544 0.50972 0.32142 0.0
C53 C 0.81252 0.48051 0.33318 0.0
C54 C 0.8286 0.46407 0.33005 0.0
C55 C 0.8567 0.47628 0.3143 0.0
C56 C 0.92449 0.51758 0.29115 0.0
C57 C 0.94645 0.51763 0.27185 0.0
C58 C 0.97593 0.5216 0.28018 0.0
C59 C 0.98502 0.52672 0.30792 0.0
C60 C 0.96391 0.52774 0.32721 0.0
C61 C 0.93426 0.52361 0.31892 0.0
H62 H 0.48579 0.84903 0.4592 0.0
N63 N 0.48223 0.89864 0.44864 0.0
H64 H 0.44783 0.80432 0.48648 0.0
H65 H 0.43815 0.89751 0.48618 0.0
H66 H 0.40088 0.85318 0.51342 0.0
H67 H 0.41873 0.85915 0.43372 0.0
H68 H 0.39899 0.8397 0.38775 0.0
H69 H 0.51478 0.91672 0.40148 0.0
H70 H 0.49401 0.8993 0.3548 0.0
H71 H 0.54299 0.94054 0.45928 0.0
H72 H 0.44924 0.92939 0.44869 0.0
H73 H 0.56671 0.99601 0.46361 0.0
H74 H 0.47163 0.98432 0.45651 0.0
H75 H 0.61553 0.18564 0.48988 0.0
H76 H 0.61849 0.2067 0.53557 0.0
H77 H 0.55197 0.11542 0.56546 0.0
H78 H 0.54494 0.0948 0.51883 0.0
H79 H 0.52574 0.13335 0.46958 0.0
H80 H 0.52474 0.17622 0.44715 0.0
H81 H 0.61683 0.20443 0.41003 0.0
H82 H 0.61747 0.16121 0.43209 0.0
H83 H 0.60139 0.09291 0.49089 0.0
H84 H 0.57686 0.03733 0.4882 0.0
H85 H 0.49919 0.03191 0.43956 0.0
N86 N 0.57857 0.12735 0.47246 0.0
H87 H 0.52196 0.08677 0.44524 0.0
C88 C 0.46503 0.87673 0.47026 0.0
C89 C 0.46802 0.85053 0.4717 0.0
C90 C 0.44635 0.82504 0.48712 0.0
C91 C 0.42153 0.82553 0.50169 0.0
C92 C 0.41997 0.85252 0.50225 0.0
C93 C 0.44144 0.87793 0.48657 0.0
C94 C 0.46872 0.88902 0.42136 0.0
C95 C 0.43568 0.86794 0.4169 0.0
C96 C 0.42422 0.85689 0.39051 0.0
C97 C 0.44508 0.86779 0.36786 0.0
C98 C 0.47758 0.89028 0.37203 0.0
C99 C 0.48937 0.9003 0.39859 0.0
C100 C 0.49436 0.93078 0.45457 0.0
C101 C 0.5274 0.95012 0.45895 0.0
C102 C 0.54083 0.98196 0.46162 0.0
C103 C 0.52129 0.99527 0.46078 0.0
C104 C 0.48786 0.97549 0.45685 0.0
C105 C 0.47469 0.94376 0.45308 0.0
C106 C 0.58011 0.13854 0.50037 0.0
C107 C 0.6009 0.1701 0.506 0.0
C108 C 0.60275 0.18215 0.53219 0.0
C109 C 0.58568 0.16265 0.55409 0.0
C110 C 0.56526 0.13097 0.54887 0.0
C111 C 0.56166 0.11914 0.52214 0.0
C112 C 0.57183 0.14428 0.45249 0.0
C113 C 0.54481 0.14772 0.4554 0.0
C114 C 0.54434 0.17223 0.44275 0.0
C115 C 0.57094 0.19362 0.4273 0.0
C116 C 0.59612 0.18812 0.42188 0.0
C117 C 0.59643 0.16344 0.43432 0.0
C118 C 0.56378 0.09435 0.46847 0.0
C119 C 0.57894 0.07958 0.47978 0.0
C120 C 0.5649 0.04763 0.47791 0.0
C121 C 0.53582 0.02949 0.46348 0.0
C122 C 0.52104 0.04453 0.4515 0.0
C123 C 0.53447 0.07641 0.45439 0.0
H124 H 0.49243 0.65353 0.66148 0.0
N125 N 0.49554 0.60529 0.67864 0.0
H126 H 0.45119 0.65265 0.63143 0.0
H127 H 0.45216 0.55607 0.64645 0.0
H128 H 0.41196 0.55562 0.61618 0.0
H129 H 0.43179 0.58243 0.69383 0.0
H130 H 0.41254 0.58469 0.73923 0.0
H131 H 0.52847 0.62148 0.72582 0.0
H132 H 0.50802 0.62081 0.77223 0.0
H133 H 0.55415 0.62588 0.65864 0.0
H134 H 0.47066 0.54398 0.68889 0.0
H135 H 0.5811 0.59674 0.65019 0.0
H136 H 0.49648 0.51402 0.67903 0.0
H137 H 0.54314 0.44883 0.61046 0.0
H138 H 0.53304 0.42466 0.56465 0.0
H139 H 0.63531 0.46633 0.55198 0.0
H140 H 0.64542 0.4901 0.59793 0.0
H141 H 0.55143 0.42736 0.65095 0.0
H142 H 0.55628 0.38624 0.67247 0.0
H143 H 0.65839 0.44834 0.68236 0.0
H144 H 0.65364 0.48954 0.66042 0.0
H145 H 0.60642 0.53142 0.60912 0.0
H146 H 0.58006 0.56027 0.61994 0.0
H147 H 0.53749 0.50427 0.69191 0.0
N148 N 0.60205 0.48342 0.6352 0.0
H149 H 0.56244 0.47444 0.6803 0.0
C150 C 0.47577 0.6051 0.6563 0.0
C151 C 0.47556 0.6323 0.651 0.0
C152 C 0.45207 0.63178 0.634 0.0
C153 C 0.42867 0.60405 0.62176 0.0
C154 C 0.43003 0.57723 0.62542 0.0
C155 C 0.45321 0.57762 0.64271 0.0
C156 C 0.48214 0.6025 0.70593 0.0
C157 C 0.44905 0.5912 0.71043 0.0
C158 C 0.43779 0.59227 0.73657 0.0
C159 C 0.45887 0.60323 0.75908 0.0
C160 C 0.49141 0.61262 0.75506 0.0
C161 C 0.50302 0.61285 0.72866 0.0
C162 C 0.51044 0.58709 0.67401 0.0
C163 C 0.54159 0.60148 0.66318 0.0
C164 C 0.55679 0.58467 0.6582 0.0
C165 C 0.54087 0.55284 0.66359 0.0
C166 C 0.50966 0.5385 0.67487 0.0
C167 C 0.49469 0.55551 0.68026 0.0
C168 C 0.59517 0.47123 0.60753 0.0
C169 C 0.56337 0.45288 0.59778 0.0
C170 C 0.55759 0.43917 0.57174 0.0
C171 C 0.58348 0.44381 0.55515 0.0
C172 C 0.61512 0.46264 0.56458 0.0
C173 C 0.62088 0.47619 0.59062 0.0
C174 C 0.60235 0.46161 0.65399 0.0
C175 C 0.57472 0.43248 0.65841 0.0
C176 C 0.57743 0.40903 0.67075 0.0
C177 C 0.60769 0.41438 0.67886 0.0
C178 C 0.63484 0.44397 0.67636 0.0
C179 C 0.63213 0.46741 0.66397 0.0
C180 C 0.58605 0.50004 0.6432 0.0
C181 C 0.59112 0.52509 0.62709 0.0
C182 C 0.57628 0.54187 0.63354 0.0
C183 C 0.55654 0.53468 0.65685 0.0
C184 C 0.55196 0.51007 0.67346 0.0
C185 C 0.56646 0.4929 0.66675 0.0
H186 H 0.17642 0.6361 0.7944 0.0
N187 N 0.1218 0.58379 0.78313 0.0
H188 H 0.2206 0.64243 0.82385 0.0
H189 H 0.11768 0.54236 0.82304 0.0
H190 H 0.16124 0.54926 0.85225 0.0
H191 H 0.16364 0.56396 0.76867 0.0
H192 H 0.18891 0.56973 0.72409 0.0
H193 H 0.10847 0.60224 0.73642 0.0
H194 H 0.13161 0.60504 0.69069 0.0
H195 H 0.07278 0.58955 0.80024 0.0
H196 H 0.09693 0.52215 0.7737 0.0
H197 H 0.01776 0.54844 0.80992 0.0
H198 H 0.04307 0.48076 0.78529 0.0
H199 H 0.87367 0.44215 0.84557 0.0
H200 H 0.84589 0.44478 0.88713 0.0
H201 H 0.87909 0.39256 0.93129 0.0
H202 H 0.90729 0.39042 0.88989 0.0
H203 H 0.86099 0.35166 0.84693 0.0
H204 H 0.81305 0.31991 0.81918 0.0
H205 H 0.84482 0.39383 0.76092 0.0
H206 H 0.89019 0.42725 0.7909 0.0
H207 H 0.94 0.47111 0.85964 0.0
H208 H 0.99025 0.51193 0.84261 0.0
H209 H 0.98878 0.45203 0.77777 0.0
N210 N 0.90542 0.4106 0.84011 0.0
H211 H 0.93911 0.40982 0.7964 0.0
C212 C 0.14368 0.5887 0.80561 0.0
C213 C 0.17257 0.61729 0.8075 0.0
C214 C 0.19775 0.6209 0.82419 0.0
C215 C 0.19408 0.59614 0.83983 0.0
C216 C 0.1644 0.56851 0.84011 0.0
C217 C 0.13945 0.56466 0.82309 0.0
C218 C 0.13474 0.58369 0.75624 0.0
C219 C 0.15673 0.57346 0.75205 0.0
C220 C 0.17106 0.57651 0.72647 0.0
C221 C 0.16246 0.58816 0.70411 0.0
C222 C 0.13895 0.59643 0.70777 0.0
C223 C 0.12567 0.59472 0.73373 0.0
C224 C 0.08898 0.55895 0.78668 0.0
C225 C 0.06611 0.5658 0.79657 0.0
C226 C 0.03477 0.54217 0.80236 0.0
C227 C 0.02584 0.511 0.79897 0.0
C228 C 0.04862 0.5043 0.78792 0.0
C229 C 0.07966 0.52801 0.78142 0.0
C230 C 0.89255 0.41611 0.86487 0.0
C231 C 0.87546 0.43186 0.86438 0.0
C232 C 0.85971 0.43336 0.88795 0.0
C233 C 0.86049 0.41876 0.91206 0.0
C234 C 0.87838 0.40396 0.9128 0.0
C235 C 0.89443 0.4028 0.88935 0.0
C236 C 0.87967 0.39172 0.82101 0.0
C237 C 0.8576 0.36111 0.82823 0.0
C238 C 0.83028 0.34299 0.81236 0.0
C239 C 0.82527 0.35435 0.78782 0.0
C240 C 0.848 0.38458 0.77983 0.0
C241 C 0.87426 0.40353 0.79679 0.0
C242 C 0.93436 0.43686 0.82885 0.0
C243 C 0.9497 0.4663 0.8415 0.0
C244 C 0.97888 0.49019 0.83152 0.0
C245 C 0.99372 0.48573 0.80847 0.0
C246 C 0.97844 0.45648 0.79573 0.0
C247 C 0.94963 0.4323 0.80615 0.0
H248 H 0.53191 0.18149 0.97009 0.0
N249 N 0.53029 0.13098 0.95217 0.0
H250 H 0.57445 0.22375 -0.0026 0.0
H251 H 0.58096 0.13047 0.97719 0.0
H252 H 0.6233 0.17262 0.00473 0.0
H253 H 0.58733 0.14628 0.92679 0.0
H254 H 0.6015 0.16187 0.87904 0.0
H255 H 0.49312 0.13387 0.91353 0.0
H256 H 0.50758 0.14979 0.8654 0.0
H257 H 0.48004 0.09819 0.98451 0.0
H258 H 0.55061 0.09132 0.93531 0.0
H259 H 0.45424 0.0434 0.99524 0.0
H260 H 0.52392 0.03651 0.94426 0.0
H261 H 0.36611 0.85957 0.01259 0.0
H262 H 0.36168 0.83667 0.05789 0.0
H263 H 0.46002 0.9062 0.07565 0.0
H264 H 0.46476 0.92885 0.03062 0.0
H265 H 0.46042 0.88324 -0.00299 0.0
H266 H 0.4586 0.84046 0.97173 0.0
H267 H 0.39216 0.84191 0.91374 0.0
H268 H 0.39182 0.88329 0.94059 0.0
H269 H 0.39351 0.93996 0.98324 0.0
H270 H 0.42157 0.99528 0.97454 0.0
H271 H 0.51267 0.99817 0.97634 0.0
N272 N 0.41887 0.90473 0.98954 0.0
H273 H 0.48399 0.94249 0.98332 0.0
C274 C 0.55318 0.15292 0.97157 0.0
C275 C 0.55143 0.17914 0.97807 0.0
C276 C 0.57561 0.20314 0.99359 0.0
C277 C 0.60194 0.20122 0.00289 0.0
C278 C 0.60304 0.17436 -0.0023 0.0
C279 C 0.57888 0.15036 0.98201 0.0
C280 C 0.53904 0.13899 0.9238 0.0
C281 C 0.5696 0.14673 0.91365 0.0
C282 C 0.5777 0.15552 0.88637 0.0
C283 C 0.55552 0.15683 0.86883 0.0
C284 C 0.52487 0.14869 0.8787 0.0
C285 C 0.51671 0.13974 0.90602 0.0
C286 C 0.51681 0.09888 0.95877 0.0
C287 C 0.48981 0.08479 0.97589 0.0
C288 C 0.47495 0.05341 0.98176 0.0
C289 C 0.48663 0.03528 0.97027 0.0
C290 C 0.51433 0.04967 0.95367 0.0
C291 C 0.52947 0.08117 0.94821 0.0
C292 C 0.41554 0.89598 0.01806 0.0
C293 C 0.38641 0.87037 0.02654 0.0
C294 C 0.38394 0.85727 0.05221 0.0
C295 C 0.41059 0.86981 0.06985 0.0
C296 C 0.43924 0.89639 0.0622 0.0
C297 C 0.4418 0.90938 0.03645 0.0
C298 C 0.42509 0.88563 0.97128 0.0
C299 C 0.44558 0.87467 0.9788 0.0
C300 C 0.44479 0.85035 0.96423 0.0
C301 C 0.42459 0.83749 0.9413 0.0
C302 C 0.40746 0.85119 0.93169 0.0
C303 C 0.40731 0.87476 0.9469 0.0
C304 C 0.43659 0.93726 0.98405 0.0
C305 C 0.41952 0.95265 0.98158 0.0
C306 C 0.4357 0.98432 0.97692 0.0
C307 C 0.46951 0.00142 0.97503 0.0
C308 C 0.48663 0.9858 0.97736 0.0
C309 C 0.47031 0.95397 0.98156 0.0
H310 H 0.51784 0.36823 0.14041 0.0
N311 N 0.51548 0.41517 0.16318 0.0
H312 H 0.56152 0.37091 0.11212 0.0
H313 H 0.56595 0.46765 0.14057 0.0
H314 H 0.60886 0.47009 0.11219 0.0
H315 H 0.57611 0.43261 0.18423 0.0
H316 H 0.58943 0.43134 0.23176 0.0
H317 H 0.47679 0.39842 0.20702 0.0
H318 H 0.49127 0.39935 0.25544 0.0
H319 H 0.46182 0.39898 0.13548 0.0
H320 H 0.53879 0.47481 0.18017 0.0
H321 H 0.43665 0.42978 0.12764 0.0
H322 H 0.51448 0.5062 0.17169 0.0
H323 H 0.36217 0.5324 0.09853 0.0
H324 H 0.36585 0.55737 0.05446 0.0
H325 H 0.46923 0.60015 0.05619 0.0
H326 H 0.46563 0.57523 0.10021 0.0
H327 H 0.4658 0.59276 0.1459 0.0
H328 H 0.4676 0.63731 0.16855 0.0
H329 H 0.36471 0.58441 0.17993 0.0
H330 H 0.36284 0.53995 0.15705 0.0
H331 H 0.41678 0.50158 0.09484 0.0
H332 H 0.44389 0.47302 0.1023 0.0
H333 H 0.46804 0.50978 0.18483 0.0
N334 N 0.41056 0.5399 0.12997 0.0
H335 H 0.44189 0.53922 0.17726 0.0
C336 C 0.53827 0.41753 0.14255 0.0
C337 C 0.53718 0.39047 0.13368 0.0
C338 C 0.56201 0.392 0.11764 0.0
C339 C 0.58824 0.4207 0.11017 0.0
C340 C 0.58862 0.44777 0.11767 0.0
C341 C 0.56392 0.44628 0.13381 0.0
C342 C 0.525 0.4155 0.19151 0.0
C343 C 0.55697 0.42497 0.19914 0.0
C344 C 0.56482 0.42435 0.22653 0.0
C345 C 0.54136 0.41521 0.24709 0.0
C346 C 0.50969 0.40631 0.23981 0.0
C347 C 0.50151 0.40589 0.21225 0.0
C348 C 0.50207 0.43454 0.15825 0.0
C349 C 0.47339 0.4224 0.14333 0.0
C350 C 0.45921 0.44012 0.13878 0.0
C351 C 0.47363 0.47054 0.14896 0.0
C352 C 0.50255 0.48276 0.16385 0.0
C353 C 0.51662 0.46494 0.16851 0.0
C354 C 0.41346 0.55185 0.10259 0.0
C355 C 0.38554 0.54674 0.08916 0.0
C356 C 0.38765 0.561 0.06422 0.0
C357 C 0.4178 0.58053 0.05233 0.0
C358 C 0.44581 0.58509 0.0652 0.0
C359 C 0.44371 0.57091 0.09024 0.0
C360 C 0.41399 0.56302 0.14963 0.0
C361 C 0.44376 0.59041 0.15397 0.0
C362 C 0.44484 0.61579 0.16691 0.0
C363 C 0.41623 0.61406 0.17561 0.0
C364 C 0.38698 0.58604 0.17335 0.0
C365 C 0.38592 0.56071 0.16046 0.0
C366 C 0.42867 0.5245 0.13468 0.0
C367 C 0.42869 0.50441 0.11435 0.0
C368 C 0.4438 0.48755 0.11878 0.0
C369 C 0.45846 0.48934 0.14407 0.0
C370 C 0.45776 0.50856 0.16481 0.0
C371 C 0.44277 0.52563 0.16034 0.0
C372 C 0.6894 0.43687 0.38512 0.0
O373 O 0.68498 0.45822 0.39381 0.0
Cd374 Cd 0.63498 0.44953 0.41219 0.0
O375 O 0.66706 0.40864 0.38614 0.0
Cd376 Cd 0.61024 0.37872 0.40206 0.0
C377 C 0.58892 0.41467 0.35567 0.0
O378 O 0.61844 0.40826 0.44388 0.0
O379 O 0.56865 0.37653 0.4334 0.0
O380 O 0.62127 0.33911 0.41679 0.0
C381 C 0.58909 0.39505 0.45068 0.0
O382 O 0.59919 0.43716 0.37258 0.0
C383 C 0.59614 0.31668 0.40616 0.0
O384 O 0.59201 0.39159 0.36061 0.0
O385 O 0.57766 0.32301 0.39295 0.0
C386 C 0.31949 0.59952 0.56911 0.0
O387 O 0.2947 0.57429 0.56217 0.0
Cd388 Cd 0.24766 0.5737 0.54542 0.0
O389 O 0.32003 0.62487 0.56717 0.0
Cd390 Cd 0.28311 0.64191 0.55175 0.0
C391 C 0.2299 0.60269 0.60121 0.0
O392 O 0.26019 0.611 0.5099 0.0
O393 O 0.23267 0.62911 0.52855 0.0
O394 O 0.32934 0.68437 0.52973 0.0
C395 C 0.23734 0.61639 0.50788 0.0
O396 O 0.21949 0.58017 0.58435 0.0
C397 C 0.32605 0.70556 0.54053 0.0
O398 O 0.25565 0.62802 0.5961 0.0
O399 O 0.30256 0.69747 0.55691 0.0
C400 C 0.70576 0.27159 0.73037 0.0
O401 O 0.70145 0.24698 0.719 0.0
Cd402 Cd 0.64955 0.20568 0.70494 0.0
O403 O 0.68312 0.27765 0.73083 0.0
Cd404 Cd 0.62831 0.25788 0.71119 0.0
C405 C 0.60289 0.20315 0.76019 0.0
O406 O 0.63672 0.23262 0.67277 0.0
O407 O 0.58964 0.22693 0.67406 0.0
O408 O 0.64741 0.31016 0.69577 0.0
C409 C 0.60946 0.22171 0.66156 0.0
O410 O 0.61716 0.19149 0.74721 0.0
C411 C 0.62346 0.31135 0.70509 0.0
O412 O 0.60287 0.22676 0.75132 0.0
O413 O 0.6021 0.28802 0.71802 0.0
C414 C 0.30535 0.60328 0.89081 0.0
O415 O 0.30618 0.57952 0.89784 0.0
Cd416 Cd 0.35355 0.58193 0.9168 0.0
O417 O 0.3301 0.6301 0.89281 0.0
Cd418 Cd 0.38662 0.65469 0.90713 0.0
C419 C 0.40335 0.61304 0.86178 0.0
O420 O 0.37652 0.62461 0.9481 0.0
O421 O 0.42685 0.65405 0.93736 0.0
O422 O 0.38282 0.69637 0.92758 0.0
C423 C 0.40587 0.63557 0.95419 0.0
O424 O 0.38992 0.59063 0.87844 0.0
C425 C 0.40286 0.71736 0.91182 0.0
O426 O 0.40322 0.63791 0.86625 0.0
O427 O 0.41604 0.70937 0.89348 0.0
C428 C 0.70041 0.42635 0.06177 0.0
O429 O 0.72363 0.45101 0.05211 0.0
Cd430 Cd 0.77355 0.45414 0.04039 0.0
O431 O 0.70216 0.40213 0.06381 0.0
Cd432 Cd 0.73962 0.38407 0.05193 0.0
C433 C 0.78937 0.43069 0.10125 0.0
O434 O 0.76302 0.41254 0.00957 0.0
O435 O 0.78825 0.39235 0.02889 0.0
O436 O 0.69532 0.33966 0.0299 0.0
C437 C 0.78475 0.40555 0.00831 0.0
O438 O 0.79685 0.45243 0.08436 0.0
C439 C 0.69753 0.3196 0.04362 0.0
O440 O 0.76788 0.40301 0.0955 0.0
O441 O 0.71929 0.3292 0.06193 0.0
C442 C 0.29567 0.72738 0.22959 0.0
O443 O 0.29561 0.75189 0.22404 0.0
Cd444 Cd 0.34229 0.79776 0.20719 0.0
O445 O 0.32093 0.72571 0.22674 0.0
Cd446 Cd 0.37718 0.75841 0.21194 0.0
C447 C 0.39173 0.81149 0.26189 0.0
O448 O 0.36526 0.78051 0.17303 0.0
O449 O 0.41587 0.80064 0.1826 0.0
O450 O 0.37221 0.71221 0.19147 0.0
C451 C 0.39434 0.79905 0.16673 0.0
O452 O 0.37821 0.82184 0.2465 0.0
C453 C 0.39668 0.71442 0.20325 0.0
O454 O 0.39228 0.78729 0.2552 0.0
O455 O 0.41261 0.73733 0.21925 0.0
C456 C 0.215 0.65278 0.23504 0.0
C457 C 0.2126 0.64901 0.26392 0.0
C458 C 0.26509 0.69616 0.2701 0.0
C459 C 0.26664 0.70088 0.24135 0.0
N460 N 0.24236 0.6864 0.19647 0.0
N461 N 0.2325 0.6686 0.30947 0.0
C462 C 0.24132 0.67998 0.2238 0.0
C463 C 0.23689 0.67111 0.28162 0.0
N464 N 0.19253 0.62993 0.21845 0.0
N465 N 0.29084 0.71539 0.28633 0.0
H466 H 0.21259 0.65016 0.31881 0.0
H467 H 0.24736 0.68577 0.32339 0.0
H468 H 0.31129 0.73497 0.27891 0.0
H469 H 0.29295 0.71105 0.30683 0.0
H470 H 0.19451 0.62959 0.19719 0.0
H471 H 0.17268 0.61001 0.22613 0.0
H472 H 0.22325 0.67392 0.18299 0.0
H473 H 0.26177 0.70563 0.18745 0.0
C474 C 0.5735 0.23295 0.39424 0.0
C475 C 0.57549 0.22443 0.42149 0.0
C476 C 0.58563 0.27444 0.4385 0.0
C477 C 0.58761 0.28442 0.41107 0.0
N478 N 0.58756 0.27469 0.36244 0.0
N479 N 0.58983 0.23926 0.46904 0.0
C480 C 0.58244 0.26403 0.38875 0.0
C481 C 0.58329 0.24577 0.4435 0.0
N482 N 0.56261 0.21123 0.37376 0.0
N483 N 0.5847 0.29181 0.45983 0.0
H484 H 0.58894 0.21872 0.47374 0.0
H485 H 0.59916 0.25546 0.48495 0.0
H486 H 0.58536 0.31259 0.45706 0.0
H487 H 0.57982 0.28403 0.48 0.0
H488 H 0.55748 0.21518 0.35399 0.0
H489 H 0.55616 0.18839 0.37716 0.0
H490 H 0.58751 0.26184 0.34556 0.0
H491 H 0.59454 0.29736 0.35762 0.0
C492 C 0.37207 0.59329 0.62325 0.0
C493 C 0.40053 0.60227 0.60785 0.0
C494 C 0.37453 0.60631 0.56626 0.0
C495 C 0.34694 0.59937 0.58209 0.0
N496 N 0.32013 0.58979 0.62586 0.0
N497 N 0.43067 0.62013 0.56578 0.0
C498 C 0.34583 0.59369 0.61064 0.0
C499 C 0.40228 0.60955 0.5796 0.0
N500 N 0.37003 0.584 0.64987 0.0
N501 N 0.3738 0.60909 0.53841 0.0
H502 H 0.45108 0.62178 0.57473 0.0
H503 H 0.43478 0.62903 0.54603 0.0
H504 H 0.35398 0.60727 0.52813 0.0
H505 H 0.39173 0.61108 0.52519 0.0
H506 H 0.34876 0.57359 0.66115 0.0
H507 H 0.38924 0.58487 0.66037 0.0
H508 H 0.31947 0.58928 0.64722 0.0
H509 H 0.30002 0.58911 0.61728 0.0
C510 C 0.77498 0.34457 0.7625 0.0
C511 C 0.79603 0.33427 0.77091 0.0
C512 C 0.75614 0.28218 0.75585 0.0
C513 C 0.73735 0.29334 0.74362 0.0
N514 N 0.73655 0.33852 0.72798 0.0
N515 N 0.81029 0.2949 0.76645 0.0
C516 C 0.74902 0.32558 0.74466 0.0
C517 C 0.78786 0.30362 0.76454 0.0
N518 N 0.77847 0.37153 0.7724 0.0
N519 N 0.74343 0.25157 0.76114 0.0
H520 H 0.83437 0.31044 0.77124 0.0
H521 H 0.80562 0.27319 0.76008 0.0
H522 H 0.71912 0.23516 0.75866 0.0
H523 H 0.75617 0.24331 0.77175 0.0
H524 H 0.76183 0.37833 0.76826 0.0
H525 H 0.79552 0.38512 0.78718 0.0
H526 H 0.74614 0.36229 0.72709 0.0
H527 H 0.71989 0.32623 0.71252 0.0
C528 C 0.38743 0.78109 0.93086 0.0
C529 C 0.41873 0.80769 0.92961 0.0
C530 C 0.44063 0.77536 0.91507 0.0
C531 C 0.4089 0.74924 0.91446 0.0
N532 N 0.35179 0.73025 0.91227 0.0
N533 N 0.47348 0.83114 0.91348 0.0
C534 C 0.38219 0.75311 0.91923 0.0
C535 C 0.44482 0.80515 0.91933 0.0
N536 N 0.36309 0.78172 0.9447 0.0
N537 N 0.46682 0.77184 0.91343 0.0
H538 H 0.47707 0.85325 0.91596 0.0
H539 H 0.49238 0.8306 0.90362 0.0
H540 H 0.46513 0.7505 0.91137 0.0
H541 H 0.49029 0.78995 0.91671 0.0
H542 H 0.34084 0.76192 0.94825 0.0
H543 H 0.36604 0.80103 0.9553 0.0
H544 H 0.33192 0.73313 0.91333 0.0
H545 H 0.34713 0.70994 0.90235 0.0
C546 C 0.61705 0.41626 0.06883 0.0
C547 C 0.61707 0.42264 0.09726 0.0
C548 C 0.67311 0.43536 0.10118 0.0
C549 C 0.67217 0.42639 0.07337 0.0
N550 N 0.64291 0.40524 0.03118 0.0
N551 N 0.64282 0.43332 0.14166 0.0
C552 C 0.64401 0.41596 0.05728 0.0
C553 C 0.64452 0.43092 0.11377 0.0
N554 N 0.59163 0.41131 0.05283 0.0
N555 N 0.70149 0.44851 0.11544 0.0
H556 H 0.62229 0.43019 0.15177 0.0
H557 H 0.66073 0.43582 0.15508 0.0
H558 H 0.72286 0.45162 0.10706 0.0
H559 H 0.70458 0.45861 0.13479 0.0
H560 H 0.59151 0.40969 0.0315 0.0
H561 H 0.57139 0.41106 0.06074 0.0
H562 H 0.622 0.39412 0.01941 0.0
H563 H 0.66263 0.40572 0.02181 0.0
C564 C 0.39746 0.78752 0.54026 0.0
C565 C 0.39496 0.79648 0.5133 0.0
C566 C 0.34494 0.74713 0.50562 0.0
C567 C 0.34759 0.73803 0.53248 0.0
N568 N 0.37242 0.75054 0.57717 0.0
N569 N 0.3642 0.78786 0.47185 0.0
C570 C 0.37257 0.75866 0.55045 0.0
C571 C 0.36793 0.77721 0.49648 0.0
N572 N 0.42419 0.80622 0.55567 0.0
N573 N 0.3208 0.72662 0.48863 0.0
H574 H 0.38108 0.8093 0.46394 0.0
H575 H 0.34346 0.77651 0.45991 0.0
H576 H 0.30221 0.7052 0.49521 0.0
H577 H 0.3197 0.73005 0.46773 0.0
H578 H 0.42949 0.79983 0.57426 0.0
H579 H 0.44221 0.82793 0.54913 0.0
H580 H 0.38808 0.76545 0.59213 0.0
H581 H 0.355 0.72926 0.585 0.0
C582 C 0.61427 0.37022 0.66454 0.0
C583 C 0.61165 0.38802 0.68603 0.0
C584 C 0.61896 0.35679 0.72028 0.0
C585 C 0.61917 0.33765 0.69881 0.0
N586 N 0.61063 0.32223 0.65107 0.0
N587 N 0.60727 0.39646 0.73419 0.0
C588 C 0.61514 0.34332 0.67107 0.0
C589 C 0.61276 0.38078 0.71391 0.0
N590 N 0.61668 0.37944 0.63786 0.0
N591 N 0.62587 0.35274 0.74655 0.0
H592 H 0.60334 0.41456 0.73016 0.0
H593 H 0.60431 0.3902 0.75476 0.0
H594 H 0.63052 0.33541 0.7519 0.0
H595 H 0.62945 0.36788 0.76265 0.0
H596 H 0.62247 0.36952 0.62167 0.0
H597 H 0.61548 0.39867 0.63204 0.0
H598 H 0.60391 0.32335 0.63102 0.0
H599 H 0.61059 0.30192 0.65497 0.0
C600 C 0.2396 0.58596 0.839 0.0
C601 C 0.22234 0.5977 0.85325 0.0
C602 C 0.25735 0.60971 0.89338 0.0
C603 C 0.27589 0.59993 0.87842 0.0
N604 N 0.28795 0.58277 0.83606 0.0
N605 N 0.21594 0.62348 0.89251 0.0
C606 C 0.26781 0.58895 0.85102 0.0
C607 C 0.23155 0.61038 0.88006 0.0
N608 N 0.22881 0.57166 0.81405 0.0
N609 N 0.26391 0.61746 0.92055 0.0
H610 H 0.19627 0.6234 0.88366 0.0
H611 H 0.22358 0.63614 0.91073 0.0
H612 H 0.2827 0.61727 0.93086 0.0
H613 H 0.24947 0.62185 0.93346 0.0
H614 H 0.23778 0.55918 0.80425 0.0
H615 H 0.20938 0.57053 0.80371 0.0
H616 H 0.2856 0.57829 0.81504 0.0
H617 H 0.30866 0.58429 0.8442 0.0
C618 C 0.62657 0.23733 0.04302 0.0
C619 C 0.62954 0.22872 0.01584 0.0
C620 C 0.68237 0.27568 0.01164 0.0
C621 C 0.6768 0.28657 0.03673 0.0
N622 N 0.64407 0.27869 0.07671 0.0
N623 N 0.65908 0.24041 0.97316 0.0
C624 C 0.64924 0.26747 0.0528 0.0
C625 C 0.65736 0.24786 -6e-05 0.0
N626 N 0.60216 0.21659 0.05938 0.0
N627 N 0.71176 0.29195 -0.00083 0.0
H628 H 0.64137 0.2202 0.9637 0.0
H629 H 0.67693 0.2553 0.95965 0.0
H630 H 0.73068 0.3122 0.00762 0.0
H631 H 0.71843 0.28388 0.98212 0.0
H632 H 0.60019 0.22033 0.08017 0.0
H633 H 0.58526 0.19438 0.05265 0.0
H634 H 0.62268 0.26739 0.0878 0.0
H635 H 0.66076 0.30028 0.0848 0.0
C636 C 0.41618 0.6619 0.16254 0.0
C637 C 0.41592 0.64237 0.18346 0.0
C638 C 0.40555 0.67169 0.21824 0.0
C639 C 0.40663 0.69165 0.19736 0.0
N640 N 0.42105 0.71078 0.15123 0.0
N641 N 0.41697 0.63189 0.23141 0.0
C642 C 0.41448 0.68829 0.16997 0.0
C643 C 0.41279 0.64837 0.21143 0.0
N644 N 0.41656 0.6545 0.13549 0.0
N645 N 0.39595 0.67393 0.24417 0.0
H646 H 0.42201 0.6145 0.22694 0.0
H647 H 0.41816 0.6371 0.25226 0.0
H648 H 0.39061 0.69077 0.24998 0.0
H649 H 0.39111 0.65786 0.25947 0.0
H650 H 0.41286 0.66577 0.11939 0.0
H651 H 0.41814 0.63555 0.12901 0.0
H652 H 0.43008 0.71122 0.13168 0.0
H653 H 0.42055 0.73071 0.15614 0.0
C654 C 0.77945 0.47136 0.37575 0.0
C655 C 0.78092 0.46647 0.3472 0.0
C656 C 0.72222 0.44136 0.34361 0.0
C657 C 0.72061 0.44523 0.37236 0.0
N658 N 0.74634 0.45849 0.4167 0.0
N659 N 0.75414 0.44213 0.30471 0.0
C660 C 0.74888 0.45866 0.38873 0.0
C661 C 0.75237 0.44988 0.33139 0.0
N662 N 0.80729 0.48888 0.39025 0.0
N663 N 0.69526 0.43114 0.32777 0.0
H664 H 0.77588 0.44867 0.29482 0.0
H665 H 0.73405 0.42716 0.29301 0.0
H666 H 0.67266 0.42466 0.33586 0.0
H667 H 0.69561 0.43131 0.3064 0.0
H668 H 0.80793 0.49638 0.41034 0.0
H669 H 0.83009 0.49758 0.38159 0.0
H670 H 0.76567 0.46508 0.42996 0.0
H671 H 0.72427 0.44924 0.42683 0.0
C672 C 0.19241 0.57275 0.44321 0.0
C673 C 0.17658 0.58881 0.43574 0.0
C674 C 0.20371 0.62518 0.47362 0.0
C675 C 0.21581 0.60653 0.48338 0.0
N676 N 0.2122 0.5568 0.48107 0.0
N677 N 0.16075 0.62554 0.44871 0.0
C678 C 0.20742 0.57859 0.46928 0.0
C679 C 0.18015 0.61351 0.45252 0.0
N680 N 0.1945 0.55294 0.42517 0.0
N681 N 0.2159 0.65468 0.48307 0.0
H682 H 0.14233 0.61678 0.43414 0.0
H683 H 0.16074 0.64185 0.46202 0.0
H684 H 0.23519 0.66542 0.49671 0.0
H685 H 0.20952 0.66975 0.47467 0.0
H686 H 0.2084 0.54298 0.42909 0.0
H687 H 0.18554 0.54921 0.4052 0.0
H688 H 0.20398 0.53514 0.4722 0.0
H689 H 0.22032 0.55861 0.50113 0.0
C690 C 0.5646 0.17124 0.59923 0.0
C691 C 0.5908 0.17573 0.58248 0.0
C692 C 0.62804 0.21397 0.61533 0.0
C693 C 0.60247 0.20591 0.63425 0.0
N694 N 0.54678 0.1694 0.6459 0.0
N695 N 0.64785 0.19407 0.58016 0.0
C696 C 0.57076 0.18234 0.62678 0.0
C697 C 0.62267 0.19468 0.59235 0.0
N698 N 0.53414 0.15766 0.58878 0.0
N699 N 0.65683 0.24095 0.61796 0.0
H700 H 0.64472 0.17879 0.56423 0.0
H701 H 0.67116 0.20613 0.58814 0.0
H702 H 0.66079 0.2581 0.63218 0.0
H703 H 0.67506 0.24814 0.60332 0.0
H704 H 0.51495 0.15644 0.59979 0.0
H705 H 0.52877 0.1508 0.5683 0.0
H706 H 0.52408 0.15053 0.64144 0.0
H707 H 0.55059 0.1747 0.66677 0.0
C708 C 0.45977 0.6341 0.80064 0.0
C709 C 0.44657 0.60532 0.78663 0.0
C710 C 0.40333 0.58221 0.8206 0.0
C711 C 0.41877 0.60991 0.83643 0.0
N712 N 0.46723 0.65915 0.84473 0.0
N713 N 0.411 0.55007 0.78805 0.0
C714 C 0.44871 0.63498 0.82746 0.0
C715 C 0.42004 0.57872 0.79818 0.0
N716 N 0.4816 0.66084 0.78802 0.0
N717 N 0.37208 0.55999 0.82561 0.0
H718 H 0.42344 0.54651 0.77226 0.0
H719 H 0.39346 0.52985 0.79739 0.0
H720 H 0.35772 0.56248 0.84022 0.0
H721 H 0.35924 0.54074 0.81291 0.0
H722 H 0.48945 0.68253 0.79667 0.0
H723 H 0.48917 0.66165 0.76782 0.0
H724 H 0.49046 0.67661 0.83968 0.0
H725 H 0.46108 0.65984 0.86516 0.0
C726 C 0.85493 0.43771 0.95842 0.0
C727 C 0.84061 0.41683 0.93606 0.0
C728 C 0.78953 0.38883 0.96105 0.0
C729 C 0.80356 0.41027 0.98304 0.0
N730 N 0.84734 0.45739 0.0018 0.0
N731 N 0.79375 0.37497 0.91404 0.0
C732 C 0.83567 0.4354 0.98149 0.0
C733 C 0.80768 0.39315 0.93675 0.0
N734 N 0.88709 0.45928 0.95774 0.0
N735 N 0.75926 0.36365 0.96391 0.0
H736 H 0.80656 0.37635 0.8963 0.0
H737 H 0.7691 0.35976 0.91196 0.0
H738 H 0.74479 0.36024 0.98103 0.0
H739 H 0.74905 0.34509 0.95023 0.0
H740 H 0.89996 0.47292 0.9745 0.0
H741 H 0.90156 0.46249 0.94066 0.0
H742 H 0.86935 0.47794 0.00078 0.0
H743 H 0.83389 0.45613 0.0191 0.0
C744 C 0.40063 0.86173 0.12047 0.0
C745 C 0.40925 0.85347 0.09533 0.0
C746 C 0.41029 0.81059 0.11752 0.0
C747 C 0.40237 0.81928 0.14276 0.0
N748 N 0.39621 0.85604 0.17 0.0
N749 N 0.42799 0.82408 0.07037 0.0
C750 C 0.39943 0.8458 0.14477 0.0
C751 C 0.4159 0.82913 0.09401 0.0
N752 N 0.39267 0.88414 0.1209 0.0
N753 N 0.41124 0.78398 0.11583 0.0
H754 H 0.43174 0.83675 0.05252 0.0
H755 H 0.43659 0.80894 0.06892 0.0
H756 H 0.40827 0.77036 0.13284 0.0
H757 H 0.41303 0.77431 0.09742 0.0
H758 H 0.38267 0.88889 0.13785 0.0
H759 H 0.39416 0.89685 0.1036 0.0
H760 H 0.397 0.87684 0.17325 0.0
H761 H 0.39553 0.84496 0.18818 0.0
C762 C 0.57506 0.44361 0.28807 0.0
C763 C 0.5506 0.41559 0.27624 0.0
C764 C 0.54618 0.38926 0.31939 0.0
C765 C 0.57454 0.41584 0.32916 0.0
N766 N 0.62008 0.46659 0.31928 0.0
N767 N 0.51654 0.36017 0.27931 0.0
C768 C 0.59005 0.44272 0.31269 0.0
C769 C 0.53697 0.38792 0.29155 0.0
N770 N 0.5838 0.47112 0.27596 0.0
N771 N 0.52754 0.36564 0.33681 0.0
H772 H 0.50998 0.35789 0.25869 0.0
H773 H 0.50865 0.33915 0.28898 0.0
H774 H 0.53266 0.36639 0.35768 0.0
H775 H 0.50516 0.347 0.33119 0.0
H776 H 0.59954 0.49234 0.28516 0.0
H777 H 0.57267 0.47271 0.25825 0.0
H778 H 0.63337 0.48524 0.30632 0.0
H779 H 0.63337 0.46627 0.33592 0.0
C780 C 0.44656 0.84068 0.32445 0.0
C781 C 0.43276 0.85508 0.33991 0.0
C782 C 0.39009 0.83805 0.30557 0.0
C783 C 0.40631 0.82735 0.28838 0.0
N784 N 0.4554 0.82704 0.27898 0.0
N785 N 0.39637 0.87466 0.3409 0.0
C786 C 0.43621 0.83121 0.29704 0.0
C787 C 0.4061 0.85609 0.3291 0.0
N788 N 0.46839 0.83465 0.33616 0.0
N789 N 0.35877 0.82955 0.30065 0.0
H790 H 0.40833 0.88922 0.35753 0.0
H791 H 0.37874 0.87806 0.33222 0.0
H792 H 0.34492 0.81415 0.28511 0.0
H793 H 0.3454 0.83478 0.31415 0.0
H794 H 0.47674 0.82164 0.32629 0.0
H795 H 0.47542 0.83959 0.35666 0.0
H796 H 0.47861 0.83217 0.28396 0.0
H797 H 0.44984 0.82212 0.2582 0.0
C798 C 0.5775 0.44358 0.50413 0.0
C799 C 0.57786 0.42812 0.52816 0.0
C800 C 0.57477 0.38599 0.50026 0.0
C801 C 0.57952 0.40375 0.47648 0.0
N802 N 0.58338 0.44803 0.45453 0.0
N803 N 0.57652 0.38479 0.55001 0.0
C804 C 0.57987 0.432 0.47803 0.0
C805 C 0.57589 0.39909 0.52649 0.0
N806 N 0.57482 0.46922 0.50644 0.0
N807 N 0.5692 0.35665 0.49758 0.0
H808 H 0.57613 0.39317 0.56959 0.0
H809 H 0.57901 0.36549 0.5503 0.0
H810 H 0.56826 0.34663 0.47851 0.0
H811 H 0.56281 0.34133 0.51379 0.0
H812 H 0.5717 0.48027 0.48986 0.0
H813 H 0.57345 0.47838 0.52535 0.0
H814 H 0.58777 0.47047 0.45416 0.0
H815 H 0.58271 0.43895 0.43504 0.0
C816 C 0.17809 0.56612 0.66451 0.0
C817 C 0.17843 0.59179 0.67701 0.0
C818 C 0.20782 0.62321 0.63736 0.0
C819 C 0.21211 0.59901 0.62726 0.0
N820 N 0.20816 0.55003 0.63643 0.0
N821 N 0.20086 0.64707 0.67794 0.0
C822 C 0.19912 0.5711 0.64223 0.0
C823 C 0.19536 0.62107 0.66421 0.0
N824 N 0.15725 0.5369 0.67339 0.0
N825 N 0.21423 0.64762 0.6211 0.0
H826 H 0.19369 0.64689 0.69818 0.0
H827 H 0.21566 0.66916 0.67019 0.0
H828 H 0.22124 0.64919 0.60063 0.0
H829 H 0.20878 0.66437 0.62698 0.0
H830 H 0.15438 0.51734 0.66326 0.0
H831 H 0.14037 0.53213 0.68886 0.0
H832 H 0.2012 0.53064 0.64847 0.0
H833 H 0.22571 0.55376 0.62194 0.0
C834 C 0.58749 0.20055 0.8369 0.0
C835 C 0.56545 0.16867 0.84058 0.0
C836 C 0.5644 0.16007 0.79087 0.0
C837 C 0.5893 0.19124 0.78768 0.0
N838 N 0.62914 0.23963 0.80842 0.0
N839 N 0.53556 0.11706 0.82189 0.0
C840 C 0.60202 0.21117 0.81088 0.0
C841 C 0.5545 0.14809 0.81777 0.0
N842 N 0.59413 0.22081 0.8582 0.0
N843 N 0.54957 0.14224 0.76823 0.0
H844 H 0.52755 0.10751 0.84127 0.0
H845 H 0.52976 0.10065 0.80642 0.0
H846 H 0.55604 0.15038 0.74824 0.0
H847 H 0.5291 0.12035 0.76921 0.0
H848 H 0.60735 0.24466 0.8559 0.0
H849 H 0.58387 0.2139 0.87764 0.0
H850 H 0.64139 0.25366 0.82521 0.0
H851 H 0.64143 0.24808 0.78996 0.0
C852 C 0.41993 0.58426 0.001 0.0
C853 C 0.4198 0.59725 0.02692 0.0
C854 C 0.41469 0.63793 0.00478 0.0
C855 C 0.41467 0.62487 0.97888 0.0
N856 N 0.42321 0.58971 0.9514 0.0
N857 N 0.42357 0.63928 0.05393 0.0
C858 C 0.41936 0.59938 0.97671 0.0
C859 C 0.41931 0.62509 0.02893 0.0
N860 N 0.41925 0.55683 -0.00028 0.0
N861 N 0.40925 0.662 0.00625 0.0
H862 H 0.42657 0.63022 0.07209 0.0
H863 H 0.42661 0.66111 0.05657 0.0
H864 H 0.40736 0.67292 0.98888 0.0
H865 H 0.40503 0.67025 0.0245 0.0
H866 H 0.41556 0.54421 0.9817 0.0
H867 H 0.42061 0.54563 0.01711 0.0
H868 H 0.42977 0.5732 0.94838 0.0
H869 H 0.42225 0.59995 0.9332 0.0
C870 C 0.80272 0.44505 0.17817 0.0
C871 C 0.8368 0.46024 0.17926 0.0
C872 C 0.83873 0.45005 0.1302 0.0
C873 C 0.80511 0.43831 0.12847 0.0
N874 N 0.75513 0.42706 0.14994 0.0
N875 N 0.88792 0.4791 0.15668 0.0
C876 C 0.78699 0.43609 0.15228 0.0
C877 C 0.85502 0.46312 0.15539 0.0
N878 N 0.78543 0.43907 0.20196 0.0
N879 N 0.85482 0.44793 0.1079 0.0
H880 H 0.90062 0.48795 0.175 0.0
H881 H 0.90274 0.48523 0.13948 0.0
H882 H 0.84347 0.43825 0.08922 0.0
H883 H 0.87866 0.45324 0.10848 0.0
H884 H 0.76047 0.42512 0.20287 0.0
H885 H 0.79618 0.44605 0.22125 0.0
H886 H 0.74163 0.42866 0.16588 0.0
H887 H 0.74253 0.41994 0.13144 0.0
loop_
_geom_bond_atom_site_label_1
_geom_bond_atom_site_label_2
_geom_bond_distance
_geom_bond_site_symmetry_2
_ccdc_geom_bond_type
H0 C27 0.929 . S
N1 C26 1.433 . S
N1 C32 1.435 . S
N1 C38 1.423 . S
H2 C28 0.930 . S
H3 C31 0.931 . S
H4 C30 0.929 . S
H5 C33 0.930 . S
H6 C34 0.932 . S
H7 C37 0.929 . S
H8 C36 0.931 . S
H9 C39 0.929 . S
H10 C43 0.932 . S
H11 C40 0.931 . S
H12 C42 0.929 . S
H13 C45 0.929 . S
H14 C46 0.930 . S
H15 C48 0.929 . S
H16 C49 0.931 . S
H17 C51 0.930 . S
H18 C52 0.932 . S
H19 C54 0.931 . S
H20 C55 0.929 . S
H21 C57 0.929 . S
H22 C58 0.931 . S
H23 C60 0.929 . S
N24 C44 1.433 . S
N24 C50 1.435 . S
N24 C56 1.423 . S
H25 C61 0.932 . S
C26 N1 1.433 . S
C26 C27 1.363 . S
C26 C31 1.370 . S
C27 H0 0.929 . S
C27 C26 1.363 . S
C27 C28 1.385 . S
C28 H2 0.930 . S
C28 C27 1.385 . S
C28 C29 1.357 . S
C29 C28 1.357 . S
C29 C30 1.406 . S
C30 H4 0.929 . S
C30 C29 1.406 . S
C30 C31 1.391 . S
C31 H3 0.931 . S
C31 C26 1.370 . S
C31 C30 1.391 . S
C32 N1 1.435 . S
C32 C33 1.358 . S
C32 C37 1.371 . S
C33 H5 0.930 . S
C33 C32 1.358 . S
C33 C34 1.405 . S
C34 H6 0.932 . S
C34 C33 1.405 . S
C34 C35 1.383 . S
C35 C34 1.383 . S
C35 C36 1.393 . S
C36 H8 0.931 . S
C36 C35 1.393 . S
C36 C37 1.382 . S
C37 H7 0.929 . S
C37 C32 1.371 . S
C37 C36 1.382 . S
C38 N1 1.423 . S
C38 C39 1.362 . S
C38 C43 1.388 . S
C39 H9 0.929 . S
C39 C38 1.362 . S
C39 C40 1.376 . S
C40 H11 0.931 . S
C40 C39 1.376 . S
C40 C41 1.396 . S
C41 C40 1.396 . S
C41 C42 1.348 . S
C41 C59 1.472 1_455 S
C42 H12 0.929 . S
C42 C41 1.348 . S
C42 C43 1.443 . S
C43 H10 0.932 . S
C43 C38 1.388 . S
C43 C42 1.443 . S
C44 N24 1.433 . S
C44 C45 1.363 . S
C44 C49 1.370 . S
C45 H13 0.929 . S
C45 C44 1.363 . S
C45 C46 1.385 . S
C46 H14 0.930 . S
C46 C45 1.385 . S
C46 C47 1.357 . S
C47 C46 1.357 . S
C47 C48 1.406 . S
C48 H15 0.929 . S
C48 C47 1.406 . S
C48 C49 1.391 . S
C49 H16 0.931 . S
C49 C44 1.370 . S
C49 C48 1.391 . S
C50 N24 1.435 . S
C50 C51 1.358 . S
C50 C55 1.371 . S
C51 H17 0.930 . S
C51 C50 1.358 . S
C51 C52 1.405 . S
C52 H18 0.932 . S
C52 C51 1.405 . S
C52 C53 1.383 . S
C53 C52 1.383 . S
C53 C54 1.393 . S
C54 H19 0.931 . S
C54 C53 1.393 . S
C54 C55 1.382 . S
C55 H20 0.929 . S
C55 C50 1.371 . S
C55 C54 1.382 . S
C56 N24 1.423 . S
C56 C57 1.362 . S
C56 C61 1.388 . S
C57 H21 0.929 . S
C57 C56 1.362 . S
C57 C58 1.376 . S
C58 H22 0.931 . S
C58 C57 1.376 . S
C58 C59 1.396 . S
C59 C41 1.472 1_655 S
C59 C58 1.396 . S
C59 C60 1.348 . S
C60 H23 0.929 . S
C60 C59 1.348 . S
C60 C61 1.443 . S
C61 H25 0.932 . S
C61 C56 1.388 . S
C61 C60 1.443 . S
H62 C89 0.929 . S
N63 C88 1.433 . S
N63 C94 1.435 . S
N63 C100 1.423 . S
H64 C90 0.930 . S
H65 C93 0.931 . S
H66 C92 0.929 . S
H67 C95 0.930 . S
H68 C96 0.932 . S
H69 C99 0.929 . S
H70 C98 0.931 . S
H71 C101 0.929 . S
H72 C105 0.932 . S
H73 C102 0.931 . S
H74 C104 0.929 1_545 S
H75 C107 0.929 . S
H76 C108 0.930 . S
H77 C110 0.929 . S
H78 C111 0.931 . S
H79 C113 0.930 . S
H80 C114 0.932 . S
H81 C116 0.931 . S
H82 C117 0.929 . S
H83 C119 0.929 . S
H84 C120 0.931 . S
H85 C122 0.929 . S
N86 C106 1.433 . S
N86 C112 1.435 . S
N86 C118 1.423 . S
H87 C123 0.932 . S
C88 N63 1.433 . S
C88 C89 1.363 . S
C88 C93 1.370 . S
C89 H62 0.929 . S
C89 C88 1.363 . S
C89 C90 1.385 . S
C90 H64 0.930 . S
C90 C89 1.385 . S
C90 C91 1.357 . S
C91 C90 1.357 . S
C91 C92 1.406 . S
C92 H66 0.929 . S
C92 C91 1.406 . S
C92 C93 1.391 . S
C93 H65 0.931 . S
C93 C88 1.370 . S
C93 C92 1.391 . S
C94 N63 1.435 . S
C94 C95 1.358 . S
C94 C99 1.371 . S
C95 H67 0.930 . S
C95 C94 1.358 . S
C95 C96 1.405 . S
C96 H68 0.932 . S
C96 C95 1.405 . S
C96 C97 1.383 . S
C97 C96 1.383 . S
C97 C98 1.393 . S
C98 H70 0.931 . S
C98 C97 1.393 . S
C98 C99 1.382 . S
C99 H69 0.929 . S
C99 C94 1.371 . S
C99 C98 1.382 . S
C100 N63 1.423 . S
C100 C101 1.362 . S
C100 C105 1.388 . S
C101 H71 0.929 . S
C101 C100 1.362 . S
C101 C102 1.376 . S
C102 H73 0.931 . S
C102 C101 1.376 . S
C102 C103 1.396 1_565 S
C103 C102 1.396 1_545 S
C103 C104 1.348 1_545 S
C103 C121 1.472 . S
C104 H74 0.929 1_565 S
C104 C103 1.348 1_565 S
C104 C105 1.443 . S
C105 H72 0.932 . S
C105 C100 1.388 . S
C105 C104 1.443 . S
C106 N86 1.433 . S
C106 C107 1.363 . S
C106 C111 1.370 . S
C107 H75 0.929 . S
C107 C106 1.363 . S
C107 C108 1.385 . S
C108 H76 0.930 . S
C108 C107 1.385 . S
C108 C109 1.357 . S
C109 C108 1.357 . S
C109 C110 1.406 . S
C110 H77 0.929 . S
C110 C109 1.406 . S
C110 C111 1.391 . S
C111 H78 0.931 . S
C111 C106 1.370 . S
C111 C110 1.391 . S
C112 N86 1.435 . S
C112 C113 1.358 . S
C112 C117 1.371 . S
C113 H79 0.930 . S
C113 C112 1.358 . S
C113 C114 1.405 . S
C114 H80 0.932 . S
C114 C113 1.405 . S
C114 C115 1.383 . S
C115 C114 1.383 . S
C115 C116 1.393 . S
C116 H81 0.931 . S
C116 C115 1.393 . S
C116 C117 1.382 . S
C117 H82 0.929 . S
C117 C112 1.371 . S
C117 C116 1.382 . S
C118 N86 1.423 . S
C118 C119 1.362 . S
C118 C123 1.388 . S
C119 H83 0.929 . S
C119 C118 1.362 . S
C119 C120 1.376 . S
C120 H84 0.931 . S
C120 C119 1.376 . S
C120 C121 1.396 . S
C121 C103 1.472 . S
C121 C120 1.396 . S
C121 C122 1.348 . S
C122 H85 0.929 . S
C122 C121 1.348 . S
C122 C123 1.443 . S
C123 H87 0.932 . S
C123 C118 1.388 . S
C123 C122 1.443 . S
H124 C151 0.929 . S
N125 C150 1.433 . S
N125 C156 1.435 . S
N125 C162 1.423 . S
H126 C152 0.930 . S
H127 C155 0.931 . S
H128 C154 0.929 . S
H129 C157 0.930 . S
H130 C158 0.932 . S
H131 C161 0.929 . S
H132 C160 0.931 . S
H133 C163 0.929 . S
H134 C167 0.932 . S
H135 C164 0.931 . S
H136 C166 0.929 . S
H137 C169 0.929 . S
H138 C170 0.930 . S
H139 C172 0.929 . S
H140 C173 0.931 . S
H141 C175 0.930 . S
H142 C176 0.932 . S
H143 C178 0.931 . S
H144 C179 0.929 . S
H145 C181 0.929 . S
H146 C182 0.931 . S
H147 C184 0.929 . S
N148 C168 1.433 . S
N148 C174 1.435 . S
N148 C180 1.423 . S
H149 C185 0.932 . S
C150 N125 1.433 . S
C150 C151 1.363 . S
C150 C155 1.370 . S
C151 H124 0.929 . S
C151 C150 1.363 . S
C151 C152 1.385 . S
C152 H126 0.930 . S
C152 C151 1.385 . S
C152 C153 1.357 . S
C153 C152 1.357 . S
C153 C154 1.406 . S
C154 H128 0.929 . S
C154 C153 1.406 . S
C154 C155 1.391 . S
C155 H127 0.931 . S
C155 C150 1.370 . S
C155 C154 1.391 . S
C156 N125 1.435 . S
C156 C157 1.358 . S
C156 C161 1.371 . S
C157 H129 0.930 . S
C157 C156 1.358 . S
C157 C158 1.405 . S
C158 H130 0.932 . S
C158 C157 1.405 . S
C158 C159 1.383 . S
C159 C158 1.383 . S
C159 C160 1.393 . S
C160 H132 0.931 . S
C160 C159 1.393 . S
C160 C161 1.382 . S
C161 H131 0.929 . S
C161 C156 1.371 . S
C161 C160 1.382 . S
C162 N125 1.423 . S
C162 C163 1.362 . S
C162 C167 1.388 . S
C163 H133 0.929 . S
C163 C162 1.362 . S
C163 C164 1.376 . S
C164 H135 0.931 . S
C164 C163 1.376 . S
C164 C165 1.396 . S
C165 C164 1.396 . S
C165 C166 1.348 . S
C165 C183 1.472 . S
C166 H136 0.929 . S
C166 C165 1.348 . S
C166 C167 1.443 . S
C167 H134 0.932 . S
C167 C162 1.388 . S
C167 C166 1.443 . S
C168 N148 1.433 . S
C168 C169 1.363 . S
C168 C173 1.370 . S
C169 H137 0.929 . S
C169 C168 1.363 . S
C169 C170 1.385 . S
C170 H138 0.930 . S
C170 C169 1.385 . S
C170 C171 1.357 . S
C171 C170 1.357 . S
C171 C172 1.406 . S
C172 H139 0.929 . S
C172 C171 1.406 . S
C172 C173 1.391 . S
C173 H140 0.931 . S
C173 C168 1.370 . S
C173 C172 1.391 . S
C174 N148 1.435 . S
C174 C175 1.358 . S
C174 C179 1.371 . S
C175 H141 0.930 . S
C175 C174 1.358 . S
C175 C176 1.405 . S
C176 H142 0.932 . S
C176 C175 1.405 . S
C176 C177 1.383 . S
C177 C176 1.383 . S
C177 C178 1.393 . S
C178 H143 0.931 . S
C178 C177 1.393 . S
C178 C179 1.382 . S
C179 H144 0.929 . S
C179 C174 1.371 . S
C179 C178 1.382 . S
C180 N148 1.423 . S
C180 C181 1.362 . S
C180 C185 1.388 . S
C181 H145 0.929 . S
C181 C180 1.362 . S
C181 C182 1.376 . S
C182 H146 0.931 . S
C182 C181 1.376 . S
C182 C183 1.396 . S
C183 C165 1.472 . S
C183 C182 1.396 . S
C183 C184 1.348 . S
C184 H147 0.929 . S
C184 C183 1.348 . S
C184 C185 1.443 . S
C185 H149 0.932 . S
C185 C180 1.388 . S
C185 C184 1.443 . S
H186 C213 0.929 . S
N187 C212 1.433 . S
N187 C218 1.435 . S
N187 C224 1.423 . S
H188 C214 0.930 . S
H189 C217 0.931 . S
H190 C216 0.929 . S
H191 C219 0.930 . S
H192 C220 0.932 . S
H193 C223 0.929 . S
H194 C222 0.931 . S
H195 C225 0.929 . S
H196 C229 0.932 . S
H197 C226 0.931 . S
H198 C228 0.929 . S
H199 C231 0.929 . S
H200 C232 0.930 . S
H201 C234 0.929 . S
H202 C235 0.931 . S
H203 C237 0.930 . S
H204 C238 0.932 . S
H205 C240 0.931 . S
H206 C241 0.929 . S
H207 C243 0.929 . S
H208 C244 0.931 . S
H209 C246 0.929 . S
N210 C230 1.433 . S
N210 C236 1.435 . S
N210 C242 1.423 . S
H211 C247 0.932 . S
C212 N187 1.433 . S
C212 C213 1.363 . S
C212 C217 1.370 . S
C213 H186 0.929 . S
C213 C212 1.363 . S
C213 C214 1.385 . S
C214 H188 0.930 . S
C214 C213 1.385 . S
C214 C215 1.357 . S
C215 C214 1.357 . S
C215 C216 1.406 . S
C216 H190 0.929 . S
C216 C215 1.406 . S
C216 C217 1.391 . S
C217 H189 0.931 . S
C217 C212 1.370 . S
C217 C216 1.391 . S
C218 N187 1.435 . S
C218 C219 1.358 . S
C218 C223 1.371 . S
C219 H191 0.930 . S
C219 C218 1.358 . S
C219 C220 1.405 . S
C220 H192 0.932 . S
C220 C219 1.405 . S
C220 C221 1.383 . S
C221 C220 1.383 . S
C221 C222 1.393 . S
C222 H194 0.931 . S
C222 C221 1.393 . S
C222 C223 1.382 . S
C223 H193 0.929 . S
C223 C218 1.371 . S
C223 C222 1.382 . S
C224 N187 1.423 . S
C224 C225 1.362 . S
C224 C229 1.388 . S
C225 H195 0.929 . S
C225 C224 1.362 . S
C225 C226 1.376 . S
C226 H197 0.931 . S
C226 C225 1.376 . S
C226 C227 1.396 . S
C227 C226 1.396 . S
C227 C228 1.348 . S
C227 C245 1.472 1_455 S
C228 H198 0.929 . S
C228 C227 1.348 . S
C228 C229 1.443 . S
C229 H196 0.932 . S
C229 C224 1.388 . S
C229 C228 1.443 . S
C230 N210 1.433 . S
C230 C231 1.363 . S
C230 C235 1.370 . S
C231 H199 0.929 . S
C231 C230 1.363 . S
C231 C232 1.385 . S
C232 H200 0.930 . S
C232 C231 1.385 . S
C232 C233 1.357 . S
C233 C232 1.357 . S
C233 C234 1.406 . S
C234 H201 0.929 . S
C234 C233 1.406 . S
C234 C235 1.391 . S
C235 H202 0.931 . S
C235 C230 1.370 . S
C235 C234 1.391 . S
C236 N210 1.435 . S
C236 C237 1.358 . S
C236 C241 1.371 . S
C237 H203 0.930 . S
C237 C236 1.358 . S
C237 C238 1.405 . S
C238 H204 0.932 . S
C238 C237 1.405 . S
C238 C239 1.383 . S
C239 C238 1.383 . S
C239 C240 1.393 . S
C240 H205 0.931 . S
C240 C239 1.393 . S
C240 C241 1.382 . S
C241 H206 0.929 . S
C241 C236 1.371 . S
C241 C240 1.382 . S
C242 N210 1.423 . S
C242 C243 1.362 . S
C242 C247 1.388 . S
C243 H207 0.929 . S
C243 C242 1.362 . S
C243 C244 1.376 . S
C244 H208 0.931 . S
C244 C243 1.376 . S
C244 C245 1.396 . S
C245 C227 1.472 1_655 S
C245 C244 1.396 . S
C245 C246 1.348 . S
C246 H209 0.929 . S
C246 C245 1.348 . S
C246 C247 1.443 . S
C247 H211 0.932 . S
C247 C242 1.388 . S
C247 C246 1.443 . S
H248 C275 0.929 . S
N249 C274 1.433 . S
N249 C280 1.435 . S
N249 C286 1.423 . S
H250 C276 0.930 . S
H251 C279 0.931 . S
H252 C278 0.929 . S
H253 C281 0.930 . S
H254 C282 0.932 . S
H255 C285 0.929 . S
H256 C284 0.931 . S
H257 C287 0.929 . S
H258 C291 0.932 . S
H259 C288 0.931 . S
H260 C290 0.929 . S
H261 C293 0.929 . S
H262 C294 0.930 . S
H263 C296 0.929 . S
H264 C297 0.931 . S
H265 C299 0.941 . S
H266 C300 0.932 . S
H267 C302 0.931 . S
H268 C303 0.929 . S
H269 C305 0.929 . S
H270 C306 0.931 1_554 S
H271 C308 0.929 . S
N272 C292 1.433 . S
N272 C298 1.435 1_554 S
N272 C304 1.423 1_554 S
H273 C309 0.932 . S
C274 N249 1.433 . S
C274 C275 1.363 . S
C274 C279 1.370 . S
C275 H248 0.929 . S
C275 C274 1.363 . S
C275 C276 1.385 . S
C276 H250 0.930 . S
C276 C275 1.385 . S
C276 C277 1.357 1_556 S
C277 C276 1.357 1_554 S
C277 C278 1.406 . S
C278 H252 0.929 . S
C278 C277 1.406 . S
C278 C279 1.391 1_554 S
C279 H251 0.931 . S
C279 C274 1.370 . S
C279 C278 1.391 1_556 S
C280 N249 1.435 . S
C280 C281 1.358 . S
C280 C285 1.371 . S
C281 H253 0.930 . S
C281 C280 1.358 . S
C281 C282 1.405 . S
C282 H254 0.932 . S
C282 C281 1.405 . S
C282 C283 1.383 . S
C283 C282 1.383 . S
C283 C284 1.393 . S
C284 H256 0.931 . S
C284 C283 1.393 . S
C284 C285 1.382 . S
C285 H255 0.929 . S
C285 C280 1.371 . S
C285 C284 1.382 . S
C286 N249 1.423 . S
C286 C287 1.362 . S
C286 C291 1.388 . S
C287 H257 0.929 . S
C287 C286 1.362 . S
C287 C288 1.376 . S
C288 H259 0.931 . S
C288 C287 1.376 . S
C288 C289 1.396 . S
C289 C288 1.396 . S
C289 C290 1.348 . S
C289 C307 1.472 1_545 S
C290 H260 0.929 . S
C290 C289 1.348 . S
C290 C291 1.443 . S
C291 H258 0.932 . S
C291 C286 1.388 . S
C291 C290 1.443 . S
C292 N272 1.433 . S
C292 C293 1.363 . S
C292 C297 1.370 . S
C293 H261 0.929 . S
C293 C292 1.363 . S
C293 C294 1.385 . S
C294 H262 0.930 . S
C294 C293 1.385 . S
C294 C295 1.357 . S
C295 C294 1.357 . S
C295 C296 1.406 . S
C296 H263 0.929 . S
C296 C295 1.406 . S
C296 C297 1.391 . S
C297 H264 0.931 . S
C297 C292 1.370 . S
C297 C296 1.391 . S
C298 N272 1.435 1_556 S
C298 C299 1.355 1_556 S
C298 C303 1.371 . S
C299 H265 0.941 . S
C299 C298 1.355 1_554 S
C299 C300 1.398 1_554 S
C300 H266 0.932 . S
C300 C299 1.398 1_556 S
C300 C301 1.383 . S
C301 C300 1.383 . S
C301 C302 1.393 . S
C302 H267 0.931 . S
C302 C301 1.393 . S
C302 C303 1.382 . S
C303 H268 0.929 . S
C303 C298 1.371 . S
C303 C302 1.382 . S
C304 N272 1.423 1_556 S
C304 C305 1.362 1_556 S
C304 C309 1.388 . S
C305 H269 0.929 . S
C305 C304 1.362 1_554 S
C305 C306 1.377 1_554 S
C306 H270 0.931 1_556 S
C306 C305 1.377 1_556 S
C306 C307 1.395 . S
C307 C289 1.472 1_565 S
C307 C306 1.395 . S
C307 C308 1.348 . S
C308 H271 0.929 . S
C308 C307 1.348 . S
C308 C309 1.443 . S
C309 H273 0.932 . S
C309 C304 1.388 . S
C309 C308 1.443 . S
H310 C337 0.929 . S
N311 C336 1.433 . S
N311 C342 1.435 . S
N311 C348 1.423 . S
H312 C338 0.930 . S
H313 C341 0.931 . S
H314 C340 0.929 . S
H315 C343 0.930 . S
H316 C344 0.932 . S
H317 C347 0.929 . S
H318 C346 0.931 . S
H319 C349 0.929 . S
H320 C353 0.932 . S
H321 C350 0.931 . S
H322 C352 0.929 . S
H323 C355 0.929 . S
H324 C356 0.930 . S
H325 C358 0.929 . S
H326 C359 0.931 . S
H327 C361 0.930 . S
H328 C362 0.932 . S
H329 C364 0.931 . S
H330 C365 0.929 . S
H331 C367 0.929 . S
H332 C368 0.931 . S
H333 C370 0.929 . S
N334 C354 1.433 . S
N334 C360 1.435 . S
N334 C366 1.423 . S
H335 C371 0.932 . S
C336 N311 1.433 . S
C336 C337 1.363 . S
C336 C341 1.370 . S
C337 H310 0.929 . S
C337 C336 1.363 . S
C337 C338 1.385 . S
C338 H312 0.930 . S
C338 C337 1.385 . S
C338 C339 1.357 . S
C339 C338 1.357 . S
C339 C340 1.406 . S
C340 H314 0.929 . S
C340 C339 1.406 . S
C340 C341 1.391 . S
C341 H313 0.931 . S
C341 C336 1.370 . S
C341 C340 1.391 . S
C342 N311 1.435 . S
C342 C343 1.358 . S
C342 C347 1.371 . S
C343 H315 0.930 . S
C343 C342 1.358 . S
C343 C344 1.405 . S
C344 H316 0.932 . S
C344 C343 1.405 . S
C344 C345 1.383 . S
C345 C344 1.383 . S
C345 C346 1.393 . S
C346 H318 0.931 . S
C346 C345 1.393 . S
C346 C347 1.382 . S
C347 H317 0.929 . S
C347 C342 1.371 . S
C347 C346 1.382 . S
C348 N311 1.423 . S
C348 C349 1.362 . S
C348 C353 1.388 . S
C349 H319 0.929 . S
C349 C348 1.362 . S
C349 C350 1.376 . S
C350 H321 0.931 . S
C350 C349 1.376 . S
C350 C351 1.396 . S
C351 C350 1.396 . S
C351 C352 1.348 . S
C351 C369 1.472 . S
C352 H322 0.929 . S
C352 C351 1.348 . S
C352 C353 1.443 . S
C353 H320 0.932 . S
C353 C348 1.388 . S
C353 C352 1.443 . S
C354 N334 1.433 . S
C354 C355 1.363 . S
C354 C359 1.370 . S
C355 H323 0.929 . S
C355 C354 1.363 . S
C355 C356 1.385 . S
C356 H324 0.930 . S
C356 C355 1.385 . S
C356 C357 1.357 . S
C357 C356 1.357 . S
C357 C358 1.406 . S
C358 H325 0.929 . S
C358 C357 1.406 . S
C358 C359 1.391 . S
C359 H326 0.931 . S
C359 C354 1.370 . S
C359 C358 1.391 . S
C360 N334 1.435 . S
C360 C361 1.358 . S
C360 C365 1.371 . S
C361 H327 0.930 . S
C361 C360 1.358 . S
C361 C362 1.405 . S
C362 H328 0.932 . S
C362 C361 1.405 . S
C362 C363 1.383 . S
C363 C362 1.383 . S
C363 C364 1.393 . S
C364 H329 0.931 . S
C364 C363 1.393 . S
C364 C365 1.382 . S
C365 H330 0.929 . S
C365 C360 1.371 . S
C365 C364 1.382 . S
C366 N334 1.423 . S
C366 C367 1.362 . S
C366 C371 1.388 . S
C367 H331 0.929 . S
C367 C366 1.362 . S
C367 C368 1.376 . S
C368 H332 0.931 . S
C368 C367 1.376 . S
C368 C369 1.396 . S
C369 C351 1.472 . S
C369 C368 1.396 . S
C369 C370 1.348 . S
C370 H333 0.929 . S
C370 C369 1.348 . S
C370 C371 1.443 . S
C371 H335 0.932 . S
C371 C366 1.388 . S
C371 C370 1.443 . S
C372 O373 1.306 . S
C372 O375 1.160 . S
O373 C372 1.306 . S
O373 Cd374 2.228 . S
Cd374 O373 2.228 . S
Cd374 O378 2.273 . S
Cd374 O382 2.277 . S
O375 C372 1.160 . S
O375 Cd376 2.203 . S
Cd376 O375 2.203 . S
Cd376 O378 2.411 . S
Cd376 O379 2.333 . S
Cd376 O380 2.352 . S
Cd376 O384 2.277 . S
Cd376 O385 2.356 . S
C377 O382 1.209 . S
C377 O384 1.226 . S
O378 Cd374 2.273 . S
O378 Cd376 2.411 . S
O378 C381 1.320 . S
O379 Cd376 2.333 . S
O379 C381 1.214 . S
O380 Cd376 2.352 . S
O380 C383 1.258 . S
C381 O378 1.320 . S
C381 O379 1.214 . S
O382 Cd374 2.277 . S
O382 C377 1.209 . S
C383 O380 1.258 . S
C383 O385 1.282 . S
O384 Cd376 2.277 . S
O384 C377 1.226 . S
O385 Cd376 2.356 . S
O385 C383 1.282 . S
C386 O387 1.306 . S
C386 O389 1.160 . S
O387 C386 1.306 . S
O387 Cd388 2.228 . S
Cd388 O387 2.228 . S
Cd388 O392 2.273 . S
Cd388 O396 2.277 . S
O389 C386 1.160 . S
O389 Cd390 2.203 . S
Cd390 O389 2.203 . S
Cd390 O392 2.411 . S
Cd390 O393 2.333 . S
Cd390 O394 2.352 . S
Cd390 O398 2.277 . S
Cd390 O399 2.356 . S
C391 O396 1.209 . S
C391 O398 1.226 . S
O392 Cd388 2.273 . S
O392 Cd390 2.411 . S
O392 C395 1.320 . S
O393 Cd390 2.333 . S
O393 C395 1.214 . S
O394 Cd390 2.352 . S
O394 C397 1.258 . S
C395 O392 1.320 . S
C395 O393 1.214 . S
O396 Cd388 2.277 . S
O396 C391 1.209 . S
C397 O394 1.258 . S
C397 O399 1.282 . S
O398 Cd390 2.277 . S
O398 C391 1.226 . S
O399 Cd390 2.356 . S
O399 C397 1.282 . S
C400 O401 1.306 . S
C400 O403 1.160 . S
O401 C400 1.306 . S
O401 Cd402 2.228 . S
Cd402 O401 2.228 . S
Cd402 O406 2.273 . S
Cd402 O410 2.277 . S
O403 C400 1.160 . S
O403 Cd404 2.203 . S
Cd404 O403 2.203 . S
Cd404 O406 2.411 . S
Cd404 O407 2.333 . S
Cd404 O408 2.352 . S
Cd404 O412 2.277 . S
Cd404 O413 2.356 . S
C405 O410 1.209 . S
C405 O412 1.226 . S
O406 Cd402 2.273 . S
O406 Cd404 2.411 . S
O406 C409 1.320 . S
O407 Cd404 2.333 . S
O407 C409 1.214 . S
O408 Cd404 2.352 . S
O408 C411 1.258 . S
C409 O406 1.320 . S
C409 O407 1.214 . S
O410 Cd402 2.277 . S
O410 C405 1.209 . S
C411 O408 1.258 . S
C411 O413 1.282 . S
O412 Cd404 2.277 . S
O412 C405 1.226 . S
O413 Cd404 2.356 . S
O413 C411 1.282 . S
C414 O415 1.306 . S
C414 O417 1.160 . S
O415 C414 1.306 . S
O415 Cd416 2.228 . S
Cd416 O415 2.228 . S
Cd416 O420 2.273 . S
Cd416 O424 2.277 . S
O417 C414 1.160 . S
O417 Cd418 2.203 . S
Cd418 O417 2.203 . S
Cd418 O420 2.411 . S
Cd418 O421 2.333 . S
Cd418 O422 2.352 . S
Cd418 O426 2.277 . S
Cd418 O427 2.356 . S
C419 O424 1.209 . S
C419 O426 1.226 . S
O420 Cd416 2.273 . S
O420 Cd418 2.411 . S
O420 C423 1.320 . S
O421 Cd418 2.333 . S
O421 C423 1.214 . S
O422 Cd418 2.352 . S
O422 C425 1.258 . S
C423 O420 1.320 . S
C423 O421 1.214 . S
O424 Cd416 2.277 . S
O424 C419 1.209 . S
C425 O422 1.258 . S
C425 O427 1.282 . S
O426 Cd418 2.277 . S
O426 C419 1.226 . S
O427 Cd418 2.356 . S
O427 C425 1.282 . S
C428 O429 1.306 . S
C428 O431 1.160 . S
O429 C428 1.306 . S
O429 Cd430 2.228 . S
Cd430 O429 2.228 . S
Cd430 O434 2.273 . S
Cd430 O438 2.277 . S
O431 C428 1.160 . S
O431 Cd432 2.203 . S
Cd432 O431 2.203 . S
Cd432 O434 2.411 . S
Cd432 O435 2.333 . S
Cd432 O436 2.352 . S
Cd432 O440 2.277 . S
Cd432 O441 2.356 . S
C433 O438 1.209 . S
C433 O440 1.226 . S
O434 Cd430 2.273 . S
O434 Cd432 2.411 . S
O434 C437 1.320 . S
O435 Cd432 2.333 . S
O435 C437 1.214 . S
O436 Cd432 2.352 . S
O436 C439 1.258 . S
C437 O434 1.320 . S
C437 O435 1.214 . S
O438 Cd430 2.277 . S
O438 C433 1.209 . S
C439 O436 1.258 . S
C439 O441 1.282 . S
O440 Cd432 2.277 . S
O440 C433 1.226 . S
O441 Cd432 2.356 . S
O441 C439 1.282 . S
C442 O443 1.306 . S
C442 O445 1.160 . S
O443 C442 1.306 . S
O443 Cd444 2.228 . S
Cd444 O443 2.228 . S
Cd444 O448 2.273 . S
Cd444 O452 2.277 . S
O445 C442 1.160 . S
O445 Cd446 2.203 . S
Cd446 O445 2.203 . S
Cd446 O448 2.411 . S
Cd446 O449 2.333 . S
Cd446 O450 2.352 . S
Cd446 O454 2.277 . S
Cd446 O455 2.356 . S
C447 O452 1.209 . S
C447 O454 1.226 . S
O448 Cd444 2.273 . S
O448 Cd446 2.411 . S
O448 C451 1.320 . S
O449 Cd446 2.333 . S
O449 C451 1.214 . S
O450 Cd446 2.352 . S
O450 C453 1.258 . S
C451 O448 1.320 . S
C451 O449 1.214 . S
O452 Cd444 2.277 . S
O452 C447 1.209 . S
C453 O450 1.258 . S
C453 O455 1.282 . S
O454 Cd446 2.277 . S
O454 C447 1.226 . S
O455 Cd446 2.356 . S
O455 C453 1.282 . S
C456 C457 1.363 . S
C456 C462 1.379 . S
C456 N464 1.356 . S
C457 C456 1.363 . S
C457 C463 1.363 . S
C458 C459 1.363 . S
C458 C463 1.379 . S
C458 N465 1.356 . S
C459 C458 1.363 . S
C459 C462 1.363 . S
N460 C462 1.356 . S
N460 H472 0.984 . S
N460 H473 0.985 . S
N461 C463 1.356 . S
N461 H466 0.984 . S
N461 H467 0.985 . S
C462 C456 1.379 . S
C462 C459 1.363 . S
C462 N460 1.356 . S
C463 C457 1.363 . S
C463 C458 1.379 . S
C463 N461 1.356 . S
N464 C456 1.356 . S
N464 H470 0.984 . S
N464 H471 0.984 . S
N465 C458 1.356 . S
N465 H468 0.984 . S
N465 H469 0.985 . S
H466 N461 0.984 . S
H467 N461 0.985 . S
H468 N465 0.984 . S
H469 N465 0.985 . S
H470 N464 0.984 . S
H471 N464 0.984 . S
H472 N460 0.984 . S
H473 N460 0.985 . S
C474 C475 1.363 . S
C474 C480 1.379 . S
C474 N482 1.356 . S
C475 C474 1.363 . S
C475 C481 1.363 . S
C476 C477 1.363 . S
C476 C481 1.379 . S
C476 N483 1.356 . S
C477 C476 1.363 . S
C477 C480 1.363 . S
N478 C480 1.356 . S
N478 H490 0.984 . S
N478 H491 0.985 . S
N479 C481 1.356 . S
N479 H484 0.984 . S
N479 H485 0.985 . S
C480 C474 1.379 . S
C480 C477 1.363 . S
C480 N478 1.356 . S
C481 C475 1.363 . S
C481 C476 1.379 . S
C481 N479 1.356 . S
N482 C474 1.356 . S
N482 H488 0.984 . S
N482 H489 0.984 . S
N483 C476 1.356 . S
N483 H486 0.984 . S
N483 H487 0.985 . S
H484 N479 0.984 . S
H485 N479 0.985 . S
H486 N483 0.984 . S
H487 N483 0.985 . S
H488 N482 0.984 . S
H489 N482 0.984 . S
H490 N478 0.984 . S
H491 N478 0.985 . S
C492 C493 1.363 . S
C492 C498 1.379 . S
C492 N500 1.356 . S
C493 C492 1.363 . S
C493 C499 1.363 . S
C494 C495 1.363 . S
C494 C499 1.379 . S
C494 N501 1.356 . S
C495 C494 1.363 . S
C495 C498 1.363 . S
N496 C498 1.356 . S
N496 H508 0.984 . S
N496 H509 0.985 . S
N497 C499 1.356 . S
N497 H502 0.984 . S
N497 H503 0.985 . S
C498 C492 1.379 . S
C498 C495 1.363 . S
C498 N496 1.356 . S
C499 C493 1.363 . S
C499 C494 1.379 . S
C499 N497 1.356 . S
N500 C492 1.356 . S
N500 H506 0.984 . S
N500 H507 0.984 . S
N501 C494 1.356 . S
N501 H504 0.984 . S
N501 H505 0.985 . S
H502 N497 0.984 . S
H503 N497 0.985 . S
H504 N501 0.984 . S
H505 N501 0.985 . S
H506 N500 0.984 . S
H507 N500 0.984 . S
H508 N496 0.984 . S
H509 N496 0.985 . S
C510 C511 1.363 . S
C510 C516 1.379 . S
C510 N518 1.356 . S
C511 C510 1.363 . S
C511 C517 1.363 . S
C512 C513 1.363 . S
C512 C517 1.379 . S
C512 N519 1.356 . S
C513 C512 1.363 . S
C513 C516 1.363 . S
N514 C516 1.356 . S
N514 H526 0.984 . S
N514 H527 0.985 . S
N515 C517 1.356 . S
N515 H520 0.984 . S
N515 H521 0.985 . S
C516 C510 1.379 . S
C516 C513 1.363 . S
C516 N514 1.356 . S
C517 C511 1.363 . S
C517 C512 1.379 . S
C517 N515 1.356 . S
N518 C510 1.356 . S
N518 H524 0.984 . S
N518 H525 0.984 . S
N519 C512 1.356 . S
N519 H522 0.984 . S
N519 H523 0.985 . S
H520 N515 0.984 . S
H521 N515 0.985 . S
H522 N519 0.984 . S
H523 N519 0.985 . S
H524 N518 0.984 . S
H525 N518 0.984 . S
H526 N514 0.984 . S
H527 N514 0.985 . S
C528 C529 1.363 . S
C528 C534 1.379 . S
C528 N536 1.356 . S
C529 C528 1.363 . S
C529 C535 1.363 . S
C530 C531 1.363 . S
C530 C535 1.379 . S
C530 N537 1.356 . S
C531 C530 1.363 . S
C531 C534 1.363 . S
N532 C534 1.356 . S
N532 H544 0.984 . S
N532 H545 0.985 . S
N533 C535 1.356 . S
N533 H538 0.984 . S
N533 H539 0.985 . S
C534 C528 1.379 . S
C534 C531 1.363 . S
C534 N532 1.356 . S
C535 C529 1.363 . S
C535 C530 1.379 . S
C535 N533 1.356 . S
N536 C528 1.356 . S
N536 H542 0.984 . S
N536 H543 0.984 . S
N537 C530 1.356 . S
N537 H540 0.984 . S
N537 H541 0.985 . S
H538 N533 0.984 . S
H539 N533 0.985 . S
H540 N537 0.984 . S
H541 N537 0.985 . S
H542 N536 0.984 . S
H543 N536 0.984 . S
H544 N532 0.984 . S
H545 N532 0.985 . S
C546 C547 1.363 . S
C546 C552 1.379 . S
C546 N554 1.356 . S
C547 C546 1.363 . S
C547 C553 1.363 . S
C548 C549 1.363 . S
C548 C553 1.379 . S
C548 N555 1.356 . S
C549 C548 1.363 . S
C549 C552 1.363 . S
N550 C552 1.356 . S
N550 H562 0.984 . S
N550 H563 0.985 . S
N551 C553 1.356 . S
N551 H556 0.984 . S
N551 H557 0.985 . S
C552 C546 1.379 . S
C552 C549 1.363 . S
C552 N550 1.356 . S
C553 C547 1.363 . S
C553 C548 1.379 . S
C553 N551 1.356 . S
N554 C546 1.356 . S
N554 H560 0.984 . S
N554 H561 0.984 . S
N555 C548 1.356 . S
N555 H558 0.984 . S
N555 H559 0.985 . S
H556 N551 0.984 . S
H557 N551 0.985 . S
H558 N555 0.984 . S
H559 N555 0.985 . S
H560 N554 0.984 . S
H561 N554 0.984 . S
H562 N550 0.984 . S
H563 N550 0.985 . S
C564 C565 1.363 . S
C564 C570 1.379 . S
C564 N572 1.356 . S
C565 C564 1.363 . S
C565 C571 1.363 . S
C566 C567 1.363 . S
C566 C571 1.379 . S
C566 N573 1.356 . S
C567 C566 1.363 . S
C567 C570 1.363 . S
N568 C570 1.356 . S
N568 H580 0.984 . S
N568 H581 0.985 . S
N569 C571 1.356 . S
N569 H574 0.984 . S
N569 H575 0.985 . S
C570 C564 1.379 . S
C570 C567 1.363 . S
C570 N568 1.356 . S
C571 C565 1.363 . S
C571 C566 1.379 . S
C571 N569 1.356 . S
N572 C564 1.356 . S
N572 H578 0.984 . S
N572 H579 0.984 . S
N573 C566 1.356 . S
N573 H576 0.984 . S
N573 H577 0.985 . S
H574 N569 0.984 . S
H575 N569 0.985 . S
H576 N573 0.984 . S
H577 N573 0.985 . S
H578 N572 0.984 . S
H579 N572 0.984 . S
H580 N568 0.984 . S
H581 N568 0.985 . S
C582 C583 1.363 . S
C582 C588 1.379 . S
C582 N590 1.356 . S
C583 C582 1.363 . S
C583 C589 1.363 . S
C584 C585 1.363 . S
C584 C589 1.379 . S
C584 N591 1.356 . S
C585 C584 1.363 . S
C585 C588 1.363 . S
N586 C588 1.356 . S
N586 H598 0.984 . S
N586 H599 0.985 . S
N587 C589 1.356 . S
N587 H592 0.984 . S
N587 H593 0.985 . S
C588 C582 1.379 . S
C588 C585 1.363 . S
C588 N586 1.356 . S
C589 C583 1.363 . S
C589 C584 1.379 . S
C589 N587 1.356 . S
N590 C582 1.356 . S
N590 H596 0.984 . S
N590 H597 0.984 . S
N591 C584 1.356 . S
N591 H594 0.984 . S
N591 H595 0.985 . S
H592 N587 0.984 . S
H593 N587 0.985 . S
H594 N591 0.984 . S
H595 N591 0.985 . S
H596 N590 0.984 . S
H597 N590 0.984 . S
H598 N586 0.984 . S
H599 N586 0.985 . S
C600 C601 1.363 . S
C600 C606 1.379 . S
C600 N608 1.356 . S
C601 C600 1.363 . S
C601 C607 1.363 . S
C602 C603 1.363 . S
C602 C607 1.379 . S
C602 N609 1.356 . S
C603 C602 1.363 . S
C603 C606 1.363 . S
N604 C606 1.356 . S
N604 H616 0.984 . S
N604 H617 0.985 . S
N605 C607 1.356 . S
N605 H610 0.984 . S
N605 H611 0.985 . S
C606 C600 1.379 . S
C606 C603 1.363 . S
C606 N604 1.356 . S
C607 C601 1.363 . S
C607 C602 1.379 . S
C607 N605 1.356 . S
N608 C600 1.356 . S
N608 H614 0.984 . S
N608 H615 0.984 . S
N609 C602 1.356 . S
N609 H612 0.984 . S
N609 H613 0.985 . S
H610 N605 0.984 . S
H611 N605 0.985 . S
H612 N609 0.984 . S
H613 N609 0.985 . S
H614 N608 0.984 . S
H615 N608 0.984 . S
H616 N604 0.984 . S
H617 N604 0.985 . S
C618 C619 1.363 . S
C618 C624 1.379 . S
C618 N626 1.356 . S
C619 C618 1.363 . S
C619 C625 1.363 . S
C620 C621 1.363 . S
C620 C625 1.379 . S
C620 N627 1.356 . S
C621 C620 1.363 . S
C621 C624 1.363 . S
N622 C624 1.356 . S
N622 H634 0.984 . S
N622 H635 0.985 . S
N623 C625 1.356 1_556 S
N623 H628 0.981 1_556 S
N623 H629 0.985 . S
C624 C618 1.379 . S
C624 C621 1.363 . S
C624 N622 1.356 . S
C625 C619 1.363 . S
C625 C620 1.379 . S
C625 N623 1.356 1_554 S
N626 C618 1.356 . S
N626 H632 0.984 . S
N626 H633 0.984 . S
N627 C620 1.356 . S
N627 H630 0.984 . S
N627 H631 0.985 1_554 S
H628 N623 0.981 1_554 S
H629 N623 0.985 . S
H630 N627 0.984 . S
H631 N627 0.985 1_556 S
H632 N626 0.984 . S
H633 N626 0.984 . S
H634 N622 0.984 . S
H635 N622 0.985 . S
C636 C637 1.363 . S
C636 C642 1.379 . S
C636 N644 1.356 . S
C637 C636 1.363 . S
C637 C643 1.363 . S
C638 C639 1.363 . S
C638 C643 1.379 . S
C638 N645 1.356 . S
C639 C638 1.363 . S
C639 C642 1.363 . S
N640 C642 1.356 . S
N640 H652 0.984 . S
N640 H653 0.985 . S
N641 C643 1.356 . S
N641 H646 0.984 . S
N641 H647 0.985 . S
C642 C636 1.379 . S
C642 C639 1.363 . S
C642 N640 1.356 . S
C643 C637 1.363 . S
C643 C638 1.379 . S
C643 N641 1.356 . S
N644 C636 1.356 . S
N644 H650 0.984 . S
N644 H651 0.984 . S
N645 C638 1.356 . S
N645 H648 0.984 . S
N645 H649 0.985 . S
H646 N641 0.984 . S
H647 N641 0.985 . S
H648 N645 0.984 . S
H649 N645 0.985 . S
H650 N644 0.984 . S
H651 N644 0.984 . S
H652 N640 0.984 . S
H653 N640 0.985 . S
C654 C655 1.363 . S
C654 C660 1.379 . S
C654 N662 1.356 . S
C655 C654 1.363 . S
C655 C661 1.363 . S
C656 C657 1.363 . S
C656 C661 1.379 . S
C656 N663 1.356 . S
C657 C656 1.363 . S
C657 C660 1.363 . S
N658 C660 1.356 . S
N658 H670 0.984 . S
N658 H671 0.985 . S
N659 C661 1.356 . S
N659 H664 0.984 . S
N659 H665 0.985 . S
C660 C654 1.379 . S
C660 C657 1.363 . S
C660 N658 1.356 . S
C661 C655 1.363 . S
C661 C656 1.379 . S
C661 N659 1.356 . S
N662 C654 1.356 . S
N662 H668 0.984 . S
N662 H669 0.984 . S
N663 C656 1.356 . S
N663 H666 0.984 . S
N663 H667 0.985 . S
H664 N659 0.984 . S
H665 N659 0.985 . S
H666 N663 0.984 . S
H667 N663 0.985 . S
H668 N662 0.984 . S
H669 N662 0.984 . S
H670 N658 0.984 . S
H671 N658 0.985 . S
C672 C673 1.363 . S
C672 C678 1.379 . S
C672 N680 1.356 . S
C673 C672 1.363 . S
C673 C679 1.363 . S
C674 C675 1.363 . S
C674 C679 1.379 . S
C674 N681 1.356 . S
C675 C674 1.363 . S
C675 C678 1.363 . S
N676 C678 1.356 . S
N676 H688 0.984 . S
N676 H689 0.985 . S
N677 C679 1.356 . S
N677 H682 0.984 . S
N677 H683 0.985 . S
C678 C672 1.379 . S
C678 C675 1.363 . S
C678 N676 1.356 . S
C679 C673 1.363 . S
C679 C674 1.379 . S
C679 N677 1.356 . S
N680 C672 1.356 . S
N680 H686 0.984 . S
N680 H687 0.984 . S
N681 C674 1.356 . S
N681 H684 0.984 . S
N681 H685 0.985 . S
H682 N677 0.984 . S
H683 N677 0.985 . S
H684 N681 0.984 . S
H685 N681 0.985 . S
H686 N680 0.984 . S
H687 N680 0.984 . S
H688 N676 0.984 . S
H689 N676 0.985 . S
C690 C691 1.363 . S
C690 C696 1.379 . S
C690 N698 1.356 . S
C691 C690 1.363 . S
C691 C697 1.363 . S
C692 C693 1.363 . S
C692 C697 1.379 . S
C692 N699 1.356 . S
C693 C692 1.363 . S
C693 C696 1.363 . S
N694 C696 1.356 . S
N694 H706 0.984 . S
N694 H707 0.985 . S
N695 C697 1.356 . S
N695 H700 0.984 . S
N695 H701 0.985 . S
C696 C690 1.379 . S
C696 C693 1.363 . S
C696 N694 1.356 . S
C697 C691 1.363 . S
C697 C692 1.379 . S
C697 N695 1.356 . S
N698 C690 1.356 . S
N698 H704 0.984 . S
N698 H705 0.984 . S
N699 C692 1.356 . S
N699 H702 0.984 . S
N699 H703 0.985 . S
H700 N695 0.984 . S
H701 N695 0.985 . S
H702 N699 0.984 . S
H703 N699 0.985 . S
H704 N698 0.984 . S
H705 N698 0.984 . S
H706 N694 0.984 . S
H707 N694 0.985 . S
C708 C709 1.363 . S
C708 C714 1.379 . S
C708 N716 1.356 . S
C709 C708 1.363 . S
C709 C715 1.363 . S
C710 C711 1.363 . S
C710 C715 1.379 . S
C710 N717 1.356 . S
C711 C710 1.363 . S
C711 C714 1.363 . S
N712 C714 1.356 . S
N712 H724 0.984 . S
N712 H725 0.985 . S
N713 C715 1.356 . S
N713 H718 0.984 . S
N713 H719 0.985 . S
C714 C708 1.379 . S
C714 C711 1.363 . S
C714 N712 1.356 . S
C715 C709 1.363 . S
C715 C710 1.379 . S
C715 N713 1.356 . S
N716 C708 1.356 . S
N716 H722 0.984 . S
N716 H723 0.984 . S
N717 C710 1.356 . S
N717 H720 0.984 . S
N717 H721 0.985 . S
H718 N713 0.984 . S
H719 N713 0.985 . S
H720 N717 0.984 . S
H721 N717 0.985 . S
H722 N716 0.984 . S
H723 N716 0.984 . S
H724 N712 0.984 . S
H725 N712 0.985 . S
C726 C727 1.363 . S
C726 C732 1.379 1_556 S
C726 N734 1.356 . S
C727 C726 1.363 . S
C727 C733 1.363 . S
C728 C729 1.363 . S
C728 C733 1.379 . S
C728 N735 1.356 . S
C729 C728 1.363 . S
C729 C732 1.363 1_556 S
N730 C732 1.356 . S
N730 H742 0.984 . S
N730 H743 0.985 . S
N731 C733 1.356 . S
N731 H736 0.984 . S
N731 H737 0.985 . S
C732 C726 1.379 1_554 S
C732 C729 1.363 1_554 S
C732 N730 1.356 . S
C733 C727 1.363 . S
C733 C728 1.379 . S
C733 N731 1.356 . S
N734 C726 1.356 . S
N734 H740 0.984 . S
N734 H741 0.984 . S
N735 C728 1.356 . S
N735 H738 0.984 . S
N735 H739 0.985 . S
H736 N731 0.984 . S
H737 N731 0.985 . S
H738 N735 0.984 . S
H739 N735 0.985 . S
H740 N734 0.984 . S
H741 N734 0.984 . S
H742 N730 0.984 . S
H743 N730 0.985 . S
C744 C745 1.363 . S
C744 C750 1.379 . S
C744 N752 1.356 . S
C745 C744 1.363 . S
C745 C751 1.363 . S
C746 C747 1.363 . S
C746 C751 1.379 . S
C746 N753 1.356 . S
C747 C746 1.363 . S
C747 C750 1.363 . S
N748 C750 1.356 . S
N748 H760 0.984 . S
N748 H761 0.985 . S
N749 C751 1.356 . S
N749 H754 0.984 . S
N749 H755 0.985 . S
C750 C744 1.379 . S
C750 C747 1.363 . S
C750 N748 1.356 . S
C751 C745 1.363 . S
C751 C746 1.379 . S
C751 N749 1.356 . S
N752 C744 1.356 . S
N752 H758 0.984 . S
N752 H759 0.984 . S
N753 C746 1.356 . S
N753 H756 0.984 . S
N753 H757 0.985 . S
H754 N749 0.984 . S
H755 N749 0.985 . S
H756 N753 0.984 . S
H757 N753 0.985 . S
H758 N752 0.984 . S
H759 N752 0.984 . S
H760 N748 0.984 . S
H761 N748 0.985 . S
C762 C763 1.363 . S
C762 C768 1.379 . S
C762 N770 1.356 . S
C763 C762 1.363 . S
C763 C769 1.363 . S
C764 C765 1.363 . S
C764 C769 1.379 . S
C764 N771 1.356 . S
C765 C764 1.363 . S
C765 C768 1.363 . S
N766 C768 1.356 . S
N766 H778 0.984 . S
N766 H779 0.985 . S
N767 C769 1.356 . S
N767 H772 0.984 . S
N767 H773 0.985 . S
C768 C762 1.379 . S
C768 C765 1.363 . S
C768 N766 1.356 . S
C769 C763 1.363 . S
C769 C764 1.379 . S
C769 N767 1.356 . S
N770 C762 1.356 . S
N770 H776 0.984 . S
N770 H777 0.984 . S
N771 C764 1.356 . S
N771 H774 0.984 . S
N771 H775 0.985 . S
H772 N767 0.984 . S
H773 N767 0.985 . S
H774 N771 0.984 . S
H775 N771 0.985 . S
H776 N770 0.984 . S
H777 N770 0.984 . S
H778 N766 0.984 . S
H779 N766 0.985 . S
C780 C781 1.363 . S
C780 C786 1.379 . S
C780 N788 1.356 . S
C781 C780 1.363 . S
C781 C787 1.363 . S
C782 C783 1.363 . S
C782 C787 1.379 . S
C782 N789 1.356 . S
C783 C782 1.363 . S
C783 C786 1.363 . S
N784 C786 1.356 . S
N784 H796 0.984 . S
N784 H797 0.985 . S
N785 C787 1.356 . S
N785 H790 0.984 . S
N785 H791 0.985 . S
C786 C780 1.379 . S
C786 C783 1.363 . S
C786 N784 1.356 . S
C787 C781 1.363 . S
C787 C782 1.379 . S
C787 N785 1.356 . S
N788 C780 1.356 . S
N788 H794 0.984 . S
N788 H795 0.984 . S
N789 C782 1.356 . S
N789 H792 0.984 . S
N789 H793 0.985 . S
H790 N785 0.984 . S
H791 N785 0.985 . S
H792 N789 0.984 . S
H793 N789 0.985 . S
H794 N788 0.984 . S
H795 N788 0.984 . S
H796 N784 0.984 . S
H797 N784 0.985 . S
C798 C799 1.363 . S
C798 C804 1.379 . S
C798 N806 1.356 . S
C799 C798 1.363 . S
C799 C805 1.363 . S
C800 C801 1.363 . S
C800 C805 1.379 . S
C800 N807 1.356 . S
C801 C800 1.363 . S
C801 C804 1.363 . S
N802 C804 1.356 . S
N802 H814 0.984 . S
N802 H815 0.985 . S
N803 C805 1.356 . S
N803 H808 0.984 . S
N803 H809 0.985 . S
C804 C798 1.379 . S
C804 C801 1.363 . S
C804 N802 1.356 . S
C805 C799 1.363 . S
C805 C800 1.379 . S
C805 N803 1.356 . S
N806 C798 1.356 . S
N806 H812 0.984 . S
N806 H813 0.984 . S
N807 C800 1.356 . S
N807 H810 0.984 . S
N807 H811 0.985 . S
H808 N803 0.984 . S
H809 N803 0.985 . S
H810 N807 0.984 . S
H811 N807 0.985 . S
H812 N806 0.984 . S
H813 N806 0.984 . S
H814 N802 0.984 . S
H815 N802 0.985 . S
C816 C817 1.363 . S
C816 C822 1.379 . S
C816 N824 1.356 . S
C817 C816 1.363 . S
C817 C823 1.363 . S
C818 C819 1.363 . S
C818 C823 1.379 . S
C818 N825 1.356 . S
C819 C818 1.363 . S
C819 C822 1.363 . S
N820 C822 1.356 . S
N820 H832 0.984 . S
N820 H833 0.985 . S
N821 C823 1.356 . S
N821 H826 0.984 . S
N821 H827 0.985 . S
C822 C816 1.379 . S
C822 C819 1.363 . S
C822 N820 1.356 . S
C823 C817 1.363 . S
C823 C818 1.379 . S
C823 N821 1.356 . S
N824 C816 1.356 . S
N824 H830 0.984 . S
N824 H831 0.984 . S
N825 C818 1.356 . S
N825 H828 0.984 . S
N825 H829 0.985 . S
H826 N821 0.984 . S
H827 N821 0.985 . S
H828 N825 0.984 . S
H829 N825 0.985 . S
H830 N824 0.984 . S
H831 N824 0.984 . S
H832 N820 0.984 . S
H833 N820 0.985 . S
C834 C835 1.363 . S
C834 C840 1.379 . S
C834 N842 1.356 . S
C835 C834 1.363 . S
C835 C841 1.363 . S
C836 C837 1.363 . S
C836 C841 1.379 . S
C836 N843 1.356 . S
C837 C836 1.363 . S
C837 C840 1.363 . S
N838 C840 1.356 . S
N838 H850 0.984 . S
N838 H851 0.985 . S
N839 C841 1.356 . S
N839 H844 0.984 . S
N839 H845 0.985 . S
C840 C834 1.379 . S
C840 C837 1.363 . S
C840 N838 1.356 . S
C841 C835 1.363 . S
C841 C836 1.379 . S
C841 N839 1.356 . S
N842 C834 1.356 . S
N842 H848 0.984 . S
N842 H849 0.984 . S
N843 C836 1.356 . S
N843 H846 0.984 . S
N843 H847 0.985 . S
H844 N839 0.984 . S
H845 N839 0.985 . S
H846 N843 0.984 . S
H847 N843 0.985 . S
H848 N842 0.984 . S
H849 N842 0.984 . S
H850 N838 0.984 . S
H851 N838 0.985 . S
C852 C853 1.363 . S
C852 C858 1.379 . S
C852 N860 1.356 . S
C853 C852 1.363 . S
C853 C859 1.363 1_556 S
C854 C855 1.363 . S
C854 C859 1.379 1_556 S
C854 N861 1.356 . S
C855 C854 1.363 . S
C855 C858 1.363 . S
N856 C858 1.356 . S
N856 H868 0.984 . S
N856 H869 0.985 . S
N857 C859 1.356 . S
N857 H862 0.984 . S
N857 H863 0.985 . S
C858 C852 1.379 . S
C858 C855 1.363 . S
C858 N856 1.356 . S
C859 C853 1.363 1_554 S
C859 C854 1.379 1_554 S
C859 N857 1.356 . S
N860 C852 1.356 . S
N860 H866 0.984 . S
N860 H867 0.984 . S
N861 C854 1.356 . S
N861 H864 0.984 . S
N861 H865 0.985 1_556 S
H862 N857 0.984 . S
H863 N857 0.985 . S
H864 N861 0.984 . S
H865 N861 0.985 1_554 S
H866 N860 0.984 . S
H867 N860 0.984 . S
H868 N856 0.984 . S
H869 N856 0.985 . S
C870 C871 1.363 . S
C870 C876 1.379 . S
C870 N878 1.356 . S
C871 C870 1.363 . S
C871 C877 1.363 . S
C872 C873 1.363 . S
C872 C877 1.379 . S
C872 N879 1.356 . S
C873 C872 1.363 . S
C873 C876 1.363 . S
N874 C876 1.356 . S
N874 H886 0.984 . S
N874 H887 0.985 . S
N875 C877 1.356 . S
N875 H880 0.984 . S
N875 H881 0.985 . S
C876 C870 1.379 . S
C876 C873 1.363 . S
C876 N874 1.356 . S
C877 C871 1.363 . S
C877 C872 1.379 . S
C877 N875 1.356 . S
N878 C870 1.356 . S
N878 H884 0.984 . S
N878 H885 0.984 . S
N879 C872 1.356 . S
N879 H882 0.984 . S
N879 H883 0.985 . S
H880 N875 0.984 . S
H881 N875 0.985 . S
H882 N879 0.984 . S
H883 N879 0.985 . S
H884 N878 0.984 . S
H885 N878 0.984 . S
H886 N874 0.984 . S
H887 N874 0.985 . S
C459 C442 1.693 . S
C457 C29 1.582 . S
C475 C115 1.589 . S
C477 C383 1.617 . S
C493 C153 1.553 . S
C495 C386 1.674 . S
C511 C239 1.573 . S
C513 C400 1.596 . S
C531 C425 1.649 . S
C529 C301 1.613 . S
C547 C339 1.781 . S
C549 C428 1.930 . S
C565 C91 1.551 . S
C567 C397 1.669 . S
C583 C177 1.565 . S
C585 C411 1.586 . S
C601 C215 1.550 . S
C603 C414 1.663 . S
C621 C439 1.911 . S
C619 C277 1.769 . S
C639 C453 1.627 . S
C637 C363 1.597 . S
C657 C372 1.557 . S
C655 C53 1.534 . S
C673 C35 1.551 . S
C675 C395 1.568 . S
C691 C109 1.390 . S
C693 C409 1.513 . S
C711 C419 1.487 . S
C709 C159 1.481 . S
C727 C233 1.573 . S
C729 C437 1.701 1_556 S
C747 C451 1.550 . S
C745 C295 1.391 . S
C765 C377 1.448 . S
C763 C345 1.442 . S
C783 C447 1.498 . S
C781 C97 1.490 . S
C799 C171 1.392 . S
C801 C381 1.525 . S
C819 C391 1.590 . S
C817 C221 1.560 . S
C835 C283 1.442 . S
C837 C405 1.449 . S
C853 C357 1.400 1_556 S
C855 C423 1.570 . S
C871 C47 1.590 . S
C873 C433 1.730 . S
