# Generated by pormake.
# Topology zzz, (3,6)-cn, num edge types: 1
# Building blocks:
#     Node 0, Type 0, BuildingBlock: PAMTOO_clean_linker_0, # of connection points: 3
#     Node 1, Type 0, BuildingBlock: PAMTOO_clean_linker_0, # of connection points: 3
#     Node 2, Type 0, BuildingBlock: PAMTOO_clean_linker_0, # of connection points: 3
#     Node 3, Type 0, BuildingBlock: PAMTOO_clean_linker_0, # of connection points: 3
#     Node 4, Type 0, BuildingBlock: PAMTOO_clean_linker_0, # of connection points: 3
#     Node 5, Type 0, BuildingBlock: PAMTOO_clean_linker_0, # of connection points: 3
#     Node 6, Type 0, BuildingBlock: PAMTOO_clean_linker_0, # of connection points: 3
#     Node 7, Type 0, BuildingBlock: PAMTOO_clean_linker_0, # of connection points: 3
#     Node 8, Type 1, BuildingBlock: CUWYAW_clean_sbu_0, # of connection points: 6
#     Node 9, Type 1, BuildingBlock: CUWYAW_clean_sbu_0, # of connection points: 6
#     Node 10, Type 1, BuildingBlock: CUWYAW_clean_sbu_0, # of connection points: 6
#     Node 11, Type 1, BuildingBlock: CUWYAW_clean_sbu_0, # of connection points: 6
#     Edge 12, Type (0, 1), BuildingBlock: TEMPAE_clean_linker_10, # of connection points: 2
#     Edge 13, Type (0, 1), BuildingBlock: TEMPAE_clean_linker_10, # of connection points: 2
#     Edge 14, Type (0, 1), BuildingBlock: TEMPAE_clean_linker_10, # of connection points: 2
#     Edge 15, Type (0, 1), BuildingBlock: TEMPAE_clean_linker_10, # of connection points: 2
#     Edge 16, Type (0, 1), BuildingBlock: TEMPAE_clean_linker_10, # of connection points: 2
#     Edge 17, Type (0, 1), BuildingBlock: TEMPAE_clean_linker_10, # of connection points: 2
#     Edge 18, Type (0, 1), BuildingBlock: TEMPAE_clean_linker_10, # of connection points: 2
#     Edge 19, Type (0, 1), BuildingBlock: TEMPAE_clean_linker_10, # of connection points: 2
#     Edge 20, Type (0, 1), BuildingBlock: TEMPAE_clean_linker_10, # of connection points: 2
#     Edge 21, Type (0, 1), BuildingBlock: TEMPAE_clean_linker_10, # of connection points: 2
#     Edge 22, Type (0, 1), BuildingBlock: TEMPAE_clean_linker_10, # of connection points: 2
#     Edge 23, Type (0, 1), BuildingBlock: TEMPAE_clean_linker_10, # of connection points: 2
#     Edge 24, Type (0, 1), BuildingBlock: TEMPAE_clean_linker_10, # of connection points: 2
#     Edge 25, Type (0, 1), BuildingBlock: TEMPAE_clean_linker_10, # of connection points: 2
#     Edge 26, Type (0, 1), BuildingBlock: TEMPAE_clean_linker_10, # of connection points: 2
#     Edge 27, Type (0, 1), BuildingBlock: TEMPAE_clean_linker_10, # of connection points: 2
#     Edge 28, Type (0, 1), BuildingBlock: TEMPAE_clean_linker_10, # of connection points: 2
#     Edge 29, Type (0, 1), BuildingBlock: TEMPAE_clean_linker_10, # of connection points: 2
#     Edge 30, Type (0, 1), BuildingBlock: TEMPAE_clean_linker_10, # of connection points: 2
#     Edge 31, Type (0, 1), BuildingBlock: TEMPAE_clean_linker_10, # of connection points: 2
#     Edge 32, Type (0, 1), BuildingBlock: TEMPAE_clean_linker_10, # of connection points: 2
#     Edge 33, Type (0, 1), BuildingBlock: TEMPAE_clean_linker_10, # of connection points: 2
#     Edge 34, Type (0, 1), BuildingBlock: TEMPAE_clean_linker_10, # of connection points: 2
#     Edge 35, Type (0, 1), BuildingBlock: TEMPAE_clean_linker_10, # of connection points: 2
# Relax obj value: 0.257
# Max RMSD: 0.164
# Mean RMSD: 0.135
data_MOF--net-zzz--node1-CUWYAW_clean_sbu_0--node2-PAMTOO_clean_linker_0--edge1-TEMPAE_clean_linker_10
_symmetry_space_group_name_H-M    P1
_symmetry_Int_Tables_number       1
_symmetry_cell_setting            triclinic
loop_
_symmetry_equiv_pos_as_xyz
'x, y, z'
_cell_length_a     52.450284
_cell_length_b     52.327808
_cell_length_c     14.34227
_cell_angle_alpha  89.986724
_cell_angle_beta   89.93949
_cell_angle_gamma 89.999656
loop_
_atom_site_label
_atom_site_type_symbol
_atom_site_fract_x
_atom_site_fract_y
_atom_site_fract_z
_atom_type_partial_charge
H0 H 0.80006 0.55437 0.37262 0.0
H1 H 0.72622 0.54789 0.24591 0.0
H2 H 0.74309 0.5064 0.49855 0.0
H3 H 0.69022 0.48408 0.35558 0.0
C4 C 0.69652 0.50057 0.31255 0.0
O5 O 0.70615 0.51931 0.37235 0.0
H6 H 0.71193 0.49301 0.26667 0.0
C7 C 0.78073 0.54713 0.37442 0.0
C8 C 0.77416 0.53005 0.44548 0.0
C9 C 0.76415 0.55261 0.30009 0.0
C10 C 0.73914 0.54352 0.30267 0.0
C11 C 0.73108 0.52715 0.37378 0.0
C12 C 0.74892 0.51965 0.44461 0.0
H13 H 0.03583 0.80843 0.31159 0.0
H14 H 0.02245 0.73417 0.19599 0.0
H15 H 0.99229 0.75308 0.46794 0.0
H16 H 0.99986 0.68484 0.41366 0.0
C17 C 1.0086 0.69381 0.35117 0.0
O18 O 0.99564 0.71658 0.33279 0.0
H19 H 0.02883 0.69795 0.36944 0.0
C20 C 0.0278 0.78942 0.31955 0.0
C21 C 1.0142 0.78337 0.4007 0.0
C22 C 0.03076 0.77191 0.24661 0.0
C23 C 0.02038 0.7475 0.25336 0.0
C24 C 1.00669 0.74027 0.33279 0.0
C25 C 1.00329 0.75837 0.40702 0.0
H26 H 0.72183 0.97821 0.36757 0.0
H27 H 0.79527 0.98769 0.24097 0.0
H28 H 0.77578 0.03047 0.48821 0.0
H29 H 0.82351 0.05572 0.34265 0.0
C30 C 0.82172 0.03768 0.30236 0.0
O31 O 0.81358 0.01866 0.36396 0.0
H32 H 0.80706 0.04115 0.2477 0.0
C33 C 0.74074 0.98647 0.36904 0.0
C34 C 0.74623 1.00457 0.43794 0.0
C35 C 0.75774 0.98121 0.29584 0.0
C36 C 0.78216 0.99179 0.29739 0.0
C37 C 0.7892 1.00923 0.36653 0.0
C38 C 0.77084 0.01637 0.43608 0.0
H39 H 0.5478 0.72989 0.36496 0.0
H40 H 0.53962 0.80311 0.23339 0.0
H41 H 0.50217 0.78791 0.496 0.0
H42 H 0.47827 0.84045 0.36559 0.0
C43 C 0.49292 0.8339 0.31499 0.0
O44 O 0.51355 0.82427 0.36545 0.0
H45 H 0.48399 0.81835 0.27318 0.0
C46 C 0.54057 0.74927 0.36655 0.0
C47 C 0.52453 0.75628 0.43995 0.0
C48 C 0.54535 0.76553 0.29071 0.0
C49 C 0.53594 0.7905 0.29185 0.0
C50 C 0.52088 0.79912 0.36599 0.0
C51 C 0.51443 0.78168 0.43968 0.0
H52 H 0.21309 0.53932 0.18829 0.0
H53 H 0.28689 0.52571 0.30492 0.0
H54 H 0.27012 0.50049 0.02444 0.0
H55 H 0.32337 0.53644 0.13136 0.0
C56 C 0.32808 0.51626 0.14924 0.0
O57 O 0.30576 0.50219 0.16209 0.0
H58 H 0.33832 0.50836 0.0879 0.0
C59 C 0.23232 0.53211 0.17917 0.0
C60 C 0.23903 0.52028 0.09516 0.0
C61 C 0.24932 0.53414 0.25378 0.0
C62 C 0.27393 0.52444 0.24626 0.0
C63 C 0.28184 0.51254 0.16381 0.0
C64 C 0.26426 0.51015 0.08767 0.0
H65 H 0.96895 0.22503 0.12607 0.0
H66 H 0.97921 0.29707 0.26116 0.0
H67 H 0.0339 0.27153 0.05572 0.0
H68 H 0.05586 0.31492 0.21652 0.0
C69 C 0.03596 0.31649 0.2425 0.0
O70 O 0.01967 0.31068 0.16877 0.0
H71 H 0.03388 0.30221 0.29959 0.0
C72 C 0.97962 0.24263 0.13257 0.0
C73 C 1.00211 0.2456 0.08095 0.0
C74 C 0.97153 0.26072 0.19806 0.0
C75 C 0.98541 0.28322 0.20994 0.0
C76 C 1.00767 0.28764 0.15825 0.0
C77 C 0.0165 0.26844 0.0948 0.0
H78 H 0.31389 0.98943 0.17004 0.0
H79 H 0.24415 0.99716 0.32397 0.0
H80 H 0.2521 0.03345 0.05471 0.0
H81 H 0.20264 0.99155 0.16804 0.0
C82 C 0.19822 1.012 0.18242 0.0
O83 O 0.22061 0.02531 0.20239 0.0
H84 H 0.18995 0.02009 0.11755 0.0
C85 C 0.29452 0.99671 0.17421 0.0
C86 C 0.28513 1.01166 0.10129 0.0
C87 C 0.28017 0.99176 0.25446 0.0
C88 C 0.25518 1.00083 0.26145 0.0
C89 C 0.24461 1.0156 0.18961 0.0
C90 C 0.25982 0.02146 0.10932 0.0
H91 H 0.53257 0.31647 0.18192 0.0
H92 H 0.51904 0.24264 0.30026 0.0
H93 H 0.49372 0.25907 0.0197 0.0
H94 H 0.52974 0.20574 0.12932 0.0
C95 C 0.50943 0.20112 0.14465 0.0
O96 O 0.49547 0.22351 0.15803 0.0
H97 H 0.50201 0.19137 0.0815 0.0
C98 C 0.52536 0.29717 0.17323 0.0
C99 C 0.51352 0.29032 0.0895 0.0
C100 C 0.52742 0.28024 0.2482 0.0
C101 C 0.51774 0.25554 0.24132 0.0
C102 C 0.50582 0.24749 0.15916 0.0
C103 C 0.5034 0.26502 0.08269 0.0
C104 C 0.98283 0.03883 0.50608 0.0
Eu105 Eu 0.99714 0.02224 0.66765 0.0
C106 C 0.96557 0.05959 0.48054 0.0
C107 C 0.95704 0.07664 0.54933 0.0
C108 C 0.94404 0.09882 0.52411 0.0
C109 C 0.93935 0.10418 0.42971 0.0
C110 C 0.94589 0.0858 0.36195 0.0
C111 C 0.95912 0.06372 0.38722 0.0
C112 C 0.96458 0.01955 0.82018 0.0
C113 C 0.01728 0.06576 0.81598 0.0
C114 C 0.04219 0.98476 1.00354 0.0
Eu115 Eu 0.0281 1.00463 0.84774 0.0
C116 C 0.05555 0.96014 0.01365 0.0
C117 C 0.07945 0.95863 0.05756 0.0
C118 C 0.09325 0.93567 0.05625 0.0
C119 C 0.08353 0.91424 0.00896 0.0
C120 C 0.05968 0.91591 0.96536 0.0
C121 C 0.04582 0.93845 0.96831 0.0
C122 C 0.06062 1.00833 0.69559 0.0
C123 C 1.00915 0.96097 0.69728 0.0
O124 O 1.00398 0.04621 0.54681 0.0
O125 O 0.97211 0.01921 0.54721 0.0
O126 O 0.95783 0.02582 0.73643 0.0
O127 O 0.98822 1.01471 0.81675 0.0
O128 O 1.00965 0.06069 0.72941 0.0
O129 O 0.02311 0.04733 0.87626 0.0
O130 O 0.01863 0.98335 0.97308 0.0
O131 O 0.05538 1.00285 0.96246 0.0
O132 O 0.06749 1.0016 0.77869 0.0
O133 O 0.03692 1.01268 0.69919 0.0
O134 O 0.01669 0.96606 0.78378 0.0
O135 O 1.00296 0.97957 0.63831 0.0
H136 H 0.96175 0.07352 0.62201 0.0
H137 H 0.93951 0.11264 0.57784 0.0
H138 H 0.94225 0.08932 0.28877 0.0
H139 H 0.96543 0.05057 0.3336 0.0
H140 H 0.08747 0.97521 0.09198 0.0
H141 H 0.11136 0.93458 0.09227 0.0
H142 H 0.05123 0.89944 0.93153 0.0
H143 H 0.02745 0.93881 0.93424 0.0
C144 C 0.49025 0.98373 0.50714 0.0
Eu145 Eu 0.50567 1.00375 0.66234 0.0
C146 C 0.47166 0.96324 0.49133 0.0
C147 C 0.4646 0.94703 0.56509 0.0
C148 C 0.44277 0.93188 0.5585 0.0
C149 C 0.42748 0.93295 0.47834 0.0
C150 C 0.436 0.94749 0.40141 0.0
C151 C 0.4579 0.96254 0.40804 0.0
C152 C 0.51324 0.97412 0.82062 0.0
C153 C 0.45892 0.02325 0.801 0.0
C154 C 0.53435 0.05292 0.99586 0.0
Eu155 Eu 0.51842 0.03967 0.833 0.0
C156 C 0.55494 0.04014 0.04602 0.0
C157 C 0.57478 0.05472 0.08387 0.0
C158 C 0.5984 0.04339 0.10098 0.0
C159 C 0.60232 0.01741 0.08014 0.0
C160 C 0.58179 1.00246 0.05001 0.0
C161 C 0.55832 1.01375 0.03279 0.0
C162 C 0.50938 0.06978 0.67864 0.0
C163 C 0.56477 0.02019 0.69476 0.0
O164 O 0.48048 1.00472 0.54207 0.0
O165 O 0.51156 0.97699 0.54795 0.0
O166 O 0.50842 0.96528 0.73848 0.0
O167 O 0.51455 0.99818 0.81254 0.0
O168 O 0.46565 1.01172 0.72189 0.0
O169 O 0.47583 0.0345 0.85616 0.0
O170 O 0.51345 0.03955 0.98397 0.0
O171 O 0.54206 0.06415 0.91932 0.0
O172 O 0.51344 0.07833 0.76217 0.0
O173 O 0.50878 0.04555 0.68326 0.0
O174 O 0.55807 0.02689 0.78096 0.0
O175 O 0.5472 1.01392 0.63227 0.0
H176 H 0.47492 0.9473 0.63021 0.0
H177 H 0.43695 0.92071 0.61844 0.0
H178 H 0.4246 0.94915 0.3388 0.0
H179 H 0.46299 0.97501 0.35062 0.0
H180 H 0.57267 0.07518 0.09265 0.0
H181 H 0.61402 0.05531 0.12439 0.0
H182 H 0.58424 0.9823 0.03527 0.0
H183 H 0.54353 1.00221 1.00155 0.0
C184 C 0.55003 0.50657 0.52127 0.0
Eu185 Eu 0.52507 0.51496 0.67481 0.0
C186 C 0.56516 0.48455 0.48989 0.0
C187 C 0.58375 0.47352 0.54783 0.0
C188 C 0.59302 0.44904 0.52895 0.0
C189 C 0.58351 0.43505 0.45289 0.0
C190 C 0.56667 0.44722 0.39051 0.0
C191 C 0.55773 0.47178 0.40865 0.0
C192 C 0.5503 0.51451 0.84198 0.0
C193 C 0.50423 0.46721 0.79456 0.0
C194 C 0.47718 0.53948 0.99799 0.0
Eu195 Eu 0.49169 0.52765 0.83099 0.0
C196 C 0.4886 0.55866 0.05942 0.0
C197 C 0.47336 0.57879 0.09191 0.0
C198 C 0.48455 0.60209 0.11534 0.0
C199 C 0.51102 0.60535 0.10617 0.0
C200 C 0.52642 0.58429 0.08488 0.0
C201 C 0.51527 0.561 0.06223 0.0
C202 C 0.45914 0.51866 0.68344 0.0
C203 C 0.51077 0.57553 0.70599 0.0
O204 O 0.52567 0.50187 0.53104 0.0
O205 O 0.55926 0.52011 0.59008 0.0
O206 O 0.55247 0.49735 0.77754 0.0
O207 O 0.53427 0.53147 0.81624 0.0
O208 O 0.51302 0.47412 0.71165 0.0
O209 O 0.49697 0.48483 0.85504 0.0
O210 O 0.49108 0.51926 0.97995 0.0
O211 O 0.46689 0.54928 0.92301 0.0
O212 O 0.45213 0.52404 0.76746 0.0
O213 O 0.48324 0.51735 0.68104 0.0
O214 O 0.50134 0.56865 0.78779 0.0
O215 O 0.51926 0.55783 0.64776 0.0
H216 H 0.58991 0.48302 0.611 0.0
H217 H 0.60644 0.44051 0.57713 0.0
H218 H 0.5586 0.43713 0.33165 0.0
H219 H 0.54341 0.47996 0.36308 0.0
H220 H 0.45276 0.57737 0.08983 0.0
H221 H 0.47234 0.61813 0.13241 0.0
H222 H 0.54691 0.58634 0.0797 0.0
H223 H 0.52742 0.54565 0.0383 0.0
C224 C 0.02753 0.54443 0.50345 0.0
Eu225 Eu 1.01442 0.52881 0.66787 0.0
C226 C 0.04761 0.56208 0.47367 0.0
C227 C 0.05603 0.58152 0.53373 0.0
C228 C 0.07947 0.59343 0.51824 0.0
C229 C 0.09501 0.58571 0.44349 0.0
C230 C 0.08522 0.56791 0.3788 0.0
C231 C 0.06169 0.55628 0.39375 0.0
C232 C 1.00827 0.56019 0.82188 0.0
C233 C 0.06177 0.5113 0.80655 0.0
C234 C 0.98982 0.48095 0.01525 0.0
Eu235 Eu 1.00204 0.49497 0.84773 0.0
C236 C 0.96589 0.48525 0.06643 0.0
C237 C 0.94466 0.46958 0.04809 0.0
C238 C 0.92019 0.47845 0.06672 0.0
C239 C 0.91689 0.50269 0.1056 0.0
C240 C 0.93796 0.51681 0.1357 0.0
C241 C 0.96248 0.50801 0.11692 0.0
C242 C 1.01164 0.46372 0.69653 0.0
C243 C 0.95475 0.51258 0.71015 0.0
O244 O 0.03607 0.52317 0.54046 0.0
O245 O 1.00846 0.5544 0.55011 0.0
O246 O 1.01414 0.568 0.7388 0.0
O247 O 1.00609 0.53608 0.81698 0.0
O248 O 0.05476 0.52218 0.72642 0.0
O249 O 0.04497 0.50043 0.86365 0.0
O250 O 1.00349 0.50138 0.9977 0.0
O251 O 0.98795 0.46595 0.94263 0.0
O252 O 1.00729 0.45573 0.78051 0.0
O253 O 1.01147 0.4879 0.69953 0.0
O254 O 0.96158 0.50513 0.79565 0.0
O255 O 0.97211 0.5196 0.64747 0.0
H256 H 0.04541 0.58625 0.59618 0.0
H257 H 0.08614 0.60741 0.56825 0.0
H258 H 0.09662 0.56112 0.32091 0.0
H259 H 0.05554 0.5412 0.34713 0.0
H260 H 0.94673 0.4516 0.01148 0.0
H261 H 0.90388 0.46725 0.04479 0.0
H262 H 0.93538 0.53536 0.16784 0.0
H263 H 0.97856 0.52007 0.1343 0.0
C264 C 0.15629 0.99701 0.25141 0.0
C265 C 0.17769 1.01307 0.25939 0.0
C266 C 0.13632 0.99717 0.31773 0.0
C267 C 0.13724 1.01407 0.39499 0.0
C268 C 0.15857 0.0308 0.40265 0.0
C269 C 0.17841 0.03018 0.33502 0.0
C270 C 0.11431 0.97889 0.30541 0.0
C271 C 0.16056 0.04924 0.48309 0.0
C272 C 0.07512 0.02535 0.53647 0.0
C273 C 0.07876 1.00942 0.61419 0.0
C274 C 0.09399 0.02742 0.46542 0.0
C275 C 0.1169 1.01284 0.47066 0.0
C276 C 0.1202 0.99633 0.54815 0.0
C277 C 0.10144 0.9951 0.61865 0.0
C278 C 0.08961 0.04558 0.38543 0.0
C279 C 0.14368 0.97979 0.55675 0.0
H280 H 0.15523 0.98405 0.19256 0.0
H281 H 0.19448 0.04304 0.34176 0.0
H282 H 0.11226 0.96666 0.3682 0.0
H283 H 0.09628 0.98976 0.29745 0.0
H284 H 0.11675 0.96635 0.24356 0.0
H285 H 0.17739 0.06202 0.4768 0.0
H286 H 0.14308 0.06113 0.48725 0.0
H287 H 0.16204 0.03848 0.54953 0.0
H288 H 0.05791 0.03675 0.53253 0.0
H289 H 0.10455 0.98266 0.67803 0.0
H290 H 0.08979 0.03496 0.31853 0.0
H291 H 0.10531 0.05978 0.3824 0.0
H292 H 0.07119 0.05593 0.39172 0.0
H293 H 0.1454 0.96721 0.49476 0.0
H294 H 0.14329 0.96762 0.62023 0.0
H295 H 0.16099 0.99194 0.559 0.0
C296 C 0.48427 0.17164 0.25467 0.0
C297 C 0.50768 0.18238 0.2272 0.0
C298 C 0.48295 0.15219 0.32358 0.0
C299 C 0.50557 0.14288 0.36639 0.0
C300 C 0.52923 0.15369 0.33858 0.0
C301 C 0.52997 0.17313 0.26996 0.0
C302 C 0.45725 0.14155 0.3505 0.0
C303 C 0.55392 0.14468 0.38137 0.0
C304 C 0.50359 0.11365 0.61189 0.0
C305 C 0.50609 0.08722 0.5958 0.0
C306 C 0.50273 0.13157 0.53846 0.0
C307 C 0.50453 0.12327 0.44465 0.0
C308 C 0.50649 0.0965 0.4273 0.0
C309 C 0.50719 0.07882 0.50281 0.0
C310 C 0.50054 0.15963 0.56181 0.0
C311 C 0.50853 0.08657 0.32891 0.0
H312 H 0.46698 0.17821 0.22104 0.0
H313 H 0.54823 0.18087 0.24856 0.0
H314 H 0.457 0.12055 0.33969 0.0
H315 H 0.45366 0.14502 0.42569 0.0
H316 H 0.44149 0.15022 0.30962 0.0
H317 H 0.57081 0.15429 0.35039 0.0
H318 H 0.55375 0.14844 0.4575 0.0
H319 H 0.55597 0.12374 0.37183 0.0
H320 H 0.50269 0.12055 0.68308 0.0
H321 H 0.50929 0.05857 0.48907 0.0
H322 H 0.48409 0.16819 0.5246 0.0
H323 H 0.51792 0.16984 0.53811 0.0
H324 H 0.49811 0.16301 0.63777 0.0
H325 H 0.49267 0.09414 0.28589 0.0
H326 H 0.50816 0.06536 0.32606 0.0
H327 H 0.52658 0.09336 0.29701 0.0
C328 C 0.35801 0.53793 0.2651 0.0
C329 C 0.34622 0.51539 0.23349 0.0
C330 C 0.37697 0.53762 0.33519 0.0
C331 C 0.38478 0.51413 0.3757 0.0
C332 C 0.37302 0.49124 0.34384 0.0
C333 C 0.35411 0.49213 0.27315 0.0
C334 C 0.38879 0.56256 0.36559 0.0
C335 C 0.38056 0.46572 0.38413 0.0
C336 C 0.44876 0.51301 0.51043 0.0
C337 C 0.44074 0.51601 0.60333 0.0
C338 C 0.43093 0.5119 0.43594 0.0
C339 C 0.40428 0.5138 0.4541 0.0
C340 C 0.39621 0.51643 0.54803 0.0
C341 C 0.41436 0.51751 0.62066 0.0
C342 C 0.44066 0.50918 0.33746 0.0
C343 C 0.36826 0.51858 0.57199 0.0
H344 H 0.35263 0.55599 0.23376 0.0
H345 H 0.3457 0.47453 0.24788 0.0
H346 H 0.38532 0.56562 0.44108 0.0
H347 H 0.40974 0.56189 0.35522 0.0
H348 H 0.38105 0.57917 0.32653 0.0
H349 H 0.37007 0.44962 0.35135 0.0
H350 H 0.40132 0.46259 0.37445 0.0
H351 H 0.37677 0.4655 0.46025 0.0
H352 H 0.46901 0.51192 0.49572 0.0
H353 H 0.40777 0.51983 0.69181 0.0
H354 H 0.43591 0.52661 0.29701 0.0
H355 H 0.43117 0.49283 0.30251 0.0
H356 H 0.46162 0.50624 0.33488 0.0
H357 H 0.36011 0.53594 0.53899 0.0
H358 H 0.36491 0.51967 0.64838 0.0
H359 H 0.35771 0.50189 0.54395 0.0
C360 C 1.00708 0.35078 0.31549 0.0
C361 C 0.03136 0.34312 0.28478 0.0
C362 C 1.00363 0.37304 0.37039 0.0
C363 C 0.02497 0.38813 0.39686 0.0
C364 C 0.04935 0.38115 0.36218 0.0
C365 C 0.05223 0.35883 0.30747 0.0
C366 C 0.97723 0.37953 0.40479 0.0
C367 C 0.07277 0.39632 0.38786 0.0
C368 C 0.01508 0.45309 0.52228 0.0
C369 C 0.01672 0.44587 0.61647 0.0
C370 C 0.01778 0.43473 0.44967 0.0
C371 C 0.02243 0.40856 0.47147 0.0
C372 C 0.02465 0.40153 0.56654 0.0
C373 C 0.02168 0.42006 0.63691 0.0
C374 C 0.01517 0.44323 0.34972 0.0
C375 C 0.0299 0.3742 0.59455 0.0
H376 H 0.99082 0.33883 0.29979 0.0
H377 H 0.07116 0.35307 0.28565 0.0
H378 H 0.97597 0.37559 0.48068 0.0
H379 H 0.97324 0.40016 0.39451 0.0
H380 H 0.96228 0.36821 0.3687 0.0
H381 H 0.08964 0.39071 0.34568 0.0
H382 H 0.06931 0.41707 0.37829 0.0
H383 H 0.07728 0.39318 0.46257 0.0
H384 H 1.01103 0.47286 0.50539 0.0
H385 H 0.02308 0.41413 0.70916 0.0
H386 H 0.99841 0.43376 0.31764 0.0
H387 H 0.03219 0.43735 0.30905 0.0
H388 H 1.0128 0.46426 0.34355 0.0
H389 H 1.01433 0.36163 0.56931 0.0
H390 H 0.03156 0.37186 0.67129 0.0
H391 H 0.04786 0.36748 0.5618 0.0
C392 C 0.86365 0.05214 0.22951 0.0
C393 C 0.84712 0.03184 0.25213 0.0
C394 C 0.88482 0.0489 0.16934 0.0
C395 C 0.88988 0.0247 0.12849 0.0
C396 C 0.87388 1.00385 0.15389 0.0
C397 C 0.85273 1.00767 0.21436 0.0
C398 C 0.90089 0.0719 0.14519 0.0
C399 C 0.8784 0.97763 0.11361 0.0
C400 C 0.9205 0.02516 0.88485 0.0
C401 C 0.94635 0.01963 0.90187 0.0
C402 C 0.90227 0.02649 0.95714 0.0
C403 C 0.90961 0.02215 0.05093 0.0
C404 C 0.93571 0.01639 0.06915 0.0
C405 C 0.95372 1.01516 0.99472 0.0
C406 C 0.87502 0.03298 0.93276 0.0
C407 C 0.94462 1.01155 0.16744 0.0
H408 H 0.85942 0.07105 0.25627 0.0
H409 H 0.84016 0.99183 0.22974 0.0
H410 H 0.92147 0.06706 0.14761 0.0
H411 H 0.89648 0.07811 0.073 0.0
H412 H 0.89727 0.0882 0.19303 0.0
H413 H 0.86644 0.96283 0.14786 0.0
H414 H 0.87394 0.9778 0.03801 0.0
H415 H 0.89876 0.97222 0.12097 0.0
H416 H 0.91436 0.02872 0.81388 0.0
H417 H 0.97354 1.01097 0.0094 0.0
H418 H 0.86933 0.05095 0.96819 0.0
H419 H 0.86205 0.0177 0.95778 0.0
H420 H 0.87217 0.03542 0.85653 0.0
H421 H 0.93827 0.0272 0.21413 0.0
H422 H 0.9657 1.0098 0.17195 0.0
H423 H 0.93591 0.99361 0.19373 0.0
C424 C 0.4805 0.86404 0.18423 0.0
C425 C 0.49914 0.85644 0.24906 0.0
C426 C 0.48415 0.88496 0.12319 0.0
C427 C 0.50714 0.89925 0.12583 0.0
C428 C 0.52591 0.89213 0.19276 0.0
C429 C 0.52168 0.87102 0.25363 0.0
C430 C 0.46337 0.89151 0.05448 0.0
C431 C 0.55064 0.9067 0.19935 0.0
C432 C 0.52379 0.93191 0.89337 0.0
C433 C 0.51525 0.95718 0.9055 0.0
C434 C 0.52249 0.91355 0.96548 0.0
C435 C 0.51199 0.9201 0.05349 0.0
C436 C 0.50409 0.9459 0.06762 0.0
C437 C 0.50578 0.96407 0.99377 0.0
C438 C 0.53134 0.88664 0.94562 0.0
C439 C 0.49269 0.95407 0.15946 0.0
H440 H 0.4628 0.85338 0.18112 0.0
H441 H 0.53609 0.8659 0.30435 0.0
H442 H 0.4578 0.91186 0.06212 0.0
H443 H 0.47053 0.88892 0.98227 0.0
H444 H 0.44613 0.87944 0.06383 0.0
H445 H 0.56278 0.89986 0.25768 0.0
H446 H 0.56144 0.90468 0.13322 0.0
H447 H 0.54674 0.92736 0.20925 0.0
H448 H 0.53098 0.9262 0.8256 0.0
H449 H 0.49859 0.98328 1.00392 0.0
H450 H 0.51473 0.87351 0.94606 0.0
H451 H 0.54464 0.88008 1.00077 0.0
H452 H 0.54106 0.88501 0.87701 0.0
H453 H 0.47351 0.94539 0.16751 0.0
H454 H 0.49074 0.97517 0.16448 0.0
H455 H 0.50456 0.94721 0.21836 0.0
C456 C 0.6487 0.50844 0.28476 0.0
C457 C 0.67397 0.50965 0.25179 0.0
C458 C 0.62752 0.51209 0.22454 0.0
C459 C 0.63135 0.517 0.12795 0.0
C460 C 0.65687 0.51957 0.09558 0.0
C461 C 0.67767 0.51599 0.15741 0.0
C462 C 0.60096 0.50939 0.26378 0.0
C463 C 0.6623 0.52483 0.99407 0.0
C464 C 0.58183 0.49346 0.9492 0.0
C465 C 0.56921 0.51593 0.92131 0.0
C466 C 0.60139 0.49359 0.01697 0.0
C467 C 0.60912 0.51685 0.05927 0.0
C468 C 0.59618 0.53967 0.03262 0.0
C469 C 0.57648 0.53895 0.96434 0.0
C470 C 0.61422 0.46867 0.04175 0.0
C471 C 0.60323 0.56494 0.07594 0.0
H472 H 0.64546 0.50346 0.35718 0.0
H473 H 0.69698 0.51696 0.13067 0.0
H474 H 0.58851 0.52503 0.23827 0.0
H475 H 0.59255 0.49108 0.23981 0.0
H476 H 0.60091 0.50955 0.34123 0.0
H477 H 0.68287 0.52838 0.98078 0.0
H478 H 0.65617 0.50824 0.95148 0.0
H479 H 0.65125 0.54167 0.97004 0.0
H480 H 0.57654 0.47551 0.91677 0.0
H481 H 0.56722 0.55652 0.94303 0.0
H482 H 0.61276 0.46519 0.11787 0.0
H483 H 0.6348 0.4697 0.02413 0.0
H484 H 0.60574 0.45212 0.0045 0.0
H485 H 0.5973 0.565 0.15024 0.0
H486 H 0.59392 0.58129 0.04016 0.0
H487 H 0.62418 0.5678 0.07409 0.0
C488 C 0.02721 0.65559 0.26473 0.0
C489 C 1.00785 0.67419 0.27091 0.0
C490 C 0.02663 0.63583 0.19737 0.0
C491 C 1.00608 0.63416 0.13336 0.0
C492 C 0.98604 0.6524 0.14096 0.0
C493 C 0.98707 0.67199 0.20952 0.0
C494 C 0.04806 0.6166 0.19504 0.0
C495 C 0.9633 0.65103 0.07698 0.0
C496 C 0.01794 0.60261 0.89512 0.0
C497 C 1.00785 0.57782 0.90533 0.0
C498 C 0.01755 0.62068 0.96819 0.0
C499 C 1.00638 0.61441 0.05526 0.0
C500 C 0.99605 0.58936 0.0665 0.0
C501 C 0.99711 0.57136 0.99202 0.0
C502 C 0.02928 0.64666 0.95195 0.0
C503 C 0.98406 0.58119 0.15726 0.0
H504 H 0.04291 0.65641 0.31371 0.0
H505 H 0.97151 0.68551 0.21532 0.0
H506 H 0.04028 0.59707 0.20518 0.0
H507 H 0.05754 0.61701 0.12584 0.0
H508 H 0.0626 0.62025 0.24975 0.0
H509 H 0.94878 0.6658 0.09354 0.0
H510 H 0.96954 0.65358 1.00362 0.0
H511 H 0.95432 0.63186 0.08228 0.0
H512 H 0.02641 0.60802 0.82903 0.0
H513 H 0.98908 0.55246 1.00126 0.0
H514 H 0.04463 0.65011 1.00367 0.0
H515 H 0.0147 0.66177 0.96193 0.0
H516 H 0.03747 0.64863 0.88085 0.0
H517 H 0.99865 0.57142 0.20044 0.0
H518 H 0.96834 0.56746 0.14463 0.0
H519 H 0.97638 0.59756 0.1976 0.0
C520 C 0.95919 0.24631 0.35462 0.0
C521 C 0.95149 0.25285 0.26433 0.0
C522 C 0.94793 0.22547 0.40029 0.0
C523 C 0.92855 0.21153 0.35402 0.0
C524 C 0.91685 0.22213 0.27414 0.0
C525 C 0.92867 0.24277 0.22922 0.0
C526 C 0.96031 0.21548 0.4879 0.0
C527 C 0.89487 0.20892 0.22678 0.0
C528 C 0.94694 0.14215 0.33081 0.0
C529 C 0.93265 0.13056 0.40147 0.0
C530 C 0.94494 0.16826 0.31306 0.0
C531 C 0.9279 0.18337 0.3667 0.0
C532 C 0.9123 0.17161 0.43491 0.0
C533 C 0.91493 0.14524 0.45177 0.0
C534 C 0.96194 0.17964 0.23869 0.0
C535 C 0.89304 0.18672 0.49031 0.0
H536 H 0.97657 0.2545 0.38267 0.0
H537 H 0.92234 0.24835 0.16019 0.0
H538 H 0.94603 0.20674 0.5352 0.0
H539 H 0.97441 0.20052 0.46893 0.0
H540 H 0.97051 0.2309 0.52589 0.0
H541 H 0.88374 0.22254 0.1835 0.0
H542 H 0.90234 0.19369 0.18033 0.0
H543 H 0.88203 0.19988 0.2787 0.0
H544 H 0.96096 0.13107 0.29264 0.0
H545 H 0.90359 0.13622 0.50577 0.0
H546 H 0.97303 0.1959 0.26708 0.0
H547 H 0.95 0.18674 0.18046 0.0
H548 H 0.9757 0.16558 0.20994 0.0
H549 H 0.90073 0.20561 0.51133 0.0
H550 H 0.88676 0.17628 0.55377 0.0
H551 H 0.87605 0.19026 0.44614 0.0
C552 C 0.2854 0.95427 0.36151 0.0
C553 C 0.29304 0.97861 0.33209 0.0
C554 C 0.3022 0.93874 0.413 0.0
C555 C 0.32709 0.94781 0.43255 0.0
C556 C 0.33359 0.97351 0.41124 0.0
C557 C 0.31621 0.98867 0.36295 0.0
C558 C 0.2937 0.91248 0.44339 0.0
C559 C 0.35982 0.9844 0.43039 0.0
C560 C 0.38526 0.92941 0.55855 0.0
C561 C 0.40063 0.92387 0.48066 0.0
C562 C 0.35879 0.93208 0.54865 0.0
C563 C 0.34805 0.93016 0.4587 0.0
C564 C 0.36261 0.91923 0.38555 0.0
C565 C 0.38887 0.91587 0.39804 0.0
C566 C 0.34321 0.94116 0.63061 0.0
C567 C 0.35168 0.91558 0.28914 0.0
H568 H 0.26714 0.9468 0.33898 0.0
H569 H 0.32171 1.00776 0.34131 0.0
H570 H 0.30853 0.89789 0.42907 0.0
H571 H 0.29052 0.91267 0.51989 0.0
H572 H 0.27567 0.90662 0.40893 0.0
H573 H 0.36163 1.00462 0.40759 0.0
H574 H 0.36408 0.98358 0.50597 0.0
H575 H 0.37455 0.97306 0.3933 0.0
H576 H 0.39392 0.93482 0.6242 0.0
H577 H 0.40057 0.91019 0.33919 0.0
H578 H 0.32304 0.935 0.62412 0.0
H579 H 0.34362 0.96235 0.63372 0.0
H580 H 0.35116 0.93378 0.69715 0.0
H581 H 0.33237 0.90705 0.29262 0.0
H582 H 0.36399 0.90313 0.24538 0.0
H583 H 0.35002 0.93446 0.25429 0.0
C584 C 0.56489 0.28793 0.34837 0.0
C585 C 0.53859 0.29021 0.33449 0.0
C586 C 0.5783 0.30717 0.39571 0.0
C587 C 0.56499 0.32926 0.42521 0.0
C588 C 0.53795 0.32947 0.4238 0.0
C589 C 0.52503 0.30946 0.38016 0.0
C590 C 0.60693 0.30538 0.40207 0.0
C591 C 0.52275 0.35265 0.45297 0.0
C592 C 0.58664 0.39172 0.52721 0.0
C593 C 0.58739 0.40695 0.44636 0.0
C594 C 0.58267 0.36525 0.52132 0.0
C595 C 0.57845 0.35409 0.43303 0.0
C596 C 0.58208 0.36884 0.35108 0.0
C597 C 0.58717 0.39498 0.359 0.0
C598 C 0.5808 0.34961 0.60953 0.0
C599 C 0.57752 0.35788 0.25496 0.0
H600 H 0.5753 0.27284 0.31321 0.0
H601 H 0.50462 0.31099 0.36895 0.0
H602 H 0.61557 0.31325 0.33754 0.0
H603 H 0.61437 0.31639 0.4623 0.0
H604 H 0.61309 0.28514 0.40852 0.0
H605 H 0.5022 0.34813 0.46218 0.0
H606 H 0.53009 0.3607 0.51887 0.0
H607 H 0.52452 0.36763 0.3985 0.0
H608 H 0.58706 0.40059 0.59541 0.0
H609 H 0.58881 0.40644 0.29631 0.0
H610 H 0.59378 0.33291 0.6049 0.0
H611 H 0.56119 0.34201 0.61804 0.0
H612 H 0.58574 0.36091 0.67254 0.0
H613 H 0.58329 0.37128 0.19866 0.0
H614 H 0.55692 0.35364 0.24647 0.0
H615 H 0.58813 0.33976 0.24558 0.0
C616 C 0.22022 0.5318 0.38586 0.0
C617 C 0.23953 0.5453 0.34042 0.0
C618 C 0.20021 0.54485 0.42888 0.0
C619 C 0.20053 0.57197 0.43014 0.0
C620 C 0.22279 0.58516 0.40195 0.0
C621 C 0.24199 0.57163 0.35485 0.0
C622 C 0.17692 0.52972 0.45727 0.0
C623 C 0.22478 0.61382 0.40922 0.0
C624 C 0.13547 0.59309 0.3559 0.0
C625 C 0.12263 0.5921 0.44143 0.0
C626 C 0.16179 0.58905 0.35128 0.0
C627 C 0.17574 0.58551 0.43504 0.0
C628 C 0.16358 0.58924 0.52187 0.0
C629 C 0.13697 0.59196 0.52433 0.0
C630 C 0.1737 0.58493 0.25641 0.0
C631 C 0.17835 0.58785 0.61202 0.0
H632 H 0.21863 0.51135 0.37453 0.0
H633 H 0.25719 0.582 0.32017 0.0
H634 H 0.16931 0.53656 0.52464 0.0
H635 H 0.16177 0.53228 0.40405 0.0
H636 H 0.18108 0.50897 0.46361 0.0
H637 H 0.245 0.61982 0.4167 0.0
H638 H 0.21723 0.6227 0.34468 0.0
H639 H 0.21365 0.62123 0.46924 0.0
H640 H 0.12461 0.59439 0.29179 0.0
H641 H 0.12741 0.59165 0.59129 0.0
H642 H 0.17757 0.56425 0.24679 0.0
H643 H 0.19204 0.59526 0.25019 0.0
H644 H 0.16101 0.59128 0.19889 0.0
H645 H 0.18618 0.56836 0.62217 0.0
H646 H 0.16637 0.59275 0.67338 0.0
H647 H 0.19482 0.60114 0.60906 0.0
C648 C 0.0327 0.80064 0.11208 0.0
C649 C 0.04382 0.78066 0.16197 0.0
C650 C 0.04779 0.81727 0.0597 0.0
C651 C 0.07457 0.81329 0.05657 0.0
C652 C 0.08495 0.79035 0.09244 0.0
C653 C 0.06942 0.77436 0.1469 0.0
C654 C 0.03546 0.84109 0.02044 0.0
C655 C 0.11286 0.78404 0.0828 0.0
C656 C 0.09597 0.87245 0.93954 0.0
C657 C 0.09525 0.88872 0.01738 0.0
C658 C 0.09421 0.8459 0.95107 0.0
C659 C 0.091 0.836 0.04194 0.0
C660 C 0.09562 0.85197 0.12014 0.0
C661 C 0.0979 0.87835 0.10659 0.0
C662 C 0.09191 0.82915 0.866 0.0
C663 C 0.09356 0.84207 0.21882 0.0
H664 H 1.01273 0.80507 0.12344 0.0
H665 H 0.07784 0.75851 0.18463 0.0
H666 H 0.04176 0.85807 0.06066 0.0
H667 H 0.04116 0.84396 0.94685 0.0
H668 H 1.0143 0.8402 0.02339 0.0
H669 H 0.11531 0.76326 0.06969 0.0
H670 H 0.12203 0.79489 0.02534 0.0
H671 H 0.12283 0.78849 0.14899 0.0
H672 H 0.09476 0.88053 0.87003 0.0
H673 H 0.09789 0.89093 0.16667 0.0
H674 H 0.07206 0.82979 0.83948 0.0
H675 H 0.09683 0.80899 0.88193 0.0
H676 H 0.10454 0.83624 0.8094 0.0
H677 H 0.07338 0.83735 0.23472 0.0
H678 H 0.10024 0.85632 0.27075 0.0
H679 H 0.10497 0.82441 0.22724 0.0
C680 C 0.72883 0.95142 0.21316 0.0
C681 C 0.74697 0.97103 0.20818 0.0
C682 C 0.70658 0.95297 0.15957 0.0
C683 C 0.70321 0.97429 0.10025 0.0
C684 C 0.72442 0.98973 0.07728 0.0
C685 C 0.74651 0.98769 0.13154 0.0
C686 C 0.68496 0.93486 0.18019 0.0
C687 C 0.72206 1.01182 0.01031 0.0
C688 C 0.6373 0.99121 0.01049 0.0
C689 C 0.62807 1.00627 0.08422 0.0
C690 C 0.66176 0.98046 0.01393 0.0
C691 C 0.67736 0.98541 0.09216 0.0
C692 C 0.66813 1.00106 0.16596 0.0
C693 C 0.64352 1.01106 0.16121 0.0
C694 C 0.67076 0.96421 0.9334 0.0
C695 C 0.68368 1.00674 0.25212 0.0
H696 H 0.72979 0.93774 0.26988 0.0
H697 H 0.76106 1.0023 0.12478 0.0
H698 H 0.6726 0.94327 0.23507 0.0
H699 H 0.67311 0.93162 0.11722 0.0
H700 H 0.69218 0.9162 0.20605 0.0
H701 H 0.74102 0.01799 0.98409 0.0
H702 H 0.70981 1.00673 0.95019 0.0
H703 H 0.71311 0.02824 0.04686 0.0
H704 H 0.62545 0.988 0.94969 0.0
H705 H 0.63621 0.02245 0.21848 0.0
H706 H 0.68324 0.94838 0.95712 0.0
H707 H 0.68189 0.97625 0.88444 0.0
H708 H 0.65444 0.95602 0.8941 0.0
H709 H 0.70369 1.01144 0.23426 0.0
H710 H 0.68356 0.98963 0.29766 0.0
H711 H 0.67576 0.02297 0.29279 0.0
C712 C 0.57468 0.73598 0.21005 0.0
C713 C 0.5547 0.75367 0.20379 0.0
C714 C 0.57287 0.71257 0.16331 0.0
C715 C 0.55116 0.70775 0.10772 0.0
C716 C 0.53505 0.72826 0.08206 0.0
C717 C 0.53713 0.7514 0.13067 0.0
C718 C 0.59138 0.69159 0.1878 0.0
C719 C 0.51247 0.72426 0.01872 0.0
C720 C 0.53705 0.63968 0.0327 0.0
C721 C 0.52206 0.63117 0.10765 0.0
C722 C 0.54636 0.66478 0.03003 0.0
C723 C 0.54082 0.68143 0.10495 0.0
C724 C 0.52546 0.67279 0.18049 0.0
C725 C 0.51633 0.64773 0.18072 0.0
C726 C 0.5623 0.67311 0.94778 0.0
C727 C 0.5191 0.68951 0.26318 0.0
H728 H 0.58891 0.7383 0.26423 0.0
H729 H 0.52215 0.76553 0.12318 0.0
H730 H 0.58323 0.67983 0.24499 0.0
H731 H 0.59481 0.67889 0.12718 0.0
H732 H 0.60989 0.69951 0.21194 0.0
H733 H 0.50617 0.74257 0.98697 0.0
H734 H 0.51695 0.71043 0.96244 0.0
H735 H 0.49637 0.71643 0.06013 0.0
H736 H 0.54105 0.62684 0.97517 0.0
H737 H 0.50478 0.64098 0.23846 0.0
H738 H 0.5585 0.66109 0.88548 0.0
H739 H 0.58277 0.67111 0.96573 0.0
H740 H 0.55881 0.6934 0.9294 0.0
H741 H 0.53577 0.6899 0.31059 0.0
H742 H 0.50251 0.68211 0.30314 0.0
H743 H 0.51463 0.70935 0.2419 0.0
C744 C 0.77499 0.54367 0.13713 0.0
C745 C 0.77564 0.56117 0.21119 0.0
C746 C 0.79718 0.53879 0.08578 0.0
C747 C 0.81962 0.55236 0.10874 0.0
C748 C 0.81794 0.57459 0.16452 0.0
C749 C 0.79543 0.57913 0.21434 0.0
C750 C 0.79784 0.51561 0.02331 0.0
C751 C 0.84115 0.59043 0.18689 0.0
C752 C 0.8754 0.51103 0.17938 0.0
C753 C 0.8918 0.51453 0.10445 0.0
C754 C 0.85158 0.52287 0.1803 0.0
C755 C 0.84431 0.53877 0.10419 0.0
C756 C 0.86089 0.54192 0.02728 0.0
C757 C 0.88463 0.52967 0.02847 0.0
C758 C 0.83496 0.5191 0.26526 0.0
C759 C 0.854 0.55866 0.94541 0.0
H760 H 0.75918 0.53041 0.13125 0.0
H761 H 0.79534 0.59354 0.2687 0.0
H762 H 0.81216 0.51769 0.96692 0.0
H763 H 0.80309 0.49862 0.06555 0.0
H764 H 0.77885 0.51199 0.99174 0.0
H765 H 0.83571 0.61007 0.20858 0.0
H766 H 0.85163 0.58138 0.24545 0.0
H767 H 0.85425 0.59161 0.12634 0.0
H768 H 0.88141 0.49929 0.23775 0.0
H769 H 0.89774 0.5321 0.9706 0.0
H770 H 0.81473 0.51619 0.24594 0.0
H771 H 0.83639 0.53637 0.30964 0.0
H772 H 0.84114 0.50246 0.30778 0.0
H773 H 0.83448 0.55437 0.92033 0.0
H774 H 0.86759 0.55631 0.88657 0.0
H775 H 0.85424 0.57898 0.96727 0.0
C776 C 0.03294 0.21072 0.02682 0.0
C777 C 1.00944 0.22343 0.01825 0.0
C778 C 0.03685 0.18607 0.98725 0.0
C779 C 0.01667 0.17336 0.93962 0.0
C780 C 0.99347 0.1868 0.92658 0.0
C781 C 0.9904 0.21156 0.96403 0.0
C782 C 0.06225 0.17311 1.00041 0.0
C783 C 0.97108 0.17436 0.87851 0.0
C784 C 0.02458 0.11316 0.78603 0.0
C785 C 0.01849 0.09322 0.84801 0.0
C786 C 0.02534 0.13904 0.81566 0.0
C787 C 0.01887 0.14559 0.90897 0.0
C788 C 1.01265 0.12545 0.97158 0.0
C789 C 1.01297 0.09971 0.94099 0.0
C790 C 0.03289 0.15942 0.74658 0.0
C791 C 1.00441 0.13112 0.07023 0.0
H792 H 0.04778 0.21933 0.06888 0.0
H793 H 0.97218 0.2211 0.95609 0.0
H794 H 0.06022 0.15728 0.05134 0.0
H795 H 0.06889 0.16466 0.93368 0.0
H796 H 0.07702 0.18653 0.02647 0.0
H797 H 0.95471 0.18764 0.87028 0.0
H798 H 0.97672 0.16729 0.80862 0.0
H799 H 0.96467 0.15758 0.9197 0.0
H800 H 0.02905 0.10852 0.71421 0.0
H801 H 1.00794 0.08463 0.98949 0.0
H802 H 0.04774 0.17201 0.77705 0.0
H803 H 0.01619 0.1716 0.73014 0.0
H804 H 0.04027 0.15118 0.68046 0.0
H805 H 0.01831 0.14392 0.10499 0.0
H806 H 1.00224 0.1135 0.11275 0.0
H807 H 0.98581 0.14121 0.06868 0.0
C808 C 0.31585 0.04061 0.01464 0.0
C809 C 0.30369 0.01679 0.02287 0.0
C810 C 0.33943 0.04326 0.96662 0.0
C811 C 0.35167 0.02149 0.92719 0.0
C812 C 0.33849 0.9978 0.92967 0.0
C813 C 0.31483 0.99583 0.97654 0.0
C814 C 0.35203 0.06913 0.96343 0.0
C815 C 0.35042 0.97386 0.89039 0.0
C816 C 0.41121 0.02554 0.76766 0.0
C817 C 0.43139 0.02301 0.8316 0.0
C818 C 0.38537 0.02598 0.79746 0.0
C819 C 0.37919 0.02271 0.89339 0.0
C820 C 0.39957 0.01962 0.95769 0.0
C821 C 0.42518 0.02034 0.92649 0.0
C822 C 0.36466 0.03007 0.72608 0.0
C823 C 0.39435 1.01505 0.05988 0.0
H824 H 0.30792 0.05685 0.05155 0.0
H825 H 0.30598 0.9772 0.98383 0.0
H826 H 0.3681 0.0696 0.01365 0.0
H827 H 0.35999 0.07288 0.893 0.0
H828 H 0.33853 0.08471 0.98173 0.0
H829 H 0.33661 0.95779 0.8867 0.0
H830 H 0.35818 0.97733 0.81961 0.0
H831 H 0.36659 0.96799 0.93544 0.0
H832 H 0.41566 0.02778 0.69429 0.0
H833 H 0.44048 0.01811 0.97662 0.0
H834 H 0.35148 0.04537 0.7496 0.0
H835 H 0.35327 1.01236 0.71817 0.0
H836 H 0.37251 0.03536 0.65672 0.0
H837 H 0.38402 0.0316 0.08991 0.0
H838 H 0.41212 1.012 0.10051 0.0
H839 H 0.38195 0.99802 0.06843 0.0
C840 C 0.48859 0.31938 0.97823 0.0
C841 C 0.51195 0.31111 0.01574 0.0
C842 C 0.48651 0.34316 0.93043 0.0
C843 C 0.50805 0.35958 0.92158 0.0
C844 C 0.5319 0.35049 0.95416 0.0
C845 C 0.53358 0.32647 0.99872 0.0
C846 C 0.46095 0.35125 0.89273 0.0
C847 C 0.55554 0.36682 0.94691 0.0
C848 C 0.51015 0.41947 0.7622 0.0
C849 C 0.50396 0.43939 0.82418 0.0
C850 C 0.51107 0.39355 0.79169 0.0
C851 C 0.50557 0.38693 0.88589 0.0
C852 C 0.49926 0.407 0.94852 0.0
C853 C 0.49838 0.43265 0.91712 0.0
C854 C 0.51787 0.37342 0.72077 0.0
C855 C 0.49422 0.40149 0.05023 0.0
H856 H 0.47166 0.30801 0.99073 0.0
H857 H 0.55185 0.32036 0.02621 0.0
H858 H 0.4534 0.36736 0.93474 0.0
H859 H 0.46301 0.35811 0.81985 0.0
H860 H 0.44686 0.3354 0.89435 0.0
H861 H 0.5728 0.35686 0.97324 0.0
H862 H 0.55888 0.37243 0.87328 0.0
H863 H 0.55287 0.38464 0.98774 0.0
H864 H 0.51449 0.42411 0.69026 0.0
H865 H 0.49377 0.44759 0.96664 0.0
H866 H 0.50006 0.36578 0.68972 0.0
H867 H 0.52841 0.35719 0.75211 0.0
H868 H 0.52965 0.38166 0.66389 0.0
H869 H 0.47826 0.38772 0.05728 0.0
H870 H 0.48943 0.41902 0.09027 0.0
H871 H 0.51131 0.39253 0.08205 0.0
C872 C 0.20306 0.5406 0.00492 0.0
C873 C 0.21819 0.51879 0.02187 0.0
C874 C 0.17896 0.53909 0.96134 0.0
C875 C 0.16953 0.51522 0.9297 0.0
C876 C 0.1857 0.49346 0.93853 0.0
C877 C 0.20957 0.49539 0.98534 0.0
C878 C 0.16287 0.56294 0.95464 0.0
C879 C 0.17723 0.46782 0.90215 0.0
C880 C 0.0965 0.50611 0.92863 0.0
C881 C 0.08956 0.51163 0.83591 0.0
C882 C 0.12219 0.50693 0.959 0.0
C883 C 0.14209 0.51296 0.89537 0.0
C884 C 0.13527 0.51836 0.80135 0.0
C885 C 0.1093 0.5177 0.77307 0.0
C886 C 0.12794 0.50203 0.06057 0.0
C887 C 0.15533 0.52455 0.72948 0.0
H888 H 0.2094 0.55889 0.03191 0.0
H889 H 0.22074 0.47832 0.99796 0.0
H890 H 0.15681 0.56615 0.88148 0.0
H891 H 0.14534 0.56056 0.9972 0.0
H892 H 0.17315 0.58021 0.97945 0.0
H893 H 0.19295 0.45359 0.9028 0.0
H894 H 0.16138 0.46045 0.94575 0.0
H895 H 0.16996 0.46976 0.82982 0.0
H896 H 0.0817 0.5016 0.97875 0.0
H897 H 0.10451 0.52186 0.70116 0.0
H898 H 0.13731 0.51905 0.09148 0.0
H899 H 0.14139 0.48579 0.06738 0.0
H900 H 0.1105 0.49764 0.10161 0.0
H901 H 0.17061 0.5368 0.75868 0.0
H902 H 0.14692 0.53438 0.66817 0.0
H903 H 0.16431 0.50651 0.70543 0.0
C904 C 0.98827 0.81508 0.49828 0.0
C905 C 1.01195 0.80455 0.47274 0.0
C906 C 0.98656 0.83918 0.54412 0.0
C907 C 1.00898 0.85358 0.56412 0.0
C908 C 0.0329 0.84225 0.54331 0.0
C909 C 0.03405 0.81809 0.49914 0.0
C910 C 0.96062 0.84982 0.56723 0.0
C911 C 0.05745 0.85637 0.56222 0.0
C912 C 1.00604 0.92745 0.56871 0.0
C913 C 1.00816 0.93338 0.66418 0.0
C914 C 1.00597 0.90184 0.53603 0.0
C915 C 1.00762 0.88107 0.59974 0.0
C916 C 1.00929 0.8869 0.69643 0.0
C917 C 1.00975 0.91273 0.72706 0.0
C918 C 1.00473 0.89705 0.43237 0.0
C919 C 1.01098 0.86585 0.76807 0.0
H920 H 0.97101 0.80522 0.47759 0.0
H921 H 0.0525 0.81038 0.47977 0.0
H922 H 0.96024 0.85694 0.64011 0.0
H923 H 0.95643 0.86628 0.52095 0.0
H924 H 0.94532 0.83534 0.55844 0.0
H925 H 0.07454 0.8446 0.54631 0.0
H926 H 0.05818 0.87396 0.51906 0.0
H927 H 0.05834 0.86236 0.63628 0.0
H928 H 1.00494 0.94292 0.51866 0.0
H929 H 1.01124 0.91668 0.80089 0.0
H930 H 0.98803 0.88487 0.41576 0.0
H931 H 0.02203 0.88656 0.40946 0.0
H932 H 1.00329 0.91504 0.39158 0.0
H933 H 0.99664 0.85076 0.75361 0.0
H934 H 1.00802 0.8731 0.84009 0.0
H935 H 0.03008 0.85681 0.76462 0.0
C936 C 0.71102 0.03422 0.49561 0.0
C937 C 0.72442 1.01103 0.50359 0.0
C938 C 0.68617 0.03738 0.53416 0.0
C939 C 0.67387 0.0168 0.58135 0.0
C940 C 0.68792 0.99382 0.59353 0.0
C941 C 0.71269 0.99127 0.55491 0.0
C942 C 0.6725 0.06239 0.51969 0.0
C943 C 0.67609 0.97107 0.64159 0.0
C944 C 0.6124 0.02633 0.72919 0.0
C945 C 0.59279 0.01958 0.66664 0.0
C946 C 0.63857 0.02585 0.70266 0.0
C947 C 0.64584 0.01835 0.61095 0.0
C948 C 0.62612 1.01142 0.54783 0.0
C949 C 0.60017 1.01223 0.57596 0.0
C950 C 0.6585 0.03348 0.7731 0.0
C951 C 0.63239 1.00307 0.4497 0.0
H952 H 0.71927 0.04941 0.45397 0.0
H953 H 0.72237 0.97301 0.55977 0.0
H954 H 0.65724 0.05984 0.467 0.0
H955 H 0.66328 0.06875 0.58542 0.0
H956 H 0.68559 0.07765 0.49499 0.0
H957 H 0.69033 0.95593 0.65687 0.0
H958 H 0.66681 0.97687 0.70781 0.0
H959 H 0.66108 0.96285 0.59609 0.0
H960 H 0.60734 0.03207 0.79942 0.0
H961 H 0.58556 1.00695 0.5262 0.0
H962 H 0.66923 0.05031 0.74695 0.0
H963 H 0.67245 0.01777 0.78273 0.0
H964 H 0.65007 0.03827 0.84201 0.0
H965 H 0.64067 0.01937 0.41069 0.0
H966 H 0.61534 0.99618 0.41136 0.0
H967 H 0.64687 0.9876 0.4506 0.0
C968 C 0.5384 0.72415 0.56118 0.0
C969 C 0.51844 0.73519 0.5092 0.0
C970 C 0.53638 0.69944 0.60146 0.0
C971 C 0.51381 0.68474 0.59 0.0
C972 C 0.49307 0.69633 0.54187 0.0
C973 C 0.49567 0.72112 0.50186 0.0
C974 C 0.55927 0.68835 0.65058 0.0
C975 C 0.4685 0.68193 0.5276 0.0
C976 C 0.51962 0.61088 0.58766 0.0
C977 C 0.51167 0.60359 0.67772 0.0
C978 C 0.52036 0.63684 0.55894 0.0
C979 C 0.51286 0.6567 0.62092 0.0
C980 C 0.50497 0.64953 0.71233 0.0
C981 C 0.50443 0.62333 0.7393 0.0
C982 C 0.52895 0.6429 0.46098 0.0
C983 C 0.49695 0.66959 0.78194 0.0
H984 H 0.55642 0.73425 0.56499 0.0
H985 H 0.4804 0.72875 0.45926 0.0
H986 H 0.55363 0.68005 0.71868 0.0
H987 H 0.56737 0.67265 0.6078 0.0
H988 H 0.57438 0.70285 0.66255 0.0
H989 H 0.45303 0.69451 0.50133 0.0
H990 H 0.47161 0.66638 0.47624 0.0
H991 H 0.46219 0.67294 0.59382 0.0
H992 H 0.52522 0.59616 0.5386 0.0
H993 H 0.4983 0.61834 0.80915 0.0
H994 H 0.54327 0.65851 0.46114 0.0
H995 H 0.51234 0.64955 0.41995 0.0
H996 H 0.53728 0.62602 0.42521 0.0
H997 H 0.51254 0.68365 0.79217 0.0
H998 H 0.49191 0.66123 0.85076 0.0
H999 H 0.48024 0.68023 0.7547 0.0
C1000 C 0.80886 0.49995 0.5043 0.0
C1001 C 0.7955 0.52318 0.51271 0.0
C1002 C 0.8335 0.49647 0.54423 0.0
C1003 C 0.84569 0.51674 0.59344 0.0
C1004 C 0.83169 0.53977 0.60571 0.0
C1005 C 0.80713 0.54266 0.56553 0.0
C1006 C 0.84713 0.47147 0.52881 0.0
C1007 C 0.84337 0.56221 0.65591 0.0
C1008 C 0.90683 0.5061 0.74302 0.0
C1009 C 0.92667 0.51322 0.68173 0.0
C1010 C 0.88069 0.50684 0.71561 0.0
C1011 C 0.87366 0.51492 0.62424 0.0
C1012 C 0.89361 0.52213 0.56238 0.0
C1013 C 0.91948 0.52114 0.59139 0.0
C1014 C 0.86054 0.49879 0.78469 0.0
C1015 C 0.88764 0.53111 0.46472 0.0
H1016 H 0.80077 0.48501 0.46119 0.0
H1017 H 0.79757 0.56098 0.57047 0.0
H1018 H 0.86262 0.47422 0.47703 0.0
H1019 H 0.85604 0.46475 0.59455 0.0
H1020 H 0.83408 0.4564 0.50246 0.0
H1021 H 0.8292 0.57749 0.67023 0.0
H1022 H 0.85192 0.55603 0.72283 0.0
H1023 H 0.85892 0.57036 0.6126 0.0
H1024 H 0.91169 0.49991 0.81289 0.0
H1025 H 0.9342 0.52675 0.54245 0.0
H1026 H 0.86871 0.49399 0.85396 0.0
H1027 H 0.85024 0.48183 0.75753 0.0
H1028 H 0.84627 0.51424 0.79377 0.0
H1029 H 0.8781 0.51559 0.42538 0.0
H1030 H 0.905 0.53698 0.42577 0.0
H1031 H 0.87426 0.54753 0.46711 0.0
loop_
_geom_bond_atom_site_label_1
_geom_bond_atom_site_label_2
_geom_bond_distance
_geom_bond_site_symmetry_2
_ccdc_geom_bond_type
H0 C7 0.929 . S
H1 C10 0.930 . S
H2 C12 0.929 . S
H3 C4 0.969 . S
C4 H3 0.969 . S
C4 O5 1.550 . S
C4 H6 0.973 . S
O5 C4 1.550 . S
O5 C11 1.412 . S
H6 C4 0.973 . S
C7 H0 0.929 . S
C7 C8 1.400 . S
C7 C9 1.364 . S
C8 C7 1.400 . S
C8 C12 1.377 . S
C9 C7 1.364 . S
C9 C10 1.374 . S
C10 H1 0.930 . S
C10 C9 1.374 . S
C10 C11 1.383 . S
C11 O5 1.412 . S
C11 C10 1.383 . S
C11 C12 1.394 . S
C12 H2 0.929 . S
C12 C8 1.377 . S
C12 C11 1.394 . S
H13 C20 0.928 1_655 S
H14 C23 0.930 . S
H15 C25 0.928 1_655 S
H16 C17 0.969 . S
C17 H16 0.969 . S
C17 O18 1.550 1_455 S
C17 H19 0.973 1_455 S
O18 C17 1.550 1_655 S
O18 C24 1.405 1_655 S
H19 C17 0.973 1_655 S
C20 H13 0.928 1_455 S
C20 C21 1.399 . S
C20 C22 1.364 . S
C21 C20 1.399 . S
C21 C25 1.377 . S
C22 C20 1.364 . S
C22 C23 1.374 1_455 S
C23 H14 0.930 . S
C23 C22 1.374 1_655 S
C23 C24 1.382 1_655 S
C24 O18 1.405 1_455 S
C24 C23 1.382 1_455 S
C24 C25 1.394 . S
C25 H15 0.928 1_455 S
C25 C21 1.377 . S
C25 C24 1.394 . S
H26 C33 0.928 1_565 S
H27 C36 0.929 . S
H28 C38 0.928 1_565 S
H29 C30 0.969 . S
C30 H29 0.969 . S
C30 O31 1.550 1_545 S
C30 H32 0.973 1_545 S
O31 C30 1.550 1_565 S
O31 C37 1.405 1_565 S
H32 C30 0.973 1_565 S
C33 H26 0.928 1_545 S
C33 C34 1.399 . S
C33 C35 1.364 . S
C34 C33 1.399 . S
C34 C38 1.377 . S
C35 C33 1.364 . S
C35 C36 1.374 1_545 S
C36 H27 0.929 . S
C36 C35 1.374 1_565 S
C36 C37 1.382 1_565 S
C37 O31 1.405 1_545 S
C37 C36 1.382 1_545 S
C37 C38 1.394 . S
C38 H28 0.928 1_545 S
C38 C34 1.377 . S
C38 C37 1.394 . S
H39 C46 0.929 . S
H40 C49 0.930 . S
H41 C51 0.929 . S
H42 C43 0.969 . S
C43 H42 0.969 . S
C43 O44 1.550 . S
C43 H45 0.973 . S
O44 C43 1.550 . S
O44 C50 1.412 . S
H45 C43 0.973 . S
C46 H39 0.929 . S
C46 C47 1.400 . S
C46 C48 1.364 . S
C47 C46 1.400 . S
C47 C51 1.377 . S
C48 C46 1.364 . S
C48 C49 1.374 . S
C49 H40 0.930 . S
C49 C48 1.374 . S
C49 C50 1.383 . S
C50 O44 1.412 . S
C50 C49 1.383 . S
C50 C51 1.394 . S
C51 H41 0.929 . S
C51 C47 1.377 . S
C51 C50 1.394 . S
H52 C59 0.929 . S
H53 C62 0.930 . S
H54 C64 0.929 . S
H55 C56 0.969 . S
C56 H55 0.969 . S
C56 O57 1.550 . S
C56 H58 0.973 . S
O57 C56 1.550 . S
O57 C63 1.412 . S
H58 C56 0.973 . S
C59 H52 0.929 . S
C59 C60 1.400 1_554 S
C59 C61 1.364 . S
C60 C59 1.400 1_556 S
C60 C64 1.377 . S
C61 C59 1.364 . S
C61 C62 1.374 . S
C62 H53 0.930 . S
C62 C61 1.374 . S
C62 C63 1.383 . S
C63 O57 1.412 . S
C63 C62 1.383 . S
C63 C64 1.394 1_554 S
C64 H54 0.929 . S
C64 C60 1.377 . S
C64 C63 1.394 1_556 S
H65 C72 0.928 1_655 S
H66 C75 0.930 . S
H67 C77 0.928 1_655 S
H68 C69 0.969 . S
C69 H68 0.969 . S
C69 O70 1.550 1_455 S
C69 H71 0.973 1_455 S
O70 C69 1.550 1_655 S
O70 C76 1.402 1_655 S
H71 C69 0.973 1_655 S
C72 H65 0.928 1_455 S
C72 C73 1.400 1_554 S
C72 C74 1.364 . S
C73 C72 1.400 1_556 S
C73 C77 1.377 . S
C74 C72 1.364 . S
C74 C75 1.374 1_455 S
C75 H66 0.930 . S
C75 C74 1.374 1_655 S
C75 C76 1.382 1_655 S
C76 O70 1.402 1_455 S
C76 C75 1.382 1_455 S
C76 C77 1.394 1_554 S
C77 H67 0.928 1_455 S
C77 C73 1.377 . S
C77 C76 1.394 1_556 S
H78 C85 0.928 1_565 S
H79 C88 0.930 . S
H80 C90 0.928 1_565 S
H81 C82 0.969 . S
C82 H81 0.969 . S
C82 O83 1.550 1_545 S
C82 H84 0.973 1_545 S
O83 C82 1.550 1_565 S
O83 C89 1.402 1_565 S
H84 C82 0.973 1_565 S
C85 H78 0.928 1_545 S
C85 C86 1.400 1_554 S
C85 C87 1.364 . S
C86 C85 1.400 1_556 S
C86 C90 1.377 . S
C87 C85 1.364 . S
C87 C88 1.374 1_545 S
C88 H79 0.930 . S
C88 C87 1.374 1_565 S
C88 C89 1.382 1_565 S
C89 O83 1.402 1_545 S
C89 C88 1.382 1_545 S
C89 C90 1.394 1_554 S
C90 H80 0.928 1_545 S
C90 C86 1.377 . S
C90 C89 1.394 1_556 S
H91 C98 0.929 . S
H92 C101 0.930 . S
H93 C103 0.929 . S
H94 C95 0.969 . S
C95 H94 0.969 . S
C95 O96 1.550 . S
C95 H97 0.973 . S
O96 C95 1.550 . S
O96 C102 1.412 . S
H97 C95 0.973 . S
C98 H91 0.929 . S
C98 C99 1.400 1_554 S
C98 C100 1.364 . S
C99 C98 1.400 1_556 S
C99 C103 1.377 . S
C100 C98 1.364 . S
C100 C101 1.374 . S
C101 H92 0.930 . S
C101 C100 1.374 . S
C101 C102 1.383 . S
C102 O96 1.412 . S
C102 C101 1.383 . S
C102 C103 1.394 1_554 S
C103 H93 0.929 . S
C103 C99 1.377 . S
C103 C102 1.394 1_556 S
C104 Eu105 2.835 . S
C104 C106 1.500 . S
C104 O124 1.257 . S
C104 O125 1.260 . S
Eu105 C104 2.835 . S
Eu105 O124 2.473 . S
Eu105 O125 2.480 . S
Eu105 O126 2.430 . S
Eu105 O127 2.670 1_545 S
Eu105 O128 2.394 . S
Eu105 O133 2.355 1_655 S
Eu105 O135 2.374 1_545 S
C106 C104 1.500 . S
C106 C107 1.377 . S
C106 C111 1.377 . S
C107 C106 1.377 . S
C107 C108 1.395 . S
C107 H136 0.931 . S
C108 C107 1.395 . S
C108 C109 1.383 . S
C108 H137 0.931 . S
C109 C108 1.383 . S
C109 C110 1.394 . S
C110 C109 1.394 . S
C110 C111 1.378 . S
C110 H138 0.931 1_655 S
C111 C106 1.377 . S
C111 C110 1.378 . S
C111 H139 0.931 1_655 S
C112 O126 1.259 . S
C112 O127 1.270 1_545 S
C113 O128 1.251 1_455 S
C113 O129 1.251 . S
C114 Eu115 2.835 . S
C114 C116 1.500 . S
C114 O130 1.257 . S
C114 O131 1.260 . S
Eu115 C114 2.835 . S
Eu115 O127 2.355 1_455 S
Eu115 O129 2.374 1_565 S
Eu115 O130 2.473 . S
Eu115 O131 2.480 . S
Eu115 O132 2.430 . S
Eu115 O133 2.670 1_565 S
Eu115 O134 2.394 . S
C116 C114 1.500 . S
C116 C117 1.377 . S
C116 C121 1.377 1_556 S
C117 C116 1.377 . S
C117 C118 1.395 1_556 S
C117 H140 0.931 . S
C118 C117 1.395 1_554 S
C118 C119 1.383 . S
C118 H141 0.931 . S
C119 C118 1.383 . S
C119 C120 1.394 . S
C120 C119 1.394 . S
C120 C121 1.378 . S
C120 H142 0.931 1_455 S
C121 C116 1.377 1_554 S
C121 C120 1.378 . S
C121 H143 0.931 1_455 S
C122 O132 1.282 . S
C122 O133 1.253 1_565 S
C123 O134 1.251 1_655 S
C123 O135 1.251 . S
O124 C104 1.257 . S
O124 Eu105 2.473 . S
O125 C104 1.260 . S
O125 Eu105 2.480 . S
O126 Eu105 2.430 . S
O126 C112 1.259 . S
O127 Eu105 2.670 1_565 S
O127 C112 1.270 1_565 S
O127 Eu115 2.355 1_655 S
O128 Eu105 2.394 . S
O128 C113 1.251 1_655 S
O129 C113 1.251 . S
O129 Eu115 2.374 1_545 S
O130 C114 1.257 . S
O130 Eu115 2.473 . S
O131 C114 1.260 . S
O131 Eu115 2.480 . S
O132 Eu115 2.430 . S
O132 C122 1.282 . S
O133 Eu105 2.355 1_455 S
O133 Eu115 2.670 1_545 S
O133 C122 1.253 1_545 S
O134 Eu115 2.394 . S
O134 C123 1.251 1_455 S
O135 Eu105 2.374 1_565 S
O135 C123 1.251 . S
H136 C107 0.931 . S
H137 C108 0.931 . S
H138 C110 0.931 1_455 S
H139 C111 0.931 1_455 S
H140 C117 0.931 . S
H141 C118 0.931 . S
H142 C120 0.931 1_655 S
H143 C121 0.931 1_655 S
C144 Eu145 2.835 . S
C144 C146 1.500 . S
C144 O164 1.257 . S
C144 O165 1.260 . S
Eu145 C144 2.835 . S
Eu145 O164 2.473 . S
Eu145 O165 2.480 . S
Eu145 O166 2.430 . S
Eu145 O167 2.670 . S
Eu145 O168 2.394 . S
Eu145 O173 2.355 1_565 S
Eu145 O175 2.374 . S
C146 C144 1.500 . S
C146 C147 1.377 . S
C146 C151 1.377 . S
C147 C146 1.377 . S
C147 C148 1.395 . S
C147 H176 0.931 . S
C148 C147 1.395 . S
C148 C149 1.383 . S
C148 H177 0.931 . S
C149 C148 1.383 . S
C149 C150 1.394 . S
C150 C149 1.394 . S
C150 C151 1.378 . S
C150 H178 0.931 1_565 S
C151 C146 1.377 . S
C151 C150 1.378 . S
C151 H179 0.931 1_565 S
C152 O166 1.259 . S
C152 O167 1.270 . S
C153 O168 1.251 1_545 S
C153 O169 1.251 . S
C154 Eu155 2.835 . S
C154 C156 1.500 . S
C154 O170 1.257 . S
C154 O171 1.260 . S
Eu155 C154 2.835 . S
Eu155 O167 2.355 1_545 S
Eu155 O169 2.374 . S
Eu155 O170 2.473 . S
Eu155 O171 2.480 . S
Eu155 O172 2.430 . S
Eu155 O173 2.670 . S
Eu155 O174 2.394 . S
C156 C154 1.500 . S
C156 C157 1.377 . S
C156 C161 1.377 1_556 S
C157 C156 1.377 . S
C157 C158 1.395 1_556 S
C157 H180 0.931 . S
C158 C157 1.395 1_554 S
C158 C159 1.383 . S
C158 H181 0.931 . S
C159 C158 1.383 . S
C159 C160 1.394 . S
C160 C159 1.394 . S
C160 C161 1.378 . S
C160 H182 0.931 1_545 S
C161 C156 1.377 1_554 S
C161 C160 1.378 . S
C161 H183 0.931 1_545 S
C162 O172 1.259 . S
C162 O173 1.270 . S
C163 O174 1.251 1_565 S
C163 O175 1.251 . S
O164 C144 1.257 . S
O164 Eu145 2.473 . S
O165 C144 1.260 . S
O165 Eu145 2.480 . S
O166 Eu145 2.430 . S
O166 C152 1.259 . S
O167 Eu145 2.670 . S
O167 C152 1.270 . S
O167 Eu155 2.355 1_565 S
O168 Eu145 2.394 . S
O168 C153 1.251 1_565 S
O169 C153 1.251 . S
O169 Eu155 2.374 . S
O170 C154 1.257 . S
O170 Eu155 2.473 . S
O171 C154 1.260 . S
O171 Eu155 2.480 . S
O172 Eu155 2.430 . S
O172 C162 1.259 . S
O173 Eu145 2.355 1_545 S
O173 Eu155 2.670 . S
O173 C162 1.270 . S
O174 Eu155 2.394 . S
O174 C163 1.251 1_545 S
O175 Eu145 2.374 . S
O175 C163 1.251 . S
H176 C147 0.931 . S
H177 C148 0.931 . S
H178 C150 0.931 1_545 S
H179 C151 0.931 1_545 S
H180 C157 0.931 . S
H181 C158 0.931 . S
H182 C160 0.931 1_565 S
H183 C161 0.931 1_565 S
C184 Eu185 2.835 . S
C184 C186 1.500 . S
C184 O204 1.257 . S
C184 O205 1.260 . S
Eu185 C184 2.835 . S
Eu185 O204 2.473 . S
Eu185 O205 2.480 . S
Eu185 O206 2.430 . S
Eu185 O207 2.670 . S
Eu185 O208 2.394 . S
Eu185 O213 2.355 . S
Eu185 O215 2.374 . S
C186 C184 1.500 . S
C186 C187 1.377 . S
C186 C191 1.377 . S
C187 C186 1.377 . S
C187 C188 1.395 . S
C187 H216 0.931 . S
C188 C187 1.395 . S
C188 C189 1.383 . S
C188 H217 0.931 . S
C189 C188 1.383 . S
C189 C190 1.394 . S
C190 C189 1.394 . S
C190 C191 1.378 . S
C190 H218 0.931 . S
C191 C186 1.377 . S
C191 C190 1.378 . S
C191 H219 0.931 . S
C192 O206 1.259 . S
C192 O207 1.270 . S
C193 O208 1.251 . S
C193 O209 1.251 . S
C194 Eu195 2.835 . S
C194 C196 1.500 . S
C194 O210 1.257 . S
C194 O211 1.260 . S
Eu195 C194 2.835 . S
Eu195 O207 2.355 . S
Eu195 O209 2.374 . S
Eu195 O210 2.473 . S
Eu195 O211 2.480 . S
Eu195 O212 2.430 . S
Eu195 O213 2.670 . S
Eu195 O214 2.394 . S
C196 C194 1.500 . S
C196 C197 1.378 . S
C196 C201 1.377 1_556 S
C197 C196 1.378 . S
C197 C198 1.390 1_556 S
C197 H220 0.935 . S
C198 C197 1.390 1_554 S
C198 C199 1.383 . S
C198 H221 0.931 . S
C199 C198 1.383 . S
C199 C200 1.394 . S
C200 C199 1.394 . S
C200 C201 1.378 . S
C200 H222 0.931 . S
C201 C196 1.377 1_554 S
C201 C200 1.378 . S
C201 H223 0.931 . S
C202 O212 1.259 . S
C202 O213 1.270 . S
C203 O214 1.251 . S
C203 O215 1.251 . S
O204 C184 1.257 . S
O204 Eu185 2.473 . S
O205 C184 1.260 . S
O205 Eu185 2.480 . S
O206 Eu185 2.430 . S
O206 C192 1.259 . S
O207 Eu185 2.670 . S
O207 C192 1.270 . S
O207 Eu195 2.355 . S
O208 Eu185 2.394 . S
O208 C193 1.251 . S
O209 C193 1.251 . S
O209 Eu195 2.374 . S
O210 C194 1.257 . S
O210 Eu195 2.473 . S
O211 C194 1.260 . S
O211 Eu195 2.480 . S
O212 Eu195 2.430 . S
O212 C202 1.259 . S
O213 Eu185 2.355 . S
O213 Eu195 2.670 . S
O213 C202 1.270 . S
O214 Eu195 2.394 . S
O214 C203 1.251 . S
O215 Eu185 2.374 . S
O215 C203 1.251 . S
H216 C187 0.931 . S
H217 C188 0.931 . S
H218 C190 0.931 . S
H219 C191 0.931 . S
H220 C197 0.935 . S
H221 C198 0.931 . S
H222 C200 0.931 . S
H223 C201 0.931 . S
C224 Eu225 2.835 . S
C224 C226 1.500 . S
C224 O244 1.257 . S
C224 O245 1.260 . S
Eu225 C224 2.835 . S
Eu225 O244 2.473 . S
Eu225 O245 2.480 . S
Eu225 O246 2.430 . S
Eu225 O247 2.670 1_455 S
Eu225 O248 2.394 . S
Eu225 O253 2.355 . S
Eu225 O255 2.374 1_455 S
C226 C224 1.500 . S
C226 C227 1.377 . S
C226 C231 1.377 . S
C227 C226 1.377 . S
C227 C228 1.395 . S
C227 H256 0.931 . S
C228 C227 1.395 . S
C228 C229 1.383 . S
C228 H257 0.931 . S
C229 C228 1.383 . S
C229 C230 1.394 . S
C230 C229 1.394 . S
C230 C231 1.378 . S
C230 H258 0.931 . S
C231 C226 1.377 . S
C231 C230 1.378 . S
C231 H259 0.931 . S
C232 O246 1.269 . S
C232 O247 1.262 1_455 S
C233 O248 1.251 . S
C233 O249 1.251 . S
C234 Eu235 2.835 . S
C234 C236 1.500 . S
C234 O250 1.257 . S
C234 O251 1.260 . S
Eu235 C234 2.835 . S
Eu235 O247 2.355 . S
Eu235 O249 2.374 1_655 S
Eu235 O250 2.473 . S
Eu235 O251 2.480 . S
Eu235 O252 2.430 . S
Eu235 O253 2.670 1_655 S
Eu235 O254 2.394 . S
C236 C234 1.500 . S
C236 C237 1.377 . S
C236 C241 1.377 1_556 S
C237 C236 1.377 . S
C237 C238 1.395 1_556 S
C237 H260 0.931 . S
C238 C237 1.395 1_554 S
C238 C239 1.383 . S
C238 H261 0.931 . S
C239 C238 1.383 . S
C239 C240 1.394 . S
C240 C239 1.394 . S
C240 C241 1.378 . S
C240 H262 0.931 . S
C241 C236 1.377 1_554 S
C241 C240 1.378 . S
C241 H263 0.931 . S
C242 O252 1.265 . S
C242 O253 1.266 1_655 S
C243 O254 1.251 . S
C243 O255 1.251 . S
O244 C224 1.257 . S
O244 Eu225 2.473 . S
O245 C224 1.260 . S
O245 Eu225 2.480 . S
O246 Eu225 2.430 . S
O246 C232 1.269 . S
O247 Eu225 2.670 1_655 S
O247 C232 1.262 1_655 S
O247 Eu235 2.355 . S
O248 Eu225 2.394 . S
O248 C233 1.251 . S
O249 C233 1.251 . S
O249 Eu235 2.374 1_455 S
O250 C234 1.257 . S
O250 Eu235 2.473 . S
O251 C234 1.260 . S
O251 Eu235 2.480 . S
O252 Eu235 2.430 . S
O252 C242 1.265 . S
O253 Eu225 2.355 . S
O253 Eu235 2.670 1_455 S
O253 C242 1.266 1_455 S
O254 Eu235 2.394 . S
O254 C243 1.251 . S
O255 Eu225 2.374 1_655 S
O255 C243 1.251 . S
H256 C227 0.931 . S
H257 C228 0.931 . S
H258 C230 0.931 . S
H259 C231 0.931 . S
H260 C237 0.931 . S
H261 C238 0.931 . S
H262 C240 0.931 . S
H263 C241 0.931 . S
C264 C265 1.391 . S
C264 C266 1.394 . S
C264 H280 0.931 . S
C265 C264 1.391 . S
C265 C269 1.376 1_565 S
C266 C264 1.394 . S
C266 C267 1.369 . S
C266 C270 1.531 . S
C267 C266 1.369 . S
C267 C268 1.410 . S
C267 C275 1.503 . S
C268 C267 1.410 . S
C268 C269 1.393 1_565 S
C268 C271 1.510 1_565 S
C269 C265 1.376 1_545 S
C269 C268 1.393 1_545 S
C269 H281 0.928 . S
C270 C266 1.531 . S
C270 H282 0.960 . S
C270 H283 0.962 1_565 S
C270 H284 0.960 . S
C271 C268 1.510 1_545 S
C271 H285 0.972 . S
C271 H286 0.970 . S
C271 H287 0.942 1_545 S
C272 C273 1.350 1_545 S
C272 C274 1.363 . S
C272 H288 0.931 . S
C273 C272 1.350 1_565 S
C273 C277 1.431 . S
C274 C272 1.363 . S
C274 C275 1.370 1_545 S
C274 C278 1.524 . S
C275 C267 1.503 . S
C275 C274 1.370 1_565 S
C275 C276 1.403 . S
C276 C275 1.403 . S
C276 C277 1.404 . S
C276 C279 1.539 . S
C277 C273 1.431 . S
C277 C276 1.404 . S
C277 H289 0.930 . S
C278 C274 1.524 . S
C278 H290 0.956 . S
C278 H291 0.961 . S
C278 H292 0.961 . S
C279 C276 1.539 . S
C279 H293 0.958 . S
C279 H294 0.961 . S
C279 H295 0.960 . S
H280 C264 0.931 . S
H281 C269 0.928 . S
H282 C270 0.960 . S
H283 C270 0.962 1_545 S
H284 C270 0.960 . S
H285 C271 0.972 . S
H286 C271 0.970 . S
H287 C271 0.942 1_565 S
H288 C272 0.931 . S
H289 C277 0.930 . S
H290 C278 0.956 . S
H291 C278 0.961 . S
H292 C278 0.961 . S
H293 C279 0.958 . S
H294 C279 0.961 . S
H295 C279 0.960 . S
C296 C297 1.391 . S
C296 C298 1.394 . S
C296 H312 0.931 . S
C297 C296 1.391 . S
C297 C301 1.376 . S
C298 C296 1.394 . S
C298 C299 1.369 . S
C298 C302 1.531 . S
C299 C298 1.369 . S
C299 C300 1.410 . S
C299 C307 1.503 . S
C300 C299 1.410 . S
C300 C301 1.392 . S
C300 C303 1.511 . S
C301 C297 1.376 . S
C301 C300 1.392 . S
C301 H313 0.929 . S
C302 C298 1.531 . S
C302 H314 0.960 . S
C302 H315 0.962 . S
C302 H316 0.960 . S
C303 C300 1.511 . S
C303 H317 0.961 . S
C303 H318 0.961 . S
C303 H319 0.961 . S
C304 C305 1.370 . S
C304 C306 1.363 . S
C304 H320 0.931 . S
C305 C304 1.370 . S
C305 C309 1.408 . S
C306 C304 1.363 . S
C306 C307 1.370 . S
C306 C310 1.524 . S
C307 C299 1.503 . S
C307 C306 1.370 . S
C307 C308 1.403 . S
C308 C307 1.403 . S
C308 C309 1.404 . S
C308 C311 1.539 . S
C309 C305 1.408 . S
C309 C308 1.404 . S
C309 H321 0.930 . S
C310 C306 1.524 . S
C310 H322 0.956 . S
C310 H323 0.961 . S
C310 H324 0.961 . S
C311 C308 1.539 . S
C311 H325 0.958 . S
C311 H326 0.961 . S
C311 H327 0.960 . S
H312 C296 0.931 . S
H313 C301 0.929 . S
H314 C302 0.960 . S
H315 C302 0.962 . S
H316 C302 0.960 . S
H317 C303 0.961 . S
H318 C303 0.961 . S
H319 C303 0.961 . S
H320 C304 0.931 . S
H321 C309 0.930 . S
H322 C310 0.956 . S
H323 C310 0.961 . S
H324 C310 0.961 . S
H325 C311 0.958 . S
H326 C311 0.961 . S
H327 C311 0.960 . S
C328 C329 1.391 . S
C328 C330 1.394 . S
C328 H344 0.931 . S
C329 C328 1.391 . S
C329 C333 1.376 . S
C330 C328 1.394 . S
C330 C331 1.369 . S
C330 C334 1.531 . S
C331 C330 1.369 . S
C331 C332 1.410 . S
C331 C339 1.503 . S
C332 C331 1.410 . S
C332 C333 1.392 . S
C332 C335 1.511 . S
C333 C329 1.376 . S
C333 C332 1.392 . S
C333 H345 0.929 . S
C334 C330 1.531 . S
C334 H346 0.960 . S
C334 H347 0.962 . S
C334 H348 0.960 . S
C335 C332 1.511 . S
C335 H349 0.961 . S
C335 H350 0.961 . S
C335 H351 0.961 . S
C336 C337 1.370 . S
C336 C338 1.363 . S
C336 H352 0.931 . S
C337 C336 1.370 . S
C337 C341 1.408 . S
C338 C336 1.363 . S
C338 C339 1.370 . S
C338 C342 1.524 . S
C339 C331 1.503 . S
C339 C338 1.370 . S
C339 C340 1.403 . S
C340 C339 1.403 . S
C340 C341 1.404 . S
C340 C343 1.539 . S
C341 C337 1.408 . S
C341 C340 1.404 . S
C341 H353 0.930 . S
C342 C338 1.524 . S
C342 H354 0.956 . S
C342 H355 0.961 . S
C342 H356 0.961 . S
C343 C340 1.539 . S
C343 H357 0.958 . S
C343 H358 0.961 . S
C343 H359 0.960 . S
H344 C328 0.931 . S
H345 C333 0.929 . S
H346 C334 0.960 . S
H347 C334 0.962 . S
H348 C334 0.960 . S
H349 C335 0.961 . S
H350 C335 0.961 . S
H351 C335 0.961 . S
H352 C336 0.931 . S
H353 C341 0.930 . S
H354 C342 0.956 . S
H355 C342 0.961 . S
H356 C342 0.961 . S
H357 C343 0.958 . S
H358 C343 0.961 . S
H359 C343 0.960 . S
C360 C361 1.380 1_655 S
C360 C362 1.394 . S
C360 H376 0.931 . S
C361 C360 1.380 1_455 S
C361 C365 1.387 . S
C362 C360 1.394 . S
C362 C363 1.356 1_655 S
C362 C366 1.531 . S
C363 C362 1.356 1_455 S
C363 C364 1.423 . S
C363 C371 1.503 . S
C364 C363 1.423 . S
C364 C365 1.392 . S
C364 C367 1.511 . S
C365 C361 1.387 . S
C365 C364 1.392 . S
C365 H377 0.929 . S
C366 C362 1.531 . S
C366 H378 0.960 . S
C366 H379 0.962 . S
C366 H380 0.960 . S
C367 C364 1.511 . S
C367 H381 0.961 . S
C367 H382 0.961 . S
C367 H383 0.961 . S
C368 C369 1.369 1_655 S
C368 C370 1.363 . S
C368 H384 0.932 . S
C369 C368 1.369 1_455 S
C369 C373 1.408 . S
C370 C368 1.363 . S
C370 C371 1.370 1_655 S
C370 C374 1.524 . S
C371 C363 1.503 . S
C371 C370 1.370 1_455 S
C371 C372 1.404 . S
C372 C371 1.404 . S
C372 C373 1.404 . S
C372 C375 1.539 . S
C373 C369 1.408 . S
C373 C372 1.404 . S
C373 H385 0.930 . S
C374 C370 1.524 . S
C374 H386 0.956 . S
C374 H387 0.961 1_655 S
C374 H388 0.960 1_655 S
C375 C372 1.539 . S
C375 H389 0.958 1_455 S
C375 H390 0.961 . S
C375 H391 0.960 . S
H376 C360 0.931 . S
H377 C365 0.929 . S
H378 C366 0.960 . S
H379 C366 0.962 . S
H380 C366 0.960 . S
H381 C367 0.961 . S
H382 C367 0.961 . S
H383 C367 0.961 . S
H384 C368 0.932 . S
H385 C373 0.930 . S
H386 C374 0.956 . S
H387 C374 0.961 1_455 S
H388 C374 0.960 1_455 S
H389 C375 0.958 1_655 S
H390 C375 0.961 . S
H391 C375 0.960 . S
C392 C393 1.409 . S
C392 C394 1.394 . S
C392 H408 0.931 . S
C393 C392 1.409 . S
C393 C397 1.358 1_545 S
C394 C392 1.394 . S
C394 C395 1.369 . S
C394 C398 1.531 . S
C395 C394 1.369 . S
C395 C396 1.410 1_545 S
C395 C403 1.505 . S
C396 C395 1.410 1_565 S
C396 C397 1.392 . S
C396 C399 1.511 . S
C397 C393 1.358 1_565 S
C397 C396 1.392 . S
C397 H409 0.929 . S
C398 C394 1.531 . S
C398 H410 0.960 . S
C398 H411 0.962 . S
C398 H412 0.960 . S
C399 C396 1.511 . S
C399 H413 0.961 . S
C399 H414 0.961 . S
C399 H415 0.961 . S
C400 C401 1.370 . S
C400 C402 1.363 1_556 S
C400 H416 0.931 . S
C401 C400 1.370 . S
C401 C405 1.409 1_566 S
C402 C400 1.363 1_554 S
C402 C403 1.363 1_565 S
C402 C406 1.524 1_554 S
C403 C395 1.505 . S
C403 C402 1.363 1_545 S
C403 C404 1.412 . S
C404 C403 1.412 . S
C404 C405 1.404 . S
C404 C407 1.539 . S
C405 C401 1.409 1_544 S
C405 C404 1.404 . S
C405 H417 0.930 . S
C406 C402 1.524 1_556 S
C406 H418 0.956 1_566 S
C406 H419 0.961 1_556 S
C406 H420 0.961 . S
C407 C404 1.539 . S
C407 H421 0.958 . S
C407 H422 0.961 . S
C407 H423 0.960 . S
H408 C392 0.931 . S
H409 C397 0.929 . S
H410 C398 0.960 . S
H411 C398 0.962 . S
H412 C398 0.960 . S
H413 C399 0.961 . S
H414 C399 0.961 . S
H415 C399 0.961 . S
H416 C400 0.931 . S
H417 C405 0.930 . S
H418 C406 0.956 1_544 S
H419 C406 0.961 1_554 S
H420 C406 0.961 . S
H421 C407 0.958 . S
H422 C407 0.961 . S
H423 C407 0.960 . S
C424 C425 1.391 . S
C424 C426 1.394 . S
C424 H440 0.931 . S
C425 C424 1.391 . S
C425 C429 1.376 . S
C426 C424 1.394 . S
C426 C427 1.369 . S
C426 C430 1.531 . S
C427 C426 1.369 . S
C427 C428 1.410 . S
C427 C435 1.503 . S
C428 C427 1.410 . S
C428 C429 1.392 . S
C428 C431 1.511 . S
C429 C425 1.376 . S
C429 C428 1.392 . S
C429 H441 0.929 . S
C430 C426 1.531 . S
C430 H442 0.960 . S
C430 H443 0.962 . S
C430 H444 0.960 . S
C431 C428 1.511 . S
C431 H445 0.961 . S
C431 H446 0.961 . S
C431 H447 0.961 . S
C432 C433 1.370 . S
C432 C434 1.363 1_556 S
C432 H448 0.931 . S
C433 C432 1.370 . S
C433 C437 1.408 1_556 S
C434 C432 1.363 1_554 S
C434 C435 1.370 . S
C434 C438 1.524 . S
C435 C427 1.503 . S
C435 C434 1.370 . S
C435 C436 1.403 . S
C436 C435 1.403 . S
C436 C437 1.404 . S
C436 C439 1.539 . S
C437 C433 1.408 1_554 S
C437 C436 1.404 . S
C437 H449 0.930 . S
C438 C434 1.524 . S
C438 H450 0.956 . S
C438 H451 0.961 . S
C438 H452 0.961 1_554 S
C439 C436 1.539 . S
C439 H453 0.958 . S
C439 H454 0.961 . S
C439 H455 0.960 . S
H440 C424 0.931 . S
H441 C429 0.929 . S
H442 C430 0.960 . S
H443 C430 0.962 . S
H444 C430 0.960 . S
H445 C431 0.961 . S
H446 C431 0.961 . S
H447 C431 0.961 . S
H448 C432 0.931 . S
H449 C437 0.930 . S
H450 C438 0.956 . S
H451 C438 0.961 . S
H452 C438 0.961 1_556 S
H453 C439 0.958 . S
H454 C439 0.961 . S
H455 C439 0.960 . S
C456 C457 1.391 . S
C456 C458 1.394 . S
C456 H472 0.931 . S
C457 C456 1.391 . S
C457 C461 1.376 . S
C458 C456 1.394 . S
C458 C459 1.369 . S
C458 C462 1.531 . S
C459 C458 1.369 . S
C459 C460 1.410 . S
C459 C467 1.503 . S
C460 C459 1.410 . S
C460 C461 1.392 . S
C460 C463 1.511 . S
C461 C457 1.376 . S
C461 C460 1.392 . S
C461 H473 0.929 . S
C462 C458 1.531 . S
C462 H474 0.960 . S
C462 H475 0.962 . S
C462 H476 0.960 . S
C463 C460 1.511 . S
C463 H477 0.961 . S
C463 H478 0.961 . S
C463 H479 0.961 . S
C464 C465 1.370 . S
C464 C466 1.363 1_556 S
C464 H480 0.931 . S
C465 C464 1.370 . S
C465 C469 1.408 . S
C466 C464 1.363 1_554 S
C466 C467 1.370 . S
C466 C470 1.524 . S
C467 C459 1.503 . S
C467 C466 1.370 . S
C467 C468 1.403 . S
C468 C467 1.403 . S
C468 C469 1.404 1_554 S
C468 C471 1.539 . S
C469 C465 1.408 . S
C469 C468 1.404 1_556 S
C469 H481 0.930 . S
C470 C466 1.524 . S
C470 H482 0.956 . S
C470 H483 0.961 . S
C470 H484 0.961 . S
C471 C468 1.539 . S
C471 H485 0.958 . S
C471 H486 0.961 . S
C471 H487 0.960 . S
H472 C456 0.931 . S
H473 C461 0.929 . S
H474 C462 0.960 . S
H475 C462 0.962 . S
H476 C462 0.960 . S
H477 C463 0.961 . S
H478 C463 0.961 . S
H479 C463 0.961 . S
H480 C464 0.931 . S
H481 C469 0.930 . S
H482 C470 0.956 . S
H483 C470 0.961 . S
H484 C470 0.961 . S
H485 C471 0.958 . S
H486 C471 0.961 . S
H487 C471 0.960 . S
C488 C489 1.391 1_455 S
C488 C490 1.394 . S
C488 H504 0.931 . S
C489 C488 1.391 1_655 S
C489 C493 1.376 . S
C490 C488 1.394 . S
C490 C491 1.369 1_455 S
C490 C494 1.531 . S
C491 C490 1.369 1_655 S
C491 C492 1.410 . S
C491 C499 1.503 . S
C492 C491 1.410 . S
C492 C493 1.392 . S
C492 C495 1.511 . S
C493 C489 1.376 . S
C493 C492 1.392 . S
C493 H505 0.929 . S
C494 C490 1.531 . S
C494 H506 0.960 . S
C494 H507 0.962 . S
C494 H508 0.960 . S
C495 C492 1.511 . S
C495 H509 0.961 . S
C495 H510 0.961 . S
C495 H511 0.961 . S
C496 C497 1.370 1_455 S
C496 C498 1.363 1_556 S
C496 H512 0.931 . S
C497 C496 1.370 1_655 S
C497 C501 1.408 1_556 S
C498 C496 1.363 1_554 S
C498 C499 1.370 1_455 S
C498 C502 1.524 . S
C499 C491 1.503 . S
C499 C498 1.370 1_655 S
C499 C500 1.403 . S
C500 C499 1.403 . S
C500 C501 1.404 . S
C500 C503 1.539 . S
C501 C497 1.408 1_554 S
C501 C500 1.404 . S
C501 H513 0.930 . S
C502 C498 1.524 . S
C502 H514 0.956 . S
C502 H515 0.961 . S
C502 H516 0.961 1_554 S
C503 C500 1.539 . S
C503 H517 0.958 . S
C503 H518 0.961 . S
C503 H519 0.960 . S
H504 C488 0.931 . S
H505 C493 0.929 . S
H506 C494 0.960 . S
H507 C494 0.962 . S
H508 C494 0.960 . S
H509 C495 0.961 . S
H510 C495 0.961 . S
H511 C495 0.961 . S
H512 C496 0.931 . S
H513 C501 0.930 . S
H514 C502 0.956 . S
H515 C502 0.961 . S
H516 C502 0.961 1_556 S
H517 C503 0.958 . S
H518 C503 0.961 . S
H519 C503 0.960 . S
C520 C521 1.393 . S
C520 C522 1.394 . S
C520 H536 0.922 1_655 S
C521 C520 1.393 . S
C521 C525 1.381 . S
C522 C520 1.394 . S
C522 C523 1.369 . S
C522 C526 1.531 . S
C523 C522 1.369 . S
C523 C524 1.410 . S
C523 C531 1.503 . S
C524 C523 1.410 . S
C524 C525 1.392 . S
C524 C527 1.511 . S
C525 C521 1.381 . S
C525 C524 1.392 . S
C525 H537 0.929 . S
C526 C522 1.531 . S
C526 H538 0.960 . S
C526 H539 0.962 1_655 S
C526 H540 0.960 . S
C527 C524 1.511 . S
C527 H541 0.961 . S
C527 H542 0.961 . S
C527 H543 0.961 . S
C528 C529 1.370 . S
C528 C530 1.363 . S
C528 H544 0.931 1_655 S
C529 C528 1.370 . S
C529 C533 1.408 . S
C530 C528 1.363 . S
C530 C531 1.370 . S
C530 C534 1.524 1_655 S
C531 C523 1.503 . S
C531 C530 1.370 . S
C531 C532 1.403 . S
C532 C531 1.403 . S
C532 C533 1.404 . S
C532 C535 1.539 . S
C533 C529 1.408 . S
C533 C532 1.404 . S
C533 H545 0.930 . S
C534 C530 1.524 1_455 S
C534 H546 0.956 . S
C534 H547 0.961 . S
C534 H548 0.961 . S
C535 C532 1.539 . S
C535 H549 0.958 . S
C535 H550 0.961 . S
C535 H551 0.960 . S
H536 C520 0.922 1_455 S
H537 C525 0.929 . S
H538 C526 0.960 . S
H539 C526 0.962 1_455 S
H540 C526 0.960 . S
H541 C527 0.961 . S
H542 C527 0.961 . S
H543 C527 0.961 . S
H544 C528 0.931 1_455 S
H545 C533 0.930 . S
H546 C534 0.956 . S
H547 C534 0.961 . S
H548 C534 0.961 . S
H549 C535 0.958 . S
H550 C535 0.961 . S
H551 C535 0.960 . S
C552 C553 1.397 . S
C552 C554 1.394 . S
C552 H568 0.931 . S
C553 C552 1.397 . S
C553 C557 1.379 . S
C554 C552 1.394 . S
C554 C555 1.369 . S
C554 C558 1.531 . S
C555 C554 1.369 . S
C555 C556 1.410 . S
C555 C563 1.503 . S
C556 C555 1.410 . S
C556 C557 1.392 . S
C556 C559 1.511 . S
C557 C553 1.379 . S
C557 C556 1.392 . S
C557 H569 0.932 . S
C558 C554 1.531 . S
C558 H570 0.960 . S
C558 H571 0.962 . S
C558 H572 0.960 . S
C559 C556 1.511 . S
C559 H573 0.961 . S
C559 H574 0.961 . S
C559 H575 0.961 . S
C560 C561 1.370 . S
C560 C562 1.363 . S
C560 H576 0.931 1_565 S
C561 C560 1.370 . S
C561 C565 1.408 . S
C562 C560 1.363 . S
C562 C563 1.370 . S
C562 C566 1.524 1_565 S
C563 C555 1.503 . S
C563 C562 1.370 . S
C563 C564 1.403 . S
C564 C563 1.403 . S
C564 C565 1.404 . S
C564 C567 1.539 . S
C565 C561 1.408 . S
C565 C564 1.404 . S
C565 H577 0.930 . S
C566 C562 1.524 1_545 S
C566 H578 0.956 . S
C566 H579 0.961 . S
C566 H580 0.961 . S
C567 C564 1.539 . S
C567 H581 0.958 . S
C567 H582 0.961 . S
C567 H583 0.960 . S
H568 C552 0.931 . S
H569 C557 0.932 . S
H570 C558 0.960 . S
H571 C558 0.962 . S
H572 C558 0.960 . S
H573 C559 0.961 . S
H574 C559 0.961 . S
H575 C559 0.961 . S
H576 C560 0.931 1_545 S
H577 C565 0.930 . S
H578 C566 0.956 . S
H579 C566 0.961 . S
H580 C566 0.961 . S
H581 C567 0.958 . S
H582 C567 0.961 . S
H583 C567 0.960 . S
C584 C585 1.391 . S
C584 C586 1.394 . S
C584 H600 0.931 . S
C585 C584 1.391 . S
C585 C589 1.376 . S
C586 C584 1.394 . S
C586 C587 1.369 . S
C586 C590 1.531 . S
C587 C586 1.369 . S
C587 C588 1.410 . S
C587 C595 1.503 . S
C588 C587 1.410 . S
C588 C589 1.392 . S
C588 C591 1.511 . S
C589 C585 1.376 . S
C589 C588 1.392 . S
C589 H601 0.929 . S
C590 C586 1.531 . S
C590 H602 0.960 . S
C590 H603 0.962 . S
C590 H604 0.960 . S
C591 C588 1.511 . S
C591 H605 0.961 . S
C591 H606 0.961 . S
C591 H607 0.961 . S
C592 C593 1.370 . S
C592 C594 1.363 . S
C592 H608 0.931 . S
C593 C592 1.370 . S
C593 C597 1.408 . S
C594 C592 1.363 . S
C594 C595 1.370 . S
C594 C598 1.524 . S
C595 C587 1.503 . S
C595 C594 1.370 . S
C595 C596 1.403 . S
C596 C595 1.403 . S
C596 C597 1.404 . S
C596 C599 1.539 . S
C597 C593 1.408 . S
C597 C596 1.404 . S
C597 H609 0.930 . S
C598 C594 1.524 . S
C598 H610 0.956 . S
C598 H611 0.961 . S
C598 H612 0.961 . S
C599 C596 1.539 . S
C599 H613 0.958 . S
C599 H614 0.961 . S
C599 H615 0.960 . S
H600 C584 0.931 . S
H601 C589 0.929 . S
H602 C590 0.960 . S
H603 C590 0.962 . S
H604 C590 0.960 . S
H605 C591 0.961 . S
H606 C591 0.961 . S
H607 C591 0.961 . S
H608 C592 0.931 . S
H609 C597 0.930 . S
H610 C598 0.956 . S
H611 C598 0.961 . S
H612 C598 0.961 . S
H613 C599 0.958 . S
H614 C599 0.961 . S
H615 C599 0.960 . S
C616 C617 1.391 . S
C616 C618 1.394 . S
C616 H632 0.931 . S
C617 C616 1.391 . S
C617 C621 1.376 . S
C618 C616 1.394 . S
C618 C619 1.369 . S
C618 C622 1.531 . S
C619 C618 1.369 . S
C619 C620 1.410 . S
C619 C627 1.503 . S
C620 C619 1.410 . S
C620 C621 1.392 . S
C620 C623 1.511 . S
C621 C617 1.376 . S
C621 C620 1.392 . S
C621 H633 0.929 . S
C622 C618 1.531 . S
C622 H634 0.960 . S
C622 H635 0.962 . S
C622 H636 0.960 . S
C623 C620 1.511 . S
C623 H637 0.961 . S
C623 H638 0.961 . S
C623 H639 0.961 . S
C624 C625 1.370 . S
C624 C626 1.363 . S
C624 H640 0.931 . S
C625 C624 1.370 . S
C625 C629 1.408 . S
C626 C624 1.363 . S
C626 C627 1.370 . S
C626 C630 1.524 . S
C627 C619 1.503 . S
C627 C626 1.370 . S
C627 C628 1.403 . S
C628 C627 1.403 . S
C628 C629 1.404 . S
C628 C631 1.539 . S
C629 C625 1.408 . S
C629 C628 1.404 . S
C629 H641 0.930 . S
C630 C626 1.524 . S
C630 H642 0.956 . S
C630 H643 0.961 . S
C630 H644 0.961 . S
C631 C628 1.539 . S
C631 H645 0.958 . S
C631 H646 0.961 . S
C631 H647 0.960 . S
H632 C616 0.931 . S
H633 C621 0.929 . S
H634 C622 0.960 . S
H635 C622 0.962 . S
H636 C622 0.960 . S
H637 C623 0.961 . S
H638 C623 0.961 . S
H639 C623 0.961 . S
H640 C624 0.931 . S
H641 C629 0.930 . S
H642 C630 0.956 . S
H643 C630 0.961 . S
H644 C630 0.961 . S
H645 C631 0.958 . S
H646 C631 0.961 . S
H647 C631 0.960 . S
C648 C649 1.394 . S
C648 C650 1.394 . S
C648 H664 0.931 . S
C649 C648 1.394 . S
C649 C653 1.370 1_655 S
C650 C648 1.394 . S
C650 C651 1.369 1_655 S
C650 C654 1.531 . S
C651 C650 1.369 1_455 S
C651 C652 1.410 . S
C651 C659 1.503 . S
C652 C651 1.410 . S
C652 C653 1.392 . S
C652 C655 1.511 . S
C653 C649 1.370 1_455 S
C653 C652 1.392 . S
C653 H665 0.929 . S
C654 C650 1.531 . S
C654 H666 0.960 . S
C654 H667 0.962 . S
C654 H668 0.960 . S
C655 C652 1.511 . S
C655 H669 0.961 . S
C655 H670 0.961 . S
C655 H671 0.961 . S
C656 C657 1.370 . S
C656 C658 1.363 . S
C656 H672 0.931 . S
C657 C656 1.370 . S
C657 C661 1.408 . S
C658 C656 1.363 . S
C658 C659 1.370 . S
C658 C662 1.524 1_455 S
C659 C651 1.503 . S
C659 C658 1.370 . S
C659 C660 1.403 . S
C660 C659 1.403 . S
C660 C661 1.404 . S
C660 C663 1.539 . S
C661 C657 1.408 . S
C661 C660 1.404 . S
C661 H673 0.930 . S
C662 C658 1.524 1_655 S
C662 H674 0.956 . S
C662 H675 0.961 . S
C662 H676 0.961 . S
C663 C660 1.539 . S
C663 H677 0.958 . S
C663 H678 0.961 . S
C663 H679 0.960 . S
H664 C648 0.931 . S
H665 C653 0.929 . S
H666 C654 0.960 . S
H667 C654 0.962 . S
H668 C654 0.960 . S
H669 C655 0.961 . S
H670 C655 0.961 . S
H671 C655 0.961 . S
H672 C656 0.931 . S
H673 C661 0.930 . S
H674 C662 0.956 . S
H675 C662 0.961 . S
H676 C662 0.961 . S
H677 C663 0.958 . S
H678 C663 0.961 . S
H679 C663 0.960 . S
C680 C681 1.391 . S
C680 C682 1.394 . S
C680 H696 0.931 . S
C681 C680 1.391 . S
C681 C685 1.376 1_565 S
C682 C680 1.394 . S
C682 C683 1.369 1_565 S
C682 C686 1.531 . S
C683 C682 1.369 1_545 S
C683 C684 1.410 . S
C683 C691 1.503 . S
C684 C683 1.410 . S
C684 C685 1.392 . S
C684 C687 1.511 . S
C685 C681 1.376 1_545 S
C685 C684 1.392 . S
C685 H697 0.929 . S
C686 C682 1.531 . S
C686 H698 0.960 . S
C686 H699 0.962 . S
C686 H700 0.960 . S
C687 C684 1.511 . S
C687 H701 0.961 . S
C687 H702 0.961 . S
C687 H703 0.961 . S
C688 C689 1.370 . S
C688 C690 1.363 . S
C688 H704 0.931 . S
C689 C688 1.370 . S
C689 C693 1.408 . S
C690 C688 1.363 . S
C690 C691 1.370 . S
C690 C694 1.524 . S
C691 C683 1.503 . S
C691 C690 1.370 . S
C691 C692 1.403 . S
C692 C691 1.403 . S
C692 C693 1.404 . S
C692 C695 1.539 . S
C693 C689 1.408 . S
C693 C692 1.404 . S
C693 H705 0.930 . S
C694 C690 1.524 . S
C694 H706 0.954 1_545 S
C694 H707 0.961 . S
C694 H708 0.961 . S
C695 C692 1.539 . S
C695 H709 0.958 . S
C695 H710 0.961 . S
C695 H711 0.960 . S
H696 C680 0.931 . S
H697 C685 0.929 . S
H698 C686 0.960 . S
H699 C686 0.962 . S
H700 C686 0.960 . S
H701 C687 0.961 . S
H702 C687 0.961 . S
H703 C687 0.961 . S
H704 C688 0.931 . S
H705 C693 0.930 . S
H706 C694 0.954 1_565 S
H707 C694 0.961 . S
H708 C694 0.961 . S
H709 C695 0.958 . S
H710 C695 0.961 . S
H711 C695 0.960 . S
C712 C713 1.391 . S
C712 C714 1.394 . S
C712 H728 0.931 . S
C713 C712 1.391 . S
C713 C717 1.376 . S
C714 C712 1.394 . S
C714 C715 1.369 . S
C714 C718 1.531 . S
C715 C714 1.369 . S
C715 C716 1.410 . S
C715 C723 1.503 . S
C716 C715 1.410 . S
C716 C717 1.392 . S
C716 C719 1.511 . S
C717 C713 1.376 . S
C717 C716 1.392 . S
C717 H729 0.929 . S
C718 C714 1.531 . S
C718 H730 0.960 . S
C718 H731 0.962 . S
C718 H732 0.960 . S
C719 C716 1.511 . S
C719 H733 0.961 . S
C719 H734 0.961 . S
C719 H735 0.961 . S
C720 C721 1.370 . S
C720 C722 1.363 . S
C720 H736 0.931 . S
C721 C720 1.370 . S
C721 C725 1.408 . S
C722 C720 1.363 . S
C722 C723 1.370 . S
C722 C726 1.524 . S
C723 C715 1.503 . S
C723 C722 1.370 . S
C723 C724 1.403 . S
C724 C723 1.403 . S
C724 C725 1.404 . S
C724 C727 1.539 . S
C725 C721 1.408 . S
C725 C724 1.404 . S
C725 H737 0.930 . S
C726 C722 1.524 . S
C726 H738 0.956 . S
C726 H739 0.961 . S
C726 H740 0.961 . S
C727 C724 1.539 . S
C727 H741 0.958 . S
C727 H742 0.961 . S
C727 H743 0.960 . S
H728 C712 0.931 . S
H729 C717 0.929 . S
H730 C718 0.960 . S
H731 C718 0.962 . S
H732 C718 0.960 . S
H733 C719 0.961 . S
H734 C719 0.961 . S
H735 C719 0.961 . S
H736 C720 0.931 . S
H737 C725 0.930 . S
H738 C726 0.956 . S
H739 C726 0.961 . S
H740 C726 0.961 . S
H741 C727 0.958 . S
H742 C727 0.961 . S
H743 C727 0.960 . S
C744 C745 1.391 . S
C744 C746 1.394 . S
C744 H760 0.931 . S
C745 C744 1.391 . S
C745 C749 1.376 . S
C746 C744 1.394 . S
C746 C747 1.369 . S
C746 C750 1.531 . S
C747 C746 1.369 . S
C747 C748 1.410 . S
C747 C755 1.503 . S
C748 C747 1.410 . S
C748 C749 1.392 . S
C748 C751 1.511 . S
C749 C745 1.376 . S
C749 C748 1.392 . S
C749 H761 0.929 . S
C750 C746 1.531 . S
C750 H762 0.960 . S
C750 H763 0.962 . S
C750 H764 0.960 . S
C751 C748 1.511 . S
C751 H765 0.961 . S
C751 H766 0.961 . S
C751 H767 0.961 . S
C752 C753 1.370 . S
C752 C754 1.363 . S
C752 H768 0.931 . S
C753 C752 1.370 . S
C753 C757 1.408 . S
C754 C752 1.363 . S
C754 C755 1.370 . S
C754 C758 1.524 . S
C755 C747 1.503 . S
C755 C754 1.370 . S
C755 C756 1.403 . S
C756 C755 1.403 . S
C756 C757 1.404 . S
C756 C759 1.539 . S
C757 C753 1.408 . S
C757 C756 1.404 . S
C757 H769 0.930 . S
C758 C754 1.524 . S
C758 H770 0.956 . S
C758 H771 0.961 . S
C758 H772 0.961 . S
C759 C756 1.539 . S
C759 H773 0.958 . S
C759 H774 0.961 . S
C759 H775 0.960 . S
H760 C744 0.931 . S
H761 C749 0.929 . S
H762 C750 0.960 . S
H763 C750 0.962 . S
H764 C750 0.960 . S
H765 C751 0.961 . S
H766 C751 0.961 . S
H767 C751 0.961 . S
H768 C752 0.931 . S
H769 C757 0.930 . S
H770 C758 0.956 . S
H771 C758 0.961 . S
H772 C758 0.961 . S
H773 C759 0.958 . S
H774 C759 0.961 . S
H775 C759 0.960 . S
C776 C777 1.391 1_455 S
C776 C778 1.394 . S
C776 H792 0.931 1_556 S
C777 C776 1.391 1_655 S
C777 C781 1.376 . S
C778 C776 1.394 . S
C778 C779 1.366 . S
C778 C782 1.531 1_556 S
C779 C778 1.366 . S
C779 C780 1.412 1_455 S
C779 C787 1.503 . S
C780 C779 1.412 1_655 S
C780 C781 1.392 . S
C780 C783 1.511 . S
C781 C777 1.376 . S
C781 C780 1.392 . S
C781 H793 0.929 . S
C782 C778 1.531 1_554 S
C782 H794 0.960 . S
C782 H795 0.962 . S
C782 H796 0.960 . S
C783 C780 1.511 . S
C783 H797 0.961 . S
C783 H798 0.961 . S
C783 H799 0.961 . S
C784 C785 1.370 . S
C784 C786 1.363 . S
C784 H800 0.931 . S
C785 C784 1.370 . S
C785 C789 1.408 1_455 S
C786 C784 1.363 . S
C786 C787 1.370 . S
C786 C790 1.524 . S
C787 C779 1.503 . S
C787 C786 1.370 . S
C787 C788 1.403 1_455 S
C788 C787 1.403 1_655 S
C788 C789 1.404 . S
C788 C791 1.539 . S
C789 C785 1.408 1_655 S
C789 C788 1.404 . S
C789 H801 0.930 . S
C790 C786 1.524 . S
C790 H802 0.956 . S
C790 H803 0.961 . S
C790 H804 0.961 . S
C791 C788 1.539 . S
C791 H805 0.958 1_556 S
C791 H806 0.961 . S
C791 H807 0.960 . S
H792 C776 0.931 1_554 S
H793 C781 0.929 . S
H794 C782 0.960 . S
H795 C782 0.962 . S
H796 C782 0.960 . S
H797 C783 0.961 . S
H798 C783 0.961 . S
H799 C783 0.961 . S
H800 C784 0.931 . S
H801 C789 0.930 . S
H802 C790 0.956 . S
H803 C790 0.961 . S
H804 C790 0.961 . S
H805 C791 0.958 1_554 S
H806 C791 0.961 . S
H807 C791 0.960 . S
C808 C809 1.387 1_545 S
C808 C810 1.394 . S
C808 H824 0.931 1_556 S
C809 C808 1.387 1_565 S
C809 C813 1.381 . S
C810 C808 1.394 . S
C810 C811 1.358 1_545 S
C810 C814 1.531 1_556 S
C811 C810 1.358 1_565 S
C811 C812 1.421 . S
C811 C819 1.500 1_565 S
C812 C811 1.421 . S
C812 C813 1.392 . S
C812 C815 1.511 . S
C813 C809 1.381 . S
C813 C812 1.392 . S
C813 H825 0.929 . S
C814 C810 1.531 1_554 S
C814 H826 0.960 . S
C814 H827 0.962 . S
C814 H828 0.960 . S
C815 C812 1.511 . S
C815 H829 0.961 . S
C815 H830 0.961 . S
C815 H831 0.961 . S
C816 C817 1.370 . S
C816 C818 1.363 . S
C816 H832 0.931 . S
C817 C816 1.370 . S
C817 C821 1.408 1_545 S
C818 C816 1.363 . S
C818 C819 1.370 . S
C818 C822 1.524 . S
C819 C811 1.500 1_545 S
C819 C818 1.370 . S
C819 C820 1.403 1_545 S
C820 C819 1.403 1_565 S
C820 C821 1.404 . S
C820 C823 1.539 . S
C821 C817 1.408 1_565 S
C821 C820 1.404 . S
C821 H833 0.930 . S
C822 C818 1.524 . S
C822 H834 0.956 . S
C822 H835 0.961 . S
C822 H836 0.961 . S
C823 C820 1.539 . S
C823 H837 0.958 . S
C823 H838 0.961 . S
C823 H839 0.960 . S
H824 C808 0.931 1_554 S
H825 C813 0.929 . S
H826 C814 0.960 . S
H827 C814 0.962 . S
H828 C814 0.960 . S
H829 C815 0.961 . S
H830 C815 0.961 . S
H831 C815 0.961 . S
H832 C816 0.931 . S
H833 C821 0.930 . S
H834 C822 0.956 . S
H835 C822 0.961 . S
H836 C822 0.961 . S
H837 C823 0.958 . S
H838 C823 0.961 . S
H839 C823 0.960 . S
C840 C841 1.391 . S
C840 C842 1.394 . S
C840 H856 0.931 . S
C841 C840 1.391 . S
C841 C845 1.376 . S
C842 C840 1.394 . S
C842 C843 1.369 . S
C842 C846 1.531 . S
C843 C842 1.369 . S
C843 C844 1.410 . S
C843 C851 1.503 . S
C844 C843 1.410 . S
C844 C845 1.392 . S
C844 C847 1.511 1_556 S
C845 C841 1.376 . S
C845 C844 1.392 . S
C845 H857 0.929 1_556 S
C846 C842 1.531 . S
C846 H858 0.960 . S
C846 H859 0.962 . S
C846 H860 0.960 . S
C847 C844 1.511 1_554 S
C847 H861 0.961 . S
C847 H862 0.961 . S
C847 H863 0.961 . S
C848 C849 1.370 . S
C848 C850 1.363 . S
C848 H864 0.931 . S
C849 C848 1.370 . S
C849 C853 1.408 . S
C850 C848 1.363 . S
C850 C851 1.370 . S
C850 C854 1.524 . S
C851 C843 1.503 . S
C851 C850 1.370 . S
C851 C852 1.403 . S
C852 C851 1.403 . S
C852 C853 1.404 . S
C852 C855 1.539 . S
C853 C849 1.408 . S
C853 C852 1.404 . S
C853 H865 0.930 . S
C854 C850 1.524 . S
C854 H866 0.956 . S
C854 H867 0.961 . S
C854 H868 0.961 . S
C855 C852 1.539 . S
C855 H869 0.958 . S
C855 H870 0.961 . S
C855 H871 0.960 . S
H856 C840 0.931 . S
H857 C845 0.929 1_554 S
H858 C846 0.960 . S
H859 C846 0.962 . S
H860 C846 0.960 . S
H861 C847 0.961 . S
H862 C847 0.961 . S
H863 C847 0.961 . S
H864 C848 0.931 . S
H865 C853 0.930 . S
H866 C854 0.956 . S
H867 C854 0.961 . S
H868 C854 0.961 . S
H869 C855 0.958 . S
H870 C855 0.961 . S
H871 C855 0.960 . S
C872 C873 1.391 . S
C872 C874 1.394 . S
C872 H888 0.931 1_556 S
C873 C872 1.391 . S
C873 C877 1.376 . S
C874 C872 1.394 . S
C874 C875 1.369 . S
C874 C878 1.531 1_556 S
C875 C874 1.369 . S
C875 C876 1.410 . S
C875 C883 1.503 . S
C876 C875 1.410 . S
C876 C877 1.392 . S
C876 C879 1.511 . S
C877 C873 1.376 . S
C877 C876 1.392 . S
C877 H889 0.929 . S
C878 C874 1.531 1_554 S
C878 H890 0.960 1_554 S
C878 H891 0.962 . S
C878 H892 0.960 . S
C879 C876 1.511 . S
C879 H893 0.961 . S
C879 H894 0.961 . S
C879 H895 0.961 . S
C880 C881 1.370 . S
C880 C882 1.363 . S
C880 H896 0.931 . S
C881 C880 1.370 . S
C881 C885 1.408 . S
C882 C880 1.363 . S
C882 C883 1.370 . S
C882 C886 1.524 . S
C883 C875 1.503 . S
C883 C882 1.370 . S
C883 C884 1.403 . S
C884 C883 1.403 . S
C884 C885 1.404 . S
C884 C887 1.539 . S
C885 C881 1.408 . S
C885 C884 1.404 . S
C885 H897 0.930 . S
C886 C882 1.524 . S
C886 H898 0.956 . S
C886 H899 0.961 . S
C886 H900 0.961 . S
C887 C884 1.539 . S
C887 H901 0.958 . S
C887 H902 0.961 . S
C887 H903 0.960 . S
H888 C872 0.931 1_554 S
H889 C877 0.929 . S
H890 C878 0.960 1_556 S
H891 C878 0.962 . S
H892 C878 0.960 . S
H893 C879 0.961 . S
H894 C879 0.961 . S
H895 C879 0.961 . S
H896 C880 0.931 . S
H897 C885 0.930 . S
H898 C886 0.956 . S
H899 C886 0.961 . S
H900 C886 0.961 . S
H901 C887 0.958 . S
H902 C887 0.961 . S
H903 C887 0.960 . S
C904 C905 1.391 . S
C904 C906 1.394 . S
C904 H920 0.931 . S
C905 C904 1.391 . S
C905 C909 1.376 1_655 S
C906 C904 1.394 . S
C906 C907 1.369 . S
C906 C910 1.531 . S
C907 C906 1.369 . S
C907 C908 1.410 1_655 S
C907 C915 1.503 . S
C908 C907 1.410 1_455 S
C908 C909 1.392 . S
C908 C911 1.511 . S
C909 C905 1.376 1_455 S
C909 C908 1.392 . S
C909 H921 0.929 . S
C910 C906 1.531 . S
C910 H922 0.960 . S
C910 H923 0.962 . S
C910 H924 0.960 . S
C911 C908 1.511 . S
C911 H925 0.961 . S
C911 H926 0.961 . S
C911 H927 0.961 . S
C912 C913 1.370 1_455 S
C912 C914 1.363 . S
C912 H928 0.931 . S
C913 C912 1.370 1_655 S
C913 C917 1.408 . S
C914 C912 1.363 . S
C914 C915 1.370 1_455 S
C914 C918 1.524 . S
C915 C907 1.503 . S
C915 C914 1.370 1_655 S
C915 C916 1.403 . S
C916 C915 1.403 . S
C916 C917 1.404 . S
C916 C919 1.539 . S
C917 C913 1.408 . S
C917 C916 1.404 . S
C917 H929 0.930 . S
C918 C914 1.524 . S
C918 H930 0.956 . S
C918 H931 0.961 . S
C918 H932 0.961 . S
C919 C916 1.539 . S
C919 H933 0.958 . S
C919 H934 0.961 . S
C919 H935 0.960 . S
H920 C904 0.931 . S
H921 C909 0.929 . S
H922 C910 0.960 . S
H923 C910 0.962 . S
H924 C910 0.960 . S
H925 C911 0.961 . S
H926 C911 0.961 . S
H927 C911 0.961 . S
H928 C912 0.931 . S
H929 C917 0.930 . S
H930 C918 0.956 . S
H931 C918 0.961 . S
H932 C918 0.961 . S
H933 C919 0.958 . S
H934 C919 0.961 . S
H935 C919 0.960 . S
C936 C937 1.391 1_545 S
C936 C938 1.394 . S
C936 H952 0.931 . S
C937 C936 1.391 1_565 S
C937 C941 1.376 . S
C938 C936 1.394 . S
C938 C939 1.369 1_545 S
C938 C942 1.531 . S
C939 C938 1.369 1_565 S
C939 C940 1.410 . S
C939 C947 1.503 . S
C940 C939 1.410 . S
C940 C941 1.392 . S
C940 C943 1.511 . S
C941 C937 1.376 . S
C941 C940 1.392 . S
C941 H953 0.929 . S
C942 C938 1.531 . S
C942 H954 0.960 . S
C942 H955 0.962 . S
C942 H956 0.960 . S
C943 C940 1.511 . S
C943 H957 0.961 . S
C943 H958 0.961 . S
C943 H959 0.961 . S
C944 C945 1.370 1_545 S
C944 C946 1.363 . S
C944 H960 0.931 . S
C945 C944 1.370 1_565 S
C945 C949 1.408 . S
C946 C944 1.363 . S
C946 C947 1.370 1_545 S
C946 C950 1.524 . S
C947 C939 1.503 . S
C947 C946 1.370 1_565 S
C947 C948 1.403 . S
C948 C947 1.403 . S
C948 C949 1.404 . S
C948 C951 1.539 . S
C949 C945 1.408 . S
C949 C948 1.404 . S
C949 H961 0.930 . S
C950 C946 1.524 . S
C950 H962 0.956 . S
C950 H963 0.961 . S
C950 H964 0.961 . S
C951 C948 1.539 . S
C951 H965 0.958 . S
C951 H966 0.961 . S
C951 H967 0.960 . S
H952 C936 0.931 . S
H953 C941 0.929 . S
H954 C942 0.960 . S
H955 C942 0.962 . S
H956 C942 0.960 . S
H957 C943 0.961 . S
H958 C943 0.961 . S
H959 C943 0.961 . S
H960 C944 0.931 . S
H961 C949 0.930 . S
H962 C950 0.956 . S
H963 C950 0.961 . S
H964 C950 0.961 . S
H965 C951 0.958 . S
H966 C951 0.961 . S
H967 C951 0.960 . S
C968 C969 1.391 . S
C968 C970 1.394 . S
C968 H984 0.931 . S
C969 C968 1.391 . S
C969 C973 1.376 . S
C970 C968 1.394 . S
C970 C971 1.369 . S
C970 C974 1.531 . S
C971 C970 1.369 . S
C971 C972 1.410 . S
C971 C979 1.503 . S
C972 C971 1.410 . S
C972 C973 1.392 . S
C972 C975 1.511 . S
C973 C969 1.376 . S
C973 C972 1.392 . S
C973 H985 0.929 . S
C974 C970 1.531 . S
C974 H986 0.960 . S
C974 H987 0.962 . S
C974 H988 0.960 . S
C975 C972 1.511 . S
C975 H989 0.961 . S
C975 H990 0.961 . S
C975 H991 0.961 . S
C976 C977 1.370 . S
C976 C978 1.363 . S
C976 H992 0.931 . S
C977 C976 1.370 . S
C977 C981 1.408 . S
C978 C976 1.363 . S
C978 C979 1.370 . S
C978 C982 1.524 . S
C979 C971 1.503 . S
C979 C978 1.370 . S
C979 C980 1.403 . S
C980 C979 1.403 . S
C980 C981 1.404 . S
C980 C983 1.539 . S
C981 C977 1.408 . S
C981 C980 1.404 . S
C981 H993 0.930 . S
C982 C978 1.524 . S
C982 H994 0.956 . S
C982 H995 0.961 . S
C982 H996 0.961 . S
C983 C980 1.539 . S
C983 H997 0.958 . S
C983 H998 0.961 . S
C983 H999 0.960 . S
H984 C968 0.931 . S
H985 C973 0.929 . S
H986 C974 0.960 . S
H987 C974 0.962 . S
H988 C974 0.960 . S
H989 C975 0.961 . S
H990 C975 0.961 . S
H991 C975 0.961 . S
H992 C976 0.931 . S
H993 C981 0.930 . S
H994 C982 0.956 . S
H995 C982 0.961 . S
H996 C982 0.961 . S
H997 C983 0.958 . S
H998 C983 0.961 . S
H999 C983 0.960 . S
C1000 C1001 1.391 . S
C1000 C1002 1.394 . S
C1000 H1016 0.931 . S
C1001 C1000 1.391 . S
C1001 C1005 1.376 . S
C1002 C1000 1.394 . S
C1002 C1003 1.369 . S
C1002 C1006 1.531 . S
C1003 C1002 1.369 . S
C1003 C1004 1.410 . S
C1003 C1011 1.503 . S
C1004 C1003 1.410 . S
C1004 C1005 1.392 . S
C1004 C1007 1.511 . S
C1005 C1001 1.376 . S
C1005 C1004 1.392 . S
C1005 H1017 0.929 . S
C1006 C1002 1.531 . S
C1006 H1018 0.960 . S
C1006 H1019 0.962 . S
C1006 H1020 0.960 . S
C1007 C1004 1.511 . S
C1007 H1021 0.961 . S
C1007 H1022 0.961 . S
C1007 H1023 0.961 . S
C1008 C1009 1.370 . S
C1008 C1010 1.363 . S
C1008 H1024 0.931 . S
C1009 C1008 1.370 . S
C1009 C1013 1.408 . S
C1010 C1008 1.363 . S
C1010 C1011 1.370 . S
C1010 C1014 1.524 . S
C1011 C1003 1.503 . S
C1011 C1010 1.370 . S
C1011 C1012 1.403 . S
C1012 C1011 1.403 . S
C1012 C1013 1.404 . S
C1012 C1015 1.539 . S
C1013 C1009 1.408 . S
C1013 C1012 1.404 . S
C1013 H1025 0.930 . S
C1014 C1010 1.524 . S
C1014 H1026 0.956 . S
C1014 H1027 0.961 . S
C1014 H1028 0.961 . S
C1015 C1012 1.539 . S
C1015 H1029 0.958 . S
C1015 H1030 0.961 . S
C1015 H1031 0.960 . S
H1016 C1000 0.931 . S
H1017 C1005 0.929 . S
H1018 C1006 0.960 . S
H1019 C1006 0.962 . S
H1020 C1006 0.960 . S
H1021 C1007 0.961 . S
H1022 C1007 0.961 . S
H1023 C1007 0.961 . S
H1024 C1008 0.931 . S
H1025 C1013 0.930 . S
H1026 C1014 0.956 . S
H1027 C1014 0.961 . S
H1028 C1014 0.961 . S
H1029 C1015 0.958 . S
H1030 C1015 0.961 . S
H1031 C1015 0.960 . S
C265 C82 1.694 1_565 S
C273 C122 1.971 . S
C305 C162 1.990 . S
C297 C95 1.732 . S
C337 C202 1.991 . S
C329 C56 1.667 . S
C369 C242 1.981 1_455 S
C361 C69 1.649 . S
C401 C112 1.980 1_565 S
C393 C30 1.735 . S
C425 C43 1.737 . S
C433 C152 1.992 . S
C457 C4 1.718 . S
C465 C192 1.996 . S
C489 C17 1.741 1_655 S
C497 C232 1.987 1_655 S
C529 C109 0.502 . S
C521 C74 0.457 1_655 S
C561 C149 0.510 . S
C553 C87 0.459 1_565 S
C593 C189 0.476 . S
C585 C100 0.468 . S
C617 C61 0.520 . S
C625 C229 0.495 . S
C649 C22 0.408 1_655 S
C657 C119 0.498 . S
C689 C159 0.494 . S
C681 C35 0.430 1_565 S
C721 C199 0.513 . S
C713 C48 0.429 . S
C745 C9 0.548 . S
C753 C239 0.453 . S
C777 C73 2.026 1_655 S
C785 C113 2.262 . S
C809 C86 2.006 1_565 S
C817 C153 2.236 . S
C849 C193 2.233 . S
C841 C99 1.983 . S
C881 C233 2.252 . S
C873 C60 2.047 . S
C905 C21 2.072 1_655 S
C913 C123 2.283 . S
C945 C163 2.248 . S
C937 C34 1.996 1_565 S
C977 C203 2.224 . S
C969 C47 2.042 . S
C1001 C8 1.997 . S
C1009 C243 2.263 . S
