# Generated by pormake.
# Topology zzz, (3,6)-cn, num edge types: 1
# Building blocks:
#     Node 0, Type 0, BuildingBlock: PAMTOO_clean_linker_0, # of connection points: 3
#     Node 1, Type 0, BuildingBlock: PAMTOO_clean_linker_0, # of connection points: 3
#     Node 2, Type 0, BuildingBlock: PAMTOO_clean_linker_0, # of connection points: 3
#     Node 3, Type 0, BuildingBlock: PAMTOO_clean_linker_0, # of connection points: 3
#     Node 4, Type 0, BuildingBlock: PAMTOO_clean_linker_0, # of connection points: 3
#     Node 5, Type 0, BuildingBlock: PAMTOO_clean_linker_0, # of connection points: 3
#     Node 6, Type 0, BuildingBlock: PAMTOO_clean_linker_0, # of connection points: 3
#     Node 7, Type 0, BuildingBlock: PAMTOO_clean_linker_0, # of connection points: 3
#     Node 8, Type 1, BuildingBlock: BETFAJ_clean_sbu_0, # of connection points: 6
#     Node 9, Type 1, BuildingBlock: BETFAJ_clean_sbu_0, # of connection points: 6
#     Node 10, Type 1, BuildingBlock: BETFAJ_clean_sbu_0, # of connection points: 6
#     Node 11, Type 1, BuildingBlock: BETFAJ_clean_sbu_0, # of connection points: 6
#     Edge 12, Type (0, 1), BuildingBlock: MIFKUJ_clean_linker_0, # of connection points: 2
#     Edge 13, Type (0, 1), BuildingBlock: MIFKUJ_clean_linker_0, # of connection points: 2
#     Edge 14, Type (0, 1), BuildingBlock: MIFKUJ_clean_linker_0, # of connection points: 2
#     Edge 15, Type (0, 1), BuildingBlock: MIFKUJ_clean_linker_0, # of connection points: 2
#     Edge 16, Type (0, 1), BuildingBlock: MIFKUJ_clean_linker_0, # of connection points: 2
#     Edge 17, Type (0, 1), BuildingBlock: MIFKUJ_clean_linker_0, # of connection points: 2
#     Edge 18, Type (0, 1), BuildingBlock: MIFKUJ_clean_linker_0, # of connection points: 2
#     Edge 19, Type (0, 1), BuildingBlock: MIFKUJ_clean_linker_0, # of connection points: 2
#     Edge 20, Type (0, 1), BuildingBlock: MIFKUJ_clean_linker_0, # of connection points: 2
#     Edge 21, Type (0, 1), BuildingBlock: MIFKUJ_clean_linker_0, # of connection points: 2
#     Edge 22, Type (0, 1), BuildingBlock: MIFKUJ_clean_linker_0, # of connection points: 2
#     Edge 23, Type (0, 1), BuildingBlock: MIFKUJ_clean_linker_0, # of connection points: 2
#     Edge 24, Type (0, 1), BuildingBlock: MIFKUJ_clean_linker_0, # of connection points: 2
#     Edge 25, Type (0, 1), BuildingBlock: MIFKUJ_clean_linker_0, # of connection points: 2
#     Edge 26, Type (0, 1), BuildingBlock: MIFKUJ_clean_linker_0, # of connection points: 2
#     Edge 27, Type (0, 1), BuildingBlock: MIFKUJ_clean_linker_0, # of connection points: 2
#     Edge 28, Type (0, 1), BuildingBlock: MIFKUJ_clean_linker_0, # of connection points: 2
#     Edge 29, Type (0, 1), BuildingBlock: MIFKUJ_clean_linker_0, # of connection points: 2
#     Edge 30, Type (0, 1), BuildingBlock: MIFKUJ_clean_linker_0, # of connection points: 2
#     Edge 31, Type (0, 1), BuildingBlock: MIFKUJ_clean_linker_0, # of connection points: 2
#     Edge 32, Type (0, 1), BuildingBlock: MIFKUJ_clean_linker_0, # of connection points: 2
#     Edge 33, Type (0, 1), BuildingBlock: MIFKUJ_clean_linker_0, # of connection points: 2
#     Edge 34, Type (0, 1), BuildingBlock: MIFKUJ_clean_linker_0, # of connection points: 2
#     Edge 35, Type (0, 1), BuildingBlock: MIFKUJ_clean_linker_0, # of connection points: 2
# Relax obj value: 0.227
# Max RMSD: 0.175
# Mean RMSD: 0.159
data_MOF--net-zzz--node1-BETFAJ_clean_sbu_0--node2-PAMTOO_clean_linker_0--edge1-MIFKUJ_clean_linker_0
_symmetry_space_group_name_H-M    P1
_symmetry_Int_Tables_number       1
_symmetry_cell_setting            triclinic
loop_
_symmetry_equiv_pos_as_xyz
'x, y, z'
_cell_length_a     68.166025
_cell_length_b     68.179014
_cell_length_c     17.187375
_cell_angle_alpha  90.191712
_cell_angle_beta   89.950874
_cell_angle_gamma 89.811777
loop_
_atom_site_label
_atom_site_type_symbol
_atom_site_fract_x
_atom_site_fract_y
_atom_site_fract_z
_atom_type_partial_charge
H0 H 0.78952 0.48398 0.2647 0.0
H1 H 0.73493 0.49887 0.15678 0.0
H2 H 0.7514 0.52689 0.37212 0.0
H3 H 0.70191 0.52351 0.34306 0.0
C4 C 0.70571 0.51646 0.28661 0.0
O5 O 0.72361 0.52396 0.26217 0.0
H6 H 0.70678 0.50038 0.29705 0.0
C7 C 0.77571 0.49194 0.26692 0.0
C8 C 0.77223 0.50541 0.32742 0.0
C9 C 0.76238 0.4896 0.20576 0.0
C10 C 0.74504 0.50051 0.20487 0.0
C11 C 0.74069 0.51359 0.26543 0.0
C12 C 0.75446 0.51633 0.32647 0.0
H13 H 0.98768 0.79698 0.24056 0.0
H14 H 0.99104 0.73604 0.17924 0.0
H15 H 1.00728 0.75481 0.40995 0.0
H16 H 0.02861 0.70942 0.34327 0.0
C17 C 0.02074 0.71438 0.29022 0.0
O18 O 1.00373 0.72408 0.313 0.0
H19 H 0.03095 0.72449 0.25955 0.0
C20 C 0.99051 0.78193 0.25748 0.0
C21 C 0.99698 0.77799 0.33345 0.0
C22 C 0.98838 0.767 0.20172 0.0
C23 C 0.99282 0.74767 0.22172 0.0
C24 C 0.99987 0.74318 0.29599 0.0
C25 C 1.00211 0.75837 0.35212 0.0
H26 H 0.7263 0.98612 0.24426 0.0
H27 H 0.78758 0.98895 0.18721 0.0
H28 H 0.76788 1.0051 0.41691 0.0
H29 H 0.81355 0.02583 0.35537 0.0
C30 C 0.80879 0.01814 0.30154 0.0
O31 O 0.79906 1.0011 0.32263 0.0
H32 H 0.79876 0.02848 0.27083 0.0
C33 C 0.74135 0.98869 0.2619 0.0
C34 C 0.74509 0.99509 0.33805 0.0
C35 C 0.75648 0.98682 0.20685 0.0
C36 C 0.7758 0.99066 0.22904 0.0
C37 C 0.78004 0.99739 0.30405 0.0
C38 C 0.76462 0.99989 0.35877 0.0
H39 H 0.54476 0.7382 0.27183 0.0
H40 H 0.5392 0.79701 0.18617 0.0
H41 H 0.50128 0.77692 0.37048 0.0
H42 H 0.48269 0.81563 0.26915 0.0
C43 C 0.49596 0.81302 0.23297 0.0
O44 O 0.51124 0.80746 0.28148 0.0
H45 H 0.49211 0.80097 0.19176 0.0
C46 C 0.53784 0.75255 0.27546 0.0
C47 C 0.52228 0.75547 0.32745 0.0
C48 C 0.54397 0.76733 0.22463 0.0
C49 C 0.53482 0.78568 0.22667 0.0
C50 C 0.51963 0.78935 0.27993 0.0
C51 C 0.51332 0.77422 0.33069 0.0
H52 H 0.22753 0.55164 0.12515 0.0
H53 H 0.2837 0.54139 0.23071 0.0
H54 H 0.26148 0.5009 0.05898 0.0
H55 H 0.2978 0.48152 0.17734 0.0
C56 C 0.29557 0.49591 0.20649 0.0
O57 O 0.29192 0.50994 0.15001 0.0
H58 H 0.28264 0.4943 0.24567 0.0
C59 C 0.24093 0.54303 0.12866 0.0
C60 C 0.24264 0.52585 0.08434 0.0
C61 C 0.2555 0.54863 0.18165 0.0
C62 C 0.27246 0.53722 0.18931 0.0
C63 C 0.27484 0.52017 0.14445 0.0
C64 C 0.25975 0.51422 0.09282 0.0
H65 H 0.02623 0.23205 0.19785 0.0
H66 H 0.01592 0.29239 0.25289 0.0
H67 H 1.01099 0.27255 0.01494 0.0
H68 H 0.02163 0.32377 0.04154 0.0
C69 C 0.02243 0.31834 0.10234 0.0
O70 O 1.00857 0.30361 0.11144 0.0
H71 H 0.0376 0.3125 0.10997 0.0
C72 C 0.02274 0.24673 0.17781 0.0
C73 C 0.01885 0.25 0.09874 0.0
C74 C 0.02206 0.26194 0.23259 0.0
C75 C 0.01686 0.28081 0.20987 0.0
C76 C 0.0132 0.28486 0.13145 0.0
C77 C 0.01401 0.26942 0.07549 0.0
H78 H 0.2948 0.98816 0.15718 0.0
H79 H 0.23983 0.99891 0.27141 0.0
H80 H 0.25318 0.02845 0.05636 0.0
H81 H 0.21065 0.99883 0.13728 0.0
C82 C 0.20888 0.01498 0.1447 0.0
O83 O 0.22635 0.02351 0.16855 0.0
H84 H 0.20495 0.02115 0.087 0.0
C85 C 0.28051 0.99525 0.15741 0.0
C86 C 0.27565 1.00842 0.09798 0.0
C87 C 0.26774 0.99185 0.21966 0.0
C88 C 0.24958 1.00134 0.22259 0.0
C89 C 0.24402 0.01427 0.16324 0.0
C90 C 0.25721 0.01807 0.10116 0.0
H91 H 0.52588 0.30573 0.15084 0.0
H92 H 0.52196 0.24675 0.2358 0.0
H93 H 0.49459 0.26227 0.01799 0.0
H94 H 0.47316 0.22446 0.10999 0.0
C95 C 0.48471 0.22612 0.1551 0.0
O96 O 0.50149 0.23323 0.11921 0.0
H97 H 0.47911 0.23671 0.19939 0.0
C98 C 0.52079 0.29076 0.14328 0.0
C99 C 0.50995 0.28584 0.07709 0.0
C100 C 0.52503 0.27681 0.20036 0.0
C101 C 0.51864 0.25751 0.19145 0.0
C102 C 0.50753 0.25214 0.12619 0.0
C103 C 0.5031 0.26637 0.06862 0.0
Sm104 Sm 0.02057 1.00596 0.81393 0.0
Sm105 Sm 0.9998 0.0185 0.64858 0.0
C106 C 0.02382 0.98981 0.95117 0.0
C107 C 0.01495 0.97094 0.97171 0.0
C108 C 0.99711 0.96557 0.93674 0.0
C109 C 0.99156 0.94596 0.93278 0.0
C110 C 1.00384 0.93133 0.96314 0.0
C111 C 0.02091 0.93685 0.00369 0.0
C112 C 0.02643 0.95655 0.00786 0.0
C113 C 0.04862 0.01467 0.7018 0.0
C114 C 1.00762 0.97148 0.68273 0.0
C115 C 0.99579 0.03119 0.505 0.0
C116 C 1.00527 0.04746 0.46471 0.0
C117 C 0.02327 0.05459 0.49226 0.0
C118 C 0.03028 0.07264 0.46707 0.0
C119 C 0.01916 0.08401 0.41536 0.0
C120 C 1.00177 0.07628 0.38394 0.0
C121 C 0.99488 0.05804 0.40843 0.0
C122 C 0.97173 1.01004 0.7611 0.0
C123 C 0.01311 0.05292 0.78 0.0
O124 O 1.01163 1.00437 0.93812 0.0
O125 O 0.03756 0.98825 0.8982 0.0
O126 O 0.03017 0.01502 0.6952 0.0
O127 O 0.0529 1.01032 0.77346 0.0
O128 O 0.01372 0.97591 0.75412 0.0
O129 O 1.00238 0.98503 0.63151 0.0
O130 O 1.00714 0.01631 0.52313 0.0
O131 O 0.98417 0.03665 0.56189 0.0
O132 O 0.99018 1.00938 0.76702 0.0
O133 O 0.96742 0.01472 0.68986 0.0
O134 O 1.00771 0.04848 0.70742 0.0
O135 O 0.01758 0.03937 0.83259 0.0
H136 H 0.98817 0.9763 0.90679 0.0
H137 H 0.97816 0.94217 0.90248 0.0
H138 H 0.03074 0.92589 0.02734 0.0
H139 H 0.04043 0.96032 0.03359 0.0
H140 H 0.0312 0.04692 0.53747 0.0
H141 H 0.04355 0.07841 0.4931 0.0
H142 H 0.99298 0.08484 0.34393 0.0
H143 H 0.98085 0.05284 0.3874 0.0
Sm144 Sm 0.51392 0.02924 0.76705 0.0
Sm145 Sm 0.50045 1.01017 0.6117 0.0
C146 C 0.53424 0.03781 0.89217 0.0
C147 C 0.55451 0.03154 0.90838 0.0
C148 C 0.56011 1.01187 0.8963 0.0
C149 C 0.57988 1.00667 0.89296 0.0
C150 C 0.59445 0.02104 0.90087 0.0
C151 C 0.58887 0.04052 0.91686 0.0
C152 C 0.56905 0.04571 0.92072 0.0
C153 C 0.5019 0.05536 0.6541 0.0
C154 C 0.54736 0.01548 0.63612 0.0
C155 C 0.48462 1.00365 0.47465 0.0
C156 C 0.4687 0.99044 0.45073 0.0
C157 C 0.45296 0.99795 0.40773 0.0
C158 C 0.43616 0.98667 0.39608 0.0
C159 C 0.43485 0.9676 0.42692 0.0
C160 C 0.45104 0.95978 0.46685 0.0
C161 C 0.46778 0.97113 0.47896 0.0
C162 C 0.50481 0.98061 0.72222 0.0
C163 C 0.46762 0.02059 0.74995 0.0
O164 O 0.52089 0.02401 0.8915 0.0
O165 O 0.53255 0.04994 0.83371 0.0
O166 O 0.51225 0.04018 0.6425 0.0
O167 O 0.49779 0.05728 0.72768 0.0
O168 O 0.54321 0.01884 0.71029 0.0
O169 O 0.53329 0.01378 0.58369 0.0
O170 O 0.47916 0.01825 0.51972 0.0
O171 O 0.50105 0.99531 0.49688 0.0
O172 O 0.50763 0.99869 0.73087 0.0
O173 O 0.49971 0.97741 0.65075 0.0
O174 O 0.47115 0.01848 0.67439 0.0
O175 O 0.48201 0.02267 0.80086 0.0
H176 H 0.54926 1.00064 0.88502 0.0
H177 H 0.58375 0.99158 0.88011 0.0
H178 H 0.59984 0.05181 0.92468 0.0
H179 H 0.56508 0.06097 0.92919 0.0
H180 H 0.45328 0.01288 0.38633 0.0
H181 H 0.42385 0.9933 0.3662 0.0
H182 H 0.45058 0.94509 0.49048 0.0
H183 H 0.47968 0.96501 0.51292 0.0
Sm184 Sm 0.49722 0.52871 0.79655 0.0
Sm185 Sm 0.51259 0.51549 0.63104 0.0
C186 C 0.49286 0.54569 0.93358 0.0
C187 C 0.50304 0.56246 0.97014 0.0
C188 C 0.52263 0.56077 0.99511 0.0
C189 C 0.53309 0.57737 0.01805 0.0
C190 C 0.52413 0.59593 0.0173 0.0
C191 C 0.50424 0.59745 0.99652 0.0
C192 C 0.49379 0.58087 0.97332 0.0
C193 C 0.46851 0.51788 0.69147 0.0
C194 C 0.50864 0.56243 0.66463 0.0
C195 C 0.51482 0.50143 0.4886 0.0
C196 C 0.5257 0.48486 0.45444 0.0
C197 C 0.51531 0.46993 0.41655 0.0
C198 C 0.52465 0.45238 0.3968 0.0
C199 C 0.54464 0.44951 0.414 0.0
C200 C 0.5553 0.46498 0.44753 0.0
C201 C 0.5459 0.48246 0.46803 0.0
C202 C 0.54415 0.51877 0.73406 0.0
C203 C 0.50507 0.48207 0.76721 0.0
O204 O 0.50323 0.52968 0.9232 0.0
O205 O 0.48175 0.54987 0.87369 0.0
O206 O 0.48378 0.52758 0.67603 0.0
O207 O 0.4675 0.51442 0.76574 0.0
O208 O 0.50726 0.55813 0.73976 0.0
O209 O 0.50862 0.54855 0.6107 0.0
O210 O 0.50091 0.49647 0.53747 0.0
O211 O 0.52518 0.51652 0.51222 0.0
O212 O 0.52627 0.52187 0.74648 0.0
O213 O 0.54614 0.51363 0.66169 0.0
O214 O 0.50529 0.48596 0.69168 0.0
O215 O 0.50449 0.49617 0.82033 0.0
H216 H 0.53013 0.54676 0.99475 0.0
H217 H 0.5483 0.57572 0.0352 0.0
H218 H 0.49696 0.61159 0.995 0.0
H219 H 0.47869 0.58259 0.95486 0.0
H220 H 0.4997 0.47144 0.40605 0.0
H221 H 0.5159 0.4407 0.37202 0.0
H222 H 0.57078 0.46335 0.4603 0.0
H223 H 0.55429 0.49372 0.49747 0.0
Sm224 Sm 1.00071 0.50443 0.78585 0.0
Sm225 Sm 0.01468 0.52501 0.62118 0.0
C226 C 0.98303 0.4981 0.91833 0.0
C227 C 0.96482 0.48696 0.92919 0.0
C228 C 0.94892 0.49584 0.96722 0.0
C229 C 0.93017 0.48789 0.96029 0.0
C230 C 0.92706 0.47091 0.91532 0.0
C231 C 0.94317 0.46132 0.88143 0.0
C232 C 0.96189 0.46934 0.88788 0.0
C233 C 1.00571 0.47694 0.66677 0.0
C234 C 0.96747 0.51533 0.64819 0.0
C235 C 0.03097 0.52981 0.48393 0.0
C236 C 0.04987 0.53834 0.4603 0.0
C237 C 0.06733 0.53255 0.49729 0.0
C238 C 0.08507 0.5413 0.47779 0.0
C239 C 0.08572 0.55617 0.42166 0.0
C240 C 0.06831 0.56211 0.38488 0.0
C241 C 0.05049 0.55316 0.40384 0.0
C242 C 1.01094 0.55273 0.74016 0.0
C243 C 0.04764 0.51368 0.75974 0.0
O244 O 0.98068 0.51446 0.8793 0.0
O245 O 0.99856 0.48799 0.89667 0.0
O246 O 1.00719 0.49532 0.66445 0.0
O247 O 1.00149 0.4722 0.73802 0.0
O248 O 0.97132 0.50989 0.72083 0.0
O249 O 0.9814 0.52079 0.59859 0.0
O250 O 0.03194 0.51326 0.5226 0.0
O251 O 0.01798 0.54218 0.51225 0.0
O252 O 1.00816 0.53445 0.74349 0.0
O253 O 0.0155 0.55708 0.66877 0.0
O254 O 0.0441 0.51894 0.68646 0.0
O255 O 0.03361 0.5089 0.80976 0.0
H256 H 0.95081 0.50954 0.99847 0.0
H257 H 0.91798 0.49532 0.98835 0.0
H258 H 0.94114 0.44821 0.84664 0.0
H259 H 0.97384 0.46232 0.85679 0.0
H260 H 0.06731 0.52139 0.54201 0.0
H261 H 0.0983 0.53663 0.50749 0.0
H262 H 0.06853 0.57349 0.34104 0.0
H263 H 0.03718 0.55794 0.37506 0.0
H264 H 0.16968 0.01738 0.11348 0.0
H265 H 0.14205 0.01925 0.20414 0.0
H266 H 0.18243 0.02112 0.39707 0.0
H267 H 0.21011 0.01874 0.30624 0.0
H268 H 0.15452 0.99677 0.42968 0.0
H269 H 0.15457 0.06249 0.332 0.0
H270 H 0.15402 0.08851 0.23272 0.0
H271 H 0.09824 0.06801 0.15057 0.0
H272 H 0.09858 0.04168 0.24867 0.0
H273 H 0.08713 0.02246 0.7235 0.0
H274 H 0.11322 0.02442 0.62657 0.0
H275 H 0.07096 0.01526 0.44367 0.0
H276 H 0.04467 0.01307 0.54153 0.0
H277 H 0.09891 0.04342 0.40373 0.0
H278 H 0.09907 0.97779 0.50212 0.0
H279 H 0.09943 0.95232 0.60365 0.0
H280 H 0.15503 0.97332 0.68579 0.0
H281 H 0.15487 0.99911 0.5854 0.0
C282 C 0.17268 0.01858 0.1752 0.0
C283 C 0.19217 0.01847 0.20223 0.0
C284 C 0.15683 0.01968 0.22719 0.0
C285 C 0.15997 0.02072 0.30798 0.0
C286 C 0.17947 0.02049 0.3352 0.0
C287 C 0.19536 0.01928 0.28309 0.0
C288 C 0.143 0.02105 0.36396 0.0
C289 C 0.14256 1.00721 0.42443 0.0
C290 C 0.12691 0.03422 0.35649 0.0
C291 C 0.12671 0.04998 0.29718 0.0
C292 C 0.14227 0.06342 0.29232 0.0
C293 C 0.14198 0.07825 0.23633 0.0
C294 C 0.12613 0.07988 0.18522 0.0
C295 C 0.11052 0.06671 0.19011 0.0
C296 C 0.11075 0.05184 0.24592 0.0
C297 C 0.08329 0.02105 0.66259 0.0
C298 C 0.06371 0.01781 0.64028 0.0
C299 C 0.0983 0.02211 0.60709 0.0
C300 C 0.09422 0.01976 0.52752 0.0
C301 C 0.07455 0.01715 0.5046 0.0
C302 C 0.05947 0.01604 0.56052 0.0
C303 C 0.11065 0.0193 0.46943 0.0
C304 C 0.11093 0.03303 0.40867 0.0
C305 C 0.12665 1.00608 0.4766 0.0
C306 C 0.12687 0.99049 0.53666 0.0
C307 C 0.1113 0.97707 0.54219 0.0
C308 C 0.11148 0.96256 0.59948 0.0
C309 C 0.12722 0.96123 0.65125 0.0
C310 C 0.14284 0.97438 0.64569 0.0
C311 C 0.14272 0.98893 0.58856 0.0
H312 H 0.12733 0.95 0.69558 0.0
H313 H 0.12592 0.09138 0.14196 0.0
H314 H 0.45796 0.19735 0.18294 0.0
H315 H 0.46149 0.16758 0.261 0.0
H316 H 0.52242 0.18122 0.30025 0.0
H317 H 0.51881 0.21121 0.22335 0.0
H318 H 0.48188 0.1348 0.2545 0.0
H319 H 0.53588 0.16621 0.48102 0.0
H320 H 0.54528 0.1982 0.5371 0.0
H321 H 0.48784 0.22105 0.48832 0.0
H322 H 0.47803 0.18914 0.43292 0.0
H323 H 0.51548 0.05722 0.50359 0.0
H324 H 0.51329 0.08502 0.4136 0.0
H325 H 0.48059 0.1179 0.58522 0.0
H326 H 0.48305 0.09034 0.67549 0.0
H327 H 0.50713 0.14079 0.52406 0.0
H328 H 0.4587 0.09692 0.42171 0.0
H329 H 0.44637 0.06541 0.37091 0.0
H330 H 0.48692 0.06845 0.18005 0.0
H331 H 0.49971 0.09984 0.23041 0.0
C332 C 0.4722 0.19383 0.20719 0.0
C333 C 0.48815 0.20656 0.19565 0.0
C334 C 0.47421 0.17678 0.25193 0.0
C335 C 0.49219 0.17207 0.2874 0.0
C336 C 0.50831 0.18454 0.27455 0.0
C337 C 0.50627 0.20168 0.22997 0.0
C338 C 0.4937 0.15462 0.34023 0.0
C339 C 0.48752 0.13613 0.31327 0.0
C340 C 0.50069 0.15621 0.4177 0.0
C341 C 0.50632 0.17536 0.45208 0.0
C342 C 0.52525 0.17805 0.48255 0.0
C343 C 0.53065 0.19616 0.51417 0.0
C344 C 0.51719 0.21167 0.51602 0.0
C345 C 0.49827 0.20906 0.48659 0.0
C346 C 0.49279 0.19096 0.45503 0.0
C347 C 0.50771 0.07033 0.52187 0.0
C348 C 0.49944 0.07154 0.5968 0.0
C349 C 0.50642 0.08625 0.47026 0.0
C350 C 0.49669 0.10368 0.4921 0.0
C351 C 0.48826 0.10475 0.56673 0.0
C352 C 0.48959 0.0889 0.61828 0.0
C353 C 0.49547 0.12092 0.43819 0.0
C354 C 0.50168 0.1394 0.46503 0.0
C355 C 0.48813 0.11937 0.36123 0.0
C356 C 0.4803 0.10063 0.33027 0.0
C357 C 0.46508 0.0908 0.36919 0.0
C358 C 0.458 0.07297 0.34046 0.0
C359 C 0.46589 0.06491 0.27242 0.0
C360 C 0.48084 0.0747 0.23282 0.0
C361 C 0.488 0.09252 0.26141 0.0
H362 H 0.4604 0.0511 0.2503 0.0
H363 H 0.52141 0.22569 0.5404 0.0
H364 H 0.30044 0.49432 0.36484 0.0
H365 H 0.33036 0.49897 0.44078 0.0
H366 H 0.3623 0.51215 0.23067 0.0
H367 H 0.33228 0.50693 0.15411 0.0
H368 H 0.38396 0.48917 0.31802 0.0
H369 H 0.34903 0.54847 0.36576 0.0
H370 H 0.32077 0.56932 0.40129 0.0
H371 H 0.32005 0.54425 0.63012 0.0
H372 H 0.34812 0.52301 0.59558 0.0
H373 H 0.46709 0.52564 0.5348 0.0
H374 H 0.43867 0.52294 0.4476 0.0
H375 H 0.40342 0.5021 0.63844 0.0
H376 H 0.43173 0.50466 0.72542 0.0
H377 H 0.38453 0.53101 0.55469 0.0
H378 H 0.41966 0.47086 0.50056 0.0
H379 H 0.44893 0.4517 0.46292 0.0
H380 H 0.45033 0.48077 0.24177 0.0
H381 H 0.42123 0.50035 0.27862 0.0
C382 C 0.31377 0.49849 0.33488 0.0
C383 C 0.31385 0.50072 0.25356 0.0
C384 C 0.33093 0.50118 0.37844 0.0
C385 C 0.34869 0.50629 0.34205 0.0
C386 C 0.34885 0.50834 0.26055 0.0
C387 C 0.33164 0.50554 0.21682 0.0
C388 C 0.36702 0.50907 0.38922 0.0
C389 C 0.38412 0.49859 0.36901 0.0
C390 C 0.3674 0.52118 0.45654 0.0
C391 C 0.35058 0.53401 0.47782 0.0
C392 C 0.34276 0.54729 0.42349 0.0
C393 C 0.32678 0.5592 0.44347 0.0
C394 C 0.31859 0.55808 0.51786 0.0
C395 C 0.32639 0.54508 0.57249 0.0
C396 C 0.34235 0.53312 0.55276 0.0
C397 C 0.45331 0.52035 0.55797 0.0
C398 C 0.45169 0.51535 0.6371 0.0
C399 C 0.43706 0.5188 0.50805 0.0
C400 C 0.41882 0.51228 0.53621 0.0
C401 C 0.41726 0.50722 0.61518 0.0
C402 C 0.43351 0.5086 0.66485 0.0
C403 C 0.40127 0.5109 0.48412 0.0
C404 C 0.38434 0.52168 0.50343 0.0
C405 C 0.40116 0.49929 0.41556 0.0
C406 C 0.41838 0.48722 0.39267 0.0
C407 C 0.42628 0.47326 0.4441 0.0
C408 C 0.44284 0.46232 0.42289 0.0
C409 C 0.45152 0.46506 0.35009 0.0
C410 C 0.44361 0.47869 0.2982 0.0
C411 C 0.42707 0.48971 0.31919 0.0
H412 H 0.46436 0.4566 0.33384 0.0
H413 H 0.30622 0.5673 0.53321 0.0
H414 H 0.03442 0.32145 0.25506 0.0
H415 H 0.03054 0.34923 0.34492 0.0
H416 H 1.00046 0.38186 0.16664 0.0
H417 H 1.00362 0.35371 0.07745 0.0
H418 H 0.03188 0.40334 0.24852 0.0
H419 H 0.97368 0.36573 0.30212 0.0
H420 H 0.95554 0.33562 0.33475 0.0
H421 H 0.98726 0.33101 0.54969 0.0
H422 H 1.0058 0.36095 0.51778 0.0
H423 H 1.00333 0.48223 0.50738 0.0
H424 H 1.00541 0.45671 0.40604 0.0
H425 H 0.01782 0.41343 0.58217 0.0
H426 H 0.0148 0.43856 0.68254 0.0
H427 H 0.99362 0.39808 0.49297 0.0
H428 H 0.05307 0.43331 0.44327 0.0
H429 H 0.07357 0.46207 0.41365 0.0
H430 H 0.04313 0.46996 0.19737 0.0
H431 H 0.0222 0.44141 0.22629 0.0
C432 C 0.02658 0.33435 0.23555 0.0
C433 C 0.0191 0.33523 0.15935 0.0
C434 C 0.02455 0.35034 0.28673 0.0
C435 C 0.01525 0.36774 0.2627 0.0
C436 C 1.00777 0.36867 0.18658 0.0
C437 C 1.00948 0.35253 0.1358 0.0
C438 C 0.01327 0.3848 0.31743 0.0
C439 C 0.02329 0.40234 0.30151 0.0
C440 C 1.00251 0.38339 0.38759 0.0
C441 C 0.99125 0.36548 0.4072 0.0
C442 C 0.9769 0.35821 0.35605 0.0
C443 C 0.96653 0.34119 0.37446 0.0
C444 C 0.97028 0.33138 0.44415 0.0
C445 C 0.98438 0.33861 0.49568 0.0
C446 C 0.99481 0.35561 0.47749 0.0
C447 C 1.00675 0.4673 0.52401 0.0
C448 C 1.00898 0.46244 0.60297 0.0
C449 C 1.00798 0.45265 0.466 0.0
C450 C 1.01192 0.43292 0.48561 0.0
C451 C 0.01461 0.42834 0.56464 0.0
C452 C 0.013 0.44282 0.62228 0.0
C453 C 0.01259 0.41676 0.42547 0.0
C454 C 1.00224 0.3993 0.44012 0.0
C455 C 0.02339 0.41816 0.35494 0.0
C456 C 0.03591 0.43536 0.33741 0.0
C457 C 0.05063 0.44128 0.38971 0.0
C458 C 0.06234 0.45753 0.373 0.0
C459 C 0.05961 0.46788 0.3038 0.0
C460 C 0.04519 0.46196 0.25105 0.0
C461 C 0.0334 0.44574 0.26757 0.0
H462 H 0.06871 0.48044 0.29097 0.0
H463 H 0.96224 0.3182 0.4583 0.0
H464 H 0.8474 0.01281 0.34468 0.0
H465 H 0.87632 1.00873 0.26061 0.0
H466 H 0.83902 1.00948 0.0582 0.0
H467 H 0.81017 0.01392 0.14208 0.0
H468 H 0.86832 0.98074 0.0483 0.0
H469 H 0.86361 0.04993 0.10998 0.0
H470 H 0.86191 0.0785 0.19811 0.0
H471 H 0.91744 0.06252 0.29771 0.0
H472 H 0.91933 0.03368 0.21085 0.0
H473 H 0.93293 1.00335 0.74133 0.0
H474 H 0.90712 1.00193 0.83937 0.0
H475 H 0.95019 1.00987 0.02035 0.0
H476 H 0.97604 1.01214 0.92109 0.0
H477 H 0.91978 0.03203 0.05111 0.0
H478 H 0.92666 0.96475 0.98738 0.0
H479 H 0.92941 0.93558 0.90296 0.0
H480 H 0.87147 0.94617 0.8144 0.0
H481 H 0.86847 0.97561 0.8974 0.0
C482 C 0.84538 1.01195 0.28227 0.0
C483 C 0.82649 0.01375 0.25006 0.0
C484 C 0.86193 1.00969 0.23418 0.0
C485 C 0.85997 1.00899 0.15271 0.0
C486 C 0.841 1.00997 0.1207 0.0
C487 C 0.82449 0.01245 0.16873 0.0
C488 C 0.87763 1.00785 0.10066 0.0
C489 C 0.87948 0.99205 0.04843 0.0
C490 C 0.89264 0.0222 0.1024 0.0
C491 C 0.8915 0.03952 0.15457 0.0
C492 C 0.87537 0.05241 0.15116 0.0
C493 C 0.87439 0.06867 0.20078 0.0
C494 C 0.88952 0.07229 0.25365 0.0
C495 C 0.9057 0.05968 0.25685 0.0
C496 C 0.90675 0.04338 0.20742 0.0
C497 C 0.93699 1.00457 0.80208 0.0
C498 C 0.95671 1.00741 0.82336 0.0
C499 C 0.92216 1.00364 0.85839 0.0
C500 C 0.92656 1.00539 0.93803 0.0
C501 C 0.9463 1.00827 0.95958 0.0
C502 C 0.96119 1.00928 0.90285 0.0
C503 C 0.9104 1.00503 0.99762 0.0
C504 C 0.90878 0.02057 0.05129 0.0
C505 C 0.89575 0.99027 0.998 0.0
C506 C 0.8974 0.9725 0.94824 0.0
C507 C 0.91455 0.96095 0.94951 0.0
C508 C 0.91615 0.94435 0.90196 0.0
C509 C 0.90064 0.93904 0.85325 0.0
C510 C 0.88347 0.9503 0.85213 0.0
C511 C 0.88181 0.96694 0.89949 0.0
H512 H 0.9019 0.92618 0.81646 0.0
H513 H 0.88874 0.08489 0.29199 0.0
H514 H 0.49594 0.85125 0.28521 0.0
H515 H 0.50035 0.88141 0.2094 0.0
H516 H 0.5107 0.84668 0.00301 0.0
H517 H 0.50681 0.81663 0.0793 0.0
H518 H 0.53428 0.87663 1.0006 0.0
H519 H 0.46488 0.86952 0.04805 0.0
H520 H 0.43479 0.86632 0.12678 0.0
H521 H 0.44695 0.92127 0.23932 0.0
H522 H 0.47726 0.92468 0.16187 0.0
H523 H 0.50608 0.94128 0.69857 0.0
H524 H 0.50775 0.91513 0.79529 0.0
H525 H 0.50867 0.95825 0.97926 0.0
H526 H 0.50732 0.98468 0.88178 0.0
H527 H 0.48138 0.92677 0.00379 0.0
H528 H 0.54907 0.93532 0.94501 0.0
H529 H 0.57786 0.93907 0.85949 0.0
H530 H 0.56811 0.88162 0.76432 0.0
H531 H 0.53904 0.87764 0.84834 0.0
C532 C 0.49939 0.85012 0.22384 0.0
C533 C 0.50079 0.83158 0.18805 0.0
C534 C 0.50174 0.86737 0.18025 0.0
C535 C 0.50543 0.8665 0.09963 0.0
C536 C 0.50775 0.84791 0.06477 0.0
C537 C 0.50549 0.83069 0.10841 0.0
C538 C 0.50645 0.88477 0.05103 0.0
C539 C 0.5226 0.88747 1.00111 0.0
C540 C 0.49154 0.89939 0.05253 0.0
C541 C 0.47347 0.89722 0.09987 0.0
C542 C 0.46124 0.88082 0.09011 0.0
C543 C 0.44412 0.879 0.13439 0.0
C544 C 0.439 0.89355 0.18819 0.0
C545 C 0.45097 0.90998 0.19775 0.0
C546 C 0.46811 0.91187 0.15367 0.0
C547 C 0.50678 0.94525 0.75958 0.0
C548 C 0.50665 0.96508 0.78245 0.0
C549 C 0.50776 0.93025 0.81491 0.0
C550 C 0.50843 0.93464 0.89476 0.0
C551 C 0.5082 0.95446 0.91804 0.0
C552 C 0.50753 0.96956 0.86235 0.0
C553 C 0.50899 0.91835 0.95296 0.0
C554 C 0.49315 0.91602 0.00431 0.0
C555 C 0.52411 0.90405 0.95259 0.0
C556 C 0.54176 0.90624 0.90262 0.0
C557 C 0.55297 0.92353 0.90545 0.0
C558 C 0.56935 0.9257 0.85729 0.0
C559 C 0.57479 0.91061 0.80639 0.0
C560 C 0.56387 0.8933 0.80374 0.0
C561 C 0.54745 0.89107 0.85169 0.0
H562 H 0.58747 0.91231 0.7691 0.0
H563 H 0.42574 0.89212 0.22234 0.0
H564 H 0.70719 0.51721 0.12422 0.0
H565 H 0.67976 0.51875 0.03276 0.0
H566 H 0.63929 0.52411 0.22471 0.0
H567 H 0.6667 0.52199 0.31628 0.0
H568 H 0.62502 0.49914 0.12501 0.0
H569 H 0.65148 0.56382 0.10186 0.0
H570 H 0.67701 0.58875 0.0802 0.0
H571 H 0.68713 0.56609 0.85019 0.0
H572 H 0.66181 0.54085 0.87084 0.0
H573 H 0.54165 0.52479 0.89175 0.0
H574 H 0.56861 0.52604 0.9865 0.0
H575 H 0.61028 0.51623 0.80135 0.0
H576 H 0.5834 0.51521 0.70696 0.0
H577 H 0.62336 0.54424 0.89934 0.0
H578 H 0.59648 0.47951 0.92407 0.0
H579 H 0.57031 0.45526 0.9461 0.0
H580 H 0.5605 0.47865 0.17516 0.0
H581 H 0.58635 0.50332 0.1539 0.0
C582 C 0.69252 0.51895 0.14706 0.0
C583 C 0.68927 0.51989 0.22791 0.0
C584 C 0.67674 0.5199 0.09448 0.0
C585 C 0.65728 0.52182 0.12125 0.0
C586 C 0.65406 0.52271 0.20201 0.0
C587 C 0.6698 0.52169 0.25446 0.0
C588 C 0.64027 0.52233 0.06555 0.0
C589 C 0.62457 0.50924 0.07641 0.0
C590 C 0.63965 0.53518 1.00081 0.0
C591 C 0.65489 0.55032 0.98821 0.0
C592 C 0.65926 0.56405 0.04689 0.0
C593 C 0.67367 0.57826 0.03475 0.0
C594 C 0.68373 0.57897 0.96394 0.0
C595 C 0.67935 0.56551 0.90505 0.0
C596 C 0.66496 0.55126 0.91691 0.0
C597 C 0.55657 0.52305 0.87142 0.0
C598 C 0.56037 0.51996 0.79192 0.0
C599 C 0.572 0.52363 0.92563 0.0
C600 C 0.5916 0.52106 0.90149 0.0
C601 C 0.59537 0.51827 0.82177 0.0
C602 C 0.57996 0.51763 0.76778 0.0
C603 C 0.60819 0.52107 0.95885 0.0
C604 C 0.6238 0.53422 0.94819 0.0
C605 C 0.60868 0.50834 0.02393 0.0
C606 C 0.59322 0.49342 0.03704 0.0
C607 C 0.58863 0.4796 0.97889 0.0
C608 C 0.57386 0.46577 0.99125 0.0
C609 C 0.56371 0.46545 0.06189 0.0
C610 C 0.56835 0.47894 0.12039 0.0
C611 C 0.58305 0.49286 0.1082 0.0
H612 H 0.55229 0.45472 0.07136 0.0
H613 H 0.69488 0.58998 0.95465 0.0
H614 H 0.01733 0.71322 0.13051 0.0
H615 H 0.01305 0.68456 0.04562 0.0
H616 H 1.0103 0.64711 0.24698 0.0
H617 H 0.01457 0.67585 0.33198 0.0
H618 H 0.03472 0.63175 0.13756 0.0
H619 H 0.9691 0.65726 0.13915 0.0
H620 H 0.94371 0.68284 0.12514 0.0
H621 H 0.95997 0.69085 0.88596 0.0
H622 H 0.98566 0.6655 0.89883 0.0
H623 H 1.009 0.54726 0.90038 0.0
H624 H 1.00865 0.57297 0.00197 0.0
H625 H 1.00976 0.61745 0.82426 0.0
H626 H 1.01016 0.59212 0.72404 0.0
H627 H 0.984 0.62752 0.93175 0.0
H628 H 0.05055 0.6053 0.92853 0.0
H629 H 0.07906 0.58318 0.94079 0.0
H630 H 0.06346 0.5711 0.17783 0.0
H631 H 0.03463 0.59291 0.16666 0.0
C632 C 0.01551 0.69891 0.15667 0.0
C633 C 0.0163 0.69682 0.23801 0.0
C634 C 0.01308 0.68248 0.10806 0.0
C635 C 1.01125 0.66352 0.13949 0.0
C636 C 1.01171 0.66148 0.22093 0.0
C637 C 0.01404 0.67794 0.26958 0.0
C638 C 1.00948 0.64585 0.08733 0.0
C639 C 0.02336 0.63062 0.09364 0.0
C640 C 0.99502 0.6445 0.02836 0.0
C641 C 0.97941 0.65957 0.02015 0.0
C642 C 0.96734 0.66456 0.08369 0.0
C643 C 0.95289 0.67901 0.07594 0.0
C644 C 0.95025 0.68849 0.00475 0.0
C645 C 0.96203 0.6835 0.94108 0.0
C646 C 0.97653 0.66907 0.94855 0.0
C647 C 1.00901 0.56253 0.88329 0.0
C648 C 1.00953 0.5676 0.80399 0.0
C649 C 1.00895 0.57725 0.94137 0.0
C650 C 1.00926 0.59732 0.92122 0.0
C651 C 1.00945 0.60222 0.84193 0.0
C652 C 1.0097 0.58763 0.78441 0.0
C653 C 1.00938 0.61342 0.98135 0.0
C654 C 0.99518 0.62842 0.97647 0.0
C655 C 0.0237 0.61465 0.04102 0.0
C656 C 0.04024 0.60052 0.04636 0.0
C657 C 0.05298 0.59766 0.98284 0.0
C658 C 0.06925 0.58525 0.9897 0.0
C659 C 0.07304 0.57577 0.06001 0.0
C660 C 0.06047 0.57846 0.12339 0.0
C661 C 0.04415 0.59082 0.11679 0.0
H662 H 0.08581 0.56644 0.06553 0.0
H663 H 0.93906 0.69969 0.99888 0.0
H664 H 0.9978 0.2503 0.34782 0.0
H665 H 1.00763 0.22479 0.43845 0.0
H666 H 0.06839 0.23561 0.3839 0.0
H667 H 0.05847 0.26128 0.29352 0.0
H668 H 0.05109 0.20466 0.30373 0.0
H669 H 0.05824 0.2248 0.56575 0.0
H670 H 0.05003 0.24171 0.6885 0.0
H671 H 0.9976 0.20743 0.70951 0.0
H672 H 1.00522 0.19057 0.5861 0.0
H673 H 0.05464 0.10025 0.3783 0.0
H674 H 0.06302 0.13531 0.38138 0.0
H675 H 1.003 0.14952 0.43888 0.0
H676 H 0.99456 0.11477 0.43529 0.0
H677 H 0.03075 0.16753 0.53736 0.0
H678 H 0.01587 0.15815 0.26696 0.0
H679 H 0.01818 0.14438 0.13438 0.0
H680 H 0.07875 0.16112 0.12193 0.0
H681 H 0.07685 0.17483 0.255 0.0
C682 C 0.01327 0.2483 0.36 0.0
C683 C 0.02742 0.25728 0.31304 0.0
C684 C 0.01895 0.2337 0.41203 0.0
C685 C 0.03873 0.22792 0.41587 0.0
C686 C 0.05305 0.23979 0.38124 0.0
C687 C 0.04737 0.25446 0.3295 0.0
C688 C 0.04276 0.20677 0.42478 0.0
C689 C 0.04748 0.19653 0.356 0.0
C690 C 0.03708 0.19627 0.49175 0.0
C691 C 0.0323 0.20645 0.5661 0.0
C692 C 0.04484 0.22098 0.59601 0.0
C693 C 0.04029 0.23057 0.6658 0.0
C694 C 0.02324 0.22574 0.70649 0.0
C695 C 1.01076 0.21122 0.67772 0.0
C696 C 0.01522 0.20161 0.60788 0.0
C697 C 0.04324 0.11095 0.39042 0.0
C698 C 0.02393 0.10492 0.40575 0.0
C699 C 0.04804 0.13085 0.39256 0.0
C700 C 0.03364 0.14484 0.41126 0.0
C701 C 0.01432 0.13885 0.42509 0.0
C702 C 1.00946 0.11907 0.42185 0.0
C703 C 0.03845 0.16584 0.41594 0.0
C704 C 0.03528 0.17579 0.48663 0.0
C705 C 0.04482 0.17629 0.34997 0.0
C706 C 0.04635 0.16709 0.2717 0.0
C707 C 0.02979 0.15856 0.2366 0.0
C708 C 0.03099 0.15086 0.1612 0.0
C709 C 0.04865 0.15172 0.12007 0.0
C710 C 0.06513 0.16033 0.15415 0.0
C711 C 0.064 0.16806 0.22957 0.0
H712 H 0.0495 0.14583 0.06159 0.0
H713 H 0.01977 0.23313 0.76065 0.0
H714 H 0.26338 0.95251 0.24037 0.0
H715 H 0.28404 0.93187 0.32391 0.0
H716 H 0.31054 0.98413 0.42003 0.0
H717 H 0.28935 1.00432 0.34006 0.0
H718 H 0.31906 0.92868 0.29947 0.0
H719 H 0.33626 0.98054 0.56956 0.0
H720 H 0.31797 0.99565 0.67785 0.0
H721 H 0.27067 0.95521 0.64168 0.0
H722 H 0.28893 0.93954 0.53429 0.0
H723 H 0.40947 0.96562 0.30443 0.0
H724 H 0.37612 0.95349 0.30582 0.0
H725 H 0.3843 0.93186 0.53948 0.0
H726 H 0.41753 0.94522 0.54013 0.0
H727 H 0.35294 0.95083 0.53891 0.0
H728 H 0.37231 0.89914 0.38461 0.0
H729 H 0.39069 0.8806 0.28499 0.0
H730 H 0.36288 0.91406 0.10473 0.0
H731 H 0.34455 0.93304 0.20306 0.0
C732 C 0.27291 0.95941 0.28271 0.0
C733 C 0.27485 0.97987 0.28471 0.0
C734 C 0.28478 0.94767 0.3301 0.0
C735 C 0.29896 0.95631 0.37875 0.0
C736 C 0.29948 0.97689 0.38519 0.0
C737 C 0.28746 0.98854 0.33886 0.0
C738 C 0.31609 0.9448 0.40723 0.0
C739 C 0.32627 0.93315 0.35278 0.0
C740 C 0.32521 0.94929 0.4791 0.0
C741 C 0.31412 0.95875 0.5439 0.0
C742 C 0.32211 0.97467 0.5853 0.0
C743 C 0.31169 0.9834 0.64641 0.0
C744 C 0.29317 0.97638 0.66673 0.0
C745 C 0.28503 0.96064 0.62587 0.0
C746 C 0.29542 0.95184 0.56478 0.0
C747 C 0.40429 0.9581 0.35588 0.0
C748 C 0.41608 0.95669 0.4225 0.0
C749 C 0.38526 0.95079 0.35619 0.0
C750 C 0.37767 0.94143 0.42244 0.0
C751 C 0.38983 0.93888 0.48749 0.0
C752 C 0.40889 0.94643 0.48752 0.0
C753 C 0.35631 0.93729 0.42626 0.0
C754 C 0.3454 0.94567 0.4873 0.0
C755 C 0.34632 0.9291 0.36192 0.0
C756 C 0.35693 0.91748 0.30157 0.0
C757 C 0.37011 0.90258 0.32374 0.0
C758 C 0.38055 0.892 0.26744 0.0
C759 C 0.37794 0.89613 0.18859 0.0
C760 C 0.36483 0.91083 0.16585 0.0
C761 C 0.35435 0.92146 0.2219 0.0
H762 H 0.38609 0.88796 0.14512 0.0
H763 H 0.28511 0.98315 0.71405 0.0
H764 H 0.56411 0.27381 0.22792 0.0
H765 H 0.58257 0.29651 0.31075 0.0
H766 H 0.52801 0.31899 0.40363 0.0
H767 H 0.50991 0.29601 0.32325 0.0
H768 H 0.57871 0.33165 0.26956 0.0
H769 H 0.53124 0.34789 0.54975 0.0
H770 H 0.51917 0.33014 0.66463 0.0
H771 H 0.56311 0.28569 0.62991 0.0
H772 H 0.5758 0.30348 0.51594 0.0
H773 H 0.53905 0.42352 0.29444 0.0
H774 H 0.54945 0.38941 0.28913 0.0
H775 H 0.58171 0.39688 0.50315 0.0
H776 H 0.57032 0.4308 0.51144 0.0
H777 H 0.56027 0.36608 0.51333 0.0
H778 H 0.60623 0.38712 0.32849 0.0
H779 H 0.61884 0.40568 0.2163 0.0
H780 H 0.57971 0.37467 0.06411 0.0
H781 H 0.56674 0.35607 0.1752 0.0
C782 C 0.55626 0.28276 0.26994 0.0
C783 C 0.53571 0.28335 0.26974 0.0
C784 C 0.56677 0.29578 0.31696 0.0
C785 C 0.55674 0.30964 0.36306 0.0
C786 C 0.53623 0.30831 0.36994 0.0
C787 C 0.52579 0.29522 0.32359 0.0
C788 C 0.56625 0.32844 0.38435 0.0
C789 C 0.57511 0.33903 0.32373 0.0
C790 C 0.56222 0.33801 0.4558 0.0
C791 C 0.55456 0.32714 0.52428 0.0
C792 C 0.53851 0.33448 0.56712 0.0
C793 C 0.53151 0.32437 0.63201 0.0
C794 C 0.54038 0.30679 0.65461 0.0
C795 C 0.55625 0.2993 0.6123 0.0
C796 C 0.56335 0.30941 0.54749 0.0
C797 C 0.54849 0.41799 0.3401 0.0
C798 C 0.55372 0.42988 0.40359 0.0
C799 C 0.5547 0.39853 0.3364 0.0
C800 C 0.56666 0.39065 0.39515 0.0
C801 C 0.57266 0.40271 0.45683 0.0
C802 C 0.56626 0.42216 0.46104 0.0
C803 C 0.57075 0.36932 0.39584 0.0
C804 C 0.56459 0.35844 0.46059 0.0
C805 C 0.57737 0.3594 0.3284 0.0
C806 C 0.58549 0.37018 0.26053 0.0
C807 C 0.60028 0.38428 0.27114 0.0
C808 C 0.6075 0.39481 0.20767 0.0
C809 C 0.60009 0.39136 0.13313 0.0
C810 C 0.58548 0.37731 0.12185 0.0
C811 C 0.57823 0.36672 0.18509 0.0
H812 H 0.60566 0.39956 0.08411 0.0
H813 H 0.53494 0.29897 0.70487 0.0
H814 H 0.25075 0.58728 0.14766 0.0
H815 H 0.22636 0.60775 0.21337 0.0
H816 H 0.22306 0.56535 0.39887 0.0
H817 H 0.24792 0.54551 0.33488 0.0
H818 H 0.19424 0.58832 0.20386 0.0
H819 H 0.19399 0.57724 0.54107 0.0
H820 H 0.21621 0.58285 0.65179 0.0
H821 H 0.24611 0.62767 0.52347 0.0
H822 H 0.22389 0.62254 0.4122 0.0
H823 H 0.11913 0.53715 0.38133 0.0
H824 H 0.15119 0.55144 0.35313 0.0
H825 H 0.12751 0.60948 0.38982 0.0
H826 H 0.09507 0.59517 0.4174 0.0
H827 H 0.16781 0.59534 0.47127 0.0
H828 H 0.13436 0.60573 0.22676 0.0
H829 H 0.11306 0.59562 0.1179 0.0
H830 H 0.15254 0.54835 0.06324 0.0
H831 H 0.17383 0.55786 0.17273 0.0
C832 C 0.24587 0.58317 0.20536 0.0
C833 C 0.25081 0.56474 0.23584 0.0
C834 C 0.23185 0.59482 0.24281 0.0
C835 C 0.22242 0.58786 0.30997 0.0
C836 C 0.23005 0.57118 0.34732 0.0
C837 C 0.24433 0.55972 0.31054 0.0
C838 C 0.20162 0.59326 0.3246 0.0
C839 C 0.18855 0.59055 0.26219 0.0
C840 C 0.19404 0.59604 0.40057 0.0
C841 C 0.2072 0.59952 0.46812 0.0
C842 C 0.20515 0.58845 0.53663 0.0
C843 C 0.2178 0.5915 0.59947 0.0
C844 C 0.23256 0.60561 0.59468 0.0
C845 C 0.23468 0.61673 0.52706 0.0
C846 C 0.22208 0.61373 0.46402 0.0
C847 C 0.12076 0.55295 0.38332 0.0
C848 C 0.10473 0.5651 0.40141 0.0
C849 C 0.13901 0.56107 0.36735 0.0
C850 C 0.14159 0.58144 0.36981 0.0
C851 C 0.12569 0.5937 0.38803 0.0
C852 C 0.10724 0.58556 0.40303 0.0
C853 C 0.16108 0.58944 0.35127 0.0
C854 C 0.1737 0.59429 0.41276 0.0
C855 C 0.16843 0.58822 0.2747 0.0
C856 C 0.15568 0.58253 0.2082 0.0
C857 C 0.13842 0.59308 0.19194 0.0
C858 C 0.12634 0.58744 0.13008 0.0
C859 C 0.13144 0.57133 0.08371 0.0
C860 C 0.1486 0.5608 0.0992 0.0
C861 C 0.16069 0.56633 0.16111 0.0
H862 H 0.12215 0.56705 0.03561 0.0
H863 H 0.24235 0.60794 0.64336 0.0
H864 H 0.95841 0.79049 0.15495 0.0
H865 H 0.95767 0.80901 0.03529 0.0
H866 H 1.00549 0.77401 0.94441 0.0
H867 H 1.00683 0.756 0.06711 0.0
H868 H 0.01765 0.80762 0.95185 0.0
H869 H 0.96306 0.78562 0.82856 0.0
H870 H 0.93038 0.77196 0.80156 0.0
H871 H 0.90327 0.8242 0.89184 0.0
H872 H 0.93571 0.83812 0.92069 0.0
H873 H 0.99128 0.91489 0.82622 0.0
H874 H 0.98693 0.87993 0.79723 0.0
H875 H 1.0037 0.86576 0.03242 0.0
H876 H 1.00754 0.90047 0.06245 0.0
H877 H 0.96398 0.85075 0.85869 0.0
H878 H 0.03629 0.82964 0.03158 0.0
H879 H 0.06988 0.84247 0.04288 0.0
H880 H 0.06286 0.87376 0.82833 0.0
H881 H 0.02933 0.86095 0.81493 0.0
C882 C 0.96827 0.78626 0.10827 0.0
C883 C 0.98312 0.77237 0.12107 0.0
C884 C 0.96766 0.79668 0.03885 0.0
C885 C 0.98179 0.79323 0.98066 0.0
C886 C 0.99461 0.77715 0.98876 0.0
C887 C 0.99535 0.76682 0.05889 0.0
C888 C 0.98665 0.80957 0.92707 0.0
C889 C 1.00591 0.81683 0.93008 0.0
C890 C 0.97177 0.82122 0.8927 0.0
C891 C 0.95198 0.81302 0.87622 0.0
C892 C 0.95016 0.79422 0.84296 0.0
C893 C 0.93164 0.78641 0.82731 0.0
C894 C 0.91476 0.79723 0.84476 0.0
C895 C 0.91637 0.81588 0.878 0.0
C896 C 0.93485 0.82377 0.89372 0.0
C897 C 0.99373 0.90431 0.87209 0.0
C898 C 0.99984 0.91039 0.94673 0.0
C899 C 0.99142 0.88438 0.85504 0.0
C900 C 0.9955 0.87032 0.91199 0.0
C901 C 1.00097 0.87642 0.98703 0.0
C902 C 1.00315 0.89624 0.00423 0.0
C903 C 0.99405 0.8491 0.89561 0.0
C904 C 0.97565 0.84112 0.87805 0.0
C905 C 1.00985 0.83653 0.91406 0.0
C906 C 0.03022 0.84413 0.92186 0.0
C907 C 0.04194 0.83904 0.98616 0.0
C908 C 0.06098 0.8464 0.99315 0.0
C909 C 0.06852 0.85888 0.93629 0.0
C910 C 0.05702 0.86406 0.87233 0.0
C911 C 0.03798 0.85676 0.86503 0.0
H912 H 0.08326 0.86457 0.94189 0.0
H913 H 0.90043 0.79115 0.83266 0.0
H914 H 0.73203 0.95915 0.14633 0.0
H915 H 0.71413 0.96241 0.02494 0.0
H916 H 0.75116 1.01085 0.959 0.0
H917 H 0.76883 1.00788 0.08189 0.0
H918 H 0.71568 0.02285 0.98531 0.0
H919 H 0.74111 0.97373 0.8247 0.0
H920 H 0.75482 0.94178 0.78469 0.0
H921 H 0.70068 0.91356 0.84444 0.0
H922 H 0.68671 0.94524 0.88609 0.0
H923 H 0.62227 0.04086 0.81811 0.0
H924 H 0.65737 0.03329 0.80885 0.0
H925 H 0.6487 0.98177 0.94954 0.0
H926 H 0.61372 0.98921 0.95903 0.0
H927 H 0.6767 0.97621 0.82757 0.0
H928 H 0.66083 0.02198 0.04105 0.0
H929 H 0.64709 0.05287 0.09317 0.0
H930 H 0.68395 0.0859 0.93927 0.0
H931 H 0.69776 0.05513 0.88576 0.0
C932 C 0.7369 0.96991 0.10436 0.0
C933 C 0.75136 0.98363 0.12424 0.0
C934 C 0.72682 0.97164 0.03426 0.0
C935 C 0.73111 0.98709 0.98311 0.0
C936 C 0.74756 0.99889 0.99776 0.0
C937 C 0.75765 0.99717 0.06809 0.0
C938 C 0.71531 0.99421 0.93121 0.0
C939 C 0.70763 0.01291 0.94773 0.0
C940 C 0.70457 0.98123 0.88316 0.0
C941 C 0.71284 0.96198 0.85853 0.0
C942 C 0.73214 0.96071 0.82982 0.0
C943 C 0.73996 0.94263 0.80677 0.0
C944 C 0.72862 0.92565 0.81198 0.0
C945 C 0.70943 0.92673 0.84026 0.0
C946 C 0.70153 0.94478 0.86343 0.0
C947 C 0.62788 0.02788 0.84676 0.0
C948 C 0.61536 0.0158 0.89048 0.0
C949 C 0.64783 0.02347 0.84058 0.0
C950 C 0.65555 1.00698 0.87845 0.0
C951 C 0.64294 0.99444 0.91915 0.0
C952 C 0.623 0.99876 0.92493 0.0
C953 C 0.67694 1.00415 0.88597 0.0
C954 C 0.6854 0.98641 0.8612 0.0
C955 C 0.68844 0.01787 0.92715 0.0
C956 C 0.68009 0.03632 0.95869 0.0
C957 C 0.66585 0.03584 0.01789 0.0
C958 C 0.65808 0.05331 0.04773 0.0
C959 C 0.66458 0.07134 0.01931 0.0
C960 C 0.67889 0.07192 0.96106 0.0
C961 C 0.68669 0.05448 0.93094 0.0
H962 H 0.65857 0.08485 0.0426 0.0
H963 H 0.73471 0.91166 0.7941 0.0
H964 H 0.583 0.75985 0.23837 0.0
H965 H 0.59802 0.73235 0.16922 0.0
H966 H 0.54953 0.7321 0.00791 0.0
H967 H 0.53515 0.75998 0.0749 0.0
H968 H 0.57529 0.70366 0.19974 0.0
H969 H 0.55223 0.69881 0.8716 0.0
H970 H 0.55772 0.71683 0.74967 0.0
H971 H 0.61018 0.7421 0.84439 0.0
H972 H 0.60528 0.72386 0.96643 0.0
H973 H 0.51317 0.62737 0.10593 0.0
H974 H 0.53091 0.65804 0.12422 0.0
H975 H 0.57893 0.6356 0.98601 0.0
H976 H 0.5609 0.60499 0.96533 0.0
H977 H 0.56882 0.67179 0.94167 0.0
H978 H 0.58461 0.64149 0.1828 0.0
H979 H 0.57817 0.62336 0.30407 0.0
H980 H 0.54 0.66949 0.38297 0.0
H981 H 0.5459 0.68779 0.26178 0.0
C982 C 0.57647 0.75493 0.1843 0.0
C983 C 0.55776 0.7616 0.16267 0.0
C984 C 0.58497 0.73908 0.14502 0.0
C985 C 0.57458 0.72965 0.08507 0.0
C986 C 0.5579 0.73896 0.05403 0.0
C987 C 0.54961 0.75503 0.09248 0.0
C988 C 0.57643 0.70808 0.07536 0.0
C989 C 0.57439 0.6967 0.14304 0.0
C990 C 0.57537 0.69881 1.00173 0.0
C991 C 0.57839 0.70989 0.92838 0.0
C992 C 0.56506 0.70805 0.86631 0.0
C993 C 0.56804 0.71835 0.79715 0.0
C994 C 0.58428 0.73062 0.7893 0.0
C995 C 0.59758 0.73261 0.85061 0.0
C996 C 0.5947 0.7223 0.91985 0.0
C997 C 0.52754 0.62893 0.07972 0.0
C998 C 0.53566 0.6138 0.03431 0.0
C999 C 0.53776 0.64637 0.09086 0.0
C1000 C 0.55639 0.64896 0.05749 0.0
C1001 C 0.56466 0.6338 0.01284 0.0
C1002 C 0.55441 0.61631 1.00161 0.0
C1003 C 0.56639 0.66808 0.06557 0.0
C1004 C 0.57054 0.6788 0.99793 0.0
C1005 C 0.5692 0.67688 0.13924 0.0
C1006 C 0.56572 0.66601 0.21292 0.0
C1007 C 0.57477 0.64774 0.22582 0.0
C1008 C 0.5712 0.63743 0.2946 0.0
C1009 C 0.55867 0.64527 0.35116 0.0
C1010 C 0.5497 0.66346 0.33913 0.0
C1011 C 0.55319 0.67382 0.27045 0.0
H1012 H 0.55591 0.63727 0.40434 0.0
H1013 H 0.58656 0.73859 0.73572 0.0
H1014 H 0.7712 0.5024 0.06185 0.0
H1015 H 0.79174 0.48521 0.968 0.0
H1016 H 0.78752 0.43231 0.10472 0.0
H1017 H 0.76786 0.4501 0.20135 0.0
H1018 H 0.82251 0.44247 0.10002 0.0
H1019 H 0.77691 0.43381 0.89821 0.0
H1020 H 0.74986 0.44147 0.80817 0.0
H1021 H 0.78404 0.48747 0.70595 0.0
H1022 H 0.81117 0.48038 0.79616 0.0
H1023 H 0.91376 0.43327 0.92789 0.0
H1024 H 0.87942 0.42271 0.92912 0.0
H1025 H 0.861 0.48171 0.87474 0.0
H1026 H 0.89518 0.49219 0.87185 0.0
H1027 H 0.83464 0.45358 0.81918 0.0
H1028 H 0.87151 0.47003 0.05624 0.0
H1029 H 0.89847 0.46483 0.14952 0.0
H1030 H 0.87905 0.40578 0.18779 0.0
H1031 H 0.85217 0.41055 0.09336 0.0
C1032 C 0.77393 0.48686 0.06979 0.0
C1033 C 0.76821 0.47752 0.13856 0.0
C1034 C 0.78556 0.47692 0.01568 0.0
C1035 C 0.7913 0.45738 0.02905 0.0
C1036 C 0.78337 0.44738 0.0932 0.0
C1037 C 0.77214 0.45749 0.14831 0.0
C1038 C 0.80914 0.44967 0.9897 0.0
C1039 C 0.82482 0.44408 0.03789 0.0
C1040 C 0.81245 0.45206 0.90887 0.0
C1041 C 0.79614 0.4565 0.85418 0.0
C1042 C 0.77864 0.44564 0.85689 0.0
C1043 C 0.76328 0.44989 0.80574 0.0
C1044 C 0.76523 0.46494 0.75136 0.0
C1045 C 0.78256 0.47579 0.74801 0.0
C1046 C 0.79796 0.47162 0.79906 0.0
C1047 C 0.90238 0.4438 0.91376 0.0
C1048 C 0.90695 0.46366 0.9024 0.0
C1049 C 0.88283 0.43773 0.91395 0.0
C1050 C 0.86772 0.45151 0.9033 0.0
C1051 C 0.87245 0.47086 0.88332 0.0
C1052 C 0.89193 0.47692 0.88315 0.0
C1053 C 0.8476 0.44743 0.93044 0.0
C1054 C 0.83176 0.4509 0.88028 0.0
C1055 C 0.84401 0.44332 0.00974 0.0
C1056 C 0.86008 0.44051 0.06678 0.0
C1057 C 0.87315 0.45586 0.08384 0.0
C1058 C 0.8884 0.453 0.13694 0.0
C1059 C 0.89055 0.43495 0.17422 0.0
C1060 C 0.87742 0.41973 0.1586 0.0
C1061 C 0.86219 0.42249 0.10522 0.0
H1062 H 0.90233 0.43277 0.21553 0.0
H1063 H 0.75332 0.4682 0.71182 0.0
H1064 H 0.04693 0.22127 0.09471 0.0
H1065 H 0.04569 0.18963 0.03034 0.0
H1066 H 0.99258 0.20688 0.91228 0.0
H1067 H 0.9931 0.23854 0.98179 0.0
H1068 H 0.98752 0.17167 0.95927 0.0
H1069 H 0.03993 0.19976 0.81734 0.0
H1070 H 0.07099 0.21734 0.79495 0.0
H1071 H 0.10237 0.17286 0.92058 0.0
H1072 H 0.07146 0.15512 0.94405 0.0
H1073 H 0.99457 0.08481 0.71395 0.0
H1074 H 0.99551 0.11924 0.75646 0.0
H1075 H 0.03519 0.10377 0.94137 0.0
H1076 H 0.03393 0.06929 0.90071 0.0
H1077 H 0.04623 0.13862 0.84871 0.0
H1078 H 0.99177 0.11183 0.99355 0.0
H1079 H 0.96023 0.09454 0.00682 0.0
H1080 H 0.93227 0.13755 0.86206 0.0
H1081 H 0.96374 0.15494 0.84701 0.0
C1082 C 0.03499 0.21851 0.0546 0.0
C1083 C 0.01999 0.23259 0.04441 0.0
C1084 C 0.0344 0.20029 0.01685 0.0
C1085 C 0.01913 0.19555 0.96523 0.0
C1086 C 1.00456 0.20994 0.95181 0.0
C1087 C 1.00499 0.22823 0.99079 0.0
C1088 C 0.01802 0.17528 0.92943 0.0
C1089 C 1.00032 0.16471 0.93369 0.0
C1090 C 0.03468 0.16566 0.89679 0.0
C1091 C 0.05335 0.17621 0.88285 0.0
C1092 C 0.05345 0.19381 0.84044 0.0
C1093 C 0.07102 0.20378 0.82749 0.0
C1094 C 0.08864 0.19624 0.85646 0.0
C1095 C 0.08871 0.17869 0.89821 0.0
C1096 C 0.07117 0.16865 0.91121 0.0
C1097 C 1.00354 0.0887 0.76361 0.0
C1098 C 0.01414 0.07412 0.80385 0.0
C1099 C 1.00401 0.10844 0.78802 0.0
C1100 C 0.0154 0.11422 0.85237 0.0
C1101 C 0.0263 0.09978 0.89161 0.0
C1102 C 0.0255 0.07999 0.86832 0.0
C1103 C 0.01587 0.13522 0.87925 0.0
C1104 C 0.03345 0.14581 0.87356 0.0
C1105 C 0.99906 0.14493 0.90922 0.0
C1106 C 0.98015 0.13454 0.91839 0.0
C1107 C 0.97894 0.11749 0.96392 0.0
C1108 C 0.96107 0.1077 0.97191 0.0
C1109 C 0.94427 0.1149 0.9351 0.0
C1110 C 0.9453 0.13196 0.89041 0.0
C1111 C 0.96315 0.1418 0.88217 0.0
H1112 H 0.93044 0.1073 0.94137 0.0
H1113 H 0.10224 0.20399 0.84645 0.0
H1114 H 0.29344 0.98191 0.00198 0.0
H1115 H 0.32412 0.98607 0.93001 0.0
H1116 H 0.32419 0.04759 0.98903 0.0
H1117 H 0.29342 0.04335 0.06184 0.0
H1118 H 0.33942 1.00622 0.81174 0.0
H1119 H 0.37123 0.06072 0.03694 0.0
H1120 H 0.36667 0.06988 0.17489 0.0
H1121 H 0.34468 0.01229 0.22426 0.0
H1122 H 0.34939 1.00272 0.087 0.0
H1123 H 0.43446 0.0324 0.67225 0.0
H1124 H 0.40062 0.03289 0.71969 0.0
H1125 H 0.41982 1.00809 0.93761 0.0
H1126 H 0.45379 1.00898 0.8921 0.0
H1127 H 0.39404 0.03186 0.97272 0.0
H1128 H 0.39317 0.98047 0.77665 0.0
H1129 H 0.39909 0.96717 0.64492 0.0
H1130 H 0.36131 1.01122 0.54776 0.0
H1131 H 0.35497 0.02461 0.67906 0.0
C1132 C 0.29967 0.99646 0.99754 0.0
C1133 C 0.29091 0.01232 0.03739 0.0
C1134 C 0.3173 0.99883 0.95645 0.0
C1135 C 0.32681 0.01708 0.95483 0.0
C1136 C 0.31736 0.03327 0.99003 0.0
C1137 C 0.29961 0.03092 0.03091 0.0
C1138 C 0.3473 0.01858 0.92284 0.0
C1139 C 0.35133 1.01196 0.84683 0.0
C1140 C 0.36312 0.02556 0.96868 0.0
C1141 C 0.36043 0.03112 0.05151 0.0
C1142 C 0.36547 0.05002 0.07732 0.0
C1143 C 0.36286 0.05527 0.15538 0.0
C1144 C 0.35532 0.0417 0.20823 0.0
C1145 C 0.35045 0.02281 0.18322 0.0
C1146 C 0.35307 0.01748 0.1053 0.0
C1147 C 0.43145 0.02706 0.73032 0.0
C1148 C 0.44689 0.02062 0.77826 0.0
C1149 C 0.41197 0.02715 0.75736 0.0
C1150 C 0.40724 0.02008 0.83207 0.0
C1151 C 0.42278 0.01368 0.87988 0.0
C1152 C 0.4423 0.01413 0.85368 0.0
C1153 C 0.38634 0.01953 0.86119 0.0
C1154 C 0.38219 0.02629 0.93699 0.0
C1155 C 0.37054 1.0121 0.81595 0.0
C1156 C 0.37372 1.00361 0.73747 0.0
C1157 C 0.3861 0.98727 0.72713 0.0
C1158 C 0.38951 0.97971 0.65257 0.0
C1159 C 0.38063 0.98838 0.58795 0.0
C1160 C 0.36821 1.00455 0.59784 0.0
C1161 C 0.36458 1.01204 0.67234 0.0
H1162 H 0.38332 0.98257 0.53024 0.0
H1163 H 0.35329 0.0458 0.2686 0.0
H1164 H 0.53393 0.29831 0.96067 0.0
H1165 H 0.53307 0.33057 0.89769 0.0
H1166 H 0.47776 0.34305 0.00964 0.0
H1167 H 0.47878 0.31085 0.0729 0.0
H1168 H 0.51159 0.35242 0.80299 0.0
H1169 H 0.4782 0.39002 0.08004 0.0
H1170 H 0.47815 0.38529 0.22233 0.0
H1171 H 0.53126 0.35153 0.20605 0.0
H1172 H 0.53193 0.35645 0.06394 0.0
H1173 H 0.48815 0.45019 0.69729 0.0
H1174 H 0.48845 0.41608 0.7407 0.0
H1175 H 0.52496 0.43232 0.93568 0.0
H1176 H 0.52324 0.46667 0.89544 0.0
H1177 H 0.50336 0.40781 0.98807 0.0
H1178 H 0.54145 0.40481 0.75688 0.0
H1179 H 0.54972 0.41003 0.61882 0.0
H1180 H 0.50036 0.37515 0.54968 0.0
H1181 H 0.49179 0.3697 0.68746 0.0
C1182 C 0.5212 0.30762 0.96904 0.0
C1183 C 0.50618 0.30185 0.02021 0.0
C1184 C 0.52079 0.32618 0.9336 0.0
C1185 C 0.50552 0.33953 0.94967 0.0
C1186 C 0.48986 0.33322 0.99685 0.0
C1187 C 0.49026 0.31466 0.03209 0.0
C1188 C 0.5067 0.36045 0.92266 0.0
C1189 C 0.50969 0.36454 0.84338 0.0
C1190 C 0.50523 0.37643 0.97546 0.0
C1191 C 0.50493 0.37339 0.06105 0.0
C1192 C 0.4899 0.38164 0.1068 0.0
C1193 C 0.4898 0.37896 0.18745 0.0
C1194 C 0.50468 0.36809 0.22312 0.0
C1195 C 0.51974 0.35993 0.17825 0.0
C1196 C 0.51998 0.36264 0.09764 0.0
C1197 C 0.49621 0.44645 0.74949 0.0
C1198 C 0.50562 0.46118 0.79294 0.0
C1199 C 0.49659 0.42681 0.77404 0.0
C1200 C 0.5071 0.42114 0.84102 0.0
C1201 C 0.51662 0.43598 0.88408 0.0
C1202 C 0.5157 0.45571 0.86092 0.0
C1203 C 0.5077 0.40002 0.8675 0.0
C1204 C 0.50515 0.39582 0.94709 0.0
C1205 C 0.51067 0.38399 0.81547 0.0
C1206 C 0.51587 0.38702 0.7325 0.0
C1207 C 0.53231 0.39832 0.71221 0.0
C1208 C 0.53707 0.40129 0.63399 0.0
C1209 C 0.52552 0.393 0.57545 0.0
C1210 C 0.50925 0.38163 0.59508 0.0
C1211 C 0.50449 0.37851 0.67323 0.0
H1212 H 0.52922 0.39533 0.51492 0.0
H1213 H 0.50457 0.36603 0.28553 0.0
H1214 H 0.22051 0.49217 0.08591 0.0
H1215 H 0.1884 0.4872 0.02337 0.0
H1216 H 0.19359 0.54341 0.91106 0.0
H1217 H 0.22555 0.5482 0.97227 0.0
H1218 H 0.1556 0.50898 0.04428 0.0
H1219 H 0.16734 0.54476 0.74396 0.0
H1220 H 0.19354 0.54873 0.64624 0.0
H1221 H 0.22119 0.49578 0.72556 0.0
H1222 H 0.19503 0.49134 0.82307 0.0
H1223 H 0.07806 0.53781 0.7188 0.0
H1224 H 0.11155 0.53792 0.7704 0.0
H1225 H 0.09794 0.48731 0.91055 0.0
H1226 H 0.06413 0.48827 0.86376 0.0
H1227 H 0.14083 0.51681 0.76377 0.0
H1228 H 0.12848 0.48227 0.06793 0.0
H1229 H 0.10267 0.47969 0.16798 0.0
H1230 H 0.07599 0.53265 0.08479 0.0
H1231 H 0.10202 0.536 0.98568 0.0
C1232 C 0.21507 0.50311 0.04569 0.0
C1233 C 0.22571 0.52046 0.0333 0.0
C1234 C 0.19659 0.5004 0.01073 0.0
C1235 C 0.18845 0.51488 0.96194 0.0
C1236 C 0.19951 0.53183 0.9472 0.0
C1237 C 0.21786 0.53455 0.9822 0.0
C1238 C 0.16799 0.51301 0.93041 0.0
C1239 C 0.15237 0.51035 0.98273 0.0
C1240 C 0.1636 0.51547 0.85043 0.0
C1241 C 0.17929 0.51782 0.7913 0.0
C1242 C 0.17896 0.53391 0.74033 0.0
C1243 C 0.19382 0.53626 0.68502 0.0
C1244 C 0.20905 0.52255 0.67985 0.0
C1245 C 0.20942 0.50643 0.72982 0.0
C1246 C 0.19459 0.504 0.78521 0.0
C1247 C 0.08221 0.52681 0.76108 0.0
C1248 C 0.06834 0.51318 0.78781 0.0
C1249 C 0.10144 0.52681 0.7906 0.0
C1250 C 0.1075 0.5129 0.84629 0.0
C1251 C 0.09375 0.49875 0.87031 0.0
C1252 C 0.07436 0.49917 0.84282 0.0
C1253 C 0.12817 0.51306 0.87775 0.0
C1254 C 0.1439 0.51539 0.8254 0.0
C1255 C 0.13261 0.51066 0.95809 0.0
C1256 C 0.11711 0.50924 0.01865 0.0
C1257 C 0.11721 0.49348 0.0713 0.0
C1258 C 0.10257 0.49191 0.12795 0.0
C1259 C 0.08774 0.50604 0.13267 0.0
C1260 C 0.08758 0.52182 0.0811 0.0
C1261 C 0.10229 0.52357 0.02473 0.0
H1262 H 0.07635 0.50476 0.17625 0.0
H1263 H 0.22054 0.52441 0.63703 0.0
H1264 H 0.02673 0.78791 0.43723 0.0
H1265 H 0.03027 0.81907 0.50943 0.0
H1266 H 0.97385 0.83807 0.42535 0.0
H1267 H 0.96992 0.80707 0.35613 0.0
H1268 H 1.0064 0.86496 0.39546 0.0
H1269 H 0.97534 0.82956 0.61282 0.0
H1270 H 0.97483 0.80047 0.69775 0.0
H1271 H 0.03376 0.8126 0.77131 0.0
H1272 H 0.03464 0.84167 0.68604 0.0
H1273 H 0.98499 0.9551 0.56828 0.0
H1274 H 0.98431 0.92119 0.52341 0.0
H1275 H 0.02819 0.90577 0.69349 0.0
H1276 H 0.02793 0.93968 0.74207 0.0
H1277 H 1.00721 0.87592 0.68083 0.0
H1278 H 0.03772 0.91357 0.4852 0.0
H1279 H 0.04274 0.94024 0.39082 0.0
H1280 H 0.99127 0.92238 0.26578 0.0
H1281 H 0.98574 0.89579 0.36015 0.0
C1282 C 0.01487 0.79851 0.43589 0.0
C1283 C 0.99815 0.79496 0.38973 0.0
C1284 C 0.01696 0.81641 0.47675 0.0
C1285 C 1.00243 0.83114 0.47204 0.0
C1286 C 0.98539 0.82715 0.42932 0.0
C1287 C 0.98319 0.80932 0.38962 0.0
C1288 C 1.00511 0.85114 0.50743 0.0
C1289 C 1.00634 0.86741 0.45786 0.0
C1290 C 1.00597 0.85438 0.58867 0.0
C1291 C 1.00505 0.83772 0.64331 0.0
C1292 C 0.98815 0.82603 0.64739 0.0
C1293 C 0.98782 0.80953 0.69537 0.0
C1294 C 1.00429 0.80462 0.73963 0.0
C1295 C 0.02105 0.81635 0.73667 0.0
C1296 C 0.02145 0.83289 0.68881 0.0
C1297 C 0.9945 0.94453 0.59642 0.0
C1298 C 1.00675 0.95034 0.65813 0.0
C1299 C 0.99424 0.92501 0.57011 0.0
C1300 C 1.00677 0.91071 0.60244 0.0
C1301 C 0.01852 0.91633 0.66621 0.0
C1302 C 0.01841 0.93584 0.69399 0.0
C1303 C 1.00762 0.89017 0.56871 0.0
C1304 C 1.00722 0.87371 0.61839 0.0
C1305 C 1.00805 0.8867 0.48699 0.0
C1306 C 1.01122 0.90277 0.43024 0.0
C1307 C 0.02738 0.91542 0.43794 0.0
C1308 C 0.03033 0.93052 0.3844 0.0
C1309 C 0.01731 0.93303 0.32245 0.0
C1310 C 1.00133 0.92044 0.31386 0.0
C1311 C 0.99828 0.90534 0.36736 0.0
H1312 H 0.01963 0.94472 0.281 0.0
H1313 H 1.00403 0.79179 0.77649 0.0
H1314 H 0.71928 0.96667 0.37981 0.0
H1315 H 0.68709 0.97082 0.44069 0.0
H1316 H 0.69886 0.03236 0.47481 0.0
H1317 H 0.73121 0.02817 0.41296 0.0
H1318 H 0.67136 0.98171 0.57382 0.0
H1319 H 0.65639 0.05827 0.43995 0.0
H1320 H 0.66647 0.07786 0.32625 0.0
H1321 H 0.68013 0.0251 0.19994 0.0
H1322 H 0.66995 1.00522 0.31255 0.0
H1323 H 0.58058 0.01738 0.72702 0.0
H1324 H 0.61488 0.0146 0.68626 0.0
H1325 H 0.59647 1.00736 0.44805 0.0
H1326 H 0.56213 1.01013 0.48835 0.0
H1327 H 0.62733 0.03091 0.45236 0.0
H1328 H 0.6113 0.96868 0.5556 0.0
H1329 H 0.59877 0.94519 0.65223 0.0
H1330 H 0.64405 0.9621 0.81174 0.0
H1331 H 0.65647 0.98635 0.71692 0.0
C1332 C 0.71523 0.981 0.40222 0.0
C1333 C 0.7279 0.99706 0.39194 0.0
C1334 C 0.69674 0.98338 0.43695 0.0
C1335 C 0.69022 1.00196 0.46164 0.0
C1336 C 0.70332 0.01788 0.4555 0.0
C1337 C 0.72195 0.01546 0.42101 0.0
C1338 C 0.66936 1.00472 0.48856 0.0
C1339 C 0.66184 0.99264 0.5478 0.0
C1340 C 0.6565 0.01845 0.45309 0.0
C1341 C 0.66265 0.03029 0.38509 0.0
C1342 C 0.66153 0.05086 0.38789 0.0
C1343 C 0.66726 0.06201 0.32364 0.0
C1344 C 0.67402 0.05273 0.25607 0.0
C1345 C 0.67499 0.03228 0.25247 0.0
C1346 C 0.66928 0.02106 0.31654 0.0
C1347 C 0.58376 0.01514 0.66595 0.0
C1348 C 0.56841 0.01383 0.61125 0.0
C1349 C 0.60347 0.01355 0.64263 0.0
C1350 C 0.60845 1.01063 0.5639 0.0
C1351 C 0.59317 1.00964 0.50906 0.0
C1352 C 0.57344 1.01113 0.53238 0.0
C1353 C 0.62948 1.00823 0.53886 0.0
C1354 C 0.63696 0.02026 0.47955 0.0
C1355 C 0.64208 0.99396 0.57229 0.0
C1356 C 0.63469 0.97949 0.62956 0.0
C1357 C 0.61846 0.9676 0.61167 0.0
C1358 C 0.61136 0.95419 0.66613 0.0
C1359 C 0.62054 0.95231 0.73832 0.0
C1360 C 0.63688 0.96378 0.75606 0.0
C1361 C 0.64394 0.97737 0.70208 0.0
H1362 H 0.61506 0.94188 0.78036 0.0
H1363 H 0.67846 0.06139 0.20646 0.0
H1364 H 0.51182 0.72001 0.2694 0.0
H1365 H 0.50743 0.68934 0.33891 0.0
H1366 H 0.51338 0.71992 0.55771 0.0
H1367 H 0.51851 0.75093 0.48694 0.0
H1368 H 0.53472 0.6875 0.56172 0.0
H1369 H 0.4681 0.6997 0.49366 0.0
H1370 H 0.44033 0.70828 0.40833 0.0
H1371 H 0.45276 0.65827 0.26378 0.0
H1372 H 0.48078 0.64952 0.34764 0.0
H1373 H 0.51027 0.59616 0.75479 0.0
H1374 H 0.51055 0.63036 0.71031 0.0
H1375 H 0.50928 0.61054 0.47197 0.0
H1376 H 0.50892 0.57656 0.51553 0.0
H1377 H 0.48309 0.63933 0.49384 0.0
H1378 H 0.55128 0.629 0.55724 0.0
H1379 H 0.57888 0.62037 0.64339 0.0
H1380 H 0.56283 0.66701 0.79946 0.0
H1381 H 0.53497 0.67581 0.71475 0.0
C1382 C 0.51179 0.72034 0.33244 0.0
C1383 C 0.51537 0.73802 0.37253 0.0
C1384 C 0.50921 0.7027 0.37241 0.0
C1385 C 0.50981 0.7021 0.45412 0.0
C1386 C 0.51278 0.71987 0.49475 0.0
C1387 C 0.51545 0.73767 0.45438 0.0
C1388 C 0.50833 0.68272 0.4955 0.0
C1389 C 0.52315 0.67717 0.54813 0.0
C1390 C 0.49352 0.66887 0.4772 0.0
C1391 C 0.47661 0.67402 0.42677 0.0
C1392 C 0.46499 0.69059 0.44342 0.0
C1393 C 0.44919 0.69548 0.39534 0.0
C1394 C 0.4448 0.68385 0.33063 0.0
C1395 C 0.45618 0.66727 0.31394 0.0
C1396 C 0.472 0.66232 0.3618 0.0
C1397 C 0.51015 0.59906 0.69288 0.0
C1398 C 0.50957 0.58343 0.63898 0.0
C1399 C 0.51037 0.61869 0.66743 0.0
C1400 C 0.51 0.6232 0.58748 0.0
C1401 C 0.50951 0.6076 0.53387 0.0
C1402 C 0.50938 0.58806 0.5591 0.0
C1403 C 0.50965 0.64401 0.55876 0.0
C1404 C 0.49449 0.64979 0.50834 0.0
C1405 C 0.52407 0.65804 0.57945 0.0
C1406 C 0.54088 0.65288 0.63018 0.0
C1407 C 0.55353 0.63732 0.61028 0.0
C1408 C 0.56924 0.63243 0.6588 0.0
C1409 C 0.57255 0.6431 0.72707 0.0
C1410 C 0.56021 0.65875 0.74673 0.0
C1411 C 0.54446 0.6637 0.69846 0.0
H1412 H 0.5847 0.63928 0.76462 0.0
H1413 H 0.43257 0.68766 0.29347 0.0
H1414 H 0.78935 0.53993 0.37691 0.0
H1415 H 0.8209 0.54327 0.44553 0.0
H1416 H 0.82368 0.48059 0.47429 0.0
H1417 H 0.79221 0.47722 0.40764 0.0
H1418 H 0.83846 0.52627 0.60158 0.0
H1419 H 0.86697 0.46882 0.39467 0.0
H1420 H 0.85698 0.45424 0.26913 0.0
H1421 H 0.83589 0.51032 0.1922 0.0
H1422 H 0.8458 0.52521 0.31716 0.0
H1423 H 0.9353 0.49996 0.72332 0.0
H1424 H 0.90127 0.49903 0.6794 0.0
H1425 H 0.91755 0.52909 0.46879 0.0
H1426 H 0.95181 0.52954 0.51137 0.0
H1427 H 0.89239 0.50139 0.43329 0.0
H1428 H 0.89289 0.55249 0.63289 0.0
H1429 H 0.89953 0.56487 0.76535 0.0
H1430 H 0.86155 0.52099 0.8612 0.0
H1431 H 0.85482 0.50825 0.72939 0.0
C1432 C 0.7963 0.52696 0.4006 0.0
C1433 C 0.78824 0.5083 0.38629 0.0
C1434 C 0.81442 0.52886 0.43953 0.0
C1435 C 0.82482 0.51216 0.46455 0.0
C1436 C 0.81605 0.4937 0.45542 0.0
C1437 C 0.798 0.49181 0.41719 0.0
C1438 C 0.84575 0.5135 0.49071 0.0
C1439 C 0.85028 0.52093 0.56478 0.0
C1440 C 0.86123 0.50644 0.44313 0.0
C1441 C 0.85711 0.49809 0.36515 0.0
C1442 C 0.86047 0.47808 0.35048 0.0
C1443 C 0.85473 0.46975 0.27961 0.0
C1444 C 0.84578 0.48135 0.22279 0.0
C1445 C 0.84279 0.50135 0.23629 0.0
C1446 C 0.84846 0.50973 0.3071 0.0
C1447 C 0.93172 0.50645 0.66765 0.0
C1448 C 0.9465 0.51496 0.62131 0.0
C1449 C 0.91209 0.50599 0.64262 0.0
C1450 C 0.9065 0.51432 0.57106 0.0
C1451 C 0.92128 0.52259 0.52429 0.0
C1452 C 0.94096 0.5229 0.54895 0.0
C1453 C 0.8854 0.51437 0.54469 0.0
C1454 C 0.88074 0.50699 0.4703 0.0
C1455 C 0.8698 0.5214 0.59242 0.0
C1456 C 0.87342 0.52939 0.67137 0.0
C1457 C 0.88598 0.54548 0.68227 0.0
C1458 C 0.88977 0.55255 0.75721 0.0
C1459 C 0.88099 0.5437 0.82164 0.0
C1460 C 0.86833 0.52783 0.81124 0.0
C1461 C 0.86449 0.52071 0.73643 0.0
H1462 H 0.88398 0.54916 0.87961 0.0
H1463 H 0.84109 0.47485 0.16841 0.0
loop_
_geom_bond_atom_site_label_1
_geom_bond_atom_site_label_2
_geom_bond_distance
_geom_bond_site_symmetry_2
_ccdc_geom_bond_type
H0 C7 0.929 . S
H1 C10 0.930 . S
H2 C12 0.929 . S
H3 C4 0.969 . S
C4 H3 0.969 . S
C4 O5 1.550 . S
C4 H6 0.973 . S
O5 C4 1.550 . S
O5 C11 1.412 . S
H6 C4 0.973 . S
C7 H0 0.929 . S
C7 C8 1.400 . S
C7 C9 1.364 . S
C8 C7 1.400 . S
C8 C12 1.377 . S
C9 C7 1.364 . S
C9 C10 1.374 . S
C10 H1 0.930 . S
C10 C9 1.374 . S
C10 C11 1.383 . S
C11 O5 1.412 . S
C11 C10 1.383 . S
C11 C12 1.394 . S
C12 H2 0.929 . S
C12 C8 1.377 . S
C12 C11 1.394 . S
H13 C20 0.928 . S
H14 C23 0.932 . S
H15 C25 0.928 . S
H16 C17 0.969 . S
C17 H16 0.969 . S
C17 O18 1.550 1_455 S
C17 H19 0.973 1_455 S
O18 C17 1.550 1_655 S
O18 C24 1.413 1_655 S
H19 C17 0.973 1_655 S
C20 H13 0.928 . S
C20 C21 1.400 . S
C20 C22 1.364 . S
C21 C20 1.400 . S
C21 C25 1.377 . S
C22 C20 1.364 . S
C22 C23 1.374 . S
C23 H14 0.932 . S
C23 C22 1.374 . S
C23 C24 1.382 1_655 S
C24 O18 1.413 1_455 S
C24 C23 1.382 1_455 S
C24 C25 1.394 1_455 S
C25 H15 0.928 . S
C25 C21 1.377 . S
C25 C24 1.394 1_655 S
H26 C33 0.928 . S
H27 C36 0.934 . S
H28 C38 0.931 . S
H29 C30 0.969 . S
C30 H29 0.969 . S
C30 O31 1.550 1_545 S
C30 H32 0.973 1_545 S
O31 C30 1.550 1_565 S
O31 C37 1.415 . S
H32 C30 0.973 1_565 S
C33 H26 0.928 . S
C33 C34 1.400 . S
C33 C35 1.364 . S
C34 C33 1.400 . S
C34 C38 1.377 . S
C35 C33 1.364 . S
C35 C36 1.374 . S
C36 H27 0.934 . S
C36 C35 1.374 . S
C36 C37 1.382 . S
C37 O31 1.415 . S
C37 C36 1.382 . S
C37 C38 1.394 . S
C38 H28 0.931 . S
C38 C34 1.377 . S
C38 C37 1.394 . S
H39 C46 0.929 . S
H40 C49 0.930 . S
H41 C51 0.929 . S
H42 C43 0.969 . S
C43 H42 0.969 . S
C43 O44 1.550 . S
C43 H45 0.973 . S
O44 C43 1.550 . S
O44 C50 1.412 . S
H45 C43 0.973 . S
C46 H39 0.929 . S
C46 C47 1.400 . S
C46 C48 1.364 . S
C47 C46 1.400 . S
C47 C51 1.377 . S
C48 C46 1.364 . S
C48 C49 1.374 . S
C49 H40 0.930 . S
C49 C48 1.374 . S
C49 C50 1.383 . S
C50 O44 1.412 . S
C50 C49 1.383 . S
C50 C51 1.394 . S
C51 H41 0.929 . S
C51 C47 1.377 . S
C51 C50 1.394 . S
H52 C59 0.929 . S
H53 C62 0.930 . S
H54 C64 0.929 . S
H55 C56 0.969 . S
C56 H55 0.969 . S
C56 O57 1.550 . S
C56 H58 0.973 . S
O57 C56 1.550 . S
O57 C63 1.412 . S
H58 C56 0.973 . S
C59 H52 0.929 . S
C59 C60 1.400 1_554 S
C59 C61 1.364 . S
C60 C59 1.400 1_556 S
C60 C64 1.377 . S
C61 C59 1.364 . S
C61 C62 1.374 . S
C62 H53 0.930 . S
C62 C61 1.374 . S
C62 C63 1.383 . S
C63 O57 1.412 . S
C63 C62 1.383 . S
C63 C64 1.394 1_554 S
C64 H54 0.929 . S
C64 C60 1.377 . S
C64 C63 1.394 1_556 S
H65 C72 0.929 . S
H66 C75 0.934 . S
H67 C77 0.929 . S
H68 C69 0.969 . S
C69 H68 0.969 . S
C69 O70 1.550 1_455 S
C69 H71 0.973 1_455 S
O70 C69 1.550 1_655 S
O70 C76 1.412 1_655 S
H71 C69 0.973 1_655 S
C72 H65 0.929 . S
C72 C73 1.400 1_554 S
C72 C74 1.364 . S
C73 C72 1.400 1_556 S
C73 C77 1.377 . S
C74 C72 1.364 . S
C74 C75 1.374 . S
C75 H66 0.934 . S
C75 C74 1.374 . S
C75 C76 1.383 . S
C76 O70 1.412 1_455 S
C76 C75 1.383 . S
C76 C77 1.394 1_554 S
C77 H67 0.929 . S
C77 C73 1.377 . S
C77 C76 1.394 1_556 S
H78 C85 0.929 . S
H79 C88 0.932 . S
H80 C90 0.932 . S
H81 C82 0.969 . S
C82 H81 0.969 . S
C82 O83 1.550 1_545 S
C82 H84 0.973 1_545 S
O83 C82 1.550 1_565 S
O83 C89 1.412 1_565 S
H84 C82 0.973 1_565 S
C85 H78 0.929 . S
C85 C86 1.400 1_554 S
C85 C87 1.364 . S
C86 C85 1.400 1_556 S
C86 C90 1.377 . S
C87 C85 1.364 . S
C87 C88 1.374 . S
C88 H79 0.932 . S
C88 C87 1.374 . S
C88 C89 1.383 . S
C89 O83 1.412 1_545 S
C89 C88 1.383 . S
C89 C90 1.394 1_554 S
C90 H80 0.932 . S
C90 C86 1.377 . S
C90 C89 1.394 1_556 S
H91 C98 0.929 . S
H92 C101 0.930 . S
H93 C103 0.929 . S
H94 C95 0.969 . S
C95 H94 0.969 . S
C95 O96 1.550 . S
C95 H97 0.973 . S
O96 C95 1.550 . S
O96 C102 1.412 . S
H97 C95 0.973 . S
C98 H91 0.929 . S
C98 C99 1.400 1_554 S
C98 C100 1.364 . S
C99 C98 1.400 1_556 S
C99 C103 1.377 . S
C100 C98 1.364 . S
C100 C101 1.374 . S
C101 H92 0.930 . S
C101 C100 1.374 . S
C101 C102 1.383 . S
C102 O96 1.412 . S
C102 C101 1.383 . S
C102 C103 1.394 1_554 S
C103 H93 0.929 . S
C103 C99 1.377 . S
C103 C102 1.394 1_556 S
Sm104 C106 2.846 . S
Sm104 O124 2.544 . S
Sm104 O125 2.450 . S
Sm104 O126 2.681 1_565 S
Sm104 O127 2.464 . S
Sm104 O128 2.396 . S
Sm104 O132 2.386 1_455 S
Sm104 O135 2.408 1_565 S
Sm105 C115 2.846 . S
Sm105 O126 2.386 1_655 S
Sm105 O129 2.408 1_545 S
Sm105 O130 2.521 1_655 S
Sm105 O131 2.450 . S
Sm105 O132 2.681 1_545 S
Sm105 O133 2.464 . S
Sm105 O134 2.396 . S
C106 Sm104 2.846 . S
C106 C107 1.506 . S
C106 O124 1.263 . S
C106 O125 1.242 . S
C107 C106 1.506 . S
C107 C108 1.358 . S
C107 C112 1.382 . S
C108 C107 1.358 . S
C108 C109 1.385 . S
C108 H136 0.930 1_455 S
C109 C108 1.385 . S
C109 C110 1.395 . S
C109 H137 0.929 1_455 S
C110 C109 1.395 . S
C110 C111 1.335 . S
C111 C110 1.335 . S
C111 C112 1.398 . S
C111 H138 0.930 . S
C112 C107 1.382 . S
C112 C111 1.398 . S
C112 H139 0.929 . S
C113 O126 1.258 1_565 S
C113 O127 1.274 . S
C114 O128 1.252 1_655 S
C114 O129 1.272 . S
C115 Sm105 2.846 . S
C115 C116 1.506 . S
C115 O130 1.210 1_655 S
C115 O131 1.242 . S
C116 C115 1.506 . S
C116 C117 1.358 . S
C116 C121 1.382 . S
C117 C116 1.358 . S
C117 C118 1.385 . S
C117 H140 0.930 1_655 S
C118 C117 1.385 . S
C118 C119 1.395 . S
C118 H141 0.929 1_655 S
C119 C118 1.395 . S
C119 C120 1.335 . S
C120 C119 1.335 . S
C120 C121 1.398 . S
C120 H142 0.930 . S
C121 C116 1.382 . S
C121 C120 1.398 . S
C121 H143 0.929 . S
C122 O132 1.271 1_545 S
C122 O133 1.251 . S
C123 O134 1.252 1_455 S
C123 O135 1.272 . S
O124 Sm104 2.544 . S
O124 C106 1.263 . S
O125 Sm104 2.450 . S
O125 C106 1.242 . S
O126 Sm104 2.681 1_545 S
O126 Sm105 2.386 1_455 S
O126 C113 1.258 1_545 S
O127 Sm104 2.464 . S
O127 C113 1.274 . S
O128 Sm104 2.396 . S
O128 C114 1.252 1_455 S
O129 Sm105 2.408 1_565 S
O129 C114 1.272 . S
O130 Sm105 2.521 1_455 S
O130 C115 1.210 1_455 S
O131 Sm105 2.450 . S
O131 C115 1.242 . S
O132 Sm104 2.386 1_655 S
O132 Sm105 2.681 1_565 S
O132 C122 1.271 1_565 S
O133 Sm105 2.464 . S
O133 C122 1.251 . S
O134 Sm105 2.396 . S
O134 C123 1.252 1_655 S
O135 Sm104 2.408 1_545 S
O135 C123 1.272 . S
H136 C108 0.930 1_655 S
H137 C109 0.929 1_655 S
H138 C111 0.930 . S
H139 C112 0.929 . S
H140 C117 0.930 1_455 S
H141 C118 0.929 1_455 S
H142 C120 0.930 . S
H143 C121 0.929 . S
Sm144 C146 2.846 . S
Sm144 O164 2.540 1_545 S
Sm144 O165 2.450 . S
Sm144 O166 2.681 . S
Sm144 O167 2.464 . S
Sm144 O168 2.396 . S
Sm144 O172 2.386 1_545 S
Sm144 O175 2.408 . S
Sm145 C155 2.846 . S
Sm145 O166 2.386 1_565 S
Sm145 O169 2.408 . S
Sm145 O170 2.530 1_565 S
Sm145 O171 2.450 . S
Sm145 O172 2.681 . S
Sm145 O173 2.464 . S
Sm145 O174 2.396 . S
C146 Sm144 2.846 . S
C146 C147 1.506 . S
C146 O164 1.256 1_545 S
C146 O165 1.242 . S
C147 C146 1.506 . S
C147 C148 1.358 . S
C147 C152 1.382 . S
C148 C147 1.358 . S
C148 C149 1.385 . S
C148 H176 0.930 1_545 S
C149 C148 1.385 . S
C149 C150 1.395 . S
C149 H177 0.929 1_545 S
C150 C149 1.395 . S
C150 C151 1.335 . S
C151 C150 1.335 . S
C151 C152 1.398 . S
C151 H178 0.930 . S
C152 C147 1.382 . S
C152 C151 1.398 . S
C152 H179 0.929 . S
C153 O166 1.271 . S
C153 O167 1.251 . S
C154 O168 1.252 1_565 S
C154 O169 1.272 . S
C155 Sm145 2.846 . S
C155 C156 1.506 . S
C155 O170 1.230 1_565 S
C155 O171 1.242 . S
C156 C155 1.506 . S
C156 C157 1.358 . S
C156 C161 1.382 . S
C157 C156 1.358 . S
C157 C158 1.385 . S
C157 H180 0.930 1_565 S
C158 C157 1.385 . S
C158 C159 1.395 . S
C158 H181 0.929 1_565 S
C159 C158 1.395 . S
C159 C160 1.335 . S
C160 C159 1.335 . S
C160 C161 1.398 . S
C160 H182 0.930 . S
C161 C156 1.382 . S
C161 C160 1.398 . S
C161 H183 0.929 . S
C162 O172 1.271 . S
C162 O173 1.251 . S
C163 O174 1.252 1_545 S
C163 O175 1.272 . S
O164 Sm144 2.540 1_565 S
O164 C146 1.256 1_565 S
O165 Sm144 2.450 . S
O165 C146 1.242 . S
O166 Sm144 2.681 . S
O166 Sm145 2.386 1_545 S
O166 C153 1.271 . S
O167 Sm144 2.464 . S
O167 C153 1.251 . S
O168 Sm144 2.396 . S
O168 C154 1.252 1_545 S
O169 Sm145 2.408 . S
O169 C154 1.272 . S
O170 Sm145 2.530 1_545 S
O170 C155 1.230 1_545 S
O171 Sm145 2.450 . S
O171 C155 1.242 . S
O172 Sm144 2.386 1_565 S
O172 Sm145 2.681 . S
O172 C162 1.271 . S
O173 Sm145 2.464 . S
O173 C162 1.251 . S
O174 Sm145 2.396 . S
O174 C163 1.252 1_565 S
O175 Sm144 2.408 . S
O175 C163 1.272 . S
H176 C148 0.930 1_565 S
H177 C149 0.929 1_565 S
H178 C151 0.930 . S
H179 C152 0.929 . S
H180 C157 0.930 1_545 S
H181 C158 0.929 1_545 S
H182 C160 0.930 . S
H183 C161 0.929 . S
Sm184 C186 2.846 . S
Sm184 O204 2.543 . S
Sm184 O205 2.450 . S
Sm184 O206 2.681 . S
Sm184 O207 2.464 . S
Sm184 O208 2.396 . S
Sm184 O212 2.386 . S
Sm184 O215 2.408 . S
Sm185 C195 2.846 . S
Sm185 O206 2.386 . S
Sm185 O209 2.408 . S
Sm185 O210 2.543 . S
Sm185 O211 2.450 . S
Sm185 O212 2.681 . S
Sm185 O213 2.464 . S
Sm185 O214 2.396 . S
C186 Sm184 2.846 . S
C186 C187 1.506 . S
C186 O204 1.261 . S
C186 O205 1.242 . S
C187 C186 1.506 . S
C187 C188 1.358 . S
C187 C192 1.382 . S
C188 C187 1.358 . S
C188 C189 1.385 . S
C188 H216 0.930 . S
C189 C188 1.385 . S
C189 C190 1.395 . S
C189 H217 0.929 . S
C190 C189 1.395 . S
C190 C191 1.335 . S
C191 C190 1.335 . S
C191 C192 1.398 . S
C191 H218 0.930 . S
C192 C187 1.382 . S
C192 C191 1.398 . S
C192 H219 0.929 . S
C193 O206 1.271 . S
C193 O207 1.251 . S
C194 O208 1.252 . S
C194 O209 1.272 . S
C195 Sm185 2.846 . S
C195 C196 1.506 . S
C195 O210 1.261 . S
C195 O211 1.242 . S
C196 C195 1.506 . S
C196 C197 1.358 . S
C196 C201 1.382 . S
C197 C196 1.358 . S
C197 C198 1.385 . S
C197 H220 0.930 . S
C198 C197 1.385 . S
C198 C199 1.395 . S
C198 H221 0.929 . S
C199 C198 1.395 . S
C199 C200 1.335 . S
C200 C199 1.335 . S
C200 C201 1.398 . S
C200 H222 0.930 . S
C201 C196 1.382 . S
C201 C200 1.398 . S
C201 H223 0.929 . S
C202 O212 1.271 . S
C202 O213 1.251 . S
C203 O214 1.252 . S
C203 O215 1.272 . S
O204 Sm184 2.543 . S
O204 C186 1.261 . S
O205 Sm184 2.450 . S
O205 C186 1.242 . S
O206 Sm184 2.681 . S
O206 Sm185 2.386 . S
O206 C193 1.271 . S
O207 Sm184 2.464 . S
O207 C193 1.251 . S
O208 Sm184 2.396 . S
O208 C194 1.252 . S
O209 Sm185 2.408 . S
O209 C194 1.272 . S
O210 Sm185 2.543 . S
O210 C195 1.261 . S
O211 Sm185 2.450 . S
O211 C195 1.242 . S
O212 Sm184 2.386 . S
O212 Sm185 2.681 . S
O212 C202 1.271 . S
O213 Sm185 2.464 . S
O213 C202 1.251 . S
O214 Sm185 2.396 . S
O214 C203 1.252 . S
O215 Sm184 2.408 . S
O215 C203 1.272 . S
H216 C188 0.930 . S
H217 C189 0.929 . S
H218 C191 0.930 . S
H219 C192 0.929 . S
H220 C197 0.930 . S
H221 C198 0.929 . S
H222 C200 0.930 . S
H223 C201 0.929 . S
Sm224 C226 2.846 . S
Sm224 O244 2.543 . S
Sm224 O245 2.450 . S
Sm224 O246 2.681 1_655 S
Sm224 O247 2.464 . S
Sm224 O248 2.396 . S
Sm224 O252 2.386 . S
Sm224 O255 2.408 1_655 S
Sm225 C235 2.846 . S
Sm225 O246 2.386 . S
Sm225 O249 2.408 1_455 S
Sm225 O250 2.543 . S
Sm225 O251 2.450 . S
Sm225 O252 2.681 1_455 S
Sm225 O253 2.464 . S
Sm225 O254 2.396 . S
C226 Sm224 2.846 . S
C226 C227 1.506 . S
C226 O244 1.261 . S
C226 O245 1.242 . S
C227 C226 1.506 . S
C227 C228 1.358 . S
C227 C232 1.382 . S
C228 C227 1.358 . S
C228 C229 1.385 . S
C228 H256 0.930 . S
C229 C228 1.385 . S
C229 C230 1.395 . S
C229 H257 0.929 . S
C230 C229 1.395 . S
C230 C231 1.335 . S
C231 C230 1.335 . S
C231 C232 1.398 . S
C231 H258 0.930 . S
C232 C227 1.382 . S
C232 C231 1.398 . S
C232 H259 0.929 . S
C233 O246 1.265 1_655 S
C233 O247 1.261 . S
C234 O248 1.252 . S
C234 O249 1.272 . S
C235 Sm225 2.846 . S
C235 C236 1.506 . S
C235 O250 1.261 . S
C235 O251 1.242 . S
C236 C235 1.506 . S
C236 C237 1.358 . S
C236 C241 1.382 . S
C237 C236 1.358 . S
C237 C238 1.385 . S
C237 H260 0.930 . S
C238 C237 1.385 . S
C238 C239 1.395 . S
C238 H261 0.929 . S
C239 C238 1.395 . S
C239 C240 1.335 . S
C240 C239 1.335 . S
C240 C241 1.398 . S
C240 H262 0.930 . S
C241 C236 1.382 . S
C241 C240 1.398 . S
C241 H263 0.929 . S
C242 O252 1.271 1_455 S
C242 O253 1.251 . S
C243 O254 1.252 . S
C243 O255 1.272 . S
O244 Sm224 2.543 . S
O244 C226 1.261 . S
O245 Sm224 2.450 . S
O245 C226 1.242 . S
O246 Sm224 2.681 1_455 S
O246 Sm225 2.386 . S
O246 C233 1.265 1_455 S
O247 Sm224 2.464 . S
O247 C233 1.261 . S
O248 Sm224 2.396 . S
O248 C234 1.252 . S
O249 Sm225 2.408 1_655 S
O249 C234 1.272 . S
O250 Sm225 2.543 . S
O250 C235 1.261 . S
O251 Sm225 2.450 . S
O251 C235 1.242 . S
O252 Sm224 2.386 . S
O252 Sm225 2.681 1_655 S
O252 C242 1.271 1_655 S
O253 Sm225 2.464 . S
O253 C242 1.251 . S
O254 Sm225 2.396 . S
O254 C243 1.252 . S
O255 Sm224 2.408 1_455 S
O255 C243 1.272 . S
H256 C228 0.930 . S
H257 C229 0.929 . S
H258 C231 0.930 . S
H259 C232 0.929 . S
H260 C237 0.930 . S
H261 C238 0.929 . S
H262 C240 0.930 . S
H263 C241 0.929 . S
H264 C282 0.951 . S
H265 C284 0.951 . S
H266 C286 0.950 . S
H267 C287 0.950 . S
H268 C289 0.950 . S
H269 C292 0.950 . S
H270 C293 0.950 . S
H271 C295 0.950 . S
H272 C296 0.950 . S
H273 C297 0.951 . S
H274 C299 0.951 . S
H275 C301 0.950 . S
H276 C302 0.950 . S
H277 C304 0.952 . S
H278 C307 0.950 . S
H279 C308 0.950 . S
H280 C310 0.950 . S
H281 C311 0.950 . S
C282 H264 0.951 . S
C282 C283 1.366 1_565 S
C282 C284 1.388 . S
C283 C282 1.366 1_545 S
C283 C287 1.385 . S
C284 H265 0.951 . S
C284 C282 1.388 . S
C284 C285 1.366 1_565 S
C285 C284 1.366 1_545 S
C285 C286 1.414 . S
C285 C288 1.499 . S
C286 H266 0.950 . S
C286 C285 1.414 . S
C286 C287 1.374 . S
C287 H267 0.950 . S
C287 C283 1.385 . S
C287 C286 1.374 . S
C288 C285 1.499 . S
C288 C289 1.373 . S
C288 C290 1.389 . S
C289 H268 0.950 . S
C289 C288 1.373 . S
C289 C305 1.377 . S
C290 C288 1.389 . S
C290 C291 1.524 . S
C290 C304 1.377 . S
C291 C290 1.524 . S
C291 C292 1.397 . S
C291 C296 1.363 1_545 S
C292 H269 0.950 . S
C292 C291 1.397 . S
C292 C293 1.334 . S
C293 H270 0.950 . S
C293 C292 1.334 . S
C293 C294 1.287 . S
C294 C293 1.287 . S
C294 C295 1.524 1_545 S
C294 H313 0.923 . S
C295 H271 0.950 . S
C295 C294 1.524 1_565 S
C295 C296 1.415 . S
C296 H272 0.950 . S
C296 C291 1.363 1_565 S
C296 C295 1.415 . S
C297 H273 0.951 . S
C297 C298 1.366 . S
C297 C299 1.388 . S
C298 C297 1.366 . S
C298 C302 1.385 1_545 S
C299 H274 0.951 . S
C299 C297 1.388 . S
C299 C300 1.389 . S
C300 C299 1.389 . S
C300 C301 1.392 1_545 S
C300 C303 1.498 . S
C301 H275 0.950 . S
C301 C300 1.392 1_565 S
C301 C302 1.374 . S
C302 H276 0.950 . S
C302 C298 1.385 1_565 S
C302 C301 1.374 . S
C303 C300 1.498 . S
C303 C304 1.373 . S
C303 C305 1.389 . S
C304 H277 0.952 . S
C304 C290 1.377 . S
C304 C303 1.373 . S
C305 C289 1.377 . S
C305 C303 1.389 . S
C305 C306 1.523 1_545 S
C306 C305 1.523 1_565 S
C306 C307 1.397 . S
C306 C311 1.363 1_565 S
C307 H278 0.950 . S
C307 C306 1.397 . S
C307 C308 1.334 . S
C308 H279 0.950 . S
C308 C307 1.334 . S
C308 C309 1.287 . S
C309 C308 1.287 . S
C309 C310 1.524 1_565 S
C309 H312 0.999 . S
C310 H280 0.950 . S
C310 C309 1.524 1_545 S
C310 C311 1.415 . S
C311 H281 0.950 . S
C311 C306 1.363 1_545 S
C311 C310 1.415 . S
H312 C309 0.999 . S
H313 C294 0.923 . S
H314 C332 0.951 . S
H315 C334 0.951 . S
H316 C336 0.950 . S
H317 C337 0.950 . S
H318 C339 0.950 . S
H319 C342 0.950 . S
H320 C343 0.950 . S
H321 C345 0.950 . S
H322 C346 0.950 . S
H323 C347 0.951 . S
H324 C349 0.951 . S
H325 C351 0.950 . S
H326 C352 0.950 . S
H327 C354 0.950 . S
H328 C357 0.950 . S
H329 C358 0.950 . S
H330 C360 0.950 . S
H331 C361 0.950 . S
C332 H314 0.951 . S
C332 C333 1.366 . S
C332 C334 1.388 . S
C333 C332 1.366 . S
C333 C337 1.385 . S
C334 H315 0.951 . S
C334 C332 1.388 . S
C334 C335 1.366 . S
C335 C334 1.366 . S
C335 C336 1.414 . S
C335 C338 1.499 . S
C336 H316 0.950 . S
C336 C335 1.414 . S
C336 C337 1.374 . S
C337 H317 0.950 . S
C337 C333 1.385 . S
C337 C336 1.374 . S
C338 C335 1.499 . S
C338 C339 1.373 . S
C338 C340 1.389 . S
C339 H318 0.950 . S
C339 C338 1.373 . S
C339 C355 1.377 . S
C340 C338 1.389 . S
C340 C341 1.524 . S
C340 C354 1.377 . S
C341 C340 1.524 . S
C341 C342 1.397 . S
C341 C346 1.363 . S
C342 H319 0.950 . S
C342 C341 1.397 . S
C342 C343 1.334 . S
C343 H320 0.950 . S
C343 C342 1.334 . S
C343 C344 1.287 . S
C344 C343 1.287 . S
C344 C345 1.524 . S
C344 H363 0.913 . S
C345 H321 0.950 . S
C345 C344 1.524 . S
C345 C346 1.415 . S
C346 H322 0.950 . S
C346 C341 1.363 . S
C346 C345 1.415 . S
C347 H323 0.951 . S
C347 C348 1.366 . S
C347 C349 1.388 . S
C348 C347 1.366 . S
C348 C352 1.385 . S
C349 H324 0.951 . S
C349 C347 1.388 . S
C349 C350 1.366 . S
C350 C349 1.366 . S
C350 C351 1.414 . S
C350 C353 1.499 . S
C351 H325 0.950 . S
C351 C350 1.414 . S
C351 C352 1.374 . S
C352 H326 0.950 . S
C352 C348 1.385 . S
C352 C351 1.374 . S
C353 C350 1.499 . S
C353 C354 1.373 . S
C353 C355 1.389 . S
C354 H327 0.950 . S
C354 C340 1.377 . S
C354 C353 1.373 . S
C355 C339 1.377 . S
C355 C353 1.389 . S
C355 C356 1.524 . S
C356 C355 1.524 . S
C356 C357 1.397 . S
C356 C361 1.363 . S
C357 H328 0.950 . S
C357 C356 1.397 . S
C357 C358 1.334 . S
C358 H329 0.950 . S
C358 C357 1.334 . S
C358 C359 1.287 . S
C359 C358 1.287 . S
C359 C360 1.524 . S
C359 H362 0.999 . S
C360 H330 0.950 . S
C360 C359 1.524 . S
C360 C361 1.415 . S
C361 H331 0.950 . S
C361 C356 1.363 . S
C361 C360 1.415 . S
H362 C359 0.999 . S
H363 C344 0.913 . S
H364 C382 0.951 . S
H365 C384 0.951 . S
H366 C386 0.950 . S
H367 C387 0.950 . S
H368 C389 0.950 . S
H369 C392 0.950 . S
H370 C393 0.950 . S
H371 C395 0.950 . S
H372 C396 0.950 . S
H373 C397 0.951 . S
H374 C399 0.951 . S
H375 C401 0.950 . S
H376 C402 0.950 . S
H377 C404 0.950 . S
H378 C407 0.950 . S
H379 C408 0.950 . S
H380 C410 0.950 . S
H381 C411 0.950 . S
C382 H364 0.951 . S
C382 C383 1.366 . S
C382 C384 1.388 . S
C383 C382 1.366 . S
C383 C387 1.385 . S
C384 H365 0.951 . S
C384 C382 1.388 . S
C384 C385 1.366 . S
C385 C384 1.366 . S
C385 C386 1.414 . S
C385 C388 1.499 . S
C386 H366 0.950 . S
C386 C385 1.414 . S
C386 C387 1.374 . S
C387 H367 0.950 . S
C387 C383 1.385 . S
C387 C386 1.374 . S
C388 C385 1.499 . S
C388 C389 1.373 . S
C388 C390 1.389 . S
C389 H368 0.950 . S
C389 C388 1.373 . S
C389 C405 1.377 . S
C390 C388 1.389 . S
C390 C391 1.524 . S
C390 C404 1.377 . S
C391 C390 1.524 . S
C391 C392 1.397 . S
C391 C396 1.363 . S
C392 H369 0.950 . S
C392 C391 1.397 . S
C392 C393 1.334 . S
C393 H370 0.950 . S
C393 C392 1.334 . S
C393 C394 1.287 . S
C394 C393 1.287 . S
C394 C395 1.524 . S
C394 H413 0.913 . S
C395 H371 0.950 . S
C395 C394 1.524 . S
C395 C396 1.415 . S
C396 H372 0.950 . S
C396 C391 1.363 . S
C396 C395 1.415 . S
C397 H373 0.951 . S
C397 C398 1.366 . S
C397 C399 1.388 . S
C398 C397 1.366 . S
C398 C402 1.385 . S
C399 H374 0.951 . S
C399 C397 1.388 . S
C399 C400 1.366 . S
C400 C399 1.366 . S
C400 C401 1.414 . S
C400 C403 1.499 . S
C401 H375 0.950 . S
C401 C400 1.414 . S
C401 C402 1.374 . S
C402 H376 0.950 . S
C402 C398 1.385 . S
C402 C401 1.374 . S
C403 C400 1.499 . S
C403 C404 1.373 . S
C403 C405 1.389 . S
C404 H377 0.950 . S
C404 C390 1.377 . S
C404 C403 1.373 . S
C405 C389 1.377 . S
C405 C403 1.389 . S
C405 C406 1.524 . S
C406 C405 1.524 . S
C406 C407 1.397 . S
C406 C411 1.363 . S
C407 H378 0.950 . S
C407 C406 1.397 . S
C407 C408 1.334 . S
C408 H379 0.950 . S
C408 C407 1.334 . S
C408 C409 1.287 . S
C409 C408 1.287 . S
C409 C410 1.524 . S
C409 H412 0.999 . S
C410 H380 0.950 . S
C410 C409 1.524 . S
C410 C411 1.415 . S
C411 H381 0.950 . S
C411 C406 1.363 . S
C411 C410 1.415 . S
H412 C409 0.999 . S
H413 C394 0.913 . S
H414 C432 0.951 . S
H415 C434 0.951 . S
H416 C436 0.950 . S
H417 C437 0.950 . S
H418 C439 0.950 . S
H419 C442 0.950 . S
H420 C443 0.950 . S
H421 C445 0.950 . S
H422 C446 0.950 . S
H423 C447 0.951 . S
H424 C449 0.951 . S
H425 C451 0.950 . S
H426 C452 0.950 . S
H427 C454 0.950 . S
H428 C457 0.950 . S
H429 C458 0.950 . S
H430 C460 0.950 . S
H431 C461 0.950 . S
C432 H414 0.951 . S
C432 C433 1.366 1_655 S
C432 C434 1.388 . S
C433 C432 1.366 1_455 S
C433 C437 1.385 . S
C434 H415 0.951 . S
C434 C432 1.388 . S
C434 C435 1.360 1_655 S
C435 C434 1.360 1_455 S
C435 C436 1.422 . S
C435 C438 1.499 . S
C436 H416 0.950 . S
C436 C435 1.422 . S
C436 C437 1.374 . S
C437 H417 0.950 . S
C437 C433 1.385 . S
C437 C436 1.374 . S
C438 C435 1.499 . S
C438 C439 1.405 . S
C438 C440 1.361 1_455 S
C439 H418 0.950 . S
C439 C438 1.405 . S
C439 C455 1.377 . S
C440 C438 1.361 1_655 S
C440 C441 1.524 . S
C440 C454 1.377 . S
C441 C440 1.524 . S
C441 C442 1.397 . S
C441 C446 1.363 . S
C442 H419 0.950 . S
C442 C441 1.397 . S
C442 C443 1.334 . S
C443 H420 0.950 . S
C443 C442 1.334 . S
C443 C444 1.287 . S
C444 C443 1.287 . S
C444 C445 1.524 . S
C444 H463 0.913 . S
C445 H421 0.950 . S
C445 C444 1.524 . S
C445 C446 1.415 . S
C446 H422 0.950 . S
C446 C441 1.363 . S
C446 C445 1.415 . S
C447 H423 0.951 . S
C447 C448 1.366 . S
C447 C449 1.388 . S
C448 C447 1.366 . S
C448 C452 1.385 1_455 S
C449 H424 0.951 . S
C449 C447 1.388 . S
C449 C450 1.366 . S
C450 C449 1.366 . S
C450 C451 1.414 1_455 S
C450 C453 1.499 . S
C451 H425 0.950 . S
C451 C450 1.414 1_655 S
C451 C452 1.374 . S
C452 H426 0.950 . S
C452 C448 1.385 1_655 S
C452 C451 1.374 . S
C453 C450 1.499 . S
C453 C454 1.373 1_455 S
C453 C455 1.389 . S
C454 H427 0.950 . S
C454 C440 1.377 . S
C454 C453 1.373 1_655 S
C455 C439 1.377 . S
C455 C453 1.389 . S
C455 C456 1.524 . S
C456 C455 1.524 . S
C456 C457 1.397 . S
C456 C461 1.363 . S
C457 H428 0.950 . S
C457 C456 1.397 . S
C457 C458 1.334 . S
C458 H429 0.950 . S
C458 C457 1.334 . S
C458 C459 1.287 . S
C459 C458 1.287 . S
C459 C460 1.524 . S
C459 H462 0.999 . S
C460 H430 0.950 . S
C460 C459 1.524 . S
C460 C461 1.415 . S
C461 H431 0.950 . S
C461 C456 1.363 . S
C461 C460 1.415 . S
H462 C459 0.999 . S
H463 C444 0.913 . S
H464 C482 0.956 . S
H465 C484 0.951 . S
H466 C486 0.950 . S
H467 C487 0.950 . S
H468 C489 0.950 . S
H469 C492 0.950 . S
H470 C493 0.950 . S
H471 C495 0.950 . S
H472 C496 0.950 . S
H473 C497 0.951 . S
H474 C499 0.951 . S
H475 C501 0.950 1_554 S
H476 C502 0.951 . S
H477 C504 0.950 . S
H478 C507 0.950 . S
H479 C508 0.950 . S
H480 C510 0.950 . S
H481 C511 0.950 . S
C482 H464 0.956 . S
C482 C483 1.361 1_545 S
C482 C484 1.390 . S
C483 C482 1.361 1_565 S
C483 C487 1.389 . S
C484 H465 0.951 . S
C484 C482 1.390 . S
C484 C485 1.366 . S
C485 C484 1.366 . S
C485 C486 1.414 1_545 S
C485 C488 1.499 . S
C486 H466 0.950 . S
C486 C485 1.414 1_565 S
C486 C487 1.374 . S
C487 H467 0.950 . S
C487 C483 1.389 . S
C487 C486 1.374 . S
C488 C485 1.499 . S
C488 C489 1.371 1_545 S
C488 C490 1.392 . S
C489 H468 0.950 . S
C489 C488 1.371 1_565 S
C489 C505 1.377 1_554 S
C490 C488 1.392 . S
C490 C491 1.524 . S
C490 C504 1.377 . S
C491 C490 1.524 . S
C491 C492 1.397 . S
C491 C496 1.363 . S
C492 H469 0.950 . S
C492 C491 1.397 . S
C492 C493 1.334 . S
C493 H470 0.950 . S
C493 C492 1.334 . S
C493 C494 1.287 . S
C494 C493 1.287 . S
C494 C495 1.524 . S
C494 H513 0.913 . S
C495 H471 0.950 . S
C495 C494 1.524 . S
C495 C496 1.415 . S
C496 H472 0.950 . S
C496 C491 1.363 . S
C496 C495 1.415 . S
C497 H473 0.951 . S
C497 C498 1.366 . S
C497 C499 1.388 . S
C498 C497 1.366 . S
C498 C502 1.384 1_565 S
C499 H474 0.951 . S
C499 C497 1.388 . S
C499 C500 1.366 . S
C500 C499 1.366 . S
C500 C501 1.414 1_565 S
C500 C503 1.499 . S
C501 H475 0.950 1_556 S
C501 C500 1.414 1_545 S
C501 C502 1.374 . S
C502 H476 0.951 . S
C502 C498 1.384 1_545 S
C502 C501 1.374 . S
C503 C500 1.499 . S
C503 C504 1.373 1_566 S
C503 C505 1.389 . S
C504 H477 0.950 . S
C504 C490 1.377 . S
C504 C503 1.373 1_544 S
C505 C489 1.377 1_556 S
C505 C503 1.389 . S
C505 C506 1.524 . S
C506 C505 1.524 . S
C506 C507 1.397 . S
C506 C511 1.363 . S
C507 H478 0.950 . S
C507 C506 1.397 . S
C507 C508 1.334 . S
C508 H479 0.950 . S
C508 C507 1.334 . S
C508 C509 1.287 . S
C509 C508 1.287 . S
C509 C510 1.524 . S
C509 H512 0.999 . S
C510 H480 0.950 . S
C510 C509 1.524 . S
C510 C511 1.415 . S
C511 H481 0.950 . S
C511 C506 1.363 . S
C511 C510 1.415 . S
H512 C509 0.999 . S
H513 C494 0.913 . S
H514 C532 0.951 . S
H515 C534 0.951 . S
H516 C536 0.950 . S
H517 C537 0.950 . S
H518 C539 0.950 . S
H519 C542 0.950 . S
H520 C543 0.950 . S
H521 C545 0.950 . S
H522 C546 0.950 . S
H523 C547 0.951 . S
H524 C549 0.951 . S
H525 C551 0.950 . S
H526 C552 0.950 . S
H527 C554 0.950 1_556 S
H528 C557 0.950 . S
H529 C558 0.950 . S
H530 C560 0.950 . S
H531 C561 0.950 1_556 S
C532 H514 0.951 . S
C532 C533 1.366 . S
C532 C534 1.388 . S
C533 C532 1.366 . S
C533 C537 1.385 . S
C534 H515 0.951 . S
C534 C532 1.388 . S
C534 C535 1.366 . S
C535 C534 1.366 . S
C535 C536 1.414 . S
C535 C538 1.499 . S
C536 H516 0.950 . S
C536 C535 1.414 . S
C536 C537 1.374 . S
C537 H517 0.950 . S
C537 C533 1.385 . S
C537 C536 1.374 . S
C538 C535 1.499 . S
C538 C539 1.373 . S
C538 C540 1.389 . S
C539 H518 0.950 . S
C539 C538 1.373 . S
C539 C555 1.377 . S
C540 C538 1.389 . S
C540 C541 1.524 . S
C540 C554 1.377 . S
C541 C540 1.524 . S
C541 C542 1.397 . S
C541 C546 1.363 . S
C542 H519 0.950 . S
C542 C541 1.397 . S
C542 C543 1.334 . S
C543 H520 0.950 . S
C543 C542 1.334 . S
C543 C544 1.287 . S
C544 C543 1.287 . S
C544 C545 1.524 . S
C544 H563 0.913 . S
C545 H521 0.950 . S
C545 C544 1.524 . S
C545 C546 1.415 . S
C546 H522 0.950 . S
C546 C541 1.363 . S
C546 C545 1.415 . S
C547 H523 0.951 . S
C547 C548 1.366 . S
C547 C549 1.388 . S
C548 C547 1.366 . S
C548 C552 1.385 . S
C549 H524 0.951 . S
C549 C547 1.388 . S
C549 C550 1.366 . S
C550 C549 1.366 . S
C550 C551 1.414 . S
C550 C553 1.499 . S
C551 H525 0.950 . S
C551 C550 1.414 . S
C551 C552 1.374 . S
C552 H526 0.950 . S
C552 C548 1.385 . S
C552 C551 1.374 . S
C553 C550 1.499 . S
C553 C554 1.373 1_556 S
C553 C555 1.389 1_556 S
C554 H527 0.950 1_554 S
C554 C540 1.377 . S
C554 C553 1.373 1_554 S
C555 C539 1.377 . S
C555 C553 1.389 1_554 S
C555 C556 1.524 . S
C556 C555 1.524 . S
C556 C557 1.397 . S
C556 C561 1.363 . S
C557 H528 0.950 . S
C557 C556 1.397 . S
C557 C558 1.334 . S
C558 H529 0.950 . S
C558 C557 1.334 . S
C558 C559 1.287 . S
C559 C558 1.287 . S
C559 C560 1.524 1_554 S
C559 H562 0.999 . S
C560 H530 0.950 . S
C560 C559 1.524 1_556 S
C560 C561 1.415 1_556 S
C561 H531 0.950 1_554 S
C561 C556 1.363 . S
C561 C560 1.415 1_554 S
H562 C559 0.999 . S
H563 C544 0.913 . S
H564 C582 0.951 . S
H565 C584 0.951 . S
H566 C586 0.950 . S
H567 C587 0.950 . S
H568 C589 0.950 . S
H569 C592 0.950 . S
H570 C593 0.950 . S
H571 C595 0.950 1_556 S
H572 C596 0.950 . S
H573 C597 0.951 . S
H574 C599 0.951 1_554 S
H575 C601 0.950 . S
H576 C602 0.950 . S
H577 C604 0.950 . S
H578 C607 0.950 . S
H579 C608 0.950 . S
H580 C610 0.950 . S
H581 C611 0.950 . S
C582 H564 0.951 . S
C582 C583 1.366 . S
C582 C584 1.388 . S
C583 C582 1.366 . S
C583 C587 1.385 . S
C584 H565 0.951 . S
C584 C582 1.388 . S
C584 C585 1.366 . S
C585 C584 1.366 . S
C585 C586 1.414 . S
C585 C588 1.499 . S
C586 H566 0.950 . S
C586 C585 1.414 . S
C586 C587 1.374 . S
C587 H567 0.950 . S
C587 C583 1.385 . S
C587 C586 1.374 . S
C588 C585 1.499 . S
C588 C589 1.373 . S
C588 C590 1.389 . S
C589 H568 0.950 . S
C589 C588 1.373 . S
C589 C605 1.377 . S
C590 C588 1.389 . S
C590 C591 1.524 . S
C590 C604 1.377 1_554 S
C591 C590 1.524 . S
C591 C592 1.397 . S
C591 C596 1.363 1_554 S
C592 H569 0.950 . S
C592 C591 1.397 . S
C592 C593 1.334 . S
C593 H570 0.950 . S
C593 C592 1.334 . S
C593 C594 1.287 . S
C594 C593 1.287 . S
C594 C595 1.524 . S
C594 H613 0.913 . S
C595 H571 0.950 1_554 S
C595 C594 1.524 . S
C595 C596 1.415 1_554 S
C596 H572 0.950 . S
C596 C591 1.363 1_556 S
C596 C595 1.415 1_556 S
C597 H573 0.951 . S
C597 C598 1.366 . S
C597 C599 1.388 . S
C598 C597 1.366 . S
C598 C602 1.385 . S
C599 H574 0.951 1_556 S
C599 C597 1.388 . S
C599 C600 1.366 . S
C600 C599 1.366 . S
C600 C601 1.414 . S
C600 C603 1.499 . S
C601 H575 0.950 . S
C601 C600 1.414 . S
C601 C602 1.374 . S
C602 H576 0.950 . S
C602 C598 1.385 . S
C602 C601 1.374 . S
C603 C600 1.499 . S
C603 C604 1.373 . S
C603 C605 1.389 1_556 S
C604 H577 0.950 . S
C604 C590 1.377 1_556 S
C604 C603 1.373 . S
C605 C589 1.377 . S
C605 C603 1.389 1_554 S
C605 C606 1.524 . S
C606 C605 1.524 . S
C606 C607 1.397 1_554 S
C606 C611 1.363 . S
C607 H578 0.950 . S
C607 C606 1.397 1_556 S
C607 C608 1.334 . S
C608 H579 0.950 . S
C608 C607 1.334 . S
C608 C609 1.287 1_556 S
C609 C608 1.287 1_554 S
C609 C610 1.524 . S
C609 H612 0.999 . S
C610 H580 0.950 . S
C610 C609 1.524 . S
C610 C611 1.415 . S
C611 H581 0.950 . S
C611 C606 1.363 . S
C611 C610 1.415 . S
H612 C609 0.999 . S
H613 C594 0.913 . S
H614 C632 0.951 . S
H615 C634 0.951 . S
H616 C636 0.950 . S
H617 C637 0.950 . S
H618 C639 0.950 . S
H619 C642 0.950 . S
H620 C643 0.950 . S
H621 C645 0.950 . S
H622 C646 0.950 . S
H623 C647 0.951 . S
H624 C649 0.951 1_554 S
H625 C651 0.950 . S
H626 C652 0.950 . S
H627 C654 0.950 . S
H628 C657 0.950 1_556 S
H629 C658 0.950 . S
H630 C660 0.950 . S
H631 C661 0.950 . S
C632 H614 0.951 . S
C632 C633 1.361 1_455 S
C632 C634 1.388 . S
C633 C632 1.361 1_655 S
C633 C637 1.391 . S
C634 H615 0.951 . S
C634 C632 1.388 . S
C634 C635 1.366 1_455 S
C635 C634 1.366 1_655 S
C635 C636 1.414 . S
C635 C638 1.499 . S
C636 H616 0.950 . S
C636 C635 1.414 . S
C636 C637 1.374 . S
C637 H617 0.950 . S
C637 C633 1.391 . S
C637 C636 1.374 . S
C638 C635 1.499 . S
C638 C639 1.373 1_655 S
C638 C640 1.389 . S
C639 H618 0.950 . S
C639 C638 1.373 1_455 S
C639 C655 1.377 . S
C640 C638 1.389 . S
C640 C641 1.524 . S
C640 C654 1.377 1_554 S
C641 C640 1.524 . S
C641 C642 1.397 . S
C641 C646 1.363 1_554 S
C642 H619 0.950 . S
C642 C641 1.397 . S
C642 C643 1.334 . S
C643 H620 0.950 . S
C643 C642 1.334 . S
C643 C644 1.287 1_554 S
C644 C643 1.287 1_556 S
C644 C645 1.524 . S
C644 H663 0.913 . S
C645 H621 0.950 . S
C645 C644 1.524 . S
C645 C646 1.415 . S
C646 H622 0.950 . S
C646 C641 1.363 1_556 S
C646 C645 1.415 . S
C647 H623 0.951 . S
C647 C648 1.376 . S
C647 C649 1.388 . S
C648 C647 1.376 . S
C648 C652 1.375 1_655 S
C649 H624 0.951 1_556 S
C649 C647 1.388 . S
C649 C650 1.361 1_655 S
C650 C649 1.361 1_455 S
C650 C651 1.417 . S
C650 C653 1.499 . S
C651 H625 0.950 . S
C651 C650 1.417 . S
C651 C652 1.374 . S
C652 H626 0.950 . S
C652 C648 1.375 1_455 S
C652 C651 1.374 . S
C653 C650 1.499 . S
C653 C654 1.355 1_455 S
C653 C655 1.406 1_556 S
C654 H627 0.950 . S
C654 C640 1.377 1_556 S
C654 C653 1.355 1_655 S
C655 C639 1.377 . S
C655 C653 1.406 1_554 S
C655 C656 1.524 . S
C656 C655 1.524 . S
C656 C657 1.397 . S
C656 C661 1.363 . S
C657 H628 0.950 1_554 S
C657 C656 1.397 . S
C657 C658 1.334 . S
C658 H629 0.950 . S
C658 C657 1.334 . S
C658 C659 1.287 . S
C659 C658 1.287 . S
C659 C660 1.524 . S
C659 H662 0.999 . S
C660 H630 0.950 . S
C660 C659 1.524 . S
C660 C661 1.415 . S
C661 H631 0.950 . S
C661 C656 1.363 . S
C661 C660 1.415 . S
H662 C659 0.999 . S
H663 C644 0.913 . S
H664 C682 0.951 . S
H665 C684 0.951 . S
H666 C686 0.950 . S
H667 C687 0.950 . S
H668 C689 0.951 1_455 S
H669 C692 0.950 1_455 S
H670 C693 0.950 . S
H671 C695 0.950 . S
H672 C696 0.950 . S
H673 C697 0.951 1_455 S
H674 C699 0.951 1_455 S
H675 C701 0.950 . S
H676 C702 0.950 . S
H677 C704 0.950 . S
H678 C707 0.950 . S
H679 C708 0.950 . S
H680 C710 0.950 . S
H681 C711 0.950 . S
C682 H664 0.951 . S
C682 C683 1.366 1_655 S
C682 C684 1.388 . S
C683 C682 1.366 1_455 S
C683 C687 1.385 . S
C684 H665 0.951 . S
C684 C682 1.388 . S
C684 C685 1.366 . S
C685 C684 1.366 . S
C685 C686 1.414 1_655 S
C685 C688 1.499 . S
C686 H666 0.950 . S
C686 C685 1.414 1_455 S
C686 C687 1.374 . S
C687 H667 0.950 . S
C687 C683 1.385 . S
C687 C686 1.374 . S
C688 C685 1.499 . S
C688 C689 1.373 . S
C688 C690 1.389 . S
C689 H668 0.951 1_655 S
C689 C688 1.373 . S
C689 C705 1.376 . S
C690 C688 1.389 . S
C690 C691 1.524 . S
C690 C704 1.377 . S
C691 C690 1.524 . S
C691 C692 1.397 . S
C691 C696 1.363 . S
C692 H669 0.950 1_655 S
C692 C691 1.397 . S
C692 C693 1.334 . S
C693 H670 0.950 . S
C693 C692 1.334 . S
C693 C694 1.287 . S
C694 C693 1.287 . S
C694 C695 1.524 . S
C694 H713 0.913 . S
C695 H671 0.950 . S
C695 C694 1.524 . S
C695 C696 1.415 . S
C696 H672 0.950 . S
C696 C691 1.363 . S
C696 C695 1.415 . S
C697 H673 0.951 1_655 S
C697 C698 1.366 . S
C697 C699 1.388 . S
C698 C697 1.366 . S
C698 C702 1.385 . S
C699 H674 0.951 1_655 S
C699 C697 1.388 . S
C699 C700 1.366 . S
C700 C699 1.366 . S
C700 C701 1.414 . S
C700 C703 1.499 . S
C701 H675 0.950 . S
C701 C700 1.414 . S
C701 C702 1.374 . S
C702 H676 0.950 . S
C702 C698 1.385 . S
C702 C701 1.374 . S
C703 C700 1.499 . S
C703 C704 1.373 . S
C703 C705 1.389 . S
C704 H677 0.950 . S
C704 C690 1.377 . S
C704 C703 1.373 . S
C705 C689 1.376 . S
C705 C703 1.389 . S
C705 C706 1.524 1_655 S
C706 C705 1.524 1_455 S
C706 C707 1.397 1_455 S
C706 C711 1.363 . S
C707 H678 0.950 . S
C707 C706 1.397 1_655 S
C707 C708 1.334 . S
C708 H679 0.950 . S
C708 C707 1.334 . S
C708 C709 1.287 1_655 S
C709 C708 1.287 1_455 S
C709 C710 1.524 . S
C709 H712 0.999 . S
C710 H680 0.950 . S
C710 C709 1.524 . S
C710 C711 1.415 . S
C711 H681 0.950 . S
C711 C706 1.363 . S
C711 C710 1.415 . S
H712 C709 0.999 . S
H713 C694 0.913 . S
H714 C732 0.951 . S
H715 C734 0.951 . S
H716 C736 0.950 . S
H717 C737 0.950 . S
H718 C739 0.950 . S
H719 C742 0.950 . S
H720 C743 0.950 . S
H721 C745 0.950 . S
H722 C746 0.950 1_565 S
H723 C747 0.951 . S
H724 C749 0.951 . S
H725 C751 0.950 . S
H726 C752 0.950 . S
H727 C754 0.950 . S
H728 C757 0.950 . S
H729 C758 0.950 . S
H730 C760 0.950 . S
H731 C761 0.950 . S
C732 H714 0.951 . S
C732 C733 1.366 1_565 S
C732 C734 1.388 . S
C733 C732 1.366 1_545 S
C733 C737 1.385 . S
C734 H715 0.951 . S
C734 C732 1.388 . S
C734 C735 1.366 . S
C735 C734 1.366 . S
C735 C736 1.414 1_565 S
C735 C738 1.499 . S
C736 H716 0.950 . S
C736 C735 1.414 1_545 S
C736 C737 1.374 . S
C737 H717 0.950 . S
C737 C733 1.385 . S
C737 C736 1.374 . S
C738 C735 1.499 . S
C738 C739 1.373 . S
C738 C740 1.389 . S
C739 H718 0.950 . S
C739 C738 1.373 . S
C739 C755 1.377 . S
C740 C738 1.389 . S
C740 C741 1.524 1_565 S
C740 C754 1.377 . S
C741 C740 1.524 1_545 S
C741 C742 1.397 . S
C741 C746 1.363 . S
C742 H719 0.950 . S
C742 C741 1.397 . S
C742 C743 1.334 . S
C743 H720 0.950 . S
C743 C742 1.334 . S
C743 C744 1.287 . S
C744 C743 1.287 . S
C744 C745 1.524 . S
C744 H763 0.913 . S
C745 H721 0.950 . S
C745 C744 1.524 . S
C745 C746 1.415 . S
C746 H722 0.950 1_545 S
C746 C741 1.363 . S
C746 C745 1.415 . S
C747 H723 0.951 . S
C747 C748 1.366 . S
C747 C749 1.388 . S
C748 C747 1.366 . S
C748 C752 1.385 . S
C749 H724 0.951 . S
C749 C747 1.388 . S
C749 C750 1.366 . S
C750 C749 1.366 . S
C750 C751 1.414 . S
C750 C753 1.499 . S
C751 H725 0.950 . S
C751 C750 1.414 . S
C751 C752 1.374 . S
C752 H726 0.950 . S
C752 C748 1.385 . S
C752 C751 1.374 . S
C753 C750 1.499 . S
C753 C754 1.373 . S
C753 C755 1.389 . S
C754 H727 0.950 . S
C754 C740 1.377 . S
C754 C753 1.373 . S
C755 C739 1.377 . S
C755 C753 1.389 . S
C755 C756 1.524 . S
C756 C755 1.524 . S
C756 C757 1.397 . S
C756 C761 1.363 . S
C757 H728 0.950 . S
C757 C756 1.397 . S
C757 C758 1.334 . S
C758 H729 0.950 . S
C758 C757 1.334 . S
C758 C759 1.287 . S
C759 C758 1.287 . S
C759 C760 1.524 . S
C759 H762 0.999 . S
C760 H730 0.950 . S
C760 C759 1.524 . S
C760 C761 1.415 . S
C761 H731 0.950 . S
C761 C756 1.363 . S
C761 C760 1.415 . S
H762 C759 0.999 . S
H763 C744 0.913 . S
H764 C782 0.951 . S
H765 C784 0.951 . S
H766 C786 0.950 . S
H767 C787 0.950 . S
H768 C789 0.950 . S
H769 C792 0.950 . S
H770 C793 0.950 . S
H771 C795 0.950 . S
H772 C796 0.950 . S
H773 C797 0.951 . S
H774 C799 0.951 . S
H775 C801 0.950 . S
H776 C802 0.950 . S
H777 C804 0.950 . S
H778 C807 0.950 . S
H779 C808 0.950 . S
H780 C810 0.950 . S
H781 C811 0.950 . S
C782 H764 0.951 . S
C782 C783 1.366 . S
C782 C784 1.388 . S
C783 C782 1.366 . S
C783 C787 1.385 . S
C784 H765 0.951 . S
C784 C782 1.388 . S
C784 C785 1.366 . S
C785 C784 1.366 . S
C785 C786 1.414 . S
C785 C788 1.499 . S
C786 H766 0.950 . S
C786 C785 1.414 . S
C786 C787 1.374 . S
C787 H767 0.950 . S
C787 C783 1.385 . S
C787 C786 1.374 . S
C788 C785 1.499 . S
C788 C789 1.373 . S
C788 C790 1.389 . S
C789 H768 0.950 . S
C789 C788 1.373 . S
C789 C805 1.377 . S
C790 C788 1.389 . S
C790 C791 1.524 . S
C790 C804 1.377 . S
C791 C790 1.524 . S
C791 C792 1.397 . S
C791 C796 1.363 . S
C792 H769 0.950 . S
C792 C791 1.397 . S
C792 C793 1.334 . S
C793 H770 0.950 . S
C793 C792 1.334 . S
C793 C794 1.287 . S
C794 C793 1.287 . S
C794 C795 1.524 . S
C794 H813 0.913 . S
C795 H771 0.950 . S
C795 C794 1.524 . S
C795 C796 1.415 . S
C796 H772 0.950 . S
C796 C791 1.363 . S
C796 C795 1.415 . S
C797 H773 0.951 . S
C797 C798 1.366 . S
C797 C799 1.388 . S
C798 C797 1.366 . S
C798 C802 1.385 . S
C799 H774 0.951 . S
C799 C797 1.388 . S
C799 C800 1.366 . S
C800 C799 1.366 . S
C800 C801 1.414 . S
C800 C803 1.499 . S
C801 H775 0.950 . S
C801 C800 1.414 . S
C801 C802 1.374 . S
C802 H776 0.950 . S
C802 C798 1.385 . S
C802 C801 1.374 . S
C803 C800 1.499 . S
C803 C804 1.373 . S
C803 C805 1.389 . S
C804 H777 0.950 . S
C804 C790 1.377 . S
C804 C803 1.373 . S
C805 C789 1.377 . S
C805 C803 1.389 . S
C805 C806 1.524 . S
C806 C805 1.524 . S
C806 C807 1.397 . S
C806 C811 1.363 . S
C807 H778 0.950 . S
C807 C806 1.397 . S
C807 C808 1.334 . S
C808 H779 0.950 . S
C808 C807 1.334 . S
C808 C809 1.287 . S
C809 C808 1.287 . S
C809 C810 1.524 . S
C809 H812 0.999 . S
C810 H780 0.950 . S
C810 C809 1.524 . S
C810 C811 1.415 . S
C811 H781 0.950 . S
C811 C806 1.363 . S
C811 C810 1.415 . S
H812 C809 0.999 . S
H813 C794 0.913 . S
H814 C832 0.951 . S
H815 C834 0.951 . S
H816 C836 0.950 . S
H817 C837 0.950 . S
H818 C839 0.950 . S
H819 C842 0.950 . S
H820 C843 0.950 . S
H821 C845 0.950 . S
H822 C846 0.950 . S
H823 C847 0.951 . S
H824 C849 0.951 . S
H825 C851 0.950 . S
H826 C852 0.950 . S
H827 C854 0.950 . S
H828 C857 0.950 . S
H829 C858 0.950 . S
H830 C860 0.950 . S
H831 C861 0.950 . S
C832 H814 0.951 . S
C832 C833 1.366 . S
C832 C834 1.388 . S
C833 C832 1.366 . S
C833 C837 1.385 . S
C834 H815 0.951 . S
C834 C832 1.388 . S
C834 C835 1.366 . S
C835 C834 1.366 . S
C835 C836 1.414 . S
C835 C838 1.499 . S
C836 H816 0.950 . S
C836 C835 1.414 . S
C836 C837 1.374 . S
C837 H817 0.950 . S
C837 C833 1.385 . S
C837 C836 1.374 . S
C838 C835 1.499 . S
C838 C839 1.373 . S
C838 C840 1.389 . S
C839 H818 0.950 . S
C839 C838 1.373 . S
C839 C855 1.377 . S
C840 C838 1.389 . S
C840 C841 1.524 . S
C840 C854 1.377 . S
C841 C840 1.524 . S
C841 C842 1.397 . S
C841 C846 1.363 . S
C842 H819 0.950 . S
C842 C841 1.397 . S
C842 C843 1.334 . S
C843 H820 0.950 . S
C843 C842 1.334 . S
C843 C844 1.287 . S
C844 C843 1.287 . S
C844 C845 1.524 . S
C844 H863 0.913 . S
C845 H821 0.950 . S
C845 C844 1.524 . S
C845 C846 1.415 . S
C846 H822 0.950 . S
C846 C841 1.363 . S
C846 C845 1.415 . S
C847 H823 0.951 . S
C847 C848 1.366 . S
C847 C849 1.388 . S
C848 C847 1.366 . S
C848 C852 1.385 . S
C849 H824 0.951 . S
C849 C847 1.388 . S
C849 C850 1.366 . S
C850 C849 1.366 . S
C850 C851 1.414 . S
C850 C853 1.499 . S
C851 H825 0.950 . S
C851 C850 1.414 . S
C851 C852 1.374 . S
C852 H826 0.950 . S
C852 C848 1.385 . S
C852 C851 1.374 . S
C853 C850 1.499 . S
C853 C854 1.373 . S
C853 C855 1.389 . S
C854 H827 0.950 . S
C854 C840 1.377 . S
C854 C853 1.373 . S
C855 C839 1.377 . S
C855 C853 1.389 . S
C855 C856 1.524 . S
C856 C855 1.524 . S
C856 C857 1.397 . S
C856 C861 1.363 . S
C857 H828 0.950 . S
C857 C856 1.397 . S
C857 C858 1.334 . S
C858 H829 0.950 . S
C858 C857 1.334 . S
C858 C859 1.287 . S
C859 C858 1.287 . S
C859 C860 1.524 . S
C859 H862 0.999 . S
C860 H830 0.950 . S
C860 C859 1.524 . S
C860 C861 1.415 . S
C861 H831 0.950 . S
C861 C856 1.363 . S
C861 C860 1.415 . S
H862 C859 0.999 . S
H863 C844 0.913 . S
H864 C882 0.951 . S
H865 C884 0.951 . S
H866 C886 0.950 . S
H867 C887 0.950 . S
H868 C889 0.950 . S
H869 C892 0.950 . S
H870 C893 0.950 . S
H871 C895 0.950 . S
H872 C896 0.950 . S
H873 C897 0.951 . S
H874 C899 0.951 . S
H875 C901 0.950 . S
H876 C902 0.950 . S
H877 C904 0.919 1_655 S
H878 C907 0.950 . S
H879 C908 0.950 . S
H880 C910 0.950 . S
H881 C911 0.950 . S
C882 H864 0.951 . S
C882 C883 1.366 . S
C882 C884 1.388 1_655 S
C883 C882 1.366 . S
C883 C887 1.385 1_655 S
C884 H865 0.951 . S
C884 C882 1.388 1_455 S
C884 C885 1.366 . S
C885 C884 1.366 . S
C885 C886 1.414 . S
C885 C888 1.499 . S
C886 H866 0.950 . S
C886 C885 1.414 . S
C886 C887 1.374 . S
C887 H867 0.950 . S
C887 C883 1.385 1_455 S
C887 C886 1.374 . S
C888 C885 1.499 . S
C888 C889 1.373 . S
C888 C890 1.389 1_455 S
C889 H868 0.950 . S
C889 C888 1.373 . S
C889 C905 1.377 . S
C890 C888 1.389 1_655 S
C890 C891 1.524 . S
C890 C904 1.365 1_655 S
C891 C890 1.524 . S
C891 C892 1.397 . S
C891 C896 1.363 . S
C892 H869 0.950 . S
C892 C891 1.397 . S
C892 C893 1.334 . S
C893 H870 0.950 . S
C893 C892 1.334 . S
C893 C894 1.287 . S
C894 C893 1.287 . S
C894 C895 1.524 . S
C894 H913 0.913 . S
C895 H871 0.950 . S
C895 C894 1.524 . S
C895 C896 1.415 . S
C896 H872 0.950 . S
C896 C891 1.363 . S
C896 C895 1.415 . S
C897 H873 0.951 . S
C897 C898 1.366 . S
C897 C899 1.388 . S
C898 C897 1.366 . S
C898 C902 1.385 1_556 S
C899 H874 0.951 . S
C899 C897 1.388 . S
C899 C900 1.366 1_556 S
C900 C899 1.366 1_554 S
C900 C901 1.414 . S
C900 C903 1.499 . S
C901 H875 0.950 . S
C901 C900 1.414 . S
C901 C902 1.374 . S
C902 H876 0.950 . S
C902 C898 1.385 1_554 S
C902 C901 1.374 . S
C903 C900 1.499 . S
C903 C904 1.418 . S
C903 C905 1.389 . S
C904 H877 0.919 1_455 S
C904 C890 1.365 1_455 S
C904 C903 1.418 . S
C905 C889 1.377 . S
C905 C903 1.389 . S
C905 C906 1.524 . S
C906 C905 1.524 . S
C906 C907 1.397 . S
C906 C911 1.363 1_554 S
C907 H878 0.950 . S
C907 C906 1.397 . S
C907 C908 1.334 . S
C908 H879 0.950 . S
C908 C907 1.334 . S
C908 C909 1.287 1_554 S
C909 C908 1.287 1_556 S
C909 C910 1.524 . S
C909 H912 0.999 . S
C910 H880 0.950 . S
C910 C909 1.524 . S
C910 C911 1.415 . S
C911 H881 0.950 . S
C911 C906 1.363 1_556 S
C911 C910 1.415 . S
H912 C909 0.999 . S
H913 C894 0.913 . S
H914 C932 0.951 . S
H915 C934 0.951 . S
H916 C936 0.950 . S
H917 C937 0.950 . S
H918 C939 0.950 . S
H919 C942 0.950 . S
H920 C943 0.950 . S
H921 C945 0.950 . S
H922 C946 0.950 . S
H923 C947 0.951 . S
H924 C949 0.951 . S
H925 C951 0.950 . S
H926 C952 0.950 . S
H927 C954 0.950 . S
H928 C957 0.950 . S
H929 C958 0.950 . S
H930 C960 0.950 . S
H931 C961 0.950 . S
C932 H914 0.951 . S
C932 C933 1.366 . S
C932 C934 1.388 . S
C933 C932 1.366 . S
C933 C937 1.385 1_565 S
C934 H915 0.951 . S
C934 C932 1.388 . S
C934 C935 1.366 1_565 S
C935 C934 1.366 1_545 S
C935 C936 1.414 . S
C935 C938 1.499 . S
C936 H916 0.950 . S
C936 C935 1.414 . S
C936 C937 1.374 . S
C937 H917 0.950 . S
C937 C933 1.385 1_545 S
C937 C936 1.374 . S
C938 C935 1.499 . S
C938 C939 1.373 . S
C938 C940 1.389 1_545 S
C939 H918 0.950 . S
C939 C938 1.373 . S
C939 C955 1.377 . S
C940 C938 1.389 1_565 S
C940 C941 1.524 . S
C940 C954 1.377 . S
C941 C940 1.524 . S
C941 C942 1.397 . S
C941 C946 1.363 . S
C942 H919 0.950 . S
C942 C941 1.397 . S
C942 C943 1.334 . S
C943 H920 0.950 . S
C943 C942 1.334 . S
C943 C944 1.287 . S
C944 C943 1.287 . S
C944 C945 1.524 . S
C944 H963 0.913 . S
C945 H921 0.950 . S
C945 C944 1.524 . S
C945 C946 1.415 . S
C946 H922 0.950 . S
C946 C941 1.363 . S
C946 C945 1.415 . S
C947 H923 0.951 . S
C947 C948 1.366 . S
C947 C949 1.388 . S
C948 C947 1.366 . S
C948 C952 1.385 1_556 S
C949 H924 0.951 . S
C949 C947 1.388 . S
C949 C950 1.366 1_556 S
C950 C949 1.366 1_554 S
C950 C951 1.414 . S
C950 C953 1.499 . S
C951 H925 0.950 . S
C951 C950 1.414 . S
C951 C952 1.374 . S
C952 H926 0.950 . S
C952 C948 1.385 1_554 S
C952 C951 1.374 . S
C953 C950 1.499 . S
C953 C954 1.373 1_545 S
C953 C955 1.389 . S
C954 H927 0.950 . S
C954 C940 1.377 . S
C954 C953 1.373 1_565 S
C955 C939 1.377 . S
C955 C953 1.389 . S
C955 C956 1.524 . S
C956 C955 1.524 . S
C956 C957 1.397 . S
C956 C961 1.363 . S
C957 H928 0.950 . S
C957 C956 1.397 . S
C957 C958 1.334 . S
C958 H929 0.950 . S
C958 C957 1.334 . S
C958 C959 1.287 . S
C959 C958 1.287 . S
C959 C960 1.524 . S
C959 H962 0.999 . S
C960 H930 0.950 . S
C960 C959 1.524 . S
C960 C961 1.415 . S
C961 H931 0.950 . S
C961 C956 1.363 . S
C961 C960 1.415 . S
H962 C959 0.999 . S
H963 C944 0.913 . S
H964 C982 0.951 . S
H965 C984 0.951 . S
H966 C986 0.950 . S
H967 C987 0.950 . S
H968 C989 0.950 . S
H969 C992 0.950 . S
H970 C993 0.950 . S
H971 C995 0.950 . S
H972 C996 0.950 . S
H973 C997 0.951 . S
H974 C999 0.951 . S
H975 C1001 0.950 . S
H976 C1002 0.950 . S
H977 C1004 0.950 . S
H978 C1007 0.950 . S
H979 C1008 0.950 . S
H980 C1010 0.950 . S
H981 C1011 0.950 . S
C982 H964 0.951 . S
C982 C983 1.366 . S
C982 C984 1.388 . S
C983 C982 1.366 . S
C983 C987 1.385 . S
C984 H965 0.951 . S
C984 C982 1.388 . S
C984 C985 1.366 . S
C985 C984 1.366 . S
C985 C986 1.414 . S
C985 C988 1.499 . S
C986 H966 0.950 . S
C986 C985 1.414 . S
C986 C987 1.374 . S
C987 H967 0.950 . S
C987 C983 1.385 . S
C987 C986 1.374 . S
C988 C985 1.499 . S
C988 C989 1.373 . S
C988 C990 1.389 . S
C989 H968 0.950 . S
C989 C988 1.373 . S
C989 C1005 1.377 . S
C990 C988 1.389 . S
C990 C991 1.524 . S
C990 C1004 1.377 . S
C991 C990 1.524 . S
C991 C992 1.397 . S
C991 C996 1.363 1_554 S
C992 H969 0.950 . S
C992 C991 1.397 . S
C992 C993 1.334 . S
C993 H970 0.950 . S
C993 C992 1.334 . S
C993 C994 1.287 1_554 S
C994 C993 1.287 1_556 S
C994 C995 1.524 . S
C994 H1013 0.913 . S
C995 H971 0.950 . S
C995 C994 1.524 . S
C995 C996 1.415 . S
C996 H972 0.950 . S
C996 C991 1.363 1_556 S
C996 C995 1.415 . S
C997 H973 0.951 . S
C997 C998 1.366 1_554 S
C997 C999 1.388 . S
C998 C997 1.366 1_556 S
C998 C1002 1.385 . S
C999 H974 0.951 . S
C999 C997 1.388 . S
C999 C1000 1.366 . S
C1000 C999 1.366 . S
C1000 C1001 1.414 1_554 S
C1000 C1003 1.499 . S
C1001 H975 0.950 . S
C1001 C1000 1.414 1_556 S
C1001 C1002 1.374 . S
C1002 H976 0.950 . S
C1002 C998 1.385 . S
C1002 C1001 1.374 . S
C1003 C1000 1.499 . S
C1003 C1004 1.373 . S
C1003 C1005 1.389 . S
C1004 H977 0.950 . S
C1004 C990 1.377 . S
C1004 C1003 1.373 . S
C1005 C989 1.377 . S
C1005 C1003 1.389 . S
C1005 C1006 1.524 . S
C1006 C1005 1.524 . S
C1006 C1007 1.397 . S
C1006 C1011 1.363 . S
C1007 H978 0.950 . S
C1007 C1006 1.397 . S
C1007 C1008 1.334 . S
C1008 H979 0.950 . S
C1008 C1007 1.334 . S
C1008 C1009 1.287 . S
C1009 C1008 1.287 . S
C1009 C1010 1.524 . S
C1009 H1012 0.999 . S
C1010 H980 0.950 . S
C1010 C1009 1.524 . S
C1010 C1011 1.415 . S
C1011 H981 0.950 . S
C1011 C1006 1.363 . S
C1011 C1010 1.415 . S
H1012 C1009 0.999 . S
H1013 C994 0.913 . S
H1014 C1032 0.951 . S
H1015 C1034 0.951 . S
H1016 C1036 0.950 . S
H1017 C1037 0.950 . S
H1018 C1039 0.950 . S
H1019 C1042 0.950 . S
H1020 C1043 0.950 1_554 S
H1021 C1045 0.950 . S
H1022 C1046 0.950 . S
H1023 C1047 0.951 . S
H1024 C1049 0.951 . S
H1025 C1051 0.950 1_556 S
H1026 C1052 0.950 . S
H1027 C1054 0.950 . S
H1028 C1057 0.950 . S
H1029 C1058 0.950 . S
H1030 C1060 0.950 . S
H1031 C1061 0.950 . S
C1032 H1014 0.951 . S
C1032 C1033 1.366 . S
C1032 C1034 1.388 . S
C1033 C1032 1.366 . S
C1033 C1037 1.385 . S
C1034 H1015 0.951 . S
C1034 C1032 1.388 . S
C1034 C1035 1.366 . S
C1035 C1034 1.366 . S
C1035 C1036 1.414 . S
C1035 C1038 1.499 . S
C1036 H1016 0.950 . S
C1036 C1035 1.414 . S
C1036 C1037 1.374 . S
C1037 H1017 0.950 . S
C1037 C1033 1.385 . S
C1037 C1036 1.374 . S
C1038 C1035 1.499 . S
C1038 C1039 1.373 . S
C1038 C1040 1.389 . S
C1039 H1018 0.950 . S
C1039 C1038 1.373 . S
C1039 C1055 1.377 . S
C1040 C1038 1.389 . S
C1040 C1041 1.524 . S
C1040 C1054 1.377 . S
C1041 C1040 1.524 . S
C1041 C1042 1.397 . S
C1041 C1046 1.363 1_554 S
C1042 H1019 0.950 . S
C1042 C1041 1.397 . S
C1042 C1043 1.334 1_554 S
C1043 H1020 0.950 1_556 S
C1043 C1042 1.334 1_556 S
C1043 C1044 1.287 . S
C1044 C1043 1.287 . S
C1044 C1045 1.524 . S
C1044 H1063 0.913 . S
C1045 H1021 0.950 . S
C1045 C1044 1.524 . S
C1045 C1046 1.415 . S
C1046 H1022 0.950 . S
C1046 C1041 1.363 1_556 S
C1046 C1045 1.415 . S
C1047 H1023 0.951 . S
C1047 C1048 1.366 1_554 S
C1047 C1049 1.388 . S
C1048 C1047 1.366 1_556 S
C1048 C1052 1.385 . S
C1049 H1024 0.951 . S
C1049 C1047 1.388 . S
C1049 C1050 1.366 . S
C1050 C1049 1.366 . S
C1050 C1051 1.414 . S
C1050 C1053 1.499 . S
C1051 H1025 0.950 1_554 S
C1051 C1050 1.414 . S
C1051 C1052 1.374 1_554 S
C1052 H1026 0.950 . S
C1052 C1048 1.385 . S
C1052 C1051 1.374 1_556 S
C1053 C1050 1.499 . S
C1053 C1054 1.373 . S
C1053 C1055 1.389 . S
C1054 H1027 0.950 . S
C1054 C1040 1.377 . S
C1054 C1053 1.373 . S
C1055 C1039 1.377 . S
C1055 C1053 1.389 . S
C1055 C1056 1.524 . S
C1056 C1055 1.524 . S
C1056 C1057 1.397 . S
C1056 C1061 1.363 . S
C1057 H1028 0.950 . S
C1057 C1056 1.397 . S
C1057 C1058 1.334 . S
C1058 H1029 0.950 . S
C1058 C1057 1.334 . S
C1058 C1059 1.287 . S
C1059 C1058 1.287 . S
C1059 C1060 1.524 . S
C1059 H1062 0.999 . S
C1060 H1030 0.950 . S
C1060 C1059 1.524 . S
C1060 C1061 1.415 . S
C1061 H1031 0.950 . S
C1061 C1056 1.363 . S
C1061 C1060 1.415 . S
H1062 C1059 0.999 . S
H1063 C1044 0.913 . S
H1064 C1082 0.951 . S
H1065 C1084 0.951 . S
H1066 C1086 0.950 . S
H1067 C1087 0.950 . S
H1068 C1089 0.950 . S
H1069 C1092 0.950 . S
H1070 C1093 0.950 . S
H1071 C1095 0.950 . S
H1072 C1096 0.950 . S
H1073 C1097 0.951 . S
H1074 C1099 0.951 . S
H1075 C1101 0.950 . S
H1076 C1102 0.950 . S
H1077 C1104 0.950 . S
H1078 C1107 0.950 1_455 S
H1079 C1108 0.950 . S
H1080 C1110 0.950 . S
H1081 C1111 0.950 . S
C1082 H1064 0.951 . S
C1082 C1083 1.366 . S
C1082 C1084 1.388 . S
C1083 C1082 1.366 . S
C1083 C1087 1.385 1_455 S
C1084 H1065 0.951 . S
C1084 C1082 1.388 . S
C1084 C1085 1.366 . S
C1085 C1084 1.366 . S
C1085 C1086 1.414 1_455 S
C1085 C1088 1.499 . S
C1086 H1066 0.950 . S
C1086 C1085 1.414 1_655 S
C1086 C1087 1.374 . S
C1087 H1067 0.950 . S
C1087 C1083 1.385 1_655 S
C1087 C1086 1.374 . S
C1088 C1085 1.499 . S
C1088 C1089 1.373 1_455 S
C1088 C1090 1.389 . S
C1089 H1068 0.950 . S
C1089 C1088 1.373 1_655 S
C1089 C1105 1.377 . S
C1090 C1088 1.389 . S
C1090 C1091 1.524 . S
C1090 C1104 1.377 . S
C1091 C1090 1.524 . S
C1091 C1092 1.397 . S
C1091 C1096 1.363 . S
C1092 H1069 0.950 . S
C1092 C1091 1.397 . S
C1092 C1093 1.334 . S
C1093 H1070 0.950 . S
C1093 C1092 1.334 . S
C1093 C1094 1.287 . S
C1094 C1093 1.287 . S
C1094 C1095 1.524 . S
C1094 H1113 0.913 . S
C1095 H1071 0.950 . S
C1095 C1094 1.524 . S
C1095 C1096 1.415 . S
C1096 H1072 0.950 . S
C1096 C1091 1.363 . S
C1096 C1095 1.415 . S
C1097 H1073 0.951 . S
C1097 C1098 1.366 1_655 S
C1097 C1099 1.388 . S
C1098 C1097 1.366 1_455 S
C1098 C1102 1.385 . S
C1099 H1074 0.951 . S
C1099 C1097 1.388 . S
C1099 C1100 1.366 1_655 S
C1100 C1099 1.366 1_455 S
C1100 C1101 1.414 . S
C1100 C1103 1.499 . S
C1101 H1075 0.950 . S
C1101 C1100 1.414 . S
C1101 C1102 1.374 . S
C1102 H1076 0.950 . S
C1102 C1098 1.385 . S
C1102 C1101 1.374 . S
C1103 C1100 1.499 . S
C1103 C1104 1.373 . S
C1103 C1105 1.389 1_455 S
C1104 H1077 0.950 . S
C1104 C1090 1.377 . S
C1104 C1103 1.373 . S
C1105 C1089 1.377 . S
C1105 C1103 1.389 1_655 S
C1105 C1106 1.524 . S
C1106 C1105 1.524 . S
C1106 C1107 1.397 . S
C1106 C1111 1.363 . S
C1107 H1078 0.950 1_655 S
C1107 C1106 1.397 . S
C1107 C1108 1.334 1_556 S
C1108 H1079 0.950 . S
C1108 C1107 1.334 1_554 S
C1108 C1109 1.287 . S
C1109 C1108 1.287 . S
C1109 C1110 1.524 . S
C1109 H1112 0.999 . S
C1110 H1080 0.950 . S
C1110 C1109 1.524 . S
C1110 C1111 1.415 1_554 S
C1111 H1081 0.950 . S
C1111 C1106 1.363 . S
C1111 C1110 1.415 1_556 S
H1112 C1109 0.999 . S
H1113 C1094 0.913 . S
H1114 C1132 0.951 . S
H1115 C1134 0.951 . S
H1116 C1136 0.950 . S
H1117 C1137 0.950 . S
H1118 C1139 0.941 1_565 S
H1119 C1142 0.950 . S
H1120 C1143 0.950 . S
H1121 C1145 0.950 . S
H1122 C1146 0.950 1_565 S
H1123 C1147 0.951 . S
H1124 C1149 0.951 . S
H1125 C1151 0.950 . S
H1126 C1152 0.950 . S
H1127 C1154 0.950 . S
H1128 C1157 0.950 . S
H1129 C1158 0.950 . S
H1130 C1160 0.950 1_545 S
H1131 C1161 0.950 . S
C1132 H1114 0.951 . S
C1132 C1133 1.366 1_565 S
C1132 C1134 1.388 . S
C1133 C1132 1.366 1_545 S
C1133 C1137 1.385 . S
C1134 H1115 0.951 . S
C1134 C1132 1.388 . S
C1134 C1135 1.366 1_565 S
C1135 C1134 1.366 1_545 S
C1135 C1136 1.414 . S
C1135 C1138 1.499 . S
C1136 H1116 0.950 . S
C1136 C1135 1.414 . S
C1136 C1137 1.374 . S
C1137 H1117 0.950 . S
C1137 C1133 1.385 . S
C1137 C1136 1.374 . S
C1138 C1135 1.499 . S
C1138 C1139 1.373 . S
C1138 C1140 1.389 . S
C1139 H1118 0.941 1_545 S
C1139 C1138 1.373 . S
C1139 C1155 1.377 . S
C1140 C1138 1.389 . S
C1140 C1141 1.524 . S
C1140 C1154 1.377 . S
C1141 C1140 1.524 . S
C1141 C1142 1.397 . S
C1141 C1146 1.363 1_556 S
C1142 H1119 0.950 . S
C1142 C1141 1.397 . S
C1142 C1143 1.334 1_556 S
C1143 H1120 0.950 . S
C1143 C1142 1.334 1_554 S
C1143 C1144 1.287 . S
C1144 C1143 1.287 . S
C1144 C1145 1.524 . S
C1144 H1163 0.913 . S
C1145 H1121 0.950 . S
C1145 C1144 1.524 . S
C1145 C1146 1.415 . S
C1146 H1122 0.950 1_545 S
C1146 C1141 1.363 1_554 S
C1146 C1145 1.415 . S
C1147 H1123 0.951 . S
C1147 C1148 1.366 . S
C1147 C1149 1.388 . S
C1148 C1147 1.366 . S
C1148 C1152 1.385 1_545 S
C1149 H1124 0.951 . S
C1149 C1147 1.388 . S
C1149 C1150 1.366 . S
C1150 C1149 1.366 . S
C1150 C1151 1.414 1_545 S
C1150 C1153 1.499 . S
C1151 H1125 0.950 . S
C1151 C1150 1.414 1_565 S
C1151 C1152 1.374 . S
C1152 H1126 0.950 . S
C1152 C1148 1.385 1_565 S
C1152 C1151 1.374 . S
C1153 C1150 1.499 . S
C1153 C1154 1.373 . S
C1153 C1155 1.389 . S
C1154 H1127 0.950 . S
C1154 C1140 1.377 . S
C1154 C1153 1.373 . S
C1155 C1139 1.377 . S
C1155 C1153 1.389 . S
C1155 C1156 1.524 1_545 S
C1156 C1155 1.524 1_565 S
C1156 C1157 1.397 . S
C1156 C1161 1.363 1_565 S
C1157 H1128 0.950 . S
C1157 C1156 1.397 . S
C1157 C1158 1.334 . S
C1158 H1129 0.950 . S
C1158 C1157 1.334 . S
C1158 C1159 1.287 . S
C1159 C1158 1.287 . S
C1159 C1160 1.524 . S
C1159 H1162 0.999 . S
C1160 H1130 0.950 1_565 S
C1160 C1159 1.524 . S
C1160 C1161 1.415 1_565 S
C1161 H1131 0.950 . S
C1161 C1156 1.363 1_545 S
C1161 C1160 1.415 1_545 S
H1162 C1159 0.999 . S
H1163 C1144 0.913 . S
H1164 C1182 0.951 . S
H1165 C1184 0.951 . S
H1166 C1186 0.950 . S
H1167 C1187 0.950 . S
H1168 C1189 0.950 . S
H1169 C1192 0.950 1_556 S
H1170 C1193 0.950 . S
H1171 C1195 0.950 . S
H1172 C1196 0.950 . S
H1173 C1197 0.951 . S
H1174 C1199 0.951 . S
H1175 C1201 0.950 . S
H1176 C1202 0.950 . S
H1177 C1204 0.950 . S
H1178 C1207 0.950 . S
H1179 C1208 0.950 . S
H1180 C1210 0.950 . S
H1181 C1211 0.950 . S
C1182 H1164 0.951 . S
C1182 C1183 1.366 . S
C1182 C1184 1.388 . S
C1183 C1182 1.366 . S
C1183 C1187 1.385 . S
C1184 H1165 0.951 . S
C1184 C1182 1.388 . S
C1184 C1185 1.366 . S
C1185 C1184 1.366 . S
C1185 C1186 1.414 . S
C1185 C1188 1.499 . S
C1186 H1166 0.950 . S
C1186 C1185 1.414 . S
C1186 C1187 1.374 . S
C1187 H1167 0.950 . S
C1187 C1183 1.385 . S
C1187 C1186 1.374 . S
C1188 C1185 1.499 . S
C1188 C1189 1.373 . S
C1188 C1190 1.389 . S
C1189 H1168 0.950 . S
C1189 C1188 1.373 . S
C1189 C1205 1.377 . S
C1190 C1188 1.389 . S
C1190 C1191 1.524 . S
C1190 C1204 1.377 . S
C1191 C1190 1.524 . S
C1191 C1192 1.397 1_556 S
C1191 C1196 1.363 1_556 S
C1192 H1169 0.950 1_554 S
C1192 C1191 1.397 1_554 S
C1192 C1193 1.334 . S
C1193 H1170 0.950 . S
C1193 C1192 1.334 . S
C1193 C1194 1.287 . S
C1194 C1193 1.287 . S
C1194 C1195 1.524 . S
C1194 H1213 0.913 . S
C1195 H1171 0.950 . S
C1195 C1194 1.524 . S
C1195 C1196 1.415 . S
C1196 H1172 0.950 . S
C1196 C1191 1.363 1_554 S
C1196 C1195 1.415 . S
C1197 H1173 0.951 . S
C1197 C1198 1.366 . S
C1197 C1199 1.388 . S
C1198 C1197 1.366 . S
C1198 C1202 1.385 . S
C1199 H1174 0.951 . S
C1199 C1197 1.388 . S
C1199 C1200 1.366 . S
C1200 C1199 1.366 . S
C1200 C1201 1.414 . S
C1200 C1203 1.499 . S
C1201 H1175 0.950 . S
C1201 C1200 1.414 . S
C1201 C1202 1.374 . S
C1202 H1176 0.950 . S
C1202 C1198 1.385 . S
C1202 C1201 1.374 . S
C1203 C1200 1.499 . S
C1203 C1204 1.373 . S
C1203 C1205 1.389 . S
C1204 H1177 0.950 . S
C1204 C1190 1.377 . S
C1204 C1203 1.373 . S
C1205 C1189 1.377 . S
C1205 C1203 1.389 . S
C1205 C1206 1.524 . S
C1206 C1205 1.524 . S
C1206 C1207 1.397 . S
C1206 C1211 1.363 . S
C1207 H1178 0.950 . S
C1207 C1206 1.397 . S
C1207 C1208 1.334 . S
C1208 H1179 0.950 . S
C1208 C1207 1.334 . S
C1208 C1209 1.287 . S
C1209 C1208 1.287 . S
C1209 C1210 1.524 . S
C1209 H1212 0.999 . S
C1210 H1180 0.950 . S
C1210 C1209 1.524 . S
C1210 C1211 1.415 . S
C1211 H1181 0.950 . S
C1211 C1206 1.363 . S
C1211 C1210 1.415 . S
H1212 C1209 0.999 . S
H1213 C1194 0.913 . S
H1214 C1232 0.951 . S
H1215 C1234 0.951 . S
H1216 C1236 0.950 . S
H1217 C1237 0.950 . S
H1218 C1239 0.950 . S
H1219 C1242 0.950 . S
H1220 C1243 0.950 . S
H1221 C1245 0.950 . S
H1222 C1246 0.950 . S
H1223 C1247 0.951 . S
H1224 C1249 0.951 . S
H1225 C1251 0.950 . S
H1226 C1252 0.950 . S
H1227 C1254 0.950 . S
H1228 C1257 0.950 . S
H1229 C1258 0.950 . S
H1230 C1260 0.950 . S
H1231 C1261 0.950 . S
C1232 H1214 0.951 . S
C1232 C1233 1.366 . S
C1232 C1234 1.388 . S
C1233 C1232 1.366 . S
C1233 C1237 1.385 . S
C1234 H1215 0.951 . S
C1234 C1232 1.388 . S
C1234 C1235 1.366 . S
C1235 C1234 1.366 . S
C1235 C1236 1.414 . S
C1235 C1238 1.499 . S
C1236 H1216 0.950 . S
C1236 C1235 1.414 . S
C1236 C1237 1.374 . S
C1237 H1217 0.950 . S
C1237 C1233 1.385 . S
C1237 C1236 1.374 . S
C1238 C1235 1.499 . S
C1238 C1239 1.373 . S
C1238 C1240 1.389 . S
C1239 H1218 0.950 . S
C1239 C1238 1.373 . S
C1239 C1255 1.377 . S
C1240 C1238 1.389 . S
C1240 C1241 1.524 . S
C1240 C1254 1.377 . S
C1241 C1240 1.524 . S
C1241 C1242 1.397 . S
C1241 C1246 1.363 . S
C1242 H1219 0.950 . S
C1242 C1241 1.397 . S
C1242 C1243 1.334 . S
C1243 H1220 0.950 . S
C1243 C1242 1.334 . S
C1243 C1244 1.287 . S
C1244 C1243 1.287 . S
C1244 C1245 1.524 . S
C1244 H1263 0.913 . S
C1245 H1221 0.950 . S
C1245 C1244 1.524 . S
C1245 C1246 1.415 . S
C1246 H1222 0.950 . S
C1246 C1241 1.363 . S
C1246 C1245 1.415 . S
C1247 H1223 0.951 . S
C1247 C1248 1.366 . S
C1247 C1249 1.388 . S
C1248 C1247 1.366 . S
C1248 C1252 1.385 . S
C1249 H1224 0.951 . S
C1249 C1247 1.388 . S
C1249 C1250 1.366 . S
C1250 C1249 1.366 . S
C1250 C1251 1.414 . S
C1250 C1253 1.499 . S
C1251 H1225 0.950 . S
C1251 C1250 1.414 . S
C1251 C1252 1.374 . S
C1252 H1226 0.950 . S
C1252 C1248 1.385 . S
C1252 C1251 1.374 . S
C1253 C1250 1.499 . S
C1253 C1254 1.373 . S
C1253 C1255 1.389 . S
C1254 H1227 0.950 . S
C1254 C1240 1.377 . S
C1254 C1253 1.373 . S
C1255 C1239 1.377 . S
C1255 C1253 1.389 . S
C1255 C1256 1.524 . S
C1256 C1255 1.524 . S
C1256 C1257 1.397 . S
C1256 C1261 1.363 1_556 S
C1257 H1228 0.950 . S
C1257 C1256 1.397 . S
C1257 C1258 1.334 1_556 S
C1258 H1229 0.950 . S
C1258 C1257 1.334 1_554 S
C1258 C1259 1.287 . S
C1259 C1258 1.287 . S
C1259 C1260 1.524 . S
C1259 H1262 0.999 . S
C1260 H1230 0.950 . S
C1260 C1259 1.524 . S
C1260 C1261 1.415 . S
C1261 H1231 0.950 . S
C1261 C1256 1.363 1_554 S
C1261 C1260 1.415 . S
H1262 C1259 0.999 . S
H1263 C1244 0.913 . S
H1264 C1282 0.951 . S
H1265 C1284 0.951 . S
H1266 C1286 0.950 . S
H1267 C1287 0.950 . S
H1268 C1289 0.950 . S
H1269 C1292 0.950 1_655 S
H1270 C1293 0.950 . S
H1271 C1295 0.950 . S
H1272 C1296 0.950 . S
H1273 C1297 0.951 . S
H1274 C1299 0.951 . S
H1275 C1301 0.950 . S
H1276 C1302 0.950 . S
H1277 C1304 0.950 . S
H1278 C1307 0.950 . S
H1279 C1308 0.950 . S
H1280 C1310 0.950 . S
H1281 C1311 0.950 . S
C1282 H1264 0.951 . S
C1282 C1283 1.366 1_455 S
C1282 C1284 1.388 . S
C1283 C1282 1.366 1_655 S
C1283 C1287 1.385 . S
C1284 H1265 0.951 . S
C1284 C1282 1.388 . S
C1284 C1285 1.366 1_455 S
C1285 C1284 1.366 1_655 S
C1285 C1286 1.414 . S
C1285 C1288 1.499 . S
C1286 H1266 0.950 . S
C1286 C1285 1.414 . S
C1286 C1287 1.374 . S
C1287 H1267 0.950 . S
C1287 C1283 1.385 . S
C1287 C1286 1.374 . S
C1288 C1285 1.499 . S
C1288 C1289 1.373 . S
C1288 C1290 1.389 1_655 S
C1289 H1268 0.950 . S
C1289 C1288 1.373 . S
C1289 C1305 1.377 . S
C1290 C1288 1.389 1_455 S
C1290 C1291 1.524 . S
C1290 C1304 1.377 . S
C1291 C1290 1.524 . S
C1291 C1292 1.397 . S
C1291 C1296 1.363 . S
C1292 H1269 0.950 1_455 S
C1292 C1291 1.397 . S
C1292 C1293 1.334 . S
C1293 H1270 0.950 . S
C1293 C1292 1.334 . S
C1293 C1294 1.287 . S
C1294 C1293 1.287 . S
C1294 C1295 1.524 . S
C1294 H1313 0.913 . S
C1295 H1271 0.950 . S
C1295 C1294 1.524 . S
C1295 C1296 1.415 . S
C1296 H1272 0.950 . S
C1296 C1291 1.363 . S
C1296 C1295 1.415 . S
C1297 H1273 0.951 . S
C1297 C1298 1.366 . S
C1297 C1299 1.388 . S
C1298 C1297 1.366 . S
C1298 C1302 1.385 1_655 S
C1299 H1274 0.951 . S
C1299 C1297 1.388 . S
C1299 C1300 1.366 . S
C1300 C1299 1.366 . S
C1300 C1301 1.414 1_655 S
C1300 C1303 1.499 . S
C1301 H1275 0.950 . S
C1301 C1300 1.414 1_455 S
C1301 C1302 1.374 . S
C1302 H1276 0.950 . S
C1302 C1298 1.385 1_455 S
C1302 C1301 1.374 . S
C1303 C1300 1.499 . S
C1303 C1304 1.373 1_655 S
C1303 C1305 1.389 . S
C1304 H1277 0.950 . S
C1304 C1290 1.377 . S
C1304 C1303 1.373 1_455 S
C1305 C1289 1.377 . S
C1305 C1303 1.389 . S
C1305 C1306 1.524 . S
C1306 C1305 1.524 . S
C1306 C1307 1.397 . S
C1306 C1311 1.363 . S
C1307 H1278 0.950 . S
C1307 C1306 1.397 . S
C1307 C1308 1.334 . S
C1308 H1279 0.950 . S
C1308 C1307 1.334 . S
C1308 C1309 1.287 . S
C1309 C1308 1.287 . S
C1309 C1310 1.524 . S
C1309 H1312 0.999 . S
C1310 H1280 0.950 . S
C1310 C1309 1.524 . S
C1310 C1311 1.415 . S
C1311 H1281 0.950 . S
C1311 C1306 1.363 . S
C1311 C1310 1.415 . S
H1312 C1309 0.999 . S
H1313 C1294 0.913 . S
H1314 C1332 0.951 . S
H1315 C1334 0.951 . S
H1316 C1336 0.950 . S
H1317 C1337 0.950 . S
H1318 C1339 0.950 . S
H1319 C1342 0.950 . S
H1320 C1343 0.950 . S
H1321 C1345 0.950 . S
H1322 C1346 0.950 . S
H1323 C1347 0.951 . S
H1324 C1349 0.951 . S
H1325 C1351 0.950 . S
H1326 C1352 0.950 . S
H1327 C1354 0.950 . S
H1328 C1357 0.950 . S
H1329 C1358 0.950 . S
H1330 C1360 0.950 . S
H1331 C1361 0.950 . S
C1332 H1314 0.951 . S
C1332 C1333 1.366 . S
C1332 C1334 1.388 . S
C1333 C1332 1.366 . S
C1333 C1337 1.385 . S
C1334 H1315 0.951 . S
C1334 C1332 1.388 . S
C1334 C1335 1.366 . S
C1335 C1334 1.366 . S
C1335 C1336 1.414 . S
C1335 C1338 1.499 . S
C1336 H1316 0.950 . S
C1336 C1335 1.414 . S
C1336 C1337 1.374 . S
C1337 H1317 0.950 . S
C1337 C1333 1.385 . S
C1337 C1336 1.374 . S
C1338 C1335 1.499 . S
C1338 C1339 1.373 . S
C1338 C1340 1.389 1_565 S
C1339 H1318 0.950 . S
C1339 C1338 1.373 . S
C1339 C1355 1.377 . S
C1340 C1338 1.389 1_545 S
C1340 C1341 1.524 . S
C1340 C1354 1.377 . S
C1341 C1340 1.524 . S
C1341 C1342 1.397 . S
C1341 C1346 1.363 . S
C1342 H1319 0.950 . S
C1342 C1341 1.397 . S
C1342 C1343 1.334 . S
C1343 H1320 0.950 . S
C1343 C1342 1.334 . S
C1343 C1344 1.287 . S
C1344 C1343 1.287 . S
C1344 C1345 1.524 . S
C1344 H1363 0.913 . S
C1345 H1321 0.950 . S
C1345 C1344 1.524 . S
C1345 C1346 1.415 . S
C1346 H1322 0.950 . S
C1346 C1341 1.363 . S
C1346 C1345 1.415 . S
C1347 H1323 0.951 . S
C1347 C1348 1.366 . S
C1347 C1349 1.388 . S
C1348 C1347 1.366 . S
C1348 C1352 1.385 . S
C1349 H1324 0.951 . S
C1349 C1347 1.388 . S
C1349 C1350 1.366 . S
C1350 C1349 1.366 . S
C1350 C1351 1.414 . S
C1350 C1353 1.499 . S
C1351 H1325 0.950 . S
C1351 C1350 1.414 . S
C1351 C1352 1.374 . S
C1352 H1326 0.950 . S
C1352 C1348 1.385 . S
C1352 C1351 1.374 . S
C1353 C1350 1.499 . S
C1353 C1354 1.373 1_565 S
C1353 C1355 1.389 . S
C1354 H1327 0.950 . S
C1354 C1340 1.377 . S
C1354 C1353 1.373 1_545 S
C1355 C1339 1.377 . S
C1355 C1353 1.389 . S
C1355 C1356 1.524 . S
C1356 C1355 1.524 . S
C1356 C1357 1.397 . S
C1356 C1361 1.363 . S
C1357 H1328 0.950 . S
C1357 C1356 1.397 . S
C1357 C1358 1.334 . S
C1358 H1329 0.950 . S
C1358 C1357 1.334 . S
C1358 C1359 1.287 . S
C1359 C1358 1.287 . S
C1359 C1360 1.524 . S
C1359 H1362 0.999 . S
C1360 H1330 0.950 . S
C1360 C1359 1.524 . S
C1360 C1361 1.415 . S
C1361 H1331 0.950 . S
C1361 C1356 1.363 . S
C1361 C1360 1.415 . S
H1362 C1359 0.999 . S
H1363 C1344 0.913 . S
H1364 C1382 0.951 . S
H1365 C1384 0.951 . S
H1366 C1386 0.950 . S
H1367 C1387 0.950 . S
H1368 C1389 0.950 . S
H1369 C1392 0.950 . S
H1370 C1393 0.950 . S
H1371 C1395 0.950 . S
H1372 C1396 0.950 . S
H1373 C1397 0.951 . S
H1374 C1399 0.951 . S
H1375 C1401 0.950 . S
H1376 C1402 0.950 . S
H1377 C1404 0.950 . S
H1378 C1407 0.950 . S
H1379 C1408 0.950 . S
H1380 C1410 0.950 . S
H1381 C1411 0.950 . S
C1382 H1364 0.951 . S
C1382 C1383 1.366 . S
C1382 C1384 1.388 . S
C1383 C1382 1.366 . S
C1383 C1387 1.385 . S
C1384 H1365 0.951 . S
C1384 C1382 1.388 . S
C1384 C1385 1.366 . S
C1385 C1384 1.366 . S
C1385 C1386 1.414 . S
C1385 C1388 1.499 . S
C1386 H1366 0.950 . S
C1386 C1385 1.414 . S
C1386 C1387 1.374 . S
C1387 H1367 0.950 . S
C1387 C1383 1.385 . S
C1387 C1386 1.374 . S
C1388 C1385 1.499 . S
C1388 C1389 1.373 . S
C1388 C1390 1.389 . S
C1389 H1368 0.950 . S
C1389 C1388 1.373 . S
C1389 C1405 1.377 . S
C1390 C1388 1.389 . S
C1390 C1391 1.524 . S
C1390 C1404 1.377 . S
C1391 C1390 1.524 . S
C1391 C1392 1.397 . S
C1391 C1396 1.363 . S
C1392 H1369 0.950 . S
C1392 C1391 1.397 . S
C1392 C1393 1.334 . S
C1393 H1370 0.950 . S
C1393 C1392 1.334 . S
C1393 C1394 1.287 . S
C1394 C1393 1.287 . S
C1394 C1395 1.524 . S
C1394 H1413 0.913 . S
C1395 H1371 0.950 . S
C1395 C1394 1.524 . S
C1395 C1396 1.415 . S
C1396 H1372 0.950 . S
C1396 C1391 1.363 . S
C1396 C1395 1.415 . S
C1397 H1373 0.951 . S
C1397 C1398 1.366 . S
C1397 C1399 1.388 . S
C1398 C1397 1.366 . S
C1398 C1402 1.385 . S
C1399 H1374 0.951 . S
C1399 C1397 1.388 . S
C1399 C1400 1.366 . S
C1400 C1399 1.366 . S
C1400 C1401 1.414 . S
C1400 C1403 1.499 . S
C1401 H1375 0.950 . S
C1401 C1400 1.414 . S
C1401 C1402 1.374 . S
C1402 H1376 0.950 . S
C1402 C1398 1.385 . S
C1402 C1401 1.374 . S
C1403 C1400 1.499 . S
C1403 C1404 1.373 . S
C1403 C1405 1.389 . S
C1404 H1377 0.950 . S
C1404 C1390 1.377 . S
C1404 C1403 1.373 . S
C1405 C1389 1.377 . S
C1405 C1403 1.389 . S
C1405 C1406 1.524 . S
C1406 C1405 1.524 . S
C1406 C1407 1.397 . S
C1406 C1411 1.363 . S
C1407 H1378 0.950 . S
C1407 C1406 1.397 . S
C1407 C1408 1.334 . S
C1408 H1379 0.950 . S
C1408 C1407 1.334 . S
C1408 C1409 1.287 . S
C1409 C1408 1.287 . S
C1409 C1410 1.524 . S
C1409 H1412 0.999 . S
C1410 H1380 0.950 . S
C1410 C1409 1.524 . S
C1410 C1411 1.415 . S
C1411 H1381 0.950 . S
C1411 C1406 1.363 . S
C1411 C1410 1.415 . S
H1412 C1409 0.999 . S
H1413 C1394 0.913 . S
H1414 C1432 0.951 . S
H1415 C1434 0.951 . S
H1416 C1436 0.950 . S
H1417 C1437 0.950 . S
H1418 C1439 0.950 . S
H1419 C1442 0.950 . S
H1420 C1443 0.950 . S
H1421 C1445 0.950 . S
H1422 C1446 0.950 . S
H1423 C1447 0.951 . S
H1424 C1449 0.951 . S
H1425 C1451 0.950 . S
H1426 C1452 0.950 . S
H1427 C1454 0.950 . S
H1428 C1457 0.950 . S
H1429 C1458 0.950 . S
H1430 C1460 0.950 . S
H1431 C1461 0.950 . S
C1432 H1414 0.951 . S
C1432 C1433 1.366 . S
C1432 C1434 1.388 . S
C1433 C1432 1.366 . S
C1433 C1437 1.385 . S
C1434 H1415 0.951 . S
C1434 C1432 1.388 . S
C1434 C1435 1.366 . S
C1435 C1434 1.366 . S
C1435 C1436 1.414 . S
C1435 C1438 1.499 . S
C1436 H1416 0.950 . S
C1436 C1435 1.414 . S
C1436 C1437 1.374 . S
C1437 H1417 0.950 . S
C1437 C1433 1.385 . S
C1437 C1436 1.374 . S
C1438 C1435 1.499 . S
C1438 C1439 1.373 . S
C1438 C1440 1.389 . S
C1439 H1418 0.950 . S
C1439 C1438 1.373 . S
C1439 C1455 1.377 . S
C1440 C1438 1.389 . S
C1440 C1441 1.524 . S
C1440 C1454 1.377 . S
C1441 C1440 1.524 . S
C1441 C1442 1.397 . S
C1441 C1446 1.363 . S
C1442 H1419 0.950 . S
C1442 C1441 1.397 . S
C1442 C1443 1.334 . S
C1443 H1420 0.950 . S
C1443 C1442 1.334 . S
C1443 C1444 1.287 . S
C1444 C1443 1.287 . S
C1444 C1445 1.524 . S
C1444 H1463 0.913 . S
C1445 H1421 0.950 . S
C1445 C1444 1.524 . S
C1445 C1446 1.415 . S
C1446 H1422 0.950 . S
C1446 C1441 1.363 . S
C1446 C1445 1.415 . S
C1447 H1423 0.951 . S
C1447 C1448 1.366 . S
C1447 C1449 1.388 . S
C1448 C1447 1.366 . S
C1448 C1452 1.385 . S
C1449 H1424 0.951 . S
C1449 C1447 1.388 . S
C1449 C1450 1.366 . S
C1450 C1449 1.366 . S
C1450 C1451 1.414 . S
C1450 C1453 1.499 . S
C1451 H1425 0.950 . S
C1451 C1450 1.414 . S
C1451 C1452 1.374 . S
C1452 H1426 0.950 . S
C1452 C1448 1.385 . S
C1452 C1451 1.374 . S
C1453 C1450 1.499 . S
C1453 C1454 1.373 . S
C1453 C1455 1.389 . S
C1454 H1427 0.950 . S
C1454 C1440 1.377 . S
C1454 C1453 1.373 . S
C1455 C1439 1.377 . S
C1455 C1453 1.389 . S
C1455 C1456 1.524 . S
C1456 C1455 1.524 . S
C1456 C1457 1.397 . S
C1456 C1461 1.363 . S
C1457 H1428 0.950 . S
C1457 C1456 1.397 . S
C1457 C1458 1.334 . S
C1458 H1429 0.950 . S
C1458 C1457 1.334 . S
C1458 C1459 1.287 . S
C1459 C1458 1.287 . S
C1459 C1460 1.524 . S
C1459 H1462 0.999 . S
C1460 H1430 0.950 . S
C1460 C1459 1.524 . S
C1460 C1461 1.415 . S
C1461 H1431 0.950 . S
C1461 C1456 1.363 . S
C1461 C1460 1.415 . S
H1462 C1459 0.999 . S
H1463 C1444 0.913 . S
C283 C82 1.601 . S
C298 C113 1.803 1_545 S
C348 C153 1.807 . S
C333 C95 1.603 . S
C398 C193 1.806 . S
C383 C56 1.603 . S
C448 C233 1.804 1_455 S
C433 C69 1.602 . S
C498 C122 1.806 1_565 S
C483 C30 1.597 1_565 S
C533 C43 1.603 . S
C548 C162 1.806 . S
C583 C4 1.602 . S
C598 C202 1.806 . S
C633 C17 1.599 1_655 S
C648 C242 1.803 1_655 S
C698 C119 0.327 . S
C683 C74 0.386 . S
C748 C159 0.325 . S
C733 C87 0.386 . S
C798 C199 0.326 . S
C783 C100 0.386 . S
C833 C61 0.386 . S
C848 C239 0.326 . S
C883 C22 0.395 . S
C898 C110 0.325 . S
C948 C150 0.325 . S
C933 C35 0.401 . S
C998 C190 0.328 . S
C983 C48 0.391 . S
C1033 C9 0.390 . S
C1048 C230 0.327 . S
C1083 C73 1.863 . S
C1098 C123 2.043 . S
C1133 C86 1.865 . S
C1148 C163 2.043 . S
C1198 C203 2.043 . S
C1183 C99 1.865 . S
C1248 C243 2.043 . S
C1233 C60 1.863 . S
C1283 C21 1.865 . S
C1298 C114 2.043 . S
C1348 C154 2.043 . S
C1333 C34 1.867 . S
C1398 C194 2.042 . S
C1383 C47 1.865 . S
C1433 C8 1.866 . S
C1448 C234 2.043 . S
