# Generated by pormake.
# Topology nom, (4,4)-cn, num edge types: 1
# Building blocks:
#     Node 0, Type 0, BuildingBlock: NAWXER_clean_linker_0, # of connection points: 4
#     Node 1, Type 0, BuildingBlock: NAWXER_clean_linker_0, # of connection points: 4
#     Node 2, Type 0, BuildingBlock: NAWXER_clean_linker_0, # of connection points: 4
#     Node 3, Type 0, BuildingBlock: NAWXER_clean_linker_0, # of connection points: 4
#     Node 4, Type 0, BuildingBlock: NAWXER_clean_linker_0, # of connection points: 4
#     Node 5, Type 0, BuildingBlock: NAWXER_clean_linker_0, # of connection points: 4
#     Node 6, Type 1, BuildingBlock: UXUYUI_clean_sbu_0, # of connection points: 4
#     Node 7, Type 1, BuildingBlock: UXUYUI_clean_sbu_0, # of connection points: 4
#     Node 8, Type 1, BuildingBlock: UXUYUI_clean_sbu_0, # of connection points: 4
#     Node 9, Type 1, BuildingBlock: UXUYUI_clean_sbu_0, # of connection points: 4
#     Node 10, Type 1, BuildingBlock: UXUYUI_clean_sbu_0, # of connection points: 4
#     Node 11, Type 1, BuildingBlock: UXUYUI_clean_sbu_0, # of connection points: 4
#     Edge 12, Type (0, 1), BuildingBlock: ZUJKAS_clean_linker_0, # of connection points: 2
#     Edge 13, Type (0, 1), BuildingBlock: ZUJKAS_clean_linker_0, # of connection points: 2
#     Edge 14, Type (0, 1), BuildingBlock: ZUJKAS_clean_linker_0, # of connection points: 2
#     Edge 15, Type (0, 1), BuildingBlock: ZUJKAS_clean_linker_0, # of connection points: 2
#     Edge 16, Type (0, 1), BuildingBlock: ZUJKAS_clean_linker_0, # of connection points: 2
#     Edge 17, Type (0, 1), BuildingBlock: ZUJKAS_clean_linker_0, # of connection points: 2
#     Edge 18, Type (0, 1), BuildingBlock: ZUJKAS_clean_linker_0, # of connection points: 2
#     Edge 19, Type (0, 1), BuildingBlock: ZUJKAS_clean_linker_0, # of connection points: 2
#     Edge 20, Type (0, 1), BuildingBlock: ZUJKAS_clean_linker_0, # of connection points: 2
#     Edge 21, Type (0, 1), BuildingBlock: ZUJKAS_clean_linker_0, # of connection points: 2
#     Edge 22, Type (0, 1), BuildingBlock: ZUJKAS_clean_linker_0, # of connection points: 2
#     Edge 23, Type (0, 1), BuildingBlock: ZUJKAS_clean_linker_0, # of connection points: 2
#     Edge 24, Type (0, 1), BuildingBlock: ZUJKAS_clean_linker_0, # of connection points: 2
#     Edge 25, Type (0, 1), BuildingBlock: ZUJKAS_clean_linker_0, # of connection points: 2
#     Edge 26, Type (0, 1), BuildingBlock: ZUJKAS_clean_linker_0, # of connection points: 2
#     Edge 27, Type (0, 1), BuildingBlock: ZUJKAS_clean_linker_0, # of connection points: 2
#     Edge 28, Type (0, 1), BuildingBlock: ZUJKAS_clean_linker_0, # of connection points: 2
#     Edge 29, Type (0, 1), BuildingBlock: ZUJKAS_clean_linker_0, # of connection points: 2
#     Edge 30, Type (0, 1), BuildingBlock: ZUJKAS_clean_linker_0, # of connection points: 2
#     Edge 31, Type (0, 1), BuildingBlock: ZUJKAS_clean_linker_0, # of connection points: 2
#     Edge 32, Type (0, 1), BuildingBlock: ZUJKAS_clean_linker_0, # of connection points: 2
#     Edge 33, Type (0, 1), BuildingBlock: ZUJKAS_clean_linker_0, # of connection points: 2
#     Edge 34, Type (0, 1), BuildingBlock: ZUJKAS_clean_linker_0, # of connection points: 2
#     Edge 35, Type (0, 1), BuildingBlock: ZUJKAS_clean_linker_0, # of connection points: 2
# Relax obj value: 0.041
# Max RMSD: 0.144
# Mean RMSD: 0.123
data_MOF--net-nom--node1-UXUYUI_clean_sbu_0--node2-NAWXER_clean_linker_0--edge1-ZUJKAS_clean_linker_0
_symmetry_space_group_name_H-M    P1
_symmetry_Int_Tables_number       1
_symmetry_cell_setting            triclinic
loop_
_symmetry_equiv_pos_as_xyz
'x, y, z'
_cell_length_a     75.021538
_cell_length_b     75.01616
_cell_length_c     83.437097
_cell_angle_alpha  89.986511
_cell_angle_beta   90.012591
_cell_angle_gamma 120.00912
loop_
_atom_site_label
_atom_site_type_symbol
_atom_site_fract_x
_atom_site_fract_y
_atom_site_fract_z
_atom_type_partial_charge
C0 C 0.94835 0.49838 0.33531 0.0
C1 C 0.93956 0.48402 0.34783 0.0
C2 C 0.96817 0.5045 0.32988 0.0
C3 C 0.97955 0.49619 0.33669 0.0
C4 C 0.95094 0.47565 0.35461 0.0
C5 C 0.97083 0.48181 0.34916 0.0
C6 C 0.00113 0.50387 0.33174 0.0
C7 C 0.96272 0.47053 0.28906 0.0
C8 C 0.96581 0.48286 0.27548 0.0
C9 C 0.97617 0.47823 0.30209 0.0
C10 C 0.99283 0.49851 0.30192 0.0
C11 C 0.98266 0.50305 0.27524 0.0
C12 C 0.99607 0.51075 0.2883 0.0
C13 C 0.00743 0.50678 0.31554 0.0
C14 C 0.10042 0.54692 0.32014 0.0
C15 C 0.10546 0.56255 0.30875 0.0
C16 C 0.07997 0.53426 0.32494 0.0
C17 C 0.06433 0.53741 0.31874 0.0
C18 C 0.08969 0.56519 0.3022 0.0
C19 C 0.06937 0.55275 0.30714 0.0
C20 C 0.04259 0.52481 0.32385 0.0
C21 C 0.07856 0.55551 0.36887 0.0
C22 C 0.07752 0.54124 0.38031 0.0
C23 C 0.06523 0.54896 0.35571 0.0
C24 C 0.05074 0.528 0.3537 0.0
C25 C 0.06279 0.52031 0.37834 0.0
C26 C 0.04945 0.51379 0.36522 0.0
C27 C 0.03627 0.52077 0.34004 0.0
H28 H 0.93993 0.50499 0.32975 0.0
H29 H 0.97475 0.5161 0.32058 0.0
H30 H 0.94468 0.46475 0.36441 0.0
H31 H 0.97946 0.47545 0.35476 0.0
H32 H 0.95012 0.45478 0.28948 0.0
H33 H 0.97369 0.46822 0.31222 0.0
H34 H 0.98535 0.513 0.26503 0.0
H35 H 0.00888 0.5264 0.28783 0.0
H36 H 0.11227 0.54438 0.3252 0.0
H37 H 0.07642 0.52207 0.33348 0.0
H38 H 0.09314 0.57722 0.29351 0.0
H39 H 0.05758 0.5554 0.30208 0.0
H40 H 0.08978 0.57172 0.37002 0.0
H41 H 0.06619 0.56025 0.34713 0.0
H42 H 0.06136 0.50899 0.38708 0.0
H43 H 0.03817 0.4976 0.364 0.0
N44 N 0.01578 0.51058 0.34336 0.0
N45 N 0.0279 0.51747 0.31225 0.0
C46 C 0.47247 0.94964 0.50464 0.0
C47 C 0.47851 0.94048 0.51653 0.0
C48 C 0.48633 0.96919 0.49882 0.0
C49 C 0.50658 0.97996 0.50469 0.0
C50 C 0.49884 0.95115 0.5223 0.0
C51 C 0.51271 0.97084 0.51653 0.0
C52 C 0.52059 0.00138 0.49948 0.0
C53 C 0.51315 0.96224 0.45664 0.0
C54 C 0.50377 0.96553 0.44324 0.0
C55 C 0.51936 0.9757 0.4697 0.0
C56 C 0.51611 0.9926 0.46971 0.0
C57 C 0.50073 0.98257 0.44323 0.0
C58 C 0.5069 0.99599 0.4563 0.0
C59 C 0.52321 0.00742 0.48323 0.0
C60 C 0.57554 0.10054 0.48652 0.0
C61 C 0.56414 0.10517 0.4756 0.0
C62 C 0.56822 0.08023 0.49154 0.0
C63 C 0.54918 0.06432 0.48596 0.0
C64 C 0.54537 0.08912 0.46977 0.0
C65 C 0.53802 0.06894 0.47487 0.0
C66 C 0.5406 0.0427 0.49121 0.0
C67 C 0.54667 0.07883 0.53629 0.0
C68 C 0.56047 0.07829 0.54744 0.0
C69 C 0.53978 0.06542 0.52319 0.0
C70 C 0.54669 0.05133 0.52092 0.0
C71 C 0.56722 0.06402 0.54514 0.0
C72 C 0.56027 0.05059 0.53207 0.0
C73 C 0.53912 0.03664 0.50742 0.0
H74 H 0.45694 0.94172 0.49991 0.0
H75 H 0.48105 0.9761 0.48999 0.0
H76 H 0.50383 0.9445 0.53157 0.0
H77 H 0.52816 0.97903 0.52139 0.0
H78 H 0.51563 0.94922 0.45707 0.0
H79 H 0.52696 0.97304 0.47968 0.0
H80 H 0.49389 0.98577 0.433 0.0
H81 H 0.50444 0.00904 0.45593 0.0
H82 H 0.5902 0.11258 0.49104 0.0
H83 H 0.57746 0.07699 0.49971 0.0
H84 H 0.53612 0.09222 0.4615 0.0
H85 H 0.52333 0.05694 0.47034 0.0
H86 H 0.54085 0.08933 0.53785 0.0
H87 H 0.52887 0.06589 0.51494 0.0
H88 H 0.57803 0.06334 0.55336 0.0
H89 H 0.56565 0.03971 0.53059 0.0
N90 N 0.52903 0.0162 0.51094 0.0
N91 N 0.53278 0.02783 0.47976 0.0
C92 C 0.57305 0.51551 0.62099 0.0
C93 C 0.56034 0.50548 0.60776 0.0
C94 C 0.56537 0.52101 0.63419 0.0
C95 C 0.54475 0.51631 0.63452 0.0
C96 C 0.5398 0.50109 0.60802 0.0
C97 C 0.53211 0.50653 0.62123 0.0
C98 C 0.53647 0.52232 0.64832 0.0
C99 C 0.54924 0.47427 0.6676 0.0
C100 C 0.564 0.48068 0.67988 0.0
C101 C 0.54178 0.48701 0.66244 0.0
C102 C 0.54917 0.50659 0.66924 0.0
C103 C 0.57127 0.50022 0.68679 0.0
C104 C 0.56385 0.51302 0.68155 0.0
C105 C 0.54029 0.51954 0.66446 0.0
C106 C 0.48779 0.54394 0.70218 0.0
C107 C 0.50213 0.55766 0.71337 0.0
C108 C 0.4943 0.53702 0.68911 0.0
C109 C 0.5153 0.54387 0.68687 0.0
C110 C 0.52311 0.56415 0.71123 0.0
C111 C 0.5296 0.55722 0.69816 0.0
C112 C 0.5225 0.53674 0.67311 0.0
C113 C 0.49417 0.57287 0.65351 0.0
C114 C 0.47702 0.56082 0.64369 0.0
C115 C 0.50768 0.56587 0.65774 0.0
C116 C 0.50414 0.54664 0.6523 0.0
C117 C 0.47398 0.54192 0.63788 0.0
C118 C 0.48744 0.53495 0.64209 0.0
C119 C 0.51759 0.53836 0.65703 0.0
H120 H 0.58905 0.51946 0.62102 0.0
H121 H 0.57565 0.52914 0.64405 0.0
H122 H 0.52956 0.49321 0.59807 0.0
H123 H 0.51619 0.50287 0.62116 0.0
H124 H 0.54296 0.45913 0.6623 0.0
H125 H 0.52984 0.48128 0.65339 0.0
H126 H 0.58269 0.5056 0.69625 0.0
H127 H 0.56956 0.52794 0.68713 0.0
H128 H 0.47154 0.53871 0.70345 0.0
H129 H 0.48293 0.52632 0.68075 0.0
H130 H 0.5345 0.57439 0.71978 0.0
H131 H 0.54584 0.56244 0.69677 0.0
H132 H 0.49693 0.58751 0.65818 0.0
H133 H 0.52076 0.57539 0.66532 0.0
H134 H 0.46118 0.53249 0.63002 0.0
H135 H 0.48456 0.52019 0.6376 0.0
N136 N 0.52492 0.53124 0.64526 0.0
N137 N 0.53355 0.52727 0.67622 0.0
C138 C 0.94629 0.47147 0.8192 0.0
C139 C 0.93729 0.4786 0.80802 0.0
C140 C 0.96626 0.48442 0.82471 0.0
C141 C 0.97763 0.50481 0.81922 0.0
C142 C 0.94858 0.49907 0.80263 0.0
C143 C 0.96869 0.51202 0.80807 0.0
C144 C 0.99937 0.51789 0.82409 0.0
C145 C 0.96259 0.51129 0.86817 0.0
C146 C 0.96525 0.50054 0.88089 0.0
C147 C 0.97563 0.51732 0.85487 0.0
C148 C 0.99151 0.51258 0.85395 0.0
C149 C 0.98122 0.49592 0.87998 0.0
C150 C 0.99429 0.50199 0.86669 0.0
C151 C 0.00591 0.51958 0.84018 0.0
C152 C 0.09837 0.57222 0.83623 0.0
C153 C 0.10392 0.55958 0.84479 0.0
C154 C 0.07784 0.56486 0.83186 0.0
C155 C 0.0626 0.5448 0.83604 0.0
C156 C 0.08856 0.53964 0.84914 0.0
C157 C 0.06808 0.53239 0.84491 0.0
C158 C 0.04085 0.53651 0.83148 0.0
C159 C 0.07573 0.5441 0.7856 0.0
C160 C 0.07535 0.5586 0.7751 0.0
C161 C 0.06254 0.5368 0.79881 0.0
C162 C 0.04877 0.54394 0.80184 0.0
C163 C 0.06142 0.56559 0.77816 0.0
C164 C 0.04816 0.5582 0.79133 0.0
C165 C 0.03436 0.53596 0.81551 0.0
H166 H 0.9379 0.45581 0.82364 0.0
H167 H 0.973 0.47831 0.83298 0.0
H168 H 0.94207 0.50489 0.79389 0.0
H169 H 0.9773 0.5276 0.80351 0.0
H170 H 0.95036 0.51499 0.86847 0.0
H171 H 0.97347 0.52595 0.84542 0.0
H172 H 0.98387 0.48792 0.88969 0.0
H173 H 0.00657 0.49837 0.86634 0.0
H174 H 0.10992 0.58765 0.83273 0.0
H175 H 0.07387 0.57482 0.82525 0.0
H176 H 0.09236 0.52969 0.85595 0.0
H177 H 0.05652 0.51693 0.84836 0.0
H178 H 0.08594 0.53805 0.78344 0.0
H179 H 0.06289 0.52537 0.80653 0.0
H180 H 0.06086 0.57692 0.77046 0.0
H181 H 0.03754 0.56378 0.79341 0.0
N182 N 0.01384 0.52652 0.8124 0.0
N183 N 0.02639 0.52846 0.84322 0.0
C184 C 0.4923 0.94466 0.98682 0.0
C185 C 0.47765 0.93675 0.97444 0.0
C186 C 0.49999 0.9648 0.99222 0.0
C187 C 0.49286 0.97733 0.98562 0.0
C188 C 0.47064 0.94932 0.96773 0.0
C189 C 0.47821 0.96944 0.97326 0.0
C190 C 0.50208 0.99917 0.99051 0.0
C191 C 0.47106 0.96252 0.03459 0.0
C192 C 0.48418 0.96553 0.04762 0.0
C193 C 0.47823 0.97553 0.02126 0.0
C194 C 0.49878 0.99161 0.02054 0.0
C195 C 0.50464 0.98187 0.04698 0.0
C196 C 0.51182 0.99479 0.03361 0.0
C197 C 0.50656 0.00579 0.00663 0.0
C198 C 0.54921 0.09866 0.00162 0.0
C199 C 0.56667 0.10362 0.01101 0.0
C200 C 0.53551 0.0782 0.9974 0.0
C201 C 0.53913 0.06241 0.00243 0.0
C202 C 0.56987 0.08768 0.01638 0.0
C203 C 0.5562 0.0673 0.01218 0.0
C204 C 0.52536 0.04071 0.99781 0.0
C205 C 0.55352 0.07576 0.95212 0.0
C206 C 0.5388 0.07509 0.94132 0.0
C207 C 0.54744 0.06249 0.9653 0.0
C208 C 0.52651 0.04846 0.96802 0.0
C209 C 0.51788 0.06078 0.94395 0.0
C210 C 0.51183 0.04752 0.95712 0.0
C211 C 0.51977 0.03417 0.9818 0.0
H212 H 0.49835 0.93551 0.99196 0.0
H213 H 0.51194 0.97072 0.00127 0.0
H214 H 0.45933 0.9436 0.95819 0.0
H215 H 0.47271 0.97891 0.96781 0.0
H216 H 0.45525 0.95003 0.03464 0.0
H217 H 0.46764 0.97308 0.01156 0.0
H218 H 0.51506 0.98489 0.05691 0.0
H219 H 0.52766 0.00725 0.03346 0.0
H220 H 0.54634 0.11061 0.99731 0.0
H221 H 0.52217 0.07473 0.99016 0.0
H222 H 0.58292 0.09094 0.02391 0.0
H223 H 0.55916 0.05534 0.01635 0.0
H224 H 0.56974 0.08666 0.95047 0.0
H225 H 0.55909 0.06315 0.97334 0.0
H226 H 0.5062 0.05961 0.9357 0.0
H227 H 0.49562 0.03659 0.95888 0.0
N228 N 0.50847 0.01365 0.97877 0.0
N229 N 0.51837 0.02628 0.00959 0.0
C230 C 0.4929 0.56947 0.16924 0.0
C231 C 0.47813 0.56249 0.18153 0.0
C232 C 0.50086 0.55727 0.16386 0.0
C233 C 0.49391 0.5376 0.17038 0.0
C234 C 0.47132 0.54291 0.18821 0.0
C235 C 0.47917 0.53059 0.18268 0.0
C236 C 0.50337 0.52523 0.16543 0.0
C237 C 0.47188 0.53031 0.12143 0.0
C238 C 0.48535 0.54208 0.10904 0.0
C239 C 0.47912 0.52419 0.13455 0.0
C240 C 0.49998 0.52978 0.13555 0.0
C241 C 0.50616 0.54745 0.10999 0.0
C242 C 0.51336 0.54122 0.12306 0.0
C243 C 0.50782 0.52323 0.14929 0.0
C244 C 0.5503 0.47284 0.15377 0.0
C245 C 0.56753 0.48514 0.1441 0.0
C246 C 0.53674 0.47971 0.15815 0.0
C247 C 0.54032 0.49907 0.15305 0.0
C248 C 0.57062 0.5042 0.13862 0.0
C249 C 0.55713 0.51105 0.14301 0.0
C250 C 0.52672 0.50715 0.15786 0.0
C251 C 0.55552 0.5 0.203 0.0
C252 C 0.54104 0.48643 0.21416 0.0
C253 C 0.54925 0.50721 0.18995 0.0
C254 C 0.52832 0.50069 0.18767 0.0
C255 C 0.52016 0.48032 0.21203 0.0
C256 C 0.51389 0.48746 0.19894 0.0
C257 C 0.52133 0.50812 0.17394 0.0
H258 H 0.49881 0.58469 0.16415 0.0
H259 H 0.5129 0.56352 0.15489 0.0
H260 H 0.45995 0.53716 0.1977 0.0
H261 H 0.47381 0.51562 0.18808 0.0
H262 H 0.45579 0.52599 0.12105 0.0
H263 H 0.4684 0.51498 0.14387 0.0
H264 H 0.51683 0.55625 0.10052 0.0
H265 H 0.52946 0.54553 0.1235 0.0
H266 H 0.5475 0.45808 0.15818 0.0
H267 H 0.52357 0.46997 0.16558 0.0
H268 H 0.58347 0.51384 0.13087 0.0
H269 H 0.56003 0.52592 0.13877 0.0
H270 H 0.57176 0.5053 0.20449 0.0
H271 H 0.56076 0.51797 0.18171 0.0
H272 H 0.50861 0.46979 0.22036 0.0
H273 H 0.49769 0.48241 0.19749 0.0
N274 N 0.50995 0.51722 0.1771 0.0
N275 N 0.51964 0.51462 0.14617 0.0
Li276 Li 0.63977 0.40899 0.42555 0.0
Li277 Li 0.63303 0.37624 0.4139 0.0
Li278 Li 0.66629 0.40886 0.40802 0.0
Li279 Li 0.63375 0.40201 0.39596 0.0
C280 C 0.66458 0.39748 0.44346 0.0
N281 N 0.68309 0.40351 0.47316 0.0
C282 C 0.65579 0.38225 0.45525 0.0
C283 C 0.68304 0.41559 0.44669 0.0
C284 C 0.6653 0.38564 0.47022 0.0
C285 C 0.6921 0.4184 0.46179 0.0
C286 C 0.59541 0.3718 0.41727 0.0
C287 C 0.56568 0.33997 0.40906 0.0
N288 N 0.55705 0.33838 0.4237 0.0
C289 C 0.58615 0.36997 0.43218 0.0
C290 C 0.58502 0.3568 0.40555 0.0
C291 C 0.56679 0.35292 0.43522 0.0
C292 C 0.63557 0.43951 0.44253 0.0
N293 N 0.63471 0.42102 0.44382 0.0
C294 C 0.62515 0.41843 0.4714 0.0
C295 C 0.62943 0.41037 0.45783 0.0
C296 C 0.62613 0.4376 0.47051 0.0
C297 C 0.63142 0.44818 0.45582 0.0
H298 H 0.63934 0.44746 0.43115 0.0
H299 H 0.628 0.39533 0.45838 0.0
C300 C 0.6274 0.3367 0.40877 0.0
N301 N 0.62208 0.34784 0.41847 0.0
C302 C 0.62168 0.31644 0.41272 0.0
C303 C 0.60486 0.31942 0.43644 0.0
C304 C 0.6109 0.3396 0.43203 0.0
C305 C 0.61053 0.30766 0.42686 0.0
H306 H 0.63671 0.34377 0.39826 0.0
H307 H 0.60727 0.34893 0.43973 0.0
C308 C 0.66966 0.44783 0.40743 0.0
N309 N 0.70018 0.48877 0.4081 0.0
C310 C 0.67419 0.45997 0.39366 0.0
C311 C 0.6804 0.45664 0.42161 0.0
C312 C 0.68975 0.4806 0.39422 0.0
C313 C 0.69584 0.47732 0.42169 0.0
C314 C 0.64689 0.38151 0.3774 0.0
C315 C 0.66355 0.39333 0.36727 0.0
C316 C 0.62895 0.36502 0.3711 0.0
C317 C 0.66181 0.38871 0.35093 0.0
C318 C 0.62781 0.36089 0.35469 0.0
N319 N 0.64412 0.37274 0.34502 0.0
C320 C 0.70349 0.40927 0.4117 0.0
C321 C 0.70574 0.43509 0.39407 0.0
C322 C 0.72398 0.41506 0.40872 0.0
N323 N 0.69483 0.41931 0.40442 0.0
C324 C 0.72627 0.44136 0.39069 0.0
C325 C 0.73561 0.43117 0.39796 0.0
H326 H 0.69434 0.3965 0.41964 0.0
H327 H 0.69833 0.44234 0.38798 0.0
C328 C 0.60191 0.4004 0.37642 0.0
N329 N 0.62237 0.40693 0.37722 0.0
C330 C 0.59372 0.40467 0.36288 0.0
C331 C 0.6278 0.4223 0.35128 0.0
C332 C 0.63531 0.41772 0.36503 0.0
C333 C 0.60675 0.41585 0.35009 0.0
H334 H 0.59199 0.39209 0.38636 0.0
H335 H 0.65157 0.42304 0.36608 0.0
O336 O 0.65546 0.39437 0.42871 0.0
O337 O 0.61444 0.38831 0.41411 0.0
O338 O 0.65454 0.42755 0.40706 0.0
O339 O 0.64824 0.38592 0.39342 0.0
H340 H 0.64168 0.36802 0.45294 0.0
H341 H 0.69049 0.42724 0.43757 0.0
H342 H 0.65854 0.37405 0.47949 0.0
H343 H 0.70635 0.43238 0.46444 0.0
H344 H 0.55752 0.32819 0.40012 0.0
H345 H 0.59384 0.38154 0.44132 0.0
H346 H 0.59179 0.35814 0.39388 0.0
H347 H 0.5595 0.35125 0.44674 0.0
H348 H 0.62062 0.40948 0.48235 0.0
H349 H 0.63241 0.46302 0.4546 0.0
H350 H 0.62666 0.30806 0.40511 0.0
H351 H 0.59612 0.3132 0.44737 0.0
H352 H 0.66587 0.45354 0.38264 0.0
H353 H 0.67668 0.44771 0.43249 0.0
H354 H 0.69351 0.49012 0.38361 0.0
H355 H 0.70429 0.4843 0.43258 0.0
H356 H 0.67759 0.40606 0.37194 0.0
H357 H 0.61609 0.35545 0.37879 0.0
H358 H 0.67453 0.39784 0.34294 0.0
H359 H 0.61398 0.34822 0.34965 0.0
H360 H 0.73058 0.4069 0.4147 0.0
H361 H 0.73451 0.45356 0.38206 0.0
H362 H 0.57737 0.39927 0.36243 0.0
H363 H 0.63849 0.43127 0.34187 0.0
Li364 Li 0.25257 0.64273 0.59317 0.0
Li365 Li 0.27976 0.63643 0.58096 0.0
Li366 Li 0.27873 0.66663 0.57537 0.0
Li367 Li 0.25288 0.6356 0.5632 0.0
C368 C 0.29779 0.67547 0.60267 0.0
N369 N 0.3287 0.71306 0.61365 0.0
C370 C 0.3184 0.6815 0.59982 0.0
C371 C 0.29288 0.68849 0.61117 0.0
C372 C 0.33381 0.70059 0.60545 0.0
C373 C 0.30874 0.70745 0.61663 0.0
C374 C 0.24104 0.5981 0.58784 0.0
C375 C 0.22462 0.56137 0.58396 0.0
N376 N 0.22385 0.55869 0.60012 0.0
C377 C 0.23992 0.59496 0.60441 0.0
C378 C 0.23317 0.58116 0.57752 0.0
C379 C 0.23125 0.57493 0.61038 0.0
C380 C 0.21445 0.62699 0.6088 0.0
N381 N 0.23515 0.63737 0.6111 0.0
C382 C 0.23074 0.6376 0.63942 0.0
C383 C 0.24346 0.64277 0.62599 0.0
C384 C 0.20923 0.62653 0.63752 0.0
C385 C 0.20113 0.62137 0.62191 0.0
H386 H 0.20832 0.62266 0.5968 0.0
H387 H 0.25999 0.6507 0.62748 0.0
C388 C 0.31594 0.63436 0.57706 0.0
N389 N 0.29793 0.62608 0.58534 0.0
C390 C 0.33072 0.62893 0.58079 0.0
C391 C 0.30829 0.60661 0.60161 0.0
C392 C 0.29392 0.61248 0.59746 0.0
C393 C 0.32709 0.61503 0.59333 0.0
H394 H 0.31912 0.64569 0.56783 0.0
H395 H 0.27994 0.60671 0.6043 0.0
C396 C 0.24644 0.67271 0.56995 0.0
N397 N 0.24227 0.70582 0.56084 0.0
C398 C 0.25161 0.68054 0.5544 0.0
C399 C 0.23895 0.68155 0.58084 0.0
C400 C 0.24947 0.69735 0.55004 0.0
C401 C 0.237 0.69832 0.576 0.0
C402 C 0.28668 0.6388 0.54796 0.0
C403 C 0.29864 0.64905 0.53457 0.0
C404 C 0.27826 0.61752 0.54934 0.0
C405 C 0.30198 0.63781 0.52279 0.0
C406 C 0.28197 0.60683 0.53732 0.0
N407 N 0.29365 0.61711 0.5244 0.0
C408 C 0.31389 0.69934 0.56231 0.0
C409 C 0.29436 0.71074 0.57687 0.0
C410 C 0.32862 0.71955 0.55859 0.0
N411 N 0.29707 0.69528 0.57115 0.0
C412 C 0.30869 0.73124 0.57336 0.0
C413 C 0.32607 0.73585 0.56401 0.0
H414 H 0.31603 0.68684 0.55831 0.0
H415 H 0.28123 0.70724 0.5843 0.0
C416 C 0.21634 0.60712 0.54714 0.0
N417 N 0.23561 0.62346 0.54515 0.0
C418 C 0.20318 0.59877 0.53398 0.0
C419 C 0.22999 0.6242 0.51704 0.0
C420 C 0.24258 0.63207 0.5305 0.0
C421 C 0.20995 0.60739 0.51868 0.0
H422 H 0.21113 0.60076 0.55898 0.0
H423 H 0.25782 0.64533 0.52932 0.0
O424 O 0.28249 0.65705 0.59693 0.0
O425 O 0.24906 0.61758 0.58175 0.0
O426 O 0.24843 0.6563 0.57448 0.0
O427 O 0.28308 0.64966 0.55946 0.0
H428 H 0.32245 0.67164 0.5932 0.0
H429 H 0.27699 0.68419 0.61327 0.0
H430 H 0.34983 0.70552 0.60325 0.0
H431 H 0.30517 0.71775 0.62312 0.0
H432 H 0.21854 0.54813 0.57611 0.0
H433 H 0.24597 0.60786 0.61258 0.0
H434 H 0.2336 0.58324 0.56466 0.0
H435 H 0.23042 0.5723 0.62318 0.0
H436 H 0.2377 0.64214 0.65117 0.0
H437 H 0.18468 0.61257 0.61985 0.0
H438 H 0.34495 0.63573 0.57403 0.0
H439 H 0.30501 0.59619 0.61159 0.0
H440 H 0.25745 0.67386 0.54586 0.0
H441 H 0.23482 0.67557 0.59291 0.0
H442 H 0.25355 0.70369 0.53808 0.0
H443 H 0.23131 0.70539 0.58431 0.0
H444 H 0.30516 0.6655 0.53324 0.0
H445 H 0.26912 0.60936 0.55962 0.0
H446 H 0.31118 0.64555 0.51235 0.0
H447 H 0.27557 0.59036 0.53827 0.0
H448 H 0.34202 0.72236 0.55171 0.0
H449 H 0.30606 0.7433 0.57778 0.0
H450 H 0.18789 0.58573 0.53577 0.0
H451 H 0.23571 0.63156 0.50554 0.0
Li452 Li 0.6643 0.27884 0.74868 0.0
Li453 Li 0.63262 0.25282 0.75985 0.0
Li454 Li 0.63968 0.25307 0.73071 0.0
Li455 Li 0.63361 0.28005 0.74314 0.0
C456 C 0.66775 0.24231 0.74807 0.0
N457 N 0.696 0.22898 0.74619 0.0
C458 C 0.67318 0.23548 0.76182 0.0
C459 C 0.67644 0.24204 0.73332 0.0
C460 C 0.68757 0.2289 0.76064 0.0
C461 C 0.69075 0.23533 0.73262 0.0
C462 C 0.65429 0.28658 0.77947 0.0
C463 C 0.65854 0.30262 0.80531 0.0
N464 N 0.66968 0.29389 0.81034 0.0
C465 C 0.66576 0.27776 0.78489 0.0
C466 C 0.65063 0.29911 0.78974 0.0
C467 C 0.67342 0.28165 0.80053 0.0
C468 C 0.69693 0.31678 0.75717 0.0
N469 N 0.69286 0.29755 0.75309 0.0
C470 C 0.72846 0.30779 0.75577 0.0
C471 C 0.70815 0.29283 0.75231 0.0
C472 C 0.73305 0.32779 0.7599 0.0
C473 C 0.71697 0.33221 0.76054 0.0
H474 H 0.68449 0.32013 0.75773 0.0
H475 H 0.70477 0.27759 0.74898 0.0
C476 C 0.61905 0.21636 0.777 0.0
N477 N 0.61993 0.23488 0.77749 0.0
C478 C 0.61123 0.2029 0.78999 0.0
C479 C 0.60482 0.22759 0.8036 0.0
C480 C 0.61281 0.24061 0.79034 0.0
C481 C 0.60419 0.20855 0.80361 0.0
H482 H 0.62472 0.21218 0.76656 0.0
H483 H 0.61366 0.25542 0.79042 0.0
C484 C 0.67242 0.29956 0.72165 0.0
N485 N 0.70877 0.33281 0.71104 0.0
C486 C 0.67546 0.31949 0.72278 0.0
C487 C 0.68777 0.29653 0.71493 0.0
C488 C 0.69397 0.3361 0.71738 0.0
C489 C 0.70607 0.31354 0.7097 0.0
C490 C 0.5949 0.24383 0.74706 0.0
C491 C 0.57783 0.22638 0.74078 0.0
C492 C 0.59217 0.25516 0.75914 0.0
C493 C 0.55823 0.22055 0.74669 0.0
C494 C 0.57234 0.24882 0.76473 0.0
N495 N 0.55592 0.23179 0.75845 0.0
C496 C 0.62161 0.2156 0.71407 0.0
C497 C 0.64214 0.24489 0.69796 0.0
C498 C 0.61641 0.20271 0.70072 0.0
N499 N 0.63417 0.23624 0.71241 0.0
C500 C 0.63743 0.23257 0.68431 0.0
C501 C 0.62426 0.21117 0.68555 0.0
H502 H 0.61539 0.20923 0.72573 0.0
H503 H 0.65202 0.26138 0.69701 0.0
C504 C 0.62995 0.31502 0.74816 0.0
N505 N 0.62275 0.29757 0.73929 0.0
C506 C 0.62383 0.32935 0.74465 0.0
C507 C 0.60259 0.30719 0.72322 0.0
C508 C 0.60916 0.29329 0.72713 0.0
C509 C 0.61018 0.32566 0.73188 0.0
H510 H 0.641 0.31811 0.75759 0.0
H511 H 0.6038 0.27929 0.72026 0.0
O512 O 0.65348 0.24856 0.749 0.0
O513 O 0.64646 0.28288 0.76424 0.0
O514 O 0.65463 0.28316 0.72728 0.0
O515 O 0.61417 0.24962 0.74146 0.0
H516 H 0.66634 0.23519 0.7733 0.0
H517 H 0.67226 0.247 0.72252 0.0
H518 H 0.69199 0.22367 0.7712 0.0
H519 H 0.69768 0.23515 0.7213 0.0
H520 H 0.6558 0.31226 0.8134 0.0
H521 H 0.66876 0.26809 0.77711 0.0
H522 H 0.64167 0.30596 0.78576 0.0
H523 H 0.68234 0.27493 0.80487 0.0
H524 H 0.74048 0.30383 0.75502 0.0
H525 H 0.71982 0.34737 0.76387 0.0
H526 H 0.61072 0.18823 0.78937 0.0
H527 H 0.59973 0.23264 0.8139 0.0
H528 H 0.66376 0.32214 0.7279 0.0
H529 H 0.6857 0.28125 0.71393 0.0
H530 H 0.69658 0.35161 0.71829 0.0
H531 H 0.71814 0.31143 0.7046 0.0
H532 H 0.57972 0.21743 0.73145 0.0
H533 H 0.60522 0.26866 0.7642 0.0
H534 H 0.54487 0.20707 0.74195 0.0
H535 H 0.57 0.25743 0.77409 0.0
H536 H 0.60596 0.18636 0.70223 0.0
H537 H 0.64407 0.23975 0.67292 0.0
H538 H 0.63032 0.34351 0.75148 0.0
H539 H 0.59186 0.30361 0.71341 0.0
Li540 Li 0.40304 0.63468 0.92573 0.0
Li541 Li 0.40931 0.66647 0.91264 0.0
Li542 Li 0.3758 0.63372 0.90825 0.0
Li543 Li 0.4079 0.6395 0.89601 0.0
C544 C 0.37736 0.6469 0.94245 0.0
N545 N 0.35659 0.64185 0.97097 0.0
C546 C 0.38529 0.6625 0.95399 0.0
C547 C 0.35865 0.62891 0.94529 0.0
C548 C 0.37464 0.6596 0.96837 0.0
C549 C 0.34844 0.6266 0.95981 0.0
C550 C 0.44668 0.67148 0.91629 0.0
C551 C 0.47543 0.70376 0.90762 0.0
N552 N 0.4844 0.70603 0.92221 0.0
C553 C 0.45626 0.67403 0.93116 0.0
C554 C 0.45641 0.68636 0.90437 0.0
C555 C 0.47531 0.69164 0.93393 0.0
C556 C 0.41034 0.60664 0.94326 0.0
N557 N 0.40916 0.6241 0.94439 0.0
C558 C 0.41865 0.62775 0.97205 0.0
C559 C 0.41331 0.63475 0.95837 0.0
C560 C 0.41978 0.60964 0.9713 0.0
C561 C 0.41546 0.59898 0.95667 0.0
H562 H 0.40749 0.59877 0.93189 0.0
H563 H 0.41296 0.64895 0.95883 0.0
C564 C 0.41572 0.706 0.9055 0.0
N565 N 0.42037 0.69512 0.91605 0.0
C566 C 0.42158 0.72649 0.90868 0.0
C567 C 0.43736 0.72432 0.93331 0.0
C568 C 0.43107 0.70385 0.92971 0.0
C569 C 0.43229 0.73583 0.92288 0.0
H570 H 0.40681 0.69853 0.8949 0.0
H571 H 0.43419 0.69473 0.93806 0.0
C572 C 0.37288 0.59452 0.91049 0.0
N573 N 0.34389 0.55356 0.91525 0.0
C574 C 0.36678 0.58058 0.89775 0.0
C575 C 0.36436 0.58755 0.92569 0.0
C576 C 0.35206 0.55995 0.90039 0.0
C577 C 0.3497 0.56681 0.92784 0.0
C578 C 0.39331 0.65715 0.87633 0.0
C579 C 0.37588 0.64349 0.86756 0.0
C580 C 0.41052 0.67253 0.86835 0.0
C581 C 0.3761 0.64529 0.85089 0.0
C582 C 0.41014 0.67381 0.85166 0.0
N583 N 0.39308 0.66027 0.84335 0.0
C584 C 0.3431 0.63958 0.90228 0.0
C585 C 0.33232 0.60408 0.90391 0.0
C586 C 0.32317 0.63508 0.8985 0.0
N587 N 0.34734 0.62418 0.90474 0.0
C588 C 0.31211 0.59886 0.90028 0.0
C589 C 0.30734 0.61447 0.89733 0.0
H590 H 0.3554 0.65543 0.90291 0.0
H591 H 0.33591 0.59203 0.90588 0.0
C592 C 0.43922 0.64119 0.87576 0.0
N593 N 0.4186 0.63325 0.87751 0.0
C594 C 0.44696 0.63616 0.86234 0.0
C595 C 0.41209 0.61491 0.85281 0.0
C596 C 0.40506 0.62034 0.8664 0.0
C597 C 0.4333 0.62274 0.85069 0.0
H598 H 0.44964 0.65121 0.88487 0.0
H599 H 0.38874 0.6142 0.86811 0.0
O600 O 0.38754 0.64958 0.92825 0.0
O601 O 0.42793 0.65444 0.91341 0.0
O602 O 0.38733 0.61476 0.90809 0.0
O603 O 0.39349 0.65548 0.89265 0.0
H604 H 0.39961 0.67664 0.95193 0.0
H605 H 0.35195 0.61691 0.93636 0.0
H606 H 0.3807 0.67148 0.97745 0.0
H607 H 0.33399 0.61271 0.96218 0.0
H608 H 0.48307 0.71547 0.89853 0.0
H609 H 0.44905 0.66259 0.94047 0.0
H610 H 0.44927 0.68454 0.89278 0.0
H611 H 0.48285 0.69387 0.94541 0.0
H612 H 0.42185 0.63642 0.98309 0.0
H613 H 0.41652 0.58516 0.95552 0.0
H614 H 0.41704 0.73462 0.90041 0.0
H615 H 0.44581 0.73092 0.94429 0.0
H616 H 0.3733 0.58559 0.88595 0.0
H617 H 0.36905 0.59799 0.93574 0.0
H618 H 0.34715 0.54902 0.89062 0.0
H619 H 0.34298 0.56125 0.93954 0.0
H620 H 0.36244 0.63144 0.87352 0.0
H621 H 0.42405 0.68334 0.87496 0.0
H622 H 0.36278 0.63474 0.84394 0.0
H623 H 0.4234 0.68558 0.84532 0.0
H624 H 0.32035 0.64764 0.89609 0.0
H625 H 0.30036 0.58276 0.89975 0.0
H626 H 0.4634 0.64233 0.86129 0.0
H627 H 0.40103 0.60475 0.84404 0.0
Li628 Li 0.76404 0.4086 0.08165 0.0
Li629 Li 0.78973 0.40137 0.09334 0.0
Li630 Li 0.78975 0.40813 0.06371 0.0
Li631 Li 0.76364 0.3755 0.07544 0.0
C632 C 0.79891 0.44683 0.08382 0.0
N633 N 0.8075 0.48701 0.08724 0.0
C634 C 0.80592 0.45698 0.0985 0.0
C635 C 0.79664 0.45726 0.07082 0.0
C636 C 0.81008 0.47725 0.1 0.0
C637 C 0.80096 0.47753 0.0728 0.0
C638 C 0.75452 0.37862 0.11158 0.0
C639 C 0.74994 0.35395 0.13204 0.0
N640 N 0.74483 0.36437 0.14271 0.0
C641 C 0.74892 0.38889 0.12269 0.0
C642 C 0.75477 0.36085 0.11623 0.0
C643 C 0.7442 0.38153 0.13839 0.0
C644 C 0.72866 0.41175 0.07749 0.0
N645 N 0.74646 0.41947 0.08598 0.0
C646 C 0.73649 0.43912 0.10239 0.0
C647 C 0.75062 0.43296 0.09821 0.0
C648 C 0.71782 0.43117 0.09397 0.0
C649 C 0.71411 0.41751 0.08123 0.0
H650 H 0.72549 0.40066 0.06807 0.0
H651 H 0.76448 0.43826 0.10519 0.0
C652 C 0.82265 0.40267 0.11114 0.0
N653 N 0.80647 0.40606 0.11179 0.0
C654 C 0.83532 0.40664 0.12451 0.0
C655 C 0.81461 0.41774 0.13887 0.0
C656 C 0.8024 0.41361 0.12524 0.0
C657 C 0.83136 0.41429 0.13862 0.0
H658 H 0.82586 0.3971 0.1002 0.0
H659 H 0.78993 0.41689 0.12527 0.0
C660 C 0.75476 0.39695 0.04565 0.0
N661 N 0.7454 0.40294 0.01479 0.0
C662 C 0.74889 0.38144 0.03417 0.0
C663 C 0.75546 0.41534 0.04151 0.0
C664 C 0.74434 0.38481 0.0186 0.0
C665 C 0.75078 0.41812 0.02583 0.0
C666 C 0.79771 0.37101 0.07347 0.0
C667 C 0.80445 0.36726 0.05891 0.0
C668 C 0.79497 0.35838 0.08664 0.0
C669 C 0.80785 0.35063 0.05767 0.0
C670 C 0.79855 0.34191 0.08494 0.0
N671 N 0.80483 0.33838 0.07059 0.0
C672 C 0.82278 0.43913 0.04545 0.0
C673 C 0.80222 0.40743 0.03206 0.0
C674 C 0.83556 0.44712 0.03205 0.0
N675 N 0.80645 0.41963 0.04518 0.0
C676 C 0.81458 0.41475 0.01844 0.0
C677 C 0.83161 0.43481 0.01835 0.0
H678 H 0.82615 0.44835 0.05618 0.0
H679 H 0.78949 0.39181 0.0323 0.0
C680 C 0.72827 0.33687 0.07993 0.0
N681 N 0.74573 0.34713 0.07107 0.0
C682 C 0.71364 0.31659 0.07618 0.0
C683 C 0.73523 0.31777 0.05423 0.0
C684 C 0.74945 0.33803 0.05842 0.0
C685 C 0.71692 0.30685 0.06305 0.0
H686 H 0.72543 0.34463 0.08967 0.0
H687 H 0.76305 0.34674 0.05119 0.0
O688 O 0.79467 0.42693 0.08216 0.0
O689 O 0.75925 0.38567 0.09615 0.0
O690 O 0.75931 0.39392 0.06095 0.0
O691 O 0.79414 0.38714 0.07488 0.0
H692 H 0.80804 0.44926 0.10864 0.0
H693 H 0.79181 0.44987 0.05927 0.0
H694 H 0.81536 0.48523 0.11133 0.0
H695 H 0.79919 0.48575 0.06283 0.0
H696 H 0.75015 0.34026 0.1358 0.0
H697 H 0.74841 0.40253 0.11927 0.0
H698 H 0.75841 0.35232 0.1077 0.0
H699 H 0.74003 0.38945 0.14714 0.0
H700 H 0.73981 0.44935 0.11251 0.0
H701 H 0.70001 0.41113 0.07434 0.0
H702 H 0.84805 0.40372 0.1238 0.0
H703 H 0.81128 0.42409 0.14935 0.0
H704 H 0.74802 0.36701 0.03719 0.0
H705 H 0.75932 0.42724 0.05034 0.0
H706 H 0.73996 0.373 0.00957 0.0
H707 H 0.75133 0.43231 0.02246 0.0
H708 H 0.80693 0.37701 0.04864 0.0
H709 H 0.79034 0.3614 0.09811 0.0
H710 H 0.81292 0.34747 0.04643 0.0
H711 H 0.79641 0.33198 0.09503 0.0
H712 H 0.84873 0.46254 0.03259 0.0
H713 H 0.81088 0.40477 0.00811 0.0
H714 H 0.69981 0.30871 0.08337 0.0
H715 H 0.7382 0.31103 0.04382 0.0
Li716 Li 0.40977 0.79054 0.26019 0.0
Li717 Li 0.3772 0.76428 0.24888 0.0
Li718 Li 0.41049 0.76494 0.24314 0.0
Li719 Li 0.40333 0.79043 0.23071 0.0
C720 C 0.39797 0.75865 0.27975 0.0
N721 N 0.40305 0.75623 0.31233 0.0
C722 C 0.3817 0.75391 0.29027 0.0
C723 C 0.41673 0.76185 0.28578 0.0
C724 C 0.38459 0.75283 0.3067 0.0
C725 C 0.41903 0.76065 0.30229 0.0
C726 C 0.3737 0.79992 0.2473 0.0
C727 C 0.34903 0.8033 0.23095 0.0
N728 N 0.34374 0.81082 0.2438 0.0
C729 C 0.36822 0.80795 0.26029 0.0
C730 C 0.36419 0.7978 0.23246 0.0
C731 C 0.35296 0.81326 0.2583 0.0
C732 C 0.44176 0.82052 0.27987 0.0
N733 N 0.42115 0.80747 0.27857 0.0
C734 C 0.41525 0.8186 0.30382 0.0
C735 C 0.40791 0.80631 0.29017 0.0
C736 C 0.43645 0.83239 0.3055 0.0
C737 C 0.4498 0.83317 0.29334 0.0
H738 H 0.45192 0.82129 0.27038 0.0
H739 H 0.39159 0.79581 0.28879 0.0
C740 C 0.33997 0.72717 0.24646 0.0
N741 N 0.34884 0.74625 0.25311 0.0
C742 C 0.31967 0.71256 0.25014 0.0
C743 C 0.31809 0.73738 0.26768 0.0
C744 C 0.33838 0.75159 0.26354 0.0
C745 C 0.30854 0.71753 0.26101 0.0
H746 H 0.34884 0.72313 0.23859 0.0
H747 H 0.34599 0.76661 0.26907 0.0
C748 C 0.44754 0.79812 0.23756 0.0
N749 N 0.48511 0.80302 0.22836 0.0
C750 C 0.45483 0.8045 0.22199 0.0
C751 C 0.45948 0.79451 0.24851 0.0
C752 C 0.47384 0.80683 0.21756 0.0
C753 C 0.47839 0.79698 0.2436 0.0
C754 C 0.37776 0.75197 0.21417 0.0
C755 C 0.38567 0.74372 0.20311 0.0
C756 C 0.35921 0.7514 0.21086 0.0
C757 C 0.37514 0.73549 0.18875 0.0
C758 C 0.34913 0.74301 0.19638 0.0
N759 N 0.35725 0.73533 0.1857 0.0
C760 C 0.4165 0.7316 0.2497 0.0
C761 C 0.43245 0.74948 0.22576 0.0
C762 C 0.4223 0.71694 0.24651 0.0
N763 N 0.4215 0.74736 0.23931 0.0
C764 C 0.43867 0.73526 0.22214 0.0
C765 C 0.4333 0.71849 0.23245 0.0
H766 H 0.40738 0.73 0.2602 0.0
H767 H 0.43579 0.76184 0.21749 0.0
C768 C 0.41161 0.8267 0.2145 0.0
N769 N 0.4081 0.80725 0.21227 0.0
C770 C 0.41612 0.83995 0.20145 0.0
C771 C 0.41327 0.81288 0.18405 0.0
C772 C 0.40894 0.80022 0.19743 0.0
C773 C 0.41704 0.83308 0.18597 0.0
H774 H 0.41108 0.83196 0.22647 0.0
H775 H 0.40683 0.78501 0.196 0.0
O776 O 0.39555 0.76012 0.26365 0.0
O777 O 0.38865 0.79468 0.24906 0.0
O778 O 0.42891 0.79565 0.2421 0.0
O779 O 0.38786 0.76001 0.22832 0.0
H780 H 0.36705 0.75128 0.28581 0.0
H781 H 0.42938 0.76525 0.2778 0.0
H782 H 0.37217 0.74933 0.31499 0.0
H783 H 0.4335 0.76321 0.30713 0.0
H784 H 0.34152 0.80168 0.21953 0.0
H785 H 0.37558 0.80998 0.27181 0.0
H786 H 0.36861 0.79219 0.22217 0.0
H787 H 0.34848 0.81935 0.26829 0.0
H788 H 0.40442 0.81724 0.31298 0.0
H789 H 0.46622 0.84376 0.29403 0.0
H790 H 0.313 0.69731 0.24497 0.0
H791 H 0.31002 0.7418 0.27611 0.0
H792 H 0.4459 0.80754 0.2134 0.0
H793 H 0.45419 0.78979 0.26064 0.0
H794 H 0.47962 0.81165 0.20552 0.0
H795 H 0.48774 0.79412 0.25193 0.0
H796 H 0.39986 0.74381 0.2055 0.0
H797 H 0.35246 0.75705 0.21946 0.0
H798 H 0.38119 0.7292 0.18004 0.0
H799 H 0.33478 0.74251 0.19367 0.0
H800 H 0.4175 0.7041 0.25466 0.0
H801 H 0.44731 0.7372 0.21125 0.0
H802 H 0.41886 0.85538 0.20344 0.0
H803 H 0.41425 0.80712 0.17237 0.0
H804 H 0.12037 0.57412 0.27842 0.0
H805 H 0.15552 0.59936 0.27046 0.0
H806 H 0.17426 0.60819 0.32007 0.0
H807 H 0.13917 0.58268 0.32807 0.0
H808 H 0.17631 0.63958 0.27857 0.0
H809 H 0.21946 0.60175 0.29949 0.0
H810 H 0.19176 0.58818 0.29791 0.0
H811 H 0.20429 0.60442 0.31492 0.0
C812 C 0.13206 0.58131 0.28761 0.0
C813 C 0.12708 0.57645 0.30386 0.0
C814 C 0.15211 0.59568 0.28305 0.0
C815 C 0.16757 0.60549 0.29465 0.0
C816 C 0.16271 0.60045 0.31088 0.0
H817 H 0.29254 0.70865 0.29127 0.0
H818 H 0.25805 0.6817 0.29938 0.0
C819 C 0.14266 0.58592 0.31544 0.0
C820 C 0.18837 0.62193 0.28978 0.0
H821 H 0.23945 0.63687 0.29151 0.0
C822 C 0.1901 0.63891 0.28131 0.0
C823 C 0.20635 0.62106 0.29341 0.0
C824 C 0.20542 0.60278 0.3018 0.0
C825 C 0.20932 0.65515 0.27653 0.0
C826 C 0.22725 0.65431 0.28025 0.0
C827 C 0.22561 0.63742 0.28875 0.0
C828 C 0.24786 0.67079 0.27527 0.0
C829 C 0.21042 0.67324 0.26772 0.0
C830 C 0.25344 0.67347 0.25904 0.0
C831 C 0.27309 0.68881 0.25437 0.0
C832 C 0.28743 0.70176 0.26587 0.0
C833 C 0.28171 0.69909 0.28212 0.0
C834 C 0.26211 0.68364 0.28679 0.0
H835 H 0.19567 0.67333 0.26837 0.0
H836 H 0.2229 0.68795 0.27271 0.0
H837 H 0.21399 0.6725 0.25492 0.0
H838 H 0.24266 0.66356 0.25001 0.0
H839 H 0.27705 0.69059 0.24176 0.0
H840 H 0.58019 0.1398 0.49424 0.0
H841 H 0.58912 0.17465 0.48591 0.0
H842 H 0.57337 0.15378 0.43708 0.0
H843 H 0.56441 0.11898 0.44529 0.0
H844 H 0.61739 0.20176 0.46301 0.0
H845 H 0.5369 0.17878 0.44689 0.0
H846 H 0.54335 0.16249 0.45851 0.0
H847 H 0.54653 0.16399 0.4371 0.0
C848 C 0.57889 0.14272 0.4817 0.0
C849 C 0.57139 0.12664 0.47043 0.0
C850 C 0.5839 0.16259 0.47698 0.0
C851 C 0.58147 0.16665 0.46095 0.0
C852 C 0.57485 0.15083 0.44958 0.0
H853 H 0.59743 0.27321 0.40827 0.0
H854 H 0.59109 0.23925 0.4167 0.0
C855 C 0.56977 0.13099 0.45428 0.0
C856 C 0.5855 0.18733 0.45613 0.0
H857 H 0.56265 0.21266 0.43983 0.0
C858 C 0.60543 0.2042 0.45801 0.0
C859 C 0.56982 0.19041 0.44964 0.0
C860 C 0.5479 0.17301 0.44803 0.0
C861 C 0.61021 0.22405 0.45323 0.0
C862 C 0.59455 0.22708 0.44665 0.0
C863 C 0.57462 0.21023 0.44483 0.0
C864 C 0.59848 0.24766 0.44162 0.0
C865 C 0.63206 0.24153 0.45495 0.0
C866 C 0.60441 0.26349 0.45291 0.0
C867 C 0.6081 0.28289 0.44813 0.0
C868 C 0.60581 0.28679 0.43199 0.0
C869 C 0.59956 0.27077 0.42076 0.0
C870 C 0.59585 0.25136 0.42555 0.0
H871 H 0.6431 0.23585 0.45644 0.0
H872 H 0.63672 0.25187 0.44436 0.0
H873 H 0.63318 0.25073 0.46571 0.0
H874 H 0.60617 0.26083 0.46542 0.0
H875 H 0.61311 0.29494 0.45706 0.0
H876 H 0.48536 0.59947 0.63492 0.0
H877 H 0.4606 0.6103 0.62735 0.0
H878 H 0.4106 0.54845 0.63504 0.0
H879 H 0.4351 0.53768 0.64304 0.0
H880 H 0.43227 0.59474 0.60202 0.0
H881 H 0.39243 0.58332 0.6603 0.0
H882 H 0.41698 0.58447 0.6585 0.0
H883 H 0.39357 0.56115 0.65364 0.0
C884 C 0.46907 0.58828 0.63524 0.0
C885 C 0.46218 0.56772 0.63957 0.0
C886 C 0.45498 0.59445 0.63083 0.0
C887 C 0.43378 0.58023 0.63084 0.0
C888 C 0.42687 0.55975 0.63523 0.0
H889 H 0.3219 0.5776 0.60236 0.0
H890 H 0.3484 0.56984 0.61124 0.0
C891 C 0.44091 0.55357 0.63961 0.0
C892 C 0.41886 0.58648 0.62557 0.0
H893 H 0.37615 0.58808 0.63746 0.0
C894 C 0.42011 0.59349 0.60979 0.0
C895 C 0.40301 0.58476 0.63576 0.0
C896 C 0.40148 0.5782 0.65304 0.0
C897 C 0.40554 0.59828 0.60377 0.0
C898 C 0.3895 0.59625 0.61388 0.0
C899 C 0.38841 0.58949 0.62972 0.0
C900 C 0.37363 0.60098 0.60825 0.0
C901 C 0.40705 0.6049 0.5865 0.0
C902 C 0.37907 0.62109 0.60377 0.0
C903 C 0.36399 0.62559 0.59877 0.0
C904 C 0.34315 0.61007 0.59822 0.0
C905 C 0.33778 0.58993 0.60277 0.0
C906 C 0.35288 0.58545 0.60778 0.0
H907 H 0.41725 0.6011 0.57941 0.0
H908 H 0.39161 0.59746 0.5808 0.0
H909 H 0.41353 0.62181 0.58602 0.0
H910 H 0.39496 0.63337 0.60437 0.0
H911 H 0.36861 0.64134 0.59567 0.0
H912 H 0.92228 0.4393 0.79741 0.0
H913 H 0.88749 0.41534 0.78784 0.0
H914 H 0.87035 0.46176 0.79473 0.0
H915 H 0.90521 0.48588 0.80444 0.0
H916 H 0.84296 0.42054 0.80881 0.0
H917 H 0.86068 0.41858 0.74435 0.0
H918 H 0.87722 0.41554 0.75834 0.0
H919 H 0.87733 0.4395 0.7575 0.0
C920 C 0.9111 0.44441 0.79689 0.0
C921 C 0.91641 0.46442 0.80171 0.0
C922 C 0.89132 0.43077 0.79131 0.0
C923 C 0.87649 0.43689 0.79047 0.0
C924 C 0.88169 0.45686 0.79522 0.0
H925 H 0.75342 0.36767 0.74953 0.0
H926 H 0.7882 0.39479 0.75687 0.0
C927 C 0.90157 0.4706 0.80068 0.0
C928 C 0.85532 0.42205 0.78525 0.0
H929 H 0.82732 0.3934 0.75323 0.0
C930 C 0.83947 0.41469 0.79664 0.0
C931 C 0.85091 0.4146 0.76935 0.0
C932 C 0.86736 0.42253 0.7566 0.0
C933 C 0.81932 0.39958 0.79263 0.0
C934 C 0.81504 0.39166 0.77686 0.0
C935 C 0.83076 0.39943 0.76534 0.0
C936 C 0.79429 0.37517 0.77216 0.0
C937 C 0.80272 0.39213 0.80525 0.0
C938 C 0.78645 0.35516 0.77816 0.0
C939 C 0.76666 0.33965 0.77396 0.0
C940 C 0.75439 0.34396 0.76375 0.0
C941 C 0.76245 0.36398 0.75757 0.0
C942 C 0.7823 0.37944 0.76168 0.0
H943 H 0.80763 0.40244 0.81587 0.0
H944 H 0.78847 0.39101 0.80025 0.0
H945 H 0.79896 0.37653 0.80927 0.0
H946 H 0.79561 0.35158 0.78616 0.0
H947 H 0.7608 0.3244 0.77898 0.0
H948 H 0.47374 0.92459 0.94315 0.0
H949 H 0.4642 0.89032 0.93291 0.0
H950 H 0.45649 0.86747 0.98132 0.0
H951 H 0.46577 0.90158 0.99163 0.0
H952 H 0.48583 0.86838 0.94106 0.0
H953 H 0.40299 0.82511 0.95749 0.0
H954 H 0.41735 0.85284 0.95586 0.0
H955 H 0.42014 0.84039 0.97329 0.0
C956 C 0.46964 0.91216 0.95159 0.0
C957 C 0.47046 0.91573 0.96819 0.0
C958 C 0.46433 0.89267 0.94573 0.0
C959 C 0.45949 0.87639 0.95636 0.0
C960 C 0.45993 0.8798 0.97292 0.0
H961 H 0.43004 0.75022 0.9525 0.0
H962 H 0.43733 0.78474 0.95967 0.0
C963 C 0.46538 0.8993 0.97879 0.0
C964 C 0.45508 0.85609 0.95025 0.0
H965 H 0.41809 0.80534 0.94918 0.0
C966 C 0.47098 0.85459 0.94267 0.0
C967 C 0.43572 0.83821 0.95246 0.0
C968 C 0.41798 0.83913 0.9601 0.0
C969 C 0.46823 0.8355 0.93771 0.0
C970 C 0.4489 0.81753 0.94008 0.0
C971 C 0.4329 0.81913 0.9474 0.0
C972 C 0.44511 0.79682 0.93556 0.0
C973 C 0.48626 0.83465 0.93055 0.0
C974 C 0.44702 0.79213 0.91959 0.0
C975 C 0.44317 0.77244 0.91547 0.0
C976 C 0.43713 0.75702 0.92723 0.0
C977 C 0.43509 0.7618 0.94319 0.0
C978 C 0.43904 0.78148 0.9473 0.0
H979 H 0.50112 0.84871 0.93335 0.0
H980 H 0.48689 0.82102 0.93498 0.0
H981 H 0.48456 0.83343 0.91732 0.0
H982 H 0.45131 0.80362 0.91029 0.0
H983 H 0.44499 0.76933 0.90309 0.0
H984 H 0.60947 0.50827 0.14346 0.0
H985 H 0.63394 0.49764 0.135 0.0
H986 H 0.58389 0.4359 0.12703 0.0
H987 H 0.55918 0.44657 0.13498 0.0
H988 H 0.64092 0.46723 0.14771 0.0
H989 H 0.61506 0.4507 0.08428 0.0
H990 H 0.60768 0.46495 0.09749 0.0
H991 H 0.59518 0.43739 0.09893 0.0
C992 C 0.60363 0.49247 0.13975 0.0
C993 C 0.58236 0.47831 0.13971 0.0
C994 C 0.61764 0.4864 0.13503 0.0
C995 C 0.61069 0.46608 0.13015 0.0
C996 C 0.58953 0.45175 0.13048 0.0
H997 H 0.67618 0.40528 0.09587 0.0
H998 H 0.65008 0.41349 0.10483 0.0
C999 C 0.57546 0.45782 0.13519 0.0
C1000 C 0.62572 0.46003 0.12478 0.0
H1001 H 0.64068 0.44299 0.09234 0.0
C1002 C 0.64089 0.46193 0.13561 0.0
C1003 C 0.6256 0.45313 0.10898 0.0
C1004 C 0.61013 0.45156 0.09667 0.0
C1005 C 0.65591 0.45699 0.13109 0.0
C1006 C 0.65592 0.4503 0.11525 0.0
C1007 C 0.64061 0.44816 0.10447 0.0
C1008 C 0.67177 0.44555 0.1096 0.0
C1009 C 0.67149 0.45871 0.14335 0.0
C1010 C 0.69256 0.46098 0.10905 0.0
C1011 C 0.70751 0.45639 0.10383 0.0
C1012 C 0.70191 0.4363 0.09897 0.0
C1013 C 0.68099 0.42097 0.09931 0.0
C1014 C 0.66607 0.42558 0.10452 0.0
H1015 H 0.66633 0.45903 0.15577 0.0
H1016 H 0.67447 0.44568 0.14226 0.0
H1017 H 0.68622 0.47322 0.14131 0.0
H1018 H 0.69721 0.47659 0.1126 0.0
H1019 H 0.72344 0.46861 0.10347 0.0
H1020 H 0.43927 0.92775 0.52619 0.0
H1021 H 0.41365 0.89374 0.53604 0.0
H1022 H 0.45769 0.87304 0.53129 0.0
H1023 H 0.48353 0.90723 0.52166 0.0
H1024 H 0.39753 0.85783 0.52047 0.0
H1025 H 0.43575 0.85331 0.57592 0.0
H1026 H 0.44438 0.87707 0.5651 0.0
H1027 H 0.45151 0.85869 0.55841 0.0
C1028 C 0.4435 0.91596 0.52731 0.0
C1029 C 0.46336 0.92009 0.52314 0.0
C1030 C 0.42889 0.89657 0.53299 0.0
C1031 C 0.43382 0.88092 0.5346 0.0
C1032 C 0.45369 0.88503 0.53052 0.0
H1033 H 0.34632 0.75051 0.53556 0.0
H1034 H 0.37232 0.78577 0.52895 0.0
C1035 C 0.46841 0.90452 0.52497 0.0
C1036 C 0.41776 0.86003 0.53965 0.0
H1037 H 0.40663 0.82203 0.56703 0.0
C1038 C 0.39947 0.85006 0.53071 0.0
C1039 C 0.42018 0.85002 0.55316 0.0
C1040 C 0.43892 0.86039 0.5638 0.0
C1041 C 0.38371 0.83021 0.53471 0.0
C1042 C 0.38653 0.81983 0.54776 0.0
C1043 C 0.40461 0.82994 0.55692 0.0
C1044 C 0.37098 0.79838 0.55195 0.0
C1045 C 0.36409 0.82067 0.52502 0.0
C1046 C 0.36203 0.79364 0.56725 0.0
C1047 C 0.34738 0.77337 0.57119 0.0
C1048 C 0.34148 0.75747 0.55989 0.0
C1049 C 0.35062 0.76232 0.5446 0.0
C1050 C 0.36531 0.78253 0.54072 0.0
H1051 H 0.36191 0.83258 0.51885 0.0
H1052 H 0.36483 0.81053 0.51569 0.0
H1053 H 0.35045 0.81125 0.53269 0.0
H1054 H 0.36633 0.80564 0.57614 0.0
H1055 H 0.34091 0.77013 0.58315 0.0
H1056 H 0.56937 0.47275 0.71098 0.0
H1057 H 0.57889 0.44782 0.72068 0.0
H1058 H 0.58323 0.43126 0.67194 0.0
H1059 H 0.57424 0.45648 0.66214 0.0
H1060 H 0.55689 0.40514 0.71458 0.0
H1061 H 0.63716 0.44077 0.69223 0.0
H1062 H 0.62354 0.45487 0.69384 0.0
H1063 H 0.61871 0.43779 0.67722 0.0
C1064 C 0.57276 0.4641 0.70233 0.0
C1065 C 0.57109 0.4666 0.68579 0.0
C1066 C 0.57805 0.44978 0.70789 0.0
C1067 C 0.58196 0.43787 0.69702 0.0
C1068 C 0.5806 0.44054 0.68052 0.0
H1069 H 0.60688 0.3376 0.70157 0.0
H1070 H 0.59925 0.36449 0.69377 0.0
C1071 C 0.57526 0.4548 0.67494 0.0
C1072 C 0.58635 0.42185 0.70291 0.0
H1073 H 0.62195 0.40623 0.70158 0.0
C1074 C 0.57118 0.40544 0.71188 0.0
C1075 C 0.60498 0.4223 0.6993 0.0
C1076 C 0.62213 0.43996 0.69024 0.0
C1077 C 0.57389 0.38912 0.71696 0.0
C1078 C 0.59244 0.38945 0.7132 0.0
C1079 C 0.60772 0.406 0.70439 0.0
C1080 C 0.59622 0.37266 0.71808 0.0
C1081 C 0.55665 0.37136 0.72588 0.0
C1082 C 0.59704 0.36835 0.73434 0.0
C1083 C 0.6012 0.35285 0.73884 0.0
C1084 C 0.60474 0.34145 0.72716 0.0
C1085 C 0.60386 0.34581 0.71087 0.0
C1086 C 0.59969 0.3613 0.70639 0.0
H1087 H 0.54175 0.37098 0.72432 0.0
H1088 H 0.5548 0.35644 0.72178 0.0
H1089 H 0.56032 0.37299 0.73887 0.0
H1090 H 0.59475 0.37717 0.74355 0.0
H1091 H 0.60165 0.3498 0.75148 0.0
H1092 H 0.13129 0.59646 0.85842 0.0
H1093 H 0.1667 0.60783 0.86704 0.0
H1094 H 0.16068 0.55079 0.85006 0.0
H1095 H 0.1254 0.53936 0.8414 0.0
H1096 H 0.1778 0.58316 0.88957 0.0
H1097 H 0.21569 0.59912 0.82985 0.0
H1098 H 0.19195 0.59922 0.83325 0.0
H1099 H 0.19177 0.57526 0.83187 0.0
C1100 C 0.13764 0.58648 0.85636 0.0
C1101 C 0.12563 0.56703 0.84927 0.0
C1102 C 0.15777 0.59294 0.86134 0.0
C1103 C 0.16624 0.58017 0.85907 0.0
C1104 C 0.15441 0.5609 0.85178 0.0
H1105 H 0.28063 0.58338 0.87755 0.0
H1106 H 0.24624 0.57544 0.86919 0.0
C1107 C 0.13426 0.55436 0.84695 0.0
C1108 C 0.18718 0.58651 0.86488 0.0
H1109 H 0.2353 0.59926 0.85213 0.0
C1110 C 0.19048 0.58687 0.88144 0.0
C1111 C 0.2035 0.59116 0.85417 0.0
C1112 C 0.20072 0.59135 0.83628 0.0
C1113 C 0.20964 0.5912 0.88762 0.0
C1114 C 0.22602 0.59579 0.8769 0.0
C1115 C 0.22273 0.59572 0.86032 0.0
C1116 C 0.24659 0.60031 0.88257 0.0
C1117 C 0.21193 0.59009 0.90551 0.0
C1118 C 0.25822 0.61696 0.89287 0.0
C1119 C 0.27777 0.62134 0.8979 0.0
C1120 C 0.2862 0.60933 0.89255 0.0
C1121 C 0.2745 0.59272 0.88216 0.0
C1122 C 0.25491 0.58827 0.87724 0.0
H1123 H 0.19676 0.58096 0.91151 0.0
H1124 H 0.22157 0.58312 0.90841 0.0
H1125 H 0.2195 0.60588 0.91056 0.0
H1126 H 0.25228 0.62671 0.89688 0.0
H1127 H 0.28626 0.63414 0.90599 0.0
H1128 H 0.55853 0.13366 0.02093 0.0
H1129 H 0.58345 0.16905 0.02885 0.0
H1130 H 0.63329 0.15759 0.01912 0.0
H1131 H 0.60861 0.1225 0.01079 0.0
H1132 H 0.61248 0.18093 0.05374 0.0
H1133 H 0.65069 0.21148 0.99518 0.0
H1134 H 0.62618 0.18804 0.99695 0.0
H1135 H 0.64969 0.18796 0.00101 0.0
C1136 C 0.57481 0.13881 0.02023 0.0
C1137 C 0.58161 0.1253 0.01524 0.0
C1138 C 0.589 0.15896 0.02484 0.0
C1139 C 0.61019 0.16597 0.02438 0.0
C1140 C 0.61702 0.15258 0.0193 0.0
H1141 H 0.72242 0.27532 0.05255 0.0
H1142 H 0.69599 0.24114 0.04347 0.0
C1143 C 0.60288 0.13247 0.01472 0.0
C1144 C 0.62522 0.18698 0.02992 0.0
H1145 H 0.66737 0.23188 0.01819 0.0
C1146 C 0.62438 0.19217 0.04595 0.0
C1147 C 0.64073 0.20152 0.01972 0.0
C1148 C 0.64182 0.19709 0.00222 0.0
C1149 C 0.63902 0.21137 0.05219 0.0
C1150 C 0.65468 0.22581 0.04203 0.0
C1151 C 0.65538 0.22071 0.02595 0.0
C1152 C 0.67053 0.24634 0.04784 0.0
C1153 C 0.63796 0.21583 0.06969 0.0
C1154 C 0.66493 0.26059 0.05318 0.0
C1155 C 0.67997 0.28012 0.05831 0.0
C1156 C 0.70092 0.28582 0.05811 0.0
C1157 C 0.70645 0.27148 0.05272 0.0
C1158 C 0.69139 0.25194 0.04759 0.0
H1159 H 0.62823 0.20154 0.07663 0.0
H1160 H 0.65358 0.22394 0.0751 0.0
H1161 H 0.63116 0.22593 0.07084 0.0
H1162 H 0.64895 0.25671 0.05313 0.0
H1163 H 0.67522 0.29094 0.06206 0.0
H1164 H 0.47396 0.5706 0.21281 0.0
H1165 H 0.46431 0.59529 0.22297 0.0
H1166 H 0.45654 0.61021 0.1745 0.0
H1167 H 0.46591 0.58542 0.16427 0.0
H1168 H 0.48602 0.63866 0.21481 0.0
H1169 H 0.40329 0.59968 0.19816 0.0
H1170 H 0.41747 0.58613 0.19977 0.0
H1171 H 0.42037 0.60142 0.18235 0.0
C1172 C 0.4698 0.57886 0.20434 0.0
C1173 C 0.47066 0.57609 0.18775 0.0
C1174 C 0.46442 0.59301 0.21015 0.0
C1175 C 0.45956 0.6044 0.19948 0.0
C1176 C 0.45998 0.60135 0.18293 0.0
H1177 H 0.43146 0.70211 0.20279 0.0
H1178 H 0.43853 0.67469 0.19571 0.0
C1179 C 0.46548 0.58732 0.17711 0.0
C1180 C 0.45529 0.62041 0.20553 0.0
H1181 H 0.41868 0.63468 0.20625 0.0
C1182 C 0.47125 0.63775 0.21311 0.0
C1183 C 0.43604 0.61913 0.20319 0.0
C1184 C 0.41822 0.60052 0.19554 0.0
C1185 C 0.46868 0.65424 0.21796 0.0
C1186 C 0.44947 0.65308 0.21546 0.0
C1187 C 0.4334 0.63554 0.20813 0.0
C1188 C 0.44587 0.67014 0.2199 0.0
C1189 C 0.48677 0.67304 0.22516 0.0
C1190 C 0.44764 0.67668 0.23587 0.0
C1191 C 0.4439 0.6926 0.23994 0.0
C1192 C 0.43813 0.70214 0.22812 0.0
C1193 C 0.43629 0.69543 0.21215 0.0
C1194 C 0.44012 0.6796 0.20809 0.0
H1195 H 0.50158 0.67366 0.22247 0.0
H1196 H 0.48761 0.68737 0.22064 0.0
H1197 H 0.48497 0.67262 0.23837 0.0
H1198 H 0.45169 0.66933 0.24522 0.0
H1199 H 0.44557 0.69745 0.25234 0.0
H1200 H 0.92414 0.50951 0.35375 0.0
H1201 H 0.88973 0.50012 0.36326 0.0
H1202 H 0.87369 0.43636 0.36544 0.0
H1203 H 0.90813 0.44563 0.35586 0.0
H1204 H 0.85234 0.47348 0.34866 0.0
H1205 H 0.85665 0.44632 0.40972 0.0
H1206 H 0.87919 0.46135 0.39751 0.0
H1207 H 0.86289 0.43429 0.39378 0.0
C1208 C 0.91327 0.49347 0.3562 0.0
C1209 C 0.91883 0.47829 0.35401 0.0
C1210 C 0.89367 0.48816 0.36171 0.0
C1211 C 0.87927 0.4676 0.36524 0.0
C1212 C 0.88473 0.45238 0.36311 0.0
H1213 H 0.75083 0.4052 0.39304 0.0
H1214 H 0.78583 0.41429 0.3854 0.0
C1215 C 0.90439 0.45769 0.35762 0.0
C1216 C 0.85829 0.46208 0.37052 0.0
H1217 H 0.82404 0.44083 0.40133 0.0
C1218 C 0.84617 0.46643 0.36021 0.0
C1219 C 0.85032 0.45284 0.38557 0.0
C1220 C 0.86297 0.44857 0.39737 0.0
C1221 C 0.82614 0.46154 0.36445 0.0
C1222 C 0.81819 0.45235 0.37951 0.0
C1223 C 0.83025 0.44791 0.38981 0.0
C1224 C 0.79727 0.44707 0.38471 0.0
C1225 C 0.81351 0.46588 0.35268 0.0
C1226 C 0.79226 0.46256 0.38712 0.0
C1227 C 0.77232 0.45745 0.3916 0.0
C1228 C 0.75704 0.43674 0.39381 0.0
C1229 C 0.76227 0.42131 0.39166 0.0
C1230 C 0.78222 0.42645 0.3872 0.0
H1231 H 0.81999 0.46848 0.34037 0.0
H1232 H 0.79736 0.45295 0.35235 0.0
H1233 H 0.81329 0.47994 0.35647 0.0
H1234 H 0.8038 0.4786 0.38553 0.0
H1235 H 0.76889 0.46972 0.39342 0.0
H1236 H 0.09819 0.52315 0.39306 0.0
H1237 H 0.12051 0.53397 0.41667 0.0
H1238 H 0.11086 0.58559 0.42297 0.0
H1239 H 0.08854 0.57489 0.39934 0.0
H1240 H 0.15165 0.59623 0.42594 0.0
H1241 H 0.10184 0.52787 0.46327 0.0
H1242 H 0.1084 0.5217 0.44417 0.0
H1243 H 0.09288 0.53376 0.44503 0.0
C1244 C 0.10069 0.53672 0.39955 0.0
C1245 C 0.0915 0.5481 0.39439 0.0
C1246 C 0.11342 0.54286 0.41305 0.0
C1247 C 0.11704 0.56037 0.42174 0.0
C1248 C 0.10819 0.57197 0.41647 0.0
H1249 H 0.16908 0.5957 0.51718 0.0
H1250 H 0.14667 0.58421 0.49361 0.0
C1251 C 0.09552 0.56589 0.40293 0.0
C1252 C 0.13031 0.56679 0.43619 0.0
H1253 H 0.13527 0.55079 0.4734 0.0
C1254 C 0.14806 0.58633 0.43634 0.0
C1255 C 0.12543 0.55393 0.44981 0.0
C1256 C 0.106 0.53323 0.45069 0.0
C1257 C 0.16124 0.59326 0.44966 0.0
C1258 C 0.15672 0.58013 0.46307 0.0
C1259 C 0.13881 0.56072 0.46303 0.0
C1260 C 0.17021 0.58643 0.47739 0.0
C1261 C 0.17968 0.61472 0.44937 0.0
C1262 C 0.19073 0.59106 0.47615 0.0
C1263 C 0.20356 0.59758 0.48959 0.0
C1264 C 0.19604 0.59943 0.50457 0.0
C1265 C 0.1753 0.59425 0.50586 0.0
C1266 C 0.1625 0.58778 0.49239 0.0
H1267 H 0.178 0.62453 0.44021 0.0
H1268 H 0.18211 0.62226 0.46125 0.0
H1269 H 0.19363 0.61384 0.44639 0.0
H1270 H 0.19685 0.58964 0.46476 0.0
H1271 H 0.21936 0.6011 0.48827 0.0
H1272 H 0.57089 0.11892 0.54859 0.0
H1273 H 0.58228 0.14177 0.57193 0.0
H1274 H 0.57785 0.09249 0.60138 0.0
H1275 H 0.56602 0.06939 0.57826 0.0
H1276 H 0.5604 0.13487 0.60224 0.0
H1277 H 0.63726 0.14162 0.60914 0.0
H1278 H 0.62263 0.13307 0.59076 0.0
H1279 H 0.61583 0.11584 0.60751 0.0
C1280 C 0.57219 0.11288 0.56005 0.0
C1281 C 0.5676 0.09232 0.56153 0.0
C1282 C 0.57881 0.12599 0.57334 0.0
C1283 C 0.58115 0.11886 0.58828 0.0
C1284 C 0.57651 0.09837 0.58985 0.0
H1285 H 0.61945 0.17255 0.68281 0.0
H1286 H 0.6085 0.15023 0.65921 0.0
C1287 C 0.5698 0.08522 0.57661 0.0
C1288 C 0.58793 0.13269 0.60237 0.0
H1289 H 0.6268 0.15622 0.62965 0.0
C1290 C 0.57495 0.13965 0.60821 0.0
C1291 C 0.60686 0.13874 0.61013 0.0
C1292 C 0.62158 0.1321 0.60404 0.0
C1293 C 0.58024 0.15224 0.62185 0.0
C1294 C 0.59926 0.15842 0.62958 0.0
C1295 C 0.61224 0.15147 0.6237 0.0
C1296 C 0.60594 0.17207 0.64382 0.0
C1297 C 0.56516 0.15835 0.62809 0.0
C1298 C 0.60843 0.19186 0.64293 0.0
C1299 C 0.61445 0.20456 0.65644 0.0
C1300 C 0.61834 0.19782 0.67108 0.0
C1301 C 0.61624 0.17811 0.67182 0.0
C1302 C 0.61014 0.16539 0.65831 0.0
H1303 H 0.54931 0.14784 0.62366 0.0
H1304 H 0.56491 0.15835 0.64139 0.0
H1305 H 0.56984 0.17412 0.62387 0.0
H1306 H 0.60569 0.19749 0.63178 0.0
H1307 H 0.61572 0.21955 0.65545 0.0
H1308 H 0.46858 0.53531 0.73256 0.0
H1309 H 0.45744 0.54749 0.75559 0.0
H1310 H 0.50934 0.60854 0.74908 0.0
H1311 H 0.52027 0.59665 0.72576 0.0
H1312 H 0.47988 0.56559 0.78385 0.0
H1313 H 0.4602 0.61836 0.75171 0.0
H1314 H 0.46353 0.599 0.74149 0.0
H1315 H 0.4856 0.62263 0.74784 0.0
C1316 C 0.47746 0.5514 0.73588 0.0
C1317 C 0.49526 0.56503 0.72729 0.0
C1318 C 0.47115 0.55829 0.7491 0.0
C1319 C 0.48243 0.57895 0.7539 0.0
C1320 C 0.50024 0.5926 0.7454 0.0
H1321 H 0.46715 0.647 0.83219 0.0
H1322 H 0.47988 0.63653 0.80906 0.0
C1323 C 0.50658 0.58573 0.73219 0.0
C1324 C 0.47586 0.58605 0.7681 0.0
H1325 H 0.45933 0.61887 0.78008 0.0
C1326 C 0.47533 0.5772 0.78304 0.0
C1327 C 0.47005 0.60127 0.76698 0.0
C1328 C 0.46967 0.61078 0.75114 0.0
C1329 C 0.46929 0.58329 0.79694 0.0
C1330 C 0.46327 0.59835 0.7958 0.0
C1331 C 0.46397 0.60734 0.78089 0.0
C1332 C 0.45571 0.60462 0.80989 0.0
C1333 C 0.46971 0.57377 0.81278 0.0
C1334 C 0.4378 0.59019 0.81789 0.0
C1335 C 0.43057 0.59608 0.83112 0.0
C1336 C 0.44104 0.61657 0.83657 0.0
C1337 C 0.4589 0.63105 0.82843 0.0
C1338 C 0.46611 0.62513 0.81517 0.0
H1339 H 0.47984 0.56691 0.81232 0.0
H1340 H 0.47511 0.58535 0.82256 0.0
H1341 H 0.45391 0.56132 0.81576 0.0
H1342 H 0.42934 0.57436 0.81383 0.0
H1343 H 0.41689 0.58451 0.8372 0.0
H1344 H 0.95168 0.52331 0.89697 0.0
H1345 H 0.92947 0.51326 0.92065 0.0
H1346 H 0.9257 0.45398 0.92068 0.0
H1347 H 0.94786 0.46388 0.89701 0.0
H1348 H 0.88958 0.48055 0.92464 0.0
H1349 H 0.94347 0.47405 0.96654 0.0
H1350 H 0.95153 0.48667 0.94732 0.0
H1351 H 0.9385 0.45905 0.94862 0.0
C1352 C 0.94603 0.50809 0.90197 0.0
C1353 C 0.95161 0.49441 0.89516 0.0
C1354 C 0.93343 0.50241 0.91553 0.0
C1355 C 0.92624 0.48302 0.92257 0.0
C1356 C 0.93151 0.46921 0.91567 0.0
H1357 H 0.84573 0.41403 0.00034 0.0
H1358 H 0.86844 0.42654 0.97701 0.0
C1359 C 0.94415 0.47489 0.90214 0.0
C1360 C 0.91287 0.47703 0.93694 0.0
H1361 H 0.90909 0.46089 0.97569 0.0
C1362 C 0.89389 0.47641 0.93585 0.0
C1363 C 0.91859 0.47169 0.95155 0.0
C1364 C 0.93922 0.47307 0.95368 0.0
C1365 C 0.88018 0.46998 0.94885 0.0
C1366 C 0.88577 0.46432 0.96336 0.0
C1367 C 0.90485 0.46519 0.96452 0.0
C1368 C 0.87182 0.45691 0.97737 0.0
C1369 C 0.8596 0.46873 0.94684 0.0
C1370 C 0.86635 0.46993 0.98538 0.0
C1371 C 0.85328 0.46279 0.99869 0.0
C1372 C 0.84549 0.44252 0.00422 0.0
C1373 C 0.85117 0.4296 0.99622 0.0
C1374 C 0.86426 0.43676 0.98296 0.0
H1375 H 0.85589 0.46933 0.93402 0.0
H1376 H 0.84712 0.45434 0.95221 0.0
H1377 H 0.8599 0.48193 0.95309 0.0
H1378 H 0.87229 0.48564 0.98138 0.0
H1379 H 0.84912 0.47308 0.00455 0.0
H1380 H 0.44655 0.94946 0.06235 0.0
H1381 H 0.4342 0.92685 0.08575 0.0
H1382 H 0.4924 0.92854 0.08895 0.0
H1383 H 0.50454 0.95036 0.06514 0.0
H1384 H 0.45997 0.88977 0.09233 0.0
H1385 H 0.45021 0.94354 0.1321 0.0
H1386 H 0.43627 0.93824 0.11359 0.0
H1387 H 0.46395 0.95156 0.11334 0.0
C1388 C 0.45667 0.94488 0.06793 0.0
C1389 C 0.47659 0.95181 0.06188 0.0
C1390 C 0.44967 0.93218 0.08145 0.0
C1391 C 0.46252 0.92634 0.08928 0.0
C1392 C 0.4823 0.93301 0.08317 0.0
H1393 H 0.44752 0.87334 0.184 0.0
H1394 H 0.45799 0.89576 0.16044 0.0
C1395 C 0.48927 0.94562 0.06963 0.0
C1396 C 0.45525 0.91289 0.10363 0.0
H1397 H 0.43725 0.90945 0.14176 0.0
C1398 C 0.45503 0.89408 0.10315 0.0
C1399 C 0.44907 0.91867 0.1178 0.0
C1400 C 0.45005 0.93919 0.11935 0.0
C1401 C 0.44865 0.8808 0.11642 0.0
C1402 C 0.44186 0.88628 0.13041 0.0
C1403 C 0.44225 0.90518 0.13095 0.0
C1404 C 0.43485 0.87288 0.14479 0.0
C1405 C 0.44974 0.86127 0.11544 0.0
C1406 C 0.41808 0.85274 0.1439 0.0
C1407 C 0.41211 0.83989 0.15732 0.0
C1408 C 0.42264 0.84704 0.17195 0.0
C1409 C 0.43901 0.86744 0.17294 0.0
C1410 C 0.44505 0.88023 0.15948 0.0
H1411 H 0.46032 0.86208 0.10578 0.0
H1412 H 0.45498 0.85806 0.12697 0.0
H1413 H 0.43419 0.84815 0.11273 0.0
H1414 H 0.40965 0.84692 0.13279 0.0
H1415 H 0.39922 0.82435 0.15628 0.0
H1416 H 0.52832 0.48261 0.24534 0.0
H1417 H 0.53923 0.46984 0.26813 0.0
H1418 H 0.57941 0.45986 0.23712 0.0
H1419 H 0.5686 0.47266 0.21427 0.0
H1420 H 0.53609 0.43173 0.27256 0.0
H1421 H 0.61788 0.49406 0.27328 0.0
H1422 H 0.59836 0.49599 0.26203 0.0
H1423 H 0.60936 0.48125 0.25431 0.0
C1424 C 0.53942 0.47763 0.24336 0.0
C1425 C 0.54768 0.47873 0.22802 0.0
C1426 C 0.54569 0.4704 0.2564 0.0
C1427 C 0.56036 0.4642 0.25436 0.0
C1428 C 0.56843 0.46503 0.23903 0.0
H1429 H 0.6169 0.41565 0.31858 0.0
H1430 H 0.60487 0.42648 0.29526 0.0
C1431 C 0.56224 0.47233 0.22599 0.0
C1432 C 0.56692 0.45654 0.26824 0.0
H1433 H 0.60885 0.4656 0.29047 0.0
C1434 C 0.55198 0.43916 0.27653 0.0
C1435 C 0.58767 0.46628 0.27336 0.0
C1436 C 0.60423 0.48554 0.26539 0.0
C1437 C 0.55729 0.43108 0.28968 0.0
C1438 C 0.57803 0.44081 0.29477 0.0
C1439 C 0.59297 0.45814 0.28647 0.0
C1440 C 0.58457 0.43346 0.30885 0.0
C1441 C 0.54073 0.412 0.29784 0.0
C1442 C 0.57719 0.4339 0.3242 0.0
C1443 C 0.5841 0.42783 0.33756 0.0
C1444 C 0.59864 0.42133 0.33581 0.0
C1445 C 0.60588 0.42079 0.32036 0.0
C1446 C 0.59896 0.42687 0.30702 0.0
H1447 H 0.5269 0.40354 0.29013 0.0
H1448 H 0.54652 0.40145 0.30111 0.0
H1449 H 0.53596 0.41649 0.30901 0.0
H1450 H 0.5664 0.43935 0.3259 0.0
H1451 H 0.57849 0.42879 0.3493 0.0
H1452 H 0.52462 0.94818 0.42935 0.0
H1453 H 0.51442 0.92561 0.40587 0.0
H1454 H 0.45872 0.92867 0.40182 0.0
H1455 H 0.4686 0.95096 0.42539 0.0
H1456 H 0.47763 0.88679 0.40093 0.0
H1457 H 0.48561 0.94594 0.35698 0.0
H1458 H 0.49689 0.95243 0.37675 0.0
H1459 H 0.4699 0.94326 0.37408 0.0
C1460 C 0.5101 0.9439 0.42356 0.0
C1461 C 0.49747 0.95147 0.4292 0.0
C1462 C 0.50437 0.9311 0.4101 0.0
C1463 C 0.486 0.92577 0.40199 0.0
C1464 C 0.47318 0.93298 0.40773 0.0
H1465 H 0.41957 0.85297 0.32032 0.0
H1466 H 0.43231 0.8751 0.34392 0.0
C1467 C 0.47886 0.94574 0.42119 0.0
C1468 C 0.48006 0.91248 0.3876 0.0
H1469 H 0.46949 0.91141 0.34772 0.0
C1470 C 0.47599 0.89217 0.38926 0.0
C1471 C 0.47799 0.91962 0.37242 0.0
C1472 C 0.48299 0.94156 0.36985 0.0
C1473 C 0.46922 0.87855 0.37619 0.0
C1474 C 0.46687 0.88561 0.36104 0.0
C1475 C 0.47127 0.90603 0.35936 0.0
C1476 C 0.45924 0.87192 0.34686 0.0
C1477 C 0.464 0.85655 0.37882 0.0
C1478 C 0.47027 0.86294 0.3406 0.0
C1479 C 0.46292 0.85009 0.32717 0.0
C1480 C 0.44445 0.84611 0.31972 0.0
C1481 C 0.43362 0.85539 0.32593 0.0
C1482 C 0.44096 0.86817 0.33935 0.0
H1483 H 0.4619 0.85237 0.39173 0.0
H1484 H 0.44973 0.84572 0.37229 0.0
H1485 H 0.47674 0.85453 0.3742 0.0
H1486 H 0.48461 0.86594 0.34605 0.0
H1487 H 0.47157 0.84311 0.32274 0.0
H1488 H 0.58516 0.48842 0.60775 0.0
H1489 H 0.59831 0.47862 0.58453 0.0
H1490 H 0.56658 0.49895 0.55288 0.0
H1491 H 0.55382 0.5093 0.57599 0.0
H1492 H 0.57484 0.45001 0.5606 0.0
H1493 H 0.62542 0.52763 0.53485 0.0
H1494 H 0.61581 0.5238 0.55513 0.0
H1495 H 0.59949 0.52179 0.53864 0.0
C1496 C 0.58123 0.49108 0.59584 0.0
C1497 C 0.5685 0.49969 0.5937 0.0
C1498 C 0.58866 0.48537 0.5826 0.0
C1499 C 0.58364 0.48833 0.567 0.0
C1500 C 0.57092 0.49688 0.56482 0.0
H1501 H 0.6036 0.45718 0.4715 0.0
H1502 H 0.59404 0.46982 0.49514 0.0
C1503 C 0.56346 0.50256 0.57804 0.0
C1504 C 0.59101 0.48168 0.55302 0.0
H1505 H 0.61934 0.49902 0.51867 0.0
C1506 C 0.58469 0.46072 0.55149 0.0
C1507 C 0.60381 0.49572 0.54116 0.0
C1508 C 0.61171 0.51852 0.54254 0.0
C1509 C 0.59046 0.45332 0.53818 0.0
C1510 C 0.60316 0.46734 0.52626 0.0
C1511 C 0.60958 0.48833 0.52784 0.0
C1512 C 0.60974 0.46045 0.51197 0.0
C1513 C 0.58246 0.4305 0.53677 0.0
C1514 C 0.6221 0.45141 0.5136 0.0
C1515 C 0.62767 0.44426 0.50012 0.0
C1516 C 0.62106 0.44612 0.48475 0.0
C1517 C 0.60911 0.45568 0.48314 0.0
C1518 C 0.60355 0.46282 0.49663 0.0
H1519 H 0.5691 0.42143 0.54481 0.0
H1520 H 0.57776 0.42516 0.52426 0.0
H1521 H 0.59484 0.42723 0.54016 0.0
H1522 H 0.6274 0.44984 0.52531 0.0
H1523 H 0.6372 0.43732 0.50174 0.0
H1524 H 0.11561 0.56788 0.77311 0.0
H1525 H 0.13807 0.57967 0.74957 0.0
H1526 H 0.08932 0.57873 0.72159 0.0
H1527 H 0.0665 0.56638 0.74488 0.0
H1528 H 0.12851 0.55837 0.71785 0.0
H1529 H 0.14122 0.63806 0.71565 0.0
H1530 H 0.13299 0.6226 0.73365 0.0
H1531 H 0.11503 0.61748 0.71769 0.0
C1532 C 0.10957 0.57 0.76193 0.0
C1533 C 0.08922 0.56619 0.76092 0.0
C1534 C 0.12248 0.57686 0.74853 0.0
C1535 C 0.11538 0.58025 0.73394 0.0
C1536 C 0.09515 0.5765 0.73284 0.0
H1537 H 0.17215 0.62518 0.64084 0.0
H1538 H 0.14904 0.61318 0.66397 0.0
C1539 C 0.08217 0.56952 0.74619 0.0
C1540 C 0.12898 0.5872 0.71974 0.0
H1541 H 0.15512 0.62797 0.69447 0.0
C1542 C 0.13441 0.57359 0.71273 0.0
C1543 C 0.13644 0.607 0.71309 0.0
C1544 C 0.13129 0.62226 0.72041 0.0
C1545 C 0.14696 0.57919 0.69906 0.0
C1546 C 0.15473 0.59914 0.69251 0.0
C1547 C 0.14919 0.61271 0.69952 0.0
C1548 C 0.16874 0.6063 0.67848 0.0
C1549 C 0.15136 0.56349 0.69155 0.0
C1550 C 0.18762 0.60667 0.67904 0.0
C1551 C 0.20072 0.61324 0.66577 0.0
C1552 C 0.19538 0.61988 0.65173 0.0
C1553 C 0.17661 0.61986 0.65134 0.0
C1554 C 0.16345 0.61316 0.6646 0.0
H1555 H 0.1396 0.54754 0.69496 0.0
H1556 H 0.15187 0.5647 0.67828 0.0
H1557 H 0.16653 0.56619 0.69582 0.0
H1558 H 0.19224 0.60189 0.68975 0.0
H1559 H 0.21492 0.61282 0.66647 0.0
H1560 H 0.52062 0.09618 0.92947 0.0
H1561 H 0.53076 0.11853 0.90585 0.0
H1562 H 0.58188 0.10849 0.89802 0.0
H1563 H 0.57154 0.08568 0.92133 0.0
H1564 H 0.56857 0.15484 0.89978 0.0
H1565 H 0.55226 0.09439 0.85445 0.0
H1566 H 0.54254 0.08843 0.8747 0.0
H1567 H 0.56878 0.09556 0.87049 0.0
C1568 C 0.53389 0.09855 0.92262 0.0
C1569 C 0.54521 0.08906 0.92722 0.0
C1570 C 0.53973 0.11142 0.9092 0.0
C1571 C 0.55688 0.1149 0.90007 0.0
C1572 C 0.56838 0.10571 0.90475 0.0
H1573 H 0.62066 0.18665 0.81683 0.0
H1574 H 0.60858 0.1642 0.84032 0.0
C1575 C 0.56258 0.09287 0.91818 0.0
C1576 C 0.56294 0.12842 0.88579 0.0
H1577 H 0.57017 0.12903 0.84536 0.0
C1578 C 0.56881 0.14921 0.88785 0.0
C1579 C 0.56319 0.12097 0.87027 0.0
C1580 C 0.55618 0.09858 0.86726 0.0
C1581 C 0.57548 0.16292 0.87484 0.0
C1582 C 0.57593 0.1555 0.85934 0.0
C1583 C 0.56985 0.13466 0.85727 0.0
C1584 C 0.58307 0.16919 0.84514 0.0
C1585 C 0.58254 0.18532 0.87786 0.0
C1586 C 0.57258 0.17925 0.83996 0.0
C1587 C 0.57941 0.19205 0.82649 0.0
C1588 C 0.59676 0.19487 0.81788 0.0
C1589 C 0.6071 0.1846 0.82305 0.0
C1590 C 0.60028 0.17185 0.83652 0.0
H1591 H 0.58591 0.18939 0.89073 0.0
H1592 H 0.59655 0.19543 0.87076 0.0
H1593 H 0.57022 0.18853 0.87415 0.0
H1594 H 0.559 0.17705 0.84625 0.0
H1595 H 0.57093 0.19949 0.82267 0.0
H1596 H 0.50347 0.57998 0.09486 0.0
H1597 H 0.4912 0.59073 0.07166 0.0
H1598 H 0.43809 0.52984 0.0684 0.0
H1599 H 0.45018 0.51905 0.0917 0.0
H1600 H 0.48434 0.57571 0.04116 0.0
H1601 H 0.41187 0.56572 0.0673 0.0
H1602 H 0.43176 0.56558 0.07937 0.0
H1603 H 0.41408 0.543 0.0683 0.0
C1604 C 0.48918 0.56889 0.08919 0.0
C1605 C 0.47774 0.54869 0.09513 0.0
C1606 C 0.48216 0.57506 0.07598 0.0
C1607 C 0.46358 0.56119 0.06845 0.0
C1608 C 0.4522 0.54096 0.07427 0.0
H1609 H 0.40263 0.57015 0.9825 0.0
H1610 H 0.4133 0.558 0.00592 0.0
C1611 C 0.45915 0.5348 0.08756 0.0
C1612 C 0.45654 0.56775 0.05418 0.0
H1613 H 0.41681 0.57278 0.03938 0.0
C1614 C 0.46961 0.57514 0.0408 0.0
C1615 C 0.43729 0.56696 0.05373 0.0
C1616 C 0.42301 0.56007 0.06799 0.0
C1617 C 0.46389 0.58162 0.02693 0.0
C1618 C 0.44468 0.58082 0.0265 0.0
C1619 C 0.43151 0.57329 0.03979 0.0
C1620 C 0.43819 0.58817 0.01243 0.0
C1621 C 0.47831 0.58907 0.01276 0.0
C1622 C 0.44855 0.60916 0.00851 0.0
C1623 C 0.44249 0.61613 0.9952 0.0
C1624 C 0.42597 0.60222 0.98557 0.0
C1625 C 0.41554 0.58119 0.9896 0.0
C1626 C 0.42154 0.57425 0.00299 0.0
H1627 H 0.4904 0.5847 0.01373 0.0
H1628 H 0.46968 0.58272 0.00141 0.0
H1629 H 0.486 0.6061 0.01209 0.0
H1630 H 0.46131 0.62014 0.01577 0.0
H1631 H 0.45094 0.63239 0.99232 0.0
H1632 H 0.97569 0.48757 0.2436 0.0
H1633 H 0.95216 0.47464 0.22071 0.0
H1634 H 0.90038 0.44615 0.25296 0.0
H1635 H 0.92375 0.45948 0.27593 0.0
H1636 H 0.92264 0.43313 0.21302 0.0
H1637 H 0.88639 0.4812 0.22299 0.0
H1638 H 0.91024 0.48666 0.23246 0.0
H1639 H 0.88614 0.4664 0.24001 0.0
C1640 C 0.95928 0.47874 0.24582 0.0
C1641 C 0.95158 0.47467 0.26158 0.0
C1642 C 0.94588 0.47125 0.23274 0.0
C1643 C 0.92455 0.45967 0.23516 0.0
C1644 C 0.91679 0.45532 0.25085 0.0
H1645 H 0.82002 0.40679 0.17017 0.0
H1646 H 0.84253 0.41664 0.19366 0.0
C1647 C 0.93018 0.46278 0.26395 0.0
C1648 C 0.91043 0.45208 0.22124 0.0
H1649 H 0.87219 0.45615 0.20249 0.0
C1650 C 0.91162 0.43816 0.21068 0.0
C1651 C 0.89607 0.45868 0.21828 0.0
C1652 C 0.89467 0.47419 0.22893 0.0
C1653 C 0.89862 0.43045 0.19728 0.0
C1654 C 0.88436 0.43717 0.19424 0.0
C1655 C 0.88311 0.451 0.20487 0.0
C1656 C 0.87081 0.43035 0.17996 0.0
C1657 C 0.90002 0.41493 0.18665 0.0
C1658 C 0.87926 0.43487 0.16449 0.0
C1659 C 0.86645 0.42931 0.15105 0.0
C1660 C 0.84494 0.41928 0.15285 0.0
C1661 C 0.83653 0.41468 0.16839 0.0
C1662 C 0.84935 0.42021 0.18181 0.0
H1663 H 0.90741 0.40723 0.19293 0.0
H1664 H 0.88454 0.40298 0.18245 0.0
H1665 H 0.9095 0.42291 0.17598 0.0
H1666 H 0.89579 0.44312 0.1628 0.0
H1667 H 0.87342 0.43339 0.13927 0.0
loop_
_geom_bond_atom_site_label_1
_geom_bond_atom_site_label_2
_geom_bond_distance
_geom_bond_site_symmetry_2
_ccdc_geom_bond_type
C0 C1 1.384 . S
C0 C2 1.384 . S
C0 H28 0.931 . S
C1 C0 1.384 . S
C1 C4 1.382 . S
C2 C0 1.384 . S
C2 C3 1.381 . S
C2 H29 0.930 . S
C3 C2 1.381 . S
C3 C5 1.381 . S
C3 C6 1.487 1_655 S
C4 C1 1.382 . S
C4 C5 1.387 . S
C4 H30 0.930 . S
C5 C3 1.381 . S
C5 C4 1.387 . S
C5 H31 0.931 . S
C6 C3 1.487 1_455 S
C6 C13 1.399 . S
C6 N44 1.343 . S
C7 C8 1.384 . S
C7 C9 1.384 . S
C7 H32 0.931 . S
C8 C7 1.384 . S
C8 C11 1.382 . S
C9 C7 1.384 . S
C9 C10 1.381 . S
C9 H33 0.930 . S
C10 C9 1.381 . S
C10 C12 1.381 . S
C10 C13 1.487 1_655 S
C11 C8 1.382 . S
C11 C12 1.387 . S
C11 H34 0.930 . S
C12 C10 1.381 . S
C12 C11 1.387 . S
C12 H35 0.931 1_655 S
C13 C6 1.399 . S
C13 C10 1.487 1_455 S
C13 N45 1.343 . S
C14 C15 1.384 . S
C14 C16 1.384 . S
C14 H36 0.931 . S
C15 C14 1.384 . S
C15 C18 1.382 . S
C16 C14 1.384 . S
C16 C17 1.381 . S
C16 H37 0.930 . S
C17 C16 1.381 . S
C17 C19 1.381 . S
C17 C20 1.487 . S
C18 C15 1.382 . S
C18 C19 1.387 . S
C18 H38 0.930 . S
C19 C17 1.381 . S
C19 C18 1.387 . S
C19 H39 0.931 . S
C20 C17 1.487 . S
C20 C27 1.399 . S
C20 N45 1.343 . S
C21 C22 1.384 . S
C21 C23 1.384 . S
C21 H40 0.931 . S
C22 C21 1.384 . S
C22 C25 1.382 . S
C23 C21 1.384 . S
C23 C24 1.381 . S
C23 H41 0.930 . S
C24 C23 1.381 . S
C24 C26 1.381 . S
C24 C27 1.487 . S
C25 C22 1.382 . S
C25 C26 1.387 . S
C25 H42 0.930 . S
C26 C24 1.381 . S
C26 C25 1.387 . S
C26 H43 0.931 . S
C27 C20 1.399 . S
C27 C24 1.487 . S
C27 N44 1.343 . S
H28 C0 0.931 . S
H29 C2 0.930 . S
H30 C4 0.930 . S
H31 C5 0.931 . S
H32 C7 0.931 . S
H33 C9 0.930 . S
H34 C11 0.930 . S
H35 C12 0.931 1_455 S
H36 C14 0.931 . S
H37 C16 0.930 . S
H38 C18 0.930 . S
H39 C19 0.931 . S
H40 C21 0.931 . S
H41 C23 0.930 . S
H42 C25 0.930 . S
H43 C26 0.931 . S
N44 C6 1.343 . S
N44 C27 1.343 . S
N45 C13 1.343 . S
N45 C20 1.343 . S
C46 C47 1.384 . S
C46 C48 1.384 . S
C46 H74 0.931 . S
C47 C46 1.384 . S
C47 C50 1.382 . S
C48 C46 1.384 . S
C48 C49 1.381 . S
C48 H75 0.930 . S
C49 C48 1.381 . S
C49 C51 1.381 . S
C49 C52 1.487 1_565 S
C50 C47 1.382 . S
C50 C51 1.387 . S
C50 H76 0.930 . S
C51 C49 1.381 . S
C51 C50 1.387 . S
C51 H77 0.931 . S
C52 C49 1.487 1_545 S
C52 C59 1.399 . S
C52 N90 1.343 . S
C53 C54 1.384 . S
C53 C55 1.384 . S
C53 H78 0.931 . S
C54 C53 1.384 . S
C54 C57 1.382 . S
C55 C53 1.384 . S
C55 C56 1.381 . S
C55 H79 0.930 . S
C56 C55 1.381 . S
C56 C58 1.381 . S
C56 C59 1.487 1_565 S
C57 C54 1.382 . S
C57 C58 1.387 . S
C57 H80 0.930 . S
C58 C56 1.381 . S
C58 C57 1.387 . S
C58 H81 0.931 1_565 S
C59 C52 1.399 . S
C59 C56 1.487 1_545 S
C59 N91 1.343 . S
C60 C61 1.384 . S
C60 C62 1.384 . S
C60 H82 0.931 . S
C61 C60 1.384 . S
C61 C64 1.382 . S
C62 C60 1.384 . S
C62 C63 1.381 . S
C62 H83 0.930 . S
C63 C62 1.381 . S
C63 C65 1.381 . S
C63 C66 1.487 . S
C64 C61 1.382 . S
C64 C65 1.387 . S
C64 H84 0.930 . S
C65 C63 1.381 . S
C65 C64 1.387 . S
C65 H85 0.931 . S
C66 C63 1.487 . S
C66 C73 1.399 . S
C66 N91 1.343 . S
C67 C68 1.384 . S
C67 C69 1.384 . S
C67 H86 0.931 . S
C68 C67 1.384 . S
C68 C71 1.382 . S
C69 C67 1.384 . S
C69 C70 1.381 . S
C69 H87 0.930 . S
C70 C69 1.381 . S
C70 C72 1.381 . S
C70 C73 1.487 . S
C71 C68 1.382 . S
C71 C72 1.387 . S
C71 H88 0.930 . S
C72 C70 1.381 . S
C72 C71 1.387 . S
C72 H89 0.931 . S
C73 C66 1.399 . S
C73 C70 1.487 . S
C73 N90 1.343 . S
H74 C46 0.931 . S
H75 C48 0.930 . S
H76 C50 0.930 . S
H77 C51 0.931 . S
H78 C53 0.931 . S
H79 C55 0.930 . S
H80 C57 0.930 . S
H81 C58 0.931 1_545 S
H82 C60 0.931 . S
H83 C62 0.930 . S
H84 C64 0.930 . S
H85 C65 0.931 . S
H86 C67 0.931 . S
H87 C69 0.930 . S
H88 C71 0.930 . S
H89 C72 0.931 . S
N90 C52 1.343 . S
N90 C73 1.343 . S
N91 C59 1.343 . S
N91 C66 1.343 . S
C92 C93 1.384 . S
C92 C94 1.384 . S
C92 H120 0.931 . S
C93 C92 1.384 . S
C93 C96 1.382 . S
C94 C92 1.384 . S
C94 C95 1.381 . S
C94 H121 0.930 . S
C95 C94 1.381 . S
C95 C97 1.381 . S
C95 C98 1.487 . S
C96 C93 1.382 . S
C96 C97 1.387 . S
C96 H122 0.930 . S
C97 C95 1.381 . S
C97 C96 1.387 . S
C97 H123 0.931 . S
C98 C95 1.487 . S
C98 C105 1.399 . S
C98 N136 1.343 . S
C99 C100 1.384 . S
C99 C101 1.384 . S
C99 H124 0.931 . S
C100 C99 1.384 . S
C100 C103 1.382 . S
C101 C99 1.384 . S
C101 C102 1.381 . S
C101 H125 0.930 . S
C102 C101 1.381 . S
C102 C104 1.381 . S
C102 C105 1.487 . S
C103 C100 1.382 . S
C103 C104 1.387 . S
C103 H126 0.930 . S
C104 C102 1.381 . S
C104 C103 1.387 . S
C104 H127 0.931 . S
C105 C98 1.399 . S
C105 C102 1.487 . S
C105 N137 1.343 . S
C106 C107 1.384 . S
C106 C108 1.384 . S
C106 H128 0.931 . S
C107 C106 1.384 . S
C107 C110 1.382 . S
C108 C106 1.384 . S
C108 C109 1.381 . S
C108 H129 0.930 . S
C109 C108 1.381 . S
C109 C111 1.381 . S
C109 C112 1.487 . S
C110 C107 1.382 . S
C110 C111 1.387 . S
C110 H130 0.930 . S
C111 C109 1.381 . S
C111 C110 1.387 . S
C111 H131 0.931 . S
C112 C109 1.487 . S
C112 C119 1.399 . S
C112 N137 1.343 . S
C113 C114 1.384 . S
C113 C115 1.384 . S
C113 H132 0.931 . S
C114 C113 1.384 . S
C114 C117 1.382 . S
C115 C113 1.384 . S
C115 C116 1.381 . S
C115 H133 0.930 . S
C116 C115 1.381 . S
C116 C118 1.381 . S
C116 C119 1.487 . S
C117 C114 1.382 . S
C117 C118 1.387 . S
C117 H134 0.930 . S
C118 C116 1.381 . S
C118 C117 1.387 . S
C118 H135 0.931 . S
C119 C112 1.399 . S
C119 C116 1.487 . S
C119 N136 1.343 . S
H120 C92 0.931 . S
H121 C94 0.930 . S
H122 C96 0.930 . S
H123 C97 0.931 . S
H124 C99 0.931 . S
H125 C101 0.930 . S
H126 C103 0.930 . S
H127 C104 0.931 . S
H128 C106 0.931 . S
H129 C108 0.930 . S
H130 C110 0.930 . S
H131 C111 0.931 . S
H132 C113 0.931 . S
H133 C115 0.930 . S
H134 C117 0.930 . S
H135 C118 0.931 . S
N136 C98 1.343 . S
N136 C119 1.343 . S
N137 C105 1.343 . S
N137 C112 1.343 . S
C138 C139 1.384 . S
C138 C140 1.384 . S
C138 H166 0.931 . S
C139 C138 1.384 . S
C139 C142 1.382 . S
C140 C138 1.384 . S
C140 C141 1.381 . S
C140 H167 0.930 . S
C141 C140 1.381 . S
C141 C143 1.381 . S
C141 C144 1.487 1_655 S
C142 C139 1.382 . S
C142 C143 1.387 . S
C142 H168 0.930 . S
C143 C141 1.381 . S
C143 C142 1.387 . S
C143 H169 0.931 . S
C144 C141 1.487 1_455 S
C144 C151 1.399 . S
C144 N182 1.343 . S
C145 C146 1.384 . S
C145 C147 1.384 . S
C145 H170 0.931 . S
C146 C145 1.384 . S
C146 C149 1.382 . S
C147 C145 1.384 . S
C147 C148 1.381 . S
C147 H171 0.930 . S
C148 C147 1.381 . S
C148 C150 1.381 . S
C148 C151 1.487 1_655 S
C149 C146 1.382 . S
C149 C150 1.387 . S
C149 H172 0.930 . S
C150 C148 1.381 . S
C150 C149 1.387 . S
C150 H173 0.931 1_655 S
C151 C144 1.399 . S
C151 C148 1.487 1_455 S
C151 N183 1.343 . S
C152 C153 1.384 . S
C152 C154 1.384 . S
C152 H174 0.931 . S
C153 C152 1.384 . S
C153 C156 1.382 . S
C154 C152 1.384 . S
C154 C155 1.381 . S
C154 H175 0.930 . S
C155 C154 1.381 . S
C155 C157 1.381 . S
C155 C158 1.487 . S
C156 C153 1.382 . S
C156 C157 1.387 . S
C156 H176 0.930 . S
C157 C155 1.381 . S
C157 C156 1.387 . S
C157 H177 0.931 . S
C158 C155 1.487 . S
C158 C165 1.399 . S
C158 N183 1.343 . S
C159 C160 1.384 . S
C159 C161 1.384 . S
C159 H178 0.931 . S
C160 C159 1.384 . S
C160 C163 1.382 . S
C161 C159 1.384 . S
C161 C162 1.381 . S
C161 H179 0.930 . S
C162 C161 1.381 . S
C162 C164 1.381 . S
C162 C165 1.487 . S
C163 C160 1.382 . S
C163 C164 1.387 . S
C163 H180 0.930 . S
C164 C162 1.381 . S
C164 C163 1.387 . S
C164 H181 0.931 . S
C165 C158 1.399 . S
C165 C162 1.487 . S
C165 N182 1.343 . S
H166 C138 0.931 . S
H167 C140 0.930 . S
H168 C142 0.930 . S
H169 C143 0.931 . S
H170 C145 0.931 . S
H171 C147 0.930 . S
H172 C149 0.930 . S
H173 C150 0.931 1_455 S
H174 C152 0.931 . S
H175 C154 0.930 . S
H176 C156 0.930 . S
H177 C157 0.931 . S
H178 C159 0.931 . S
H179 C161 0.930 . S
H180 C163 0.930 . S
H181 C164 0.931 . S
N182 C144 1.343 . S
N182 C165 1.343 . S
N183 C151 1.343 . S
N183 C158 1.343 . S
C184 C185 1.384 . S
C184 C186 1.384 . S
C184 H212 0.931 . S
C185 C184 1.384 . S
C185 C188 1.382 . S
C186 C184 1.384 . S
C186 C187 1.381 . S
C186 H213 0.931 1_556 S
C187 C186 1.381 . S
C187 C189 1.381 . S
C187 C190 1.487 1_565 S
C188 C185 1.382 . S
C188 C189 1.387 . S
C188 H214 0.930 . S
C189 C187 1.381 . S
C189 C188 1.387 . S
C189 H215 0.931 . S
C190 C187 1.487 1_545 S
C190 C197 1.399 1_556 S
C190 N228 1.343 . S
C191 C192 1.384 . S
C191 C193 1.384 . S
C191 H216 0.931 . S
C192 C191 1.384 . S
C192 C195 1.382 . S
C193 C191 1.384 . S
C193 C194 1.381 . S
C193 H217 0.930 . S
C194 C193 1.381 . S
C194 C196 1.381 . S
C194 C197 1.487 1_565 S
C195 C192 1.382 . S
C195 C196 1.387 . S
C195 H218 0.930 . S
C196 C194 1.381 . S
C196 C195 1.387 . S
C196 H219 0.931 1_565 S
C197 C190 1.399 1_554 S
C197 C194 1.487 1_545 S
C197 N229 1.343 . S
C198 C199 1.384 . S
C198 C200 1.384 1_554 S
C198 H220 0.919 1_554 S
C199 C198 1.384 . S
C199 C202 1.382 . S
C200 C198 1.384 1_556 S
C200 C201 1.381 1_556 S
C200 H221 0.930 . S
C201 C200 1.381 1_554 S
C201 C203 1.381 . S
C201 C204 1.487 1_554 S
C202 C199 1.382 . S
C202 C203 1.387 . S
C202 H222 0.930 . S
C203 C201 1.381 . S
C203 C202 1.387 . S
C203 H223 0.931 . S
C204 C201 1.487 1_556 S
C204 C211 1.399 . S
C204 N229 1.343 1_556 S
C205 C206 1.384 . S
C205 C207 1.384 . S
C205 H224 0.931 . S
C206 C205 1.384 . S
C206 C209 1.382 . S
C207 C205 1.384 . S
C207 C208 1.381 . S
C207 H225 0.930 . S
C208 C207 1.381 . S
C208 C210 1.381 . S
C208 C211 1.487 . S
C209 C206 1.382 . S
C209 C210 1.387 . S
C209 H226 0.930 . S
C210 C208 1.381 . S
C210 C209 1.387 . S
C210 H227 0.931 . S
C211 C204 1.399 . S
C211 C208 1.487 . S
C211 N228 1.343 . S
H212 C184 0.931 . S
H213 C186 0.931 1_554 S
H214 C188 0.930 . S
H215 C189 0.931 . S
H216 C191 0.931 . S
H217 C193 0.930 . S
H218 C195 0.930 . S
H219 C196 0.931 1_545 S
H220 C198 0.919 1_556 S
H221 C200 0.930 . S
H222 C202 0.930 . S
H223 C203 0.931 . S
H224 C205 0.931 . S
H225 C207 0.930 . S
H226 C209 0.930 . S
H227 C210 0.931 . S
N228 C190 1.343 . S
N228 C211 1.343 . S
N229 C197 1.343 . S
N229 C204 1.343 1_554 S
C230 C231 1.384 . S
C230 C232 1.384 . S
C230 H258 0.931 . S
C231 C230 1.384 . S
C231 C234 1.382 . S
C232 C230 1.384 . S
C232 C233 1.381 . S
C232 H259 0.930 . S
C233 C232 1.381 . S
C233 C235 1.381 . S
C233 C236 1.487 . S
C234 C231 1.382 . S
C234 C235 1.387 . S
C234 H260 0.930 . S
C235 C233 1.381 . S
C235 C234 1.387 . S
C235 H261 0.931 . S
C236 C233 1.487 . S
C236 C243 1.399 . S
C236 N274 1.343 . S
C237 C238 1.384 . S
C237 C239 1.384 . S
C237 H262 0.931 . S
C238 C237 1.384 . S
C238 C241 1.382 . S
C239 C237 1.384 . S
C239 C240 1.381 . S
C239 H263 0.930 . S
C240 C239 1.381 . S
C240 C242 1.381 . S
C240 C243 1.487 . S
C241 C238 1.382 . S
C241 C242 1.387 . S
C241 H264 0.930 . S
C242 C240 1.381 . S
C242 C241 1.387 . S
C242 H265 0.931 . S
C243 C236 1.399 . S
C243 C240 1.487 . S
C243 N275 1.343 . S
C244 C245 1.384 . S
C244 C246 1.384 . S
C244 H266 0.931 . S
C245 C244 1.384 . S
C245 C248 1.382 . S
C246 C244 1.384 . S
C246 C247 1.381 . S
C246 H267 0.930 . S
C247 C246 1.381 . S
C247 C249 1.381 . S
C247 C250 1.487 . S
C248 C245 1.382 . S
C248 C249 1.387 . S
C248 H268 0.930 . S
C249 C247 1.381 . S
C249 C248 1.387 . S
C249 H269 0.931 . S
C250 C247 1.487 . S
C250 C257 1.399 . S
C250 N275 1.343 . S
C251 C252 1.384 . S
C251 C253 1.384 . S
C251 H270 0.931 . S
C252 C251 1.384 . S
C252 C255 1.382 . S
C253 C251 1.384 . S
C253 C254 1.381 . S
C253 H271 0.930 . S
C254 C253 1.381 . S
C254 C256 1.381 . S
C254 C257 1.487 . S
C255 C252 1.382 . S
C255 C256 1.387 . S
C255 H272 0.930 . S
C256 C254 1.381 . S
C256 C255 1.387 . S
C256 H273 0.931 . S
C257 C250 1.399 . S
C257 C254 1.487 . S
C257 N274 1.343 . S
H258 C230 0.931 . S
H259 C232 0.930 . S
H260 C234 0.930 . S
H261 C235 0.931 . S
H262 C237 0.931 . S
H263 C239 0.930 . S
H264 C241 0.930 . S
H265 C242 0.931 . S
H266 C244 0.931 . S
H267 C246 0.930 . S
H268 C248 0.930 . S
H269 C249 0.931 . S
H270 C251 0.931 . S
H271 C253 0.930 . S
H272 C255 0.930 . S
H273 C256 0.931 . S
N274 C236 1.343 . S
N274 C257 1.343 . S
N275 C243 1.343 . S
N275 C250 1.343 . S
Li276 N293 1.990 . S
Li276 O336 1.956 . S
Li276 O337 1.970 . S
Li276 O338 1.961 . S
Li277 N301 1.990 . S
Li277 O336 1.970 . S
Li277 O337 1.956 . S
Li277 O339 1.961 . S
Li278 N323 1.990 . S
Li278 O336 1.961 . S
Li278 O338 1.956 . S
Li278 O339 1.970 . S
Li279 N329 1.990 . S
Li279 O337 1.961 . S
Li279 O338 1.970 . S
Li279 O339 1.956 . S
C280 C282 1.348 . S
C280 C283 1.356 . S
C280 O336 1.325 . S
N281 C284 1.314 . S
N281 C285 1.279 . S
C282 C280 1.348 . S
C282 C284 1.353 . S
C282 H340 0.929 . S
C283 C280 1.356 . S
C283 C285 1.358 . S
C283 H341 0.930 . S
C284 N281 1.314 . S
C284 C282 1.353 . S
C284 H342 0.930 . S
C285 N281 1.279 . S
C285 C283 1.358 . S
C285 H343 0.930 . S
C286 C289 1.348 . S
C286 C290 1.356 . S
C286 O337 1.325 . S
C287 N288 1.279 . S
C287 C290 1.358 . S
C287 H344 0.930 . S
N288 C287 1.279 . S
N288 C291 1.314 . S
C289 C286 1.348 . S
C289 C291 1.353 . S
C289 H345 0.929 . S
C290 C286 1.356 . S
C290 C287 1.358 . S
C290 H346 0.930 . S
C291 N288 1.314 . S
C291 C289 1.353 . S
C291 H347 0.930 . S
C292 N293 1.314 . S
C292 C297 1.353 . S
C292 H298 0.930 . S
N293 Li276 1.990 . S
N293 C292 1.314 . S
N293 C295 1.279 . S
C294 C295 1.358 . S
C294 C296 1.356 . S
C294 H348 0.930 . S
C295 N293 1.279 . S
C295 C294 1.358 . S
C295 H299 0.930 . S
C296 C294 1.356 . S
C296 C297 1.348 . S
C297 C292 1.353 . S
C297 C296 1.348 . S
C297 H349 0.929 . S
H298 C292 0.930 . S
H299 C295 0.930 . S
C300 N301 1.314 . S
C300 C302 1.353 . S
C300 H306 0.930 . S
N301 Li277 1.990 . S
N301 C300 1.314 . S
N301 C304 1.279 . S
C302 C300 1.353 . S
C302 C305 1.348 . S
C302 H350 0.929 . S
C303 C304 1.358 . S
C303 C305 1.356 . S
C303 H351 0.930 . S
C304 N301 1.279 . S
C304 C303 1.358 . S
C304 H307 0.930 . S
C305 C302 1.348 . S
C305 C303 1.356 . S
H306 C300 0.930 . S
H307 C304 0.930 . S
C308 C310 1.348 . S
C308 C311 1.356 . S
C308 O338 1.325 . S
N309 C312 1.314 . S
N309 C313 1.279 . S
C310 C308 1.348 . S
C310 C312 1.353 . S
C310 H352 0.929 . S
C311 C308 1.356 . S
C311 C313 1.358 . S
C311 H353 0.930 . S
C312 N309 1.314 . S
C312 C310 1.353 . S
C312 H354 0.930 . S
C313 N309 1.279 . S
C313 C311 1.358 . S
C313 H355 0.930 . S
C314 C315 1.348 . S
C314 C316 1.356 . S
C314 O339 1.325 . S
C315 C314 1.348 . S
C315 C317 1.353 . S
C315 H356 0.929 . S
C316 C314 1.356 . S
C316 C318 1.358 . S
C316 H357 0.930 . S
C317 C315 1.353 . S
C317 N319 1.314 . S
C317 H358 0.930 . S
C318 C316 1.358 . S
C318 N319 1.279 . S
C318 H359 0.930 . S
N319 C317 1.314 . S
N319 C318 1.279 . S
C320 C322 1.353 . S
C320 N323 1.314 . S
C320 H326 0.930 . S
C321 N323 1.279 . S
C321 C324 1.358 . S
C321 H327 0.930 . S
C322 C320 1.353 . S
C322 C325 1.348 . S
C322 H360 0.929 . S
N323 Li278 1.990 . S
N323 C320 1.314 . S
N323 C321 1.279 . S
C324 C321 1.358 . S
C324 C325 1.356 . S
C324 H361 0.930 . S
C325 C322 1.348 . S
C325 C324 1.356 . S
H326 C320 0.930 . S
H327 C321 0.930 . S
C328 N329 1.314 . S
C328 C330 1.353 . S
C328 H334 0.930 . S
N329 Li279 1.990 . S
N329 C328 1.314 . S
N329 C332 1.279 . S
C330 C328 1.353 . S
C330 C333 1.348 . S
C330 H362 0.929 . S
C331 C332 1.358 . S
C331 C333 1.356 . S
C331 H363 0.930 . S
C332 N329 1.279 . S
C332 C331 1.358 . S
C332 H335 0.930 . S
C333 C330 1.348 . S
C333 C331 1.356 . S
H334 C328 0.930 . S
H335 C332 0.930 . S
O336 Li276 1.956 . S
O336 Li277 1.970 . S
O336 Li278 1.961 . S
O336 C280 1.325 . S
O337 Li276 1.970 . S
O337 Li277 1.956 . S
O337 Li279 1.961 . S
O337 C286 1.325 . S
O338 Li276 1.961 . S
O338 Li278 1.956 . S
O338 Li279 1.970 . S
O338 C308 1.325 . S
O339 Li277 1.961 . S
O339 Li278 1.970 . S
O339 Li279 1.956 . S
O339 C314 1.325 . S
H340 C282 0.929 . S
H341 C283 0.930 . S
H342 C284 0.930 . S
H343 C285 0.930 . S
H344 C287 0.930 . S
H345 C289 0.929 . S
H346 C290 0.930 . S
H347 C291 0.930 . S
H348 C294 0.930 . S
H349 C297 0.929 . S
H350 C302 0.929 . S
H351 C303 0.930 . S
H352 C310 0.929 . S
H353 C311 0.930 . S
H354 C312 0.930 . S
H355 C313 0.930 . S
H356 C315 0.929 . S
H357 C316 0.930 . S
H358 C317 0.930 . S
H359 C318 0.930 . S
H360 C322 0.929 . S
H361 C324 0.930 . S
H362 C330 0.929 . S
H363 C331 0.930 . S
Li364 N381 1.990 . S
Li364 O424 1.956 . S
Li364 O425 1.970 . S
Li364 O426 1.961 . S
Li365 N389 1.990 . S
Li365 O424 1.970 . S
Li365 O425 1.956 . S
Li365 O427 1.961 . S
Li366 N411 1.990 . S
Li366 O424 1.961 . S
Li366 O426 1.956 . S
Li366 O427 1.970 . S
Li367 N417 1.990 . S
Li367 O425 1.961 . S
Li367 O426 1.970 . S
Li367 O427 1.956 . S
C368 C370 1.348 . S
C368 C371 1.356 . S
C368 O424 1.325 . S
N369 C372 1.314 . S
N369 C373 1.279 . S
C370 C368 1.348 . S
C370 C372 1.353 . S
C370 H428 0.929 . S
C371 C368 1.356 . S
C371 C373 1.358 . S
C371 H429 0.930 . S
C372 N369 1.314 . S
C372 C370 1.353 . S
C372 H430 0.930 . S
C373 N369 1.279 . S
C373 C371 1.358 . S
C373 H431 0.930 . S
C374 C377 1.348 . S
C374 C378 1.356 . S
C374 O425 1.325 . S
C375 N376 1.279 . S
C375 C378 1.358 . S
C375 H432 0.930 . S
N376 C375 1.279 . S
N376 C379 1.314 . S
C377 C374 1.348 . S
C377 C379 1.353 . S
C377 H433 0.929 . S
C378 C374 1.356 . S
C378 C375 1.358 . S
C378 H434 0.930 . S
C379 N376 1.314 . S
C379 C377 1.353 . S
C379 H435 0.930 . S
C380 N381 1.314 . S
C380 C385 1.353 . S
C380 H386 0.930 . S
N381 Li364 1.990 . S
N381 C380 1.314 . S
N381 C383 1.279 . S
C382 C383 1.358 . S
C382 C384 1.356 . S
C382 H436 0.930 . S
C383 N381 1.279 . S
C383 C382 1.358 . S
C383 H387 0.930 . S
C384 C382 1.356 . S
C384 C385 1.348 . S
C385 C380 1.353 . S
C385 C384 1.348 . S
C385 H437 0.929 . S
H386 C380 0.930 . S
H387 C383 0.930 . S
C388 N389 1.314 . S
C388 C390 1.353 . S
C388 H394 0.930 . S
N389 Li365 1.990 . S
N389 C388 1.314 . S
N389 C392 1.279 . S
C390 C388 1.353 . S
C390 C393 1.348 . S
C390 H438 0.929 . S
C391 C392 1.358 . S
C391 C393 1.356 . S
C391 H439 0.930 . S
C392 N389 1.279 . S
C392 C391 1.358 . S
C392 H395 0.930 . S
C393 C390 1.348 . S
C393 C391 1.356 . S
H394 C388 0.930 . S
H395 C392 0.930 . S
C396 C398 1.348 . S
C396 C399 1.356 . S
C396 O426 1.325 . S
N397 C400 1.314 . S
N397 C401 1.279 . S
C398 C396 1.348 . S
C398 C400 1.353 . S
C398 H440 0.929 . S
C399 C396 1.356 . S
C399 C401 1.358 . S
C399 H441 0.930 . S
C400 N397 1.314 . S
C400 C398 1.353 . S
C400 H442 0.930 . S
C401 N397 1.279 . S
C401 C399 1.358 . S
C401 H443 0.930 . S
C402 C403 1.348 . S
C402 C404 1.356 . S
C402 O427 1.325 . S
C403 C402 1.348 . S
C403 C405 1.353 . S
C403 H444 0.929 . S
C404 C402 1.356 . S
C404 C406 1.358 . S
C404 H445 0.930 . S
C405 C403 1.353 . S
C405 N407 1.314 . S
C405 H446 0.930 . S
C406 C404 1.358 . S
C406 N407 1.279 . S
C406 H447 0.930 . S
N407 C405 1.314 . S
N407 C406 1.279 . S
C408 C410 1.353 . S
C408 N411 1.314 . S
C408 H414 0.930 . S
C409 N411 1.279 . S
C409 C412 1.358 . S
C409 H415 0.930 . S
C410 C408 1.353 . S
C410 C413 1.348 . S
C410 H448 0.929 . S
N411 Li366 1.990 . S
N411 C408 1.314 . S
N411 C409 1.279 . S
C412 C409 1.358 . S
C412 C413 1.356 . S
C412 H449 0.930 . S
C413 C410 1.348 . S
C413 C412 1.356 . S
H414 C408 0.930 . S
H415 C409 0.930 . S
C416 N417 1.314 . S
C416 C418 1.353 . S
C416 H422 0.930 . S
N417 Li367 1.990 . S
N417 C416 1.314 . S
N417 C420 1.279 . S
C418 C416 1.353 . S
C418 C421 1.348 . S
C418 H450 0.929 . S
C419 C420 1.358 . S
C419 C421 1.356 . S
C419 H451 0.930 . S
C420 N417 1.279 . S
C420 C419 1.358 . S
C420 H423 0.930 . S
C421 C418 1.348 . S
C421 C419 1.356 . S
H422 C416 0.930 . S
H423 C420 0.930 . S
O424 Li364 1.956 . S
O424 Li365 1.970 . S
O424 Li366 1.961 . S
O424 C368 1.325 . S
O425 Li364 1.970 . S
O425 Li365 1.956 . S
O425 Li367 1.961 . S
O425 C374 1.325 . S
O426 Li364 1.961 . S
O426 Li366 1.956 . S
O426 Li367 1.970 . S
O426 C396 1.325 . S
O427 Li365 1.961 . S
O427 Li366 1.970 . S
O427 Li367 1.956 . S
O427 C402 1.325 . S
H428 C370 0.929 . S
H429 C371 0.930 . S
H430 C372 0.930 . S
H431 C373 0.930 . S
H432 C375 0.930 . S
H433 C377 0.929 . S
H434 C378 0.930 . S
H435 C379 0.930 . S
H436 C382 0.930 . S
H437 C385 0.929 . S
H438 C390 0.929 . S
H439 C391 0.930 . S
H440 C398 0.929 . S
H441 C399 0.930 . S
H442 C400 0.930 . S
H443 C401 0.930 . S
H444 C403 0.929 . S
H445 C404 0.930 . S
H446 C405 0.930 . S
H447 C406 0.930 . S
H448 C410 0.929 . S
H449 C412 0.930 . S
H450 C418 0.929 . S
H451 C419 0.930 . S
Li452 N469 1.990 . S
Li452 O512 1.956 . S
Li452 O513 1.970 . S
Li452 O514 1.961 . S
Li453 N477 1.990 . S
Li453 O512 1.970 . S
Li453 O513 1.956 . S
Li453 O515 1.961 . S
Li454 N499 1.990 . S
Li454 O512 1.961 . S
Li454 O514 1.956 . S
Li454 O515 1.970 . S
Li455 N505 1.990 . S
Li455 O513 1.961 . S
Li455 O514 1.970 . S
Li455 O515 1.956 . S
C456 C458 1.348 . S
C456 C459 1.356 . S
C456 O512 1.325 . S
N457 C460 1.314 . S
N457 C461 1.279 . S
C458 C456 1.348 . S
C458 C460 1.353 . S
C458 H516 0.929 . S
C459 C456 1.356 . S
C459 C461 1.358 . S
C459 H517 0.930 . S
C460 N457 1.314 . S
C460 C458 1.353 . S
C460 H518 0.930 . S
C461 N457 1.279 . S
C461 C459 1.358 . S
C461 H519 0.930 . S
C462 C465 1.348 . S
C462 C466 1.356 . S
C462 O513 1.325 . S
C463 N464 1.279 . S
C463 C466 1.358 . S
C463 H520 0.930 . S
N464 C463 1.279 . S
N464 C467 1.314 . S
C465 C462 1.348 . S
C465 C467 1.353 . S
C465 H521 0.929 . S
C466 C462 1.356 . S
C466 C463 1.358 . S
C466 H522 0.930 . S
C467 N464 1.314 . S
C467 C465 1.353 . S
C467 H523 0.930 . S
C468 N469 1.314 . S
C468 C473 1.353 . S
C468 H474 0.930 . S
N469 Li452 1.990 . S
N469 C468 1.314 . S
N469 C471 1.279 . S
C470 C471 1.358 . S
C470 C472 1.356 . S
C470 H524 0.930 . S
C471 N469 1.279 . S
C471 C470 1.358 . S
C471 H475 0.930 . S
C472 C470 1.356 . S
C472 C473 1.348 . S
C473 C468 1.353 . S
C473 C472 1.348 . S
C473 H525 0.929 . S
H474 C468 0.930 . S
H475 C471 0.930 . S
C476 N477 1.314 . S
C476 C478 1.353 . S
C476 H482 0.930 . S
N477 Li453 1.990 . S
N477 C476 1.314 . S
N477 C480 1.279 . S
C478 C476 1.353 . S
C478 C481 1.348 . S
C478 H526 0.929 . S
C479 C480 1.358 . S
C479 C481 1.356 . S
C479 H527 0.930 . S
C480 N477 1.279 . S
C480 C479 1.358 . S
C480 H483 0.930 . S
C481 C478 1.348 . S
C481 C479 1.356 . S
H482 C476 0.930 . S
H483 C480 0.930 . S
C484 C486 1.348 . S
C484 C487 1.356 . S
C484 O514 1.325 . S
N485 C488 1.314 . S
N485 C489 1.279 . S
C486 C484 1.348 . S
C486 C488 1.353 . S
C486 H528 0.929 . S
C487 C484 1.356 . S
C487 C489 1.358 . S
C487 H529 0.930 . S
C488 N485 1.314 . S
C488 C486 1.353 . S
C488 H530 0.930 . S
C489 N485 1.279 . S
C489 C487 1.358 . S
C489 H531 0.930 . S
C490 C491 1.348 . S
C490 C492 1.356 . S
C490 O515 1.325 . S
C491 C490 1.348 . S
C491 C493 1.353 . S
C491 H532 0.929 . S
C492 C490 1.356 . S
C492 C494 1.358 . S
C492 H533 0.930 . S
C493 C491 1.353 . S
C493 N495 1.314 . S
C493 H534 0.930 . S
C494 C492 1.358 . S
C494 N495 1.279 . S
C494 H535 0.930 . S
N495 C493 1.314 . S
N495 C494 1.279 . S
C496 C498 1.353 . S
C496 N499 1.314 . S
C496 H502 0.930 . S
C497 N499 1.279 . S
C497 C500 1.358 . S
C497 H503 0.930 . S
C498 C496 1.353 . S
C498 C501 1.348 . S
C498 H536 0.929 . S
N499 Li454 1.990 . S
N499 C496 1.314 . S
N499 C497 1.279 . S
C500 C497 1.358 . S
C500 C501 1.356 . S
C500 H537 0.930 . S
C501 C498 1.348 . S
C501 C500 1.356 . S
H502 C496 0.930 . S
H503 C497 0.930 . S
C504 N505 1.314 . S
C504 C506 1.353 . S
C504 H510 0.930 . S
N505 Li455 1.990 . S
N505 C504 1.314 . S
N505 C508 1.279 . S
C506 C504 1.353 . S
C506 C509 1.348 . S
C506 H538 0.929 . S
C507 C508 1.358 . S
C507 C509 1.356 . S
C507 H539 0.930 . S
C508 N505 1.279 . S
C508 C507 1.358 . S
C508 H511 0.930 . S
C509 C506 1.348 . S
C509 C507 1.356 . S
H510 C504 0.930 . S
H511 C508 0.930 . S
O512 Li452 1.956 . S
O512 Li453 1.970 . S
O512 Li454 1.961 . S
O512 C456 1.325 . S
O513 Li452 1.970 . S
O513 Li453 1.956 . S
O513 Li455 1.961 . S
O513 C462 1.325 . S
O514 Li452 1.961 . S
O514 Li454 1.956 . S
O514 Li455 1.970 . S
O514 C484 1.325 . S
O515 Li453 1.961 . S
O515 Li454 1.970 . S
O515 Li455 1.956 . S
O515 C490 1.325 . S
H516 C458 0.929 . S
H517 C459 0.930 . S
H518 C460 0.930 . S
H519 C461 0.930 . S
H520 C463 0.930 . S
H521 C465 0.929 . S
H522 C466 0.930 . S
H523 C467 0.930 . S
H524 C470 0.930 . S
H525 C473 0.929 . S
H526 C478 0.929 . S
H527 C479 0.930 . S
H528 C486 0.929 . S
H529 C487 0.930 . S
H530 C488 0.930 . S
H531 C489 0.930 . S
H532 C491 0.929 . S
H533 C492 0.930 . S
H534 C493 0.930 . S
H535 C494 0.930 . S
H536 C498 0.929 . S
H537 C500 0.930 . S
H538 C506 0.929 . S
H539 C507 0.930 . S
Li540 N557 1.990 . S
Li540 O600 1.956 . S
Li540 O601 1.970 . S
Li540 O602 1.961 . S
Li541 N565 1.990 . S
Li541 O600 1.970 . S
Li541 O601 1.956 . S
Li541 O603 1.961 . S
Li542 N587 1.990 . S
Li542 O600 1.961 . S
Li542 O602 1.956 . S
Li542 O603 1.970 . S
Li543 N593 1.990 . S
Li543 O601 1.961 . S
Li543 O602 1.970 . S
Li543 O603 1.956 . S
C544 C546 1.348 . S
C544 C547 1.356 . S
C544 O600 1.325 . S
N545 C548 1.314 . S
N545 C549 1.279 . S
C546 C544 1.348 . S
C546 C548 1.353 . S
C546 H604 0.929 . S
C547 C544 1.356 . S
C547 C549 1.358 . S
C547 H605 0.930 . S
C548 N545 1.314 . S
C548 C546 1.353 . S
C548 H606 0.930 . S
C549 N545 1.279 . S
C549 C547 1.358 . S
C549 H607 0.930 . S
C550 C553 1.348 . S
C550 C554 1.356 . S
C550 O601 1.325 . S
C551 N552 1.279 . S
C551 C554 1.358 . S
C551 H608 0.930 . S
N552 C551 1.279 . S
N552 C555 1.314 . S
C553 C550 1.348 . S
C553 C555 1.353 . S
C553 H609 0.929 . S
C554 C550 1.356 . S
C554 C551 1.358 . S
C554 H610 0.930 . S
C555 N552 1.314 . S
C555 C553 1.353 . S
C555 H611 0.930 . S
C556 N557 1.314 . S
C556 C561 1.353 . S
C556 H562 0.930 . S
N557 Li540 1.990 . S
N557 C556 1.314 . S
N557 C559 1.279 . S
C558 C559 1.358 . S
C558 C560 1.356 . S
C558 H612 0.930 . S
C559 N557 1.279 . S
C559 C558 1.358 . S
C559 H563 0.930 . S
C560 C558 1.356 . S
C560 C561 1.348 . S
C561 C556 1.353 . S
C561 C560 1.348 . S
C561 H613 0.929 . S
H562 C556 0.930 . S
H563 C559 0.930 . S
C564 N565 1.314 . S
C564 C566 1.353 . S
C564 H570 0.930 . S
N565 Li541 1.990 . S
N565 C564 1.314 . S
N565 C568 1.279 . S
C566 C564 1.353 . S
C566 C569 1.348 . S
C566 H614 0.929 . S
C567 C568 1.358 . S
C567 C569 1.356 . S
C567 H615 0.930 . S
C568 N565 1.279 . S
C568 C567 1.358 . S
C568 H571 0.930 . S
C569 C566 1.348 . S
C569 C567 1.356 . S
H570 C564 0.930 . S
H571 C568 0.930 . S
C572 C574 1.348 . S
C572 C575 1.356 . S
C572 O602 1.325 . S
N573 C576 1.314 . S
N573 C577 1.279 . S
C574 C572 1.348 . S
C574 C576 1.353 . S
C574 H616 0.929 . S
C575 C572 1.356 . S
C575 C577 1.358 . S
C575 H617 0.930 . S
C576 N573 1.314 . S
C576 C574 1.353 . S
C576 H618 0.930 . S
C577 N573 1.279 . S
C577 C575 1.358 . S
C577 H619 0.930 . S
C578 C579 1.348 . S
C578 C580 1.356 . S
C578 O603 1.325 . S
C579 C578 1.348 . S
C579 C581 1.353 . S
C579 H620 0.929 . S
C580 C578 1.356 . S
C580 C582 1.358 . S
C580 H621 0.930 . S
C581 C579 1.353 . S
C581 N583 1.314 . S
C581 H622 0.930 . S
C582 C580 1.358 . S
C582 N583 1.279 . S
C582 H623 0.930 . S
N583 C581 1.314 . S
N583 C582 1.279 . S
C584 C586 1.353 . S
C584 N587 1.314 . S
C584 H590 0.930 . S
C585 N587 1.279 . S
C585 C588 1.358 . S
C585 H591 0.930 . S
C586 C584 1.353 . S
C586 C589 1.348 . S
C586 H624 0.929 . S
N587 Li542 1.990 . S
N587 C584 1.314 . S
N587 C585 1.279 . S
C588 C585 1.358 . S
C588 C589 1.356 . S
C588 H625 0.930 . S
C589 C586 1.348 . S
C589 C588 1.356 . S
H590 C584 0.930 . S
H591 C585 0.930 . S
C592 N593 1.314 . S
C592 C594 1.353 . S
C592 H598 0.930 . S
N593 Li543 1.990 . S
N593 C592 1.314 . S
N593 C596 1.279 . S
C594 C592 1.353 . S
C594 C597 1.348 . S
C594 H626 0.929 . S
C595 C596 1.358 . S
C595 C597 1.356 . S
C595 H627 0.930 . S
C596 N593 1.279 . S
C596 C595 1.358 . S
C596 H599 0.930 . S
C597 C594 1.348 . S
C597 C595 1.356 . S
H598 C592 0.930 . S
H599 C596 0.930 . S
O600 Li540 1.956 . S
O600 Li541 1.970 . S
O600 Li542 1.961 . S
O600 C544 1.325 . S
O601 Li540 1.970 . S
O601 Li541 1.956 . S
O601 Li543 1.961 . S
O601 C550 1.325 . S
O602 Li540 1.961 . S
O602 Li542 1.956 . S
O602 Li543 1.970 . S
O602 C572 1.325 . S
O603 Li541 1.961 . S
O603 Li542 1.970 . S
O603 Li543 1.956 . S
O603 C578 1.325 . S
H604 C546 0.929 . S
H605 C547 0.930 . S
H606 C548 0.930 . S
H607 C549 0.930 . S
H608 C551 0.930 . S
H609 C553 0.929 . S
H610 C554 0.930 . S
H611 C555 0.930 . S
H612 C558 0.930 . S
H613 C561 0.929 . S
H614 C566 0.929 . S
H615 C567 0.930 . S
H616 C574 0.929 . S
H617 C575 0.930 . S
H618 C576 0.930 . S
H619 C577 0.930 . S
H620 C579 0.929 . S
H621 C580 0.930 . S
H622 C581 0.930 . S
H623 C582 0.930 . S
H624 C586 0.929 . S
H625 C588 0.930 . S
H626 C594 0.929 . S
H627 C595 0.930 . S
Li628 N645 1.990 . S
Li628 O688 1.956 . S
Li628 O689 1.970 . S
Li628 O690 1.961 . S
Li629 N653 1.990 . S
Li629 O688 1.970 . S
Li629 O689 1.956 . S
Li629 O691 1.961 . S
Li630 N675 1.990 . S
Li630 O688 1.961 . S
Li630 O690 1.956 . S
Li630 O691 1.970 . S
Li631 N681 1.990 . S
Li631 O689 1.961 . S
Li631 O690 1.970 . S
Li631 O691 1.956 . S
C632 C634 1.348 . S
C632 C635 1.356 . S
C632 O688 1.325 . S
N633 C636 1.314 . S
N633 C637 1.279 . S
C634 C632 1.348 . S
C634 C636 1.353 . S
C634 H692 0.929 . S
C635 C632 1.356 . S
C635 C637 1.358 . S
C635 H693 0.930 . S
C636 N633 1.314 . S
C636 C634 1.353 . S
C636 H694 0.930 . S
C637 N633 1.279 . S
C637 C635 1.358 . S
C637 H695 0.930 . S
C638 C641 1.348 . S
C638 C642 1.356 . S
C638 O689 1.325 . S
C639 N640 1.279 . S
C639 C642 1.358 . S
C639 H696 0.930 . S
N640 C639 1.279 . S
N640 C643 1.314 . S
C641 C638 1.348 . S
C641 C643 1.353 . S
C641 H697 0.929 . S
C642 C638 1.356 . S
C642 C639 1.358 . S
C642 H698 0.930 . S
C643 N640 1.314 . S
C643 C641 1.353 . S
C643 H699 0.930 . S
C644 N645 1.314 . S
C644 C649 1.353 . S
C644 H650 0.930 . S
N645 Li628 1.990 . S
N645 C644 1.314 . S
N645 C647 1.279 . S
C646 C647 1.358 . S
C646 C648 1.356 . S
C646 H700 0.930 . S
C647 N645 1.279 . S
C647 C646 1.358 . S
C647 H651 0.930 . S
C648 C646 1.356 . S
C648 C649 1.348 . S
C649 C644 1.353 . S
C649 C648 1.348 . S
C649 H701 0.929 . S
H650 C644 0.930 . S
H651 C647 0.930 . S
C652 N653 1.314 . S
C652 C654 1.353 . S
C652 H658 0.930 . S
N653 Li629 1.990 . S
N653 C652 1.314 . S
N653 C656 1.279 . S
C654 C652 1.353 . S
C654 C657 1.348 . S
C654 H702 0.929 . S
C655 C656 1.358 . S
C655 C657 1.356 . S
C655 H703 0.930 . S
C656 N653 1.279 . S
C656 C655 1.358 . S
C656 H659 0.930 . S
C657 C654 1.348 . S
C657 C655 1.356 . S
H658 C652 0.930 . S
H659 C656 0.930 . S
C660 C662 1.348 . S
C660 C663 1.356 . S
C660 O690 1.325 . S
N661 C664 1.314 . S
N661 C665 1.279 . S
C662 C660 1.348 . S
C662 C664 1.353 . S
C662 H704 0.929 . S
C663 C660 1.356 . S
C663 C665 1.358 . S
C663 H705 0.930 . S
C664 N661 1.314 . S
C664 C662 1.353 . S
C664 H706 0.930 . S
C665 N661 1.279 . S
C665 C663 1.358 . S
C665 H707 0.930 . S
C666 C667 1.348 . S
C666 C668 1.356 . S
C666 O691 1.325 . S
C667 C666 1.348 . S
C667 C669 1.353 . S
C667 H708 0.929 . S
C668 C666 1.356 . S
C668 C670 1.358 . S
C668 H709 0.930 . S
C669 C667 1.353 . S
C669 N671 1.314 . S
C669 H710 0.930 . S
C670 C668 1.358 . S
C670 N671 1.279 . S
C670 H711 0.930 . S
N671 C669 1.314 . S
N671 C670 1.279 . S
C672 C674 1.353 . S
C672 N675 1.314 . S
C672 H678 0.930 . S
C673 N675 1.279 . S
C673 C676 1.358 . S
C673 H679 0.930 . S
C674 C672 1.353 . S
C674 C677 1.348 . S
C674 H712 0.929 . S
N675 Li630 1.990 . S
N675 C672 1.314 . S
N675 C673 1.279 . S
C676 C673 1.358 . S
C676 C677 1.356 . S
C676 H713 0.930 . S
C677 C674 1.348 . S
C677 C676 1.356 . S
H678 C672 0.930 . S
H679 C673 0.930 . S
C680 N681 1.314 . S
C680 C682 1.353 . S
C680 H686 0.930 . S
N681 Li631 1.990 . S
N681 C680 1.314 . S
N681 C684 1.279 . S
C682 C680 1.353 . S
C682 C685 1.348 . S
C682 H714 0.929 . S
C683 C684 1.358 . S
C683 C685 1.356 . S
C683 H715 0.930 . S
C684 N681 1.279 . S
C684 C683 1.358 . S
C684 H687 0.930 . S
C685 C682 1.348 . S
C685 C683 1.356 . S
H686 C680 0.930 . S
H687 C684 0.930 . S
O688 Li628 1.956 . S
O688 Li629 1.970 . S
O688 Li630 1.961 . S
O688 C632 1.325 . S
O689 Li628 1.970 . S
O689 Li629 1.956 . S
O689 Li631 1.961 . S
O689 C638 1.325 . S
O690 Li628 1.961 . S
O690 Li630 1.956 . S
O690 Li631 1.970 . S
O690 C660 1.325 . S
O691 Li629 1.961 . S
O691 Li630 1.970 . S
O691 Li631 1.956 . S
O691 C666 1.325 . S
H692 C634 0.929 . S
H693 C635 0.930 . S
H694 C636 0.930 . S
H695 C637 0.930 . S
H696 C639 0.930 . S
H697 C641 0.929 . S
H698 C642 0.930 . S
H699 C643 0.930 . S
H700 C646 0.930 . S
H701 C649 0.929 . S
H702 C654 0.929 . S
H703 C655 0.930 . S
H704 C662 0.929 . S
H705 C663 0.930 . S
H706 C664 0.930 . S
H707 C665 0.930 . S
H708 C667 0.929 . S
H709 C668 0.930 . S
H710 C669 0.930 . S
H711 C670 0.930 . S
H712 C674 0.929 . S
H713 C676 0.930 . S
H714 C682 0.929 . S
H715 C683 0.930 . S
Li716 N733 1.990 . S
Li716 O776 1.956 . S
Li716 O777 1.970 . S
Li716 O778 1.961 . S
Li717 N741 1.990 . S
Li717 O776 1.970 . S
Li717 O777 1.956 . S
Li717 O779 1.961 . S
Li718 N763 1.990 . S
Li718 O776 1.961 . S
Li718 O778 1.956 . S
Li718 O779 1.970 . S
Li719 N769 1.990 . S
Li719 O777 1.961 . S
Li719 O778 1.970 . S
Li719 O779 1.956 . S
C720 C722 1.348 . S
C720 C723 1.356 . S
C720 O776 1.325 . S
N721 C724 1.314 . S
N721 C725 1.279 . S
C722 C720 1.348 . S
C722 C724 1.353 . S
C722 H780 0.929 . S
C723 C720 1.356 . S
C723 C725 1.358 . S
C723 H781 0.930 . S
C724 N721 1.314 . S
C724 C722 1.353 . S
C724 H782 0.930 . S
C725 N721 1.279 . S
C725 C723 1.358 . S
C725 H783 0.930 . S
C726 C729 1.348 . S
C726 C730 1.356 . S
C726 O777 1.325 . S
C727 N728 1.279 . S
C727 C730 1.358 . S
C727 H784 0.930 . S
N728 C727 1.279 . S
N728 C731 1.314 . S
C729 C726 1.348 . S
C729 C731 1.353 . S
C729 H785 0.929 . S
C730 C726 1.356 . S
C730 C727 1.358 . S
C730 H786 0.930 . S
C731 N728 1.314 . S
C731 C729 1.353 . S
C731 H787 0.930 . S
C732 N733 1.314 . S
C732 C737 1.353 . S
C732 H738 0.930 . S
N733 Li716 1.990 . S
N733 C732 1.314 . S
N733 C735 1.279 . S
C734 C735 1.358 . S
C734 C736 1.356 . S
C734 H788 0.930 . S
C735 N733 1.279 . S
C735 C734 1.358 . S
C735 H739 0.930 . S
C736 C734 1.356 . S
C736 C737 1.348 . S
C737 C732 1.353 . S
C737 C736 1.348 . S
C737 H789 0.929 . S
H738 C732 0.930 . S
H739 C735 0.930 . S
C740 N741 1.314 . S
C740 C742 1.353 . S
C740 H746 0.930 . S
N741 Li717 1.990 . S
N741 C740 1.314 . S
N741 C744 1.279 . S
C742 C740 1.353 . S
C742 C745 1.348 . S
C742 H790 0.929 . S
C743 C744 1.358 . S
C743 C745 1.356 . S
C743 H791 0.930 . S
C744 N741 1.279 . S
C744 C743 1.358 . S
C744 H747 0.930 . S
C745 C742 1.348 . S
C745 C743 1.356 . S
H746 C740 0.930 . S
H747 C744 0.930 . S
C748 C750 1.348 . S
C748 C751 1.356 . S
C748 O778 1.325 . S
N749 C752 1.314 . S
N749 C753 1.279 . S
C750 C748 1.348 . S
C750 C752 1.353 . S
C750 H792 0.929 . S
C751 C748 1.356 . S
C751 C753 1.358 . S
C751 H793 0.930 . S
C752 N749 1.314 . S
C752 C750 1.353 . S
C752 H794 0.930 . S
C753 N749 1.279 . S
C753 C751 1.358 . S
C753 H795 0.930 . S
C754 C755 1.348 . S
C754 C756 1.356 . S
C754 O779 1.325 . S
C755 C754 1.348 . S
C755 C757 1.353 . S
C755 H796 0.929 . S
C756 C754 1.356 . S
C756 C758 1.358 . S
C756 H797 0.930 . S
C757 C755 1.353 . S
C757 N759 1.314 . S
C757 H798 0.930 . S
C758 C756 1.358 . S
C758 N759 1.279 . S
C758 H799 0.930 . S
N759 C757 1.314 . S
N759 C758 1.279 . S
C760 C762 1.353 . S
C760 N763 1.314 . S
C760 H766 0.930 . S
C761 N763 1.279 . S
C761 C764 1.358 . S
C761 H767 0.930 . S
C762 C760 1.353 . S
C762 C765 1.348 . S
C762 H800 0.929 . S
N763 Li718 1.990 . S
N763 C760 1.314 . S
N763 C761 1.279 . S
C764 C761 1.358 . S
C764 C765 1.356 . S
C764 H801 0.930 . S
C765 C762 1.348 . S
C765 C764 1.356 . S
H766 C760 0.930 . S
H767 C761 0.930 . S
C768 N769 1.314 . S
C768 C770 1.353 . S
C768 H774 0.930 . S
N769 Li719 1.990 . S
N769 C768 1.314 . S
N769 C772 1.279 . S
C770 C768 1.353 . S
C770 C773 1.348 . S
C770 H802 0.929 . S
C771 C772 1.358 . S
C771 C773 1.356 . S
C771 H803 0.930 . S
C772 N769 1.279 . S
C772 C771 1.358 . S
C772 H775 0.930 . S
C773 C770 1.348 . S
C773 C771 1.356 . S
H774 C768 0.930 . S
H775 C772 0.930 . S
O776 Li716 1.956 . S
O776 Li717 1.970 . S
O776 Li718 1.961 . S
O776 C720 1.325 . S
O777 Li716 1.970 . S
O777 Li717 1.956 . S
O777 Li719 1.961 . S
O777 C726 1.325 . S
O778 Li716 1.961 . S
O778 Li718 1.956 . S
O778 Li719 1.970 . S
O778 C748 1.325 . S
O779 Li717 1.961 . S
O779 Li718 1.970 . S
O779 Li719 1.956 . S
O779 C754 1.325 . S
H780 C722 0.929 . S
H781 C723 0.930 . S
H782 C724 0.930 . S
H783 C725 0.930 . S
H784 C727 0.930 . S
H785 C729 0.929 . S
H786 C730 0.930 . S
H787 C731 0.930 . S
H788 C734 0.930 . S
H789 C737 0.929 . S
H790 C742 0.929 . S
H791 C743 0.930 . S
H792 C750 0.929 . S
H793 C751 0.930 . S
H794 C752 0.930 . S
H795 C753 0.930 . S
H796 C755 0.929 . S
H797 C756 0.930 . S
H798 C757 0.930 . S
H799 C758 0.930 . S
H800 C762 0.929 . S
H801 C764 0.930 . S
H802 C770 0.929 . S
H803 C771 0.930 . S
H804 C812 0.929 . S
H805 C814 0.930 . S
H806 C816 0.930 . S
H807 C819 0.929 . S
H808 C822 0.930 . S
H809 C824 0.960 . S
H810 C824 0.960 . S
H811 C824 0.960 . S
C812 H804 0.929 . S
C812 C813 1.377 . S
C812 C814 1.384 . S
C813 C812 1.377 . S
C813 C819 1.390 . S
C814 H805 0.930 . S
C814 C812 1.384 . S
C814 C815 1.372 . S
C815 C814 1.372 . S
C815 C816 1.400 . S
C815 C820 1.490 . S
C816 H806 0.930 . S
C816 C815 1.400 . S
C816 C819 1.386 . S
H817 C833 0.930 . S
H818 C834 0.931 . S
C819 H807 0.929 . S
C819 C813 1.390 . S
C819 C816 1.386 . S
C820 C815 1.490 . S
C820 C822 1.395 . S
C820 C823 1.403 . S
H821 C827 0.930 . S
C822 H808 0.930 . S
C822 C820 1.395 . S
C822 C825 1.403 . S
C823 C820 1.403 . S
C823 C824 1.524 . S
C823 C827 1.400 . S
C824 H809 0.960 . S
C824 H810 0.960 . S
C824 H811 0.960 . S
C824 C823 1.524 . S
C825 C822 1.403 . S
C825 C826 1.392 . S
C825 C829 1.495 . S
C826 C825 1.392 . S
C826 C827 1.385 . S
C826 C828 1.478 . S
C827 H821 0.930 . S
C827 C823 1.400 . S
C827 C826 1.385 . S
C828 C826 1.478 . S
C828 C830 1.381 . S
C828 C834 1.383 . S
C829 C825 1.495 . S
C829 H835 0.959 . S
C829 H836 0.961 . S
C829 H837 0.960 . S
C830 C828 1.381 . S
C830 C831 1.394 . S
C830 H838 0.930 . S
C831 C830 1.394 . S
C831 C832 1.383 . S
C831 H839 0.929 . S
C832 C831 1.383 . S
C832 C833 1.377 . S
C833 H817 0.930 . S
C833 C832 1.377 . S
C833 C834 1.379 . S
C834 H818 0.931 . S
C834 C828 1.383 . S
C834 C833 1.379 . S
H835 C829 0.959 . S
H836 C829 0.961 . S
H837 C829 0.960 . S
H838 C830 0.930 . S
H839 C831 0.929 . S
H840 C848 0.929 . S
H841 C850 0.930 . S
H842 C852 0.930 . S
H843 C855 0.929 . S
H844 C858 0.930 . S
H845 C860 0.960 . S
H846 C860 0.960 . S
H847 C860 0.960 . S
C848 H840 0.929 . S
C848 C849 1.377 . S
C848 C850 1.384 . S
C849 C848 1.377 . S
C849 C855 1.390 . S
C850 H841 0.930 . S
C850 C848 1.384 . S
C850 C851 1.372 . S
C851 C850 1.372 . S
C851 C852 1.400 . S
C851 C856 1.490 . S
C852 H842 0.930 . S
C852 C851 1.400 . S
C852 C855 1.386 . S
H853 C869 0.930 . S
H854 C870 0.931 . S
C855 H843 0.929 . S
C855 C849 1.390 . S
C855 C852 1.386 . S
C856 C851 1.490 . S
C856 C858 1.395 . S
C856 C859 1.403 . S
H857 C863 0.930 . S
C858 H844 0.930 . S
C858 C856 1.395 . S
C858 C861 1.403 . S
C859 C856 1.403 . S
C859 C860 1.524 . S
C859 C863 1.400 . S
C860 H845 0.960 . S
C860 H846 0.960 . S
C860 H847 0.960 . S
C860 C859 1.524 . S
C861 C858 1.403 . S
C861 C862 1.392 . S
C861 C865 1.495 . S
C862 C861 1.392 . S
C862 C863 1.385 . S
C862 C864 1.478 . S
C863 H857 0.930 . S
C863 C859 1.400 . S
C863 C862 1.385 . S
C864 C862 1.478 . S
C864 C866 1.381 . S
C864 C870 1.383 . S
C865 C861 1.495 . S
C865 H871 0.959 . S
C865 H872 0.961 . S
C865 H873 0.960 . S
C866 C864 1.381 . S
C866 C867 1.394 . S
C866 H874 0.930 . S
C867 C866 1.394 . S
C867 C868 1.383 . S
C867 H875 0.929 . S
C868 C867 1.383 . S
C868 C869 1.377 . S
C869 H853 0.930 . S
C869 C868 1.377 . S
C869 C870 1.379 . S
C870 H854 0.931 . S
C870 C864 1.383 . S
C870 C869 1.379 . S
H871 C865 0.959 . S
H872 C865 0.961 . S
H873 C865 0.960 . S
H874 C866 0.930 . S
H875 C867 0.929 . S
H876 C884 0.929 . S
H877 C886 0.930 . S
H878 C888 0.930 . S
H879 C891 0.929 . S
H880 C894 0.930 . S
H881 C896 0.960 . S
H882 C896 0.960 . S
H883 C896 0.960 . S
C884 H876 0.929 . S
C884 C885 1.377 . S
C884 C886 1.384 . S
C885 C884 1.377 . S
C885 C891 1.390 . S
C886 H877 0.930 . S
C886 C884 1.384 . S
C886 C887 1.372 . S
C887 C886 1.372 . S
C887 C888 1.400 . S
C887 C892 1.490 . S
C888 H878 0.930 . S
C888 C887 1.400 . S
C888 C891 1.386 . S
H889 C905 0.930 . S
H890 C906 0.931 . S
C891 H879 0.929 . S
C891 C885 1.390 . S
C891 C888 1.386 . S
C892 C887 1.490 . S
C892 C894 1.395 . S
C892 C895 1.403 . S
H893 C899 0.930 . S
C894 H880 0.930 . S
C894 C892 1.395 . S
C894 C897 1.403 . S
C895 C892 1.403 . S
C895 C896 1.524 . S
C895 C899 1.400 . S
C896 H881 0.960 . S
C896 H882 0.960 . S
C896 H883 0.960 . S
C896 C895 1.524 . S
C897 C894 1.403 . S
C897 C898 1.392 . S
C897 C901 1.495 . S
C898 C897 1.392 . S
C898 C899 1.385 . S
C898 C900 1.478 . S
C899 H893 0.930 . S
C899 C895 1.400 . S
C899 C898 1.385 . S
C900 C898 1.478 . S
C900 C902 1.381 . S
C900 C906 1.383 . S
C901 C897 1.495 . S
C901 H907 0.959 . S
C901 H908 0.961 . S
C901 H909 0.960 . S
C902 C900 1.381 . S
C902 C903 1.394 . S
C902 H910 0.930 . S
C903 C902 1.394 . S
C903 C904 1.383 . S
C903 H911 0.929 . S
C904 C903 1.383 . S
C904 C905 1.377 . S
C905 H889 0.930 . S
C905 C904 1.377 . S
C905 C906 1.379 . S
C906 H890 0.931 . S
C906 C900 1.383 . S
C906 C905 1.379 . S
H907 C901 0.959 . S
H908 C901 0.961 . S
H909 C901 0.960 . S
H910 C902 0.930 . S
H911 C903 0.929 . S
H912 C920 0.929 . S
H913 C922 0.930 . S
H914 C924 0.930 . S
H915 C927 0.929 . S
H916 C930 0.930 . S
H917 C932 0.960 . S
H918 C932 0.960 . S
H919 C932 0.960 . S
C920 H912 0.929 . S
C920 C921 1.377 . S
C920 C922 1.384 . S
C921 C920 1.377 . S
C921 C927 1.390 . S
C922 H913 0.930 . S
C922 C920 1.384 . S
C922 C923 1.372 . S
C923 C922 1.372 . S
C923 C924 1.400 . S
C923 C928 1.490 . S
C924 H914 0.930 . S
C924 C923 1.400 . S
C924 C927 1.386 . S
H925 C941 0.930 . S
H926 C942 0.931 . S
C927 H915 0.929 . S
C927 C921 1.390 . S
C927 C924 1.386 . S
C928 C923 1.490 . S
C928 C930 1.395 . S
C928 C931 1.403 . S
H929 C935 0.930 . S
C930 H916 0.930 . S
C930 C928 1.395 . S
C930 C933 1.403 . S
C931 C928 1.403 . S
C931 C932 1.524 . S
C931 C935 1.400 . S
C932 H917 0.960 . S
C932 H918 0.960 . S
C932 H919 0.960 . S
C932 C931 1.524 . S
C933 C930 1.403 . S
C933 C934 1.392 . S
C933 C937 1.495 . S
C934 C933 1.392 . S
C934 C935 1.385 . S
C934 C936 1.478 . S
C935 H929 0.930 . S
C935 C931 1.400 . S
C935 C934 1.385 . S
C936 C934 1.478 . S
C936 C938 1.381 . S
C936 C942 1.383 . S
C937 C933 1.495 . S
C937 H943 0.959 . S
C937 H944 0.961 . S
C937 H945 0.960 . S
C938 C936 1.381 . S
C938 C939 1.394 . S
C938 H946 0.930 . S
C939 C938 1.394 . S
C939 C940 1.383 . S
C939 H947 0.929 . S
C940 C939 1.383 . S
C940 C941 1.377 . S
C941 H925 0.930 . S
C941 C940 1.377 . S
C941 C942 1.379 . S
C942 H926 0.931 . S
C942 C936 1.383 . S
C942 C941 1.379 . S
H943 C937 0.959 . S
H944 C937 0.961 . S
H945 C937 0.960 . S
H946 C938 0.930 . S
H947 C939 0.929 . S
H948 C956 0.929 . S
H949 C958 0.930 . S
H950 C960 0.930 . S
H951 C963 0.929 . S
H952 C966 0.930 . S
H953 C968 0.960 . S
H954 C968 0.960 . S
H955 C968 0.960 . S
C956 H948 0.929 . S
C956 C957 1.377 . S
C956 C958 1.384 . S
C957 C956 1.377 . S
C957 C963 1.390 . S
C958 H949 0.930 . S
C958 C956 1.384 . S
C958 C959 1.372 . S
C959 C958 1.372 . S
C959 C960 1.400 . S
C959 C964 1.490 . S
C960 H950 0.930 . S
C960 C959 1.400 . S
C960 C963 1.386 . S
H961 C977 0.930 . S
H962 C978 0.931 . S
C963 H951 0.929 . S
C963 C957 1.390 . S
C963 C960 1.386 . S
C964 C959 1.490 . S
C964 C966 1.395 . S
C964 C967 1.403 . S
H965 C971 0.930 . S
C966 H952 0.930 . S
C966 C964 1.395 . S
C966 C969 1.403 . S
C967 C964 1.403 . S
C967 C968 1.524 . S
C967 C971 1.400 . S
C968 H953 0.960 . S
C968 H954 0.960 . S
C968 H955 0.960 . S
C968 C967 1.524 . S
C969 C966 1.403 . S
C969 C970 1.392 . S
C969 C973 1.495 . S
C970 C969 1.392 . S
C970 C971 1.385 . S
C970 C972 1.478 . S
C971 H965 0.930 . S
C971 C967 1.400 . S
C971 C970 1.385 . S
C972 C970 1.478 . S
C972 C974 1.381 . S
C972 C978 1.383 . S
C973 C969 1.495 . S
C973 H979 0.959 . S
C973 H980 0.961 . S
C973 H981 0.960 . S
C974 C972 1.381 . S
C974 C975 1.394 . S
C974 H982 0.930 . S
C975 C974 1.394 . S
C975 C976 1.383 . S
C975 H983 0.929 . S
C976 C975 1.383 . S
C976 C977 1.377 . S
C977 H961 0.930 . S
C977 C976 1.377 . S
C977 C978 1.379 . S
C978 H962 0.931 . S
C978 C972 1.383 . S
C978 C977 1.379 . S
H979 C973 0.959 . S
H980 C973 0.961 . S
H981 C973 0.960 . S
H982 C974 0.930 . S
H983 C975 0.929 . S
H984 C992 0.929 . S
H985 C994 0.930 . S
H986 C996 0.930 . S
H987 C999 0.929 . S
H988 C1002 0.930 . S
H989 C1004 0.960 . S
H990 C1004 0.960 . S
H991 C1004 0.960 . S
C992 H984 0.929 . S
C992 C993 1.377 . S
C992 C994 1.384 . S
C993 C992 1.377 . S
C993 C999 1.390 . S
C994 H985 0.930 . S
C994 C992 1.384 . S
C994 C995 1.372 . S
C995 C994 1.372 . S
C995 C996 1.400 . S
C995 C1000 1.490 . S
C996 H986 0.930 . S
C996 C995 1.400 . S
C996 C999 1.386 . S
H997 C1013 0.930 . S
H998 C1014 0.931 . S
C999 H987 0.929 . S
C999 C993 1.390 . S
C999 C996 1.386 . S
C1000 C995 1.490 . S
C1000 C1002 1.395 . S
C1000 C1003 1.403 . S
H1001 C1007 0.930 . S
C1002 H988 0.930 . S
C1002 C1000 1.395 . S
C1002 C1005 1.403 . S
C1003 C1000 1.403 . S
C1003 C1004 1.524 . S
C1003 C1007 1.400 . S
C1004 H989 0.960 . S
C1004 H990 0.960 . S
C1004 H991 0.960 . S
C1004 C1003 1.524 . S
C1005 C1002 1.403 . S
C1005 C1006 1.392 . S
C1005 C1009 1.495 . S
C1006 C1005 1.392 . S
C1006 C1007 1.385 . S
C1006 C1008 1.478 . S
C1007 H1001 0.930 . S
C1007 C1003 1.400 . S
C1007 C1006 1.385 . S
C1008 C1006 1.478 . S
C1008 C1010 1.381 . S
C1008 C1014 1.383 . S
C1009 C1005 1.495 . S
C1009 H1015 0.959 . S
C1009 H1016 0.961 . S
C1009 H1017 0.960 . S
C1010 C1008 1.381 . S
C1010 C1011 1.394 . S
C1010 H1018 0.930 . S
C1011 C1010 1.394 . S
C1011 C1012 1.383 . S
C1011 H1019 0.929 . S
C1012 C1011 1.383 . S
C1012 C1013 1.377 . S
C1013 H997 0.930 . S
C1013 C1012 1.377 . S
C1013 C1014 1.379 . S
C1014 H998 0.931 . S
C1014 C1008 1.383 . S
C1014 C1013 1.379 . S
H1015 C1009 0.959 . S
H1016 C1009 0.961 . S
H1017 C1009 0.960 . S
H1018 C1010 0.930 . S
H1019 C1011 0.929 . S
H1020 C1028 0.929 . S
H1021 C1030 0.930 . S
H1022 C1032 0.930 . S
H1023 C1035 0.929 . S
H1024 C1038 0.930 . S
H1025 C1040 0.960 . S
H1026 C1040 0.960 . S
H1027 C1040 0.960 . S
C1028 H1020 0.929 . S
C1028 C1029 1.377 . S
C1028 C1030 1.384 . S
C1029 C1028 1.377 . S
C1029 C1035 1.390 . S
C1030 H1021 0.930 . S
C1030 C1028 1.384 . S
C1030 C1031 1.372 . S
C1031 C1030 1.372 . S
C1031 C1032 1.400 . S
C1031 C1036 1.490 . S
C1032 H1022 0.930 . S
C1032 C1031 1.400 . S
C1032 C1035 1.386 . S
H1033 C1049 0.930 . S
H1034 C1050 0.931 . S
C1035 H1023 0.929 . S
C1035 C1029 1.390 . S
C1035 C1032 1.386 . S
C1036 C1031 1.490 . S
C1036 C1038 1.395 . S
C1036 C1039 1.403 . S
H1037 C1043 0.930 . S
C1038 H1024 0.930 . S
C1038 C1036 1.395 . S
C1038 C1041 1.403 . S
C1039 C1036 1.403 . S
C1039 C1040 1.524 . S
C1039 C1043 1.400 . S
C1040 H1025 0.960 . S
C1040 H1026 0.960 . S
C1040 H1027 0.960 . S
C1040 C1039 1.524 . S
C1041 C1038 1.403 . S
C1041 C1042 1.392 . S
C1041 C1045 1.495 . S
C1042 C1041 1.392 . S
C1042 C1043 1.385 . S
C1042 C1044 1.478 . S
C1043 H1037 0.930 . S
C1043 C1039 1.400 . S
C1043 C1042 1.385 . S
C1044 C1042 1.478 . S
C1044 C1046 1.381 . S
C1044 C1050 1.383 . S
C1045 C1041 1.495 . S
C1045 H1051 0.959 . S
C1045 H1052 0.961 . S
C1045 H1053 0.960 . S
C1046 C1044 1.381 . S
C1046 C1047 1.394 . S
C1046 H1054 0.930 . S
C1047 C1046 1.394 . S
C1047 C1048 1.383 . S
C1047 H1055 0.929 . S
C1048 C1047 1.383 . S
C1048 C1049 1.377 . S
C1049 H1033 0.930 . S
C1049 C1048 1.377 . S
C1049 C1050 1.379 . S
C1050 H1034 0.931 . S
C1050 C1044 1.383 . S
C1050 C1049 1.379 . S
H1051 C1045 0.959 . S
H1052 C1045 0.961 . S
H1053 C1045 0.960 . S
H1054 C1046 0.930 . S
H1055 C1047 0.929 . S
H1056 C1064 0.929 . S
H1057 C1066 0.930 . S
H1058 C1068 0.930 . S
H1059 C1071 0.929 . S
H1060 C1074 0.930 . S
H1061 C1076 0.960 . S
H1062 C1076 0.960 . S
H1063 C1076 0.960 . S
C1064 H1056 0.929 . S
C1064 C1065 1.377 . S
C1064 C1066 1.384 . S
C1065 C1064 1.377 . S
C1065 C1071 1.390 . S
C1066 H1057 0.930 . S
C1066 C1064 1.384 . S
C1066 C1067 1.372 . S
C1067 C1066 1.372 . S
C1067 C1068 1.400 . S
C1067 C1072 1.490 . S
C1068 H1058 0.930 . S
C1068 C1067 1.400 . S
C1068 C1071 1.386 . S
H1069 C1085 0.930 . S
H1070 C1086 0.931 . S
C1071 H1059 0.929 . S
C1071 C1065 1.390 . S
C1071 C1068 1.386 . S
C1072 C1067 1.490 . S
C1072 C1074 1.395 . S
C1072 C1075 1.403 . S
H1073 C1079 0.930 . S
C1074 H1060 0.930 . S
C1074 C1072 1.395 . S
C1074 C1077 1.403 . S
C1075 C1072 1.403 . S
C1075 C1076 1.524 . S
C1075 C1079 1.400 . S
C1076 H1061 0.960 . S
C1076 H1062 0.960 . S
C1076 H1063 0.960 . S
C1076 C1075 1.524 . S
C1077 C1074 1.403 . S
C1077 C1078 1.392 . S
C1077 C1081 1.495 . S
C1078 C1077 1.392 . S
C1078 C1079 1.385 . S
C1078 C1080 1.478 . S
C1079 H1073 0.930 . S
C1079 C1075 1.400 . S
C1079 C1078 1.385 . S
C1080 C1078 1.478 . S
C1080 C1082 1.381 . S
C1080 C1086 1.383 . S
C1081 C1077 1.495 . S
C1081 H1087 0.959 . S
C1081 H1088 0.961 . S
C1081 H1089 0.960 . S
C1082 C1080 1.381 . S
C1082 C1083 1.394 . S
C1082 H1090 0.930 . S
C1083 C1082 1.394 . S
C1083 C1084 1.383 . S
C1083 H1091 0.929 . S
C1084 C1083 1.383 . S
C1084 C1085 1.377 . S
C1085 H1069 0.930 . S
C1085 C1084 1.377 . S
C1085 C1086 1.379 . S
C1086 H1070 0.931 . S
C1086 C1080 1.383 . S
C1086 C1085 1.379 . S
H1087 C1081 0.959 . S
H1088 C1081 0.961 . S
H1089 C1081 0.960 . S
H1090 C1082 0.930 . S
H1091 C1083 0.929 . S
H1092 C1100 0.929 . S
H1093 C1102 0.930 . S
H1094 C1104 0.930 . S
H1095 C1107 0.929 . S
H1096 C1110 0.930 . S
H1097 C1112 0.960 . S
H1098 C1112 0.960 . S
H1099 C1112 0.960 . S
C1100 H1092 0.929 . S
C1100 C1101 1.377 . S
C1100 C1102 1.384 . S
C1101 C1100 1.377 . S
C1101 C1107 1.390 . S
C1102 H1093 0.930 . S
C1102 C1100 1.384 . S
C1102 C1103 1.372 . S
C1103 C1102 1.372 . S
C1103 C1104 1.400 . S
C1103 C1108 1.490 . S
C1104 H1094 0.930 . S
C1104 C1103 1.400 . S
C1104 C1107 1.386 . S
H1105 C1121 0.930 . S
H1106 C1122 0.931 . S
C1107 H1095 0.929 . S
C1107 C1101 1.390 . S
C1107 C1104 1.386 . S
C1108 C1103 1.490 . S
C1108 C1110 1.395 . S
C1108 C1111 1.403 . S
H1109 C1115 0.930 . S
C1110 H1096 0.930 . S
C1110 C1108 1.395 . S
C1110 C1113 1.403 . S
C1111 C1108 1.403 . S
C1111 C1112 1.524 . S
C1111 C1115 1.400 . S
C1112 H1097 0.960 . S
C1112 H1098 0.960 . S
C1112 H1099 0.960 . S
C1112 C1111 1.524 . S
C1113 C1110 1.403 . S
C1113 C1114 1.392 . S
C1113 C1117 1.495 . S
C1114 C1113 1.392 . S
C1114 C1115 1.385 . S
C1114 C1116 1.478 . S
C1115 H1109 0.930 . S
C1115 C1111 1.400 . S
C1115 C1114 1.385 . S
C1116 C1114 1.478 . S
C1116 C1118 1.381 . S
C1116 C1122 1.383 . S
C1117 C1113 1.495 . S
C1117 H1123 0.959 . S
C1117 H1124 0.961 . S
C1117 H1125 0.960 . S
C1118 C1116 1.381 . S
C1118 C1119 1.394 . S
C1118 H1126 0.930 . S
C1119 C1118 1.394 . S
C1119 C1120 1.383 . S
C1119 H1127 0.929 . S
C1120 C1119 1.383 . S
C1120 C1121 1.377 . S
C1121 H1105 0.930 . S
C1121 C1120 1.377 . S
C1121 C1122 1.379 . S
C1122 H1106 0.931 . S
C1122 C1116 1.383 . S
C1122 C1121 1.379 . S
H1123 C1117 0.959 . S
H1124 C1117 0.961 . S
H1125 C1117 0.960 . S
H1126 C1118 0.930 . S
H1127 C1119 0.929 . S
H1128 C1136 0.929 . S
H1129 C1138 0.930 . S
H1130 C1140 0.930 . S
H1131 C1143 0.929 . S
H1132 C1146 0.930 . S
H1133 C1148 0.960 . S
H1134 C1148 0.960 . S
H1135 C1148 0.960 . S
C1136 H1128 0.929 . S
C1136 C1137 1.377 . S
C1136 C1138 1.384 . S
C1137 C1136 1.377 . S
C1137 C1143 1.390 . S
C1138 H1129 0.930 . S
C1138 C1136 1.384 . S
C1138 C1139 1.372 . S
C1139 C1138 1.372 . S
C1139 C1140 1.400 . S
C1139 C1144 1.490 . S
C1140 H1130 0.930 . S
C1140 C1139 1.400 . S
C1140 C1143 1.386 . S
H1141 C1157 0.930 . S
H1142 C1158 0.931 . S
C1143 H1131 0.929 . S
C1143 C1137 1.390 . S
C1143 C1140 1.386 . S
C1144 C1139 1.490 . S
C1144 C1146 1.395 . S
C1144 C1147 1.403 . S
H1145 C1151 0.930 . S
C1146 H1132 0.930 . S
C1146 C1144 1.395 . S
C1146 C1149 1.403 . S
C1147 C1144 1.403 . S
C1147 C1148 1.524 . S
C1147 C1151 1.400 . S
C1148 H1133 0.960 . S
C1148 H1134 0.960 . S
C1148 H1135 0.960 . S
C1148 C1147 1.524 . S
C1149 C1146 1.403 . S
C1149 C1150 1.392 . S
C1149 C1153 1.495 . S
C1150 C1149 1.392 . S
C1150 C1151 1.385 . S
C1150 C1152 1.478 . S
C1151 H1145 0.930 . S
C1151 C1147 1.400 . S
C1151 C1150 1.385 . S
C1152 C1150 1.478 . S
C1152 C1154 1.381 . S
C1152 C1158 1.383 . S
C1153 C1149 1.495 . S
C1153 H1159 0.959 . S
C1153 H1160 0.961 . S
C1153 H1161 0.960 . S
C1154 C1152 1.381 . S
C1154 C1155 1.394 . S
C1154 H1162 0.930 . S
C1155 C1154 1.394 . S
C1155 C1156 1.383 . S
C1155 H1163 0.929 . S
C1156 C1155 1.383 . S
C1156 C1157 1.377 . S
C1157 H1141 0.930 . S
C1157 C1156 1.377 . S
C1157 C1158 1.379 . S
C1158 H1142 0.931 . S
C1158 C1152 1.383 . S
C1158 C1157 1.379 . S
H1159 C1153 0.959 . S
H1160 C1153 0.961 . S
H1161 C1153 0.960 . S
H1162 C1154 0.930 . S
H1163 C1155 0.929 . S
H1164 C1172 0.929 . S
H1165 C1174 0.930 . S
H1166 C1176 0.930 . S
H1167 C1179 0.929 . S
H1168 C1182 0.930 . S
H1169 C1184 0.960 . S
H1170 C1184 0.960 . S
H1171 C1184 0.960 . S
C1172 H1164 0.929 . S
C1172 C1173 1.377 . S
C1172 C1174 1.384 . S
C1173 C1172 1.377 . S
C1173 C1179 1.390 . S
C1174 H1165 0.930 . S
C1174 C1172 1.384 . S
C1174 C1175 1.372 . S
C1175 C1174 1.372 . S
C1175 C1176 1.400 . S
C1175 C1180 1.490 . S
C1176 H1166 0.930 . S
C1176 C1175 1.400 . S
C1176 C1179 1.386 . S
H1177 C1193 0.930 . S
H1178 C1194 0.931 . S
C1179 H1167 0.929 . S
C1179 C1173 1.390 . S
C1179 C1176 1.386 . S
C1180 C1175 1.490 . S
C1180 C1182 1.395 . S
C1180 C1183 1.403 . S
H1181 C1187 0.930 . S
C1182 H1168 0.930 . S
C1182 C1180 1.395 . S
C1182 C1185 1.403 . S
C1183 C1180 1.403 . S
C1183 C1184 1.524 . S
C1183 C1187 1.400 . S
C1184 H1169 0.960 . S
C1184 H1170 0.960 . S
C1184 H1171 0.960 . S
C1184 C1183 1.524 . S
C1185 C1182 1.403 . S
C1185 C1186 1.392 . S
C1185 C1189 1.495 . S
C1186 C1185 1.392 . S
C1186 C1187 1.385 . S
C1186 C1188 1.478 . S
C1187 H1181 0.930 . S
C1187 C1183 1.400 . S
C1187 C1186 1.385 . S
C1188 C1186 1.478 . S
C1188 C1190 1.381 . S
C1188 C1194 1.383 . S
C1189 C1185 1.495 . S
C1189 H1195 0.959 . S
C1189 H1196 0.961 . S
C1189 H1197 0.960 . S
C1190 C1188 1.381 . S
C1190 C1191 1.394 . S
C1190 H1198 0.930 . S
C1191 C1190 1.394 . S
C1191 C1192 1.383 . S
C1191 H1199 0.929 . S
C1192 C1191 1.383 . S
C1192 C1193 1.377 . S
C1193 H1177 0.930 . S
C1193 C1192 1.377 . S
C1193 C1194 1.379 . S
C1194 H1178 0.931 . S
C1194 C1188 1.383 . S
C1194 C1193 1.379 . S
H1195 C1189 0.959 . S
H1196 C1189 0.961 . S
H1197 C1189 0.960 . S
H1198 C1190 0.930 . S
H1199 C1191 0.929 . S
H1200 C1208 0.929 . S
H1201 C1210 0.930 . S
H1202 C1212 0.930 . S
H1203 C1215 0.929 . S
H1204 C1218 0.930 . S
H1205 C1220 0.960 . S
H1206 C1220 0.960 . S
H1207 C1220 0.960 . S
C1208 H1200 0.929 . S
C1208 C1209 1.377 . S
C1208 C1210 1.384 . S
C1209 C1208 1.377 . S
C1209 C1215 1.390 . S
C1210 H1201 0.930 . S
C1210 C1208 1.384 . S
C1210 C1211 1.372 . S
C1211 C1210 1.372 . S
C1211 C1212 1.400 . S
C1211 C1216 1.490 . S
C1212 H1202 0.930 . S
C1212 C1211 1.400 . S
C1212 C1215 1.386 . S
H1213 C1229 0.930 . S
H1214 C1230 0.931 . S
C1215 H1203 0.929 . S
C1215 C1209 1.390 . S
C1215 C1212 1.386 . S
C1216 C1211 1.490 . S
C1216 C1218 1.395 . S
C1216 C1219 1.403 . S
H1217 C1223 0.930 . S
C1218 H1204 0.930 . S
C1218 C1216 1.395 . S
C1218 C1221 1.403 . S
C1219 C1216 1.403 . S
C1219 C1220 1.524 . S
C1219 C1223 1.400 . S
C1220 H1205 0.960 . S
C1220 H1206 0.960 . S
C1220 H1207 0.960 . S
C1220 C1219 1.524 . S
C1221 C1218 1.403 . S
C1221 C1222 1.392 . S
C1221 C1225 1.495 . S
C1222 C1221 1.392 . S
C1222 C1223 1.385 . S
C1222 C1224 1.478 . S
C1223 H1217 0.930 . S
C1223 C1219 1.400 . S
C1223 C1222 1.385 . S
C1224 C1222 1.478 . S
C1224 C1226 1.381 . S
C1224 C1230 1.383 . S
C1225 C1221 1.495 . S
C1225 H1231 0.959 . S
C1225 H1232 0.961 . S
C1225 H1233 0.960 . S
C1226 C1224 1.381 . S
C1226 C1227 1.394 . S
C1226 H1234 0.930 . S
C1227 C1226 1.394 . S
C1227 C1228 1.383 . S
C1227 H1235 0.929 . S
C1228 C1227 1.383 . S
C1228 C1229 1.377 . S
C1229 H1213 0.930 . S
C1229 C1228 1.377 . S
C1229 C1230 1.379 . S
C1230 H1214 0.931 . S
C1230 C1224 1.383 . S
C1230 C1229 1.379 . S
H1231 C1225 0.959 . S
H1232 C1225 0.961 . S
H1233 C1225 0.960 . S
H1234 C1226 0.930 . S
H1235 C1227 0.929 . S
H1236 C1244 0.929 . S
H1237 C1246 0.930 . S
H1238 C1248 0.930 . S
H1239 C1251 0.929 . S
H1240 C1254 0.930 . S
H1241 C1256 0.960 . S
H1242 C1256 0.960 . S
H1243 C1256 0.960 . S
C1244 H1236 0.929 . S
C1244 C1245 1.377 . S
C1244 C1246 1.384 . S
C1245 C1244 1.377 . S
C1245 C1251 1.390 . S
C1246 H1237 0.930 . S
C1246 C1244 1.384 . S
C1246 C1247 1.372 . S
C1247 C1246 1.372 . S
C1247 C1248 1.400 . S
C1247 C1252 1.490 . S
C1248 H1238 0.930 . S
C1248 C1247 1.400 . S
C1248 C1251 1.386 . S
H1249 C1265 0.930 . S
H1250 C1266 0.931 . S
C1251 H1239 0.929 . S
C1251 C1245 1.390 . S
C1251 C1248 1.386 . S
C1252 C1247 1.490 . S
C1252 C1254 1.395 . S
C1252 C1255 1.403 . S
H1253 C1259 0.930 . S
C1254 H1240 0.930 . S
C1254 C1252 1.395 . S
C1254 C1257 1.403 . S
C1255 C1252 1.403 . S
C1255 C1256 1.524 . S
C1255 C1259 1.400 . S
C1256 H1241 0.960 . S
C1256 H1242 0.960 . S
C1256 H1243 0.960 . S
C1256 C1255 1.524 . S
C1257 C1254 1.403 . S
C1257 C1258 1.392 . S
C1257 C1261 1.495 . S
C1258 C1257 1.392 . S
C1258 C1259 1.385 . S
C1258 C1260 1.478 . S
C1259 H1253 0.930 . S
C1259 C1255 1.400 . S
C1259 C1258 1.385 . S
C1260 C1258 1.478 . S
C1260 C1262 1.381 . S
C1260 C1266 1.383 . S
C1261 C1257 1.495 . S
C1261 H1267 0.959 . S
C1261 H1268 0.961 . S
C1261 H1269 0.960 . S
C1262 C1260 1.381 . S
C1262 C1263 1.394 . S
C1262 H1270 0.930 . S
C1263 C1262 1.394 . S
C1263 C1264 1.383 . S
C1263 H1271 0.929 . S
C1264 C1263 1.383 . S
C1264 C1265 1.377 . S
C1265 H1249 0.930 . S
C1265 C1264 1.377 . S
C1265 C1266 1.379 . S
C1266 H1250 0.931 . S
C1266 C1260 1.383 . S
C1266 C1265 1.379 . S
H1267 C1261 0.959 . S
H1268 C1261 0.961 . S
H1269 C1261 0.960 . S
H1270 C1262 0.930 . S
H1271 C1263 0.929 . S
H1272 C1280 0.929 . S
H1273 C1282 0.930 . S
H1274 C1284 0.930 . S
H1275 C1287 0.929 . S
H1276 C1290 0.930 . S
H1277 C1292 0.960 . S
H1278 C1292 0.960 . S
H1279 C1292 0.960 . S
C1280 H1272 0.929 . S
C1280 C1281 1.377 . S
C1280 C1282 1.384 . S
C1281 C1280 1.377 . S
C1281 C1287 1.390 . S
C1282 H1273 0.930 . S
C1282 C1280 1.384 . S
C1282 C1283 1.372 . S
C1283 C1282 1.372 . S
C1283 C1284 1.400 . S
C1283 C1288 1.490 . S
C1284 H1274 0.930 . S
C1284 C1283 1.400 . S
C1284 C1287 1.386 . S
H1285 C1301 0.930 . S
H1286 C1302 0.931 . S
C1287 H1275 0.929 . S
C1287 C1281 1.390 . S
C1287 C1284 1.386 . S
C1288 C1283 1.490 . S
C1288 C1290 1.395 . S
C1288 C1291 1.403 . S
H1289 C1295 0.930 . S
C1290 H1276 0.930 . S
C1290 C1288 1.395 . S
C1290 C1293 1.403 . S
C1291 C1288 1.403 . S
C1291 C1292 1.524 . S
C1291 C1295 1.400 . S
C1292 H1277 0.960 . S
C1292 H1278 0.960 . S
C1292 H1279 0.960 . S
C1292 C1291 1.524 . S
C1293 C1290 1.403 . S
C1293 C1294 1.392 . S
C1293 C1297 1.495 . S
C1294 C1293 1.392 . S
C1294 C1295 1.385 . S
C1294 C1296 1.478 . S
C1295 H1289 0.930 . S
C1295 C1291 1.400 . S
C1295 C1294 1.385 . S
C1296 C1294 1.478 . S
C1296 C1298 1.381 . S
C1296 C1302 1.383 . S
C1297 C1293 1.495 . S
C1297 H1303 0.959 . S
C1297 H1304 0.961 . S
C1297 H1305 0.960 . S
C1298 C1296 1.381 . S
C1298 C1299 1.394 . S
C1298 H1306 0.930 . S
C1299 C1298 1.394 . S
C1299 C1300 1.383 . S
C1299 H1307 0.929 . S
C1300 C1299 1.383 . S
C1300 C1301 1.377 . S
C1301 H1285 0.930 . S
C1301 C1300 1.377 . S
C1301 C1302 1.379 . S
C1302 H1286 0.931 . S
C1302 C1296 1.383 . S
C1302 C1301 1.379 . S
H1303 C1297 0.959 . S
H1304 C1297 0.961 . S
H1305 C1297 0.960 . S
H1306 C1298 0.930 . S
H1307 C1299 0.929 . S
H1308 C1316 0.929 . S
H1309 C1318 0.930 . S
H1310 C1320 0.930 . S
H1311 C1323 0.929 . S
H1312 C1326 0.930 . S
H1313 C1328 0.960 . S
H1314 C1328 0.960 . S
H1315 C1328 0.960 . S
C1316 H1308 0.929 . S
C1316 C1317 1.377 . S
C1316 C1318 1.384 . S
C1317 C1316 1.377 . S
C1317 C1323 1.390 . S
C1318 H1309 0.930 . S
C1318 C1316 1.384 . S
C1318 C1319 1.372 . S
C1319 C1318 1.372 . S
C1319 C1320 1.400 . S
C1319 C1324 1.490 . S
C1320 H1310 0.930 . S
C1320 C1319 1.400 . S
C1320 C1323 1.386 . S
H1321 C1337 0.930 . S
H1322 C1338 0.931 . S
C1323 H1311 0.929 . S
C1323 C1317 1.390 . S
C1323 C1320 1.386 . S
C1324 C1319 1.490 . S
C1324 C1326 1.395 . S
C1324 C1327 1.403 . S
H1325 C1331 0.930 . S
C1326 H1312 0.930 . S
C1326 C1324 1.395 . S
C1326 C1329 1.403 . S
C1327 C1324 1.403 . S
C1327 C1328 1.524 . S
C1327 C1331 1.400 . S
C1328 H1313 0.960 . S
C1328 H1314 0.960 . S
C1328 H1315 0.960 . S
C1328 C1327 1.524 . S
C1329 C1326 1.403 . S
C1329 C1330 1.392 . S
C1329 C1333 1.495 . S
C1330 C1329 1.392 . S
C1330 C1331 1.385 . S
C1330 C1332 1.478 . S
C1331 H1325 0.930 . S
C1331 C1327 1.400 . S
C1331 C1330 1.385 . S
C1332 C1330 1.478 . S
C1332 C1334 1.381 . S
C1332 C1338 1.383 . S
C1333 C1329 1.495 . S
C1333 H1339 0.959 . S
C1333 H1340 0.961 . S
C1333 H1341 0.960 . S
C1334 C1332 1.381 . S
C1334 C1335 1.394 . S
C1334 H1342 0.930 . S
C1335 C1334 1.394 . S
C1335 C1336 1.383 . S
C1335 H1343 0.929 . S
C1336 C1335 1.383 . S
C1336 C1337 1.377 . S
C1337 H1321 0.930 . S
C1337 C1336 1.377 . S
C1337 C1338 1.379 . S
C1338 H1322 0.931 . S
C1338 C1332 1.383 . S
C1338 C1337 1.379 . S
H1339 C1333 0.959 . S
H1340 C1333 0.961 . S
H1341 C1333 0.960 . S
H1342 C1334 0.930 . S
H1343 C1335 0.929 . S
H1344 C1352 0.929 . S
H1345 C1354 0.930 . S
H1346 C1356 0.930 . S
H1347 C1359 0.929 . S
H1348 C1362 0.930 . S
H1349 C1364 0.960 . S
H1350 C1364 0.960 . S
H1351 C1364 0.960 . S
C1352 H1344 0.929 . S
C1352 C1353 1.377 . S
C1352 C1354 1.384 . S
C1353 C1352 1.377 . S
C1353 C1359 1.390 . S
C1354 H1345 0.930 . S
C1354 C1352 1.384 . S
C1354 C1355 1.372 . S
C1355 C1354 1.372 . S
C1355 C1356 1.400 . S
C1355 C1360 1.490 . S
C1356 H1346 0.930 . S
C1356 C1355 1.400 . S
C1356 C1359 1.386 . S
H1357 C1373 0.930 . S
H1358 C1374 0.931 . S
C1359 H1347 0.929 . S
C1359 C1353 1.390 . S
C1359 C1356 1.386 . S
C1360 C1355 1.490 . S
C1360 C1362 1.395 . S
C1360 C1363 1.403 . S
H1361 C1367 0.930 . S
C1362 H1348 0.930 . S
C1362 C1360 1.395 . S
C1362 C1365 1.403 . S
C1363 C1360 1.403 . S
C1363 C1364 1.524 . S
C1363 C1367 1.400 . S
C1364 H1349 0.960 . S
C1364 H1350 0.960 . S
C1364 H1351 0.960 . S
C1364 C1363 1.524 . S
C1365 C1362 1.403 . S
C1365 C1366 1.392 . S
C1365 C1369 1.495 . S
C1366 C1365 1.392 . S
C1366 C1367 1.385 . S
C1366 C1368 1.478 . S
C1367 H1361 0.930 . S
C1367 C1363 1.400 . S
C1367 C1366 1.385 . S
C1368 C1366 1.478 . S
C1368 C1370 1.381 . S
C1368 C1374 1.383 . S
C1369 C1365 1.495 . S
C1369 H1375 0.959 . S
C1369 H1376 0.961 . S
C1369 H1377 0.960 . S
C1370 C1368 1.381 . S
C1370 C1371 1.394 1_556 S
C1370 H1378 0.930 . S
C1371 C1370 1.394 1_554 S
C1371 C1372 1.383 . S
C1371 H1379 0.929 . S
C1372 C1371 1.383 . S
C1372 C1373 1.377 1_554 S
C1373 H1357 0.930 . S
C1373 C1372 1.377 1_556 S
C1373 C1374 1.379 . S
C1374 H1358 0.931 . S
C1374 C1368 1.383 . S
C1374 C1373 1.379 . S
H1375 C1369 0.959 . S
H1376 C1369 0.961 . S
H1377 C1369 0.960 . S
H1378 C1370 0.930 . S
H1379 C1371 0.929 . S
H1380 C1388 0.929 . S
H1381 C1390 0.930 . S
H1382 C1392 0.930 . S
H1383 C1395 0.929 . S
H1384 C1398 0.930 . S
H1385 C1400 0.960 . S
H1386 C1400 0.960 . S
H1387 C1400 0.960 . S
C1388 H1380 0.929 . S
C1388 C1389 1.377 . S
C1388 C1390 1.384 . S
C1389 C1388 1.377 . S
C1389 C1395 1.390 . S
C1390 H1381 0.930 . S
C1390 C1388 1.384 . S
C1390 C1391 1.372 . S
C1391 C1390 1.372 . S
C1391 C1392 1.400 . S
C1391 C1396 1.490 . S
C1392 H1382 0.930 . S
C1392 C1391 1.400 . S
C1392 C1395 1.386 . S
H1393 C1409 0.930 . S
H1394 C1410 0.931 . S
C1395 H1383 0.929 . S
C1395 C1389 1.390 . S
C1395 C1392 1.386 . S
C1396 C1391 1.490 . S
C1396 C1398 1.395 . S
C1396 C1399 1.403 . S
H1397 C1403 0.930 . S
C1398 H1384 0.930 . S
C1398 C1396 1.395 . S
C1398 C1401 1.403 . S
C1399 C1396 1.403 . S
C1399 C1400 1.524 . S
C1399 C1403 1.400 . S
C1400 H1385 0.960 . S
C1400 H1386 0.960 . S
C1400 H1387 0.960 . S
C1400 C1399 1.524 . S
C1401 C1398 1.403 . S
C1401 C1402 1.392 . S
C1401 C1405 1.495 . S
C1402 C1401 1.392 . S
C1402 C1403 1.385 . S
C1402 C1404 1.478 . S
C1403 H1397 0.930 . S
C1403 C1399 1.400 . S
C1403 C1402 1.385 . S
C1404 C1402 1.478 . S
C1404 C1406 1.381 . S
C1404 C1410 1.383 . S
C1405 C1401 1.495 . S
C1405 H1411 0.959 . S
C1405 H1412 0.961 . S
C1405 H1413 0.960 . S
C1406 C1404 1.381 . S
C1406 C1407 1.394 . S
C1406 H1414 0.930 . S
C1407 C1406 1.394 . S
C1407 C1408 1.383 . S
C1407 H1415 0.929 . S
C1408 C1407 1.383 . S
C1408 C1409 1.377 . S
C1409 H1393 0.930 . S
C1409 C1408 1.377 . S
C1409 C1410 1.379 . S
C1410 H1394 0.931 . S
C1410 C1404 1.383 . S
C1410 C1409 1.379 . S
H1411 C1405 0.959 . S
H1412 C1405 0.961 . S
H1413 C1405 0.960 . S
H1414 C1406 0.930 . S
H1415 C1407 0.929 . S
H1416 C1424 0.929 . S
H1417 C1426 0.930 . S
H1418 C1428 0.930 . S
H1419 C1431 0.929 . S
H1420 C1434 0.930 . S
H1421 C1436 0.960 . S
H1422 C1436 0.960 . S
H1423 C1436 0.960 . S
C1424 H1416 0.929 . S
C1424 C1425 1.377 . S
C1424 C1426 1.384 . S
C1425 C1424 1.377 . S
C1425 C1431 1.390 . S
C1426 H1417 0.930 . S
C1426 C1424 1.384 . S
C1426 C1427 1.372 . S
C1427 C1426 1.372 . S
C1427 C1428 1.400 . S
C1427 C1432 1.490 . S
C1428 H1418 0.930 . S
C1428 C1427 1.400 . S
C1428 C1431 1.386 . S
H1429 C1445 0.930 . S
H1430 C1446 0.931 . S
C1431 H1419 0.929 . S
C1431 C1425 1.390 . S
C1431 C1428 1.386 . S
C1432 C1427 1.490 . S
C1432 C1434 1.395 . S
C1432 C1435 1.403 . S
H1433 C1439 0.930 . S
C1434 H1420 0.930 . S
C1434 C1432 1.395 . S
C1434 C1437 1.403 . S
C1435 C1432 1.403 . S
C1435 C1436 1.524 . S
C1435 C1439 1.400 . S
C1436 H1421 0.960 . S
C1436 H1422 0.960 . S
C1436 H1423 0.960 . S
C1436 C1435 1.524 . S
C1437 C1434 1.403 . S
C1437 C1438 1.392 . S
C1437 C1441 1.495 . S
C1438 C1437 1.392 . S
C1438 C1439 1.385 . S
C1438 C1440 1.478 . S
C1439 H1433 0.930 . S
C1439 C1435 1.400 . S
C1439 C1438 1.385 . S
C1440 C1438 1.478 . S
C1440 C1442 1.381 . S
C1440 C1446 1.383 . S
C1441 C1437 1.495 . S
C1441 H1447 0.959 . S
C1441 H1448 0.961 . S
C1441 H1449 0.960 . S
C1442 C1440 1.381 . S
C1442 C1443 1.394 . S
C1442 H1450 0.930 . S
C1443 C1442 1.394 . S
C1443 C1444 1.383 . S
C1443 H1451 0.929 . S
C1444 C1443 1.383 . S
C1444 C1445 1.377 . S
C1445 H1429 0.930 . S
C1445 C1444 1.377 . S
C1445 C1446 1.379 . S
C1446 H1430 0.931 . S
C1446 C1440 1.383 . S
C1446 C1445 1.379 . S
H1447 C1441 0.959 . S
H1448 C1441 0.961 . S
H1449 C1441 0.960 . S
H1450 C1442 0.930 . S
H1451 C1443 0.929 . S
H1452 C1460 0.929 . S
H1453 C1462 0.930 . S
H1454 C1464 0.930 . S
H1455 C1467 0.929 . S
H1456 C1470 0.930 . S
H1457 C1472 0.960 . S
H1458 C1472 0.960 . S
H1459 C1472 0.960 . S
C1460 H1452 0.929 . S
C1460 C1461 1.377 . S
C1460 C1462 1.384 . S
C1461 C1460 1.377 . S
C1461 C1467 1.390 . S
C1462 H1453 0.930 . S
C1462 C1460 1.384 . S
C1462 C1463 1.372 . S
C1463 C1462 1.372 . S
C1463 C1464 1.400 . S
C1463 C1468 1.490 . S
C1464 H1454 0.930 . S
C1464 C1463 1.400 . S
C1464 C1467 1.386 . S
H1465 C1481 0.930 . S
H1466 C1482 0.931 . S
C1467 H1455 0.929 . S
C1467 C1461 1.390 . S
C1467 C1464 1.386 . S
C1468 C1463 1.490 . S
C1468 C1470 1.395 . S
C1468 C1471 1.403 . S
H1469 C1475 0.930 . S
C1470 H1456 0.930 . S
C1470 C1468 1.395 . S
C1470 C1473 1.403 . S
C1471 C1468 1.403 . S
C1471 C1472 1.524 . S
C1471 C1475 1.400 . S
C1472 H1457 0.960 . S
C1472 H1458 0.960 . S
C1472 H1459 0.960 . S
C1472 C1471 1.524 . S
C1473 C1470 1.403 . S
C1473 C1474 1.392 . S
C1473 C1477 1.495 . S
C1474 C1473 1.392 . S
C1474 C1475 1.385 . S
C1474 C1476 1.478 . S
C1475 H1469 0.930 . S
C1475 C1471 1.400 . S
C1475 C1474 1.385 . S
C1476 C1474 1.478 . S
C1476 C1478 1.381 . S
C1476 C1482 1.383 . S
C1477 C1473 1.495 . S
C1477 H1483 0.959 . S
C1477 H1484 0.961 . S
C1477 H1485 0.960 . S
C1478 C1476 1.381 . S
C1478 C1479 1.394 . S
C1478 H1486 0.930 . S
C1479 C1478 1.394 . S
C1479 C1480 1.383 . S
C1479 H1487 0.929 . S
C1480 C1479 1.383 . S
C1480 C1481 1.377 . S
C1481 H1465 0.930 . S
C1481 C1480 1.377 . S
C1481 C1482 1.379 . S
C1482 H1466 0.931 . S
C1482 C1476 1.383 . S
C1482 C1481 1.379 . S
H1483 C1477 0.959 . S
H1484 C1477 0.961 . S
H1485 C1477 0.960 . S
H1486 C1478 0.930 . S
H1487 C1479 0.929 . S
H1488 C1496 0.929 . S
H1489 C1498 0.930 . S
H1490 C1500 0.930 . S
H1491 C1503 0.929 . S
H1492 C1506 0.930 . S
H1493 C1508 0.960 . S
H1494 C1508 0.960 . S
H1495 C1508 0.960 . S
C1496 H1488 0.929 . S
C1496 C1497 1.377 . S
C1496 C1498 1.384 . S
C1497 C1496 1.377 . S
C1497 C1503 1.390 . S
C1498 H1489 0.930 . S
C1498 C1496 1.384 . S
C1498 C1499 1.372 . S
C1499 C1498 1.372 . S
C1499 C1500 1.400 . S
C1499 C1504 1.490 . S
C1500 H1490 0.930 . S
C1500 C1499 1.400 . S
C1500 C1503 1.386 . S
H1501 C1517 0.930 . S
H1502 C1518 0.931 . S
C1503 H1491 0.929 . S
C1503 C1497 1.390 . S
C1503 C1500 1.386 . S
C1504 C1499 1.490 . S
C1504 C1506 1.395 . S
C1504 C1507 1.403 . S
H1505 C1511 0.930 . S
C1506 H1492 0.930 . S
C1506 C1504 1.395 . S
C1506 C1509 1.403 . S
C1507 C1504 1.403 . S
C1507 C1508 1.524 . S
C1507 C1511 1.400 . S
C1508 H1493 0.960 . S
C1508 H1494 0.960 . S
C1508 H1495 0.960 . S
C1508 C1507 1.524 . S
C1509 C1506 1.403 . S
C1509 C1510 1.392 . S
C1509 C1513 1.495 . S
C1510 C1509 1.392 . S
C1510 C1511 1.385 . S
C1510 C1512 1.478 . S
C1511 H1505 0.930 . S
C1511 C1507 1.400 . S
C1511 C1510 1.385 . S
C1512 C1510 1.478 . S
C1512 C1514 1.381 . S
C1512 C1518 1.383 . S
C1513 C1509 1.495 . S
C1513 H1519 0.959 . S
C1513 H1520 0.961 . S
C1513 H1521 0.960 . S
C1514 C1512 1.381 . S
C1514 C1515 1.394 . S
C1514 H1522 0.930 . S
C1515 C1514 1.394 . S
C1515 C1516 1.383 . S
C1515 H1523 0.929 . S
C1516 C1515 1.383 . S
C1516 C1517 1.377 . S
C1517 H1501 0.930 . S
C1517 C1516 1.377 . S
C1517 C1518 1.379 . S
C1518 H1502 0.931 . S
C1518 C1512 1.383 . S
C1518 C1517 1.379 . S
H1519 C1513 0.959 . S
H1520 C1513 0.961 . S
H1521 C1513 0.960 . S
H1522 C1514 0.930 . S
H1523 C1515 0.929 . S
H1524 C1532 0.929 . S
H1525 C1534 0.930 . S
H1526 C1536 0.930 . S
H1527 C1539 0.929 . S
H1528 C1542 0.930 . S
H1529 C1544 0.960 . S
H1530 C1544 0.960 . S
H1531 C1544 0.960 . S
C1532 H1524 0.929 . S
C1532 C1533 1.377 . S
C1532 C1534 1.384 . S
C1533 C1532 1.377 . S
C1533 C1539 1.390 . S
C1534 H1525 0.930 . S
C1534 C1532 1.384 . S
C1534 C1535 1.372 . S
C1535 C1534 1.372 . S
C1535 C1536 1.400 . S
C1535 C1540 1.490 . S
C1536 H1526 0.930 . S
C1536 C1535 1.400 . S
C1536 C1539 1.386 . S
H1537 C1553 0.930 . S
H1538 C1554 0.931 . S
C1539 H1527 0.929 . S
C1539 C1533 1.390 . S
C1539 C1536 1.386 . S
C1540 C1535 1.490 . S
C1540 C1542 1.395 . S
C1540 C1543 1.403 . S
H1541 C1547 0.930 . S
C1542 H1528 0.930 . S
C1542 C1540 1.395 . S
C1542 C1545 1.403 . S
C1543 C1540 1.403 . S
C1543 C1544 1.524 . S
C1543 C1547 1.400 . S
C1544 H1529 0.960 . S
C1544 H1530 0.960 . S
C1544 H1531 0.960 . S
C1544 C1543 1.524 . S
C1545 C1542 1.403 . S
C1545 C1546 1.392 . S
C1545 C1549 1.495 . S
C1546 C1545 1.392 . S
C1546 C1547 1.385 . S
C1546 C1548 1.478 . S
C1547 H1541 0.930 . S
C1547 C1543 1.400 . S
C1547 C1546 1.385 . S
C1548 C1546 1.478 . S
C1548 C1550 1.381 . S
C1548 C1554 1.383 . S
C1549 C1545 1.495 . S
C1549 H1555 0.959 . S
C1549 H1556 0.961 . S
C1549 H1557 0.960 . S
C1550 C1548 1.381 . S
C1550 C1551 1.394 . S
C1550 H1558 0.930 . S
C1551 C1550 1.394 . S
C1551 C1552 1.383 . S
C1551 H1559 0.929 . S
C1552 C1551 1.383 . S
C1552 C1553 1.377 . S
C1553 H1537 0.930 . S
C1553 C1552 1.377 . S
C1553 C1554 1.379 . S
C1554 H1538 0.931 . S
C1554 C1548 1.383 . S
C1554 C1553 1.379 . S
H1555 C1549 0.959 . S
H1556 C1549 0.961 . S
H1557 C1549 0.960 . S
H1558 C1550 0.930 . S
H1559 C1551 0.929 . S
H1560 C1568 0.929 . S
H1561 C1570 0.930 . S
H1562 C1572 0.930 . S
H1563 C1575 0.929 . S
H1564 C1578 0.930 . S
H1565 C1580 0.960 . S
H1566 C1580 0.960 . S
H1567 C1580 0.960 . S
C1568 H1560 0.929 . S
C1568 C1569 1.377 . S
C1568 C1570 1.384 . S
C1569 C1568 1.377 . S
C1569 C1575 1.390 . S
C1570 H1561 0.930 . S
C1570 C1568 1.384 . S
C1570 C1571 1.372 . S
C1571 C1570 1.372 . S
C1571 C1572 1.400 . S
C1571 C1576 1.490 . S
C1572 H1562 0.930 . S
C1572 C1571 1.400 . S
C1572 C1575 1.386 . S
H1573 C1589 0.930 . S
H1574 C1590 0.931 . S
C1575 H1563 0.929 . S
C1575 C1569 1.390 . S
C1575 C1572 1.386 . S
C1576 C1571 1.490 . S
C1576 C1578 1.395 . S
C1576 C1579 1.403 . S
H1577 C1583 0.930 . S
C1578 H1564 0.930 . S
C1578 C1576 1.395 . S
C1578 C1581 1.403 . S
C1579 C1576 1.403 . S
C1579 C1580 1.524 . S
C1579 C1583 1.400 . S
C1580 H1565 0.960 . S
C1580 H1566 0.960 . S
C1580 H1567 0.960 . S
C1580 C1579 1.524 . S
C1581 C1578 1.403 . S
C1581 C1582 1.392 . S
C1581 C1585 1.495 . S
C1582 C1581 1.392 . S
C1582 C1583 1.385 . S
C1582 C1584 1.478 . S
C1583 H1577 0.930 . S
C1583 C1579 1.400 . S
C1583 C1582 1.385 . S
C1584 C1582 1.478 . S
C1584 C1586 1.381 . S
C1584 C1590 1.383 . S
C1585 C1581 1.495 . S
C1585 H1591 0.959 . S
C1585 H1592 0.961 . S
C1585 H1593 0.960 . S
C1586 C1584 1.381 . S
C1586 C1587 1.394 . S
C1586 H1594 0.930 . S
C1587 C1586 1.394 . S
C1587 C1588 1.383 . S
C1587 H1595 0.929 . S
C1588 C1587 1.383 . S
C1588 C1589 1.377 . S
C1589 H1573 0.930 . S
C1589 C1588 1.377 . S
C1589 C1590 1.379 . S
C1590 H1574 0.931 . S
C1590 C1584 1.383 . S
C1590 C1589 1.379 . S
H1591 C1585 0.959 . S
H1592 C1585 0.961 . S
H1593 C1585 0.960 . S
H1594 C1586 0.930 . S
H1595 C1587 0.929 . S
H1596 C1604 0.929 . S
H1597 C1606 0.930 . S
H1598 C1608 0.930 . S
H1599 C1611 0.929 . S
H1600 C1614 0.930 . S
H1601 C1616 0.960 . S
H1602 C1616 0.960 . S
H1603 C1616 0.960 . S
C1604 H1596 0.929 . S
C1604 C1605 1.377 . S
C1604 C1606 1.384 . S
C1605 C1604 1.377 . S
C1605 C1611 1.390 . S
C1606 H1597 0.930 . S
C1606 C1604 1.384 . S
C1606 C1607 1.372 . S
C1607 C1606 1.372 . S
C1607 C1608 1.400 . S
C1607 C1612 1.490 . S
C1608 H1598 0.930 . S
C1608 C1607 1.400 . S
C1608 C1611 1.386 . S
H1609 C1625 0.930 . S
H1610 C1626 0.931 . S
C1611 H1599 0.929 . S
C1611 C1605 1.390 . S
C1611 C1608 1.386 . S
C1612 C1607 1.490 . S
C1612 C1614 1.395 . S
C1612 C1615 1.403 . S
H1613 C1619 0.930 . S
C1614 H1600 0.930 . S
C1614 C1612 1.395 . S
C1614 C1617 1.403 . S
C1615 C1612 1.403 . S
C1615 C1616 1.524 . S
C1615 C1619 1.400 . S
C1616 H1601 0.960 . S
C1616 H1602 0.960 . S
C1616 H1603 0.960 . S
C1616 C1615 1.524 . S
C1617 C1614 1.403 . S
C1617 C1618 1.392 . S
C1617 C1621 1.495 . S
C1618 C1617 1.392 . S
C1618 C1619 1.385 . S
C1618 C1620 1.478 . S
C1619 H1613 0.930 . S
C1619 C1615 1.400 . S
C1619 C1618 1.385 . S
C1620 C1618 1.478 . S
C1620 C1622 1.381 . S
C1620 C1626 1.383 . S
C1621 C1617 1.495 . S
C1621 H1627 0.959 . S
C1621 H1628 0.961 . S
C1621 H1629 0.960 . S
C1622 C1620 1.381 . S
C1622 C1623 1.394 1_554 S
C1622 H1630 0.930 . S
C1623 C1622 1.394 1_556 S
C1623 C1624 1.383 . S
C1623 H1631 0.929 . S
C1624 C1623 1.383 . S
C1624 C1625 1.377 . S
C1625 H1609 0.930 . S
C1625 C1624 1.377 . S
C1625 C1626 1.379 1_556 S
C1626 H1610 0.931 . S
C1626 C1620 1.383 . S
C1626 C1625 1.379 1_554 S
H1627 C1621 0.959 . S
H1628 C1621 0.961 . S
H1629 C1621 0.960 . S
H1630 C1622 0.930 . S
H1631 C1623 0.929 . S
H1632 C1640 0.929 . S
H1633 C1642 0.930 . S
H1634 C1644 0.930 . S
H1635 C1647 0.929 . S
H1636 C1650 0.930 . S
H1637 C1652 0.960 . S
H1638 C1652 0.960 . S
H1639 C1652 0.960 . S
C1640 H1632 0.929 . S
C1640 C1641 1.377 . S
C1640 C1642 1.384 . S
C1641 C1640 1.377 . S
C1641 C1647 1.390 . S
C1642 H1633 0.930 . S
C1642 C1640 1.384 . S
C1642 C1643 1.372 . S
C1643 C1642 1.372 . S
C1643 C1644 1.400 . S
C1643 C1648 1.490 . S
C1644 H1634 0.930 . S
C1644 C1643 1.400 . S
C1644 C1647 1.386 . S
H1645 C1661 0.930 . S
H1646 C1662 0.931 . S
C1647 H1635 0.929 . S
C1647 C1641 1.390 . S
C1647 C1644 1.386 . S
C1648 C1643 1.490 . S
C1648 C1650 1.395 . S
C1648 C1651 1.403 . S
H1649 C1655 0.930 . S
C1650 H1636 0.930 . S
C1650 C1648 1.395 . S
C1650 C1653 1.403 . S
C1651 C1648 1.403 . S
C1651 C1652 1.524 . S
C1651 C1655 1.400 . S
C1652 H1637 0.960 . S
C1652 H1638 0.960 . S
C1652 H1639 0.960 . S
C1652 C1651 1.524 . S
C1653 C1650 1.403 . S
C1653 C1654 1.392 . S
C1653 C1657 1.495 . S
C1654 C1653 1.392 . S
C1654 C1655 1.385 . S
C1654 C1656 1.478 . S
C1655 H1649 0.930 . S
C1655 C1651 1.400 . S
C1655 C1654 1.385 . S
C1656 C1654 1.478 . S
C1656 C1658 1.381 . S
C1656 C1662 1.383 . S
C1657 C1653 1.495 . S
C1657 H1663 0.959 . S
C1657 H1664 0.961 . S
C1657 H1665 0.960 . S
C1658 C1656 1.381 . S
C1658 C1659 1.394 . S
C1658 H1666 0.930 . S
C1659 C1658 1.394 . S
C1659 C1660 1.383 . S
C1659 H1667 0.929 . S
C1660 C1659 1.383 . S
C1660 C1661 1.377 . S
C1661 H1645 0.930 . S
C1661 C1660 1.377 . S
C1661 C1662 1.379 . S
C1662 H1646 0.931 . S
C1662 C1656 1.383 . S
C1662 C1661 1.379 . S
H1663 C1657 0.959 . S
H1664 C1657 0.961 . S
H1665 C1657 0.960 . S
H1666 C1658 0.930 . S
H1667 C1659 0.929 . S
C832 C745 1.604 . S
C813 C15 1.575 . S
C849 C61 1.568 . S
C868 C305 1.580 . S
C885 C114 1.574 . S
C904 C393 1.589 . S
C921 C139 1.584 . S
C940 C472 1.583 . S
C976 C569 1.602 . S
C957 C185 1.591 . S
C993 C245 1.569 . S
C1012 C648 1.584 . S
C1029 C47 1.588 . S
C1048 C413 1.599 . S
C1065 C100 1.590 . S
C1084 C509 1.605 . S
C1101 C153 1.576 . S
C1120 C589 1.599 . S
C1156 C685 1.594 . S
C1137 C199 1.575 . S
C1192 C765 1.604 . S
C1173 C231 1.590 . S
C1228 C325 1.589 . S
C1209 C1 1.586 . S
C1245 C22 1.439 . S
C1264 C421 1.433 . S
C1281 C68 1.438 . S
C1300 C501 1.427 . S
C1336 C597 1.433 . S
C1317 C107 1.440 . S
C1353 C146 1.442 . S
C1372 C677 1.443 . S
C1408 C773 1.436 . S
C1389 C192 1.441 . S
C1444 C333 1.443 . S
C1425 C252 1.441 . S
C1480 C736 1.439 . S
C1461 C54 1.442 . S
C1497 C93 1.440 . S
C1516 C296 1.428 . S
C1552 C384 1.427 . S
C1533 C160 1.438 . S
C1569 C206 1.439 . S
C1588 C481 1.436 . S
C1605 C238 1.439 . S
C1624 C560 1.429 . S
C1641 C8 1.441 . S
C1660 C657 1.443 . S
