# Generated by pormake.
# Topology pyr, (3,6)-cn, num edge types: 1
# Building blocks:
#     Node 0, Type 0, BuildingBlock: BETDAH_clean_linker_0, # of connection points: 3
#     Node 1, Type 0, BuildingBlock: BETDAH_clean_linker_0, # of connection points: 3
#     Node 2, Type 0, BuildingBlock: BETDAH_clean_linker_0, # of connection points: 3
#     Node 3, Type 0, BuildingBlock: BETDAH_clean_linker_0, # of connection points: 3
#     Node 4, Type 0, BuildingBlock: BETDAH_clean_linker_0, # of connection points: 3
#     Node 5, Type 0, BuildingBlock: BETDAH_clean_linker_0, # of connection points: 3
#     Node 6, Type 0, BuildingBlock: BETDAH_clean_linker_0, # of connection points: 3
#     Node 7, Type 0, BuildingBlock: BETDAH_clean_linker_0, # of connection points: 3
#     Node 8, Type 1, BuildingBlock: CIFDUS_clean_sbu_1, # of connection points: 6
#     Node 9, Type 1, BuildingBlock: CIFDUS_clean_sbu_1, # of connection points: 6
#     Node 10, Type 1, BuildingBlock: CIFDUS_clean_sbu_1, # of connection points: 6
#     Node 11, Type 1, BuildingBlock: CIFDUS_clean_sbu_1, # of connection points: 6
#     Edge 12, Type (0, 1), BuildingBlock: UVAHIK_clean_linker_0, # of connection points: 2
#     Edge 13, Type (0, 1), BuildingBlock: UVAHIK_clean_linker_0, # of connection points: 2
#     Edge 14, Type (0, 1), BuildingBlock: UVAHIK_clean_linker_0, # of connection points: 2
#     Edge 15, Type (0, 1), BuildingBlock: UVAHIK_clean_linker_0, # of connection points: 2
#     Edge 16, Type (0, 1), BuildingBlock: UVAHIK_clean_linker_0, # of connection points: 2
#     Edge 17, Type (0, 1), BuildingBlock: UVAHIK_clean_linker_0, # of connection points: 2
#     Edge 18, Type (0, 1), BuildingBlock: UVAHIK_clean_linker_0, # of connection points: 2
#     Edge 19, Type (0, 1), BuildingBlock: UVAHIK_clean_linker_0, # of connection points: 2
#     Edge 20, Type (0, 1), BuildingBlock: UVAHIK_clean_linker_0, # of connection points: 2
#     Edge 21, Type (0, 1), BuildingBlock: UVAHIK_clean_linker_0, # of connection points: 2
#     Edge 22, Type (0, 1), BuildingBlock: UVAHIK_clean_linker_0, # of connection points: 2
#     Edge 23, Type (0, 1), BuildingBlock: UVAHIK_clean_linker_0, # of connection points: 2
#     Edge 24, Type (0, 1), BuildingBlock: UVAHIK_clean_linker_0, # of connection points: 2
#     Edge 25, Type (0, 1), BuildingBlock: UVAHIK_clean_linker_0, # of connection points: 2
#     Edge 26, Type (0, 1), BuildingBlock: UVAHIK_clean_linker_0, # of connection points: 2
#     Edge 27, Type (0, 1), BuildingBlock: UVAHIK_clean_linker_0, # of connection points: 2
#     Edge 28, Type (0, 1), BuildingBlock: UVAHIK_clean_linker_0, # of connection points: 2
#     Edge 29, Type (0, 1), BuildingBlock: UVAHIK_clean_linker_0, # of connection points: 2
#     Edge 30, Type (0, 1), BuildingBlock: UVAHIK_clean_linker_0, # of connection points: 2
#     Edge 31, Type (0, 1), BuildingBlock: UVAHIK_clean_linker_0, # of connection points: 2
#     Edge 32, Type (0, 1), BuildingBlock: UVAHIK_clean_linker_0, # of connection points: 2
#     Edge 33, Type (0, 1), BuildingBlock: UVAHIK_clean_linker_0, # of connection points: 2
#     Edge 34, Type (0, 1), BuildingBlock: UVAHIK_clean_linker_0, # of connection points: 2
#     Edge 35, Type (0, 1), BuildingBlock: UVAHIK_clean_linker_0, # of connection points: 2
# Relax obj value: 0.081
# Max RMSD: 0.173
# Mean RMSD: 0.138
data_MOF--net-pry--node1-CIFDUS_clean_sbu_1--node2-BETDAH_clean_linker_0--edge1-UVAHIK_clean_linker_0
_symmetry_space_group_name_H-M    P1
_symmetry_Int_Tables_number       1
_symmetry_cell_setting            triclinic
loop_
_symmetry_equiv_pos_as_xyz
'x, y, z'
_cell_length_a     46.645142
_cell_length_b     45.623496
_cell_length_c     46.966961
_cell_angle_alpha  92.504731
_cell_angle_beta   91.828274
_cell_angle_gamma 99.812432
loop_
_atom_site_label
_atom_site_type_symbol
_atom_site_fract_x
_atom_site_fract_y
_atom_site_fract_z
_atom_type_partial_charge
H0 H 0.18508 0.14162 0.20238 0.0
H1 H 0.19713 0.19719 0.13066 0.0
H2 H 0.13339 0.21081 0.19158 0.0
C3 C 0.17945 0.15972 0.19041 0.0
C4 C 0.15756 0.17521 0.20039 0.0
C5 C 0.19397 0.16712 0.16516 0.0
C6 C 0.1861 0.19061 0.14992 0.0
C7 C 0.16445 0.20643 0.15903 0.0
C8 C 0.1503 0.19892 0.18454 0.0
N9 N 0.15773 0.22895 0.14094 0.0
C10 C 0.13927 0.24982 0.14489 0.0
H11 H 0.41282 0.87659 0.69495 0.0
H12 H 0.37016 0.95152 0.67934 0.0
H13 H 0.37983 0.88986 0.6106 0.0
C14 C 0.40099 0.88878 0.68074 0.0
C15 C 0.39691 0.87932 0.65164 0.0
C16 C 0.39149 0.91488 0.69123 0.0
C17 C 0.37735 0.93121 0.67207 0.0
C18 C 0.37319 0.92205 0.64315 0.0
C19 C 0.38293 0.89631 0.63311 0.0
N20 N 0.36373 0.94114 0.62325 0.0
C21 C 0.33462 0.94267 0.61749 0.0
H22 H 0.69259 0.3459 0.91368 0.0
H23 H 0.66823 0.42242 0.87543 0.0
H24 H 0.60798 0.34012 0.87201 0.0
C25 C 0.67674 0.35587 0.90189 0.0
C26 C 0.6496 0.33864 0.89339 0.0
C27 C 0.68345 0.38624 0.8963 0.0
C28 C 0.66337 0.39911 0.88018 0.0
C29 C 0.63654 0.38203 0.87086 0.0
C30 C 0.62944 0.35232 0.87816 0.0
N31 N 0.61554 0.39494 0.85576 0.0
C32 C 0.62041 0.40592 0.82891 0.0
H33 H 0.86222 0.68354 0.45381 0.0
H34 H 0.90659 0.67141 0.37622 0.0
H35 H 0.82992 0.60982 0.39455 0.0
C36 C 0.86391 0.67087 0.43405 0.0
C37 C 0.8428 0.64576 0.42639 0.0
C38 C 0.88693 0.68032 0.41615 0.0
C39 C 0.88892 0.6643 0.39014 0.0
C40 C 0.86856 0.63833 0.38291 0.0
C41 C 0.84586 0.62932 0.40104 0.0
N42 N 0.87066 0.61958 0.35847 0.0
C43 C 0.88134 0.62854 0.33238 0.0
H44 H 0.89756 0.85922 0.8396 0.0
H45 H 0.86191 0.88195 0.91947 0.0
H46 H 0.85649 0.93688 0.84854 0.0
C47 C 0.8858 0.87337 0.85214 0.0
C48 C 0.87725 0.89853 0.83991 0.0
C49 C 0.88042 0.86699 0.88086 0.0
C50 C 0.86547 0.88584 0.89716 0.0
C51 C 0.8559 0.91041 0.88526 0.0
C52 C 0.86204 0.91668 0.85682 0.0
N53 N 0.84665 0.93242 0.90354 0.0
C54 C 0.81775 0.93439 0.90914 0.0
H55 H 0.68476 0.1352 0.38197 0.0
H56 H 0.69962 0.21468 0.43707 0.0
H57 H 0.63442 0.20492 0.36952 0.0
C58 C 0.67926 0.15662 0.38826 0.0
C59 C 0.65706 0.16741 0.37296 0.0
C60 C 0.69481 0.1734 0.41146 0.0
C61 C 0.68713 0.20087 0.42008 0.0
C62 C 0.66493 0.21188 0.40531 0.0
C63 C 0.65021 0.19526 0.38177 0.0
N64 N 0.66169 0.24202 0.41009 0.0
C65 C 0.64424 0.25189 0.4307 0.0
H66 H 0.34706 0.74079 0.15778 0.0
H67 H 0.33348 0.65329 0.19134 0.0
H68 H 0.38726 0.72641 0.23842 0.0
C69 C 0.3509 0.72567 0.1741 0.0
C70 C 0.36901 0.73675 0.198 0.0
C71 C 0.33731 0.69567 0.17155 0.0
C72 C 0.34287 0.67675 0.19316 0.0
C73 C 0.36024 0.68764 0.21748 0.0
C74 C 0.37321 0.71787 0.22003 0.0
N75 N 0.36471 0.6671 0.23832 0.0
C76 C 0.37359 0.67438 0.26666 0.0
H77 H 0.13925 0.38618 0.59899 0.0
H78 H 0.14364 0.4442 0.67464 0.0
H79 H 0.06498 0.38329 0.65131 0.0
C80 C 0.12895 0.39473 0.61718 0.0
C81 C 0.1002 0.38208 0.62276 0.0
C82 C 0.14497 0.41721 0.63571 0.0
C83 C 0.1318 0.42674 0.66029 0.0
C84 C 0.10294 0.41441 0.66585 0.0
C85 C 0.08727 0.39257 0.64687 0.0
N86 N 0.08864 0.42365 0.69003 0.0
C87 C 0.10247 0.43589 0.71556 0.0
O88 O 0.96649 0.05638 0.50892 0.0
Mn89 Mn 0.00387 0.0363 0.51412 0.0
O90 O 0.93952 0.03135 0.47208 0.0
Mn91 Mn 0.9682 0.01132 0.45907 0.0
O92 O 0.04129 0.01641 0.51928 0.0
O93 O 0.02247 0.07196 0.53851 0.0
Mn94 Mn 0.03949 0.06142 0.56953 0.0
O95 O 0.98552 0.01525 0.55071 0.0
O96 O 0.06784 0.04091 0.55674 0.0
O97 O 0.02255 0.05723 0.4776 0.0
O98 O 0.99757 0.03301 0.43922 0.0
O99 O 0.04616 0.10257 0.57108 0.0
O100 O 0.01053 0.03906 0.58937 0.0
C101 C 0.97693 0.97316 0.48038 0.0
C102 C 0.94314 0.05083 0.49274 0.0
C103 C 0.0643 0.02165 0.53591 0.0
C104 C 0.0317 0.09929 0.54685 0.0
C105 C 0.99012 0.01943 0.57805 0.0
C106 C 0.01843 0.05228 0.45029 0.0
O107 O 0.98535 1.00034 0.48982 0.0
O108 O 0.96215 0.9703 0.45635 0.0
O109 O 0.48381 0.02281 1.00019 0.0
Mn110 Mn 0.49986 0.03272 0.04273 0.0
O111 O 0.4821 0.97345 0.99159 0.0
Mn112 Mn 0.49997 0.96614 0.02571 0.0
O113 O 0.51626 0.04311 0.08504 0.0
O114 O 0.51066 0.0754 0.03366 0.0
Mn115 Mn 0.49746 0.09893 0.05888 0.0
O116 O 0.45756 0.0394 0.05507 0.0
O117 O 0.51434 0.09186 0.0937 0.0
O118 O 0.542 0.0256 0.03036 0.0
O119 O 0.54011 0.97582 0.02685 0.0
O120 O 0.51739 0.12349 0.03312 0.0
O121 O 0.45744 0.08876 0.05618 0.0
C122 C 0.47778 0.96687 0.06499 0.0
C123 C 0.47806 0.99892 0.98382 0.0
C124 C 0.5203 0.06701 0.10147 0.0
C125 C 0.52199 0.09878 0.02104 0.0
C126 C 0.4443 0.06207 0.05751 0.0
C127 C 0.55422 0.00232 0.02655 0.0
O128 O 0.4888 0.99005 0.05187 0.0
O129 O 0.48071 0.94194 0.05217 0.0
O130 O 0.54149 0.55852 0.53508 0.0
Mn131 Mn 0.50014 0.54525 0.55014 0.0
O132 O 0.5401 0.53706 0.49062 0.0
Mn133 Mn 0.50084 0.51937 0.48817 0.0
O134 O 0.45837 0.53147 0.56492 0.0
O135 O 0.51716 0.54808 0.58996 0.0
Mn136 Mn 0.49765 0.56772 0.61322 0.0
O137 O 0.49391 0.5902 0.5532 0.0
O138 O 0.46012 0.54584 0.61158 0.0
O139 O 0.50688 0.50036 0.54747 0.0
O140 O 0.49297 0.48229 0.50309 0.0
O141 O 0.52707 0.55629 0.6352 0.0
O142 O 0.5014 0.6054 0.59955 0.0
C143 C 0.46916 0.54855 0.48788 0.0
C144 C 0.55364 0.55274 0.51177 0.0
C145 C 0.44653 0.5327 0.58923 0.0
C146 C 0.53354 0.54399 0.61148 0.0
C147 C 0.49692 0.61061 0.57351 0.0
C148 C 0.50099 0.47855 0.52861 0.0
O149 O 0.48354 0.54262 0.51013 0.0
O150 O 0.47426 0.53395 0.4649 0.0
O151 O 0.97393 0.54218 0.0207 0.0
Mn152 Mn 0.01714 0.56486 0.02051 0.0
O153 O 0.95838 0.53405 0.97458 0.0
Mn154 Mn 0.9894 0.55818 0.95943 0.0
O155 O 0.0605 0.5874 0.01959 0.0
O156 O 0.0137 0.57758 0.06173 0.0
Mn157 Mn 0.04656 0.57552 0.08046 0.0
O158 O 0.03194 0.52527 0.03303 0.0
O159 O 0.07482 0.60246 0.06473 0.0
O160 O 1.0023 0.60456 0.00871 0.0
O161 O 0.98864 0.59864 0.9621 0.0
O162 O 0.02301 0.58831 0.10718 0.0
O163 O 0.05169 0.53615 0.07752 0.0
C164 C 0.02971 0.54256 0.95555 0.0
C165 C 0.9548 0.53092 1.00111 0.0
C166 C 0.07879 0.60244 0.03809 0.0
C167 C 0.00454 0.58656 0.08576 0.0
C168 C 0.04481 0.51807 0.05592 0.0
C169 C 0.99319 0.6145 0.9853 0.0
O170 O 0.0205 0.55227 0.97925 0.0
O171 O 0.01229 0.54273 0.93358 0.0
C172 C 0.13451 0.13531 0.2322 0.0
C173 C 0.14243 0.16577 0.22718 0.0
C174 C 0.12288 0.12593 0.25808 0.0
C175 C 0.08812 0.15017 0.32378 0.0
H176 H 0.1121 0.07948 0.35279 0.0
C177 C 0.04859 0.09918 0.43204 0.0
C178 C 0.03857 0.06823 0.42972 0.0
C179 C 0.06371 0.11381 0.40962 0.0
C180 C 0.10504 0.09921 0.34503 0.0
H181 H 0.14314 0.21026 0.24559 0.0
H182 H 0.1228 0.1939 0.29097 0.0
H183 H 0.13227 0.09961 0.30921 0.0
H184 H 0.03766 0.02843 0.40255 0.0
H185 H 0.06418 0.05341 0.36438 0.0
H186 H 0.06069 0.14941 0.35986 0.0
C187 C 0.12558 0.1772 0.27468 0.0
C188 C 0.11654 0.11074 0.31982 0.0
C189 C 0.13724 0.18663 0.24859 0.0
C190 C 0.04508 0.05226 0.40514 0.0
C191 C 0.06044 0.06664 0.38318 0.0
C192 C 0.07662 0.13862 0.3492 0.0
C193 C 0.11874 0.14664 0.28005 0.0
C194 C 0.10781 0.13601 0.30834 0.0
C195 C 0.06965 0.09768 0.38474 0.0
C196 C 0.08445 0.11254 0.35985 0.0
H197 H 0.13746 0.11851 0.21605 0.0
H198 H 0.11712 0.10224 0.26083 0.0
H199 H 0.08074 0.1696 0.31572 0.0
H200 H 0.04366 0.11218 0.45054 0.0
H201 H 0.07059 0.13773 0.41166 0.0
C202 C 0.40602 0.95657 0.72892 0.0
C203 C 0.3978 0.9259 0.72169 0.0
C204 C 0.413 0.96684 0.75728 0.0
C205 C 0.43896 0.9419 0.82562 0.0
H206 H 0.41608 0.01359 0.85836 0.0
C207 C 0.48894 0.9927 0.93303 0.0
C208 C 0.4698 1.00046 0.95338 0.0
C209 C 0.47978 0.98703 0.90443 0.0
C210 C 0.42254 0.99348 0.84956 0.0
H211 H 0.38971 0.88218 0.73919 0.0
H212 H 0.40221 0.90002 0.78847 0.0
H213 H 0.39957 0.99581 0.80956 0.0
H214 H 0.42638 0.00947 0.95981 0.0
H215 H 0.41008 0.99955 0.90938 0.0
H216 H 0.46171 0.9393 0.8654 0.0
C217 C 0.40354 0.91613 0.77209 0.0
C218 C 0.41327 0.9834 0.82152 0.0
C219 C 0.39641 0.90587 0.74376 0.0
C220 C 0.44166 0.00399 0.94438 0.0
C221 C 0.43236 0.99818 0.91556 0.0
C222 C 0.44835 0.95205 0.85343 0.0
C223 C 0.41216 0.94673 0.77922 0.0
C224 C 0.42139 0.95745 0.80919 0.0
C225 C 0.45106 0.9886 0.89545 0.0
C226 C 0.44044 0.97806 0.86577 0.0
H227 H 0.40789 0.97271 0.71256 0.0
H228 H 0.41992 0.9905 0.76189 0.0
H229 H 0.44591 0.92205 0.8168 0.0
H230 H 0.51071 0.98968 0.93953 0.0
H231 H 0.49497 0.9804 0.88949 0.0
C232 C 0.64303 0.43954 0.79292 0.0
C233 C 0.62187 0.41571 0.80014 0.0
C234 C 0.64272 0.45019 0.7654 0.0
C235 C 0.60916 0.43288 0.69176 0.0
H236 H 0.61562 0.51857 0.69083 0.0
C237 C 0.54545 0.49378 0.61466 0.0
C238 C 0.55519 0.52423 0.6116 0.0
C239 C 0.56283 0.47699 0.6296 0.0
C240 C 0.61453 0.49465 0.69027 0.0
H241 H 0.58438 0.38363 0.78484 0.0
H242 H 0.58335 0.40238 0.73698 0.0
H243 H 0.62823 0.49625 0.73418 0.0
H244 H 0.59181 0.56017 0.61797 0.0
H245 H 0.62288 0.53062 0.64258 0.0
H246 H 0.59401 0.43139 0.64802 0.0
C247 C 0.60057 0.41264 0.75207 0.0
C248 C 0.62172 0.48179 0.71535 0.0
C249 C 0.60095 0.40204 0.77952 0.0
C250 C 0.58398 0.5366 0.61989 0.0
C251 C 0.60154 0.51977 0.63445 0.0
C252 C 0.60195 0.44579 0.66656 0.0
C253 C 0.62115 0.43718 0.74476 0.0
C254 C 0.61824 0.45071 0.71673 0.0
C255 C 0.59023 0.49052 0.64157 0.0
C256 C 0.60367 0.47682 0.66576 0.0
H257 H 0.65939 0.45029 0.80866 0.0
H258 H 0.65906 0.46893 0.76043 0.0
H259 H 0.60675 0.40885 0.69193 0.0
H260 H 0.5231 0.48392 0.60881 0.0
H261 H 0.55334 0.45452 0.63451 0.0
C262 C 0.88273 0.60316 0.28578 0.0
C263 C 0.8881 0.62972 0.30265 0.0
C264 C 0.88809 0.6032 0.25673 0.0
C265 C 0.93198 0.64577 0.20408 0.0
H266 H 0.88346 0.58972 0.15065 0.0
C267 C 0.97426 0.62456 0.0951 0.0
C268 C 0.9758 0.5943 0.09046 0.0
C269 C 0.95482 0.63343 0.11444 0.0
C270 C 0.89713 0.60565 0.16522 0.0
H271 H 0.90284 0.67729 0.30294 0.0
H272 H 0.91249 0.67759 0.2517 0.0
H273 H 0.86768 0.59715 0.19913 0.0
H274 H 0.95613 0.54948 0.09949 0.0
H275 H 0.92191 0.56465 0.13285 0.0
H276 H 0.962 0.65341 0.17072 0.0
C277 C 0.90427 0.65662 0.26095 0.0
C278 C 0.88817 0.60982 0.19306 0.0
C279 C 0.8988 0.65653 0.29018 0.0
C280 C 0.95493 0.57294 0.10229 0.0
C281 C 0.93549 0.58174 0.12169 0.0
C282 C 0.94089 0.64166 0.17626 0.0
C283 C 0.89891 0.62989 0.24386 0.0
C284 C 0.90598 0.62917 0.21312 0.0
C285 C 0.93675 0.6121 0.12956 0.0
C286 C 0.92404 0.62084 0.15673 0.0
H287 H 0.87439 0.58223 0.2951 0.0
H288 H 0.88431 0.58213 0.24449 0.0
H289 H 0.94638 0.66064 0.21895 0.0
H290 H 0.99048 0.64144 0.08655 0.0
H291 H 0.95587 0.65698 0.11952 0.0
C292 C 0.23635 0.13941 0.17345 0.0
C293 C 0.21722 0.15049 0.15448 0.0
C294 C 0.25848 0.12471 0.1633 0.0
C295 C 0.28421 0.09012 0.09612 0.0
H296 H 0.35749 0.09964 0.13961 0.0
C297 C 0.39396 0.07208 0.04864 0.0
C298 C 0.41333 0.05879 0.06526 0.0
C299 C 0.3676 0.07767 0.05944 0.0
C300 C 0.33704 0.09637 0.12735 0.0
H301 H 0.20643 0.1535 0.1095 0.0
H302 H 0.24548 0.12971 0.09207 0.0
H303 H 0.31734 0.12125 0.15858 0.0
H304 H 0.41999 0.04055 0.10621 0.0
H305 H 0.37395 0.05052 0.12532 0.0
H306 H 0.3047 0.06645 0.06428 0.0
C307 C 0.24318 0.13167 0.11489 0.0
C308 C 0.31381 0.10877 0.13828 0.0
C309 C 0.22087 0.14599 0.12501 0.0
C310 C 0.40515 0.05006 0.0926 0.0
C311 C 0.379 0.05624 0.10369 0.0
C312 C 0.30761 0.07815 0.08501 0.0
C313 C 0.26252 0.1208 0.13381 0.0
C314 C 0.287 0.10615 0.12276 0.0
C315 C 0.36023 0.07086 0.08751 0.0
C316 C 0.33444 0.08129 0.10036 0.0
H317 H 0.23467 0.14251 0.19627 0.0
H318 H 0.27239 0.11637 0.17877 0.0
H319 H 0.26392 0.08676 0.08363 0.0
H320 H 0.40002 0.07976 0.0278 0.0
H321 H 0.3539 0.08914 0.04643 0.0
C322 C 0.28071 0.92869 0.61394 0.0
C323 C 0.30633 0.94772 0.60752 0.0
C324 C 0.25362 0.93379 0.60328 0.0
C325 C 0.21824 0.99372 0.57414 0.0
H326 H 0.15742 0.929 0.54638 0.0
C327 C 0.11442 0.01986 0.5214 0.0
C328 C 0.08835 0.00504 0.53186 0.0
C329 C 0.14051 0.0094 0.52642 0.0
C330 C 0.17417 0.94729 0.55414 0.0
H331 H 0.32431 0.98646 0.5849 0.0
H332 H 0.27736 0.99532 0.56608 0.0
H333 H 0.20386 0.91804 0.56512 0.0
H334 H 0.06861 0.96708 0.55464 0.0
H335 H 0.11423 0.9485 0.56338 0.0
H336 H 0.18878 0.02296 0.5635 0.0
C337 C 0.27777 0.9768 0.57966 0.0
C338 C 0.20074 0.94102 0.565 0.0
C339 C 0.30469 0.9717 0.59031 0.0
C340 C 0.08839 0.97842 0.54573 0.0
C341 C 0.11456 0.96794 0.55088 0.0
C342 C 0.19186 0.99995 0.56326 0.0
C343 C 0.25182 0.95803 0.58607 0.0
C344 C 0.22318 0.96421 0.57503 0.0
C345 C 0.14113 0.98412 0.54243 0.0
C346 C 0.1695 0.97688 0.55297 0.0
H347 H 0.28164 0.90995 0.62713 0.0
H348 H 0.23409 0.91905 0.60886 0.0
H349 H 0.23468 0.01213 0.58228 0.0
H350 H 0.11496 0.04076 0.51114 0.0
H351 H 0.16047 0.02207 0.51911 0.0
C352 C 0.70966 0.43172 0.92428 0.0
C353 C 0.7105 0.40447 0.90939 0.0
C354 C 0.73408 0.4465 0.9404 0.0
C355 C 0.80062 0.43104 0.97704 0.0
H356 H 0.82929 0.51558 0.9733 0.0
C357 C 0.91941 0.48419 0.99884 0.0
C358 C 0.92657 0.51413 0.00845 0.0
C359 C 0.89034 0.47046 0.99536 0.0
C360 C 0.8212 0.49208 0.97523 0.0
H361 H 0.73815 0.37241 0.89821 0.0
H362 H 0.78062 0.39812 0.92617 0.0
H363 H 0.78385 0.49338 0.94778 0.0
H364 H 0.90948 0.55284 0.02372 0.0
H365 H 0.85831 0.5287 0.01801 0.0
H366 H 0.8383 0.4295 1.00379 0.0
C367 C 0.76092 0.40772 0.926 0.0
C368 C 0.79523 0.47935 0.96042 0.0
C369 C 0.73666 0.39308 0.90985 0.0
C370 C 0.90438 0.5295 0.01682 0.0
C371 C 0.87515 0.51582 0.01311 0.0
C372 C 0.82647 0.44376 0.99191 0.0
C373 C 0.75971 0.4342 0.94201 0.0
C374 C 0.78521 0.44852 0.96041 0.0
C375 C 0.86783 0.48658 1.00106 0.0
C376 C 0.83759 0.47426 0.99043 0.0
H377 H 0.68973 0.44091 0.92458 0.0
H378 H 0.73253 0.46692 0.95247 0.0
H379 H 0.79303 0.40731 0.97802 0.0
H380 H 0.93623 0.47219 0.99168 0.0
H381 H 0.88561 0.44805 0.98577 0.0
C382 C 0.80406 0.60756 0.44619 0.0
C383 C 0.81673 0.63756 0.44381 0.0
C384 C 0.77769 0.6 0.45955 0.0
C385 C 0.71282 0.63257 0.47896 0.0
H386 H 0.69107 0.55657 0.51323 0.0
C387 C 0.59871 0.59049 0.52368 0.0
C388 C 0.58506 0.56382 0.50935 0.0
C389 C 0.62838 0.60103 0.52047 0.0
C390 C 0.697 0.57796 0.5039 0.0
H391 H 0.81198 0.68312 0.45505 0.0
H392 H 0.76705 0.66991 0.47978 0.0
H393 H 0.74141 0.57272 0.50046 0.0
H394 H 0.59187 0.52672 0.48138 0.0
H395 H 0.64373 0.54474 0.47648 0.0
H396 H 0.6682 0.63767 0.48277 0.0
C397 C 0.77696 0.65217 0.4704 0.0
C398 C 0.72574 0.58715 0.49633 0.0
C399 C 0.8031 0.65975 0.45659 0.0
C400 C 0.60174 0.54749 0.49245 0.0
C401 C 0.63142 0.55764 0.48982 0.0
C402 C 0.68421 0.62362 0.48707 0.0
C403 C 0.76347 0.62222 0.47142 0.0
C404 C 0.73389 0.6142 0.48298 0.0
C405 C 0.64493 0.5846 0.50356 0.0
C406 C 0.67593 0.59592 0.49891 0.0
H407 H 0.81418 0.58979 0.43716 0.0
H408 H 0.76799 0.57669 0.45956 0.0
H409 H 0.71797 0.6533 0.46835 0.0
H410 H 0.58633 0.60348 0.53684 0.0
H411 H 0.63842 0.62193 0.53121 0.0
C412 C 0.09787 0.27134 0.12465 0.0
C413 C 0.12447 0.2751 0.14041 0.0
C414 C 0.08651 0.29617 0.11541 0.0
C415 C 0.09513 0.37947 0.12627 0.0
H416 H 0.05871 0.37547 0.05047 0.0
C417 C 0.08003 0.48668 0.07292 0.0
C418 C 0.05342 0.48815 0.05853 0.0
C419 C 0.08692 0.45954 0.08113 0.0
C420 C 0.06854 0.37693 0.07179 0.0
H421 H 0.16015 0.30766 0.15864 0.0
H422 H 0.14066 0.35083 0.14278 0.0
H423 H 0.07319 0.33084 0.06962 0.0
H424 H 0.01368 0.46159 0.04028 0.0
H425 H 0.02576 0.4136 0.05469 0.0
H426 H 0.0909 0.42547 0.12842 0.0
C427 C 0.12796 0.32891 0.13797 0.0
C428 C 0.07684 0.35123 0.08289 0.0
C429 C 0.13921 0.30412 0.1472 0.0
C430 C 0.03446 0.46125 0.05111 0.0
C431 C 0.04137 0.43378 0.05953 0.0
C432 C 0.08699 0.40504 0.11519 0.0
C433 C 0.10161 0.32543 0.12151 0.0
C434 C 0.09071 0.35219 0.11019 0.0
C435 C 0.06736 0.4327 0.07552 0.0
C436 C 0.07403 0.40441 0.08758 0.0
H437 H 0.08634 0.24916 0.11859 0.0
H438 H 0.06606 0.29237 0.10314 0.0
H439 H 0.10496 0.3812 0.1476 0.0
H440 H 0.09532 0.50688 0.07876 0.0
H441 H 0.10751 0.45974 0.09254 0.0
C442 C 0.62289 0.28575 0.88408 0.0
C443 C 0.64203 0.30694 0.9014 0.0
C444 C 0.61498 0.25646 0.89237 0.0
C445 C 0.6151 0.21231 0.95749 0.0
H446 H 0.58759 0.14579 0.90367 0.0
C447 C 0.57054 0.1034 1.00151 0.0
C448 C 0.54033 0.0993 0.99634 0.0
C449 C 0.58914 0.12019 0.98324 0.0
C450 C 0.59572 0.16412 0.91884 0.0
H451 H 0.66798 0.31304 0.94123 0.0
H452 H 0.6567 0.26207 0.95397 0.0
H453 H 0.60857 0.19422 0.88604 0.0
H454 H 0.50595 0.10548 0.96643 0.0
H455 H 0.53841 0.13407 0.93405 0.0
H456 H 0.6024 0.18226 0.99017 0.0
C457 C 0.64658 0.26818 0.93456 0.0
C458 C 0.60733 0.19202 0.90883 0.0
C459 C 0.6537 0.2976 0.92679 0.0
C460 C 0.52926 0.10802 0.97053 0.0
C461 C 0.54786 0.12453 0.95208 0.0
C462 C 0.6043 0.18442 0.96739 0.0
C463 C 0.62656 0.24727 0.91789 0.0
C464 C 0.61664 0.21672 0.92806 0.0
C465 C 0.57761 0.1328 0.9596 0.0
C466 C 0.59401 0.16018 0.94823 0.0
H467 H 0.61381 0.29169 0.86408 0.0
H468 H 0.59923 0.24132 0.87901 0.0
H469 H 0.62102 0.23063 0.97315 0.0
H470 H 0.57945 0.09722 0.02153 0.0
H471 H 0.61205 0.12618 0.98938 0.0
C472 C 0.90996 0.73261 0.40766 0.0
C473 C 0.90762 0.7079 0.42471 0.0
C474 C 0.92414 0.76056 0.41851 0.0
C475 C 0.97456 0.80235 0.47312 0.0
H476 H 0.92217 0.85975 0.47022 0.0
C477 C 0.96006 0.93066 0.5093 0.0
C478 C 0.98265 0.94651 0.49427 0.0
C479 C 0.95618 0.89958 0.50917 0.0
C480 C 0.93695 0.8439 0.4716 0.0
H481 H 0.91997 0.69232 0.46548 0.0
H482 H 0.94551 0.74116 0.48417 0.0
H483 H 0.90644 0.80964 0.44924 0.0
H484 H 0.02093 0.94311 0.47044 0.0
H485 H 0.01464 0.88887 0.47076 0.0
H486 H 0.0055 0.83733 0.49467 0.0
C487 C 0.93619 0.73896 0.4626 0.0
C488 C 0.92808 0.81535 0.45919 0.0
C489 C 0.92158 0.71111 0.45194 0.0
C490 C 0.00366 0.93134 0.48265 0.0
C491 C 0.99989 0.90023 0.48263 0.0
C492 C 0.98373 0.83131 0.48511 0.0
C493 C 0.93661 0.76413 0.44639 0.0
C494 C 0.94681 0.79437 0.45959 0.0
C495 C 0.97487 0.88402 0.49399 0.0
C496 C 0.96494 0.85235 0.48446 0.0
H497 H 0.89918 0.73072 0.38672 0.0
H498 H 0.92434 0.77966 0.40555 0.0
H499 H 0.98933 0.78645 0.4738 0.0
H500 H 0.94333 0.94186 0.51797 0.0
H501 H 0.9369 0.88761 0.51842 0.0
C502 C 0.40649 0.82681 0.6561 0.0
C503 C 0.40819 0.85249 0.64027 0.0
C504 C 0.41696 0.8017 0.64531 0.0
C505 C 0.43631 0.76463 0.57845 0.0
H506 H 0.4806 0.72374 0.63005 0.0
C507 C 0.51119 0.66509 0.58238 0.0
C508 C 0.49244 0.64121 0.5682 0.0
C509 C 0.50273 0.69285 0.58633 0.0
C510 C 0.46856 0.73504 0.6152 0.0
H511 H 0.42297 0.8718 0.60073 0.0
H512 H 0.44081 0.82795 0.58189 0.0
H513 H 0.46179 0.76738 0.64753 0.0
H514 H 0.45104 0.62818 0.54507 0.0
H515 H 0.43606 0.67695 0.55191 0.0
H516 H 0.4432 0.73202 0.54609 0.0
C517 C 0.43098 0.82712 0.60249 0.0
C518 C 0.45741 0.75988 0.62538 0.0
C519 C 0.42068 0.85229 0.61334 0.0
C520 C 0.4661 0.64636 0.5557 0.0
C521 C 0.45746 0.67425 0.55984 0.0
C522 C 0.44734 0.73953 0.56827 0.0
C523 C 0.42934 0.80153 0.61836 0.0
C524 C 0.44111 0.77501 0.6072 0.0
C525 C 0.47509 0.69732 0.5765 0.0
C526 C 0.46373 0.72451 0.58652 0.0
H527 H 0.39667 0.82592 0.6767 0.0
H528 H 0.41502 0.78224 0.65797 0.0
H529 H 0.42366 0.77565 0.56391 0.0
H530 H 0.53161 0.66168 0.59226 0.0
H531 H 0.51719 0.71033 0.59856 0.0
C532 C 0.91381 0.90394 0.8008 0.0
C533 C 0.88621 0.90731 0.81047 0.0
C534 C 0.92297 0.91367 0.77408 0.0
C535 C 0.8968 0.93694 0.70352 0.0
H536 H 0.97762 0.97374 0.69896 0.0
C537 C 0.94459 1.00076 0.60439 0.0
C538 C 0.97366 0.99938 0.5983 0.0
C539 C 0.93196 0.98725 0.62855 0.0
C540 C 0.95506 0.96313 0.69955 0.0
H541 H 0.84642 0.92315 0.79861 0.0
H542 H 0.86255 0.94051 0.75233 0.0
H543 H 0.95983 0.95512 0.74386 0.0
H544 H 0.01179 0.98182 0.61195 0.0
H545 H 0.98978 0.9575 0.65301 0.0
H546 H 0.89216 0.94534 0.65903 0.0
C547 C 0.87709 0.93007 0.76539 0.0
C548 C 0.94478 0.95239 0.72552 0.0
C549 C 0.86792 0.92035 0.79219 0.0
C550 C 0.98926 0.98305 0.61596 0.0
C551 C 0.97671 0.96948 0.63982 0.0
C552 C 0.90713 0.94775 0.67742 0.0
C553 C 0.90493 0.92721 0.75601 0.0
C554 C 0.91554 0.93891 0.72799 0.0
C555 C 0.94821 0.97219 0.64717 0.0
C556 C 0.93653 0.96081 0.67494 0.0
H557 H 0.92881 0.89444 0.81419 0.0
H558 H 0.94438 0.91057 0.76763 0.0
H559 H 0.8742 0.92655 0.70436 0.0
H560 H 0.93224 0.01374 0.59152 0.0
H561 H 0.91002 0.98997 0.63344 0.0
C562 C 0.65808 0.13501 0.32797 0.0
C563 C 0.64242 0.15064 0.34677 0.0
C564 C 0.64471 0.12032 0.30292 0.0
C565 C 0.57166 0.09355 0.26642 0.0
H566 H 0.61619 0.09705 0.19796 0.0
C567 C 0.51979 0.08245 0.15283 0.0
C568 C 0.53182 0.06666 0.13121 0.0
C569 C 0.53268 0.08661 0.18027 0.0
C570 C 0.60358 0.09539 0.21697 0.0
H571 H 0.59993 0.16228 0.35383 0.0
H572 H 0.57703 0.13783 0.30983 0.0
H573 H 0.63995 0.11703 0.24338 0.0
H574 H 0.56635 0.04203 0.12157 0.0
H575 H 0.58956 0.0499 0.16982 0.0
H576 H 0.53499 0.07316 0.23957 0.0
C577 C 0.59957 0.13635 0.31467 0.0
C578 C 0.6172 0.10687 0.24312 0.0
C579 C 0.61287 0.15084 0.33983 0.0
C580 C 0.55653 0.0541 0.13791 0.0
C581 C 0.56988 0.05882 0.1654 0.0
C582 C 0.55801 0.08238 0.24024 0.0
C583 C 0.6153 0.12098 0.29571 0.0
C584 C 0.60133 0.10661 0.26819 0.0
C585 C 0.55831 0.07556 0.18676 0.0
C586 C 0.57367 0.08362 0.2151 0.0
H587 H 0.68096 0.13462 0.3322 0.0
H588 H 0.65754 0.10847 0.28917 0.0
H589 H 0.55879 0.0922 0.28525 0.0
H590 H 0.50074 0.09238 0.14826 0.0
H591 H 0.52333 0.0998 0.19606 0.0
C592 C 0.40592 0.69209 0.30911 0.0
C593 C 0.38023 0.67516 0.29693 0.0
C594 C 0.4137 0.68923 0.33784 0.0
C595 C 0.3858 0.65431 0.40503 0.0
H596 H 0.46625 0.64524 0.41755 0.0
C597 C 0.425 0.56771 0.47323 0.0
C598 C 0.45316 0.57347 0.48584 0.0
C599 C 0.41382 0.58999 0.4593 0.0
C600 C 0.44385 0.64843 0.41482 0.0
H601 H 0.34216 0.6427 0.30462 0.0
H602 H 0.35577 0.63707 0.35424 0.0
H603 H 0.45154 0.66604 0.37384 0.0
H604 H 0.49092 0.60742 0.49589 0.0
H605 H 0.47143 0.64658 0.47146 0.0
H606 H 0.37789 0.6344 0.44522 0.0
C607 C 0.36973 0.65317 0.34235 0.0
C608 C 0.43536 0.66039 0.38962 0.0
C609 C 0.36196 0.65619 0.31381 0.0
C610 C 0.46886 0.60264 0.48686 0.0
C611 C 0.45787 0.62491 0.47252 0.0
C612 C 0.39426 0.64202 0.43011 0.0
C613 C 0.39601 0.66918 0.35468 0.0
C614 C 0.40598 0.66239 0.38384 0.0
C615 C 0.43092 0.61829 0.45722 0.0
C616 C 0.42318 0.63794 0.43478 0.0
H617 H 0.42035 0.70678 0.29626 0.0
H618 H 0.43392 0.70218 0.34663 0.0
H619 H 0.36313 0.65624 0.40172 0.0
H620 H 0.41278 0.54521 0.4717 0.0
H621 H 0.39309 0.58406 0.44761 0.0
C622 C 0.10235 0.42862 0.76693 0.0
C623 C 0.1115 0.44656 0.74439 0.0
C624 C 0.10675 0.44002 0.79513 0.0
C625 C 0.11433 0.51194 0.83554 0.0
H626 H 0.11916 0.46248 0.90002 0.0
C627 C 0.08082 0.55289 0.94227 0.0
C628 C 0.05757 0.53242 0.9517 0.0
C629 C 0.10042 0.54344 0.92338 0.0
C630 C 0.11809 0.47671 0.88229 0.0
H631 H 0.13345 0.48986 0.73307 0.0
H632 H 0.14182 0.50992 0.78254 0.0
H633 H 0.12897 0.44395 0.85234 0.0
H634 H 0.03855 0.48584 0.95192 0.0
H635 H 0.07277 0.46913 0.91957 0.0
H636 H 0.10218 0.54411 0.86504 0.0
C637 C 0.13088 0.48713 0.77858 0.0
C638 C 0.12355 0.46604 0.85491 0.0
C639 C 0.12633 0.47567 0.75029 0.0
C640 C 0.05666 0.50196 0.94534 0.0
C641 C 0.07623 0.49245 0.92652 0.0
C642 C 0.10902 0.52263 0.86286 0.0
C643 C 0.12042 0.46969 0.80136 0.0
C644 C 0.12059 0.48306 0.831 0.0
C645 C 0.09691 0.51336 0.91363 0.0
C646 C 0.10972 0.50473 0.88645 0.0
H647 H 0.09059 0.40615 0.7627 0.0
H648 H 0.09792 0.42602 0.81189 0.0
H649 H 0.11147 0.52563 0.81776 0.0
H650 H 0.08168 0.57657 0.94656 0.0
H651 H 0.11651 0.56004 0.91432 0.0
C652 C 0.77742 0.9278 0.94277 0.0
C653 C 0.79021 0.94137 0.91896 0.0
C654 C 0.75302 0.93721 0.95463 0.0
C655 C 0.6932 0.9807 0.94026 0.0
H656 H 0.68925 0.98302 0.0226 0.0
C657 C 0.59773 0.0231 0.99821 0.0
C658 C 0.58549 0.0048 0.01958 0.0
C659 C 0.6246 0.01931 0.98684 0.0
C660 C 0.68982 0.9824 0.99955 0.0
H661 H 0.78764 0.97535 0.88877 0.0
H662 H 0.74503 0.99184 0.90927 0.0
H663 H 0.73077 0.96711 1.00023 0.0
H664 H 0.59259 0.96933 0.04671 0.0
H665 H 0.63906 0.96315 0.0276 0.0
H666 H 0.652 0.99575 0.93969 0.0
C667 C 0.75343 0.97362 0.9187 0.0
C668 C 0.7137 0.97309 0.98664 0.0
C669 C 0.77788 0.96419 0.90689 0.0
C670 C 0.60152 0.984 0.03045 0.0
C671 C 0.62829 0.98045 0.01941 0.0
C672 C 0.66925 0.99003 0.95321 0.0
C673 C 0.74084 0.96059 0.94306 0.0
C674 C 0.71563 0.97164 0.95675 0.0
C675 C 0.63995 0.99739 0.99686 0.0
C676 C 0.66695 0.99059 0.98307 0.0
H677 H 0.78669 0.91035 0.95266 0.0
H678 H 0.74379 0.92619 0.97302 0.0
H679 H 0.69366 0.97976 0.91721 0.0
H680 H 0.58574 0.03898 0.98903 0.0
H681 H 0.63298 0.03304 0.96972 0.0
C682 C 0.74124 0.15279 0.40773 0.0
C683 C 0.72072 0.16346 0.42491 0.0
C684 C 0.76611 0.14428 0.41995 0.0
C685 C 0.79545 0.11783 0.48564 0.0
H686 H 0.86957 0.13941 0.45017 0.0
C687 C 0.89043 0.05251 0.49619 0.0
C688 C 0.91922 0.0679 0.49678 0.0
C689 C 0.86698 0.06774 0.49353 0.0
C690 C 0.84918 0.13355 0.46065 0.0
H691 H 0.71024 0.17337 0.46851 0.0
H692 H 0.75368 0.15808 0.48997 0.0
H693 H 0.82719 0.15914 0.43272 0.0
H694 H 0.94614 0.11137 0.49569 0.0
H695 H 0.90503 0.13828 0.49103 0.0
H696 H 0.81732 0.09155 0.51305 0.0
C697 C 0.75045 0.15641 0.46698 0.0
C698 C 0.82479 0.14458 0.45041 0.0
C699 C 0.72566 0.16529 0.4547 0.0
C700 C 0.92416 0.09907 0.49598 0.0
C701 C 0.90062 0.11437 0.49289 0.0
C702 C 0.81981 0.10654 0.4957 0.0
C703 C 0.77107 0.14598 0.44971 0.0
C704 C 0.7975 0.13642 0.46242 0.0
C705 C 0.87176 0.09874 0.49087 0.0
C706 C 0.84687 0.11385 0.483 0.0
H707 H 0.73833 0.15145 0.38471 0.0
H708 H 0.78134 0.13602 0.40604 0.0
H709 H 0.77475 0.11104 0.49531 0.0
H710 H 0.88607 0.02842 0.49644 0.0
H711 H 0.84514 0.05494 0.49173 0.0
C712 C 0.29144 0.6633 0.1514 0.0
C713 C 0.3165 0.68437 0.1471 0.0
C714 C 0.27097 0.6538 0.12915 0.0
C715 C 0.24058 0.67941 0.06464 0.0
H716 H 0.19979 0.5978 0.0573 0.0
C717 C 0.12656 0.60022 0.01687 0.0
C718 C 0.10764 0.61716 0.02978 0.0
C719 C 0.15676 0.60994 0.01949 0.0
C720 C 0.21128 0.62057 0.0584 0.0
H721 H 0.33991 0.71114 0.11533 0.0
H722 H 0.30346 0.69519 0.07667 0.0
H723 H 0.24491 0.60987 0.08617 0.0
H724 H 0.10478 0.65878 0.05245 0.0
H725 H 0.15703 0.67612 0.05638 0.0
H726 H 0.20605 0.69035 0.03809 0.0
C727 C 0.29991 0.68605 0.09742 0.0
C728 C 0.23698 0.62752 0.07527 0.0
C729 C 0.32068 0.6953 0.11966 0.0
C730 C 0.11899 0.64547 0.04214 0.0
C731 C 0.149 0.65536 0.04439 0.0
C732 C 0.21473 0.67249 0.04789 0.0
C733 C 0.27475 0.66532 0.10201 0.0
C734 C 0.25124 0.65718 0.07952 0.0
C735 C 0.16828 0.63689 0.03471 0.0
C736 C 0.19916 0.64317 0.04555 0.0
H737 H 0.28701 0.6548 0.17227 0.0
H738 H 0.25152 0.63827 0.13354 0.0
H739 H 0.25107 0.70248 0.06751 0.0
H740 H 0.11829 0.57814 0.00751 0.0
H741 H 0.17108 0.59537 0.01154 0.0
C742 C 0.18372 0.43541 0.60138 0.0
C743 C 0.17556 0.43015 0.62956 0.0
C744 C 0.21259 0.44679 0.5955 0.0
C745 C 0.28058 0.4889 0.6289 0.0
H746 H 0.31818 0.45329 0.56701 0.0
C747 C 0.40418 0.51498 0.61904 0.0
C748 C 0.41554 0.5191 0.59187 0.0
C749 C 0.37473 0.50403 0.62212 0.0
C750 C 0.3079 0.46376 0.58412 0.0
H751 H 0.19166 0.43264 0.67361 0.0
H752 H 0.24183 0.45292 0.6634 0.0
H753 H 0.26689 0.435 0.5753 0.0
H754 H 0.40473 0.51422 0.54648 0.0
H755 H 0.35293 0.49535 0.55182 0.0
H756 H 0.32131 0.51773 0.63775 0.0
C757 C 0.22579 0.44843 0.64587 0.0
C758 C 0.27853 0.45324 0.58888 0.0
C759 C 0.19698 0.43687 0.65173 0.0
C760 C 0.39673 0.51126 0.56769 0.0
C761 C 0.36705 0.50039 0.5708 0.0
C762 C 0.30981 0.49949 0.62406 0.0
C763 C 0.23395 0.45343 0.61769 0.0
C764 C 0.26468 0.46545 0.61159 0.0
C765 C 0.35565 0.49706 0.59809 0.0
C766 C 0.324 0.48677 0.6019 0.0
H767 H 0.16773 0.43098 0.58381 0.0
H768 H 0.21812 0.45076 0.57362 0.0
H769 H 0.27038 0.49917 0.64621 0.0
H770 H 0.41807 0.52039 0.6382 0.0
H771 H 0.36691 0.50103 0.64342 0.0
C772 C 0.90687 0.84617 0.92119 0.0
C773 C 0.89202 0.84185 0.89433 0.0
C774 C 0.91837 0.82294 0.93357 0.0
C775 C 0.91077 0.74072 0.93297 0.0
H776 H 0.98931 0.75552 0.96642 0.0
C777 C 1.00237 0.66647 0.96862 0.0
C778 C 0.98564 0.64481 0.98444 0.0
C779 C 0.99172 0.69223 0.9611 0.0
C780 C 0.96731 0.751 0.95725 0.0
H781 H 0.87747 0.80926 0.8597 0.0
H782 H 0.89704 0.76859 0.8815 0.0
H783 H 0.969 0.79634 0.94581 0.0
H784 H 0.94458 0.63316 1.00474 0.0
H785 H 0.92581 0.67805 0.99154 0.0
H786 H 0.90906 0.69541 0.94439 0.0
C787 C 0.8999 0.79008 0.89295 0.0
C788 C 0.95559 0.77447 0.94555 0.0
C789 C 0.88882 0.81347 0.88034 0.0
C790 C 0.95829 0.64985 0.99321 0.0
C791 C 0.94738 0.67536 0.98526 0.0
C792 C 0.92231 0.71739 0.94511 0.0
C793 C 0.91498 0.7945 0.9197 0.0
C794 C 0.92723 0.76963 0.93296 0.0
C795 C 0.96368 0.69661 0.96853 0.0
C796 C 0.95085 0.72209 0.95722 0.0
H797 H 0.91005 0.86775 0.93249 0.0
H798 H 0.92968 0.82718 0.95423 0.0
H799 H 0.88881 0.73615 0.92371 0.0
H800 H 0.02315 0.66277 0.96086 0.0
H801 H 0.00481 0.70788 0.94802 0.0
C802 C 0.40609 0.77602 0.17929 0.0
C803 C 0.38435 0.76786 0.19875 0.0
C804 C 0.41817 0.8059 0.17685 0.0
C805 C 0.44788 0.87023 0.18208 0.0
H806 H 0.39019 0.91974 0.16564 0.0
C807 C 0.48115 0.97048 0.11761 0.0
C808 C 0.4637 0.96693 0.09242 0.0
C809 C 0.47078 0.95651 0.14216 0.0
C810 C 0.40666 0.90644 0.17063 0.0
H811 H 0.35844 0.784 0.23139 0.0
H812 H 0.37936 0.83683 0.22686 0.0
H813 H 0.37545 0.87192 0.18706 0.0
H814 H 0.42097 0.94948 0.07373 0.0
H815 H 0.40261 0.9257 0.11628 0.0
H816 H 0.47867 0.90335 0.16366 0.0
C817 C 0.38725 0.82003 0.21372 0.0
C818 C 0.39825 0.87911 0.18306 0.0
C819 C 0.37541 0.78993 0.21643 0.0
C820 C 0.43463 0.95283 0.09311 0.0
C821 C 0.42418 0.93909 0.11759 0.0
C822 C 0.4563 0.89751 0.16975 0.0
C823 C 0.40846 0.82833 0.19358 0.0
C824 C 0.41852 0.86007 0.18755 0.0
C825 C 0.44285 0.93886 0.14168 0.0
C826 C 0.43552 0.91526 0.16251 0.0
H827 H 0.41304 0.75928 0.1653 0.0
H828 H 0.43407 0.81153 0.16079 0.0
H829 H 0.46406 0.85621 0.18569 0.0
H830 H 0.50381 0.98094 0.11739 0.0
H831 H 0.48554 0.9572 0.16055 0.0
C832 C 0.08477 0.35637 0.57472 0.0
C833 C 0.08433 0.35652 0.60464 0.0
C834 C 0.07099 0.3314 0.55802 0.0
C835 C 0.02036 0.25851 0.56293 0.0
H836 H 0.06453 0.23285 0.50095 0.0
C837 C 1.00196 0.13603 0.53059 0.0
C838 C 0.02841 0.1254 0.53078 0.0
C839 C 1.00158 0.16627 0.5267 0.0
C840 C 0.05179 0.23964 0.51814 0.0
H841 H 0.06922 0.3306 0.64048 0.0
H842 H 0.04608 0.2871 0.61179 0.0
H843 H 0.07812 0.28291 0.52239 0.0
H844 H 0.07454 0.13663 0.52436 0.0
H845 H 0.07429 0.18885 0.51804 0.0
H846 H 0.99594 0.21452 0.56081 0.0
C847 C 0.05604 0.30645 0.6009 0.0
C848 C 0.0594 0.26862 0.53026 0.0
C849 C 0.06951 0.33141 0.61747 0.0
C850 C 0.05382 0.1444 0.52393 0.0
C851 C 0.05356 0.1745 0.52028 0.0
C852 C 0.01312 0.22941 0.55122 0.0
C853 C 0.05674 0.30593 0.57093 0.0
C854 C 0.04471 0.27792 0.55382 0.0
C855 C 0.02778 0.18629 0.52356 0.0
C856 C 0.02973 0.21904 0.52966 0.0
H857 H 0.09582 0.37554 0.56423 0.0
H858 H 0.07176 0.33199 0.53504 0.0
H859 H 0.00783 0.2652 0.58034 0.0
H860 H 0.9822 0.12179 0.5364 0.0
H861 H 0.98115 0.17431 0.52857 0.0
C862 C 0.59665 0.26241 0.44604 0.0
C863 C 0.62706 0.26732 0.4495 0.0
C864 C 0.58034 0.28068 0.46098 0.0
C865 C 0.58393 0.33906 0.52027 0.0
H866 H 0.52442 0.36564 0.47345 0.0
C867 C 0.53728 0.44769 0.54484 0.0
C868 C 0.50925 0.44925 0.5338 0.0
C869 C 0.54913 0.4216 0.54046 0.0
C870 C 0.54046 0.35809 0.48721 0.0
H871 H 0.66443 0.29438 0.47153 0.0
H872 H 0.63611 0.32648 0.49759 0.0
H873 H 0.54968 0.32735 0.45456 0.0
H874 H 0.47062 0.42398 0.51218 0.0
H875 H 0.49049 0.37819 0.50592 0.0
H876 H 0.575 0.37053 0.55273 0.0
C877 C 0.62463 0.30832 0.48379 0.0
C878 C 0.55507 0.33602 0.47626 0.0
C879 C 0.6409 0.29 0.46884 0.0
C880 C 0.49228 0.4234 0.52093 0.0
C881 C 0.5039 0.39729 0.51694 0.0
C882 C 0.56919 0.3612 0.53132 0.0
C883 C 0.59416 0.3044 0.47953 0.0
C884 C 0.57722 0.32634 0.49247 0.0
C885 C 0.53305 0.39652 0.52515 0.0
C886 C 0.54738 0.37122 0.51483 0.0
H887 H 0.58557 0.24512 0.43105 0.0
H888 H 0.55691 0.27667 0.45746 0.0
H889 H 0.60067 0.33198 0.5335 0.0
H890 H 0.55106 0.46742 0.55439 0.0
H891 H 0.57163 0.42199 0.54713 0.0
loop_
_geom_bond_atom_site_label_1
_geom_bond_atom_site_label_2
_geom_bond_distance
_geom_bond_site_symmetry_2
_ccdc_geom_bond_type
H0 C3 0.929 . S
H1 C6 0.929 . S
H2 C8 0.930 . S
C3 H0 0.929 . S
C3 C4 1.398 . S
C3 C5 1.396 . S
C4 C3 1.398 . S
C4 C8 1.407 . S
C5 C3 1.396 . S
C5 C6 1.394 . S
C6 H1 0.929 . S
C6 C5 1.394 . S
C6 C7 1.382 . S
C7 C6 1.382 . S
C7 C8 1.392 . S
C7 N9 1.420 . S
C8 H2 0.930 . S
C8 C4 1.407 . S
C8 C7 1.392 . S
N9 C7 1.420 . S
N9 C10 1.244 . S
C10 N9 1.244 . S
H11 C14 0.929 . S
H12 C17 0.929 . S
H13 C19 0.930 . S
C14 H11 0.929 . S
C14 C15 1.398 . S
C14 C16 1.396 . S
C15 C14 1.398 . S
C15 C19 1.407 . S
C16 C14 1.396 . S
C16 C17 1.394 . S
C17 H12 0.929 . S
C17 C16 1.394 . S
C17 C18 1.382 . S
C18 C17 1.382 . S
C18 C19 1.392 . S
C18 N20 1.420 . S
C19 H13 0.930 . S
C19 C15 1.407 . S
C19 C18 1.392 . S
N20 C18 1.420 . S
N20 C21 1.244 . S
C21 N20 1.244 . S
H22 C25 0.929 . S
H23 C28 0.929 . S
H24 C30 0.930 . S
C25 H22 0.929 . S
C25 C26 1.398 . S
C25 C27 1.396 . S
C26 C25 1.398 . S
C26 C30 1.407 . S
C27 C25 1.396 . S
C27 C28 1.394 . S
C28 H23 0.929 . S
C28 C27 1.394 . S
C28 C29 1.382 . S
C29 C28 1.382 . S
C29 C30 1.392 . S
C29 N31 1.420 . S
C30 H24 0.930 . S
C30 C26 1.407 . S
C30 C29 1.392 . S
N31 C29 1.420 . S
N31 C32 1.244 . S
C32 N31 1.244 . S
H33 C36 0.929 . S
H34 C39 0.929 . S
H35 C41 0.930 . S
C36 H33 0.929 . S
C36 C37 1.398 . S
C36 C38 1.396 . S
C37 C36 1.398 . S
C37 C41 1.407 . S
C38 C36 1.396 . S
C38 C39 1.394 . S
C39 H34 0.929 . S
C39 C38 1.394 . S
C39 C40 1.382 . S
C40 C39 1.382 . S
C40 C41 1.392 . S
C40 N42 1.420 . S
C41 H35 0.930 . S
C41 C37 1.407 . S
C41 C40 1.392 . S
N42 C40 1.420 . S
N42 C43 1.244 . S
C43 N42 1.244 . S
H44 C47 0.929 . S
H45 C50 0.929 . S
H46 C52 0.930 . S
C47 H44 0.929 . S
C47 C48 1.398 . S
C47 C49 1.396 . S
C48 C47 1.398 . S
C48 C52 1.407 . S
C49 C47 1.396 . S
C49 C50 1.394 . S
C50 H45 0.929 . S
C50 C49 1.394 . S
C50 C51 1.382 . S
C51 C50 1.382 . S
C51 C52 1.392 . S
C51 N53 1.420 . S
C52 H46 0.930 . S
C52 C48 1.407 . S
C52 C51 1.392 . S
N53 C51 1.420 . S
N53 C54 1.244 . S
C54 N53 1.244 . S
H55 C58 0.929 . S
H56 C61 0.929 . S
H57 C63 0.930 . S
C58 H55 0.929 . S
C58 C59 1.398 . S
C58 C60 1.396 . S
C59 C58 1.398 . S
C59 C63 1.407 . S
C60 C58 1.396 . S
C60 C61 1.394 . S
C61 H56 0.929 . S
C61 C60 1.394 . S
C61 C62 1.382 . S
C62 C61 1.382 . S
C62 C63 1.392 . S
C62 N64 1.420 . S
C63 H57 0.930 . S
C63 C59 1.407 . S
C63 C62 1.392 . S
N64 C62 1.420 . S
N64 C65 1.244 . S
C65 N64 1.244 . S
H66 C69 0.929 . S
H67 C72 0.929 . S
H68 C74 0.930 . S
C69 H66 0.929 . S
C69 C70 1.398 . S
C69 C71 1.396 . S
C70 C69 1.398 . S
C70 C74 1.407 . S
C71 C69 1.396 . S
C71 C72 1.394 . S
C72 H67 0.929 . S
C72 C71 1.394 . S
C72 C73 1.382 . S
C73 C72 1.382 . S
C73 C74 1.392 . S
C73 N75 1.420 . S
C74 H68 0.930 . S
C74 C70 1.407 . S
C74 C73 1.392 . S
N75 C73 1.420 . S
N75 C76 1.244 . S
C76 N75 1.244 . S
H77 C80 0.929 . S
H78 C83 0.929 . S
H79 C85 0.930 . S
C80 H77 0.929 . S
C80 C81 1.398 . S
C80 C82 1.396 . S
C81 C80 1.398 . S
C81 C85 1.407 . S
C82 C80 1.396 . S
C82 C83 1.394 . S
C83 H78 0.929 . S
C83 C82 1.394 . S
C83 C84 1.382 . S
C84 C83 1.382 . S
C84 C85 1.392 . S
C84 N86 1.420 . S
C85 H79 0.930 . S
C85 C81 1.407 . S
C85 C84 1.392 . S
N86 C84 1.420 . S
N86 C87 1.244 . S
C87 N86 1.244 . S
O88 Mn89 2.163 1_655 S
O88 C102 1.244 . S
Mn89 O88 2.163 1_455 S
Mn89 O92 2.160 . S
Mn89 O93 2.221 . S
Mn89 O95 2.163 1_455 S
Mn89 O97 2.160 . S
Mn89 O107 2.221 1_445 S
O90 Mn91 2.087 1_545 S
O90 C102 1.256 . S
Mn91 O90 2.087 1_565 S
Mn91 O98 2.089 1_565 S
Mn91 O107 2.290 . S
Mn91 O108 2.251 . S
O92 Mn89 2.160 . S
O92 C103 1.239 . S
O93 Mn89 2.221 . S
O93 Mn94 2.290 . S
O93 C104 1.278 . S
Mn94 O93 2.290 . S
Mn94 O96 2.089 . S
Mn94 O99 2.251 . S
Mn94 O100 2.087 . S
O95 Mn89 2.163 1_655 S
O95 C105 1.244 . S
O96 Mn94 2.089 . S
O96 C103 1.256 . S
O97 Mn89 2.160 . S
O97 C106 1.239 . S
O98 Mn91 2.089 1_545 S
O98 C106 1.256 1_655 S
O99 Mn94 2.251 . S
O99 C104 1.241 . S
O100 Mn94 2.087 . S
O100 C105 1.256 1_455 S
C101 O107 1.278 . S
C101 O108 1.241 . S
C102 O88 1.244 . S
C102 O90 1.256 . S
C103 O92 1.239 . S
C103 O96 1.256 . S
C104 O93 1.278 . S
C104 O99 1.241 . S
C105 O95 1.244 . S
C105 O100 1.256 1_655 S
C106 O97 1.239 . S
C106 O98 1.256 1_455 S
O107 Mn89 2.221 1_665 S
O107 Mn91 2.290 . S
O107 C101 1.278 . S
O108 Mn91 2.251 . S
O108 C101 1.241 . S
O109 Mn110 2.163 1_556 S
O109 C123 1.244 . S
Mn110 O109 2.163 1_554 S
Mn110 O113 2.160 . S
Mn110 O114 2.221 . S
Mn110 O116 2.163 . S
Mn110 O118 2.160 . S
Mn110 O128 2.221 1_545 S
O111 Mn112 2.087 1_556 S
O111 C123 1.256 1_565 S
Mn112 O111 2.087 1_554 S
Mn112 O119 2.089 . S
Mn112 O128 2.290 . S
Mn112 O129 2.251 . S
O113 Mn110 2.160 . S
O113 C124 1.239 . S
O114 Mn110 2.221 . S
O114 Mn115 2.290 . S
O114 C125 1.278 . S
Mn115 O114 2.290 . S
Mn115 O117 2.089 . S
Mn115 O120 2.251 . S
Mn115 O121 2.087 . S
O116 Mn110 2.163 . S
O116 C126 1.244 . S
O117 Mn115 2.089 . S
O117 C124 1.256 . S
O118 Mn110 2.160 . S
O118 C127 1.239 . S
O119 Mn112 2.089 . S
O119 C127 1.256 1_565 S
O120 Mn115 2.251 . S
O120 C125 1.241 . S
O121 Mn115 2.087 . S
O121 C126 1.256 . S
C122 O128 1.278 . S
C122 O129 1.241 . S
C123 O109 1.244 . S
C123 O111 1.256 1_545 S
C124 O113 1.239 . S
C124 O117 1.256 . S
C125 O114 1.278 . S
C125 O120 1.241 . S
C126 O116 1.244 . S
C126 O121 1.256 . S
C127 O118 1.239 . S
C127 O119 1.256 1_545 S
O128 Mn110 2.221 1_565 S
O128 Mn112 2.290 . S
O128 C122 1.278 . S
O129 Mn112 2.251 . S
O129 C122 1.241 . S
O130 Mn131 2.163 . S
O130 C144 1.244 . S
Mn131 O130 2.163 . S
Mn131 O134 2.160 . S
Mn131 O135 2.221 . S
Mn131 O137 2.163 . S
Mn131 O139 2.160 . S
Mn131 O149 2.221 . S
O132 Mn133 2.087 . S
O132 C144 1.256 . S
Mn133 O132 2.087 . S
Mn133 O140 2.089 . S
Mn133 O149 2.290 . S
Mn133 O150 2.251 . S
O134 Mn131 2.160 . S
O134 C145 1.239 . S
O135 Mn131 2.221 . S
O135 Mn136 2.290 . S
O135 C146 1.278 . S
Mn136 O135 2.290 . S
Mn136 O138 2.089 . S
Mn136 O141 2.251 . S
Mn136 O142 2.087 . S
O137 Mn131 2.163 . S
O137 C147 1.244 . S
O138 Mn136 2.089 . S
O138 C145 1.256 . S
O139 Mn131 2.160 . S
O139 C148 1.239 . S
O140 Mn133 2.089 . S
O140 C148 1.256 . S
O141 Mn136 2.251 . S
O141 C146 1.241 . S
O142 Mn136 2.087 . S
O142 C147 1.256 . S
C143 O149 1.278 . S
C143 O150 1.241 . S
C144 O130 1.244 . S
C144 O132 1.256 . S
C145 O134 1.239 . S
C145 O138 1.256 . S
C146 O135 1.278 . S
C146 O141 1.241 . S
C147 O137 1.244 . S
C147 O142 1.256 . S
C148 O139 1.239 . S
C148 O140 1.256 . S
O149 Mn131 2.221 . S
O149 Mn133 2.290 . S
O149 C143 1.278 . S
O150 Mn133 2.251 . S
O150 C143 1.241 . S
O151 Mn152 2.163 1_655 S
O151 C165 1.244 1_554 S
Mn152 O151 2.163 1_455 S
Mn152 O155 2.160 . S
Mn152 O156 2.221 . S
Mn152 O158 2.163 . S
Mn152 O160 2.160 . S
Mn152 O170 2.221 1_554 S
O153 Mn154 2.087 . S
O153 C165 1.256 . S
Mn154 O153 2.087 . S
Mn154 O161 2.089 . S
Mn154 O170 2.290 1_655 S
Mn154 O171 2.251 1_655 S
O155 Mn152 2.160 . S
O155 C166 1.239 . S
O156 Mn152 2.221 . S
O156 Mn157 2.290 . S
O156 C167 1.278 1_455 S
Mn157 O156 2.290 . S
Mn157 O159 2.089 . S
Mn157 O162 2.251 1_455 S
Mn157 O163 2.087 . S
O158 Mn152 2.163 . S
O158 C168 1.244 . S
O159 Mn157 2.089 . S
O159 C166 1.256 . S
O160 Mn152 2.160 . S
O160 C169 1.239 1_454 S
O161 Mn154 2.089 . S
O161 C169 1.256 . S
O162 Mn157 2.251 1_655 S
O162 C167 1.241 . S
O163 Mn157 2.087 . S
O163 C168 1.256 . S
C164 O170 1.278 . S
C164 O171 1.241 . S
C165 O151 1.244 1_556 S
C165 O153 1.256 . S
C166 O155 1.239 . S
C166 O159 1.256 . S
C167 O156 1.278 1_655 S
C167 O162 1.241 . S
C168 O158 1.244 . S
C168 O163 1.256 . S
C169 O160 1.239 1_656 S
C169 O161 1.256 . S
O170 Mn152 2.221 1_556 S
O170 Mn154 2.290 1_455 S
O170 C164 1.278 . S
O171 Mn154 2.251 1_455 S
O171 C164 1.241 . S
C172 C173 1.349 . S
C172 C174 1.327 . S
C172 H197 0.950 . S
C173 C172 1.349 . S
C173 C189 1.349 . S
C174 C172 1.327 . S
C174 C193 1.429 . S
C174 H198 0.950 . S
C175 C192 1.574 . S
C175 C194 1.368 . S
C175 H199 0.949 . S
H176 C180 0.949 . S
C177 C178 1.349 . S
C177 C179 1.327 . S
C177 H200 0.950 . S
C178 C177 1.349 . S
C178 C190 1.349 . S
C179 C177 1.327 . S
C179 C195 1.429 . S
C179 H201 0.950 . S
C180 H176 0.949 . S
C180 C188 1.574 . S
C180 C196 1.368 . S
H181 C189 0.950 . S
H182 C187 0.950 . S
H183 C188 0.949 . S
H184 C190 0.950 . S
H185 C191 0.950 . S
H186 C192 0.949 . S
C187 H182 0.950 . S
C187 C189 1.327 . S
C187 C193 1.429 . S
C188 C180 1.574 . S
C188 H183 0.949 . S
C188 C194 1.368 . S
C189 C173 1.349 . S
C189 H181 0.950 . S
C189 C187 1.327 . S
C190 C178 1.349 . S
C190 H184 0.950 . S
C190 C191 1.327 . S
C191 H185 0.950 . S
C191 C190 1.327 . S
C191 C195 1.429 . S
C192 C175 1.574 . S
C192 H186 0.949 . S
C192 C196 1.368 . S
C193 C174 1.429 . S
C193 C187 1.429 . S
C193 C194 1.523 . S
C194 C175 1.368 . S
C194 C188 1.368 . S
C194 C193 1.523 . S
C195 C179 1.429 . S
C195 C191 1.429 . S
C195 C196 1.523 . S
C196 C180 1.368 . S
C196 C192 1.368 . S
C196 C195 1.523 . S
H197 C172 0.950 . S
H198 C174 0.950 . S
H199 C175 0.949 . S
H200 C177 0.950 . S
H201 C179 0.950 . S
C202 C203 1.349 . S
C202 C204 1.327 . S
C202 H227 0.950 . S
C203 C202 1.349 . S
C203 C219 1.349 . S
C204 C202 1.327 . S
C204 C223 1.429 . S
C204 H228 0.950 . S
C205 C222 1.574 . S
C205 C224 1.368 . S
C205 H229 0.949 . S
H206 C210 0.949 1_545 S
C207 C208 1.349 1_565 S
C207 C209 1.327 . S
C207 H230 0.950 . S
C208 C207 1.349 1_545 S
C208 C220 1.349 . S
C209 C207 1.327 . S
C209 C225 1.429 . S
C209 H231 0.950 . S
C210 H206 0.949 1_565 S
C210 C218 1.574 . S
C210 C226 1.368 . S
H211 C219 0.950 . S
H212 C217 0.950 . S
H213 C218 0.948 . S
H214 C220 0.950 . S
H215 C221 0.950 . S
H216 C222 0.949 . S
C217 H212 0.950 . S
C217 C219 1.327 . S
C217 C223 1.429 . S
C218 C210 1.574 . S
C218 H213 0.948 . S
C218 C224 1.368 . S
C219 C203 1.349 . S
C219 H211 0.950 . S
C219 C217 1.327 . S
C220 C208 1.349 . S
C220 H214 0.950 . S
C220 C221 1.327 . S
C221 H215 0.950 . S
C221 C220 1.327 . S
C221 C225 1.429 1_545 S
C222 C205 1.574 . S
C222 H216 0.949 . S
C222 C226 1.368 . S
C223 C204 1.429 . S
C223 C217 1.429 . S
C223 C224 1.523 . S
C224 C205 1.368 . S
C224 C218 1.368 . S
C224 C223 1.523 . S
C225 C209 1.429 . S
C225 C221 1.429 1_565 S
C225 C226 1.523 . S
C226 C210 1.368 . S
C226 C222 1.368 . S
C226 C225 1.523 . S
H227 C202 0.950 . S
H228 C204 0.950 . S
H229 C205 0.949 . S
H230 C207 0.950 . S
H231 C209 0.950 . S
C232 C233 1.349 . S
C232 C234 1.327 . S
C232 H257 0.950 . S
C233 C232 1.349 . S
C233 C249 1.349 . S
C234 C232 1.327 . S
C234 C253 1.429 . S
C234 H258 0.950 . S
C235 C252 1.574 . S
C235 C254 1.368 . S
C235 H259 0.949 . S
H236 C240 0.949 . S
C237 C238 1.349 . S
C237 C239 1.327 . S
C237 H260 0.950 . S
C238 C237 1.349 . S
C238 C250 1.349 . S
C239 C237 1.327 . S
C239 C255 1.429 . S
C239 H261 0.950 . S
C240 H236 0.949 . S
C240 C248 1.574 . S
C240 C256 1.368 . S
H241 C249 0.950 . S
H242 C247 0.950 . S
H243 C248 0.949 . S
H244 C250 0.950 . S
H245 C251 0.950 . S
H246 C252 0.949 . S
C247 H242 0.950 . S
C247 C249 1.327 . S
C247 C253 1.429 . S
C248 C240 1.574 . S
C248 H243 0.949 . S
C248 C254 1.368 . S
C249 C233 1.349 . S
C249 H241 0.950 . S
C249 C247 1.327 . S
C250 C238 1.349 . S
C250 H244 0.950 . S
C250 C251 1.327 . S
C251 H245 0.950 . S
C251 C250 1.327 . S
C251 C255 1.429 . S
C252 C235 1.574 . S
C252 H246 0.949 . S
C252 C256 1.368 . S
C253 C234 1.429 . S
C253 C247 1.429 . S
C253 C254 1.523 . S
C254 C235 1.368 . S
C254 C248 1.368 . S
C254 C253 1.523 . S
C255 C239 1.429 . S
C255 C251 1.429 . S
C255 C256 1.523 . S
C256 C240 1.368 . S
C256 C252 1.368 . S
C256 C255 1.523 . S
H257 C232 0.950 . S
H258 C234 0.950 . S
H259 C235 0.949 . S
H260 C237 0.950 . S
H261 C239 0.950 . S
C262 C263 1.349 . S
C262 C264 1.327 . S
C262 H287 0.950 . S
C263 C262 1.349 . S
C263 C279 1.349 . S
C264 C262 1.327 . S
C264 C283 1.429 . S
C264 H288 0.950 . S
C265 C282 1.574 . S
C265 C284 1.368 . S
C265 H289 0.949 . S
H266 C270 0.949 . S
C267 C268 1.349 . S
C267 C269 1.327 . S
C267 H290 0.924 1_655 S
C268 C267 1.349 . S
C268 C280 1.349 . S
C269 C267 1.327 . S
C269 C285 1.429 . S
C269 H291 0.950 . S
C270 H266 0.949 . S
C270 C278 1.574 . S
C270 C286 1.368 . S
H271 C279 0.950 . S
H272 C277 0.950 . S
H273 C278 0.949 . S
H274 C280 0.950 . S
H275 C281 0.950 . S
H276 C282 0.949 . S
C277 H272 0.950 . S
C277 C279 1.327 . S
C277 C283 1.429 . S
C278 C270 1.574 . S
C278 H273 0.949 . S
C278 C284 1.368 . S
C279 C263 1.349 . S
C279 H271 0.950 . S
C279 C277 1.327 . S
C280 C268 1.349 . S
C280 H274 0.950 . S
C280 C281 1.327 . S
C281 H275 0.950 . S
C281 C280 1.327 . S
C281 C285 1.429 . S
C282 C265 1.574 . S
C282 H276 0.949 . S
C282 C286 1.368 . S
C283 C264 1.429 . S
C283 C277 1.429 . S
C283 C284 1.523 . S
C284 C265 1.368 . S
C284 C278 1.368 . S
C284 C283 1.523 . S
C285 C269 1.429 . S
C285 C281 1.429 . S
C285 C286 1.523 . S
C286 C270 1.368 . S
C286 C282 1.368 . S
C286 C285 1.523 . S
H287 C262 0.950 . S
H288 C264 0.950 . S
H289 C265 0.949 . S
H290 C267 0.924 1_455 S
H291 C269 0.950 . S
C292 C293 1.349 . S
C292 C294 1.327 . S
C292 H317 0.950 . S
C293 C292 1.349 . S
C293 C309 1.349 . S
C294 C292 1.327 . S
C294 C313 1.429 . S
C294 H318 0.950 . S
C295 C312 1.574 . S
C295 C314 1.368 . S
C295 H319 0.949 . S
H296 C300 0.949 . S
C297 C298 1.349 . S
C297 C299 1.327 . S
C297 H320 0.950 . S
C298 C297 1.349 . S
C298 C310 1.349 . S
C299 C297 1.327 . S
C299 C315 1.429 . S
C299 H321 0.950 . S
C300 H296 0.949 . S
C300 C308 1.574 . S
C300 C316 1.368 . S
H301 C309 0.950 . S
H302 C307 0.950 . S
H303 C308 0.949 . S
H304 C310 0.950 . S
H305 C311 0.950 . S
H306 C312 0.949 . S
C307 H302 0.950 . S
C307 C309 1.327 . S
C307 C313 1.429 . S
C308 C300 1.574 . S
C308 H303 0.949 . S
C308 C314 1.368 . S
C309 C293 1.349 . S
C309 H301 0.950 . S
C309 C307 1.327 . S
C310 C298 1.349 . S
C310 H304 0.950 . S
C310 C311 1.327 . S
C311 H305 0.950 . S
C311 C310 1.327 . S
C311 C315 1.429 . S
C312 C295 1.574 . S
C312 H306 0.949 . S
C312 C316 1.368 . S
C313 C294 1.429 . S
C313 C307 1.429 . S
C313 C314 1.523 . S
C314 C295 1.368 . S
C314 C308 1.368 . S
C314 C313 1.523 . S
C315 C299 1.429 . S
C315 C311 1.429 . S
C315 C316 1.523 . S
C316 C300 1.368 . S
C316 C312 1.368 . S
C316 C315 1.523 . S
H317 C292 0.950 . S
H318 C294 0.950 . S
H319 C295 0.949 . S
H320 C297 0.950 . S
H321 C299 0.950 . S
C322 C323 1.349 . S
C322 C324 1.327 . S
C322 H347 0.950 . S
C323 C322 1.349 . S
C323 C339 1.349 . S
C324 C322 1.327 . S
C324 C343 1.429 . S
C324 H348 0.950 . S
C325 C342 1.560 1_565 S
C325 C344 1.368 . S
C325 H349 0.949 1_565 S
H326 C330 0.949 . S
C327 C328 1.349 1_545 S
C327 C329 1.327 . S
C327 H350 0.950 . S
C328 C327 1.349 1_565 S
C328 C340 1.349 . S
C329 C327 1.327 . S
C329 C345 1.429 1_545 S
C329 H351 0.950 . S
C330 H326 0.949 . S
C330 C338 1.574 . S
C330 C346 1.368 . S
H331 C339 0.950 . S
H332 C337 0.966 . S
H333 C338 0.949 . S
H334 C340 0.950 . S
H335 C341 0.950 . S
H336 C342 0.982 . S
C337 H332 0.966 . S
C337 C339 1.327 . S
C337 C343 1.429 . S
C338 C330 1.574 . S
C338 H333 0.949 . S
C338 C344 1.368 . S
C339 C323 1.349 . S
C339 H331 0.950 . S
C339 C337 1.327 . S
C340 C328 1.349 . S
C340 H334 0.950 . S
C340 C341 1.327 . S
C341 H335 0.950 . S
C341 C340 1.327 . S
C341 C345 1.429 . S
C342 C325 1.560 1_545 S
C342 H336 0.982 . S
C342 C346 1.346 1_545 S
C343 C324 1.429 . S
C343 C337 1.429 . S
C343 C344 1.523 . S
C344 C325 1.368 . S
C344 C338 1.368 . S
C344 C343 1.523 . S
C345 C329 1.429 1_565 S
C345 C341 1.429 . S
C345 C346 1.523 . S
C346 C330 1.368 . S
C346 C342 1.346 1_565 S
C346 C345 1.523 . S
H347 C322 0.950 . S
H348 C324 0.950 . S
H349 C325 0.949 1_545 S
H350 C327 0.950 . S
H351 C329 0.950 . S
C352 C353 1.349 . S
C352 C354 1.327 . S
C352 H377 0.950 . S
C353 C352 1.349 . S
C353 C369 1.349 . S
C354 C352 1.327 . S
C354 C373 1.429 . S
C354 H378 0.950 . S
C355 C372 1.574 . S
C355 C374 1.368 . S
C355 H379 0.949 . S
H356 C360 0.949 . S
C357 C358 1.349 . S
C357 C359 1.327 . S
C357 H380 0.950 . S
C358 C357 1.349 . S
C358 C370 1.349 . S
C359 C357 1.327 . S
C359 C375 1.429 . S
C359 H381 0.950 . S
C360 H356 0.949 . S
C360 C368 1.574 . S
C360 C376 1.368 . S
H361 C369 0.950 . S
H362 C367 0.950 . S
H363 C368 0.949 . S
H364 C370 0.950 . S
H365 C371 0.950 . S
H366 C372 0.949 . S
C367 H362 0.950 . S
C367 C369 1.327 . S
C367 C373 1.429 . S
C368 C360 1.574 . S
C368 H363 0.949 . S
C368 C374 1.368 . S
C369 C353 1.349 . S
C369 H361 0.950 . S
C369 C367 1.327 . S
C370 C358 1.349 . S
C370 H364 0.950 . S
C370 C371 1.327 . S
C371 H365 0.950 . S
C371 C370 1.327 . S
C371 C375 1.429 . S
C372 C355 1.574 . S
C372 H366 0.949 . S
C372 C376 1.368 . S
C373 C354 1.429 . S
C373 C367 1.429 . S
C373 C374 1.523 . S
C374 C355 1.368 . S
C374 C368 1.368 . S
C374 C373 1.523 . S
C375 C359 1.429 . S
C375 C371 1.429 . S
C375 C376 1.523 . S
C376 C360 1.368 . S
C376 C372 1.368 . S
C376 C375 1.523 . S
H377 C352 0.950 . S
H378 C354 0.950 . S
H379 C355 0.949 . S
H380 C357 0.950 . S
H381 C359 0.950 . S
C382 C383 1.349 . S
C382 C384 1.327 . S
C382 H407 0.950 . S
C383 C382 1.349 . S
C383 C399 1.349 . S
C384 C382 1.327 . S
C384 C403 1.429 . S
C384 H408 0.950 . S
C385 C402 1.574 . S
C385 C404 1.368 . S
C385 H409 0.949 . S
H386 C390 0.949 . S
C387 C388 1.349 . S
C387 C389 1.327 . S
C387 H410 0.950 . S
C388 C387 1.349 . S
C388 C400 1.349 . S
C389 C387 1.327 . S
C389 C405 1.429 . S
C389 H411 0.950 . S
C390 H386 0.949 . S
C390 C398 1.574 . S
C390 C406 1.368 . S
H391 C399 0.950 . S
H392 C397 0.950 . S
H393 C398 0.949 . S
H394 C400 0.950 . S
H395 C401 0.950 . S
H396 C402 0.949 . S
C397 H392 0.950 . S
C397 C399 1.327 . S
C397 C403 1.429 . S
C398 C390 1.574 . S
C398 H393 0.949 . S
C398 C404 1.368 . S
C399 C383 1.349 . S
C399 H391 0.950 . S
C399 C397 1.327 . S
C400 C388 1.349 . S
C400 H394 0.950 . S
C400 C401 1.327 . S
C401 H395 0.950 . S
C401 C400 1.327 . S
C401 C405 1.429 . S
C402 C385 1.574 . S
C402 H396 0.949 . S
C402 C406 1.368 . S
C403 C384 1.429 . S
C403 C397 1.429 . S
C403 C404 1.523 . S
C404 C385 1.368 . S
C404 C398 1.368 . S
C404 C403 1.523 . S
C405 C389 1.429 . S
C405 C401 1.429 . S
C405 C406 1.523 . S
C406 C390 1.368 . S
C406 C402 1.368 . S
C406 C405 1.523 . S
H407 C382 0.950 . S
H408 C384 0.950 . S
H409 C385 0.949 . S
H410 C387 0.950 . S
H411 C389 0.950 . S
C412 C413 1.349 . S
C412 C414 1.327 . S
C412 H437 0.950 . S
C413 C412 1.349 . S
C413 C429 1.349 . S
C414 C412 1.327 . S
C414 C433 1.429 . S
C414 H438 0.950 . S
C415 C432 1.574 . S
C415 C434 1.368 . S
C415 H439 0.949 . S
H416 C420 0.949 . S
C417 C418 1.349 . S
C417 C419 1.327 . S
C417 H440 0.950 . S
C418 C417 1.349 . S
C418 C430 1.349 . S
C419 C417 1.327 . S
C419 C435 1.429 . S
C419 H441 0.950 . S
C420 H416 0.949 . S
C420 C428 1.574 . S
C420 C436 1.368 . S
H421 C429 0.950 . S
H422 C427 0.950 . S
H423 C428 0.949 . S
H424 C430 0.950 . S
H425 C431 0.950 . S
H426 C432 0.949 . S
C427 H422 0.950 . S
C427 C429 1.327 . S
C427 C433 1.429 . S
C428 C420 1.574 . S
C428 H423 0.949 . S
C428 C434 1.368 . S
C429 C413 1.349 . S
C429 H421 0.950 . S
C429 C427 1.327 . S
C430 C418 1.349 . S
C430 H424 0.950 . S
C430 C431 1.327 . S
C431 H425 0.950 . S
C431 C430 1.327 . S
C431 C435 1.429 . S
C432 C415 1.574 . S
C432 H426 0.949 . S
C432 C436 1.368 . S
C433 C414 1.429 . S
C433 C427 1.429 . S
C433 C434 1.523 . S
C434 C415 1.368 . S
C434 C428 1.368 . S
C434 C433 1.523 . S
C435 C419 1.429 . S
C435 C431 1.429 . S
C435 C436 1.523 . S
C436 C420 1.368 . S
C436 C432 1.368 . S
C436 C435 1.523 . S
H437 C412 0.950 . S
H438 C414 0.950 . S
H439 C415 0.949 . S
H440 C417 0.950 . S
H441 C419 0.950 . S
C442 C443 1.349 . S
C442 C444 1.327 . S
C442 H467 0.950 . S
C443 C442 1.349 . S
C443 C459 1.349 . S
C444 C442 1.327 . S
C444 C463 1.429 . S
C444 H468 0.950 . S
C445 C462 1.574 . S
C445 C464 1.368 . S
C445 H469 0.949 . S
H446 C450 0.949 . S
C447 C448 1.349 1_554 S
C447 C449 1.327 . S
C447 H470 0.950 . S
C448 C447 1.349 1_556 S
C448 C460 1.349 . S
C449 C447 1.327 . S
C449 C465 1.429 1_554 S
C449 H471 0.950 . S
C450 H446 0.949 . S
C450 C458 1.574 . S
C450 C466 1.368 . S
H451 C459 0.950 . S
H452 C457 0.950 . S
H453 C458 0.949 . S
H454 C460 0.950 . S
H455 C461 0.950 . S
H456 C462 0.949 1_554 S
C457 H452 0.950 . S
C457 C459 1.327 . S
C457 C463 1.429 . S
C458 C450 1.574 . S
C458 H453 0.949 . S
C458 C464 1.368 . S
C459 C443 1.349 . S
C459 H451 0.950 . S
C459 C457 1.327 . S
C460 C448 1.349 . S
C460 H454 0.950 . S
C460 C461 1.327 . S
C461 H455 0.950 . S
C461 C460 1.327 . S
C461 C465 1.429 . S
C462 C445 1.574 . S
C462 H456 0.949 1_556 S
C462 C466 1.368 . S
C463 C444 1.429 . S
C463 C457 1.429 . S
C463 C464 1.523 . S
C464 C445 1.368 . S
C464 C458 1.368 . S
C464 C463 1.523 . S
C465 C449 1.429 1_556 S
C465 C461 1.429 . S
C465 C466 1.523 . S
C466 C450 1.368 . S
C466 C462 1.368 . S
C466 C465 1.523 . S
H467 C442 0.950 . S
H468 C444 0.950 . S
H469 C445 0.949 . S
H470 C447 0.950 . S
H471 C449 0.950 . S
C472 C473 1.349 . S
C472 C474 1.327 . S
C472 H497 0.950 . S
C473 C472 1.349 . S
C473 C489 1.349 . S
C474 C472 1.327 . S
C474 C493 1.429 . S
C474 H498 0.950 . S
C475 C492 1.574 . S
C475 C494 1.368 . S
C475 H499 0.949 . S
H476 C480 0.949 . S
C477 C478 1.349 . S
C477 C479 1.327 . S
C477 H500 0.950 . S
C478 C477 1.349 . S
C478 C490 1.349 . S
C479 C477 1.327 . S
C479 C495 1.429 . S
C479 H501 0.950 . S
C480 H476 0.949 . S
C480 C488 1.574 . S
C480 C496 1.368 . S
H481 C489 0.950 . S
H482 C487 0.950 . S
H483 C488 0.949 . S
H484 C490 0.950 . S
H485 C491 0.950 . S
H486 C492 0.949 . S
C487 H482 0.950 . S
C487 C489 1.327 . S
C487 C493 1.429 . S
C488 C480 1.574 . S
C488 H483 0.949 . S
C488 C494 1.368 . S
C489 C473 1.349 . S
C489 H481 0.950 . S
C489 C487 1.327 . S
C490 C478 1.349 . S
C490 H484 0.950 . S
C490 C491 1.327 . S
C491 H485 0.950 . S
C491 C490 1.327 . S
C491 C495 1.429 . S
C492 C475 1.574 . S
C492 H486 0.949 . S
C492 C496 1.368 . S
C493 C474 1.429 . S
C493 C487 1.429 . S
C493 C494 1.523 . S
C494 C475 1.368 . S
C494 C488 1.368 . S
C494 C493 1.523 . S
C495 C479 1.429 . S
C495 C491 1.429 . S
C495 C496 1.523 . S
C496 C480 1.368 . S
C496 C492 1.368 . S
C496 C495 1.523 . S
H497 C472 0.950 . S
H498 C474 0.950 . S
H499 C475 0.949 . S
H500 C477 0.950 . S
H501 C479 0.950 . S
C502 C503 1.349 . S
C502 C504 1.327 . S
C502 H527 0.950 . S
C503 C502 1.349 . S
C503 C519 1.349 . S
C504 C502 1.327 . S
C504 C523 1.429 . S
C504 H528 0.950 . S
C505 C522 1.574 . S
C505 C524 1.368 . S
C505 H529 0.949 . S
H506 C510 0.949 . S
C507 C508 1.349 . S
C507 C509 1.327 . S
C507 H530 0.950 . S
C508 C507 1.349 . S
C508 C520 1.349 . S
C509 C507 1.327 . S
C509 C525 1.429 . S
C509 H531 0.950 . S
C510 H506 0.949 . S
C510 C518 1.574 . S
C510 C526 1.368 . S
H511 C519 0.950 . S
H512 C517 0.950 . S
H513 C518 0.949 . S
H514 C520 0.950 . S
H515 C521 0.950 . S
H516 C522 0.949 . S
C517 H512 0.950 . S
C517 C519 1.327 . S
C517 C523 1.429 . S
C518 C510 1.574 . S
C518 H513 0.949 . S
C518 C524 1.368 . S
C519 C503 1.349 . S
C519 H511 0.950 . S
C519 C517 1.327 . S
C520 C508 1.349 . S
C520 H514 0.950 . S
C520 C521 1.327 . S
C521 H515 0.950 . S
C521 C520 1.327 . S
C521 C525 1.429 . S
C522 C505 1.574 . S
C522 H516 0.949 . S
C522 C526 1.368 . S
C523 C504 1.429 . S
C523 C517 1.429 . S
C523 C524 1.523 . S
C524 C505 1.368 . S
C524 C518 1.368 . S
C524 C523 1.523 . S
C525 C509 1.429 . S
C525 C521 1.429 . S
C525 C526 1.523 . S
C526 C510 1.368 . S
C526 C522 1.368 . S
C526 C525 1.523 . S
H527 C502 0.950 . S
H528 C504 0.950 . S
H529 C505 0.949 . S
H530 C507 0.950 . S
H531 C509 0.950 . S
C532 C533 1.349 . S
C532 C534 1.327 . S
C532 H557 0.950 . S
C533 C532 1.349 . S
C533 C549 1.349 . S
C534 C532 1.327 . S
C534 C553 1.429 . S
C534 H558 0.950 . S
C535 C552 1.574 . S
C535 C554 1.368 . S
C535 H559 0.949 . S
H536 C540 0.949 1_545 S
C537 C538 1.349 . S
C537 C539 1.327 . S
C537 H560 0.950 . S
C538 C537 1.349 . S
C538 C550 1.349 1_565 S
C539 C537 1.327 . S
C539 C555 1.429 . S
C539 H561 0.950 . S
C540 H536 0.949 1_565 S
C540 C548 1.574 . S
C540 C556 1.368 . S
H541 C549 0.950 . S
H542 C547 0.950 . S
H543 C548 0.949 . S
H544 C550 0.950 1_455 S
H545 C551 0.950 1_545 S
H546 C552 0.949 . S
C547 H542 0.950 . S
C547 C549 1.327 . S
C547 C553 1.429 . S
C548 C540 1.574 . S
C548 H543 0.949 . S
C548 C554 1.368 . S
C549 C533 1.349 . S
C549 H541 0.950 . S
C549 C547 1.327 . S
C550 C538 1.349 1_545 S
C550 H544 0.950 1_655 S
C550 C551 1.327 1_545 S
C551 H545 0.950 1_565 S
C551 C550 1.327 1_565 S
C551 C555 1.427 . S
C552 C535 1.574 . S
C552 H546 0.949 . S
C552 C556 1.368 . S
C553 C534 1.429 . S
C553 C547 1.429 . S
C553 C554 1.523 . S
C554 C535 1.368 . S
C554 C548 1.368 . S
C554 C553 1.523 . S
C555 C539 1.429 . S
C555 C551 1.427 . S
C555 C556 1.523 . S
C556 C540 1.368 . S
C556 C552 1.368 . S
C556 C555 1.523 . S
H557 C532 0.950 . S
H558 C534 0.950 . S
H559 C535 0.949 . S
H560 C537 0.950 . S
H561 C539 0.950 . S
C562 C563 1.349 . S
C562 C564 1.327 . S
C562 H587 0.950 . S
C563 C562 1.349 . S
C563 C579 1.349 . S
C564 C562 1.327 . S
C564 C583 1.429 . S
C564 H588 0.950 . S
C565 C582 1.574 . S
C565 C584 1.368 . S
C565 H589 0.949 . S
H566 C570 0.949 . S
C567 C568 1.349 . S
C567 C569 1.327 . S
C567 H590 0.950 . S
C568 C567 1.349 . S
C568 C580 1.349 . S
C569 C567 1.327 . S
C569 C585 1.429 . S
C569 H591 0.950 . S
C570 H566 0.949 . S
C570 C578 1.574 . S
C570 C586 1.368 . S
H571 C579 0.950 . S
H572 C577 0.950 . S
H573 C578 0.949 . S
H574 C580 0.950 . S
H575 C581 0.950 . S
H576 C582 0.949 . S
C577 H572 0.950 . S
C577 C579 1.327 . S
C577 C583 1.429 . S
C578 C570 1.574 . S
C578 H573 0.949 . S
C578 C584 1.368 . S
C579 C563 1.349 . S
C579 H571 0.950 . S
C579 C577 1.327 . S
C580 C568 1.349 . S
C580 H574 0.950 . S
C580 C581 1.327 . S
C581 H575 0.950 . S
C581 C580 1.327 . S
C581 C585 1.429 . S
C582 C565 1.574 . S
C582 H576 0.949 . S
C582 C586 1.368 . S
C583 C564 1.429 . S
C583 C577 1.429 . S
C583 C584 1.523 . S
C584 C565 1.368 . S
C584 C578 1.368 . S
C584 C583 1.523 . S
C585 C569 1.429 . S
C585 C581 1.429 . S
C585 C586 1.523 . S
C586 C570 1.368 . S
C586 C582 1.368 . S
C586 C585 1.523 . S
H587 C562 0.950 . S
H588 C564 0.950 . S
H589 C565 0.949 . S
H590 C567 0.950 . S
H591 C569 0.950 . S
C592 C593 1.349 . S
C592 C594 1.327 . S
C592 H617 0.950 . S
C593 C592 1.349 . S
C593 C609 1.349 . S
C594 C592 1.327 . S
C594 C613 1.429 . S
C594 H618 0.950 . S
C595 C612 1.574 . S
C595 C614 1.368 . S
C595 H619 0.949 . S
H596 C600 0.949 . S
C597 C598 1.349 . S
C597 C599 1.327 . S
C597 H620 0.950 . S
C598 C597 1.349 . S
C598 C610 1.349 . S
C599 C597 1.327 . S
C599 C615 1.429 . S
C599 H621 0.950 . S
C600 H596 0.949 . S
C600 C608 1.574 . S
C600 C616 1.368 . S
H601 C609 0.950 . S
H602 C607 0.950 . S
H603 C608 0.949 . S
H604 C610 0.950 . S
H605 C611 0.950 . S
H606 C612 0.949 . S
C607 H602 0.950 . S
C607 C609 1.327 . S
C607 C613 1.429 . S
C608 C600 1.574 . S
C608 H603 0.949 . S
C608 C614 1.368 . S
C609 C593 1.349 . S
C609 H601 0.950 . S
C609 C607 1.327 . S
C610 C598 1.349 . S
C610 H604 0.950 . S
C610 C611 1.327 . S
C611 H605 0.950 . S
C611 C610 1.327 . S
C611 C615 1.429 . S
C612 C595 1.574 . S
C612 H606 0.949 . S
C612 C616 1.368 . S
C613 C594 1.429 . S
C613 C607 1.429 . S
C613 C614 1.523 . S
C614 C595 1.368 . S
C614 C608 1.368 . S
C614 C613 1.523 . S
C615 C599 1.429 . S
C615 C611 1.429 . S
C615 C616 1.523 . S
C616 C600 1.368 . S
C616 C612 1.368 . S
C616 C615 1.523 . S
H617 C592 0.950 . S
H618 C594 0.950 . S
H619 C595 0.949 . S
H620 C597 0.950 . S
H621 C599 0.950 . S
C622 C623 1.349 . S
C622 C624 1.327 . S
C622 H647 0.950 . S
C623 C622 1.349 . S
C623 C639 1.349 . S
C624 C622 1.327 . S
C624 C643 1.429 . S
C624 H648 0.950 . S
C625 C642 1.574 . S
C625 C644 1.368 . S
C625 H649 0.949 . S
H626 C630 0.949 . S
C627 C628 1.349 . S
C627 C629 1.327 . S
C627 H650 0.950 . S
C628 C627 1.349 . S
C628 C640 1.349 . S
C629 C627 1.327 . S
C629 C645 1.429 . S
C629 H651 0.950 . S
C630 H626 0.949 . S
C630 C638 1.574 . S
C630 C646 1.368 . S
H631 C639 0.950 . S
H632 C637 0.950 . S
H633 C638 0.949 . S
H634 C640 0.950 . S
H635 C641 0.950 . S
H636 C642 0.949 . S
C637 H632 0.950 . S
C637 C639 1.327 . S
C637 C643 1.429 . S
C638 C630 1.574 . S
C638 H633 0.949 . S
C638 C644 1.368 . S
C639 C623 1.349 . S
C639 H631 0.950 . S
C639 C637 1.327 . S
C640 C628 1.349 . S
C640 H634 0.950 . S
C640 C641 1.327 . S
C641 H635 0.950 . S
C641 C640 1.327 . S
C641 C645 1.429 . S
C642 C625 1.574 . S
C642 H636 0.949 . S
C642 C646 1.368 . S
C643 C624 1.429 . S
C643 C637 1.429 . S
C643 C644 1.523 . S
C644 C625 1.368 . S
C644 C638 1.368 . S
C644 C643 1.523 . S
C645 C629 1.429 . S
C645 C641 1.429 . S
C645 C646 1.523 . S
C646 C630 1.368 . S
C646 C642 1.368 . S
C646 C645 1.523 . S
H647 C622 0.950 . S
H648 C624 0.950 . S
H649 C625 0.949 . S
H650 C627 0.950 . S
H651 C629 0.950 . S
C652 C653 1.349 . S
C652 C654 1.327 . S
C652 H677 0.950 . S
C653 C652 1.349 . S
C653 C669 1.349 . S
C654 C652 1.327 . S
C654 C673 1.429 . S
C654 H678 0.950 . S
C655 C672 1.574 . S
C655 C674 1.368 . S
C655 H679 0.949 . S
H656 C660 0.932 1_554 S
C657 C658 1.345 1_566 S
C657 C659 1.333 . S
C657 H680 0.948 . S
C658 C657 1.345 1_544 S
C658 C670 1.349 . S
C659 C657 1.333 . S
C659 C675 1.429 . S
C659 H681 0.950 . S
C660 H656 0.932 1_556 S
C660 C668 1.580 . S
C660 C676 1.381 . S
H661 C669 0.950 . S
H662 C667 0.950 . S
H663 C668 0.949 1_554 S
H664 C670 0.950 . S
H665 C671 0.950 . S
H666 C672 0.949 . S
C667 H662 0.950 . S
C667 C669 1.327 . S
C667 C673 1.429 . S
C668 C660 1.580 . S
C668 H663 0.949 1_556 S
C668 C674 1.368 . S
C669 C653 1.349 . S
C669 H661 0.950 . S
C669 C667 1.327 . S
C670 C658 1.349 . S
C670 H664 0.950 . S
C670 C671 1.327 . S
C671 H665 0.950 . S
C671 C670 1.327 . S
C671 C675 1.429 1_544 S
C672 C655 1.574 . S
C672 H666 0.949 . S
C672 C676 1.368 . S
C673 C654 1.429 . S
C673 C667 1.429 . S
C673 C674 1.523 . S
C674 C655 1.368 . S
C674 C668 1.368 . S
C674 C673 1.523 . S
C675 C659 1.429 . S
C675 C671 1.429 1_566 S
C675 C676 1.523 . S
C676 C660 1.381 . S
C676 C672 1.368 . S
C676 C675 1.523 . S
H677 C652 0.950 . S
H678 C654 0.950 . S
H679 C655 0.949 . S
H680 C657 0.948 . S
H681 C659 0.950 . S
C682 C683 1.349 . S
C682 C684 1.327 . S
C682 H707 0.950 . S
C683 C682 1.349 . S
C683 C699 1.349 . S
C684 C682 1.327 . S
C684 C703 1.429 . S
C684 H708 0.950 . S
C685 C702 1.574 . S
C685 C704 1.368 . S
C685 H709 0.949 . S
H686 C690 0.949 . S
C687 C688 1.349 . S
C687 C689 1.327 . S
C687 H710 0.950 . S
C688 C687 1.349 . S
C688 C700 1.349 . S
C689 C687 1.327 . S
C689 C705 1.429 . S
C689 H711 0.950 . S
C690 H686 0.949 . S
C690 C698 1.574 . S
C690 C706 1.368 . S
H691 C699 0.950 . S
H692 C697 0.950 . S
H693 C698 0.949 . S
H694 C700 0.950 . S
H695 C701 0.950 . S
H696 C702 0.949 . S
C697 H692 0.950 . S
C697 C699 1.327 . S
C697 C703 1.429 . S
C698 C690 1.574 . S
C698 H693 0.949 . S
C698 C704 1.368 . S
C699 C683 1.349 . S
C699 H691 0.950 . S
C699 C697 1.327 . S
C700 C688 1.349 . S
C700 H694 0.950 . S
C700 C701 1.327 . S
C701 H695 0.950 . S
C701 C700 1.327 . S
C701 C705 1.429 . S
C702 C685 1.574 . S
C702 H696 0.949 . S
C702 C706 1.368 . S
C703 C684 1.429 . S
C703 C697 1.429 . S
C703 C704 1.523 . S
C704 C685 1.368 . S
C704 C698 1.368 . S
C704 C703 1.523 . S
C705 C689 1.429 . S
C705 C701 1.429 . S
C705 C706 1.523 . S
C706 C690 1.368 . S
C706 C702 1.368 . S
C706 C705 1.523 . S
H707 C682 0.950 . S
H708 C684 0.950 . S
H709 C685 0.949 . S
H710 C687 0.950 . S
H711 C689 0.950 . S
C712 C713 1.349 . S
C712 C714 1.327 . S
C712 H737 0.950 . S
C713 C712 1.349 . S
C713 C729 1.349 . S
C714 C712 1.327 . S
C714 C733 1.429 . S
C714 H738 0.950 . S
C715 C732 1.574 . S
C715 C734 1.368 . S
C715 H739 0.949 . S
H716 C720 0.949 . S
C717 C718 1.349 . S
C717 C719 1.327 . S
C717 H740 0.950 . S
C718 C717 1.349 . S
C718 C730 1.349 . S
C719 C717 1.327 . S
C719 C735 1.429 . S
C719 H741 0.950 . S
C720 H716 0.949 . S
C720 C728 1.574 . S
C720 C736 1.368 . S
H721 C729 0.950 . S
H722 C727 0.950 . S
H723 C728 0.949 . S
H724 C730 0.950 . S
H725 C731 0.950 . S
H726 C732 0.949 . S
C727 H722 0.950 . S
C727 C729 1.327 . S
C727 C733 1.429 . S
C728 C720 1.574 . S
C728 H723 0.949 . S
C728 C734 1.368 . S
C729 C713 1.349 . S
C729 H721 0.950 . S
C729 C727 1.327 . S
C730 C718 1.349 . S
C730 H724 0.950 . S
C730 C731 1.327 . S
C731 H725 0.950 . S
C731 C730 1.327 . S
C731 C735 1.429 . S
C732 C715 1.574 . S
C732 H726 0.949 . S
C732 C736 1.368 . S
C733 C714 1.429 . S
C733 C727 1.429 . S
C733 C734 1.523 . S
C734 C715 1.368 . S
C734 C728 1.368 . S
C734 C733 1.523 . S
C735 C719 1.429 . S
C735 C731 1.429 . S
C735 C736 1.523 . S
C736 C720 1.368 . S
C736 C732 1.368 . S
C736 C735 1.523 . S
H737 C712 0.950 . S
H738 C714 0.950 . S
H739 C715 0.949 . S
H740 C717 0.950 . S
H741 C719 0.950 . S
C742 C743 1.349 . S
C742 C744 1.327 . S
C742 H767 0.950 . S
C743 C742 1.349 . S
C743 C759 1.349 . S
C744 C742 1.327 . S
C744 C763 1.429 . S
C744 H768 0.950 . S
C745 C762 1.574 . S
C745 C764 1.368 . S
C745 H769 0.949 . S
H746 C750 0.949 . S
C747 C748 1.349 . S
C747 C749 1.327 . S
C747 H770 0.950 . S
C748 C747 1.349 . S
C748 C760 1.349 . S
C749 C747 1.327 . S
C749 C765 1.429 . S
C749 H771 0.950 . S
C750 H746 0.949 . S
C750 C758 1.574 . S
C750 C766 1.368 . S
H751 C759 0.950 . S
H752 C757 0.950 . S
H753 C758 0.949 . S
H754 C760 0.950 . S
H755 C761 0.950 . S
H756 C762 0.949 . S
C757 H752 0.950 . S
C757 C759 1.327 . S
C757 C763 1.429 . S
C758 C750 1.574 . S
C758 H753 0.949 . S
C758 C764 1.368 . S
C759 C743 1.349 . S
C759 H751 0.950 . S
C759 C757 1.327 . S
C760 C748 1.349 . S
C760 H754 0.950 . S
C760 C761 1.327 . S
C761 H755 0.950 . S
C761 C760 1.327 . S
C761 C765 1.429 . S
C762 C745 1.574 . S
C762 H756 0.949 . S
C762 C766 1.368 . S
C763 C744 1.429 . S
C763 C757 1.429 . S
C763 C764 1.523 . S
C764 C745 1.368 . S
C764 C758 1.368 . S
C764 C763 1.523 . S
C765 C749 1.429 . S
C765 C761 1.429 . S
C765 C766 1.523 . S
C766 C750 1.368 . S
C766 C762 1.368 . S
C766 C765 1.523 . S
H767 C742 0.950 . S
H768 C744 0.950 . S
H769 C745 0.949 . S
H770 C747 0.950 . S
H771 C749 0.950 . S
C772 C773 1.349 . S
C772 C774 1.327 . S
C772 H797 0.950 . S
C773 C772 1.349 . S
C773 C789 1.349 . S
C774 C772 1.327 . S
C774 C793 1.429 . S
C774 H798 0.950 . S
C775 C792 1.574 . S
C775 C794 1.368 . S
C775 H799 0.949 . S
H776 C780 0.949 . S
C777 C778 1.349 . S
C777 C779 1.327 . S
C777 H800 0.950 . S
C778 C777 1.349 . S
C778 C790 1.349 1_556 S
C779 C777 1.327 . S
C779 C795 1.429 . S
C779 H801 0.950 . S
C780 H776 0.949 . S
C780 C788 1.574 . S
C780 C796 1.368 . S
H781 C789 0.950 . S
H782 C787 0.950 . S
H783 C788 0.949 . S
H784 C790 0.950 . S
H785 C791 0.950 1_554 S
H786 C792 0.949 . S
C787 H782 0.950 . S
C787 C789 1.327 . S
C787 C793 1.429 . S
C788 C780 1.574 . S
C788 H783 0.949 . S
C788 C794 1.368 . S
C789 C773 1.349 . S
C789 H781 0.950 . S
C789 C787 1.327 . S
C790 C778 1.349 1_554 S
C790 H784 0.950 . S
C790 C791 1.327 1_554 S
C791 H785 0.950 1_556 S
C791 C790 1.327 1_556 S
C791 C795 1.429 . S
C792 C775 1.574 . S
C792 H786 0.949 . S
C792 C796 1.368 . S
C793 C774 1.429 . S
C793 C787 1.429 . S
C793 C794 1.523 . S
C794 C775 1.368 . S
C794 C788 1.368 . S
C794 C793 1.523 . S
C795 C779 1.429 . S
C795 C791 1.429 . S
C795 C796 1.523 . S
C796 C780 1.368 . S
C796 C792 1.368 . S
C796 C795 1.523 . S
H797 C772 0.950 . S
H798 C774 0.950 . S
H799 C775 0.949 . S
H800 C777 0.950 . S
H801 C779 0.950 . S
C802 C803 1.349 . S
C802 C804 1.327 . S
C802 H827 0.950 . S
C803 C802 1.349 . S
C803 C819 1.349 . S
C804 C802 1.327 . S
C804 C823 1.429 . S
C804 H828 0.950 . S
C805 C822 1.574 . S
C805 C824 1.368 . S
C805 H829 0.949 . S
H806 C810 0.949 . S
C807 C808 1.349 . S
C807 C809 1.327 . S
C807 H830 0.950 . S
C808 C807 1.349 . S
C808 C820 1.349 . S
C809 C807 1.327 . S
C809 C825 1.429 . S
C809 H831 0.950 . S
C810 H806 0.949 . S
C810 C818 1.574 . S
C810 C826 1.368 . S
H811 C819 0.950 . S
H812 C817 0.950 . S
H813 C818 0.949 . S
H814 C820 0.950 . S
H815 C821 0.950 . S
H816 C822 0.949 . S
C817 H812 0.950 . S
C817 C819 1.327 . S
C817 C823 1.429 . S
C818 C810 1.574 . S
C818 H813 0.949 . S
C818 C824 1.368 . S
C819 C803 1.349 . S
C819 H811 0.950 . S
C819 C817 1.327 . S
C820 C808 1.349 . S
C820 H814 0.950 . S
C820 C821 1.327 . S
C821 H815 0.950 . S
C821 C820 1.327 . S
C821 C825 1.429 . S
C822 C805 1.574 . S
C822 H816 0.949 . S
C822 C826 1.368 . S
C823 C804 1.429 . S
C823 C817 1.429 . S
C823 C824 1.523 . S
C824 C805 1.368 . S
C824 C818 1.368 . S
C824 C823 1.523 . S
C825 C809 1.429 . S
C825 C821 1.429 . S
C825 C826 1.523 . S
C826 C810 1.368 . S
C826 C822 1.368 . S
C826 C825 1.523 . S
H827 C802 0.950 . S
H828 C804 0.950 . S
H829 C805 0.949 . S
H830 C807 0.950 . S
H831 C809 0.950 . S
C832 C833 1.349 . S
C832 C834 1.327 . S
C832 H857 0.950 . S
C833 C832 1.349 . S
C833 C849 1.349 . S
C834 C832 1.327 . S
C834 C853 1.429 . S
C834 H858 0.950 . S
C835 C852 1.574 . S
C835 C854 1.368 . S
C835 H859 0.949 . S
H836 C840 0.949 . S
C837 C838 1.349 . S
C837 C839 1.327 . S
C837 H860 0.957 . S
C838 C837 1.349 . S
C838 C850 1.349 . S
C839 C837 1.327 . S
C839 C855 1.429 . S
C839 H861 0.950 . S
C840 H836 0.949 . S
C840 C848 1.574 . S
C840 C856 1.368 . S
H841 C849 0.950 . S
H842 C847 0.950 . S
H843 C848 0.949 . S
H844 C850 0.950 . S
H845 C851 0.950 . S
H846 C852 0.949 . S
C847 H842 0.950 . S
C847 C849 1.327 . S
C847 C853 1.429 . S
C848 C840 1.574 . S
C848 H843 0.949 . S
C848 C854 1.368 . S
C849 C833 1.349 . S
C849 H841 0.950 . S
C849 C847 1.327 . S
C850 C838 1.349 . S
C850 H844 0.950 . S
C850 C851 1.327 . S
C851 H845 0.950 . S
C851 C850 1.327 . S
C851 C855 1.429 . S
C852 C835 1.574 . S
C852 H846 0.949 . S
C852 C856 1.368 . S
C853 C834 1.429 . S
C853 C847 1.429 . S
C853 C854 1.523 . S
C854 C835 1.368 . S
C854 C848 1.368 . S
C854 C853 1.523 . S
C855 C839 1.429 . S
C855 C851 1.429 . S
C855 C856 1.523 . S
C856 C840 1.368 . S
C856 C852 1.368 . S
C856 C855 1.523 . S
H857 C832 0.950 . S
H858 C834 0.950 . S
H859 C835 0.949 . S
H860 C837 0.957 . S
H861 C839 0.950 . S
C862 C863 1.349 . S
C862 C864 1.327 . S
C862 H887 0.950 . S
C863 C862 1.349 . S
C863 C879 1.349 . S
C864 C862 1.327 . S
C864 C883 1.429 . S
C864 H888 0.950 . S
C865 C882 1.574 . S
C865 C884 1.368 . S
C865 H889 0.949 . S
H866 C870 0.949 . S
C867 C868 1.349 . S
C867 C869 1.327 . S
C867 H890 0.950 . S
C868 C867 1.349 . S
C868 C880 1.349 . S
C869 C867 1.327 . S
C869 C885 1.429 . S
C869 H891 0.950 . S
C870 H866 0.949 . S
C870 C878 1.574 . S
C870 C886 1.368 . S
H871 C879 0.950 . S
H872 C877 0.950 . S
H873 C878 0.949 . S
H874 C880 0.950 . S
H875 C881 0.950 . S
H876 C882 0.949 . S
C877 H872 0.950 . S
C877 C879 1.327 . S
C877 C883 1.429 . S
C878 C870 1.574 . S
C878 H873 0.949 . S
C878 C884 1.368 . S
C879 C863 1.349 . S
C879 H871 0.950 . S
C879 C877 1.327 . S
C880 C868 1.349 . S
C880 H874 0.950 . S
C880 C881 1.327 . S
C881 H875 0.950 . S
C881 C880 1.327 . S
C881 C885 1.429 . S
C882 C865 1.574 . S
C882 H876 0.949 . S
C882 C886 1.368 . S
C883 C864 1.429 . S
C883 C877 1.429 . S
C883 C884 1.523 . S
C884 C865 1.368 . S
C884 C878 1.368 . S
C884 C883 1.523 . S
C885 C869 1.429 . S
C885 C881 1.429 . S
C885 C886 1.523 . S
C886 C870 1.368 . S
C886 C882 1.368 . S
C886 C885 1.523 . S
H887 C862 0.950 . S
H888 C864 0.950 . S
H889 C865 0.949 . S
H890 C867 0.950 . S
H891 C869 0.950 . S
C173 C4 1.814 . S
C178 C106 1.765 . S
C203 C16 1.827 . S
C208 C123 1.780 . S
C238 C146 0.845 . S
C233 C32 0.931 . S
C263 C43 1.588 . S
C268 C167 1.322 . S
C298 C126 2.255 . S
C293 C5 2.330 . S
C328 C103 1.408 1_565 S
C323 C21 1.458 . S
C358 C165 1.085 . S
C353 C27 1.114 . S
C388 C144 1.211 . S
C383 C37 1.280 . S
C413 C10 1.772 . S
C418 C168 1.721 . S
C448 C125 1.413 1_556 S
C443 C26 1.685 . S
C473 C38 1.414 . S
C478 C101 1.240 . S
C503 C15 1.639 . S
C508 C147 1.603 . S
C538 C105 1.915 1_565 S
C533 C48 2.003 . S
C563 C59 1.403 . S
C568 C124 1.369 . S
C593 C76 1.321 . S
C598 C143 1.127 . S
C623 C87 1.292 . S
C628 C164 1.077 . S
C653 C54 1.597 . S
C658 C127 1.558 . S
C688 C102 2.217 . S
C683 C60 2.246 . S
C718 C166 1.009 . S
C713 C71 1.059 . S
C748 C145 1.304 . S
C743 C82 1.334 . S
C773 C49 1.861 . S
C778 C169 1.802 . S
C808 C122 0.981 . S
C803 C70 1.132 . S
C838 C104 1.297 . S
C833 C81 1.493 . S
C863 C65 1.482 . S
C868 C148 1.439 . S
