# Generated by pormake.
# Topology pto, (3,4)-cn, num edge types: 1
# Building blocks:
#     Node 0, Type 0, BuildingBlock: PAMTOO_clean_linker_0, # of connection points: 3
#     Node 1, Type 0, BuildingBlock: PAMTOO_clean_linker_0, # of connection points: 3
#     Node 2, Type 0, BuildingBlock: PAMTOO_clean_linker_0, # of connection points: 3
#     Node 3, Type 0, BuildingBlock: PAMTOO_clean_linker_0, # of connection points: 3
#     Node 4, Type 0, BuildingBlock: PAMTOO_clean_linker_0, # of connection points: 3
#     Node 5, Type 0, BuildingBlock: PAMTOO_clean_linker_0, # of connection points: 3
#     Node 6, Type 0, BuildingBlock: PAMTOO_clean_linker_0, # of connection points: 3
#     Node 7, Type 0, BuildingBlock: PAMTOO_clean_linker_0, # of connection points: 3
#     Node 8, Type 1, BuildingBlock: NAWXER_clean_sbu_0, # of connection points: 4
#     Node 9, Type 1, BuildingBlock: NAWXER_clean_sbu_0, # of connection points: 4
#     Node 10, Type 1, BuildingBlock: NAWXER_clean_sbu_0, # of connection points: 4
#     Node 11, Type 1, BuildingBlock: NAWXER_clean_sbu_0, # of connection points: 4
#     Node 12, Type 1, BuildingBlock: NAWXER_clean_sbu_0, # of connection points: 4
#     Node 13, Type 1, BuildingBlock: NAWXER_clean_sbu_0, # of connection points: 4
#     Edge 14, Type (0, 1), BuildingBlock: AJUNOK_clean_linker_0, # of connection points: 2
#     Edge 15, Type (0, 1), BuildingBlock: AJUNOK_clean_linker_0, # of connection points: 2
#     Edge 16, Type (0, 1), BuildingBlock: AJUNOK_clean_linker_0, # of connection points: 2
#     Edge 17, Type (0, 1), BuildingBlock: AJUNOK_clean_linker_0, # of connection points: 2
#     Edge 18, Type (0, 1), BuildingBlock: AJUNOK_clean_linker_0, # of connection points: 2
#     Edge 19, Type (0, 1), BuildingBlock: AJUNOK_clean_linker_0, # of connection points: 2
#     Edge 20, Type (0, 1), BuildingBlock: AJUNOK_clean_linker_0, # of connection points: 2
#     Edge 21, Type (0, 1), BuildingBlock: AJUNOK_clean_linker_0, # of connection points: 2
#     Edge 22, Type (0, 1), BuildingBlock: AJUNOK_clean_linker_0, # of connection points: 2
#     Edge 23, Type (0, 1), BuildingBlock: AJUNOK_clean_linker_0, # of connection points: 2
#     Edge 24, Type (0, 1), BuildingBlock: AJUNOK_clean_linker_0, # of connection points: 2
#     Edge 25, Type (0, 1), BuildingBlock: AJUNOK_clean_linker_0, # of connection points: 2
#     Edge 26, Type (0, 1), BuildingBlock: AJUNOK_clean_linker_0, # of connection points: 2
#     Edge 27, Type (0, 1), BuildingBlock: AJUNOK_clean_linker_0, # of connection points: 2
#     Edge 28, Type (0, 1), BuildingBlock: AJUNOK_clean_linker_0, # of connection points: 2
#     Edge 29, Type (0, 1), BuildingBlock: AJUNOK_clean_linker_0, # of connection points: 2
#     Edge 30, Type (0, 1), BuildingBlock: AJUNOK_clean_linker_0, # of connection points: 2
#     Edge 31, Type (0, 1), BuildingBlock: AJUNOK_clean_linker_0, # of connection points: 2
#     Edge 32, Type (0, 1), BuildingBlock: AJUNOK_clean_linker_0, # of connection points: 2
#     Edge 33, Type (0, 1), BuildingBlock: AJUNOK_clean_linker_0, # of connection points: 2
#     Edge 34, Type (0, 1), BuildingBlock: AJUNOK_clean_linker_0, # of connection points: 2
#     Edge 35, Type (0, 1), BuildingBlock: AJUNOK_clean_linker_0, # of connection points: 2
#     Edge 36, Type (0, 1), BuildingBlock: AJUNOK_clean_linker_0, # of connection points: 2
#     Edge 37, Type (0, 1), BuildingBlock: AJUNOK_clean_linker_0, # of connection points: 2
# Relax obj value: 0.018
# Max RMSD: 0.149
# Mean RMSD: 0.063
data_MOF--net-pto--node1-NAWXER_clean_sbu_0--node2-PAMTOO_clean_linker_0--edge1-AJUNOK_clean_linker_0
_symmetry_space_group_name_H-M    P1
_symmetry_Int_Tables_number       1
_symmetry_cell_setting            triclinic
loop_
_symmetry_equiv_pos_as_xyz
'x, y, z'
_cell_length_a     30.925917
_cell_length_b     27.97018
_cell_length_c     27.356097
_cell_angle_alpha  81.469335
_cell_angle_beta   84.096922
_cell_angle_gamma 99.7986
loop_
_atom_site_label
_atom_site_type_symbol
_atom_site_fract_x
_atom_site_fract_y
_atom_site_fract_z
_atom_type_partial_charge
H0 H 0.23392 0.33186 0.46364 0.0
H1 H 0.3297 0.27867 0.36998 0.0
H2 H 0.26456 0.39079 0.3063 0.0
H3 H 0.28167 0.31663 0.23827 0.0
C4 C 0.30799 0.30323 0.25826 0.0
O5 O 0.32258 0.33576 0.28901 0.0
H6 H 0.29341 0.26625 0.28051 0.0
C7 C 0.25264 0.33338 0.42754 0.0
C8 C 0.24642 0.36718 0.38615 0.0
C9 C 0.28322 0.30154 0.4223 0.0
C10 C 0.30717 0.30373 0.37538 0.0
C11 C 0.30025 0.33573 0.33407 0.0
C12 C 0.27003 0.36709 0.33927 0.0
H13 H 0.21928 0.77121 0.82197 0.0
H14 H 0.27814 0.68307 0.92966 0.0
H15 H 0.34908 0.82565 0.85786 0.0
H16 H 0.40032 0.74651 0.86437 0.0
C17 C 0.38654 0.72673 0.90264 0.0
O18 O 0.35195 0.74696 0.92126 0.0
H19 H 0.37436 0.68758 0.89989 0.0
C20 C 0.24618 0.76688 0.84367 0.0
C21 C 0.28402 0.80455 0.83637 0.0
C22 C 0.24328 0.72305 0.87772 0.0
C23 C 0.27949 0.71655 0.90343 0.0
C24 C 0.31758 0.75332 0.8958 0.0
C25 C 0.3197 0.79721 0.86267 0.0
H26 H 0.70624 0.81168 0.34299 0.0
H27 H 0.76793 0.69171 0.30865 0.0
H28 H 0.80782 0.76821 0.42645 0.0
H29 H 0.87604 0.7528 0.34584 0.0
C30 C 0.8637 0.71278 0.34692 0.0
O31 O 0.82278 0.69894 0.37589 0.0
H32 H 0.85999 0.70678 0.30817 0.0
C33 C 0.72887 0.78683 0.35134 0.0
C34 C 0.75526 0.79349 0.38936 0.0
C35 C 0.73305 0.75037 0.32193 0.0
C36 C 0.76347 0.7192 0.3318 0.0
C37 C 0.79057 0.72583 0.36943 0.0
C38 C 0.78624 0.76276 0.39816 0.0
H39 H 0.76988 0.30921 0.90676 0.0
H40 H 0.70482 0.20778 0.82125 0.0
H41 H 0.83548 0.28839 0.76659 0.0
H42 H 0.76374 0.28414 0.69362 0.0
C43 C 0.74686 0.24568 0.70916 0.0
O44 O 0.76821 0.22645 0.74729 0.0
H45 H 0.71216 0.24689 0.72373 0.0
C46 C 0.77068 0.29018 0.87502 0.0
C47 C 0.80797 0.3024 0.83819 0.0
C48 C 0.73313 0.25626 0.86899 0.0
C49 C 0.73367 0.23348 0.8267 0.0
C50 C 0.77008 0.24576 0.78964 0.0
C51 C 0.80734 0.27956 0.79558 0.0
H52 H 0.77811 0.89999 0.81033 0.0
H53 H 0.8238 0.77316 0.88145 0.0
H54 H 0.88457 0.84584 0.73562 0.0
H55 H 0.86596 0.74333 0.74498 0.0
C56 C 0.87047 0.73136 0.7845 0.0
O57 O 0.88309 0.77223 0.80614 0.0
H58 H 0.83834 0.70969 0.80449 0.0
C59 C 0.80085 0.87446 0.81041 0.0
C60 C 0.83264 0.87862 0.7685 0.0
C61 C 0.79685 0.83633 0.8514 0.0
C62 C 0.8259 0.80273 0.85035 0.0
C63 C 0.85745 0.80655 0.80863 0.0
C64 C 0.86108 0.84461 0.76825 0.0
H65 H 0.88956 0.31189 0.29547 0.0
H66 H 0.76826 0.26874 0.23512 0.0
H67 H 0.84514 0.41469 0.18826 0.0
H68 H 0.75522 0.41861 0.1965 0.0
C69 C 0.73995 0.37953 0.19719 0.0
O70 O 0.77207 0.355 0.17979 0.0
H71 H 0.72654 0.36324 0.23662 0.0
C72 C 0.86621 0.31958 0.2697 0.0
C73 C 0.87226 0.36667 0.24119 0.0
C74 C 0.82889 0.28373 0.26825 0.0
C75 C 0.79758 0.29557 0.23668 0.0
C76 C 0.80356 0.34272 0.20766 0.0
C77 C 0.84133 0.37792 0.2094 0.0
H78 H 0.16542 0.27967 0.75355 0.0
H79 H 0.25862 0.38221 0.81108 0.0
H80 H 0.2893 0.24212 0.78998 0.0
H81 H 0.29618 0.27715 0.89166 0.0
C82 C 0.31389 0.31535 0.87603 0.0
O83 O 0.31544 0.32339 0.82473 0.0
H84 H 0.29447 0.34065 0.89213 0.0
C85 C 0.19742 0.28921 0.76606 0.0
C86 C 0.22638 0.25555 0.7679 0.0
C87 C 0.20905 0.33509 0.78083 0.0
C88 C 0.24982 0.34729 0.79851 0.0
C89 C 0.27813 0.31318 0.80313 0.0
C90 C 0.26665 0.26769 0.7873 0.0
H91 H 0.21666 0.82315 0.40537 0.0
H92 H 0.30966 0.79438 0.28988 0.0
H93 H 0.34829 0.9108 0.37114 0.0
H94 H 0.39303 0.93244 0.26418 0.0
C95 C 0.38629 0.89404 0.25682 0.0
O96 O 0.37455 0.8626 0.30199 0.0
H97 H 0.35864 0.89058 0.23375 0.0
C98 C 0.24882 0.83257 0.38284 0.0
C99 C 0.28099 0.87048 0.39305 0.0
C100 C 0.25876 0.80497 0.34554 0.0
C101 C 0.30128 0.81566 0.31832 0.0
C102 C 0.33331 0.85385 0.32744 0.0
C103 C 0.32311 0.88137 0.36442 0.0
C104 C 1.01671 0.5047 0.29099 0.0
C105 C 0.12963 0.63723 0.32081 0.0
O106 O 0.01932 0.5057 0.33721 0.0
Zn107 Zn 0.05732 0.54607 0.38316 0.0
O108 O 0.045 0.53398 0.25826 0.0
Zn109 Zn 0.0762 0.5693 0.30453 0.0
O110 O 0.11385 0.51905 0.33872 0.0
O111 O 0.08688 0.49695 0.41822 0.0
O112 O 0.12114 0.6265 0.27883 0.0
O113 O 0.10879 0.61072 0.36145 0.0
O114 O 1.00979 0.57168 0.41784 0.0
O115 O 0.02516 0.6025 0.33744 0.0
C116 C 0.11482 0.49413 0.38175 0.0
C117 C 1.00249 0.60013 0.37995 0.0
C118 C 0.9614 0.45136 0.85388 0.0
C119 C 0.09013 0.57214 0.87826 0.0
O120 O 0.97384 0.45833 0.89567 0.0
Zn121 Zn 0.02545 0.51045 0.86953 0.0
O122 O 0.984 0.47662 0.81363 0.0
Zn123 Zn 0.04127 0.53344 0.78987 0.0
O124 O 0.08138 0.50128 0.75255 0.0
O125 O 0.06837 0.471 0.83314 0.0
O126 O 0.08485 0.57148 0.83261 0.0
O127 O 0.06341 0.543 0.91277 0.0
O128 O 0.9952 0.56878 0.83835 0.0
O129 O 1.01561 0.58634 0.7571 0.0
C130 C 0.08726 0.47055 0.78935 0.0
C131 C 0.99375 0.59461 0.796 0.0
C132 C 0.28815 0.97879 0.68831 0.0
C133 C 0.29096 0.1246 0.56049 0.0
O134 O 0.25107 0.98254 0.67257 0.0
Zn135 Zn 0.22409 0.02797 0.619 0.0
O136 O 0.32294 0.00978 0.6685 0.0
Zn137 Zn 0.29484 0.05061 0.62136 0.0
O138 O 0.25246 0.07965 0.67031 0.0
O139 O 0.18234 0.05464 0.66118 0.0
O140 O 0.32507 0.11309 0.57831 0.0
O141 O 0.25385 0.09493 0.57259 0.0
O142 O 0.20672 0.98504 0.57077 0.0
O143 O 0.27905 1.00336 0.56954 0.0
C144 C 0.21138 0.0798 0.68184 0.0
C145 C 0.24538 0.98059 0.55341 0.0
C146 C 0.62654 0.75721 0.15817 0.0
C147 C 0.52351 0.75188 0.03426 0.0
O148 O 0.60154 0.71995 0.14821 0.0
Zn149 Zn 0.57549 0.75463 0.09557 0.0
O150 O 0.62631 0.79995 0.13357 0.0
Zn151 Zn 0.59343 0.83136 0.07452 0.0
O152 O 0.56214 0.875 0.10598 0.0
O153 O 0.53497 0.79679 0.13502 0.0
O154 O 0.54409 0.79581 0.03431 0.0
O155 O 0.5322 0.71639 0.06395 0.0
O156 O 0.63062 0.77981 0.03616 0.0
O157 O 0.64184 0.86079 0.023 0.0
C158 C 0.5336 0.84242 0.13517 0.0
C159 C 0.65249 0.82134 0.01225 0.0
C160 C 0.82345 1.00826 0.58385 0.0
C161 C 0.81334 0.11697 0.42813 0.0
O162 O 0.78423 0.00987 0.5736 0.0
Zn163 Zn 0.75024 0.04321 0.51834 0.0
O164 O 0.85648 0.03316 0.5536 0.0
Zn165 Zn 0.82177 0.06148 0.50457 0.0
O166 O 0.79076 0.10705 0.5471 0.0
O167 O 0.7183 0.08177 0.55815 0.0
O168 O 0.84869 0.10732 0.44407 0.0
O169 O 0.77584 0.09517 0.45244 0.0
O170 O 0.72069 0.98538 0.49433 0.0
O171 O 0.79331 0.99758 0.4777 0.0
C172 C 0.75217 0.11157 0.56539 0.0
C173 C 0.75526 0.97171 0.47623 0.0
C174 C 0.58889 0.35568 0.08363 0.0
C175 C 0.47536 0.33499 0.9699 0.0
O176 O 0.5671 0.31176 0.08779 0.0
Zn177 Zn 0.51555 0.27129 0.05635 0.0
O178 O 0.57874 0.38983 0.05322 0.0
Zn179 Zn 0.53192 0.34875 0.0264 0.0
O180 O 0.47981 0.32836 0.08698 0.0
O181 O 0.46924 0.24828 0.11266 0.0
O182 O 0.50045 0.37518 0.97326 0.0
O183 O 0.47876 0.29517 0.99803 0.0
O184 O 0.54814 0.22599 0.02847 0.0
O185 O 0.56952 0.3035 0.99082 0.0
C186 C 0.4585 0.28968 0.11629 0.0
C187 C 0.57334 0.25826 0.99527 0.0
C188 C 0.17125 0.38473 0.41597 0.0
C189 C 0.2145 0.40158 0.39048 0.0
C190 C 0.13938 0.41536 0.41504 0.0
C191 C 0.14947 0.46368 0.38804 0.0
H192 H 0.16142 0.34703 0.43512 0.0
H193 H 0.10615 0.40044 0.43368 0.0
S194 S 0.25935 0.52827 0.32205 0.0
N195 N 0.26687 0.47228 0.34328 0.0
N196 N 0.20678 0.52859 0.33987 0.0
C197 C 0.19301 0.48166 0.36459 0.0
C198 C 0.22553 0.451 0.36625 0.0
C199 C 0.20762 0.6346 0.88169 0.0
C200 C 0.20317 0.68339 0.8849 0.0
C201 C 0.17036 0.59755 0.88316 0.0
C202 C 0.12737 0.60775 0.8889 0.0
H203 H 0.24019 0.62547 0.87557 0.0
H204 H 0.17529 0.5612 0.8776 0.0
S205 S 0.09718 0.72803 0.90267 0.0
N206 N 0.15183 0.73886 0.89714 0.0
N207 N 0.08207 0.66909 0.89961 0.0
C208 C 0.12226 0.65563 0.8942 0.0
C209 C 0.16009 0.69348 0.89235 0.0
C210 C 0.94295 0.70627 0.35341 0.0
C211 C 0.89794 0.68404 0.36561 0.0
C212 C 0.97668 0.67941 0.36138 0.0
C213 C 0.96691 0.62927 0.38252 0.0
H214 H 0.95222 0.74437 0.33528 0.0
H215 H 1.01073 0.69759 0.34908 0.0
S216 S 0.85498 0.55285 0.42086 0.0
N217 N 0.84562 0.60808 0.39951 0.0
N218 N 0.90935 0.55814 0.41598 0.0
C219 C 0.92228 0.60672 0.39659 0.0
C220 C 0.88771 0.63388 0.38757 0.0
C221 C 0.86617 0.34037 0.88664 0.0
C222 C 0.84623 0.34134 0.84251 0.0
C223 C 0.90296 0.37634 0.89058 0.0
C224 C 0.92118 0.41465 0.85053 0.0
H225 H 0.85372 0.31107 0.91805 0.0
H226 H 0.91767 0.37355 0.92491 0.0
S227 S 0.87768 0.43696 0.72903 0.0
N228 N 0.84506 0.38622 0.75971 0.0
N229 N 0.91396 0.45317 0.76659 0.0
C230 C 0.90056 0.41673 0.80678 0.0
C231 C 0.86322 0.3803 0.8029 0.0
C232 C 0.24825 0.22929 0.48734 0.0
C233 C 0.28681 0.26158 0.46336 0.0
C234 C 0.25046 0.18585 0.51896 0.0
C235 C 0.29136 0.17268 0.52838 0.0
H236 H 0.216 0.23632 0.47972 0.0
H237 H 0.21946 0.16192 0.53536 0.0
S238 S 0.4022 0.24794 0.47917 0.0
N239 N 0.36729 0.27999 0.45436 0.0
N240 N 0.37141 0.19804 0.51404 0.0
C241 C 0.33026 0.20597 0.5067 0.0
C242 C 0.32799 0.25037 0.47416 0.0
C243 C 0.45199 0.77616 0.93161 0.0
C244 C 0.42237 0.73123 0.93606 0.0
C245 C 0.4848 0.78215 0.9631 0.0
C246 C 0.48922 0.74347 1.00051 0.0
H247 H 0.44959 0.80701 0.90361 0.0
H248 H 0.50675 0.81758 0.95808 0.0
S249 S 0.41825 0.61885 0.02863 0.0
N250 N 0.39833 0.64784 0.98144 0.0
N251 N 0.4601 0.65867 0.0406 0.0
C252 C 0.45951 0.69829 1.00546 0.0
C253 C 0.42596 0.69236 0.97341 0.0
C254 C 0.79339 0.86922 0.41645 0.0
C255 C 0.75392 0.83642 0.41527 0.0
C256 C 0.79308 0.91267 0.43593 0.0
C257 C 0.75325 0.92534 0.45527 0.0
H258 H 0.82481 0.86198 0.40086 0.0
H259 H 0.82461 0.93668 0.43537 0.0
S260 S 0.64082 0.85006 0.46349 0.0
N261 N 0.67393 0.81807 0.43696 0.0
N262 N 0.67321 0.90004 0.47359 0.0
C263 C 0.71347 0.89232 0.45516 0.0
C264 C 0.71384 0.84789 0.43517 0.0
C265 C 0.65253 0.2579 0.88209 0.0
C266 C 0.69106 0.2496 0.90266 0.0
C267 C 0.6131 0.25691 0.91262 0.0
C268 C 0.61052 0.2464 0.96467 0.0
H269 H 0.65344 0.26767 0.84211 0.0
H270 H 0.58498 0.26651 0.89547 0.0
S271 S 0.70099 0.21993 0.03716 0.0
N272 N 0.72365 0.22892 0.97832 0.0
N273 N 0.64898 0.22643 0.03581 0.0
C274 C 0.64807 0.23599 0.9858 0.0
C275 C 0.68855 0.23782 0.95474 0.0
C276 C 0.32403 0.87122 0.76595 0.0
C277 C 0.28622 0.85134 0.80115 0.0
C278 C 0.32549 0.91379 0.73066 0.0
C279 C 0.28907 0.93776 0.72916 0.0
H280 H 0.3522 0.85291 0.76468 0.0
H281 H 0.35458 0.92685 0.70323 0.0
S282 S 0.18487 0.90484 0.81745 0.0
N283 N 0.21361 0.86232 0.8355 0.0
N284 N 0.21589 0.94127 0.76893 0.0
C285 C 0.25192 0.91947 0.76549 0.0
C286 C 0.25059 0.87655 0.80148 0.0
C287 C 0.71012 0.7929 0.24489 0.0
C288 C 0.7083 0.74901 0.27824 0.0
C289 C 0.68428 0.79463 0.20586 0.0
C290 C 0.65537 0.75249 0.19831 0.0
H291 H 0.73137 0.82656 0.24943 0.0
H292 H 0.68668 0.82971 0.18186 0.0
S293 S 0.63985 0.62763 0.27425 0.0
N294 N 0.67657 0.66192 0.30055 0.0
N295 N 0.62787 0.66474 0.2268 0.0
C296 C 0.65423 0.70781 0.23053 0.0
C297 C 0.68077 0.70615 0.27048 0.0
C298 C 0.71135 0.17481 0.67013 0.0
C299 C 0.74678 0.21407 0.66911 0.0
C300 C 0.7121 0.1431 0.63485 0.0
C301 C 0.74865 0.14916 0.59784 0.0
H302 H 0.68321 0.16809 0.69895 0.0
H303 H 0.68468 0.11257 0.63785 0.0
S304 S 0.84899 0.24777 0.57843 0.0
N305 N 0.81864 0.2581 0.62764 0.0
N306 N 0.82033 0.19914 0.56117 0.0
C307 C 0.78382 0.18912 0.59592 0.0
C308 C 0.78292 0.22126 0.63172 0.0
C309 C 0.36526 0.25722 0.22484 0.0
C310 C 0.34631 0.29972 0.22114 0.0
C311 C 0.40151 0.25412 0.19085 0.0
C312 C 0.4205 0.29369 0.15239 0.0
H313 H 0.35192 0.22613 0.25418 0.0
H314 H 0.41488 0.22059 0.19498 0.0
S315 S 0.3828 0.41343 0.1276 0.0
N316 N 0.34893 0.38206 0.17678 0.0
N317 N 0.41703 0.37694 0.11297 0.0
C318 C 0.40184 0.33659 0.14874 0.0
C319 C 0.36483 0.33944 0.18312 0.0
C320 C 0.92394 0.68493 0.74423 0.0
C321 C 0.90475 0.69904 0.78747 0.0
C322 C 0.95374 0.65226 0.747 0.0
C323 C 0.96521 0.63233 0.79315 0.0
H324 H 0.91529 0.69857 0.70807 0.0
H325 H 0.96695 0.64163 0.71285 0.0
S326 S 0.92559 0.66023 0.917 0.0
N327 N 0.90014 0.69219 0.87732 0.0
N328 N 0.9565 0.63154 0.88296 0.0
C329 C 0.94699 0.64734 0.83654 0.0
C330 C 0.91663 0.6804 0.83359 0.0
C331 C 0.94473 0.42593 0.21647 0.0
C332 C 0.90722 0.40543 0.25148 0.0
C333 C 0.98009 0.4587 0.229 0.0
C334 C 0.97891 0.47156 0.27698 0.0
H335 H 0.94724 0.41552 0.17984 0.0
H336 H 1.00885 0.47309 0.20141 0.0
S337 S 0.88517 0.43115 0.37969 0.0
N338 N 0.86916 0.40265 0.33413 0.0
N339 N 0.93484 0.46388 0.35802 0.0
C340 C 0.94051 0.45241 0.31146 0.0
C341 C 0.90485 0.41944 0.2986 0.0
C342 C 0.18744 0.41603 0.75189 0.0
C343 C 0.17701 0.36871 0.78099 0.0
C344 C 0.15726 0.44835 0.7526 0.0
C345 C 0.11628 0.43453 0.78328 0.0
H346 H 0.21911 0.4281 0.72865 0.0
H347 H 0.16672 0.4849 0.73054 0.0
S348 S 0.07314 0.31414 0.86526 0.0
N349 N 0.12264 0.30915 0.83991 0.0
N350 N 0.06636 0.36992 0.84206 0.0
C351 C 0.10538 0.38702 0.81188 0.0
C352 C 0.13567 0.35407 0.81054 0.0
C353 C 0.23716 0.71653 0.33678 0.0
C354 C 0.22561 0.76314 0.3368 0.0
C355 C 0.20603 0.6759 0.33052 0.0
C356 C 0.16262 0.68078 0.32347 0.0
H357 H 0.2702 0.71118 0.34284 0.0
H358 H 0.21578 0.64036 0.33186 0.0
S359 S 0.11592 0.79451 0.31842 0.0
N360 N 0.16784 0.81174 0.32768 0.0
N361 N 0.10947 0.7351 0.31587 0.0
C362 C 0.15072 0.72702 0.32255 0.0
C363 C 0.18222 0.76833 0.32926 0.0
C364 C 0.79175 0.91692 0.70439 0.0
C365 C 0.83218 0.91424 0.72261 0.0
C366 C 0.78982 0.94744 0.65977 0.0
C367 C 0.82827 0.97679 0.63102 0.0
H368 H 0.76124 0.8943 0.7242 0.0
H369 H 0.75756 0.94739 0.64763 0.0
S370 S 0.94255 0.98466 0.66349 0.0
N371 N 0.91172 0.94452 0.70962 0.0
N372 N 0.90818 1.00201 0.62497 0.0
C373 C 0.86908 0.9749 0.64897 0.0
C374 C 0.87102 0.9436 0.69484 0.0
C375 C 0.67587 0.32892 0.16732 0.0
C376 C 0.70203 0.37531 0.1663 0.0
C377 C 0.63934 0.32345 0.14095 0.0
C378 C 0.62723 0.36421 0.11226 0.0
H379 H 0.68365 0.29653 0.189 0.0
H380 H 0.62061 0.28661 0.14304 0.0
S381 S 0.68532 0.49409 0.09739 0.0
N382 N 0.71369 0.46306 0.13439 0.0
N383 N 0.64495 0.45288 0.08464 0.0
C384 C 0.65329 0.41098 0.11084 0.0
C385 C 0.69066 0.41651 0.13785 0.0
C386 C 0.22286 0.16409 0.77587 0.0
C387 C 0.21462 0.20806 0.74931 0.0
C388 C 0.21676 0.12017 0.75624 0.0
C389 C 0.20113 0.11824 0.70998 0.0
H390 H 0.23577 0.16401 0.81121 0.0
H391 H 0.22687 0.0882 0.77595 0.0
S392 S 0.17415 0.22214 0.62558 0.0
N393 N 0.18982 0.24633 0.6739 0.0
N394 N 0.1767 0.16322 0.63854 0.0
C395 C 0.19032 0.16096 0.68438 0.0
C396 C 0.19746 0.20601 0.70366 0.0
C397 C 0.42669 0.83255 0.22197 0.0
C398 C 0.42617 0.88154 0.22796 0.0
C399 C 0.46194 0.82024 0.19287 0.0
C400 C 0.49787 0.85653 0.1678 0.0
H401 H 0.39932 0.80351 0.23955 0.0
H402 H 0.46046 0.78197 0.18927 0.0
S403 S 0.51195 0.99065 0.1709 0.0
N404 N 0.4644 0.96669 0.20622 0.0
N405 N 0.53051 0.94389 0.15137 0.0
C406 C 0.49769 0.90578 0.17353 0.0
C407 C 0.46186 0.9182 0.20344 0.0
C408 C 0.85729 0.21171 0.31102 0.0
C409 C 0.8217 0.23639 0.30386 0.0
C410 C 0.85403 0.17228 0.35034 0.0
C411 C 0.81489 0.15555 0.38387 0.0
H412 H 0.8885 0.22405 0.28693 0.0
H413 H 0.88274 0.15548 0.35505 0.0
S414 S 0.71155 0.20665 0.38073 0.0
N415 N 0.74583 0.24063 0.33324 0.0
N416 N 0.73907 0.1659 0.40614 0.0
C417 C 0.77837 0.17856 0.37583 0.0
C418 C 0.78189 0.21901 0.33606 0.0
C419 C 0.37969 0.28245 0.90519 0.0
C420 C 0.3598 0.32317 0.89164 0.0
C421 C 0.41851 0.28735 0.92786 0.0
C422 C 0.43936 0.33329 0.93754 0.0
H423 H 0.36394 0.24606 0.90044 0.0
H424 H 0.43132 0.25437 0.9396 0.0
S425 S 0.40351 0.45248 0.90273 0.0
N426 N 0.36602 0.41169 0.88454 0.0
N427 N 0.43916 0.42119 0.92703 0.0
C428 C 0.42156 0.37495 0.92069 0.0
C429 C 0.3818 0.36982 0.89772 0.0
C430 C 0.23202 0.91615 0.44076 0.0
C431 C 0.27123 0.89696 0.43515 0.0
C432 C 0.22295 0.94202 0.47988 0.0
C433 C 0.25284 0.9497 0.51468 0.0
H434 H 0.20861 0.912 0.41413 0.0
H435 H 0.19298 0.9572 0.48206 0.0
S436 S 0.35714 0.90106 0.52042 0.0
N437 N 0.33779 0.88325 0.47071 0.0
N438 N 0.3213 0.93208 0.54343 0.0
C439 C 0.29132 0.92909 0.51043 0.0
C440 C 0.30039 0.90273 0.4709 0.0
C441 C 0.75325 0.87226 0.91461 0.0
C442 C 0.76103 0.83084 0.89394 0.0
C443 C 0.71841 0.8687 0.95292 0.0
C444 C 0.68979 0.82351 0.97236 0.0
H445 H 0.77432 0.90786 0.90102 0.0
H446 H 0.71392 0.9018 0.96735 0.0
S447 S 0.69491 0.70419 0.92986 0.0
N448 N 0.73637 0.74339 0.89475 0.0
N449 N 0.67145 0.73639 0.96724 0.0
C450 C 0.69736 0.78167 0.9522 0.0
C451 C 0.73279 0.78539 0.91298 0.0
loop_
_geom_bond_atom_site_label_1
_geom_bond_atom_site_label_2
_geom_bond_distance
_geom_bond_site_symmetry_2
_ccdc_geom_bond_type
H0 C7 0.929 . S
H1 C10 0.930 . S
H2 C12 0.929 . S
H3 C4 0.969 . S
C4 H3 0.969 . S
C4 O5 1.550 . S
C4 H6 0.973 . S
O5 C4 1.550 . S
O5 C11 1.412 . S
H6 C4 0.973 . S
C7 H0 0.929 . S
C7 C8 1.400 . S
C7 C9 1.364 . S
C8 C7 1.400 . S
C8 C12 1.377 . S
C9 C7 1.364 . S
C9 C10 1.374 . S
C10 H1 0.930 . S
C10 C9 1.374 . S
C10 C11 1.383 . S
C11 O5 1.412 . S
C11 C10 1.383 . S
C11 C12 1.394 . S
C12 H2 0.929 . S
C12 C8 1.377 . S
C12 C11 1.394 . S
H13 C20 0.929 . S
H14 C23 0.930 . S
H15 C25 0.929 . S
H16 C17 0.969 . S
C17 H16 0.969 . S
C17 O18 1.550 . S
C17 H19 0.973 . S
O18 C17 1.550 . S
O18 C24 1.412 . S
H19 C17 0.973 . S
C20 H13 0.929 . S
C20 C21 1.400 . S
C20 C22 1.364 . S
C21 C20 1.400 . S
C21 C25 1.377 . S
C22 C20 1.364 . S
C22 C23 1.374 . S
C23 H14 0.930 . S
C23 C22 1.374 . S
C23 C24 1.383 . S
C24 O18 1.412 . S
C24 C23 1.383 . S
C24 C25 1.394 . S
C25 H15 0.929 . S
C25 C21 1.377 . S
C25 C24 1.394 . S
H26 C33 0.929 . S
H27 C36 0.930 . S
H28 C38 0.929 . S
H29 C30 0.969 . S
C30 H29 0.969 . S
C30 O31 1.550 . S
C30 H32 0.973 . S
O31 C30 1.550 . S
O31 C37 1.412 . S
H32 C30 0.973 . S
C33 H26 0.929 . S
C33 C34 1.400 . S
C33 C35 1.364 . S
C34 C33 1.400 . S
C34 C38 1.377 . S
C35 C33 1.364 . S
C35 C36 1.374 . S
C36 H27 0.930 . S
C36 C35 1.374 . S
C36 C37 1.383 . S
C37 O31 1.412 . S
C37 C36 1.383 . S
C37 C38 1.394 . S
C38 H28 0.929 . S
C38 C34 1.377 . S
C38 C37 1.394 . S
H39 C46 0.929 . S
H40 C49 0.930 . S
H41 C51 0.929 . S
H42 C43 0.969 . S
C43 H42 0.969 . S
C43 O44 1.550 . S
C43 H45 0.973 . S
O44 C43 1.550 . S
O44 C50 1.412 . S
H45 C43 0.973 . S
C46 H39 0.929 . S
C46 C47 1.400 . S
C46 C48 1.364 . S
C47 C46 1.400 . S
C47 C51 1.377 . S
C48 C46 1.364 . S
C48 C49 1.374 . S
C49 H40 0.930 . S
C49 C48 1.374 . S
C49 C50 1.383 . S
C50 O44 1.412 . S
C50 C49 1.383 . S
C50 C51 1.394 . S
C51 H41 0.929 . S
C51 C47 1.377 . S
C51 C50 1.394 . S
H52 C59 0.929 . S
H53 C62 0.930 . S
H54 C64 0.929 . S
H55 C56 0.969 . S
C56 H55 0.969 . S
C56 O57 1.550 . S
C56 H58 0.973 . S
O57 C56 1.550 . S
O57 C63 1.412 . S
H58 C56 0.973 . S
C59 H52 0.929 . S
C59 C60 1.400 . S
C59 C61 1.364 . S
C60 C59 1.400 . S
C60 C64 1.377 . S
C61 C59 1.364 . S
C61 C62 1.374 . S
C62 H53 0.930 . S
C62 C61 1.374 . S
C62 C63 1.383 . S
C63 O57 1.412 . S
C63 C62 1.383 . S
C63 C64 1.394 . S
C64 H54 0.929 . S
C64 C60 1.377 . S
C64 C63 1.394 . S
H65 C72 0.929 . S
H66 C75 0.930 . S
H67 C77 0.929 . S
H68 C69 0.969 . S
C69 H68 0.969 . S
C69 O70 1.550 . S
C69 H71 0.973 . S
O70 C69 1.550 . S
O70 C76 1.412 . S
H71 C69 0.973 . S
C72 H65 0.929 . S
C72 C73 1.400 . S
C72 C74 1.364 . S
C73 C72 1.400 . S
C73 C77 1.377 . S
C74 C72 1.364 . S
C74 C75 1.374 . S
C75 H66 0.930 . S
C75 C74 1.374 . S
C75 C76 1.383 . S
C76 O70 1.412 . S
C76 C75 1.383 . S
C76 C77 1.394 . S
C77 H67 0.929 . S
C77 C73 1.377 . S
C77 C76 1.394 . S
H78 C85 0.929 . S
H79 C88 0.930 . S
H80 C90 0.929 . S
H81 C82 0.969 . S
C82 H81 0.969 . S
C82 O83 1.550 . S
C82 H84 0.973 . S
O83 C82 1.550 . S
O83 C89 1.412 . S
H84 C82 0.973 . S
C85 H78 0.929 . S
C85 C86 1.400 . S
C85 C87 1.364 . S
C86 C85 1.400 . S
C86 C90 1.377 . S
C87 C85 1.364 . S
C87 C88 1.374 . S
C88 H79 0.930 . S
C88 C87 1.374 . S
C88 C89 1.383 . S
C89 O83 1.412 . S
C89 C88 1.383 . S
C89 C90 1.394 . S
C90 H80 0.929 . S
C90 C86 1.377 . S
C90 C89 1.394 . S
H91 C98 0.929 . S
H92 C101 0.930 . S
H93 C103 0.929 . S
H94 C95 0.969 . S
C95 H94 0.969 . S
C95 O96 1.550 . S
C95 H97 0.973 . S
O96 C95 1.550 . S
O96 C102 1.412 . S
H97 C95 0.973 . S
C98 H91 0.929 . S
C98 C99 1.400 . S
C98 C100 1.364 . S
C99 C98 1.400 . S
C99 C103 1.377 . S
C100 C98 1.364 . S
C100 C101 1.374 . S
C101 H92 0.930 . S
C101 C100 1.374 . S
C101 C102 1.383 . S
C102 O96 1.412 . S
C102 C101 1.383 . S
C102 C103 1.394 . S
C103 H93 0.929 . S
C103 C99 1.377 . S
C103 C102 1.394 . S
C104 O106 1.247 . S
C104 O108 1.258 . S
C105 O112 1.247 . S
C105 O113 1.258 . S
O106 C104 1.247 . S
O106 Zn107 2.028 1_655 S
Zn107 O106 2.028 1_455 S
Zn107 O111 2.035 . S
Zn107 O113 2.035 . S
Zn107 O114 2.028 1_455 S
O108 C104 1.258 . S
O108 Zn109 2.035 1_655 S
Zn109 O108 2.035 1_455 S
Zn109 O110 2.028 . S
Zn109 O112 2.028 . S
Zn109 O115 2.035 1_455 S
O110 Zn109 2.028 . S
O110 C116 1.247 . S
O111 Zn107 2.035 . S
O111 C116 1.258 . S
O112 C105 1.247 . S
O112 Zn109 2.028 . S
O113 C105 1.258 . S
O113 Zn107 2.035 . S
O114 Zn107 2.028 1_655 S
O114 C117 1.247 . S
O115 Zn109 2.035 1_655 S
O115 C117 1.258 . S
C116 O110 1.247 . S
C116 O111 1.258 . S
C117 O114 1.247 . S
C117 O115 1.258 . S
C118 O120 1.247 . S
C118 O122 1.258 1_655 S
C119 O126 1.247 . S
C119 O127 1.258 . S
O120 C118 1.247 . S
O120 Zn121 2.028 1_655 S
Zn121 O120 2.028 1_455 S
Zn121 O125 2.035 . S
Zn121 O127 2.035 . S
Zn121 O128 2.028 1_455 S
O122 C118 1.258 1_455 S
O122 Zn123 2.035 . S
Zn123 O122 2.035 . S
Zn123 O124 2.028 . S
Zn123 O126 2.028 . S
Zn123 O129 2.035 . S
O124 Zn123 2.028 . S
O124 C130 1.247 . S
O125 Zn121 2.035 . S
O125 C130 1.258 . S
O126 C119 1.247 . S
O126 Zn123 2.028 . S
O127 C119 1.258 . S
O127 Zn121 2.035 . S
O128 Zn121 2.028 1_655 S
O128 C131 1.247 . S
O129 Zn123 2.035 . S
O129 C131 1.258 1_455 S
C130 O124 1.247 . S
C130 O125 1.258 . S
C131 O128 1.247 . S
C131 O129 1.258 1_655 S
C132 O134 1.247 . S
C132 O136 1.258 . S
C133 O140 1.247 . S
C133 O141 1.258 . S
O134 C132 1.247 . S
O134 Zn135 2.028 1_565 S
Zn135 O134 2.028 1_545 S
Zn135 O139 2.035 . S
Zn135 O141 2.035 . S
Zn135 O142 2.028 1_545 S
O136 C132 1.258 . S
O136 Zn137 2.035 1_565 S
Zn137 O136 2.035 1_545 S
Zn137 O138 2.028 . S
Zn137 O140 2.028 . S
Zn137 O143 2.035 1_545 S
O138 Zn137 2.028 . S
O138 C144 1.247 . S
O139 Zn135 2.035 . S
O139 C144 1.258 . S
O140 C133 1.247 . S
O140 Zn137 2.028 . S
O141 C133 1.258 . S
O141 Zn135 2.035 . S
O142 Zn135 2.028 1_565 S
O142 C145 1.247 . S
O143 Zn137 2.035 1_565 S
O143 C145 1.258 . S
C144 O138 1.247 . S
C144 O139 1.258 . S
C145 O142 1.247 . S
C145 O143 1.258 . S
C146 O148 1.247 . S
C146 O150 1.258 . S
C147 O154 1.247 . S
C147 O155 1.258 . S
O148 C146 1.247 . S
O148 Zn149 2.028 . S
Zn149 O148 2.028 . S
Zn149 O153 2.035 . S
Zn149 O155 2.035 . S
Zn149 O156 2.028 . S
O150 C146 1.258 . S
O150 Zn151 2.035 . S
Zn151 O150 2.035 . S
Zn151 O152 2.028 . S
Zn151 O154 2.028 . S
Zn151 O157 2.035 . S
O152 Zn151 2.028 . S
O152 C158 1.247 . S
O153 Zn149 2.035 . S
O153 C158 1.258 . S
O154 C147 1.247 . S
O154 Zn151 2.028 . S
O155 C147 1.258 . S
O155 Zn149 2.035 . S
O156 Zn149 2.028 . S
O156 C159 1.247 . S
O157 Zn151 2.035 . S
O157 C159 1.258 . S
C158 O152 1.247 . S
C158 O153 1.258 . S
C159 O156 1.247 . S
C159 O157 1.258 . S
C160 O162 1.247 . S
C160 O164 1.258 . S
C161 O168 1.247 . S
C161 O169 1.258 . S
O162 C160 1.247 . S
O162 Zn163 2.028 . S
Zn163 O162 2.028 . S
Zn163 O167 2.035 1_565 S
Zn163 O169 2.035 1_565 S
Zn163 O170 2.028 . S
O164 C160 1.258 . S
O164 Zn165 2.035 1_565 S
Zn165 O164 2.035 1_545 S
Zn165 O166 2.028 . S
Zn165 O168 2.028 . S
Zn165 O171 2.035 1_545 S
O166 Zn165 2.028 . S
O166 C172 1.247 . S
O167 Zn163 2.035 1_545 S
O167 C172 1.258 . S
O168 C161 1.247 . S
O168 Zn165 2.028 . S
O169 C161 1.258 . S
O169 Zn163 2.035 1_545 S
O170 Zn163 2.028 . S
O170 C173 1.247 . S
O171 Zn165 2.035 1_565 S
O171 C173 1.258 . S
C172 O166 1.247 . S
C172 O167 1.258 . S
C173 O170 1.247 . S
C173 O171 1.258 . S
C174 O176 1.247 . S
C174 O178 1.258 . S
C175 O182 1.247 . S
C175 O183 1.258 . S
O176 C174 1.247 . S
O176 Zn177 2.028 . S
Zn177 O176 2.028 . S
Zn177 O181 2.035 . S
Zn177 O183 2.035 1_554 S
Zn177 O184 2.028 1_554 S
O178 C174 1.258 . S
O178 Zn179 2.035 1_554 S
Zn179 O178 2.035 1_556 S
Zn179 O180 2.028 1_556 S
Zn179 O182 2.028 . S
Zn179 O185 2.035 . S
O180 Zn179 2.028 1_554 S
O180 C186 1.247 . S
O181 Zn177 2.035 . S
O181 C186 1.258 . S
O182 C175 1.247 . S
O182 Zn179 2.028 . S
O183 C175 1.258 . S
O183 Zn177 2.035 1_556 S
O184 Zn177 2.028 1_556 S
O184 C187 1.247 . S
O185 Zn179 2.035 . S
O185 C187 1.258 . S
C186 O180 1.247 . S
C186 O181 1.258 . S
C187 O184 1.247 . S
C187 O185 1.258 . S
C188 C189 1.369 . S
C188 C190 1.419 . S
C188 H192 0.930 . S
C189 C188 1.369 . S
C189 C198 1.429 . S
C190 C188 1.419 . S
C190 C191 1.363 . S
C190 H193 0.929 . S
C191 C190 1.363 . S
C191 C197 1.428 . S
H192 C188 0.930 . S
H193 C190 0.929 . S
S194 N195 1.613 . S
S194 N196 1.610 . S
N195 S194 1.613 . S
N195 C198 1.350 . S
N196 S194 1.610 . S
N196 C197 1.351 . S
C197 C191 1.428 . S
C197 N196 1.351 . S
C197 C198 1.434 . S
C198 C189 1.429 . S
C198 N195 1.350 . S
C198 C197 1.434 . S
C199 C200 1.369 . S
C199 C201 1.419 . S
C199 H203 0.930 . S
C200 C199 1.369 . S
C200 C209 1.429 . S
C201 C199 1.419 . S
C201 C202 1.363 . S
C201 H204 0.929 . S
C202 C201 1.363 . S
C202 C208 1.428 . S
H203 C199 0.930 . S
H204 C201 0.929 . S
S205 N206 1.613 . S
S205 N207 1.610 . S
N206 S205 1.613 . S
N206 C209 1.350 . S
N207 S205 1.610 . S
N207 C208 1.351 . S
C208 C202 1.428 . S
C208 N207 1.351 . S
C208 C209 1.434 . S
C209 C200 1.429 . S
C209 N206 1.350 . S
C209 C208 1.434 . S
C210 C211 1.369 . S
C210 C212 1.419 . S
C210 H214 0.930 . S
C211 C210 1.369 . S
C211 C220 1.429 . S
C212 C210 1.419 . S
C212 C213 1.363 . S
C212 H215 0.929 . S
C213 C212 1.363 . S
C213 C219 1.428 . S
H214 C210 0.930 . S
H215 C212 0.929 . S
S216 N217 1.613 . S
S216 N218 1.610 . S
N217 S216 1.613 . S
N217 C220 1.350 . S
N218 S216 1.610 . S
N218 C219 1.351 . S
C219 C213 1.428 . S
C219 N218 1.351 . S
C219 C220 1.434 . S
C220 C211 1.429 . S
C220 N217 1.350 . S
C220 C219 1.434 . S
C221 C222 1.369 . S
C221 C223 1.419 . S
C221 H225 0.930 . S
C222 C221 1.369 . S
C222 C231 1.429 . S
C223 C221 1.419 . S
C223 C224 1.363 . S
C223 H226 0.929 . S
C224 C223 1.363 . S
C224 C230 1.428 . S
H225 C221 0.930 . S
H226 C223 0.929 . S
S227 N228 1.613 . S
S227 N229 1.610 . S
N228 S227 1.613 . S
N228 C231 1.350 . S
N229 S227 1.610 . S
N229 C230 1.351 . S
C230 C224 1.428 . S
C230 N229 1.351 . S
C230 C231 1.434 . S
C231 C222 1.429 . S
C231 N228 1.350 . S
C231 C230 1.434 . S
C232 C233 1.369 . S
C232 C234 1.419 . S
C232 H236 0.930 . S
C233 C232 1.369 . S
C233 C242 1.429 . S
C234 C232 1.419 . S
C234 C235 1.363 . S
C234 H237 0.929 . S
C235 C234 1.363 . S
C235 C241 1.428 . S
H236 C232 0.930 . S
H237 C234 0.929 . S
S238 N239 1.613 . S
S238 N240 1.610 . S
N239 S238 1.613 . S
N239 C242 1.350 . S
N240 S238 1.610 . S
N240 C241 1.351 . S
C241 C235 1.428 . S
C241 N240 1.351 . S
C241 C242 1.434 . S
C242 C233 1.429 . S
C242 N239 1.350 . S
C242 C241 1.434 . S
C243 C244 1.369 . S
C243 C245 1.419 . S
C243 H247 0.930 . S
C244 C243 1.369 . S
C244 C253 1.429 . S
C245 C243 1.419 . S
C245 C246 1.363 . S
C245 H248 0.929 . S
C246 C245 1.363 . S
C246 C252 1.428 . S
H247 C243 0.930 . S
H248 C245 0.929 . S
S249 N250 1.613 1_554 S
S249 N251 1.610 . S
N250 S249 1.613 1_556 S
N250 C253 1.350 . S
N251 S249 1.610 . S
N251 C252 1.351 1_554 S
C252 C246 1.428 . S
C252 N251 1.351 1_556 S
C252 C253 1.434 . S
C253 C244 1.429 . S
C253 N250 1.350 . S
C253 C252 1.434 . S
C254 C255 1.369 . S
C254 C256 1.419 . S
C254 H258 0.930 . S
C255 C254 1.369 . S
C255 C264 1.429 . S
C256 C254 1.419 . S
C256 C257 1.363 . S
C256 H259 0.929 . S
C257 C256 1.363 . S
C257 C263 1.428 . S
H258 C254 0.930 . S
H259 C256 0.929 . S
S260 N261 1.613 . S
S260 N262 1.610 . S
N261 S260 1.613 . S
N261 C264 1.350 . S
N262 S260 1.610 . S
N262 C263 1.351 . S
C263 C257 1.428 . S
C263 N262 1.351 . S
C263 C264 1.434 . S
C264 C255 1.429 . S
C264 N261 1.350 . S
C264 C263 1.434 . S
C265 C266 1.369 . S
C265 C267 1.419 . S
C265 H269 0.930 . S
C266 C265 1.369 . S
C266 C275 1.429 . S
C267 C265 1.419 . S
C267 C268 1.363 . S
C267 H270 0.929 . S
C268 C267 1.363 . S
C268 C274 1.428 . S
H269 C265 0.930 . S
H270 C267 0.929 . S
S271 N272 1.613 . S
S271 N273 1.610 . S
N272 S271 1.613 . S
N272 C275 1.350 . S
N273 S271 1.610 . S
N273 C274 1.351 . S
C274 C268 1.428 . S
C274 N273 1.351 . S
C274 C275 1.434 . S
C275 C266 1.429 . S
C275 N272 1.350 . S
C275 C274 1.434 . S
C276 C277 1.369 . S
C276 C278 1.419 . S
C276 H280 0.930 . S
C277 C276 1.369 . S
C277 C286 1.429 . S
C278 C276 1.419 . S
C278 C279 1.363 . S
C278 H281 0.929 . S
C279 C278 1.363 . S
C279 C285 1.428 . S
H280 C276 0.930 . S
H281 C278 0.929 . S
S282 N283 1.613 . S
S282 N284 1.610 . S
N283 S282 1.613 . S
N283 C286 1.350 . S
N284 S282 1.610 . S
N284 C285 1.351 . S
C285 C279 1.428 . S
C285 N284 1.351 . S
C285 C286 1.434 . S
C286 C277 1.429 . S
C286 N283 1.350 . S
C286 C285 1.434 . S
C287 C288 1.369 . S
C287 C289 1.419 . S
C287 H291 0.930 . S
C288 C287 1.369 . S
C288 C297 1.429 . S
C289 C287 1.419 . S
C289 C290 1.363 . S
C289 H292 0.929 . S
C290 C289 1.363 . S
C290 C296 1.428 . S
H291 C287 0.930 . S
H292 C289 0.929 . S
S293 N294 1.613 . S
S293 N295 1.610 . S
N294 S293 1.613 . S
N294 C297 1.350 . S
N295 S293 1.610 . S
N295 C296 1.351 . S
C296 C290 1.428 . S
C296 N295 1.351 . S
C296 C297 1.434 . S
C297 C288 1.429 . S
C297 N294 1.350 . S
C297 C296 1.434 . S
C298 C299 1.369 . S
C298 C300 1.419 . S
C298 H302 0.930 . S
C299 C298 1.369 . S
C299 C308 1.429 . S
C300 C298 1.419 . S
C300 C301 1.363 . S
C300 H303 0.929 . S
C301 C300 1.363 . S
C301 C307 1.428 . S
H302 C298 0.930 . S
H303 C300 0.929 . S
S304 N305 1.613 . S
S304 N306 1.610 . S
N305 S304 1.613 . S
N305 C308 1.350 . S
N306 S304 1.610 . S
N306 C307 1.351 . S
C307 C301 1.428 . S
C307 N306 1.351 . S
C307 C308 1.434 . S
C308 C299 1.429 . S
C308 N305 1.350 . S
C308 C307 1.434 . S
C309 C310 1.369 . S
C309 C311 1.419 . S
C309 H313 0.930 . S
C310 C309 1.369 . S
C310 C319 1.429 . S
C311 C309 1.419 . S
C311 C312 1.363 . S
C311 H314 0.929 . S
C312 C311 1.363 . S
C312 C318 1.428 . S
H313 C309 0.930 . S
H314 C311 0.929 . S
S315 N316 1.613 . S
S315 N317 1.610 . S
N316 S315 1.613 . S
N316 C319 1.350 . S
N317 S315 1.610 . S
N317 C318 1.351 . S
C318 C312 1.428 . S
C318 N317 1.351 . S
C318 C319 1.434 . S
C319 C310 1.429 . S
C319 N316 1.350 . S
C319 C318 1.434 . S
C320 C321 1.369 . S
C320 C322 1.419 . S
C320 H324 0.930 . S
C321 C320 1.369 . S
C321 C330 1.429 . S
C322 C320 1.419 . S
C322 C323 1.363 . S
C322 H325 0.929 . S
C323 C322 1.363 . S
C323 C329 1.428 . S
H324 C320 0.930 . S
H325 C322 0.929 . S
S326 N327 1.613 . S
S326 N328 1.610 . S
N327 S326 1.613 . S
N327 C330 1.350 . S
N328 S326 1.610 . S
N328 C329 1.351 . S
C329 C323 1.428 . S
C329 N328 1.351 . S
C329 C330 1.434 . S
C330 C321 1.429 . S
C330 N327 1.350 . S
C330 C329 1.434 . S
C331 C332 1.369 . S
C331 C333 1.419 . S
C331 H335 0.930 . S
C332 C331 1.369 . S
C332 C341 1.429 . S
C333 C331 1.419 . S
C333 C334 1.363 . S
C333 H336 0.929 . S
C334 C333 1.363 . S
C334 C340 1.428 . S
H335 C331 0.930 . S
H336 C333 0.929 . S
S337 N338 1.613 . S
S337 N339 1.610 . S
N338 S337 1.613 . S
N338 C341 1.350 . S
N339 S337 1.610 . S
N339 C340 1.351 . S
C340 C334 1.428 . S
C340 N339 1.351 . S
C340 C341 1.434 . S
C341 C332 1.429 . S
C341 N338 1.350 . S
C341 C340 1.434 . S
C342 C343 1.369 . S
C342 C344 1.419 . S
C342 H346 0.930 . S
C343 C342 1.369 . S
C343 C352 1.429 . S
C344 C342 1.419 . S
C344 C345 1.363 . S
C344 H347 0.929 . S
C345 C344 1.363 . S
C345 C351 1.428 . S
H346 C342 0.930 . S
H347 C344 0.929 . S
S348 N349 1.613 . S
S348 N350 1.610 . S
N349 S348 1.613 . S
N349 C352 1.350 . S
N350 S348 1.610 . S
N350 C351 1.351 . S
C351 C345 1.428 . S
C351 N350 1.351 . S
C351 C352 1.434 . S
C352 C343 1.429 . S
C352 N349 1.350 . S
C352 C351 1.434 . S
C353 C354 1.369 . S
C353 C355 1.419 . S
C353 H357 0.930 . S
C354 C353 1.369 . S
C354 C363 1.429 . S
C355 C353 1.419 . S
C355 C356 1.363 . S
C355 H358 0.929 . S
C356 C355 1.363 . S
C356 C362 1.428 . S
H357 C353 0.930 . S
H358 C355 0.929 . S
S359 N360 1.613 . S
S359 N361 1.610 . S
N360 S359 1.613 . S
N360 C363 1.350 . S
N361 S359 1.610 . S
N361 C362 1.351 . S
C362 C356 1.428 . S
C362 N361 1.351 . S
C362 C363 1.434 . S
C363 C354 1.429 . S
C363 N360 1.350 . S
C363 C362 1.434 . S
C364 C365 1.369 . S
C364 C366 1.419 . S
C364 H368 0.930 . S
C365 C364 1.369 . S
C365 C374 1.429 . S
C366 C364 1.419 . S
C366 C367 1.363 . S
C366 H369 0.929 . S
C367 C366 1.363 . S
C367 C373 1.428 . S
H368 C364 0.930 . S
H369 C366 0.929 . S
S370 N371 1.613 . S
S370 N372 1.610 . S
N371 S370 1.613 . S
N371 C374 1.350 . S
N372 S370 1.610 . S
N372 C373 1.351 . S
C373 C367 1.428 . S
C373 N372 1.351 . S
C373 C374 1.434 . S
C374 C365 1.429 . S
C374 N371 1.350 . S
C374 C373 1.434 . S
C375 C376 1.369 . S
C375 C377 1.419 . S
C375 H379 0.930 . S
C376 C375 1.369 . S
C376 C385 1.429 . S
C377 C375 1.419 . S
C377 C378 1.363 . S
C377 H380 0.929 . S
C378 C377 1.363 . S
C378 C384 1.428 . S
H379 C375 0.930 . S
H380 C377 0.929 . S
S381 N382 1.613 . S
S381 N383 1.610 . S
N382 S381 1.613 . S
N382 C385 1.350 . S
N383 S381 1.610 . S
N383 C384 1.351 . S
C384 C378 1.428 . S
C384 N383 1.351 . S
C384 C385 1.434 . S
C385 C376 1.429 . S
C385 N382 1.350 . S
C385 C384 1.434 . S
C386 C387 1.369 . S
C386 C388 1.419 . S
C386 H390 0.930 . S
C387 C386 1.369 . S
C387 C396 1.429 . S
C388 C386 1.419 . S
C388 C389 1.363 . S
C388 H391 0.929 . S
C389 C388 1.363 . S
C389 C395 1.428 . S
H390 C386 0.930 . S
H391 C388 0.929 . S
S392 N393 1.613 . S
S392 N394 1.610 . S
N393 S392 1.613 . S
N393 C396 1.350 . S
N394 S392 1.610 . S
N394 C395 1.351 . S
C395 C389 1.428 . S
C395 N394 1.351 . S
C395 C396 1.434 . S
C396 C387 1.429 . S
C396 N393 1.350 . S
C396 C395 1.434 . S
C397 C398 1.369 . S
C397 C399 1.419 . S
C397 H401 0.930 . S
C398 C397 1.369 . S
C398 C407 1.429 . S
C399 C397 1.419 . S
C399 C400 1.363 . S
C399 H402 0.929 . S
C400 C399 1.363 . S
C400 C406 1.428 . S
H401 C397 0.930 . S
H402 C399 0.929 . S
S403 N404 1.613 . S
S403 N405 1.610 . S
N404 S403 1.613 . S
N404 C407 1.350 . S
N405 S403 1.610 . S
N405 C406 1.351 . S
C406 C400 1.428 . S
C406 N405 1.351 . S
C406 C407 1.434 . S
C407 C398 1.429 . S
C407 N404 1.350 . S
C407 C406 1.434 . S
C408 C409 1.369 . S
C408 C410 1.419 . S
C408 H412 0.930 . S
C409 C408 1.369 . S
C409 C418 1.429 . S
C410 C408 1.419 . S
C410 C411 1.363 . S
C410 H413 0.929 . S
C411 C410 1.363 . S
C411 C417 1.428 . S
H412 C408 0.930 . S
H413 C410 0.929 . S
S414 N415 1.613 . S
S414 N416 1.610 . S
N415 S414 1.613 . S
N415 C418 1.350 . S
N416 S414 1.610 . S
N416 C417 1.351 . S
C417 C411 1.428 . S
C417 N416 1.351 . S
C417 C418 1.434 . S
C418 C409 1.429 . S
C418 N415 1.350 . S
C418 C417 1.434 . S
C419 C420 1.369 . S
C419 C421 1.419 . S
C419 H423 0.930 . S
C420 C419 1.369 . S
C420 C429 1.429 . S
C421 C419 1.419 . S
C421 C422 1.363 . S
C421 H424 0.929 . S
C422 C421 1.363 . S
C422 C428 1.428 . S
H423 C419 0.930 . S
H424 C421 0.929 . S
S425 N426 1.613 . S
S425 N427 1.610 . S
N426 S425 1.613 . S
N426 C429 1.350 . S
N427 S425 1.610 . S
N427 C428 1.351 . S
C428 C422 1.428 . S
C428 N427 1.351 . S
C428 C429 1.434 . S
C429 C420 1.429 . S
C429 N426 1.350 . S
C429 C428 1.434 . S
C430 C431 1.369 . S
C430 C432 1.419 . S
C430 H434 0.930 . S
C431 C430 1.369 . S
C431 C440 1.429 . S
C432 C430 1.419 . S
C432 C433 1.363 . S
C432 H435 0.929 . S
C433 C432 1.363 . S
C433 C439 1.428 . S
H434 C430 0.930 . S
H435 C432 0.929 . S
S436 N437 1.613 . S
S436 N438 1.610 . S
N437 S436 1.613 . S
N437 C440 1.350 . S
N438 S436 1.610 . S
N438 C439 1.351 . S
C439 C433 1.428 . S
C439 N438 1.351 . S
C439 C440 1.434 . S
C440 C431 1.429 . S
C440 N437 1.350 . S
C440 C439 1.434 . S
C441 C442 1.369 . S
C441 C443 1.419 . S
C441 H445 0.930 . S
C442 C441 1.369 . S
C442 C451 1.429 . S
C443 C441 1.419 . S
C443 C444 1.363 . S
C443 H446 0.929 . S
C444 C443 1.363 . S
C444 C450 1.428 . S
H445 C441 0.930 . S
H446 C443 0.929 . S
S447 N448 1.613 . S
S447 N449 1.610 . S
N448 S447 1.613 . S
N448 C451 1.350 . S
N449 S447 1.610 . S
N449 C450 1.351 . S
C450 C444 1.428 . S
C450 N449 1.351 . S
C450 C451 1.434 . S
C451 C442 1.429 . S
C451 N448 1.350 . S
C451 C450 1.434 . S
C191 C116 1.614 . S
C189 C8 1.630 . S
C202 C119 1.564 . S
C200 C22 1.553 . S
C213 C117 1.586 . S
C211 C30 1.617 . S
C224 C118 1.429 . S
C222 C47 1.431 . S
C235 C133 1.668 . S
C233 C9 1.688 . S
C246 C147 1.607 1_556 S
C244 C17 1.567 . S
C255 C34 1.541 . S
C257 C173 1.525 . S
C268 C187 1.591 . S
C266 C48 1.590 . S
C279 C132 1.683 . S
C277 C21 1.702 . S
C288 C35 1.623 . S
C290 C146 1.642 . S
C301 C172 1.407 . S
C299 C43 1.348 . S
C312 C186 1.572 . S
C310 C4 1.556 . S
C321 C56 1.413 . S
C323 C131 1.462 . S
C334 C104 1.594 . S
C332 C73 1.593 . S
C343 C87 1.605 . S
C345 C130 1.605 . S
C354 C100 1.705 . S
C356 C105 1.688 . S
C367 C160 1.610 . S
C365 C60 1.629 . S
C378 C174 1.516 . S
C376 C69 1.458 . S
C389 C144 1.740 . S
C387 C86 1.767 . S
C398 C95 1.421 . S
C400 C158 1.490 . S
C411 C161 1.625 . S
C409 C74 1.646 . S
C422 C175 1.502 . S
C420 C82 1.436 . S
C433 C145 1.774 . S
C431 C99 1.800 . S
C442 C61 1.538 . S
C444 C159 1.548 1_556 S
