# Generated by pormake.
# Topology pyr, (3,6)-cn, num edge types: 1
# Building blocks:
#     Node 0, Type 0, BuildingBlock: QEWDON_clean_linker_0, # of connection points: 3
#     Node 1, Type 0, BuildingBlock: QEWDON_clean_linker_0, # of connection points: 3
#     Node 2, Type 0, BuildingBlock: QEWDON_clean_linker_0, # of connection points: 3
#     Node 3, Type 0, BuildingBlock: QEWDON_clean_linker_0, # of connection points: 3
#     Node 4, Type 0, BuildingBlock: QEWDON_clean_linker_0, # of connection points: 3
#     Node 5, Type 0, BuildingBlock: QEWDON_clean_linker_0, # of connection points: 3
#     Node 6, Type 0, BuildingBlock: QEWDON_clean_linker_0, # of connection points: 3
#     Node 7, Type 0, BuildingBlock: QEWDON_clean_linker_0, # of connection points: 3
#     Node 8, Type 1, BuildingBlock: BETFEN_clean_sbu_0, # of connection points: 6
#     Node 9, Type 1, BuildingBlock: BETFEN_clean_sbu_0, # of connection points: 6
#     Node 10, Type 1, BuildingBlock: BETFEN_clean_sbu_0, # of connection points: 6
#     Node 11, Type 1, BuildingBlock: BETFEN_clean_sbu_0, # of connection points: 6
#     Edge 12, Type (0, 1), BuildingBlock: TEMPAE_clean_linker_10, # of connection points: 2
#     Edge 13, Type (0, 1), BuildingBlock: TEMPAE_clean_linker_10, # of connection points: 2
#     Edge 14, Type (0, 1), BuildingBlock: TEMPAE_clean_linker_10, # of connection points: 2
#     Edge 15, Type (0, 1), BuildingBlock: TEMPAE_clean_linker_10, # of connection points: 2
#     Edge 16, Type (0, 1), BuildingBlock: TEMPAE_clean_linker_10, # of connection points: 2
#     Edge 17, Type (0, 1), BuildingBlock: TEMPAE_clean_linker_10, # of connection points: 2
#     Edge 18, Type (0, 1), BuildingBlock: TEMPAE_clean_linker_10, # of connection points: 2
#     Edge 19, Type (0, 1), BuildingBlock: TEMPAE_clean_linker_10, # of connection points: 2
#     Edge 20, Type (0, 1), BuildingBlock: TEMPAE_clean_linker_10, # of connection points: 2
#     Edge 21, Type (0, 1), BuildingBlock: TEMPAE_clean_linker_10, # of connection points: 2
#     Edge 22, Type (0, 1), BuildingBlock: TEMPAE_clean_linker_10, # of connection points: 2
#     Edge 23, Type (0, 1), BuildingBlock: TEMPAE_clean_linker_10, # of connection points: 2
#     Edge 24, Type (0, 1), BuildingBlock: TEMPAE_clean_linker_10, # of connection points: 2
#     Edge 25, Type (0, 1), BuildingBlock: TEMPAE_clean_linker_10, # of connection points: 2
#     Edge 26, Type (0, 1), BuildingBlock: TEMPAE_clean_linker_10, # of connection points: 2
#     Edge 27, Type (0, 1), BuildingBlock: TEMPAE_clean_linker_10, # of connection points: 2
#     Edge 28, Type (0, 1), BuildingBlock: TEMPAE_clean_linker_10, # of connection points: 2
#     Edge 29, Type (0, 1), BuildingBlock: TEMPAE_clean_linker_10, # of connection points: 2
#     Edge 30, Type (0, 1), BuildingBlock: TEMPAE_clean_linker_10, # of connection points: 2
#     Edge 31, Type (0, 1), BuildingBlock: TEMPAE_clean_linker_10, # of connection points: 2
#     Edge 32, Type (0, 1), BuildingBlock: TEMPAE_clean_linker_10, # of connection points: 2
#     Edge 33, Type (0, 1), BuildingBlock: TEMPAE_clean_linker_10, # of connection points: 2
#     Edge 34, Type (0, 1), BuildingBlock: TEMPAE_clean_linker_10, # of connection points: 2
#     Edge 35, Type (0, 1), BuildingBlock: TEMPAE_clean_linker_10, # of connection points: 2
# Relax obj value: 0.174
# Max RMSD: 0.308
# Mean RMSD: 0.177
data_MOF--net-pyr--node1-BETFEN_clean_sbu_0--node2-QEWDON_clean_linker_0--edge1-TEMPAE_clean_linker_10
_symmetry_space_group_name_H-M    P1
_symmetry_Int_Tables_number       1
_symmetry_cell_setting            triclinic
loop_
_symmetry_equiv_pos_as_xyz
'x, y, z'
_cell_length_a     37.250997
_cell_length_b     41.386747
_cell_length_c     41.400182
_cell_angle_alpha  91.001044
_cell_angle_beta   101.03705
_cell_angle_gamma 121.06166
loop_
_atom_site_label
_atom_site_type_symbol
_atom_site_fract_x
_atom_site_fract_y
_atom_site_fract_z
_atom_type_partial_charge
H0 H 0.4408 0.37989 0.24429 0.0
C1 C 0.42247 0.37157 0.26328 0.0
C2 C 0.40629 0.3349 0.27238 0.0
C3 C 0.41415 0.39717 0.27801 0.0
H4 H 0.3689 0.29559 0.30324 0.0
C5 C 0.38179 0.32402 0.2964 0.0
C6 C 0.3729 0.34906 0.31115 0.0
C7 C 0.38952 0.38575 0.30211 0.0
C8 C 0.42894 0.43496 0.2668 0.0
H9 H 0.3826 0.40515 0.31337 0.0
C10 C 0.40015 0.44754 0.25922 0.0
C11 C 0.41287 0.48249 0.24717 0.0
C12 C 0.47109 0.45801 0.26251 0.0
H13 H 0.49399 0.44906 0.26831 0.0
C14 C 0.48408 0.49299 0.25085 0.0
H15 H 0.36717 0.42934 0.26144 0.0
C16 C 0.45513 0.50515 0.24303 0.0
H17 H 0.46575 0.53225 0.23384 0.0
H18 H 0.51664 0.51063 0.24767 0.0
H19 H 0.28514 0.9019 0.75668 0.0
C20 C 0.30428 0.89357 0.74639 0.0
C21 C 0.33982 0.89527 0.76761 0.0
C22 C 0.29208 0.87894 0.71244 0.0
H23 H 0.39071 0.88398 0.77104 0.0
C24 C 0.36368 0.88309 0.75462 0.0
C25 C 0.35252 0.86893 0.72095 0.0
C26 C 0.31714 0.86744 0.69999 0.0
C27 C 0.25161 0.87262 0.6902 0.0
H28 H 0.30902 0.85698 0.67385 0.0
C29 C 0.23773 0.89857 0.69201 0.0
C30 C 0.19968 0.89186 0.66989 0.0
C31 C 0.22626 0.8396 0.66659 0.0
H32 H 0.23476 0.81832 0.66516 0.0
C33 C 0.18944 0.83327 0.64446 0.0
H34 H 0.25645 0.92378 0.71038 0.0
C35 C 0.17653 0.85925 0.64575 0.0
H36 H 0.14833 0.85372 0.62743 0.0
H37 H 0.1708 0.80807 0.62607 0.0
H38 H 0.68974 0.40932 0.83694 0.0
C39 C 0.67312 0.38573 0.85041 0.0
C40 C 0.68833 0.3906 0.8847 0.0
C41 C 0.6375 0.35057 0.83356 0.0
H42 H 0.6816 0.36473 0.92914 0.0
C43 C 0.66915 0.36017 0.90248 0.0
C44 C 0.63588 0.32388 0.88617 0.0
C45 C 0.61938 0.31951 0.85167 0.0
C46 C 0.62007 0.3467 0.79717 0.0
H47 H 0.5929 0.29196 0.83893 0.0
C48 C 0.62072 0.37774 0.7831 0.0
C49 C 0.60537 0.3752 0.74877 0.0
C50 C 0.60335 0.31261 0.77619 0.0
H51 H 0.60308 0.28837 0.78586 0.0
C52 C 0.58749 0.30962 0.74215 0.0
H53 H 0.63349 0.40415 0.79894 0.0
C54 C 0.58839 0.34057 0.72848 0.0
H55 H 0.57535 0.33716 0.70207 0.0
H56 H 0.57455 0.28319 0.72624 0.0
H57 H 0.88579 0.76863 0.34918 0.0
C58 C 0.86869 0.75102 0.36662 0.0
C59 C 0.87068 0.76832 0.3972 0.0
C60 C 0.84132 0.71113 0.3575 0.0
H61 H 0.84668 0.75929 0.44157 0.0
C62 C 0.84625 0.74561 0.41877 0.0
C63 C 0.81882 0.70612 0.41026 0.0
C64 C 0.81712 0.68908 0.37989 0.0
C65 C 0.83065 0.69256 0.32273 0.0
H66 H 0.79529 0.65859 0.37293 0.0
C67 C 0.86186 0.69504 0.30604 0.0
C68 C 0.84862 0.67464 0.27361 0.0
C69 C 0.78681 0.67054 0.3063 0.0
H70 H 0.76223 0.66863 0.31798 0.0
C71 C 0.77377 0.6503 0.27493 0.0
H72 H 0.89577 0.71224 0.31824 0.0
C73 C 0.80408 0.65184 0.25898 0.0
H74 H 0.79221 0.63452 0.23504 0.0
H75 H 0.73979 0.63291 0.263 0.0
H76 H 0.62864 0.67432 0.85805 0.0
C77 C 0.63341 0.68359 0.83406 0.0
C78 C 0.66669 0.68492 0.82169 0.0
C79 C 0.60863 0.69725 0.81694 0.0
H80 H 0.69932 0.69978 0.78159 0.0
C81 C 0.67333 0.69818 0.79106 0.0
C82 C 0.64874 0.71184 0.77367 0.0
C83 C 0.61652 0.71142 0.78686 0.0
C84 C 0.57713 0.69988 0.83197 0.0
H85 H 0.59803 0.7227 0.774 0.0
C86 C 0.58173 0.73542 0.83877 0.0
C87 C 0.55366 0.73869 0.85507 0.0
C88 C 0.5436 0.66735 0.84087 0.0
H89 H 0.53961 0.63976 0.83587 0.0
C90 C 0.51488 0.67023 0.85618 0.0
H91 H 0.60841 0.76074 0.83278 0.0
C92 C 0.51993 0.70565 0.86343 0.0
H93 H 0.49762 0.70727 0.87574 0.0
H94 H 0.48891 0.645 0.86283 0.0
H95 H 0.77229 0.20677 0.46155 0.0
C96 C 0.76377 0.20664 0.435 0.0
C97 C 0.78376 0.1972 0.41425 0.0
C98 C 0.73133 0.21407 0.42184 0.0
H99 H 0.78644 0.18883 0.36335 0.0
C100 C 0.77144 0.19606 0.37977 0.0
C101 C 0.7395 0.20376 0.36608 0.0
C102 C 0.72002 0.21332 0.38729 0.0
C103 C 0.70663 0.21855 0.44415 0.0
H104 H 0.69417 0.21774 0.37671 0.0
C105 C 0.6951 0.24623 0.44143 0.0
C106 C 0.6731 0.25031 0.46388 0.0
C107 C 0.69437 0.19446 0.46877 0.0
H108 H 0.70151 0.17222 0.47099 0.0
C109 C 0.67236 0.19839 0.4907 0.0
H110 H 0.70409 0.26506 0.42267 0.0
C111 C 0.66205 0.22627 0.48846 0.0
H112 H 0.64506 0.22896 0.50584 0.0
H113 H 0.66329 0.17973 0.50954 0.0
H114 H 0.52559 0.82605 0.26825 0.0
C115 C 0.49092 0.80687 0.26332 0.0
C116 C 0.46392 0.81814 0.24585 0.0
C117 C 0.47335 0.77068 0.27389 0.0
H118 H 0.39841 0.801 0.22422 0.0
C119 C 0.41923 0.79309 0.23918 0.0
C120 C 0.40118 0.75654 0.2486 0.0
C121 C 0.42831 0.74548 0.26625 0.0
C122 C 0.50218 0.75804 0.29023 0.0
H123 H 0.4145 0.71688 0.27281 0.0
C124 C 0.49649 0.7414 0.31969 0.0
C125 C 0.52345 0.72859 0.33466 0.0
C126 C 0.53521 0.76204 0.27583 0.0
H127 H 0.53999 0.77445 0.25303 0.0
C128 C 0.56168 0.74916 0.29023 0.0
H129 H 0.47162 0.73919 0.33114 0.0
C130 C 0.55577 0.73237 0.31921 0.0
H131 H 0.57622 0.72179 0.32915 0.0
H132 H 0.58664 0.75185 0.27866 0.0
H133 H 0.24659 0.49244 0.78543 0.0
C134 C 0.22406 0.46299 0.77446 0.0
C135 C 0.2259 0.45025 0.74334 0.0
C136 C 0.19491 0.43735 0.79238 0.0
H137 H 0.20111 0.40132 0.7072 0.0
C138 C 0.19868 0.41155 0.73051 0.0
C139 C 0.17087 0.38521 0.74838 0.0
C140 C 0.16837 0.39833 0.77905 0.0
C141 C 0.20081 0.4493 0.82818 0.0
H142 H 0.14833 0.37795 0.79365 0.0
C143 C 0.17728 0.46337 0.83994 0.0
C144 C 0.1865 0.4759 0.8744 0.0
C145 C 0.2324 0.44727 0.85107 0.0
H146 H 0.25071 0.43662 0.84268 0.0
C147 C 0.24104 0.4591 0.88482 0.0
H148 H 0.15292 0.46524 0.82254 0.0
C149 C 0.21853 0.47341 0.89637 0.0
H150 H 0.22606 0.48246 0.92279 0.0
H151 H 0.26555 0.45737 0.90214 0.0
Pr152 Pr 0.98117 0.04932 0.58628 0.0
Pr153 Pr 0.0568 0.10135 0.55933 0.0
C154 C 0.9033 0.99676 0.59618 0.0
C155 C 0.87836 0.96039 0.60908 0.0
C156 C 0.88293 0.95911 0.64343 0.0
C157 C 0.85558 0.92591 0.65543 0.0
C158 C 0.82299 0.89307 0.63344 0.0
C159 C 0.81916 0.89403 0.59906 0.0
C160 C 0.8465 0.9274 0.58702 0.0
C161 C 0.03512 0.1207 0.62549 0.0
C162 C 0.06656 0.04732 0.61459 0.0
C163 C 0.1343 0.15341 0.5486 0.0
C164 C 0.15534 0.17673 0.52354 0.0
C165 C 0.17003 0.16276 0.5014 0.0
C166 C 0.19295 0.18555 0.47943 0.0
C167 C 0.20209 0.22298 0.47922 0.0
C168 C 0.18677 0.23683 0.50089 0.0
C169 C 0.16377 0.21397 0.52298 0.0
C170 C 1.00268 0.03075 0.51939 0.0
C171 C 0.97076 0.10272 0.52902 0.0
O172 O 0.91469 0.99586 0.56834 0.0
O173 O 0.93219 0.02682 0.61765 0.0
O174 O 0.02384 0.11507 0.59413 0.0
O175 O 1.01838 0.08872 0.63771 0.0
O176 O 0.08624 0.08063 0.60379 0.0
O177 O 0.02424 0.02576 0.60776 0.0
O178 O 0.11206 0.16251 0.56337 0.0
O179 O 0.11707 0.11666 0.54244 0.0
O180 O 1.01357 0.03555 0.55081 0.0
O181 O 0.02022 0.06305 0.50768 0.0
O182 O 0.9517 0.07328 0.54506 0.0
O183 O 1.01262 0.12114 0.53144 0.0
H184 H 0.90677 0.9841 0.66115 0.0
H185 H 0.85901 0.92649 0.68205 0.0
H186 H 0.79469 0.86916 0.58146 0.0
H187 H 0.84198 0.92768 0.5604 0.0
H188 H 0.16445 0.13435 0.50136 0.0
H189 H 0.20376 0.17387 0.46266 0.0
H190 H 0.1936 0.26567 0.50142 0.0
H191 H 0.15335 0.22573 0.54002 0.0
Pr192 Pr 0.49874 0.06173 0.07436 0.0
Pr193 Pr 0.58605 0.07517 0.05637 0.0
C194 C 0.43525 0.04589 0.10477 0.0
C195 C 0.42596 0.07215 0.12026 0.0
C196 C 0.44035 0.10801 0.10977 0.0
C197 C 0.43699 0.13527 0.12677 0.0
C198 C 0.41924 0.12733 0.15474 0.0
C199 C 0.40344 0.09096 0.16467 0.0
C200 C 0.40704 0.06358 0.14761 0.0
C201 C 0.53471 0.1247 0.03957 0.0
C202 C 0.59659 0.12367 0.12371 0.0
C203 C 0.64619 0.08103 0.02575 0.0
C204 C 0.64479 0.05558 0.99931 0.0
C205 C 0.66742 0.03712 1.00723 0.0
C206 C 0.66046 0.00768 0.98489 0.0
C207 C 0.63104 0.99627 0.95384 0.0
C208 C 0.61059 0.01654 0.94506 0.0
C209 C 0.61722 0.04578 0.9676 0.0
C210 C 0.5534 0.02471 0.10142 0.0
C211 C 0.48799 0.01502 1.00488 0.0
O212 O 0.47114 0.04854 0.11995 0.0
O213 O 0.42966 0.04341 0.07234 0.0
O214 O 0.54869 0.10388 0.04879 0.0
O215 O 0.49971 0.11374 0.04952 0.0
O216 O 0.61603 0.12558 0.09947 0.0
O217 O 0.55496 0.09894 0.12077 0.0
O218 O 0.62533 0.09839 0.01753 0.0
O219 O 0.64138 0.06766 0.05403 0.0
O220 O 0.53049 0.02631 0.07539 0.0
O221 O 0.59429 0.048 0.1037 0.0
O222 O 0.46769 0.01684 0.02709 0.0
O223 O 0.53059 0.03459 1.01015 0.0
H224 H 0.45528 0.11541 0.08889 0.0
H225 H 0.44883 0.16284 0.11828 0.0
H226 H 0.38976 0.0842 0.18626 0.0
H227 H 0.39623 0.03621 0.1563 0.0
H228 H 0.68885 0.04409 0.03149 0.0
H229 H 0.6765 0.99257 0.99277 0.0
H230 H 0.58856 0.00911 0.92109 0.0
H231 H 0.59945 0.05961 0.96061 0.0
Pr232 Pr 0.55194 0.62201 0.6019 0.0
Pr233 Pr 0.51149 0.53281 0.56998 0.0
C234 C 0.56855 0.69161 0.62215 0.0
C235 C 0.54696 0.71049 0.63202 0.0
C236 C 0.56182 0.73106 0.66395 0.0
C237 C 0.5422 0.74954 0.67365 0.0
C238 C 0.50762 0.74818 0.65143 0.0
C239 C 0.49294 0.72776 0.61941 0.0
C240 C 0.5123 0.70901 0.60982 0.0
C241 C 0.57667 0.57804 0.63848 0.0
C242 C 0.45449 0.55168 0.6116 0.0
C243 C 0.50511 0.46523 0.56236 0.0
C244 C 0.51852 0.44524 0.54224 0.0
C245 C 0.49183 0.40578 0.53261 0.0
C246 C 0.50639 0.38576 0.51722 0.0
C247 C 0.5482 0.40478 0.5114 0.0
C248 C 0.57417 0.44464 0.5199 0.0
C249 C 0.55944 0.46463 0.53503 0.0
C250 C 0.49346 0.57298 0.52249 0.0
C251 C 0.6031 0.60491 0.55391 0.0
O252 O 0.55815 0.67767 0.5908 0.0
O253 O 0.57475 0.67028 0.64266 0.0
O254 O 0.53982 0.56745 0.62146 0.0
O255 O 0.60385 0.61408 0.63799 0.0
O256 O 0.45974 0.52499 0.59904 0.0
O257 O 0.48177 0.58872 0.61173 0.0
O258 O 0.53639 0.49457 0.58366 0.0
O259 O 0.47409 0.47023 0.54771 0.0
O260 O 0.5127 0.58466 0.55258 0.0
O261 O 0.48054 0.5372 0.51595 0.0
O262 O 0.59629 0.63062 0.56592 0.0
O263 O 0.57999 0.56831 0.55736 0.0
H264 H 0.58875 0.73294 0.68139 0.0
H265 H 0.55448 0.76535 0.69837 0.0
H266 H 0.46609 0.72588 0.60188 0.0
H267 H 0.50006 0.6934 0.58502 0.0
H268 H 0.46013 0.39024 0.53783 0.0
H269 H 0.48511 0.35524 0.51042 0.0
H270 H 0.60664 0.46033 0.51619 0.0
H271 H 0.58073 0.49513 0.54215 0.0
Pr272 Pr 0.03587 0.62483 0.05441 0.0
Pr273 Pr 0.03078 0.56185 0.09652 0.0
C274 C 1.01665 0.66815 0.01581 0.0
C275 C 0.97676 0.66546 0.9979 0.0
C276 C 0.97356 0.67426 0.96535 0.0
C277 C 0.93548 0.67043 0.94732 0.0
C278 C 0.89989 0.65788 0.9616 0.0
C279 C 0.90311 0.64905 0.99426 0.0
C280 C 0.94113 0.65255 0.0122 0.0
C281 C 0.11397 0.64433 0.09686 0.0
C282 C 0.99863 0.61484 0.12413 0.0
C283 C 0.04755 0.51603 0.13309 0.0
C284 C 0.08557 0.51318 0.14329 0.0
C285 C 0.08429 0.48582 0.16326 0.0
C286 C 0.12132 0.48453 0.1745 0.0
C287 C 0.16015 0.51089 0.16618 0.0
C288 C 0.16113 0.538 0.14585 0.0
C289 C 0.12401 0.53898 0.13431 0.0
C290 C 0.95278 0.54352 0.0549 0.0
C291 C 0.06511 0.56964 0.02631 0.0
O292 O 0.02429 0.64329 1.00428 0.0
O293 O 0.02583 0.67409 0.04829 0.0
O294 O 0.07762 0.6262 0.10358 0.0
O295 O 0.11175 0.65721 0.0686 0.0
O296 O 1.01274 0.59209 0.13273 0.0
O297 O 0.99922 0.62697 0.09469 0.0
O298 O 0.05166 0.54715 0.14597 0.0
O299 O 0.02866 0.5065 0.10142 0.0
O300 O 0.98884 0.56077 0.04767 0.0
O301 O 0.95519 0.53074 0.08316 0.0
O302 O 0.04701 0.58934 0.01716 0.0
O303 O 0.06943 0.56162 0.05715 0.0
H304 H 1.00053 0.68396 0.95378 0.0
H305 H 0.93407 0.67781 0.92233 0.0
H306 H 0.87604 0.63898 1.00574 0.0
H307 H 0.94252 0.64489 0.03709 0.0
H308 H 0.05485 0.4658 0.17044 0.0
H309 H 0.11987 0.46343 0.19023 0.0
H310 H 0.19049 0.55818 0.13868 0.0
H311 H 0.12536 0.5601 0.11866 0.0
C312 C 0.3581 0.35848 0.36602 0.0
C313 C 0.34537 0.33607 0.33543 0.0
C314 C 0.33439 0.3444 0.39046 0.0
C315 C 0.29724 0.30714 0.38397 0.0
C316 C 0.28309 0.28527 0.35245 0.0
C317 C 0.3073 0.30004 0.32857 0.0
C318 C 0.3503 0.36861 0.42372 0.0
C319 C 0.24356 0.24547 0.34449 0.0
C320 C 0.2652 0.24759 0.45345 0.0
C321 C 0.22841 0.24746 0.45686 0.0
C322 C 0.28883 0.26816 0.43069 0.0
C323 C 0.27546 0.2893 0.41091 0.0
C324 C 0.23942 0.29064 0.41518 0.0
C325 C 0.21624 0.26965 0.43816 0.0
C326 C 0.32719 0.26609 0.42696 0.0
C327 C 0.22439 0.31303 0.39461 0.0
H328 H 0.38755 0.38634 0.37138 0.0
H329 H 0.29694 0.28299 0.30464 0.0
H330 H 0.32341 0.36872 0.43139 0.0
H331 H 0.36317 0.35641 0.44286 0.0
H332 H 0.37621 0.39847 0.42335 0.0
H333 H 0.23502 0.23347 0.31801 0.0
H334 H 0.24935 0.22643 0.36023 0.0
H335 H 0.21557 0.24535 0.35016 0.0
H336 H 0.27526 0.23113 0.46838 0.0
H337 H 0.18775 0.26955 0.44066 0.0
H338 H 0.35603 0.29516 0.42962 0.0
H339 H 0.32063 0.25177 0.40175 0.0
H340 H 0.33481 0.25017 0.44556 0.0
H341 H 0.25178 0.34247 0.39534 0.0
H342 H 0.19871 0.31439 0.4033 0.0
H343 H 0.21161 0.29958 0.36828 0.0
C344 C 0.36109 0.94476 0.81509 0.0
C345 C 0.35227 0.90877 0.80371 0.0
C346 C 0.3796 0.96018 0.8488 0.0
C347 C 0.38898 0.93883 0.87157 0.0
C348 C 0.37776 0.90158 0.86043 0.0
C349 C 0.35965 0.88706 0.82663 0.0
C350 C 0.39159 1.00019 0.85967 0.0
C351 C 0.38681 0.87773 0.88387 0.0
C352 C 0.48306 0.99373 0.94636 0.0
C353 C 0.46226 0.99256 0.97164 0.0
C354 C 0.45954 0.97634 0.91379 0.0
C355 C 0.41397 0.95668 0.90628 0.0
C356 C 0.39263 0.95427 0.93182 0.0
C357 C 0.41701 0.97237 0.96417 0.0
C358 C 0.48363 0.97936 0.88735 0.0
C359 C 0.34407 0.93308 0.92483 0.0
H360 H 0.35566 0.96164 0.79734 0.0
H361 H 0.3524 0.85901 0.81787 0.0
H362 H 0.37901 1.00098 0.88169 0.0
H363 H 0.42722 0.01912 0.86707 0.0
H364 H 0.37902 0.01179 0.83964 0.0
H365 H 0.37139 0.84783 0.8722 0.0
H366 H 0.4221 0.89018 0.89168 0.0
H367 H 0.37517 0.87765 0.90663 0.0
H368 H 0.51793 0.00908 0.95174 0.0
H369 H 0.40055 0.9712 0.98345 0.0
H370 H 0.47174 0.98862 0.86498 0.0
H371 H 0.47805 0.95101 0.87968 0.0
H372 H 0.51886 0.99979 0.89621 0.0
H373 H 0.33195 0.94663 0.90665 0.0
H374 H 0.33232 0.93261 0.94765 0.0
H375 H 0.32996 0.90331 0.91352 0.0
C376 C 0.6159 0.41609 0.70287 0.0
C377 C 0.60704 0.40862 0.73433 0.0
C378 C 0.61574 0.44649 0.68844 0.0
C379 C 0.60743 0.47054 0.70615 0.0
C380 C 0.60035 0.46425 0.73844 0.0
C381 C 0.59962 0.43311 0.75192 0.0
C382 C 0.62264 0.45186 0.65367 0.0
C383 C 0.59169 0.48944 0.75824 0.0
C384 C 0.62761 0.56291 0.67389 0.0
C385 C 0.58589 0.55181 0.6567 0.0
C386 C 0.63534 0.53689 0.69051 0.0
C387 C 0.6006 0.49903 0.68934 0.0
C388 C 0.55849 0.48799 0.67213 0.0
C389 C 0.55162 0.51465 0.65656 0.0
C390 C 0.68048 0.5498 0.7093 0.0
C391 C 0.52057 0.44784 0.66982 0.0
H392 H 0.62263 0.39797 0.68931 0.0
H393 H 0.59201 0.42744 0.77596 0.0
H394 H 0.59259 0.44633 0.63658 0.0
H395 H 0.6482 0.48169 0.65298 0.0
H396 H 0.63175 0.43248 0.64417 0.0
H397 H 0.59257 0.48395 0.78447 0.0
H398 H 0.61572 0.51991 0.75798 0.0
H399 H 0.55942 0.48434 0.74678 0.0
H400 H 0.65405 0.59175 0.67431 0.0
H401 H 0.51914 0.50605 0.64373 0.0
H402 H 0.69149 0.53249 0.69882 0.0
H403 H 0.68084 0.54532 0.73568 0.0
H404 H 0.70376 0.58034 0.70837 0.0
H405 H 0.52689 0.42725 0.65864 0.0
H406 H 0.49011 0.44369 0.65462 0.0
H407 H 0.51596 0.44088 0.69503 0.0
C408 C 0.86923 0.6724 0.21944 0.0
C409 C 0.87932 0.67503 0.25434 0.0
C410 C 0.89151 0.66474 0.19975 0.0
C411 C 0.92677 0.66163 0.21508 0.0
C412 C 0.93975 0.66762 0.25036 0.0
C413 C 0.91555 0.67367 0.26956 0.0
C414 C 0.87564 0.6579 0.16239 0.0
C415 C 0.97833 0.66635 0.26787 0.0
C416 C 0.95121 0.60018 0.16421 0.0
C417 C 0.98148 0.62703 0.1482 0.0
C418 C 0.93365 0.61109 0.18633 0.0
C419 C 0.94808 0.65012 0.1939 0.0
C420 C 0.98017 0.67751 0.17883 0.0
C421 C 0.99567 0.66557 0.1556 0.0
C422 C 0.89843 0.58063 0.20064 0.0
C423 C 0.99803 0.71949 0.18714 0.0
H424 H 0.84245 0.67483 0.20719 0.0
H425 H 0.92405 0.6758 0.29638 0.0
H426 H 0.90171 0.67815 0.1508 0.0
H427 H 0.86621 0.62874 0.15272 0.0
H428 H 0.84748 0.66099 0.1543 0.0
H429 H 0.98864 0.67784 0.29466 0.0
H430 H 0.97029 0.63648 0.26573 0.0
H431 H 1.00582 0.68287 0.25612 0.0
H432 H 0.94014 0.57037 0.15852 0.0
H433 H 0.01957 0.68649 0.14364 0.0
H434 H 0.86872 0.58149 0.19304 0.0
H435 H 0.90809 0.58596 0.22816 0.0
H436 H 0.89074 0.55163 0.19233 0.0
H437 H 0.97296 0.72592 0.17704 0.0
H438 H 0.02653 0.73735 0.17676 0.0
H439 H 1.00742 0.72768 0.21449 0.0
C440 C 0.40364 0.30027 0.22102 0.0
C441 C 0.41264 0.30684 0.25577 0.0
C442 C 0.40548 0.27123 0.20491 0.0
C443 C 0.41688 0.24848 0.22407 0.0
C444 C 0.42715 0.25569 0.25918 0.0
C445 C 0.42478 0.28474 0.27461 0.0
C446 C 0.39425 0.26431 0.1674 0.0
C447 C 0.43996 0.23234 0.28043 0.0
C448 C 0.38137 0.15051 0.18307 0.0
C449 C 0.41884 0.15766 0.17387 0.0
C450 C 0.38032 0.17982 0.19961 0.0
C451 C 0.41776 0.21693 0.20734 0.0
C452 C 0.45593 0.22405 0.19876 0.0
C453 C 0.45597 0.19433 0.18206 0.0
C454 C 0.33897 0.17126 0.20827 0.0
C455 C 0.49662 0.26311 0.20693 0.0
H456 H 0.39373 0.31702 0.20641 0.0
H457 H 0.43211 0.29003 0.3015 0.0
H458 H 0.42134 0.26619 0.15832 0.0
H459 H 0.36581 0.23513 0.15848 0.0
H460 H 0.3869 0.28503 0.15618 0.0
H461 H 0.4483 0.24242 0.30739 0.0
H462 H 0.41314 0.20207 0.27551 0.0
H463 H 0.46809 0.23343 0.27396 0.0
H464 H 0.3526 0.12223 0.17656 0.0
H465 H 0.48518 0.19977 0.17539 0.0
H466 H 0.32777 0.18896 0.19559 0.0
H467 H 0.34464 0.17872 0.23539 0.0
H468 H 0.31292 0.1408 0.20097 0.0
H469 H 0.49076 0.28392 0.19424 0.0
H470 H 0.5239 0.26363 0.1993 0.0
H471 H 0.50616 0.27281 0.23403 0.0
C472 C 0.1391 0.9038 0.66234 0.0
C473 C 0.18368 0.91846 0.67069 0.0
C474 C 0.12285 0.9277 0.65705 0.0
C475 C 0.15168 0.96765 0.66178 0.0
C476 C 0.19655 0.98292 0.67312 0.0
C477 C 0.2121 0.95818 0.67697 0.0
C478 C 0.07484 0.90993 0.64436 0.0
C479 C 0.22829 0.02538 0.67982 0.0
C480 C 0.11174 0.02129 0.60777 0.0
C481 C 0.09217 0.03093 0.62853 0.0
C482 C 0.13236 1.00173 0.61867 0.0
C483 C 0.13476 0.9927 0.65159 0.0
C484 C 0.11699 1.00433 0.67325 0.0
C485 C 0.09496 0.02258 0.66119 0.0
C486 C 0.14946 0.98889 0.5943 0.0
C487 C 0.12029 0.99667 0.70885 0.0
H488 H 0.11659 0.87328 0.65871 0.0
H489 H 0.24655 0.97007 0.68355 0.0
H490 H 0.06234 0.92105 0.66088 0.0
H491 H 0.06819 0.91764 0.61933 0.0
H492 H 0.05669 0.87838 0.64261 0.0
H493 H 0.26056 0.03267 0.69413 0.0
H494 H 0.23187 0.03702 0.65592 0.0
H495 H 0.21647 0.03966 0.69379 0.0
H496 H 0.10913 0.02754 0.58239 0.0
H497 H 0.07982 0.03019 0.6772 0.0
H498 H 0.13183 0.95731 0.59028 0.0
H499 H 0.184 0.99949 0.60445 0.0
H500 H 0.14598 0.999 0.56988 0.0
H501 H 0.09849 0.96587 0.70968 0.0
H502 H 0.11133 0.01281 0.72377 0.0
H503 H 0.15358 1.00434 0.72059 0.0
C504 C 0.76738 0.42884 0.90254 0.0
C505 C 0.72808 0.42561 0.90204 0.0
C506 C 0.80474 0.45573 0.92581 0.0
C507 C 0.80248 0.48017 0.94864 0.0
C508 C 0.76368 0.47962 0.94576 0.0
C509 C 0.72644 0.45166 0.92275 0.0
C510 C 0.84543 0.45526 0.92809 0.0
C511 C 0.76058 0.50635 0.96869 0.0
C512 C 0.87458 0.49744 0.03278 0.0
C513 C 0.91232 0.53093 0.03049 0.0
C514 C 0.83753 0.48172 1.00691 0.0
C515 C 0.83813 0.50067 0.97862 0.0
C516 C 0.8751 0.53626 0.97757 0.0
C517 C 0.91212 0.55079 1.00345 0.0
C518 C 0.7989 0.44338 1.00879 0.0
C519 C 0.87605 0.55812 0.94859 0.0
H520 H 0.76811 0.40828 0.8865 0.0
H521 H 0.69571 0.44881 0.92219 0.0
H522 H 0.87339 0.48449 0.92925 0.0
H523 H 0.85215 0.4442 0.95124 0.0
H524 H 0.84285 0.43704 0.90665 0.0
H525 H 0.73218 0.5085 0.95841 0.0
H526 H 0.75728 0.49566 0.993 0.0
H527 H 0.79014 0.53523 0.97326 0.0
H528 H 0.87479 0.48227 0.05384 0.0
H529 H 0.94126 0.57716 1.00214 0.0
H530 H 0.79371 0.42191 0.98904 0.0
H531 H 0.76941 0.4447 1.00448 0.0
H532 H 0.80294 0.43341 0.03319 0.0
H533 H 0.86843 0.54035 0.92498 0.0
H534 H 0.90787 0.58481 0.95114 0.0
H535 H 0.85101 0.56543 0.94665 0.0
C536 C 0.744 0.66016 0.41713 0.0
C537 C 0.78826 0.68413 0.4314 0.0
C538 C 0.71389 0.6443 0.43705 0.0
C539 C 0.72835 0.6524 0.47214 0.0
C540 C 0.77316 0.67494 0.48666 0.0
C541 C 0.8025 0.69059 0.46616 0.0
C542 C 0.66645 0.62059 0.4205 0.0
C543 C 0.79005 0.68405 0.5239 0.0
C544 C 0.65278 0.65269 0.52232 0.0
C545 C 0.6364 0.61732 0.53414 0.0
C546 C 0.68241 0.66421 0.50206 0.0
C547 C 0.6966 0.64005 0.49357 0.0
C548 C 0.6805 0.60442 0.5056 0.0
C549 C 0.65045 0.5934 0.52558 0.0
C550 C 0.69815 0.70218 0.48941 0.0
C551 C 0.69488 0.57788 0.49726 0.0
H552 H 0.73263 0.65542 0.39033 0.0
H553 H 0.83667 0.70887 0.47736 0.0
H554 H 0.65066 0.59348 0.43106 0.0
H555 H 0.6507 0.63619 0.4253 0.0
H556 H 0.66063 0.61393 0.3932 0.0
H557 H 0.82575 0.69894 0.53129 0.0
H558 H 0.78019 0.70252 0.534 0.0
H559 H 0.77601 0.65758 0.53557 0.0
H560 H 0.64179 0.67123 0.52834 0.0
H561 H 0.63799 0.56601 0.53449 0.0
H562 H 0.68989 0.69793 0.46184 0.0
H563 H 0.73376 0.72043 0.49772 0.0
H564 H 0.68389 0.71757 0.49817 0.0
H565 H 0.68714 0.57041 0.46992 0.0
H566 H 0.67934 0.55117 0.50851 0.0
H567 H 0.73036 0.5923 0.5062 0.0
C568 C 0.35385 0.49012 0.25833 0.0
C569 C 0.38105 0.49397 0.23753 0.0
C570 C 0.32021 0.49651 0.24794 0.0
C571 C 0.31349 0.50675 0.21591 0.0
C572 C 0.34208 0.5124 0.19541 0.0
C573 C 0.37565 0.50603 0.20652 0.0
C574 C 0.29083 0.49082 0.27073 0.0
C575 C 0.33588 0.52329 0.16109 0.0
C576 C 0.19852 0.47594 0.17469 0.0
C577 C 0.19958 0.51009 0.1787 0.0
C578 C 0.23558 0.47466 0.18638 0.0
C579 C 0.27446 0.50829 0.20284 0.0
C580 C 0.27562 0.54286 0.20716 0.0
C581 C 0.23813 0.54338 0.19479 0.0
C582 C 0.23311 0.43729 0.18116 0.0
C583 C 0.31631 0.57921 0.22483 0.0
H584 H 0.35839 0.48132 0.28252 0.0
H585 H 0.39646 0.50878 0.19031 0.0
H586 H 0.2877 0.51594 0.27325 0.0
H587 H 0.25813 0.46578 0.25989 0.0
H588 H 0.30266 0.48615 0.29586 0.0
H589 H 0.36285 0.52957 0.14936 0.0
H590 H 0.30544 0.49965 0.14495 0.0
H591 H 0.33302 0.54865 0.16217 0.0
H592 H 0.16872 0.45029 0.16203 0.0
H593 H 0.2387 0.56966 0.19826 0.0
H594 H 0.24115 0.42889 0.20551 0.0
H595 H 0.25711 0.44045 0.16718 0.0
H596 H 0.20064 0.41395 0.16732 0.0
H597 H 0.33052 0.57432 0.24892 0.0
H598 H 0.3105 0.60245 0.22955 0.0
H599 H 0.3405 0.58882 0.20951 0.0
C600 C 0.6495 0.28972 0.93182 0.0
C601 C 0.6203 0.29099 0.90553 0.0
C602 C 0.63553 0.26152 0.95268 0.0
C603 C 0.59143 0.23254 0.94626 0.0
C604 C 0.56206 0.23203 0.91854 0.0
C605 C 0.5767 0.26159 0.89879 0.0
C606 C 0.66781 0.26364 0.98235 0.0
C607 C 0.515 0.20077 0.91024 0.0
C608 C 0.56613 0.14604 0.99045 0.0
C609 C 0.55061 0.15268 0.01643 0.0
C610 C 0.57812 0.17109 0.96663 0.0
C611 C 0.57599 0.20418 0.96977 0.0
C612 C 0.56097 0.21119 0.99643 0.0
C613 C 0.54757 0.18486 0.01905 0.0
C614 C 0.59242 0.16188 0.93791 0.0
C615 C 0.55972 0.24681 1.00139 0.0
H616 H 0.68355 0.31126 0.93657 0.0
H617 H 0.55375 0.26211 0.87864 0.0
H618 H 0.65819 0.2663 1.00555 0.0
H619 H 0.66835 0.23712 0.98123 0.0
H620 H 0.70097 0.28818 0.98391 0.0
H621 H 0.49752 0.20188 0.88575 0.0
H622 H 0.51153 0.17247 0.91 0.0
H623 H 0.49938 0.20334 0.92957 0.0
H624 H 0.56748 0.12057 0.98812 0.0
H625 H 0.53534 0.18973 0.03917 0.0
H626 H 0.62621 0.18443 0.9386 0.0
H627 H 0.57222 0.1611 0.91406 0.0
H628 H 0.59023 0.13408 0.93823 0.0
H629 H 0.59242 0.27236 1.00382 0.0
H630 H 0.54816 0.24839 0.02384 0.0
H631 H 0.53823 0.24791 0.97944 0.0
C632 C 0.86846 0.82651 0.40737 0.0
C633 C 0.89321 0.81022 0.40607 0.0
C634 C 0.88709 0.86367 0.4234 0.0
C635 C 0.93172 0.88523 0.43864 0.0
C636 C 0.95735 0.86964 0.43578 0.0
C637 C 0.93772 0.83218 0.41962 0.0
C638 C 0.85843 0.8789 0.42578 0.0
C639 C 1.00507 0.89172 0.45139 0.0
C640 C 0.98299 0.99175 0.46459 0.0
C641 C 0.98368 0.9935 0.49862 0.0
C642 C 0.96692 0.95691 0.44489 0.0
C643 C 0.95067 0.92282 0.45943 0.0
C644 C 0.95102 0.92443 0.49377 0.0
C645 C 0.96764 0.95971 0.51293 0.0
C646 C 0.96735 0.95657 0.4085 0.0
C647 C 0.9336 0.8888 0.51027 0.0
H648 H 0.83389 0.80926 0.39733 0.0
H649 H 0.95671 0.81935 0.41921 0.0
H650 H 0.85667 0.882 0.45201 0.0
H651 H 0.87206 0.90754 0.41776 0.0
H652 H 0.82517 0.85989 0.41038 0.0
H653 H 0.02119 0.87743 0.44401 0.0
H654 H 0.02065 0.92081 0.44425 0.0
H655 H 1.01032 0.8948 0.47885 0.0
H656 H 0.99548 0.01775 0.45334 0.0
H657 H 0.96807 0.96083 0.5392 0.0
H658 H 0.93394 0.93872 0.39313 0.0
H659 H 0.98554 0.9437 0.4027 0.0
H660 H 0.98212 0.9856 0.40114 0.0
H661 H 0.89914 0.86857 0.4981 0.0
H662 H 0.93645 0.89487 0.53719 0.0
H663 H 0.9512 0.87441 0.50731 0.0
C664 C 0.42155 0.87353 0.71741 0.0
C665 C 0.37635 0.85349 0.70841 0.0
C666 C 0.44427 0.85792 0.70784 0.0
C667 C 0.42124 0.82121 0.68907 0.0
C668 C 0.37563 0.80109 0.67951 0.0
C669 C 0.35377 0.81755 0.68916 0.0
C670 C 0.4929 0.88048 0.71819 0.0
C671 C 0.34985 0.76174 0.6598 0.0
C672 C 0.47754 0.78998 0.64026 0.0
C673 C 0.48671 0.76785 0.66155 0.0
C674 C 0.45693 0.80804 0.64914 0.0
C675 C 0.44471 0.8035 0.67989 0.0
C676 C 0.45418 0.78142 0.70161 0.0
C677 C 0.47527 0.76403 0.69225 0.0
C678 C 0.44809 0.83186 0.62555 0.0
C679 C 0.4414 0.77562 0.7345 0.0
H680 H 0.43916 0.90144 0.73209 0.0
H681 H 0.31883 0.80171 0.68254 0.0
H682 H 0.50404 0.86506 0.73478 0.0
H683 H 0.50659 0.88358 0.69606 0.0
H684 H 0.50603 0.90929 0.73143 0.0
H685 H 0.31464 0.75015 0.65386 0.0
H686 H 0.36002 0.76235 0.63621 0.0
H687 H 0.35612 0.742 0.67406 0.0
H688 H 0.48684 0.79342 0.6167 0.0
H689 H 0.48196 0.74669 0.70866 0.0
H690 H 0.46285 0.86117 0.63833 0.0
H691 H 0.41286 0.81966 0.61758 0.0
H692 H 0.46087 0.83354 0.60309 0.0
H693 H 0.45617 0.80353 0.74996 0.0
H694 H 0.45141 0.75788 0.74864 0.0
H695 H 0.40591 0.76162 0.7303 0.0
C696 C 0.66939 0.76827 0.74368 0.0
C697 C 0.66112 0.73124 0.74436 0.0
C698 C 0.68969 0.79035 0.72007 0.0
C699 C 0.70163 0.77485 0.69643 0.0
C700 C 0.68963 0.73626 0.69505 0.0
C701 C 0.66982 0.71495 0.71929 0.0
C702 C 0.70171 0.83134 0.72238 0.0
C703 C 0.70045 0.71829 0.66952 0.0
C704 C 0.74764 0.83884 0.63176 0.0
C705 C 0.79198 0.85893 0.64668 0.0
C706 C 0.71769 0.80971 0.64663 0.0
C707 C 0.73246 0.8008 0.67722 0.0
C708 C 0.77728 0.81961 0.69145 0.0
C709 C 0.80643 0.84815 0.67586 0.0
C710 C 0.67022 0.78947 0.63031 0.0
C711 C 0.79445 0.81102 0.72411 0.0
H712 H 0.66283 0.781 0.76308 0.0
H713 H 0.66275 0.68606 0.71949 0.0
H714 H 0.73716 0.85035 0.73159 0.0
H715 H 0.69276 0.83829 0.69754 0.0
H716 H 0.68584 0.83766 0.7395 0.0
H717 H 0.68303 0.68682 0.66839 0.0
H718 H 0.69243 0.72542 0.64453 0.0
H719 H 0.73558 0.72971 0.67589 0.0
H720 H 0.73612 0.84697 0.60923 0.0
H721 H 0.84066 0.86284 0.6871 0.0
H722 H 0.65299 0.79484 0.6467 0.0
H723 H 0.65623 0.75829 0.62651 0.0
H724 H 0.66405 0.79871 0.60592 0.0
H725 H 0.78315 0.81872 0.74418 0.0
H726 H 0.83024 0.82693 0.73102 0.0
H727 H 0.78201 0.78012 0.72285 0.0
C728 C 0.71065 0.1636 0.31086 0.0
C729 C 0.72367 0.19805 0.32944 0.0
C730 C 0.69344 0.15646 0.27645 0.0
C731 C 0.68987 0.18477 0.26001 0.0
C732 C 0.70427 0.22014 0.27849 0.0
C733 C 0.7205 0.22618 0.31312 0.0
C734 C 0.67754 0.11799 0.25792 0.0
C735 C 0.7017 0.25125 0.2618 0.0
C736 C 0.66716 0.16501 0.16575 0.0
C737 C 0.62202 0.14596 0.1571 0.0
C738 C 0.6902 0.18012 0.19901 0.0
C739 C 0.6675 0.17566 0.22412 0.0
C740 C 0.62226 0.15856 0.21515 0.0
C741 C 0.60023 0.14429 0.18184 0.0
C742 C 0.73857 0.19899 0.20752 0.0
C743 C 0.59659 0.15284 0.24101 0.0
H744 H 0.71265 0.14165 0.3235 0.0
H745 H 0.73081 0.25292 0.32746 0.0
H746 H 0.64228 0.1031 0.24732 0.0
H747 H 0.69316 0.1215 0.23688 0.0
H748 H 0.68401 0.0996 0.27415 0.0
H749 H 0.71823 0.27834 0.27898 0.0
H750 H 0.71637 0.25653 0.24003 0.0
H751 H 0.66746 0.24222 0.25247 0.0
H752 H 0.68437 0.16662 0.14689 0.0
H753 H 0.5654 0.13014 0.17551 0.0
H754 H 0.74741 0.1799 0.22034 0.0
H755 H 0.75396 0.22583 0.22477 0.0
H756 H 0.75193 0.20541 0.18503 0.0
H757 H 0.59834 0.13219 0.25696 0.0
H758 H 0.56212 0.14188 0.22972 0.0
H759 H 0.6103 0.17997 0.25738 0.0
C760 C 0.47636 0.68702 0.37155 0.0
C761 C 0.51765 0.71052 0.36575 0.0
C762 C 0.47045 0.66739 0.39932 0.0
C763 C 0.50649 0.67044 0.42139 0.0
C764 C 0.54835 0.6951 0.41644 0.0
C765 C 0.55344 0.71527 0.38907 0.0
C766 C 0.42538 0.64202 0.40418 0.0
C767 C 0.58762 0.69864 0.43902 0.0
C768 C 0.50044 0.63327 0.50501 0.0
C769 C 0.49358 0.59724 0.4968 0.0
C770 C 0.50321 0.65709 0.48051 0.0
C771 C 0.5002 0.64481 0.44738 0.0
C772 C 0.49288 0.60823 0.43907 0.0
C773 C 0.48908 0.58474 0.4638 0.0
C774 C 0.50985 0.69546 0.49013 0.0
C775 C 0.49052 0.59433 0.40428 0.0
H776 H 0.44834 0.68273 0.35376 0.0
H777 H 0.58563 0.7342 0.38559 0.0
H778 H 0.41495 0.61174 0.39835 0.0
H779 H 0.4246 0.64668 0.43045 0.0
H780 H 0.40181 0.64706 0.38794 0.0
H781 H 0.61812 0.72073 0.43299 0.0
H782 H 0.58895 0.70576 0.46534 0.0
H783 H 0.58558 0.67094 0.43674 0.0
H784 H 0.50356 0.64276 0.53051 0.0
H785 H 0.4841 0.55696 0.45746 0.0
H786 H 0.50833 0.69957 0.51632 0.0
H787 H 0.48501 0.69871 0.4736 0.0
H788 H 0.54171 0.7184 0.48691 0.0
H789 H 0.46441 0.59448 0.38629 0.0
H790 H 0.48454 0.56507 0.40194 0.0
H791 H 0.52121 0.6138 0.39711 0.0
C792 C 0.12036 0.46965 0.88874 0.0
C793 C 0.16431 0.49213 0.88894 0.0
C794 C 0.10171 0.48197 0.90883 0.0
C795 C 0.12752 0.51773 0.92955 0.0
C796 C 0.17137 0.54129 0.92835 0.0
C797 C 0.18914 0.52817 0.90831 0.0
C798 C 0.0549 0.45583 0.90917 0.0
C799 C 0.20022 0.57973 0.9495 0.0
C800 C 0.07662 0.56433 0.96857 0.0
C801 C 0.08057 0.55596 1.0014 0.0
C802 C 0.09094 0.5516 0.94487 0.0
C803 C 0.10975 0.52977 0.95391 0.0
C804 C 0.11344 0.52091 0.9869 0.0
C805 C 0.09895 0.53407 1.01011 0.0
C806 C 0.08643 0.56197 0.91019 0.0
C807 C 0.13318 0.49776 0.99784 0.0
H808 H 0.10113 0.44153 0.87433 0.0
H809 H 0.22319 0.5456 0.90878 0.0
H810 H 0.05247 0.44565 0.93374 0.0
H811 H 0.03784 0.4714 0.90555 0.0
H812 H 0.03821 0.4307 0.88962 0.0
H813 H 0.23253 0.59587 0.94382 0.0
H814 H 0.1852 0.59699 0.94573 0.0
H815 H 0.20446 0.57594 0.97614 0.0
H816 H 0.06244 0.58108 0.96131 0.0
H817 H 0.10215 0.52719 0.03523 0.0
H818 H 0.06814 0.53585 0.89168 0.0
H819 H 0.11877 0.57972 0.90494 0.0
H820 H 0.06975 0.5779 0.90661 0.0
H821 H 0.11576 0.47013 0.98137 0.0
H822 H 0.13239 0.49208 0.0239 0.0
H823 H 0.16719 0.51306 0.9957 0.0
C824 C 0.5611 0.78643 0.89788 0.0
C825 C 0.56139 0.77677 0.86535 0.0
C826 C 0.57105 0.82298 0.90892 0.0
C827 C 0.58125 0.85057 0.88682 0.0
C828 C 0.5804 0.84069 0.85364 0.0
C829 C 0.57079 0.80395 0.84335 0.0
C830 C 0.57188 0.83239 0.94458 0.0
C831 C 0.59035 0.86909 0.8292 0.0
C832 C 0.57601 0.93523 0.91607 0.0
C833 C 0.61922 0.96139 0.93225 0.0
C834 C 0.56346 0.89984 0.89941 0.0
C835 C 0.59473 0.89012 0.89927 0.0
C836 C 0.63865 0.91713 0.91403 0.0
C837 C 0.65037 0.95248 0.93012 0.0
C838 C 0.51638 0.8721 0.88356 0.0
C839 C 0.67302 0.90792 0.91444 0.0
H840 H 0.5544 0.7657 0.91509 0.0
H841 H 0.57065 0.79646 0.81808 0.0
H842 H 0.6049 0.85543 0.95764 0.0
H843 H 0.55012 0.843 0.94553 0.0
H844 H 0.56192 0.8074 0.95829 0.0
H845 H 0.58532 0.85616 0.80373 0.0
H846 H 0.56974 0.88123 0.82828 0.0
H847 H 0.62435 0.89307 0.83743 0.0
H848 H 0.55152 0.94154 0.91775 0.0
H849 H 0.68393 0.97279 0.94187 0.0
H850 H 0.50298 0.8484 0.89855 0.0
H851 H 0.51241 0.8595 0.85828 0.0
H852 H 0.4972 0.88577 0.88178 0.0
H853 H 0.66768 0.88485 0.92985 0.0
H854 H 0.706 0.93297 0.92467 0.0
H855 H 0.67113 0.8974 0.88897 0.0
C856 C 0.81381 0.15502 0.41246 0.0
C857 C 0.81507 0.18589 0.42855 0.0
C858 C 0.84087 0.14226 0.42677 0.0
C859 C 0.8696 0.16041 0.45819 0.0
C860 C 0.87182 0.19213 0.47421 0.0
C861 C 0.84478 0.2046 0.45914 0.0
C862 C 0.83769 0.10854 0.40872 0.0
C863 C 0.90183 0.2122 0.5078 0.0
C864 C 0.90221 0.10234 0.51257 0.0
C865 C 0.94451 0.11638 0.50949 0.0
C866 C 0.87757 0.11632 0.49592 0.0
C867 C 0.89533 0.1448 0.47527 0.0
C868 C 0.93767 0.15858 0.47146 0.0
C869 C 0.96186 0.1444 0.48878 0.0
C870 C 0.83272 0.10107 0.50095 0.0
C871 C 0.95754 0.18853 0.44931 0.0
H872 H 0.79063 0.1399 0.3891 0.0
H873 H 0.84662 0.22886 0.47155 0.0
H874 H 0.87016 0.11537 0.40688 0.0
H875 H 0.82457 0.08405 0.42292 0.0
H876 H 0.81655 0.09967 0.38329 0.0
H877 H 0.90105 0.23739 0.51634 0.0
H878 H 0.89271 0.19218 0.52646 0.0
H879 H 0.9354 0.22164 0.50696 0.0
H880 H 0.88848 0.08086 0.52861 0.0
H881 H 0.99444 0.15538 0.48613 0.0
H882 H 0.80886 0.08882 0.47671 0.0
H883 H 0.83067 0.12463 0.51176 0.0
H884 H 0.8235 0.07877 0.51766 0.0
H885 H 0.93663 0.17874 0.42379 0.0
H886 H 0.99019 0.19528 0.44805 0.0
H887 H 0.96001 0.21507 0.45862 0.0
C888 C 0.34068 0.69655 0.2135 0.0
C889 C 0.35455 0.72918 0.2353 0.0
C890 C 0.29902 0.67668 0.1927 0.0
C891 C 0.27089 0.68984 0.19401 0.0
C892 C 0.28349 0.72055 0.21828 0.0
C893 C 0.32526 0.73988 0.23865 0.0
C894 C 0.28682 0.64399 0.1673 0.0
C895 C 0.25437 0.73528 0.22071 0.0
C896 C 0.19421 0.68186 0.115 0.0
C897 C 0.15431 0.65408 0.12046 0.0
C898 C 0.23257 0.69297 0.13841 0.0
C899 C 0.2309 0.67519 0.16753 0.0
C900 C 0.19079 0.64574 0.17228 0.0
C901 C 0.15288 0.63605 0.14896 0.0
C902 C 0.27477 0.72467 0.13251 0.0
C903 C 0.18782 0.62513 0.20231 0.0
H904 H 0.36346 0.68845 0.21068 0.0
H905 H 0.33611 0.76511 0.2556 0.0
H906 H 0.25228 0.6215 0.16341 0.0
H907 H 0.29223 0.65452 0.14317 0.0
H908 H 0.30661 0.63128 0.17472 0.0
H909 H 0.26717 0.75667 0.24306 0.0
H910 H 0.25096 0.74878 0.19834 0.0
H911 H 0.22171 0.71153 0.22149 0.0
H912 H 0.19538 0.69574 0.09292 0.0
H913 H 0.12204 0.61444 0.15315 0.0
H914 H 0.2977 0.71501 0.1336 0.0
H915 H 0.28955 0.74922 0.15238 0.0
H916 H 0.27067 0.7346 0.10809 0.0
H917 H 0.211 0.61556 0.20567 0.0
H918 H 0.15491 0.59995 0.20027 0.0
H919 H 0.19653 0.64481 0.22494 0.0
C920 C 0.30339 0.49323 0.74116 0.0
C921 C 0.25952 0.47513 0.72546 0.0
C922 C 0.33533 0.50922 0.72273 0.0
C923 C 0.32318 0.50737 0.68777 0.0
C924 C 0.27911 0.49141 0.67222 0.0
C925 C 0.24789 0.47531 0.69117 0.0
C926 C 0.38184 0.52582 0.7404 0.0
C927 C 0.26459 0.48932 0.6352 0.0
C928 C 0.4105 0.5668 0.64119 0.0
C929 C 0.41877 0.53994 0.62898 0.0
C930 C 0.37929 0.55665 0.66001 0.0
C931 C 0.35586 0.51878 0.66714 0.0
C932 C 0.36364 0.49146 0.65451 0.0
C933 C 0.39472 0.50228 0.63555 0.0
C934 C 0.37174 0.58659 0.67259 0.0
C935 C 0.33961 0.45079 0.66155 0.0
H936 H 0.31256 0.49271 0.76754 0.0
H937 H 0.21401 0.4613 0.6789 0.0
H938 H 0.39288 0.50717 0.73282 0.0
H939 H 0.40262 0.55425 0.73328 0.0
H940 H 0.38655 0.52863 0.76785 0.0
H941 H 0.23012 0.48029 0.62753 0.0
H942 H 0.28439 0.51738 0.62707 0.0
H943 H 0.26911 0.4686 0.62198 0.0
H944 H 0.42876 0.59599 0.63638 0.0
H945 H 0.40085 0.48126 0.62655 0.0
H946 H 0.37951 0.59068 0.70015 0.0
H947 H 0.33724 0.57707 0.664 0.0
H948 H 0.39158 0.61445 0.66408 0.0
H949 H 0.34556 0.45015 0.68877 0.0
H950 H 0.34936 0.43298 0.65001 0.0
H951 H 0.30441 0.43782 0.65204 0.0
C952 C 0.6834 0.64435 0.85862 0.0
C953 C 0.69768 0.67674 0.84232 0.0
C954 C 0.71301 0.63728 0.87869 0.0
C955 C 0.75782 0.66346 0.88279 0.0
C956 C 0.77229 0.69624 0.86647 0.0
C957 C 0.7421 0.70241 0.84645 0.0
C958 C 0.6964 0.60189 0.89549 0.0
C959 C 0.81976 0.72508 0.8704 0.0
C960 C 0.84126 0.67173 0.95703 0.0
C961 C 0.86012 0.65516 0.94259 0.0
C962 C 0.80652 0.67308 0.93823 0.0
C963 C 0.79005 0.65717 0.90426 0.0
C964 C 0.80751 0.63859 0.89008 0.0
C965 C 0.84249 0.63798 0.90937 0.0
C966 C 0.78902 0.69334 0.95426 0.0
C967 C 0.79053 0.62084 0.85411 0.0
H968 H 0.6491 0.62442 0.85544 0.0
H969 H 0.75335 0.72789 0.83447 0.0
H970 H 0.70891 0.58448 0.88785 0.0
H971 H 0.70825 0.60986 0.92283 0.0
H972 H 0.66062 0.58411 0.88942 0.0
H973 H 0.82565 0.74907 0.85602 0.0
H974 H 0.83536 0.73683 0.897 0.0
H975 H 0.83568 0.71114 0.862 0.0
H976 H 0.85494 0.68519 0.98266 0.0
H977 H 0.85659 0.6246 0.89831 0.0
H978 H 0.75338 0.67529 0.94943 0.0
H979 H 0.79708 0.71985 0.94324 0.0
H980 H 0.80248 0.70098 0.98154 0.0
H981 H 0.7549 0.60199 0.84827 0.0
H982 H 0.80438 0.604 0.84786 0.0
H983 H 0.7986 0.64354 0.83789 0.0
C984 C 0.50988 0.86107 0.21003 0.0
C985 C 0.48147 0.85375 0.2306 0.0
C986 C 0.52104 0.89091 0.19075 0.0
C987 C 0.50379 0.91427 0.19246 0.0
C988 C 0.47674 0.90814 0.21443 0.0
C989 C 0.4656 0.87771 0.23306 0.0
C990 C 0.54983 0.89641 0.16748 0.0
C991 C 0.45852 0.93296 0.21749 0.0
C992 C 0.56294 0.00715 0.15791 0.0
C993 C 0.53717 0.9982 0.12569 0.0
C994 C 0.55121 0.98082 0.1806 0.0
C995 C 0.5133 0.94434 0.17048 0.0
C996 C 0.48619 0.93575 0.13836 0.0
C997 C 0.49826 0.96307 0.11638 0.0
C998 C 0.58035 0.99153 0.21489 0.0
C999 C 0.44566 0.89703 0.1266 0.0
H1000 H 0.52162 0.8422 0.20772 0.0
H1001 H 0.44362 0.87203 0.24902 0.0
H1002 H 0.53206 0.89217 0.14143 0.0
H1003 H 0.5783 0.92593 0.17271 0.0
H1004 H 0.56126 0.87632 0.16962 0.0
H1005 H 0.44097 0.92643 0.23768 0.0
H1006 H 0.48474 0.96346 0.22239 0.0
H1007 H 0.43595 0.92879 0.19375 0.0
H1008 H 0.59283 0.03462 0.16522 0.0
H1009 H 0.47841 0.95624 0.09143 0.0
H1010 H 0.5964 0.97508 0.2172 0.0
H1011 H 0.5613 0.98425 0.2341 0.0
H1012 H 0.60562 0.02237 0.22017 0.0
H1013 H 0.45424 0.87513 0.12519 0.0
H1014 H 0.42682 0.89566 0.10175 0.0
H1015 H 0.42486 0.88959 0.14455 0.0
C1016 C 0.17413 0.32943 0.72932 0.0
C1017 C 0.14914 0.3439 0.73603 0.0
C1018 C 0.15498 0.29218 0.71335 0.0
C1019 C 0.10949 0.26857 0.70354 0.0
C1020 C 0.08399 0.2825 0.71141 0.0
C1021 C 0.10414 0.32001 0.72773 0.0
C1022 C 0.18356 0.27862 0.70587 0.0
C1023 C 0.03543 0.25834 0.70138 0.0
C1024 C 0.06502 0.19099 0.62991 0.0
C1025 C 0.05459 0.15847 0.64556 0.0
C1026 C 0.08203 0.22671 0.64842 0.0
C1027 C 0.08907 0.23023 0.68355 0.0
C1028 C 0.07864 0.19746 0.69947 0.0
C1029 C 0.06151 0.16203 0.68031 0.0
C1030 C 0.09274 0.26079 0.63034 0.0
C1031 C 0.08593 0.19991 0.7368 0.0
H1032 H 0.20898 0.34781 0.73588 0.0
H1033 H 0.08476 0.33118 0.73268 0.0
H1034 H 0.17444 0.25113 0.71532 0.0
H1035 H 0.17915 0.27365 0.67859 0.0
H1036 H 0.21822 0.2995 0.71707 0.0
H1037 H 0.0202 0.27216 0.71131 0.0
H1038 H 0.02464 0.25294 0.67387 0.0
H1039 H 0.02372 0.23026 0.7103 0.0
H1040 H 0.05969 0.1885 0.60307 0.0
H1041 H 0.05349 0.13705 0.6926 0.0
H1042 H 0.12778 0.28235 0.63821 0.0
H1043 H 0.07553 0.27435 0.63686 0.0
H1044 H 0.08395 0.25311 0.60293 0.0
H1045 H 0.12073 0.21939 0.74845 0.0
H1046 H 0.075 0.17169 0.74536 0.0
H1047 H 0.06853 0.21199 0.74582 0.0
C1048 C 0.68145 0.30948 0.48901 0.0
C1049 C 0.66133 0.27946 0.46284 0.0
C1050 C 0.66465 0.33243 0.49313 0.0
C1051 C 0.62632 0.32473 0.47082 0.0
C1052 C 0.60729 0.29576 0.4432 0.0
C1053 C 0.62512 0.27344 0.43951 0.0
C1054 C 0.68635 0.36325 0.52268 0.0
C1055 C 0.56639 0.28649 0.41892 0.0
C1056 C 0.55631 0.34814 0.50957 0.0
C1057 C 0.56573 0.38301 0.49863 0.0
C1058 C 0.57473 0.32843 0.49978 0.0
C1059 C 0.60378 0.344 0.47872 0.0
C1060 C 0.6128 0.37874 0.46697 0.0
C1061 C 0.5936 0.39774 0.47695 0.0
C1062 C 0.56406 0.29141 0.51287 0.0
C1063 C 0.64362 0.39633 0.44456 0.0
H1064 H 0.7092 0.31376 0.50723 0.0
H1065 H 0.60921 0.24979 0.4196 0.0
H1066 H 0.6904 0.39024 0.51492 0.0
H1067 H 0.66581 0.35474 0.54091 0.0
H1068 H 0.71845 0.36862 0.53529 0.0
H1069 H 0.55892 0.26688 0.39657 0.0
H1070 H 0.53906 0.27276 0.43124 0.0
H1071 H 0.56882 0.31285 0.41091 0.0
H1072 H 0.53554 0.33671 0.52676 0.0
H1073 H 0.6007 0.42435 0.46792 0.0
H1074 H 0.59348 0.29479 0.52917 0.0
H1075 H 0.55266 0.26867 0.49201 0.0
H1076 H 0.53889 0.28194 0.52732 0.0
H1077 H 0.67638 0.4041 0.45801 0.0
H1078 H 0.64535 0.42228 0.436 0.0
H1079 H 0.63375 0.37547 0.4225 0.0
loop_
_geom_bond_atom_site_label_1
_geom_bond_atom_site_label_2
_geom_bond_distance
_geom_bond_site_symmetry_2
_ccdc_geom_bond_type
H0 C1 0.949 . S
C1 H0 0.949 . S
C1 C2 1.395 . S
C1 C3 1.391 . S
C2 C1 1.395 . S
C2 C5 1.390 . S
C3 C1 1.391 . S
C3 C7 1.387 . S
C3 C8 1.491 . S
H4 C5 0.950 . S
C5 C2 1.390 . S
C5 H4 0.950 . S
C5 C6 1.378 . S
C6 C5 1.378 . S
C6 C7 1.409 . S
C7 C3 1.387 . S
C7 C6 1.409 . S
C7 H9 0.951 . S
C8 C3 1.491 . S
C8 C10 1.382 . S
C8 C12 1.404 . S
H9 C7 0.951 . S
C10 C8 1.382 . S
C10 C11 1.390 . S
C10 H15 0.949 . S
C11 C10 1.390 . S
C11 C16 1.399 . S
C12 C8 1.404 . S
C12 H13 0.950 . S
C12 C14 1.375 . S
H13 C12 0.950 . S
C14 C12 1.375 . S
C14 C16 1.382 . S
C14 H18 0.950 . S
H15 C10 0.949 . S
C16 C11 1.399 . S
C16 C14 1.382 . S
C16 H17 0.952 . S
H17 C16 0.952 . S
H18 C14 0.950 . S
H19 C20 0.949 . S
C20 H19 0.949 . S
C20 C21 1.395 . S
C20 C22 1.391 . S
C21 C20 1.395 . S
C21 C24 1.390 . S
C22 C20 1.391 . S
C22 C26 1.387 . S
C22 C27 1.491 . S
H23 C24 0.950 . S
C24 C21 1.390 . S
C24 H23 0.950 . S
C24 C25 1.378 . S
C25 C24 1.378 . S
C25 C26 1.409 . S
C26 C22 1.387 . S
C26 C25 1.409 . S
C26 H28 0.951 . S
C27 C22 1.491 . S
C27 C29 1.382 . S
C27 C31 1.404 . S
H28 C26 0.951 . S
C29 C27 1.382 . S
C29 C30 1.390 . S
C29 H34 0.949 . S
C30 C29 1.390 . S
C30 C35 1.399 . S
C31 C27 1.404 . S
C31 H32 0.950 . S
C31 C33 1.375 . S
H32 C31 0.950 . S
C33 C31 1.375 . S
C33 C35 1.382 . S
C33 H37 0.950 . S
H34 C29 0.949 . S
C35 C30 1.399 . S
C35 C33 1.382 . S
C35 H36 0.952 . S
H36 C35 0.952 . S
H37 C33 0.950 . S
H38 C39 0.949 . S
C39 H38 0.949 . S
C39 C40 1.395 . S
C39 C41 1.391 . S
C40 C39 1.395 . S
C40 C43 1.390 . S
C41 C39 1.391 . S
C41 C45 1.387 . S
C41 C46 1.491 . S
H42 C43 0.950 . S
C43 C40 1.390 . S
C43 H42 0.950 . S
C43 C44 1.378 . S
C44 C43 1.378 . S
C44 C45 1.409 . S
C45 C41 1.387 . S
C45 C44 1.409 . S
C45 H47 0.951 . S
C46 C41 1.491 . S
C46 C48 1.382 . S
C46 C50 1.404 . S
H47 C45 0.951 . S
C48 C46 1.382 . S
C48 C49 1.390 . S
C48 H53 0.949 . S
C49 C48 1.390 . S
C49 C54 1.399 . S
C50 C46 1.404 . S
C50 H51 0.950 . S
C50 C52 1.375 . S
H51 C50 0.950 . S
C52 C50 1.375 . S
C52 C54 1.382 . S
C52 H56 0.950 . S
H53 C48 0.949 . S
C54 C49 1.399 . S
C54 C52 1.382 . S
C54 H55 0.952 . S
H55 C54 0.952 . S
H56 C52 0.950 . S
H57 C58 0.949 . S
C58 H57 0.949 . S
C58 C59 1.395 . S
C58 C60 1.391 . S
C59 C58 1.395 . S
C59 C62 1.390 . S
C60 C58 1.391 . S
C60 C64 1.387 . S
C60 C65 1.491 . S
H61 C62 0.950 . S
C62 C59 1.390 . S
C62 H61 0.950 . S
C62 C63 1.378 . S
C63 C62 1.378 . S
C63 C64 1.409 . S
C64 C60 1.387 . S
C64 C63 1.409 . S
C64 H66 0.951 . S
C65 C60 1.491 . S
C65 C67 1.382 . S
C65 C69 1.404 . S
H66 C64 0.951 . S
C67 C65 1.382 . S
C67 C68 1.390 . S
C67 H72 0.949 . S
C68 C67 1.390 . S
C68 C73 1.399 . S
C69 C65 1.404 . S
C69 H70 0.950 . S
C69 C71 1.375 . S
H70 C69 0.950 . S
C71 C69 1.375 . S
C71 C73 1.382 . S
C71 H75 0.950 . S
H72 C67 0.949 . S
C73 C68 1.399 . S
C73 C71 1.382 . S
C73 H74 0.952 . S
H74 C73 0.952 . S
H75 C71 0.950 . S
H76 C77 0.949 . S
C77 H76 0.949 . S
C77 C78 1.395 . S
C77 C79 1.391 . S
C78 C77 1.395 . S
C78 C81 1.390 . S
C79 C77 1.391 . S
C79 C83 1.387 . S
C79 C84 1.491 . S
H80 C81 0.950 . S
C81 C78 1.390 . S
C81 H80 0.950 . S
C81 C82 1.378 . S
C82 C81 1.378 . S
C82 C83 1.409 . S
C83 C79 1.387 . S
C83 C82 1.409 . S
C83 H85 0.951 . S
C84 C79 1.491 . S
C84 C86 1.382 . S
C84 C88 1.404 . S
H85 C83 0.951 . S
C86 C84 1.382 . S
C86 C87 1.390 . S
C86 H91 0.949 . S
C87 C86 1.390 . S
C87 C92 1.399 . S
C88 C84 1.404 . S
C88 H89 0.950 . S
C88 C90 1.375 . S
H89 C88 0.950 . S
C90 C88 1.375 . S
C90 C92 1.382 . S
C90 H94 0.950 . S
H91 C86 0.949 . S
C92 C87 1.399 . S
C92 C90 1.382 . S
C92 H93 0.952 . S
H93 C92 0.952 . S
H94 C90 0.950 . S
H95 C96 0.949 . S
C96 H95 0.949 . S
C96 C97 1.395 . S
C96 C98 1.391 . S
C97 C96 1.395 . S
C97 C100 1.390 . S
C98 C96 1.391 . S
C98 C102 1.387 . S
C98 C103 1.491 . S
H99 C100 0.950 . S
C100 C97 1.390 . S
C100 H99 0.950 . S
C100 C101 1.378 . S
C101 C100 1.378 . S
C101 C102 1.409 . S
C102 C98 1.387 . S
C102 C101 1.409 . S
C102 H104 0.951 . S
C103 C98 1.491 . S
C103 C105 1.382 . S
C103 C107 1.404 . S
H104 C102 0.951 . S
C105 C103 1.382 . S
C105 C106 1.390 . S
C105 H110 0.949 . S
C106 C105 1.390 . S
C106 C111 1.399 . S
C107 C103 1.404 . S
C107 H108 0.950 . S
C107 C109 1.375 . S
H108 C107 0.950 . S
C109 C107 1.375 . S
C109 C111 1.382 . S
C109 H113 0.950 . S
H110 C105 0.949 . S
C111 C106 1.399 . S
C111 C109 1.382 . S
C111 H112 0.952 . S
H112 C111 0.952 . S
H113 C109 0.950 . S
H114 C115 0.949 . S
C115 H114 0.949 . S
C115 C116 1.395 . S
C115 C117 1.391 . S
C116 C115 1.395 . S
C116 C119 1.390 . S
C117 C115 1.391 . S
C117 C121 1.387 . S
C117 C122 1.491 . S
H118 C119 0.950 . S
C119 C116 1.390 . S
C119 H118 0.950 . S
C119 C120 1.378 . S
C120 C119 1.378 . S
C120 C121 1.409 . S
C121 C117 1.387 . S
C121 C120 1.409 . S
C121 H123 0.951 . S
C122 C117 1.491 . S
C122 C124 1.382 . S
C122 C126 1.404 . S
H123 C121 0.951 . S
C124 C122 1.382 . S
C124 C125 1.390 . S
C124 H129 0.949 . S
C125 C124 1.390 . S
C125 C130 1.399 . S
C126 C122 1.404 . S
C126 H127 0.950 . S
C126 C128 1.375 . S
H127 C126 0.950 . S
C128 C126 1.375 . S
C128 C130 1.382 . S
C128 H132 0.950 . S
H129 C124 0.949 . S
C130 C125 1.399 . S
C130 C128 1.382 . S
C130 H131 0.952 . S
H131 C130 0.952 . S
H132 C128 0.950 . S
H133 C134 0.949 . S
C134 H133 0.949 . S
C134 C135 1.395 . S
C134 C136 1.391 . S
C135 C134 1.395 . S
C135 C138 1.390 . S
C136 C134 1.391 . S
C136 C140 1.387 . S
C136 C141 1.491 . S
H137 C138 0.950 . S
C138 C135 1.390 . S
C138 H137 0.950 . S
C138 C139 1.378 . S
C139 C138 1.378 . S
C139 C140 1.409 . S
C140 C136 1.387 . S
C140 C139 1.409 . S
C140 H142 0.951 . S
C141 C136 1.491 . S
C141 C143 1.382 . S
C141 C145 1.404 . S
H142 C140 0.951 . S
C143 C141 1.382 . S
C143 C144 1.390 . S
C143 H148 0.949 . S
C144 C143 1.390 . S
C144 C149 1.399 . S
C145 C141 1.404 . S
C145 H146 0.950 . S
C145 C147 1.375 . S
H146 C145 0.950 . S
C147 C145 1.375 . S
C147 C149 1.382 . S
C147 H151 0.950 . S
H148 C143 0.949 . S
C149 C144 1.399 . S
C149 C147 1.382 . S
C149 H150 0.952 . S
H150 C149 0.952 . S
H151 C147 0.950 . S
Pr152 C154 2.880 1_545 S
Pr152 O172 2.562 1_545 S
Pr152 O173 2.490 1_545 S
Pr152 O174 2.695 1_655 S
Pr152 O175 2.512 1_655 S
Pr152 O177 2.437 1_655 S
Pr152 O180 2.436 1_545 S
Pr152 O182 2.438 . S
Pr153 C163 2.880 . S
Pr153 O174 2.436 . S
Pr153 O176 2.438 . S
Pr153 O178 2.562 . S
Pr153 O179 2.490 . S
Pr153 O180 2.695 1_445 S
Pr153 O181 2.512 1_545 S
Pr153 O183 2.437 . S
C154 Pr152 2.880 1_565 S
C154 C155 1.491 . S
C154 O172 1.254 . S
C154 O173 1.225 . S
C155 C154 1.491 . S
C155 C156 1.392 . S
C155 C160 1.356 . S
C156 C155 1.392 . S
C156 C157 1.368 . S
C156 H184 0.929 . S
C157 C156 1.368 . S
C157 C158 1.386 . S
C157 H185 0.929 . S
C158 C157 1.386 . S
C158 C159 1.373 . S
C159 C158 1.373 . S
C159 C160 1.409 . S
C159 H186 0.931 . S
C160 C155 1.356 . S
C160 C159 1.409 . S
C160 H187 0.930 . S
C161 O174 1.270 . S
C161 O175 1.248 . S
C162 O176 1.267 . S
C162 O177 1.278 . S
C163 Pr153 2.880 . S
C163 C164 1.491 . S
C163 O178 1.254 . S
C163 O179 1.225 . S
C164 C163 1.491 . S
C164 C165 1.392 . S
C164 C169 1.356 . S
C165 C164 1.392 . S
C165 C166 1.368 . S
C165 H188 0.929 . S
C166 C165 1.368 . S
C166 C167 1.386 . S
C166 H189 0.929 . S
C167 C166 1.386 . S
C167 C168 1.373 . S
C168 C167 1.373 . S
C168 C169 1.409 . S
C168 H190 0.931 . S
C169 C164 1.356 . S
C169 C168 1.409 . S
C169 H191 0.930 . S
C170 O180 1.270 . S
C170 O181 1.248 1_655 S
C171 O182 1.267 . S
C171 O183 1.278 1_655 S
O172 Pr152 2.562 1_565 S
O172 C154 1.254 . S
O173 Pr152 2.490 1_565 S
O173 C154 1.225 . S
O174 Pr152 2.695 1_455 S
O174 Pr153 2.436 . S
O174 C161 1.270 . S
O175 Pr152 2.512 1_455 S
O175 C161 1.248 . S
O176 Pr153 2.438 . S
O176 C162 1.267 . S
O177 Pr152 2.437 1_455 S
O177 C162 1.278 . S
O178 Pr153 2.562 . S
O178 C163 1.254 . S
O179 Pr153 2.490 . S
O179 C163 1.225 . S
O180 Pr152 2.436 1_565 S
O180 Pr153 2.695 1_665 S
O180 C170 1.270 . S
O181 Pr153 2.512 1_565 S
O181 C170 1.248 1_455 S
O182 Pr152 2.438 . S
O182 C171 1.267 . S
O183 Pr153 2.437 . S
O183 C171 1.278 1_455 S
H184 C156 0.929 . S
H185 C157 0.929 . S
H186 C159 0.931 . S
H187 C160 0.930 . S
H188 C165 0.929 . S
H189 C166 0.929 . S
H190 C168 0.931 . S
H191 C169 0.930 . S
Pr192 C194 2.880 . S
Pr192 O212 2.562 . S
Pr192 O213 2.490 . S
Pr192 O214 2.695 . S
Pr192 O215 2.512 . S
Pr192 O217 2.437 . S
Pr192 O220 2.436 . S
Pr192 O222 2.438 1_545 S
Pr193 C203 2.880 1_545 S
Pr193 O214 2.436 . S
Pr193 O216 2.438 . S
Pr193 O218 2.562 1_545 S
Pr193 O219 2.490 1_545 S
Pr193 O220 2.695 . S
Pr193 O221 2.512 1_545 S
Pr193 O223 2.437 1_545 S
C194 Pr192 2.880 . S
C194 C195 1.491 . S
C194 O212 1.254 . S
C194 O213 1.225 . S
C195 C194 1.491 . S
C195 C196 1.392 . S
C195 C200 1.356 . S
C196 C195 1.392 . S
C196 C197 1.368 . S
C196 H224 0.929 . S
C197 C196 1.368 . S
C197 C198 1.386 . S
C197 H225 0.929 . S
C198 C197 1.386 . S
C198 C199 1.373 . S
C199 C198 1.373 . S
C199 C200 1.409 . S
C199 H226 0.931 . S
C200 C195 1.356 . S
C200 C199 1.409 . S
C200 H227 0.930 . S
C201 O214 1.270 . S
C201 O215 1.248 . S
C202 O216 1.267 . S
C202 O217 1.278 . S
C203 Pr193 2.880 1_565 S
C203 C204 1.491 . S
C203 O218 1.254 . S
C203 O219 1.225 . S
C204 C203 1.491 . S
C204 C205 1.392 . S
C204 C209 1.356 1_554 S
C205 C204 1.392 . S
C205 C206 1.368 . S
C205 H228 0.929 . S
C206 C205 1.368 . S
C206 C207 1.386 1_554 S
C206 H229 0.929 . S
C207 C206 1.386 1_556 S
C207 C208 1.373 . S
C208 C207 1.373 . S
C208 C209 1.409 . S
C208 H230 0.931 . S
C209 C204 1.356 1_556 S
C209 C208 1.409 . S
C209 H231 0.930 . S
C210 O220 1.270 1_565 S
C210 O221 1.248 . S
C211 O222 1.267 . S
C211 O223 1.278 . S
O212 Pr192 2.562 . S
O212 C194 1.254 . S
O213 Pr192 2.490 . S
O213 C194 1.225 . S
O214 Pr192 2.695 . S
O214 Pr193 2.436 . S
O214 C201 1.270 . S
O215 Pr192 2.512 . S
O215 C201 1.248 . S
O216 Pr193 2.438 . S
O216 C202 1.267 . S
O217 Pr192 2.437 . S
O217 C202 1.278 . S
O218 Pr193 2.562 1_565 S
O218 C203 1.254 . S
O219 Pr193 2.490 1_565 S
O219 C203 1.225 . S
O220 Pr192 2.436 . S
O220 Pr193 2.695 . S
O220 C210 1.270 1_545 S
O221 Pr193 2.512 1_565 S
O221 C210 1.248 . S
O222 Pr192 2.438 1_565 S
O222 C211 1.267 . S
O223 Pr193 2.437 1_565 S
O223 C211 1.278 . S
H224 C196 0.929 . S
H225 C197 0.929 . S
H226 C199 0.931 . S
H227 C200 0.930 . S
H228 C205 0.929 . S
H229 C206 0.929 . S
H230 C208 0.931 . S
H231 C209 0.930 . S
Pr232 C234 2.880 . S
Pr232 O252 2.562 . S
Pr232 O253 2.490 . S
Pr232 O254 2.695 . S
Pr232 O255 2.512 . S
Pr232 O257 2.437 . S
Pr232 O260 2.436 . S
Pr232 O262 2.438 . S
Pr233 C243 2.880 . S
Pr233 O254 2.436 . S
Pr233 O256 2.438 . S
Pr233 O258 2.562 . S
Pr233 O259 2.490 . S
Pr233 O260 2.695 . S
Pr233 O261 2.512 . S
Pr233 O263 2.437 . S
C234 Pr232 2.880 . S
C234 C235 1.491 . S
C234 O252 1.254 . S
C234 O253 1.225 . S
C235 C234 1.491 . S
C235 C236 1.392 . S
C235 C240 1.356 . S
C236 C235 1.392 . S
C236 C237 1.368 . S
C236 H264 0.929 . S
C237 C236 1.368 . S
C237 C238 1.386 . S
C237 H265 0.929 . S
C238 C237 1.386 . S
C238 C239 1.373 . S
C239 C238 1.373 . S
C239 C240 1.409 . S
C239 H266 0.931 . S
C240 C235 1.356 . S
C240 C239 1.409 . S
C240 H267 0.930 . S
C241 O254 1.270 . S
C241 O255 1.248 . S
C242 O256 1.267 . S
C242 O257 1.278 . S
C243 Pr233 2.880 . S
C243 C244 1.491 . S
C243 O258 1.254 . S
C243 O259 1.225 . S
C244 C243 1.491 . S
C244 C245 1.392 . S
C244 C249 1.356 . S
C245 C244 1.392 . S
C245 C246 1.368 . S
C245 H268 0.929 . S
C246 C245 1.368 . S
C246 C247 1.386 . S
C246 H269 0.929 . S
C247 C246 1.386 . S
C247 C248 1.373 . S
C248 C247 1.373 . S
C248 C249 1.409 . S
C248 H270 0.931 . S
C249 C244 1.356 . S
C249 C248 1.409 . S
C249 H271 0.930 . S
C250 O260 1.270 . S
C250 O261 1.248 . S
C251 O262 1.267 . S
C251 O263 1.278 . S
O252 Pr232 2.562 . S
O252 C234 1.254 . S
O253 Pr232 2.490 . S
O253 C234 1.225 . S
O254 Pr232 2.695 . S
O254 Pr233 2.436 . S
O254 C241 1.270 . S
O255 Pr232 2.512 . S
O255 C241 1.248 . S
O256 Pr233 2.438 . S
O256 C242 1.267 . S
O257 Pr232 2.437 . S
O257 C242 1.278 . S
O258 Pr233 2.562 . S
O258 C243 1.254 . S
O259 Pr233 2.490 . S
O259 C243 1.225 . S
O260 Pr232 2.436 . S
O260 Pr233 2.695 . S
O260 C250 1.270 . S
O261 Pr233 2.512 . S
O261 C250 1.248 . S
O262 Pr232 2.438 . S
O262 C251 1.267 . S
O263 Pr233 2.437 . S
O263 C251 1.278 . S
H264 C236 0.929 . S
H265 C237 0.929 . S
H266 C239 0.931 . S
H267 C240 0.930 . S
H268 C245 0.929 . S
H269 C246 0.929 . S
H270 C248 0.931 . S
H271 C249 0.930 . S
Pr272 C274 2.880 . S
Pr272 O292 2.562 1_455 S
Pr272 O293 2.490 . S
Pr272 O294 2.695 1_556 S
Pr272 O295 2.512 1_556 S
Pr272 O297 2.437 1_556 S
Pr272 O300 2.436 . S
Pr272 O302 2.438 . S
Pr273 C283 2.880 . S
Pr273 O294 2.436 . S
Pr273 O296 2.438 . S
Pr273 O298 2.562 . S
Pr273 O299 2.490 . S
Pr273 O300 2.695 1_554 S
Pr273 O301 2.512 1_454 S
Pr273 O303 2.437 1_554 S
C274 Pr272 2.880 . S
C274 C275 1.491 1_455 S
C274 O292 1.254 1_455 S
C274 O293 1.225 . S
C275 C274 1.491 1_655 S
C275 C276 1.392 1_655 S
C275 C280 1.356 . S
C276 C275 1.392 1_455 S
C276 C277 1.368 1_455 S
C276 H304 0.929 . S
C277 C276 1.368 1_655 S
C277 C278 1.386 . S
C277 H305 0.929 1_655 S
C278 C277 1.386 . S
C278 C279 1.373 . S
C279 C278 1.373 . S
C279 C280 1.409 . S
C279 H306 0.931 . S
C280 C275 1.356 . S
C280 C279 1.409 . S
C280 H307 0.930 . S
C281 O294 1.270 . S
C281 O295 1.248 . S
C282 O296 1.267 . S
C282 O297 1.278 . S
C283 Pr273 2.880 . S
C283 C284 1.491 . S
C283 O298 1.254 . S
C283 O299 1.225 . S
C284 C283 1.491 . S
C284 C285 1.392 . S
C284 C289 1.356 . S
C285 C284 1.392 . S
C285 C286 1.368 . S
C285 H308 0.929 . S
C286 C285 1.368 . S
C286 C287 1.386 . S
C286 H309 0.929 . S
C287 C286 1.386 . S
C287 C288 1.373 . S
C288 C287 1.373 . S
C288 C289 1.409 . S
C288 H310 0.931 . S
C289 C284 1.356 . S
C289 C288 1.409 . S
C289 H311 0.930 . S
C290 O300 1.270 1_655 S
C290 O301 1.248 . S
C291 O302 1.267 . S
C291 O303 1.278 . S
O292 Pr272 2.562 1_655 S
O292 C274 1.254 1_655 S
O293 Pr272 2.490 . S
O293 C274 1.225 . S
O294 Pr272 2.695 1_554 S
O294 Pr273 2.436 . S
O294 C281 1.270 . S
O295 Pr272 2.512 1_554 S
O295 C281 1.248 . S
O296 Pr273 2.438 . S
O296 C282 1.267 . S
O297 Pr272 2.437 1_554 S
O297 C282 1.278 . S
O298 Pr273 2.562 . S
O298 C283 1.254 . S
O299 Pr273 2.490 . S
O299 C283 1.225 . S
O300 Pr272 2.436 . S
O300 Pr273 2.695 1_556 S
O300 C290 1.270 1_455 S
O301 Pr273 2.512 1_656 S
O301 C290 1.248 . S
O302 Pr272 2.438 . S
O302 C291 1.267 . S
O303 Pr273 2.437 1_556 S
O303 C291 1.278 . S
H304 C276 0.929 . S
H305 C277 0.929 1_455 S
H306 C279 0.931 . S
H307 C280 0.930 . S
H308 C285 0.929 . S
H309 C286 0.929 . S
H310 C288 0.931 . S
H311 C289 0.930 . S
C312 C313 1.391 . S
C312 C314 1.394 . S
C312 H328 0.931 . S
C313 C312 1.391 . S
C313 C317 1.376 . S
C314 C312 1.394 . S
C314 C315 1.369 . S
C314 C318 1.531 . S
C315 C314 1.369 . S
C315 C316 1.410 . S
C315 C323 1.503 . S
C316 C315 1.410 . S
C316 C317 1.392 . S
C316 C319 1.511 . S
C317 C313 1.376 . S
C317 C316 1.392 . S
C317 H329 0.929 . S
C318 C314 1.531 . S
C318 H330 0.960 . S
C318 H331 0.962 . S
C318 H332 0.960 . S
C319 C316 1.511 . S
C319 H333 0.961 . S
C319 H334 0.961 . S
C319 H335 0.961 . S
C320 C321 1.370 . S
C320 C322 1.363 . S
C320 H336 0.931 . S
C321 C320 1.370 . S
C321 C325 1.408 . S
C322 C320 1.363 . S
C322 C323 1.370 . S
C322 C326 1.524 . S
C323 C315 1.503 . S
C323 C322 1.370 . S
C323 C324 1.403 . S
C324 C323 1.403 . S
C324 C325 1.404 . S
C324 C327 1.539 . S
C325 C321 1.408 . S
C325 C324 1.404 . S
C325 H337 0.930 . S
C326 C322 1.524 . S
C326 H338 0.956 . S
C326 H339 0.961 . S
C326 H340 0.961 . S
C327 C324 1.539 . S
C327 H341 0.958 . S
C327 H342 0.961 . S
C327 H343 0.960 . S
H328 C312 0.931 . S
H329 C317 0.929 . S
H330 C318 0.960 . S
H331 C318 0.962 . S
H332 C318 0.960 . S
H333 C319 0.961 . S
H334 C319 0.961 . S
H335 C319 0.961 . S
H336 C320 0.931 . S
H337 C325 0.930 . S
H338 C326 0.956 . S
H339 C326 0.961 . S
H340 C326 0.961 . S
H341 C327 0.958 . S
H342 C327 0.961 . S
H343 C327 0.960 . S
C344 C345 1.391 . S
C344 C346 1.394 . S
C344 H360 0.931 . S
C345 C344 1.391 . S
C345 C349 1.376 . S
C346 C344 1.394 . S
C346 C347 1.369 . S
C346 C350 1.531 . S
C347 C346 1.369 . S
C347 C348 1.410 . S
C347 C355 1.503 . S
C348 C347 1.410 . S
C348 C349 1.392 . S
C348 C351 1.511 . S
C349 C345 1.376 . S
C349 C348 1.392 . S
C349 H361 0.929 . S
C350 C346 1.531 . S
C350 H362 0.960 . S
C350 H363 0.962 . S
C350 H364 0.960 . S
C351 C348 1.511 . S
C351 H365 0.961 . S
C351 H366 0.961 . S
C351 H367 0.961 . S
C352 C353 1.370 . S
C352 C354 1.363 . S
C352 H368 0.931 . S
C353 C352 1.370 . S
C353 C357 1.408 . S
C354 C352 1.363 . S
C354 C355 1.370 . S
C354 C358 1.524 . S
C355 C347 1.503 . S
C355 C354 1.370 . S
C355 C356 1.403 . S
C356 C355 1.403 . S
C356 C357 1.404 . S
C356 C359 1.539 . S
C357 C353 1.408 . S
C357 C356 1.404 . S
C357 H369 0.930 . S
C358 C354 1.524 . S
C358 H370 0.956 . S
C358 H371 0.961 . S
C358 H372 0.961 . S
C359 C356 1.539 . S
C359 H373 0.958 . S
C359 H374 0.961 . S
C359 H375 0.960 . S
H360 C344 0.931 . S
H361 C349 0.929 . S
H362 C350 0.960 . S
H363 C350 0.962 . S
H364 C350 0.960 . S
H365 C351 0.961 . S
H366 C351 0.961 . S
H367 C351 0.961 . S
H368 C352 0.931 . S
H369 C357 0.930 . S
H370 C358 0.956 . S
H371 C358 0.961 . S
H372 C358 0.961 . S
H373 C359 0.958 . S
H374 C359 0.961 . S
H375 C359 0.960 . S
C376 C377 1.391 . S
C376 C378 1.394 . S
C376 H392 0.931 . S
C377 C376 1.391 . S
C377 C381 1.376 . S
C378 C376 1.394 . S
C378 C379 1.369 . S
C378 C382 1.531 . S
C379 C378 1.369 . S
C379 C380 1.410 . S
C379 C387 1.503 . S
C380 C379 1.410 . S
C380 C381 1.392 . S
C380 C383 1.511 . S
C381 C377 1.376 . S
C381 C380 1.392 . S
C381 H393 0.929 . S
C382 C378 1.531 . S
C382 H394 0.960 . S
C382 H395 0.962 . S
C382 H396 0.960 . S
C383 C380 1.511 . S
C383 H397 0.961 . S
C383 H398 0.961 . S
C383 H399 0.961 . S
C384 C385 1.370 . S
C384 C386 1.363 . S
C384 H400 0.931 . S
C385 C384 1.370 . S
C385 C389 1.408 . S
C386 C384 1.363 . S
C386 C387 1.370 . S
C386 C390 1.524 . S
C387 C379 1.503 . S
C387 C386 1.370 . S
C387 C388 1.403 . S
C388 C387 1.403 . S
C388 C389 1.404 . S
C388 C391 1.539 . S
C389 C385 1.408 . S
C389 C388 1.404 . S
C389 H401 0.930 . S
C390 C386 1.524 . S
C390 H402 0.956 . S
C390 H403 0.961 . S
C390 H404 0.961 . S
C391 C388 1.539 . S
C391 H405 0.958 . S
C391 H406 0.961 . S
C391 H407 0.960 . S
H392 C376 0.931 . S
H393 C381 0.929 . S
H394 C382 0.960 . S
H395 C382 0.962 . S
H396 C382 0.960 . S
H397 C383 0.961 . S
H398 C383 0.961 . S
H399 C383 0.961 . S
H400 C384 0.931 . S
H401 C389 0.930 . S
H402 C390 0.956 . S
H403 C390 0.961 . S
H404 C390 0.961 . S
H405 C391 0.958 . S
H406 C391 0.961 . S
H407 C391 0.960 . S
C408 C409 1.391 . S
C408 C410 1.394 . S
C408 H424 0.931 . S
C409 C408 1.391 . S
C409 C413 1.376 . S
C410 C408 1.394 . S
C410 C411 1.369 . S
C410 C414 1.531 . S
C411 C410 1.369 . S
C411 C412 1.410 . S
C411 C419 1.503 . S
C412 C411 1.410 . S
C412 C413 1.392 . S
C412 C415 1.511 . S
C413 C409 1.376 . S
C413 C412 1.392 . S
C413 H425 0.929 . S
C414 C410 1.531 . S
C414 H426 0.960 . S
C414 H427 0.962 . S
C414 H428 0.960 . S
C415 C412 1.511 . S
C415 H429 0.961 . S
C415 H430 0.961 . S
C415 H431 0.961 . S
C416 C417 1.370 . S
C416 C418 1.363 . S
C416 H432 0.931 . S
C417 C416 1.370 . S
C417 C421 1.408 . S
C418 C416 1.363 . S
C418 C419 1.370 . S
C418 C422 1.524 . S
C419 C411 1.503 . S
C419 C418 1.370 . S
C419 C420 1.403 . S
C420 C419 1.403 . S
C420 C421 1.404 . S
C420 C423 1.539 . S
C421 C417 1.408 . S
C421 C420 1.404 . S
C421 H433 0.930 . S
C422 C418 1.524 . S
C422 H434 0.956 . S
C422 H435 0.961 . S
C422 H436 0.961 . S
C423 C420 1.539 . S
C423 H437 0.958 . S
C423 H438 0.961 . S
C423 H439 0.960 . S
H424 C408 0.931 . S
H425 C413 0.929 . S
H426 C414 0.960 . S
H427 C414 0.962 . S
H428 C414 0.960 . S
H429 C415 0.961 . S
H430 C415 0.961 . S
H431 C415 0.961 . S
H432 C416 0.931 . S
H433 C421 0.930 . S
H434 C422 0.956 . S
H435 C422 0.961 . S
H436 C422 0.961 . S
H437 C423 0.958 . S
H438 C423 0.961 . S
H439 C423 0.960 . S
C440 C441 1.391 . S
C440 C442 1.394 . S
C440 H456 0.931 . S
C441 C440 1.391 . S
C441 C445 1.376 . S
C442 C440 1.394 . S
C442 C443 1.369 . S
C442 C446 1.531 . S
C443 C442 1.369 . S
C443 C444 1.410 . S
C443 C451 1.503 . S
C444 C443 1.410 . S
C444 C445 1.392 . S
C444 C447 1.511 . S
C445 C441 1.376 . S
C445 C444 1.392 . S
C445 H457 0.929 . S
C446 C442 1.531 . S
C446 H458 0.960 . S
C446 H459 0.962 . S
C446 H460 0.960 . S
C447 C444 1.511 . S
C447 H461 0.961 . S
C447 H462 0.961 . S
C447 H463 0.961 . S
C448 C449 1.370 . S
C448 C450 1.363 . S
C448 H464 0.931 . S
C449 C448 1.370 . S
C449 C453 1.408 . S
C450 C448 1.363 . S
C450 C451 1.370 . S
C450 C454 1.524 . S
C451 C443 1.503 . S
C451 C450 1.370 . S
C451 C452 1.403 . S
C452 C451 1.403 . S
C452 C453 1.404 . S
C452 C455 1.539 . S
C453 C449 1.408 . S
C453 C452 1.404 . S
C453 H465 0.930 . S
C454 C450 1.524 . S
C454 H466 0.956 . S
C454 H467 0.961 . S
C454 H468 0.961 . S
C455 C452 1.539 . S
C455 H469 0.958 . S
C455 H470 0.961 . S
C455 H471 0.960 . S
H456 C440 0.931 . S
H457 C445 0.929 . S
H458 C446 0.960 . S
H459 C446 0.962 . S
H460 C446 0.960 . S
H461 C447 0.961 . S
H462 C447 0.961 . S
H463 C447 0.961 . S
H464 C448 0.931 . S
H465 C453 0.930 . S
H466 C454 0.956 . S
H467 C454 0.961 . S
H468 C454 0.961 . S
H469 C455 0.958 . S
H470 C455 0.961 . S
H471 C455 0.960 . S
C472 C473 1.391 . S
C472 C474 1.394 . S
C472 H488 0.931 . S
C473 C472 1.391 . S
C473 C477 1.376 . S
C474 C472 1.394 . S
C474 C475 1.369 . S
C474 C478 1.531 1_455 S
C475 C474 1.369 . S
C475 C476 1.410 . S
C475 C483 1.503 . S
C476 C475 1.410 . S
C476 C477 1.392 . S
C476 C479 1.511 . S
C477 C473 1.376 . S
C477 C476 1.392 . S
C477 H489 0.929 . S
C478 C474 1.531 1_655 S
C478 H490 0.960 . S
C478 H491 0.962 . S
C478 H492 0.960 . S
C479 C476 1.511 . S
C479 H493 0.961 . S
C479 H494 0.961 . S
C479 H495 0.961 . S
C480 C481 1.370 . S
C480 C482 1.363 . S
C480 H496 0.931 . S
C481 C480 1.370 . S
C481 C485 1.408 . S
C482 C480 1.363 . S
C482 C483 1.370 . S
C482 C486 1.524 . S
C483 C475 1.503 . S
C483 C482 1.370 . S
C483 C484 1.403 . S
C484 C483 1.403 . S
C484 C485 1.404 . S
C484 C487 1.539 . S
C485 C481 1.408 . S
C485 C484 1.404 . S
C485 H497 0.930 . S
C486 C482 1.524 . S
C486 H498 0.956 . S
C486 H499 0.961 . S
C486 H500 0.961 . S
C487 C484 1.539 . S
C487 H501 0.958 . S
C487 H502 0.961 . S
C487 H503 0.960 . S
H488 C472 0.931 . S
H489 C477 0.929 . S
H490 C478 0.960 . S
H491 C478 0.962 . S
H492 C478 0.960 . S
H493 C479 0.961 . S
H494 C479 0.961 . S
H495 C479 0.961 . S
H496 C480 0.931 . S
H497 C485 0.930 . S
H498 C486 0.956 . S
H499 C486 0.961 . S
H500 C486 0.961 . S
H501 C487 0.958 . S
H502 C487 0.961 . S
H503 C487 0.960 . S
C504 C505 1.391 . S
C504 C506 1.394 . S
C504 H520 0.931 . S
C505 C504 1.391 . S
C505 C509 1.376 . S
C506 C504 1.394 . S
C506 C507 1.369 . S
C506 C510 1.531 . S
C507 C506 1.369 . S
C507 C508 1.410 . S
C507 C515 1.503 . S
C508 C507 1.410 . S
C508 C509 1.392 . S
C508 C511 1.511 . S
C509 C505 1.376 . S
C509 C508 1.392 . S
C509 H521 0.929 . S
C510 C506 1.531 . S
C510 H522 0.960 . S
C510 H523 0.962 . S
C510 H524 0.960 . S
C511 C508 1.511 . S
C511 H525 0.961 . S
C511 H526 0.961 . S
C511 H527 0.961 . S
C512 C513 1.370 . S
C512 C514 1.363 . S
C512 H528 0.931 . S
C513 C512 1.370 . S
C513 C517 1.408 . S
C514 C512 1.363 . S
C514 C515 1.370 . S
C514 C518 1.524 . S
C515 C507 1.503 . S
C515 C514 1.370 . S
C515 C516 1.403 . S
C516 C515 1.403 . S
C516 C517 1.404 . S
C516 C519 1.539 . S
C517 C513 1.408 . S
C517 C516 1.404 . S
C517 H529 0.930 . S
C518 C514 1.524 . S
C518 H530 0.956 . S
C518 H531 0.961 . S
C518 H532 0.961 . S
C519 C516 1.539 . S
C519 H533 0.958 . S
C519 H534 0.961 . S
C519 H535 0.960 . S
H520 C504 0.931 . S
H521 C509 0.929 . S
H522 C510 0.960 . S
H523 C510 0.962 . S
H524 C510 0.960 . S
H525 C511 0.961 . S
H526 C511 0.961 . S
H527 C511 0.961 . S
H528 C512 0.931 . S
H529 C517 0.930 . S
H530 C518 0.956 . S
H531 C518 0.961 . S
H532 C518 0.961 . S
H533 C519 0.958 . S
H534 C519 0.961 . S
H535 C519 0.960 . S
C536 C537 1.391 . S
C536 C538 1.394 . S
C536 H552 0.931 . S
C537 C536 1.391 . S
C537 C541 1.376 . S
C538 C536 1.394 . S
C538 C539 1.369 . S
C538 C542 1.531 . S
C539 C538 1.369 . S
C539 C540 1.410 . S
C539 C547 1.503 . S
C540 C539 1.410 . S
C540 C541 1.392 . S
C540 C543 1.511 . S
C541 C537 1.376 . S
C541 C540 1.392 . S
C541 H553 0.929 . S
C542 C538 1.531 . S
C542 H554 0.960 . S
C542 H555 0.962 . S
C542 H556 0.960 . S
C543 C540 1.511 . S
C543 H557 0.961 . S
C543 H558 0.961 . S
C543 H559 0.961 . S
C544 C545 1.370 . S
C544 C546 1.363 . S
C544 H560 0.931 . S
C545 C544 1.370 . S
C545 C549 1.408 . S
C546 C544 1.363 . S
C546 C547 1.370 . S
C546 C550 1.524 . S
C547 C539 1.503 . S
C547 C546 1.370 . S
C547 C548 1.403 . S
C548 C547 1.403 . S
C548 C549 1.404 . S
C548 C551 1.539 . S
C549 C545 1.408 . S
C549 C548 1.404 . S
C549 H561 0.930 . S
C550 C546 1.524 . S
C550 H562 0.956 . S
C550 H563 0.961 . S
C550 H564 0.961 . S
C551 C548 1.539 . S
C551 H565 0.958 . S
C551 H566 0.961 . S
C551 H567 0.960 . S
H552 C536 0.931 . S
H553 C541 0.929 . S
H554 C542 0.960 . S
H555 C542 0.962 . S
H556 C542 0.960 . S
H557 C543 0.961 . S
H558 C543 0.961 . S
H559 C543 0.961 . S
H560 C544 0.931 . S
H561 C549 0.930 . S
H562 C550 0.956 . S
H563 C550 0.961 . S
H564 C550 0.961 . S
H565 C551 0.958 . S
H566 C551 0.961 . S
H567 C551 0.960 . S
C568 C569 1.391 . S
C568 C570 1.394 . S
C568 H584 0.931 . S
C569 C568 1.391 . S
C569 C573 1.376 . S
C570 C568 1.394 . S
C570 C571 1.369 . S
C570 C574 1.531 . S
C571 C570 1.369 . S
C571 C572 1.410 . S
C571 C579 1.503 . S
C572 C571 1.410 . S
C572 C573 1.392 . S
C572 C575 1.511 . S
C573 C569 1.376 . S
C573 C572 1.392 . S
C573 H585 0.929 . S
C574 C570 1.531 . S
C574 H586 0.960 . S
C574 H587 0.962 . S
C574 H588 0.960 . S
C575 C572 1.511 . S
C575 H589 0.961 . S
C575 H590 0.961 . S
C575 H591 0.961 . S
C576 C577 1.370 . S
C576 C578 1.363 . S
C576 H592 0.931 . S
C577 C576 1.370 . S
C577 C581 1.408 . S
C578 C576 1.363 . S
C578 C579 1.370 . S
C578 C582 1.524 . S
C579 C571 1.503 . S
C579 C578 1.370 . S
C579 C580 1.403 . S
C580 C579 1.403 . S
C580 C581 1.404 . S
C580 C583 1.539 . S
C581 C577 1.408 . S
C581 C580 1.404 . S
C581 H593 0.930 . S
C582 C578 1.524 . S
C582 H594 0.956 . S
C582 H595 0.961 . S
C582 H596 0.961 . S
C583 C580 1.539 . S
C583 H597 0.958 . S
C583 H598 0.961 . S
C583 H599 0.960 . S
H584 C568 0.931 . S
H585 C573 0.929 . S
H586 C574 0.960 . S
H587 C574 0.962 . S
H588 C574 0.960 . S
H589 C575 0.961 . S
H590 C575 0.961 . S
H591 C575 0.961 . S
H592 C576 0.931 . S
H593 C581 0.930 . S
H594 C582 0.956 . S
H595 C582 0.961 . S
H596 C582 0.961 . S
H597 C583 0.958 . S
H598 C583 0.961 . S
H599 C583 0.960 . S
C600 C601 1.391 . S
C600 C602 1.394 . S
C600 H616 0.931 . S
C601 C600 1.391 . S
C601 C605 1.376 . S
C602 C600 1.394 . S
C602 C603 1.369 . S
C602 C606 1.531 . S
C603 C602 1.369 . S
C603 C604 1.410 . S
C603 C611 1.503 . S
C604 C603 1.410 . S
C604 C605 1.392 . S
C604 C607 1.511 . S
C605 C601 1.376 . S
C605 C604 1.392 . S
C605 H617 0.929 . S
C606 C602 1.531 . S
C606 H618 0.960 . S
C606 H619 0.962 . S
C606 H620 0.960 . S
C607 C604 1.511 . S
C607 H621 0.961 . S
C607 H622 0.961 . S
C607 H623 0.961 . S
C608 C609 1.370 1_556 S
C608 C610 1.363 . S
C608 H624 0.931 . S
C609 C608 1.370 1_554 S
C609 C613 1.408 . S
C610 C608 1.363 . S
C610 C611 1.370 . S
C610 C614 1.524 . S
C611 C603 1.503 . S
C611 C610 1.370 . S
C611 C612 1.403 1_556 S
C612 C611 1.403 1_554 S
C612 C613 1.404 . S
C612 C615 1.539 . S
C613 C609 1.408 . S
C613 C612 1.404 . S
C613 H625 0.930 . S
C614 C610 1.524 . S
C614 H626 0.956 . S
C614 H627 0.961 . S
C614 H628 0.961 . S
C615 C612 1.539 . S
C615 H629 0.958 . S
C615 H630 0.961 . S
C615 H631 0.960 . S
H616 C600 0.931 . S
H617 C605 0.929 . S
H618 C606 0.960 . S
H619 C606 0.962 . S
H620 C606 0.960 . S
H621 C607 0.961 . S
H622 C607 0.961 . S
H623 C607 0.961 . S
H624 C608 0.931 . S
H625 C613 0.930 . S
H626 C614 0.956 . S
H627 C614 0.961 . S
H628 C614 0.961 . S
H629 C615 0.958 . S
H630 C615 0.961 . S
H631 C615 0.960 . S
C632 C633 1.391 . S
C632 C634 1.394 . S
C632 H648 0.931 . S
C633 C632 1.391 . S
C633 C637 1.376 . S
C634 C632 1.394 . S
C634 C635 1.369 . S
C634 C638 1.531 . S
C635 C634 1.369 . S
C635 C636 1.410 . S
C635 C643 1.503 . S
C636 C635 1.410 . S
C636 C637 1.392 . S
C636 C639 1.511 . S
C637 C633 1.376 . S
C637 C636 1.392 . S
C637 H649 0.929 . S
C638 C634 1.531 . S
C638 H650 0.960 . S
C638 H651 0.962 . S
C638 H652 0.960 . S
C639 C636 1.511 . S
C639 H653 0.961 . S
C639 H654 0.961 . S
C639 H655 0.961 . S
C640 C641 1.370 . S
C640 C642 1.363 . S
C640 H656 0.931 . S
C641 C640 1.370 . S
C641 C645 1.408 . S
C642 C640 1.363 . S
C642 C643 1.370 . S
C642 C646 1.524 . S
C643 C635 1.503 . S
C643 C642 1.370 . S
C643 C644 1.403 . S
C644 C643 1.403 . S
C644 C645 1.404 . S
C644 C647 1.539 . S
C645 C641 1.408 . S
C645 C644 1.404 . S
C645 H657 0.930 . S
C646 C642 1.524 . S
C646 H658 0.956 . S
C646 H659 0.961 . S
C646 H660 0.961 . S
C647 C644 1.539 . S
C647 H661 0.958 . S
C647 H662 0.961 . S
C647 H663 0.960 . S
H648 C632 0.931 . S
H649 C637 0.929 . S
H650 C638 0.960 . S
H651 C638 0.962 . S
H652 C638 0.960 . S
H653 C639 0.961 . S
H654 C639 0.961 . S
H655 C639 0.961 . S
H656 C640 0.931 . S
H657 C645 0.930 . S
H658 C646 0.956 . S
H659 C646 0.961 . S
H660 C646 0.961 . S
H661 C647 0.958 . S
H662 C647 0.961 . S
H663 C647 0.960 . S
C664 C665 1.391 . S
C664 C666 1.394 . S
C664 H680 0.931 . S
C665 C664 1.391 . S
C665 C669 1.376 . S
C666 C664 1.394 . S
C666 C667 1.369 . S
C666 C670 1.531 . S
C667 C666 1.369 . S
C667 C668 1.410 . S
C667 C675 1.503 . S
C668 C667 1.410 . S
C668 C669 1.392 . S
C668 C671 1.511 . S
C669 C665 1.376 . S
C669 C668 1.392 . S
C669 H681 0.929 . S
C670 C666 1.531 . S
C670 H682 0.960 . S
C670 H683 0.962 . S
C670 H684 0.960 . S
C671 C668 1.511 . S
C671 H685 0.961 . S
C671 H686 0.961 . S
C671 H687 0.961 . S
C672 C673 1.370 . S
C672 C674 1.363 . S
C672 H688 0.931 . S
C673 C672 1.370 . S
C673 C677 1.408 . S
C674 C672 1.363 . S
C674 C675 1.370 . S
C674 C678 1.524 . S
C675 C667 1.503 . S
C675 C674 1.370 . S
C675 C676 1.403 . S
C676 C675 1.403 . S
C676 C677 1.404 . S
C676 C679 1.539 . S
C677 C673 1.408 . S
C677 C676 1.404 . S
C677 H689 0.930 . S
C678 C674 1.524 . S
C678 H690 0.956 . S
C678 H691 0.961 . S
C678 H692 0.961 . S
C679 C676 1.539 . S
C679 H693 0.958 . S
C679 H694 0.961 . S
C679 H695 0.960 . S
H680 C664 0.931 . S
H681 C669 0.929 . S
H682 C670 0.960 . S
H683 C670 0.962 . S
H684 C670 0.960 . S
H685 C671 0.961 . S
H686 C671 0.961 . S
H687 C671 0.961 . S
H688 C672 0.931 . S
H689 C677 0.930 . S
H690 C678 0.956 . S
H691 C678 0.961 . S
H692 C678 0.961 . S
H693 C679 0.958 . S
H694 C679 0.961 . S
H695 C679 0.960 . S
C696 C697 1.391 . S
C696 C698 1.394 . S
C696 H712 0.931 . S
C697 C696 1.391 . S
C697 C701 1.376 . S
C698 C696 1.394 . S
C698 C699 1.369 . S
C698 C702 1.531 . S
C699 C698 1.369 . S
C699 C700 1.410 . S
C699 C707 1.503 . S
C700 C699 1.410 . S
C700 C701 1.392 . S
C700 C703 1.511 . S
C701 C697 1.376 . S
C701 C700 1.392 . S
C701 H713 0.929 . S
C702 C698 1.531 . S
C702 H714 0.960 . S
C702 H715 0.962 . S
C702 H716 0.960 . S
C703 C700 1.511 . S
C703 H717 0.961 . S
C703 H718 0.961 . S
C703 H719 0.961 . S
C704 C705 1.370 . S
C704 C706 1.363 . S
C704 H720 0.931 . S
C705 C704 1.370 . S
C705 C709 1.408 . S
C706 C704 1.363 . S
C706 C707 1.370 . S
C706 C710 1.524 . S
C707 C699 1.503 . S
C707 C706 1.370 . S
C707 C708 1.403 . S
C708 C707 1.403 . S
C708 C709 1.404 . S
C708 C711 1.539 . S
C709 C705 1.408 . S
C709 C708 1.404 . S
C709 H721 0.930 . S
C710 C706 1.524 . S
C710 H722 0.956 . S
C710 H723 0.961 . S
C710 H724 0.961 . S
C711 C708 1.539 . S
C711 H725 0.958 . S
C711 H726 0.961 . S
C711 H727 0.960 . S
H712 C696 0.931 . S
H713 C701 0.929 . S
H714 C702 0.960 . S
H715 C702 0.962 . S
H716 C702 0.960 . S
H717 C703 0.961 . S
H718 C703 0.961 . S
H719 C703 0.961 . S
H720 C704 0.931 . S
H721 C709 0.930 . S
H722 C710 0.956 . S
H723 C710 0.961 . S
H724 C710 0.961 . S
H725 C711 0.958 . S
H726 C711 0.961 . S
H727 C711 0.960 . S
C728 C729 1.391 . S
C728 C730 1.394 . S
C728 H744 0.931 . S
C729 C728 1.391 . S
C729 C733 1.376 . S
C730 C728 1.394 . S
C730 C731 1.369 . S
C730 C734 1.531 . S
C731 C730 1.369 . S
C731 C732 1.410 . S
C731 C739 1.503 . S
C732 C731 1.410 . S
C732 C733 1.392 . S
C732 C735 1.511 . S
C733 C729 1.376 . S
C733 C732 1.392 . S
C733 H745 0.929 . S
C734 C730 1.531 . S
C734 H746 0.960 . S
C734 H747 0.962 . S
C734 H748 0.960 . S
C735 C732 1.511 . S
C735 H749 0.961 . S
C735 H750 0.961 . S
C735 H751 0.961 . S
C736 C737 1.370 . S
C736 C738 1.363 . S
C736 H752 0.931 . S
C737 C736 1.370 . S
C737 C741 1.408 . S
C738 C736 1.363 . S
C738 C739 1.370 . S
C738 C742 1.524 . S
C739 C731 1.503 . S
C739 C738 1.370 . S
C739 C740 1.403 . S
C740 C739 1.403 . S
C740 C741 1.404 . S
C740 C743 1.539 . S
C741 C737 1.408 . S
C741 C740 1.404 . S
C741 H753 0.930 . S
C742 C738 1.524 . S
C742 H754 0.956 . S
C742 H755 0.961 . S
C742 H756 0.961 . S
C743 C740 1.539 . S
C743 H757 0.958 . S
C743 H758 0.961 . S
C743 H759 0.960 . S
H744 C728 0.931 . S
H745 C733 0.929 . S
H746 C734 0.960 . S
H747 C734 0.962 . S
H748 C734 0.960 . S
H749 C735 0.961 . S
H750 C735 0.961 . S
H751 C735 0.961 . S
H752 C736 0.931 . S
H753 C741 0.930 . S
H754 C742 0.956 . S
H755 C742 0.961 . S
H756 C742 0.961 . S
H757 C743 0.958 . S
H758 C743 0.961 . S
H759 C743 0.960 . S
C760 C761 1.391 . S
C760 C762 1.394 . S
C760 H776 0.931 . S
C761 C760 1.391 . S
C761 C765 1.376 . S
C762 C760 1.394 . S
C762 C763 1.369 . S
C762 C766 1.531 . S
C763 C762 1.369 . S
C763 C764 1.410 . S
C763 C771 1.503 . S
C764 C763 1.410 . S
C764 C765 1.392 . S
C764 C767 1.511 . S
C765 C761 1.376 . S
C765 C764 1.392 . S
C765 H777 0.929 . S
C766 C762 1.531 . S
C766 H778 0.960 . S
C766 H779 0.962 . S
C766 H780 0.960 . S
C767 C764 1.511 . S
C767 H781 0.961 . S
C767 H782 0.961 . S
C767 H783 0.961 . S
C768 C769 1.370 . S
C768 C770 1.363 . S
C768 H784 0.931 . S
C769 C768 1.370 . S
C769 C773 1.408 . S
C770 C768 1.363 . S
C770 C771 1.370 . S
C770 C774 1.524 . S
C771 C763 1.503 . S
C771 C770 1.370 . S
C771 C772 1.403 . S
C772 C771 1.403 . S
C772 C773 1.404 . S
C772 C775 1.539 . S
C773 C769 1.408 . S
C773 C772 1.404 . S
C773 H785 0.930 . S
C774 C770 1.524 . S
C774 H786 0.956 . S
C774 H787 0.961 . S
C774 H788 0.961 . S
C775 C772 1.539 . S
C775 H789 0.958 . S
C775 H790 0.961 . S
C775 H791 0.960 . S
H776 C760 0.931 . S
H777 C765 0.929 . S
H778 C766 0.960 . S
H779 C766 0.962 . S
H780 C766 0.960 . S
H781 C767 0.961 . S
H782 C767 0.961 . S
H783 C767 0.961 . S
H784 C768 0.931 . S
H785 C773 0.930 . S
H786 C774 0.956 . S
H787 C774 0.961 . S
H788 C774 0.961 . S
H789 C775 0.958 . S
H790 C775 0.961 . S
H791 C775 0.960 . S
C792 C793 1.391 . S
C792 C794 1.394 . S
C792 H808 0.931 . S
C793 C792 1.391 . S
C793 C797 1.376 . S
C794 C792 1.394 . S
C794 C795 1.369 . S
C794 C798 1.531 . S
C795 C794 1.369 . S
C795 C796 1.410 . S
C795 C803 1.503 . S
C796 C795 1.410 . S
C796 C797 1.392 . S
C796 C799 1.511 . S
C797 C793 1.376 . S
C797 C796 1.392 . S
C797 H809 0.929 . S
C798 C794 1.531 . S
C798 H810 0.960 . S
C798 H811 0.962 . S
C798 H812 0.960 . S
C799 C796 1.511 . S
C799 H813 0.961 . S
C799 H814 0.961 . S
C799 H815 0.961 . S
C800 C801 1.370 . S
C800 C802 1.363 . S
C800 H816 0.931 . S
C801 C800 1.370 . S
C801 C805 1.408 . S
C802 C800 1.363 . S
C802 C803 1.370 . S
C802 C806 1.524 . S
C803 C795 1.503 . S
C803 C802 1.370 . S
C803 C804 1.403 . S
C804 C803 1.403 . S
C804 C805 1.404 . S
C804 C807 1.539 . S
C805 C801 1.408 . S
C805 C804 1.404 . S
C805 H817 0.900 1_556 S
C806 C802 1.524 . S
C806 H818 0.956 . S
C806 H819 0.961 . S
C806 H820 0.961 . S
C807 C804 1.539 . S
C807 H821 0.958 . S
C807 H822 0.961 1_556 S
C807 H823 0.960 . S
H808 C792 0.931 . S
H809 C797 0.929 . S
H810 C798 0.960 . S
H811 C798 0.962 . S
H812 C798 0.960 . S
H813 C799 0.961 . S
H814 C799 0.961 . S
H815 C799 0.961 . S
H816 C800 0.931 . S
H817 C805 0.900 1_554 S
H818 C806 0.956 . S
H819 C806 0.961 . S
H820 C806 0.961 . S
H821 C807 0.958 . S
H822 C807 0.961 1_554 S
H823 C807 0.960 . S
C824 C825 1.391 . S
C824 C826 1.394 . S
C824 H840 0.931 . S
C825 C824 1.391 . S
C825 C829 1.376 . S
C826 C824 1.394 . S
C826 C827 1.369 . S
C826 C830 1.531 . S
C827 C826 1.369 . S
C827 C828 1.410 . S
C827 C835 1.503 . S
C828 C827 1.410 . S
C828 C829 1.392 . S
C828 C831 1.511 . S
C829 C825 1.376 . S
C829 C828 1.392 . S
C829 H841 0.929 . S
C830 C826 1.531 . S
C830 H842 0.960 . S
C830 H843 0.962 . S
C830 H844 0.960 . S
C831 C828 1.511 . S
C831 H845 0.961 . S
C831 H846 0.961 . S
C831 H847 0.961 . S
C832 C833 1.370 . S
C832 C834 1.363 . S
C832 H848 0.931 . S
C833 C832 1.370 . S
C833 C837 1.408 . S
C834 C832 1.363 . S
C834 C835 1.370 . S
C834 C838 1.524 . S
C835 C827 1.503 . S
C835 C834 1.370 . S
C835 C836 1.403 . S
C836 C835 1.403 . S
C836 C837 1.404 . S
C836 C839 1.539 . S
C837 C833 1.408 . S
C837 C836 1.404 . S
C837 H849 0.930 1_556 S
C838 C834 1.524 . S
C838 H850 0.956 . S
C838 H851 0.961 . S
C838 H852 0.961 . S
C839 C836 1.539 . S
C839 H853 0.958 . S
C839 H854 0.962 1_556 S
C839 H855 0.960 . S
H840 C824 0.931 . S
H841 C829 0.929 . S
H842 C830 0.960 . S
H843 C830 0.962 . S
H844 C830 0.960 . S
H845 C831 0.961 . S
H846 C831 0.961 . S
H847 C831 0.961 . S
H848 C832 0.931 . S
H849 C837 0.930 1_554 S
H850 C838 0.956 . S
H851 C838 0.961 . S
H852 C838 0.961 . S
H853 C839 0.958 . S
H854 C839 0.962 1_554 S
H855 C839 0.960 . S
C856 C857 1.391 . S
C856 C858 1.394 . S
C856 H872 0.931 . S
C857 C856 1.391 . S
C857 C861 1.376 . S
C858 C856 1.394 . S
C858 C859 1.369 . S
C858 C862 1.531 . S
C859 C858 1.369 . S
C859 C860 1.410 . S
C859 C867 1.503 . S
C860 C859 1.410 . S
C860 C861 1.392 . S
C860 C863 1.511 . S
C861 C857 1.376 . S
C861 C860 1.392 . S
C861 H873 0.929 . S
C862 C858 1.531 . S
C862 H874 0.960 . S
C862 H875 0.962 . S
C862 H876 0.960 . S
C863 C860 1.511 . S
C863 H877 0.961 . S
C863 H878 0.961 . S
C863 H879 0.961 . S
C864 C865 1.370 . S
C864 C866 1.363 . S
C864 H880 0.931 . S
C865 C864 1.370 . S
C865 C869 1.408 . S
C866 C864 1.363 . S
C866 C867 1.370 . S
C866 C870 1.524 . S
C867 C859 1.503 . S
C867 C866 1.370 . S
C867 C868 1.403 . S
C868 C867 1.403 . S
C868 C869 1.404 . S
C868 C871 1.539 . S
C869 C865 1.408 . S
C869 C868 1.404 . S
C869 H881 0.930 . S
C870 C866 1.524 . S
C870 H882 0.956 . S
C870 H883 0.961 . S
C870 H884 0.961 . S
C871 C868 1.539 . S
C871 H885 0.958 . S
C871 H886 0.961 . S
C871 H887 0.960 . S
H872 C856 0.931 . S
H873 C861 0.929 . S
H874 C862 0.960 . S
H875 C862 0.962 . S
H876 C862 0.960 . S
H877 C863 0.961 . S
H878 C863 0.961 . S
H879 C863 0.961 . S
H880 C864 0.931 . S
H881 C869 0.930 . S
H882 C870 0.956 . S
H883 C870 0.961 . S
H884 C870 0.961 . S
H885 C871 0.958 . S
H886 C871 0.961 . S
H887 C871 0.960 . S
C888 C889 1.391 . S
C888 C890 1.394 . S
C888 H904 0.931 . S
C889 C888 1.391 . S
C889 C893 1.376 . S
C890 C888 1.394 . S
C890 C891 1.369 . S
C890 C894 1.531 . S
C891 C890 1.369 . S
C891 C892 1.410 . S
C891 C899 1.503 . S
C892 C891 1.410 . S
C892 C893 1.392 . S
C892 C895 1.511 . S
C893 C889 1.376 . S
C893 C892 1.392 . S
C893 H905 0.929 . S
C894 C890 1.531 . S
C894 H906 0.960 . S
C894 H907 0.962 . S
C894 H908 0.960 . S
C895 C892 1.511 . S
C895 H909 0.961 . S
C895 H910 0.961 . S
C895 H911 0.961 . S
C896 C897 1.370 . S
C896 C898 1.363 . S
C896 H912 0.931 . S
C897 C896 1.370 . S
C897 C901 1.408 . S
C898 C896 1.363 . S
C898 C899 1.370 . S
C898 C902 1.524 . S
C899 C891 1.503 . S
C899 C898 1.370 . S
C899 C900 1.403 . S
C900 C899 1.403 . S
C900 C901 1.404 . S
C900 C903 1.539 . S
C901 C897 1.408 . S
C901 C900 1.404 . S
C901 H913 0.930 . S
C902 C898 1.524 . S
C902 H914 0.956 . S
C902 H915 0.961 . S
C902 H916 0.961 . S
C903 C900 1.539 . S
C903 H917 0.958 . S
C903 H918 0.961 . S
C903 H919 0.960 . S
H904 C888 0.931 . S
H905 C893 0.929 . S
H906 C894 0.960 . S
H907 C894 0.962 . S
H908 C894 0.960 . S
H909 C895 0.961 . S
H910 C895 0.961 . S
H911 C895 0.961 . S
H912 C896 0.931 . S
H913 C901 0.930 . S
H914 C902 0.956 . S
H915 C902 0.961 . S
H916 C902 0.961 . S
H917 C903 0.958 . S
H918 C903 0.961 . S
H919 C903 0.960 . S
C920 C921 1.391 . S
C920 C922 1.394 . S
C920 H936 0.931 . S
C921 C920 1.391 . S
C921 C925 1.376 . S
C922 C920 1.394 . S
C922 C923 1.369 . S
C922 C926 1.531 . S
C923 C922 1.369 . S
C923 C924 1.410 . S
C923 C931 1.503 . S
C924 C923 1.410 . S
C924 C925 1.392 . S
C924 C927 1.511 . S
C925 C921 1.376 . S
C925 C924 1.392 . S
C925 H937 0.929 . S
C926 C922 1.531 . S
C926 H938 0.960 . S
C926 H939 0.962 . S
C926 H940 0.960 . S
C927 C924 1.511 . S
C927 H941 0.961 . S
C927 H942 0.961 . S
C927 H943 0.961 . S
C928 C929 1.370 . S
C928 C930 1.363 . S
C928 H944 0.931 . S
C929 C928 1.370 . S
C929 C933 1.408 . S
C930 C928 1.363 . S
C930 C931 1.370 . S
C930 C934 1.524 . S
C931 C923 1.503 . S
C931 C930 1.370 . S
C931 C932 1.403 . S
C932 C931 1.403 . S
C932 C933 1.404 . S
C932 C935 1.539 . S
C933 C929 1.408 . S
C933 C932 1.404 . S
C933 H945 0.930 . S
C934 C930 1.524 . S
C934 H946 0.956 . S
C934 H947 0.961 . S
C934 H948 0.961 . S
C935 C932 1.539 . S
C935 H949 0.958 . S
C935 H950 0.961 . S
C935 H951 0.960 . S
H936 C920 0.931 . S
H937 C925 0.929 . S
H938 C926 0.960 . S
H939 C926 0.962 . S
H940 C926 0.960 . S
H941 C927 0.961 . S
H942 C927 0.961 . S
H943 C927 0.961 . S
H944 C928 0.931 . S
H945 C933 0.930 . S
H946 C934 0.956 . S
H947 C934 0.961 . S
H948 C934 0.961 . S
H949 C935 0.958 . S
H950 C935 0.961 . S
H951 C935 0.960 . S
C952 C953 1.391 . S
C952 C954 1.394 . S
C952 H968 0.931 . S
C953 C952 1.391 . S
C953 C957 1.376 . S
C954 C952 1.394 . S
C954 C955 1.369 . S
C954 C958 1.531 . S
C955 C954 1.369 . S
C955 C956 1.410 . S
C955 C963 1.503 . S
C956 C955 1.410 . S
C956 C957 1.392 . S
C956 C959 1.511 . S
C957 C953 1.376 . S
C957 C956 1.392 . S
C957 H969 0.929 . S
C958 C954 1.531 . S
C958 H970 0.960 . S
C958 H971 0.962 . S
C958 H972 0.960 . S
C959 C956 1.511 . S
C959 H973 0.961 . S
C959 H974 0.961 . S
C959 H975 0.961 . S
C960 C961 1.370 . S
C960 C962 1.363 . S
C960 H976 0.931 . S
C961 C960 1.370 . S
C961 C965 1.408 . S
C962 C960 1.363 . S
C962 C963 1.370 . S
C962 C966 1.524 . S
C963 C955 1.503 . S
C963 C962 1.370 . S
C963 C964 1.403 . S
C964 C963 1.403 . S
C964 C965 1.404 . S
C964 C967 1.539 . S
C965 C961 1.408 . S
C965 C964 1.404 . S
C965 H977 0.930 . S
C966 C962 1.524 . S
C966 H978 0.956 . S
C966 H979 0.961 . S
C966 H980 0.961 . S
C967 C964 1.539 . S
C967 H981 0.958 . S
C967 H982 0.961 . S
C967 H983 0.960 . S
H968 C952 0.931 . S
H969 C957 0.929 . S
H970 C958 0.960 . S
H971 C958 0.962 . S
H972 C958 0.960 . S
H973 C959 0.961 . S
H974 C959 0.961 . S
H975 C959 0.961 . S
H976 C960 0.931 . S
H977 C965 0.930 . S
H978 C966 0.956 . S
H979 C966 0.961 . S
H980 C966 0.961 . S
H981 C967 0.958 . S
H982 C967 0.961 . S
H983 C967 0.960 . S
C984 C985 1.391 . S
C984 C986 1.394 . S
C984 H1000 0.931 . S
C985 C984 1.391 . S
C985 C989 1.376 . S
C986 C984 1.394 . S
C986 C987 1.369 . S
C986 C990 1.531 . S
C987 C986 1.369 . S
C987 C988 1.410 . S
C987 C995 1.503 . S
C988 C987 1.410 . S
C988 C989 1.392 . S
C988 C991 1.511 . S
C989 C985 1.376 . S
C989 C988 1.392 . S
C989 H1001 0.929 . S
C990 C986 1.531 . S
C990 H1002 0.960 . S
C990 H1003 0.962 . S
C990 H1004 0.960 . S
C991 C988 1.511 . S
C991 H1005 0.961 . S
C991 H1006 0.961 . S
C991 H1007 0.961 . S
C992 C993 1.370 . S
C992 C994 1.363 . S
C992 H1008 0.931 . S
C993 C992 1.370 . S
C993 C997 1.408 . S
C994 C992 1.363 . S
C994 C995 1.370 . S
C994 C998 1.524 . S
C995 C987 1.503 . S
C995 C994 1.370 . S
C995 C996 1.403 . S
C996 C995 1.403 . S
C996 C997 1.404 . S
C996 C999 1.539 . S
C997 C993 1.408 . S
C997 C996 1.404 . S
C997 H1009 0.930 . S
C998 C994 1.524 . S
C998 H1010 0.956 . S
C998 H1011 0.961 . S
C998 H1012 0.961 . S
C999 C996 1.539 . S
C999 H1013 0.958 . S
C999 H1014 0.961 . S
C999 H1015 0.960 . S
H1000 C984 0.931 . S
H1001 C989 0.929 . S
H1002 C990 0.960 . S
H1003 C990 0.962 . S
H1004 C990 0.960 . S
H1005 C991 0.961 . S
H1006 C991 0.961 . S
H1007 C991 0.961 . S
H1008 C992 0.931 . S
H1009 C997 0.930 . S
H1010 C998 0.956 . S
H1011 C998 0.961 . S
H1012 C998 0.961 . S
H1013 C999 0.958 . S
H1014 C999 0.961 . S
H1015 C999 0.960 . S
C1016 C1017 1.391 . S
C1016 C1018 1.394 . S
C1016 H1032 0.931 . S
C1017 C1016 1.391 . S
C1017 C1021 1.376 . S
C1018 C1016 1.394 . S
C1018 C1019 1.369 . S
C1018 C1022 1.531 . S
C1019 C1018 1.369 . S
C1019 C1020 1.410 . S
C1019 C1027 1.503 . S
C1020 C1019 1.410 . S
C1020 C1021 1.392 . S
C1020 C1023 1.511 . S
C1021 C1017 1.376 . S
C1021 C1020 1.392 . S
C1021 H1033 0.929 . S
C1022 C1018 1.531 . S
C1022 H1034 0.960 . S
C1022 H1035 0.962 . S
C1022 H1036 0.960 . S
C1023 C1020 1.511 . S
C1023 H1037 0.961 . S
C1023 H1038 0.961 . S
C1023 H1039 0.961 . S
C1024 C1025 1.370 . S
C1024 C1026 1.363 . S
C1024 H1040 0.931 . S
C1025 C1024 1.370 . S
C1025 C1029 1.408 . S
C1026 C1024 1.363 . S
C1026 C1027 1.370 . S
C1026 C1030 1.524 . S
C1027 C1019 1.503 . S
C1027 C1026 1.370 . S
C1027 C1028 1.403 . S
C1028 C1027 1.403 . S
C1028 C1029 1.404 . S
C1028 C1031 1.539 . S
C1029 C1025 1.408 . S
C1029 C1028 1.404 . S
C1029 H1041 0.930 . S
C1030 C1026 1.524 . S
C1030 H1042 0.956 . S
C1030 H1043 0.961 . S
C1030 H1044 0.961 . S
C1031 C1028 1.539 . S
C1031 H1045 0.958 . S
C1031 H1046 0.961 . S
C1031 H1047 0.960 . S
H1032 C1016 0.931 . S
H1033 C1021 0.929 . S
H1034 C1022 0.960 . S
H1035 C1022 0.962 . S
H1036 C1022 0.960 . S
H1037 C1023 0.961 . S
H1038 C1023 0.961 . S
H1039 C1023 0.961 . S
H1040 C1024 0.931 . S
H1041 C1029 0.930 . S
H1042 C1030 0.956 . S
H1043 C1030 0.961 . S
H1044 C1030 0.961 . S
H1045 C1031 0.958 . S
H1046 C1031 0.961 . S
H1047 C1031 0.960 . S
C1048 C1049 1.391 . S
C1048 C1050 1.394 . S
C1048 H1064 0.931 . S
C1049 C1048 1.391 . S
C1049 C1053 1.376 . S
C1050 C1048 1.394 . S
C1050 C1051 1.369 . S
C1050 C1054 1.531 . S
C1051 C1050 1.369 . S
C1051 C1052 1.410 . S
C1051 C1059 1.503 . S
C1052 C1051 1.410 . S
C1052 C1053 1.392 . S
C1052 C1055 1.511 . S
C1053 C1049 1.376 . S
C1053 C1052 1.392 . S
C1053 H1065 0.929 . S
C1054 C1050 1.531 . S
C1054 H1066 0.960 . S
C1054 H1067 0.962 . S
C1054 H1068 0.960 . S
C1055 C1052 1.511 . S
C1055 H1069 0.961 . S
C1055 H1070 0.961 . S
C1055 H1071 0.961 . S
C1056 C1057 1.370 . S
C1056 C1058 1.363 . S
C1056 H1072 0.931 . S
C1057 C1056 1.370 . S
C1057 C1061 1.408 . S
C1058 C1056 1.363 . S
C1058 C1059 1.370 . S
C1058 C1062 1.524 . S
C1059 C1051 1.503 . S
C1059 C1058 1.370 . S
C1059 C1060 1.403 . S
C1060 C1059 1.403 . S
C1060 C1061 1.404 . S
C1060 C1063 1.539 . S
C1061 C1057 1.408 . S
C1061 C1060 1.404 . S
C1061 H1073 0.930 . S
C1062 C1058 1.524 . S
C1062 H1074 0.956 . S
C1062 H1075 0.961 . S
C1062 H1076 0.961 . S
C1063 C1060 1.539 . S
C1063 H1077 0.958 . S
C1063 H1078 0.961 . S
C1063 H1079 0.960 . S
H1064 C1048 0.931 . S
H1065 C1053 0.929 . S
H1066 C1054 0.960 . S
H1067 C1054 0.962 . S
H1068 C1054 0.960 . S
H1069 C1055 0.961 . S
H1070 C1055 0.961 . S
H1071 C1055 0.961 . S
H1072 C1056 0.931 . S
H1073 C1061 0.930 . S
H1074 C1062 0.956 . S
H1075 C1062 0.961 . S
H1076 C1062 0.961 . S
H1077 C1063 0.958 . S
H1078 C1063 0.961 . S
H1079 C1063 0.960 . S
C313 C6 1.162 . S
C321 C167 1.204 . S
C345 C21 1.925 . S
C353 C211 1.953 1_556 S
C385 C241 1.811 . S
C377 C49 1.701 . S
C409 C68 2.559 . S
C417 C282 2.591 1_655 S
C449 C198 1.577 . S
C441 C2 1.559 . S
C481 C162 2.095 1_565 S
C473 C30 2.055 . S
C513 C290 1.169 . S
C505 C40 1.192 . S
C545 C251 2.222 . S
C537 C63 2.278 . S
C569 C11 1.032 . S
C577 C287 1.061 . S
C609 C201 2.291 . S
C601 C44 2.335 . S
C633 C59 1.581 . S
C641 C170 1.613 . S
C665 C25 2.575 . S
C673 C238 2.532 . S
C705 C158 1.453 . S
C697 C82 1.412 . S
C729 C101 1.436 . S
C737 C202 1.484 . S
C761 C125 1.589 . S
C769 C250 1.842 . S
C793 C144 2.209 . S
C801 C291 2.241 . S
C825 C87 0.805 . S
C833 C207 0.734 . S
C865 C171 3.180 . S
C857 C97 3.114 . S
C897 C281 1.078 . S
C889 C120 1.092 . S
C929 C242 1.750 . S
C921 C135 1.734 . S
C953 C78 1.753 . S
C961 C278 1.766 . S
C993 C210 1.309 . S
C985 C116 1.240 . S
C1025 C161 2.194 . S
C1017 C139 2.265 . S
C1049 C106 1.665 . S
C1057 C247 1.944 . S
