# Generated by pormake.
# Topology zzz, (3,6)-cn, num edge types: 1
# Building blocks:
#     Node 0, Type 0, BuildingBlock: VETTIZ_charged_linker_0, # of connection points: 3
#     Node 1, Type 0, BuildingBlock: VETTIZ_charged_linker_0, # of connection points: 3
#     Node 2, Type 0, BuildingBlock: VETTIZ_charged_linker_0, # of connection points: 3
#     Node 3, Type 0, BuildingBlock: VETTIZ_charged_linker_0, # of connection points: 3
#     Node 4, Type 0, BuildingBlock: VETTIZ_charged_linker_0, # of connection points: 3
#     Node 5, Type 0, BuildingBlock: VETTIZ_charged_linker_0, # of connection points: 3
#     Node 6, Type 0, BuildingBlock: VETTIZ_charged_linker_0, # of connection points: 3
#     Node 7, Type 0, BuildingBlock: VETTIZ_charged_linker_0, # of connection points: 3
#     Node 8, Type 1, BuildingBlock: BETGAK_clean_sbu_0, # of connection points: 6
#     Node 9, Type 1, BuildingBlock: BETGAK_clean_sbu_0, # of connection points: 6
#     Node 10, Type 1, BuildingBlock: BETGAK_clean_sbu_0, # of connection points: 6
#     Node 11, Type 1, BuildingBlock: BETGAK_clean_sbu_0, # of connection points: 6
#     Edge 12, Type (0, 1), BuildingBlock: OJICUG_clean_linker_0, # of connection points: 2
#     Edge 13, Type (0, 1), BuildingBlock: OJICUG_clean_linker_0, # of connection points: 2
#     Edge 14, Type (0, 1), BuildingBlock: OJICUG_clean_linker_0, # of connection points: 2
#     Edge 15, Type (0, 1), BuildingBlock: OJICUG_clean_linker_0, # of connection points: 2
#     Edge 16, Type (0, 1), BuildingBlock: OJICUG_clean_linker_0, # of connection points: 2
#     Edge 17, Type (0, 1), BuildingBlock: OJICUG_clean_linker_0, # of connection points: 2
#     Edge 18, Type (0, 1), BuildingBlock: OJICUG_clean_linker_0, # of connection points: 2
#     Edge 19, Type (0, 1), BuildingBlock: OJICUG_clean_linker_0, # of connection points: 2
#     Edge 20, Type (0, 1), BuildingBlock: OJICUG_clean_linker_0, # of connection points: 2
#     Edge 21, Type (0, 1), BuildingBlock: OJICUG_clean_linker_0, # of connection points: 2
#     Edge 22, Type (0, 1), BuildingBlock: OJICUG_clean_linker_0, # of connection points: 2
#     Edge 23, Type (0, 1), BuildingBlock: OJICUG_clean_linker_0, # of connection points: 2
#     Edge 24, Type (0, 1), BuildingBlock: OJICUG_clean_linker_0, # of connection points: 2
#     Edge 25, Type (0, 1), BuildingBlock: OJICUG_clean_linker_0, # of connection points: 2
#     Edge 26, Type (0, 1), BuildingBlock: OJICUG_clean_linker_0, # of connection points: 2
#     Edge 27, Type (0, 1), BuildingBlock: OJICUG_clean_linker_0, # of connection points: 2
#     Edge 28, Type (0, 1), BuildingBlock: OJICUG_clean_linker_0, # of connection points: 2
#     Edge 29, Type (0, 1), BuildingBlock: OJICUG_clean_linker_0, # of connection points: 2
#     Edge 30, Type (0, 1), BuildingBlock: OJICUG_clean_linker_0, # of connection points: 2
#     Edge 31, Type (0, 1), BuildingBlock: OJICUG_clean_linker_0, # of connection points: 2
#     Edge 32, Type (0, 1), BuildingBlock: OJICUG_clean_linker_0, # of connection points: 2
#     Edge 33, Type (0, 1), BuildingBlock: OJICUG_clean_linker_0, # of connection points: 2
#     Edge 34, Type (0, 1), BuildingBlock: OJICUG_clean_linker_0, # of connection points: 2
#     Edge 35, Type (0, 1), BuildingBlock: OJICUG_clean_linker_0, # of connection points: 2
# Relax obj value: 0.520
# Max RMSD: 0.266
# Mean RMSD: 0.257
data_MOF--net-zzz--node1-BETGAK_clean_sbu_0--node2-VETTIZ_charged_linker_0--edge1-OJICUG_clean_linker_0
_symmetry_space_group_name_H-M    P1
_symmetry_Int_Tables_number       1
_symmetry_cell_setting            triclinic
loop_
_symmetry_equiv_pos_as_xyz
'x, y, z'
_cell_length_a     45.194578
_cell_length_b     45.123503
_cell_length_c     14.274711
_cell_angle_alpha  89.696882
_cell_angle_beta   90.012266
_cell_angle_gamma 90.207937
loop_
_atom_site_label
_atom_site_type_symbol
_atom_site_fract_x
_atom_site_fract_y
_atom_site_fract_z
_atom_type_partial_charge
C0 C 0.82026 0.52134 0.52371 0.0
C1 C 0.83856 0.50526 0.58818 0.0
C2 C 0.83158 0.47517 0.60533 0.0
C3 C 0.79588 0.47562 0.48022 0.0
C4 C 0.79789 0.50586 0.47272 0.0
C5 C 0.77301 0.51708 0.40842 0.0
H6 H 0.66798 0.4739 0.0773 0.0
C7 C 0.77608 0.4642 0.40803 0.0
C8 C 0.76034 0.48793 0.36812 0.0
H9 H 0.67723 0.56203 0.18898 0.0
H10 H 0.71861 0.5453 0.28733 0.0
H11 H 0.73027 0.46944 0.03677 0.0
H12 H 0.6804 0.4318 0.26058 0.0
H13 H 0.70406 0.40453 0.21265 0.0
H14 H 0.67797 0.42317 0.13801 0.0
H15 H 0.7194 0.43152 0.03299 0.0
H16 H 0.75477 0.44271 0.08073 0.0
C17 C 0.78586 0.53723 0.33126 0.0
C18 C 0.75015 0.53312 0.46981 0.0
C19 C 0.81589 0.37619 0.2389 0.0
C20 C 0.81103 0.36793 0.14543 0.0
C21 C 0.78266 0.37257 0.10694 0.0
C22 C 0.76182 0.38994 0.15455 0.0
C23 C 0.77009 0.40382 0.23865 0.0
C24 C 0.79599 0.39538 0.28248 0.0
C25 C 0.80278 0.41381 0.36733 0.0
C26 C 0.77777 0.43658 0.36178 0.0
C27 C 0.75914 0.43089 0.28548 0.0
C28 C 0.83377 0.42831 0.35471 0.0
C29 C 0.8011 0.39357 0.4553 0.0
C30 C 0.67803 0.48951 0.12523 0.0
C31 C 0.66838 0.51905 0.12717 0.0
C32 C 0.68369 0.53896 0.18688 0.0
C33 C 0.70743 0.52922 0.24483 0.0
C34 C 0.71634 0.49932 0.24262 0.0
C35 C 0.70186 0.48034 0.18154 0.0
C36 C 0.71654 0.45069 0.17574 0.0
C37 C 0.73934 0.45317 0.25338 0.0
C38 C 0.73992 0.48191 0.29268 0.0
C39 C 0.73093 0.44823 0.07685 0.0
C40 C 0.69355 0.42611 0.19745 0.0
H41 H 0.80443 0.43805 0.57016 0.0
H42 H 0.82338 0.54492 0.51357 0.0
H43 H 0.74336 0.51881 0.52982 0.0
H44 H 0.72984 0.53868 0.43097 0.0
H45 H 0.75969 0.55393 0.4984 0.0
H46 H 0.80341 0.52541 0.29189 0.0
H47 H 0.79571 0.55757 0.362 0.0
H48 H 0.76862 0.54403 0.28059 0.0
H49 H 0.83699 0.37204 0.27171 0.0
H50 H 0.77776 0.36541 0.03629 0.0
H51 H 0.741 0.39379 0.12084 0.0
H52 H 0.83482 0.44111 0.28797 0.0
H53 H 0.85153 0.4114 0.35411 0.0
H54 H 0.83967 0.44348 0.41193 0.0
H55 H 0.80234 0.36964 0.43739 0.0
H56 H 0.78006 0.39684 0.49415 0.0
H57 H 0.82002 0.39751 0.50327 0.0
H58 H 0.84382 0.46235 0.65656 0.0
C59 C 0.80983 0.46061 0.55337 0.0
C60 C 0.11325 0.81053 0.953 0.0
C61 C 0.10795 0.83791 0.90851 0.0
C62 C 0.08352 0.85512 0.93698 0.0
C63 C 0.07469 0.82162 0.06499 0.0
C64 C 0.09531 0.80227 0.02936 0.0
C65 C 0.09506 0.77318 0.08208 0.0
H66 H 0.99058 0.69182 0.25179 0.0
C67 C 0.0625 0.80913 0.1511 0.0
C68 C 0.07266 0.78003 0.15989 0.0
H69 H 0.07376 0.66362 0.1305 0.0
H70 H 0.09586 0.71107 0.17174 0.0
H71 H 0.03344 0.73786 0.44774 0.0
H72 H 0.9883 0.76525 0.19195 0.0
H73 H 0.97757 0.78045 0.30332 0.0
H74 H 0.96852 0.74262 0.27575 0.0
H75 H 0.99754 0.72216 0.42314 0.0
H76 H 1.0006 0.76055 0.45259 0.0
C77 C 0.12615 0.7674 0.12255 0.0
C78 C 0.0847 0.74855 1.01385 0.0
C79 C 0.02837 0.87945 0.40011 0.0
C80 C 0.02506 0.87617 0.49757 0.0
C81 C 0.02443 0.84683 0.53442 0.0
C82 C 0.02638 0.82167 0.47449 0.0
C83 C 0.02892 0.82584 0.37694 0.0
C84 C 0.03129 0.85452 0.34239 0.0
C85 C 0.04118 0.85535 0.24179 0.0
C86 C 0.04642 0.82252 0.22434 0.0
C87 C 0.03676 0.80504 0.29972 0.0
C88 C 0.07017 0.87375 0.23528 0.0
C89 C 1.01578 0.86806 0.18049 0.0
C90 C 1.01348 0.69589 0.23353 0.0
C91 C 0.02996 0.67421 0.18313 0.0
C92 C 0.06019 0.6799 0.16559 0.0
C93 C 0.0728 0.70745 0.18624 0.0
C94 C 0.05506 0.72971 0.2233 0.0
C95 C 0.02726 0.72331 0.25712 0.0
C96 C 1.01527 0.75007 0.31052 0.0
C97 C 0.03975 0.77345 0.29454 0.0
C98 C 0.0606 0.76157 0.23141 0.0
C99 C 1.0116 0.74226 0.41471 0.0
C100 C 0.98566 0.76017 0.26781 0.0
H101 H 0.04891 0.86099 0.03538 0.0
H102 H 0.1313 0.79652 0.9307 0.0
H103 H 0.09004 0.75406 0.93975 0.0
H104 H 0.06037 0.74511 1.01784 0.0
H105 H 0.09606 0.72725 0.02677 0.0
H106 H 0.13462 0.78736 0.15942 0.0
H107 H 0.14197 0.76175 0.06585 0.0
H108 H 0.12596 0.74905 0.17422 0.0
H109 H 0.03024 0.90135 0.36933 0.0
H110 H 0.02267 0.84336 0.60931 0.0
H111 H 0.02734 0.79974 0.5048 0.0
H112 H 0.08727 0.86451 0.28316 0.0
H113 H 0.0663 0.8972 0.25475 0.0
H114 H 0.07966 0.87429 0.16428 0.0
H115 H 0.02235 0.88928 0.1464 0.0
H116 H 0.99546 0.87273 0.22177 0.0
H117 H 1.0089 0.85223 0.1252 0.0
H118 H 0.07873 0.87621 0.90364 0.0
C119 C 0.06675 0.84692 1.01468 0.0
C120 C 0.87375 0.02332 0.19557 0.0
C121 C 0.8953 1.00821 0.13977 0.0
C122 C 0.89027 0.97817 0.11761 0.0
C123 C 0.8411 0.98147 0.17905 0.0
C124 C 0.84681 1.0084 0.21864 0.0
C125 C 0.82037 1.01687 0.28119 0.0
H126 H 0.6721 0.9825 0.37331 0.0
C127 C 0.81013 0.97426 0.18902 0.0
C128 C 0.79726 0.99272 0.25624 0.0
H129 H 0.72441 0.0442 0.53354 0.0
H130 H 0.76735 0.0343 0.43175 0.0
H131 H 0.68205 1.00107 0.20356 0.0
H132 H 0.719 0.93036 0.34333 0.0
H133 H 0.71378 0.92023 0.22467 0.0
H134 H 0.68338 0.93569 0.28945 0.0
H135 H 0.67959 0.96688 0.14578 0.0
H136 H 0.70823 0.99342 0.11498 0.0
C137 C 0.8093 0.04806 0.25612 0.0
C138 C 0.8303 1.01449 0.38405 0.0
C139 C 0.75597 0.96476 0.89062 0.0
C140 C 0.72509 0.9662 0.88008 0.0
C141 C 0.7073 0.94982 0.94324 0.0
C142 C 0.71914 0.94052 0.02898 0.0
C143 C 0.74837 0.94825 0.04967 0.0
C144 C 0.76737 0.95614 0.97809 0.0
C145 C 0.79819 0.96146 1.01416 0.0
C146 C 0.79244 0.96065 0.12039 0.0
C147 C 0.76252 0.95566 0.13934 0.0
C148 C 0.80982 0.99202 0.97978 0.0
C149 C 0.81807 0.93601 0.9795 0.0
C150 C 0.69287 0.99343 0.3892 0.0
C151 C 0.69473 1.0134 0.46396 0.0
C152 C 0.72217 0.02828 0.47749 0.0
C153 C 0.74716 1.02231 0.4194 0.0
C154 C 0.74473 1.00148 0.34634 0.0
C155 C 0.71748 0.98809 0.3319 0.0
C156 C 0.71699 0.96866 0.24733 0.0
C157 C 0.74934 0.96964 0.21835 0.0
C158 C 0.76602 0.98924 0.27532 0.0
C159 C 0.69581 0.98304 0.17383 0.0
C160 C 0.70764 0.937 0.27735 0.0
H161 H 0.85948 0.94175 0.11995 0.0
H162 H 0.87757 0.04586 0.21814 0.0
H163 H 0.83952 0.99213 0.39886 0.0
H164 H 0.81185 1.01797 0.43317 0.0
H165 H 0.84775 0.0312 0.39928 0.0
H166 H 0.80346 0.04936 0.18054 0.0
H167 H 0.82664 0.06493 0.27072 0.0
H168 H 0.78935 0.05373 0.2973 0.0
H169 H 0.77004 0.97543 0.83918 0.0
H170 H 0.68352 0.9487 0.93439 0.0
H171 H 0.70473 0.93041 0.07974 0.0
H172 H 0.79487 1.01009 1.00286 0.0
H173 H 0.81169 0.99278 0.90232 0.0
H174 H 0.83233 0.99685 1.00596 0.0
H175 H 0.81225 0.92969 0.90654 0.0
H176 H 0.81563 0.916 0.02461 0.0
H177 H 0.84164 0.94269 0.97652 0.0
H178 H 0.90657 0.96565 0.07884 0.0
C179 C 0.86323 0.96467 0.13783 0.0
C180 C 0.52091 0.73077 0.45479 0.0
C181 C 0.50478 0.70988 0.51102 0.0
C182 C 0.47393 0.71376 0.51986 0.0
C183 C 0.47473 0.75177 0.40107 0.0
C184 C 0.50505 0.75266 0.40277 0.0
C185 C 0.51578 0.77981 0.34671 0.0
H186 H 0.47148 0.88927 0.02962 0.0
C187 C 0.4637 0.77207 0.32945 0.0
C188 C 0.48691 0.79073 0.3 0.0
H189 H 0.55718 0.88492 0.16104 0.0
H190 H 0.54226 0.8393 0.2441 0.0
H191 H 0.43615 0.83568 0.95938 0.0
H192 H 0.42688 0.86774 0.19555 0.0
H193 H 0.40313 0.84312 0.13436 0.0
H194 H 0.42107 0.87282 0.07183 0.0
H195 H 0.44866 0.79998 1.0016 0.0
H196 H 0.47447 0.82763 0.97247 0.0
C197 C 0.53892 0.77048 0.27382 0.0
C198 C 0.52805 0.80263 0.41665 0.0
C199 C 0.38306 0.7296 0.12985 0.0
C200 C 0.37565 0.73632 0.03661 0.0
C201 C 0.37994 0.76554 1.00399 0.0
C202 C 0.39523 0.78625 0.0591 0.0
C203 C 0.40768 0.77705 0.14477 0.0
C204 C 0.40017 0.74964 0.18121 0.0
C205 C 0.41694 0.74232 0.26927 0.0
C206 C 0.43767 0.76915 0.27511 0.0
C207 C 0.43246 0.78898 0.20126 0.0
C208 C 0.43415 0.713 0.25439 0.0
C209 C 0.39461 0.7402 0.35152 0.0
C210 C 0.48678 0.87927 0.07883 0.0
C211 C 0.51503 0.89153 0.09138 0.0
C212 C 0.53495 0.87643 0.15167 0.0
C213 C 0.52623 0.85023 0.20062 0.0
C214 C 0.49746 0.83871 0.18817 0.0
C215 C 0.47873 0.85308 0.12585 0.0
C216 C 0.45094 0.83594 0.10779 0.0
C217 C 0.45363 0.81136 0.18 0.0
C218 C 0.48115 0.81232 0.22729 0.0
C219 C 0.45238 0.82424 1.00534 0.0
C220 C 0.42394 0.85592 0.12795 0.0
H221 H 0.43581 0.73817 0.47778 0.0
H222 H 0.54482 0.72997 0.45163 0.0
H223 H 0.5116 0.80701 0.47281 0.0
H224 H 0.53311 0.82409 0.38309 0.0
H225 H 0.54858 0.79421 0.4502 0.0
H226 H 0.52979 0.75286 0.22786 0.0
H227 H 0.55908 0.76176 0.3088 0.0
H228 H 0.54553 0.78939 0.22871 0.0
H229 H 0.37953 0.70748 0.15739 0.0
H230 H 0.37376 0.77154 0.93307 0.0
H231 H 0.39851 0.80798 0.03032 0.0
H232 H 0.4488 0.71476 0.19201 0.0
H233 H 0.41883 0.69401 0.2442 0.0
H234 H 0.44801 0.7069 0.31493 0.0
H235 H 0.37141 0.7375 0.32691 0.0
H236 H 0.39523 0.76047 0.39542 0.0
H237 H 0.39887 0.72051 0.39636 0.0
H238 H 0.46093 0.69944 0.56516 0.0
C239 C 0.45906 0.73508 0.46693 0.0
C240 C 0.36452 0.52883 0.35977 0.0
C241 C 0.38166 0.52323 0.4426 0.0
C242 C 0.36667 0.51656 0.52649 0.0
C243 C 0.32023 0.52835 0.4546 0.0
C244 C 0.33297 0.53028 0.36755 0.0
C245 C 0.30821 0.53139 0.29276 0.0
H246 H 0.15384 0.53153 0.23672 0.0
C247 C 0.2886 0.53161 0.44707 0.0
C248 C 0.27969 0.53078 0.35315 0.0
H249 H 0.21643 0.53587 1.00911 0.0
H250 H 0.25762 0.5332 0.12298 0.0
H251 H 0.1893 0.48352 0.36681 0.0
H252 H 0.16486 0.56906 0.35094 0.0
H253 H 0.19418 0.57814 0.42889 0.0
H254 H 0.16325 0.55543 0.46595 0.0
H255 H 0.15626 0.50398 0.39341 0.0
H256 H 0.18395 0.49705 0.48159 0.0
C257 C 0.31037 0.50391 0.23 0.0
C258 C 0.31082 0.56036 0.23623 0.0
C259 C 0.23466 0.58493 0.70486 0.0
C260 C 0.20484 0.58433 0.73194 0.0
C261 C 0.18551 0.56332 0.69127 0.0
C262 C 0.19501 0.54547 0.61757 0.0
C263 C 0.22375 0.54914 0.58357 0.0
C264 C 0.24385 0.56612 0.63271 0.0
C265 C 0.27482 0.56112 0.59882 0.0
C266 C 0.26895 0.53918 0.51887 0.0
C267 C 0.23878 0.53593 0.50305 0.0
C268 C 0.29334 0.54893 0.68115 0.0
C269 C 0.28806 0.59041 0.56123 0.0
C270 C 0.17625 0.53243 0.21001 0.0
C271 C 0.18139 0.53457 0.11323 0.0
C272 C 0.21141 0.53431 0.08313 0.0
C273 C 0.23528 0.53287 0.14894 0.0
C274 C 0.22924 0.53169 0.24605 0.0
C275 C 0.19983 0.53191 0.27397 0.0
C276 C 0.19615 0.53175 0.37819 0.0
C277 C 0.2282 0.53187 0.41 0.0
C278 C 0.24822 0.53109 0.33316 0.0
C279 C 0.18043 0.5026 0.40697 0.0
C280 C 0.1789 0.55998 0.40804 0.0
H281 H 0.32506 0.50988 0.59341 0.0
H282 H 0.3752 0.53159 0.29244 0.0
H283 H 0.31035 0.57978 0.28383 0.0
H284 H 0.29234 0.56273 0.18594 0.0
H285 H 0.33194 0.56098 0.19641 0.0
H286 H 0.30976 0.48335 0.27323 0.0
H287 H 0.33142 0.50421 0.18975 0.0
H288 H 0.29182 0.50283 0.17967 0.0
H289 H 0.25007 0.60021 0.73721 0.0
H290 H 0.1625 0.56208 0.71227 0.0
H291 H 0.17976 0.52975 0.58841 0.0
H292 H 0.28902 0.5614 0.74661 0.0
H293 H 0.31736 0.55184 0.6684 0.0
H294 H 0.28794 0.52527 0.69509 0.0
H295 H 0.27393 0.59984 0.50474 0.0
H296 H 0.31051 0.58669 0.53205 0.0
H297 H 0.29002 0.60704 0.61805 0.0
H298 H 0.37879 0.51004 0.58879 0.0
C299 C 0.33606 0.51801 0.53149 0.0
C300 C 0.87457 0.27923 0.4468 0.0
C301 C 0.86426 0.25049 0.4253 0.0
C302 C 0.86214 0.24264 0.32969 0.0
C303 C 0.89453 0.28318 0.29059 0.0
C304 C 0.89028 0.29517 0.37806 0.0
C305 C 0.90939 0.3222 0.39216 0.0
H306 H 0.0383 0.37985 0.40192 0.0
C307 C 0.9217 0.29596 0.25028 0.0
C308 C 0.92913 0.32054 0.30466 0.0
H309 H 0.95498 0.42608 0.4386 0.0
H310 H 0.9303 0.38822 0.34649 0.0
H311 H 1.0152 0.3057 0.41311 0.0
H312 H 1.01473 0.36048 0.16101 0.0
H313 H 0.03412 0.32617 0.15349 0.0
H314 H 0.04851 0.35528 0.22589 0.0
H315 H 0.0488 0.32332 0.37339 0.0
H316 H 0.0345 0.29133 0.31406 0.0
C317 C 0.92752 0.31917 0.48369 0.0
C318 C 0.88913 0.34971 0.39429 0.0
C319 C 0.98167 0.22382 0.05787 0.0
C320 C 1.01186 0.21854 0.04376 0.0
C321 C 0.03231 0.23863 0.08467 0.0
C322 C 0.02248 0.26366 0.13661 0.0
C323 C 0.9919 0.2683 0.15021 0.0
C324 C 0.97234 0.24786 0.11234 0.0
C325 C 0.94106 0.25281 0.14243 0.0
C326 C 0.94422 0.28117 0.19872 0.0
C327 C 0.9741 0.29078 0.20352 0.0
C328 C 0.93115 0.22557 0.20271 0.0
C329 C 0.92181 0.25792 0.05428 0.0
C330 C 1.01455 0.38131 0.39356 0.0
C331 C 0.99851 0.40559 0.4328 0.0
C332 C 0.9679 0.40756 0.41367 0.0
C333 C 0.95314 0.38523 0.36513 0.0
C334 C 0.96858 0.36 0.33879 0.0
C335 C 0.99887 0.35903 0.343 0.0
C336 C 1.01 0.33248 0.2859 0.0
C337 C 0.98081 0.31757 0.2545 0.0
C338 C 0.95733 0.33349 0.29385 0.0
C339 C 0.02824 0.312 0.34995 0.0
C340 C 0.02793 0.34413 0.20179 0.0
H341 H 0.87654 0.25201 0.19028 0.0
H342 H 0.87425 0.28697 0.51838 0.0
H343 H 0.86698 0.34432 0.42394 0.0
H344 H 0.88578 0.35888 0.32278 0.0
H345 H 0.89821 0.36727 0.44023 0.0
H346 H 0.91283 0.31874 0.546 0.0
H347 H 0.94276 0.3382 0.49323 0.0
H348 H 0.94088 0.29852 0.48318 0.0
H349 H 0.96533 0.20846 0.03074 0.0
H350 H 0.05582 0.23508 0.07594 0.0
H351 H 0.03884 0.27821 0.16612 0.0
H352 H 0.92957 0.23114 0.27823 0.0
H353 H 0.9469 0.20674 0.19958 0.0
H354 H 0.9098 0.21618 0.17839 0.0
H355 H 0.93328 0.27289 1.00371 0.0
H356 H 0.90058 0.2688 0.07102 0.0
H357 H 0.91711 0.23665 1.01827 0.0
H358 H 0.85277 0.22164 0.3084 0.0
C359 C 0.87695 0.25944 0.26155 0.0
C360 C 0.33184 0.03821 0.04095 0.0
C361 C 0.35132 1.02152 0.98235 0.0
C362 C 0.34534 0.99105 0.97065 0.0
C363 C 0.30772 0.99268 0.08986 0.0
C364 C 0.30906 0.02306 0.09181 0.0
C365 C 0.2828 0.03477 0.14908 0.0
H366 H 0.17055 0.99341 0.46036 0.0
C367 C 0.28649 0.982 0.15947 0.0
C368 C 0.2697 1.00604 0.19196 0.0
H369 H 0.18074 0.08046 0.33879 0.0
H370 H 0.2252 0.06381 0.25463 0.0
H371 H 0.18727 0.95087 0.28789 0.0
H372 H 0.23288 0.99074 0.51623 0.0
H373 H 0.25726 0.96251 0.48335 0.0
H374 H 0.2205 0.95327 0.5244 0.0
H375 H 0.18264 0.94254 0.41036 0.0
H376 H 0.21014 0.92388 0.34165 0.0
C377 C 0.261 0.04963 0.08071 0.0
C378 C 0.2938 0.05616 0.22504 0.0
C379 C 0.32037 0.89335 0.34261 0.0
C380 C 0.31302 0.88479 0.43452 0.0
C381 C 0.28431 0.89089 0.46749 0.0
C382 C 0.26535 0.90933 0.41571 0.0
C383 C 0.27582 0.92276 0.33283 0.0
C384 C 0.30225 0.91343 0.29491 0.0
C385 C 0.31129 0.93132 0.21039 0.0
C386 C 0.28683 0.95471 0.20889 0.0
C387 C 0.26654 0.94978 0.28141 0.0
C388 C 0.31097 0.91065 0.12387 0.0
C389 C 0.34224 0.94518 0.22863 0.0
C390 C 0.18155 1.00878 0.41321 0.0
C391 C 0.1712 0.0379 0.40383 0.0
C392 C 0.18769 0.05763 0.34598 0.0
C393 C 0.21322 0.04793 0.29629 0.0
C394 C 0.22267 1.01828 0.30518 0.0
C395 C 0.20699 0.99968 0.36509 0.0
C396 C 0.22164 0.97031 0.37817 0.0
C397 C 0.2462 0.97234 0.30617 0.0
C398 C 0.24759 1.00068 0.26333 0.0
C399 C 0.19929 0.94543 0.35376 0.0
C400 C 0.23363 0.96889 0.48048 0.0
H401 H 0.31856 0.95402 1.00858 0.0
H402 H 0.33424 0.06201 0.04632 0.0
H403 H 0.31057 0.04514 0.27019 0.0
H404 H 0.27541 0.06346 0.2705 0.0
H405 H 0.30411 0.07615 0.19283 0.0
H406 H 0.25533 0.03433 0.0225 0.0
H407 H 0.27095 0.07001 0.04982 0.0
H408 H 0.24005 0.0557 0.1149 0.0
H409 H 0.34197 0.88838 0.31423 0.0
H410 H 0.27769 0.88384 0.53709 0.0
H411 H 0.24416 0.91414 0.44549 0.0
H412 H 0.31016 0.88679 0.14369 0.0
H413 H 0.33141 0.91319 0.08144 0.0
H414 H 0.29139 0.9149 0.07868 0.0
H415 H 0.34211 0.95834 0.29431 0.0
H416 H 0.34966 0.95992 0.17147 0.0
H417 H 0.35951 0.92787 0.23482 0.0
H418 H 0.35851 0.97779 0.92343 0.0
C419 C 0.3232 0.97687 0.02219 0.0
C420 C 0.54171 0.33938 1.01501 0.0
C421 C 0.55871 0.35884 0.95643 0.0
C422 C 0.5893 0.35336 0.94731 0.0
C423 C 0.58694 0.31696 0.07069 0.0
C424 C 0.55661 0.31744 0.06929 0.0
C425 C 0.54471 0.29149 0.12827 0.0
H426 H 0.58338 0.18453 0.46005 0.0
C427 C 0.59706 0.29727 0.1452 0.0
C428 C 0.57303 0.2801 0.17699 0.0
H429 H 0.49923 0.18976 0.31893 0.0
H430 H 0.51591 0.23448 0.23506 0.0
H431 H 0.62965 0.2028 0.29563 0.0
H432 H 0.58259 0.24857 0.50926 0.0
H433 H 0.61052 0.27394 0.47827 0.0
H434 H 0.62024 0.23818 0.52666 0.0
H435 H 0.63447 0.19909 0.42023 0.0
H436 H 0.654 0.22723 0.3554 0.0
C437 C 0.53178 0.26836 0.06045 0.0
C438 C 0.52174 0.30259 0.19921 0.0
C439 C 0.68078 0.33885 0.33479 0.0
C440 C 0.68865 0.33352 0.42851 0.0
C441 C 0.68238 0.30538 0.46749 0.0
C442 C 0.66484 0.28487 0.41845 0.0
C443 C 0.65264 0.29306 0.33144 0.0
C444 C 0.66185 0.31909 0.28905 0.0
C445 C 0.64524 0.32573 0.20027 0.0
C446 C 0.62308 0.29999 0.19967 0.0
C447 C 0.62718 0.28138 0.27738 0.0
C448 C 0.66742 0.32526 0.11738 0.0
C449 C 0.62969 0.35617 0.21055 0.0
C450 C 0.56877 0.19464 0.40899 0.0
C451 C 0.54043 0.18278 0.39372 0.0
C452 C 0.52149 0.19792 0.33052 0.0
C453 C 0.53127 0.22355 0.28088 0.0
C454 C 0.56019 0.23444 0.29509 0.0
C455 C 0.57795 0.22028 0.36064 0.0
C456 C 0.60638 0.23663 0.37757 0.0
C457 C 0.60501 0.26024 0.30168 0.0
C458 C 0.57768 0.2596 0.25336 0.0
C459 C 0.63266 0.21535 0.36185 0.0
C460 C 0.6051 0.24996 0.47788 0.0
H461 H 0.6263 0.32773 0.9918 0.0
H462 H 0.51789 0.34139 1.01855 0.0
H463 H 0.53141 0.32044 0.24318 0.0
H464 H 0.51431 0.28453 0.24646 0.0
H465 H 0.50201 0.31161 0.16257 0.0
H466 H 0.54803 0.26309 1.00448 0.0
H467 H 0.51142 0.27699 0.02638 0.0
H468 H 0.5263 0.24728 0.0956 0.0
H469 H 0.68565 0.35997 0.30209 0.0
H470 H 0.68887 0.30029 0.53881 0.0
H471 H 0.65989 0.26422 0.4525 0.0
H472 H 0.69084 0.32667 0.14101 0.0
H473 H 0.66438 0.34463 0.07014 0.0
H474 H 0.66529 0.30453 0.07619 0.0
H475 H 0.61605 0.36203 0.14927 0.0
H476 H 0.64603 0.37444 0.21757 0.0
H477 H 0.61509 0.35623 0.27326 0.0
H478 H 0.60288 0.36657 0.90042 0.0
C479 C 0.60325 0.33201 1.00252 0.0
La480 La 0.05346 0.04075 0.82975 0.0
La481 La 1.00811 0.05597 0.71177 0.0
C482 C 0.09136 1.01632 0.93332 0.0
C483 C 0.11296 0.9936 0.90738 0.0
C484 C 0.11983 0.98901 0.8125 0.0
C485 C 0.13507 0.96362 0.78507 0.0
C486 C 0.14325 0.9422 0.85198 0.0
C487 C 0.1388 0.94851 0.94779 0.0
C488 C 0.12368 0.97396 0.9751 0.0
C489 C 0.07457 0.06078 0.66513 0.0
C490 C 0.0277 0.99082 0.69295 0.0
C491 C 0.97339 0.07921 0.59391 0.0
C492 C 0.94995 0.10159 0.59472 0.0
C493 C 0.9451 0.11946 0.67334 0.0
C494 C 0.92372 0.14182 0.67021 0.0
C495 C 0.90679 0.14644 0.58861 0.0
C496 C 0.91084 0.12734 0.51202 0.0
C497 C 0.93225 0.10516 0.51514 0.0
C498 C 0.98673 0.03432 0.87384 0.0
C499 C 0.0316 0.1052 0.85406 0.0
O500 O 0.09525 0.04212 0.89376 0.0
O501 O 0.06371 1.0078 0.92927 0.0
O502 O 0.08338 0.06882 0.7469 0.0
O503 O 0.0529 0.0434 0.67771 0.0
O504 O 0.04087 0.99603 0.77427 0.0
O505 O 1.01701 1.01351 0.64571 0.0
O506 O 0.96759 0.05492 0.6402 0.0
O507 O 1.00035 0.08862 0.60915 0.0
O508 O 0.97638 0.0294 0.79132 0.0
O509 O 1.00846 0.05185 0.86436 0.0
O510 O 1.01907 0.10003 0.77183 0.0
O511 O 0.04354 0.08274 0.89994 0.0
H512 H 0.11169 1.00404 0.75898 0.0
H513 H 0.13832 0.95963 0.71103 0.0
H514 H 0.14432 0.93248 1.00168 0.0
H515 H 0.11854 0.97717 0.04849 0.0
H516 H 0.95828 0.11657 0.73609 0.0
H517 H 0.92105 0.15605 0.73047 0.0
H518 H 0.89865 0.13055 0.44745 0.0
H519 H 0.93557 0.09133 0.45422 0.0
La520 La 0.53365 0.05621 0.79983 0.0
La521 La 0.5153 1.0149 0.66874 0.0
C522 C 0.56467 0.08314 0.91848 0.0
C523 C 0.59717 0.08604 0.91539 0.0
C524 C 0.61116 0.09407 0.83064 0.0
C525 C 0.63952 0.08366 0.81071 0.0
C526 C 0.65396 0.0653 0.87505 0.0
C527 C 0.64209 0.06145 0.96514 0.0
C528 C 0.61383 0.07197 0.98551 0.0
C529 C 0.51508 0.08298 0.64352 0.0
C530 C 0.58095 0.03039 0.65334 0.0
C531 C 0.48948 0.98323 0.54838 0.0
C532 C 0.46647 0.96031 0.55427 0.0
C533 C 0.45292 0.95338 0.64017 0.0
C534 C 0.43056 0.93189 0.6445 0.0
C535 C 0.4215 0.91697 0.56299 0.0
C536 C 0.43611 0.9233 0.47793 0.0
C537 C 0.45839 0.94476 0.47375 0.0
C538 C 0.53374 0.98872 0.82738 0.0
C539 C 0.46677 0.0417 0.81081 0.0
O540 O 0.54988 0.09668 0.85249 0.0
O541 O 0.55543 0.05587 0.92971 0.0
O542 O 0.50824 0.09065 0.72808 0.0
O543 O 0.53076 0.05976 0.64863 0.0
O544 O 0.57654 0.04059 0.73909 0.0
O545 O 0.55791 0.02301 0.60238 0.0
O546 O 0.51445 0.97624 0.58814 0.0
O547 O 0.48139 1.01024 0.56878 0.0
O548 O 0.54004 0.9804 0.74365 0.0
O549 O 0.51779 1.01156 0.81995 0.0
O550 O 0.47206 0.02825 0.73001 0.0
O551 O 0.48909 0.05289 0.8589 0.0
H552 H 0.59906 0.10521 0.77531 0.0
H553 H 0.64893 0.08746 0.74204 0.0
H554 H 0.6531 0.04733 1.01585 0.0
H555 H 0.60361 0.06564 0.05134 0.0
H556 H 0.4593 0.96495 0.70343 0.0
H557 H 0.41985 0.92751 0.71103 0.0
H558 H 0.42934 0.91279 0.4133 0.0
H559 H 0.46887 0.94968 0.40714 0.0
La560 La 0.51198 0.53945 0.79565 0.0
La561 La 0.55752 0.53021 0.67305 0.0
C562 C 0.47493 0.55848 0.91303 0.0
C563 C 0.45206 0.58142 0.90837 0.0
C564 C 0.44661 0.59685 0.82447 0.0
C565 C 0.42595 0.61985 0.82211 0.0
C566 C 0.41042 0.62775 0.90365 0.0
C567 C 0.41521 0.61127 0.98642 0.0
C568 C 0.43584 0.58833 0.98864 0.0
C569 C 0.49154 0.52141 0.62878 0.0
C570 C 0.53352 0.59397 0.66883 0.0
C571 C 0.59442 0.51182 0.55371 0.0
C572 C 0.6188 0.49045 0.55634 0.0
C573 C 0.62649 0.47608 0.64022 0.0
C574 C 0.6479 0.45378 0.64029 0.0
C575 C 0.66178 0.4453 0.55627 0.0
C576 C 0.65523 0.46125 0.47366 0.0
C577 C 0.63391 0.48358 0.47379 0.0
C578 C 0.57831 0.54541 0.84325 0.0
C579 C 0.53492 0.47555 0.79861 0.0
O580 O 0.47038 0.53558 0.85973 0.0
O581 O 0.50228 0.56785 0.90781 0.0
O582 O 0.4833 0.51164 0.70957 0.0
O583 O 0.5117 0.54043 0.64292 0.0
O584 O 0.5219 0.5857 0.75002 0.0
O585 O 0.54549 0.57353 0.61562 0.0
O586 O 0.59821 0.53553 0.60405 0.0
O587 O 0.56785 0.50077 0.56419 0.0
O588 O 0.58749 0.55568 0.76398 0.0
O589 O 0.55721 0.52797 0.82531 0.0
O590 O 0.54699 0.48381 0.71777 0.0
O591 O 0.52347 0.49609 0.85267 0.0
H592 H 0.4588 0.59153 0.76143 0.0
H593 H 0.42274 0.63199 0.75726 0.0
H594 H 0.40419 0.61707 0.0511 0.0
H595 H 0.43974 0.57654 0.05379 0.0
H596 H 0.61523 0.48144 0.70496 0.0
H597 H 0.65266 0.44233 0.7054 0.0
H598 H 0.66509 0.45527 0.40737 0.0
H599 H 0.6284 0.49468 0.4086 0.0
La600 La 1.00565 0.51042 0.89394 0.0
La601 La 1.01678 0.55653 0.77342 0.0
C602 C 0.98571 0.47385 1.01348 0.0
C603 C 0.96448 0.44912 1.01244 0.0
C604 C 0.94993 0.44103 0.92956 0.0
C605 C 0.92823 0.41882 0.93104 0.0
C606 C 0.9206 0.40445 1.0156 0.0
C607 C 0.93649 0.41171 0.09738 0.0
C608 C 0.95821 0.43383 0.09569 0.0
C609 C 0.02464 0.48998 0.72781 0.0
C610 C 0.95342 0.53191 0.75812 0.0
C611 C 0.03694 0.59664 0.66836 0.0
C612 C 0.05812 0.61979 0.6955 0.0
C613 C 0.05992 0.62846 0.7899 0.0
C614 C 0.08581 0.64134 0.82438 0.0
C615 C 0.11041 0.64498 0.76528 0.0
C616 C 0.10657 0.64079 0.66801 0.0
C617 C 0.08065 0.62798 0.63355 0.0
C618 C 0.99827 0.57656 0.9406 0.0
C619 C 0.06971 0.53419 0.90348 0.0
O620 O 1.00986 0.46987 0.96539 0.0
O621 O 0.97473 0.50028 0.99962 0.0
O622 O 0.03241 0.48022 0.80915 0.0
O623 O 1.00682 0.51105 0.74121 0.0
O624 O 0.96019 0.52032 0.84102 0.0
O625 O 0.9749 0.54377 0.70778 0.0
O626 O 1.01114 0.59805 0.70871 0.0
O627 O 0.04758 0.56973 0.67077 0.0
O628 O 0.98856 0.58475 0.85987 0.0
O629 O 1.01647 0.55589 0.92586 0.0
O630 O 0.06283 0.5457 0.82074 0.0
O631 O 0.04815 0.52329 0.95549 0.0
H632 H 0.9548 0.45243 0.86432 0.0
H633 H 0.91672 0.41361 0.86661 0.0
H634 H 0.931 0.40158 0.1641 0.0
H635 H 0.96941 0.43966 0.16019 0.0
H636 H 0.04265 0.62247 0.83919 0.0
H637 H 0.08788 0.64478 0.89917 0.0
H638 H 0.12491 0.64339 0.61983 0.0
H639 H 0.07959 0.62157 0.56057 0.0
C640 C 0.14455 0.07194 0.51753 0.0
C641 C 0.14419 0.04696 0.45889 0.0
H642 H 0.123 0.0958 0.62833 0.0
C643 C 0.11892 0.02844 0.46193 0.0
H644 H 0.16363 0.08652 0.51813 0.0
C645 C 0.09543 0.03394 0.52429 0.0
C646 C 0.0966 0.05793 0.58677 0.0
H647 H 0.11774 1.00901 0.41783 0.0
H648 H 0.07704 1.01848 0.5268 0.0
C649 C 0.12123 0.07718 0.58104 0.0
C650 C 0.50583 0.15516 0.50448 0.0
C651 C 0.53113 0.15537 0.44697 0.0
H652 H 0.48106 0.13231 0.61183 0.0
C653 C 0.54942 0.13009 0.44836 0.0
H654 H 0.49144 0.17429 0.50606 0.0
C655 C 0.54317 0.10578 0.50748 0.0
C656 C 0.51876 0.10623 0.56873 0.0
H657 H 0.56912 0.12947 0.4052 0.0
H658 H 0.55836 0.08726 0.50859 0.0
C659 C 0.49993 0.13108 0.56527 0.0
C660 C 0.42878 0.49609 0.47276 0.0
C661 C 0.41479 0.52299 0.44938 0.0
H662 H 0.46396 0.47465 0.54795 0.0
C663 C 0.43007 0.54953 0.46943 0.0
H664 H 0.41734 0.47528 0.46118 0.0
C665 C 0.45716 0.54917 0.51904 0.0
C666 C 0.46935 0.52224 0.55089 0.0
H667 H 0.41957 0.57065 0.45561 0.0
H668 H 0.46693 0.57003 0.54045 0.0
C669 C 0.45544 0.49574 0.52356 0.0
C670 C 0.02847 0.42026 0.57599 0.0
C671 C 1.01178 0.42858 0.49692 0.0
H672 H 0.04578 0.433 0.71035 0.0
C673 C 1.00304 0.45856 0.48952 0.0
H674 H 0.03538 0.39746 0.58494 0.0
C675 C 1.00854 0.47884 0.56202 0.0
C676 C 0.02329 0.46996 0.64409 0.0
H677 H 0.99045 0.46603 0.42933 0.0
H678 H 1.00006 0.50118 0.55549 0.0
C679 C 0.03418 0.44068 0.64847 0.0
C680 C 0.91642 0.04257 1.01805 0.0
C681 C 0.92133 0.02276 0.09278 0.0
H682 H 0.93326 0.06162 0.89019 0.0
C683 C 0.94988 1.01042 0.10208 0.0
H684 H 0.89459 0.0518 1.00698 0.0
C685 C 0.97216 1.01611 0.0351 0.0
C686 C 0.96633 0.03396 0.95638 0.0
H687 H 0.95425 0.9945 0.15741 0.0
H688 H 0.99318 1.0048 0.04125 0.0
C689 C 0.93852 0.0479 0.9504 0.0
C690 C 0.50436 0.94375 0.03526 0.0
C691 C 0.52322 0.91888 0.03609 0.0
H692 H 0.4932 0.98554 0.97119 0.0
C693 C 0.54739 0.91892 0.974 0.0
H694 H 0.48544 0.94443 0.08177 0.0
C695 C 0.55151 0.9423 0.90926 0.0
C696 C 0.53194 0.96657 0.90597 0.0
H697 H 0.56213 0.90006 0.97171 0.0
H698 H 0.5695 0.94089 0.85937 0.0
C699 C 0.50883 0.96739 0.97188 0.0
C700 C 0.61782 0.51066 0.054 0.0
C701 C 0.6434 0.52849 0.06323 0.0
H702 H 0.57722 0.50222 0.98008 0.0
C703 C 0.64587 0.55355 1.0044 0.0
H704 H 0.61496 0.49125 0.0981 0.0
C705 C 0.62425 0.55967 0.93552 0.0
C706 C 0.59922 0.54122 0.92437 0.0
H707 H 0.66525 0.56767 1.00854 0.0
H708 H 0.62756 0.57844 0.88905 0.0
C709 C 0.59602 0.51703 0.98632 0.0
C710 C 0.99326 0.64959 0.0745 0.0
C711 C 1.01648 0.64696 0.13966 0.0
H712 H 0.96931 0.62956 0.96102 0.0
C713 C 0.03064 0.61921 0.14755 0.0
H714 H 0.98215 0.67064 0.06525 0.0
C715 C 0.02313 0.5955 0.08813 0.0
C716 C 1.00168 0.59897 1.01757 0.0
H717 H 0.04868 0.61632 0.19671 0.0
H718 H 0.03522 0.57494 0.09418 0.0
C719 C 0.98607 0.626 1.01409 0.0
C720 C 0.85122 0.19927 0.48422 0.0
C721 C 0.86623 0.22635 0.49709 0.0
H722 H 0.85223 0.15218 0.50438 0.0
C723 C 0.88949 0.22722 0.56299 0.0
H724 H 0.83253 0.19782 0.43697 0.0
C725 C 0.90058 0.20113 0.60195 0.0
C726 C 0.88866 0.1736 0.57625 0.0
H727 H 0.90176 0.24741 0.57609 0.0
H728 H 0.92061 0.20246 0.64345 0.0
C729 C 0.86251 0.17307 0.52282 0.0
C730 C 0.3634 0.86509 0.47101 0.0
C731 C 0.33794 0.8802 0.50086 0.0
H732 H 0.41078 0.86499 0.46829 0.0
C733 C 0.34057 0.90006 0.57607 0.0
H734 H 0.362 0.84907 0.41489 0.0
C735 C 0.36846 0.90943 0.60591 0.0
C736 C 0.39405 0.89872 0.56189 0.0
H737 H 0.32145 0.91191 0.60191 0.0
H738 H 0.36963 0.9278 0.65433 0.0
C739 C 0.39136 0.87449 0.50078 0.0
C740 C 0.67526 0.36339 0.56739 0.0
C741 C 0.69376 0.35978 0.48916 0.0
H742 H 0.65027 0.39349 0.64947 0.0
C743 C 0.70887 0.3848 0.45379 0.0
H744 H 0.66335 0.34473 0.59719 0.0
C745 C 0.70113 0.41322 0.48378 0.0
C746 C 0.67846 0.41693 0.55028 0.0
H747 H 0.72393 0.38268 0.3952 0.0
H748 H 0.71084 0.43223 0.4486 0.0
C749 C 0.66755 0.3917 0.59733 0.0
C750 C 0.1904 0.63661 0.74359 0.0
C751 C 0.19182 0.60859 0.78662 0.0
H752 H 0.16189 0.67256 0.70703 0.0
C753 C 0.17146 0.60153 0.85732 0.0
H754 H 0.20632 0.64287 0.69022 0.0
C755 C 0.14594 0.61851 0.86684 0.0
C756 C 0.14075 0.64221 0.80427 0.0
H757 H 0.17267 0.58037 0.89316 0.0
H758 H 0.12834 0.60955 0.91009 0.0
C759 C 0.16482 0.65362 0.753 0.0
C760 C 0.15584 0.86276 0.8953 0.0
C761 C 0.13036 0.85261 0.84902 0.0
H762 H 0.18127 0.90118 0.93045 0.0
C763 C 0.12029 0.86852 0.77055 0.0
H764 H 0.16482 0.8504 0.95401 0.0
C765 C 0.12908 0.89799 0.7586 0.0
C766 C 0.1486 0.91098 0.82367 0.0
H767 H 0.10127 0.86063 0.73161 0.0
H768 H 0.11663 0.91145 0.70964 0.0
C769 C 0.16497 0.89213 0.88273 0.0
C770 C 0.72348 1.02103 0.86836 0.0
C771 C 0.71201 0.99341 0.83907 0.0
H772 H 0.71349 0.06603 0.90411 0.0
C773 C 0.68369 0.99246 0.79897 0.0
H774 H 0.74512 0.02264 0.90058 0.0
C775 C 0.66572 1.01753 0.80124 0.0
C776 C 0.67595 0.04384 0.84246 0.0
H777 H 0.67425 0.9716 0.77622 0.0
H778 H 0.64276 1.01538 0.78074 0.0
C779 C 0.70538 0.04599 0.87131 0.0
C780 C 0.39474 0.70932 0.89897 0.0
C781 C 0.37345 0.71113 0.97054 0.0
H782 H 0.42356 0.68111 0.82214 0.0
C783 C 0.35824 0.68521 0.99732 0.0
H784 H 0.40687 0.72884 0.8764 0.0
C785 C 0.36799 0.65757 0.96634 0.0
C786 C 0.39291 0.65556 0.90769 0.0
H787 H 0.34138 0.686 0.05117 0.0
H788 H 0.3579 0.63776 0.99551 0.0
C789 C 0.40452 0.68173 0.86815 0.0
C790 C 0.83976 0.38492 1.00708 0.0
C791 C 0.83754 0.36543 0.08401 0.0
H792 H 0.86788 0.41297 0.92594 0.0
C793 C 0.8636 0.35216 0.11805 0.0
H794 H 0.82029 0.39554 0.97834 0.0
C795 C 0.89131 0.3625 0.0882 0.0
C796 C 0.89331 0.3859 0.0228 0.0
H797 H 0.86263 0.33641 0.17552 0.0
H798 H 0.91098 0.35404 0.12231 0.0
C799 C 0.86736 0.39518 0.97714 0.0
C800 C 1.00682 0.18475 0.90361 0.0
C801 C 1.02075 0.19132 0.98951 0.0
H802 H 0.9995 0.15329 0.79372 0.0
C803 C 0.03996 0.16987 0.02754 0.0
H804 H 0.99182 0.2006 0.87205 0.0
C805 C 0.04403 0.14225 0.98302 0.0
C806 C 0.02933 0.13539 0.89845 0.0
H807 H 0.05078 0.17389 0.09401 0.0
H808 H 0.05825 0.126 1.01605 0.0
C809 C 1.01118 0.15743 0.8586 0.0
C810 C 0.40171 0.04683 0.98443 0.0
C811 C 0.37839 0.03381 0.93353 0.0
H812 H 0.44772 0.05954 0.98657 0.0
C813 C 0.38382 0.02654 0.83903 0.0
H814 H 0.39865 0.05222 0.05762 0.0
C815 C 0.41198 0.03026 0.79863 0.0
C816 C 0.43586 0.04157 0.85095 0.0
H817 H 0.36654 1.01636 0.79744 0.0
H818 H 0.41526 0.02314 0.72705 0.0
C819 C 0.43003 0.05069 0.94371 0.0
C820 C 0.53075 0.40734 0.95964 0.0
C821 C 0.54653 0.38601 0.9086 0.0
H822 H 0.51489 0.4521 0.96577 0.0
C823 C 0.55575 0.39363 0.81699 0.0
H824 H 0.52369 0.40254 0.03064 0.0
C825 C 0.5511 0.4222 0.78005 0.0
C826 C 0.53697 0.44412 0.83332 0.0
H827 H 0.56788 0.37782 0.77519 0.0
H828 H 0.55959 0.42737 0.7109 0.0
C829 C 0.52607 0.43597 0.9226 0.0
C830 C 0.13027 0.55467 0.07722 0.0
C831 C 0.15485 0.53773 0.04833 0.0
H832 H 0.08496 0.56671 0.055 0.0
C833 C 0.1521 0.52224 0.96292 0.0
H834 H 0.13142 0.56773 0.14054 0.0
C835 C 0.12505 0.52227 0.91205 0.0
C836 C 0.10005 0.5376 0.94566 0.0
H837 H 0.17033 0.50901 0.9376 0.0
H838 H 0.12328 0.50914 0.84901 0.0
C839 C 0.10342 0.55427 0.0277 0.0
C840 C 0.04062 0.90782 0.63905 0.0
C841 C 0.0235 0.90389 0.55709 0.0
H842 H 0.05579 0.93804 0.74616 0.0
C843 C 1.00675 0.92826 0.52552 0.0
H844 H 0.05405 0.88979 0.66542 0.0
C845 C 1.00793 0.95576 0.5709 0.0
C846 C 0.02579 0.96024 0.6505 0.0
H847 H 0.99297 0.92627 0.46376 0.0
H848 H 0.99494 0.97377 0.5422 0.0
C849 C 0.04177 0.93563 0.68512 0.0
C850 C 0.6577 0.0468 0.54896 0.0
C851 C 0.66748 1.01825 0.5238 0.0
H852 H 0.62233 0.07314 0.60676 0.0
C853 C 0.64906 0.99399 0.54768 0.0
H854 H 0.67085 0.06609 0.53082 0.0
C855 C 0.62146 0.99809 0.59102 0.0
C856 C 0.6114 0.02654 0.61385 0.0
H857 H 0.65573 0.97161 0.53089 0.0
H858 H 0.60776 0.97889 0.60602 0.0
C859 C 0.6299 0.05087 0.59276 0.0
C860 C 0.53463 0.66232 0.5067 0.0
C861 C 0.51818 0.68308 0.55815 0.0
H862 H 0.55222 0.61813 0.50035 0.0
C863 C 0.50951 0.67507 0.64995 0.0
H864 H 0.54129 0.66738 0.4355 0.0
C865 C 0.51541 0.64673 0.68687 0.0
C866 C 0.53029 0.62531 0.63345 0.0
H867 H 0.49682 0.69038 0.69201 0.0
H868 H 0.50728 0.64129 0.75625 0.0
C869 C 0.54056 0.63386 0.54374 0.0
C870 C 0.8717 0.51061 0.73067 0.0
C871 C 0.86563 0.51786 0.63617 0.0
H872 H 0.90351 0.50902 0.84245 0.0
C873 C 0.88808 0.53234 0.58486 0.0
H874 H 0.85505 0.49961 0.77304 0.0
C875 C 0.91616 0.53777 0.62513 0.0
C876 C 0.92267 0.52891 0.71801 0.0
H877 H 0.88456 0.53791 0.51183 0.0
H878 H 0.93314 0.54795 0.58206 0.0
C879 C 0.89968 0.51593 0.7707 0.0
loop_
_geom_bond_atom_site_label_1
_geom_bond_atom_site_label_2
_geom_bond_distance
_geom_bond_site_symmetry_2
_ccdc_geom_bond_type
C0 C1 1.391 . S
C0 C4 1.391 . S
C0 H42 0.948 . S
C1 C0 1.391 . S
C1 C2 1.391 . S
C2 C1 1.391 . S
C2 H58 0.947 . S
C2 C59 1.392 . S
C3 C4 1.391 . S
C3 C7 1.397 . S
C3 C59 1.419 . S
C4 C0 1.391 . S
C4 C3 1.391 . S
C4 C5 1.399 . S
C5 C4 1.399 . S
C5 C8 1.396 . S
C5 C17 1.453 . S
C5 C18 1.684 . S
H6 C30 0.948 . S
C7 C3 1.397 . S
C7 C8 1.394 . S
C7 C26 1.723 . S
C8 C5 1.396 . S
C8 C7 1.394 . S
C8 C38 1.723 . S
H9 C32 0.947 . S
H10 C33 0.948 . S
H11 C39 0.982 . S
H12 C40 0.979 . S
H13 C40 0.980 . S
H14 C40 0.983 . S
H15 C39 0.979 . S
H16 C39 0.977 . S
C17 C5 1.453 . S
C17 H46 0.982 . S
C17 H47 0.979 . S
C17 H48 0.977 . S
C18 C5 1.684 . S
C18 H43 0.979 . S
C18 H44 0.980 . S
C18 H45 0.983 . S
C19 C20 1.391 . S
C19 C24 1.391 . S
C19 H49 0.948 . S
C20 C19 1.391 . S
C20 C21 1.391 . S
C21 C20 1.391 . S
C21 C22 1.392 . S
C21 H50 0.947 . S
C22 C21 1.392 . S
C22 C23 1.419 . S
C22 H51 0.948 . S
C23 C22 1.419 . S
C23 C24 1.391 . S
C23 C27 1.397 . S
C24 C19 1.391 . S
C24 C23 1.391 . S
C24 C25 1.399 . S
C25 C24 1.399 . S
C25 C26 1.396 . S
C25 C28 1.453 . S
C25 C29 1.684 . S
C26 C7 1.723 . S
C26 C25 1.396 . S
C26 C27 1.394 . S
C27 C23 1.397 . S
C27 C26 1.394 . S
C27 C37 1.723 . S
C28 C25 1.453 . S
C28 H52 0.982 . S
C28 H53 0.979 . S
C28 H54 0.977 . S
C29 C25 1.684 . S
C29 H55 0.979 . S
C29 H56 0.980 . S
C29 H57 0.983 . S
C30 H6 0.948 . S
C30 C31 1.391 . S
C30 C35 1.391 . S
C31 C30 1.391 . S
C31 C32 1.391 . S
C32 H9 0.947 . S
C32 C31 1.391 . S
C32 C33 1.392 . S
C33 H10 0.948 . S
C33 C32 1.392 . S
C33 C34 1.419 . S
C34 C33 1.419 . S
C34 C35 1.391 . S
C34 C38 1.397 . S
C35 C30 1.391 . S
C35 C34 1.391 . S
C35 C36 1.399 . S
C36 C35 1.399 . S
C36 C37 1.396 . S
C36 C39 1.453 . S
C36 C40 1.684 . S
C37 C27 1.723 . S
C37 C36 1.396 . S
C37 C38 1.394 . S
C38 C8 1.723 . S
C38 C34 1.397 . S
C38 C37 1.394 . S
C39 H11 0.982 . S
C39 H15 0.979 . S
C39 H16 0.977 . S
C39 C36 1.453 . S
C40 H12 0.979 . S
C40 H13 0.980 . S
C40 H14 0.983 . S
C40 C36 1.684 . S
H41 C59 0.948 . S
H42 C0 0.948 . S
H43 C18 0.979 . S
H44 C18 0.980 . S
H45 C18 0.983 . S
H46 C17 0.982 . S
H47 C17 0.979 . S
H48 C17 0.977 . S
H49 C19 0.948 . S
H50 C21 0.947 . S
H51 C22 0.948 . S
H52 C28 0.982 . S
H53 C28 0.979 . S
H54 C28 0.977 . S
H55 C29 0.979 . S
H56 C29 0.980 . S
H57 C29 0.983 . S
H58 C2 0.947 . S
C59 C2 1.392 . S
C59 C3 1.419 . S
C59 H41 0.948 . S
C60 C61 1.391 . S
C60 C64 1.391 . S
C60 H102 0.948 . S
C61 C60 1.391 . S
C61 C62 1.391 . S
C62 C61 1.391 . S
C62 H118 0.947 . S
C62 C119 1.392 . S
C63 C64 1.391 . S
C63 C67 1.397 1_655 S
C63 C119 1.419 . S
C64 C60 1.391 . S
C64 C63 1.391 . S
C64 C65 1.399 . S
C65 C64 1.399 . S
C65 C68 1.396 1_655 S
C65 C77 1.453 1_655 S
C65 C78 1.684 . S
H66 C90 0.948 . S
C67 C63 1.397 1_455 S
C67 C68 1.394 . S
C67 C86 1.723 . S
C68 C65 1.396 1_455 S
C68 C67 1.394 . S
C68 C98 1.723 . S
H69 C92 0.947 . S
H70 C93 0.948 . S
H71 C99 0.982 . S
H72 C100 0.979 . S
H73 C100 0.980 . S
H74 C100 0.983 . S
H75 C99 0.979 . S
H76 C99 0.977 . S
C77 C65 1.453 1_455 S
C77 H106 0.982 . S
C77 H107 0.979 . S
C77 H108 0.977 . S
C78 C65 1.684 . S
C78 H103 0.979 . S
C78 H104 0.980 . S
C78 H105 0.983 . S
C79 C80 1.391 . S
C79 C84 1.391 . S
C79 H109 0.948 . S
C80 C79 1.391 . S
C80 C81 1.391 . S
C81 C80 1.391 . S
C81 C82 1.392 . S
C81 H110 0.947 . S
C82 C81 1.392 . S
C82 C83 1.419 . S
C82 H111 0.948 . S
C83 C82 1.419 . S
C83 C84 1.391 . S
C83 C87 1.397 1_655 S
C84 C79 1.391 . S
C84 C83 1.391 . S
C84 C85 1.399 . S
C85 C84 1.399 . S
C85 C86 1.396 1_655 S
C85 C88 1.453 1_655 S
C85 C89 1.684 . S
C86 C67 1.723 . S
C86 C85 1.396 1_455 S
C86 C87 1.394 . S
C87 C83 1.397 1_455 S
C87 C86 1.394 . S
C87 C97 1.723 . S
C88 C85 1.453 1_455 S
C88 H112 0.982 . S
C88 H113 0.979 . S
C88 H114 0.977 . S
C89 C85 1.684 . S
C89 H115 0.979 . S
C89 H116 0.980 . S
C89 H117 0.983 . S
C90 H66 0.948 . S
C90 C91 1.391 . S
C90 C95 1.391 . S
C91 C90 1.391 . S
C91 C92 1.391 . S
C92 H69 0.947 . S
C92 C91 1.391 . S
C92 C93 1.392 . S
C93 H70 0.948 . S
C93 C92 1.392 . S
C93 C94 1.419 . S
C94 C93 1.419 . S
C94 C95 1.391 . S
C94 C98 1.397 1_655 S
C95 C90 1.391 . S
C95 C94 1.391 . S
C95 C96 1.399 . S
C96 C95 1.399 . S
C96 C97 1.396 1_655 S
C96 C99 1.453 1_655 S
C96 C100 1.684 . S
C97 C87 1.723 . S
C97 C96 1.396 1_455 S
C97 C98 1.394 . S
C98 C68 1.723 . S
C98 C94 1.397 1_455 S
C98 C97 1.394 . S
C99 H71 0.982 . S
C99 H75 0.979 . S
C99 H76 0.977 . S
C99 C96 1.453 1_455 S
C100 H72 0.979 . S
C100 H73 0.980 . S
C100 H74 0.983 . S
C100 C96 1.684 . S
H101 C119 0.948 . S
H102 C60 0.948 . S
H103 C78 0.979 . S
H104 C78 0.980 . S
H105 C78 0.983 . S
H106 C77 0.982 . S
H107 C77 0.979 . S
H108 C77 0.977 . S
H109 C79 0.948 . S
H110 C81 0.947 . S
H111 C82 0.948 . S
H112 C88 0.982 . S
H113 C88 0.979 . S
H114 C88 0.977 . S
H115 C89 0.979 . S
H116 C89 0.980 . S
H117 C89 0.983 . S
H118 C62 0.947 . S
C119 C62 1.392 . S
C119 C63 1.419 . S
C119 H101 0.948 . S
C120 C121 1.391 . S
C120 C124 1.391 . S
C120 H162 0.948 . S
C121 C120 1.391 . S
C121 C122 1.391 . S
C122 C121 1.391 . S
C122 H178 0.947 . S
C122 C179 1.392 . S
C123 C124 1.391 . S
C123 C127 1.397 1_565 S
C123 C179 1.419 . S
C124 C120 1.391 . S
C124 C123 1.391 . S
C124 C125 1.399 . S
C125 C124 1.399 . S
C125 C128 1.396 1_565 S
C125 C137 1.453 1_565 S
C125 C138 1.684 . S
H126 C150 0.948 . S
C127 C123 1.397 1_545 S
C127 C128 1.394 . S
C127 C146 1.723 . S
C128 C125 1.396 1_545 S
C128 C127 1.394 . S
C128 C158 1.723 . S
H129 C152 0.947 . S
H130 C153 0.948 . S
H131 C159 0.982 . S
H132 C160 0.979 . S
H133 C160 0.980 . S
H134 C160 0.983 . S
H135 C159 0.979 . S
H136 C159 0.977 . S
C137 C125 1.453 1_545 S
C137 H166 0.982 . S
C137 H167 0.979 . S
C137 H168 0.977 . S
C138 C125 1.684 . S
C138 H163 0.979 . S
C138 H164 0.980 . S
C138 H165 0.983 . S
C139 C140 1.391 . S
C139 C144 1.391 . S
C139 H169 0.948 . S
C140 C139 1.391 . S
C140 C141 1.391 . S
C141 C140 1.391 . S
C141 C142 1.392 . S
C141 H170 0.947 . S
C142 C141 1.392 . S
C142 C143 1.419 . S
C142 H171 0.948 . S
C143 C142 1.419 . S
C143 C144 1.391 . S
C143 C147 1.397 1_565 S
C144 C139 1.391 . S
C144 C143 1.391 . S
C144 C145 1.399 . S
C145 C144 1.399 . S
C145 C146 1.396 1_565 S
C145 C148 1.453 1_565 S
C145 C149 1.684 . S
C146 C127 1.723 . S
C146 C145 1.396 1_545 S
C146 C147 1.394 . S
C147 C143 1.397 1_545 S
C147 C146 1.394 . S
C147 C157 1.723 . S
C148 C145 1.453 1_545 S
C148 H172 0.982 . S
C148 H173 0.979 . S
C148 H174 0.977 . S
C149 C145 1.684 . S
C149 H175 0.979 . S
C149 H176 0.980 . S
C149 H177 0.983 . S
C150 H126 0.948 . S
C150 C151 1.391 . S
C150 C155 1.391 . S
C151 C150 1.391 . S
C151 C152 1.391 . S
C152 H129 0.947 . S
C152 C151 1.391 . S
C152 C153 1.392 . S
C153 H130 0.948 . S
C153 C152 1.392 . S
C153 C154 1.419 . S
C154 C153 1.419 . S
C154 C155 1.391 . S
C154 C158 1.397 1_565 S
C155 C150 1.391 . S
C155 C154 1.391 . S
C155 C156 1.399 . S
C156 C155 1.399 . S
C156 C157 1.396 1_565 S
C156 C159 1.453 1_565 S
C156 C160 1.684 . S
C157 C147 1.723 . S
C157 C156 1.396 1_545 S
C157 C158 1.394 . S
C158 C128 1.723 . S
C158 C154 1.397 1_545 S
C158 C157 1.394 . S
C159 H131 0.982 . S
C159 H135 0.979 . S
C159 H136 0.977 . S
C159 C156 1.453 1_545 S
C160 H132 0.979 . S
C160 H133 0.980 . S
C160 H134 0.983 . S
C160 C156 1.684 . S
H161 C179 0.948 . S
H162 C120 0.948 . S
H163 C138 0.979 . S
H164 C138 0.980 . S
H165 C138 0.983 . S
H166 C137 0.982 . S
H167 C137 0.979 . S
H168 C137 0.977 . S
H169 C139 0.948 . S
H170 C141 0.947 . S
H171 C142 0.948 . S
H172 C148 0.982 . S
H173 C148 0.979 . S
H174 C148 0.977 . S
H175 C149 0.979 . S
H176 C149 0.980 . S
H177 C149 0.983 . S
H178 C122 0.947 . S
C179 C122 1.392 . S
C179 C123 1.419 . S
C179 H161 0.948 . S
C180 C181 1.391 . S
C180 C184 1.391 . S
C180 H222 0.948 . S
C181 C180 1.391 . S
C181 C182 1.391 . S
C182 C181 1.391 . S
C182 H238 0.947 . S
C182 C239 1.392 . S
C183 C184 1.391 . S
C183 C187 1.397 . S
C183 C239 1.419 . S
C184 C180 1.391 . S
C184 C183 1.391 . S
C184 C185 1.399 . S
C185 C184 1.399 . S
C185 C188 1.396 . S
C185 C197 1.453 . S
C185 C198 1.684 . S
H186 C210 0.948 . S
C187 C183 1.397 . S
C187 C188 1.394 . S
C187 C206 1.723 . S
C188 C185 1.396 . S
C188 C187 1.394 . S
C188 C218 1.723 . S
H189 C212 0.947 . S
H190 C213 0.948 . S
H191 C219 0.982 . S
H192 C220 0.979 . S
H193 C220 0.980 . S
H194 C220 0.983 . S
H195 C219 0.979 . S
H196 C219 0.977 . S
C197 C185 1.453 . S
C197 H226 0.982 . S
C197 H227 0.979 . S
C197 H228 0.977 . S
C198 C185 1.684 . S
C198 H223 0.979 . S
C198 H224 0.980 . S
C198 H225 0.983 . S
C199 C200 1.391 . S
C199 C204 1.391 . S
C199 H229 0.948 . S
C200 C199 1.391 . S
C200 C201 1.391 . S
C201 C200 1.391 . S
C201 C202 1.392 . S
C201 H230 0.947 . S
C202 C201 1.392 . S
C202 C203 1.419 . S
C202 H231 0.948 . S
C203 C202 1.419 . S
C203 C204 1.391 . S
C203 C207 1.397 . S
C204 C199 1.391 . S
C204 C203 1.391 . S
C204 C205 1.399 . S
C205 C204 1.399 . S
C205 C206 1.396 . S
C205 C208 1.453 . S
C205 C209 1.684 . S
C206 C187 1.723 . S
C206 C205 1.396 . S
C206 C207 1.394 . S
C207 C203 1.397 . S
C207 C206 1.394 . S
C207 C217 1.723 . S
C208 C205 1.453 . S
C208 H232 0.982 . S
C208 H233 0.979 . S
C208 H234 0.977 . S
C209 C205 1.684 . S
C209 H235 0.979 . S
C209 H236 0.980 . S
C209 H237 0.983 . S
C210 H186 0.948 . S
C210 C211 1.391 . S
C210 C215 1.391 . S
C211 C210 1.391 . S
C211 C212 1.391 . S
C212 H189 0.947 . S
C212 C211 1.391 . S
C212 C213 1.392 . S
C213 H190 0.948 . S
C213 C212 1.392 . S
C213 C214 1.419 . S
C214 C213 1.419 . S
C214 C215 1.391 . S
C214 C218 1.397 . S
C215 C210 1.391 . S
C215 C214 1.391 . S
C215 C216 1.399 . S
C216 C215 1.399 . S
C216 C217 1.396 . S
C216 C219 1.453 . S
C216 C220 1.684 . S
C217 C207 1.723 . S
C217 C216 1.396 . S
C217 C218 1.394 . S
C218 C188 1.723 . S
C218 C214 1.397 . S
C218 C217 1.394 . S
C219 H191 0.982 . S
C219 H195 0.979 . S
C219 H196 0.977 . S
C219 C216 1.453 . S
C220 H192 0.979 . S
C220 H193 0.980 . S
C220 H194 0.983 . S
C220 C216 1.684 . S
H221 C239 0.948 . S
H222 C180 0.948 . S
H223 C198 0.979 . S
H224 C198 0.980 . S
H225 C198 0.983 . S
H226 C197 0.982 . S
H227 C197 0.979 . S
H228 C197 0.977 . S
H229 C199 0.948 . S
H230 C201 0.947 . S
H231 C202 0.948 . S
H232 C208 0.982 . S
H233 C208 0.979 . S
H234 C208 0.977 . S
H235 C209 0.979 . S
H236 C209 0.980 . S
H237 C209 0.983 . S
H238 C182 0.947 . S
C239 C182 1.392 . S
C239 C183 1.419 . S
C239 H221 0.948 . S
C240 C241 1.391 . S
C240 C244 1.391 . S
C240 H282 0.948 . S
C241 C240 1.391 . S
C241 C242 1.391 . S
C242 C241 1.391 . S
C242 H298 0.947 . S
C242 C299 1.392 . S
C243 C244 1.391 . S
C243 C247 1.397 . S
C243 C299 1.419 . S
C244 C240 1.391 . S
C244 C243 1.391 . S
C244 C245 1.399 1_554 S
C245 C244 1.399 1_556 S
C245 C248 1.396 . S
C245 C257 1.453 . S
C245 C258 1.684 . S
H246 C270 0.948 . S
C247 C243 1.397 . S
C247 C248 1.394 1_554 S
C247 C266 1.723 . S
C248 C245 1.396 . S
C248 C247 1.394 1_556 S
C248 C278 1.723 . S
H249 C272 0.947 . S
H250 C273 0.948 . S
H251 C279 0.982 . S
H252 C280 0.979 . S
H253 C280 0.980 1_554 S
H254 C280 0.983 . S
H255 C279 0.979 . S
H256 C279 0.977 1_554 S
C257 C245 1.453 . S
C257 H286 0.982 . S
C257 H287 0.979 . S
C257 H288 0.977 . S
C258 C245 1.684 . S
C258 H283 0.979 . S
C258 H284 0.980 . S
C258 H285 0.983 . S
C259 C260 1.391 . S
C259 C264 1.391 . S
C259 H289 0.948 . S
C260 C259 1.391 . S
C260 C261 1.391 . S
C261 C260 1.391 . S
C261 C262 1.392 . S
C261 H290 0.947 . S
C262 C261 1.392 . S
C262 C263 1.419 . S
C262 H291 0.948 . S
C263 C262 1.419 . S
C263 C264 1.391 . S
C263 C267 1.397 . S
C264 C259 1.391 . S
C264 C263 1.391 . S
C264 C265 1.399 . S
C265 C264 1.399 . S
C265 C266 1.396 . S
C265 C268 1.453 . S
C265 C269 1.684 . S
C266 C247 1.723 . S
C266 C265 1.396 . S
C266 C267 1.394 . S
C267 C263 1.397 . S
C267 C266 1.394 . S
C267 C277 1.723 1_554 S
C268 C265 1.453 . S
C268 H292 0.982 . S
C268 H293 0.979 . S
C268 H294 0.977 . S
C269 C265 1.684 . S
C269 H295 0.979 . S
C269 H296 0.980 . S
C269 H297 0.983 . S
C270 H246 0.948 . S
C270 C271 1.391 . S
C270 C275 1.391 . S
C271 C270 1.391 . S
C271 C272 1.391 . S
C272 H249 0.947 . S
C272 C271 1.391 . S
C272 C273 1.392 . S
C273 H250 0.948 . S
C273 C272 1.392 . S
C273 C274 1.419 . S
C274 C273 1.419 . S
C274 C275 1.391 . S
C274 C278 1.397 . S
C275 C270 1.391 . S
C275 C274 1.391 . S
C275 C276 1.399 . S
C276 C275 1.399 . S
C276 C277 1.396 . S
C276 C279 1.453 . S
C276 C280 1.684 . S
C277 C267 1.723 1_556 S
C277 C276 1.396 . S
C277 C278 1.394 . S
C278 C248 1.723 . S
C278 C274 1.397 . S
C278 C277 1.394 . S
C279 H251 0.982 . S
C279 H255 0.979 . S
C279 H256 0.977 1_556 S
C279 C276 1.453 . S
C280 H252 0.979 . S
C280 H253 0.980 1_556 S
C280 H254 0.983 . S
C280 C276 1.684 . S
H281 C299 0.948 . S
H282 C240 0.948 . S
H283 C258 0.979 . S
H284 C258 0.980 . S
H285 C258 0.983 . S
H286 C257 0.982 . S
H287 C257 0.979 . S
H288 C257 0.977 . S
H289 C259 0.948 . S
H290 C261 0.947 . S
H291 C262 0.948 . S
H292 C268 0.982 . S
H293 C268 0.979 . S
H294 C268 0.977 . S
H295 C269 0.979 . S
H296 C269 0.980 . S
H297 C269 0.983 . S
H298 C242 0.947 . S
C299 C242 1.392 . S
C299 C243 1.419 . S
C299 H281 0.948 . S
C300 C301 1.391 . S
C300 C304 1.391 . S
C300 H342 0.948 . S
C301 C300 1.391 . S
C301 C302 1.391 . S
C302 C301 1.391 . S
C302 H358 0.947 . S
C302 C359 1.392 . S
C303 C304 1.391 . S
C303 C307 1.396 1_655 S
C303 C359 1.419 . S
C304 C300 1.391 . S
C304 C303 1.391 . S
C304 C305 1.399 . S
C305 C304 1.399 . S
C305 C308 1.396 1_655 S
C305 C317 1.453 1_655 S
C305 C318 1.684 . S
H306 C330 0.948 . S
C307 C303 1.396 1_455 S
C307 C308 1.395 . S
C307 C326 1.723 . S
C308 C305 1.396 1_455 S
C308 C307 1.395 . S
C308 C338 1.723 . S
H309 C332 0.947 . S
H310 C333 0.948 . S
H311 C339 0.982 . S
H312 C340 0.979 . S
H313 C340 0.980 . S
H314 C340 0.983 . S
H315 C339 0.979 . S
H316 C339 0.977 . S
C317 C305 1.453 1_455 S
C317 H346 0.982 . S
C317 H347 0.979 . S
C317 H348 0.977 . S
C318 C305 1.684 . S
C318 H343 0.979 . S
C318 H344 0.980 . S
C318 H345 0.983 . S
C319 C320 1.391 . S
C319 C324 1.391 . S
C319 H349 0.948 . S
C320 C319 1.391 . S
C320 C321 1.391 . S
C321 C320 1.391 . S
C321 C322 1.392 . S
C321 H350 0.947 . S
C322 C321 1.392 . S
C322 C323 1.419 . S
C322 H351 0.948 . S
C323 C322 1.419 . S
C323 C324 1.391 . S
C323 C327 1.396 1_655 S
C324 C319 1.391 . S
C324 C323 1.391 . S
C324 C325 1.399 . S
C325 C324 1.399 . S
C325 C326 1.396 1_656 S
C325 C328 1.453 1_655 S
C325 C329 1.684 . S
C326 C307 1.723 . S
C326 C325 1.396 1_454 S
C326 C327 1.395 1_554 S
C327 C323 1.396 1_455 S
C327 C326 1.395 1_556 S
C327 C337 1.723 . S
C328 C325 1.453 1_455 S
C328 H352 0.982 . S
C328 H353 0.979 . S
C328 H354 0.977 1_556 S
C329 C325 1.684 . S
C329 H355 0.979 . S
C329 H356 0.980 1_556 S
C329 H357 0.983 . S
C330 H306 0.948 . S
C330 C331 1.391 . S
C330 C335 1.391 . S
C331 C330 1.391 . S
C331 C332 1.391 . S
C332 H309 0.947 . S
C332 C331 1.391 . S
C332 C333 1.392 . S
C333 H310 0.948 . S
C333 C332 1.392 . S
C333 C334 1.419 . S
C334 C333 1.419 . S
C334 C335 1.391 . S
C334 C338 1.396 1_655 S
C335 C330 1.391 . S
C335 C334 1.391 . S
C335 C336 1.399 1_554 S
C336 C335 1.399 1_556 S
C336 C337 1.396 1_655 S
C336 C339 1.453 1_655 S
C336 C340 1.684 . S
C337 C327 1.723 . S
C337 C336 1.396 1_455 S
C337 C338 1.395 1_556 S
C338 C308 1.723 . S
C338 C334 1.396 1_455 S
C338 C337 1.395 1_554 S
C339 H311 0.982 . S
C339 H315 0.979 . S
C339 H316 0.977 . S
C339 C336 1.453 1_455 S
C340 H312 0.979 . S
C340 H313 0.980 . S
C340 H314 0.983 . S
C340 C336 1.684 . S
H341 C359 0.948 . S
H342 C300 0.948 . S
H343 C318 0.979 . S
H344 C318 0.980 . S
H345 C318 0.983 . S
H346 C317 0.982 . S
H347 C317 0.979 . S
H348 C317 0.977 . S
H349 C319 0.948 . S
H350 C321 0.947 . S
H351 C322 0.948 . S
H352 C328 0.982 . S
H353 C328 0.979 . S
H354 C328 0.977 1_554 S
H355 C329 0.979 . S
H356 C329 0.980 1_554 S
H357 C329 0.983 . S
H358 C302 0.947 . S
C359 C302 1.392 . S
C359 C303 1.419 . S
C359 H341 0.948 . S
C360 C361 1.391 . S
C360 C364 1.391 . S
C360 H402 0.948 . S
C361 C360 1.391 . S
C361 C362 1.391 . S
C362 C361 1.391 . S
C362 H418 0.947 . S
C362 C419 1.392 . S
C363 C364 1.391 . S
C363 C367 1.397 1_545 S
C363 C419 1.419 . S
C364 C360 1.391 . S
C364 C363 1.391 . S
C364 C365 1.399 . S
C365 C364 1.399 . S
C365 C368 1.396 1_545 S
C365 C377 1.453 1_545 S
C365 C378 1.684 . S
H366 C390 0.948 . S
C367 C363 1.397 1_565 S
C367 C368 1.394 . S
C367 C386 1.723 1_556 S
C368 C365 1.396 1_565 S
C368 C367 1.394 . S
C368 C398 1.723 1_556 S
H369 C392 0.947 1_556 S
H370 C393 0.939 1_556 S
H371 C399 0.982 . S
H372 C400 0.979 . S
H373 C400 0.980 . S
H374 C400 0.983 . S
H375 C399 0.979 . S
H376 C399 0.977 . S
C377 C365 1.453 1_565 S
C377 H406 0.982 . S
C377 H407 0.979 . S
C377 H408 0.977 . S
C378 C365 1.684 . S
C378 H403 0.979 . S
C378 H404 0.980 . S
C378 H405 0.983 . S
C379 C380 1.391 . S
C379 C384 1.391 . S
C379 H409 0.948 . S
C380 C379 1.391 . S
C380 C381 1.391 . S
C381 C380 1.391 . S
C381 C382 1.392 . S
C381 H410 0.947 . S
C382 C381 1.392 . S
C382 C383 1.419 . S
C382 H411 0.948 . S
C383 C382 1.419 . S
C383 C384 1.391 . S
C383 C387 1.397 1_545 S
C384 C379 1.391 . S
C384 C383 1.391 . S
C384 C385 1.399 . S
C385 C384 1.399 . S
C385 C386 1.396 1_545 S
C385 C388 1.453 1_545 S
C385 C389 1.684 . S
C386 C367 1.723 1_554 S
C386 C385 1.396 1_565 S
C386 C387 1.394 . S
C387 C383 1.397 1_565 S
C387 C386 1.394 . S
C387 C397 1.723 . S
C388 C385 1.453 1_565 S
C388 H412 0.982 . S
C388 H413 0.979 . S
C388 H414 0.977 1_554 S
C389 C385 1.684 . S
C389 H415 0.979 . S
C389 H416 0.980 1_554 S
C389 H417 0.983 . S
C390 H366 0.948 . S
C390 C391 1.391 . S
C390 C395 1.391 . S
C391 C390 1.391 . S
C391 C392 1.391 . S
C392 H369 0.947 1_554 S
C392 C391 1.391 . S
C392 C393 1.395 . S
C393 H370 0.939 1_554 S
C393 C392 1.395 . S
C393 C394 1.425 . S
C394 C393 1.425 . S
C394 C395 1.391 . S
C394 C398 1.397 1_545 S
C395 C390 1.391 . S
C395 C394 1.391 . S
C395 C396 1.399 . S
C396 C395 1.399 . S
C396 C397 1.396 1_545 S
C396 C399 1.453 1_545 S
C396 C400 1.684 . S
C397 C387 1.723 . S
C397 C396 1.396 1_565 S
C397 C398 1.394 . S
C398 C368 1.723 1_554 S
C398 C394 1.397 1_565 S
C398 C397 1.394 . S
C399 H371 0.982 . S
C399 H375 0.979 . S
C399 H376 0.977 . S
C399 C396 1.453 1_565 S
C400 H372 0.979 . S
C400 H373 0.980 . S
C400 H374 0.983 . S
C400 C396 1.684 . S
H401 C419 0.948 . S
H402 C360 0.948 . S
H403 C378 0.979 . S
H404 C378 0.980 . S
H405 C378 0.983 . S
H406 C377 0.982 . S
H407 C377 0.979 . S
H408 C377 0.977 . S
H409 C379 0.948 . S
H410 C381 0.947 . S
H411 C382 0.948 . S
H412 C388 0.982 . S
H413 C388 0.979 . S
H414 C388 0.977 1_556 S
H415 C389 0.979 . S
H416 C389 0.980 1_556 S
H417 C389 0.983 . S
H418 C362 0.947 . S
C419 C362 1.392 . S
C419 C363 1.419 . S
C419 H401 0.948 . S
C420 C421 1.391 . S
C420 C424 1.391 . S
C420 H462 0.948 . S
C421 C420 1.391 . S
C421 C422 1.391 . S
C422 C421 1.391 . S
C422 H478 0.947 . S
C422 C479 1.392 . S
C423 C424 1.391 . S
C423 C427 1.397 . S
C423 C479 1.419 . S
C424 C420 1.391 . S
C424 C423 1.391 . S
C424 C425 1.399 . S
C425 C424 1.399 . S
C425 C428 1.396 . S
C425 C437 1.453 . S
C425 C438 1.684 . S
H426 C450 0.948 . S
C427 C423 1.397 . S
C427 C428 1.394 . S
C427 C446 1.723 1_556 S
C428 C425 1.396 . S
C428 C427 1.394 . S
C428 C458 1.723 1_556 S
H429 C452 0.947 1_556 S
H430 C453 0.948 . S
H431 C459 0.982 . S
H432 C460 0.979 . S
H433 C460 0.980 . S
H434 C460 0.983 . S
H435 C459 0.979 . S
H436 C459 0.977 . S
C437 C425 1.453 . S
C437 H466 0.982 . S
C437 H467 0.979 . S
C437 H468 0.977 . S
C438 C425 1.684 . S
C438 H463 0.979 . S
C438 H464 0.980 . S
C438 H465 0.983 . S
C439 C440 1.391 . S
C439 C444 1.391 . S
C439 H469 0.948 . S
C440 C439 1.391 . S
C440 C441 1.391 . S
C441 C440 1.391 . S
C441 C442 1.392 . S
C441 H470 0.947 . S
C442 C441 1.392 . S
C442 C443 1.419 . S
C442 H471 0.948 . S
C443 C442 1.419 . S
C443 C444 1.391 . S
C443 C447 1.397 . S
C444 C439 1.391 . S
C444 C443 1.391 . S
C444 C445 1.399 . S
C445 C444 1.399 . S
C445 C446 1.396 . S
C445 C448 1.453 . S
C445 C449 1.684 . S
C446 C427 1.723 1_554 S
C446 C445 1.396 . S
C446 C447 1.394 . S
C447 C443 1.397 . S
C447 C446 1.394 . S
C447 C457 1.723 . S
C448 C445 1.453 . S
C448 H472 0.982 . S
C448 H473 0.979 . S
C448 H474 0.977 1_554 S
C449 C445 1.684 . S
C449 H475 0.979 . S
C449 H476 0.980 1_554 S
C449 H477 0.983 . S
C450 H426 0.948 . S
C450 C451 1.391 . S
C450 C455 1.391 . S
C451 C450 1.391 . S
C451 C452 1.391 . S
C452 H429 0.947 1_554 S
C452 C451 1.391 . S
C452 C453 1.392 1_554 S
C453 H430 0.948 . S
C453 C452 1.392 1_556 S
C453 C454 1.419 1_556 S
C454 C453 1.419 1_554 S
C454 C455 1.391 . S
C454 C458 1.397 . S
C455 C450 1.391 . S
C455 C454 1.391 . S
C455 C456 1.399 . S
C456 C455 1.399 . S
C456 C457 1.396 . S
C456 C459 1.453 . S
C456 C460 1.684 . S
C457 C447 1.723 . S
C457 C456 1.396 . S
C457 C458 1.394 . S
C458 C428 1.723 1_554 S
C458 C454 1.397 . S
C458 C457 1.394 . S
C459 H431 0.982 . S
C459 H435 0.979 . S
C459 H436 0.977 . S
C459 C456 1.453 . S
C460 H432 0.979 . S
C460 H433 0.980 . S
C460 H434 0.983 . S
C460 C456 1.684 . S
H461 C479 0.948 . S
H462 C420 0.948 . S
H463 C438 0.979 . S
H464 C438 0.980 . S
H465 C438 0.983 . S
H466 C437 0.982 . S
H467 C437 0.979 . S
H468 C437 0.977 . S
H469 C439 0.948 . S
H470 C441 0.947 . S
H471 C442 0.948 . S
H472 C448 0.982 . S
H473 C448 0.979 . S
H474 C448 0.977 1_556 S
H475 C449 0.979 . S
H476 C449 0.980 1_556 S
H477 C449 0.983 . S
H478 C422 0.947 . S
C479 C422 1.392 . S
C479 C423 1.419 . S
C479 H461 0.948 . S
La480 C482 2.928 . S
La480 O500 2.521 . S
La480 O501 2.628 . S
La480 O502 2.554 . S
La480 O503 2.757 1_565 S
La480 O504 2.470 . S
La480 O509 2.482 1_455 S
La480 O511 2.503 1_565 S
La481 C491 2.928 . S
La481 O503 2.482 1_655 S
La481 O505 2.503 1_545 S
La481 O506 2.521 . S
La481 O507 2.628 . S
La481 O508 2.554 . S
La481 O509 2.757 1_545 S
La481 O510 2.470 . S
C482 La480 2.928 . S
C482 C483 1.503 . S
C482 O500 1.261 . S
C482 O501 1.243 . S
C483 C482 1.503 . S
C483 C484 1.394 . S
C483 C488 1.373 1_556 S
C484 C483 1.394 . S
C484 C485 1.380 1_556 S
C484 H512 0.930 . S
C485 C484 1.380 1_554 S
C485 C486 1.376 . S
C485 H513 0.930 . S
C486 C485 1.376 . S
C486 C487 1.370 . S
C487 C486 1.370 . S
C487 C488 1.396 . S
C487 H514 0.929 . S
C488 C483 1.373 1_554 S
C488 C487 1.396 . S
C488 H515 0.929 1_455 S
C489 O502 1.240 . S
C489 O503 1.289 1_565 S
C490 O504 1.258 1_655 S
C490 O505 1.256 . S
C491 La481 2.928 . S
C491 C492 1.503 . S
C491 O506 1.261 . S
C491 O507 1.243 . S
C492 C491 1.503 . S
C492 C493 1.394 . S
C492 C497 1.373 . S
C493 C492 1.394 . S
C493 C494 1.380 . S
C493 H516 0.930 . S
C494 C493 1.380 . S
C494 C495 1.376 . S
C494 H517 0.930 . S
C495 C494 1.376 . S
C495 C496 1.370 . S
C496 C495 1.370 . S
C496 C497 1.396 . S
C496 H518 0.929 . S
C497 C492 1.373 . S
C497 C496 1.396 . S
C497 H519 0.929 1_655 S
C498 O508 1.240 . S
C498 O509 1.289 1_545 S
C499 O510 1.258 1_455 S
C499 O511 1.256 . S
O500 La480 2.521 . S
O500 C482 1.261 . S
O501 La480 2.628 . S
O501 C482 1.243 . S
O502 La480 2.554 . S
O502 C489 1.240 . S
O503 La480 2.757 1_545 S
O503 La481 2.482 1_455 S
O503 C489 1.289 1_545 S
O504 La480 2.470 . S
O504 C490 1.258 1_455 S
O505 La481 2.503 1_565 S
O505 C490 1.256 . S
O506 La481 2.521 . S
O506 C491 1.261 . S
O507 La481 2.628 . S
O507 C491 1.243 . S
O508 La481 2.554 . S
O508 C498 1.240 . S
O509 La480 2.482 1_655 S
O509 La481 2.757 1_565 S
O509 C498 1.289 1_565 S
O510 La481 2.470 . S
O510 C499 1.258 1_655 S
O511 La480 2.503 1_545 S
O511 C499 1.256 . S
H512 C484 0.930 . S
H513 C485 0.930 . S
H514 C487 0.929 . S
H515 C488 0.929 1_655 S
H516 C493 0.930 . S
H517 C494 0.930 . S
H518 C496 0.929 . S
H519 C497 0.929 1_455 S
La520 C522 2.928 . S
La520 O540 2.521 . S
La520 O541 2.628 . S
La520 O542 2.554 . S
La520 O543 2.757 . S
La520 O544 2.470 . S
La520 O549 2.482 1_545 S
La520 O551 2.503 . S
La521 C531 2.928 . S
La521 O543 2.482 1_565 S
La521 O545 2.503 . S
La521 O546 2.521 . S
La521 O547 2.628 . S
La521 O548 2.554 . S
La521 O549 2.757 . S
La521 O550 2.470 . S
C522 La520 2.928 . S
C522 C523 1.503 . S
C522 O540 1.261 . S
C522 O541 1.243 . S
C523 C522 1.503 . S
C523 C524 1.394 . S
C523 C528 1.373 1_556 S
C524 C523 1.394 . S
C524 C525 1.380 1_556 S
C524 H552 0.930 . S
C525 C524 1.380 1_554 S
C525 C526 1.376 . S
C525 H553 0.930 . S
C526 C525 1.376 . S
C526 C527 1.370 . S
C527 C526 1.370 . S
C527 C528 1.396 . S
C527 H554 0.929 . S
C528 C523 1.373 1_554 S
C528 C527 1.396 . S
C528 H555 0.929 1_545 S
C529 O542 1.240 . S
C529 O543 1.289 . S
C530 O544 1.258 1_565 S
C530 O545 1.256 . S
C531 La521 2.928 . S
C531 C532 1.503 . S
C531 O546 1.261 . S
C531 O547 1.243 . S
C532 C531 1.503 . S
C532 C533 1.394 . S
C532 C537 1.373 . S
C533 C532 1.394 . S
C533 C534 1.380 . S
C533 H556 0.930 . S
C534 C533 1.380 . S
C534 C535 1.376 . S
C534 H557 0.930 . S
C535 C534 1.376 . S
C535 C536 1.370 . S
C536 C535 1.370 . S
C536 C537 1.396 . S
C536 H558 0.929 . S
C537 C532 1.373 . S
C537 C536 1.396 . S
C537 H559 0.929 1_565 S
C538 O548 1.240 . S
C538 O549 1.289 . S
C539 O550 1.258 1_545 S
C539 O551 1.256 . S
O540 La520 2.521 . S
O540 C522 1.261 . S
O541 La520 2.628 . S
O541 C522 1.243 . S
O542 La520 2.554 . S
O542 C529 1.240 . S
O543 La520 2.757 . S
O543 La521 2.482 1_545 S
O543 C529 1.289 . S
O544 La520 2.470 . S
O544 C530 1.258 1_545 S
O545 La521 2.503 . S
O545 C530 1.256 . S
O546 La521 2.521 . S
O546 C531 1.261 . S
O547 La521 2.628 . S
O547 C531 1.243 . S
O548 La521 2.554 . S
O548 C538 1.240 . S
O549 La520 2.482 1_565 S
O549 La521 2.757 . S
O549 C538 1.289 . S
O550 La521 2.470 . S
O550 C539 1.258 1_565 S
O551 La520 2.503 . S
O551 C539 1.256 . S
H552 C524 0.930 . S
H553 C525 0.930 . S
H554 C527 0.929 . S
H555 C528 0.929 1_565 S
H556 C533 0.930 . S
H557 C534 0.930 . S
H558 C536 0.929 . S
H559 C537 0.929 1_545 S
La560 C562 2.928 . S
La560 O580 2.521 . S
La560 O581 2.628 . S
La560 O582 2.554 . S
La560 O583 2.757 . S
La560 O584 2.470 . S
La560 O589 2.482 . S
La560 O591 2.503 . S
La561 C571 2.928 . S
La561 O583 2.482 . S
La561 O585 2.503 . S
La561 O586 2.521 . S
La561 O587 2.628 . S
La561 O588 2.554 . S
La561 O589 2.757 . S
La561 O590 2.470 . S
C562 La560 2.928 . S
C562 C563 1.503 . S
C562 O580 1.261 . S
C562 O581 1.243 . S
C563 C562 1.503 . S
C563 C564 1.394 . S
C563 C568 1.373 1_556 S
C564 C563 1.394 . S
C564 C565 1.380 1_556 S
C564 H592 0.930 . S
C565 C564 1.380 1_554 S
C565 C566 1.376 . S
C565 H593 0.930 . S
C566 C565 1.376 . S
C566 C567 1.370 . S
C567 C566 1.370 . S
C567 C568 1.396 . S
C567 H594 0.929 . S
C568 C563 1.373 1_554 S
C568 C567 1.396 . S
C568 H595 0.929 . S
C569 O582 1.240 . S
C569 O583 1.289 . S
C570 O584 1.258 . S
C570 O585 1.256 . S
C571 La561 2.928 . S
C571 C572 1.503 . S
C571 O586 1.261 . S
C571 O587 1.243 . S
C572 C571 1.503 . S
C572 C573 1.394 . S
C572 C577 1.373 . S
C573 C572 1.394 . S
C573 C574 1.380 . S
C573 H596 0.930 . S
C574 C573 1.380 . S
C574 C575 1.376 . S
C574 H597 0.930 . S
C575 C574 1.376 . S
C575 C576 1.370 . S
C576 C575 1.370 . S
C576 C577 1.396 . S
C576 H598 0.929 . S
C577 C572 1.373 . S
C577 C576 1.396 . S
C577 H599 0.929 . S
C578 O588 1.240 . S
C578 O589 1.289 . S
C579 O590 1.258 . S
C579 O591 1.256 . S
O580 La560 2.521 . S
O580 C562 1.261 . S
O581 La560 2.628 . S
O581 C562 1.243 . S
O582 La560 2.554 . S
O582 C569 1.240 . S
O583 La560 2.757 . S
O583 La561 2.482 . S
O583 C569 1.289 . S
O584 La560 2.470 . S
O584 C570 1.258 . S
O585 La561 2.503 . S
O585 C570 1.256 . S
O586 La561 2.521 . S
O586 C571 1.261 . S
O587 La561 2.628 . S
O587 C571 1.243 . S
O588 La561 2.554 . S
O588 C578 1.240 . S
O589 La560 2.482 . S
O589 La561 2.757 . S
O589 C578 1.289 . S
O590 La561 2.470 . S
O590 C579 1.258 . S
O591 La560 2.503 . S
O591 C579 1.256 . S
H592 C564 0.930 . S
H593 C565 0.930 . S
H594 C567 0.929 . S
H595 C568 0.929 . S
H596 C573 0.930 . S
H597 C574 0.930 . S
H598 C576 0.929 . S
H599 C577 0.929 . S
La600 C602 2.928 . S
La600 O620 2.521 . S
La600 O621 2.628 . S
La600 O622 2.554 . S
La600 O623 2.757 1_655 S
La600 O624 2.470 . S
La600 O629 2.482 . S
La600 O631 2.503 1_655 S
La601 C611 2.928 . S
La601 O623 2.482 . S
La601 O625 2.503 1_455 S
La601 O626 2.521 . S
La601 O627 2.628 . S
La601 O628 2.554 . S
La601 O629 2.757 1_455 S
La601 O630 2.470 . S
C602 La600 2.928 . S
C602 C603 1.503 . S
C602 O620 1.261 . S
C602 O621 1.243 . S
C603 C602 1.503 . S
C603 C604 1.394 . S
C603 C608 1.373 1_556 S
C604 C603 1.394 . S
C604 C605 1.380 1_556 S
C604 H632 0.930 . S
C605 C604 1.380 1_554 S
C605 C606 1.376 . S
C605 H633 0.930 . S
C606 C605 1.376 . S
C606 C607 1.370 . S
C607 C606 1.370 . S
C607 C608 1.396 . S
C607 H634 0.929 . S
C608 C603 1.373 1_554 S
C608 C607 1.396 . S
C608 H635 0.929 . S
C609 O622 1.245 . S
C609 O623 1.286 1_655 S
C610 O624 1.258 . S
C610 O625 1.256 . S
C611 La601 2.928 . S
C611 C612 1.503 . S
C611 O626 1.261 . S
C611 O627 1.243 . S
C612 C611 1.503 . S
C612 C613 1.394 . S
C612 C617 1.373 . S
C613 C612 1.394 . S
C613 C614 1.380 . S
C613 H636 0.930 . S
C614 C613 1.380 . S
C614 C615 1.376 . S
C614 H637 0.930 . S
C615 C614 1.376 . S
C615 C616 1.370 . S
C616 C615 1.370 . S
C616 C617 1.396 . S
C616 H638 0.929 . S
C617 C612 1.373 . S
C617 C616 1.396 . S
C617 H639 0.929 . S
C618 O628 1.250 . S
C618 O629 1.283 1_455 S
C619 O630 1.258 . S
C619 O631 1.256 . S
O620 La600 2.521 . S
O620 C602 1.261 . S
O621 La600 2.628 . S
O621 C602 1.243 . S
O622 La600 2.554 . S
O622 C609 1.245 . S
O623 La600 2.757 1_455 S
O623 La601 2.482 . S
O623 C609 1.286 1_455 S
O624 La600 2.470 . S
O624 C610 1.258 . S
O625 La601 2.503 1_655 S
O625 C610 1.256 . S
O626 La601 2.521 . S
O626 C611 1.261 . S
O627 La601 2.628 . S
O627 C611 1.243 . S
O628 La601 2.554 . S
O628 C618 1.250 . S
O629 La600 2.482 . S
O629 La601 2.757 1_655 S
O629 C618 1.283 1_655 S
O630 La601 2.470 . S
O630 C619 1.258 . S
O631 La600 2.503 1_455 S
O631 C619 1.256 . S
H632 C604 0.930 . S
H633 C605 0.930 . S
H634 C607 0.929 . S
H635 C608 0.929 . S
H636 C613 0.930 . S
H637 C614 0.930 . S
H638 C616 0.929 . S
H639 C617 0.929 . S
C640 C641 1.401 . S
C640 H644 0.950 . S
C640 C649 1.390 . S
C641 C640 1.401 . S
C641 C643 1.374 1_545 S
H642 C649 0.950 . S
C643 C641 1.374 1_565 S
C643 C645 1.390 . S
C643 H647 0.950 . S
H644 C640 0.950 . S
C645 C643 1.390 . S
C645 C646 1.356 1_565 S
C645 H648 0.950 . S
C646 C645 1.356 1_545 S
C646 C649 1.418 . S
H647 C643 0.950 . S
H648 C645 0.950 . S
C649 C640 1.390 . S
C649 H642 0.950 . S
C649 C646 1.418 . S
C650 C651 1.387 . S
C650 H654 0.950 . S
C650 C659 1.390 . S
C651 C650 1.387 . S
C651 C653 1.387 . S
H652 C659 0.950 . S
C653 C651 1.387 . S
C653 C655 1.390 . S
C653 H657 0.950 . S
H654 C650 0.950 . S
C655 C653 1.390 . S
C655 C656 1.387 . S
C655 H658 0.950 . S
C656 C655 1.387 . S
C656 C659 1.387 . S
H657 C653 0.950 . S
H658 C655 0.950 . S
C659 C650 1.390 . S
C659 H652 0.950 . S
C659 C656 1.387 . S
C660 C661 1.387 . S
C660 H664 0.950 . S
C660 C669 1.390 . S
C661 C660 1.387 . S
C661 C663 1.387 . S
H662 C669 0.950 . S
C663 C661 1.387 . S
C663 C665 1.390 . S
C663 H667 0.950 . S
H664 C660 0.950 . S
C665 C663 1.390 . S
C665 C666 1.387 . S
C665 H668 0.950 . S
C666 C665 1.387 . S
C666 C669 1.387 . S
H667 C663 0.950 . S
H668 C665 0.950 . S
C669 C660 1.390 . S
C669 H662 0.950 . S
C669 C666 1.387 . S
C670 C671 1.418 . S
C670 H674 0.950 . S
C670 C679 1.390 . S
C671 C670 1.418 . S
C671 C673 1.357 1_455 S
H672 C679 0.950 . S
C673 C671 1.357 1_655 S
C673 C675 1.390 . S
C673 H677 0.950 . S
H674 C670 0.950 . S
C675 C673 1.390 . S
C675 C676 1.387 1_655 S
C675 H678 0.950 . S
C676 C675 1.387 1_455 S
C676 C679 1.387 . S
H677 C673 0.950 . S
H678 C675 0.950 . S
C679 C670 1.390 . S
C679 H672 0.950 . S
C679 C676 1.387 . S
C680 C681 1.385 1_545 S
C680 H684 0.950 . S
C680 C689 1.390 . S
C681 C680 1.385 1_565 S
C681 C683 1.391 . S
H682 C689 0.950 . S
C683 C681 1.391 . S
C683 C685 1.390 . S
C683 H687 0.950 . S
H684 C680 0.950 . S
C685 C683 1.390 . S
C685 C686 1.392 . S
C685 H688 0.950 . S
C686 C685 1.392 . S
C686 C689 1.382 1_565 S
H687 C683 0.950 . S
H688 C685 0.950 . S
C689 C680 1.390 . S
C689 H682 0.950 . S
C689 C686 1.382 1_545 S
C690 C691 1.387 . S
C690 H694 0.950 . S
C690 C699 1.390 . S
C691 C690 1.387 . S
C691 C693 1.387 . S
H692 C699 0.950 . S
C693 C691 1.387 . S
C693 C695 1.390 . S
C693 H697 0.950 . S
H694 C690 0.950 . S
C695 C693 1.390 . S
C695 C696 1.387 . S
C695 H698 0.950 . S
C696 C695 1.387 . S
C696 C699 1.387 . S
H697 C693 0.950 . S
H698 C695 0.950 . S
C699 C690 1.390 . S
C699 H692 0.950 . S
C699 C696 1.387 . S
C700 C701 1.387 . S
C700 H704 0.950 . S
C700 C709 1.390 . S
C701 C700 1.387 . S
C701 C703 1.387 . S
H702 C709 0.950 . S
C703 C701 1.387 . S
C703 C705 1.390 . S
C703 H707 0.950 . S
H704 C700 0.950 . S
C705 C703 1.390 . S
C705 C706 1.387 . S
C705 H708 0.950 . S
C706 C705 1.387 . S
C706 C709 1.387 . S
H707 C703 0.950 . S
H708 C705 0.950 . S
C709 C700 1.390 . S
C709 H702 0.950 . S
C709 C706 1.387 . S
C710 C711 1.418 . S
C710 H714 0.950 . S
C710 C719 1.390 . S
C711 C710 1.418 . S
C711 C713 1.358 1_655 S
H712 C719 0.950 . S
C713 C711 1.358 1_455 S
C713 C715 1.390 . S
C713 H717 0.950 . S
H714 C710 0.950 . S
C715 C713 1.390 . S
C715 C716 1.387 1_455 S
C715 H718 0.950 . S
C716 C715 1.387 1_655 S
C716 C719 1.387 . S
H717 C713 0.950 . S
H718 C715 0.950 . S
C719 C710 1.390 . S
C719 H712 0.950 . S
C719 C716 1.387 . S
C720 C721 1.387 . S
C720 H724 0.950 . S
C720 C729 1.390 . S
C721 C720 1.387 . S
C721 C723 1.387 . S
H722 C729 0.950 . S
C723 C721 1.387 . S
C723 C725 1.390 . S
C723 H727 0.950 1_655 S
H724 C720 0.950 . S
C725 C723 1.390 . S
C725 C726 1.387 . S
C725 H728 0.950 . S
C726 C725 1.387 . S
C726 C729 1.387 . S
H727 C723 0.950 1_455 S
H728 C725 0.950 . S
C729 C720 1.390 . S
C729 H722 0.950 . S
C729 C726 1.387 . S
C730 C731 1.387 . S
C730 H734 0.950 . S
C730 C739 1.390 . S
C731 C730 1.387 . S
C731 C733 1.387 . S
H732 C739 0.950 . S
C733 C731 1.387 . S
C733 C735 1.390 . S
C733 H737 0.950 1_565 S
H734 C730 0.950 . S
C735 C733 1.390 . S
C735 C736 1.387 . S
C735 H738 0.950 . S
C736 C735 1.387 . S
C736 C739 1.387 . S
H737 C733 0.950 1_545 S
H738 C735 0.950 . S
C739 C730 1.390 . S
C739 H732 0.950 . S
C739 C736 1.387 . S
C740 C741 1.387 . S
C740 H744 0.950 . S
C740 C749 1.390 . S
C741 C740 1.387 . S
C741 C743 1.387 . S
H742 C749 0.950 . S
C743 C741 1.387 . S
C743 C745 1.390 . S
C743 H747 0.950 . S
H744 C740 0.950 . S
C745 C743 1.390 . S
C745 C746 1.387 . S
C745 H748 0.950 . S
C746 C745 1.387 . S
C746 C749 1.387 . S
H747 C743 0.950 . S
H748 C745 0.950 . S
C749 C740 1.390 . S
C749 H742 0.950 . S
C749 C746 1.387 . S
C750 C751 1.387 . S
C750 H754 0.950 . S
C750 C759 1.390 . S
C751 C750 1.387 . S
C751 C753 1.387 . S
H752 C759 0.950 . S
C753 C751 1.387 . S
C753 C755 1.390 . S
C753 H757 0.950 . S
H754 C750 0.950 . S
C755 C753 1.390 . S
C755 C756 1.387 . S
C755 H758 0.950 . S
C756 C755 1.387 . S
C756 C759 1.387 . S
H757 C753 0.950 . S
H758 C755 0.950 . S
C759 C750 1.390 . S
C759 H752 0.950 . S
C759 C756 1.387 . S
C760 C761 1.387 . S
C760 H764 0.950 1_455 S
C760 C769 1.390 . S
C761 C760 1.387 . S
C761 C763 1.387 . S
H762 C769 0.950 1_556 S
C763 C761 1.387 . S
C763 C765 1.390 . S
C763 H767 0.950 . S
H764 C760 0.950 1_655 S
C765 C763 1.390 . S
C765 C766 1.387 . S
C765 H768 0.950 . S
C766 C765 1.387 . S
C766 C769 1.387 . S
H767 C763 0.950 . S
H768 C765 0.950 . S
C769 C760 1.390 . S
C769 H762 0.950 1_554 S
C769 C766 1.387 . S
C770 C771 1.387 . S
C770 H774 0.950 . S
C770 C779 1.390 . S
C771 C770 1.387 . S
C771 C773 1.387 . S
H772 C779 0.950 . S
C773 C771 1.387 . S
C773 C775 1.390 . S
C773 H777 0.950 1_554 S
H774 C770 0.950 . S
C775 C773 1.390 . S
C775 C776 1.387 . S
C775 H778 0.950 1_554 S
C776 C775 1.387 . S
C776 C779 1.387 . S
H777 C773 0.950 1_556 S
H778 C775 0.950 1_556 S
C779 C770 1.390 . S
C779 H772 0.950 . S
C779 C776 1.387 . S
C780 C781 1.387 . S
C780 H784 0.950 1_554 S
C780 C789 1.390 . S
C781 C780 1.387 . S
C781 C783 1.387 . S
H782 C789 0.950 1_556 S
C783 C781 1.387 . S
C783 C785 1.390 . S
C783 H787 0.950 . S
H784 C780 0.950 1_556 S
C785 C783 1.390 . S
C785 C786 1.387 . S
C785 H788 0.950 . S
C786 C785 1.387 . S
C786 C789 1.387 . S
H787 C783 0.950 . S
H788 C785 0.950 . S
C789 C780 1.390 . S
C789 H782 0.950 1_554 S
C789 C786 1.387 . S
C790 C791 1.387 . S
C790 H794 0.950 1_554 S
C790 C799 1.390 . S
C791 C790 1.387 . S
C791 C793 1.387 . S
H792 C799 0.950 1_556 S
C793 C791 1.387 . S
C793 C795 1.390 . S
C793 H797 0.950 . S
H794 C790 0.950 1_556 S
C795 C793 1.390 . S
C795 C796 1.387 . S
C795 H798 0.950 . S
C796 C795 1.387 . S
C796 C799 1.387 . S
H797 C793 0.950 . S
H798 C795 0.950 . S
C799 C790 1.390 . S
C799 H792 0.950 1_554 S
C799 C796 1.387 . S
C800 C801 1.387 1_655 S
C800 H804 0.950 . S
C800 C809 1.390 . S
C801 C800 1.387 1_455 S
C801 C803 1.387 . S
H802 C809 0.950 . S
C803 C801 1.387 . S
C803 C805 1.390 . S
C803 H807 0.950 . S
H804 C800 0.950 . S
C805 C803 1.390 . S
C805 C806 1.387 . S
C805 H808 0.950 . S
C806 C805 1.387 . S
C806 C809 1.387 1_455 S
H807 C803 0.950 . S
H808 C805 0.950 . S
C809 C800 1.390 . S
C809 H802 0.950 . S
C809 C806 1.387 1_655 S
C810 C811 1.387 . S
C810 H814 0.950 . S
C810 C819 1.390 . S
C811 C810 1.387 . S
C811 C813 1.387 1_545 S
H812 C819 0.950 . S
C813 C811 1.387 1_565 S
C813 C815 1.390 . S
C813 H817 0.950 . S
H814 C810 0.950 . S
C815 C813 1.390 . S
C815 C816 1.387 1_565 S
C815 H818 0.950 . S
C816 C815 1.387 1_545 S
C816 C819 1.387 . S
H817 C813 0.950 . S
H818 C815 0.950 . S
C819 C810 1.390 . S
C819 H812 0.950 . S
C819 C816 1.387 . S
C820 C821 1.387 . S
C820 H824 0.950 . S
C820 C829 1.390 . S
C821 C820 1.387 . S
C821 C823 1.387 . S
H822 C829 0.950 . S
C823 C821 1.387 . S
C823 C825 1.390 . S
C823 H827 0.950 . S
H824 C820 0.950 . S
C825 C823 1.390 . S
C825 C826 1.387 . S
C825 H828 0.950 . S
C826 C825 1.387 . S
C826 C829 1.387 . S
H827 C823 0.950 . S
H828 C825 0.950 . S
C829 C820 1.390 . S
C829 H822 0.950 . S
C829 C826 1.387 . S
C830 C831 1.387 . S
C830 H834 0.950 . S
C830 C839 1.390 . S
C831 C830 1.387 . S
C831 C833 1.387 . S
H832 C839 0.950 . S
C833 C831 1.387 . S
C833 C835 1.390 . S
C833 H837 0.950 . S
H834 C830 0.950 . S
C835 C833 1.390 . S
C835 C836 1.387 . S
C835 H838 0.950 . S
C836 C835 1.387 . S
C836 C839 1.387 . S
H837 C833 0.950 . S
H838 C835 0.950 . S
C839 C830 1.390 . S
C839 H832 0.950 . S
C839 C836 1.387 . S
C840 C841 1.387 . S
C840 H844 0.950 . S
C840 C849 1.390 . S
C841 C840 1.387 . S
C841 C843 1.387 . S
H842 C849 0.950 . S
C843 C841 1.387 . S
C843 C845 1.390 . S
C843 H847 0.950 . S
H844 C840 0.950 . S
C845 C843 1.390 . S
C845 C846 1.387 . S
C845 H848 0.950 . S
C846 C845 1.387 . S
C846 C849 1.387 . S
H847 C843 0.950 . S
H848 C845 0.950 . S
C849 C840 1.390 . S
C849 H842 0.950 . S
C849 C846 1.387 . S
C850 C851 1.387 1_545 S
C850 H854 0.950 . S
C850 C859 1.390 . S
C851 C850 1.387 1_565 S
C851 C853 1.387 . S
H852 C859 0.950 . S
C853 C851 1.387 . S
C853 C855 1.390 . S
C853 H857 0.950 . S
H854 C850 0.950 . S
C855 C853 1.390 . S
C855 C856 1.387 . S
C855 H858 0.950 . S
C856 C855 1.387 . S
C856 C859 1.387 1_565 S
H857 C853 0.950 . S
H858 C855 0.950 . S
C859 C850 1.390 . S
C859 H852 0.950 . S
C859 C856 1.387 1_545 S
C860 C861 1.387 . S
C860 H864 0.950 . S
C860 C869 1.390 . S
C861 C860 1.387 . S
C861 C863 1.387 . S
H862 C869 0.950 . S
C863 C861 1.387 . S
C863 C865 1.390 . S
C863 H867 0.950 . S
H864 C860 0.950 . S
C865 C863 1.390 . S
C865 C866 1.387 . S
C865 H868 0.950 . S
C866 C865 1.387 . S
C866 C869 1.387 . S
H867 C863 0.950 . S
H868 C865 0.950 . S
C869 C860 1.390 . S
C869 H862 0.950 . S
C869 C866 1.387 . S
C870 C871 1.387 . S
C870 H874 0.950 . S
C870 C879 1.390 . S
C871 C870 1.387 . S
C871 C873 1.387 . S
H872 C879 0.950 . S
C873 C871 1.387 . S
C873 C875 1.390 . S
C873 H877 0.950 . S
H874 C870 0.950 . S
C875 C873 1.390 . S
C875 C876 1.387 . S
C875 H878 0.950 . S
C876 C875 1.387 . S
C876 C879 1.387 . S
H877 C873 0.950 . S
H878 C875 0.950 . S
C879 C870 1.390 . S
C879 H872 0.950 . S
C879 C876 1.387 . S
C641 C391 2.686 . S
C646 C489 2.877 1_545 S
C656 C529 2.896 . S
C651 C451 2.697 . S
C666 C569 2.901 . S
C661 C241 2.356 . S
C676 C609 2.883 1_455 S
C671 C331 2.322 1_455 S
C686 C498 2.879 1_564 S
C681 C121 2.318 . S
C691 C211 2.717 . S
C696 C538 2.898 1_554 S
C701 C31 2.723 . S
C706 C578 2.901 1_554 S
C711 C91 2.324 . S
C716 C618 2.883 1_654 S
C726 C495 0.814 . S
C721 C301 0.794 . S
C736 C535 0.817 . S
C731 C380 0.849 1_565 S
C746 C575 0.784 . S
C741 C440 0.800 . S
C751 C260 0.771 . S
C756 C615 0.776 . S
C761 C61 0.833 1_455 S
C766 C486 0.818 . S
C776 C526 0.816 . S
C771 C140 0.827 1_545 S
C786 C566 0.776 . S
C781 C200 0.779 . S
C791 C20 0.785 . S
C796 C606 0.785 . S
C801 C320 3.446 1_455 S
C806 C499 3.761 . S
C811 C361 2.959 . S
C816 C539 3.733 . S
C826 C579 3.724 . S
C821 C421 2.945 . S
C836 C619 3.757 . S
C831 C271 3.438 . S
C841 C80 3.424 . S
C846 C490 3.769 . S
C856 C530 3.733 . S
C851 C151 3.391 . S
C866 C570 3.724 . S
C861 C181 2.984 . S
C871 C1 3.019 . S
C876 C610 3.762 . S
