# Generated by pormake.
# Topology anh, (6,3)-cn, num edge types: 1
# Building blocks:
#     Node 0, Type 0, BuildingBlock: BETDEL_clean_sbu_0, # of connection points: 6
#     Node 1, Type 0, BuildingBlock: BETDEL_clean_sbu_0, # of connection points: 6
#     Node 2, Type 0, BuildingBlock: BETDEL_clean_sbu_0, # of connection points: 6
#     Node 3, Type 1, BuildingBlock: PAMTOO_clean_linker_0, # of connection points: 3
#     Node 4, Type 1, BuildingBlock: PAMTOO_clean_linker_0, # of connection points: 3
#     Node 5, Type 1, BuildingBlock: PAMTOO_clean_linker_0, # of connection points: 3
#     Node 6, Type 1, BuildingBlock: PAMTOO_clean_linker_0, # of connection points: 3
#     Node 7, Type 1, BuildingBlock: PAMTOO_clean_linker_0, # of connection points: 3
#     Node 8, Type 1, BuildingBlock: PAMTOO_clean_linker_0, # of connection points: 3
#     Edge 9, Type (0, 1), BuildingBlock: AJUNOK_clean_linker_0, # of connection points: 2
#     Edge 10, Type (0, 1), BuildingBlock: AJUNOK_clean_linker_0, # of connection points: 2
#     Edge 11, Type (0, 1), BuildingBlock: AJUNOK_clean_linker_0, # of connection points: 2
#     Edge 12, Type (0, 1), BuildingBlock: AJUNOK_clean_linker_0, # of connection points: 2
#     Edge 13, Type (0, 1), BuildingBlock: AJUNOK_clean_linker_0, # of connection points: 2
#     Edge 14, Type (0, 1), BuildingBlock: AJUNOK_clean_linker_0, # of connection points: 2
#     Edge 15, Type (0, 1), BuildingBlock: AJUNOK_clean_linker_0, # of connection points: 2
#     Edge 16, Type (0, 1), BuildingBlock: AJUNOK_clean_linker_0, # of connection points: 2
#     Edge 17, Type (0, 1), BuildingBlock: AJUNOK_clean_linker_0, # of connection points: 2
#     Edge 18, Type (0, 1), BuildingBlock: AJUNOK_clean_linker_0, # of connection points: 2
#     Edge 19, Type (0, 1), BuildingBlock: AJUNOK_clean_linker_0, # of connection points: 2
#     Edge 20, Type (0, 1), BuildingBlock: AJUNOK_clean_linker_0, # of connection points: 2
#     Edge 21, Type (0, 1), BuildingBlock: AJUNOK_clean_linker_0, # of connection points: 2
#     Edge 22, Type (0, 1), BuildingBlock: AJUNOK_clean_linker_0, # of connection points: 2
#     Edge 23, Type (0, 1), BuildingBlock: AJUNOK_clean_linker_0, # of connection points: 2
#     Edge 24, Type (0, 1), BuildingBlock: AJUNOK_clean_linker_0, # of connection points: 2
#     Edge 25, Type (0, 1), BuildingBlock: AJUNOK_clean_linker_0, # of connection points: 2
#     Edge 26, Type (0, 1), BuildingBlock: AJUNOK_clean_linker_0, # of connection points: 2
# Relax obj value: 0.110
# Max RMSD: 0.133
# Mean RMSD: 0.099
data_MOF--net-anh--node1-BETDEL_clean_sbu_0--node2-PAMTOO_clean_linker_0--edge1-AJUNOK_clean_linker_0
_symmetry_space_group_name_H-M    P1
_symmetry_Int_Tables_number       1
_symmetry_cell_setting            triclinic
loop_
_symmetry_equiv_pos_as_xyz
'x, y, z'
_cell_length_a     21.80761
_cell_length_b     21.814551
_cell_length_c     34.871036
_cell_angle_alpha  85.213571
_cell_angle_beta   92.321613
_cell_angle_gamma 119.7522
loop_
_atom_site_label
_atom_site_type_symbol
_atom_site_fract_x
_atom_site_fract_y
_atom_site_fract_z
_atom_type_partial_charge
Dy0 Dy 0.13424 0.50511 0.15684 0.0
C1 C 0.96394 0.62462 0.17491 0.0
C2 C 0.21845 0.44968 0.1436 0.0
Dy3 Dy 0.05904 0.58332 0.15887 0.0
O4 O 0.19814 0.45429 0.17704 0.0
O5 O 0.19331 0.47627 0.11693 0.0
O6 O 0.09534 0.45533 0.21579 0.0
O7 O 0.12031 0.56074 0.20219 0.0
C8 C 0.0961 0.51032 0.22782 0.0
C9 C 0.09794 0.57882 0.08761 0.0
O10 O 0.16552 0.67153 0.17516 0.0
O11 O 0.22531 0.62037 0.1516 0.0
O12 O 1.01113 0.65346 0.14778 0.0
O13 O 0.9712 0.57512 0.19407 0.0
O14 O 0.09793 0.63325 0.09987 0.0
O15 O 0.07261 0.52759 0.11292 0.0
O16 O 1.02529 0.41059 0.15068 0.0
O17 O 0.96701 0.47035 0.16361 0.0
C18 C 0.22561 0.67647 0.16445 0.0
C19 C 0.96588 0.41043 0.15779 0.0
Dy20 Dy 0.54771 0.06102 0.4866 0.0
C21 C 0.83533 0.23087 0.51344 0.0
C22 C 0.40751 0.97521 0.47341 0.0
Dy23 Dy 0.6998 0.13736 0.49382 0.0
O24 O 0.43653 0.99183 0.50678 0.0
O25 O 0.45548 1.00491 0.44669 0.0
O26 O 0.53924 0.10306 0.5414 0.0
O27 O 0.61795 0.07579 0.53584 0.0
C28 C 0.59391 0.10286 0.55711 0.0
C29 C 0.65717 0.10003 0.42204 0.0
O30 O 0.68372 1.02944 0.51399 0.0
O31 O 0.57369 0.97117 0.48641 0.0
O32 O 0.81706 0.18692 0.48677 0.0
O33 O 0.77909 0.22158 0.53014 0.0
O34 O 0.71216 0.1012 0.43824 0.0
O35 O 0.63002 0.12394 0.4437 0.0
O36 O 0.56059 0.16933 0.4721 0.0
O37 O 0.67598 0.22858 0.49265 0.0
C38 C 0.62983 0.97008 0.50226 0.0
C39 C 0.61721 0.22891 0.48124 0.0
Dy40 Dy 0.68743 0.63965 0.81413 0.0
C41 C 0.56973 0.34645 0.84653 0.0
C42 C 0.7281 0.77522 0.78723 0.0
Dy43 Dy 0.61182 0.48547 0.82605 0.0
O44 O 0.74601 0.75698 0.82026 0.0
O45 O 0.68946 0.71943 0.76863 0.0
O46 O 0.73429 0.65147 0.87267 0.0
O47 O 0.63158 0.56743 0.86413 0.0
C48 C 0.68113 0.59475 0.88815 0.0
C49 C 0.61838 0.53333 0.75194 0.0
O50 O 0.52058 0.50016 0.84092 0.0
O51 O 0.57216 0.61445 0.81342 0.0
O52 O 0.54661 0.36946 0.81715 0.0
O53 O 0.61414 0.39957 0.86552 0.0
O54 O 0.56451 0.47769 0.76745 0.0
O55 O 0.66826 0.55834 0.77594 0.0
O56 O 0.78233 0.62565 0.80694 0.0
O57 O 0.72542 0.50991 0.83233 0.0
C58 C 0.51565 0.55666 0.82819 0.0
C59 C 0.78435 0.56806 0.82081 0.0
H60 H 0.72925 0.19 0.25266 0.0
H61 H 0.54208 0.9858 0.25107 0.0
H62 H 0.65605 0.0902 0.14571 0.0
H63 H 0.48931 0.97729 0.13016 0.0
C64 C 0.48087 0.96187 0.1615 0.0
O65 O 0.54459 0.97247 0.17771 0.0
H66 H 0.46526 0.99812 0.17317 0.0
C67 C 0.69058 0.14678 0.23653 0.0
C68 C 0.69987 0.14857 0.19674 0.0
C69 C 0.63401 0.08867 0.25617 0.0
C70 C 0.58478 1.03147 0.23578 0.0
C71 C 0.59121 1.03157 0.1959 0.0
C72 C 0.6494 0.09046 0.17629 0.0
H73 H 0.63843 0.71947 0.59488 0.0
H74 H 0.64208 0.53031 0.57337 0.0
H75 H 0.6384 0.66695 0.47794 0.0
H76 H 0.5608 0.49422 0.4636 0.0
C77 C 0.5847 0.48317 0.49013 0.0
O78 O 0.64345 0.54698 0.49915 0.0
H79 H 0.54437 0.46362 0.51336 0.0
C80 C 0.63992 0.68533 0.57448 0.0
C81 C 0.63919 0.70275 0.53462 0.0
C82 C 0.63958 0.6229 0.58848 0.0
C83 C 0.64121 0.57796 0.56258 0.0
C84 C 0.64032 0.59254 0.52284 0.0
C85 C 0.63849 0.65496 0.50869 0.0
H86 H 1.0075 0.55685 0.92019 0.0
H87 H 0.21375 0.57759 0.91667 0.0
H88 H 0.10566 0.58051 0.81084 0.0
H89 H 0.21344 0.5196 0.80158 0.0
C90 C 0.23135 0.53029 0.83178 0.0
O91 O 0.22346 0.58642 0.84197 0.0
H92 H 0.19616 0.48138 0.84993 0.0
C93 C 0.05103 0.56202 0.90357 0.0
C94 C 1.04828 0.56788 0.86316 0.0
C95 C 0.11041 0.56607 0.92294 0.0
C96 C 0.1676 0.57399 0.90178 0.0
C97 C 0.1661 0.57783 0.86142 0.0
C98 C 0.10657 0.57598 0.84199 0.0
H99 H 1.02301 0.4361 0.40484 0.0
H100 H 0.16502 0.66039 0.38668 0.0
H101 H 0.09131 0.56821 0.50029 0.0
H102 H 0.09583 0.71571 0.47742 0.0
C103 C 0.13617 0.73097 0.45468 0.0
O104 O 0.16342 0.68571 0.4579 0.0
H105 H 0.11017 0.7285 0.42622 0.0
C106 C 0.05474 0.48765 0.41606 0.0
C107 C 0.05431 0.49428 0.45579 0.0
C108 C 0.09368 0.54709 0.39057 0.0
C109 C 0.13268 0.6137 0.40538 0.0
C110 C 0.12938 0.621 0.44455 0.0
C111 C 0.09138 0.5616 0.46985 0.0
H112 H 0.70459 1.0286 0.69746 0.0
H113 H 0.63364 0.15887 0.74417 0.0
H114 H 0.70351 0.04056 0.82003 0.0
H115 H 0.60182 0.07138 0.86312 0.0
C116 C 0.59609 0.09865 0.836 0.0
O117 O 0.6594 0.1319 0.8162 0.0
H118 H 0.55308 0.05742 0.81907 0.0
C119 C 0.69591 0.05048 0.72217 0.0
C120 C 0.70809 1.02898 0.75926 0.0
C121 C 0.6673 0.09543 0.71646 0.0
C122 C 0.65634 0.12445 0.74814 0.0
C123 C 0.67134 0.10569 0.7854 0.0
C124 C 0.69655 0.05774 0.79094 0.0
H125 H 0.75591 0.5933 0.06515 0.0
H126 H 0.53179 0.50928 0.05327 0.0
H127 H 0.62425 0.53647 0.16546 0.0
H128 H 0.47324 0.39221 0.15662 0.0
C129 C 0.46077 0.41602 0.13013 0.0
O130 O 0.5068 0.48796 0.12673 0.0
H131 H 0.46517 0.3899 0.10508 0.0
C132 C 0.70442 0.57369 0.07796 0.0
C133 C 0.69814 0.56969 0.11821 0.0
C134 C 0.64493 0.55172 0.05406 0.0
C135 C 0.5784 0.52452 0.07095 0.0
C136 C 0.57129 0.51657 0.11097 0.0
C137 C 0.63082 0.54013 0.13459 0.0
C138 C 0.29869 0.40744 0.17075 0.0
C139 C 0.2703 0.42677 0.13811 0.0
C140 C 0.35701 0.39789 0.16765 0.0
C141 C 0.38795 0.40612 0.13174 0.0
H142 H 0.27842 0.40363 0.19923 0.0
H143 H 0.38051 0.38809 0.19373 0.0
S144 S 0.32849 0.4481 0.03711 0.0
N145 N 0.27337 0.44763 0.06842 0.0
N146 N 0.38296 0.42877 0.06259 0.0
C147 C 0.35695 0.42034 0.09859 0.0
C148 C 0.29789 0.43072 0.10176 0.0
C149 C 0.95922 0.30232 0.49174 0.0
C150 C 0.90291 0.29751 0.51239 0.0
C151 C 1.01272 0.36786 0.47664 0.0
C152 C 1.01104 0.43041 0.48142 0.0
H153 H 0.9586 0.2548 0.48421 0.0
H154 H 0.05251 0.36898 0.45851 0.0
S155 S 0.8822 0.44689 0.53983 0.0
N156 N 0.85506 0.36129 0.54277 0.0
N157 N 0.95428 0.48452 0.51307 0.0
C158 C 0.95965 0.42706 0.50589 0.0
C159 C 0.90579 0.36032 0.52183 0.0
C160 C 0.68854 0.84912 0.74857 0.0
C161 C 0.73369 0.84448 0.77699 0.0
C162 C 0.68214 0.90965 0.74268 0.0
C163 C 0.72178 0.96868 0.76441 0.0
H164 H 0.65487 0.80425 0.73206 0.0
H165 H 0.64342 0.90876 0.72193 0.0
S166 S 0.85436 0.98613 0.83911 0.0
N167 N 0.82264 0.90519 0.82531 0.0
N168 N 0.81276 1.02098 0.81305 0.0
C169 C 0.77008 0.96618 0.79155 0.0
C170 C 0.77577 0.90371 0.79801 0.0
C171 C 0.89038 0.67242 0.14481 0.0
C172 C 0.89688 0.62551 0.17252 0.0
C173 C 0.82426 0.65738 0.13002 0.0
C174 C 0.76269 0.59463 0.14221 0.0
H175 H 0.93698 0.71745 0.13184 0.0
H176 H 0.822 0.6923 0.10671 0.0
S177 S 0.75044 0.46519 0.22195 0.0
N178 N 0.83563 0.52279 0.21793 0.0
N179 N 0.71122 0.49273 0.18902 0.0
C180 C 0.76767 0.55249 0.17362 0.0
C181 C 0.83506 0.56856 0.18915 0.0
C182 C 0.30912 0.8977 0.43118 0.0
C183 C 0.33292 0.92269 0.46772 0.0
C184 C 0.24218 0.83894 0.42657 0.0
C185 C 0.19697 0.80398 0.45828 0.0
H186 H 0.34379 0.92099 0.40642 0.0
H187 H 0.22738 0.81795 0.3985 0.0
S188 S 0.23155 0.85352 0.55913 0.0
N189 N 0.30371 0.9123 0.53551 0.0
N190 N 0.17825 0.8012 0.52669 0.0
C191 C 0.21841 0.83121 0.49445 0.0
C192 C 0.28635 0.89101 0.49918 0.0
C193 C 0.52746 0.22852 0.82167 0.0
C194 C 0.56365 0.2758 0.85024 0.0
C195 C 0.53474 0.16886 0.81863 0.0
C196 C 0.57749 0.15385 0.84446 0.0
H197 H 0.49681 0.23993 0.79997 0.0
H198 H 0.50954 0.13617 0.79481 0.0
S199 S 0.67777 0.25687 0.92662 0.0
N200 N 0.63936 0.30055 0.90668 0.0
N201 N 0.65276 0.18803 0.90092 0.0
C202 C 0.61044 0.1982 0.87455 0.0
C203 C 0.60325 0.25911 0.8776 0.0
C204 C 0.68537 0.89809 0.53117 0.0
C205 C 0.63256 0.90155 0.5078 0.0
C206 C 0.68841 0.83486 0.5382 0.0
C207 C 0.6395 0.77129 0.52189 0.0
H208 H 0.72429 0.94448 0.545 0.0
H209 H 0.72922 0.83554 0.55723 0.0
S210 S 0.49213 0.75076 0.45712 0.0
N211 N 0.53092 0.83456 0.46724 0.0
N212 N 0.53723 0.71677 0.48031 0.0
C213 C 0.58761 0.77418 0.49755 0.0
C214 C 0.58392 0.83863 0.49065 0.0
C215 C 0.85358 0.50682 0.84327 0.0
C216 C 0.85354 0.56781 0.82599 0.0
C217 C 0.91672 0.50612 0.85272 0.0
C218 C 0.98352 0.5659 0.84493 0.0
H219 H 0.80423 0.4594 0.851 0.0
H220 H 0.91321 0.45888 0.86765 0.0
S221 S 1.01496 0.73825 0.79834 0.0
N222 N 0.92796 0.68932 0.80006 0.0
N223 N 1.04599 0.6873 0.81765 0.0
C224 C 0.98481 0.62631 0.82623 0.0
C225 C 0.92026 0.62743 0.81682 0.0
C226 C 0.35192 0.76509 0.14296 0.0
C227 C 0.29377 0.746 0.16717 0.0
C228 C 0.41338 0.83288 0.14274 0.0
C229 C 0.42011 0.88463 0.16702 0.0
H230 H 0.3489 0.72841 0.12287 0.0
H231 H 0.45493 0.84589 0.12231 0.0
S232 S 0.28756 0.85888 0.23947 0.0
N233 N 0.25051 0.78344 0.21855 0.0
N234 N 0.36516 0.9089 0.21842 0.0
C235 C 0.36412 0.86467 0.19286 0.0
C236 C 0.30137 0.79622 0.19279 0.0
C237 C 0.66051 0.35365 0.50236 0.0
C238 C 0.61347 0.29666 0.48047 0.0
C239 C 0.65351 0.41472 0.50458 0.0
C240 C 0.60025 0.4227 0.48421 0.0
H241 H 0.70172 0.35008 0.51908 0.0
H242 H 0.6892 0.45522 0.52304 0.0
S243 S 0.46447 0.29067 0.42201 0.0
N244 N 0.51229 0.25413 0.43756 0.0
N245 N 0.49982 0.36747 0.44142 0.0
C246 C 0.55389 0.36665 0.46182 0.0
C247 C 0.56044 0.30448 0.45989 0.0
C248 C 0.38887 0.49773 0.85147 0.0
C249 C 0.44586 0.55519 0.83118 0.0
C250 C 0.32182 0.49245 0.85314 0.0
C251 C 0.30783 0.54439 0.83476 0.0
H252 H 0.39552 0.45541 0.8658 0.0
H253 H 0.2798 0.44589 0.86819 0.0
S254 S 0.43793 0.70645 0.77822 0.0
N255 N 0.48314 0.66649 0.79282 0.0
N256 N 0.35733 0.65569 0.79572 0.0
C257 C 0.3644 0.60278 0.81494 0.0
C258 C 0.43307 0.60847 0.81331 0.0
C259 C 0.89528 0.27738 0.1741 0.0
C260 C 0.89665 0.34138 0.1617 0.0
C261 C 0.8311 0.21396 0.18281 0.0
C262 C 0.76499 0.21086 0.17866 0.0
H263 H 0.94442 0.27694 0.17903 0.0
H264 H 0.83341 0.16754 0.19448 0.0
S265 S 0.73761 0.36055 0.14323 0.0
N266 N 0.82436 0.39534 0.14316 0.0
N267 N 0.70498 0.27663 0.15897 0.0
C268 C 0.76531 0.27335 0.16453 0.0
C269 C 0.83056 0.3382 0.15615 0.0
C270 C 0.06534 0.50967 0.02891 0.0
C271 C 0.10755 0.57331 0.04653 0.0
C272 C 0.06779 0.50691 0.98885 0.0
C273 C 0.11394 0.56712 0.96543 0.0
H274 H 1.02795 0.46268 0.04586 0.0
H275 H 1.03242 0.45787 0.97599 0.0
S276 S 0.2391 0.74455 -0.00201 0.0
N277 N 0.19897 0.69675 0.03777 0.0
N278 N 0.20497 0.69078 0.96287 0.0
C279 C 0.15857 0.62994 0.98297 0.0
C280 C 0.15504 0.6332 0.02347 0.0
C281 C 0.61723 0.12996 0.35797 0.0
C282 C 0.64245 0.09046 0.38047 0.0
C283 C 0.61266 0.12794 0.31763 0.0
C284 C 0.63139 0.08499 0.29876 0.0
H285 H 0.60403 0.16497 0.37139 0.0
H286 H 0.59581 0.16117 0.30101 0.0
S287 S 0.69496 0.96759 0.34475 0.0
N288 N 0.68297 1.00477 0.38095 0.0
N289 N 0.67259 0.99985 0.30554 0.0
C290 C 0.65356 0.04309 0.32108 0.0
C291 C 0.65945 0.04605 0.36186 0.0
C292 C 0.6818 0.61993 0.6956 0.0
C293 C 0.62316 0.55676 0.71039 0.0
C294 C 0.68642 0.6423 0.65622 0.0
C295 C 0.63316 0.60157 0.63031 0.0
H296 H 0.72439 0.65223 0.71452 0.0
H297 H 0.73248 0.69094 0.64584 0.0
S298 S 0.46826 0.43339 0.65421 0.0
N299 N 0.50988 0.45508 0.69573 0.0
N300 N 0.51969 0.49657 0.62206 0.0
C301 C 0.57432 0.53882 0.64472 0.0
C302 C 0.56904 0.51654 0.68467 0.0
C303 C 0.57434 0.0416 0.6218 0.0
C304 C 0.60636 0.10504 0.59856 0.0
C305 C 0.59112 0.04037 0.66081 0.0
C306 C 0.64087 0.10248 0.67769 0.0
H307 H 0.53786 0.99231 0.60945 0.0
H308 H 0.56735 0.98988 0.6776 0.0
S309 S 0.73602 0.28261 0.62899 0.0
N310 N 0.68656 0.23196 0.59486 0.0
N311 N 0.71933 0.22956 0.66861 0.0
C312 C 0.67087 0.16685 0.65506 0.0
C313 C 0.65341 0.16809 0.61522 0.0
C314 C 0.71799 0.63238 0.95438 0.0
C315 C 0.67152 0.58049 0.93015 0.0
C316 C 0.70872 0.62247 -0.00574 0.0
C317 C 0.65328 0.55972 0.01158 0.0
H318 H 0.76119 0.68193 0.94248 0.0
H319 H 0.74474 0.66493 0.01159 0.0
S320 S 0.52043 0.40501 0.96081 0.0
N321 N 0.56948 0.46323 0.92605 0.0
N322 N 0.55368 0.44289 0.00139 0.0
C323 C 0.60735 0.50653 0.98768 0.0
C324 C 0.61617 0.51725 0.94689 0.0
C325 C 0.09702 0.47202 0.29689 0.0
C326 C 0.09267 0.51974 0.26882 0.0
C327 C 0.0979 0.48172 0.33606 0.0
C328 C 0.09314 0.53886 0.3487 0.0
H329 H 0.1014 0.42752 0.2886 0.0
H330 H 0.1033 0.44463 0.35657 0.0
S331 S 0.07513 0.67565 0.28631 0.0
N332 N 0.08164 0.62502 0.25594 0.0
N333 N 0.07928 0.64138 0.32973 0.0
C334 C 0.08696 0.58605 0.32081 0.0
C335 C 0.08754 0.57689 0.28083 0.0
loop_
_geom_bond_atom_site_label_1
_geom_bond_atom_site_label_2
_geom_bond_distance
_geom_bond_site_symmetry_2
_ccdc_geom_bond_type
Dy0 O4 2.398 . S
Dy0 O5 2.491 . S
Dy0 O6 2.403 . S
Dy0 O7 2.664 1_455 S
Dy0 O11 2.326 . S
Dy0 O15 2.310 . S
Dy0 O16 2.351 1_455 S
C1 O12 1.185 . S
C1 O13 1.355 . S
C2 O4 1.185 . S
C2 O5 1.355 . S
Dy3 O7 2.310 . S
Dy3 O10 2.351 1_655 S
Dy3 O12 2.398 . S
Dy3 O13 2.491 . S
Dy3 O14 2.403 . S
Dy3 O15 2.664 1_655 S
Dy3 O17 2.326 . S
O4 Dy0 2.398 . S
O4 C2 1.185 . S
O5 Dy0 2.491 . S
O5 C2 1.355 . S
O6 Dy0 2.403 . S
O6 C8 1.254 . S
O7 Dy0 2.664 1_655 S
O7 Dy3 2.310 . S
O7 C8 1.268 1_655 S
C8 O6 1.254 . S
C8 O7 1.268 1_455 S
C9 O14 1.254 1_455 S
C9 O15 1.268 . S
O10 Dy3 2.351 1_455 S
O10 C18 1.249 . S
O11 Dy0 2.326 . S
O11 C18 1.267 . S
O12 C1 1.185 . S
O12 Dy3 2.398 . S
O13 C1 1.355 . S
O13 Dy3 2.491 . S
O14 Dy3 2.403 . S
O14 C9 1.254 1_655 S
O15 Dy0 2.310 . S
O15 Dy3 2.664 1_455 S
O15 C9 1.268 . S
O16 Dy0 2.351 1_655 S
O16 C19 1.249 . S
O17 Dy3 2.326 . S
O17 C19 1.267 . S
C18 O10 1.249 . S
C18 O11 1.267 . S
C19 O16 1.249 . S
C19 O17 1.267 . S
Dy20 O24 2.398 . S
Dy20 O25 2.491 . S
Dy20 O26 2.403 . S
Dy20 O27 2.664 1_565 S
Dy20 O31 2.326 . S
Dy20 O35 2.310 1_565 S
Dy20 O36 2.351 1_565 S
C21 O32 1.185 . S
C21 O33 1.355 . S
C22 O24 1.185 . S
C22 O25 1.355 . S
Dy23 O27 2.310 . S
Dy23 O30 2.351 1_545 S
Dy23 O32 2.398 . S
Dy23 O33 2.491 . S
Dy23 O34 2.403 . S
Dy23 O35 2.664 . S
Dy23 O37 2.326 . S
O24 Dy20 2.398 . S
O24 C22 1.185 . S
O25 Dy20 2.491 . S
O25 C22 1.355 . S
O26 Dy20 2.403 . S
O26 C28 1.254 1_565 S
O27 Dy20 2.664 1_545 S
O27 Dy23 2.310 . S
O27 C28 1.268 . S
C28 O26 1.254 1_545 S
C28 O27 1.268 . S
C29 O34 1.254 . S
C29 O35 1.268 . S
O30 Dy23 2.351 1_565 S
O30 C38 1.249 . S
O31 Dy20 2.326 . S
O31 C38 1.267 . S
O32 C21 1.185 . S
O32 Dy23 2.398 . S
O33 C21 1.355 . S
O33 Dy23 2.491 . S
O34 Dy23 2.403 . S
O34 C29 1.254 . S
O35 Dy20 2.310 1_545 S
O35 Dy23 2.664 . S
O35 C29 1.268 . S
O36 Dy20 2.351 1_545 S
O36 C39 1.249 . S
O37 Dy23 2.326 . S
O37 C39 1.267 . S
C38 O30 1.249 . S
C38 O31 1.267 . S
C39 O36 1.249 . S
C39 O37 1.267 . S
Dy40 O44 2.398 . S
Dy40 O45 2.491 . S
Dy40 O46 2.403 . S
Dy40 O47 2.664 . S
Dy40 O51 2.326 . S
Dy40 O55 2.310 . S
Dy40 O56 2.351 . S
C41 O52 1.185 . S
C41 O53 1.355 . S
C42 O44 1.185 . S
C42 O45 1.355 . S
Dy43 O47 2.310 . S
Dy43 O50 2.351 . S
Dy43 O52 2.398 . S
Dy43 O53 2.491 . S
Dy43 O54 2.403 . S
Dy43 O55 2.664 . S
Dy43 O57 2.326 . S
O44 Dy40 2.398 . S
O44 C42 1.185 . S
O45 Dy40 2.491 . S
O45 C42 1.355 . S
O46 Dy40 2.403 . S
O46 C48 1.254 . S
O47 Dy40 2.664 . S
O47 Dy43 2.310 . S
O47 C48 1.268 . S
C48 O46 1.254 . S
C48 O47 1.268 . S
C49 O54 1.254 . S
C49 O55 1.268 . S
O50 Dy43 2.351 . S
O50 C58 1.249 . S
O51 Dy40 2.326 . S
O51 C58 1.267 . S
O52 C41 1.185 . S
O52 Dy43 2.398 . S
O53 C41 1.355 . S
O53 Dy43 2.491 . S
O54 Dy43 2.403 . S
O54 C49 1.254 . S
O55 Dy40 2.310 . S
O55 Dy43 2.664 . S
O55 C49 1.268 . S
O56 Dy40 2.351 . S
O56 C59 1.249 . S
O57 Dy43 2.326 . S
O57 C59 1.267 . S
C58 O50 1.249 . S
C58 O51 1.267 . S
C59 O56 1.249 . S
C59 O57 1.267 . S
H60 C67 0.929 . S
H61 C70 0.930 . S
H62 C72 0.929 . S
H63 C64 0.969 . S
C64 H63 0.969 . S
C64 O65 1.550 . S
C64 H66 0.973 . S
O65 C64 1.550 . S
O65 C71 1.412 . S
H66 C64 0.973 . S
C67 H60 0.929 . S
C67 C68 1.400 . S
C67 C69 1.364 . S
C68 C67 1.400 . S
C68 C72 1.377 . S
C69 C67 1.364 . S
C69 C70 1.374 1_545 S
C70 H61 0.930 . S
C70 C69 1.374 1_565 S
C70 C71 1.383 . S
C71 O65 1.412 . S
C71 C70 1.383 . S
C71 C72 1.394 1_565 S
C72 H62 0.929 . S
C72 C68 1.377 . S
C72 C71 1.394 1_545 S
H73 C80 0.929 . S
H74 C83 0.930 . S
H75 C85 0.929 . S
H76 C77 0.969 . S
C77 H76 0.969 . S
C77 O78 1.550 . S
C77 H79 0.973 . S
O78 C77 1.550 . S
O78 C84 1.412 . S
H79 C77 0.973 . S
C80 H73 0.929 . S
C80 C81 1.400 . S
C80 C82 1.364 . S
C81 C80 1.400 . S
C81 C85 1.377 . S
C82 C80 1.364 . S
C82 C83 1.374 . S
C83 H74 0.930 . S
C83 C82 1.374 . S
C83 C84 1.383 . S
C84 O78 1.412 . S
C84 C83 1.383 . S
C84 C85 1.394 . S
C85 H75 0.929 . S
C85 C81 1.377 . S
C85 C84 1.394 . S
H86 C93 0.929 1_655 S
H87 C96 0.930 . S
H88 C98 0.929 . S
H89 C90 0.969 . S
C90 H89 0.969 . S
C90 O91 1.550 . S
C90 H92 0.973 . S
O91 C90 1.550 . S
O91 C97 1.412 . S
H92 C90 0.973 . S
C93 H86 0.929 1_455 S
C93 C94 1.400 . S
C93 C95 1.364 . S
C94 C93 1.400 . S
C94 C98 1.377 . S
C95 C93 1.364 . S
C95 C96 1.374 . S
C96 H87 0.930 . S
C96 C95 1.374 . S
C96 C97 1.383 . S
C97 O91 1.412 . S
C97 C96 1.383 . S
C97 C98 1.394 . S
C98 H88 0.929 . S
C98 C94 1.377 . S
C98 C97 1.394 . S
H99 C106 0.929 . S
H100 C109 0.930 . S
H101 C111 0.929 . S
H102 C103 0.969 . S
C103 H102 0.969 . S
C103 O104 1.550 . S
C103 H105 0.973 . S
O104 C103 1.550 . S
O104 C110 1.412 . S
H105 C103 0.973 . S
C106 H99 0.929 . S
C106 C107 1.400 . S
C106 C108 1.364 1_655 S
C107 C106 1.400 . S
C107 C111 1.377 1_655 S
C108 C106 1.364 1_455 S
C108 C109 1.374 . S
C109 H100 0.930 . S
C109 C108 1.374 . S
C109 C110 1.383 . S
C110 O104 1.412 . S
C110 C109 1.383 . S
C110 C111 1.394 . S
C111 H101 0.929 . S
C111 C107 1.377 1_455 S
C111 C110 1.394 . S
H112 C119 0.929 . S
H113 C122 0.930 . S
H114 C124 0.929 . S
H115 C116 0.969 . S
C116 H115 0.969 . S
C116 O117 1.550 . S
C116 H118 0.973 . S
O117 C116 1.550 . S
O117 C123 1.412 . S
H118 C116 0.973 . S
C119 H112 0.929 . S
C119 C120 1.400 . S
C119 C121 1.364 1_565 S
C120 C119 1.400 . S
C120 C124 1.377 1_565 S
C121 C119 1.364 1_545 S
C121 C122 1.374 . S
C122 H113 0.930 . S
C122 C121 1.374 . S
C122 C123 1.383 . S
C123 O117 1.412 . S
C123 C122 1.383 . S
C123 C124 1.394 . S
C124 H114 0.929 . S
C124 C120 1.377 1_545 S
C124 C123 1.394 . S
H125 C132 0.929 . S
H126 C135 0.930 . S
H127 C137 0.929 . S
H128 C129 0.969 . S
C129 H128 0.969 . S
C129 O130 1.550 . S
C129 H131 0.973 . S
O130 C129 1.550 . S
O130 C136 1.412 . S
H131 C129 0.973 . S
C132 H125 0.929 . S
C132 C133 1.400 . S
C132 C134 1.364 . S
C133 C132 1.400 . S
C133 C137 1.377 . S
C134 C132 1.364 . S
C134 C135 1.374 . S
C135 H126 0.930 . S
C135 C134 1.374 . S
C135 C136 1.383 . S
C136 O130 1.412 . S
C136 C135 1.383 . S
C136 C137 1.394 . S
C137 H127 0.929 . S
C137 C133 1.377 . S
C137 C136 1.394 . S
C138 C139 1.369 . S
C138 C140 1.419 . S
C138 H142 0.930 . S
C139 C138 1.369 . S
C139 C148 1.429 . S
C140 C138 1.419 . S
C140 C141 1.363 . S
C140 H143 0.929 . S
C141 C140 1.363 . S
C141 C147 1.428 . S
H142 C138 0.930 . S
H143 C140 0.929 . S
S144 N145 1.613 . S
S144 N146 1.610 . S
N145 S144 1.613 . S
N145 C148 1.350 . S
N146 S144 1.610 . S
N146 C147 1.351 . S
C147 C141 1.428 . S
C147 N146 1.351 . S
C147 C148 1.434 . S
C148 C139 1.429 . S
C148 N145 1.350 . S
C148 C147 1.434 . S
C149 C150 1.369 . S
C149 C151 1.419 . S
C149 H153 0.930 . S
C150 C149 1.369 . S
C150 C159 1.429 . S
C151 C149 1.419 . S
C151 C152 1.363 . S
C151 H154 0.929 . S
C152 C151 1.363 . S
C152 C158 1.428 . S
H153 C149 0.930 . S
H154 C151 0.929 . S
S155 N156 1.613 . S
S155 N157 1.610 . S
N156 S155 1.613 . S
N156 C159 1.350 . S
N157 S155 1.610 . S
N157 C158 1.351 . S
C158 C152 1.428 . S
C158 N157 1.351 . S
C158 C159 1.434 . S
C159 C150 1.429 . S
C159 N156 1.350 . S
C159 C158 1.434 . S
C160 C161 1.369 . S
C160 C162 1.419 . S
C160 H164 0.930 . S
C161 C160 1.369 . S
C161 C170 1.429 . S
C162 C160 1.419 . S
C162 C163 1.363 . S
C162 H165 0.929 . S
C163 C162 1.363 . S
C163 C169 1.428 . S
H164 C160 0.930 . S
H165 C162 0.929 . S
S166 N167 1.613 . S
S166 N168 1.610 . S
N167 S166 1.613 . S
N167 C170 1.350 . S
N168 S166 1.610 . S
N168 C169 1.351 . S
C169 C163 1.428 . S
C169 N168 1.351 . S
C169 C170 1.434 . S
C170 C161 1.429 . S
C170 N167 1.350 . S
C170 C169 1.434 . S
C171 C172 1.369 . S
C171 C173 1.419 . S
C171 H175 0.930 . S
C172 C171 1.369 . S
C172 C181 1.429 . S
C173 C171 1.419 . S
C173 C174 1.363 . S
C173 H176 0.929 . S
C174 C173 1.363 . S
C174 C180 1.428 . S
H175 C171 0.930 . S
H176 C173 0.929 . S
S177 N178 1.613 . S
S177 N179 1.610 . S
N178 S177 1.613 . S
N178 C181 1.350 . S
N179 S177 1.610 . S
N179 C180 1.351 . S
C180 C174 1.428 . S
C180 N179 1.351 . S
C180 C181 1.434 . S
C181 C172 1.429 . S
C181 N178 1.350 . S
C181 C180 1.434 . S
C182 C183 1.369 . S
C182 C184 1.419 . S
C182 H186 0.930 . S
C183 C182 1.369 . S
C183 C192 1.429 . S
C184 C182 1.419 . S
C184 C185 1.363 . S
C184 H187 0.929 . S
C185 C184 1.363 . S
C185 C191 1.428 . S
H186 C182 0.930 . S
H187 C184 0.929 . S
S188 N189 1.613 . S
S188 N190 1.610 . S
N189 S188 1.613 . S
N189 C192 1.350 . S
N190 S188 1.610 . S
N190 C191 1.351 . S
C191 C185 1.428 . S
C191 N190 1.351 . S
C191 C192 1.434 . S
C192 C183 1.429 . S
C192 N189 1.350 . S
C192 C191 1.434 . S
C193 C194 1.369 . S
C193 C195 1.419 . S
C193 H197 0.930 . S
C194 C193 1.369 . S
C194 C203 1.429 . S
C195 C193 1.419 . S
C195 C196 1.363 . S
C195 H198 0.929 . S
C196 C195 1.363 . S
C196 C202 1.428 . S
H197 C193 0.930 . S
H198 C195 0.929 . S
S199 N200 1.613 . S
S199 N201 1.610 . S
N200 S199 1.613 . S
N200 C203 1.350 . S
N201 S199 1.610 . S
N201 C202 1.351 . S
C202 C196 1.428 . S
C202 N201 1.351 . S
C202 C203 1.434 . S
C203 C194 1.429 . S
C203 N200 1.350 . S
C203 C202 1.434 . S
C204 C205 1.369 . S
C204 C206 1.419 . S
C204 H208 0.930 . S
C205 C204 1.369 . S
C205 C214 1.429 . S
C206 C204 1.419 . S
C206 C207 1.363 . S
C206 H209 0.929 . S
C207 C206 1.363 . S
C207 C213 1.428 . S
H208 C204 0.930 . S
H209 C206 0.929 . S
S210 N211 1.613 . S
S210 N212 1.610 . S
N211 S210 1.613 . S
N211 C214 1.350 . S
N212 S210 1.610 . S
N212 C213 1.351 . S
C213 C207 1.428 . S
C213 N212 1.351 . S
C213 C214 1.434 . S
C214 C205 1.429 . S
C214 N211 1.350 . S
C214 C213 1.434 . S
C215 C216 1.369 . S
C215 C217 1.419 . S
C215 H219 0.930 . S
C216 C215 1.369 . S
C216 C225 1.429 . S
C217 C215 1.419 . S
C217 C218 1.363 . S
C217 H220 0.929 . S
C218 C217 1.363 . S
C218 C224 1.428 . S
H219 C215 0.930 . S
H220 C217 0.929 . S
S221 N222 1.613 . S
S221 N223 1.610 . S
N222 S221 1.613 . S
N222 C225 1.350 . S
N223 S221 1.610 . S
N223 C224 1.351 . S
C224 C218 1.428 . S
C224 N223 1.351 . S
C224 C225 1.434 . S
C225 C216 1.429 . S
C225 N222 1.350 . S
C225 C224 1.434 . S
C226 C227 1.369 . S
C226 C228 1.419 . S
C226 H230 0.930 . S
C227 C226 1.369 . S
C227 C236 1.429 . S
C228 C226 1.419 . S
C228 C229 1.363 . S
C228 H231 0.929 . S
C229 C228 1.363 . S
C229 C235 1.428 . S
H230 C226 0.930 . S
H231 C228 0.929 . S
S232 N233 1.613 . S
S232 N234 1.610 . S
N233 S232 1.613 . S
N233 C236 1.350 . S
N234 S232 1.610 . S
N234 C235 1.351 . S
C235 C229 1.428 . S
C235 N234 1.351 . S
C235 C236 1.434 . S
C236 C227 1.429 . S
C236 N233 1.350 . S
C236 C235 1.434 . S
C237 C238 1.369 . S
C237 C239 1.419 . S
C237 H241 0.930 . S
C238 C237 1.369 . S
C238 C247 1.429 . S
C239 C237 1.419 . S
C239 C240 1.363 . S
C239 H242 0.929 . S
C240 C239 1.363 . S
C240 C246 1.428 . S
H241 C237 0.930 . S
H242 C239 0.929 . S
S243 N244 1.613 . S
S243 N245 1.610 . S
N244 S243 1.613 . S
N244 C247 1.350 . S
N245 S243 1.610 . S
N245 C246 1.351 . S
C246 C240 1.428 . S
C246 N245 1.351 . S
C246 C247 1.434 . S
C247 C238 1.429 . S
C247 N244 1.350 . S
C247 C246 1.434 . S
C248 C249 1.369 . S
C248 C250 1.419 . S
C248 H252 0.930 . S
C249 C248 1.369 . S
C249 C258 1.429 . S
C250 C248 1.419 . S
C250 C251 1.363 . S
C250 H253 0.929 . S
C251 C250 1.363 . S
C251 C257 1.428 . S
H252 C248 0.930 . S
H253 C250 0.929 . S
S254 N255 1.613 . S
S254 N256 1.610 . S
N255 S254 1.613 . S
N255 C258 1.350 . S
N256 S254 1.610 . S
N256 C257 1.351 . S
C257 C251 1.428 . S
C257 N256 1.351 . S
C257 C258 1.434 . S
C258 C249 1.429 . S
C258 N255 1.350 . S
C258 C257 1.434 . S
C259 C260 1.369 . S
C259 C261 1.419 . S
C259 H263 0.930 . S
C260 C259 1.369 . S
C260 C269 1.429 . S
C261 C259 1.419 . S
C261 C262 1.363 . S
C261 H264 0.929 . S
C262 C261 1.363 . S
C262 C268 1.428 . S
H263 C259 0.930 . S
H264 C261 0.929 . S
S265 N266 1.613 . S
S265 N267 1.610 . S
N266 S265 1.613 . S
N266 C269 1.350 . S
N267 S265 1.610 . S
N267 C268 1.351 . S
C268 C262 1.428 . S
C268 N267 1.351 . S
C268 C269 1.434 . S
C269 C260 1.429 . S
C269 N266 1.350 . S
C269 C268 1.434 . S
C270 C271 1.369 1_655 S
C270 C272 1.419 1_554 S
C270 H274 0.930 . S
C271 C270 1.369 1_455 S
C271 C280 1.429 . S
C272 C270 1.419 1_556 S
C272 C273 1.363 1_655 S
C272 H275 0.929 . S
C273 C272 1.363 1_455 S
C273 C279 1.428 . S
H274 C270 0.930 . S
H275 C272 0.929 . S
S276 N277 1.613 . S
S276 N278 1.610 1_554 S
N277 S276 1.613 . S
N277 C280 1.350 . S
N278 S276 1.610 1_556 S
N278 C279 1.351 . S
C279 C273 1.428 . S
C279 N278 1.351 . S
C279 C280 1.434 1_556 S
C280 C271 1.429 . S
C280 N277 1.350 . S
C280 C279 1.434 1_554 S
C281 C282 1.369 1_565 S
C281 C283 1.419 . S
C281 H285 0.930 . S
C282 C281 1.369 1_545 S
C282 C291 1.429 . S
C283 C281 1.419 . S
C283 C284 1.363 1_565 S
C283 H286 0.929 . S
C284 C283 1.363 1_545 S
C284 C290 1.428 . S
H285 C281 0.930 . S
H286 C283 0.929 . S
S287 N288 1.613 . S
S287 N289 1.610 . S
N288 S287 1.613 . S
N288 C291 1.350 . S
N289 S287 1.610 . S
N289 C290 1.351 . S
C290 C284 1.428 . S
C290 N289 1.351 . S
C290 C291 1.434 . S
C291 C282 1.429 . S
C291 N288 1.350 . S
C291 C290 1.434 . S
C292 C293 1.369 . S
C292 C294 1.419 . S
C292 H296 0.930 . S
C293 C292 1.369 . S
C293 C302 1.429 . S
C294 C292 1.419 . S
C294 C295 1.363 . S
C294 H297 0.929 . S
C295 C294 1.363 . S
C295 C301 1.428 . S
H296 C292 0.930 . S
H297 C294 0.929 . S
S298 N299 1.613 . S
S298 N300 1.610 . S
N299 S298 1.613 . S
N299 C302 1.350 . S
N300 S298 1.610 . S
N300 C301 1.351 . S
C301 C295 1.428 . S
C301 N300 1.351 . S
C301 C302 1.434 . S
C302 C293 1.429 . S
C302 N299 1.350 . S
C302 C301 1.434 . S
C303 C304 1.369 1_565 S
C303 C305 1.419 . S
C303 H307 0.930 . S
C304 C303 1.369 1_545 S
C304 C313 1.429 . S
C305 C303 1.419 . S
C305 C306 1.363 1_565 S
C305 H308 0.929 . S
C306 C305 1.363 1_545 S
C306 C312 1.428 . S
H307 C303 0.930 . S
H308 C305 0.929 . S
S309 N310 1.613 . S
S309 N311 1.610 . S
N310 S309 1.613 . S
N310 C313 1.350 . S
N311 S309 1.610 . S
N311 C312 1.351 . S
C312 C306 1.428 . S
C312 N311 1.351 . S
C312 C313 1.434 . S
C313 C304 1.429 . S
C313 N310 1.350 . S
C313 C312 1.434 . S
C314 C315 1.369 . S
C314 C316 1.419 1_556 S
C314 H318 0.930 . S
C315 C314 1.369 . S
C315 C324 1.429 . S
C316 C314 1.419 1_554 S
C316 C317 1.363 . S
C316 H319 0.929 . S
C317 C316 1.363 . S
C317 C323 1.428 . S
H318 C314 0.930 . S
H319 C316 0.929 . S
S320 N321 1.613 . S
S320 N322 1.610 1_556 S
N321 S320 1.613 . S
N321 C324 1.350 . S
N322 S320 1.610 1_554 S
N322 C323 1.351 . S
C323 C317 1.428 . S
C323 N322 1.351 . S
C323 C324 1.434 1_554 S
C324 C315 1.429 . S
C324 N321 1.350 . S
C324 C323 1.434 1_556 S
C325 C326 1.369 . S
C325 C327 1.419 . S
C325 H329 0.930 . S
C326 C325 1.369 . S
C326 C335 1.429 1_455 S
C327 C325 1.419 . S
C327 C328 1.363 . S
C327 H330 0.929 . S
C328 C327 1.363 . S
C328 C334 1.428 . S
H329 C325 0.930 . S
H330 C327 0.929 . S
S331 N332 1.613 . S
S331 N333 1.610 . S
N332 S331 1.613 . S
N332 C335 1.350 . S
N333 S331 1.610 . S
N333 C334 1.351 1_655 S
C334 C328 1.428 . S
C334 N333 1.351 1_455 S
C334 C335 1.434 1_455 S
C335 C326 1.429 1_655 S
C335 N332 1.350 . S
C335 C334 1.434 1_655 S
C139 C2 1.136 . S
C141 C129 1.068 . S
C150 C21 0.989 . S
C152 C107 0.985 . S
C161 C42 1.024 . S
C163 C120 1.019 . S
C172 C1 0.980 . S
C174 C133 0.981 . S
C185 C103 1.113 . S
C183 C22 1.157 . S
C196 C116 1.052 . S
C194 C41 1.093 . S
C205 C38 1.848 . S
C207 C81 1.823 . S
C216 C59 1.899 . S
C218 C94 1.867 1_655 S
C227 C18 1.950 . S
C229 C64 1.788 . S
C240 C77 1.844 . S
C238 C39 2.014 . S
C251 C90 1.807 . S
C249 C58 1.959 . S
C260 C19 1.904 . S
C262 C68 1.868 . S
C273 C95 1.592 . S
C271 C9 1.543 . S
C282 C29 1.539 . S
C284 C69 1.572 . S
C293 C49 1.516 . S
C295 C82 1.621 . S
C306 C121 1.440 . S
C304 C28 1.394 . S
C317 C134 1.489 . S
C315 C48 1.476 . S
C326 C8 1.437 . S
C328 C108 1.466 . S
