# Generated by pormake.
# Topology nom, (4,4)-cn, num edge types: 1
# Building blocks:
#     Node 0, Type 0, BuildingBlock: KUFVIS_clean_linker_0, # of connection points: 4
#     Node 1, Type 0, BuildingBlock: KUFVIS_clean_linker_0, # of connection points: 4
#     Node 2, Type 0, BuildingBlock: KUFVIS_clean_linker_0, # of connection points: 4
#     Node 3, Type 0, BuildingBlock: KUFVIS_clean_linker_0, # of connection points: 4
#     Node 4, Type 0, BuildingBlock: KUFVIS_clean_linker_0, # of connection points: 4
#     Node 5, Type 0, BuildingBlock: KUFVIS_clean_linker_0, # of connection points: 4
#     Node 6, Type 1, BuildingBlock: AZAVOO_clean_sbu_0, # of connection points: 4
#     Node 7, Type 1, BuildingBlock: AZAVOO_clean_sbu_0, # of connection points: 4
#     Node 8, Type 1, BuildingBlock: AZAVOO_clean_sbu_0, # of connection points: 4
#     Node 9, Type 1, BuildingBlock: AZAVOO_clean_sbu_0, # of connection points: 4
#     Node 10, Type 1, BuildingBlock: AZAVOO_clean_sbu_0, # of connection points: 4
#     Node 11, Type 1, BuildingBlock: AZAVOO_clean_sbu_0, # of connection points: 4
#     Edge 12, Type (0, 1), BuildingBlock: UVAHIK_clean_linker_0, # of connection points: 2
#     Edge 13, Type (0, 1), BuildingBlock: UVAHIK_clean_linker_0, # of connection points: 2
#     Edge 14, Type (0, 1), BuildingBlock: UVAHIK_clean_linker_0, # of connection points: 2
#     Edge 15, Type (0, 1), BuildingBlock: UVAHIK_clean_linker_0, # of connection points: 2
#     Edge 16, Type (0, 1), BuildingBlock: UVAHIK_clean_linker_0, # of connection points: 2
#     Edge 17, Type (0, 1), BuildingBlock: UVAHIK_clean_linker_0, # of connection points: 2
#     Edge 18, Type (0, 1), BuildingBlock: UVAHIK_clean_linker_0, # of connection points: 2
#     Edge 19, Type (0, 1), BuildingBlock: UVAHIK_clean_linker_0, # of connection points: 2
#     Edge 20, Type (0, 1), BuildingBlock: UVAHIK_clean_linker_0, # of connection points: 2
#     Edge 21, Type (0, 1), BuildingBlock: UVAHIK_clean_linker_0, # of connection points: 2
#     Edge 22, Type (0, 1), BuildingBlock: UVAHIK_clean_linker_0, # of connection points: 2
#     Edge 23, Type (0, 1), BuildingBlock: UVAHIK_clean_linker_0, # of connection points: 2
#     Edge 24, Type (0, 1), BuildingBlock: UVAHIK_clean_linker_0, # of connection points: 2
#     Edge 25, Type (0, 1), BuildingBlock: UVAHIK_clean_linker_0, # of connection points: 2
#     Edge 26, Type (0, 1), BuildingBlock: UVAHIK_clean_linker_0, # of connection points: 2
#     Edge 27, Type (0, 1), BuildingBlock: UVAHIK_clean_linker_0, # of connection points: 2
#     Edge 28, Type (0, 1), BuildingBlock: UVAHIK_clean_linker_0, # of connection points: 2
#     Edge 29, Type (0, 1), BuildingBlock: UVAHIK_clean_linker_0, # of connection points: 2
#     Edge 30, Type (0, 1), BuildingBlock: UVAHIK_clean_linker_0, # of connection points: 2
#     Edge 31, Type (0, 1), BuildingBlock: UVAHIK_clean_linker_0, # of connection points: 2
#     Edge 32, Type (0, 1), BuildingBlock: UVAHIK_clean_linker_0, # of connection points: 2
#     Edge 33, Type (0, 1), BuildingBlock: UVAHIK_clean_linker_0, # of connection points: 2
#     Edge 34, Type (0, 1), BuildingBlock: UVAHIK_clean_linker_0, # of connection points: 2
#     Edge 35, Type (0, 1), BuildingBlock: UVAHIK_clean_linker_0, # of connection points: 2
# Relax obj value: 0.031
# Max RMSD: 0.158
# Mean RMSD: 0.093
data_MOF--net-nom--node1-AZAVOO_clean_sbu_0--node2-KUFVIS_clean_linker_0--edge1-UVAHIK_clean_linker_0
_symmetry_space_group_name_H-M    P1
_symmetry_Int_Tables_number       1
_symmetry_cell_setting            triclinic
loop_
_symmetry_equiv_pos_as_xyz
'x, y, z'
_cell_length_a     59.162921
_cell_length_b     59.694202
_cell_length_c     57.692881
_cell_angle_alpha  91.249073
_cell_angle_beta   91.206427
_cell_angle_gamma 120.08591
loop_
_atom_site_label
_atom_site_type_symbol
_atom_site_fract_x
_atom_site_fract_y
_atom_site_fract_z
_atom_type_partial_charge
H0 H 0.09482 0.55613 0.34286 0.0
H1 H 0.03591 0.55031 0.29467 0.0
H2 H 0.01536 0.51852 0.36301 0.0
H3 H 0.98256 0.52584 0.35735 0.0
H4 H 0.92008 0.50017 0.30661 0.0
H5 H 0.9957 0.51717 0.28485 0.0
C6 C 0.07435 0.54902 0.33842 0.0
C7 C 0.05583 0.53716 0.35524 0.0
C8 C 0.0672 0.55354 0.31656 0.0
C9 C 0.04092 0.54568 0.31135 0.0
C10 C 0.02147 0.53233 0.3277 0.0
C11 C 0.02941 0.52837 0.34985 0.0
C12 C 0.99323 0.5232 0.32185 0.0
C13 C 0.97588 0.52089 0.33939 0.0
C14 C 0.9496 0.51252 0.33382 0.0
C15 C 0.94056 0.50705 0.31069 0.0
C16 C 0.95712 0.50897 0.29296 0.0
C17 C 0.98328 0.51657 0.29862 0.0
H18 H 0.5324 0.10025 0.50528 0.0
H19 H 0.51923 0.04372 0.45213 0.0
H20 H 0.49025 0.02035 0.52126 0.0
H21 H 0.48841 0.98453 0.51265 0.0
H22 H 0.46558 0.92737 0.45776 0.0
H23 H 0.49046 0.00522 0.44055 0.0
C24 C 0.52399 0.08008 0.49968 0.0
C25 C 0.51148 0.06083 0.5157 0.0
C26 C 0.52649 0.07388 0.47678 0.0
C27 C 0.51596 0.04776 0.46969 0.0
C28 C 0.50252 0.02754 0.48537 0.0
C29 C 0.50047 0.0347 0.50853 0.0
C30 C 0.49147 0.99941 0.47779 0.0
C31 C 0.48538 0.97994 0.49424 0.0
C32 C 0.47576 0.95396 0.48709 0.0
C33 C 0.47309 0.9474 0.46343 0.0
C34 C 0.47897 0.96597 0.44683 0.0
C35 C 0.48724 0.99164 0.45391 0.0
H36 H 0.54107 0.44179 0.60573 0.0
H37 H 0.51716 0.47502 0.65938 0.0
H38 H 0.51603 0.49517 0.58765 0.0
H39 H 0.48604 0.50397 0.59876 0.0
H40 H 0.48529 0.55664 0.64977 0.0
H41 H 0.5218 0.51283 0.66739 0.0
C42 C 0.53348 0.45428 0.61092 0.0
C43 C 0.52749 0.46707 0.59404 0.0
C44 C 0.53063 0.45785 0.63443 0.0
C45 C 0.52029 0.47353 0.64116 0.0
C46 C 0.51486 0.48754 0.62454 0.0
C47 C 0.51906 0.48431 0.6009 0.0
C48 C 0.50587 0.50612 0.63178 0.0
C49 C 0.49193 0.51303 0.61594 0.0
C50 C 0.48536 0.53187 0.62216 0.0
C51 C 0.49136 0.5429 0.64463 0.0
C52 C 0.5036 0.53526 0.661 0.0
C53 C 0.51135 0.51742 0.65453 0.0
H54 H 0.10296 0.54907 0.7954 0.0
H55 H 0.04605 0.51834 0.84791 0.0
H56 H 0.02287 0.52295 0.77716 0.0
H57 H 0.98573 0.48724 0.78711 0.0
H58 H 0.93042 0.48183 0.83656 0.0
H59 H 0.01217 0.52451 0.85534 0.0
C60 C 0.08283 0.54072 0.80046 0.0
C61 C 0.06335 0.53574 0.78368 0.0
C62 C 0.07675 0.53509 0.82366 0.0
C63 C 0.05058 0.52352 0.83004 0.0
C64 C 0.0306 0.51898 0.81344 0.0
C65 C 0.03749 0.52565 0.79026 0.0
C66 C 1.00278 0.50788 0.82015 0.0
C67 C 0.98194 0.49248 0.80407 0.0
C68 C 0.95595 0.48374 0.80975 0.0
C69 C 0.95059 0.48948 0.83188 0.0
C70 C 0.97076 0.50346 0.8485 0.0
C71 C 0.99678 0.51293 0.84252 0.0
H72 H 0.47757 0.93067 0.0168 0.0
H73 H 0.5134 0.98255 0.96151 0.0
H74 H 0.50254 0.01098 0.02768 0.0
H75 H 0.53988 0.04714 0.01757 0.0
H76 H 0.54677 0.09664 0.96223 0.0
H77 H 0.50645 0.01446 0.94918 0.0
C78 C 0.48663 0.95007 0.01023 0.0
C79 C 0.4901 0.97062 0.02483 0.0
C80 C 0.49437 0.95414 0.98724 0.0
C81 C 0.50677 0.97946 0.97912 0.0
C82 C 0.50994 1.00045 0.99352 0.0
C83 C 0.50109 0.99556 0.01637 0.0
C84 C 0.5213 0.02718 0.98464 0.0
C85 C 0.53554 0.04923 -0.00032 0.0
C86 C 0.54411 0.07421 0.99178 0.0
C87 C 0.53933 0.07729 0.96856 0.0
C88 C 0.52647 0.05583 0.95311 0.0
C89 C 0.51722 0.03087 0.9612 0.0
H90 H 0.49983 0.59892 0.12814 0.0
H91 H 0.51603 0.55545 0.17704 0.0
H92 H 0.51376 0.53868 0.10344 0.0
H93 H 0.546 0.52959 0.11623 0.0
H94 H 0.53475 0.46694 0.15871 0.0
H95 H 0.49946 0.51186 0.1773 0.0
C96 C 0.50506 0.58426 0.13156 0.0
C97 C 0.50723 0.56998 0.11302 0.0
C98 C 0.50781 0.57879 0.15455 0.0
C99 C 0.51348 0.55912 0.15915 0.0
C100 C 0.51605 0.54456 0.14082 0.0
C101 C 0.51264 0.55009 0.11776 0.0
C102 C 0.52139 0.52311 0.1457 0.0
C103 C 0.53698 0.51768 0.13092 0.0
C104 C 0.54135 0.49703 0.13526 0.0
C105 C 0.53045 0.48211 0.15464 0.0
C106 C 0.51591 0.48781 0.16996 0.0
C107 C 0.51116 0.50805 0.16541 0.0
Mg108 Mg 0.63059 0.36938 0.35502 0.0
O109 O 0.62104 0.38949 0.38497 0.0
O110 O 0.63481 0.42992 0.37376 0.0
Mg111 Mg 0.65254 0.43588 0.33829 0.0
C112 C 0.62414 0.41216 0.38845 0.0
C113 C 0.60885 0.31298 0.36599 0.0
O114 O 0.59977 0.31269 0.34494 0.0
O115 O 0.67396 0.39177 0.36639 0.0
O116 O 0.6857 0.43128 0.35434 0.0
O117 O 0.59157 0.35672 0.33826 0.0
O118 O 0.62696 0.39404 0.33194 0.0
C119 C 0.69126 0.41545 0.36389 0.0
C120 C 0.60203 0.3791 0.32895 0.0
O121 O 0.62324 0.33475 0.37656 0.0
Mg122 Mg 0.28067 0.64723 0.58531 0.0
O123 O 0.25234 0.62683 0.55353 0.0
O124 O 0.22858 0.58497 0.56217 0.0
Mg125 Mg 0.24011 0.5786 0.59822 0.0
C126 C 0.23449 0.60344 0.54842 0.0
C127 C 0.30929 0.70486 0.5756 0.0
O128 O 0.29635 0.70302 0.59436 0.0
O129 O 0.30565 0.62933 0.57526 0.0
O130 O 0.28026 0.58826 0.58509 0.0
O131 O 0.25058 0.65442 0.60086 0.0
O132 O 0.25344 0.61946 0.60656 0.0
C133 C 0.30151 0.60629 0.57725 0.0
C134 C 0.2409 0.63173 0.60948 0.0
O135 O 0.3066 0.68422 0.56598 0.0
Mg136 Mg 0.64112 0.26715 0.7555 0.0
O137 O 0.62974 0.23974 0.72309 0.0
O138 O 0.64686 0.21431 0.72923 0.0
Mg139 Mg 0.6688 0.22508 0.76435 0.0
C140 C 0.6334 0.22114 0.71677 0.0
C141 C 0.61105 0.29585 0.74578 0.0
O142 O 0.59973 0.28283 0.7642 0.0
O143 O 0.68334 0.29126 0.74464 0.0
O144 O 0.69954 0.2655 0.75247 0.0
O145 O 0.60467 0.23826 0.7715 0.0
O146 O 0.64217 0.23873 0.77529 0.0
C147 C 0.70244 0.28702 0.74578 0.0
C148 C 0.61743 0.22726 0.77878 0.0
O149 O 0.62943 0.29354 0.73716 0.0
Mg150 Mg 0.39559 0.65001 0.8651 0.0
O151 O 0.40684 0.63336 0.89624 0.0
O152 O 0.3912 0.59133 0.88746 0.0
Mg153 Mg 0.37053 0.58094 0.85184 0.0
C154 C 0.40353 0.61114 0.90122 0.0
C155 C 0.42989 0.70558 0.88751 0.0
O156 O 0.44784 0.70159 0.87852 0.0
O157 O 0.35289 0.63024 0.87574 0.0
O158 O 0.33892 0.58878 0.86592 0.0
O159 O 0.43254 0.65866 0.84821 0.0
O160 O 0.39556 0.62162 0.84297 0.0
C161 C 0.33479 0.60649 0.87394 0.0
C162 C 0.42017 0.63532 0.8393 0.0
O163 O 0.40612 0.68745 0.88594 0.0
Mg164 Mg 0.75209 0.39407 0.04681 0.0
O165 O 0.77921 0.40256 0.0794 0.0
O166 O 0.80409 0.38517 0.07108 0.0
Mg167 Mg 0.79436 0.36699 0.03448 0.0
C168 C 0.7973 0.39759 0.08489 0.0
C169 C 0.73144 0.42796 0.06993 0.0
O170 O 0.75521 0.44605 0.06518 0.0
O171 O 0.72743 0.35124 0.05523 0.0
O172 O 0.75349 0.33583 0.04531 0.0
O173 O 0.78153 0.43131 0.03198 0.0
O174 O 0.78094 0.3943 0.02643 0.0
C175 C 0.73175 0.33243 0.05252 0.0
C176 C 0.79247 0.41893 0.02366 0.0
O177 O 0.72468 0.40433 0.06586 0.0
Mg178 Mg 0.3698 0.7523 0.21077 0.0
O179 O 0.39119 0.78475 0.23939 0.0
O180 O 0.43072 0.81132 0.22579 0.0
Mg181 Mg 0.43577 0.79595 0.19114 0.0
C182 C 0.41367 0.80537 0.24123 0.0
C183 C 0.31983 0.7346 0.23882 0.0
O184 O 0.32459 0.75756 0.23261 0.0
O185 O 0.39287 0.73252 0.22167 0.0
O186 O 0.43196 0.75982 0.20798 0.0
O187 O 0.35668 0.77717 0.19357 0.0
O188 O 0.39334 0.77767 0.18594 0.0
C189 C 0.41663 0.73907 0.21818 0.0
C190 C 0.37873 0.78781 0.18333 0.0
O191 O 0.33619 0.72742 0.23407 0.0
C192 C 0.10588 0.56003 0.29502 0.0
C193 C 0.08823 0.56843 0.3004 0.0
C194 C 0.12962 0.5768 0.28517 0.0
C195 C 0.16827 0.64056 0.25825 0.0
H196 H 0.22637 0.63987 0.29002 0.0
C197 C 0.27494 0.72318 0.25076 0.0
C198 C 0.29397 0.71594 0.24773 0.0
C199 C 0.24955 0.70487 0.25653 0.0
C200 C 0.2104 0.64015 0.28077 0.0
H201 H 0.08059 0.60019 0.29842 0.0
H202 H 0.12226 0.62975 0.28122 0.0
H203 H 0.18181 0.60768 0.29867 0.0
H204 H 0.3014 0.68389 0.24909 0.0
H205 H 0.25711 0.65197 0.25913 0.0
H206 H 0.19704 0.67331 0.24053 0.0
C207 C 0.11769 0.61013 0.28439 0.0
C208 C 0.18481 0.62162 0.28566 0.0
C209 C 0.09379 0.59322 0.29415 0.0
C210 C 0.28726 0.69015 0.25137 0.0
C211 C 0.26185 0.67184 0.25715 0.0
C212 C 0.19393 0.65914 0.25334 0.0
C213 C 0.13631 0.60243 0.28071 0.0
C214 C 0.16341 0.62158 0.27447 0.0
C215 C 0.24259 0.6789 0.25945 0.0
C216 C 0.2153 0.65918 0.2646 0.0
H217 H 0.10194 0.54095 0.29969 0.0
H218 H 0.14324 0.57006 0.28201 0.0
H219 H 0.15224 0.64095 0.24922 0.0
H220 H 0.27946 0.74289 0.24816 0.0
H221 H 0.23531 0.71104 0.25861 0.0
C222 C 0.52781 0.09617 0.43999 0.0
C223 C 0.54022 0.09538 0.46073 0.0
C224 C 0.53822 0.11906 0.42768 0.0
C225 C 0.57699 0.18897 0.43974 0.0
H226 H 0.57819 0.19439 0.37294 0.0
C227 C 0.61586 0.28779 0.39694 0.0
C228 C 0.60262 0.28824 0.37662 0.0
C229 C 0.6102 0.26417 0.40635 0.0
C230 C 0.57772 0.19319 0.39163 0.0
H231 H 0.57435 0.11689 0.48369 0.0
H232 H 0.59253 0.15664 0.46221 0.0
H233 H 0.56522 0.15264 0.38982 0.0
H234 H 0.57278 0.26423 0.35044 0.0
H235 H 0.56239 0.22332 0.36714 0.0
H236 H 0.58859 0.22912 0.44174 0.0
C237 C 0.57453 0.1399 0.4557 0.0
C238 C 0.57038 0.16926 0.40127 0.0
C239 C 0.56421 0.11712 0.46791 0.0
C240 C 0.58348 0.2646 0.36604 0.0
C241 C 0.57766 0.24106 0.37553 0.0
C242 C 0.58408 0.21279 0.43014 0.0
C243 C 0.56116 0.14145 0.43596 0.0
C244 C 0.5699 0.16689 0.42543 0.0
C245 C 0.59099 0.24047 0.39576 0.0
C246 C 0.58443 0.21524 0.40596 0.0
H247 H 0.50923 0.07973 0.43416 0.0
H248 H 0.52746 0.11968 0.41252 0.0
H249 H 0.57635 0.18768 0.45844 0.0
H250 H 0.63083 0.30566 0.40541 0.0
H251 H 0.62112 0.26451 0.42178 0.0
C252 C 0.48145 0.56582 0.60114 0.0
C253 C 0.47097 0.53959 0.60601 0.0
C254 C 0.46593 0.57437 0.59036 0.0
C255 C 0.4244 0.58931 0.58854 0.0
H256 H 0.3656 0.54866 0.54567 0.0
C257 C 0.31676 0.57442 0.57106 0.0
C258 C 0.32237 0.60029 0.57186 0.0
C259 C 0.33674 0.56859 0.569 0.0
C260 C 0.38199 0.56027 0.55761 0.0
H261 H 0.43667 0.50145 0.6024 0.0
H262 H 0.40918 0.51632 0.584 0.0
H263 H 0.39792 0.53527 0.55276 0.0
H264 H 0.35331 0.64027 0.56971 0.0
H265 H 0.3883 0.63004 0.56612 0.0
H266 H 0.40816 0.61383 0.59396 0.0
C267 C 0.42952 0.53032 0.58802 0.0
C268 C 0.40048 0.55257 0.56171 0.0
C269 C 0.44521 0.52174 0.59857 0.0
C270 C 0.34831 0.62015 0.56928 0.0
C271 C 0.36837 0.6143 0.56734 0.0
C272 C 0.40603 0.59704 0.58436 0.0
C273 C 0.43943 0.55691 0.58459 0.0
C274 C 0.42161 0.56668 0.57765 0.0
C275 C 0.36287 0.58848 0.56775 0.0
C276 C 0.38427 0.58229 0.56929 0.0
H277 H 0.50133 0.57991 0.60671 0.0
H278 H 0.47441 0.59486 0.58748 0.0
H279 H 0.44007 0.60044 0.60126 0.0
H280 H 0.29698 0.55859 0.57282 0.0
H281 H 0.3318 0.54852 0.5696 0.0
C282 C 0.9155 0.47513 0.78774 0.0
C283 C 0.93381 0.46752 0.79331 0.0
C284 C 0.89207 0.458 0.77579 0.0
C285 C 0.8553 0.39324 0.74444 0.0
H286 H 0.79577 0.39345 0.77107 0.0
C287 C 0.75073 0.30446 0.74331 0.0
C288 C 0.72931 0.30859 0.74196 0.0
C289 C 0.77634 0.32536 0.74374 0.0
C290 C 0.81212 0.39336 0.76306 0.0
H291 H 0.94272 0.43664 0.78998 0.0
H292 H 0.90141 0.40626 0.76967 0.0
H293 H 0.83959 0.42739 0.78253 0.0
H294 H 0.71822 0.33795 0.73826 0.0
H295 H 0.76292 0.37435 0.73894 0.0
H296 H 0.82742 0.3583 0.72579 0.0
C297 C 0.90528 0.42563 0.77399 0.0
C298 C 0.83738 0.41293 0.76962 0.0
C299 C 0.92895 0.44298 0.78566 0.0
C300 C 0.73418 0.33401 0.73949 0.0
C301 C 0.75982 0.35492 0.74001 0.0
C302 C 0.82993 0.37349 0.73799 0.0
C303 C 0.88616 0.43265 0.76956 0.0
C304 C 0.85936 0.41301 0.76065 0.0
C305 C 0.78117 0.35089 0.74289 0.0
C306 C 0.80806 0.37316 0.74748 0.0
H307 H 0.91894 0.49405 0.79338 0.0
H308 H 0.87819 0.46437 0.77216 0.0
H309 H 0.87171 0.39284 0.73692 0.0
H310 H 0.74776 0.28515 0.7451 0.0
H311 H 0.79232 0.32157 0.74608 0.0
C312 C 0.5081 0.9297 0.96035 0.0
C313 C 0.48837 0.93135 0.972 0.0
C314 C 0.5026 0.90653 0.94872 0.0
C315 C 0.4481 0.84364 0.92498 0.0
H316 H 0.49525 0.81786 0.93856 0.0
C317 C 0.41821 0.73667 0.90633 0.0
C318 C 0.4372 0.73157 0.89747 0.0
C319 C 0.42509 0.76167 0.91439 0.0
C320 C 0.48202 0.82488 0.93431 0.0
H321 H 0.44725 0.91079 0.97963 0.0
H322 H 0.43761 0.87061 0.95934 0.0
H323 H 0.5065 0.86121 0.9525 0.0
H324 H 0.4784 0.74877 0.89042 0.0
H325 H 0.49026 0.79223 0.90417 0.0
H326 H 0.42353 0.8073 0.90693 0.0
C327 C 0.45731 0.887 0.95911 0.0
C328 C 0.48853 0.84979 0.94226 0.0
C329 C 0.46285 0.90996 0.97086 0.0
C330 C 0.46326 0.75195 0.8972 0.0
C331 C 0.47011 0.77692 0.90519 0.0
C332 C 0.44163 0.81878 0.91697 0.0
C333 C 0.47719 0.88478 0.94831 0.0
C334 C 0.47149 0.85934 0.93794 0.0
C335 C 0.4511 0.78217 0.91374 0.0
C336 C 0.45836 0.80894 0.92176 0.0
H337 H 0.52794 0.94591 0.96107 0.0
H338 H 0.51828 0.90548 0.94036 0.0
H339 H 0.4347 0.85056 0.9211 0.0
H340 H 0.39798 0.72142 0.90685 0.0
H341 H 0.41001 0.76489 0.92122 0.0
C342 C 0.58503 0.51128 0.11835 0.0
C343 C 0.55903 0.49179 0.12122 0.0
C344 C 0.60333 0.50492 0.11015 0.0
C345 C 0.61422 0.44943 0.10963 0.0
H346 H 0.67141 0.49092 0.06988 0.0
C347 C 0.68549 0.41626 0.07878 0.0
C348 C 0.71197 0.43521 0.07717 0.0
C349 C 0.6668 0.42339 0.08354 0.0
C350 C 0.65572 0.47928 0.08123 0.0
H351 H 0.53122 0.45083 0.11596 0.0
H352 H 0.5629 0.43979 0.10124 0.0
H353 H 0.6385 0.50325 0.07726 0.0
H354 H 0.73963 0.47651 0.07997 0.0
H355 H 0.70715 0.48886 0.08872 0.0
H356 H 0.63148 0.42568 0.11394 0.0
C357 C 0.56941 0.45986 0.10586 0.0
C358 C 0.63682 0.48632 0.08538 0.0
C359 C 0.55121 0.46619 0.11408 0.0
C360 C 0.71939 0.4614 0.081 0.0
C361 C 0.70072 0.46852 0.08581 0.0
C362 C 0.63311 0.44246 0.10555 0.0
C363 C 0.59588 0.47896 0.10467 0.0
C364 C 0.61579 0.47141 0.09958 0.0
C365 C 0.67414 0.44964 0.08688 0.0
C366 C 0.65411 0.45725 0.09129 0.0
H367 H 0.59161 0.53111 0.12395 0.0
H368 H 0.62358 0.52009 0.10947 0.0
H369 H 0.59863 0.43784 0.12109 0.0
H370 H 0.67905 0.39592 0.0758 0.0
H371 H 0.64649 0.40833 0.08399 0.0
C372 C 0.47368 0.91355 0.50074 0.0
C373 C 0.46674 0.93275 0.5037 0.0
C374 C 0.45996 0.88998 0.51161 0.0
C375 C 0.4123 0.85412 0.55624 0.0
H376 H 0.38742 0.79647 0.51148 0.0
C377 C 0.32712 0.75268 0.57549 0.0
C378 C 0.32789 0.7308 0.56711 0.0
C379 C 0.3455 0.77748 0.56882 0.0
C380 C 0.39448 0.81219 0.52437 0.0
H381 H 0.44157 0.94323 0.52191 0.0
H382 H 0.41771 0.90202 0.5413 0.0
H383 H 0.41863 0.83998 0.50004 0.0
H384 H 0.34856 0.7178 0.54504 0.0
H385 H 0.38108 0.76116 0.53374 0.0
H386 H 0.38825 0.82633 0.58064 0.0
C387 C 0.43371 0.9052 0.53046 0.0
C388 C 0.4124 0.8372 0.51778 0.0
C389 C 0.44744 0.92885 0.51947 0.0
C390 C 0.34732 0.73425 0.55165 0.0
C391 C 0.36593 0.75915 0.54515 0.0
C392 C 0.39456 0.82902 0.56293 0.0
C393 C 0.43908 0.88512 0.52578 0.0
C394 C 0.42137 0.85848 0.53357 0.0
C395 C 0.36536 0.78113 0.55377 0.0
C396 C 0.38518 0.80774 0.547 0.0
H397 H 0.48869 0.91618 0.48885 0.0
H398 H 0.4649 0.87508 0.50808 0.0
H399 H 0.41901 0.87011 0.56882 0.0
H400 H 0.31228 0.7507 0.58731 0.0
H401 H 0.34397 0.79379 0.57539 0.0
C402 C 0.56538 0.44986 0.64978 0.0
C403 C 0.53998 0.44587 0.65148 0.0
C404 C 0.57324 0.4352 0.66243 0.0
C405 C 0.55945 0.39232 0.71116 0.0
H406 H 0.58979 0.36128 0.6721 0.0
C407 C 0.58002 0.31276 0.74319 0.0
C408 C 0.60274 0.31328 0.73571 0.0
C409 C 0.57219 0.32936 0.73395 0.0
C410 C 0.58175 0.37005 0.68338 0.0
H411 H 0.50346 0.4248 0.66891 0.0
H412 H 0.51736 0.39896 0.69143 0.0
H413 H 0.57693 0.39047 0.65552 0.0
H414 H 0.63526 0.33189 0.71288 0.0
H415 H 0.622 0.36126 0.69714 0.0
H416 H 0.56464 0.37214 0.73914 0.0
C417 C 0.53109 0.41346 0.68017 0.0
C418 C 0.57428 0.38673 0.67384 0.0
C419 C 0.52316 0.42822 0.66738 0.0
C420 C 0.61754 0.33085 0.71886 0.0
C421 C 0.60984 0.34761 0.70977 0.0
C422 C 0.56716 0.37576 0.72081 0.0
C423 C 0.5559 0.41621 0.67713 0.0
C424 C 0.56322 0.39818 0.68763 0.0
C425 C 0.587 0.34702 0.71713 0.0
C426 C 0.57853 0.3645 0.70703 0.0
H427 H 0.57882 0.46363 0.63784 0.0
H428 H 0.59265 0.43812 0.66013 0.0
H429 H 0.55105 0.40097 0.72217 0.0
H430 H 0.56811 0.29937 0.7561 0.0
H431 H 0.55429 0.32804 0.73977 0.0
C432 C 0.11899 0.56738 0.84314 0.0
C433 C 0.09842 0.54164 0.84067 0.0
C434 C 0.14234 0.57332 0.85483 0.0
C435 C 0.18197 0.54341 0.86437 0.0
H436 H 0.22783 0.60736 0.89926 0.0
C437 C 0.28909 0.57316 0.8832 0.0
C438 C 0.30759 0.59916 0.87941 0.0
C439 C 0.26264 0.56532 0.88498 0.0
C440 C 0.21532 0.58946 0.88945 0.0
H441 H 0.08537 0.50207 0.84948 0.0
H442 H 0.12641 0.51238 0.87005 0.0
H443 H 0.18213 0.59478 0.89147 0.0
H444 H 0.31297 0.63757 0.87571 0.0
H445 H 0.26675 0.62383 0.87809 0.0
H446 H 0.21515 0.53859 0.86118 0.0
C447 C 0.12446 0.52798 0.86291 0.0
C448 C 0.18909 0.58219 0.8851 0.0
C449 C 0.10092 0.52208 0.85136 0.0
C450 C 0.29922 0.6174 0.87868 0.0
C451 C 0.27266 0.60949 0.88015 0.0
C452 C 0.20816 0.55073 0.86856 0.0
C453 C 0.14573 0.55357 0.86408 0.0
C454 C 0.17226 0.55935 0.87207 0.0
C455 C 0.25392 0.58319 0.88266 0.0
C456 C 0.22537 0.57413 0.88074 0.0
H457 H 0.11749 0.58275 0.83488 0.0
H458 H 0.15834 0.59316 0.85518 0.0
H459 H 0.1697 0.52593 0.85392 0.0
H460 H 0.29494 0.55866 0.88418 0.0
H461 H 0.24893 0.54505 0.88753 0.0
C462 C 0.55008 0.11533 0.00966 0.0
C463 C 0.55895 0.09761 0.00714 0.0
C464 C 0.56597 0.13954 0.0207 0.0
C465 C 0.62881 0.17983 0.05511 0.0
H466 H 0.62788 0.23584 0.02311 0.0
C467 C 0.71558 0.28497 0.05573 0.0
C468 C 0.71029 0.30548 0.05558 0.0
C469 C 0.6952 0.25923 0.05509 0.0
C470 C 0.62811 0.22047 0.03256 0.0
H471 H 0.59079 0.09068 0.01488 0.0
H472 H 0.61906 0.13331 0.0336 0.0
H473 H 0.59571 0.19134 0.01225 0.0
H474 H 0.67934 0.31491 0.056 0.0
H475 H 0.64375 0.2699 0.05477 0.0
H476 H 0.66223 0.20934 0.0746 0.0
C477 C 0.5996 0.12842 0.0276 0.0
C478 C 0.60957 0.19483 0.02637 0.0
C479 C 0.58347 0.10399 0.01684 0.0
C480 C 0.68413 0.29962 0.05607 0.0
C481 C 0.66373 0.27383 0.05522 0.0
C482 C 0.64757 0.20556 0.06115 0.0
C483 C 0.59135 0.14683 0.02907 0.0
C484 C 0.60981 0.1741 0.03733 0.0
C485 C 0.66904 0.25336 0.05413 0.0
C486 C 0.64761 0.22615 0.04972 0.0
H487 H 0.53114 0.11074 0.00238 0.0
H488 H 0.55861 0.15285 0.02203 0.0
H489 H 0.6294 0.16444 0.0642 0.0
H490 H 0.73549 0.28875 0.05549 0.0
H491 H 0.69997 0.24393 0.05412 0.0
C492 C 0.51635 0.61984 0.17468 0.0
C493 C 0.50264 0.59266 0.17337 0.0
C494 C 0.50797 0.63323 0.18896 0.0
C495 C 0.4473 0.62601 0.20834 0.0
H496 H 0.49233 0.69156 0.24124 0.0
C497 C 0.40946 0.69567 0.23024 0.0
C498 C 0.42649 0.72131 0.22403 0.0
C499 C 0.41847 0.67805 0.2321 0.0
C500 C 0.47944 0.67329 0.23212 0.0
H501 H 0.47029 0.55806 0.18666 0.0
H502 H 0.45526 0.58155 0.2115 0.0
H503 H 0.5098 0.66376 0.22977 0.0
H504 H 0.46678 0.74891 0.21659 0.0
H505 H 0.48215 0.71841 0.21929 0.0
H506 H 0.41747 0.63619 0.20908 0.0
C507 C 0.47262 0.59246 0.20163 0.0
C508 C 0.48945 0.65733 0.22567 0.0
C509 C 0.4813 0.57905 0.18759 0.0
C510 C 0.453 0.72929 0.22121 0.0
C511 C 0.46193 0.71175 0.22301 0.0
C512 C 0.43737 0.64209 0.21453 0.0
C513 C 0.48544 0.61967 0.20192 0.0
C514 C 0.47372 0.63394 0.21303 0.0
C515 C 0.44468 0.6857 0.22782 0.0
C516 C 0.45359 0.6664 0.22572 0.0
H517 H 0.53276 0.63069 0.16374 0.0
H518 H 0.51809 0.65417 0.18862 0.0
H519 H 0.43476 0.6082 0.1984 0.0
H520 H 0.38896 0.6889 0.23268 0.0
H521 H 0.40471 0.65823 0.2362 0.0
C522 C 0.91686 0.5212 0.35184 0.0
C523 C 0.93039 0.5075 0.35176 0.0
C524 C 0.89355 0.5118 0.3635 0.0
C525 C 0.83836 0.44928 0.37474 0.0
H526 H 0.81082 0.49027 0.40182 0.0
C527 C 0.72712 0.40824 0.37969 0.0
C528 C 0.71883 0.4251 0.37156 0.0
C529 C 0.75363 0.41746 0.3851 0.0
C530 C 0.81819 0.47851 0.39431 0.0
H531 H 0.93138 0.47431 0.36484 0.0
H532 H 0.89038 0.45766 0.38527 0.0
H533 H 0.85797 0.50933 0.39845 0.0
H534 H 0.73189 0.46514 0.36377 0.0
H535 H 0.77765 0.48089 0.37268 0.0
H536 H 0.79867 0.41905 0.36913 0.0
C537 C 0.89785 0.47572 0.37643 0.0
C538 C 0.8452 0.4894 0.3925 0.0
C539 C 0.92139 0.48534 0.36497 0.0
C540 C 0.73748 0.4515 0.36986 0.0
C541 C 0.76383 0.46065 0.37525 0.0
C542 C 0.81135 0.43844 0.37639 0.0
C543 C 0.88316 0.48829 0.37498 0.0
C544 C 0.8555 0.47522 0.38191 0.0
C545 C 0.77236 0.44373 0.38258 0.0
C546 C 0.80089 0.45328 0.38533 0.0
H547 H 0.92333 0.53813 0.34147 0.0
H548 H 0.88261 0.52181 0.36183 0.0
H549 H 0.84564 0.43791 0.36625 0.0
H550 H 0.71327 0.38782 0.38134 0.0
H551 H 0.7595 0.40393 0.3909 0.0
C552 C 0.07562 0.52093 0.38401 0.0
C553 C 0.06545 0.53708 0.37898 0.0
C554 C 0.0916 0.52587 0.40389 0.0
C555 C 0.11811 0.56801 0.45824 0.0
H556 H 0.17734 0.55839 0.44803 0.0
C557 C 0.21177 0.61517 0.51796 0.0
C558 C 0.21835 0.59735 0.5268 0.0
C559 C 0.19306 0.60767 0.49975 0.0
C560 C 0.16087 0.56112 0.45112 0.0
H561 H 0.06306 0.57041 0.39076 0.0
H562 H 0.09139 0.5796 0.42512 0.0
H563 H 0.1426 0.54363 0.41825 0.0
H564 H 0.21162 0.55825 0.52281 0.0
H565 H 0.1797 0.5455 0.49054 0.0
H566 H 0.13721 0.58643 0.49087 0.0
C567 C 0.08659 0.56262 0.41434 0.0
C568 C 0.14074 0.5524 0.43418 0.0
C569 C 0.07026 0.55737 0.39467 0.0
C570 C 0.20691 0.57238 0.51634 0.0
C571 C 0.18867 0.56508 0.49788 0.0
C572 C 0.1385 0.57713 0.47502 0.0
C573 C 0.09828 0.54751 0.41877 0.0
C574 C 0.119 0.55565 0.43749 0.0
C575 C 0.1811 0.58243 0.48978 0.0
C576 C 0.16003 0.57373 0.47161 0.0
H577 H 0.07241 0.5054 0.37189 0.0
H578 H 0.09962 0.51337 0.40701 0.0
H579 H 0.1016 0.57056 0.46164 0.0
H580 H 0.2201 0.63446 0.52583 0.0
H581 H 0.18766 0.62145 0.49366 0.0
C582 C 0.50489 0.08716 0.54609 0.0
C583 C 0.51258 0.06905 0.54027 0.0
C584 C 0.51288 0.10097 0.56736 0.0
C585 C 0.54633 0.10687 0.6246 0.0
H586 H 0.5749 0.18045 0.61634 0.0
C587 C 0.62249 0.18391 0.68906 0.0
C588 C 0.61942 0.20505 0.69562 0.0
C589 C 0.60718 0.16675 0.67092 0.0
C590 C 0.56672 0.15996 0.61906 0.0
H591 H 0.53289 0.04971 0.55264 0.0
H592 H 0.54707 0.07389 0.5898 0.0
H593 H 0.54978 0.1497 0.58468 0.0
H594 H 0.59826 0.22508 0.68762 0.0
H595 H 0.57163 0.19513 0.65576 0.0
H596 H 0.56397 0.11734 0.65883 0.0
C597 C 0.53465 0.07732 0.57812 0.0
C598 C 0.55219 0.14226 0.60093 0.0
C599 C 0.52646 0.06336 0.55686 0.0
C600 C 0.60124 0.20909 0.683 0.0
C601 C 0.58594 0.1919 0.66475 0.0
C602 C 0.56094 0.12461 0.64272 0.0
C603 C 0.52895 0.09713 0.58315 0.0
C604 C 0.54206 0.1155 0.60336 0.0
C605 C 0.58844 0.17029 0.65879 0.0
C606 C 0.57162 0.15138 0.64003 0.0
H607 H 0.49413 0.09182 0.53353 0.0
H608 H 0.50757 0.1156 0.57092 0.0
H609 H 0.53855 0.08641 0.62718 0.0
H610 H 0.63635 0.18019 0.69826 0.0
H611 H 0.61 0.15063 0.66642 0.0
C612 C 0.48695 0.52816 0.70079 0.0
C613 C 0.50559 0.5444 0.68529 0.0
C614 C 0.48362 0.53837 0.72161 0.0
C615 C 0.49422 0.60121 0.74507 0.0
H616 H 0.46211 0.56107 0.79898 0.0
C617 C 0.46036 0.64096 0.82047 0.0
C618 C 0.43406 0.62478 0.82587 0.0
C619 C 0.47312 0.63162 0.80655 0.0
C620 C 0.47116 0.5725 0.78405 0.0
H621 H 0.53661 0.58342 0.67975 0.0
H622 H 0.53205 0.60117 0.71679 0.0
H623 H 0.47947 0.54419 0.76964 0.0
H624 H 0.40079 0.58587 0.82129 0.0
H625 H 0.42323 0.56949 0.79736 0.0
H626 H 0.48582 0.62945 0.75952 0.0
C627 C 0.51929 0.58073 0.71266 0.0
C628 C 0.48102 0.56283 0.76717 0.0
C629 C 0.52224 0.57057 0.69162 0.0
C630 C 0.42106 0.59883 0.81763 0.0
C631 C 0.43394 0.58939 0.80397 0.0
C632 C 0.48475 0.61101 0.76209 0.0
C633 C 0.49909 0.56503 0.72743 0.0
C634 C 0.49211 0.57677 0.74714 0.0
C635 C 0.45996 0.60581 0.798 0.0
C636 C 0.47259 0.59652 0.78147 0.0
H637 H 0.4736 0.50798 0.69596 0.0
H638 H 0.46766 0.52564 0.73226 0.0
H639 H 0.50203 0.61235 0.72976 0.0
H640 H 0.47097 0.66106 0.82655 0.0
H641 H 0.49321 0.64465 0.80226 0.0
C642 C 0.94624 0.5145 0.87692 0.0
C643 C 0.9639 0.50581 0.87256 0.0
C644 C 0.93488 0.511 0.89848 0.0
C645 C 0.91185 0.46288 0.94148 0.0
H646 H 0.89477 0.50888 0.97539 0.0
C647 C 0.83471 0.42319 0.01119 0.0
C648 C 0.81736 0.43274 0.01167 0.0
C649 C 0.85753 0.43564 -0.00131 0.0
C650 C 0.89917 0.49571 0.96602 0.0
H651 H 0.98489 0.48826 0.88758 0.0
H652 H 0.96467 0.48177 0.92531 0.0
H653 H 0.92725 0.52604 0.94544 0.0
H654 H 0.81051 0.46316 5e-05 0.0
H655 H 0.84948 0.48416 0.97731 0.0
H656 H 0.88269 0.43219 0.96052 0.0
C657 C 0.95979 0.49142 0.91209 0.0
C658 C 0.91795 0.50563 0.94903 0.0
C659 C 0.97146 0.49528 0.89061 0.0
C660 C 0.82359 0.45539 -1e-05 0.0
C661 C 0.84612 0.46756 0.9871 0.0
C662 C 0.89279 0.45287 0.95813 0.0
C663 C 0.94071 0.49841 0.91591 0.0
C664 C 0.92411 0.4892 0.93634 0.0
C665 C 0.86324 0.45764 0.98598 0.0
C666 C 0.88577 0.46903 0.97032 0.0
H667 H 0.94014 0.52265 0.8632 0.0
H668 H 0.9201 0.5164 0.90091 0.0
H669 H 0.91588 0.44967 0.93167 0.0
H670 H 0.83076 0.40614 0.02047 0.0
H671 H 0.87053 0.42779 -0.0012 0.0
C672 C 0.49317 0.95487 0.06341 0.0
C673 C 0.4818 0.9653 0.04891 0.0
C674 C 0.48213 0.9446 0.08442 0.0
C675 C 0.41763 0.91003 0.10732 0.0
H676 H 0.45679 0.90382 0.15907 0.0
C677 C 0.37417 0.82575 0.17193 0.0
C678 C 0.38835 0.8126 0.17166 0.0
C679 C 0.38417 0.84988 0.16183 0.0
C680 C 0.44553 0.90565 0.14494 0.0
H681 H 0.45119 0.97489 0.04524 0.0
H682 H 0.43149 0.95663 0.08225 0.0
H683 H 0.47853 0.94012 0.13345 0.0
H684 H 0.42356 0.814 0.15969 0.0
H685 H 0.44121 0.85618 0.14286 0.0
H686 H 0.38499 0.87472 0.11823 0.0
C687 C 0.44898 0.95645 0.07738 0.0
C688 C 0.45793 0.92636 0.13028 0.0
C689 C 0.46026 0.96699 0.05635 0.0
C690 C 0.41245 0.82385 0.16083 0.0
C691 C 0.4226 0.84804 0.15118 0.0
C692 C 0.40515 0.88942 0.12215 0.0
C693 C 0.45931 0.94435 0.09123 0.0
C694 C 0.44453 0.92789 0.11053 0.0
C695 C 0.40866 0.86134 0.15171 0.0
C696 C 0.41943 0.88635 0.14028 0.0
H697 H 0.50976 0.95336 0.05786 0.0
H698 H 0.49038 0.93511 0.09443 0.0
H699 H 0.40677 0.91056 0.0922 0.0
H700 H 0.35547 0.81753 0.18007 0.0
H701 H 0.37296 0.85971 0.16216 0.0
C702 C 0.4935 0.44751 0.19219 0.0
C703 C 0.50923 0.47455 0.19213 0.0
C704 C 0.49385 0.43403 0.21156 0.0
C705 C 0.52458 0.44304 0.27147 0.0
H706 H 0.53147 0.38467 0.25037 0.0
C707 C 0.59471 0.41395 0.31332 0.0
C708 C 0.5855 0.38758 0.31678 0.0
C709 C 0.57901 0.42179 0.30179 0.0
C710 C 0.52916 0.40062 0.25665 0.0
H711 H 0.53611 0.50896 0.21249 0.0
H712 H 0.53764 0.48569 0.24593 0.0
H713 H 0.51341 0.40322 0.22398 0.0
H714 H 0.5524 0.34874 0.31102 0.0
H715 H 0.52525 0.3625 0.29011 0.0
H716 H 0.54246 0.44142 0.30365 0.0
C717 C 0.52437 0.47463 0.23153 0.0
C718 C 0.5186 0.41124 0.24156 0.0
C719 C 0.52355 0.4881 0.21234 0.0
C720 C 0.56009 0.36922 0.3086 0.0
C721 C 0.54454 0.37704 0.29668 0.0
C722 C 0.53559 0.43267 0.28642 0.0
C723 C 0.51057 0.44733 0.23093 0.0
C724 C 0.51688 0.4331 0.2485 0.0
C725 C 0.55391 0.40341 0.29314 0.0
C726 C 0.5386 0.41182 0.2789 0.0
H727 H 0.48237 0.43673 0.17668 0.0
H728 H 0.48232 0.41308 0.21072 0.0
H729 H 0.52304 0.45945 0.27765 0.0
H730 H 0.61399 0.42863 0.31947 0.0
H731 H 0.58683 0.44223 0.29901 0.0
C732 C 0.48997 0.94524 0.4147 0.0
C733 C 0.47646 0.95765 0.42214 0.0
C734 C 0.48416 0.93249 0.39303 0.0
C735 C 0.42987 0.89948 0.35008 0.0
H736 H 0.48266 0.89527 0.31467 0.0
C737 C 0.40474 0.81753 0.28076 0.0
C738 C 0.42008 0.82407 0.26106 0.0
C739 C 0.41127 0.83569 0.29919 0.0
C740 C 0.46761 0.89639 0.32411 0.0
H741 H 0.44713 0.96761 0.41253 0.0
H742 H 0.43707 0.9455 0.37409 0.0
H743 H 0.49592 0.92612 0.34729 0.0
H744 H 0.45373 0.8552 0.24496 0.0
H745 H 0.46459 0.88665 0.27654 0.0
H746 H 0.40156 0.86986 0.32663 0.0
C747 C 0.452 0.94542 0.38521 0.0
C748 C 0.47525 0.91396 0.34301 0.0
C749 C 0.45795 0.95833 0.40701 0.0
C750 C 0.4417 0.84925 0.26002 0.0
C751 C 0.44802 0.86737 0.27822 0.0
C752 C 0.42221 0.88194 0.33104 0.0
C753 C 0.46463 0.93182 0.37823 0.0
C754 C 0.45649 0.91543 0.35648 0.0
C755 C 0.43312 0.8608 0.29817 0.0
C756 C 0.44099 0.87997 0.31799 0.0
H757 H 0.50422 0.94436 0.42619 0.0
H758 H 0.49406 0.922 0.38842 0.0
H759 H 0.4149 0.89991 0.36024 0.0
H760 H 0.38792 0.79833 0.28208 0.0
H761 H 0.3995 0.82987 0.31441 0.0
C762 C 0.52177 0.43736 0.56057 0.0
C763 C 0.53141 0.46277 0.56943 0.0
C764 C 0.52944 0.43284 0.53912 0.0
C765 C 0.58488 0.46399 0.50098 0.0
H766 H 0.54112 0.40489 0.45967 0.0
C767 C 0.621 0.44393 0.41519 0.0
C768 C 0.6141 0.41816 0.40961 0.0
C769 C 0.61032 0.4498 0.43408 0.0
C770 C 0.55361 0.42132 0.47118 0.0
H771 H 0.55524 0.5034 0.5622 0.0
H772 H 0.56836 0.49556 0.52426 0.0
H773 H 0.52172 0.41536 0.49207 0.0
H774 H 0.5908 0.37836 0.41985 0.0
H775 H 0.57214 0.3887 0.45305 0.0
H776 H 0.61678 0.46987 0.48015 0.0
C777 C 0.55522 0.47911 0.53416 0.0
C778 C 0.5425 0.42739 0.48968 0.0
C779 C 0.54748 0.48363 0.55571 0.0
C780 C 0.59657 0.39841 0.42368 0.0
C781 C 0.58571 0.4043 0.44256 0.0
C782 C 0.59595 0.45799 0.48243 0.0
C783 C 0.54691 0.45365 0.52597 0.0
C784 C 0.55806 0.44865 0.50495 0.0
C785 C 0.59236 0.43006 0.44783 0.0
C786 C 0.58049 0.43645 0.46745 0.0
H787 H 0.5092 0.42093 0.57079 0.0
H788 H 0.52279 0.41301 0.53349 0.0
H789 H 0.59755 0.48017 0.51265 0.0
H790 H 0.63449 0.45968 0.40479 0.0
H791 H 0.61567 0.4698 0.43757 0.0
C792 C 0.06741 0.55939 0.74727 0.0
C793 C 0.07058 0.54089 0.75926 0.0
C794 C 0.07842 0.5672 0.72558 0.0
C795 C 0.10947 0.55091 0.67771 0.0
H796 H 0.1566 0.62513 0.677 0.0
C797 C 0.20646 0.59602 0.63192 0.0
C798 C 0.21581 0.6199 0.62136 0.0
C799 C 0.18335 0.58531 0.64399 0.0
C800 C 0.14315 0.60443 0.67657 0.0
H801 H 0.08597 0.5148 0.75775 0.0
H802 H 0.10496 0.52816 0.71999 0.0
H803 H 0.12374 0.60731 0.70639 0.0
H804 H 0.20793 0.65103 0.61472 0.0
H805 H 0.16751 0.63228 0.63595 0.0
H806 H 0.1297 0.54795 0.64854 0.0
C807 C 0.09404 0.53667 0.72706 0.0
C808 C 0.12427 0.59421 0.69341 0.0
C809 C 0.08336 0.52913 0.74875 0.0
C810 C 0.20128 0.63263 0.62276 0.0
C811 C 0.17816 0.62193 0.63492 0.0
C812 C 0.12832 0.56112 0.66087 0.0
C813 C 0.09238 0.55632 0.71554 0.0
C814 C 0.10794 0.56728 0.6947 0.0
C815 C 0.16907 0.59825 0.64584 0.0
C816 C 0.14603 0.5879 0.6607 0.0
H817 H 0.05768 0.56873 0.75519 0.0
H818 H 0.07676 0.58231 0.71702 0.0
H819 H 0.09685 0.53009 0.67809 0.0
H820 H 0.21728 0.58584 0.63141 0.0
H821 H 0.17719 0.5673 0.6526 0.0
C822 C 0.51518 0.07618 0.921 0.0
C823 C 0.52486 0.06018 0.92821 0.0
C824 C 0.51929 0.08542 0.89858 0.0
C825 C 0.57082 0.10741 0.8589 0.0
H826 H 0.52552 0.12124 0.81971 0.0
C827 C 0.61446 0.18591 0.79134 0.0
C828 C 0.60364 0.20209 0.79002 0.0
C829 C 0.60157 0.16258 0.80277 0.0
C830 C 0.53848 0.11766 0.83052 0.0
H831 H 0.54466 0.0397 0.91743 0.0
H832 H 0.55232 0.05631 0.87819 0.0
H833 H 0.50669 0.08914 0.84959 0.0
H834 H 0.57059 0.20632 0.79917 0.0
H835 H 0.5488 0.16648 0.82006 0.0
H836 H 0.60279 0.13717 0.84146 0.0
C837 C 0.54138 0.06149 0.88981 0.0
C838 C 0.52762 0.0991 0.84745 0.0
C839 C 0.53691 0.05192 0.91215 0.0
C840 C 0.57941 0.19422 0.79987 0.0
C841 C 0.56676 0.17116 0.81166 0.0
C842 C 0.58171 0.12623 0.84229 0.0
C843 C 0.5335 0.07911 0.88317 0.0
C844 C 0.5438 0.09436 0.8622 0.0
C845 C 0.57782 0.15517 0.81353 0.0
C846 C 0.56577 0.1322 0.82837 0.0
H847 H 0.50582 0.08276 0.93315 0.0
H848 H 0.5132 0.09915 0.89397 0.0
H849 H 0.58379 0.10441 0.87029 0.0
H850 H 0.63285 0.19118 0.7836 0.0
H851 H 0.61045 0.15054 0.80341 0.0
C852 C 0.48507 0.5544 0.07362 0.0
C853 C 0.50192 0.57498 0.08897 0.0
C854 C 0.47709 0.55932 0.05225 0.0
C855 C 0.46766 0.60905 0.0246 0.0
H856 H 0.45817 0.56849 0.9681 0.0
C857 C 0.4329 0.6298 0.93706 0.0
C858 C 0.41516 0.60814 0.92313 0.0
C859 C 0.44493 0.62672 0.95694 0.0
C860 C 0.46047 0.57983 0.9838 0.0
H861 H 0.525 0.61681 0.0933 0.0
H862 H 0.51113 0.62537 0.05603 0.0
H863 H 0.47755 0.56122 0.0028 0.0
H864 H 0.39565 0.56616 0.91966 0.0
H865 H 0.41615 0.56085 0.95434 0.0
H866 H 0.45017 0.62735 0.00578 0.0
C867 C 0.50365 0.60545 0.06069 0.0
C868 C 0.47163 0.57569 0.00365 0.0
C869 C 0.51165 0.60055 0.08199 0.0
C870 C 0.40936 0.58334 0.92982 0.0
C871 C 0.42129 0.58027 0.94966 0.0
C872 C 0.45642 0.61314 0.00477 0.0
C873 C 0.4858 0.5849 0.04582 0.0
C874 C 0.47519 0.59013 0.02433 0.0
C875 C 0.43944 0.60191 0.96334 0.0
C876 C 0.45245 0.59841 0.98418 0.0
H877 H 0.477 0.53451 0.07859 0.0
H878 H 0.46317 0.54305 0.04125 0.0
H879 H 0.46977 0.62023 0.04036 0.0
H880 H 0.4379 0.64918 0.93238 0.0
H881 H 0.45896 0.64382 0.967 0.0
C882 C 0.94898 0.48356 0.25536 0.0
C883 C 0.94607 0.50177 0.26882 0.0
C884 C 0.9347 0.47351 0.23432 0.0
C885 C 0.89416 0.48337 0.18989 0.0
H886 H 0.86023 0.40876 0.18075 0.0
C887 C 0.81083 0.42702 0.12067 0.0
C888 C 0.81243 0.40797 0.10721 0.0
C889 C 0.82726 0.43854 0.14041 0.0
C890 C 0.86973 0.42964 0.18292 0.0
H891 H 0.92738 0.52503 0.27017 0.0
H892 H 0.90242 0.50748 0.23372 0.0
H893 H 0.8909 0.43003 0.2136 0.0
H894 H 0.832 0.38549 0.10453 0.0
H895 H 0.86043 0.4055 0.13872 0.0
H896 H 0.87274 0.48289 0.15929 0.0
C897 C 0.91567 0.5009 0.23923 0.0
C898 C 0.88743 0.44187 0.2017 0.0
C899 C 0.92985 0.51086 0.2602 0.0
C900 C 0.83021 0.40013 0.11441 0.0
C901 C 0.84648 0.41152 0.13413 0.0
C902 C 0.8764 0.47112 0.17112 0.0
C903 C 0.91736 0.48159 0.22632 0.0
C904 C 0.89982 0.46888 0.20547 0.0
C905 C 0.84549 0.43112 0.1472 0.0
C906 C 0.86393 0.4441 0.16745 0.0
H907 H 0.96125 0.47612 0.26164 0.0
H908 H 0.93677 0.45896 0.2246 0.0
H909 H 0.90356 0.50423 0.19212 0.0
H910 H 0.7974 0.43355 0.11562 0.0
H911 H 0.82578 0.45335 0.1503 0.0
loop_
_geom_bond_atom_site_label_1
_geom_bond_atom_site_label_2
_geom_bond_distance
_geom_bond_site_symmetry_2
_ccdc_geom_bond_type
H0 C6 0.930 . S
H1 C9 0.931 . S
H2 C11 0.931 . S
H3 C13 0.930 . S
H4 C15 0.930 . S
H5 C17 0.931 . S
C6 H0 0.930 . S
C6 C7 1.380 . S
C6 C8 1.394 . S
C7 C6 1.380 . S
C7 C11 1.382 . S
C8 C6 1.394 . S
C8 C9 1.400 . S
C9 H1 0.931 . S
C9 C8 1.400 . S
C9 C10 1.375 . S
C10 C9 1.375 . S
C10 C11 1.415 . S
C10 C12 1.501 1_455 S
C11 H2 0.931 . S
C11 C7 1.382 . S
C11 C10 1.415 . S
C12 C10 1.501 1_655 S
C12 C13 1.384 . S
C12 C17 1.408 . S
C13 H3 0.930 . S
C13 C12 1.384 . S
C13 C14 1.389 . S
C14 C13 1.389 . S
C14 C15 1.405 . S
C15 H4 0.930 . S
C15 C14 1.405 . S
C15 C16 1.364 . S
C16 C15 1.364 . S
C16 C17 1.400 . S
C17 H5 0.931 . S
C17 C12 1.408 . S
C17 C16 1.400 . S
H18 C24 0.930 . S
H19 C27 0.931 . S
H20 C29 0.931 . S
H21 C31 0.930 . S
H22 C33 0.930 . S
H23 C35 0.931 1_545 S
C24 H18 0.930 . S
C24 C25 1.380 . S
C24 C26 1.394 . S
C25 C24 1.380 . S
C25 C29 1.382 . S
C26 C24 1.394 . S
C26 C27 1.400 . S
C27 H19 0.931 . S
C27 C26 1.400 . S
C27 C28 1.375 . S
C28 C27 1.375 . S
C28 C29 1.415 . S
C28 C30 1.501 1_545 S
C29 H20 0.931 . S
C29 C25 1.382 . S
C29 C28 1.415 . S
C30 C28 1.501 1_565 S
C30 C31 1.384 . S
C30 C35 1.408 . S
C31 H21 0.930 . S
C31 C30 1.384 . S
C31 C32 1.389 . S
C32 C31 1.389 . S
C32 C33 1.405 . S
C33 H22 0.930 . S
C33 C32 1.405 . S
C33 C34 1.364 . S
C34 C33 1.364 . S
C34 C35 1.400 . S
C35 H23 0.931 1_565 S
C35 C30 1.408 . S
C35 C34 1.400 . S
H36 C42 0.930 . S
H37 C45 0.931 . S
H38 C47 0.931 . S
H39 C49 0.930 . S
H40 C51 0.930 . S
H41 C53 0.931 . S
C42 H36 0.930 . S
C42 C43 1.380 . S
C42 C44 1.394 . S
C43 C42 1.380 . S
C43 C47 1.382 . S
C44 C42 1.394 . S
C44 C45 1.400 . S
C45 H37 0.931 . S
C45 C44 1.400 . S
C45 C46 1.375 . S
C46 C45 1.375 . S
C46 C47 1.415 . S
C46 C48 1.501 . S
C47 H38 0.931 . S
C47 C43 1.382 . S
C47 C46 1.415 . S
C48 C46 1.501 . S
C48 C49 1.384 . S
C48 C53 1.408 . S
C49 H39 0.930 . S
C49 C48 1.384 . S
C49 C50 1.389 . S
C50 C49 1.389 . S
C50 C51 1.405 . S
C51 H40 0.930 . S
C51 C50 1.405 . S
C51 C52 1.364 . S
C52 C51 1.364 . S
C52 C53 1.400 . S
C53 H41 0.931 . S
C53 C48 1.408 . S
C53 C52 1.400 . S
H54 C60 0.930 . S
H55 C63 0.931 . S
H56 C65 0.931 . S
H57 C67 0.930 . S
H58 C69 0.930 . S
H59 C71 0.931 1_455 S
C60 H54 0.930 . S
C60 C61 1.380 . S
C60 C62 1.394 . S
C61 C60 1.380 . S
C61 C65 1.382 . S
C62 C60 1.394 . S
C62 C63 1.400 . S
C63 H55 0.931 . S
C63 C62 1.400 . S
C63 C64 1.375 . S
C64 C63 1.375 . S
C64 C65 1.415 . S
C64 C66 1.501 1_455 S
C65 H56 0.931 . S
C65 C61 1.382 . S
C65 C64 1.415 . S
C66 C64 1.501 1_655 S
C66 C67 1.384 . S
C66 C71 1.408 . S
C67 H57 0.930 . S
C67 C66 1.384 . S
C67 C68 1.389 . S
C68 C67 1.389 . S
C68 C69 1.405 . S
C69 H58 0.930 . S
C69 C68 1.405 . S
C69 C70 1.364 . S
C70 C69 1.364 . S
C70 C71 1.400 . S
C71 H59 0.931 1_655 S
C71 C66 1.408 . S
C71 C70 1.400 . S
H72 C78 0.930 . S
H73 C81 0.931 . S
H74 C83 0.931 1_545 S
H75 C85 0.930 . S
H76 C87 0.930 . S
H77 C89 0.931 . S
C78 H72 0.930 . S
C78 C79 1.380 . S
C78 C80 1.394 1_554 S
C79 C78 1.380 . S
C79 C83 1.382 . S
C80 C78 1.394 1_556 S
C80 C81 1.400 . S
C81 H73 0.931 . S
C81 C80 1.400 . S
C81 C82 1.375 1_565 S
C82 C81 1.375 1_545 S
C82 C83 1.415 1_546 S
C82 C84 1.501 . S
C83 H74 0.931 1_565 S
C83 C79 1.382 . S
C83 C82 1.415 1_564 S
C84 C82 1.501 . S
C84 C85 1.384 1_556 S
C84 C89 1.408 . S
C85 H75 0.930 . S
C85 C84 1.384 1_554 S
C85 C86 1.389 1_554 S
C86 C85 1.389 1_556 S
C86 C87 1.405 . S
C87 H76 0.930 . S
C87 C86 1.405 . S
C87 C88 1.364 . S
C88 C87 1.364 . S
C88 C89 1.400 . S
C89 H77 0.931 . S
C89 C84 1.408 . S
C89 C88 1.400 . S
H90 C96 0.930 . S
H91 C99 0.931 . S
H92 C101 0.931 . S
H93 C103 0.930 . S
H94 C105 0.930 . S
H95 C107 0.931 . S
C96 H90 0.930 . S
C96 C97 1.380 . S
C96 C98 1.394 . S
C97 C96 1.380 . S
C97 C101 1.382 . S
C98 C96 1.394 . S
C98 C99 1.400 . S
C99 H91 0.931 . S
C99 C98 1.400 . S
C99 C100 1.375 . S
C100 C99 1.375 . S
C100 C101 1.415 . S
C100 C102 1.501 . S
C101 H92 0.931 . S
C101 C97 1.382 . S
C101 C100 1.415 . S
C102 C100 1.501 . S
C102 C103 1.384 . S
C102 C107 1.408 . S
C103 H93 0.930 . S
C103 C102 1.384 . S
C103 C104 1.389 . S
C104 C103 1.389 . S
C104 C105 1.405 . S
C105 H94 0.930 . S
C105 C104 1.405 . S
C105 C106 1.364 . S
C106 C105 1.364 . S
C106 C107 1.400 . S
C107 H95 0.931 . S
C107 C102 1.408 . S
C107 C106 1.400 . S
Mg108 O109 2.028 . S
Mg108 O115 1.986 . S
Mg108 O117 2.114 . S
Mg108 O118 2.251 . S
Mg108 O121 2.010 . S
O109 Mg108 2.028 . S
O109 C112 1.250 . S
O110 Mg111 2.028 . S
O110 C112 1.248 . S
Mg111 O110 2.028 . S
Mg111 O116 2.032 . S
Mg111 O118 2.079 . S
C112 O109 1.250 . S
C112 O110 1.248 . S
C113 O114 1.264 . S
C113 O121 1.249 . S
O114 C113 1.264 . S
O115 Mg108 1.986 . S
O115 C119 1.246 . S
O116 Mg111 2.032 . S
O116 C119 1.259 . S
O117 Mg108 2.114 . S
O117 C120 1.252 . S
O118 Mg108 2.251 . S
O118 Mg111 2.079 . S
O118 C120 1.273 . S
C119 O115 1.246 . S
C119 O116 1.259 . S
C120 O117 1.252 . S
C120 O118 1.273 . S
O121 Mg108 2.010 . S
O121 C113 1.249 . S
Mg122 O123 2.028 . S
Mg122 O129 1.986 . S
Mg122 O131 2.114 . S
Mg122 O132 2.251 . S
Mg122 O135 2.010 . S
O123 Mg122 2.028 . S
O123 C126 1.250 . S
O124 Mg125 2.028 . S
O124 C126 1.248 . S
Mg125 O124 2.028 . S
Mg125 O130 2.032 . S
Mg125 O132 2.079 . S
C126 O123 1.250 . S
C126 O124 1.248 . S
C127 O128 1.264 . S
C127 O135 1.249 . S
O128 C127 1.264 . S
O129 Mg122 1.986 . S
O129 C133 1.246 . S
O130 Mg125 2.032 . S
O130 C133 1.259 . S
O131 Mg122 2.114 . S
O131 C134 1.252 . S
O132 Mg122 2.251 . S
O132 Mg125 2.079 . S
O132 C134 1.273 . S
C133 O129 1.246 . S
C133 O130 1.259 . S
C134 O131 1.252 . S
C134 O132 1.273 . S
O135 Mg122 2.010 . S
O135 C127 1.249 . S
Mg136 O137 2.028 . S
Mg136 O143 1.986 . S
Mg136 O145 2.114 . S
Mg136 O146 2.251 . S
Mg136 O149 2.010 . S
O137 Mg136 2.028 . S
O137 C140 1.250 . S
O138 Mg139 2.028 . S
O138 C140 1.248 . S
Mg139 O138 2.028 . S
Mg139 O144 2.032 . S
Mg139 O146 2.079 . S
C140 O137 1.250 . S
C140 O138 1.248 . S
C141 O142 1.264 . S
C141 O149 1.249 . S
O142 C141 1.264 . S
O143 Mg136 1.986 . S
O143 C147 1.246 . S
O144 Mg139 2.032 . S
O144 C147 1.259 . S
O145 Mg136 2.114 . S
O145 C148 1.252 . S
O146 Mg136 2.251 . S
O146 Mg139 2.079 . S
O146 C148 1.273 . S
C147 O143 1.246 . S
C147 O144 1.259 . S
C148 O145 1.252 . S
C148 O146 1.273 . S
O149 Mg136 2.010 . S
O149 C141 1.249 . S
Mg150 O151 2.028 . S
Mg150 O157 1.986 . S
Mg150 O159 2.114 . S
Mg150 O160 2.251 . S
Mg150 O163 2.010 . S
O151 Mg150 2.028 . S
O151 C154 1.250 . S
O152 Mg153 2.028 . S
O152 C154 1.248 . S
Mg153 O152 2.028 . S
Mg153 O158 2.032 . S
Mg153 O160 2.079 . S
C154 O151 1.250 . S
C154 O152 1.248 . S
C155 O156 1.264 . S
C155 O163 1.249 . S
O156 C155 1.264 . S
O157 Mg150 1.986 . S
O157 C161 1.246 . S
O158 Mg153 2.032 . S
O158 C161 1.259 . S
O159 Mg150 2.114 . S
O159 C162 1.252 . S
O160 Mg150 2.251 . S
O160 Mg153 2.079 . S
O160 C162 1.273 . S
C161 O157 1.246 . S
C161 O158 1.259 . S
C162 O159 1.252 . S
C162 O160 1.273 . S
O163 Mg150 2.010 . S
O163 C155 1.249 . S
Mg164 O165 2.028 . S
Mg164 O171 1.986 . S
Mg164 O173 2.114 . S
Mg164 O174 2.251 . S
Mg164 O177 2.010 . S
O165 Mg164 2.028 . S
O165 C168 1.250 . S
O166 Mg167 2.028 . S
O166 C168 1.248 . S
Mg167 O166 2.028 . S
Mg167 O172 2.032 . S
Mg167 O174 2.079 . S
C168 O165 1.250 . S
C168 O166 1.248 . S
C169 O170 1.264 . S
C169 O177 1.249 . S
O170 C169 1.264 . S
O171 Mg164 1.986 . S
O171 C175 1.246 . S
O172 Mg167 2.032 . S
O172 C175 1.259 . S
O173 Mg164 2.114 . S
O173 C176 1.252 . S
O174 Mg164 2.251 . S
O174 Mg167 2.079 . S
O174 C176 1.273 . S
C175 O171 1.246 . S
C175 O172 1.259 . S
C176 O173 1.252 . S
C176 O174 1.273 . S
O177 Mg164 2.010 . S
O177 C169 1.249 . S
Mg178 O179 2.028 . S
Mg178 O185 1.986 . S
Mg178 O187 2.114 . S
Mg178 O188 2.251 . S
Mg178 O191 2.010 . S
O179 Mg178 2.028 . S
O179 C182 1.250 . S
O180 Mg181 2.028 . S
O180 C182 1.248 . S
Mg181 O180 2.028 . S
Mg181 O186 2.032 . S
Mg181 O188 2.079 . S
C182 O179 1.250 . S
C182 O180 1.248 . S
C183 O184 1.264 . S
C183 O191 1.249 . S
O184 C183 1.264 . S
O185 Mg178 1.986 . S
O185 C189 1.246 . S
O186 Mg181 2.032 . S
O186 C189 1.259 . S
O187 Mg178 2.114 . S
O187 C190 1.252 . S
O188 Mg178 2.251 . S
O188 Mg181 2.079 . S
O188 C190 1.273 . S
C189 O185 1.246 . S
C189 O186 1.259 . S
C190 O187 1.252 . S
C190 O188 1.273 . S
O191 Mg178 2.010 . S
O191 C183 1.249 . S
C192 C193 1.349 . S
C192 C194 1.327 . S
C192 H217 0.950 . S
C193 C192 1.349 . S
C193 C209 1.349 . S
C194 C192 1.327 . S
C194 C213 1.429 . S
C194 H218 0.950 . S
C195 C212 1.574 . S
C195 C214 1.368 . S
C195 H219 0.949 . S
H196 C200 0.949 . S
C197 C198 1.349 . S
C197 C199 1.327 . S
C197 H220 0.950 . S
C198 C197 1.349 . S
C198 C210 1.349 . S
C199 C197 1.327 . S
C199 C215 1.429 . S
C199 H221 0.950 . S
C200 H196 0.949 . S
C200 C208 1.574 . S
C200 C216 1.368 . S
H201 C209 0.950 . S
H202 C207 0.950 . S
H203 C208 0.949 . S
H204 C210 0.950 . S
H205 C211 0.950 . S
H206 C212 0.949 . S
C207 H202 0.950 . S
C207 C209 1.327 . S
C207 C213 1.429 . S
C208 C200 1.574 . S
C208 H203 0.949 . S
C208 C214 1.368 . S
C209 C193 1.349 . S
C209 H201 0.950 . S
C209 C207 1.327 . S
C210 C198 1.349 . S
C210 H204 0.950 . S
C210 C211 1.327 . S
C211 H205 0.950 . S
C211 C210 1.327 . S
C211 C215 1.429 . S
C212 C195 1.574 . S
C212 H206 0.949 . S
C212 C216 1.368 . S
C213 C194 1.429 . S
C213 C207 1.429 . S
C213 C214 1.523 . S
C214 C195 1.368 . S
C214 C208 1.368 . S
C214 C213 1.523 . S
C215 C199 1.429 . S
C215 C211 1.429 . S
C215 C216 1.523 . S
C216 C200 1.368 . S
C216 C212 1.368 . S
C216 C215 1.523 . S
H217 C192 0.950 . S
H218 C194 0.950 . S
H219 C195 0.949 . S
H220 C197 0.950 . S
H221 C199 0.950 . S
C222 C223 1.349 . S
C222 C224 1.327 . S
C222 H247 0.950 . S
C223 C222 1.349 . S
C223 C239 1.349 . S
C224 C222 1.327 . S
C224 C243 1.429 . S
C224 H248 0.950 . S
C225 C242 1.574 . S
C225 C244 1.368 . S
C225 H249 0.949 . S
H226 C230 0.949 . S
C227 C228 1.349 . S
C227 C229 1.327 . S
C227 H250 0.950 . S
C228 C227 1.349 . S
C228 C240 1.349 . S
C229 C227 1.327 . S
C229 C245 1.429 . S
C229 H251 0.950 . S
C230 H226 0.949 . S
C230 C238 1.574 . S
C230 C246 1.368 . S
H231 C239 0.950 . S
H232 C237 0.950 . S
H233 C238 0.949 . S
H234 C240 0.950 . S
H235 C241 0.950 . S
H236 C242 0.949 . S
C237 H232 0.950 . S
C237 C239 1.327 . S
C237 C243 1.429 . S
C238 C230 1.574 . S
C238 H233 0.949 . S
C238 C244 1.368 . S
C239 C223 1.349 . S
C239 H231 0.950 . S
C239 C237 1.327 . S
C240 C228 1.349 . S
C240 H234 0.950 . S
C240 C241 1.327 . S
C241 H235 0.950 . S
C241 C240 1.327 . S
C241 C245 1.429 . S
C242 C225 1.574 . S
C242 H236 0.949 . S
C242 C246 1.368 . S
C243 C224 1.429 . S
C243 C237 1.429 . S
C243 C244 1.523 . S
C244 C225 1.368 . S
C244 C238 1.368 . S
C244 C243 1.523 . S
C245 C229 1.429 . S
C245 C241 1.429 . S
C245 C246 1.523 . S
C246 C230 1.368 . S
C246 C242 1.368 . S
C246 C245 1.523 . S
H247 C222 0.950 . S
H248 C224 0.950 . S
H249 C225 0.949 . S
H250 C227 0.950 . S
H251 C229 0.950 . S
C252 C253 1.349 . S
C252 C254 1.327 . S
C252 H277 0.950 . S
C253 C252 1.349 . S
C253 C269 1.349 . S
C254 C252 1.327 . S
C254 C273 1.429 . S
C254 H278 0.950 . S
C255 C272 1.574 . S
C255 C274 1.368 . S
C255 H279 0.949 . S
H256 C260 0.949 . S
C257 C258 1.349 . S
C257 C259 1.327 . S
C257 H280 0.950 . S
C258 C257 1.349 . S
C258 C270 1.349 . S
C259 C257 1.327 . S
C259 C275 1.429 . S
C259 H281 0.950 . S
C260 H256 0.949 . S
C260 C268 1.574 . S
C260 C276 1.368 . S
H261 C269 0.950 . S
H262 C267 0.950 . S
H263 C268 0.949 . S
H264 C270 0.950 . S
H265 C271 0.950 . S
H266 C272 0.949 . S
C267 H262 0.950 . S
C267 C269 1.327 . S
C267 C273 1.429 . S
C268 C260 1.574 . S
C268 H263 0.949 . S
C268 C274 1.368 . S
C269 C253 1.349 . S
C269 H261 0.950 . S
C269 C267 1.327 . S
C270 C258 1.349 . S
C270 H264 0.950 . S
C270 C271 1.327 . S
C271 H265 0.950 . S
C271 C270 1.327 . S
C271 C275 1.429 . S
C272 C255 1.574 . S
C272 H266 0.949 . S
C272 C276 1.368 . S
C273 C254 1.429 . S
C273 C267 1.429 . S
C273 C274 1.523 . S
C274 C255 1.368 . S
C274 C268 1.368 . S
C274 C273 1.523 . S
C275 C259 1.429 . S
C275 C271 1.429 . S
C275 C276 1.523 . S
C276 C260 1.368 . S
C276 C272 1.368 . S
C276 C275 1.523 . S
H277 C252 0.950 . S
H278 C254 0.950 . S
H279 C255 0.949 . S
H280 C257 0.950 . S
H281 C259 0.950 . S
C282 C283 1.349 . S
C282 C284 1.327 . S
C282 H307 0.950 . S
C283 C282 1.349 . S
C283 C299 1.349 . S
C284 C282 1.327 . S
C284 C303 1.429 . S
C284 H308 0.950 . S
C285 C302 1.574 . S
C285 C304 1.368 . S
C285 H309 0.949 . S
H286 C290 0.949 . S
C287 C288 1.349 . S
C287 C289 1.327 . S
C287 H310 0.950 . S
C288 C287 1.349 . S
C288 C300 1.349 . S
C289 C287 1.327 . S
C289 C305 1.429 . S
C289 H311 0.950 . S
C290 H286 0.949 . S
C290 C298 1.574 . S
C290 C306 1.368 . S
H291 C299 0.950 . S
H292 C297 0.950 . S
H293 C298 0.949 . S
H294 C300 0.950 . S
H295 C301 0.950 . S
H296 C302 0.949 . S
C297 H292 0.950 . S
C297 C299 1.327 . S
C297 C303 1.429 . S
C298 C290 1.574 . S
C298 H293 0.949 . S
C298 C304 1.368 . S
C299 C283 1.349 . S
C299 H291 0.950 . S
C299 C297 1.327 . S
C300 C288 1.349 . S
C300 H294 0.950 . S
C300 C301 1.327 . S
C301 H295 0.950 . S
C301 C300 1.327 . S
C301 C305 1.429 . S
C302 C285 1.574 . S
C302 H296 0.949 . S
C302 C306 1.368 . S
C303 C284 1.429 . S
C303 C297 1.429 . S
C303 C304 1.523 . S
C304 C285 1.368 . S
C304 C298 1.368 . S
C304 C303 1.523 . S
C305 C289 1.429 . S
C305 C301 1.429 . S
C305 C306 1.523 . S
C306 C290 1.368 . S
C306 C302 1.368 . S
C306 C305 1.523 . S
H307 C282 0.950 . S
H308 C284 0.950 . S
H309 C285 0.949 . S
H310 C287 0.950 . S
H311 C289 0.950 . S
C312 C313 1.349 . S
C312 C314 1.327 . S
C312 H337 0.950 . S
C313 C312 1.349 . S
C313 C329 1.349 . S
C314 C312 1.327 . S
C314 C333 1.429 . S
C314 H338 0.950 . S
C315 C332 1.574 . S
C315 C334 1.368 . S
C315 H339 0.949 . S
H316 C320 0.949 . S
C317 C318 1.349 . S
C317 C319 1.327 . S
C317 H340 0.950 . S
C318 C317 1.349 . S
C318 C330 1.349 . S
C319 C317 1.327 . S
C319 C335 1.429 . S
C319 H341 0.950 . S
C320 H316 0.949 . S
C320 C328 1.574 . S
C320 C336 1.368 . S
H321 C329 0.950 . S
H322 C327 0.950 . S
H323 C328 0.949 . S
H324 C330 0.950 . S
H325 C331 0.950 . S
H326 C332 0.949 . S
C327 H322 0.950 . S
C327 C329 1.327 . S
C327 C333 1.429 . S
C328 C320 1.574 . S
C328 H323 0.949 . S
C328 C334 1.368 . S
C329 C313 1.349 . S
C329 H321 0.950 . S
C329 C327 1.327 . S
C330 C318 1.349 . S
C330 H324 0.950 . S
C330 C331 1.327 . S
C331 H325 0.950 . S
C331 C330 1.327 . S
C331 C335 1.429 . S
C332 C315 1.574 . S
C332 H326 0.949 . S
C332 C336 1.368 . S
C333 C314 1.429 . S
C333 C327 1.429 . S
C333 C334 1.523 . S
C334 C315 1.368 . S
C334 C328 1.368 . S
C334 C333 1.523 . S
C335 C319 1.429 . S
C335 C331 1.429 . S
C335 C336 1.523 . S
C336 C320 1.368 . S
C336 C332 1.368 . S
C336 C335 1.523 . S
H337 C312 0.950 . S
H338 C314 0.950 . S
H339 C315 0.949 . S
H340 C317 0.950 . S
H341 C319 0.950 . S
C342 C343 1.349 . S
C342 C344 1.327 . S
C342 H367 0.950 . S
C343 C342 1.349 . S
C343 C359 1.349 . S
C344 C342 1.327 . S
C344 C363 1.429 . S
C344 H368 0.950 . S
C345 C362 1.574 . S
C345 C364 1.368 . S
C345 H369 0.949 . S
H346 C350 0.949 . S
C347 C348 1.349 . S
C347 C349 1.327 . S
C347 H370 0.950 . S
C348 C347 1.349 . S
C348 C360 1.349 . S
C349 C347 1.327 . S
C349 C365 1.429 . S
C349 H371 0.950 . S
C350 H346 0.949 . S
C350 C358 1.574 . S
C350 C366 1.368 . S
H351 C359 0.950 . S
H352 C357 0.950 . S
H353 C358 0.949 . S
H354 C360 0.950 . S
H355 C361 0.950 . S
H356 C362 0.949 . S
C357 H352 0.950 . S
C357 C359 1.327 . S
C357 C363 1.429 . S
C358 C350 1.574 . S
C358 H353 0.949 . S
C358 C364 1.368 . S
C359 C343 1.349 . S
C359 H351 0.950 . S
C359 C357 1.327 . S
C360 C348 1.349 . S
C360 H354 0.950 . S
C360 C361 1.327 . S
C361 H355 0.950 . S
C361 C360 1.327 . S
C361 C365 1.429 . S
C362 C345 1.574 . S
C362 H356 0.949 . S
C362 C366 1.368 . S
C363 C344 1.429 . S
C363 C357 1.429 . S
C363 C364 1.523 . S
C364 C345 1.368 . S
C364 C358 1.368 . S
C364 C363 1.523 . S
C365 C349 1.429 . S
C365 C361 1.429 . S
C365 C366 1.523 . S
C366 C350 1.368 . S
C366 C362 1.368 . S
C366 C365 1.523 . S
H367 C342 0.950 . S
H368 C344 0.950 . S
H369 C345 0.949 . S
H370 C347 0.950 . S
H371 C349 0.950 . S
C372 C373 1.349 . S
C372 C374 1.327 . S
C372 H397 0.950 . S
C373 C372 1.349 . S
C373 C389 1.349 . S
C374 C372 1.327 . S
C374 C393 1.429 . S
C374 H398 0.950 . S
C375 C392 1.574 . S
C375 C394 1.368 . S
C375 H399 0.949 . S
H376 C380 0.949 . S
C377 C378 1.349 . S
C377 C379 1.327 . S
C377 H400 0.950 . S
C378 C377 1.349 . S
C378 C390 1.349 . S
C379 C377 1.327 . S
C379 C395 1.429 . S
C379 H401 0.950 . S
C380 H376 0.949 . S
C380 C388 1.574 . S
C380 C396 1.368 . S
H381 C389 0.950 . S
H382 C387 0.950 . S
H383 C388 0.949 . S
H384 C390 0.950 . S
H385 C391 0.950 . S
H386 C392 0.949 . S
C387 H382 0.950 . S
C387 C389 1.327 . S
C387 C393 1.429 . S
C388 C380 1.574 . S
C388 H383 0.949 . S
C388 C394 1.368 . S
C389 C373 1.349 . S
C389 H381 0.950 . S
C389 C387 1.327 . S
C390 C378 1.349 . S
C390 H384 0.950 . S
C390 C391 1.327 . S
C391 H385 0.950 . S
C391 C390 1.327 . S
C391 C395 1.429 . S
C392 C375 1.574 . S
C392 H386 0.949 . S
C392 C396 1.368 . S
C393 C374 1.429 . S
C393 C387 1.429 . S
C393 C394 1.523 . S
C394 C375 1.368 . S
C394 C388 1.368 . S
C394 C393 1.523 . S
C395 C379 1.429 . S
C395 C391 1.429 . S
C395 C396 1.523 . S
C396 C380 1.368 . S
C396 C392 1.368 . S
C396 C395 1.523 . S
H397 C372 0.950 . S
H398 C374 0.950 . S
H399 C375 0.949 . S
H400 C377 0.950 . S
H401 C379 0.950 . S
C402 C403 1.349 . S
C402 C404 1.327 . S
C402 H427 0.950 . S
C403 C402 1.349 . S
C403 C419 1.349 . S
C404 C402 1.327 . S
C404 C423 1.429 . S
C404 H428 0.950 . S
C405 C422 1.574 . S
C405 C424 1.368 . S
C405 H429 0.949 . S
H406 C410 0.949 . S
C407 C408 1.349 . S
C407 C409 1.327 . S
C407 H430 0.950 . S
C408 C407 1.349 . S
C408 C420 1.349 . S
C409 C407 1.327 . S
C409 C425 1.429 . S
C409 H431 0.950 . S
C410 H406 0.949 . S
C410 C418 1.574 . S
C410 C426 1.368 . S
H411 C419 0.950 . S
H412 C417 0.950 . S
H413 C418 0.949 . S
H414 C420 0.950 . S
H415 C421 0.950 . S
H416 C422 0.949 . S
C417 H412 0.950 . S
C417 C419 1.327 . S
C417 C423 1.429 . S
C418 C410 1.574 . S
C418 H413 0.949 . S
C418 C424 1.368 . S
C419 C403 1.349 . S
C419 H411 0.950 . S
C419 C417 1.327 . S
C420 C408 1.349 . S
C420 H414 0.950 . S
C420 C421 1.327 . S
C421 H415 0.950 . S
C421 C420 1.327 . S
C421 C425 1.429 . S
C422 C405 1.574 . S
C422 H416 0.949 . S
C422 C426 1.368 . S
C423 C404 1.429 . S
C423 C417 1.429 . S
C423 C424 1.523 . S
C424 C405 1.368 . S
C424 C418 1.368 . S
C424 C423 1.523 . S
C425 C409 1.429 . S
C425 C421 1.429 . S
C425 C426 1.523 . S
C426 C410 1.368 . S
C426 C422 1.368 . S
C426 C425 1.523 . S
H427 C402 0.950 . S
H428 C404 0.950 . S
H429 C405 0.949 . S
H430 C407 0.950 . S
H431 C409 0.950 . S
C432 C433 1.349 . S
C432 C434 1.327 . S
C432 H457 0.950 . S
C433 C432 1.349 . S
C433 C449 1.349 . S
C434 C432 1.327 . S
C434 C453 1.429 . S
C434 H458 0.950 . S
C435 C452 1.574 . S
C435 C454 1.368 . S
C435 H459 0.949 . S
H436 C440 0.949 . S
C437 C438 1.349 . S
C437 C439 1.327 . S
C437 H460 0.950 . S
C438 C437 1.349 . S
C438 C450 1.349 . S
C439 C437 1.327 . S
C439 C455 1.429 . S
C439 H461 0.950 . S
C440 H436 0.949 . S
C440 C448 1.574 . S
C440 C456 1.368 . S
H441 C449 0.950 . S
H442 C447 0.950 . S
H443 C448 0.949 . S
H444 C450 0.950 . S
H445 C451 0.950 . S
H446 C452 0.949 . S
C447 H442 0.950 . S
C447 C449 1.327 . S
C447 C453 1.429 . S
C448 C440 1.574 . S
C448 H443 0.949 . S
C448 C454 1.368 . S
C449 C433 1.349 . S
C449 H441 0.950 . S
C449 C447 1.327 . S
C450 C438 1.349 . S
C450 H444 0.950 . S
C450 C451 1.327 . S
C451 H445 0.950 . S
C451 C450 1.327 . S
C451 C455 1.429 . S
C452 C435 1.574 . S
C452 H446 0.949 . S
C452 C456 1.368 . S
C453 C434 1.429 . S
C453 C447 1.429 . S
C453 C454 1.523 . S
C454 C435 1.368 . S
C454 C448 1.368 . S
C454 C453 1.523 . S
C455 C439 1.429 . S
C455 C451 1.429 . S
C455 C456 1.523 . S
C456 C440 1.368 . S
C456 C452 1.368 . S
C456 C455 1.523 . S
H457 C432 0.950 . S
H458 C434 0.950 . S
H459 C435 0.949 . S
H460 C437 0.950 . S
H461 C439 0.950 . S
C462 C463 1.349 1_556 S
C462 C464 1.339 . S
C462 H487 0.950 . S
C463 C462 1.349 1_554 S
C463 C479 1.349 . S
C464 C462 1.339 . S
C464 C483 1.387 1_556 S
C464 H488 0.982 . S
C465 C482 1.574 . S
C465 C484 1.368 . S
C465 H489 0.949 . S
H466 C470 0.949 . S
C467 C468 1.349 . S
C467 C469 1.327 . S
C467 H490 0.950 . S
C468 C467 1.349 . S
C468 C480 1.349 . S
C469 C467 1.327 . S
C469 C485 1.429 . S
C469 H491 0.950 . S
C470 H466 0.949 . S
C470 C478 1.574 . S
C470 C486 1.368 . S
H471 C479 0.950 . S
H472 C477 0.950 . S
H473 C478 0.949 1_556 S
H474 C480 0.950 . S
H475 C481 0.950 . S
H476 C482 0.949 . S
C477 H472 0.950 . S
C477 C479 1.327 . S
C477 C483 1.429 . S
C478 C470 1.574 . S
C478 H473 0.949 1_554 S
C478 C484 1.368 . S
C479 C463 1.349 . S
C479 H471 0.950 . S
C479 C477 1.327 . S
C480 C468 1.349 . S
C480 H474 0.950 . S
C480 C481 1.327 . S
C481 H475 0.950 . S
C481 C480 1.327 . S
C481 C485 1.429 . S
C482 C465 1.574 . S
C482 H476 0.949 . S
C482 C486 1.368 . S
C483 C464 1.387 1_554 S
C483 C477 1.429 . S
C483 C484 1.523 . S
C484 C465 1.368 . S
C484 C478 1.368 . S
C484 C483 1.523 . S
C485 C469 1.429 . S
C485 C481 1.429 . S
C485 C486 1.523 . S
C486 C470 1.368 . S
C486 C482 1.368 . S
C486 C485 1.523 . S
H487 C462 0.950 . S
H488 C464 0.982 . S
H489 C465 0.949 . S
H490 C467 0.950 . S
H491 C469 0.950 . S
C492 C493 1.349 . S
C492 C494 1.327 . S
C492 H517 0.950 . S
C493 C492 1.349 . S
C493 C509 1.349 . S
C494 C492 1.327 . S
C494 C513 1.429 . S
C494 H518 0.950 . S
C495 C512 1.574 . S
C495 C514 1.368 . S
C495 H519 0.949 . S
H496 C500 0.949 . S
C497 C498 1.349 . S
C497 C499 1.327 . S
C497 H520 0.950 . S
C498 C497 1.349 . S
C498 C510 1.349 . S
C499 C497 1.327 . S
C499 C515 1.429 . S
C499 H521 0.950 . S
C500 H496 0.949 . S
C500 C508 1.574 . S
C500 C516 1.368 . S
H501 C509 0.950 . S
H502 C507 0.950 . S
H503 C508 0.949 . S
H504 C510 0.950 . S
H505 C511 0.950 . S
H506 C512 0.949 . S
C507 H502 0.950 . S
C507 C509 1.327 . S
C507 C513 1.429 . S
C508 C500 1.574 . S
C508 H503 0.949 . S
C508 C514 1.368 . S
C509 C493 1.349 . S
C509 H501 0.950 . S
C509 C507 1.327 . S
C510 C498 1.349 . S
C510 H504 0.950 . S
C510 C511 1.327 . S
C511 H505 0.950 . S
C511 C510 1.327 . S
C511 C515 1.429 . S
C512 C495 1.574 . S
C512 H506 0.949 . S
C512 C516 1.368 . S
C513 C494 1.429 . S
C513 C507 1.429 . S
C513 C514 1.523 . S
C514 C495 1.368 . S
C514 C508 1.368 . S
C514 C513 1.523 . S
C515 C499 1.429 . S
C515 C511 1.429 . S
C515 C516 1.523 . S
C516 C500 1.368 . S
C516 C512 1.368 . S
C516 C515 1.523 . S
H517 C492 0.950 . S
H518 C494 0.950 . S
H519 C495 0.949 . S
H520 C497 0.950 . S
H521 C499 0.950 . S
C522 C523 1.349 . S
C522 C524 1.327 . S
C522 H547 0.950 . S
C523 C522 1.349 . S
C523 C539 1.349 . S
C524 C522 1.327 . S
C524 C543 1.429 . S
C524 H548 0.950 . S
C525 C542 1.574 . S
C525 C544 1.368 . S
C525 H549 0.949 . S
H526 C530 0.949 . S
C527 C528 1.349 . S
C527 C529 1.327 . S
C527 H550 0.950 . S
C528 C527 1.349 . S
C528 C540 1.349 . S
C529 C527 1.327 . S
C529 C545 1.429 . S
C529 H551 0.950 . S
C530 H526 0.949 . S
C530 C538 1.574 . S
C530 C546 1.368 . S
H531 C539 0.950 . S
H532 C537 0.950 . S
H533 C538 0.949 . S
H534 C540 0.950 . S
H535 C541 0.950 . S
H536 C542 0.949 . S
C537 H532 0.950 . S
C537 C539 1.327 . S
C537 C543 1.429 . S
C538 C530 1.574 . S
C538 H533 0.949 . S
C538 C544 1.368 . S
C539 C523 1.349 . S
C539 H531 0.950 . S
C539 C537 1.327 . S
C540 C528 1.349 . S
C540 H534 0.950 . S
C540 C541 1.327 . S
C541 H535 0.950 . S
C541 C540 1.327 . S
C541 C545 1.429 . S
C542 C525 1.574 . S
C542 H536 0.949 . S
C542 C546 1.368 . S
C543 C524 1.429 . S
C543 C537 1.429 . S
C543 C544 1.523 . S
C544 C525 1.368 . S
C544 C538 1.368 . S
C544 C543 1.523 . S
C545 C529 1.429 . S
C545 C541 1.429 . S
C545 C546 1.523 . S
C546 C530 1.368 . S
C546 C542 1.368 . S
C546 C545 1.523 . S
H547 C522 0.950 . S
H548 C524 0.950 . S
H549 C525 0.949 . S
H550 C527 0.950 . S
H551 C529 0.950 . S
C552 C553 1.349 . S
C552 C554 1.327 . S
C552 H577 0.950 . S
C553 C552 1.349 . S
C553 C569 1.349 . S
C554 C552 1.327 . S
C554 C573 1.429 . S
C554 H578 0.950 . S
C555 C572 1.574 . S
C555 C574 1.368 . S
C555 H579 0.949 . S
H556 C560 0.949 . S
C557 C558 1.349 . S
C557 C559 1.327 . S
C557 H580 0.950 . S
C558 C557 1.349 . S
C558 C570 1.349 . S
C559 C557 1.327 . S
C559 C575 1.429 . S
C559 H581 0.950 . S
C560 H556 0.949 . S
C560 C568 1.574 . S
C560 C576 1.368 . S
H561 C569 0.950 . S
H562 C567 0.950 . S
H563 C568 0.949 . S
H564 C570 0.950 . S
H565 C571 0.950 . S
H566 C572 0.949 . S
C567 H562 0.950 . S
C567 C569 1.327 . S
C567 C573 1.429 . S
C568 C560 1.574 . S
C568 H563 0.949 . S
C568 C574 1.368 . S
C569 C553 1.349 . S
C569 H561 0.950 . S
C569 C567 1.327 . S
C570 C558 1.349 . S
C570 H564 0.950 . S
C570 C571 1.327 . S
C571 H565 0.950 . S
C571 C570 1.327 . S
C571 C575 1.429 . S
C572 C555 1.574 . S
C572 H566 0.949 . S
C572 C576 1.368 . S
C573 C554 1.429 . S
C573 C567 1.429 . S
C573 C574 1.523 . S
C574 C555 1.368 . S
C574 C568 1.368 . S
C574 C573 1.523 . S
C575 C559 1.429 . S
C575 C571 1.429 . S
C575 C576 1.523 . S
C576 C560 1.368 . S
C576 C572 1.368 . S
C576 C575 1.523 . S
H577 C552 0.950 . S
H578 C554 0.950 . S
H579 C555 0.949 . S
H580 C557 0.950 . S
H581 C559 0.950 . S
C582 C583 1.349 . S
C582 C584 1.327 . S
C582 H607 0.950 . S
C583 C582 1.349 . S
C583 C599 1.349 . S
C584 C582 1.327 . S
C584 C603 1.429 . S
C584 H608 0.950 . S
C585 C602 1.574 . S
C585 C604 1.368 . S
C585 H609 0.949 . S
H586 C590 0.949 . S
C587 C588 1.349 . S
C587 C589 1.327 . S
C587 H610 0.950 . S
C588 C587 1.349 . S
C588 C600 1.349 . S
C589 C587 1.327 . S
C589 C605 1.429 . S
C589 H611 0.950 . S
C590 H586 0.949 . S
C590 C598 1.574 . S
C590 C606 1.368 . S
H591 C599 0.950 . S
H592 C597 0.950 . S
H593 C598 0.949 . S
H594 C600 0.950 . S
H595 C601 0.950 . S
H596 C602 0.949 . S
C597 H592 0.950 . S
C597 C599 1.327 . S
C597 C603 1.429 . S
C598 C590 1.574 . S
C598 H593 0.949 . S
C598 C604 1.368 . S
C599 C583 1.349 . S
C599 H591 0.950 . S
C599 C597 1.327 . S
C600 C588 1.349 . S
C600 H594 0.950 . S
C600 C601 1.327 . S
C601 H595 0.950 . S
C601 C600 1.327 . S
C601 C605 1.429 . S
C602 C585 1.574 . S
C602 H596 0.949 . S
C602 C606 1.368 . S
C603 C584 1.429 . S
C603 C597 1.429 . S
C603 C604 1.523 . S
C604 C585 1.368 . S
C604 C598 1.368 . S
C604 C603 1.523 . S
C605 C589 1.429 . S
C605 C601 1.429 . S
C605 C606 1.523 . S
C606 C590 1.368 . S
C606 C602 1.368 . S
C606 C605 1.523 . S
H607 C582 0.950 . S
H608 C584 0.950 . S
H609 C585 0.949 . S
H610 C587 0.950 . S
H611 C589 0.950 . S
C612 C613 1.349 . S
C612 C614 1.327 . S
C612 H637 0.950 . S
C613 C612 1.349 . S
C613 C629 1.349 . S
C614 C612 1.327 . S
C614 C633 1.429 . S
C614 H638 0.950 . S
C615 C632 1.574 . S
C615 C634 1.368 . S
C615 H639 0.949 . S
H616 C620 0.949 . S
C617 C618 1.349 . S
C617 C619 1.327 . S
C617 H640 0.950 . S
C618 C617 1.349 . S
C618 C630 1.349 . S
C619 C617 1.327 . S
C619 C635 1.429 . S
C619 H641 0.950 . S
C620 H616 0.949 . S
C620 C628 1.574 . S
C620 C636 1.368 . S
H621 C629 0.950 . S
H622 C627 0.950 . S
H623 C628 0.949 . S
H624 C630 0.950 . S
H625 C631 0.950 . S
H626 C632 0.949 . S
C627 H622 0.950 . S
C627 C629 1.327 . S
C627 C633 1.429 . S
C628 C620 1.574 . S
C628 H623 0.949 . S
C628 C634 1.368 . S
C629 C613 1.349 . S
C629 H621 0.950 . S
C629 C627 1.327 . S
C630 C618 1.349 . S
C630 H624 0.950 . S
C630 C631 1.327 . S
C631 H625 0.950 . S
C631 C630 1.327 . S
C631 C635 1.429 . S
C632 C615 1.574 . S
C632 H626 0.949 . S
C632 C636 1.368 . S
C633 C614 1.429 . S
C633 C627 1.429 . S
C633 C634 1.523 . S
C634 C615 1.368 . S
C634 C628 1.368 . S
C634 C633 1.523 . S
C635 C619 1.429 . S
C635 C631 1.429 . S
C635 C636 1.523 . S
C636 C620 1.368 . S
C636 C632 1.368 . S
C636 C635 1.523 . S
H637 C612 0.950 . S
H638 C614 0.950 . S
H639 C615 0.949 . S
H640 C617 0.950 . S
H641 C619 0.950 . S
C642 C643 1.349 . S
C642 C644 1.327 . S
C642 H667 0.950 . S
C643 C642 1.349 . S
C643 C659 1.349 . S
C644 C642 1.327 . S
C644 C663 1.429 . S
C644 H668 0.950 . S
C645 C662 1.574 . S
C645 C664 1.368 . S
C645 H669 0.949 . S
H646 C650 0.949 . S
C647 C648 1.349 . S
C647 C649 1.327 1_554 S
C647 H670 0.950 . S
C648 C647 1.349 . S
C648 C660 1.349 . S
C649 C647 1.327 1_556 S
C649 C665 1.429 . S
C649 H671 0.950 . S
C650 H646 0.949 . S
C650 C658 1.574 . S
C650 C666 1.368 . S
H651 C659 0.950 . S
H652 C657 0.950 . S
H653 C658 0.949 . S
H654 C660 0.950 . S
H655 C661 0.950 . S
H656 C662 0.949 . S
C657 H652 0.950 . S
C657 C659 1.327 . S
C657 C663 1.429 . S
C658 C650 1.574 . S
C658 H653 0.949 . S
C658 C664 1.368 . S
C659 C643 1.349 . S
C659 H651 0.950 . S
C659 C657 1.327 . S
C660 C648 1.349 . S
C660 H654 0.950 . S
C660 C661 1.327 1_554 S
C661 H655 0.950 . S
C661 C660 1.327 1_556 S
C661 C665 1.429 . S
C662 C645 1.574 . S
C662 H656 0.949 . S
C662 C666 1.368 . S
C663 C644 1.429 . S
C663 C657 1.429 . S
C663 C664 1.523 . S
C664 C645 1.368 . S
C664 C658 1.368 . S
C664 C663 1.523 . S
C665 C649 1.429 . S
C665 C661 1.429 . S
C665 C666 1.523 . S
C666 C650 1.368 . S
C666 C662 1.368 . S
C666 C665 1.523 . S
H667 C642 0.950 . S
H668 C644 0.950 . S
H669 C645 0.949 . S
H670 C647 0.950 . S
H671 C649 0.950 . S
C672 C673 1.349 . S
C672 C674 1.327 . S
C672 H697 0.950 . S
C673 C672 1.349 . S
C673 C689 1.349 . S
C674 C672 1.327 . S
C674 C693 1.429 . S
C674 H698 0.950 . S
C675 C692 1.574 . S
C675 C694 1.368 . S
C675 H699 0.949 . S
H676 C680 0.949 . S
C677 C678 1.349 . S
C677 C679 1.327 . S
C677 H700 0.950 . S
C678 C677 1.349 . S
C678 C690 1.349 . S
C679 C677 1.327 . S
C679 C695 1.429 . S
C679 H701 0.950 . S
C680 H676 0.949 . S
C680 C688 1.574 . S
C680 C696 1.368 . S
H681 C689 0.950 . S
H682 C687 0.950 . S
H683 C688 0.949 . S
H684 C690 0.950 . S
H685 C691 0.950 . S
H686 C692 0.949 . S
C687 H682 0.950 . S
C687 C689 1.327 . S
C687 C693 1.429 . S
C688 C680 1.574 . S
C688 H683 0.949 . S
C688 C694 1.368 . S
C689 C673 1.349 . S
C689 H681 0.950 . S
C689 C687 1.327 . S
C690 C678 1.349 . S
C690 H684 0.950 . S
C690 C691 1.327 . S
C691 H685 0.950 . S
C691 C690 1.327 . S
C691 C695 1.429 . S
C692 C675 1.574 . S
C692 H686 0.949 . S
C692 C696 1.368 . S
C693 C674 1.429 . S
C693 C687 1.429 . S
C693 C694 1.523 . S
C694 C675 1.368 . S
C694 C688 1.368 . S
C694 C693 1.523 . S
C695 C679 1.429 . S
C695 C691 1.429 . S
C695 C696 1.523 . S
C696 C680 1.368 . S
C696 C692 1.368 . S
C696 C695 1.523 . S
H697 C672 0.950 . S
H698 C674 0.950 . S
H699 C675 0.949 . S
H700 C677 0.950 . S
H701 C679 0.950 . S
C702 C703 1.349 . S
C702 C704 1.327 . S
C702 H727 0.950 . S
C703 C702 1.349 . S
C703 C719 1.349 . S
C704 C702 1.327 . S
C704 C723 1.429 . S
C704 H728 0.950 . S
C705 C722 1.574 . S
C705 C724 1.368 . S
C705 H729 0.949 . S
H706 C710 0.949 . S
C707 C708 1.349 . S
C707 C709 1.327 . S
C707 H730 0.950 . S
C708 C707 1.349 . S
C708 C720 1.349 . S
C709 C707 1.327 . S
C709 C725 1.429 . S
C709 H731 0.950 . S
C710 H706 0.949 . S
C710 C718 1.574 . S
C710 C726 1.368 . S
H711 C719 0.950 . S
H712 C717 0.950 . S
H713 C718 0.949 . S
H714 C720 0.950 . S
H715 C721 0.950 . S
H716 C722 0.949 . S
C717 H712 0.950 . S
C717 C719 1.327 . S
C717 C723 1.429 . S
C718 C710 1.574 . S
C718 H713 0.949 . S
C718 C724 1.368 . S
C719 C703 1.349 . S
C719 H711 0.950 . S
C719 C717 1.327 . S
C720 C708 1.349 . S
C720 H714 0.950 . S
C720 C721 1.327 . S
C721 H715 0.950 . S
C721 C720 1.327 . S
C721 C725 1.429 . S
C722 C705 1.574 . S
C722 H716 0.949 . S
C722 C726 1.368 . S
C723 C704 1.429 . S
C723 C717 1.429 . S
C723 C724 1.523 . S
C724 C705 1.368 . S
C724 C718 1.368 . S
C724 C723 1.523 . S
C725 C709 1.429 . S
C725 C721 1.429 . S
C725 C726 1.523 . S
C726 C710 1.368 . S
C726 C722 1.368 . S
C726 C725 1.523 . S
H727 C702 0.950 . S
H728 C704 0.950 . S
H729 C705 0.949 . S
H730 C707 0.950 . S
H731 C709 0.950 . S
C732 C733 1.349 . S
C732 C734 1.327 . S
C732 H757 0.950 . S
C733 C732 1.349 . S
C733 C749 1.349 . S
C734 C732 1.327 . S
C734 C753 1.429 . S
C734 H758 0.950 . S
C735 C752 1.574 . S
C735 C754 1.368 . S
C735 H759 0.949 . S
H736 C740 0.949 . S
C737 C738 1.349 . S
C737 C739 1.327 . S
C737 H760 0.950 . S
C738 C737 1.349 . S
C738 C750 1.349 . S
C739 C737 1.327 . S
C739 C755 1.429 . S
C739 H761 0.950 . S
C740 H736 0.949 . S
C740 C748 1.574 . S
C740 C756 1.368 . S
H741 C749 0.950 . S
H742 C747 0.950 . S
H743 C748 0.949 . S
H744 C750 0.950 . S
H745 C751 0.950 . S
H746 C752 0.949 . S
C747 H742 0.950 . S
C747 C749 1.327 . S
C747 C753 1.429 . S
C748 C740 1.574 . S
C748 H743 0.949 . S
C748 C754 1.368 . S
C749 C733 1.349 . S
C749 H741 0.950 . S
C749 C747 1.327 . S
C750 C738 1.349 . S
C750 H744 0.950 . S
C750 C751 1.327 . S
C751 H745 0.950 . S
C751 C750 1.327 . S
C751 C755 1.429 . S
C752 C735 1.574 . S
C752 H746 0.949 . S
C752 C756 1.368 . S
C753 C734 1.429 . S
C753 C747 1.429 . S
C753 C754 1.523 . S
C754 C735 1.368 . S
C754 C748 1.368 . S
C754 C753 1.523 . S
C755 C739 1.429 . S
C755 C751 1.429 . S
C755 C756 1.523 . S
C756 C740 1.368 . S
C756 C752 1.368 . S
C756 C755 1.523 . S
H757 C732 0.950 . S
H758 C734 0.950 . S
H759 C735 0.949 . S
H760 C737 0.950 . S
H761 C739 0.950 . S
C762 C763 1.349 . S
C762 C764 1.327 . S
C762 H787 0.950 . S
C763 C762 1.349 . S
C763 C779 1.349 . S
C764 C762 1.327 . S
C764 C783 1.429 . S
C764 H788 0.950 . S
C765 C782 1.574 . S
C765 C784 1.368 . S
C765 H789 0.949 . S
H766 C770 0.949 . S
C767 C768 1.349 . S
C767 C769 1.327 . S
C767 H790 0.950 . S
C768 C767 1.349 . S
C768 C780 1.349 . S
C769 C767 1.327 . S
C769 C785 1.429 . S
C769 H791 0.950 . S
C770 H766 0.949 . S
C770 C778 1.574 . S
C770 C786 1.368 . S
H771 C779 0.950 . S
H772 C777 0.950 . S
H773 C778 0.949 . S
H774 C780 0.950 . S
H775 C781 0.950 . S
H776 C782 0.949 . S
C777 H772 0.950 . S
C777 C779 1.327 . S
C777 C783 1.429 . S
C778 C770 1.574 . S
C778 H773 0.949 . S
C778 C784 1.368 . S
C779 C763 1.349 . S
C779 H771 0.950 . S
C779 C777 1.327 . S
C780 C768 1.349 . S
C780 H774 0.950 . S
C780 C781 1.327 . S
C781 H775 0.950 . S
C781 C780 1.327 . S
C781 C785 1.429 . S
C782 C765 1.574 . S
C782 H776 0.949 . S
C782 C786 1.368 . S
C783 C764 1.429 . S
C783 C777 1.429 . S
C783 C784 1.523 . S
C784 C765 1.368 . S
C784 C778 1.368 . S
C784 C783 1.523 . S
C785 C769 1.429 . S
C785 C781 1.429 . S
C785 C786 1.523 . S
C786 C770 1.368 . S
C786 C782 1.368 . S
C786 C785 1.523 . S
H787 C762 0.950 . S
H788 C764 0.950 . S
H789 C765 0.949 . S
H790 C767 0.950 . S
H791 C769 0.950 . S
C792 C793 1.349 . S
C792 C794 1.327 . S
C792 H817 0.950 . S
C793 C792 1.349 . S
C793 C809 1.349 . S
C794 C792 1.327 . S
C794 C813 1.429 . S
C794 H818 0.950 . S
C795 C812 1.574 . S
C795 C814 1.368 . S
C795 H819 0.949 . S
H796 C800 0.949 . S
C797 C798 1.349 . S
C797 C799 1.327 . S
C797 H820 0.950 . S
C798 C797 1.349 . S
C798 C810 1.349 . S
C799 C797 1.327 . S
C799 C815 1.429 . S
C799 H821 0.950 . S
C800 H796 0.949 . S
C800 C808 1.574 . S
C800 C816 1.368 . S
H801 C809 0.950 . S
H802 C807 0.950 . S
H803 C808 0.949 . S
H804 C810 0.950 . S
H805 C811 0.950 . S
H806 C812 0.949 . S
C807 H802 0.950 . S
C807 C809 1.327 . S
C807 C813 1.429 . S
C808 C800 1.574 . S
C808 H803 0.949 . S
C808 C814 1.368 . S
C809 C793 1.349 . S
C809 H801 0.950 . S
C809 C807 1.327 . S
C810 C798 1.349 . S
C810 H804 0.950 . S
C810 C811 1.327 . S
C811 H805 0.950 . S
C811 C810 1.327 . S
C811 C815 1.429 . S
C812 C795 1.574 . S
C812 H806 0.949 . S
C812 C816 1.368 . S
C813 C794 1.429 . S
C813 C807 1.429 . S
C813 C814 1.523 . S
C814 C795 1.368 . S
C814 C808 1.368 . S
C814 C813 1.523 . S
C815 C799 1.429 . S
C815 C811 1.429 . S
C815 C816 1.523 . S
C816 C800 1.368 . S
C816 C812 1.368 . S
C816 C815 1.523 . S
H817 C792 0.950 . S
H818 C794 0.950 . S
H819 C795 0.949 . S
H820 C797 0.950 . S
H821 C799 0.950 . S
C822 C823 1.349 . S
C822 C824 1.327 . S
C822 H847 0.950 . S
C823 C822 1.349 . S
C823 C839 1.349 . S
C824 C822 1.327 . S
C824 C843 1.429 . S
C824 H848 0.950 . S
C825 C842 1.574 . S
C825 C844 1.368 . S
C825 H849 0.949 . S
H826 C830 0.949 . S
C827 C828 1.349 . S
C827 C829 1.327 . S
C827 H850 0.950 . S
C828 C827 1.349 . S
C828 C840 1.349 . S
C829 C827 1.327 . S
C829 C845 1.429 . S
C829 H851 0.950 . S
C830 H826 0.949 . S
C830 C838 1.574 . S
C830 C846 1.368 . S
H831 C839 0.950 . S
H832 C837 0.950 . S
H833 C838 0.949 . S
H834 C840 0.950 . S
H835 C841 0.950 . S
H836 C842 0.949 . S
C837 H832 0.950 . S
C837 C839 1.327 . S
C837 C843 1.429 . S
C838 C830 1.574 . S
C838 H833 0.949 . S
C838 C844 1.368 . S
C839 C823 1.349 . S
C839 H831 0.950 . S
C839 C837 1.327 . S
C840 C828 1.349 . S
C840 H834 0.950 . S
C840 C841 1.327 . S
C841 H835 0.950 . S
C841 C840 1.327 . S
C841 C845 1.429 . S
C842 C825 1.574 . S
C842 H836 0.949 . S
C842 C846 1.368 . S
C843 C824 1.429 . S
C843 C837 1.429 . S
C843 C844 1.523 . S
C844 C825 1.368 . S
C844 C838 1.368 . S
C844 C843 1.523 . S
C845 C829 1.429 . S
C845 C841 1.429 . S
C845 C846 1.523 . S
C846 C830 1.368 . S
C846 C842 1.368 . S
C846 C845 1.523 . S
H847 C822 0.950 . S
H848 C824 0.950 . S
H849 C825 0.949 . S
H850 C827 0.950 . S
H851 C829 0.950 . S
C852 C853 1.349 . S
C852 C854 1.327 . S
C852 H877 0.950 . S
C853 C852 1.349 . S
C853 C869 1.349 . S
C854 C852 1.327 . S
C854 C873 1.429 . S
C854 H878 0.950 . S
C855 C872 1.574 . S
C855 C874 1.368 . S
C855 H879 0.949 . S
H856 C860 0.937 1_556 S
C857 C858 1.349 . S
C857 C859 1.327 . S
C857 H880 0.950 . S
C858 C857 1.349 . S
C858 C870 1.349 . S
C859 C857 1.327 . S
C859 C875 1.429 . S
C859 H881 0.950 . S
C860 H856 0.937 1_554 S
C860 C868 1.574 . S
C860 C876 1.368 . S
H861 C869 0.950 . S
H862 C867 0.950 . S
H863 C868 0.949 . S
H864 C870 0.950 . S
H865 C871 0.950 . S
H866 C872 0.949 . S
C867 H862 0.950 . S
C867 C869 1.327 . S
C867 C873 1.429 . S
C868 C860 1.574 . S
C868 H863 0.949 . S
C868 C874 1.368 . S
C869 C853 1.349 . S
C869 H861 0.950 . S
C869 C867 1.327 . S
C870 C858 1.349 . S
C870 H864 0.950 . S
C870 C871 1.327 . S
C871 H865 0.950 . S
C871 C870 1.327 . S
C871 C875 1.429 . S
C872 C855 1.574 . S
C872 H866 0.949 . S
C872 C876 1.368 . S
C873 C854 1.429 . S
C873 C867 1.429 . S
C873 C874 1.523 . S
C874 C855 1.368 . S
C874 C868 1.368 . S
C874 C873 1.523 . S
C875 C859 1.429 . S
C875 C871 1.429 . S
C875 C876 1.523 1_556 S
C876 C860 1.368 . S
C876 C872 1.368 . S
C876 C875 1.523 1_554 S
H877 C852 0.950 . S
H878 C854 0.950 . S
H879 C855 0.949 . S
H880 C857 0.950 . S
H881 C859 0.950 . S
C882 C883 1.349 . S
C882 C884 1.327 . S
C882 H907 0.950 . S
C883 C882 1.349 . S
C883 C899 1.349 . S
C884 C882 1.327 . S
C884 C903 1.429 . S
C884 H908 0.950 . S
C885 C902 1.574 . S
C885 C904 1.368 . S
C885 H909 0.949 . S
H886 C890 0.949 . S
C887 C888 1.349 . S
C887 C889 1.327 . S
C887 H910 0.950 . S
C888 C887 1.349 . S
C888 C900 1.349 . S
C889 C887 1.327 . S
C889 C905 1.429 . S
C889 H911 0.950 . S
C890 H886 0.949 . S
C890 C898 1.574 . S
C890 C906 1.368 . S
H891 C899 0.950 . S
H892 C897 0.950 . S
H893 C898 0.949 . S
H894 C900 0.950 . S
H895 C901 0.950 . S
H896 C902 0.949 . S
C897 H892 0.950 . S
C897 C899 1.327 . S
C897 C903 1.429 . S
C898 C890 1.574 . S
C898 H893 0.949 . S
C898 C904 1.368 . S
C899 C883 1.349 . S
C899 H891 0.950 . S
C899 C897 1.327 . S
C900 C888 1.349 . S
C900 H894 0.950 . S
C900 C901 1.327 . S
C901 H895 0.950 . S
C901 C900 1.327 . S
C901 C905 1.429 . S
C902 C885 1.574 . S
C902 H896 0.949 . S
C902 C906 1.368 . S
C903 C884 1.429 . S
C903 C897 1.429 . S
C903 C904 1.523 . S
C904 C885 1.368 . S
C904 C898 1.368 . S
C904 C903 1.523 . S
C905 C889 1.429 . S
C905 C901 1.429 . S
C905 C906 1.523 . S
C906 C890 1.368 . S
C906 C902 1.368 . S
C906 C905 1.523 . S
H907 C882 0.950 . S
H908 C884 0.950 . S
H909 C885 0.949 . S
H910 C887 0.950 . S
H911 C889 0.950 . S
C198 C183 1.265 . S
C193 C8 1.444 . S
C223 C26 1.475 . S
C228 C113 1.296 . S
C253 C50 1.440 . S
C258 C133 1.483 . S
C283 C68 1.382 . S
C288 C147 1.417 . S
C318 C155 1.241 . S
C313 C80 1.419 . S
C343 C104 1.436 . S
C348 C169 1.262 . S
C373 C32 1.468 . S
C378 C127 1.293 . S
C403 C44 1.416 . S
C408 C141 1.239 . S
C433 C62 1.369 . S
C438 C161 1.402 . S
C468 C175 1.443 . S
C463 C86 1.401 1_554 S
C498 C189 1.440 . S
C493 C98 1.408 . S
C528 C119 1.467 . S
C523 C14 1.429 . S
C553 C7 1.422 . S
C558 C126 1.442 . S
C583 C25 1.439 . S
C588 C140 1.457 . S
C618 C162 1.472 . S
C613 C52 1.421 . S
C643 C70 1.425 . S
C648 C176 1.479 . S
C678 C190 1.443 . S
C673 C79 1.388 . S
C708 C120 1.427 . S
C703 C106 1.374 . S
C738 C182 1.435 . S
C733 C34 1.420 . S
C763 C43 1.420 . S
C768 C112 1.438 . S
C798 C134 1.462 . S
C793 C61 1.408 . S
C823 C88 1.423 . S
C828 C148 1.473 . S
C853 C97 1.472 . S
C858 C154 1.488 . S
C883 C16 1.457 . S
C888 C168 1.471 . S
