# Generated by pormake.
# Topology ana-f, (3,3)-cn, num edge types: 1
# Building blocks:
#     Node 0, Type 0, BuildingBlock: WUSLED_clean_sbu_0, # of connection points: 3
#     Node 1, Type 0, BuildingBlock: WUSLED_clean_sbu_0, # of connection points: 3
#     Node 2, Type 0, BuildingBlock: WUSLED_clean_sbu_0, # of connection points: 3
#     Node 3, Type 0, BuildingBlock: WUSLED_clean_sbu_0, # of connection points: 3
#     Node 4, Type 0, BuildingBlock: WUSLED_clean_sbu_0, # of connection points: 3
#     Node 5, Type 0, BuildingBlock: WUSLED_clean_sbu_0, # of connection points: 3
#     Node 6, Type 0, BuildingBlock: WUSLED_clean_sbu_0, # of connection points: 3
#     Node 7, Type 0, BuildingBlock: WUSLED_clean_sbu_0, # of connection points: 3
#     Node 8, Type 0, BuildingBlock: WUSLED_clean_sbu_0, # of connection points: 3
#     Node 9, Type 0, BuildingBlock: WUSLED_clean_sbu_0, # of connection points: 3
#     Node 10, Type 0, BuildingBlock: WUSLED_clean_sbu_0, # of connection points: 3
#     Node 11, Type 0, BuildingBlock: WUSLED_clean_sbu_0, # of connection points: 3
#     Node 12, Type 0, BuildingBlock: WUSLED_clean_sbu_0, # of connection points: 3
#     Node 13, Type 0, BuildingBlock: WUSLED_clean_sbu_0, # of connection points: 3
#     Node 14, Type 0, BuildingBlock: WUSLED_clean_sbu_0, # of connection points: 3
#     Node 15, Type 0, BuildingBlock: WUSLED_clean_sbu_0, # of connection points: 3
#     Node 16, Type 0, BuildingBlock: WUSLED_clean_sbu_0, # of connection points: 3
#     Node 17, Type 0, BuildingBlock: WUSLED_clean_sbu_0, # of connection points: 3
#     Node 18, Type 0, BuildingBlock: WUSLED_clean_sbu_0, # of connection points: 3
#     Node 19, Type 0, BuildingBlock: WUSLED_clean_sbu_0, # of connection points: 3
#     Node 20, Type 0, BuildingBlock: WUSLED_clean_sbu_0, # of connection points: 3
#     Node 21, Type 0, BuildingBlock: WUSLED_clean_sbu_0, # of connection points: 3
#     Node 22, Type 0, BuildingBlock: WUSLED_clean_sbu_0, # of connection points: 3
#     Node 23, Type 0, BuildingBlock: WUSLED_clean_sbu_0, # of connection points: 3
#     Node 24, Type 0, BuildingBlock: WUSLED_clean_sbu_0, # of connection points: 3
#     Node 25, Type 0, BuildingBlock: WUSLED_clean_sbu_0, # of connection points: 3
#     Node 26, Type 0, BuildingBlock: WUSLED_clean_sbu_0, # of connection points: 3
#     Node 27, Type 0, BuildingBlock: WUSLED_clean_sbu_0, # of connection points: 3
#     Node 28, Type 0, BuildingBlock: WUSLED_clean_sbu_0, # of connection points: 3
#     Node 29, Type 0, BuildingBlock: WUSLED_clean_sbu_0, # of connection points: 3
#     Node 30, Type 0, BuildingBlock: WUSLED_clean_sbu_0, # of connection points: 3
#     Node 31, Type 0, BuildingBlock: WUSLED_clean_sbu_0, # of connection points: 3
#     Node 32, Type 0, BuildingBlock: WUSLED_clean_sbu_0, # of connection points: 3
#     Node 33, Type 0, BuildingBlock: WUSLED_clean_sbu_0, # of connection points: 3
#     Node 34, Type 0, BuildingBlock: WUSLED_clean_sbu_0, # of connection points: 3
#     Node 35, Type 0, BuildingBlock: WUSLED_clean_sbu_0, # of connection points: 3
#     Node 36, Type 0, BuildingBlock: WUSLED_clean_sbu_0, # of connection points: 3
#     Node 37, Type 0, BuildingBlock: WUSLED_clean_sbu_0, # of connection points: 3
#     Node 38, Type 0, BuildingBlock: WUSLED_clean_sbu_0, # of connection points: 3
#     Node 39, Type 0, BuildingBlock: WUSLED_clean_sbu_0, # of connection points: 3
#     Node 40, Type 0, BuildingBlock: WUSLED_clean_sbu_0, # of connection points: 3
#     Node 41, Type 0, BuildingBlock: WUSLED_clean_sbu_0, # of connection points: 3
#     Node 42, Type 0, BuildingBlock: WUSLED_clean_sbu_0, # of connection points: 3
#     Node 43, Type 0, BuildingBlock: WUSLED_clean_sbu_0, # of connection points: 3
#     Node 44, Type 0, BuildingBlock: WUSLED_clean_sbu_0, # of connection points: 3
#     Node 45, Type 0, BuildingBlock: WUSLED_clean_sbu_0, # of connection points: 3
#     Node 46, Type 0, BuildingBlock: WUSLED_clean_sbu_0, # of connection points: 3
#     Node 47, Type 0, BuildingBlock: WUSLED_clean_sbu_0, # of connection points: 3
#     Node 48, Type 0, BuildingBlock: WUSLED_clean_sbu_0, # of connection points: 3
#     Node 49, Type 0, BuildingBlock: WUSLED_clean_sbu_0, # of connection points: 3
#     Node 50, Type 0, BuildingBlock: WUSLED_clean_sbu_0, # of connection points: 3
#     Node 51, Type 0, BuildingBlock: WUSLED_clean_sbu_0, # of connection points: 3
#     Node 52, Type 0, BuildingBlock: WUSLED_clean_sbu_0, # of connection points: 3
#     Node 53, Type 0, BuildingBlock: WUSLED_clean_sbu_0, # of connection points: 3
#     Node 54, Type 0, BuildingBlock: WUSLED_clean_sbu_0, # of connection points: 3
#     Node 55, Type 0, BuildingBlock: WUSLED_clean_sbu_0, # of connection points: 3
#     Node 56, Type 0, BuildingBlock: WUSLED_clean_sbu_0, # of connection points: 3
#     Node 57, Type 0, BuildingBlock: WUSLED_clean_sbu_0, # of connection points: 3
#     Node 58, Type 0, BuildingBlock: WUSLED_clean_sbu_0, # of connection points: 3
#     Node 59, Type 0, BuildingBlock: WUSLED_clean_sbu_0, # of connection points: 3
#     Node 60, Type 0, BuildingBlock: WUSLED_clean_sbu_0, # of connection points: 3
#     Node 61, Type 0, BuildingBlock: WUSLED_clean_sbu_0, # of connection points: 3
#     Node 62, Type 0, BuildingBlock: WUSLED_clean_sbu_0, # of connection points: 3
#     Node 63, Type 0, BuildingBlock: WUSLED_clean_sbu_0, # of connection points: 3
#     Node 64, Type 0, BuildingBlock: WUSLED_clean_sbu_0, # of connection points: 3
#     Node 65, Type 0, BuildingBlock: WUSLED_clean_sbu_0, # of connection points: 3
#     Node 66, Type 0, BuildingBlock: WUSLED_clean_sbu_0, # of connection points: 3
#     Node 67, Type 0, BuildingBlock: WUSLED_clean_sbu_0, # of connection points: 3
#     Node 68, Type 0, BuildingBlock: WUSLED_clean_sbu_0, # of connection points: 3
#     Node 69, Type 0, BuildingBlock: WUSLED_clean_sbu_0, # of connection points: 3
#     Node 70, Type 0, BuildingBlock: WUSLED_clean_sbu_0, # of connection points: 3
#     Node 71, Type 0, BuildingBlock: WUSLED_clean_sbu_0, # of connection points: 3
#     Node 72, Type 0, BuildingBlock: WUSLED_clean_sbu_0, # of connection points: 3
#     Node 73, Type 0, BuildingBlock: WUSLED_clean_sbu_0, # of connection points: 3
#     Node 74, Type 0, BuildingBlock: WUSLED_clean_sbu_0, # of connection points: 3
#     Node 75, Type 0, BuildingBlock: WUSLED_clean_sbu_0, # of connection points: 3
#     Node 76, Type 0, BuildingBlock: WUSLED_clean_sbu_0, # of connection points: 3
#     Node 77, Type 0, BuildingBlock: WUSLED_clean_sbu_0, # of connection points: 3
#     Node 78, Type 0, BuildingBlock: WUSLED_clean_sbu_0, # of connection points: 3
#     Node 79, Type 0, BuildingBlock: WUSLED_clean_sbu_0, # of connection points: 3
#     Node 80, Type 0, BuildingBlock: WUSLED_clean_sbu_0, # of connection points: 3
#     Node 81, Type 0, BuildingBlock: WUSLED_clean_sbu_0, # of connection points: 3
#     Node 82, Type 0, BuildingBlock: WUSLED_clean_sbu_0, # of connection points: 3
#     Node 83, Type 0, BuildingBlock: WUSLED_clean_sbu_0, # of connection points: 3
#     Node 84, Type 0, BuildingBlock: WUSLED_clean_sbu_0, # of connection points: 3
#     Node 85, Type 0, BuildingBlock: WUSLED_clean_sbu_0, # of connection points: 3
#     Node 86, Type 0, BuildingBlock: WUSLED_clean_sbu_0, # of connection points: 3
#     Node 87, Type 0, BuildingBlock: WUSLED_clean_sbu_0, # of connection points: 3
#     Node 88, Type 0, BuildingBlock: WUSLED_clean_sbu_0, # of connection points: 3
#     Node 89, Type 0, BuildingBlock: WUSLED_clean_sbu_0, # of connection points: 3
#     Node 90, Type 0, BuildingBlock: WUSLED_clean_sbu_0, # of connection points: 3
#     Node 91, Type 0, BuildingBlock: WUSLED_clean_sbu_0, # of connection points: 3
#     Node 92, Type 0, BuildingBlock: WUSLED_clean_sbu_0, # of connection points: 3
#     Node 93, Type 0, BuildingBlock: WUSLED_clean_sbu_0, # of connection points: 3
#     Node 94, Type 0, BuildingBlock: WUSLED_clean_sbu_0, # of connection points: 3
#     Node 95, Type 0, BuildingBlock: WUSLED_clean_sbu_0, # of connection points: 3
#     Node 96, Type 1, BuildingBlock: QEWDON_clean_linker_0, # of connection points: 3
#     Node 97, Type 1, BuildingBlock: QEWDON_clean_linker_0, # of connection points: 3
#     Node 98, Type 1, BuildingBlock: QEWDON_clean_linker_0, # of connection points: 3
#     Node 99, Type 1, BuildingBlock: QEWDON_clean_linker_0, # of connection points: 3
#     Node 100, Type 1, BuildingBlock: QEWDON_clean_linker_0, # of connection points: 3
#     Node 101, Type 1, BuildingBlock: QEWDON_clean_linker_0, # of connection points: 3
#     Node 102, Type 1, BuildingBlock: QEWDON_clean_linker_0, # of connection points: 3
#     Node 103, Type 1, BuildingBlock: QEWDON_clean_linker_0, # of connection points: 3
#     Node 104, Type 1, BuildingBlock: QEWDON_clean_linker_0, # of connection points: 3
#     Node 105, Type 1, BuildingBlock: QEWDON_clean_linker_0, # of connection points: 3
#     Node 106, Type 1, BuildingBlock: QEWDON_clean_linker_0, # of connection points: 3
#     Node 107, Type 1, BuildingBlock: QEWDON_clean_linker_0, # of connection points: 3
#     Node 108, Type 1, BuildingBlock: QEWDON_clean_linker_0, # of connection points: 3
#     Node 109, Type 1, BuildingBlock: QEWDON_clean_linker_0, # of connection points: 3
#     Node 110, Type 1, BuildingBlock: QEWDON_clean_linker_0, # of connection points: 3
#     Node 111, Type 1, BuildingBlock: QEWDON_clean_linker_0, # of connection points: 3
#     Node 112, Type 1, BuildingBlock: QEWDON_clean_linker_0, # of connection points: 3
#     Node 113, Type 1, BuildingBlock: QEWDON_clean_linker_0, # of connection points: 3
#     Node 114, Type 1, BuildingBlock: QEWDON_clean_linker_0, # of connection points: 3
#     Node 115, Type 1, BuildingBlock: QEWDON_clean_linker_0, # of connection points: 3
#     Node 116, Type 1, BuildingBlock: QEWDON_clean_linker_0, # of connection points: 3
#     Node 117, Type 1, BuildingBlock: QEWDON_clean_linker_0, # of connection points: 3
#     Node 118, Type 1, BuildingBlock: QEWDON_clean_linker_0, # of connection points: 3
#     Node 119, Type 1, BuildingBlock: QEWDON_clean_linker_0, # of connection points: 3
#     Node 120, Type 1, BuildingBlock: QEWDON_clean_linker_0, # of connection points: 3
#     Node 121, Type 1, BuildingBlock: QEWDON_clean_linker_0, # of connection points: 3
#     Node 122, Type 1, BuildingBlock: QEWDON_clean_linker_0, # of connection points: 3
#     Node 123, Type 1, BuildingBlock: QEWDON_clean_linker_0, # of connection points: 3
#     Node 124, Type 1, BuildingBlock: QEWDON_clean_linker_0, # of connection points: 3
#     Node 125, Type 1, BuildingBlock: QEWDON_clean_linker_0, # of connection points: 3
#     Node 126, Type 1, BuildingBlock: QEWDON_clean_linker_0, # of connection points: 3
#     Node 127, Type 1, BuildingBlock: QEWDON_clean_linker_0, # of connection points: 3
#     Node 128, Type 1, BuildingBlock: QEWDON_clean_linker_0, # of connection points: 3
#     Node 129, Type 1, BuildingBlock: QEWDON_clean_linker_0, # of connection points: 3
#     Node 130, Type 1, BuildingBlock: QEWDON_clean_linker_0, # of connection points: 3
#     Node 131, Type 1, BuildingBlock: QEWDON_clean_linker_0, # of connection points: 3
#     Node 132, Type 1, BuildingBlock: QEWDON_clean_linker_0, # of connection points: 3
#     Node 133, Type 1, BuildingBlock: QEWDON_clean_linker_0, # of connection points: 3
#     Node 134, Type 1, BuildingBlock: QEWDON_clean_linker_0, # of connection points: 3
#     Node 135, Type 1, BuildingBlock: QEWDON_clean_linker_0, # of connection points: 3
#     Node 136, Type 1, BuildingBlock: QEWDON_clean_linker_0, # of connection points: 3
#     Node 137, Type 1, BuildingBlock: QEWDON_clean_linker_0, # of connection points: 3
#     Node 138, Type 1, BuildingBlock: QEWDON_clean_linker_0, # of connection points: 3
#     Node 139, Type 1, BuildingBlock: QEWDON_clean_linker_0, # of connection points: 3
#     Node 140, Type 1, BuildingBlock: QEWDON_clean_linker_0, # of connection points: 3
#     Node 141, Type 1, BuildingBlock: QEWDON_clean_linker_0, # of connection points: 3
#     Node 142, Type 1, BuildingBlock: QEWDON_clean_linker_0, # of connection points: 3
#     Node 143, Type 1, BuildingBlock: QEWDON_clean_linker_0, # of connection points: 3
#     Node 144, Type 1, BuildingBlock: QEWDON_clean_linker_0, # of connection points: 3
#     Node 145, Type 1, BuildingBlock: QEWDON_clean_linker_0, # of connection points: 3
#     Node 146, Type 1, BuildingBlock: QEWDON_clean_linker_0, # of connection points: 3
#     Node 147, Type 1, BuildingBlock: QEWDON_clean_linker_0, # of connection points: 3
#     Node 148, Type 1, BuildingBlock: QEWDON_clean_linker_0, # of connection points: 3
#     Node 149, Type 1, BuildingBlock: QEWDON_clean_linker_0, # of connection points: 3
#     Node 150, Type 1, BuildingBlock: QEWDON_clean_linker_0, # of connection points: 3
#     Node 151, Type 1, BuildingBlock: QEWDON_clean_linker_0, # of connection points: 3
#     Node 152, Type 1, BuildingBlock: QEWDON_clean_linker_0, # of connection points: 3
#     Node 153, Type 1, BuildingBlock: QEWDON_clean_linker_0, # of connection points: 3
#     Node 154, Type 1, BuildingBlock: QEWDON_clean_linker_0, # of connection points: 3
#     Node 155, Type 1, BuildingBlock: QEWDON_clean_linker_0, # of connection points: 3
#     Node 156, Type 1, BuildingBlock: QEWDON_clean_linker_0, # of connection points: 3
#     Node 157, Type 1, BuildingBlock: QEWDON_clean_linker_0, # of connection points: 3
#     Node 158, Type 1, BuildingBlock: QEWDON_clean_linker_0, # of connection points: 3
#     Node 159, Type 1, BuildingBlock: QEWDON_clean_linker_0, # of connection points: 3
#     Node 160, Type 1, BuildingBlock: QEWDON_clean_linker_0, # of connection points: 3
#     Node 161, Type 1, BuildingBlock: QEWDON_clean_linker_0, # of connection points: 3
#     Node 162, Type 1, BuildingBlock: QEWDON_clean_linker_0, # of connection points: 3
#     Node 163, Type 1, BuildingBlock: QEWDON_clean_linker_0, # of connection points: 3
#     Node 164, Type 1, BuildingBlock: QEWDON_clean_linker_0, # of connection points: 3
#     Node 165, Type 1, BuildingBlock: QEWDON_clean_linker_0, # of connection points: 3
#     Node 166, Type 1, BuildingBlock: QEWDON_clean_linker_0, # of connection points: 3
#     Node 167, Type 1, BuildingBlock: QEWDON_clean_linker_0, # of connection points: 3
#     Node 168, Type 1, BuildingBlock: QEWDON_clean_linker_0, # of connection points: 3
#     Node 169, Type 1, BuildingBlock: QEWDON_clean_linker_0, # of connection points: 3
#     Node 170, Type 1, BuildingBlock: QEWDON_clean_linker_0, # of connection points: 3
#     Node 171, Type 1, BuildingBlock: QEWDON_clean_linker_0, # of connection points: 3
#     Node 172, Type 1, BuildingBlock: QEWDON_clean_linker_0, # of connection points: 3
#     Node 173, Type 1, BuildingBlock: QEWDON_clean_linker_0, # of connection points: 3
#     Node 174, Type 1, BuildingBlock: QEWDON_clean_linker_0, # of connection points: 3
#     Node 175, Type 1, BuildingBlock: QEWDON_clean_linker_0, # of connection points: 3
#     Node 176, Type 1, BuildingBlock: QEWDON_clean_linker_0, # of connection points: 3
#     Node 177, Type 1, BuildingBlock: QEWDON_clean_linker_0, # of connection points: 3
#     Node 178, Type 1, BuildingBlock: QEWDON_clean_linker_0, # of connection points: 3
#     Node 179, Type 1, BuildingBlock: QEWDON_clean_linker_0, # of connection points: 3
#     Node 180, Type 1, BuildingBlock: QEWDON_clean_linker_0, # of connection points: 3
#     Node 181, Type 1, BuildingBlock: QEWDON_clean_linker_0, # of connection points: 3
#     Node 182, Type 1, BuildingBlock: QEWDON_clean_linker_0, # of connection points: 3
#     Node 183, Type 1, BuildingBlock: QEWDON_clean_linker_0, # of connection points: 3
#     Node 184, Type 1, BuildingBlock: QEWDON_clean_linker_0, # of connection points: 3
#     Node 185, Type 1, BuildingBlock: QEWDON_clean_linker_0, # of connection points: 3
#     Node 186, Type 1, BuildingBlock: QEWDON_clean_linker_0, # of connection points: 3
#     Node 187, Type 1, BuildingBlock: QEWDON_clean_linker_0, # of connection points: 3
#     Node 188, Type 1, BuildingBlock: QEWDON_clean_linker_0, # of connection points: 3
#     Node 189, Type 1, BuildingBlock: QEWDON_clean_linker_0, # of connection points: 3
#     Node 190, Type 1, BuildingBlock: QEWDON_clean_linker_0, # of connection points: 3
#     Node 191, Type 1, BuildingBlock: QEWDON_clean_linker_0, # of connection points: 3
#     Edge 192, Type (0, 1), BuildingBlock: AJUNOK_clean_linker_0, # of connection points: 2
#     Edge 193, Type (0, 1), BuildingBlock: AJUNOK_clean_linker_0, # of connection points: 2
#     Edge 194, Type (0, 1), BuildingBlock: AJUNOK_clean_linker_0, # of connection points: 2
#     Edge 195, Type (0, 1), BuildingBlock: AJUNOK_clean_linker_0, # of connection points: 2
#     Edge 196, Type (0, 1), BuildingBlock: AJUNOK_clean_linker_0, # of connection points: 2
#     Edge 197, Type (0, 1), BuildingBlock: AJUNOK_clean_linker_0, # of connection points: 2
#     Edge 198, Type (0, 1), BuildingBlock: AJUNOK_clean_linker_0, # of connection points: 2
#     Edge 199, Type (0, 1), BuildingBlock: AJUNOK_clean_linker_0, # of connection points: 2
#     Edge 200, Type (0, 1), BuildingBlock: AJUNOK_clean_linker_0, # of connection points: 2
#     Edge 201, Type (0, 1), BuildingBlock: AJUNOK_clean_linker_0, # of connection points: 2
#     Edge 202, Type (0, 1), BuildingBlock: AJUNOK_clean_linker_0, # of connection points: 2
#     Edge 203, Type (0, 1), BuildingBlock: AJUNOK_clean_linker_0, # of connection points: 2
#     Edge 204, Type (0, 1), BuildingBlock: AJUNOK_clean_linker_0, # of connection points: 2
#     Edge 205, Type (0, 1), BuildingBlock: AJUNOK_clean_linker_0, # of connection points: 2
#     Edge 206, Type (0, 1), BuildingBlock: AJUNOK_clean_linker_0, # of connection points: 2
#     Edge 207, Type (0, 1), BuildingBlock: AJUNOK_clean_linker_0, # of connection points: 2
#     Edge 208, Type (0, 1), BuildingBlock: AJUNOK_clean_linker_0, # of connection points: 2
#     Edge 209, Type (0, 1), BuildingBlock: AJUNOK_clean_linker_0, # of connection points: 2
#     Edge 210, Type (0, 1), BuildingBlock: AJUNOK_clean_linker_0, # of connection points: 2
#     Edge 211, Type (0, 1), BuildingBlock: AJUNOK_clean_linker_0, # of connection points: 2
#     Edge 212, Type (0, 1), BuildingBlock: AJUNOK_clean_linker_0, # of connection points: 2
#     Edge 213, Type (0, 1), BuildingBlock: AJUNOK_clean_linker_0, # of connection points: 2
#     Edge 214, Type (0, 1), BuildingBlock: AJUNOK_clean_linker_0, # of connection points: 2
#     Edge 215, Type (0, 1), BuildingBlock: AJUNOK_clean_linker_0, # of connection points: 2
#     Edge 216, Type (0, 1), BuildingBlock: AJUNOK_clean_linker_0, # of connection points: 2
#     Edge 217, Type (0, 1), BuildingBlock: AJUNOK_clean_linker_0, # of connection points: 2
#     Edge 218, Type (0, 1), BuildingBlock: AJUNOK_clean_linker_0, # of connection points: 2
#     Edge 219, Type (0, 1), BuildingBlock: AJUNOK_clean_linker_0, # of connection points: 2
#     Edge 220, Type (0, 1), BuildingBlock: AJUNOK_clean_linker_0, # of connection points: 2
#     Edge 221, Type (0, 1), BuildingBlock: AJUNOK_clean_linker_0, # of connection points: 2
#     Edge 222, Type (0, 1), BuildingBlock: AJUNOK_clean_linker_0, # of connection points: 2
#     Edge 223, Type (0, 1), BuildingBlock: AJUNOK_clean_linker_0, # of connection points: 2
#     Edge 224, Type (0, 1), BuildingBlock: AJUNOK_clean_linker_0, # of connection points: 2
#     Edge 225, Type (0, 1), BuildingBlock: AJUNOK_clean_linker_0, # of connection points: 2
#     Edge 226, Type (0, 1), BuildingBlock: AJUNOK_clean_linker_0, # of connection points: 2
#     Edge 227, Type (0, 1), BuildingBlock: AJUNOK_clean_linker_0, # of connection points: 2
#     Edge 228, Type (0, 1), BuildingBlock: AJUNOK_clean_linker_0, # of connection points: 2
#     Edge 229, Type (0, 1), BuildingBlock: AJUNOK_clean_linker_0, # of connection points: 2
#     Edge 230, Type (0, 1), BuildingBlock: AJUNOK_clean_linker_0, # of connection points: 2
#     Edge 231, Type (0, 1), BuildingBlock: AJUNOK_clean_linker_0, # of connection points: 2
#     Edge 232, Type (0, 1), BuildingBlock: AJUNOK_clean_linker_0, # of connection points: 2
#     Edge 233, Type (0, 1), BuildingBlock: AJUNOK_clean_linker_0, # of connection points: 2
#     Edge 234, Type (0, 1), BuildingBlock: AJUNOK_clean_linker_0, # of connection points: 2
#     Edge 235, Type (0, 1), BuildingBlock: AJUNOK_clean_linker_0, # of connection points: 2
#     Edge 236, Type (0, 1), BuildingBlock: AJUNOK_clean_linker_0, # of connection points: 2
#     Edge 237, Type (0, 1), BuildingBlock: AJUNOK_clean_linker_0, # of connection points: 2
#     Edge 238, Type (0, 1), BuildingBlock: AJUNOK_clean_linker_0, # of connection points: 2
#     Edge 239, Type (0, 1), BuildingBlock: AJUNOK_clean_linker_0, # of connection points: 2
#     Edge 240, Type (0, 1), BuildingBlock: AJUNOK_clean_linker_0, # of connection points: 2
#     Edge 241, Type (0, 1), BuildingBlock: AJUNOK_clean_linker_0, # of connection points: 2
#     Edge 242, Type (0, 1), BuildingBlock: AJUNOK_clean_linker_0, # of connection points: 2
#     Edge 243, Type (0, 1), BuildingBlock: AJUNOK_clean_linker_0, # of connection points: 2
#     Edge 244, Type (0, 1), BuildingBlock: AJUNOK_clean_linker_0, # of connection points: 2
#     Edge 245, Type (0, 1), BuildingBlock: AJUNOK_clean_linker_0, # of connection points: 2
#     Edge 246, Type (0, 1), BuildingBlock: AJUNOK_clean_linker_0, # of connection points: 2
#     Edge 247, Type (0, 1), BuildingBlock: AJUNOK_clean_linker_0, # of connection points: 2
#     Edge 248, Type (0, 1), BuildingBlock: AJUNOK_clean_linker_0, # of connection points: 2
#     Edge 249, Type (0, 1), BuildingBlock: AJUNOK_clean_linker_0, # of connection points: 2
#     Edge 250, Type (0, 1), BuildingBlock: AJUNOK_clean_linker_0, # of connection points: 2
#     Edge 251, Type (0, 1), BuildingBlock: AJUNOK_clean_linker_0, # of connection points: 2
#     Edge 252, Type (0, 1), BuildingBlock: AJUNOK_clean_linker_0, # of connection points: 2
#     Edge 253, Type (0, 1), BuildingBlock: AJUNOK_clean_linker_0, # of connection points: 2
#     Edge 254, Type (0, 1), BuildingBlock: AJUNOK_clean_linker_0, # of connection points: 2
#     Edge 255, Type (0, 1), BuildingBlock: AJUNOK_clean_linker_0, # of connection points: 2
#     Edge 256, Type (0, 1), BuildingBlock: AJUNOK_clean_linker_0, # of connection points: 2
#     Edge 257, Type (0, 1), BuildingBlock: AJUNOK_clean_linker_0, # of connection points: 2
#     Edge 258, Type (0, 1), BuildingBlock: AJUNOK_clean_linker_0, # of connection points: 2
#     Edge 259, Type (0, 1), BuildingBlock: AJUNOK_clean_linker_0, # of connection points: 2
#     Edge 260, Type (0, 1), BuildingBlock: AJUNOK_clean_linker_0, # of connection points: 2
#     Edge 261, Type (0, 1), BuildingBlock: AJUNOK_clean_linker_0, # of connection points: 2
#     Edge 262, Type (0, 1), BuildingBlock: AJUNOK_clean_linker_0, # of connection points: 2
#     Edge 263, Type (0, 1), BuildingBlock: AJUNOK_clean_linker_0, # of connection points: 2
#     Edge 264, Type (0, 1), BuildingBlock: AJUNOK_clean_linker_0, # of connection points: 2
#     Edge 265, Type (0, 1), BuildingBlock: AJUNOK_clean_linker_0, # of connection points: 2
#     Edge 266, Type (0, 1), BuildingBlock: AJUNOK_clean_linker_0, # of connection points: 2
#     Edge 267, Type (0, 1), BuildingBlock: AJUNOK_clean_linker_0, # of connection points: 2
#     Edge 268, Type (0, 1), BuildingBlock: AJUNOK_clean_linker_0, # of connection points: 2
#     Edge 269, Type (0, 1), BuildingBlock: AJUNOK_clean_linker_0, # of connection points: 2
#     Edge 270, Type (0, 1), BuildingBlock: AJUNOK_clean_linker_0, # of connection points: 2
#     Edge 271, Type (0, 1), BuildingBlock: AJUNOK_clean_linker_0, # of connection points: 2
#     Edge 272, Type (0, 1), BuildingBlock: AJUNOK_clean_linker_0, # of connection points: 2
#     Edge 273, Type (0, 1), BuildingBlock: AJUNOK_clean_linker_0, # of connection points: 2
#     Edge 274, Type (0, 1), BuildingBlock: AJUNOK_clean_linker_0, # of connection points: 2
#     Edge 275, Type (0, 1), BuildingBlock: AJUNOK_clean_linker_0, # of connection points: 2
#     Edge 276, Type (0, 1), BuildingBlock: AJUNOK_clean_linker_0, # of connection points: 2
#     Edge 277, Type (0, 1), BuildingBlock: AJUNOK_clean_linker_0, # of connection points: 2
#     Edge 278, Type (0, 1), BuildingBlock: AJUNOK_clean_linker_0, # of connection points: 2
#     Edge 279, Type (0, 1), BuildingBlock: AJUNOK_clean_linker_0, # of connection points: 2
#     Edge 280, Type (0, 1), BuildingBlock: AJUNOK_clean_linker_0, # of connection points: 2
#     Edge 281, Type (0, 1), BuildingBlock: AJUNOK_clean_linker_0, # of connection points: 2
#     Edge 282, Type (0, 1), BuildingBlock: AJUNOK_clean_linker_0, # of connection points: 2
#     Edge 283, Type (0, 1), BuildingBlock: AJUNOK_clean_linker_0, # of connection points: 2
#     Edge 284, Type (0, 1), BuildingBlock: AJUNOK_clean_linker_0, # of connection points: 2
#     Edge 285, Type (0, 1), BuildingBlock: AJUNOK_clean_linker_0, # of connection points: 2
#     Edge 286, Type (0, 1), BuildingBlock: AJUNOK_clean_linker_0, # of connection points: 2
#     Edge 287, Type (0, 1), BuildingBlock: AJUNOK_clean_linker_0, # of connection points: 2
#     Edge 288, Type (0, 1), BuildingBlock: AJUNOK_clean_linker_0, # of connection points: 2
#     Edge 289, Type (0, 1), BuildingBlock: AJUNOK_clean_linker_0, # of connection points: 2
#     Edge 290, Type (0, 1), BuildingBlock: AJUNOK_clean_linker_0, # of connection points: 2
#     Edge 291, Type (0, 1), BuildingBlock: AJUNOK_clean_linker_0, # of connection points: 2
#     Edge 292, Type (0, 1), BuildingBlock: AJUNOK_clean_linker_0, # of connection points: 2
#     Edge 293, Type (0, 1), BuildingBlock: AJUNOK_clean_linker_0, # of connection points: 2
#     Edge 294, Type (0, 1), BuildingBlock: AJUNOK_clean_linker_0, # of connection points: 2
#     Edge 295, Type (0, 1), BuildingBlock: AJUNOK_clean_linker_0, # of connection points: 2
#     Edge 296, Type (0, 1), BuildingBlock: AJUNOK_clean_linker_0, # of connection points: 2
#     Edge 297, Type (0, 1), BuildingBlock: AJUNOK_clean_linker_0, # of connection points: 2
#     Edge 298, Type (0, 1), BuildingBlock: AJUNOK_clean_linker_0, # of connection points: 2
#     Edge 299, Type (0, 1), BuildingBlock: AJUNOK_clean_linker_0, # of connection points: 2
#     Edge 300, Type (0, 1), BuildingBlock: AJUNOK_clean_linker_0, # of connection points: 2
#     Edge 301, Type (0, 1), BuildingBlock: AJUNOK_clean_linker_0, # of connection points: 2
#     Edge 302, Type (0, 1), BuildingBlock: AJUNOK_clean_linker_0, # of connection points: 2
#     Edge 303, Type (0, 1), BuildingBlock: AJUNOK_clean_linker_0, # of connection points: 2
#     Edge 304, Type (0, 1), BuildingBlock: AJUNOK_clean_linker_0, # of connection points: 2
#     Edge 305, Type (0, 1), BuildingBlock: AJUNOK_clean_linker_0, # of connection points: 2
#     Edge 306, Type (0, 1), BuildingBlock: AJUNOK_clean_linker_0, # of connection points: 2
#     Edge 307, Type (0, 1), BuildingBlock: AJUNOK_clean_linker_0, # of connection points: 2
#     Edge 308, Type (0, 1), BuildingBlock: AJUNOK_clean_linker_0, # of connection points: 2
#     Edge 309, Type (0, 1), BuildingBlock: AJUNOK_clean_linker_0, # of connection points: 2
#     Edge 310, Type (0, 1), BuildingBlock: AJUNOK_clean_linker_0, # of connection points: 2
#     Edge 311, Type (0, 1), BuildingBlock: AJUNOK_clean_linker_0, # of connection points: 2
#     Edge 312, Type (0, 1), BuildingBlock: AJUNOK_clean_linker_0, # of connection points: 2
#     Edge 313, Type (0, 1), BuildingBlock: AJUNOK_clean_linker_0, # of connection points: 2
#     Edge 314, Type (0, 1), BuildingBlock: AJUNOK_clean_linker_0, # of connection points: 2
#     Edge 315, Type (0, 1), BuildingBlock: AJUNOK_clean_linker_0, # of connection points: 2
#     Edge 316, Type (0, 1), BuildingBlock: AJUNOK_clean_linker_0, # of connection points: 2
#     Edge 317, Type (0, 1), BuildingBlock: AJUNOK_clean_linker_0, # of connection points: 2
#     Edge 318, Type (0, 1), BuildingBlock: AJUNOK_clean_linker_0, # of connection points: 2
#     Edge 319, Type (0, 1), BuildingBlock: AJUNOK_clean_linker_0, # of connection points: 2
#     Edge 320, Type (0, 1), BuildingBlock: AJUNOK_clean_linker_0, # of connection points: 2
#     Edge 321, Type (0, 1), BuildingBlock: AJUNOK_clean_linker_0, # of connection points: 2
#     Edge 322, Type (0, 1), BuildingBlock: AJUNOK_clean_linker_0, # of connection points: 2
#     Edge 323, Type (0, 1), BuildingBlock: AJUNOK_clean_linker_0, # of connection points: 2
#     Edge 324, Type (0, 1), BuildingBlock: AJUNOK_clean_linker_0, # of connection points: 2
#     Edge 325, Type (0, 1), BuildingBlock: AJUNOK_clean_linker_0, # of connection points: 2
#     Edge 326, Type (0, 1), BuildingBlock: AJUNOK_clean_linker_0, # of connection points: 2
#     Edge 327, Type (0, 1), BuildingBlock: AJUNOK_clean_linker_0, # of connection points: 2
#     Edge 328, Type (0, 1), BuildingBlock: AJUNOK_clean_linker_0, # of connection points: 2
#     Edge 329, Type (0, 1), BuildingBlock: AJUNOK_clean_linker_0, # of connection points: 2
#     Edge 330, Type (0, 1), BuildingBlock: AJUNOK_clean_linker_0, # of connection points: 2
#     Edge 331, Type (0, 1), BuildingBlock: AJUNOK_clean_linker_0, # of connection points: 2
#     Edge 332, Type (0, 1), BuildingBlock: AJUNOK_clean_linker_0, # of connection points: 2
#     Edge 333, Type (0, 1), BuildingBlock: AJUNOK_clean_linker_0, # of connection points: 2
#     Edge 334, Type (0, 1), BuildingBlock: AJUNOK_clean_linker_0, # of connection points: 2
#     Edge 335, Type (0, 1), BuildingBlock: AJUNOK_clean_linker_0, # of connection points: 2
#     Edge 336, Type (0, 1), BuildingBlock: AJUNOK_clean_linker_0, # of connection points: 2
#     Edge 337, Type (0, 1), BuildingBlock: AJUNOK_clean_linker_0, # of connection points: 2
#     Edge 338, Type (0, 1), BuildingBlock: AJUNOK_clean_linker_0, # of connection points: 2
#     Edge 339, Type (0, 1), BuildingBlock: AJUNOK_clean_linker_0, # of connection points: 2
#     Edge 340, Type (0, 1), BuildingBlock: AJUNOK_clean_linker_0, # of connection points: 2
#     Edge 341, Type (0, 1), BuildingBlock: AJUNOK_clean_linker_0, # of connection points: 2
#     Edge 342, Type (0, 1), BuildingBlock: AJUNOK_clean_linker_0, # of connection points: 2
#     Edge 343, Type (0, 1), BuildingBlock: AJUNOK_clean_linker_0, # of connection points: 2
#     Edge 344, Type (0, 1), BuildingBlock: AJUNOK_clean_linker_0, # of connection points: 2
#     Edge 345, Type (0, 1), BuildingBlock: AJUNOK_clean_linker_0, # of connection points: 2
#     Edge 346, Type (0, 1), BuildingBlock: AJUNOK_clean_linker_0, # of connection points: 2
#     Edge 347, Type (0, 1), BuildingBlock: AJUNOK_clean_linker_0, # of connection points: 2
#     Edge 348, Type (0, 1), BuildingBlock: AJUNOK_clean_linker_0, # of connection points: 2
#     Edge 349, Type (0, 1), BuildingBlock: AJUNOK_clean_linker_0, # of connection points: 2
#     Edge 350, Type (0, 1), BuildingBlock: AJUNOK_clean_linker_0, # of connection points: 2
#     Edge 351, Type (0, 1), BuildingBlock: AJUNOK_clean_linker_0, # of connection points: 2
#     Edge 352, Type (0, 1), BuildingBlock: AJUNOK_clean_linker_0, # of connection points: 2
#     Edge 353, Type (0, 1), BuildingBlock: AJUNOK_clean_linker_0, # of connection points: 2
#     Edge 354, Type (0, 1), BuildingBlock: AJUNOK_clean_linker_0, # of connection points: 2
#     Edge 355, Type (0, 1), BuildingBlock: AJUNOK_clean_linker_0, # of connection points: 2
#     Edge 356, Type (0, 1), BuildingBlock: AJUNOK_clean_linker_0, # of connection points: 2
#     Edge 357, Type (0, 1), BuildingBlock: AJUNOK_clean_linker_0, # of connection points: 2
#     Edge 358, Type (0, 1), BuildingBlock: AJUNOK_clean_linker_0, # of connection points: 2
#     Edge 359, Type (0, 1), BuildingBlock: AJUNOK_clean_linker_0, # of connection points: 2
#     Edge 360, Type (0, 1), BuildingBlock: AJUNOK_clean_linker_0, # of connection points: 2
#     Edge 361, Type (0, 1), BuildingBlock: AJUNOK_clean_linker_0, # of connection points: 2
#     Edge 362, Type (0, 1), BuildingBlock: AJUNOK_clean_linker_0, # of connection points: 2
#     Edge 363, Type (0, 1), BuildingBlock: AJUNOK_clean_linker_0, # of connection points: 2
#     Edge 364, Type (0, 1), BuildingBlock: AJUNOK_clean_linker_0, # of connection points: 2
#     Edge 365, Type (0, 1), BuildingBlock: AJUNOK_clean_linker_0, # of connection points: 2
#     Edge 366, Type (0, 1), BuildingBlock: AJUNOK_clean_linker_0, # of connection points: 2
#     Edge 367, Type (0, 1), BuildingBlock: AJUNOK_clean_linker_0, # of connection points: 2
#     Edge 368, Type (0, 1), BuildingBlock: AJUNOK_clean_linker_0, # of connection points: 2
#     Edge 369, Type (0, 1), BuildingBlock: AJUNOK_clean_linker_0, # of connection points: 2
#     Edge 370, Type (0, 1), BuildingBlock: AJUNOK_clean_linker_0, # of connection points: 2
#     Edge 371, Type (0, 1), BuildingBlock: AJUNOK_clean_linker_0, # of connection points: 2
#     Edge 372, Type (0, 1), BuildingBlock: AJUNOK_clean_linker_0, # of connection points: 2
#     Edge 373, Type (0, 1), BuildingBlock: AJUNOK_clean_linker_0, # of connection points: 2
#     Edge 374, Type (0, 1), BuildingBlock: AJUNOK_clean_linker_0, # of connection points: 2
#     Edge 375, Type (0, 1), BuildingBlock: AJUNOK_clean_linker_0, # of connection points: 2
#     Edge 376, Type (0, 1), BuildingBlock: AJUNOK_clean_linker_0, # of connection points: 2
#     Edge 377, Type (0, 1), BuildingBlock: AJUNOK_clean_linker_0, # of connection points: 2
#     Edge 378, Type (0, 1), BuildingBlock: AJUNOK_clean_linker_0, # of connection points: 2
#     Edge 379, Type (0, 1), BuildingBlock: AJUNOK_clean_linker_0, # of connection points: 2
#     Edge 380, Type (0, 1), BuildingBlock: AJUNOK_clean_linker_0, # of connection points: 2
#     Edge 381, Type (0, 1), BuildingBlock: AJUNOK_clean_linker_0, # of connection points: 2
#     Edge 382, Type (0, 1), BuildingBlock: AJUNOK_clean_linker_0, # of connection points: 2
#     Edge 383, Type (0, 1), BuildingBlock: AJUNOK_clean_linker_0, # of connection points: 2
#     Edge 384, Type (0, 1), BuildingBlock: AJUNOK_clean_linker_0, # of connection points: 2
#     Edge 385, Type (0, 1), BuildingBlock: AJUNOK_clean_linker_0, # of connection points: 2
#     Edge 386, Type (0, 1), BuildingBlock: AJUNOK_clean_linker_0, # of connection points: 2
#     Edge 387, Type (0, 1), BuildingBlock: AJUNOK_clean_linker_0, # of connection points: 2
#     Edge 388, Type (0, 1), BuildingBlock: AJUNOK_clean_linker_0, # of connection points: 2
#     Edge 389, Type (0, 1), BuildingBlock: AJUNOK_clean_linker_0, # of connection points: 2
#     Edge 390, Type (0, 1), BuildingBlock: AJUNOK_clean_linker_0, # of connection points: 2
#     Edge 391, Type (0, 1), BuildingBlock: AJUNOK_clean_linker_0, # of connection points: 2
#     Edge 392, Type (0, 1), BuildingBlock: AJUNOK_clean_linker_0, # of connection points: 2
#     Edge 393, Type (0, 1), BuildingBlock: AJUNOK_clean_linker_0, # of connection points: 2
#     Edge 394, Type (0, 1), BuildingBlock: AJUNOK_clean_linker_0, # of connection points: 2
#     Edge 395, Type (0, 1), BuildingBlock: AJUNOK_clean_linker_0, # of connection points: 2
#     Edge 396, Type (0, 1), BuildingBlock: AJUNOK_clean_linker_0, # of connection points: 2
#     Edge 397, Type (0, 1), BuildingBlock: AJUNOK_clean_linker_0, # of connection points: 2
#     Edge 398, Type (0, 1), BuildingBlock: AJUNOK_clean_linker_0, # of connection points: 2
#     Edge 399, Type (0, 1), BuildingBlock: AJUNOK_clean_linker_0, # of connection points: 2
#     Edge 400, Type (0, 1), BuildingBlock: AJUNOK_clean_linker_0, # of connection points: 2
#     Edge 401, Type (0, 1), BuildingBlock: AJUNOK_clean_linker_0, # of connection points: 2
#     Edge 402, Type (0, 1), BuildingBlock: AJUNOK_clean_linker_0, # of connection points: 2
#     Edge 403, Type (0, 1), BuildingBlock: AJUNOK_clean_linker_0, # of connection points: 2
#     Edge 404, Type (0, 1), BuildingBlock: AJUNOK_clean_linker_0, # of connection points: 2
#     Edge 405, Type (0, 1), BuildingBlock: AJUNOK_clean_linker_0, # of connection points: 2
#     Edge 406, Type (0, 1), BuildingBlock: AJUNOK_clean_linker_0, # of connection points: 2
#     Edge 407, Type (0, 1), BuildingBlock: AJUNOK_clean_linker_0, # of connection points: 2
#     Edge 408, Type (0, 1), BuildingBlock: AJUNOK_clean_linker_0, # of connection points: 2
#     Edge 409, Type (0, 1), BuildingBlock: AJUNOK_clean_linker_0, # of connection points: 2
#     Edge 410, Type (0, 1), BuildingBlock: AJUNOK_clean_linker_0, # of connection points: 2
#     Edge 411, Type (0, 1), BuildingBlock: AJUNOK_clean_linker_0, # of connection points: 2
#     Edge 412, Type (0, 1), BuildingBlock: AJUNOK_clean_linker_0, # of connection points: 2
#     Edge 413, Type (0, 1), BuildingBlock: AJUNOK_clean_linker_0, # of connection points: 2
#     Edge 414, Type (0, 1), BuildingBlock: AJUNOK_clean_linker_0, # of connection points: 2
#     Edge 415, Type (0, 1), BuildingBlock: AJUNOK_clean_linker_0, # of connection points: 2
#     Edge 416, Type (0, 1), BuildingBlock: AJUNOK_clean_linker_0, # of connection points: 2
#     Edge 417, Type (0, 1), BuildingBlock: AJUNOK_clean_linker_0, # of connection points: 2
#     Edge 418, Type (0, 1), BuildingBlock: AJUNOK_clean_linker_0, # of connection points: 2
#     Edge 419, Type (0, 1), BuildingBlock: AJUNOK_clean_linker_0, # of connection points: 2
#     Edge 420, Type (0, 1), BuildingBlock: AJUNOK_clean_linker_0, # of connection points: 2
#     Edge 421, Type (0, 1), BuildingBlock: AJUNOK_clean_linker_0, # of connection points: 2
#     Edge 422, Type (0, 1), BuildingBlock: AJUNOK_clean_linker_0, # of connection points: 2
#     Edge 423, Type (0, 1), BuildingBlock: AJUNOK_clean_linker_0, # of connection points: 2
#     Edge 424, Type (0, 1), BuildingBlock: AJUNOK_clean_linker_0, # of connection points: 2
#     Edge 425, Type (0, 1), BuildingBlock: AJUNOK_clean_linker_0, # of connection points: 2
#     Edge 426, Type (0, 1), BuildingBlock: AJUNOK_clean_linker_0, # of connection points: 2
#     Edge 427, Type (0, 1), BuildingBlock: AJUNOK_clean_linker_0, # of connection points: 2
#     Edge 428, Type (0, 1), BuildingBlock: AJUNOK_clean_linker_0, # of connection points: 2
#     Edge 429, Type (0, 1), BuildingBlock: AJUNOK_clean_linker_0, # of connection points: 2
#     Edge 430, Type (0, 1), BuildingBlock: AJUNOK_clean_linker_0, # of connection points: 2
#     Edge 431, Type (0, 1), BuildingBlock: AJUNOK_clean_linker_0, # of connection points: 2
#     Edge 432, Type (0, 1), BuildingBlock: AJUNOK_clean_linker_0, # of connection points: 2
#     Edge 433, Type (0, 1), BuildingBlock: AJUNOK_clean_linker_0, # of connection points: 2
#     Edge 434, Type (0, 1), BuildingBlock: AJUNOK_clean_linker_0, # of connection points: 2
#     Edge 435, Type (0, 1), BuildingBlock: AJUNOK_clean_linker_0, # of connection points: 2
#     Edge 436, Type (0, 1), BuildingBlock: AJUNOK_clean_linker_0, # of connection points: 2
#     Edge 437, Type (0, 1), BuildingBlock: AJUNOK_clean_linker_0, # of connection points: 2
#     Edge 438, Type (0, 1), BuildingBlock: AJUNOK_clean_linker_0, # of connection points: 2
#     Edge 439, Type (0, 1), BuildingBlock: AJUNOK_clean_linker_0, # of connection points: 2
#     Edge 440, Type (0, 1), BuildingBlock: AJUNOK_clean_linker_0, # of connection points: 2
#     Edge 441, Type (0, 1), BuildingBlock: AJUNOK_clean_linker_0, # of connection points: 2
#     Edge 442, Type (0, 1), BuildingBlock: AJUNOK_clean_linker_0, # of connection points: 2
#     Edge 443, Type (0, 1), BuildingBlock: AJUNOK_clean_linker_0, # of connection points: 2
#     Edge 444, Type (0, 1), BuildingBlock: AJUNOK_clean_linker_0, # of connection points: 2
#     Edge 445, Type (0, 1), BuildingBlock: AJUNOK_clean_linker_0, # of connection points: 2
#     Edge 446, Type (0, 1), BuildingBlock: AJUNOK_clean_linker_0, # of connection points: 2
#     Edge 447, Type (0, 1), BuildingBlock: AJUNOK_clean_linker_0, # of connection points: 2
#     Edge 448, Type (0, 1), BuildingBlock: AJUNOK_clean_linker_0, # of connection points: 2
#     Edge 449, Type (0, 1), BuildingBlock: AJUNOK_clean_linker_0, # of connection points: 2
#     Edge 450, Type (0, 1), BuildingBlock: AJUNOK_clean_linker_0, # of connection points: 2
#     Edge 451, Type (0, 1), BuildingBlock: AJUNOK_clean_linker_0, # of connection points: 2
#     Edge 452, Type (0, 1), BuildingBlock: AJUNOK_clean_linker_0, # of connection points: 2
#     Edge 453, Type (0, 1), BuildingBlock: AJUNOK_clean_linker_0, # of connection points: 2
#     Edge 454, Type (0, 1), BuildingBlock: AJUNOK_clean_linker_0, # of connection points: 2
#     Edge 455, Type (0, 1), BuildingBlock: AJUNOK_clean_linker_0, # of connection points: 2
#     Edge 456, Type (0, 1), BuildingBlock: AJUNOK_clean_linker_0, # of connection points: 2
#     Edge 457, Type (0, 1), BuildingBlock: AJUNOK_clean_linker_0, # of connection points: 2
#     Edge 458, Type (0, 1), BuildingBlock: AJUNOK_clean_linker_0, # of connection points: 2
#     Edge 459, Type (0, 1), BuildingBlock: AJUNOK_clean_linker_0, # of connection points: 2
#     Edge 460, Type (0, 1), BuildingBlock: AJUNOK_clean_linker_0, # of connection points: 2
#     Edge 461, Type (0, 1), BuildingBlock: AJUNOK_clean_linker_0, # of connection points: 2
#     Edge 462, Type (0, 1), BuildingBlock: AJUNOK_clean_linker_0, # of connection points: 2
#     Edge 463, Type (0, 1), BuildingBlock: AJUNOK_clean_linker_0, # of connection points: 2
#     Edge 464, Type (0, 1), BuildingBlock: AJUNOK_clean_linker_0, # of connection points: 2
#     Edge 465, Type (0, 1), BuildingBlock: AJUNOK_clean_linker_0, # of connection points: 2
#     Edge 466, Type (0, 1), BuildingBlock: AJUNOK_clean_linker_0, # of connection points: 2
#     Edge 467, Type (0, 1), BuildingBlock: AJUNOK_clean_linker_0, # of connection points: 2
#     Edge 468, Type (0, 1), BuildingBlock: AJUNOK_clean_linker_0, # of connection points: 2
#     Edge 469, Type (0, 1), BuildingBlock: AJUNOK_clean_linker_0, # of connection points: 2
#     Edge 470, Type (0, 1), BuildingBlock: AJUNOK_clean_linker_0, # of connection points: 2
#     Edge 471, Type (0, 1), BuildingBlock: AJUNOK_clean_linker_0, # of connection points: 2
#     Edge 472, Type (0, 1), BuildingBlock: AJUNOK_clean_linker_0, # of connection points: 2
#     Edge 473, Type (0, 1), BuildingBlock: AJUNOK_clean_linker_0, # of connection points: 2
#     Edge 474, Type (0, 1), BuildingBlock: AJUNOK_clean_linker_0, # of connection points: 2
#     Edge 475, Type (0, 1), BuildingBlock: AJUNOK_clean_linker_0, # of connection points: 2
#     Edge 476, Type (0, 1), BuildingBlock: AJUNOK_clean_linker_0, # of connection points: 2
#     Edge 477, Type (0, 1), BuildingBlock: AJUNOK_clean_linker_0, # of connection points: 2
#     Edge 478, Type (0, 1), BuildingBlock: AJUNOK_clean_linker_0, # of connection points: 2
#     Edge 479, Type (0, 1), BuildingBlock: AJUNOK_clean_linker_0, # of connection points: 2
# Relax obj value: 0.011
# Max RMSD: 0.046
# Mean RMSD: 0.040
data_MOF--net-ana-f--node1-WUSLED_clean_sbu_0--node2-QEWDON_clean_linker_0--edge1-AJUNOK_clean_linker_0
_symmetry_space_group_name_H-M    P1
_symmetry_Int_Tables_number       1
_symmetry_cell_setting            triclinic
loop_
_symmetry_equiv_pos_as_xyz
'x, y, z'
_cell_length_a     153.46075
_cell_length_b     153.32004
_cell_length_c     153.26475
_cell_angle_alpha  90.001857
_cell_angle_beta   89.989747
_cell_angle_gamma 89.98642
loop_
_atom_site_label
_atom_site_type_symbol
_atom_site_fract_x
_atom_site_fract_y
_atom_site_fract_z
_atom_type_partial_charge
C0 C 0.09083 0.15463 0.44299 0.0
C1 C 0.09956 0.15589 0.44054 0.0
C2 C 0.1045 0.14741 0.45312 0.0
C3 C 0.10633 0.15232 0.44556 0.0
C4 C 0.09576 0.14633 0.45563 0.0
C5 C 0.089 0.14988 0.4506 0.0
U6 U 0.08115 0.1705 0.42604 0.0
O7 O 0.07189 0.16815 0.41534 0.0
O8 O 0.0684 0.17717 0.42589 0.0
C9 C 0.06592 0.17335 0.41863 0.0
C10 C 0.08354 0.15808 0.43767 0.0
C11 C 0.05679 0.17031 0.41813 0.0
C12 C 0.04548 0.15942 0.42043 0.0
C13 C 0.05406 0.16235 0.42172 0.0
C14 C 0.04225 0.17246 0.41213 0.0
C15 C 0.03949 0.16441 0.41553 0.0
C16 C 0.05079 0.17537 0.41344 0.0
C17 C 0.09634 0.18792 0.4158 0.0
C18 C 0.09469 0.19594 0.40215 0.0
C19 C 0.10547 0.2005 0.41274 0.0
C20 C 0.10293 0.19373 0.41828 0.0
C21 C 0.10148 0.20163 0.40455 0.0
C22 C 0.09213 0.18913 0.40774 0.0
C23 C 0.09436 0.18049 0.42161 0.0
O24 O 0.08078 0.16594 0.43969 0.0
O25 O 0.08409 0.15681 0.4292 0.0
O26 O 0.09264 0.17299 0.41783 0.0
O27 O 0.08928 0.18215 0.42831 0.0
H28 H 0.10115 0.15961 0.43475 0.0
H29 H 0.113 0.15347 0.44357 0.0
H30 H 0.09413 0.1426 0.46141 0.0
H31 H 0.08231 0.14885 0.45263 0.0
H32 H 0.04363 0.1531 0.42298 0.0
H33 H 0.05861 0.15831 0.42532 0.0
H34 H 0.03783 0.17646 0.40834 0.0
H35 H 0.05278 0.18153 0.41059 0.0
H36 H 0.09142 0.19669 0.39593 0.0
H37 H 0.1108 0.20468 0.41475 0.0
H38 H 0.10627 0.19291 0.42445 0.0
H39 H 0.08698 0.18475 0.4057 0.0
C40 C 0.1207 0.84156 0.69389 0.0
C41 C 0.11854 0.85029 0.69215 0.0
C42 C 0.12784 0.85517 0.70416 0.0
C43 C 0.12209 0.85702 0.69722 0.0
C44 C 0.12994 0.84641 0.70588 0.0
C45 C 0.1264 0.83968 0.70081 0.0
U46 U 0.1047 0.83214 0.67697 0.0
O47 O 0.10684 0.82307 0.66611 0.0
O48 O 0.09812 0.81929 0.67681 0.0
C49 C 0.10196 0.81691 0.66952 0.0
C50 C 0.11719 0.83434 0.68855 0.0
C51 C 0.10545 0.80792 0.66905 0.0
C52 C 0.11766 0.79796 0.6672 0.0
C53 C 0.11446 0.80627 0.66924 0.0
C54 C 0.10292 0.79266 0.66534 0.0
C55 C 0.11193 0.79115 0.66497 0.0
C56 C 0.09971 0.801 0.66732 0.0
C57 C 0.0875 0.8476 0.66678 0.0
C58 C 0.07866 0.84512 0.65379 0.0
C59 C 0.07567 0.85747 0.66318 0.0
C60 C 0.08251 0.85501 0.66865 0.0
C61 C 0.07363 0.85255 0.65571 0.0
C62 C 0.08553 0.84262 0.65933 0.0
C63 C 0.09486 0.84549 0.67261 0.0
O64 O 0.10931 0.83166 0.69058 0.0
O65 O 0.11842 0.83496 0.68008 0.0
O66 O 0.10234 0.84371 0.66882 0.0
O67 O 0.09312 0.84034 0.67924 0.0
H68 H 0.11414 0.85189 0.68686 0.0
H69 H 0.12031 0.8637 0.69575 0.0
H70 H 0.13446 0.84476 0.71105 0.0
H71 H 0.12817 0.83299 0.70224 0.0
H72 H 0.12464 0.79691 0.66712 0.0
H73 H 0.11902 0.81148 0.67062 0.0
H74 H 0.09838 0.78751 0.6637 0.0
H75 H 0.09275 0.80212 0.66712 0.0
H76 H 0.07728 0.84127 0.64803 0.0
H77 H 0.07209 0.86337 0.66469 0.0
H78 H 0.08399 0.85899 0.6743 0.0
H79 H 0.08934 0.83688 0.65775 0.0
C80 C 0.43356 0.87079 0.94468 0.0
C81 C 0.42492 0.86821 0.94313 0.0
C82 C 0.41989 0.87717 0.95533 0.0
C83 C 0.41815 0.87137 0.94841 0.0
C84 C 0.42856 0.87967 0.95688 0.0
C85 C 0.43532 0.87652 0.9516 0.0
U86 U 0.44342 0.85537 0.92742 0.0
O87 O 0.45264 0.85808 0.91677 0.0
O88 O 0.45632 0.84902 0.92722 0.0
C89 C 0.45874 0.85302 0.92004 0.0
C90 C 0.44084 0.86758 0.93924 0.0
C91 C 0.46775 0.85636 0.91967 0.0
C92 C 0.47913 0.8667 0.92367 0.0
C93 C 0.47065 0.86339 0.92477 0.0
C94 C 0.48189 0.85588 0.91251 0.0
C95 C 0.48484 0.86304 0.91744 0.0
C96 C 0.47349 0.85257 0.91365 0.0
C97 C 0.42853 0.83779 0.9169 0.0
C98 C 0.42913 0.83068 0.90268 0.0
C99 C 0.42023 0.82455 0.91419 0.0
C100 C 0.42284 0.83125 0.91979 0.0
C101 C 0.42328 0.82421 0.90554 0.0
C102 C 0.43178 0.83739 0.90832 0.0
C103 C 0.43042 0.84518 0.92282 0.0
O104 O 0.44375 0.85974 0.94112 0.0
O105 O 0.44016 0.86895 0.93079 0.0
O106 O 0.43197 0.85278 0.91917 0.0
O107 O 0.43553 0.84352 0.9295 0.0
H108 H 0.42342 0.86378 0.93783 0.0
H109 H 0.41153 0.86933 0.94704 0.0
H110 H 0.43015 0.88398 0.96225 0.0
H111 H 0.44195 0.87853 0.95295 0.0
H112 H 0.48116 0.87224 0.92755 0.0
H113 H 0.46631 0.86642 0.92945 0.0
H114 H 0.48592 0.85307 0.90744 0.0
H115 H 0.47136 0.84718 0.9096 0.0
H116 H 0.43153 0.83062 0.89603 0.0
H117 H 0.41552 0.81984 0.91653 0.0
H118 H 0.42018 0.83147 0.92634 0.0
H119 H 0.43618 0.84236 0.90593 0.0
C120 C 0.40491 0.1834 0.19392 0.0
C121 C 0.41024 0.17943 0.20026 0.0
C122 C 0.39862 0.16922 0.20407 0.0
C123 C 0.40711 0.17249 0.20531 0.0
C124 C 0.39328 0.17324 0.19779 0.0
C125 C 0.39638 0.18026 0.1928 0.0
U126 U 0.42028 0.19378 0.17702 0.0
O127 O 0.41789 0.20322 0.16649 0.0
O128 O 0.42697 0.20654 0.17706 0.0
C129 C 0.42309 0.20914 0.16987 0.0
C130 C 0.40801 0.19097 0.18868 0.0
C131 C 0.42008 0.2183 0.1695 0.0
C132 C 0.40859 0.22925 0.16981 0.0
C133 C 0.41148 0.22072 0.17151 0.0
C134 C 0.42291 0.23309 0.16441 0.0
C135 C 0.41424 0.23543 0.16607 0.0
C136 C 0.42581 0.22461 0.16616 0.0
C137 C 0.43762 0.17845 0.1667 0.0
C138 C 0.44619 0.18043 0.15345 0.0
C139 C 0.4498 0.16884 0.16356 0.0
C140 C 0.44295 0.17139 0.16897 0.0
C141 C 0.45153 0.17332 0.15575 0.0
C142 C 0.43931 0.18301 0.15892 0.0
C143 C 0.4302 0.18056 0.17244 0.0
O144 O 0.41575 0.19411 0.19063 0.0
O145 O 0.40661 0.19059 0.18022 0.0
O146 O 0.42277 0.18241 0.16861 0.0
O147 O 0.43189 0.18558 0.17917 0.0
H148 H 0.41682 0.18171 0.20139 0.0
H149 H 0.41133 0.16975 0.21026 0.0
H150 H 0.38672 0.1709 0.19664 0.0
H151 H 0.39209 0.18323 0.18803 0.0
H152 H 0.40183 0.2309 0.17101 0.0
H153 H 0.40694 0.21595 0.17405 0.0
H154 H 0.42733 0.23771 0.16142 0.0
H155 H 0.43246 0.22287 0.16452 0.0
H156 H 0.44733 0.18394 0.14742 0.0
H157 H 0.4536 0.16317 0.16538 0.0
H158 H 0.4417 0.16773 0.17489 0.0
H159 H 0.43525 0.18847 0.15703 0.0
C160 C 0.09025 0.87172 0.08276 0.0
C161 C 0.09902 0.87156 0.0854 0.0
C162 C 0.10322 0.88004 0.07256 0.0
C163 C 0.10543 0.87568 0.08035 0.0
C164 C 0.09447 0.87999 0.06984 0.0
C165 C 0.08807 0.87589 0.0749 0.0
U166 U 0.08098 0.85528 0.09962 0.0
O167 O 0.07161 0.85748 0.11026 0.0
O168 O 0.06822 0.84867 0.0995 0.0
C169 C 0.06563 0.85246 0.10675 0.0
C170 C 0.08323 0.86787 0.08814 0.0
C171 C 0.05661 0.85579 0.10701 0.0
C172 C 0.04512 0.86572 0.10237 0.0
C173 C 0.0536 0.86237 0.1014 0.0
C174 C 0.04261 0.85585 0.11443 0.0
C175 C 0.03953 0.86256 0.10897 0.0
C176 C 0.05101 0.85249 0.11342 0.0
C177 C 0.0962 0.83788 0.10995 0.0
C178 C 0.09392 0.8292 0.12311 0.0
C179 C 0.10575 0.82568 0.11327 0.0
C180 C 0.1033 0.83255 0.10782 0.0
C181 C 0.10114 0.82393 0.12101 0.0
C182 C 0.09145 0.83612 0.11761 0.0
C183 C 0.0942 0.84534 0.10417 0.0
O184 O 0.08069 0.85997 0.086 0.0
O185 O 0.08382 0.86903 0.09663 0.0
O186 O 0.09236 0.8528 0.10799 0.0
O187 O 0.08921 0.84369 0.0974 0.0
H188 H 0.10089 0.86831 0.09139 0.0
H189 H 0.11215 0.87539 0.0825 0.0
H190 H 0.09256 0.88325 0.06387 0.0
H191 H 0.08135 0.87608 0.07273 0.0
H192 H 0.04299 0.87092 0.09808 0.0
H193 H 0.05784 0.86503 0.09641 0.0
H194 H 0.03869 0.85345 0.11979 0.0
H195 H 0.05324 0.84746 0.11786 0.0
H196 H 0.09019 0.82798 0.12898 0.0
H197 H 0.11142 0.82185 0.11152 0.0
H198 H 0.10708 0.83381 0.10198 0.0
H199 H 0.08592 0.84015 0.11937 0.0
C200 C 0.40361 0.84053 0.33264 0.0
C201 C 0.40794 0.84853 0.33166 0.0
C202 C 0.39653 0.85373 0.32179 0.0
C203 C 0.40443 0.85507 0.3263 0.0
C204 C 0.39213 0.84577 0.32296 0.0
C205 C 0.39565 0.83924 0.32831 0.0
U206 U 0.41988 0.83148 0.34958 0.0
O207 O 0.41781 0.82227 0.36039 0.0
O208 O 0.42683 0.81887 0.34981 0.0
C209 C 0.42313 0.81638 0.35713 0.0
C210 C 0.40728 0.83342 0.33804 0.0
C211 C 0.42033 0.80719 0.35777 0.0
C212 C 0.40995 0.79546 0.35519 0.0
C213 C 0.41271 0.80409 0.35377 0.0
C214 C 0.42251 0.79293 0.36441 0.0
C215 C 0.41477 0.7898 0.36063 0.0
C216 C 0.42525 0.80151 0.36298 0.0
C217 C 0.43681 0.84707 0.35982 0.0
C218 C 0.44556 0.8443 0.37282 0.0
C219 C 0.44802 0.85735 0.36425 0.0
C220 C 0.44144 0.85484 0.35848 0.0
C221 C 0.45008 0.85215 0.3715 0.0
C222 C 0.43898 0.84174 0.36697 0.0
C223 C 0.42952 0.84498 0.3539 0.0
O224 O 0.4152 0.83085 0.336 0.0
O225 O 0.40608 0.83409 0.34651 0.0
O226 O 0.42205 0.84313 0.35765 0.0
O227 O 0.43133 0.83986 0.34727 0.0
H228 H 0.41405 0.84971 0.33501 0.0
H229 H 0.40788 0.86121 0.32573 0.0
H230 H 0.38604 0.84454 0.31961 0.0
H231 H 0.39219 0.83312 0.329 0.0
H232 H 0.40387 0.79333 0.35232 0.0
H233 H 0.40879 0.80838 0.34976 0.0
H234 H 0.42637 0.78876 0.36861 0.0
H235 H 0.43114 0.80378 0.36614 0.0
H236 H 0.44701 0.84025 0.37843 0.0
H237 H 0.45135 0.86349 0.3632 0.0
H238 H 0.43983 0.85906 0.35305 0.0
H239 H 0.43548 0.83571 0.36812 0.0
C240 C 0.43359 0.15494 0.58158 0.0
C241 C 0.42496 0.15745 0.58328 0.0
C242 C 0.41974 0.14816 0.5714 0.0
C243 C 0.4181 0.15408 0.57825 0.0
C244 C 0.42841 0.14573 0.5697 0.0
C245 C 0.43526 0.14909 0.57474 0.0
U246 U 0.44355 0.17037 0.59879 0.0
O247 O 0.45279 0.16764 0.60943 0.0
O248 O 0.45645 0.17671 0.59897 0.0
C249 C 0.45887 0.17272 0.60617 0.0
C250 C 0.44094 0.1582 0.58693 0.0
C251 C 0.46791 0.16942 0.60661 0.0
C252 C 0.47977 0.15998 0.60182 0.0
C253 C 0.47125 0.16322 0.60075 0.0
C254 C 0.48166 0.1692 0.61449 0.0
C255 C 0.48508 0.1629 0.60876 0.0
C256 C 0.47322 0.17244 0.61339 0.0
C257 C 0.42805 0.1876 0.6093 0.0
C258 C 0.4315 0.19869 0.62019 0.0
C259 C 0.41687 0.19759 0.61438 0.0
C260 C 0.41943 0.19059 0.60916 0.0
C261 C 0.42286 0.20178 0.6199 0.0
C262 C 0.4341 0.19166 0.61488 0.0
C263 C 0.43037 0.18033 0.60344 0.0
O264 O 0.44376 0.16607 0.58505 0.0
O265 O 0.44038 0.15678 0.59537 0.0
O266 O 0.43212 0.1728 0.60715 0.0
O267 O 0.43558 0.18217 0.59689 0.0
H268 H 0.42352 0.16197 0.58852 0.0
H269 H 0.4115 0.15611 0.5797 0.0
H270 H 0.4299 0.14107 0.56461 0.0
H271 H 0.44187 0.14705 0.57334 0.0
H272 H 0.48216 0.15509 0.59732 0.0
H273 H 0.46724 0.16078 0.59547 0.0
H274 H 0.48535 0.17139 0.6201 0.0
H275 H 0.47075 0.17717 0.61802 0.0
H276 H 0.43624 0.2018 0.6244 0.0
H277 H 0.41014 0.19973 0.61412 0.0
H278 H 0.41465 0.18752 0.60496 0.0
H279 H 0.44079 0.18942 0.61509 0.0
C280 C 0.11999 0.18397 0.83191 0.0
C281 C 0.11727 0.17538 0.83355 0.0
C282 C 0.12599 0.17007 0.82129 0.0
C283 C 0.12027 0.16849 0.82831 0.0
C284 C 0.12874 0.17868 0.81973 0.0
C285 C 0.12575 0.18556 0.82498 0.0
U286 U 0.10469 0.19365 0.84921 0.0
O287 O 0.10715 0.20293 0.85989 0.0
O288 O 0.09785 0.20633 0.84956 0.0
C289 C 0.10179 0.20883 0.85675 0.0
C290 C 0.11686 0.19135 0.83731 0.0
C291 C 0.10459 0.21804 0.85732 0.0
C292 C 0.11543 0.22955 0.85576 0.0
C293 C 0.11272 0.22092 0.85425 0.0
C294 C 0.10184 0.23255 0.86319 0.0
C295 C 0.11007 0.23544 0.86038 0.0
C296 C 0.09914 0.22397 0.86166 0.0
C297 C 0.08766 0.17774 0.85926 0.0
C298 C 0.07723 0.18067 0.8709 0.0
C299 C 0.07693 0.16684 0.86327 0.0
C300 C 0.08396 0.16948 0.85815 0.0
C301 C 0.07342 0.17242 0.86964 0.0
C302 C 0.08429 0.18335 0.86569 0.0
C303 C 0.09501 0.18018 0.85357 0.0
O304 O 0.10899 0.1942 0.83549 0.0
O305 O 0.11832 0.19075 0.84574 0.0
O306 O 0.10241 0.18209 0.85743 0.0
O307 O 0.09317 0.18538 0.84701 0.0
H308 H 0.11285 0.174 0.83888 0.0
H309 H 0.11818 0.16192 0.82983 0.0
H310 H 0.13312 0.18012 0.81438 0.0
H311 H 0.12792 0.19213 0.82359 0.0
H312 H 0.12188 0.2315 0.85366 0.0
H313 H 0.11706 0.21644 0.85092 0.0
H314 H 0.09756 0.2369 0.86676 0.0
H315 H 0.09285 0.22188 0.8641 0.0
H316 H 0.07469 0.18505 0.87583 0.0
H317 H 0.07428 0.16036 0.86232 0.0
H318 H 0.08652 0.16503 0.85329 0.0
H319 H 0.0871 0.18976 0.86666 0.0
C320 C 0.44333 0.09224 0.15512 0.0
C321 C 0.44231 0.10071 0.15845 0.0
C322 C 0.45392 0.10604 0.1489 0.0
C323 C 0.44753 0.10755 0.15534 0.0
C324 C 0.45482 0.09756 0.14553 0.0
C325 C 0.44959 0.09073 0.14863 0.0
U326 U 0.42617 0.0821 0.17047 0.0
O327 O 0.41577 0.0726 0.16773 0.0
O328 O 0.42623 0.06923 0.1769 0.0
C329 C 0.41912 0.06663 0.17289 0.0
C330 C 0.43803 0.08487 0.15836 0.0
C331 C 0.41888 0.05756 0.16969 0.0
C332 C 0.42379 0.04578 0.16023 0.0
C333 C 0.42471 0.05434 0.1634 0.0
C334 C 0.41136 0.04361 0.16971 0.0
C335 C 0.41704 0.04032 0.16329 0.0
C336 C 0.41231 0.05209 0.17288 0.0
C337 C 0.41485 0.09649 0.18782 0.0
C338 C 0.4006 0.0949 0.19469 0.0
C339 C 0.4114 0.10447 0.20108 0.0
C340 C 0.41726 0.10231 0.19445 0.0
C341 C 0.40298 0.10085 0.20126 0.0
C342 C 0.40651 0.09269 0.18805 0.0
C343 C 0.42102 0.09498 0.18055 0.0
O344 O 0.43989 0.08208 0.16625 0.0
O345 O 0.4296 0.08536 0.1569 0.0
O346 O 0.4176 0.09334 0.17286 0.0
O347 O 0.42784 0.0901 0.18232 0.0
H348 H 0.43748 0.10202 0.16344 0.0
H349 H 0.44652 0.11404 0.15793 0.0
H350 H 0.45967 0.09617 0.14058 0.0
H351 H 0.45048 0.08425 0.14597 0.0
H352 H 0.42825 0.04349 0.15525 0.0
H353 H 0.42982 0.05848 0.16084 0.0
H354 H 0.40589 0.03979 0.17201 0.0
H355 H 0.40771 0.05448 0.17769 0.0
H356 H 0.39413 0.09208 0.19462 0.0
H357 H 0.41335 0.10927 0.20588 0.0
H358 H 0.42362 0.10538 0.19437 0.0
H359 H 0.40449 0.08817 0.18301 0.0
C360 C 0.18334 0.19375 0.40643 0.0
C361 C 0.17464 0.19142 0.40809 0.0
C362 C 0.1695 0.20399 0.39972 0.0
C363 C 0.16779 0.19648 0.40474 0.0
C364 C 0.17822 0.20631 0.39813 0.0
C365 C 0.18506 0.20125 0.40147 0.0
U366 U 0.19382 0.17685 0.42193 0.0
O367 O 0.20268 0.16598 0.41906 0.0
O368 O 0.2071 0.17662 0.42756 0.0
C369 C 0.20916 0.1693 0.42358 0.0
C370 C 0.19072 0.18837 0.40957 0.0
C371 C 0.21795 0.16865 0.41966 0.0
C372 C 0.22742 0.16645 0.40711 0.0
C373 C 0.21922 0.16852 0.41059 0.0
C374 C 0.23331 0.16508 0.42169 0.0
C375 C 0.23449 0.16445 0.41263 0.0
C376 C 0.22511 0.16712 0.42517 0.0
C377 C 0.17987 0.16646 0.44038 0.0
C378 C 0.1745 0.15256 0.446 0.0
C379 C 0.1771 0.16453 0.45594 0.0
C380 C 0.17989 0.16972 0.44895 0.0
C381 C 0.17415 0.15596 0.45453 0.0
C382 C 0.17734 0.15774 0.43902 0.0
C383 C 0.18137 0.17243 0.43287 0.0
O384 O 0.19394 0.19046 0.41723 0.0
O385 O 0.19 0.1799 0.40843 0.0
O386 O 0.18239 0.16883 0.42515 0.0
O387 O 0.18659 0.17911 0.43416 0.0
H388 H 0.17315 0.18567 0.41191 0.0
H389 H 0.16114 0.19453 0.4061 0.0
H390 H 0.17978 0.21193 0.39415 0.0
H391 H 0.19172 0.20314 0.40008 0.0
H392 H 0.2282 0.16626 0.40009 0.0
H393 H 0.21383 0.16973 0.40619 0.0
H394 H 0.23863 0.16364 0.4261 0.0
H395 H 0.22428 0.16716 0.43219 0.0
H396 H 0.17206 0.14609 0.4446 0.0
H397 H 0.17691 0.16736 0.46241 0.0
H398 H 0.1817 0.17643 0.45023 0.0
H399 H 0.17713 0.15501 0.43251 0.0
C400 C 0.08186 0.93375 0.65477 0.0
C401 C 0.08369 0.92513 0.65729 0.0
C402 C 0.07139 0.91976 0.64867 0.0
C403 C 0.07853 0.91821 0.65425 0.0
C404 C 0.06965 0.92839 0.64609 0.0
C405 C 0.07481 0.9353 0.64913 0.0
U406 U 0.09902 0.94354 0.67015 0.0
O407 O 0.10971 0.95279 0.66768 0.0
O408 O 0.09936 0.95626 0.67692 0.0
C409 C 0.10658 0.95872 0.67302 0.0
C410 C 0.08717 0.94117 0.65794 0.0
C411 C 0.1072 0.96791 0.67016 0.0
C412 C 0.1047 0.97956 0.65964 0.0
C413 C 0.10331 0.97093 0.66244 0.0
C414 C 0.1137 0.98225 0.67232 0.0
C415 C 0.10998 0.98531 0.66452 0.0
C416 C 0.1123 0.97367 0.67511 0.0
C417 C 0.1092 0.92757 0.6871 0.0
C418 C 0.11943 0.93091 0.69881 0.0
C419 C 0.11446 0.91608 0.69663 0.0
C420 C 0.10942 0.91878 0.68956 0.0
C421 C 0.11942 0.92211 0.7014 0.0
C422 C 0.11429 0.93365 0.69171 0.0
C423 C 0.10344 0.93007 0.67982 0.0
O424 O 0.08532 0.94399 0.66582 0.0
O425 O 0.0956 0.94064 0.65649 0.0
O426 O 0.10724 0.93196 0.67237 0.0
O427 O 0.09693 0.9353 0.68172 0.0
H428 H 0.08911 0.92376 0.66161 0.0
H429 H 0.08017 0.91163 0.65622 0.0
H430 H 0.06421 0.92981 0.64183 0.0
H431 H 0.07328 0.9419 0.6471 0.0
H432 H 0.10189 0.98163 0.6535 0.0
H433 H 0.0994 0.96658 0.65848 0.0
H434 H 0.1178 0.98647 0.67623 0.0
H435 H 0.11538 0.97146 0.68107 0.0
H436 H 0.12325 0.93566 0.70237 0.0
H437 H 0.11446 0.90923 0.6984 0.0
H438 H 0.10559 0.91398 0.68604 0.0
H439 H 0.11422 0.94047 0.68988 0.0
C440 C 0.34121 0.83161 0.90568 0.0
C441 C 0.34987 0.83451 0.9063 0.0
C442 C 0.35497 0.82155 0.89853 0.0
C443 C 0.35668 0.82953 0.90277 0.0
C444 C 0.34632 0.81854 0.89818 0.0
C445 C 0.33951 0.82354 0.90169 0.0
U446 U 0.33143 0.84897 0.92097 0.0
O447 O 0.32252 0.85984 0.91829 0.0
O448 O 0.31848 0.84948 0.92731 0.0
C449 C 0.31624 0.85665 0.92318 0.0
C450 C 0.33385 0.83698 0.90891 0.0
C451 C 0.30733 0.85712 0.91952 0.0
C452 C 0.29756 0.85897 0.90715 0.0
C453 C 0.30583 0.85699 0.91048 0.0
C454 C 0.29201 0.86069 0.92183 0.0
C455 C 0.29063 0.8611 0.91278 0.0
C456 C 0.3003 0.85877 0.92516 0.0
C457 C 0.34714 0.85946 0.93792 0.0
C458 C 0.34366 0.86991 0.94941 0.0
C459 C 0.35853 0.86499 0.94738 0.0
C460 C 0.35591 0.8598 0.9404 0.0
C461 C 0.35244 0.87002 0.95203 0.0
C462 C 0.341 0.86461 0.9424 0.0
C463 C 0.34474 0.8535 0.93078 0.0
O464 O 0.33104 0.83518 0.91681 0.0
O465 O 0.33436 0.8454 0.90738 0.0
O466 O 0.34305 0.8571 0.92319 0.0
O467 O 0.33941 0.84709 0.93276 0.0
H468 H 0.35137 0.84066 0.90944 0.0
H469 H 0.36329 0.83192 0.90335 0.0
H470 H 0.3448 0.81242 0.895 0.0
H471 H 0.33289 0.82115 0.90118 0.0
H472 H 0.29661 0.85905 0.90014 0.0
H473 H 0.31111 0.85568 0.90598 0.0
H474 H 0.28677 0.86224 0.92631 0.0
H475 H 0.3013 0.85892 0.93216 0.0
H476 H 0.33886 0.87374 0.95289 0.0
H477 H 0.36535 0.86506 0.9492 0.0
H478 H 0.36074 0.85593 0.937 0.0
H479 H 0.33419 0.86444 0.94054 0.0
C480 C 0.44397 0.93382 0.37065 0.0
C481 C 0.44121 0.92512 0.36977 0.0
C482 C 0.45435 0.92003 0.37717 0.0
C483 C 0.44634 0.91829 0.37306 0.0
C484 C 0.45715 0.92872 0.37791 0.0
C485 C 0.45199 0.93555 0.37471 0.0
U486 U 0.42652 0.94403 0.35567 0.0
O487 O 0.41603 0.95333 0.35865 0.0
O488 O 0.4263 0.957 0.34937 0.0
C489 C 0.41928 0.95947 0.35362 0.0
C490 C 0.43855 0.9412 0.36759 0.0
C491 C 0.41909 0.9685 0.35706 0.0
C492 C 0.4181 0.97879 0.36913 0.0
C493 C 0.41963 0.97031 0.36603 0.0
C494 C 0.41591 0.98384 0.35433 0.0
C495 C 0.41597 0.98561 0.36333 0.0
C496 C 0.41743 0.97537 0.35125 0.0
C497 C 0.41545 0.92934 0.33811 0.0
C498 C 0.40193 0.92278 0.33287 0.0
C499 C 0.4132 0.92673 0.32257 0.0
C500 C 0.41835 0.92988 0.32942 0.0
C501 C 0.40508 0.92284 0.32425 0.0
C502 C 0.40707 0.92597 0.33972 0.0
C503 C 0.42154 0.93117 0.34545 0.0
O504 O 0.44031 0.94416 0.35973 0.0
O505 O 0.43014 0.94067 0.36915 0.0
O506 O 0.41809 0.93267 0.35316 0.0
O507 O 0.42829 0.93618 0.34377 0.0
H508 H 0.43508 0.92362 0.36661 0.0
H509 H 0.44406 0.91164 0.37239 0.0
H510 H 0.46326 0.93023 0.38112 0.0
H511 H 0.45423 0.9422 0.37548 0.0
H512 H 0.4182 0.97993 0.3761 0.0
H513 H 0.42092 0.96513 0.37066 0.0
H514 H 0.41449 0.98896 0.34968 0.0
H515 H 0.41699 0.97413 0.3443 0.0
H516 H 0.39572 0.9198 0.33438 0.0
H517 H 0.41574 0.92701 0.31598 0.0
H518 H 0.42478 0.93238 0.32791 0.0
H519 H 0.40463 0.92539 0.34633 0.0
C520 C 0.34165 0.19366 0.62132 0.0
C521 C 0.35025 0.19203 0.61865 0.0
C522 C 0.35555 0.2039 0.6279 0.0
C523 C 0.35714 0.19709 0.62193 0.0
C524 C 0.34691 0.20549 0.63053 0.0
C525 C 0.34005 0.20043 0.62726 0.0
U526 U 0.33156 0.17682 0.60563 0.0
O527 O 0.32225 0.16621 0.60812 0.0
O528 O 0.31866 0.17684 0.59923 0.0
C529 C 0.31615 0.16965 0.60317 0.0
C530 C 0.33427 0.18838 0.61805 0.0
C531 C 0.30713 0.1694 0.60657 0.0
C532 C 0.29675 0.16907 0.61859 0.0
C533 C 0.30524 0.17047 0.61547 0.0
C534 C 0.29188 0.16582 0.60393 0.0
C535 C 0.28999 0.16659 0.61287 0.0
C536 C 0.30035 0.16723 0.60082 0.0
C537 C 0.34638 0.16662 0.58782 0.0
C538 C 0.34517 0.15278 0.58007 0.0
C539 C 0.35496 0.16397 0.57476 0.0
C540 C 0.35246 0.16943 0.58161 0.0
C541 C 0.3514 0.15556 0.57392 0.0
C542 C 0.34264 0.15829 0.58694 0.0
C543 C 0.34453 0.17236 0.59534 0.0
O544 O 0.33135 0.19043 0.61026 0.0
O545 O 0.33485 0.17991 0.61928 0.0
O546 O 0.34293 0.16853 0.60285 0.0
O547 O 0.33946 0.1791 0.59383 0.0
H548 H 0.35164 0.18685 0.61405 0.0
H549 H 0.36371 0.19571 0.61974 0.0
H550 H 0.34548 0.21056 0.63524 0.0
H551 H 0.33346 0.20178 0.62943 0.0
H552 H 0.29558 0.16955 0.62554 0.0
H553 H 0.31037 0.1721 0.62005 0.0
H554 H 0.28684 0.16394 0.59935 0.0
H555 H 0.30166 0.16633 0.59394 0.0
H556 H 0.34237 0.14631 0.57963 0.0
H557 H 0.35998 0.16622 0.57032 0.0
H558 H 0.35549 0.17579 0.5822 0.0
H559 H 0.33793 0.15597 0.59167 0.0
C560 C 0.08158 0.09164 0.87117 0.0
C561 C 0.08372 0.10031 0.86916 0.0
C562 C 0.07168 0.10556 0.8782 0.0
C563 C 0.07881 0.10721 0.87263 0.0
C564 C 0.06945 0.09686 0.88002 0.0
C565 C 0.07437 0.08997 0.87656 0.0
U566 U 0.09868 0.08165 0.8557 0.0
O567 O 0.1091 0.07216 0.85828 0.0
O568 O 0.09867 0.06886 0.84904 0.0
C569 C 0.1057 0.06618 0.85315 0.0
C570 C 0.08681 0.08425 0.86784 0.0
C571 C 0.10569 0.05711 0.85647 0.0
C572 C 0.10585 0.04665 0.86842 0.0
C573 C 0.10464 0.05519 0.86537 0.0
C574 C 0.10884 0.04177 0.85371 0.0
C575 C 0.1081 0.03985 0.86264 0.0
C576 C 0.10763 0.0503 0.85066 0.0
C577 C 0.10966 0.09671 0.83858 0.0
C578 C 0.12376 0.09554 0.83132 0.0
C579 C 0.1128 0.10541 0.8257 0.0
C580 C 0.10709 0.10286 0.83233 0.0
C581 C 0.12124 0.1019 0.82518 0.0
C582 C 0.11801 0.09295 0.83796 0.0
C583 C 0.10365 0.09479 0.84586 0.0
O584 O 0.08494 0.08158 0.85991 0.0
O585 O 0.09524 0.08463 0.86932 0.0
O586 O 0.1072 0.09297 0.85346 0.0
O587 O 0.0969 0.08986 0.84402 0.0
H588 H 0.08921 0.10175 0.86495 0.0
H589 H 0.08057 0.11383 0.87094 0.0
H590 H 0.06401 0.09538 0.88426 0.0
H591 H 0.07259 0.08333 0.87816 0.0
H592 H 0.10542 0.04546 0.87537 0.0
H593 H 0.1032 0.06034 0.86999 0.0
H594 H 0.11055 0.0367 0.84909 0.0
H595 H 0.10851 0.05164 0.84377 0.0
H596 H 0.1302 0.09267 0.83104 0.0
H597 H 0.1107 0.1104 0.82116 0.0
H598 H 0.10071 0.10587 0.8327 0.0
H599 H 0.12013 0.08815 0.84269 0.0
C600 C 0.18138 0.8322 0.11981 0.0
C601 C 0.17404 0.83052 0.11458 0.0
C602 C 0.16755 0.82173 0.12626 0.0
C603 C 0.16717 0.82536 0.1178 0.0
C604 C 0.17485 0.82361 0.13148 0.0
C605 C 0.18166 0.82877 0.12828 0.0
U606 U 0.19492 0.84846 0.10513 0.0
O607 O 0.20547 0.85712 0.10945 0.0
O608 O 0.20837 0.84643 0.10031 0.0
C609 C 0.21137 0.85318 0.10465 0.0
C610 C 0.1891 0.83702 0.11658 0.0
C611 C 0.22045 0.85306 0.10784 0.0
C612 C 0.23107 0.85475 0.1195 0.0
C613 C 0.22252 0.853 0.11676 0.0
C614 C 0.23562 0.85627 0.10445 0.0
C615 C 0.23763 0.85671 0.11337 0.0
C616 C 0.22711 0.85445 0.10172 0.0
C617 C 0.17935 0.86024 0.08694 0.0
C618 C 0.17167 0.8732 0.08185 0.0
C619 C 0.17413 0.86114 0.07196 0.0
C620 C 0.17837 0.85655 0.0786 0.0
C621 C 0.17071 0.86951 0.0735 0.0
C622 C 0.17595 0.86862 0.08849 0.0
C623 C 0.18499 0.85596 0.09351 0.0
O624 O 0.19216 0.83487 0.10886 0.0
O625 O 0.18943 0.84546 0.11812 0.0
O626 O 0.18599 0.85913 0.10142 0.0
O627 O 0.18877 0.84839 0.0921 0.0
H628 H 0.17366 0.83312 0.10802 0.0
H629 H 0.16155 0.82425 0.11368 0.0
H630 H 0.17539 0.82093 0.13799 0.0
H631 H 0.18726 0.82994 0.13242 0.0
H632 H 0.23243 0.85506 0.12642 0.0
H633 H 0.21747 0.852 0.1216 0.0
H634 H 0.24055 0.85764 0.09958 0.0
H635 H 0.22564 0.8546 0.09481 0.0
H636 H 0.16906 0.87961 0.08326 0.0
H637 H 0.17365 0.85819 0.06556 0.0
H638 H 0.18109 0.8502 0.07713 0.0
H639 H 0.17677 0.87173 0.09478 0.0
C640 C 0.15343 0.44339 0.09177 0.0
C641 C 0.15818 0.44462 0.09951 0.0
C642 C 0.14682 0.45428 0.10516 0.0
C643 C 0.1549 0.45001 0.10614 0.0
C644 C 0.14203 0.45287 0.09747 0.0
C645 C 0.14532 0.44751 0.09084 0.0
U646 U 0.16948 0.4266 0.08216 0.0
O647 O 0.16728 0.41581 0.07293 0.0
O648 O 0.17601 0.42657 0.06934 0.0
C649 C 0.17229 0.41925 0.06688 0.0
C650 C 0.15688 0.43802 0.08453 0.0
C651 C 0.16905 0.41873 0.05782 0.0
C652 C 0.16038 0.42398 0.04557 0.0
C653 C 0.16349 0.42502 0.05415 0.0
C654 C 0.16843 0.41047 0.04429 0.0
C655 C 0.16279 0.41665 0.04054 0.0
C656 C 0.17154 0.41153 0.05279 0.0
C657 C 0.18697 0.4167 0.09763 0.0
C658 C 0.19623 0.40399 0.09525 0.0
C659 C 0.19867 0.41334 0.10775 0.0
C660 C 0.19175 0.41865 0.10515 0.0
C661 C 0.20099 0.40592 0.10287 0.0
C662 C 0.18926 0.40935 0.09264 0.0
C663 C 0.17948 0.42234 0.09543 0.0
O664 O 0.16469 0.44012 0.0817 0.0
O665 O 0.15575 0.42955 0.08522 0.0
O666 O 0.17209 0.4184 0.09365 0.0
O667 O 0.18109 0.42901 0.09029 0.0
H668 H 0.16442 0.44145 0.1004 0.0
H669 H 0.15865 0.45079 0.11207 0.0
H670 H 0.13579 0.45605 0.09653 0.0
H671 H 0.14155 0.44664 0.08493 0.0
H672 H 0.15599 0.42884 0.04292 0.0
H673 H 0.16147 0.43063 0.05793 0.0
H674 H 0.17019 0.40459 0.0408 0.0
H675 H 0.17579 0.40658 0.05551 0.0
H676 H 0.1979 0.39836 0.09133 0.0
H677 H 0.20208 0.41495 0.11372 0.0
H678 H 0.19006 0.42426 0.10912 0.0
H679 H 0.18564 0.40773 0.08679 0.0
C680 C 0.65402 0.08114 0.93399 0.0
C681 C 0.65796 0.0816 0.92573 0.0
C682 C 0.64789 0.07058 0.9201 0.0
C683 C 0.65491 0.07639 0.91885 0.0
C684 C 0.64389 0.07027 0.92835 0.0
C685 C 0.64694 0.07548 0.93521 0.0
U686 U 0.66951 0.09805 0.94424 0.0
O687 O 0.66684 0.10866 0.95356 0.0
O688 O 0.67573 0.09805 0.95722 0.0
C689 C 0.67183 0.10529 0.95966 0.0
C690 C 0.65721 0.08641 0.94141 0.0
C691 C 0.66854 0.10575 0.96871 0.0
C692 C 0.65899 0.10113 0.98054 0.0
C693 C 0.66219 0.10004 0.972 0.0
C694 C 0.66854 0.11353 0.98254 0.0
C695 C 0.66207 0.10796 0.98591 0.0
C696 C 0.67175 0.1124 0.97409 0.0
C697 C 0.6871 0.10881 0.92952 0.0
C698 C 0.69367 0.12329 0.92966 0.0
C699 C 0.7004 0.11168 0.92135 0.0
C700 C 0.69389 0.10592 0.92411 0.0
C701 C 0.70026 0.12048 0.92391 0.0
C702 C 0.68715 0.11751 0.93244 0.0
C703 C 0.67977 0.1028 0.93134 0.0
O704 O 0.66501 0.08441 0.94434 0.0
O705 O 0.65591 0.09487 0.94086 0.0
O706 O 0.67213 0.10637 0.93286 0.0
O707 O 0.68143 0.09609 0.93641 0.0
H708 H 0.6634 0.08597 0.92463 0.0
H709 H 0.658 0.07697 0.91252 0.0
H710 H 0.63849 0.06589 0.92953 0.0
H711 H 0.64379 0.07505 0.94153 0.0
H712 H 0.65398 0.09675 0.98288 0.0
H713 H 0.65962 0.09486 0.96794 0.0
H714 H 0.67086 0.11905 0.98628 0.0
H715 H 0.67661 0.11691 0.97165 0.0
H716 H 0.69345 0.13001 0.93184 0.0
H717 H 0.70532 0.10932 0.91687 0.0
H718 H 0.69398 0.09926 0.92175 0.0
H719 H 0.68201 0.1199 0.93666 0.0
C720 C 0.19321 0.40455 0.18383 0.0
C721 C 0.1939 0.40917 0.17594 0.0
C722 C 0.20356 0.39794 0.16998 0.0
C723 C 0.19904 0.40591 0.16909 0.0
C724 C 0.20284 0.39338 0.17791 0.0
C725 C 0.19771 0.39664 0.18474 0.0
U726 U 0.17593 0.41984 0.19388 0.0
O727 O 0.1656 0.41709 0.20343 0.0
O728 O 0.17585 0.42653 0.20667 0.0
C729 C 0.1689 0.4223 0.20939 0.0
C730 C 0.18796 0.40787 0.19123 0.0
C731 C 0.1689 0.41908 0.21851 0.0
C732 C 0.16854 0.40726 0.22914 0.0
C733 C 0.16984 0.4102 0.22056 0.0
C734 C 0.16572 0.42205 0.23383 0.0
C735 C 0.16622 0.41312 0.23584 0.0
C736 C 0.16702 0.42499 0.22527 0.0
C737 C 0.16482 0.43642 0.17796 0.0
C738 C 0.15568 0.44905 0.18114 0.0
C739 C 0.15822 0.44468 0.16616 0.0
C740 C 0.16333 0.43772 0.16904 0.0
C741 C 0.15445 0.45048 0.17216 0.0
C742 C 0.16088 0.44206 0.18403 0.0
C743 C 0.17083 0.42935 0.18052 0.0
O744 O 0.18971 0.41583 0.19386 0.0
O745 O 0.17956 0.40624 0.1909 0.0
O746 O 0.16731 0.42181 0.18253 0.0
O747 O 0.17739 0.43149 0.1856 0.0
H748 H 0.19048 0.41529 0.17508 0.0
H749 H 0.19943 0.40957 0.16307 0.0
H750 H 0.20636 0.38734 0.1789 0.0
H751 H 0.19731 0.39299 0.19078 0.0
H752 H 0.16898 0.40033 0.23045 0.0
H753 H 0.17129 0.4055 0.21548 0.0
H754 H 0.16414 0.42677 0.23885 0.0
H755 H 0.16627 0.43187 0.22386 0.0
H756 H 0.15283 0.45347 0.18586 0.0
H757 H 0.15733 0.44564 0.15921 0.0
H758 H 0.16629 0.43344 0.16425 0.0
H759 H 0.16194 0.44115 0.19096 0.0
C760 C 0.87047 0.94445 0.43356 0.0
C761 C 0.86791 0.94263 0.42496 0.0
C762 C 0.87646 0.95496 0.4196 0.0
C763 C 0.8709 0.94781 0.41804 0.0
C764 C 0.87905 0.95671 0.42823 0.0
C765 C 0.87606 0.95152 0.43513 0.0
U766 U 0.85525 0.92726 0.44359 0.0
O767 O 0.858 0.91643 0.45262 0.0
O768 O 0.84908 0.92691 0.45658 0.0
C769 C 0.85304 0.91964 0.45883 0.0
C770 C 0.86742 0.93907 0.44097 0.0
C771 C 0.85643 0.91899 0.46782 0.0
C772 C 0.86469 0.92442 0.48028 0.0
C773 C 0.86149 0.92554 0.47174 0.0
C774 C 0.85769 0.9103 0.48103 0.0
C775 C 0.86294 0.91669 0.48498 0.0
C776 C 0.85448 0.91144 0.47258 0.0
C777 C 0.83775 0.91668 0.42876 0.0
C778 C 0.83067 0.9025 0.42995 0.0
C779 C 0.82487 0.91342 0.42014 0.0
C780 C 0.83143 0.91921 0.42266 0.0
C781 C 0.82449 0.90495 0.42362 0.0
C782 C 0.83725 0.90833 0.43251 0.0
C783 C 0.84503 0.92272 0.4306 0.0
O784 O 0.85962 0.94095 0.44397 0.0
O785 O 0.86881 0.93064 0.44031 0.0
O786 O 0.85269 0.91916 0.43204 0.0
O787 O 0.84332 0.92931 0.43582 0.0
H788 H 0.86362 0.93718 0.4236 0.0
H789 H 0.86893 0.94617 0.41146 0.0
H790 H 0.8833 0.96217 0.42964 0.0
H791 H 0.87811 0.95304 0.44172 0.0
H792 H 0.86856 0.92957 0.48316 0.0
H793 H 0.86302 0.93146 0.4682 0.0
H794 H 0.85628 0.90423 0.48436 0.0
H795 H 0.85056 0.90632 0.4697 0.0
H796 H 0.83049 0.89604 0.43281 0.0
H797 H 0.82028 0.91547 0.41517 0.0
H798 H 0.83171 0.9256 0.41966 0.0
H799 H 0.84203 0.90624 0.43727 0.0
C800 C 0.83161 0.12038 0.18402 0.0
C801 C 0.83418 0.11927 0.17529 0.0
C802 C 0.82119 0.12703 0.17024 0.0
C803 C 0.82904 0.12258 0.16847 0.0
C804 C 0.81863 0.12806 0.17899 0.0
C805 C 0.82377 0.12476 0.18579 0.0
U806 U 0.8488 0.1049 0.19378 0.0
O807 O 0.85952 0.1074 0.20301 0.0
O808 O 0.84911 0.09824 0.20655 0.0
C809 C 0.85637 0.1021 0.20897 0.0
C810 C 0.83701 0.11716 0.19136 0.0
C811 C 0.85705 0.10494 0.21817 0.0
C812 C 0.85454 0.11532 0.22994 0.0
C813 C 0.85312 0.1126 0.22129 0.0
C814 C 0.86365 0.10268 0.23244 0.0
C815 C 0.85991 0.11043 0.2356 0.0
C816 C 0.86222 0.09997 0.22384 0.0
C817 C 0.85884 0.0875 0.17836 0.0
C818 C 0.87159 0.07833 0.18087 0.0
C819 C 0.86221 0.0756 0.16846 0.0
C820 C 0.8569 0.08257 0.17092 0.0
C821 C 0.86959 0.07336 0.17341 0.0
C822 C 0.86621 0.08532 0.18337 0.0
C823 C 0.85313 0.09494 0.1805 0.0
O824 O 0.83512 0.10932 0.19427 0.0
O825 O 0.84545 0.11854 0.19076 0.0
O826 O 0.85698 0.1024 0.18225 0.0
O827 O 0.84652 0.09326 0.18567 0.0
H828 H 0.84018 0.11588 0.17374 0.0
H829 H 0.83118 0.12163 0.16181 0.0
H830 H 0.81273 0.13159 0.18061 0.0
H831 H 0.82166 0.12571 0.19247 0.0
H832 H 0.85171 0.12142 0.23209 0.0
H833 H 0.84914 0.11656 0.217 0.0
H834 H 0.8678 0.09876 0.2366 0.0
H835 H 0.86532 0.09405 0.22156 0.0
H836 H 0.87729 0.0768 0.18474 0.0
H837 H 0.86064 0.07208 0.16253 0.0
H838 H 0.8513 0.08419 0.16693 0.0
H839 H 0.86784 0.08907 0.18914 0.0
C840 C 0.37013 0.58161 0.59176 0.0
C841 C 0.3662 0.58195 0.60003 0.0
C842 C 0.37605 0.5706 0.6054 0.0
C843 C 0.36915 0.57652 0.60679 0.0
C844 C 0.37998 0.57035 0.5971 0.0
C845 C 0.37704 0.57578 0.59036 0.0
U846 U 0.35509 0.59935 0.58255 0.0
O847 O 0.35779 0.61046 0.57388 0.0
O848 O 0.34856 0.60034 0.56975 0.0
C849 C 0.35258 0.60763 0.56769 0.0
C850 C 0.36713 0.58727 0.58454 0.0
C851 C 0.35576 0.60853 0.55864 0.0
C852 C 0.36631 0.60572 0.54712 0.0
C853 C 0.36318 0.60413 0.55559 0.0
C854 C 0.35457 0.61598 0.54465 0.0
C855 C 0.36212 0.61179 0.54162 0.0
C856 C 0.35143 0.61435 0.55307 0.0
C857 C 0.33804 0.6091 0.59857 0.0
C858 C 0.32752 0.62064 0.59559 0.0
C859 C 0.32761 0.6134 0.60965 0.0
C860 C 0.33458 0.60822 0.60697 0.0
C861 C 0.32393 0.61958 0.60398 0.0
C862 C 0.33452 0.61537 0.59287 0.0
C863 C 0.34528 0.60331 0.59605 0.0
O864 O 0.35927 0.58564 0.58154 0.0
O865 O 0.36866 0.59565 0.58547 0.0
O866 O 0.3528 0.60707 0.59445 0.0
O867 O 0.34339 0.59703 0.59054 0.0
H868 H 0.36089 0.58644 0.60127 0.0
H869 H 0.36612 0.57706 0.61315 0.0
H870 H 0.38529 0.56588 0.5958 0.0
H871 H 0.38017 0.57543 0.58404 0.0
H872 H 0.37214 0.60238 0.54494 0.0
H873 H 0.36662 0.59961 0.55979 0.0
H874 H 0.35112 0.62056 0.54053 0.0
H875 H 0.34567 0.61778 0.55529 0.0
H876 H 0.32483 0.62543 0.59115 0.0
H877 H 0.3251 0.6126 0.61621 0.0
H878 H 0.33726 0.60348 0.61147 0.0
H879 H 0.33715 0.61616 0.58636 0.0
C880 C 0.19394 0.62068 0.34187 0.0
C881 C 0.19248 0.61789 0.35048 0.0
C882 C 0.20451 0.62697 0.35565 0.0
C883 C 0.19772 0.62101 0.3573 0.0
C884 C 0.20601 0.62962 0.34699 0.0
C885 C 0.20076 0.62653 0.34019 0.0
U886 U 0.17669 0.60537 0.33201 0.0
O887 O 0.16576 0.60812 0.3231 0.0
O888 O 0.17624 0.59925 0.31901 0.0
C889 C 0.16898 0.60326 0.31681 0.0
C890 C 0.18846 0.61759 0.33457 0.0
C891 C 0.16826 0.60675 0.30783 0.0
C892 C 0.17442 0.61197 0.2941 0.0
C893 C 0.17553 0.60913 0.30277 0.0
C894 C 0.15883 0.61005 0.29551 0.0
C895 C 0.16603 0.61246 0.29038 0.0
C896 C 0.15994 0.60724 0.3041 0.0
C897 C 0.1665 0.58771 0.347 0.0
C898 C 0.15293 0.57967 0.34508 0.0
C899 C 0.16315 0.57535 0.35631 0.0
C900 C 0.16876 0.58206 0.3538 0.0
C901 C 0.15511 0.57412 0.35207 0.0
C902 C 0.15858 0.58642 0.34256 0.0
C903 C 0.17239 0.59507 0.34504 0.0
O904 O 0.19034 0.60981 0.3315 0.0
O905 O 0.18003 0.61893 0.33536 0.0
O906 O 0.16869 0.60267 0.34361 0.0
O907 O 0.17891 0.59343 0.33973 0.0
H908 H 0.18726 0.61335 0.35192 0.0
H909 H 0.19638 0.61884 0.36389 0.0
H910 H 0.2113 0.63404 0.34546 0.0
H911 H 0.20203 0.62871 0.33359 0.0
H912 H 0.18011 0.6137 0.29031 0.0
H913 H 0.18204 0.60876 0.30547 0.0
H914 H 0.15227 0.61048 0.29293 0.0
H915 H 0.15424 0.60539 0.30785 0.0
H916 H 0.14683 0.57884 0.34162 0.0
H917 H 0.16498 0.57129 0.3618 0.0
H918 H 0.17481 0.58295 0.35733 0.0
H919 H 0.15673 0.5907 0.33725 0.0
C920 C 0.33164 0.40499 0.84223 0.0
C921 C 0.33275 0.40829 0.85071 0.0
C922 C 0.32108 0.39885 0.85611 0.0
C923 C 0.32753 0.40523 0.85758 0.0
C924 C 0.32012 0.39547 0.84763 0.0
C925 C 0.32533 0.39853 0.84077 0.0
U926 U 0.34863 0.42046 0.83201 0.0
O927 O 0.35899 0.41787 0.82244 0.0
O928 O 0.34848 0.42702 0.81916 0.0
C929 C 0.35554 0.42298 0.81647 0.0
C930 C 0.3369 0.40823 0.83482 0.0
C931 C 0.35562 0.41976 0.80736 0.0
C932 C 0.35642 0.40797 0.79675 0.0
C933 C 0.35507 0.41084 0.80534 0.0
C934 C 0.35847 0.42288 0.79202 0.0
C935 C 0.35837 0.41394 0.79002 0.0
C936 C 0.35713 0.42575 0.8006 0.0
C937 C 0.35964 0.43789 0.84662 0.0
C938 C 0.37397 0.44471 0.8457 0.0
C939 C 0.36274 0.45115 0.85475 0.0
C940 C 0.35698 0.44453 0.85231 0.0
C941 C 0.37133 0.45124 0.85158 0.0
C942 C 0.36814 0.43812 0.84317 0.0
C943 C 0.35361 0.43055 0.84495 0.0
O944 O 0.33495 0.4161 0.83201 0.0
O945 O 0.34534 0.40685 0.83527 0.0
O946 O 0.35716 0.42293 0.84326 0.0
O947 O 0.34679 0.43225 0.84006 0.0
H948 H 0.33761 0.41324 0.85199 0.0
H949 H 0.32859 0.40782 0.86407 0.0
H950 H 0.31522 0.39057 0.84627 0.0
H951 H 0.32438 0.39589 0.83429 0.0
H952 H 0.35631 0.40102 0.79544 0.0
H953 H 0.35391 0.40608 0.81043 0.0
H954 H 0.35977 0.42767 0.78699 0.0
H955 H 0.35757 0.43266 0.802 0.0
H956 H 0.38059 0.4446 0.84324 0.0
H957 H 0.36061 0.45598 0.85945 0.0
H958 H 0.35049 0.44445 0.85511 0.0
H959 H 0.37036 0.43308 0.83874 0.0
C960 C 0.93353 0.87009 0.58161 0.0
C961 C 0.9255 0.86569 0.58165 0.0
C962 C 0.91939 0.87641 0.57153 0.0
C963 C 0.91849 0.86883 0.57666 0.0
C964 C 0.92743 0.8808 0.57158 0.0
C965 C 0.93442 0.87766 0.57655 0.0
U966 U 0.94408 0.85453 0.59831 0.0
O967 O 0.95723 0.84868 0.59852 0.0
O968 O 0.9531 0.85737 0.60911 0.0
C969 C 0.95942 0.85259 0.60583 0.0
C970 C 0.94101 0.86698 0.58686 0.0
C971 C 0.96836 0.85616 0.60645 0.0
C972 C 0.9791 0.86768 0.60438 0.0
C973 C 0.97064 0.86438 0.60312 0.0
C974 C 0.98307 0.85458 0.61224 0.0
C975 C 0.98543 0.86283 0.60899 0.0
C976 C 0.97466 0.85129 0.61095 0.0
C977 C 0.92946 0.83629 0.60823 0.0
C978 C 0.93054 0.82861 0.62212 0.0
C979 C 0.92031 0.82367 0.61116 0.0
C980 C 0.92308 0.83031 0.60556 0.0
C981 C 0.92385 0.82285 0.61959 0.0
C982 C 0.93331 0.83529 0.61649 0.0
C983 C 0.93137 0.84381 0.6025 0.0
O984 O 0.94036 0.86809 0.59533 0.0
O985 O 0.9442 0.85931 0.58474 0.0
O986 O 0.93668 0.84241 0.59592 0.0
O987 O 0.93265 0.85135 0.60635 0.0
H988 H 0.92464 0.85987 0.58556 0.0
H989 H 0.91233 0.86539 0.57692 0.0
H990 H 0.92834 0.88663 0.56769 0.0
H991 H 0.94055 0.88116 0.57644 0.0
H992 H 0.98069 0.87405 0.60176 0.0
H993 H 0.96587 0.86827 0.59965 0.0
H994 H 0.98765 0.85075 0.61599 0.0
H995 H 0.97302 0.84496 0.61364 0.0
H996 H 0.93349 0.82807 0.62852 0.0
H997 H 0.9151 0.81942 0.60902 0.0
H998 H 0.92 0.83097 0.59923 0.0
H999 H 0.93828 0.8398 0.61868 0.0
C1000 C 0.90579 0.18515 0.33183 0.0
C1001 C 0.91061 0.17738 0.33118 0.0
C1002 C 0.89938 0.17097 0.32185 0.0
C1003 C 0.90744 0.17037 0.3262 0.0
C1004 C 0.89466 0.17882 0.32245 0.0
C1005 C 0.89782 0.18581 0.3274 0.0
U1006 U 0.92126 0.19519 0.34878 0.0
O1007 O 0.92708 0.20831 0.34951 0.0
O1008 O 0.91844 0.20378 0.35997 0.0
C1009 C 0.92308 0.21027 0.35685 0.0
C1010 C 0.90885 0.19256 0.3372 0.0
C1011 C 0.91916 0.21907 0.35753 0.0
C1012 C 0.90998 0.23084 0.35208 0.0
C1013 C 0.91357 0.22245 0.35112 0.0
C1014 C 0.91757 0.23255 0.36582 0.0
C1015 C 0.91187 0.23596 0.3595 0.0
C1016 C 0.92115 0.2242 0.36484 0.0
C1017 C 0.93903 0.17919 0.35788 0.0
C1018 C 0.9514 0.18187 0.36752 0.0
C1019 C 0.94794 0.16713 0.36298 0.0
C1020 C 0.94088 0.17025 0.35818 0.0
C1021 C 0.95333 0.1729 0.36762 0.0
C1022 C 0.9443 0.18502 0.36261 0.0
C1023 C 0.93165 0.18203 0.35241 0.0
O1024 O 0.90768 0.19173 0.34566 0.0
O1025 O 0.91654 0.19577 0.33521 0.0
O1026 O 0.93328 0.18776 0.34625 0.0
O1027 O 0.9242 0.18337 0.35641 0.0
H1028 H 0.91677 0.17672 0.33456 0.0
H1029 H 0.91124 0.16442 0.32588 0.0
H1030 H 0.88853 0.17958 0.31902 0.0
H1031 H 0.89402 0.19175 0.32779 0.0
H1032 H 0.90578 0.23333 0.34699 0.0
H1033 H 0.91198 0.21863 0.34539 0.0
H1034 H 0.91915 0.23628 0.37161 0.0
H1035 H 0.92547 0.22173 0.36985 0.0
H1036 H 0.95544 0.18642 0.3711 0.0
H1037 H 0.9492 0.16018 0.36308 0.0
H1038 H 0.93686 0.16564 0.35463 0.0
H1039 H 0.94296 0.19195 0.36247 0.0
C1040 C 0.59104 0.15715 0.08164 0.0
C1041 C 0.59967 0.1582 0.08452 0.0
C1042 C 0.60506 0.15006 0.07191 0.0
C1043 C 0.60661 0.15468 0.0797 0.0
C1044 C 0.59644 0.14929 0.06891 0.0
C1045 C 0.58951 0.15277 0.07374 0.0
U1046 U 0.58041 0.17251 0.0985 0.0
O1047 O 0.5672 0.17825 0.09883 0.0
O1048 O 0.57148 0.16952 0.10933 0.0
C1049 C 0.56508 0.17421 0.10609 0.0
C1050 C 0.58353 0.16023 0.0869 0.0
C1051 C 0.55624 0.17038 0.1066 0.0
C1052 C 0.54597 0.15843 0.10459 0.0
C1053 C 0.5543 0.16204 0.10336 0.0
C1054 C 0.5414 0.17151 0.11216 0.0
C1055 C 0.53945 0.16307 0.10915 0.0
C1056 C 0.54969 0.1751 0.1109 0.0
C1057 C 0.59524 0.19066 0.10842 0.0
C1058 C 0.59292 0.19951 0.12144 0.0
C1059 C 0.6054 0.20221 0.11215 0.0
C1060 C 0.60278 0.19547 0.10661 0.0
C1061 C 0.60056 0.20426 0.11964 0.0
C1062 C 0.59023 0.19278 0.11581 0.0
C1063 C 0.59316 0.1832 0.1027 0.0
O1064 O 0.5841 0.15901 0.09537 0.0
O1065 O 0.58032 0.16791 0.08484 0.0
O1066 O 0.58774 0.18468 0.09622 0.0
O1067 O 0.59185 0.17565 0.10655 0.0
H1068 H 0.60104 0.16164 0.09054 0.0
H1069 H 0.6132 0.15556 0.08208 0.0
H1070 H 0.59504 0.1458 0.06293 0.0
H1071 H 0.58291 0.1519 0.07138 0.0
H1072 H 0.54463 0.15202 0.10195 0.0
H1073 H 0.55925 0.15829 0.09998 0.0
H1074 H 0.53657 0.17527 0.11569 0.0
H1075 H 0.55105 0.18155 0.11346 0.0
H1076 H 0.58913 0.20094 0.12723 0.0
H1077 H 0.6114 0.20566 0.11072 0.0
H1078 H 0.60678 0.19389 0.101 0.0
H1079 H 0.58438 0.18913 0.11732 0.0
C1080 C 0.61932 0.84103 0.83226 0.0
C1081 C 0.61366 0.84575 0.8268 0.0
C1082 C 0.6255 0.8555 0.82248 0.0
C1083 C 0.61673 0.85284 0.82192 0.0
C1084 C 0.63116 0.85072 0.82788 0.0
C1085 C 0.62811 0.84357 0.8327 0.0
U1086 U 0.60357 0.82999 0.84841 0.0
O1087 O 0.59821 0.81666 0.84869 0.0
O1088 O 0.60624 0.82134 0.85958 0.0
C1089 C 0.60187 0.81478 0.85622 0.0
C1090 C 0.61631 0.83341 0.83743 0.0
C1091 C 0.6058 0.80604 0.85714 0.0
C1092 C 0.61533 0.79431 0.85229 0.0
C1093 C 0.61185 0.80271 0.85114 0.0
C1094 C 0.60676 0.79253 0.86544 0.0
C1095 C 0.61278 0.7891 0.85945 0.0
C1096 C 0.6033 0.8009 0.86428 0.0
C1097 C 0.58458 0.84407 0.85762 0.0
C1098 C 0.57815 0.84668 0.87195 0.0
C1099 C 0.57042 0.85106 0.8589 0.0
C1100 C 0.57714 0.84771 0.85375 0.0
C1101 C 0.57101 0.85093 0.86806 0.0
C1102 C 0.58488 0.84327 0.86677 0.0
C1103 C 0.59229 0.84235 0.85207 0.0
O1104 O 0.61712 0.8341 0.84594 0.0
O1105 O 0.60891 0.82977 0.83507 0.0
O1106 O 0.59128 0.83691 0.84552 0.0
O1107 O 0.59983 0.84151 0.85605 0.0
H1108 H 0.60685 0.84395 0.82628 0.0
H1109 H 0.61222 0.8562 0.81764 0.0
H1110 H 0.63794 0.85258 0.82849 0.0
H1111 H 0.63263 0.84002 0.83681 0.0
H1112 H 0.61995 0.79185 0.84755 0.0
H1113 H 0.61387 0.80658 0.84558 0.0
H1114 H 0.60481 0.78881 0.87112 0.0
H1115 H 0.59866 0.80337 0.869 0.0
H1116 H 0.57885 0.84657 0.87898 0.0
H1117 H 0.56498 0.85425 0.85571 0.0
H1118 H 0.57675 0.84842 0.84673 0.0
H1119 H 0.59052 0.84047 0.86996 0.0
C1120 C 0.93476 0.15508 0.94325 0.0
C1121 C 0.92778 0.16047 0.94574 0.0
C1122 C 0.92095 0.14833 0.95347 0.0
C1123 C 0.92095 0.15712 0.95082 0.0
C1124 C 0.92787 0.14293 0.95085 0.0
C1125 C 0.93472 0.14629 0.94582 0.0
U1126 U 0.94466 0.17129 0.92685 0.0
O1127 O 0.95775 0.17717 0.92636 0.0
O1128 O 0.95327 0.16889 0.91558 0.0
C1129 C 0.95974 0.1734 0.91891 0.0
C1130 C 0.94208 0.15842 0.93793 0.0
C1131 C 0.96853 0.16949 0.91813 0.0
C1132 C 0.9811 0.1618 0.92407 0.0
C1133 C 0.97262 0.16512 0.92507 0.0
C1134 C 0.98147 0.16714 0.90922 0.0
C1135 C 0.98562 0.16274 0.91611 0.0
C1136 C 0.97303 0.17044 0.91022 0.0
C1137 C 0.92897 0.18941 0.91815 0.0
C1138 C 0.93196 0.20132 0.90803 0.0
C1139 C 0.91731 0.19901 0.91343 0.0
C1140 C 0.92019 0.19188 0.91829 0.0
C1141 C 0.92314 0.20384 0.90827 0.0
C1142 C 0.93488 0.19415 0.91298 0.0
C1143 C 0.93156 0.18184 0.92348 0.0
O1144 O 0.94123 0.15757 0.92945 0.0
O1145 O 0.94528 0.16605 0.94022 0.0
O1146 O 0.93722 0.18323 0.92977 0.0
O1147 O 0.9329 0.17449 0.91929 0.0
H1148 H 0.92762 0.16725 0.94376 0.0
H1149 H 0.91562 0.1614 0.95261 0.0
H1150 H 0.92805 0.13614 0.95279 0.0
H1151 H 0.94002 0.14201 0.94394 0.0
H1152 H 0.98411 0.15844 0.92951 0.0
H1153 H 0.96929 0.16431 0.93125 0.0
H1154 H 0.98481 0.16816 0.90308 0.0
H1155 H 0.97003 0.17386 0.9048 0.0
H1156 H 0.93658 0.20494 0.90409 0.0
H1157 H 0.91046 0.2007 0.91363 0.0
H1158 H 0.91552 0.18827 0.92217 0.0
H1159 H 0.94169 0.19232 0.91278 0.0
C1160 C 0.61929 0.18407 0.69338 0.0
C1161 C 0.61376 0.17985 0.69936 0.0
C1162 C 0.62535 0.16965 0.70334 0.0
C1163 C 0.61677 0.17279 0.70432 0.0
C1164 C 0.6309 0.17395 0.69743 0.0
C1165 C 0.62791 0.18107 0.69253 0.0
U1166 U 0.60384 0.19488 0.67678 0.0
O1167 O 0.59818 0.20808 0.67638 0.0
O1168 O 0.60663 0.20363 0.66571 0.0
C1169 C 0.60203 0.21008 0.66897 0.0
C1170 C 0.61633 0.19167 0.68811 0.0
C1171 C 0.60575 0.21895 0.66816 0.0
C1172 C 0.61357 0.23152 0.67391 0.0
C1173 C 0.61051 0.22294 0.67489 0.0
C1174 C 0.6072 0.23219 0.65948 0.0
C1175 C 0.61188 0.23629 0.66621 0.0
C1176 C 0.60417 0.22364 0.66046 0.0
C1177 C 0.58546 0.1802 0.66729 0.0
C1178 C 0.5774 0.18168 0.65367 0.0
C1179 C 0.57322 0.17066 0.66417 0.0
C1180 C 0.57987 0.17341 0.66974 0.0
C1181 C 0.572 0.17463 0.65599 0.0
C1182 C 0.58409 0.18445 0.65928 0.0
C1183 C 0.59299 0.18217 0.67295 0.0
O1184 O 0.6174 0.19102 0.67963 0.0
O1185 O 0.60882 0.19523 0.69026 0.0
O1186 O 0.59167 0.18765 0.67941 0.0
O1187 O 0.60051 0.18332 0.66901 0.0
H1188 H 0.6071 0.18202 0.70025 0.0
H1189 H 0.61238 0.16983 0.70899 0.0
H1190 H 0.63753 0.17172 0.6965 0.0
H1191 H 0.63234 0.18423 0.68803 0.0
H1192 H 0.61734 0.2344 0.67914 0.0
H1193 H 0.61184 0.21944 0.68088 0.0
H1194 H 0.60576 0.23565 0.65349 0.0
H1195 H 0.60048 0.2207 0.6552 0.0
H1196 H 0.57656 0.18495 0.64746 0.0
H1197 H 0.56925 0.16515 0.66612 0.0
H1198 H 0.58083 0.17002 0.67587 0.0
H1199 H 0.58832 0.18974 0.65727 0.0
C1200 C 0.58999 0.8701 0.44353 0.0
C1201 C 0.59857 0.86729 0.44204 0.0
C1202 C 0.60389 0.87688 0.45361 0.0
C1203 C 0.60545 0.87067 0.44702 0.0
C1204 C 0.59529 0.87972 0.45503 0.0
C1205 C 0.58841 0.87634 0.45005 0.0
U1206 U 0.58019 0.85411 0.42685 0.0
O1207 O 0.56716 0.8481 0.42631 0.0
O1208 O 0.57152 0.85663 0.41569 0.0
C1209 C 0.56513 0.85191 0.4189 0.0
C1210 C 0.58266 0.86678 0.43821 0.0
C1211 C 0.55628 0.85563 0.41814 0.0
C1212 C 0.54455 0.86514 0.42305 0.0
C1213 C 0.553 0.86176 0.42411 0.0
C1214 C 0.54262 0.85633 0.41009 0.0
C1215 C 0.53924 0.86245 0.41604 0.0
C1216 C 0.55102 0.85296 0.41116 0.0
C1217 C 0.59542 0.83621 0.41738 0.0
C1218 C 0.59292 0.82721 0.4045 0.0
C1219 C 0.60587 0.82503 0.41328 0.0
C1220 C 0.60321 0.83169 0.4189 0.0
C1221 C 0.60081 0.82279 0.40599 0.0
C1222 C 0.5902 0.83385 0.41021 0.0
C1223 C 0.59326 0.84365 0.4231 0.0
O1224 O 0.58345 0.86779 0.42974 0.0
O1225 O 0.57963 0.85905 0.44037 0.0
O1226 O 0.58774 0.84214 0.42949 0.0
O1227 O 0.59194 0.85116 0.41919 0.0
H1228 H 0.59994 0.86252 0.43702 0.0
H1229 H 0.61201 0.86846 0.44566 0.0
H1230 H 0.59388 0.88446 0.46008 0.0
H1231 H 0.58184 0.8786 0.45128 0.0
H1232 H 0.54215 0.86984 0.42776 0.0
H1233 H 0.55696 0.86393 0.42954 0.0
H1234 H 0.53882 0.85427 0.40451 0.0
H1235 H 0.55345 0.84828 0.40645 0.0
H1236 H 0.58896 0.8256 0.39888 0.0
H1237 H 0.61204 0.82181 0.41446 0.0
H1238 H 0.60736 0.83346 0.42434 0.0
H1239 H 0.58416 0.83727 0.40893 0.0
C1240 C 0.90588 0.84125 0.19413 0.0
C1241 C 0.90818 0.84985 0.19196 0.0
C1242 C 0.89981 0.85543 0.20433 0.0
C1243 C 0.90514 0.85686 0.19698 0.0
C1244 C 0.89756 0.8468 0.20649 0.0
C1245 C 0.90057 0.83979 0.20145 0.0
U1246 U 0.92089 0.83092 0.17695 0.0
O1247 O 0.92666 0.81777 0.17627 0.0
O1248 O 0.91782 0.82221 0.16594 0.0
C1249 C 0.92257 0.81577 0.169 0.0
C1250 C 0.90874 0.83378 0.18874 0.0
C1251 C 0.9188 0.80693 0.16838 0.0
C1252 C 0.90933 0.79528 0.17357 0.0
C1253 C 0.91264 0.80379 0.17439 0.0
C1254 C 0.91822 0.79302 0.16071 0.0
C1255 C 0.91212 0.78978 0.16673 0.0
C1256 C 0.92153 0.80148 0.16155 0.0
C1257 C 0.93894 0.84569 0.16703 0.0
C1258 C 0.94654 0.84444 0.15311 0.0
C1259 C 0.95143 0.85489 0.16388 0.0
C1260 C 0.94485 0.85218 0.16955 0.0
C1261 C 0.95227 0.85119 0.15553 0.0
C1262 C 0.93991 0.8417 0.15882 0.0
C1263 C 0.93155 0.84372 0.17287 0.0
O1264 O 0.90743 0.83454 0.1803 0.0
O1265 O 0.91643 0.83049 0.19064 0.0
O1266 O 0.93306 0.83823 0.17928 0.0
O1267 O 0.92392 0.84256 0.16915 0.0
H1268 H 0.91225 0.85114 0.18633 0.0
H1269 H 0.90685 0.86343 0.19502 0.0
H1270 H 0.8935 0.84546 0.21212 0.0
H1271 H 0.89872 0.83321 0.20324 0.0
H1272 H 0.90453 0.79303 0.17823 0.0
H1273 H 0.91041 0.8079 0.17969 0.0
H1274 H 0.92053 0.78895 0.15542 0.0
H1275 H 0.92628 0.80378 0.15685 0.0
H1276 H 0.94708 0.84138 0.14677 0.0
H1277 H 0.95567 0.86017 0.16592 0.0
H1278 H 0.9442 0.85535 0.17583 0.0
H1279 H 0.93544 0.83664 0.15675 0.0
C1280 C 0.58119 0.93446 0.87085 0.0
C1281 C 0.58222 0.92587 0.86785 0.0
C1282 C 0.57071 0.92086 0.8777 0.0
C1283 C 0.57704 0.91913 0.87126 0.0
C1284 C 0.56975 0.92947 0.8807 0.0
C1285 C 0.57492 0.9362 0.87729 0.0
U1286 U 0.59806 0.94421 0.8549 0.0
O1287 O 0.59858 0.95731 0.84898 0.0
O1288 O 0.60918 0.95294 0.85752 0.0
C1289 C 0.60597 0.95934 0.85281 0.0
C1290 C 0.58667 0.94167 0.86752 0.0
C1291 C 0.60677 0.96823 0.85646 0.0
C1292 C 0.60134 0.98058 0.86488 0.0
C1293 C 0.60032 0.97201 0.86176 0.0
C1294 C 0.61522 0.98166 0.85745 0.0
C1295 C 0.60884 0.98549 0.86279 0.0
C1296 C 0.6142 0.97313 0.85435 0.0
C1297 C 0.60738 0.92921 0.83666 0.0
C1298 C 0.62055 0.93113 0.82797 0.0
C1299 C 0.61048 0.91948 0.82452 0.0
C1300 C 0.60509 0.92211 0.83139 0.0
C1301 C 0.61829 0.92394 0.82273 0.0
C1302 C 0.61511 0.93378 0.83486 0.0
C1303 C 0.60179 0.93128 0.84424 0.0
O1304 O 0.59512 0.94072 0.86852 0.0
O1305 O 0.58456 0.9448 0.85982 0.0
O1306 O 0.59535 0.93677 0.84288 0.0
O1307 O 0.60576 0.93254 0.85172 0.0
H1308 H 0.58705 0.92437 0.86292 0.0
H1309 H 0.57806 0.91254 0.86892 0.0
H1310 H 0.56492 0.93102 0.88563 0.0
H1311 H 0.57402 0.94278 0.8797 0.0
H1312 H 0.5963 0.98335 0.86898 0.0
H1313 H 0.59452 0.96836 0.86346 0.0
H1314 H 0.62096 0.9853 0.85555 0.0
H1315 H 0.61921 0.97038 0.8502 0.0
H1316 H 0.62657 0.93464 0.82678 0.0
H1317 H 0.60867 0.91375 0.82081 0.0
H1318 H 0.59921 0.91843 0.83272 0.0
H1319 H 0.61702 0.93928 0.83887 0.0
C1320 C 0.84056 0.83163 0.62032 0.0
C1321 C 0.84758 0.8296 0.61479 0.0
C1322 C 0.8547 0.82151 0.62653 0.0
C1323 C 0.85458 0.82457 0.61786 0.0
C1324 C 0.84769 0.82362 0.63204 0.0
C1325 C 0.84068 0.8286 0.62896 0.0
U1326 U 0.83045 0.84862 0.60494 0.0
O1327 O 0.81733 0.8494 0.59914 0.0
O1328 O 0.82191 0.85982 0.60782 0.0
C1329 C 0.81542 0.85674 0.60316 0.0
C1330 C 0.83313 0.83702 0.61732 0.0
C1331 C 0.8066 0.85753 0.607 0.0
C1332 C 0.79415 0.85176 0.61502 0.0
C1333 C 0.80264 0.85075 0.61172 0.0
C1334 C 0.79352 0.86634 0.60898 0.0
C1335 C 0.78946 0.85956 0.61363 0.0
C1336 C 0.80197 0.86532 0.6057 0.0
C1337 C 0.84611 0.85788 0.58709 0.0
C1338 C 0.8433 0.86908 0.57615 0.0
C1339 C 0.85759 0.86247 0.57723 0.0
C1340 C 0.85471 0.85728 0.58411 0.0
C1341 C 0.85195 0.86843 0.57316 0.0
C1342 C 0.84038 0.86381 0.58308 0.0
C1343 C 0.84352 0.8523 0.59448 0.0
O1344 O 0.83395 0.84546 0.61853 0.0
O1345 O 0.82985 0.83504 0.60964 0.0
O1346 O 0.83783 0.8461 0.59287 0.0
O1347 O 0.84223 0.85623 0.60198 0.0
H1348 H 0.84767 0.83195 0.60812 0.0
H1349 H 0.85996 0.82318 0.6135 0.0
H1350 H 0.8476 0.82135 0.63873 0.0
H1351 H 0.83536 0.83011 0.63334 0.0
H1352 H 0.79121 0.84642 0.61857 0.0
H1353 H 0.80608 0.84468 0.61281 0.0
H1354 H 0.7902 0.87249 0.60797 0.0
H1355 H 0.80491 0.87065 0.60211 0.0
H1356 H 0.83881 0.87361 0.57311 0.0
H1357 H 0.86432 0.86192 0.57516 0.0
H1358 H 0.85924 0.85279 0.58717 0.0
H1359 H 0.8337 0.86437 0.58531 0.0
C1360 C 0.94311 0.09086 0.36947 0.0
C1361 C 0.94114 0.09947 0.36704 0.0
C1362 C 0.95267 0.10497 0.37656 0.0
C1363 C 0.94588 0.10646 0.37055 0.0
C1364 C 0.95475 0.09632 0.37878 0.0
C1365 C 0.94999 0.08934 0.37529 0.0
U1366 U 0.92647 0.08063 0.35373 0.0
O1367 O 0.926 0.06748 0.34792 0.0
O1368 O 0.91541 0.07189 0.35645 0.0
C1369 C 0.91865 0.06544 0.35183 0.0
C1370 C 0.93788 0.08341 0.36625 0.0
C1371 C 0.91805 0.05666 0.35577 0.0
C1372 C 0.92303 0.04536 0.36576 0.0
C1373 C 0.92398 0.0537 0.36209 0.0
C1374 C 0.91029 0.04284 0.35681 0.0
C1375 C 0.9161 0.03985 0.36324 0.0
C1376 C 0.91125 0.05114 0.35314 0.0
C1377 C 0.91694 0.09592 0.33577 0.0
C1378 C 0.90486 0.09304 0.32584 0.0
C1379 C 0.91223 0.10701 0.32549 0.0
C1380 C 0.91779 0.10427 0.33215 0.0
C1381 C 0.90569 0.10147 0.32232 0.0
C1382 C 0.9105 0.09026 0.33252 0.0
C1383 C 0.92261 0.09361 0.34318 0.0
O1384 O 0.92941 0.08408 0.36734 0.0
O1385 O 0.94003 0.0803 0.35855 0.0
O1386 O 0.92895 0.08805 0.34165 0.0
O1387 O 0.91871 0.0923 0.3507 0.0
H1388 H 0.9359 0.10079 0.3625 0.0
H1389 H 0.94426 0.11304 0.36854 0.0
H1390 H 0.95995 0.09496 0.38336 0.0
H1391 H 0.95162 0.08275 0.37724 0.0
H1392 H 0.92776 0.04319 0.37054 0.0
H1393 H 0.92931 0.05784 0.36418 0.0
H1394 H 0.90487 0.03881 0.35474 0.0
H1395 H 0.90661 0.0533 0.34827 0.0
H1396 H 0.89979 0.08871 0.32352 0.0
H1397 H 0.91289 0.11358 0.32295 0.0
H1398 H 0.92266 0.10875 0.33461 0.0
H1399 H 0.90973 0.08379 0.33526 0.0
C1400 C 0.68441 0.19391 0.11872 0.0
C1401 C 0.67587 0.19153 0.11644 0.0
C1402 C 0.67005 0.20383 0.12471 0.0
C1403 C 0.66875 0.19643 0.11942 0.0
C1404 C 0.67861 0.2063 0.1268 0.0
C1405 C 0.68572 0.20137 0.12386 0.0
U1406 U 0.69483 0.17701 0.10364 0.0
O1407 O 0.70798 0.17629 0.0979 0.0
O1408 O 0.7034 0.16583 0.10653 0.0
C1409 C 0.70988 0.16891 0.10186 0.0
C1410 C 0.69198 0.18862 0.11594 0.0
C1411 C 0.71869 0.16809 0.10565 0.0
C1412 C 0.73079 0.1734 0.11446 0.0
C1413 C 0.72231 0.17446 0.11114 0.0
C1414 C 0.73208 0.15964 0.10683 0.0
C1415 C 0.73575 0.16594 0.11238 0.0
C1416 C 0.72365 0.1607 0.10353 0.0
C1417 C 0.67996 0.16744 0.08552 0.0
C1418 C 0.68119 0.1536 0.07782 0.0
C1419 C 0.67051 0.16428 0.07322 0.0
C1420 C 0.67332 0.16994 0.07978 0.0
C1421 C 0.67428 0.15597 0.07227 0.0
C1422 C 0.68403 0.1593 0.0844 0.0
C1423 C 0.68199 0.17322 0.09294 0.0
O1424 O 0.69125 0.18017 0.11717 0.0
O1425 O 0.69535 0.19061 0.10831 0.0
O1426 O 0.68757 0.17955 0.09147 0.0
O1427 O 0.68311 0.16941 0.10054 0.0
H1428 H 0.6747 0.18585 0.1124 0.0
H1429 H 0.66223 0.19446 0.11757 0.0
H1430 H 0.6798 0.21196 0.13086 0.0
H1431 H 0.69226 0.20333 0.12568 0.0
H1432 H 0.73343 0.17838 0.11872 0.0
H1433 H 0.7186 0.18022 0.11285 0.0
H1434 H 0.73578 0.15392 0.10494 0.0
H1435 H 0.721 0.15574 0.09924 0.0
H1436 H 0.68427 0.14727 0.07719 0.0
H1437 H 0.66511 0.16626 0.06912 0.0
H1438 H 0.67008 0.17617 0.08055 0.0
H1439 H 0.68921 0.15727 0.08875 0.0
C1440 C 0.58155 0.09135 0.65606 0.0
C1441 C 0.57652 0.09654 0.66171 0.0
C1442 C 0.57126 0.10527 0.64942 0.0
C1443 C 0.57143 0.1034 0.65843 0.0
C1444 C 0.5764 0.10013 0.64382 0.0
C1445 C 0.58143 0.09323 0.64709 0.0
U1446 U 0.59811 0.08091 0.67186 0.0
O1447 O 0.59835 0.06782 0.67786 0.0
O1448 O 0.60902 0.07195 0.66926 0.0
C1449 C 0.60571 0.06564 0.67404 0.0
C1450 C 0.58683 0.08388 0.65927 0.0
C1451 C 0.60634 0.05671 0.67046 0.0
C1452 C 0.60378 0.04585 0.65913 0.0
C1453 C 0.6026 0.05433 0.66245 0.0
C1454 C 0.61238 0.04207 0.67182 0.0
C1455 C 0.60871 0.03961 0.66378 0.0
C1456 C 0.61117 0.05049 0.67512 0.0
C1457 C 0.60744 0.09603 0.69007 0.0
C1458 C 0.61956 0.09327 0.69998 0.0
C1459 C 0.61115 0.10657 0.70129 0.0
C1460 C 0.60591 0.10396 0.69432 0.0
C1461 C 0.61807 0.10131 0.70418 0.0
C1462 C 0.61426 0.09063 0.69297 0.0
C1463 C 0.60196 0.09385 0.68247 0.0
O1464 O 0.5953 0.08453 0.65821 0.0
O1465 O 0.58465 0.08056 0.66688 0.0
O1466 O 0.59546 0.08844 0.68383 0.0
O1467 O 0.60605 0.09243 0.67507 0.0
H1468 H 0.57649 0.09529 0.66867 0.0
H1469 H 0.56757 0.10721 0.66295 0.0
H1470 H 0.57667 0.10152 0.6369 0.0
H1471 H 0.58528 0.08937 0.64259 0.0
H1472 H 0.60084 0.04418 0.65293 0.0
H1473 H 0.59886 0.05903 0.65873 0.0
H1474 H 0.61637 0.03754 0.67548 0.0
H1475 H 0.61417 0.05221 0.68129 0.0
H1476 H 0.62482 0.08906 0.70209 0.0
H1477 H 0.60992 0.11286 0.70427 0.0
H1478 H 0.60072 0.10824 0.69215 0.0
H1479 H 0.61553 0.08447 0.68976 0.0
C1480 C 0.68391 0.83138 0.40728 0.0
C1481 C 0.67529 0.83436 0.40819 0.0
C1482 C 0.66984 0.82164 0.40027 0.0
C1483 C 0.66833 0.82954 0.40471 0.0
C1484 C 0.67845 0.81855 0.39963 0.0
C1485 C 0.6854 0.82339 0.40307 0.0
U1486 U 0.69501 0.84787 0.4228 0.0
O1487 O 0.70839 0.84805 0.42807 0.0
O1488 O 0.70382 0.8588 0.41981 0.0
C1489 C 0.71033 0.85549 0.42428 0.0
C1490 C 0.69145 0.83664 0.41029 0.0
C1491 C 0.71913 0.85633 0.42044 0.0
C1492 C 0.72997 0.85341 0.4092 0.0
C1493 C 0.72158 0.85212 0.41268 0.0
C1494 C 0.73347 0.86309 0.42117 0.0
C1495 C 0.73603 0.85891 0.41342 0.0
C1496 C 0.72515 0.86178 0.42464 0.0
C1497 C 0.68123 0.85732 0.44205 0.0
C1498 C 0.67754 0.8714 0.44853 0.0
C1499 C 0.67563 0.85817 0.4569 0.0
C1500 C 0.67885 0.85327 0.44991 0.0
C1501 C 0.67461 0.86726 0.45618 0.0
C1502 C 0.68083 0.86649 0.44153 0.0
C1503 C 0.68284 0.85181 0.43424 0.0
O1504 O 0.69078 0.84514 0.40936 0.0
O1505 O 0.69497 0.83436 0.41777 0.0
O1506 O 0.68818 0.84517 0.43518 0.0
O1507 O 0.68368 0.85577 0.42668 0.0
H1508 H 0.67394 0.84046 0.4115 0.0
H1509 H 0.66176 0.832 0.40549 0.0
H1510 H 0.67982 0.81248 0.39627 0.0
H1511 H 0.69198 0.82095 0.4023 0.0
H1512 H 0.73173 0.85007 0.40322 0.0
H1513 H 0.71703 0.8479 0.40932 0.0
H1514 H 0.73785 0.86753 0.42447 0.0
H1515 H 0.72336 0.86515 0.43059 0.0
H1516 H 0.67672 0.87837 0.44769 0.0
H1517 H 0.67347 0.85477 0.4627 0.0
H1518 H 0.67904 0.84623 0.45049 0.0
H1519 H 0.68259 0.86984 0.43557 0.0
C1520 C 0.9434 0.93446 0.15608 0.0
C1521 C 0.94824 0.92917 0.16181 0.0
C1522 C 0.95379 0.92059 0.14956 0.0
C1523 C 0.95339 0.92234 0.15858 0.0
C1524 C 0.94884 0.92582 0.14388 0.0
C1525 C 0.94376 0.9327 0.1471 0.0
U1526 U 0.92648 0.94474 0.17162 0.0
O1527 O 0.92593 0.95785 0.17747 0.0
O1528 O 0.91546 0.95351 0.16876 0.0
C1529 C 0.91862 0.95991 0.17351 0.0
C1530 C 0.93801 0.94186 0.15924 0.0
C1531 C 0.91796 0.96878 0.16979 0.0
C1532 C 0.92344 0.98077 0.16093 0.0
C1533 C 0.92429 0.97222 0.16413 0.0
C1534 C 0.90995 0.98247 0.16893 0.0
C1535 C 0.91628 0.98602 0.16334 0.0
C1536 C 0.9108 0.97397 0.17213 0.0
C1537 C 0.91665 0.92998 0.18972 0.0
C1538 C 0.90263 0.93089 0.19715 0.0
C1539 C 0.9138 0.92113 0.20255 0.0
C1540 C 0.91939 0.92382 0.19588 0.0
C1541 C 0.90533 0.92455 0.20322 0.0
C1542 C 0.90827 0.93363 0.19047 0.0
C1543 C 0.92245 0.9319 0.18226 0.0
O1544 O 0.92957 0.94114 0.15803 0.0
O1545 O 0.94003 0.94518 0.1669 0.0
O1546 O 0.92892 0.93733 0.18373 0.0
O1547 O 0.91867 0.93312 0.17467 0.0
H1548 H 0.94807 0.93033 0.16878 0.0
H1549 H 0.95711 0.91844 0.16315 0.0
H1550 H 0.94875 0.92452 0.13693 0.0
H1551 H 0.94005 0.93663 0.14256 0.0
H1552 H 0.92836 0.98325 0.15651 0.0
H1553 H 0.92985 0.96831 0.16221 0.0
H1554 H 0.90439 0.98634 0.17094 0.0
H1555 H 0.90586 0.97144 0.1765 0.0
H1556 H 0.89611 0.93359 0.19747 0.0
H1557 H 0.91599 0.91606 0.20696 0.0
H1558 H 0.92579 0.92086 0.19538 0.0
H1559 H 0.90601 0.93839 0.18577 0.0
C1560 C 0.8407 0.19381 0.90651 0.0
C1561 C 0.84926 0.19177 0.90903 0.0
C1562 C 0.85496 0.20356 0.89992 0.0
C1563 C 0.85631 0.19659 0.90577 0.0
C1564 C 0.84635 0.20565 0.89754 0.0
C1565 C 0.83931 0.20081 0.90078 0.0
U1566 U 0.82977 0.17761 0.92235 0.0
O1567 O 0.81644 0.17751 0.92777 0.0
O1568 O 0.82091 0.16663 0.91961 0.0
C1569 C 0.81444 0.17003 0.92408 0.0
C1570 C 0.83316 0.18863 0.90961 0.0
C1571 C 0.80561 0.16918 0.92029 0.0
C1572 C 0.79463 0.17229 0.90923 0.0
C1573 C 0.80305 0.17354 0.91265 0.0
C1574 C 0.7913 0.16233 0.92102 0.0
C1575 C 0.78864 0.16666 0.91339 0.0
C1576 C 0.79966 0.1636 0.92443 0.0
C1577 C 0.84392 0.16837 0.94149 0.0
C1578 C 0.84829 0.15446 0.94791 0.0
C1579 C 0.84922 0.16768 0.95647 0.0
C1580 C 0.8459 0.17247 0.94944 0.0
C1581 C 0.85073 0.15866 0.95571 0.0
C1582 C 0.8449 0.15926 0.94089 0.0
C1583 C 0.84212 0.17382 0.93366 0.0
O1584 O 0.83385 0.18012 0.90882 0.0
O1585 O 0.82974 0.19102 0.91711 0.0
O1586 O 0.83675 0.18044 0.93463 0.0
O1587 O 0.84117 0.16979 0.92615 0.0
H1588 H 0.85049 0.18641 0.91347 0.0
H1589 H 0.86285 0.19481 0.90774 0.0
H1590 H 0.84504 0.21111 0.89325 0.0
H1591 H 0.83276 0.20253 0.8988 0.0
H1592 H 0.79279 0.17574 0.90335 0.0
H1593 H 0.80754 0.17787 0.90934 0.0
H1594 H 0.78699 0.1578 0.92428 0.0
H1595 H 0.80153 0.16012 0.93029 0.0
H1596 H 0.84952 0.14757 0.947 0.0
H1597 H 0.851 0.17112 0.96238 0.0
H1598 H 0.84529 0.17948 0.95009 0.0
H1599 H 0.8435 0.15587 0.93485 0.0
C1600 C 0.86921 0.58248 0.93498 0.0
C1601 C 0.86758 0.5849 0.92629 0.0
C1602 C 0.87637 0.5727 0.92102 0.0
C1603 C 0.87113 0.58006 0.91938 0.0
C1604 C 0.87779 0.57017 0.92973 0.0
C1605 C 0.87427 0.57503 0.93663 0.0
U1606 U 0.85326 0.59898 0.94519 0.0
O1607 O 0.84735 0.59929 0.9583 0.0
O1608 O 0.85577 0.61003 0.95403 0.0
C1609 C 0.8511 0.60671 0.9604 0.0
C1610 C 0.86593 0.58773 0.9424 0.0
C1611 C 0.85477 0.60743 0.96929 0.0
C1612 C 0.86454 0.60277 0.98093 0.0
C1613 C 0.86125 0.60177 0.97242 0.0
C1614 C 0.85492 0.61508 0.98323 0.0
C1615 C 0.86146 0.6095 0.9864 0.0
C1616 C 0.85163 0.61405 0.97477 0.0
C1617 C 0.83503 0.60815 0.93006 0.0
C1618 C 0.82528 0.62042 0.93275 0.0
C1619 C 0.82368 0.61176 0.91963 0.0
C1620 C 0.83063 0.6065 0.92223 0.0
C1621 C 0.82095 0.61883 0.9248 0.0
C1622 C 0.83228 0.6151 0.93537 0.0
C1623 C 0.84264 0.60267 0.93223 0.0
O1624 O 0.8669 0.59622 0.94171 0.0
O1625 O 0.85829 0.58548 0.94556 0.0
O1626 O 0.84131 0.59621 0.9377 0.0
O1627 O 0.85004 0.60678 0.93358 0.0
H1628 H 0.86362 0.59057 0.92486 0.0
H1629 H 0.86973 0.58205 0.91275 0.0
H1630 H 0.88177 0.56453 0.93121 0.0
H1631 H 0.87558 0.57302 0.94328 0.0
H1632 H 0.86957 0.59837 0.98319 0.0
H1633 H 0.86376 0.59661 0.9683 0.0
H1634 H 0.85228 0.6202 0.98732 0.0
H1635 H 0.84659 0.61846 0.97251 0.0
H1636 H 0.82329 0.62578 0.9369 0.0
H1637 H 0.8206 0.61045 0.91341 0.0
H1638 H 0.83269 0.6012 0.91802 0.0
H1639 H 0.83559 0.61647 0.94146 0.0
C1640 C 0.36967 0.9448 0.09125 0.0
C1641 C 0.36455 0.94607 0.09875 0.0
C1642 C 0.37598 0.95505 0.10525 0.0
C1643 C 0.36767 0.95116 0.10568 0.0
C1644 C 0.38107 0.95372 0.09775 0.0
C1645 C 0.37794 0.94867 0.09081 0.0
U1646 U 0.35412 0.92789 0.0813 0.0
O1647 O 0.34847 0.92699 0.06812 0.0
O1648 O 0.35693 0.91651 0.07296 0.0
C1649 C 0.35239 0.91956 0.06637 0.0
C1650 C 0.36663 0.93933 0.08392 0.0
C1651 C 0.35631 0.9186 0.0576 0.0
C1652 C 0.36457 0.92409 0.0452 0.0
C1653 C 0.36122 0.92524 0.05366 0.0
C1654 C 0.3582 0.90966 0.04459 0.0
C1655 C 0.36303 0.91631 0.04054 0.0
C1656 C 0.35486 0.91081 0.05301 0.0
C1657 C 0.33582 0.91872 0.09616 0.0
C1658 C 0.32824 0.90479 0.0952 0.0
C1659 C 0.32339 0.91574 0.10551 0.0
C1660 C 0.32995 0.92137 0.10263 0.0
C1661 C 0.32259 0.90731 0.10198 0.0
C1662 C 0.33482 0.91046 0.0923 0.0
C1663 C 0.34329 0.92443 0.09413 0.0
O1664 O 0.36768 0.93089 0.08493 0.0
O1665 O 0.35902 0.94138 0.08055 0.0
O1666 O 0.34194 0.93069 0.08843 0.0
O1667 O 0.35087 0.92055 0.09317 0.0
H1668 H 0.35818 0.94307 0.09925 0.0
H1669 H 0.36366 0.95192 0.11145 0.0
H1670 H 0.38748 0.95664 0.09722 0.0
H1671 H 0.382 0.94776 0.0851 0.0
H1672 H 0.36828 0.92933 0.04226 0.0
H1673 H 0.36242 0.9313 0.05708 0.0
H1674 H 0.35706 0.90352 0.0413 0.0
H1675 H 0.35111 0.90559 0.05595 0.0
H1676 H 0.32772 0.89837 0.09231 0.0
H1677 H 0.31921 0.91784 0.1108 0.0
H1678 H 0.33063 0.92769 0.10571 0.0
H1679 H 0.33926 0.9083 0.08725 0.0
C1680 C 0.8321 0.62023 0.84191 0.0
C1681 C 0.82645 0.61464 0.84649 0.0
C1682 C 0.82245 0.62644 0.85647 0.0
C1683 C 0.82163 0.61773 0.85362 0.0
C1684 C 0.82803 0.63203 0.8518 0.0
C1685 C 0.83277 0.62896 0.84461 0.0
U1686 U 0.84854 0.60452 0.8314 0.0
O1687 O 0.84902 0.59863 0.81829 0.0
O1688 O 0.85968 0.60711 0.82267 0.0
C1689 C 0.85639 0.6025 0.81624 0.0
C1690 C 0.8373 0.61715 0.83432 0.0
C1691 C 0.8571 0.60629 0.80738 0.0
C1692 C 0.85097 0.61359 0.79465 0.0
C1693 C 0.8501 0.61051 0.80325 0.0
C1694 C 0.86585 0.60839 0.79426 0.0
C1695 C 0.85884 0.61248 0.79002 0.0
C1696 C 0.86498 0.60532 0.80282 0.0
C1697 C 0.85737 0.58652 0.84729 0.0
C1698 C 0.86741 0.57448 0.84459 0.0
C1699 C 0.86206 0.57721 0.85921 0.0
C1700 C 0.85725 0.58429 0.85615 0.0
C1701 C 0.86712 0.57218 0.85347 0.0
C1702 C 0.8625 0.58159 0.84149 0.0
C1703 C 0.85206 0.59403 0.84452 0.0
O1704 O 0.84578 0.61819 0.83495 0.0
O1705 O 0.83511 0.60959 0.83088 0.0
O1706 O 0.8458 0.59254 0.83886 0.0
O1707 O 0.85621 0.60138 0.84312 0.0
H1708 H 0.82572 0.60789 0.84457 0.0
H1709 H 0.8172 0.6133 0.85686 0.0
H1710 H 0.82883 0.63876 0.85379 0.0
H1711 H 0.83704 0.63342 0.84117 0.0
H1712 H 0.84549 0.61689 0.79165 0.0
H1713 H 0.84396 0.61138 0.80663 0.0
H1714 H 0.87198 0.60741 0.7909 0.0
H1715 H 0.87046 0.60206 0.80587 0.0
H1716 H 0.87132 0.57072 0.84006 0.0
H1717 H 0.86188 0.57569 0.86611 0.0
H1718 H 0.85341 0.58805 0.86074 0.0
H1719 H 0.86269 0.58325 0.83462 0.0
C1720 C 0.15551 0.08276 0.59171 0.0
C1721 C 0.16114 0.07708 0.59621 0.0
C1722 C 0.14941 0.07286 0.60617 0.0
C1723 C 0.15811 0.07214 0.60329 0.0
C1724 C 0.14378 0.07847 0.60159 0.0
C1725 C 0.14679 0.08334 0.59445 0.0
U1726 U 0.1709 0.09943 0.58097 0.0
O1727 O 0.17669 0.09984 0.56781 0.0
O1728 O 0.16808 0.11041 0.57212 0.0
C1729 C 0.17277 0.10717 0.56572 0.0
C1730 C 0.15849 0.088 0.5841 0.0
C1731 C 0.16899 0.10777 0.55686 0.0
C1732 C 0.15953 0.10257 0.54521 0.0
C1733 C 0.16283 0.10177 0.55373 0.0
C1734 C 0.16843 0.11539 0.54291 0.0
C1735 C 0.16232 0.10938 0.53969 0.0
C1736 C 0.17174 0.11457 0.55138 0.0
C1737 C 0.18897 0.10884 0.59631 0.0
C1738 C 0.19998 0.11988 0.59319 0.0
C1739 C 0.19903 0.11348 0.60761 0.0
C1740 C 0.19205 0.10833 0.60488 0.0
C1741 C 0.20308 0.11931 0.60181 0.0
C1742 C 0.19297 0.11464 0.59043 0.0
C1743 C 0.18149 0.10331 0.5939 0.0
O1744 O 0.15732 0.09647 0.58469 0.0
O1745 O 0.16606 0.08591 0.58063 0.0
O1746 O 0.18297 0.09694 0.58836 0.0
O1747 O 0.17405 0.10732 0.59254 0.0
H1748 H 0.16789 0.0764 0.59425 0.0
H1749 H 0.16258 0.06769 0.60646 0.0
H1750 H 0.13705 0.0792 0.60361 0.0
H1751 H 0.14228 0.08761 0.59108 0.0
H1752 H 0.15473 0.0979 0.54297 0.0
H1753 H 0.16059 0.09649 0.55786 0.0
H1754 H 0.17074 0.12067 0.53882 0.0
H1755 H 0.17651 0.11926 0.55366 0.0
H1756 H 0.20299 0.12432 0.5886 0.0
H1757 H 0.20119 0.113 0.61432 0.0
H1758 H 0.18902 0.10395 0.60953 0.0
H1759 H 0.19065 0.11513 0.58377 0.0
C1760 C 0.19297 0.90668 0.84128 0.0
C1761 C 0.19238 0.9108 0.84944 0.0
C1762 C 0.20344 0.90098 0.85539 0.0
C1763 C 0.19754 0.90796 0.85644 0.0
C1764 C 0.20392 0.89685 0.84721 0.0
C1765 C 0.19875 0.89967 0.84024 0.0
U1766 U 0.17623 0.92207 0.83089 0.0
O1767 O 0.17573 0.92776 0.81768 0.0
O1768 O 0.16513 0.91931 0.82221 0.0
C1769 C 0.16834 0.9239 0.81572 0.0
C1770 C 0.1876 0.90954 0.83381 0.0
C1771 C 0.16763 0.92 0.80693 0.0
C1772 C 0.17189 0.90947 0.79583 0.0
C1773 C 0.17294 0.91307 0.8042 0.0
C1774 C 0.16027 0.91973 0.79285 0.0
C1775 C 0.16545 0.91269 0.79008 0.0
C1776 C 0.16136 0.92333 0.80117 0.0
C1777 C 0.16706 0.9406 0.84559 0.0
C1778 C 0.15324 0.94841 0.84489 0.0
C1779 C 0.16468 0.95348 0.85452 0.0
C1780 C 0.17006 0.94668 0.85171 0.0
C1781 C 0.15617 0.95438 0.85123 0.0
C1782 C 0.15866 0.94159 0.84206 0.0
C1783 C 0.17261 0.93298 0.84362 0.0
O1784 O 0.17914 0.90853 0.8347 0.0
O1785 O 0.1897 0.91711 0.83037 0.0
O1786 O 0.17903 0.93422 0.83809 0.0
O1787 O 0.16861 0.92548 0.84253 0.0
H1788 H 0.18791 0.91619 0.85039 0.0
H1789 H 0.19682 0.91115 0.8627 0.0
H1790 H 0.2084 0.89148 0.84617 0.0
H1791 H 0.19928 0.89639 0.834 0.0
H1792 H 0.17615 0.90421 0.79384 0.0
H1793 H 0.17787 0.91044 0.80852 0.0
H1794 H 0.15526 0.92237 0.78863 0.0
H1795 H 0.15721 0.9287 0.80315 0.0
H1796 H 0.1467 0.9489 0.84229 0.0
H1797 H 0.16706 0.95777 0.8596 0.0
H1798 H 0.17648 0.94599 0.85458 0.0
H1799 H 0.1562 0.93695 0.83733 0.0
C1800 C 0.65559 0.44392 0.4351 0.0
C1801 C 0.65705 0.44147 0.42639 0.0
C1802 C 0.64808 0.45362 0.42127 0.0
C1803 C 0.65332 0.44627 0.41954 0.0
C1804 C 0.64685 0.45618 0.43 0.0
C1805 C 0.65054 0.45136 0.43683 0.0
U1806 U 0.67163 0.42737 0.44518 0.0
O1807 O 0.67753 0.42699 0.4583 0.0
O1808 O 0.6691 0.41628 0.45396 0.0
C1809 C 0.67377 0.41956 0.46035 0.0
C1810 C 0.65896 0.43865 0.44247 0.0
C1811 C 0.6701 0.41876 0.46924 0.0
C1812 C 0.66021 0.42319 0.48086 0.0
C1813 C 0.66353 0.42431 0.47238 0.0
C1814 C 0.67 0.41102 0.48312 0.0
C1815 C 0.66336 0.41647 0.4863 0.0
C1816 C 0.67332 0.41216 0.47469 0.0
C1817 C 0.68979 0.41805 0.43007 0.0
C1818 C 0.69857 0.40493 0.43201 0.0
C1819 C 0.70155 0.41471 0.41997 0.0
C1820 C 0.69477 0.42015 0.4227 0.0
C1821 C 0.70346 0.407 0.42454 0.0
C1822 C 0.69181 0.41046 0.43481 0.0
C1823 C 0.68224 0.42363 0.43221 0.0
O1824 O 0.65799 0.43016 0.44177 0.0
O1825 O 0.66664 0.44089 0.44556 0.0
O1826 O 0.68362 0.43007 0.43769 0.0
O1827 O 0.67479 0.41962 0.43353 0.0
H1828 H 0.66099 0.43581 0.42488 0.0
H1829 H 0.65457 0.44426 0.41288 0.0
H1830 H 0.64288 0.46181 0.43154 0.0
H1831 H 0.64935 0.45337 0.4435 0.0
H1832 H 0.65509 0.4275 0.48313 0.0
H1833 H 0.66095 0.42945 0.46827 0.0
H1834 H 0.6727 0.40592 0.48719 0.0
H1835 H 0.67843 0.40784 0.47242 0.0
H1836 H 0.69988 0.39897 0.43558 0.0
H1837 H 0.70508 0.41635 0.41408 0.0
H1838 H 0.69326 0.42591 0.41889 0.0
H1839 H 0.68804 0.40871 0.44053 0.0
C1840 C 0.83117 0.4063 0.68452 0.0
C1841 C 0.82622 0.41208 0.6794 0.0
C1842 C 0.82123 0.40003 0.67021 0.0
C1843 C 0.82125 0.40896 0.67238 0.0
C1844 C 0.82612 0.39427 0.67541 0.0
C1845 C 0.83102 0.39737 0.68248 0.0
U1846 U 0.84775 0.42194 0.69503 0.0
O1847 O 0.84804 0.4279 0.70815 0.0
O1848 O 0.85868 0.41931 0.70395 0.0
C1849 C 0.85537 0.42402 0.7103 0.0
C1850 C 0.83644 0.40938 0.69205 0.0
C1851 C 0.85596 0.42034 0.7192 0.0
C1852 C 0.85468 0.40834 0.72954 0.0
C1853 C 0.85338 0.41177 0.72113 0.0
C1854 C 0.86102 0.42203 0.73418 0.0
C1855 C 0.85857 0.41342 0.73616 0.0
C1856 C 0.85969 0.42545 0.72581 0.0
C1857 C 0.85705 0.44019 0.67994 0.0
C1858 C 0.87024 0.44891 0.6815 0.0
C1859 C 0.86 0.45213 0.66993 0.0
C1860 C 0.85463 0.44535 0.6728 0.0
C1861 C 0.86794 0.45392 0.67414 0.0
C1862 C 0.86484 0.44209 0.68438 0.0
C1863 C 0.85156 0.4326 0.68212 0.0
O1864 O 0.84491 0.40831 0.69137 0.0
O1865 O 0.8343 0.41697 0.69545 0.0
O1866 O 0.84507 0.43395 0.68756 0.0
O1867 O 0.85562 0.42517 0.68349 0.0
H1868 H 0.82616 0.419 0.68081 0.0
H1869 H 0.81737 0.41357 0.66869 0.0
H1870 H 0.82628 0.38737 0.67393 0.0
H1871 H 0.83475 0.39278 0.68635 0.0
H1872 H 0.85268 0.4017 0.73086 0.0
H1873 H 0.8505 0.4077 0.71613 0.0
H1874 H 0.86419 0.42607 0.73902 0.0
H1875 H 0.86179 0.43205 0.72444 0.0
H1876 H 0.87627 0.45019 0.68495 0.0
H1877 H 0.85807 0.45575 0.66418 0.0
H1878 H 0.84868 0.44397 0.66925 0.0
H1879 H 0.86682 0.43819 0.68993 0.0
C1880 C 0.6939 0.62058 0.18575 0.0
C1881 C 0.6922 0.61828 0.17705 0.0
C1882 C 0.70412 0.62761 0.17205 0.0
C1883 C 0.69726 0.62177 0.17027 0.0
C1884 C 0.70586 0.6298 0.18079 0.0
C1885 C 0.70079 0.62632 0.18756 0.0
U1886 U 0.67705 0.60468 0.1956 0.0
O1887 O 0.67637 0.59896 0.20876 0.0
O1888 O 0.66581 0.60743 0.20412 0.0
C1889 C 0.66895 0.60282 0.21063 0.0
C1890 C 0.68845 0.61727 0.19299 0.0
C1891 C 0.66805 0.60663 0.21943 0.0
C1892 C 0.67349 0.615 0.23179 0.0
C1893 C 0.67459 0.61174 0.22329 0.0
C1894 C 0.65932 0.60811 0.23261 0.0
C1895 C 0.6658 0.61325 0.23653 0.0
C1896 C 0.66043 0.60487 0.22416 0.0
C1897 C 0.66745 0.58629 0.18099 0.0
C1898 C 0.65318 0.58052 0.1769 0.0
C1899 C 0.66608 0.57166 0.17497 0.0
C1900 C 0.67121 0.57832 0.17849 0.0
C1901 C 0.65708 0.57286 0.17374 0.0
C1902 C 0.65832 0.58719 0.18048 0.0
C1903 C 0.67323 0.59382 0.18289 0.0
O1904 O 0.67999 0.61827 0.19205 0.0
O1905 O 0.69057 0.60959 0.19616 0.0
O1906 O 0.67969 0.5925 0.18837 0.0
O1907 O 0.6695 0.60149 0.18385 0.0
H1908 H 0.68692 0.61385 0.17549 0.0
H1909 H 0.69574 0.61995 0.16361 0.0
H1910 H 0.71121 0.6341 0.18241 0.0
H1911 H 0.70223 0.62814 0.19423 0.0
H1912 H 0.6786 0.61895 0.23463 0.0
H1913 H 0.68054 0.61317 0.21976 0.0
H1914 H 0.65342 0.60647 0.23614 0.0
H1915 H 0.65533 0.60088 0.22133 0.0
H1916 H 0.64626 0.58161 0.17603 0.0
H1917 H 0.66924 0.56576 0.1727 0.0
H1918 H 0.67821 0.57742 0.1788 0.0
H1919 H 0.65518 0.59322 0.1824 0.0
C1920 C 0.59113 0.6551 0.94372 0.0
C1921 C 0.59977 0.6572 0.94155 0.0
C1922 C 0.60514 0.64826 0.9536 0.0
C1923 C 0.60671 0.65381 0.94644 0.0
C1924 C 0.59647 0.64636 0.95587 0.0
C1925 C 0.58954 0.64973 0.95096 0.0
U1926 U 0.58103 0.67072 0.92691 0.0
O1927 O 0.57213 0.66814 0.91594 0.0
O1928 O 0.568 0.67677 0.9266 0.0
C1929 C 0.56581 0.67286 0.91928 0.0
C1930 C 0.58371 0.6583 0.93846 0.0
C1931 C 0.5569 0.66924 0.91854 0.0
C1932 C 0.54321 0.66396 0.92471 0.0
C1933 C 0.5518 0.66698 0.92583 0.0
C1934 C 0.54476 0.66544 0.90907 0.0
C1935 C 0.5396 0.66313 0.91629 0.0
C1936 C 0.55327 0.66847 0.91019 0.0
C1937 C 0.59585 0.68846 0.91675 0.0
C1938 C 0.59375 0.69644 0.90315 0.0
C1939 C 0.60512 0.7008 0.9132 0.0
C1940 C 0.60273 0.69409 0.91887 0.0
C1941 C 0.60072 0.702 0.90526 0.0
C1942 C 0.59127 0.68975 0.90891 0.0
C1943 C 0.594 0.68108 0.92264 0.0
O1944 O 0.5807 0.66606 0.94052 0.0
O1945 O 0.58434 0.6571 0.92998 0.0
O1946 O 0.59259 0.6735 0.91891 0.0
O1947 O 0.58871 0.68266 0.9292 0.0
H1948 H 0.60115 0.6614 0.93603 0.0
H1949 H 0.6133 0.65556 0.94465 0.0
H1950 H 0.59505 0.64212 0.96134 0.0
H1951 H 0.58292 0.64806 0.95277 0.0
H1952 H 0.5394 0.66234 0.93043 0.0
H1953 H 0.55441 0.66758 0.93237 0.0
H1954 H 0.54226 0.66478 0.90249 0.0
H1955 H 0.55704 0.67023 0.90448 0.0
H1956 H 0.59032 0.69719 0.89702 0.0
H1957 H 0.61065 0.70487 0.91487 0.0
H1958 H 0.6064 0.69316 0.92484 0.0
H1959 H 0.58594 0.68547 0.90715 0.0
C1960 C 0.62007 0.34162 0.19395 0.0
C1961 C 0.61751 0.35023 0.19215 0.0
C1962 C 0.62599 0.35556 0.20456 0.0
C1963 C 0.62047 0.35713 0.19738 0.0
C1964 C 0.62855 0.34692 0.2063 0.0
C1965 C 0.6256 0.34003 0.20106 0.0
U1966 U 0.60503 0.33194 0.17647 0.0
O1967 O 0.6077 0.32301 0.16556 0.0
O1968 O 0.59849 0.31913 0.17581 0.0
C1969 C 0.60246 0.31692 0.16854 0.0
C1970 C 0.61708 0.33424 0.18848 0.0
C1971 C 0.60552 0.30783 0.16771 0.0
C1972 C 0.61615 0.29631 0.17019 0.0
C1973 C 0.6131 0.30479 0.17184 0.0
C1974 C 0.60399 0.29378 0.16044 0.0
C1975 C 0.61172 0.29079 0.16432 0.0
C1976 C 0.60092 0.30221 0.16214 0.0
C1977 C 0.58791 0.3475 0.16626 0.0
C1978 C 0.57733 0.34394 0.15494 0.0
C1979 C 0.57739 0.3583 0.16153 0.0
C1980 C 0.5844 0.35591 0.16678 0.0
C1981 C 0.57373 0.35235 0.1556 0.0
C1982 C 0.58438 0.34151 0.16028 0.0
C1983 C 0.59517 0.34528 0.17214 0.0
O1984 O 0.60923 0.33128 0.19021 0.0
O1985 O 0.6186 0.33493 0.18007 0.0
O1986 O 0.60271 0.34362 0.16844 0.0
O1987 O 0.59333 0.33997 0.17861 0.0
H1988 H 0.61327 0.35161 0.18667 0.0
H1989 H 0.61852 0.36372 0.19573 0.0
H1990 H 0.63277 0.34549 0.21178 0.0
H1991 H 0.62765 0.33344 0.20257 0.0
H1992 H 0.62212 0.29415 0.17328 0.0
H1993 H 0.61675 0.30903 0.17615 0.0
H1994 H 0.60038 0.28964 0.15601 0.0
H1995 H 0.59504 0.30442 0.15892 0.0
H1996 H 0.57463 0.33925 0.1504 0.0
H1997 H 0.57483 0.36487 0.16207 0.0
H1998 H 0.58707 0.36064 0.17131 0.0
H1999 H 0.58703 0.33498 0.15979 0.0
C2000 C 0.93367 0.37009 0.44533 0.0
C2001 C 0.92503 0.37001 0.44228 0.0
C2002 C 0.92 0.3768 0.45579 0.0
C2003 C 0.91828 0.37338 0.44744 0.0
C2004 C 0.92861 0.37671 0.45889 0.0
C2005 C 0.93538 0.3734 0.4537 0.0
U2006 U 0.9434 0.35519 0.42759 0.0
O2007 O 0.95264 0.35806 0.417 0.0
O2008 O 0.95614 0.34849 0.42707 0.0
C2009 C 0.95862 0.3527 0.42002 0.0
C2010 C 0.941 0.36698 0.43985 0.0
C2011 C 0.96778 0.35568 0.41962 0.0
C2012 C 0.97882 0.36709 0.42001 0.0
C2013 C 0.97023 0.36429 0.42155 0.0
C2014 C 0.98265 0.35265 0.41492 0.0
C2015 C 0.98507 0.36136 0.41646 0.0
C2016 C 0.9741 0.34987 0.41646 0.0
C2017 C 0.92811 0.33823 0.41671 0.0
C2018 C 0.92937 0.33088 0.40266 0.0
C2019 C 0.91923 0.32551 0.41351 0.0
C2020 C 0.92181 0.33211 0.41922 0.0
C2021 C 0.92288 0.32487 0.40511 0.0
C2022 C 0.93198 0.33751 0.40842 0.0
C2023 C 0.93015 0.34543 0.42278 0.0
O2024 O 0.94381 0.35905 0.44146 0.0
O2025 O 0.94049 0.36871 0.43146 0.0
O2026 O 0.93188 0.35308 0.4193 0.0
O2027 O 0.93526 0.34348 0.42938 0.0
H2028 H 0.92352 0.36743 0.43587 0.0
H2029 H 0.91169 0.37333 0.4449 0.0
H2030 H 0.93015 0.37938 0.46525 0.0
H2031 H 0.94198 0.37353 0.45619 0.0
H2032 H 0.98047 0.37385 0.42126 0.0
H2033 H 0.96547 0.3689 0.42398 0.0
H2034 H 0.98733 0.34803 0.41235 0.0
H2035 H 0.97235 0.34319 0.41493 0.0
H2036 H 0.93237 0.3305 0.39627 0.0
H2037 H 0.91414 0.32107 0.41556 0.0
H2038 H 0.91873 0.33256 0.42557 0.0
H2039 H 0.9369 0.34214 0.40636 0.0
C2040 C 0.90392 0.68383 0.6939 0.0
C2041 C 0.90502 0.67511 0.69129 0.0
C2042 C 0.89687 0.67008 0.70404 0.0
C2043 C 0.90153 0.66831 0.69631 0.0
C2044 C 0.89597 0.6788 0.70672 0.0
C2045 C 0.89944 0.6856 0.70168 0.0
U2046 U 0.91966 0.69371 0.67698 0.0
O2047 O 0.91719 0.7027 0.66604 0.0
O2048 O 0.92586 0.70669 0.67672 0.0
C2049 C 0.922 0.70895 0.6694 0.0
C2050 C 0.90723 0.69116 0.68855 0.0
C2051 C 0.91854 0.71794 0.66865 0.0
C2052 C 0.9135 0.73176 0.67477 0.0
C2053 C 0.91632 0.72309 0.67592 0.0
C2054 C 0.91512 0.73019 0.65915 0.0
C2055 C 0.91286 0.73541 0.66634 0.0
C2056 C 0.91793 0.7216 0.66029 0.0
C2057 C 0.93729 0.67847 0.66699 0.0
C2058 C 0.9456 0.68014 0.65353 0.0
C2059 C 0.9495 0.66887 0.66388 0.0
C2060 C 0.94276 0.67155 0.66937 0.0
C2061 C 0.95097 0.67305 0.65584 0.0
C2062 C 0.93881 0.68283 0.65906 0.0
C2063 C 0.92987 0.68059 0.67275 0.0
O2064 O 0.91501 0.69411 0.6906 0.0
O2065 O 0.90602 0.69053 0.68008 0.0
O2066 O 0.92237 0.68215 0.66893 0.0
O2067 O 0.93149 0.68586 0.67932 0.0
H2068 H 0.90854 0.67357 0.68536 0.0
H2069 H 0.90253 0.66165 0.69418 0.0
H2070 H 0.89244 0.68038 0.71263 0.0
H2071 H 0.89855 0.69227 0.70383 0.0
H2072 H 0.91189 0.73561 0.68047 0.0
H2073 H 0.91679 0.72046 0.68245 0.0
H2074 H 0.91459 0.73271 0.65256 0.0
H2075 H 0.91966 0.71779 0.65459 0.0
H2076 H 0.94661 0.68355 0.64743 0.0
H2077 H 0.95341 0.66332 0.66582 0.0
H2078 H 0.94168 0.66807 0.67543 0.0
H2079 H 0.93467 0.68821 0.6571 0.0
C2080 C 0.59191 0.36992 0.58202 0.0
C2081 C 0.60056 0.36808 0.58441 0.0
C2082 C 0.60597 0.37682 0.57221 0.0
C2083 C 0.60751 0.37149 0.57954 0.0
C2084 C 0.5973 0.37846 0.56974 0.0
C2085 C 0.59035 0.37506 0.57461 0.0
U2086 U 0.58146 0.35492 0.59935 0.0
O2087 O 0.57199 0.35788 0.60966 0.0
O2088 O 0.5685 0.34859 0.59933 0.0
C2089 C 0.56592 0.35283 0.60633 0.0
C2090 C 0.58444 0.36673 0.58723 0.0
C2091 C 0.55691 0.35626 0.60642 0.0
C2092 C 0.54678 0.36838 0.60796 0.0
C2093 C 0.55518 0.36526 0.60618 0.0
C2094 C 0.54158 0.35357 0.60966 0.0
C2095 C 0.53997 0.36256 0.60996 0.0
C2096 C 0.54999 0.35045 0.60794 0.0
C2097 C 0.59556 0.33792 0.61144 0.0
C2098 C 0.59504 0.33232 0.62634 0.0
C2099 C 0.60245 0.3241 0.61506 0.0
C2100 C 0.60027 0.33049 0.60894 0.0
C2101 C 0.59997 0.32499 0.62386 0.0
C2102 C 0.5928 0.33871 0.62017 0.0
C2103 C 0.59421 0.34495 0.60497 0.0
O2104 O 0.58174 0.35878 0.58548 0.0
O2105 O 0.5847 0.3684 0.59564 0.0
O2106 O 0.59265 0.3528 0.60805 0.0
O2107 O 0.58941 0.34298 0.59814 0.0
H2108 H 0.60192 0.36407 0.59006 0.0
H2109 H 0.61411 0.36993 0.5815 0.0
H2110 H 0.59588 0.38252 0.56413 0.0
H2111 H 0.58373 0.37653 0.57264 0.0
H2112 H 0.54567 0.37535 0.60813 0.0
H2113 H 0.56038 0.36988 0.60501 0.0
H2114 H 0.53644 0.34898 0.61123 0.0
H2115 H 0.55119 0.34349 0.60822 0.0
H2116 H 0.59311 0.3332 0.63308 0.0
H2117 H 0.60646 0.31867 0.61299 0.0
H2118 H 0.60253 0.32977 0.60228 0.0
H2119 H 0.58914 0.34436 0.62229 0.0
C2120 C 0.90459 0.34245 0.83245 0.0
C2121 C 0.91004 0.34654 0.8263 0.0
C2122 C 0.8984 0.35664 0.82225 0.0
C2123 C 0.90696 0.35349 0.82122 0.0
C2124 C 0.89295 0.35251 0.82836 0.0
C2125 C 0.896 0.34549 0.83338 0.0
U2126 U 0.9198 0.3319 0.84943 0.0
O2127 O 0.91724 0.3224 0.85986 0.0
O2128 O 0.9264 0.3191 0.84937 0.0
C2129 C 0.92239 0.31644 0.85646 0.0
C2130 C 0.90763 0.33486 0.8377 0.0
C2131 C 0.91921 0.30733 0.85657 0.0
C2132 C 0.90752 0.2966 0.85616 0.0
C2133 C 0.91046 0.30519 0.85496 0.0
C2134 C 0.92207 0.29214 0.86031 0.0
C2135 C 0.91327 0.28999 0.85897 0.0
C2136 C 0.925 0.3007 0.8591 0.0
C2137 C 0.93721 0.34709 0.85986 0.0
C2138 C 0.94597 0.3448 0.87293 0.0
C2139 C 0.94914 0.3569 0.86327 0.0
C2140 C 0.94232 0.35437 0.85781 0.0
C2141 C 0.95102 0.35221 0.87093 0.0
C2142 C 0.9391 0.34225 0.86741 0.0
C2143 C 0.9298 0.34502 0.85409 0.0
O2144 O 0.91535 0.33167 0.83578 0.0
O2145 O 0.90618 0.33522 0.84615 0.0
O2146 O 0.92234 0.34319 0.85791 0.0
O2147 O 0.93149 0.33999 0.84736 0.0
H2148 H 0.91668 0.34434 0.82533 0.0
H2149 H 0.91128 0.35631 0.8164 0.0
H2150 H 0.88633 0.35476 0.82934 0.0
H2151 H 0.89162 0.34243 0.838 0.0
H2152 H 0.90066 0.29523 0.85524 0.0
H2153 H 0.90586 0.3102 0.85306 0.0
H2154 H 0.92666 0.28722 0.86246 0.0
H2155 H 0.93178 0.30221 0.86041 0.0
H2156 H 0.9473 0.34102 0.87874 0.0
H2157 H 0.9528 0.36271 0.86161 0.0
H2158 H 0.94093 0.35821 0.85204 0.0
H2159 H 0.93523 0.33659 0.8691 0.0
C2160 C 0.9333 0.65488 0.08258 0.0
C2161 C 0.92464 0.65734 0.08425 0.0
C2162 C 0.91952 0.6481 0.07228 0.0
C2163 C 0.91782 0.65396 0.07917 0.0
C2164 C 0.92821 0.64568 0.07064 0.0
C2165 C 0.93501 0.64905 0.07573 0.0
U2166 U 0.94322 0.67055 0.0996 0.0
O2167 O 0.95271 0.66808 0.11005 0.0
O2168 O 0.956 0.67719 0.09952 0.0
C2169 C 0.95868 0.67317 0.1066 0.0
C2170 C 0.94062 0.65823 0.08788 0.0
C2171 C 0.96775 0.66989 0.10665 0.0
C2172 C 0.97831 0.65803 0.1064 0.0
C2173 C 0.96975 0.66106 0.10524 0.0
C2174 C 0.98302 0.67263 0.11008 0.0
C2175 C 0.98504 0.66375 0.10896 0.0
C2176 C 0.97449 0.67565 0.10892 0.0
C2177 C 0.92781 0.68791 0.10994 0.0
C2178 C 0.93087 0.69803 0.12184 0.0
C2179 C 0.91728 0.69905 0.11388 0.0
C2180 C 0.91976 0.69202 0.10867 0.0
C2181 C 0.92278 0.70216 0.12052 0.0
C2182 C 0.93339 0.69095 0.11656 0.0
C2183 C 0.93002 0.68048 0.10424 0.0
O2184 O 0.94338 0.66611 0.08591 0.0
O2185 O 0.94012 0.6569 0.09634 0.0
O2186 O 0.93192 0.67306 0.1081 0.0
O2187 O 0.93506 0.68219 0.09752 0.0
H2188 H 0.92316 0.66185 0.08949 0.0
H2189 H 0.9112 0.65598 0.08059 0.0
H2190 H 0.92974 0.64106 0.06553 0.0
H2191 H 0.94164 0.64704 0.07434 0.0
H2192 H 0.97958 0.65112 0.10565 0.0
H2193 H 0.96467 0.65647 0.10353 0.0
H2194 H 0.98803 0.67721 0.11204 0.0
H2195 H 0.97309 0.68249 0.11007 0.0
H2196 H 0.93524 0.70029 0.1269 0.0
H2197 H 0.91095 0.70199 0.11279 0.0
H2198 H 0.91535 0.68975 0.10364 0.0
H2199 H 0.93964 0.68785 0.11763 0.0
C2200 C 0.6201 0.68393 0.33206 0.0
C2201 C 0.61772 0.67532 0.33412 0.0
C2202 C 0.62687 0.66977 0.3223 0.0
C2203 C 0.62107 0.66832 0.32928 0.0
C2204 C 0.62907 0.67841 0.32015 0.0
C2205 C 0.62573 0.68541 0.325 0.0
U2206 U 0.60472 0.69408 0.34905 0.0
O2207 O 0.60736 0.7033 0.35974 0.0
O2208 O 0.59838 0.70699 0.34922 0.0
C2209 C 0.6023 0.70939 0.35646 0.0
C2210 C 0.6169 0.6914 0.33724 0.0
C2211 C 0.60552 0.71846 0.35703 0.0
C2212 C 0.61337 0.73111 0.35144 0.0
C2213 C 0.61038 0.72249 0.35038 0.0
C2214 C 0.60662 0.73171 0.36569 0.0
C2215 C 0.61152 0.73583 0.35913 0.0
C2216 C 0.60364 0.72317 0.36463 0.0
C2217 C 0.58758 0.67894 0.35987 0.0
C2218 C 0.57938 0.68147 0.37327 0.0
C2219 C 0.57603 0.669 0.36416 0.0
C2220 C 0.58255 0.67147 0.35832 0.0
C2221 C 0.57444 0.67392 0.37171 0.0
C2222 C 0.58589 0.68401 0.36734 0.0
C2223 C 0.59478 0.68094 0.3538 0.0
O2224 O 0.60904 0.69422 0.33532 0.0
O2225 O 0.61832 0.69098 0.34569 0.0
O2226 O 0.60238 0.68263 0.35736 0.0
O2227 O 0.59292 0.68607 0.3472 0.0
H2228 H 0.61333 0.67403 0.33949 0.0
H2229 H 0.6191 0.66175 0.33098 0.0
H2230 H 0.6335 0.67975 0.31482 0.0
H2231 H 0.62762 0.692 0.32328 0.0
H2232 H 0.6172 0.73405 0.34628 0.0
H2233 H 0.61192 0.71896 0.34446 0.0
H2234 H 0.60533 0.73496 0.37183 0.0
H2235 H 0.59994 0.72017 0.36986 0.0
H2236 H 0.57829 0.68531 0.3791 0.0
H2237 H 0.57238 0.66308 0.36292 0.0
H2238 H 0.5838 0.66744 0.35265 0.0
H2239 H 0.58971 0.68981 0.36865 0.0
C2240 C 0.94339 0.59174 0.65531 0.0
C2241 C 0.9403 0.60036 0.65551 0.0
C2242 C 0.95352 0.60549 0.64821 0.0
C2243 C 0.94531 0.60717 0.652 0.0
C2244 C 0.95668 0.59689 0.64825 0.0
C2245 C 0.95165 0.59008 0.65173 0.0
U2246 U 0.92607 0.58186 0.67062 0.0
O2247 O 0.91553 0.57253 0.66796 0.0
O2248 O 0.92581 0.56908 0.67729 0.0
C2249 C 0.91876 0.56652 0.67315 0.0
C2250 C 0.93806 0.58436 0.65858 0.0
C2251 C 0.91854 0.55741 0.66994 0.0
C2252 C 0.91834 0.54677 0.65814 0.0
C2253 C 0.91979 0.55531 0.66111 0.0
C2254 C 0.91477 0.54224 0.67283 0.0
C2255 C 0.91558 0.54017 0.66393 0.0
C2256 C 0.91621 0.55076 0.67579 0.0
C2257 C 0.91554 0.59772 0.68752 0.0
C2258 C 0.90535 0.59437 0.69927 0.0
C2259 C 0.91019 0.60923 0.69697 0.0
C2260 C 0.91524 0.60652 0.68992 0.0
C2261 C 0.90526 0.6032 0.70179 0.0
C2262 C 0.91051 0.59163 0.69219 0.0
C2263 C 0.92138 0.59523 0.6803 0.0
O2264 O 0.93986 0.58161 0.6665 0.0
O2265 O 0.92965 0.58476 0.65701 0.0
O2266 O 0.9177 0.59334 0.6728 0.0
O2267 O 0.92791 0.59004 0.68227 0.0
H2268 H 0.93399 0.60184 0.65832 0.0
H2269 H 0.94278 0.61376 0.65228 0.0
H2270 H 0.96297 0.59538 0.64542 0.0
H2271 H 0.95419 0.58349 0.65154 0.0
H2272 H 0.91902 0.5454 0.65124 0.0
H2273 H 0.92159 0.56032 0.65646 0.0
H2274 H 0.91284 0.53729 0.67749 0.0
H2275 H 0.91522 0.55222 0.68263 0.0
H2276 H 0.9016 0.5896 0.70289 0.0
H2277 H 0.91014 0.61609 0.69869 0.0
H2278 H 0.91904 0.61132 0.68638 0.0
H2279 H 0.91065 0.58479 0.69042 0.0
C2280 C 0.68336 0.69392 0.90607 0.0
C2281 C 0.67475 0.69188 0.90842 0.0
C2282 C 0.66927 0.70372 0.89926 0.0
C2283 C 0.66778 0.69674 0.90505 0.0
C2284 C 0.67792 0.70587 0.89711 0.0
C2285 C 0.68488 0.70099 0.90046 0.0
U2286 U 0.69336 0.67687 0.92149 0.0
O2287 O 0.70257 0.6662 0.91901 0.0
O2288 O 0.70627 0.67676 0.92795 0.0
C2289 C 0.70874 0.66961 0.92389 0.0
C2290 C 0.6908 0.68869 0.90929 0.0
C2291 C 0.71769 0.66939 0.92027 0.0
C2292 C 0.72754 0.66744 0.90797 0.0
C2293 C 0.71921 0.66931 0.91123 0.0
C2294 C 0.73313 0.66634 0.9227 0.0
C2295 C 0.73452 0.66572 0.91367 0.0
C2296 C 0.72477 0.66813 0.92596 0.0
C2297 C 0.67764 0.66646 0.93855 0.0
C2298 C 0.68063 0.6547 0.94885 0.0
C2299 C 0.66666 0.66206 0.94905 0.0
C2300 C 0.6693 0.66735 0.94214 0.0
C2301 C 0.6723 0.65575 0.95255 0.0
C2302 C 0.68332 0.66008 0.94191 0.0
C2303 C 0.68005 0.67228 0.93129 0.0
O2304 O 0.69358 0.69059 0.91717 0.0
O2305 O 0.69036 0.68025 0.90786 0.0
O2306 O 0.68191 0.66853 0.9238 0.0
O2307 O 0.68524 0.67882 0.93319 0.0
H2308 H 0.67343 0.6865 0.91281 0.0
H2309 H 0.6612 0.69504 0.90698 0.0
H2310 H 0.67927 0.7112 0.89268 0.0
H2311 H 0.69148 0.70269 0.89859 0.0
H2312 H 0.72846 0.66699 0.90098 0.0
H2313 H 0.7139 0.67027 0.90668 0.0
H2314 H 0.73837 0.66495 0.92722 0.0
H2315 H 0.72375 0.66811 0.93296 0.0
H2316 H 0.68505 0.64982 0.95139 0.0
H2317 H 0.66013 0.66286 0.95163 0.0
H2318 H 0.6648 0.67216 0.93958 0.0
H2319 H 0.68978 0.65927 0.93918 0.0
C2320 C 0.58164 0.43342 0.1548 0.0
C2321 C 0.58325 0.42489 0.15773 0.0
C2322 C 0.57121 0.41937 0.14884 0.0
C2323 C 0.5781 0.41793 0.15475 0.0
C2324 C 0.56972 0.42791 0.14585 0.0
C2325 C 0.57487 0.43485 0.14882 0.0
U2326 U 0.59879 0.44382 0.16994 0.0
O2327 O 0.60903 0.45347 0.16719 0.0
O2328 O 0.59866 0.45665 0.17654 0.0
C2329 C 0.60564 0.45938 0.1724 0.0
C2330 C 0.58687 0.4409 0.15792 0.0
C2331 C 0.6057 0.46854 0.1693 0.0
C2332 C 0.60644 0.47933 0.15765 0.0
C2333 C 0.60502 0.47071 0.16042 0.0
C2334 C 0.6089 0.48377 0.17259 0.0
C2335 C 0.60857 0.48593 0.16369 0.0
C2336 C 0.60746 0.47518 0.17536 0.0
C2337 C 0.61003 0.42908 0.18719 0.0
C2338 C 0.62413 0.43053 0.19439 0.0
C2339 C 0.61337 0.42047 0.20007 0.0
C2340 C 0.60761 0.42287 0.19344 0.0
C2341 C 0.62171 0.42421 0.20057 0.0
C2342 C 0.6183 0.43302 0.18778 0.0
C2343 C 0.60397 0.43085 0.1799 0.0
O2344 O 0.58504 0.44372 0.16581 0.0
O2345 O 0.5953 0.44054 0.15639 0.0
O2346 O 0.60747 0.43264 0.17228 0.0
O2347 O 0.59716 0.43571 0.18172 0.0
H2348 H 0.58847 0.42362 0.16231 0.0
H2349 H 0.57954 0.4114 0.15705 0.0
H2350 H 0.56447 0.42925 0.14132 0.0
H2351 H 0.57352 0.44138 0.14648 0.0
H2352 H 0.60631 0.48071 0.15072 0.0
H2353 H 0.60373 0.46571 0.15561 0.0
H2354 H 0.61051 0.48868 0.17741 0.0
H2355 H 0.60807 0.47366 0.18224 0.0
H2356 H 0.63056 0.43343 0.19461 0.0
H2357 H 0.61142 0.41543 0.20463 0.0
H2358 H 0.60131 0.41969 0.19306 0.0
H2359 H 0.62031 0.43784 0.18303 0.0
C2360 C 0.84144 0.33124 0.40633 0.0
C2361 C 0.85009 0.33418 0.40679 0.0
C2362 C 0.85519 0.32098 0.39942 0.0
C2363 C 0.85689 0.32912 0.40335 0.0
C2364 C 0.84652 0.31802 0.39908 0.0
C2365 C 0.83973 0.32309 0.40251 0.0
U2366 U 0.83124 0.34888 0.42119 0.0
O2367 O 0.82186 0.35926 0.41805 0.0
O2368 O 0.81836 0.34919 0.42762 0.0
C2369 C 0.81585 0.35618 0.42334 0.0
C2370 C 0.83405 0.33663 0.40947 0.0
C2371 C 0.80673 0.35648 0.42024 0.0
C2372 C 0.79585 0.35605 0.40869 0.0
C2373 C 0.80441 0.35458 0.41159 0.0
C2374 C 0.79178 0.361 0.42312 0.0
C2375 C 0.78949 0.35949 0.41437 0.0
C2376 C 0.8003 0.35952 0.42601 0.0
C2377 C 0.84557 0.36069 0.43827 0.0
C2378 C 0.84654 0.37569 0.44348 0.0
C2379 C 0.85191 0.36388 0.45248 0.0
C2380 C 0.8494 0.35787 0.44609 0.0
C2381 C 0.85067 0.37287 0.45117 0.0
C2382 C 0.84397 0.36965 0.43711 0.0
C2383 C 0.84406 0.35425 0.4312 0.0
O2384 O 0.83125 0.33498 0.41741 0.0
O2385 O 0.83445 0.34502 0.40774 0.0
O2386 O 0.84259 0.35736 0.42334 0.0
O2387 O 0.83913 0.34752 0.43315 0.0
H2388 H 0.85159 0.34044 0.40972 0.0
H2389 H 0.8635 0.33156 0.40376 0.0
H2390 H 0.84495 0.31188 0.39597 0.0
H2391 H 0.83311 0.3207 0.40205 0.0
H2392 H 0.79429 0.35483 0.4019 0.0
H2393 H 0.80926 0.35224 0.40701 0.0
H2394 H 0.78701 0.36349 0.4277 0.0
H2395 H 0.80195 0.36102 0.43272 0.0
H2396 H 0.84556 0.38258 0.44229 0.0
H2397 H 0.85526 0.36152 0.45823 0.0
H2398 H 0.85078 0.35101 0.44712 0.0
H2399 H 0.841 0.37205 0.43116 0.0
C2400 C 0.94323 0.43363 0.87041 0.0
C2401 C 0.94053 0.42493 0.86939 0.0
C2402 C 0.95352 0.41979 0.87708 0.0
C2403 C 0.94561 0.41808 0.87272 0.0
C2404 C 0.95621 0.42851 0.87801 0.0
C2405 C 0.95113 0.43534 0.87469 0.0
U2406 U 0.92572 0.44373 0.85543 0.0
O2407 O 0.91535 0.45318 0.85834 0.0
O2408 O 0.92555 0.45658 0.84889 0.0
C2409 C 0.91859 0.45919 0.85315 0.0
C2410 C 0.93787 0.44101 0.86726 0.0
C2411 C 0.91852 0.46828 0.85641 0.0
C2412 C 0.91806 0.47882 0.86828 0.0
C2413 C 0.91942 0.47027 0.86531 0.0
C2414 C 0.9153 0.48357 0.85349 0.0
C2415 C 0.91575 0.48553 0.86243 0.0
C2416 C 0.91665 0.47504 0.85052 0.0
C2417 C 0.91431 0.42907 0.83837 0.0
C2418 C 0.90028 0.43114 0.83118 0.0
C2419 C 0.91053 0.42052 0.82558 0.0
C2420 C 0.91643 0.42272 0.83216 0.0
C2421 C 0.90234 0.42461 0.82507 0.0
C2422 C 0.90623 0.43338 0.83778 0.0
C2423 C 0.92052 0.43074 0.84554 0.0
O2424 O 0.93956 0.44379 0.85933 0.0
O2425 O 0.92947 0.4406 0.86894 0.0
O2426 O 0.91717 0.43243 0.85325 0.0
O2427 O 0.92726 0.43567 0.84362 0.0
H2428 H 0.93447 0.42344 0.86609 0.0
H2429 H 0.94337 0.41144 0.87186 0.0
H2430 H 0.96216 0.43007 0.88147 0.0
H2431 H 0.95332 0.442 0.87556 0.0
H2432 H 0.91845 0.48009 0.87522 0.0
H2433 H 0.92086 0.46517 0.86999 0.0
H2434 H 0.91372 0.48861 0.84879 0.0
H2435 H 0.91593 0.47366 0.84362 0.0
H2436 H 0.89405 0.43445 0.83091 0.0
H2437 H 0.91227 0.41537 0.82106 0.0
H2438 H 0.9226 0.4193 0.83251 0.0
H2439 H 0.90447 0.43835 0.84249 0.0
C2440 C 0.84155 0.69357 0.12108 0.0
C2441 C 0.85016 0.69139 0.11889 0.0
C2442 C 0.85564 0.70352 0.12768 0.0
C2443 C 0.85714 0.69632 0.12216 0.0
C2444 C 0.84699 0.70577 0.12969 0.0
C2445 C 0.84002 0.70083 0.12645 0.0
U2446 U 0.83136 0.67668 0.10561 0.0
O2447 O 0.82211 0.666 0.10817 0.0
O2448 O 0.81845 0.67661 0.09927 0.0
C2449 C 0.81602 0.66936 0.10316 0.0
C2450 C 0.83408 0.68834 0.11792 0.0
C2451 C 0.80698 0.66889 0.10647 0.0
C2452 C 0.79513 0.67362 0.11596 0.0
C2453 C 0.80366 0.67469 0.11274 0.0
C2454 C 0.79319 0.66107 0.1066 0.0
C2455 C 0.78979 0.66674 0.11296 0.0
C2456 C 0.80164 0.66216 0.10338 0.0
C2457 C 0.84685 0.66659 0.08809 0.0
C2458 C 0.84425 0.65433 0.07829 0.0
C2459 C 0.85741 0.66293 0.07688 0.0
C2460 C 0.85476 0.66817 0.08384 0.0
C2461 C 0.85217 0.656 0.07397 0.0
C2462 C 0.84157 0.65964 0.08529 0.0
C2463 C 0.84452 0.67225 0.09552 0.0
O2464 O 0.83115 0.69034 0.11012 0.0
O2465 O 0.83458 0.67987 0.11924 0.0
O2466 O 0.84276 0.66837 0.10296 0.0
O2467 O 0.83933 0.67885 0.09384 0.0
H2468 H 0.8515 0.68587 0.11469 0.0
H2469 H 0.86372 0.69453 0.12032 0.0
H2470 H 0.84561 0.71126 0.13392 0.0
H2471 H 0.83342 0.70264 0.12819 0.0
H2472 H 0.79276 0.67809 0.1209 0.0
H2473 H 0.80768 0.67993 0.11523 0.0
H2474 H 0.78946 0.65551 0.10435 0.0
H2475 H 0.80409 0.65758 0.09859 0.0
H2476 H 0.84014 0.64896 0.07623 0.0
H2477 H 0.86366 0.66422 0.07386 0.0
H2478 H 0.85897 0.67343 0.08596 0.0
H2479 H 0.83544 0.65829 0.08853 0.0
C2480 C 0.58106 0.59179 0.37097 0.0
C2481 C 0.58248 0.60033 0.36799 0.0
C2482 C 0.5703 0.60565 0.37681 0.0
C2483 C 0.57718 0.6072 0.37091 0.0
C2484 C 0.56896 0.59709 0.37981 0.0
C2485 C 0.57427 0.59024 0.3769 0.0
U2486 U 0.59832 0.58177 0.35577 0.0
O2487 O 0.60918 0.57276 0.35852 0.0
O2488 O 0.59872 0.56878 0.3496 0.0
C2489 C 0.60598 0.56655 0.35356 0.0
C2490 C 0.58653 0.58442 0.36798 0.0
C2491 C 0.60667 0.55753 0.35692 0.0
C2492 C 0.60113 0.54489 0.36484 0.0
C2493 C 0.60005 0.55349 0.3618 0.0
C2494 C 0.61539 0.54432 0.35811 0.0
C2495 C 0.60884 0.54019 0.36303 0.0
C2496 C 0.61429 0.55285 0.35508 0.0
C2497 C 0.60825 0.59711 0.33809 0.0
C2498 C 0.62032 0.59423 0.32815 0.0
C2499 C 0.61214 0.60769 0.32697 0.0
C2500 C 0.60688 0.60512 0.33394 0.0
C2501 C 0.61892 0.60229 0.32397 0.0
C2502 C 0.615 0.59164 0.33516 0.0
C2503 C 0.60255 0.59486 0.34551 0.0
O2504 O 0.58467 0.5813 0.36022 0.0
O2505 O 0.59496 0.58519 0.36933 0.0
O2506 O 0.6064 0.59332 0.35301 0.0
O2507 O 0.59607 0.58951 0.34387 0.0
H2508 H 0.58771 0.60169 0.36343 0.0
H2509 H 0.57854 0.61374 0.36862 0.0
H2510 H 0.56373 0.59567 0.38434 0.0
H2511 H 0.57305 0.5837 0.37928 0.0
H2512 H 0.59599 0.54195 0.36867 0.0
H2513 H 0.5941 0.55699 0.36331 0.0
H2514 H 0.62153 0.54109 0.35685 0.0
H2515 H 0.61949 0.55585 0.35136 0.0
H2516 H 0.62548 0.58993 0.32596 0.0
H2517 H 0.61098 0.614 0.32402 0.0
H2518 H 0.60175 0.60946 0.33613 0.0
H2519 H 0.61616 0.58542 0.33831 0.0
C2520 C 0.68322 0.33182 0.62048 0.0
C2521 C 0.67913 0.32574 0.61495 0.0
C2522 C 0.66912 0.32148 0.6266 0.0
C2523 C 0.67223 0.32059 0.618 0.0
C2524 C 0.67325 0.32753 0.63213 0.0
C2525 C 0.68022 0.33261 0.62911 0.0
U2526 U 0.69379 0.34885 0.60532 0.0
O2527 O 0.70301 0.35951 0.60806 0.0
O2528 O 0.70676 0.34896 0.59913 0.0
C2529 C 0.70914 0.35619 0.60308 0.0
C2530 C 0.69077 0.33715 0.61751 0.0
C2531 C 0.71814 0.35666 0.60644 0.0
C2532 C 0.73005 0.35173 0.61574 0.0
C2533 C 0.72152 0.35069 0.61252 0.0
C2534 C 0.73187 0.36457 0.60675 0.0
C2535 C 0.73533 0.35873 0.61292 0.0
C2536 C 0.72342 0.36351 0.60353 0.0
C2537 C 0.67864 0.35907 0.58763 0.0
C2538 C 0.68112 0.37182 0.57844 0.0
C2539 C 0.66849 0.36266 0.57603 0.0
C2540 C 0.67107 0.35726 0.58289 0.0
C2541 C 0.67345 0.37002 0.57373 0.0
C2542 C 0.68371 0.36636 0.58536 0.0
C2543 C 0.68079 0.35333 0.59506 0.0
O2544 O 0.69408 0.33523 0.60983 0.0
O2545 O 0.69026 0.34559 0.61891 0.0
O2546 O 0.68242 0.35716 0.60255 0.0
O2547 O 0.68599 0.34672 0.59342 0.0
H2548 H 0.6813 0.32488 0.60829 0.0
H2549 H 0.6694 0.31583 0.61362 0.0
H2550 H 0.67102 0.32842 0.63877 0.0
H2551 H 0.68328 0.33719 0.63354 0.0
H2552 H 0.73247 0.34714 0.62054 0.0
H2553 H 0.71754 0.34535 0.61486 0.0
H2554 H 0.73555 0.37021 0.60465 0.0
H2555 H 0.72093 0.36822 0.59888 0.0
H2556 H 0.6851 0.37741 0.57679 0.0
H2557 H 0.66248 0.36117 0.57265 0.0
H2558 H 0.66703 0.35171 0.58458 0.0
H2559 H 0.6896 0.36787 0.58895 0.0
C2560 C 0.65498 0.94489 0.59154 0.0
C2561 C 0.65923 0.94522 0.59966 0.0
C2562 C 0.64831 0.95544 0.60514 0.0
C2563 C 0.65593 0.9505 0.6064 0.0
C2564 C 0.64407 0.95506 0.59703 0.0
C2565 C 0.64741 0.94988 0.59028 0.0
U2566 U 0.67014 0.9272 0.58204 0.0
O2567 O 0.66726 0.91649 0.57295 0.0
O2568 O 0.67672 0.92656 0.56922 0.0
C2569 C 0.67256 0.91944 0.56689 0.0
C2570 C 0.65823 0.93937 0.58432 0.0
C2571 C 0.66953 0.91882 0.55775 0.0
C2572 C 0.65828 0.91995 0.54658 0.0
C2573 C 0.66125 0.92168 0.55509 0.0
C2574 C 0.67194 0.91279 0.54324 0.0
C2575 C 0.66351 0.91526 0.54064 0.0
C2576 C 0.67489 0.91454 0.5517 0.0
C2577 C 0.6869 0.91634 0.59759 0.0
C2578 C 0.69618 0.90382 0.59438 0.0
C2579 C 0.69708 0.91098 0.60845 0.0
C2580 C 0.69068 0.91691 0.60588 0.0
C2581 C 0.69985 0.90436 0.60276 0.0
C2582 C 0.68972 0.9098 0.59179 0.0
C2583 C 0.67986 0.9225 0.59538 0.0
O2584 O 0.66618 0.94101 0.58157 0.0
O2585 O 0.6566 0.93098 0.58497 0.0
O2586 O 0.67221 0.91905 0.59367 0.0
O2587 O 0.6819 0.92894 0.59011 0.0
H2588 H 0.66505 0.94139 0.6008 0.0
H2589 H 0.65925 0.95062 0.61264 0.0
H2590 H 0.63819 0.95881 0.59592 0.0
H2591 H 0.64404 0.94973 0.58407 0.0
H2592 H 0.65175 0.92193 0.54477 0.0
H2593 H 0.65699 0.92499 0.55966 0.0
H2594 H 0.67617 0.9093 0.5388 0.0
H2595 H 0.68131 0.91229 0.55361 0.0
H2596 H 0.69819 0.89871 0.58994 0.0
H2597 H 0.6998 0.91146 0.61496 0.0
H2598 H 0.68858 0.92188 0.61045 0.0
H2599 H 0.68686 0.90925 0.58536 0.0
C2600 C 0.15484 0.58173 0.43412 0.0
C2601 C 0.15708 0.58371 0.42546 0.0
C2602 C 0.14814 0.57161 0.42015 0.0
C2603 C 0.15375 0.57872 0.41854 0.0
C2604 C 0.14596 0.56964 0.42885 0.0
C2605 C 0.14929 0.57464 0.43575 0.0
U2606 U 0.17007 0.59903 0.44416 0.0
O2607 O 0.16736 0.60944 0.45367 0.0
O2608 O 0.17676 0.59915 0.45693 0.0
C2609 C 0.17269 0.60622 0.45956 0.0
C2610 C 0.15807 0.58702 0.44153 0.0
C2611 C 0.16976 0.60654 0.46876 0.0
C2612 C 0.15852 0.60543 0.47994 0.0
C2613 C 0.16136 0.60398 0.47134 0.0
C2614 C 0.17254 0.61171 0.48353 0.0
C2615 C 0.16404 0.60946 0.48611 0.0
C2616 C 0.17536 0.61025 0.47497 0.0
C2617 C 0.18707 0.61006 0.42895 0.0
C2618 C 0.19463 0.62397 0.43049 0.0
C2619 C 0.19953 0.61345 0.41978 0.0
C2620 C 0.19292 0.60773 0.42233 0.0
C2621 C 0.2004 0.62166 0.42374 0.0
C2622 C 0.18803 0.61819 0.43312 0.0
C2623 C 0.17983 0.60403 0.43097 0.0
O2624 O 0.16599 0.58523 0.44426 0.0
O2625 O 0.1565 0.59544 0.44114 0.0
O2626 O 0.17225 0.60756 0.43282 0.0
O2627 O 0.18174 0.59731 0.43594 0.0
H2628 H 0.16137 0.58915 0.42404 0.0
H2629 H 0.15558 0.58039 0.41193 0.0
H2630 H 0.14153 0.56435 0.43032 0.0
H2631 H 0.14745 0.57302 0.44237 0.0
H2632 H 0.15188 0.60376 0.48165 0.0
H2633 H 0.1569 0.60116 0.46664 0.0
H2634 H 0.17694 0.61481 0.4881 0.0
H2635 H 0.18185 0.6123 0.47312 0.0
H2636 H 0.19518 0.63026 0.43365 0.0
H2637 H 0.2038 0.61156 0.41447 0.0
H2638 H 0.19227 0.60154 0.419 0.0
H2639 H 0.18359 0.62011 0.43827 0.0
C2640 C 0.69408 0.90533 0.68404 0.0
C2641 C 0.69344 0.90895 0.67564 0.0
C2642 C 0.70497 0.89924 0.67038 0.0
C2643 C 0.69881 0.90591 0.66887 0.0
C2644 C 0.70549 0.8956 0.67878 0.0
C2645 C 0.70012 0.89862 0.68553 0.0
U2646 U 0.67644 0.9203 0.69402 0.0
O2647 O 0.66602 0.91729 0.7034 0.0
O2648 O 0.67618 0.92673 0.70693 0.0
C2649 C 0.66923 0.92242 0.70948 0.0
C2650 C 0.68859 0.90845 0.69134 0.0
C2651 C 0.66915 0.91907 0.71855 0.0
C2652 C 0.66864 0.90711 0.729 0.0
C2653 C 0.66997 0.91015 0.72046 0.0
C2654 C 0.666 0.92188 0.73389 0.0
C2655 C 0.6665 0.91292 0.73581 0.0
C2656 C 0.66733 0.9249 0.72537 0.0
C2657 C 0.66519 0.93748 0.67919 0.0
C2658 C 0.65077 0.94413 0.68007 0.0
C2659 C 0.66179 0.95042 0.67068 0.0
C2660 C 0.66768 0.94396 0.67324 0.0
C2661 C 0.65325 0.9505 0.67397 0.0
C2662 C 0.65673 0.9377 0.68274 0.0
C2663 C 0.67137 0.93031 0.68104 0.0
O2664 O 0.69025 0.91636 0.69418 0.0
O2665 O 0.6802 0.90682 0.69072 0.0
O2666 O 0.668 0.92259 0.68265 0.0
O2667 O 0.67803 0.9322 0.68608 0.0
H2668 H 0.68878 0.91409 0.67433 0.0
H2669 H 0.69807 0.90871 0.66243 0.0
H2670 H 0.71014 0.89047 0.68017 0.0
H2671 H 0.70071 0.89573 0.69195 0.0
H2672 H 0.6689 0.90015 0.73019 0.0
H2673 H 0.67132 0.90549 0.71532 0.0
H2674 H 0.66438 0.92653 0.73896 0.0
H2675 H 0.66663 0.93181 0.72405 0.0
H2676 H 0.64419 0.94402 0.68262 0.0
H2677 H 0.66379 0.95516 0.66582 0.0
H2678 H 0.67413 0.94388 0.67036 0.0
H2679 H 0.65465 0.93278 0.68736 0.0
C2680 C 0.3699 0.4443 0.93489 0.0
C2681 C 0.36726 0.44278 0.92625 0.0
C2682 C 0.37678 0.45447 0.92108 0.0
C2683 C 0.37069 0.4478 0.91942 0.0
C2684 C 0.37934 0.45601 0.92976 0.0
C2685 C 0.37592 0.45097 0.93659 0.0
U2686 U 0.35452 0.42685 0.94425 0.0
O2687 O 0.357 0.41621 0.95354 0.0
O2688 O 0.34755 0.42644 0.95685 0.0
C2689 C 0.35156 0.4193 0.95939 0.0
C2690 C 0.36656 0.43892 0.94218 0.0
C2691 C 0.35437 0.41881 0.96859 0.0
C2692 C 0.36496 0.42115 0.98019 0.0
C2693 C 0.36213 0.42263 0.97159 0.0
C2694 C 0.35224 0.41221 0.98288 0.0
C2695 C 0.36011 0.41578 0.98584 0.0
C2696 C 0.34937 0.41376 0.97436 0.0
C2697 C 0.33803 0.41615 0.92829 0.0
C2698 C 0.32682 0.40543 0.93184 0.0
C2699 C 0.32829 0.41079 0.91704 0.0
C2700 C 0.33526 0.41602 0.91959 0.0
C2701 C 0.32393 0.4055 0.92313 0.0
C2702 C 0.33382 0.41077 0.93443 0.0
C2703 C 0.34516 0.42213 0.93067 0.0
O2704 O 0.35857 0.44064 0.94474 0.0
O2705 O 0.36816 0.43051 0.94168 0.0
O2706 O 0.35267 0.41853 0.93268 0.0
O2707 O 0.34308 0.42868 0.93578 0.0
H2708 H 0.3626 0.43768 0.9248 0.0
H2709 H 0.36857 0.44648 0.91281 0.0
H2710 H 0.38412 0.46098 0.93125 0.0
H2711 H 0.37807 0.45223 0.9432 0.0
H2712 H 0.37113 0.42388 0.9823 0.0
H2713 H 0.36611 0.4265 0.96722 0.0
H2714 H 0.34842 0.40802 0.98709 0.0
H2715 H 0.34337 0.41075 0.97217 0.0
H2716 H 0.32356 0.4014 0.93664 0.0
H2717 H 0.32626 0.41087 0.91027 0.0
H2718 H 0.33845 0.42008 0.91476 0.0
H2719 H 0.33588 0.41077 0.94119 0.0
C2720 C 0.33175 0.62091 0.68419 0.0
C2721 C 0.33108 0.61642 0.67622 0.0
C2722 C 0.32139 0.62769 0.67048 0.0
C2723 C 0.32589 0.61976 0.66944 0.0
C2724 C 0.32212 0.63218 0.67844 0.0
C2725 C 0.32722 0.6288 0.68523 0.0
U2726 U 0.34879 0.60525 0.69408 0.0
O2727 O 0.35926 0.60775 0.70356 0.0
O2728 O 0.34883 0.59852 0.70684 0.0
C2729 C 0.35599 0.60242 0.70944 0.0
C2730 C 0.33702 0.6175 0.69153 0.0
C2731 C 0.35651 0.60521 0.71867 0.0
C2732 C 0.35524 0.61613 0.73016 0.0
C2733 C 0.35364 0.61343 0.72153 0.0
C2734 C 0.36233 0.60236 0.73319 0.0
C2735 C 0.35976 0.61068 0.73605 0.0
C2736 C 0.3607 0.59966 0.72462 0.0
C2737 C 0.35953 0.58811 0.6788 0.0
C2738 C 0.37349 0.58058 0.67999 0.0
C2739 C 0.36263 0.57549 0.66972 0.0
C2740 C 0.35699 0.58213 0.67237 0.0
C2741 C 0.37098 0.5747 0.67339 0.0
C2742 C 0.36779 0.58722 0.6827 0.0
C2743 C 0.3536 0.59543 0.68085 0.0
O2744 O 0.3351 0.60959 0.69422 0.0
O2745 O 0.34546 0.61892 0.69109 0.0
O2746 O 0.35724 0.60297 0.68271 0.0
O2747 O 0.34687 0.59361 0.68582 0.0
H2748 H 0.33454 0.61033 0.67526 0.0
H2749 H 0.32547 0.61619 0.66335 0.0
H2750 H 0.31865 0.63825 0.67944 0.0
H2751 H 0.32762 0.63236 0.69132 0.0
H2752 H 0.35331 0.62265 0.73209 0.0
H2753 H 0.35043 0.61784 0.71704 0.0
H2754 H 0.36581 0.59801 0.73753 0.0
H2755 H 0.36299 0.59331 0.72255 0.0
H2756 H 0.37988 0.58009 0.68294 0.0
H2757 H 0.36057 0.57114 0.66454 0.0
H2758 H 0.35069 0.58272 0.66924 0.0
H2759 H 0.36989 0.59175 0.6877 0.0
C2760 C 0.87019 0.0818 0.09218 0.0
C2761 C 0.86849 0.08425 0.10085 0.0
C2762 C 0.87701 0.07189 0.10623 0.0
C2763 C 0.87186 0.07934 0.1078 0.0
C2764 C 0.87849 0.06934 0.09754 0.0
C2765 C 0.87514 0.07426 0.0906 0.0
U2766 U 0.85492 0.099 0.0822 0.0
O2767 O 0.85756 0.10963 0.07294 0.0
O2768 O 0.84831 0.0993 0.06939 0.0
C2769 C 0.85228 0.10649 0.06696 0.0
C2770 C 0.86701 0.08707 0.08473 0.0
C2771 C 0.85522 0.10712 0.0578 0.0
C2772 C 0.8661 0.10528 0.04635 0.0
C2773 C 0.86316 0.1036 0.05489 0.0
C2774 C 0.85307 0.11372 0.04351 0.0
C2775 C 0.86118 0.11057 0.04066 0.0
C2776 C 0.85014 0.11202 0.05198 0.0
C2777 C 0.83793 0.1095 0.09788 0.0
C2778 C 0.82699 0.12053 0.09446 0.0
C2779 C 0.82782 0.11441 0.10901 0.0
C2780 C 0.83482 0.1092 0.10645 0.0
C2781 C 0.82378 0.12008 0.10306 0.0
C2782 C 0.83402 0.11523 0.09187 0.0
C2783 C 0.84518 0.10364 0.09553 0.0
O2784 O 0.85912 0.08523 0.08193 0.0
O2785 O 0.86852 0.0955 0.08516 0.0
O2786 O 0.85267 0.10734 0.09369 0.0
O2787 O 0.84327 0.09708 0.09035 0.0
H2788 H 0.86461 0.08999 0.10224 0.0
H2789 H 0.87041 0.08137 0.11442 0.0
H2790 H 0.88241 0.06364 0.09611 0.0
H2791 H 0.87649 0.07223 0.08397 0.0
H2792 H 0.87238 0.10278 0.04433 0.0
H2793 H 0.86719 0.0998 0.05927 0.0
H2794 H 0.84908 0.11771 0.03925 0.0
H2795 H 0.84399 0.11478 0.05409 0.0
H2796 H 0.82399 0.12486 0.08976 0.0
H2797 H 0.82558 0.11402 0.1157 0.0
H2798 H 0.83778 0.10487 0.11119 0.0
H2799 H 0.83636 0.11555 0.08521 0.0
C2800 C 0.69379 0.12005 0.84119 0.0
C2801 C 0.69136 0.11875 0.84993 0.0
C2802 C 0.70419 0.12677 0.85492 0.0
C2803 C 0.69649 0.1221 0.85672 0.0
C2804 C 0.70666 0.12794 0.84616 0.0
C2805 C 0.70151 0.12461 0.83937 0.0
U2806 U 0.67615 0.10492 0.83182 0.0
O2807 O 0.66548 0.10756 0.82263 0.0
O2808 O 0.6756 0.09806 0.81916 0.0
C2809 C 0.66854 0.10221 0.81666 0.0
C2810 C 0.68832 0.11685 0.83392 0.0
C2811 C 0.66825 0.10531 0.80753 0.0
C2812 C 0.66956 0.11675 0.79659 0.0
C2813 C 0.67086 0.11376 0.80515 0.0
C2814 C 0.6633 0.10281 0.79263 0.0
C2815 C 0.66565 0.11135 0.79025 0.0
C2816 C 0.6646 0.09984 0.80117 0.0
C2817 C 0.66573 0.08816 0.84774 0.0
C2818 C 0.65337 0.07854 0.84506 0.0
C2819 C 0.66188 0.077 0.85828 0.0
C2820 C 0.66721 0.08388 0.85567 0.0
C2821 C 0.65491 0.07421 0.85302 0.0
C2822 C 0.65877 0.08546 0.84242 0.0
C2823 C 0.67161 0.09538 0.84534 0.0
O2824 O 0.68996 0.10888 0.83121 0.0
O2825 O 0.67993 0.11851 0.83451 0.0
O2826 O 0.66794 0.10289 0.84343 0.0
O2827 O 0.67812 0.09338 0.84015 0.0
H2828 H 0.68545 0.11521 0.8515 0.0
H2829 H 0.69444 0.12103 0.86339 0.0
H2830 H 0.71246 0.13162 0.84453 0.0
H2831 H 0.70351 0.12569 0.83268 0.0
H2832 H 0.67128 0.12342 0.79504 0.0
H2833 H 0.67364 0.11812 0.80996 0.0
H2834 H 0.66029 0.09849 0.78793 0.0
H2835 H 0.66252 0.0933 0.80287 0.0
H2836 H 0.64806 0.07651 0.84086 0.0
H2837 H 0.66314 0.07391 0.86451 0.0
H2838 H 0.67251 0.08589 0.85988 0.0
H2839 H 0.65754 0.08869 0.83625 0.0
C2840 C 0.83101 0.9056 0.3417 0.0
C2841 C 0.83379 0.90648 0.35039 0.0
C2842 C 0.82069 0.89902 0.35553 0.0
C2843 C 0.82869 0.90319 0.35723 0.0
C2844 C 0.81788 0.89828 0.34683 0.0
C2845 C 0.82299 0.90155 0.33999 0.0
U2846 U 0.84851 0.92057 0.33177 0.0
O2847 O 0.85932 0.91763 0.32279 0.0
O2848 O 0.84903 0.92675 0.31879 0.0
C2849 C 0.85622 0.92264 0.31657 0.0
C2850 C 0.83645 0.90863 0.33433 0.0
C2851 C 0.8568 0.91919 0.30759 0.0
C2852 C 0.85121 0.91094 0.2952 0.0
C2853 C 0.85015 0.91422 0.30371 0.0
C2854 C 0.86546 0.91765 0.29441 0.0
C2855 C 0.85896 0.91251 0.29049 0.0
C2856 C 0.86438 0.92094 0.30283 0.0
C2857 C 0.85923 0.93791 0.34671 0.0
C2858 C 0.87327 0.94521 0.34522 0.0
C2859 C 0.86258 0.95067 0.35548 0.0
C2860 C 0.85682 0.94407 0.35301 0.0
C2861 C 0.87092 0.95127 0.35171 0.0
C2862 C 0.86747 0.93857 0.34273 0.0
C2863 C 0.85315 0.93069 0.34481 0.0
O2864 O 0.83472 0.91649 0.33136 0.0
O2865 O 0.84486 0.90706 0.33494 0.0
O2866 O 0.85663 0.92299 0.34334 0.0
O2867 O 0.84661 0.9325 0.33958 0.0
H2868 H 0.83993 0.90962 0.35188 0.0
H2869 H 0.83101 0.90391 0.36387 0.0
H2870 H 0.81183 0.89499 0.34529 0.0
H2871 H 0.82073 0.90079 0.33334 0.0
H2872 H 0.84599 0.90714 0.29235 0.0
H2873 H 0.84421 0.91283 0.30727 0.0
H2874 H 0.87155 0.91891 0.29107 0.0
H2875 H 0.86958 0.92478 0.30569 0.0
H2876 H 0.87962 0.94555 0.34214 0.0
H2877 H 0.8606 0.95515 0.36057 0.0
H2878 H 0.85052 0.94366 0.35618 0.0
H2879 H 0.86946 0.9339 0.33782 0.0
C2880 C 0.43362 0.36955 0.08265 0.0
C2881 C 0.425 0.36716 0.08463 0.0
C2882 C 0.41957 0.37614 0.07262 0.0
C2883 C 0.41803 0.37045 0.07967 0.0
C2884 C 0.42822 0.37846 0.07066 0.0
C2885 C 0.43515 0.37519 0.07561 0.0
U2886 U 0.44427 0.35388 0.09919 0.0
O2887 O 0.45755 0.34841 0.09951 0.0
O2888 O 0.453 0.35669 0.11026 0.0
C2889 C 0.45951 0.35222 0.10694 0.0
C2890 C 0.44107 0.36648 0.08796 0.0
C2891 C 0.4683 0.35612 0.10773 0.0
C2892 C 0.48008 0.36549 0.10265 0.0
C2893 C 0.47163 0.36207 0.10163 0.0
C2894 C 0.4819 0.35706 0.11588 0.0
C2895 C 0.48534 0.36298 0.10978 0.0
C2896 C 0.4735 0.35367 0.11485 0.0
C2897 C 0.42982 0.33515 0.10846 0.0
C2898 C 0.43117 0.327 0.12206 0.0
C2899 C 0.42048 0.32267 0.11128 0.0
C2900 C 0.42323 0.32942 0.10581 0.0
C2901 C 0.42427 0.32148 0.11955 0.0
C2902 C 0.43391 0.33381 0.11656 0.0
C2903 C 0.43172 0.3428 0.10292 0.0
O2904 O 0.44029 0.3674 0.09645 0.0
O2905 O 0.44448 0.35894 0.08571 0.0
O2906 O 0.43722 0.34163 0.09645 0.0
O2907 O 0.43277 0.35029 0.10695 0.0
H2908 H 0.42365 0.3628 0.09003 0.0
H2909 H 0.41145 0.36851 0.08132 0.0
H2910 H 0.42962 0.38294 0.06537 0.0
H2911 H 0.44174 0.37714 0.07399 0.0
H2912 H 0.48253 0.37003 0.09783 0.0
H2913 H 0.46773 0.36406 0.09608 0.0
H2914 H 0.48565 0.35515 0.12155 0.0
H2915 H 0.47104 0.34911 0.11966 0.0
H2916 H 0.43432 0.32618 0.12833 0.0
H2917 H 0.4151 0.31862 0.10917 0.0
H2918 H 0.41997 0.33035 0.09961 0.0
H2919 H 0.43905 0.33814 0.11872 0.0
C2920 C 0.40375 0.68537 0.8329 0.0
C2921 C 0.40883 0.67832 0.82995 0.0
C2922 C 0.39616 0.67203 0.82262 0.0
C2923 C 0.40507 0.67174 0.82481 0.0
C2924 C 0.39113 0.67909 0.82557 0.0
C2925 C 0.39489 0.68569 0.83064 0.0
U2926 U 0.42046 0.69479 0.84929 0.0
O2927 O 0.42637 0.70788 0.84984 0.0
O2928 O 0.4182 0.70331 0.86066 0.0
C2929 C 0.42268 0.70982 0.85734 0.0
C2930 C 0.40745 0.69245 0.83832 0.0
C2931 C 0.41877 0.71861 0.85822 0.0
C2932 C 0.41054 0.73098 0.85258 0.0
C2933 C 0.41393 0.72253 0.8515 0.0
C2934 C 0.41672 0.73164 0.86709 0.0
C2935 C 0.41194 0.73567 0.86038 0.0
C2936 C 0.4201 0.72323 0.86601 0.0
C2937 C 0.43872 0.67924 0.85778 0.0
C2938 C 0.44923 0.68185 0.86944 0.0
C2939 C 0.44948 0.66822 0.86145 0.0
C2940 C 0.44247 0.67103 0.85638 0.0
C2941 C 0.45293 0.67355 0.86807 0.0
C2942 C 0.44217 0.68469 0.86431 0.0
C2943 C 0.43107 0.68168 0.85248 0.0
O2944 O 0.40671 0.69145 0.8468 0.0
O2945 O 0.41511 0.69551 0.83597 0.0
O2946 O 0.43235 0.68733 0.84616 0.0
O2947 O 0.42375 0.68297 0.85673 0.0
H2948 H 0.41567 0.67791 0.83164 0.0
H2949 H 0.40909 0.66635 0.82264 0.0
H2950 H 0.38429 0.67954 0.8239 0.0
H2951 H 0.39087 0.69107 0.83281 0.0
H2952 H 0.40688 0.73389 0.84728 0.0
H2953 H 0.41281 0.71909 0.84543 0.0
H2954 H 0.41775 0.73495 0.87325 0.0
H2955 H 0.42378 0.72032 0.87129 0.0
H2956 H 0.45178 0.68611 0.87445 0.0
H2957 H 0.45208 0.66174 0.86032 0.0
H2958 H 0.43987 0.66671 0.85143 0.0
H2959 H 0.43935 0.69106 0.86548 0.0
C2960 C 0.09068 0.65689 0.58247 0.0
C2961 C 0.0955 0.66262 0.57717 0.0
C2962 C 0.10492 0.65066 0.57238 0.0
C2963 C 0.10248 0.65952 0.57213 0.0
C2964 C 0.10001 0.64494 0.57762 0.0
C2965 C 0.09298 0.64802 0.58259 0.0
U2966 U 0.0801 0.67244 0.59916 0.0
O2967 O 0.06683 0.67793 0.59976 0.0
O2968 O 0.07157 0.66958 0.61038 0.0
C2969 C 0.06499 0.67404 0.60718 0.0
C2970 C 0.0832 0.65992 0.58783 0.0
C2971 C 0.05626 0.67003 0.60802 0.0
C2972 C 0.04421 0.66126 0.60252 0.0
C2973 C 0.05262 0.66475 0.60148 0.0
C2974 C 0.04303 0.66824 0.61663 0.0
C2975 C 0.03929 0.66301 0.6101 0.0
C2976 C 0.0514 0.67171 0.61558 0.0
C2977 C 0.09482 0.69099 0.60837 0.0
C2978 C 0.09339 0.69925 0.62189 0.0
C2979 C 0.10454 0.70311 0.61139 0.0
C2980 C 0.10173 0.69642 0.6059 0.0
C2981 C 0.10052 0.70452 0.61952 0.0
C2982 C 0.09054 0.69253 0.61634 0.0
C2983 C 0.09276 0.68342 0.60278 0.0
O2984 O 0.084 0.65889 0.59631 0.0
O2985 O 0.07964 0.66743 0.5857 0.0
O2986 O 0.08715 0.68469 0.59643 0.0
O2987 O 0.09173 0.67591 0.60677 0.0
H2988 H 0.09388 0.66949 0.57689 0.0
H2989 H 0.10593 0.66408 0.56799 0.0
H2990 H 0.1017 0.63809 0.578 0.0
H2991 H 0.08935 0.64346 0.58657 0.0
H2992 H 0.04152 0.65725 0.59736 0.0
H2993 H 0.05625 0.66335 0.59558 0.0
H2994 H 0.03953 0.66956 0.62262 0.0
H2995 H 0.05409 0.67575 0.62072 0.0
H2996 H 0.09015 0.70022 0.62809 0.0
H2997 H 0.11013 0.70697 0.60944 0.0
H2998 H 0.10515 0.6953 0.59982 0.0
H2999 H 0.08517 0.68841 0.61836 0.0
C3000 C 0.11894 0.34051 0.33267 0.0
C3001 C 0.11576 0.34901 0.3339 0.0
C3002 C 0.12567 0.35455 0.32269 0.0
C3003 C 0.11909 0.35595 0.32896 0.0
C3004 C 0.12872 0.34599 0.3214 0.0
C3005 C 0.12541 0.33906 0.32636 0.0
U3006 U 0.10326 0.33029 0.34943 0.0
O3007 O 0.09746 0.31714 0.34985 0.0
O3008 O 0.10603 0.32148 0.36045 0.0
C3009 C 0.10137 0.31506 0.3572 0.0
C3010 C 0.11577 0.33312 0.338 0.0
C3011 C 0.1052 0.30624 0.35777 0.0
C3012 C 0.11505 0.29483 0.35276 0.0
C3013 C 0.11164 0.3033 0.35196 0.0
C3014 C 0.10569 0.29219 0.3652 0.0
C3015 C 0.11208 0.28916 0.35938 0.0
C3016 C 0.10227 0.30062 0.36437 0.0
C3017 C 0.08499 0.34501 0.35907 0.0
C3018 C 0.07723 0.34387 0.37291 0.0
C3019 C 0.07233 0.35411 0.36192 0.0
C3020 C 0.07906 0.35143 0.3564 0.0
C3021 C 0.07141 0.35045 0.37028 0.0
C3022 C 0.08394 0.34111 0.36731 0.0
C3023 C 0.09252 0.34308 0.35337 0.0
O3024 O 0.11682 0.3339 0.34647 0.0
O3025 O 0.10809 0.32995 0.33588 0.0
O3026 O 0.09116 0.33765 0.34687 0.0
O3027 O 0.10006 0.34187 0.35726 0.0
H3028 H 0.11075 0.35028 0.33872 0.0
H3029 H 0.11658 0.36246 0.33012 0.0
H3030 H 0.13359 0.34461 0.31649 0.0
H3031 H 0.12791 0.33254 0.32527 0.0
H3032 H 0.12008 0.29274 0.34827 0.0
H3033 H 0.11403 0.30755 0.34684 0.0
H3034 H 0.10324 0.28799 0.37033 0.0
H3035 H 0.0973 0.30276 0.36892 0.0
H3036 H 0.07669 0.34102 0.37936 0.0
H3037 H 0.06808 0.35934 0.35982 0.0
H3038 H 0.07981 0.35459 0.35012 0.0
H3039 H 0.08844 0.33613 0.36951 0.0
C3040 C 0.43442 0.65686 0.44387 0.0
C3041 C 0.42582 0.65932 0.4419 0.0
C3042 C 0.42038 0.65088 0.45429 0.0
C3043 C 0.41887 0.65635 0.44706 0.0
C3044 C 0.42903 0.64859 0.45631 0.0
C3045 C 0.43596 0.65152 0.45114 0.0
U3046 U 0.44469 0.67207 0.42687 0.0
O3047 O 0.45791 0.67761 0.42607 0.0
O3048 O 0.45312 0.66912 0.41559 0.0
C3049 C 0.45972 0.67362 0.41868 0.0
C3050 C 0.44184 0.65967 0.43839 0.0
C3051 C 0.46844 0.66959 0.41786 0.0
C3052 C 0.48067 0.6612 0.42357 0.0
C3053 C 0.47224 0.66465 0.42458 0.0
C3054 C 0.48156 0.66753 0.40914 0.0
C3055 C 0.48546 0.66266 0.41585 0.0
C3056 C 0.47317 0.67096 0.41014 0.0
C3057 C 0.42975 0.69056 0.41786 0.0
C3058 C 0.43049 0.69853 0.40413 0.0
C3059 C 0.42017 0.7029 0.41525 0.0
C3060 C 0.42318 0.69624 0.42069 0.0
C3061 C 0.42364 0.70401 0.40684 0.0
C3062 C 0.43353 0.69184 0.4096 0.0
C3063 C 0.43194 0.683 0.42341 0.0
O3064 O 0.44088 0.65858 0.42994 0.0
O3065 O 0.44534 0.66723 0.44041 0.0
O3066 O 0.43765 0.68431 0.42967 0.0
O3067 O 0.43293 0.67548 0.41943 0.0
H3068 H 0.42448 0.66347 0.43634 0.0
H3069 H 0.4123 0.65825 0.44532 0.0
H3070 H 0.43045 0.64458 0.46196 0.0
H3071 H 0.44255 0.64961 0.45282 0.0
H3072 H 0.48348 0.65747 0.42887 0.0
H3073 H 0.46872 0.66351 0.4306 0.0
H3074 H 0.48496 0.66861 0.40304 0.0
H3075 H 0.47036 0.67473 0.40487 0.0
H3076 H 0.43334 0.69928 0.39771 0.0
H3077 H 0.41482 0.70693 0.41749 0.0
H3078 H 0.42015 0.69533 0.42701 0.0
H3079 H 0.43864 0.68754 0.4073 0.0
C3080 C 0.11886 0.68456 0.19424 0.0
C3081 C 0.11396 0.67687 0.19513 0.0
C3082 C 0.12517 0.67061 0.20457 0.0
C3083 C 0.11709 0.66996 0.20025 0.0
C3084 C 0.13004 0.67831 0.20362 0.0
C3085 C 0.1269 0.68522 0.19852 0.0
U3086 U 0.10333 0.69469 0.17731 0.0
O3087 O 0.09753 0.70783 0.17674 0.0
O3088 O 0.10616 0.7034 0.16623 0.0
C3089 C 0.10148 0.70984 0.1694 0.0
C3090 C 0.11579 0.69192 0.1888 0.0
C3091 C 0.10529 0.71868 0.16877 0.0
C3092 C 0.11514 0.73013 0.17369 0.0
C3093 C 0.11181 0.72162 0.17448 0.0
C3094 C 0.10554 0.73279 0.16144 0.0
C3095 C 0.112 0.73583 0.16718 0.0
C3096 C 0.10221 0.72432 0.16226 0.0
C3097 C 0.08501 0.67974 0.16806 0.0
C3098 C 0.07612 0.68175 0.15503 0.0
C3099 C 0.07304 0.66986 0.16496 0.0
C3100 C 0.0799 0.67252 0.17031 0.0
C3101 C 0.07112 0.67435 0.15719 0.0
C3102 C 0.08303 0.68443 0.16043 0.0
C3103 C 0.09259 0.68184 0.1736 0.0
O3104 O 0.11688 0.69101 0.18034 0.0
O3105 O 0.10814 0.69521 0.19084 0.0
O3106 O 0.09125 0.68737 0.18001 0.0
O3107 O 0.10006 0.68304 0.16959 0.0
H3108 H 0.10775 0.6762 0.19182 0.0
H3109 H 0.11325 0.66405 0.20072 0.0
H3110 H 0.13627 0.67902 0.20687 0.0
H3111 H 0.13079 0.69109 0.19791 0.0
H3112 H 0.12022 0.73222 0.17812 0.0
H3113 H 0.11431 0.71735 0.17953 0.0
H3114 H 0.10296 0.73701 0.1564 0.0
H3115 H 0.09717 0.72219 0.15779 0.0
H3116 H 0.07476 0.68539 0.14913 0.0
H3117 H 0.06942 0.66406 0.16676 0.0
H3118 H 0.08134 0.6688 0.17614 0.0
H3119 H 0.0869 0.69004 0.15858 0.0
C3120 C 0.09085 0.36967 0.94426 0.0
C3121 C 0.09608 0.36401 0.94924 0.0
C3122 C 0.10486 0.3763 0.9544 0.0
C3123 C 0.10299 0.3673 0.95426 0.0
C3124 C 0.09968 0.3819 0.94929 0.0
C3125 C 0.09274 0.37862 0.94434 0.0
U3126 U 0.07985 0.35365 0.92819 0.0
O3127 O 0.06656 0.34814 0.9282 0.0
O3128 O 0.07093 0.35628 0.91725 0.0
C3129 C 0.0645 0.35179 0.92071 0.0
C3130 C 0.08331 0.36647 0.93909 0.0
C3131 C 0.05567 0.35556 0.91995 0.0
C3132 C 0.04512 0.36724 0.92204 0.0
C3133 C 0.05352 0.36379 0.92333 0.0
C3134 C 0.041 0.35426 0.91406 0.0
C3135 C 0.03876 0.36251 0.91738 0.0
C3136 C 0.04934 0.35083 0.91536 0.0
C3137 C 0.09372 0.33447 0.91894 0.0
C3138 C 0.09689 0.32781 0.90482 0.0
C3139 C 0.09963 0.31976 0.91811 0.0
C3140 C 0.09648 0.32676 0.92303 0.0
C3141 C 0.10021 0.32032 0.90896 0.0
C3142 C 0.09366 0.33481 0.90976 0.0
C3143 C 0.09214 0.34233 0.92438 0.0
O3144 O 0.08396 0.36724 0.93057 0.0
O3145 O 0.07979 0.35902 0.94152 0.0
O3146 O 0.08688 0.34143 0.93109 0.0
O3147 O 0.09118 0.34981 0.92031 0.0
H3148 H 0.09482 0.35706 0.94928 0.0
H3149 H 0.10683 0.36278 0.95809 0.0
H3150 H 0.10107 0.38882 0.949 0.0
H3151 H 0.08884 0.38312 0.94053 0.0
H3152 H 0.0436 0.3736 0.92471 0.0
H3153 H 0.05832 0.36757 0.92687 0.0
H3154 H 0.03636 0.35052 0.91027 0.0
H3155 H 0.0509 0.34449 0.91265 0.0
H3156 H 0.09735 0.32854 0.89781 0.0
H3157 H 0.10209 0.31407 0.9215 0.0
H3158 H 0.09664 0.32631 0.93008 0.0
H3159 H 0.09157 0.34066 0.90638 0.0
C3160 C 0.40645 0.3408 0.69399 0.0
C3161 C 0.40986 0.34922 0.6929 0.0
C3162 C 0.40019 0.35483 0.70427 0.0
C3163 C 0.40674 0.35617 0.69797 0.0
C3164 C 0.3968 0.34637 0.70532 0.0
C3165 C 0.39991 0.33943 0.70024 0.0
U3166 U 0.42208 0.33068 0.6772 0.0
O3167 O 0.42801 0.31759 0.67674 0.0
O3168 O 0.41944 0.3219 0.66613 0.0
C3169 C 0.42418 0.31552 0.66936 0.0
C3170 C 0.40951 0.3334 0.6886 0.0
C3171 C 0.42052 0.30662 0.66865 0.0
C3172 C 0.41014 0.2953 0.67268 0.0
C3173 C 0.41343 0.3038 0.6737 0.0
C3174 C 0.42098 0.29238 0.66159 0.0
C3175 C 0.41384 0.28952 0.66655 0.0
C3176 C 0.42428 0.30083 0.66264 0.0
C3177 C 0.44038 0.34595 0.66823 0.0
C3178 C 0.44927 0.34467 0.6551 0.0
C3179 C 0.45247 0.35589 0.66575 0.0
C3180 C 0.44556 0.35297 0.67092 0.0
C3181 C 0.45441 0.35181 0.65776 0.0
C3182 C 0.44232 0.34173 0.66032 0.0
C3183 C 0.43273 0.34365 0.67361 0.0
O3184 O 0.40849 0.33426 0.68013 0.0
O3185 O 0.41714 0.33013 0.69071 0.0
O3186 O 0.43405 0.33813 0.68004 0.0
O3187 O 0.42535 0.34233 0.66948 0.0
H3188 H 0.41489 0.35043 0.68808 0.0
H3189 H 0.40937 0.36263 0.69685 0.0
H3190 H 0.39178 0.3451 0.71012 0.0
H3191 H 0.39718 0.33298 0.70118 0.0
H3192 H 0.40463 0.29327 0.6766 0.0
H3193 H 0.41043 0.30817 0.67838 0.0
H3194 H 0.42407 0.28805 0.65694 0.0
H3195 H 0.4298 0.30286 0.65871 0.0
H3196 H 0.45056 0.34145 0.64895 0.0
H3197 H 0.45607 0.36158 0.66787 0.0
H3198 H 0.44412 0.35638 0.67694 0.0
H3199 H 0.43838 0.33631 0.6581 0.0
C3200 C 0.08091 0.43504 0.36917 0.0
C3201 C 0.08283 0.42647 0.36653 0.0
C3202 C 0.07099 0.42081 0.37558 0.0
C3203 C 0.07792 0.41944 0.3697 0.0
C3204 C 0.06896 0.42944 0.378 0.0
C3205 C 0.07389 0.43646 0.37485 0.0
U3206 U 0.09819 0.44516 0.35417 0.0
O3207 O 0.09902 0.45827 0.3483 0.0
O3208 O 0.10925 0.4538 0.35724 0.0
C3209 C 0.10627 0.46024 0.35245 0.0
C3210 C 0.08629 0.44251 0.36627 0.0
C3211 C 0.10695 0.46911 0.35621 0.0
C3212 C 0.10167 0.48102 0.36534 0.0
C3213 C 0.10069 0.47254 0.36196 0.0
C3214 C 0.11513 0.4827 0.3573 0.0
C3215 C 0.1089 0.48622 0.36302 0.0
C3216 C 0.11415 0.47426 0.35393 0.0
C3217 C 0.10767 0.42908 0.33662 0.0
C3218 C 0.11818 0.43158 0.32494 0.0
C3219 C 0.11234 0.4171 0.32736 0.0
C3220 C 0.10739 0.42024 0.33431 0.0
C3221 C 0.11772 0.42273 0.32254 0.0
C3222 C 0.11312 0.43476 0.33192 0.0
C3223 C 0.10208 0.43197 0.3439 0.0
O3224 O 0.09471 0.44177 0.36768 0.0
O3225 O 0.08448 0.4457 0.35852 0.0
O3226 O 0.09595 0.43768 0.3421 0.0
O3227 O 0.10592 0.43337 0.35143 0.0
H3228 H 0.0882 0.42522 0.36211 0.0
H3229 H 0.07965 0.41289 0.36768 0.0
H3230 H 0.06352 0.43077 0.3823 0.0
H3231 H 0.07225 0.44301 0.37692 0.0
H3232 H 0.09674 0.48353 0.36973 0.0
H3233 H 0.09508 0.46868 0.36383 0.0
H3234 H 0.12088 0.4864 0.35553 0.0
H3235 H 0.11908 0.47173 0.34955 0.0
H3236 H 0.12233 0.43602 0.32134 0.0
H3237 H 0.112 0.41023 0.32576 0.0
H3238 H 0.10328 0.41574 0.33789 0.0
H3239 H 0.11344 0.44161 0.33362 0.0
C3240 C 0.34068 0.33246 0.11997 0.0
C3241 C 0.34541 0.32685 0.11444 0.0
C3242 C 0.35464 0.32226 0.12661 0.0
C3243 C 0.35228 0.3218 0.11774 0.0
C3244 C 0.34999 0.32799 0.13207 0.0
C3245 C 0.34306 0.33297 0.1288 0.0
U3246 U 0.33016 0.3487 0.10392 0.0
O3247 O 0.31694 0.34908 0.09834 0.0
O3248 O 0.32154 0.35994 0.10644 0.0
C3249 C 0.31499 0.35654 0.10209 0.0
C3250 C 0.33321 0.33773 0.11676 0.0
C3251 C 0.30626 0.35735 0.10613 0.0
C3252 C 0.29356 0.35133 0.11357 0.0
C3253 C 0.30204 0.35032 0.11023 0.0
C3254 C 0.29346 0.36638 0.10881 0.0
C3255 C 0.28918 0.35939 0.11291 0.0
C3256 C 0.30189 0.36537 0.10548 0.0
C3257 C 0.34529 0.35724 0.08527 0.0
C3258 C 0.34302 0.36936 0.07523 0.0
C3259 C 0.35605 0.36052 0.07414 0.0
C3260 C 0.3532 0.35541 0.0811 0.0
C3261 C 0.35107 0.36762 0.07116 0.0
C3262 C 0.34015 0.3642 0.08226 0.0
C3263 C 0.34296 0.35199 0.09299 0.0
O3264 O 0.334 0.34623 0.11757 0.0
O3265 O 0.32969 0.33539 0.1093 0.0
O3266 O 0.33734 0.34564 0.09183 0.0
O3267 O 0.34178 0.35628 0.10032 0.0
H3268 H 0.34378 0.32633 0.10759 0.0
H3269 H 0.35572 0.31747 0.11333 0.0
H3270 H 0.35178 0.32875 0.13886 0.0
H3271 H 0.33957 0.33727 0.13318 0.0
H3272 H 0.29045 0.34582 0.1167 0.0
H3273 H 0.30526 0.34406 0.11079 0.0
H3274 H 0.29022 0.37261 0.10802 0.0
H3275 H 0.30498 0.37086 0.10227 0.0
H3276 H 0.33899 0.37473 0.07304 0.0
H3277 H 0.36234 0.35908 0.07127 0.0
H3278 H 0.35729 0.35011 0.08336 0.0
H3279 H 0.33401 0.36571 0.08541 0.0
C3280 C 0.44353 0.59094 0.87014 0.0
C3281 C 0.44157 0.59948 0.86748 0.0
C3282 C 0.45326 0.60524 0.87666 0.0
C3283 C 0.44638 0.60656 0.87071 0.0
C3284 C 0.4553 0.59665 0.87916 0.0
C3285 C 0.45046 0.58958 0.87596 0.0
U3286 U 0.42699 0.58031 0.8546 0.0
O3287 O 0.4265 0.56701 0.84917 0.0
O3288 O 0.41584 0.57172 0.85748 0.0
C3289 C 0.4191 0.56513 0.85307 0.0
C3290 C 0.4383 0.58342 0.86714 0.0
C3291 C 0.41823 0.55639 0.85708 0.0
C3292 C 0.42416 0.54357 0.86437 0.0
C3293 C 0.42525 0.55206 0.86107 0.0
C3294 C 0.40907 0.5437 0.85976 0.0
C3295 C 0.41604 0.5393 0.86376 0.0
C3296 C 0.41016 0.55214 0.85648 0.0
C3297 C 0.41745 0.59483 0.83596 0.0
C3298 C 0.40335 0.59932 0.8301 0.0
C3299 C 0.41633 0.60081 0.82129 0.0
C3300 C 0.42133 0.59718 0.828 0.0
C3301 C 0.40737 0.60231 0.82243 0.0
C3302 C 0.40834 0.59562 0.83682 0.0
C3303 C 0.42313 0.59285 0.84355 0.0
O3304 O 0.42983 0.58416 0.86813 0.0
O3305 O 0.4405 0.58006 0.85956 0.0
O3306 O 0.42959 0.58735 0.8423 0.0
O3307 O 0.41933 0.59192 0.85118 0.0
H3308 H 0.43627 0.60069 0.86297 0.0
H3309 H 0.44464 0.61308 0.86864 0.0
H3310 H 0.46069 0.59536 0.88352 0.0
H3311 H 0.45212 0.58304 0.87805 0.0
H3312 H 0.42965 0.54036 0.86743 0.0
H3313 H 0.43155 0.55519 0.86158 0.0
H3314 H 0.4028 0.54055 0.859 0.0
H3315 H 0.40469 0.55533 0.85335 0.0
H3316 H 0.39645 0.60038 0.83116 0.0
H3317 H 0.41959 0.60292 0.81538 0.0
H3318 H 0.42831 0.59666 0.82714 0.0
H3319 H 0.40512 0.59385 0.84285 0.0
C3320 C 0.18426 0.6941 0.61865 0.0
C3321 C 0.17565 0.69181 0.61654 0.0
C3322 C 0.17014 0.70448 0.62447 0.0
C3323 C 0.16865 0.69693 0.61946 0.0
C3324 C 0.17878 0.70678 0.62649 0.0
C3325 C 0.18576 0.70164 0.62361 0.0
U3326 U 0.19465 0.67675 0.60388 0.0
O3327 O 0.20784 0.67596 0.59826 0.0
O3328 O 0.20323 0.66567 0.60709 0.0
C3329 C 0.20975 0.6687 0.60242 0.0
C3330 C 0.19174 0.68864 0.61592 0.0
C3331 C 0.21856 0.66795 0.6063 0.0
C3332 C 0.23135 0.67402 0.61351 0.0
C3333 C 0.22283 0.67502 0.61027 0.0
C3334 C 0.23139 0.65894 0.60886 0.0
C3335 C 0.23573 0.66595 0.61287 0.0
C3336 C 0.22292 0.65993 0.60564 0.0
C3337 C 0.17977 0.66684 0.58589 0.0
C3338 C 0.18152 0.65321 0.57789 0.0
C3339 C 0.16999 0.66326 0.57396 0.0
C3340 C 0.1727 0.66896 0.58052 0.0
C3341 C 0.17428 0.65527 0.57264 0.0
C3342 C 0.18428 0.65898 0.58446 0.0
C3343 C 0.18185 0.67271 0.59322 0.0
O3344 O 0.19093 0.68022 0.61731 0.0
O3345 O 0.19513 0.69046 0.60826 0.0
O3346 O 0.18744 0.67901 0.59164 0.0
O3347 O 0.18298 0.66902 0.60087 0.0
H3348 H 0.17433 0.68603 0.61269 0.0
H3349 H 0.16207 0.69501 0.61777 0.0
H3350 H 0.18013 0.71247 0.63045 0.0
H3351 H 0.19234 0.70351 0.62534 0.0
H3352 H 0.2345 0.67956 0.61657 0.0
H3353 H 0.21963 0.68129 0.61082 0.0
H3354 H 0.23461 0.65271 0.60806 0.0
H3355 H 0.21978 0.65442 0.60252 0.0
H3356 H 0.18495 0.6471 0.57699 0.0
H3357 H 0.16431 0.66496 0.57012 0.0
H3358 H 0.1691 0.67496 0.58156 0.0
H3359 H 0.18977 0.65722 0.58854 0.0
C3360 C 0.08108 0.59132 0.15702 0.0
C3361 C 0.08351 0.59994 0.15897 0.0
C3362 C 0.07129 0.60555 0.1504 0.0
C3363 C 0.07866 0.60698 0.15569 0.0
C3364 C 0.06878 0.5969 0.14865 0.0
C3365 C 0.07364 0.58987 0.1519 0.0
U3366 U 0.09819 0.58088 0.17209 0.0
O3367 O 0.09872 0.56777 0.17804 0.0
O3368 O 0.10899 0.57194 0.16899 0.0
C3369 C 0.10592 0.56563 0.17391 0.0
C3370 C 0.08633 0.58379 0.16002 0.0
C3371 C 0.10648 0.55669 0.17032 0.0
C3372 C 0.10322 0.54566 0.15935 0.0
C3373 C 0.10213 0.55414 0.16268 0.0
C3374 C 0.11298 0.54221 0.17126 0.0
C3375 C 0.10867 0.53958 0.1636 0.0
C3376 C 0.11186 0.55064 0.17458 0.0
C3377 C 0.10852 0.59611 0.18965 0.0
C3378 C 0.1211 0.59327 0.19896 0.0
C3379 C 0.11342 0.60704 0.20001 0.0
C3380 C 0.10764 0.60434 0.19353 0.0
C3381 C 0.12023 0.60158 0.20273 0.0
C3382 C 0.11523 0.59052 0.19246 0.0
C3383 C 0.10259 0.59386 0.18242 0.0
O3384 O 0.09476 0.58433 0.15859 0.0
O3385 O 0.08445 0.5807 0.16779 0.0
O3386 O 0.09622 0.58841 0.1842 0.0
O3387 O 0.10623 0.59244 0.1748 0.0
H3388 H 0.0892 0.60123 0.16295 0.0
H3389 H 0.08077 0.61356 0.15719 0.0
H3390 H 0.06301 0.59555 0.14482 0.0
H3391 H 0.0716 0.58328 0.15038 0.0
H3392 H 0.09978 0.54385 0.15345 0.0
H3393 H 0.09796 0.55872 0.15926 0.0
H3394 H 0.11739 0.53783 0.1746 0.0
H3395 H 0.11534 0.55249 0.18045 0.0
H3396 H 0.12635 0.58899 0.20095 0.0
H3397 H 0.11271 0.61351 0.20277 0.0
H3398 H 0.10255 0.60876 0.19142 0.0
H3399 H 0.11603 0.58415 0.18952 0.0
C3400 C 0.18448 0.33218 0.9052 0.0
C3401 C 0.17595 0.33342 0.90827 0.0
C3402 C 0.17059 0.32198 0.89853 0.0
C3403 C 0.16907 0.32839 0.90495 0.0
C3404 C 0.17913 0.32081 0.89544 0.0
C3405 C 0.18601 0.32584 0.89877 0.0
U3406 U 0.19445 0.34897 0.92103 0.0
O3407 O 0.2075 0.34943 0.927 0.0
O3408 O 0.20325 0.36003 0.91837 0.0
C3409 C 0.20962 0.35677 0.92309 0.0
C3410 C 0.19182 0.33753 0.90846 0.0
C3411 C 0.21851 0.35743 0.91939 0.0
C3412 C 0.23102 0.35143 0.91162 0.0
C3413 C 0.22243 0.35059 0.91471 0.0
C3414 C 0.23182 0.36596 0.91775 0.0
C3415 C 0.23585 0.35911 0.91317 0.0
C3416 C 0.22327 0.36511 0.92083 0.0
C3417 C 0.17897 0.35835 0.93899 0.0
C3418 C 0.18147 0.37046 0.94901 0.0
C3419 C 0.16807 0.36217 0.94982 0.0
C3420 C 0.17088 0.35691 0.94294 0.0
C3421 C 0.17329 0.36904 0.95292 0.0
C3422 C 0.18431 0.36513 0.94209 0.0
C3423 C 0.18139 0.3528 0.9315 0.0
O3424 O 0.19104 0.34599 0.9074 0.0
O3425 O 0.1949 0.33542 0.91618 0.0
O3426 O 0.1869 0.34641 0.93301 0.0
O3427 O 0.18281 0.3568 0.92405 0.0
H3428 H 0.17461 0.33831 0.9132 0.0
H3429 H 0.16254 0.32957 0.90736 0.0
H3430 H 0.18052 0.31591 0.89054 0.0
H3431 H 0.19254 0.32478 0.8963 0.0
H3432 H 0.23385 0.3461 0.90796 0.0
H3433 H 0.21888 0.34461 0.91348 0.0
H3434 H 0.23533 0.37193 0.91909 0.0
H3435 H 0.22038 0.37046 0.92444 0.0
H3436 H 0.18565 0.37568 0.95129 0.0
H3437 H 0.16168 0.36099 0.9526 0.0
H3438 H 0.16663 0.35176 0.94062 0.0
H3439 H 0.1906 0.36634 0.93911 0.0
C3440 C 0.44288 0.43484 0.65711 0.0
C3441 C 0.44061 0.42621 0.6592 0.0
C3442 C 0.45292 0.42074 0.65072 0.0
C3443 C 0.44557 0.41922 0.656 0.0
C3444 C 0.45518 0.42939 0.6487 0.0
C3445 C 0.45021 0.43636 0.65188 0.0
U3446 U 0.42598 0.44528 0.67239 0.0
O3447 O 0.42548 0.45846 0.6781 0.0
O3448 O 0.41501 0.45406 0.6694 0.0
C3449 C 0.41819 0.46051 0.67407 0.0
C3450 C 0.43756 0.44231 0.66008 0.0
C3451 C 0.41765 0.46932 0.67019 0.0
C3452 C 0.4233 0.48111 0.66117 0.0
C3453 C 0.42403 0.4726 0.66452 0.0
C3454 C 0.40978 0.48307 0.66907 0.0
C3455 C 0.41618 0.48647 0.66346 0.0
C3456 C 0.41052 0.47461 0.6724 0.0
C3457 C 0.41608 0.43073 0.69061 0.0
C3458 C 0.40178 0.43099 0.69753 0.0
C3459 C 0.41341 0.42233 0.70379 0.0
C3460 C 0.41903 0.42511 0.69718 0.0
C3461 C 0.40468 0.42512 0.70397 0.0
C3462 C 0.40745 0.43383 0.69093 0.0
C3463 C 0.42191 0.43258 0.68316 0.0
O3464 O 0.42911 0.4416 0.65888 0.0
O3465 O 0.43959 0.44559 0.66774 0.0
O3466 O 0.42837 0.43801 0.68459 0.0
O3467 O 0.41818 0.43369 0.67552 0.0
H3468 H 0.43498 0.42488 0.66325 0.0
H3469 H 0.4437 0.41262 0.6577 0.0
H3470 H 0.46071 0.43078 0.64453 0.0
H3471 H 0.45206 0.44297 0.65016 0.0
H3472 H 0.42826 0.48346 0.65673 0.0
H3473 H 0.42957 0.46861 0.66269 0.0
H3474 H 0.40425 0.48702 0.67098 0.0
H3475 H 0.40553 0.47221 0.67678 0.0
H3476 H 0.39507 0.43318 0.69748 0.0
H3477 H 0.41577 0.41764 0.70851 0.0
H3478 H 0.42562 0.42257 0.69701 0.0
H3479 H 0.40502 0.43819 0.68593 0.0
C3480 C 0.34016 0.69335 0.40699 0.0
C3481 C 0.3477 0.69476 0.41201 0.0
C3482 C 0.35406 0.70349 0.40027 0.0
C3483 C 0.35457 0.69982 0.40869 0.0
C3484 C 0.34648 0.70209 0.39532 0.0
C3485 C 0.33961 0.69707 0.39865 0.0
U3486 U 0.33009 0.67676 0.42295 0.0
O3487 O 0.31703 0.67648 0.42897 0.0
O3488 O 0.32119 0.66578 0.42042 0.0
C3489 C 0.31487 0.6691 0.42517 0.0
C3490 C 0.33281 0.68805 0.41029 0.0
C3491 C 0.30597 0.66849 0.42152 0.0
C3492 C 0.29476 0.67252 0.41102 0.0
C3493 C 0.30324 0.6735 0.41436 0.0
C3494 C 0.29169 0.66156 0.42197 0.0
C3495 C 0.28893 0.66646 0.41474 0.0
C3496 C 0.30012 0.66258 0.42531 0.0
C3497 C 0.34517 0.66745 0.44117 0.0
C3498 C 0.34442 0.65381 0.44932 0.0
C3499 C 0.35448 0.66512 0.45378 0.0
C3500 C 0.35159 0.67041 0.44695 0.0
C3501 C 0.35099 0.65673 0.45502 0.0
C3502 C 0.3415 0.65915 0.44246 0.0
C3503 C 0.34303 0.67295 0.43354 0.0
O3504 O 0.33358 0.67957 0.40928 0.0
O3505 O 0.32968 0.69024 0.41797 0.0
O3506 O 0.33765 0.67949 0.43489 0.0
O3507 O 0.34166 0.66891 0.42611 0.0
H3508 H 0.34827 0.69195 0.41846 0.0
H3509 H 0.36034 0.70077 0.41265 0.0
H3510 H 0.3458 0.70496 0.3889 0.0
H3511 H 0.33385 0.6961 0.39469 0.0
H3512 H 0.29281 0.67639 0.40544 0.0
H3513 H 0.30766 0.67811 0.41133 0.0
H3514 H 0.28731 0.65698 0.42508 0.0
H3515 H 0.30208 0.65868 0.43088 0.0
H3516 H 0.34166 0.64735 0.45007 0.0
H3517 H 0.35974 0.66747 0.45786 0.0
H3518 H 0.35459 0.67675 0.44602 0.0
H3519 H 0.33654 0.65672 0.43805 0.0
C3520 C 0.36947 0.08274 0.43487 0.0
C3521 C 0.36377 0.07828 0.42924 0.0
C3522 C 0.37606 0.07317 0.42045 0.0
C3523 C 0.36704 0.07347 0.42218 0.0
C3524 C 0.38173 0.07756 0.42617 0.0
C3525 C 0.37847 0.08227 0.43329 0.0
U3526 U 0.35337 0.09878 0.4456 0.0
O3527 O 0.3478 0.09894 0.45885 0.0
O3528 O 0.35587 0.10988 0.4544 0.0
C3529 C 0.35154 0.10638 0.46091 0.0
C3530 C 0.36623 0.08787 0.44242 0.0
C3531 C 0.35565 0.107 0.46963 0.0
C3532 C 0.36399 0.10094 0.48172 0.0
C3533 C 0.36038 0.10009 0.47334 0.0
C3534 C 0.35819 0.11558 0.48277 0.0
C3535 C 0.36299 0.10874 0.48652 0.0
C3536 C 0.35458 0.11472 0.47443 0.0
C3537 C 0.33472 0.10782 0.43087 0.0
C3538 C 0.32637 0.12131 0.43203 0.0
C3539 C 0.3224 0.11045 0.42127 0.0
C3540 C 0.32918 0.10509 0.42415 0.0
C3541 C 0.32101 0.11869 0.42505 0.0
C3542 C 0.33318 0.11591 0.43493 0.0
C3543 C 0.34241 0.10239 0.43291 0.0
O3544 O 0.36701 0.09637 0.44175 0.0
O3545 O 0.35874 0.08545 0.44582 0.0
O3546 O 0.34126 0.09589 0.43837 0.0
O3547 O 0.34981 0.10654 0.43409 0.0
H3548 H 0.3568 0.07848 0.43031 0.0
H3549 H 0.36247 0.06994 0.41812 0.0
H3550 H 0.3887 0.07748 0.42506 0.0
H3551 H 0.38299 0.08562 0.43756 0.0
H3552 H 0.36748 0.09546 0.48448 0.0
H3553 H 0.36124 0.09404 0.46979 0.0
H3554 H 0.35732 0.12167 0.48625 0.0
H3555 H 0.35093 0.12012 0.47171 0.0
H3556 H 0.32541 0.12759 0.43512 0.0
H3557 H 0.31847 0.10829 0.41581 0.0
H3558 H 0.33028 0.09892 0.42089 0.0
H3559 H 0.33738 0.11813 0.44015 0.0
C3560 C 0.86891 0.44321 0.59143 0.0
C3561 C 0.86352 0.44544 0.59851 0.0
C3562 C 0.87556 0.45317 0.60546 0.0
C3563 C 0.86681 0.45045 0.60544 0.0
C3564 C 0.88093 0.4509 0.59841 0.0
C3565 C 0.87762 0.446 0.59144 0.0
U3566 U 0.85346 0.42621 0.58124 0.0
O3567 O 0.84749 0.4257 0.56817 0.0
O3568 O 0.85638 0.41529 0.57236 0.0
C3569 C 0.85155 0.41845 0.56602 0.0
C3570 C 0.8657 0.43791 0.58402 0.0
C3571 C 0.85523 0.41792 0.55712 0.0
C3572 C 0.86329 0.42393 0.54482 0.0
C3573 C 0.86017 0.42467 0.55341 0.0
C3574 C 0.85664 0.40967 0.54359 0.0
C3575 C 0.8615 0.41644 0.53978 0.0
C3576 C 0.85353 0.41042 0.55215 0.0
C3577 C 0.8359 0.41589 0.59626 0.0
C3578 C 0.82714 0.40294 0.59334 0.0
C3579 C 0.82484 0.41125 0.6066 0.0
C3580 C 0.83139 0.41706 0.60412 0.0
C3581 C 0.8227 0.40411 0.60128 0.0
C3582 C 0.83368 0.40885 0.59081 0.0
C3583 C 0.84314 0.42187 0.59424 0.0
O3584 O 0.86703 0.42947 0.58463 0.0
O3585 O 0.85793 0.43987 0.58097 0.0
O3586 O 0.84143 0.42831 0.58884 0.0
O3587 O 0.85076 0.41823 0.59284 0.0
H3588 H 0.85679 0.44331 0.59868 0.0
H3589 H 0.86256 0.4521 0.61084 0.0
H3590 H 0.88768 0.45297 0.59826 0.0
H3591 H 0.88189 0.44436 0.58606 0.0
H3592 H 0.86717 0.42919 0.54215 0.0
H3593 H 0.8616 0.4305 0.55714 0.0
H3594 H 0.85512 0.40384 0.53991 0.0
H3595 H 0.84971 0.40514 0.55487 0.0
H3596 H 0.82561 0.39744 0.58918 0.0
H3597 H 0.82159 0.41219 0.6128 0.0
H3598 H 0.83305 0.4224 0.60844 0.0
H3599 H 0.83711 0.40783 0.58471 0.0
C3600 C 0.33115 0.11829 0.34069 0.0
C3601 C 0.33333 0.11575 0.34922 0.0
C3602 C 0.32122 0.12428 0.35505 0.0
C3603 C 0.32841 0.11872 0.35634 0.0
C3604 C 0.31895 0.12664 0.34648 0.0
C3605 C 0.32389 0.1237 0.33937 0.0
U3606 U 0.34845 0.10347 0.33061 0.0
O3607 O 0.3492 0.09726 0.31763 0.0
O3608 O 0.35939 0.10638 0.3218 0.0
C3609 C 0.35637 0.10143 0.31548 0.0
C3610 C 0.33646 0.11547 0.33314 0.0
C3611 C 0.35679 0.10515 0.30659 0.0
C3612 C 0.35378 0.11666 0.29608 0.0
C3613 C 0.35264 0.11301 0.30441 0.0
C3614 C 0.36303 0.10455 0.29198 0.0
C3615 C 0.35915 0.11257 0.28982 0.0
C3616 C 0.36187 0.1009 0.30028 0.0
C3617 C 0.35832 0.08634 0.34672 0.0
C3618 C 0.36949 0.07536 0.34402 0.0
C3619 C 0.36315 0.07686 0.35843 0.0
C3620 C 0.35791 0.08365 0.35544 0.0
C3621 C 0.36893 0.07258 0.35275 0.0
C3622 C 0.36416 0.08218 0.34099 0.0
C3623 C 0.35257 0.09353 0.34398 0.0
O3624 O 0.34486 0.11701 0.33374 0.0
O3625 O 0.33471 0.10767 0.33005 0.0
O3626 O 0.34635 0.09159 0.33841 0.0
O3627 O 0.35632 0.10106 0.34238 0.0
H3628 H 0.33886 0.11151 0.35038 0.0
H3629 H 0.33022 0.11666 0.36285 0.0
H3630 H 0.31345 0.13091 0.34529 0.0
H3631 H 0.32209 0.12571 0.33285 0.0
H3632 H 0.35048 0.12272 0.29456 0.0
H3633 H 0.34864 0.11637 0.30917 0.0
H3634 H 0.36719 0.10122 0.28735 0.0
H3635 H 0.36512 0.09482 0.30184 0.0
H3636 H 0.37395 0.07219 0.33955 0.0
H3637 H 0.36274 0.07497 0.36523 0.0
H3638 H 0.35352 0.08683 0.35997 0.0
H3639 H 0.36458 0.08421 0.33424 0.0
C3640 C 0.65439 0.582 0.09032 0.0
C3641 C 0.65841 0.58182 0.09854 0.0
C3642 C 0.6473 0.57174 0.10394 0.0
C3643 C 0.6549 0.57673 0.10529 0.0
C3644 C 0.64328 0.57201 0.09571 0.0
C3645 C 0.64681 0.57707 0.08896 0.0
U3646 U 0.67074 0.59839 0.08035 0.0
O3647 O 0.67641 0.5988 0.06715 0.0
O3648 O 0.66824 0.60961 0.07172 0.0
C3649 C 0.6727 0.60628 0.06521 0.0
C3650 C 0.65783 0.5874 0.0831 0.0
C3651 C 0.66876 0.60705 0.05645 0.0
C3652 C 0.65923 0.60193 0.04483 0.0
C3653 C 0.66262 0.60104 0.0533 0.0
C3654 C 0.66799 0.61489 0.04264 0.0
C3655 C 0.66193 0.60884 0.03938 0.0
C3656 C 0.67138 0.61398 0.05107 0.0
C3657 C 0.6896 0.60734 0.0948 0.0
C3658 C 0.69616 0.62149 0.098 0.0
C3659 C 0.70411 0.60824 0.10115 0.0
C3660 C 0.69721 0.60328 0.09785 0.0
C3661 C 0.70354 0.61739 0.10157 0.0
C3662 C 0.68926 0.61652 0.09463 0.0
C3663 C 0.68183 0.60187 0.09296 0.0
O3664 O 0.65712 0.59588 0.0841 0.0
O3665 O 0.66542 0.58504 0.07987 0.0
O3666 O 0.68287 0.59534 0.08749 0.0
O3667 O 0.67433 0.60592 0.09201 0.0
H3668 H 0.66423 0.58563 0.09974 0.0
H3669 H 0.65806 0.57677 0.11161 0.0
H3670 H 0.63745 0.56823 0.09447 0.0
H3671 H 0.6436 0.57713 0.08267 0.0
H3672 H 0.65446 0.59725 0.04257 0.0
H3673 H 0.66048 0.59567 0.05736 0.0
H3674 H 0.67022 0.62024 0.03861 0.0
H3675 H 0.67612 0.61868 0.05338 0.0
H3676 H 0.69544 0.62851 0.09834 0.0
H3677 H 0.70973 0.60487 0.10381 0.0
H3678 H 0.69766 0.59623 0.09808 0.0
H3679 H 0.68349 0.61986 0.09231 0.0
C3680 C 0.69346 0.40616 0.34072 0.0
C3681 C 0.69151 0.40867 0.34932 0.0
C3682 C 0.70332 0.39953 0.35484 0.0
C3683 C 0.69637 0.40535 0.35632 0.0
C3684 C 0.70528 0.39711 0.34621 0.0
C3685 C 0.7004 0.4004 0.33923 0.0
U3686 U 0.67714 0.42197 0.33007 0.0
O3687 O 0.67665 0.42724 0.31671 0.0
O3688 O 0.66586 0.41922 0.3216 0.0
C3689 C 0.66915 0.42349 0.31493 0.0
C3690 C 0.68818 0.40922 0.33324 0.0
C3691 C 0.66818 0.41939 0.30625 0.0
C3692 C 0.67383 0.41145 0.29369 0.0
C3693 C 0.67498 0.41483 0.30214 0.0
C3694 C 0.6591 0.4171 0.29341 0.0
C3695 C 0.66586 0.41253 0.28923 0.0
C3696 C 0.66025 0.42046 0.30182 0.0
C3697 C 0.6681 0.44108 0.34419 0.0
C3698 C 0.65412 0.44732 0.34849 0.0
C3699 C 0.66717 0.45611 0.34925 0.0
C3700 C 0.67207 0.44912 0.34603 0.0
C3701 C 0.65818 0.45521 0.3508 0.0
C3702 C 0.65901 0.44034 0.34519 0.0
C3703 C 0.67365 0.43333 0.34244 0.0
O3704 O 0.67969 0.40845 0.33411 0.0
O3705 O 0.69052 0.41669 0.32974 0.0
O3706 O 0.68011 0.43431 0.33688 0.0
O3707 O 0.6697 0.42576 0.34171 0.0
H3708 H 0.68619 0.41312 0.35062 0.0
H3709 H 0.69474 0.40736 0.3629 0.0
H3710 H 0.7105 0.39255 0.34487 0.0
H3711 H 0.70199 0.39835 0.33265 0.0
H3712 H 0.67916 0.40795 0.29066 0.0
H3713 H 0.68117 0.41395 0.30541 0.0
H3714 H 0.65297 0.41824 0.29011 0.0
H3715 H 0.65495 0.42403 0.30483 0.0
H3716 H 0.64725 0.4463 0.34976 0.0
H3717 H 0.6705 0.46211 0.35093 0.0
H3718 H 0.67906 0.44988 0.34538 0.0
H3719 H 0.65573 0.43423 0.34389 0.0
C3720 C 0.15605 0.9433 0.93489 0.0
C3721 C 0.15851 0.94146 0.92626 0.0
C3722 C 0.14944 0.95342 0.92089 0.0
C3723 C 0.15524 0.94646 0.91933 0.0
C3724 C 0.14715 0.95534 0.92958 0.0
C3725 C 0.15039 0.95031 0.93648 0.0
U3726 U 0.17176 0.92664 0.94512 0.0
O3727 O 0.17735 0.92607 0.95837 0.0
O3728 O 0.16907 0.91541 0.95368 0.0
C3729 C 0.17355 0.91862 0.96024 0.0
C3730 C 0.15912 0.9379 0.94228 0.0
C3731 C 0.16955 0.91781 0.96898 0.0
C3732 C 0.15897 0.92202 0.98006 0.0
C3733 C 0.16265 0.92315 0.97173 0.0
C3734 C 0.16908 0.91025 0.98297 0.0
C3735 C 0.16208 0.91547 0.98575 0.0
C3736 C 0.17275 0.9114 0.97468 0.0
C3737 C 0.19039 0.91784 0.93021 0.0
C3738 C 0.19891 0.90446 0.93134 0.0
C3739 C 0.20274 0.91539 0.9206 0.0
C3740 C 0.19588 0.92064 0.92347 0.0
C3741 C 0.20432 0.90721 0.92444 0.0
C3742 C 0.19201 0.90975 0.93423 0.0
C3743 C 0.18271 0.92324 0.93236 0.0
O3744 O 0.15821 0.92943 0.94136 0.0
O3745 O 0.16668 0.9401 0.94567 0.0
O3746 O 0.1839 0.9296 0.93799 0.0
O3747 O 0.17529 0.91911 0.93343 0.0
H3748 H 0.16291 0.9361 0.92487 0.0
H3749 H 0.15715 0.94481 0.91273 0.0
H3750 H 0.14291 0.96079 0.93105 0.0
H3751 H 0.14846 0.95189 0.9431 0.0
H3752 H 0.15374 0.92632 0.98206 0.0
H3753 H 0.16011 0.92817 0.96746 0.0
H3754 H 0.17163 0.90516 0.98715 0.0
H3755 H 0.17809 0.90722 0.97269 0.0
H3756 H 0.19992 0.89816 0.93437 0.0
H3757 H 0.20659 0.9176 0.9151 0.0
H3758 H 0.19469 0.9268 0.92022 0.0
H3759 H 0.18782 0.90745 0.93943 0.0
C3760 C 0.33152 0.9076 0.18615 0.0
C3761 C 0.33402 0.90931 0.17749 0.0
C3762 C 0.32162 0.90095 0.17207 0.0
C3763 C 0.32914 0.90597 0.17052 0.0
C3764 C 0.31905 0.89941 0.18074 0.0
C3765 C 0.32396 0.9027 0.18771 0.0
U3766 U 0.34882 0.92266 0.19598 0.0
O3767 O 0.34974 0.92877 0.20899 0.0
O3768 O 0.35989 0.91971 0.2046 0.0
C3769 C 0.35695 0.9246 0.211 0.0
C3770 C 0.33687 0.9106 0.19359 0.0
C3771 C 0.35753 0.92083 0.21986 0.0
C3772 C 0.35403 0.90968 0.23061 0.0
C3773 C 0.35293 0.91329 0.22226 0.0
C3774 C 0.36423 0.92115 0.23426 0.0
C3775 C 0.35981 0.91349 0.23668 0.0
C3776 C 0.36311 0.92476 0.22595 0.0
C3777 C 0.35876 0.93987 0.18019 0.0
C3778 C 0.37165 0.94888 0.18247 0.0
C3779 C 0.36319 0.95037 0.1692 0.0
C3780 C 0.35746 0.94393 0.17211 0.0
C3781 C 0.37036 0.95285 0.17431 0.0
C3782 C 0.36583 0.94244 0.18543 0.0
C3783 C 0.35284 0.93273 0.18268 0.0
O3784 O 0.34528 0.90911 0.19292 0.0
O3785 O 0.33508 0.91842 0.19662 0.0
O3786 O 0.34665 0.93463 0.1883 0.0
O3787 O 0.35649 0.92511 0.18412 0.0
H3788 H 0.33981 0.91312 0.17613 0.0
H3789 H 0.33123 0.90732 0.1639 0.0
H3790 H 0.31334 0.89549 0.18213 0.0
H3791 H 0.32193 0.9013 0.19433 0.0
H3792 H 0.35033 0.90392 0.23233 0.0
H3793 H 0.34855 0.91018 0.21767 0.0
H3794 H 0.36872 0.92426 0.23874 0.0
H3795 H 0.36672 0.93058 0.22422 0.0
H3796 H 0.37717 0.95069 0.18648 0.0
H3797 H 0.36215 0.95328 0.16284 0.0
H3798 H 0.35209 0.94199 0.16795 0.0
H3799 H 0.36693 0.93937 0.1917 0.0
C3800 C 0.19285 0.12013 0.68424 0.0
C3801 C 0.19755 0.11436 0.67889 0.0
C3802 C 0.20254 0.12648 0.66977 0.0
C3803 C 0.20241 0.1175 0.67181 0.0
C3804 C 0.19791 0.13223 0.67522 0.0
C3805 C 0.19314 0.12909 0.68237 0.0
U3806 U 0.1766 0.10429 0.695 0.0
O3807 O 0.17652 0.09841 0.70815 0.0
O3808 O 0.16571 0.10681 0.70402 0.0
C3809 C 0.16912 0.10212 0.71034 0.0
C3810 C 0.1877 0.117 0.69184 0.0
C3811 C 0.16846 0.10575 0.71925 0.0
C3812 C 0.17153 0.11685 0.7302 0.0
C3813 C 0.17268 0.11348 0.72174 0.0
C3814 C 0.16199 0.10478 0.73374 0.0
C3815 C 0.16614 0.11255 0.7363 0.0
C3816 C 0.16317 0.10142 0.72533 0.0
C3817 C 0.16723 0.08588 0.68023 0.0
C3818 C 0.15429 0.07691 0.68247 0.0
C3819 C 0.16393 0.07396 0.67032 0.0
C3820 C 0.16932 0.08082 0.67292 0.0
C3821 C 0.15628 0.07198 0.67497 0.0
C3822 C 0.15973 0.08382 0.68508 0.0
C3823 C 0.17273 0.09353 0.6822 0.0
O3824 O 0.17921 0.11795 0.69126 0.0
O3825 O 0.18999 0.10945 0.69523 0.0
O3826 O 0.1793 0.09227 0.68755 0.0
O3827 O 0.16864 0.10094 0.68356 0.0
H3828 H 0.1975 0.10741 0.68017 0.0
H3829 H 0.20611 0.11289 0.66796 0.0
H3830 H 0.19787 0.13917 0.67388 0.0
H3831 H 0.18962 0.13369 0.68642 0.0
H3832 H 0.17485 0.12282 0.73196 0.0
H3833 H 0.17679 0.11693 0.71714 0.0
H3834 H 0.15764 0.1014 0.73815 0.0
H3835 H 0.15981 0.09548 0.72352 0.0
H3836 H 0.1485 0.0755 0.68624 0.0
H3837 H 0.1656 0.07039 0.66445 0.0
H3838 H 0.17505 0.08232 0.66905 0.0
H3839 H 0.158 0.08764 0.69077 0.0
H3840 H 0.11818 0.23393 0.37725 0.0
C3841 C 0.12419 0.23122 0.37979 0.0
C3842 C 0.12386 0.22413 0.38562 0.0
C3843 C 0.13233 0.23447 0.37692 0.0
H3844 H 0.13127 0.21483 0.39305 0.0
C3845 C 0.1316 0.22034 0.38861 0.0
C3846 C 0.13972 0.22345 0.38595 0.0
C3847 C 0.14005 0.23061 0.38023 0.0
C3848 C 0.13296 0.24119 0.36984 0.0
H3849 H 0.14636 0.23299 0.37813 0.0
C3850 C 0.12758 0.24873 0.36951 0.0
C3851 C 0.12863 0.25495 0.36273 0.0
C3852 C 0.1392 0.23997 0.36322 0.0
H3853 H 0.14325 0.23418 0.36306 0.0
C3854 C 0.14034 0.24613 0.35667 0.0
H3855 H 0.12269 0.24977 0.3745 0.0
C3856 C 0.13519 0.25359 0.35647 0.0
H3857 H 0.13642 0.25836 0.35141 0.0
H3858 H 0.14527 0.24514 0.35172 0.0
H3859 H 0.04131 0.86792 0.62765 0.0
C3860 C 0.04408 0.87401 0.62992 0.0
C3861 C 0.05116 0.87389 0.63576 0.0
C3862 C 0.04085 0.88205 0.62676 0.0
H3863 H 0.06043 0.88153 0.64292 0.0
C3864 C 0.05487 0.88173 0.63854 0.0
C3865 C 0.05159 0.88979 0.63583 0.0
C3866 C 0.04464 0.88991 0.62984 0.0
C3867 C 0.03406 0.8824 0.61976 0.0
H3868 H 0.04215 0.89614 0.6276 0.0
C3869 C 0.02621 0.87751 0.62012 0.0
C3870 C 0.01983 0.87849 0.61351 0.0
C3871 C 0.03548 0.88793 0.61257 0.0
H3872 H 0.04147 0.89163 0.612 0.0
C3873 C 0.02926 0.88876 0.60602 0.0
H3874 H 0.02496 0.87322 0.6256 0.0
C3875 C 0.02147 0.88413 0.6065 0.0
H3876 H 0.01669 0.88495 0.60136 0.0
H3877 H 0.03045 0.89306 0.60055 0.0
H3878 H 0.40717 0.79217 0.87826 0.0
C3879 C 0.40094 0.79473 0.88042 0.0
C3880 C 0.4007 0.80194 0.88611 0.0
C3881 C 0.39311 0.79127 0.87703 0.0
H3882 H 0.39251 0.81107 0.89293 0.0
C3883 C 0.39267 0.80549 0.88857 0.0
C3884 C 0.38484 0.80214 0.88536 0.0
C3885 C 0.38506 0.79496 0.87966 0.0
C3886 C 0.39325 0.78489 0.86968 0.0
H3887 H 0.37901 0.79251 0.87696 0.0
C3888 C 0.39738 0.77664 0.87024 0.0
C3889 C 0.39705 0.77076 0.86309 0.0
C3890 C 0.38905 0.78723 0.86188 0.0
H3891 H 0.38593 0.79354 0.86123 0.0
C3892 C 0.38889 0.78155 0.8548 0.0
H3893 H 0.40055 0.77472 0.87626 0.0
C3894 C 0.39282 0.7734 0.85539 0.0
H3895 H 0.39259 0.76913 0.84976 0.0
H3896 H 0.38567 0.78348 0.84882 0.0
H3897 H 0.48354 0.15783 0.12764 0.0
C3898 C 0.48093 0.15168 0.12996 0.0
C3899 C 0.47405 0.15166 0.13603 0.0
C3900 C 0.48416 0.14372 0.12663 0.0
H3901 H 0.46521 0.14381 0.14353 0.0
C3902 C 0.47058 0.14374 0.13891 0.0
C3903 C 0.47378 0.13577 0.13588 0.0
C3904 C 0.4805 0.13578 0.12964 0.0
C3905 C 0.49079 0.14356 0.11949 0.0
H3906 H 0.48292 0.12961 0.12717 0.0
C3907 C 0.49873 0.14826 0.11997 0.0
C3908 C 0.50496 0.14754 0.11319 0.0
C3909 C 0.48913 0.13842 0.11207 0.0
H3910 H 0.48307 0.13485 0.11146 0.0
C3911 C 0.49521 0.13785 0.10535 0.0
H3912 H 0.50017 0.15221 0.12566 0.0
C3913 C 0.50309 0.14232 0.10591 0.0
H3914 H 0.50777 0.14169 0.10066 0.0
H3915 H 0.49384 0.13386 0.09969 0.0
H3916 H 0.11684 0.79148 0.14893 0.0
C3917 C 0.12289 0.79401 0.14632 0.0
C3918 C 0.1227 0.8007 0.14 0.0
C3919 C 0.13098 0.79089 0.1495 0.0
H3920 H 0.13035 0.80942 0.13207 0.0
C3921 C 0.13052 0.80417 0.13683 0.0
C3922 C 0.13854 0.80123 0.13989 0.0
C3923 C 0.13877 0.79457 0.14616 0.0
C3924 C 0.1315 0.78443 0.15683 0.0
H3925 H 0.14505 0.79233 0.14849 0.0
C3926 C 0.12639 0.7767 0.15716 0.0
C3927 C 0.12751 0.77061 0.16406 0.0
C3928 C 0.13751 0.786 0.16358 0.0
H3929 H 0.14136 0.79192 0.1637 0.0
C3930 C 0.13873 0.77997 0.17025 0.0
H3931 H 0.12168 0.7754 0.15206 0.0
C3932 C 0.13389 0.77231 0.17043 0.0
H3933 H 0.13525 0.76765 0.17556 0.0
H3934 H 0.14352 0.78122 0.17528 0.0
H3935 H 0.48232 0.86767 0.39866 0.0
C3936 C 0.48002 0.8739 0.39622 0.0
C3937 C 0.47273 0.8742 0.39063 0.0
C3938 C 0.4839 0.88173 0.39916 0.0
H3939 H 0.46391 0.88252 0.38353 0.0
C3940 C 0.46955 0.88229 0.38781 0.0
C3941 C 0.47337 0.89008 0.39052 0.0
C3942 C 0.48058 0.8898 0.39613 0.0
C3943 C 0.49038 0.88171 0.40641 0.0
H3944 H 0.48337 0.89587 0.39846 0.0
C3945 C 0.49845 0.87723 0.40594 0.0
C3946 C 0.50452 0.87788 0.41289 0.0
C3947 C 0.48839 0.8865 0.41397 0.0
H3948 H 0.48222 0.88989 0.41456 0.0
C3949 C 0.49426 0.88696 0.42088 0.0
H3950 H 0.50011 0.87357 0.40013 0.0
C3951 C 0.50227 0.88275 0.42033 0.0
H3952 H 0.50674 0.88327 0.42578 0.0
H3953 H 0.49262 0.89067 0.42666 0.0
H3954 H 0.40769 0.23445 0.64746 0.0
C3955 C 0.40156 0.23163 0.6454 0.0
C3956 C 0.40153 0.22493 0.63909 0.0
C3957 C 0.39363 0.23445 0.64919 0.0
H3958 H 0.39368 0.2158 0.6319 0.0
C3959 C 0.39364 0.22103 0.63668 0.0
C3960 C 0.38572 0.22364 0.64034 0.0
C3961 C 0.38574 0.23047 0.64646 0.0
C3962 C 0.39343 0.24102 0.65646 0.0
H3963 H 0.3796 0.23252 0.64927 0.0
C3964 C 0.3986 0.24871 0.65647 0.0
C3965 C 0.39772 0.25499 0.66327 0.0
C3966 C 0.38773 0.23956 0.6635 0.0
H3967 H 0.3839 0.23365 0.66391 0.0
C3968 C 0.38683 0.24568 0.67013 0.0
H3969 H 0.40319 0.2498 0.65123 0.0
C3970 C 0.39167 0.25334 0.66997 0.0
H3971 H 0.39058 0.25804 0.67514 0.0
H3972 H 0.3823 0.2445 0.67542 0.0
H3973 H 0.04084 0.15751 0.8973 0.0
C3974 C 0.04368 0.15133 0.89537 0.0
C3975 C 0.05042 0.15118 0.88914 0.0
C3976 C 0.0409 0.14349 0.89934 0.0
H3977 H 0.05958 0.14321 0.88214 0.0
C3978 C 0.05434 0.14326 0.8869 0.0
C3979 C 0.0518 0.13544 0.89081 0.0
C3980 C 0.04495 0.13554 0.8969 0.0
C3981 C 0.03455 0.14359 0.90674 0.0
H3982 H 0.043 0.12948 0.89997 0.0
C3983 C 0.02653 0.14818 0.90637 0.0
C3984 C 0.02073 0.14805 0.91358 0.0
C3985 C 0.03668 0.13902 0.91441 0.0
H3986 H 0.04281 0.13557 0.91496 0.0
C3987 C 0.03101 0.13894 0.9215 0.0
H3988 H 0.02481 0.15177 0.90053 0.0
C3989 C 0.02312 0.14339 0.9211 0.0
H3990 H 0.01879 0.14308 0.92668 0.0
H3991 H 0.03275 0.13538 0.92735 0.0
H3992 H 0.37568 0.11756 0.23349 0.0
C3993 C 0.37821 0.12351 0.23063 0.0
C3994 C 0.38332 0.12309 0.22302 0.0
C3995 C 0.37599 0.1317 0.23421 0.0
H3996 H 0.39 0.13035 0.21312 0.0
C3997 C 0.38634 0.13078 0.21915 0.0
C3998 C 0.38484 0.13894 0.22295 0.0
C3999 C 0.37952 0.13936 0.23043 0.0
C4000 C 0.36931 0.13251 0.24126 0.0
H4001 H 0.37808 0.14566 0.2333 0.0
C4002 C 0.36964 0.12761 0.24911 0.0
C4003 C 0.36334 0.12903 0.25572 0.0
C4004 C 0.36246 0.13849 0.24006 0.0
H4005 H 0.36194 0.14222 0.23408 0.0
C4006 C 0.35617 0.13971 0.24648 0.0
H4007 H 0.37489 0.12301 0.25019 0.0
C4008 C 0.35661 0.13506 0.25426 0.0
H4009 H 0.35168 0.1362 0.2592 0.0
H4010 H 0.35094 0.14434 0.24545 0.0
H4011 H 0.15581 0.12914 0.48541 0.0
C4012 C 0.1497 0.13087 0.48233 0.0
C4013 C 0.14961 0.13715 0.47559 0.0
C4014 C 0.14186 0.12671 0.4849 0.0
H4015 H 0.14173 0.14367 0.46595 0.0
C4016 C 0.14177 0.13905 0.47131 0.0
C4017 C 0.13397 0.13506 0.47373 0.0
C4018 C 0.13399 0.12911 0.48068 0.0
C4019 C 0.14179 0.11936 0.49139 0.0
H4020 H 0.12787 0.12616 0.48259 0.0
C4021 C 0.14696 0.11932 0.4991 0.0
C4022 C 0.14638 0.11228 0.50512 0.0
C4023 C 0.1363 0.11218 0.48979 0.0
H4024 H 0.13249 0.11176 0.48385 0.0
C4025 C 0.13556 0.10542 0.49577 0.0
H4026 H 0.15132 0.12471 0.50044 0.0
C4027 C 0.14043 0.10552 0.50341 0.0
H4028 H 0.13948 0.10026 0.50803 0.0
H4029 H 0.13114 0.10006 0.4945 0.0
H4030 H 0.14655 0.90761 0.73442 0.0
C4031 C 0.14478 0.90137 0.73161 0.0
C4032 C 0.13857 0.90101 0.72486 0.0
C4033 C 0.14891 0.89364 0.73448 0.0
H4034 H 0.13177 0.89278 0.71577 0.0
C4035 C 0.13652 0.89299 0.72102 0.0
C4036 C 0.14052 0.88526 0.72372 0.0
C4037 C 0.14665 0.8856 0.73053 0.0
C4038 C 0.15621 0.89393 0.74091 0.0
H4039 H 0.14985 0.87964 0.73258 0.0
C4040 C 0.15549 0.89812 0.74913 0.0
C4041 C 0.16246 0.8977 0.75518 0.0
C4042 C 0.16405 0.88967 0.73878 0.0
H4043 H 0.16485 0.88653 0.7325 0.0
C4044 C 0.17096 0.88944 0.74467 0.0
H4045 H 0.14949 0.90138 0.75092 0.0
C4046 C 0.17017 0.89337 0.75282 0.0
H4047 H 0.1756 0.89302 0.75732 0.0
H4048 H 0.17695 0.88614 0.74292 0.0
H4049 H 0.36739 0.89707 0.98477 0.0
C4050 C 0.37361 0.89482 0.9823 0.0
C4051 C 0.37388 0.88833 0.97581 0.0
C4052 C 0.38143 0.8986 0.98534 0.0
H4053 H 0.38203 0.88091 0.96717 0.0
C4054 C 0.38192 0.88568 0.97239 0.0
C4055 C 0.38977 0.8893 0.97531 0.0
C4056 C 0.38947 0.89574 0.98184 0.0
C4057 C 0.38129 0.90619 0.9914 0.0
H4058 H 0.39549 0.8986 0.98419 0.0
C4059 C 0.37719 0.90588 0.99968 0.0
C4060 C 0.37762 0.91316 1.00537 0.0
C4061 C 0.38556 0.91388 0.98884 0.0
H4062 H 0.38868 0.91432 0.98251 0.0
C4063 C 0.38581 0.9211 0.99434 0.0
H4064 H 0.374 0.89994 1.00178 0.0
C4065 C 0.38191 0.92075 1.00253 0.0
H4066 H 0.38223 0.92647 1.00668 0.0
H4067 H 0.38909 0.92699 0.99226 0.0
H4068 H 0.37827 0.90653 0.2929 0.0
C4069 C 0.37972 0.9001 0.29545 0.0
C4070 C 0.38597 0.89914 0.30213 0.0
C4071 C 0.37523 0.89272 0.29222 0.0
H4072 H 0.39227 0.89009 0.31083 0.0
C4073 C 0.38761 0.89083 0.30556 0.0
C4074 C 0.38345 0.88344 0.30231 0.0
C4075 C 0.37719 0.88438 0.2957 0.0
C4076 C 0.36808 0.89362 0.28567 0.0
H4077 H 0.3739 0.87863 0.29322 0.0
C4078 C 0.3692 0.89802 0.27761 0.0
C4079 C 0.36234 0.8982 0.27143 0.0
C4080 C 0.35999 0.88973 0.2875 0.0
H4081 H 0.35891 0.8864 0.29365 0.0
C4082 C 0.3532 0.89007 0.28148 0.0
H4083 H 0.37541 0.901 0.27603 0.0
C4084 C 0.35437 0.89423 0.27349 0.0
H4085 H 0.34904 0.89431 0.26886 0.0
H4086 H 0.34701 0.88704 0.28299 0.0
H4087 H 0.36728 0.12753 0.54227 0.0
C4088 C 0.37347 0.12977 0.54482 0.0
C4089 C 0.37363 0.13591 0.55164 0.0
C4090 C 0.38133 0.12611 0.54174 0.0
H4091 H 0.38163 0.14331 0.56042 0.0
C4092 C 0.3816 0.13855 0.55518 0.0
C4093 C 0.38948 0.13501 0.55228 0.0
C4094 C 0.38932 0.12881 0.5455 0.0
C4095 C 0.3812 0.11851 0.53568 0.0
H4096 H 0.39536 0.12581 0.54339 0.0
C4097 C 0.3774 0.11887 0.52726 0.0
C4098 C 0.37769 0.11148 0.5217 0.0
C4099 C 0.38498 0.11066 0.53852 0.0
H4100 H 0.38784 0.11018 0.54497 0.0
C4101 C 0.385 0.10332 0.53318 0.0
H4102 H 0.37452 0.1249 0.52496 0.0
C4103 C 0.38138 0.10371 0.52486 0.0
H4104 H 0.38145 0.09787 0.52088 0.0
H4105 H 0.38785 0.09729 0.5355 0.0
H4106 H 0.14844 0.11807 0.7928 0.0
C4107 C 0.14578 0.12418 0.79518 0.0
C4108 C 0.13995 0.12416 0.80226 0.0
C4109 C 0.14855 0.13217 0.79152 0.0
H4110 H 0.13234 0.13196 0.81107 0.0
C4111 C 0.1367 0.13205 0.80549 0.0
C4112 C 0.13915 0.14004 0.80185 0.0
C4113 C 0.14516 0.14007 0.79492 0.0
C4114 C 0.15562 0.13248 0.78483 0.0
H4115 H 0.14723 0.14626 0.79219 0.0
C4116 C 0.15535 0.12755 0.777 0.0
C4117 C 0.162 0.12854 0.77066 0.0
C4118 C 0.16276 0.13804 0.78632 0.0
H4119 H 0.16323 0.14178 0.7923 0.0
C4120 C 0.16938 0.13885 0.78016 0.0
H4121 H 0.14989 0.12327 0.77571 0.0
C4122 C 0.16898 0.1342 0.77237 0.0
H4123 H 0.17417 0.13502 0.76763 0.0
H4124 H 0.17482 0.14317 0.7814 0.0
H4125 H 0.1551 0.89625 0.04151 0.0
C4126 C 0.14874 0.89528 0.04441 0.0
C4127 C 0.14772 0.88927 0.0513 0.0
C4128 C 0.14151 0.9002 0.04146 0.0
H4129 H 0.13884 0.88398 0.06082 0.0
C4130 C 0.13958 0.88839 0.05532 0.0
C4131 C 0.13235 0.89304 0.05243 0.0
C4132 C 0.13327 0.89887 0.04543 0.0
C4133 C 0.14257 0.90736 0.03493 0.0
H4134 H 0.12764 0.90254 0.04325 0.0
C4135 C 0.14671 0.90615 0.02674 0.0
C4136 C 0.14703 0.91309 0.02063 0.0
C4137 C 0.13912 0.91562 0.03696 0.0
H4138 H 0.13604 0.9168 0.04321 0.0
C4139 C 0.1396 0.92247 0.03101 0.0
H4140 H 0.14937 0.89984 0.02502 0.0
C4141 C 0.14347 0.92121 0.0229 0.0
H4142 H 0.14368 0.92661 0.01834 0.0
H4143 H 0.1369 0.92878 0.03268 0.0
H4144 H 0.23331 0.37805 0.1178 0.0
C4145 C 0.23088 0.3803 0.12405 0.0
C4146 C 0.22438 0.38677 0.12434 0.0
C4147 C 0.23391 0.37645 0.13185 0.0
H4148 H 0.21594 0.39439 0.13257 0.0
C4149 C 0.22106 0.3895 0.13239 0.0
C4150 C 0.22386 0.38571 0.14018 0.0
C4151 C 0.23027 0.37916 0.1399 0.0
C4152 C 0.24012 0.36895 0.13166 0.0
H4153 H 0.23237 0.37614 0.14594 0.0
C4154 C 0.24819 0.36929 0.12717 0.0
C4155 C 0.25391 0.36202 0.12727 0.0
C4156 C 0.23786 0.36127 0.13613 0.0
H4157 H 0.23171 0.36078 0.13956 0.0
C4158 C 0.24344 0.3541 0.13617 0.0
H4159 H 0.25002 0.37516 0.12369 0.0
C4160 C 0.25138 0.35446 0.1318 0.0
H4161 H 0.25564 0.34883 0.13206 0.0
H4162 H 0.24161 0.34824 0.13965 0.0
H4163 H 0.73227 0.14767 0.90769 0.0
C4164 C 0.72995 0.14532 0.90144 0.0
C4165 C 0.72281 0.13956 0.90111 0.0
C4166 C 0.73365 0.14853 0.89362 0.0
H4167 H 0.71405 0.13242 0.89282 0.0
C4168 C 0.71957 0.13684 0.89302 0.0
C4169 C 0.72311 0.1399 0.88521 0.0
C4170 C 0.73023 0.14567 0.88553 0.0
C4171 C 0.74011 0.15582 0.89373 0.0
H4172 H 0.73285 0.14823 0.87948 0.0
C4173 C 0.74807 0.15543 0.89843 0.0
C4174 C 0.75413 0.16239 0.89785 0.0
C4175 C 0.73824 0.16334 0.88882 0.0
H4176 H 0.73215 0.16391 0.88529 0.0
C4177 C 0.74413 0.17024 0.88842 0.0
H4178 H 0.74965 0.14969 0.90223 0.0
C4179 C 0.75204 0.16975 0.89283 0.0
H4180 H 0.75656 0.17516 0.89234 0.0
H4181 H 0.74258 0.17597 0.8846 0.0
H4182 H 0.12773 0.48346 0.15768 0.0
C4183 C 0.12962 0.48102 0.15132 0.0
C4184 C 0.13607 0.47449 0.15067 0.0
C4185 C 0.12547 0.48418 0.14371 0.0
H4186 H 0.14322 0.4661 0.14195 0.0
C4187 C 0.13834 0.47121 0.14245 0.0
C4188 C 0.13431 0.47422 0.13488 0.0
C4189 C 0.12786 0.48067 0.13551 0.0
C4190 C 0.11817 0.49062 0.1442 0.0
H4191 H 0.12473 0.48298 0.1296 0.0
C4192 C 0.11888 0.49866 0.14873 0.0
C4193 C 0.11199 0.50481 0.14837 0.0
C4194 C 0.11042 0.48878 0.13966 0.0
H4195 H 0.10963 0.48265 0.13623 0.0
C4196 C 0.10361 0.49478 0.13945 0.0
H4197 H 0.12481 0.50024 0.15222 0.0
C4198 C 0.1044 0.50276 0.1437 0.0
H4199 H 0.09905 0.50736 0.14337 0.0
H4200 H 0.0977 0.49326 0.1359 0.0
H4201 H 0.79223 0.87746 0.40785 0.0
C4202 C 0.79469 0.87984 0.40167 0.0
C4203 C 0.80189 0.88554 0.40152 0.0
C4204 C 0.79107 0.87681 0.39374 0.0
H4205 H 0.81089 0.89267 0.39347 0.0
C4206 C 0.80531 0.88832 0.39353 0.0
C4207 C 0.80178 0.8855 0.38564 0.0
C4208 C 0.7946 0.87983 0.38575 0.0
C4209 C 0.78448 0.86964 0.39361 0.0
H4210 H 0.79197 0.87749 0.37962 0.0
C4211 C 0.77657 0.87 0.39839 0.0
C4212 C 0.77036 0.86321 0.39755 0.0
C4213 C 0.78615 0.86231 0.38835 0.0
H4214 H 0.7922 0.86176 0.38474 0.0
C4215 C 0.7801 0.85557 0.38768 0.0
H4216 H 0.77515 0.8756 0.40246 0.0
C4217 C 0.77224 0.85605 0.39218 0.0
H4218 H 0.7676 0.85077 0.39148 0.0
H4219 H 0.78149 0.84998 0.3836 0.0
H4220 H 0.89751 0.04104 0.15781 0.0
C4221 C 0.89531 0.0439 0.15173 0.0
C4222 C 0.88929 0.05083 0.15189 0.0
C4223 C 0.89875 0.04096 0.14368 0.0
H4224 H 0.88212 0.06018 0.14429 0.0
C4225 C 0.88672 0.0548 0.14409 0.0
C4226 C 0.89004 0.05206 0.13606 0.0
C4227 C 0.89587 0.045 0.13586 0.0
C4228 C 0.906 0.03441 0.14332 0.0
H4229 H 0.89841 0.04287 0.12961 0.0
C4230 C 0.90612 0.02671 0.14848 0.0
C4231 C 0.91314 0.02071 0.14778 0.0
C4232 C 0.91302 0.036 0.13763 0.0
H4233 H 0.91331 0.0419 0.13377 0.0
C4234 C 0.91982 0.03005 0.13684 0.0
H4235 H 0.90081 0.02538 0.15295 0.0
C4236 C 0.91985 0.02245 0.14178 0.0
H4237 H 0.92514 0.01787 0.14084 0.0
H4238 H 0.9251 0.03133 0.13234 0.0
H4239 H 0.29147 0.64727 0.61843 0.0
C4240 C 0.29399 0.64524 0.62471 0.0
C4241 C 0.30053 0.63881 0.62512 0.0
C4242 C 0.29099 0.64927 0.63244 0.0
H4243 H 0.30906 0.63144 0.63349 0.0
C4244 C 0.30394 0.63632 0.63321 0.0
C4245 C 0.30114 0.64026 0.64092 0.0
C4246 C 0.29469 0.64676 0.64054 0.0
C4247 C 0.28471 0.65671 0.63209 0.0
H4248 H 0.2926 0.64988 0.64652 0.0
C4249 C 0.27672 0.65627 0.62747 0.0
C4250 C 0.27094 0.6635 0.62739 0.0
C4251 C 0.28684 0.66446 0.63651 0.0
H4252 H 0.29295 0.66504 0.64001 0.0
C4253 C 0.28122 0.67159 0.63638 0.0
H4254 H 0.27498 0.65035 0.62402 0.0
C4255 C 0.27335 0.67113 0.63188 0.0
H4256 H 0.26906 0.67673 0.63203 0.0
H4257 H 0.28296 0.6775 0.63981 0.0
H4258 H 0.1272 0.54208 0.36787 0.0
C4259 C 0.12946 0.54476 0.37401 0.0
C4260 C 0.13548 0.55168 0.37402 0.0
C4261 C 0.12601 0.54165 0.38197 0.0
H4262 H 0.14279 0.56072 0.38184 0.0
C4263 C 0.13815 0.55538 0.38193 0.0
C4264 C 0.13485 0.55244 0.38991 0.0
C4265 C 0.12882 0.54551 0.3899 0.0
C4266 C 0.11868 0.53524 0.38209 0.0
H4267 H 0.12608 0.54332 0.39603 0.0
C4268 C 0.11905 0.52709 0.3777 0.0
C4269 C 0.11201 0.52112 0.37836 0.0
C4270 C 0.11113 0.53739 0.38682 0.0
H4271 H 0.11059 0.54362 0.39011 0.0
C4272 C 0.10415 0.53161 0.3873 0.0
H4273 H 0.12485 0.52531 0.37409 0.0
C4274 C 0.10459 0.52354 0.38316 0.0
H4275 H 0.09906 0.51917 0.38368 0.0
H4276 H 0.09837 0.53338 0.39095 0.0
H4277 H 0.39839 0.48277 0.86846 0.0
C4278 C 0.39594 0.48034 0.87464 0.0
C4279 C 0.39015 0.47324 0.87474 0.0
C4280 C 0.39908 0.48384 0.88256 0.0
H4281 H 0.38262 0.46454 0.88272 0.0
C4282 C 0.38722 0.46992 0.88273 0.0
C4283 C 0.39025 0.47321 0.89068 0.0
C4284 C 0.39617 0.48023 0.89055 0.0
C4285 C 0.40638 0.49027 0.88258 0.0
H4286 H 0.3988 0.48266 0.89665 0.0
C4287 C 0.40602 0.49827 0.87797 0.0
C4288 C 0.4132 0.50409 0.87815 0.0
C4289 C 0.41398 0.48819 0.88726 0.0
H4290 H 0.41449 0.48207 0.89077 0.0
C4291 C 0.42106 0.49386 0.88739 0.0
H4292 H 0.40022 0.49997 0.87432 0.0
C4293 C 0.42069 0.50174 0.88288 0.0
H4294 H 0.42625 0.50608 0.8832 0.0
H4295 H 0.42686 0.49215 0.89101 0.0
H4296 H 0.90613 0.78861 0.642 0.0
C4297 C 0.90018 0.79241 0.64167 0.0
C4298 C 0.90055 0.80123 0.63899 0.0
C4299 C 0.89206 0.78842 0.64341 0.0
H4300 H 0.89299 0.81255 0.6354 0.0
C4301 C 0.89278 0.80597 0.63799 0.0
C4302 C 0.8847 0.80206 0.63944 0.0
C4303 C 0.88438 0.79343 0.64241 0.0
C4304 C 0.89124 0.77883 0.64514 0.0
H4305 H 0.87805 0.79052 0.64355 0.0
C4306 C 0.89683 0.77419 0.6509 0.0
C4307 C 0.89526 0.76525 0.65266 0.0
C4308 C 0.88448 0.77424 0.64094 0.0
H4309 H 0.88029 0.77742 0.63623 0.0
C4310 C 0.88299 0.76547 0.64267 0.0
H4311 H 0.90217 0.77751 0.6541 0.0
C4312 C 0.88828 0.76102 0.64851 0.0
H4313 H 0.88704 0.75416 0.64965 0.0
H4314 H 0.87772 0.76208 0.63942 0.0
H4315 H 0.98783 0.15523 0.39092 0.0
C4316 C 0.98358 0.1496 0.3908 0.0
C4317 C 0.97542 0.1503 0.38663 0.0
C4318 C 0.98633 0.14152 0.39436 0.0
H4319 H 0.96418 0.1434 0.38196 0.0
C4320 C 0.97013 0.14292 0.38575 0.0
C4321 C 0.97262 0.13487 0.3892 0.0
C4322 C 0.98052 0.13432 0.39379 0.0
C4323 C 0.99537 0.1402 0.39808 0.0
H4324 H 0.98211 0.12814 0.39678 0.0
C4325 C 1.00047 0.14709 0.40166 0.0
C4326 C 1.00884 0.14537 0.40518 0.0
C4327 C 0.99912 0.13177 0.39786 0.0
H4328 H 0.99591 0.12635 0.39469 0.0
C4329 C 1.00722 0.13009 0.40154 0.0
H4330 H 0.998 0.15371 0.4018 0.0
C4331 C 1.01202 0.13681 0.40523 0.0
H4332 H 0.01842 0.13537 0.40786 0.0
H4333 H 1.00988 0.12356 0.40138 0.0
H4334 H 0.61938 0.2366 0.14494 0.0
C4335 C 0.62518 0.23331 0.14265 0.0
C4336 C 0.6243 0.22543 0.13797 0.0
C4337 C 0.63357 0.2367 0.14452 0.0
H4338 H 0.63098 0.21496 0.13147 0.0
C4339 C 0.63174 0.22092 0.13522 0.0
C4340 C 0.6401 0.22406 0.13698 0.0
C4341 C 0.64094 0.23209 0.14131 0.0
C4342 C 0.63488 0.24466 0.15019 0.0
H4343 H 0.64744 0.23462 0.14228 0.0
C4344 C 0.62865 0.25152 0.15089 0.0
C4345 C 0.63026 0.25877 0.15642 0.0
C4346 C 0.64258 0.24532 0.15521 0.0
H4347 H 0.64735 0.24014 0.15537 0.0
C4348 C 0.64428 0.25261 0.16031 0.0
H4349 H 0.62261 0.25124 0.14726 0.0
C4350 C 0.63821 0.25928 0.16091 0.0
H4351 H 0.63969 0.26485 0.165 0.0
H4352 H 0.65031 0.25303 0.16396 0.0
H4353 H 0.53884 0.86922 0.89062 0.0
C4354 C 0.54246 0.87522 0.89159 0.0
C4355 C 0.55131 0.87562 0.88915 0.0
C4356 C 0.53798 0.88288 0.89407 0.0
H4357 H 0.56251 0.88398 0.88778 0.0
C4358 C 0.55576 0.88359 0.88987 0.0
C4359 C 0.5513 0.89132 0.89161 0.0
C4360 C 0.54248 0.89093 0.89396 0.0
C4361 C 0.52829 0.88301 0.8941 0.0
H4362 H 0.5389 0.89696 0.89486 0.0
C4363 C 0.52316 0.87883 0.90055 0.0
C4364 C 0.51393 0.87948 0.90024 0.0
C4365 C 0.52415 0.88756 0.88732 0.0
H4366 H 0.52794 0.89072 0.88226 0.0
C4367 C 0.51512 0.88805 0.88691 0.0
H4368 H 0.52629 0.87534 0.90583 0.0
C4369 C 0.51006 0.88407 0.89329 0.0
H4370 H 0.50304 0.88452 0.89273 0.0
H4371 H 0.51202 0.89154 0.88162 0.0
H4372 H 0.90553 0.2386 0.88506 0.0
C4373 C 0.89988 0.23438 0.88542 0.0
C4374 C 0.90069 0.22613 0.88941 0.0
C4375 C 0.89165 0.2373 0.88242 0.0
H4376 H 0.89392 0.21471 0.89394 0.0
C4377 C 0.89331 0.22089 0.89054 0.0
C4378 C 0.8851 0.22365 0.88777 0.0
C4379 C 0.88438 0.23164 0.88337 0.0
C4380 C 0.89026 0.24649 0.87917 0.0
H4381 H 0.87801 0.2336 0.88108 0.0
C4382 C 0.89674 0.25133 0.87462 0.0
C4383 C 0.89489 0.25987 0.87156 0.0
C4384 C 0.88219 0.2506 0.88087 0.0
H4385 H 0.87721 0.24748 0.88476 0.0
C4386 C 0.88039 0.25892 0.87775 0.0
H4387 H 0.90308 0.2485 0.87335 0.0
C4388 C 0.88664 0.26349 0.87309 0.0
H4389 H 0.88512 0.27003 0.87087 0.0
H4390 H 0.87413 0.26189 0.87907 0.0
H4391 H 0.53775 0.15679 0.63395 0.0
C4392 C 0.54165 0.1509 0.63421 0.0
C4393 C 0.55053 0.15143 0.63648 0.0
C4394 C 0.53767 0.1427 0.63296 0.0
H4395 H 0.56218 0.14421 0.63941 0.0
C4396 C 0.55541 0.14375 0.6374 0.0
C4397 C 0.55154 0.13551 0.63661 0.0
C4398 C 0.54272 0.13506 0.63416 0.0
C4399 C 0.52801 0.1419 0.63208 0.0
H4400 H 0.53958 0.12875 0.63376 0.0
C4401 C 0.52308 0.14658 0.62578 0.0
C4402 C 0.51393 0.14534 0.62518 0.0
C4403 C 0.52364 0.13626 0.63784 0.0
H4404 H 0.52716 0.13275 0.64286 0.0
C4405 C 0.51468 0.13512 0.63732 0.0
H4406 H 0.52636 0.15094 0.62129 0.0
C4407 C 0.50987 0.13959 0.63108 0.0
H4408 H 0.50288 0.13863 0.63097 0.0
H4409 H 0.51142 0.13077 0.64183 0.0
H4410 H 0.61859 0.7887 0.38358 0.0
C4411 C 0.62452 0.79251 0.38411 0.0
C4412 C 0.62409 0.80126 0.38694 0.0
C4413 C 0.63267 0.78853 0.38256 0.0
H4414 H 0.63152 0.81245 0.39097 0.0
C4415 C 0.63184 0.80596 0.38817 0.0
C4416 C 0.64 0.8022 0.38662 0.0
C4417 C 0.64034 0.79354 0.38363 0.0
C4418 C 0.63348 0.77888 0.3812 0.0
H4419 H 0.64665 0.79058 0.38248 0.0
C4420 C 0.62825 0.77409 0.37524 0.0
C4421 C 0.62962 0.76499 0.37412 0.0
C4422 C 0.63976 0.77438 0.38616 0.0
H4423 H 0.64369 0.77775 0.39096 0.0
C4424 C 0.64104 0.76548 0.38511 0.0
H4425 H 0.62335 0.77741 0.37139 0.0
C4426 C 0.63606 0.76083 0.37915 0.0
H4427 H 0.63715 0.75387 0.3786 0.0
H4428 H 0.64591 0.76214 0.38899 0.0
H4429 H 0.98674 0.86879 0.13385 0.0
C4430 C 0.98294 0.87474 0.13416 0.0
C4431 C 0.97402 0.87434 0.13627 0.0
C4432 C 0.98709 0.88289 0.13316 0.0
H4433 H 0.96246 0.88174 0.13914 0.0
C4434 C 0.96927 0.8821 0.13724 0.0
C4435 C 0.97331 0.89027 0.13669 0.0
C4436 C 0.98219 0.8906 0.13442 0.0
C4437 C 0.99677 0.88351 0.13251 0.0
H4438 H 0.98547 0.89685 0.13423 0.0
C4439 C 1.00171 0.87903 0.12609 0.0
C4440 C 1.0109 0.88008 0.12573 0.0
C4441 C 1.00114 0.88878 0.13861 0.0
H4442 H 0.99758 0.89213 0.14371 0.0
C4443 C 1.01014 0.88973 0.13833 0.0
H4444 H 0.99843 0.87498 0.12132 0.0
C4445 C 0.01497 0.88544 0.13198 0.0
H4446 H 0.02198 0.88623 0.13205 0.0
H4447 H 0.0134 0.89377 0.1431 0.0
H4448 H 0.64133 0.90637 0.78823 0.0
C4449 C 0.64106 0.90066 0.79238 0.0
C4450 C 0.63845 0.90158 0.80117 0.0
C4451 C 0.64283 0.89229 0.7889 0.0
H4452 H 0.6355 0.89491 0.81313 0.0
C4453 C 0.6376 0.89416 0.80641 0.0
C4454 C 0.63849 0.88578 0.80294 0.0
C4455 C 0.6416 0.88491 0.79436 0.0
C4456 C 0.64503 0.89101 0.7794 0.0
H4457 H 0.64268 0.87841 0.79185 0.0
C4458 C 0.65016 0.89702 0.77453 0.0
C4459 C 0.65232 0.89523 0.76571 0.0
C4460 C 0.64188 0.88351 0.77508 0.0
H4461 H 0.63755 0.87897 0.7783 0.0
C4462 C 0.64411 0.88175 0.76647 0.0
H4463 H 0.65257 0.90293 0.77756 0.0
C4464 C 0.64933 0.88751 0.76184 0.0
H4465 H 0.65087 0.88604 0.75509 0.0
H4466 H 0.64168 0.87591 0.76332 0.0
H4467 H 0.86833 0.89091 0.53799 0.0
C4468 C 0.87417 0.89107 0.54196 0.0
C4469 C 0.87378 0.88833 0.55073 0.0
C4470 C 0.88227 0.89313 0.53812 0.0
H4471 H 0.88123 0.88508 0.5622 0.0
C4472 C 0.88146 0.88776 0.55565 0.0
C4473 C 0.88956 0.88956 0.55189 0.0
C4474 C 0.88992 0.89246 0.54323 0.0
C4475 C 0.88315 0.89397 0.52847 0.0
H4476 H 0.89624 0.8935 0.54023 0.0
C4477 C 0.87849 0.9002 0.52346 0.0
C4478 C 0.87996 0.90082 0.51434 0.0
C4479 C 0.88891 0.88825 0.52421 0.0
H4480 H 0.89242 0.8833 0.52783 0.0
C4481 C 0.89018 0.88873 0.51525 0.0
H4482 H 0.87397 0.90462 0.52662 0.0
C4483 C 0.88577 0.89495 0.51036 0.0
H4484 H 0.88683 0.8951 0.50337 0.0
H4485 H 0.8946 0.88424 0.51206 0.0
H4486 H 0.88275 0.11973 0.28867 0.0
C4487 C 0.88365 0.12568 0.29234 0.0
C4488 C 0.88739 0.12515 0.30076 0.0
C4489 C 0.88125 0.13389 0.28875 0.0
H4490 H 0.89254 0.13251 0.31161 0.0
C4491 C 0.88921 0.13283 0.30538 0.0
C4492 C 0.88696 0.14094 0.30202 0.0
C4493 C 0.88265 0.14142 0.294 0.0
C4494 C 0.87767 0.13487 0.27956 0.0
H4495 H 0.88054 0.14782 0.29193 0.0
C4496 C 0.87393 0.12785 0.27472 0.0
C4497 C 0.87056 0.12928 0.26622 0.0
C4498 C 0.87816 0.1431 0.27537 0.0
H4499 H 0.88151 0.14858 0.27824 0.0
C4500 C 0.87454 0.14451 0.26719 0.0
H4501 H 0.87359 0.12135 0.27743 0.0
C4502 C 0.87071 0.13769 0.26267 0.0
H4503 H 0.86815 0.13891 0.25619 0.0
H4504 H 0.87489 0.15091 0.26423 0.0
H4505 H 0.65605 0.13356 0.03859 0.0
C4506 C 0.65016 0.13388 0.04248 0.0
C4507 C 0.65064 0.13652 0.05127 0.0
C4508 C 0.64199 0.13232 0.03857 0.0
H4509 H 0.64334 0.1404 0.06259 0.0
C4510 C 0.64293 0.13766 0.05608 0.0
C4511 C 0.63474 0.13616 0.05235 0.0
C4512 C 0.63435 0.13332 0.04364 0.0
C4513 C 0.64116 0.13139 0.02891 0.0
H4514 H 0.62803 0.1323 0.04063 0.0
C4515 C 0.64586 0.12512 0.02396 0.0
C4516 C 0.64463 0.12457 0.01478 0.0
C4517 C 0.6355 0.13714 0.02456 0.0
H4518 H 0.63196 0.14211 0.02812 0.0
C4519 C 0.63439 0.13669 0.01558 0.0
H4520 H 0.65022 0.12063 0.02723 0.0
C4521 C 0.6389 0.13049 1.01074 0.0
H4522 H 0.63797 0.13044 1.00374 0.0
H4523 H 0.63005 0.1412 1.01234 0.0
H4524 H 0.64111 0.11936 0.73861 0.0
C4525 C 0.64074 0.12496 0.73434 0.0
C4526 C 0.6376 0.12381 0.72578 0.0
C4527 C 0.64305 0.13338 0.73738 0.0
H4528 H 0.63399 0.13008 0.71379 0.0
C4529 C 0.63651 0.13105 0.72033 0.0
C4530 C 0.63796 0.13951 0.72338 0.0
C4531 C 0.64173 0.14058 0.73167 0.0
C4532 C 0.64622 0.13489 0.7466 0.0
H4533 H 0.64334 0.14713 0.73369 0.0
C4534 C 0.6506 0.12837 0.75156 0.0
C4535 C 0.65366 0.13023 0.76008 0.0
C4536 C 0.64478 0.14307 0.75061 0.0
H4537 H 0.641 0.14813 0.74748 0.0
C4538 C 0.64802 0.14493 0.75888 0.0
H4539 H 0.65171 0.12194 0.74887 0.0
C4540 C 0.65247 0.13859 0.76355 0.0
H4541 H 0.65474 0.14014 0.77007 0.0
H4542 H 0.64691 0.15128 0.76175 0.0
H4543 H 0.6542 0.89034 0.48837 0.0
C4544 C 0.64861 0.89077 0.48408 0.0
C4545 C 0.64914 0.88709 0.47564 0.0
C4546 C 0.64061 0.89425 0.48717 0.0
H4547 H 0.64203 0.88397 0.46393 0.0
C4548 C 0.64174 0.88708 0.47029 0.0
C4549 C 0.63369 0.88995 0.47336 0.0
C4550 C 0.63326 0.89401 0.48153 0.0
C4551 C 0.63942 0.89697 0.49656 0.0
H4552 H 0.62699 0.89645 0.48366 0.0
C4553 C 0.64617 0.90078 0.50167 0.0
C4554 C 0.64455 0.90324 0.51044 0.0
C4555 C 0.63128 0.89546 0.50061 0.0
H4556 H 0.62607 0.89209 0.49728 0.0
C4557 C 0.6297 0.89806 0.50916 0.0
H4558 H 0.65257 0.90184 0.4989 0.0
C4559 C 0.63624 0.90197 0.51402 0.0
H4560 H 0.6349 0.90376 0.52072 0.0
H4561 H 0.62338 0.89689 0.51208 0.0
H4562 H 0.88289 0.90658 0.23727 0.0
C4563 C 0.88338 0.90066 0.23343 0.0
C4564 C 0.886 0.90114 0.22461 0.0
C4565 C 0.88216 0.89247 0.23746 0.0
H4566 H 0.88977 0.89373 0.21326 0.0
C4567 C 0.88727 0.89342 0.21988 0.0
C4568 C 0.88629 0.88526 0.22381 0.0
C4569 C 0.88343 0.8848 0.23248 0.0
C4570 C 0.88134 0.8917 0.24714 0.0
H4571 H 0.88288 0.87846 0.23556 0.0
C4572 C 0.87511 0.89642 0.2521 0.0
C4573 C 0.87452 0.89511 0.26124 0.0
C4574 C 0.88711 0.88606 0.2515 0.0
H4575 H 0.89211 0.88255 0.24796 0.0
C4576 C 0.88664 0.88492 0.26048 0.0
H4577 H 0.87066 0.90087 0.24888 0.0
C4578 C 0.8804 0.88938 0.26531 0.0
H4579 H 0.88026 0.88843 0.27231 0.0
H4580 H 0.89116 0.88059 0.26373 0.0
H4581 H 0.87072 0.13569 0.98843 0.0
C4582 C 0.87633 0.13529 0.98416 0.0
C4583 C 0.87596 0.13929 0.97585 0.0
C4584 C 0.88421 0.13144 0.98715 0.0
H4585 H 0.88329 0.1428 0.96435 0.0
C4586 C 0.88341 0.13936 0.97054 0.0
C4587 C 0.89122 0.13575 0.97339 0.0
C4588 C 0.89149 0.13147 0.98144 0.0
C4589 C 0.88539 0.12832 0.99642 0.0
H4590 H 0.89761 0.12855 0.98336 0.0
C4591 C 0.87852 0.12481 1.00158 0.0
C4592 C 0.8802 0.12186 1.0102 0.0
C4593 C 0.89372 0.12908 1.00031 0.0
H4594 H 0.89907 0.13225 0.99701 0.0
C4595 C 0.89535 0.12595 1.00866 0.0
H4596 H 0.87197 0.12436 0.99898 0.0
C4597 C 0.88867 0.12231 0.01354 0.0
H4598 H 0.89006 0.12012 0.02012 0.0
H4599 H 0.90181 0.12652 1.01144 0.0
H4600 H 0.78654 0.64162 0.90633 0.0
C4601 C 0.79099 0.64146 0.90086 0.0
C4602 C 0.79961 0.63857 0.90224 0.0
C4603 C 0.78816 0.64383 0.89237 0.0
H4604 H 0.81187 0.63539 0.89631 0.0
C4605 C 0.8053 0.63773 0.89516 0.0
C4606 C 0.80247 0.63915 0.88662 0.0
C4607 C 0.79417 0.64279 0.88536 0.0
C4608 C 0.77888 0.64674 0.89054 0.0
H4609 H 0.79239 0.64451 0.87878 0.0
C4610 C 0.77327 0.65036 0.89703 0.0
C4611 C 0.76463 0.65288 0.89488 0.0
C4612 C 0.77544 0.64568 0.88203 0.0
H4613 H 0.77896 0.64237 0.87692 0.0
C4614 C 0.76718 0.64865 0.87986 0.0
H4615 H 0.77546 0.65108 0.9037 0.0
C4616 C 0.76185 0.65228 0.88618 0.0
H4617 H 0.75535 0.65434 0.88432 0.0
H4618 H 0.76479 0.64792 0.87325 0.0
H4619 H 0.28934 0.88427 0.12041 0.0
C4620 C 0.29312 0.88478 0.12635 0.0
C4621 C 0.30172 0.88802 0.12597 0.0
C4622 C 0.28936 0.88259 0.13448 0.0
H4623 H 0.31271 0.89253 0.13343 0.0
C4624 C 0.30638 0.88941 0.13372 0.0
C4625 C 0.30273 0.88744 0.14184 0.0
C4626 C 0.29445 0.88359 0.14211 0.0
C4627 C 0.27992 0.88018 0.13537 0.0
H4628 H 0.29184 0.88166 0.14839 0.0
C4629 C 0.27542 0.87498 0.12918 0.0
C4630 C 0.2666 0.87268 0.13064 0.0
C4631 C 0.27528 0.88325 0.14272 0.0
H4632 H 0.27829 0.88759 0.14741 0.0
C4633 C 0.26666 0.8809 0.14414 0.0
H4634 H 0.27872 0.87264 0.12339 0.0
C4635 C 0.26236 0.87561 0.13819 0.0
H4636 H 0.2556 0.87395 0.13938 0.0
H4637 H 0.26325 0.88327 0.14986 0.0
H4638 H 0.89001 0.53729 0.87082 0.0
C4639 C 0.89009 0.54155 0.87646 0.0
C4640 C 0.8865 0.54998 0.87578 0.0
C4641 C 0.89327 0.5385 0.88457 0.0
H4642 H 0.88255 0.5615 0.88272 0.0
C4643 C 0.88592 0.55529 0.88319 0.0
C4644 C 0.88894 0.55243 0.8913 0.0
C4645 C 0.89289 0.5442 0.89186 0.0
C4646 C 0.89614 0.5292 0.88589 0.0
H4647 H 0.89542 0.54216 0.89813 0.0
C4648 C 0.90047 0.52423 0.87936 0.0
C4649 C 0.90326 0.51559 0.88116 0.0
C4650 C 0.89438 0.52514 0.89397 0.0
H4651 H 0.89067 0.52842 0.89901 0.0
C4652 C 0.89722 0.51672 0.89574 0.0
H4653 H 0.90178 0.52704 0.87301 0.0
C4654 C 0.90168 0.51201 0.88943 0.0
H4655 H 0.90369 0.5054 0.89094 0.0
H4656 H 0.89587 0.51379 0.90202 0.0
H4657 H 0.23818 0.14129 0.61958 0.0
C4658 C 0.23381 0.14131 0.62513 0.0
C4659 C 0.22504 0.13894 0.62392 0.0
C4660 C 0.23699 0.14322 0.63357 0.0
H4661 H 0.21267 0.13678 0.63003 0.0
C4662 C 0.21944 0.1385 0.63111 0.0
C4663 C 0.22262 0.13927 0.63964 0.0
C4664 C 0.23126 0.14215 0.64078 0.0
C4665 C 0.24642 0.14549 0.63509 0.0
H4666 H 0.23359 0.14321 0.64734 0.0
C4667 C 0.25142 0.15042 0.62903 0.0
C4668 C 0.26016 0.15266 0.63095 0.0
C4669 C 0.25053 0.14262 0.64281 0.0
H4670 H 0.24721 0.13845 0.64743 0.0
C4671 C 0.25909 0.14494 0.6447 0.0
H4672 H 0.24854 0.15262 0.62296 0.0
C4673 C 0.26385 0.14997 0.63886 0.0
H4674 H 0.27055 0.15158 0.64043 0.0
H4675 H 0.26209 0.14273 0.6507 0.0
H4676 H 0.13322 0.9878 0.87028 0.0
C4677 C 0.13383 0.98381 0.87607 0.0
C4678 C 0.13719 0.97527 0.87532 0.0
C4679 C 0.13168 0.98726 0.88437 0.0
H4680 H 0.14168 0.96394 0.88233 0.0
C4681 C 0.13865 0.97031 0.88286 0.0
C4682 C 0.1367 0.9736 0.89112 0.0
C4683 C 0.13286 0.98187 0.89181 0.0
C4684 C 0.12907 0.99665 0.88556 0.0
H4685 H 0.13121 0.98423 0.89826 0.0
C4686 C 0.12412 1.00138 0.8793 0.0
C4687 C 0.12168 1.01015 0.88096 0.0
C4688 C 0.13175 1.00105 0.8932 0.0
H4689 H 0.13594 0.99795 0.89795 0.0
C4690 C 0.12925 1.00961 0.89483 0.0
H4691 H 0.12207 0.9983 0.87329 0.0
C4692 C 0.12421 0.01411 0.88881 0.0
H4693 H 0.12247 0.02082 0.89018 0.0
H4694 H 0.13133 1.01283 0.90076 0.0
H4695 H 0.73689 0.3836 0.40609 0.0
C4696 C 0.73294 0.38412 0.40026 0.0
C4697 C 0.7245 0.38779 0.40087 0.0
C4698 C 0.73625 0.38138 0.39207 0.0
H4699 H 0.71351 0.3927 0.39368 0.0
C4700 C 0.71965 0.38923 0.39325 0.0
C4701 C 0.72278 0.38668 0.38508 0.0
C4702 C 0.73076 0.38223 0.38467 0.0
C4703 C 0.7455 0.37823 0.39083 0.0
H4704 H 0.73274 0.37961 0.37843 0.0
C4705 C 0.75048 0.37412 0.39751 0.0
C4706 C 0.75903 0.37108 0.39575 0.0
C4707 C 0.74956 0.37953 0.38264 0.0
H4708 H 0.74643 0.38316 0.37747 0.0
C4709 C 0.75785 0.37632 0.38089 0.0
H4710 H 0.74777 0.37322 0.40397 0.0
C4711 C 0.76252 0.37207 0.38735 0.0
H4712 H 0.76905 0.36982 0.38588 0.0
H4713 H 0.76073 0.37729 0.37452 0.0
H4714 H 0.89073 0.48796 0.65573 0.0
C4715 C 0.8904 0.4839 0.64996 0.0
C4716 C 0.88724 0.47528 0.65072 0.0
C4717 C 0.89278 0.48729 0.6417 0.0
H4718 H 0.88332 0.46371 0.64375 0.0
C4719 C 0.88623 0.47014 0.64322 0.0
C4720 C 0.88829 0.47341 0.63499 0.0
C4721 C 0.89184 0.4818 0.6343 0.0
C4722 C 0.89565 0.49663 0.64046 0.0
H4723 H 0.89373 0.48401 0.62787 0.0
C4724 C 0.90016 0.50149 0.64697 0.0
C4725 C 0.90301 0.51011 0.64521 0.0
C4726 C 0.8938 0.50083 0.63246 0.0
H4727 H 0.88991 0.49773 0.62747 0.0
C4728 C 0.8968 0.5092 0.63071 0.0
H4729 H 0.90153 0.49862 0.65327 0.0
C4730 C 0.90142 0.51378 0.63699 0.0
H4731 H 0.90351 0.52037 0.63552 0.0
H4732 H 0.89539 0.51222 0.62448 0.0
H4733 H 0.63519 0.53995 0.15552 0.0
C4734 C 0.63407 0.5436 0.14957 0.0
C4735 C 0.6366 0.55245 0.14911 0.0
C4736 C 0.63111 0.53923 0.14199 0.0
H4737 H 0.63761 0.56376 0.14082 0.0
C4738 C 0.63549 0.55702 0.14125 0.0
C4739 C 0.63331 0.55265 0.13359 0.0
C4740 C 0.63082 0.54388 0.13401 0.0
C4741 C 0.63012 0.52952 0.14179 0.0
H4742 H 0.6293 0.5405 0.12799 0.0
C4743 C 0.6249 0.52481 0.14782 0.0
C4744 C 0.62397 0.51565 0.14692 0.0
C4745 C 0.63452 0.52488 0.13519 0.0
H4746 H 0.63875 0.52821 0.13062 0.0
C4747 C 0.63359 0.5159 0.13437 0.0
H4748 H 0.62151 0.52821 0.153 0.0
C4749 C 0.62832 0.51132 0.14014 0.0
H4750 H 0.6277 0.50432 0.13937 0.0
H4751 H 0.63698 0.51245 0.12922 0.0
H4752 H 0.61755 0.73355 0.87772 0.0
C4753 C 0.62359 0.73085 0.88018 0.0
C4754 C 0.62337 0.72382 0.88608 0.0
C4755 C 0.63167 0.73395 0.87703 0.0
H4756 H 0.63092 0.71476 0.89364 0.0
C4757 C 0.63117 0.72011 0.88901 0.0
C4758 C 0.63924 0.72298 0.88591 0.0
C4759 C 0.63947 0.73002 0.88004 0.0
C4760 C 0.63206 0.74041 0.86976 0.0
H4761 H 0.6457 0.73221 0.87754 0.0
C4762 C 0.62758 0.74849 0.87 0.0
C4763 C 0.62846 0.75452 0.86304 0.0
C4764 C 0.63712 0.73838 0.86239 0.0
H4765 H 0.6405 0.73218 0.86193 0.0
C4766 C 0.63785 0.74422 0.85548 0.0
H4767 H 0.6237 0.75019 0.87566 0.0
C4768 C 0.6336 0.75223 0.85581 0.0
H4769 H 0.6343 0.75666 0.85034 0.0
H4770 H 0.64176 0.74254 0.84984 0.0
H4771 H 0.54091 0.36751 0.12825 0.0
C4772 C 0.54361 0.37361 0.13058 0.0
C4773 C 0.55029 0.37353 0.13686 0.0
C4774 C 0.54068 0.38162 0.12708 0.0
H4775 H 0.55933 0.38122 0.14427 0.0
C4776 C 0.55397 0.3814 0.13966 0.0
C4777 C 0.55105 0.38943 0.13649 0.0
C4778 C 0.54445 0.3895 0.13012 0.0
C4779 C 0.5343 0.38186 0.11973 0.0
H4780 H 0.54224 0.39569 0.12751 0.0
C4781 C 0.52617 0.37746 0.12001 0.0
C4782 C 0.52017 0.3783 0.11302 0.0
C4783 C 0.5364 0.3868 0.11229 0.0
H4784 H 0.54261 0.39013 0.11183 0.0
C4785 C 0.5306 0.38746 0.10535 0.0
H4786 H 0.52441 0.37371 0.12573 0.0
C4787 C 0.52254 0.3833 0.10571 0.0
H4788 H 0.51814 0.38397 0.10023 0.0
H4789 H 0.53233 0.39127 0.09966 0.0
H4790 H 0.90736 0.29248 0.37764 0.0
C4791 C 0.90116 0.29491 0.38 0.0
C4792 C 0.90095 0.302 0.38582 0.0
C4793 C 0.8933 0.29137 0.37677 0.0
H4794 H 0.89284 0.31093 0.39298 0.0
C4795 C 0.89294 0.30542 0.38854 0.0
C4796 C 0.88508 0.30198 0.38551 0.0
C4797 C 0.88527 0.2949 0.37967 0.0
C4798 C 0.89335 0.28509 0.36934 0.0
H4799 H 0.87919 0.29239 0.37709 0.0
C4800 C 0.89738 0.27678 0.36979 0.0
C4801 C 0.89689 0.27098 0.36259 0.0
C4802 C 0.88916 0.28759 0.36158 0.0
H4803 H 0.88611 0.29394 0.36103 0.0
C4804 C 0.88893 0.28201 0.35443 0.0
H4805 H 0.90059 0.27474 0.37575 0.0
C4806 C 0.89275 0.27379 0.35491 0.0
H4807 H 0.89245 0.26958 0.34924 0.0
H4808 H 0.88574 0.28405 0.34847 0.0
H4809 H 0.98339 0.65758 0.62836 0.0
C4810 C 0.9808 0.65135 0.63047 0.0
C4811 C 0.97381 0.65111 0.63641 0.0
C4812 C 0.98406 0.64351 0.62688 0.0
H4813 H 0.96468 0.64296 0.64329 0.0
C4814 C 0.97018 0.64309 0.63882 0.0
C4815 C 0.97332 0.63527 0.63539 0.0
C4816 C 0.98033 0.63548 0.6295 0.0
C4817 C 0.99042 0.64366 0.61951 0.0
H4818 H 0.98264 0.62942 0.62667 0.0
C4819 C 0.99857 0.64798 0.62 0.0
C4820 C 1.00448 0.64759 0.61289 0.0
C4821 C 0.9882 0.63924 0.61178 0.0
H4822 H 0.98196 0.63599 0.61117 0.0
C4823 C 0.99391 0.63903 0.60474 0.0
H4824 H 1.00041 0.65133 0.62594 0.0
C4825 C 1.00198 0.64312 0.60528 0.0
H4826 H 1.0063 0.64282 0.59969 0.0
H4827 H 0.99209 0.63563 0.59882 0.0
H4828 H 0.61746 0.29305 0.65045 0.0
C4829 C 0.6234 0.29565 0.64766 0.0
C4830 C 0.62309 0.30335 0.64267 0.0
C4831 C 0.6315 0.29167 0.64948 0.0
H4832 H 0.63052 0.31299 0.63577 0.0
C4833 C 0.63082 0.3069 0.63935 0.0
C4834 C 0.63886 0.30275 0.6405 0.0
C4835 C 0.63917 0.29517 0.64569 0.0
C4836 C 0.63224 0.28457 0.65612 0.0
H4837 H 0.64539 0.29204 0.64686 0.0
C4838 C 0.62674 0.27713 0.65617 0.0
C4839 C 0.62765 0.27072 0.66277 0.0
C4840 C 0.63855 0.28544 0.66272 0.0
H4841 H 0.64276 0.29111 0.66295 0.0
C4842 C 0.63945 0.27913 0.66917 0.0
H4843 H 0.62185 0.27632 0.65114 0.0
C4844 C 0.63407 0.27183 0.66921 0.0
H4845 H 0.63499 0.26696 0.67425 0.0
H4846 H 0.64435 0.2799 0.67419 0.0
H4847 H 0.98338 0.36807 0.89845 0.0
C4848 C 0.98063 0.37417 0.89619 0.0
C4849 C 0.97361 0.37409 0.89028 0.0
C4850 C 0.98379 0.38219 0.89947 0.0
H4851 H 0.96434 0.38182 0.88313 0.0
C4852 C 0.96981 0.38195 0.88763 0.0
C4853 C 0.97288 0.38995 0.89069 0.0
C4854 C 0.97994 0.39006 0.89653 0.0
C4855 C 0.99044 0.38247 0.90658 0.0
H4856 H 0.98226 0.39627 0.89898 0.0
C4857 C 0.9983 0.3776 0.90625 0.0
C4858 C 1.00454 0.37844 0.91299 0.0
C4859 C 0.98888 0.38785 0.91385 0.0
H4860 H 0.98287 0.39152 0.9144 0.0
C4861 C 0.99499 0.38856 0.92053 0.0
H4862 H 0.99965 0.37342 0.90071 0.0
C4863 C 1.00279 0.38394 0.92008 0.0
H4864 H 1.00748 0.38465 0.92532 0.0
H4865 H 0.99369 0.39274 0.92607 0.0
H4866 H 0.90695 0.73496 0.14787 0.0
C4867 C 0.90093 0.73205 0.14561 0.0
C4868 C 0.90122 0.72525 0.13942 0.0
C4869 C 0.89284 0.73482 0.14907 0.0
H4870 H 0.89377 0.71587 0.13212 0.0
C4871 C 0.89348 0.72119 0.1368 0.0
C4872 C 0.88543 0.72369 0.14021 0.0
C4873 C 0.88511 0.73067 0.14612 0.0
C4874 C 0.89231 0.74135 0.15634 0.0
H4875 H 0.87882 0.73266 0.14867 0.0
C4876 C 0.89741 0.74909 0.15656 0.0
C4877 C 0.89645 0.75514 0.16351 0.0
C4878 C 0.88646 0.73976 0.16323 0.0
H4879 H 0.88266 0.73382 0.16347 0.0
C4880 C 0.88539 0.74577 0.16994 0.0
H4881 H 0.90201 0.75041 0.15137 0.0
C4882 C 0.89023 0.75342 0.17003 0.0
H4883 H 0.88905 0.75806 0.17523 0.0
H4884 H 0.88073 0.7445 0.17509 0.0
H4885 H 0.54255 0.65799 0.39905 0.0
C4886 C 0.54473 0.65183 0.39635 0.0
C4887 C 0.55179 0.65166 0.3905 0.0
C4888 C 0.54093 0.64393 0.39918 0.0
H4889 H 0.56027 0.64361 0.38277 0.0
C4890 C 0.55476 0.64368 0.38721 0.0
C4891 C 0.55097 0.63578 0.38975 0.0
C4892 C 0.54413 0.63593 0.39586 0.0
C4893 C 0.53456 0.64385 0.40652 0.0
H4894 H 0.54135 0.62983 0.39811 0.0
C4895 C 0.52637 0.6481 0.40609 0.0
C4896 C 0.52046 0.64755 0.4132 0.0
C4897 C 0.53681 0.63928 0.41413 0.0
H4898 H 0.54306 0.63603 0.41465 0.0
C4899 C 0.53111 0.6389 0.42118 0.0
H4900 H 0.52452 0.65153 0.4002 0.0
C4901 C 0.52301 0.64297 0.42073 0.0
H4902 H 0.51873 0.64256 0.42633 0.0
H4903 H 0.53296 0.6354 0.42703 0.0
H4904 H 0.87836 0.61803 0.73484 0.0
C4905 C 0.88023 0.62427 0.7321 0.0
C4906 C 0.88652 0.62458 0.72541 0.0
C4907 C 0.87613 0.63202 0.73497 0.0
H4908 H 0.89329 0.6328 0.71625 0.0
C4909 C 0.88862 0.6326 0.72156 0.0
C4910 C 0.88462 0.64032 0.72424 0.0
C4911 C 0.87853 0.64006 0.73106 0.0
C4912 C 0.86866 0.63178 0.74124 0.0
H4913 H 0.87542 0.64607 0.7331 0.0
C4914 C 0.86887 0.62694 0.74913 0.0
C4915 C 0.86159 0.62701 0.75485 0.0
C4916 C 0.8611 0.63655 0.73918 0.0
H4917 H 0.86064 0.64017 0.73313 0.0
C4918 C 0.854 0.63668 0.74483 0.0
H4919 H 0.87462 0.62322 0.75083 0.0
C4920 C 0.85425 0.63201 0.7526 0.0
H4921 H 0.84868 0.63238 0.75694 0.0
H4922 H 0.84827 0.64045 0.74317 0.0
H4923 H 0.65648 0.62787 0.98475 0.0
C4924 C 0.65044 0.63005 0.98181 0.0
C4925 C 0.65066 0.63624 0.97502 0.0
C4926 C 0.64238 0.6265 0.98455 0.0
H4927 H 0.64316 0.64352 0.96567 0.0
C4928 C 0.64292 0.6388 0.97095 0.0
C4929 C 0.6349 0.63534 0.97347 0.0
C4930 C 0.63462 0.6294 0.98043 0.0
C4931 C 0.64191 0.61922 0.99106 0.0
H4932 H 0.62836 0.62682 0.98243 0.0
C4933 C 0.64701 0.61902 0.99879 0.0
C4934 C 0.64612 0.61205 1.00483 0.0
C4935 C 0.63612 0.61228 0.98946 0.0
H4936 H 0.63231 0.61203 0.98351 0.0
C4937 C 0.63511 0.60555 0.99545 0.0
H4938 H 0.65157 0.62424 1.00013 0.0
C4939 C 0.63996 0.60548 1.0031 0.0
H4940 H 0.63884 0.60026 1.00772 0.0
H4941 H 0.6305 0.60037 0.99417 0.0
H4942 H 0.64887 0.40764 0.23245 0.0
C4943 C 0.64614 0.40154 0.23014 0.0
C4944 C 0.64037 0.40157 0.22301 0.0
C4945 C 0.6488 0.39356 0.23388 0.0
H4946 H 0.63267 0.39376 0.2143 0.0
C4947 C 0.63702 0.39367 0.21987 0.0
C4948 C 0.63933 0.3857 0.22365 0.0
C4949 C 0.64533 0.38566 0.23058 0.0
C4950 C 0.65599 0.39327 0.24041 0.0
H4951 H 0.64736 0.37949 0.23338 0.0
C4952 C 0.6558 0.39811 0.24829 0.0
C4953 C 0.66283 0.39758 0.25426 0.0
C4954 C 0.66328 0.38801 0.23861 0.0
H4955 H 0.66364 0.3843 0.23261 0.0
C4956 C 0.67022 0.38755 0.24444 0.0
H4957 H 0.65022 0.40219 0.24977 0.0
C4958 C 0.67001 0.39229 0.25219 0.0
H4959 H 0.67545 0.39169 0.25666 0.0
H4960 H 0.67579 0.38348 0.24295 0.0
H4961 H 0.86767 0.39947 0.48284 0.0
C4962 C 0.87388 0.39684 0.48074 0.0
C4963 C 0.87423 0.39124 0.47345 0.0
C4964 C 0.88167 0.39957 0.48485 0.0
H4965 H 0.88262 0.38387 0.4649 0.0
C4966 C 0.88233 0.38819 0.47051 0.0
C4967 C 0.89008 0.39072 0.47453 0.0
C4968 C 0.88974 0.39633 0.48176 0.0
C4969 C 0.88163 0.40684 0.49134 0.0
H4970 H 0.89578 0.39849 0.48471 0.0
C4971 C 0.8764 0.40678 0.49898 0.0
C4972 C 0.87672 0.41388 0.50492 0.0
C4973 C 0.88702 0.41407 0.48973 0.0
H4974 H 0.89099 0.41439 0.48389 0.0
C4975 C 0.88736 0.42102 0.49556 0.0
H4976 H 0.8722 0.40126 0.50031 0.0
C4977 C 0.88232 0.42091 0.50311 0.0
H4978 H 0.88291 0.42631 0.50762 0.0
H4979 H 0.8916 0.42651 0.49425 0.0
H4980 H 0.87547 0.40804 0.79231 0.0
C4981 C 0.87802 0.40213 0.79523 0.0
C4982 C 0.88303 0.40264 0.80289 0.0
C4983 C 0.87595 0.3939 0.79164 0.0
H4984 H 0.88959 0.39552 0.81296 0.0
C4985 C 0.88606 0.395 0.80686 0.0
C4986 C 0.88471 0.38681 0.80308 0.0
C4987 C 0.87954 0.3863 0.79551 0.0
C4988 C 0.86947 0.39299 0.78441 0.0
H4989 H 0.87828 0.37997 0.79262 0.0
C4990 C 0.86962 0.39826 0.7768 0.0
C4991 C 0.86351 0.39682 0.77003 0.0
C4992 C 0.86295 0.38657 0.78519 0.0
H4993 H 0.86251 0.38256 0.79099 0.0
C4994 C 0.85688 0.38526 0.77857 0.0
H4995 H 0.87458 0.40324 0.77603 0.0
C4996 C 0.85719 0.39029 0.77103 0.0
H4997 H 0.85244 0.3891 0.76593 0.0
H4998 H 0.85193 0.38029 0.77928 0.0
H4999 H 0.86759 0.62807 0.04167 0.0
C5000 C 0.87372 0.63014 0.04452 0.0
C5001 C 0.87371 0.63624 0.05139 0.0
C5002 C 0.88167 0.6265 0.04158 0.0
H5003 H 0.88147 0.64341 0.06058 0.0
C5004 C 0.88157 0.63871 0.05529 0.0
C5005 C 0.88952 0.63523 0.05254 0.0
C5006 C 0.88955 0.62923 0.04559 0.0
C5007 C 0.88187 0.61931 0.03495 0.0
H5008 H 0.89571 0.62649 0.04347 0.0
C5009 C 0.87674 0.6194 0.02723 0.0
C5010 C 0.87745 0.61256 0.021 0.0
C5011 C 0.88743 0.61216 0.03642 0.0
H5012 H 0.89126 0.61171 0.04234 0.0
C5013 C 0.88815 0.60546 0.03035 0.0
H5014 H 0.87229 0.62476 0.02608 0.0
C5015 C 0.88329 0.60568 0.0227 0.0
H5016 H 0.88418 0.60045 0.01804 0.0
H5017 H 0.89254 0.60008 0.03156 0.0
H5018 H 0.64668 0.61785 0.29165 0.0
C5019 C 0.64452 0.62397 0.29447 0.0
C5020 C 0.63818 0.62392 0.30111 0.0
C5021 C 0.64832 0.63192 0.29177 0.0
H5022 H 0.63085 0.63168 0.31021 0.0
C5023 C 0.63567 0.63178 0.30502 0.0
C5024 C 0.63945 0.6397 0.3026 0.0
C5025 C 0.64562 0.63978 0.29583 0.0
C5026 C 0.65575 0.63207 0.28547 0.0
H5027 H 0.64855 0.64593 0.29394 0.0
C5028 C 0.6556 0.62743 0.27747 0.0
C5029 C 0.66275 0.62792 0.27163 0.0
C5030 C 0.66317 0.63702 0.28756 0.0
H5031 H 0.66358 0.64052 0.29369 0.0
C5032 C 0.67022 0.63748 0.28186 0.0
H5033 H 0.64996 0.62353 0.2758 0.0
C5034 C 0.67001 0.63301 0.27396 0.0
H5035 H 0.67553 0.63362 0.2696 0.0
H5036 H 0.67587 0.64135 0.28356 0.0
H5037 H 0.65739 0.39761 0.54134 0.0
C5038 C 0.65134 0.39536 0.5442 0.0
C5039 C 0.65156 0.38931 0.55112 0.0
C5040 C 0.64327 0.39873 0.54128 0.0
H5041 H 0.64405 0.38208 0.56048 0.0
C5042 C 0.6438 0.38668 0.55511 0.0
C5043 C 0.63575 0.38998 0.55242 0.0
C5044 C 0.63549 0.39581 0.54536 0.0
C5045 C 0.64284 0.4059 0.53463 0.0
H5046 H 0.62923 0.3983 0.54324 0.0
C5047 C 0.64803 0.40598 0.52695 0.0
C5048 C 0.64716 0.41282 0.52074 0.0
C5049 C 0.63705 0.41287 0.53608 0.0
H5050 H 0.63317 0.4132 0.54198 0.0
C5051 C 0.63617 0.41956 0.53002 0.0
H5052 H 0.65264 0.40077 0.52581 0.0
C5053 C 0.6411 0.41951 0.52241 0.0
H5054 H 0.64009 0.42473 0.51776 0.0
H5055 H 0.63161 0.42481 0.53121 0.0
H5056 H 0.73192 0.87689 0.6179 0.0
C5057 C 0.73001 0.87963 0.62414 0.0
C5058 C 0.72309 0.88565 0.62454 0.0
C5059 C 0.73396 0.87664 0.6319 0.0
H5060 H 0.71511 0.89359 0.63292 0.0
C5061 C 0.72048 0.88898 0.63264 0.0
C5062 C 0.72434 0.88617 0.6404 0.0
C5063 C 0.73101 0.87989 0.64002 0.0
C5064 C 0.74014 0.86915 0.63175 0.0
H5065 H 0.73381 0.87745 0.64604 0.0
C5066 C 0.74843 0.86958 0.62769 0.0
C5067 C 0.75419 0.86234 0.62807 0.0
C5068 C 0.73764 0.86142 0.63596 0.0
H5069 H 0.73131 0.86092 0.63908 0.0
C5070 C 0.74319 0.85424 0.63617 0.0
H5071 H 0.75047 0.87556 0.62454 0.0
C5072 C 0.75138 0.85469 0.63229 0.0
H5073 H 0.75555 0.84899 0.63258 0.0
H5074 H 0.74115 0.8483 0.6394 0.0
H5075 H 0.23277 0.64895 0.40788 0.0
C5076 C 0.23053 0.64625 0.40174 0.0
C5077 C 0.22349 0.64034 0.40167 0.0
C5078 C 0.23429 0.64902 0.39379 0.0
H5079 H 0.21484 0.63268 0.39374 0.0
C5080 C 0.22038 0.63709 0.39373 0.0
C5081 C 0.22401 0.63968 0.38579 0.0
C5082 C 0.23102 0.64557 0.38586 0.0
C5083 C 0.24095 0.65615 0.39347 0.0
H5084 H 0.23386 0.64757 0.37971 0.0
C5085 C 0.24841 0.65634 0.39896 0.0
C5086 C 0.25479 0.663 0.39798 0.0
C5087 C 0.23984 0.66285 0.38731 0.0
H5088 H 0.23412 0.66305 0.38317 0.0
C5089 C 0.24603 0.6694 0.38637 0.0
H5090 H 0.24925 0.65131 0.40385 0.0
C5091 C 0.25346 0.66943 0.39156 0.0
H5092 H 0.25825 0.67449 0.39044 0.0
H5093 H 0.24511 0.67444 0.38152 0.0
H5094 H 0.62637 0.98235 0.65779 0.0
C5095 C 0.62881 0.98019 0.65152 0.0
C5096 C 0.63437 0.97287 0.65106 0.0
C5097 C 0.62595 0.9843 0.64377 0.0
H5098 H 0.64157 0.96431 0.64253 0.0
C5099 C 0.63728 0.96992 0.6429 0.0
C5100 C 0.63465 0.974 0.6352 0.0
C5101 C 0.629 0.98117 0.63564 0.0
C5102 C 0.61885 0.99097 0.64393 0.0
H5103 H 0.62678 0.98417 0.62963 0.0
C5104 C 0.61941 0.99882 0.64878 0.0
C5105 C 0.61265 1.0051 0.64821 0.0
C5106 C 0.61138 0.98942 0.63884 0.0
H5107 H 0.61072 0.98342 0.63515 0.0
C5108 C 0.60468 0.99552 0.63844 0.0
H5109 H 0.62513 1.00016 0.6527 0.0
C5110 C 0.60532 1.00333 0.64304 0.0
H5111 H 0.60007 1.00803 0.64254 0.0
H5112 H 0.59898 0.99423 0.63449 0.0
H5113 H 0.29119 0.3782 0.90807 0.0
C5114 C 0.29375 0.38053 0.9019 0.0
C5115 C 0.30028 0.38698 0.90183 0.0
C5116 C 0.29076 0.3769 0.89396 0.0
H5117 H 0.30903 0.39452 0.8939 0.0
C5118 C 0.30379 0.38977 0.89388 0.0
C5119 C 0.30086 0.38641 0.88593 0.0
C5120 C 0.29438 0.37993 0.886 0.0
C5121 C 0.28448 0.36944 0.89386 0.0
H5122 H 0.29216 0.37725 0.87985 0.0
C5123 C 0.27666 0.3694 0.89882 0.0
C5124 C 0.27088 0.36219 0.89837 0.0
C5125 C 0.28639 0.36219 0.88858 0.0
H5126 H 0.29236 0.36194 0.88481 0.0
C5127 C 0.28069 0.35515 0.88809 0.0
H5128 H 0.27507 0.37493 0.90292 0.0
C5129 C 0.273 0.35516 0.89288 0.0
H5130 H 0.26861 0.34966 0.8922 0.0
H5131 H 0.28224 0.34965 0.88393 0.0
H5132 H 0.39852 0.54262 0.6574 0.0
C5133 C 0.39578 0.54476 0.65125 0.0
C5134 C 0.38961 0.55157 0.65114 0.0
C5135 C 0.39875 0.54111 0.64332 0.0
H5136 H 0.38162 0.55988 0.64313 0.0
C5137 C 0.38626 0.55453 0.64318 0.0
C5138 C 0.38907 0.55099 0.63527 0.0
C5139 C 0.39533 0.54431 0.63535 0.0
C5140 C 0.4061 0.5347 0.64311 0.0
H5141 H 0.39759 0.54166 0.6292 0.0
C5142 C 0.40628 0.52708 0.64835 0.0
C5143 C 0.4133 0.52108 0.64765 0.0
C5144 C 0.41304 0.53626 0.63732 0.0
H5145 H 0.41318 0.54209 0.63333 0.0
C5146 C 0.41988 0.53035 0.63658 0.0
H5147 H 0.40099 0.52578 0.65285 0.0
C5148 C 0.41999 0.52281 0.64161 0.0
H5149 H 0.42528 0.51823 0.64068 0.0
H5150 H 0.42512 0.5316 0.63201 0.0
H5151 H 0.79098 0.14724 0.11824 0.0
C5152 C 0.79373 0.14515 0.12441 0.0
C5153 C 0.80052 0.13897 0.12449 0.0
C5154 C 0.79075 0.14884 0.13232 0.0
H5155 H 0.80969 0.13191 0.13244 0.0
C5156 C 0.80436 0.13656 0.13243 0.0
C5157 C 0.8015 0.14007 0.14033 0.0
C5158 C 0.7946 0.1461 0.14027 0.0
C5159 C 0.7843 0.15615 0.13238 0.0
H5160 H 0.79242 0.14886 0.14641 0.0
C5161 C 0.77648 0.15597 0.12743 0.0
C5162 C 0.7705 0.16303 0.12786 0.0
C5163 C 0.78608 0.16352 0.13754 0.0
H5164 H 0.79206 0.16396 0.14126 0.0
C5165 C 0.78025 0.17046 0.13794 0.0
H5166 H 0.77506 0.15039 0.12335 0.0
C5167 C 0.77252 0.17021 0.1332 0.0
H5168 H 0.76805 0.17565 0.1338 0.0
H5169 H 0.78171 0.17606 0.14199 0.0
H5170 H 0.62711 0.04166 0.86777 0.0
C5171 C 0.62947 0.04404 0.87399 0.0
C5172 C 0.63591 0.05058 0.87421 0.0
C5173 C 0.62586 0.04087 0.88186 0.0
H5174 H 0.64364 0.05899 0.88235 0.0
C5175 C 0.6388 0.05382 0.88224 0.0
C5176 C 0.63536 0.05078 0.8901 0.0
C5177 C 0.62884 0.04434 0.88989 0.0
C5178 C 0.61846 0.03454 0.88182 0.0
H5179 H 0.6261 0.04203 0.89599 0.0
C5180 C 0.61865 0.02665 0.877 0.0
C5181 C 0.61157 0.02069 0.87745 0.0
C5182 C 0.61107 0.03645 0.8869 0.0
H5183 H 0.61067 0.04248 0.89057 0.0
C5184 C 0.60409 0.03067 0.88729 0.0
H5185 H 0.62427 0.02513 0.87301 0.0
C5186 C 0.60434 0.02286 0.88267 0.0
H5187 H 0.59888 0.01843 0.88329 0.0
H5188 H 0.59847 0.03222 0.89126 0.0
H5189 H 0.89875 0.98339 0.36754 0.0
C5190 C 0.8961 0.98101 0.37364 0.0
C5191 C 0.89009 0.97408 0.37361 0.0
C5192 C 0.89903 0.98449 0.38165 0.0
H5193 H 0.88242 0.96533 0.38138 0.0
C5194 C 0.88688 0.97082 0.3815 0.0
C5195 C 0.88949 0.97431 0.38951 0.0
C5196 C 0.89568 0.98109 0.38955 0.0
C5197 C 0.90635 0.99087 0.38194 0.0
H5198 H 0.89793 0.98367 0.39573 0.0
C5199 C 0.906 0.99908 0.37772 0.0
C5200 C 0.91296 1.00508 0.37866 0.0
C5201 C 0.91381 0.98867 0.38679 0.0
H5202 H 0.91427 0.9824 0.39002 0.0
C5203 C 0.92076 0.99446 0.38749 0.0
H5204 H 0.90026 1.0009 0.37403 0.0
C5205 C 0.92034 1.0026 0.38349 0.0
H5206 H 0.92582 1.007 0.38417 0.0
H5207 H 0.92647 0.99266 0.39121 0.0
H5208 H 0.40543 0.28758 0.14187 0.0
C5209 C 0.39967 0.29164 0.14154 0.0
C5210 C 0.40052 0.30033 0.13865 0.0
C5211 C 0.39136 0.28821 0.14368 0.0
H5212 H 0.39376 0.31207 0.13505 0.0
C5213 C 0.39307 0.3055 0.13759 0.0
C5214 C 0.38474 0.30221 0.13923 0.0
C5215 C 0.384 0.29374 0.14264 0.0
C5216 C 0.39011 0.27878 0.14635 0.0
H5217 H 0.37756 0.29139 0.14416 0.0
C5218 C 0.39676 0.27369 0.15038 0.0
C5219 C 0.39516 0.26487 0.15268 0.0
C5220 C 0.38202 0.27468 0.14466 0.0
H5221 H 0.37688 0.27788 0.14107 0.0
C5222 C 0.38037 0.26618 0.14734 0.0
H5223 H 0.40314 0.27643 0.15162 0.0
C5224 C 0.38685 0.26133 0.15135 0.0
H5225 H 0.38546 0.25464 0.15315 0.0
H5226 H 0.37407 0.26326 0.14609 0.0
H5227 H 0.48771 0.65612 0.89125 0.0
C5228 C 0.48352 0.65044 0.89102 0.0
C5229 C 0.47503 0.65121 0.88757 0.0
C5230 C 0.48674 0.64218 0.89358 0.0
H5231 H 0.46352 0.6443 0.88348 0.0
C5232 C 0.46986 0.64375 0.88656 0.0
C5233 C 0.47296 0.63551 0.88891 0.0
C5234 C 0.48121 0.63482 0.89276 0.0
C5235 C 0.49615 0.64079 0.89586 0.0
H5236 H 0.48355 0.6284 0.89457 0.0
C5237 C 0.501 0.64658 0.90123 0.0
C5238 C 0.50979 0.64465 0.90337 0.0
C5239 C 0.5004 0.6334 0.89241 0.0
H5240 H 0.49709 0.62902 0.88797 0.0
C5241 C 0.50902 0.63157 0.89447 0.0
H5242 H 0.49795 0.65239 0.90385 0.0
C5243 C 0.51366 0.6371 0.89991 0.0
H5244 H 0.52043 0.63558 0.90126 0.0
H5245 H 0.51215 0.62585 0.89175 0.0
H5246 H 0.11926 0.73673 0.64498 0.0
C5247 C 0.12515 0.73353 0.64275 0.0
C5248 C 0.12446 0.72571 0.63797 0.0
C5249 C 0.13344 0.737 0.64482 0.0
H5250 H 0.13139 0.71538 0.63151 0.0
C5251 C 0.13201 0.72135 0.63526 0.0
C5252 C 0.14028 0.7247 0.63704 0.0
C5253 C 0.14094 0.73257 0.64169 0.0
C5254 C 0.1345 0.74496 0.6505 0.0
H5255 H 0.14737 0.73516 0.64294 0.0
C5256 C 0.1283 0.75187 0.65074 0.0
C5257 C 0.12978 0.75928 0.65604 0.0
C5258 C 0.14196 0.74568 0.65586 0.0
H5259 H 0.14669 0.74047 0.6563 0.0
C5260 C 0.14347 0.75309 0.66087 0.0
H5261 H 0.12247 0.75158 0.64677 0.0
C5262 C 0.13746 0.75985 0.66095 0.0
H5263 H 0.13875 0.76554 0.66494 0.0
H5264 H 0.14931 0.75355 0.6648 0.0
H5265 H 0.03796 0.36957 0.39295 0.0
C5266 C 0.04175 0.37544 0.39202 0.0
C5267 C 0.05023 0.37476 0.38847 0.0
C5268 C 0.0382 0.38373 0.39412 0.0
H5269 H 0.06123 0.3819 0.38337 0.0
C5270 C 0.05494 0.38237 0.38658 0.0
C5271 C 0.0516 0.39059 0.38853 0.0
C5272 C 0.0435 0.3912 0.3927 0.0
C5273 C 0.02889 0.38489 0.39721 0.0
H5274 H 0.04129 0.39764 0.39452 0.0
C5275 C 0.02404 0.37823 0.40153 0.0
C5276 C 0.01541 0.37986 0.40444 0.0
C5277 C 0.02462 0.39292 0.39562 0.0
H5278 H 0.0276 0.39804 0.39181 0.0
C5279 C 0.01627 0.39455 0.39873 0.0
H5280 H 0.02689 0.37187 0.4027 0.0
C5281 C 1.01173 0.38812 0.40315 0.0
H5282 H 1.00514 0.38949 0.4053 0.0
H5283 H 0.01322 0.4008 0.39752 0.0
H5284 H 0.40474 0.73736 0.38401 0.0
C5285 C 0.39881 0.73361 0.38469 0.0
C5286 C 0.39933 0.72515 0.3883 0.0
C5287 C 0.39064 0.73716 0.38217 0.0
H5288 H 0.39203 0.71411 0.39307 0.0
C5289 C 0.39169 0.72041 0.38985 0.0
C5290 C 0.38359 0.72378 0.38759 0.0
C5291 C 0.3831 0.7319 0.38344 0.0
C5292 C 0.38972 0.74635 0.37859 0.0
H5293 H 0.37673 0.73401 0.38135 0.0
C5294 C 0.39677 0.7511 0.37482 0.0
C5295 C 0.39543 0.75961 0.37146 0.0
C5296 C 0.38154 0.7506 0.3791 0.0
H5297 H 0.37604 0.74776 0.38244 0.0
C5298 C 0.38022 0.75881 0.3755 0.0
H5299 H 0.40323 0.74831 0.37445 0.0
C5300 C 0.38707 0.76326 0.37166 0.0
H5301 H 0.38593 0.76976 0.36912 0.0
H5302 H 0.37386 0.76185 0.37587 0.0
H5303 H 0.03697 0.6562 0.13397 0.0
C5304 C 0.04104 0.65046 0.13456 0.0
C5305 C 0.04951 0.65132 0.13804 0.0
C5306 C 0.0378 0.64213 0.13223 0.0
H5307 H 0.06093 0.64455 0.14257 0.0
C5308 C 0.05459 0.64388 0.13949 0.0
C5309 C 0.0515 0.63557 0.13746 0.0
C5310 C 0.04331 0.63478 0.13345 0.0
C5311 C 0.0285 0.64079 0.12929 0.0
H5312 H 0.04112 0.62832 0.13168 0.0
C5313 C 0.0237 0.64715 0.12453 0.0
C5314 C 0.01507 0.64534 0.12174 0.0
C5315 C 0.02427 0.6329 0.13145 0.0
H5316 H 0.02735 0.62804 0.13553 0.0
C5317 C 0.01587 0.63111 0.12857 0.0
H5318 H 0.02661 0.65337 0.12289 0.0
C5319 C 1.01133 0.63724 0.12371 0.0
H5320 H 1.00473 0.63574 0.12169 0.0
H5321 H 0.01281 0.62498 0.13024 0.0
H5322 H 0.11967 0.28809 0.88555 0.0
C5323 C 0.12538 0.2922 0.88499 0.0
C5324 C 0.12517 0.3007 0.88853 0.0
C5325 C 0.13324 0.28877 0.88155 0.0
H5326 H 0.13268 0.31224 0.89132 0.0
C5327 C 0.13274 0.30582 0.88834 0.0
C5328 C 0.14066 0.30241 0.88551 0.0
C5329 C 0.14081 0.29411 0.88169 0.0
C5330 C 0.13408 0.27928 0.87914 0.0
H5331 H 0.147 0.29163 0.87939 0.0
C5332 C 0.1273 0.27444 0.87506 0.0
C5333 C 0.12857 0.26551 0.87297 0.0
C5334 C 0.14188 0.27488 0.88126 0.0
H5335 H 0.14707 0.27809 0.88479 0.0
C5336 C 0.14313 0.26617 0.87905 0.0
H5337 H 0.12115 0.27753 0.87351 0.0
C5338 C 0.13656 0.26154 0.87491 0.0
H5339 H 0.13765 0.25472 0.87337 0.0
H5340 H 0.14919 0.26295 0.88069 0.0
H5341 H 0.48728 0.37056 0.63305 0.0
C5342 C 0.48338 0.37634 0.63402 0.0
C5343 C 0.47533 0.37541 0.63842 0.0
C5344 C 0.48622 0.38467 0.63104 0.0
H5345 H 0.46437 0.38207 0.64408 0.0
C5346 C 0.47028 0.38277 0.64026 0.0
C5347 C 0.47293 0.39103 0.63762 0.0
C5348 C 0.48057 0.39186 0.63268 0.0
C5349 C 0.49498 0.3861 0.6265 0.0
H5350 H 0.48187 0.3983 0.63027 0.0
C5351 C 0.50083 0.37916 0.62437 0.0
C5352 C 0.50897 0.38091 0.62034 0.0
C5353 C 0.49781 0.3947 0.62445 0.0
H5354 H 0.49422 0.40047 0.62612 0.0
C5355 C 0.50566 0.3963 0.62024 0.0
H5356 H 0.49932 0.37247 0.62593 0.0
C5357 C 0.51118 0.38948 0.61817 0.0
H5358 H 0.51737 0.39094 0.61509 0.0
H5359 H 0.50757 0.40293 0.61874 0.0
H5360 H 0.14086 0.40503 0.28785 0.0
C5361 C 0.14056 0.39934 0.29202 0.0
C5362 C 0.13669 0.40007 0.30034 0.0
C5363 C 0.14351 0.39112 0.28896 0.0
H5364 H 0.1321 0.39313 0.31166 0.0
C5365 C 0.13554 0.39262 0.30548 0.0
C5366 C 0.13826 0.38444 0.30259 0.0
C5367 C 0.14263 0.3838 0.29458 0.0
C5368 C 0.1466 0.38979 0.27969 0.0
H5369 H 0.14491 0.37742 0.29258 0.0
C5370 C 0.15099 0.39632 0.27475 0.0
C5371 C 0.15388 0.39452 0.26613 0.0
C5372 C 0.14489 0.38171 0.2756 0.0
H5373 H 0.1411 0.37669 0.27877 0.0
C5374 C 0.14786 0.37994 0.26722 0.0
H5375 H 0.15226 0.40268 0.27756 0.0
C5376 C 0.15236 0.38624 0.26255 0.0
H5377 H 0.15443 0.38472 0.25596 0.0
H5378 H 0.14653 0.37366 0.26427 0.0
H5379 H 0.3693 0.39172 0.03763 0.0
C5380 C 0.37497 0.39136 0.0418 0.0
C5381 C 0.37417 0.38722 0.04998 0.0
C5382 C 0.38313 0.39468 0.03902 0.0
H5383 H 0.38099 0.38221 0.06116 0.0
C5384 C 0.38157 0.38595 0.05518 0.0
C5385 C 0.38972 0.389 0.05256 0.0
C5386 C 0.39031 0.39385 0.04481 0.0
C5387 C 0.38452 0.39843 0.02997 0.0
H5388 H 0.39653 0.39678 0.0433 0.0
C5389 C 0.37761 0.40176 0.02472 0.0
C5390 C 0.37933 0.405 0.01623 0.0
C5391 C 0.39299 0.39835 0.02631 0.0
H5392 H 0.39846 0.39537 0.02959 0.0
C5393 C 0.39466 0.40187 0.01812 0.0
H5394 H 0.37097 0.4018 0.02707 0.0
C5395 C 0.3879 0.40519 0.01313 0.0
H5396 H 0.38933 0.40766 1.00665 0.0
H5397 H 0.40122 0.4018 0.01553 0.0
H5398 H 0.38528 0.6209 0.78947 0.0
C5399 C 0.38419 0.62673 0.79331 0.0
C5400 C 0.38702 0.627 0.80208 0.0
C5401 C 0.38081 0.63433 0.78929 0.0
H5402 H 0.38836 0.63498 0.81358 0.0
C5403 C 0.38598 0.6347 0.80692 0.0
C5404 C 0.38317 0.64237 0.80295 0.0
C5405 C 0.38033 0.64211 0.79427 0.0
C5406 C 0.37916 0.63476 0.77964 0.0
H5407 H 0.37815 0.64814 0.79129 0.0
C5408 C 0.37488 0.62805 0.77488 0.0
C5409 C 0.37336 0.62906 0.7658 0.0
C5410 C 0.38205 0.6422 0.77506 0.0
H5411 H 0.38566 0.64732 0.77832 0.0
C5412 C 0.38046 0.64318 0.76619 0.0
H5413 H 0.37271 0.62218 0.77817 0.0
C5414 C 0.37612 0.6367 0.7616 0.0
H5415 H 0.37502 0.63759 0.75467 0.0
H5416 H 0.38267 0.64898 0.76283 0.0
H5417 H 0.1558 0.63297 0.53883 0.0
C5418 C 0.14997 0.6336 0.54275 0.0
C5419 C 0.15079 0.63619 0.55154 0.0
C5420 C 0.14163 0.6322 0.53904 0.0
H5421 H 0.14398 0.63975 0.56326 0.0
C5422 C 0.14329 0.63762 0.55655 0.0
C5423 C 0.13498 0.63709 0.55287 0.0
C5424 C 0.13419 0.63385 0.54432 0.0
C5425 C 0.14055 0.6297 0.52955 0.0
H5426 H 0.1277 0.63294 0.54176 0.0
C5427 C 0.14698 0.62497 0.52479 0.0
C5428 C 0.14553 0.62271 0.51594 0.0
C5429 C 0.13291 0.63225 0.52507 0.0
H5430 H 0.12802 0.63632 0.52809 0.0
C5431 C 0.13143 0.62978 0.51647 0.0
H5432 H 0.15302 0.62302 0.52787 0.0
C5433 C 0.13765 0.62501 0.51195 0.0
H5434 H 0.13643 0.62334 0.50519 0.0
H5435 H 0.12548 0.63172 0.51322 0.0
H5436 H 0.14248 0.61923 0.23688 0.0
C5437 C 0.14171 0.62523 0.23324 0.0
C5438 C 0.13889 0.62493 0.22445 0.0
C5439 C 0.14302 0.63335 0.23743 0.0
H5440 H 0.13477 0.63266 0.21339 0.0
C5441 C 0.13744 0.63278 0.21994 0.0
C5442 C 0.13865 0.64083 0.22399 0.0
C5443 C 0.14165 0.6411 0.23261 0.0
C5444 C 0.14464 0.63401 0.24706 0.0
H5445 H 0.14252 0.64741 0.23566 0.0
C5446 C 0.15055 0.62853 0.25162 0.0
C5447 C 0.15212 0.62991 0.26063 0.0
C5448 C 0.14009 0.64045 0.25179 0.0
H5449 H 0.13524 0.64453 0.24866 0.0
C5450 C 0.14162 0.64175 0.26063 0.0
H5451 H 0.15402 0.62342 0.2482 0.0
C5452 C 0.14762 0.63658 0.265 0.0
H5453 H 0.1486 0.63766 0.27192 0.0
H5454 H 0.1381 0.64677 0.26412 0.0
H5455 H 0.15632 0.39109 0.98818 0.0
C5456 C 0.1505 0.39101 0.98417 0.0
C5457 C 0.1511 0.38855 0.97534 0.0
C5458 C 0.14229 0.39265 0.98797 0.0
H5459 H 0.14404 0.38576 0.96357 0.0
C5460 C 0.1435 0.38787 0.9703 0.0
C5461 C 0.13523 0.38899 0.97402 0.0
C5462 C 0.13471 0.39163 0.9828 0.0
C5463 C 0.14134 0.39384 0.99761 0.0
H5464 H 0.12838 0.3923 0.98583 0.0
C5465 C 0.14627 0.39998 1.00248 0.0
C5466 C 0.14484 0.40093 1.01159 0.0
C5467 C 0.13524 0.38858 1.00201 0.0
H5468 H 0.13153 0.38367 0.99855 0.0
C5469 C 0.1339 0.38946 1.01093 0.0
H5470 H 0.15099 0.40408 0.99919 0.0
C5471 C 0.13862 0.39556 0.01567 0.0
H5472 H 0.1375 0.39595 0.02263 0.0
H5473 H 0.12919 0.38534 0.0142 0.0
H5474 H 0.38216 0.40579 0.73715 0.0
C5475 C 0.38307 0.39987 0.73341 0.0
C5476 C 0.38641 0.40044 0.72483 0.0
C5477 C 0.38131 0.39163 0.73721 0.0
H5478 H 0.39133 0.39312 0.71385 0.0
C5479 C 0.38823 0.39276 0.72021 0.0
C5480 C 0.3866 0.38458 0.72382 0.0
C5481 C 0.38276 0.38405 0.73209 0.0
C5482 C 0.37883 0.39067 0.74668 0.0
H5483 H 0.38133 0.37762 0.73464 0.0
C5484 C 0.37392 0.39703 0.75134 0.0
C5485 C 0.37166 0.3956 0.7602 0.0
C5486 C 0.38165 0.38319 0.75126 0.0
H5487 H 0.38585 0.37839 0.74826 0.0
C5488 C 0.37928 0.38176 0.75989 0.0
H5489 H 0.3718 0.40296 0.74816 0.0
C5490 C 0.37428 0.38786 0.76431 0.0
H5491 H 0.37267 0.38666 0.77109 0.0
H5492 H 0.38145 0.37592 0.76322 0.0
H5493 H 0.36979 0.63104 0.48724 0.0
C5494 C 0.37566 0.6333 0.48404 0.0
C5495 C 0.37495 0.63827 0.47632 0.0
C5496 C 0.38397 0.63106 0.48738 0.0
H5497 H 0.38189 0.64469 0.46594 0.0
C5498 C 0.38249 0.64097 0.47194 0.0
C5499 C 0.39075 0.63902 0.47517 0.0
C5500 C 0.39145 0.63426 0.48296 0.0
C5501 C 0.3851 0.62504 0.49508 0.0
H5502 H 0.39791 0.63311 0.48556 0.0
C5503 C 0.37903 0.62451 0.5021 0.0
C5504 C 0.38051 0.61868 0.50915 0.0
C5505 C 0.39249 0.61955 0.49534 0.0
H5506 H 0.39711 0.61934 0.49001 0.0
C5507 C 0.39406 0.61409 0.50239 0.0
H5508 H 0.37323 0.62852 0.50209 0.0
C5509 C 0.38817 0.61367 0.50924 0.0
H5510 H 0.38958 0.60934 0.51464 0.0
H5511 H 0.39986 0.61007 0.50251 0.0
H5512 H 0.28882 0.14423 0.40608 0.0
C5513 C 0.29202 0.14194 0.40021 0.0
C5514 C 0.2996 0.13681 0.40094 0.0
C5515 C 0.28884 0.14435 0.39188 0.0
H5516 H 0.30975 0.13003 0.39406 0.0
C5517 C 0.30399 0.13408 0.39341 0.0
C5518 C 0.30106 0.13643 0.3851 0.0
C5519 C 0.29335 0.14132 0.38438 0.0
C5520 C 0.28124 0.15047 0.39083 0.0
H5521 H 0.29099 0.1429 0.37792 0.0
C5522 C 0.27401 0.15055 0.39663 0.0
C5523 C 0.26697 0.15635 0.39519 0.0
C5524 C 0.28126 0.15642 0.3838 0.0
H5525 H 0.28675 0.15689 0.3794 0.0
C5526 C 0.27424 0.162 0.38235 0.0
H5527 H 0.27377 0.1461 0.40211 0.0
C5528 C 0.26715 0.16195 0.38797 0.0
H5529 H 0.26177 0.16636 0.38672 0.0
H5530 H 0.27435 0.16643 0.37685 0.0
H5531 H 0.78831 0.38223 0.61895 0.0
C5532 C 0.79218 0.38291 0.62482 0.0
C5533 C 0.80109 0.38507 0.62416 0.0
C5534 C 0.78813 0.38237 0.63307 0.0
H5535 H 0.81278 0.38811 0.6313 0.0
C5536 C 0.80595 0.38638 0.63181 0.0
C5537 C 0.80197 0.38645 0.64003 0.0
C5538 C 0.79315 0.38408 0.64063 0.0
C5539 C 0.77844 0.38162 0.63386 0.0
H5540 H 0.79004 0.38409 0.64698 0.0
C5541 C 0.77347 0.37532 0.62924 0.0
C5542 C 0.7643 0.37487 0.63042 0.0
C5543 C 0.77409 0.38754 0.63937 0.0
H5544 H 0.77763 0.3926 0.64279 0.0
C5545 C 0.76511 0.38715 0.64046 0.0
H5546 H 0.7767 0.37073 0.62496 0.0
C5547 C 0.76027 0.38089 0.63606 0.0
H5548 H 0.75327 0.38087 0.63696 0.0
H5549 H 0.76188 0.39177 0.6447 0.0
H5550 H 0.39125 0.03771 0.37044 0.0
C5551 C 0.39142 0.0421 0.37598 0.0
C5552 C 0.3892 0.05093 0.37477 0.0
C5553 C 0.3933 0.03889 0.38442 0.0
H5554 H 0.38734 0.06335 0.38088 0.0
C5555 C 0.38893 0.05655 0.38195 0.0
C5556 C 0.38953 0.05332 0.39047 0.0
C5557 C 0.39228 0.04463 0.39162 0.0
C5558 C 0.39547 0.02942 0.38592 0.0
H5559 H 0.39327 0.04229 0.39819 0.0
C5560 C 0.40022 0.02432 0.37979 0.0
C5561 C 0.4024 0.01555 0.3817 0.0
C5562 C 0.39272 0.02536 0.39372 0.0
H5563 H 0.38867 0.02873 0.39841 0.0
C5564 C 0.39501 0.01679 0.39562 0.0
H5565 H 0.40231 0.02714 0.37366 0.0
C5566 C 0.39986 1.01194 0.38971 0.0
H5567 H 0.40142 1.00523 0.39128 0.0
H5568 H 0.3929 0.01384 0.40168 0.0
H5569 H 0.73646 0.63988 0.12 0.0
C5570 C 0.73267 0.64066 0.12593 0.0
C5571 C 0.72395 0.63777 0.12615 0.0
C5572 C 0.73682 0.64346 0.13367 0.0
H5573 H 0.71267 0.63577 0.13426 0.0
C5574 C 0.71931 0.6382 0.13402 0.0
C5575 C 0.72343 0.64041 0.14183 0.0
C5576 C 0.73208 0.64334 0.1416 0.0
C5577 C 0.74651 0.64406 0.13409 0.0
H5578 H 0.7354 0.64469 0.1477 0.0
C5579 C 0.75149 0.65027 0.12936 0.0
C5580 C 0.7607 0.65053 0.13034 0.0
C5581 C 0.75084 0.63806 0.1395 0.0
H5582 H 0.74722 0.63316 0.14308 0.0
C5583 C 0.75985 0.6382 0.14033 0.0
H5584 H 0.74823 0.65494 0.12518 0.0
C5585 C 0.76472 0.64436 0.13581 0.0
H5586 H 0.77175 0.64421 0.13655 0.0
H5587 H 0.76308 0.6335 0.14448 0.0
H5588 H 0.63561 0.48804 0.37045 0.0
C5589 C 0.63509 0.48386 0.37613 0.0
C5590 C 0.63863 0.47537 0.37586 0.0
C5591 C 0.63182 0.48724 0.38405 0.0
H5592 H 0.64173 0.46388 0.38326 0.0
C5593 C 0.63858 0.47021 0.38342 0.0
C5594 C 0.63539 0.47341 0.39135 0.0
C5595 C 0.63184 0.48186 0.39156 0.0
C5596 C 0.63024 0.49679 0.38517 0.0
H5597 H 0.62959 0.48446 0.39774 0.0
C5598 C 0.62462 0.50175 0.37973 0.0
C5599 C 0.62334 0.51079 0.38138 0.0
C5600 C 0.63468 0.50103 0.39199 0.0
H5601 H 0.63918 0.49749 0.39613 0.0
C5602 C 0.63353 0.50987 0.39352 0.0
H5603 H 0.62115 0.49858 0.37446 0.0
C5604 C 0.62793 0.5147 0.3883 0.0
H5605 H 0.62731 0.52162 0.38961 0.0
H5606 H 0.63704 0.51303 0.39877 0.0
H5607 H 0.23622 0.88096 0.90591 0.0
C5608 C 0.23298 0.88309 0.90001 0.0
C5609 C 0.22537 0.88821 0.90068 0.0
C5610 C 0.2362 0.88062 0.8917 0.0
H5611 H 0.21516 0.89483 0.89366 0.0
C5612 C 0.221 0.89087 0.89312 0.0
C5613 C 0.22414 0.88866 0.88488 0.0
C5614 C 0.23173 0.88363 0.88418 0.0
C5615 C 0.24398 0.87471 0.89068 0.0
H5616 H 0.23419 0.88223 0.87771 0.0
C5617 C 0.25108 0.87467 0.89663 0.0
C5618 C 0.25834 0.86916 0.89515 0.0
C5619 C 0.24432 0.86899 0.88346 0.0
H5620 H 0.23894 0.86848 0.87893 0.0
C5621 C 0.25155 0.86373 0.88196 0.0
H5622 H 0.25108 0.87894 0.90225 0.0
C5623 C 0.25853 0.86383 0.88773 0.0
H5624 H 0.26408 0.85965 0.88645 0.0
H5625 H 0.25173 0.8595 0.87631 0.0
H5626 H 0.39234 0.98706 0.15698 0.0
C5627 C 0.39189 0.98344 0.15092 0.0
C5628 C 0.38943 0.97456 0.15107 0.0
C5629 C 0.39298 0.98782 0.1429 0.0
H5630 H 0.38603 0.96339 0.14317 0.0
C5631 C 0.38838 0.97007 0.14315 0.0
C5632 C 0.38934 0.97434 0.13516 0.0
C5633 C 0.39178 0.98314 0.13506 0.0
C5634 C 0.3936 0.99751 0.1425 0.0
H5635 H 0.39222 0.98648 0.12884 0.0
C5636 C 0.40005 1.00237 0.14701 0.0
C5637 C 0.40042 1.01157 0.14604 0.0
C5638 C 0.38747 1.00197 0.13733 0.0
H5639 H 0.38236 0.99845 0.13396 0.0
C5640 C 0.38777 1.01098 0.13649 0.0
H5641 H 0.40482 0.99903 0.151 0.0
C5642 C 0.39417 0.01574 0.14078 0.0
H5643 H 0.39414 0.02277 0.14006 0.0
H5644 H 0.38299 0.01431 0.13251 0.0
H5645 H 0.13319 0.03783 0.65662 0.0
C5646 C 0.13367 0.04202 0.65097 0.0
C5647 C 0.13673 0.05063 0.65207 0.0
C5648 C 0.13145 0.03887 0.64254 0.0
H5649 H 0.14029 0.06258 0.64573 0.0
C5650 C 0.13789 0.05599 0.64478 0.0
C5651 C 0.13665 0.05284 0.63633 0.0
C5652 C 0.13294 0.04451 0.6353 0.0
C5653 C 0.12805 0.02968 0.64111 0.0
H5654 H 0.13143 0.04244 0.62874 0.0
C5655 C 0.12372 0.02473 0.64772 0.0
C5656 C 0.12038 0.01629 0.64588 0.0
C5657 C 0.12922 0.02566 0.63288 0.0
H5658 H 0.13297 0.02867 0.62775 0.0
C5659 C 0.12575 0.01747 0.63107 0.0
H5660 H 0.12295 0.02733 0.65423 0.0
C5661 C 0.12131 0.01286 0.63746 0.0
H5662 H 0.11896 1.00637 0.63595 0.0
H5663 H 0.12672 0.01458 0.62469 0.0
C5664 C 0.02771 0.16104 0.40461 0.0
C5665 C 0.03065 0.16094 0.41334 0.0
C5666 C 0.01999 0.15676 0.40213 0.0
C5667 C 0.01488 0.15227 0.40827 0.0
H5668 H 0.03167 0.16398 0.39956 0.0
H5669 H 0.01836 0.15642 0.39526 0.0
S5670 S 0.01892 0.15112 0.43208 0.0
N5671 N 0.02721 0.15683 0.42827 0.0
N5672 N 0.01282 0.14867 0.42354 0.0
C5673 C 0.01741 0.15263 0.41708 0.0
C5674 C 0.02526 0.15698 0.41962 0.0
C5675 C 0.11354 0.77483 0.66613 0.0
C5676 C 0.11542 0.78268 0.66176 0.0
C5677 C 0.11763 0.76697 0.6637 0.0
C5678 C 0.12359 0.76669 0.65672 0.0
H5679 H 0.10924 0.77486 0.67174 0.0
H5680 H 0.11652 0.7612 0.66762 0.0
S5681 S 0.12993 0.78523 0.64259 0.0
N5682 N 0.12304 0.78952 0.64968 0.0
N5683 N 0.13068 0.77478 0.64512 0.0
C5684 C 0.1251 0.77438 0.65199 0.0
C5685 C 0.12102 0.78237 0.65451 0.0
C5686 C 0.49371 0.87637 0.91404 0.0
C5687 C 0.49336 0.86727 0.9152 0.0
C5688 C 0.50087 0.88036 0.90999 0.0
C5689 C 0.50797 0.87545 0.90683 0.0
H5690 H 0.48814 0.8804 0.91567 0.0
H5691 H 0.50056 0.88731 0.90877 0.0
S5692 S 0.51118 0.85169 0.91005 0.0
N5693 N 0.50151 0.85368 0.91436 0.0
N5694 N 0.51481 0.86116 0.90641 0.0
C5695 C 0.50813 0.86648 0.90876 0.0
C5696 C 0.50085 0.86241 0.91298 0.0
C5697 C 0.40833 0.2442 0.15379 0.0
C5698 C 0.41075 0.24377 0.16261 0.0
C5699 C 0.40404 0.25154 0.15043 0.0
C5700 C 0.40202 0.25875 0.15576 0.0
H5701 H 0.40941 0.23865 0.14954 0.0
H5702 H 0.40179 0.25136 0.14373 0.0
S5703 S 0.40789 0.26121 0.17908 0.0
N5704 N 0.41157 0.25142 0.17645 0.0
N5705 N 0.40342 0.26526 0.17014 0.0
C5706 C 0.4049 0.25862 0.16446 0.0
C5707 C 0.40927 0.2511 0.1679 0.0
C5708 C 0.03062 0.87606 0.11143 0.0
C5709 C 0.03103 0.86691 0.11101 0.0
C5710 C 0.02355 0.88031 0.11538 0.0
C5711 C 0.01663 0.87561 0.11921 0.0
H5712 H 0.03609 0.87999 0.1093 0.0
H5713 H 0.02382 0.88735 0.11601 0.0
S5714 S 0.01353 0.85166 0.11789 0.0
N5715 N 0.02302 0.85337 0.11311 0.0
N5716 N 1.00994 0.86135 0.12093 0.0
C5717 C 0.01648 0.86652 0.11796 0.0
C5718 C 0.02365 0.86218 0.11381 0.0
C5719 C 0.41098 0.7785 0.37189 0.0
C5720 C 0.41136 0.78098 0.36304 0.0
C5721 C 0.40664 0.77087 0.37452 0.0
C5722 C 0.40257 0.76538 0.36841 0.0
H5723 H 0.41355 0.78278 0.37689 0.0
H5724 H 0.40588 0.76962 0.38144 0.0
S5725 S 0.40282 0.76813 0.3444 0.0
N5726 N 0.40822 0.7767 0.34809 0.0
N5727 N 0.39992 0.76246 0.35309 0.0
C5728 C 0.40344 0.76743 0.35952 0.0
C5729 C 0.40786 0.7752 0.35682 0.0
C5730 C 0.49437 0.14955 0.6107 0.0
C5731 C 0.49367 0.15869 0.61078 0.0
C5732 C 0.50149 0.1453 0.61456 0.0
C5733 C 0.50819 0.14999 0.61878 0.0
H5734 H 0.48907 0.14558 0.60824 0.0
H5735 H 0.50143 0.13824 0.6148 0.0
S5736 S 0.51054 0.17406 0.61889 0.0
N5737 N 0.50119 0.17233 0.61383 0.0
N5738 N 0.51438 0.16433 0.62145 0.0
C5739 C 0.50807 0.15913 0.61806 0.0
C5740 C 0.50084 0.16348 0.61401 0.0
C5741 C 0.11272 0.24688 0.87184 0.0
C5742 C 0.11335 0.24424 0.86304 0.0
C5743 C 0.11687 0.25447 0.87486 0.0
C5744 C 0.12173 0.2598 0.86919 0.0
H5745 H 0.10949 0.24274 0.87656 0.0
H5746 H 0.11683 0.25583 0.88179 0.0
S5747 S 0.12433 0.25659 0.84537 0.0
N5748 N 0.11837 0.24819 0.84853 0.0
N5749 N 0.12625 0.26239 0.85425 0.0
C5750 C 0.12188 0.2576 0.86029 0.0
C5751 C 0.11768 0.24985 0.85721 0.0
C5752 C 0.41492 0.03111 0.14994 0.0
C5753 C 0.4151 0.03172 0.15909 0.0
C5754 C 0.411 0.02399 0.14575 0.0
C5755 C 0.40698 0.01723 0.15051 0.0
H5756 H 0.4172 0.03648 0.14595 0.0
H5757 H 0.4105 0.02413 0.13869 0.0
S5758 S 0.40758 0.01465 0.17455 0.0
N5759 N 0.41251 0.02406 0.17276 0.0
N5760 N 0.40478 1.01087 0.16486 0.0
C5761 C 0.40798 0.01726 0.15963 0.0
C5762 C 0.41209 0.02448 0.16391 0.0
C5763 C 0.25085 0.16553 0.41145 0.0
C5764 C 0.24299 0.16149 0.40893 0.0
C5765 C 0.25881 0.1633 0.40747 0.0
C5766 C 0.25922 0.15683 0.40096 0.0
H5767 H 0.25078 0.17074 0.41623 0.0
H5768 H 0.26461 0.16695 0.40917 0.0
S5769 S 0.24074 0.14367 0.39271 0.0
N5770 N 0.2363 0.15021 0.40003 0.0
N5771 N 0.25124 0.14609 0.39256 0.0
C5772 C 0.25152 0.15245 0.39872 0.0
C5773 C 0.24342 0.15475 0.40271 0.0
C5774 C 0.12095 0.99695 0.66092 0.0
C5775 C 0.11219 0.99421 0.66117 0.0
C5776 C 0.12339 1.00475 0.65678 0.0
C5777 C 0.11721 1.01015 0.65271 0.0
H5778 H 0.12604 0.99279 0.66349 0.0
H5779 H 0.13027 1.00624 0.65618 0.0
S5780 S 0.09326 1.00668 0.65277 0.0
N5781 N 0.09718 0.99812 0.65801 0.0
N5782 N 0.10179 1.01265 0.64997 0.0
C5783 C 0.10836 1.0078 0.6534 0.0
C5784 C 0.10585 0.99987 0.65769 0.0
C5785 C 0.27431 0.85979 0.91143 0.0
C5786 C 0.28211 0.86408 0.90919 0.0
C5787 C 0.26638 0.86201 0.90739 0.0
C5788 C 0.26595 0.86869 0.9011 0.0
H5789 H 0.27443 0.85441 0.91601 0.0
H5790 H 0.26064 0.85816 0.90883 0.0
S5791 S 0.2843 0.88251 0.89368 0.0
N5792 N 0.28874 0.87579 0.90083 0.0
N5793 N 0.27385 0.87992 0.89327 0.0
C5794 C 0.27359 0.87333 0.89919 0.0
C5795 C 0.28166 0.87103 0.90322 0.0
C5796 C 0.41803 0.99834 0.37353 0.0
C5797 C 0.41327 0.99434 0.36677 0.0
C5798 C 0.41488 1.00583 0.37779 0.0
C5799 C 0.40688 1.00966 0.37543 0.0
H5800 H 0.42406 0.99545 0.3758 0.0
H5801 H 0.41848 1.00834 0.38333 0.0
S5802 S 0.39207 1.00204 0.35795 0.0
N5803 N 0.40026 0.99505 0.35771 0.0
N5804 N 0.39447 1.00916 0.36567 0.0
C5805 C 0.40232 1.00606 0.36836 0.0
C5806 C 0.40548 0.9984 0.36404 0.0
C5807 C 0.27744 0.15605 0.61377 0.0
C5808 C 0.28123 0.16404 0.61632 0.0
C5809 C 0.26995 0.15278 0.61793 0.0
C5810 C 0.26594 0.15739 0.62477 0.0
H5811 H 0.2806 0.15201 0.6089 0.0
H5812 H 0.26766 0.14631 0.61624 0.0
S5813 S 0.27237 0.17921 0.63296 0.0
N5814 N 0.27967 0.17697 0.62536 0.0
N5815 N 0.26572 0.17074 0.63327 0.0
C5816 C 0.26926 0.16566 0.62693 0.0
C5817 C 0.27687 0.169 0.62269 0.0
C5818 C 0.11836 0.02705 0.86345 0.0
C5819 C 0.11047 0.03102 0.86604 0.0
C5820 C 0.12154 0.01955 0.86768 0.0
C5821 C 0.11693 0.01571 0.87461 0.0
H5822 H 0.12241 0.03011 0.85854 0.0
H5823 H 0.12797 0.01717 0.86598 0.0
S5824 S 0.0953 0.02259 0.88289 0.0
N5825 N 0.09759 0.02977 0.87519 0.0
N5826 N 0.10365 0.01579 0.88319 0.0
C5827 C 0.10872 0.01917 0.87676 0.0
C5828 C 0.10548 0.02679 0.87248 0.0
C5829 C 0.25097 0.85551 0.1228 0.0
C5830 C 0.24627 0.86001 0.11633 0.0
C5831 C 0.25835 0.85926 0.12675 0.0
C5832 C 0.26128 0.86762 0.12436 0.0
H5833 H 0.24869 0.84924 0.12513 0.0
H5834 H 0.26139 0.85587 0.13215 0.0
S5835 S 0.25151 0.88195 0.10756 0.0
N5836 N 0.24533 0.87313 0.10747 0.0
N5837 N 0.25917 0.88011 0.11489 0.0
C5838 C 0.25697 0.87194 0.11754 0.0
C5839 C 0.24946 0.86815 0.11353 0.0
C5840 C 0.1496 0.41559 0.03089 0.0
C5841 C 0.15868 0.41479 0.03187 0.0
C5842 C 0.14527 0.41189 0.02373 0.0
C5843 C 0.1498 0.40714 0.01727 0.0
H5844 H 0.14571 0.41849 0.03602 0.0
H5845 H 0.13822 0.41219 0.02359 0.0
S5846 S 0.17382 0.40506 0.01565 0.0
N5847 N 0.17223 0.41048 0.02483 0.0
N5848 N 0.16403 0.40319 1.01156 0.0
C5849 C 0.15895 0.40715 0.01765 0.0
C5850 C 0.16339 0.41102 0.02491 0.0
C5851 C 0.64873 0.11013 0.99515 0.0
C5852 C 0.65787 0.11005 0.9945 0.0
C5853 C 0.64452 0.11403 1.00228 0.0
C5854 C 0.64923 0.11815 1.00902 0.0
H5855 H 0.64475 0.10776 0.98982 0.0
H5856 H 0.63746 0.11437 1.00218 0.0
S5857 S 0.67327 0.11781 1.01151 0.0
N5858 N 0.6715 0.11282 1.00213 0.0
N5859 N 0.66357 0.12054 0.01531 0.0
C5860 C 0.65835 0.11727 1.00894 0.0
C5861 C 0.66267 0.11317 1.00171 0.0
C5862 C 0.16898 0.4034 0.24882 0.0
C5863 C 0.16381 0.40979 0.24472 0.0
C5864 C 0.16614 0.39914 0.25643 0.0
C5865 C 0.15803 0.40108 0.26028 0.0
H5866 H 0.17509 0.40139 0.2459 0.0
H5867 H 0.17006 0.39385 0.259 0.0
S5868 S 0.14228 0.41766 0.25251 0.0
N5869 N 0.15037 0.41819 0.24543 0.0
N5870 N 0.14513 0.41019 0.25973 0.0
C5871 C 0.15308 0.40786 0.25661 0.0
C5872 C 0.15594 0.4122 0.24883 0.0
C5873 C 0.86219 0.9105 0.50023 0.0
C5874 C 0.86702 0.91479 0.49366 0.0
C5875 C 0.8663 0.90675 0.50755 0.0
C5876 C 0.87538 0.90718 0.50857 0.0
H5877 H 0.85524 0.90958 0.49946 0.0
H5878 H 0.86242 0.90289 0.51203 0.0
S5879 S 0.89087 0.91887 0.49413 0.0
N5880 N 0.88133 0.92005 0.48929 0.0
N5881 N 0.88893 0.9133 0.50314 0.0
C5882 C 0.88015 0.91222 0.50255 0.0
C5883 C 0.87601 0.91595 0.49507 0.0
C5884 C 0.87108 0.114 0.24708 0.0
C5885 C 0.86226 0.11374 0.24449 0.0
C5886 C 0.87365 0.11818 0.25483 0.0
C5887 C 0.86753 0.12221 0.26032 0.0
H5888 H 0.8761 0.11145 0.24283 0.0
H5889 H 0.88055 0.11885 0.25618 0.0
S5890 S 0.84357 0.12225 0.25727 0.0
N5891 N 0.84732 0.11697 0.24865 0.0
N5892 N 0.85221 0.12497 0.2631 0.0
C5893 C 0.85866 0.12146 0.25815 0.0
C5894 C 0.85602 0.11721 0.25026 0.0
C5895 C 0.3678 0.60715 0.52697 0.0
C5896 C 0.36576 0.61389 0.53283 0.0
C5897 C 0.37193 0.60889 0.51899 0.0
C5898 C 0.3743 0.61745 0.51656 0.0
H5899 H 0.36635 0.60044 0.52865 0.0
H5900 H 0.37363 0.60344 0.51483 0.0
S5901 S 0.37016 0.63746 0.52947 0.0
N5902 N 0.36609 0.62952 0.53551 0.0
N5903 N 0.374 0.63276 0.52056 0.0
C5904 C 0.37196 0.6243 0.52218 0.0
C5905 C 0.36768 0.62252 0.53031 0.0
C5906 C 0.15838 0.61175 0.27585 0.0
C5907 C 0.16449 0.61588 0.28136 0.0
C5908 C 0.15515 0.61589 0.26833 0.0
C5909 C 0.15792 0.62431 0.26602 0.0
H5910 H 0.15564 0.6055 0.27768 0.0
H5911 H 0.14988 0.61282 0.26476 0.0
S5912 S 0.1748 0.6374 0.27733 0.0
N5913 N 0.17393 0.62847 0.2833 0.0
N5914 N 0.16795 0.63615 0.26913 0.0
C5915 C 0.16467 0.62811 0.27094 0.0
C5916 C 0.16794 0.62393 0.27861 0.0
C5917 C 0.35602 0.40403 0.77713 0.0
C5918 C 0.36086 0.41071 0.78115 0.0
C5919 C 0.35907 0.3998 0.76959 0.0
C5920 C 0.36708 0.40211 0.76574 0.0
H5921 H 0.35002 0.40175 0.78008 0.0
H5922 H 0.35546 0.39425 0.76712 0.0
S5923 S 0.38198 0.41955 0.77325 0.0
N5924 N 0.37386 0.41978 0.78032 0.0
N5925 N 0.3795 0.41185 0.76613 0.0
C5926 C 0.37167 0.40918 0.76929 0.0
C5927 C 0.36859 0.41347 0.777 0.0
C5928 C 0.99532 0.87519 0.61344 0.0
C5929 C 0.99434 0.86648 0.61067 0.0
C5930 C 1.0036 0.87885 0.61487 0.0
C5931 C 1.01126 0.87394 0.6137 0.0
H5932 H 0.98963 0.87926 0.61444 0.0
H5933 H 1.00403 0.88567 0.61668 0.0
S5934 S 0.01245 0.851 0.60624 0.0
N5935 N 1.0019 0.85311 0.60662 0.0
N5936 N 0.0174 0.86001 0.60947 0.0
C5937 C 1.01042 0.86521 0.61108 0.0
C5938 C 1.00199 0.86148 0.60955 0.0
C5939 C 0.91298 0.25197 0.36346 0.0
C5940 C 0.90786 0.2448 0.36075 0.0
C5941 C 0.90935 0.26036 0.36448 0.0
C5942 C 0.90047 0.26191 0.36284 0.0
H5943 H 0.9199 0.25114 0.36457 0.0
H5944 H 0.91359 0.26573 0.36624 0.0
S5945 S 0.88403 0.24526 0.35666 0.0
N5946 N 0.89327 0.23977 0.35722 0.0
N5947 N 0.88651 0.25545 0.35907 0.0
C5948 C 0.89523 0.25475 0.36047 0.0
C5949 C 0.89891 0.24624 0.35943 0.0
C5950 C 0.523 0.16413 0.10952 0.0
C5951 C 0.53065 0.15917 0.11085 0.0
C5952 C 0.51466 0.16051 0.11082 0.0
C5953 C 0.51364 0.15182 0.11355 0.0
H5954 H 0.52345 0.17078 0.10719 0.0
H5955 H 0.50897 0.16443 0.10934 0.0
S5956 S 0.53139 0.13623 0.11861 0.0
N5957 N 0.53652 0.14523 0.11565 0.0
N5958 N 0.52088 0.13845 0.11788 0.0
C5959 C 0.52118 0.14688 0.11515 0.0
C5960 C 0.52966 0.15053 0.11385 0.0
C5961 C 0.62565 0.77899 0.86009 0.0
C5962 C 0.61659 0.78023 0.86081 0.0
C5963 C 0.62942 0.77073 0.86122 0.0
C5964 C 0.62432 0.76333 0.86312 0.0
H5965 H 0.62987 0.78446 0.85863 0.0
H5966 H 0.63641 0.7701 0.86047 0.0
S5967 S 0.60028 0.76294 0.86545 0.0
N5968 N 0.60258 0.77327 0.86342 0.0
N5969 N 0.60972 0.75776 0.86559 0.0
C5970 C 0.61527 0.76447 0.864 0.0
C5971 C 0.61141 0.7729 0.86282 0.0
C5972 C 1.00103 0.16099 0.92144 0.0
C5973 C 0.99468 0.1593 0.91504 0.0
C5974 C 1.00954 0.15769 0.92068 0.0
C5975 C 1.01208 0.15254 0.91349 0.0
H5976 H 0.99941 0.16487 0.92712 0.0
H5977 H 0.01414 0.15905 0.92586 0.0
S5978 S 0.99787 0.14601 0.89504 0.0
N5979 N 0.99151 0.15204 0.9013 0.0
N5980 N 1.00749 0.14585 0.89988 0.0
C5981 C 1.00584 0.15092 0.90696 0.0
C5982 C 0.99716 0.15428 0.90774 0.0
C5983 C 0.61927 0.24802 0.6573 0.0
C5984 C 0.61508 0.24545 0.66509 0.0
C5985 C 0.62281 0.25644 0.65631 0.0
C5986 C 0.62229 0.26262 0.66306 0.0
H5987 H 0.62013 0.24337 0.65204 0.0
H5988 H 0.62637 0.25797 0.65039 0.0
S5989 S 0.61096 0.25968 0.68424 0.0
N5990 N 0.60982 0.25018 0.67929 0.0
N5991 N 0.61656 0.26589 0.67746 0.0
C5992 C 0.61772 0.2603 0.67068 0.0
C5993 C 0.61412 0.25175 0.67169 0.0
C5994 C 0.52904 0.87526 0.41543 0.0
C5995 C 0.53033 0.8662 0.41475 0.0
C5996 C 0.52074 0.87898 0.41439 0.0
C5997 C 0.51335 0.87382 0.41261 0.0
H5998 H 0.53449 0.87954 0.4168 0.0
H5999 H 0.52006 0.88597 0.41515 0.0
S6000 S 0.51308 0.84975 0.41045 0.0
N6001 N 0.52342 0.85212 0.41233 0.0
N6002 N 0.50785 0.85916 0.41031 0.0
C6003 C 0.51454 0.86477 0.41177 0.0
C6004 C 0.52301 0.86096 0.41286 0.0
C6005 C 0.90557 0.77761 0.15776 0.0
C6006 C 0.90873 0.78068 0.16584 0.0
C6007 C 0.90201 0.76918 0.15689 0.0
C6008 C 0.90154 0.76346 0.16406 0.0
H6009 H 0.90558 0.78187 0.15212 0.0
H6010 H 0.8993 0.76727 0.15066 0.0
S6011 S 0.91015 0.76784 0.1863 0.0
N6012 N 0.91193 0.77699 0.18091 0.0
N6013 N 0.90547 0.76117 0.17928 0.0
C6014 C 0.90514 0.7663 0.17205 0.0
C6015 C 0.90866 0.77489 0.17295 0.0
C6016 C 0.60309 1.00066 0.86536 0.0
C6017 C 0.60995 0.99462 0.86609 0.0
C6018 C 0.60388 1.00919 0.86862 0.0
C6019 C 0.61154 1.01207 0.87284 0.0
H6020 H 0.59703 0.99877 0.86227 0.0
H6021 H 0.59835 0.01353 0.86798 0.0
S6022 S 0.63142 0.99878 0.87646 0.0
N6023 N 0.62472 0.99214 0.87126 0.0
N6024 N 0.62615 1.00812 0.87747 0.0
C6025 C 0.61853 1.00616 0.87342 0.0
C6026 C 0.61774 0.99746 0.87006 0.0
C6027 C 0.77863 0.85844 0.6259 0.0
C6028 C 0.78044 0.8607 0.61719 0.0
C6029 C 0.77023 0.85935 0.62941 0.0
C6030 C 0.76322 0.86253 0.62438 0.0
H6031 H 0.78377 0.85595 0.63006 0.0
H6032 H 0.76919 0.85744 0.63614 0.0
S6033 S 0.76439 0.86915 0.60114 0.0
N6034 N 0.77445 0.86618 0.60356 0.0
N6035 N 0.75867 0.86786 0.61018 0.0
C6036 C 0.76494 0.86493 0.61569 0.0
C6037 C 0.77353 0.86401 0.6121 0.0
C6038 C 0.91299 0.02369 0.36211 0.0
C6039 C 0.91483 0.03107 0.36732 0.0
C6040 C 0.91195 0.01534 0.36582 0.0
C6041 C 0.91272 0.01405 0.37487 0.0
H6042 H 0.91257 0.02433 0.35509 0.0
H6043 H 0.91086 1.00981 0.36155 0.0
S6044 S 0.91644 0.03127 0.39148 0.0
N6045 N 0.91659 0.03655 0.38209 0.0
N6046 N 0.91475 0.02093 0.389 0.0
C6047 C 0.91423 0.0214 0.38016 0.0
C6048 C 0.91527 0.02988 0.37641 0.0
C6049 C 0.75083 0.17164 0.11533 0.0
C6050 C 0.74477 0.16478 0.11588 0.0
C6051 C 0.75926 0.1708 0.1188 0.0
C6052 C 0.762 0.16311 0.12305 0.0
H6053 H 0.74903 0.17772 0.11222 0.0
H6054 H 0.76363 0.17633 0.11829 0.0
S6055 S 0.7486 0.14323 0.12626 0.0
N6056 N 0.74212 0.14998 0.12093 0.0
N6057 N 0.75791 0.14847 0.12753 0.0
C6058 C 0.75607 0.15613 0.12346 0.0
C6059 C 0.74748 0.15696 0.11988 0.0
C6060 C 0.61263 0.02964 0.6513 0.0
C6061 C 0.61026 0.03068 0.66013 0.0
C6062 C 0.61393 0.02133 0.64765 0.0
C6063 C 0.61301 0.01371 0.65267 0.0
H6064 H 0.61341 0.0353 0.64715 0.0
H6065 H 0.61543 0.02085 0.64076 0.0
S6066 S 0.6066 1.01267 0.67594 0.0
N6067 N 0.60684 0.02321 0.67373 0.0
N6068 N 0.60944 1.00765 0.66683 0.0
C6069 C 0.61078 0.0146 0.6615 0.0
C6070 C 0.60939 0.02306 0.66524 0.0
C6071 C 0.74584 0.86224 0.40066 0.0
C6072 C 0.74489 0.86049 0.40963 0.0
C6073 C 0.75408 0.86361 0.39691 0.0
C6074 C 0.76173 0.86338 0.40198 0.0
H6075 H 0.74016 0.86249 0.39647 0.0
H6076 H 0.75451 0.86466 0.38993 0.0
S6077 S 0.76299 0.85873 0.42565 0.0
N6078 N 0.75246 0.85837 0.42343 0.0
N6079 N 0.7679 0.86111 0.41635 0.0
C6080 C 0.76091 0.86178 0.41095 0.0
C6081 C 0.75252 0.8603 0.41478 0.0
C6082 C 0.9074 0.99807 0.15645 0.0
C6083 C 0.91536 0.99516 0.16004 0.0
C6084 C 0.90653 1.00652 0.15292 0.0
C6085 C 0.91357 1.0124 0.1529 0.0
H6086 H 0.90189 0.99368 0.15608 0.0
H6087 H 0.90043 1.00831 0.14986 0.0
S6088 S 0.93535 1.00847 0.16275 0.0
N6089 N 0.93009 0.99919 0.16417 0.0
N6090 N 0.92846 0.01502 0.1577 0.0
C6091 C 0.92139 1.00973 0.15694 0.0
C6092 C 0.92229 1.00113 0.16044 0.0
C6093 C 0.77869 0.16354 0.90068 0.0
C6094 C 0.77973 0.16511 0.90967 0.0
C6095 C 0.77041 0.16216 0.897 0.0
C6096 C 0.76282 0.16221 0.90216 0.0
H6097 H 0.78432 0.16342 0.89642 0.0
H6098 H 0.76991 0.16126 0.89001 0.0
S6099 S 0.76181 0.16644 0.92593 0.0
N6100 N 0.77231 0.16692 0.9236 0.0
N6101 N 0.75681 0.16419 0.91665 0.0
C6102 C 0.76374 0.16367 0.91116 0.0
C6103 C 0.77216 0.16515 0.91491 0.0
C6104 C 0.86548 0.60349 1.00112 0.0
C6105 C 0.86499 0.61066 0.99543 0.0
C6106 C 0.86903 0.60433 1.00953 0.0
C6107 C 0.87241 0.61234 1.0126 0.0
H6108 H 0.86313 0.59716 0.99906 0.0
H6109 H 0.86929 0.59857 0.01361 0.0
S6110 S 0.87254 0.63315 1.00021 0.0
N6111 N 0.86793 0.62611 0.9935 0.0
N6112 N 0.87482 0.62764 1.00919 0.0
C6113 C 0.87173 0.61962 1.00703 0.0
C6114 C 0.868 0.61878 0.99849 0.0
C6115 C 0.3754 0.9171 0.02981 0.0
C6116 C 0.36664 0.91504 0.03156 0.0
C6117 C 0.37893 0.91611 0.02143 0.0
C6118 C 0.37388 0.91305 0.01438 0.0
H6119 H 0.37957 0.91949 0.03499 0.0
H6120 H 0.3857 0.91787 0.02042 0.0
S6121 S 0.35052 0.90697 0.01538 0.0
N6122 N 0.35293 0.90988 0.02547 0.0
N6123 N 0.35961 0.90804 1.00972 0.0
C6124 C 0.36514 0.91084 0.01604 0.0
C6125 C 0.36152 0.91185 0.02461 0.0
C6126 C 0.86716 0.6204 0.77819 0.0
C6127 C 0.85978 0.61556 0.78079 0.0
C6128 C 0.86799 0.62368 0.76964 0.0
C6129 C 0.86148 0.62222 0.76335 0.0
H6130 H 0.87222 0.62192 0.78289 0.0
H6131 H 0.87358 0.6277 0.76806 0.0
S6132 S 0.8415 0.60891 0.76641 0.0
N6133 N 0.84629 0.60875 0.77606 0.0
N6134 N 0.84784 0.61487 0.76007 0.0
C6135 C 0.8543 0.61702 0.76574 0.0
C6136 C 0.85344 0.61372 0.77443 0.0
C6137 C 0.15559 0.11825 0.52753 0.0
C6138 C 0.15892 0.11023 0.53058 0.0
C6139 C 0.15196 0.11905 0.51911 0.0
C6140 C 0.15158 0.11187 0.51339 0.0
H6141 H 0.15552 0.12389 0.53179 0.0
H6142 H 0.14909 0.12522 0.51723 0.0
S6143 S 0.16073 0.08983 0.51773 0.0
N6144 N 0.16242 0.09525 0.52688 0.0
N6145 N 0.15588 0.09676 0.51107 0.0
C6146 C 0.1554 0.10397 0.5162 0.0
C6147 C 0.15897 0.10314 0.52478 0.0
C6148 C 0.16301 0.91411 0.77382 0.0
C6149 C 0.16406 0.90875 0.78124 0.0
C6150 C 0.16197 0.91053 0.76542 0.0
C6151 C 0.16192 0.90145 0.76413 0.0
H6152 H 0.16327 0.92114 0.77447 0.0
H6153 H 0.16155 0.91487 0.75986 0.0
S6154 S 0.16351 0.88454 0.78135 0.0
N6155 N 0.16424 0.89386 0.78671 0.0
N6156 N 0.16246 0.88719 0.77096 0.0
C6157 C 0.16265 0.89603 0.77149 0.0
C6158 C 0.16369 0.89966 0.78002 0.0
C6159 C 0.65909 0.42228 0.50103 0.0
C6160 C 0.65978 0.41517 0.49529 0.0
C6161 C 0.65549 0.42131 0.5094 0.0
C6162 C 0.65226 0.4132 0.51238 0.0
H6163 H 0.66133 0.42868 0.49904 0.0
H6164 H 0.65506 0.42703 0.51352 0.0
S6165 S 0.65265 0.39249 0.49985 0.0
N6166 N 0.65716 0.39968 0.49322 0.0
N6167 N 0.65019 0.39789 0.50885 0.0
C6168 C 0.65314 0.40598 0.50678 0.0
C6169 C 0.65691 0.40696 0.49826 0.0
C6170 C 0.86408 0.40124 0.74571 0.0
C6171 C 0.86038 0.40963 0.74498 0.0
C6172 C 0.8656 0.39739 0.75388 0.0
C6173 C 0.86357 0.40177 0.76169 0.0
H6174 H 0.86573 0.39758 0.7399 0.0
H6175 H 0.86814 0.39079 0.7541 0.0
S6176 S 0.85361 0.42369 0.76353 0.0
N6177 N 0.85462 0.42212 0.75291 0.0
N6178 N 0.85761 0.41487 0.76824 0.0
C6179 C 0.86005 0.4102 0.76111 0.0
C6180 C 0.85844 0.41413 0.75278 0.0
C6181 C 0.6713 0.61562 0.25179 0.0
C6182 C 0.66462 0.61663 0.24559 0.0
C6183 C 0.67043 0.6189 0.2603 0.0
C6184 C 0.66287 0.62339 0.26299 0.0
H6185 H 0.67727 0.61228 0.25005 0.0
H6186 H 0.67582 0.61804 0.26479 0.0
S6187 S 0.64351 0.6279 0.24921 0.0
N6188 N 0.65016 0.62245 0.24273 0.0
N6189 N 0.64857 0.62866 0.25869 0.0
C6190 C 0.65606 0.6243 0.25691 0.0
C6191 C 0.65694 0.62093 0.24823 0.0
C6192 C 0.52516 0.66317 0.90842 0.0
C6193 C 0.53069 0.65943 0.91478 0.0
C6194 C 0.51769 0.65879 0.90541 0.0
C6195 C 0.51545 0.65052 0.90865 0.0
H6196 H 0.52691 0.6693 0.90538 0.0
H6197 H 0.51407 0.66157 0.90001 0.0
S6198 S 0.52686 0.63847 0.92626 0.0
N6199 N 0.53276 0.64737 0.92486 0.0
N6200 N 0.51864 0.63929 0.91936 0.0
C6201 C 0.52041 0.64712 0.9156 0.0
C6202 C 0.52805 0.65154 0.91863 0.0
C6203 C 0.61743 0.27604 0.16855 0.0
C6204 C 0.61533 0.28208 0.16198 0.0
C6205 C 0.62159 0.26813 0.16654 0.0
C6206 C 0.62389 0.26596 0.1579 0.0
H6207 H 0.61605 0.27755 0.17532 0.0
H6208 H 0.6234 0.26385 0.17186 0.0
S6209 S 0.61965 0.27946 0.1383 0.0
N6210 N 0.61558 0.28523 0.14644 0.0
N6211 N 0.62352 0.27041 0.14271 0.0
C6212 C 0.6215 0.27177 0.15123 0.0
C6213 C 0.61721 0.27982 0.15327 0.0
C6214 C 0.99874 0.36995 0.41954 0.0
C6215 C 0.99388 0.36462 0.41385 0.0
C6216 C 1.00642 0.37411 0.41675 0.0
C6217 C 1.00958 0.37308 0.40818 0.0
H6218 H 0.99639 0.37121 0.42608 0.0
H6219 H 1.00959 0.37866 0.42113 0.0
S6220 S 0.99951 0.35967 0.3908 0.0
N6221 N 0.99301 0.35835 0.39929 0.0
N6222 N 1.00745 0.36612 0.39415 0.0
C6223 C 1.00508 0.36739 0.4026 0.0
C6224 C 0.99724 0.36318 0.4054 0.0
C6225 C 0.91343 0.74985 0.65851 0.0
C6226 C 0.90943 0.74442 0.66478 0.0
C6227 C 0.90926 0.75738 0.65533 0.0
C6228 C 0.90094 0.75977 0.65832 0.0
H6229 H 0.91959 0.74796 0.65562 0.0
H6230 H 0.91222 0.76089 0.64996 0.0
S6231 S 0.88824 0.74868 0.67566 0.0
N6232 N 0.89709 0.74264 0.67458 0.0
N6233 N 0.88937 0.75683 0.6687 0.0
C6234 C 0.89729 0.75493 0.66521 0.0
C6235 C 0.9015 0.74724 0.66842 0.0
C6236 C 0.52381 0.36521 0.6084 0.0
C6237 C 0.53154 0.36596 0.61329 0.0
C6238 C 0.51608 0.36938 0.61114 0.0
C6239 C 0.51583 0.37424 0.61893 0.0
H6240 H 0.52387 0.36179 0.60221 0.0
H6241 H 0.51044 0.36925 0.60689 0.0
S6242 S 0.53411 0.37744 0.63439 0.0
N6243 N 0.5383 0.37141 0.62652 0.0
N6244 N 0.52382 0.37907 0.63171 0.0
C6245 C 0.52339 0.37453 0.6241 0.0
C6246 C 0.53123 0.37044 0.62126 0.0
C6247 C 0.912 0.27736 0.8694 0.0
C6248 C 0.90994 0.28111 0.86125 0.0
C6249 C 0.90779 0.26975 0.87236 0.0
C6250 C 0.90142 0.26559 0.86726 0.0
H6251 H 0.91645 0.28065 0.87379 0.0
H6252 H 0.90902 0.26753 0.87896 0.0
S6253 S 0.89478 0.27184 0.84485 0.0
N6254 N 0.90197 0.27934 0.84766 0.0
N6255 N 0.89402 0.26515 0.85328 0.0
C6256 C 0.89985 0.26885 0.85882 0.0
C6257 C 0.90411 0.27658 0.85581 0.0
C6258 C 0.99781 0.66264 0.11923 0.0
C6259 C 0.9939 0.66035 0.11121 0.0
C6260 C 1.00539 0.65842 0.12221 0.0
C6261 C 1.00937 0.6518 0.11728 0.0
H6262 H 0.99466 0.6673 0.12351 0.0
H6263 H 1.00773 0.65985 0.12872 0.0
S6264 S 1.00268 0.64444 0.09523 0.0
N6265 N 0.99534 0.65186 0.0979 0.0
N6266 N 1.00947 0.64388 0.10357 0.0
C6267 C 1.00596 0.64997 0.10896 0.0
C6268 C 0.99825 0.65425 0.10592 0.0
C6269 C 0.6244 0.74594 0.35934 0.0
C6270 C 0.61546 0.74461 0.36085 0.0
C6271 C 0.62876 0.75319 0.36284 0.0
C6272 C 0.6244 0.75938 0.36809 0.0
H6273 H 0.62822 0.74103 0.356 0.0
H6274 H 0.63576 0.75358 0.36202 0.0
S6275 S 0.60061 0.75999 0.37225 0.0
N6276 N 0.60207 0.751 0.36649 0.0
N6277 N 0.61036 0.76443 0.37336 0.0
C6278 C 0.6153 0.75864 0.36883 0.0
C6279 C 0.61083 0.75129 0.36518 0.0
C6280 C 0.91831 0.52703 0.65442 0.0
C6281 C 0.91302 0.53138 0.66055 0.0
C6282 C 0.91541 0.51946 0.65014 0.0
C6283 C 0.90712 0.5159 0.65184 0.0
H6284 H 0.92459 0.52972 0.65264 0.0
H6285 H 0.91944 0.5167 0.64504 0.0
S6286 S 0.8909 0.52445 0.66754 0.0
N6287 N 0.8992 0.53126 0.66834 0.0
N6288 N 0.89385 0.51701 0.66033 0.0
C6289 C 0.902 0.51983 0.65832 0.0
C6290 C 0.90492 0.52757 0.66266 0.0
C6291 C 0.74259 0.65413 0.9057 0.0
C6292 C 0.74281 0.66213 0.91015 0.0
C6293 C 0.74999 0.65085 0.9015 0.0
C6294 C 0.75792 0.65548 0.90143 0.0
H6295 H 0.73655 0.65049 0.90525 0.0
H6296 H 0.74937 0.64483 0.89784 0.0
S6297 S 0.76211 0.67642 0.91276 0.0
N6298 N 0.75176 0.6743 0.91489 0.0
N6299 N 0.76569 0.66824 0.90671 0.0
C6300 C 0.75839 0.66326 0.90627 0.0
C6301 C 0.75082 0.66657 0.91067 0.0
C6302 C 0.61929 0.49835 0.16366 0.0
C6303 C 0.61137 0.49477 0.16064 0.0
C6304 C 0.6229 0.50586 0.15983 0.0
C6305 C 0.6187 0.51015 0.1529 0.0
H6306 H 0.62303 0.49498 0.16862 0.0
H6307 H 0.62934 0.50793 0.16185 0.0
S6308 S 0.59726 0.50429 0.14345 0.0
N6309 N 0.59896 0.49678 0.15099 0.0
N6310 N 0.60583 0.51081 0.14374 0.0
C6311 C 0.61049 0.50705 0.15027 0.0
C6312 C 0.60681 0.49939 0.15415 0.0
C6313 C 0.77593 0.35625 0.40568 0.0
C6314 C 0.78069 0.36201 0.41103 0.0
C6315 C 0.76823 0.35894 0.40149 0.0
C6316 C 0.76497 0.36747 0.4025 0.0
H6317 H 0.77837 0.34974 0.40445 0.0
H6318 H 0.76513 0.3545 0.39695 0.0
S6319 S 0.77478 0.38498 0.41592 0.0
N6320 N 0.78137 0.37658 0.41728 0.0
N6321 N 0.7669 0.38154 0.40943 0.0
C6322 C 0.76938 0.37312 0.40819 0.0
C6323 C 0.77723 0.37041 0.41244 0.0
C6324 C 0.91845 0.49843 0.87222 0.0
C6325 C 0.91331 0.49436 0.8658 0.0
C6326 C 0.91556 0.50599 0.87653 0.0
C6327 C 0.90743 0.50979 0.8746 0.0
H6328 H 0.92457 0.49554 0.87421 0.0
H6329 H 0.91946 0.50854 0.88184 0.0
S6330 S 0.89174 0.50206 0.85795 0.0
N6331 N 0.89988 0.49504 0.85738 0.0
N6332 N 0.89454 0.50924 0.86548 0.0
C6333 C 0.9025 0.50615 0.86779 0.0
C6334 C 0.90542 0.49843 0.8634 0.0
C6335 C 0.78047 0.66472 0.12629 0.0
C6336 C 0.78118 0.66474 0.11714 0.0
C6337 C 0.77328 0.66093 0.13049 0.0
C6338 C 0.76651 0.65689 0.12575 0.0
H6339 H 0.7858 0.66706 0.13029 0.0
H6340 H 0.77334 0.66059 0.13755 0.0
S6341 S 0.76421 0.65701 0.10167 0.0
N6342 N 0.77364 0.6619 0.10346 0.0
N6343 N 0.76031 0.65444 0.11138 0.0
C6344 C 0.76667 0.65768 0.11662 0.0
C6345 C 0.77397 0.66164 0.11231 0.0
C6346 C 0.60889 0.53005 0.37591 0.0
C6347 C 0.61057 0.53142 0.36699 0.0
C6348 C 0.61227 0.52277 0.3803 0.0
C6349 C 0.61757 0.51657 0.37602 0.0
H6350 H 0.6055 0.53496 0.37969 0.0
H6351 H 0.61125 0.52232 0.38728 0.0
S6352 S 0.62209 0.516 0.35226 0.0
N6353 N 0.61637 0.52502 0.35366 0.0
N6354 N 0.62305 0.51154 0.36203 0.0
C6355 C 0.61849 0.51734 0.36693 0.0
C6356 C 0.61495 0.52473 0.36241 0.0
C6357 C 0.74468 0.36051 0.62624 0.0
C6358 C 0.74394 0.36066 0.6171 0.0
C6359 C 0.75184 0.36432 0.63048 0.0
C6360 C 0.75853 0.36852 0.62578 0.0
H6361 H 0.73938 0.35805 0.63021 0.0
H6362 H 0.7518 0.36453 0.63755 0.0
S6363 S 0.76074 0.36885 0.60169 0.0
N6364 N 0.75139 0.36381 0.60343 0.0
N6365 N 0.76466 0.37129 0.61143 0.0
C6366 C 0.75836 0.36787 0.61663 0.0
C6367 C 0.75109 0.3639 0.61229 0.0
C6368 C 0.65571 0.91828 0.52645 0.0
C6369 C 0.65995 0.91235 0.53204 0.0
C6370 C 0.65147 0.91541 0.51881 0.0
C6371 C 0.65137 0.90652 0.51647 0.0
H6372 H 0.65539 0.92513 0.52814 0.0
H6373 H 0.6478 0.92008 0.515 0.0
S6374 S 0.66137 0.88839 0.52889 0.0
N6375 N 0.66376 0.89718 0.53463 0.0
N6376 N 0.65587 0.89188 0.52031 0.0
C6377 C 0.65587 0.90061 0.52182 0.0
C6378 C 0.66014 0.9035 0.52959 0.0
C6379 C 0.16189 0.62079 0.49778 0.0
C6380 C 0.16069 0.61214 0.49488 0.0
C6381 C 0.1577 0.62394 0.5053 0.0
C6382 C 0.1522 0.61855 0.51028 0.0
H6383 H 0.16564 0.62534 0.49389 0.0
H6384 H 0.15824 0.63081 0.50686 0.0
S6385 S 0.14793 0.59509 0.50636 0.0
N6386 N 0.15443 0.59797 0.49826 0.0
N6387 N 0.14646 0.60396 0.51232 0.0
C6388 C 0.15144 0.60975 0.50784 0.0
C6389 C 0.1557 0.60653 0.50017 0.0
C6390 C 0.65616 0.91243 0.74857 0.0
C6391 C 0.66397 0.90958 0.74463 0.0
C6392 C 0.65284 0.90836 0.75611 0.0
C6393 C 0.65725 0.90134 0.76002 0.0
H6394 H 0.65226 0.91744 0.74548 0.0
H6395 H 0.64647 0.91028 0.75847 0.0
S6396 S 0.67861 0.89234 0.75321 0.0
N6397 N 0.67656 0.90005 0.74597 0.0
N6398 N 0.67025 0.89235 0.76001 0.0
C6399 C 0.66538 0.89889 0.75657 0.0
C6400 C 0.66875 0.90302 0.74891 0.0
C6401 C 0.36581 0.40422 0.99579 0.0
C6402 C 0.36371 0.41304 0.99442 0.0
C6403 C 0.37014 0.40151 1.00339 0.0
C6404 C 0.37241 0.4075 1.00996 0.0
H6405 H 0.36452 0.39945 0.99074 0.0
H6406 H 0.37222 0.39477 1.00389 0.0
S6407 S 0.36741 0.43114 1.01001 0.0
N6408 N 0.36351 0.42763 1.00059 0.0
N6409 N 0.37164 0.42251 0.01492 0.0
C6410 C 0.36988 0.41624 1.00891 0.0
C6411 C 0.36553 0.41902 1.00113 0.0
C6412 C 0.37147 0.61318 0.74723 0.0
C6413 C 0.36265 0.61397 0.74478 0.0
C6414 C 0.37473 0.61729 0.75474 0.0
C6415 C 0.3693 0.62229 0.76018 0.0
H6416 H 0.37603 0.60982 0.743 0.0
H6417 H 0.38168 0.61711 0.75595 0.0
S6418 S 0.3455 0.62539 0.75746 0.0
N6419 N 0.34835 0.61933 0.74901 0.0
N6420 N 0.35453 0.62715 0.76307 0.0
C6421 C 0.36037 0.62263 0.75817 0.0
C6422 C 0.35703 0.61846 0.75049 0.0
C6423 C 0.86818 0.10735 0.02608 0.0
C6424 C 0.86479 0.11344 0.03207 0.0
C6425 C 0.87239 0.11009 0.01837 0.0
C6426 C 0.87331 0.119 0.01637 0.0
H6427 H 0.86783 0.10043 0.0275 0.0
H6428 H 0.8754 0.10522 0.01423 0.0
S6429 S 0.86584 0.13753 0.02995 0.0
N6430 N 0.86274 0.12879 0.03544 0.0
N6431 N 0.87057 0.13386 0.021 0.0
C6432 C 0.8697 0.12511 0.02215 0.0
C6433 C 0.86546 0.12235 0.02998 0.0
C6434 C 0.65478 0.11366 0.77818 0.0
C6435 C 0.66329 0.11483 0.78144 0.0
C6436 C 0.65194 0.11796 0.77059 0.0
C6437 C 0.65751 0.12356 0.76595 0.0
H6438 H 0.65009 0.10983 0.78181 0.0
H6439 H 0.64515 0.11741 0.76871 0.0
S6440 S 0.68077 0.1278 0.77089 0.0
N6441 N 0.67757 0.12116 0.77875 0.0
N6442 N 0.67216 0.12936 0.76461 0.0
C6443 C 0.6662 0.1243 0.76877 0.0
C6444 C 0.6691 0.11992 0.77648 0.0
C6445 C 0.86511 0.91309 0.27522 0.0
C6446 C 0.86076 0.90835 0.28183 0.0
C6447 C 0.86878 0.90889 0.26792 0.0
C6448 C 0.8682 0.8998 0.26694 0.0
H6449 H 0.86614 0.92004 0.27596 0.0
H6450 H 0.87268 0.91268 0.26342 0.0
S6451 S 0.85635 0.88454 0.2815 0.0
N6452 N 0.8553 0.89413 0.28628 0.0
N6453 N 0.86193 0.88636 0.27247 0.0
C6454 C 0.86312 0.89513 0.273 0.0
C6455 C 0.85946 0.89937 0.28046 0.0
C6456 C 0.49565 0.37574 0.1101 0.0
C6457 C 0.49428 0.36671 0.111 0.0
C6458 C 0.50396 0.37942 0.11115 0.0
C6459 C 0.5113 0.37426 0.11314 0.0
H6460 H 0.49024 0.38001 0.10858 0.0
H6461 H 0.50468 0.3864 0.11026 0.0
S6462 S 0.51138 0.35024 0.11588 0.0
N6463 N 0.50108 0.35265 0.11384 0.0
N6464 N 0.51667 0.35962 0.11585 0.0
C6465 C 0.51004 0.36524 0.11418 0.0
C6466 C 0.50156 0.36146 0.11308 0.0
C6467 C 0.39951 0.7463 0.8594 0.0
C6468 C 0.40825 0.74462 0.86159 0.0
C6469 C 0.39589 0.75466 0.86031 0.0
C6470 C 0.40084 0.76177 0.8634 0.0
H6471 H 0.39541 0.74109 0.85695 0.0
H6472 H 0.38915 0.7556 0.85843 0.0
S6473 S 0.4241 0.76094 0.86989 0.0
N6474 N 0.42181 0.75083 0.86697 0.0
N6475 N 0.41499 0.76654 0.86864 0.0
C6476 C 0.40955 0.76017 0.86577 0.0
C6477 C 0.41325 0.75162 0.86486 0.0
C6478 C 0.02893 0.65032 0.60954 0.0
C6479 C 0.03038 0.65921 0.61129 0.0
C6480 C 0.02063 0.64659 0.61047 0.0
C6481 C 0.01338 0.65157 0.61316 0.0
H6482 H 0.03426 0.6462 0.60744 0.0
H6483 H 0.01985 0.63974 0.60894 0.0
S6484 S 0.01358 0.67519 0.61832 0.0
N6485 N 0.02379 0.67295 0.61574 0.0
N6486 N 1.00821 0.66589 0.61749 0.0
C6487 C 0.01474 0.66043 0.61506 0.0
C6488 C 0.02322 0.66426 0.61411 0.0
C6489 C 0.11856 0.27702 0.36844 0.0
C6490 C 0.11565 0.28013 0.36028 0.0
C6491 C 0.12233 0.26868 0.36933 0.0
C6492 C 0.12327 0.26309 0.3621 0.0
H6493 H 0.1182 0.28119 0.37414 0.0
H6494 H 0.12485 0.26675 0.37564 0.0
S6495 S 0.11544 0.26758 0.3396 0.0
N6496 N 0.11316 0.27658 0.34505 0.0
N6497 N 0.12003 0.26093 0.34671 0.0
C6498 C 0.1199 0.26595 0.35402 0.0
C6499 C 0.11617 0.27445 0.35311 0.0
C6500 C 0.496 0.65014 0.41679 0.0
C6501 C 0.49441 0.65894 0.41472 0.0
C6502 C 0.50434 0.64648 0.4159 0.0
C6503 C 0.51151 0.65145 0.41297 0.0
H6504 H 0.49074 0.64603 0.41909 0.0
H6505 H 0.50521 0.63969 0.41764 0.0
S6506 S 0.5109 0.67486 0.40692 0.0
N6507 N 0.50075 0.67257 0.40968 0.0
N6508 N 0.51642 0.66568 0.40807 0.0
C6509 C 0.51 0.66022 0.41076 0.0
C6510 C 0.50147 0.66396 0.41164 0.0
C6511 C 0.11815 0.74823 0.15821 0.0
C6512 C 0.11539 0.74494 0.16636 0.0
C6513 C 0.12166 0.75669 0.15739 0.0
C6514 C 0.12249 0.76223 0.16467 0.0
H6515 H 0.11785 0.74412 0.15247 0.0
H6516 H 0.12407 0.75875 0.15107 0.0
S6517 S 0.11496 0.75724 0.18719 0.0
N6518 N 0.11294 0.74823 0.18165 0.0
N6519 N 0.11927 0.76411 0.18011 0.0
C6520 C 0.11927 0.75917 0.17275 0.0
C6521 C 0.11582 0.75055 0.17359 0.0
C6522 C 0.029 0.37496 0.91296 0.0
C6523 C 0.02989 0.36625 0.91576 0.0
C6524 C 0.02075 0.37869 0.91157 0.0
C6525 C 0.01307 0.37386 0.91283 0.0
H6526 H 0.03472 0.37895 0.9119 0.0
H6527 H 0.02037 0.3855 0.90972 0.0
S6528 S 1.01168 0.35098 0.92043 0.0
N6529 N 0.02225 0.35298 0.91996 0.0
N6530 N 1.0068 0.36002 0.91719 0.0
C6531 C 0.01383 0.36514 0.9155 0.0
C6532 C 0.02222 0.36133 0.91699 0.0
C6533 C 0.40921 0.27503 0.67263 0.0
C6534 C 0.41031 0.28051 0.66537 0.0
C6535 C 0.40565 0.26664 0.67175 0.0
C6536 C 0.4028 0.26338 0.6636 0.0
H6537 H 0.41111 0.27726 0.67907 0.0
H6538 H 0.40498 0.26273 0.6776 0.0
S6539 S 0.40448 0.27516 0.64249 0.0
N6540 N 0.40864 0.28201 0.64969 0.0
N6541 N 0.40162 0.2664 0.64806 0.0
C6542 C 0.40411 0.26873 0.65624 0.0
C6543 C 0.40789 0.27725 0.65713 0.0
C6544 C 0.10892 0.49659 0.37576 0.0
C6545 C 0.11009 0.49518 0.36676 0.0
C6546 C 0.10994 0.50491 0.37946 0.0
C6547 C 0.11218 0.51223 0.37434 0.0
H6548 H 0.10721 0.49121 0.38 0.0
H6549 H 0.10885 0.50566 0.3864 0.0
S6550 S 0.11566 0.51219 0.35041 0.0
N6551 N 0.11343 0.50192 0.35278 0.0
N6552 N 0.11539 0.51752 0.35977 0.0
C6553 C 0.11348 0.51092 0.36536 0.0
C6554 C 0.11241 0.50242 0.36157 0.0
C6555 C 0.27365 0.35426 0.11431 0.0
C6556 C 0.2801 0.36047 0.11632 0.0
C6557 C 0.26511 0.35506 0.11754 0.0
C6558 C 0.26264 0.36209 0.12292 0.0
H6559 H 0.27522 0.34872 0.11021 0.0
H6560 H 0.26043 0.35003 0.11592 0.0
S6561 S 0.27711 0.37994 0.13042 0.0
N6562 N 0.28344 0.37382 0.12421 0.0
N6563 N 0.2674 0.3753 0.13024 0.0
C6564 C 0.26898 0.36841 0.12489 0.0
C6565 C 0.27769 0.3676 0.12162 0.0
C6566 C 0.421 0.5237 0.86508 0.0
C6567 C 0.41487 0.53021 0.86713 0.0
C6568 C 0.42015 0.51517 0.8683 0.0
C6569 C 0.41312 0.51275 0.8737 0.0
H6570 H 0.42655 0.52523 0.86097 0.0
H6571 H 0.42514 0.51044 0.86669 0.0
S6572 S 0.39541 0.52737 0.88125 0.0
N6573 N 0.40157 0.53366 0.87505 0.0
N6574 N 0.39997 0.51761 0.88104 0.0
C6575 C 0.40685 0.51914 0.87568 0.0
C6576 C 0.40773 0.52786 0.87243 0.0
C6577 C 0.25124 0.67113 0.6143 0.0
C6578 C 0.24482 0.66487 0.61625 0.0
C6579 C 0.25977 0.67038 0.61756 0.0
C6580 C 0.26228 0.66334 0.62292 0.0
H6581 H 0.24965 0.6767 0.61024 0.0
H6582 H 0.26441 0.67546 0.616 0.0
S6583 S 0.24792 0.64527 0.63015 0.0
N6584 N 0.24158 0.6514 0.62398 0.0
N6585 N 0.25759 0.65 0.63006 0.0
C6586 C 0.25598 0.65694 0.62478 0.0
C6587 C 0.24728 0.65771 0.62147 0.0
C6588 C 0.11159 0.52944 0.15097 0.0
C6589 C 0.11005 0.5306 0.15996 0.0
C6590 C 0.11273 0.52108 0.14736 0.0
C6591 C 0.11247 0.51354 0.15259 0.0
H6592 H 0.11185 0.53503 0.14667 0.0
H6593 H 0.11359 0.52049 0.14037 0.0
S6594 S 0.10831 0.51284 0.17637 0.0
N6595 N 0.10809 0.52333 0.17395 0.0
N6596 N 0.1104 0.5077 0.16713 0.0
C6597 C 0.11107 0.51457 0.16157 0.0
C6598 C 0.10983 0.52307 0.16527 0.0
C6599 C 0.24774 0.36772 0.90567 0.0
C6600 C 0.24504 0.36006 0.91002 0.0
C6601 C 0.25626 0.36861 0.90234 0.0
C6602 C 0.26243 0.36188 0.90323 0.0
H6603 H 0.24314 0.37297 0.90459 0.0
H6604 H 0.2579 0.37444 0.89871 0.0
S6605 S 0.2591 0.34104 0.91513 0.0
N6606 N 0.24957 0.34601 0.91577 0.0
N6607 N 0.26549 0.34766 0.90955 0.0
C6608 C 0.25994 0.35438 0.90794 0.0
C6609 C 0.25129 0.35347 0.9113 0.0
C6610 C 0.40743 0.49852 0.65642 0.0
C6611 C 0.41536 0.49557 0.66003 0.0
C6612 C 0.40663 0.50695 0.65284 0.0
C6613 C 0.41372 0.51278 0.65277 0.0
H6614 H 0.40187 0.49418 0.6561 0.0
H6615 H 0.40053 0.50878 0.64979 0.0
S6616 S 0.4355 0.50871 0.66256 0.0
N6617 N 0.43015 0.49949 0.66407 0.0
N6618 N 0.42865 0.51529 0.65749 0.0
C6619 C 0.42153 0.51005 0.65678 0.0
C6620 C 0.42236 0.50147 0.66035 0.0
C6621 C 0.27455 0.67252 0.40975 0.0
C6622 C 0.27997 0.66526 0.4111 0.0
C6623 C 0.26624 0.67161 0.40603 0.0
C6624 C 0.26301 0.66342 0.4033 0.0
H6625 H 0.27677 0.67898 0.41155 0.0
H6626 H 0.26237 0.67745 0.40511 0.0
S6627 S 0.27465 0.6423 0.40558 0.0
N6628 N 0.28145 0.64955 0.40973 0.0
N6629 N 0.26597 0.64785 0.40246 0.0
C6630 C 0.26829 0.65606 0.40485 0.0
C6631 C 0.27673 0.65698 0.40878 0.0
C6632 C 0.36208 0.11334 0.50235 0.0
C6633 C 0.36696 0.1098 0.49538 0.0
C6634 C 0.36566 0.11424 0.51077 0.0
C6635 C 0.37427 0.11163 0.51256 0.0
H6636 H 0.35535 0.11524 0.50133 0.0
H6637 H 0.36157 0.1167 0.51598 0.0
S6638 S 0.39014 0.10298 0.49643 0.0
N6639 N 0.3811 0.10439 0.49075 0.0
N6640 N 0.38781 0.10605 0.50648 0.0
C6641 C 0.37931 0.1084 0.50558 0.0
C6642 C 0.37567 0.10747 0.49704 0.0
C6643 C 0.86891 0.40792 0.52778 0.0
C6644 C 0.8647 0.41561 0.5306 0.0
C6645 C 0.87234 0.40716 0.51929 0.0
C6646 C 0.87167 0.41405 0.51326 0.0
H6647 H 0.86983 0.40255 0.53228 0.0
H6648 H 0.87589 0.4013 0.51756 0.0
S6649 S 0.86013 0.43504 0.51692 0.0
N6650 N 0.85929 0.42987 0.52633 0.0
N6651 N 0.86565 0.42845 0.51042 0.0
C6652 C 0.86706 0.42158 0.51585 0.0
C6653 C 0.86362 0.42236 0.52449 0.0
C6654 C 0.3605 0.11176 0.27337 0.0
C6655 C 0.36089 0.11671 0.28114 0.0
C6656 C 0.36183 0.11564 0.26513 0.0
C6657 C 0.36363 0.1246 0.26436 0.0
H6658 H 0.35887 0.10489 0.27364 0.0
H6659 H 0.36108 0.11169 0.25932 0.0
S6660 S 0.36635 0.14026 0.2826 0.0
N6661 N 0.36401 0.13093 0.28744 0.0
N6662 N 0.36633 0.13817 0.27203 0.0
C6663 C 0.36438 0.12952 0.27206 0.0
C6664 C 0.36305 0.1256 0.28042 0.0
C6665 C 0.65523 0.6178 0.0273 0.0
C6666 C 0.65851 0.60974 0.0303 0.0
C6667 C 0.65164 0.61867 0.01888 0.0
C6668 C 0.65124 0.61152 0.01312 0.0
H6669 H 0.65519 0.62341 0.03159 0.0
H6670 H 0.64883 0.62487 0.01701 0.0
S6671 S 0.66016 0.58938 0.01735 0.0
N6672 N 0.66191 0.59475 0.02652 0.0
N6673 N 0.65536 0.59638 1.01072 0.0
C6674 C 0.65495 0.60357 0.0159 0.0
C6675 C 0.65851 0.60268 0.02447 0.0
C6676 C 0.67109 0.41049 0.2738 0.0
C6677 C 0.66465 0.40908 0.28018 0.0
C6678 C 0.67022 0.40714 0.26531 0.0
C6679 C 0.66286 0.40223 0.26282 0.0
H6680 H 0.67689 0.41419 0.27538 0.0
H6681 H 0.67544 0.40824 0.26069 0.0
S6682 S 0.64423 0.39645 0.27709 0.0
N6683 N 0.65069 0.40231 0.28342 0.0
N6684 N 0.64905 0.39607 0.26746 0.0
C6685 C 0.65629 0.40091 0.26907 0.0
C6686 C 0.65719 0.4043 0.27774 0.0
C6687 C 0.16343 0.91297 1.00202 0.0
C6688 C 0.1581 0.91407 0.99458 0.0
C6689 C 0.15982 0.91205 1.01043 0.0
C6690 C 0.15075 0.91215 1.01171 0.0
H6691 H 0.17046 0.91313 1.00138 0.0
H6692 H 0.16415 0.91165 0.01599 0.0
S6693 S 0.13391 0.91395 0.99447 0.0
N6694 N 0.14323 0.91447 0.98911 0.0
N6695 N 0.13653 0.91292 1.00487 0.0
C6696 C 0.14536 0.91291 1.00434 0.0
C6697 C 0.14901 0.91383 0.9958 0.0
C6698 C 0.36129 0.91484 0.25306 0.0
C6699 C 0.36126 0.90955 0.24551 0.0
C6700 C 0.36223 0.91121 0.26146 0.0
C6701 C 0.36325 0.90217 0.26262 0.0
H6702 H 0.36025 0.9218 0.25251 0.0
H6703 H 0.36178 0.91545 0.26709 0.0
S6704 S 0.36446 0.88555 0.24511 0.0
N6705 N 0.36305 0.89484 0.23984 0.0
N6706 N 0.36463 0.88808 0.25558 0.0
C6707 C 0.36355 0.89687 0.25516 0.0
C6708 C 0.36261 0.90053 0.24663 0.0
C6709 C 0.16283 0.12529 0.74612 0.0
C6710 C 0.16458 0.11632 0.74519 0.0
C6711 C 0.16152 0.12907 0.75437 0.0
C6712 C 0.16183 0.12405 0.76205 0.0
H6713 H 0.16252 0.12946 0.74042 0.0
H6714 H 0.16046 0.13605 0.75477 0.0
S6715 S 0.16645 0.10037 0.76336 0.0
N6716 N 0.16674 0.10255 0.7528 0.0
N6717 N 0.16412 0.10969 0.76826 0.0
C6718 C 0.16342 0.11507 0.76125 0.0
C6719 C 0.16482 0.1112 0.75285 0.0
C6720 C 0.11189 0.14456 0.46757 0.0
C6721 C 0.1117 0.1435 0.45842 0.0
C6722 C 0.11889 0.14141 0.4726 0.0
C6723 C 0.12596 0.1371 0.46866 0.0
H6724 H 0.10672 0.1481 0.47083 0.0
H6725 H 0.11896 0.14268 0.47955 0.0
S6726 S 0.1281 0.13157 0.44521 0.0
N6727 N 0.11882 0.13699 0.44583 0.0
N6728 N 0.13199 0.13123 0.45525 0.0
C6729 C 0.12566 0.13564 0.45961 0.0
C6730 C 0.11854 0.13881 0.4545 0.0
C6731 C 0.13526 0.86973 0.70514 0.0
C6732 C 0.13173 0.8624 0.70941 0.0
C6733 C 0.13849 0.87687 0.70985 0.0
C6734 C 0.13832 0.87702 0.71904 0.0
H6735 H 0.13544 0.86998 0.69808 0.0
H6736 H 0.14096 0.88243 0.70626 0.0
S6737 S 0.12991 0.8595 0.7334 0.0
N6738 N 0.12842 0.85571 0.72342 0.0
N6739 N 0.13452 0.86917 0.73225 0.0
C6740 C 0.13509 0.86965 0.72342 0.0
C6741 C 0.13178 0.86235 0.71861 0.0
C6742 C 0.40653 0.87456 0.96441 0.0
C6743 C 0.41267 0.88044 0.96098 0.0
C6744 C 0.39944 0.87747 0.9694 0.0
C6745 C 0.39809 0.8864 0.97112 0.0
H6746 H 0.40718 0.86763 0.96318 0.0
H6747 H 0.39485 0.87266 0.9718 0.0
S6748 S 0.4123 0.90451 0.96365 0.0
N6749 N 0.41703 0.89564 0.95978 0.0
N6750 N 0.40361 0.90112 0.96903 0.0
C6751 C 0.4043 0.89235 0.96792 0.0
C6752 C 0.41159 0.88938 0.96287 0.0
C6753 C 0.3869 0.16166 0.21285 0.0
C6754 C 0.39536 0.16161 0.20926 0.0
C6755 C 0.38363 0.15447 0.21753 0.0
C6756 C 0.38869 0.14692 0.21883 0.0
H6757 H 0.38273 0.1673 0.21201 0.0
H6758 H 0.37699 0.15474 0.21992 0.0
S6759 S 0.4114 0.14354 0.21106 0.0
N6760 N 0.40871 0.15328 0.20734 0.0
N6761 N 0.40285 0.14009 0.21659 0.0
C6762 C 0.39727 0.14691 0.21551 0.0
C6763 C 0.40053 0.15414 0.21063 0.0
C6764 C 0.11059 0.88296 0.05815 0.0
C6765 C 0.11002 0.88451 0.06721 0.0
C6766 C 0.11748 0.8864 0.05315 0.0
C6767 C 0.12397 0.89156 0.05703 0.0
H6768 H 0.10594 0.8787 0.05498 0.0
H6769 H 0.11801 0.88459 0.04634 0.0
S6770 S 0.12488 0.89854 0.08016 0.0
N6771 N 0.11609 0.89235 0.07959 0.0
N6772 N 0.12904 0.89869 0.07022 0.0
C6773 C 0.12319 0.89359 0.06593 0.0
C6774 C 0.11623 0.89009 0.07102 0.0
C6775 C 0.3841 0.86324 0.31664 0.0
C6776 C 0.3929 0.86062 0.31593 0.0
C6777 C 0.3808 0.87027 0.31171 0.0
C6778 C 0.38616 0.87484 0.30585 0.0
H6779 H 0.37985 0.8601 0.32132 0.0
H6780 H 0.37416 0.87241 0.31282 0.0
S6781 S 0.40925 0.86999 0.30074 0.0
N6782 N 0.4066 0.86271 0.30823 0.0
N6783 N 0.40041 0.8759 0.2991 0.0
C6784 C 0.39479 0.872 0.30474 0.0
C6785 C 0.39815 0.86491 0.30974 0.0
C6786 C 0.40504 0.14104 0.57065 0.0
C6787 C 0.41238 0.14435 0.56627 0.0
C6788 C 0.39787 0.1377 0.56606 0.0
C6789 C 0.39769 0.13756 0.55686 0.0
H6790 H 0.4048 0.14104 0.57772 0.0
H6791 H 0.39234 0.13532 0.56976 0.0
S6792 S 0.41524 0.1454 0.54223 0.0
N6793 N 0.41906 0.14718 0.55215 0.0
N6794 N 0.40554 0.14093 0.54354 0.0
C6795 C 0.40506 0.14064 0.55238 0.0
C6796 C 0.4124 0.14403 0.55707 0.0
C6797 C 0.1381 0.16193 0.81363 0.0
C6798 C 0.12916 0.16275 0.81566 0.0
C6799 C 0.14127 0.1548 0.80878 0.0
C6800 C 0.13563 0.14824 0.80574 0.0
H6801 H 0.14272 0.16667 0.81608 0.0
H6802 H 0.14823 0.15424 0.80771 0.0
S6803 S 0.11157 0.1479 0.8082 0.0
N6804 N 0.11465 0.15678 0.81346 0.0
N6805 N 0.1206 0.14345 0.80438 0.0
C6806 C 0.12665 0.14921 0.80735 0.0
C6807 C 0.12343 0.15642 0.8123 0.0
C6808 C 0.46092 0.11454 0.13664 0.0
C6809 C 0.45961 0.11327 0.14567 0.0
C6810 C 0.4659 0.12157 0.13348 0.0
C6811 C 0.46977 0.12758 0.13923 0.0
H6812 H 0.45783 0.11023 0.13198 0.0
H6813 H 0.46642 0.12252 0.12649 0.0
S6814 S 0.46932 0.12658 0.1634 0.0
N6815 N 0.46334 0.11819 0.16028 0.0
N6816 N 0.47262 0.13138 0.15434 0.0
C6817 C 0.46885 0.12616 0.14825 0.0
C6818 C 0.46379 0.11903 0.15146 0.0
C6819 C 0.15527 0.20497 0.39166 0.0
C6820 C 0.16218 0.20922 0.39594 0.0
C6821 C 0.14821 0.20966 0.38822 0.0
C6822 C 0.14773 0.21881 0.38892 0.0
H6823 H 0.15531 0.19794 0.39094 0.0
H6824 H 0.14302 0.20607 0.38505 0.0
S6825 S 0.16399 0.23308 0.39968 0.0
N6826 N 0.16803 0.22316 0.40077 0.0
N6827 N 0.15475 0.23195 0.39427 0.0
C6828 C 0.15464 0.22317 0.39306 0.0
C6829 C 0.16185 0.21839 0.39658 0.0
C6830 C 0.06361 0.91159 0.63664 0.0
C6831 C 0.06578 0.91241 0.64555 0.0
C6832 C 0.05868 0.90448 0.63355 0.0
C6833 C 0.0557 0.89793 0.63926 0.0
H6834 H 0.06597 0.91635 0.63198 0.0
H6835 H 0.05748 0.90393 0.6266 0.0
S6836 S 0.05857 0.89761 0.66331 0.0
N6837 N 0.06384 0.90644 0.66011 0.0
N6838 N 0.05456 0.8932 0.65435 0.0
C6839 C 0.05747 0.89891 0.64822 0.0
C6840 C 0.06252 0.90609 0.65135 0.0
C6841 C 0.36312 0.80743 0.89613 0.0
C6842 C 0.36218 0.81643 0.89445 0.0
C6843 C 0.37022 0.80265 0.89279 0.0
C6844 C 0.37661 0.80672 0.88762 0.0
H6845 H 0.35849 0.80412 0.90032 0.0
H6846 H 0.37092 0.79585 0.89455 0.0
S6847 S 0.37661 0.82977 0.88031 0.0
N6848 N 0.36784 0.82894 0.88651 0.0
N6849 N 0.38116 0.82001 0.88034 0.0
C6850 C 0.37552 0.81558 0.88555 0.0
C6851 C 0.36833 0.82042 0.88893 0.0
C6852 C 0.456 0.90735 0.38734 0.0
C6853 C 0.45962 0.91281 0.38092 0.0
C6854 C 0.4607 0.90027 0.39074 0.0
C6855 C 0.4692 0.89839 0.38785 0.0
H6856 H 0.44943 0.90851 0.38967 0.0
H6857 H 0.45759 0.89609 0.39551 0.0
S6858 S 0.48152 0.91046 0.37095 0.0
N6859 N 0.47218 0.91578 0.37173 0.0
N6860 N 0.48098 0.90241 0.3781 0.0
C6861 C 0.47295 0.90384 0.38153 0.0
C6862 C 0.46817 0.91107 0.37807 0.0
C6863 C 0.37044 0.20493 0.63461 0.0
C6864 C 0.36292 0.20916 0.63149 0.0
C6865 C 0.37761 0.20968 0.63774 0.0
C6866 C 0.37761 0.21887 0.63786 0.0
H6867 H 0.37081 0.19788 0.63462 0.0
H6868 H 0.38326 0.2061 0.64 0.0
S6869 S 0.35958 0.23313 0.63037 0.0
N6870 N 0.35592 0.22313 0.62875 0.0
N6871 N 0.36941 0.23202 0.63461 0.0
C6872 C 0.37007 0.22319 0.63494 0.0
C6873 C 0.36274 0.21835 0.63175 0.0
C6874 C 0.05741 0.11299 0.88174 0.0
C6875 C 0.0666 0.1129 0.88211 0.0
C6876 C 0.05257 0.1201 0.88496 0.0
C6877 C 0.05675 0.12736 0.88868 0.0
H6878 H 0.05395 0.10765 0.87867 0.0
H6879 H 0.04555 0.12007 0.88422 0.0
S6880 S 0.08051 0.12985 0.89235 0.0
N6881 N 0.07957 0.12036 0.88734 0.0
N6882 N 0.0705 0.13367 0.89333 0.0
C6883 C 0.06588 0.12716 0.88948 0.0
C6884 C 0.07079 0.11996 0.88621 0.0
C6885 C 0.15724 0.81734 0.13832 0.0
C6886 C 0.16039 0.81607 0.12975 0.0
C6887 C 0.15045 0.81221 0.14173 0.0
C6888 C 0.14656 0.8056 0.13673 0.0
H6889 H 0.1599 0.8225 0.14235 0.0
H6890 H 0.14803 0.81361 0.14822 0.0
S6891 S 0.15267 0.7991 0.11429 0.0
N6892 N 0.15935 0.80723 0.1166 0.0
N6893 N 0.14646 0.79779 0.12299 0.0
C6894 C 0.14972 0.80411 0.12827 0.0
C6895 C 0.15666 0.80929 0.12479 0.0
C6896 C 0.13478 0.4591 0.11527 0.0
C6897 C 0.14337 0.46012 0.11216 0.0
C6898 C 0.13164 0.4641 0.12231 0.0
C6899 C 0.13696 0.47032 0.12643 0.0
H6900 H 0.13057 0.45417 0.11248 0.0
H6901 H 0.12515 0.46282 0.1248 0.0
S6902 S 0.15951 0.47624 0.12021 0.0
N6903 N 0.15682 0.46842 0.1133 0.0
N6904 N 0.15094 0.47767 0.12656 0.0
C6905 C 0.14539 0.47167 0.12315 0.0
C6906 C 0.14859 0.46661 0.11601 0.0
C6907 C 0.63574 0.0642 0.91101 0.0
C6908 C 0.64473 0.06489 0.91283 0.0
C6909 C 0.63266 0.05923 0.90392 0.0
C6910 C 0.63847 0.05476 0.8984 0.0
H6911 H 0.63105 0.06776 0.91491 0.0
H6912 H 0.62574 0.05918 0.90254 0.0
S6913 S 0.66247 0.05352 0.90091 0.0
N6914 N 0.65928 0.05995 0.90894 0.0
N6915 N 0.65351 0.05076 0.89562 0.0
C6916 C 0.64741 0.0551 0.90036 0.0
C6917 C 0.65054 0.06012 0.90756 0.0
C6918 C 0.2149 0.40007 0.15828 0.0
C6919 C 0.20909 0.3945 0.16271 0.0
C6920 C 0.21997 0.39707 0.15126 0.0
C6921 C 0.21951 0.38835 0.14843 0.0
H6922 H 0.21549 0.40684 0.16022 0.0
H6923 H 0.22417 0.40164 0.14788 0.0
S6924 S 0.20507 0.3712 0.1574 0.0
N6925 N 0.20299 0.37986 0.16346 0.0
N6926 N 0.21264 0.37424 0.15038 0.0
C6927 C 0.21383 0.38268 0.15283 0.0
C6928 C 0.2086 0.38574 0.15993 0.0
C6929 C 0.88851 0.96262 0.41145 0.0
C6930 C 0.8796 0.96054 0.41226 0.0
C6931 C 0.89165 0.96745 0.40429 0.0
C6932 C 0.88599 0.97041 0.3977 0.0
H6933 H 0.89314 0.96025 0.41622 0.0
H6934 H 0.8986 0.96857 0.40374 0.0
S6935 S 0.86195 0.96775 0.39736 0.0
N6936 N 0.86508 0.96255 0.40626 0.0
N6937 N 0.87094 0.97164 0.39291 0.0
C6938 C 0.87702 0.96874 0.39867 0.0
C6939 C 0.87384 0.9638 0.40591 0.0
C6940 C 0.81994 0.13546 0.15621 0.0
C6941 C 0.81585 0.13075 0.16296 0.0
C6942 C 0.81518 0.13875 0.14912 0.0
C6943 C 0.80611 0.13753 0.14848 0.0
H6944 H 0.82691 0.13657 0.15638 0.0
H6945 H 0.81864 0.14217 0.14399 0.0
S6946 S 0.79224 0.12552 0.16418 0.0
N6947 N 0.80213 0.12493 0.16841 0.0
N6948 N 0.79321 0.13125 0.15511 0.0
C6949 C 0.80189 0.133 0.15522 0.0
C6950 C 0.80674 0.12958 0.16244 0.0
C6951 C 0.38831 0.56409 0.61423 0.0
C6952 C 0.37929 0.56487 0.6126 0.0
C6953 C 0.39149 0.55918 0.62129 0.0
C6954 C 0.38577 0.55486 0.62701 0.0
H6955 H 0.39295 0.56757 0.61019 0.0
H6956 H 0.39844 0.55906 0.62252 0.0
S6957 S 0.36172 0.55387 0.62512 0.0
N6958 N 0.36477 0.56014 0.6169 0.0
N6959 N 0.37076 0.55109 0.63024 0.0
C6960 C 0.37679 0.55528 0.62528 0.0
C6961 C 0.37355 0.56023 0.61807 0.0
C6962 C 0.21335 0.62457 0.36926 0.0
C6963 C 0.21002 0.63035 0.36294 0.0
C6964 C 0.2182 0.6276 0.3764 0.0
C6965 C 0.21996 0.63655 0.37753 0.0
H6966 H 0.21213 0.61763 0.36872 0.0
H6967 H 0.22047 0.62292 0.38119 0.0
S6968 S 0.21257 0.65444 0.36303 0.0
N6969 N 0.20876 0.6455 0.35839 0.0
N6970 N 0.21792 0.65116 0.37179 0.0
C6971 C 0.21683 0.64239 0.3712 0.0
C6972 C 0.21186 0.6393 0.36392 0.0
C6973 C 0.31392 0.38677 0.86474 0.0
C6974 C 0.31533 0.39576 0.86336 0.0
C6975 C 0.30886 0.38374 0.87179 0.0
C6976 C 0.30499 0.38961 0.87771 0.0
H6977 H 0.31699 0.38201 0.86051 0.0
H6978 H 0.30827 0.37678 0.87283 0.0
S6979 S 0.30566 0.41376 0.87634 0.0
N6980 N 0.3117 0.41046 0.86806 0.0
N6981 N 0.30223 0.4048 0.88123 0.0
C6982 C 0.306 0.3986 0.87615 0.0
C6983 C 0.31116 0.40166 0.86902 0.0
C6984 C 0.90964 0.8887 0.56648 0.0
C6985 C 0.91196 0.87979 0.56618 0.0
C6986 C 0.90251 0.89195 0.56169 0.0
C6987 C 0.89752 0.88642 0.55637 0.0
H6988 H 0.91325 0.89316 0.57061 0.0
H6989 H 0.90081 0.89879 0.56226 0.0
S6990 S 0.9011 0.8628 0.55276 0.0
N6991 N 0.90885 0.86564 0.55969 0.0
N6992 N 0.89548 0.87177 0.55079 0.0
C6993 C 0.89986 0.87759 0.55585 0.0
C6994 C 0.90706 0.87426 0.56072 0.0
C6995 C 0.9014 0.15906 0.31071 0.0
C6996 C 0.89594 0.16347 0.31666 0.0
C6997 C 0.89835 0.15192 0.30584 0.0
C6998 C 0.88974 0.14892 0.30672 0.0
H6999 H 0.90808 0.16117 0.3098 0.0
H7000 H 0.90279 0.14865 0.30142 0.0
S7001 S 0.87293 0.15778 0.32159 0.0
N7002 N 0.88154 0.16402 0.32329 0.0
N7003 N 0.87587 0.15065 0.31405 0.0
C7004 C 0.88422 0.15321 0.31259 0.0
C7005 C 0.8873 0.16048 0.31757 0.0
C7006 C 0.61326 0.14745 0.05791 0.0
C7007 C 0.6124 0.14601 0.06694 0.0
C7008 C 0.62029 0.14395 0.05317 0.0
C7009 C 0.62671 0.13878 0.05725 0.0
H7010 H 0.60861 0.15155 0.05452 0.0
H7011 H 0.62087 0.14559 0.04632 0.0
S7012 S 0.62681 0.13213 0.08055 0.0
N7013 N 0.61816 0.13848 0.07963 0.0
N7014 N 0.63123 0.13175 0.07073 0.0
C7015 C 0.62568 0.13697 0.0662 0.0
C7016 C 0.61859 0.14062 0.07104 0.0
C7017 C 0.63674 0.86296 0.81299 0.0
C7018 C 0.62874 0.86328 0.81753 0.0
C7019 C 0.63987 0.87021 0.80829 0.0
C7020 C 0.63516 0.87808 0.80795 0.0
H7021 H 0.64058 0.85703 0.813 0.0
H7022 H 0.64608 0.86965 0.80496 0.0
S7023 S 0.61379 0.88229 0.81864 0.0
N7024 N 0.61629 0.87223 0.82152 0.0
N7025 N 0.62184 0.88557 0.81231 0.0
C7026 C 0.62709 0.87842 0.81238 0.0
C7027 C 0.62398 0.87111 0.81725 0.0
C7028 C 0.9092 0.1372 0.95635 0.0
C7029 C 0.91374 0.14478 0.95894 0.0
C7030 C 0.90206 0.13405 0.96118 0.0
C7031 C 0.89936 0.13827 0.96886 0.0
H7032 H 0.91102 0.13385 0.9504 0.0
H7033 H 0.89852 0.12841 0.95882 0.0
S7034 S 0.90926 0.15796 0.97874 0.0
N7035 N 0.91515 0.15615 0.9699 0.0
N7036 N 0.90183 0.15017 0.97897 0.0
C7037 C 0.90398 0.14566 0.97165 0.0
C7038 C 0.91114 0.14893 0.9667 0.0
C7039 C 0.63675 0.16197 0.71245 0.0
C7040 C 0.6285 0.16191 0.7084 0.0
C7041 C 0.6398 0.15476 0.71726 0.0
C7042 C 0.63473 0.14717 0.71821 0.0
H7043 H 0.64087 0.16769 0.71198 0.0
H7044 H 0.64621 0.15512 0.72019 0.0
S7045 S 0.6126 0.14365 0.70893 0.0
N7046 N 0.61541 0.15346 0.7055 0.0
N7047 N 0.62084 0.1402 0.71491 0.0
C7048 C 0.62642 0.14706 0.71425 0.0
C7049 C 0.62338 0.15434 0.70927 0.0
C7050 C 0.6124 0.88929 0.46041 0.0
C7051 C 0.6112 0.88025 0.45909 0.0
C7052 C 0.61954 0.89251 0.46523 0.0
C7053 C 0.6257 0.88678 0.46887 0.0
H7054 H 0.6079 0.8939 0.45752 0.0
H7055 H 0.62038 0.89949 0.46591 0.0
S7056 S 0.62492 0.8626 0.46834 0.0
N7057 N 0.61637 0.86568 0.46257 0.0
N7058 N 0.62969 0.87169 0.47156 0.0
C7059 C 0.62435 0.87775 0.46792 0.0
C7060 C 0.61714 0.8745 0.46304 0.0
C7061 C 0.88765 0.86332 0.21217 0.0
C7062 C 0.8965 0.86289 0.20967 0.0
C7063 C 0.88436 0.87046 0.21692 0.0
C7064 C 0.88979 0.87743 0.21929 0.0
H7065 H 0.88319 0.85819 0.21027 0.0
H7066 H 0.87749 0.87062 0.21857 0.0
S7067 S 0.91356 0.87911 0.21531 0.0
N7068 N 0.91073 0.86981 0.21067 0.0
N7069 N 0.90451 0.88322 0.21943 0.0
C7070 C 0.89867 0.87697 0.21709 0.0
C7071 C 0.90203 0.86972 0.21232 0.0
C7072 C 0.56419 0.91255 0.89037 0.0
C7073 C 0.56513 0.91372 0.88127 0.0
C7074 C 0.55937 0.90551 0.89382 0.0
C7075 C 0.55523 0.89952 0.88828 0.0
H7076 H 0.56746 0.91692 0.89485 0.0
H7077 H 0.55911 0.90461 0.90083 0.0
S7078 S 0.55495 0.90004 0.8641 0.0
N7079 N 0.56097 0.90852 0.86688 0.0
N7080 N 0.55192 0.89543 0.87335 0.0
C7081 C 0.55582 0.90082 0.87922 0.0
C7082 C 0.56077 0.90787 0.87572 0.0
C7083 C 0.8664 0.81872 0.63769 0.0
C7084 C 0.86217 0.81627 0.6299 0.0
C7085 C 0.8736 0.81402 0.64088 0.0
C7086 C 0.87669 0.80659 0.63649 0.0
H7087 H 0.86425 0.82444 0.64124 0.0
H7088 H 0.87682 0.81624 0.64676 0.0
S7089 S 0.86788 0.79728 0.61601 0.0
N7090 N 0.8616 0.80581 0.61798 0.0
N7091 N 0.87503 0.79695 0.62405 0.0
C7092 C 0.87246 0.80398 0.6288 0.0
C7093 C 0.86523 0.80883 0.62548 0.0
C7094 C 0.96681 0.11235 0.38044 0.0
C7095 C 0.95763 0.1124 0.38044 0.0
C7096 C 0.97161 0.11947 0.38366 0.0
C7097 C 0.96742 0.12691 0.38707 0.0
H7098 H 0.97032 0.10689 0.37766 0.0
H7099 H 0.97864 0.11928 0.38315 0.0
S7100 S 0.94355 0.12977 0.3897 0.0
N7101 N 0.94457 0.12018 0.3849 0.0
N7102 N 0.95356 0.13348 0.39105 0.0
C7103 C 0.95826 0.12685 0.3875 0.0
C7104 C 0.95338 0.11963 0.38416 0.0
C7105 C 0.66212 0.21803 0.12701 0.0
C7106 C 0.66248 0.20891 0.12809 0.0
C7107 C 0.65496 0.22291 0.13 0.0
C7108 C 0.64789 0.21887 0.13425 0.0
H7109 H 0.66735 0.2214 0.12366 0.0
H7110 H 0.65487 0.22987 0.12879 0.0
S7111 S 0.64618 0.1953 0.13966 0.0
N7112 N 0.65546 0.19613 0.13427 0.0
N7113 N 0.64212 0.20527 0.14007 0.0
C7114 C 0.64834 0.20979 0.13565 0.0
C7115 C 0.65558 0.20483 0.13252 0.0
C7116 C 0.56613 0.12081 0.65041 0.0
C7117 C 0.56602 0.11277 0.64599 0.0
C7118 C 0.56144 0.12802 0.64732 0.0
C7119 C 0.55645 0.1276 0.6396 0.0
H7120 H 0.56997 0.12159 0.65629 0.0
H7121 H 0.56168 0.13398 0.65111 0.0
S7122 S 0.55369 0.10799 0.62568 0.0
N7123 N 0.56015 0.1047 0.63364 0.0
N7124 N 0.55163 0.11838 0.62764 0.0
C7125 C 0.55621 0.11958 0.63513 0.0
C7126 C 0.56094 0.11218 0.63834 0.0
C7127 C 0.6615 0.80768 0.39789 0.0
C7128 C 0.66249 0.81667 0.39626 0.0
C7129 C 0.65442 0.80296 0.39445 0.0
C7130 C 0.64808 0.80703 0.38919 0.0
H7131 H 0.66609 0.80431 0.40207 0.0
H7132 H 0.65375 0.79615 0.39621 0.0
S7133 S 0.64832 0.83015 0.38201 0.0
N7134 N 0.65693 0.82926 0.38841 0.0
N7135 N 0.64375 0.8204 0.38186 0.0
C7136 C 0.64922 0.81592 0.3872 0.0
C7137 C 0.65638 0.82073 0.39075 0.0
C7138 C 0.95871 0.90498 0.15045 0.0
C7139 C 0.95904 0.91309 0.14616 0.0
C7140 C 0.96335 0.89775 0.14734 0.0
C7141 C 0.96851 0.89822 0.13973 0.0
H7142 H 0.95473 0.90417 0.15623 0.0
H7143 H 0.96293 0.89173 0.15102 0.0
S7144 S 0.97191 0.91801 0.12622 0.0
N7145 N 0.96533 0.92127 0.1341 0.0
N7146 N 0.97376 0.90755 0.12805 0.0
C7147 C 0.96899 0.9063 0.13541 0.0
C7148 C 0.96431 0.91373 0.13864 0.0
C7149 C 0.86908 0.21149 0.90233 0.0
C7150 C 0.8625 0.20876 0.89655 0.0
C7151 C 0.87628 0.21632 0.8994 0.0
C7152 C 0.87723 0.21864 0.89056 0.0
H7153 H 0.86864 0.20997 0.90921 0.0
H7154 H 0.88112 0.21831 0.90414 0.0
S7155 S 0.86208 0.21284 0.87265 0.0
N7156 N 0.85757 0.20856 0.88145 0.0
N7157 N 0.87108 0.21771 0.876 0.0
C7158 C 0.87071 0.21601 0.88469 0.0
C7159 C 0.86337 0.21105 0.88767 0.0
C7160 C 0.87946 0.55845 0.91347 0.0
C7161 C 0.88027 0.5676 0.91369 0.0
C7162 C 0.88267 0.55355 0.9064 0.0
C7163 C 0.88684 0.5576 0.89929 0.0
H7164 H 0.87606 0.55506 0.91865 0.0
H7165 H 0.88153 0.54658 0.90635 0.0
S7166 S 0.89169 0.58122 0.89726 0.0
N7167 N 0.8863 0.5804 0.90655 0.0
N7168 N 0.89235 0.57121 0.89333 0.0
C7169 C 0.88806 0.56669 0.89963 0.0
C7170 C 0.88476 0.57168 0.9068 0.0
C7171 C 0.38779 0.95855 0.1161 0.0
C7172 C 0.37944 0.96032 0.11267 0.0
C7173 C 0.39108 0.96323 0.12326 0.0
C7174 C 0.38623 0.96997 0.12712 0.0
H7175 H 0.39171 0.95335 0.11336 0.0
H7176 H 0.39742 0.96152 0.12586 0.0
S7177 S 0.36422 0.97741 0.12055 0.0
N7178 N 0.36651 0.96945 0.11365 0.0
N7179 N 0.37277 0.97827 0.12703 0.0
C7180 C 0.37798 0.97192 0.12369 0.0
C7181 C 0.37456 0.96709 0.11649 0.0
C7182 C 0.81332 0.63784 0.86412 0.0
C7183 C 0.81756 0.62968 0.86428 0.0
C7184 C 0.80857 0.64093 0.87135 0.0
C7185 C 0.80784 0.63599 0.87906 0.0
H7186 H 0.81356 0.64184 0.8583 0.0
H7187 H 0.80547 0.64726 0.87088 0.0
S7188 S 0.81782 0.61419 0.88291 0.0
N7189 N 0.821 0.61689 0.87299 0.0
N7190 N 0.81165 0.62233 0.88627 0.0
C7191 C 0.81205 0.62779 0.87929 0.0
C7192 C 0.81699 0.62473 0.872 0.0
C7193 C 0.13809 0.06353 0.61373 0.0
C7194 C 0.14622 0.06783 0.61393 0.0
C7195 C 0.13501 0.05873 0.62094 0.0
C7196 C 0.13993 0.05801 0.62867 0.0
H7197 H 0.13409 0.0638 0.60791 0.0
H7198 H 0.12869 0.05562 0.62046 0.0
S7199 S 0.16167 0.06805 0.63257 0.0
N7200 N 0.15899 0.07125 0.62266 0.0
N7201 N 0.15354 0.06184 0.63591 0.0
C7202 C 0.14811 0.06224 0.62891 0.0
C7203 C 0.15117 0.06722 0.62163 0.0
C7204 C 0.20991 0.88896 0.86457 0.0
C7205 C 0.20902 0.89795 0.86279 0.0
C7206 C 0.21503 0.88595 0.87156 0.0
C7207 C 0.21943 0.89183 0.87704 0.0
H7208 H 0.20647 0.88421 0.86064 0.0
H7209 H 0.21538 0.87901 0.87282 0.0
S7210 S 0.21989 0.91588 0.87492 0.0
N7211 N 0.21353 0.91262 0.86686 0.0
N7212 N 0.22293 0.90693 0.88009 0.0
C7213 C 0.21874 0.90078 0.87529 0.0
C7214 C 0.2136 0.90385 0.86815 0.0
C7215 C 0.64485 0.46779 0.41362 0.0
C7216 C 0.64398 0.45865 0.414 0.0
C7217 C 0.64158 0.47259 0.40651 0.0
C7218 C 0.63727 0.46845 0.39953 0.0
H7219 H 0.64838 0.47123 0.41867 0.0
H7220 H 0.64283 0.47954 0.40629 0.0
S7221 S 0.63214 0.44485 0.39804 0.0
N7222 N 0.63769 0.44578 0.40722 0.0
N7223 N 0.6315 0.45479 0.39395 0.0
C7224 C 0.63593 0.45939 0.40009 0.0
C7225 C 0.6393 0.4545 0.40729 0.0
C7226 C 0.81116 0.38908 0.6631 0.0
C7227 C 0.81624 0.39672 0.66249 0.0
C7228 C 0.80651 0.38581 0.65588 0.0
C7229 C 0.80679 0.39003 0.64773 0.0
H7230 H 0.81072 0.38561 0.66924 0.0
H7231 H 0.80276 0.37988 0.65667 0.0
S7232 S 0.81895 0.4104 0.64267 0.0
N7233 N 0.82131 0.40835 0.65297 0.0
N7234 N 0.81225 0.40256 0.63962 0.0
C7235 C 0.81173 0.39777 0.64708 0.0
C7236 C 0.81652 0.40103 0.65438 0.0
C7237 C 0.7126 0.62545 0.15824 0.0
C7238 C 0.70958 0.63114 0.16477 0.0
C7239 C 0.71733 0.62854 0.15107 0.0
C7240 C 0.71928 0.63746 0.15009 0.0
H7241 H 0.71123 0.61853 0.15863 0.0
H7242 H 0.71937 0.62391 0.14613 0.0
S7243 S 0.71308 0.65512 0.16535 0.0
N7244 N 0.70903 0.64619 0.16983 0.0
N7245 N 0.71803 0.65195 0.15631 0.0
C7246 C 0.71656 0.64322 0.15666 0.0
C7247 C 0.71169 0.64008 0.164 0.0
C7248 C 0.61263 0.64481 0.96784 0.0
C7249 C 0.61251 0.64442 0.95865 0.0
C7250 C 0.61972 0.64157 0.97267 0.0
C7251 C 0.62695 0.6378 0.96847 0.0
H7252 H 0.6073 0.64788 0.97132 0.0
H7253 H 0.61969 0.64227 0.97971 0.0
S7254 S 0.62935 0.63408 0.94468 0.0
N7255 N 0.61992 0.63916 0.94564 0.0
N7256 N 0.6332 0.6331 0.95469 0.0
C7257 C 0.62674 0.63701 0.95933 0.0
C7258 C 0.61955 0.64031 0.95443 0.0
C7259 C 0.63809 0.36361 0.21228 0.0
C7260 C 0.62917 0.3629 0.21013 0.0
C7261 C 0.6413 0.37078 0.21704 0.0
C7262 C 0.63572 0.3775 0.21985 0.0
H7263 H 0.64267 0.35874 0.21 0.0
H7264 H 0.64825 0.37124 0.21821 0.0
S7265 S 0.61171 0.37819 0.21702 0.0
N7266 N 0.61473 0.36916 0.21197 0.0
N7267 N 0.62075 0.38255 0.22089 0.0
C7268 C 0.62675 0.37665 0.21813 0.0
C7269 C 0.62349 0.36939 0.21327 0.0
C7270 C 0.90737 0.38707 0.45727 0.0
C7271 C 0.91284 0.38075 0.46106 0.0
C7272 C 0.9003 0.3906 0.46188 0.0
C7273 C 0.89842 0.38796 0.47047 0.0
H7274 H 0.9085 0.38924 0.45064 0.0
H7275 H 0.89611 0.39527 0.45862 0.0
S7276 S 0.91056 0.37152 0.48333 0.0
N7277 N 0.91583 0.37198 0.47394 0.0
N7278 N 0.90251 0.37865 0.48258 0.0
C7279 C 0.90391 0.3818 0.47442 0.0
C7280 C 0.91113 0.37819 0.46972 0.0
C7281 C 0.89431 0.66241 0.71839 0.0
C7282 C 0.89298 0.66285 0.70929 0.0
C7283 C 0.89118 0.65533 0.72335 0.0
C7284 C 0.8866 0.64846 0.71937 0.0
H7285 H 0.89806 0.66742 0.72167 0.0
H7286 H 0.89266 0.65505 0.73025 0.0
S7287 S 0.88038 0.64699 0.69604 0.0
N7288 N 0.88598 0.65616 0.69673 0.0
N7289 N 0.88024 0.64287 0.706 0.0
C7290 C 0.88488 0.64902 0.71038 0.0
C7291 C 0.88803 0.6562 0.70535 0.0
C7292 C 0.61358 0.38019 0.55798 0.0
C7293 C 0.61335 0.38071 0.56717 0.0
C7294 C 0.62066 0.38351 0.55317 0.0
C7295 C 0.62778 0.38747 0.55738 0.0
H7296 H 0.60835 0.37698 0.55449 0.0
H7297 H 0.62071 0.38271 0.54615 0.0
S7298 S 0.62986 0.39157 0.58115 0.0
N7299 N 0.62053 0.3863 0.58016 0.0
N7300 N 0.63378 0.39247 0.57116 0.0
C7301 C 0.62745 0.38838 0.56651 0.0
C7302 C 0.62027 0.38501 0.57139 0.0
C7303 C 0.8868 0.36409 0.81321 0.0
C7304 C 0.89518 0.36424 0.81701 0.0
C7305 C 0.88356 0.37126 0.80847 0.0
C7306 C 0.88856 0.37888 0.80731 0.0
H7307 H 0.88269 0.3584 0.81393 0.0
H7308 H 0.87699 0.37091 0.80592 0.0
S7309 S 0.91102 0.3825 0.81566 0.0
N7310 N 0.90837 0.37273 0.81929 0.0
N7311 N 0.90257 0.38587 0.80993 0.0
C7312 C 0.89705 0.37899 0.81085 0.0
C7313 C 0.90028 0.37177 0.8158 0.0
C7314 C 0.90479 0.64105 0.07124 0.0
C7315 C 0.91221 0.64438 0.06701 0.0
C7316 C 0.89767 0.6378 0.06649 0.0
C7317 C 0.89763 0.63777 0.05729 0.0
H7318 H 0.90445 0.64096 0.0783 0.0
H7319 H 0.89209 0.63538 0.07008 0.0
S7320 S 0.91543 0.64579 0.04303 0.0
N7321 N 0.9191 0.6474 0.05304 0.0
N7322 N 0.90569 0.64133 0.04413 0.0
C7323 C 0.90508 0.6409 0.05297 0.0
C7324 C 0.91236 0.6442 0.05781 0.0
C7325 C 0.63056 0.66227 0.3081 0.0
C7326 C 0.63066 0.66231 0.31731 0.0
C7327 C 0.63373 0.6551 0.30332 0.0
C7328 C 0.63713 0.64772 0.30757 0.0
H7329 H 0.62776 0.66771 0.30457 0.0
H7330 H 0.63324 0.6552 0.29627 0.0
S7331 S 0.64003 0.64505 0.33146 0.0
N7332 N 0.63528 0.65465 0.33041 0.0
N7333 N 0.64121 0.64124 0.32145 0.0
C7334 C 0.63764 0.64785 0.31674 0.0
C7335 C 0.63441 0.65512 0.32159 0.0
C7336 C 0.96764 0.61376 0.64638 0.0
C7337 C 0.95875 0.6127 0.64425 0.0
C7338 C 0.97252 0.62083 0.64313 0.0
C7339 C 0.96868 0.62707 0.63761 0.0
H7340 H 0.97077 0.60926 0.65084 0.0
H7341 H 0.97921 0.62163 0.64522 0.0
S7342 S 0.94605 0.62677 0.62918 0.0
N7343 N 0.94663 0.61812 0.63558 0.0
N7344 N 0.95575 0.63141 0.62961 0.0
C7345 C 0.95995 0.62589 0.63513 0.0
C7346 C 0.955 0.61871 0.63841 0.0
C7347 C 0.66162 0.71783 0.89552 0.0
C7348 C 0.66183 0.70863 0.89535 0.0
C7349 C 0.65445 0.7225 0.89218 0.0
C7350 C 0.64726 0.71814 0.88852 0.0
H7351 H 0.66692 0.72143 0.89849 0.0
H7352 H 0.6544 0.72954 0.89272 0.0
S7353 S 0.64519 0.69422 0.88533 0.0
N7354 N 0.65459 0.69543 0.89042 0.0
N7355 N 0.64123 0.70416 0.88409 0.0
C7356 C 0.64761 0.70898 0.88792 0.0
C7357 C 0.65485 0.70424 0.89136 0.0
C7358 C 0.56369 0.41088 0.13687 0.0
C7359 C 0.56556 0.41202 0.14582 0.0
C7360 C 0.55867 0.40379 0.13389 0.0
C7361 C 0.55528 0.39759 0.13975 0.0
H7362 H 0.56636 0.41537 0.13211 0.0
H7363 H 0.55771 0.40299 0.12693 0.0
S7364 S 0.55727 0.3982 0.16388 0.0
N7365 N 0.56292 0.40673 0.16053 0.0
N7366 N 0.55345 0.39353 0.15497 0.0
C7367 C 0.55676 0.39889 0.14872 0.0
C7368 C 0.5619 0.40604 0.15174 0.0
C7369 C 0.86861 0.31987 0.39007 0.0
C7370 C 0.86242 0.31575 0.39547 0.0
C7371 C 0.87568 0.31525 0.38655 0.0
C7372 C 0.87684 0.3063 0.38821 0.0
H7373 H 0.86803 0.32676 0.38861 0.0
H7374 H 0.88039 0.31875 0.38262 0.0
S7375 S 0.86269 0.29242 0.40201 0.0
N7376 N 0.85804 0.30214 0.40236 0.0
N7377 N 0.87129 0.29347 0.39561 0.0
C7378 C 0.87064 0.30203 0.39342 0.0
C7379 C 0.86345 0.30675 0.39707 0.0
C7380 C 0.95461 0.40592 0.88576 0.0
C7381 C 0.95876 0.4125 0.88088 0.0
C7382 C 0.95929 0.39885 0.88918 0.0
C7383 C 0.96834 0.39806 0.88791 0.0
H7384 H 0.94765 0.40623 0.88693 0.0
H7385 H 0.95578 0.39386 0.89276 0.0
S7386 S 0.98234 0.41328 0.87544 0.0
N7387 N 0.97251 0.41762 0.87483 0.0
N7388 N 0.98129 0.40436 0.88139 0.0
C7389 C 0.97263 0.40463 0.88319 0.0
C7390 C 0.96785 0.41183 0.87964 0.0
C7391 C 0.8631 0.71783 0.13097 0.0
C7392 C 0.86306 0.70863 0.13138 0.0
C7393 C 0.8702 0.72273 0.13411 0.0
C7394 C 0.87752 0.7186 0.13779 0.0
H7395 H 0.8577 0.72126 0.12798 0.0
H7396 H 0.87008 0.72976 0.13341 0.0
S7397 S 0.88017 0.69483 0.14149 0.0
N7398 N 0.87066 0.69571 0.13654 0.0
N7399 N 0.88394 0.70487 0.14241 0.0
C7400 C 0.87739 0.70946 0.13857 0.0
C7401 C 0.8702 0.70449 0.13537 0.0
C7402 C 0.56279 0.61394 0.38891 0.0
C7403 C 0.56463 0.61295 0.37994 0.0
C7404 C 0.55793 0.62108 0.39204 0.0
C7405 C 0.55472 0.6275 0.38631 0.0
H7406 H 0.56539 0.60933 0.39359 0.0
H7407 H 0.55702 0.62179 0.39901 0.0
S7408 S 0.55666 0.62736 0.36218 0.0
N7409 N 0.56206 0.61859 0.36534 0.0
N7410 N 0.553 0.63196 0.37121 0.0
C7411 C 0.55614 0.62635 0.37731 0.0
C7412 C 0.56108 0.61911 0.37413 0.0
C7413 C 0.66172 0.31235 0.63816 0.0
C7414 C 0.66155 0.31621 0.6298 0.0
C7415 C 0.65453 0.3077 0.64146 0.0
C7416 C 0.64686 0.30669 0.63652 0.0
H7417 H 0.66745 0.313 0.64224 0.0
H7418 H 0.65489 0.30514 0.64803 0.0
S7419 S 0.64316 0.31512 0.61408 0.0
N7420 N 0.653 0.3186 0.61666 0.0
N7421 N 0.63979 0.30941 0.62256 0.0
C7422 C 0.64673 0.31022 0.62802 0.0
C7423 C 0.65398 0.31508 0.62474 0.0
C7424 C 0.63664 0.95827 0.61622 0.0
C7425 C 0.64458 0.96074 0.61235 0.0
C7426 C 0.63322 0.96289 0.62337 0.0
C7427 C 0.63755 0.97021 0.62679 0.0
H7428 H 0.63319 0.95257 0.61387 0.0
H7429 H 0.62729 0.96056 0.62642 0.0
S7430 S 0.65822 0.97965 0.61868 0.0
N7431 N 0.65648 0.97118 0.61224 0.0
N7432 N 0.64997 0.97991 0.62561 0.0
C7433 C 0.64533 0.97291 0.62281 0.0
C7434 C 0.64887 0.96815 0.61561 0.0
C7435 C 0.1408 0.57083 0.40551 0.0
C7436 C 0.14438 0.56647 0.41275 0.0
C7437 C 0.13744 0.56622 0.39835 0.0
C7438 C 0.13754 0.55703 0.39807 0.0
H7439 H 0.14059 0.57789 0.40537 0.0
H7440 H 0.13483 0.56991 0.39291 0.0
S7441 S 0.14628 0.54245 0.41525 0.0
N7442 N 0.14783 0.55237 0.41916 0.0
N7443 N 0.14152 0.54373 0.40568 0.0
C7444 C 0.14094 0.55257 0.40532 0.0
C7445 C 0.14437 0.55727 0.41264 0.0
C7446 C 0.71177 0.88695 0.66177 0.0
C7447 C 0.71072 0.89599 0.66319 0.0
C7448 C 0.71667 0.88376 0.65469 0.0
C7449 C 0.72073 0.88948 0.64878 0.0
H7450 H 0.70849 0.8823 0.66596 0.0
H7451 H 0.71694 0.87678 0.65359 0.0
S7452 S 0.72102 0.91362 0.65018 0.0
N7453 N 0.71496 0.91055 0.65854 0.0
N7454 N 0.72402 0.90454 0.64522 0.0
C7455 C 0.72009 0.89849 0.65037 0.0
C7456 C 0.71513 0.90174 0.65756 0.0
C7457 C 0.384 0.45505 0.90643 0.0
C7458 C 0.38069 0.45952 0.91372 0.0
C7459 C 0.3874 0.45955 0.89923 0.0
C7460 C 0.38755 0.46875 0.89893 0.0
H7461 H 0.38395 0.44799 0.90626 0.0
H7462 H 0.38983 0.45577 0.89378 0.0
S7463 S 0.37982 0.48357 0.91642 0.0
N7464 N 0.37799 0.47369 0.92032 0.0
N7465 N 0.38425 0.48216 0.9067 0.0
C7466 C 0.38449 0.47332 0.90628 0.0
C7467 C 0.38108 0.46871 0.91367 0.0
C7468 C 0.30915 0.62621 0.65966 0.0
C7469 C 0.31589 0.63127 0.6633 0.0
C7470 C 0.30406 0.62937 0.65272 0.0
C7471 C 0.30549 0.63772 0.64919 0.0
H7472 H 0.30787 0.61972 0.66215 0.0
H7473 H 0.2991 0.62518 0.64994 0.0
S7474 S 0.32264 0.65331 0.65594 0.0
N7475 N 0.32389 0.64493 0.66261 0.0
N7476 N 0.31432 0.65083 0.64957 0.0
C7477 C 0.31216 0.64285 0.65277 0.0
C7478 C 0.31735 0.63965 0.65983 0.0
C7479 C 0.88018 0.05765 0.11391 0.0
C7480 C 0.88088 0.06682 0.11362 0.0
C7481 C 0.88347 0.05282 0.121 0.0
C7482 C 0.88758 0.05699 0.12806 0.0
H7483 H 0.87684 0.05419 0.10873 0.0
H7484 H 0.88253 0.04582 0.12111 0.0
S7485 S 0.89213 0.08068 0.12997 0.0
N7486 N 0.88677 0.07974 0.12068 0.0
N7487 N 0.89288 0.07071 0.13395 0.0
C7488 C 0.88866 0.0661 0.12767 0.0
C7489 C 0.88532 0.071 0.12048 0.0
C7490 C 0.70513 0.1353 0.86884 0.0
C7491 C 0.7094 0.13064 0.86219 0.0
C7492 C 0.70972 0.13862 0.87603 0.0
C7493 C 0.71877 0.13742 0.87688 0.0
H7494 H 0.69816 0.13634 0.86855 0.0
H7495 H 0.7061 0.142 0.88107 0.0
S7496 S 0.7331 0.12579 0.86129 0.0
N7497 N 0.72329 0.1251 0.85689 0.0
N7498 N 0.73189 0.1314 0.87042 0.0
C7499 C 0.72319 0.13302 0.87017 0.0
C7500 C 0.71851 0.12961 0.86283 0.0
C7501 C 0.81967 0.89002 0.36917 0.0
C7502 C 0.81549 0.89519 0.36283 0.0
C7503 C 0.81508 0.88662 0.3763 0.0
C7504 C 0.80611 0.8882 0.37739 0.0
H7505 H 0.82657 0.88865 0.36864 0.0
H7506 H 0.81861 0.88284 0.38112 0.0
S7507 S 0.79209 0.90137 0.36279 0.0
N7508 N 0.80182 0.90175 0.35818 0.0
N7509 N 0.7932 0.89524 0.37159 0.0
C7510 C 0.80179 0.89317 0.37104 0.0
C7511 C 0.80648 0.89669 0.36376 0.0
C7512 C 0.40485 0.38336 0.07154 0.0
C7513 C 0.41217 0.3797 0.06737 0.0
C7514 C 0.39777 0.38664 0.06673 0.0
C7515 C 0.39769 0.38638 0.05754 0.0
H7516 H 0.4046 0.3837 0.07859 0.0
H7517 H 0.39227 0.38934 0.07025 0.0
S7518 S 0.41503 0.37701 0.04347 0.0
N7519 N 0.41877 0.37578 0.05349 0.0
N7520 N 0.40548 0.38184 0.04448 0.0
C7521 C 0.40498 0.38275 0.05329 0.0
C7522 C 0.4122 0.37944 0.05818 0.0
C7523 C 0.39581 0.66261 0.80921 0.0
C7524 C 0.39214 0.66497 0.81729 0.0
C7525 C 0.39239 0.65567 0.80429 0.0
C7526 C 0.38526 0.65076 0.80731 0.0
H7527 H 0.40144 0.66607 0.80674 0.0
H7528 H 0.39563 0.65386 0.79827 0.0
S7529 S 0.37321 0.65431 0.82794 0.0
N7530 N 0.3808 0.66196 0.82796 0.0
N7531 N 0.37456 0.64878 0.81878 0.0
C7532 C 0.38142 0.65314 0.81527 0.0
C7533 C 0.38481 0.66029 0.82023 0.0
C7534 C 0.11209 0.63945 0.56262 0.0
C7535 C 0.11259 0.64736 0.56731 0.0
C7536 C 0.11928 0.63618 0.55794 0.0
C7537 C 0.12729 0.64066 0.55775 0.0
H7538 H 0.10607 0.63577 0.56253 0.0
H7539 H 0.11859 0.63002 0.55454 0.0
S7540 S 0.13199 0.66176 0.56879 0.0
N7541 N 0.12185 0.65951 0.57155 0.0
N7542 N 0.1351 0.65371 0.56236 0.0
C7543 C 0.12781 0.64866 0.56229 0.0
C7544 C 0.12055 0.65192 0.56715 0.0
C7545 C 0.12337 0.36809 0.31374 0.0
C7546 C 0.12915 0.36197 0.3174 0.0
C7547 C 0.12641 0.37522 0.30889 0.0
C7548 C 0.13537 0.37655 0.30744 0.0
H7549 H 0.1164 0.36734 0.31459 0.0
H7550 H 0.12169 0.37976 0.30623 0.0
S7551 S 0.15331 0.36272 0.31579 0.0
N7552 N 0.14437 0.35792 0.3194 0.0
N7553 N 0.15002 0.37127 0.31012 0.0
C7554 C 0.14125 0.37048 0.31096 0.0
C7555 C 0.13816 0.36322 0.31597 0.0
C7556 C 0.40641 0.65352 0.46247 0.0
C7557 C 0.41298 0.64769 0.45976 0.0
C7558 C 0.39937 0.65069 0.46759 0.0
C7559 C 0.3986 0.64194 0.47024 0.0
H7560 H 0.40675 0.66034 0.46067 0.0
H7561 H 0.39446 0.65541 0.46949 0.0
S7562 S 0.41361 0.62391 0.46437 0.0
N7563 N 0.41796 0.63262 0.45976 0.0
N7564 N 0.40477 0.62737 0.46945 0.0
C7565 C 0.40507 0.63603 0.46756 0.0
C7566 C 0.41224 0.63889 0.46231 0.0
C7567 C 0.13723 0.66021 0.20858 0.0
C7568 C 0.12864 0.66323 0.20989 0.0
C7569 C 0.14056 0.65308 0.21331 0.0
C7570 C 0.13546 0.64882 0.2196 0.0
H7571 H 0.14134 0.66326 0.20371 0.0
H7572 H 0.1471 0.65081 0.21195 0.0
S7573 S 0.1128 0.6543 0.22588 0.0
N7574 N 0.11525 0.66148 0.21822 0.0
N7575 N 0.12155 0.64814 0.22708 0.0
C7576 C 0.12696 0.65185 0.22112 0.0
C7577 C 0.12354 0.65903 0.21627 0.0
C7578 C 0.12041 0.37528 0.95944 0.0
C7579 C 0.1124 0.37974 0.95957 0.0
C7580 C 0.12765 0.37834 0.9641 0.0
C7581 C 0.1273 0.38609 0.96906 0.0
H7582 H 0.12115 0.36937 0.95563 0.0
H7583 H 0.13357 0.3745 0.96387 0.0
S7584 S 0.10778 0.40013 0.97184 0.0
N7585 N 0.10443 0.39214 0.96544 0.0
N7586 N 0.11816 0.39814 0.97384 0.0
C7587 C 0.11932 0.39062 0.9693 0.0
C7588 C 0.11187 0.38742 0.96462 0.0
C7589 C 0.38774 0.36344 0.71079 0.0
C7590 C 0.3968 0.36223 0.70966 0.0
C7591 C 0.38442 0.37054 0.71557 0.0
C7592 C 0.39003 0.3767 0.71936 0.0
H7593 H 0.38318 0.35897 0.70778 0.0
H7594 H 0.37743 0.37135 0.71612 0.0
S7595 S 0.41417 0.37612 0.71921 0.0
N7596 N 0.41127 0.3675 0.71344 0.0
N7597 N 0.405 0.38089 0.72221 0.0
C7598 C 0.39906 0.37546 0.71851 0.0
C7599 C 0.40245 0.36823 0.71371 0.0
C7600 C 0.06313 0.40656 0.37344 0.0
C7601 C 0.06588 0.41327 0.37909 0.0
C7602 C 0.05848 0.39933 0.37657 0.0
C7603 C 0.05633 0.3985 0.38546 0.0
H7604 H 0.06455 0.40692 0.36653 0.0
H7605 H 0.05651 0.39433 0.37197 0.0
S7606 S 0.0623 0.41394 0.40306 0.0
N7607 N 0.06635 0.41839 0.39412 0.0
N7608 N 0.05746 0.40484 0.39991 0.0
C7609 C 0.05898 0.40513 0.39118 0.0
C7610 C 0.06378 0.41249 0.38802 0.0
C7611 C 0.36988 0.31642 0.12519 0.0
C7612 C 0.36213 0.31702 0.13005 0.0
C7613 C 0.37706 0.31166 0.12825 0.0
C7614 C 0.37691 0.30733 0.13637 0.0
H7615 H 0.37046 0.31973 0.11897 0.0
H7616 H 0.38277 0.31131 0.12411 0.0
S7617 S 0.35809 0.30667 0.1516 0.0
N7618 N 0.35459 0.31254 0.14328 0.0
N7619 N 0.36825 0.30402 0.14925 0.0
C7620 C 0.36919 0.30786 0.14132 0.0
C7621 C 0.36179 0.31262 0.13813 0.0
C7622 C 0.46114 0.6194 0.87427 0.0
C7623 C 0.45839 0.61281 0.88005 0.0
C7624 C 0.46585 0.62665 0.87723 0.0
C7625 C 0.46806 0.62763 0.88609 0.0
H7626 H 0.4597 0.61892 0.86737 0.0
H7627 H 0.46785 0.63153 0.87252 0.0
S7628 S 0.46219 0.61251 0.90399 0.0
N7629 N 0.45802 0.60794 0.89517 0.0
N7630 N 0.46705 0.62152 0.90065 0.0
C7631 C 0.46542 0.62111 0.89195 0.0
C7632 C 0.46055 0.61372 0.88895 0.0
C7633 C 0.1557 0.7058 0.63208 0.0
C7634 C 0.16269 0.70983 0.62773 0.0
C7635 C 0.14861 0.71068 0.63521 0.0
C7636 C 0.14816 0.71979 0.63405 0.0
H7637 H 0.15574 0.69882 0.63316 0.0
H7638 H 0.14342 0.70726 0.63858 0.0
S7639 S 0.16458 0.73342 0.62263 0.0
N7640 N 0.16863 0.72345 0.62221 0.0
N7641 N 0.15525 0.73259 0.62793 0.0
C7642 C 0.15511 0.7239 0.62968 0.0
C7643 C 0.16237 0.71893 0.62655 0.0
C7644 C 0.064 0.62012 0.15234 0.0
C7645 C 0.06618 0.61308 0.14686 0.0
C7646 C 0.05925 0.62729 0.14922 0.0
C7647 C 0.05646 0.62776 0.14047 0.0
H7648 H 0.0659 0.62005 0.15915 0.0
H7649 H 0.05768 0.63249 0.15373 0.0
S7650 S 0.06084 0.61134 0.12328 0.0
N7651 N 0.06544 0.60723 0.13211 0.0
N7652 N 0.05644 0.6207 0.1263 0.0
C7653 C 0.05859 0.6208 0.1349 0.0
C7654 C 0.06346 0.61348 0.13807 0.0
C7655 C 0.16192 0.31539 0.88611 0.0
C7656 C 0.16329 0.31648 0.89517 0.0
C7657 C 0.15477 0.31059 0.88289 0.0
C7658 C 0.14878 0.30669 0.88863 0.0
H7659 H 0.16628 0.31849 0.88149 0.0
H7660 H 0.15377 0.31013 0.87591 0.0
S7661 S 0.14997 0.30662 0.9128 0.0
N7662 N 0.15841 0.31255 0.90973 0.0
N7663 N 0.14508 0.30358 0.90371 0.0
C7664 C 0.1503 0.30741 0.89765 0.0
C7665 C 0.1575 0.31229 0.90091 0.0
C7666 C 0.45401 0.40622 0.64314 0.0
C7667 C 0.45816 0.41331 0.64724 0.0
C7668 C 0.45882 0.39914 0.63985 0.0
C7669 C 0.46796 0.39887 0.64055 0.0
H7670 H 0.44699 0.40616 0.64241 0.0
H7671 H 0.45535 0.39382 0.63676 0.0
S7672 S 0.48191 0.41551 0.65124 0.0
N7673 N 0.47193 0.41944 0.65211 0.0
N7674 N 0.48094 0.40615 0.64599 0.0
C7675 C 0.47219 0.40591 0.64466 0.0
C7676 C 0.4673 0.41311 0.64799 0.0
C7677 C 0.36511 0.71552 0.40178 0.0
C7678 C 0.36139 0.70883 0.39671 0.0
C7679 C 0.37209 0.72054 0.39863 0.0
C7680 C 0.37563 0.71904 0.39031 0.0
H7681 H 0.3626 0.7169 0.40825 0.0
H7682 H 0.37486 0.72554 0.4028 0.0
S7683 S 0.36857 0.70219 0.37454 0.0
N7684 N 0.36197 0.70091 0.38296 0.0
N7685 N 0.3751 0.71037 0.37711 0.0
C7686 C 0.37201 0.71242 0.38516 0.0
C7687 C 0.36488 0.70732 0.38833 0.0
C7688 C 0.38703 0.06304 0.41342 0.0
C7689 C 0.37956 0.06835 0.41269 0.0
C7690 C 0.39032 0.05834 0.40624 0.0
C7691 C 0.38623 0.05868 0.39801 0.0
H7692 H 0.39033 0.06241 0.41964 0.0
H7693 H 0.39611 0.05442 0.40717 0.0
S7694 S 0.36644 0.07172 0.39261 0.0
N7695 N 0.36844 0.07401 0.40293 0.0
N7696 N 0.37401 0.06464 0.38973 0.0
C7697 C 0.3787 0.06395 0.39723 0.0
C7698 C 0.37551 0.0689 0.40447 0.0
C7699 C 0.87596 0.46678 0.61454 0.0
C7700 C 0.87912 0.45834 0.61284 0.0
C7701 C 0.87925 0.47176 0.6215 0.0
C7702 C 0.88571 0.46841 0.6271 0.0
H7703 H 0.8709 0.46954 0.61046 0.0
H7704 H 0.87655 0.47818 0.62268 0.0
S7705 S 0.89613 0.44667 0.62544 0.0
N7706 N 0.88916 0.44691 0.61723 0.0
N7707 N 0.89516 0.45617 0.63045 0.0
C7708 C 0.88894 0.46 0.62545 0.0
C7709 C 0.8857 0.45499 0.61828 0.0
C7710 C 0.30699 0.12698 0.36281 0.0
C7711 C 0.31614 0.12768 0.36263 0.0
C7712 C 0.30212 0.12997 0.36999 0.0
C7713 C 0.30622 0.13382 0.37726 0.0
H7714 H 0.30357 0.12393 0.35743 0.0
H7715 H 0.29512 0.12907 0.36995 0.0
S7716 S 0.32993 0.13819 0.3795 0.0
N7717 N 0.32903 0.13313 0.37003 0.0
N7718 N 0.31993 0.13888 0.38342 0.0
C7719 C 0.31535 0.13485 0.37699 0.0
C7720 C 0.32029 0.13174 0.36972 0.0
C7721 C 0.63467 0.56703 0.11338 0.0
C7722 C 0.64355 0.56629 0.11108 0.0
C7723 C 0.63116 0.5623 0.12045 0.0
C7724 C 0.63637 0.55653 0.12527 0.0
H7725 H 0.63049 0.57153 0.1099 0.0
H7726 H 0.62442 0.56335 0.12228 0.0
S7727 S 0.65977 0.55176 0.12162 0.0
N7728 N 0.65731 0.55902 0.11405 0.0
N7729 N 0.65068 0.55006 0.12713 0.0
C7730 C 0.64514 0.55549 0.12284 0.0
C7731 C 0.64874 0.56039 0.1158 0.0
C7732 C 0.70415 0.39219 0.3695 0.0
C7733 C 0.70844 0.39593 0.36229 0.0
C7734 C 0.70882 0.38892 0.37667 0.0
C7735 C 0.718 0.38933 0.37699 0.0
H7736 H 0.6971 0.39177 0.36958 0.0
H7737 H 0.7052 0.38611 0.38204 0.0
S7738 S 0.73232 0.39888 0.35992 0.0
N7739 N 0.72237 0.39997 0.35596 0.0
N7740 N 0.73116 0.39406 0.36948 0.0
C7741 C 0.72237 0.39303 0.36979 0.0
C7742 C 0.7176 0.39628 0.36245 0.0
C7743 C 0.15161 0.96154 0.90682 0.0
C7744 C 0.14596 0.95874 0.91349 0.0
C7745 C 0.14854 0.96641 0.8997 0.0
C7746 C 0.1397 0.96873 0.89896 0.0
H7747 H 0.1585 0.96001 0.90711 0.0
H7748 H 0.15315 0.96841 0.89473 0.0
S7749 S 0.12209 0.96277 0.91437 0.0
N7750 N 0.13097 0.95845 0.91869 0.0
N7751 N 0.12528 0.96775 0.90536 0.0
C7752 C 0.13397 0.96605 0.90557 0.0
C7753 C 0.13707 0.96102 0.91281 0.0
C7754 C 0.32088 0.89244 0.15809 0.0
C7755 C 0.31658 0.89721 0.16465 0.0
C7756 C 0.31632 0.88902 0.15092 0.0
C7757 C 0.30728 0.89027 0.14999 0.0
H7758 H 0.32784 0.89134 0.1585 0.0
H7759 H 0.31993 0.88543 0.14602 0.0
S7760 S 0.29305 0.90271 0.16515 0.0
N7761 N 0.3028 0.90318 0.16967 0.0
N7762 N 0.29425 0.89693 0.15615 0.0
C7763 C 0.3029 0.89502 0.15653 0.0
C7764 C 0.30754 0.89844 0.16386 0.0
C7765 C 0.21262 0.13738 0.66254 0.0
C7766 C 0.20743 0.1298 0.66198 0.0
C7767 C 0.2174 0.14048 0.65533 0.0
C7768 C 0.21723 0.13612 0.64722 0.0
H7769 H 0.21311 0.14088 0.66865 0.0
H7770 H 0.22123 0.14635 0.65612 0.0
S7771 S 0.20454 0.116 0.64228 0.0
N7772 N 0.20208 0.11829 0.6525 0.0
N7773 N 0.21154 0.12357 0.63925 0.0
C7774 C 0.21207 0.1285 0.64661 0.0
C7775 C 0.20707 0.12548 0.65389 0.0
C7776 C 0.10704 0.21675 0.40162 0.0
C7777 C 0.10498 0.20837 0.39846 0.0
C7778 C 0.11231 0.22249 0.39681 0.0
C7779 C 0.11565 0.22008 0.38863 0.0
H7780 H 0.10506 0.21866 0.40814 0.0
H7781 H 0.11443 0.22851 0.39985 0.0
S7782 S 0.11142 0.19939 0.37691 0.0
N7783 N 0.10607 0.19833 0.3862 0.0
N7784 N 0.1159 0.20918 0.37718 0.0
C7785 C 0.113 0.21208 0.38504 0.0
C7786 C 0.10766 0.20621 0.38994 0.0
C7787 C 0.06849 0.85751 0.64097 0.0
C7788 C 0.0666 0.85565 0.64977 0.0
C7789 C 0.06276 0.86256 0.63589 0.0
C7790 C 0.05493 0.8658 0.63941 0.0
H7791 H 0.07475 0.85571 0.63824 0.0
H7792 H 0.06484 0.86462 0.62945 0.0
S7793 S 0.04639 0.86164 0.6616 0.0
N7794 N 0.05585 0.8565 0.66138 0.0
N7795 N 0.04518 0.86603 0.65184 0.0
C7796 C 0.05261 0.86327 0.64789 0.0
C7797 C 0.05843 0.85819 0.65307 0.0
C7798 C 0.41563 0.82057 0.89157 0.0
C7799 C 0.41952 0.8177 0.89938 0.0
C7800 C 0.41023 0.81503 0.88668 0.0
C7801 C 0.40862 0.8064 0.88935 0.0
H7802 H 0.41617 0.82734 0.8896 0.0
H7803 H 0.40675 0.81771 0.88115 0.0
S7804 S 0.41837 0.79528 0.90843 0.0
N7805 N 0.42229 0.80531 0.90888 0.0
N7806 N 0.41208 0.79495 0.89968 0.0
C7807 C 0.41308 0.80321 0.89667 0.0
C7808 C 0.41854 0.80886 0.90168 0.0
C7809 C 0.45645 0.1678 0.14114 0.0
C7810 C 0.45848 0.17003 0.14982 0.0
C7811 C 0.46216 0.16265 0.13614 0.0
C7812 C 0.47011 0.15969 0.13961 0.0
H7813 H 0.45011 0.16939 0.13847 0.0
H7814 H 0.46 0.16034 0.12982 0.0
S7815 S 0.47906 0.16486 0.16142 0.0
N7816 N 0.4695 0.16983 0.16121 0.0
N7817 N 0.48012 0.16009 0.15182 0.0
C7818 C 0.47255 0.16255 0.14794 0.0
C7819 C 0.46676 0.16774 0.15304 0.0
C7820 C 0.1069 0.80879 0.12334 0.0
C7821 C 0.10433 0.81686 0.12692 0.0
C7822 C 0.11196 0.80285 0.12813 0.0
C7823 C 0.11457 0.80472 0.13671 0.0
H7824 H 0.10552 0.80731 0.11656 0.0
H7825 H 0.11451 0.79715 0.12484 0.0
S7826 S 0.10863 0.8243 0.14956 0.0
N7827 N 0.10403 0.82592 0.13995 0.0
N7828 N 0.11348 0.8147 0.14893 0.0
C7829 C 0.11135 0.81233 0.14066 0.0
C7830 C 0.10622 0.81842 0.13578 0.0
C7831 C 0.4533 0.86042 0.38506 0.0
C7832 C 0.4564 0.85552 0.37797 0.0
C7833 C 0.45894 0.86575 0.3899 0.0
C7834 C 0.46786 0.86634 0.38781 0.0
H7835 H 0.44638 0.86068 0.38643 0.0
H7836 H 0.45618 0.87 0.39483 0.0
S7837 S 0.47933 0.85383 0.37065 0.0
N7838 N 0.46904 0.85081 0.3697 0.0
N7839 N 0.47967 0.86083 0.37884 0.0
C7840 C 0.47116 0.86087 0.38126 0.0
C7841 C 0.4654 0.85547 0.3763 0.0
C7842 C 0.41532 0.21615 0.62106 0.0
C7843 C 0.41981 0.20931 0.62522 0.0
C7844 C 0.41028 0.22209 0.62583 0.0
C7845 C 0.40952 0.22142 0.63494 0.0
H7846 H 0.41517 0.2165 0.614 0.0
H7847 H 0.40628 0.22672 0.62229 0.0
S7848 S 0.421 0.20555 0.64908 0.0
N7849 N 0.42405 0.2029 0.63908 0.0
N7850 N 0.41447 0.21406 0.64805 0.0
C7851 C 0.41466 0.21518 0.63926 0.0
C7852 C 0.41984 0.20912 0.63439 0.0
C7853 C 0.06693 0.1685 0.88417 0.0
C7854 C 0.06601 0.16929 0.87506 0.0
C7855 C 0.06105 0.16344 0.88907 0.0
C7856 C 0.05404 0.15912 0.88503 0.0
H7857 H 0.07263 0.17115 0.88739 0.0
H7858 H 0.06246 0.16224 0.8959 0.0
S7859 S 0.04803 0.16026 0.86168 0.0
N7860 N 0.05693 0.16627 0.86244 0.0
N7861 N 0.04597 0.15675 0.87165 0.0
C7862 C 0.0526 0.16056 0.87612 0.0
C7863 C 0.05857 0.16565 0.87113 0.0
C7864 C 0.3886 0.10773 0.20482 0.0
C7865 C 0.39652 0.10413 0.20774 0.0
C7866 C 0.38353 0.11301 0.21032 0.0
C7867 C 0.38616 0.11481 0.21893 0.0
H7868 H 0.38672 0.10713 0.19803 0.0
H7869 H 0.37798 0.11641 0.20756 0.0
S7870 S 0.40539 0.10559 0.2302 0.0
N7871 N 0.406 0.10162 0.2202 0.0
N7872 N 0.39648 0.11163 0.23047 0.0
C7873 C 0.39351 0.11047 0.2222 0.0
C7874 C 0.3987 0.10513 0.21661 0.0
C7875 C 0.16305 0.1555 0.46647 0.0
C7876 C 0.16946 0.15112 0.46157 0.0
C7877 C 0.15723 0.15094 0.47182 0.0
C7878 C 0.15752 0.14179 0.47247 0.0
H7879 H 0.16207 0.16246 0.46569 0.0
H7880 H 0.15202 0.15454 0.47494 0.0
S7881 S 0.17402 0.12735 0.46231 0.0
N7882 N 0.17658 0.13721 0.45879 0.0
N7883 N 0.16541 0.1286 0.46868 0.0
C7884 C 0.16436 0.13738 0.46826 0.0
C7885 C 0.17035 0.14205 0.46282 0.0
C7886 C 0.13365 0.91888 0.70883 0.0
C7887 C 0.12448 0.91897 0.70904 0.0
C7888 C 0.13844 0.91383 0.71483 0.0
C7889 C 0.13418 0.90881 0.72123 0.0
H7890 H 0.13709 0.92212 0.70358 0.0
H7891 H 0.14541 0.91322 0.71395 0.0
S7892 S 0.11041 0.90785 0.72523 0.0
N7893 N 0.11143 0.91442 0.71675 0.0
N7894 N 0.12041 0.905 0.72798 0.0
C7895 C 0.1251 0.90953 0.72198 0.0
C7896 C 0.12024 0.91459 0.71587 0.0
C7897 C 0.35998 0.87068 0.96637 0.0
C7898 C 0.35552 0.87509 0.95968 0.0
C7899 C 0.36509 0.87522 0.97242 0.0
C7900 C 0.36597 0.88433 0.97198 0.0
H7901 H 0.36004 0.86361 0.96653 0.0
H7902 H 0.36903 0.87151 0.97697 0.0
S7903 S 0.35468 0.89902 0.95647 0.0
N7904 N 0.35148 0.88914 0.95358 0.0
N7905 N 0.36121 0.8977 0.96495 0.0
C7906 C 0.3609 0.88889 0.96586 0.0
C7907 C 0.35564 0.88426 0.95969 0.0
C7908 C 0.39131 0.91877 0.31617 0.0
C7909 C 0.40039 0.9179 0.3173 0.0
C7910 C 0.38666 0.91319 0.31054 0.0
C7911 C 0.39095 0.90655 0.30588 0.0
H7912 H 0.38773 0.92356 0.31993 0.0
H7913 H 0.37962 0.9137 0.31028 0.0
S7914 S 0.41462 0.90173 0.30621 0.0
N7915 N 0.41346 0.90997 0.31305 0.0
N7916 N 0.40479 0.89978 0.30231 0.0
C7917 C 0.40007 0.90597 0.30656 0.0
C7918 C 0.40477 0.91155 0.31231 0.0
C7919 C 0.35813 0.14126 0.56977 0.0
C7920 C 0.35497 0.14949 0.56721 0.0
C7921 C 0.36342 0.13629 0.56419 0.0
C7922 C 0.36565 0.13934 0.55582 0.0
H7923 H 0.35713 0.13895 0.57638 0.0
H7924 H 0.36639 0.13038 0.56669 0.0
S7925 S 0.35787 0.15969 0.54545 0.0
N7926 N 0.35347 0.15985 0.55529 0.0
N7927 N 0.36355 0.15054 0.54488 0.0
C7928 C 0.3619 0.14714 0.5529 0.0
C7929 C 0.35653 0.15221 0.55857 0.0
C7930 C 0.12474 0.10667 0.80991 0.0
C7931 C 0.12745 0.10547 0.81862 0.0
C7932 C 0.12952 0.11193 0.80412 0.0
C7933 C 0.13718 0.11613 0.80683 0.0
H7934 H 0.11858 0.104 0.80773 0.0
H7935 H 0.12679 0.11332 0.79775 0.0
S7936 S 0.14756 0.11448 0.82858 0.0
N7937 N 0.13873 0.10838 0.82939 0.0
N7938 N 0.14767 0.11821 0.81847 0.0
C7939 C 0.14035 0.11441 0.81525 0.0
C7940 C 0.1355 0.10908 0.82116 0.0
C7941 C 0.16728 0.88318 0.06498 0.0
C7942 C 0.16579 0.87424 0.06657 0.0
C7943 C 0.16194 0.88796 0.05924 0.0
C7944 C 0.15495 0.88394 0.0549 0.0
H7945 H 0.17241 0.88658 0.06845 0.0
H7946 H 0.16292 0.89493 0.05867 0.0
S7947 S 0.14856 0.86066 0.05637 0.0
N7948 N 0.15696 0.86156 0.06303 0.0
N7949 N 0.1472 0.87043 0.05206 0.0
C7950 C 0.15377 0.87491 0.05599 0.0
C7951 C 0.1591 0.87009 0.06189 0.0
C7952 C 0.21589 0.40403 0.1093 0.0
C7953 C 0.20815 0.4002 0.10615 0.0
C7954 C 0.2218 0.39927 0.11439 0.0
C7955 C 0.22028 0.39047 0.11643 0.0
H7956 H 0.21708 0.41092 0.10833 0.0
H7957 H 0.22724 0.40267 0.11735 0.0
S7958 S 0.20167 0.37705 0.10893 0.0
N7959 N 0.19977 0.3868 0.10476 0.0
N7960 N 0.211 0.37786 0.11425 0.0
C7961 C 0.21302 0.38634 0.11267 0.0
C7962 C 0.20694 0.3912 0.10752 0.0
C7963 C 0.71542 0.12462 0.91915 0.0
C7964 C 0.7065 0.12675 0.91985 0.0
C7965 C 0.72107 0.12947 0.91378 0.0
C7966 C 0.71798 0.13661 0.90895 0.0
H7967 H 0.71794 0.11887 0.92239 0.0
H7968 H 0.72769 0.1272 0.91287 0.0
S7969 S 0.69544 0.14528 0.90888 0.0
N7970 N 0.69505 0.13685 0.91558 0.0
N7971 N 0.70567 0.14596 0.90562 0.0
C7972 C 0.70926 0.13918 0.91007 0.0
C7973 C 0.70352 0.13426 0.91549 0.0
C7974 C 0.14053 0.45841 0.16876 0.0
C7975 C 0.1497 0.45819 0.16876 0.0
C7976 C 0.13596 0.46451 0.1636 0.0
C7977 C 0.14046 0.47055 0.15834 0.0
H7978 H 0.13688 0.45345 0.17223 0.0
H7979 H 0.12894 0.464 0.16315 0.0
S7980 S 0.16441 0.47321 0.15689 0.0
N7981 N 0.16304 0.46499 0.16372 0.0
N7982 N 0.15452 0.47643 0.15413 0.0
C7983 C 0.14959 0.47081 0.15889 0.0
C7984 C 0.1542 0.46462 0.16406 0.0
C7985 C 0.8093 0.90113 0.41884 0.0
C7986 C 0.81806 0.89862 0.42002 0.0
C7987 C 0.80359 0.89619 0.41364 0.0
C7988 C 0.80645 0.88855 0.40948 0.0
H7989 H 0.80699 0.90726 0.4215 0.0
H7990 H 0.79715 0.89875 0.41228 0.0
S7991 S 0.82844 0.8787 0.41101 0.0
N7992 N 0.82906 0.88759 0.41707 0.0
N7993 N 0.81832 0.87832 0.40737 0.0
C7994 C 0.81495 0.8856 0.41116 0.0
C7995 C 0.82076 0.89062 0.41642 0.0
C7996 C 0.88425 0.06795 0.16854 0.0
C7997 C 0.8754 0.06623 0.17027 0.0
C7998 C 0.88925 0.0622 0.16344 0.0
C7999 C 0.88561 0.05451 0.16001 0.0
H8000 H 0.88709 0.07413 0.17047 0.0
H8001 H 0.89575 0.06418 0.16149 0.0
S8002 S 0.86325 0.04634 0.16386 0.0
N8003 N 0.86361 0.05571 0.16915 0.0
N8004 N 0.87301 0.04501 0.15951 0.0
C8005 C 0.87707 0.05233 0.16242 0.0
C8006 C 0.87197 0.05817 0.16756 0.0
C8007 C 0.31732 0.63403 0.60794 0.0
C8008 C 0.31648 0.62493 0.6071 0.0
C8009 C 0.31137 0.63885 0.61301 0.0
C8010 C 0.30439 0.63471 0.61729 0.0
H8011 H 0.32298 0.63732 0.60531 0.0
H8012 H 0.31268 0.64569 0.61422 0.0
S8013 S 0.29863 0.61131 0.61603 0.0
N8014 N 0.30755 0.61219 0.61006 0.0
N8015 N 0.29645 0.62124 0.61958 0.0
C8016 C 0.30306 0.62579 0.61581 0.0
C8017 C 0.30909 0.62089 0.61071 0.0
C8018 C 0.15214 0.55907 0.35781 0.0
C8019 C 0.14896 0.56738 0.35547 0.0
C8020 C 0.1472 0.55338 0.36301 0.0
C8021 C 0.13887 0.55574 0.36596 0.0
H8022 H 0.15874 0.5572 0.35612 0.0
H8023 H 0.15021 0.54743 0.36534 0.0
S8024 S 0.12709 0.5762 0.36088 0.0
N8025 N 0.13657 0.57728 0.35589 0.0
N8026 N 0.1273 0.5665 0.36555 0.0
C8027 C 0.1353 0.56365 0.36303 0.0
C8028 C 0.14033 0.56949 0.35779 0.0
C8029 C 0.38469 0.4542 0.86032 0.0
C8030 C 0.37769 0.45746 0.85539 0.0
C8031 C 0.38942 0.45966 0.86593 0.0
C8032 C 0.38736 0.46857 0.86675 0.0
H8033 H 0.38605 0.44726 0.86041 0.0
H8034 H 0.39425 0.45675 0.87019 0.0
S8035 S 0.37072 0.48057 0.85404 0.0
N8036 N 0.36973 0.47035 0.85075 0.0
N8037 N 0.37868 0.48062 0.86131 0.0
C8038 C 0.38098 0.47207 0.86122 0.0
C8039 C 0.37611 0.46649 0.85555 0.0
C8040 C 0.91785 0.80795 0.62298 0.0
C8041 C 0.91991 0.81646 0.62581 0.0
C8042 C 0.91233 0.80251 0.62788 0.0
C8043 C 0.90866 0.80539 0.63577 0.0
H8044 H 0.92008 0.80568 0.61667 0.0
H8045 H 0.91033 0.79633 0.6251 0.0
S8046 S 0.91284 0.82656 0.64666 0.0
N8047 N 0.9185 0.8271 0.63751 0.0
N8048 N 0.90821 0.81684 0.64669 0.0
C8049 C 0.91128 0.81354 0.63905 0.0
C8050 C 0.91689 0.81909 0.63408 0.0
C8051 C 0.96083 0.16934 0.38172 0.0
C8052 C 0.96084 0.16927 0.37254 0.0
C8053 C 0.96649 0.16388 0.38648 0.0
C8054 C 0.97239 0.15831 0.38218 0.0
H8055 H 0.95593 0.17304 0.38522 0.0
H8056 H 0.9657 0.16345 0.39349 0.0
S8057 S 0.97564 0.15652 0.35832 0.0
N8058 N 0.96779 0.16381 0.35941 0.0
N8059 N 0.97843 0.15367 0.36833 0.0
C8060 C 0.97297 0.1588 0.37306 0.0
C8061 C 0.96718 0.16425 0.36824 0.0
C8062 C 0.60774 0.20796 0.13376 0.0
C8063 C 0.60411 0.21079 0.12583 0.0
C8064 C 0.61353 0.21331 0.13844 0.0
C8065 C 0.61578 0.22168 0.1354 0.0
H8066 H 0.60677 0.2013 0.13592 0.0
H8067 H 0.61689 0.21057 0.14402 0.0
S8068 S 0.6069 0.23259 0.11578 0.0
N8069 N 0.6023 0.22284 0.11573 0.0
N8070 N 0.61308 0.23291 0.1246 0.0
C8071 C 0.61147 0.22489 0.128 0.0
C8072 C 0.60567 0.21943 0.12318 0.0
C8073 C 0.56397 0.86527 0.87068 0.0
C8074 C 0.56513 0.85658 0.87333 0.0
C8075 C 0.55921 0.87115 0.87571 0.0
C8076 C 0.55546 0.8687 0.88374 0.0
H8077 H 0.56702 0.86767 0.86477 0.0
H8078 H 0.55863 0.87779 0.87336 0.0
S8079 S 0.55576 0.84648 0.89323 0.0
N8080 N 0.56152 0.84556 0.88416 0.0
N8081 N 0.55262 0.85678 0.89378 0.0
C8082 C 0.55621 0.85994 0.88633 0.0
C8083 C 0.56109 0.85387 0.88113 0.0
C8084 C 0.91464 0.21769 0.90745 0.0
C8085 C 0.9197 0.21134 0.90317 0.0
C8086 C 0.90931 0.22345 0.90275 0.0
C8087 C 0.90881 0.22304 0.89361 0.0
H8088 H 0.9143 0.21778 0.91451 0.0
H8089 H 0.9049 0.22765 0.90634 0.0
S8090 S 0.92165 0.20849 0.87923 0.0
N8091 N 0.92468 0.20571 0.88921 0.0
N8092 N 0.91451 0.21648 0.88039 0.0
C8093 C 0.91443 0.2173 0.88921 0.0
C8094 C 0.91993 0.21146 0.894 0.0
C8095 C 0.5572 0.16841 0.65278 0.0
C8096 C 0.56555 0.17082 0.64978 0.0
C8097 C 0.55178 0.16293 0.64784 0.0
C8098 C 0.55454 0.15961 0.63975 0.0
H8099 H 0.55507 0.17034 0.65924 0.0
H8100 H 0.54576 0.16064 0.65074 0.0
S8101 S 0.57518 0.16485 0.62839 0.0
N8102 N 0.57584 0.1702 0.63772 0.0
N8103 N 0.56563 0.15989 0.62849 0.0
C8104 C 0.56249 0.16258 0.63633 0.0
C8105 C 0.568 0.1682 0.64133 0.0
C8106 C 0.60831 0.8194 0.39199 0.0
C8107 C 0.60435 0.81638 0.39968 0.0
C8108 C 0.61397 0.81404 0.3872 0.0
C8109 C 0.61587 0.80546 0.38994 0.0
H8110 H 0.6076 0.82617 0.39008 0.0
H8111 H 0.61747 0.81685 0.38174 0.0
S8112 S 0.60597 0.79409 0.40884 0.0
N8113 N 0.60179 0.80402 0.4092 0.0
N8114 N 0.61241 0.79389 0.4002 0.0
C8115 C 0.61124 0.80211 0.39711 0.0
C8116 C 0.60552 0.8076 0.40201 0.0
C8117 C 0.9672 0.85697 0.15211 0.0
C8118 C 0.95869 0.85499 0.14928 0.0
C8119 C 0.97267 0.86245 0.14723 0.0
C8120 C 0.96982 0.86618 0.13935 0.0
H8121 H 0.96943 0.85474 0.15843 0.0
H8122 H 0.97884 0.86442 0.15004 0.0
S8123 S 0.9487 0.86206 0.12839 0.0
N8124 N 0.94811 0.8564 0.13754 0.0
N8125 N 0.95843 0.86667 0.12839 0.0
C8126 C 0.96168 0.86359 0.13604 0.0
C8127 C 0.9561 0.858 0.14099 0.0
C8128 C 0.63299 0.91841 0.81812 0.0
C8129 C 0.62432 0.92046 0.81592 0.0
C8130 C 0.63811 0.91312 0.81266 0.0
C8131 C 0.63479 0.90979 0.80476 0.0
H8132 H 0.63557 0.92025 0.82443 0.0
H8133 H 0.64443 0.91097 0.81499 0.0
S8134 S 0.61305 0.91446 0.79537 0.0
N8135 N 0.61309 0.91975 0.80476 0.0
N8136 N 0.62271 0.90977 0.79457 0.0
C8137 C 0.62648 0.91254 0.80209 0.0
C8138 C 0.62124 0.91786 0.80767 0.0
C8139 C 0.86008 0.86999 0.55913 0.0
C8140 C 0.8554 0.87396 0.56596 0.0
C8141 C 0.86526 0.87494 0.55345 0.0
C8142 C 0.86598 0.88402 0.55441 0.0
H8143 H 0.86019 0.86295 0.55852 0.0
H8144 H 0.86931 0.87155 0.54875 0.0
S8145 S 0.85422 0.89769 0.57048 0.0
N8146 N 0.85108 0.88763 0.57275 0.0
N8147 N 0.86097 0.8969 0.56211 0.0
C8148 C 0.86081 0.88815 0.56074 0.0
C8149 C 0.85546 0.88312 0.5665 0.0
C8150 C 0.89195 0.10934 0.31895 0.0
C8151 C 0.89941 0.10501 0.31589 0.0
C8152 C 0.88735 0.11512 0.31355 0.0
C8153 C 0.89008 0.11681 0.30493 0.0
H8154 H 0.89011 0.10883 0.32575 0.0
H8155 H 0.88209 0.11889 0.31639 0.0
S8156 S 0.90839 0.10599 0.29349 0.0
N8157 N 0.90868 0.1019 0.30346 0.0
N8158 N 0.90004 0.1128 0.29329 0.0
C8159 C 0.897 0.11184 0.30156 0.0
C8160 C 0.9017 0.10596 0.30707 0.0
C8161 C 0.66824 0.15236 0.05749 0.0
C8162 C 0.67031 0.14967 0.06603 0.0
C8163 C 0.66262 0.14743 0.0522 0.0
C8164 C 0.65883 0.13968 0.0553 0.0
H8165 H 0.67053 0.15859 0.05509 0.0
H8166 H 0.6606 0.15011 0.04598 0.0
S8167 S 0.66299 0.12922 0.07669 0.0
N8168 N 0.66882 0.13827 0.07696 0.0
N8169 N 0.65828 0.12904 0.06701 0.0
C8170 C 0.66146 0.13654 0.0635 0.0
C8171 C 0.6672 0.14152 0.06888 0.0
C8172 C 0.62018 0.10843 0.71875 0.0
C8173 C 0.62388 0.10466 0.71122 0.0
C8174 C 0.62512 0.11373 0.72433 0.0
C8175 C 0.63393 0.11547 0.72258 0.0
H8176 H 0.61325 0.10781 0.71997 0.0
H8177 H 0.6218 0.1172 0.72952 0.0
S8178 S 0.64707 0.10617 0.70458 0.0
N8179 N 0.6372 0.10218 0.70299 0.0
N8180 N 0.64643 0.11223 0.71348 0.0
C8181 C 0.63792 0.11107 0.71561 0.0
C8182 C 0.63291 0.10562 0.70994 0.0
C8183 C 0.66105 0.8684 0.46507 0.0
C8184 C 0.6691 0.87204 0.46264 0.0
C8185 C 0.65501 0.87311 0.46999 0.0
C8186 C 0.65665 0.88175 0.47263 0.0
H8187 H 0.65914 0.86201 0.46272 0.0
H8188 H 0.64873 0.87014 0.47129 0.0
S8189 S 0.67726 0.89385 0.46926 0.0
N8190 N 0.67888 0.88443 0.46427 0.0
N8191 N 0.66731 0.89343 0.47336 0.0
C8192 C 0.6649 0.88529 0.47083 0.0
C8193 C 0.67114 0.88043 0.46582 0.0
C8194 C 0.89121 0.91716 0.20673 0.0
C8195 C 0.89913 0.92073 0.20965 0.0
C8196 C 0.88632 0.91154 0.21206 0.0
C8197 C 0.88916 0.90935 0.22053 0.0
H8198 H 0.88914 0.9181 0.20004 0.0
H8199 H 0.88068 0.90832 0.2093 0.0
S8200 S 0.90862 0.91822 0.23176 0.0
N8201 N 0.90891 0.92269 0.22196 0.0
N8202 N 0.89979 0.91206 0.23194 0.0
C8203 C 0.89658 0.91358 0.22382 0.0
C8204 C 0.90157 0.91927 0.21838 0.0
C8205 C 0.86378 0.15792 0.96546 0.0
C8206 C 0.85607 0.15399 0.96241 0.0
C8207 C 0.86977 0.1533 0.97055 0.0
C8208 C 0.86838 0.1445 0.97279 0.0
H8209 H 0.86549 0.16447 0.96346 0.0
H8210 H 0.87585 0.15646 0.97228 0.0
S8211 S 0.84868 0.13153 0.96767 0.0
N8212 N 0.84686 0.14107 0.96299 0.0
N8213 N 0.85833 0.1323 0.9724 0.0
C8214 C 0.86045 0.14065 0.97036 0.0
C8215 C 0.85427 0.14539 0.96518 0.0
C8216 C 0.80639 0.6211 0.9177 0.0
C8217 C 0.81398 0.62472 0.92142 0.0
C8218 C 0.80085 0.62611 0.91241 0.0
C8219 C 0.80269 0.63491 0.91064 0.0
H8220 H 0.80509 0.61419 0.91835 0.0
H8221 H 0.79561 0.62285 0.90897 0.0
S8222 S 0.8209 0.64784 0.91978 0.0
N8223 N 0.82239 0.63795 0.92379 0.0
N8224 N 0.81196 0.6473 0.9138 0.0
C8225 C 0.80972 0.63882 0.91501 0.0
C8226 C 0.81537 0.63374 0.92042 0.0
C8227 C 0.30783 0.9036 0.10804 0.0
C8228 C 0.31644 0.90103 0.10611 0.0
C8229 C 0.30258 0.89872 0.11375 0.0
C8230 C 0.30579 0.89113 0.11776 0.0
H8231 H 0.30533 0.90972 0.10554 0.0
H8232 H 0.29628 0.90131 0.11562 0.0
S8233 S 0.32743 0.88104 0.11417 0.0
N8234 N 0.32758 0.88992 0.10807 0.0
N8235 N 0.3177 0.88078 0.11876 0.0
C8236 C 0.31408 0.8881 0.11532 0.0
C8237 C 0.31941 0.89304 0.1095 0.0
C8238 C 0.88136 0.56496 0.85706 0.0
C8239 C 0.87219 0.56474 0.85706 0.0
C8240 C 0.88621 0.55932 0.86244 0.0
C8241 C 0.88203 0.55318 0.86784 0.0
H8242 H 0.88476 0.57001 0.85347 0.0
H8243 H 0.89319 0.56025 0.86293 0.0
S8244 S 0.85827 0.54934 0.86942 0.0
N8245 N 0.85921 0.55736 0.86229 0.0
N8246 N 0.86831 0.54673 0.87229 0.0
C8247 C 0.87294 0.55241 0.8673 0.0
C8248 C 0.86802 0.55819 0.86193 0.0
C8249 C 0.21728 0.1209 0.60963 0.0
C8250 C 0.21033 0.12484 0.60511 0.0
C8251 C 0.22294 0.12584 0.61483 0.0
C8252 C 0.22183 0.13489 0.61576 0.0
H8253 H 0.21794 0.11386 0.60966 0.0
H8254 H 0.22766 0.12243 0.61884 0.0
S8255 S 0.2055 0.14852 0.60435 0.0
N8256 N 0.20336 0.13848 0.60105 0.0
N8257 N 0.21393 0.14773 0.61102 0.0
C8258 C 0.21543 0.13901 0.61068 0.0
C8259 C 0.20971 0.13399 0.60528 0.0
C8260 C 0.14209 0.95802 0.85862 0.0
C8261 C 0.15014 0.96085 0.85527 0.0
C8262 C 0.13729 0.96325 0.86439 0.0
C8263 C 0.14033 0.97152 0.86697 0.0
H8264 H 0.13983 0.95144 0.85738 0.0
H8265 H 0.13153 0.96051 0.86744 0.0
S8266 S 0.16018 0.98257 0.85882 0.0
N8267 N 0.16027 0.97297 0.85393 0.0
N8268 N 0.15128 0.98273 0.86489 0.0
C8269 C 0.14789 0.97477 0.86299 0.0
C8270 C 0.1528 0.96944 0.85712 0.0
C8271 C 0.70701 0.39287 0.4173 0.0
C8272 C 0.70991 0.40083 0.42079 0.0
C8273 C 0.71227 0.38804 0.41157 0.0
C8274 C 0.72065 0.39098 0.40918 0.0
H8275 H 0.70037 0.39074 0.41841 0.0
H8276 H 0.7095 0.38237 0.4084 0.0
S8277 S 0.73178 0.41061 0.41775 0.0
N8278 N 0.72206 0.41084 0.42238 0.0
N8279 N 0.73198 0.40173 0.41164 0.0
C8280 C 0.72394 0.39845 0.41332 0.0
C8281 C 0.71854 0.4034 0.4191 0.0
C8282 C 0.8706 0.46859 0.66733 0.0
C8283 C 0.87394 0.46054 0.67028 0.0
C8284 C 0.87546 0.47403 0.66178 0.0
C8285 C 0.88384 0.47161 0.65899 0.0
H8286 H 0.86396 0.47043 0.66885 0.0
H8287 H 0.87235 0.47975 0.65904 0.0
S8288 S 0.89606 0.45188 0.66568 0.0
N8289 N 0.88656 0.45094 0.67068 0.0
N8290 N 0.89565 0.46119 0.66028 0.0
C8291 C 0.88756 0.46401 0.6625 0.0
C8292 C 0.88263 0.45847 0.66816 0.0
C8293 C 0.64412 0.56316 0.17036 0.0
C8294 C 0.65215 0.56688 0.16788 0.0
C8295 C 0.63922 0.55805 0.16446 0.0
C8296 C 0.64219 0.5566 0.15589 0.0
H8297 H 0.64155 0.56432 0.17684 0.0
H8298 H 0.63295 0.55551 0.1665 0.0
S8299 S 0.66278 0.56491 0.14622 0.0
N8300 N 0.66273 0.56882 0.15624 0.0
N8301 N 0.65383 0.55901 0.14539 0.0
C8302 C 0.65034 0.56008 0.15348 0.0
C8303 C 0.65522 0.56529 0.15939 0.0
C8304 C 0.60798 0.70556 0.89115 0.0
C8305 C 0.60413 0.70848 0.89894 0.0
C8306 C 0.61347 0.71104 0.88629 0.0
C8307 C 0.61519 0.71964 0.88902 0.0
H8308 H 0.60739 0.69878 0.88923 0.0
H8309 H 0.61699 0.7083 0.88081 0.0
S8310 S 0.6055 0.73081 0.90809 0.0
N8311 N 0.60149 0.72081 0.90852 0.0
N8312 N 0.61178 0.73113 0.89934 0.0
C8313 C 0.6107 0.72288 0.89629 0.0
C8314 C 0.60517 0.71729 0.90128 0.0
C8315 C 0.55901 0.35911 0.15436 0.0
C8316 C 0.56621 0.35523 0.1502 0.0
C8317 C 0.55299 0.36412 0.14967 0.0
C8318 C 0.55396 0.36544 0.14064 0.0
H8319 H 0.55841 0.35884 0.1614 0.0
H8320 H 0.54806 0.3677 0.15325 0.0
S8321 S 0.57085 0.3556 0.12648 0.0
N8322 N 0.57331 0.35211 0.13638 0.0
N8323 N 0.56199 0.36163 0.12755 0.0
C8324 C 0.56058 0.36087 0.13627 0.0
C8325 C 0.56672 0.35573 0.14106 0.0
C8326 C 0.91784 0.30965 0.40173 0.0
C8327 C 0.91935 0.31828 0.39889 0.0
C8328 C 0.91267 0.30388 0.39685 0.0
C8329 C 0.90887 0.30651 0.38894 0.0
H8330 H 0.92021 0.30754 0.40804 0.0
H8331 H 0.91103 0.2976 0.39963 0.0
S8332 S 0.91144 0.32799 0.37818 0.0
N8333 N 0.91715 0.32886 0.38727 0.0
N8334 N 0.9075 0.31796 0.37812 0.0
C8335 C 0.9109 0.31483 0.38568 0.0
C8336 C 0.91614 0.32073 0.39065 0.0
C8337 C 0.96597 0.66706 0.6532 0.0
C8338 C 0.95777 0.66952 0.64984 0.0
C8339 C 0.97174 0.66188 0.64834 0.0
C8340 C 0.96957 0.65904 0.6399 0.0
H8341 H 0.9677 0.6687 0.65985 0.0
H8342 H 0.97761 0.65949 0.65145 0.0
S8343 S 0.94943 0.66433 0.62771 0.0
N8344 N 0.94816 0.66925 0.63721 0.0
N8345 N 0.95909 0.65959 0.62809 0.0
C8346 C 0.96176 0.66203 0.63619 0.0
C8347 C 0.95584 0.66727 0.64114 0.0
C8348 C 0.6085 0.32223 0.63747 0.0
C8349 C 0.60359 0.31888 0.63047 0.0
C8350 C 0.61405 0.31682 0.64232 0.0
C8351 C 0.61487 0.30788 0.64037 0.0
H8352 H 0.60868 0.32919 0.63869 0.0
H8353 H 0.61836 0.3198 0.64706 0.0
S8354 S 0.60202 0.29563 0.62402 0.0
N8355 N 0.59877 0.30584 0.62287 0.0
N8356 N 0.60932 0.2957 0.63194 0.0
C8357 C 0.60926 0.30429 0.63411 0.0
C8358 C 0.60361 0.3098 0.62914 0.0
C8359 C 0.96596 0.35833 0.87337 0.0
C8360 C 0.95795 0.35551 0.87688 0.0
C8361 C 0.97171 0.3635 0.87823 0.0
C8362 C 0.96971 0.36599 0.88682 0.0
H8363 H 0.96751 0.35703 0.86659 0.0
H8364 H 0.97738 0.36622 0.87501 0.0
S8365 S 0.9502 0.35951 0.89947 0.0
N8366 N 0.94878 0.35492 0.88982 0.0
N8367 N 0.95967 0.36461 0.89895 0.0
C8368 C 0.96215 0.36258 0.89069 0.0
C8369 C 0.95626 0.35733 0.88573 0.0
C8370 C 0.91604 0.71694 0.12204 0.0
C8371 C 0.91971 0.70955 0.12606 0.0
C8372 C 0.91096 0.72289 0.12678 0.0
C8373 C 0.90939 0.72169 0.13573 0.0
H8374 H 0.91654 0.71778 0.11504 0.0
H8375 H 0.90754 0.72798 0.12326 0.0
S8376 S 0.91853 0.70417 0.14962 0.0
N8377 N 0.92228 0.70196 0.13975 0.0
N8378 N 0.9127 0.71317 0.14865 0.0
C8379 C 0.91374 0.71485 0.14001 0.0
C8380 C 0.91892 0.70877 0.13518 0.0
C8381 C 0.57116 0.66567 0.38528 0.0
C8382 C 0.5681 0.67056 0.37817 0.0
C8383 C 0.56551 0.66025 0.39002 0.0
C8384 C 0.55662 0.65959 0.38783 0.0
H8385 H 0.57807 0.66546 0.38672 0.0
H8386 H 0.56825 0.65599 0.39495 0.0
S8387 S 0.54524 0.67205 0.37058 0.0
N8388 N 0.55552 0.67517 0.36977 0.0
N8389 N 0.54488 0.66502 0.37874 0.0
C8390 C 0.55336 0.66506 0.38126 0.0
C8391 C 0.55912 0.67053 0.37639 0.0
C8392 C 0.90459 0.61127 0.71588 0.0
C8393 C 0.90024 0.60638 0.70945 0.0
C8394 C 0.89996 0.61634 0.72191 0.0
C8395 C 0.89081 0.61674 0.72173 0.0
H8396 H 0.91164 0.61168 0.71584 0.0
H8397 H 0.90359 0.6206 0.72623 0.0
S8398 S 0.87631 0.60425 0.70699 0.0
N8399 N 0.88625 0.60145 0.70391 0.0
N8400 N 0.87754 0.6111 0.71523 0.0
C8401 C 0.88636 0.61125 0.71589 0.0
C8402 C 0.89109 0.60604 0.70974 0.0
C8403 C 0.66821 0.64115 0.95875 0.0
C8404 C 0.66916 0.65021 0.95987 0.0
C8405 C 0.66304 0.63621 0.96452 0.0
C8406 C 0.65878 0.64018 0.97162 0.0
H8407 H 0.6708 0.63801 0.95297 0.0
H8408 H 0.6617 0.62946 0.96294 0.0
S8409 S 0.6603 0.66338 0.97811 0.0
N8410 N 0.66631 0.6627 0.96919 0.0
N8411 N 0.65665 0.65343 0.97997 0.0
C8412 C 0.66041 0.64903 0.97326 0.0
C8413 C 0.66559 0.65405 0.96739 0.0
C8414 C 0.63543 0.41616 0.204 0.0
C8415 C 0.62804 0.42068 0.207 0.0
C8416 C 0.64015 0.41067 0.2096 0.0
C8417 C 0.6377 0.40961 0.21839 0.0
H8418 H 0.6371 0.41626 0.19713 0.0
H8419 H 0.64528 0.40666 0.20686 0.0
S8420 S 0.61981 0.42117 0.22973 0.0
N8421 N 0.6192 0.42464 0.21953 0.0
N8422 N 0.62814 0.41435 0.23006 0.0
C8423 C 0.63089 0.41476 0.22165 0.0
C8424 C 0.62603 0.42029 0.21594 0.0
C8425 C 0.86086 0.38528 0.45376 0.0
C8426 C 0.85489 0.37922 0.45718 0.0
C8427 C 0.86652 0.3899 0.45923 0.0
C8428 C 0.86643 0.38866 0.46834 0.0
H8429 H 0.86164 0.38596 0.44676 0.0
H8430 H 0.87146 0.39399 0.45627 0.0
S8431 S 0.85086 0.37492 0.48065 0.0
N8432 N 0.8483 0.37326 0.47031 0.0
N8433 N 0.85905 0.38193 0.48061 0.0
C8434 C 0.85992 0.38331 0.4719 0.0
C8435 C 0.85415 0.37856 0.46632 0.0
C8436 C 0.89857 0.41992 0.80985 0.0
C8437 C 0.8959 0.42144 0.81852 0.0
C8438 C 0.89357 0.41477 0.80417 0.0
C8439 C 0.88573 0.41096 0.80696 0.0
H8440 H 0.90489 0.42218 0.80766 0.0
H8441 H 0.8963 0.41302 0.79789 0.0
S8442 S 0.8752 0.41392 0.8285 0.0
N8443 N 0.88435 0.41954 0.82922 0.0
N8444 N 0.875 0.40986 0.81851 0.0
C8445 C 0.88255 0.41316 0.81527 0.0
C8446 C 0.88763 0.41841 0.82106 0.0
C8447 C 0.85658 0.64135 0.06808 0.0
C8448 C 0.85539 0.65036 0.06674 0.0
C8449 C 0.86171 0.63636 0.06232 0.0
C8450 C 0.86569 0.6402 0.05499 0.0
H8451 H 0.85419 0.63831 0.07399 0.0
H8452 H 0.86321 0.62967 0.06403 0.0
S8453 S 0.86346 0.66315 0.04786 0.0
N8454 N 0.85769 0.66261 0.05694 0.0
N8455 N 0.86733 0.65324 0.04621 0.0
C8456 C 0.86385 0.64897 0.05316 0.0
C8457 C 0.8587 0.65405 0.05901 0.0
C8458 C 0.62059 0.60924 0.30929 0.0
C8459 C 0.62453 0.60546 0.31668 0.0
C8460 C 0.62539 0.61437 0.30344 0.0
C8461 C 0.63433 0.61585 0.30472 0.0
H8462 H 0.6136 0.60876 0.30837 0.0
H8463 H 0.62194 0.61784 0.29835 0.0
S8464 S 0.64803 0.60649 0.32227 0.0
N8465 N 0.63814 0.60278 0.32437 0.0
N8466 N 0.64715 0.6124 0.3133 0.0
C8467 C 0.63853 0.61142 0.31155 0.0
C8468 C 0.63363 0.60621 0.31756 0.0
C8469 C 0.66699 0.37216 0.55887 0.0
C8470 C 0.67018 0.37586 0.56666 0.0
C8471 C 0.66182 0.37701 0.55308 0.0
C8472 C 0.65972 0.38575 0.55482 0.0
H8473 H 0.66796 0.36529 0.55755 0.0
H8474 H 0.65879 0.37367 0.54763 0.0
S8475 S 0.66734 0.39887 0.57361 0.0
N8476 N 0.6716 0.38911 0.57528 0.0
N8477 N 0.66192 0.39819 0.56433 0.0
C8478 C 0.66354 0.38977 0.56211 0.0
C8479 C 0.66879 0.38483 0.56805 0.0
C8480 C 0.70313 0.89116 0.61154 0.0
C8481 C 0.70615 0.89783 0.60604 0.0
C8482 C 0.7089 0.88644 0.61681 0.0
C8483 C 0.7179 0.88827 0.61682 0.0
H8484 H 0.69619 0.89005 0.61226 0.0
H8485 H 0.70624 0.88185 0.62147 0.0
S8486 S 0.72916 0.90434 0.60276 0.0
N8487 N 0.71875 0.90542 0.6002 0.0
N8488 N 0.72964 0.89655 0.6102 0.0
C8489 C 0.72108 0.89439 0.6108 0.0
C8490 C 0.71518 0.8992 0.6054 0.0
C8491 C 0.21569 0.62526 0.41924 0.0
C8492 C 0.20695 0.62789 0.42024 0.0
C8493 C 0.22152 0.63005 0.41404 0.0
C8494 C 0.21878 0.6376 0.40964 0.0
H8495 H 0.21788 0.61915 0.42204 0.0
H8496 H 0.22795 0.6274 0.41283 0.0
S8497 S 0.19683 0.6476 0.41057 0.0
N8498 N 0.19606 0.63889 0.41687 0.0
N8499 N 0.207 0.64783 0.40706 0.0
C8500 C 0.21027 0.64065 0.4111 0.0
C8501 C 0.20435 0.63581 0.41642 0.0
C8502 C 0.64021 0.9533 0.66471 0.0
C8503 C 0.64681 0.95661 0.67012 0.0
C8504 C 0.6355 0.95882 0.65914 0.0
C8505 C 0.63717 0.96786 0.65885 0.0
H8506 H 0.63917 0.94632 0.66425 0.0
H8507 H 0.63098 0.95592 0.65455 0.0
S8508 S 0.65272 0.97988 0.67285 0.0
N8509 N 0.65401 0.96956 0.67569 0.0
N8510 N 0.64507 0.97997 0.66526 0.0
C8511 C 0.64315 0.97134 0.66484 0.0
C8512 C 0.64801 0.9657 0.67045 0.0
C8513 C 0.30944 0.40461 0.91588 0.0
C8514 C 0.31633 0.40031 0.92014 0.0
C8515 C 0.30339 0.4 0.91085 0.0
C8516 C 0.30401 0.3909 0.90984 0.0
H8517 H 0.30913 0.41168 0.9159 0.0
H8518 H 0.29869 0.40366 0.90703 0.0
S8519 S 0.32005 0.37643 0.92064 0.0
N8520 N 0.32279 0.38634 0.9239 0.0
N8521 N 0.31142 0.37765 0.9143 0.0
C8522 C 0.31033 0.38643 0.91474 0.0
C8523 C 0.3165 0.39114 0.91992 0.0
C8524 C 0.37445 0.55942 0.66865 0.0
C8525 C 0.37714 0.56814 0.66974 0.0
C8526 C 0.37919 0.55359 0.6634 0.0
C8527 C 0.38679 0.5563 0.65907 0.0
H8528 H 0.36833 0.55725 0.67144 0.0
H8529 H 0.37651 0.54718 0.66214 0.0
S8530 S 0.39696 0.57818 0.66022 0.0
N8531 N 0.38824 0.57897 0.66649 0.0
N8532 N 0.39711 0.56802 0.65663 0.0
C8533 C 0.38989 0.56478 0.66061 0.0
C8534 C 0.38508 0.57071 0.66596 0.0
C8535 C 0.80933 0.12119 0.11039 0.0
C8536 C 0.81627 0.12539 0.1061 0.0
C8537 C 0.80339 0.12589 0.1155 0.0
C8538 C 0.80417 0.13497 0.1165 0.0
H8539 H 0.80889 0.11414 0.11035 0.0
H8540 H 0.79867 0.12231 0.11934 0.0
S8541 S 0.82035 0.14921 0.10563 0.0
N8542 N 0.82292 0.13927 0.10234 0.0
N8543 N 0.81174 0.14811 0.11202 0.0
C8544 C 0.81052 0.13935 0.11157 0.0
C8545 C 0.81658 0.13455 0.10634 0.0
C8546 C 0.65325 0.05934 0.85951 0.0
C8547 C 0.6493 0.06693 0.85616 0.0
C8548 C 0.64852 0.05333 0.86451 0.0
C8549 C 0.63963 0.05464 0.86628 0.0
H8550 H 0.66021 0.05836 0.85879 0.0
H8551 H 0.65199 0.04804 0.86764 0.0
S8552 S 0.62593 0.07278 0.85814 0.0
N8553 N 0.63574 0.07491 0.85423 0.0
N8554 N 0.62684 0.06354 0.86362 0.0
C8555 C 0.63541 0.06173 0.86231 0.0
C8556 C 0.64024 0.06789 0.85723 0.0
C8557 C 0.87432 0.9665 0.35664 0.0
C8558 C 0.87717 0.95789 0.35511 0.0
C8559 C 0.8792 0.97228 0.3618 0.0
C8560 C 0.88712 0.96968 0.36556 0.0
H8561 H 0.86799 0.9686 0.35432 0.0
H8562 H 0.87638 0.97854 0.36349 0.0
S8563 S 0.89799 0.94829 0.36283 0.0
N8564 N 0.88887 0.94738 0.35718 0.0
N8565 N 0.89802 0.95831 0.3668 0.0
C8566 C 0.89042 0.9614 0.36346 0.0
C8567 C 0.88546 0.95549 0.35824 0.0
C8568 C 0.41787 0.30668 0.12262 0.0
C8569 C 0.42035 0.31499 0.12569 0.0
C8570 C 0.41223 0.30131 0.12745 0.0
C8571 C 0.40888 0.30406 0.13552 0.0
H8572 H 0.41982 0.30456 0.11617 0.0
H8573 H 0.40985 0.29535 0.12448 0.0
S8574 S 0.41426 0.32458 0.14708 0.0
N8575 N 0.41972 0.32522 0.13781 0.0
N8576 N 0.40921 0.31507 0.14687 0.0
C8577 C 0.41197 0.31194 0.13904 0.0
C8578 C 0.41768 0.31742 0.13414 0.0
C8579 C 0.46724 0.66583 0.86972 0.0
C8580 C 0.46009 0.67006 0.87366 0.0
C8581 C 0.47292 0.66057 0.8746 0.0
C8582 C 0.47167 0.65934 0.88359 0.0
H8583 H 0.46809 0.66611 0.86271 0.0
H8584 H 0.47782 0.6568 0.87117 0.0
S8585 S 0.45474 0.6698 0.89726 0.0
N8586 N 0.45271 0.6734 0.8873 0.0
N8587 N 0.46338 0.66342 0.89642 0.0
C8588 C 0.46505 0.66412 0.88774 0.0
C8589 C 0.45928 0.66952 0.88279 0.0
C8590 C 0.10663 0.71937 0.62262 0.0
C8591 C 0.10442 0.71097 0.62564 0.0
C8592 C 0.11233 0.72476 0.62734 0.0
C8593 C 0.11603 0.72193 0.63522 0.0
H8594 H 0.10442 0.72153 0.61626 0.0
H8595 H 0.11448 0.73082 0.6244 0.0
S8596 S 0.1116 0.70102 0.64649 0.0
N8597 N 0.10572 0.7005 0.63748 0.0
N8598 N 0.11647 0.71063 0.64629 0.0
C8599 C 0.11328 0.71391 0.63869 0.0
C8600 C 0.10746 0.70843 0.63392 0.0
C8601 C 0.06817 0.35865 0.38396 0.0
C8602 C 0.06507 0.35439 0.37646 0.0
C8603 C 0.06287 0.36454 0.38855 0.0
C8604 C 0.05428 0.36635 0.38583 0.0
H8605 H 0.07495 0.35803 0.38584 0.0
H8606 H 0.06577 0.36828 0.39381 0.0
S8607 S 0.04259 0.35551 0.36769 0.0
N8608 N 0.0525 0.35131 0.36734 0.0
N8609 N 0.04255 0.3624 0.37598 0.0
C8610 C 0.05083 0.3614 0.37895 0.0
C8611 C 0.05624 0.35544 0.37424 0.0
C8612 C 0.41738 0.71882 0.40362 0.0
C8613 C 0.41941 0.71031 0.40077 0.0
C8614 C 0.41159 0.72416 0.39893 0.0
C8615 C 0.40762 0.72115 0.39124 0.0
H8616 H 0.41985 0.72115 0.40982 0.0
H8617 H 0.40964 0.73035 0.40172 0.0
S8618 S 0.41139 0.69983 0.38048 0.0
N8619 N 0.41753 0.69949 0.38933 0.0
N8620 N 0.4067 0.70953 0.38054 0.0
C8621 C 0.41015 0.71297 0.38795 0.0
C8622 C 0.41603 0.70755 0.3927 0.0
C8623 C 0.05634 0.66779 0.15466 0.0
C8624 C 0.06433 0.67075 0.15121 0.0
C8625 C 0.0508 0.66235 0.14981 0.0
C8626 C 0.05305 0.65968 0.14134 0.0
H8627 H 0.05465 0.66919 0.16138 0.0
H8628 H 0.04516 0.65954 0.15301 0.0
S8629 S 0.07252 0.66654 0.12882 0.0
N8630 N 0.07366 0.67137 0.13839 0.0
N8631 N 0.06322 0.66115 0.12932 0.0
C8632 C 0.06056 0.66326 0.13751 0.0
C8633 C 0.06621 0.66881 0.14243 0.0
C8634 C 0.1139 0.31175 0.90739 0.0
C8635 C 0.10565 0.31392 0.90404 0.0
C8636 C 0.11982 0.30683 0.90253 0.0
C8637 C 0.11787 0.30397 0.89403 0.0
H8638 H 0.11603 0.31425 0.91364 0.0
H8639 H 0.12622 0.30567 0.9053 0.0
S8640 S 0.09671 0.30668 0.88274 0.0
N8641 N 0.09539 0.31185 0.89211 0.0
N8642 N 0.10675 0.30277 0.88283 0.0
C8643 C 0.10946 0.30554 0.89079 0.0
C8644 C 0.10333 0.31054 0.89581 0.0
C8645 C 0.45904 0.35787 0.64327 0.0
C8646 C 0.46118 0.35567 0.65193 0.0
C8647 C 0.46436 0.36349 0.63836 0.0
C8648 C 0.47207 0.36701 0.64189 0.0
H8649 H 0.45284 0.35588 0.64054 0.0
H8650 H 0.46204 0.36571 0.63207 0.0
S8651 S 0.48135 0.36212 0.66363 0.0
N8652 N 0.47218 0.35649 0.66333 0.0
N8653 N 0.48208 0.36712 0.65411 0.0
C8654 C 0.47471 0.36418 0.65018 0.0
C8655 C 0.46929 0.3585 0.6552 0.0
C8656 C 0.13199 0.41865 0.31563 0.0
C8657 C 0.12284 0.41908 0.31516 0.0
C8658 C 0.13675 0.4132 0.30997 0.0
C8659 C 0.13252 0.40816 0.30357 0.0
H8660 H 0.1354 0.42195 0.32087 0.0
H8661 H 0.14367 0.41236 0.31109 0.0
S8662 S 0.10882 0.40774 0.29907 0.0
N8663 N 0.10985 0.41462 0.3073 0.0
N8664 N 0.1188 0.4045 0.29665 0.0
C8665 C 0.12348 0.40914 0.30257 0.0
C8666 C 0.11864 0.41457 0.30838 0.0
C8667 C 0.35884 0.36958 0.05689 0.0
C8668 C 0.35475 0.37336 0.06421 0.0
C8669 C 0.36436 0.37447 0.05147 0.0
C8670 C 0.36593 0.38333 0.05314 0.0
H8671 H 0.35826 0.36264 0.05571 0.0
H8672 H 0.36801 0.37112 0.04644 0.0
S8673 S 0.35594 0.39668 0.07061 0.0
N8674 N 0.35194 0.38679 0.07219 0.0
N8675 N 0.3623 0.39595 0.06195 0.0
C8676 C 0.36127 0.38739 0.05989 0.0
C8677 C 0.35565 0.38242 0.06543 0.0
C8678 C 0.39432 0.6058 0.8129 0.0
C8679 C 0.40255 0.60812 0.81629 0.0
C8680 C 0.38945 0.6117 0.80777 0.0
C8681 C 0.39264 0.6201 0.80595 0.0
H8682 H 0.39156 0.59947 0.81438 0.0
H8683 H 0.38301 0.60982 0.80556 0.0
S8684 S 0.41376 0.62936 0.81328 0.0
N8685 N 0.41356 0.61945 0.81748 0.0
N8686 N 0.40464 0.6303 0.80766 0.0
C8687 C 0.40098 0.62234 0.80906 0.0
C8688 C 0.40586 0.61643 0.81429 0.0
C8689 C 0.16852 0.65174 0.55776 0.0
C8690 C 0.17058 0.64896 0.56628 0.0
C8691 C 0.16295 0.64684 0.5524 0.0
C8692 C 0.15918 0.63904 0.5554 0.0
H8693 H 0.17073 0.65805 0.55548 0.0
H8694 H 0.16089 0.64961 0.54623 0.0
S8695 S 0.16339 0.62835 0.57667 0.0
N8696 N 0.16919 0.63742 0.57705 0.0
N8697 N 0.15869 0.62825 0.56698 0.0
C8698 C 0.16186 0.63579 0.56355 0.0
C8699 C 0.16756 0.64074 0.569 0.0
C8700 C 0.13395 0.6096 0.20588 0.0
C8701 C 0.12666 0.60507 0.20904 0.0
C8702 C 0.13864 0.61529 0.2113 0.0
C8703 C 0.13615 0.61672 0.22004 0.0
H8704 H 0.13559 0.6093 0.19901 0.0
H8705 H 0.14378 0.61919 0.20841 0.0
S8706 S 0.11833 0.60527 0.23171 0.0
N8707 N 0.11782 0.60145 0.22164 0.0
N8708 N 0.12657 0.6122 0.23185 0.0
C8709 C 0.1294 0.61154 0.22347 0.0
C8710 C 0.12463 0.60573 0.21794 0.0
C8711 C 0.16601 0.37095 0.96743 0.0
C8712 C 0.16982 0.37476 0.95999 0.0
C8713 C 0.16078 0.37584 0.97313 0.0
C8714 C 0.15913 0.38472 0.97157 0.0
H8715 H 0.1666 0.36399 0.96854 0.0
H8716 H 0.15737 0.37247 0.97832 0.0
S8717 S 0.16846 0.39811 0.95378 0.0
N8718 N 0.17237 0.38822 0.95199 0.0
N8719 N 0.1624 0.39736 0.96266 0.0
C8720 C 0.16347 0.38878 0.96461 0.0
C8721 C 0.16887 0.38382 0.95884 0.0
C8722 C 0.39123 0.41642 0.70682 0.0
C8723 C 0.39848 0.42092 0.71014 0.0
C8724 C 0.38662 0.41046 0.71201 0.0
C8725 C 0.38909 0.4088 0.72071 0.0
H8726 H 0.38955 0.41693 0.69997 0.0
H8727 H 0.38155 0.40658 0.70898 0.0
S8728 S 0.40648 0.42025 0.73295 0.0
N8729 N 0.40703 0.42439 0.72301 0.0
N8730 N 0.39843 0.4131 0.73275 0.0
C8731 C 0.39572 0.41395 0.72436 0.0
C8732 C 0.40043 0.42001 0.71906 0.0
C8733 C 0.35812 0.64259 0.45912 0.0
C8734 C 0.35496 0.65083 0.46166 0.0
C8735 C 0.36386 0.63787 0.46448 0.0
C8736 C 0.36653 0.64118 0.47263 0.0
H8737 H 0.35678 0.64012 0.45263 0.0
H8738 H 0.36683 0.63199 0.46193 0.0
S8739 S 0.35901 0.66167 0.48292 0.0
N8740 N 0.35401 0.66148 0.47338 0.0
N8741 N 0.36484 0.65262 0.48339 0.0
C8742 C 0.36276 0.64895 0.4756 0.0
C8743 C 0.35696 0.65379 0.47013 0.0
C8744 C 0.30615 0.1215 0.41878 0.0
C8745 C 0.31447 0.12468 0.42105 0.0
C8746 C 0.3007 0.12611 0.41304 0.0
C8747 C 0.30337 0.13408 0.40939 0.0
H8748 H 0.30409 0.11511 0.42098 0.0
H8749 H 0.29472 0.12306 0.41084 0.0
S8750 S 0.32401 0.14574 0.41391 0.0
N8751 N 0.3247 0.13672 0.41977 0.0
N8752 N 0.31443 0.14536 0.40902 0.0
C8753 C 0.3113 0.13769 0.41219 0.0
C8754 C 0.31685 0.13301 0.41802 0.0
C8755 C 0.81911 0.38986 0.60821 0.0
C8756 C 0.81622 0.39773 0.60452 0.0
C8757 C 0.81367 0.385 0.61377 0.0
C8758 C 0.80518 0.38788 0.61581 0.0
H8759 H 0.82584 0.38786 0.60745 0.0
H8760 H 0.81641 0.37942 0.61713 0.0
S8761 S 0.79418 0.40731 0.60653 0.0
N8762 N 0.80406 0.40756 0.60227 0.0
N8763 N 0.79383 0.39849 0.6127 0.0
C8764 C 0.80195 0.39523 0.61137 0.0
C8765 C 0.8075 0.40018 0.60576 0.0
C8766 C 0.38357 0.06634 0.35654 0.0
C8767 C 0.37445 0.06542 0.35623 0.0
C8768 C 0.38868 0.06083 0.36182 0.0
C8769 C 0.38484 0.05412 0.36677 0.0
H8770 H 0.38668 0.07179 0.3533 0.0
H8771 H 0.39555 0.06227 0.36259 0.0
S8772 S 0.36138 0.04848 0.36748 0.0
N8773 N 0.36192 0.05687 0.36073 0.0
N8774 N 0.37152 0.04648 0.3705 0.0
C8775 C 0.37585 0.05268 0.36588 0.0
C8776 C 0.37065 0.05835 0.36066 0.0
C8777 C 0.71186 0.6192 0.11541 0.0
C8778 C 0.70986 0.62238 0.10704 0.0
C8779 C 0.71688 0.62405 0.12124 0.0
C8780 C 0.72007 0.63238 0.11907 0.0
H8781 H 0.70919 0.61306 0.11766 0.0
H8782 H 0.71799 0.62138 0.1277 0.0
S8783 S 0.71769 0.64328 0.09763 0.0
N8784 N 0.71225 0.63404 0.09653 0.0
N8785 N 0.72159 0.64329 0.10769 0.0
C8786 C 0.71857 0.63549 0.11058 0.0
C8787 C 0.71344 0.63049 0.10455 0.0
C8788 C 0.65732 0.46502 0.36378 0.0
C8789 C 0.65342 0.46186 0.35609 0.0
C8790 C 0.65262 0.47005 0.36976 0.0
C8791 C 0.6438 0.47212 0.36836 0.0
H8792 H 0.66391 0.46315 0.36549 0.0
H8793 H 0.65577 0.47189 0.37582 0.0
S8794 S 0.63086 0.46662 0.34873 0.0
N8795 N 0.64048 0.46211 0.34691 0.0
N8796 N 0.63158 0.47144 0.35835 0.0
C8797 C 0.63997 0.46957 0.36045 0.0
C8798 C 0.64478 0.46444 0.35429 0.0
C8799 C 0.20859 0.89286 0.91785 0.0
C8800 C 0.21099 0.90131 0.92054 0.0
C8801 C 0.21391 0.88802 0.91216 0.0
C8802 C 0.22185 0.89141 0.90907 0.0
H8803 H 0.20224 0.89027 0.91953 0.0
H8804 H 0.21144 0.88193 0.90955 0.0
S8805 S 0.23175 0.91253 0.91524 0.0
N8806 N 0.2224 0.91232 0.92058 0.0
N8807 N 0.2323 0.90323 0.90984 0.0
C8808 C 0.2247 0.89945 0.91237 0.0
C8809 C 0.21929 0.9044 0.91811 0.0
C8810 C 0.38424 0.95615 0.16658 0.0
C8811 C 0.37664 0.9592 0.17066 0.0
C8812 C 0.38901 0.96154 0.16092 0.0
C8813 C 0.38633 0.97016 0.15915 0.0
H8814 H 0.38612 0.94936 0.16722 0.0
H8815 H 0.39443 0.95873 0.15736 0.0
S8816 S 0.36747 0.98149 0.1692 0.0
N8817 N 0.36714 0.97155 0.17335 0.0
N8818 N 0.37608 0.98171 0.16272 0.0
C8819 C 0.37918 0.97349 0.16384 0.0
C8820 C 0.37431 0.96798 0.16956 0.0
C8821 C 0.15359 0.05724 0.66834 0.0
C8822 C 0.15023 0.06522 0.67145 0.0
C8823 C 0.14862 0.05175 0.66296 0.0
C8824 C 0.14011 0.05403 0.66047 0.0
H8825 H 0.16033 0.05553 0.66957 0.0
H8826 H 0.15176 0.04613 0.66002 0.0
S8827 S 0.12779 0.07348 0.66779 0.0
N8828 N 0.13745 0.07456 0.67243 0.0
N8829 N 0.12816 0.06422 0.6623 0.0
C8830 C 0.13638 0.06152 0.66421 0.0
C8831 C 0.14142 0.06712 0.66971 0.0
loop_
_geom_bond_atom_site_label_1
_geom_bond_atom_site_label_2
_geom_bond_distance
_geom_bond_site_symmetry_2
_ccdc_geom_bond_type
C0 C1 1.264 . S
C0 C5 1.479 . S
C0 C10 1.465 . S
C1 C0 1.264 . S
C1 C3 1.339 . S
C1 H28 0.931 . S
C2 C3 1.395 . S
C2 C4 1.320 . S
C3 C1 1.339 . S
C3 C2 1.395 . S
C3 H29 0.929 . S
C4 C2 1.320 . S
C4 C5 1.405 . S
C4 H30 0.930 . S
C5 C0 1.479 . S
C5 C4 1.405 . S
C5 H31 0.931 . S
U6 O7 2.454 . S
U6 O8 2.458 . S
U6 C9 2.984 . S
U6 C10 2.847 . S
U6 C23 2.882 . S
U6 O24 2.441 . S
U6 O25 2.420 . S
U6 O26 2.455 . S
U6 O27 2.449 . S
O7 U6 2.454 . S
O7 C9 1.353 . S
O8 U6 2.458 . S
O8 C9 1.286 . S
C9 U6 2.984 . S
C9 O7 1.353 . S
C9 O8 1.286 . S
C9 C11 1.363 . S
C10 C0 1.465 . S
C10 U6 2.847 . S
C10 O24 1.249 . S
C10 O25 1.202 . S
C11 C9 1.363 . S
C11 C13 1.408 . S
C11 C16 1.342 . S
C12 C13 1.310 . S
C12 C15 1.461 . S
C12 H32 0.932 . S
C13 C11 1.408 . S
C13 C12 1.310 . S
C13 H33 0.930 . S
C14 C15 1.474 . S
C14 C16 1.285 . S
C14 H34 0.929 . S
C15 C12 1.461 . S
C15 C14 1.474 . S
C16 C11 1.342 . S
C16 C14 1.285 . S
C16 H35 0.930 . S
C17 C20 1.424 . S
C17 C22 1.245 . S
C17 C23 1.428 . S
C18 C21 1.260 . S
C18 C22 1.477 . S
C18 H36 0.932 . S
C19 C20 1.384 . S
C19 C21 1.479 . S
C19 H37 0.929 . S
C20 C17 1.424 . S
C20 C19 1.384 . S
C20 H38 0.928 . S
C21 C18 1.260 . S
C21 C19 1.479 . S
C22 C17 1.245 . S
C22 C18 1.477 . S
C22 H39 0.932 . S
C23 U6 2.882 . S
C23 C17 1.428 . S
C23 O26 1.301 . S
C23 O27 1.282 . S
O24 U6 2.441 . S
O24 C10 1.249 . S
O25 U6 2.420 . S
O25 C10 1.202 . S
O26 U6 2.455 . S
O26 C23 1.301 . S
O27 U6 2.449 . S
O27 C23 1.282 . S
H28 C1 0.931 . S
H29 C3 0.929 . S
H30 C4 0.930 . S
H31 C5 0.931 . S
H32 C12 0.932 . S
H33 C13 0.930 . S
H34 C14 0.929 . S
H35 C16 0.930 . S
H36 C18 0.932 . S
H37 C19 0.929 . S
H38 C20 0.928 . S
H39 C22 0.932 . S
C40 C41 1.264 . S
C40 C45 1.479 . S
C40 C50 1.465 . S
C41 C40 1.264 . S
C41 C43 1.339 . S
C41 H68 0.931 . S
C42 C43 1.395 . S
C42 C44 1.320 . S
C43 C41 1.339 . S
C43 C42 1.395 . S
C43 H69 0.929 . S
C44 C42 1.320 . S
C44 C45 1.405 . S
C44 H70 0.930 . S
C45 C40 1.479 . S
C45 C44 1.405 . S
C45 H71 0.931 . S
U46 O47 2.454 . S
U46 O48 2.458 . S
U46 C49 2.984 . S
U46 C50 2.847 . S
U46 C63 2.882 . S
U46 O64 2.441 . S
U46 O65 2.420 . S
U46 O66 2.455 . S
U46 O67 2.449 . S
O47 U46 2.454 . S
O47 C49 1.353 . S
O48 U46 2.458 . S
O48 C49 1.286 . S
C49 U46 2.984 . S
C49 O47 1.353 . S
C49 O48 1.286 . S
C49 C51 1.363 . S
C50 C40 1.465 . S
C50 U46 2.847 . S
C50 O64 1.249 . S
C50 O65 1.202 . S
C51 C49 1.363 . S
C51 C53 1.408 . S
C51 C56 1.342 . S
C52 C53 1.310 . S
C52 C55 1.461 . S
C52 H72 0.932 . S
C53 C51 1.408 . S
C53 C52 1.310 . S
C53 H73 0.930 . S
C54 C55 1.474 . S
C54 C56 1.285 . S
C54 H74 0.929 . S
C55 C52 1.461 . S
C55 C54 1.474 . S
C56 C51 1.342 . S
C56 C54 1.285 . S
C56 H75 0.930 . S
C57 C60 1.424 . S
C57 C62 1.245 . S
C57 C63 1.428 . S
C58 C61 1.260 . S
C58 C62 1.477 . S
C58 H76 0.932 . S
C59 C60 1.384 . S
C59 C61 1.479 . S
C59 H77 0.929 . S
C60 C57 1.424 . S
C60 C59 1.384 . S
C60 H78 0.928 . S
C61 C58 1.260 . S
C61 C59 1.479 . S
C62 C57 1.245 . S
C62 C58 1.477 . S
C62 H79 0.932 . S
C63 U46 2.882 . S
C63 C57 1.428 . S
C63 O66 1.301 . S
C63 O67 1.282 . S
O64 U46 2.441 . S
O64 C50 1.249 . S
O65 U46 2.420 . S
O65 C50 1.202 . S
O66 U46 2.455 . S
O66 C63 1.301 . S
O67 U46 2.449 . S
O67 C63 1.282 . S
H68 C41 0.931 . S
H69 C43 0.929 . S
H70 C44 0.930 . S
H71 C45 0.931 . S
H72 C52 0.932 . S
H73 C53 0.930 . S
H74 C54 0.929 . S
H75 C56 0.930 . S
H76 C58 0.932 . S
H77 C59 0.929 . S
H78 C60 0.928 . S
H79 C62 0.932 . S
C80 C81 1.264 . S
C80 C85 1.479 . S
C80 C90 1.465 . S
C81 C80 1.264 . S
C81 C83 1.339 . S
C81 H108 0.931 . S
C82 C83 1.395 . S
C82 C84 1.320 . S
C83 C81 1.339 . S
C83 C82 1.395 . S
C83 H109 0.929 . S
C84 C82 1.320 . S
C84 C85 1.405 . S
C84 H110 0.930 . S
C85 C80 1.479 . S
C85 C84 1.405 . S
C85 H111 0.931 . S
U86 O87 2.454 . S
U86 O88 2.458 . S
U86 C89 2.984 . S
U86 C90 2.847 . S
U86 C103 2.882 . S
U86 O104 2.441 . S
U86 O105 2.420 . S
U86 O106 2.455 . S
U86 O107 2.449 . S
O87 U86 2.454 . S
O87 C89 1.353 . S
O88 U86 2.458 . S
O88 C89 1.286 . S
C89 U86 2.984 . S
C89 O87 1.353 . S
C89 O88 1.286 . S
C89 C91 1.363 . S
C90 C80 1.465 . S
C90 U86 2.847 . S
C90 O104 1.249 . S
C90 O105 1.202 . S
C91 C89 1.363 . S
C91 C93 1.408 . S
C91 C96 1.342 . S
C92 C93 1.310 . S
C92 C95 1.461 . S
C92 H112 0.932 . S
C93 C91 1.408 . S
C93 C92 1.310 . S
C93 H113 0.930 . S
C94 C95 1.474 . S
C94 C96 1.285 . S
C94 H114 0.929 . S
C95 C92 1.461 . S
C95 C94 1.474 . S
C96 C91 1.342 . S
C96 C94 1.285 . S
C96 H115 0.930 . S
C97 C100 1.424 . S
C97 C102 1.245 . S
C97 C103 1.428 . S
C98 C101 1.260 . S
C98 C102 1.477 . S
C98 H116 0.932 . S
C99 C100 1.384 . S
C99 C101 1.479 . S
C99 H117 0.929 . S
C100 C97 1.424 . S
C100 C99 1.384 . S
C100 H118 0.928 . S
C101 C98 1.260 . S
C101 C99 1.479 . S
C102 C97 1.245 . S
C102 C98 1.477 . S
C102 H119 0.932 . S
C103 U86 2.882 . S
C103 C97 1.428 . S
C103 O106 1.301 . S
C103 O107 1.282 . S
O104 U86 2.441 . S
O104 C90 1.249 . S
O105 U86 2.420 . S
O105 C90 1.202 . S
O106 U86 2.455 . S
O106 C103 1.301 . S
O107 U86 2.449 . S
O107 C103 1.282 . S
H108 C81 0.931 . S
H109 C83 0.929 . S
H110 C84 0.930 . S
H111 C85 0.931 . S
H112 C92 0.932 . S
H113 C93 0.930 . S
H114 C94 0.929 . S
H115 C96 0.930 . S
H116 C98 0.932 . S
H117 C99 0.929 . S
H118 C100 0.928 . S
H119 C102 0.932 . S
C120 C121 1.264 . S
C120 C125 1.479 . S
C120 C130 1.465 . S
C121 C120 1.264 . S
C121 C123 1.339 . S
C121 H148 0.931 . S
C122 C123 1.395 . S
C122 C124 1.320 . S
C123 C121 1.339 . S
C123 C122 1.395 . S
C123 H149 0.929 . S
C124 C122 1.320 . S
C124 C125 1.405 . S
C124 H150 0.930 . S
C125 C120 1.479 . S
C125 C124 1.405 . S
C125 H151 0.931 . S
U126 O127 2.454 . S
U126 O128 2.458 . S
U126 C129 2.984 . S
U126 C130 2.847 . S
U126 C143 2.882 . S
U126 O144 2.441 . S
U126 O145 2.420 . S
U126 O146 2.455 . S
U126 O147 2.449 . S
O127 U126 2.454 . S
O127 C129 1.353 . S
O128 U126 2.458 . S
O128 C129 1.286 . S
C129 U126 2.984 . S
C129 O127 1.353 . S
C129 O128 1.286 . S
C129 C131 1.363 . S
C130 C120 1.465 . S
C130 U126 2.847 . S
C130 O144 1.249 . S
C130 O145 1.202 . S
C131 C129 1.363 . S
C131 C133 1.408 . S
C131 C136 1.342 . S
C132 C133 1.310 . S
C132 C135 1.461 . S
C132 H152 0.932 . S
C133 C131 1.408 . S
C133 C132 1.310 . S
C133 H153 0.930 . S
C134 C135 1.474 . S
C134 C136 1.285 . S
C134 H154 0.929 . S
C135 C132 1.461 . S
C135 C134 1.474 . S
C136 C131 1.342 . S
C136 C134 1.285 . S
C136 H155 0.930 . S
C137 C140 1.424 . S
C137 C142 1.245 . S
C137 C143 1.428 . S
C138 C141 1.260 . S
C138 C142 1.477 . S
C138 H156 0.932 . S
C139 C140 1.384 . S
C139 C141 1.479 . S
C139 H157 0.929 . S
C140 C137 1.424 . S
C140 C139 1.384 . S
C140 H158 0.928 . S
C141 C138 1.260 . S
C141 C139 1.479 . S
C142 C137 1.245 . S
C142 C138 1.477 . S
C142 H159 0.932 . S
C143 U126 2.882 . S
C143 C137 1.428 . S
C143 O146 1.301 . S
C143 O147 1.282 . S
O144 U126 2.441 . S
O144 C130 1.249 . S
O145 U126 2.420 . S
O145 C130 1.202 . S
O146 U126 2.455 . S
O146 C143 1.301 . S
O147 U126 2.449 . S
O147 C143 1.282 . S
H148 C121 0.931 . S
H149 C123 0.929 . S
H150 C124 0.930 . S
H151 C125 0.931 . S
H152 C132 0.932 . S
H153 C133 0.930 . S
H154 C134 0.929 . S
H155 C136 0.930 . S
H156 C138 0.932 . S
H157 C139 0.929 . S
H158 C140 0.928 . S
H159 C142 0.932 . S
C160 C161 1.264 . S
C160 C165 1.479 . S
C160 C170 1.465 . S
C161 C160 1.264 . S
C161 C163 1.339 . S
C161 H188 0.931 . S
C162 C163 1.395 . S
C162 C164 1.320 . S
C163 C161 1.339 . S
C163 C162 1.395 . S
C163 H189 0.929 . S
C164 C162 1.320 . S
C164 C165 1.405 . S
C164 H190 0.930 . S
C165 C160 1.479 . S
C165 C164 1.405 . S
C165 H191 0.931 . S
U166 O167 2.454 . S
U166 O168 2.458 . S
U166 C169 2.984 . S
U166 C170 2.847 . S
U166 C183 2.882 . S
U166 O184 2.441 . S
U166 O185 2.420 . S
U166 O186 2.455 . S
U166 O187 2.449 . S
O167 U166 2.454 . S
O167 C169 1.353 . S
O168 U166 2.458 . S
O168 C169 1.286 . S
C169 U166 2.984 . S
C169 O167 1.353 . S
C169 O168 1.286 . S
C169 C171 1.363 . S
C170 C160 1.465 . S
C170 U166 2.847 . S
C170 O184 1.249 . S
C170 O185 1.202 . S
C171 C169 1.363 . S
C171 C173 1.408 . S
C171 C176 1.342 . S
C172 C173 1.310 . S
C172 C175 1.461 . S
C172 H192 0.932 . S
C173 C171 1.408 . S
C173 C172 1.310 . S
C173 H193 0.930 . S
C174 C175 1.474 . S
C174 C176 1.285 . S
C174 H194 0.929 . S
C175 C172 1.461 . S
C175 C174 1.474 . S
C176 C171 1.342 . S
C176 C174 1.285 . S
C176 H195 0.930 . S
C177 C180 1.424 . S
C177 C182 1.245 . S
C177 C183 1.428 . S
C178 C181 1.260 . S
C178 C182 1.477 . S
C178 H196 0.932 . S
C179 C180 1.384 . S
C179 C181 1.479 . S
C179 H197 0.929 . S
C180 C177 1.424 . S
C180 C179 1.384 . S
C180 H198 0.928 . S
C181 C178 1.260 . S
C181 C179 1.479 . S
C182 C177 1.245 . S
C182 C178 1.477 . S
C182 H199 0.932 . S
C183 U166 2.882 . S
C183 C177 1.428 . S
C183 O186 1.301 . S
C183 O187 1.282 . S
O184 U166 2.441 . S
O184 C170 1.249 . S
O185 U166 2.420 . S
O185 C170 1.202 . S
O186 U166 2.455 . S
O186 C183 1.301 . S
O187 U166 2.449 . S
O187 C183 1.282 . S
H188 C161 0.931 . S
H189 C163 0.929 . S
H190 C164 0.930 . S
H191 C165 0.931 . S
H192 C172 0.932 . S
H193 C173 0.930 . S
H194 C174 0.929 . S
H195 C176 0.930 . S
H196 C178 0.932 . S
H197 C179 0.929 . S
H198 C180 0.928 . S
H199 C182 0.932 . S
C200 C201 1.264 . S
C200 C205 1.479 . S
C200 C210 1.465 . S
C201 C200 1.264 . S
C201 C203 1.339 . S
C201 H228 0.931 . S
C202 C203 1.395 . S
C202 C204 1.320 . S
C203 C201 1.339 . S
C203 C202 1.395 . S
C203 H229 0.929 . S
C204 C202 1.320 . S
C204 C205 1.405 . S
C204 H230 0.930 . S
C205 C200 1.479 . S
C205 C204 1.405 . S
C205 H231 0.931 . S
U206 O207 2.454 . S
U206 O208 2.458 . S
U206 C209 2.984 . S
U206 C210 2.847 . S
U206 C223 2.882 . S
U206 O224 2.441 . S
U206 O225 2.420 . S
U206 O226 2.455 . S
U206 O227 2.449 . S
O207 U206 2.454 . S
O207 C209 1.353 . S
O208 U206 2.458 . S
O208 C209 1.286 . S
C209 U206 2.984 . S
C209 O207 1.353 . S
C209 O208 1.286 . S
C209 C211 1.363 . S
C210 C200 1.465 . S
C210 U206 2.847 . S
C210 O224 1.249 . S
C210 O225 1.202 . S
C211 C209 1.363 . S
C211 C213 1.408 . S
C211 C216 1.342 . S
C212 C213 1.310 . S
C212 C215 1.461 . S
C212 H232 0.932 . S
C213 C211 1.408 . S
C213 C212 1.310 . S
C213 H233 0.930 . S
C214 C215 1.474 . S
C214 C216 1.285 . S
C214 H234 0.929 . S
C215 C212 1.461 . S
C215 C214 1.474 . S
C216 C211 1.342 . S
C216 C214 1.285 . S
C216 H235 0.930 . S
C217 C220 1.424 . S
C217 C222 1.245 . S
C217 C223 1.428 . S
C218 C221 1.260 . S
C218 C222 1.477 . S
C218 H236 0.932 . S
C219 C220 1.384 . S
C219 C221 1.479 . S
C219 H237 0.929 . S
C220 C217 1.424 . S
C220 C219 1.384 . S
C220 H238 0.928 . S
C221 C218 1.260 . S
C221 C219 1.479 . S
C222 C217 1.245 . S
C222 C218 1.477 . S
C222 H239 0.932 . S
C223 U206 2.882 . S
C223 C217 1.428 . S
C223 O226 1.301 . S
C223 O227 1.282 . S
O224 U206 2.441 . S
O224 C210 1.249 . S
O225 U206 2.420 . S
O225 C210 1.202 . S
O226 U206 2.455 . S
O226 C223 1.301 . S
O227 U206 2.449 . S
O227 C223 1.282 . S
H228 C201 0.931 . S
H229 C203 0.929 . S
H230 C204 0.930 . S
H231 C205 0.931 . S
H232 C212 0.932 . S
H233 C213 0.930 . S
H234 C214 0.929 . S
H235 C216 0.930 . S
H236 C218 0.932 . S
H237 C219 0.929 . S
H238 C220 0.928 . S
H239 C222 0.932 . S
C240 C241 1.264 . S
C240 C245 1.479 . S
C240 C250 1.465 . S
C241 C240 1.264 . S
C241 C243 1.339 . S
C241 H268 0.931 . S
C242 C243 1.395 . S
C242 C244 1.320 . S
C243 C241 1.339 . S
C243 C242 1.395 . S
C243 H269 0.929 . S
C244 C242 1.320 . S
C244 C245 1.405 . S
C244 H270 0.930 . S
C245 C240 1.479 . S
C245 C244 1.405 . S
C245 H271 0.931 . S
U246 O247 2.454 . S
U246 O248 2.458 . S
U246 C249 2.984 . S
U246 C250 2.847 . S
U246 C263 2.882 . S
U246 O264 2.441 . S
U246 O265 2.420 . S
U246 O266 2.455 . S
U246 O267 2.449 . S
O247 U246 2.454 . S
O247 C249 1.353 . S
O248 U246 2.458 . S
O248 C249 1.286 . S
C249 U246 2.984 . S
C249 O247 1.353 . S
C249 O248 1.286 . S
C249 C251 1.363 . S
C250 C240 1.465 . S
C250 U246 2.847 . S
C250 O264 1.249 . S
C250 O265 1.202 . S
C251 C249 1.363 . S
C251 C253 1.408 . S
C251 C256 1.342 . S
C252 C253 1.310 . S
C252 C255 1.461 . S
C252 H272 0.932 . S
C253 C251 1.408 . S
C253 C252 1.310 . S
C253 H273 0.930 . S
C254 C255 1.474 . S
C254 C256 1.285 . S
C254 H274 0.929 . S
C255 C252 1.461 . S
C255 C254 1.474 . S
C256 C251 1.342 . S
C256 C254 1.285 . S
C256 H275 0.930 . S
C257 C260 1.424 . S
C257 C262 1.245 . S
C257 C263 1.428 . S
C258 C261 1.260 . S
C258 C262 1.477 . S
C258 H276 0.932 . S
C259 C260 1.384 . S
C259 C261 1.479 . S
C259 H277 0.929 . S
C260 C257 1.424 . S
C260 C259 1.384 . S
C260 H278 0.928 . S
C261 C258 1.260 . S
C261 C259 1.479 . S
C262 C257 1.245 . S
C262 C258 1.477 . S
C262 H279 0.932 . S
C263 U246 2.882 . S
C263 C257 1.428 . S
C263 O266 1.301 . S
C263 O267 1.282 . S
O264 U246 2.441 . S
O264 C250 1.249 . S
O265 U246 2.420 . S
O265 C250 1.202 . S
O266 U246 2.455 . S
O266 C263 1.301 . S
O267 U246 2.449 . S
O267 C263 1.282 . S
H268 C241 0.931 . S
H269 C243 0.929 . S
H270 C244 0.930 . S
H271 C245 0.931 . S
H272 C252 0.932 . S
H273 C253 0.930 . S
H274 C254 0.929 . S
H275 C256 0.930 . S
H276 C258 0.932 . S
H277 C259 0.929 . S
H278 C260 0.928 . S
H279 C262 0.932 . S
C280 C281 1.264 . S
C280 C285 1.479 . S
C280 C290 1.465 . S
C281 C280 1.264 . S
C281 C283 1.339 . S
C281 H308 0.931 . S
C282 C283 1.395 . S
C282 C284 1.320 . S
C283 C281 1.339 . S
C283 C282 1.395 . S
C283 H309 0.929 . S
C284 C282 1.320 . S
C284 C285 1.405 . S
C284 H310 0.930 . S
C285 C280 1.479 . S
C285 C284 1.405 . S
C285 H311 0.931 . S
U286 O287 2.454 . S
U286 O288 2.458 . S
U286 C289 2.984 . S
U286 C290 2.847 . S
U286 C303 2.882 . S
U286 O304 2.441 . S
U286 O305 2.420 . S
U286 O306 2.455 . S
U286 O307 2.449 . S
O287 U286 2.454 . S
O287 C289 1.353 . S
O288 U286 2.458 . S
O288 C289 1.286 . S
C289 U286 2.984 . S
C289 O287 1.353 . S
C289 O288 1.286 . S
C289 C291 1.363 . S
C290 C280 1.465 . S
C290 U286 2.847 . S
C290 O304 1.249 . S
C290 O305 1.202 . S
C291 C289 1.363 . S
C291 C293 1.408 . S
C291 C296 1.342 . S
C292 C293 1.310 . S
C292 C295 1.461 . S
C292 H312 0.932 . S
C293 C291 1.408 . S
C293 C292 1.310 . S
C293 H313 0.930 . S
C294 C295 1.474 . S
C294 C296 1.285 . S
C294 H314 0.929 . S
C295 C292 1.461 . S
C295 C294 1.474 . S
C296 C291 1.342 . S
C296 C294 1.285 . S
C296 H315 0.930 . S
C297 C300 1.424 . S
C297 C302 1.245 . S
C297 C303 1.428 . S
C298 C301 1.260 . S
C298 C302 1.477 . S
C298 H316 0.932 . S
C299 C300 1.384 . S
C299 C301 1.479 . S
C299 H317 0.929 . S
C300 C297 1.424 . S
C300 C299 1.384 . S
C300 H318 0.928 . S
C301 C298 1.260 . S
C301 C299 1.479 . S
C302 C297 1.245 . S
C302 C298 1.477 . S
C302 H319 0.932 . S
C303 U286 2.882 . S
C303 C297 1.428 . S
C303 O306 1.301 . S
C303 O307 1.282 . S
O304 U286 2.441 . S
O304 C290 1.249 . S
O305 U286 2.420 . S
O305 C290 1.202 . S
O306 U286 2.455 . S
O306 C303 1.301 . S
O307 U286 2.449 . S
O307 C303 1.282 . S
H308 C281 0.931 . S
H309 C283 0.929 . S
H310 C284 0.930 . S
H311 C285 0.931 . S
H312 C292 0.932 . S
H313 C293 0.930 . S
H314 C294 0.929 . S
H315 C296 0.930 . S
H316 C298 0.932 . S
H317 C299 0.929 . S
H318 C300 0.928 . S
H319 C302 0.932 . S
C320 C321 1.264 . S
C320 C325 1.479 . S
C320 C330 1.465 . S
C321 C320 1.264 . S
C321 C323 1.339 . S
C321 H348 0.931 . S
C322 C323 1.395 . S
C322 C324 1.320 . S
C323 C321 1.339 . S
C323 C322 1.395 . S
C323 H349 0.929 . S
C324 C322 1.320 . S
C324 C325 1.405 . S
C324 H350 0.930 . S
C325 C320 1.479 . S
C325 C324 1.405 . S
C325 H351 0.931 . S
U326 O327 2.454 . S
U326 O328 2.458 . S
U326 C329 2.984 . S
U326 C330 2.847 . S
U326 C343 2.882 . S
U326 O344 2.441 . S
U326 O345 2.420 . S
U326 O346 2.455 . S
U326 O347 2.449 . S
O327 U326 2.454 . S
O327 C329 1.353 . S
O328 U326 2.458 . S
O328 C329 1.286 . S
C329 U326 2.984 . S
C329 O327 1.353 . S
C329 O328 1.286 . S
C329 C331 1.363 . S
C330 C320 1.465 . S
C330 U326 2.847 . S
C330 O344 1.249 . S
C330 O345 1.202 . S
C331 C329 1.363 . S
C331 C333 1.408 . S
C331 C336 1.342 . S
C332 C333 1.310 . S
C332 C335 1.461 . S
C332 H352 0.932 . S
C333 C331 1.408 . S
C333 C332 1.310 . S
C333 H353 0.930 . S
C334 C335 1.474 . S
C334 C336 1.285 . S
C334 H354 0.929 . S
C335 C332 1.461 . S
C335 C334 1.474 . S
C336 C331 1.342 . S
C336 C334 1.285 . S
C336 H355 0.930 . S
C337 C340 1.424 . S
C337 C342 1.245 . S
C337 C343 1.428 . S
C338 C341 1.260 . S
C338 C342 1.477 . S
C338 H356 0.932 . S
C339 C340 1.384 . S
C339 C341 1.479 . S
C339 H357 0.929 . S
C340 C337 1.424 . S
C340 C339 1.384 . S
C340 H358 0.928 . S
C341 C338 1.260 . S
C341 C339 1.479 . S
C342 C337 1.245 . S
C342 C338 1.477 . S
C342 H359 0.932 . S
C343 U326 2.882 . S
C343 C337 1.428 . S
C343 O346 1.301 . S
C343 O347 1.282 . S
O344 U326 2.441 . S
O344 C330 1.249 . S
O345 U326 2.420 . S
O345 C330 1.202 . S
O346 U326 2.455 . S
O346 C343 1.301 . S
O347 U326 2.449 . S
O347 C343 1.282 . S
H348 C321 0.931 . S
H349 C323 0.929 . S
H350 C324 0.930 . S
H351 C325 0.931 . S
H352 C332 0.932 . S
H353 C333 0.930 . S
H354 C334 0.929 . S
H355 C336 0.930 . S
H356 C338 0.932 . S
H357 C339 0.929 . S
H358 C340 0.928 . S
H359 C342 0.932 . S
C360 C361 1.264 . S
C360 C365 1.479 . S
C360 C370 1.465 . S
C361 C360 1.264 . S
C361 C363 1.339 . S
C361 H388 0.931 . S
C362 C363 1.395 . S
C362 C364 1.320 . S
C363 C361 1.339 . S
C363 C362 1.395 . S
C363 H389 0.929 . S
C364 C362 1.320 . S
C364 C365 1.405 . S
C364 H390 0.930 . S
C365 C360 1.479 . S
C365 C364 1.405 . S
C365 H391 0.931 . S
U366 O367 2.454 . S
U366 O368 2.458 . S
U366 C369 2.984 . S
U366 C370 2.847 . S
U366 C383 2.882 . S
U366 O384 2.441 . S
U366 O385 2.420 . S
U366 O386 2.455 . S
U366 O387 2.449 . S
O367 U366 2.454 . S
O367 C369 1.353 . S
O368 U366 2.458 . S
O368 C369 1.286 . S
C369 U366 2.984 . S
C369 O367 1.353 . S
C369 O368 1.286 . S
C369 C371 1.363 . S
C370 C360 1.465 . S
C370 U366 2.847 . S
C370 O384 1.249 . S
C370 O385 1.202 . S
C371 C369 1.363 . S
C371 C373 1.408 . S
C371 C376 1.342 . S
C372 C373 1.310 . S
C372 C375 1.461 . S
C372 H392 0.932 . S
C373 C371 1.408 . S
C373 C372 1.310 . S
C373 H393 0.930 . S
C374 C375 1.474 . S
C374 C376 1.285 . S
C374 H394 0.929 . S
C375 C372 1.461 . S
C375 C374 1.474 . S
C376 C371 1.342 . S
C376 C374 1.285 . S
C376 H395 0.930 . S
C377 C380 1.424 . S
C377 C382 1.245 . S
C377 C383 1.428 . S
C378 C381 1.260 . S
C378 C382 1.477 . S
C378 H396 0.932 . S
C379 C380 1.384 . S
C379 C381 1.479 . S
C379 H397 0.929 . S
C380 C377 1.424 . S
C380 C379 1.384 . S
C380 H398 0.928 . S
C381 C378 1.260 . S
C381 C379 1.479 . S
C382 C377 1.245 . S
C382 C378 1.477 . S
C382 H399 0.932 . S
C383 U366 2.882 . S
C383 C377 1.428 . S
C383 O386 1.301 . S
C383 O387 1.282 . S
O384 U366 2.441 . S
O384 C370 1.249 . S
O385 U366 2.420 . S
O385 C370 1.202 . S
O386 U366 2.455 . S
O386 C383 1.301 . S
O387 U366 2.449 . S
O387 C383 1.282 . S
H388 C361 0.931 . S
H389 C363 0.929 . S
H390 C364 0.930 . S
H391 C365 0.931 . S
H392 C372 0.932 . S
H393 C373 0.930 . S
H394 C374 0.929 . S
H395 C376 0.930 . S
H396 C378 0.932 . S
H397 C379 0.929 . S
H398 C380 0.928 . S
H399 C382 0.932 . S
C400 C401 1.264 . S
C400 C405 1.479 . S
C400 C410 1.465 . S
C401 C400 1.264 . S
C401 C403 1.339 . S
C401 H428 0.931 . S
C402 C403 1.395 . S
C402 C404 1.320 . S
C403 C401 1.339 . S
C403 C402 1.395 . S
C403 H429 0.929 . S
C404 C402 1.320 . S
C404 C405 1.405 . S
C404 H430 0.930 . S
C405 C400 1.479 . S
C405 C404 1.405 . S
C405 H431 0.931 . S
U406 O407 2.454 . S
U406 O408 2.458 . S
U406 C409 2.984 . S
U406 C410 2.847 . S
U406 C423 2.882 . S
U406 O424 2.441 . S
U406 O425 2.420 . S
U406 O426 2.455 . S
U406 O427 2.449 . S
O407 U406 2.454 . S
O407 C409 1.353 . S
O408 U406 2.458 . S
O408 C409 1.286 . S
C409 U406 2.984 . S
C409 O407 1.353 . S
C409 O408 1.286 . S
C409 C411 1.363 . S
C410 C400 1.465 . S
C410 U406 2.847 . S
C410 O424 1.249 . S
C410 O425 1.202 . S
C411 C409 1.363 . S
C411 C413 1.408 . S
C411 C416 1.342 . S
C412 C413 1.310 . S
C412 C415 1.461 . S
C412 H432 0.932 . S
C413 C411 1.408 . S
C413 C412 1.310 . S
C413 H433 0.930 . S
C414 C415 1.474 . S
C414 C416 1.285 . S
C414 H434 0.929 . S
C415 C412 1.461 . S
C415 C414 1.474 . S
C416 C411 1.342 . S
C416 C414 1.285 . S
C416 H435 0.930 . S
C417 C420 1.424 . S
C417 C422 1.245 . S
C417 C423 1.428 . S
C418 C421 1.260 . S
C418 C422 1.477 . S
C418 H436 0.932 . S
C419 C420 1.384 . S
C419 C421 1.479 . S
C419 H437 0.929 . S
C420 C417 1.424 . S
C420 C419 1.384 . S
C420 H438 0.928 . S
C421 C418 1.260 . S
C421 C419 1.479 . S
C422 C417 1.245 . S
C422 C418 1.477 . S
C422 H439 0.932 . S
C423 U406 2.882 . S
C423 C417 1.428 . S
C423 O426 1.301 . S
C423 O427 1.282 . S
O424 U406 2.441 . S
O424 C410 1.249 . S
O425 U406 2.420 . S
O425 C410 1.202 . S
O426 U406 2.455 . S
O426 C423 1.301 . S
O427 U406 2.449 . S
O427 C423 1.282 . S
H428 C401 0.931 . S
H429 C403 0.929 . S
H430 C404 0.930 . S
H431 C405 0.931 . S
H432 C412 0.932 . S
H433 C413 0.930 . S
H434 C414 0.929 . S
H435 C416 0.930 . S
H436 C418 0.932 . S
H437 C419 0.929 . S
H438 C420 0.928 . S
H439 C422 0.932 . S
C440 C441 1.264 . S
C440 C445 1.479 . S
C440 C450 1.465 . S
C441 C440 1.264 . S
C441 C443 1.339 . S
C441 H468 0.931 . S
C442 C443 1.395 . S
C442 C444 1.320 . S
C443 C441 1.339 . S
C443 C442 1.395 . S
C443 H469 0.929 . S
C444 C442 1.320 . S
C444 C445 1.405 . S
C444 H470 0.930 . S
C445 C440 1.479 . S
C445 C444 1.405 . S
C445 H471 0.931 . S
U446 O447 2.454 . S
U446 O448 2.458 . S
U446 C449 2.984 . S
U446 C450 2.847 . S
U446 C463 2.882 . S
U446 O464 2.441 . S
U446 O465 2.420 . S
U446 O466 2.455 . S
U446 O467 2.449 . S
O447 U446 2.454 . S
O447 C449 1.353 . S
O448 U446 2.458 . S
O448 C449 1.286 . S
C449 U446 2.984 . S
C449 O447 1.353 . S
C449 O448 1.286 . S
C449 C451 1.363 . S
C450 C440 1.465 . S
C450 U446 2.847 . S
C450 O464 1.249 . S
C450 O465 1.202 . S
C451 C449 1.363 . S
C451 C453 1.408 . S
C451 C456 1.342 . S
C452 C453 1.310 . S
C452 C455 1.461 . S
C452 H472 0.932 . S
C453 C451 1.408 . S
C453 C452 1.310 . S
C453 H473 0.930 . S
C454 C455 1.474 . S
C454 C456 1.285 . S
C454 H474 0.929 . S
C455 C452 1.461 . S
C455 C454 1.474 . S
C456 C451 1.342 . S
C456 C454 1.285 . S
C456 H475 0.930 . S
C457 C460 1.424 . S
C457 C462 1.245 . S
C457 C463 1.428 . S
C458 C461 1.260 . S
C458 C462 1.477 . S
C458 H476 0.932 . S
C459 C460 1.384 . S
C459 C461 1.479 . S
C459 H477 0.929 . S
C460 C457 1.424 . S
C460 C459 1.384 . S
C460 H478 0.928 . S
C461 C458 1.260 . S
C461 C459 1.479 . S
C462 C457 1.245 . S
C462 C458 1.477 . S
C462 H479 0.932 . S
C463 U446 2.882 . S
C463 C457 1.428 . S
C463 O466 1.301 . S
C463 O467 1.282 . S
O464 U446 2.441 . S
O464 C450 1.249 . S
O465 U446 2.420 . S
O465 C450 1.202 . S
O466 U446 2.455 . S
O466 C463 1.301 . S
O467 U446 2.449 . S
O467 C463 1.282 . S
H468 C441 0.931 . S
H469 C443 0.929 . S
H470 C444 0.930 . S
H471 C445 0.931 . S
H472 C452 0.932 . S
H473 C453 0.930 . S
H474 C454 0.929 . S
H475 C456 0.930 . S
H476 C458 0.932 . S
H477 C459 0.929 . S
H478 C460 0.928 . S
H479 C462 0.932 . S
C480 C481 1.264 . S
C480 C485 1.479 . S
C480 C490 1.465 . S
C481 C480 1.264 . S
C481 C483 1.339 . S
C481 H508 0.931 . S
C482 C483 1.395 . S
C482 C484 1.320 . S
C483 C481 1.339 . S
C483 C482 1.395 . S
C483 H509 0.929 . S
C484 C482 1.320 . S
C484 C485 1.405 . S
C484 H510 0.930 . S
C485 C480 1.479 . S
C485 C484 1.405 . S
C485 H511 0.931 . S
U486 O487 2.454 . S
U486 O488 2.458 . S
U486 C489 2.984 . S
U486 C490 2.847 . S
U486 C503 2.882 . S
U486 O504 2.441 . S
U486 O505 2.420 . S
U486 O506 2.455 . S
U486 O507 2.449 . S
O487 U486 2.454 . S
O487 C489 1.353 . S
O488 U486 2.458 . S
O488 C489 1.286 . S
C489 U486 2.984 . S
C489 O487 1.353 . S
C489 O488 1.286 . S
C489 C491 1.363 . S
C490 C480 1.465 . S
C490 U486 2.847 . S
C490 O504 1.249 . S
C490 O505 1.202 . S
C491 C489 1.363 . S
C491 C493 1.408 . S
C491 C496 1.342 . S
C492 C493 1.310 . S
C492 C495 1.461 . S
C492 H512 0.932 . S
C493 C491 1.408 . S
C493 C492 1.310 . S
C493 H513 0.930 . S
C494 C495 1.474 . S
C494 C496 1.285 . S
C494 H514 0.929 . S
C495 C492 1.461 . S
C495 C494 1.474 . S
C496 C491 1.342 . S
C496 C494 1.285 . S
C496 H515 0.930 . S
C497 C500 1.424 . S
C497 C502 1.245 . S
C497 C503 1.428 . S
C498 C501 1.260 . S
C498 C502 1.477 . S
C498 H516 0.932 . S
C499 C500 1.384 . S
C499 C501 1.479 . S
C499 H517 0.929 . S
C500 C497 1.424 . S
C500 C499 1.384 . S
C500 H518 0.928 . S
C501 C498 1.260 . S
C501 C499 1.479 . S
C502 C497 1.245 . S
C502 C498 1.477 . S
C502 H519 0.932 . S
C503 U486 2.882 . S
C503 C497 1.428 . S
C503 O506 1.301 . S
C503 O507 1.282 . S
O504 U486 2.441 . S
O504 C490 1.249 . S
O505 U486 2.420 . S
O505 C490 1.202 . S
O506 U486 2.455 . S
O506 C503 1.301 . S
O507 U486 2.449 . S
O507 C503 1.282 . S
H508 C481 0.931 . S
H509 C483 0.929 . S
H510 C484 0.930 . S
H511 C485 0.931 . S
H512 C492 0.932 . S
H513 C493 0.930 . S
H514 C494 0.929 . S
H515 C496 0.930 . S
H516 C498 0.932 . S
H517 C499 0.929 . S
H518 C500 0.928 . S
H519 C502 0.932 . S
C520 C521 1.264 . S
C520 C525 1.479 . S
C520 C530 1.465 . S
C521 C520 1.264 . S
C521 C523 1.339 . S
C521 H548 0.931 . S
C522 C523 1.395 . S
C522 C524 1.320 . S
C523 C521 1.339 . S
C523 C522 1.395 . S
C523 H549 0.929 . S
C524 C522 1.320 . S
C524 C525 1.405 . S
C524 H550 0.930 . S
C525 C520 1.479 . S
C525 C524 1.405 . S
C525 H551 0.931 . S
U526 O527 2.454 . S
U526 O528 2.458 . S
U526 C529 2.984 . S
U526 C530 2.847 . S
U526 C543 2.882 . S
U526 O544 2.441 . S
U526 O545 2.420 . S
U526 O546 2.455 . S
U526 O547 2.449 . S
O527 U526 2.454 . S
O527 C529 1.353 . S
O528 U526 2.458 . S
O528 C529 1.286 . S
C529 U526 2.984 . S
C529 O527 1.353 . S
C529 O528 1.286 . S
C529 C531 1.363 . S
C530 C520 1.465 . S
C530 U526 2.847 . S
C530 O544 1.249 . S
C530 O545 1.202 . S
C531 C529 1.363 . S
C531 C533 1.408 . S
C531 C536 1.342 . S
C532 C533 1.310 . S
C532 C535 1.461 . S
C532 H552 0.932 . S
C533 C531 1.408 . S
C533 C532 1.310 . S
C533 H553 0.930 . S
C534 C535 1.474 . S
C534 C536 1.285 . S
C534 H554 0.929 . S
C535 C532 1.461 . S
C535 C534 1.474 . S
C536 C531 1.342 . S
C536 C534 1.285 . S
C536 H555 0.930 . S
C537 C540 1.424 . S
C537 C542 1.245 . S
C537 C543 1.428 . S
C538 C541 1.260 . S
C538 C542 1.477 . S
C538 H556 0.932 . S
C539 C540 1.384 . S
C539 C541 1.479 . S
C539 H557 0.929 . S
C540 C537 1.424 . S
C540 C539 1.384 . S
C540 H558 0.928 . S
C541 C538 1.260 . S
C541 C539 1.479 . S
C542 C537 1.245 . S
C542 C538 1.477 . S
C542 H559 0.932 . S
C543 U526 2.882 . S
C543 C537 1.428 . S
C543 O546 1.301 . S
C543 O547 1.282 . S
O544 U526 2.441 . S
O544 C530 1.249 . S
O545 U526 2.420 . S
O545 C530 1.202 . S
O546 U526 2.455 . S
O546 C543 1.301 . S
O547 U526 2.449 . S
O547 C543 1.282 . S
H548 C521 0.931 . S
H549 C523 0.929 . S
H550 C524 0.930 . S
H551 C525 0.931 . S
H552 C532 0.932 . S
H553 C533 0.930 . S
H554 C534 0.929 . S
H555 C536 0.930 . S
H556 C538 0.932 . S
H557 C539 0.929 . S
H558 C540 0.928 . S
H559 C542 0.932 . S
C560 C561 1.264 . S
C560 C565 1.479 . S
C560 C570 1.465 . S
C561 C560 1.264 . S
C561 C563 1.339 . S
C561 H588 0.931 . S
C562 C563 1.395 . S
C562 C564 1.320 . S
C563 C561 1.339 . S
C563 C562 1.395 . S
C563 H589 0.929 . S
C564 C562 1.320 . S
C564 C565 1.405 . S
C564 H590 0.930 . S
C565 C560 1.479 . S
C565 C564 1.405 . S
C565 H591 0.931 . S
U566 O567 2.454 . S
U566 O568 2.458 . S
U566 C569 2.984 . S
U566 C570 2.847 . S
U566 C583 2.882 . S
U566 O584 2.441 . S
U566 O585 2.420 . S
U566 O586 2.455 . S
U566 O587 2.449 . S
O567 U566 2.454 . S
O567 C569 1.353 . S
O568 U566 2.458 . S
O568 C569 1.286 . S
C569 U566 2.984 . S
C569 O567 1.353 . S
C569 O568 1.286 . S
C569 C571 1.363 . S
C570 C560 1.465 . S
C570 U566 2.847 . S
C570 O584 1.249 . S
C570 O585 1.202 . S
C571 C569 1.363 . S
C571 C573 1.408 . S
C571 C576 1.342 . S
C572 C573 1.310 . S
C572 C575 1.461 . S
C572 H592 0.932 . S
C573 C571 1.408 . S
C573 C572 1.310 . S
C573 H593 0.930 . S
C574 C575 1.474 . S
C574 C576 1.285 . S
C574 H594 0.929 . S
C575 C572 1.461 . S
C575 C574 1.474 . S
C576 C571 1.342 . S
C576 C574 1.285 . S
C576 H595 0.930 . S
C577 C580 1.424 . S
C577 C582 1.245 . S
C577 C583 1.428 . S
C578 C581 1.260 . S
C578 C582 1.477 . S
C578 H596 0.932 . S
C579 C580 1.384 . S
C579 C581 1.479 . S
C579 H597 0.929 . S
C580 C577 1.424 . S
C580 C579 1.384 . S
C580 H598 0.928 . S
C581 C578 1.260 . S
C581 C579 1.479 . S
C582 C577 1.245 . S
C582 C578 1.477 . S
C582 H599 0.932 . S
C583 U566 2.882 . S
C583 C577 1.428 . S
C583 O586 1.301 . S
C583 O587 1.282 . S
O584 U566 2.441 . S
O584 C570 1.249 . S
O585 U566 2.420 . S
O585 C570 1.202 . S
O586 U566 2.455 . S
O586 C583 1.301 . S
O587 U566 2.449 . S
O587 C583 1.282 . S
H588 C561 0.931 . S
H589 C563 0.929 . S
H590 C564 0.930 . S
H591 C565 0.931 . S
H592 C572 0.932 . S
H593 C573 0.930 . S
H594 C574 0.929 . S
H595 C576 0.930 . S
H596 C578 0.932 . S
H597 C579 0.929 . S
H598 C580 0.928 . S
H599 C582 0.932 . S
C600 C601 1.264 . S
C600 C605 1.479 . S
C600 C610 1.465 . S
C601 C600 1.264 . S
C601 C603 1.339 . S
C601 H628 0.931 . S
C602 C603 1.395 . S
C602 C604 1.320 . S
C603 C601 1.339 . S
C603 C602 1.395 . S
C603 H629 0.929 . S
C604 C602 1.320 . S
C604 C605 1.405 . S
C604 H630 0.930 . S
C605 C600 1.479 . S
C605 C604 1.405 . S
C605 H631 0.931 . S
U606 O607 2.454 . S
U606 O608 2.458 . S
U606 C609 2.984 . S
U606 C610 2.847 . S
U606 C623 2.882 . S
U606 O624 2.441 . S
U606 O625 2.420 . S
U606 O626 2.455 . S
U606 O627 2.449 . S
O607 U606 2.454 . S
O607 C609 1.353 . S
O608 U606 2.458 . S
O608 C609 1.286 . S
C609 U606 2.984 . S
C609 O607 1.353 . S
C609 O608 1.286 . S
C609 C611 1.363 . S
C610 C600 1.465 . S
C610 U606 2.847 . S
C610 O624 1.249 . S
C610 O625 1.202 . S
C611 C609 1.363 . S
C611 C613 1.408 . S
C611 C616 1.342 . S
C612 C613 1.310 . S
C612 C615 1.461 . S
C612 H632 0.932 . S
C613 C611 1.408 . S
C613 C612 1.310 . S
C613 H633 0.930 . S
C614 C615 1.474 . S
C614 C616 1.285 . S
C614 H634 0.929 . S
C615 C612 1.461 . S
C615 C614 1.474 . S
C616 C611 1.342 . S
C616 C614 1.285 . S
C616 H635 0.930 . S
C617 C620 1.424 . S
C617 C622 1.245 . S
C617 C623 1.428 . S
C618 C621 1.260 . S
C618 C622 1.477 . S
C618 H636 0.932 . S
C619 C620 1.384 . S
C619 C621 1.479 . S
C619 H637 0.929 . S
C620 C617 1.424 . S
C620 C619 1.384 . S
C620 H638 0.928 . S
C621 C618 1.260 . S
C621 C619 1.479 . S
C622 C617 1.245 . S
C622 C618 1.477 . S
C622 H639 0.932 . S
C623 U606 2.882 . S
C623 C617 1.428 . S
C623 O626 1.301 . S
C623 O627 1.282 . S
O624 U606 2.441 . S
O624 C610 1.249 . S
O625 U606 2.420 . S
O625 C610 1.202 . S
O626 U606 2.455 . S
O626 C623 1.301 . S
O627 U606 2.449 . S
O627 C623 1.282 . S
H628 C601 0.931 . S
H629 C603 0.929 . S
H630 C604 0.930 . S
H631 C605 0.931 . S
H632 C612 0.932 . S
H633 C613 0.930 . S
H634 C614 0.929 . S
H635 C616 0.930 . S
H636 C618 0.932 . S
H637 C619 0.929 . S
H638 C620 0.928 . S
H639 C622 0.932 . S
C640 C641 1.264 . S
C640 C645 1.479 . S
C640 C650 1.465 . S
C641 C640 1.264 . S
C641 C643 1.339 . S
C641 H668 0.931 . S
C642 C643 1.395 . S
C642 C644 1.320 . S
C643 C641 1.339 . S
C643 C642 1.395 . S
C643 H669 0.929 . S
C644 C642 1.320 . S
C644 C645 1.405 . S
C644 H670 0.930 . S
C645 C640 1.479 . S
C645 C644 1.405 . S
C645 H671 0.931 . S
U646 O647 2.454 . S
U646 O648 2.458 . S
U646 C649 2.984 . S
U646 C650 2.847 . S
U646 C663 2.882 . S
U646 O664 2.441 . S
U646 O665 2.420 . S
U646 O666 2.455 . S
U646 O667 2.449 . S
O647 U646 2.454 . S
O647 C649 1.353 . S
O648 U646 2.458 . S
O648 C649 1.286 . S
C649 U646 2.984 . S
C649 O647 1.353 . S
C649 O648 1.286 . S
C649 C651 1.363 . S
C650 C640 1.465 . S
C650 U646 2.847 . S
C650 O664 1.249 . S
C650 O665 1.202 . S
C651 C649 1.363 . S
C651 C653 1.408 . S
C651 C656 1.342 . S
C652 C653 1.310 . S
C652 C655 1.461 . S
C652 H672 0.932 . S
C653 C651 1.408 . S
C653 C652 1.310 . S
C653 H673 0.930 . S
C654 C655 1.474 . S
C654 C656 1.285 . S
C654 H674 0.929 . S
C655 C652 1.461 . S
C655 C654 1.474 . S
C656 C651 1.342 . S
C656 C654 1.285 . S
C656 H675 0.930 . S
C657 C660 1.424 . S
C657 C662 1.245 . S
C657 C663 1.428 . S
C658 C661 1.260 . S
C658 C662 1.477 . S
C658 H676 0.932 . S
C659 C660 1.384 . S
C659 C661 1.479 . S
C659 H677 0.929 . S
C660 C657 1.424 . S
C660 C659 1.384 . S
C660 H678 0.928 . S
C661 C658 1.260 . S
C661 C659 1.479 . S
C662 C657 1.245 . S
C662 C658 1.477 . S
C662 H679 0.932 . S
C663 U646 2.882 . S
C663 C657 1.428 . S
C663 O666 1.301 . S
C663 O667 1.282 . S
O664 U646 2.441 . S
O664 C650 1.249 . S
O665 U646 2.420 . S
O665 C650 1.202 . S
O666 U646 2.455 . S
O666 C663 1.301 . S
O667 U646 2.449 . S
O667 C663 1.282 . S
H668 C641 0.931 . S
H669 C643 0.929 . S
H670 C644 0.930 . S
H671 C645 0.931 . S
H672 C652 0.932 . S
H673 C653 0.930 . S
H674 C654 0.929 . S
H675 C656 0.930 . S
H676 C658 0.932 . S
H677 C659 0.929 . S
H678 C660 0.928 . S
H679 C662 0.932 . S
C680 C681 1.264 . S
C680 C685 1.479 . S
C680 C690 1.465 . S
C681 C680 1.264 . S
C681 C683 1.339 . S
C681 H708 0.931 . S
C682 C683 1.395 . S
C682 C684 1.320 . S
C683 C681 1.339 . S
C683 C682 1.395 . S
C683 H709 0.929 . S
C684 C682 1.320 . S
C684 C685 1.405 . S
C684 H710 0.930 . S
C685 C680 1.479 . S
C685 C684 1.405 . S
C685 H711 0.931 . S
U686 O687 2.454 . S
U686 O688 2.458 . S
U686 C689 2.984 . S
U686 C690 2.847 . S
U686 C703 2.882 . S
U686 O704 2.441 . S
U686 O705 2.420 . S
U686 O706 2.455 . S
U686 O707 2.449 . S
O687 U686 2.454 . S
O687 C689 1.353 . S
O688 U686 2.458 . S
O688 C689 1.286 . S
C689 U686 2.984 . S
C689 O687 1.353 . S
C689 O688 1.286 . S
C689 C691 1.363 . S
C690 C680 1.465 . S
C690 U686 2.847 . S
C690 O704 1.249 . S
C690 O705 1.202 . S
C691 C689 1.363 . S
C691 C693 1.408 . S
C691 C696 1.342 . S
C692 C693 1.310 . S
C692 C695 1.461 . S
C692 H712 0.932 . S
C693 C691 1.408 . S
C693 C692 1.310 . S
C693 H713 0.930 . S
C694 C695 1.474 . S
C694 C696 1.285 . S
C694 H714 0.929 . S
C695 C692 1.461 . S
C695 C694 1.474 . S
C696 C691 1.342 . S
C696 C694 1.285 . S
C696 H715 0.930 . S
C697 C700 1.424 . S
C697 C702 1.245 . S
C697 C703 1.428 . S
C698 C701 1.260 . S
C698 C702 1.477 . S
C698 H716 0.932 . S
C699 C700 1.384 . S
C699 C701 1.479 . S
C699 H717 0.929 . S
C700 C697 1.424 . S
C700 C699 1.384 . S
C700 H718 0.928 . S
C701 C698 1.260 . S
C701 C699 1.479 . S
C702 C697 1.245 . S
C702 C698 1.477 . S
C702 H719 0.932 . S
C703 U686 2.882 . S
C703 C697 1.428 . S
C703 O706 1.301 . S
C703 O707 1.282 . S
O704 U686 2.441 . S
O704 C690 1.249 . S
O705 U686 2.420 . S
O705 C690 1.202 . S
O706 U686 2.455 . S
O706 C703 1.301 . S
O707 U686 2.449 . S
O707 C703 1.282 . S
H708 C681 0.931 . S
H709 C683 0.929 . S
H710 C684 0.930 . S
H711 C685 0.931 . S
H712 C692 0.932 . S
H713 C693 0.930 . S
H714 C694 0.929 . S
H715 C696 0.930 . S
H716 C698 0.932 . S
H717 C699 0.929 . S
H718 C700 0.928 . S
H719 C702 0.932 . S
C720 C721 1.264 . S
C720 C725 1.479 . S
C720 C730 1.465 . S
C721 C720 1.264 . S
C721 C723 1.339 . S
C721 H748 0.931 . S
C722 C723 1.395 . S
C722 C724 1.320 . S
C723 C721 1.339 . S
C723 C722 1.395 . S
C723 H749 0.929 . S
C724 C722 1.320 . S
C724 C725 1.405 . S
C724 H750 0.930 . S
C725 C720 1.479 . S
C725 C724 1.405 . S
C725 H751 0.931 . S
U726 O727 2.454 . S
U726 O728 2.458 . S
U726 C729 2.984 . S
U726 C730 2.847 . S
U726 C743 2.882 . S
U726 O744 2.441 . S
U726 O745 2.420 . S
U726 O746 2.455 . S
U726 O747 2.449 . S
O727 U726 2.454 . S
O727 C729 1.353 . S
O728 U726 2.458 . S
O728 C729 1.286 . S
C729 U726 2.984 . S
C729 O727 1.353 . S
C729 O728 1.286 . S
C729 C731 1.363 . S
C730 C720 1.465 . S
C730 U726 2.847 . S
C730 O744 1.249 . S
C730 O745 1.202 . S
C731 C729 1.363 . S
C731 C733 1.408 . S
C731 C736 1.342 . S
C732 C733 1.310 . S
C732 C735 1.461 . S
C732 H752 0.932 . S
C733 C731 1.408 . S
C733 C732 1.310 . S
C733 H753 0.930 . S
C734 C735 1.474 . S
C734 C736 1.285 . S
C734 H754 0.929 . S
C735 C732 1.461 . S
C735 C734 1.474 . S
C736 C731 1.342 . S
C736 C734 1.285 . S
C736 H755 0.930 . S
C737 C740 1.424 . S
C737 C742 1.245 . S
C737 C743 1.428 . S
C738 C741 1.260 . S
C738 C742 1.477 . S
C738 H756 0.932 . S
C739 C740 1.384 . S
C739 C741 1.479 . S
C739 H757 0.929 . S
C740 C737 1.424 . S
C740 C739 1.384 . S
C740 H758 0.928 . S
C741 C738 1.260 . S
C741 C739 1.479 . S
C742 C737 1.245 . S
C742 C738 1.477 . S
C742 H759 0.932 . S
C743 U726 2.882 . S
C743 C737 1.428 . S
C743 O746 1.301 . S
C743 O747 1.282 . S
O744 U726 2.441 . S
O744 C730 1.249 . S
O745 U726 2.420 . S
O745 C730 1.202 . S
O746 U726 2.455 . S
O746 C743 1.301 . S
O747 U726 2.449 . S
O747 C743 1.282 . S
H748 C721 0.931 . S
H749 C723 0.929 . S
H750 C724 0.930 . S
H751 C725 0.931 . S
H752 C732 0.932 . S
H753 C733 0.930 . S
H754 C734 0.929 . S
H755 C736 0.930 . S
H756 C738 0.932 . S
H757 C739 0.929 . S
H758 C740 0.928 . S
H759 C742 0.932 . S
C760 C761 1.264 . S
C760 C765 1.479 . S
C760 C770 1.465 . S
C761 C760 1.264 . S
C761 C763 1.339 . S
C761 H788 0.931 . S
C762 C763 1.395 . S
C762 C764 1.320 . S
C763 C761 1.339 . S
C763 C762 1.395 . S
C763 H789 0.929 . S
C764 C762 1.320 . S
C764 C765 1.405 . S
C764 H790 0.930 . S
C765 C760 1.479 . S
C765 C764 1.405 . S
C765 H791 0.931 . S
U766 O767 2.454 . S
U766 O768 2.458 . S
U766 C769 2.984 . S
U766 C770 2.847 . S
U766 C783 2.882 . S
U766 O784 2.441 . S
U766 O785 2.420 . S
U766 O786 2.455 . S
U766 O787 2.449 . S
O767 U766 2.454 . S
O767 C769 1.353 . S
O768 U766 2.458 . S
O768 C769 1.286 . S
C769 U766 2.984 . S
C769 O767 1.353 . S
C769 O768 1.286 . S
C769 C771 1.363 . S
C770 C760 1.465 . S
C770 U766 2.847 . S
C770 O784 1.249 . S
C770 O785 1.202 . S
C771 C769 1.363 . S
C771 C773 1.408 . S
C771 C776 1.342 . S
C772 C773 1.310 . S
C772 C775 1.461 . S
C772 H792 0.932 . S
C773 C771 1.408 . S
C773 C772 1.310 . S
C773 H793 0.930 . S
C774 C775 1.474 . S
C774 C776 1.285 . S
C774 H794 0.929 . S
C775 C772 1.461 . S
C775 C774 1.474 . S
C776 C771 1.342 . S
C776 C774 1.285 . S
C776 H795 0.930 . S
C777 C780 1.424 . S
C777 C782 1.245 . S
C777 C783 1.428 . S
C778 C781 1.260 . S
C778 C782 1.477 . S
C778 H796 0.932 . S
C779 C780 1.384 . S
C779 C781 1.479 . S
C779 H797 0.929 . S
C780 C777 1.424 . S
C780 C779 1.384 . S
C780 H798 0.928 . S
C781 C778 1.260 . S
C781 C779 1.479 . S
C782 C777 1.245 . S
C782 C778 1.477 . S
C782 H799 0.932 . S
C783 U766 2.882 . S
C783 C777 1.428 . S
C783 O786 1.301 . S
C783 O787 1.282 . S
O784 U766 2.441 . S
O784 C770 1.249 . S
O785 U766 2.420 . S
O785 C770 1.202 . S
O786 U766 2.455 . S
O786 C783 1.301 . S
O787 U766 2.449 . S
O787 C783 1.282 . S
H788 C761 0.931 . S
H789 C763 0.929 . S
H790 C764 0.930 . S
H791 C765 0.931 . S
H792 C772 0.932 . S
H793 C773 0.930 . S
H794 C774 0.929 . S
H795 C776 0.930 . S
H796 C778 0.932 . S
H797 C779 0.929 . S
H798 C780 0.928 . S
H799 C782 0.932 . S
C800 C801 1.264 . S
C800 C805 1.479 . S
C800 C810 1.465 . S
C801 C800 1.264 . S
C801 C803 1.339 . S
C801 H828 0.931 . S
C802 C803 1.395 . S
C802 C804 1.320 . S
C803 C801 1.339 . S
C803 C802 1.395 . S
C803 H829 0.929 . S
C804 C802 1.320 . S
C804 C805 1.405 . S
C804 H830 0.930 . S
C805 C800 1.479 . S
C805 C804 1.405 . S
C805 H831 0.931 . S
U806 O807 2.454 . S
U806 O808 2.458 . S
U806 C809 2.984 . S
U806 C810 2.847 . S
U806 C823 2.882 . S
U806 O824 2.441 . S
U806 O825 2.420 . S
U806 O826 2.455 . S
U806 O827 2.449 . S
O807 U806 2.454 . S
O807 C809 1.353 . S
O808 U806 2.458 . S
O808 C809 1.286 . S
C809 U806 2.984 . S
C809 O807 1.353 . S
C809 O808 1.286 . S
C809 C811 1.363 . S
C810 C800 1.465 . S
C810 U806 2.847 . S
C810 O824 1.249 . S
C810 O825 1.202 . S
C811 C809 1.363 . S
C811 C813 1.408 . S
C811 C816 1.342 . S
C812 C813 1.310 . S
C812 C815 1.461 . S
C812 H832 0.932 . S
C813 C811 1.408 . S
C813 C812 1.310 . S
C813 H833 0.930 . S
C814 C815 1.474 . S
C814 C816 1.285 . S
C814 H834 0.929 . S
C815 C812 1.461 . S
C815 C814 1.474 . S
C816 C811 1.342 . S
C816 C814 1.285 . S
C816 H835 0.930 . S
C817 C820 1.424 . S
C817 C822 1.245 . S
C817 C823 1.428 . S
C818 C821 1.260 . S
C818 C822 1.477 . S
C818 H836 0.932 . S
C819 C820 1.384 . S
C819 C821 1.479 . S
C819 H837 0.929 . S
C820 C817 1.424 . S
C820 C819 1.384 . S
C820 H838 0.928 . S
C821 C818 1.260 . S
C821 C819 1.479 . S
C822 C817 1.245 . S
C822 C818 1.477 . S
C822 H839 0.932 . S
C823 U806 2.882 . S
C823 C817 1.428 . S
C823 O826 1.301 . S
C823 O827 1.282 . S
O824 U806 2.441 . S
O824 C810 1.249 . S
O825 U806 2.420 . S
O825 C810 1.202 . S
O826 U806 2.455 . S
O826 C823 1.301 . S
O827 U806 2.449 . S
O827 C823 1.282 . S
H828 C801 0.931 . S
H829 C803 0.929 . S
H830 C804 0.930 . S
H831 C805 0.931 . S
H832 C812 0.932 . S
H833 C813 0.930 . S
H834 C814 0.929 . S
H835 C816 0.930 . S
H836 C818 0.932 . S
H837 C819 0.929 . S
H838 C820 0.928 . S
H839 C822 0.932 . S
C840 C841 1.264 . S
C840 C845 1.479 . S
C840 C850 1.465 . S
C841 C840 1.264 . S
C841 C843 1.339 . S
C841 H868 0.931 . S
C842 C843 1.395 . S
C842 C844 1.320 . S
C843 C841 1.339 . S
C843 C842 1.395 . S
C843 H869 0.929 . S
C844 C842 1.320 . S
C844 C845 1.405 . S
C844 H870 0.930 . S
C845 C840 1.479 . S
C845 C844 1.405 . S
C845 H871 0.931 . S
U846 O847 2.454 . S
U846 O848 2.458 . S
U846 C849 2.984 . S
U846 C850 2.847 . S
U846 C863 2.882 . S
U846 O864 2.441 . S
U846 O865 2.420 . S
U846 O866 2.455 . S
U846 O867 2.449 . S
O847 U846 2.454 . S
O847 C849 1.353 . S
O848 U846 2.458 . S
O848 C849 1.286 . S
C849 U846 2.984 . S
C849 O847 1.353 . S
C849 O848 1.286 . S
C849 C851 1.363 . S
C850 C840 1.465 . S
C850 U846 2.847 . S
C850 O864 1.249 . S
C850 O865 1.202 . S
C851 C849 1.363 . S
C851 C853 1.408 . S
C851 C856 1.342 . S
C852 C853 1.310 . S
C852 C855 1.461 . S
C852 H872 0.932 . S
C853 C851 1.408 . S
C853 C852 1.310 . S
C853 H873 0.930 . S
C854 C855 1.474 . S
C854 C856 1.285 . S
C854 H874 0.929 . S
C855 C852 1.461 . S
C855 C854 1.474 . S
C856 C851 1.342 . S
C856 C854 1.285 . S
C856 H875 0.930 . S
C857 C860 1.424 . S
C857 C862 1.245 . S
C857 C863 1.428 . S
C858 C861 1.260 . S
C858 C862 1.477 . S
C858 H876 0.932 . S
C859 C860 1.384 . S
C859 C861 1.479 . S
C859 H877 0.929 . S
C860 C857 1.424 . S
C860 C859 1.384 . S
C860 H878 0.928 . S
C861 C858 1.260 . S
C861 C859 1.479 . S
C862 C857 1.245 . S
C862 C858 1.477 . S
C862 H879 0.932 . S
C863 U846 2.882 . S
C863 C857 1.428 . S
C863 O866 1.301 . S
C863 O867 1.282 . S
O864 U846 2.441 . S
O864 C850 1.249 . S
O865 U846 2.420 . S
O865 C850 1.202 . S
O866 U846 2.455 . S
O866 C863 1.301 . S
O867 U846 2.449 . S
O867 C863 1.282 . S
H868 C841 0.931 . S
H869 C843 0.929 . S
H870 C844 0.930 . S
H871 C845 0.931 . S
H872 C852 0.932 . S
H873 C853 0.930 . S
H874 C854 0.929 . S
H875 C856 0.930 . S
H876 C858 0.932 . S
H877 C859 0.929 . S
H878 C860 0.928 . S
H879 C862 0.932 . S
C880 C881 1.264 . S
C880 C885 1.479 . S
C880 C890 1.465 . S
C881 C880 1.264 . S
C881 C883 1.339 . S
C881 H908 0.931 . S
C882 C883 1.395 . S
C882 C884 1.320 . S
C883 C881 1.339 . S
C883 C882 1.395 . S
C883 H909 0.929 . S
C884 C882 1.320 . S
C884 C885 1.405 . S
C884 H910 0.930 . S
C885 C880 1.479 . S
C885 C884 1.405 . S
C885 H911 0.931 . S
U886 O887 2.454 . S
U886 O888 2.458 . S
U886 C889 2.984 . S
U886 C890 2.847 . S
U886 C903 2.882 . S
U886 O904 2.441 . S
U886 O905 2.420 . S
U886 O906 2.455 . S
U886 O907 2.449 . S
O887 U886 2.454 . S
O887 C889 1.353 . S
O888 U886 2.458 . S
O888 C889 1.286 . S
C889 U886 2.984 . S
C889 O887 1.353 . S
C889 O888 1.286 . S
C889 C891 1.363 . S
C890 C880 1.465 . S
C890 U886 2.847 . S
C890 O904 1.249 . S
C890 O905 1.202 . S
C891 C889 1.363 . S
C891 C893 1.408 . S
C891 C896 1.342 . S
C892 C893 1.310 . S
C892 C895 1.461 . S
C892 H912 0.932 . S
C893 C891 1.408 . S
C893 C892 1.310 . S
C893 H913 0.930 . S
C894 C895 1.474 . S
C894 C896 1.285 . S
C894 H914 0.929 . S
C895 C892 1.461 . S
C895 C894 1.474 . S
C896 C891 1.342 . S
C896 C894 1.285 . S
C896 H915 0.930 . S
C897 C900 1.424 . S
C897 C902 1.245 . S
C897 C903 1.428 . S
C898 C901 1.260 . S
C898 C902 1.477 . S
C898 H916 0.932 . S
C899 C900 1.384 . S
C899 C901 1.479 . S
C899 H917 0.929 . S
C900 C897 1.424 . S
C900 C899 1.384 . S
C900 H918 0.928 . S
C901 C898 1.260 . S
C901 C899 1.479 . S
C902 C897 1.245 . S
C902 C898 1.477 . S
C902 H919 0.932 . S
C903 U886 2.882 . S
C903 C897 1.428 . S
C903 O906 1.301 . S
C903 O907 1.282 . S
O904 U886 2.441 . S
O904 C890 1.249 . S
O905 U886 2.420 . S
O905 C890 1.202 . S
O906 U886 2.455 . S
O906 C903 1.301 . S
O907 U886 2.449 . S
O907 C903 1.282 . S
H908 C881 0.931 . S
H909 C883 0.929 . S
H910 C884 0.930 . S
H911 C885 0.931 . S
H912 C892 0.932 . S
H913 C893 0.930 . S
H914 C894 0.929 . S
H915 C896 0.930 . S
H916 C898 0.932 . S
H917 C899 0.929 . S
H918 C900 0.928 . S
H919 C902 0.932 . S
C920 C921 1.264 . S
C920 C925 1.479 . S
C920 C930 1.465 . S
C921 C920 1.264 . S
C921 C923 1.339 . S
C921 H948 0.931 . S
C922 C923 1.395 . S
C922 C924 1.320 . S
C923 C921 1.339 . S
C923 C922 1.395 . S
C923 H949 0.929 . S
C924 C922 1.320 . S
C924 C925 1.405 . S
C924 H950 0.930 . S
C925 C920 1.479 . S
C925 C924 1.405 . S
C925 H951 0.931 . S
U926 O927 2.454 . S
U926 O928 2.458 . S
U926 C929 2.984 . S
U926 C930 2.847 . S
U926 C943 2.882 . S
U926 O944 2.441 . S
U926 O945 2.420 . S
U926 O946 2.455 . S
U926 O947 2.449 . S
O927 U926 2.454 . S
O927 C929 1.353 . S
O928 U926 2.458 . S
O928 C929 1.286 . S
C929 U926 2.984 . S
C929 O927 1.353 . S
C929 O928 1.286 . S
C929 C931 1.363 . S
C930 C920 1.465 . S
C930 U926 2.847 . S
C930 O944 1.249 . S
C930 O945 1.202 . S
C931 C929 1.363 . S
C931 C933 1.408 . S
C931 C936 1.342 . S
C932 C933 1.310 . S
C932 C935 1.461 . S
C932 H952 0.932 . S
C933 C931 1.408 . S
C933 C932 1.310 . S
C933 H953 0.930 . S
C934 C935 1.474 . S
C934 C936 1.285 . S
C934 H954 0.929 . S
C935 C932 1.461 . S
C935 C934 1.474 . S
C936 C931 1.342 . S
C936 C934 1.285 . S
C936 H955 0.930 . S
C937 C940 1.424 . S
C937 C942 1.245 . S
C937 C943 1.428 . S
C938 C941 1.260 . S
C938 C942 1.477 . S
C938 H956 0.932 . S
C939 C940 1.384 . S
C939 C941 1.479 . S
C939 H957 0.929 . S
C940 C937 1.424 . S
C940 C939 1.384 . S
C940 H958 0.928 . S
C941 C938 1.260 . S
C941 C939 1.479 . S
C942 C937 1.245 . S
C942 C938 1.477 . S
C942 H959 0.932 . S
C943 U926 2.882 . S
C943 C937 1.428 . S
C943 O946 1.301 . S
C943 O947 1.282 . S
O944 U926 2.441 . S
O944 C930 1.249 . S
O945 U926 2.420 . S
O945 C930 1.202 . S
O946 U926 2.455 . S
O946 C943 1.301 . S
O947 U926 2.449 . S
O947 C943 1.282 . S
H948 C921 0.931 . S
H949 C923 0.929 . S
H950 C924 0.930 . S
H951 C925 0.931 . S
H952 C932 0.932 . S
H953 C933 0.930 . S
H954 C934 0.929 . S
H955 C936 0.930 . S
H956 C938 0.932 . S
H957 C939 0.929 . S
H958 C940 0.928 . S
H959 C942 0.932 . S
C960 C961 1.264 . S
C960 C965 1.479 . S
C960 C970 1.465 . S
C961 C960 1.264 . S
C961 C963 1.339 . S
C961 H988 0.931 . S
C962 C963 1.395 . S
C962 C964 1.320 . S
C963 C961 1.339 . S
C963 C962 1.395 . S
C963 H989 0.929 . S
C964 C962 1.320 . S
C964 C965 1.405 . S
C964 H990 0.930 . S
C965 C960 1.479 . S
C965 C964 1.405 . S
C965 H991 0.931 . S
U966 O967 2.454 . S
U966 O968 2.458 . S
U966 C969 2.984 . S
U966 C970 2.847 . S
U966 C983 2.882 . S
U966 O984 2.441 . S
U966 O985 2.420 . S
U966 O986 2.455 . S
U966 O987 2.449 . S
O967 U966 2.454 . S
O967 C969 1.353 . S
O968 U966 2.458 . S
O968 C969 1.286 . S
C969 U966 2.984 . S
C969 O967 1.353 . S
C969 O968 1.286 . S
C969 C971 1.363 . S
C970 C960 1.465 . S
C970 U966 2.847 . S
C970 O984 1.249 . S
C970 O985 1.202 . S
C971 C969 1.363 . S
C971 C973 1.408 . S
C971 C976 1.342 . S
C972 C973 1.310 . S
C972 C975 1.461 . S
C972 H992 0.932 . S
C973 C971 1.408 . S
C973 C972 1.310 . S
C973 H993 0.930 . S
C974 C975 1.474 . S
C974 C976 1.285 . S
C974 H994 0.929 . S
C975 C972 1.461 . S
C975 C974 1.474 . S
C976 C971 1.342 . S
C976 C974 1.285 . S
C976 H995 0.930 . S
C977 C980 1.424 . S
C977 C982 1.245 . S
C977 C983 1.428 . S
C978 C981 1.260 . S
C978 C982 1.477 . S
C978 H996 0.932 . S
C979 C980 1.384 . S
C979 C981 1.479 . S
C979 H997 0.929 . S
C980 C977 1.424 . S
C980 C979 1.384 . S
C980 H998 0.928 . S
C981 C978 1.260 . S
C981 C979 1.479 . S
C982 C977 1.245 . S
C982 C978 1.477 . S
C982 H999 0.932 . S
C983 U966 2.882 . S
C983 C977 1.428 . S
C983 O986 1.301 . S
C983 O987 1.282 . S
O984 U966 2.441 . S
O984 C970 1.249 . S
O985 U966 2.420 . S
O985 C970 1.202 . S
O986 U966 2.455 . S
O986 C983 1.301 . S
O987 U966 2.449 . S
O987 C983 1.282 . S
H988 C961 0.931 . S
H989 C963 0.929 . S
H990 C964 0.930 . S
H991 C965 0.931 . S
H992 C972 0.932 . S
H993 C973 0.930 . S
H994 C974 0.929 . S
H995 C976 0.930 . S
H996 C978 0.932 . S
H997 C979 0.929 . S
H998 C980 0.928 . S
H999 C982 0.932 . S
C1000 C1001 1.264 . S
C1000 C1005 1.479 . S
C1000 C1010 1.465 . S
C1001 C1000 1.264 . S
C1001 C1003 1.339 . S
C1001 H1028 0.931 . S
C1002 C1003 1.395 . S
C1002 C1004 1.320 . S
C1003 C1001 1.339 . S
C1003 C1002 1.395 . S
C1003 H1029 0.929 . S
C1004 C1002 1.320 . S
C1004 C1005 1.405 . S
C1004 H1030 0.930 . S
C1005 C1000 1.479 . S
C1005 C1004 1.405 . S
C1005 H1031 0.931 . S
U1006 O1007 2.454 . S
U1006 O1008 2.458 . S
U1006 C1009 2.984 . S
U1006 C1010 2.847 . S
U1006 C1023 2.882 . S
U1006 O1024 2.441 . S
U1006 O1025 2.420 . S
U1006 O1026 2.455 . S
U1006 O1027 2.449 . S
O1007 U1006 2.454 . S
O1007 C1009 1.353 . S
O1008 U1006 2.458 . S
O1008 C1009 1.286 . S
C1009 U1006 2.984 . S
C1009 O1007 1.353 . S
C1009 O1008 1.286 . S
C1009 C1011 1.363 . S
C1010 C1000 1.465 . S
C1010 U1006 2.847 . S
C1010 O1024 1.249 . S
C1010 O1025 1.202 . S
C1011 C1009 1.363 . S
C1011 C1013 1.408 . S
C1011 C1016 1.342 . S
C1012 C1013 1.310 . S
C1012 C1015 1.461 . S
C1012 H1032 0.932 . S
C1013 C1011 1.408 . S
C1013 C1012 1.310 . S
C1013 H1033 0.930 . S
C1014 C1015 1.474 . S
C1014 C1016 1.285 . S
C1014 H1034 0.929 . S
C1015 C1012 1.461 . S
C1015 C1014 1.474 . S
C1016 C1011 1.342 . S
C1016 C1014 1.285 . S
C1016 H1035 0.930 . S
C1017 C1020 1.424 . S
C1017 C1022 1.245 . S
C1017 C1023 1.428 . S
C1018 C1021 1.260 . S
C1018 C1022 1.477 . S
C1018 H1036 0.932 . S
C1019 C1020 1.384 . S
C1019 C1021 1.479 . S
C1019 H1037 0.929 . S
C1020 C1017 1.424 . S
C1020 C1019 1.384 . S
C1020 H1038 0.928 . S
C1021 C1018 1.260 . S
C1021 C1019 1.479 . S
C1022 C1017 1.245 . S
C1022 C1018 1.477 . S
C1022 H1039 0.932 . S
C1023 U1006 2.882 . S
C1023 C1017 1.428 . S
C1023 O1026 1.301 . S
C1023 O1027 1.282 . S
O1024 U1006 2.441 . S
O1024 C1010 1.249 . S
O1025 U1006 2.420 . S
O1025 C1010 1.202 . S
O1026 U1006 2.455 . S
O1026 C1023 1.301 . S
O1027 U1006 2.449 . S
O1027 C1023 1.282 . S
H1028 C1001 0.931 . S
H1029 C1003 0.929 . S
H1030 C1004 0.930 . S
H1031 C1005 0.931 . S
H1032 C1012 0.932 . S
H1033 C1013 0.930 . S
H1034 C1014 0.929 . S
H1035 C1016 0.930 . S
H1036 C1018 0.932 . S
H1037 C1019 0.929 . S
H1038 C1020 0.928 . S
H1039 C1022 0.932 . S
C1040 C1041 1.264 . S
C1040 C1045 1.479 . S
C1040 C1050 1.465 . S
C1041 C1040 1.264 . S
C1041 C1043 1.339 . S
C1041 H1068 0.931 . S
C1042 C1043 1.395 . S
C1042 C1044 1.320 . S
C1043 C1041 1.339 . S
C1043 C1042 1.395 . S
C1043 H1069 0.929 . S
C1044 C1042 1.320 . S
C1044 C1045 1.405 . S
C1044 H1070 0.930 . S
C1045 C1040 1.479 . S
C1045 C1044 1.405 . S
C1045 H1071 0.931 . S
U1046 O1047 2.454 . S
U1046 O1048 2.458 . S
U1046 C1049 2.984 . S
U1046 C1050 2.847 . S
U1046 C1063 2.882 . S
U1046 O1064 2.441 . S
U1046 O1065 2.420 . S
U1046 O1066 2.455 . S
U1046 O1067 2.449 . S
O1047 U1046 2.454 . S
O1047 C1049 1.353 . S
O1048 U1046 2.458 . S
O1048 C1049 1.286 . S
C1049 U1046 2.984 . S
C1049 O1047 1.353 . S
C1049 O1048 1.286 . S
C1049 C1051 1.363 . S
C1050 C1040 1.465 . S
C1050 U1046 2.847 . S
C1050 O1064 1.249 . S
C1050 O1065 1.202 . S
C1051 C1049 1.363 . S
C1051 C1053 1.408 . S
C1051 C1056 1.342 . S
C1052 C1053 1.310 . S
C1052 C1055 1.461 . S
C1052 H1072 0.932 . S
C1053 C1051 1.408 . S
C1053 C1052 1.310 . S
C1053 H1073 0.930 . S
C1054 C1055 1.474 . S
C1054 C1056 1.285 . S
C1054 H1074 0.929 . S
C1055 C1052 1.461 . S
C1055 C1054 1.474 . S
C1056 C1051 1.342 . S
C1056 C1054 1.285 . S
C1056 H1075 0.930 . S
C1057 C1060 1.424 . S
C1057 C1062 1.245 . S
C1057 C1063 1.428 . S
C1058 C1061 1.260 . S
C1058 C1062 1.477 . S
C1058 H1076 0.932 . S
C1059 C1060 1.384 . S
C1059 C1061 1.479 . S
C1059 H1077 0.929 . S
C1060 C1057 1.424 . S
C1060 C1059 1.384 . S
C1060 H1078 0.928 . S
C1061 C1058 1.260 . S
C1061 C1059 1.479 . S
C1062 C1057 1.245 . S
C1062 C1058 1.477 . S
C1062 H1079 0.932 . S
C1063 U1046 2.882 . S
C1063 C1057 1.428 . S
C1063 O1066 1.301 . S
C1063 O1067 1.282 . S
O1064 U1046 2.441 . S
O1064 C1050 1.249 . S
O1065 U1046 2.420 . S
O1065 C1050 1.202 . S
O1066 U1046 2.455 . S
O1066 C1063 1.301 . S
O1067 U1046 2.449 . S
O1067 C1063 1.282 . S
H1068 C1041 0.931 . S
H1069 C1043 0.929 . S
H1070 C1044 0.930 . S
H1071 C1045 0.931 . S
H1072 C1052 0.932 . S
H1073 C1053 0.930 . S
H1074 C1054 0.929 . S
H1075 C1056 0.930 . S
H1076 C1058 0.932 . S
H1077 C1059 0.929 . S
H1078 C1060 0.928 . S
H1079 C1062 0.932 . S
C1080 C1081 1.264 . S
C1080 C1085 1.479 . S
C1080 C1090 1.465 . S
C1081 C1080 1.264 . S
C1081 C1083 1.339 . S
C1081 H1108 0.931 . S
C1082 C1083 1.395 . S
C1082 C1084 1.320 . S
C1083 C1081 1.339 . S
C1083 C1082 1.395 . S
C1083 H1109 0.929 . S
C1084 C1082 1.320 . S
C1084 C1085 1.405 . S
C1084 H1110 0.930 . S
C1085 C1080 1.479 . S
C1085 C1084 1.405 . S
C1085 H1111 0.931 . S
U1086 O1087 2.454 . S
U1086 O1088 2.458 . S
U1086 C1089 2.984 . S
U1086 C1090 2.847 . S
U1086 C1103 2.882 . S
U1086 O1104 2.441 . S
U1086 O1105 2.420 . S
U1086 O1106 2.455 . S
U1086 O1107 2.449 . S
O1087 U1086 2.454 . S
O1087 C1089 1.353 . S
O1088 U1086 2.458 . S
O1088 C1089 1.286 . S
C1089 U1086 2.984 . S
C1089 O1087 1.353 . S
C1089 O1088 1.286 . S
C1089 C1091 1.363 . S
C1090 C1080 1.465 . S
C1090 U1086 2.847 . S
C1090 O1104 1.249 . S
C1090 O1105 1.202 . S
C1091 C1089 1.363 . S
C1091 C1093 1.408 . S
C1091 C1096 1.342 . S
C1092 C1093 1.310 . S
C1092 C1095 1.461 . S
C1092 H1112 0.932 . S
C1093 C1091 1.408 . S
C1093 C1092 1.310 . S
C1093 H1113 0.930 . S
C1094 C1095 1.474 . S
C1094 C1096 1.285 . S
C1094 H1114 0.929 . S
C1095 C1092 1.461 . S
C1095 C1094 1.474 . S
C1096 C1091 1.342 . S
C1096 C1094 1.285 . S
C1096 H1115 0.930 . S
C1097 C1100 1.424 . S
C1097 C1102 1.245 . S
C1097 C1103 1.428 . S
C1098 C1101 1.260 . S
C1098 C1102 1.477 . S
C1098 H1116 0.932 . S
C1099 C1100 1.384 . S
C1099 C1101 1.479 . S
C1099 H1117 0.929 . S
C1100 C1097 1.424 . S
C1100 C1099 1.384 . S
C1100 H1118 0.928 . S
C1101 C1098 1.260 . S
C1101 C1099 1.479 . S
C1102 C1097 1.245 . S
C1102 C1098 1.477 . S
C1102 H1119 0.932 . S
C1103 U1086 2.882 . S
C1103 C1097 1.428 . S
C1103 O1106 1.301 . S
C1103 O1107 1.282 . S
O1104 U1086 2.441 . S
O1104 C1090 1.249 . S
O1105 U1086 2.420 . S
O1105 C1090 1.202 . S
O1106 U1086 2.455 . S
O1106 C1103 1.301 . S
O1107 U1086 2.449 . S
O1107 C1103 1.282 . S
H1108 C1081 0.931 . S
H1109 C1083 0.929 . S
H1110 C1084 0.930 . S
H1111 C1085 0.931 . S
H1112 C1092 0.932 . S
H1113 C1093 0.930 . S
H1114 C1094 0.929 . S
H1115 C1096 0.930 . S
H1116 C1098 0.932 . S
H1117 C1099 0.929 . S
H1118 C1100 0.928 . S
H1119 C1102 0.932 . S
C1120 C1121 1.264 . S
C1120 C1125 1.479 . S
C1120 C1130 1.465 . S
C1121 C1120 1.264 . S
C1121 C1123 1.339 . S
C1121 H1148 0.931 . S
C1122 C1123 1.395 . S
C1122 C1124 1.320 . S
C1123 C1121 1.339 . S
C1123 C1122 1.395 . S
C1123 H1149 0.929 . S
C1124 C1122 1.320 . S
C1124 C1125 1.405 . S
C1124 H1150 0.930 . S
C1125 C1120 1.479 . S
C1125 C1124 1.405 . S
C1125 H1151 0.931 . S
U1126 O1127 2.454 . S
U1126 O1128 2.458 . S
U1126 C1129 2.984 . S
U1126 C1130 2.847 . S
U1126 C1143 2.882 . S
U1126 O1144 2.441 . S
U1126 O1145 2.420 . S
U1126 O1146 2.455 . S
U1126 O1147 2.449 . S
O1127 U1126 2.454 . S
O1127 C1129 1.353 . S
O1128 U1126 2.458 . S
O1128 C1129 1.286 . S
C1129 U1126 2.984 . S
C1129 O1127 1.353 . S
C1129 O1128 1.286 . S
C1129 C1131 1.363 . S
C1130 C1120 1.465 . S
C1130 U1126 2.847 . S
C1130 O1144 1.249 . S
C1130 O1145 1.202 . S
C1131 C1129 1.363 . S
C1131 C1133 1.408 . S
C1131 C1136 1.342 . S
C1132 C1133 1.310 . S
C1132 C1135 1.461 . S
C1132 H1152 0.932 . S
C1133 C1131 1.408 . S
C1133 C1132 1.310 . S
C1133 H1153 0.930 . S
C1134 C1135 1.474 . S
C1134 C1136 1.285 . S
C1134 H1154 0.929 . S
C1135 C1132 1.461 . S
C1135 C1134 1.474 . S
C1136 C1131 1.342 . S
C1136 C1134 1.285 . S
C1136 H1155 0.930 . S
C1137 C1140 1.424 . S
C1137 C1142 1.245 . S
C1137 C1143 1.428 . S
C1138 C1141 1.260 . S
C1138 C1142 1.477 . S
C1138 H1156 0.932 . S
C1139 C1140 1.384 . S
C1139 C1141 1.479 . S
C1139 H1157 0.929 . S
C1140 C1137 1.424 . S
C1140 C1139 1.384 . S
C1140 H1158 0.928 . S
C1141 C1138 1.260 . S
C1141 C1139 1.479 . S
C1142 C1137 1.245 . S
C1142 C1138 1.477 . S
C1142 H1159 0.932 . S
C1143 U1126 2.882 . S
C1143 C1137 1.428 . S
C1143 O1146 1.301 . S
C1143 O1147 1.282 . S
O1144 U1126 2.441 . S
O1144 C1130 1.249 . S
O1145 U1126 2.420 . S
O1145 C1130 1.202 . S
O1146 U1126 2.455 . S
O1146 C1143 1.301 . S
O1147 U1126 2.449 . S
O1147 C1143 1.282 . S
H1148 C1121 0.931 . S
H1149 C1123 0.929 . S
H1150 C1124 0.930 . S
H1151 C1125 0.931 . S
H1152 C1132 0.932 . S
H1153 C1133 0.930 . S
H1154 C1134 0.929 . S
H1155 C1136 0.930 . S
H1156 C1138 0.932 . S
H1157 C1139 0.929 . S
H1158 C1140 0.928 . S
H1159 C1142 0.932 . S
C1160 C1161 1.264 . S
C1160 C1165 1.479 . S
C1160 C1170 1.465 . S
C1161 C1160 1.264 . S
C1161 C1163 1.339 . S
C1161 H1188 0.931 . S
C1162 C1163 1.395 . S
C1162 C1164 1.320 . S
C1163 C1161 1.339 . S
C1163 C1162 1.395 . S
C1163 H1189 0.929 . S
C1164 C1162 1.320 . S
C1164 C1165 1.405 . S
C1164 H1190 0.930 . S
C1165 C1160 1.479 . S
C1165 C1164 1.405 . S
C1165 H1191 0.931 . S
U1166 O1167 2.454 . S
U1166 O1168 2.458 . S
U1166 C1169 2.984 . S
U1166 C1170 2.847 . S
U1166 C1183 2.882 . S
U1166 O1184 2.441 . S
U1166 O1185 2.420 . S
U1166 O1186 2.455 . S
U1166 O1187 2.449 . S
O1167 U1166 2.454 . S
O1167 C1169 1.353 . S
O1168 U1166 2.458 . S
O1168 C1169 1.286 . S
C1169 U1166 2.984 . S
C1169 O1167 1.353 . S
C1169 O1168 1.286 . S
C1169 C1171 1.363 . S
C1170 C1160 1.465 . S
C1170 U1166 2.847 . S
C1170 O1184 1.249 . S
C1170 O1185 1.202 . S
C1171 C1169 1.363 . S
C1171 C1173 1.408 . S
C1171 C1176 1.342 . S
C1172 C1173 1.310 . S
C1172 C1175 1.461 . S
C1172 H1192 0.932 . S
C1173 C1171 1.408 . S
C1173 C1172 1.310 . S
C1173 H1193 0.930 . S
C1174 C1175 1.474 . S
C1174 C1176 1.285 . S
C1174 H1194 0.929 . S
C1175 C1172 1.461 . S
C1175 C1174 1.474 . S
C1176 C1171 1.342 . S
C1176 C1174 1.285 . S
C1176 H1195 0.930 . S
C1177 C1180 1.424 . S
C1177 C1182 1.245 . S
C1177 C1183 1.428 . S
C1178 C1181 1.260 . S
C1178 C1182 1.477 . S
C1178 H1196 0.932 . S
C1179 C1180 1.384 . S
C1179 C1181 1.479 . S
C1179 H1197 0.929 . S
C1180 C1177 1.424 . S
C1180 C1179 1.384 . S
C1180 H1198 0.928 . S
C1181 C1178 1.260 . S
C1181 C1179 1.479 . S
C1182 C1177 1.245 . S
C1182 C1178 1.477 . S
C1182 H1199 0.932 . S
C1183 U1166 2.882 . S
C1183 C1177 1.428 . S
C1183 O1186 1.301 . S
C1183 O1187 1.282 . S
O1184 U1166 2.441 . S
O1184 C1170 1.249 . S
O1185 U1166 2.420 . S
O1185 C1170 1.202 . S
O1186 U1166 2.455 . S
O1186 C1183 1.301 . S
O1187 U1166 2.449 . S
O1187 C1183 1.282 . S
H1188 C1161 0.931 . S
H1189 C1163 0.929 . S
H1190 C1164 0.930 . S
H1191 C1165 0.931 . S
H1192 C1172 0.932 . S
H1193 C1173 0.930 . S
H1194 C1174 0.929 . S
H1195 C1176 0.930 . S
H1196 C1178 0.932 . S
H1197 C1179 0.929 . S
H1198 C1180 0.928 . S
H1199 C1182 0.932 . S
C1200 C1201 1.264 . S
C1200 C1205 1.479 . S
C1200 C1210 1.465 . S
C1201 C1200 1.264 . S
C1201 C1203 1.339 . S
C1201 H1228 0.931 . S
C1202 C1203 1.395 . S
C1202 C1204 1.320 . S
C1203 C1201 1.339 . S
C1203 C1202 1.395 . S
C1203 H1229 0.929 . S
C1204 C1202 1.320 . S
C1204 C1205 1.405 . S
C1204 H1230 0.930 . S
C1205 C1200 1.479 . S
C1205 C1204 1.405 . S
C1205 H1231 0.931 . S
U1206 O1207 2.454 . S
U1206 O1208 2.458 . S
U1206 C1209 2.984 . S
U1206 C1210 2.847 . S
U1206 C1223 2.882 . S
U1206 O1224 2.441 . S
U1206 O1225 2.420 . S
U1206 O1226 2.455 . S
U1206 O1227 2.449 . S
O1207 U1206 2.454 . S
O1207 C1209 1.353 . S
O1208 U1206 2.458 . S
O1208 C1209 1.286 . S
C1209 U1206 2.984 . S
C1209 O1207 1.353 . S
C1209 O1208 1.286 . S
C1209 C1211 1.363 . S
C1210 C1200 1.465 . S
C1210 U1206 2.847 . S
C1210 O1224 1.249 . S
C1210 O1225 1.202 . S
C1211 C1209 1.363 . S
C1211 C1213 1.408 . S
C1211 C1216 1.342 . S
C1212 C1213 1.310 . S
C1212 C1215 1.461 . S
C1212 H1232 0.932 . S
C1213 C1211 1.408 . S
C1213 C1212 1.310 . S
C1213 H1233 0.930 . S
C1214 C1215 1.474 . S
C1214 C1216 1.285 . S
C1214 H1234 0.929 . S
C1215 C1212 1.461 . S
C1215 C1214 1.474 . S
C1216 C1211 1.342 . S
C1216 C1214 1.285 . S
C1216 H1235 0.930 . S
C1217 C1220 1.424 . S
C1217 C1222 1.245 . S
C1217 C1223 1.428 . S
C1218 C1221 1.260 . S
C1218 C1222 1.477 . S
C1218 H1236 0.932 . S
C1219 C1220 1.384 . S
C1219 C1221 1.479 . S
C1219 H1237 0.929 . S
C1220 C1217 1.424 . S
C1220 C1219 1.384 . S
C1220 H1238 0.928 . S
C1221 C1218 1.260 . S
C1221 C1219 1.479 . S
C1222 C1217 1.245 . S
C1222 C1218 1.477 . S
C1222 H1239 0.932 . S
C1223 U1206 2.882 . S
C1223 C1217 1.428 . S
C1223 O1226 1.301 . S
C1223 O1227 1.282 . S
O1224 U1206 2.441 . S
O1224 C1210 1.249 . S
O1225 U1206 2.420 . S
O1225 C1210 1.202 . S
O1226 U1206 2.455 . S
O1226 C1223 1.301 . S
O1227 U1206 2.449 . S
O1227 C1223 1.282 . S
H1228 C1201 0.931 . S
H1229 C1203 0.929 . S
H1230 C1204 0.930 . S
H1231 C1205 0.931 . S
H1232 C1212 0.932 . S
H1233 C1213 0.930 . S
H1234 C1214 0.929 . S
H1235 C1216 0.930 . S
H1236 C1218 0.932 . S
H1237 C1219 0.929 . S
H1238 C1220 0.928 . S
H1239 C1222 0.932 . S
C1240 C1241 1.264 . S
C1240 C1245 1.479 . S
C1240 C1250 1.465 . S
C1241 C1240 1.264 . S
C1241 C1243 1.339 . S
C1241 H1268 0.931 . S
C1242 C1243 1.395 . S
C1242 C1244 1.320 . S
C1243 C1241 1.339 . S
C1243 C1242 1.395 . S
C1243 H1269 0.929 . S
C1244 C1242 1.320 . S
C1244 C1245 1.405 . S
C1244 H1270 0.930 . S
C1245 C1240 1.479 . S
C1245 C1244 1.405 . S
C1245 H1271 0.931 . S
U1246 O1247 2.454 . S
U1246 O1248 2.458 . S
U1246 C1249 2.984 . S
U1246 C1250 2.847 . S
U1246 C1263 2.882 . S
U1246 O1264 2.441 . S
U1246 O1265 2.420 . S
U1246 O1266 2.455 . S
U1246 O1267 2.449 . S
O1247 U1246 2.454 . S
O1247 C1249 1.353 . S
O1248 U1246 2.458 . S
O1248 C1249 1.286 . S
C1249 U1246 2.984 . S
C1249 O1247 1.353 . S
C1249 O1248 1.286 . S
C1249 C1251 1.363 . S
C1250 C1240 1.465 . S
C1250 U1246 2.847 . S
C1250 O1264 1.249 . S
C1250 O1265 1.202 . S
C1251 C1249 1.363 . S
C1251 C1253 1.408 . S
C1251 C1256 1.342 . S
C1252 C1253 1.310 . S
C1252 C1255 1.461 . S
C1252 H1272 0.932 . S
C1253 C1251 1.408 . S
C1253 C1252 1.310 . S
C1253 H1273 0.930 . S
C1254 C1255 1.474 . S
C1254 C1256 1.285 . S
C1254 H1274 0.929 . S
C1255 C1252 1.461 . S
C1255 C1254 1.474 . S
C1256 C1251 1.342 . S
C1256 C1254 1.285 . S
C1256 H1275 0.930 . S
C1257 C1260 1.424 . S
C1257 C1262 1.245 . S
C1257 C1263 1.428 . S
C1258 C1261 1.260 . S
C1258 C1262 1.477 . S
C1258 H1276 0.932 . S
C1259 C1260 1.384 . S
C1259 C1261 1.479 . S
C1259 H1277 0.929 . S
C1260 C1257 1.424 . S
C1260 C1259 1.384 . S
C1260 H1278 0.928 . S
C1261 C1258 1.260 . S
C1261 C1259 1.479 . S
C1262 C1257 1.245 . S
C1262 C1258 1.477 . S
C1262 H1279 0.932 . S
C1263 U1246 2.882 . S
C1263 C1257 1.428 . S
C1263 O1266 1.301 . S
C1263 O1267 1.282 . S
O1264 U1246 2.441 . S
O1264 C1250 1.249 . S
O1265 U1246 2.420 . S
O1265 C1250 1.202 . S
O1266 U1246 2.455 . S
O1266 C1263 1.301 . S
O1267 U1246 2.449 . S
O1267 C1263 1.282 . S
H1268 C1241 0.931 . S
H1269 C1243 0.929 . S
H1270 C1244 0.930 . S
H1271 C1245 0.931 . S
H1272 C1252 0.932 . S
H1273 C1253 0.930 . S
H1274 C1254 0.929 . S
H1275 C1256 0.930 . S
H1276 C1258 0.932 . S
H1277 C1259 0.929 . S
H1278 C1260 0.928 . S
H1279 C1262 0.932 . S
C1280 C1281 1.264 . S
C1280 C1285 1.479 . S
C1280 C1290 1.465 . S
C1281 C1280 1.264 . S
C1281 C1283 1.339 . S
C1281 H1308 0.931 . S
C1282 C1283 1.395 . S
C1282 C1284 1.320 . S
C1283 C1281 1.339 . S
C1283 C1282 1.395 . S
C1283 H1309 0.929 . S
C1284 C1282 1.320 . S
C1284 C1285 1.405 . S
C1284 H1310 0.930 . S
C1285 C1280 1.479 . S
C1285 C1284 1.405 . S
C1285 H1311 0.931 . S
U1286 O1287 2.454 . S
U1286 O1288 2.458 . S
U1286 C1289 2.984 . S
U1286 C1290 2.847 . S
U1286 C1303 2.882 . S
U1286 O1304 2.441 . S
U1286 O1305 2.420 . S
U1286 O1306 2.455 . S
U1286 O1307 2.449 . S
O1287 U1286 2.454 . S
O1287 C1289 1.353 . S
O1288 U1286 2.458 . S
O1288 C1289 1.286 . S
C1289 U1286 2.984 . S
C1289 O1287 1.353 . S
C1289 O1288 1.286 . S
C1289 C1291 1.363 . S
C1290 C1280 1.465 . S
C1290 U1286 2.847 . S
C1290 O1304 1.249 . S
C1290 O1305 1.202 . S
C1291 C1289 1.363 . S
C1291 C1293 1.408 . S
C1291 C1296 1.342 . S
C1292 C1293 1.310 . S
C1292 C1295 1.461 . S
C1292 H1312 0.932 . S
C1293 C1291 1.408 . S
C1293 C1292 1.310 . S
C1293 H1313 0.930 . S
C1294 C1295 1.474 . S
C1294 C1296 1.285 . S
C1294 H1314 0.929 . S
C1295 C1292 1.461 . S
C1295 C1294 1.474 . S
C1296 C1291 1.342 . S
C1296 C1294 1.285 . S
C1296 H1315 0.930 . S
C1297 C1300 1.424 . S
C1297 C1302 1.245 . S
C1297 C1303 1.428 . S
C1298 C1301 1.260 . S
C1298 C1302 1.477 . S
C1298 H1316 0.932 . S
C1299 C1300 1.384 . S
C1299 C1301 1.479 . S
C1299 H1317 0.929 . S
C1300 C1297 1.424 . S
C1300 C1299 1.384 . S
C1300 H1318 0.928 . S
C1301 C1298 1.260 . S
C1301 C1299 1.479 . S
C1302 C1297 1.245 . S
C1302 C1298 1.477 . S
C1302 H1319 0.932 . S
C1303 U1286 2.882 . S
C1303 C1297 1.428 . S
C1303 O1306 1.301 . S
C1303 O1307 1.282 . S
O1304 U1286 2.441 . S
O1304 C1290 1.249 . S
O1305 U1286 2.420 . S
O1305 C1290 1.202 . S
O1306 U1286 2.455 . S
O1306 C1303 1.301 . S
O1307 U1286 2.449 . S
O1307 C1303 1.282 . S
H1308 C1281 0.931 . S
H1309 C1283 0.929 . S
H1310 C1284 0.930 . S
H1311 C1285 0.931 . S
H1312 C1292 0.932 . S
H1313 C1293 0.930 . S
H1314 C1294 0.929 . S
H1315 C1296 0.930 . S
H1316 C1298 0.932 . S
H1317 C1299 0.929 . S
H1318 C1300 0.928 . S
H1319 C1302 0.932 . S
C1320 C1321 1.264 . S
C1320 C1325 1.479 . S
C1320 C1330 1.465 . S
C1321 C1320 1.264 . S
C1321 C1323 1.339 . S
C1321 H1348 0.931 . S
C1322 C1323 1.395 . S
C1322 C1324 1.320 . S
C1323 C1321 1.339 . S
C1323 C1322 1.395 . S
C1323 H1349 0.929 . S
C1324 C1322 1.320 . S
C1324 C1325 1.405 . S
C1324 H1350 0.930 . S
C1325 C1320 1.479 . S
C1325 C1324 1.405 . S
C1325 H1351 0.931 . S
U1326 O1327 2.454 . S
U1326 O1328 2.458 . S
U1326 C1329 2.984 . S
U1326 C1330 2.847 . S
U1326 C1343 2.882 . S
U1326 O1344 2.441 . S
U1326 O1345 2.420 . S
U1326 O1346 2.455 . S
U1326 O1347 2.449 . S
O1327 U1326 2.454 . S
O1327 C1329 1.353 . S
O1328 U1326 2.458 . S
O1328 C1329 1.286 . S
C1329 U1326 2.984 . S
C1329 O1327 1.353 . S
C1329 O1328 1.286 . S
C1329 C1331 1.363 . S
C1330 C1320 1.465 . S
C1330 U1326 2.847 . S
C1330 O1344 1.249 . S
C1330 O1345 1.202 . S
C1331 C1329 1.363 . S
C1331 C1333 1.408 . S
C1331 C1336 1.342 . S
C1332 C1333 1.310 . S
C1332 C1335 1.461 . S
C1332 H1352 0.932 . S
C1333 C1331 1.408 . S
C1333 C1332 1.310 . S
C1333 H1353 0.930 . S
C1334 C1335 1.474 . S
C1334 C1336 1.285 . S
C1334 H1354 0.929 . S
C1335 C1332 1.461 . S
C1335 C1334 1.474 . S
C1336 C1331 1.342 . S
C1336 C1334 1.285 . S
C1336 H1355 0.930 . S
C1337 C1340 1.424 . S
C1337 C1342 1.245 . S
C1337 C1343 1.428 . S
C1338 C1341 1.260 . S
C1338 C1342 1.477 . S
C1338 H1356 0.932 . S
C1339 C1340 1.384 . S
C1339 C1341 1.479 . S
C1339 H1357 0.929 . S
C1340 C1337 1.424 . S
C1340 C1339 1.384 . S
C1340 H1358 0.928 . S
C1341 C1338 1.260 . S
C1341 C1339 1.479 . S
C1342 C1337 1.245 . S
C1342 C1338 1.477 . S
C1342 H1359 0.932 . S
C1343 U1326 2.882 . S
C1343 C1337 1.428 . S
C1343 O1346 1.301 . S
C1343 O1347 1.282 . S
O1344 U1326 2.441 . S
O1344 C1330 1.249 . S
O1345 U1326 2.420 . S
O1345 C1330 1.202 . S
O1346 U1326 2.455 . S
O1346 C1343 1.301 . S
O1347 U1326 2.449 . S
O1347 C1343 1.282 . S
H1348 C1321 0.931 . S
H1349 C1323 0.929 . S
H1350 C1324 0.930 . S
H1351 C1325 0.931 . S
H1352 C1332 0.932 . S
H1353 C1333 0.930 . S
H1354 C1334 0.929 . S
H1355 C1336 0.930 . S
H1356 C1338 0.932 . S
H1357 C1339 0.929 . S
H1358 C1340 0.928 . S
H1359 C1342 0.932 . S
C1360 C1361 1.264 . S
C1360 C1365 1.479 . S
C1360 C1370 1.465 . S
C1361 C1360 1.264 . S
C1361 C1363 1.339 . S
C1361 H1388 0.931 . S
C1362 C1363 1.395 . S
C1362 C1364 1.320 . S
C1363 C1361 1.339 . S
C1363 C1362 1.395 . S
C1363 H1389 0.929 . S
C1364 C1362 1.320 . S
C1364 C1365 1.405 . S
C1364 H1390 0.930 . S
C1365 C1360 1.479 . S
C1365 C1364 1.405 . S
C1365 H1391 0.931 . S
U1366 O1367 2.454 . S
U1366 O1368 2.458 . S
U1366 C1369 2.984 . S
U1366 C1370 2.847 . S
U1366 C1383 2.882 . S
U1366 O1384 2.441 . S
U1366 O1385 2.420 . S
U1366 O1386 2.455 . S
U1366 O1387 2.449 . S
O1367 U1366 2.454 . S
O1367 C1369 1.353 . S
O1368 U1366 2.458 . S
O1368 C1369 1.286 . S
C1369 U1366 2.984 . S
C1369 O1367 1.353 . S
C1369 O1368 1.286 . S
C1369 C1371 1.363 . S
C1370 C1360 1.465 . S
C1370 U1366 2.847 . S
C1370 O1384 1.249 . S
C1370 O1385 1.202 . S
C1371 C1369 1.363 . S
C1371 C1373 1.408 . S
C1371 C1376 1.342 . S
C1372 C1373 1.310 . S
C1372 C1375 1.461 . S
C1372 H1392 0.932 . S
C1373 C1371 1.408 . S
C1373 C1372 1.310 . S
C1373 H1393 0.930 . S
C1374 C1375 1.474 . S
C1374 C1376 1.285 . S
C1374 H1394 0.929 . S
C1375 C1372 1.461 . S
C1375 C1374 1.474 . S
C1376 C1371 1.342 . S
C1376 C1374 1.285 . S
C1376 H1395 0.930 . S
C1377 C1380 1.424 . S
C1377 C1382 1.245 . S
C1377 C1383 1.428 . S
C1378 C1381 1.260 . S
C1378 C1382 1.477 . S
C1378 H1396 0.932 . S
C1379 C1380 1.384 . S
C1379 C1381 1.479 . S
C1379 H1397 0.929 . S
C1380 C1377 1.424 . S
C1380 C1379 1.384 . S
C1380 H1398 0.928 . S
C1381 C1378 1.260 . S
C1381 C1379 1.479 . S
C1382 C1377 1.245 . S
C1382 C1378 1.477 . S
C1382 H1399 0.932 . S
C1383 U1366 2.882 . S
C1383 C1377 1.428 . S
C1383 O1386 1.301 . S
C1383 O1387 1.282 . S
O1384 U1366 2.441 . S
O1384 C1370 1.249 . S
O1385 U1366 2.420 . S
O1385 C1370 1.202 . S
O1386 U1366 2.455 . S
O1386 C1383 1.301 . S
O1387 U1366 2.449 . S
O1387 C1383 1.282 . S
H1388 C1361 0.931 . S
H1389 C1363 0.929 . S
H1390 C1364 0.930 . S
H1391 C1365 0.931 . S
H1392 C1372 0.932 . S
H1393 C1373 0.930 . S
H1394 C1374 0.929 . S
H1395 C1376 0.930 . S
H1396 C1378 0.932 . S
H1397 C1379 0.929 . S
H1398 C1380 0.928 . S
H1399 C1382 0.932 . S
C1400 C1401 1.264 . S
C1400 C1405 1.479 . S
C1400 C1410 1.465 . S
C1401 C1400 1.264 . S
C1401 C1403 1.339 . S
C1401 H1428 0.931 . S
C1402 C1403 1.395 . S
C1402 C1404 1.320 . S
C1403 C1401 1.339 . S
C1403 C1402 1.395 . S
C1403 H1429 0.929 . S
C1404 C1402 1.320 . S
C1404 C1405 1.405 . S
C1404 H1430 0.930 . S
C1405 C1400 1.479 . S
C1405 C1404 1.405 . S
C1405 H1431 0.931 . S
U1406 O1407 2.454 . S
U1406 O1408 2.458 . S
U1406 C1409 2.984 . S
U1406 C1410 2.847 . S
U1406 C1423 2.882 . S
U1406 O1424 2.441 . S
U1406 O1425 2.420 . S
U1406 O1426 2.455 . S
U1406 O1427 2.449 . S
O1407 U1406 2.454 . S
O1407 C1409 1.353 . S
O1408 U1406 2.458 . S
O1408 C1409 1.286 . S
C1409 U1406 2.984 . S
C1409 O1407 1.353 . S
C1409 O1408 1.286 . S
C1409 C1411 1.363 . S
C1410 C1400 1.465 . S
C1410 U1406 2.847 . S
C1410 O1424 1.249 . S
C1410 O1425 1.202 . S
C1411 C1409 1.363 . S
C1411 C1413 1.408 . S
C1411 C1416 1.342 . S
C1412 C1413 1.310 . S
C1412 C1415 1.461 . S
C1412 H1432 0.932 . S
C1413 C1411 1.408 . S
C1413 C1412 1.310 . S
C1413 H1433 0.930 . S
C1414 C1415 1.474 . S
C1414 C1416 1.285 . S
C1414 H1434 0.929 . S
C1415 C1412 1.461 . S
C1415 C1414 1.474 . S
C1416 C1411 1.342 . S
C1416 C1414 1.285 . S
C1416 H1435 0.930 . S
C1417 C1420 1.424 . S
C1417 C1422 1.245 . S
C1417 C1423 1.428 . S
C1418 C1421 1.260 . S
C1418 C1422 1.477 . S
C1418 H1436 0.932 . S
C1419 C1420 1.384 . S
C1419 C1421 1.479 . S
C1419 H1437 0.929 . S
C1420 C1417 1.424 . S
C1420 C1419 1.384 . S
C1420 H1438 0.928 . S
C1421 C1418 1.260 . S
C1421 C1419 1.479 . S
C1422 C1417 1.245 . S
C1422 C1418 1.477 . S
C1422 H1439 0.932 . S
C1423 U1406 2.882 . S
C1423 C1417 1.428 . S
C1423 O1426 1.301 . S
C1423 O1427 1.282 . S
O1424 U1406 2.441 . S
O1424 C1410 1.249 . S
O1425 U1406 2.420 . S
O1425 C1410 1.202 . S
O1426 U1406 2.455 . S
O1426 C1423 1.301 . S
O1427 U1406 2.449 . S
O1427 C1423 1.282 . S
H1428 C1401 0.931 . S
H1429 C1403 0.929 . S
H1430 C1404 0.930 . S
H1431 C1405 0.931 . S
H1432 C1412 0.932 . S
H1433 C1413 0.930 . S
H1434 C1414 0.929 . S
H1435 C1416 0.930 . S
H1436 C1418 0.932 . S
H1437 C1419 0.929 . S
H1438 C1420 0.928 . S
H1439 C1422 0.932 . S
C1440 C1441 1.264 . S
C1440 C1445 1.479 . S
C1440 C1450 1.465 . S
C1441 C1440 1.264 . S
C1441 C1443 1.339 . S
C1441 H1468 0.931 . S
C1442 C1443 1.395 . S
C1442 C1444 1.320 . S
C1443 C1441 1.339 . S
C1443 C1442 1.395 . S
C1443 H1469 0.929 . S
C1444 C1442 1.320 . S
C1444 C1445 1.405 . S
C1444 H1470 0.930 . S
C1445 C1440 1.479 . S
C1445 C1444 1.405 . S
C1445 H1471 0.931 . S
U1446 O1447 2.454 . S
U1446 O1448 2.458 . S
U1446 C1449 2.984 . S
U1446 C1450 2.847 . S
U1446 C1463 2.882 . S
U1446 O1464 2.441 . S
U1446 O1465 2.420 . S
U1446 O1466 2.455 . S
U1446 O1467 2.449 . S
O1447 U1446 2.454 . S
O1447 C1449 1.353 . S
O1448 U1446 2.458 . S
O1448 C1449 1.286 . S
C1449 U1446 2.984 . S
C1449 O1447 1.353 . S
C1449 O1448 1.286 . S
C1449 C1451 1.363 . S
C1450 C1440 1.465 . S
C1450 U1446 2.847 . S
C1450 O1464 1.249 . S
C1450 O1465 1.202 . S
C1451 C1449 1.363 . S
C1451 C1453 1.408 . S
C1451 C1456 1.342 . S
C1452 C1453 1.310 . S
C1452 C1455 1.461 . S
C1452 H1472 0.932 . S
C1453 C1451 1.408 . S
C1453 C1452 1.310 . S
C1453 H1473 0.930 . S
C1454 C1455 1.474 . S
C1454 C1456 1.285 . S
C1454 H1474 0.929 . S
C1455 C1452 1.461 . S
C1455 C1454 1.474 . S
C1456 C1451 1.342 . S
C1456 C1454 1.285 . S
C1456 H1475 0.930 . S
C1457 C1460 1.424 . S
C1457 C1462 1.245 . S
C1457 C1463 1.428 . S
C1458 C1461 1.260 . S
C1458 C1462 1.477 . S
C1458 H1476 0.932 . S
C1459 C1460 1.384 . S
C1459 C1461 1.479 . S
C1459 H1477 0.929 . S
C1460 C1457 1.424 . S
C1460 C1459 1.384 . S
C1460 H1478 0.928 . S
C1461 C1458 1.260 . S
C1461 C1459 1.479 . S
C1462 C1457 1.245 . S
C1462 C1458 1.477 . S
C1462 H1479 0.932 . S
C1463 U1446 2.882 . S
C1463 C1457 1.428 . S
C1463 O1466 1.301 . S
C1463 O1467 1.282 . S
O1464 U1446 2.441 . S
O1464 C1450 1.249 . S
O1465 U1446 2.420 . S
O1465 C1450 1.202 . S
O1466 U1446 2.455 . S
O1466 C1463 1.301 . S
O1467 U1446 2.449 . S
O1467 C1463 1.282 . S
H1468 C1441 0.931 . S
H1469 C1443 0.929 . S
H1470 C1444 0.930 . S
H1471 C1445 0.931 . S
H1472 C1452 0.932 . S
H1473 C1453 0.930 . S
H1474 C1454 0.929 . S
H1475 C1456 0.930 . S
H1476 C1458 0.932 . S
H1477 C1459 0.929 . S
H1478 C1460 0.928 . S
H1479 C1462 0.932 . S
C1480 C1481 1.264 . S
C1480 C1485 1.479 . S
C1480 C1490 1.465 . S
C1481 C1480 1.264 . S
C1481 C1483 1.339 . S
C1481 H1508 0.931 . S
C1482 C1483 1.395 . S
C1482 C1484 1.320 . S
C1483 C1481 1.339 . S
C1483 C1482 1.395 . S
C1483 H1509 0.929 . S
C1484 C1482 1.320 . S
C1484 C1485 1.405 . S
C1484 H1510 0.930 . S
C1485 C1480 1.479 . S
C1485 C1484 1.405 . S
C1485 H1511 0.931 . S
U1486 O1487 2.454 . S
U1486 O1488 2.458 . S
U1486 C1489 2.984 . S
U1486 C1490 2.847 . S
U1486 C1503 2.882 . S
U1486 O1504 2.441 . S
U1486 O1505 2.420 . S
U1486 O1506 2.455 . S
U1486 O1507 2.449 . S
O1487 U1486 2.454 . S
O1487 C1489 1.353 . S
O1488 U1486 2.458 . S
O1488 C1489 1.286 . S
C1489 U1486 2.984 . S
C1489 O1487 1.353 . S
C1489 O1488 1.286 . S
C1489 C1491 1.363 . S
C1490 C1480 1.465 . S
C1490 U1486 2.847 . S
C1490 O1504 1.249 . S
C1490 O1505 1.202 . S
C1491 C1489 1.363 . S
C1491 C1493 1.408 . S
C1491 C1496 1.342 . S
C1492 C1493 1.310 . S
C1492 C1495 1.461 . S
C1492 H1512 0.932 . S
C1493 C1491 1.408 . S
C1493 C1492 1.310 . S
C1493 H1513 0.930 . S
C1494 C1495 1.474 . S
C1494 C1496 1.285 . S
C1494 H1514 0.929 . S
C1495 C1492 1.461 . S
C1495 C1494 1.474 . S
C1496 C1491 1.342 . S
C1496 C1494 1.285 . S
C1496 H1515 0.930 . S
C1497 C1500 1.424 . S
C1497 C1502 1.245 . S
C1497 C1503 1.428 . S
C1498 C1501 1.260 . S
C1498 C1502 1.477 . S
C1498 H1516 0.932 . S
C1499 C1500 1.384 . S
C1499 C1501 1.479 . S
C1499 H1517 0.929 . S
C1500 C1497 1.424 . S
C1500 C1499 1.384 . S
C1500 H1518 0.928 . S
C1501 C1498 1.260 . S
C1501 C1499 1.479 . S
C1502 C1497 1.245 . S
C1502 C1498 1.477 . S
C1502 H1519 0.932 . S
C1503 U1486 2.882 . S
C1503 C1497 1.428 . S
C1503 O1506 1.301 . S
C1503 O1507 1.282 . S
O1504 U1486 2.441 . S
O1504 C1490 1.249 . S
O1505 U1486 2.420 . S
O1505 C1490 1.202 . S
O1506 U1486 2.455 . S
O1506 C1503 1.301 . S
O1507 U1486 2.449 . S
O1507 C1503 1.282 . S
H1508 C1481 0.931 . S
H1509 C1483 0.929 . S
H1510 C1484 0.930 . S
H1511 C1485 0.931 . S
H1512 C1492 0.932 . S
H1513 C1493 0.930 . S
H1514 C1494 0.929 . S
H1515 C1496 0.930 . S
H1516 C1498 0.932 . S
H1517 C1499 0.929 . S
H1518 C1500 0.928 . S
H1519 C1502 0.932 . S
C1520 C1521 1.264 . S
C1520 C1525 1.479 . S
C1520 C1530 1.465 . S
C1521 C1520 1.264 . S
C1521 C1523 1.339 . S
C1521 H1548 0.931 . S
C1522 C1523 1.395 . S
C1522 C1524 1.320 . S
C1523 C1521 1.339 . S
C1523 C1522 1.395 . S
C1523 H1549 0.929 . S
C1524 C1522 1.320 . S
C1524 C1525 1.405 . S
C1524 H1550 0.930 . S
C1525 C1520 1.479 . S
C1525 C1524 1.405 . S
C1525 H1551 0.931 . S
U1526 O1527 2.454 . S
U1526 O1528 2.458 . S
U1526 C1529 2.984 . S
U1526 C1530 2.847 . S
U1526 C1543 2.882 . S
U1526 O1544 2.441 . S
U1526 O1545 2.420 . S
U1526 O1546 2.455 . S
U1526 O1547 2.449 . S
O1527 U1526 2.454 . S
O1527 C1529 1.353 . S
O1528 U1526 2.458 . S
O1528 C1529 1.286 . S
C1529 U1526 2.984 . S
C1529 O1527 1.353 . S
C1529 O1528 1.286 . S
C1529 C1531 1.363 . S
C1530 C1520 1.465 . S
C1530 U1526 2.847 . S
C1530 O1544 1.249 . S
C1530 O1545 1.202 . S
C1531 C1529 1.363 . S
C1531 C1533 1.408 . S
C1531 C1536 1.342 . S
C1532 C1533 1.310 . S
C1532 C1535 1.461 . S
C1532 H1552 0.932 . S
C1533 C1531 1.408 . S
C1533 C1532 1.310 . S
C1533 H1553 0.930 . S
C1534 C1535 1.474 . S
C1534 C1536 1.285 . S
C1534 H1554 0.929 . S
C1535 C1532 1.461 . S
C1535 C1534 1.474 . S
C1536 C1531 1.342 . S
C1536 C1534 1.285 . S
C1536 H1555 0.930 . S
C1537 C1540 1.424 . S
C1537 C1542 1.245 . S
C1537 C1543 1.428 . S
C1538 C1541 1.260 . S
C1538 C1542 1.477 . S
C1538 H1556 0.932 . S
C1539 C1540 1.384 . S
C1539 C1541 1.479 . S
C1539 H1557 0.929 . S
C1540 C1537 1.424 . S
C1540 C1539 1.384 . S
C1540 H1558 0.928 . S
C1541 C1538 1.260 . S
C1541 C1539 1.479 . S
C1542 C1537 1.245 . S
C1542 C1538 1.477 . S
C1542 H1559 0.932 . S
C1543 U1526 2.882 . S
C1543 C1537 1.428 . S
C1543 O1546 1.301 . S
C1543 O1547 1.282 . S
O1544 U1526 2.441 . S
O1544 C1530 1.249 . S
O1545 U1526 2.420 . S
O1545 C1530 1.202 . S
O1546 U1526 2.455 . S
O1546 C1543 1.301 . S
O1547 U1526 2.449 . S
O1547 C1543 1.282 . S
H1548 C1521 0.931 . S
H1549 C1523 0.929 . S
H1550 C1524 0.930 . S
H1551 C1525 0.931 . S
H1552 C1532 0.932 . S
H1553 C1533 0.930 . S
H1554 C1534 0.929 . S
H1555 C1536 0.930 . S
H1556 C1538 0.932 . S
H1557 C1539 0.929 . S
H1558 C1540 0.928 . S
H1559 C1542 0.932 . S
C1560 C1561 1.264 . S
C1560 C1565 1.479 . S
C1560 C1570 1.465 . S
C1561 C1560 1.264 . S
C1561 C1563 1.339 . S
C1561 H1588 0.931 . S
C1562 C1563 1.395 . S
C1562 C1564 1.320 . S
C1563 C1561 1.339 . S
C1563 C1562 1.395 . S
C1563 H1589 0.929 . S
C1564 C1562 1.320 . S
C1564 C1565 1.405 . S
C1564 H1590 0.930 . S
C1565 C1560 1.479 . S
C1565 C1564 1.405 . S
C1565 H1591 0.931 . S
U1566 O1567 2.454 . S
U1566 O1568 2.458 . S
U1566 C1569 2.984 . S
U1566 C1570 2.847 . S
U1566 C1583 2.882 . S
U1566 O1584 2.441 . S
U1566 O1585 2.420 . S
U1566 O1586 2.455 . S
U1566 O1587 2.449 . S
O1567 U1566 2.454 . S
O1567 C1569 1.353 . S
O1568 U1566 2.458 . S
O1568 C1569 1.286 . S
C1569 U1566 2.984 . S
C1569 O1567 1.353 . S
C1569 O1568 1.286 . S
C1569 C1571 1.363 . S
C1570 C1560 1.465 . S
C1570 U1566 2.847 . S
C1570 O1584 1.249 . S
C1570 O1585 1.202 . S
C1571 C1569 1.363 . S
C1571 C1573 1.408 . S
C1571 C1576 1.342 . S
C1572 C1573 1.310 . S
C1572 C1575 1.461 . S
C1572 H1592 0.932 . S
C1573 C1571 1.408 . S
C1573 C1572 1.310 . S
C1573 H1593 0.930 . S
C1574 C1575 1.474 . S
C1574 C1576 1.285 . S
C1574 H1594 0.929 . S
C1575 C1572 1.461 . S
C1575 C1574 1.474 . S
C1576 C1571 1.342 . S
C1576 C1574 1.285 . S
C1576 H1595 0.930 . S
C1577 C1580 1.424 . S
C1577 C1582 1.245 . S
C1577 C1583 1.428 . S
C1578 C1581 1.260 . S
C1578 C1582 1.477 . S
C1578 H1596 0.932 . S
C1579 C1580 1.384 . S
C1579 C1581 1.479 . S
C1579 H1597 0.929 . S
C1580 C1577 1.424 . S
C1580 C1579 1.384 . S
C1580 H1598 0.928 . S
C1581 C1578 1.260 . S
C1581 C1579 1.479 . S
C1582 C1577 1.245 . S
C1582 C1578 1.477 . S
C1582 H1599 0.932 . S
C1583 U1566 2.882 . S
C1583 C1577 1.428 . S
C1583 O1586 1.301 . S
C1583 O1587 1.282 . S
O1584 U1566 2.441 . S
O1584 C1570 1.249 . S
O1585 U1566 2.420 . S
O1585 C1570 1.202 . S
O1586 U1566 2.455 . S
O1586 C1583 1.301 . S
O1587 U1566 2.449 . S
O1587 C1583 1.282 . S
H1588 C1561 0.931 . S
H1589 C1563 0.929 . S
H1590 C1564 0.930 . S
H1591 C1565 0.931 . S
H1592 C1572 0.932 . S
H1593 C1573 0.930 . S
H1594 C1574 0.929 . S
H1595 C1576 0.930 . S
H1596 C1578 0.932 . S
H1597 C1579 0.929 . S
H1598 C1580 0.928 . S
H1599 C1582 0.932 . S
C1600 C1601 1.264 . S
C1600 C1605 1.479 . S
C1600 C1610 1.465 . S
C1601 C1600 1.264 . S
C1601 C1603 1.339 . S
C1601 H1628 0.931 . S
C1602 C1603 1.395 . S
C1602 C1604 1.320 . S
C1603 C1601 1.339 . S
C1603 C1602 1.395 . S
C1603 H1629 0.929 . S
C1604 C1602 1.320 . S
C1604 C1605 1.405 . S
C1604 H1630 0.930 . S
C1605 C1600 1.479 . S
C1605 C1604 1.405 . S
C1605 H1631 0.931 . S
U1606 O1607 2.454 . S
U1606 O1608 2.458 . S
U1606 C1609 2.984 . S
U1606 C1610 2.847 . S
U1606 C1623 2.882 . S
U1606 O1624 2.441 . S
U1606 O1625 2.420 . S
U1606 O1626 2.455 . S
U1606 O1627 2.449 . S
O1607 U1606 2.454 . S
O1607 C1609 1.353 . S
O1608 U1606 2.458 . S
O1608 C1609 1.286 . S
C1609 U1606 2.984 . S
C1609 O1607 1.353 . S
C1609 O1608 1.286 . S
C1609 C1611 1.363 . S
C1610 C1600 1.465 . S
C1610 U1606 2.847 . S
C1610 O1624 1.249 . S
C1610 O1625 1.202 . S
C1611 C1609 1.363 . S
C1611 C1613 1.408 . S
C1611 C1616 1.342 . S
C1612 C1613 1.310 . S
C1612 C1615 1.461 . S
C1612 H1632 0.932 . S
C1613 C1611 1.408 . S
C1613 C1612 1.310 . S
C1613 H1633 0.930 . S
C1614 C1615 1.474 . S
C1614 C1616 1.285 . S
C1614 H1634 0.929 . S
C1615 C1612 1.461 . S
C1615 C1614 1.474 . S
C1616 C1611 1.342 . S
C1616 C1614 1.285 . S
C1616 H1635 0.930 . S
C1617 C1620 1.424 . S
C1617 C1622 1.245 . S
C1617 C1623 1.428 . S
C1618 C1621 1.260 . S
C1618 C1622 1.477 . S
C1618 H1636 0.932 . S
C1619 C1620 1.384 . S
C1619 C1621 1.479 . S
C1619 H1637 0.929 . S
C1620 C1617 1.424 . S
C1620 C1619 1.384 . S
C1620 H1638 0.928 . S
C1621 C1618 1.260 . S
C1621 C1619 1.479 . S
C1622 C1617 1.245 . S
C1622 C1618 1.477 . S
C1622 H1639 0.932 . S
C1623 U1606 2.882 . S
C1623 C1617 1.428 . S
C1623 O1626 1.301 . S
C1623 O1627 1.282 . S
O1624 U1606 2.441 . S
O1624 C1610 1.249 . S
O1625 U1606 2.420 . S
O1625 C1610 1.202 . S
O1626 U1606 2.455 . S
O1626 C1623 1.301 . S
O1627 U1606 2.449 . S
O1627 C1623 1.282 . S
H1628 C1601 0.931 . S
H1629 C1603 0.929 . S
H1630 C1604 0.930 . S
H1631 C1605 0.931 . S
H1632 C1612 0.932 . S
H1633 C1613 0.930 . S
H1634 C1614 0.929 . S
H1635 C1616 0.930 . S
H1636 C1618 0.932 . S
H1637 C1619 0.929 . S
H1638 C1620 0.928 . S
H1639 C1622 0.932 . S
C1640 C1641 1.264 . S
C1640 C1645 1.479 . S
C1640 C1650 1.465 . S
C1641 C1640 1.264 . S
C1641 C1643 1.339 . S
C1641 H1668 0.931 . S
C1642 C1643 1.395 . S
C1642 C1644 1.320 . S
C1643 C1641 1.339 . S
C1643 C1642 1.395 . S
C1643 H1669 0.929 . S
C1644 C1642 1.320 . S
C1644 C1645 1.405 . S
C1644 H1670 0.930 . S
C1645 C1640 1.479 . S
C1645 C1644 1.405 . S
C1645 H1671 0.931 . S
U1646 O1647 2.454 . S
U1646 O1648 2.458 . S
U1646 C1649 2.984 . S
U1646 C1650 2.847 . S
U1646 C1663 2.882 . S
U1646 O1664 2.441 . S
U1646 O1665 2.420 . S
U1646 O1666 2.455 . S
U1646 O1667 2.449 . S
O1647 U1646 2.454 . S
O1647 C1649 1.353 . S
O1648 U1646 2.458 . S
O1648 C1649 1.286 . S
C1649 U1646 2.984 . S
C1649 O1647 1.353 . S
C1649 O1648 1.286 . S
C1649 C1651 1.363 . S
C1650 C1640 1.465 . S
C1650 U1646 2.847 . S
C1650 O1664 1.249 . S
C1650 O1665 1.202 . S
C1651 C1649 1.363 . S
C1651 C1653 1.408 . S
C1651 C1656 1.342 . S
C1652 C1653 1.310 . S
C1652 C1655 1.461 . S
C1652 H1672 0.932 . S
C1653 C1651 1.408 . S
C1653 C1652 1.310 . S
C1653 H1673 0.930 . S
C1654 C1655 1.474 . S
C1654 C1656 1.285 . S
C1654 H1674 0.929 . S
C1655 C1652 1.461 . S
C1655 C1654 1.474 . S
C1656 C1651 1.342 . S
C1656 C1654 1.285 . S
C1656 H1675 0.930 . S
C1657 C1660 1.424 . S
C1657 C1662 1.245 . S
C1657 C1663 1.428 . S
C1658 C1661 1.260 . S
C1658 C1662 1.477 . S
C1658 H1676 0.932 . S
C1659 C1660 1.384 . S
C1659 C1661 1.479 . S
C1659 H1677 0.929 . S
C1660 C1657 1.424 . S
C1660 C1659 1.384 . S
C1660 H1678 0.928 . S
C1661 C1658 1.260 . S
C1661 C1659 1.479 . S
C1662 C1657 1.245 . S
C1662 C1658 1.477 . S
C1662 H1679 0.932 . S
C1663 U1646 2.882 . S
C1663 C1657 1.428 . S
C1663 O1666 1.301 . S
C1663 O1667 1.282 . S
O1664 U1646 2.441 . S
O1664 C1650 1.249 . S
O1665 U1646 2.420 . S
O1665 C1650 1.202 . S
O1666 U1646 2.455 . S
O1666 C1663 1.301 . S
O1667 U1646 2.449 . S
O1667 C1663 1.282 . S
H1668 C1641 0.931 . S
H1669 C1643 0.929 . S
H1670 C1644 0.930 . S
H1671 C1645 0.931 . S
H1672 C1652 0.932 . S
H1673 C1653 0.930 . S
H1674 C1654 0.929 . S
H1675 C1656 0.930 . S
H1676 C1658 0.932 . S
H1677 C1659 0.929 . S
H1678 C1660 0.928 . S
H1679 C1662 0.932 . S
C1680 C1681 1.264 . S
C1680 C1685 1.479 . S
C1680 C1690 1.465 . S
C1681 C1680 1.264 . S
C1681 C1683 1.339 . S
C1681 H1708 0.931 . S
C1682 C1683 1.395 . S
C1682 C1684 1.320 . S
C1683 C1681 1.339 . S
C1683 C1682 1.395 . S
C1683 H1709 0.929 . S
C1684 C1682 1.320 . S
C1684 C1685 1.405 . S
C1684 H1710 0.930 . S
C1685 C1680 1.479 . S
C1685 C1684 1.405 . S
C1685 H1711 0.931 . S
U1686 O1687 2.454 . S
U1686 O1688 2.458 . S
U1686 C1689 2.984 . S
U1686 C1690 2.847 . S
U1686 C1703 2.882 . S
U1686 O1704 2.441 . S
U1686 O1705 2.420 . S
U1686 O1706 2.455 . S
U1686 O1707 2.449 . S
O1687 U1686 2.454 . S
O1687 C1689 1.353 . S
O1688 U1686 2.458 . S
O1688 C1689 1.286 . S
C1689 U1686 2.984 . S
C1689 O1687 1.353 . S
C1689 O1688 1.286 . S
C1689 C1691 1.363 . S
C1690 C1680 1.465 . S
C1690 U1686 2.847 . S
C1690 O1704 1.249 . S
C1690 O1705 1.202 . S
C1691 C1689 1.363 . S
C1691 C1693 1.408 . S
C1691 C1696 1.342 . S
C1692 C1693 1.310 . S
C1692 C1695 1.461 . S
C1692 H1712 0.932 . S
C1693 C1691 1.408 . S
C1693 C1692 1.310 . S
C1693 H1713 0.930 . S
C1694 C1695 1.474 . S
C1694 C1696 1.285 . S
C1694 H1714 0.929 . S
C1695 C1692 1.461 . S
C1695 C1694 1.474 . S
C1696 C1691 1.342 . S
C1696 C1694 1.285 . S
C1696 H1715 0.930 . S
C1697 C1700 1.424 . S
C1697 C1702 1.245 . S
C1697 C1703 1.428 . S
C1698 C1701 1.260 . S
C1698 C1702 1.477 . S
C1698 H1716 0.932 . S
C1699 C1700 1.384 . S
C1699 C1701 1.479 . S
C1699 H1717 0.929 . S
C1700 C1697 1.424 . S
C1700 C1699 1.384 . S
C1700 H1718 0.928 . S
C1701 C1698 1.260 . S
C1701 C1699 1.479 . S
C1702 C1697 1.245 . S
C1702 C1698 1.477 . S
C1702 H1719 0.932 . S
C1703 U1686 2.882 . S
C1703 C1697 1.428 . S
C1703 O1706 1.301 . S
C1703 O1707 1.282 . S
O1704 U1686 2.441 . S
O1704 C1690 1.249 . S
O1705 U1686 2.420 . S
O1705 C1690 1.202 . S
O1706 U1686 2.455 . S
O1706 C1703 1.301 . S
O1707 U1686 2.449 . S
O1707 C1703 1.282 . S
H1708 C1681 0.931 . S
H1709 C1683 0.929 . S
H1710 C1684 0.930 . S
H1711 C1685 0.931 . S
H1712 C1692 0.932 . S
H1713 C1693 0.930 . S
H1714 C1694 0.929 . S
H1715 C1696 0.930 . S
H1716 C1698 0.932 . S
H1717 C1699 0.929 . S
H1718 C1700 0.928 . S
H1719 C1702 0.932 . S
C1720 C1721 1.264 . S
C1720 C1725 1.479 . S
C1720 C1730 1.465 . S
C1721 C1720 1.264 . S
C1721 C1723 1.339 . S
C1721 H1748 0.931 . S
C1722 C1723 1.395 . S
C1722 C1724 1.320 . S
C1723 C1721 1.339 . S
C1723 C1722 1.395 . S
C1723 H1749 0.929 . S
C1724 C1722 1.320 . S
C1724 C1725 1.405 . S
C1724 H1750 0.930 . S
C1725 C1720 1.479 . S
C1725 C1724 1.405 . S
C1725 H1751 0.931 . S
U1726 O1727 2.454 . S
U1726 O1728 2.458 . S
U1726 C1729 2.984 . S
U1726 C1730 2.847 . S
U1726 C1743 2.882 . S
U1726 O1744 2.441 . S
U1726 O1745 2.420 . S
U1726 O1746 2.455 . S
U1726 O1747 2.449 . S
O1727 U1726 2.454 . S
O1727 C1729 1.353 . S
O1728 U1726 2.458 . S
O1728 C1729 1.286 . S
C1729 U1726 2.984 . S
C1729 O1727 1.353 . S
C1729 O1728 1.286 . S
C1729 C1731 1.363 . S
C1730 C1720 1.465 . S
C1730 U1726 2.847 . S
C1730 O1744 1.249 . S
C1730 O1745 1.202 . S
C1731 C1729 1.363 . S
C1731 C1733 1.408 . S
C1731 C1736 1.342 . S
C1732 C1733 1.310 . S
C1732 C1735 1.461 . S
C1732 H1752 0.932 . S
C1733 C1731 1.408 . S
C1733 C1732 1.310 . S
C1733 H1753 0.930 . S
C1734 C1735 1.474 . S
C1734 C1736 1.285 . S
C1734 H1754 0.929 . S
C1735 C1732 1.461 . S
C1735 C1734 1.474 . S
C1736 C1731 1.342 . S
C1736 C1734 1.285 . S
C1736 H1755 0.930 . S
C1737 C1740 1.424 . S
C1737 C1742 1.245 . S
C1737 C1743 1.428 . S
C1738 C1741 1.260 . S
C1738 C1742 1.477 . S
C1738 H1756 0.932 . S
C1739 C1740 1.384 . S
C1739 C1741 1.479 . S
C1739 H1757 0.929 . S
C1740 C1737 1.424 . S
C1740 C1739 1.384 . S
C1740 H1758 0.928 . S
C1741 C1738 1.260 . S
C1741 C1739 1.479 . S
C1742 C1737 1.245 . S
C1742 C1738 1.477 . S
C1742 H1759 0.932 . S
C1743 U1726 2.882 . S
C1743 C1737 1.428 . S
C1743 O1746 1.301 . S
C1743 O1747 1.282 . S
O1744 U1726 2.441 . S
O1744 C1730 1.249 . S
O1745 U1726 2.420 . S
O1745 C1730 1.202 . S
O1746 U1726 2.455 . S
O1746 C1743 1.301 . S
O1747 U1726 2.449 . S
O1747 C1743 1.282 . S
H1748 C1721 0.931 . S
H1749 C1723 0.929 . S
H1750 C1724 0.930 . S
H1751 C1725 0.931 . S
H1752 C1732 0.932 . S
H1753 C1733 0.930 . S
H1754 C1734 0.929 . S
H1755 C1736 0.930 . S
H1756 C1738 0.932 . S
H1757 C1739 0.929 . S
H1758 C1740 0.928 . S
H1759 C1742 0.932 . S
C1760 C1761 1.264 . S
C1760 C1765 1.479 . S
C1760 C1770 1.465 . S
C1761 C1760 1.264 . S
C1761 C1763 1.339 . S
C1761 H1788 0.931 . S
C1762 C1763 1.395 . S
C1762 C1764 1.320 . S
C1763 C1761 1.339 . S
C1763 C1762 1.395 . S
C1763 H1789 0.929 . S
C1764 C1762 1.320 . S
C1764 C1765 1.405 . S
C1764 H1790 0.930 . S
C1765 C1760 1.479 . S
C1765 C1764 1.405 . S
C1765 H1791 0.931 . S
U1766 O1767 2.454 . S
U1766 O1768 2.458 . S
U1766 C1769 2.984 . S
U1766 C1770 2.847 . S
U1766 C1783 2.882 . S
U1766 O1784 2.441 . S
U1766 O1785 2.420 . S
U1766 O1786 2.455 . S
U1766 O1787 2.449 . S
O1767 U1766 2.454 . S
O1767 C1769 1.353 . S
O1768 U1766 2.458 . S
O1768 C1769 1.286 . S
C1769 U1766 2.984 . S
C1769 O1767 1.353 . S
C1769 O1768 1.286 . S
C1769 C1771 1.363 . S
C1770 C1760 1.465 . S
C1770 U1766 2.847 . S
C1770 O1784 1.249 . S
C1770 O1785 1.202 . S
C1771 C1769 1.363 . S
C1771 C1773 1.408 . S
C1771 C1776 1.342 . S
C1772 C1773 1.310 . S
C1772 C1775 1.461 . S
C1772 H1792 0.932 . S
C1773 C1771 1.408 . S
C1773 C1772 1.310 . S
C1773 H1793 0.930 . S
C1774 C1775 1.474 . S
C1774 C1776 1.285 . S
C1774 H1794 0.929 . S
C1775 C1772 1.461 . S
C1775 C1774 1.474 . S
C1776 C1771 1.342 . S
C1776 C1774 1.285 . S
C1776 H1795 0.930 . S
C1777 C1780 1.424 . S
C1777 C1782 1.245 . S
C1777 C1783 1.428 . S
C1778 C1781 1.260 . S
C1778 C1782 1.477 . S
C1778 H1796 0.932 . S
C1779 C1780 1.384 . S
C1779 C1781 1.479 . S
C1779 H1797 0.929 . S
C1780 C1777 1.424 . S
C1780 C1779 1.384 . S
C1780 H1798 0.928 . S
C1781 C1778 1.260 . S
C1781 C1779 1.479 . S
C1782 C1777 1.245 . S
C1782 C1778 1.477 . S
C1782 H1799 0.932 . S
C1783 U1766 2.882 . S
C1783 C1777 1.428 . S
C1783 O1786 1.301 . S
C1783 O1787 1.282 . S
O1784 U1766 2.441 . S
O1784 C1770 1.249 . S
O1785 U1766 2.420 . S
O1785 C1770 1.202 . S
O1786 U1766 2.455 . S
O1786 C1783 1.301 . S
O1787 U1766 2.449 . S
O1787 C1783 1.282 . S
H1788 C1761 0.931 . S
H1789 C1763 0.929 . S
H1790 C1764 0.930 . S
H1791 C1765 0.931 . S
H1792 C1772 0.932 . S
H1793 C1773 0.930 . S
H1794 C1774 0.929 . S
H1795 C1776 0.930 . S
H1796 C1778 0.932 . S
H1797 C1779 0.929 . S
H1798 C1780 0.928 . S
H1799 C1782 0.932 . S
C1800 C1801 1.264 . S
C1800 C1805 1.479 . S
C1800 C1810 1.465 . S
C1801 C1800 1.264 . S
C1801 C1803 1.339 . S
C1801 H1828 0.931 . S
C1802 C1803 1.395 . S
C1802 C1804 1.320 . S
C1803 C1801 1.339 . S
C1803 C1802 1.395 . S
C1803 H1829 0.929 . S
C1804 C1802 1.320 . S
C1804 C1805 1.405 . S
C1804 H1830 0.930 . S
C1805 C1800 1.479 . S
C1805 C1804 1.405 . S
C1805 H1831 0.931 . S
U1806 O1807 2.454 . S
U1806 O1808 2.458 . S
U1806 C1809 2.984 . S
U1806 C1810 2.847 . S
U1806 C1823 2.882 . S
U1806 O1824 2.441 . S
U1806 O1825 2.420 . S
U1806 O1826 2.455 . S
U1806 O1827 2.449 . S
O1807 U1806 2.454 . S
O1807 C1809 1.353 . S
O1808 U1806 2.458 . S
O1808 C1809 1.286 . S
C1809 U1806 2.984 . S
C1809 O1807 1.353 . S
C1809 O1808 1.286 . S
C1809 C1811 1.363 . S
C1810 C1800 1.465 . S
C1810 U1806 2.847 . S
C1810 O1824 1.249 . S
C1810 O1825 1.202 . S
C1811 C1809 1.363 . S
C1811 C1813 1.408 . S
C1811 C1816 1.342 . S
C1812 C1813 1.310 . S
C1812 C1815 1.461 . S
C1812 H1832 0.932 . S
C1813 C1811 1.408 . S
C1813 C1812 1.310 . S
C1813 H1833 0.930 . S
C1814 C1815 1.474 . S
C1814 C1816 1.285 . S
C1814 H1834 0.929 . S
C1815 C1812 1.461 . S
C1815 C1814 1.474 . S
C1816 C1811 1.342 . S
C1816 C1814 1.285 . S
C1816 H1835 0.930 . S
C1817 C1820 1.424 . S
C1817 C1822 1.245 . S
C1817 C1823 1.428 . S
C1818 C1821 1.260 . S
C1818 C1822 1.477 . S
C1818 H1836 0.932 . S
C1819 C1820 1.384 . S
C1819 C1821 1.479 . S
C1819 H1837 0.929 . S
C1820 C1817 1.424 . S
C1820 C1819 1.384 . S
C1820 H1838 0.928 . S
C1821 C1818 1.260 . S
C1821 C1819 1.479 . S
C1822 C1817 1.245 . S
C1822 C1818 1.477 . S
C1822 H1839 0.932 . S
C1823 U1806 2.882 . S
C1823 C1817 1.428 . S
C1823 O1826 1.301 . S
C1823 O1827 1.282 . S
O1824 U1806 2.441 . S
O1824 C1810 1.249 . S
O1825 U1806 2.420 . S
O1825 C1810 1.202 . S
O1826 U1806 2.455 . S
O1826 C1823 1.301 . S
O1827 U1806 2.449 . S
O1827 C1823 1.282 . S
H1828 C1801 0.931 . S
H1829 C1803 0.929 . S
H1830 C1804 0.930 . S
H1831 C1805 0.931 . S
H1832 C1812 0.932 . S
H1833 C1813 0.930 . S
H1834 C1814 0.929 . S
H1835 C1816 0.930 . S
H1836 C1818 0.932 . S
H1837 C1819 0.929 . S
H1838 C1820 0.928 . S
H1839 C1822 0.932 . S
C1840 C1841 1.264 . S
C1840 C1845 1.479 . S
C1840 C1850 1.465 . S
C1841 C1840 1.264 . S
C1841 C1843 1.339 . S
C1841 H1868 0.931 . S
C1842 C1843 1.395 . S
C1842 C1844 1.320 . S
C1843 C1841 1.339 . S
C1843 C1842 1.395 . S
C1843 H1869 0.929 . S
C1844 C1842 1.320 . S
C1844 C1845 1.405 . S
C1844 H1870 0.930 . S
C1845 C1840 1.479 . S
C1845 C1844 1.405 . S
C1845 H1871 0.931 . S
U1846 O1847 2.454 . S
U1846 O1848 2.458 . S
U1846 C1849 2.984 . S
U1846 C1850 2.847 . S
U1846 C1863 2.882 . S
U1846 O1864 2.441 . S
U1846 O1865 2.420 . S
U1846 O1866 2.455 . S
U1846 O1867 2.449 . S
O1847 U1846 2.454 . S
O1847 C1849 1.353 . S
O1848 U1846 2.458 . S
O1848 C1849 1.286 . S
C1849 U1846 2.984 . S
C1849 O1847 1.353 . S
C1849 O1848 1.286 . S
C1849 C1851 1.363 . S
C1850 C1840 1.465 . S
C1850 U1846 2.847 . S
C1850 O1864 1.249 . S
C1850 O1865 1.202 . S
C1851 C1849 1.363 . S
C1851 C1853 1.408 . S
C1851 C1856 1.342 . S
C1852 C1853 1.310 . S
C1852 C1855 1.461 . S
C1852 H1872 0.932 . S
C1853 C1851 1.408 . S
C1853 C1852 1.310 . S
C1853 H1873 0.930 . S
C1854 C1855 1.474 . S
C1854 C1856 1.285 . S
C1854 H1874 0.929 . S
C1855 C1852 1.461 . S
C1855 C1854 1.474 . S
C1856 C1851 1.342 . S
C1856 C1854 1.285 . S
C1856 H1875 0.930 . S
C1857 C1860 1.424 . S
C1857 C1862 1.245 . S
C1857 C1863 1.428 . S
C1858 C1861 1.260 . S
C1858 C1862 1.477 . S
C1858 H1876 0.932 . S
C1859 C1860 1.384 . S
C1859 C1861 1.479 . S
C1859 H1877 0.929 . S
C1860 C1857 1.424 . S
C1860 C1859 1.384 . S
C1860 H1878 0.928 . S
C1861 C1858 1.260 . S
C1861 C1859 1.479 . S
C1862 C1857 1.245 . S
C1862 C1858 1.477 . S
C1862 H1879 0.932 . S
C1863 U1846 2.882 . S
C1863 C1857 1.428 . S
C1863 O1866 1.301 . S
C1863 O1867 1.282 . S
O1864 U1846 2.441 . S
O1864 C1850 1.249 . S
O1865 U1846 2.420 . S
O1865 C1850 1.202 . S
O1866 U1846 2.455 . S
O1866 C1863 1.301 . S
O1867 U1846 2.449 . S
O1867 C1863 1.282 . S
H1868 C1841 0.931 . S
H1869 C1843 0.929 . S
H1870 C1844 0.930 . S
H1871 C1845 0.931 . S
H1872 C1852 0.932 . S
H1873 C1853 0.930 . S
H1874 C1854 0.929 . S
H1875 C1856 0.930 . S
H1876 C1858 0.932 . S
H1877 C1859 0.929 . S
H1878 C1860 0.928 . S
H1879 C1862 0.932 . S
C1880 C1881 1.264 . S
C1880 C1885 1.479 . S
C1880 C1890 1.465 . S
C1881 C1880 1.264 . S
C1881 C1883 1.339 . S
C1881 H1908 0.931 . S
C1882 C1883 1.395 . S
C1882 C1884 1.320 . S
C1883 C1881 1.339 . S
C1883 C1882 1.395 . S
C1883 H1909 0.929 . S
C1884 C1882 1.320 . S
C1884 C1885 1.405 . S
C1884 H1910 0.930 . S
C1885 C1880 1.479 . S
C1885 C1884 1.405 . S
C1885 H1911 0.931 . S
U1886 O1887 2.454 . S
U1886 O1888 2.458 . S
U1886 C1889 2.984 . S
U1886 C1890 2.847 . S
U1886 C1903 2.882 . S
U1886 O1904 2.441 . S
U1886 O1905 2.420 . S
U1886 O1906 2.455 . S
U1886 O1907 2.449 . S
O1887 U1886 2.454 . S
O1887 C1889 1.353 . S
O1888 U1886 2.458 . S
O1888 C1889 1.286 . S
C1889 U1886 2.984 . S
C1889 O1887 1.353 . S
C1889 O1888 1.286 . S
C1889 C1891 1.363 . S
C1890 C1880 1.465 . S
C1890 U1886 2.847 . S
C1890 O1904 1.249 . S
C1890 O1905 1.202 . S
C1891 C1889 1.363 . S
C1891 C1893 1.408 . S
C1891 C1896 1.342 . S
C1892 C1893 1.310 . S
C1892 C1895 1.461 . S
C1892 H1912 0.932 . S
C1893 C1891 1.408 . S
C1893 C1892 1.310 . S
C1893 H1913 0.930 . S
C1894 C1895 1.474 . S
C1894 C1896 1.285 . S
C1894 H1914 0.929 . S
C1895 C1892 1.461 . S
C1895 C1894 1.474 . S
C1896 C1891 1.342 . S
C1896 C1894 1.285 . S
C1896 H1915 0.930 . S
C1897 C1900 1.424 . S
C1897 C1902 1.245 . S
C1897 C1903 1.428 . S
C1898 C1901 1.260 . S
C1898 C1902 1.477 . S
C1898 H1916 0.932 . S
C1899 C1900 1.384 . S
C1899 C1901 1.479 . S
C1899 H1917 0.929 . S
C1900 C1897 1.424 . S
C1900 C1899 1.384 . S
C1900 H1918 0.928 . S
C1901 C1898 1.260 . S
C1901 C1899 1.479 . S
C1902 C1897 1.245 . S
C1902 C1898 1.477 . S
C1902 H1919 0.932 . S
C1903 U1886 2.882 . S
C1903 C1897 1.428 . S
C1903 O1906 1.301 . S
C1903 O1907 1.282 . S
O1904 U1886 2.441 . S
O1904 C1890 1.249 . S
O1905 U1886 2.420 . S
O1905 C1890 1.202 . S
O1906 U1886 2.455 . S
O1906 C1903 1.301 . S
O1907 U1886 2.449 . S
O1907 C1903 1.282 . S
H1908 C1881 0.931 . S
H1909 C1883 0.929 . S
H1910 C1884 0.930 . S
H1911 C1885 0.931 . S
H1912 C1892 0.932 . S
H1913 C1893 0.930 . S
H1914 C1894 0.929 . S
H1915 C1896 0.930 . S
H1916 C1898 0.932 . S
H1917 C1899 0.929 . S
H1918 C1900 0.928 . S
H1919 C1902 0.932 . S
C1920 C1921 1.264 . S
C1920 C1925 1.479 . S
C1920 C1930 1.465 . S
C1921 C1920 1.264 . S
C1921 C1923 1.339 . S
C1921 H1948 0.931 . S
C1922 C1923 1.395 . S
C1922 C1924 1.320 . S
C1923 C1921 1.339 . S
C1923 C1922 1.395 . S
C1923 H1949 0.929 . S
C1924 C1922 1.320 . S
C1924 C1925 1.405 . S
C1924 H1950 0.930 . S
C1925 C1920 1.479 . S
C1925 C1924 1.405 . S
C1925 H1951 0.931 . S
U1926 O1927 2.454 . S
U1926 O1928 2.458 . S
U1926 C1929 2.984 . S
U1926 C1930 2.847 . S
U1926 C1943 2.882 . S
U1926 O1944 2.441 . S
U1926 O1945 2.420 . S
U1926 O1946 2.455 . S
U1926 O1947 2.449 . S
O1927 U1926 2.454 . S
O1927 C1929 1.353 . S
O1928 U1926 2.458 . S
O1928 C1929 1.286 . S
C1929 U1926 2.984 . S
C1929 O1927 1.353 . S
C1929 O1928 1.286 . S
C1929 C1931 1.363 . S
C1930 C1920 1.465 . S
C1930 U1926 2.847 . S
C1930 O1944 1.249 . S
C1930 O1945 1.202 . S
C1931 C1929 1.363 . S
C1931 C1933 1.408 . S
C1931 C1936 1.342 . S
C1932 C1933 1.310 . S
C1932 C1935 1.461 . S
C1932 H1952 0.932 . S
C1933 C1931 1.408 . S
C1933 C1932 1.310 . S
C1933 H1953 0.930 . S
C1934 C1935 1.474 . S
C1934 C1936 1.285 . S
C1934 H1954 0.929 . S
C1935 C1932 1.461 . S
C1935 C1934 1.474 . S
C1936 C1931 1.342 . S
C1936 C1934 1.285 . S
C1936 H1955 0.930 . S
C1937 C1940 1.424 . S
C1937 C1942 1.245 . S
C1937 C1943 1.428 . S
C1938 C1941 1.260 . S
C1938 C1942 1.477 . S
C1938 H1956 0.932 . S
C1939 C1940 1.384 . S
C1939 C1941 1.479 . S
C1939 H1957 0.929 . S
C1940 C1937 1.424 . S
C1940 C1939 1.384 . S
C1940 H1958 0.928 . S
C1941 C1938 1.260 . S
C1941 C1939 1.479 . S
C1942 C1937 1.245 . S
C1942 C1938 1.477 . S
C1942 H1959 0.932 . S
C1943 U1926 2.882 . S
C1943 C1937 1.428 . S
C1943 O1946 1.301 . S
C1943 O1947 1.282 . S
O1944 U1926 2.441 . S
O1944 C1930 1.249 . S
O1945 U1926 2.420 . S
O1945 C1930 1.202 . S
O1946 U1926 2.455 . S
O1946 C1943 1.301 . S
O1947 U1926 2.449 . S
O1947 C1943 1.282 . S
H1948 C1921 0.931 . S
H1949 C1923 0.929 . S
H1950 C1924 0.930 . S
H1951 C1925 0.931 . S
H1952 C1932 0.932 . S
H1953 C1933 0.930 . S
H1954 C1934 0.929 . S
H1955 C1936 0.930 . S
H1956 C1938 0.932 . S
H1957 C1939 0.929 . S
H1958 C1940 0.928 . S
H1959 C1942 0.932 . S
C1960 C1961 1.264 . S
C1960 C1965 1.479 . S
C1960 C1970 1.465 . S
C1961 C1960 1.264 . S
C1961 C1963 1.339 . S
C1961 H1988 0.931 . S
C1962 C1963 1.395 . S
C1962 C1964 1.320 . S
C1963 C1961 1.339 . S
C1963 C1962 1.395 . S
C1963 H1989 0.929 . S
C1964 C1962 1.320 . S
C1964 C1965 1.405 . S
C1964 H1990 0.930 . S
C1965 C1960 1.479 . S
C1965 C1964 1.405 . S
C1965 H1991 0.931 . S
U1966 O1967 2.454 . S
U1966 O1968 2.458 . S
U1966 C1969 2.984 . S
U1966 C1970 2.847 . S
U1966 C1983 2.882 . S
U1966 O1984 2.441 . S
U1966 O1985 2.420 . S
U1966 O1986 2.455 . S
U1966 O1987 2.449 . S
O1967 U1966 2.454 . S
O1967 C1969 1.353 . S
O1968 U1966 2.458 . S
O1968 C1969 1.286 . S
C1969 U1966 2.984 . S
C1969 O1967 1.353 . S
C1969 O1968 1.286 . S
C1969 C1971 1.363 . S
C1970 C1960 1.465 . S
C1970 U1966 2.847 . S
C1970 O1984 1.249 . S
C1970 O1985 1.202 . S
C1971 C1969 1.363 . S
C1971 C1973 1.408 . S
C1971 C1976 1.342 . S
C1972 C1973 1.310 . S
C1972 C1975 1.461 . S
C1972 H1992 0.932 . S
C1973 C1971 1.408 . S
C1973 C1972 1.310 . S
C1973 H1993 0.930 . S
C1974 C1975 1.474 . S
C1974 C1976 1.285 . S
C1974 H1994 0.929 . S
C1975 C1972 1.461 . S
C1975 C1974 1.474 . S
C1976 C1971 1.342 . S
C1976 C1974 1.285 . S
C1976 H1995 0.930 . S
C1977 C1980 1.424 . S
C1977 C1982 1.245 . S
C1977 C1983 1.428 . S
C1978 C1981 1.260 . S
C1978 C1982 1.477 . S
C1978 H1996 0.932 . S
C1979 C1980 1.384 . S
C1979 C1981 1.479 . S
C1979 H1997 0.929 . S
C1980 C1977 1.424 . S
C1980 C1979 1.384 . S
C1980 H1998 0.928 . S
C1981 C1978 1.260 . S
C1981 C1979 1.479 . S
C1982 C1977 1.245 . S
C1982 C1978 1.477 . S
C1982 H1999 0.932 . S
C1983 U1966 2.882 . S
C1983 C1977 1.428 . S
C1983 O1986 1.301 . S
C1983 O1987 1.282 . S
O1984 U1966 2.441 . S
O1984 C1970 1.249 . S
O1985 U1966 2.420 . S
O1985 C1970 1.202 . S
O1986 U1966 2.455 . S
O1986 C1983 1.301 . S
O1987 U1966 2.449 . S
O1987 C1983 1.282 . S
H1988 C1961 0.931 . S
H1989 C1963 0.929 . S
H1990 C1964 0.930 . S
H1991 C1965 0.931 . S
H1992 C1972 0.932 . S
H1993 C1973 0.930 . S
H1994 C1974 0.929 . S
H1995 C1976 0.930 . S
H1996 C1978 0.932 . S
H1997 C1979 0.929 . S
H1998 C1980 0.928 . S
H1999 C1982 0.932 . S
C2000 C2001 1.264 . S
C2000 C2005 1.479 . S
C2000 C2010 1.465 . S
C2001 C2000 1.264 . S
C2001 C2003 1.339 . S
C2001 H2028 0.931 . S
C2002 C2003 1.395 . S
C2002 C2004 1.320 . S
C2003 C2001 1.339 . S
C2003 C2002 1.395 . S
C2003 H2029 0.929 . S
C2004 C2002 1.320 . S
C2004 C2005 1.405 . S
C2004 H2030 0.930 . S
C2005 C2000 1.479 . S
C2005 C2004 1.405 . S
C2005 H2031 0.931 . S
U2006 O2007 2.454 . S
U2006 O2008 2.458 . S
U2006 C2009 2.984 . S
U2006 C2010 2.847 . S
U2006 C2023 2.882 . S
U2006 O2024 2.441 . S
U2006 O2025 2.420 . S
U2006 O2026 2.455 . S
U2006 O2027 2.449 . S
O2007 U2006 2.454 . S
O2007 C2009 1.353 . S
O2008 U2006 2.458 . S
O2008 C2009 1.286 . S
C2009 U2006 2.984 . S
C2009 O2007 1.353 . S
C2009 O2008 1.286 . S
C2009 C2011 1.363 . S
C2010 C2000 1.465 . S
C2010 U2006 2.847 . S
C2010 O2024 1.249 . S
C2010 O2025 1.202 . S
C2011 C2009 1.363 . S
C2011 C2013 1.408 . S
C2011 C2016 1.342 . S
C2012 C2013 1.310 . S
C2012 C2015 1.461 . S
C2012 H2032 0.932 . S
C2013 C2011 1.408 . S
C2013 C2012 1.310 . S
C2013 H2033 0.930 . S
C2014 C2015 1.474 . S
C2014 C2016 1.285 . S
C2014 H2034 0.929 . S
C2015 C2012 1.461 . S
C2015 C2014 1.474 . S
C2016 C2011 1.342 . S
C2016 C2014 1.285 . S
C2016 H2035 0.930 . S
C2017 C2020 1.424 . S
C2017 C2022 1.245 . S
C2017 C2023 1.428 . S
C2018 C2021 1.260 . S
C2018 C2022 1.477 . S
C2018 H2036 0.932 . S
C2019 C2020 1.384 . S
C2019 C2021 1.479 . S
C2019 H2037 0.929 . S
C2020 C2017 1.424 . S
C2020 C2019 1.384 . S
C2020 H2038 0.928 . S
C2021 C2018 1.260 . S
C2021 C2019 1.479 . S
C2022 C2017 1.245 . S
C2022 C2018 1.477 . S
C2022 H2039 0.932 . S
C2023 U2006 2.882 . S
C2023 C2017 1.428 . S
C2023 O2026 1.301 . S
C2023 O2027 1.282 . S
O2024 U2006 2.441 . S
O2024 C2010 1.249 . S
O2025 U2006 2.420 . S
O2025 C2010 1.202 . S
O2026 U2006 2.455 . S
O2026 C2023 1.301 . S
O2027 U2006 2.449 . S
O2027 C2023 1.282 . S
H2028 C2001 0.931 . S
H2029 C2003 0.929 . S
H2030 C2004 0.930 . S
H2031 C2005 0.931 . S
H2032 C2012 0.932 . S
H2033 C2013 0.930 . S
H2034 C2014 0.929 . S
H2035 C2016 0.930 . S
H2036 C2018 0.932 . S
H2037 C2019 0.929 . S
H2038 C2020 0.928 . S
H2039 C2022 0.932 . S
C2040 C2041 1.264 . S
C2040 C2045 1.479 . S
C2040 C2050 1.465 . S
C2041 C2040 1.264 . S
C2041 C2043 1.339 . S
C2041 H2068 0.931 . S
C2042 C2043 1.395 . S
C2042 C2044 1.320 . S
C2043 C2041 1.339 . S
C2043 C2042 1.395 . S
C2043 H2069 0.929 . S
C2044 C2042 1.320 . S
C2044 C2045 1.405 . S
C2044 H2070 0.930 . S
C2045 C2040 1.479 . S
C2045 C2044 1.405 . S
C2045 H2071 0.931 . S
U2046 O2047 2.454 . S
U2046 O2048 2.458 . S
U2046 C2049 2.984 . S
U2046 C2050 2.847 . S
U2046 C2063 2.882 . S
U2046 O2064 2.441 . S
U2046 O2065 2.420 . S
U2046 O2066 2.455 . S
U2046 O2067 2.449 . S
O2047 U2046 2.454 . S
O2047 C2049 1.353 . S
O2048 U2046 2.458 . S
O2048 C2049 1.286 . S
C2049 U2046 2.984 . S
C2049 O2047 1.353 . S
C2049 O2048 1.286 . S
C2049 C2051 1.363 . S
C2050 C2040 1.465 . S
C2050 U2046 2.847 . S
C2050 O2064 1.249 . S
C2050 O2065 1.202 . S
C2051 C2049 1.363 . S
C2051 C2053 1.408 . S
C2051 C2056 1.342 . S
C2052 C2053 1.310 . S
C2052 C2055 1.461 . S
C2052 H2072 0.932 . S
C2053 C2051 1.408 . S
C2053 C2052 1.310 . S
C2053 H2073 0.930 . S
C2054 C2055 1.474 . S
C2054 C2056 1.285 . S
C2054 H2074 0.929 . S
C2055 C2052 1.461 . S
C2055 C2054 1.474 . S
C2056 C2051 1.342 . S
C2056 C2054 1.285 . S
C2056 H2075 0.930 . S
C2057 C2060 1.424 . S
C2057 C2062 1.245 . S
C2057 C2063 1.428 . S
C2058 C2061 1.260 . S
C2058 C2062 1.477 . S
C2058 H2076 0.932 . S
C2059 C2060 1.384 . S
C2059 C2061 1.479 . S
C2059 H2077 0.929 . S
C2060 C2057 1.424 . S
C2060 C2059 1.384 . S
C2060 H2078 0.928 . S
C2061 C2058 1.260 . S
C2061 C2059 1.479 . S
C2062 C2057 1.245 . S
C2062 C2058 1.477 . S
C2062 H2079 0.932 . S
C2063 U2046 2.882 . S
C2063 C2057 1.428 . S
C2063 O2066 1.301 . S
C2063 O2067 1.282 . S
O2064 U2046 2.441 . S
O2064 C2050 1.249 . S
O2065 U2046 2.420 . S
O2065 C2050 1.202 . S
O2066 U2046 2.455 . S
O2066 C2063 1.301 . S
O2067 U2046 2.449 . S
O2067 C2063 1.282 . S
H2068 C2041 0.931 . S
H2069 C2043 0.929 . S
H2070 C2044 0.930 . S
H2071 C2045 0.931 . S
H2072 C2052 0.932 . S
H2073 C2053 0.930 . S
H2074 C2054 0.929 . S
H2075 C2056 0.930 . S
H2076 C2058 0.932 . S
H2077 C2059 0.929 . S
H2078 C2060 0.928 . S
H2079 C2062 0.932 . S
C2080 C2081 1.264 . S
C2080 C2085 1.479 . S
C2080 C2090 1.465 . S
C2081 C2080 1.264 . S
C2081 C2083 1.339 . S
C2081 H2108 0.931 . S
C2082 C2083 1.395 . S
C2082 C2084 1.320 . S
C2083 C2081 1.339 . S
C2083 C2082 1.395 . S
C2083 H2109 0.929 . S
C2084 C2082 1.320 . S
C2084 C2085 1.405 . S
C2084 H2110 0.930 . S
C2085 C2080 1.479 . S
C2085 C2084 1.405 . S
C2085 H2111 0.931 . S
U2086 O2087 2.454 . S
U2086 O2088 2.458 . S
U2086 C2089 2.984 . S
U2086 C2090 2.847 . S
U2086 C2103 2.882 . S
U2086 O2104 2.441 . S
U2086 O2105 2.420 . S
U2086 O2106 2.455 . S
U2086 O2107 2.449 . S
O2087 U2086 2.454 . S
O2087 C2089 1.353 . S
O2088 U2086 2.458 . S
O2088 C2089 1.286 . S
C2089 U2086 2.984 . S
C2089 O2087 1.353 . S
C2089 O2088 1.286 . S
C2089 C2091 1.363 . S
C2090 C2080 1.465 . S
C2090 U2086 2.847 . S
C2090 O2104 1.249 . S
C2090 O2105 1.202 . S
C2091 C2089 1.363 . S
C2091 C2093 1.408 . S
C2091 C2096 1.342 . S
C2092 C2093 1.310 . S
C2092 C2095 1.461 . S
C2092 H2112 0.932 . S
C2093 C2091 1.408 . S
C2093 C2092 1.310 . S
C2093 H2113 0.930 . S
C2094 C2095 1.474 . S
C2094 C2096 1.285 . S
C2094 H2114 0.929 . S
C2095 C2092 1.461 . S
C2095 C2094 1.474 . S
C2096 C2091 1.342 . S
C2096 C2094 1.285 . S
C2096 H2115 0.930 . S
C2097 C2100 1.424 . S
C2097 C2102 1.245 . S
C2097 C2103 1.428 . S
C2098 C2101 1.260 . S
C2098 C2102 1.477 . S
C2098 H2116 0.932 . S
C2099 C2100 1.384 . S
C2099 C2101 1.479 . S
C2099 H2117 0.929 . S
C2100 C2097 1.424 . S
C2100 C2099 1.384 . S
C2100 H2118 0.928 . S
C2101 C2098 1.260 . S
C2101 C2099 1.479 . S
C2102 C2097 1.245 . S
C2102 C2098 1.477 . S
C2102 H2119 0.932 . S
C2103 U2086 2.882 . S
C2103 C2097 1.428 . S
C2103 O2106 1.301 . S
C2103 O2107 1.282 . S
O2104 U2086 2.441 . S
O2104 C2090 1.249 . S
O2105 U2086 2.420 . S
O2105 C2090 1.202 . S
O2106 U2086 2.455 . S
O2106 C2103 1.301 . S
O2107 U2086 2.449 . S
O2107 C2103 1.282 . S
H2108 C2081 0.931 . S
H2109 C2083 0.929 . S
H2110 C2084 0.930 . S
H2111 C2085 0.931 . S
H2112 C2092 0.932 . S
H2113 C2093 0.930 . S
H2114 C2094 0.929 . S
H2115 C2096 0.930 . S
H2116 C2098 0.932 . S
H2117 C2099 0.929 . S
H2118 C2100 0.928 . S
H2119 C2102 0.932 . S
C2120 C2121 1.264 . S
C2120 C2125 1.479 . S
C2120 C2130 1.465 . S
C2121 C2120 1.264 . S
C2121 C2123 1.339 . S
C2121 H2148 0.931 . S
C2122 C2123 1.395 . S
C2122 C2124 1.320 . S
C2123 C2121 1.339 . S
C2123 C2122 1.395 . S
C2123 H2149 0.929 . S
C2124 C2122 1.320 . S
C2124 C2125 1.405 . S
C2124 H2150 0.930 . S
C2125 C2120 1.479 . S
C2125 C2124 1.405 . S
C2125 H2151 0.931 . S
U2126 O2127 2.454 . S
U2126 O2128 2.458 . S
U2126 C2129 2.984 . S
U2126 C2130 2.847 . S
U2126 C2143 2.882 . S
U2126 O2144 2.441 . S
U2126 O2145 2.420 . S
U2126 O2146 2.455 . S
U2126 O2147 2.449 . S
O2127 U2126 2.454 . S
O2127 C2129 1.353 . S
O2128 U2126 2.458 . S
O2128 C2129 1.286 . S
C2129 U2126 2.984 . S
C2129 O2127 1.353 . S
C2129 O2128 1.286 . S
C2129 C2131 1.363 . S
C2130 C2120 1.465 . S
C2130 U2126 2.847 . S
C2130 O2144 1.249 . S
C2130 O2145 1.202 . S
C2131 C2129 1.363 . S
C2131 C2133 1.408 . S
C2131 C2136 1.342 . S
C2132 C2133 1.310 . S
C2132 C2135 1.461 . S
C2132 H2152 0.932 . S
C2133 C2131 1.408 . S
C2133 C2132 1.310 . S
C2133 H2153 0.930 . S
C2134 C2135 1.474 . S
C2134 C2136 1.285 . S
C2134 H2154 0.929 . S
C2135 C2132 1.461 . S
C2135 C2134 1.474 . S
C2136 C2131 1.342 . S
C2136 C2134 1.285 . S
C2136 H2155 0.930 . S
C2137 C2140 1.424 . S
C2137 C2142 1.245 . S
C2137 C2143 1.428 . S
C2138 C2141 1.260 . S
C2138 C2142 1.477 . S
C2138 H2156 0.932 . S
C2139 C2140 1.384 . S
C2139 C2141 1.479 . S
C2139 H2157 0.929 . S
C2140 C2137 1.424 . S
C2140 C2139 1.384 . S
C2140 H2158 0.928 . S
C2141 C2138 1.260 . S
C2141 C2139 1.479 . S
C2142 C2137 1.245 . S
C2142 C2138 1.477 . S
C2142 H2159 0.932 . S
C2143 U2126 2.882 . S
C2143 C2137 1.428 . S
C2143 O2146 1.301 . S
C2143 O2147 1.282 . S
O2144 U2126 2.441 . S
O2144 C2130 1.249 . S
O2145 U2126 2.420 . S
O2145 C2130 1.202 . S
O2146 U2126 2.455 . S
O2146 C2143 1.301 . S
O2147 U2126 2.449 . S
O2147 C2143 1.282 . S
H2148 C2121 0.931 . S
H2149 C2123 0.929 . S
H2150 C2124 0.930 . S
H2151 C2125 0.931 . S
H2152 C2132 0.932 . S
H2153 C2133 0.930 . S
H2154 C2134 0.929 . S
H2155 C2136 0.930 . S
H2156 C2138 0.932 . S
H2157 C2139 0.929 . S
H2158 C2140 0.928 . S
H2159 C2142 0.932 . S
C2160 C2161 1.264 . S
C2160 C2165 1.479 . S
C2160 C2170 1.465 . S
C2161 C2160 1.264 . S
C2161 C2163 1.339 . S
C2161 H2188 0.931 . S
C2162 C2163 1.395 . S
C2162 C2164 1.320 . S
C2163 C2161 1.339 . S
C2163 C2162 1.395 . S
C2163 H2189 0.929 . S
C2164 C2162 1.320 . S
C2164 C2165 1.405 . S
C2164 H2190 0.930 . S
C2165 C2160 1.479 . S
C2165 C2164 1.405 . S
C2165 H2191 0.931 . S
U2166 O2167 2.454 . S
U2166 O2168 2.458 . S
U2166 C2169 2.984 . S
U2166 C2170 2.847 . S
U2166 C2183 2.882 . S
U2166 O2184 2.441 . S
U2166 O2185 2.420 . S
U2166 O2186 2.455 . S
U2166 O2187 2.449 . S
O2167 U2166 2.454 . S
O2167 C2169 1.353 . S
O2168 U2166 2.458 . S
O2168 C2169 1.286 . S
C2169 U2166 2.984 . S
C2169 O2167 1.353 . S
C2169 O2168 1.286 . S
C2169 C2171 1.363 . S
C2170 C2160 1.465 . S
C2170 U2166 2.847 . S
C2170 O2184 1.249 . S
C2170 O2185 1.202 . S
C2171 C2169 1.363 . S
C2171 C2173 1.408 . S
C2171 C2176 1.342 . S
C2172 C2173 1.310 . S
C2172 C2175 1.461 . S
C2172 H2192 0.932 . S
C2173 C2171 1.408 . S
C2173 C2172 1.310 . S
C2173 H2193 0.930 . S
C2174 C2175 1.474 . S
C2174 C2176 1.285 . S
C2174 H2194 0.929 . S
C2175 C2172 1.461 . S
C2175 C2174 1.474 . S
C2176 C2171 1.342 . S
C2176 C2174 1.285 . S
C2176 H2195 0.930 . S
C2177 C2180 1.424 . S
C2177 C2182 1.245 . S
C2177 C2183 1.428 . S
C2178 C2181 1.260 . S
C2178 C2182 1.477 . S
C2178 H2196 0.932 . S
C2179 C2180 1.384 . S
C2179 C2181 1.479 . S
C2179 H2197 0.929 . S
C2180 C2177 1.424 . S
C2180 C2179 1.384 . S
C2180 H2198 0.928 . S
C2181 C2178 1.260 . S
C2181 C2179 1.479 . S
C2182 C2177 1.245 . S
C2182 C2178 1.477 . S
C2182 H2199 0.932 . S
C2183 U2166 2.882 . S
C2183 C2177 1.428 . S
C2183 O2186 1.301 . S
C2183 O2187 1.282 . S
O2184 U2166 2.441 . S
O2184 C2170 1.249 . S
O2185 U2166 2.420 . S
O2185 C2170 1.202 . S
O2186 U2166 2.455 . S
O2186 C2183 1.301 . S
O2187 U2166 2.449 . S
O2187 C2183 1.282 . S
H2188 C2161 0.931 . S
H2189 C2163 0.929 . S
H2190 C2164 0.930 . S
H2191 C2165 0.931 . S
H2192 C2172 0.932 . S
H2193 C2173 0.930 . S
H2194 C2174 0.929 . S
H2195 C2176 0.930 . S
H2196 C2178 0.932 . S
H2197 C2179 0.929 . S
H2198 C2180 0.928 . S
H2199 C2182 0.932 . S
C2200 C2201 1.264 . S
C2200 C2205 1.479 . S
C2200 C2210 1.465 . S
C2201 C2200 1.264 . S
C2201 C2203 1.339 . S
C2201 H2228 0.931 . S
C2202 C2203 1.395 . S
C2202 C2204 1.320 . S
C2203 C2201 1.339 . S
C2203 C2202 1.395 . S
C2203 H2229 0.929 . S
C2204 C2202 1.320 . S
C2204 C2205 1.405 . S
C2204 H2230 0.930 . S
C2205 C2200 1.479 . S
C2205 C2204 1.405 . S
C2205 H2231 0.931 . S
U2206 O2207 2.454 . S
U2206 O2208 2.458 . S
U2206 C2209 2.984 . S
U2206 C2210 2.847 . S
U2206 C2223 2.882 . S
U2206 O2224 2.441 . S
U2206 O2225 2.420 . S
U2206 O2226 2.455 . S
U2206 O2227 2.449 . S
O2207 U2206 2.454 . S
O2207 C2209 1.353 . S
O2208 U2206 2.458 . S
O2208 C2209 1.286 . S
C2209 U2206 2.984 . S
C2209 O2207 1.353 . S
C2209 O2208 1.286 . S
C2209 C2211 1.363 . S
C2210 C2200 1.465 . S
C2210 U2206 2.847 . S
C2210 O2224 1.249 . S
C2210 O2225 1.202 . S
C2211 C2209 1.363 . S
C2211 C2213 1.408 . S
C2211 C2216 1.342 . S
C2212 C2213 1.310 . S
C2212 C2215 1.461 . S
C2212 H2232 0.932 . S
C2213 C2211 1.408 . S
C2213 C2212 1.310 . S
C2213 H2233 0.930 . S
C2214 C2215 1.474 . S
C2214 C2216 1.285 . S
C2214 H2234 0.929 . S
C2215 C2212 1.461 . S
C2215 C2214 1.474 . S
C2216 C2211 1.342 . S
C2216 C2214 1.285 . S
C2216 H2235 0.930 . S
C2217 C2220 1.424 . S
C2217 C2222 1.245 . S
C2217 C2223 1.428 . S
C2218 C2221 1.260 . S
C2218 C2222 1.477 . S
C2218 H2236 0.932 . S
C2219 C2220 1.384 . S
C2219 C2221 1.479 . S
C2219 H2237 0.929 . S
C2220 C2217 1.424 . S
C2220 C2219 1.384 . S
C2220 H2238 0.928 . S
C2221 C2218 1.260 . S
C2221 C2219 1.479 . S
C2222 C2217 1.245 . S
C2222 C2218 1.477 . S
C2222 H2239 0.932 . S
C2223 U2206 2.882 . S
C2223 C2217 1.428 . S
C2223 O2226 1.301 . S
C2223 O2227 1.282 . S
O2224 U2206 2.441 . S
O2224 C2210 1.249 . S
O2225 U2206 2.420 . S
O2225 C2210 1.202 . S
O2226 U2206 2.455 . S
O2226 C2223 1.301 . S
O2227 U2206 2.449 . S
O2227 C2223 1.282 . S
H2228 C2201 0.931 . S
H2229 C2203 0.929 . S
H2230 C2204 0.930 . S
H2231 C2205 0.931 . S
H2232 C2212 0.932 . S
H2233 C2213 0.930 . S
H2234 C2214 0.929 . S
H2235 C2216 0.930 . S
H2236 C2218 0.932 . S
H2237 C2219 0.929 . S
H2238 C2220 0.928 . S
H2239 C2222 0.932 . S
C2240 C2241 1.264 . S
C2240 C2245 1.479 . S
C2240 C2250 1.465 . S
C2241 C2240 1.264 . S
C2241 C2243 1.339 . S
C2241 H2268 0.931 . S
C2242 C2243 1.395 . S
C2242 C2244 1.320 . S
C2243 C2241 1.339 . S
C2243 C2242 1.395 . S
C2243 H2269 0.929 . S
C2244 C2242 1.320 . S
C2244 C2245 1.405 . S
C2244 H2270 0.930 . S
C2245 C2240 1.479 . S
C2245 C2244 1.405 . S
C2245 H2271 0.931 . S
U2246 O2247 2.454 . S
U2246 O2248 2.458 . S
U2246 C2249 2.984 . S
U2246 C2250 2.847 . S
U2246 C2263 2.882 . S
U2246 O2264 2.441 . S
U2246 O2265 2.420 . S
U2246 O2266 2.455 . S
U2246 O2267 2.449 . S
O2247 U2246 2.454 . S
O2247 C2249 1.353 . S
O2248 U2246 2.458 . S
O2248 C2249 1.286 . S
C2249 U2246 2.984 . S
C2249 O2247 1.353 . S
C2249 O2248 1.286 . S
C2249 C2251 1.363 . S
C2250 C2240 1.465 . S
C2250 U2246 2.847 . S
C2250 O2264 1.249 . S
C2250 O2265 1.202 . S
C2251 C2249 1.363 . S
C2251 C2253 1.408 . S
C2251 C2256 1.342 . S
C2252 C2253 1.310 . S
C2252 C2255 1.461 . S
C2252 H2272 0.932 . S
C2253 C2251 1.408 . S
C2253 C2252 1.310 . S
C2253 H2273 0.930 . S
C2254 C2255 1.474 . S
C2254 C2256 1.285 . S
C2254 H2274 0.929 . S
C2255 C2252 1.461 . S
C2255 C2254 1.474 . S
C2256 C2251 1.342 . S
C2256 C2254 1.285 . S
C2256 H2275 0.930 . S
C2257 C2260 1.424 . S
C2257 C2262 1.245 . S
C2257 C2263 1.428 . S
C2258 C2261 1.260 . S
C2258 C2262 1.477 . S
C2258 H2276 0.932 . S
C2259 C2260 1.384 . S
C2259 C2261 1.479 . S
C2259 H2277 0.929 . S
C2260 C2257 1.424 . S
C2260 C2259 1.384 . S
C2260 H2278 0.928 . S
C2261 C2258 1.260 . S
C2261 C2259 1.479 . S
C2262 C2257 1.245 . S
C2262 C2258 1.477 . S
C2262 H2279 0.932 . S
C2263 U2246 2.882 . S
C2263 C2257 1.428 . S
C2263 O2266 1.301 . S
C2263 O2267 1.282 . S
O2264 U2246 2.441 . S
O2264 C2250 1.249 . S
O2265 U2246 2.420 . S
O2265 C2250 1.202 . S
O2266 U2246 2.455 . S
O2266 C2263 1.301 . S
O2267 U2246 2.449 . S
O2267 C2263 1.282 . S
H2268 C2241 0.931 . S
H2269 C2243 0.929 . S
H2270 C2244 0.930 . S
H2271 C2245 0.931 . S
H2272 C2252 0.932 . S
H2273 C2253 0.930 . S
H2274 C2254 0.929 . S
H2275 C2256 0.930 . S
H2276 C2258 0.932 . S
H2277 C2259 0.929 . S
H2278 C2260 0.928 . S
H2279 C2262 0.932 . S
C2280 C2281 1.264 . S
C2280 C2285 1.479 . S
C2280 C2290 1.465 . S
C2281 C2280 1.264 . S
C2281 C2283 1.339 . S
C2281 H2308 0.931 . S
C2282 C2283 1.395 . S
C2282 C2284 1.320 . S
C2283 C2281 1.339 . S
C2283 C2282 1.395 . S
C2283 H2309 0.929 . S
C2284 C2282 1.320 . S
C2284 C2285 1.405 . S
C2284 H2310 0.930 . S
C2285 C2280 1.479 . S
C2285 C2284 1.405 . S
C2285 H2311 0.931 . S
U2286 O2287 2.454 . S
U2286 O2288 2.458 . S
U2286 C2289 2.984 . S
U2286 C2290 2.847 . S
U2286 C2303 2.882 . S
U2286 O2304 2.441 . S
U2286 O2305 2.420 . S
U2286 O2306 2.455 . S
U2286 O2307 2.449 . S
O2287 U2286 2.454 . S
O2287 C2289 1.353 . S
O2288 U2286 2.458 . S
O2288 C2289 1.286 . S
C2289 U2286 2.984 . S
C2289 O2287 1.353 . S
C2289 O2288 1.286 . S
C2289 C2291 1.363 . S
C2290 C2280 1.465 . S
C2290 U2286 2.847 . S
C2290 O2304 1.249 . S
C2290 O2305 1.202 . S
C2291 C2289 1.363 . S
C2291 C2293 1.408 . S
C2291 C2296 1.342 . S
C2292 C2293 1.310 . S
C2292 C2295 1.461 . S
C2292 H2312 0.932 . S
C2293 C2291 1.408 . S
C2293 C2292 1.310 . S
C2293 H2313 0.930 . S
C2294 C2295 1.474 . S
C2294 C2296 1.285 . S
C2294 H2314 0.929 . S
C2295 C2292 1.461 . S
C2295 C2294 1.474 . S
C2296 C2291 1.342 . S
C2296 C2294 1.285 . S
C2296 H2315 0.930 . S
C2297 C2300 1.424 . S
C2297 C2302 1.245 . S
C2297 C2303 1.428 . S
C2298 C2301 1.260 . S
C2298 C2302 1.477 . S
C2298 H2316 0.932 . S
C2299 C2300 1.384 . S
C2299 C2301 1.479 . S
C2299 H2317 0.929 . S
C2300 C2297 1.424 . S
C2300 C2299 1.384 . S
C2300 H2318 0.928 . S
C2301 C2298 1.260 . S
C2301 C2299 1.479 . S
C2302 C2297 1.245 . S
C2302 C2298 1.477 . S
C2302 H2319 0.932 . S
C2303 U2286 2.882 . S
C2303 C2297 1.428 . S
C2303 O2306 1.301 . S
C2303 O2307 1.282 . S
O2304 U2286 2.441 . S
O2304 C2290 1.249 . S
O2305 U2286 2.420 . S
O2305 C2290 1.202 . S
O2306 U2286 2.455 . S
O2306 C2303 1.301 . S
O2307 U2286 2.449 . S
O2307 C2303 1.282 . S
H2308 C2281 0.931 . S
H2309 C2283 0.929 . S
H2310 C2284 0.930 . S
H2311 C2285 0.931 . S
H2312 C2292 0.932 . S
H2313 C2293 0.930 . S
H2314 C2294 0.929 . S
H2315 C2296 0.930 . S
H2316 C2298 0.932 . S
H2317 C2299 0.929 . S
H2318 C2300 0.928 . S
H2319 C2302 0.932 . S
C2320 C2321 1.264 . S
C2320 C2325 1.479 . S
C2320 C2330 1.465 . S
C2321 C2320 1.264 . S
C2321 C2323 1.339 . S
C2321 H2348 0.931 . S
C2322 C2323 1.395 . S
C2322 C2324 1.320 . S
C2323 C2321 1.339 . S
C2323 C2322 1.395 . S
C2323 H2349 0.929 . S
C2324 C2322 1.320 . S
C2324 C2325 1.405 . S
C2324 H2350 0.930 . S
C2325 C2320 1.479 . S
C2325 C2324 1.405 . S
C2325 H2351 0.931 . S
U2326 O2327 2.454 . S
U2326 O2328 2.458 . S
U2326 C2329 2.984 . S
U2326 C2330 2.847 . S
U2326 C2343 2.882 . S
U2326 O2344 2.441 . S
U2326 O2345 2.420 . S
U2326 O2346 2.455 . S
U2326 O2347 2.449 . S
O2327 U2326 2.454 . S
O2327 C2329 1.353 . S
O2328 U2326 2.458 . S
O2328 C2329 1.286 . S
C2329 U2326 2.984 . S
C2329 O2327 1.353 . S
C2329 O2328 1.286 . S
C2329 C2331 1.363 . S
C2330 C2320 1.465 . S
C2330 U2326 2.847 . S
C2330 O2344 1.249 . S
C2330 O2345 1.202 . S
C2331 C2329 1.363 . S
C2331 C2333 1.408 . S
C2331 C2336 1.342 . S
C2332 C2333 1.310 . S
C2332 C2335 1.461 . S
C2332 H2352 0.932 . S
C2333 C2331 1.408 . S
C2333 C2332 1.310 . S
C2333 H2353 0.930 . S
C2334 C2335 1.474 . S
C2334 C2336 1.285 . S
C2334 H2354 0.929 . S
C2335 C2332 1.461 . S
C2335 C2334 1.474 . S
C2336 C2331 1.342 . S
C2336 C2334 1.285 . S
C2336 H2355 0.930 . S
C2337 C2340 1.424 . S
C2337 C2342 1.245 . S
C2337 C2343 1.428 . S
C2338 C2341 1.260 . S
C2338 C2342 1.477 . S
C2338 H2356 0.932 . S
C2339 C2340 1.384 . S
C2339 C2341 1.479 . S
C2339 H2357 0.929 . S
C2340 C2337 1.424 . S
C2340 C2339 1.384 . S
C2340 H2358 0.928 . S
C2341 C2338 1.260 . S
C2341 C2339 1.479 . S
C2342 C2337 1.245 . S
C2342 C2338 1.477 . S
C2342 H2359 0.932 . S
C2343 U2326 2.882 . S
C2343 C2337 1.428 . S
C2343 O2346 1.301 . S
C2343 O2347 1.282 . S
O2344 U2326 2.441 . S
O2344 C2330 1.249 . S
O2345 U2326 2.420 . S
O2345 C2330 1.202 . S
O2346 U2326 2.455 . S
O2346 C2343 1.301 . S
O2347 U2326 2.449 . S
O2347 C2343 1.282 . S
H2348 C2321 0.931 . S
H2349 C2323 0.929 . S
H2350 C2324 0.930 . S
H2351 C2325 0.931 . S
H2352 C2332 0.932 . S
H2353 C2333 0.930 . S
H2354 C2334 0.929 . S
H2355 C2336 0.930 . S
H2356 C2338 0.932 . S
H2357 C2339 0.929 . S
H2358 C2340 0.928 . S
H2359 C2342 0.932 . S
C2360 C2361 1.264 . S
C2360 C2365 1.479 . S
C2360 C2370 1.465 . S
C2361 C2360 1.264 . S
C2361 C2363 1.339 . S
C2361 H2388 0.931 . S
C2362 C2363 1.395 . S
C2362 C2364 1.320 . S
C2363 C2361 1.339 . S
C2363 C2362 1.395 . S
C2363 H2389 0.929 . S
C2364 C2362 1.320 . S
C2364 C2365 1.405 . S
C2364 H2390 0.930 . S
C2365 C2360 1.479 . S
C2365 C2364 1.405 . S
C2365 H2391 0.931 . S
U2366 O2367 2.454 . S
U2366 O2368 2.458 . S
U2366 C2369 2.984 . S
U2366 C2370 2.847 . S
U2366 C2383 2.882 . S
U2366 O2384 2.441 . S
U2366 O2385 2.420 . S
U2366 O2386 2.455 . S
U2366 O2387 2.449 . S
O2367 U2366 2.454 . S
O2367 C2369 1.353 . S
O2368 U2366 2.458 . S
O2368 C2369 1.286 . S
C2369 U2366 2.984 . S
C2369 O2367 1.353 . S
C2369 O2368 1.286 . S
C2369 C2371 1.363 . S
C2370 C2360 1.465 . S
C2370 U2366 2.847 . S
C2370 O2384 1.249 . S
C2370 O2385 1.202 . S
C2371 C2369 1.363 . S
C2371 C2373 1.408 . S
C2371 C2376 1.342 . S
C2372 C2373 1.310 . S
C2372 C2375 1.461 . S
C2372 H2392 0.932 . S
C2373 C2371 1.408 . S
C2373 C2372 1.310 . S
C2373 H2393 0.930 . S
C2374 C2375 1.474 . S
C2374 C2376 1.285 . S
C2374 H2394 0.929 . S
C2375 C2372 1.461 . S
C2375 C2374 1.474 . S
C2376 C2371 1.342 . S
C2376 C2374 1.285 . S
C2376 H2395 0.930 . S
C2377 C2380 1.424 . S
C2377 C2382 1.245 . S
C2377 C2383 1.428 . S
C2378 C2381 1.260 . S
C2378 C2382 1.477 . S
C2378 H2396 0.932 . S
C2379 C2380 1.384 . S
C2379 C2381 1.479 . S
C2379 H2397 0.929 . S
C2380 C2377 1.424 . S
C2380 C2379 1.384 . S
C2380 H2398 0.928 . S
C2381 C2378 1.260 . S
C2381 C2379 1.479 . S
C2382 C2377 1.245 . S
C2382 C2378 1.477 . S
C2382 H2399 0.932 . S
C2383 U2366 2.882 . S
C2383 C2377 1.428 . S
C2383 O2386 1.301 . S
C2383 O2387 1.282 . S
O2384 U2366 2.441 . S
O2384 C2370 1.249 . S
O2385 U2366 2.420 . S
O2385 C2370 1.202 . S
O2386 U2366 2.455 . S
O2386 C2383 1.301 . S
O2387 U2366 2.449 . S
O2387 C2383 1.282 . S
H2388 C2361 0.931 . S
H2389 C2363 0.929 . S
H2390 C2364 0.930 . S
H2391 C2365 0.931 . S
H2392 C2372 0.932 . S
H2393 C2373 0.930 . S
H2394 C2374 0.929 . S
H2395 C2376 0.930 . S
H2396 C2378 0.932 . S
H2397 C2379 0.929 . S
H2398 C2380 0.928 . S
H2399 C2382 0.932 . S
C2400 C2401 1.264 . S
C2400 C2405 1.479 . S
C2400 C2410 1.465 . S
C2401 C2400 1.264 . S
C2401 C2403 1.339 . S
C2401 H2428 0.931 . S
C2402 C2403 1.395 . S
C2402 C2404 1.320 . S
C2403 C2401 1.339 . S
C2403 C2402 1.395 . S
C2403 H2429 0.929 . S
C2404 C2402 1.320 . S
C2404 C2405 1.405 . S
C2404 H2430 0.930 . S
C2405 C2400 1.479 . S
C2405 C2404 1.405 . S
C2405 H2431 0.931 . S
U2406 O2407 2.454 . S
U2406 O2408 2.458 . S
U2406 C2409 2.984 . S
U2406 C2410 2.847 . S
U2406 C2423 2.882 . S
U2406 O2424 2.441 . S
U2406 O2425 2.420 . S
U2406 O2426 2.455 . S
U2406 O2427 2.449 . S
O2407 U2406 2.454 . S
O2407 C2409 1.353 . S
O2408 U2406 2.458 . S
O2408 C2409 1.286 . S
C2409 U2406 2.984 . S
C2409 O2407 1.353 . S
C2409 O2408 1.286 . S
C2409 C2411 1.363 . S
C2410 C2400 1.465 . S
C2410 U2406 2.847 . S
C2410 O2424 1.249 . S
C2410 O2425 1.202 . S
C2411 C2409 1.363 . S
C2411 C2413 1.408 . S
C2411 C2416 1.342 . S
C2412 C2413 1.310 . S
C2412 C2415 1.461 . S
C2412 H2432 0.932 . S
C2413 C2411 1.408 . S
C2413 C2412 1.310 . S
C2413 H2433 0.930 . S
C2414 C2415 1.474 . S
C2414 C2416 1.285 . S
C2414 H2434 0.929 . S
C2415 C2412 1.461 . S
C2415 C2414 1.474 . S
C2416 C2411 1.342 . S
C2416 C2414 1.285 . S
C2416 H2435 0.930 . S
C2417 C2420 1.424 . S
C2417 C2422 1.245 . S
C2417 C2423 1.428 . S
C2418 C2421 1.260 . S
C2418 C2422 1.477 . S
C2418 H2436 0.932 . S
C2419 C2420 1.384 . S
C2419 C2421 1.479 . S
C2419 H2437 0.929 . S
C2420 C2417 1.424 . S
C2420 C2419 1.384 . S
C2420 H2438 0.928 . S
C2421 C2418 1.260 . S
C2421 C2419 1.479 . S
C2422 C2417 1.245 . S
C2422 C2418 1.477 . S
C2422 H2439 0.932 . S
C2423 U2406 2.882 . S
C2423 C2417 1.428 . S
C2423 O2426 1.301 . S
C2423 O2427 1.282 . S
O2424 U2406 2.441 . S
O2424 C2410 1.249 . S
O2425 U2406 2.420 . S
O2425 C2410 1.202 . S
O2426 U2406 2.455 . S
O2426 C2423 1.301 . S
O2427 U2406 2.449 . S
O2427 C2423 1.282 . S
H2428 C2401 0.931 . S
H2429 C2403 0.929 . S
H2430 C2404 0.930 . S
H2431 C2405 0.931 . S
H2432 C2412 0.932 . S
H2433 C2413 0.930 . S
H2434 C2414 0.929 . S
H2435 C2416 0.930 . S
H2436 C2418 0.932 . S
H2437 C2419 0.929 . S
H2438 C2420 0.928 . S
H2439 C2422 0.932 . S
C2440 C2441 1.264 . S
C2440 C2445 1.479 . S
C2440 C2450 1.465 . S
C2441 C2440 1.264 . S
C2441 C2443 1.339 . S
C2441 H2468 0.931 . S
C2442 C2443 1.395 . S
C2442 C2444 1.320 . S
C2443 C2441 1.339 . S
C2443 C2442 1.395 . S
C2443 H2469 0.929 . S
C2444 C2442 1.320 . S
C2444 C2445 1.405 . S
C2444 H2470 0.930 . S
C2445 C2440 1.479 . S
C2445 C2444 1.405 . S
C2445 H2471 0.931 . S
U2446 O2447 2.454 . S
U2446 O2448 2.458 . S
U2446 C2449 2.984 . S
U2446 C2450 2.847 . S
U2446 C2463 2.882 . S
U2446 O2464 2.441 . S
U2446 O2465 2.420 . S
U2446 O2466 2.455 . S
U2446 O2467 2.449 . S
O2447 U2446 2.454 . S
O2447 C2449 1.353 . S
O2448 U2446 2.458 . S
O2448 C2449 1.286 . S
C2449 U2446 2.984 . S
C2449 O2447 1.353 . S
C2449 O2448 1.286 . S
C2449 C2451 1.363 . S
C2450 C2440 1.465 . S
C2450 U2446 2.847 . S
C2450 O2464 1.249 . S
C2450 O2465 1.202 . S
C2451 C2449 1.363 . S
C2451 C2453 1.408 . S
C2451 C2456 1.342 . S
C2452 C2453 1.310 . S
C2452 C2455 1.461 . S
C2452 H2472 0.932 . S
C2453 C2451 1.408 . S
C2453 C2452 1.310 . S
C2453 H2473 0.930 . S
C2454 C2455 1.474 . S
C2454 C2456 1.285 . S
C2454 H2474 0.929 . S
C2455 C2452 1.461 . S
C2455 C2454 1.474 . S
C2456 C2451 1.342 . S
C2456 C2454 1.285 . S
C2456 H2475 0.930 . S
C2457 C2460 1.424 . S
C2457 C2462 1.245 . S
C2457 C2463 1.428 . S
C2458 C2461 1.260 . S
C2458 C2462 1.477 . S
C2458 H2476 0.932 . S
C2459 C2460 1.384 . S
C2459 C2461 1.479 . S
C2459 H2477 0.929 . S
C2460 C2457 1.424 . S
C2460 C2459 1.384 . S
C2460 H2478 0.928 . S
C2461 C2458 1.260 . S
C2461 C2459 1.479 . S
C2462 C2457 1.245 . S
C2462 C2458 1.477 . S
C2462 H2479 0.932 . S
C2463 U2446 2.882 . S
C2463 C2457 1.428 . S
C2463 O2466 1.301 . S
C2463 O2467 1.282 . S
O2464 U2446 2.441 . S
O2464 C2450 1.249 . S
O2465 U2446 2.420 . S
O2465 C2450 1.202 . S
O2466 U2446 2.455 . S
O2466 C2463 1.301 . S
O2467 U2446 2.449 . S
O2467 C2463 1.282 . S
H2468 C2441 0.931 . S
H2469 C2443 0.929 . S
H2470 C2444 0.930 . S
H2471 C2445 0.931 . S
H2472 C2452 0.932 . S
H2473 C2453 0.930 . S
H2474 C2454 0.929 . S
H2475 C2456 0.930 . S
H2476 C2458 0.932 . S
H2477 C2459 0.929 . S
H2478 C2460 0.928 . S
H2479 C2462 0.932 . S
C2480 C2481 1.264 . S
C2480 C2485 1.479 . S
C2480 C2490 1.465 . S
C2481 C2480 1.264 . S
C2481 C2483 1.339 . S
C2481 H2508 0.931 . S
C2482 C2483 1.395 . S
C2482 C2484 1.320 . S
C2483 C2481 1.339 . S
C2483 C2482 1.395 . S
C2483 H2509 0.929 . S
C2484 C2482 1.320 . S
C2484 C2485 1.405 . S
C2484 H2510 0.930 . S
C2485 C2480 1.479 . S
C2485 C2484 1.405 . S
C2485 H2511 0.931 . S
U2486 O2487 2.454 . S
U2486 O2488 2.458 . S
U2486 C2489 2.984 . S
U2486 C2490 2.847 . S
U2486 C2503 2.882 . S
U2486 O2504 2.441 . S
U2486 O2505 2.420 . S
U2486 O2506 2.455 . S
U2486 O2507 2.449 . S
O2487 U2486 2.454 . S
O2487 C2489 1.353 . S
O2488 U2486 2.458 . S
O2488 C2489 1.286 . S
C2489 U2486 2.984 . S
C2489 O2487 1.353 . S
C2489 O2488 1.286 . S
C2489 C2491 1.363 . S
C2490 C2480 1.465 . S
C2490 U2486 2.847 . S
C2490 O2504 1.249 . S
C2490 O2505 1.202 . S
C2491 C2489 1.363 . S
C2491 C2493 1.408 . S
C2491 C2496 1.342 . S
C2492 C2493 1.310 . S
C2492 C2495 1.461 . S
C2492 H2512 0.932 . S
C2493 C2491 1.408 . S
C2493 C2492 1.310 . S
C2493 H2513 0.930 . S
C2494 C2495 1.474 . S
C2494 C2496 1.285 . S
C2494 H2514 0.929 . S
C2495 C2492 1.461 . S
C2495 C2494 1.474 . S
C2496 C2491 1.342 . S
C2496 C2494 1.285 . S
C2496 H2515 0.930 . S
C2497 C2500 1.424 . S
C2497 C2502 1.245 . S
C2497 C2503 1.428 . S
C2498 C2501 1.260 . S
C2498 C2502 1.477 . S
C2498 H2516 0.932 . S
C2499 C2500 1.384 . S
C2499 C2501 1.479 . S
C2499 H2517 0.929 . S
C2500 C2497 1.424 . S
C2500 C2499 1.384 . S
C2500 H2518 0.928 . S
C2501 C2498 1.260 . S
C2501 C2499 1.479 . S
C2502 C2497 1.245 . S
C2502 C2498 1.477 . S
C2502 H2519 0.932 . S
C2503 U2486 2.882 . S
C2503 C2497 1.428 . S
C2503 O2506 1.301 . S
C2503 O2507 1.282 . S
O2504 U2486 2.441 . S
O2504 C2490 1.249 . S
O2505 U2486 2.420 . S
O2505 C2490 1.202 . S
O2506 U2486 2.455 . S
O2506 C2503 1.301 . S
O2507 U2486 2.449 . S
O2507 C2503 1.282 . S
H2508 C2481 0.931 . S
H2509 C2483 0.929 . S
H2510 C2484 0.930 . S
H2511 C2485 0.931 . S
H2512 C2492 0.932 . S
H2513 C2493 0.930 . S
H2514 C2494 0.929 . S
H2515 C2496 0.930 . S
H2516 C2498 0.932 . S
H2517 C2499 0.929 . S
H2518 C2500 0.928 . S
H2519 C2502 0.932 . S
C2520 C2521 1.264 . S
C2520 C2525 1.479 . S
C2520 C2530 1.465 . S
C2521 C2520 1.264 . S
C2521 C2523 1.339 . S
C2521 H2548 0.931 . S
C2522 C2523 1.395 . S
C2522 C2524 1.320 . S
C2523 C2521 1.339 . S
C2523 C2522 1.395 . S
C2523 H2549 0.929 . S
C2524 C2522 1.320 . S
C2524 C2525 1.405 . S
C2524 H2550 0.930 . S
C2525 C2520 1.479 . S
C2525 C2524 1.405 . S
C2525 H2551 0.931 . S
U2526 O2527 2.454 . S
U2526 O2528 2.458 . S
U2526 C2529 2.984 . S
U2526 C2530 2.847 . S
U2526 C2543 2.882 . S
U2526 O2544 2.441 . S
U2526 O2545 2.420 . S
U2526 O2546 2.455 . S
U2526 O2547 2.449 . S
O2527 U2526 2.454 . S
O2527 C2529 1.353 . S
O2528 U2526 2.458 . S
O2528 C2529 1.286 . S
C2529 U2526 2.984 . S
C2529 O2527 1.353 . S
C2529 O2528 1.286 . S
C2529 C2531 1.363 . S
C2530 C2520 1.465 . S
C2530 U2526 2.847 . S
C2530 O2544 1.249 . S
C2530 O2545 1.202 . S
C2531 C2529 1.363 . S
C2531 C2533 1.408 . S
C2531 C2536 1.342 . S
C2532 C2533 1.310 . S
C2532 C2535 1.461 . S
C2532 H2552 0.932 . S
C2533 C2531 1.408 . S
C2533 C2532 1.310 . S
C2533 H2553 0.930 . S
C2534 C2535 1.474 . S
C2534 C2536 1.285 . S
C2534 H2554 0.929 . S
C2535 C2532 1.461 . S
C2535 C2534 1.474 . S
C2536 C2531 1.342 . S
C2536 C2534 1.285 . S
C2536 H2555 0.930 . S
C2537 C2540 1.424 . S
C2537 C2542 1.245 . S
C2537 C2543 1.428 . S
C2538 C2541 1.260 . S
C2538 C2542 1.477 . S
C2538 H2556 0.932 . S
C2539 C2540 1.384 . S
C2539 C2541 1.479 . S
C2539 H2557 0.929 . S
C2540 C2537 1.424 . S
C2540 C2539 1.384 . S
C2540 H2558 0.928 . S
C2541 C2538 1.260 . S
C2541 C2539 1.479 . S
C2542 C2537 1.245 . S
C2542 C2538 1.477 . S
C2542 H2559 0.932 . S
C2543 U2526 2.882 . S
C2543 C2537 1.428 . S
C2543 O2546 1.301 . S
C2543 O2547 1.282 . S
O2544 U2526 2.441 . S
O2544 C2530 1.249 . S
O2545 U2526 2.420 . S
O2545 C2530 1.202 . S
O2546 U2526 2.455 . S
O2546 C2543 1.301 . S
O2547 U2526 2.449 . S
O2547 C2543 1.282 . S
H2548 C2521 0.931 . S
H2549 C2523 0.929 . S
H2550 C2524 0.930 . S
H2551 C2525 0.931 . S
H2552 C2532 0.932 . S
H2553 C2533 0.930 . S
H2554 C2534 0.929 . S
H2555 C2536 0.930 . S
H2556 C2538 0.932 . S
H2557 C2539 0.929 . S
H2558 C2540 0.928 . S
H2559 C2542 0.932 . S
C2560 C2561 1.264 . S
C2560 C2565 1.479 . S
C2560 C2570 1.465 . S
C2561 C2560 1.264 . S
C2561 C2563 1.339 . S
C2561 H2588 0.931 . S
C2562 C2563 1.395 . S
C2562 C2564 1.320 . S
C2563 C2561 1.339 . S
C2563 C2562 1.395 . S
C2563 H2589 0.929 . S
C2564 C2562 1.320 . S
C2564 C2565 1.405 . S
C2564 H2590 0.930 . S
C2565 C2560 1.479 . S
C2565 C2564 1.405 . S
C2565 H2591 0.931 . S
U2566 O2567 2.454 . S
U2566 O2568 2.458 . S
U2566 C2569 2.984 . S
U2566 C2570 2.847 . S
U2566 C2583 2.882 . S
U2566 O2584 2.441 . S
U2566 O2585 2.420 . S
U2566 O2586 2.455 . S
U2566 O2587 2.449 . S
O2567 U2566 2.454 . S
O2567 C2569 1.353 . S
O2568 U2566 2.458 . S
O2568 C2569 1.286 . S
C2569 U2566 2.984 . S
C2569 O2567 1.353 . S
C2569 O2568 1.286 . S
C2569 C2571 1.363 . S
C2570 C2560 1.465 . S
C2570 U2566 2.847 . S
C2570 O2584 1.249 . S
C2570 O2585 1.202 . S
C2571 C2569 1.363 . S
C2571 C2573 1.408 . S
C2571 C2576 1.342 . S
C2572 C2573 1.310 . S
C2572 C2575 1.461 . S
C2572 H2592 0.932 . S
C2573 C2571 1.408 . S
C2573 C2572 1.310 . S
C2573 H2593 0.930 . S
C2574 C2575 1.474 . S
C2574 C2576 1.285 . S
C2574 H2594 0.929 . S
C2575 C2572 1.461 . S
C2575 C2574 1.474 . S
C2576 C2571 1.342 . S
C2576 C2574 1.285 . S
C2576 H2595 0.930 . S
C2577 C2580 1.424 . S
C2577 C2582 1.245 . S
C2577 C2583 1.428 . S
C2578 C2581 1.260 . S
C2578 C2582 1.477 . S
C2578 H2596 0.932 . S
C2579 C2580 1.384 . S
C2579 C2581 1.479 . S
C2579 H2597 0.929 . S
C2580 C2577 1.424 . S
C2580 C2579 1.384 . S
C2580 H2598 0.928 . S
C2581 C2578 1.260 . S
C2581 C2579 1.479 . S
C2582 C2577 1.245 . S
C2582 C2578 1.477 . S
C2582 H2599 0.932 . S
C2583 U2566 2.882 . S
C2583 C2577 1.428 . S
C2583 O2586 1.301 . S
C2583 O2587 1.282 . S
O2584 U2566 2.441 . S
O2584 C2570 1.249 . S
O2585 U2566 2.420 . S
O2585 C2570 1.202 . S
O2586 U2566 2.455 . S
O2586 C2583 1.301 . S
O2587 U2566 2.449 . S
O2587 C2583 1.282 . S
H2588 C2561 0.931 . S
H2589 C2563 0.929 . S
H2590 C2564 0.930 . S
H2591 C2565 0.931 . S
H2592 C2572 0.932 . S
H2593 C2573 0.930 . S
H2594 C2574 0.929 . S
H2595 C2576 0.930 . S
H2596 C2578 0.932 . S
H2597 C2579 0.929 . S
H2598 C2580 0.928 . S
H2599 C2582 0.932 . S
C2600 C2601 1.264 . S
C2600 C2605 1.479 . S
C2600 C2610 1.465 . S
C2601 C2600 1.264 . S
C2601 C2603 1.339 . S
C2601 H2628 0.931 . S
C2602 C2603 1.395 . S
C2602 C2604 1.320 . S
C2603 C2601 1.339 . S
C2603 C2602 1.395 . S
C2603 H2629 0.929 . S
C2604 C2602 1.320 . S
C2604 C2605 1.405 . S
C2604 H2630 0.930 . S
C2605 C2600 1.479 . S
C2605 C2604 1.405 . S
C2605 H2631 0.931 . S
U2606 O2607 2.454 . S
U2606 O2608 2.458 . S
U2606 C2609 2.984 . S
U2606 C2610 2.847 . S
U2606 C2623 2.882 . S
U2606 O2624 2.441 . S
U2606 O2625 2.420 . S
U2606 O2626 2.455 . S
U2606 O2627 2.449 . S
O2607 U2606 2.454 . S
O2607 C2609 1.353 . S
O2608 U2606 2.458 . S
O2608 C2609 1.286 . S
C2609 U2606 2.984 . S
C2609 O2607 1.353 . S
C2609 O2608 1.286 . S
C2609 C2611 1.363 . S
C2610 C2600 1.465 . S
C2610 U2606 2.847 . S
C2610 O2624 1.249 . S
C2610 O2625 1.202 . S
C2611 C2609 1.363 . S
C2611 C2613 1.408 . S
C2611 C2616 1.342 . S
C2612 C2613 1.310 . S
C2612 C2615 1.461 . S
C2612 H2632 0.932 . S
C2613 C2611 1.408 . S
C2613 C2612 1.310 . S
C2613 H2633 0.930 . S
C2614 C2615 1.474 . S
C2614 C2616 1.285 . S
C2614 H2634 0.929 . S
C2615 C2612 1.461 . S
C2615 C2614 1.474 . S
C2616 C2611 1.342 . S
C2616 C2614 1.285 . S
C2616 H2635 0.930 . S
C2617 C2620 1.424 . S
C2617 C2622 1.245 . S
C2617 C2623 1.428 . S
C2618 C2621 1.260 . S
C2618 C2622 1.477 . S
C2618 H2636 0.932 . S
C2619 C2620 1.384 . S
C2619 C2621 1.479 . S
C2619 H2637 0.929 . S
C2620 C2617 1.424 . S
C2620 C2619 1.384 . S
C2620 H2638 0.928 . S
C2621 C2618 1.260 . S
C2621 C2619 1.479 . S
C2622 C2617 1.245 . S
C2622 C2618 1.477 . S
C2622 H2639 0.932 . S
C2623 U2606 2.882 . S
C2623 C2617 1.428 . S
C2623 O2626 1.301 . S
C2623 O2627 1.282 . S
O2624 U2606 2.441 . S
O2624 C2610 1.249 . S
O2625 U2606 2.420 . S
O2625 C2610 1.202 . S
O2626 U2606 2.455 . S
O2626 C2623 1.301 . S
O2627 U2606 2.449 . S
O2627 C2623 1.282 . S
H2628 C2601 0.931 . S
H2629 C2603 0.929 . S
H2630 C2604 0.930 . S
H2631 C2605 0.931 . S
H2632 C2612 0.932 . S
H2633 C2613 0.930 . S
H2634 C2614 0.929 . S
H2635 C2616 0.930 . S
H2636 C2618 0.932 . S
H2637 C2619 0.929 . S
H2638 C2620 0.928 . S
H2639 C2622 0.932 . S
C2640 C2641 1.264 . S
C2640 C2645 1.479 . S
C2640 C2650 1.465 . S
C2641 C2640 1.264 . S
C2641 C2643 1.339 . S
C2641 H2668 0.931 . S
C2642 C2643 1.395 . S
C2642 C2644 1.320 . S
C2643 C2641 1.339 . S
C2643 C2642 1.395 . S
C2643 H2669 0.929 . S
C2644 C2642 1.320 . S
C2644 C2645 1.405 . S
C2644 H2670 0.930 . S
C2645 C2640 1.479 . S
C2645 C2644 1.405 . S
C2645 H2671 0.931 . S
U2646 O2647 2.454 . S
U2646 O2648 2.458 . S
U2646 C2649 2.984 . S
U2646 C2650 2.847 . S
U2646 C2663 2.882 . S
U2646 O2664 2.441 . S
U2646 O2665 2.420 . S
U2646 O2666 2.455 . S
U2646 O2667 2.449 . S
O2647 U2646 2.454 . S
O2647 C2649 1.353 . S
O2648 U2646 2.458 . S
O2648 C2649 1.286 . S
C2649 U2646 2.984 . S
C2649 O2647 1.353 . S
C2649 O2648 1.286 . S
C2649 C2651 1.363 . S
C2650 C2640 1.465 . S
C2650 U2646 2.847 . S
C2650 O2664 1.249 . S
C2650 O2665 1.202 . S
C2651 C2649 1.363 . S
C2651 C2653 1.408 . S
C2651 C2656 1.342 . S
C2652 C2653 1.310 . S
C2652 C2655 1.461 . S
C2652 H2672 0.932 . S
C2653 C2651 1.408 . S
C2653 C2652 1.310 . S
C2653 H2673 0.930 . S
C2654 C2655 1.474 . S
C2654 C2656 1.285 . S
C2654 H2674 0.929 . S
C2655 C2652 1.461 . S
C2655 C2654 1.474 . S
C2656 C2651 1.342 . S
C2656 C2654 1.285 . S
C2656 H2675 0.930 . S
C2657 C2660 1.424 . S
C2657 C2662 1.245 . S
C2657 C2663 1.428 . S
C2658 C2661 1.260 . S
C2658 C2662 1.477 . S
C2658 H2676 0.932 . S
C2659 C2660 1.384 . S
C2659 C2661 1.479 . S
C2659 H2677 0.929 . S
C2660 C2657 1.424 . S
C2660 C2659 1.384 . S
C2660 H2678 0.928 . S
C2661 C2658 1.260 . S
C2661 C2659 1.479 . S
C2662 C2657 1.245 . S
C2662 C2658 1.477 . S
C2662 H2679 0.932 . S
C2663 U2646 2.882 . S
C2663 C2657 1.428 . S
C2663 O2666 1.301 . S
C2663 O2667 1.282 . S
O2664 U2646 2.441 . S
O2664 C2650 1.249 . S
O2665 U2646 2.420 . S
O2665 C2650 1.202 . S
O2666 U2646 2.455 . S
O2666 C2663 1.301 . S
O2667 U2646 2.449 . S
O2667 C2663 1.282 . S
H2668 C2641 0.931 . S
H2669 C2643 0.929 . S
H2670 C2644 0.930 . S
H2671 C2645 0.931 . S
H2672 C2652 0.932 . S
H2673 C2653 0.930 . S
H2674 C2654 0.929 . S
H2675 C2656 0.930 . S
H2676 C2658 0.932 . S
H2677 C2659 0.929 . S
H2678 C2660 0.928 . S
H2679 C2662 0.932 . S
C2680 C2681 1.264 . S
C2680 C2685 1.479 . S
C2680 C2690 1.465 . S
C2681 C2680 1.264 . S
C2681 C2683 1.339 . S
C2681 H2708 0.931 . S
C2682 C2683 1.395 . S
C2682 C2684 1.320 . S
C2683 C2681 1.339 . S
C2683 C2682 1.395 . S
C2683 H2709 0.929 . S
C2684 C2682 1.320 . S
C2684 C2685 1.405 . S
C2684 H2710 0.930 . S
C2685 C2680 1.479 . S
C2685 C2684 1.405 . S
C2685 H2711 0.931 . S
U2686 O2687 2.454 . S
U2686 O2688 2.458 . S
U2686 C2689 2.984 . S
U2686 C2690 2.847 . S
U2686 C2703 2.882 . S
U2686 O2704 2.441 . S
U2686 O2705 2.420 . S
U2686 O2706 2.455 . S
U2686 O2707 2.449 . S
O2687 U2686 2.454 . S
O2687 C2689 1.353 . S
O2688 U2686 2.458 . S
O2688 C2689 1.286 . S
C2689 U2686 2.984 . S
C2689 O2687 1.353 . S
C2689 O2688 1.286 . S
C2689 C2691 1.363 . S
C2690 C2680 1.465 . S
C2690 U2686 2.847 . S
C2690 O2704 1.249 . S
C2690 O2705 1.202 . S
C2691 C2689 1.363 . S
C2691 C2693 1.408 . S
C2691 C2696 1.342 . S
C2692 C2693 1.310 . S
C2692 C2695 1.461 . S
C2692 H2712 0.932 . S
C2693 C2691 1.408 . S
C2693 C2692 1.310 . S
C2693 H2713 0.930 . S
C2694 C2695 1.474 . S
C2694 C2696 1.285 . S
C2694 H2714 0.929 . S
C2695 C2692 1.461 . S
C2695 C2694 1.474 . S
C2696 C2691 1.342 . S
C2696 C2694 1.285 . S
C2696 H2715 0.930 . S
C2697 C2700 1.424 . S
C2697 C2702 1.245 . S
C2697 C2703 1.428 . S
C2698 C2701 1.260 . S
C2698 C2702 1.477 . S
C2698 H2716 0.932 . S
C2699 C2700 1.384 . S
C2699 C2701 1.479 . S
C2699 H2717 0.929 . S
C2700 C2697 1.424 . S
C2700 C2699 1.384 . S
C2700 H2718 0.928 . S
C2701 C2698 1.260 . S
C2701 C2699 1.479 . S
C2702 C2697 1.245 . S
C2702 C2698 1.477 . S
C2702 H2719 0.932 . S
C2703 U2686 2.882 . S
C2703 C2697 1.428 . S
C2703 O2706 1.301 . S
C2703 O2707 1.282 . S
O2704 U2686 2.441 . S
O2704 C2690 1.249 . S
O2705 U2686 2.420 . S
O2705 C2690 1.202 . S
O2706 U2686 2.455 . S
O2706 C2703 1.301 . S
O2707 U2686 2.449 . S
O2707 C2703 1.282 . S
H2708 C2681 0.931 . S
H2709 C2683 0.929 . S
H2710 C2684 0.930 . S
H2711 C2685 0.931 . S
H2712 C2692 0.932 . S
H2713 C2693 0.930 . S
H2714 C2694 0.929 . S
H2715 C2696 0.930 . S
H2716 C2698 0.932 . S
H2717 C2699 0.929 . S
H2718 C2700 0.928 . S
H2719 C2702 0.932 . S
C2720 C2721 1.264 . S
C2720 C2725 1.479 . S
C2720 C2730 1.465 . S
C2721 C2720 1.264 . S
C2721 C2723 1.339 . S
C2721 H2748 0.931 . S
C2722 C2723 1.395 . S
C2722 C2724 1.320 . S
C2723 C2721 1.339 . S
C2723 C2722 1.395 . S
C2723 H2749 0.929 . S
C2724 C2722 1.320 . S
C2724 C2725 1.405 . S
C2724 H2750 0.930 . S
C2725 C2720 1.479 . S
C2725 C2724 1.405 . S
C2725 H2751 0.931 . S
U2726 O2727 2.454 . S
U2726 O2728 2.458 . S
U2726 C2729 2.984 . S
U2726 C2730 2.847 . S
U2726 C2743 2.882 . S
U2726 O2744 2.441 . S
U2726 O2745 2.420 . S
U2726 O2746 2.455 . S
U2726 O2747 2.449 . S
O2727 U2726 2.454 . S
O2727 C2729 1.353 . S
O2728 U2726 2.458 . S
O2728 C2729 1.286 . S
C2729 U2726 2.984 . S
C2729 O2727 1.353 . S
C2729 O2728 1.286 . S
C2729 C2731 1.363 . S
C2730 C2720 1.465 . S
C2730 U2726 2.847 . S
C2730 O2744 1.249 . S
C2730 O2745 1.202 . S
C2731 C2729 1.363 . S
C2731 C2733 1.408 . S
C2731 C2736 1.342 . S
C2732 C2733 1.310 . S
C2732 C2735 1.461 . S
C2732 H2752 0.932 . S
C2733 C2731 1.408 . S
C2733 C2732 1.310 . S
C2733 H2753 0.930 . S
C2734 C2735 1.474 . S
C2734 C2736 1.285 . S
C2734 H2754 0.929 . S
C2735 C2732 1.461 . S
C2735 C2734 1.474 . S
C2736 C2731 1.342 . S
C2736 C2734 1.285 . S
C2736 H2755 0.930 . S
C2737 C2740 1.424 . S
C2737 C2742 1.245 . S
C2737 C2743 1.428 . S
C2738 C2741 1.260 . S
C2738 C2742 1.477 . S
C2738 H2756 0.932 . S
C2739 C2740 1.384 . S
C2739 C2741 1.479 . S
C2739 H2757 0.929 . S
C2740 C2737 1.424 . S
C2740 C2739 1.384 . S
C2740 H2758 0.928 . S
C2741 C2738 1.260 . S
C2741 C2739 1.479 . S
C2742 C2737 1.245 . S
C2742 C2738 1.477 . S
C2742 H2759 0.932 . S
C2743 U2726 2.882 . S
C2743 C2737 1.428 . S
C2743 O2746 1.301 . S
C2743 O2747 1.282 . S
O2744 U2726 2.441 . S
O2744 C2730 1.249 . S
O2745 U2726 2.420 . S
O2745 C2730 1.202 . S
O2746 U2726 2.455 . S
O2746 C2743 1.301 . S
O2747 U2726 2.449 . S
O2747 C2743 1.282 . S
H2748 C2721 0.931 . S
H2749 C2723 0.929 . S
H2750 C2724 0.930 . S
H2751 C2725 0.931 . S
H2752 C2732 0.932 . S
H2753 C2733 0.930 . S
H2754 C2734 0.929 . S
H2755 C2736 0.930 . S
H2756 C2738 0.932 . S
H2757 C2739 0.929 . S
H2758 C2740 0.928 . S
H2759 C2742 0.932 . S
C2760 C2761 1.264 . S
C2760 C2765 1.479 . S
C2760 C2770 1.465 . S
C2761 C2760 1.264 . S
C2761 C2763 1.339 . S
C2761 H2788 0.931 . S
C2762 C2763 1.395 . S
C2762 C2764 1.320 . S
C2763 C2761 1.339 . S
C2763 C2762 1.395 . S
C2763 H2789 0.929 . S
C2764 C2762 1.320 . S
C2764 C2765 1.405 . S
C2764 H2790 0.930 . S
C2765 C2760 1.479 . S
C2765 C2764 1.405 . S
C2765 H2791 0.931 . S
U2766 O2767 2.454 . S
U2766 O2768 2.458 . S
U2766 C2769 2.984 . S
U2766 C2770 2.847 . S
U2766 C2783 2.882 . S
U2766 O2784 2.441 . S
U2766 O2785 2.420 . S
U2766 O2786 2.455 . S
U2766 O2787 2.449 . S
O2767 U2766 2.454 . S
O2767 C2769 1.353 . S
O2768 U2766 2.458 . S
O2768 C2769 1.286 . S
C2769 U2766 2.984 . S
C2769 O2767 1.353 . S
C2769 O2768 1.286 . S
C2769 C2771 1.363 . S
C2770 C2760 1.465 . S
C2770 U2766 2.847 . S
C2770 O2784 1.249 . S
C2770 O2785 1.202 . S
C2771 C2769 1.363 . S
C2771 C2773 1.408 . S
C2771 C2776 1.342 . S
C2772 C2773 1.310 . S
C2772 C2775 1.461 . S
C2772 H2792 0.932 . S
C2773 C2771 1.408 . S
C2773 C2772 1.310 . S
C2773 H2793 0.930 . S
C2774 C2775 1.474 . S
C2774 C2776 1.285 . S
C2774 H2794 0.929 . S
C2775 C2772 1.461 . S
C2775 C2774 1.474 . S
C2776 C2771 1.342 . S
C2776 C2774 1.285 . S
C2776 H2795 0.930 . S
C2777 C2780 1.424 . S
C2777 C2782 1.245 . S
C2777 C2783 1.428 . S
C2778 C2781 1.260 . S
C2778 C2782 1.477 . S
C2778 H2796 0.932 . S
C2779 C2780 1.384 . S
C2779 C2781 1.479 . S
C2779 H2797 0.929 . S
C2780 C2777 1.424 . S
C2780 C2779 1.384 . S
C2780 H2798 0.928 . S
C2781 C2778 1.260 . S
C2781 C2779 1.479 . S
C2782 C2777 1.245 . S
C2782 C2778 1.477 . S
C2782 H2799 0.932 . S
C2783 U2766 2.882 . S
C2783 C2777 1.428 . S
C2783 O2786 1.301 . S
C2783 O2787 1.282 . S
O2784 U2766 2.441 . S
O2784 C2770 1.249 . S
O2785 U2766 2.420 . S
O2785 C2770 1.202 . S
O2786 U2766 2.455 . S
O2786 C2783 1.301 . S
O2787 U2766 2.449 . S
O2787 C2783 1.282 . S
H2788 C2761 0.931 . S
H2789 C2763 0.929 . S
H2790 C2764 0.930 . S
H2791 C2765 0.931 . S
H2792 C2772 0.932 . S
H2793 C2773 0.930 . S
H2794 C2774 0.929 . S
H2795 C2776 0.930 . S
H2796 C2778 0.932 . S
H2797 C2779 0.929 . S
H2798 C2780 0.928 . S
H2799 C2782 0.932 . S
C2800 C2801 1.264 . S
C2800 C2805 1.479 . S
C2800 C2810 1.465 . S
C2801 C2800 1.264 . S
C2801 C2803 1.339 . S
C2801 H2828 0.931 . S
C2802 C2803 1.395 . S
C2802 C2804 1.320 . S
C2803 C2801 1.339 . S
C2803 C2802 1.395 . S
C2803 H2829 0.929 . S
C2804 C2802 1.320 . S
C2804 C2805 1.405 . S
C2804 H2830 0.930 . S
C2805 C2800 1.479 . S
C2805 C2804 1.405 . S
C2805 H2831 0.931 . S
U2806 O2807 2.454 . S
U2806 O2808 2.458 . S
U2806 C2809 2.984 . S
U2806 C2810 2.847 . S
U2806 C2823 2.882 . S
U2806 O2824 2.441 . S
U2806 O2825 2.420 . S
U2806 O2826 2.455 . S
U2806 O2827 2.449 . S
O2807 U2806 2.454 . S
O2807 C2809 1.353 . S
O2808 U2806 2.458 . S
O2808 C2809 1.286 . S
C2809 U2806 2.984 . S
C2809 O2807 1.353 . S
C2809 O2808 1.286 . S
C2809 C2811 1.363 . S
C2810 C2800 1.465 . S
C2810 U2806 2.847 . S
C2810 O2824 1.249 . S
C2810 O2825 1.202 . S
C2811 C2809 1.363 . S
C2811 C2813 1.408 . S
C2811 C2816 1.342 . S
C2812 C2813 1.310 . S
C2812 C2815 1.461 . S
C2812 H2832 0.932 . S
C2813 C2811 1.408 . S
C2813 C2812 1.310 . S
C2813 H2833 0.930 . S
C2814 C2815 1.474 . S
C2814 C2816 1.285 . S
C2814 H2834 0.929 . S
C2815 C2812 1.461 . S
C2815 C2814 1.474 . S
C2816 C2811 1.342 . S
C2816 C2814 1.285 . S
C2816 H2835 0.930 . S
C2817 C2820 1.424 . S
C2817 C2822 1.245 . S
C2817 C2823 1.428 . S
C2818 C2821 1.260 . S
C2818 C2822 1.477 . S
C2818 H2836 0.932 . S
C2819 C2820 1.384 . S
C2819 C2821 1.479 . S
C2819 H2837 0.929 . S
C2820 C2817 1.424 . S
C2820 C2819 1.384 . S
C2820 H2838 0.928 . S
C2821 C2818 1.260 . S
C2821 C2819 1.479 . S
C2822 C2817 1.245 . S
C2822 C2818 1.477 . S
C2822 H2839 0.932 . S
C2823 U2806 2.882 . S
C2823 C2817 1.428 . S
C2823 O2826 1.301 . S
C2823 O2827 1.282 . S
O2824 U2806 2.441 . S
O2824 C2810 1.249 . S
O2825 U2806 2.420 . S
O2825 C2810 1.202 . S
O2826 U2806 2.455 . S
O2826 C2823 1.301 . S
O2827 U2806 2.449 . S
O2827 C2823 1.282 . S
H2828 C2801 0.931 . S
H2829 C2803 0.929 . S
H2830 C2804 0.930 . S
H2831 C2805 0.931 . S
H2832 C2812 0.932 . S
H2833 C2813 0.930 . S
H2834 C2814 0.929 . S
H2835 C2816 0.930 . S
H2836 C2818 0.932 . S
H2837 C2819 0.929 . S
H2838 C2820 0.928 . S
H2839 C2822 0.932 . S
C2840 C2841 1.264 . S
C2840 C2845 1.479 . S
C2840 C2850 1.465 . S
C2841 C2840 1.264 . S
C2841 C2843 1.339 . S
C2841 H2868 0.931 . S
C2842 C2843 1.395 . S
C2842 C2844 1.320 . S
C2843 C2841 1.339 . S
C2843 C2842 1.395 . S
C2843 H2869 0.929 . S
C2844 C2842 1.320 . S
C2844 C2845 1.405 . S
C2844 H2870 0.930 . S
C2845 C2840 1.479 . S
C2845 C2844 1.405 . S
C2845 H2871 0.931 . S
U2846 O2847 2.454 . S
U2846 O2848 2.458 . S
U2846 C2849 2.984 . S
U2846 C2850 2.847 . S
U2846 C2863 2.882 . S
U2846 O2864 2.441 . S
U2846 O2865 2.420 . S
U2846 O2866 2.455 . S
U2846 O2867 2.449 . S
O2847 U2846 2.454 . S
O2847 C2849 1.353 . S
O2848 U2846 2.458 . S
O2848 C2849 1.286 . S
C2849 U2846 2.984 . S
C2849 O2847 1.353 . S
C2849 O2848 1.286 . S
C2849 C2851 1.363 . S
C2850 C2840 1.465 . S
C2850 U2846 2.847 . S
C2850 O2864 1.249 . S
C2850 O2865 1.202 . S
C2851 C2849 1.363 . S
C2851 C2853 1.408 . S
C2851 C2856 1.342 . S
C2852 C2853 1.310 . S
C2852 C2855 1.461 . S
C2852 H2872 0.932 . S
C2853 C2851 1.408 . S
C2853 C2852 1.310 . S
C2853 H2873 0.930 . S
C2854 C2855 1.474 . S
C2854 C2856 1.285 . S
C2854 H2874 0.929 . S
C2855 C2852 1.461 . S
C2855 C2854 1.474 . S
C2856 C2851 1.342 . S
C2856 C2854 1.285 . S
C2856 H2875 0.930 . S
C2857 C2860 1.424 . S
C2857 C2862 1.245 . S
C2857 C2863 1.428 . S
C2858 C2861 1.260 . S
C2858 C2862 1.477 . S
C2858 H2876 0.932 . S
C2859 C2860 1.384 . S
C2859 C2861 1.479 . S
C2859 H2877 0.929 . S
C2860 C2857 1.424 . S
C2860 C2859 1.384 . S
C2860 H2878 0.928 . S
C2861 C2858 1.260 . S
C2861 C2859 1.479 . S
C2862 C2857 1.245 . S
C2862 C2858 1.477 . S
C2862 H2879 0.932 . S
C2863 U2846 2.882 . S
C2863 C2857 1.428 . S
C2863 O2866 1.301 . S
C2863 O2867 1.282 . S
O2864 U2846 2.441 . S
O2864 C2850 1.249 . S
O2865 U2846 2.420 . S
O2865 C2850 1.202 . S
O2866 U2846 2.455 . S
O2866 C2863 1.301 . S
O2867 U2846 2.449 . S
O2867 C2863 1.282 . S
H2868 C2841 0.931 . S
H2869 C2843 0.929 . S
H2870 C2844 0.930 . S
H2871 C2845 0.931 . S
H2872 C2852 0.932 . S
H2873 C2853 0.930 . S
H2874 C2854 0.929 . S
H2875 C2856 0.930 . S
H2876 C2858 0.932 . S
H2877 C2859 0.929 . S
H2878 C2860 0.928 . S
H2879 C2862 0.932 . S
C2880 C2881 1.264 . S
C2880 C2885 1.479 . S
C2880 C2890 1.465 . S
C2881 C2880 1.264 . S
C2881 C2883 1.339 . S
C2881 H2908 0.931 . S
C2882 C2883 1.395 . S
C2882 C2884 1.320 . S
C2883 C2881 1.339 . S
C2883 C2882 1.395 . S
C2883 H2909 0.929 . S
C2884 C2882 1.320 . S
C2884 C2885 1.405 . S
C2884 H2910 0.930 . S
C2885 C2880 1.479 . S
C2885 C2884 1.405 . S
C2885 H2911 0.931 . S
U2886 O2887 2.454 . S
U2886 O2888 2.458 . S
U2886 C2889 2.984 . S
U2886 C2890 2.847 . S
U2886 C2903 2.882 . S
U2886 O2904 2.441 . S
U2886 O2905 2.420 . S
U2886 O2906 2.455 . S
U2886 O2907 2.449 . S
O2887 U2886 2.454 . S
O2887 C2889 1.353 . S
O2888 U2886 2.458 . S
O2888 C2889 1.286 . S
C2889 U2886 2.984 . S
C2889 O2887 1.353 . S
C2889 O2888 1.286 . S
C2889 C2891 1.363 . S
C2890 C2880 1.465 . S
C2890 U2886 2.847 . S
C2890 O2904 1.249 . S
C2890 O2905 1.202 . S
C2891 C2889 1.363 . S
C2891 C2893 1.408 . S
C2891 C2896 1.342 . S
C2892 C2893 1.310 . S
C2892 C2895 1.461 . S
C2892 H2912 0.932 . S
C2893 C2891 1.408 . S
C2893 C2892 1.310 . S
C2893 H2913 0.930 . S
C2894 C2895 1.474 . S
C2894 C2896 1.285 . S
C2894 H2914 0.929 . S
C2895 C2892 1.461 . S
C2895 C2894 1.474 . S
C2896 C2891 1.342 . S
C2896 C2894 1.285 . S
C2896 H2915 0.930 . S
C2897 C2900 1.424 . S
C2897 C2902 1.245 . S
C2897 C2903 1.428 . S
C2898 C2901 1.260 . S
C2898 C2902 1.477 . S
C2898 H2916 0.932 . S
C2899 C2900 1.384 . S
C2899 C2901 1.479 . S
C2899 H2917 0.929 . S
C2900 C2897 1.424 . S
C2900 C2899 1.384 . S
C2900 H2918 0.928 . S
C2901 C2898 1.260 . S
C2901 C2899 1.479 . S
C2902 C2897 1.245 . S
C2902 C2898 1.477 . S
C2902 H2919 0.932 . S
C2903 U2886 2.882 . S
C2903 C2897 1.428 . S
C2903 O2906 1.301 . S
C2903 O2907 1.282 . S
O2904 U2886 2.441 . S
O2904 C2890 1.249 . S
O2905 U2886 2.420 . S
O2905 C2890 1.202 . S
O2906 U2886 2.455 . S
O2906 C2903 1.301 . S
O2907 U2886 2.449 . S
O2907 C2903 1.282 . S
H2908 C2881 0.931 . S
H2909 C2883 0.929 . S
H2910 C2884 0.930 . S
H2911 C2885 0.931 . S
H2912 C2892 0.932 . S
H2913 C2893 0.930 . S
H2914 C2894 0.929 . S
H2915 C2896 0.930 . S
H2916 C2898 0.932 . S
H2917 C2899 0.929 . S
H2918 C2900 0.928 . S
H2919 C2902 0.932 . S
C2920 C2921 1.264 . S
C2920 C2925 1.479 . S
C2920 C2930 1.465 . S
C2921 C2920 1.264 . S
C2921 C2923 1.339 . S
C2921 H2948 0.931 . S
C2922 C2923 1.395 . S
C2922 C2924 1.320 . S
C2923 C2921 1.339 . S
C2923 C2922 1.395 . S
C2923 H2949 0.929 . S
C2924 C2922 1.320 . S
C2924 C2925 1.405 . S
C2924 H2950 0.930 . S
C2925 C2920 1.479 . S
C2925 C2924 1.405 . S
C2925 H2951 0.931 . S
U2926 O2927 2.454 . S
U2926 O2928 2.458 . S
U2926 C2929 2.984 . S
U2926 C2930 2.847 . S
U2926 C2943 2.882 . S
U2926 O2944 2.441 . S
U2926 O2945 2.420 . S
U2926 O2946 2.455 . S
U2926 O2947 2.449 . S
O2927 U2926 2.454 . S
O2927 C2929 1.353 . S
O2928 U2926 2.458 . S
O2928 C2929 1.286 . S
C2929 U2926 2.984 . S
C2929 O2927 1.353 . S
C2929 O2928 1.286 . S
C2929 C2931 1.363 . S
C2930 C2920 1.465 . S
C2930 U2926 2.847 . S
C2930 O2944 1.249 . S
C2930 O2945 1.202 . S
C2931 C2929 1.363 . S
C2931 C2933 1.408 . S
C2931 C2936 1.342 . S
C2932 C2933 1.310 . S
C2932 C2935 1.461 . S
C2932 H2952 0.932 . S
C2933 C2931 1.408 . S
C2933 C2932 1.310 . S
C2933 H2953 0.930 . S
C2934 C2935 1.474 . S
C2934 C2936 1.285 . S
C2934 H2954 0.929 . S
C2935 C2932 1.461 . S
C2935 C2934 1.474 . S
C2936 C2931 1.342 . S
C2936 C2934 1.285 . S
C2936 H2955 0.930 . S
C2937 C2940 1.424 . S
C2937 C2942 1.245 . S
C2937 C2943 1.428 . S
C2938 C2941 1.260 . S
C2938 C2942 1.477 . S
C2938 H2956 0.932 . S
C2939 C2940 1.384 . S
C2939 C2941 1.479 . S
C2939 H2957 0.929 . S
C2940 C2937 1.424 . S
C2940 C2939 1.384 . S
C2940 H2958 0.928 . S
C2941 C2938 1.260 . S
C2941 C2939 1.479 . S
C2942 C2937 1.245 . S
C2942 C2938 1.477 . S
C2942 H2959 0.932 . S
C2943 U2926 2.882 . S
C2943 C2937 1.428 . S
C2943 O2946 1.301 . S
C2943 O2947 1.282 . S
O2944 U2926 2.441 . S
O2944 C2930 1.249 . S
O2945 U2926 2.420 . S
O2945 C2930 1.202 . S
O2946 U2926 2.455 . S
O2946 C2943 1.301 . S
O2947 U2926 2.449 . S
O2947 C2943 1.282 . S
H2948 C2921 0.931 . S
H2949 C2923 0.929 . S
H2950 C2924 0.930 . S
H2951 C2925 0.931 . S
H2952 C2932 0.932 . S
H2953 C2933 0.930 . S
H2954 C2934 0.929 . S
H2955 C2936 0.930 . S
H2956 C2938 0.932 . S
H2957 C2939 0.929 . S
H2958 C2940 0.928 . S
H2959 C2942 0.932 . S
C2960 C2961 1.264 . S
C2960 C2965 1.479 . S
C2960 C2970 1.465 . S
C2961 C2960 1.264 . S
C2961 C2963 1.339 . S
C2961 H2988 0.931 . S
C2962 C2963 1.395 . S
C2962 C2964 1.320 . S
C2963 C2961 1.339 . S
C2963 C2962 1.395 . S
C2963 H2989 0.929 . S
C2964 C2962 1.320 . S
C2964 C2965 1.405 . S
C2964 H2990 0.930 . S
C2965 C2960 1.479 . S
C2965 C2964 1.405 . S
C2965 H2991 0.931 . S
U2966 O2967 2.454 . S
U2966 O2968 2.458 . S
U2966 C2969 2.984 . S
U2966 C2970 2.847 . S
U2966 C2983 2.882 . S
U2966 O2984 2.441 . S
U2966 O2985 2.420 . S
U2966 O2986 2.455 . S
U2966 O2987 2.449 . S
O2967 U2966 2.454 . S
O2967 C2969 1.353 . S
O2968 U2966 2.458 . S
O2968 C2969 1.286 . S
C2969 U2966 2.984 . S
C2969 O2967 1.353 . S
C2969 O2968 1.286 . S
C2969 C2971 1.363 . S
C2970 C2960 1.465 . S
C2970 U2966 2.847 . S
C2970 O2984 1.249 . S
C2970 O2985 1.202 . S
C2971 C2969 1.363 . S
C2971 C2973 1.408 . S
C2971 C2976 1.342 . S
C2972 C2973 1.310 . S
C2972 C2975 1.461 . S
C2972 H2992 0.932 . S
C2973 C2971 1.408 . S
C2973 C2972 1.310 . S
C2973 H2993 0.930 . S
C2974 C2975 1.474 . S
C2974 C2976 1.285 . S
C2974 H2994 0.929 . S
C2975 C2972 1.461 . S
C2975 C2974 1.474 . S
C2976 C2971 1.342 . S
C2976 C2974 1.285 . S
C2976 H2995 0.930 . S
C2977 C2980 1.424 . S
C2977 C2982 1.245 . S
C2977 C2983 1.428 . S
C2978 C2981 1.260 . S
C2978 C2982 1.477 . S
C2978 H2996 0.932 . S
C2979 C2980 1.384 . S
C2979 C2981 1.479 . S
C2979 H2997 0.929 . S
C2980 C2977 1.424 . S
C2980 C2979 1.384 . S
C2980 H2998 0.928 . S
C2981 C2978 1.260 . S
C2981 C2979 1.479 . S
C2982 C2977 1.245 . S
C2982 C2978 1.477 . S
C2982 H2999 0.932 . S
C2983 U2966 2.882 . S
C2983 C2977 1.428 . S
C2983 O2986 1.301 . S
C2983 O2987 1.282 . S
O2984 U2966 2.441 . S
O2984 C2970 1.249 . S
O2985 U2966 2.420 . S
O2985 C2970 1.202 . S
O2986 U2966 2.455 . S
O2986 C2983 1.301 . S
O2987 U2966 2.449 . S
O2987 C2983 1.282 . S
H2988 C2961 0.931 . S
H2989 C2963 0.929 . S
H2990 C2964 0.930 . S
H2991 C2965 0.931 . S
H2992 C2972 0.932 . S
H2993 C2973 0.930 . S
H2994 C2974 0.929 . S
H2995 C2976 0.930 . S
H2996 C2978 0.932 . S
H2997 C2979 0.929 . S
H2998 C2980 0.928 . S
H2999 C2982 0.932 . S
C3000 C3001 1.264 . S
C3000 C3005 1.479 . S
C3000 C3010 1.465 . S
C3001 C3000 1.264 . S
C3001 C3003 1.339 . S
C3001 H3028 0.931 . S
C3002 C3003 1.395 . S
C3002 C3004 1.320 . S
C3003 C3001 1.339 . S
C3003 C3002 1.395 . S
C3003 H3029 0.929 . S
C3004 C3002 1.320 . S
C3004 C3005 1.405 . S
C3004 H3030 0.930 . S
C3005 C3000 1.479 . S
C3005 C3004 1.405 . S
C3005 H3031 0.931 . S
U3006 O3007 2.454 . S
U3006 O3008 2.458 . S
U3006 C3009 2.984 . S
U3006 C3010 2.847 . S
U3006 C3023 2.882 . S
U3006 O3024 2.441 . S
U3006 O3025 2.420 . S
U3006 O3026 2.455 . S
U3006 O3027 2.449 . S
O3007 U3006 2.454 . S
O3007 C3009 1.353 . S
O3008 U3006 2.458 . S
O3008 C3009 1.286 . S
C3009 U3006 2.984 . S
C3009 O3007 1.353 . S
C3009 O3008 1.286 . S
C3009 C3011 1.363 . S
C3010 C3000 1.465 . S
C3010 U3006 2.847 . S
C3010 O3024 1.249 . S
C3010 O3025 1.202 . S
C3011 C3009 1.363 . S
C3011 C3013 1.408 . S
C3011 C3016 1.342 . S
C3012 C3013 1.310 . S
C3012 C3015 1.461 . S
C3012 H3032 0.932 . S
C3013 C3011 1.408 . S
C3013 C3012 1.310 . S
C3013 H3033 0.930 . S
C3014 C3015 1.474 . S
C3014 C3016 1.285 . S
C3014 H3034 0.929 . S
C3015 C3012 1.461 . S
C3015 C3014 1.474 . S
C3016 C3011 1.342 . S
C3016 C3014 1.285 . S
C3016 H3035 0.930 . S
C3017 C3020 1.424 . S
C3017 C3022 1.245 . S
C3017 C3023 1.428 . S
C3018 C3021 1.260 . S
C3018 C3022 1.477 . S
C3018 H3036 0.932 . S
C3019 C3020 1.384 . S
C3019 C3021 1.479 . S
C3019 H3037 0.929 . S
C3020 C3017 1.424 . S
C3020 C3019 1.384 . S
C3020 H3038 0.928 . S
C3021 C3018 1.260 . S
C3021 C3019 1.479 . S
C3022 C3017 1.245 . S
C3022 C3018 1.477 . S
C3022 H3039 0.932 . S
C3023 U3006 2.882 . S
C3023 C3017 1.428 . S
C3023 O3026 1.301 . S
C3023 O3027 1.282 . S
O3024 U3006 2.441 . S
O3024 C3010 1.249 . S
O3025 U3006 2.420 . S
O3025 C3010 1.202 . S
O3026 U3006 2.455 . S
O3026 C3023 1.301 . S
O3027 U3006 2.449 . S
O3027 C3023 1.282 . S
H3028 C3001 0.931 . S
H3029 C3003 0.929 . S
H3030 C3004 0.930 . S
H3031 C3005 0.931 . S
H3032 C3012 0.932 . S
H3033 C3013 0.930 . S
H3034 C3014 0.929 . S
H3035 C3016 0.930 . S
H3036 C3018 0.932 . S
H3037 C3019 0.929 . S
H3038 C3020 0.928 . S
H3039 C3022 0.932 . S
C3040 C3041 1.264 . S
C3040 C3045 1.479 . S
C3040 C3050 1.465 . S
C3041 C3040 1.264 . S
C3041 C3043 1.339 . S
C3041 H3068 0.931 . S
C3042 C3043 1.395 . S
C3042 C3044 1.320 . S
C3043 C3041 1.339 . S
C3043 C3042 1.395 . S
C3043 H3069 0.929 . S
C3044 C3042 1.320 . S
C3044 C3045 1.405 . S
C3044 H3070 0.930 . S
C3045 C3040 1.479 . S
C3045 C3044 1.405 . S
C3045 H3071 0.931 . S
U3046 O3047 2.454 . S
U3046 O3048 2.458 . S
U3046 C3049 2.984 . S
U3046 C3050 2.847 . S
U3046 C3063 2.882 . S
U3046 O3064 2.441 . S
U3046 O3065 2.420 . S
U3046 O3066 2.455 . S
U3046 O3067 2.449 . S
O3047 U3046 2.454 . S
O3047 C3049 1.353 . S
O3048 U3046 2.458 . S
O3048 C3049 1.286 . S
C3049 U3046 2.984 . S
C3049 O3047 1.353 . S
C3049 O3048 1.286 . S
C3049 C3051 1.363 . S
C3050 C3040 1.465 . S
C3050 U3046 2.847 . S
C3050 O3064 1.249 . S
C3050 O3065 1.202 . S
C3051 C3049 1.363 . S
C3051 C3053 1.408 . S
C3051 C3056 1.342 . S
C3052 C3053 1.310 . S
C3052 C3055 1.461 . S
C3052 H3072 0.932 . S
C3053 C3051 1.408 . S
C3053 C3052 1.310 . S
C3053 H3073 0.930 . S
C3054 C3055 1.474 . S
C3054 C3056 1.285 . S
C3054 H3074 0.929 . S
C3055 C3052 1.461 . S
C3055 C3054 1.474 . S
C3056 C3051 1.342 . S
C3056 C3054 1.285 . S
C3056 H3075 0.930 . S
C3057 C3060 1.424 . S
C3057 C3062 1.245 . S
C3057 C3063 1.428 . S
C3058 C3061 1.260 . S
C3058 C3062 1.477 . S
C3058 H3076 0.932 . S
C3059 C3060 1.384 . S
C3059 C3061 1.479 . S
C3059 H3077 0.929 . S
C3060 C3057 1.424 . S
C3060 C3059 1.384 . S
C3060 H3078 0.928 . S
C3061 C3058 1.260 . S
C3061 C3059 1.479 . S
C3062 C3057 1.245 . S
C3062 C3058 1.477 . S
C3062 H3079 0.932 . S
C3063 U3046 2.882 . S
C3063 C3057 1.428 . S
C3063 O3066 1.301 . S
C3063 O3067 1.282 . S
O3064 U3046 2.441 . S
O3064 C3050 1.249 . S
O3065 U3046 2.420 . S
O3065 C3050 1.202 . S
O3066 U3046 2.455 . S
O3066 C3063 1.301 . S
O3067 U3046 2.449 . S
O3067 C3063 1.282 . S
H3068 C3041 0.931 . S
H3069 C3043 0.929 . S
H3070 C3044 0.930 . S
H3071 C3045 0.931 . S
H3072 C3052 0.932 . S
H3073 C3053 0.930 . S
H3074 C3054 0.929 . S
H3075 C3056 0.930 . S
H3076 C3058 0.932 . S
H3077 C3059 0.929 . S
H3078 C3060 0.928 . S
H3079 C3062 0.932 . S
C3080 C3081 1.264 . S
C3080 C3085 1.479 . S
C3080 C3090 1.465 . S
C3081 C3080 1.264 . S
C3081 C3083 1.339 . S
C3081 H3108 0.931 . S
C3082 C3083 1.395 . S
C3082 C3084 1.320 . S
C3083 C3081 1.339 . S
C3083 C3082 1.395 . S
C3083 H3109 0.929 . S
C3084 C3082 1.320 . S
C3084 C3085 1.405 . S
C3084 H3110 0.930 . S
C3085 C3080 1.479 . S
C3085 C3084 1.405 . S
C3085 H3111 0.931 . S
U3086 O3087 2.454 . S
U3086 O3088 2.458 . S
U3086 C3089 2.984 . S
U3086 C3090 2.847 . S
U3086 C3103 2.882 . S
U3086 O3104 2.441 . S
U3086 O3105 2.420 . S
U3086 O3106 2.455 . S
U3086 O3107 2.449 . S
O3087 U3086 2.454 . S
O3087 C3089 1.353 . S
O3088 U3086 2.458 . S
O3088 C3089 1.286 . S
C3089 U3086 2.984 . S
C3089 O3087 1.353 . S
C3089 O3088 1.286 . S
C3089 C3091 1.363 . S
C3090 C3080 1.465 . S
C3090 U3086 2.847 . S
C3090 O3104 1.249 . S
C3090 O3105 1.202 . S
C3091 C3089 1.363 . S
C3091 C3093 1.408 . S
C3091 C3096 1.342 . S
C3092 C3093 1.310 . S
C3092 C3095 1.461 . S
C3092 H3112 0.932 . S
C3093 C3091 1.408 . S
C3093 C3092 1.310 . S
C3093 H3113 0.930 . S
C3094 C3095 1.474 . S
C3094 C3096 1.285 . S
C3094 H3114 0.929 . S
C3095 C3092 1.461 . S
C3095 C3094 1.474 . S
C3096 C3091 1.342 . S
C3096 C3094 1.285 . S
C3096 H3115 0.930 . S
C3097 C3100 1.424 . S
C3097 C3102 1.245 . S
C3097 C3103 1.428 . S
C3098 C3101 1.260 . S
C3098 C3102 1.477 . S
C3098 H3116 0.932 . S
C3099 C3100 1.384 . S
C3099 C3101 1.479 . S
C3099 H3117 0.929 . S
C3100 C3097 1.424 . S
C3100 C3099 1.384 . S
C3100 H3118 0.928 . S
C3101 C3098 1.260 . S
C3101 C3099 1.479 . S
C3102 C3097 1.245 . S
C3102 C3098 1.477 . S
C3102 H3119 0.932 . S
C3103 U3086 2.882 . S
C3103 C3097 1.428 . S
C3103 O3106 1.301 . S
C3103 O3107 1.282 . S
O3104 U3086 2.441 . S
O3104 C3090 1.249 . S
O3105 U3086 2.420 . S
O3105 C3090 1.202 . S
O3106 U3086 2.455 . S
O3106 C3103 1.301 . S
O3107 U3086 2.449 . S
O3107 C3103 1.282 . S
H3108 C3081 0.931 . S
H3109 C3083 0.929 . S
H3110 C3084 0.930 . S
H3111 C3085 0.931 . S
H3112 C3092 0.932 . S
H3113 C3093 0.930 . S
H3114 C3094 0.929 . S
H3115 C3096 0.930 . S
H3116 C3098 0.932 . S
H3117 C3099 0.929 . S
H3118 C3100 0.928 . S
H3119 C3102 0.932 . S
C3120 C3121 1.264 . S
C3120 C3125 1.479 . S
C3120 C3130 1.465 . S
C3121 C3120 1.264 . S
C3121 C3123 1.339 . S
C3121 H3148 0.931 . S
C3122 C3123 1.395 . S
C3122 C3124 1.320 . S
C3123 C3121 1.339 . S
C3123 C3122 1.395 . S
C3123 H3149 0.929 . S
C3124 C3122 1.320 . S
C3124 C3125 1.405 . S
C3124 H3150 0.930 . S
C3125 C3120 1.479 . S
C3125 C3124 1.405 . S
C3125 H3151 0.931 . S
U3126 O3127 2.454 . S
U3126 O3128 2.458 . S
U3126 C3129 2.984 . S
U3126 C3130 2.847 . S
U3126 C3143 2.882 . S
U3126 O3144 2.441 . S
U3126 O3145 2.420 . S
U3126 O3146 2.455 . S
U3126 O3147 2.449 . S
O3127 U3126 2.454 . S
O3127 C3129 1.353 . S
O3128 U3126 2.458 . S
O3128 C3129 1.286 . S
C3129 U3126 2.984 . S
C3129 O3127 1.353 . S
C3129 O3128 1.286 . S
C3129 C3131 1.363 . S
C3130 C3120 1.465 . S
C3130 U3126 2.847 . S
C3130 O3144 1.249 . S
C3130 O3145 1.202 . S
C3131 C3129 1.363 . S
C3131 C3133 1.408 . S
C3131 C3136 1.342 . S
C3132 C3133 1.310 . S
C3132 C3135 1.461 . S
C3132 H3152 0.932 . S
C3133 C3131 1.408 . S
C3133 C3132 1.310 . S
C3133 H3153 0.930 . S
C3134 C3135 1.474 . S
C3134 C3136 1.285 . S
C3134 H3154 0.929 . S
C3135 C3132 1.461 . S
C3135 C3134 1.474 . S
C3136 C3131 1.342 . S
C3136 C3134 1.285 . S
C3136 H3155 0.930 . S
C3137 C3140 1.424 . S
C3137 C3142 1.245 . S
C3137 C3143 1.428 . S
C3138 C3141 1.260 . S
C3138 C3142 1.477 . S
C3138 H3156 0.932 . S
C3139 C3140 1.384 . S
C3139 C3141 1.479 . S
C3139 H3157 0.929 . S
C3140 C3137 1.424 . S
C3140 C3139 1.384 . S
C3140 H3158 0.928 . S
C3141 C3138 1.260 . S
C3141 C3139 1.479 . S
C3142 C3137 1.245 . S
C3142 C3138 1.477 . S
C3142 H3159 0.932 . S
C3143 U3126 2.882 . S
C3143 C3137 1.428 . S
C3143 O3146 1.301 . S
C3143 O3147 1.282 . S
O3144 U3126 2.441 . S
O3144 C3130 1.249 . S
O3145 U3126 2.420 . S
O3145 C3130 1.202 . S
O3146 U3126 2.455 . S
O3146 C3143 1.301 . S
O3147 U3126 2.449 . S
O3147 C3143 1.282 . S
H3148 C3121 0.931 . S
H3149 C3123 0.929 . S
H3150 C3124 0.930 . S
H3151 C3125 0.931 . S
H3152 C3132 0.932 . S
H3153 C3133 0.930 . S
H3154 C3134 0.929 . S
H3155 C3136 0.930 . S
H3156 C3138 0.932 . S
H3157 C3139 0.929 . S
H3158 C3140 0.928 . S
H3159 C3142 0.932 . S
C3160 C3161 1.264 . S
C3160 C3165 1.479 . S
C3160 C3170 1.465 . S
C3161 C3160 1.264 . S
C3161 C3163 1.339 . S
C3161 H3188 0.931 . S
C3162 C3163 1.395 . S
C3162 C3164 1.320 . S
C3163 C3161 1.339 . S
C3163 C3162 1.395 . S
C3163 H3189 0.929 . S
C3164 C3162 1.320 . S
C3164 C3165 1.405 . S
C3164 H3190 0.930 . S
C3165 C3160 1.479 . S
C3165 C3164 1.405 . S
C3165 H3191 0.931 . S
U3166 O3167 2.454 . S
U3166 O3168 2.458 . S
U3166 C3169 2.984 . S
U3166 C3170 2.847 . S
U3166 C3183 2.882 . S
U3166 O3184 2.441 . S
U3166 O3185 2.420 . S
U3166 O3186 2.455 . S
U3166 O3187 2.449 . S
O3167 U3166 2.454 . S
O3167 C3169 1.353 . S
O3168 U3166 2.458 . S
O3168 C3169 1.286 . S
C3169 U3166 2.984 . S
C3169 O3167 1.353 . S
C3169 O3168 1.286 . S
C3169 C3171 1.363 . S
C3170 C3160 1.465 . S
C3170 U3166 2.847 . S
C3170 O3184 1.249 . S
C3170 O3185 1.202 . S
C3171 C3169 1.363 . S
C3171 C3173 1.408 . S
C3171 C3176 1.342 . S
C3172 C3173 1.310 . S
C3172 C3175 1.461 . S
C3172 H3192 0.932 . S
C3173 C3171 1.408 . S
C3173 C3172 1.310 . S
C3173 H3193 0.930 . S
C3174 C3175 1.474 . S
C3174 C3176 1.285 . S
C3174 H3194 0.929 . S
C3175 C3172 1.461 . S
C3175 C3174 1.474 . S
C3176 C3171 1.342 . S
C3176 C3174 1.285 . S
C3176 H3195 0.930 . S
C3177 C3180 1.424 . S
C3177 C3182 1.245 . S
C3177 C3183 1.428 . S
C3178 C3181 1.260 . S
C3178 C3182 1.477 . S
C3178 H3196 0.932 . S
C3179 C3180 1.384 . S
C3179 C3181 1.479 . S
C3179 H3197 0.929 . S
C3180 C3177 1.424 . S
C3180 C3179 1.384 . S
C3180 H3198 0.928 . S
C3181 C3178 1.260 . S
C3181 C3179 1.479 . S
C3182 C3177 1.245 . S
C3182 C3178 1.477 . S
C3182 H3199 0.932 . S
C3183 U3166 2.882 . S
C3183 C3177 1.428 . S
C3183 O3186 1.301 . S
C3183 O3187 1.282 . S
O3184 U3166 2.441 . S
O3184 C3170 1.249 . S
O3185 U3166 2.420 . S
O3185 C3170 1.202 . S
O3186 U3166 2.455 . S
O3186 C3183 1.301 . S
O3187 U3166 2.449 . S
O3187 C3183 1.282 . S
H3188 C3161 0.931 . S
H3189 C3163 0.929 . S
H3190 C3164 0.930 . S
H3191 C3165 0.931 . S
H3192 C3172 0.932 . S
H3193 C3173 0.930 . S
H3194 C3174 0.929 . S
H3195 C3176 0.930 . S
H3196 C3178 0.932 . S
H3197 C3179 0.929 . S
H3198 C3180 0.928 . S
H3199 C3182 0.932 . S
C3200 C3201 1.264 . S
C3200 C3205 1.479 . S
C3200 C3210 1.465 . S
C3201 C3200 1.264 . S
C3201 C3203 1.339 . S
C3201 H3228 0.931 . S
C3202 C3203 1.395 . S
C3202 C3204 1.320 . S
C3203 C3201 1.339 . S
C3203 C3202 1.395 . S
C3203 H3229 0.929 . S
C3204 C3202 1.320 . S
C3204 C3205 1.405 . S
C3204 H3230 0.930 . S
C3205 C3200 1.479 . S
C3205 C3204 1.405 . S
C3205 H3231 0.931 . S
U3206 O3207 2.454 . S
U3206 O3208 2.458 . S
U3206 C3209 2.984 . S
U3206 C3210 2.847 . S
U3206 C3223 2.882 . S
U3206 O3224 2.441 . S
U3206 O3225 2.420 . S
U3206 O3226 2.455 . S
U3206 O3227 2.449 . S
O3207 U3206 2.454 . S
O3207 C3209 1.353 . S
O3208 U3206 2.458 . S
O3208 C3209 1.286 . S
C3209 U3206 2.984 . S
C3209 O3207 1.353 . S
C3209 O3208 1.286 . S
C3209 C3211 1.363 . S
C3210 C3200 1.465 . S
C3210 U3206 2.847 . S
C3210 O3224 1.249 . S
C3210 O3225 1.202 . S
C3211 C3209 1.363 . S
C3211 C3213 1.408 . S
C3211 C3216 1.342 . S
C3212 C3213 1.310 . S
C3212 C3215 1.461 . S
C3212 H3232 0.932 . S
C3213 C3211 1.408 . S
C3213 C3212 1.310 . S
C3213 H3233 0.930 . S
C3214 C3215 1.474 . S
C3214 C3216 1.285 . S
C3214 H3234 0.929 . S
C3215 C3212 1.461 . S
C3215 C3214 1.474 . S
C3216 C3211 1.342 . S
C3216 C3214 1.285 . S
C3216 H3235 0.930 . S
C3217 C3220 1.424 . S
C3217 C3222 1.245 . S
C3217 C3223 1.428 . S
C3218 C3221 1.260 . S
C3218 C3222 1.477 . S
C3218 H3236 0.932 . S
C3219 C3220 1.384 . S
C3219 C3221 1.479 . S
C3219 H3237 0.929 . S
C3220 C3217 1.424 . S
C3220 C3219 1.384 . S
C3220 H3238 0.928 . S
C3221 C3218 1.260 . S
C3221 C3219 1.479 . S
C3222 C3217 1.245 . S
C3222 C3218 1.477 . S
C3222 H3239 0.932 . S
C3223 U3206 2.882 . S
C3223 C3217 1.428 . S
C3223 O3226 1.301 . S
C3223 O3227 1.282 . S
O3224 U3206 2.441 . S
O3224 C3210 1.249 . S
O3225 U3206 2.420 . S
O3225 C3210 1.202 . S
O3226 U3206 2.455 . S
O3226 C3223 1.301 . S
O3227 U3206 2.449 . S
O3227 C3223 1.282 . S
H3228 C3201 0.931 . S
H3229 C3203 0.929 . S
H3230 C3204 0.930 . S
H3231 C3205 0.931 . S
H3232 C3212 0.932 . S
H3233 C3213 0.930 . S
H3234 C3214 0.929 . S
H3235 C3216 0.930 . S
H3236 C3218 0.932 . S
H3237 C3219 0.929 . S
H3238 C3220 0.928 . S
H3239 C3222 0.932 . S
C3240 C3241 1.264 . S
C3240 C3245 1.479 . S
C3240 C3250 1.465 . S
C3241 C3240 1.264 . S
C3241 C3243 1.339 . S
C3241 H3268 0.931 . S
C3242 C3243 1.395 . S
C3242 C3244 1.320 . S
C3243 C3241 1.339 . S
C3243 C3242 1.395 . S
C3243 H3269 0.929 . S
C3244 C3242 1.320 . S
C3244 C3245 1.405 . S
C3244 H3270 0.930 . S
C3245 C3240 1.479 . S
C3245 C3244 1.405 . S
C3245 H3271 0.931 . S
U3246 O3247 2.454 . S
U3246 O3248 2.458 . S
U3246 C3249 2.984 . S
U3246 C3250 2.847 . S
U3246 C3263 2.882 . S
U3246 O3264 2.441 . S
U3246 O3265 2.420 . S
U3246 O3266 2.455 . S
U3246 O3267 2.449 . S
O3247 U3246 2.454 . S
O3247 C3249 1.353 . S
O3248 U3246 2.458 . S
O3248 C3249 1.286 . S
C3249 U3246 2.984 . S
C3249 O3247 1.353 . S
C3249 O3248 1.286 . S
C3249 C3251 1.363 . S
C3250 C3240 1.465 . S
C3250 U3246 2.847 . S
C3250 O3264 1.249 . S
C3250 O3265 1.202 . S
C3251 C3249 1.363 . S
C3251 C3253 1.408 . S
C3251 C3256 1.342 . S
C3252 C3253 1.310 . S
C3252 C3255 1.461 . S
C3252 H3272 0.932 . S
C3253 C3251 1.408 . S
C3253 C3252 1.310 . S
C3253 H3273 0.930 . S
C3254 C3255 1.474 . S
C3254 C3256 1.285 . S
C3254 H3274 0.929 . S
C3255 C3252 1.461 . S
C3255 C3254 1.474 . S
C3256 C3251 1.342 . S
C3256 C3254 1.285 . S
C3256 H3275 0.930 . S
C3257 C3260 1.424 . S
C3257 C3262 1.245 . S
C3257 C3263 1.428 . S
C3258 C3261 1.260 . S
C3258 C3262 1.477 . S
C3258 H3276 0.932 . S
C3259 C3260 1.384 . S
C3259 C3261 1.479 . S
C3259 H3277 0.929 . S
C3260 C3257 1.424 . S
C3260 C3259 1.384 . S
C3260 H3278 0.928 . S
C3261 C3258 1.260 . S
C3261 C3259 1.479 . S
C3262 C3257 1.245 . S
C3262 C3258 1.477 . S
C3262 H3279 0.932 . S
C3263 U3246 2.882 . S
C3263 C3257 1.428 . S
C3263 O3266 1.301 . S
C3263 O3267 1.282 . S
O3264 U3246 2.441 . S
O3264 C3250 1.249 . S
O3265 U3246 2.420 . S
O3265 C3250 1.202 . S
O3266 U3246 2.455 . S
O3266 C3263 1.301 . S
O3267 U3246 2.449 . S
O3267 C3263 1.282 . S
H3268 C3241 0.931 . S
H3269 C3243 0.929 . S
H3270 C3244 0.930 . S
H3271 C3245 0.931 . S
H3272 C3252 0.932 . S
H3273 C3253 0.930 . S
H3274 C3254 0.929 . S
H3275 C3256 0.930 . S
H3276 C3258 0.932 . S
H3277 C3259 0.929 . S
H3278 C3260 0.928 . S
H3279 C3262 0.932 . S
C3280 C3281 1.264 . S
C3280 C3285 1.479 . S
C3280 C3290 1.465 . S
C3281 C3280 1.264 . S
C3281 C3283 1.339 . S
C3281 H3308 0.931 . S
C3282 C3283 1.395 . S
C3282 C3284 1.320 . S
C3283 C3281 1.339 . S
C3283 C3282 1.395 . S
C3283 H3309 0.929 . S
C3284 C3282 1.320 . S
C3284 C3285 1.405 . S
C3284 H3310 0.930 . S
C3285 C3280 1.479 . S
C3285 C3284 1.405 . S
C3285 H3311 0.931 . S
U3286 O3287 2.454 . S
U3286 O3288 2.458 . S
U3286 C3289 2.984 . S
U3286 C3290 2.847 . S
U3286 C3303 2.882 . S
U3286 O3304 2.441 . S
U3286 O3305 2.420 . S
U3286 O3306 2.455 . S
U3286 O3307 2.449 . S
O3287 U3286 2.454 . S
O3287 C3289 1.353 . S
O3288 U3286 2.458 . S
O3288 C3289 1.286 . S
C3289 U3286 2.984 . S
C3289 O3287 1.353 . S
C3289 O3288 1.286 . S
C3289 C3291 1.363 . S
C3290 C3280 1.465 . S
C3290 U3286 2.847 . S
C3290 O3304 1.249 . S
C3290 O3305 1.202 . S
C3291 C3289 1.363 . S
C3291 C3293 1.408 . S
C3291 C3296 1.342 . S
C3292 C3293 1.310 . S
C3292 C3295 1.461 . S
C3292 H3312 0.932 . S
C3293 C3291 1.408 . S
C3293 C3292 1.310 . S
C3293 H3313 0.930 . S
C3294 C3295 1.474 . S
C3294 C3296 1.285 . S
C3294 H3314 0.929 . S
C3295 C3292 1.461 . S
C3295 C3294 1.474 . S
C3296 C3291 1.342 . S
C3296 C3294 1.285 . S
C3296 H3315 0.930 . S
C3297 C3300 1.424 . S
C3297 C3302 1.245 . S
C3297 C3303 1.428 . S
C3298 C3301 1.260 . S
C3298 C3302 1.477 . S
C3298 H3316 0.932 . S
C3299 C3300 1.384 . S
C3299 C3301 1.479 . S
C3299 H3317 0.929 . S
C3300 C3297 1.424 . S
C3300 C3299 1.384 . S
C3300 H3318 0.928 . S
C3301 C3298 1.260 . S
C3301 C3299 1.479 . S
C3302 C3297 1.245 . S
C3302 C3298 1.477 . S
C3302 H3319 0.932 . S
C3303 U3286 2.882 . S
C3303 C3297 1.428 . S
C3303 O3306 1.301 . S
C3303 O3307 1.282 . S
O3304 U3286 2.441 . S
O3304 C3290 1.249 . S
O3305 U3286 2.420 . S
O3305 C3290 1.202 . S
O3306 U3286 2.455 . S
O3306 C3303 1.301 . S
O3307 U3286 2.449 . S
O3307 C3303 1.282 . S
H3308 C3281 0.931 . S
H3309 C3283 0.929 . S
H3310 C3284 0.930 . S
H3311 C3285 0.931 . S
H3312 C3292 0.932 . S
H3313 C3293 0.930 . S
H3314 C3294 0.929 . S
H3315 C3296 0.930 . S
H3316 C3298 0.932 . S
H3317 C3299 0.929 . S
H3318 C3300 0.928 . S
H3319 C3302 0.932 . S
C3320 C3321 1.264 . S
C3320 C3325 1.479 . S
C3320 C3330 1.465 . S
C3321 C3320 1.264 . S
C3321 C3323 1.339 . S
C3321 H3348 0.931 . S
C3322 C3323 1.395 . S
C3322 C3324 1.320 . S
C3323 C3321 1.339 . S
C3323 C3322 1.395 . S
C3323 H3349 0.929 . S
C3324 C3322 1.320 . S
C3324 C3325 1.405 . S
C3324 H3350 0.930 . S
C3325 C3320 1.479 . S
C3325 C3324 1.405 . S
C3325 H3351 0.931 . S
U3326 O3327 2.454 . S
U3326 O3328 2.458 . S
U3326 C3329 2.984 . S
U3326 C3330 2.847 . S
U3326 C3343 2.882 . S
U3326 O3344 2.441 . S
U3326 O3345 2.420 . S
U3326 O3346 2.455 . S
U3326 O3347 2.449 . S
O3327 U3326 2.454 . S
O3327 C3329 1.353 . S
O3328 U3326 2.458 . S
O3328 C3329 1.286 . S
C3329 U3326 2.984 . S
C3329 O3327 1.353 . S
C3329 O3328 1.286 . S
C3329 C3331 1.363 . S
C3330 C3320 1.465 . S
C3330 U3326 2.847 . S
C3330 O3344 1.249 . S
C3330 O3345 1.202 . S
C3331 C3329 1.363 . S
C3331 C3333 1.408 . S
C3331 C3336 1.342 . S
C3332 C3333 1.310 . S
C3332 C3335 1.461 . S
C3332 H3352 0.932 . S
C3333 C3331 1.408 . S
C3333 C3332 1.310 . S
C3333 H3353 0.930 . S
C3334 C3335 1.474 . S
C3334 C3336 1.285 . S
C3334 H3354 0.929 . S
C3335 C3332 1.461 . S
C3335 C3334 1.474 . S
C3336 C3331 1.342 . S
C3336 C3334 1.285 . S
C3336 H3355 0.930 . S
C3337 C3340 1.424 . S
C3337 C3342 1.245 . S
C3337 C3343 1.428 . S
C3338 C3341 1.260 . S
C3338 C3342 1.477 . S
C3338 H3356 0.932 . S
C3339 C3340 1.384 . S
C3339 C3341 1.479 . S
C3339 H3357 0.929 . S
C3340 C3337 1.424 . S
C3340 C3339 1.384 . S
C3340 H3358 0.928 . S
C3341 C3338 1.260 . S
C3341 C3339 1.479 . S
C3342 C3337 1.245 . S
C3342 C3338 1.477 . S
C3342 H3359 0.932 . S
C3343 U3326 2.882 . S
C3343 C3337 1.428 . S
C3343 O3346 1.301 . S
C3343 O3347 1.282 . S
O3344 U3326 2.441 . S
O3344 C3330 1.249 . S
O3345 U3326 2.420 . S
O3345 C3330 1.202 . S
O3346 U3326 2.455 . S
O3346 C3343 1.301 . S
O3347 U3326 2.449 . S
O3347 C3343 1.282 . S
H3348 C3321 0.931 . S
H3349 C3323 0.929 . S
H3350 C3324 0.930 . S
H3351 C3325 0.931 . S
H3352 C3332 0.932 . S
H3353 C3333 0.930 . S
H3354 C3334 0.929 . S
H3355 C3336 0.930 . S
H3356 C3338 0.932 . S
H3357 C3339 0.929 . S
H3358 C3340 0.928 . S
H3359 C3342 0.932 . S
C3360 C3361 1.264 . S
C3360 C3365 1.479 . S
C3360 C3370 1.465 . S
C3361 C3360 1.264 . S
C3361 C3363 1.339 . S
C3361 H3388 0.931 . S
C3362 C3363 1.395 . S
C3362 C3364 1.320 . S
C3363 C3361 1.339 . S
C3363 C3362 1.395 . S
C3363 H3389 0.929 . S
C3364 C3362 1.320 . S
C3364 C3365 1.405 . S
C3364 H3390 0.930 . S
C3365 C3360 1.479 . S
C3365 C3364 1.405 . S
C3365 H3391 0.931 . S
U3366 O3367 2.454 . S
U3366 O3368 2.458 . S
U3366 C3369 2.984 . S
U3366 C3370 2.847 . S
U3366 C3383 2.882 . S
U3366 O3384 2.441 . S
U3366 O3385 2.420 . S
U3366 O3386 2.455 . S
U3366 O3387 2.449 . S
O3367 U3366 2.454 . S
O3367 C3369 1.353 . S
O3368 U3366 2.458 . S
O3368 C3369 1.286 . S
C3369 U3366 2.984 . S
C3369 O3367 1.353 . S
C3369 O3368 1.286 . S
C3369 C3371 1.363 . S
C3370 C3360 1.465 . S
C3370 U3366 2.847 . S
C3370 O3384 1.249 . S
C3370 O3385 1.202 . S
C3371 C3369 1.363 . S
C3371 C3373 1.408 . S
C3371 C3376 1.342 . S
C3372 C3373 1.310 . S
C3372 C3375 1.461 . S
C3372 H3392 0.932 . S
C3373 C3371 1.408 . S
C3373 C3372 1.310 . S
C3373 H3393 0.930 . S
C3374 C3375 1.474 . S
C3374 C3376 1.285 . S
C3374 H3394 0.929 . S
C3375 C3372 1.461 . S
C3375 C3374 1.474 . S
C3376 C3371 1.342 . S
C3376 C3374 1.285 . S
C3376 H3395 0.930 . S
C3377 C3380 1.424 . S
C3377 C3382 1.245 . S
C3377 C3383 1.428 . S
C3378 C3381 1.260 . S
C3378 C3382 1.477 . S
C3378 H3396 0.932 . S
C3379 C3380 1.384 . S
C3379 C3381 1.479 . S
C3379 H3397 0.929 . S
C3380 C3377 1.424 . S
C3380 C3379 1.384 . S
C3380 H3398 0.928 . S
C3381 C3378 1.260 . S
C3381 C3379 1.479 . S
C3382 C3377 1.245 . S
C3382 C3378 1.477 . S
C3382 H3399 0.932 . S
C3383 U3366 2.882 . S
C3383 C3377 1.428 . S
C3383 O3386 1.301 . S
C3383 O3387 1.282 . S
O3384 U3366 2.441 . S
O3384 C3370 1.249 . S
O3385 U3366 2.420 . S
O3385 C3370 1.202 . S
O3386 U3366 2.455 . S
O3386 C3383 1.301 . S
O3387 U3366 2.449 . S
O3387 C3383 1.282 . S
H3388 C3361 0.931 . S
H3389 C3363 0.929 . S
H3390 C3364 0.930 . S
H3391 C3365 0.931 . S
H3392 C3372 0.932 . S
H3393 C3373 0.930 . S
H3394 C3374 0.929 . S
H3395 C3376 0.930 . S
H3396 C3378 0.932 . S
H3397 C3379 0.929 . S
H3398 C3380 0.928 . S
H3399 C3382 0.932 . S
C3400 C3401 1.264 . S
C3400 C3405 1.479 . S
C3400 C3410 1.465 . S
C3401 C3400 1.264 . S
C3401 C3403 1.339 . S
C3401 H3428 0.931 . S
C3402 C3403 1.395 . S
C3402 C3404 1.320 . S
C3403 C3401 1.339 . S
C3403 C3402 1.395 . S
C3403 H3429 0.929 . S
C3404 C3402 1.320 . S
C3404 C3405 1.405 . S
C3404 H3430 0.930 . S
C3405 C3400 1.479 . S
C3405 C3404 1.405 . S
C3405 H3431 0.931 . S
U3406 O3407 2.454 . S
U3406 O3408 2.458 . S
U3406 C3409 2.984 . S
U3406 C3410 2.847 . S
U3406 C3423 2.882 . S
U3406 O3424 2.441 . S
U3406 O3425 2.420 . S
U3406 O3426 2.455 . S
U3406 O3427 2.449 . S
O3407 U3406 2.454 . S
O3407 C3409 1.353 . S
O3408 U3406 2.458 . S
O3408 C3409 1.286 . S
C3409 U3406 2.984 . S
C3409 O3407 1.353 . S
C3409 O3408 1.286 . S
C3409 C3411 1.363 . S
C3410 C3400 1.465 . S
C3410 U3406 2.847 . S
C3410 O3424 1.249 . S
C3410 O3425 1.202 . S
C3411 C3409 1.363 . S
C3411 C3413 1.408 . S
C3411 C3416 1.342 . S
C3412 C3413 1.310 . S
C3412 C3415 1.461 . S
C3412 H3432 0.932 . S
C3413 C3411 1.408 . S
C3413 C3412 1.310 . S
C3413 H3433 0.930 . S
C3414 C3415 1.474 . S
C3414 C3416 1.285 . S
C3414 H3434 0.929 . S
C3415 C3412 1.461 . S
C3415 C3414 1.474 . S
C3416 C3411 1.342 . S
C3416 C3414 1.285 . S
C3416 H3435 0.930 . S
C3417 C3420 1.424 . S
C3417 C3422 1.245 . S
C3417 C3423 1.428 . S
C3418 C3421 1.260 . S
C3418 C3422 1.477 . S
C3418 H3436 0.932 . S
C3419 C3420 1.384 . S
C3419 C3421 1.479 . S
C3419 H3437 0.929 . S
C3420 C3417 1.424 . S
C3420 C3419 1.384 . S
C3420 H3438 0.928 . S
C3421 C3418 1.260 . S
C3421 C3419 1.479 . S
C3422 C3417 1.245 . S
C3422 C3418 1.477 . S
C3422 H3439 0.932 . S
C3423 U3406 2.882 . S
C3423 C3417 1.428 . S
C3423 O3426 1.301 . S
C3423 O3427 1.282 . S
O3424 U3406 2.441 . S
O3424 C3410 1.249 . S
O3425 U3406 2.420 . S
O3425 C3410 1.202 . S
O3426 U3406 2.455 . S
O3426 C3423 1.301 . S
O3427 U3406 2.449 . S
O3427 C3423 1.282 . S
H3428 C3401 0.931 . S
H3429 C3403 0.929 . S
H3430 C3404 0.930 . S
H3431 C3405 0.931 . S
H3432 C3412 0.932 . S
H3433 C3413 0.930 . S
H3434 C3414 0.929 . S
H3435 C3416 0.930 . S
H3436 C3418 0.932 . S
H3437 C3419 0.929 . S
H3438 C3420 0.928 . S
H3439 C3422 0.932 . S
C3440 C3441 1.264 . S
C3440 C3445 1.479 . S
C3440 C3450 1.465 . S
C3441 C3440 1.264 . S
C3441 C3443 1.339 . S
C3441 H3468 0.931 . S
C3442 C3443 1.395 . S
C3442 C3444 1.320 . S
C3443 C3441 1.339 . S
C3443 C3442 1.395 . S
C3443 H3469 0.929 . S
C3444 C3442 1.320 . S
C3444 C3445 1.405 . S
C3444 H3470 0.930 . S
C3445 C3440 1.479 . S
C3445 C3444 1.405 . S
C3445 H3471 0.931 . S
U3446 O3447 2.454 . S
U3446 O3448 2.458 . S
U3446 C3449 2.984 . S
U3446 C3450 2.847 . S
U3446 C3463 2.882 . S
U3446 O3464 2.441 . S
U3446 O3465 2.420 . S
U3446 O3466 2.455 . S
U3446 O3467 2.449 . S
O3447 U3446 2.454 . S
O3447 C3449 1.353 . S
O3448 U3446 2.458 . S
O3448 C3449 1.286 . S
C3449 U3446 2.984 . S
C3449 O3447 1.353 . S
C3449 O3448 1.286 . S
C3449 C3451 1.363 . S
C3450 C3440 1.465 . S
C3450 U3446 2.847 . S
C3450 O3464 1.249 . S
C3450 O3465 1.202 . S
C3451 C3449 1.363 . S
C3451 C3453 1.408 . S
C3451 C3456 1.342 . S
C3452 C3453 1.310 . S
C3452 C3455 1.461 . S
C3452 H3472 0.932 . S
C3453 C3451 1.408 . S
C3453 C3452 1.310 . S
C3453 H3473 0.930 . S
C3454 C3455 1.474 . S
C3454 C3456 1.285 . S
C3454 H3474 0.929 . S
C3455 C3452 1.461 . S
C3455 C3454 1.474 . S
C3456 C3451 1.342 . S
C3456 C3454 1.285 . S
C3456 H3475 0.930 . S
C3457 C3460 1.424 . S
C3457 C3462 1.245 . S
C3457 C3463 1.428 . S
C3458 C3461 1.260 . S
C3458 C3462 1.477 . S
C3458 H3476 0.932 . S
C3459 C3460 1.384 . S
C3459 C3461 1.479 . S
C3459 H3477 0.929 . S
C3460 C3457 1.424 . S
C3460 C3459 1.384 . S
C3460 H3478 0.928 . S
C3461 C3458 1.260 . S
C3461 C3459 1.479 . S
C3462 C3457 1.245 . S
C3462 C3458 1.477 . S
C3462 H3479 0.932 . S
C3463 U3446 2.882 . S
C3463 C3457 1.428 . S
C3463 O3466 1.301 . S
C3463 O3467 1.282 . S
O3464 U3446 2.441 . S
O3464 C3450 1.249 . S
O3465 U3446 2.420 . S
O3465 C3450 1.202 . S
O3466 U3446 2.455 . S
O3466 C3463 1.301 . S
O3467 U3446 2.449 . S
O3467 C3463 1.282 . S
H3468 C3441 0.931 . S
H3469 C3443 0.929 . S
H3470 C3444 0.930 . S
H3471 C3445 0.931 . S
H3472 C3452 0.932 . S
H3473 C3453 0.930 . S
H3474 C3454 0.929 . S
H3475 C3456 0.930 . S
H3476 C3458 0.932 . S
H3477 C3459 0.929 . S
H3478 C3460 0.928 . S
H3479 C3462 0.932 . S
C3480 C3481 1.264 . S
C3480 C3485 1.479 . S
C3480 C3490 1.465 . S
C3481 C3480 1.264 . S
C3481 C3483 1.339 . S
C3481 H3508 0.931 . S
C3482 C3483 1.395 . S
C3482 C3484 1.320 . S
C3483 C3481 1.339 . S
C3483 C3482 1.395 . S
C3483 H3509 0.929 . S
C3484 C3482 1.320 . S
C3484 C3485 1.405 . S
C3484 H3510 0.930 . S
C3485 C3480 1.479 . S
C3485 C3484 1.405 . S
C3485 H3511 0.931 . S
U3486 O3487 2.454 . S
U3486 O3488 2.458 . S
U3486 C3489 2.984 . S
U3486 C3490 2.847 . S
U3486 C3503 2.882 . S
U3486 O3504 2.441 . S
U3486 O3505 2.420 . S
U3486 O3506 2.455 . S
U3486 O3507 2.449 . S
O3487 U3486 2.454 . S
O3487 C3489 1.353 . S
O3488 U3486 2.458 . S
O3488 C3489 1.286 . S
C3489 U3486 2.984 . S
C3489 O3487 1.353 . S
C3489 O3488 1.286 . S
C3489 C3491 1.363 . S
C3490 C3480 1.465 . S
C3490 U3486 2.847 . S
C3490 O3504 1.249 . S
C3490 O3505 1.202 . S
C3491 C3489 1.363 . S
C3491 C3493 1.408 . S
C3491 C3496 1.342 . S
C3492 C3493 1.310 . S
C3492 C3495 1.461 . S
C3492 H3512 0.932 . S
C3493 C3491 1.408 . S
C3493 C3492 1.310 . S
C3493 H3513 0.930 . S
C3494 C3495 1.474 . S
C3494 C3496 1.285 . S
C3494 H3514 0.929 . S
C3495 C3492 1.461 . S
C3495 C3494 1.474 . S
C3496 C3491 1.342 . S
C3496 C3494 1.285 . S
C3496 H3515 0.930 . S
C3497 C3500 1.424 . S
C3497 C3502 1.245 . S
C3497 C3503 1.428 . S
C3498 C3501 1.260 . S
C3498 C3502 1.477 . S
C3498 H3516 0.932 . S
C3499 C3500 1.384 . S
C3499 C3501 1.479 . S
C3499 H3517 0.929 . S
C3500 C3497 1.424 . S
C3500 C3499 1.384 . S
C3500 H3518 0.928 . S
C3501 C3498 1.260 . S
C3501 C3499 1.479 . S
C3502 C3497 1.245 . S
C3502 C3498 1.477 . S
C3502 H3519 0.932 . S
C3503 U3486 2.882 . S
C3503 C3497 1.428 . S
C3503 O3506 1.301 . S
C3503 O3507 1.282 . S
O3504 U3486 2.441 . S
O3504 C3490 1.249 . S
O3505 U3486 2.420 . S
O3505 C3490 1.202 . S
O3506 U3486 2.455 . S
O3506 C3503 1.301 . S
O3507 U3486 2.449 . S
O3507 C3503 1.282 . S
H3508 C3481 0.931 . S
H3509 C3483 0.929 . S
H3510 C3484 0.930 . S
H3511 C3485 0.931 . S
H3512 C3492 0.932 . S
H3513 C3493 0.930 . S
H3514 C3494 0.929 . S
H3515 C3496 0.930 . S
H3516 C3498 0.932 . S
H3517 C3499 0.929 . S
H3518 C3500 0.928 . S
H3519 C3502 0.932 . S
C3520 C3521 1.264 . S
C3520 C3525 1.479 . S
C3520 C3530 1.465 . S
C3521 C3520 1.264 . S
C3521 C3523 1.339 . S
C3521 H3548 0.931 . S
C3522 C3523 1.395 . S
C3522 C3524 1.320 . S
C3523 C3521 1.339 . S
C3523 C3522 1.395 . S
C3523 H3549 0.929 . S
C3524 C3522 1.320 . S
C3524 C3525 1.405 . S
C3524 H3550 0.930 . S
C3525 C3520 1.479 . S
C3525 C3524 1.405 . S
C3525 H3551 0.931 . S
U3526 O3527 2.454 . S
U3526 O3528 2.458 . S
U3526 C3529 2.984 . S
U3526 C3530 2.847 . S
U3526 C3543 2.882 . S
U3526 O3544 2.441 . S
U3526 O3545 2.420 . S
U3526 O3546 2.455 . S
U3526 O3547 2.449 . S
O3527 U3526 2.454 . S
O3527 C3529 1.353 . S
O3528 U3526 2.458 . S
O3528 C3529 1.286 . S
C3529 U3526 2.984 . S
C3529 O3527 1.353 . S
C3529 O3528 1.286 . S
C3529 C3531 1.363 . S
C3530 C3520 1.465 . S
C3530 U3526 2.847 . S
C3530 O3544 1.249 . S
C3530 O3545 1.202 . S
C3531 C3529 1.363 . S
C3531 C3533 1.408 . S
C3531 C3536 1.342 . S
C3532 C3533 1.310 . S
C3532 C3535 1.461 . S
C3532 H3552 0.932 . S
C3533 C3531 1.408 . S
C3533 C3532 1.310 . S
C3533 H3553 0.930 . S
C3534 C3535 1.474 . S
C3534 C3536 1.285 . S
C3534 H3554 0.929 . S
C3535 C3532 1.461 . S
C3535 C3534 1.474 . S
C3536 C3531 1.342 . S
C3536 C3534 1.285 . S
C3536 H3555 0.930 . S
C3537 C3540 1.424 . S
C3537 C3542 1.245 . S
C3537 C3543 1.428 . S
C3538 C3541 1.260 . S
C3538 C3542 1.477 . S
C3538 H3556 0.932 . S
C3539 C3540 1.384 . S
C3539 C3541 1.479 . S
C3539 H3557 0.929 . S
C3540 C3537 1.424 . S
C3540 C3539 1.384 . S
C3540 H3558 0.928 . S
C3541 C3538 1.260 . S
C3541 C3539 1.479 . S
C3542 C3537 1.245 . S
C3542 C3538 1.477 . S
C3542 H3559 0.932 . S
C3543 U3526 2.882 . S
C3543 C3537 1.428 . S
C3543 O3546 1.301 . S
C3543 O3547 1.282 . S
O3544 U3526 2.441 . S
O3544 C3530 1.249 . S
O3545 U3526 2.420 . S
O3545 C3530 1.202 . S
O3546 U3526 2.455 . S
O3546 C3543 1.301 . S
O3547 U3526 2.449 . S
O3547 C3543 1.282 . S
H3548 C3521 0.931 . S
H3549 C3523 0.929 . S
H3550 C3524 0.930 . S
H3551 C3525 0.931 . S
H3552 C3532 0.932 . S
H3553 C3533 0.930 . S
H3554 C3534 0.929 . S
H3555 C3536 0.930 . S
H3556 C3538 0.932 . S
H3557 C3539 0.929 . S
H3558 C3540 0.928 . S
H3559 C3542 0.932 . S
C3560 C3561 1.264 . S
C3560 C3565 1.479 . S
C3560 C3570 1.465 . S
C3561 C3560 1.264 . S
C3561 C3563 1.339 . S
C3561 H3588 0.931 . S
C3562 C3563 1.395 . S
C3562 C3564 1.320 . S
C3563 C3561 1.339 . S
C3563 C3562 1.395 . S
C3563 H3589 0.929 . S
C3564 C3562 1.320 . S
C3564 C3565 1.405 . S
C3564 H3590 0.930 . S
C3565 C3560 1.479 . S
C3565 C3564 1.405 . S
C3565 H3591 0.931 . S
U3566 O3567 2.454 . S
U3566 O3568 2.458 . S
U3566 C3569 2.984 . S
U3566 C3570 2.847 . S
U3566 C3583 2.882 . S
U3566 O3584 2.441 . S
U3566 O3585 2.420 . S
U3566 O3586 2.455 . S
U3566 O3587 2.449 . S
O3567 U3566 2.454 . S
O3567 C3569 1.353 . S
O3568 U3566 2.458 . S
O3568 C3569 1.286 . S
C3569 U3566 2.984 . S
C3569 O3567 1.353 . S
C3569 O3568 1.286 . S
C3569 C3571 1.363 . S
C3570 C3560 1.465 . S
C3570 U3566 2.847 . S
C3570 O3584 1.249 . S
C3570 O3585 1.202 . S
C3571 C3569 1.363 . S
C3571 C3573 1.408 . S
C3571 C3576 1.342 . S
C3572 C3573 1.310 . S
C3572 C3575 1.461 . S
C3572 H3592 0.932 . S
C3573 C3571 1.408 . S
C3573 C3572 1.310 . S
C3573 H3593 0.930 . S
C3574 C3575 1.474 . S
C3574 C3576 1.285 . S
C3574 H3594 0.929 . S
C3575 C3572 1.461 . S
C3575 C3574 1.474 . S
C3576 C3571 1.342 . S
C3576 C3574 1.285 . S
C3576 H3595 0.930 . S
C3577 C3580 1.424 . S
C3577 C3582 1.245 . S
C3577 C3583 1.428 . S
C3578 C3581 1.260 . S
C3578 C3582 1.477 . S
C3578 H3596 0.932 . S
C3579 C3580 1.384 . S
C3579 C3581 1.479 . S
C3579 H3597 0.929 . S
C3580 C3577 1.424 . S
C3580 C3579 1.384 . S
C3580 H3598 0.928 . S
C3581 C3578 1.260 . S
C3581 C3579 1.479 . S
C3582 C3577 1.245 . S
C3582 C3578 1.477 . S
C3582 H3599 0.932 . S
C3583 U3566 2.882 . S
C3583 C3577 1.428 . S
C3583 O3586 1.301 . S
C3583 O3587 1.282 . S
O3584 U3566 2.441 . S
O3584 C3570 1.249 . S
O3585 U3566 2.420 . S
O3585 C3570 1.202 . S
O3586 U3566 2.455 . S
O3586 C3583 1.301 . S
O3587 U3566 2.449 . S
O3587 C3583 1.282 . S
H3588 C3561 0.931 . S
H3589 C3563 0.929 . S
H3590 C3564 0.930 . S
H3591 C3565 0.931 . S
H3592 C3572 0.932 . S
H3593 C3573 0.930 . S
H3594 C3574 0.929 . S
H3595 C3576 0.930 . S
H3596 C3578 0.932 . S
H3597 C3579 0.929 . S
H3598 C3580 0.928 . S
H3599 C3582 0.932 . S
C3600 C3601 1.264 . S
C3600 C3605 1.479 . S
C3600 C3610 1.465 . S
C3601 C3600 1.264 . S
C3601 C3603 1.339 . S
C3601 H3628 0.931 . S
C3602 C3603 1.395 . S
C3602 C3604 1.320 . S
C3603 C3601 1.339 . S
C3603 C3602 1.395 . S
C3603 H3629 0.929 . S
C3604 C3602 1.320 . S
C3604 C3605 1.405 . S
C3604 H3630 0.930 . S
C3605 C3600 1.479 . S
C3605 C3604 1.405 . S
C3605 H3631 0.931 . S
U3606 O3607 2.454 . S
U3606 O3608 2.458 . S
U3606 C3609 2.984 . S
U3606 C3610 2.847 . S
U3606 C3623 2.882 . S
U3606 O3624 2.441 . S
U3606 O3625 2.420 . S
U3606 O3626 2.455 . S
U3606 O3627 2.449 . S
O3607 U3606 2.454 . S
O3607 C3609 1.353 . S
O3608 U3606 2.458 . S
O3608 C3609 1.286 . S
C3609 U3606 2.984 . S
C3609 O3607 1.353 . S
C3609 O3608 1.286 . S
C3609 C3611 1.363 . S
C3610 C3600 1.465 . S
C3610 U3606 2.847 . S
C3610 O3624 1.249 . S
C3610 O3625 1.202 . S
C3611 C3609 1.363 . S
C3611 C3613 1.408 . S
C3611 C3616 1.342 . S
C3612 C3613 1.310 . S
C3612 C3615 1.461 . S
C3612 H3632 0.932 . S
C3613 C3611 1.408 . S
C3613 C3612 1.310 . S
C3613 H3633 0.930 . S
C3614 C3615 1.474 . S
C3614 C3616 1.285 . S
C3614 H3634 0.929 . S
C3615 C3612 1.461 . S
C3615 C3614 1.474 . S
C3616 C3611 1.342 . S
C3616 C3614 1.285 . S
C3616 H3635 0.930 . S
C3617 C3620 1.424 . S
C3617 C3622 1.245 . S
C3617 C3623 1.428 . S
C3618 C3621 1.260 . S
C3618 C3622 1.477 . S
C3618 H3636 0.932 . S
C3619 C3620 1.384 . S
C3619 C3621 1.479 . S
C3619 H3637 0.929 . S
C3620 C3617 1.424 . S
C3620 C3619 1.384 . S
C3620 H3638 0.928 . S
C3621 C3618 1.260 . S
C3621 C3619 1.479 . S
C3622 C3617 1.245 . S
C3622 C3618 1.477 . S
C3622 H3639 0.932 . S
C3623 U3606 2.882 . S
C3623 C3617 1.428 . S
C3623 O3626 1.301 . S
C3623 O3627 1.282 . S
O3624 U3606 2.441 . S
O3624 C3610 1.249 . S
O3625 U3606 2.420 . S
O3625 C3610 1.202 . S
O3626 U3606 2.455 . S
O3626 C3623 1.301 . S
O3627 U3606 2.449 . S
O3627 C3623 1.282 . S
H3628 C3601 0.931 . S
H3629 C3603 0.929 . S
H3630 C3604 0.930 . S
H3631 C3605 0.931 . S
H3632 C3612 0.932 . S
H3633 C3613 0.930 . S
H3634 C3614 0.929 . S
H3635 C3616 0.930 . S
H3636 C3618 0.932 . S
H3637 C3619 0.929 . S
H3638 C3620 0.928 . S
H3639 C3622 0.932 . S
C3640 C3641 1.264 . S
C3640 C3645 1.479 . S
C3640 C3650 1.465 . S
C3641 C3640 1.264 . S
C3641 C3643 1.339 . S
C3641 H3668 0.931 . S
C3642 C3643 1.395 . S
C3642 C3644 1.320 . S
C3643 C3641 1.339 . S
C3643 C3642 1.395 . S
C3643 H3669 0.929 . S
C3644 C3642 1.320 . S
C3644 C3645 1.405 . S
C3644 H3670 0.930 . S
C3645 C3640 1.479 . S
C3645 C3644 1.405 . S
C3645 H3671 0.931 . S
U3646 O3647 2.454 . S
U3646 O3648 2.458 . S
U3646 C3649 2.984 . S
U3646 C3650 2.847 . S
U3646 C3663 2.882 . S
U3646 O3664 2.441 . S
U3646 O3665 2.420 . S
U3646 O3666 2.455 . S
U3646 O3667 2.449 . S
O3647 U3646 2.454 . S
O3647 C3649 1.353 . S
O3648 U3646 2.458 . S
O3648 C3649 1.286 . S
C3649 U3646 2.984 . S
C3649 O3647 1.353 . S
C3649 O3648 1.286 . S
C3649 C3651 1.363 . S
C3650 C3640 1.465 . S
C3650 U3646 2.847 . S
C3650 O3664 1.249 . S
C3650 O3665 1.202 . S
C3651 C3649 1.363 . S
C3651 C3653 1.408 . S
C3651 C3656 1.342 . S
C3652 C3653 1.310 . S
C3652 C3655 1.461 . S
C3652 H3672 0.932 . S
C3653 C3651 1.408 . S
C3653 C3652 1.310 . S
C3653 H3673 0.930 . S
C3654 C3655 1.474 . S
C3654 C3656 1.285 . S
C3654 H3674 0.929 . S
C3655 C3652 1.461 . S
C3655 C3654 1.474 . S
C3656 C3651 1.342 . S
C3656 C3654 1.285 . S
C3656 H3675 0.930 . S
C3657 C3660 1.424 . S
C3657 C3662 1.245 . S
C3657 C3663 1.428 . S
C3658 C3661 1.260 . S
C3658 C3662 1.477 . S
C3658 H3676 0.932 . S
C3659 C3660 1.384 . S
C3659 C3661 1.479 . S
C3659 H3677 0.929 . S
C3660 C3657 1.424 . S
C3660 C3659 1.384 . S
C3660 H3678 0.928 . S
C3661 C3658 1.260 . S
C3661 C3659 1.479 . S
C3662 C3657 1.245 . S
C3662 C3658 1.477 . S
C3662 H3679 0.932 . S
C3663 U3646 2.882 . S
C3663 C3657 1.428 . S
C3663 O3666 1.301 . S
C3663 O3667 1.282 . S
O3664 U3646 2.441 . S
O3664 C3650 1.249 . S
O3665 U3646 2.420 . S
O3665 C3650 1.202 . S
O3666 U3646 2.455 . S
O3666 C3663 1.301 . S
O3667 U3646 2.449 . S
O3667 C3663 1.282 . S
H3668 C3641 0.931 . S
H3669 C3643 0.929 . S
H3670 C3644 0.930 . S
H3671 C3645 0.931 . S
H3672 C3652 0.932 . S
H3673 C3653 0.930 . S
H3674 C3654 0.929 . S
H3675 C3656 0.930 . S
H3676 C3658 0.932 . S
H3677 C3659 0.929 . S
H3678 C3660 0.928 . S
H3679 C3662 0.932 . S
C3680 C3681 1.264 . S
C3680 C3685 1.479 . S
C3680 C3690 1.465 . S
C3681 C3680 1.264 . S
C3681 C3683 1.339 . S
C3681 H3708 0.931 . S
C3682 C3683 1.395 . S
C3682 C3684 1.320 . S
C3683 C3681 1.339 . S
C3683 C3682 1.395 . S
C3683 H3709 0.929 . S
C3684 C3682 1.320 . S
C3684 C3685 1.405 . S
C3684 H3710 0.930 . S
C3685 C3680 1.479 . S
C3685 C3684 1.405 . S
C3685 H3711 0.931 . S
U3686 O3687 2.454 . S
U3686 O3688 2.458 . S
U3686 C3689 2.984 . S
U3686 C3690 2.847 . S
U3686 C3703 2.882 . S
U3686 O3704 2.441 . S
U3686 O3705 2.420 . S
U3686 O3706 2.455 . S
U3686 O3707 2.449 . S
O3687 U3686 2.454 . S
O3687 C3689 1.353 . S
O3688 U3686 2.458 . S
O3688 C3689 1.286 . S
C3689 U3686 2.984 . S
C3689 O3687 1.353 . S
C3689 O3688 1.286 . S
C3689 C3691 1.363 . S
C3690 C3680 1.465 . S
C3690 U3686 2.847 . S
C3690 O3704 1.249 . S
C3690 O3705 1.202 . S
C3691 C3689 1.363 . S
C3691 C3693 1.408 . S
C3691 C3696 1.342 . S
C3692 C3693 1.310 . S
C3692 C3695 1.461 . S
C3692 H3712 0.932 . S
C3693 C3691 1.408 . S
C3693 C3692 1.310 . S
C3693 H3713 0.930 . S
C3694 C3695 1.474 . S
C3694 C3696 1.285 . S
C3694 H3714 0.929 . S
C3695 C3692 1.461 . S
C3695 C3694 1.474 . S
C3696 C3691 1.342 . S
C3696 C3694 1.285 . S
C3696 H3715 0.930 . S
C3697 C3700 1.424 . S
C3697 C3702 1.245 . S
C3697 C3703 1.428 . S
C3698 C3701 1.260 . S
C3698 C3702 1.477 . S
C3698 H3716 0.932 . S
C3699 C3700 1.384 . S
C3699 C3701 1.479 . S
C3699 H3717 0.929 . S
C3700 C3697 1.424 . S
C3700 C3699 1.384 . S
C3700 H3718 0.928 . S
C3701 C3698 1.260 . S
C3701 C3699 1.479 . S
C3702 C3697 1.245 . S
C3702 C3698 1.477 . S
C3702 H3719 0.932 . S
C3703 U3686 2.882 . S
C3703 C3697 1.428 . S
C3703 O3706 1.301 . S
C3703 O3707 1.282 . S
O3704 U3686 2.441 . S
O3704 C3690 1.249 . S
O3705 U3686 2.420 . S
O3705 C3690 1.202 . S
O3706 U3686 2.455 . S
O3706 C3703 1.301 . S
O3707 U3686 2.449 . S
O3707 C3703 1.282 . S
H3708 C3681 0.931 . S
H3709 C3683 0.929 . S
H3710 C3684 0.930 . S
H3711 C3685 0.931 . S
H3712 C3692 0.932 . S
H3713 C3693 0.930 . S
H3714 C3694 0.929 . S
H3715 C3696 0.930 . S
H3716 C3698 0.932 . S
H3717 C3699 0.929 . S
H3718 C3700 0.928 . S
H3719 C3702 0.932 . S
C3720 C3721 1.264 . S
C3720 C3725 1.479 . S
C3720 C3730 1.465 . S
C3721 C3720 1.264 . S
C3721 C3723 1.339 . S
C3721 H3748 0.931 . S
C3722 C3723 1.395 . S
C3722 C3724 1.320 . S
C3723 C3721 1.339 . S
C3723 C3722 1.395 . S
C3723 H3749 0.929 . S
C3724 C3722 1.320 . S
C3724 C3725 1.405 . S
C3724 H3750 0.930 . S
C3725 C3720 1.479 . S
C3725 C3724 1.405 . S
C3725 H3751 0.931 . S
U3726 O3727 2.454 . S
U3726 O3728 2.458 . S
U3726 C3729 2.984 . S
U3726 C3730 2.847 . S
U3726 C3743 2.882 . S
U3726 O3744 2.441 . S
U3726 O3745 2.420 . S
U3726 O3746 2.455 . S
U3726 O3747 2.449 . S
O3727 U3726 2.454 . S
O3727 C3729 1.353 . S
O3728 U3726 2.458 . S
O3728 C3729 1.286 . S
C3729 U3726 2.984 . S
C3729 O3727 1.353 . S
C3729 O3728 1.286 . S
C3729 C3731 1.363 . S
C3730 C3720 1.465 . S
C3730 U3726 2.847 . S
C3730 O3744 1.249 . S
C3730 O3745 1.202 . S
C3731 C3729 1.363 . S
C3731 C3733 1.408 . S
C3731 C3736 1.342 . S
C3732 C3733 1.310 . S
C3732 C3735 1.461 . S
C3732 H3752 0.932 . S
C3733 C3731 1.408 . S
C3733 C3732 1.310 . S
C3733 H3753 0.930 . S
C3734 C3735 1.474 . S
C3734 C3736 1.285 . S
C3734 H3754 0.929 . S
C3735 C3732 1.461 . S
C3735 C3734 1.474 . S
C3736 C3731 1.342 . S
C3736 C3734 1.285 . S
C3736 H3755 0.930 . S
C3737 C3740 1.424 . S
C3737 C3742 1.245 . S
C3737 C3743 1.428 . S
C3738 C3741 1.260 . S
C3738 C3742 1.477 . S
C3738 H3756 0.932 . S
C3739 C3740 1.384 . S
C3739 C3741 1.479 . S
C3739 H3757 0.929 . S
C3740 C3737 1.424 . S
C3740 C3739 1.384 . S
C3740 H3758 0.928 . S
C3741 C3738 1.260 . S
C3741 C3739 1.479 . S
C3742 C3737 1.245 . S
C3742 C3738 1.477 . S
C3742 H3759 0.932 . S
C3743 U3726 2.882 . S
C3743 C3737 1.428 . S
C3743 O3746 1.301 . S
C3743 O3747 1.282 . S
O3744 U3726 2.441 . S
O3744 C3730 1.249 . S
O3745 U3726 2.420 . S
O3745 C3730 1.202 . S
O3746 U3726 2.455 . S
O3746 C3743 1.301 . S
O3747 U3726 2.449 . S
O3747 C3743 1.282 . S
H3748 C3721 0.931 . S
H3749 C3723 0.929 . S
H3750 C3724 0.930 . S
H3751 C3725 0.931 . S
H3752 C3732 0.932 . S
H3753 C3733 0.930 . S
H3754 C3734 0.929 . S
H3755 C3736 0.930 . S
H3756 C3738 0.932 . S
H3757 C3739 0.929 . S
H3758 C3740 0.928 . S
H3759 C3742 0.932 . S
C3760 C3761 1.264 . S
C3760 C3765 1.479 . S
C3760 C3770 1.465 . S
C3761 C3760 1.264 . S
C3761 C3763 1.339 . S
C3761 H3788 0.931 . S
C3762 C3763 1.395 . S
C3762 C3764 1.320 . S
C3763 C3761 1.339 . S
C3763 C3762 1.395 . S
C3763 H3789 0.929 . S
C3764 C3762 1.320 . S
C3764 C3765 1.405 . S
C3764 H3790 0.930 . S
C3765 C3760 1.479 . S
C3765 C3764 1.405 . S
C3765 H3791 0.931 . S
U3766 O3767 2.454 . S
U3766 O3768 2.458 . S
U3766 C3769 2.984 . S
U3766 C3770 2.847 . S
U3766 C3783 2.882 . S
U3766 O3784 2.441 . S
U3766 O3785 2.420 . S
U3766 O3786 2.455 . S
U3766 O3787 2.449 . S
O3767 U3766 2.454 . S
O3767 C3769 1.353 . S
O3768 U3766 2.458 . S
O3768 C3769 1.286 . S
C3769 U3766 2.984 . S
C3769 O3767 1.353 . S
C3769 O3768 1.286 . S
C3769 C3771 1.363 . S
C3770 C3760 1.465 . S
C3770 U3766 2.847 . S
C3770 O3784 1.249 . S
C3770 O3785 1.202 . S
C3771 C3769 1.363 . S
C3771 C3773 1.408 . S
C3771 C3776 1.342 . S
C3772 C3773 1.310 . S
C3772 C3775 1.461 . S
C3772 H3792 0.932 . S
C3773 C3771 1.408 . S
C3773 C3772 1.310 . S
C3773 H3793 0.930 . S
C3774 C3775 1.474 . S
C3774 C3776 1.285 . S
C3774 H3794 0.929 . S
C3775 C3772 1.461 . S
C3775 C3774 1.474 . S
C3776 C3771 1.342 . S
C3776 C3774 1.285 . S
C3776 H3795 0.930 . S
C3777 C3780 1.424 . S
C3777 C3782 1.245 . S
C3777 C3783 1.428 . S
C3778 C3781 1.260 . S
C3778 C3782 1.477 . S
C3778 H3796 0.932 . S
C3779 C3780 1.384 . S
C3779 C3781 1.479 . S
C3779 H3797 0.929 . S
C3780 C3777 1.424 . S
C3780 C3779 1.384 . S
C3780 H3798 0.928 . S
C3781 C3778 1.260 . S
C3781 C3779 1.479 . S
C3782 C3777 1.245 . S
C3782 C3778 1.477 . S
C3782 H3799 0.932 . S
C3783 U3766 2.882 . S
C3783 C3777 1.428 . S
C3783 O3786 1.301 . S
C3783 O3787 1.282 . S
O3784 U3766 2.441 . S
O3784 C3770 1.249 . S
O3785 U3766 2.420 . S
O3785 C3770 1.202 . S
O3786 U3766 2.455 . S
O3786 C3783 1.301 . S
O3787 U3766 2.449 . S
O3787 C3783 1.282 . S
H3788 C3761 0.931 . S
H3789 C3763 0.929 . S
H3790 C3764 0.930 . S
H3791 C3765 0.931 . S
H3792 C3772 0.932 . S
H3793 C3773 0.930 . S
H3794 C3774 0.929 . S
H3795 C3776 0.930 . S
H3796 C3778 0.932 . S
H3797 C3779 0.929 . S
H3798 C3780 0.928 . S
H3799 C3782 0.932 . S
C3800 C3801 1.264 . S
C3800 C3805 1.479 . S
C3800 C3810 1.465 . S
C3801 C3800 1.264 . S
C3801 C3803 1.339 . S
C3801 H3828 0.931 . S
C3802 C3803 1.395 . S
C3802 C3804 1.320 . S
C3803 C3801 1.339 . S
C3803 C3802 1.395 . S
C3803 H3829 0.929 . S
C3804 C3802 1.320 . S
C3804 C3805 1.405 . S
C3804 H3830 0.930 . S
C3805 C3800 1.479 . S
C3805 C3804 1.405 . S
C3805 H3831 0.931 . S
U3806 O3807 2.454 . S
U3806 O3808 2.458 . S
U3806 C3809 2.984 . S
U3806 C3810 2.847 . S
U3806 C3823 2.882 . S
U3806 O3824 2.441 . S
U3806 O3825 2.420 . S
U3806 O3826 2.455 . S
U3806 O3827 2.449 . S
O3807 U3806 2.454 . S
O3807 C3809 1.353 . S
O3808 U3806 2.458 . S
O3808 C3809 1.286 . S
C3809 U3806 2.984 . S
C3809 O3807 1.353 . S
C3809 O3808 1.286 . S
C3809 C3811 1.363 . S
C3810 C3800 1.465 . S
C3810 U3806 2.847 . S
C3810 O3824 1.249 . S
C3810 O3825 1.202 . S
C3811 C3809 1.363 . S
C3811 C3813 1.408 . S
C3811 C3816 1.342 . S
C3812 C3813 1.310 . S
C3812 C3815 1.461 . S
C3812 H3832 0.932 . S
C3813 C3811 1.408 . S
C3813 C3812 1.310 . S
C3813 H3833 0.930 . S
C3814 C3815 1.474 . S
C3814 C3816 1.285 . S
C3814 H3834 0.929 . S
C3815 C3812 1.461 . S
C3815 C3814 1.474 . S
C3816 C3811 1.342 . S
C3816 C3814 1.285 . S
C3816 H3835 0.930 . S
C3817 C3820 1.424 . S
C3817 C3822 1.245 . S
C3817 C3823 1.428 . S
C3818 C3821 1.260 . S
C3818 C3822 1.477 . S
C3818 H3836 0.932 . S
C3819 C3820 1.384 . S
C3819 C3821 1.479 . S
C3819 H3837 0.929 . S
C3820 C3817 1.424 . S
C3820 C3819 1.384 . S
C3820 H3838 0.928 . S
C3821 C3818 1.260 . S
C3821 C3819 1.479 . S
C3822 C3817 1.245 . S
C3822 C3818 1.477 . S
C3822 H3839 0.932 . S
C3823 U3806 2.882 . S
C3823 C3817 1.428 . S
C3823 O3826 1.301 . S
C3823 O3827 1.282 . S
O3824 U3806 2.441 . S
O3824 C3810 1.249 . S
O3825 U3806 2.420 . S
O3825 C3810 1.202 . S
O3826 U3806 2.455 . S
O3826 C3823 1.301 . S
O3827 U3806 2.449 . S
O3827 C3823 1.282 . S
H3828 C3801 0.931 . S
H3829 C3803 0.929 . S
H3830 C3804 0.930 . S
H3831 C3805 0.931 . S
H3832 C3812 0.932 . S
H3833 C3813 0.930 . S
H3834 C3814 0.929 . S
H3835 C3816 0.930 . S
H3836 C3818 0.932 . S
H3837 C3819 0.929 . S
H3838 C3820 0.928 . S
H3839 C3822 0.932 . S
H3840 C3841 0.949 . S
C3841 H3840 0.949 . S
C3841 C3842 1.395 . S
C3841 C3843 1.391 . S
C3842 C3841 1.395 . S
C3842 C3845 1.390 . S
C3843 C3841 1.391 . S
C3843 C3847 1.387 . S
C3843 C3848 1.491 . S
H3844 C3845 0.950 . S
C3845 C3842 1.390 . S
C3845 H3844 0.950 . S
C3845 C3846 1.378 . S
C3846 C3845 1.378 . S
C3846 C3847 1.409 . S
C3847 C3843 1.387 . S
C3847 C3846 1.409 . S
C3847 H3849 0.951 . S
C3848 C3843 1.491 . S
C3848 C3850 1.382 . S
C3848 C3852 1.404 . S
H3849 C3847 0.951 . S
C3850 C3848 1.382 . S
C3850 C3851 1.390 . S
C3850 H3855 0.949 . S
C3851 C3850 1.390 . S
C3851 C3856 1.399 . S
C3852 C3848 1.404 . S
C3852 H3853 0.950 . S
C3852 C3854 1.375 . S
H3853 C3852 0.950 . S
C3854 C3852 1.375 . S
C3854 C3856 1.382 . S
C3854 H3858 0.950 . S
H3855 C3850 0.949 . S
C3856 C3851 1.399 . S
C3856 C3854 1.382 . S
C3856 H3857 0.952 . S
H3857 C3856 0.952 . S
H3858 C3854 0.950 . S
H3859 C3860 0.949 . S
C3860 H3859 0.949 . S
C3860 C3861 1.395 . S
C3860 C3862 1.391 . S
C3861 C3860 1.395 . S
C3861 C3864 1.390 . S
C3862 C3860 1.391 . S
C3862 C3866 1.387 . S
C3862 C3867 1.491 . S
H3863 C3864 0.950 . S
C3864 C3861 1.390 . S
C3864 H3863 0.950 . S
C3864 C3865 1.378 . S
C3865 C3864 1.378 . S
C3865 C3866 1.409 . S
C3866 C3862 1.387 . S
C3866 C3865 1.409 . S
C3866 H3868 0.951 . S
C3867 C3862 1.491 . S
C3867 C3869 1.382 . S
C3867 C3871 1.404 . S
H3868 C3866 0.951 . S
C3869 C3867 1.382 . S
C3869 C3870 1.390 . S
C3869 H3874 0.949 . S
C3870 C3869 1.390 . S
C3870 C3875 1.399 . S
C3871 C3867 1.404 . S
C3871 H3872 0.950 . S
C3871 C3873 1.375 . S
H3872 C3871 0.950 . S
C3873 C3871 1.375 . S
C3873 C3875 1.382 . S
C3873 H3877 0.950 . S
H3874 C3869 0.949 . S
C3875 C3870 1.399 . S
C3875 C3873 1.382 . S
C3875 H3876 0.952 . S
H3876 C3875 0.952 . S
H3877 C3873 0.950 . S
H3878 C3879 0.949 . S
C3879 H3878 0.949 . S
C3879 C3880 1.395 . S
C3879 C3881 1.391 . S
C3880 C3879 1.395 . S
C3880 C3883 1.390 . S
C3881 C3879 1.391 . S
C3881 C3885 1.387 . S
C3881 C3886 1.491 . S
H3882 C3883 0.950 . S
C3883 C3880 1.390 . S
C3883 H3882 0.950 . S
C3883 C3884 1.378 . S
C3884 C3883 1.378 . S
C3884 C3885 1.409 . S
C3885 C3881 1.387 . S
C3885 C3884 1.409 . S
C3885 H3887 0.951 . S
C3886 C3881 1.491 . S
C3886 C3888 1.382 . S
C3886 C3890 1.404 . S
H3887 C3885 0.951 . S
C3888 C3886 1.382 . S
C3888 C3889 1.390 . S
C3888 H3893 0.949 . S
C3889 C3888 1.390 . S
C3889 C3894 1.399 . S
C3890 C3886 1.404 . S
C3890 H3891 0.950 . S
C3890 C3892 1.375 . S
H3891 C3890 0.950 . S
C3892 C3890 1.375 . S
C3892 C3894 1.382 . S
C3892 H3896 0.950 . S
H3893 C3888 0.949 . S
C3894 C3889 1.399 . S
C3894 C3892 1.382 . S
C3894 H3895 0.952 . S
H3895 C3894 0.952 . S
H3896 C3892 0.950 . S
H3897 C3898 0.949 . S
C3898 H3897 0.949 . S
C3898 C3899 1.395 . S
C3898 C3900 1.391 . S
C3899 C3898 1.395 . S
C3899 C3902 1.390 . S
C3900 C3898 1.391 . S
C3900 C3904 1.387 . S
C3900 C3905 1.491 . S
H3901 C3902 0.950 . S
C3902 C3899 1.390 . S
C3902 H3901 0.950 . S
C3902 C3903 1.378 . S
C3903 C3902 1.378 . S
C3903 C3904 1.409 . S
C3904 C3900 1.387 . S
C3904 C3903 1.409 . S
C3904 H3906 0.951 . S
C3905 C3900 1.491 . S
C3905 C3907 1.382 . S
C3905 C3909 1.404 . S
H3906 C3904 0.951 . S
C3907 C3905 1.382 . S
C3907 C3908 1.390 . S
C3907 H3912 0.949 . S
C3908 C3907 1.390 . S
C3908 C3913 1.399 . S
C3909 C3905 1.404 . S
C3909 H3910 0.950 . S
C3909 C3911 1.375 . S
H3910 C3909 0.950 . S
C3911 C3909 1.375 . S
C3911 C3913 1.382 . S
C3911 H3915 0.950 . S
H3912 C3907 0.949 . S
C3913 C3908 1.399 . S
C3913 C3911 1.382 . S
C3913 H3914 0.952 . S
H3914 C3913 0.952 . S
H3915 C3911 0.950 . S
H3916 C3917 0.949 . S
C3917 H3916 0.949 . S
C3917 C3918 1.395 . S
C3917 C3919 1.391 . S
C3918 C3917 1.395 . S
C3918 C3921 1.390 . S
C3919 C3917 1.391 . S
C3919 C3923 1.387 . S
C3919 C3924 1.491 . S
H3920 C3921 0.950 . S
C3921 C3918 1.390 . S
C3921 H3920 0.950 . S
C3921 C3922 1.378 . S
C3922 C3921 1.378 . S
C3922 C3923 1.409 . S
C3923 C3919 1.387 . S
C3923 C3922 1.409 . S
C3923 H3925 0.951 . S
C3924 C3919 1.491 . S
C3924 C3926 1.382 . S
C3924 C3928 1.404 . S
H3925 C3923 0.951 . S
C3926 C3924 1.382 . S
C3926 C3927 1.390 . S
C3926 H3931 0.949 . S
C3927 C3926 1.390 . S
C3927 C3932 1.399 . S
C3928 C3924 1.404 . S
C3928 H3929 0.950 . S
C3928 C3930 1.375 . S
H3929 C3928 0.950 . S
C3930 C3928 1.375 . S
C3930 C3932 1.382 . S
C3930 H3934 0.950 . S
H3931 C3926 0.949 . S
C3932 C3927 1.399 . S
C3932 C3930 1.382 . S
C3932 H3933 0.952 . S
H3933 C3932 0.952 . S
H3934 C3930 0.950 . S
H3935 C3936 0.949 . S
C3936 H3935 0.949 . S
C3936 C3937 1.395 . S
C3936 C3938 1.391 . S
C3937 C3936 1.395 . S
C3937 C3940 1.390 . S
C3938 C3936 1.391 . S
C3938 C3942 1.387 . S
C3938 C3943 1.491 . S
H3939 C3940 0.950 . S
C3940 C3937 1.390 . S
C3940 H3939 0.950 . S
C3940 C3941 1.378 . S
C3941 C3940 1.378 . S
C3941 C3942 1.409 . S
C3942 C3938 1.387 . S
C3942 C3941 1.409 . S
C3942 H3944 0.951 . S
C3943 C3938 1.491 . S
C3943 C3945 1.382 . S
C3943 C3947 1.404 . S
H3944 C3942 0.951 . S
C3945 C3943 1.382 . S
C3945 C3946 1.390 . S
C3945 H3950 0.949 . S
C3946 C3945 1.390 . S
C3946 C3951 1.399 . S
C3947 C3943 1.404 . S
C3947 H3948 0.950 . S
C3947 C3949 1.375 . S
H3948 C3947 0.950 . S
C3949 C3947 1.375 . S
C3949 C3951 1.382 . S
C3949 H3953 0.950 . S
H3950 C3945 0.949 . S
C3951 C3946 1.399 . S
C3951 C3949 1.382 . S
C3951 H3952 0.952 . S
H3952 C3951 0.952 . S
H3953 C3949 0.950 . S
H3954 C3955 0.949 . S
C3955 H3954 0.949 . S
C3955 C3956 1.395 . S
C3955 C3957 1.391 . S
C3956 C3955 1.395 . S
C3956 C3959 1.390 . S
C3957 C3955 1.391 . S
C3957 C3961 1.387 . S
C3957 C3962 1.491 . S
H3958 C3959 0.950 . S
C3959 C3956 1.390 . S
C3959 H3958 0.950 . S
C3959 C3960 1.378 . S
C3960 C3959 1.378 . S
C3960 C3961 1.409 . S
C3961 C3957 1.387 . S
C3961 C3960 1.409 . S
C3961 H3963 0.951 . S
C3962 C3957 1.491 . S
C3962 C3964 1.382 . S
C3962 C3966 1.404 . S
H3963 C3961 0.951 . S
C3964 C3962 1.382 . S
C3964 C3965 1.390 . S
C3964 H3969 0.949 . S
C3965 C3964 1.390 . S
C3965 C3970 1.399 . S
C3966 C3962 1.404 . S
C3966 H3967 0.950 . S
C3966 C3968 1.375 . S
H3967 C3966 0.950 . S
C3968 C3966 1.375 . S
C3968 C3970 1.382 . S
C3968 H3972 0.950 . S
H3969 C3964 0.949 . S
C3970 C3965 1.399 . S
C3970 C3968 1.382 . S
C3970 H3971 0.952 . S
H3971 C3970 0.952 . S
H3972 C3968 0.950 . S
H3973 C3974 0.949 . S
C3974 H3973 0.949 . S
C3974 C3975 1.395 . S
C3974 C3976 1.391 . S
C3975 C3974 1.395 . S
C3975 C3978 1.390 . S
C3976 C3974 1.391 . S
C3976 C3980 1.387 . S
C3976 C3981 1.491 . S
H3977 C3978 0.950 . S
C3978 C3975 1.390 . S
C3978 H3977 0.950 . S
C3978 C3979 1.378 . S
C3979 C3978 1.378 . S
C3979 C3980 1.409 . S
C3980 C3976 1.387 . S
C3980 C3979 1.409 . S
C3980 H3982 0.951 . S
C3981 C3976 1.491 . S
C3981 C3983 1.382 . S
C3981 C3985 1.404 . S
H3982 C3980 0.951 . S
C3983 C3981 1.382 . S
C3983 C3984 1.390 . S
C3983 H3988 0.949 . S
C3984 C3983 1.390 . S
C3984 C3989 1.399 . S
C3985 C3981 1.404 . S
C3985 H3986 0.950 . S
C3985 C3987 1.375 . S
H3986 C3985 0.950 . S
C3987 C3985 1.375 . S
C3987 C3989 1.382 . S
C3987 H3991 0.950 . S
H3988 C3983 0.949 . S
C3989 C3984 1.399 . S
C3989 C3987 1.382 . S
C3989 H3990 0.952 . S
H3990 C3989 0.952 . S
H3991 C3987 0.950 . S
H3992 C3993 0.949 . S
C3993 H3992 0.949 . S
C3993 C3994 1.395 . S
C3993 C3995 1.391 . S
C3994 C3993 1.395 . S
C3994 C3997 1.390 . S
C3995 C3993 1.391 . S
C3995 C3999 1.387 . S
C3995 C4000 1.491 . S
H3996 C3997 0.950 . S
C3997 C3994 1.390 . S
C3997 H3996 0.950 . S
C3997 C3998 1.378 . S
C3998 C3997 1.378 . S
C3998 C3999 1.409 . S
C3999 C3995 1.387 . S
C3999 C3998 1.409 . S
C3999 H4001 0.951 . S
C4000 C3995 1.491 . S
C4000 C4002 1.382 . S
C4000 C4004 1.404 . S
H4001 C3999 0.951 . S
C4002 C4000 1.382 . S
C4002 C4003 1.390 . S
C4002 H4007 0.949 . S
C4003 C4002 1.390 . S
C4003 C4008 1.399 . S
C4004 C4000 1.404 . S
C4004 H4005 0.950 . S
C4004 C4006 1.375 . S
H4005 C4004 0.950 . S
C4006 C4004 1.375 . S
C4006 C4008 1.382 . S
C4006 H4010 0.950 . S
H4007 C4002 0.949 . S
C4008 C4003 1.399 . S
C4008 C4006 1.382 . S
C4008 H4009 0.952 . S
H4009 C4008 0.952 . S
H4010 C4006 0.950 . S
H4011 C4012 0.949 . S
C4012 H4011 0.949 . S
C4012 C4013 1.395 . S
C4012 C4014 1.391 . S
C4013 C4012 1.395 . S
C4013 C4016 1.390 . S
C4014 C4012 1.391 . S
C4014 C4018 1.387 . S
C4014 C4019 1.491 . S
H4015 C4016 0.950 . S
C4016 C4013 1.390 . S
C4016 H4015 0.950 . S
C4016 C4017 1.378 . S
C4017 C4016 1.378 . S
C4017 C4018 1.409 . S
C4018 C4014 1.387 . S
C4018 C4017 1.409 . S
C4018 H4020 0.951 . S
C4019 C4014 1.491 . S
C4019 C4021 1.382 . S
C4019 C4023 1.404 . S
H4020 C4018 0.951 . S
C4021 C4019 1.382 . S
C4021 C4022 1.390 . S
C4021 H4026 0.949 . S
C4022 C4021 1.390 . S
C4022 C4027 1.399 . S
C4023 C4019 1.404 . S
C4023 H4024 0.950 . S
C4023 C4025 1.375 . S
H4024 C4023 0.950 . S
C4025 C4023 1.375 . S
C4025 C4027 1.382 . S
C4025 H4029 0.950 . S
H4026 C4021 0.949 . S
C4027 C4022 1.399 . S
C4027 C4025 1.382 . S
C4027 H4028 0.952 . S
H4028 C4027 0.952 . S
H4029 C4025 0.950 . S
H4030 C4031 0.949 . S
C4031 H4030 0.949 . S
C4031 C4032 1.395 . S
C4031 C4033 1.391 . S
C4032 C4031 1.395 . S
C4032 C4035 1.390 . S
C4033 C4031 1.391 . S
C4033 C4037 1.387 . S
C4033 C4038 1.491 . S
H4034 C4035 0.950 . S
C4035 C4032 1.390 . S
C4035 H4034 0.950 . S
C4035 C4036 1.378 . S
C4036 C4035 1.378 . S
C4036 C4037 1.409 . S
C4037 C4033 1.387 . S
C4037 C4036 1.409 . S
C4037 H4039 0.951 . S
C4038 C4033 1.491 . S
C4038 C4040 1.382 . S
C4038 C4042 1.404 . S
H4039 C4037 0.951 . S
C4040 C4038 1.382 . S
C4040 C4041 1.390 . S
C4040 H4045 0.949 . S
C4041 C4040 1.390 . S
C4041 C4046 1.399 . S
C4042 C4038 1.404 . S
C4042 H4043 0.950 . S
C4042 C4044 1.375 . S
H4043 C4042 0.950 . S
C4044 C4042 1.375 . S
C4044 C4046 1.382 . S
C4044 H4048 0.950 . S
H4045 C4040 0.949 . S
C4046 C4041 1.399 . S
C4046 C4044 1.382 . S
C4046 H4047 0.952 . S
H4047 C4046 0.952 . S
H4048 C4044 0.950 . S
H4049 C4050 0.949 . S
C4050 H4049 0.949 . S
C4050 C4051 1.395 . S
C4050 C4052 1.391 . S
C4051 C4050 1.395 . S
C4051 C4054 1.390 . S
C4052 C4050 1.391 . S
C4052 C4056 1.387 . S
C4052 C4057 1.491 . S
H4053 C4054 0.950 . S
C4054 C4051 1.390 . S
C4054 H4053 0.950 . S
C4054 C4055 1.378 . S
C4055 C4054 1.378 . S
C4055 C4056 1.409 . S
C4056 C4052 1.387 . S
C4056 C4055 1.409 . S
C4056 H4058 0.951 . S
C4057 C4052 1.491 . S
C4057 C4059 1.382 . S
C4057 C4061 1.404 . S
H4058 C4056 0.951 . S
C4059 C4057 1.382 . S
C4059 C4060 1.390 . S
C4059 H4064 0.949 . S
C4060 C4059 1.390 . S
C4060 C4065 1.399 . S
C4061 C4057 1.404 . S
C4061 H4062 0.950 . S
C4061 C4063 1.375 . S
H4062 C4061 0.950 . S
C4063 C4061 1.375 . S
C4063 C4065 1.382 . S
C4063 H4067 0.950 . S
H4064 C4059 0.949 . S
C4065 C4060 1.399 . S
C4065 C4063 1.382 . S
C4065 H4066 0.952 . S
H4066 C4065 0.952 . S
H4067 C4063 0.950 . S
H4068 C4069 0.949 . S
C4069 H4068 0.949 . S
C4069 C4070 1.395 . S
C4069 C4071 1.391 . S
C4070 C4069 1.395 . S
C4070 C4073 1.390 . S
C4071 C4069 1.391 . S
C4071 C4075 1.387 . S
C4071 C4076 1.491 . S
H4072 C4073 0.950 . S
C4073 C4070 1.390 . S
C4073 H4072 0.950 . S
C4073 C4074 1.378 . S
C4074 C4073 1.378 . S
C4074 C4075 1.409 . S
C4075 C4071 1.387 . S
C4075 C4074 1.409 . S
C4075 H4077 0.951 . S
C4076 C4071 1.491 . S
C4076 C4078 1.382 . S
C4076 C4080 1.404 . S
H4077 C4075 0.951 . S
C4078 C4076 1.382 . S
C4078 C4079 1.390 . S
C4078 H4083 0.949 . S
C4079 C4078 1.390 . S
C4079 C4084 1.399 . S
C4080 C4076 1.404 . S
C4080 H4081 0.950 . S
C4080 C4082 1.375 . S
H4081 C4080 0.950 . S
C4082 C4080 1.375 . S
C4082 C4084 1.382 . S
C4082 H4086 0.950 . S
H4083 C4078 0.949 . S
C4084 C4079 1.399 . S
C4084 C4082 1.382 . S
C4084 H4085 0.952 . S
H4085 C4084 0.952 . S
H4086 C4082 0.950 . S
H4087 C4088 0.949 . S
C4088 H4087 0.949 . S
C4088 C4089 1.395 . S
C4088 C4090 1.391 . S
C4089 C4088 1.395 . S
C4089 C4092 1.390 . S
C4090 C4088 1.391 . S
C4090 C4094 1.387 . S
C4090 C4095 1.491 . S
H4091 C4092 0.950 . S
C4092 C4089 1.390 . S
C4092 H4091 0.950 . S
C4092 C4093 1.378 . S
C4093 C4092 1.378 . S
C4093 C4094 1.409 . S
C4094 C4090 1.387 . S
C4094 C4093 1.409 . S
C4094 H4096 0.951 . S
C4095 C4090 1.491 . S
C4095 C4097 1.382 . S
C4095 C4099 1.404 . S
H4096 C4094 0.951 . S
C4097 C4095 1.382 . S
C4097 C4098 1.390 . S
C4097 H4102 0.949 . S
C4098 C4097 1.390 . S
C4098 C4103 1.399 . S
C4099 C4095 1.404 . S
C4099 H4100 0.950 . S
C4099 C4101 1.375 . S
H4100 C4099 0.950 . S
C4101 C4099 1.375 . S
C4101 C4103 1.382 . S
C4101 H4105 0.950 . S
H4102 C4097 0.949 . S
C4103 C4098 1.399 . S
C4103 C4101 1.382 . S
C4103 H4104 0.952 . S
H4104 C4103 0.952 . S
H4105 C4101 0.950 . S
H4106 C4107 0.949 . S
C4107 H4106 0.949 . S
C4107 C4108 1.395 . S
C4107 C4109 1.391 . S
C4108 C4107 1.395 . S
C4108 C4111 1.390 . S
C4109 C4107 1.391 . S
C4109 C4113 1.387 . S
C4109 C4114 1.491 . S
H4110 C4111 0.950 . S
C4111 C4108 1.390 . S
C4111 H4110 0.950 . S
C4111 C4112 1.378 . S
C4112 C4111 1.378 . S
C4112 C4113 1.409 . S
C4113 C4109 1.387 . S
C4113 C4112 1.409 . S
C4113 H4115 0.951 . S
C4114 C4109 1.491 . S
C4114 C4116 1.382 . S
C4114 C4118 1.404 . S
H4115 C4113 0.951 . S
C4116 C4114 1.382 . S
C4116 C4117 1.390 . S
C4116 H4121 0.949 . S
C4117 C4116 1.390 . S
C4117 C4122 1.399 . S
C4118 C4114 1.404 . S
C4118 H4119 0.950 . S
C4118 C4120 1.375 . S
H4119 C4118 0.950 . S
C4120 C4118 1.375 . S
C4120 C4122 1.382 . S
C4120 H4124 0.950 . S
H4121 C4116 0.949 . S
C4122 C4117 1.399 . S
C4122 C4120 1.382 . S
C4122 H4123 0.952 . S
H4123 C4122 0.952 . S
H4124 C4120 0.950 . S
H4125 C4126 0.949 . S
C4126 H4125 0.949 . S
C4126 C4127 1.395 . S
C4126 C4128 1.391 . S
C4127 C4126 1.395 . S
C4127 C4130 1.390 . S
C4128 C4126 1.391 . S
C4128 C4132 1.387 . S
C4128 C4133 1.491 . S
H4129 C4130 0.950 . S
C4130 C4127 1.390 . S
C4130 H4129 0.950 . S
C4130 C4131 1.378 . S
C4131 C4130 1.378 . S
C4131 C4132 1.409 . S
C4132 C4128 1.387 . S
C4132 C4131 1.409 . S
C4132 H4134 0.951 . S
C4133 C4128 1.491 . S
C4133 C4135 1.382 . S
C4133 C4137 1.404 . S
H4134 C4132 0.951 . S
C4135 C4133 1.382 . S
C4135 C4136 1.390 . S
C4135 H4140 0.949 . S
C4136 C4135 1.390 . S
C4136 C4141 1.399 . S
C4137 C4133 1.404 . S
C4137 H4138 0.950 . S
C4137 C4139 1.375 . S
H4138 C4137 0.950 . S
C4139 C4137 1.375 . S
C4139 C4141 1.382 . S
C4139 H4143 0.950 . S
H4140 C4135 0.949 . S
C4141 C4136 1.399 . S
C4141 C4139 1.382 . S
C4141 H4142 0.952 . S
H4142 C4141 0.952 . S
H4143 C4139 0.950 . S
H4144 C4145 0.949 . S
C4145 H4144 0.949 . S
C4145 C4146 1.395 . S
C4145 C4147 1.391 . S
C4146 C4145 1.395 . S
C4146 C4149 1.390 . S
C4147 C4145 1.391 . S
C4147 C4151 1.387 . S
C4147 C4152 1.491 . S
H4148 C4149 0.950 . S
C4149 C4146 1.390 . S
C4149 H4148 0.950 . S
C4149 C4150 1.378 . S
C4150 C4149 1.378 . S
C4150 C4151 1.409 . S
C4151 C4147 1.387 . S
C4151 C4150 1.409 . S
C4151 H4153 0.951 . S
C4152 C4147 1.491 . S
C4152 C4154 1.382 . S
C4152 C4156 1.404 . S
H4153 C4151 0.951 . S
C4154 C4152 1.382 . S
C4154 C4155 1.390 . S
C4154 H4159 0.949 . S
C4155 C4154 1.390 . S
C4155 C4160 1.399 . S
C4156 C4152 1.404 . S
C4156 H4157 0.950 . S
C4156 C4158 1.375 . S
H4157 C4156 0.950 . S
C4158 C4156 1.375 . S
C4158 C4160 1.382 . S
C4158 H4162 0.950 . S
H4159 C4154 0.949 . S
C4160 C4155 1.399 . S
C4160 C4158 1.382 . S
C4160 H4161 0.952 . S
H4161 C4160 0.952 . S
H4162 C4158 0.950 . S
H4163 C4164 0.949 . S
C4164 H4163 0.949 . S
C4164 C4165 1.395 . S
C4164 C4166 1.391 . S
C4165 C4164 1.395 . S
C4165 C4168 1.390 . S
C4166 C4164 1.391 . S
C4166 C4170 1.387 . S
C4166 C4171 1.491 . S
H4167 C4168 0.950 . S
C4168 C4165 1.390 . S
C4168 H4167 0.950 . S
C4168 C4169 1.378 . S
C4169 C4168 1.378 . S
C4169 C4170 1.409 . S
C4170 C4166 1.387 . S
C4170 C4169 1.409 . S
C4170 H4172 0.951 . S
C4171 C4166 1.491 . S
C4171 C4173 1.382 . S
C4171 C4175 1.404 . S
H4172 C4170 0.951 . S
C4173 C4171 1.382 . S
C4173 C4174 1.390 . S
C4173 H4178 0.949 . S
C4174 C4173 1.390 . S
C4174 C4179 1.399 . S
C4175 C4171 1.404 . S
C4175 H4176 0.950 . S
C4175 C4177 1.375 . S
H4176 C4175 0.950 . S
C4177 C4175 1.375 . S
C4177 C4179 1.382 . S
C4177 H4181 0.950 . S
H4178 C4173 0.949 . S
C4179 C4174 1.399 . S
C4179 C4177 1.382 . S
C4179 H4180 0.952 . S
H4180 C4179 0.952 . S
H4181 C4177 0.950 . S
H4182 C4183 0.949 . S
C4183 H4182 0.949 . S
C4183 C4184 1.395 . S
C4183 C4185 1.391 . S
C4184 C4183 1.395 . S
C4184 C4187 1.390 . S
C4185 C4183 1.391 . S
C4185 C4189 1.387 . S
C4185 C4190 1.491 . S
H4186 C4187 0.950 . S
C4187 C4184 1.390 . S
C4187 H4186 0.950 . S
C4187 C4188 1.378 . S
C4188 C4187 1.378 . S
C4188 C4189 1.409 . S
C4189 C4185 1.387 . S
C4189 C4188 1.409 . S
C4189 H4191 0.951 . S
C4190 C4185 1.491 . S
C4190 C4192 1.382 . S
C4190 C4194 1.404 . S
H4191 C4189 0.951 . S
C4192 C4190 1.382 . S
C4192 C4193 1.390 . S
C4192 H4197 0.949 . S
C4193 C4192 1.390 . S
C4193 C4198 1.399 . S
C4194 C4190 1.404 . S
C4194 H4195 0.950 . S
C4194 C4196 1.375 . S
H4195 C4194 0.950 . S
C4196 C4194 1.375 . S
C4196 C4198 1.382 . S
C4196 H4200 0.950 . S
H4197 C4192 0.949 . S
C4198 C4193 1.399 . S
C4198 C4196 1.382 . S
C4198 H4199 0.952 . S
H4199 C4198 0.952 . S
H4200 C4196 0.950 . S
H4201 C4202 0.949 . S
C4202 H4201 0.949 . S
C4202 C4203 1.395 . S
C4202 C4204 1.391 . S
C4203 C4202 1.395 . S
C4203 C4206 1.390 . S
C4204 C4202 1.391 . S
C4204 C4208 1.387 . S
C4204 C4209 1.491 . S
H4205 C4206 0.950 . S
C4206 C4203 1.390 . S
C4206 H4205 0.950 . S
C4206 C4207 1.378 . S
C4207 C4206 1.378 . S
C4207 C4208 1.409 . S
C4208 C4204 1.387 . S
C4208 C4207 1.409 . S
C4208 H4210 0.951 . S
C4209 C4204 1.491 . S
C4209 C4211 1.382 . S
C4209 C4213 1.404 . S
H4210 C4208 0.951 . S
C4211 C4209 1.382 . S
C4211 C4212 1.390 . S
C4211 H4216 0.949 . S
C4212 C4211 1.390 . S
C4212 C4217 1.399 . S
C4213 C4209 1.404 . S
C4213 H4214 0.950 . S
C4213 C4215 1.375 . S
H4214 C4213 0.950 . S
C4215 C4213 1.375 . S
C4215 C4217 1.382 . S
C4215 H4219 0.950 . S
H4216 C4211 0.949 . S
C4217 C4212 1.399 . S
C4217 C4215 1.382 . S
C4217 H4218 0.952 . S
H4218 C4217 0.952 . S
H4219 C4215 0.950 . S
H4220 C4221 0.949 . S
C4221 H4220 0.949 . S
C4221 C4222 1.395 . S
C4221 C4223 1.391 . S
C4222 C4221 1.395 . S
C4222 C4225 1.390 . S
C4223 C4221 1.391 . S
C4223 C4227 1.387 . S
C4223 C4228 1.491 . S
H4224 C4225 0.950 . S
C4225 C4222 1.390 . S
C4225 H4224 0.950 . S
C4225 C4226 1.378 . S
C4226 C4225 1.378 . S
C4226 C4227 1.409 . S
C4227 C4223 1.387 . S
C4227 C4226 1.409 . S
C4227 H4229 0.951 . S
C4228 C4223 1.491 . S
C4228 C4230 1.382 . S
C4228 C4232 1.404 . S
H4229 C4227 0.951 . S
C4230 C4228 1.382 . S
C4230 C4231 1.390 . S
C4230 H4235 0.949 . S
C4231 C4230 1.390 . S
C4231 C4236 1.399 . S
C4232 C4228 1.404 . S
C4232 H4233 0.950 . S
C4232 C4234 1.375 . S
H4233 C4232 0.950 . S
C4234 C4232 1.375 . S
C4234 C4236 1.382 . S
C4234 H4238 0.950 . S
H4235 C4230 0.949 . S
C4236 C4231 1.399 . S
C4236 C4234 1.382 . S
C4236 H4237 0.952 . S
H4237 C4236 0.952 . S
H4238 C4234 0.950 . S
H4239 C4240 0.949 . S
C4240 H4239 0.949 . S
C4240 C4241 1.395 . S
C4240 C4242 1.391 . S
C4241 C4240 1.395 . S
C4241 C4244 1.390 . S
C4242 C4240 1.391 . S
C4242 C4246 1.387 . S
C4242 C4247 1.491 . S
H4243 C4244 0.950 . S
C4244 C4241 1.390 . S
C4244 H4243 0.950 . S
C4244 C4245 1.378 . S
C4245 C4244 1.378 . S
C4245 C4246 1.409 . S
C4246 C4242 1.387 . S
C4246 C4245 1.409 . S
C4246 H4248 0.951 . S
C4247 C4242 1.491 . S
C4247 C4249 1.382 . S
C4247 C4251 1.404 . S
H4248 C4246 0.951 . S
C4249 C4247 1.382 . S
C4249 C4250 1.390 . S
C4249 H4254 0.949 . S
C4250 C4249 1.390 . S
C4250 C4255 1.399 . S
C4251 C4247 1.404 . S
C4251 H4252 0.950 . S
C4251 C4253 1.375 . S
H4252 C4251 0.950 . S
C4253 C4251 1.375 . S
C4253 C4255 1.382 . S
C4253 H4257 0.950 . S
H4254 C4249 0.949 . S
C4255 C4250 1.399 . S
C4255 C4253 1.382 . S
C4255 H4256 0.952 . S
H4256 C4255 0.952 . S
H4257 C4253 0.950 . S
H4258 C4259 0.949 . S
C4259 H4258 0.949 . S
C4259 C4260 1.395 . S
C4259 C4261 1.391 . S
C4260 C4259 1.395 . S
C4260 C4263 1.390 . S
C4261 C4259 1.391 . S
C4261 C4265 1.387 . S
C4261 C4266 1.491 . S
H4262 C4263 0.950 . S
C4263 C4260 1.390 . S
C4263 H4262 0.950 . S
C4263 C4264 1.378 . S
C4264 C4263 1.378 . S
C4264 C4265 1.409 . S
C4265 C4261 1.387 . S
C4265 C4264 1.409 . S
C4265 H4267 0.951 . S
C4266 C4261 1.491 . S
C4266 C4268 1.382 . S
C4266 C4270 1.404 . S
H4267 C4265 0.951 . S
C4268 C4266 1.382 . S
C4268 C4269 1.390 . S
C4268 H4273 0.949 . S
C4269 C4268 1.390 . S
C4269 C4274 1.399 . S
C4270 C4266 1.404 . S
C4270 H4271 0.950 . S
C4270 C4272 1.375 . S
H4271 C4270 0.950 . S
C4272 C4270 1.375 . S
C4272 C4274 1.382 . S
C4272 H4276 0.950 . S
H4273 C4268 0.949 . S
C4274 C4269 1.399 . S
C4274 C4272 1.382 . S
C4274 H4275 0.952 . S
H4275 C4274 0.952 . S
H4276 C4272 0.950 . S
H4277 C4278 0.949 . S
C4278 H4277 0.949 . S
C4278 C4279 1.395 . S
C4278 C4280 1.391 . S
C4279 C4278 1.395 . S
C4279 C4282 1.390 . S
C4280 C4278 1.391 . S
C4280 C4284 1.387 . S
C4280 C4285 1.491 . S
H4281 C4282 0.950 . S
C4282 C4279 1.390 . S
C4282 H4281 0.950 . S
C4282 C4283 1.378 . S
C4283 C4282 1.378 . S
C4283 C4284 1.409 . S
C4284 C4280 1.387 . S
C4284 C4283 1.409 . S
C4284 H4286 0.951 . S
C4285 C4280 1.491 . S
C4285 C4287 1.382 . S
C4285 C4289 1.404 . S
H4286 C4284 0.951 . S
C4287 C4285 1.382 . S
C4287 C4288 1.390 . S
C4287 H4292 0.949 . S
C4288 C4287 1.390 . S
C4288 C4293 1.399 . S
C4289 C4285 1.404 . S
C4289 H4290 0.950 . S
C4289 C4291 1.375 . S
H4290 C4289 0.950 . S
C4291 C4289 1.375 . S
C4291 C4293 1.382 . S
C4291 H4295 0.950 . S
H4292 C4287 0.949 . S
C4293 C4288 1.399 . S
C4293 C4291 1.382 . S
C4293 H4294 0.952 . S
H4294 C4293 0.952 . S
H4295 C4291 0.950 . S
H4296 C4297 0.949 . S
C4297 H4296 0.949 . S
C4297 C4298 1.395 . S
C4297 C4299 1.391 . S
C4298 C4297 1.395 . S
C4298 C4301 1.390 . S
C4299 C4297 1.391 . S
C4299 C4303 1.387 . S
C4299 C4304 1.491 . S
H4300 C4301 0.950 . S
C4301 C4298 1.390 . S
C4301 H4300 0.950 . S
C4301 C4302 1.378 . S
C4302 C4301 1.378 . S
C4302 C4303 1.409 . S
C4303 C4299 1.387 . S
C4303 C4302 1.409 . S
C4303 H4305 0.951 . S
C4304 C4299 1.491 . S
C4304 C4306 1.382 . S
C4304 C4308 1.404 . S
H4305 C4303 0.951 . S
C4306 C4304 1.382 . S
C4306 C4307 1.390 . S
C4306 H4311 0.949 . S
C4307 C4306 1.390 . S
C4307 C4312 1.399 . S
C4308 C4304 1.404 . S
C4308 H4309 0.950 . S
C4308 C4310 1.375 . S
H4309 C4308 0.950 . S
C4310 C4308 1.375 . S
C4310 C4312 1.382 . S
C4310 H4314 0.950 . S
H4311 C4306 0.949 . S
C4312 C4307 1.399 . S
C4312 C4310 1.382 . S
C4312 H4313 0.952 . S
H4313 C4312 0.952 . S
H4314 C4310 0.950 . S
H4315 C4316 0.949 . S
C4316 H4315 0.949 . S
C4316 C4317 1.395 . S
C4316 C4318 1.391 . S
C4317 C4316 1.395 . S
C4317 C4320 1.390 . S
C4318 C4316 1.391 . S
C4318 C4322 1.387 . S
C4318 C4323 1.491 . S
H4319 C4320 0.950 . S
C4320 C4317 1.390 . S
C4320 H4319 0.950 . S
C4320 C4321 1.378 . S
C4321 C4320 1.378 . S
C4321 C4322 1.409 . S
C4322 C4318 1.387 . S
C4322 C4321 1.409 . S
C4322 H4324 0.951 . S
C4323 C4318 1.491 . S
C4323 C4325 1.382 . S
C4323 C4327 1.404 . S
H4324 C4322 0.951 . S
C4325 C4323 1.382 . S
C4325 C4326 1.390 . S
C4325 H4330 0.949 . S
C4326 C4325 1.390 . S
C4326 C4331 1.377 1_655 S
C4327 C4323 1.404 . S
C4327 H4328 0.950 . S
C4327 C4329 1.375 . S
H4328 C4327 0.950 . S
C4329 C4327 1.375 . S
C4329 C4331 1.370 1_655 S
C4329 H4333 0.878 1_655 S
H4330 C4325 0.949 . S
C4331 C4326 1.377 1_455 S
C4331 C4329 1.370 1_455 S
C4331 H4332 0.986 . S
H4332 C4331 0.986 . S
H4333 C4329 0.878 1_455 S
H4334 C4335 0.949 . S
C4335 H4334 0.949 . S
C4335 C4336 1.395 . S
C4335 C4337 1.391 . S
C4336 C4335 1.395 . S
C4336 C4339 1.390 . S
C4337 C4335 1.391 . S
C4337 C4341 1.387 . S
C4337 C4342 1.491 . S
H4338 C4339 0.950 . S
C4339 C4336 1.390 . S
C4339 H4338 0.950 . S
C4339 C4340 1.378 . S
C4340 C4339 1.378 . S
C4340 C4341 1.409 . S
C4341 C4337 1.387 . S
C4341 C4340 1.409 . S
C4341 H4343 0.951 . S
C4342 C4337 1.491 . S
C4342 C4344 1.382 . S
C4342 C4346 1.404 . S
H4343 C4341 0.951 . S
C4344 C4342 1.382 . S
C4344 C4345 1.390 . S
C4344 H4349 0.949 . S
C4345 C4344 1.390 . S
C4345 C4350 1.399 . S
C4346 C4342 1.404 . S
C4346 H4347 0.950 . S
C4346 C4348 1.375 . S
H4347 C4346 0.950 . S
C4348 C4346 1.375 . S
C4348 C4350 1.382 . S
C4348 H4352 0.950 . S
H4349 C4344 0.949 . S
C4350 C4345 1.399 . S
C4350 C4348 1.382 . S
C4350 H4351 0.952 . S
H4351 C4350 0.952 . S
H4352 C4348 0.950 . S
H4353 C4354 0.949 . S
C4354 H4353 0.949 . S
C4354 C4355 1.395 . S
C4354 C4356 1.391 . S
C4355 C4354 1.395 . S
C4355 C4358 1.390 . S
C4356 C4354 1.391 . S
C4356 C4360 1.387 . S
C4356 C4361 1.491 . S
H4357 C4358 0.950 . S
C4358 C4355 1.390 . S
C4358 H4357 0.950 . S
C4358 C4359 1.378 . S
C4359 C4358 1.378 . S
C4359 C4360 1.409 . S
C4360 C4356 1.387 . S
C4360 C4359 1.409 . S
C4360 H4362 0.951 . S
C4361 C4356 1.491 . S
C4361 C4363 1.382 . S
C4361 C4365 1.404 . S
H4362 C4360 0.951 . S
C4363 C4361 1.382 . S
C4363 C4364 1.390 . S
C4363 H4368 0.949 . S
C4364 C4363 1.390 . S
C4364 C4369 1.399 . S
C4365 C4361 1.404 . S
C4365 H4366 0.950 . S
C4365 C4367 1.375 . S
H4366 C4365 0.950 . S
C4367 C4365 1.375 . S
C4367 C4369 1.382 . S
C4367 H4371 0.950 . S
H4368 C4363 0.949 . S
C4369 C4364 1.399 . S
C4369 C4367 1.382 . S
C4369 H4370 0.952 . S
H4370 C4369 0.952 . S
H4371 C4367 0.950 . S
H4372 C4373 0.949 . S
C4373 H4372 0.949 . S
C4373 C4374 1.395 . S
C4373 C4375 1.391 . S
C4374 C4373 1.395 . S
C4374 C4377 1.390 . S
C4375 C4373 1.391 . S
C4375 C4379 1.387 . S
C4375 C4380 1.491 . S
H4376 C4377 0.950 . S
C4377 C4374 1.390 . S
C4377 H4376 0.950 . S
C4377 C4378 1.378 . S
C4378 C4377 1.378 . S
C4378 C4379 1.409 . S
C4379 C4375 1.387 . S
C4379 C4378 1.409 . S
C4379 H4381 0.951 . S
C4380 C4375 1.491 . S
C4380 C4382 1.382 . S
C4380 C4384 1.404 . S
H4381 C4379 0.951 . S
C4382 C4380 1.382 . S
C4382 C4383 1.390 . S
C4382 H4387 0.949 . S
C4383 C4382 1.390 . S
C4383 C4388 1.399 . S
C4384 C4380 1.404 . S
C4384 H4385 0.950 . S
C4384 C4386 1.375 . S
H4385 C4384 0.950 . S
C4386 C4384 1.375 . S
C4386 C4388 1.382 . S
C4386 H4390 0.950 . S
H4387 C4382 0.949 . S
C4388 C4383 1.399 . S
C4388 C4386 1.382 . S
C4388 H4389 0.952 . S
H4389 C4388 0.952 . S
H4390 C4386 0.950 . S
H4391 C4392 0.949 . S
C4392 H4391 0.949 . S
C4392 C4393 1.395 . S
C4392 C4394 1.391 . S
C4393 C4392 1.395 . S
C4393 C4396 1.390 . S
C4394 C4392 1.391 . S
C4394 C4398 1.387 . S
C4394 C4399 1.491 . S
H4395 C4396 0.950 . S
C4396 C4393 1.390 . S
C4396 H4395 0.950 . S
C4396 C4397 1.378 . S
C4397 C4396 1.378 . S
C4397 C4398 1.409 . S
C4398 C4394 1.387 . S
C4398 C4397 1.409 . S
C4398 H4400 0.951 . S
C4399 C4394 1.491 . S
C4399 C4401 1.382 . S
C4399 C4403 1.404 . S
H4400 C4398 0.951 . S
C4401 C4399 1.382 . S
C4401 C4402 1.390 . S
C4401 H4406 0.949 . S
C4402 C4401 1.390 . S
C4402 C4407 1.399 . S
C4403 C4399 1.404 . S
C4403 H4404 0.950 . S
C4403 C4405 1.375 . S
H4404 C4403 0.950 . S
C4405 C4403 1.375 . S
C4405 C4407 1.382 . S
C4405 H4409 0.950 . S
H4406 C4401 0.949 . S
C4407 C4402 1.399 . S
C4407 C4405 1.382 . S
C4407 H4408 0.952 . S
H4408 C4407 0.952 . S
H4409 C4405 0.950 . S
H4410 C4411 0.949 . S
C4411 H4410 0.949 . S
C4411 C4412 1.395 . S
C4411 C4413 1.391 . S
C4412 C4411 1.395 . S
C4412 C4415 1.390 . S
C4413 C4411 1.391 . S
C4413 C4417 1.387 . S
C4413 C4418 1.491 . S
H4414 C4415 0.950 . S
C4415 C4412 1.390 . S
C4415 H4414 0.950 . S
C4415 C4416 1.378 . S
C4416 C4415 1.378 . S
C4416 C4417 1.409 . S
C4417 C4413 1.387 . S
C4417 C4416 1.409 . S
C4417 H4419 0.951 . S
C4418 C4413 1.491 . S
C4418 C4420 1.382 . S
C4418 C4422 1.404 . S
H4419 C4417 0.951 . S
C4420 C4418 1.382 . S
C4420 C4421 1.390 . S
C4420 H4425 0.949 . S
C4421 C4420 1.390 . S
C4421 C4426 1.399 . S
C4422 C4418 1.404 . S
C4422 H4423 0.950 . S
C4422 C4424 1.375 . S
H4423 C4422 0.950 . S
C4424 C4422 1.375 . S
C4424 C4426 1.382 . S
C4424 H4428 0.950 . S
H4425 C4420 0.949 . S
C4426 C4421 1.399 . S
C4426 C4424 1.382 . S
C4426 H4427 0.952 . S
H4427 C4426 0.952 . S
H4428 C4424 0.950 . S
H4429 C4430 0.949 . S
C4430 H4429 0.949 . S
C4430 C4431 1.395 . S
C4430 C4432 1.391 . S
C4431 C4430 1.395 . S
C4431 C4434 1.390 . S
C4432 C4430 1.391 . S
C4432 C4436 1.387 . S
C4432 C4437 1.491 . S
H4433 C4434 0.950 . S
C4434 C4431 1.390 . S
C4434 H4433 0.950 . S
C4434 C4435 1.378 . S
C4435 C4434 1.378 . S
C4435 C4436 1.409 . S
C4436 C4432 1.387 . S
C4436 C4435 1.409 . S
C4436 H4438 0.951 . S
C4437 C4432 1.491 . S
C4437 C4439 1.382 . S
C4437 C4441 1.404 . S
H4438 C4436 0.951 . S
C4439 C4437 1.382 . S
C4439 C4440 1.390 . S
C4439 H4444 0.949 . S
C4440 C4439 1.390 . S
C4440 C4445 1.376 1_655 S
C4441 C4437 1.404 . S
C4441 H4442 0.950 . S
C4441 C4443 1.375 . S
H4442 C4441 0.950 . S
C4443 C4441 1.375 . S
C4443 C4445 1.369 1_655 S
C4443 H4447 0.877 1_655 S
H4444 C4439 0.949 . S
C4445 C4440 1.376 1_455 S
C4445 C4443 1.369 1_455 S
C4445 H4446 0.988 . S
H4446 C4445 0.988 . S
H4447 C4443 0.877 1_455 S
H4448 C4449 0.949 . S
C4449 H4448 0.949 . S
C4449 C4450 1.395 . S
C4449 C4451 1.391 . S
C4450 C4449 1.395 . S
C4450 C4453 1.390 . S
C4451 C4449 1.391 . S
C4451 C4455 1.387 . S
C4451 C4456 1.491 . S
H4452 C4453 0.950 . S
C4453 C4450 1.390 . S
C4453 H4452 0.950 . S
C4453 C4454 1.378 . S
C4454 C4453 1.378 . S
C4454 C4455 1.409 . S
C4455 C4451 1.387 . S
C4455 C4454 1.409 . S
C4455 H4457 0.951 . S
C4456 C4451 1.491 . S
C4456 C4458 1.382 . S
C4456 C4460 1.404 . S
H4457 C4455 0.951 . S
C4458 C4456 1.382 . S
C4458 C4459 1.390 . S
C4458 H4463 0.949 . S
C4459 C4458 1.390 . S
C4459 C4464 1.399 . S
C4460 C4456 1.404 . S
C4460 H4461 0.950 . S
C4460 C4462 1.375 . S
H4461 C4460 0.950 . S
C4462 C4460 1.375 . S
C4462 C4464 1.382 . S
C4462 H4466 0.950 . S
H4463 C4458 0.949 . S
C4464 C4459 1.399 . S
C4464 C4462 1.382 . S
C4464 H4465 0.952 . S
H4465 C4464 0.952 . S
H4466 C4462 0.950 . S
H4467 C4468 0.949 . S
C4468 H4467 0.949 . S
C4468 C4469 1.395 . S
C4468 C4470 1.391 . S
C4469 C4468 1.395 . S
C4469 C4472 1.390 . S
C4470 C4468 1.391 . S
C4470 C4474 1.387 . S
C4470 C4475 1.491 . S
H4471 C4472 0.950 . S
C4472 C4469 1.390 . S
C4472 H4471 0.950 . S
C4472 C4473 1.378 . S
C4473 C4472 1.378 . S
C4473 C4474 1.409 . S
C4474 C4470 1.387 . S
C4474 C4473 1.409 . S
C4474 H4476 0.951 . S
C4475 C4470 1.491 . S
C4475 C4477 1.382 . S
C4475 C4479 1.404 . S
H4476 C4474 0.951 . S
C4477 C4475 1.382 . S
C4477 C4478 1.390 . S
C4477 H4482 0.949 . S
C4478 C4477 1.390 . S
C4478 C4483 1.399 . S
C4479 C4475 1.404 . S
C4479 H4480 0.950 . S
C4479 C4481 1.375 . S
H4480 C4479 0.950 . S
C4481 C4479 1.375 . S
C4481 C4483 1.382 . S
C4481 H4485 0.950 . S
H4482 C4477 0.949 . S
C4483 C4478 1.399 . S
C4483 C4481 1.382 . S
C4483 H4484 0.952 . S
H4484 C4483 0.952 . S
H4485 C4481 0.950 . S
H4486 C4487 0.949 . S
C4487 H4486 0.949 . S
C4487 C4488 1.395 . S
C4487 C4489 1.391 . S
C4488 C4487 1.395 . S
C4488 C4491 1.390 . S
C4489 C4487 1.391 . S
C4489 C4493 1.387 . S
C4489 C4494 1.491 . S
H4490 C4491 0.950 . S
C4491 C4488 1.390 . S
C4491 H4490 0.950 . S
C4491 C4492 1.378 . S
C4492 C4491 1.378 . S
C4492 C4493 1.409 . S
C4493 C4489 1.387 . S
C4493 C4492 1.409 . S
C4493 H4495 0.951 . S
C4494 C4489 1.491 . S
C4494 C4496 1.382 . S
C4494 C4498 1.404 . S
H4495 C4493 0.951 . S
C4496 C4494 1.382 . S
C4496 C4497 1.390 . S
C4496 H4501 0.949 . S
C4497 C4496 1.390 . S
C4497 C4502 1.399 . S
C4498 C4494 1.404 . S
C4498 H4499 0.950 . S
C4498 C4500 1.375 . S
H4499 C4498 0.950 . S
C4500 C4498 1.375 . S
C4500 C4502 1.382 . S
C4500 H4504 0.950 . S
H4501 C4496 0.949 . S
C4502 C4497 1.399 . S
C4502 C4500 1.382 . S
C4502 H4503 0.952 . S
H4503 C4502 0.952 . S
H4504 C4500 0.950 . S
H4505 C4506 0.949 . S
C4506 H4505 0.949 . S
C4506 C4507 1.395 . S
C4506 C4508 1.391 . S
C4507 C4506 1.395 . S
C4507 C4510 1.390 . S
C4508 C4506 1.391 . S
C4508 C4512 1.387 . S
C4508 C4513 1.491 . S
H4509 C4510 0.950 . S
C4510 C4507 1.390 . S
C4510 H4509 0.950 . S
C4510 C4511 1.378 . S
C4511 C4510 1.378 . S
C4511 C4512 1.409 . S
C4512 C4508 1.387 . S
C4512 C4511 1.409 . S
C4512 H4514 0.951 . S
C4513 C4508 1.491 . S
C4513 C4515 1.382 . S
C4513 C4517 1.404 . S
H4514 C4512 0.951 . S
C4515 C4513 1.382 . S
C4515 C4516 1.390 . S
C4515 H4520 0.949 . S
C4516 C4515 1.390 . S
C4516 C4521 1.377 1_554 S
C4517 C4513 1.404 . S
C4517 H4518 0.950 . S
C4517 C4519 1.375 . S
H4518 C4517 0.950 . S
C4519 C4517 1.375 . S
C4519 C4521 1.370 1_554 S
C4519 H4523 0.878 1_554 S
H4520 C4515 0.949 . S
C4521 C4516 1.377 1_556 S
C4521 C4519 1.370 1_556 S
C4521 H4522 0.987 . S
H4522 C4521 0.987 . S
H4523 C4519 0.878 1_556 S
H4524 C4525 0.949 . S
C4525 H4524 0.949 . S
C4525 C4526 1.395 . S
C4525 C4527 1.391 . S
C4526 C4525 1.395 . S
C4526 C4529 1.390 . S
C4527 C4525 1.391 . S
C4527 C4531 1.387 . S
C4527 C4532 1.491 . S
H4528 C4529 0.950 . S
C4529 C4526 1.390 . S
C4529 H4528 0.950 . S
C4529 C4530 1.378 . S
C4530 C4529 1.378 . S
C4530 C4531 1.409 . S
C4531 C4527 1.387 . S
C4531 C4530 1.409 . S
C4531 H4533 0.951 . S
C4532 C4527 1.491 . S
C4532 C4534 1.382 . S
C4532 C4536 1.404 . S
H4533 C4531 0.951 . S
C4534 C4532 1.382 . S
C4534 C4535 1.390 . S
C4534 H4539 0.949 . S
C4535 C4534 1.390 . S
C4535 C4540 1.399 . S
C4536 C4532 1.404 . S
C4536 H4537 0.950 . S
C4536 C4538 1.375 . S
H4537 C4536 0.950 . S
C4538 C4536 1.375 . S
C4538 C4540 1.382 . S
C4538 H4542 0.950 . S
H4539 C4534 0.949 . S
C4540 C4535 1.399 . S
C4540 C4538 1.382 . S
C4540 H4541 0.952 . S
H4541 C4540 0.952 . S
H4542 C4538 0.950 . S
H4543 C4544 0.949 . S
C4544 H4543 0.949 . S
C4544 C4545 1.395 . S
C4544 C4546 1.391 . S
C4545 C4544 1.395 . S
C4545 C4548 1.390 . S
C4546 C4544 1.391 . S
C4546 C4550 1.387 . S
C4546 C4551 1.491 . S
H4547 C4548 0.950 . S
C4548 C4545 1.390 . S
C4548 H4547 0.950 . S
C4548 C4549 1.378 . S
C4549 C4548 1.378 . S
C4549 C4550 1.409 . S
C4550 C4546 1.387 . S
C4550 C4549 1.409 . S
C4550 H4552 0.951 . S
C4551 C4546 1.491 . S
C4551 C4553 1.382 . S
C4551 C4555 1.404 . S
H4552 C4550 0.951 . S
C4553 C4551 1.382 . S
C4553 C4554 1.390 . S
C4553 H4558 0.949 . S
C4554 C4553 1.390 . S
C4554 C4559 1.399 . S
C4555 C4551 1.404 . S
C4555 H4556 0.950 . S
C4555 C4557 1.375 . S
H4556 C4555 0.950 . S
C4557 C4555 1.375 . S
C4557 C4559 1.382 . S
C4557 H4561 0.950 . S
H4558 C4553 0.949 . S
C4559 C4554 1.399 . S
C4559 C4557 1.382 . S
C4559 H4560 0.952 . S
H4560 C4559 0.952 . S
H4561 C4557 0.950 . S
H4562 C4563 0.949 . S
C4563 H4562 0.949 . S
C4563 C4564 1.395 . S
C4563 C4565 1.391 . S
C4564 C4563 1.395 . S
C4564 C4567 1.390 . S
C4565 C4563 1.391 . S
C4565 C4569 1.387 . S
C4565 C4570 1.491 . S
H4566 C4567 0.950 . S
C4567 C4564 1.390 . S
C4567 H4566 0.950 . S
C4567 C4568 1.378 . S
C4568 C4567 1.378 . S
C4568 C4569 1.409 . S
C4569 C4565 1.387 . S
C4569 C4568 1.409 . S
C4569 H4571 0.951 . S
C4570 C4565 1.491 . S
C4570 C4572 1.382 . S
C4570 C4574 1.404 . S
H4571 C4569 0.951 . S
C4572 C4570 1.382 . S
C4572 C4573 1.390 . S
C4572 H4577 0.949 . S
C4573 C4572 1.390 . S
C4573 C4578 1.399 . S
C4574 C4570 1.404 . S
C4574 H4575 0.950 . S
C4574 C4576 1.375 . S
H4575 C4574 0.950 . S
C4576 C4574 1.375 . S
C4576 C4578 1.382 . S
C4576 H4580 0.950 . S
H4577 C4572 0.949 . S
C4578 C4573 1.399 . S
C4578 C4576 1.382 . S
C4578 H4579 0.952 . S
H4579 C4578 0.952 . S
H4580 C4576 0.950 . S
H4581 C4582 0.949 . S
C4582 H4581 0.949 . S
C4582 C4583 1.395 . S
C4582 C4584 1.391 . S
C4583 C4582 1.395 . S
C4583 C4586 1.390 . S
C4584 C4582 1.391 . S
C4584 C4588 1.387 . S
C4584 C4589 1.491 . S
H4585 C4586 0.950 . S
C4586 C4583 1.390 . S
C4586 H4585 0.950 . S
C4586 C4587 1.378 . S
C4587 C4586 1.378 . S
C4587 C4588 1.409 . S
C4588 C4584 1.387 . S
C4588 C4587 1.409 . S
C4588 H4590 0.951 . S
C4589 C4584 1.491 . S
C4589 C4591 1.382 . S
C4589 C4593 1.404 . S
H4590 C4588 0.951 . S
C4591 C4589 1.382 . S
C4591 C4592 1.390 . S
C4591 H4596 0.949 . S
C4592 C4591 1.390 . S
C4592 C4597 1.376 1_556 S
C4593 C4589 1.404 . S
C4593 H4594 0.950 . S
C4593 C4595 1.375 . S
H4594 C4593 0.950 . S
C4595 C4593 1.375 . S
C4595 C4597 1.369 1_556 S
C4595 H4599 0.877 1_556 S
H4596 C4591 0.949 . S
C4597 C4592 1.376 1_554 S
C4597 C4595 1.369 1_554 S
C4597 H4598 0.988 . S
H4598 C4597 0.988 . S
H4599 C4595 0.877 1_554 S
H4600 C4601 0.949 . S
C4601 H4600 0.949 . S
C4601 C4602 1.395 . S
C4601 C4603 1.391 . S
C4602 C4601 1.395 . S
C4602 C4605 1.390 . S
C4603 C4601 1.391 . S
C4603 C4607 1.387 . S
C4603 C4608 1.491 . S
H4604 C4605 0.950 . S
C4605 C4602 1.390 . S
C4605 H4604 0.950 . S
C4605 C4606 1.378 . S
C4606 C4605 1.378 . S
C4606 C4607 1.409 . S
C4607 C4603 1.387 . S
C4607 C4606 1.409 . S
C4607 H4609 0.951 . S
C4608 C4603 1.491 . S
C4608 C4610 1.382 . S
C4608 C4612 1.404 . S
H4609 C4607 0.951 . S
C4610 C4608 1.382 . S
C4610 C4611 1.390 . S
C4610 H4615 0.949 . S
C4611 C4610 1.390 . S
C4611 C4616 1.399 . S
C4612 C4608 1.404 . S
C4612 H4613 0.950 . S
C4612 C4614 1.375 . S
H4613 C4612 0.950 . S
C4614 C4612 1.375 . S
C4614 C4616 1.382 . S
C4614 H4618 0.950 . S
H4615 C4610 0.949 . S
C4616 C4611 1.399 . S
C4616 C4614 1.382 . S
C4616 H4617 0.952 . S
H4617 C4616 0.952 . S
H4618 C4614 0.950 . S
H4619 C4620 0.949 . S
C4620 H4619 0.949 . S
C4620 C4621 1.395 . S
C4620 C4622 1.391 . S
C4621 C4620 1.395 . S
C4621 C4624 1.390 . S
C4622 C4620 1.391 . S
C4622 C4626 1.387 . S
C4622 C4627 1.491 . S
H4623 C4624 0.950 . S
C4624 C4621 1.390 . S
C4624 H4623 0.950 . S
C4624 C4625 1.378 . S
C4625 C4624 1.378 . S
C4625 C4626 1.409 . S
C4626 C4622 1.387 . S
C4626 C4625 1.409 . S
C4626 H4628 0.951 . S
C4627 C4622 1.491 . S
C4627 C4629 1.382 . S
C4627 C4631 1.404 . S
H4628 C4626 0.951 . S
C4629 C4627 1.382 . S
C4629 C4630 1.390 . S
C4629 H4634 0.949 . S
C4630 C4629 1.390 . S
C4630 C4635 1.399 . S
C4631 C4627 1.404 . S
C4631 H4632 0.950 . S
C4631 C4633 1.375 . S
H4632 C4631 0.950 . S
C4633 C4631 1.375 . S
C4633 C4635 1.382 . S
C4633 H4637 0.950 . S
H4634 C4629 0.949 . S
C4635 C4630 1.399 . S
C4635 C4633 1.382 . S
C4635 H4636 0.952 . S
H4636 C4635 0.952 . S
H4637 C4633 0.950 . S
H4638 C4639 0.949 . S
C4639 H4638 0.949 . S
C4639 C4640 1.395 . S
C4639 C4641 1.391 . S
C4640 C4639 1.395 . S
C4640 C4643 1.390 . S
C4641 C4639 1.391 . S
C4641 C4645 1.387 . S
C4641 C4646 1.491 . S
H4642 C4643 0.950 . S
C4643 C4640 1.390 . S
C4643 H4642 0.950 . S
C4643 C4644 1.378 . S
C4644 C4643 1.378 . S
C4644 C4645 1.409 . S
C4645 C4641 1.387 . S
C4645 C4644 1.409 . S
C4645 H4647 0.951 . S
C4646 C4641 1.491 . S
C4646 C4648 1.382 . S
C4646 C4650 1.404 . S
H4647 C4645 0.951 . S
C4648 C4646 1.382 . S
C4648 C4649 1.390 . S
C4648 H4653 0.949 . S
C4649 C4648 1.390 . S
C4649 C4654 1.399 . S
C4650 C4646 1.404 . S
C4650 H4651 0.950 . S
C4650 C4652 1.375 . S
H4651 C4650 0.950 . S
C4652 C4650 1.375 . S
C4652 C4654 1.382 . S
C4652 H4656 0.950 . S
H4653 C4648 0.949 . S
C4654 C4649 1.399 . S
C4654 C4652 1.382 . S
C4654 H4655 0.952 . S
H4655 C4654 0.952 . S
H4656 C4652 0.950 . S
H4657 C4658 0.949 . S
C4658 H4657 0.949 . S
C4658 C4659 1.395 . S
C4658 C4660 1.391 . S
C4659 C4658 1.395 . S
C4659 C4662 1.390 . S
C4660 C4658 1.391 . S
C4660 C4664 1.387 . S
C4660 C4665 1.491 . S
H4661 C4662 0.950 . S
C4662 C4659 1.390 . S
C4662 H4661 0.950 . S
C4662 C4663 1.378 . S
C4663 C4662 1.378 . S
C4663 C4664 1.409 . S
C4664 C4660 1.387 . S
C4664 C4663 1.409 . S
C4664 H4666 0.951 . S
C4665 C4660 1.491 . S
C4665 C4667 1.382 . S
C4665 C4669 1.404 . S
H4666 C4664 0.951 . S
C4667 C4665 1.382 . S
C4667 C4668 1.390 . S
C4667 H4672 0.949 . S
C4668 C4667 1.390 . S
C4668 C4673 1.399 . S
C4669 C4665 1.404 . S
C4669 H4670 0.950 . S
C4669 C4671 1.375 . S
H4670 C4669 0.950 . S
C4671 C4669 1.375 . S
C4671 C4673 1.382 . S
C4671 H4675 0.950 . S
H4672 C4667 0.949 . S
C4673 C4668 1.399 . S
C4673 C4671 1.382 . S
C4673 H4674 0.952 . S
H4674 C4673 0.952 . S
H4675 C4671 0.950 . S
H4676 C4677 0.949 . S
C4677 H4676 0.949 . S
C4677 C4678 1.395 . S
C4677 C4679 1.391 . S
C4678 C4677 1.395 . S
C4678 C4681 1.390 . S
C4679 C4677 1.391 . S
C4679 C4683 1.387 . S
C4679 C4684 1.491 . S
H4680 C4681 0.950 . S
C4681 C4678 1.390 . S
C4681 H4680 0.950 . S
C4681 C4682 1.378 . S
C4682 C4681 1.378 . S
C4682 C4683 1.409 . S
C4683 C4679 1.387 . S
C4683 C4682 1.409 . S
C4683 H4685 0.951 . S
C4684 C4679 1.491 . S
C4684 C4686 1.382 . S
C4684 C4688 1.404 . S
H4685 C4683 0.951 . S
C4686 C4684 1.382 . S
C4686 C4687 1.390 . S
C4686 H4691 0.949 . S
C4687 C4686 1.390 . S
C4687 C4692 1.376 1_565 S
C4688 C4684 1.404 . S
C4688 H4689 0.950 . S
C4688 C4690 1.375 . S
H4689 C4688 0.950 . S
C4690 C4688 1.375 . S
C4690 C4692 1.369 1_565 S
C4690 H4694 0.877 1_565 S
H4691 C4686 0.949 . S
C4692 C4687 1.376 1_545 S
C4692 C4690 1.369 1_545 S
C4692 H4693 0.989 . S
H4693 C4692 0.989 . S
H4694 C4690 0.877 1_545 S
H4695 C4696 0.949 . S
C4696 H4695 0.949 . S
C4696 C4697 1.395 . S
C4696 C4698 1.391 . S
C4697 C4696 1.395 . S
C4697 C4700 1.390 . S
C4698 C4696 1.391 . S
C4698 C4702 1.387 . S
C4698 C4703 1.491 . S
H4699 C4700 0.950 . S
C4700 C4697 1.390 . S
C4700 H4699 0.950 . S
C4700 C4701 1.378 . S
C4701 C4700 1.378 . S
C4701 C4702 1.409 . S
C4702 C4698 1.387 . S
C4702 C4701 1.409 . S
C4702 H4704 0.951 . S
C4703 C4698 1.491 . S
C4703 C4705 1.382 . S
C4703 C4707 1.404 . S
H4704 C4702 0.951 . S
C4705 C4703 1.382 . S
C4705 C4706 1.390 . S
C4705 H4710 0.949 . S
C4706 C4705 1.390 . S
C4706 C4711 1.399 . S
C4707 C4703 1.404 . S
C4707 H4708 0.950 . S
C4707 C4709 1.375 . S
H4708 C4707 0.950 . S
C4709 C4707 1.375 . S
C4709 C4711 1.382 . S
C4709 H4713 0.950 . S
H4710 C4705 0.949 . S
C4711 C4706 1.399 . S
C4711 C4709 1.382 . S
C4711 H4712 0.952 . S
H4712 C4711 0.952 . S
H4713 C4709 0.950 . S
H4714 C4715 0.949 . S
C4715 H4714 0.949 . S
C4715 C4716 1.395 . S
C4715 C4717 1.391 . S
C4716 C4715 1.395 . S
C4716 C4719 1.390 . S
C4717 C4715 1.391 . S
C4717 C4721 1.387 . S
C4717 C4722 1.491 . S
H4718 C4719 0.950 . S
C4719 C4716 1.390 . S
C4719 H4718 0.950 . S
C4719 C4720 1.378 . S
C4720 C4719 1.378 . S
C4720 C4721 1.409 . S
C4721 C4717 1.387 . S
C4721 C4720 1.409 . S
C4721 H4723 0.951 . S
C4722 C4717 1.491 . S
C4722 C4724 1.382 . S
C4722 C4726 1.404 . S
H4723 C4721 0.951 . S
C4724 C4722 1.382 . S
C4724 C4725 1.390 . S
C4724 H4729 0.949 . S
C4725 C4724 1.390 . S
C4725 C4730 1.399 . S
C4726 C4722 1.404 . S
C4726 H4727 0.950 . S
C4726 C4728 1.375 . S
H4727 C4726 0.950 . S
C4728 C4726 1.375 . S
C4728 C4730 1.382 . S
C4728 H4732 0.950 . S
H4729 C4724 0.949 . S
C4730 C4725 1.399 . S
C4730 C4728 1.382 . S
C4730 H4731 0.952 . S
H4731 C4730 0.952 . S
H4732 C4728 0.950 . S
H4733 C4734 0.949 . S
C4734 H4733 0.949 . S
C4734 C4735 1.395 . S
C4734 C4736 1.391 . S
C4735 C4734 1.395 . S
C4735 C4738 1.390 . S
C4736 C4734 1.391 . S
C4736 C4740 1.387 . S
C4736 C4741 1.491 . S
H4737 C4738 0.950 . S
C4738 C4735 1.390 . S
C4738 H4737 0.950 . S
C4738 C4739 1.378 . S
C4739 C4738 1.378 . S
C4739 C4740 1.409 . S
C4740 C4736 1.387 . S
C4740 C4739 1.409 . S
C4740 H4742 0.951 . S
C4741 C4736 1.491 . S
C4741 C4743 1.382 . S
C4741 C4745 1.404 . S
H4742 C4740 0.951 . S
C4743 C4741 1.382 . S
C4743 C4744 1.390 . S
C4743 H4748 0.949 . S
C4744 C4743 1.390 . S
C4744 C4749 1.399 . S
C4745 C4741 1.404 . S
C4745 H4746 0.950 . S
C4745 C4747 1.375 . S
H4746 C4745 0.950 . S
C4747 C4745 1.375 . S
C4747 C4749 1.382 . S
C4747 H4751 0.950 . S
H4748 C4743 0.949 . S
C4749 C4744 1.399 . S
C4749 C4747 1.382 . S
C4749 H4750 0.952 . S
H4750 C4749 0.952 . S
H4751 C4747 0.950 . S
H4752 C4753 0.949 . S
C4753 H4752 0.949 . S
C4753 C4754 1.395 . S
C4753 C4755 1.391 . S
C4754 C4753 1.395 . S
C4754 C4757 1.390 . S
C4755 C4753 1.391 . S
C4755 C4759 1.387 . S
C4755 C4760 1.491 . S
H4756 C4757 0.950 . S
C4757 C4754 1.390 . S
C4757 H4756 0.950 . S
C4757 C4758 1.378 . S
C4758 C4757 1.378 . S
C4758 C4759 1.409 . S
C4759 C4755 1.387 . S
C4759 C4758 1.409 . S
C4759 H4761 0.951 . S
C4760 C4755 1.491 . S
C4760 C4762 1.382 . S
C4760 C4764 1.404 . S
H4761 C4759 0.951 . S
C4762 C4760 1.382 . S
C4762 C4763 1.390 . S
C4762 H4767 0.949 . S
C4763 C4762 1.390 . S
C4763 C4768 1.399 . S
C4764 C4760 1.404 . S
C4764 H4765 0.950 . S
C4764 C4766 1.375 . S
H4765 C4764 0.950 . S
C4766 C4764 1.375 . S
C4766 C4768 1.382 . S
C4766 H4770 0.950 . S
H4767 C4762 0.949 . S
C4768 C4763 1.399 . S
C4768 C4766 1.382 . S
C4768 H4769 0.952 . S
H4769 C4768 0.952 . S
H4770 C4766 0.950 . S
H4771 C4772 0.949 . S
C4772 H4771 0.949 . S
C4772 C4773 1.395 . S
C4772 C4774 1.391 . S
C4773 C4772 1.395 . S
C4773 C4776 1.390 . S
C4774 C4772 1.391 . S
C4774 C4778 1.387 . S
C4774 C4779 1.491 . S
H4775 C4776 0.950 . S
C4776 C4773 1.390 . S
C4776 H4775 0.950 . S
C4776 C4777 1.378 . S
C4777 C4776 1.378 . S
C4777 C4778 1.409 . S
C4778 C4774 1.387 . S
C4778 C4777 1.409 . S
C4778 H4780 0.951 . S
C4779 C4774 1.491 . S
C4779 C4781 1.382 . S
C4779 C4783 1.404 . S
H4780 C4778 0.951 . S
C4781 C4779 1.382 . S
C4781 C4782 1.390 . S
C4781 H4786 0.949 . S
C4782 C4781 1.390 . S
C4782 C4787 1.399 . S
C4783 C4779 1.404 . S
C4783 H4784 0.950 . S
C4783 C4785 1.375 . S
H4784 C4783 0.950 . S
C4785 C4783 1.375 . S
C4785 C4787 1.382 . S
C4785 H4789 0.950 . S
H4786 C4781 0.949 . S
C4787 C4782 1.399 . S
C4787 C4785 1.382 . S
C4787 H4788 0.952 . S
H4788 C4787 0.952 . S
H4789 C4785 0.950 . S
H4790 C4791 0.949 . S
C4791 H4790 0.949 . S
C4791 C4792 1.395 . S
C4791 C4793 1.391 . S
C4792 C4791 1.395 . S
C4792 C4795 1.390 . S
C4793 C4791 1.391 . S
C4793 C4797 1.387 . S
C4793 C4798 1.491 . S
H4794 C4795 0.950 . S
C4795 C4792 1.390 . S
C4795 H4794 0.950 . S
C4795 C4796 1.378 . S
C4796 C4795 1.378 . S
C4796 C4797 1.409 . S
C4797 C4793 1.387 . S
C4797 C4796 1.409 . S
C4797 H4799 0.951 . S
C4798 C4793 1.491 . S
C4798 C4800 1.382 . S
C4798 C4802 1.404 . S
H4799 C4797 0.951 . S
C4800 C4798 1.382 . S
C4800 C4801 1.390 . S
C4800 H4805 0.949 . S
C4801 C4800 1.390 . S
C4801 C4806 1.399 . S
C4802 C4798 1.404 . S
C4802 H4803 0.950 . S
C4802 C4804 1.375 . S
H4803 C4802 0.950 . S
C4804 C4802 1.375 . S
C4804 C4806 1.382 . S
C4804 H4808 0.950 . S
H4805 C4800 0.949 . S
C4806 C4801 1.399 . S
C4806 C4804 1.382 . S
C4806 H4807 0.952 . S
H4807 C4806 0.952 . S
H4808 C4804 0.950 . S
H4809 C4810 0.949 . S
C4810 H4809 0.949 . S
C4810 C4811 1.395 . S
C4810 C4812 1.391 . S
C4811 C4810 1.395 . S
C4811 C4814 1.390 . S
C4812 C4810 1.391 . S
C4812 C4816 1.387 . S
C4812 C4817 1.491 . S
H4813 C4814 0.950 . S
C4814 C4811 1.390 . S
C4814 H4813 0.950 . S
C4814 C4815 1.378 . S
C4815 C4814 1.378 . S
C4815 C4816 1.409 . S
C4816 C4812 1.387 . S
C4816 C4815 1.409 . S
C4816 H4818 0.951 . S
C4817 C4812 1.491 . S
C4817 C4819 1.382 . S
C4817 C4821 1.404 . S
H4818 C4816 0.951 . S
C4819 C4817 1.382 . S
C4819 C4820 1.390 . S
C4819 H4824 0.949 . S
C4820 C4819 1.390 . S
C4820 C4825 1.399 . S
C4821 C4817 1.404 . S
C4821 H4822 0.950 . S
C4821 C4823 1.375 . S
H4822 C4821 0.950 . S
C4823 C4821 1.375 . S
C4823 C4825 1.382 . S
C4823 H4827 0.950 . S
H4824 C4819 0.949 . S
C4825 C4820 1.399 . S
C4825 C4823 1.382 . S
C4825 H4826 0.952 . S
H4826 C4825 0.952 . S
H4827 C4823 0.950 . S
H4828 C4829 0.949 . S
C4829 H4828 0.949 . S
C4829 C4830 1.395 . S
C4829 C4831 1.391 . S
C4830 C4829 1.395 . S
C4830 C4833 1.390 . S
C4831 C4829 1.391 . S
C4831 C4835 1.387 . S
C4831 C4836 1.491 . S
H4832 C4833 0.950 . S
C4833 C4830 1.390 . S
C4833 H4832 0.950 . S
C4833 C4834 1.378 . S
C4834 C4833 1.378 . S
C4834 C4835 1.409 . S
C4835 C4831 1.387 . S
C4835 C4834 1.409 . S
C4835 H4837 0.951 . S
C4836 C4831 1.491 . S
C4836 C4838 1.382 . S
C4836 C4840 1.404 . S
H4837 C4835 0.951 . S
C4838 C4836 1.382 . S
C4838 C4839 1.390 . S
C4838 H4843 0.949 . S
C4839 C4838 1.390 . S
C4839 C4844 1.399 . S
C4840 C4836 1.404 . S
C4840 H4841 0.950 . S
C4840 C4842 1.375 . S
H4841 C4840 0.950 . S
C4842 C4840 1.375 . S
C4842 C4844 1.382 . S
C4842 H4846 0.950 . S
H4843 C4838 0.949 . S
C4844 C4839 1.399 . S
C4844 C4842 1.382 . S
C4844 H4845 0.952 . S
H4845 C4844 0.952 . S
H4846 C4842 0.950 . S
H4847 C4848 0.949 . S
C4848 H4847 0.949 . S
C4848 C4849 1.395 . S
C4848 C4850 1.391 . S
C4849 C4848 1.395 . S
C4849 C4852 1.390 . S
C4850 C4848 1.391 . S
C4850 C4854 1.387 . S
C4850 C4855 1.491 . S
H4851 C4852 0.950 . S
C4852 C4849 1.390 . S
C4852 H4851 0.950 . S
C4852 C4853 1.378 . S
C4853 C4852 1.378 . S
C4853 C4854 1.409 . S
C4854 C4850 1.387 . S
C4854 C4853 1.409 . S
C4854 H4856 0.951 . S
C4855 C4850 1.491 . S
C4855 C4857 1.382 . S
C4855 C4859 1.404 . S
H4856 C4854 0.951 . S
C4857 C4855 1.382 . S
C4857 C4858 1.390 . S
C4857 H4862 0.949 . S
C4858 C4857 1.390 . S
C4858 C4863 1.399 . S
C4859 C4855 1.404 . S
C4859 H4860 0.950 . S
C4859 C4861 1.375 . S
H4860 C4859 0.950 . S
C4861 C4859 1.375 . S
C4861 C4863 1.382 . S
C4861 H4865 0.950 . S
H4862 C4857 0.949 . S
C4863 C4858 1.399 . S
C4863 C4861 1.382 . S
C4863 H4864 0.952 . S
H4864 C4863 0.952 . S
H4865 C4861 0.950 . S
H4866 C4867 0.949 . S
C4867 H4866 0.949 . S
C4867 C4868 1.395 . S
C4867 C4869 1.391 . S
C4868 C4867 1.395 . S
C4868 C4871 1.390 . S
C4869 C4867 1.391 . S
C4869 C4873 1.387 . S
C4869 C4874 1.491 . S
H4870 C4871 0.950 . S
C4871 C4868 1.390 . S
C4871 H4870 0.950 . S
C4871 C4872 1.378 . S
C4872 C4871 1.378 . S
C4872 C4873 1.409 . S
C4873 C4869 1.387 . S
C4873 C4872 1.409 . S
C4873 H4875 0.951 . S
C4874 C4869 1.491 . S
C4874 C4876 1.382 . S
C4874 C4878 1.404 . S
H4875 C4873 0.951 . S
C4876 C4874 1.382 . S
C4876 C4877 1.390 . S
C4876 H4881 0.949 . S
C4877 C4876 1.390 . S
C4877 C4882 1.399 . S
C4878 C4874 1.404 . S
C4878 H4879 0.950 . S
C4878 C4880 1.375 . S
H4879 C4878 0.950 . S
C4880 C4878 1.375 . S
C4880 C4882 1.382 . S
C4880 H4884 0.950 . S
H4881 C4876 0.949 . S
C4882 C4877 1.399 . S
C4882 C4880 1.382 . S
C4882 H4883 0.952 . S
H4883 C4882 0.952 . S
H4884 C4880 0.950 . S
H4885 C4886 0.949 . S
C4886 H4885 0.949 . S
C4886 C4887 1.395 . S
C4886 C4888 1.391 . S
C4887 C4886 1.395 . S
C4887 C4890 1.390 . S
C4888 C4886 1.391 . S
C4888 C4892 1.387 . S
C4888 C4893 1.491 . S
H4889 C4890 0.950 . S
C4890 C4887 1.390 . S
C4890 H4889 0.950 . S
C4890 C4891 1.378 . S
C4891 C4890 1.378 . S
C4891 C4892 1.409 . S
C4892 C4888 1.387 . S
C4892 C4891 1.409 . S
C4892 H4894 0.951 . S
C4893 C4888 1.491 . S
C4893 C4895 1.382 . S
C4893 C4897 1.404 . S
H4894 C4892 0.951 . S
C4895 C4893 1.382 . S
C4895 C4896 1.390 . S
C4895 H4900 0.949 . S
C4896 C4895 1.390 . S
C4896 C4901 1.399 . S
C4897 C4893 1.404 . S
C4897 H4898 0.950 . S
C4897 C4899 1.375 . S
H4898 C4897 0.950 . S
C4899 C4897 1.375 . S
C4899 C4901 1.382 . S
C4899 H4903 0.950 . S
H4900 C4895 0.949 . S
C4901 C4896 1.399 . S
C4901 C4899 1.382 . S
C4901 H4902 0.952 . S
H4902 C4901 0.952 . S
H4903 C4899 0.950 . S
H4904 C4905 0.949 . S
C4905 H4904 0.949 . S
C4905 C4906 1.395 . S
C4905 C4907 1.391 . S
C4906 C4905 1.395 . S
C4906 C4909 1.390 . S
C4907 C4905 1.391 . S
C4907 C4911 1.387 . S
C4907 C4912 1.491 . S
H4908 C4909 0.950 . S
C4909 C4906 1.390 . S
C4909 H4908 0.950 . S
C4909 C4910 1.378 . S
C4910 C4909 1.378 . S
C4910 C4911 1.409 . S
C4911 C4907 1.387 . S
C4911 C4910 1.409 . S
C4911 H4913 0.951 . S
C4912 C4907 1.491 . S
C4912 C4914 1.382 . S
C4912 C4916 1.404 . S
H4913 C4911 0.951 . S
C4914 C4912 1.382 . S
C4914 C4915 1.390 . S
C4914 H4919 0.949 . S
C4915 C4914 1.390 . S
C4915 C4920 1.399 . S
C4916 C4912 1.404 . S
C4916 H4917 0.950 . S
C4916 C4918 1.375 . S
H4917 C4916 0.950 . S
C4918 C4916 1.375 . S
C4918 C4920 1.382 . S
C4918 H4922 0.950 . S
H4919 C4914 0.949 . S
C4920 C4915 1.399 . S
C4920 C4918 1.382 . S
C4920 H4921 0.952 . S
H4921 C4920 0.952 . S
H4922 C4918 0.950 . S
H4923 C4924 0.949 . S
C4924 H4923 0.949 . S
C4924 C4925 1.395 . S
C4924 C4926 1.391 . S
C4925 C4924 1.395 . S
C4925 C4928 1.390 . S
C4926 C4924 1.391 . S
C4926 C4930 1.387 . S
C4926 C4931 1.491 . S
H4927 C4928 0.950 . S
C4928 C4925 1.390 . S
C4928 H4927 0.950 . S
C4928 C4929 1.378 . S
C4929 C4928 1.378 . S
C4929 C4930 1.409 . S
C4930 C4926 1.387 . S
C4930 C4929 1.409 . S
C4930 H4932 0.951 . S
C4931 C4926 1.491 . S
C4931 C4933 1.382 . S
C4931 C4935 1.404 . S
H4932 C4930 0.951 . S
C4933 C4931 1.382 . S
C4933 C4934 1.390 . S
C4933 H4938 0.949 . S
C4934 C4933 1.390 . S
C4934 C4939 1.399 . S
C4935 C4931 1.404 . S
C4935 H4936 0.950 . S
C4935 C4937 1.375 . S
H4936 C4935 0.950 . S
C4937 C4935 1.375 . S
C4937 C4939 1.382 . S
C4937 H4941 0.950 . S
H4938 C4933 0.949 . S
C4939 C4934 1.399 . S
C4939 C4937 1.382 . S
C4939 H4940 0.952 . S
H4940 C4939 0.952 . S
H4941 C4937 0.950 . S
H4942 C4943 0.949 . S
C4943 H4942 0.949 . S
C4943 C4944 1.395 . S
C4943 C4945 1.391 . S
C4944 C4943 1.395 . S
C4944 C4947 1.390 . S
C4945 C4943 1.391 . S
C4945 C4949 1.387 . S
C4945 C4950 1.491 . S
H4946 C4947 0.950 . S
C4947 C4944 1.390 . S
C4947 H4946 0.950 . S
C4947 C4948 1.378 . S
C4948 C4947 1.378 . S
C4948 C4949 1.409 . S
C4949 C4945 1.387 . S
C4949 C4948 1.409 . S
C4949 H4951 0.951 . S
C4950 C4945 1.491 . S
C4950 C4952 1.382 . S
C4950 C4954 1.404 . S
H4951 C4949 0.951 . S
C4952 C4950 1.382 . S
C4952 C4953 1.390 . S
C4952 H4957 0.949 . S
C4953 C4952 1.390 . S
C4953 C4958 1.399 . S
C4954 C4950 1.404 . S
C4954 H4955 0.950 . S
C4954 C4956 1.375 . S
H4955 C4954 0.950 . S
C4956 C4954 1.375 . S
C4956 C4958 1.382 . S
C4956 H4960 0.950 . S
H4957 C4952 0.949 . S
C4958 C4953 1.399 . S
C4958 C4956 1.382 . S
C4958 H4959 0.952 . S
H4959 C4958 0.952 . S
H4960 C4956 0.950 . S
H4961 C4962 0.949 . S
C4962 H4961 0.949 . S
C4962 C4963 1.395 . S
C4962 C4964 1.391 . S
C4963 C4962 1.395 . S
C4963 C4966 1.390 . S
C4964 C4962 1.391 . S
C4964 C4968 1.387 . S
C4964 C4969 1.491 . S
H4965 C4966 0.950 . S
C4966 C4963 1.390 . S
C4966 H4965 0.950 . S
C4966 C4967 1.378 . S
C4967 C4966 1.378 . S
C4967 C4968 1.409 . S
C4968 C4964 1.387 . S
C4968 C4967 1.409 . S
C4968 H4970 0.951 . S
C4969 C4964 1.491 . S
C4969 C4971 1.382 . S
C4969 C4973 1.404 . S
H4970 C4968 0.951 . S
C4971 C4969 1.382 . S
C4971 C4972 1.390 . S
C4971 H4976 0.949 . S
C4972 C4971 1.390 . S
C4972 C4977 1.399 . S
C4973 C4969 1.404 . S
C4973 H4974 0.950 . S
C4973 C4975 1.375 . S
H4974 C4973 0.950 . S
C4975 C4973 1.375 . S
C4975 C4977 1.382 . S
C4975 H4979 0.950 . S
H4976 C4971 0.949 . S
C4977 C4972 1.399 . S
C4977 C4975 1.382 . S
C4977 H4978 0.952 . S
H4978 C4977 0.952 . S
H4979 C4975 0.950 . S
H4980 C4981 0.949 . S
C4981 H4980 0.949 . S
C4981 C4982 1.395 . S
C4981 C4983 1.391 . S
C4982 C4981 1.395 . S
C4982 C4985 1.390 . S
C4983 C4981 1.391 . S
C4983 C4987 1.387 . S
C4983 C4988 1.491 . S
H4984 C4985 0.950 . S
C4985 C4982 1.390 . S
C4985 H4984 0.950 . S
C4985 C4986 1.378 . S
C4986 C4985 1.378 . S
C4986 C4987 1.409 . S
C4987 C4983 1.387 . S
C4987 C4986 1.409 . S
C4987 H4989 0.951 . S
C4988 C4983 1.491 . S
C4988 C4990 1.382 . S
C4988 C4992 1.404 . S
H4989 C4987 0.951 . S
C4990 C4988 1.382 . S
C4990 C4991 1.390 . S
C4990 H4995 0.949 . S
C4991 C4990 1.390 . S
C4991 C4996 1.399 . S
C4992 C4988 1.404 . S
C4992 H4993 0.950 . S
C4992 C4994 1.375 . S
H4993 C4992 0.950 . S
C4994 C4992 1.375 . S
C4994 C4996 1.382 . S
C4994 H4998 0.950 . S
H4995 C4990 0.949 . S
C4996 C4991 1.399 . S
C4996 C4994 1.382 . S
C4996 H4997 0.952 . S
H4997 C4996 0.952 . S
H4998 C4994 0.950 . S
H4999 C5000 0.949 . S
C5000 H4999 0.949 . S
C5000 C5001 1.395 . S
C5000 C5002 1.391 . S
C5001 C5000 1.395 . S
C5001 C5004 1.390 . S
C5002 C5000 1.391 . S
C5002 C5006 1.387 . S
C5002 C5007 1.491 . S
H5003 C5004 0.950 . S
C5004 C5001 1.390 . S
C5004 H5003 0.950 . S
C5004 C5005 1.378 . S
C5005 C5004 1.378 . S
C5005 C5006 1.409 . S
C5006 C5002 1.387 . S
C5006 C5005 1.409 . S
C5006 H5008 0.951 . S
C5007 C5002 1.491 . S
C5007 C5009 1.382 . S
C5007 C5011 1.404 . S
H5008 C5006 0.951 . S
C5009 C5007 1.382 . S
C5009 C5010 1.390 . S
C5009 H5014 0.949 . S
C5010 C5009 1.390 . S
C5010 C5015 1.399 . S
C5011 C5007 1.404 . S
C5011 H5012 0.950 . S
C5011 C5013 1.375 . S
H5012 C5011 0.950 . S
C5013 C5011 1.375 . S
C5013 C5015 1.382 . S
C5013 H5017 0.950 . S
H5014 C5009 0.949 . S
C5015 C5010 1.399 . S
C5015 C5013 1.382 . S
C5015 H5016 0.952 . S
H5016 C5015 0.952 . S
H5017 C5013 0.950 . S
H5018 C5019 0.949 . S
C5019 H5018 0.949 . S
C5019 C5020 1.395 . S
C5019 C5021 1.391 . S
C5020 C5019 1.395 . S
C5020 C5023 1.390 . S
C5021 C5019 1.391 . S
C5021 C5025 1.387 . S
C5021 C5026 1.491 . S
H5022 C5023 0.950 . S
C5023 C5020 1.390 . S
C5023 H5022 0.950 . S
C5023 C5024 1.378 . S
C5024 C5023 1.378 . S
C5024 C5025 1.409 . S
C5025 C5021 1.387 . S
C5025 C5024 1.409 . S
C5025 H5027 0.951 . S
C5026 C5021 1.491 . S
C5026 C5028 1.382 . S
C5026 C5030 1.404 . S
H5027 C5025 0.951 . S
C5028 C5026 1.382 . S
C5028 C5029 1.390 . S
C5028 H5033 0.949 . S
C5029 C5028 1.390 . S
C5029 C5034 1.399 . S
C5030 C5026 1.404 . S
C5030 H5031 0.950 . S
C5030 C5032 1.375 . S
H5031 C5030 0.950 . S
C5032 C5030 1.375 . S
C5032 C5034 1.382 . S
C5032 H5036 0.950 . S
H5033 C5028 0.949 . S
C5034 C5029 1.399 . S
C5034 C5032 1.382 . S
C5034 H5035 0.952 . S
H5035 C5034 0.952 . S
H5036 C5032 0.950 . S
H5037 C5038 0.949 . S
C5038 H5037 0.949 . S
C5038 C5039 1.395 . S
C5038 C5040 1.391 . S
C5039 C5038 1.395 . S
C5039 C5042 1.390 . S
C5040 C5038 1.391 . S
C5040 C5044 1.387 . S
C5040 C5045 1.491 . S
H5041 C5042 0.950 . S
C5042 C5039 1.390 . S
C5042 H5041 0.950 . S
C5042 C5043 1.378 . S
C5043 C5042 1.378 . S
C5043 C5044 1.409 . S
C5044 C5040 1.387 . S
C5044 C5043 1.409 . S
C5044 H5046 0.951 . S
C5045 C5040 1.491 . S
C5045 C5047 1.382 . S
C5045 C5049 1.404 . S
H5046 C5044 0.951 . S
C5047 C5045 1.382 . S
C5047 C5048 1.390 . S
C5047 H5052 0.949 . S
C5048 C5047 1.390 . S
C5048 C5053 1.399 . S
C5049 C5045 1.404 . S
C5049 H5050 0.950 . S
C5049 C5051 1.375 . S
H5050 C5049 0.950 . S
C5051 C5049 1.375 . S
C5051 C5053 1.382 . S
C5051 H5055 0.950 . S
H5052 C5047 0.949 . S
C5053 C5048 1.399 . S
C5053 C5051 1.382 . S
C5053 H5054 0.952 . S
H5054 C5053 0.952 . S
H5055 C5051 0.950 . S
H5056 C5057 0.949 . S
C5057 H5056 0.949 . S
C5057 C5058 1.395 . S
C5057 C5059 1.391 . S
C5058 C5057 1.395 . S
C5058 C5061 1.390 . S
C5059 C5057 1.391 . S
C5059 C5063 1.387 . S
C5059 C5064 1.491 . S
H5060 C5061 0.950 . S
C5061 C5058 1.390 . S
C5061 H5060 0.950 . S
C5061 C5062 1.378 . S
C5062 C5061 1.378 . S
C5062 C5063 1.409 . S
C5063 C5059 1.387 . S
C5063 C5062 1.409 . S
C5063 H5065 0.951 . S
C5064 C5059 1.491 . S
C5064 C5066 1.382 . S
C5064 C5068 1.404 . S
H5065 C5063 0.951 . S
C5066 C5064 1.382 . S
C5066 C5067 1.390 . S
C5066 H5071 0.949 . S
C5067 C5066 1.390 . S
C5067 C5072 1.399 . S
C5068 C5064 1.404 . S
C5068 H5069 0.950 . S
C5068 C5070 1.375 . S
H5069 C5068 0.950 . S
C5070 C5068 1.375 . S
C5070 C5072 1.382 . S
C5070 H5074 0.950 . S
H5071 C5066 0.949 . S
C5072 C5067 1.399 . S
C5072 C5070 1.382 . S
C5072 H5073 0.952 . S
H5073 C5072 0.952 . S
H5074 C5070 0.950 . S
H5075 C5076 0.949 . S
C5076 H5075 0.949 . S
C5076 C5077 1.395 . S
C5076 C5078 1.391 . S
C5077 C5076 1.395 . S
C5077 C5080 1.390 . S
C5078 C5076 1.391 . S
C5078 C5082 1.387 . S
C5078 C5083 1.491 . S
H5079 C5080 0.950 . S
C5080 C5077 1.390 . S
C5080 H5079 0.950 . S
C5080 C5081 1.378 . S
C5081 C5080 1.378 . S
C5081 C5082 1.409 . S
C5082 C5078 1.387 . S
C5082 C5081 1.409 . S
C5082 H5084 0.951 . S
C5083 C5078 1.491 . S
C5083 C5085 1.382 . S
C5083 C5087 1.404 . S
H5084 C5082 0.951 . S
C5085 C5083 1.382 . S
C5085 C5086 1.390 . S
C5085 H5090 0.949 . S
C5086 C5085 1.390 . S
C5086 C5091 1.399 . S
C5087 C5083 1.404 . S
C5087 H5088 0.950 . S
C5087 C5089 1.375 . S
H5088 C5087 0.950 . S
C5089 C5087 1.375 . S
C5089 C5091 1.382 . S
C5089 H5093 0.950 . S
H5090 C5085 0.949 . S
C5091 C5086 1.399 . S
C5091 C5089 1.382 . S
C5091 H5092 0.952 . S
H5092 C5091 0.952 . S
H5093 C5089 0.950 . S
H5094 C5095 0.949 . S
C5095 H5094 0.949 . S
C5095 C5096 1.395 . S
C5095 C5097 1.391 . S
C5096 C5095 1.395 . S
C5096 C5099 1.390 . S
C5097 C5095 1.391 . S
C5097 C5101 1.387 . S
C5097 C5102 1.491 . S
H5098 C5099 0.950 . S
C5099 C5096 1.390 . S
C5099 H5098 0.950 . S
C5099 C5100 1.378 . S
C5100 C5099 1.378 . S
C5100 C5101 1.409 . S
C5101 C5097 1.387 . S
C5101 C5100 1.409 . S
C5101 H5103 0.951 . S
C5102 C5097 1.491 . S
C5102 C5104 1.382 . S
C5102 C5106 1.404 . S
H5103 C5101 0.951 . S
C5104 C5102 1.382 . S
C5104 C5105 1.390 . S
C5104 H5109 0.949 . S
C5105 C5104 1.390 . S
C5105 C5110 1.399 . S
C5106 C5102 1.404 . S
C5106 H5107 0.950 . S
C5106 C5108 1.375 . S
H5107 C5106 0.950 . S
C5108 C5106 1.375 . S
C5108 C5110 1.382 . S
C5108 H5112 0.950 . S
H5109 C5104 0.949 . S
C5110 C5105 1.399 . S
C5110 C5108 1.382 . S
C5110 H5111 0.952 . S
H5111 C5110 0.952 . S
H5112 C5108 0.950 . S
H5113 C5114 0.949 . S
C5114 H5113 0.949 . S
C5114 C5115 1.395 . S
C5114 C5116 1.391 . S
C5115 C5114 1.395 . S
C5115 C5118 1.390 . S
C5116 C5114 1.391 . S
C5116 C5120 1.387 . S
C5116 C5121 1.491 . S
H5117 C5118 0.950 . S
C5118 C5115 1.390 . S
C5118 H5117 0.950 . S
C5118 C5119 1.378 . S
C5119 C5118 1.378 . S
C5119 C5120 1.409 . S
C5120 C5116 1.387 . S
C5120 C5119 1.409 . S
C5120 H5122 0.951 . S
C5121 C5116 1.491 . S
C5121 C5123 1.382 . S
C5121 C5125 1.404 . S
H5122 C5120 0.951 . S
C5123 C5121 1.382 . S
C5123 C5124 1.390 . S
C5123 H5128 0.949 . S
C5124 C5123 1.390 . S
C5124 C5129 1.399 . S
C5125 C5121 1.404 . S
C5125 H5126 0.950 . S
C5125 C5127 1.375 . S
H5126 C5125 0.950 . S
C5127 C5125 1.375 . S
C5127 C5129 1.382 . S
C5127 H5131 0.950 . S
H5128 C5123 0.949 . S
C5129 C5124 1.399 . S
C5129 C5127 1.382 . S
C5129 H5130 0.952 . S
H5130 C5129 0.952 . S
H5131 C5127 0.950 . S
H5132 C5133 0.949 . S
C5133 H5132 0.949 . S
C5133 C5134 1.395 . S
C5133 C5135 1.391 . S
C5134 C5133 1.395 . S
C5134 C5137 1.390 . S
C5135 C5133 1.391 . S
C5135 C5139 1.387 . S
C5135 C5140 1.491 . S
H5136 C5137 0.950 . S
C5137 C5134 1.390 . S
C5137 H5136 0.950 . S
C5137 C5138 1.378 . S
C5138 C5137 1.378 . S
C5138 C5139 1.409 . S
C5139 C5135 1.387 . S
C5139 C5138 1.409 . S
C5139 H5141 0.951 . S
C5140 C5135 1.491 . S
C5140 C5142 1.382 . S
C5140 C5144 1.404 . S
H5141 C5139 0.951 . S
C5142 C5140 1.382 . S
C5142 C5143 1.390 . S
C5142 H5147 0.949 . S
C5143 C5142 1.390 . S
C5143 C5148 1.399 . S
C5144 C5140 1.404 . S
C5144 H5145 0.950 . S
C5144 C5146 1.375 . S
H5145 C5144 0.950 . S
C5146 C5144 1.375 . S
C5146 C5148 1.382 . S
C5146 H5150 0.950 . S
H5147 C5142 0.949 . S
C5148 C5143 1.399 . S
C5148 C5146 1.382 . S
C5148 H5149 0.952 . S
H5149 C5148 0.952 . S
H5150 C5146 0.950 . S
H5151 C5152 0.949 . S
C5152 H5151 0.949 . S
C5152 C5153 1.395 . S
C5152 C5154 1.391 . S
C5153 C5152 1.395 . S
C5153 C5156 1.390 . S
C5154 C5152 1.391 . S
C5154 C5158 1.387 . S
C5154 C5159 1.491 . S
H5155 C5156 0.950 . S
C5156 C5153 1.390 . S
C5156 H5155 0.950 . S
C5156 C5157 1.378 . S
C5157 C5156 1.378 . S
C5157 C5158 1.409 . S
C5158 C5154 1.387 . S
C5158 C5157 1.409 . S
C5158 H5160 0.951 . S
C5159 C5154 1.491 . S
C5159 C5161 1.382 . S
C5159 C5163 1.404 . S
H5160 C5158 0.951 . S
C5161 C5159 1.382 . S
C5161 C5162 1.390 . S
C5161 H5166 0.949 . S
C5162 C5161 1.390 . S
C5162 C5167 1.399 . S
C5163 C5159 1.404 . S
C5163 H5164 0.950 . S
C5163 C5165 1.375 . S
H5164 C5163 0.950 . S
C5165 C5163 1.375 . S
C5165 C5167 1.382 . S
C5165 H5169 0.950 . S
H5166 C5161 0.949 . S
C5167 C5162 1.399 . S
C5167 C5165 1.382 . S
C5167 H5168 0.952 . S
H5168 C5167 0.952 . S
H5169 C5165 0.950 . S
H5170 C5171 0.949 . S
C5171 H5170 0.949 . S
C5171 C5172 1.395 . S
C5171 C5173 1.391 . S
C5172 C5171 1.395 . S
C5172 C5175 1.390 . S
C5173 C5171 1.391 . S
C5173 C5177 1.387 . S
C5173 C5178 1.491 . S
H5174 C5175 0.950 . S
C5175 C5172 1.390 . S
C5175 H5174 0.950 . S
C5175 C5176 1.378 . S
C5176 C5175 1.378 . S
C5176 C5177 1.409 . S
C5177 C5173 1.387 . S
C5177 C5176 1.409 . S
C5177 H5179 0.951 . S
C5178 C5173 1.491 . S
C5178 C5180 1.382 . S
C5178 C5182 1.404 . S
H5179 C5177 0.951 . S
C5180 C5178 1.382 . S
C5180 C5181 1.390 . S
C5180 H5185 0.949 . S
C5181 C5180 1.390 . S
C5181 C5186 1.399 . S
C5182 C5178 1.404 . S
C5182 H5183 0.950 . S
C5182 C5184 1.375 . S
H5183 C5182 0.950 . S
C5184 C5182 1.375 . S
C5184 C5186 1.382 . S
C5184 H5188 0.950 . S
H5185 C5180 0.949 . S
C5186 C5181 1.399 . S
C5186 C5184 1.382 . S
C5186 H5187 0.952 . S
H5187 C5186 0.952 . S
H5188 C5184 0.950 . S
H5189 C5190 0.949 . S
C5190 H5189 0.949 . S
C5190 C5191 1.395 . S
C5190 C5192 1.391 . S
C5191 C5190 1.395 . S
C5191 C5194 1.390 . S
C5192 C5190 1.391 . S
C5192 C5196 1.387 . S
C5192 C5197 1.491 . S
H5193 C5194 0.950 . S
C5194 C5191 1.390 . S
C5194 H5193 0.950 . S
C5194 C5195 1.378 . S
C5195 C5194 1.378 . S
C5195 C5196 1.409 . S
C5196 C5192 1.387 . S
C5196 C5195 1.409 . S
C5196 H5198 0.951 . S
C5197 C5192 1.491 . S
C5197 C5199 1.382 . S
C5197 C5201 1.404 . S
H5198 C5196 0.951 . S
C5199 C5197 1.382 . S
C5199 C5200 1.390 . S
C5199 H5204 0.949 . S
C5200 C5199 1.390 . S
C5200 C5205 1.399 . S
C5201 C5197 1.404 . S
C5201 H5202 0.950 . S
C5201 C5203 1.375 . S
H5202 C5201 0.950 . S
C5203 C5201 1.375 . S
C5203 C5205 1.382 . S
C5203 H5207 0.950 . S
H5204 C5199 0.949 . S
C5205 C5200 1.399 . S
C5205 C5203 1.382 . S
C5205 H5206 0.952 . S
H5206 C5205 0.952 . S
H5207 C5203 0.950 . S
H5208 C5209 0.949 . S
C5209 H5208 0.949 . S
C5209 C5210 1.395 . S
C5209 C5211 1.391 . S
C5210 C5209 1.395 . S
C5210 C5213 1.390 . S
C5211 C5209 1.391 . S
C5211 C5215 1.387 . S
C5211 C5216 1.491 . S
H5212 C5213 0.950 . S
C5213 C5210 1.390 . S
C5213 H5212 0.950 . S
C5213 C5214 1.378 . S
C5214 C5213 1.378 . S
C5214 C5215 1.409 . S
C5215 C5211 1.387 . S
C5215 C5214 1.409 . S
C5215 H5217 0.951 . S
C5216 C5211 1.491 . S
C5216 C5218 1.382 . S
C5216 C5220 1.404 . S
H5217 C5215 0.951 . S
C5218 C5216 1.382 . S
C5218 C5219 1.390 . S
C5218 H5223 0.949 . S
C5219 C5218 1.390 . S
C5219 C5224 1.399 . S
C5220 C5216 1.404 . S
C5220 H5221 0.950 . S
C5220 C5222 1.375 . S
H5221 C5220 0.950 . S
C5222 C5220 1.375 . S
C5222 C5224 1.382 . S
C5222 H5226 0.950 . S
H5223 C5218 0.949 . S
C5224 C5219 1.399 . S
C5224 C5222 1.382 . S
C5224 H5225 0.952 . S
H5225 C5224 0.952 . S
H5226 C5222 0.950 . S
H5227 C5228 0.949 . S
C5228 H5227 0.949 . S
C5228 C5229 1.395 . S
C5228 C5230 1.391 . S
C5229 C5228 1.395 . S
C5229 C5232 1.390 . S
C5230 C5228 1.391 . S
C5230 C5234 1.387 . S
C5230 C5235 1.491 . S
H5231 C5232 0.950 . S
C5232 C5229 1.390 . S
C5232 H5231 0.950 . S
C5232 C5233 1.378 . S
C5233 C5232 1.378 . S
C5233 C5234 1.409 . S
C5234 C5230 1.387 . S
C5234 C5233 1.409 . S
C5234 H5236 0.951 . S
C5235 C5230 1.491 . S
C5235 C5237 1.382 . S
C5235 C5239 1.404 . S
H5236 C5234 0.951 . S
C5237 C5235 1.382 . S
C5237 C5238 1.390 . S
C5237 H5242 0.949 . S
C5238 C5237 1.390 . S
C5238 C5243 1.399 . S
C5239 C5235 1.404 . S
C5239 H5240 0.950 . S
C5239 C5241 1.375 . S
H5240 C5239 0.950 . S
C5241 C5239 1.375 . S
C5241 C5243 1.382 . S
C5241 H5245 0.950 . S
H5242 C5237 0.949 . S
C5243 C5238 1.399 . S
C5243 C5241 1.382 . S
C5243 H5244 0.952 . S
H5244 C5243 0.952 . S
H5245 C5241 0.950 . S
H5246 C5247 0.949 . S
C5247 H5246 0.949 . S
C5247 C5248 1.395 . S
C5247 C5249 1.391 . S
C5248 C5247 1.395 . S
C5248 C5251 1.390 . S
C5249 C5247 1.391 . S
C5249 C5253 1.387 . S
C5249 C5254 1.491 . S
H5250 C5251 0.950 . S
C5251 C5248 1.390 . S
C5251 H5250 0.950 . S
C5251 C5252 1.378 . S
C5252 C5251 1.378 . S
C5252 C5253 1.409 . S
C5253 C5249 1.387 . S
C5253 C5252 1.409 . S
C5253 H5255 0.951 . S
C5254 C5249 1.491 . S
C5254 C5256 1.382 . S
C5254 C5258 1.404 . S
H5255 C5253 0.951 . S
C5256 C5254 1.382 . S
C5256 C5257 1.390 . S
C5256 H5261 0.949 . S
C5257 C5256 1.390 . S
C5257 C5262 1.399 . S
C5258 C5254 1.404 . S
C5258 H5259 0.950 . S
C5258 C5260 1.375 . S
H5259 C5258 0.950 . S
C5260 C5258 1.375 . S
C5260 C5262 1.382 . S
C5260 H5264 0.950 . S
H5261 C5256 0.949 . S
C5262 C5257 1.399 . S
C5262 C5260 1.382 . S
C5262 H5263 0.952 . S
H5263 C5262 0.952 . S
H5264 C5260 0.950 . S
H5265 C5266 0.949 . S
C5266 H5265 0.949 . S
C5266 C5267 1.395 . S
C5266 C5268 1.391 . S
C5267 C5266 1.395 . S
C5267 C5270 1.390 . S
C5268 C5266 1.391 . S
C5268 C5272 1.387 . S
C5268 C5273 1.491 . S
H5269 C5270 0.950 . S
C5270 C5267 1.390 . S
C5270 H5269 0.950 . S
C5270 C5271 1.378 . S
C5271 C5270 1.378 . S
C5271 C5272 1.409 . S
C5272 C5268 1.387 . S
C5272 C5271 1.409 . S
C5272 H5274 0.951 . S
C5273 C5268 1.491 . S
C5273 C5275 1.382 . S
C5273 C5277 1.404 . S
H5274 C5272 0.951 . S
C5275 C5273 1.382 . S
C5275 C5276 1.390 . S
C5275 H5280 0.949 . S
C5276 C5275 1.390 . S
C5276 C5281 1.377 1_455 S
C5277 C5273 1.404 . S
C5277 H5278 0.950 . S
C5277 C5279 1.375 . S
H5278 C5277 0.950 . S
C5279 C5277 1.375 . S
C5279 C5281 1.369 1_455 S
C5279 H5283 0.878 1_455 S
H5280 C5275 0.949 . S
C5281 C5276 1.377 1_655 S
C5281 C5279 1.369 1_655 S
C5281 H5282 0.987 . S
H5282 C5281 0.987 . S
H5283 C5279 0.878 1_655 S
H5284 C5285 0.949 . S
C5285 H5284 0.949 . S
C5285 C5286 1.395 . S
C5285 C5287 1.391 . S
C5286 C5285 1.395 . S
C5286 C5289 1.390 . S
C5287 C5285 1.391 . S
C5287 C5291 1.387 . S
C5287 C5292 1.491 . S
H5288 C5289 0.950 . S
C5289 C5286 1.390 . S
C5289 H5288 0.950 . S
C5289 C5290 1.378 . S
C5290 C5289 1.378 . S
C5290 C5291 1.409 . S
C5291 C5287 1.387 . S
C5291 C5290 1.409 . S
C5291 H5293 0.951 . S
C5292 C5287 1.491 . S
C5292 C5294 1.382 . S
C5292 C5296 1.404 . S
H5293 C5291 0.951 . S
C5294 C5292 1.382 . S
C5294 C5295 1.390 . S
C5294 H5299 0.949 . S
C5295 C5294 1.390 . S
C5295 C5300 1.399 . S
C5296 C5292 1.404 . S
C5296 H5297 0.950 . S
C5296 C5298 1.375 . S
H5297 C5296 0.950 . S
C5298 C5296 1.375 . S
C5298 C5300 1.382 . S
C5298 H5302 0.950 . S
H5299 C5294 0.949 . S
C5300 C5295 1.399 . S
C5300 C5298 1.382 . S
C5300 H5301 0.952 . S
H5301 C5300 0.952 . S
H5302 C5298 0.950 . S
H5303 C5304 0.949 . S
C5304 H5303 0.949 . S
C5304 C5305 1.395 . S
C5304 C5306 1.391 . S
C5305 C5304 1.395 . S
C5305 C5308 1.390 . S
C5306 C5304 1.391 . S
C5306 C5310 1.387 . S
C5306 C5311 1.491 . S
H5307 C5308 0.950 . S
C5308 C5305 1.390 . S
C5308 H5307 0.950 . S
C5308 C5309 1.378 . S
C5309 C5308 1.378 . S
C5309 C5310 1.409 . S
C5310 C5306 1.387 . S
C5310 C5309 1.409 . S
C5310 H5312 0.951 . S
C5311 C5306 1.491 . S
C5311 C5313 1.382 . S
C5311 C5315 1.404 . S
H5312 C5310 0.951 . S
C5313 C5311 1.382 . S
C5313 C5314 1.390 . S
C5313 H5318 0.949 . S
C5314 C5313 1.390 . S
C5314 C5319 1.377 1_455 S
C5315 C5311 1.404 . S
C5315 H5316 0.950 . S
C5315 C5317 1.375 . S
H5316 C5315 0.950 . S
C5317 C5315 1.375 . S
C5317 C5319 1.370 1_455 S
C5317 H5321 0.878 1_455 S
H5318 C5313 0.949 . S
C5319 C5314 1.377 1_655 S
C5319 C5317 1.370 1_655 S
C5319 H5320 0.987 . S
H5320 C5319 0.987 . S
H5321 C5317 0.878 1_655 S
H5322 C5323 0.949 . S
C5323 H5322 0.949 . S
C5323 C5324 1.395 . S
C5323 C5325 1.391 . S
C5324 C5323 1.395 . S
C5324 C5327 1.390 . S
C5325 C5323 1.391 . S
C5325 C5329 1.387 . S
C5325 C5330 1.491 . S
H5326 C5327 0.950 . S
C5327 C5324 1.390 . S
C5327 H5326 0.950 . S
C5327 C5328 1.378 . S
C5328 C5327 1.378 . S
C5328 C5329 1.409 . S
C5329 C5325 1.387 . S
C5329 C5328 1.409 . S
C5329 H5331 0.951 . S
C5330 C5325 1.491 . S
C5330 C5332 1.382 . S
C5330 C5334 1.404 . S
H5331 C5329 0.951 . S
C5332 C5330 1.382 . S
C5332 C5333 1.390 . S
C5332 H5337 0.949 . S
C5333 C5332 1.390 . S
C5333 C5338 1.399 . S
C5334 C5330 1.404 . S
C5334 H5335 0.950 . S
C5334 C5336 1.375 . S
H5335 C5334 0.950 . S
C5336 C5334 1.375 . S
C5336 C5338 1.382 . S
C5336 H5340 0.950 . S
H5337 C5332 0.949 . S
C5338 C5333 1.399 . S
C5338 C5336 1.382 . S
C5338 H5339 0.952 . S
H5339 C5338 0.952 . S
H5340 C5336 0.950 . S
H5341 C5342 0.949 . S
C5342 H5341 0.949 . S
C5342 C5343 1.395 . S
C5342 C5344 1.391 . S
C5343 C5342 1.395 . S
C5343 C5346 1.390 . S
C5344 C5342 1.391 . S
C5344 C5348 1.387 . S
C5344 C5349 1.491 . S
H5345 C5346 0.950 . S
C5346 C5343 1.390 . S
C5346 H5345 0.950 . S
C5346 C5347 1.378 . S
C5347 C5346 1.378 . S
C5347 C5348 1.409 . S
C5348 C5344 1.387 . S
C5348 C5347 1.409 . S
C5348 H5350 0.951 . S
C5349 C5344 1.491 . S
C5349 C5351 1.382 . S
C5349 C5353 1.404 . S
H5350 C5348 0.951 . S
C5351 C5349 1.382 . S
C5351 C5352 1.390 . S
C5351 H5356 0.949 . S
C5352 C5351 1.390 . S
C5352 C5357 1.399 . S
C5353 C5349 1.404 . S
C5353 H5354 0.950 . S
C5353 C5355 1.375 . S
H5354 C5353 0.950 . S
C5355 C5353 1.375 . S
C5355 C5357 1.382 . S
C5355 H5359 0.950 . S
H5356 C5351 0.949 . S
C5357 C5352 1.399 . S
C5357 C5355 1.382 . S
C5357 H5358 0.952 . S
H5358 C5357 0.952 . S
H5359 C5355 0.950 . S
H5360 C5361 0.949 . S
C5361 H5360 0.949 . S
C5361 C5362 1.395 . S
C5361 C5363 1.391 . S
C5362 C5361 1.395 . S
C5362 C5365 1.390 . S
C5363 C5361 1.391 . S
C5363 C5367 1.387 . S
C5363 C5368 1.491 . S
H5364 C5365 0.950 . S
C5365 C5362 1.390 . S
C5365 H5364 0.950 . S
C5365 C5366 1.378 . S
C5366 C5365 1.378 . S
C5366 C5367 1.409 . S
C5367 C5363 1.387 . S
C5367 C5366 1.409 . S
C5367 H5369 0.951 . S
C5368 C5363 1.491 . S
C5368 C5370 1.382 . S
C5368 C5372 1.404 . S
H5369 C5367 0.951 . S
C5370 C5368 1.382 . S
C5370 C5371 1.390 . S
C5370 H5375 0.949 . S
C5371 C5370 1.390 . S
C5371 C5376 1.399 . S
C5372 C5368 1.404 . S
C5372 H5373 0.950 . S
C5372 C5374 1.375 . S
H5373 C5372 0.950 . S
C5374 C5372 1.375 . S
C5374 C5376 1.382 . S
C5374 H5378 0.950 . S
H5375 C5370 0.949 . S
C5376 C5371 1.399 . S
C5376 C5374 1.382 . S
C5376 H5377 0.952 . S
H5377 C5376 0.952 . S
H5378 C5374 0.950 . S
H5379 C5380 0.949 . S
C5380 H5379 0.949 . S
C5380 C5381 1.395 . S
C5380 C5382 1.391 . S
C5381 C5380 1.395 . S
C5381 C5384 1.390 . S
C5382 C5380 1.391 . S
C5382 C5386 1.387 . S
C5382 C5387 1.491 . S
H5383 C5384 0.950 . S
C5384 C5381 1.390 . S
C5384 H5383 0.950 . S
C5384 C5385 1.378 . S
C5385 C5384 1.378 . S
C5385 C5386 1.409 . S
C5386 C5382 1.387 . S
C5386 C5385 1.409 . S
C5386 H5388 0.951 . S
C5387 C5382 1.491 . S
C5387 C5389 1.382 . S
C5387 C5391 1.404 . S
H5388 C5386 0.951 . S
C5389 C5387 1.382 . S
C5389 C5390 1.390 . S
C5389 H5394 0.949 . S
C5390 C5389 1.390 . S
C5390 C5395 1.377 1_554 S
C5391 C5387 1.404 . S
C5391 H5392 0.950 . S
C5391 C5393 1.375 . S
H5392 C5391 0.950 . S
C5393 C5391 1.375 . S
C5393 C5395 1.369 1_554 S
C5393 H5397 0.878 1_554 S
H5394 C5389 0.949 . S
C5395 C5390 1.377 1_556 S
C5395 C5393 1.369 1_556 S
C5395 H5396 0.988 . S
H5396 C5395 0.988 . S
H5397 C5393 0.878 1_556 S
H5398 C5399 0.949 . S
C5399 H5398 0.949 . S
C5399 C5400 1.395 . S
C5399 C5401 1.391 . S
C5400 C5399 1.395 . S
C5400 C5403 1.390 . S
C5401 C5399 1.391 . S
C5401 C5405 1.387 . S
C5401 C5406 1.491 . S
H5402 C5403 0.950 . S
C5403 C5400 1.390 . S
C5403 H5402 0.950 . S
C5403 C5404 1.378 . S
C5404 C5403 1.378 . S
C5404 C5405 1.409 . S
C5405 C5401 1.387 . S
C5405 C5404 1.409 . S
C5405 H5407 0.951 . S
C5406 C5401 1.491 . S
C5406 C5408 1.382 . S
C5406 C5410 1.404 . S
H5407 C5405 0.951 . S
C5408 C5406 1.382 . S
C5408 C5409 1.390 . S
C5408 H5413 0.949 . S
C5409 C5408 1.390 . S
C5409 C5414 1.399 . S
C5410 C5406 1.404 . S
C5410 H5411 0.950 . S
C5410 C5412 1.375 . S
H5411 C5410 0.950 . S
C5412 C5410 1.375 . S
C5412 C5414 1.382 . S
C5412 H5416 0.950 . S
H5413 C5408 0.949 . S
C5414 C5409 1.399 . S
C5414 C5412 1.382 . S
C5414 H5415 0.952 . S
H5415 C5414 0.952 . S
H5416 C5412 0.950 . S
H5417 C5418 0.949 . S
C5418 H5417 0.949 . S
C5418 C5419 1.395 . S
C5418 C5420 1.391 . S
C5419 C5418 1.395 . S
C5419 C5422 1.390 . S
C5420 C5418 1.391 . S
C5420 C5424 1.387 . S
C5420 C5425 1.491 . S
H5421 C5422 0.950 . S
C5422 C5419 1.390 . S
C5422 H5421 0.950 . S
C5422 C5423 1.378 . S
C5423 C5422 1.378 . S
C5423 C5424 1.409 . S
C5424 C5420 1.387 . S
C5424 C5423 1.409 . S
C5424 H5426 0.951 . S
C5425 C5420 1.491 . S
C5425 C5427 1.382 . S
C5425 C5429 1.404 . S
H5426 C5424 0.951 . S
C5427 C5425 1.382 . S
C5427 C5428 1.390 . S
C5427 H5432 0.949 . S
C5428 C5427 1.390 . S
C5428 C5433 1.399 . S
C5429 C5425 1.404 . S
C5429 H5430 0.950 . S
C5429 C5431 1.375 . S
H5430 C5429 0.950 . S
C5431 C5429 1.375 . S
C5431 C5433 1.382 . S
C5431 H5435 0.950 . S
H5432 C5427 0.949 . S
C5433 C5428 1.399 . S
C5433 C5431 1.382 . S
C5433 H5434 0.952 . S
H5434 C5433 0.952 . S
H5435 C5431 0.950 . S
H5436 C5437 0.949 . S
C5437 H5436 0.949 . S
C5437 C5438 1.395 . S
C5437 C5439 1.391 . S
C5438 C5437 1.395 . S
C5438 C5441 1.390 . S
C5439 C5437 1.391 . S
C5439 C5443 1.387 . S
C5439 C5444 1.491 . S
H5440 C5441 0.950 . S
C5441 C5438 1.390 . S
C5441 H5440 0.950 . S
C5441 C5442 1.378 . S
C5442 C5441 1.378 . S
C5442 C5443 1.409 . S
C5443 C5439 1.387 . S
C5443 C5442 1.409 . S
C5443 H5445 0.951 . S
C5444 C5439 1.491 . S
C5444 C5446 1.382 . S
C5444 C5448 1.404 . S
H5445 C5443 0.951 . S
C5446 C5444 1.382 . S
C5446 C5447 1.390 . S
C5446 H5451 0.949 . S
C5447 C5446 1.390 . S
C5447 C5452 1.399 . S
C5448 C5444 1.404 . S
C5448 H5449 0.950 . S
C5448 C5450 1.375 . S
H5449 C5448 0.950 . S
C5450 C5448 1.375 . S
C5450 C5452 1.382 . S
C5450 H5454 0.950 . S
H5451 C5446 0.949 . S
C5452 C5447 1.399 . S
C5452 C5450 1.382 . S
C5452 H5453 0.952 . S
H5453 C5452 0.952 . S
H5454 C5450 0.950 . S
H5455 C5456 0.949 . S
C5456 H5455 0.949 . S
C5456 C5457 1.395 . S
C5456 C5458 1.391 . S
C5457 C5456 1.395 . S
C5457 C5460 1.390 . S
C5458 C5456 1.391 . S
C5458 C5462 1.387 . S
C5458 C5463 1.491 . S
H5459 C5460 0.950 . S
C5460 C5457 1.390 . S
C5460 H5459 0.950 . S
C5460 C5461 1.378 . S
C5461 C5460 1.378 . S
C5461 C5462 1.409 . S
C5462 C5458 1.387 . S
C5462 C5461 1.409 . S
C5462 H5464 0.951 . S
C5463 C5458 1.491 . S
C5463 C5465 1.382 . S
C5463 C5467 1.404 . S
H5464 C5462 0.951 . S
C5465 C5463 1.382 . S
C5465 C5466 1.390 . S
C5465 H5470 0.949 . S
C5466 C5465 1.390 . S
C5466 C5471 1.377 1_556 S
C5467 C5463 1.404 . S
C5467 H5468 0.950 . S
C5467 C5469 1.375 . S
H5468 C5467 0.950 . S
C5469 C5467 1.375 . S
C5469 C5471 1.370 1_556 S
C5469 H5473 0.878 1_556 S
H5470 C5465 0.949 . S
C5471 C5466 1.377 1_554 S
C5471 C5469 1.370 1_554 S
C5471 H5472 0.987 . S
H5472 C5471 0.987 . S
H5473 C5469 0.878 1_554 S
H5474 C5475 0.949 . S
C5475 H5474 0.949 . S
C5475 C5476 1.395 . S
C5475 C5477 1.391 . S
C5476 C5475 1.395 . S
C5476 C5479 1.390 . S
C5477 C5475 1.391 . S
C5477 C5481 1.387 . S
C5477 C5482 1.491 . S
H5478 C5479 0.950 . S
C5479 C5476 1.390 . S
C5479 H5478 0.950 . S
C5479 C5480 1.378 . S
C5480 C5479 1.378 . S
C5480 C5481 1.409 . S
C5481 C5477 1.387 . S
C5481 C5480 1.409 . S
C5481 H5483 0.951 . S
C5482 C5477 1.491 . S
C5482 C5484 1.382 . S
C5482 C5486 1.404 . S
H5483 C5481 0.951 . S
C5484 C5482 1.382 . S
C5484 C5485 1.390 . S
C5484 H5489 0.949 . S
C5485 C5484 1.390 . S
C5485 C5490 1.399 . S
C5486 C5482 1.404 . S
C5486 H5487 0.950 . S
C5486 C5488 1.375 . S
H5487 C5486 0.950 . S
C5488 C5486 1.375 . S
C5488 C5490 1.382 . S
C5488 H5492 0.950 . S
H5489 C5484 0.949 . S
C5490 C5485 1.399 . S
C5490 C5488 1.382 . S
C5490 H5491 0.952 . S
H5491 C5490 0.952 . S
H5492 C5488 0.950 . S
H5493 C5494 0.949 . S
C5494 H5493 0.949 . S
C5494 C5495 1.395 . S
C5494 C5496 1.391 . S
C5495 C5494 1.395 . S
C5495 C5498 1.390 . S
C5496 C5494 1.391 . S
C5496 C5500 1.387 . S
C5496 C5501 1.491 . S
H5497 C5498 0.950 . S
C5498 C5495 1.390 . S
C5498 H5497 0.950 . S
C5498 C5499 1.378 . S
C5499 C5498 1.378 . S
C5499 C5500 1.409 . S
C5500 C5496 1.387 . S
C5500 C5499 1.409 . S
C5500 H5502 0.951 . S
C5501 C5496 1.491 . S
C5501 C5503 1.382 . S
C5501 C5505 1.404 . S
H5502 C5500 0.951 . S
C5503 C5501 1.382 . S
C5503 C5504 1.390 . S
C5503 H5508 0.949 . S
C5504 C5503 1.390 . S
C5504 C5509 1.399 . S
C5505 C5501 1.404 . S
C5505 H5506 0.950 . S
C5505 C5507 1.375 . S
H5506 C5505 0.950 . S
C5507 C5505 1.375 . S
C5507 C5509 1.382 . S
C5507 H5511 0.950 . S
H5508 C5503 0.949 . S
C5509 C5504 1.399 . S
C5509 C5507 1.382 . S
C5509 H5510 0.952 . S
H5510 C5509 0.952 . S
H5511 C5507 0.950 . S
H5512 C5513 0.949 . S
C5513 H5512 0.949 . S
C5513 C5514 1.395 . S
C5513 C5515 1.391 . S
C5514 C5513 1.395 . S
C5514 C5517 1.390 . S
C5515 C5513 1.391 . S
C5515 C5519 1.387 . S
C5515 C5520 1.491 . S
H5516 C5517 0.950 . S
C5517 C5514 1.390 . S
C5517 H5516 0.950 . S
C5517 C5518 1.378 . S
C5518 C5517 1.378 . S
C5518 C5519 1.409 . S
C5519 C5515 1.387 . S
C5519 C5518 1.409 . S
C5519 H5521 0.951 . S
C5520 C5515 1.491 . S
C5520 C5522 1.382 . S
C5520 C5524 1.404 . S
H5521 C5519 0.951 . S
C5522 C5520 1.382 . S
C5522 C5523 1.390 . S
C5522 H5527 0.949 . S
C5523 C5522 1.390 . S
C5523 C5528 1.399 . S
C5524 C5520 1.404 . S
C5524 H5525 0.950 . S
C5524 C5526 1.375 . S
H5525 C5524 0.950 . S
C5526 C5524 1.375 . S
C5526 C5528 1.382 . S
C5526 H5530 0.950 . S
H5527 C5522 0.949 . S
C5528 C5523 1.399 . S
C5528 C5526 1.382 . S
C5528 H5529 0.952 . S
H5529 C5528 0.952 . S
H5530 C5526 0.950 . S
H5531 C5532 0.949 . S
C5532 H5531 0.949 . S
C5532 C5533 1.395 . S
C5532 C5534 1.391 . S
C5533 C5532 1.395 . S
C5533 C5536 1.390 . S
C5534 C5532 1.391 . S
C5534 C5538 1.387 . S
C5534 C5539 1.491 . S
H5535 C5536 0.950 . S
C5536 C5533 1.390 . S
C5536 H5535 0.950 . S
C5536 C5537 1.378 . S
C5537 C5536 1.378 . S
C5537 C5538 1.409 . S
C5538 C5534 1.387 . S
C5538 C5537 1.409 . S
C5538 H5540 0.951 . S
C5539 C5534 1.491 . S
C5539 C5541 1.382 . S
C5539 C5543 1.404 . S
H5540 C5538 0.951 . S
C5541 C5539 1.382 . S
C5541 C5542 1.390 . S
C5541 H5546 0.949 . S
C5542 C5541 1.390 . S
C5542 C5547 1.399 . S
C5543 C5539 1.404 . S
C5543 H5544 0.950 . S
C5543 C5545 1.375 . S
H5544 C5543 0.950 . S
C5545 C5543 1.375 . S
C5545 C5547 1.382 . S
C5545 H5549 0.950 . S
H5546 C5541 0.949 . S
C5547 C5542 1.399 . S
C5547 C5545 1.382 . S
C5547 H5548 0.952 . S
H5548 C5547 0.952 . S
H5549 C5545 0.950 . S
H5550 C5551 0.949 . S
C5551 H5550 0.949 . S
C5551 C5552 1.395 . S
C5551 C5553 1.391 . S
C5552 C5551 1.395 . S
C5552 C5555 1.390 . S
C5553 C5551 1.391 . S
C5553 C5557 1.387 . S
C5553 C5558 1.491 . S
H5554 C5555 0.950 . S
C5555 C5552 1.390 . S
C5555 H5554 0.950 . S
C5555 C5556 1.378 . S
C5556 C5555 1.378 . S
C5556 C5557 1.409 . S
C5557 C5553 1.387 . S
C5557 C5556 1.409 . S
C5557 H5559 0.951 . S
C5558 C5553 1.491 . S
C5558 C5560 1.382 . S
C5558 C5562 1.404 . S
H5559 C5557 0.951 . S
C5560 C5558 1.382 . S
C5560 C5561 1.390 . S
C5560 H5565 0.949 . S
C5561 C5560 1.390 . S
C5561 C5566 1.376 1_545 S
C5562 C5558 1.404 . S
C5562 H5563 0.950 . S
C5562 C5564 1.375 . S
H5563 C5562 0.950 . S
C5564 C5562 1.375 . S
C5564 C5566 1.369 1_545 S
C5564 H5568 0.877 1_545 S
H5565 C5560 0.949 . S
C5566 C5561 1.376 1_565 S
C5566 C5564 1.369 1_565 S
C5566 H5567 0.988 . S
H5567 C5566 0.988 . S
H5568 C5564 0.877 1_565 S
H5569 C5570 0.949 . S
C5570 H5569 0.949 . S
C5570 C5571 1.395 . S
C5570 C5572 1.391 . S
C5571 C5570 1.395 . S
C5571 C5574 1.390 . S
C5572 C5570 1.391 . S
C5572 C5576 1.387 . S
C5572 C5577 1.491 . S
H5573 C5574 0.950 . S
C5574 C5571 1.390 . S
C5574 H5573 0.950 . S
C5574 C5575 1.378 . S
C5575 C5574 1.378 . S
C5575 C5576 1.409 . S
C5576 C5572 1.387 . S
C5576 C5575 1.409 . S
C5576 H5578 0.951 . S
C5577 C5572 1.491 . S
C5577 C5579 1.382 . S
C5577 C5581 1.404 . S
H5578 C5576 0.951 . S
C5579 C5577 1.382 . S
C5579 C5580 1.390 . S
C5579 H5584 0.949 . S
C5580 C5579 1.390 . S
C5580 C5585 1.399 . S
C5581 C5577 1.404 . S
C5581 H5582 0.950 . S
C5581 C5583 1.375 . S
H5582 C5581 0.950 . S
C5583 C5581 1.375 . S
C5583 C5585 1.382 . S
C5583 H5587 0.950 . S
H5584 C5579 0.949 . S
C5585 C5580 1.399 . S
C5585 C5583 1.382 . S
C5585 H5586 0.952 . S
H5586 C5585 0.952 . S
H5587 C5583 0.950 . S
H5588 C5589 0.949 . S
C5589 H5588 0.949 . S
C5589 C5590 1.395 . S
C5589 C5591 1.391 . S
C5590 C5589 1.395 . S
C5590 C5593 1.390 . S
C5591 C5589 1.391 . S
C5591 C5595 1.387 . S
C5591 C5596 1.491 . S
H5592 C5593 0.950 . S
C5593 C5590 1.390 . S
C5593 H5592 0.950 . S
C5593 C5594 1.378 . S
C5594 C5593 1.378 . S
C5594 C5595 1.409 . S
C5595 C5591 1.387 . S
C5595 C5594 1.409 . S
C5595 H5597 0.951 . S
C5596 C5591 1.491 . S
C5596 C5598 1.382 . S
C5596 C5600 1.404 . S
H5597 C5595 0.951 . S
C5598 C5596 1.382 . S
C5598 C5599 1.390 . S
C5598 H5603 0.949 . S
C5599 C5598 1.390 . S
C5599 C5604 1.399 . S
C5600 C5596 1.404 . S
C5600 H5601 0.950 . S
C5600 C5602 1.375 . S
H5601 C5600 0.950 . S
C5602 C5600 1.375 . S
C5602 C5604 1.382 . S
C5602 H5606 0.950 . S
H5603 C5598 0.949 . S
C5604 C5599 1.399 . S
C5604 C5602 1.382 . S
C5604 H5605 0.952 . S
H5605 C5604 0.952 . S
H5606 C5602 0.950 . S
H5607 C5608 0.949 . S
C5608 H5607 0.949 . S
C5608 C5609 1.395 . S
C5608 C5610 1.391 . S
C5609 C5608 1.395 . S
C5609 C5612 1.390 . S
C5610 C5608 1.391 . S
C5610 C5614 1.387 . S
C5610 C5615 1.491 . S
H5611 C5612 0.950 . S
C5612 C5609 1.390 . S
C5612 H5611 0.950 . S
C5612 C5613 1.378 . S
C5613 C5612 1.378 . S
C5613 C5614 1.409 . S
C5614 C5610 1.387 . S
C5614 C5613 1.409 . S
C5614 H5616 0.951 . S
C5615 C5610 1.491 . S
C5615 C5617 1.382 . S
C5615 C5619 1.404 . S
H5616 C5614 0.951 . S
C5617 C5615 1.382 . S
C5617 C5618 1.390 . S
C5617 H5622 0.949 . S
C5618 C5617 1.390 . S
C5618 C5623 1.399 . S
C5619 C5615 1.404 . S
C5619 H5620 0.950 . S
C5619 C5621 1.375 . S
H5620 C5619 0.950 . S
C5621 C5619 1.375 . S
C5621 C5623 1.382 . S
C5621 H5625 0.950 . S
H5622 C5617 0.949 . S
C5623 C5618 1.399 . S
C5623 C5621 1.382 . S
C5623 H5624 0.952 . S
H5624 C5623 0.952 . S
H5625 C5621 0.950 . S
H5626 C5627 0.949 . S
C5627 H5626 0.949 . S
C5627 C5628 1.395 . S
C5627 C5629 1.391 . S
C5628 C5627 1.395 . S
C5628 C5631 1.390 . S
C5629 C5627 1.391 . S
C5629 C5633 1.387 . S
C5629 C5634 1.491 . S
H5630 C5631 0.950 . S
C5631 C5628 1.390 . S
C5631 H5630 0.950 . S
C5631 C5632 1.378 . S
C5632 C5631 1.378 . S
C5632 C5633 1.409 . S
C5633 C5629 1.387 . S
C5633 C5632 1.409 . S
C5633 H5635 0.951 . S
C5634 C5629 1.491 . S
C5634 C5636 1.382 . S
C5634 C5638 1.404 . S
H5635 C5633 0.951 . S
C5636 C5634 1.382 . S
C5636 C5637 1.390 . S
C5636 H5641 0.949 . S
C5637 C5636 1.390 . S
C5637 C5642 1.378 1_565 S
C5638 C5634 1.404 . S
C5638 H5639 0.950 . S
C5638 C5640 1.375 . S
H5639 C5638 0.950 . S
C5640 C5638 1.375 . S
C5640 C5642 1.370 1_565 S
C5640 H5644 0.878 1_565 S
H5641 C5636 0.949 . S
C5642 C5637 1.378 1_545 S
C5642 C5640 1.370 1_545 S
C5642 H5643 0.986 . S
H5643 C5642 0.986 . S
H5644 C5640 0.878 1_545 S
H5645 C5646 0.949 . S
C5646 H5645 0.949 . S
C5646 C5647 1.395 . S
C5646 C5648 1.391 . S
C5647 C5646 1.395 . S
C5647 C5650 1.390 . S
C5648 C5646 1.391 . S
C5648 C5652 1.387 . S
C5648 C5653 1.491 . S
H5649 C5650 0.950 . S
C5650 C5647 1.390 . S
C5650 H5649 0.950 . S
C5650 C5651 1.378 . S
C5651 C5650 1.378 . S
C5651 C5652 1.409 . S
C5652 C5648 1.387 . S
C5652 C5651 1.409 . S
C5652 H5654 0.951 . S
C5653 C5648 1.491 . S
C5653 C5655 1.382 . S
C5653 C5657 1.404 . S
H5654 C5652 0.951 . S
C5655 C5653 1.382 . S
C5655 C5656 1.390 . S
C5655 H5660 0.949 . S
C5656 C5655 1.390 . S
C5656 C5661 1.377 1_545 S
C5657 C5653 1.404 . S
C5657 H5658 0.950 . S
C5657 C5659 1.375 . S
H5658 C5657 0.950 . S
C5659 C5657 1.375 . S
C5659 C5661 1.370 1_545 S
C5659 H5663 0.878 1_545 S
H5660 C5655 0.949 . S
C5661 C5656 1.377 1_565 S
C5661 C5659 1.370 1_565 S
C5661 H5662 0.986 . S
H5662 C5661 0.986 . S
H5663 C5659 0.878 1_565 S
C5664 C5665 1.369 . S
C5664 C5666 1.419 . S
C5664 H5668 0.930 . S
C5665 C5664 1.369 . S
C5665 C5674 1.429 . S
C5666 C5664 1.419 . S
C5666 C5667 1.363 . S
C5666 H5669 0.929 . S
C5667 C5666 1.363 . S
C5667 C5673 1.428 . S
H5668 C5664 0.930 . S
H5669 C5666 0.929 . S
S5670 N5671 1.613 . S
S5670 N5672 1.610 1_455 S
N5671 S5670 1.613 . S
N5671 C5674 1.350 . S
N5672 S5670 1.610 1_655 S
N5672 C5673 1.351 1_655 S
C5673 C5667 1.428 . S
C5673 N5672 1.351 1_455 S
C5673 C5674 1.434 . S
C5674 C5665 1.429 . S
C5674 N5671 1.350 . S
C5674 C5673 1.434 . S
C5675 C5676 1.369 . S
C5675 C5677 1.419 . S
C5675 H5679 0.930 . S
C5676 C5675 1.369 . S
C5676 C5685 1.429 . S
C5677 C5675 1.419 . S
C5677 C5678 1.363 . S
C5677 H5680 0.929 . S
C5678 C5677 1.363 . S
C5678 C5684 1.428 . S
H5679 C5675 0.930 . S
H5680 C5677 0.929 . S
S5681 N5682 1.613 . S
S5681 N5683 1.610 . S
N5682 S5681 1.613 . S
N5682 C5685 1.350 . S
N5683 S5681 1.610 . S
N5683 C5684 1.351 . S
C5684 C5678 1.428 . S
C5684 N5683 1.351 . S
C5684 C5685 1.434 . S
C5685 C5676 1.429 . S
C5685 N5682 1.350 . S
C5685 C5684 1.434 . S
C5686 C5687 1.369 . S
C5686 C5688 1.419 . S
C5686 H5690 0.930 . S
C5687 C5686 1.369 . S
C5687 C5696 1.429 . S
C5688 C5686 1.419 . S
C5688 C5689 1.363 . S
C5688 H5691 0.929 . S
C5689 C5688 1.363 . S
C5689 C5695 1.428 . S
H5690 C5686 0.930 . S
H5691 C5688 0.929 . S
S5692 N5693 1.613 . S
S5692 N5694 1.610 . S
N5693 S5692 1.613 . S
N5693 C5696 1.350 . S
N5694 S5692 1.610 . S
N5694 C5695 1.351 . S
C5695 C5689 1.428 . S
C5695 N5694 1.351 . S
C5695 C5696 1.434 . S
C5696 C5687 1.429 . S
C5696 N5693 1.350 . S
C5696 C5695 1.434 . S
C5697 C5698 1.369 . S
C5697 C5699 1.419 . S
C5697 H5701 0.930 . S
C5698 C5697 1.369 . S
C5698 C5707 1.429 . S
C5699 C5697 1.419 . S
C5699 C5700 1.363 . S
C5699 H5702 0.929 . S
C5700 C5699 1.363 . S
C5700 C5706 1.428 . S
H5701 C5697 0.930 . S
H5702 C5699 0.929 . S
S5703 N5704 1.613 . S
S5703 N5705 1.610 . S
N5704 S5703 1.613 . S
N5704 C5707 1.350 . S
N5705 S5703 1.610 . S
N5705 C5706 1.351 . S
C5706 C5700 1.428 . S
C5706 N5705 1.351 . S
C5706 C5707 1.434 . S
C5707 C5698 1.429 . S
C5707 N5704 1.350 . S
C5707 C5706 1.434 . S
C5708 C5709 1.369 . S
C5708 C5710 1.419 . S
C5708 H5712 0.930 . S
C5709 C5708 1.369 . S
C5709 C5718 1.429 . S
C5710 C5708 1.419 . S
C5710 C5711 1.363 . S
C5710 H5713 0.929 . S
C5711 C5710 1.363 . S
C5711 C5717 1.428 . S
H5712 C5708 0.930 . S
H5713 C5710 0.929 . S
S5714 N5715 1.736 . S
S5714 N5716 1.557 1_455 S
N5715 S5714 1.736 . S
N5715 C5718 1.350 . S
N5716 S5714 1.557 1_655 S
N5716 C5717 1.351 1_655 S
C5717 C5711 1.428 . S
C5717 N5716 1.351 1_455 S
C5717 C5718 1.434 . S
C5718 C5709 1.429 . S
C5718 N5715 1.350 . S
C5718 C5717 1.434 . S
C5719 C5720 1.369 . S
C5719 C5721 1.419 . S
C5719 H5723 0.930 . S
C5720 C5719 1.369 . S
C5720 C5729 1.429 . S
C5721 C5719 1.419 . S
C5721 C5722 1.363 . S
C5721 H5724 0.929 . S
C5722 C5721 1.363 . S
C5722 C5728 1.428 . S
H5723 C5719 0.930 . S
H5724 C5721 0.929 . S
S5725 N5726 1.613 . S
S5725 N5727 1.610 . S
N5726 S5725 1.613 . S
N5726 C5729 1.350 . S
N5727 S5725 1.610 . S
N5727 C5728 1.351 . S
C5728 C5722 1.428 . S
C5728 N5727 1.351 . S
C5728 C5729 1.434 . S
C5729 C5720 1.429 . S
C5729 N5726 1.350 . S
C5729 C5728 1.434 . S
C5730 C5731 1.369 . S
C5730 C5732 1.419 . S
C5730 H5734 0.930 . S
C5731 C5730 1.369 . S
C5731 C5740 1.429 . S
C5732 C5730 1.419 . S
C5732 C5733 1.363 . S
C5732 H5735 0.929 . S
C5733 C5732 1.363 . S
C5733 C5739 1.428 . S
H5734 C5730 0.930 . S
H5735 C5732 0.929 . S
S5736 N5737 1.613 . S
S5736 N5738 1.610 . S
N5737 S5736 1.613 . S
N5737 C5740 1.350 . S
N5738 S5736 1.610 . S
N5738 C5739 1.351 . S
C5739 C5733 1.428 . S
C5739 N5738 1.351 . S
C5739 C5740 1.434 . S
C5740 C5731 1.429 . S
C5740 N5737 1.350 . S
C5740 C5739 1.434 . S
C5741 C5742 1.369 . S
C5741 C5743 1.419 . S
C5741 H5745 0.930 . S
C5742 C5741 1.369 . S
C5742 C5751 1.429 . S
C5743 C5741 1.419 . S
C5743 C5744 1.363 . S
C5743 H5746 0.929 . S
C5744 C5743 1.363 . S
C5744 C5750 1.428 . S
H5745 C5741 0.930 . S
H5746 C5743 0.929 . S
S5747 N5748 1.613 . S
S5747 N5749 1.610 . S
N5748 S5747 1.613 . S
N5748 C5751 1.350 . S
N5749 S5747 1.610 . S
N5749 C5750 1.351 . S
C5750 C5744 1.428 . S
C5750 N5749 1.351 . S
C5750 C5751 1.434 . S
C5751 C5742 1.429 . S
C5751 N5748 1.350 . S
C5751 C5750 1.434 . S
C5752 C5753 1.369 . S
C5752 C5754 1.419 . S
C5752 H5756 0.930 . S
C5753 C5752 1.369 . S
C5753 C5762 1.429 . S
C5754 C5752 1.419 . S
C5754 C5755 1.363 . S
C5754 H5757 0.929 . S
C5755 C5754 1.363 . S
C5755 C5761 1.428 . S
H5756 C5752 0.930 . S
H5757 C5754 0.929 . S
S5758 N5759 1.745 . S
S5758 N5760 1.552 1_545 S
N5759 S5758 1.745 . S
N5759 C5762 1.350 . S
N5760 S5758 1.552 1_565 S
N5760 C5761 1.351 1_565 S
C5761 C5755 1.428 . S
C5761 N5760 1.351 1_545 S
C5761 C5762 1.434 . S
C5762 C5753 1.429 . S
C5762 N5759 1.350 . S
C5762 C5761 1.434 . S
C5763 C5764 1.369 . S
C5763 C5765 1.419 . S
C5763 H5767 0.930 . S
C5764 C5763 1.369 . S
C5764 C5773 1.429 . S
C5765 C5763 1.419 . S
C5765 C5766 1.363 . S
C5765 H5768 0.929 . S
C5766 C5765 1.363 . S
C5766 C5772 1.428 . S
H5767 C5763 0.930 . S
H5768 C5765 0.929 . S
S5769 N5770 1.613 . S
S5769 N5771 1.610 . S
N5770 S5769 1.613 . S
N5770 C5773 1.350 . S
N5771 S5769 1.610 . S
N5771 C5772 1.351 . S
C5772 C5766 1.428 . S
C5772 N5771 1.351 . S
C5772 C5773 1.434 . S
C5773 C5764 1.429 . S
C5773 N5770 1.350 . S
C5773 C5772 1.434 . S
C5774 C5775 1.369 . S
C5774 C5776 1.419 . S
C5774 H5778 0.930 . S
C5775 C5774 1.369 . S
C5775 C5784 1.429 . S
C5776 C5774 1.419 . S
C5776 C5777 1.363 . S
C5776 H5779 0.929 . S
C5777 C5776 1.363 . S
C5777 C5783 1.428 . S
H5778 C5774 0.930 . S
H5779 C5776 0.929 . S
S5780 N5781 1.613 . S
S5780 N5782 1.610 1_565 S
N5781 S5780 1.613 . S
N5781 C5784 1.350 . S
N5782 S5780 1.610 1_545 S
N5782 C5783 1.351 1_545 S
C5783 C5777 1.428 . S
C5783 N5782 1.351 1_565 S
C5783 C5784 1.434 . S
C5784 C5775 1.429 . S
C5784 N5781 1.350 . S
C5784 C5783 1.434 . S
C5785 C5786 1.369 . S
C5785 C5787 1.419 . S
C5785 H5789 0.930 . S
C5786 C5785 1.369 . S
C5786 C5795 1.429 . S
C5787 C5785 1.419 . S
C5787 C5788 1.363 . S
C5787 H5790 0.929 . S
C5788 C5787 1.363 . S
C5788 C5794 1.428 . S
H5789 C5785 0.930 . S
H5790 C5787 0.929 . S
S5791 N5792 1.613 . S
S5791 N5793 1.610 . S
N5792 S5791 1.613 . S
N5792 C5795 1.350 . S
N5793 S5791 1.610 . S
N5793 C5794 1.351 . S
C5794 C5788 1.428 . S
C5794 N5793 1.351 . S
C5794 C5795 1.434 . S
C5795 C5786 1.429 . S
C5795 N5792 1.350 . S
C5795 C5794 1.434 . S
C5796 C5797 1.369 . S
C5796 C5798 1.419 . S
C5796 H5800 0.930 . S
C5797 C5796 1.369 . S
C5797 C5806 1.429 . S
C5798 C5796 1.419 . S
C5798 C5799 1.363 . S
C5798 H5801 0.929 . S
C5799 C5798 1.363 . S
C5799 C5805 1.428 . S
H5800 C5796 0.930 . S
H5801 C5798 0.929 . S
S5802 N5803 1.613 . S
S5802 N5804 1.610 . S
N5803 S5802 1.613 . S
N5803 C5806 1.350 . S
N5804 S5802 1.610 . S
N5804 C5805 1.351 . S
C5805 C5799 1.428 . S
C5805 N5804 1.351 . S
C5805 C5806 1.434 . S
C5806 C5797 1.429 . S
C5806 N5803 1.350 . S
C5806 C5805 1.434 . S
C5807 C5808 1.369 . S
C5807 C5809 1.419 . S
C5807 H5811 0.930 . S
C5808 C5807 1.369 . S
C5808 C5817 1.429 . S
C5809 C5807 1.419 . S
C5809 C5810 1.363 . S
C5809 H5812 0.929 . S
C5810 C5809 1.363 . S
C5810 C5816 1.428 . S
H5811 C5807 0.930 . S
H5812 C5809 0.929 . S
S5813 N5814 1.613 . S
S5813 N5815 1.610 . S
N5814 S5813 1.613 . S
N5814 C5817 1.350 . S
N5815 S5813 1.610 . S
N5815 C5816 1.351 . S
C5816 C5810 1.428 . S
C5816 N5815 1.351 . S
C5816 C5817 1.434 . S
C5817 C5808 1.429 . S
C5817 N5814 1.350 . S
C5817 C5816 1.434 . S
C5818 C5819 1.369 . S
C5818 C5820 1.419 . S
C5818 H5822 0.930 . S
C5819 C5818 1.369 . S
C5819 C5828 1.429 . S
C5820 C5818 1.419 . S
C5820 C5821 1.363 . S
C5820 H5823 0.929 . S
C5821 C5820 1.363 . S
C5821 C5827 1.428 . S
H5822 C5818 0.930 . S
H5823 C5820 0.929 . S
S5824 N5825 1.613 . S
S5824 N5826 1.610 . S
N5825 S5824 1.613 . S
N5825 C5828 1.350 . S
N5826 S5824 1.610 . S
N5826 C5827 1.351 . S
C5827 C5821 1.428 . S
C5827 N5826 1.351 . S
C5827 C5828 1.434 . S
C5828 C5819 1.429 . S
C5828 N5825 1.350 . S
C5828 C5827 1.434 . S
C5829 C5830 1.369 . S
C5829 C5831 1.419 . S
C5829 H5833 0.930 . S
C5830 C5829 1.369 . S
C5830 C5839 1.429 . S
C5831 C5829 1.419 . S
C5831 C5832 1.363 . S
C5831 H5834 0.929 . S
C5832 C5831 1.363 . S
C5832 C5838 1.428 . S
H5833 C5829 0.930 . S
H5834 C5831 0.929 . S
S5835 N5836 1.613 . S
S5835 N5837 1.610 . S
N5836 S5835 1.613 . S
N5836 C5839 1.350 . S
N5837 S5835 1.610 . S
N5837 C5838 1.351 . S
C5838 C5832 1.428 . S
C5838 N5837 1.351 . S
C5838 C5839 1.434 . S
C5839 C5830 1.429 . S
C5839 N5836 1.350 . S
C5839 C5838 1.434 . S
C5840 C5841 1.369 . S
C5840 C5842 1.419 . S
C5840 H5844 0.930 . S
C5841 C5840 1.369 . S
C5841 C5850 1.429 . S
C5842 C5840 1.419 . S
C5842 C5843 1.363 . S
C5842 H5845 0.929 . S
C5843 C5842 1.363 . S
C5843 C5849 1.428 . S
H5844 C5840 0.930 . S
H5845 C5842 0.929 . S
S5846 N5847 1.613 . S
S5846 N5848 1.610 1_554 S
N5847 S5846 1.613 . S
N5847 C5850 1.350 . S
N5848 S5846 1.610 1_556 S
N5848 C5849 1.351 1_556 S
C5849 C5843 1.428 . S
C5849 N5848 1.351 1_554 S
C5849 C5850 1.434 . S
C5850 C5841 1.429 . S
C5850 N5847 1.350 . S
C5850 C5849 1.434 . S
C5851 C5852 1.369 . S
C5851 C5853 1.419 . S
C5851 H5855 0.930 . S
C5852 C5851 1.369 . S
C5852 C5861 1.429 . S
C5853 C5851 1.419 . S
C5853 C5854 1.363 . S
C5853 H5856 0.929 . S
C5854 C5853 1.363 . S
C5854 C5860 1.428 . S
H5855 C5851 0.930 . S
H5856 C5853 0.929 . S
S5857 N5858 1.740 . S
S5857 N5859 1.555 1_556 S
N5858 S5857 1.740 . S
N5858 C5861 1.350 . S
N5859 S5857 1.555 1_554 S
N5859 C5860 1.351 1_554 S
C5860 C5854 1.428 . S
C5860 N5859 1.351 1_556 S
C5860 C5861 1.434 . S
C5861 C5852 1.429 . S
C5861 N5858 1.350 . S
C5861 C5860 1.434 . S
C5862 C5863 1.369 . S
C5862 C5864 1.419 . S
C5862 H5866 0.930 . S
C5863 C5862 1.369 . S
C5863 C5872 1.429 . S
C5864 C5862 1.419 . S
C5864 C5865 1.363 . S
C5864 H5867 0.929 . S
C5865 C5864 1.363 . S
C5865 C5871 1.428 . S
H5866 C5862 0.930 . S
H5867 C5864 0.929 . S
S5868 N5869 1.613 . S
S5868 N5870 1.610 . S
N5869 S5868 1.613 . S
N5869 C5872 1.350 . S
N5870 S5868 1.610 . S
N5870 C5871 1.351 . S
C5871 C5865 1.428 . S
C5871 N5870 1.351 . S
C5871 C5872 1.434 . S
C5872 C5863 1.429 . S
C5872 N5869 1.350 . S
C5872 C5871 1.434 . S
C5873 C5874 1.369 . S
C5873 C5875 1.419 . S
C5873 H5877 0.930 . S
C5874 C5873 1.369 . S
C5874 C5883 1.429 . S
C5875 C5873 1.419 . S
C5875 C5876 1.363 . S
C5875 H5878 0.929 . S
C5876 C5875 1.363 . S
C5876 C5882 1.428 . S
H5877 C5873 0.930 . S
H5878 C5875 0.929 . S
S5879 N5880 1.613 . S
S5879 N5881 1.610 . S
N5880 S5879 1.613 . S
N5880 C5883 1.350 . S
N5881 S5879 1.610 . S
N5881 C5882 1.351 . S
C5882 C5876 1.428 . S
C5882 N5881 1.351 . S
C5882 C5883 1.434 . S
C5883 C5874 1.429 . S
C5883 N5880 1.350 . S
C5883 C5882 1.434 . S
C5884 C5885 1.369 . S
C5884 C5886 1.419 . S
C5884 H5888 0.930 . S
C5885 C5884 1.369 . S
C5885 C5894 1.429 . S
C5886 C5884 1.419 . S
C5886 C5887 1.363 . S
C5886 H5889 0.929 . S
C5887 C5886 1.363 . S
C5887 C5893 1.428 . S
H5888 C5884 0.930 . S
H5889 C5886 0.929 . S
S5890 N5891 1.613 . S
S5890 N5892 1.610 . S
N5891 S5890 1.613 . S
N5891 C5894 1.350 . S
N5892 S5890 1.610 . S
N5892 C5893 1.351 . S
C5893 C5887 1.428 . S
C5893 N5892 1.351 . S
C5893 C5894 1.434 . S
C5894 C5885 1.429 . S
C5894 N5891 1.350 . S
C5894 C5893 1.434 . S
C5895 C5896 1.369 . S
C5895 C5897 1.419 . S
C5895 H5899 0.930 . S
C5896 C5895 1.369 . S
C5896 C5905 1.429 . S
C5897 C5895 1.419 . S
C5897 C5898 1.363 . S
C5897 H5900 0.929 . S
C5898 C5897 1.363 . S
C5898 C5904 1.428 . S
H5899 C5895 0.930 . S
H5900 C5897 0.929 . S
S5901 N5902 1.613 . S
S5901 N5903 1.610 . S
N5902 S5901 1.613 . S
N5902 C5905 1.350 . S
N5903 S5901 1.610 . S
N5903 C5904 1.351 . S
C5904 C5898 1.428 . S
C5904 N5903 1.351 . S
C5904 C5905 1.434 . S
C5905 C5896 1.429 . S
C5905 N5902 1.350 . S
C5905 C5904 1.434 . S
C5906 C5907 1.369 . S
C5906 C5908 1.419 . S
C5906 H5910 0.930 . S
C5907 C5906 1.369 . S
C5907 C5916 1.429 . S
C5908 C5906 1.419 . S
C5908 C5909 1.363 . S
C5908 H5911 0.929 . S
C5909 C5908 1.363 . S
C5909 C5915 1.428 . S
H5910 C5906 0.930 . S
H5911 C5908 0.929 . S
S5912 N5913 1.613 . S
S5912 N5914 1.610 . S
N5913 S5912 1.613 . S
N5913 C5916 1.350 . S
N5914 S5912 1.610 . S
N5914 C5915 1.351 . S
C5915 C5909 1.428 . S
C5915 N5914 1.351 . S
C5915 C5916 1.434 . S
C5916 C5907 1.429 . S
C5916 N5913 1.350 . S
C5916 C5915 1.434 . S
C5917 C5918 1.369 . S
C5917 C5919 1.419 . S
C5917 H5921 0.930 . S
C5918 C5917 1.369 . S
C5918 C5927 1.429 . S
C5919 C5917 1.419 . S
C5919 C5920 1.363 . S
C5919 H5922 0.929 . S
C5920 C5919 1.363 . S
C5920 C5926 1.428 . S
H5921 C5917 0.930 . S
H5922 C5919 0.929 . S
S5923 N5924 1.613 . S
S5923 N5925 1.610 . S
N5924 S5923 1.613 . S
N5924 C5927 1.350 . S
N5925 S5923 1.610 . S
N5925 C5926 1.351 . S
C5926 C5920 1.428 . S
C5926 N5925 1.351 . S
C5926 C5927 1.434 . S
C5927 C5918 1.429 . S
C5927 N5924 1.350 . S
C5927 C5926 1.434 . S
C5928 C5929 1.369 . S
C5928 C5930 1.419 . S
C5928 H5932 0.930 . S
C5929 C5928 1.369 . S
C5929 C5938 1.429 . S
C5930 C5928 1.419 . S
C5930 C5931 1.363 . S
C5930 H5933 0.929 . S
C5931 C5930 1.363 . S
C5931 C5937 1.428 . S
H5932 C5928 0.930 . S
H5933 C5930 0.929 . S
S5934 N5935 1.741 . S
S5934 N5936 1.554 1_655 S
N5935 S5934 1.741 . S
N5935 C5938 1.350 . S
N5936 S5934 1.554 1_455 S
N5936 C5937 1.351 1_455 S
C5937 C5931 1.428 . S
C5937 N5936 1.351 1_655 S
C5937 C5938 1.434 . S
C5938 C5929 1.429 . S
C5938 N5935 1.350 . S
C5938 C5937 1.434 . S
C5939 C5940 1.369 . S
C5939 C5941 1.419 . S
C5939 H5943 0.930 . S
C5940 C5939 1.369 . S
C5940 C5949 1.429 . S
C5941 C5939 1.419 . S
C5941 C5942 1.363 . S
C5941 H5944 0.929 . S
C5942 C5941 1.363 . S
C5942 C5948 1.428 . S
H5943 C5939 0.930 . S
H5944 C5941 0.929 . S
S5945 N5946 1.613 . S
S5945 N5947 1.610 . S
N5946 S5945 1.613 . S
N5946 C5949 1.350 . S
N5947 S5945 1.610 . S
N5947 C5948 1.351 . S
C5948 C5942 1.428 . S
C5948 N5947 1.351 . S
C5948 C5949 1.434 . S
C5949 C5940 1.429 . S
C5949 N5946 1.350 . S
C5949 C5948 1.434 . S
C5950 C5951 1.369 . S
C5950 C5952 1.419 . S
C5950 H5954 0.930 . S
C5951 C5950 1.369 . S
C5951 C5960 1.429 . S
C5952 C5950 1.419 . S
C5952 C5953 1.363 . S
C5952 H5955 0.929 . S
C5953 C5952 1.363 . S
C5953 C5959 1.428 . S
H5954 C5950 0.930 . S
H5955 C5952 0.929 . S
S5956 N5957 1.613 . S
S5956 N5958 1.610 . S
N5957 S5956 1.613 . S
N5957 C5960 1.350 . S
N5958 S5956 1.610 . S
N5958 C5959 1.351 . S
C5959 C5953 1.428 . S
C5959 N5958 1.351 . S
C5959 C5960 1.434 . S
C5960 C5951 1.429 . S
C5960 N5957 1.350 . S
C5960 C5959 1.434 . S
C5961 C5962 1.369 . S
C5961 C5963 1.419 . S
C5961 H5965 0.930 . S
C5962 C5961 1.369 . S
C5962 C5971 1.429 . S
C5963 C5961 1.419 . S
C5963 C5964 1.363 . S
C5963 H5966 0.929 . S
C5964 C5963 1.363 . S
C5964 C5970 1.428 . S
H5965 C5961 0.930 . S
H5966 C5963 0.929 . S
S5967 N5968 1.613 . S
S5967 N5969 1.610 . S
N5968 S5967 1.613 . S
N5968 C5971 1.350 . S
N5969 S5967 1.610 . S
N5969 C5970 1.351 . S
C5970 C5964 1.428 . S
C5970 N5969 1.351 . S
C5970 C5971 1.434 . S
C5971 C5962 1.429 . S
C5971 N5968 1.350 . S
C5971 C5970 1.434 . S
C5972 C5973 1.369 . S
C5972 C5974 1.419 . S
C5972 H5976 0.930 . S
C5973 C5972 1.369 . S
C5973 C5982 1.429 . S
C5974 C5972 1.419 . S
C5974 C5975 1.363 . S
C5974 H5977 0.929 1_655 S
C5975 C5974 1.363 . S
C5975 C5981 1.428 . S
H5976 C5972 0.930 . S
H5977 C5974 0.929 1_455 S
S5978 N5979 1.613 . S
S5978 N5980 1.610 . S
N5979 S5978 1.613 . S
N5979 C5982 1.350 . S
N5980 S5978 1.610 . S
N5980 C5981 1.351 . S
C5981 C5975 1.428 . S
C5981 N5980 1.351 . S
C5981 C5982 1.434 . S
C5982 C5973 1.429 . S
C5982 N5979 1.350 . S
C5982 C5981 1.434 . S
C5983 C5984 1.369 . S
C5983 C5985 1.419 . S
C5983 H5987 0.930 . S
C5984 C5983 1.369 . S
C5984 C5993 1.429 . S
C5985 C5983 1.419 . S
C5985 C5986 1.363 . S
C5985 H5988 0.929 . S
C5986 C5985 1.363 . S
C5986 C5992 1.428 . S
H5987 C5983 0.930 . S
H5988 C5985 0.929 . S
S5989 N5990 1.613 . S
S5989 N5991 1.610 . S
N5990 S5989 1.613 . S
N5990 C5993 1.350 . S
N5991 S5989 1.610 . S
N5991 C5992 1.351 . S
C5992 C5986 1.428 . S
C5992 N5991 1.351 . S
C5992 C5993 1.434 . S
C5993 C5984 1.429 . S
C5993 N5990 1.350 . S
C5993 C5992 1.434 . S
C5994 C5995 1.369 . S
C5994 C5996 1.419 . S
C5994 H5998 0.930 . S
C5995 C5994 1.369 . S
C5995 C6004 1.429 . S
C5996 C5994 1.419 . S
C5996 C5997 1.363 . S
C5996 H5999 0.929 . S
C5997 C5996 1.363 . S
C5997 C6003 1.428 . S
H5998 C5994 0.930 . S
H5999 C5996 0.929 . S
S6000 N6001 1.613 . S
S6000 N6002 1.610 . S
N6001 S6000 1.613 . S
N6001 C6004 1.350 . S
N6002 S6000 1.610 . S
N6002 C6003 1.351 . S
C6003 C5997 1.428 . S
C6003 N6002 1.351 . S
C6003 C6004 1.434 . S
C6004 C5995 1.429 . S
C6004 N6001 1.350 . S
C6004 C6003 1.434 . S
C6005 C6006 1.369 . S
C6005 C6007 1.419 . S
C6005 H6009 0.930 . S
C6006 C6005 1.369 . S
C6006 C6015 1.429 . S
C6007 C6005 1.419 . S
C6007 C6008 1.363 . S
C6007 H6010 0.929 . S
C6008 C6007 1.363 . S
C6008 C6014 1.428 . S
H6009 C6005 0.930 . S
H6010 C6007 0.929 . S
S6011 N6012 1.613 . S
S6011 N6013 1.610 . S
N6012 S6011 1.613 . S
N6012 C6015 1.350 . S
N6013 S6011 1.610 . S
N6013 C6014 1.351 . S
C6014 C6008 1.428 . S
C6014 N6013 1.351 . S
C6014 C6015 1.434 . S
C6015 C6006 1.429 . S
C6015 N6012 1.350 . S
C6015 C6014 1.434 . S
C6016 C6017 1.369 . S
C6016 C6018 1.419 . S
C6016 H6020 0.930 . S
C6017 C6016 1.369 . S
C6017 C6026 1.429 . S
C6018 C6016 1.419 . S
C6018 C6019 1.363 . S
C6018 H6021 0.934 1_565 S
C6019 C6018 1.363 . S
C6019 C6025 1.428 . S
H6020 C6016 0.930 . S
H6021 C6018 0.934 1_545 S
S6022 N6023 1.613 . S
S6022 N6024 1.610 . S
N6023 S6022 1.613 . S
N6023 C6026 1.350 . S
N6024 S6022 1.610 . S
N6024 C6025 1.351 . S
C6025 C6019 1.428 . S
C6025 N6024 1.351 . S
C6025 C6026 1.434 . S
C6026 C6017 1.429 . S
C6026 N6023 1.350 . S
C6026 C6025 1.434 . S
C6027 C6028 1.369 . S
C6027 C6029 1.419 . S
C6027 H6031 0.930 . S
C6028 C6027 1.369 . S
C6028 C6037 1.429 . S
C6029 C6027 1.419 . S
C6029 C6030 1.363 . S
C6029 H6032 0.929 . S
C6030 C6029 1.363 . S
C6030 C6036 1.428 . S
H6031 C6027 0.930 . S
H6032 C6029 0.929 . S
S6033 N6034 1.613 . S
S6033 N6035 1.610 . S
N6034 S6033 1.613 . S
N6034 C6037 1.350 . S
N6035 S6033 1.610 . S
N6035 C6036 1.351 . S
C6036 C6030 1.428 . S
C6036 N6035 1.351 . S
C6036 C6037 1.434 . S
C6037 C6028 1.429 . S
C6037 N6034 1.350 . S
C6037 C6036 1.434 . S
C6038 C6039 1.369 . S
C6038 C6040 1.419 . S
C6038 H6042 0.930 . S
C6039 C6038 1.369 . S
C6039 C6048 1.429 . S
C6040 C6038 1.419 . S
C6040 C6041 1.363 . S
C6040 H6043 0.869 1_545 S
C6041 C6040 1.363 . S
C6041 C6047 1.428 . S
H6042 C6038 0.930 . S
H6043 C6040 0.869 1_565 S
S6044 N6045 1.613 . S
S6044 N6046 1.610 . S
N6045 S6044 1.613 . S
N6045 C6048 1.350 . S
N6046 S6044 1.610 . S
N6046 C6047 1.351 . S
C6047 C6041 1.428 . S
C6047 N6046 1.351 . S
C6047 C6048 1.434 . S
C6048 C6039 1.429 . S
C6048 N6045 1.350 . S
C6048 C6047 1.434 . S
C6049 C6050 1.369 . S
C6049 C6051 1.419 . S
C6049 H6053 0.930 . S
C6050 C6049 1.369 . S
C6050 C6059 1.429 . S
C6051 C6049 1.419 . S
C6051 C6052 1.363 . S
C6051 H6054 0.929 . S
C6052 C6051 1.363 . S
C6052 C6058 1.428 . S
H6053 C6049 0.930 . S
H6054 C6051 0.929 . S
S6055 N6056 1.613 . S
S6055 N6057 1.610 . S
N6056 S6055 1.613 . S
N6056 C6059 1.350 . S
N6057 S6055 1.610 . S
N6057 C6058 1.351 . S
C6058 C6052 1.428 . S
C6058 N6057 1.351 . S
C6058 C6059 1.434 . S
C6059 C6050 1.429 . S
C6059 N6056 1.350 . S
C6059 C6058 1.434 . S
C6060 C6061 1.369 . S
C6060 C6062 1.419 . S
C6060 H6064 0.930 . S
C6061 C6060 1.369 . S
C6061 C6070 1.429 . S
C6062 C6060 1.419 . S
C6062 C6063 1.363 . S
C6062 H6065 0.929 . S
C6063 C6062 1.363 . S
C6063 C6069 1.428 . S
H6064 C6060 0.930 . S
H6065 C6062 0.929 . S
S6066 N6067 1.613 . S
S6066 N6068 1.610 1_545 S
N6067 S6066 1.613 . S
N6067 C6070 1.350 . S
N6068 S6066 1.610 1_565 S
N6068 C6069 1.351 1_565 S
C6069 C6063 1.428 . S
C6069 N6068 1.351 1_545 S
C6069 C6070 1.434 . S
C6070 C6061 1.429 . S
C6070 N6067 1.350 . S
C6070 C6069 1.434 . S
C6071 C6072 1.369 . S
C6071 C6073 1.419 . S
C6071 H6075 0.930 . S
C6072 C6071 1.369 . S
C6072 C6081 1.429 . S
C6073 C6071 1.419 . S
C6073 C6074 1.363 . S
C6073 H6076 0.929 . S
C6074 C6073 1.363 . S
C6074 C6080 1.428 . S
H6075 C6071 0.930 . S
H6076 C6073 0.929 . S
S6077 N6078 1.613 . S
S6077 N6079 1.610 . S
N6078 S6077 1.613 . S
N6078 C6081 1.350 . S
N6079 S6077 1.610 . S
N6079 C6080 1.351 . S
C6080 C6074 1.428 . S
C6080 N6079 1.351 . S
C6080 C6081 1.434 . S
C6081 C6072 1.429 . S
C6081 N6078 1.350 . S
C6081 C6080 1.434 . S
C6082 C6083 1.369 . S
C6082 C6084 1.419 . S
C6082 H6086 0.930 . S
C6083 C6082 1.369 . S
C6083 C6092 1.429 . S
C6084 C6082 1.419 . S
C6084 C6085 1.363 . S
C6084 H6087 0.929 . S
C6085 C6084 1.363 . S
C6085 C6091 1.428 . S
H6086 C6082 0.930 . S
H6087 C6084 0.929 . S
S6088 N6089 1.613 . S
S6088 N6090 1.608 1_565 S
N6089 S6088 1.613 . S
N6089 C6092 1.350 . S
N6090 S6088 1.608 1_545 S
N6090 C6091 1.349 1_545 S
C6091 C6085 1.428 . S
C6091 N6090 1.349 1_565 S
C6091 C6092 1.434 . S
C6092 C6083 1.429 . S
C6092 N6089 1.350 . S
C6092 C6091 1.434 . S
C6093 C6094 1.369 . S
C6093 C6095 1.419 . S
C6093 H6097 0.930 . S
C6094 C6093 1.369 . S
C6094 C6103 1.429 . S
C6095 C6093 1.419 . S
C6095 C6096 1.363 . S
C6095 H6098 0.929 . S
C6096 C6095 1.363 . S
C6096 C6102 1.428 . S
H6097 C6093 0.930 . S
H6098 C6095 0.929 . S
S6099 N6100 1.613 . S
S6099 N6101 1.610 . S
N6100 S6099 1.613 . S
N6100 C6103 1.350 . S
N6101 S6099 1.610 . S
N6101 C6102 1.351 . S
C6102 C6096 1.428 . S
C6102 N6101 1.351 . S
C6102 C6103 1.434 . S
C6103 C6094 1.429 . S
C6103 N6100 1.350 . S
C6103 C6102 1.434 . S
C6104 C6105 1.369 . S
C6104 C6106 1.419 . S
C6104 H6108 0.930 . S
C6105 C6104 1.369 . S
C6105 C6114 1.429 . S
C6106 C6104 1.419 . S
C6106 C6107 1.363 . S
C6106 H6109 0.929 . S
C6107 C6106 1.363 . S
C6107 C6113 1.428 . S
H6108 C6104 0.930 . S
H6109 C6106 0.929 . S
S6110 N6111 1.613 . S
S6110 N6112 1.610 . S
N6111 S6110 1.613 . S
N6111 C6114 1.350 . S
N6112 S6110 1.610 . S
N6112 C6113 1.351 . S
C6113 C6107 1.428 . S
C6113 N6112 1.351 . S
C6113 C6114 1.434 . S
C6114 C6105 1.429 . S
C6114 N6111 1.350 . S
C6114 C6113 1.434 . S
C6115 C6116 1.369 . S
C6115 C6117 1.419 . S
C6115 H6119 0.930 . S
C6116 C6115 1.369 . S
C6116 C6125 1.429 . S
C6117 C6115 1.419 . S
C6117 C6118 1.363 . S
C6117 H6120 0.929 . S
C6118 C6117 1.363 . S
C6118 C6124 1.428 . S
H6119 C6115 0.930 . S
H6120 C6117 0.929 . S
S6121 N6122 1.613 . S
S6121 N6123 1.689 . S
N6122 S6121 1.613 . S
N6122 C6125 1.350 . S
N6123 S6121 1.689 . S
N6123 C6124 1.408 . S
C6124 C6118 1.428 . S
C6124 N6123 1.408 . S
C6124 C6125 1.434 . S
C6125 C6116 1.429 . S
C6125 N6122 1.350 . S
C6125 C6124 1.434 . S
C6126 C6127 1.369 . S
C6126 C6128 1.419 . S
C6126 H6130 0.930 . S
C6127 C6126 1.369 . S
C6127 C6136 1.429 . S
C6128 C6126 1.419 . S
C6128 C6129 1.363 . S
C6128 H6131 0.929 . S
C6129 C6128 1.363 . S
C6129 C6135 1.428 . S
H6130 C6126 0.930 . S
H6131 C6128 0.929 . S
S6132 N6133 1.613 . S
S6132 N6134 1.610 . S
N6133 S6132 1.613 . S
N6133 C6136 1.350 . S
N6134 S6132 1.610 . S
N6134 C6135 1.351 . S
C6135 C6129 1.428 . S
C6135 N6134 1.351 . S
C6135 C6136 1.434 . S
C6136 C6127 1.429 . S
C6136 N6133 1.350 . S
C6136 C6135 1.434 . S
C6137 C6138 1.369 . S
C6137 C6139 1.419 . S
C6137 H6141 0.930 . S
C6138 C6137 1.369 . S
C6138 C6147 1.429 . S
C6139 C6137 1.419 . S
C6139 C6140 1.363 . S
C6139 H6142 0.929 . S
C6140 C6139 1.363 . S
C6140 C6146 1.428 . S
H6141 C6137 0.930 . S
H6142 C6139 0.929 . S
S6143 N6144 1.613 . S
S6143 N6145 1.610 . S
N6144 S6143 1.613 . S
N6144 C6147 1.350 . S
N6145 S6143 1.610 . S
N6145 C6146 1.351 . S
C6146 C6140 1.428 . S
C6146 N6145 1.351 . S
C6146 C6147 1.434 . S
C6147 C6138 1.429 . S
C6147 N6144 1.350 . S
C6147 C6146 1.434 . S
C6148 C6149 1.369 . S
C6148 C6150 1.419 . S
C6148 H6152 0.930 . S
C6149 C6148 1.369 . S
C6149 C6158 1.429 . S
C6150 C6148 1.419 . S
C6150 C6151 1.363 . S
C6150 H6153 0.929 . S
C6151 C6150 1.363 . S
C6151 C6157 1.428 . S
H6152 C6148 0.930 . S
H6153 C6150 0.929 . S
S6154 N6155 1.613 . S
S6154 N6156 1.610 . S
N6155 S6154 1.613 . S
N6155 C6158 1.350 . S
N6156 S6154 1.610 . S
N6156 C6157 1.351 . S
C6157 C6151 1.428 . S
C6157 N6156 1.351 . S
C6157 C6158 1.434 . S
C6158 C6149 1.429 . S
C6158 N6155 1.350 . S
C6158 C6157 1.434 . S
C6159 C6160 1.369 . S
C6159 C6161 1.419 . S
C6159 H6163 0.930 . S
C6160 C6159 1.369 . S
C6160 C6169 1.429 . S
C6161 C6159 1.419 . S
C6161 C6162 1.363 . S
C6161 H6164 0.929 . S
C6162 C6161 1.363 . S
C6162 C6168 1.428 . S
H6163 C6159 0.930 . S
H6164 C6161 0.929 . S
S6165 N6166 1.613 . S
S6165 N6167 1.610 . S
N6166 S6165 1.613 . S
N6166 C6169 1.350 . S
N6167 S6165 1.610 . S
N6167 C6168 1.351 . S
C6168 C6162 1.428 . S
C6168 N6167 1.351 . S
C6168 C6169 1.434 . S
C6169 C6160 1.429 . S
C6169 N6166 1.350 . S
C6169 C6168 1.434 . S
C6170 C6171 1.369 . S
C6170 C6172 1.419 . S
C6170 H6174 0.930 . S
C6171 C6170 1.369 . S
C6171 C6180 1.429 . S
C6172 C6170 1.419 . S
C6172 C6173 1.363 . S
C6172 H6175 0.929 . S
C6173 C6172 1.363 . S
C6173 C6179 1.428 . S
H6174 C6170 0.930 . S
H6175 C6172 0.929 . S
S6176 N6177 1.613 . S
S6176 N6178 1.610 . S
N6177 S6176 1.613 . S
N6177 C6180 1.350 . S
N6178 S6176 1.610 . S
N6178 C6179 1.351 . S
C6179 C6173 1.428 . S
C6179 N6178 1.351 . S
C6179 C6180 1.434 . S
C6180 C6171 1.429 . S
C6180 N6177 1.350 . S
C6180 C6179 1.434 . S
C6181 C6182 1.369 . S
C6181 C6183 1.419 . S
C6181 H6185 0.930 . S
C6182 C6181 1.369 . S
C6182 C6191 1.429 . S
C6183 C6181 1.419 . S
C6183 C6184 1.363 . S
C6183 H6186 0.929 . S
C6184 C6183 1.363 . S
C6184 C6190 1.428 . S
H6185 C6181 0.930 . S
H6186 C6183 0.929 . S
S6187 N6188 1.613 . S
S6187 N6189 1.610 . S
N6188 S6187 1.613 . S
N6188 C6191 1.350 . S
N6189 S6187 1.610 . S
N6189 C6190 1.351 . S
C6190 C6184 1.428 . S
C6190 N6189 1.351 . S
C6190 C6191 1.434 . S
C6191 C6182 1.429 . S
C6191 N6188 1.350 . S
C6191 C6190 1.434 . S
C6192 C6193 1.369 . S
C6192 C6194 1.419 . S
C6192 H6196 0.930 . S
C6193 C6192 1.369 . S
C6193 C6202 1.429 . S
C6194 C6192 1.419 . S
C6194 C6195 1.363 . S
C6194 H6197 0.929 . S
C6195 C6194 1.363 . S
C6195 C6201 1.428 . S
H6196 C6192 0.930 . S
H6197 C6194 0.929 . S
S6198 N6199 1.613 . S
S6198 N6200 1.610 . S
N6199 S6198 1.613 . S
N6199 C6202 1.350 . S
N6200 S6198 1.610 . S
N6200 C6201 1.351 . S
C6201 C6195 1.428 . S
C6201 N6200 1.351 . S
C6201 C6202 1.434 . S
C6202 C6193 1.429 . S
C6202 N6199 1.350 . S
C6202 C6201 1.434 . S
C6203 C6204 1.369 . S
C6203 C6205 1.419 . S
C6203 H6207 0.930 . S
C6204 C6203 1.369 . S
C6204 C6213 1.429 . S
C6205 C6203 1.419 . S
C6205 C6206 1.363 . S
C6205 H6208 0.929 . S
C6206 C6205 1.363 . S
C6206 C6212 1.428 . S
H6207 C6203 0.930 . S
H6208 C6205 0.929 . S
S6209 N6210 1.613 . S
S6209 N6211 1.610 . S
N6210 S6209 1.613 . S
N6210 C6213 1.350 . S
N6211 S6209 1.610 . S
N6211 C6212 1.351 . S
C6212 C6206 1.428 . S
C6212 N6211 1.351 . S
C6212 C6213 1.434 . S
C6213 C6204 1.429 . S
C6213 N6210 1.350 . S
C6213 C6212 1.434 . S
C6214 C6215 1.369 . S
C6214 C6216 1.419 . S
C6214 H6218 0.930 . S
C6215 C6214 1.369 . S
C6215 C6224 1.429 . S
C6216 C6214 1.419 . S
C6216 C6217 1.363 . S
C6216 H6219 0.924 . S
C6217 C6216 1.363 . S
C6217 C6223 1.428 . S
H6218 C6214 0.930 . S
H6219 C6216 0.924 . S
S6220 N6221 1.613 . S
S6220 N6222 1.610 . S
N6221 S6220 1.613 . S
N6221 C6224 1.350 . S
N6222 S6220 1.610 . S
N6222 C6223 1.351 . S
C6223 C6217 1.428 . S
C6223 N6222 1.351 . S
C6223 C6224 1.434 . S
C6224 C6215 1.429 . S
C6224 N6221 1.350 . S
C6224 C6223 1.434 . S
C6225 C6226 1.369 . S
C6225 C6227 1.419 . S
C6225 H6229 0.930 . S
C6226 C6225 1.369 . S
C6226 C6235 1.429 . S
C6227 C6225 1.419 . S
C6227 C6228 1.363 . S
C6227 H6230 0.929 . S
C6228 C6227 1.363 . S
C6228 C6234 1.428 . S
H6229 C6225 0.930 . S
H6230 C6227 0.929 . S
S6231 N6232 1.613 . S
S6231 N6233 1.610 . S
N6232 S6231 1.613 . S
N6232 C6235 1.350 . S
N6233 S6231 1.610 . S
N6233 C6234 1.351 . S
C6234 C6228 1.428 . S
C6234 N6233 1.351 . S
C6234 C6235 1.434 . S
C6235 C6226 1.429 . S
C6235 N6232 1.350 . S
C6235 C6234 1.434 . S
C6236 C6237 1.369 . S
C6236 C6238 1.419 . S
C6236 H6240 0.930 . S
C6237 C6236 1.369 . S
C6237 C6246 1.429 . S
C6238 C6236 1.419 . S
C6238 C6239 1.363 . S
C6238 H6241 0.929 . S
C6239 C6238 1.363 . S
C6239 C6245 1.428 . S
H6240 C6236 0.930 . S
H6241 C6238 0.929 . S
S6242 N6243 1.613 . S
S6242 N6244 1.610 . S
N6243 S6242 1.613 . S
N6243 C6246 1.350 . S
N6244 S6242 1.610 . S
N6244 C6245 1.351 . S
C6245 C6239 1.428 . S
C6245 N6244 1.351 . S
C6245 C6246 1.434 . S
C6246 C6237 1.429 . S
C6246 N6243 1.350 . S
C6246 C6245 1.434 . S
C6247 C6248 1.369 . S
C6247 C6249 1.419 . S
C6247 H6251 0.930 . S
C6248 C6247 1.369 . S
C6248 C6257 1.429 . S
C6249 C6247 1.419 . S
C6249 C6250 1.363 . S
C6249 H6252 0.929 . S
C6250 C6249 1.363 . S
C6250 C6256 1.428 . S
H6251 C6247 0.930 . S
H6252 C6249 0.929 . S
S6253 N6254 1.613 . S
S6253 N6255 1.610 . S
N6254 S6253 1.613 . S
N6254 C6257 1.350 . S
N6255 S6253 1.610 . S
N6255 C6256 1.351 . S
C6256 C6250 1.428 . S
C6256 N6255 1.351 . S
C6256 C6257 1.434 . S
C6257 C6248 1.429 . S
C6257 N6254 1.350 . S
C6257 C6256 1.434 . S
C6258 C6259 1.369 . S
C6258 C6260 1.419 . S
C6258 H6262 0.930 . S
C6259 C6258 1.369 . S
C6259 C6268 1.429 . S
C6260 C6258 1.419 . S
C6260 C6261 1.363 . S
C6260 H6263 0.929 . S
C6261 C6260 1.363 . S
C6261 C6267 1.428 . S
H6262 C6258 0.930 . S
H6263 C6260 0.929 . S
S6264 N6265 1.613 . S
S6264 N6266 1.610 . S
N6265 S6264 1.613 . S
N6265 C6268 1.350 . S
N6266 S6264 1.610 . S
N6266 C6267 1.351 . S
C6267 C6261 1.428 . S
C6267 N6266 1.351 . S
C6267 C6268 1.434 . S
C6268 C6259 1.429 . S
C6268 N6265 1.350 . S
C6268 C6267 1.434 . S
C6269 C6270 1.369 . S
C6269 C6271 1.419 . S
C6269 H6273 0.930 . S
C6270 C6269 1.369 . S
C6270 C6279 1.429 . S
C6271 C6269 1.419 . S
C6271 C6272 1.363 . S
C6271 H6274 0.929 . S
C6272 C6271 1.363 . S
C6272 C6278 1.428 . S
H6273 C6269 0.930 . S
H6274 C6271 0.929 . S
S6275 N6276 1.613 . S
S6275 N6277 1.610 . S
N6276 S6275 1.613 . S
N6276 C6279 1.350 . S
N6277 S6275 1.610 . S
N6277 C6278 1.351 . S
C6278 C6272 1.428 . S
C6278 N6277 1.351 . S
C6278 C6279 1.434 . S
C6279 C6270 1.429 . S
C6279 N6276 1.350 . S
C6279 C6278 1.434 . S
C6280 C6281 1.369 . S
C6280 C6282 1.419 . S
C6280 H6284 0.930 . S
C6281 C6280 1.369 . S
C6281 C6290 1.429 . S
C6282 C6280 1.419 . S
C6282 C6283 1.363 . S
C6282 H6285 0.929 . S
C6283 C6282 1.363 . S
C6283 C6289 1.428 . S
H6284 C6280 0.930 . S
H6285 C6282 0.929 . S
S6286 N6287 1.613 . S
S6286 N6288 1.610 . S
N6287 S6286 1.613 . S
N6287 C6290 1.350 . S
N6288 S6286 1.610 . S
N6288 C6289 1.351 . S
C6289 C6283 1.428 . S
C6289 N6288 1.351 . S
C6289 C6290 1.434 . S
C6290 C6281 1.429 . S
C6290 N6287 1.350 . S
C6290 C6289 1.434 . S
C6291 C6292 1.369 . S
C6291 C6293 1.419 . S
C6291 H6295 0.930 . S
C6292 C6291 1.369 . S
C6292 C6301 1.429 . S
C6293 C6291 1.419 . S
C6293 C6294 1.363 . S
C6293 H6296 0.929 . S
C6294 C6293 1.363 . S
C6294 C6300 1.428 . S
H6295 C6291 0.930 . S
H6296 C6293 0.929 . S
S6297 N6298 1.613 . S
S6297 N6299 1.610 . S
N6298 S6297 1.613 . S
N6298 C6301 1.350 . S
N6299 S6297 1.610 . S
N6299 C6300 1.351 . S
C6300 C6294 1.428 . S
C6300 N6299 1.351 . S
C6300 C6301 1.434 . S
C6301 C6292 1.429 . S
C6301 N6298 1.350 . S
C6301 C6300 1.434 . S
C6302 C6303 1.369 . S
C6302 C6304 1.419 . S
C6302 H6306 0.930 . S
C6303 C6302 1.369 . S
C6303 C6312 1.429 . S
C6304 C6302 1.419 . S
C6304 C6305 1.363 . S
C6304 H6307 0.929 . S
C6305 C6304 1.363 . S
C6305 C6311 1.428 . S
H6306 C6302 0.930 . S
H6307 C6304 0.929 . S
S6308 N6309 1.613 . S
S6308 N6310 1.610 . S
N6309 S6308 1.613 . S
N6309 C6312 1.350 . S
N6310 S6308 1.610 . S
N6310 C6311 1.351 . S
C6311 C6305 1.428 . S
C6311 N6310 1.351 . S
C6311 C6312 1.434 . S
C6312 C6303 1.429 . S
C6312 N6309 1.350 . S
C6312 C6311 1.434 . S
C6313 C6314 1.369 . S
C6313 C6315 1.419 . S
C6313 H6317 0.930 . S
C6314 C6313 1.369 . S
C6314 C6323 1.429 . S
C6315 C6313 1.419 . S
C6315 C6316 1.363 . S
C6315 H6318 0.929 . S
C6316 C6315 1.363 . S
C6316 C6322 1.428 . S
H6317 C6313 0.930 . S
H6318 C6315 0.929 . S
S6319 N6320 1.613 . S
S6319 N6321 1.610 . S
N6320 S6319 1.613 . S
N6320 C6323 1.350 . S
N6321 S6319 1.610 . S
N6321 C6322 1.351 . S
C6322 C6316 1.428 . S
C6322 N6321 1.351 . S
C6322 C6323 1.434 . S
C6323 C6314 1.429 . S
C6323 N6320 1.350 . S
C6323 C6322 1.434 . S
C6324 C6325 1.369 . S
C6324 C6326 1.419 . S
C6324 H6328 0.930 . S
C6325 C6324 1.369 . S
C6325 C6334 1.429 . S
C6326 C6324 1.419 . S
C6326 C6327 1.363 . S
C6326 H6329 0.929 . S
C6327 C6326 1.363 . S
C6327 C6333 1.428 . S
H6328 C6324 0.930 . S
H6329 C6326 0.929 . S
S6330 N6331 1.613 . S
S6330 N6332 1.610 . S
N6331 S6330 1.613 . S
N6331 C6334 1.350 . S
N6332 S6330 1.610 . S
N6332 C6333 1.351 . S
C6333 C6327 1.428 . S
C6333 N6332 1.351 . S
C6333 C6334 1.434 . S
C6334 C6325 1.429 . S
C6334 N6331 1.350 . S
C6334 C6333 1.434 . S
C6335 C6336 1.369 . S
C6335 C6337 1.419 . S
C6335 H6339 0.930 . S
C6336 C6335 1.369 . S
C6336 C6345 1.429 . S
C6337 C6335 1.419 . S
C6337 C6338 1.363 . S
C6337 H6340 0.929 . S
C6338 C6337 1.363 . S
C6338 C6344 1.428 . S
H6339 C6335 0.930 . S
H6340 C6337 0.929 . S
S6341 N6342 1.613 . S
S6341 N6343 1.610 . S
N6342 S6341 1.613 . S
N6342 C6345 1.350 . S
N6343 S6341 1.610 . S
N6343 C6344 1.351 . S
C6344 C6338 1.428 . S
C6344 N6343 1.351 . S
C6344 C6345 1.434 . S
C6345 C6336 1.429 . S
C6345 N6342 1.350 . S
C6345 C6344 1.434 . S
C6346 C6347 1.369 . S
C6346 C6348 1.419 . S
C6346 H6350 0.930 . S
C6347 C6346 1.369 . S
C6347 C6356 1.429 . S
C6348 C6346 1.419 . S
C6348 C6349 1.363 . S
C6348 H6351 0.929 . S
C6349 C6348 1.363 . S
C6349 C6355 1.428 . S
H6350 C6346 0.930 . S
H6351 C6348 0.929 . S
S6352 N6353 1.613 . S
S6352 N6354 1.610 . S
N6353 S6352 1.613 . S
N6353 C6356 1.350 . S
N6354 S6352 1.610 . S
N6354 C6355 1.351 . S
C6355 C6349 1.428 . S
C6355 N6354 1.351 . S
C6355 C6356 1.434 . S
C6356 C6347 1.429 . S
C6356 N6353 1.350 . S
C6356 C6355 1.434 . S
C6357 C6358 1.369 . S
C6357 C6359 1.419 . S
C6357 H6361 0.930 . S
C6358 C6357 1.369 . S
C6358 C6367 1.429 . S
C6359 C6357 1.419 . S
C6359 C6360 1.363 . S
C6359 H6362 0.929 . S
C6360 C6359 1.363 . S
C6360 C6366 1.428 . S
H6361 C6357 0.930 . S
H6362 C6359 0.929 . S
S6363 N6364 1.613 . S
S6363 N6365 1.610 . S
N6364 S6363 1.613 . S
N6364 C6367 1.350 . S
N6365 S6363 1.610 . S
N6365 C6366 1.351 . S
C6366 C6360 1.428 . S
C6366 N6365 1.351 . S
C6366 C6367 1.434 . S
C6367 C6358 1.429 . S
C6367 N6364 1.350 . S
C6367 C6366 1.434 . S
C6368 C6369 1.369 . S
C6368 C6370 1.419 . S
C6368 H6372 0.930 . S
C6369 C6368 1.369 . S
C6369 C6378 1.429 . S
C6370 C6368 1.419 . S
C6370 C6371 1.363 . S
C6370 H6373 0.929 . S
C6371 C6370 1.363 . S
C6371 C6377 1.428 . S
H6372 C6368 0.930 . S
H6373 C6370 0.929 . S
S6374 N6375 1.613 . S
S6374 N6376 1.610 . S
N6375 S6374 1.613 . S
N6375 C6378 1.350 . S
N6376 S6374 1.610 . S
N6376 C6377 1.351 . S
C6377 C6371 1.428 . S
C6377 N6376 1.351 . S
C6377 C6378 1.434 . S
C6378 C6369 1.429 . S
C6378 N6375 1.350 . S
C6378 C6377 1.434 . S
C6379 C6380 1.369 . S
C6379 C6381 1.419 . S
C6379 H6383 0.930 . S
C6380 C6379 1.369 . S
C6380 C6389 1.429 . S
C6381 C6379 1.419 . S
C6381 C6382 1.363 . S
C6381 H6384 0.929 . S
C6382 C6381 1.363 . S
C6382 C6388 1.428 . S
H6383 C6379 0.930 . S
H6384 C6381 0.929 . S
S6385 N6386 1.613 . S
S6385 N6387 1.610 . S
N6386 S6385 1.613 . S
N6386 C6389 1.350 . S
N6387 S6385 1.610 . S
N6387 C6388 1.351 . S
C6388 C6382 1.428 . S
C6388 N6387 1.351 . S
C6388 C6389 1.434 . S
C6389 C6380 1.429 . S
C6389 N6386 1.350 . S
C6389 C6388 1.434 . S
C6390 C6391 1.369 . S
C6390 C6392 1.419 . S
C6390 H6394 0.930 . S
C6391 C6390 1.369 . S
C6391 C6400 1.429 . S
C6392 C6390 1.419 . S
C6392 C6393 1.363 . S
C6392 H6395 0.929 . S
C6393 C6392 1.363 . S
C6393 C6399 1.428 . S
H6394 C6390 0.930 . S
H6395 C6392 0.929 . S
S6396 N6397 1.613 . S
S6396 N6398 1.610 . S
N6397 S6396 1.613 . S
N6397 C6400 1.350 . S
N6398 S6396 1.610 . S
N6398 C6399 1.351 . S
C6399 C6393 1.428 . S
C6399 N6398 1.351 . S
C6399 C6400 1.434 . S
C6400 C6391 1.429 . S
C6400 N6397 1.350 . S
C6400 C6399 1.434 . S
C6401 C6402 1.369 . S
C6401 C6403 1.419 . S
C6401 H6405 0.930 . S
C6402 C6401 1.369 . S
C6402 C6411 1.429 . S
C6403 C6401 1.419 . S
C6403 C6404 1.363 . S
C6403 H6406 0.929 . S
C6404 C6403 1.363 . S
C6404 C6410 1.428 . S
H6405 C6401 0.930 . S
H6406 C6403 0.929 . S
S6407 N6408 1.613 . S
S6407 N6409 1.610 1_556 S
N6408 S6407 1.613 . S
N6408 C6411 1.350 . S
N6409 S6407 1.610 1_554 S
N6409 C6410 1.351 1_554 S
C6410 C6404 1.428 . S
C6410 N6409 1.351 1_556 S
C6410 C6411 1.434 . S
C6411 C6402 1.429 . S
C6411 N6408 1.350 . S
C6411 C6410 1.434 . S
C6412 C6413 1.369 . S
C6412 C6414 1.419 . S
C6412 H6416 0.930 . S
C6413 C6412 1.369 . S
C6413 C6422 1.429 . S
C6414 C6412 1.419 . S
C6414 C6415 1.363 . S
C6414 H6417 0.929 . S
C6415 C6414 1.363 . S
C6415 C6421 1.428 . S
H6416 C6412 0.930 . S
H6417 C6414 0.929 . S
S6418 N6419 1.613 . S
S6418 N6420 1.610 . S
N6419 S6418 1.613 . S
N6419 C6422 1.350 . S
N6420 S6418 1.610 . S
N6420 C6421 1.351 . S
C6421 C6415 1.428 . S
C6421 N6420 1.351 . S
C6421 C6422 1.434 . S
C6422 C6413 1.429 . S
C6422 N6419 1.350 . S
C6422 C6421 1.434 . S
C6423 C6424 1.369 . S
C6423 C6425 1.419 . S
C6423 H6427 0.930 . S
C6424 C6423 1.369 . S
C6424 C6433 1.429 . S
C6425 C6423 1.419 . S
C6425 C6426 1.363 . S
C6425 H6428 0.929 1_554 S
C6426 C6425 1.363 . S
C6426 C6432 1.428 . S
H6427 C6423 0.930 . S
H6428 C6425 0.929 1_556 S
S6429 N6430 1.613 . S
S6429 N6431 1.610 . S
N6430 S6429 1.613 . S
N6430 C6433 1.350 . S
N6431 S6429 1.610 . S
N6431 C6432 1.351 . S
C6432 C6426 1.428 . S
C6432 N6431 1.351 . S
C6432 C6433 1.434 . S
C6433 C6424 1.429 . S
C6433 N6430 1.350 . S
C6433 C6432 1.434 . S
C6434 C6435 1.369 . S
C6434 C6436 1.419 . S
C6434 H6438 0.930 . S
C6435 C6434 1.369 . S
C6435 C6444 1.429 . S
C6436 C6434 1.419 . S
C6436 C6437 1.363 . S
C6436 H6439 0.929 . S
C6437 C6436 1.363 . S
C6437 C6443 1.428 . S
H6438 C6434 0.930 . S
H6439 C6436 0.929 . S
S6440 N6441 1.613 . S
S6440 N6442 1.610 . S
N6441 S6440 1.613 . S
N6441 C6444 1.350 . S
N6442 S6440 1.610 . S
N6442 C6443 1.351 . S
C6443 C6437 1.428 . S
C6443 N6442 1.351 . S
C6443 C6444 1.434 . S
C6444 C6435 1.429 . S
C6444 N6441 1.350 . S
C6444 C6443 1.434 . S
C6445 C6446 1.369 . S
C6445 C6447 1.419 . S
C6445 H6449 0.930 . S
C6446 C6445 1.369 . S
C6446 C6455 1.429 . S
C6447 C6445 1.419 . S
C6447 C6448 1.363 . S
C6447 H6450 0.929 . S
C6448 C6447 1.363 . S
C6448 C6454 1.428 . S
H6449 C6445 0.930 . S
H6450 C6447 0.929 . S
S6451 N6452 1.613 . S
S6451 N6453 1.610 . S
N6452 S6451 1.613 . S
N6452 C6455 1.350 . S
N6453 S6451 1.610 . S
N6453 C6454 1.351 . S
C6454 C6448 1.428 . S
C6454 N6453 1.351 . S
C6454 C6455 1.434 . S
C6455 C6446 1.429 . S
C6455 N6452 1.350 . S
C6455 C6454 1.434 . S
C6456 C6457 1.369 . S
C6456 C6458 1.419 . S
C6456 H6460 0.930 . S
C6457 C6456 1.369 . S
C6457 C6466 1.429 . S
C6458 C6456 1.419 . S
C6458 C6459 1.363 . S
C6458 H6461 0.929 . S
C6459 C6458 1.363 . S
C6459 C6465 1.428 . S
H6460 C6456 0.930 . S
H6461 C6458 0.929 . S
S6462 N6463 1.613 . S
S6462 N6464 1.610 . S
N6463 S6462 1.613 . S
N6463 C6466 1.350 . S
N6464 S6462 1.610 . S
N6464 C6465 1.351 . S
C6465 C6459 1.428 . S
C6465 N6464 1.351 . S
C6465 C6466 1.434 . S
C6466 C6457 1.429 . S
C6466 N6463 1.350 . S
C6466 C6465 1.434 . S
C6467 C6468 1.369 . S
C6467 C6469 1.419 . S
C6467 H6471 0.930 . S
C6468 C6467 1.369 . S
C6468 C6477 1.429 . S
C6469 C6467 1.419 . S
C6469 C6470 1.363 . S
C6469 H6472 0.929 . S
C6470 C6469 1.363 . S
C6470 C6476 1.428 . S
H6471 C6467 0.930 . S
H6472 C6469 0.929 . S
S6473 N6474 1.613 . S
S6473 N6475 1.610 . S
N6474 S6473 1.613 . S
N6474 C6477 1.350 . S
N6475 S6473 1.610 . S
N6475 C6476 1.351 . S
C6476 C6470 1.428 . S
C6476 N6475 1.351 . S
C6476 C6477 1.434 . S
C6477 C6468 1.429 . S
C6477 N6474 1.350 . S
C6477 C6476 1.434 . S
C6478 C6479 1.369 . S
C6478 C6480 1.419 . S
C6478 H6482 0.930 . S
C6479 C6478 1.369 . S
C6479 C6488 1.429 . S
C6480 C6478 1.419 . S
C6480 C6481 1.363 . S
C6480 H6483 0.929 . S
C6481 C6480 1.363 . S
C6481 C6487 1.428 . S
H6482 C6478 0.930 . S
H6483 C6480 0.929 . S
S6484 N6485 1.613 . S
S6484 N6486 1.606 . S
N6485 S6484 1.613 . S
N6485 C6488 1.350 . S
N6486 S6484 1.606 . S
N6486 C6487 1.347 . S
C6487 C6481 1.428 . S
C6487 N6486 1.347 . S
C6487 C6488 1.434 . S
C6488 C6479 1.429 . S
C6488 N6485 1.350 . S
C6488 C6487 1.434 . S
C6489 C6490 1.369 . S
C6489 C6491 1.419 . S
C6489 H6493 0.930 . S
C6490 C6489 1.369 . S
C6490 C6499 1.429 . S
C6491 C6489 1.419 . S
C6491 C6492 1.363 . S
C6491 H6494 0.929 . S
C6492 C6491 1.363 . S
C6492 C6498 1.428 . S
H6493 C6489 0.930 . S
H6494 C6491 0.929 . S
S6495 N6496 1.613 . S
S6495 N6497 1.610 . S
N6496 S6495 1.613 . S
N6496 C6499 1.350 . S
N6497 S6495 1.610 . S
N6497 C6498 1.351 . S
C6498 C6492 1.428 . S
C6498 N6497 1.351 . S
C6498 C6499 1.434 . S
C6499 C6490 1.429 . S
C6499 N6496 1.350 . S
C6499 C6498 1.434 . S
C6500 C6501 1.369 . S
C6500 C6502 1.419 . S
C6500 H6504 0.930 . S
C6501 C6500 1.369 . S
C6501 C6510 1.429 . S
C6502 C6500 1.419 . S
C6502 C6503 1.363 . S
C6502 H6505 0.929 . S
C6503 C6502 1.363 . S
C6503 C6509 1.428 . S
H6504 C6500 0.930 . S
H6505 C6502 0.929 . S
S6506 N6507 1.613 . S
S6506 N6508 1.610 . S
N6507 S6506 1.613 . S
N6507 C6510 1.350 . S
N6508 S6506 1.610 . S
N6508 C6509 1.351 . S
C6509 C6503 1.428 . S
C6509 N6508 1.351 . S
C6509 C6510 1.434 . S
C6510 C6501 1.429 . S
C6510 N6507 1.350 . S
C6510 C6509 1.434 . S
C6511 C6512 1.369 . S
C6511 C6513 1.419 . S
C6511 H6515 0.930 . S
C6512 C6511 1.369 . S
C6512 C6521 1.429 . S
C6513 C6511 1.419 . S
C6513 C6514 1.363 . S
C6513 H6516 0.929 . S
C6514 C6513 1.363 . S
C6514 C6520 1.428 . S
H6515 C6511 0.930 . S
H6516 C6513 0.929 . S
S6517 N6518 1.613 . S
S6517 N6519 1.610 . S
N6518 S6517 1.613 . S
N6518 C6521 1.350 . S
N6519 S6517 1.610 . S
N6519 C6520 1.351 . S
C6520 C6514 1.428 . S
C6520 N6519 1.351 . S
C6520 C6521 1.434 . S
C6521 C6512 1.429 . S
C6521 N6518 1.350 . S
C6521 C6520 1.434 . S
C6522 C6523 1.369 . S
C6522 C6524 1.419 . S
C6522 H6526 0.930 . S
C6523 C6522 1.369 . S
C6523 C6532 1.429 . S
C6524 C6522 1.419 . S
C6524 C6525 1.363 . S
C6524 H6527 0.929 . S
C6525 C6524 1.363 . S
C6525 C6531 1.428 . S
H6526 C6522 0.930 . S
H6527 C6524 0.929 . S
S6528 N6529 1.740 . S
S6528 N6530 1.555 1_455 S
N6529 S6528 1.740 . S
N6529 C6532 1.350 . S
N6530 S6528 1.555 1_655 S
N6530 C6531 1.351 1_655 S
C6531 C6525 1.428 . S
C6531 N6530 1.351 1_455 S
C6531 C6532 1.434 . S
C6532 C6523 1.429 . S
C6532 N6529 1.350 . S
C6532 C6531 1.434 . S
C6533 C6534 1.369 . S
C6533 C6535 1.419 . S
C6533 H6537 0.930 . S
C6534 C6533 1.369 . S
C6534 C6543 1.429 . S
C6535 C6533 1.419 . S
C6535 C6536 1.363 . S
C6535 H6538 0.929 . S
C6536 C6535 1.363 . S
C6536 C6542 1.428 . S
H6537 C6533 0.930 . S
H6538 C6535 0.929 . S
S6539 N6540 1.613 . S
S6539 N6541 1.610 . S
N6540 S6539 1.613 . S
N6540 C6543 1.350 . S
N6541 S6539 1.610 . S
N6541 C6542 1.351 . S
C6542 C6536 1.428 . S
C6542 N6541 1.351 . S
C6542 C6543 1.434 . S
C6543 C6534 1.429 . S
C6543 N6540 1.350 . S
C6543 C6542 1.434 . S
C6544 C6545 1.369 . S
C6544 C6546 1.419 . S
C6544 H6548 0.930 . S
C6545 C6544 1.369 . S
C6545 C6554 1.429 . S
C6546 C6544 1.419 . S
C6546 C6547 1.363 . S
C6546 H6549 0.929 . S
C6547 C6546 1.363 . S
C6547 C6553 1.428 . S
H6548 C6544 0.930 . S
H6549 C6546 0.929 . S
S6550 N6551 1.613 . S
S6550 N6552 1.610 . S
N6551 S6550 1.613 . S
N6551 C6554 1.350 . S
N6552 S6550 1.610 . S
N6552 C6553 1.351 . S
C6553 C6547 1.428 . S
C6553 N6552 1.351 . S
C6553 C6554 1.434 . S
C6554 C6545 1.429 . S
C6554 N6551 1.350 . S
C6554 C6553 1.434 . S
C6555 C6556 1.369 . S
C6555 C6557 1.419 . S
C6555 H6559 0.930 . S
C6556 C6555 1.369 . S
C6556 C6565 1.429 . S
C6557 C6555 1.419 . S
C6557 C6558 1.363 . S
C6557 H6560 0.929 . S
C6558 C6557 1.363 . S
C6558 C6564 1.428 . S
H6559 C6555 0.930 . S
H6560 C6557 0.929 . S
S6561 N6562 1.613 . S
S6561 N6563 1.610 . S
N6562 S6561 1.613 . S
N6562 C6565 1.350 . S
N6563 S6561 1.610 . S
N6563 C6564 1.351 . S
C6564 C6558 1.428 . S
C6564 N6563 1.351 . S
C6564 C6565 1.434 . S
C6565 C6556 1.429 . S
C6565 N6562 1.350 . S
C6565 C6564 1.434 . S
C6566 C6567 1.369 . S
C6566 C6568 1.419 . S
C6566 H6570 0.930 . S
C6567 C6566 1.369 . S
C6567 C6576 1.429 . S
C6568 C6566 1.419 . S
C6568 C6569 1.363 . S
C6568 H6571 0.929 . S
C6569 C6568 1.363 . S
C6569 C6575 1.428 . S
H6570 C6566 0.930 . S
H6571 C6568 0.929 . S
S6572 N6573 1.613 . S
S6572 N6574 1.610 . S
N6573 S6572 1.613 . S
N6573 C6576 1.350 . S
N6574 S6572 1.610 . S
N6574 C6575 1.351 . S
C6575 C6569 1.428 . S
C6575 N6574 1.351 . S
C6575 C6576 1.434 . S
C6576 C6567 1.429 . S
C6576 N6573 1.350 . S
C6576 C6575 1.434 . S
C6577 C6578 1.369 . S
C6577 C6579 1.419 . S
C6577 H6581 0.930 . S
C6578 C6577 1.369 . S
C6578 C6587 1.429 . S
C6579 C6577 1.419 . S
C6579 C6580 1.363 . S
C6579 H6582 0.929 . S
C6580 C6579 1.363 . S
C6580 C6586 1.428 . S
H6581 C6577 0.930 . S
H6582 C6579 0.929 . S
S6583 N6584 1.613 . S
S6583 N6585 1.610 . S
N6584 S6583 1.613 . S
N6584 C6587 1.350 . S
N6585 S6583 1.610 . S
N6585 C6586 1.351 . S
C6586 C6580 1.428 . S
C6586 N6585 1.351 . S
C6586 C6587 1.434 . S
C6587 C6578 1.429 . S
C6587 N6584 1.350 . S
C6587 C6586 1.434 . S
C6588 C6589 1.369 . S
C6588 C6590 1.419 . S
C6588 H6592 0.930 . S
C6589 C6588 1.369 . S
C6589 C6598 1.429 . S
C6590 C6588 1.419 . S
C6590 C6591 1.363 . S
C6590 H6593 0.929 . S
C6591 C6590 1.363 . S
C6591 C6597 1.428 . S
H6592 C6588 0.930 . S
H6593 C6590 0.929 . S
S6594 N6595 1.613 . S
S6594 N6596 1.610 . S
N6595 S6594 1.613 . S
N6595 C6598 1.350 . S
N6596 S6594 1.610 . S
N6596 C6597 1.351 . S
C6597 C6591 1.428 . S
C6597 N6596 1.351 . S
C6597 C6598 1.434 . S
C6598 C6589 1.429 . S
C6598 N6595 1.350 . S
C6598 C6597 1.434 . S
C6599 C6600 1.369 . S
C6599 C6601 1.419 . S
C6599 H6603 0.930 . S
C6600 C6599 1.369 . S
C6600 C6609 1.429 . S
C6601 C6599 1.419 . S
C6601 C6602 1.363 . S
C6601 H6604 0.929 . S
C6602 C6601 1.363 . S
C6602 C6608 1.428 . S
H6603 C6599 0.930 . S
H6604 C6601 0.929 . S
S6605 N6606 1.613 . S
S6605 N6607 1.610 . S
N6606 S6605 1.613 . S
N6606 C6609 1.350 . S
N6607 S6605 1.610 . S
N6607 C6608 1.351 . S
C6608 C6602 1.428 . S
C6608 N6607 1.351 . S
C6608 C6609 1.434 . S
C6609 C6600 1.429 . S
C6609 N6606 1.350 . S
C6609 C6608 1.434 . S
C6610 C6611 1.369 . S
C6610 C6612 1.419 . S
C6610 H6614 0.930 . S
C6611 C6610 1.369 . S
C6611 C6620 1.429 . S
C6612 C6610 1.419 . S
C6612 C6613 1.363 . S
C6612 H6615 0.929 . S
C6613 C6612 1.363 . S
C6613 C6619 1.428 . S
H6614 C6610 0.930 . S
H6615 C6612 0.929 . S
S6616 N6617 1.613 . S
S6616 N6618 1.610 . S
N6617 S6616 1.613 . S
N6617 C6620 1.350 . S
N6618 S6616 1.610 . S
N6618 C6619 1.351 . S
C6619 C6613 1.428 . S
C6619 N6618 1.351 . S
C6619 C6620 1.434 . S
C6620 C6611 1.429 . S
C6620 N6617 1.350 . S
C6620 C6619 1.434 . S
C6621 C6622 1.369 . S
C6621 C6623 1.419 . S
C6621 H6625 0.930 . S
C6622 C6621 1.369 . S
C6622 C6631 1.429 . S
C6623 C6621 1.419 . S
C6623 C6624 1.363 . S
C6623 H6626 0.929 . S
C6624 C6623 1.363 . S
C6624 C6630 1.428 . S
H6625 C6621 0.930 . S
H6626 C6623 0.929 . S
S6627 N6628 1.613 . S
S6627 N6629 1.610 . S
N6628 S6627 1.613 . S
N6628 C6631 1.350 . S
N6629 S6627 1.610 . S
N6629 C6630 1.351 . S
C6630 C6624 1.428 . S
C6630 N6629 1.351 . S
C6630 C6631 1.434 . S
C6631 C6622 1.429 . S
C6631 N6628 1.350 . S
C6631 C6630 1.434 . S
C6632 C6633 1.369 . S
C6632 C6634 1.419 . S
C6632 H6636 0.930 . S
C6633 C6632 1.369 . S
C6633 C6642 1.429 . S
C6634 C6632 1.419 . S
C6634 C6635 1.363 . S
C6634 H6637 0.929 . S
C6635 C6634 1.363 . S
C6635 C6641 1.428 . S
H6636 C6632 0.930 . S
H6637 C6634 0.929 . S
S6638 N6639 1.613 . S
S6638 N6640 1.610 . S
N6639 S6638 1.613 . S
N6639 C6642 1.350 . S
N6640 S6638 1.610 . S
N6640 C6641 1.351 . S
C6641 C6635 1.428 . S
C6641 N6640 1.351 . S
C6641 C6642 1.434 . S
C6642 C6633 1.429 . S
C6642 N6639 1.350 . S
C6642 C6641 1.434 . S
C6643 C6644 1.369 . S
C6643 C6645 1.419 . S
C6643 H6647 0.930 . S
C6644 C6643 1.369 . S
C6644 C6653 1.429 . S
C6645 C6643 1.419 . S
C6645 C6646 1.363 . S
C6645 H6648 0.929 . S
C6646 C6645 1.363 . S
C6646 C6652 1.428 . S
H6647 C6643 0.930 . S
H6648 C6645 0.929 . S
S6649 N6650 1.613 . S
S6649 N6651 1.610 . S
N6650 S6649 1.613 . S
N6650 C6653 1.350 . S
N6651 S6649 1.610 . S
N6651 C6652 1.351 . S
C6652 C6646 1.428 . S
C6652 N6651 1.351 . S
C6652 C6653 1.434 . S
C6653 C6644 1.429 . S
C6653 N6650 1.350 . S
C6653 C6652 1.434 . S
C6654 C6655 1.369 . S
C6654 C6656 1.419 . S
C6654 H6658 0.930 . S
C6655 C6654 1.369 . S
C6655 C6664 1.429 . S
C6656 C6654 1.419 . S
C6656 C6657 1.363 . S
C6656 H6659 0.929 . S
C6657 C6656 1.363 . S
C6657 C6663 1.428 . S
H6658 C6654 0.930 . S
H6659 C6656 0.929 . S
S6660 N6661 1.613 . S
S6660 N6662 1.610 . S
N6661 S6660 1.613 . S
N6661 C6664 1.350 . S
N6662 S6660 1.610 . S
N6662 C6663 1.351 . S
C6663 C6657 1.428 . S
C6663 N6662 1.351 . S
C6663 C6664 1.434 . S
C6664 C6655 1.429 . S
C6664 N6661 1.350 . S
C6664 C6663 1.434 . S
C6665 C6666 1.369 . S
C6665 C6667 1.419 . S
C6665 H6669 0.930 . S
C6666 C6665 1.369 . S
C6666 C6675 1.429 . S
C6667 C6665 1.419 . S
C6667 C6668 1.363 . S
C6667 H6670 0.929 . S
C6668 C6667 1.363 . S
C6668 C6674 1.428 . S
H6669 C6665 0.930 . S
H6670 C6667 0.929 . S
S6671 N6672 1.613 . S
S6671 N6673 1.610 . S
N6672 S6671 1.613 . S
N6672 C6675 1.350 . S
N6673 S6671 1.610 . S
N6673 C6674 1.351 . S
C6674 C6668 1.428 . S
C6674 N6673 1.351 . S
C6674 C6675 1.434 . S
C6675 C6666 1.429 . S
C6675 N6672 1.350 . S
C6675 C6674 1.434 . S
C6676 C6677 1.369 . S
C6676 C6678 1.419 . S
C6676 H6680 0.930 . S
C6677 C6676 1.369 . S
C6677 C6686 1.429 . S
C6678 C6676 1.419 . S
C6678 C6679 1.363 . S
C6678 H6681 0.929 . S
C6679 C6678 1.363 . S
C6679 C6685 1.428 . S
H6680 C6676 0.930 . S
H6681 C6678 0.929 . S
S6682 N6683 1.613 . S
S6682 N6684 1.610 . S
N6683 S6682 1.613 . S
N6683 C6686 1.350 . S
N6684 S6682 1.610 . S
N6684 C6685 1.351 . S
C6685 C6679 1.428 . S
C6685 N6684 1.351 . S
C6685 C6686 1.434 . S
C6686 C6677 1.429 . S
C6686 N6683 1.350 . S
C6686 C6685 1.434 . S
C6687 C6688 1.369 . S
C6687 C6689 1.419 . S
C6687 H6691 0.930 . S
C6688 C6687 1.369 . S
C6688 C6697 1.429 . S
C6689 C6687 1.419 . S
C6689 C6690 1.363 . S
C6689 H6692 0.929 1_556 S
C6690 C6689 1.363 . S
C6690 C6696 1.428 . S
H6691 C6687 0.930 . S
H6692 C6689 0.929 1_554 S
S6693 N6694 1.613 . S
S6693 N6695 1.610 . S
N6694 S6693 1.613 . S
N6694 C6697 1.350 . S
N6695 S6693 1.610 . S
N6695 C6696 1.351 . S
C6696 C6690 1.428 . S
C6696 N6695 1.351 . S
C6696 C6697 1.434 . S
C6697 C6688 1.429 . S
C6697 N6694 1.350 . S
C6697 C6696 1.434 . S
C6698 C6699 1.369 . S
C6698 C6700 1.419 . S
C6698 H6702 0.930 . S
C6699 C6698 1.369 . S
C6699 C6708 1.429 . S
C6700 C6698 1.419 . S
C6700 C6701 1.363 . S
C6700 H6703 0.929 . S
C6701 C6700 1.363 . S
C6701 C6707 1.428 . S
H6702 C6698 0.930 . S
H6703 C6700 0.929 . S
S6704 N6705 1.613 . S
S6704 N6706 1.610 . S
N6705 S6704 1.613 . S
N6705 C6708 1.350 . S
N6706 S6704 1.610 . S
N6706 C6707 1.351 . S
C6707 C6701 1.428 . S
C6707 N6706 1.351 . S
C6707 C6708 1.434 . S
C6708 C6699 1.429 . S
C6708 N6705 1.350 . S
C6708 C6707 1.434 . S
C6709 C6710 1.369 . S
C6709 C6711 1.419 . S
C6709 H6713 0.930 . S
C6710 C6709 1.369 . S
C6710 C6719 1.429 . S
C6711 C6709 1.419 . S
C6711 C6712 1.363 . S
C6711 H6714 0.929 . S
C6712 C6711 1.363 . S
C6712 C6718 1.428 . S
H6713 C6709 0.930 . S
H6714 C6711 0.929 . S
S6715 N6716 1.613 . S
S6715 N6717 1.610 . S
N6716 S6715 1.613 . S
N6716 C6719 1.350 . S
N6717 S6715 1.610 . S
N6717 C6718 1.351 . S
C6718 C6712 1.428 . S
C6718 N6717 1.351 . S
C6718 C6719 1.434 . S
C6719 C6710 1.429 . S
C6719 N6716 1.350 . S
C6719 C6718 1.434 . S
C6720 C6721 1.369 . S
C6720 C6722 1.419 . S
C6720 H6724 0.930 . S
C6721 C6720 1.369 . S
C6721 C6730 1.429 . S
C6722 C6720 1.419 . S
C6722 C6723 1.363 . S
C6722 H6725 0.929 . S
C6723 C6722 1.363 . S
C6723 C6729 1.428 . S
H6724 C6720 0.930 . S
H6725 C6722 0.929 . S
S6726 N6727 1.613 . S
S6726 N6728 1.610 . S
N6727 S6726 1.613 . S
N6727 C6730 1.350 . S
N6728 S6726 1.610 . S
N6728 C6729 1.351 . S
C6729 C6723 1.428 . S
C6729 N6728 1.351 . S
C6729 C6730 1.434 . S
C6730 C6721 1.429 . S
C6730 N6727 1.350 . S
C6730 C6729 1.434 . S
C6731 C6732 1.369 . S
C6731 C6733 1.419 . S
C6731 H6735 0.930 . S
C6732 C6731 1.369 . S
C6732 C6741 1.429 . S
C6733 C6731 1.419 . S
C6733 C6734 1.363 . S
C6733 H6736 0.929 . S
C6734 C6733 1.363 . S
C6734 C6740 1.428 . S
H6735 C6731 0.930 . S
H6736 C6733 0.929 . S
S6737 N6738 1.613 . S
S6737 N6739 1.610 . S
N6738 S6737 1.613 . S
N6738 C6741 1.350 . S
N6739 S6737 1.610 . S
N6739 C6740 1.351 . S
C6740 C6734 1.428 . S
C6740 N6739 1.351 . S
C6740 C6741 1.434 . S
C6741 C6732 1.429 . S
C6741 N6738 1.350 . S
C6741 C6740 1.434 . S
C6742 C6743 1.369 . S
C6742 C6744 1.419 . S
C6742 H6746 0.930 . S
C6743 C6742 1.369 . S
C6743 C6752 1.429 . S
C6744 C6742 1.419 . S
C6744 C6745 1.363 . S
C6744 H6747 0.929 . S
C6745 C6744 1.363 . S
C6745 C6751 1.428 . S
H6746 C6742 0.930 . S
H6747 C6744 0.929 . S
S6748 N6749 1.613 . S
S6748 N6750 1.610 . S
N6749 S6748 1.613 . S
N6749 C6752 1.350 . S
N6750 S6748 1.610 . S
N6750 C6751 1.351 . S
C6751 C6745 1.428 . S
C6751 N6750 1.351 . S
C6751 C6752 1.434 . S
C6752 C6743 1.429 . S
C6752 N6749 1.350 . S
C6752 C6751 1.434 . S
C6753 C6754 1.369 . S
C6753 C6755 1.419 . S
C6753 H6757 0.930 . S
C6754 C6753 1.369 . S
C6754 C6763 1.429 . S
C6755 C6753 1.419 . S
C6755 C6756 1.363 . S
C6755 H6758 0.929 . S
C6756 C6755 1.363 . S
C6756 C6762 1.428 . S
H6757 C6753 0.930 . S
H6758 C6755 0.929 . S
S6759 N6760 1.613 . S
S6759 N6761 1.610 . S
N6760 S6759 1.613 . S
N6760 C6763 1.350 . S
N6761 S6759 1.610 . S
N6761 C6762 1.351 . S
C6762 C6756 1.428 . S
C6762 N6761 1.351 . S
C6762 C6763 1.434 . S
C6763 C6754 1.429 . S
C6763 N6760 1.350 . S
C6763 C6762 1.434 . S
C6764 C6765 1.369 . S
C6764 C6766 1.419 . S
C6764 H6768 0.930 . S
C6765 C6764 1.369 . S
C6765 C6774 1.429 . S
C6766 C6764 1.419 . S
C6766 C6767 1.363 . S
C6766 H6769 0.929 . S
C6767 C6766 1.363 . S
C6767 C6773 1.428 . S
H6768 C6764 0.930 . S
H6769 C6766 0.929 . S
S6770 N6771 1.613 . S
S6770 N6772 1.610 . S
N6771 S6770 1.613 . S
N6771 C6774 1.350 . S
N6772 S6770 1.610 . S
N6772 C6773 1.351 . S
C6773 C6767 1.428 . S
C6773 N6772 1.351 . S
C6773 C6774 1.434 . S
C6774 C6765 1.429 . S
C6774 N6771 1.350 . S
C6774 C6773 1.434 . S
C6775 C6776 1.369 . S
C6775 C6777 1.419 . S
C6775 H6779 0.930 . S
C6776 C6775 1.369 . S
C6776 C6785 1.429 . S
C6777 C6775 1.419 . S
C6777 C6778 1.363 . S
C6777 H6780 0.929 . S
C6778 C6777 1.363 . S
C6778 C6784 1.428 . S
H6779 C6775 0.930 . S
H6780 C6777 0.929 . S
S6781 N6782 1.613 . S
S6781 N6783 1.610 . S
N6782 S6781 1.613 . S
N6782 C6785 1.350 . S
N6783 S6781 1.610 . S
N6783 C6784 1.351 . S
C6784 C6778 1.428 . S
C6784 N6783 1.351 . S
C6784 C6785 1.434 . S
C6785 C6776 1.429 . S
C6785 N6782 1.350 . S
C6785 C6784 1.434 . S
C6786 C6787 1.369 . S
C6786 C6788 1.419 . S
C6786 H6790 0.930 . S
C6787 C6786 1.369 . S
C6787 C6796 1.429 . S
C6788 C6786 1.419 . S
C6788 C6789 1.363 . S
C6788 H6791 0.929 . S
C6789 C6788 1.363 . S
C6789 C6795 1.428 . S
H6790 C6786 0.930 . S
H6791 C6788 0.929 . S
S6792 N6793 1.613 . S
S6792 N6794 1.610 . S
N6793 S6792 1.613 . S
N6793 C6796 1.350 . S
N6794 S6792 1.610 . S
N6794 C6795 1.351 . S
C6795 C6789 1.428 . S
C6795 N6794 1.351 . S
C6795 C6796 1.434 . S
C6796 C6787 1.429 . S
C6796 N6793 1.350 . S
C6796 C6795 1.434 . S
C6797 C6798 1.369 . S
C6797 C6799 1.419 . S
C6797 H6801 0.930 . S
C6798 C6797 1.369 . S
C6798 C6807 1.429 . S
C6799 C6797 1.419 . S
C6799 C6800 1.363 . S
C6799 H6802 0.929 . S
C6800 C6799 1.363 . S
C6800 C6806 1.428 . S
H6801 C6797 0.930 . S
H6802 C6799 0.929 . S
S6803 N6804 1.613 . S
S6803 N6805 1.610 . S
N6804 S6803 1.613 . S
N6804 C6807 1.350 . S
N6805 S6803 1.610 . S
N6805 C6806 1.351 . S
C6806 C6800 1.428 . S
C6806 N6805 1.351 . S
C6806 C6807 1.434 . S
C6807 C6798 1.429 . S
C6807 N6804 1.350 . S
C6807 C6806 1.434 . S
C6808 C6809 1.369 . S
C6808 C6810 1.419 . S
C6808 H6812 0.930 . S
C6809 C6808 1.369 . S
C6809 C6818 1.429 . S
C6810 C6808 1.419 . S
C6810 C6811 1.363 . S
C6810 H6813 0.929 . S
C6811 C6810 1.363 . S
C6811 C6817 1.428 . S
H6812 C6808 0.930 . S
H6813 C6810 0.929 . S
S6814 N6815 1.613 . S
S6814 N6816 1.610 . S
N6815 S6814 1.613 . S
N6815 C6818 1.350 . S
N6816 S6814 1.610 . S
N6816 C6817 1.351 . S
C6817 C6811 1.428 . S
C6817 N6816 1.351 . S
C6817 C6818 1.434 . S
C6818 C6809 1.429 . S
C6818 N6815 1.350 . S
C6818 C6817 1.434 . S
C6819 C6820 1.369 . S
C6819 C6821 1.419 . S
C6819 H6823 0.930 . S
C6820 C6819 1.369 . S
C6820 C6829 1.429 . S
C6821 C6819 1.419 . S
C6821 C6822 1.363 . S
C6821 H6824 0.929 . S
C6822 C6821 1.363 . S
C6822 C6828 1.428 . S
H6823 C6819 0.930 . S
H6824 C6821 0.929 . S
S6825 N6826 1.613 . S
S6825 N6827 1.610 . S
N6826 S6825 1.613 . S
N6826 C6829 1.350 . S
N6827 S6825 1.610 . S
N6827 C6828 1.351 . S
C6828 C6822 1.428 . S
C6828 N6827 1.351 . S
C6828 C6829 1.434 . S
C6829 C6820 1.429 . S
C6829 N6826 1.350 . S
C6829 C6828 1.434 . S
C6830 C6831 1.369 . S
C6830 C6832 1.419 . S
C6830 H6834 0.930 . S
C6831 C6830 1.369 . S
C6831 C6840 1.429 . S
C6832 C6830 1.419 . S
C6832 C6833 1.363 . S
C6832 H6835 0.929 . S
C6833 C6832 1.363 . S
C6833 C6839 1.428 . S
H6834 C6830 0.930 . S
H6835 C6832 0.929 . S
S6836 N6837 1.613 . S
S6836 N6838 1.610 . S
N6837 S6836 1.613 . S
N6837 C6840 1.350 . S
N6838 S6836 1.610 . S
N6838 C6839 1.351 . S
C6839 C6833 1.428 . S
C6839 N6838 1.351 . S
C6839 C6840 1.434 . S
C6840 C6831 1.429 . S
C6840 N6837 1.350 . S
C6840 C6839 1.434 . S
C6841 C6842 1.369 . S
C6841 C6843 1.419 . S
C6841 H6845 0.930 . S
C6842 C6841 1.369 . S
C6842 C6851 1.429 . S
C6843 C6841 1.419 . S
C6843 C6844 1.363 . S
C6843 H6846 0.929 . S
C6844 C6843 1.363 . S
C6844 C6850 1.428 . S
H6845 C6841 0.930 . S
H6846 C6843 0.929 . S
S6847 N6848 1.613 . S
S6847 N6849 1.610 . S
N6848 S6847 1.613 . S
N6848 C6851 1.350 . S
N6849 S6847 1.610 . S
N6849 C6850 1.351 . S
C6850 C6844 1.428 . S
C6850 N6849 1.351 . S
C6850 C6851 1.434 . S
C6851 C6842 1.429 . S
C6851 N6848 1.350 . S
C6851 C6850 1.434 . S
C6852 C6853 1.369 . S
C6852 C6854 1.419 . S
C6852 H6856 0.930 . S
C6853 C6852 1.369 . S
C6853 C6862 1.429 . S
C6854 C6852 1.419 . S
C6854 C6855 1.363 . S
C6854 H6857 0.929 . S
C6855 C6854 1.363 . S
C6855 C6861 1.428 . S
H6856 C6852 0.930 . S
H6857 C6854 0.929 . S
S6858 N6859 1.613 . S
S6858 N6860 1.610 . S
N6859 S6858 1.613 . S
N6859 C6862 1.350 . S
N6860 S6858 1.610 . S
N6860 C6861 1.351 . S
C6861 C6855 1.428 . S
C6861 N6860 1.351 . S
C6861 C6862 1.434 . S
C6862 C6853 1.429 . S
C6862 N6859 1.350 . S
C6862 C6861 1.434 . S
C6863 C6864 1.369 . S
C6863 C6865 1.419 . S
C6863 H6867 0.930 . S
C6864 C6863 1.369 . S
C6864 C6873 1.429 . S
C6865 C6863 1.419 . S
C6865 C6866 1.363 . S
C6865 H6868 0.929 . S
C6866 C6865 1.363 . S
C6866 C6872 1.428 . S
H6867 C6863 0.930 . S
H6868 C6865 0.929 . S
S6869 N6870 1.613 . S
S6869 N6871 1.610 . S
N6870 S6869 1.613 . S
N6870 C6873 1.350 . S
N6871 S6869 1.610 . S
N6871 C6872 1.351 . S
C6872 C6866 1.428 . S
C6872 N6871 1.351 . S
C6872 C6873 1.434 . S
C6873 C6864 1.429 . S
C6873 N6870 1.350 . S
C6873 C6872 1.434 . S
C6874 C6875 1.369 . S
C6874 C6876 1.419 . S
C6874 H6878 0.930 . S
C6875 C6874 1.369 . S
C6875 C6884 1.429 . S
C6876 C6874 1.419 . S
C6876 C6877 1.363 . S
C6876 H6879 0.929 . S
C6877 C6876 1.363 . S
C6877 C6883 1.428 . S
H6878 C6874 0.930 . S
H6879 C6876 0.929 . S
S6880 N6881 1.613 . S
S6880 N6882 1.610 . S
N6881 S6880 1.613 . S
N6881 C6884 1.350 . S
N6882 S6880 1.610 . S
N6882 C6883 1.351 . S
C6883 C6877 1.428 . S
C6883 N6882 1.351 . S
C6883 C6884 1.434 . S
C6884 C6875 1.429 . S
C6884 N6881 1.350 . S
C6884 C6883 1.434 . S
C6885 C6886 1.369 . S
C6885 C6887 1.419 . S
C6885 H6889 0.930 . S
C6886 C6885 1.369 . S
C6886 C6895 1.429 . S
C6887 C6885 1.419 . S
C6887 C6888 1.363 . S
C6887 H6890 0.929 . S
C6888 C6887 1.363 . S
C6888 C6894 1.428 . S
H6889 C6885 0.930 . S
H6890 C6887 0.929 . S
S6891 N6892 1.613 . S
S6891 N6893 1.610 . S
N6892 S6891 1.613 . S
N6892 C6895 1.350 . S
N6893 S6891 1.610 . S
N6893 C6894 1.351 . S
C6894 C6888 1.428 . S
C6894 N6893 1.351 . S
C6894 C6895 1.434 . S
C6895 C6886 1.429 . S
C6895 N6892 1.350 . S
C6895 C6894 1.434 . S
C6896 C6897 1.369 . S
C6896 C6898 1.419 . S
C6896 H6900 0.930 . S
C6897 C6896 1.369 . S
C6897 C6906 1.429 . S
C6898 C6896 1.419 . S
C6898 C6899 1.363 . S
C6898 H6901 0.929 . S
C6899 C6898 1.363 . S
C6899 C6905 1.428 . S
H6900 C6896 0.930 . S
H6901 C6898 0.929 . S
S6902 N6903 1.613 . S
S6902 N6904 1.610 . S
N6903 S6902 1.613 . S
N6903 C6906 1.350 . S
N6904 S6902 1.610 . S
N6904 C6905 1.351 . S
C6905 C6899 1.428 . S
C6905 N6904 1.351 . S
C6905 C6906 1.434 . S
C6906 C6897 1.429 . S
C6906 N6903 1.350 . S
C6906 C6905 1.434 . S
C6907 C6908 1.369 . S
C6907 C6909 1.419 . S
C6907 H6911 0.930 . S
C6908 C6907 1.369 . S
C6908 C6917 1.429 . S
C6909 C6907 1.419 . S
C6909 C6910 1.363 . S
C6909 H6912 0.929 . S
C6910 C6909 1.363 . S
C6910 C6916 1.428 . S
H6911 C6907 0.930 . S
H6912 C6909 0.929 . S
S6913 N6914 1.613 . S
S6913 N6915 1.610 . S
N6914 S6913 1.613 . S
N6914 C6917 1.350 . S
N6915 S6913 1.610 . S
N6915 C6916 1.351 . S
C6916 C6910 1.428 . S
C6916 N6915 1.351 . S
C6916 C6917 1.434 . S
C6917 C6908 1.429 . S
C6917 N6914 1.350 . S
C6917 C6916 1.434 . S
C6918 C6919 1.369 . S
C6918 C6920 1.419 . S
C6918 H6922 0.930 . S
C6919 C6918 1.369 . S
C6919 C6928 1.429 . S
C6920 C6918 1.419 . S
C6920 C6921 1.363 . S
C6920 H6923 0.929 . S
C6921 C6920 1.363 . S
C6921 C6927 1.428 . S
H6922 C6918 0.930 . S
H6923 C6920 0.929 . S
S6924 N6925 1.613 . S
S6924 N6926 1.610 . S
N6925 S6924 1.613 . S
N6925 C6928 1.350 . S
N6926 S6924 1.610 . S
N6926 C6927 1.351 . S
C6927 C6921 1.428 . S
C6927 N6926 1.351 . S
C6927 C6928 1.434 . S
C6928 C6919 1.429 . S
C6928 N6925 1.350 . S
C6928 C6927 1.434 . S
C6929 C6930 1.369 . S
C6929 C6931 1.419 . S
C6929 H6933 0.930 . S
C6930 C6929 1.369 . S
C6930 C6939 1.429 . S
C6931 C6929 1.419 . S
C6931 C6932 1.363 . S
C6931 H6934 0.929 . S
C6932 C6931 1.363 . S
C6932 C6938 1.428 . S
H6933 C6929 0.930 . S
H6934 C6931 0.929 . S
S6935 N6936 1.613 . S
S6935 N6937 1.610 . S
N6936 S6935 1.613 . S
N6936 C6939 1.350 . S
N6937 S6935 1.610 . S
N6937 C6938 1.351 . S
C6938 C6932 1.428 . S
C6938 N6937 1.351 . S
C6938 C6939 1.434 . S
C6939 C6930 1.429 . S
C6939 N6936 1.350 . S
C6939 C6938 1.434 . S
C6940 C6941 1.369 . S
C6940 C6942 1.419 . S
C6940 H6944 0.930 . S
C6941 C6940 1.369 . S
C6941 C6950 1.429 . S
C6942 C6940 1.419 . S
C6942 C6943 1.363 . S
C6942 H6945 0.929 . S
C6943 C6942 1.363 . S
C6943 C6949 1.428 . S
H6944 C6940 0.930 . S
H6945 C6942 0.929 . S
S6946 N6947 1.613 . S
S6946 N6948 1.610 . S
N6947 S6946 1.613 . S
N6947 C6950 1.350 . S
N6948 S6946 1.610 . S
N6948 C6949 1.351 . S
C6949 C6943 1.428 . S
C6949 N6948 1.351 . S
C6949 C6950 1.434 . S
C6950 C6941 1.429 . S
C6950 N6947 1.350 . S
C6950 C6949 1.434 . S
C6951 C6952 1.369 . S
C6951 C6953 1.419 . S
C6951 H6955 0.930 . S
C6952 C6951 1.369 . S
C6952 C6961 1.429 . S
C6953 C6951 1.419 . S
C6953 C6954 1.363 . S
C6953 H6956 0.929 . S
C6954 C6953 1.363 . S
C6954 C6960 1.428 . S
H6955 C6951 0.930 . S
H6956 C6953 0.929 . S
S6957 N6958 1.613 . S
S6957 N6959 1.610 . S
N6958 S6957 1.613 . S
N6958 C6961 1.350 . S
N6959 S6957 1.610 . S
N6959 C6960 1.351 . S
C6960 C6954 1.428 . S
C6960 N6959 1.351 . S
C6960 C6961 1.434 . S
C6961 C6952 1.429 . S
C6961 N6958 1.350 . S
C6961 C6960 1.434 . S
C6962 C6963 1.369 . S
C6962 C6964 1.419 . S
C6962 H6966 0.930 . S
C6963 C6962 1.369 . S
C6963 C6972 1.429 . S
C6964 C6962 1.419 . S
C6964 C6965 1.363 . S
C6964 H6967 0.929 . S
C6965 C6964 1.363 . S
C6965 C6971 1.428 . S
H6966 C6962 0.930 . S
H6967 C6964 0.929 . S
S6968 N6969 1.613 . S
S6968 N6970 1.610 . S
N6969 S6968 1.613 . S
N6969 C6972 1.350 . S
N6970 S6968 1.610 . S
N6970 C6971 1.351 . S
C6971 C6965 1.428 . S
C6971 N6970 1.351 . S
C6971 C6972 1.434 . S
C6972 C6963 1.429 . S
C6972 N6969 1.350 . S
C6972 C6971 1.434 . S
C6973 C6974 1.369 . S
C6973 C6975 1.419 . S
C6973 H6977 0.930 . S
C6974 C6973 1.369 . S
C6974 C6983 1.429 . S
C6975 C6973 1.419 . S
C6975 C6976 1.363 . S
C6975 H6978 0.929 . S
C6976 C6975 1.363 . S
C6976 C6982 1.428 . S
H6977 C6973 0.930 . S
H6978 C6975 0.929 . S
S6979 N6980 1.613 . S
S6979 N6981 1.610 . S
N6980 S6979 1.613 . S
N6980 C6983 1.350 . S
N6981 S6979 1.610 . S
N6981 C6982 1.351 . S
C6982 C6976 1.428 . S
C6982 N6981 1.351 . S
C6982 C6983 1.434 . S
C6983 C6974 1.429 . S
C6983 N6980 1.350 . S
C6983 C6982 1.434 . S
C6984 C6985 1.369 . S
C6984 C6986 1.419 . S
C6984 H6988 0.930 . S
C6985 C6984 1.369 . S
C6985 C6994 1.429 . S
C6986 C6984 1.419 . S
C6986 C6987 1.363 . S
C6986 H6989 0.929 . S
C6987 C6986 1.363 . S
C6987 C6993 1.428 . S
H6988 C6984 0.930 . S
H6989 C6986 0.929 . S
S6990 N6991 1.613 . S
S6990 N6992 1.610 . S
N6991 S6990 1.613 . S
N6991 C6994 1.350 . S
N6992 S6990 1.610 . S
N6992 C6993 1.351 . S
C6993 C6987 1.428 . S
C6993 N6992 1.351 . S
C6993 C6994 1.434 . S
C6994 C6985 1.429 . S
C6994 N6991 1.350 . S
C6994 C6993 1.434 . S
C6995 C6996 1.369 . S
C6995 C6997 1.419 . S
C6995 H6999 0.930 . S
C6996 C6995 1.369 . S
C6996 C7005 1.429 . S
C6997 C6995 1.419 . S
C6997 C6998 1.363 . S
C6997 H7000 0.929 . S
C6998 C6997 1.363 . S
C6998 C7004 1.428 . S
H6999 C6995 0.930 . S
H7000 C6997 0.929 . S
S7001 N7002 1.613 . S
S7001 N7003 1.610 . S
N7002 S7001 1.613 . S
N7002 C7005 1.350 . S
N7003 S7001 1.610 . S
N7003 C7004 1.351 . S
C7004 C6998 1.428 . S
C7004 N7003 1.351 . S
C7004 C7005 1.434 . S
C7005 C6996 1.429 . S
C7005 N7002 1.350 . S
C7005 C7004 1.434 . S
C7006 C7007 1.369 . S
C7006 C7008 1.419 . S
C7006 H7010 0.930 . S
C7007 C7006 1.369 . S
C7007 C7016 1.429 . S
C7008 C7006 1.419 . S
C7008 C7009 1.363 . S
C7008 H7011 0.929 . S
C7009 C7008 1.363 . S
C7009 C7015 1.428 . S
H7010 C7006 0.930 . S
H7011 C7008 0.929 . S
S7012 N7013 1.613 . S
S7012 N7014 1.610 . S
N7013 S7012 1.613 . S
N7013 C7016 1.350 . S
N7014 S7012 1.610 . S
N7014 C7015 1.351 . S
C7015 C7009 1.428 . S
C7015 N7014 1.351 . S
C7015 C7016 1.434 . S
C7016 C7007 1.429 . S
C7016 N7013 1.350 . S
C7016 C7015 1.434 . S
C7017 C7018 1.369 . S
C7017 C7019 1.419 . S
C7017 H7021 0.930 . S
C7018 C7017 1.369 . S
C7018 C7027 1.429 . S
C7019 C7017 1.419 . S
C7019 C7020 1.363 . S
C7019 H7022 0.929 . S
C7020 C7019 1.363 . S
C7020 C7026 1.428 . S
H7021 C7017 0.930 . S
H7022 C7019 0.929 . S
S7023 N7024 1.613 . S
S7023 N7025 1.610 . S
N7024 S7023 1.613 . S
N7024 C7027 1.350 . S
N7025 S7023 1.610 . S
N7025 C7026 1.351 . S
C7026 C7020 1.428 . S
C7026 N7025 1.351 . S
C7026 C7027 1.434 . S
C7027 C7018 1.429 . S
C7027 N7024 1.350 . S
C7027 C7026 1.434 . S
C7028 C7029 1.369 . S
C7028 C7030 1.419 . S
C7028 H7032 0.930 . S
C7029 C7028 1.369 . S
C7029 C7038 1.429 . S
C7030 C7028 1.419 . S
C7030 C7031 1.363 . S
C7030 H7033 0.929 . S
C7031 C7030 1.363 . S
C7031 C7037 1.428 . S
H7032 C7028 0.930 . S
H7033 C7030 0.929 . S
S7034 N7035 1.613 . S
S7034 N7036 1.610 . S
N7035 S7034 1.613 . S
N7035 C7038 1.350 . S
N7036 S7034 1.610 . S
N7036 C7037 1.351 . S
C7037 C7031 1.428 . S
C7037 N7036 1.351 . S
C7037 C7038 1.434 . S
C7038 C7029 1.429 . S
C7038 N7035 1.350 . S
C7038 C7037 1.434 . S
C7039 C7040 1.369 . S
C7039 C7041 1.419 . S
C7039 H7043 0.930 . S
C7040 C7039 1.369 . S
C7040 C7049 1.429 . S
C7041 C7039 1.419 . S
C7041 C7042 1.363 . S
C7041 H7044 0.929 . S
C7042 C7041 1.363 . S
C7042 C7048 1.428 . S
H7043 C7039 0.930 . S
H7044 C7041 0.929 . S
S7045 N7046 1.613 . S
S7045 N7047 1.610 . S
N7046 S7045 1.613 . S
N7046 C7049 1.350 . S
N7047 S7045 1.610 . S
N7047 C7048 1.351 . S
C7048 C7042 1.428 . S
C7048 N7047 1.351 . S
C7048 C7049 1.434 . S
C7049 C7040 1.429 . S
C7049 N7046 1.350 . S
C7049 C7048 1.434 . S
C7050 C7051 1.369 . S
C7050 C7052 1.419 . S
C7050 H7054 0.930 . S
C7051 C7050 1.369 . S
C7051 C7060 1.429 . S
C7052 C7050 1.419 . S
C7052 C7053 1.363 . S
C7052 H7055 0.929 . S
C7053 C7052 1.363 . S
C7053 C7059 1.428 . S
H7054 C7050 0.930 . S
H7055 C7052 0.929 . S
S7056 N7057 1.613 . S
S7056 N7058 1.610 . S
N7057 S7056 1.613 . S
N7057 C7060 1.350 . S
N7058 S7056 1.610 . S
N7058 C7059 1.351 . S
C7059 C7053 1.428 . S
C7059 N7058 1.351 . S
C7059 C7060 1.434 . S
C7060 C7051 1.429 . S
C7060 N7057 1.350 . S
C7060 C7059 1.434 . S
C7061 C7062 1.369 . S
C7061 C7063 1.419 . S
C7061 H7065 0.930 . S
C7062 C7061 1.369 . S
C7062 C7071 1.429 . S
C7063 C7061 1.419 . S
C7063 C7064 1.363 . S
C7063 H7066 0.929 . S
C7064 C7063 1.363 . S
C7064 C7070 1.428 . S
H7065 C7061 0.930 . S
H7066 C7063 0.929 . S
S7067 N7068 1.613 . S
S7067 N7069 1.610 . S
N7068 S7067 1.613 . S
N7068 C7071 1.350 . S
N7069 S7067 1.610 . S
N7069 C7070 1.351 . S
C7070 C7064 1.428 . S
C7070 N7069 1.351 . S
C7070 C7071 1.434 . S
C7071 C7062 1.429 . S
C7071 N7068 1.350 . S
C7071 C7070 1.434 . S
C7072 C7073 1.369 . S
C7072 C7074 1.419 . S
C7072 H7076 0.930 . S
C7073 C7072 1.369 . S
C7073 C7082 1.429 . S
C7074 C7072 1.419 . S
C7074 C7075 1.363 . S
C7074 H7077 0.929 . S
C7075 C7074 1.363 . S
C7075 C7081 1.428 . S
H7076 C7072 0.930 . S
H7077 C7074 0.929 . S
S7078 N7079 1.613 . S
S7078 N7080 1.610 . S
N7079 S7078 1.613 . S
N7079 C7082 1.350 . S
N7080 S7078 1.610 . S
N7080 C7081 1.351 . S
C7081 C7075 1.428 . S
C7081 N7080 1.351 . S
C7081 C7082 1.434 . S
C7082 C7073 1.429 . S
C7082 N7079 1.350 . S
C7082 C7081 1.434 . S
C7083 C7084 1.369 . S
C7083 C7085 1.419 . S
C7083 H7087 0.930 . S
C7084 C7083 1.369 . S
C7084 C7093 1.429 . S
C7085 C7083 1.419 . S
C7085 C7086 1.363 . S
C7085 H7088 0.929 . S
C7086 C7085 1.363 . S
C7086 C7092 1.428 . S
H7087 C7083 0.930 . S
H7088 C7085 0.929 . S
S7089 N7090 1.613 . S
S7089 N7091 1.610 . S
N7090 S7089 1.613 . S
N7090 C7093 1.350 . S
N7091 S7089 1.610 . S
N7091 C7092 1.351 . S
C7092 C7086 1.428 . S
C7092 N7091 1.351 . S
C7092 C7093 1.434 . S
C7093 C7084 1.429 . S
C7093 N7090 1.350 . S
C7093 C7092 1.434 . S
C7094 C7095 1.369 . S
C7094 C7096 1.419 . S
C7094 H7098 0.930 . S
C7095 C7094 1.369 . S
C7095 C7104 1.429 . S
C7096 C7094 1.419 . S
C7096 C7097 1.363 . S
C7096 H7099 0.929 . S
C7097 C7096 1.363 . S
C7097 C7103 1.428 . S
H7098 C7094 0.930 . S
H7099 C7096 0.929 . S
S7100 N7101 1.613 . S
S7100 N7102 1.610 . S
N7101 S7100 1.613 . S
N7101 C7104 1.350 . S
N7102 S7100 1.610 . S
N7102 C7103 1.351 . S
C7103 C7097 1.428 . S
C7103 N7102 1.351 . S
C7103 C7104 1.434 . S
C7104 C7095 1.429 . S
C7104 N7101 1.350 . S
C7104 C7103 1.434 . S
C7105 C7106 1.369 . S
C7105 C7107 1.419 . S
C7105 H7109 0.930 . S
C7106 C7105 1.369 . S
C7106 C7115 1.429 . S
C7107 C7105 1.419 . S
C7107 C7108 1.363 . S
C7107 H7110 0.929 . S
C7108 C7107 1.363 . S
C7108 C7114 1.428 . S
H7109 C7105 0.930 . S
H7110 C7107 0.929 . S
S7111 N7112 1.613 . S
S7111 N7113 1.610 . S
N7112 S7111 1.613 . S
N7112 C7115 1.350 . S
N7113 S7111 1.610 . S
N7113 C7114 1.351 . S
C7114 C7108 1.428 . S
C7114 N7113 1.351 . S
C7114 C7115 1.434 . S
C7115 C7106 1.429 . S
C7115 N7112 1.350 . S
C7115 C7114 1.434 . S
C7116 C7117 1.369 . S
C7116 C7118 1.419 . S
C7116 H7120 0.930 . S
C7117 C7116 1.369 . S
C7117 C7126 1.429 . S
C7118 C7116 1.419 . S
C7118 C7119 1.363 . S
C7118 H7121 0.929 . S
C7119 C7118 1.363 . S
C7119 C7125 1.428 . S
H7120 C7116 0.930 . S
H7121 C7118 0.929 . S
S7122 N7123 1.613 . S
S7122 N7124 1.610 . S
N7123 S7122 1.613 . S
N7123 C7126 1.350 . S
N7124 S7122 1.610 . S
N7124 C7125 1.351 . S
C7125 C7119 1.428 . S
C7125 N7124 1.351 . S
C7125 C7126 1.434 . S
C7126 C7117 1.429 . S
C7126 N7123 1.350 . S
C7126 C7125 1.434 . S
C7127 C7128 1.369 . S
C7127 C7129 1.419 . S
C7127 H7131 0.930 . S
C7128 C7127 1.369 . S
C7128 C7137 1.429 . S
C7129 C7127 1.419 . S
C7129 C7130 1.363 . S
C7129 H7132 0.929 . S
C7130 C7129 1.363 . S
C7130 C7136 1.428 . S
H7131 C7127 0.930 . S
H7132 C7129 0.929 . S
S7133 N7134 1.613 . S
S7133 N7135 1.610 . S
N7134 S7133 1.613 . S
N7134 C7137 1.350 . S
N7135 S7133 1.610 . S
N7135 C7136 1.351 . S
C7136 C7130 1.428 . S
C7136 N7135 1.351 . S
C7136 C7137 1.434 . S
C7137 C7128 1.429 . S
C7137 N7134 1.350 . S
C7137 C7136 1.434 . S
C7138 C7139 1.369 . S
C7138 C7140 1.419 . S
C7138 H7142 0.930 . S
C7139 C7138 1.369 . S
C7139 C7148 1.429 . S
C7140 C7138 1.419 . S
C7140 C7141 1.363 . S
C7140 H7143 0.929 . S
C7141 C7140 1.363 . S
C7141 C7147 1.428 . S
H7142 C7138 0.930 . S
H7143 C7140 0.929 . S
S7144 N7145 1.613 . S
S7144 N7146 1.610 . S
N7145 S7144 1.613 . S
N7145 C7148 1.350 . S
N7146 S7144 1.610 . S
N7146 C7147 1.351 . S
C7147 C7141 1.428 . S
C7147 N7146 1.351 . S
C7147 C7148 1.434 . S
C7148 C7139 1.429 . S
C7148 N7145 1.350 . S
C7148 C7147 1.434 . S
C7149 C7150 1.369 . S
C7149 C7151 1.419 . S
C7149 H7153 0.930 . S
C7150 C7149 1.369 . S
C7150 C7159 1.429 . S
C7151 C7149 1.419 . S
C7151 C7152 1.363 . S
C7151 H7154 0.929 . S
C7152 C7151 1.363 . S
C7152 C7158 1.428 . S
H7153 C7149 0.930 . S
H7154 C7151 0.929 . S
S7155 N7156 1.613 . S
S7155 N7157 1.610 . S
N7156 S7155 1.613 . S
N7156 C7159 1.350 . S
N7157 S7155 1.610 . S
N7157 C7158 1.351 . S
C7158 C7152 1.428 . S
C7158 N7157 1.351 . S
C7158 C7159 1.434 . S
C7159 C7150 1.429 . S
C7159 N7156 1.350 . S
C7159 C7158 1.434 . S
C7160 C7161 1.369 . S
C7160 C7162 1.419 . S
C7160 H7164 0.930 . S
C7161 C7160 1.369 . S
C7161 C7170 1.429 . S
C7162 C7160 1.419 . S
C7162 C7163 1.363 . S
C7162 H7165 0.929 . S
C7163 C7162 1.363 . S
C7163 C7169 1.428 . S
H7164 C7160 0.930 . S
H7165 C7162 0.929 . S
S7166 N7167 1.613 . S
S7166 N7168 1.610 . S
N7167 S7166 1.613 . S
N7167 C7170 1.350 . S
N7168 S7166 1.610 . S
N7168 C7169 1.351 . S
C7169 C7163 1.428 . S
C7169 N7168 1.351 . S
C7169 C7170 1.434 . S
C7170 C7161 1.429 . S
C7170 N7167 1.350 . S
C7170 C7169 1.434 . S
C7171 C7172 1.369 . S
C7171 C7173 1.419 . S
C7171 H7175 0.930 . S
C7172 C7171 1.369 . S
C7172 C7181 1.429 . S
C7173 C7171 1.419 . S
C7173 C7174 1.363 . S
C7173 H7176 0.929 . S
C7174 C7173 1.363 . S
C7174 C7180 1.428 . S
H7175 C7171 0.930 . S
H7176 C7173 0.929 . S
S7177 N7178 1.613 . S
S7177 N7179 1.610 . S
N7178 S7177 1.613 . S
N7178 C7181 1.350 . S
N7179 S7177 1.610 . S
N7179 C7180 1.351 . S
C7180 C7174 1.428 . S
C7180 N7179 1.351 . S
C7180 C7181 1.434 . S
C7181 C7172 1.429 . S
C7181 N7178 1.350 . S
C7181 C7180 1.434 . S
C7182 C7183 1.369 . S
C7182 C7184 1.419 . S
C7182 H7186 0.930 . S
C7183 C7182 1.369 . S
C7183 C7192 1.429 . S
C7184 C7182 1.419 . S
C7184 C7185 1.363 . S
C7184 H7187 0.929 . S
C7185 C7184 1.363 . S
C7185 C7191 1.428 . S
H7186 C7182 0.930 . S
H7187 C7184 0.929 . S
S7188 N7189 1.613 . S
S7188 N7190 1.610 . S
N7189 S7188 1.613 . S
N7189 C7192 1.350 . S
N7190 S7188 1.610 . S
N7190 C7191 1.351 . S
C7191 C7185 1.428 . S
C7191 N7190 1.351 . S
C7191 C7192 1.434 . S
C7192 C7183 1.429 . S
C7192 N7189 1.350 . S
C7192 C7191 1.434 . S
C7193 C7194 1.369 . S
C7193 C7195 1.419 . S
C7193 H7197 0.930 . S
C7194 C7193 1.369 . S
C7194 C7203 1.429 . S
C7195 C7193 1.419 . S
C7195 C7196 1.363 . S
C7195 H7198 0.929 . S
C7196 C7195 1.363 . S
C7196 C7202 1.428 . S
H7197 C7193 0.930 . S
H7198 C7195 0.929 . S
S7199 N7200 1.613 . S
S7199 N7201 1.610 . S
N7200 S7199 1.613 . S
N7200 C7203 1.350 . S
N7201 S7199 1.610 . S
N7201 C7202 1.351 . S
C7202 C7196 1.428 . S
C7202 N7201 1.351 . S
C7202 C7203 1.434 . S
C7203 C7194 1.429 . S
C7203 N7200 1.350 . S
C7203 C7202 1.434 . S
C7204 C7205 1.369 . S
C7204 C7206 1.419 . S
C7204 H7208 0.930 . S
C7205 C7204 1.369 . S
C7205 C7214 1.429 . S
C7206 C7204 1.419 . S
C7206 C7207 1.363 . S
C7206 H7209 0.929 . S
C7207 C7206 1.363 . S
C7207 C7213 1.428 . S
H7208 C7204 0.930 . S
H7209 C7206 0.929 . S
S7210 N7211 1.613 . S
S7210 N7212 1.610 . S
N7211 S7210 1.613 . S
N7211 C7214 1.350 . S
N7212 S7210 1.610 . S
N7212 C7213 1.351 . S
C7213 C7207 1.428 . S
C7213 N7212 1.351 . S
C7213 C7214 1.434 . S
C7214 C7205 1.429 . S
C7214 N7211 1.350 . S
C7214 C7213 1.434 . S
C7215 C7216 1.369 . S
C7215 C7217 1.419 . S
C7215 H7219 0.930 . S
C7216 C7215 1.369 . S
C7216 C7225 1.429 . S
C7217 C7215 1.419 . S
C7217 C7218 1.363 . S
C7217 H7220 0.929 . S
C7218 C7217 1.363 . S
C7218 C7224 1.428 . S
H7219 C7215 0.930 . S
H7220 C7217 0.929 . S
S7221 N7222 1.613 . S
S7221 N7223 1.610 . S
N7222 S7221 1.613 . S
N7222 C7225 1.350 . S
N7223 S7221 1.610 . S
N7223 C7224 1.351 . S
C7224 C7218 1.428 . S
C7224 N7223 1.351 . S
C7224 C7225 1.434 . S
C7225 C7216 1.429 . S
C7225 N7222 1.350 . S
C7225 C7224 1.434 . S
C7226 C7227 1.369 . S
C7226 C7228 1.419 . S
C7226 H7230 0.930 . S
C7227 C7226 1.369 . S
C7227 C7236 1.429 . S
C7228 C7226 1.419 . S
C7228 C7229 1.363 . S
C7228 H7231 0.929 . S
C7229 C7228 1.363 . S
C7229 C7235 1.428 . S
H7230 C7226 0.930 . S
H7231 C7228 0.929 . S
S7232 N7233 1.613 . S
S7232 N7234 1.610 . S
N7233 S7232 1.613 . S
N7233 C7236 1.350 . S
N7234 S7232 1.610 . S
N7234 C7235 1.351 . S
C7235 C7229 1.428 . S
C7235 N7234 1.351 . S
C7235 C7236 1.434 . S
C7236 C7227 1.429 . S
C7236 N7233 1.350 . S
C7236 C7235 1.434 . S
C7237 C7238 1.369 . S
C7237 C7239 1.419 . S
C7237 H7241 0.930 . S
C7238 C7237 1.369 . S
C7238 C7247 1.429 . S
C7239 C7237 1.419 . S
C7239 C7240 1.363 . S
C7239 H7242 0.929 . S
C7240 C7239 1.363 . S
C7240 C7246 1.428 . S
H7241 C7237 0.930 . S
H7242 C7239 0.929 . S
S7243 N7244 1.613 . S
S7243 N7245 1.610 . S
N7244 S7243 1.613 . S
N7244 C7247 1.350 . S
N7245 S7243 1.610 . S
N7245 C7246 1.351 . S
C7246 C7240 1.428 . S
C7246 N7245 1.351 . S
C7246 C7247 1.434 . S
C7247 C7238 1.429 . S
C7247 N7244 1.350 . S
C7247 C7246 1.434 . S
C7248 C7249 1.369 . S
C7248 C7250 1.419 . S
C7248 H7252 0.930 . S
C7249 C7248 1.369 . S
C7249 C7258 1.429 . S
C7250 C7248 1.419 . S
C7250 C7251 1.363 . S
C7250 H7253 0.929 . S
C7251 C7250 1.363 . S
C7251 C7257 1.428 . S
H7252 C7248 0.930 . S
H7253 C7250 0.929 . S
S7254 N7255 1.613 . S
S7254 N7256 1.610 . S
N7255 S7254 1.613 . S
N7255 C7258 1.350 . S
N7256 S7254 1.610 . S
N7256 C7257 1.351 . S
C7257 C7251 1.428 . S
C7257 N7256 1.351 . S
C7257 C7258 1.434 . S
C7258 C7249 1.429 . S
C7258 N7255 1.350 . S
C7258 C7257 1.434 . S
C7259 C7260 1.369 . S
C7259 C7261 1.419 . S
C7259 H7263 0.930 . S
C7260 C7259 1.369 . S
C7260 C7269 1.429 . S
C7261 C7259 1.419 . S
C7261 C7262 1.363 . S
C7261 H7264 0.929 . S
C7262 C7261 1.363 . S
C7262 C7268 1.428 . S
H7263 C7259 0.930 . S
H7264 C7261 0.929 . S
S7265 N7266 1.613 . S
S7265 N7267 1.610 . S
N7266 S7265 1.613 . S
N7266 C7269 1.350 . S
N7267 S7265 1.610 . S
N7267 C7268 1.351 . S
C7268 C7262 1.428 . S
C7268 N7267 1.351 . S
C7268 C7269 1.434 . S
C7269 C7260 1.429 . S
C7269 N7266 1.350 . S
C7269 C7268 1.434 . S
C7270 C7271 1.369 . S
C7270 C7272 1.419 . S
C7270 H7274 0.930 . S
C7271 C7270 1.369 . S
C7271 C7280 1.429 . S
C7272 C7270 1.419 . S
C7272 C7273 1.363 . S
C7272 H7275 0.929 . S
C7273 C7272 1.363 . S
C7273 C7279 1.428 . S
H7274 C7270 0.930 . S
H7275 C7272 0.929 . S
S7276 N7277 1.613 . S
S7276 N7278 1.610 . S
N7277 S7276 1.613 . S
N7277 C7280 1.350 . S
N7278 S7276 1.610 . S
N7278 C7279 1.351 . S
C7279 C7273 1.428 . S
C7279 N7278 1.351 . S
C7279 C7280 1.434 . S
C7280 C7271 1.429 . S
C7280 N7277 1.350 . S
C7280 C7279 1.434 . S
C7281 C7282 1.369 . S
C7281 C7283 1.419 . S
C7281 H7285 0.930 . S
C7282 C7281 1.369 . S
C7282 C7291 1.429 . S
C7283 C7281 1.419 . S
C7283 C7284 1.363 . S
C7283 H7286 0.929 . S
C7284 C7283 1.363 . S
C7284 C7290 1.428 . S
H7285 C7281 0.930 . S
H7286 C7283 0.929 . S
S7287 N7288 1.613 . S
S7287 N7289 1.610 . S
N7288 S7287 1.613 . S
N7288 C7291 1.350 . S
N7289 S7287 1.610 . S
N7289 C7290 1.351 . S
C7290 C7284 1.428 . S
C7290 N7289 1.351 . S
C7290 C7291 1.434 . S
C7291 C7282 1.429 . S
C7291 N7288 1.350 . S
C7291 C7290 1.434 . S
C7292 C7293 1.369 . S
C7292 C7294 1.419 . S
C7292 H7296 0.930 . S
C7293 C7292 1.369 . S
C7293 C7302 1.429 . S
C7294 C7292 1.419 . S
C7294 C7295 1.363 . S
C7294 H7297 0.929 . S
C7295 C7294 1.363 . S
C7295 C7301 1.428 . S
H7296 C7292 0.930 . S
H7297 C7294 0.929 . S
S7298 N7299 1.613 . S
S7298 N7300 1.610 . S
N7299 S7298 1.613 . S
N7299 C7302 1.350 . S
N7300 S7298 1.610 . S
N7300 C7301 1.351 . S
C7301 C7295 1.428 . S
C7301 N7300 1.351 . S
C7301 C7302 1.434 . S
C7302 C7293 1.429 . S
C7302 N7299 1.350 . S
C7302 C7301 1.434 . S
C7303 C7304 1.369 . S
C7303 C7305 1.419 . S
C7303 H7307 0.930 . S
C7304 C7303 1.369 . S
C7304 C7313 1.429 . S
C7305 C7303 1.419 . S
C7305 C7306 1.363 . S
C7305 H7308 0.929 . S
C7306 C7305 1.363 . S
C7306 C7312 1.428 . S
H7307 C7303 0.930 . S
H7308 C7305 0.929 . S
S7309 N7310 1.613 . S
S7309 N7311 1.610 . S
N7310 S7309 1.613 . S
N7310 C7313 1.350 . S
N7311 S7309 1.610 . S
N7311 C7312 1.351 . S
C7312 C7306 1.428 . S
C7312 N7311 1.351 . S
C7312 C7313 1.434 . S
C7313 C7304 1.429 . S
C7313 N7310 1.350 . S
C7313 C7312 1.434 . S
C7314 C7315 1.369 . S
C7314 C7316 1.419 . S
C7314 H7318 0.930 . S
C7315 C7314 1.369 . S
C7315 C7324 1.429 . S
C7316 C7314 1.419 . S
C7316 C7317 1.363 . S
C7316 H7319 0.929 . S
C7317 C7316 1.363 . S
C7317 C7323 1.428 . S
H7318 C7314 0.930 . S
H7319 C7316 0.929 . S
S7320 N7321 1.613 . S
S7320 N7322 1.610 . S
N7321 S7320 1.613 . S
N7321 C7324 1.350 . S
N7322 S7320 1.610 . S
N7322 C7323 1.351 . S
C7323 C7317 1.428 . S
C7323 N7322 1.351 . S
C7323 C7324 1.434 . S
C7324 C7315 1.429 . S
C7324 N7321 1.350 . S
C7324 C7323 1.434 . S
C7325 C7326 1.369 . S
C7325 C7327 1.419 . S
C7325 H7329 0.930 . S
C7326 C7325 1.369 . S
C7326 C7335 1.429 . S
C7327 C7325 1.419 . S
C7327 C7328 1.363 . S
C7327 H7330 0.929 . S
C7328 C7327 1.363 . S
C7328 C7334 1.428 . S
H7329 C7325 0.930 . S
H7330 C7327 0.929 . S
S7331 N7332 1.613 . S
S7331 N7333 1.610 . S
N7332 S7331 1.613 . S
N7332 C7335 1.350 . S
N7333 S7331 1.610 . S
N7333 C7334 1.351 . S
C7334 C7328 1.428 . S
C7334 N7333 1.351 . S
C7334 C7335 1.434 . S
C7335 C7326 1.429 . S
C7335 N7332 1.350 . S
C7335 C7334 1.434 . S
C7336 C7337 1.369 . S
C7336 C7338 1.419 . S
C7336 H7340 0.930 . S
C7337 C7336 1.369 . S
C7337 C7346 1.429 . S
C7338 C7336 1.419 . S
C7338 C7339 1.363 . S
C7338 H7341 0.929 . S
C7339 C7338 1.363 . S
C7339 C7345 1.428 . S
H7340 C7336 0.930 . S
H7341 C7338 0.929 . S
S7342 N7343 1.613 . S
S7342 N7344 1.610 . S
N7343 S7342 1.613 . S
N7343 C7346 1.350 . S
N7344 S7342 1.610 . S
N7344 C7345 1.351 . S
C7345 C7339 1.428 . S
C7345 N7344 1.351 . S
C7345 C7346 1.434 . S
C7346 C7337 1.429 . S
C7346 N7343 1.350 . S
C7346 C7345 1.434 . S
C7347 C7348 1.369 . S
C7347 C7349 1.419 . S
C7347 H7351 0.930 . S
C7348 C7347 1.369 . S
C7348 C7357 1.429 . S
C7349 C7347 1.419 . S
C7349 C7350 1.363 . S
C7349 H7352 0.929 . S
C7350 C7349 1.363 . S
C7350 C7356 1.428 . S
H7351 C7347 0.930 . S
H7352 C7349 0.929 . S
S7353 N7354 1.613 . S
S7353 N7355 1.610 . S
N7354 S7353 1.613 . S
N7354 C7357 1.350 . S
N7355 S7353 1.610 . S
N7355 C7356 1.351 . S
C7356 C7350 1.428 . S
C7356 N7355 1.351 . S
C7356 C7357 1.434 . S
C7357 C7348 1.429 . S
C7357 N7354 1.350 . S
C7357 C7356 1.434 . S
C7358 C7359 1.369 . S
C7358 C7360 1.419 . S
C7358 H7362 0.930 . S
C7359 C7358 1.369 . S
C7359 C7368 1.429 . S
C7360 C7358 1.419 . S
C7360 C7361 1.363 . S
C7360 H7363 0.929 . S
C7361 C7360 1.363 . S
C7361 C7367 1.428 . S
H7362 C7358 0.930 . S
H7363 C7360 0.929 . S
S7364 N7365 1.613 . S
S7364 N7366 1.610 . S
N7365 S7364 1.613 . S
N7365 C7368 1.350 . S
N7366 S7364 1.610 . S
N7366 C7367 1.351 . S
C7367 C7361 1.428 . S
C7367 N7366 1.351 . S
C7367 C7368 1.434 . S
C7368 C7359 1.429 . S
C7368 N7365 1.350 . S
C7368 C7367 1.434 . S
C7369 C7370 1.369 . S
C7369 C7371 1.419 . S
C7369 H7373 0.930 . S
C7370 C7369 1.369 . S
C7370 C7379 1.429 . S
C7371 C7369 1.419 . S
C7371 C7372 1.363 . S
C7371 H7374 0.929 . S
C7372 C7371 1.363 . S
C7372 C7378 1.428 . S
H7373 C7369 0.930 . S
H7374 C7371 0.929 . S
S7375 N7376 1.613 . S
S7375 N7377 1.610 . S
N7376 S7375 1.613 . S
N7376 C7379 1.350 . S
N7377 S7375 1.610 . S
N7377 C7378 1.351 . S
C7378 C7372 1.428 . S
C7378 N7377 1.351 . S
C7378 C7379 1.434 . S
C7379 C7370 1.429 . S
C7379 N7376 1.350 . S
C7379 C7378 1.434 . S
C7380 C7381 1.369 . S
C7380 C7382 1.419 . S
C7380 H7384 0.930 . S
C7381 C7380 1.369 . S
C7381 C7390 1.429 . S
C7382 C7380 1.419 . S
C7382 C7383 1.363 . S
C7382 H7385 0.929 . S
C7383 C7382 1.363 . S
C7383 C7389 1.428 . S
H7384 C7380 0.930 . S
H7385 C7382 0.929 . S
S7386 N7387 1.613 . S
S7386 N7388 1.610 . S
N7387 S7386 1.613 . S
N7387 C7390 1.350 . S
N7388 S7386 1.610 . S
N7388 C7389 1.351 . S
C7389 C7383 1.428 . S
C7389 N7388 1.351 . S
C7389 C7390 1.434 . S
C7390 C7381 1.429 . S
C7390 N7387 1.350 . S
C7390 C7389 1.434 . S
C7391 C7392 1.369 . S
C7391 C7393 1.419 . S
C7391 H7395 0.930 . S
C7392 C7391 1.369 . S
C7392 C7401 1.429 . S
C7393 C7391 1.419 . S
C7393 C7394 1.363 . S
C7393 H7396 0.929 . S
C7394 C7393 1.363 . S
C7394 C7400 1.428 . S
H7395 C7391 0.930 . S
H7396 C7393 0.929 . S
S7397 N7398 1.613 . S
S7397 N7399 1.610 . S
N7398 S7397 1.613 . S
N7398 C7401 1.350 . S
N7399 S7397 1.610 . S
N7399 C7400 1.351 . S
C7400 C7394 1.428 . S
C7400 N7399 1.351 . S
C7400 C7401 1.434 . S
C7401 C7392 1.429 . S
C7401 N7398 1.350 . S
C7401 C7400 1.434 . S
C7402 C7403 1.369 . S
C7402 C7404 1.419 . S
C7402 H7406 0.930 . S
C7403 C7402 1.369 . S
C7403 C7412 1.429 . S
C7404 C7402 1.419 . S
C7404 C7405 1.363 . S
C7404 H7407 0.929 . S
C7405 C7404 1.363 . S
C7405 C7411 1.428 . S
H7406 C7402 0.930 . S
H7407 C7404 0.929 . S
S7408 N7409 1.613 . S
S7408 N7410 1.610 . S
N7409 S7408 1.613 . S
N7409 C7412 1.350 . S
N7410 S7408 1.610 . S
N7410 C7411 1.351 . S
C7411 C7405 1.428 . S
C7411 N7410 1.351 . S
C7411 C7412 1.434 . S
C7412 C7403 1.429 . S
C7412 N7409 1.350 . S
C7412 C7411 1.434 . S
C7413 C7414 1.369 . S
C7413 C7415 1.419 . S
C7413 H7417 0.930 . S
C7414 C7413 1.369 . S
C7414 C7423 1.429 . S
C7415 C7413 1.419 . S
C7415 C7416 1.363 . S
C7415 H7418 0.929 . S
C7416 C7415 1.363 . S
C7416 C7422 1.428 . S
H7417 C7413 0.930 . S
H7418 C7415 0.929 . S
S7419 N7420 1.613 . S
S7419 N7421 1.610 . S
N7420 S7419 1.613 . S
N7420 C7423 1.350 . S
N7421 S7419 1.610 . S
N7421 C7422 1.351 . S
C7422 C7416 1.428 . S
C7422 N7421 1.351 . S
C7422 C7423 1.434 . S
C7423 C7414 1.429 . S
C7423 N7420 1.350 . S
C7423 C7422 1.434 . S
C7424 C7425 1.369 . S
C7424 C7426 1.419 . S
C7424 H7428 0.930 . S
C7425 C7424 1.369 . S
C7425 C7434 1.429 . S
C7426 C7424 1.419 . S
C7426 C7427 1.363 . S
C7426 H7429 0.929 . S
C7427 C7426 1.363 . S
C7427 C7433 1.428 . S
H7428 C7424 0.930 . S
H7429 C7426 0.929 . S
S7430 N7431 1.613 . S
S7430 N7432 1.610 . S
N7431 S7430 1.613 . S
N7431 C7434 1.350 . S
N7432 S7430 1.610 . S
N7432 C7433 1.351 . S
C7433 C7427 1.428 . S
C7433 N7432 1.351 . S
C7433 C7434 1.434 . S
C7434 C7425 1.429 . S
C7434 N7431 1.350 . S
C7434 C7433 1.434 . S
C7435 C7436 1.369 . S
C7435 C7437 1.419 . S
C7435 H7439 0.930 . S
C7436 C7435 1.369 . S
C7436 C7445 1.429 . S
C7437 C7435 1.419 . S
C7437 C7438 1.363 . S
C7437 H7440 0.929 . S
C7438 C7437 1.363 . S
C7438 C7444 1.428 . S
H7439 C7435 0.930 . S
H7440 C7437 0.929 . S
S7441 N7442 1.613 . S
S7441 N7443 1.610 . S
N7442 S7441 1.613 . S
N7442 C7445 1.350 . S
N7443 S7441 1.610 . S
N7443 C7444 1.351 . S
C7444 C7438 1.428 . S
C7444 N7443 1.351 . S
C7444 C7445 1.434 . S
C7445 C7436 1.429 . S
C7445 N7442 1.350 . S
C7445 C7444 1.434 . S
C7446 C7447 1.369 . S
C7446 C7448 1.419 . S
C7446 H7450 0.930 . S
C7447 C7446 1.369 . S
C7447 C7456 1.429 . S
C7448 C7446 1.419 . S
C7448 C7449 1.363 . S
C7448 H7451 0.929 . S
C7449 C7448 1.363 . S
C7449 C7455 1.428 . S
H7450 C7446 0.930 . S
H7451 C7448 0.929 . S
S7452 N7453 1.613 . S
S7452 N7454 1.610 . S
N7453 S7452 1.613 . S
N7453 C7456 1.350 . S
N7454 S7452 1.610 . S
N7454 C7455 1.351 . S
C7455 C7449 1.428 . S
C7455 N7454 1.351 . S
C7455 C7456 1.434 . S
C7456 C7447 1.429 . S
C7456 N7453 1.350 . S
C7456 C7455 1.434 . S
C7457 C7458 1.369 . S
C7457 C7459 1.419 . S
C7457 H7461 0.930 . S
C7458 C7457 1.369 . S
C7458 C7467 1.429 . S
C7459 C7457 1.419 . S
C7459 C7460 1.363 . S
C7459 H7462 0.929 . S
C7460 C7459 1.363 . S
C7460 C7466 1.428 . S
H7461 C7457 0.930 . S
H7462 C7459 0.929 . S
S7463 N7464 1.613 . S
S7463 N7465 1.610 . S
N7464 S7463 1.613 . S
N7464 C7467 1.350 . S
N7465 S7463 1.610 . S
N7465 C7466 1.351 . S
C7466 C7460 1.428 . S
C7466 N7465 1.351 . S
C7466 C7467 1.434 . S
C7467 C7458 1.429 . S
C7467 N7464 1.350 . S
C7467 C7466 1.434 . S
C7468 C7469 1.369 . S
C7468 C7470 1.419 . S
C7468 H7472 0.930 . S
C7469 C7468 1.369 . S
C7469 C7478 1.429 . S
C7470 C7468 1.419 . S
C7470 C7471 1.363 . S
C7470 H7473 0.929 . S
C7471 C7470 1.363 . S
C7471 C7477 1.428 . S
H7472 C7468 0.930 . S
H7473 C7470 0.929 . S
S7474 N7475 1.613 . S
S7474 N7476 1.610 . S
N7475 S7474 1.613 . S
N7475 C7478 1.350 . S
N7476 S7474 1.610 . S
N7476 C7477 1.351 . S
C7477 C7471 1.428 . S
C7477 N7476 1.351 . S
C7477 C7478 1.434 . S
C7478 C7469 1.429 . S
C7478 N7475 1.350 . S
C7478 C7477 1.434 . S
C7479 C7480 1.369 . S
C7479 C7481 1.419 . S
C7479 H7483 0.930 . S
C7480 C7479 1.369 . S
C7480 C7489 1.429 . S
C7481 C7479 1.419 . S
C7481 C7482 1.363 . S
C7481 H7484 0.929 . S
C7482 C7481 1.363 . S
C7482 C7488 1.428 . S
H7483 C7479 0.930 . S
H7484 C7481 0.929 . S
S7485 N7486 1.613 . S
S7485 N7487 1.610 . S
N7486 S7485 1.613 . S
N7486 C7489 1.350 . S
N7487 S7485 1.610 . S
N7487 C7488 1.351 . S
C7488 C7482 1.428 . S
C7488 N7487 1.351 . S
C7488 C7489 1.434 . S
C7489 C7480 1.429 . S
C7489 N7486 1.350 . S
C7489 C7488 1.434 . S
C7490 C7491 1.369 . S
C7490 C7492 1.419 . S
C7490 H7494 0.930 . S
C7491 C7490 1.369 . S
C7491 C7500 1.429 . S
C7492 C7490 1.419 . S
C7492 C7493 1.363 . S
C7492 H7495 0.929 . S
C7493 C7492 1.363 . S
C7493 C7499 1.428 . S
H7494 C7490 0.930 . S
H7495 C7492 0.929 . S
S7496 N7497 1.613 . S
S7496 N7498 1.610 . S
N7497 S7496 1.613 . S
N7497 C7500 1.350 . S
N7498 S7496 1.610 . S
N7498 C7499 1.351 . S
C7499 C7493 1.428 . S
C7499 N7498 1.351 . S
C7499 C7500 1.434 . S
C7500 C7491 1.429 . S
C7500 N7497 1.350 . S
C7500 C7499 1.434 . S
C7501 C7502 1.369 . S
C7501 C7503 1.419 . S
C7501 H7505 0.930 . S
C7502 C7501 1.369 . S
C7502 C7511 1.429 . S
C7503 C7501 1.419 . S
C7503 C7504 1.363 . S
C7503 H7506 0.929 . S
C7504 C7503 1.363 . S
C7504 C7510 1.428 . S
H7505 C7501 0.930 . S
H7506 C7503 0.929 . S
S7507 N7508 1.613 . S
S7507 N7509 1.610 . S
N7508 S7507 1.613 . S
N7508 C7511 1.350 . S
N7509 S7507 1.610 . S
N7509 C7510 1.351 . S
C7510 C7504 1.428 . S
C7510 N7509 1.351 . S
C7510 C7511 1.434 . S
C7511 C7502 1.429 . S
C7511 N7508 1.350 . S
C7511 C7510 1.434 . S
C7512 C7513 1.369 . S
C7512 C7514 1.419 . S
C7512 H7516 0.930 . S
C7513 C7512 1.369 . S
C7513 C7522 1.429 . S
C7514 C7512 1.419 . S
C7514 C7515 1.363 . S
C7514 H7517 0.929 . S
C7515 C7514 1.363 . S
C7515 C7521 1.428 . S
H7516 C7512 0.930 . S
H7517 C7514 0.929 . S
S7518 N7519 1.613 . S
S7518 N7520 1.610 . S
N7519 S7518 1.613 . S
N7519 C7522 1.350 . S
N7520 S7518 1.610 . S
N7520 C7521 1.351 . S
C7521 C7515 1.428 . S
C7521 N7520 1.351 . S
C7521 C7522 1.434 . S
C7522 C7513 1.429 . S
C7522 N7519 1.350 . S
C7522 C7521 1.434 . S
C7523 C7524 1.369 . S
C7523 C7525 1.419 . S
C7523 H7527 0.930 . S
C7524 C7523 1.369 . S
C7524 C7533 1.429 . S
C7525 C7523 1.419 . S
C7525 C7526 1.363 . S
C7525 H7528 0.929 . S
C7526 C7525 1.363 . S
C7526 C7532 1.428 . S
H7527 C7523 0.930 . S
H7528 C7525 0.929 . S
S7529 N7530 1.613 . S
S7529 N7531 1.610 . S
N7530 S7529 1.613 . S
N7530 C7533 1.350 . S
N7531 S7529 1.610 . S
N7531 C7532 1.351 . S
C7532 C7526 1.428 . S
C7532 N7531 1.351 . S
C7532 C7533 1.434 . S
C7533 C7524 1.429 . S
C7533 N7530 1.350 . S
C7533 C7532 1.434 . S
C7534 C7535 1.369 . S
C7534 C7536 1.419 . S
C7534 H7538 0.930 . S
C7535 C7534 1.369 . S
C7535 C7544 1.429 . S
C7536 C7534 1.419 . S
C7536 C7537 1.363 . S
C7536 H7539 0.929 . S
C7537 C7536 1.363 . S
C7537 C7543 1.428 . S
H7538 C7534 0.930 . S
H7539 C7536 0.929 . S
S7540 N7541 1.613 . S
S7540 N7542 1.610 . S
N7541 S7540 1.613 . S
N7541 C7544 1.350 . S
N7542 S7540 1.610 . S
N7542 C7543 1.351 . S
C7543 C7537 1.428 . S
C7543 N7542 1.351 . S
C7543 C7544 1.434 . S
C7544 C7535 1.429 . S
C7544 N7541 1.350 . S
C7544 C7543 1.434 . S
C7545 C7546 1.369 . S
C7545 C7547 1.419 . S
C7545 H7549 0.930 . S
C7546 C7545 1.369 . S
C7546 C7555 1.429 . S
C7547 C7545 1.419 . S
C7547 C7548 1.363 . S
C7547 H7550 0.929 . S
C7548 C7547 1.363 . S
C7548 C7554 1.428 . S
H7549 C7545 0.930 . S
H7550 C7547 0.929 . S
S7551 N7552 1.613 . S
S7551 N7553 1.610 . S
N7552 S7551 1.613 . S
N7552 C7555 1.350 . S
N7553 S7551 1.610 . S
N7553 C7554 1.351 . S
C7554 C7548 1.428 . S
C7554 N7553 1.351 . S
C7554 C7555 1.434 . S
C7555 C7546 1.429 . S
C7555 N7552 1.350 . S
C7555 C7554 1.434 . S
C7556 C7557 1.369 . S
C7556 C7558 1.419 . S
C7556 H7560 0.930 . S
C7557 C7556 1.369 . S
C7557 C7566 1.429 . S
C7558 C7556 1.419 . S
C7558 C7559 1.363 . S
C7558 H7561 0.929 . S
C7559 C7558 1.363 . S
C7559 C7565 1.428 . S
H7560 C7556 0.930 . S
H7561 C7558 0.929 . S
S7562 N7563 1.613 . S
S7562 N7564 1.610 . S
N7563 S7562 1.613 . S
N7563 C7566 1.350 . S
N7564 S7562 1.610 . S
N7564 C7565 1.351 . S
C7565 C7559 1.428 . S
C7565 N7564 1.351 . S
C7565 C7566 1.434 . S
C7566 C7557 1.429 . S
C7566 N7563 1.350 . S
C7566 C7565 1.434 . S
C7567 C7568 1.369 . S
C7567 C7569 1.419 . S
C7567 H7571 0.930 . S
C7568 C7567 1.369 . S
C7568 C7577 1.429 . S
C7569 C7567 1.419 . S
C7569 C7570 1.363 . S
C7569 H7572 0.929 . S
C7570 C7569 1.363 . S
C7570 C7576 1.428 . S
H7571 C7567 0.930 . S
H7572 C7569 0.929 . S
S7573 N7574 1.613 . S
S7573 N7575 1.610 . S
N7574 S7573 1.613 . S
N7574 C7577 1.350 . S
N7575 S7573 1.610 . S
N7575 C7576 1.351 . S
C7576 C7570 1.428 . S
C7576 N7575 1.351 . S
C7576 C7577 1.434 . S
C7577 C7568 1.429 . S
C7577 N7574 1.350 . S
C7577 C7576 1.434 . S
C7578 C7579 1.369 . S
C7578 C7580 1.419 . S
C7578 H7582 0.930 . S
C7579 C7578 1.369 . S
C7579 C7588 1.429 . S
C7580 C7578 1.419 . S
C7580 C7581 1.363 . S
C7580 H7583 0.929 . S
C7581 C7580 1.363 . S
C7581 C7587 1.428 . S
H7582 C7578 0.930 . S
H7583 C7580 0.929 . S
S7584 N7585 1.613 . S
S7584 N7586 1.610 . S
N7585 S7584 1.613 . S
N7585 C7588 1.350 . S
N7586 S7584 1.610 . S
N7586 C7587 1.351 . S
C7587 C7581 1.428 . S
C7587 N7586 1.351 . S
C7587 C7588 1.434 . S
C7588 C7579 1.429 . S
C7588 N7585 1.350 . S
C7588 C7587 1.434 . S
C7589 C7590 1.369 . S
C7589 C7591 1.419 . S
C7589 H7593 0.930 . S
C7590 C7589 1.369 . S
C7590 C7599 1.429 . S
C7591 C7589 1.419 . S
C7591 C7592 1.363 . S
C7591 H7594 0.929 . S
C7592 C7591 1.363 . S
C7592 C7598 1.428 . S
H7593 C7589 0.930 . S
H7594 C7591 0.929 . S
S7595 N7596 1.613 . S
S7595 N7597 1.610 . S
N7596 S7595 1.613 . S
N7596 C7599 1.350 . S
N7597 S7595 1.610 . S
N7597 C7598 1.351 . S
C7598 C7592 1.428 . S
C7598 N7597 1.351 . S
C7598 C7599 1.434 . S
C7599 C7590 1.429 . S
C7599 N7596 1.350 . S
C7599 C7598 1.434 . S
C7600 C7601 1.369 . S
C7600 C7602 1.419 . S
C7600 H7604 0.930 . S
C7601 C7600 1.369 . S
C7601 C7610 1.429 . S
C7602 C7600 1.419 . S
C7602 C7603 1.363 . S
C7602 H7605 0.929 . S
C7603 C7602 1.363 . S
C7603 C7609 1.428 . S
H7604 C7600 0.930 . S
H7605 C7602 0.929 . S
S7606 N7607 1.613 . S
S7606 N7608 1.610 . S
N7607 S7606 1.613 . S
N7607 C7610 1.350 . S
N7608 S7606 1.610 . S
N7608 C7609 1.351 . S
C7609 C7603 1.428 . S
C7609 N7608 1.351 . S
C7609 C7610 1.434 . S
C7610 C7601 1.429 . S
C7610 N7607 1.350 . S
C7610 C7609 1.434 . S
C7611 C7612 1.369 . S
C7611 C7613 1.419 . S
C7611 H7615 0.930 . S
C7612 C7611 1.369 . S
C7612 C7621 1.429 . S
C7613 C7611 1.419 . S
C7613 C7614 1.363 . S
C7613 H7616 0.929 . S
C7614 C7613 1.363 . S
C7614 C7620 1.428 . S
H7615 C7611 0.930 . S
H7616 C7613 0.929 . S
S7617 N7618 1.613 . S
S7617 N7619 1.610 . S
N7618 S7617 1.613 . S
N7618 C7621 1.350 . S
N7619 S7617 1.610 . S
N7619 C7620 1.351 . S
C7620 C7614 1.428 . S
C7620 N7619 1.351 . S
C7620 C7621 1.434 . S
C7621 C7612 1.429 . S
C7621 N7618 1.350 . S
C7621 C7620 1.434 . S
C7622 C7623 1.369 . S
C7622 C7624 1.419 . S
C7622 H7626 0.930 . S
C7623 C7622 1.369 . S
C7623 C7632 1.429 . S
C7624 C7622 1.419 . S
C7624 C7625 1.363 . S
C7624 H7627 0.929 . S
C7625 C7624 1.363 . S
C7625 C7631 1.428 . S
H7626 C7622 0.930 . S
H7627 C7624 0.929 . S
S7628 N7629 1.613 . S
S7628 N7630 1.610 . S
N7629 S7628 1.613 . S
N7629 C7632 1.350 . S
N7630 S7628 1.610 . S
N7630 C7631 1.351 . S
C7631 C7625 1.428 . S
C7631 N7630 1.351 . S
C7631 C7632 1.434 . S
C7632 C7623 1.429 . S
C7632 N7629 1.350 . S
C7632 C7631 1.434 . S
C7633 C7634 1.369 . S
C7633 C7635 1.419 . S
C7633 H7637 0.930 . S
C7634 C7633 1.369 . S
C7634 C7643 1.429 . S
C7635 C7633 1.419 . S
C7635 C7636 1.363 . S
C7635 H7638 0.929 . S
C7636 C7635 1.363 . S
C7636 C7642 1.428 . S
H7637 C7633 0.930 . S
H7638 C7635 0.929 . S
S7639 N7640 1.613 . S
S7639 N7641 1.610 . S
N7640 S7639 1.613 . S
N7640 C7643 1.350 . S
N7641 S7639 1.610 . S
N7641 C7642 1.351 . S
C7642 C7636 1.428 . S
C7642 N7641 1.351 . S
C7642 C7643 1.434 . S
C7643 C7634 1.429 . S
C7643 N7640 1.350 . S
C7643 C7642 1.434 . S
C7644 C7645 1.369 . S
C7644 C7646 1.419 . S
C7644 H7648 0.930 . S
C7645 C7644 1.369 . S
C7645 C7654 1.429 . S
C7646 C7644 1.419 . S
C7646 C7647 1.363 . S
C7646 H7649 0.929 . S
C7647 C7646 1.363 . S
C7647 C7653 1.428 . S
H7648 C7644 0.930 . S
H7649 C7646 0.929 . S
S7650 N7651 1.613 . S
S7650 N7652 1.610 . S
N7651 S7650 1.613 . S
N7651 C7654 1.350 . S
N7652 S7650 1.610 . S
N7652 C7653 1.351 . S
C7653 C7647 1.428 . S
C7653 N7652 1.351 . S
C7653 C7654 1.434 . S
C7654 C7645 1.429 . S
C7654 N7651 1.350 . S
C7654 C7653 1.434 . S
C7655 C7656 1.369 . S
C7655 C7657 1.419 . S
C7655 H7659 0.930 . S
C7656 C7655 1.369 . S
C7656 C7665 1.429 . S
C7657 C7655 1.419 . S
C7657 C7658 1.363 . S
C7657 H7660 0.929 . S
C7658 C7657 1.363 . S
C7658 C7664 1.428 . S
H7659 C7655 0.930 . S
H7660 C7657 0.929 . S
S7661 N7662 1.613 . S
S7661 N7663 1.610 . S
N7662 S7661 1.613 . S
N7662 C7665 1.350 . S
N7663 S7661 1.610 . S
N7663 C7664 1.351 . S
C7664 C7658 1.428 . S
C7664 N7663 1.351 . S
C7664 C7665 1.434 . S
C7665 C7656 1.429 . S
C7665 N7662 1.350 . S
C7665 C7664 1.434 . S
C7666 C7667 1.369 . S
C7666 C7668 1.419 . S
C7666 H7670 0.930 . S
C7667 C7666 1.369 . S
C7667 C7676 1.429 . S
C7668 C7666 1.419 . S
C7668 C7669 1.363 . S
C7668 H7671 0.929 . S
C7669 C7668 1.363 . S
C7669 C7675 1.428 . S
H7670 C7666 0.930 . S
H7671 C7668 0.929 . S
S7672 N7673 1.613 . S
S7672 N7674 1.610 . S
N7673 S7672 1.613 . S
N7673 C7676 1.350 . S
N7674 S7672 1.610 . S
N7674 C7675 1.351 . S
C7675 C7669 1.428 . S
C7675 N7674 1.351 . S
C7675 C7676 1.434 . S
C7676 C7667 1.429 . S
C7676 N7673 1.350 . S
C7676 C7675 1.434 . S
C7677 C7678 1.369 . S
C7677 C7679 1.419 . S
C7677 H7681 0.930 . S
C7678 C7677 1.369 . S
C7678 C7687 1.429 . S
C7679 C7677 1.419 . S
C7679 C7680 1.363 . S
C7679 H7682 0.929 . S
C7680 C7679 1.363 . S
C7680 C7686 1.428 . S
H7681 C7677 0.930 . S
H7682 C7679 0.929 . S
S7683 N7684 1.613 . S
S7683 N7685 1.610 . S
N7684 S7683 1.613 . S
N7684 C7687 1.350 . S
N7685 S7683 1.610 . S
N7685 C7686 1.351 . S
C7686 C7680 1.428 . S
C7686 N7685 1.351 . S
C7686 C7687 1.434 . S
C7687 C7678 1.429 . S
C7687 N7684 1.350 . S
C7687 C7686 1.434 . S
C7688 C7689 1.369 . S
C7688 C7690 1.419 . S
C7688 H7692 0.930 . S
C7689 C7688 1.369 . S
C7689 C7698 1.429 . S
C7690 C7688 1.419 . S
C7690 C7691 1.363 . S
C7690 H7693 0.929 . S
C7691 C7690 1.363 . S
C7691 C7697 1.428 . S
H7692 C7688 0.930 . S
H7693 C7690 0.929 . S
S7694 N7695 1.613 . S
S7694 N7696 1.610 . S
N7695 S7694 1.613 . S
N7695 C7698 1.350 . S
N7696 S7694 1.610 . S
N7696 C7697 1.351 . S
C7697 C7691 1.428 . S
C7697 N7696 1.351 . S
C7697 C7698 1.434 . S
C7698 C7689 1.429 . S
C7698 N7695 1.350 . S
C7698 C7697 1.434 . S
C7699 C7700 1.369 . S
C7699 C7701 1.419 . S
C7699 H7703 0.930 . S
C7700 C7699 1.369 . S
C7700 C7709 1.429 . S
C7701 C7699 1.419 . S
C7701 C7702 1.363 . S
C7701 H7704 0.929 . S
C7702 C7701 1.363 . S
C7702 C7708 1.428 . S
H7703 C7699 0.930 . S
H7704 C7701 0.929 . S
S7705 N7706 1.613 . S
S7705 N7707 1.610 . S
N7706 S7705 1.613 . S
N7706 C7709 1.350 . S
N7707 S7705 1.610 . S
N7707 C7708 1.351 . S
C7708 C7702 1.428 . S
C7708 N7707 1.351 . S
C7708 C7709 1.434 . S
C7709 C7700 1.429 . S
C7709 N7706 1.350 . S
C7709 C7708 1.434 . S
C7710 C7711 1.369 . S
C7710 C7712 1.419 . S
C7710 H7714 0.930 . S
C7711 C7710 1.369 . S
C7711 C7720 1.429 . S
C7712 C7710 1.419 . S
C7712 C7713 1.363 . S
C7712 H7715 0.929 . S
C7713 C7712 1.363 . S
C7713 C7719 1.428 . S
H7714 C7710 0.930 . S
H7715 C7712 0.929 . S
S7716 N7717 1.613 . S
S7716 N7718 1.610 . S
N7717 S7716 1.613 . S
N7717 C7720 1.350 . S
N7718 S7716 1.610 . S
N7718 C7719 1.351 . S
C7719 C7713 1.428 . S
C7719 N7718 1.351 . S
C7719 C7720 1.434 . S
C7720 C7711 1.429 . S
C7720 N7717 1.350 . S
C7720 C7719 1.434 . S
C7721 C7722 1.369 . S
C7721 C7723 1.419 . S
C7721 H7725 0.930 . S
C7722 C7721 1.369 . S
C7722 C7731 1.429 . S
C7723 C7721 1.419 . S
C7723 C7724 1.363 . S
C7723 H7726 0.929 . S
C7724 C7723 1.363 . S
C7724 C7730 1.428 . S
H7725 C7721 0.930 . S
H7726 C7723 0.929 . S
S7727 N7728 1.613 . S
S7727 N7729 1.610 . S
N7728 S7727 1.613 . S
N7728 C7731 1.350 . S
N7729 S7727 1.610 . S
N7729 C7730 1.351 . S
C7730 C7724 1.428 . S
C7730 N7729 1.351 . S
C7730 C7731 1.434 . S
C7731 C7722 1.429 . S
C7731 N7728 1.350 . S
C7731 C7730 1.434 . S
C7732 C7733 1.369 . S
C7732 C7734 1.419 . S
C7732 H7736 0.930 . S
C7733 C7732 1.369 . S
C7733 C7742 1.429 . S
C7734 C7732 1.419 . S
C7734 C7735 1.363 . S
C7734 H7737 0.929 . S
C7735 C7734 1.363 . S
C7735 C7741 1.428 . S
H7736 C7732 0.930 . S
H7737 C7734 0.929 . S
S7738 N7739 1.613 . S
S7738 N7740 1.610 . S
N7739 S7738 1.613 . S
N7739 C7742 1.350 . S
N7740 S7738 1.610 . S
N7740 C7741 1.351 . S
C7741 C7735 1.428 . S
C7741 N7740 1.351 . S
C7741 C7742 1.434 . S
C7742 C7733 1.429 . S
C7742 N7739 1.350 . S
C7742 C7741 1.434 . S
C7743 C7744 1.369 . S
C7743 C7745 1.419 . S
C7743 H7747 0.930 . S
C7744 C7743 1.369 . S
C7744 C7753 1.429 . S
C7745 C7743 1.419 . S
C7745 C7746 1.363 . S
C7745 H7748 0.929 . S
C7746 C7745 1.363 . S
C7746 C7752 1.428 . S
H7747 C7743 0.930 . S
H7748 C7745 0.929 . S
S7749 N7750 1.613 . S
S7749 N7751 1.610 . S
N7750 S7749 1.613 . S
N7750 C7753 1.350 . S
N7751 S7749 1.610 . S
N7751 C7752 1.351 . S
C7752 C7746 1.428 . S
C7752 N7751 1.351 . S
C7752 C7753 1.434 . S
C7753 C7744 1.429 . S
C7753 N7750 1.350 . S
C7753 C7752 1.434 . S
C7754 C7755 1.369 . S
C7754 C7756 1.419 . S
C7754 H7758 0.930 . S
C7755 C7754 1.369 . S
C7755 C7764 1.429 . S
C7756 C7754 1.419 . S
C7756 C7757 1.363 . S
C7756 H7759 0.929 . S
C7757 C7756 1.363 . S
C7757 C7763 1.428 . S
H7758 C7754 0.930 . S
H7759 C7756 0.929 . S
S7760 N7761 1.613 . S
S7760 N7762 1.610 . S
N7761 S7760 1.613 . S
N7761 C7764 1.350 . S
N7762 S7760 1.610 . S
N7762 C7763 1.351 . S
C7763 C7757 1.428 . S
C7763 N7762 1.351 . S
C7763 C7764 1.434 . S
C7764 C7755 1.429 . S
C7764 N7761 1.350 . S
C7764 C7763 1.434 . S
C7765 C7766 1.369 . S
C7765 C7767 1.419 . S
C7765 H7769 0.930 . S
C7766 C7765 1.369 . S
C7766 C7775 1.429 . S
C7767 C7765 1.419 . S
C7767 C7768 1.363 . S
C7767 H7770 0.929 . S
C7768 C7767 1.363 . S
C7768 C7774 1.428 . S
H7769 C7765 0.930 . S
H7770 C7767 0.929 . S
S7771 N7772 1.613 . S
S7771 N7773 1.610 . S
N7772 S7771 1.613 . S
N7772 C7775 1.350 . S
N7773 S7771 1.610 . S
N7773 C7774 1.351 . S
C7774 C7768 1.428 . S
C7774 N7773 1.351 . S
C7774 C7775 1.434 . S
C7775 C7766 1.429 . S
C7775 N7772 1.350 . S
C7775 C7774 1.434 . S
C7776 C7777 1.369 . S
C7776 C7778 1.419 . S
C7776 H7780 0.930 . S
C7777 C7776 1.369 . S
C7777 C7786 1.429 . S
C7778 C7776 1.419 . S
C7778 C7779 1.363 . S
C7778 H7781 0.929 . S
C7779 C7778 1.363 . S
C7779 C7785 1.428 . S
H7780 C7776 0.930 . S
H7781 C7778 0.929 . S
S7782 N7783 1.613 . S
S7782 N7784 1.610 . S
N7783 S7782 1.613 . S
N7783 C7786 1.350 . S
N7784 S7782 1.610 . S
N7784 C7785 1.351 . S
C7785 C7779 1.428 . S
C7785 N7784 1.351 . S
C7785 C7786 1.434 . S
C7786 C7777 1.429 . S
C7786 N7783 1.350 . S
C7786 C7785 1.434 . S
C7787 C7788 1.369 . S
C7787 C7789 1.419 . S
C7787 H7791 0.930 . S
C7788 C7787 1.369 . S
C7788 C7797 1.429 . S
C7789 C7787 1.419 . S
C7789 C7790 1.363 . S
C7789 H7792 0.929 . S
C7790 C7789 1.363 . S
C7790 C7796 1.428 . S
H7791 C7787 0.930 . S
H7792 C7789 0.929 . S
S7793 N7794 1.613 . S
S7793 N7795 1.610 . S
N7794 S7793 1.613 . S
N7794 C7797 1.350 . S
N7795 S7793 1.610 . S
N7795 C7796 1.351 . S
C7796 C7790 1.428 . S
C7796 N7795 1.351 . S
C7796 C7797 1.434 . S
C7797 C7788 1.429 . S
C7797 N7794 1.350 . S
C7797 C7796 1.434 . S
C7798 C7799 1.369 . S
C7798 C7800 1.419 . S
C7798 H7802 0.930 . S
C7799 C7798 1.369 . S
C7799 C7808 1.429 . S
C7800 C7798 1.419 . S
C7800 C7801 1.363 . S
C7800 H7803 0.929 . S
C7801 C7800 1.363 . S
C7801 C7807 1.428 . S
H7802 C7798 0.930 . S
H7803 C7800 0.929 . S
S7804 N7805 1.613 . S
S7804 N7806 1.610 . S
N7805 S7804 1.613 . S
N7805 C7808 1.350 . S
N7806 S7804 1.610 . S
N7806 C7807 1.351 . S
C7807 C7801 1.428 . S
C7807 N7806 1.351 . S
C7807 C7808 1.434 . S
C7808 C7799 1.429 . S
C7808 N7805 1.350 . S
C7808 C7807 1.434 . S
C7809 C7810 1.369 . S
C7809 C7811 1.419 . S
C7809 H7813 0.930 . S
C7810 C7809 1.369 . S
C7810 C7819 1.429 . S
C7811 C7809 1.419 . S
C7811 C7812 1.363 . S
C7811 H7814 0.929 . S
C7812 C7811 1.363 . S
C7812 C7818 1.428 . S
H7813 C7809 0.930 . S
H7814 C7811 0.929 . S
S7815 N7816 1.613 . S
S7815 N7817 1.610 . S
N7816 S7815 1.613 . S
N7816 C7819 1.350 . S
N7817 S7815 1.610 . S
N7817 C7818 1.351 . S
C7818 C7812 1.428 . S
C7818 N7817 1.351 . S
C7818 C7819 1.434 . S
C7819 C7810 1.429 . S
C7819 N7816 1.350 . S
C7819 C7818 1.434 . S
C7820 C7821 1.369 . S
C7820 C7822 1.419 . S
C7820 H7824 0.930 . S
C7821 C7820 1.369 . S
C7821 C7830 1.429 . S
C7822 C7820 1.419 . S
C7822 C7823 1.363 . S
C7822 H7825 0.929 . S
C7823 C7822 1.363 . S
C7823 C7829 1.428 . S
H7824 C7820 0.930 . S
H7825 C7822 0.929 . S
S7826 N7827 1.613 . S
S7826 N7828 1.610 . S
N7827 S7826 1.613 . S
N7827 C7830 1.350 . S
N7828 S7826 1.610 . S
N7828 C7829 1.351 . S
C7829 C7823 1.428 . S
C7829 N7828 1.351 . S
C7829 C7830 1.434 . S
C7830 C7821 1.429 . S
C7830 N7827 1.350 . S
C7830 C7829 1.434 . S
C7831 C7832 1.369 . S
C7831 C7833 1.419 . S
C7831 H7835 0.930 . S
C7832 C7831 1.369 . S
C7832 C7841 1.429 . S
C7833 C7831 1.419 . S
C7833 C7834 1.363 . S
C7833 H7836 0.929 . S
C7834 C7833 1.363 . S
C7834 C7840 1.428 . S
H7835 C7831 0.930 . S
H7836 C7833 0.929 . S
S7837 N7838 1.613 . S
S7837 N7839 1.610 . S
N7838 S7837 1.613 . S
N7838 C7841 1.350 . S
N7839 S7837 1.610 . S
N7839 C7840 1.351 . S
C7840 C7834 1.428 . S
C7840 N7839 1.351 . S
C7840 C7841 1.434 . S
C7841 C7832 1.429 . S
C7841 N7838 1.350 . S
C7841 C7840 1.434 . S
C7842 C7843 1.369 . S
C7842 C7844 1.419 . S
C7842 H7846 0.930 . S
C7843 C7842 1.369 . S
C7843 C7852 1.429 . S
C7844 C7842 1.419 . S
C7844 C7845 1.363 . S
C7844 H7847 0.929 . S
C7845 C7844 1.363 . S
C7845 C7851 1.428 . S
H7846 C7842 0.930 . S
H7847 C7844 0.929 . S
S7848 N7849 1.613 . S
S7848 N7850 1.610 . S
N7849 S7848 1.613 . S
N7849 C7852 1.350 . S
N7850 S7848 1.610 . S
N7850 C7851 1.351 . S
C7851 C7845 1.428 . S
C7851 N7850 1.351 . S
C7851 C7852 1.434 . S
C7852 C7843 1.429 . S
C7852 N7849 1.350 . S
C7852 C7851 1.434 . S
C7853 C7854 1.369 . S
C7853 C7855 1.419 . S
C7853 H7857 0.930 . S
C7854 C7853 1.369 . S
C7854 C7863 1.429 . S
C7855 C7853 1.419 . S
C7855 C7856 1.363 . S
C7855 H7858 0.929 . S
C7856 C7855 1.363 . S
C7856 C7862 1.428 . S
H7857 C7853 0.930 . S
H7858 C7855 0.929 . S
S7859 N7860 1.613 . S
S7859 N7861 1.610 . S
N7860 S7859 1.613 . S
N7860 C7863 1.350 . S
N7861 S7859 1.610 . S
N7861 C7862 1.351 . S
C7862 C7856 1.428 . S
C7862 N7861 1.351 . S
C7862 C7863 1.434 . S
C7863 C7854 1.429 . S
C7863 N7860 1.350 . S
C7863 C7862 1.434 . S
C7864 C7865 1.369 . S
C7864 C7866 1.419 . S
C7864 H7868 0.930 . S
C7865 C7864 1.369 . S
C7865 C7874 1.429 . S
C7866 C7864 1.419 . S
C7866 C7867 1.363 . S
C7866 H7869 0.929 . S
C7867 C7866 1.363 . S
C7867 C7873 1.428 . S
H7868 C7864 0.930 . S
H7869 C7866 0.929 . S
S7870 N7871 1.613 . S
S7870 N7872 1.610 . S
N7871 S7870 1.613 . S
N7871 C7874 1.350 . S
N7872 S7870 1.610 . S
N7872 C7873 1.351 . S
C7873 C7867 1.428 . S
C7873 N7872 1.351 . S
C7873 C7874 1.434 . S
C7874 C7865 1.429 . S
C7874 N7871 1.350 . S
C7874 C7873 1.434 . S
C7875 C7876 1.369 . S
C7875 C7877 1.419 . S
C7875 H7879 0.930 . S
C7876 C7875 1.369 . S
C7876 C7885 1.429 . S
C7877 C7875 1.419 . S
C7877 C7878 1.363 . S
C7877 H7880 0.929 . S
C7878 C7877 1.363 . S
C7878 C7884 1.428 . S
H7879 C7875 0.930 . S
H7880 C7877 0.929 . S
S7881 N7882 1.613 . S
S7881 N7883 1.610 . S
N7882 S7881 1.613 . S
N7882 C7885 1.350 . S
N7883 S7881 1.610 . S
N7883 C7884 1.351 . S
C7884 C7878 1.428 . S
C7884 N7883 1.351 . S
C7884 C7885 1.434 . S
C7885 C7876 1.429 . S
C7885 N7882 1.350 . S
C7885 C7884 1.434 . S
C7886 C7887 1.369 . S
C7886 C7888 1.419 . S
C7886 H7890 0.930 . S
C7887 C7886 1.369 . S
C7887 C7896 1.429 . S
C7888 C7886 1.419 . S
C7888 C7889 1.363 . S
C7888 H7891 0.929 . S
C7889 C7888 1.363 . S
C7889 C7895 1.428 . S
H7890 C7886 0.930 . S
H7891 C7888 0.929 . S
S7892 N7893 1.613 . S
S7892 N7894 1.610 . S
N7893 S7892 1.613 . S
N7893 C7896 1.350 . S
N7894 S7892 1.610 . S
N7894 C7895 1.351 . S
C7895 C7889 1.428 . S
C7895 N7894 1.351 . S
C7895 C7896 1.434 . S
C7896 C7887 1.429 . S
C7896 N7893 1.350 . S
C7896 C7895 1.434 . S
C7897 C7898 1.369 . S
C7897 C7899 1.419 . S
C7897 H7901 0.930 . S
C7898 C7897 1.369 . S
C7898 C7907 1.429 . S
C7899 C7897 1.419 . S
C7899 C7900 1.363 . S
C7899 H7902 0.929 . S
C7900 C7899 1.363 . S
C7900 C7906 1.428 . S
H7901 C7897 0.930 . S
H7902 C7899 0.929 . S
S7903 N7904 1.613 . S
S7903 N7905 1.610 . S
N7904 S7903 1.613 . S
N7904 C7907 1.350 . S
N7905 S7903 1.610 . S
N7905 C7906 1.351 . S
C7906 C7900 1.428 . S
C7906 N7905 1.351 . S
C7906 C7907 1.434 . S
C7907 C7898 1.429 . S
C7907 N7904 1.350 . S
C7907 C7906 1.434 . S
C7908 C7909 1.369 . S
C7908 C7910 1.419 . S
C7908 H7912 0.930 . S
C7909 C7908 1.369 . S
C7909 C7918 1.429 . S
C7910 C7908 1.419 . S
C7910 C7911 1.363 . S
C7910 H7913 0.929 . S
C7911 C7910 1.363 . S
C7911 C7917 1.428 . S
H7912 C7908 0.930 . S
H7913 C7910 0.929 . S
S7914 N7915 1.613 . S
S7914 N7916 1.610 . S
N7915 S7914 1.613 . S
N7915 C7918 1.350 . S
N7916 S7914 1.610 . S
N7916 C7917 1.351 . S
C7917 C7911 1.428 . S
C7917 N7916 1.351 . S
C7917 C7918 1.434 . S
C7918 C7909 1.429 . S
C7918 N7915 1.350 . S
C7918 C7917 1.434 . S
C7919 C7920 1.369 . S
C7919 C7921 1.419 . S
C7919 H7923 0.930 . S
C7920 C7919 1.369 . S
C7920 C7929 1.429 . S
C7921 C7919 1.419 . S
C7921 C7922 1.363 . S
C7921 H7924 0.929 . S
C7922 C7921 1.363 . S
C7922 C7928 1.428 . S
H7923 C7919 0.930 . S
H7924 C7921 0.929 . S
S7925 N7926 1.613 . S
S7925 N7927 1.610 . S
N7926 S7925 1.613 . S
N7926 C7929 1.350 . S
N7927 S7925 1.610 . S
N7927 C7928 1.351 . S
C7928 C7922 1.428 . S
C7928 N7927 1.351 . S
C7928 C7929 1.434 . S
C7929 C7920 1.429 . S
C7929 N7926 1.350 . S
C7929 C7928 1.434 . S
C7930 C7931 1.369 . S
C7930 C7932 1.419 . S
C7930 H7934 0.930 . S
C7931 C7930 1.369 . S
C7931 C7940 1.429 . S
C7932 C7930 1.419 . S
C7932 C7933 1.363 . S
C7932 H7935 0.929 . S
C7933 C7932 1.363 . S
C7933 C7939 1.428 . S
H7934 C7930 0.930 . S
H7935 C7932 0.929 . S
S7936 N7937 1.613 . S
S7936 N7938 1.610 . S
N7937 S7936 1.613 . S
N7937 C7940 1.350 . S
N7938 S7936 1.610 . S
N7938 C7939 1.351 . S
C7939 C7933 1.428 . S
C7939 N7938 1.351 . S
C7939 C7940 1.434 . S
C7940 C7931 1.429 . S
C7940 N7937 1.350 . S
C7940 C7939 1.434 . S
C7941 C7942 1.369 . S
C7941 C7943 1.419 . S
C7941 H7945 0.930 . S
C7942 C7941 1.369 . S
C7942 C7951 1.429 . S
C7943 C7941 1.419 . S
C7943 C7944 1.363 . S
C7943 H7946 0.929 . S
C7944 C7943 1.363 . S
C7944 C7950 1.428 . S
H7945 C7941 0.930 . S
H7946 C7943 0.929 . S
S7947 N7948 1.613 . S
S7947 N7949 1.610 . S
N7948 S7947 1.613 . S
N7948 C7951 1.350 . S
N7949 S7947 1.610 . S
N7949 C7950 1.351 . S
C7950 C7944 1.428 . S
C7950 N7949 1.351 . S
C7950 C7951 1.434 . S
C7951 C7942 1.429 . S
C7951 N7948 1.350 . S
C7951 C7950 1.434 . S
C7952 C7953 1.369 . S
C7952 C7954 1.419 . S
C7952 H7956 0.930 . S
C7953 C7952 1.369 . S
C7953 C7962 1.429 . S
C7954 C7952 1.419 . S
C7954 C7955 1.363 . S
C7954 H7957 0.929 . S
C7955 C7954 1.363 . S
C7955 C7961 1.428 . S
H7956 C7952 0.930 . S
H7957 C7954 0.929 . S
S7958 N7959 1.613 . S
S7958 N7960 1.610 . S
N7959 S7958 1.613 . S
N7959 C7962 1.350 . S
N7960 S7958 1.610 . S
N7960 C7961 1.351 . S
C7961 C7955 1.428 . S
C7961 N7960 1.351 . S
C7961 C7962 1.434 . S
C7962 C7953 1.429 . S
C7962 N7959 1.350 . S
C7962 C7961 1.434 . S
C7963 C7964 1.369 . S
C7963 C7965 1.419 . S
C7963 H7967 0.930 . S
C7964 C7963 1.369 . S
C7964 C7973 1.429 . S
C7965 C7963 1.419 . S
C7965 C7966 1.363 . S
C7965 H7968 0.929 . S
C7966 C7965 1.363 . S
C7966 C7972 1.428 . S
H7967 C7963 0.930 . S
H7968 C7965 0.929 . S
S7969 N7970 1.613 . S
S7969 N7971 1.610 . S
N7970 S7969 1.613 . S
N7970 C7973 1.350 . S
N7971 S7969 1.610 . S
N7971 C7972 1.351 . S
C7972 C7966 1.428 . S
C7972 N7971 1.351 . S
C7972 C7973 1.434 . S
C7973 C7964 1.429 . S
C7973 N7970 1.350 . S
C7973 C7972 1.434 . S
C7974 C7975 1.369 . S
C7974 C7976 1.419 . S
C7974 H7978 0.930 . S
C7975 C7974 1.369 . S
C7975 C7984 1.429 . S
C7976 C7974 1.419 . S
C7976 C7977 1.363 . S
C7976 H7979 0.929 . S
C7977 C7976 1.363 . S
C7977 C7983 1.428 . S
H7978 C7974 0.930 . S
H7979 C7976 0.929 . S
S7980 N7981 1.613 . S
S7980 N7982 1.610 . S
N7981 S7980 1.613 . S
N7981 C7984 1.350 . S
N7982 S7980 1.610 . S
N7982 C7983 1.351 . S
C7983 C7977 1.428 . S
C7983 N7982 1.351 . S
C7983 C7984 1.434 . S
C7984 C7975 1.429 . S
C7984 N7981 1.350 . S
C7984 C7983 1.434 . S
C7985 C7986 1.369 . S
C7985 C7987 1.419 . S
C7985 H7989 0.930 . S
C7986 C7985 1.369 . S
C7986 C7995 1.429 . S
C7987 C7985 1.419 . S
C7987 C7988 1.363 . S
C7987 H7990 0.929 . S
C7988 C7987 1.363 . S
C7988 C7994 1.428 . S
H7989 C7985 0.930 . S
H7990 C7987 0.929 . S
S7991 N7992 1.613 . S
S7991 N7993 1.610 . S
N7992 S7991 1.613 . S
N7992 C7995 1.350 . S
N7993 S7991 1.610 . S
N7993 C7994 1.351 . S
C7994 C7988 1.428 . S
C7994 N7993 1.351 . S
C7994 C7995 1.434 . S
C7995 C7986 1.429 . S
C7995 N7992 1.350 . S
C7995 C7994 1.434 . S
C7996 C7997 1.369 . S
C7996 C7998 1.419 . S
C7996 H8000 0.930 . S
C7997 C7996 1.369 . S
C7997 C8006 1.429 . S
C7998 C7996 1.419 . S
C7998 C7999 1.363 . S
C7998 H8001 0.929 . S
C7999 C7998 1.363 . S
C7999 C8005 1.428 . S
H8000 C7996 0.930 . S
H8001 C7998 0.929 . S
S8002 N8003 1.613 . S
S8002 N8004 1.610 . S
N8003 S8002 1.613 . S
N8003 C8006 1.350 . S
N8004 S8002 1.610 . S
N8004 C8005 1.351 . S
C8005 C7999 1.428 . S
C8005 N8004 1.351 . S
C8005 C8006 1.434 . S
C8006 C7997 1.429 . S
C8006 N8003 1.350 . S
C8006 C8005 1.434 . S
C8007 C8008 1.369 . S
C8007 C8009 1.419 . S
C8007 H8011 0.930 . S
C8008 C8007 1.369 . S
C8008 C8017 1.429 . S
C8009 C8007 1.419 . S
C8009 C8010 1.363 . S
C8009 H8012 0.929 . S
C8010 C8009 1.363 . S
C8010 C8016 1.428 . S
H8011 C8007 0.930 . S
H8012 C8009 0.929 . S
S8013 N8014 1.613 . S
S8013 N8015 1.610 . S
N8014 S8013 1.613 . S
N8014 C8017 1.350 . S
N8015 S8013 1.610 . S
N8015 C8016 1.351 . S
C8016 C8010 1.428 . S
C8016 N8015 1.351 . S
C8016 C8017 1.434 . S
C8017 C8008 1.429 . S
C8017 N8014 1.350 . S
C8017 C8016 1.434 . S
C8018 C8019 1.369 . S
C8018 C8020 1.419 . S
C8018 H8022 0.930 . S
C8019 C8018 1.369 . S
C8019 C8028 1.429 . S
C8020 C8018 1.419 . S
C8020 C8021 1.363 . S
C8020 H8023 0.929 . S
C8021 C8020 1.363 . S
C8021 C8027 1.428 . S
H8022 C8018 0.930 . S
H8023 C8020 0.929 . S
S8024 N8025 1.613 . S
S8024 N8026 1.610 . S
N8025 S8024 1.613 . S
N8025 C8028 1.350 . S
N8026 S8024 1.610 . S
N8026 C8027 1.351 . S
C8027 C8021 1.428 . S
C8027 N8026 1.351 . S
C8027 C8028 1.434 . S
C8028 C8019 1.429 . S
C8028 N8025 1.350 . S
C8028 C8027 1.434 . S
C8029 C8030 1.369 . S
C8029 C8031 1.419 . S
C8029 H8033 0.930 . S
C8030 C8029 1.369 . S
C8030 C8039 1.429 . S
C8031 C8029 1.419 . S
C8031 C8032 1.363 . S
C8031 H8034 0.929 . S
C8032 C8031 1.363 . S
C8032 C8038 1.428 . S
H8033 C8029 0.930 . S
H8034 C8031 0.929 . S
S8035 N8036 1.613 . S
S8035 N8037 1.610 . S
N8036 S8035 1.613 . S
N8036 C8039 1.350 . S
N8037 S8035 1.610 . S
N8037 C8038 1.351 . S
C8038 C8032 1.428 . S
C8038 N8037 1.351 . S
C8038 C8039 1.434 . S
C8039 C8030 1.429 . S
C8039 N8036 1.350 . S
C8039 C8038 1.434 . S
C8040 C8041 1.369 . S
C8040 C8042 1.419 . S
C8040 H8044 0.930 . S
C8041 C8040 1.369 . S
C8041 C8050 1.429 . S
C8042 C8040 1.419 . S
C8042 C8043 1.363 . S
C8042 H8045 0.929 . S
C8043 C8042 1.363 . S
C8043 C8049 1.428 . S
H8044 C8040 0.930 . S
H8045 C8042 0.929 . S
S8046 N8047 1.613 . S
S8046 N8048 1.610 . S
N8047 S8046 1.613 . S
N8047 C8050 1.350 . S
N8048 S8046 1.610 . S
N8048 C8049 1.351 . S
C8049 C8043 1.428 . S
C8049 N8048 1.351 . S
C8049 C8050 1.434 . S
C8050 C8041 1.429 . S
C8050 N8047 1.350 . S
C8050 C8049 1.434 . S
C8051 C8052 1.369 . S
C8051 C8053 1.419 . S
C8051 H8055 0.930 . S
C8052 C8051 1.369 . S
C8052 C8061 1.429 . S
C8053 C8051 1.419 . S
C8053 C8054 1.363 . S
C8053 H8056 0.929 . S
C8054 C8053 1.363 . S
C8054 C8060 1.428 . S
H8055 C8051 0.930 . S
H8056 C8053 0.929 . S
S8057 N8058 1.613 . S
S8057 N8059 1.610 . S
N8058 S8057 1.613 . S
N8058 C8061 1.350 . S
N8059 S8057 1.610 . S
N8059 C8060 1.351 . S
C8060 C8054 1.428 . S
C8060 N8059 1.351 . S
C8060 C8061 1.434 . S
C8061 C8052 1.429 . S
C8061 N8058 1.350 . S
C8061 C8060 1.434 . S
C8062 C8063 1.369 . S
C8062 C8064 1.419 . S
C8062 H8066 0.930 . S
C8063 C8062 1.369 . S
C8063 C8072 1.429 . S
C8064 C8062 1.419 . S
C8064 C8065 1.363 . S
C8064 H8067 0.929 . S
C8065 C8064 1.363 . S
C8065 C8071 1.428 . S
H8066 C8062 0.930 . S
H8067 C8064 0.929 . S
S8068 N8069 1.613 . S
S8068 N8070 1.610 . S
N8069 S8068 1.613 . S
N8069 C8072 1.350 . S
N8070 S8068 1.610 . S
N8070 C8071 1.351 . S
C8071 C8065 1.428 . S
C8071 N8070 1.351 . S
C8071 C8072 1.434 . S
C8072 C8063 1.429 . S
C8072 N8069 1.350 . S
C8072 C8071 1.434 . S
C8073 C8074 1.369 . S
C8073 C8075 1.419 . S
C8073 H8077 0.930 . S
C8074 C8073 1.369 . S
C8074 C8083 1.429 . S
C8075 C8073 1.419 . S
C8075 C8076 1.363 . S
C8075 H8078 0.929 . S
C8076 C8075 1.363 . S
C8076 C8082 1.428 . S
H8077 C8073 0.930 . S
H8078 C8075 0.929 . S
S8079 N8080 1.613 . S
S8079 N8081 1.610 . S
N8080 S8079 1.613 . S
N8080 C8083 1.350 . S
N8081 S8079 1.610 . S
N8081 C8082 1.351 . S
C8082 C8076 1.428 . S
C8082 N8081 1.351 . S
C8082 C8083 1.434 . S
C8083 C8074 1.429 . S
C8083 N8080 1.350 . S
C8083 C8082 1.434 . S
C8084 C8085 1.369 . S
C8084 C8086 1.419 . S
C8084 H8088 0.930 . S
C8085 C8084 1.369 . S
C8085 C8094 1.429 . S
C8086 C8084 1.419 . S
C8086 C8087 1.363 . S
C8086 H8089 0.929 . S
C8087 C8086 1.363 . S
C8087 C8093 1.428 . S
H8088 C8084 0.930 . S
H8089 C8086 0.929 . S
S8090 N8091 1.613 . S
S8090 N8092 1.610 . S
N8091 S8090 1.613 . S
N8091 C8094 1.350 . S
N8092 S8090 1.610 . S
N8092 C8093 1.351 . S
C8093 C8087 1.428 . S
C8093 N8092 1.351 . S
C8093 C8094 1.434 . S
C8094 C8085 1.429 . S
C8094 N8091 1.350 . S
C8094 C8093 1.434 . S
C8095 C8096 1.369 . S
C8095 C8097 1.419 . S
C8095 H8099 0.930 . S
C8096 C8095 1.369 . S
C8096 C8105 1.429 . S
C8097 C8095 1.419 . S
C8097 C8098 1.363 . S
C8097 H8100 0.929 . S
C8098 C8097 1.363 . S
C8098 C8104 1.428 . S
H8099 C8095 0.930 . S
H8100 C8097 0.929 . S
S8101 N8102 1.613 . S
S8101 N8103 1.610 . S
N8102 S8101 1.613 . S
N8102 C8105 1.350 . S
N8103 S8101 1.610 . S
N8103 C8104 1.351 . S
C8104 C8098 1.428 . S
C8104 N8103 1.351 . S
C8104 C8105 1.434 . S
C8105 C8096 1.429 . S
C8105 N8102 1.350 . S
C8105 C8104 1.434 . S
C8106 C8107 1.369 . S
C8106 C8108 1.419 . S
C8106 H8110 0.930 . S
C8107 C8106 1.369 . S
C8107 C8116 1.429 . S
C8108 C8106 1.419 . S
C8108 C8109 1.363 . S
C8108 H8111 0.929 . S
C8109 C8108 1.363 . S
C8109 C8115 1.428 . S
H8110 C8106 0.930 . S
H8111 C8108 0.929 . S
S8112 N8113 1.613 . S
S8112 N8114 1.610 . S
N8113 S8112 1.613 . S
N8113 C8116 1.350 . S
N8114 S8112 1.610 . S
N8114 C8115 1.351 . S
C8115 C8109 1.428 . S
C8115 N8114 1.351 . S
C8115 C8116 1.434 . S
C8116 C8107 1.429 . S
C8116 N8113 1.350 . S
C8116 C8115 1.434 . S
C8117 C8118 1.369 . S
C8117 C8119 1.419 . S
C8117 H8121 0.930 . S
C8118 C8117 1.369 . S
C8118 C8127 1.429 . S
C8119 C8117 1.419 . S
C8119 C8120 1.363 . S
C8119 H8122 0.929 . S
C8120 C8119 1.363 . S
C8120 C8126 1.428 . S
H8121 C8117 0.930 . S
H8122 C8119 0.929 . S
S8123 N8124 1.613 . S
S8123 N8125 1.610 . S
N8124 S8123 1.613 . S
N8124 C8127 1.350 . S
N8125 S8123 1.610 . S
N8125 C8126 1.351 . S
C8126 C8120 1.428 . S
C8126 N8125 1.351 . S
C8126 C8127 1.434 . S
C8127 C8118 1.429 . S
C8127 N8124 1.350 . S
C8127 C8126 1.434 . S
C8128 C8129 1.369 . S
C8128 C8130 1.419 . S
C8128 H8132 0.930 . S
C8129 C8128 1.369 . S
C8129 C8138 1.429 . S
C8130 C8128 1.419 . S
C8130 C8131 1.363 . S
C8130 H8133 0.929 . S
C8131 C8130 1.363 . S
C8131 C8137 1.428 . S
H8132 C8128 0.930 . S
H8133 C8130 0.929 . S
S8134 N8135 1.613 . S
S8134 N8136 1.610 . S
N8135 S8134 1.613 . S
N8135 C8138 1.350 . S
N8136 S8134 1.610 . S
N8136 C8137 1.351 . S
C8137 C8131 1.428 . S
C8137 N8136 1.351 . S
C8137 C8138 1.434 . S
C8138 C8129 1.429 . S
C8138 N8135 1.350 . S
C8138 C8137 1.434 . S
C8139 C8140 1.369 . S
C8139 C8141 1.419 . S
C8139 H8143 0.930 . S
C8140 C8139 1.369 . S
C8140 C8149 1.429 . S
C8141 C8139 1.419 . S
C8141 C8142 1.363 . S
C8141 H8144 0.929 . S
C8142 C8141 1.363 . S
C8142 C8148 1.428 . S
H8143 C8139 0.930 . S
H8144 C8141 0.929 . S
S8145 N8146 1.613 . S
S8145 N8147 1.610 . S
N8146 S8145 1.613 . S
N8146 C8149 1.350 . S
N8147 S8145 1.610 . S
N8147 C8148 1.351 . S
C8148 C8142 1.428 . S
C8148 N8147 1.351 . S
C8148 C8149 1.434 . S
C8149 C8140 1.429 . S
C8149 N8146 1.350 . S
C8149 C8148 1.434 . S
C8150 C8151 1.369 . S
C8150 C8152 1.419 . S
C8150 H8154 0.930 . S
C8151 C8150 1.369 . S
C8151 C8160 1.429 . S
C8152 C8150 1.419 . S
C8152 C8153 1.363 . S
C8152 H8155 0.929 . S
C8153 C8152 1.363 . S
C8153 C8159 1.428 . S
H8154 C8150 0.930 . S
H8155 C8152 0.929 . S
S8156 N8157 1.613 . S
S8156 N8158 1.610 . S
N8157 S8156 1.613 . S
N8157 C8160 1.350 . S
N8158 S8156 1.610 . S
N8158 C8159 1.351 . S
C8159 C8153 1.428 . S
C8159 N8158 1.351 . S
C8159 C8160 1.434 . S
C8160 C8151 1.429 . S
C8160 N8157 1.350 . S
C8160 C8159 1.434 . S
C8161 C8162 1.369 . S
C8161 C8163 1.419 . S
C8161 H8165 0.930 . S
C8162 C8161 1.369 . S
C8162 C8171 1.429 . S
C8163 C8161 1.419 . S
C8163 C8164 1.363 . S
C8163 H8166 0.929 . S
C8164 C8163 1.363 . S
C8164 C8170 1.428 . S
H8165 C8161 0.930 . S
H8166 C8163 0.929 . S
S8167 N8168 1.613 . S
S8167 N8169 1.610 . S
N8168 S8167 1.613 . S
N8168 C8171 1.350 . S
N8169 S8167 1.610 . S
N8169 C8170 1.351 . S
C8170 C8164 1.428 . S
C8170 N8169 1.351 . S
C8170 C8171 1.434 . S
C8171 C8162 1.429 . S
C8171 N8168 1.350 . S
C8171 C8170 1.434 . S
C8172 C8173 1.369 . S
C8172 C8174 1.419 . S
C8172 H8176 0.930 . S
C8173 C8172 1.369 . S
C8173 C8182 1.429 . S
C8174 C8172 1.419 . S
C8174 C8175 1.363 . S
C8174 H8177 0.929 . S
C8175 C8174 1.363 . S
C8175 C8181 1.428 . S
H8176 C8172 0.930 . S
H8177 C8174 0.929 . S
S8178 N8179 1.613 . S
S8178 N8180 1.610 . S
N8179 S8178 1.613 . S
N8179 C8182 1.350 . S
N8180 S8178 1.610 . S
N8180 C8181 1.351 . S
C8181 C8175 1.428 . S
C8181 N8180 1.351 . S
C8181 C8182 1.434 . S
C8182 C8173 1.429 . S
C8182 N8179 1.350 . S
C8182 C8181 1.434 . S
C8183 C8184 1.369 . S
C8183 C8185 1.419 . S
C8183 H8187 0.930 . S
C8184 C8183 1.369 . S
C8184 C8193 1.429 . S
C8185 C8183 1.419 . S
C8185 C8186 1.363 . S
C8185 H8188 0.929 . S
C8186 C8185 1.363 . S
C8186 C8192 1.428 . S
H8187 C8183 0.930 . S
H8188 C8185 0.929 . S
S8189 N8190 1.613 . S
S8189 N8191 1.610 . S
N8190 S8189 1.613 . S
N8190 C8193 1.350 . S
N8191 S8189 1.610 . S
N8191 C8192 1.351 . S
C8192 C8186 1.428 . S
C8192 N8191 1.351 . S
C8192 C8193 1.434 . S
C8193 C8184 1.429 . S
C8193 N8190 1.350 . S
C8193 C8192 1.434 . S
C8194 C8195 1.369 . S
C8194 C8196 1.419 . S
C8194 H8198 0.930 . S
C8195 C8194 1.369 . S
C8195 C8204 1.429 . S
C8196 C8194 1.419 . S
C8196 C8197 1.363 . S
C8196 H8199 0.929 . S
C8197 C8196 1.363 . S
C8197 C8203 1.428 . S
H8198 C8194 0.930 . S
H8199 C8196 0.929 . S
S8200 N8201 1.613 . S
S8200 N8202 1.610 . S
N8201 S8200 1.613 . S
N8201 C8204 1.350 . S
N8202 S8200 1.610 . S
N8202 C8203 1.351 . S
C8203 C8197 1.428 . S
C8203 N8202 1.351 . S
C8203 C8204 1.434 . S
C8204 C8195 1.429 . S
C8204 N8201 1.350 . S
C8204 C8203 1.434 . S
C8205 C8206 1.369 . S
C8205 C8207 1.419 . S
C8205 H8209 0.930 . S
C8206 C8205 1.369 . S
C8206 C8215 1.429 . S
C8207 C8205 1.419 . S
C8207 C8208 1.363 . S
C8207 H8210 0.929 . S
C8208 C8207 1.363 . S
C8208 C8214 1.428 . S
H8209 C8205 0.930 . S
H8210 C8207 0.929 . S
S8211 N8212 1.613 . S
S8211 N8213 1.610 . S
N8212 S8211 1.613 . S
N8212 C8215 1.350 . S
N8213 S8211 1.610 . S
N8213 C8214 1.351 . S
C8214 C8208 1.428 . S
C8214 N8213 1.351 . S
C8214 C8215 1.434 . S
C8215 C8206 1.429 . S
C8215 N8212 1.350 . S
C8215 C8214 1.434 . S
C8216 C8217 1.369 . S
C8216 C8218 1.419 . S
C8216 H8220 0.930 . S
C8217 C8216 1.369 . S
C8217 C8226 1.429 . S
C8218 C8216 1.419 . S
C8218 C8219 1.363 . S
C8218 H8221 0.929 . S
C8219 C8218 1.363 . S
C8219 C8225 1.428 . S
H8220 C8216 0.930 . S
H8221 C8218 0.929 . S
S8222 N8223 1.613 . S
S8222 N8224 1.610 . S
N8223 S8222 1.613 . S
N8223 C8226 1.350 . S
N8224 S8222 1.610 . S
N8224 C8225 1.351 . S
C8225 C8219 1.428 . S
C8225 N8224 1.351 . S
C8225 C8226 1.434 . S
C8226 C8217 1.429 . S
C8226 N8223 1.350 . S
C8226 C8225 1.434 . S
C8227 C8228 1.369 . S
C8227 C8229 1.419 . S
C8227 H8231 0.930 . S
C8228 C8227 1.369 . S
C8228 C8237 1.429 . S
C8229 C8227 1.419 . S
C8229 C8230 1.363 . S
C8229 H8232 0.929 . S
C8230 C8229 1.363 . S
C8230 C8236 1.428 . S
H8231 C8227 0.930 . S
H8232 C8229 0.929 . S
S8233 N8234 1.613 . S
S8233 N8235 1.610 . S
N8234 S8233 1.613 . S
N8234 C8237 1.350 . S
N8235 S8233 1.610 . S
N8235 C8236 1.351 . S
C8236 C8230 1.428 . S
C8236 N8235 1.351 . S
C8236 C8237 1.434 . S
C8237 C8228 1.429 . S
C8237 N8234 1.350 . S
C8237 C8236 1.434 . S
C8238 C8239 1.369 . S
C8238 C8240 1.419 . S
C8238 H8242 0.930 . S
C8239 C8238 1.369 . S
C8239 C8248 1.429 . S
C8240 C8238 1.419 . S
C8240 C8241 1.363 . S
C8240 H8243 0.929 . S
C8241 C8240 1.363 . S
C8241 C8247 1.428 . S
H8242 C8238 0.930 . S
H8243 C8240 0.929 . S
S8244 N8245 1.613 . S
S8244 N8246 1.610 . S
N8245 S8244 1.613 . S
N8245 C8248 1.350 . S
N8246 S8244 1.610 . S
N8246 C8247 1.351 . S
C8247 C8241 1.428 . S
C8247 N8246 1.351 . S
C8247 C8248 1.434 . S
C8248 C8239 1.429 . S
C8248 N8245 1.350 . S
C8248 C8247 1.434 . S
C8249 C8250 1.369 . S
C8249 C8251 1.419 . S
C8249 H8253 0.930 . S
C8250 C8249 1.369 . S
C8250 C8259 1.429 . S
C8251 C8249 1.419 . S
C8251 C8252 1.363 . S
C8251 H8254 0.929 . S
C8252 C8251 1.363 . S
C8252 C8258 1.428 . S
H8253 C8249 0.930 . S
H8254 C8251 0.929 . S
S8255 N8256 1.613 . S
S8255 N8257 1.610 . S
N8256 S8255 1.613 . S
N8256 C8259 1.350 . S
N8257 S8255 1.610 . S
N8257 C8258 1.351 . S
C8258 C8252 1.428 . S
C8258 N8257 1.351 . S
C8258 C8259 1.434 . S
C8259 C8250 1.429 . S
C8259 N8256 1.350 . S
C8259 C8258 1.434 . S
C8260 C8261 1.369 . S
C8260 C8262 1.419 . S
C8260 H8264 0.930 . S
C8261 C8260 1.369 . S
C8261 C8270 1.429 . S
C8262 C8260 1.419 . S
C8262 C8263 1.363 . S
C8262 H8265 0.929 . S
C8263 C8262 1.363 . S
C8263 C8269 1.428 . S
H8264 C8260 0.930 . S
H8265 C8262 0.929 . S
S8266 N8267 1.613 . S
S8266 N8268 1.610 . S
N8267 S8266 1.613 . S
N8267 C8270 1.350 . S
N8268 S8266 1.610 . S
N8268 C8269 1.351 . S
C8269 C8263 1.428 . S
C8269 N8268 1.351 . S
C8269 C8270 1.434 . S
C8270 C8261 1.429 . S
C8270 N8267 1.350 . S
C8270 C8269 1.434 . S
C8271 C8272 1.369 . S
C8271 C8273 1.419 . S
C8271 H8275 0.930 . S
C8272 C8271 1.369 . S
C8272 C8281 1.429 . S
C8273 C8271 1.419 . S
C8273 C8274 1.363 . S
C8273 H8276 0.929 . S
C8274 C8273 1.363 . S
C8274 C8280 1.428 . S
H8275 C8271 0.930 . S
H8276 C8273 0.929 . S
S8277 N8278 1.613 . S
S8277 N8279 1.610 . S
N8278 S8277 1.613 . S
N8278 C8281 1.350 . S
N8279 S8277 1.610 . S
N8279 C8280 1.351 . S
C8280 C8274 1.428 . S
C8280 N8279 1.351 . S
C8280 C8281 1.434 . S
C8281 C8272 1.429 . S
C8281 N8278 1.350 . S
C8281 C8280 1.434 . S
C8282 C8283 1.369 . S
C8282 C8284 1.419 . S
C8282 H8286 0.930 . S
C8283 C8282 1.369 . S
C8283 C8292 1.429 . S
C8284 C8282 1.419 . S
C8284 C8285 1.363 . S
C8284 H8287 0.929 . S
C8285 C8284 1.363 . S
C8285 C8291 1.428 . S
H8286 C8282 0.930 . S
H8287 C8284 0.929 . S
S8288 N8289 1.613 . S
S8288 N8290 1.610 . S
N8289 S8288 1.613 . S
N8289 C8292 1.350 . S
N8290 S8288 1.610 . S
N8290 C8291 1.351 . S
C8291 C8285 1.428 . S
C8291 N8290 1.351 . S
C8291 C8292 1.434 . S
C8292 C8283 1.429 . S
C8292 N8289 1.350 . S
C8292 C8291 1.434 . S
C8293 C8294 1.369 . S
C8293 C8295 1.419 . S
C8293 H8297 0.930 . S
C8294 C8293 1.369 . S
C8294 C8303 1.429 . S
C8295 C8293 1.419 . S
C8295 C8296 1.363 . S
C8295 H8298 0.929 . S
C8296 C8295 1.363 . S
C8296 C8302 1.428 . S
H8297 C8293 0.930 . S
H8298 C8295 0.929 . S
S8299 N8300 1.613 . S
S8299 N8301 1.610 . S
N8300 S8299 1.613 . S
N8300 C8303 1.350 . S
N8301 S8299 1.610 . S
N8301 C8302 1.351 . S
C8302 C8296 1.428 . S
C8302 N8301 1.351 . S
C8302 C8303 1.434 . S
C8303 C8294 1.429 . S
C8303 N8300 1.350 . S
C8303 C8302 1.434 . S
C8304 C8305 1.369 . S
C8304 C8306 1.419 . S
C8304 H8308 0.930 . S
C8305 C8304 1.369 . S
C8305 C8314 1.429 . S
C8306 C8304 1.419 . S
C8306 C8307 1.363 . S
C8306 H8309 0.929 . S
C8307 C8306 1.363 . S
C8307 C8313 1.428 . S
H8308 C8304 0.930 . S
H8309 C8306 0.929 . S
S8310 N8311 1.613 . S
S8310 N8312 1.610 . S
N8311 S8310 1.613 . S
N8311 C8314 1.350 . S
N8312 S8310 1.610 . S
N8312 C8313 1.351 . S
C8313 C8307 1.428 . S
C8313 N8312 1.351 . S
C8313 C8314 1.434 . S
C8314 C8305 1.429 . S
C8314 N8311 1.350 . S
C8314 C8313 1.434 . S
C8315 C8316 1.369 . S
C8315 C8317 1.419 . S
C8315 H8319 0.930 . S
C8316 C8315 1.369 . S
C8316 C8325 1.429 . S
C8317 C8315 1.419 . S
C8317 C8318 1.363 . S
C8317 H8320 0.929 . S
C8318 C8317 1.363 . S
C8318 C8324 1.428 . S
H8319 C8315 0.930 . S
H8320 C8317 0.929 . S
S8321 N8322 1.613 . S
S8321 N8323 1.610 . S
N8322 S8321 1.613 . S
N8322 C8325 1.350 . S
N8323 S8321 1.610 . S
N8323 C8324 1.351 . S
C8324 C8318 1.428 . S
C8324 N8323 1.351 . S
C8324 C8325 1.434 . S
C8325 C8316 1.429 . S
C8325 N8322 1.350 . S
C8325 C8324 1.434 . S
C8326 C8327 1.369 . S
C8326 C8328 1.419 . S
C8326 H8330 0.930 . S
C8327 C8326 1.369 . S
C8327 C8336 1.429 . S
C8328 C8326 1.419 . S
C8328 C8329 1.363 . S
C8328 H8331 0.929 . S
C8329 C8328 1.363 . S
C8329 C8335 1.428 . S
H8330 C8326 0.930 . S
H8331 C8328 0.929 . S
S8332 N8333 1.613 . S
S8332 N8334 1.610 . S
N8333 S8332 1.613 . S
N8333 C8336 1.350 . S
N8334 S8332 1.610 . S
N8334 C8335 1.351 . S
C8335 C8329 1.428 . S
C8335 N8334 1.351 . S
C8335 C8336 1.434 . S
C8336 C8327 1.429 . S
C8336 N8333 1.350 . S
C8336 C8335 1.434 . S
C8337 C8338 1.369 . S
C8337 C8339 1.419 . S
C8337 H8341 0.930 . S
C8338 C8337 1.369 . S
C8338 C8347 1.429 . S
C8339 C8337 1.419 . S
C8339 C8340 1.363 . S
C8339 H8342 0.929 . S
C8340 C8339 1.363 . S
C8340 C8346 1.428 . S
H8341 C8337 0.930 . S
H8342 C8339 0.929 . S
S8343 N8344 1.613 . S
S8343 N8345 1.610 . S
N8344 S8343 1.613 . S
N8344 C8347 1.350 . S
N8345 S8343 1.610 . S
N8345 C8346 1.351 . S
C8346 C8340 1.428 . S
C8346 N8345 1.351 . S
C8346 C8347 1.434 . S
C8347 C8338 1.429 . S
C8347 N8344 1.350 . S
C8347 C8346 1.434 . S
C8348 C8349 1.369 . S
C8348 C8350 1.419 . S
C8348 H8352 0.930 . S
C8349 C8348 1.369 . S
C8349 C8358 1.429 . S
C8350 C8348 1.419 . S
C8350 C8351 1.363 . S
C8350 H8353 0.929 . S
C8351 C8350 1.363 . S
C8351 C8357 1.428 . S
H8352 C8348 0.930 . S
H8353 C8350 0.929 . S
S8354 N8355 1.613 . S
S8354 N8356 1.610 . S
N8355 S8354 1.613 . S
N8355 C8358 1.350 . S
N8356 S8354 1.610 . S
N8356 C8357 1.351 . S
C8357 C8351 1.428 . S
C8357 N8356 1.351 . S
C8357 C8358 1.434 . S
C8358 C8349 1.429 . S
C8358 N8355 1.350 . S
C8358 C8357 1.434 . S
C8359 C8360 1.369 . S
C8359 C8361 1.419 . S
C8359 H8363 0.930 . S
C8360 C8359 1.369 . S
C8360 C8369 1.429 . S
C8361 C8359 1.419 . S
C8361 C8362 1.363 . S
C8361 H8364 0.929 . S
C8362 C8361 1.363 . S
C8362 C8368 1.428 . S
H8363 C8359 0.930 . S
H8364 C8361 0.929 . S
S8365 N8366 1.613 . S
S8365 N8367 1.610 . S
N8366 S8365 1.613 . S
N8366 C8369 1.350 . S
N8367 S8365 1.610 . S
N8367 C8368 1.351 . S
C8368 C8362 1.428 . S
C8368 N8367 1.351 . S
C8368 C8369 1.434 . S
C8369 C8360 1.429 . S
C8369 N8366 1.350 . S
C8369 C8368 1.434 . S
C8370 C8371 1.369 . S
C8370 C8372 1.419 . S
C8370 H8374 0.930 . S
C8371 C8370 1.369 . S
C8371 C8380 1.429 . S
C8372 C8370 1.419 . S
C8372 C8373 1.363 . S
C8372 H8375 0.929 . S
C8373 C8372 1.363 . S
C8373 C8379 1.428 . S
H8374 C8370 0.930 . S
H8375 C8372 0.929 . S
S8376 N8377 1.613 . S
S8376 N8378 1.610 . S
N8377 S8376 1.613 . S
N8377 C8380 1.350 . S
N8378 S8376 1.610 . S
N8378 C8379 1.351 . S
C8379 C8373 1.428 . S
C8379 N8378 1.351 . S
C8379 C8380 1.434 . S
C8380 C8371 1.429 . S
C8380 N8377 1.350 . S
C8380 C8379 1.434 . S
C8381 C8382 1.369 . S
C8381 C8383 1.419 . S
C8381 H8385 0.930 . S
C8382 C8381 1.369 . S
C8382 C8391 1.429 . S
C8383 C8381 1.419 . S
C8383 C8384 1.363 . S
C8383 H8386 0.929 . S
C8384 C8383 1.363 . S
C8384 C8390 1.428 . S
H8385 C8381 0.930 . S
H8386 C8383 0.929 . S
S8387 N8388 1.613 . S
S8387 N8389 1.610 . S
N8388 S8387 1.613 . S
N8388 C8391 1.350 . S
N8389 S8387 1.610 . S
N8389 C8390 1.351 . S
C8390 C8384 1.428 . S
C8390 N8389 1.351 . S
C8390 C8391 1.434 . S
C8391 C8382 1.429 . S
C8391 N8388 1.350 . S
C8391 C8390 1.434 . S
C8392 C8393 1.369 . S
C8392 C8394 1.419 . S
C8392 H8396 0.930 . S
C8393 C8392 1.369 . S
C8393 C8402 1.429 . S
C8394 C8392 1.419 . S
C8394 C8395 1.363 . S
C8394 H8397 0.929 . S
C8395 C8394 1.363 . S
C8395 C8401 1.428 . S
H8396 C8392 0.930 . S
H8397 C8394 0.929 . S
S8398 N8399 1.613 . S
S8398 N8400 1.610 . S
N8399 S8398 1.613 . S
N8399 C8402 1.350 . S
N8400 S8398 1.610 . S
N8400 C8401 1.351 . S
C8401 C8395 1.428 . S
C8401 N8400 1.351 . S
C8401 C8402 1.434 . S
C8402 C8393 1.429 . S
C8402 N8399 1.350 . S
C8402 C8401 1.434 . S
C8403 C8404 1.369 . S
C8403 C8405 1.419 . S
C8403 H8407 0.930 . S
C8404 C8403 1.369 . S
C8404 C8413 1.429 . S
C8405 C8403 1.419 . S
C8405 C8406 1.363 . S
C8405 H8408 0.929 . S
C8406 C8405 1.363 . S
C8406 C8412 1.428 . S
H8407 C8403 0.930 . S
H8408 C8405 0.929 . S
S8409 N8410 1.613 . S
S8409 N8411 1.610 . S
N8410 S8409 1.613 . S
N8410 C8413 1.350 . S
N8411 S8409 1.610 . S
N8411 C8412 1.351 . S
C8412 C8406 1.428 . S
C8412 N8411 1.351 . S
C8412 C8413 1.434 . S
C8413 C8404 1.429 . S
C8413 N8410 1.350 . S
C8413 C8412 1.434 . S
C8414 C8415 1.369 . S
C8414 C8416 1.419 . S
C8414 H8418 0.930 . S
C8415 C8414 1.369 . S
C8415 C8424 1.429 . S
C8416 C8414 1.419 . S
C8416 C8417 1.363 . S
C8416 H8419 0.929 . S
C8417 C8416 1.363 . S
C8417 C8423 1.428 . S
H8418 C8414 0.930 . S
H8419 C8416 0.929 . S
S8420 N8421 1.613 . S
S8420 N8422 1.610 . S
N8421 S8420 1.613 . S
N8421 C8424 1.350 . S
N8422 S8420 1.610 . S
N8422 C8423 1.351 . S
C8423 C8417 1.428 . S
C8423 N8422 1.351 . S
C8423 C8424 1.434 . S
C8424 C8415 1.429 . S
C8424 N8421 1.350 . S
C8424 C8423 1.434 . S
C8425 C8426 1.369 . S
C8425 C8427 1.419 . S
C8425 H8429 0.930 . S
C8426 C8425 1.369 . S
C8426 C8435 1.429 . S
C8427 C8425 1.419 . S
C8427 C8428 1.363 . S
C8427 H8430 0.929 . S
C8428 C8427 1.363 . S
C8428 C8434 1.428 . S
H8429 C8425 0.930 . S
H8430 C8427 0.929 . S
S8431 N8432 1.613 . S
S8431 N8433 1.610 . S
N8432 S8431 1.613 . S
N8432 C8435 1.350 . S
N8433 S8431 1.610 . S
N8433 C8434 1.351 . S
C8434 C8428 1.428 . S
C8434 N8433 1.351 . S
C8434 C8435 1.434 . S
C8435 C8426 1.429 . S
C8435 N8432 1.350 . S
C8435 C8434 1.434 . S
C8436 C8437 1.369 . S
C8436 C8438 1.419 . S
C8436 H8440 0.930 . S
C8437 C8436 1.369 . S
C8437 C8446 1.429 . S
C8438 C8436 1.419 . S
C8438 C8439 1.363 . S
C8438 H8441 0.929 . S
C8439 C8438 1.363 . S
C8439 C8445 1.428 . S
H8440 C8436 0.930 . S
H8441 C8438 0.929 . S
S8442 N8443 1.613 . S
S8442 N8444 1.610 . S
N8443 S8442 1.613 . S
N8443 C8446 1.350 . S
N8444 S8442 1.610 . S
N8444 C8445 1.351 . S
C8445 C8439 1.428 . S
C8445 N8444 1.351 . S
C8445 C8446 1.434 . S
C8446 C8437 1.429 . S
C8446 N8443 1.350 . S
C8446 C8445 1.434 . S
C8447 C8448 1.369 . S
C8447 C8449 1.419 . S
C8447 H8451 0.930 . S
C8448 C8447 1.369 . S
C8448 C8457 1.429 . S
C8449 C8447 1.419 . S
C8449 C8450 1.363 . S
C8449 H8452 0.929 . S
C8450 C8449 1.363 . S
C8450 C8456 1.428 . S
H8451 C8447 0.930 . S
H8452 C8449 0.929 . S
S8453 N8454 1.613 . S
S8453 N8455 1.610 . S
N8454 S8453 1.613 . S
N8454 C8457 1.350 . S
N8455 S8453 1.610 . S
N8455 C8456 1.351 . S
C8456 C8450 1.428 . S
C8456 N8455 1.351 . S
C8456 C8457 1.434 . S
C8457 C8448 1.429 . S
C8457 N8454 1.350 . S
C8457 C8456 1.434 . S
C8458 C8459 1.369 . S
C8458 C8460 1.419 . S
C8458 H8462 0.930 . S
C8459 C8458 1.369 . S
C8459 C8468 1.429 . S
C8460 C8458 1.419 . S
C8460 C8461 1.363 . S
C8460 H8463 0.929 . S
C8461 C8460 1.363 . S
C8461 C8467 1.428 . S
H8462 C8458 0.930 . S
H8463 C8460 0.929 . S
S8464 N8465 1.613 . S
S8464 N8466 1.610 . S
N8465 S8464 1.613 . S
N8465 C8468 1.350 . S
N8466 S8464 1.610 . S
N8466 C8467 1.351 . S
C8467 C8461 1.428 . S
C8467 N8466 1.351 . S
C8467 C8468 1.434 . S
C8468 C8459 1.429 . S
C8468 N8465 1.350 . S
C8468 C8467 1.434 . S
C8469 C8470 1.369 . S
C8469 C8471 1.419 . S
C8469 H8473 0.930 . S
C8470 C8469 1.369 . S
C8470 C8479 1.429 . S
C8471 C8469 1.419 . S
C8471 C8472 1.363 . S
C8471 H8474 0.929 . S
C8472 C8471 1.363 . S
C8472 C8478 1.428 . S
H8473 C8469 0.930 . S
H8474 C8471 0.929 . S
S8475 N8476 1.613 . S
S8475 N8477 1.610 . S
N8476 S8475 1.613 . S
N8476 C8479 1.350 . S
N8477 S8475 1.610 . S
N8477 C8478 1.351 . S
C8478 C8472 1.428 . S
C8478 N8477 1.351 . S
C8478 C8479 1.434 . S
C8479 C8470 1.429 . S
C8479 N8476 1.350 . S
C8479 C8478 1.434 . S
C8480 C8481 1.369 . S
C8480 C8482 1.419 . S
C8480 H8484 0.930 . S
C8481 C8480 1.369 . S
C8481 C8490 1.429 . S
C8482 C8480 1.419 . S
C8482 C8483 1.363 . S
C8482 H8485 0.929 . S
C8483 C8482 1.363 . S
C8483 C8489 1.428 . S
H8484 C8480 0.930 . S
H8485 C8482 0.929 . S
S8486 N8487 1.613 . S
S8486 N8488 1.610 . S
N8487 S8486 1.613 . S
N8487 C8490 1.350 . S
N8488 S8486 1.610 . S
N8488 C8489 1.351 . S
C8489 C8483 1.428 . S
C8489 N8488 1.351 . S
C8489 C8490 1.434 . S
C8490 C8481 1.429 . S
C8490 N8487 1.350 . S
C8490 C8489 1.434 . S
C8491 C8492 1.369 . S
C8491 C8493 1.419 . S
C8491 H8495 0.930 . S
C8492 C8491 1.369 . S
C8492 C8501 1.429 . S
C8493 C8491 1.419 . S
C8493 C8494 1.363 . S
C8493 H8496 0.929 . S
C8494 C8493 1.363 . S
C8494 C8500 1.428 . S
H8495 C8491 0.930 . S
H8496 C8493 0.929 . S
S8497 N8498 1.613 . S
S8497 N8499 1.610 . S
N8498 S8497 1.613 . S
N8498 C8501 1.350 . S
N8499 S8497 1.610 . S
N8499 C8500 1.351 . S
C8500 C8494 1.428 . S
C8500 N8499 1.351 . S
C8500 C8501 1.434 . S
C8501 C8492 1.429 . S
C8501 N8498 1.350 . S
C8501 C8500 1.434 . S
C8502 C8503 1.369 . S
C8502 C8504 1.419 . S
C8502 H8506 0.930 . S
C8503 C8502 1.369 . S
C8503 C8512 1.429 . S
C8504 C8502 1.419 . S
C8504 C8505 1.363 . S
C8504 H8507 0.929 . S
C8505 C8504 1.363 . S
C8505 C8511 1.428 . S
H8506 C8502 0.930 . S
H8507 C8504 0.929 . S
S8508 N8509 1.613 . S
S8508 N8510 1.610 . S
N8509 S8508 1.613 . S
N8509 C8512 1.350 . S
N8510 S8508 1.610 . S
N8510 C8511 1.351 . S
C8511 C8505 1.428 . S
C8511 N8510 1.351 . S
C8511 C8512 1.434 . S
C8512 C8503 1.429 . S
C8512 N8509 1.350 . S
C8512 C8511 1.434 . S
C8513 C8514 1.369 . S
C8513 C8515 1.419 . S
C8513 H8517 0.930 . S
C8514 C8513 1.369 . S
C8514 C8523 1.429 . S
C8515 C8513 1.419 . S
C8515 C8516 1.363 . S
C8515 H8518 0.929 . S
C8516 C8515 1.363 . S
C8516 C8522 1.428 . S
H8517 C8513 0.930 . S
H8518 C8515 0.929 . S
S8519 N8520 1.613 . S
S8519 N8521 1.610 . S
N8520 S8519 1.613 . S
N8520 C8523 1.350 . S
N8521 S8519 1.610 . S
N8521 C8522 1.351 . S
C8522 C8516 1.428 . S
C8522 N8521 1.351 . S
C8522 C8523 1.434 . S
C8523 C8514 1.429 . S
C8523 N8520 1.350 . S
C8523 C8522 1.434 . S
C8524 C8525 1.369 . S
C8524 C8526 1.419 . S
C8524 H8528 0.930 . S
C8525 C8524 1.369 . S
C8525 C8534 1.429 . S
C8526 C8524 1.419 . S
C8526 C8527 1.363 . S
C8526 H8529 0.929 . S
C8527 C8526 1.363 . S
C8527 C8533 1.428 . S
H8528 C8524 0.930 . S
H8529 C8526 0.929 . S
S8530 N8531 1.613 . S
S8530 N8532 1.610 . S
N8531 S8530 1.613 . S
N8531 C8534 1.350 . S
N8532 S8530 1.610 . S
N8532 C8533 1.351 . S
C8533 C8527 1.428 . S
C8533 N8532 1.351 . S
C8533 C8534 1.434 . S
C8534 C8525 1.429 . S
C8534 N8531 1.350 . S
C8534 C8533 1.434 . S
C8535 C8536 1.369 . S
C8535 C8537 1.419 . S
C8535 H8539 0.930 . S
C8536 C8535 1.369 . S
C8536 C8545 1.429 . S
C8537 C8535 1.419 . S
C8537 C8538 1.363 . S
C8537 H8540 0.929 . S
C8538 C8537 1.363 . S
C8538 C8544 1.428 . S
H8539 C8535 0.930 . S
H8540 C8537 0.929 . S
S8541 N8542 1.613 . S
S8541 N8543 1.610 . S
N8542 S8541 1.613 . S
N8542 C8545 1.350 . S
N8543 S8541 1.610 . S
N8543 C8544 1.351 . S
C8544 C8538 1.428 . S
C8544 N8543 1.351 . S
C8544 C8545 1.434 . S
C8545 C8536 1.429 . S
C8545 N8542 1.350 . S
C8545 C8544 1.434 . S
C8546 C8547 1.369 . S
C8546 C8548 1.419 . S
C8546 H8550 0.930 . S
C8547 C8546 1.369 . S
C8547 C8556 1.429 . S
C8548 C8546 1.419 . S
C8548 C8549 1.363 . S
C8548 H8551 0.929 . S
C8549 C8548 1.363 . S
C8549 C8555 1.428 . S
H8550 C8546 0.930 . S
H8551 C8548 0.929 . S
S8552 N8553 1.613 . S
S8552 N8554 1.610 . S
N8553 S8552 1.613 . S
N8553 C8556 1.350 . S
N8554 S8552 1.610 . S
N8554 C8555 1.351 . S
C8555 C8549 1.428 . S
C8555 N8554 1.351 . S
C8555 C8556 1.434 . S
C8556 C8547 1.429 . S
C8556 N8553 1.350 . S
C8556 C8555 1.434 . S
C8557 C8558 1.369 . S
C8557 C8559 1.419 . S
C8557 H8561 0.930 . S
C8558 C8557 1.369 . S
C8558 C8567 1.429 . S
C8559 C8557 1.419 . S
C8559 C8560 1.363 . S
C8559 H8562 0.929 . S
C8560 C8559 1.363 . S
C8560 C8566 1.428 . S
H8561 C8557 0.930 . S
H8562 C8559 0.929 . S
S8563 N8564 1.613 . S
S8563 N8565 1.610 . S
N8564 S8563 1.613 . S
N8564 C8567 1.350 . S
N8565 S8563 1.610 . S
N8565 C8566 1.351 . S
C8566 C8560 1.428 . S
C8566 N8565 1.351 . S
C8566 C8567 1.434 . S
C8567 C8558 1.429 . S
C8567 N8564 1.350 . S
C8567 C8566 1.434 . S
C8568 C8569 1.369 . S
C8568 C8570 1.419 . S
C8568 H8572 0.930 . S
C8569 C8568 1.369 . S
C8569 C8578 1.429 . S
C8570 C8568 1.419 . S
C8570 C8571 1.363 . S
C8570 H8573 0.929 . S
C8571 C8570 1.363 . S
C8571 C8577 1.428 . S
H8572 C8568 0.930 . S
H8573 C8570 0.929 . S
S8574 N8575 1.613 . S
S8574 N8576 1.610 . S
N8575 S8574 1.613 . S
N8575 C8578 1.350 . S
N8576 S8574 1.610 . S
N8576 C8577 1.351 . S
C8577 C8571 1.428 . S
C8577 N8576 1.351 . S
C8577 C8578 1.434 . S
C8578 C8569 1.429 . S
C8578 N8575 1.350 . S
C8578 C8577 1.434 . S
C8579 C8580 1.369 . S
C8579 C8581 1.419 . S
C8579 H8583 0.930 . S
C8580 C8579 1.369 . S
C8580 C8589 1.429 . S
C8581 C8579 1.419 . S
C8581 C8582 1.363 . S
C8581 H8584 0.929 . S
C8582 C8581 1.363 . S
C8582 C8588 1.428 . S
H8583 C8579 0.930 . S
H8584 C8581 0.929 . S
S8585 N8586 1.613 . S
S8585 N8587 1.610 . S
N8586 S8585 1.613 . S
N8586 C8589 1.350 . S
N8587 S8585 1.610 . S
N8587 C8588 1.351 . S
C8588 C8582 1.428 . S
C8588 N8587 1.351 . S
C8588 C8589 1.434 . S
C8589 C8580 1.429 . S
C8589 N8586 1.350 . S
C8589 C8588 1.434 . S
C8590 C8591 1.369 . S
C8590 C8592 1.419 . S
C8590 H8594 0.930 . S
C8591 C8590 1.369 . S
C8591 C8600 1.429 . S
C8592 C8590 1.419 . S
C8592 C8593 1.363 . S
C8592 H8595 0.929 . S
C8593 C8592 1.363 . S
C8593 C8599 1.428 . S
H8594 C8590 0.930 . S
H8595 C8592 0.929 . S
S8596 N8597 1.613 . S
S8596 N8598 1.610 . S
N8597 S8596 1.613 . S
N8597 C8600 1.350 . S
N8598 S8596 1.610 . S
N8598 C8599 1.351 . S
C8599 C8593 1.428 . S
C8599 N8598 1.351 . S
C8599 C8600 1.434 . S
C8600 C8591 1.429 . S
C8600 N8597 1.350 . S
C8600 C8599 1.434 . S
C8601 C8602 1.369 . S
C8601 C8603 1.419 . S
C8601 H8605 0.930 . S
C8602 C8601 1.369 . S
C8602 C8611 1.429 . S
C8603 C8601 1.419 . S
C8603 C8604 1.363 . S
C8603 H8606 0.929 . S
C8604 C8603 1.363 . S
C8604 C8610 1.428 . S
H8605 C8601 0.930 . S
H8606 C8603 0.929 . S
S8607 N8608 1.613 . S
S8607 N8609 1.610 . S
N8608 S8607 1.613 . S
N8608 C8611 1.350 . S
N8609 S8607 1.610 . S
N8609 C8610 1.351 . S
C8610 C8604 1.428 . S
C8610 N8609 1.351 . S
C8610 C8611 1.434 . S
C8611 C8602 1.429 . S
C8611 N8608 1.350 . S
C8611 C8610 1.434 . S
C8612 C8613 1.369 . S
C8612 C8614 1.419 . S
C8612 H8616 0.930 . S
C8613 C8612 1.369 . S
C8613 C8622 1.429 . S
C8614 C8612 1.419 . S
C8614 C8615 1.363 . S
C8614 H8617 0.929 . S
C8615 C8614 1.363 . S
C8615 C8621 1.428 . S
H8616 C8612 0.930 . S
H8617 C8614 0.929 . S
S8618 N8619 1.613 . S
S8618 N8620 1.610 . S
N8619 S8618 1.613 . S
N8619 C8622 1.350 . S
N8620 S8618 1.610 . S
N8620 C8621 1.351 . S
C8621 C8615 1.428 . S
C8621 N8620 1.351 . S
C8621 C8622 1.434 . S
C8622 C8613 1.429 . S
C8622 N8619 1.350 . S
C8622 C8621 1.434 . S
C8623 C8624 1.369 . S
C8623 C8625 1.419 . S
C8623 H8627 0.930 . S
C8624 C8623 1.369 . S
C8624 C8633 1.429 . S
C8625 C8623 1.419 . S
C8625 C8626 1.363 . S
C8625 H8628 0.929 . S
C8626 C8625 1.363 . S
C8626 C8632 1.428 . S
H8627 C8623 0.930 . S
H8628 C8625 0.929 . S
S8629 N8630 1.613 . S
S8629 N8631 1.610 . S
N8630 S8629 1.613 . S
N8630 C8633 1.350 . S
N8631 S8629 1.610 . S
N8631 C8632 1.351 . S
C8632 C8626 1.428 . S
C8632 N8631 1.351 . S
C8632 C8633 1.434 . S
C8633 C8624 1.429 . S
C8633 N8630 1.350 . S
C8633 C8632 1.434 . S
C8634 C8635 1.369 . S
C8634 C8636 1.419 . S
C8634 H8638 0.930 . S
C8635 C8634 1.369 . S
C8635 C8644 1.429 . S
C8636 C8634 1.419 . S
C8636 C8637 1.363 . S
C8636 H8639 0.929 . S
C8637 C8636 1.363 . S
C8637 C8643 1.428 . S
H8638 C8634 0.930 . S
H8639 C8636 0.929 . S
S8640 N8641 1.613 . S
S8640 N8642 1.610 . S
N8641 S8640 1.613 . S
N8641 C8644 1.350 . S
N8642 S8640 1.610 . S
N8642 C8643 1.351 . S
C8643 C8637 1.428 . S
C8643 N8642 1.351 . S
C8643 C8644 1.434 . S
C8644 C8635 1.429 . S
C8644 N8641 1.350 . S
C8644 C8643 1.434 . S
C8645 C8646 1.369 . S
C8645 C8647 1.419 . S
C8645 H8649 0.930 . S
C8646 C8645 1.369 . S
C8646 C8655 1.429 . S
C8647 C8645 1.419 . S
C8647 C8648 1.363 . S
C8647 H8650 0.929 . S
C8648 C8647 1.363 . S
C8648 C8654 1.428 . S
H8649 C8645 0.930 . S
H8650 C8647 0.929 . S
S8651 N8652 1.613 . S
S8651 N8653 1.610 . S
N8652 S8651 1.613 . S
N8652 C8655 1.350 . S
N8653 S8651 1.610 . S
N8653 C8654 1.351 . S
C8654 C8648 1.428 . S
C8654 N8653 1.351 . S
C8654 C8655 1.434 . S
C8655 C8646 1.429 . S
C8655 N8652 1.350 . S
C8655 C8654 1.434 . S
C8656 C8657 1.369 . S
C8656 C8658 1.419 . S
C8656 H8660 0.930 . S
C8657 C8656 1.369 . S
C8657 C8666 1.429 . S
C8658 C8656 1.419 . S
C8658 C8659 1.363 . S
C8658 H8661 0.929 . S
C8659 C8658 1.363 . S
C8659 C8665 1.428 . S
H8660 C8656 0.930 . S
H8661 C8658 0.929 . S
S8662 N8663 1.613 . S
S8662 N8664 1.610 . S
N8663 S8662 1.613 . S
N8663 C8666 1.350 . S
N8664 S8662 1.610 . S
N8664 C8665 1.351 . S
C8665 C8659 1.428 . S
C8665 N8664 1.351 . S
C8665 C8666 1.434 . S
C8666 C8657 1.429 . S
C8666 N8663 1.350 . S
C8666 C8665 1.434 . S
C8667 C8668 1.369 . S
C8667 C8669 1.419 . S
C8667 H8671 0.930 . S
C8668 C8667 1.369 . S
C8668 C8677 1.429 . S
C8669 C8667 1.419 . S
C8669 C8670 1.363 . S
C8669 H8672 0.929 . S
C8670 C8669 1.363 . S
C8670 C8676 1.428 . S
H8671 C8667 0.930 . S
H8672 C8669 0.929 . S
S8673 N8674 1.613 . S
S8673 N8675 1.610 . S
N8674 S8673 1.613 . S
N8674 C8677 1.350 . S
N8675 S8673 1.610 . S
N8675 C8676 1.351 . S
C8676 C8670 1.428 . S
C8676 N8675 1.351 . S
C8676 C8677 1.434 . S
C8677 C8668 1.429 . S
C8677 N8674 1.350 . S
C8677 C8676 1.434 . S
C8678 C8679 1.369 . S
C8678 C8680 1.419 . S
C8678 H8682 0.930 . S
C8679 C8678 1.369 . S
C8679 C8688 1.429 . S
C8680 C8678 1.419 . S
C8680 C8681 1.363 . S
C8680 H8683 0.929 . S
C8681 C8680 1.363 . S
C8681 C8687 1.428 . S
H8682 C8678 0.930 . S
H8683 C8680 0.929 . S
S8684 N8685 1.613 . S
S8684 N8686 1.610 . S
N8685 S8684 1.613 . S
N8685 C8688 1.350 . S
N8686 S8684 1.610 . S
N8686 C8687 1.351 . S
C8687 C8681 1.428 . S
C8687 N8686 1.351 . S
C8687 C8688 1.434 . S
C8688 C8679 1.429 . S
C8688 N8685 1.350 . S
C8688 C8687 1.434 . S
C8689 C8690 1.369 . S
C8689 C8691 1.419 . S
C8689 H8693 0.930 . S
C8690 C8689 1.369 . S
C8690 C8699 1.429 . S
C8691 C8689 1.419 . S
C8691 C8692 1.363 . S
C8691 H8694 0.929 . S
C8692 C8691 1.363 . S
C8692 C8698 1.428 . S
H8693 C8689 0.930 . S
H8694 C8691 0.929 . S
S8695 N8696 1.613 . S
S8695 N8697 1.610 . S
N8696 S8695 1.613 . S
N8696 C8699 1.350 . S
N8697 S8695 1.610 . S
N8697 C8698 1.351 . S
C8698 C8692 1.428 . S
C8698 N8697 1.351 . S
C8698 C8699 1.434 . S
C8699 C8690 1.429 . S
C8699 N8696 1.350 . S
C8699 C8698 1.434 . S
C8700 C8701 1.369 . S
C8700 C8702 1.419 . S
C8700 H8704 0.930 . S
C8701 C8700 1.369 . S
C8701 C8710 1.429 . S
C8702 C8700 1.419 . S
C8702 C8703 1.363 . S
C8702 H8705 0.929 . S
C8703 C8702 1.363 . S
C8703 C8709 1.428 . S
H8704 C8700 0.930 . S
H8705 C8702 0.929 . S
S8706 N8707 1.613 . S
S8706 N8708 1.610 . S
N8707 S8706 1.613 . S
N8707 C8710 1.350 . S
N8708 S8706 1.610 . S
N8708 C8709 1.351 . S
C8709 C8703 1.428 . S
C8709 N8708 1.351 . S
C8709 C8710 1.434 . S
C8710 C8701 1.429 . S
C8710 N8707 1.350 . S
C8710 C8709 1.434 . S
C8711 C8712 1.369 . S
C8711 C8713 1.419 . S
C8711 H8715 0.930 . S
C8712 C8711 1.369 . S
C8712 C8721 1.429 . S
C8713 C8711 1.419 . S
C8713 C8714 1.363 . S
C8713 H8716 0.929 . S
C8714 C8713 1.363 . S
C8714 C8720 1.428 . S
H8715 C8711 0.930 . S
H8716 C8713 0.929 . S
S8717 N8718 1.613 . S
S8717 N8719 1.610 . S
N8718 S8717 1.613 . S
N8718 C8721 1.350 . S
N8719 S8717 1.610 . S
N8719 C8720 1.351 . S
C8720 C8714 1.428 . S
C8720 N8719 1.351 . S
C8720 C8721 1.434 . S
C8721 C8712 1.429 . S
C8721 N8718 1.350 . S
C8721 C8720 1.434 . S
C8722 C8723 1.369 . S
C8722 C8724 1.419 . S
C8722 H8726 0.930 . S
C8723 C8722 1.369 . S
C8723 C8732 1.429 . S
C8724 C8722 1.419 . S
C8724 C8725 1.363 . S
C8724 H8727 0.929 . S
C8725 C8724 1.363 . S
C8725 C8731 1.428 . S
H8726 C8722 0.930 . S
H8727 C8724 0.929 . S
S8728 N8729 1.613 . S
S8728 N8730 1.610 . S
N8729 S8728 1.613 . S
N8729 C8732 1.350 . S
N8730 S8728 1.610 . S
N8730 C8731 1.351 . S
C8731 C8725 1.428 . S
C8731 N8730 1.351 . S
C8731 C8732 1.434 . S
C8732 C8723 1.429 . S
C8732 N8729 1.350 . S
C8732 C8731 1.434 . S
C8733 C8734 1.369 . S
C8733 C8735 1.419 . S
C8733 H8737 0.930 . S
C8734 C8733 1.369 . S
C8734 C8743 1.429 . S
C8735 C8733 1.419 . S
C8735 C8736 1.363 . S
C8735 H8738 0.929 . S
C8736 C8735 1.363 . S
C8736 C8742 1.428 . S
H8737 C8733 0.930 . S
H8738 C8735 0.929 . S
S8739 N8740 1.613 . S
S8739 N8741 1.610 . S
N8740 S8739 1.613 . S
N8740 C8743 1.350 . S
N8741 S8739 1.610 . S
N8741 C8742 1.351 . S
C8742 C8736 1.428 . S
C8742 N8741 1.351 . S
C8742 C8743 1.434 . S
C8743 C8734 1.429 . S
C8743 N8740 1.350 . S
C8743 C8742 1.434 . S
C8744 C8745 1.369 . S
C8744 C8746 1.419 . S
C8744 H8748 0.930 . S
C8745 C8744 1.369 . S
C8745 C8754 1.429 . S
C8746 C8744 1.419 . S
C8746 C8747 1.363 . S
C8746 H8749 0.929 . S
C8747 C8746 1.363 . S
C8747 C8753 1.428 . S
H8748 C8744 0.930 . S
H8749 C8746 0.929 . S
S8750 N8751 1.613 . S
S8750 N8752 1.610 . S
N8751 S8750 1.613 . S
N8751 C8754 1.350 . S
N8752 S8750 1.610 . S
N8752 C8753 1.351 . S
C8753 C8747 1.428 . S
C8753 N8752 1.351 . S
C8753 C8754 1.434 . S
C8754 C8745 1.429 . S
C8754 N8751 1.350 . S
C8754 C8753 1.434 . S
C8755 C8756 1.369 . S
C8755 C8757 1.419 . S
C8755 H8759 0.930 . S
C8756 C8755 1.369 . S
C8756 C8765 1.429 . S
C8757 C8755 1.419 . S
C8757 C8758 1.363 . S
C8757 H8760 0.929 . S
C8758 C8757 1.363 . S
C8758 C8764 1.428 . S
H8759 C8755 0.930 . S
H8760 C8757 0.929 . S
S8761 N8762 1.613 . S
S8761 N8763 1.610 . S
N8762 S8761 1.613 . S
N8762 C8765 1.350 . S
N8763 S8761 1.610 . S
N8763 C8764 1.351 . S
C8764 C8758 1.428 . S
C8764 N8763 1.351 . S
C8764 C8765 1.434 . S
C8765 C8756 1.429 . S
C8765 N8762 1.350 . S
C8765 C8764 1.434 . S
C8766 C8767 1.369 . S
C8766 C8768 1.419 . S
C8766 H8770 0.930 . S
C8767 C8766 1.369 . S
C8767 C8776 1.429 . S
C8768 C8766 1.419 . S
C8768 C8769 1.363 . S
C8768 H8771 0.929 . S
C8769 C8768 1.363 . S
C8769 C8775 1.428 . S
H8770 C8766 0.930 . S
H8771 C8768 0.929 . S
S8772 N8773 1.613 . S
S8772 N8774 1.610 . S
N8773 S8772 1.613 . S
N8773 C8776 1.350 . S
N8774 S8772 1.610 . S
N8774 C8775 1.351 . S
C8775 C8769 1.428 . S
C8775 N8774 1.351 . S
C8775 C8776 1.434 . S
C8776 C8767 1.429 . S
C8776 N8773 1.350 . S
C8776 C8775 1.434 . S
C8777 C8778 1.369 . S
C8777 C8779 1.419 . S
C8777 H8781 0.930 . S
C8778 C8777 1.369 . S
C8778 C8787 1.429 . S
C8779 C8777 1.419 . S
C8779 C8780 1.363 . S
C8779 H8782 0.929 . S
C8780 C8779 1.363 . S
C8780 C8786 1.428 . S
H8781 C8777 0.930 . S
H8782 C8779 0.929 . S
S8783 N8784 1.613 . S
S8783 N8785 1.610 . S
N8784 S8783 1.613 . S
N8784 C8787 1.350 . S
N8785 S8783 1.610 . S
N8785 C8786 1.351 . S
C8786 C8780 1.428 . S
C8786 N8785 1.351 . S
C8786 C8787 1.434 . S
C8787 C8778 1.429 . S
C8787 N8784 1.350 . S
C8787 C8786 1.434 . S
C8788 C8789 1.369 . S
C8788 C8790 1.419 . S
C8788 H8792 0.930 . S
C8789 C8788 1.369 . S
C8789 C8798 1.429 . S
C8790 C8788 1.419 . S
C8790 C8791 1.363 . S
C8790 H8793 0.929 . S
C8791 C8790 1.363 . S
C8791 C8797 1.428 . S
H8792 C8788 0.930 . S
H8793 C8790 0.929 . S
S8794 N8795 1.613 . S
S8794 N8796 1.610 . S
N8795 S8794 1.613 . S
N8795 C8798 1.350 . S
N8796 S8794 1.610 . S
N8796 C8797 1.351 . S
C8797 C8791 1.428 . S
C8797 N8796 1.351 . S
C8797 C8798 1.434 . S
C8798 C8789 1.429 . S
C8798 N8795 1.350 . S
C8798 C8797 1.434 . S
C8799 C8800 1.369 . S
C8799 C8801 1.419 . S
C8799 H8803 0.930 . S
C8800 C8799 1.369 . S
C8800 C8809 1.429 . S
C8801 C8799 1.419 . S
C8801 C8802 1.363 . S
C8801 H8804 0.929 . S
C8802 C8801 1.363 . S
C8802 C8808 1.428 . S
H8803 C8799 0.930 . S
H8804 C8801 0.929 . S
S8805 N8806 1.613 . S
S8805 N8807 1.610 . S
N8806 S8805 1.613 . S
N8806 C8809 1.350 . S
N8807 S8805 1.610 . S
N8807 C8808 1.351 . S
C8808 C8802 1.428 . S
C8808 N8807 1.351 . S
C8808 C8809 1.434 . S
C8809 C8800 1.429 . S
C8809 N8806 1.350 . S
C8809 C8808 1.434 . S
C8810 C8811 1.369 . S
C8810 C8812 1.419 . S
C8810 H8814 0.930 . S
C8811 C8810 1.369 . S
C8811 C8820 1.429 . S
C8812 C8810 1.419 . S
C8812 C8813 1.363 . S
C8812 H8815 0.929 . S
C8813 C8812 1.363 . S
C8813 C8819 1.428 . S
H8814 C8810 0.930 . S
H8815 C8812 0.929 . S
S8816 N8817 1.613 . S
S8816 N8818 1.610 . S
N8817 S8816 1.613 . S
N8817 C8820 1.350 . S
N8818 S8816 1.610 . S
N8818 C8819 1.351 . S
C8819 C8813 1.428 . S
C8819 N8818 1.351 . S
C8819 C8820 1.434 . S
C8820 C8811 1.429 . S
C8820 N8817 1.350 . S
C8820 C8819 1.434 . S
C8821 C8822 1.369 . S
C8821 C8823 1.419 . S
C8821 H8825 0.930 . S
C8822 C8821 1.369 . S
C8822 C8831 1.429 . S
C8823 C8821 1.419 . S
C8823 C8824 1.363 . S
C8823 H8826 0.929 . S
C8824 C8823 1.363 . S
C8824 C8830 1.428 . S
H8825 C8821 0.930 . S
H8826 C8823 0.929 . S
S8827 N8828 1.613 . S
S8827 N8829 1.610 . S
N8828 S8827 1.613 . S
N8828 C8831 1.350 . S
N8829 S8827 1.610 . S
N8829 C8830 1.351 . S
C8830 C8824 1.428 . S
C8830 N8829 1.351 . S
C8830 C8831 1.434 . S
C8831 C8822 1.429 . S
C8831 N8828 1.350 . S
C8831 C8830 1.434 . S
C5667 C4326 1.457 1_455 S
C5665 C15 1.585 . S
C5678 C5257 1.447 . S
C5676 C55 1.584 . S
C5689 C4364 1.458 . S
C5687 C95 1.586 . S
C5700 C5219 1.458 . S
C5698 C135 1.586 . S
C5711 C4440 1.458 1_455 S
C5709 C175 1.586 . S
C5720 C215 1.586 . S
C5722 C5295 1.458 . S
C5733 C4402 1.458 . S
C5731 C255 1.586 . S
C5744 C5333 1.457 . S
C5742 C295 1.586 . S
C5755 C5637 1.458 1_545 S
C5753 C335 1.586 . S
C5764 C375 1.584 . S
C5766 C5523 1.448 . S
C5777 C5656 1.458 1_565 S
C5775 C415 1.586 . S
C5786 C455 1.584 . S
C5788 C5618 1.448 . S
C5799 C5561 1.451 1_565 S
C5797 C495 1.585 . S
C5810 C4668 1.452 . S
C5808 C535 1.584 . S
C5821 C4687 1.452 1_545 S
C5819 C575 1.584 . S
C5830 C615 1.585 . S
C5832 C4630 1.452 . S
C5841 C655 1.586 . S
C5843 C5466 1.457 1_554 S
C5854 C4516 1.458 1_556 S
C5852 C695 1.586 . S
C5865 C5371 1.452 . S
C5863 C735 1.586 . S
C5876 C4478 1.448 . S
C5874 C775 1.584 . S
C5885 C815 1.586 . S
C5887 C4497 1.458 . S
C5898 C5504 1.448 . S
C5896 C855 1.584 . S
C5909 C5447 1.451 . S
C5907 C895 1.584 . S
C5918 C935 1.585 . S
C5920 C5485 1.452 . S
C5929 C975 1.588 . S
C5931 C3870 1.544 1_655 S
C5940 C1015 1.586 . S
C5942 C4801 1.539 . S
C5953 C3908 1.540 . S
C5951 C1055 1.586 . S
C5962 C1095 1.588 . S
C5964 C4763 1.545 . S
C5975 C3984 1.541 1_655 S
C5973 C1135 1.586 . S
C5984 C1175 1.588 . S
C5986 C4839 1.542 . S
C5997 C3946 1.545 . S
C5995 C1215 1.588 . S
C6008 C4877 1.540 . S
C6006 C1255 1.587 . S
C6017 C1295 1.586 . S
C6019 C5181 1.543 1_565 S
C6030 C5067 1.545 . S
C6028 C1335 1.587 . S
C6039 C1375 1.586 . S
C6041 C5200 1.539 1_545 S
C6052 C5162 1.542 . S
C6050 C1415 1.586 . S
C6063 C5105 1.544 1_545 S
C6061 C1455 1.588 . S
C6072 C1495 1.588 . S
C6074 C4212 1.544 . S
C6083 C1535 1.587 . S
C6085 C4231 1.541 1_565 S
C6096 C4174 1.544 . S
C6094 C1575 1.588 . S
C6105 C1615 1.587 . S
C6107 C5010 1.544 1_556 S
C6118 C4060 1.545 1_554 S
C6116 C1655 1.587 . S
C6127 C1695 1.588 . S
C6129 C4915 1.543 . S
C6140 C4022 1.539 . S
C6138 C1735 1.587 . S
C6149 C1775 1.586 . S
C6151 C4041 1.539 . S
C6162 C5048 1.544 . S
C6160 C1815 1.587 . S
C6173 C4991 1.544 . S
C6171 C1855 1.588 . S
C6184 C5029 1.542 . S
C6182 C1895 1.586 . S
C6193 C1935 1.584 . S
C6195 C5238 1.451 . S
C6206 C4345 1.448 . S
C6204 C1975 1.584 . S
C6217 C5276 1.449 1_655 S
C6215 C2015 1.585 . S
C6228 C4307 1.451 . S
C6226 C2055 1.584 . S
C6237 C2095 1.584 . S
C6239 C5352 1.448 . S
C6250 C4383 1.453 . S
C6248 C2135 1.584 . S
C6261 C5314 1.453 1_655 S
C6259 C2175 1.584 . S
C6272 C4421 1.456 . S
C6270 C2215 1.586 . S
C6281 C2255 1.585 . S
C6283 C4725 1.451 . S
C6294 C4611 1.458 . S
C6292 C2295 1.586 . S
C6305 C4744 1.453 . S
C6303 C2335 1.584 . S
C6314 C2375 1.585 . S
C6316 C4706 1.450 . S
C6325 C2415 1.585 . S
C6327 C4649 1.452 . S
C6336 C2455 1.586 . S
C6338 C5580 1.457 . S
C6347 C2495 1.586 . S
C6349 C5599 1.457 . S
C6360 C5542 1.458 . S
C6358 C2535 1.586 . S
C6369 C2575 1.584 . S
C6371 C4554 1.448 . S
C6382 C5428 1.456 . S
C6380 C2615 1.585 . S
C6393 C4459 1.452 . S
C6391 C2655 1.584 . S
C6404 C5390 1.458 1_556 S
C6402 C2695 1.586 . S
C6413 C2735 1.585 . S
C6415 C5409 1.457 . S
C6424 C2775 1.584 . S
C6426 C4592 1.448 1_554 S
C6437 C4535 1.456 . S
C6435 C2815 1.585 . S
C6446 C2855 1.584 . S
C6448 C4573 1.448 . S
C6457 C2895 1.588 . S
C6459 C4782 1.545 . S
C6470 C3889 1.545 . S
C6468 C2935 1.587 . S
C6481 C4820 1.545 1_455 S
C6479 C2975 1.587 . S
C6490 C3015 1.587 . S
C6492 C3851 1.540 . S
C6503 C4896 1.545 . S
C6501 C3055 1.587 . S
C6514 C3927 1.539 . S
C6512 C3095 1.587 . S
C6523 C3135 1.588 . S
C6525 C4858 1.544 1_455 S
C6534 C3175 1.587 . S
C6536 C3965 1.545 . S
C6547 C4269 1.545 . S
C6545 C3215 1.588 . S
C6556 C3255 1.586 . S
C6558 C4155 1.541 . S
C6569 C4288 1.541 . S
C6567 C3295 1.586 . S
C6580 C4250 1.541 . S
C6578 C3335 1.586 . S
C6589 C3375 1.588 . S
C6591 C4193 1.544 . S
C6600 C3415 1.588 . S
C6602 C5124 1.541 . S
C6613 C5143 1.541 . S
C6611 C3455 1.587 . S
C6622 C3495 1.587 . S
C6624 C5086 1.545 . S
C6635 C4098 1.539 . S
C6633 C3535 1.587 . S
C6646 C4972 1.541 . S
C6644 C3575 1.588 . S
C6655 C3615 1.586 . S
C6657 C4003 1.540 . S
C6666 C3655 1.587 . S
C6668 C4934 1.540 1_554 S
C6677 C3695 1.586 . S
C6679 C4953 1.541 . S
C6688 C3735 1.586 . S
C6690 C4136 1.539 1_556 S
C6699 C3775 1.586 . S
C6701 C4079 1.540 . S
C6712 C4117 1.544 . S
C6710 C3815 1.588 . S
C6723 C4017 1.548 . S
C6721 C2 1.521 . S
C6734 C4036 1.546 . S
C6732 C42 1.530 . S
C6743 C82 1.527 . S
C6745 C4055 1.549 . S
C6754 C122 1.524 . S
C6756 C3998 1.546 . S
C6765 C162 1.521 . S
C6767 C4131 1.549 . S
C6778 C4074 1.544 . S
C6776 C202 1.529 . S
C6789 C4093 1.547 . S
C6787 C242 1.530 . S
C6798 C282 1.525 . S
C6800 C4112 1.545 . S
C6809 C322 1.528 . S
C6811 C3903 1.544 . S
C6820 C362 1.531 . S
C6822 C3846 1.546 . S
C6831 C402 1.525 . S
C6833 C3865 1.545 . S
C6844 C3884 1.550 . S
C6842 C442 1.521 . S
C6853 C482 1.530 . S
C6855 C3941 1.545 . S
C6864 C522 1.530 . S
C6866 C3960 1.546 . S
C6875 C562 1.522 . S
C6877 C3979 1.548 . S
C6886 C602 1.530 . S
C6888 C3922 1.544 . S
C6899 C4188 1.544 . S
C6897 C642 1.530 . S
C6908 C682 1.529 . S
C6910 C5176 1.544 . S
C6921 C4150 1.551 . S
C6919 C722 1.522 . S
C6932 C5195 1.545 . S
C6930 C762 1.525 . S
C6941 C802 1.530 . S
C6943 C5157 1.545 . S
C6952 C842 1.529 . S
C6954 C5138 1.545 . S
C6965 C5081 1.550 . S
C6963 C882 1.524 . S
C6976 C5119 1.545 . S
C6974 C922 1.526 . S
C6987 C4473 1.534 . S
C6985 C962 1.593 . S
C6998 C4492 1.540 . S
C6996 C1002 1.591 . S
C7009 C4511 1.537 . S
C7007 C1042 1.592 . S
C7018 C1082 1.593 . S
C7020 C4454 1.535 . S
C7029 C1122 1.593 . S
C7031 C4587 1.536 . S
C7042 C4530 1.534 . S
C7040 C1162 1.593 . S
C7051 C1202 1.593 . S
C7053 C4549 1.534 . S
C7064 C4568 1.534 . S
C7062 C1242 1.593 . S
C7073 C1282 1.593 . S
C7075 C4359 1.534 . S
C7086 C4302 1.536 . S
C7084 C1322 1.593 . S
C7095 C1362 1.592 . S
C7097 C4321 1.535 . S
C7108 C4340 1.537 . S
C7106 C1402 1.592 . S
C7119 C4397 1.541 . S
C7117 C1442 1.591 . S
C7128 C1482 1.591 . S
C7130 C4416 1.538 . S
C7141 C4435 1.541 . S
C7139 C1522 1.591 . S
C7152 C4378 1.541 . S
C7150 C1562 1.590 . S
C7163 C4644 1.537 . S
C7161 C1602 1.591 . S
C7174 C5632 1.535 . S
C7172 C1642 1.593 . S
C7185 C4606 1.535 . S
C7183 C1682 1.593 . S
C7194 C1722 1.593 . S
C7196 C5651 1.534 . S
C7205 C1762 1.593 . S
C7207 C5613 1.535 . S
C7218 C5594 1.537 . S
C7216 C1802 1.592 . S
C7229 C5537 1.535 . S
C7227 C1842 1.592 . S
C7240 C5575 1.541 . S
C7238 C1882 1.590 . S
C7249 C1922 1.521 . S
C7251 C4929 1.548 . S
C7262 C4948 1.545 . S
C7260 C1962 1.525 . S
C7271 C2002 1.530 . S
C7273 C4967 1.545 . S
C7284 C4910 1.550 . S
C7282 C2042 1.521 . S
C7293 C2082 1.522 . S
C7295 C5043 1.549 . S
C7304 C2122 1.523 . S
C7306 C4986 1.546 . S
C7315 C2162 1.530 . S
C7317 C5005 1.547 . S
C7326 C2202 1.522 . S
C7328 C5024 1.547 . S
C7337 C2242 1.521 . S
C7339 C4815 1.550 . S
C7350 C4758 1.547 . S
C7348 C2282 1.523 . S
C7361 C4777 1.545 . S
C7359 C2322 1.525 . S
C7370 C2362 1.530 . S
C7372 C4796 1.545 . S
C7381 C2402 1.531 . S
C7383 C4853 1.545 . S
C7392 C2442 1.521 . S
C7394 C4872 1.547 . S
C7403 C2482 1.527 . S
C7405 C4891 1.545 . S
C7414 C2522 1.523 . S
C7416 C4834 1.546 . S
C7427 C5100 1.544 . S
C7425 C2562 1.530 . S
C7438 C4264 1.546 . S
C7436 C2602 1.530 . S
C7449 C5062 1.545 . S
C7447 C2642 1.529 . S
C7460 C4283 1.548 . S
C7458 C2682 1.529 . S
C7471 C4245 1.550 . S
C7469 C2722 1.521 . S
C7482 C4226 1.549 . S
C7480 C2762 1.521 . S
C7491 C2802 1.530 . S
C7493 C4169 1.545 . S
C7504 C4207 1.545 . S
C7502 C2842 1.530 . S
C7513 C2882 1.592 . S
C7515 C5385 1.538 . S
C7524 C2922 1.591 . S
C7526 C5404 1.539 . S
C7537 C5423 1.535 . S
C7535 C2962 1.592 . S
C7546 C3002 1.591 . S
C7548 C5366 1.541 . S
C7559 C5499 1.542 . S
C7557 C3042 1.591 . S
C7568 C3082 1.593 . S
C7570 C5442 1.535 . S
C7579 C3122 1.591 . S
C7581 C5461 1.541 . S
C7592 C5480 1.534 . S
C7590 C3162 1.593 . S
C7603 C5271 1.541 . S
C7601 C3202 1.590 . S
C7614 C5214 1.541 . S
C7612 C3242 1.591 . S
C7625 C5233 1.541 . S
C7623 C3282 1.590 . S
C7636 C5252 1.537 . S
C7634 C3322 1.593 . S
C7645 C3362 1.591 . S
C7647 C5309 1.541 . S
C7658 C5328 1.534 . S
C7656 C3402 1.593 . S
C7667 C3442 1.593 . S
C7669 C5347 1.537 . S
C7678 C3482 1.590 . S
C7680 C5290 1.540 . S
C7689 C3522 1.592 . S
C7691 C5556 1.536 . S
C7700 C3562 1.591 . S
C7702 C4720 1.539 . S
C7711 C3602 1.593 . S
C7713 C5518 1.536 . S
C7724 C4739 1.534 . S
C7722 C3642 1.593 . S
C7733 C3682 1.592 . S
C7735 C4701 1.539 . S
C7744 C3722 1.591 . S
C7746 C4682 1.541 . S
C7755 C3762 1.592 . S
C7757 C4625 1.536 . S
C7768 C4663 1.535 . S
C7766 C3802 1.592 . S
C7777 C21 1.598 . S
C7779 C3842 1.605 . S
C7788 C61 1.606 . S
C7790 C3861 1.602 . S
C7799 C101 1.607 . S
C7801 C3880 1.605 . S
C7812 C3899 1.603 . S
C7810 C141 1.607 . S
C7823 C3918 1.607 . S
C7821 C181 1.598 . S
C7832 C221 1.605 . S
C7834 C3937 1.606 . S
C7843 C261 1.600 . S
C7845 C3956 1.608 . S
C7854 C301 1.606 . S
C7856 C3975 1.602 . S
C7867 C3994 1.605 . S
C7865 C341 1.606 . S
C7878 C4013 1.608 . S
C7876 C381 1.602 . S
C7887 C421 1.604 . S
C7889 C4032 1.601 . S
C7900 C4051 1.608 . S
C7898 C461 1.601 . S
C7909 C501 1.602 . S
C7911 C4070 1.601 . S
C7920 C541 1.607 . S
C7922 C4089 1.604 . S
C7931 C581 1.599 . S
C7933 C4108 1.604 . S
C7942 C621 1.602 . S
C7944 C4127 1.601 . S
C7953 C661 1.598 . S
C7955 C4146 1.607 . S
C7964 C701 1.601 . S
C7966 C4165 1.602 . S
C7977 C4184 1.601 . S
C7975 C741 1.604 . S
C7988 C4203 1.603 . S
C7986 C781 1.598 . S
C7999 C4222 1.602 . S
C7997 C821 1.607 . S
C8010 C4241 1.602 . S
C8008 C861 1.606 . S
C8019 C901 1.597 . S
C8021 C4260 1.605 . S
C8032 C4279 1.607 . S
C8030 C941 1.604 . S
C8041 C981 1.677 . S
C8043 C4298 1.604 . S
C8052 C1021 1.676 . S
C8054 C4317 1.599 . S
C8063 C1061 1.678 . S
C8065 C4336 1.600 . S
C8076 C4355 1.604 . S
C8074 C1101 1.678 . S
C8085 C1141 1.678 . S
C8087 C4374 1.605 . S
C8098 C4393 1.605 . S
C8096 C1181 1.677 . S
C8107 C1221 1.678 . S
C8109 C4412 1.600 . S
C8118 C1261 1.677 . S
C8120 C4431 1.605 . S
C8131 C4450 1.598 . S
C8129 C1301 1.677 . S
C8140 C1341 1.678 . S
C8142 C4469 1.605 . S
C8153 C4488 1.601 . S
C8151 C1381 1.678 . S
C8162 C1421 1.676 . S
C8164 C4507 1.604 . S
C8175 C4526 1.605 . S
C8173 C1461 1.678 . S
C8186 C4545 1.603 . S
C8184 C1501 1.678 . S
C8197 C4564 1.600 . S
C8195 C1541 1.678 . S
C8206 C1581 1.678 . S
C8208 C4583 1.604 . S
C8217 C1621 1.678 . S
C8219 C4602 1.605 . S
C8228 C1661 1.676 . S
C8230 C4621 1.601 . S
C8239 C1701 1.677 . S
C8241 C4640 1.599 . S
C8250 C1741 1.678 . S
C8252 C4659 1.605 . S
C8261 C1781 1.678 . S
C8263 C4678 1.599 . S
C8274 C4697 1.601 . S
C8272 C1821 1.678 . S
C8283 C1861 1.677 . S
C8285 C4716 1.605 . S
C8296 C4735 1.599 . S
C8294 C1901 1.676 . S
C8305 C1941 1.606 . S
C8307 C4754 1.606 . S
C8318 C4773 1.608 . S
C8316 C1981 1.600 . S
C8329 C4792 1.605 . S
C8327 C2021 1.598 . S
C8340 C4811 1.606 . S
C8338 C2061 1.598 . S
C8349 C2101 1.603 . S
C8351 C4830 1.608 . S
C8360 C2141 1.598 . S
C8362 C4849 1.607 . S
C8373 C4868 1.608 . S
C8371 C2181 1.599 . S
C8384 C4887 1.606 . S
C8382 C2221 1.605 . S
C8393 C2261 1.601 . S
C8395 C4906 1.608 . S
C8404 C2301 1.606 . S
C8406 C4925 1.602 . S
C8415 C2341 1.605 . S
C8417 C4944 1.606 . S
C8426 C2381 1.603 . S
C8428 C4963 1.608 . S
C8437 C2421 1.598 . S
C8439 C4982 1.605 . S
C8450 C5001 1.602 . S
C8448 C2461 1.606 . S
C8461 C5020 1.608 . S
C8459 C2501 1.599 . S
C8472 C5039 1.607 . S
C8470 C2541 1.598 . S
C8483 C5058 1.607 . S
C8481 C2581 1.605 . S
C8492 C2621 1.598 . S
C8494 C5077 1.603 . S
C8503 C2661 1.604 . S
C8505 C5096 1.608 . S
C8516 C5115 1.608 . S
C8514 C2701 1.600 . S
C8525 C2741 1.599 . S
C8527 C5134 1.604 . S
C8538 C5153 1.608 . S
C8536 C2781 1.599 . S
C8549 C5172 1.607 . S
C8547 C2821 1.598 . S
C8560 C5191 1.605 . S
C8558 C2861 1.598 . S
C8569 C2901 1.677 . S
C8571 C5210 1.605 . S
C8580 C2941 1.677 . S
C8582 C5229 1.605 . S
C8591 C2981 1.676 . S
C8593 C5248 1.603 . S
C8602 C3021 1.678 . S
C8604 C5267 1.602 . S
C8615 C5286 1.602 . S
C8613 C3061 1.676 . S
C8626 C5305 1.605 . S
C8624 C3101 1.677 . S
C8637 C5324 1.603 . S
C8635 C3141 1.678 . S
C8646 C3181 1.678 . S
C8648 C5343 1.598 . S
C8657 C3221 1.677 . S
C8659 C5362 1.598 . S
C8670 C5381 1.606 . S
C8668 C3261 1.678 . S
C8681 C5400 1.600 . S
C8679 C3301 1.676 . S
C8692 C5419 1.602 . S
C8690 C3341 1.676 . S
C8703 C5438 1.602 . S
C8701 C3381 1.678 . S
C8714 C5457 1.605 . S
C8712 C3421 1.677 . S
C8725 C5476 1.603 . S
C8723 C3461 1.679 . S
C8736 C5495 1.599 . S
C8734 C3501 1.678 . S
C8747 C5514 1.603 . S
C8745 C3541 1.676 . S
C8758 C5533 1.600 . S
C8756 C3581 1.678 . S
C8769 C5552 1.598 . S
C8767 C3621 1.677 . S
C8778 C3661 1.678 . S
C8780 C5571 1.603 . S
C8791 C5590 1.604 . S
C8789 C3701 1.678 . S
C8800 C3741 1.678 . S
C8802 C5609 1.599 . S
C8813 C5628 1.600 . S
C8811 C3781 1.678 . S
C8824 C5647 1.605 . S
C8822 C3821 1.677 . S
