# Generated by pormake.
# Topology wbl, (4,4)-cn, num edge types: 1
# Building blocks:
#     Node 0, Type 0, BuildingBlock: NAWXER_clean_linker_0, # of connection points: 4
#     Node 1, Type 0, BuildingBlock: NAWXER_clean_linker_0, # of connection points: 4
#     Node 2, Type 0, BuildingBlock: NAWXER_clean_linker_0, # of connection points: 4
#     Node 3, Type 0, BuildingBlock: NAWXER_clean_linker_0, # of connection points: 4
#     Node 4, Type 0, BuildingBlock: NAWXER_clean_linker_0, # of connection points: 4
#     Node 5, Type 0, BuildingBlock: NAWXER_clean_linker_0, # of connection points: 4
#     Node 6, Type 0, BuildingBlock: NAWXER_clean_linker_0, # of connection points: 4
#     Node 7, Type 0, BuildingBlock: NAWXER_clean_linker_0, # of connection points: 4
#     Node 8, Type 1, BuildingBlock: KUFVIS_clean_sbu_0, # of connection points: 4
#     Node 9, Type 1, BuildingBlock: KUFVIS_clean_sbu_0, # of connection points: 4
#     Node 10, Type 1, BuildingBlock: KUFVIS_clean_sbu_0, # of connection points: 4
#     Node 11, Type 1, BuildingBlock: KUFVIS_clean_sbu_0, # of connection points: 4
#     Node 12, Type 1, BuildingBlock: KUFVIS_clean_sbu_0, # of connection points: 4
#     Node 13, Type 1, BuildingBlock: KUFVIS_clean_sbu_0, # of connection points: 4
#     Node 14, Type 1, BuildingBlock: KUFVIS_clean_sbu_0, # of connection points: 4
#     Node 15, Type 1, BuildingBlock: KUFVIS_clean_sbu_0, # of connection points: 4
#     Edge 16, Type (0, 1), BuildingBlock: CIFDUS_clean_linker_0, # of connection points: 2
#     Edge 17, Type (0, 1), BuildingBlock: CIFDUS_clean_linker_0, # of connection points: 2
#     Edge 18, Type (0, 1), BuildingBlock: CIFDUS_clean_linker_0, # of connection points: 2
#     Edge 19, Type (0, 1), BuildingBlock: CIFDUS_clean_linker_0, # of connection points: 2
#     Edge 20, Type (0, 1), BuildingBlock: CIFDUS_clean_linker_0, # of connection points: 2
#     Edge 21, Type (0, 1), BuildingBlock: CIFDUS_clean_linker_0, # of connection points: 2
#     Edge 22, Type (0, 1), BuildingBlock: CIFDUS_clean_linker_0, # of connection points: 2
#     Edge 23, Type (0, 1), BuildingBlock: CIFDUS_clean_linker_0, # of connection points: 2
#     Edge 24, Type (0, 1), BuildingBlock: CIFDUS_clean_linker_0, # of connection points: 2
#     Edge 25, Type (0, 1), BuildingBlock: CIFDUS_clean_linker_0, # of connection points: 2
#     Edge 26, Type (0, 1), BuildingBlock: CIFDUS_clean_linker_0, # of connection points: 2
#     Edge 27, Type (0, 1), BuildingBlock: CIFDUS_clean_linker_0, # of connection points: 2
#     Edge 28, Type (0, 1), BuildingBlock: CIFDUS_clean_linker_0, # of connection points: 2
#     Edge 29, Type (0, 1), BuildingBlock: CIFDUS_clean_linker_0, # of connection points: 2
#     Edge 30, Type (0, 1), BuildingBlock: CIFDUS_clean_linker_0, # of connection points: 2
#     Edge 31, Type (0, 1), BuildingBlock: CIFDUS_clean_linker_0, # of connection points: 2
#     Edge 32, Type (0, 1), BuildingBlock: CIFDUS_clean_linker_0, # of connection points: 2
#     Edge 33, Type (0, 1), BuildingBlock: CIFDUS_clean_linker_0, # of connection points: 2
#     Edge 34, Type (0, 1), BuildingBlock: CIFDUS_clean_linker_0, # of connection points: 2
#     Edge 35, Type (0, 1), BuildingBlock: CIFDUS_clean_linker_0, # of connection points: 2
#     Edge 36, Type (0, 1), BuildingBlock: CIFDUS_clean_linker_0, # of connection points: 2
#     Edge 37, Type (0, 1), BuildingBlock: CIFDUS_clean_linker_0, # of connection points: 2
#     Edge 38, Type (0, 1), BuildingBlock: CIFDUS_clean_linker_0, # of connection points: 2
#     Edge 39, Type (0, 1), BuildingBlock: CIFDUS_clean_linker_0, # of connection points: 2
#     Edge 40, Type (0, 1), BuildingBlock: CIFDUS_clean_linker_0, # of connection points: 2
#     Edge 41, Type (0, 1), BuildingBlock: CIFDUS_clean_linker_0, # of connection points: 2
#     Edge 42, Type (0, 1), BuildingBlock: CIFDUS_clean_linker_0, # of connection points: 2
#     Edge 43, Type (0, 1), BuildingBlock: CIFDUS_clean_linker_0, # of connection points: 2
#     Edge 44, Type (0, 1), BuildingBlock: CIFDUS_clean_linker_0, # of connection points: 2
#     Edge 45, Type (0, 1), BuildingBlock: CIFDUS_clean_linker_0, # of connection points: 2
#     Edge 46, Type (0, 1), BuildingBlock: CIFDUS_clean_linker_0, # of connection points: 2
#     Edge 47, Type (0, 1), BuildingBlock: CIFDUS_clean_linker_0, # of connection points: 2
# Relax obj value: 0.159
# Max RMSD: 0.159
# Mean RMSD: 0.141
data_MOF--net-wbl--node1-KUFVIS_clean_sbu_0--node2-NAWXER_clean_linker_0--edge1-CIFDUS_clean_linker_0
_symmetry_space_group_name_H-M    P1
_symmetry_Int_Tables_number       1
_symmetry_cell_setting            triclinic
loop_
_symmetry_equiv_pos_as_xyz
'x, y, z'
_cell_length_a     40.464699
_cell_length_b     40.456259
_cell_length_c     69.669369
_cell_angle_alpha  89.996242
_cell_angle_beta   90.593816
_cell_angle_gamma 90.079073
loop_
_atom_site_label
_atom_site_type_symbol
_atom_site_fract_x
_atom_site_fract_y
_atom_site_fract_z
_atom_type_partial_charge
C0 C 0.08417 0.9256 0.35262 0.0
C1 C 0.08982 0.93712 0.37147 0.0
C2 C 0.06674 0.94482 0.33922 0.0
C3 C 0.05595 0.97683 0.34397 0.0
C4 C 0.07907 0.96925 0.37606 0.0
C5 C 0.06302 0.9889 0.36246 0.0
C6 C 0.03321 0.99615 0.33128 0.0
C7 C 0.11998 0.97954 0.29452 0.0
C8 C 0.11545 0.95637 0.27968 0.0
C9 C 0.09304 0.99208 0.30443 0.0
C10 C 0.06082 0.98162 0.29989 0.0
C11 C 0.08313 0.94619 0.2749 0.0
C12 C 0.05596 0.95904 0.28479 0.0
C13 C 0.03265 0.99469 0.31097 0.0
C14 C 0.91144 0.0801 0.29321 0.0
C15 C 0.89334 0.0574 0.28194 0.0
C16 C 0.94173 0.0711 0.30151 0.0
C17 C 0.95411 0.03893 0.29917 0.0
C18 C 0.90738 0.02625 0.27824 0.0
C19 C 0.93737 0.01711 0.28681 0.0
C20 C 0.98294 0.02675 0.31043 0.0
C21 C 0.91199 0.05926 0.35903 0.0
C22 C 0.92628 0.0846 0.37026 0.0
C23 C 0.93059 0.04293 0.34507 0.0
C24 C 0.96368 0.0518 0.34216 0.0
C25 C 0.95886 0.09449 0.36648 0.0
C26 C 0.97741 0.07807 0.35268 0.0
C27 C 0.98581 0.03117 0.33048 0.0
H28 H 0.09235 0.90134 0.34821 0.0
H29 H 0.06061 0.93382 0.3255 0.0
H30 H 0.0816 0.97913 0.39042 0.0
H31 H 0.05477 0.01323 0.36679 0.0
H32 H 0.14454 0.98763 0.29872 0.0
H33 H 0.09742 0.0099 0.31579 0.0
H34 H 0.07889 0.9285 0.26346 0.0
H35 H 0.03127 0.95086 0.28094 0.0
H36 H 0.90161 0.10434 0.29638 0.0
H37 H 0.95483 0.08898 0.3103 0.0
H38 H 0.89475 0.00847 0.26914 0.0
H39 H 0.9467 0.99236 0.28445 0.0
H40 H 0.88688 0.0512 0.36156 0.0
H41 H 0.91969 0.02243 0.33726 0.0
H42 H 0.9708 0.1135 0.37503 0.0
H43 H 0.00305 0.08499 0.35076 0.0
N44 N 0.01027 0.01516 0.34003 0.0
N45 N 0.00689 0.00909 0.30135 0.0
C46 C 0.9246 0.42903 0.60218 0.0
C47 C 0.9398 0.41654 0.61894 0.0
C48 C 0.94347 0.44448 0.588 0.0
C49 C 0.97793 0.44751 0.59023 0.0
C50 C 0.97442 0.41861 0.62073 0.0
C51 C 0.99317 0.43389 0.60658 0.0
C52 C 0.99763 0.46907 0.57744 0.0
C53 C 0.96763 0.38449 0.54099 0.0
C54 C 0.94262 0.39157 0.52746 0.0
C55 C 0.98448 0.40991 0.55043 0.0
C56 C 0.97676 0.4431 0.54662 0.0
C57 C 0.93514 0.42485 0.52342 0.0
C58 C 0.95239 0.45044 0.53277 0.0
C59 C 0.99441 0.46966 0.55723 0.0
C60 C 0.09392 0.57854 0.538 0.0
C61 C 0.07432 0.5982 0.52571 0.0
C62 C 0.08065 0.55064 0.54694 0.0
C63 C 0.04716 0.54226 0.54434 0.0
C64 C 0.04162 0.58791 0.5218 0.0
C65 C 0.02819 0.56037 0.53107 0.0
C66 C 0.03127 0.51598 0.55601 0.0
C67 C 0.06559 0.58795 0.60427 0.0
C68 C 0.09307 0.57462 0.61405 0.0
C69 C 0.04795 0.56882 0.59091 0.0
C70 C 0.05732 0.53602 0.58743 0.0
C71 C 0.10323 0.54229 0.60986 0.0
C72 C 0.08521 0.52299 0.59684 0.0
C73 C 0.03588 0.51377 0.5761 0.0
H74 H 0.89804 0.4277 0.60028 0.0
H75 H 0.93088 0.45551 0.5758 0.0
H76 H 0.98705 0.40995 0.63355 0.0
H77 H 0.01963 0.43621 0.60879 0.0
H78 H 0.97374 0.35916 0.5446 0.0
H79 H 0.00355 0.40359 0.56082 0.0
H80 H 0.91608 0.43103 0.513 0.0
H81 H 0.94622 0.47589 0.52952 0.0
H82 H 0.11918 0.58534 0.54141 0.0
H83 H 0.09646 0.53618 0.55632 0.0
H84 H 0.02602 0.60158 0.51191 0.0
H85 H 0.00252 0.55404 0.52844 0.0
H86 H 0.05723 0.61277 0.60742 0.0
H87 H 0.02618 0.57906 0.58397 0.0
H88 H 0.12401 0.53135 0.61745 0.0
H89 H 0.09248 0.49755 0.59449 0.0
N90 N 0.01867 0.49077 0.58596 0.0
N91 N 0.0108 0.49356 0.54725 0.0
C92 C 0.57708 0.41856 0.85302 0.0
C93 C 0.59745 0.43416 0.86682 0.0
C94 C 0.56002 0.43719 0.83924 0.0
C95 C 0.56263 0.47177 0.83913 0.0
C96 C 0.60187 0.46869 0.86562 0.0
C97 C 0.58414 0.48733 0.85215 0.0
C98 C 0.53886 0.49155 0.82776 0.0
C99 C 0.61714 0.46263 0.78737 0.0
C100 C 0.6082 0.43682 0.77484 0.0
C101 C 0.5932 0.47939 0.79781 0.0
C102 C 0.55971 0.4708 0.79599 0.0
C103 C 0.57457 0.42851 0.77276 0.0
C104 C 0.55045 0.44566 0.7831 0.0
C105 C 0.53481 0.48803 0.80778 0.0
C106 C 0.41184 0.57298 0.7935 0.0
C107 C 0.39497 0.55117 0.78106 0.0
C108 C 0.44203 0.56385 0.80194 0.0
C109 C 0.45552 0.53238 0.79855 0.0
C110 C 0.41 0.52085 0.7765 0.0
C111 C 0.43978 0.51154 0.78519 0.0
C112 C 0.4853 0.52021 0.80902 0.0
C113 C 0.41457 0.54221 0.85855 0.0
C114 C 0.42687 0.56583 0.87165 0.0
C115 C 0.43451 0.53019 0.84382 0.0
C116 C 0.46703 0.54174 0.84186 0.0
C117 C 0.4589 0.57844 0.86905 0.0
C118 C 0.47884 0.5663 0.8544 0.0
C119 C 0.49045 0.5249 0.82899 0.0
H120 H 0.57262 0.3922 0.85353 0.0
H121 H 0.54305 0.42475 0.82951 0.0
H122 H 0.61807 0.48157 0.87557 0.0
H123 H 0.58641 0.51402 0.85229 0.0
H124 H 0.64284 0.46937 0.78949 0.0
H125 H 0.60092 0.49903 0.80744 0.0
H126 H 0.56697 0.40879 0.76316 0.0
H127 H 0.52471 0.43876 0.78142 0.0
H128 H 0.40122 0.59659 0.79731 0.0
H129 H 0.45435 0.58116 0.81147 0.0
H130 H 0.39837 0.50385 0.76649 0.0
H131 H 0.44991 0.48742 0.78195 0.0
H132 H 0.38993 0.53214 0.86014 0.0
H133 H 0.42508 0.51076 0.83457 0.0
H134 H 0.4693 0.59626 0.87903 0.0
H135 H 0.50403 0.57518 0.85331 0.0
N136 N 0.51689 0.51018 0.83752 0.0
N137 N 0.50795 0.50209 0.79914 0.0
C138 C 0.47796 0.88316 0.04995 0.0
C139 C 0.45545 0.88842 0.03477 0.0
C140 C 0.49098 0.90968 0.0603 0.0
C141 C 0.48146 0.94224 0.056 0.0
C142 C 0.44569 0.92098 0.03045 0.0
C143 C 0.45884 0.9477 0.04088 0.0
C144 C 0.49749 0.97028 0.06621 0.0
C145 C 0.44023 0.93288 0.11868 0.0
C146 C 0.4606 0.9188 0.13297 0.0
C147 C 0.45417 0.94654 0.10211 0.0
C148 C 0.48861 0.94637 0.09971 0.0
C149 C 0.49465 0.91575 0.12946 0.0
C150 C 0.50853 0.92977 0.11314 0.0
C151 C 0.50433 0.9694 0.0861 0.0
C152 C 0.5637 0.09334 0.11149 0.0
C153 C 0.59296 0.08179 0.12026 0.0
C154 C 0.54641 0.07349 0.09833 0.0
C155 C 0.55807 0.04178 0.09393 0.0
C156 C 0.60535 0.0507 0.11504 0.0
C157 C 0.58785 0.03074 0.10215 0.0
C158 C 0.53716 0.018 0.08338 0.0
C159 C 0.5776 0.09227 0.04299 0.0
C160 C 0.55341 0.10831 0.03171 0.0
C161 C 0.57029 0.0628 0.05256 0.0
C162 C 0.5383 0.04923 0.05164 0.0
C163 C 0.5223 0.09301 0.02949 0.0
C164 C 0.51482 0.06395 0.03941 0.0
C165 C 0.52847 0.02063 0.06373 0.0
H166 H 0.48571 0.85841 0.05384 0.0
H167 H 0.50928 0.90461 0.07136 0.0
H168 H 0.42853 0.92582 0.01876 0.0
H169 H 0.45149 0.97261 0.03708 0.0
H170 H 0.41395 0.93565 0.12095 0.0
H171 H 0.43839 0.95966 0.09204 0.0
H172 H 0.51092 0.9043 0.13996 0.0
H173 H 0.53515 0.9294 0.11157 0.0
H174 H 0.55366 0.11723 0.11531 0.0
H175 H 0.52318 0.08216 0.09234 0.0
H176 H 0.62756 0.04101 0.12178 0.0
H177 H 0.59691 0.00611 0.09912 0.0
H178 H 0.60188 0.10301 0.04509 0.0
H179 H 0.58957 0.05112 0.06102 0.0
H180 H 0.50334 0.10385 0.02042 0.0
H181 H 0.49017 0.05364 0.03804 0.0
N182 N 0.50923 0.99631 0.05582 0.0
N183 N 0.52439 0.99285 0.09375 0.0
C184 C 0.07932 0.55958 0.89233 0.0
C185 C 0.08942 0.53969 0.8769 0.0
C186 C 0.05938 0.54649 0.9068 0.0
C187 C 0.04941 0.51318 0.9062 0.0
C188 C 0.08007 0.50617 0.87668 0.0
C189 C 0.06034 0.49314 0.89112 0.0
C190 C 0.02438 0.49996 0.9196 0.0
C191 C 0.11248 0.51673 0.95644 0.0
C192 C 0.1105 0.54439 0.96854 0.0
C193 C 0.08441 0.5047 0.94705 0.0
C194 C 0.05365 0.52001 0.94954 0.0
C195 C 0.07973 0.55984 0.97107 0.0
C196 C 0.05136 0.54743 0.96181 0.0
C197 C 0.02423 0.50647 0.93951 0.0
C198 C 0.9057 0.42552 0.96481 0.0
C199 C 0.88755 0.44947 0.97486 0.0
C200 C 0.93418 0.43433 0.95484 0.0
C201 C 0.94489 0.46736 0.95443 0.0
C202 C 0.89956 0.48216 0.97539 0.0
C203 C 0.928 0.49096 0.96532 0.0
C204 C 0.97283 0.47771 0.94219 0.0
C205 C 0.89912 0.44482 0.89366 0.0
C206 C 0.90944 0.41432 0.88611 0.0
C207 C 0.91916 0.46188 0.90685 0.0
C208 C 0.94984 0.44878 0.91241 0.0
C209 C 0.93927 0.40044 0.89265 0.0
C210 C 0.95948 0.41774 0.90552 0.0
C211 C 0.97441 0.46937 0.92255 0.0
H212 H 0.0862 0.58543 0.89301 0.0
H213 H 0.05064 0.56281 0.91796 0.0
H214 H 0.08677 0.4902 0.86487 0.0
H215 H 0.05277 0.46748 0.89018 0.0
H216 H 0.13591 0.5045 0.95411 0.0
H217 H 0.08669 0.48318 0.9379 0.0
H218 H 0.07758 0.58111 0.98041 0.0
H219 H 0.02778 0.55942 0.96401 0.0
H220 H 0.89723 0.40016 0.96398 0.0
H221 H 0.94743 0.41537 0.94713 0.0
H222 H 0.88661 0.50111 0.98329 0.0
H223 H 0.93609 0.51651 0.96546 0.0
H224 H 0.87625 0.45603 0.88876 0.0
H225 H 0.91163 0.48607 0.91182 0.0
H226 H 0.94802 0.37725 0.88684 0.0
H227 H 0.98335 0.40754 0.90947 0.0
N228 N 0.99976 0.48117 0.91203 0.0
N229 N 0.99807 0.49576 0.95005 0.0
C230 C 0.43158 0.57669 0.13633 0.0
C231 C 0.45051 0.59756 0.12453 0.0
C232 C 0.44636 0.55951 0.15154 0.0
C233 C 0.48042 0.56231 0.15506 0.0
C234 C 0.4843 0.60192 0.12904 0.0
C235 C 0.49921 0.58397 0.14391 0.0
C236 C 0.49685 0.53916 0.16841 0.0
C237 C 0.46516 0.62146 0.20554 0.0
C238 C 0.437 0.61507 0.21655 0.0
C239 C 0.48141 0.59586 0.1962 0.0
C240 C 0.46995 0.5632 0.19766 0.0
C241 C 0.42529 0.58241 0.21797 0.0
C242 C 0.44196 0.55654 0.20877 0.0
C243 C 0.48821 0.53649 0.18788 0.0
C244 C 0.574 0.43181 0.22148 0.0
C245 C 0.55384 0.40345 0.22303 0.0
C246 C 0.56327 0.45941 0.21103 0.0
C247 C 0.53187 0.45957 0.20239 0.0
C248 C 0.52208 0.40426 0.2145 0.0
C249 C 0.51105 0.43223 0.20461 0.0
C250 C 0.52093 0.48769 0.19054 0.0
C251 C 0.5645 0.41651 0.14603 0.0
C252 C 0.58956 0.43071 0.13481 0.0
C253 C 0.54689 0.43573 0.15911 0.0
C254 C 0.5544 0.46937 0.16148 0.0
C255 C 0.59839 0.46386 0.13815 0.0
C256 C 0.58089 0.48297 0.15129 0.0
C257 C 0.53143 0.49189 0.17143 0.0
H258 H 0.40572 0.57209 0.13326 0.0
H259 H 0.43155 0.54245 0.15983 0.0
H260 H 0.49958 0.61843 0.12072 0.0
H261 H 0.52556 0.58641 0.14643 0.0
H262 H 0.47458 0.6464 0.20407 0.0
H263 H 0.50328 0.60157 0.18799 0.0
H264 H 0.40369 0.57688 0.22645 0.0
H265 H 0.43285 0.53147 0.21016 0.0
H266 H 0.5982 0.43279 0.22819 0.0
H267 H 0.57951 0.48056 0.2096 0.0
H268 H 0.5059 0.38297 0.21485 0.0
H269 H 0.48672 0.432 0.19796 0.0
H270 H 0.55726 0.39097 0.14394 0.0
H271 H 0.52593 0.4248 0.16624 0.0
H272 H 0.61721 0.47578 0.12964 0.0
H273 H 0.58686 0.50899 0.15269 0.0
N274 N 0.51855 0.51722 0.16102 0.0
N275 N 0.50012 0.51048 0.19826 0.0
C276 C 0.40672 0.9399 0.40053 0.0
C277 C 0.4003 0.9559 0.38289 0.0
C278 C 0.42737 0.95447 0.41443 0.0
C279 C 0.44085 0.98613 0.41147 0.0
C280 C 0.41385 0.98764 0.38012 0.0
C281 C 0.43326 0.00262 0.39426 0.0
C282 C 0.46638 1.00076 0.42449 0.0
C283 C 0.38025 0.98162 0.46213 0.0
C284 C 0.38501 0.95597 0.47552 0.0
C285 C 0.40696 0.9953 0.4524 0.0
C286 C 0.43912 0.9835 0.45567 0.0
C287 C 0.41733 0.94451 0.47904 0.0
C288 C 0.4442 0.95841 0.46933 0.0
C289 C 0.46717 0.99739 0.44474 0.0
C290 C 0.59178 0.07579 0.4651 0.0
C291 C 0.60885 0.05207 0.47616 0.0
C292 C 0.56171 0.06794 0.45615 0.0
C293 C 0.54851 0.03591 0.45745 0.0
C294 C 0.59396 0.02089 0.47881 0.0
C295 C 0.56424 0.01287 0.46947 0.0
C296 C 0.51922 0.02571 0.44588 0.0
C297 C 0.5866 0.04111 0.39079 0.0
C298 C 0.58398 0.0749 0.38593 0.0
C299 C 0.56656 0.02724 0.40491 0.0
C300 C 0.54319 0.04663 0.41436 0.0
C301 C 0.56143 0.0945 0.3962 0.0
C302 C 0.5407 0.08031 0.40988 0.0
C303 C 0.51735 0.03049 0.42583 0.0
H304 H 0.3966 0.91572 0.40353 0.0
H305 H 0.43368 0.94025 0.42709 0.0
H306 H 0.41086 1.00073 0.36669 0.0
H307 H 0.44354 0.02683 0.39133 0.0
H308 H 0.35569 0.99082 0.45889 0.0
H309 H 0.40244 0.01499 0.44217 0.0
H310 H 0.42183 0.92499 0.48938 0.0
H311 H 0.46886 0.94911 0.47218 0.0
H312 H 0.6021 0.10011 0.46271 0.0
H313 H 0.5491 0.08687 0.44798 0.0
H314 H 0.60558 0.00228 0.48776 0.0
H315 H 0.55416 0.98822 0.47112 0.0
H316 H 0.60284 0.02475 0.38304 0.0
H317 H 0.56808 1.00094 0.40773 0.0
H318 H 0.55896 0.12067 0.39334 0.0
H319 H 0.5221 0.0955 0.41663 0.0
N320 N 0.49141 0.01746 0.41603 0.0
N321 N 0.49395 0.00935 0.45462 0.0
C322 C 0.08956 0.93552 0.64916 0.0
C323 C 0.07416 0.92179 0.63282 0.0
C324 C 0.07074 0.95112 0.66327 0.0
C325 C 0.03618 0.95328 0.66128 0.0
C326 C 0.03949 0.92297 0.63126 0.0
C327 C 0.02077 0.93868 0.64527 0.0
C328 C 0.01658 0.97463 0.67416 0.0
C329 C 0.04528 0.88901 0.70991 0.0
C330 C 0.06972 0.89542 0.7239 0.0
C331 C 0.02925 0.91487 0.70049 0.0
C332 C 0.03733 0.94784 0.70472 0.0
C333 C 0.07762 0.92845 0.72834 0.0
C334 C 0.06124 0.9545 0.71897 0.0
C335 C 0.02021 0.97488 0.69433 0.0
C336 C 0.92948 0.09083 0.71459 0.0
C337 C 0.95131 0.10791 0.72695 0.0
C338 C 0.93935 0.06169 0.7055 0.0
C339 C 0.97172 0.04963 0.70792 0.0
C340 C 0.98243 0.0937 0.73091 0.0
C341 C 0.99258 0.06512 0.7214 0.0
C342 C 0.98494 0.02221 0.69602 0.0
C343 C 0.95027 0.09415 0.64764 0.0
C344 C 0.92128 0.08161 0.63904 0.0
C345 C 0.96843 0.07483 0.66064 0.0
C346 C 0.958 0.04262 0.66493 0.0
C347 C 0.91022 0.04989 0.64403 0.0
C348 C 0.92869 0.03039 0.65669 0.0
C349 C 0.97941 0.02005 0.67598 0.0
H350 H 0.1162 0.93495 0.65079 0.0
H351 H 0.08337 0.96288 0.67523 0.0
H352 H 0.02684 0.91315 0.61872 0.0
H353 H 0.99423 0.94037 0.64328 0.0
H354 H 0.03889 0.86387 0.70598 0.0
H355 H 0.01043 0.90906 0.68983 0.0
H356 H 0.09627 0.93409 0.73912 0.0
H357 H 0.06763 0.97977 0.72257 0.0
H358 H 0.90522 0.10057 0.71122 0.0
H359 H 0.92183 0.0492 0.69618 0.0
H360 H 0.99952 0.1052 0.74094 0.0
H361 H 0.01736 0.05594 0.72401 0.0
H362 H 0.95934 0.11847 0.64386 0.0
H363 H 0.99128 0.08441 0.66669 0.0
H364 H 0.88827 0.03951 0.63732 0.0
H365 H 0.92059 0.00539 0.65967 0.0
N366 N 0.99575 0.99673 0.66587 0.0
N367 N 0.00492 0.99915 0.7045 0.0
Mn368 Mn 0.33685 0.67738 0.00315 0.0
Mn369 Mn 0.3482 0.59548 0.00941 0.0
C370 C 0.34465 0.65581 0.03363 0.0
C371 C 0.35868 0.73023 0.99888 0.0
C372 C 0.28131 0.62606 1.00054 0.0
O373 O 0.34942 0.66197 0.9763 0.0
O374 O 0.35818 0.60784 0.98244 0.0
C375 C 0.42068 0.5925 0.00429 0.0
N376 N 0.39361 0.58678 0.01527 0.0
C377 C 0.42702 0.56274 0.0404 0.0
C378 C 0.45523 0.56822 0.02932 0.0
C379 C 0.45205 0.58325 0.01121 0.0
C380 C 0.39641 0.57246 0.03274 0.0
H381 H 0.41833 0.60404 0.99037 0.0
C382 C 0.35758 0.63281 0.97107 0.0
O383 O 0.32807 0.72375 0.99444 0.0
O384 O 0.37669 0.70575 0.00478 0.0
N385 N 0.33966 0.58051 0.03495 0.0
C386 C 0.31029 0.57882 0.0443 0.0
C387 C 0.30936 0.56561 0.06293 0.0
C388 C 0.33857 0.55407 0.07169 0.0
C389 C 0.36845 0.5558 0.06172 0.0
C390 C 0.36782 0.56909 0.04316 0.0
H391 H 0.28778 0.58768 0.03764 0.0
O392 O 0.32986 0.68396 0.03133 0.0
O393 O 0.35392 0.64105 0.01804 0.0
O394 O 0.29092 0.65613 0.99996 0.0
O395 O 0.3008 0.60189 0.0039 0.0
C396 C 0.3989 0.54534 0.06959 0.0
C397 C 0.42815 0.54871 0.05892 0.0
H398 H 0.47949 0.56127 0.03465 0.0
H399 H 0.47373 0.5877 0.00262 0.0
H400 H 0.28621 0.5644 0.07054 0.0
H401 H 0.3378 0.54414 0.08612 0.0
H402 H 0.40018 0.53509 0.08395 0.0
H403 H 0.45148 0.54105 0.06524 0.0
Mn404 Mn 0.33047 0.83914 0.26155 0.0
Mn405 Mn 0.40984 0.8583 0.27162 0.0
C406 C 0.34779 0.84694 0.29313 0.0
C407 C 0.27723 0.85833 0.25461 0.0
C408 C 0.38685 0.78898 0.26077 0.0
O409 O 0.34814 0.85311 0.23533 0.0
O410 O 0.3992 0.86919 0.24453 0.0
C411 C 0.40369 0.93098 0.26829 0.0
N412 N 0.41231 0.90385 0.27877 0.0
C413 C 0.42915 0.93761 0.30559 0.0
C414 C 0.42061 0.96592 0.29505 0.0
C415 C 0.40772 0.96257 0.27634 0.0
C416 C 0.4243 0.90677 0.29687 0.0
H417 H 0.39373 0.92848 0.25392 0.0
C418 C 0.37647 0.86556 0.23176 0.0
O419 O 0.28559 0.82807 0.25064 0.0
O420 O 0.29997 0.87723 0.26181 0.0
N421 N 0.42383 0.84926 0.29742 0.0
C422 C 0.43051 0.81947 0.30572 0.0
C423 C 0.44392 0.81846 0.32439 0.0
C424 C 0.45066 0.84805 0.33425 0.0
C425 C 0.44403 0.87841 0.32531 0.0
C426 C 0.43091 0.87787 0.30663 0.0
H427 H 0.42569 0.79667 0.29815 0.0
O428 O 0.32079 0.83083 0.28943 0.0
O429 O 0.36339 0.85805 0.27833 0.0
O430 O 0.35589 0.79522 0.25943 0.0
O431 O 0.40868 0.81088 0.26491 0.0
C432 C 0.44968 0.90918 0.33426 0.0
C433 C 0.44199 0.93875 0.32446 0.0
H434 H 0.4237 0.99033 0.30121 0.0
H435 H 0.40095 0.9843 0.26815 0.0
H436 H 0.44905 0.79493 0.33117 0.0
H437 H 0.46077 0.84716 0.34869 0.0
H438 H 0.45951 0.91037 0.34876 0.0
H439 H 0.44593 0.96223 0.33161 0.0
Mn440 Mn 0.17085 0.83701 0.49842 0.0
Mn441 Mn 0.09054 0.85723 0.49301 0.0
C442 C 0.14971 0.85135 0.46851 0.0
C443 C 0.22513 0.85523 0.50379 0.0
C444 C 0.11419 0.78646 0.4981 0.0
O445 O 0.15685 0.8459 0.52604 0.0
O446 O 0.10384 0.861 0.52041 0.0
C447 C 0.09706 0.92833 0.50228 0.0
N448 N 0.08769 0.90406 0.48981 0.0
C449 C 0.07022 0.94404 0.46624 0.0
C450 C 0.07947 0.96948 0.47887 0.0
C451 C 0.093 0.96158 0.49695 0.0
C452 C 0.07489 0.91139 0.47233 0.0
H453 H 0.10764 0.92234 0.51614 0.0
C454 C 0.12849 0.85556 0.53165 0.0
O455 O 0.2172 0.82436 0.50631 0.0
O456 O 0.20145 0.87515 0.49914 0.0
N457 N 0.07428 0.85458 0.46716 0.0
C458 C 0.06687 0.82711 0.45664 0.0
C459 C 0.05272 0.83067 0.43826 0.0
C460 C 0.04616 0.86239 0.43095 0.0
C461 C 0.05371 0.89027 0.44212 0.0
C462 C 0.06735 0.88517 0.46044 0.0
H463 H 0.07171 0.80268 0.46224 0.0
O464 O 0.17666 0.83425 0.46986 0.0
O465 O 0.1361 0.8591 0.48464 0.0
O466 O 0.14528 0.79267 0.49888 0.0
O467 O 0.09213 0.8088 0.49578 0.0
C468 C 0.0485 0.92292 0.43575 0.0
C469 C 0.05691 0.9498 0.44776 0.0
H470 H 0.07645 0.99515 0.47481 0.0
H471 H 0.10035 0.98108 0.50675 0.0
H472 H 0.04698 0.80903 0.42972 0.0
H473 H 0.03556 0.86504 0.41669 0.0
H474 H 0.03834 0.92765 0.42157 0.0
H475 H 0.05311 0.97479 0.44263 0.0
Mn476 Mn 0.15895 0.66602 0.74575 0.0
Mn477 Mn 0.15116 0.58363 0.73975 0.0
C478 C 0.15061 0.64398 0.7154 0.0
C479 C 0.13407 0.71719 0.75099 0.0
C480 C 0.21686 0.61748 0.74789 0.0
O481 O 0.14895 0.64987 0.77285 0.0
O482 O 0.14158 0.59545 0.76679 0.0
C483 C 0.07897 0.57809 0.74536 0.0
N484 N 0.10597 0.57328 0.7342 0.0
C485 C 0.07268 0.54926 0.70899 0.0
C486 C 0.04453 0.55377 0.72026 0.0
C487 C 0.04769 0.56832 0.7385 0.0
C488 C 0.10319 0.55946 0.71659 0.0
H489 H 0.08131 0.58937 0.75936 0.0
C490 C 0.1422 0.62039 0.77814 0.0
O491 O 0.16538 0.71282 0.75452 0.0
O492 O 0.11738 0.69174 0.74512 0.0
N493 N 0.15973 0.5689 0.71417 0.0
C494 C 0.18916 0.56725 0.70489 0.0
C495 C 0.19026 0.5536 0.68637 0.0
C496 C 0.16117 0.54159 0.67765 0.0
C497 C 0.13124 0.54327 0.68756 0.0
C498 C 0.13171 0.55686 0.70605 0.0
H499 H 0.2116 0.57635 0.71156 0.0
O500 O 0.16367 0.67307 0.71738 0.0
O501 O 0.14324 0.62881 0.73119 0.0
O502 O 0.2061 0.64719 0.74798 0.0
O503 O 0.19831 0.59232 0.74501 0.0
C504 C 0.10088 0.53242 0.67972 0.0
C505 C 0.0716 0.53551 0.6904 0.0
H506 H 0.02035 0.54637 0.715 0.0
H507 H 0.02606 0.57202 0.74724 0.0
H508 H 0.21345 0.55243 0.67881 0.0
H509 H 0.16206 0.5314 0.66329 0.0
H510 H 0.0997 0.52206 0.66539 0.0
H511 H 0.04835 0.52746 0.68412 0.0
Mn512 Mn 0.84707 0.16486 0.50719 0.0
Mn513 Mn 0.85406 0.0831 0.51577 0.0
C514 C 0.85717 0.14563 0.53804 0.0
C515 C 0.87271 0.21521 0.50015 0.0
C516 C 0.78838 0.11706 0.50783 0.0
O517 O 0.8547 0.14585 0.48036 0.0
O518 O 0.86239 0.09224 0.48827 0.0
C519 C 0.9258 0.07595 0.5091 0.0
N520 N 0.89933 0.0726 0.52086 0.0
C521 C 0.9335 0.05024 0.54617 0.0
C522 C 0.96111 0.05328 0.53429 0.0
C523 C 0.95724 0.06626 0.51569 0.0
C524 C 0.9028 0.06031 0.53881 0.0
H525 H 0.92291 0.08601 0.49482 0.0
C526 C 0.86099 0.1158 0.47597 0.0
O527 O 0.84115 0.21118 0.49731 0.0
O528 O 0.88918 0.18976 0.50613 0.0
N529 N 0.84663 0.07097 0.54193 0.0
C530 C 0.8177 0.07069 0.55177 0.0
C531 C 0.81734 0.05869 0.57069 0.0
C532 C 0.84663 0.0469 0.57923 0.0
C533 C 0.87604 0.04717 0.56876 0.0
C534 C 0.87483 0.05916 0.54991 0.0
H535 H 0.7951 0.0796 0.54524 0.0
O536 O 0.84449 0.17469 0.53542 0.0
O537 O 0.86312 0.12887 0.52261 0.0
O538 O 0.79948 0.14663 0.5067 0.0
O539 O 0.80679 0.09196 0.51104 0.0
C540 C 0.90658 0.03645 0.57638 0.0
C541 C 0.93532 0.0381 0.56512 0.0
H542 H 0.98542 0.04593 0.53934 0.0
H543 H 0.97845 0.06882 0.50647 0.0
H544 H 0.79456 0.05862 0.57869 0.0
H545 H 0.84632 0.03797 0.59389 0.0
H546 H 0.90833 0.02732 0.59098 0.0
H547 H 0.95874 0.03019 0.57121 0.0
Mn548 Mn 0.83194 0.34391 0.75214 0.0
Mn549 Mn 0.91347 0.35244 0.7616 0.0
C550 C 0.85036 0.35527 0.783 0.0
C551 C 0.7813 0.36814 0.74415 0.0
C552 C 0.88055 0.28593 0.75506 0.0
O553 O 0.85104 0.35095 0.7254 0.0
O554 O 0.90482 0.35769 0.73365 0.0
C555 C 0.91971 0.42347 0.75215 0.0
N556 N 0.92326 0.3983 0.76498 0.0
C557 C 0.94468 0.43532 0.78913 0.0
C558 C 0.94145 0.46162 0.77614 0.0
C559 C 0.92884 0.45567 0.75758 0.0
C560 C 0.93522 0.40377 0.78289 0.0
H561 H 0.90993 0.41899 0.7379 0.0
C562 C 0.8813 0.35607 0.72121 0.0
O563 O 0.78595 0.33658 0.7419 0.0
O564 O 0.80633 0.38541 0.75007 0.0
N565 N 0.92539 0.34783 0.78812 0.0
C566 C 0.92604 0.31993 0.79907 0.0
C567 C 0.93765 0.32168 0.81812 0.0
C568 C 0.94872 0.352 0.82564 0.0
C569 C 0.94822 0.38029 0.81401 0.0
C570 C 0.93663 0.37698 0.7951 0.0
H571 H 0.91763 0.29655 0.79334 0.0
O572 O 0.82162 0.34187 0.78019 0.0
O573 O 0.86742 0.36131 0.76772 0.0
O574 O 0.85104 0.29663 0.75265 0.0
O575 O 0.90523 0.30476 0.75867 0.0
C576 C 0.95832 0.41173 0.82052 0.0
C577 C 0.95646 0.43924 0.80811 0.0
H578 H 0.94837 0.48651 0.78029 0.0
H579 H 0.92614 0.47587 0.74751 0.0
H580 H 0.93794 0.29974 0.82701 0.0
H581 H 0.9573 0.35333 0.8404 0.0
H582 H 0.96716 0.41509 0.83512 0.0
H583 H 0.96393 0.46336 0.81335 0.0
Mn584 Mn 0.66624 0.34354 0.99869 0.0
Mn585 Mn 0.58433 0.35248 0.99086 0.0
C586 C 0.64595 0.3555 0.96826 0.0
C587 C 0.71843 0.36582 0.0052 0.0
C588 C 0.61691 0.28598 0.99749 0.0
O589 O 0.64884 0.35182 0.02575 0.0
O590 O 0.5947 0.35903 0.01852 0.0
C591 C 0.57772 0.42372 0.99967 0.0
N592 N 0.57408 0.39814 0.98712 0.0
C593 C 0.5512 0.43414 0.96291 0.0
C594 C 0.55455 0.46084 0.97562 0.0
C595 C 0.56791 0.45561 0.99406 0.0
C596 C 0.56117 0.40288 0.96935 0.0
H597 H 0.58808 0.41981 0.01384 0.0
C598 C 0.61895 0.35778 0.03053 0.0
O599 O 0.71219 0.33472 0.00813 0.0
O600 O 0.69385 0.38414 0.99971 0.0
N601 N 0.57161 0.34697 0.96452 0.0
C602 C 0.57228 0.31907 0.95358 0.0
C603 C 0.56103 0.32036 0.93445 0.0
C604 C 0.5491 0.35025 0.92682 0.0
C605 C 0.5485 0.37859 0.93839 0.0
C606 C 0.55986 0.37577 0.95738 0.0
H607 H 0.58156 0.29609 0.95937 0.0
O608 O 0.67436 0.34105 0.97032 0.0
O609 O 0.6301 0.3614 0.98397 0.0
O610 O 0.64651 0.2967 0.999 0.0
O611 O 0.59212 0.30475 0.9943 0.0
C612 C 0.53779 0.4097 0.93171 0.0
C613 C 0.53912 0.43744 0.94396 0.0
H614 H 0.54724 0.48552 0.9713 0.0
H615 H 0.57071 0.47612 0.00392 0.0
H616 H 0.5617 0.29842 0.92559 0.0
H617 H 0.54078 0.35123 0.912 0.0
H618 H 0.52901 0.41266 0.91707 0.0
H619 H 0.53129 0.46132 0.93856 0.0
Mn620 Mn 0.66077 0.18092 0.24996 0.0
Mn621 Mn 0.64617 0.09879 0.24783 0.0
C622 C 0.65003 0.15564 0.22082 0.0
C623 C 0.64262 0.23532 0.2525 0.0
C624 C 0.71457 0.12789 0.25359 0.0
O625 O 0.64934 0.1697 0.27768 0.0
O626 O 0.63892 0.11502 0.2744 0.0
C627 C 0.57414 0.09998 0.25479 0.0
N628 N 0.60002 0.0915 0.24347 0.0
C629 C 0.56353 0.06701 0.21995 0.0
C630 C 0.5365 0.07529 0.23142 0.0
C631 C 0.54183 0.09191 0.24889 0.0
C632 C 0.59516 0.0756 0.22661 0.0
H633 H 0.57813 0.11287 0.26819 0.0
C634 C 0.64101 0.14154 0.28441 0.0
O635 O 0.673 0.22733 0.25646 0.0
O636 O 0.62246 0.21152 0.24803 0.0
N637 N 0.65208 0.08 0.22288 0.0
C638 C 0.68069 0.07494 0.21317 0.0
C639 C 0.6796 0.05914 0.19522 0.0
C640 C 0.64918 0.0485 0.18752 0.0
C641 C 0.62012 0.05364 0.19788 0.0
C642 C 0.62276 0.06929 0.21577 0.0
H643 H 0.70414 0.08308 0.21902 0.0
O644 O 0.66598 0.18344 0.22146 0.0
O645 O 0.64124 0.14336 0.23722 0.0
O646 O 0.70579 0.15815 0.25292 0.0
O647 O 0.69424 0.10386 0.25191 0.0
C648 C 0.58857 0.04434 0.19103 0.0
C649 C 0.56029 0.05107 0.20204 0.0
H650 H 0.51153 0.06924 0.22689 0.0
H651 H 0.52108 0.09852 0.25778 0.0
H652 H 0.70214 0.05531 0.1873 0.0
H653 H 0.6484 0.03667 0.17357 0.0
H654 H 0.58574 0.03238 0.1772 0.0
H655 H 0.53613 0.04417 0.19651 0.0
H656 H 0.12884 0.89181 0.27086 0.0
H657 H 0.16819 0.99066 0.26626 0.0
H658 H 0.22077 0.96868 0.25534 0.0
H659 H 0.25766 0.92158 0.25131 0.0
H660 H 0.21977 0.82235 0.25611 0.0
H661 H 0.1643 0.84417 0.26217 0.0
C662 C 0.14868 0.90851 0.26702 0.0
C663 C 0.14483 0.94281 0.26975 0.0
C664 C 0.17915 0.89562 0.26087 0.0
C665 C 0.17078 0.96415 0.2647 0.0
C666 C 0.20084 0.95161 0.25841 0.0
C667 C 0.2371 0.9047 0.25328 0.0
C668 C 0.24281 0.87045 0.25349 0.0
C669 C 0.20565 0.91741 0.2571 0.0
C670 C 0.21595 0.84884 0.25584 0.0
C671 C 0.18432 0.86134 0.2595 0.0
H672 H 0.03981 0.65513 0.51979 0.0
H673 H 0.13793 0.61437 0.51486 0.0
H674 H 0.15913 0.66861 0.50568 0.0
H675 H 0.15003 0.72853 0.50018 0.0
H676 H 0.05059 0.76694 0.50353 0.0
H677 H 0.02991 0.71256 0.51158 0.0
C678 C 0.06571 0.65764 0.51626 0.0
C679 C 0.08709 0.63038 0.51817 0.0
C680 C 0.07769 0.68871 0.51067 0.0
C681 C 0.1208 0.63484 0.51393 0.0
C682 C 0.13299 0.6659 0.50854 0.0
C683 C 0.12382 0.72494 0.50252 0.0
C684 C 0.10212 0.75213 0.50134 0.0
C685 C 0.11172 0.69319 0.5071 0.0
C686 C 0.06813 0.74677 0.50431 0.0
C687 C 0.05612 0.71556 0.509 0.0
H688 H 0.36915 0.61127 0.76993 0.0
H689 H 0.34357 0.50813 0.77647 0.0
H690 H 0.28763 0.51947 0.76554 0.0
H691 H 0.24526 0.55828 0.75549 0.0
H692 H 0.2682 0.6622 0.75072 0.0
H693 H 0.32573 0.65086 0.75983 0.0
C694 C 0.35132 0.59129 0.76906 0.0
C695 C 0.36096 0.55878 0.77386 0.0
C696 C 0.31862 0.59808 0.76316 0.0
C697 C 0.33739 0.53324 0.77244 0.0
C698 C 0.30516 0.53972 0.76635 0.0
C699 C 0.26276 0.57858 0.75627 0.0
C700 C 0.25227 0.61109 0.75237 0.0
C701 C 0.29547 0.572 0.76179 0.0
C702 C 0.27549 0.63694 0.75364 0.0
C703 C 0.3084 0.63046 0.75888 0.0
H704 H 0.39194 0.87619 0.02267 0.0
H705 H 0.49065 0.83594 0.02168 0.0
H706 H 0.46955 0.78458 0.00804 0.0
H707 H 0.4227 0.74884 1.00011 0.0
H708 H 0.3237 0.78803 0.00091 0.0
H709 H 0.34532 0.84233 0.0103 0.0
C710 C 0.40888 0.85644 0.01908 0.0
C711 C 0.44273 0.85963 0.02364 0.0
C712 C 0.39653 0.82674 0.01123 0.0
C713 C 0.46437 0.8338 0.01883 0.0
C714 C 0.45236 0.80445 0.01093 0.0
C715 C 0.40588 0.76943 0.00197 0.0
C716 C 0.37166 0.76436 1.00005 0.0
C717 C 0.41842 0.80027 0.00767 0.0
C718 C 0.35018 0.79133 0.00229 0.0
C719 C 0.36253 0.8223 0.00783 0.0
H720 H 0.13482 0.60735 0.9697 0.0
H721 H 0.1542 0.50808 0.98935 0.0
H722 H 0.20766 0.52543 0.00237 0.0
H723 H 0.25048 0.5673 0.00586 0.0
H724 H 0.23295 0.66663 0.98554 0.0
H725 H 0.177 0.6509 0.97538 0.0
C726 C 0.15058 0.58975 0.97714 0.0
C727 C 0.14079 0.55644 0.97844 0.0
C728 C 0.18166 0.59982 0.98434 0.0
C729 C 0.16144 0.53376 0.98799 0.0
C730 C 0.19198 0.54366 0.99543 0.0
C731 C 0.23446 0.58569 0.99932 0.0
C732 C 0.24617 0.61803 0.99627 0.0
C733 C 0.20264 0.5764 0.99329 0.0
C734 C 0.22471 0.64152 0.98802 0.0
C735 C 0.19272 0.63251 0.98214 0.0
H736 H 0.46594 0.6605 0.23949 0.0
H737 H 0.37142 0.63192 0.21577 0.0
H738 H 0.34634 0.6823 0.22877 0.0
H739 H 0.35292 0.73705 0.24434 0.0
H740 H 0.44855 0.76461 0.26754 0.0
H741 H 0.47139 0.71214 0.25733 0.0
C742 C 0.43977 0.66521 0.23731 0.0
C743 C 0.4206 0.64285 0.22653 0.0
C744 C 0.42577 0.69421 0.24461 0.0
C745 C 0.38663 0.64885 0.22406 0.0
C746 C 0.37238 0.67773 0.23138 0.0
C747 C 0.37862 0.7314 0.24739 0.0
C748 C 0.39898 0.75514 0.25648 0.0
C749 C 0.39191 0.701 0.24131 0.0
C750 C 0.43226 0.74719 0.26036 0.0
C751 C 0.44546 0.71709 0.25453 0.0
H752 H 0.37141 0.89049 0.48212 0.0
H753 H 0.33326 0.98876 0.49127 0.0
H754 H 0.28185 0.96572 0.50332 0.0
H755 H 0.2455 0.91825 0.50777 0.0
H756 H 0.2821 0.8196 0.49844 0.0
H757 H 0.33666 0.84208 0.49056 0.0
C758 C 0.3521 0.90682 0.48713 0.0
C759 C 0.35598 0.94135 0.48542 0.0
C760 C 0.32231 0.89333 0.494 0.0
C761 C 0.33066 0.96214 0.49198 0.0
C762 C 0.30128 0.94898 0.49896 0.0
C763 C 0.26559 0.90158 0.50438 0.0
C764 C 0.25969 0.86734 0.50351 0.0
C765 C 0.29647 0.9147 0.49949 0.0
C766 C 0.28603 0.84605 0.49927 0.0
C767 C 0.31714 0.85895 0.49457 0.0
H768 H 0.04241 0.83991 0.73857 0.0
H769 H 0.13631 0.88776 0.7299 0.0
H770 H 0.16518 0.83762 0.74041 0.0
H771 H 0.16339 0.77779 0.74791 0.0
H772 H 0.06882 0.73 0.75463 0.0
H773 H 0.0406 0.78239 0.74918 0.0
C774 C 0.06921 0.83944 0.73915 0.0
C775 C 0.0872 0.86729 0.7332 0.0
C776 C 0.08552 0.8104 0.74475 0.0
C777 C 0.12189 0.86663 0.73441 0.0
C778 C 0.1384 0.83788 0.74029 0.0
C779 C 0.13666 0.77909 0.74863 0.0
C780 C 0.11819 0.75004 0.75152 0.0
C781 C 0.12046 0.80926 0.74493 0.0
C782 C 0.08356 0.75198 0.75229 0.0
C783 C 0.06739 0.78191 0.74911 0.0
H784 H 0.66071 0.46165 0.75573 0.0
H785 H 0.6147 0.36969 0.77177 0.0
H786 H 0.6628 0.33908 0.76031 0.0
H787 H 0.72131 0.33942 0.75028 0.0
H788 H 0.76778 0.4322 0.73623 0.0
H789 H 0.71618 0.46143 0.74208 0.0
C790 C 0.66108 0.43486 0.7565 0.0
C791 C 0.63443 0.41799 0.76484 0.0
C792 C 0.68905 0.41757 0.75031 0.0
C793 C 0.63491 0.38326 0.7654 0.0
C794 C 0.66252 0.36577 0.75897 0.0
C795 C 0.71978 0.36588 0.74794 0.0
C796 C 0.74832 0.38368 0.74294 0.0
C797 C 0.69022 0.38275 0.752 0.0
C798 C 0.74616 0.41801 0.74017 0.0
C799 C 0.71671 0.43477 0.74362 0.0
H800 H 0.61161 0.13357 0.0176 0.0
H801 H 0.50952 0.15931 0.02753 0.0
H802 H 0.5197 0.21491 0.01597 0.0
H803 H 0.55788 0.25754 0.00535 0.0
H804 H 0.66108 0.23434 0.99804 0.0
H805 H 0.65015 0.17668 0.00659 0.0
C806 C 0.59156 0.1513 0.01737 0.0
C807 C 0.55974 0.1418 0.02343 0.0
C808 C 0.5978 0.1839 0.0113 0.0
C809 C 0.5341 0.16529 0.02261 0.0
C810 C 0.53995 0.19739 0.01618 0.0
C811 C 0.57803 0.23989 0.00538 0.0
C812 C 0.61028 0.25038 0.00103 0.0
C813 C 0.57174 0.20708 0.01075 0.0
C814 C 0.63602 0.22704 0.00136 0.0
C815 C 0.62978 0.19405 0.00628 0.0
H816 H 0.86842 0.11691 0.26954 0.0
H817 H 0.84046 0.01537 0.27985 0.0
H818 H 0.7837 0.02787 0.27081 0.0
H819 H 0.74126 0.0678 0.26171 0.0
H820 H 0.76771 0.1702 0.25328 0.0
H821 H 0.82557 0.15717 0.26021 0.0
C822 C 0.84993 0.09751 0.26991 0.0
C823 C 0.85904 0.06516 0.2753 0.0
C824 C 0.8169 0.10503 0.26519 0.0
C825 C 0.83461 0.04033 0.27538 0.0
C826 C 0.80193 0.04751 0.27041 0.0
C827 C 0.75962 0.08734 0.26125 0.0
C828 C 0.74998 0.11997 0.25701 0.0
C829 C 0.79273 0.0798 0.26549 0.0
C830 C 0.77429 0.14487 0.25658 0.0
C831 C 0.80743 0.13744 0.26053 0.0
H832 H 0.96777 0.3358 0.51178 0.0
H833 H 0.87559 0.38522 0.52276 0.0
H834 H 0.84498 0.33601 0.5123 0.0
H835 H 0.8449 0.27636 0.50414 0.0
H836 H 0.93781 0.22701 0.49485 0.0
H837 H 0.96755 0.27865 0.50032 0.0
C838 C 0.94096 0.33589 0.51171 0.0
C839 C 0.92399 0.36394 0.51828 0.0
C840 C 0.92363 0.30737 0.50605 0.0
C841 C 0.88925 0.36395 0.51775 0.0
C842 C 0.87174 0.33572 0.51189 0.0
C843 C 0.87157 0.27718 0.50282 0.0
C844 C 0.88915 0.24786 0.49921 0.0
C845 C 0.8887 0.30692 0.50655 0.0
C846 C 0.92373 0.2492 0.49772 0.0
C847 C 0.94079 0.2787 0.50093 0.0
H848 H 0.63496 0.11112 0.48918 0.0
H849 H 0.66031 0.0086 0.47979 0.0
H850 H 0.71657 0.01946 0.4903 0.0
H851 H 0.75957 0.05803 0.50011 0.0
H852 H 0.73687 0.16158 0.50691 0.0
H853 H 0.67878 0.15031 0.49903 0.0
C854 C 0.65275 0.09112 0.48928 0.0
C855 C 0.6429 0.05896 0.48374 0.0
C856 C 0.68572 0.09773 0.49471 0.0
C857 C 0.66652 0.03343 0.48437 0.0
C858 C 0.699 0.03966 0.49018 0.0
C859 C 0.74198 0.07824 0.50007 0.0
C860 C 0.7527 0.11065 0.50415 0.0
C861 C 0.70894 0.07173 0.49516 0.0
C862 C 0.7294 0.13641 0.5038 0.0
C863 C 0.69617 0.12997 0.49929 0.0
H864 H 0.89031 0.13276 0.73706 0.0
H865 H 0.99349 0.15981 0.73306 0.0
H866 H 0.9807 0.21548 0.74323 0.0
H867 H 0.94062 0.25768 0.75098 0.0
H868 H 0.83664 0.23381 0.75222 0.0
H869 H 0.84946 0.17592 0.74504 0.0
C870 C 0.91004 0.15079 0.73829 0.0
C871 C 0.94296 0.14154 0.73438 0.0
C872 C 0.9024 0.18354 0.74349 0.0
C873 C 0.96807 0.16548 0.73642 0.0
C874 C 0.96076 0.19766 0.74203 0.0
C875 C 0.9206 0.2399 0.7499 0.0
C876 C 0.88766 0.25024 0.75217 0.0
C877 C 0.92804 0.20705 0.74535 0.0
C878 C 0.86222 0.22665 0.75052 0.0
C879 C 0.86955 0.19353 0.74639 0.0
H880 H 0.8702 0.39301 0.99407 0.0
H881 H 0.83117 0.48649 0.97438 0.0
H882 H 0.77615 0.47044 0.98469 0.0
H883 H 0.73805 0.42779 0.99584 0.0
H884 H 0.77585 0.33286 0.01374 0.0
H885 H 0.83229 0.3516 0.00767 0.0
C886 C 0.84969 0.40992 0.99209 0.0
C887 C 0.85496 0.44087 0.98333 0.0
C888 C 0.81778 0.40021 0.99765 0.0
C889 C 0.8281 0.46269 0.98125 0.0
C890 C 0.79647 0.45342 0.987 0.0
C891 C 0.75864 0.41134 0.99875 0.0
C892 C 0.75267 0.37887 0.0051 0.0
C893 C 0.79089 0.42197 0.99477 0.0
C894 C 0.77971 0.35795 0.00881 0.0
C895 C 0.81199 0.3686 0.00523 0.0
H896 H 0.61775 0.38077 0.22561 0.0
H897 H 0.51813 0.35609 0.24244 0.0
H898 H 0.537 0.30247 0.25379 0.0
H899 H 0.58107 0.26073 0.25671 0.0
H900 H 0.68124 0.28768 0.24304 0.0
H901 H 0.66293 0.34287 0.23349 0.0
C902 C 0.60009 0.3643 0.23223 0.0
C903 C 0.56624 0.37261 0.23257 0.0
C904 C 0.61124 0.33379 0.23941 0.0
C905 C 0.54409 0.35023 0.24115 0.0
C906 C 0.5549 0.31953 0.24789 0.0
C907 C 0.59892 0.27894 0.25197 0.0
C908 C 0.63236 0.27014 0.25041 0.0
C909 C 0.58828 0.31075 0.24668 0.0
C910 C 0.65535 0.29395 0.24443 0.0
C911 C 0.64486 0.32543 0.23881 0.0
H912 H 0.12503 0.95559 0.40364 0.0
H913 H 0.08833 0.86873 0.37406 0.0
H914 H 0.10817 0.83416 0.40021 0.0
H915 H 0.13048 0.8288 0.43331 0.0
H916 H 0.15578 0.91695 0.46488 0.0
H917 H 0.14468 0.95084 0.43652 0.0
C918 C 0.12058 0.92923 0.40286 0.0
C919 C 0.10466 0.91531 0.38668 0.0
C920 C 0.12971 0.90958 0.41859 0.0
C921 C 0.1009 0.88064 0.38595 0.0
C922 C 0.11193 0.86065 0.40109 0.0
C923 C 0.13353 0.85542 0.43382 0.0
C924 C 0.14321 0.87064 0.45107 0.0
C925 C 0.12556 0.87491 0.41771 0.0
C926 C 0.14767 0.90499 0.45173 0.0
C927 C 0.14148 0.92429 0.43554 0.0
H928 H 0.06306 0.59739 0.64559 0.0
H929 H 0.15832 0.59025 0.61892 0.0
H930 H 0.18478 0.6143 0.64756 0.0
H931 H 0.18091 0.63352 0.68125 0.0
H932 H 0.08589 0.63483 0.70854 0.0
H933 H 0.059 0.61752 0.67862 0.0
C934 C 0.08952 0.60182 0.64595 0.0
C935 C 0.10876 0.59258 0.63021 0.0
C936 C 0.10452 0.61444 0.66262 0.0
C937 C 0.14311 0.59749 0.63092 0.0
C938 C 0.15818 0.61116 0.64725 0.0
C939 C 0.15434 0.63011 0.68048 0.0
C940 C 0.13534 0.63455 0.697 0.0
C941 C 0.1392 0.61912 0.66335 0.0
C942 C 0.10091 0.63072 0.69598 0.0
C943 C 0.08556 0.62098 0.6789 0.0
H944 H 0.41839 0.62687 0.88787 0.0
H945 H 0.39401 0.52375 0.89517 0.0
H946 H 0.36872 0.53587 0.92595 0.0
H947 H 0.35715 0.57471 0.95182 0.0
H948 H 0.38115 0.678 0.94514 0.0
H949 H 0.40289 0.66687 0.9131 0.0
C950 C 0.40731 0.60714 0.89616 0.0
C951 C 0.40813 0.57444 0.8892 0.0
C952 C 0.39297 0.61424 0.91402 0.0
C953 C 0.39336 0.54918 0.90002 0.0
C954 C 0.37914 0.55603 0.91773 0.0
C955 C 0.36699 0.59488 0.94335 0.0
C956 C 0.36787 0.62708 0.95098 0.0
C957 C 0.37936 0.58832 0.92501 0.0
C958 C 0.3802 0.65297 0.93964 0.0
C959 C 0.39276 0.64659 0.92134 0.0
H960 H 0.40239 0.88792 0.14295 0.0
H961 H 0.48941 0.93487 0.16694 0.0
H962 H 0.47013 0.92391 0.19917 0.0
H963 H 0.4299 0.90041 0.22061 0.0
H964 H 0.34232 0.85273 0.19797 0.0
H965 H 0.3601 0.86534 0.1652 0.0
C966 C 0.41701 0.89577 0.15526 0.0
C967 C 0.4477 0.91155 0.15246 0.0
C968 C 0.40563 0.88953 0.17399 0.0
C969 C 0.46624 0.92178 0.16859 0.0
C970 C 0.45508 0.91584 0.18708 0.0
C971 C 0.41449 0.8927 0.20859 0.0
C972 C 0.38491 0.87537 0.21183 0.0
C973 C 0.42503 0.89954 0.18994 0.0
C974 C 0.36523 0.8661 0.19595 0.0
C975 C 0.37548 0.87317 0.17719 0.0
H976 H 0.08021 0.59986 0.85966 0.0
H977 H 0.1395 0.51133 0.85668 0.0
H978 H 0.16249 0.52975 0.82633 0.0
H979 H 0.16174 0.56817 0.79919 0.0
H980 H 0.10489 0.65796 0.80234 0.0
H981 H 0.0855 0.64226 0.83436 0.0
C982 C 0.09877 0.58495 0.85265 0.0
C983 C 0.10753 0.55386 0.8603 0.0
C984 C 0.11215 0.59582 0.83518 0.0
C985 C 0.13158 0.53491 0.8509 0.0
C986 C 0.14487 0.54547 0.83356 0.0
C987 C 0.1454 0.58447 0.80701 0.0
C988 C 0.13433 0.6139 0.79842 0.0
C989 C 0.13459 0.57536 0.82531 0.0
C990 C 0.11366 0.63514 0.80874 0.0
C991 C 0.10247 0.62608 0.82696 0.0
H992 H 0.38677 0.61906 0.11825 0.0
H993 H 0.48101 0.60844 0.09015 0.0
H994 H 0.45689 0.62829 0.06035 0.0
H995 H 0.4084 0.64412 0.04131 0.0
H996 H 0.31323 0.65111 0.06802 0.0
H997 H 0.33813 0.63633 0.0992 0.0
C998 C 0.40208 0.62078 0.10562 0.0
C999 C 0.43584 0.61218 0.1067 0.0
C1000 C 0.38773 0.63096 0.08813 0.0
C1001 C 0.45523 0.61552 0.09013 0.0
C1002 C 0.44137 0.62655 0.0729 0.0
C1003 C 0.39314 0.64211 0.05398 0.0
C1004 C 0.35899 0.64732 0.05244 0.0
C1005 C 0.40758 0.63356 0.07164 0.0
C1006 C 0.33952 0.64627 0.06895 0.0
C1007 C 0.35376 0.63792 0.0867 0.0
H1008 H 0.3943 0.88892 0.37551 0.0
H1009 H 0.36351 0.98441 0.35372 0.0
H1010 H 0.34484 0.95879 0.32414 0.0
H1011 H 0.34214 0.91021 0.30313 0.0
H1012 H 0.36423 0.81394 0.32612 0.0
H1013 H 0.37981 0.8389 0.35712 0.0
C1014 C 0.38255 0.9043 0.36472 0.0
C1015 C 0.38204 0.93906 0.36679 0.0
C1016 C 0.37015 0.88923 0.34794 0.0
C1017 C 0.36632 0.95794 0.35234 0.0
C1018 C 0.35506 0.94327 0.3354 0.0
C1019 C 0.35011 0.89477 0.31505 0.0
C1020 C 0.35363 0.86066 0.31235 0.0
C1021 C 0.35799 0.90915 0.33279 0.0
C1022 C 0.36242 0.84047 0.32791 0.0
C1023 C 0.37118 0.85472 0.34557 0.0
H1024 H 0.06246 0.86625 0.61194 0.0
H1025 H 0.12988 0.9485 0.61704 0.0
H1026 H 0.15659 0.93223 0.58719 0.0
H1027 H 0.15563 0.89891 0.55727 0.0
H1028 H 0.08517 0.8195 0.55157 0.0
H1029 H 0.0649 0.83015 0.58388 0.0
C1030 C 0.0832 0.88044 0.6066 0.0
C1031 C 0.09386 0.90875 0.61659 0.0
C1032 C 0.09779 0.87151 0.58918 0.0
C1033 C 0.12123 0.9265 0.60969 0.0
C1034 C 0.13636 0.91737 0.59251 0.0
C1035 C 0.13649 0.88351 0.56341 0.0
C1036 C 0.12191 0.85841 0.55227 0.0
C1037 C 0.12418 0.89052 0.58181 0.0
C1038 C 0.09671 0.83886 0.56006 0.0
C1039 C 0.08503 0.84505 0.57846 0.0
H1040 H 0.60512 0.45532 0.90367 0.0
H1041 H 0.61986 0.36966 0.86777 0.0
H1042 H 0.63636 0.33743 0.89593 0.0
H1043 H 0.64482 0.33319 0.93124 0.0
H1044 H 0.63323 0.42042 0.96599 0.0
H1045 H 0.61872 0.4528 0.93763 0.0
C1046 C 0.61284 0.42991 0.90174 0.0
C1047 C 0.61112 0.41514 0.88347 0.0
C1048 C 0.62293 0.41173 0.91787 0.0
C1049 C 0.62035 0.38172 0.88164 0.0
C1050 C 0.63003 0.36325 0.89774 0.0
C1051 C 0.63915 0.35929 0.93246 0.0
C1052 C 0.63863 0.37423 0.95064 0.0
C1053 C 0.63099 0.37789 0.91599 0.0
C1054 C 0.63242 0.40823 0.95214 0.0
C1055 C 0.62437 0.42679 0.93594 0.0
H1056 H 0.56274 0.10622 0.15152 0.0
H1057 H 0.65837 0.09679 0.12542 0.0
H1058 H 0.68471 0.12095 0.15399 0.0
H1059 H 0.68061 0.14154 0.18733 0.0
H1060 H 0.58505 0.14745 0.21375 0.0
H1061 H 0.5584 0.12857 0.18406 0.0
C1062 C 0.58926 0.11018 0.15193 0.0
C1063 C 0.6086 0.10008 0.13638 0.0
C1064 C 0.6042 0.12327 0.16851 0.0
C1065 C 0.64303 0.1045 0.13726 0.0
C1066 C 0.65807 0.11827 0.15356 0.0
C1067 C 0.65398 0.13871 0.18643 0.0
C1068 C 0.63475 0.14477 0.20269 0.0
C1069 C 0.63895 0.12719 0.16942 0.0
C1070 C 0.60026 0.14187 0.20146 0.0
C1071 C 0.58505 0.13131 0.18449 0.0
H1072 H 0.89305 0.04937 0.39678 0.0
H1073 H 0.92274 0.14885 0.38289 0.0
H1074 H 0.90284 0.16822 0.41401 0.0
H1075 H 0.88145 0.15565 0.44642 0.0
H1076 H 0.85388 0.05517 0.45989 0.0
H1077 H 0.86806 0.03767 0.42767 0.0
C1078 C 0.89439 0.07546 0.40031 0.0
C1079 C 0.90934 0.0976 0.38752 0.0
C1080 C 0.8836 0.08623 0.41832 0.0
C1081 C 0.9115 0.13124 0.39255 0.0
C1082 C 0.90018 0.14231 0.41035 0.0
C1083 C 0.87819 0.13004 0.4422 0.0
C1084 C 0.86701 0.10675 0.45568 0.0
C1085 C 0.88692 0.11985 0.42358 0.0
C1086 C 0.86293 0.07361 0.44995 0.0
C1087 C 0.87094 0.0635 0.43148 0.0
H1088 H 0.95405 0.36467 0.64246 0.0
H1089 H 0.88092 0.44045 0.6325 0.0
H1090 H 0.85325 0.4253 0.66224 0.0
H1091 H 0.85399 0.3951 0.69326 0.0
H1092 H 0.93091 0.3237 0.70413 0.0
H1093 H 0.95304 0.33269 0.6721 0.0
C1094 C 0.93202 0.37788 0.64674 0.0
C1095 C 0.91994 0.40395 0.63532 0.0
C1096 C 0.91704 0.37 0.66422 0.0
C1097 C 0.89077 0.42012 0.64089 0.0
C1098 C 0.87507 0.4117 0.65804 0.0
C1099 C 0.87519 0.38117 0.68838 0.0
C1100 C 0.89093 0.35887 0.70094 0.0
C1101 C 0.88855 0.38734 0.67012 0.0
C1102 C 0.91859 0.34114 0.69466 0.0
C1103 C 0.93126 0.34628 0.67638 0.0
H1104 H 0.56505 0.12475 0.36132 0.0
H1105 H 0.64521 0.05655 0.37251 0.0
H1106 H 0.67087 0.07253 0.34249 0.0
H1107 H 0.66797 0.1022 0.31157 0.0
H1108 H 0.59113 0.17401 0.30191 0.0
H1109 H 0.56738 0.16114 0.33328 0.0
C1110 C 0.58863 0.11393 0.35767 0.0
C1111 C 0.6025 0.08868 0.3692 0.0
C1112 C 0.60394 0.12397 0.34061 0.0
C1113 C 0.63303 0.07505 0.36375 0.0
C1114 C 0.64802 0.08441 0.3466 0.0
C1115 C 0.64648 0.11552 0.31662 0.0
C1116 C 0.63118 0.13894 0.30461 0.0
C1117 C 0.63324 0.10819 0.33469 0.0
C1118 C 0.60338 0.15612 0.3111 0.0
C1119 C 0.5897 0.14854 0.32892 0.0
H1120 H 0.9493 0.1028 0.6065 0.0
H1121 H 0.85614 0.09866 0.63575 0.0
H1122 H 0.82794 0.12174 0.60743 0.0
H1123 H 0.82945 0.13848 0.57322 0.0
H1124 H 0.92222 0.13661 0.54348 0.0
H1125 H 0.95117 0.12113 0.57308 0.0
C1126 C 0.92295 0.10773 0.60678 0.0
C1127 C 0.90478 0.09951 0.62314 0.0
C1128 C 0.9069 0.11972 0.59029 0.0
C1129 C 0.87053 0.10507 0.62326 0.0
C1130 C 0.85447 0.11819 0.6071 0.0
C1131 C 0.856 0.13485 0.5734 0.0
C1132 C 0.87374 0.13776 0.5563 0.0
C1133 C 0.87229 0.12488 0.59036 0.0
C1134 C 0.90815 0.13364 0.55652 0.0
C1135 C 0.92468 0.12496 0.57341 0.0
H1136 H 0.89181 0.4441 0.85301 0.0
H1137 H 0.88947 0.35008 0.88202 0.0
H1138 H 0.86797 0.32352 0.85282 0.0
H1139 H 0.85438 0.32651 0.81814 0.0
H1140 H 0.86137 0.42004 0.78893 0.0
H1141 H 0.87581 0.44762 0.8191 0.0
C1142 C 0.88575 0.41797 0.85306 0.0
C1143 C 0.89184 0.39907 0.86962 0.0
C1144 C 0.87448 0.40282 0.83612 0.0
C1145 C 0.8848 0.36506 0.8694 0.0
C1146 C 0.87259 0.34991 0.85273 0.0
C1147 C 0.85895 0.35292 0.81854 0.0
C1148 C 0.85794 0.37122 0.80144 0.0
C1149 C 0.86809 0.36841 0.83587 0.0
C1150 C 0.86307 0.40549 0.80196 0.0
C1151 C 0.87111 0.42124 0.81918 0.0
H1152 H 0.55528 0.39271 0.10961 0.0
H1153 H 0.65339 0.42986 0.12138 0.0
H1154 H 0.67233 0.40796 0.09062 0.0
H1155 H 0.65935 0.38266 0.05897 0.0
H1156 H 0.56027 0.34726 0.0478 0.0
H1157 H 0.5437 0.36343 0.07987 0.0
C1158 C 0.58107 0.39525 0.10578 0.0
C1159 C 0.60283 0.41294 0.11783 0.0
C1160 C 0.5916 0.38311 0.08803 0.0
C1161 C 0.636 0.4166 0.1123 0.0
C1162 C 0.64685 0.40407 0.09471 0.0
C1163 C 0.63432 0.37803 0.06371 0.0
C1164 C 0.61101 0.36414 0.0509 0.0
C1165 C 0.62463 0.38799 0.08221 0.0
C1166 C 0.57861 0.35837 0.05723 0.0
C1167 C 0.56906 0.36756 0.07561 0.0
loop_
_geom_bond_atom_site_label_1
_geom_bond_atom_site_label_2
_geom_bond_distance
_geom_bond_site_symmetry_2
_ccdc_geom_bond_type
C0 C1 1.384 . S
C0 C2 1.384 . S
C0 H28 0.931 . S
C1 C0 1.384 . S
C1 C4 1.382 . S
C2 C0 1.384 . S
C2 C3 1.381 . S
C2 H29 0.930 . S
C3 C2 1.381 . S
C3 C5 1.381 . S
C3 C6 1.487 . S
C4 C1 1.382 . S
C4 C5 1.387 . S
C4 H30 0.930 . S
C5 C3 1.381 . S
C5 C4 1.387 . S
C5 H31 0.931 1_565 S
C6 C3 1.487 . S
C6 C13 1.399 . S
C6 N44 1.343 1_565 S
C7 C8 1.384 . S
C7 C9 1.384 . S
C7 H32 0.931 . S
C8 C7 1.384 . S
C8 C11 1.382 . S
C9 C7 1.384 . S
C9 C10 1.381 . S
C9 H33 0.930 . S
C10 C9 1.381 . S
C10 C12 1.381 . S
C10 C13 1.487 . S
C11 C8 1.382 . S
C11 C12 1.387 . S
C11 H34 0.930 . S
C12 C10 1.381 . S
C12 C11 1.387 . S
C12 H35 0.931 . S
C13 C6 1.399 . S
C13 C10 1.487 . S
C13 N45 1.319 1_455 S
C14 C15 1.384 . S
C14 C16 1.384 . S
C14 H36 0.931 . S
C15 C14 1.384 . S
C15 C18 1.382 . S
C16 C14 1.384 . S
C16 C17 1.381 . S
C16 H37 0.930 . S
C17 C16 1.381 . S
C17 C19 1.381 . S
C17 C20 1.487 . S
C18 C15 1.382 . S
C18 C19 1.387 . S
C18 H38 0.930 . S
C19 C17 1.381 . S
C19 C18 1.387 . S
C19 H39 0.931 1_545 S
C20 C17 1.487 . S
C20 C27 1.399 . S
C20 N45 1.366 1_545 S
C21 C22 1.384 . S
C21 C23 1.384 . S
C21 H40 0.931 . S
C22 C21 1.384 . S
C22 C25 1.382 . S
C23 C21 1.384 . S
C23 C24 1.381 . S
C23 H41 0.930 . S
C24 C23 1.381 . S
C24 C26 1.381 . S
C24 C27 1.487 . S
C25 C22 1.382 . S
C25 C26 1.387 . S
C25 H42 0.930 . S
C26 C24 1.381 . S
C26 C25 1.387 . S
C26 H43 0.931 . S
C27 C20 1.399 . S
C27 C24 1.487 . S
C27 N44 1.343 1_655 S
H28 C0 0.931 . S
H29 C2 0.930 . S
H30 C4 0.930 . S
H31 C5 0.931 1_545 S
H32 C7 0.931 . S
H33 C9 0.930 . S
H34 C11 0.930 . S
H35 C12 0.931 . S
H36 C14 0.931 . S
H37 C16 0.930 . S
H38 C18 0.930 . S
H39 C19 0.931 1_565 S
H40 C21 0.931 . S
H41 C23 0.930 . S
H42 C25 0.930 . S
H43 C26 0.931 . S
N44 C6 1.343 1_545 S
N44 C27 1.343 1_455 S
N45 C13 1.319 1_655 S
N45 C20 1.366 1_565 S
C46 C47 1.384 . S
C46 C48 1.384 . S
C46 H74 0.931 . S
C47 C46 1.384 . S
C47 C50 1.382 . S
C48 C46 1.384 . S
C48 C49 1.381 . S
C48 H75 0.930 . S
C49 C48 1.381 . S
C49 C51 1.381 . S
C49 C52 1.487 . S
C50 C47 1.382 . S
C50 C51 1.387 . S
C50 H76 0.930 . S
C51 C49 1.381 . S
C51 C50 1.387 . S
C51 H77 0.931 1_655 S
C52 C49 1.487 . S
C52 C59 1.399 . S
C52 N90 1.343 1_655 S
C53 C54 1.384 . S
C53 C55 1.384 . S
C53 H78 0.931 . S
C54 C53 1.384 . S
C54 C57 1.382 . S
C55 C53 1.384 . S
C55 C56 1.381 . S
C55 H79 0.930 . S
C56 C55 1.381 . S
C56 C58 1.381 . S
C56 C59 1.487 . S
C57 C54 1.382 . S
C57 C58 1.387 . S
C57 H80 0.930 . S
C58 C56 1.381 . S
C58 C57 1.387 . S
C58 H81 0.931 . S
C59 C52 1.399 . S
C59 C56 1.487 . S
C59 N91 1.343 . S
C60 C61 1.384 . S
C60 C62 1.384 . S
C60 H82 0.931 . S
C61 C60 1.384 . S
C61 C64 1.382 . S
C62 C60 1.384 . S
C62 C63 1.381 . S
C62 H83 0.930 . S
C63 C62 1.381 . S
C63 C65 1.381 . S
C63 C66 1.487 . S
C64 C61 1.382 . S
C64 C65 1.387 . S
C64 H84 0.930 . S
C65 C63 1.381 . S
C65 C64 1.387 . S
C65 H85 0.931 1_455 S
C66 C63 1.487 . S
C66 C73 1.399 . S
C66 N91 1.343 1_455 S
C67 C68 1.384 . S
C67 C69 1.384 . S
C67 H86 0.931 . S
C68 C67 1.384 . S
C68 C71 1.382 . S
C69 C67 1.384 . S
C69 C70 1.381 . S
C69 H87 0.930 . S
C70 C69 1.381 . S
C70 C72 1.381 . S
C70 C73 1.487 . S
C71 C68 1.382 . S
C71 C72 1.387 . S
C71 H88 0.930 . S
C72 C70 1.381 . S
C72 C71 1.387 . S
C72 H89 0.931 . S
C73 C66 1.399 . S
C73 C70 1.487 . S
C73 N90 1.343 . S
H74 C46 0.931 . S
H75 C48 0.930 . S
H76 C50 0.930 . S
H77 C51 0.931 1_455 S
H78 C53 0.931 . S
H79 C55 0.930 . S
H80 C57 0.930 . S
H81 C58 0.931 . S
H82 C60 0.931 . S
H83 C62 0.930 . S
H84 C64 0.930 . S
H85 C65 0.931 1_655 S
H86 C67 0.931 . S
H87 C69 0.930 . S
H88 C71 0.930 . S
H89 C72 0.931 . S
N90 C52 1.343 1_455 S
N90 C73 1.343 . S
N91 C59 1.343 . S
N91 C66 1.343 1_655 S
C92 C93 1.384 . S
C92 C94 1.384 . S
C92 H120 0.931 . S
C93 C92 1.384 . S
C93 C96 1.382 . S
C94 C92 1.384 . S
C94 C95 1.381 . S
C94 H121 0.930 . S
C95 C94 1.381 . S
C95 C97 1.381 . S
C95 C98 1.487 . S
C96 C93 1.382 . S
C96 C97 1.387 . S
C96 H122 0.930 . S
C97 C95 1.381 . S
C97 C96 1.387 . S
C97 H123 0.931 . S
C98 C95 1.487 . S
C98 C105 1.399 . S
C98 N136 1.343 . S
C99 C100 1.384 . S
C99 C101 1.384 . S
C99 H124 0.931 . S
C100 C99 1.384 . S
C100 C103 1.382 . S
C101 C99 1.384 . S
C101 C102 1.381 . S
C101 H125 0.930 . S
C102 C101 1.381 . S
C102 C104 1.381 . S
C102 C105 1.487 . S
C103 C100 1.382 . S
C103 C104 1.387 . S
C103 H126 0.930 . S
C104 C102 1.381 . S
C104 C103 1.387 . S
C104 H127 0.931 . S
C105 C98 1.399 . S
C105 C102 1.487 . S
C105 N137 1.343 . S
C106 C107 1.384 . S
C106 C108 1.384 . S
C106 H128 0.931 . S
C107 C106 1.384 . S
C107 C110 1.382 . S
C108 C106 1.384 . S
C108 C109 1.381 . S
C108 H129 0.930 . S
C109 C108 1.381 . S
C109 C111 1.381 . S
C109 C112 1.487 . S
C110 C107 1.382 . S
C110 C111 1.387 . S
C110 H130 0.930 . S
C111 C109 1.381 . S
C111 C110 1.387 . S
C111 H131 0.931 . S
C112 C109 1.487 . S
C112 C119 1.399 . S
C112 N137 1.343 . S
C113 C114 1.384 . S
C113 C115 1.384 . S
C113 H132 0.931 . S
C114 C113 1.384 . S
C114 C117 1.382 . S
C115 C113 1.384 . S
C115 C116 1.381 . S
C115 H133 0.930 . S
C116 C115 1.381 . S
C116 C118 1.381 . S
C116 C119 1.487 . S
C117 C114 1.382 . S
C117 C118 1.387 . S
C117 H134 0.930 . S
C118 C116 1.381 . S
C118 C117 1.387 . S
C118 H135 0.931 . S
C119 C112 1.399 . S
C119 C116 1.487 . S
C119 N136 1.343 . S
H120 C92 0.931 . S
H121 C94 0.930 . S
H122 C96 0.930 . S
H123 C97 0.931 . S
H124 C99 0.931 . S
H125 C101 0.930 . S
H126 C103 0.930 . S
H127 C104 0.931 . S
H128 C106 0.931 . S
H129 C108 0.930 . S
H130 C110 0.930 . S
H131 C111 0.931 . S
H132 C113 0.931 . S
H133 C115 0.930 . S
H134 C117 0.930 . S
H135 C118 0.931 . S
N136 C98 1.343 . S
N136 C119 1.343 . S
N137 C105 1.343 . S
N137 C112 1.343 . S
C138 C139 1.384 . S
C138 C140 1.384 . S
C138 H166 0.931 . S
C139 C138 1.384 . S
C139 C142 1.382 . S
C140 C138 1.384 . S
C140 C141 1.381 . S
C140 H167 0.930 . S
C141 C140 1.381 . S
C141 C143 1.381 . S
C141 C144 1.487 . S
C142 C139 1.382 . S
C142 C143 1.387 . S
C142 H168 0.930 . S
C143 C141 1.381 . S
C143 C142 1.387 . S
C143 H169 0.931 . S
C144 C141 1.487 . S
C144 C151 1.399 . S
C144 N182 1.343 1_565 S
C145 C146 1.384 . S
C145 C147 1.384 . S
C145 H170 0.931 . S
C146 C145 1.384 . S
C146 C149 1.382 . S
C147 C145 1.384 . S
C147 C148 1.381 . S
C147 H171 0.930 . S
C148 C147 1.381 . S
C148 C150 1.381 . S
C148 C151 1.487 . S
C149 C146 1.382 . S
C149 C150 1.387 . S
C149 H172 0.930 . S
C150 C148 1.381 . S
C150 C149 1.387 . S
C150 H173 0.931 . S
C151 C144 1.399 . S
C151 C148 1.487 . S
C151 N183 1.343 1_565 S
C152 C153 1.384 . S
C152 C154 1.384 . S
C152 H174 0.931 . S
C153 C152 1.384 . S
C153 C156 1.382 . S
C154 C152 1.384 . S
C154 C155 1.381 . S
C154 H175 0.930 . S
C155 C154 1.381 . S
C155 C157 1.381 . S
C155 C158 1.487 . S
C156 C153 1.382 . S
C156 C157 1.387 . S
C156 H176 0.930 . S
C157 C155 1.381 . S
C157 C156 1.387 . S
C157 H177 0.931 . S
C158 C155 1.487 . S
C158 C165 1.399 . S
C158 N183 1.343 . S
C159 C160 1.384 . S
C159 C161 1.384 . S
C159 H178 0.931 . S
C160 C159 1.384 . S
C160 C163 1.382 . S
C161 C159 1.384 . S
C161 C162 1.381 . S
C161 H179 0.930 . S
C162 C161 1.381 . S
C162 C164 1.381 . S
C162 C165 1.487 . S
C163 C160 1.382 . S
C163 C164 1.387 . S
C163 H180 0.930 . S
C164 C162 1.381 . S
C164 C163 1.387 . S
C164 H181 0.931 . S
C165 C158 1.399 . S
C165 C162 1.487 . S
C165 N182 1.343 . S
H166 C138 0.931 . S
H167 C140 0.930 . S
H168 C142 0.930 . S
H169 C143 0.931 . S
H170 C145 0.931 . S
H171 C147 0.930 . S
H172 C149 0.930 . S
H173 C150 0.931 . S
H174 C152 0.931 . S
H175 C154 0.930 . S
H176 C156 0.930 . S
H177 C157 0.931 . S
H178 C159 0.931 . S
H179 C161 0.930 . S
H180 C163 0.930 . S
H181 C164 0.931 . S
N182 C144 1.343 1_545 S
N182 C165 1.343 . S
N183 C151 1.343 1_545 S
N183 C158 1.343 . S
C184 C185 1.384 . S
C184 C186 1.384 . S
C184 H212 0.931 . S
C185 C184 1.384 . S
C185 C188 1.382 . S
C186 C184 1.384 . S
C186 C187 1.381 . S
C186 H213 0.930 . S
C187 C186 1.381 . S
C187 C189 1.381 . S
C187 C190 1.487 . S
C188 C185 1.382 . S
C188 C189 1.387 . S
C188 H214 0.930 . S
C189 C187 1.381 . S
C189 C188 1.387 . S
C189 H215 0.931 . S
C190 C187 1.487 . S
C190 C197 1.399 . S
C190 N228 1.343 . S
C191 C192 1.384 . S
C191 C193 1.384 . S
C191 H216 0.931 . S
C192 C191 1.384 . S
C192 C195 1.382 . S
C193 C191 1.384 . S
C193 C194 1.381 . S
C193 H217 0.930 . S
C194 C193 1.381 . S
C194 C196 1.381 . S
C194 C197 1.487 . S
C195 C192 1.382 . S
C195 C196 1.387 . S
C195 H218 0.930 . S
C196 C194 1.381 . S
C196 C195 1.387 . S
C196 H219 0.931 . S
C197 C190 1.399 . S
C197 C194 1.487 . S
C197 N229 1.364 . S
C198 C199 1.384 . S
C198 C200 1.384 . S
C198 H220 0.931 . S
C199 C198 1.384 . S
C199 C202 1.382 . S
C200 C198 1.384 . S
C200 C201 1.381 . S
C200 H221 0.930 . S
C201 C200 1.381 . S
C201 C203 1.381 . S
C201 C204 1.487 . S
C202 C199 1.382 . S
C202 C203 1.387 . S
C202 H222 0.930 . S
C203 C201 1.381 . S
C203 C202 1.387 . S
C203 H223 0.931 . S
C204 C201 1.487 . S
C204 C211 1.399 . S
C204 N229 1.325 1_655 S
C205 C206 1.384 . S
C205 C207 1.384 . S
C205 H224 0.931 . S
C206 C205 1.384 . S
C206 C209 1.382 . S
C207 C205 1.384 . S
C207 C208 1.381 . S
C207 H225 0.930 . S
C208 C207 1.381 . S
C208 C210 1.381 . S
C208 C211 1.487 . S
C209 C206 1.382 . S
C209 C210 1.387 . S
C209 H226 0.930 . S
C210 C208 1.381 . S
C210 C209 1.387 . S
C210 H227 0.931 . S
C211 C204 1.399 . S
C211 C208 1.487 . S
C211 N228 1.343 1_655 S
H212 C184 0.931 . S
H213 C186 0.930 . S
H214 C188 0.930 . S
H215 C189 0.931 . S
H216 C191 0.931 . S
H217 C193 0.930 . S
H218 C195 0.930 . S
H219 C196 0.931 . S
H220 C198 0.931 . S
H221 C200 0.930 . S
H222 C202 0.930 . S
H223 C203 0.931 . S
H224 C205 0.931 . S
H225 C207 0.930 . S
H226 C209 0.930 . S
H227 C210 0.931 . S
N228 C190 1.343 . S
N228 C211 1.343 1_455 S
N229 C197 1.364 . S
N229 C204 1.325 1_455 S
C230 C231 1.384 . S
C230 C232 1.384 . S
C230 H258 0.931 . S
C231 C230 1.384 . S
C231 C234 1.382 . S
C232 C230 1.384 . S
C232 C233 1.381 . S
C232 H259 0.930 . S
C233 C232 1.381 . S
C233 C235 1.381 . S
C233 C236 1.487 . S
C234 C231 1.382 . S
C234 C235 1.387 . S
C234 H260 0.930 . S
C235 C233 1.381 . S
C235 C234 1.387 . S
C235 H261 0.931 . S
C236 C233 1.487 . S
C236 C243 1.399 . S
C236 N274 1.343 . S
C237 C238 1.384 . S
C237 C239 1.384 . S
C237 H262 0.931 . S
C238 C237 1.384 . S
C238 C241 1.382 . S
C239 C237 1.384 . S
C239 C240 1.381 . S
C239 H263 0.930 . S
C240 C239 1.381 . S
C240 C242 1.381 . S
C240 C243 1.487 . S
C241 C238 1.382 . S
C241 C242 1.387 . S
C241 H264 0.930 . S
C242 C240 1.381 . S
C242 C241 1.387 . S
C242 H265 0.931 . S
C243 C236 1.399 . S
C243 C240 1.487 . S
C243 N275 1.343 . S
C244 C245 1.384 . S
C244 C246 1.384 . S
C244 H266 0.931 . S
C245 C244 1.384 . S
C245 C248 1.382 . S
C246 C244 1.384 . S
C246 C247 1.381 . S
C246 H267 0.930 . S
C247 C246 1.381 . S
C247 C249 1.381 . S
C247 C250 1.487 . S
C248 C245 1.382 . S
C248 C249 1.387 . S
C248 H268 0.930 . S
C249 C247 1.381 . S
C249 C248 1.387 . S
C249 H269 0.931 . S
C250 C247 1.487 . S
C250 C257 1.399 . S
C250 N275 1.343 . S
C251 C252 1.384 . S
C251 C253 1.384 . S
C251 H270 0.931 . S
C252 C251 1.384 . S
C252 C255 1.382 . S
C253 C251 1.384 . S
C253 C254 1.381 . S
C253 H271 0.930 . S
C254 C253 1.381 . S
C254 C256 1.381 . S
C254 C257 1.487 . S
C255 C252 1.382 . S
C255 C256 1.387 . S
C255 H272 0.930 . S
C256 C254 1.381 . S
C256 C255 1.387 . S
C256 H273 0.931 . S
C257 C250 1.399 . S
C257 C254 1.487 . S
C257 N274 1.343 . S
H258 C230 0.931 . S
H259 C232 0.930 . S
H260 C234 0.930 . S
H261 C235 0.931 . S
H262 C237 0.931 . S
H263 C239 0.930 . S
H264 C241 0.930 . S
H265 C242 0.931 . S
H266 C244 0.931 . S
H267 C246 0.930 . S
H268 C248 0.930 . S
H269 C249 0.931 . S
H270 C251 0.931 . S
H271 C253 0.930 . S
H272 C255 0.930 . S
H273 C256 0.931 . S
N274 C236 1.343 . S
N274 C257 1.343 . S
N275 C243 1.343 . S
N275 C250 1.343 . S
C276 C277 1.384 . S
C276 C278 1.384 . S
C276 H304 0.931 . S
C277 C276 1.384 . S
C277 C280 1.382 . S
C278 C276 1.384 . S
C278 C279 1.381 . S
C278 H305 0.930 . S
C279 C278 1.381 . S
C279 C281 1.381 . S
C279 C282 1.487 . S
C280 C277 1.382 . S
C280 C281 1.387 . S
C280 H306 0.930 . S
C281 C279 1.381 . S
C281 C280 1.387 . S
C281 H307 0.931 1_565 S
C282 C279 1.487 . S
C282 C289 1.399 . S
C282 N320 1.343 1_565 S
C283 C284 1.384 . S
C283 C285 1.384 . S
C283 H308 0.931 . S
C284 C283 1.384 . S
C284 C287 1.382 . S
C285 C283 1.384 . S
C285 C286 1.381 . S
C285 H309 0.930 . S
C286 C285 1.381 . S
C286 C288 1.381 . S
C286 C289 1.487 . S
C287 C284 1.382 . S
C287 C288 1.387 . S
C287 H310 0.930 . S
C288 C286 1.381 . S
C288 C287 1.387 . S
C288 H311 0.931 . S
C289 C282 1.399 . S
C289 C286 1.487 . S
C289 N321 1.343 1_565 S
C290 C291 1.384 . S
C290 C292 1.384 . S
C290 H312 0.931 . S
C291 C290 1.384 . S
C291 C294 1.382 . S
C292 C290 1.384 . S
C292 C293 1.381 . S
C292 H313 0.930 . S
C293 C292 1.381 . S
C293 C295 1.381 . S
C293 C296 1.487 . S
C294 C291 1.382 . S
C294 C295 1.387 . S
C294 H314 0.930 . S
C295 C293 1.381 . S
C295 C294 1.387 . S
C295 H315 0.945 . S
C296 C293 1.487 . S
C296 C303 1.399 . S
C296 N321 1.343 . S
C297 C298 1.384 . S
C297 C299 1.384 . S
C297 H316 0.931 . S
C298 C297 1.384 . S
C298 C301 1.382 . S
C299 C297 1.384 . S
C299 C300 1.381 . S
C299 H317 0.930 . S
C300 C299 1.381 . S
C300 C302 1.381 . S
C300 C303 1.487 . S
C301 C298 1.382 . S
C301 C302 1.387 . S
C301 H318 0.930 . S
C302 C300 1.381 . S
C302 C301 1.387 . S
C302 H319 0.931 . S
C303 C296 1.399 . S
C303 C300 1.487 . S
C303 N320 1.343 . S
H304 C276 0.931 . S
H305 C278 0.930 . S
H306 C280 0.930 . S
H307 C281 0.931 1_545 S
H308 C283 0.931 . S
H309 C285 0.930 . S
H310 C287 0.930 . S
H311 C288 0.931 . S
H312 C290 0.931 . S
H313 C292 0.930 . S
H314 C294 0.930 . S
H315 C295 0.945 . S
H316 C297 0.931 . S
H317 C299 0.930 . S
H318 C301 0.930 . S
H319 C302 0.931 . S
N320 C282 1.343 1_545 S
N320 C303 1.343 . S
N321 C289 1.343 1_545 S
N321 C296 1.343 . S
C322 C323 1.384 . S
C322 C324 1.384 . S
C322 H350 0.931 . S
C323 C322 1.384 . S
C323 C326 1.382 . S
C324 C322 1.384 . S
C324 C325 1.381 . S
C324 H351 0.930 . S
C325 C324 1.381 . S
C325 C327 1.381 . S
C325 C328 1.487 . S
C326 C323 1.382 . S
C326 C327 1.387 . S
C326 H352 0.930 . S
C327 C325 1.381 . S
C327 C326 1.387 . S
C327 H353 0.898 1_455 S
C328 C325 1.487 . S
C328 C335 1.399 . S
C328 N366 1.348 1_565 S
C329 C330 1.384 . S
C329 C331 1.384 . S
C329 H354 0.931 . S
C330 C329 1.384 . S
C330 C333 1.382 . S
C331 C329 1.384 . S
C331 C332 1.381 . S
C331 H355 0.930 . S
C332 C331 1.381 . S
C332 C334 1.381 . S
C332 C335 1.487 . S
C333 C330 1.382 . S
C333 C334 1.387 . S
C333 H356 0.930 . S
C334 C332 1.381 . S
C334 C333 1.387 . S
C334 H357 0.931 . S
C335 C328 1.399 . S
C335 C332 1.487 . S
C335 N367 1.343 1_565 S
C336 C337 1.384 . S
C336 C338 1.384 . S
C336 H358 0.931 . S
C337 C336 1.384 . S
C337 C340 1.382 . S
C338 C336 1.384 . S
C338 C339 1.381 . S
C338 H359 0.930 . S
C339 C338 1.381 . S
C339 C341 1.381 . S
C339 C342 1.487 . S
C340 C337 1.382 . S
C340 C341 1.387 . S
C340 H360 0.930 . S
C341 C339 1.381 . S
C341 C340 1.387 . S
C341 H361 0.931 1_655 S
C342 C339 1.487 . S
C342 C349 1.399 . S
C342 N367 1.343 1_655 S
C343 C344 1.384 . S
C343 C345 1.384 . S
C343 H362 0.931 . S
C344 C343 1.384 . S
C344 C347 1.382 . S
C345 C343 1.384 . S
C345 C346 1.381 . S
C345 H363 0.930 . S
C346 C345 1.381 . S
C346 C348 1.381 . S
C346 C349 1.487 . S
C347 C344 1.382 . S
C347 C348 1.387 . S
C347 H364 0.930 . S
C348 C346 1.381 . S
C348 C347 1.387 . S
C348 H365 0.931 . S
C349 C342 1.399 . S
C349 C346 1.487 . S
C349 N366 1.339 1_655 S
H350 C322 0.931 . S
H351 C324 0.930 . S
H352 C326 0.930 . S
H353 C327 0.898 1_655 S
H354 C329 0.931 . S
H355 C331 0.930 . S
H356 C333 0.930 . S
H357 C334 0.931 . S
H358 C336 0.931 . S
H359 C338 0.930 . S
H360 C340 0.930 . S
H361 C341 0.931 1_455 S
H362 C343 0.931 . S
H363 C345 0.930 . S
H364 C347 0.930 . S
H365 C348 0.931 . S
N366 C328 1.348 1_545 S
N366 C349 1.339 1_455 S
N367 C335 1.343 1_545 S
N367 C342 1.343 1_455 S
Mn368 O373 2.095 1_554 S
Mn368 O383 2.162 . S
Mn368 O384 2.297 . S
Mn368 O392 2.385 . S
Mn368 O393 2.209 . S
Mn368 O394 2.094 1_554 S
Mn369 O374 2.121 . S
Mn369 N376 2.257 1_556 S
Mn369 N385 2.282 1_556 S
Mn369 O393 2.215 1_556 S
Mn369 O395 2.117 . S
C370 O392 1.234 . S
C370 O393 1.283 . S
C371 O383 1.281 . S
C371 O384 1.236 . S
C372 O394 1.240 . S
C372 O395 1.264 . S
O373 Mn368 2.095 1_556 S
O373 C382 1.250 . S
O374 Mn369 2.121 . S
O374 C382 1.258 . S
C375 N376 1.326 1_556 S
C375 C379 1.460 1_556 S
C375 H381 0.929 . S
N376 Mn369 2.257 1_554 S
N376 C375 1.326 1_554 S
N376 C380 1.362 . S
C377 C378 1.258 . S
C377 C380 1.431 . S
C377 C397 1.449 . S
C378 C377 1.258 . S
C378 C379 1.477 . S
C378 H398 0.931 . S
C379 C375 1.460 1_554 S
C379 C378 1.477 . S
C379 H399 0.930 1_554 S
C380 N376 1.362 . S
C380 C377 1.431 . S
C380 C390 1.476 . S
H381 C375 0.929 . S
C382 O373 1.250 . S
C382 O374 1.258 . S
O383 Mn368 2.162 . S
O383 C371 1.281 . S
O384 Mn368 2.297 . S
O384 C371 1.236 . S
N385 Mn369 2.282 1_554 S
N385 C386 1.328 . S
N385 C390 1.318 . S
C386 N385 1.328 . S
C386 C387 1.457 . S
C386 H391 0.929 . S
C387 C386 1.457 . S
C387 C388 1.291 . S
C387 H400 0.931 . S
C388 C387 1.291 . S
C388 C389 1.373 . S
C388 H401 0.929 . S
C389 C388 1.373 . S
C389 C390 1.396 . S
C389 C396 1.403 . S
C390 C380 1.476 . S
C390 N385 1.318 . S
C390 C389 1.396 . S
H391 C386 0.929 . S
O392 Mn368 2.385 . S
O392 C370 1.234 . S
O393 Mn368 2.209 . S
O393 Mn369 2.215 1_554 S
O393 C370 1.283 . S
O394 Mn368 2.094 1_556 S
O394 C372 1.240 . S
O395 Mn369 2.117 . S
O395 C372 1.264 . S
C396 C389 1.403 . S
C396 C397 1.399 . S
C396 H402 0.929 . S
C397 C377 1.449 . S
C397 C396 1.399 . S
C397 H403 0.930 . S
H398 C378 0.931 . S
H399 C379 0.930 1_556 S
H400 C387 0.931 . S
H401 C388 0.929 . S
H402 C396 0.929 . S
H403 C397 0.930 . S
Mn404 O409 2.095 . S
Mn404 O419 2.162 . S
Mn404 O420 2.297 . S
Mn404 O428 2.385 . S
Mn404 O429 2.209 . S
Mn404 O430 2.094 . S
Mn405 O410 2.121 . S
Mn405 N412 2.257 . S
Mn405 N421 2.282 . S
Mn405 O429 2.215 . S
Mn405 O431 2.117 . S
C406 O428 1.234 . S
C406 O429 1.283 . S
C407 O419 1.281 . S
C407 O420 1.236 . S
C408 O430 1.240 . S
C408 O431 1.264 . S
O409 Mn404 2.095 . S
O409 C418 1.250 . S
O410 Mn405 2.121 . S
O410 C418 1.258 . S
C411 N412 1.326 . S
C411 C415 1.460 . S
C411 H417 0.929 . S
N412 Mn405 2.257 . S
N412 C411 1.326 . S
N412 C416 1.362 . S
C413 C414 1.258 . S
C413 C416 1.431 . S
C413 C433 1.449 . S
C414 C413 1.258 . S
C414 C415 1.477 . S
C414 H434 0.931 . S
C415 C411 1.460 . S
C415 C414 1.477 . S
C415 H435 0.930 . S
C416 N412 1.362 . S
C416 C413 1.431 . S
C416 C426 1.476 . S
H417 C411 0.929 . S
C418 O409 1.250 . S
C418 O410 1.258 . S
O419 Mn404 2.162 . S
O419 C407 1.281 . S
O420 Mn404 2.297 . S
O420 C407 1.236 . S
N421 Mn405 2.282 . S
N421 C422 1.328 . S
N421 C426 1.318 . S
C422 N421 1.328 . S
C422 C423 1.457 . S
C422 H427 0.929 . S
C423 C422 1.457 . S
C423 C424 1.291 . S
C423 H436 0.931 . S
C424 C423 1.291 . S
C424 C425 1.373 . S
C424 H437 0.929 . S
C425 C424 1.373 . S
C425 C426 1.396 . S
C425 C432 1.403 . S
C426 C416 1.476 . S
C426 N421 1.318 . S
C426 C425 1.396 . S
H427 C422 0.929 . S
O428 Mn404 2.385 . S
O428 C406 1.234 . S
O429 Mn404 2.209 . S
O429 Mn405 2.215 . S
O429 C406 1.283 . S
O430 Mn404 2.094 . S
O430 C408 1.240 . S
O431 Mn405 2.117 . S
O431 C408 1.264 . S
C432 C425 1.403 . S
C432 C433 1.399 . S
C432 H438 0.929 . S
C433 C413 1.449 . S
C433 C432 1.399 . S
C433 H439 0.930 . S
H434 C414 0.931 . S
H435 C415 0.930 . S
H436 C423 0.931 . S
H437 C424 0.929 . S
H438 C432 0.929 . S
H439 C433 0.930 . S
Mn440 O445 2.095 . S
Mn440 O455 2.162 . S
Mn440 O456 2.297 . S
Mn440 O464 2.385 . S
Mn440 O465 2.209 . S
Mn440 O466 2.094 . S
Mn441 O446 2.121 . S
Mn441 N448 2.257 . S
Mn441 N457 2.282 . S
Mn441 O465 2.215 . S
Mn441 O467 2.117 . S
C442 O464 1.234 . S
C442 O465 1.283 . S
C443 O455 1.281 . S
C443 O456 1.236 . S
C444 O466 1.240 . S
C444 O467 1.264 . S
O445 Mn440 2.095 . S
O445 C454 1.250 . S
O446 Mn441 2.121 . S
O446 C454 1.258 . S
C447 N448 1.326 . S
C447 C451 1.460 . S
C447 H453 0.929 . S
N448 Mn441 2.257 . S
N448 C447 1.326 . S
N448 C452 1.362 . S
C449 C450 1.258 . S
C449 C452 1.431 . S
C449 C469 1.449 . S
C450 C449 1.258 . S
C450 C451 1.477 . S
C450 H470 0.931 . S
C451 C447 1.460 . S
C451 C450 1.477 . S
C451 H471 0.930 . S
C452 N448 1.362 . S
C452 C449 1.431 . S
C452 C462 1.476 . S
H453 C447 0.929 . S
C454 O445 1.250 . S
C454 O446 1.258 . S
O455 Mn440 2.162 . S
O455 C443 1.281 . S
O456 Mn440 2.297 . S
O456 C443 1.236 . S
N457 Mn441 2.282 . S
N457 C458 1.328 . S
N457 C462 1.318 . S
C458 N457 1.328 . S
C458 C459 1.457 . S
C458 H463 0.929 . S
C459 C458 1.457 . S
C459 C460 1.291 . S
C459 H472 0.931 . S
C460 C459 1.291 . S
C460 C461 1.373 . S
C460 H473 0.929 . S
C461 C460 1.373 . S
C461 C462 1.396 . S
C461 C468 1.403 . S
C462 C452 1.476 . S
C462 N457 1.318 . S
C462 C461 1.396 . S
H463 C458 0.929 . S
O464 Mn440 2.385 . S
O464 C442 1.234 . S
O465 Mn440 2.209 . S
O465 Mn441 2.215 . S
O465 C442 1.283 . S
O466 Mn440 2.094 . S
O466 C444 1.240 . S
O467 Mn441 2.117 . S
O467 C444 1.264 . S
C468 C461 1.403 . S
C468 C469 1.399 . S
C468 H474 0.929 . S
C469 C449 1.449 . S
C469 C468 1.399 . S
C469 H475 0.930 . S
H470 C450 0.931 . S
H471 C451 0.930 . S
H472 C459 0.931 . S
H473 C460 0.929 . S
H474 C468 0.929 . S
H475 C469 0.930 . S
Mn476 O481 2.095 . S
Mn476 O491 2.162 . S
Mn476 O492 2.297 . S
Mn476 O500 2.385 . S
Mn476 O501 2.209 . S
Mn476 O502 2.094 . S
Mn477 O482 2.121 . S
Mn477 N484 2.257 . S
Mn477 N493 2.282 . S
Mn477 O501 2.215 . S
Mn477 O503 2.117 . S
C478 O500 1.234 . S
C478 O501 1.283 . S
C479 O491 1.281 . S
C479 O492 1.236 . S
C480 O502 1.240 . S
C480 O503 1.264 . S
O481 Mn476 2.095 . S
O481 C490 1.250 . S
O482 Mn477 2.121 . S
O482 C490 1.258 . S
C483 N484 1.326 . S
C483 C487 1.460 . S
C483 H489 0.929 . S
N484 Mn477 2.257 . S
N484 C483 1.326 . S
N484 C488 1.362 . S
C485 C486 1.258 . S
C485 C488 1.431 . S
C485 C505 1.449 . S
C486 C485 1.258 . S
C486 C487 1.477 . S
C486 H506 0.931 . S
C487 C483 1.460 . S
C487 C486 1.477 . S
C487 H507 0.930 . S
C488 N484 1.362 . S
C488 C485 1.431 . S
C488 C498 1.476 . S
H489 C483 0.929 . S
C490 O481 1.250 . S
C490 O482 1.258 . S
O491 Mn476 2.162 . S
O491 C479 1.281 . S
O492 Mn476 2.297 . S
O492 C479 1.236 . S
N493 Mn477 2.282 . S
N493 C494 1.328 . S
N493 C498 1.318 . S
C494 N493 1.328 . S
C494 C495 1.457 . S
C494 H499 0.929 . S
C495 C494 1.457 . S
C495 C496 1.291 . S
C495 H508 0.931 . S
C496 C495 1.291 . S
C496 C497 1.373 . S
C496 H509 0.929 . S
C497 C496 1.373 . S
C497 C498 1.396 . S
C497 C504 1.403 . S
C498 C488 1.476 . S
C498 N493 1.318 . S
C498 C497 1.396 . S
H499 C494 0.929 . S
O500 Mn476 2.385 . S
O500 C478 1.234 . S
O501 Mn476 2.209 . S
O501 Mn477 2.215 . S
O501 C478 1.283 . S
O502 Mn476 2.094 . S
O502 C480 1.240 . S
O503 Mn477 2.117 . S
O503 C480 1.264 . S
C504 C497 1.403 . S
C504 C505 1.399 . S
C504 H510 0.929 . S
C505 C485 1.449 . S
C505 C504 1.399 . S
C505 H511 0.930 . S
H506 C486 0.931 . S
H507 C487 0.930 . S
H508 C495 0.931 . S
H509 C496 0.929 . S
H510 C504 0.929 . S
H511 C505 0.930 . S
Mn512 O517 2.095 . S
Mn512 O527 2.162 . S
Mn512 O528 2.297 . S
Mn512 O536 2.385 . S
Mn512 O537 2.209 . S
Mn512 O538 2.094 . S
Mn513 O518 2.121 . S
Mn513 N520 2.257 . S
Mn513 N529 2.282 . S
Mn513 O537 2.215 . S
Mn513 O539 2.117 . S
C514 O536 1.234 . S
C514 O537 1.283 . S
C515 O527 1.281 . S
C515 O528 1.236 . S
C516 O538 1.240 . S
C516 O539 1.264 . S
O517 Mn512 2.095 . S
O517 C526 1.250 . S
O518 Mn513 2.121 . S
O518 C526 1.258 . S
C519 N520 1.326 . S
C519 C523 1.460 . S
C519 H525 0.929 . S
N520 Mn513 2.257 . S
N520 C519 1.326 . S
N520 C524 1.362 . S
C521 C522 1.258 . S
C521 C524 1.431 . S
C521 C541 1.449 . S
C522 C521 1.258 . S
C522 C523 1.477 . S
C522 H542 0.931 . S
C523 C519 1.460 . S
C523 C522 1.477 . S
C523 H543 0.930 . S
C524 N520 1.362 . S
C524 C521 1.431 . S
C524 C534 1.476 . S
H525 C519 0.929 . S
C526 O517 1.250 . S
C526 O518 1.258 . S
O527 Mn512 2.162 . S
O527 C515 1.281 . S
O528 Mn512 2.297 . S
O528 C515 1.236 . S
N529 Mn513 2.282 . S
N529 C530 1.328 . S
N529 C534 1.318 . S
C530 N529 1.328 . S
C530 C531 1.457 . S
C530 H535 0.929 . S
C531 C530 1.457 . S
C531 C532 1.291 . S
C531 H544 0.931 . S
C532 C531 1.291 . S
C532 C533 1.373 . S
C532 H545 0.929 . S
C533 C532 1.373 . S
C533 C534 1.396 . S
C533 C540 1.403 . S
C534 C524 1.476 . S
C534 N529 1.318 . S
C534 C533 1.396 . S
H535 C530 0.929 . S
O536 Mn512 2.385 . S
O536 C514 1.234 . S
O537 Mn512 2.209 . S
O537 Mn513 2.215 . S
O537 C514 1.283 . S
O538 Mn512 2.094 . S
O538 C516 1.240 . S
O539 Mn513 2.117 . S
O539 C516 1.264 . S
C540 C533 1.403 . S
C540 C541 1.399 . S
C540 H546 0.929 . S
C541 C521 1.449 . S
C541 C540 1.399 . S
C541 H547 0.930 . S
H542 C522 0.931 . S
H543 C523 0.930 . S
H544 C531 0.931 . S
H545 C532 0.929 . S
H546 C540 0.929 . S
H547 C541 0.930 . S
Mn548 O553 2.095 . S
Mn548 O563 2.162 . S
Mn548 O564 2.297 . S
Mn548 O572 2.385 . S
Mn548 O573 2.209 . S
Mn548 O574 2.094 . S
Mn549 O554 2.121 . S
Mn549 N556 2.257 . S
Mn549 N565 2.282 . S
Mn549 O573 2.215 . S
Mn549 O575 2.117 . S
C550 O572 1.234 . S
C550 O573 1.283 . S
C551 O563 1.281 . S
C551 O564 1.236 . S
C552 O574 1.240 . S
C552 O575 1.264 . S
O553 Mn548 2.095 . S
O553 C562 1.250 . S
O554 Mn549 2.121 . S
O554 C562 1.258 . S
C555 N556 1.326 . S
C555 C559 1.460 . S
C555 H561 0.929 . S
N556 Mn549 2.257 . S
N556 C555 1.326 . S
N556 C560 1.362 . S
C557 C558 1.258 . S
C557 C560 1.431 . S
C557 C577 1.449 . S
C558 C557 1.258 . S
C558 C559 1.477 . S
C558 H578 0.931 . S
C559 C555 1.460 . S
C559 C558 1.477 . S
C559 H579 0.930 . S
C560 N556 1.362 . S
C560 C557 1.431 . S
C560 C570 1.476 . S
H561 C555 0.929 . S
C562 O553 1.250 . S
C562 O554 1.258 . S
O563 Mn548 2.162 . S
O563 C551 1.281 . S
O564 Mn548 2.297 . S
O564 C551 1.236 . S
N565 Mn549 2.282 . S
N565 C566 1.328 . S
N565 C570 1.318 . S
C566 N565 1.328 . S
C566 C567 1.457 . S
C566 H571 0.929 . S
C567 C566 1.457 . S
C567 C568 1.291 . S
C567 H580 0.931 . S
C568 C567 1.291 . S
C568 C569 1.373 . S
C568 H581 0.929 . S
C569 C568 1.373 . S
C569 C570 1.396 . S
C569 C576 1.403 . S
C570 C560 1.476 . S
C570 N565 1.318 . S
C570 C569 1.396 . S
H571 C566 0.929 . S
O572 Mn548 2.385 . S
O572 C550 1.234 . S
O573 Mn548 2.209 . S
O573 Mn549 2.215 . S
O573 C550 1.283 . S
O574 Mn548 2.094 . S
O574 C552 1.240 . S
O575 Mn549 2.117 . S
O575 C552 1.264 . S
C576 C569 1.403 . S
C576 C577 1.399 . S
C576 H582 0.929 . S
C577 C557 1.449 . S
C577 C576 1.399 . S
C577 H583 0.917 1_655 S
H578 C558 0.931 . S
H579 C559 0.930 . S
H580 C567 0.931 . S
H581 C568 0.929 . S
H582 C576 0.929 . S
H583 C577 0.917 1_455 S
Mn584 O589 2.095 . S
Mn584 O599 2.158 1_554 S
Mn584 O600 2.297 1_554 S
Mn584 O608 2.385 1_554 S
Mn584 O609 2.209 1_554 S
Mn584 O610 2.094 . S
Mn585 O590 2.121 . S
Mn585 N592 2.257 1_554 S
Mn585 N601 2.282 1_554 S
Mn585 O609 2.215 1_554 S
Mn585 O611 2.117 . S
C586 O608 1.234 . S
C586 O609 1.283 . S
C587 O599 1.291 . S
C587 O600 1.236 . S
C588 O610 1.240 . S
C588 O611 1.264 . S
O589 Mn584 2.095 . S
O589 C598 1.250 . S
O590 Mn585 2.121 . S
O590 C598 1.258 . S
C591 N592 1.326 1_554 S
C591 C595 1.472 . S
C591 H597 0.929 . S
N592 Mn585 2.257 1_556 S
N592 C591 1.326 1_556 S
N592 C596 1.362 . S
C593 C594 1.258 . S
C593 C596 1.431 . S
C593 C613 1.449 . S
C594 C593 1.258 . S
C594 C595 1.445 1_556 S
C594 H614 0.931 . S
C595 C591 1.472 . S
C595 C594 1.445 1_554 S
C595 H615 0.950 . S
C596 N592 1.362 . S
C596 C593 1.431 . S
C596 C606 1.476 . S
H597 C591 0.929 . S
C598 O589 1.250 . S
C598 O590 1.258 . S
O599 Mn584 2.158 1_556 S
O599 C587 1.291 . S
O600 Mn584 2.297 1_556 S
O600 C587 1.236 . S
N601 Mn585 2.282 1_556 S
N601 C602 1.328 . S
N601 C606 1.318 . S
C602 N601 1.328 . S
C602 C603 1.457 . S
C602 H607 0.929 . S
C603 C602 1.457 . S
C603 C604 1.291 . S
C603 H616 0.931 . S
C604 C603 1.291 . S
C604 C605 1.373 . S
C604 H617 0.929 . S
C605 C604 1.373 . S
C605 C606 1.396 . S
C605 C612 1.403 . S
C606 C596 1.476 . S
C606 N601 1.318 . S
C606 C605 1.396 . S
H607 C602 0.929 . S
O608 Mn584 2.385 1_556 S
O608 C586 1.234 . S
O609 Mn584 2.209 1_556 S
O609 Mn585 2.215 1_556 S
O609 C586 1.283 . S
O610 Mn584 2.094 . S
O610 C588 1.240 . S
O611 Mn585 2.117 . S
O611 C588 1.264 . S
C612 C605 1.403 . S
C612 C613 1.399 . S
C612 H618 0.929 . S
C613 C593 1.449 . S
C613 C612 1.399 . S
C613 H619 0.930 . S
H614 C594 0.931 . S
H615 C595 0.950 . S
H616 C603 0.931 . S
H617 C604 0.929 . S
H618 C612 0.929 . S
H619 C613 0.930 . S
Mn620 O625 2.095 . S
Mn620 O635 2.162 . S
Mn620 O636 2.297 . S
Mn620 O644 2.385 . S
Mn620 O645 2.209 . S
Mn620 O646 2.094 . S
Mn621 O626 2.121 . S
Mn621 N628 2.257 . S
Mn621 N637 2.282 . S
Mn621 O645 2.215 . S
Mn621 O647 2.117 . S
C622 O644 1.234 . S
C622 O645 1.283 . S
C623 O635 1.281 . S
C623 O636 1.236 . S
C624 O646 1.240 . S
C624 O647 1.264 . S
O625 Mn620 2.095 . S
O625 C634 1.250 . S
O626 Mn621 2.121 . S
O626 C634 1.258 . S
C627 N628 1.326 . S
C627 C631 1.460 . S
C627 H633 0.929 . S
N628 Mn621 2.257 . S
N628 C627 1.326 . S
N628 C632 1.362 . S
C629 C630 1.258 . S
C629 C632 1.431 . S
C629 C649 1.449 . S
C630 C629 1.258 . S
C630 C631 1.477 . S
C630 H650 0.931 . S
C631 C627 1.460 . S
C631 C630 1.477 . S
C631 H651 0.930 . S
C632 N628 1.362 . S
C632 C629 1.431 . S
C632 C642 1.476 . S
H633 C627 0.929 . S
C634 O625 1.250 . S
C634 O626 1.258 . S
O635 Mn620 2.162 . S
O635 C623 1.281 . S
O636 Mn620 2.297 . S
O636 C623 1.236 . S
N637 Mn621 2.282 . S
N637 C638 1.328 . S
N637 C642 1.318 . S
C638 N637 1.328 . S
C638 C639 1.457 . S
C638 H643 0.929 . S
C639 C638 1.457 . S
C639 C640 1.291 . S
C639 H652 0.931 . S
C640 C639 1.291 . S
C640 C641 1.373 . S
C640 H653 0.929 . S
C641 C640 1.373 . S
C641 C642 1.396 . S
C641 C648 1.403 . S
C642 C632 1.476 . S
C642 N637 1.318 . S
C642 C641 1.396 . S
H643 C638 0.929 . S
O644 Mn620 2.385 . S
O644 C622 1.234 . S
O645 Mn620 2.209 . S
O645 Mn621 2.215 . S
O645 C622 1.283 . S
O646 Mn620 2.094 . S
O646 C624 1.240 . S
O647 Mn621 2.117 . S
O647 C624 1.264 . S
C648 C641 1.403 . S
C648 C649 1.399 . S
C648 H654 0.929 . S
C649 C629 1.449 . S
C649 C648 1.399 . S
C649 H655 0.930 . S
H650 C630 0.931 . S
H651 C631 0.930 . S
H652 C639 0.931 . S
H653 C640 0.929 . S
H654 C648 0.929 . S
H655 C649 0.930 . S
H656 C662 0.930 . S
H657 C665 0.930 . S
H658 C666 0.930 . S
H659 C667 0.930 . S
H660 C670 0.930 . S
H661 C671 0.930 . S
C662 H656 0.930 . S
C662 C663 1.355 . S
C662 C664 1.415 . S
C663 C662 1.355 . S
C663 C665 1.419 . S
C664 C662 1.415 . S
C664 C669 1.425 . S
C664 C671 1.409 . S
C665 H657 0.930 . S
C665 C663 1.419 . S
C665 C666 1.362 . S
C666 H658 0.930 . S
C666 C665 1.362 . S
C666 C669 1.409 . S
C667 H659 0.930 . S
C667 C668 1.355 . S
C667 C669 1.415 . S
C668 C667 1.355 . S
C668 C670 1.419 . S
C669 C664 1.425 . S
C669 C666 1.409 . S
C669 C667 1.415 . S
C670 H660 0.930 . S
C670 C668 1.419 . S
C670 C671 1.362 . S
C671 H661 0.930 . S
C671 C664 1.409 . S
C671 C670 1.362 . S
H672 C678 0.930 . S
H673 C681 0.930 . S
H674 C682 0.930 . S
H675 C683 0.930 . S
H676 C686 0.930 . S
H677 C687 0.930 . S
C678 H672 0.930 . S
C678 C679 1.355 . S
C678 C680 1.415 . S
C679 C678 1.355 . S
C679 C681 1.419 . S
C680 C678 1.415 . S
C680 C685 1.425 . S
C680 C687 1.409 . S
C681 H673 0.930 . S
C681 C679 1.419 . S
C681 C682 1.362 . S
C682 H674 0.930 . S
C682 C681 1.362 . S
C682 C685 1.409 . S
C683 H675 0.930 . S
C683 C684 1.355 . S
C683 C685 1.415 . S
C684 C683 1.355 . S
C684 C686 1.419 . S
C685 C680 1.425 . S
C685 C682 1.409 . S
C685 C683 1.415 . S
C686 H676 0.930 . S
C686 C684 1.419 . S
C686 C687 1.362 . S
C687 H677 0.930 . S
C687 C680 1.409 . S
C687 C686 1.362 . S
H688 C694 0.930 . S
H689 C697 0.930 . S
H690 C698 0.930 . S
H691 C699 0.930 . S
H692 C702 0.930 . S
H693 C703 0.930 . S
C694 H688 0.930 . S
C694 C695 1.355 . S
C694 C696 1.415 . S
C695 C694 1.355 . S
C695 C697 1.419 . S
C696 C694 1.415 . S
C696 C701 1.425 . S
C696 C703 1.409 . S
C697 H689 0.930 . S
C697 C695 1.419 . S
C697 C698 1.362 . S
C698 H690 0.930 . S
C698 C697 1.362 . S
C698 C701 1.409 . S
C699 H691 0.930 . S
C699 C700 1.355 . S
C699 C701 1.415 . S
C700 C699 1.355 . S
C700 C702 1.419 . S
C701 C696 1.425 . S
C701 C698 1.409 . S
C701 C699 1.415 . S
C702 H692 0.930 . S
C702 C700 1.419 . S
C702 C703 1.362 . S
C703 H693 0.930 . S
C703 C696 1.409 . S
C703 C702 1.362 . S
H704 C710 0.930 . S
H705 C713 0.930 . S
H706 C714 0.930 . S
H707 C715 0.930 . S
H708 C718 0.930 . S
H709 C719 0.930 . S
C710 H704 0.930 . S
C710 C711 1.355 . S
C710 C712 1.415 . S
C711 C710 1.355 . S
C711 C713 1.419 . S
C712 C710 1.415 . S
C712 C717 1.425 . S
C712 C719 1.409 . S
C713 H705 0.930 . S
C713 C711 1.419 . S
C713 C714 1.362 . S
C714 H706 0.930 . S
C714 C713 1.362 . S
C714 C717 1.409 . S
C715 H707 0.930 . S
C715 C716 1.355 . S
C715 C717 1.415 . S
C716 C715 1.355 . S
C716 C718 1.419 . S
C717 C712 1.425 . S
C717 C714 1.409 . S
C717 C715 1.415 . S
C718 H708 0.930 . S
C718 C716 1.419 . S
C718 C719 1.362 . S
C719 H709 0.930 . S
C719 C712 1.409 . S
C719 C718 1.362 . S
H720 C726 0.930 . S
H721 C729 0.930 . S
H722 C730 0.930 . S
H723 C731 0.930 . S
H724 C734 0.930 . S
H725 C735 0.930 . S
C726 H720 0.930 . S
C726 C727 1.355 . S
C726 C728 1.415 . S
C727 C726 1.355 . S
C727 C729 1.419 . S
C728 C726 1.415 . S
C728 C733 1.425 . S
C728 C735 1.409 . S
C729 H721 0.930 . S
C729 C727 1.419 . S
C729 C730 1.362 . S
C730 H722 0.930 . S
C730 C729 1.362 . S
C730 C733 1.409 . S
C731 H723 0.930 . S
C731 C732 1.355 . S
C731 C733 1.415 . S
C732 C731 1.355 . S
C732 C734 1.419 . S
C733 C728 1.425 . S
C733 C730 1.409 . S
C733 C731 1.415 . S
C734 H724 0.930 . S
C734 C732 1.419 . S
C734 C735 1.362 . S
C735 H725 0.930 . S
C735 C728 1.409 . S
C735 C734 1.362 . S
H736 C742 0.930 . S
H737 C745 0.930 . S
H738 C746 0.930 . S
H739 C747 0.930 . S
H740 C750 0.930 . S
H741 C751 0.930 . S
C742 H736 0.930 . S
C742 C743 1.355 . S
C742 C744 1.415 . S
C743 C742 1.355 . S
C743 C745 1.419 . S
C744 C742 1.415 . S
C744 C749 1.425 . S
C744 C751 1.409 . S
C745 H737 0.930 . S
C745 C743 1.419 . S
C745 C746 1.362 . S
C746 H738 0.930 . S
C746 C745 1.362 . S
C746 C749 1.409 . S
C747 H739 0.930 . S
C747 C748 1.355 . S
C747 C749 1.415 . S
C748 C747 1.355 . S
C748 C750 1.419 . S
C749 C744 1.425 . S
C749 C746 1.409 . S
C749 C747 1.415 . S
C750 H740 0.930 . S
C750 C748 1.419 . S
C750 C751 1.362 . S
C751 H741 0.930 . S
C751 C744 1.409 . S
C751 C750 1.362 . S
H752 C758 0.930 . S
H753 C761 0.930 . S
H754 C762 0.930 . S
H755 C763 0.930 . S
H756 C766 0.930 . S
H757 C767 0.930 . S
C758 H752 0.930 . S
C758 C759 1.355 . S
C758 C760 1.415 . S
C759 C758 1.355 . S
C759 C761 1.419 . S
C760 C758 1.415 . S
C760 C765 1.425 . S
C760 C767 1.409 . S
C761 H753 0.930 . S
C761 C759 1.419 . S
C761 C762 1.362 . S
C762 H754 0.930 . S
C762 C761 1.362 . S
C762 C765 1.409 . S
C763 H755 0.930 . S
C763 C764 1.355 . S
C763 C765 1.415 . S
C764 C763 1.355 . S
C764 C766 1.419 . S
C765 C760 1.425 . S
C765 C762 1.409 . S
C765 C763 1.415 . S
C766 H756 0.930 . S
C766 C764 1.419 . S
C766 C767 1.362 . S
C767 H757 0.930 . S
C767 C760 1.409 . S
C767 C766 1.362 . S
H768 C774 0.930 . S
H769 C777 0.930 . S
H770 C778 0.930 . S
H771 C779 0.930 . S
H772 C782 0.930 . S
H773 C783 0.930 . S
C774 H768 0.930 . S
C774 C775 1.355 . S
C774 C776 1.415 . S
C775 C774 1.355 . S
C775 C777 1.419 . S
C776 C774 1.415 . S
C776 C781 1.425 . S
C776 C783 1.409 . S
C777 H769 0.930 . S
C777 C775 1.419 . S
C777 C778 1.362 . S
C778 H770 0.930 . S
C778 C777 1.362 . S
C778 C781 1.409 . S
C779 H771 0.930 . S
C779 C780 1.355 . S
C779 C781 1.415 . S
C780 C779 1.355 . S
C780 C782 1.419 . S
C781 C776 1.425 . S
C781 C778 1.409 . S
C781 C779 1.415 . S
C782 H772 0.930 . S
C782 C780 1.419 . S
C782 C783 1.362 . S
C783 H773 0.930 . S
C783 C776 1.409 . S
C783 C782 1.362 . S
H784 C790 0.930 . S
H785 C793 0.930 . S
H786 C794 0.930 . S
H787 C795 0.930 . S
H788 C798 0.930 . S
H789 C799 0.930 . S
C790 H784 0.930 . S
C790 C791 1.355 . S
C790 C792 1.415 . S
C791 C790 1.355 . S
C791 C793 1.419 . S
C792 C790 1.415 . S
C792 C797 1.425 . S
C792 C799 1.409 . S
C793 H785 0.930 . S
C793 C791 1.419 . S
C793 C794 1.362 . S
C794 H786 0.930 . S
C794 C793 1.362 . S
C794 C797 1.409 . S
C795 H787 0.930 . S
C795 C796 1.355 . S
C795 C797 1.415 . S
C796 C795 1.355 . S
C796 C798 1.419 . S
C797 C792 1.425 . S
C797 C794 1.409 . S
C797 C795 1.415 . S
C798 H788 0.930 . S
C798 C796 1.419 . S
C798 C799 1.362 . S
C799 H789 0.930 . S
C799 C792 1.409 . S
C799 C798 1.362 . S
H800 C806 0.930 . S
H801 C809 0.930 . S
H802 C810 0.930 . S
H803 C811 0.930 . S
H804 C814 0.930 1_556 S
H805 C815 0.930 1_556 S
C806 H800 0.930 . S
C806 C807 1.355 . S
C806 C808 1.415 . S
C807 C806 1.355 . S
C807 C809 1.419 . S
C808 C806 1.415 . S
C808 C813 1.425 . S
C808 C815 1.409 . S
C809 H801 0.930 . S
C809 C807 1.419 . S
C809 C810 1.362 . S
C810 H802 0.930 . S
C810 C809 1.362 . S
C810 C813 1.409 . S
C811 H803 0.930 . S
C811 C812 1.355 . S
C811 C813 1.415 . S
C812 C811 1.355 . S
C812 C814 1.419 . S
C813 C808 1.425 . S
C813 C810 1.409 . S
C813 C811 1.415 . S
C814 H804 0.930 1_554 S
C814 C812 1.419 . S
C814 C815 1.362 . S
C815 H805 0.930 1_554 S
C815 C808 1.409 . S
C815 C814 1.362 . S
H816 C822 0.930 . S
H817 C825 0.930 . S
H818 C826 0.930 . S
H819 C827 0.930 . S
H820 C830 0.930 . S
H821 C831 0.930 . S
C822 H816 0.930 . S
C822 C823 1.355 . S
C822 C824 1.415 . S
C823 C822 1.355 . S
C823 C825 1.419 . S
C824 C822 1.415 . S
C824 C829 1.425 . S
C824 C831 1.409 . S
C825 H817 0.930 . S
C825 C823 1.419 . S
C825 C826 1.362 . S
C826 H818 0.930 . S
C826 C825 1.362 . S
C826 C829 1.409 . S
C827 H819 0.930 . S
C827 C828 1.355 . S
C827 C829 1.415 . S
C828 C827 1.355 . S
C828 C830 1.419 . S
C829 C824 1.425 . S
C829 C826 1.409 . S
C829 C827 1.415 . S
C830 H820 0.930 . S
C830 C828 1.419 . S
C830 C831 1.362 . S
C831 H821 0.930 . S
C831 C824 1.409 . S
C831 C830 1.362 . S
H832 C838 0.930 . S
H833 C841 0.930 . S
H834 C842 0.930 . S
H835 C843 0.930 . S
H836 C846 0.930 . S
H837 C847 0.930 . S
C838 H832 0.930 . S
C838 C839 1.355 . S
C838 C840 1.415 . S
C839 C838 1.355 . S
C839 C841 1.419 . S
C840 C838 1.415 . S
C840 C845 1.425 . S
C840 C847 1.409 . S
C841 H833 0.930 . S
C841 C839 1.419 . S
C841 C842 1.362 . S
C842 H834 0.930 . S
C842 C841 1.362 . S
C842 C845 1.409 . S
C843 H835 0.930 . S
C843 C844 1.355 . S
C843 C845 1.415 . S
C844 C843 1.355 . S
C844 C846 1.419 . S
C845 C840 1.425 . S
C845 C842 1.409 . S
C845 C843 1.415 . S
C846 H836 0.930 . S
C846 C844 1.419 . S
C846 C847 1.362 . S
C847 H837 0.930 . S
C847 C840 1.409 . S
C847 C846 1.362 . S
H848 C854 0.930 . S
H849 C857 0.930 . S
H850 C858 0.930 . S
H851 C859 0.930 . S
H852 C862 0.930 . S
H853 C863 0.930 . S
C854 H848 0.930 . S
C854 C855 1.355 . S
C854 C856 1.415 . S
C855 C854 1.355 . S
C855 C857 1.419 . S
C856 C854 1.415 . S
C856 C861 1.425 . S
C856 C863 1.409 . S
C857 H849 0.930 . S
C857 C855 1.419 . S
C857 C858 1.362 . S
C858 H850 0.930 . S
C858 C857 1.362 . S
C858 C861 1.409 . S
C859 H851 0.930 . S
C859 C860 1.355 . S
C859 C861 1.415 . S
C860 C859 1.355 . S
C860 C862 1.419 . S
C861 C856 1.425 . S
C861 C858 1.409 . S
C861 C859 1.415 . S
C862 H852 0.930 . S
C862 C860 1.419 . S
C862 C863 1.362 . S
C863 H853 0.930 . S
C863 C856 1.409 . S
C863 C862 1.362 . S
H864 C870 0.930 . S
H865 C873 0.930 . S
H866 C874 0.930 . S
H867 C875 0.930 . S
H868 C878 0.930 . S
H869 C879 0.930 . S
C870 H864 0.930 . S
C870 C871 1.355 . S
C870 C872 1.415 . S
C871 C870 1.355 . S
C871 C873 1.419 . S
C872 C870 1.415 . S
C872 C877 1.425 . S
C872 C879 1.409 . S
C873 H865 0.930 . S
C873 C871 1.419 . S
C873 C874 1.362 . S
C874 H866 0.930 . S
C874 C873 1.362 . S
C874 C877 1.409 . S
C875 H867 0.930 . S
C875 C876 1.355 . S
C875 C877 1.415 . S
C876 C875 1.355 . S
C876 C878 1.419 . S
C877 C872 1.425 . S
C877 C874 1.409 . S
C877 C875 1.415 . S
C878 H868 0.930 . S
C878 C876 1.419 . S
C878 C879 1.362 . S
C879 H869 0.930 . S
C879 C872 1.409 . S
C879 C878 1.362 . S
H880 C886 0.930 . S
H881 C889 0.930 . S
H882 C890 0.930 . S
H883 C891 0.930 . S
H884 C894 0.930 . S
H885 C895 0.930 . S
C886 H880 0.930 . S
C886 C887 1.355 . S
C886 C888 1.415 . S
C887 C886 1.355 . S
C887 C889 1.419 . S
C888 C886 1.415 . S
C888 C893 1.425 . S
C888 C895 1.409 . S
C889 H881 0.930 . S
C889 C887 1.419 . S
C889 C890 1.362 . S
C890 H882 0.930 . S
C890 C889 1.362 . S
C890 C893 1.409 . S
C891 H883 0.930 . S
C891 C892 1.355 . S
C891 C893 1.415 . S
C892 C891 1.355 . S
C892 C894 1.419 . S
C893 C888 1.425 . S
C893 C890 1.409 . S
C893 C891 1.415 . S
C894 H884 0.930 . S
C894 C892 1.419 . S
C894 C895 1.362 . S
C895 H885 0.930 . S
C895 C888 1.409 . S
C895 C894 1.362 . S
H896 C902 0.930 . S
H897 C905 0.930 . S
H898 C906 0.930 . S
H899 C907 0.930 . S
H900 C910 0.930 . S
H901 C911 0.930 . S
C902 H896 0.930 . S
C902 C903 1.355 . S
C902 C904 1.415 . S
C903 C902 1.355 . S
C903 C905 1.419 . S
C904 C902 1.415 . S
C904 C909 1.425 . S
C904 C911 1.409 . S
C905 H897 0.930 . S
C905 C903 1.419 . S
C905 C906 1.362 . S
C906 H898 0.930 . S
C906 C905 1.362 . S
C906 C909 1.409 . S
C907 H899 0.930 . S
C907 C908 1.355 . S
C907 C909 1.415 . S
C908 C907 1.355 . S
C908 C910 1.419 . S
C909 C904 1.425 . S
C909 C906 1.409 . S
C909 C907 1.415 . S
C910 H900 0.930 . S
C910 C908 1.419 . S
C910 C911 1.362 . S
C911 H901 0.930 . S
C911 C904 1.409 . S
C911 C910 1.362 . S
H912 C918 0.930 . S
H913 C921 0.930 . S
H914 C922 0.930 . S
H915 C923 0.930 . S
H916 C926 0.930 . S
H917 C927 0.930 . S
C918 H912 0.930 . S
C918 C919 1.355 . S
C918 C920 1.415 . S
C919 C918 1.355 . S
C919 C921 1.419 . S
C920 C918 1.415 . S
C920 C925 1.425 . S
C920 C927 1.409 . S
C921 H913 0.930 . S
C921 C919 1.419 . S
C921 C922 1.362 . S
C922 H914 0.930 . S
C922 C921 1.362 . S
C922 C925 1.409 . S
C923 H915 0.930 . S
C923 C924 1.355 . S
C923 C925 1.415 . S
C924 C923 1.355 . S
C924 C926 1.419 . S
C925 C920 1.425 . S
C925 C922 1.409 . S
C925 C923 1.415 . S
C926 H916 0.930 . S
C926 C924 1.419 . S
C926 C927 1.362 . S
C927 H917 0.930 . S
C927 C920 1.409 . S
C927 C926 1.362 . S
H928 C934 0.930 . S
H929 C937 0.930 . S
H930 C938 0.930 . S
H931 C939 0.930 . S
H932 C942 0.930 . S
H933 C943 0.930 . S
C934 H928 0.930 . S
C934 C935 1.355 . S
C934 C936 1.415 . S
C935 C934 1.355 . S
C935 C937 1.419 . S
C936 C934 1.415 . S
C936 C941 1.425 . S
C936 C943 1.409 . S
C937 H929 0.930 . S
C937 C935 1.419 . S
C937 C938 1.362 . S
C938 H930 0.930 . S
C938 C937 1.362 . S
C938 C941 1.409 . S
C939 H931 0.930 . S
C939 C940 1.355 . S
C939 C941 1.415 . S
C940 C939 1.355 . S
C940 C942 1.419 . S
C941 C936 1.425 . S
C941 C938 1.409 . S
C941 C939 1.415 . S
C942 H932 0.930 . S
C942 C940 1.419 . S
C942 C943 1.362 . S
C943 H933 0.930 . S
C943 C936 1.409 . S
C943 C942 1.362 . S
H944 C950 0.930 . S
H945 C953 0.930 . S
H946 C954 0.930 . S
H947 C955 0.930 . S
H948 C958 0.930 . S
H949 C959 0.930 . S
C950 H944 0.930 . S
C950 C951 1.355 . S
C950 C952 1.415 . S
C951 C950 1.355 . S
C951 C953 1.419 . S
C952 C950 1.415 . S
C952 C957 1.425 . S
C952 C959 1.409 . S
C953 H945 0.930 . S
C953 C951 1.419 . S
C953 C954 1.362 . S
C954 H946 0.930 . S
C954 C953 1.362 . S
C954 C957 1.409 . S
C955 H947 0.930 . S
C955 C956 1.355 . S
C955 C957 1.415 . S
C956 C955 1.355 . S
C956 C958 1.419 . S
C957 C952 1.425 . S
C957 C954 1.409 . S
C957 C955 1.415 . S
C958 H948 0.930 . S
C958 C956 1.419 . S
C958 C959 1.362 . S
C959 H949 0.930 . S
C959 C952 1.409 . S
C959 C958 1.362 . S
H960 C966 0.930 . S
H961 C969 0.930 . S
H962 C970 0.930 . S
H963 C971 0.930 . S
H964 C974 0.930 . S
H965 C975 0.930 . S
C966 H960 0.930 . S
C966 C967 1.355 . S
C966 C968 1.415 . S
C967 C966 1.355 . S
C967 C969 1.419 . S
C968 C966 1.415 . S
C968 C973 1.425 . S
C968 C975 1.409 . S
C969 H961 0.930 . S
C969 C967 1.419 . S
C969 C970 1.362 . S
C970 H962 0.930 . S
C970 C969 1.362 . S
C970 C973 1.409 . S
C971 H963 0.930 . S
C971 C972 1.355 . S
C971 C973 1.415 . S
C972 C971 1.355 . S
C972 C974 1.419 . S
C973 C968 1.425 . S
C973 C970 1.409 . S
C973 C971 1.415 . S
C974 H964 0.930 . S
C974 C972 1.419 . S
C974 C975 1.362 . S
C975 H965 0.930 . S
C975 C968 1.409 . S
C975 C974 1.362 . S
H976 C982 0.930 . S
H977 C985 0.930 . S
H978 C986 0.930 . S
H979 C987 0.930 . S
H980 C990 0.930 . S
H981 C991 0.930 . S
C982 H976 0.930 . S
C982 C983 1.355 . S
C982 C984 1.415 . S
C983 C982 1.355 . S
C983 C985 1.419 . S
C984 C982 1.415 . S
C984 C989 1.425 . S
C984 C991 1.409 . S
C985 H977 0.930 . S
C985 C983 1.419 . S
C985 C986 1.362 . S
C986 H978 0.930 . S
C986 C985 1.362 . S
C986 C989 1.409 . S
C987 H979 0.930 . S
C987 C988 1.355 . S
C987 C989 1.415 . S
C988 C987 1.355 . S
C988 C990 1.419 . S
C989 C984 1.425 . S
C989 C986 1.409 . S
C989 C987 1.415 . S
C990 H980 0.930 . S
C990 C988 1.419 . S
C990 C991 1.362 . S
C991 H981 0.930 . S
C991 C984 1.409 . S
C991 C990 1.362 . S
H992 C998 0.930 . S
H993 C1001 0.930 . S
H994 C1002 0.930 . S
H995 C1003 0.930 . S
H996 C1006 0.930 . S
H997 C1007 0.930 . S
C998 H992 0.930 . S
C998 C999 1.355 . S
C998 C1000 1.415 . S
C999 C998 1.355 . S
C999 C1001 1.419 . S
C1000 C998 1.415 . S
C1000 C1005 1.425 . S
C1000 C1007 1.409 . S
C1001 H993 0.930 . S
C1001 C999 1.419 . S
C1001 C1002 1.362 . S
C1002 H994 0.930 . S
C1002 C1001 1.362 . S
C1002 C1005 1.409 . S
C1003 H995 0.930 . S
C1003 C1004 1.355 . S
C1003 C1005 1.415 . S
C1004 C1003 1.355 . S
C1004 C1006 1.419 . S
C1005 C1000 1.425 . S
C1005 C1002 1.409 . S
C1005 C1003 1.415 . S
C1006 H996 0.930 . S
C1006 C1004 1.419 . S
C1006 C1007 1.362 . S
C1007 H997 0.930 . S
C1007 C1000 1.409 . S
C1007 C1006 1.362 . S
H1008 C1014 0.930 . S
H1009 C1017 0.930 . S
H1010 C1018 0.930 . S
H1011 C1019 0.930 . S
H1012 C1022 0.930 . S
H1013 C1023 0.930 . S
C1014 H1008 0.930 . S
C1014 C1015 1.355 . S
C1014 C1016 1.415 . S
C1015 C1014 1.355 . S
C1015 C1017 1.419 . S
C1016 C1014 1.415 . S
C1016 C1021 1.425 . S
C1016 C1023 1.409 . S
C1017 H1009 0.930 . S
C1017 C1015 1.419 . S
C1017 C1018 1.362 . S
C1018 H1010 0.930 . S
C1018 C1017 1.362 . S
C1018 C1021 1.409 . S
C1019 H1011 0.930 . S
C1019 C1020 1.355 . S
C1019 C1021 1.415 . S
C1020 C1019 1.355 . S
C1020 C1022 1.419 . S
C1021 C1016 1.425 . S
C1021 C1018 1.409 . S
C1021 C1019 1.415 . S
C1022 H1012 0.930 . S
C1022 C1020 1.419 . S
C1022 C1023 1.362 . S
C1023 H1013 0.930 . S
C1023 C1016 1.409 . S
C1023 C1022 1.362 . S
H1024 C1030 0.930 . S
H1025 C1033 0.930 . S
H1026 C1034 0.930 . S
H1027 C1035 0.930 . S
H1028 C1038 0.930 . S
H1029 C1039 0.930 . S
C1030 H1024 0.930 . S
C1030 C1031 1.355 . S
C1030 C1032 1.415 . S
C1031 C1030 1.355 . S
C1031 C1033 1.419 . S
C1032 C1030 1.415 . S
C1032 C1037 1.425 . S
C1032 C1039 1.409 . S
C1033 H1025 0.930 . S
C1033 C1031 1.419 . S
C1033 C1034 1.362 . S
C1034 H1026 0.930 . S
C1034 C1033 1.362 . S
C1034 C1037 1.409 . S
C1035 H1027 0.930 . S
C1035 C1036 1.355 . S
C1035 C1037 1.415 . S
C1036 C1035 1.355 . S
C1036 C1038 1.419 . S
C1037 C1032 1.425 . S
C1037 C1034 1.409 . S
C1037 C1035 1.415 . S
C1038 H1028 0.930 . S
C1038 C1036 1.419 . S
C1038 C1039 1.362 . S
C1039 H1029 0.930 . S
C1039 C1032 1.409 . S
C1039 C1038 1.362 . S
H1040 C1046 0.930 . S
H1041 C1049 0.930 . S
H1042 C1050 0.930 . S
H1043 C1051 0.930 . S
H1044 C1054 0.930 . S
H1045 C1055 0.930 . S
C1046 H1040 0.930 . S
C1046 C1047 1.355 . S
C1046 C1048 1.415 . S
C1047 C1046 1.355 . S
C1047 C1049 1.419 . S
C1048 C1046 1.415 . S
C1048 C1053 1.425 . S
C1048 C1055 1.409 . S
C1049 H1041 0.930 . S
C1049 C1047 1.419 . S
C1049 C1050 1.362 . S
C1050 H1042 0.930 . S
C1050 C1049 1.362 . S
C1050 C1053 1.409 . S
C1051 H1043 0.930 . S
C1051 C1052 1.355 . S
C1051 C1053 1.415 . S
C1052 C1051 1.355 . S
C1052 C1054 1.419 . S
C1053 C1048 1.425 . S
C1053 C1050 1.409 . S
C1053 C1051 1.415 . S
C1054 H1044 0.930 . S
C1054 C1052 1.419 . S
C1054 C1055 1.362 . S
C1055 H1045 0.930 . S
C1055 C1048 1.409 . S
C1055 C1054 1.362 . S
H1056 C1062 0.930 . S
H1057 C1065 0.930 . S
H1058 C1066 0.930 . S
H1059 C1067 0.930 . S
H1060 C1070 0.930 . S
H1061 C1071 0.930 . S
C1062 H1056 0.930 . S
C1062 C1063 1.355 . S
C1062 C1064 1.415 . S
C1063 C1062 1.355 . S
C1063 C1065 1.419 . S
C1064 C1062 1.415 . S
C1064 C1069 1.425 . S
C1064 C1071 1.409 . S
C1065 H1057 0.930 . S
C1065 C1063 1.419 . S
C1065 C1066 1.362 . S
C1066 H1058 0.930 . S
C1066 C1065 1.362 . S
C1066 C1069 1.409 . S
C1067 H1059 0.930 . S
C1067 C1068 1.355 . S
C1067 C1069 1.415 . S
C1068 C1067 1.355 . S
C1068 C1070 1.419 . S
C1069 C1064 1.425 . S
C1069 C1066 1.409 . S
C1069 C1067 1.415 . S
C1070 H1060 0.930 . S
C1070 C1068 1.419 . S
C1070 C1071 1.362 . S
C1071 H1061 0.930 . S
C1071 C1064 1.409 . S
C1071 C1070 1.362 . S
H1072 C1078 0.930 . S
H1073 C1081 0.930 . S
H1074 C1082 0.930 . S
H1075 C1083 0.930 . S
H1076 C1086 0.930 . S
H1077 C1087 0.930 . S
C1078 H1072 0.930 . S
C1078 C1079 1.355 . S
C1078 C1080 1.415 . S
C1079 C1078 1.355 . S
C1079 C1081 1.419 . S
C1080 C1078 1.415 . S
C1080 C1085 1.425 . S
C1080 C1087 1.409 . S
C1081 H1073 0.930 . S
C1081 C1079 1.419 . S
C1081 C1082 1.362 . S
C1082 H1074 0.930 . S
C1082 C1081 1.362 . S
C1082 C1085 1.409 . S
C1083 H1075 0.930 . S
C1083 C1084 1.355 . S
C1083 C1085 1.415 . S
C1084 C1083 1.355 . S
C1084 C1086 1.419 . S
C1085 C1080 1.425 . S
C1085 C1082 1.409 . S
C1085 C1083 1.415 . S
C1086 H1076 0.930 . S
C1086 C1084 1.419 . S
C1086 C1087 1.362 . S
C1087 H1077 0.930 . S
C1087 C1080 1.409 . S
C1087 C1086 1.362 . S
H1088 C1094 0.930 . S
H1089 C1097 0.930 . S
H1090 C1098 0.930 . S
H1091 C1099 0.930 . S
H1092 C1102 0.930 . S
H1093 C1103 0.930 . S
C1094 H1088 0.930 . S
C1094 C1095 1.355 . S
C1094 C1096 1.415 . S
C1095 C1094 1.355 . S
C1095 C1097 1.419 . S
C1096 C1094 1.415 . S
C1096 C1101 1.425 . S
C1096 C1103 1.409 . S
C1097 H1089 0.930 . S
C1097 C1095 1.419 . S
C1097 C1098 1.362 . S
C1098 H1090 0.930 . S
C1098 C1097 1.362 . S
C1098 C1101 1.409 . S
C1099 H1091 0.930 . S
C1099 C1100 1.355 . S
C1099 C1101 1.415 . S
C1100 C1099 1.355 . S
C1100 C1102 1.419 . S
C1101 C1096 1.425 . S
C1101 C1098 1.409 . S
C1101 C1099 1.415 . S
C1102 H1092 0.930 . S
C1102 C1100 1.419 . S
C1102 C1103 1.362 . S
C1103 H1093 0.930 . S
C1103 C1096 1.409 . S
C1103 C1102 1.362 . S
H1104 C1110 0.930 . S
H1105 C1113 0.930 . S
H1106 C1114 0.930 . S
H1107 C1115 0.930 . S
H1108 C1118 0.930 . S
H1109 C1119 0.930 . S
C1110 H1104 0.930 . S
C1110 C1111 1.355 . S
C1110 C1112 1.415 . S
C1111 C1110 1.355 . S
C1111 C1113 1.419 . S
C1112 C1110 1.415 . S
C1112 C1117 1.425 . S
C1112 C1119 1.409 . S
C1113 H1105 0.930 . S
C1113 C1111 1.419 . S
C1113 C1114 1.362 . S
C1114 H1106 0.930 . S
C1114 C1113 1.362 . S
C1114 C1117 1.409 . S
C1115 H1107 0.930 . S
C1115 C1116 1.355 . S
C1115 C1117 1.415 . S
C1116 C1115 1.355 . S
C1116 C1118 1.419 . S
C1117 C1112 1.425 . S
C1117 C1114 1.409 . S
C1117 C1115 1.415 . S
C1118 H1108 0.930 . S
C1118 C1116 1.419 . S
C1118 C1119 1.362 . S
C1119 H1109 0.930 . S
C1119 C1112 1.409 . S
C1119 C1118 1.362 . S
H1120 C1126 0.930 . S
H1121 C1129 0.930 . S
H1122 C1130 0.930 . S
H1123 C1131 0.930 . S
H1124 C1134 0.930 . S
H1125 C1135 0.930 . S
C1126 H1120 0.930 . S
C1126 C1127 1.355 . S
C1126 C1128 1.415 . S
C1127 C1126 1.355 . S
C1127 C1129 1.419 . S
C1128 C1126 1.415 . S
C1128 C1133 1.425 . S
C1128 C1135 1.409 . S
C1129 H1121 0.930 . S
C1129 C1127 1.419 . S
C1129 C1130 1.362 . S
C1130 H1122 0.930 . S
C1130 C1129 1.362 . S
C1130 C1133 1.409 . S
C1131 H1123 0.930 . S
C1131 C1132 1.355 . S
C1131 C1133 1.415 . S
C1132 C1131 1.355 . S
C1132 C1134 1.419 . S
C1133 C1128 1.425 . S
C1133 C1130 1.409 . S
C1133 C1131 1.415 . S
C1134 H1124 0.930 . S
C1134 C1132 1.419 . S
C1134 C1135 1.362 . S
C1135 H1125 0.930 . S
C1135 C1128 1.409 . S
C1135 C1134 1.362 . S
H1136 C1142 0.930 . S
H1137 C1145 0.930 . S
H1138 C1146 0.930 . S
H1139 C1147 0.930 . S
H1140 C1150 0.930 . S
H1141 C1151 0.930 . S
C1142 H1136 0.930 . S
C1142 C1143 1.355 . S
C1142 C1144 1.415 . S
C1143 C1142 1.355 . S
C1143 C1145 1.419 . S
C1144 C1142 1.415 . S
C1144 C1149 1.425 . S
C1144 C1151 1.409 . S
C1145 H1137 0.930 . S
C1145 C1143 1.419 . S
C1145 C1146 1.362 . S
C1146 H1138 0.930 . S
C1146 C1145 1.362 . S
C1146 C1149 1.409 . S
C1147 H1139 0.930 . S
C1147 C1148 1.355 . S
C1147 C1149 1.415 . S
C1148 C1147 1.355 . S
C1148 C1150 1.419 . S
C1149 C1144 1.425 . S
C1149 C1146 1.409 . S
C1149 C1147 1.415 . S
C1150 H1140 0.930 . S
C1150 C1148 1.419 . S
C1150 C1151 1.362 . S
C1151 H1141 0.930 . S
C1151 C1144 1.409 . S
C1151 C1150 1.362 . S
H1152 C1158 0.930 . S
H1153 C1161 0.930 . S
H1154 C1162 0.930 . S
H1155 C1163 0.930 . S
H1156 C1166 0.930 . S
H1157 C1167 0.930 . S
C1158 H1152 0.930 . S
C1158 C1159 1.355 . S
C1158 C1160 1.415 . S
C1159 C1158 1.355 . S
C1159 C1161 1.419 . S
C1160 C1158 1.415 . S
C1160 C1165 1.425 . S
C1160 C1167 1.409 . S
C1161 H1153 0.930 . S
C1161 C1159 1.419 . S
C1161 C1162 1.362 . S
C1162 H1154 0.930 . S
C1162 C1161 1.362 . S
C1162 C1165 1.409 . S
C1163 H1155 0.930 . S
C1163 C1164 1.355 . S
C1163 C1165 1.415 . S
C1164 C1163 1.355 . S
C1164 C1166 1.419 . S
C1165 C1160 1.425 . S
C1165 C1162 1.409 . S
C1165 C1163 1.415 . S
C1166 H1156 0.930 . S
C1166 C1164 1.419 . S
C1166 C1167 1.362 . S
C1167 H1157 0.930 . S
C1167 C1160 1.409 . S
C1167 C1166 1.362 . S
C668 C407 1.364 . S
C663 C8 1.299 . S
C684 C444 1.305 . S
C679 C61 1.344 . S
C700 C480 1.377 . S
C695 C107 1.308 . S
C711 C139 1.330 . S
C716 C371 1.385 . S
C727 C192 1.333 . S
C732 C372 1.384 . S
C743 C238 1.296 . S
C748 C408 1.346 . S
C764 C443 1.371 . S
C759 C284 1.345 . S
C780 C479 1.361 . S
C775 C330 1.339 . S
C791 C100 1.301 . S
C796 C551 1.342 . S
C812 C588 1.352 . S
C807 C160 1.293 . S
C823 C15 1.306 . S
C828 C624 1.374 . S
C844 C515 1.370 . S
C839 C54 1.367 . S
C855 C291 1.309 . S
C860 C516 1.378 . S
C871 C337 1.289 . S
C876 C552 1.350 . S
C892 C587 1.369 . S
C887 C199 1.305 . S
C903 C245 1.364 . S
C908 C623 1.380 . S
C924 C442 1.639 . S
C919 C1 1.648 . S
C940 C478 1.635 . S
C935 C68 1.632 . S
C951 C114 1.570 . S
C956 C382 1.437 . S
C967 C146 1.603 . S
C972 C418 1.502 . S
C983 C185 1.625 . S
C988 C490 1.496 . S
C1004 C370 1.651 . S
C999 C231 1.641 . S
C1020 C406 1.678 . S
C1015 C277 1.675 . S
C1036 C454 1.427 . S
C1031 C323 1.615 . S
C1052 C586 1.667 . S
C1047 C93 1.674 . S
C1068 C622 1.640 . S
C1063 C153 1.635 . S
C1079 C22 1.595 . S
C1084 C526 1.422 . S
C1100 C562 1.473 . S
C1095 C47 1.603 . S
C1116 C634 1.498 . S
C1111 C298 1.613 . S
C1127 C344 1.645 . S
C1132 C514 1.646 . S
C1148 C550 1.670 . S
C1143 C206 1.665 . S
C1164 C598 1.438 . S
C1159 C252 1.609 . S
