# Generated by pormake.
# Topology zzz, (3,6)-cn, num edge types: 1
# Building blocks:
#     Node 0, Type 0, BuildingBlock: KAKCAD_clean_linker_0, # of connection points: 3
#     Node 1, Type 0, BuildingBlock: KAKCAD_clean_linker_0, # of connection points: 3
#     Node 2, Type 0, BuildingBlock: KAKCAD_clean_linker_0, # of connection points: 3
#     Node 3, Type 0, BuildingBlock: KAKCAD_clean_linker_0, # of connection points: 3
#     Node 4, Type 0, BuildingBlock: KAKCAD_clean_linker_0, # of connection points: 3
#     Node 5, Type 0, BuildingBlock: KAKCAD_clean_linker_0, # of connection points: 3
#     Node 6, Type 0, BuildingBlock: KAKCAD_clean_linker_0, # of connection points: 3
#     Node 7, Type 0, BuildingBlock: KAKCAD_clean_linker_0, # of connection points: 3
#     Node 8, Type 1, BuildingBlock: LEVNOQ01_clean_sbu_1, # of connection points: 6
#     Node 9, Type 1, BuildingBlock: LEVNOQ01_clean_sbu_1, # of connection points: 6
#     Node 10, Type 1, BuildingBlock: LEVNOQ01_clean_sbu_1, # of connection points: 6
#     Node 11, Type 1, BuildingBlock: LEVNOQ01_clean_sbu_1, # of connection points: 6
#     Edge 12, Type (0, 1), BuildingBlock: XUDNAN_clean_linker_2, # of connection points: 2
#     Edge 13, Type (0, 1), BuildingBlock: XUDNAN_clean_linker_2, # of connection points: 2
#     Edge 14, Type (0, 1), BuildingBlock: XUDNAN_clean_linker_2, # of connection points: 2
#     Edge 15, Type (0, 1), BuildingBlock: XUDNAN_clean_linker_2, # of connection points: 2
#     Edge 16, Type (0, 1), BuildingBlock: XUDNAN_clean_linker_2, # of connection points: 2
#     Edge 17, Type (0, 1), BuildingBlock: XUDNAN_clean_linker_2, # of connection points: 2
#     Edge 18, Type (0, 1), BuildingBlock: XUDNAN_clean_linker_2, # of connection points: 2
#     Edge 19, Type (0, 1), BuildingBlock: XUDNAN_clean_linker_2, # of connection points: 2
#     Edge 20, Type (0, 1), BuildingBlock: XUDNAN_clean_linker_2, # of connection points: 2
#     Edge 21, Type (0, 1), BuildingBlock: XUDNAN_clean_linker_2, # of connection points: 2
#     Edge 22, Type (0, 1), BuildingBlock: XUDNAN_clean_linker_2, # of connection points: 2
#     Edge 23, Type (0, 1), BuildingBlock: XUDNAN_clean_linker_2, # of connection points: 2
#     Edge 24, Type (0, 1), BuildingBlock: XUDNAN_clean_linker_2, # of connection points: 2
#     Edge 25, Type (0, 1), BuildingBlock: XUDNAN_clean_linker_2, # of connection points: 2
#     Edge 26, Type (0, 1), BuildingBlock: XUDNAN_clean_linker_2, # of connection points: 2
#     Edge 27, Type (0, 1), BuildingBlock: XUDNAN_clean_linker_2, # of connection points: 2
#     Edge 28, Type (0, 1), BuildingBlock: XUDNAN_clean_linker_2, # of connection points: 2
#     Edge 29, Type (0, 1), BuildingBlock: XUDNAN_clean_linker_2, # of connection points: 2
#     Edge 30, Type (0, 1), BuildingBlock: XUDNAN_clean_linker_2, # of connection points: 2
#     Edge 31, Type (0, 1), BuildingBlock: XUDNAN_clean_linker_2, # of connection points: 2
#     Edge 32, Type (0, 1), BuildingBlock: XUDNAN_clean_linker_2, # of connection points: 2
#     Edge 33, Type (0, 1), BuildingBlock: XUDNAN_clean_linker_2, # of connection points: 2
#     Edge 34, Type (0, 1), BuildingBlock: XUDNAN_clean_linker_2, # of connection points: 2
#     Edge 35, Type (0, 1), BuildingBlock: XUDNAN_clean_linker_2, # of connection points: 2
# Relax obj value: 0.304
# Max RMSD: 0.218
# Mean RMSD: 0.206
data_MOF--net-zzz--node1-LEVNOQ01_clean_sbu_1--node2-KAKCAD_clean_linker_0--edge1-XUDNAN_clean_linker_2
_symmetry_space_group_name_H-M    P1
_symmetry_Int_Tables_number       1
_symmetry_cell_setting            triclinic
loop_
_symmetry_equiv_pos_as_xyz
'x, y, z'
_cell_length_a     54.735923
_cell_length_b     58.189181
_cell_length_c     20.971614
_cell_angle_alpha  90.040647
_cell_angle_beta   89.631505
_cell_angle_gamma 88.309087
loop_
_atom_site_label
_atom_site_type_symbol
_atom_site_fract_x
_atom_site_fract_y
_atom_site_fract_z
_atom_type_partial_charge
C0 C 0.84166 0.64366 0.01688 0.0
C1 C 0.84328 0.62495 0.97452 0.0
C2 C 0.82013 0.64804 0.05144 0.0
C3 C 0.80018 0.63363 0.04409 0.0
C4 C 0.80029 0.61816 0.99259 0.0
C5 C 0.82178 0.61378 0.95807 0.0
C6 C 0.78446 0.62857 0.09983 0.0
C7 C 0.7599 0.62324 0.0919 0.0
C8 C 0.74732 0.61089 0.13893 0.0
C9 C 0.75994 0.6037 0.19455 0.0
C10 C 0.78463 0.60915 0.20299 0.0
C11 C 0.79613 0.6226 0.15697 0.0
C12 C 0.80038 0.59731 0.25121 0.0
C13 C 0.79543 0.59827 0.31709 0.0
C14 C 0.82168 0.58549 0.22996 0.0
C15 C 0.83773 0.57505 0.27296 0.0
C16 C 0.83297 0.57583 0.33878 0.0
C17 C 0.7223 0.60301 0.12431 0.0
C18 C 0.70537 0.61783 0.09349 0.0
C19 C 0.7161 0.58001 0.13427 0.0
C20 C 0.6939 0.57186 0.11195 0.0
C21 C 0.67735 0.58651 0.07911 0.0
C22 C 0.68322 0.60968 0.07108 0.0
C23 C 0.81174 0.58773 0.36071 0.0
H24 H 0.85782 0.65301 0.029 0.0
H25 H 0.82029 0.66046 0.08994 0.0
H26 H 0.78514 0.60691 0.98521 0.0
H27 H 0.82227 0.59943 0.92513 0.0
H28 H 0.75124 0.62705 0.04661 0.0
H29 H 0.81541 0.6259 0.16239 0.0
H30 H 0.75108 0.59289 0.2292 0.0
H31 H 0.77921 0.60737 0.3347 0.0
H32 H 0.82598 0.58428 0.17952 0.0
H33 H 0.85398 0.56622 0.25446 0.0
H34 H 0.7095 0.63569 0.08545 0.0
H35 H 0.72889 0.56801 0.15659 0.0
H36 H 0.80755 0.58847 0.41122 0.0
H37 H 0.67077 0.62151 0.0469 0.0
H38 H 0.69015 0.55383 0.11821 0.0
C39 C 0.98455 0.8031 0.0092 0.0
C40 C 0.00561 0.81601 1.00006 0.0
C41 C 0.98506 0.78435 0.0505 0.0
C42 C 0.00651 0.7785 0.08349 0.0
C43 C 0.02808 0.78996 0.07011 0.0
C44 C 0.02771 0.80843 0.02795 0.0
C45 C 0.00508 0.76398 0.14025 0.0
C46 C 0.9989 0.74106 0.13569 0.0
C47 C 0.99546 0.7279 0.19084 0.0
C48 C 0.99749 0.73824 0.25166 0.0
C49 C 1.00362 0.76166 0.25598 0.0
C50 C 0.00767 0.77408 0.19994 0.0
C51 C 1.00417 0.77495 0.31635 0.0
C52 C 0.98206 0.7814 0.3468 0.0
C53 C 0.02521 0.78733 0.33008 0.0
C54 C 0.02363 0.80719 0.36765 0.0
C55 C 1.00108 0.81483 0.39314 0.0
C56 C 0.99054 0.70336 0.1806 0.0
C57 C 0.96805 0.69756 0.15396 0.0
C58 C 0.01053 0.68785 0.17459 0.0
C59 C 0.0088 0.66815 0.13672 0.0
C60 C 0.98703 0.66363 0.1042 0.0
C61 C 0.96627 0.6778 0.1163 0.0
C62 C 0.98053 0.80124 0.38504 0.0
H63 H 0.96723 0.8085 0.98861 0.0
H64 H 0.96822 0.77571 0.06087 0.0
H65 H 0.0448 0.78552 0.09524 0.0
H66 H 0.04441 0.81759 0.02021 0.0
H67 H 0.9969 0.73338 0.0889 0.0
H68 H 0.01165 0.79223 0.20267 0.0
H69 H 0.99436 0.72834 0.29449 0.0
H70 H 0.96548 0.77253 0.33582 0.0
H71 H 0.04236 0.78301 0.30623 0.0
H72 H 0.03967 0.81748 0.37303 0.0
H73 H 0.95257 0.70957 0.15658 0.0
H74 H 0.0282 0.6922 0.19345 0.0
H75 H 0.96292 0.80695 0.40395 0.0
H76 H 0.94926 0.67488 0.09189 0.0
H77 H 0.02502 0.65734 0.12921 0.0
C78 C 0.67021 0.88046 0.03389 0.0
C79 C 0.6726 0.89471 0.98039 0.0
C80 C 0.68957 0.87765 0.07653 0.0
C81 C 0.71143 0.88932 0.06662 0.0
C82 C 0.71453 0.90164 0.00972 0.0
C83 C 0.69534 0.90423 0.96697 0.0
C84 C 0.72899 0.89233 0.11928 0.0
C85 C 0.75398 0.894 0.10673 0.0
C86 C 0.77005 0.90206 0.15314 0.0
C87 C 0.7607 0.9082 0.21421 0.0
C88 C 0.73567 0.90516 0.22841 0.0
C89 C 0.72019 0.89737 0.18053 0.0
C90 C 0.72389 0.91118 0.29053 0.0
C91 C 0.71011 0.89444 0.32154 0.0
C92 C 0.72047 0.93429 0.30877 0.0
C93 C 0.70221 0.94068 0.35341 0.0
C94 C 0.68692 0.92406 0.37988 0.0
C95 C 0.79584 0.90541 0.1327 0.0
C96 C 0.80829 0.88757 0.09933 0.0
C97 C 0.80564 0.92748 0.1317 0.0
C98 C 0.82608 0.93201 0.09312 0.0
C99 C 0.83688 0.91456 0.05488 0.0
C100 C 0.82838 0.89214 0.06037 0.0
C101 C 0.69179 0.90079 0.36541 0.0
H102 H 0.65291 0.87273 0.04481 0.0
H103 H 0.68686 0.86763 0.11937 0.0
H104 H 0.73094 0.91111 0.00075 0.0
H105 H 0.69769 0.91557 0.92657 0.0
H106 H 0.7608 0.89013 0.05913 0.0
H107 H 0.70073 0.89674 0.19024 0.0
H108 H 0.77268 0.91495 0.25012 0.0
H109 H 0.71215 0.87652 0.30778 0.0
H110 H 0.73042 0.94759 0.28463 0.0
H111 H 0.69886 0.95876 0.36351 0.0
H112 H 0.80112 0.8704 0.09901 0.0
H113 H 0.79625 0.94163 0.15605 0.0
H114 H 0.68059 0.88756 0.38564 0.0
H115 H 0.8363 0.87842 0.03122 0.0
H116 H 0.83215 0.9495 0.08915 0.0
C117 C 0.49253 0.71234 0.41063 0.0
C118 C 0.50796 0.69268 0.40371 0.0
C119 C 0.49054 0.72858 0.3612 0.0
C120 C 0.50417 0.72538 0.3048 0.0
C121 C 0.52063 0.70647 0.29987 0.0
C122 C 0.52242 0.69026 0.34857 0.0
C123 C 0.49882 0.73897 0.24668 0.0
C124 C 0.50477 0.76231 0.24066 0.0
C125 C 0.50354 0.77296 0.18026 0.0
C126 C 0.49588 0.76043 0.12721 0.0
C127 C 0.49029 0.73739 0.13321 0.0
C128 C 0.49113 0.7269 0.19287 0.0
C129 C 0.4891 0.72293 0.07633 0.0
C130 C 0.46676 0.71871 0.04734 0.0
C131 C 0.5105 0.7115 0.05494 0.0
C132 C 0.50939 0.69487 0.00744 0.0
C133 C 0.4868 0.68935 0.98106 0.0
C134 C 0.51361 0.79573 0.16725 0.0
C135 C 0.49971 0.81585 0.17974 0.0
C136 C 0.53395 0.79675 0.12646 0.0
C137 C 0.53865 0.81677 0.09268 0.0
C138 C 0.52332 0.83646 0.09974 0.0
C139 C 0.50475 0.83617 0.14688 0.0
C140 C 0.4656 0.70201 0.99972 0.0
H141 H 0.48115 0.71455 0.45277 0.0
H142 H 0.4775 0.74286 0.36561 0.0
H143 H 0.53131 0.70365 0.25672 0.0
H144 H 0.53472 0.67548 0.34242 0.0
H145 H 0.51186 0.77151 0.28114 0.0
H146 H 0.48758 0.70868 0.19649 0.0
H147 H 0.49606 0.76816 0.08012 0.0
H148 H 0.45012 0.72746 0.06364 0.0
H149 H 0.5279 0.71474 0.07711 0.0
H150 H 0.52603 0.68558 0.99346 0.0
H151 H 0.48383 0.81539 0.21075 0.0
H152 H 0.54475 0.7813 0.11571 0.0
H153 H 0.44788 0.69798 0.98073 0.0
H154 H 0.49305 0.85118 0.15554 0.0
H155 H 0.553 0.81593 0.05699 0.0
C156 C 0.18219 0.39412 0.47939 0.0
C157 C 0.16056 0.38422 0.45895 0.0
C158 C 0.204 0.38938 0.4466 0.0
C159 C 0.20422 0.37456 0.39352 0.0
C160 C 0.1837 0.36116 0.38245 0.0
C161 C 0.16177 0.36628 0.41433 0.0
C162 C 0.22164 0.37883 0.34065 0.0
C163 C 0.24593 0.38407 0.35294 0.0
C164 C 0.26024 0.39462 0.30625 0.0
C165 C 0.25024 0.3996 0.24577 0.0
C166 C 0.22605 0.3936 0.23204 0.0
C167 C 0.2122 0.38304 0.27958 0.0
C168 C 0.21334 0.40047 0.17209 0.0
C169 C 0.21251 0.42348 0.15173 0.0
C170 C 0.19827 0.38473 0.1417 0.0
C171 C 0.18176 0.39199 0.09483 0.0
C172 C 0.17997 0.41522 0.07622 0.0
C173 C 0.28406 0.40339 0.32595 0.0
C174 C 0.28438 0.42232 0.3672 0.0
C175 C 0.30595 0.39114 0.31248 0.0
C176 C 0.32787 0.39759 0.34093 0.0
C177 C 0.32816 0.41639 0.38331 0.0
C178 C 0.30612 0.42875 0.39554 0.0
C179 C 0.19601 0.43078 0.10429 0.0
H180 H 0.18158 0.40798 0.51398 0.0
H181 H 0.21952 0.39984 0.45703 0.0
H182 H 0.18361 0.34912 0.34304 0.0
H183 H 0.14522 0.35833 0.39845 0.0
H184 H 0.25326 0.38139 0.40038 0.0
H185 H 0.19303 0.38021 0.27064 0.0
H186 H 0.2609 0.40867 0.21065 0.0
H187 H 0.22364 0.43608 0.17486 0.0
H188 H 0.19838 0.3669 0.1566 0.0
H189 H 0.16962 0.37945 0.07541 0.0
H190 H 0.26756 0.43165 0.37937 0.0
H191 H 0.30592 0.37616 0.28179 0.0
H192 H 0.19551 0.44872 0.09058 0.0
H193 H 0.30542 0.44296 0.42893 0.0
H194 H 0.3445 0.38777 0.33023 0.0
C195 C 1.00415 0.21078 0.48213 0.0
C196 C 0.02129 0.19244 0.47383 0.0
C197 C 1.00104 0.22744 0.43456 0.0
C198 C 0.01524 0.22606 0.37868 0.0
C199 C 0.03417 0.20942 0.37397 0.0
C200 C 0.03704 0.19272 0.42054 0.0
C201 C 0.00964 0.24055 0.32274 0.0
C202 C 0.0066 0.26429 0.32842 0.0
C203 C 0.00467 0.27821 0.27394 0.0
C204 C 0.0055 0.26801 0.21258 0.0
C205 C 0.00793 0.24382 0.20693 0.0
C206 C 0.00933 0.23046 0.26233 0.0
C207 C 0.01073 0.23133 0.14529 0.0
C208 C 0.99149 0.2307 0.10142 0.0
C209 C 0.03076 0.21582 0.13747 0.0
C210 C 0.03079 0.19895 0.09007 0.0
C211 C 0.01099 0.1974 0.04838 0.0
C212 C 0.00502 0.30327 0.28522 0.0
C213 C 0.98473 0.31406 0.31535 0.0
C214 C 0.02784 0.31362 0.28878 0.0
C215 C 0.03089 0.33282 0.32791 0.0
C216 C 0.01107 0.34219 0.36297 0.0
C217 C 0.98772 0.33347 0.35374 0.0
C218 C 0.99171 0.21395 0.05299 0.0
H219 H 0.99216 0.21151 0.52338 0.0
H220 H 0.98661 0.24046 0.4397 0.0
H221 H 0.0459 0.20848 0.33215 0.0
H222 H 0.05037 0.17902 0.41129 0.0
H223 H 0.00722 0.27214 0.37533 0.0
H224 H 0.01099 0.21188 0.25827 0.0
H225 H 0.005 0.27869 0.1703 0.0
H226 H 0.97564 0.24213 0.10704 0.0
H227 H 0.04581 0.21585 0.17082 0.0
H228 H 0.04607 0.18672 0.087 0.0
H229 H 0.96713 0.30601 0.31491 0.0
H230 H 0.04386 0.30525 0.26752 0.0
H231 H 0.97621 0.21317 0.02129 0.0
H232 H 0.97226 0.34021 0.38117 0.0
H233 H 0.0491 0.33913 0.33501 0.0
C234 C 0.31031 0.11021 0.50288 0.0
C235 C 0.335 0.11351 0.48902 0.0
C236 C 0.29243 0.11877 0.46165 0.0
C237 C 0.29913 0.13095 0.40642 0.0
C238 C 0.32328 0.13854 0.40155 0.0
C239 C 0.34126 0.12961 0.44243 0.0
C240 C 0.28354 0.1294 0.34852 0.0
C241 C 0.25818 0.12757 0.35498 0.0
C242 C 0.24432 0.11696 0.30775 0.0
C243 C 0.25593 0.11004 0.25018 0.0
C244 C 0.28107 0.114 0.24006 0.0
C245 C 0.29453 0.12361 0.28967 0.0
C246 C 0.2947 0.10527 0.18251 0.0
C247 C 0.29149 0.0828 0.16075 0.0
C248 C 0.31325 0.11825 0.15411 0.0
C249 C 0.32837 0.10884 0.10576 0.0
C250 C 0.3254 0.08616 0.08465 0.0
C251 C 0.21905 0.11022 0.32552 0.0
C252 C 0.20356 0.12603 0.35821 0.0
C253 C 0.21254 0.087 0.32374 0.0
C254 C 0.19234 0.07948 0.35904 0.0
C255 C 0.17845 0.09506 0.39685 0.0
C256 C 0.18367 0.11851 0.39393 0.0
C257 C 0.30671 0.07333 0.11312 0.0
H258 H 0.30515 0.09803 0.5393 0.0
H259 H 0.27409 0.11276 0.46854 0.0
H260 H 0.32889 0.14884 0.36134 0.0
H261 H 0.36027 0.13264 0.43161 0.0
H262 H 0.24959 0.13219 0.40007 0.0
H263 H 0.31419 0.12417 0.2844 0.0
H264 H 0.24555 0.10136 0.21404 0.0
H265 H 0.27791 0.07209 0.18257 0.0
H266 H 0.31628 0.13565 0.16999 0.0
H267 H 0.34229 0.11938 0.08487 0.0
H268 H 0.208 0.14404 0.36031 0.0
H269 H 0.22424 0.07434 0.29973 0.0
H270 H 0.30413 0.05559 0.09993 0.0
H271 H 0.17321 0.13088 0.42244 0.0
H272 H 0.18877 0.06128 0.36079 0.0
C273 C 0.47966 0.30752 0.06969 0.0
C274 C 0.50257 0.31295 0.04428 0.0
C275 C 0.47771 0.28942 0.11333 0.0
C276 C 0.49856 0.27633 0.13109 0.0
C277 C 0.52082 0.2801 0.09979 0.0
C278 C 0.52286 0.29838 0.05707 0.0
C279 C 0.49951 0.26603 0.19532 0.0
C280 C 0.49934 0.24217 0.20654 0.0
C281 C 0.50378 0.23368 0.26859 0.0
C282 C 0.50839 0.24916 0.31838 0.0
C283 C 0.50912 0.27273 0.30685 0.0
C284 C 0.504 0.28104 0.24577 0.0
C285 C 0.51802 0.28854 0.35599 0.0
C286 C 0.50842 0.28881 0.4183 0.0
C287 C 0.53644 0.30374 0.33967 0.0
C288 C 0.54451 0.31955 0.38375 0.0
C289 C 0.53442 0.32053 0.44545 0.0
C290 C 0.50462 0.20881 0.28356 0.0
C291 C 0.48407 0.19532 0.27434 0.0
C292 C 0.52449 0.19967 0.31834 0.0
C293 C 0.52283 0.17857 0.3491 0.0
C294 C 0.50137 0.16606 0.34515 0.0
C295 C 0.48247 0.17396 0.30497 0.0
C296 C 0.51644 0.30488 0.46272 0.0
H297 H 0.46384 0.31868 0.06107 0.0
H298 H 0.46052 0.28724 0.13818 0.0
H299 H 0.53726 0.27066 0.11402 0.0
H300 H 0.54074 0.30235 0.03831 0.0
H301 H 0.49657 0.2304 0.16738 0.0
H302 H 0.50472 0.29937 0.23656 0.0
H303 H 0.51237 0.24274 0.36586 0.0
H304 H 0.49426 0.27713 0.43193 0.0
H305 H 0.54444 0.30361 0.29226 0.0
H306 H 0.55798 0.33167 0.36842 0.0
H307 H 0.46852 0.20205 0.24786 0.0
H308 H 0.54066 0.20964 0.32555 0.0
H309 H 0.50834 0.30534 0.50999 0.0
H310 H 0.46578 0.16453 0.30123 0.0
H311 H 0.53775 0.17266 0.3792 0.0
O312 O 0.04759 0.96941 0.81464 0.0
Mg313 Mg 0.04954 0.97907 0.71664 0.0
O314 O 0.01018 0.98128 0.79695 0.0
Mg315 Mg 1.00226 0.00642 0.71852 0.0
O316 O 0.04322 0.01292 0.68657 0.0
O317 O 0.07997 0.99471 0.684 0.0
O318 O 0.99247 0.03119 0.63941 0.0
O319 O 0.00644 0.03853 0.78779 0.0
Mg320 Mg 0.95231 0.03261 0.73485 0.0
O321 O 0.96214 -0.00105 0.75145 0.0
O322 O 0.95411 0.04359 0.63867 0.0
O323 O 0.96943 0.05466 0.79977 0.0
O324 O 0.92409 0.01328 0.76569 0.0
C325 C 0.01211 0.95812 0.63116 0.0
C326 C 0.02519 0.96943 0.82964 0.0
C327 C 0.06652 0.01278 0.67233 0.0
C328 C 0.97524 0.04285 0.61362 0.0
C329 C 0.99214 0.05422 0.8115 0.0
C330 C 0.93951 -0.00389 0.76891 0.0
O331 O 0.03337 0.95533 0.65405 0.0
O332 O 0.99849 0.97557 0.64625 0.0
O333 O 0.44299 0.99543 0.76087 0.0
Mg334 Mg 0.46195 0.97208 0.69938 0.0
O335 O 0.47182 0.01735 0.80101 0.0
Mg336 Mg 0.50405 0.00429 0.73031 0.0
O337 O 0.49364 0.96667 0.74575 0.0
O338 O 0.4679 0.93851 0.7288 0.0
O339 O 0.5348 0.99117 0.65899 0.0
O340 O 0.53111 0.99574 0.81067 0.0
Mg341 Mg 0.55178 0.03694 0.74552 0.0
O342 O 0.51692 0.0406 0.71476 0.0
O343 O 0.5668 0.01341 0.67508 0.0
O344 O 0.55276 0.02484 0.84128 0.0
O345 O 0.54098 0.07028 0.71724 0.0
C346 C 0.46574 0.00406 0.60409 0.0
C347 C 0.44938 0.01132 0.79858 0.0
C348 C 0.48775 0.94549 0.75436 0.0
C349 C 0.55699 -0.00349 0.64722 0.0
C350 C 0.54703 0.00401 0.84744 0.0
C351 C 0.52092 0.06154 0.69821 0.0
O352 O 0.46393 0.98244 0.60312 0.0
O353 O 0.47747 0.01331 0.64895 0.0
O354 O 0.53807 0.45773 0.78206 0.0
Mg355 Mg 0.55104 0.48701 0.73249 0.0
O356 O 0.5009 0.47296 0.79833 0.0
Mg357 Mg 0.50432 0.50323 0.72687 0.0
O358 O 0.53989 0.51596 0.78005 0.0
O359 O 0.57875 0.50219 0.77751 0.0
O360 O 0.50981 0.53367 0.6557 0.0
O361 O 0.48956 0.52937 0.80317 0.0
Mg362 Mg 0.46135 0.52096 0.71918 0.0
O363 O 0.46797 0.4902 0.67335 0.0
O364 O 0.4752 0.55172 0.68063 0.0
O365 O 0.45121 0.52204 0.81584 0.0
O366 O 0.43328 0.51186 0.66615 0.0
C367 C 0.53851 0.47423 0.6188 0.0
C368 C 0.51699 0.45696 0.80756 0.0
C369 C 0.56258 0.51699 0.79812 0.0
C370 C 0.49577 0.55151 0.65296 0.0
C371 C 0.46962 0.53282 0.83344 0.0
C372 C 0.44587 0.49357 0.65109 0.0
O373 O 0.55685 0.48566 0.63318 0.0
O374 O 0.51927 0.47694 0.65238 0.0
O375 O 0.95289 0.48699 0.84692 0.0
Mg376 Mg 0.95326 0.47193 0.75458 0.0
O377 O 0.97823 0.51353 0.81429 0.0
Mg378 Mg 1.00258 0.50291 0.72964 0.0
O379 O 0.98812 0.46721 0.72447 0.0
O380 O 0.96409 0.43773 0.73144 0.0
O381 O 0.02629 0.49158 0.64513 0.0
O382 O 0.0334 0.48845 0.79659 0.0
Mg383 Mg 0.05192 0.53092 0.70496 0.0
O384 O 0.01768 0.53928 0.73777 0.0
O385 O 0.05178 0.51754 0.61065 0.0
O386 O 0.067 0.50815 0.77644 0.0
O387 O 0.04566 0.56557 0.72532 0.0
C388 C 0.94936 0.51018 0.64982 0.0
C389 C 0.96246 0.50642 0.85386 0.0
C390 C 0.98461 0.44583 0.71309 0.0
C391 C 0.04178 0.49833 0.60447 0.0
C392 C 0.05596 0.49243 0.80638 0.0
C393 C 0.02429 0.56029 0.74594 0.0
O394 O 0.93938 0.49402 0.68066 0.0
O395 O 0.97148 0.51595 0.65986 0.0
H396 H 0.13583 0.07093 0.38236 0.0
H397 H 0.18302 0.10027 0.52415 0.0
H398 H 0.15604 0.08649 0.60995 0.0
H399 H 0.07826 0.08479 0.47044 0.0
H400 H 0.06394 0.05876 0.44521 0.0
H401 H 0.08634 0.07193 0.39482 0.0
H402 H 0.11185 0.03385 0.39187 0.0
H403 H 0.08948 0.02054 0.44181 0.0
H404 H 0.12108 0.02043 0.46572 0.0
H405 H 0.12628 0.06706 0.68035 0.0
H406 H 0.09643 0.04177 0.73129 0.0
H407 H 0.06652 0.026 0.54628 0.0
C408 C 0.14027 0.07454 0.43154 0.0
C409 C 0.1614 0.0868 0.44679 0.0
C410 C 0.16675 0.09117 0.51156 0.0
C411 C 0.15151 0.08344 0.56058 0.0
C412 C 0.13066 0.07165 0.54423 0.0
C413 C 0.12493 0.06723 0.48136 0.0
C414 C 0.10166 0.05367 0.47738 0.0
C415 C 0.08132 0.06815 0.44509 0.0
C416 C 0.10631 0.03076 0.44215 0.0
C417 C 0.09601 0.05002 0.54786 0.0
C418 C 0.1128 0.06098 0.58539 0.0
C419 C 0.11268 0.05886 0.65162 0.0
C420 C 0.09554 0.04461 0.68029 0.0
C421 C 0.07861 0.03266 0.64309 0.0
C422 C 0.07856 0.03576 0.57604 0.0
H423 H 0.50419 0.16808 0.47342 0.0
H424 H 0.49051 0.12115 0.31818 0.0
H425 H 0.48791 0.08898 0.39581 0.0
H426 H 0.54256 0.13227 0.56067 0.0
H427 H 0.53136 0.1417 0.63765 0.0
H428 H 0.52923 0.16077 0.57045 0.0
H429 H 0.4825 0.16571 0.58949 0.0
H430 H 0.48442 0.14637 0.65651 0.0
H431 H 0.46388 0.14069 0.59195 0.0
H432 H 0.49289 0.06152 0.48981 0.0
H433 H 0.50451 0.04166 0.58962 0.0
H434 H 0.51193 0.10728 0.68354 0.0
C435 C 0.50031 0.15105 0.45594 0.0
C436 C 0.4977 0.1469 0.39013 0.0
C437 C 0.49252 0.12454 0.36864 0.0
C438 C 0.49098 0.10627 0.41235 0.0
C439 C 0.49417 0.1109 0.47714 0.0
C440 C 0.4984 0.13286 0.49875 0.0
C441 C 0.50256 0.13333 0.56992 0.0
C442 C 0.52793 0.14255 0.58554 0.0
C443 C 0.48212 0.14735 0.60397 0.0
C444 C 0.50109 0.10803 0.58505 0.0
C445 C 0.49606 0.09532 0.53113 0.0
C446 C 0.49615 0.07137 0.53255 0.0
C447 C 0.50229 0.06019 0.58988 0.0
C448 C 0.50782 0.07294 0.6452 0.0
C449 C 0.50672 0.09715 0.64273 0.0
H450 H 0.34329 0.45978 0.40865 0.0
H451 H 0.36435 0.38797 0.43465 0.0
H452 H 0.39987 0.39953 0.49864 0.0
H453 H 0.40422 0.48305 0.40226 0.0
H454 H 0.39487 0.50836 0.44676 0.0
H455 H 0.37321 0.4942 0.39701 0.0
H456 H 0.34394 0.49025 0.4939 0.0
H457 H 0.36544 0.5044 0.54383 0.0
H458 H 0.35498 0.47635 0.56537 0.0
H459 H 0.43198 0.41995 0.56801 0.0
H460 H 0.45527 0.44661 0.6361 0.0
H461 H 0.41062 0.50381 0.56562 0.0
C462 C 0.35539 0.4464 0.42735 0.0
C463 C 0.35096 0.42296 0.41645 0.0
C464 C 0.36752 0.40608 0.44144 0.0
C465 C 0.3877 0.41249 0.47816 0.0
C466 C 0.39111 0.43583 0.48931 0.0
C467 C 0.37531 0.45245 0.46434 0.0
C468 C 0.38153 0.47623 0.48639 0.0
C469 C 0.3889 0.49134 0.42973 0.0
C470 C 0.36021 0.48745 0.52465 0.0
C471 C 0.4031 0.47053 0.52856 0.0
C472 C 0.40874 0.44723 0.52945 0.0
C473 C 0.42774 0.43823 0.56722 0.0
C474 C 0.4409 0.45345 0.60564 0.0
C475 C 0.4346 0.47723 0.60658 0.0
C476 C 0.41578 0.4857 0.5665 0.0
H477 H 1.00051 0.38858 0.37742 0.0
H478 H 0.03049 0.32863 0.47483 0.0
H479 H 0.03367 0.35118 0.57426 0.0
H480 H 0.03891 0.43016 0.4642 0.0
H481 H 0.01528 0.45241 0.46869 0.0
H482 H 0.01674 0.43296 0.4016 0.0
H483 H 0.97285 0.41997 0.42096 0.0
H484 H 0.96996 0.44018 0.48559 0.0
H485 H 0.96398 0.41026 0.49916 0.0
H486 H 0.02642 0.37773 0.66608 0.0
H487 H 0.01122 0.40726 0.74273 0.0
H488 H 0.98997 0.45167 0.58604 0.0
C489 C 0.00829 0.3805 0.41942 0.0
C490 C 0.01549 0.35701 0.41879 0.0
C491 C 0.02523 0.34673 0.47456 0.0
C492 C 0.0271 0.35939 0.5311 0.0
C493 C 0.01957 0.38247 0.53076 0.0
C494 C 0.01074 0.39307 0.47617 0.0
C495 C 1.00286 0.41782 0.48973 0.0
C496 C 0.01942 0.43436 0.45393 0.0
C497 C 0.97581 0.4223 0.4729 0.0
C498 C 0.00706 0.41896 0.56117 0.0
C499 C 0.01691 0.3984 0.58375 0.0
C500 C 0.01943 0.39416 0.64892 0.0
C501 C 0.01095 0.41104 0.69216 0.0
C502 C 1.00039 0.43195 0.67004 0.0
C503 C 0.99914 0.43624 0.60384 0.0
H504 H 0.88392 0.93096 0.05943 0.0
H505 H 0.82684 0.91161 0.92954 0.0
H506 H 0.85213 0.92338 0.83804 0.0
H507 H 0.90194 0.97981 0.98701 0.0
H508 H 0.93446 0.97564 0.99731 0.0
H509 H 0.91368 0.96217 0.05122 0.0
H510 H 0.93417 0.92247 0.0252 0.0
H511 H 0.95488 0.93595 0.97042 0.0
H512 H 0.93623 0.91292 0.94356 0.0
H513 H 0.88003 0.94226 0.76309 0.0
H514 H 0.90739 0.96938 0.71051 0.0
H515 H 0.94819 0.9759 0.88531 0.0
C516 C 0.87712 0.9288 0.0115 0.0
C517 C 0.85352 0.92027 0.00126 0.0
C518 C 0.84498 0.91785 0.93816 0.0
C519 C 0.85928 0.92437 0.88591 0.0
C520 C 0.88244 0.93278 0.89723 0.0
C521 C 0.89151 0.93479 0.95835 0.0
C522 C 0.91633 0.94591 0.95698 0.0
C523 C 0.91659 0.96715 0.00067 0.0
C524 C 0.9366 0.92827 0.97514 0.0
C525 C 0.91834 0.95227 0.88676 0.0
C526 C 0.89909 0.94352 0.85287 0.0
C527 C 0.89555 0.94865 0.78862 0.0
C528 C 0.9113 0.96396 0.7589 0.0
C529 C 0.93032 0.97413 0.7932 0.0
C530 C 0.93443 0.96758 0.85735 0.0
H531 H 0.48525 0.86344 0.05388 0.0
H532 H 0.56378 0.85226 0.03405 0.0
H533 H 0.5638 0.87857 0.94222 0.0
H534 H 0.47106 0.86617 0.89406 0.0
H535 H 0.44795 0.88873 0.9022 0.0
H536 H 0.45436 0.86974 0.96798 0.0
H537 H 0.46302 0.90455 0.0408 0.0
H538 H 0.45627 0.92375 0.97548 0.0
H539 H 0.48515 0.92511 0.01591 0.0
H540 H 0.55482 0.9079 0.85144 0.0
H541 H 0.53683 0.93415 0.76931 0.0
H542 H 0.46496 0.92479 0.85111 0.0
C543 C 0.50272 0.86708 0.03238 0.0
C544 C 0.52449 0.85554 0.05204 0.0
C545 C 0.54668 0.86048 0.01993 0.0
C546 C 0.54695 0.87566 0.96786 0.0
C547 C 0.52507 0.88657 0.94965 0.0
C548 C 0.50343 0.88254 0.98149 0.0
C549 C 0.48214 0.89554 0.95168 0.0
C550 C 0.46275 0.87905 0.92754 0.0
C551 C 0.47099 0.91329 0.99877 0.0
C552 C 0.49501 0.90719 0.89719 0.0
C553 C 0.51985 0.90227 0.89702 0.0
C554 C 0.53536 0.91179 0.85135 0.0
C555 C 0.52508 0.92664 0.80493 0.0
C556 C 0.49956 0.93108 0.80369 0.0
C557 C 0.48452 0.92131 0.85055 0.0
H558 H 0.6575 0.59611 0.96158 0.0
H559 H 0.64611 0.55574 0.13252 0.0
H560 H 0.61012 0.53857 0.08315 0.0
H561 H 0.59048 0.60469 0.92241 0.0
H562 H 0.59651 0.60256 0.83803 0.0
H563 H 0.61894 0.61452 0.89019 0.0
H564 H 0.6515 0.58471 0.84882 0.0
H565 H 0.62927 0.57291 0.79644 0.0
H566 H 0.64515 0.5545 0.85263 0.0
H567 H 0.57778 0.52329 0.01253 0.0
H568 H 0.55508 0.50756 0.92167 0.0
H569 H 0.5882 0.55663 0.79526 0.0
C570 C 0.647 0.58418 0.98941 0.0
C571 C 0.65456 0.57744 0.05127 0.0
C572 C 0.64076 0.56116 0.0851 0.0
C573 C 0.6201 0.55151 0.05771 0.0
C574 C 0.61327 0.55842 0.99656 0.0
C575 C 0.62634 0.57435 0.9627 0.0
C576 C 0.61667 0.57705 0.89538 0.0
C577 C 0.60496 0.60114 0.88596 0.0
C578 C 0.63685 0.57197 0.84541 0.0
C579 C 0.59734 0.55893 0.89519 0.0
C580 C 0.59494 0.54911 0.9549 0.0
C581 C 0.57914 0.53117 0.96597 0.0
C582 C 0.56617 0.52247 0.91427 0.0
C583 C 0.56947 0.53138 0.85224 0.0
C584 C 0.58481 0.55013 0.84278 0.0
H585 H 0.02186 0.65694 0.01173 0.0
H586 H 0.95181 0.63222 0.07545 0.0
H587 H 0.95149 0.60551 0.9832 0.0
H588 H 0.00944 0.65426 0.8421 0.0
H589 H 0.04032 0.64525 0.82197 0.0
H590 H 0.03445 0.66297 0.89121 0.0
H591 H 0.05688 0.63281 0.96256 0.0
H592 H 0.0631 0.61521 0.89349 0.0
H593 H 0.04744 0.60339 0.96128 0.0
H594 H 0.95957 0.58108 0.88338 0.0
H595 H 0.97731 0.55773 0.79459 0.0
H596 H 0.04173 0.59936 0.79813 0.0
C597 C 0.00652 0.64575 0.00685 0.0
C598 C 0.98699 0.64651 0.05132 0.0
C599 C 0.96699 0.63195 0.04205 0.0
C600 C 0.96658 0.61681 0.98967 0.0
C601 C 0.9861 0.61667 0.94652 0.0
C602 C 0.00572 0.63075 0.95485 0.0
C603 C 0.02482 0.62694 0.90318 0.0
C604 C 0.0274 0.64865 0.8622 0.0
C605 C 0.04951 0.61911 0.93185 0.0
C606 C 0.01336 0.60789 0.86566 0.0
C607 C 0.99085 0.60243 0.89046 0.0
C608 C 0.97728 0.58487 0.8643 0.0
C609 C 0.98748 0.57177 0.81377 0.0
C610 C 0.01105 0.57642 0.78986 0.0
C611 C 0.02362 0.59529 0.81494 0.0
H612 H 0.98037 0.17399 0.52901 0.0
H613 H 0.05866 0.16158 0.50477 0.0
H614 H 0.05316 0.12042 0.52423 0.0
H615 H 0.97693 0.12923 0.6635 0.0
H616 H 0.94613 0.12297 0.64091 0.0
H617 H 0.95717 0.15163 0.63141 0.0
H618 H 0.94463 0.14994 0.51253 0.0
H619 H 0.93517 0.12072 0.52048 0.0
H620 H 0.95792 0.12782 0.46172 0.0
H621 H 0.03808 0.08074 0.52237 0.0
H622 H 0.01769 0.0447 0.54619 0.0
H623 H 0.95032 0.08337 0.58814 0.0
C624 C 0.99664 0.163 0.53055 0.0
C625 C 0.01979 0.17094 0.51162 0.0
C626 C 0.04049 0.15574 0.51551 0.0
C627 C 0.03761 0.13232 0.52659 0.0
C628 C 0.01413 0.12474 0.53758 0.0
C629 C 0.99428 0.13972 0.54432 0.0
C630 C 0.97127 0.127 0.5601 0.0
C631 C 0.96235 0.13306 0.628 0.0
C632 C 0.95107 0.13166 0.51072 0.0
C633 C 0.98107 0.10246 0.55626 0.0
C634 C 0.00577 0.10165 0.54239 0.0
C635 C 0.01889 0.08105 0.53464 0.0
C636 C 0.007 0.06068 0.54738 0.0
C637 C 0.98259 0.06129 0.57043 0.0
C638 C 0.96898 0.0823 0.57057 0.0
H639 H 0.37726 0.11418 0.56079 0.0
H640 H 0.33216 0.07049 0.44574 0.0
H641 H 0.36271 0.03879 0.45496 0.0
H642 H 0.43669 0.09353 0.50454 0.0
H643 H 0.44953 0.09493 0.58348 0.0
H644 H 0.42439 0.11384 0.56225 0.0
H645 H 0.40158 0.09823 0.66274 0.0
H646 H 0.42694 0.07879 0.67917 0.0
H647 H 0.39677 0.06779 0.66925 0.0
H648 H 0.39831 0.01256 0.47165 0.0
H649 H 0.43427 0.9905 0.51121 0.0
H650 H 0.45513 0.04994 0.62166 0.0
C651 C 0.37388 0.09783 0.53826 0.0
C652 C 0.3525 0.09458 0.50281 0.0
C653 C 0.34845 0.07307 0.47369 0.0
C654 C 0.36574 0.05508 0.47807 0.0
C655 C 0.3869 0.05883 0.5122 0.0
C656 C 0.39082 0.07939 0.54325 0.0
C657 C 0.41451 0.07817 0.58002 0.0
C658 C 0.43233 0.09619 0.55593 0.0
C659 C 0.40965 0.08089 0.65205 0.0
C660 C 0.42339 0.05394 0.5634 0.0
C661 C 0.40729 0.04324 0.52365 0.0
C662 C 0.41118 0.02068 0.5028 0.0
C663 C 0.43173 0.00834 0.52515 0.0
C664 C 0.44787 0.01853 0.56858 0.0
C665 C 0.44378 0.04181 0.58674 0.0
H666 H 0.50344 0.34854 0.51517 0.0
H667 H 0.58003 0.33635 0.468 0.0
H668 H 0.58936 0.37492 0.50799 0.0
H669 H 0.49708 0.40242 0.46746 0.0
H670 H 0.47859 0.41418 0.5317 0.0
H671 H 0.47769 0.38403 0.5134 0.0
H672 H 0.4899 0.37292 0.62858 0.0
H673 H 0.48939 0.40305 0.64869 0.0
H674 H 0.51634 0.38542 0.66391 0.0
H675 H 0.58895 0.41672 0.53154 0.0
H676 H 0.58077 0.45699 0.56377 0.0
H677 H 0.50456 0.44163 0.59786 0.0
C678 C 0.52233 0.35355 0.51619 0.0
C679 C 0.54098 0.33969 0.48765 0.0
C680 C 0.56545 0.34694 0.48883 0.0
C681 C 0.57093 0.36878 0.51139 0.0
C682 C 0.5518 0.3828 0.53418 0.0
C683 C 0.52816 0.37521 0.53944 0.0
C684 C 0.51085 0.39419 0.56303 0.0
C685 C 0.48983 0.39897 0.51604 0.0
C686 C 0.50105 0.38856 0.63002 0.0
C687 C 0.52816 0.41395 0.56525 0.0
C688 C 0.55171 0.40697 0.54915 0.0
C689 C 0.5707 0.42234 0.54575 0.0
C690 C 0.56579 0.44525 0.56311 0.0
C691 C 0.54208 0.45246 0.58363 0.0
C692 C 0.5229 0.43671 0.58239 0.0
H693 H 0.13472 0.39331 0.56925 0.0
H694 H 0.13658 0.40688 0.36614 0.0
H695 H 0.10364 0.43643 0.37884 0.0
H696 H 0.06802 0.40066 0.58531 0.0
H697 H 0.06905 0.41452 0.66235 0.0
H698 H 0.09231 0.39343 0.63973 0.0
H699 H 0.12654 0.4219 0.65853 0.0
H700 H 0.10406 0.44312 0.6844 0.0
H701 H 0.12501 0.44972 0.62077 0.0
H702 H 0.07665 0.46918 0.41666 0.0
H703 H 0.05111 0.49829 0.47559 0.0
H704 H 0.0626 0.45986 0.65026 0.0
C705 C 0.12751 0.40199 0.52745 0.0
C706 C 0.13765 0.39768 0.46668 0.0
C707 C 0.12843 0.40968 0.41284 0.0
C708 C 0.10995 0.42659 0.41962 0.0
C709 C 0.10064 0.43091 0.48036 0.0
C710 C 0.1086 0.41856 0.53312 0.0
C711 C 0.0957 0.42683 0.59308 0.0
C712 C 0.08032 0.40774 0.62187 0.0
C713 C 0.11392 0.43594 0.64203 0.0
C714 C 0.07979 0.44607 0.56585 0.0
C715 C 0.08329 0.44853 0.50101 0.0
C716 C 0.07305 0.46706 0.46707 0.0
C717 C 0.05865 0.48344 0.50052 0.0
C718 C 0.0544 0.48065 0.56637 0.0
C719 C 0.06485 0.46168 0.59912 0.0
H720 H 0.02827 0.85524 0.03549 0.0
H721 H 0.97874 0.82829 0.89453 0.0
H722 H 0.974 0.867 0.84749 0.0
H723 H 0.99875 0.91287 0.04985 0.0
H724 H 0.02758 0.92677 0.05756 0.0
H725 H 0.02429 0.89782 0.08635 0.0
H726 H 0.0611 0.88407 0.01603 0.0
H727 H 0.0645 0.91292 0.98745 0.0
H728 H 0.06062 0.88978 0.93152 0.0
H729 H 0.97517 0.90747 0.81509 0.0
H730 H 0.98776 0.94576 0.78402 0.0
H731 H 0.04075 0.94579 0.93753 0.0
C732 C 0.01658 0.85734 0.99434 0.0
C733 C 1.00382 0.83872 0.96869 0.0
C734 C 0.98838 0.84237 0.91555 0.0
C735 C 0.98549 0.86428 0.88875 0.0
C736 C 0.99822 0.88222 0.91567 0.0
C737 C 0.01376 0.87896 0.96652 0.0
C738 C 0.02709 0.90066 0.98241 0.0
C739 C 0.01894 0.91008 0.04794 0.0
C740 C 0.05498 0.89661 0.97908 0.0
C741 C 0.01788 0.9162 0.92954 0.0
C742 C 1.00029 0.90548 0.8939 0.0
C743 C 0.98881 0.91609 0.84268 0.0
C744 C 0.99608 0.93797 0.82582 0.0
C745 C 0.01518 0.9488 0.85892 0.0
C746 C 0.02602 0.93793 0.91204 0.0
H747 H 0.62957 0.91076 0.03205 0.0
H748 H 0.66767 0.90023 0.85177 0.0
H749 H 0.63786 0.92638 0.79931 0.0
H750 H 0.56479 0.91901 0.96166 0.0
H751 H 0.5577 0.93951 0.02339 0.0
H752 H 0.57865 0.91563 0.03892 0.0
H753 H 0.60969 0.94655 0.07459 0.0
H754 H 0.58916 0.96977 0.05167 0.0
H755 H 0.61942 0.96758 0.01736 0.0
H756 H 0.61187 0.95967 0.77382 0.0
H757 H 0.58238 0.99193 0.76645 0.0
H758 H 0.55688 0.9792 0.95877 0.0
C759 C 0.63082 0.91294 0.98087 0.0
C760 C 0.65089 0.90352 0.94576 0.0
C761 C 0.65243 0.90735 0.8793 0.0
C762 C 0.63565 0.9222 0.84926 0.0
C763 C 0.61721 0.93259 0.88624 0.0
C764 C 0.61403 0.9276 0.95002 0.0
C765 C 0.59384 0.94274 0.97955 0.0
C766 C 0.57249 0.92834 0.00243 0.0
C767 C 0.60364 0.95753 0.034 0.0
C768 C 0.58665 0.95736 0.92262 0.0
C769 C 0.6008 0.95134 0.86989 0.0
C770 C 0.59993 0.96386 0.81377 0.0
C771 C 0.58323 0.98227 0.81017 0.0
C772 C 0.56709 0.98763 0.86131 0.0
C773 C 0.5689 0.97523 0.91882 0.0
H774 H 0.50928 0.64755 0.00121 0.0
H775 H 0.45882 0.68364 0.87454 0.0
H776 H 0.44851 0.64666 0.8251 0.0
H777 H 0.53035 0.60262 0.88256 0.0
H778 H 0.53256 0.58098 0.94386 0.0
H779 H 0.53812 0.61055 0.96286 0.0
H780 H 0.50522 0.60893 0.05207 0.0
H781 H 0.49879 0.57968 0.03172 0.0
H782 H 0.47452 0.60129 0.03203 0.0
H783 H 0.43871 0.60611 0.80312 0.0
H784 H 0.4368 0.56416 0.7901 0.0
H785 H 0.49592 0.55439 0.92506 0.0
C786 C 0.49679 0.64783 0.96138 0.0
C787 C 0.48466 0.66841 0.94191 0.0
C788 C 0.468 0.66798 0.89066 0.0
C789 C 0.46208 0.64711 0.86234 0.0
C790 C 0.47327 0.62701 0.88542 0.0
C791 C 0.49089 0.62721 0.93221 0.0
C792 C 0.49947 0.60307 0.94997 0.0
C793 C 0.52673 0.59907 0.9338 0.0
C794 C 0.49418 0.59796 0.02063 0.0
C795 C 0.48339 0.58927 0.90696 0.0
C796 C 0.46821 0.60346 0.87088 0.0
C797 C 0.45068 0.59481 0.83048 0.0
C798 C 0.44938 0.57097 0.82453 0.0
C799 C 0.46583 0.55616 0.85791 0.0
C800 C 0.48282 0.56541 0.90027 0.0
H801 H 0.85969 0.60422 0.86362 0.0
H802 H 0.87969 0.617 0.06019 0.0
H803 H 0.91348 0.58844 0.05093 0.0
H804 H 0.86762 0.54565 0.86771 0.0
H805 H 0.88051 0.54222 0.78883 0.0
H806 H 0.86034 0.56639 0.80633 0.0
H807 H 0.89335 0.59447 0.76894 0.0
H808 H 0.91349 0.57034 0.75007 0.0
H809 H 0.92347 0.59251 0.80312 0.0
H810 H 0.94249 0.55534 0.02432 0.0
H811 H 0.96667 0.52253 0.97692 0.0
H812 H 0.92638 0.53078 0.80095 0.0
C813 C 0.8717 0.60157 0.90395 0.0
C814 C 0.86715 0.61303 0.96231 0.0
C815 C 0.88311 0.60888 0.0144 0.0
C816 C 0.90219 0.59242 0.00998 0.0
C817 C 0.90529 0.58047 0.95298 0.0
C818 C 0.89088 0.58522 0.90032 0.0
C819 C 0.89718 0.56912 0.84571 0.0
C820 C 0.87509 0.55502 0.82606 0.0
C821 C 0.9075 0.5824 0.78862 0.0
C822 C 0.9167 0.55414 0.87681 0.0
C823 C 0.92128 0.56094 0.93857 0.0
C824 C 0.93897 0.54972 0.97615 0.0
C825 C 0.9525 0.53117 0.94931 0.0
C826 C 0.94783 0.5242 0.88628 0.0
C827 C 0.92978 0.53574 0.84988 0.0
H828 H 0.01776 0.15109 0.07139 0.0
H829 H 1.00223 0.20018 0.92048 0.0
H830 H 1.00143 0.16834 0.84237 0.0
H831 H 0.05567 0.11018 0.97554 0.0
H832 H 0.04344 0.08524 0.01374 0.0
H833 H 0.04531 0.11187 0.05721 0.0
H834 H 0.99898 0.11121 0.08233 0.0
H835 H 0.99705 0.08449 0.0397 0.0
H836 H 0.9776 0.10872 0.01779 0.0
H837 H 1.00149 0.13177 0.78134 0.0
H838 H 0.99575 0.09233 0.74267 0.0
H839 H 0.00831 0.06576 0.93308 0.0
C840 C 0.01452 0.15509 0.02168 0.0
C841 C 0.01033 0.17815 0.00166 0.0
C842 C 0.00554 0.1827 0.93666 0.0
C843 C 0.00527 0.16473 0.89198 0.0
C844 C 0.00961 0.14225 0.91309 0.0
C845 C 0.01378 0.13727 0.97652 0.0
C846 C 0.0158 0.11141 0.98719 0.0
C847 C 0.04159 0.10425 0.00976 0.0
C848 C 0.99618 0.1035 0.03453 0.0
C849 C 0.01122 0.1026 0.92014 0.0
C850 C 0.00852 0.12081 0.87804 0.0
C851 C 1.0037 0.1174 0.81373 0.0
C852 C 1.00062 0.09493 0.79215 0.0
C853 C 1.00197 0.07606 0.83464 0.0
C854 C 0.00779 0.07985 0.89938 0.0
H855 H 0.3752 0.09256 0.05649 0.0
H856 H 0.31136 0.05632 0.99262 0.0
H857 H 0.33677 0.03476 0.91614 0.0
H858 H 0.40176 0.09572 0.88928 0.0
H859 H 0.43285 0.09296 0.91661 0.0
H860 H 0.40979 0.1068 0.96639 0.0
H861 H 0.42067 0.07851 0.05747 0.0
H862 H 0.44348 0.06437 0.00775 0.0
H863 H 0.41951 0.04798 0.0434 0.0
H864 H 0.36758 0.01415 0.8571 0.0
H865 H 0.40258 -0.0019 0.80051 0.0
H866 H 0.44929 0.04862 0.88765 0.0
C867 C 0.36651 0.08035 0.02571 0.0
C868 C 0.34117 0.07563 0.03286 0.0
C869 C 0.3307 0.05965 0.99082 0.0
C870 C 0.34499 0.04742 0.94641 0.0
C871 C 0.36979 0.05171 0.94252 0.0
C872 C 0.38057 0.06817 0.97924 0.0
C873 C 0.40781 0.06928 0.96242 0.0
C874 C 0.41339 0.09258 0.93188 0.0
C875 C 0.42381 0.06475 0.02129 0.0
C876 C 0.41064 0.04981 0.91354 0.0
C877 C 0.38815 0.04031 0.90336 0.0
C878 C 0.38523 0.02173 0.86334 0.0
C879 C 0.40559 0.01268 0.83129 0.0
C880 C 0.42914 0.02209 0.8382 0.0
C881 C 0.4317 0.04102 0.8806 0.0
H882 H 0.48233 0.33246 0.93555 0.0
H883 H 0.53105 0.34551 0.09292 0.0
H884 H 0.53677 0.38495 0.0537 0.0
H885 H 0.51726 0.36357 0.81846 0.0
H886 H 0.49078 0.37447 0.77629 0.0
H887 H 0.48954 0.34758 0.81844 0.0
H888 H 0.4518 0.36325 0.88204 0.0
H889 H 0.45326 0.39029 0.84048 0.0
H890 H 0.45393 0.38967 0.92639 0.0
H891 H 0.53808 0.42221 0.99802 0.0
H892 H 0.53784 0.45475 0.92248 0.0
H893 H 0.48927 0.41837 0.798 0.0
C894 C 0.49416 0.34372 0.96144 0.0
C895 C 0.50637 0.33604 0.01704 0.0
C896 C 0.52179 0.35108 0.04985 0.0
C897 C 0.52498 0.37353 0.02826 0.0
C898 C 0.51276 0.38067 0.97343 0.0
C899 C 0.49791 0.36621 0.93979 0.0
C900 C 0.48813 0.37801 0.88016 0.0
C901 C 0.49696 0.36514 0.81977 0.0
C902 C 0.46011 0.38045 0.88243 0.0
C903 C 0.49984 0.40127 0.88573 0.0
C904 C 0.51374 0.4024 0.94041 0.0
C905 C 0.52712 0.42164 0.95533 0.0
C906 C 0.52679 0.44004 0.91245 0.0
C907 C 0.51316 0.4391 0.8556 0.0
C908 C 0.49926 0.41963 0.84223 0.0
H909 H 0.1531 0.45641 0.07412 0.0
H910 H 0.16327 0.39186 0.97171 0.0
H911 H 0.1301 0.40339 0.89874 0.0
H912 H 0.08717 0.46159 0.05668 0.0
H913 H 0.08697 0.49228 0.04502 0.0
H914 H 0.11047 0.4785 0.0926 0.0
H915 H 0.14388 0.49605 0.02113 0.0
H916 H 0.12052 0.51009 0.97391 0.0
H917 H 0.14318 0.49144 0.93613 0.0
H918 H 0.09563 0.42169 0.83644 0.0
H919 H 0.06583 0.44756 0.78162 0.0
H920 H 0.08032 0.50158 0.91734 0.0
C921 C 0.1486 0.44474 0.03603 0.0
C922 C 0.16083 0.42302 0.02956 0.0
C923 C 0.15396 0.40832 0.9791 0.0
C924 C 0.13512 0.41475 0.93708 0.0
C925 C 0.12331 0.43607 0.9454 0.0
C926 C 0.12997 0.451 0.99306 0.0
C927 C 0.11505 0.47338 0.98962 0.0
C928 C 0.09897 0.47662 0.04955 0.0
C929 C 0.13165 0.49395 0.97956 0.0
C930 C 0.09957 0.46898 0.9313 0.0
C931 C 0.10415 0.44707 0.90766 0.0
C932 C 0.09189 0.43886 0.85457 0.0
C933 C 0.07491 0.45358 0.82399 0.0
C934 C 0.07074 0.47637 0.84575 0.0
C935 C 0.08311 0.48413 0.90026 0.0
H936 H 0.99798 0.82873 0.51851 0.0
H937 H 0.99922 0.85415 0.32458 0.0
H938 H 0.99707 0.89423 0.36459 0.0
H939 H 0.95721 0.87511 0.5855 0.0
H940 H 0.97373 0.87604 0.65949 0.0
H941 H 0.97236 0.84946 0.61558 0.0
H942 H 0.01971 0.84613 0.61328 0.0
H943 H 0.02114 0.87254 0.65751 0.0
H944 H 0.03687 0.86963 0.58201 0.0
H945 H 0.99689 0.93164 0.42612 0.0
H946 H 1.00291 0.96303 0.5042 0.0
H947 H 1.00409 0.91331 0.65771 0.0
C948 C 0.99734 0.84281 0.48477 0.0
C949 C 0.99843 0.83853 0.41859 0.0
C950 C 0.99813 0.85724 0.3755 0.0
C951 C 0.99683 0.88001 0.39778 0.0
C952 C 0.99589 0.88378 0.46342 0.0
C953 C 0.99627 0.8657 0.50634 0.0
C954 C 0.9971 0.87445 0.57439 0.0
C955 C 0.97371 0.8684 0.6109 0.0
C956 C 0.02008 0.86514 0.60879 0.0
C957 C 0.99811 0.90014 0.56299 0.0
C958 C 0.99668 0.90525 0.49875 0.0
C959 C 0.99779 0.92784 0.47658 0.0
C960 C 1.00105 0.94557 0.5211 0.0
C961 C 1.00359 0.9405 0.58664 0.0
C962 C 1.00179 0.91757 0.60778 0.0
H963 H 0.68245 0.9549 0.47969 0.0
H964 H 0.64056 0.90907 0.36283 0.0
H965 H 0.60278 0.92141 0.41998 0.0
H966 H 0.64694 0.94543 0.62669 0.0
H967 H 0.64952 0.97474 0.65301 0.0
H968 H 0.67337 0.96148 0.60467 0.0
H969 H 0.66884 0.99455 0.52234 0.0
H970 H 0.64501 0.00789 0.57035 0.0
H971 H 0.6393 0.00102 0.48804 0.0
H972 H 0.56892 0.94026 0.48802 0.0
H973 H 0.54253 0.96357 0.56139 0.0
H974 H 0.6068 -0.00333 0.6336 0.0
C975 C 0.66533 0.94741 0.46638 0.0
C976 C 0.66451 0.93095 0.41694 0.0
C977 C 0.64173 0.92148 0.40113 0.0
C978 C 0.62013 0.92845 0.43318 0.0
C979 C 0.62154 0.94477 0.48156 0.0
C980 C 0.64362 0.95396 0.49849 0.0
C981 C 0.64018 0.97124 0.5521 0.0
C982 C 0.65328 0.96271 0.6127 0.0
C983 C 0.64884 0.99508 0.53196 0.0
C984 C 0.61266 0.97113 0.5607 0.0
C985 C 0.60221 0.95552 0.52033 0.0
C986 C 0.57697 0.95251 0.51992 0.0
C987 C 0.5621 0.96585 0.56171 0.0
C988 C 0.57246 0.98219 0.6029 0.0
C989 C 0.59814 0.98461 0.60226 0.0
H990 H 0.50268 0.64679 0.38241 0.0
H991 H 0.51371 0.69642 0.53305 0.0
H992 H 0.51561 0.66477 0.61215 0.0
H993 H 0.46337 0.61094 0.47306 0.0
H994 H 0.4749 0.58459 0.43726 0.0
H995 H 0.4756 0.61106 0.39304 0.0
H996 H 0.52222 0.60489 0.37537 0.0
H997 H 0.52171 0.57851 0.42026 0.0
H998 H 0.54193 0.60093 0.44327 0.0
H999 H 0.51517 0.62794 0.67461 0.0
H1000 H 0.50913 0.58893 0.71763 0.0
H1001 H 0.4983 0.56313 0.52643 0.0
C1002 C 0.50572 0.65094 0.43204 0.0
C1003 C 0.50831 0.67399 0.45179 0.0
C1004 C 0.51168 0.67887 0.51716 0.0
C1005 C 0.51295 0.66101 0.56218 0.0
C1006 C 0.51062 0.63843 0.54098 0.0
C1007 C 0.50679 0.63338 0.47754 0.0
C1008 C 0.50339 0.60785 0.46763 0.0
C1009 C 0.4778 0.60335 0.44121 0.0
C1010 C 0.52352 0.59744 0.42405 0.0
C1011 C 0.506 0.59924 0.53548 0.0
C1012 C 0.51031 0.61718 0.57697 0.0
C1013 C 0.51212 0.61376 0.64252 0.0
C1014 C 0.50883 0.59157 0.66647 0.0
C1015 C 0.50398 0.57311 0.625 0.0
C1016 C 0.50284 0.57689 0.55867 0.0
H1017 H 0.85474 0.59042 0.45118 0.0
H1018 H 0.84931 0.53184 0.32423 0.0
H1019 H 0.88056 0.5107 0.38619 0.0
H1020 H 0.91991 0.58506 0.47611 0.0
H1021 H 0.91878 0.59252 0.55954 0.0
H1022 H 0.89563 0.60372 0.50629 0.0
H1023 H 0.8618 0.58683 0.5775 0.0
H1024 H 0.88483 0.57593 0.63148 0.0
H1025 H 0.86325 0.55668 0.59739 0.0
H1026 H 0.91244 0.49592 0.45743 0.0
H1027 H 0.94077 0.48603 0.54468 0.0
H1028 H 0.92652 0.55294 0.63059 0.0
C1029 C 0.85996 0.57303 0.43718 0.0
C1030 C 0.84976 0.56285 0.3823 0.0
C1031 C 0.85712 0.54011 0.36534 0.0
C1032 C 0.87489 0.52795 0.40021 0.0
C1033 C 0.88517 0.53863 0.45249 0.0
C1034 C 0.87784 0.56047 0.47192 0.0
C1035 C 0.89188 0.56743 0.53112 0.0
C1036 C 0.90747 0.58843 0.51742 0.0
C1037 C 0.8744 0.57198 0.58773 0.0
C1038 C 0.90792 0.54595 0.54188 0.0
C1039 C 0.90382 0.52979 0.4951 0.0
C1040 C 0.91588 0.5084 0.49431 0.0
C1041 C 0.93203 0.50299 0.54377 0.0
C1042 C 0.93605 0.51883 0.59344 0.0
C1043 C 0.92413 0.54077 0.5922 0.0
loop_
_geom_bond_atom_site_label_1
_geom_bond_atom_site_label_2
_geom_bond_distance
_geom_bond_site_symmetry_2
_ccdc_geom_bond_type
C0 C1 1.386 . S
C0 C2 1.397 . S
C0 H24 0.931 . S
C1 C0 1.386 . S
C1 C5 1.397 . S
C2 C0 1.397 . S
C2 C3 1.384 1_556 S
C2 H25 0.930 . S
C3 C2 1.384 1_554 S
C3 C4 1.377 . S
C3 C6 1.481 . S
C4 C3 1.377 . S
C4 C5 1.389 1_554 S
C4 H26 0.929 . S
C5 C1 1.397 . S
C5 C4 1.389 1_556 S
C5 H27 0.931 . S
C6 C3 1.481 . S
C6 C7 1.387 . S
C6 C11 1.390 . S
C7 C6 1.387 . S
C7 C8 1.401 . S
C7 H28 0.933 . S
C8 C7 1.401 . S
C8 C9 1.376 . S
C8 C17 1.511 . S
C9 C8 1.376 . S
C9 C10 1.392 . S
C9 H30 0.931 . S
C10 C9 1.392 . S
C10 C11 1.361 . S
C10 C12 1.500 . S
C11 C6 1.390 . S
C11 C10 1.361 . S
C11 H29 0.931 . S
C12 C10 1.500 . S
C12 C13 1.371 . S
C12 C14 1.365 . S
C13 C12 1.371 . S
C13 C23 1.386 . S
C13 H31 0.931 . S
C14 C12 1.365 . S
C14 C15 1.409 . S
C14 H32 0.929 . S
C15 C14 1.409 . S
C15 C16 1.380 . S
C15 H33 0.930 . S
C16 C15 1.380 . S
C16 C23 1.357 . S
C17 C8 1.511 . S
C17 C18 1.341 . S
C17 C19 1.371 . S
C18 C17 1.341 . S
C18 C22 1.389 1_554 S
C18 H34 0.930 1_554 S
C19 C17 1.371 . S
C19 C20 1.392 . S
C19 H35 0.931 . S
C20 C19 1.392 . S
C20 C21 1.331 . S
C20 H38 0.932 . S
C21 C20 1.331 . S
C21 C22 1.324 1_554 S
C22 C18 1.389 1_556 S
C22 C21 1.324 1_556 S
C22 H37 0.946 . S
C23 C13 1.386 . S
C23 C16 1.357 . S
C23 H36 0.928 . S
H24 C0 0.931 . S
H25 C2 0.930 . S
H26 C4 0.929 . S
H27 C5 0.931 . S
H28 C7 0.933 . S
H29 C11 0.931 . S
H30 C9 0.931 . S
H31 C13 0.931 . S
H32 C14 0.929 . S
H33 C15 0.930 . S
H34 C18 0.930 1_556 S
H35 C19 0.931 . S
H36 C23 0.928 . S
H37 C22 0.946 . S
H38 C20 0.932 . S
C39 C40 1.396 . S
C39 C41 1.397 . S
C39 H63 0.931 . S
C40 C39 1.396 . S
C40 C44 1.387 1_655 S
C41 C39 1.397 . S
C41 C42 1.389 1_556 S
C41 H64 0.930 . S
C42 C41 1.389 1_554 S
C42 C43 1.372 1_655 S
C42 C45 1.480 . S
C43 C42 1.372 1_455 S
C43 C44 1.389 1_554 S
C43 H65 0.929 . S
C44 C40 1.387 1_455 S
C44 C43 1.389 1_556 S
C44 H66 0.931 . S
C45 C42 1.480 . S
C45 C46 1.389 . S
C45 C50 1.390 . S
C46 C45 1.389 . S
C46 C47 1.402 . S
C46 H67 0.930 . S
C47 C46 1.402 . S
C47 C48 1.376 . S
C47 C56 1.514 . S
C48 C47 1.376 . S
C48 C49 1.390 . S
C48 H69 0.935 . S
C49 C48 1.390 . S
C49 C50 1.361 . S
C49 C51 1.499 1_655 S
C50 C45 1.390 . S
C50 C49 1.361 . S
C50 H68 0.931 . S
C51 C49 1.499 1_455 S
C51 C52 1.362 1_455 S
C51 C53 1.375 . S
C52 C51 1.362 1_655 S
C52 C62 1.386 . S
C52 H70 0.931 . S
C53 C51 1.375 . S
C53 C54 1.409 . S
C53 H71 0.929 . S
C54 C53 1.409 . S
C54 C55 1.379 . S
C54 H72 0.930 . S
C55 C54 1.379 . S
C55 C62 1.359 1_455 S
C56 C47 1.514 . S
C56 C57 1.341 . S
C56 C58 1.371 1_655 S
C57 C56 1.341 . S
C57 C61 1.394 . S
C57 H73 0.930 . S
C58 C56 1.371 1_455 S
C58 C59 1.392 . S
C58 H74 0.931 . S
C59 C58 1.392 . S
C59 C60 1.323 1_455 S
C59 H77 0.932 . S
C60 C59 1.323 1_655 S
C60 C61 1.344 . S
C61 C57 1.394 . S
C61 C60 1.344 . S
C61 H76 0.929 1_554 S
C62 C52 1.386 . S
C62 C55 1.359 1_655 S
C62 H75 0.928 . S
H63 C39 0.931 . S
H64 C41 0.930 . S
H65 C43 0.929 . S
H66 C44 0.931 . S
H67 C46 0.930 . S
H68 C50 0.931 . S
H69 C48 0.935 . S
H70 C52 0.931 . S
H71 C53 0.929 . S
H72 C54 0.930 . S
H73 C57 0.930 . S
H74 C58 0.931 . S
H75 C62 0.928 . S
H76 C61 0.929 1_556 S
H77 C59 0.932 . S
C78 C79 1.386 . S
C78 C80 1.397 . S
C78 H102 0.931 . S
C79 C78 1.386 . S
C79 C83 1.397 . S
C80 C78 1.397 . S
C80 C81 1.384 1_556 S
C80 H103 0.930 . S
C81 C80 1.384 1_554 S
C81 C82 1.377 . S
C81 C84 1.481 . S
C82 C81 1.377 . S
C82 C83 1.389 1_554 S
C82 H104 0.929 . S
C83 C79 1.397 . S
C83 C82 1.389 1_556 S
C83 H105 0.931 . S
C84 C81 1.481 . S
C84 C85 1.387 . S
C84 C89 1.390 . S
C85 C84 1.387 . S
C85 C86 1.401 . S
C85 H106 0.930 . S
C86 C85 1.401 . S
C86 C87 1.376 . S
C86 C95 1.511 . S
C87 C86 1.376 . S
C87 C88 1.392 . S
C87 H108 0.931 . S
C88 C87 1.392 . S
C88 C89 1.361 . S
C88 C90 1.500 . S
C89 C84 1.390 . S
C89 C88 1.361 . S
C89 H107 0.931 . S
C90 C88 1.500 . S
C90 C91 1.371 . S
C90 C92 1.365 . S
C91 C90 1.371 . S
C91 C101 1.386 . S
C91 H109 0.931 . S
C92 C90 1.365 . S
C92 C93 1.409 . S
C92 H110 0.929 . S
C93 C92 1.409 . S
C93 C94 1.380 . S
C93 H111 0.930 . S
C94 C93 1.380 . S
C94 C101 1.357 . S
C95 C86 1.511 . S
C95 C96 1.341 . S
C95 C97 1.371 . S
C96 C95 1.341 . S
C96 C100 1.394 . S
C96 H112 0.930 1_554 S
C97 C95 1.371 . S
C97 C98 1.392 . S
C97 H113 0.931 . S
C98 C97 1.392 . S
C98 C99 1.331 . S
C98 H116 0.932 . S
C99 C98 1.331 . S
C99 C100 1.336 . S
C100 C96 1.394 . S
C100 C99 1.336 . S
C100 H115 0.929 1_554 S
C101 C91 1.386 . S
C101 C94 1.357 . S
C101 H114 0.928 . S
H102 C78 0.931 . S
H103 C80 0.930 . S
H104 C82 0.929 . S
H105 C83 0.931 . S
H106 C85 0.930 . S
H107 C89 0.931 . S
H108 C87 0.931 . S
H109 C91 0.931 . S
H110 C92 0.929 . S
H111 C93 0.930 . S
H112 C96 0.930 1_556 S
H113 C97 0.931 . S
H114 C101 0.928 . S
H115 C100 0.929 1_556 S
H116 C98 0.932 . S
C117 C118 1.386 . S
C117 C119 1.397 . S
C117 H141 0.931 . S
C118 C117 1.386 . S
C118 C122 1.397 . S
C119 C117 1.397 . S
C119 C120 1.384 . S
C119 H142 0.930 . S
C120 C119 1.384 . S
C120 C121 1.377 . S
C120 C123 1.481 . S
C121 C120 1.377 . S
C121 C122 1.389 . S
C121 H143 0.929 . S
C122 C118 1.397 . S
C122 C121 1.389 . S
C122 H144 0.931 . S
C123 C120 1.481 . S
C123 C124 1.387 . S
C123 C128 1.390 . S
C124 C123 1.387 . S
C124 C125 1.401 . S
C124 H145 0.930 . S
C125 C124 1.401 . S
C125 C126 1.376 . S
C125 C134 1.511 . S
C126 C125 1.376 . S
C126 C127 1.392 . S
C126 H147 0.931 . S
C127 C126 1.392 . S
C127 C128 1.361 . S
C127 C129 1.500 . S
C128 C123 1.390 . S
C128 C127 1.361 . S
C128 H146 0.931 . S
C129 C127 1.500 . S
C129 C130 1.371 1_554 S
C129 C131 1.365 . S
C130 C129 1.371 1_556 S
C130 C140 1.386 . S
C130 H148 0.931 . S
C131 C129 1.365 . S
C131 C132 1.409 1_554 S
C131 H149 0.929 . S
C132 C131 1.409 1_556 S
C132 C133 1.380 . S
C132 H150 0.930 . S
C133 C132 1.380 . S
C133 C140 1.357 . S
C134 C125 1.511 . S
C134 C135 1.341 . S
C134 C136 1.371 . S
C135 C134 1.341 . S
C135 C139 1.394 . S
C135 H151 0.930 . S
C136 C134 1.371 . S
C136 C137 1.392 . S
C136 H152 0.931 . S
C137 C136 1.392 . S
C137 C138 1.331 . S
C137 H155 0.932 1_554 S
C138 C137 1.331 . S
C138 C139 1.336 . S
C139 C135 1.394 . S
C139 C138 1.336 . S
C139 H154 0.929 . S
C140 C130 1.386 . S
C140 C133 1.357 . S
C140 H153 0.928 . S
H141 C117 0.931 . S
H142 C119 0.930 . S
H143 C121 0.929 . S
H144 C122 0.931 . S
H145 C124 0.930 . S
H146 C128 0.931 . S
H147 C126 0.931 . S
H148 C130 0.931 . S
H149 C131 0.929 . S
H150 C132 0.930 . S
H151 C135 0.930 . S
H152 C136 0.931 . S
H153 C140 0.928 . S
H154 C139 0.929 . S
H155 C137 0.932 1_556 S
C156 C157 1.386 . S
C156 C158 1.397 . S
C156 H180 0.931 . S
C157 C156 1.386 . S
C157 C161 1.397 . S
C158 C156 1.397 . S
C158 C159 1.384 . S
C158 H181 0.930 . S
C159 C158 1.384 . S
C159 C160 1.377 . S
C159 C162 1.481 . S
C160 C159 1.377 . S
C160 C161 1.389 . S
C160 H182 0.929 . S
C161 C157 1.397 . S
C161 C160 1.389 . S
C161 H183 0.931 . S
C162 C159 1.481 . S
C162 C163 1.387 . S
C162 C167 1.390 . S
C163 C162 1.387 . S
C163 C164 1.401 . S
C163 H184 0.930 . S
C164 C163 1.401 . S
C164 C165 1.376 . S
C164 C173 1.511 . S
C165 C164 1.376 . S
C165 C166 1.392 . S
C165 H186 0.931 . S
C166 C165 1.392 . S
C166 C167 1.361 . S
C166 C168 1.500 . S
C167 C162 1.390 . S
C167 C166 1.361 . S
C167 H185 0.931 . S
C168 C166 1.500 . S
C168 C169 1.371 . S
C168 C170 1.365 . S
C169 C168 1.371 . S
C169 C179 1.386 . S
C169 H187 0.931 . S
C170 C168 1.365 . S
C170 C171 1.409 . S
C170 H188 0.929 . S
C171 C170 1.409 . S
C171 C172 1.380 . S
C171 H189 0.930 . S
C172 C171 1.380 . S
C172 C179 1.357 . S
C173 C164 1.511 . S
C173 C174 1.341 . S
C173 C175 1.371 . S
C174 C173 1.341 . S
C174 C178 1.394 . S
C174 H190 0.930 . S
C175 C173 1.371 . S
C175 C176 1.392 . S
C175 H191 0.931 . S
C176 C175 1.392 . S
C176 C177 1.331 . S
C176 H194 0.932 . S
C177 C176 1.331 . S
C177 C178 1.336 . S
C178 C174 1.394 . S
C178 C177 1.336 . S
C178 H193 0.929 . S
C179 C169 1.386 . S
C179 C172 1.357 . S
C179 H192 0.928 . S
H180 C156 0.931 . S
H181 C158 0.930 . S
H182 C160 0.929 . S
H183 C161 0.931 . S
H184 C163 0.930 . S
H185 C167 0.931 . S
H186 C165 0.931 . S
H187 C169 0.931 . S
H188 C170 0.929 . S
H189 C171 0.930 . S
H190 C174 0.930 . S
H191 C175 0.931 . S
H192 C179 0.928 . S
H193 C178 0.929 . S
H194 C176 0.932 . S
C195 C196 1.389 . S
C195 C197 1.397 . S
C195 H219 0.931 . S
C196 C195 1.389 . S
C196 C200 1.394 1_655 S
C197 C195 1.397 . S
C197 C198 1.383 . S
C197 H220 0.930 . S
C198 C197 1.383 . S
C198 C199 1.378 1_655 S
C198 C201 1.481 . S
C199 C198 1.378 1_455 S
C199 C200 1.389 . S
C199 H221 0.929 . S
C200 C196 1.394 1_455 S
C200 C199 1.389 . S
C200 H222 0.931 . S
C201 C198 1.481 . S
C201 C202 1.387 . S
C201 C206 1.390 . S
C202 C201 1.387 . S
C202 C203 1.402 . S
C202 H223 0.930 . S
C203 C202 1.402 . S
C203 C204 1.376 . S
C203 C212 1.511 . S
C204 C203 1.376 . S
C204 C205 1.393 1_655 S
C204 H225 0.933 . S
C205 C204 1.393 1_455 S
C205 C206 1.361 1_455 S
C205 C207 1.499 . S
C206 C201 1.390 . S
C206 C205 1.361 1_655 S
C206 H224 0.931 . S
C207 C205 1.499 . S
C207 C208 1.358 1_455 S
C207 C209 1.379 . S
C208 C207 1.358 1_655 S
C208 C218 1.386 . S
C208 H226 0.931 . S
C209 C207 1.379 . S
C209 C210 1.409 . S
C209 H227 0.929 . S
C210 C209 1.409 . S
C210 C211 1.384 . S
C210 H228 0.930 . S
C211 C210 1.384 . S
C211 C218 1.354 1_455 S
C212 C203 1.511 . S
C212 C213 1.341 . S
C212 C214 1.371 1_655 S
C213 C212 1.341 . S
C213 C217 1.394 . S
C213 H229 0.930 . S
C214 C212 1.371 1_455 S
C214 C215 1.392 . S
C214 H230 0.931 . S
C215 C214 1.392 . S
C215 C216 1.326 1_455 S
C215 H233 0.932 . S
C216 C215 1.326 1_655 S
C216 C217 1.341 . S
C217 C213 1.394 . S
C217 C216 1.341 . S
C217 H232 0.929 . S
C218 C208 1.386 . S
C218 C211 1.354 1_655 S
C218 H231 0.928 . S
H219 C195 0.931 . S
H220 C197 0.930 . S
H221 C199 0.929 . S
H222 C200 0.931 . S
H223 C202 0.930 . S
H224 C206 0.931 . S
H225 C204 0.933 . S
H226 C208 0.931 . S
H227 C209 0.929 . S
H228 C210 0.930 . S
H229 C213 0.930 . S
H230 C214 0.931 . S
H231 C218 0.928 . S
H232 C217 0.929 . S
H233 C215 0.932 . S
C234 C235 1.386 . S
C234 C236 1.397 . S
C234 H258 0.931 . S
C235 C234 1.386 . S
C235 C239 1.397 . S
C236 C234 1.397 . S
C236 C237 1.384 . S
C236 H259 0.930 . S
C237 C236 1.384 . S
C237 C238 1.377 . S
C237 C240 1.481 . S
C238 C237 1.377 . S
C238 C239 1.389 . S
C238 H260 0.929 . S
C239 C235 1.397 . S
C239 C238 1.389 . S
C239 H261 0.931 . S
C240 C237 1.481 . S
C240 C241 1.387 . S
C240 C245 1.390 . S
C241 C240 1.387 . S
C241 C242 1.401 . S
C241 H262 0.930 . S
C242 C241 1.401 . S
C242 C243 1.376 . S
C242 C251 1.511 . S
C243 C242 1.376 . S
C243 C244 1.392 . S
C243 H264 0.931 . S
C244 C243 1.392 . S
C244 C245 1.361 . S
C244 C246 1.500 . S
C245 C240 1.390 . S
C245 C244 1.361 . S
C245 H263 0.931 . S
C246 C244 1.500 . S
C246 C247 1.371 . S
C246 C248 1.365 . S
C247 C246 1.371 . S
C247 C257 1.386 . S
C247 H265 0.931 . S
C248 C246 1.365 . S
C248 C249 1.409 . S
C248 H266 0.929 . S
C249 C248 1.409 . S
C249 C250 1.380 . S
C249 H267 0.930 . S
C250 C249 1.380 . S
C250 C257 1.357 . S
C251 C242 1.511 . S
C251 C252 1.341 . S
C251 C253 1.371 . S
C252 C251 1.341 . S
C252 C256 1.394 . S
C252 H268 0.930 . S
C253 C251 1.371 . S
C253 C254 1.392 . S
C253 H269 0.931 . S
C254 C253 1.392 . S
C254 C255 1.331 . S
C254 H272 0.932 . S
C255 C254 1.331 . S
C255 C256 1.336 . S
C256 C252 1.394 . S
C256 C255 1.336 . S
C256 H271 0.929 . S
C257 C247 1.386 . S
C257 C250 1.357 . S
C257 H270 0.928 . S
H258 C234 0.931 . S
H259 C236 0.930 . S
H260 C238 0.929 . S
H261 C239 0.931 . S
H262 C241 0.930 . S
H263 C245 0.931 . S
H264 C243 0.931 . S
H265 C247 0.931 . S
H266 C248 0.929 . S
H267 C249 0.930 . S
H268 C252 0.930 . S
H269 C253 0.931 . S
H270 C257 0.928 . S
H271 C256 0.929 . S
H272 C254 0.932 . S
C273 C274 1.386 . S
C273 C275 1.397 . S
C273 H297 0.931 . S
C274 C273 1.386 . S
C274 C278 1.397 . S
C275 C273 1.397 . S
C275 C276 1.384 . S
C275 H298 0.930 . S
C276 C275 1.384 . S
C276 C277 1.377 . S
C276 C279 1.481 . S
C277 C276 1.377 . S
C277 C278 1.389 . S
C277 H299 0.929 . S
C278 C274 1.397 . S
C278 C277 1.389 . S
C278 H300 0.931 . S
C279 C276 1.481 . S
C279 C280 1.387 . S
C279 C284 1.390 . S
C280 C279 1.387 . S
C280 C281 1.401 . S
C280 H301 0.930 . S
C281 C280 1.401 . S
C281 C282 1.376 . S
C281 C290 1.511 . S
C282 C281 1.376 . S
C282 C283 1.392 . S
C282 H303 0.931 . S
C283 C282 1.392 . S
C283 C284 1.361 . S
C283 C285 1.500 . S
C284 C279 1.390 . S
C284 C283 1.361 . S
C284 H302 0.931 . S
C285 C283 1.500 . S
C285 C286 1.371 . S
C285 C287 1.365 . S
C286 C285 1.371 . S
C286 C296 1.386 . S
C286 H304 0.931 . S
C287 C285 1.365 . S
C287 C288 1.409 . S
C287 H305 0.929 . S
C288 C287 1.409 . S
C288 C289 1.380 . S
C288 H306 0.930 . S
C289 C288 1.380 . S
C289 C296 1.357 . S
C290 C281 1.511 . S
C290 C291 1.341 . S
C290 C292 1.371 . S
C291 C290 1.341 . S
C291 C295 1.394 . S
C291 H307 0.930 . S
C292 C290 1.371 . S
C292 C293 1.392 . S
C292 H308 0.931 . S
C293 C292 1.392 . S
C293 C294 1.331 . S
C293 H311 0.932 . S
C294 C293 1.331 . S
C294 C295 1.336 . S
C295 C291 1.394 . S
C295 C294 1.336 . S
C295 H310 0.929 . S
C296 C286 1.386 . S
C296 C289 1.357 . S
C296 H309 0.928 . S
H297 C273 0.931 . S
H298 C275 0.930 . S
H299 C277 0.929 . S
H300 C278 0.931 . S
H301 C280 0.930 . S
H302 C284 0.931 . S
H303 C282 0.931 . S
H304 C286 0.931 . S
H305 C287 0.929 . S
H306 C288 0.930 . S
H307 C291 0.930 . S
H308 C292 0.931 . S
H309 C296 0.928 . S
H310 C295 0.929 . S
H311 C293 0.932 . S
O312 Mg313 1.990 . S
O312 C326 1.253 . S
Mg313 O312 1.990 . S
Mg313 O316 2.180 1_565 S
Mg313 O317 2.117 . S
Mg313 O331 2.030 . S
O314 Mg315 2.072 1_465 S
O314 C326 1.260 . S
Mg315 O314 2.072 1_645 S
Mg315 O316 2.099 1_655 S
Mg315 O318 2.079 . S
Mg315 O319 2.072 1_655 S
Mg315 O321 2.099 . S
Mg315 O332 2.079 1_545 S
O316 Mg313 2.180 1_545 S
O316 Mg315 2.099 1_455 S
O316 C327 1.279 . S
O317 Mg313 2.117 . S
O317 C327 1.250 1_565 S
O318 Mg315 2.079 . S
O318 C328 1.264 . S
O319 Mg315 2.072 1_455 S
O319 C329 1.260 . S
Mg320 O321 2.180 . S
Mg320 O322 2.030 . S
Mg320 O323 1.990 . S
Mg320 O324 2.117 . S
O321 Mg315 2.099 . S
O321 Mg320 2.180 . S
O321 C330 1.279 . S
O322 Mg320 2.030 . S
O322 C328 1.248 . S
O323 Mg320 1.990 . S
O323 C329 1.253 1_655 S
O324 Mg320 2.117 . S
O324 C330 1.250 . S
C325 O331 1.248 1_655 S
C325 O332 1.264 . S
C326 O312 1.253 . S
C326 O314 1.260 . S
C327 O316 1.279 . S
C327 O317 1.250 1_545 S
C328 O318 1.264 . S
C328 O322 1.248 . S
C329 O319 1.260 . S
C329 O323 1.253 1_455 S
C330 O321 1.279 . S
C330 O324 1.250 . S
O331 Mg313 2.030 . S
O331 C325 1.248 1_455 S
O332 Mg315 2.079 1_565 S
O332 C325 1.264 . S
O333 Mg334 1.990 1_545 S
O333 C347 1.253 . S
Mg334 O333 1.990 1_565 S
Mg334 O337 2.180 . S
Mg334 O338 2.117 . S
Mg334 O352 2.030 1_565 S
O335 Mg336 2.072 . S
O335 C347 1.260 . S
Mg336 O335 2.072 . S
Mg336 O337 2.099 1_545 S
Mg336 O339 2.079 1_545 S
Mg336 O340 2.072 1_545 S
Mg336 O342 2.099 . S
Mg336 O353 2.079 . S
O337 Mg334 2.180 . S
O337 Mg336 2.099 1_565 S
O337 C348 1.279 . S
O338 Mg334 2.117 . S
O338 C348 1.250 . S
O339 Mg336 2.079 1_565 S
O339 C349 1.264 . S
O340 Mg336 2.072 1_565 S
O340 C350 1.260 1_565 S
Mg341 O342 2.180 . S
Mg341 O343 2.055 . S
Mg341 O344 1.990 . S
Mg341 O345 2.117 . S
O342 Mg336 2.099 . S
O342 Mg341 2.180 . S
O342 C351 1.279 . S
O343 Mg341 2.055 . S
O343 C349 1.231 1_545 S
O344 Mg341 1.990 . S
O344 C350 1.253 . S
O345 Mg341 2.117 . S
O345 C351 1.250 . S
C346 O352 1.248 . S
C346 O353 1.264 . S
C347 O333 1.253 . S
C347 O335 1.260 . S
C348 O337 1.279 . S
C348 O338 1.250 . S
C349 O339 1.264 . S
C349 O343 1.231 1_565 S
C350 O340 1.260 1_545 S
C350 O344 1.253 . S
C351 O342 1.279 . S
C351 O345 1.250 . S
O352 Mg334 2.030 1_545 S
O352 C346 1.248 . S
O353 Mg336 2.079 . S
O353 C346 1.264 . S
O354 Mg355 1.990 . S
O354 C368 1.253 . S
Mg355 O354 1.990 . S
Mg355 O358 2.180 . S
Mg355 O359 2.117 . S
Mg355 O373 2.030 . S
O356 Mg357 2.072 . S
O356 C368 1.260 . S
Mg357 O356 2.072 . S
Mg357 O358 2.099 . S
Mg357 O360 2.079 . S
Mg357 O361 2.072 . S
Mg357 O363 2.099 . S
Mg357 O374 2.079 . S
O358 Mg355 2.180 . S
O358 Mg357 2.099 . S
O358 C369 1.279 . S
O359 Mg355 2.117 . S
O359 C369 1.250 . S
O360 Mg357 2.079 . S
O360 C370 1.264 . S
O361 Mg357 2.072 . S
O361 C371 1.260 . S
Mg362 O363 2.180 . S
Mg362 O364 2.030 . S
Mg362 O365 1.990 . S
Mg362 O366 2.117 . S
O363 Mg357 2.099 . S
O363 Mg362 2.180 . S
O363 C372 1.279 . S
O364 Mg362 2.030 . S
O364 C370 1.248 . S
O365 Mg362 1.990 . S
O365 C371 1.253 . S
O366 Mg362 2.117 . S
O366 C372 1.250 . S
C367 O373 1.248 . S
C367 O374 1.264 . S
C368 O354 1.253 . S
C368 O356 1.260 . S
C369 O358 1.279 . S
C369 O359 1.250 . S
C370 O360 1.264 . S
C370 O364 1.248 . S
C371 O361 1.260 . S
C371 O365 1.253 . S
C372 O363 1.279 . S
C372 O366 1.250 . S
O373 Mg355 2.030 . S
O373 C367 1.248 . S
O374 Mg357 2.079 . S
O374 C367 1.264 . S
O375 Mg376 1.990 . S
O375 C389 1.253 . S
Mg376 O375 1.990 . S
Mg376 O379 2.180 . S
Mg376 O380 2.117 . S
Mg376 O394 2.030 . S
O377 Mg378 2.072 1_655 S
O377 C389 1.260 . S
Mg378 O377 2.072 1_455 S
Mg378 O379 2.099 1_455 S
Mg378 O381 2.079 . S
Mg378 O382 2.072 . S
Mg378 O384 2.099 . S
Mg378 O395 2.079 1_455 S
O379 Mg376 2.180 . S
O379 Mg378 2.099 1_655 S
O379 C390 1.279 . S
O380 Mg376 2.117 . S
O380 C390 1.250 . S
O381 Mg378 2.079 . S
O381 C391 1.264 . S
O382 Mg378 2.072 . S
O382 C392 1.260 . S
Mg383 O384 2.180 . S
Mg383 O385 2.030 . S
Mg383 O386 1.990 . S
Mg383 O387 2.117 . S
O384 Mg378 2.099 . S
O384 Mg383 2.180 . S
O384 C393 1.279 . S
O385 Mg383 2.030 . S
O385 C391 1.248 . S
O386 Mg383 1.990 . S
O386 C392 1.253 . S
O387 Mg383 2.117 . S
O387 C393 1.250 . S
C388 O394 1.248 . S
C388 O395 1.264 . S
C389 O375 1.253 . S
C389 O377 1.260 . S
C390 O379 1.279 . S
C390 O380 1.250 . S
C391 O381 1.264 . S
C391 O385 1.248 . S
C392 O382 1.260 . S
C392 O386 1.253 . S
C393 O384 1.279 . S
C393 O387 1.250 . S
O394 Mg376 2.030 . S
O394 C388 1.248 . S
O395 Mg378 2.079 1_655 S
O395 C388 1.264 . S
H396 C408 0.930 . S
H397 C410 0.930 . S
H398 C411 0.930 . S
H399 C415 0.959 . S
H400 C415 0.959 . S
H401 C415 0.961 . S
H402 C416 0.960 . S
H403 C416 0.961 . S
H404 C416 0.959 . S
H405 C419 0.929 . S
H406 C420 0.931 . S
H407 C422 0.930 . S
C408 H396 0.930 . S
C408 C409 1.399 . S
C408 C413 1.399 . S
C409 C408 1.399 . S
C409 C410 1.376 . S
C410 H397 0.930 . S
C410 C409 1.376 . S
C410 C411 1.388 . S
C411 H398 0.930 . S
C411 C410 1.388 . S
C411 C412 1.390 . S
C412 C411 1.390 . S
C412 C413 1.394 . S
C412 C418 1.465 . S
C413 C408 1.399 . S
C413 C412 1.394 . S
C413 C414 1.516 . S
C414 C413 1.516 . S
C414 C415 1.502 . S
C414 C416 1.561 . S
C414 C417 1.526 . S
C415 H399 0.959 . S
C415 H400 0.959 . S
C415 H401 0.961 . S
C415 C414 1.502 . S
C416 H402 0.960 . S
C416 H403 0.961 . S
C416 H404 0.959 . S
C416 C414 1.561 . S
C417 C414 1.526 . S
C417 C418 1.396 . S
C417 C422 1.390 . S
C418 C412 1.465 . S
C418 C417 1.396 . S
C418 C419 1.399 . S
C419 H405 0.929 . S
C419 C418 1.399 . S
C419 C420 1.385 . S
C420 H406 0.931 . S
C420 C419 1.385 . S
C420 C421 1.389 . S
C421 C420 1.389 . S
C421 C422 1.387 . S
C422 H407 0.930 . S
C422 C417 1.390 . S
C422 C421 1.387 . S
H423 C435 0.930 . S
H424 C437 0.930 . S
H425 C438 0.930 . S
H426 C442 0.959 . S
H427 C442 0.959 . S
H428 C442 0.961 . S
H429 C443 0.960 . S
H430 C443 0.961 . S
H431 C443 0.959 . S
H432 C446 0.929 . S
H433 C447 0.931 . S
H434 C449 0.930 . S
C435 H423 0.930 . S
C435 C436 1.399 . S
C435 C440 1.399 . S
C436 C435 1.399 . S
C436 C437 1.376 . S
C437 H424 0.930 . S
C437 C436 1.376 . S
C437 C438 1.388 . S
C438 H425 0.930 . S
C438 C437 1.388 . S
C438 C439 1.390 . S
C439 C438 1.390 . S
C439 C440 1.394 . S
C439 C445 1.465 . S
C440 C435 1.399 . S
C440 C439 1.394 . S
C440 C441 1.516 . S
C441 C440 1.516 . S
C441 C442 1.502 . S
C441 C443 1.561 . S
C441 C444 1.526 . S
C442 H426 0.959 . S
C442 H427 0.959 . S
C442 H428 0.961 . S
C442 C441 1.502 . S
C443 H429 0.960 . S
C443 H430 0.961 . S
C443 H431 0.959 . S
C443 C441 1.561 . S
C444 C441 1.526 . S
C444 C445 1.396 . S
C444 C449 1.390 . S
C445 C439 1.465 . S
C445 C444 1.396 . S
C445 C446 1.399 . S
C446 H432 0.929 . S
C446 C445 1.399 . S
C446 C447 1.385 . S
C447 H433 0.931 . S
C447 C446 1.385 . S
C447 C448 1.389 . S
C448 C447 1.389 . S
C448 C449 1.387 . S
C449 H434 0.930 . S
C449 C444 1.390 . S
C449 C448 1.387 . S
H450 C462 0.930 . S
H451 C464 0.930 . S
H452 C465 0.930 . S
H453 C469 0.959 . S
H454 C469 0.959 . S
H455 C469 0.961 . S
H456 C470 0.960 . S
H457 C470 0.961 . S
H458 C470 0.959 . S
H459 C473 0.929 . S
H460 C474 0.931 . S
H461 C476 0.930 . S
C462 H450 0.930 . S
C462 C463 1.399 . S
C462 C467 1.399 . S
C463 C462 1.399 . S
C463 C464 1.376 . S
C464 H451 0.930 . S
C464 C463 1.376 . S
C464 C465 1.388 . S
C465 H452 0.930 . S
C465 C464 1.388 . S
C465 C466 1.390 . S
C466 C465 1.390 . S
C466 C467 1.394 . S
C466 C472 1.465 . S
C467 C462 1.399 . S
C467 C466 1.394 . S
C467 C468 1.516 . S
C468 C467 1.516 . S
C468 C469 1.502 . S
C468 C470 1.561 . S
C468 C471 1.526 . S
C469 H453 0.959 . S
C469 H454 0.959 . S
C469 H455 0.961 . S
C469 C468 1.502 . S
C470 H456 0.960 . S
C470 H457 0.961 . S
C470 H458 0.959 . S
C470 C468 1.561 . S
C471 C468 1.526 . S
C471 C472 1.396 . S
C471 C476 1.390 . S
C472 C466 1.465 . S
C472 C471 1.396 . S
C472 C473 1.399 . S
C473 H459 0.929 . S
C473 C472 1.399 . S
C473 C474 1.385 . S
C474 H460 0.931 . S
C474 C473 1.385 . S
C474 C475 1.389 . S
C475 C474 1.389 . S
C475 C476 1.387 . S
C476 H461 0.930 . S
C476 C471 1.390 . S
C476 C475 1.387 . S
H477 C489 0.930 . S
H478 C491 0.932 . S
H479 C492 0.930 . S
H480 C496 0.959 . S
H481 C496 0.959 . S
H482 C496 0.961 . S
H483 C497 0.960 . S
H484 C497 0.961 . S
H485 C497 0.959 . S
H486 C500 0.929 . S
H487 C501 0.931 . S
H488 C503 0.930 . S
C489 H477 0.930 . S
C489 C490 1.399 . S
C489 C494 1.399 . S
C490 C489 1.399 . S
C490 C491 1.376 . S
C491 H478 0.932 . S
C491 C490 1.376 . S
C491 C492 1.388 . S
C492 H479 0.930 . S
C492 C491 1.388 . S
C492 C493 1.390 . S
C493 C492 1.390 . S
C493 C494 1.394 . S
C493 C499 1.465 . S
C494 C489 1.399 . S
C494 C493 1.394 . S
C494 C495 1.516 . S
C495 C494 1.516 . S
C495 C496 1.502 1_655 S
C495 C497 1.561 . S
C495 C498 1.526 . S
C496 H480 0.959 . S
C496 H481 0.959 . S
C496 H482 0.961 . S
C496 C495 1.502 1_455 S
C497 H483 0.960 . S
C497 H484 0.961 . S
C497 H485 0.959 . S
C497 C495 1.561 . S
C498 C495 1.526 . S
C498 C499 1.396 . S
C498 C503 1.390 . S
C499 C493 1.465 . S
C499 C498 1.396 . S
C499 C500 1.399 . S
C500 H486 0.929 . S
C500 C499 1.399 . S
C500 C501 1.385 . S
C501 H487 0.931 . S
C501 C500 1.385 . S
C501 C502 1.389 . S
C502 C501 1.389 . S
C502 C503 1.387 . S
C503 H488 0.930 . S
C503 C498 1.390 . S
C503 C502 1.387 . S
H504 C516 0.930 . S
H505 C518 0.930 . S
H506 C519 0.930 . S
H507 C523 0.959 . S
H508 C523 0.959 . S
H509 C523 0.961 . S
H510 C524 0.960 . S
H511 C524 0.961 . S
H512 C524 0.959 . S
H513 C527 0.929 . S
H514 C528 0.931 . S
H515 C530 0.930 . S
C516 H504 0.930 . S
C516 C517 1.399 1_554 S
C516 C521 1.399 1_554 S
C517 C516 1.399 1_556 S
C517 C518 1.377 . S
C518 H505 0.930 . S
C518 C517 1.377 . S
C518 C519 1.388 . S
C519 H506 0.930 . S
C519 C518 1.388 . S
C519 C520 1.390 . S
C520 C519 1.390 . S
C520 C521 1.394 . S
C520 C526 1.465 . S
C521 C516 1.399 1_556 S
C521 C520 1.394 . S
C521 C522 1.516 . S
C522 C521 1.516 . S
C522 C523 1.502 1_556 S
C522 C524 1.561 . S
C522 C525 1.526 . S
C523 H507 0.959 . S
C523 H508 0.959 . S
C523 H509 0.961 . S
C523 C522 1.502 1_554 S
C524 H510 0.960 . S
C524 H511 0.961 . S
C524 H512 0.959 . S
C524 C522 1.561 . S
C525 C522 1.526 . S
C525 C526 1.396 . S
C525 C530 1.390 . S
C526 C520 1.465 . S
C526 C525 1.396 . S
C526 C527 1.399 . S
C527 H513 0.929 . S
C527 C526 1.399 . S
C527 C528 1.385 . S
C528 H514 0.931 . S
C528 C527 1.385 . S
C528 C529 1.389 . S
C529 C528 1.389 . S
C529 C530 1.387 . S
C530 H515 0.930 . S
C530 C525 1.390 . S
C530 C529 1.387 . S
H531 C543 0.930 . S
H532 C545 0.927 1_554 S
H533 C546 0.930 . S
H534 C550 0.959 . S
H535 C550 0.959 . S
H536 C550 0.961 . S
H537 C551 0.960 . S
H538 C551 0.961 1_556 S
H539 C551 0.959 . S
H540 C554 0.929 . S
H541 C555 0.931 . S
H542 C557 0.930 . S
C543 H531 0.930 . S
C543 C544 1.399 . S
C543 C548 1.399 1_554 S
C544 C543 1.399 . S
C544 C545 1.369 1_554 S
C545 H532 0.927 1_556 S
C545 C544 1.369 1_556 S
C545 C546 1.400 . S
C546 H533 0.930 . S
C546 C545 1.400 . S
C546 C547 1.390 . S
C547 C546 1.390 . S
C547 C548 1.394 . S
C547 C553 1.465 . S
C548 C543 1.399 1_556 S
C548 C547 1.394 . S
C548 C549 1.516 . S
C549 C548 1.516 . S
C549 C550 1.502 . S
C549 C551 1.561 1_556 S
C549 C552 1.526 . S
C550 H534 0.959 . S
C550 H535 0.959 . S
C550 H536 0.961 . S
C550 C549 1.502 . S
C551 H537 0.960 . S
C551 H538 0.961 1_554 S
C551 H539 0.959 . S
C551 C549 1.561 1_554 S
C552 C549 1.526 . S
C552 C553 1.396 . S
C552 C557 1.390 . S
C553 C547 1.465 . S
C553 C552 1.396 . S
C553 C554 1.399 . S
C554 H540 0.929 . S
C554 C553 1.399 . S
C554 C555 1.385 . S
C555 H541 0.931 . S
C555 C554 1.385 . S
C555 C556 1.389 . S
C556 C555 1.389 . S
C556 C557 1.387 . S
C557 H542 0.930 . S
C557 C552 1.390 . S
C557 C556 1.387 . S
H558 C570 0.930 . S
H559 C572 0.930 . S
H560 C573 0.930 . S
H561 C577 0.959 . S
H562 C577 0.959 . S
H563 C577 0.961 . S
H564 C578 0.960 . S
H565 C578 0.961 . S
H566 C578 0.959 . S
H567 C581 0.929 . S
H568 C582 0.931 . S
H569 C584 0.930 . S
C570 H558 0.930 . S
C570 C571 1.392 1_556 S
C570 C575 1.399 . S
C571 C570 1.392 1_554 S
C571 C572 1.379 . S
C572 H559 0.930 . S
C572 C571 1.379 . S
C572 C573 1.388 1_554 S
C573 H560 0.930 . S
C573 C572 1.388 1_556 S
C573 C574 1.390 . S
C574 C573 1.390 . S
C574 C575 1.394 . S
C574 C580 1.465 . S
C575 C570 1.399 . S
C575 C574 1.394 . S
C575 C576 1.516 . S
C576 C575 1.516 . S
C576 C577 1.502 . S
C576 C578 1.561 . S
C576 C579 1.526 . S
C577 H561 0.959 . S
C577 H562 0.959 . S
C577 H563 0.961 . S
C577 C576 1.502 . S
C578 H564 0.960 . S
C578 H565 0.961 . S
C578 H566 0.959 . S
C578 C576 1.561 . S
C579 C576 1.526 . S
C579 C580 1.396 . S
C579 C584 1.390 . S
C580 C574 1.465 . S
C580 C579 1.396 . S
C580 C581 1.399 . S
C581 H567 0.929 . S
C581 C580 1.399 . S
C581 C582 1.385 . S
C582 H568 0.931 . S
C582 C581 1.385 . S
C582 C583 1.389 . S
C583 C582 1.389 . S
C583 C584 1.387 . S
C584 H569 0.930 . S
C584 C579 1.390 . S
C584 C583 1.387 . S
H585 C597 0.930 . S
H586 C599 0.930 . S
H587 C600 0.930 . S
H588 C604 0.959 . S
H589 C604 0.959 . S
H590 C604 0.961 . S
H591 C605 0.960 . S
H592 C605 0.961 . S
H593 C605 0.959 . S
H594 C608 0.929 . S
H595 C609 0.931 . S
H596 C611 0.930 . S
C597 H585 0.930 . S
C597 C598 1.380 1_456 S
C597 C602 1.399 . S
C598 C597 1.380 1_654 S
C598 C599 1.400 . S
C599 H586 0.930 . S
C599 C598 1.400 . S
C599 C600 1.388 . S
C600 H587 0.930 . S
C600 C599 1.388 . S
C600 C601 1.390 1_554 S
C601 C600 1.390 1_556 S
C601 C602 1.394 1_655 S
C601 C607 1.465 . S
C602 C597 1.399 . S
C602 C601 1.394 1_455 S
C602 C603 1.516 . S
C603 C602 1.516 . S
C603 C604 1.502 . S
C603 C605 1.561 . S
C603 C606 1.526 . S
C604 H588 0.959 . S
C604 H589 0.959 . S
C604 H590 0.961 . S
C604 C603 1.502 . S
C605 H591 0.960 . S
C605 H592 0.961 . S
C605 H593 0.959 . S
C605 C603 1.561 . S
C606 C603 1.526 . S
C606 C607 1.396 1_455 S
C606 C611 1.390 . S
C607 C601 1.465 . S
C607 C606 1.396 1_655 S
C607 C608 1.399 . S
C608 H594 0.929 . S
C608 C607 1.399 . S
C608 C609 1.385 . S
C609 H595 0.931 . S
C609 C608 1.385 . S
C609 C610 1.389 1_655 S
C610 C609 1.389 1_455 S
C610 C611 1.387 . S
C611 H596 0.930 . S
C611 C606 1.390 . S
C611 C610 1.387 . S
H612 C624 0.930 . S
H613 C626 0.930 . S
H614 C627 0.930 . S
H615 C631 0.959 . S
H616 C631 0.959 . S
H617 C631 0.961 . S
H618 C632 0.960 . S
H619 C632 0.961 . S
H620 C632 0.959 . S
H621 C635 0.929 . S
H622 C636 0.931 . S
H623 C638 0.930 . S
C624 H612 0.930 . S
C624 C625 1.399 1_655 S
C624 C629 1.399 . S
C625 C624 1.399 1_455 S
C625 C626 1.376 . S
C626 H613 0.930 . S
C626 C625 1.376 . S
C626 C627 1.388 . S
C627 H614 0.930 . S
C627 C626 1.388 . S
C627 C628 1.400 . S
C628 C627 1.400 . S
C628 C629 1.385 1_455 S
C628 C634 1.463 1_455 S
C629 C624 1.399 . S
C629 C628 1.385 1_655 S
C629 C630 1.516 . S
C630 C629 1.516 . S
C630 C631 1.502 . S
C630 C632 1.561 . S
C630 C633 1.526 . S
C631 H615 0.959 . S
C631 H616 0.959 . S
C631 H617 0.961 . S
C631 C630 1.502 . S
C632 H618 0.960 . S
C632 H619 0.961 . S
C632 H620 0.959 . S
C632 C630 1.561 . S
C633 C630 1.526 . S
C633 C634 1.396 . S
C633 C638 1.390 . S
C634 C628 1.463 1_655 S
C634 C633 1.396 . S
C634 C635 1.399 1_655 S
C635 H621 0.929 . S
C635 C634 1.399 1_455 S
C635 C636 1.385 . S
C636 H622 0.931 . S
C636 C635 1.385 . S
C636 C637 1.389 1_455 S
C637 C636 1.389 1_655 S
C637 C638 1.387 . S
C638 H623 0.930 . S
C638 C633 1.390 . S
C638 C637 1.387 . S
H639 C651 0.930 . S
H640 C653 0.930 . S
H641 C654 0.930 . S
H642 C658 0.959 . S
H643 C658 0.959 . S
H644 C658 0.961 . S
H645 C659 0.960 . S
H646 C659 0.961 . S
H647 C659 0.959 . S
H648 C662 0.929 . S
H649 C663 0.931 1_565 S
H650 C665 0.930 . S
C651 H639 0.930 . S
C651 C652 1.399 . S
C651 C656 1.399 . S
C652 C651 1.399 . S
C652 C653 1.376 . S
C653 H640 0.930 . S
C653 C652 1.376 . S
C653 C654 1.388 . S
C654 H641 0.930 . S
C654 C653 1.388 . S
C654 C655 1.390 . S
C655 C654 1.390 . S
C655 C656 1.394 . S
C655 C661 1.465 . S
C656 C651 1.399 . S
C656 C655 1.394 . S
C656 C657 1.516 . S
C657 C656 1.516 . S
C657 C658 1.502 . S
C657 C659 1.561 . S
C657 C660 1.526 . S
C658 H642 0.959 . S
C658 H643 0.959 . S
C658 H644 0.961 . S
C658 C657 1.502 . S
C659 H645 0.960 . S
C659 H646 0.961 . S
C659 H647 0.959 . S
C659 C657 1.561 . S
C660 C657 1.526 . S
C660 C661 1.396 . S
C660 C665 1.390 . S
C661 C655 1.465 . S
C661 C660 1.396 . S
C661 C662 1.399 . S
C662 H648 0.929 . S
C662 C661 1.399 . S
C662 C663 1.385 . S
C663 H649 0.931 1_545 S
C663 C662 1.385 . S
C663 C664 1.389 . S
C664 C663 1.389 . S
C664 C665 1.387 . S
C665 H650 0.930 . S
C665 C660 1.390 . S
C665 C664 1.387 . S
H666 C678 0.930 . S
H667 C680 0.930 . S
H668 C681 0.930 . S
H669 C685 0.959 . S
H670 C685 0.959 . S
H671 C685 0.961 . S
H672 C686 0.960 . S
H673 C686 0.961 . S
H674 C686 0.959 . S
H675 C689 0.929 . S
H676 C690 0.931 . S
H677 C692 0.930 . S
C678 H666 0.930 . S
C678 C679 1.399 . S
C678 C683 1.399 . S
C679 C678 1.399 . S
C679 C680 1.376 . S
C680 H667 0.930 . S
C680 C679 1.376 . S
C680 C681 1.388 . S
C681 H668 0.930 . S
C681 C680 1.388 . S
C681 C682 1.390 . S
C682 C681 1.390 . S
C682 C683 1.394 . S
C682 C688 1.465 . S
C683 C678 1.399 . S
C683 C682 1.394 . S
C683 C684 1.516 . S
C684 C683 1.516 . S
C684 C685 1.502 . S
C684 C686 1.561 . S
C684 C687 1.526 . S
C685 H669 0.959 . S
C685 H670 0.959 . S
C685 H671 0.961 . S
C685 C684 1.502 . S
C686 H672 0.960 . S
C686 H673 0.961 . S
C686 H674 0.959 . S
C686 C684 1.561 . S
C687 C684 1.526 . S
C687 C688 1.396 . S
C687 C692 1.390 . S
C688 C682 1.465 . S
C688 C687 1.396 . S
C688 C689 1.399 . S
C689 H675 0.929 . S
C689 C688 1.399 . S
C689 C690 1.385 . S
C690 H676 0.931 . S
C690 C689 1.385 . S
C690 C691 1.389 . S
C691 C690 1.389 . S
C691 C692 1.387 . S
C692 H677 0.930 . S
C692 C687 1.390 . S
C692 C691 1.387 . S
H693 C705 0.930 . S
H694 C707 0.930 . S
H695 C708 0.930 . S
H696 C712 0.959 . S
H697 C712 0.959 . S
H698 C712 0.961 . S
H699 C713 0.960 . S
H700 C713 0.961 . S
H701 C713 0.959 . S
H702 C716 0.929 . S
H703 C717 0.931 . S
H704 C719 0.930 . S
C705 H693 0.930 . S
C705 C706 1.399 . S
C705 C710 1.399 . S
C706 C705 1.399 . S
C706 C707 1.376 . S
C707 H694 0.930 . S
C707 C706 1.376 . S
C707 C708 1.388 . S
C708 H695 0.930 . S
C708 C707 1.388 . S
C708 C709 1.390 . S
C709 C708 1.390 . S
C709 C710 1.394 . S
C709 C715 1.465 . S
C710 C705 1.399 . S
C710 C709 1.394 . S
C710 C711 1.516 . S
C711 C710 1.516 . S
C711 C712 1.502 . S
C711 C713 1.561 . S
C711 C714 1.526 . S
C712 H696 0.959 . S
C712 H697 0.959 . S
C712 H698 0.961 . S
C712 C711 1.502 . S
C713 H699 0.960 . S
C713 H700 0.961 . S
C713 H701 0.959 . S
C713 C711 1.561 . S
C714 C711 1.526 . S
C714 C715 1.396 . S
C714 C719 1.390 . S
C715 C709 1.465 . S
C715 C714 1.396 . S
C715 C716 1.399 . S
C716 H702 0.929 . S
C716 C715 1.399 . S
C716 C717 1.385 . S
C717 H703 0.931 . S
C717 C716 1.385 . S
C717 C718 1.389 . S
C718 C717 1.389 . S
C718 C719 1.387 . S
C719 H704 0.930 . S
C719 C714 1.390 . S
C719 C718 1.387 . S
H720 C732 0.930 . S
H721 C734 0.930 . S
H722 C735 0.931 . S
H723 C739 0.959 . S
H724 C739 0.959 1_455 S
H725 C739 0.961 1_554 S
H726 C740 0.960 . S
H727 C740 0.961 . S
H728 C740 0.959 . S
H729 C743 0.929 . S
H730 C744 0.931 . S
H731 C746 0.930 . S
C732 H720 0.930 . S
C732 C733 1.398 1_455 S
C732 C737 1.399 . S
C733 C732 1.398 1_655 S
C733 C734 1.377 . S
C734 H721 0.930 . S
C734 C733 1.377 . S
C734 C735 1.388 1_655 S
C735 H722 0.931 . S
C735 C734 1.388 1_455 S
C735 C736 1.390 . S
C736 C735 1.390 . S
C736 C737 1.394 . S
C736 C742 1.465 . S
C737 C732 1.399 . S
C737 C736 1.394 . S
C737 C738 1.516 . S
C738 C737 1.516 . S
C738 C739 1.502 1_455 S
C738 C740 1.561 . S
C738 C741 1.526 . S
C739 H723 0.959 . S
C739 H724 0.959 1_655 S
C739 H725 0.961 1_556 S
C739 C738 1.502 1_655 S
C740 H726 0.960 . S
C740 H727 0.961 . S
C740 H728 0.959 . S
C740 C738 1.561 . S
C741 C738 1.526 . S
C741 C742 1.396 . S
C741 C746 1.390 . S
C742 C736 1.465 . S
C742 C741 1.396 . S
C742 C743 1.399 . S
C743 H729 0.929 . S
C743 C742 1.399 . S
C743 C744 1.385 . S
C744 H730 0.931 . S
C744 C743 1.385 . S
C744 C745 1.389 . S
C745 C744 1.389 . S
C745 C746 1.387 . S
C746 H731 0.930 . S
C746 C741 1.390 . S
C746 C745 1.387 . S
H747 C759 0.930 . S
H748 C761 0.930 . S
H749 C762 0.930 . S
H750 C766 0.959 . S
H751 C766 0.959 . S
H752 C766 0.961 1_554 S
H753 C767 0.960 . S
H754 C767 0.961 . S
H755 C767 0.959 . S
H756 C770 0.929 . S
H757 C771 0.931 . S
H758 C773 0.930 . S
C759 H747 0.930 . S
C759 C760 1.399 . S
C759 C764 1.399 . S
C760 C759 1.399 . S
C760 C761 1.376 . S
C761 H748 0.930 . S
C761 C760 1.376 . S
C761 C762 1.388 . S
C762 H749 0.930 . S
C762 C761 1.388 . S
C762 C763 1.390 . S
C763 C762 1.390 . S
C763 C764 1.394 . S
C763 C769 1.465 . S
C764 C759 1.399 . S
C764 C763 1.394 . S
C764 C765 1.516 . S
C765 C764 1.516 . S
C765 C766 1.502 . S
C765 C767 1.561 . S
C765 C768 1.526 . S
C766 H750 0.959 . S
C766 H751 0.959 . S
C766 H752 0.961 1_556 S
C766 C765 1.502 . S
C767 H753 0.960 . S
C767 H754 0.961 . S
C767 H755 0.959 . S
C767 C765 1.561 . S
C768 C765 1.526 . S
C768 C769 1.396 . S
C768 C773 1.390 . S
C769 C763 1.465 . S
C769 C768 1.396 . S
C769 C770 1.399 . S
C770 H756 0.929 . S
C770 C769 1.399 . S
C770 C771 1.385 . S
C771 H757 0.931 . S
C771 C770 1.385 . S
C771 C772 1.389 . S
C772 C771 1.389 . S
C772 C773 1.387 . S
C773 H758 0.930 . S
C773 C768 1.390 . S
C773 C772 1.387 . S
H774 C786 0.930 . S
H775 C788 0.930 . S
H776 C789 0.930 . S
H777 C793 0.959 . S
H778 C793 0.959 . S
H779 C793 0.961 1_554 S
H780 C794 0.960 1_554 S
H781 C794 0.961 . S
H782 C794 0.959 . S
H783 C797 0.929 . S
H784 C798 0.931 . S
H785 C800 0.930 . S
C786 H774 0.930 . S
C786 C787 1.399 . S
C786 C791 1.399 . S
C787 C786 1.399 . S
C787 C788 1.376 . S
C788 H775 0.930 . S
C788 C787 1.376 . S
C788 C789 1.388 . S
C789 H776 0.930 . S
C789 C788 1.388 . S
C789 C790 1.390 . S
C790 C789 1.390 . S
C790 C791 1.394 . S
C790 C796 1.465 . S
C791 C786 1.399 . S
C791 C790 1.394 . S
C791 C792 1.516 . S
C792 C791 1.516 . S
C792 C793 1.502 . S
C792 C794 1.561 . S
C792 C795 1.526 . S
C793 H777 0.959 . S
C793 H778 0.959 . S
C793 H779 0.961 1_556 S
C793 C792 1.502 . S
C794 H780 0.960 1_556 S
C794 H781 0.961 . S
C794 H782 0.959 . S
C794 C792 1.561 . S
C795 C792 1.526 . S
C795 C796 1.396 . S
C795 C800 1.390 . S
C796 C790 1.465 . S
C796 C795 1.396 . S
C796 C797 1.399 . S
C797 H783 0.929 . S
C797 C796 1.399 . S
C797 C798 1.385 . S
C798 H784 0.931 . S
C798 C797 1.385 . S
C798 C799 1.389 . S
C799 C798 1.389 . S
C799 C800 1.387 . S
C800 H785 0.930 . S
C800 C795 1.390 . S
C800 C799 1.387 . S
H801 C813 0.930 . S
H802 C815 0.930 . S
H803 C816 0.930 . S
H804 C820 0.959 . S
H805 C820 0.959 . S
H806 C820 0.961 . S
H807 C821 0.960 . S
H808 C821 0.961 . S
H809 C821 0.959 . S
H810 C824 0.929 . S
H811 C825 0.931 . S
H812 C827 0.930 . S
C813 H801 0.930 . S
C813 C814 1.399 . S
C813 C818 1.399 . S
C814 C813 1.399 . S
C814 C815 1.376 . S
C815 H802 0.930 . S
C815 C814 1.376 . S
C815 C816 1.388 . S
C816 H803 0.930 . S
C816 C815 1.388 . S
C816 C817 1.390 . S
C817 C816 1.390 . S
C817 C818 1.394 . S
C817 C823 1.465 . S
C818 C813 1.399 . S
C818 C817 1.394 . S
C818 C819 1.516 . S
C819 C818 1.516 . S
C819 C820 1.502 . S
C819 C821 1.561 . S
C819 C822 1.526 . S
C820 H804 0.959 . S
C820 H805 0.959 . S
C820 H806 0.961 . S
C820 C819 1.502 . S
C821 H807 0.960 . S
C821 H808 0.961 . S
C821 H809 0.959 . S
C821 C819 1.561 . S
C822 C819 1.526 . S
C822 C823 1.396 . S
C822 C827 1.390 . S
C823 C817 1.465 . S
C823 C822 1.396 . S
C823 C824 1.399 . S
C824 H810 0.929 . S
C824 C823 1.399 . S
C824 C825 1.385 . S
C825 H811 0.931 . S
C825 C824 1.385 . S
C825 C826 1.389 . S
C826 C825 1.389 . S
C826 C827 1.387 . S
C827 H812 0.930 . S
C827 C822 1.390 . S
C827 C826 1.387 . S
H828 C840 0.930 . S
H829 C842 0.930 . S
H830 C843 0.930 . S
H831 C847 0.959 1_556 S
H832 C847 0.959 . S
H833 C847 0.961 . S
H834 C848 0.960 . S
H835 C848 0.961 . S
H836 C848 0.959 1_655 S
H837 C851 0.929 . S
H838 C852 0.931 . S
H839 C854 0.930 . S
C840 H828 0.930 . S
C840 C841 1.382 1_455 S
C840 C845 1.399 1_554 S
C841 C840 1.382 1_655 S
C841 C842 1.395 1_554 S
C842 H829 0.930 . S
C842 C841 1.395 1_556 S
C842 C843 1.388 . S
C843 H830 0.930 . S
C843 C842 1.388 . S
C843 C844 1.390 . S
C844 C843 1.390 . S
C844 C845 1.394 1_655 S
C844 C850 1.465 . S
C845 C840 1.399 1_556 S
C845 C844 1.394 1_455 S
C845 C846 1.516 . S
C846 C845 1.516 . S
C846 C847 1.502 1_556 S
C846 C848 1.561 1_556 S
C846 C849 1.526 . S
C847 H831 0.959 1_554 S
C847 H832 0.959 . S
C847 H833 0.961 . S
C847 C846 1.502 1_554 S
C848 H834 0.960 . S
C848 H835 0.961 . S
C848 H836 0.959 1_455 S
C848 C846 1.561 1_554 S
C849 C846 1.526 . S
C849 C850 1.396 1_455 S
C849 C854 1.390 . S
C850 C844 1.465 . S
C850 C849 1.396 1_655 S
C850 C851 1.399 . S
C851 H837 0.929 . S
C851 C850 1.399 . S
C851 C852 1.385 . S
C852 H838 0.931 . S
C852 C851 1.385 . S
C852 C853 1.389 1_655 S
C853 C852 1.389 1_455 S
C853 C854 1.387 . S
C854 H839 0.930 . S
C854 C849 1.390 . S
C854 C853 1.387 . S
H855 C867 0.930 1_554 S
H856 C869 0.930 . S
H857 C870 0.930 . S
H858 C874 0.959 . S
H859 C874 0.959 . S
H860 C874 0.961 . S
H861 C875 0.960 . S
H862 C875 0.961 1_556 S
H863 C875 0.959 . S
H864 C878 0.929 . S
H865 C879 0.931 . S
H866 C881 0.930 . S
C867 H855 0.930 1_556 S
C867 C868 1.399 1_556 S
C867 C872 1.399 . S
C868 C867 1.399 1_554 S
C868 C869 1.376 . S
C869 H856 0.930 . S
C869 C868 1.376 . S
C869 C870 1.388 1_554 S
C870 H857 0.930 . S
C870 C869 1.388 1_556 S
C870 C871 1.390 . S
C871 C870 1.390 . S
C871 C872 1.394 . S
C871 C877 1.465 . S
C872 C867 1.399 . S
C872 C871 1.394 . S
C872 C873 1.516 . S
C873 C872 1.516 . S
C873 C874 1.502 . S
C873 C875 1.561 1_556 S
C873 C876 1.526 . S
C874 H858 0.959 . S
C874 H859 0.959 . S
C874 H860 0.961 . S
C874 C873 1.502 . S
C875 H861 0.960 . S
C875 H862 0.961 1_554 S
C875 H863 0.959 . S
C875 C873 1.561 1_554 S
C876 C873 1.526 . S
C876 C877 1.396 . S
C876 C881 1.390 . S
C877 C871 1.465 . S
C877 C876 1.396 . S
C877 C878 1.399 . S
C878 H864 0.929 . S
C878 C877 1.399 . S
C878 C879 1.385 . S
C879 H865 0.931 . S
C879 C878 1.385 . S
C879 C880 1.389 . S
C880 C879 1.389 . S
C880 C881 1.387 . S
C881 H866 0.930 . S
C881 C876 1.390 . S
C881 C880 1.387 . S
H882 C894 0.930 . S
H883 C896 0.930 . S
H884 C897 0.930 . S
H885 C901 0.959 . S
H886 C901 0.959 . S
H887 C901 0.961 . S
H888 C902 0.960 . S
H889 C902 0.961 . S
H890 C902 0.959 . S
H891 C905 0.929 1_554 S
H892 C906 0.931 . S
H893 C908 0.930 . S
C894 H882 0.930 . S
C894 C895 1.399 1_556 S
C894 C899 1.399 . S
C895 C894 1.399 1_554 S
C895 C896 1.376 . S
C896 H883 0.930 . S
C896 C895 1.376 . S
C896 C897 1.388 . S
C897 H884 0.930 . S
C897 C896 1.388 . S
C897 C898 1.390 1_554 S
C898 C897 1.390 1_556 S
C898 C899 1.394 . S
C898 C904 1.465 . S
C899 C894 1.399 . S
C899 C898 1.394 . S
C899 C900 1.516 . S
C900 C899 1.516 . S
C900 C901 1.502 . S
C900 C902 1.561 . S
C900 C903 1.526 . S
C901 H885 0.959 . S
C901 H886 0.959 . S
C901 H887 0.961 . S
C901 C900 1.502 . S
C902 H888 0.960 . S
C902 H889 0.961 . S
C902 H890 0.959 . S
C902 C900 1.561 . S
C903 C900 1.526 . S
C903 C904 1.396 . S
C903 C908 1.390 . S
C904 C898 1.465 . S
C904 C903 1.396 . S
C904 C905 1.399 . S
C905 H891 0.929 1_556 S
C905 C904 1.399 . S
C905 C906 1.385 . S
C906 H892 0.931 . S
C906 C905 1.385 . S
C906 C907 1.389 . S
C907 C906 1.389 . S
C907 C908 1.387 . S
C908 H893 0.930 . S
C908 C903 1.390 . S
C908 C907 1.387 . S
H909 C921 0.930 . S
H910 C923 0.930 . S
H911 C924 0.930 . S
H912 C928 0.959 . S
H913 C928 0.959 . S
H914 C928 0.961 . S
H915 C929 0.960 . S
H916 C929 0.961 . S
H917 C929 0.959 1_556 S
H918 C932 0.929 . S
H919 C933 0.931 . S
H920 C935 0.930 . S
C921 H909 0.930 . S
C921 C922 1.399 . S
C921 C926 1.399 1_554 S
C922 C921 1.399 . S
C922 C923 1.376 1_554 S
C923 H910 0.930 . S
C923 C922 1.376 1_556 S
C923 C924 1.388 . S
C924 H911 0.930 . S
C924 C923 1.388 . S
C924 C925 1.390 . S
C925 C924 1.390 . S
C925 C926 1.394 . S
C925 C931 1.465 . S
C926 C921 1.399 1_556 S
C926 C925 1.394 . S
C926 C927 1.516 1_556 S
C927 C926 1.516 1_554 S
C927 C928 1.502 . S
C927 C929 1.561 . S
C927 C930 1.526 1_554 S
C928 H912 0.959 . S
C928 H913 0.959 . S
C928 H914 0.961 . S
C928 C927 1.502 . S
C929 H915 0.960 . S
C929 H916 0.961 . S
C929 H917 0.959 1_554 S
C929 C927 1.561 . S
C930 C927 1.526 1_556 S
C930 C931 1.396 . S
C930 C935 1.390 . S
C931 C925 1.465 . S
C931 C930 1.396 . S
C931 C932 1.399 . S
C932 H918 0.929 . S
C932 C931 1.399 . S
C932 C933 1.385 . S
C933 H919 0.931 . S
C933 C932 1.385 . S
C933 C934 1.389 . S
C934 C933 1.389 . S
C934 C935 1.387 . S
C935 H920 0.930 . S
C935 C930 1.390 . S
C935 C934 1.387 . S
H936 C948 0.930 . S
H937 C950 0.930 . S
H938 C951 0.930 . S
H939 C955 0.959 . S
H940 C955 0.959 . S
H941 C955 0.961 . S
H942 C956 0.960 . S
H943 C956 0.961 . S
H944 C956 0.959 . S
H945 C959 0.929 . S
H946 C960 0.931 . S
H947 C962 0.930 . S
C948 H936 0.930 . S
C948 C949 1.391 1_655 S
C948 C953 1.399 . S
C949 C948 1.391 1_455 S
C949 C950 1.388 . S
C950 H937 0.930 . S
C950 C949 1.388 . S
C950 C951 1.388 . S
C951 H938 0.930 . S
C951 C950 1.388 . S
C951 C952 1.390 . S
C952 C951 1.390 . S
C952 C953 1.394 1_455 S
C952 C958 1.465 . S
C953 C948 1.399 . S
C953 C952 1.394 1_655 S
C953 C954 1.516 . S
C954 C953 1.516 . S
C954 C955 1.502 . S
C954 C956 1.561 1_655 S
C954 C957 1.526 . S
C955 H939 0.959 . S
C955 H940 0.959 . S
C955 H941 0.961 . S
C955 C954 1.502 . S
C956 H942 0.960 . S
C956 H943 0.961 . S
C956 H944 0.959 . S
C956 C954 1.561 1_455 S
C957 C954 1.526 . S
C957 C958 1.396 1_655 S
C957 C962 1.390 . S
C958 C952 1.465 . S
C958 C957 1.396 1_455 S
C958 C959 1.399 . S
C959 H945 0.929 . S
C959 C958 1.399 . S
C959 C960 1.385 . S
C960 H946 0.931 . S
C960 C959 1.385 . S
C960 C961 1.389 1_455 S
C961 C960 1.389 1_655 S
C961 C962 1.387 . S
C962 H947 0.930 . S
C962 C957 1.390 . S
C962 C961 1.387 . S
H963 C975 0.930 . S
H964 C977 0.930 . S
H965 C978 0.930 . S
H966 C982 0.959 . S
H967 C982 0.959 . S
H968 C982 0.961 . S
H969 C983 0.960 . S
H970 C983 0.961 . S
H971 C983 0.959 . S
H972 C986 0.929 . S
H973 C987 0.931 . S
H974 C989 0.930 . S
C975 H963 0.930 . S
C975 C976 1.399 . S
C975 C980 1.399 . S
C976 C975 1.399 . S
C976 C977 1.376 . S
C977 H964 0.930 . S
C977 C976 1.376 . S
C977 C978 1.388 . S
C978 H965 0.930 . S
C978 C977 1.388 . S
C978 C979 1.390 . S
C979 C978 1.390 . S
C979 C980 1.394 . S
C979 C985 1.465 . S
C980 C975 1.399 . S
C980 C979 1.394 . S
C980 C981 1.516 . S
C981 C980 1.516 . S
C981 C982 1.502 . S
C981 C983 1.561 . S
C981 C984 1.526 . S
C982 H966 0.959 . S
C982 H967 0.959 . S
C982 H968 0.961 . S
C982 C981 1.502 . S
C983 H969 0.960 . S
C983 H970 0.961 . S
C983 H971 0.959 . S
C983 C981 1.561 . S
C984 C981 1.526 . S
C984 C985 1.396 . S
C984 C989 1.390 . S
C985 C979 1.465 . S
C985 C984 1.396 . S
C985 C986 1.399 . S
C986 H972 0.929 . S
C986 C985 1.399 . S
C986 C987 1.385 . S
C987 H973 0.931 . S
C987 C986 1.385 . S
C987 C988 1.389 . S
C988 C987 1.389 . S
C988 C989 1.387 . S
C989 H974 0.930 . S
C989 C984 1.390 . S
C989 C988 1.387 . S
H990 C1002 0.930 . S
H991 C1004 0.930 . S
H992 C1005 0.930 . S
H993 C1009 0.959 . S
H994 C1009 0.959 . S
H995 C1009 0.961 . S
H996 C1010 0.960 . S
H997 C1010 0.961 . S
H998 C1010 0.959 . S
H999 C1013 0.929 . S
H1000 C1014 0.931 . S
H1001 C1016 0.930 . S
C1002 H990 0.930 . S
C1002 C1003 1.399 . S
C1002 C1007 1.399 . S
C1003 C1002 1.399 . S
C1003 C1004 1.376 . S
C1004 H991 0.930 . S
C1004 C1003 1.376 . S
C1004 C1005 1.388 . S
C1005 H992 0.930 . S
C1005 C1004 1.388 . S
C1005 C1006 1.390 . S
C1006 C1005 1.390 . S
C1006 C1007 1.394 . S
C1006 C1012 1.465 . S
C1007 C1002 1.399 . S
C1007 C1006 1.394 . S
C1007 C1008 1.516 . S
C1008 C1007 1.516 . S
C1008 C1009 1.502 . S
C1008 C1010 1.561 . S
C1008 C1011 1.526 . S
C1009 H993 0.959 . S
C1009 H994 0.959 . S
C1009 H995 0.961 . S
C1009 C1008 1.502 . S
C1010 H996 0.960 . S
C1010 H997 0.961 . S
C1010 H998 0.959 . S
C1010 C1008 1.561 . S
C1011 C1008 1.526 . S
C1011 C1012 1.396 . S
C1011 C1016 1.390 . S
C1012 C1006 1.465 . S
C1012 C1011 1.396 . S
C1012 C1013 1.399 . S
C1013 H999 0.929 . S
C1013 C1012 1.399 . S
C1013 C1014 1.385 . S
C1014 H1000 0.931 . S
C1014 C1013 1.385 . S
C1014 C1015 1.389 . S
C1015 C1014 1.389 . S
C1015 C1016 1.387 . S
C1016 H1001 0.930 . S
C1016 C1011 1.390 . S
C1016 C1015 1.387 . S
H1017 C1029 0.930 . S
H1018 C1031 0.930 . S
H1019 C1032 0.930 . S
H1020 C1036 0.959 . S
H1021 C1036 0.959 . S
H1022 C1036 0.961 . S
H1023 C1037 0.960 . S
H1024 C1037 0.961 . S
H1025 C1037 0.959 . S
H1026 C1040 0.929 . S
H1027 C1041 0.931 . S
H1028 C1043 0.930 . S
C1029 H1017 0.930 . S
C1029 C1030 1.399 . S
C1029 C1034 1.399 . S
C1030 C1029 1.399 . S
C1030 C1031 1.376 . S
C1031 H1018 0.930 . S
C1031 C1030 1.376 . S
C1031 C1032 1.388 . S
C1032 H1019 0.930 . S
C1032 C1031 1.388 . S
C1032 C1033 1.390 . S
C1033 C1032 1.390 . S
C1033 C1034 1.394 . S
C1033 C1039 1.465 . S
C1034 C1029 1.399 . S
C1034 C1033 1.394 . S
C1034 C1035 1.516 . S
C1035 C1034 1.516 . S
C1035 C1036 1.502 . S
C1035 C1037 1.561 . S
C1035 C1038 1.526 . S
C1036 H1020 0.959 . S
C1036 H1021 0.959 . S
C1036 H1022 0.961 . S
C1036 C1035 1.502 . S
C1037 H1023 0.960 . S
C1037 H1024 0.961 . S
C1037 H1025 0.959 . S
C1037 C1035 1.561 . S
C1038 C1035 1.526 . S
C1038 C1039 1.396 . S
C1038 C1043 1.390 . S
C1039 C1033 1.465 . S
C1039 C1038 1.396 . S
C1039 C1040 1.399 . S
C1040 H1026 0.929 . S
C1040 C1039 1.399 . S
C1040 C1041 1.385 . S
C1041 H1027 0.931 . S
C1041 C1040 1.385 . S
C1041 C1042 1.389 . S
C1042 C1041 1.389 . S
C1042 C1043 1.387 . S
C1043 H1028 0.930 . S
C1043 C1038 1.390 . S
C1043 C1042 1.387 . S
C409 C255 1.914 . S
C421 C327 1.906 . S
C448 C351 1.380 . S
C436 C294 1.606 . S
C475 C372 1.922 . S
C463 C177 1.941 . S
C502 C390 1.457 . S
C490 C216 1.568 . S
C529 C330 1.815 1_565 S
C517 C99 1.847 1_556 S
C544 C138 1.461 . S
C556 C348 1.363 . S
C571 C21 1.819 . S
C583 C369 1.730 . S
C598 C60 1.516 . S
C610 C393 1.340 . S
C637 C328 0.587 . S
C625 C196 0.291 1_455 S
C664 C346 0.788 . S
C652 C235 0.669 . S
C691 C367 0.552 . S
C679 C289 0.344 . S
C706 C157 0.620 . S
C718 C391 0.834 . S
C733 C40 0.533 . S
C745 C326 0.333 . S
C772 C350 0.736 1_565 S
C760 C79 0.830 . S
C799 C371 0.341 . S
C787 C133 0.538 . S
C814 C1 0.767 . S
C826 C389 0.855 . S
C841 C211 1.927 1_655 S
C853 C329 1.881 . S
C868 C250 2.095 . S
C880 C347 2.132 . S
C907 C368 1.883 . S
C895 C274 1.839 . S
C934 C392 2.184 . S
C922 C172 2.173 . S
C949 C55 1.738 . S
C961 C325 1.782 . S
C988 C349 2.048 . S
C976 C94 1.938 . S
C1015 C370 1.732 . S
C1003 C118 1.789 . S
C1030 C16 1.976 . S
C1042 C388 2.028 . S
