# Generated by pormake.
# Topology tsx, (6,3)-cn, num edge types: 1
# Building blocks:
#     Node 0, Type 0, BuildingBlock: JUFBIX_clean_sbu_0, # of connection points: 6
#     Node 1, Type 0, BuildingBlock: JUFBIX_clean_sbu_0, # of connection points: 6
#     Node 2, Type 1, BuildingBlock: QEWDON_clean_linker_0, # of connection points: 3
#     Node 3, Type 1, BuildingBlock: QEWDON_clean_linker_0, # of connection points: 3
#     Node 4, Type 1, BuildingBlock: QEWDON_clean_linker_0, # of connection points: 3
#     Node 5, Type 1, BuildingBlock: QEWDON_clean_linker_0, # of connection points: 3
#     Edge 6, Type (0, 1), BuildingBlock: UVAHIK_clean_linker_0, # of connection points: 2
#     Edge 7, Type (0, 1), BuildingBlock: UVAHIK_clean_linker_0, # of connection points: 2
#     Edge 8, Type (0, 1), BuildingBlock: UVAHIK_clean_linker_0, # of connection points: 2
#     Edge 9, Type (0, 1), BuildingBlock: UVAHIK_clean_linker_0, # of connection points: 2
#     Edge 10, Type (0, 1), BuildingBlock: UVAHIK_clean_linker_0, # of connection points: 2
#     Edge 11, Type (0, 1), BuildingBlock: UVAHIK_clean_linker_0, # of connection points: 2
#     Edge 12, Type (0, 1), BuildingBlock: UVAHIK_clean_linker_0, # of connection points: 2
#     Edge 13, Type (0, 1), BuildingBlock: UVAHIK_clean_linker_0, # of connection points: 2
#     Edge 14, Type (0, 1), BuildingBlock: UVAHIK_clean_linker_0, # of connection points: 2
#     Edge 15, Type (0, 1), BuildingBlock: UVAHIK_clean_linker_0, # of connection points: 2
#     Edge 16, Type (0, 1), BuildingBlock: UVAHIK_clean_linker_0, # of connection points: 2
#     Edge 17, Type (0, 1), BuildingBlock: UVAHIK_clean_linker_0, # of connection points: 2
# Relax obj value: 0.110
# Max RMSD: 0.172
# Mean RMSD: 0.148
data_MOF--net-tsx--node1-JUFBIX_clean_sbu_0--node2-QEWDON_clean_linker_0--edge1-UVAHIK_clean_linker_0
_symmetry_space_group_name_H-M    P1
_symmetry_Int_Tables_number       1
_symmetry_cell_setting            triclinic
loop_
_symmetry_equiv_pos_as_xyz
'x, y, z'
_cell_length_a     27.584747
_cell_length_b     32.598396
_cell_length_c     41.700204
_cell_angle_alpha  91.871667
_cell_angle_beta   104.54487
_cell_angle_gamma 96.837052
loop_
_atom_site_label
_atom_site_type_symbol
_atom_site_fract_x
_atom_site_fract_y
_atom_site_fract_z
_atom_type_partial_charge
Co0 Co 0.0486 0.97215 0.00079 0.0
C1 C 0.99338 -0.0086 0.93827 0.0
Co2 Co 0.98579 0.00834 0.00137 0.0
C3 C 0.11613 0.90893 0.00986 0.0
C4 C 0.14077 0.96016 0.98439 0.0
N5 N 0.10346 0.94548 -0.00174 0.0
N6 N 0.1602 0.90082 0.00417 0.0
C7 C 0.17586 0.93296 0.98823 0.0
H8 H 0.09397 0.88896 0.02262 0.0
H9 H 0.14239 0.98883 0.97213 0.0
C10 C 0.04131 0.98965 0.06393 0.0
N11 N 0.93131 0.03492 0.00489 0.0
C12 C 0.91907 0.07242 0.99544 0.0
C13 C 0.89784 0.02118 0.02203 0.0
N14 N 0.87933 0.08259 0.00618 0.0
C15 C 0.86599 0.05017 0.02281 0.0
C16 C 0.96109 0.92179 -0.00298 0.0
O17 O 0.06669 0.97098 0.04791 0.0
O18 O 0.0051 0.00769 0.04818 0.0
O19 O 0.94535 0.95667 -0.00159 0.0
O20 O 0.00706 0.9205 -0.00259 0.0
O21 O 0.96729 0.0092 0.95435 0.0
H22 H 0.89804 -0.00731 0.0346 0.0
H23 H 0.93981 0.09221 0.98174 0.0
O24 O 0.02991 0.97344 0.95392 0.0
O25 O 0.08951 0.02448 0.004 0.0
O26 O 0.02641 0.05939 0.00412 0.0
C27 C 0.07248 0.05896 0.00459 0.0
H28 H 0.20981 0.9361 0.97948 0.0
H29 H 0.83696 0.04823 0.03617 0.0
Co30 Co 0.54781 0.47287 0.50106 0.0
C31 C 0.493 0.49276 0.43858 0.0
Co32 Co 0.48539 0.50948 0.50169 0.0
C33 C 0.61487 0.40928 0.5099 0.0
C34 C 0.63986 0.46058 0.48463 0.0
N35 N 0.60244 0.44595 0.49844 0.0
N36 N 0.65889 0.40105 0.5042 0.0
C37 C 0.67476 0.43324 0.48839 0.0
H38 H 0.59258 0.38931 0.52259 0.0
H39 H 0.64168 0.48934 0.4725 0.0
C40 C 0.54048 0.4901 0.5642 0.0
N41 N 0.43113 0.53632 0.5053 0.0
C42 C 0.41904 0.57388 0.49591 0.0
C43 C 0.39762 0.52262 0.52242 0.0
N44 N 0.37934 0.58412 0.50666 0.0
C45 C 0.3659 0.55169 0.52325 0.0
C46 C 0.45997 0.42297 0.49691 0.0
O47 O 0.56567 0.47128 0.54814 0.0
O48 O 0.50459 0.50852 0.5485 0.0
O49 O 0.44455 0.45795 0.49849 0.0
O50 O 0.50589 0.42142 0.49734 0.0
O51 O 0.46701 0.51064 0.45469 0.0
H52 H 0.39768 0.49408 0.53493 0.0
H53 H 0.43983 0.59364 0.48223 0.0
O54 O 0.52933 0.47457 0.45419 0.0
O55 O 0.58912 0.52497 0.50462 0.0
O56 O 0.52642 0.56037 0.50465 0.0
C57 C 0.57249 0.55961 0.50527 0.0
H58 H 0.70875 0.43632 0.47968 0.0
H59 H 0.33684 0.54978 0.5366 0.0
H60 H 0.05851 0.02597 0.42261 0.0
C61 C 0.0844 0.00575 0.43543 0.0
C62 C 0.10828 0.98137 0.41727 0.0
C63 C 0.09479 0.0051 0.47017 0.0
H64 H 0.16133 0.93707 0.42091 0.0
C65 C 0.14228 0.95591 0.43444 0.0
C66 C 0.1517 0.95387 0.46894 0.0
C67 C 0.12811 0.97876 0.48685 0.0
C68 C 0.07306 0.03408 0.48875 0.0
H69 H 0.13562 0.97754 0.51357 0.0
C70 C 0.01196 0.04241 0.47324 0.0
C71 C 0.99063 0.10395 0.50769 0.0
C72 C 0.11131 0.06278 0.52229 0.0
H73 H 0.14976 0.05586 0.52999 0.0
C74 C 0.09775 0.10245 0.54479 0.0
H75 H 0.98966 0.02267 0.45154 0.0
C76 C 0.04265 0.12271 0.53895 0.0
H77 H 0.04041 0.14822 0.55554 0.0
H78 H 0.12827 0.11672 0.56517 0.0
H79 H 0.97708 0.03789 0.57917 0.0
C80 C 0.95081 0.01131 0.56682 0.0
C81 C 0.92836 0.98381 0.5857 0.0
C82 C 0.9393 0.00444 0.53209 0.0
H83 H 0.87671 0.92827 0.58414 0.0
C84 C 0.89415 0.9497 0.56966 0.0
C85 C 0.88259 0.94269 0.53514 0.0
C86 C 0.90523 0.97001 0.51634 0.0
C87 C 0.96314 0.03298 0.51233 0.0
H88 H 0.89671 0.96415 0.48964 0.0
C89 C 0.02579 0.05063 0.52651 0.0
C90 C 0.05452 0.10344 0.48631 0.0
C91 C 0.92766 0.04882 0.47663 0.0
H92 H 0.8881 0.03625 0.4697 0.0
C93 C 0.94599 0.08282 0.45042 0.0
H94 H 0.04598 0.03918 0.54988 0.0
C95 C 0.00411 0.10897 0.45386 0.0
H96 H 0.00923 0.13004 0.43511 0.0
H97 H 0.91677 0.08868 0.42902 0.0
H98 H 0.55898 0.52512 0.9232 0.0
C99 C 0.58475 0.50474 0.9359 0.0
C100 C 0.60846 0.4804 0.9176 0.0
C101 C 0.59515 0.50385 0.97064 0.0
H102 H 0.66129 0.43595 0.92098 0.0
C103 C 0.64236 0.45475 0.93461 0.0
C104 C 0.65181 0.45249 0.9691 0.0
C105 C 0.62834 0.47731 0.98715 0.0
C106 C 0.57362 0.5328 0.98938 0.0
H107 H 0.63588 0.4759 0.01385 0.0
C108 C 0.51275 0.54168 0.97383 0.0
C109 C 0.49194 0.60319 0.00856 0.0
C110 C 0.61198 0.56102 0.02314 0.0
H111 H 0.65029 0.55377 0.03086 0.0
C112 C 0.59876 0.60067 0.04583 0.0
H113 H 0.49035 0.52223 0.95198 0.0
C114 C 0.54397 0.62138 0.04001 0.0
H115 H 0.54192 0.64682 0.05673 0.0
H116 H 0.62931 0.61459 0.06634 0.0
H117 H 0.47728 0.53711 0.0795 0.0
C118 C 0.45047 0.51086 0.06708 0.0
C119 C 0.42722 0.48382 0.08587 0.0
C120 C 0.43903 0.50402 0.03235 0.0
H121 H 0.37431 0.42908 0.0842 0.0
C122 C 0.39228 0.45018 0.06975 0.0
C123 C 0.38072 0.44315 0.0352 0.0
C124 C 0.40421 0.47004 0.01651 0.0
C125 C 0.46352 0.53229 0.0127 0.0
H126 H 0.3957 0.46424 0.9898 0.0
C127 C 0.5263 0.54941 0.0271 0.0
C128 C 0.55597 0.6024 0.98735 0.0
C129 C 0.42851 0.54866 0.97706 0.0
H130 H 0.38883 0.53646 0.97 0.0
C131 C 0.44746 0.58278 0.95114 0.0
H132 H 0.54616 0.53766 0.05043 0.0
C133 C 0.50587 0.60853 0.95486 0.0
H134 H 0.51139 0.62974 0.93629 0.0
H135 H 0.41847 0.58902 0.92974 0.0
C136 C 0.15266 0.09733 -0.0026 0.0
C137 C 0.10501 0.09796 0.00364 0.0
C138 C 0.18203 0.1342 0.99432 0.0
C139 C 0.17323 0.24518 0.97979 0.0
H140 H 0.31734 0.2587 0.02073 0.0
C141 C 0.29647 0.40093 0.024 0.0
C142 C 0.34536 0.40652 0.01935 0.0
C143 C 0.26558 0.36333 0.01403 0.0
C144 C 0.2773 0.25508 0.00859 0.0
H145 H 0.05112 0.13768 0.01218 0.0
H146 H 0.10302 0.20201 0.00797 0.0
H147 H 0.267 0.19212 0.02092 0.0
H148 H 0.40005 0.37856 -0.00037 0.0
H149 H 0.34606 0.31201 0.98259 0.0
H150 H 0.18352 0.309 0.96909 0.0
C151 C 0.11717 0.17304 0.00448 0.0
C152 C 0.24841 0.21696 0.00872 0.0
C153 C 0.08764 0.13618 0.00726 0.0
C154 C 0.36221 0.3748 0.00317 0.0
C155 C 0.33158 0.33686 0.99365 0.0
C156 C 0.20208 0.28342 0.97999 0.0
C157 C 0.16453 0.17248 -0.00231 0.0
C158 C 0.19587 0.21182 0.99493 0.0
C159 C 0.28349 0.33055 -0.00025 0.0
C160 C 0.25418 0.28887 0.99493 0.0
H161 H 0.16692 0.06832 0.99423 0.0
H162 H 0.2181 0.13264 0.98877 0.0
H163 H 0.13304 0.24197 0.96825 0.0
H164 H 0.28299 0.42511 0.03655 0.0
H165 H 0.22887 0.3591 0.0193 0.0
C166 C 0.23784 0.8697 0.02552 0.0
C167 C 0.18534 0.86497 0.01211 0.0
C168 C 0.26365 0.83516 0.02968 0.0
C169 C 0.30281 0.75201 0.04809 0.0
H170 H 0.29141 0.6915 0.96427 0.0
C171 C 0.41824 0.61747 0.03113 0.0
C172 C 0.4475 0.6264 0.00845 0.0
C173 C 0.38008 0.64125 0.03348 0.0
C174 C 0.29436 0.70775 0.9879 0.0
H175 H 0.11825 0.82085 0.99321 0.0
H176 H 0.16389 0.75992 -0.00065 0.0
H177 H 0.234 0.74256 0.96727 0.0
H178 H 0.46374 0.67076 0.97359 0.0
H179 H 0.39532 0.71049 0.97617 0.0
H180 H 0.36398 0.71774 0.06851 0.0
C181 C 0.18474 0.7904 0.00722 0.0
C182 C 0.26147 0.7367 0.98967 0.0
C183 C 0.15872 0.82502 0.00384 0.0
C184 C 0.43961 0.66102 0.98949 0.0
C185 C 0.40079 0.68412 0.99123 0.0
C186 C 0.33502 0.72237 0.04648 0.0
C187 C 0.23753 0.7953 0.01977 0.0
C188 C 0.26635 0.75988 0.01955 0.0
C189 C 0.37075 0.67447 0.01324 0.0
C190 C 0.33192 0.7009 0.01615 0.0
H191 H 0.25894 0.9003 0.03208 0.0
H192 H 0.30439 0.83976 0.0391 0.0
H193 H 0.3073 0.76963 0.07137 0.0
H194 H 0.42541 0.59257 0.04746 0.0
H195 H 0.35803 0.63385 0.05116 0.0
C196 C 0.93779 0.84449 0.98816 0.0
C197 C 0.92586 0.88372 -0.004 0.0
C198 C 0.90338 0.80894 0.98739 0.0
C199 C 0.79868 0.77073 0.02192 0.0
H200 H 0.7467 0.69739 0.9424 0.0
C201 C 0.60719 0.67268 -0.00222 0.0
C202 C 0.60312 0.63096 0.98695 0.0
C203 C 0.65077 0.69958 -0.00121 0.0
C204 C 0.76147 0.71717 0.96497 0.0
H205 H 0.86881 0.91645 0.00929 0.0
H206 H 0.80977 0.85485 0.00839 0.0
H207 H 0.81854 0.75099 0.94575 0.0
H208 H 0.63764 0.58648 0.96313 0.0
H209 H 0.71478 0.63332 0.96564 0.0
H210 H 0.74145 0.73793 0.04104 0.0
C211 C 0.84547 0.85145 0.00284 0.0
C212 C 0.80252 0.7477 0.96688 0.0
C213 C 0.87925 0.88675 0.00315 0.0
C214 C 0.64119 0.61772 0.9737 0.0
C215 C 0.68503 0.64469 0.9747 0.0
C216 C 0.75802 0.74029 0.0201 0.0
C217 C 0.85719 0.81226 0.99509 0.0
C218 C 0.82029 0.77551 0.99498 0.0
C219 C 0.69074 0.6856 0.98811 0.0
C220 C 0.73789 0.71411 0.9912 0.0
H221 H 0.97342 0.84131 0.98246 0.0
H222 H 0.91307 0.77893 0.9813 0.0
H223 H 0.81228 0.79147 0.04405 0.0
H224 H 0.5769 0.68444 0.00597 0.0
H225 H 0.65314 0.73145 0.00791 0.0
C226 C 0.80976 0.12294 0.00848 0.0
C227 C 0.85812 0.12116 0.00361 0.0
C228 C 0.79028 0.16048 0.00849 0.0
C229 C 0.82828 0.27438 0.01672 0.0
H230 H 0.68472 0.27565 0.97976 0.0
C231 C 0.73142 0.42013 0.97911 0.0
C232 C 0.6838 0.42182 0.98514 0.0
C233 C 0.75669 0.38576 0.98736 0.0
C234 C 0.72475 0.27568 0.99066 0.0
H235 H 0.92341 0.15798 0.99415 0.0
H236 H 0.88842 0.22326 0.99264 0.0
H237 H 0.71989 0.21088 0.979 0.0
H238 H 0.62662 0.39053 0.00632 0.0
H239 H 0.67077 0.33011 0.02068 0.0
H240 H 0.83291 0.3399 0.02699 0.0
C241 C 0.86614 0.19559 -0.00257 0.0
C242 C 0.74502 0.23852 0.99023 0.0
C243 C 0.88594 0.15795 -0.00222 0.0
C244 C 0.66346 0.39 0.00166 0.0
C245 C 0.68845 0.35536 0.00955 0.0
C246 C 0.808 0.31175 0.01675 0.0
C247 C 0.8182 0.19736 0.00307 0.0
C248 C 0.79703 0.2373 0.00329 0.0
C249 C 0.73442 0.35231 0.00139 0.0
C250 C 0.75601 0.31269 0.00376 0.0
H251 H 0.78674 0.09532 0.0125 0.0
H252 H 0.75353 0.16055 0.01334 0.0
H253 H 0.86835 0.27456 0.02747 0.0
H254 H 0.74775 0.44438 0.96635 0.0
H255 H 0.79195 0.38416 0.98068 0.0
C256 C 0.65411 0.59728 0.49988 0.0
C257 C 0.60555 0.59838 0.50453 0.0
C258 C 0.68415 0.63385 0.49698 0.0
C259 C 0.67665 0.744 0.47935 0.0
H260 H 0.81924 0.75849 0.52474 0.0
C261 C 0.79816 0.90074 0.52229 0.0
C262 C 0.848 0.90572 0.51938 0.0
C263 C 0.76761 0.86295 0.51258 0.0
C264 C 0.77969 0.75457 0.51137 0.0
H265 H 0.5507 0.63862 0.5104 0.0
H266 H 0.60367 0.70248 0.50637 0.0
H267 H 0.76815 0.69231 0.52512 0.0
H268 H 0.90496 0.87651 0.50316 0.0
H269 H 0.85152 0.80961 0.48659 0.0
H270 H 0.68804 0.80714 0.46711 0.0
C271 C 0.61808 0.67333 0.50407 0.0
C272 C 0.75038 0.7167 0.51162 0.0
C273 C 0.58792 0.63677 0.50674 0.0
C274 C 0.86635 0.87317 0.50527 0.0
C275 C 0.83602 0.83506 0.49603 0.0
C276 C 0.70589 0.782 0.4794 0.0
C277 C 0.66636 0.67227 0.49888 0.0
C278 C 0.69832 0.71126 0.49618 0.0
C279 C 0.78682 0.82941 0.50037 0.0
C280 C 0.75744 0.7878 0.49593 0.0
H281 H 0.66864 0.56813 0.49786 0.0
H282 H 0.72097 0.63194 0.49271 0.0
H283 H 0.63688 0.74049 0.46658 0.0
H284 H 0.78363 0.92559 0.53333 0.0
H285 H 0.73001 0.85924 0.5165 0.0
C286 C 0.73632 0.36967 0.52555 0.0
C287 C 0.68385 0.3651 0.51205 0.0
C288 C 0.76199 0.33504 0.52958 0.0
C289 C 0.80094 0.25178 0.54761 0.0
H290 H 0.78934 0.19165 0.4636 0.0
C291 C 0.91692 0.11784 0.53039 0.0
C292 C 0.9459 0.1268 0.50755 0.0
C293 C 0.87861 0.14142 0.53278 0.0
C294 C 0.79235 0.20779 0.48729 0.0
H295 H 0.61664 0.32117 0.4929 0.0
H296 H 0.66203 0.26009 0.49885 0.0
H297 H 0.732 0.24269 0.46682 0.0
H298 H 0.9614 0.17099 0.47238 0.0
H299 H 0.89273 0.21039 0.47507 0.0
H300 H 0.86212 0.21746 0.56786 0.0
C301 C 0.68298 0.29051 0.50686 0.0
C302 C 0.75949 0.23673 0.48918 0.0
C303 C 0.65709 0.32522 0.50359 0.0
C304 C 0.9375 0.16123 0.48842 0.0
C305 C 0.89854 0.18414 0.49022 0.0
C306 C 0.83312 0.22216 0.54587 0.0
C307 C 0.73575 0.29526 0.51948 0.0
C308 C 0.76445 0.25978 0.51914 0.0
C309 C 0.86883 0.17449 0.51242 0.0
C310 C 0.82996 0.20083 0.51547 0.0
H311 H 0.75752 0.40021 0.53224 0.0
H312 H 0.80272 0.33953 0.53906 0.0
H313 H 0.80549 0.2693 0.57094 0.0
H314 H 0.92445 0.09307 0.54682 0.0
H315 H 0.85682 0.13402 0.5506 0.0
C316 C 0.3777 0.38822 0.50254 0.0
C317 C 0.42442 0.38504 0.4956 0.0
C318 C 0.34366 0.35302 0.50197 0.0
C319 C 0.30052 0.2494 0.46572 0.0
H320 H 0.2388 0.23952 0.53958 0.0
C321 C 0.13946 0.11913 0.47238 0.0
C322 C 0.10132 0.13224 0.48561 0.0
C323 C 0.18312 0.14626 0.47329 0.0
C324 C 0.25555 0.24192 0.51871 0.0
H325 H 0.47189 0.34247 0.48214 0.0
H326 H 0.41108 0.28028 0.48055 0.0
H327 H 0.30976 0.29304 0.54286 0.0
H328 H 0.07463 0.18563 0.50439 0.0
H329 H 0.15057 0.23295 0.50616 0.0
H330 H 0.24478 0.19914 0.44106 0.0
C331 C 0.40151 0.31033 0.48667 0.0
C332 C 0.29627 0.27235 0.52069 0.0
C333 C 0.43618 0.34577 0.48769 0.0
C334 C 0.10502 0.174 0.49623 0.0
C335 C 0.14841 0.20106 0.49714 0.0
C336 C 0.25941 0.21889 0.46366 0.0
C337 C 0.35523 0.31379 0.49417 0.0
C338 C 0.31812 0.27715 0.49387 0.0
C339 C 0.18853 0.1872 0.48658 0.0
C340 C 0.23562 0.21579 0.48978 0.0
H341 H 0.3674 0.41796 0.50872 0.0
H342 H 0.30788 0.35653 0.50738 0.0
H343 H 0.31674 0.25272 0.44468 0.0
H344 H 0.13616 0.08785 0.46195 0.0
H345 H 0.213 0.13498 0.46432 0.0
C346 C 0.38602 0.65948 0.49824 0.0
C347 C 0.35818 0.62271 0.50409 0.0
C348 C 0.36624 0.69714 0.49786 0.0
C349 C 0.24511 0.7401 0.49059 0.0
H350 H 0.33297 0.84153 0.52723 0.0
C351 C 0.16345 0.89157 0.50172 0.0
C352 C 0.18377 0.92333 0.48514 0.0
C353 C 0.18848 0.85697 0.50972 0.0
C354 C 0.30807 0.81337 0.51702 0.0
H355 H 0.28678 0.59694 0.51299 0.0
H356 H 0.25361 0.66219 0.51378 0.0
H357 H 0.36843 0.77618 0.5278 0.0
H358 H 0.24774 0.94585 0.46636 0.0
H359 H 0.29201 0.88571 0.48087 0.0
H360 H 0.18479 0.77721 0.48007 0.0
C361 C 0.29037 0.66209 0.50894 0.0
C362 C 0.32836 0.776 0.51704 0.0
C363 C 0.30982 0.62454 0.50895 0.0
C364 C 0.23142 0.92164 0.47917 0.0
C365 C 0.25673 0.88732 0.48752 0.0
C366 C 0.22483 0.77726 0.49098 0.0
C367 C 0.31829 0.69895 0.50349 0.0
C368 C 0.29713 0.73889 0.50366 0.0
C369 C 0.23447 0.8539 0.5016 0.0
C370 C 0.25608 0.81429 0.50403 0.0
H371 H 0.42348 0.65948 0.49461 0.0
H372 H 0.38853 0.72479 0.49306 0.0
H373 H 0.21999 0.71244 0.4794 0.0
H374 H 0.12658 0.8921 0.50634 0.0
H375 H 0.17079 0.83176 0.52088 0.0
C376 C 0.0384 0.02227 0.11808 0.0
C377 C 0.05258 -0.00968 0.10045 0.0
C378 C 0.04602 0.02222 0.15242 0.0
C379 C 0.11306 0.97237 0.22718 0.0
H380 H 0.01285 0.015 0.26522 0.0
C381 C 0.09734 0.94639 0.3608 0.0
C382 C 0.09864 0.9826 0.38055 0.0
C383 C 0.09185 0.94781 0.32669 0.0
C384 C 0.04121 0.00325 0.25489 0.0
H385 H 0.08619 0.93337 0.10479 0.0
H386 H 0.0976 0.9321 0.16472 0.0
H387 H 0.00358 0.01567 0.20558 0.0
H388 H 0.09395 0.0486 0.3794 0.0
H389 H 0.08205 0.0505 0.31939 0.0
H390 H 0.14928 0.95845 0.27669 0.0
C391 C 0.08195 0.95799 0.15225 0.0
C392 C 0.03621 0.00382 0.22074 0.0
C393 C 0.07524 0.95853 0.11787 0.0
C394 C 0.09247 0.02001 0.36501 0.0
C395 C 0.08601 0.02122 0.33071 0.0
C396 C 0.11746 0.97109 0.26125 0.0
C397 C 0.067 0.98969 0.16997 0.0
C398 C 0.07225 0.98863 0.2064 0.0
C399 C 0.08642 0.98524 0.3114 0.0
C400 C 0.08169 0.98667 0.27537 0.0
H401 H 0.02135 0.04747 0.10529 0.0
H402 H 0.03534 0.04781 0.16514 0.0
H403 H 0.14206 0.96107 0.21729 0.0
H404 H 0.10061 0.91681 0.37167 0.0
H405 H 0.09149 0.91955 0.31216 0.0
C406 C 0.95529 0.02192 0.88467 0.0
C407 C 0.98268 -0.00793 0.90178 0.0
C408 C 0.94795 0.02353 0.85028 0.0
C409 C 0.94224 0.95959 0.77563 0.0
H410 H 0.98131 0.06158 0.73781 0.0
C411 C 0.95764 0.95745 0.64164 0.0
C412 C 0.94047 0.98968 0.62224 0.0
C413 C 0.96347 0.96036 0.67585 0.0
C414 C 0.96951 0.03299 0.74787 0.0
H415 H 0.02302 0.94012 0.89633 0.0
H416 H 0.00918 0.9424 0.83641 0.0
H417 H 0.98657 0.06142 0.79728 0.0
H418 H 0.91728 0.05072 0.62308 0.0
H419 H 0.92609 0.05558 0.6831 0.0
H420 H 0.92428 0.93104 0.72661 0.0
C421 C -0.00629 0.96467 0.84954 0.0
C422 C 0.97259 0.03295 0.7819 0.0
C423 C 0.00176 0.96348 0.88385 0.0
C424 C 0.93088 0.0256 0.63771 0.0
C425 C 0.93601 0.02832 0.67203 0.0
C426 C 0.93856 0.95971 0.74167 0.0
C427 C 0.96705 -0.00517 0.83245 0.0
C428 C 0.95978 -0.00394 0.79612 0.0
C429 C 0.95134 -0.00472 0.6914 0.0
C430 C 0.95308 -0.00381 0.72741 0.0
H431 H 0.94042 0.04448 0.89791 0.0
H432 H 0.92708 0.04697 0.83757 0.0
H433 H 0.93144 0.93087 0.78594 0.0
H434 H 0.96574 0.92962 0.63018 0.0
H435 H 0.97686 0.93486 0.69003 0.0
C436 C 0.53762 0.52251 0.61845 0.0
C437 C 0.55166 0.49058 0.60071 0.0
C438 C 0.5453 0.52234 0.65279 0.0
C439 C 0.61243 0.47214 0.72734 0.0
H440 H 0.51273 0.51494 0.76577 0.0
C441 C 0.59723 0.44569 0.86099 0.0
C442 C 0.59874 0.48182 0.88088 0.0
C443 C 0.59162 0.44728 0.82688 0.0
C444 C 0.54094 0.50314 0.75533 0.0
H445 H 0.58502 0.4335 0.60487 0.0
H446 H 0.59652 0.43203 0.6648 0.0
H447 H 0.50317 0.51579 0.70612 0.0
H448 H 0.5943 0.54787 0.87998 0.0
H449 H 0.58219 0.55007 0.81997 0.0
H450 H 0.64879 0.45799 0.77676 0.0
C451 C 0.58095 0.458 0.65241 0.0
C452 C 0.53578 0.50382 0.72117 0.0
C453 C 0.57418 0.45866 0.61803 0.0
C454 C 0.59266 0.51934 0.86549 0.0
C455 C 0.58608 0.52072 0.83118 0.0
C456 C 0.61699 0.47075 0.76142 0.0
C457 C 0.5662 0.4897 0.67024 0.0
C458 C 0.57162 0.48856 0.70669 0.0
C459 C 0.58628 0.48481 0.81172 0.0
C460 C 0.5814 0.48639 0.77569 0.0
H461 H 0.52068 0.5478 0.60575 0.0
H462 H 0.53476 0.54792 0.6656 0.0
H463 H 0.64129 0.46079 0.71734 0.0
H464 H 0.60042 0.41604 0.87175 0.0
H465 H 0.59109 0.41906 0.81224 0.0
C466 C 0.45532 0.52358 0.38502 0.0
C467 C 0.48231 0.49348 0.40209 0.0
C468 C 0.44787 0.52513 0.35061 0.0
C469 C 0.44053 0.46076 0.27594 0.0
H470 H 0.48153 0.562 0.23789 0.0
C471 C 0.45545 0.45723 0.14183 0.0
C472 C 0.43922 0.48971 0.1224 0.0
C473 C 0.46127 0.4603 0.17603 0.0
C474 C 0.46918 0.53363 0.24801 0.0
H475 H 0.52182 0.44104 0.39654 0.0
H476 H 0.50773 0.44319 0.33659 0.0
H477 H 0.48705 0.56225 0.29741 0.0
H478 H 0.41767 0.55133 0.12322 0.0
H479 H 0.42645 0.5565 0.18322 0.0
H480 H 0.42173 0.43205 0.22695 0.0
C481 C 0.49271 0.46572 0.34978 0.0
C482 C 0.47241 0.53382 0.28207 0.0
C483 C 0.50089 0.46461 0.3841 0.0
C484 C 0.43054 0.52601 0.13786 0.0
C485 C 0.43564 0.5289 0.17217 0.0
C486 C 0.43667 0.46066 0.24196 0.0
C487 C 0.46643 0.4961 0.33273 0.0
C488 C 0.45893 0.49718 0.29638 0.0
C489 C 0.45007 0.49566 0.19157 0.0
C490 C 0.4519 0.49685 0.2276 0.0
H491 H 0.44085 0.54637 0.39831 0.0
H492 H 0.42731 0.54874 0.33794 0.0
H493 H 0.42921 0.43224 0.28632 0.0
H494 H 0.46284 0.4291 0.13039 0.0
H495 H 0.47396 0.43461 0.19023 0.0
loop_
_geom_bond_atom_site_label_1
_geom_bond_atom_site_label_2
_geom_bond_distance
_geom_bond_site_symmetry_2
_ccdc_geom_bond_type
Co0 N5 2.057 . S
Co0 O17 2.021 . S
Co0 O20 2.062 . S
Co0 O24 2.117 1_554 S
Co0 O25 2.020 1_565 S
C1 O21 1.259 1_455 S
C1 O24 1.258 1_545 S
Co2 N11 2.056 . S
Co2 O18 2.113 1_655 S
Co2 O19 2.019 1_544 S
Co2 O21 2.025 1_554 S
Co2 O26 2.062 1_655 S
C3 N5 1.316 . S
C3 N6 1.347 . S
C3 H8 0.931 . S
C4 N5 1.375 1_556 S
C4 C7 1.350 . S
C4 H9 0.930 . S
N5 Co0 2.057 . S
N5 C3 1.316 . S
N5 C4 1.375 1_554 S
N6 C3 1.347 . S
N6 C7 1.373 1_554 S
C7 C4 1.350 . S
C7 N6 1.373 1_556 S
C7 H28 0.931 . S
H8 C3 0.931 . S
H9 C4 0.930 . S
C10 O17 1.261 1_545 S
C10 O18 1.257 . S
N11 Co2 2.056 . S
N11 C12 1.316 1_554 S
N11 C13 1.375 . S
C12 N11 1.316 1_556 S
C12 N14 1.345 1_556 S
C12 H23 0.931 . S
C13 N11 1.375 . S
C13 C15 1.350 . S
C13 H22 0.930 . S
N14 C12 1.345 1_554 S
N14 C15 1.377 . S
C15 C13 1.350 . S
C15 N14 1.377 . S
C15 H29 0.931 . S
C16 O19 1.256 1_554 S
C16 O20 1.255 1_655 S
O17 Co0 2.021 . S
O17 C10 1.261 1_565 S
O18 Co2 2.113 1_455 S
O18 C10 1.257 . S
O19 Co2 2.019 1_566 S
O19 C16 1.256 1_556 S
O20 Co0 2.062 . S
O20 C16 1.255 1_455 S
O21 C1 1.259 1_655 S
O21 Co2 2.025 1_556 S
H22 C13 0.930 . S
H23 C12 0.931 . S
O24 Co0 2.117 1_556 S
O24 C1 1.258 1_565 S
O25 Co0 2.020 1_545 S
O25 C27 1.256 . S
O26 Co2 2.062 1_455 S
O26 C27 1.255 . S
C27 O25 1.256 . S
C27 O26 1.255 . S
H28 C7 0.931 . S
H29 C15 0.931 . S
Co30 N35 2.057 . S
Co30 O47 2.021 . S
Co30 O50 2.062 . S
Co30 O54 2.117 . S
Co30 O55 2.020 . S
C31 O51 1.259 . S
C31 O54 1.258 . S
Co32 N41 2.057 . S
Co32 O48 2.117 . S
Co32 O49 2.020 . S
Co32 O51 2.021 . S
Co32 O56 2.062 . S
C33 N35 1.316 . S
C33 N36 1.347 . S
C33 H38 0.931 . S
C34 N35 1.375 . S
C34 C37 1.350 . S
C34 H39 0.930 . S
N35 Co30 2.057 . S
N35 C33 1.316 . S
N35 C34 1.375 . S
N36 C33 1.347 . S
N36 C37 1.373 . S
C37 C34 1.350 . S
C37 N36 1.373 . S
C37 H58 0.931 . S
H38 C33 0.931 . S
H39 C34 0.930 . S
C40 O47 1.259 . S
C40 O48 1.258 . S
N41 Co32 2.057 . S
N41 C42 1.316 . S
N41 C43 1.375 . S
C42 N41 1.316 . S
C42 N44 1.347 . S
C42 H53 0.931 . S
C43 N41 1.375 . S
C43 C45 1.350 . S
C43 H52 0.930 . S
N44 C42 1.347 . S
N44 C45 1.373 . S
C45 C43 1.350 . S
C45 N44 1.373 . S
C45 H59 0.931 . S
C46 O49 1.256 . S
C46 O50 1.255 . S
O47 Co30 2.021 . S
O47 C40 1.259 . S
O48 Co32 2.117 . S
O48 C40 1.258 . S
O49 Co32 2.020 . S
O49 C46 1.256 . S
O50 Co30 2.062 . S
O50 C46 1.255 . S
O51 C31 1.259 . S
O51 Co32 2.021 . S
H52 C43 0.930 . S
H53 C42 0.931 . S
O54 Co30 2.117 . S
O54 C31 1.258 . S
O55 Co30 2.020 . S
O55 C57 1.256 . S
O56 Co32 2.062 . S
O56 C57 1.255 . S
C57 O55 1.256 . S
C57 O56 1.255 . S
H58 C37 0.931 . S
H59 C45 0.931 . S
H60 C61 0.949 . S
C61 H60 0.949 . S
C61 C62 1.395 1_545 S
C61 C63 1.391 . S
C62 C61 1.395 1_565 S
C62 C65 1.390 . S
C63 C61 1.391 . S
C63 C67 1.387 1_545 S
C63 C68 1.491 . S
H64 C65 0.950 . S
C65 C62 1.390 . S
C65 H64 0.950 . S
C65 C66 1.378 . S
C66 C65 1.378 . S
C66 C67 1.409 . S
C67 C63 1.387 1_565 S
C67 C66 1.409 . S
C67 H69 0.951 . S
C68 C63 1.491 . S
C68 C70 1.376 1_455 S
C68 C72 1.404 . S
H69 C67 0.951 . S
C70 C68 1.376 1_655 S
C70 C71 1.393 . S
C70 H75 0.952 . S
C71 C70 1.393 . S
C71 C76 1.399 1_655 S
C72 C68 1.404 . S
C72 H73 0.950 . S
C72 C74 1.375 . S
H73 C72 0.950 . S
C74 C72 1.375 . S
C74 C76 1.382 . S
C74 H78 0.950 . S
H75 C70 0.952 . S
C76 C71 1.399 1_455 S
C76 C74 1.382 . S
C76 H77 0.952 . S
H77 C76 0.952 . S
H78 C74 0.950 . S
H79 C80 0.950 1_455 S
C80 H79 0.950 1_655 S
C80 C81 1.396 1_545 S
C80 C82 1.391 . S
C81 C80 1.396 1_565 S
C81 C84 1.388 . S
C82 C80 1.391 . S
C82 C86 1.387 1_545 S
C82 C87 1.491 1_655 S
H83 C84 0.950 . S
C84 C81 1.388 . S
C84 H83 0.950 . S
C84 C85 1.378 . S
C85 C84 1.378 . S
C85 C86 1.409 . S
C86 C82 1.387 1_565 S
C86 C85 1.409 . S
C86 H88 0.951 . S
C87 C82 1.491 1_455 S
C87 C89 1.382 . S
C87 C91 1.404 1_455 S
H88 C86 0.951 . S
C89 C87 1.382 . S
C89 C90 1.390 . S
C89 H94 0.949 . S
C90 C89 1.390 . S
C90 C95 1.399 . S
C91 C87 1.404 1_655 S
C91 H92 0.950 . S
C91 C93 1.375 . S
H92 C91 0.950 . S
C93 C91 1.375 . S
C93 C95 1.382 1_655 S
C93 H97 0.950 . S
H94 C89 0.949 . S
C95 C90 1.399 . S
C95 C93 1.382 1_455 S
C95 H96 0.952 . S
H96 C95 0.952 . S
H97 C93 0.950 . S
H98 C99 0.949 . S
C99 H98 0.949 . S
C99 C100 1.395 . S
C99 C101 1.391 . S
C100 C99 1.395 . S
C100 C103 1.390 . S
C101 C99 1.391 . S
C101 C105 1.387 . S
C101 C106 1.491 . S
H102 C103 0.950 . S
C103 C100 1.390 . S
C103 H102 0.950 . S
C103 C104 1.378 . S
C104 C103 1.378 . S
C104 C105 1.409 . S
C105 C101 1.387 . S
C105 C104 1.409 . S
C105 H107 0.951 1_556 S
C106 C101 1.491 . S
C106 C108 1.382 . S
C106 C110 1.404 1_556 S
H107 C105 0.951 1_554 S
C108 C106 1.382 . S
C108 C109 1.390 1_556 S
C108 H113 0.949 . S
C109 C108 1.390 1_554 S
C109 C114 1.399 . S
C110 C106 1.404 1_554 S
C110 H111 0.950 . S
C110 C112 1.375 . S
H111 C110 0.950 . S
C112 C110 1.375 . S
C112 C114 1.382 . S
C112 H116 0.950 . S
H113 C108 0.949 . S
C114 C109 1.399 . S
C114 C112 1.382 . S
C114 H115 0.952 . S
H115 C114 0.952 . S
H116 C112 0.950 . S
H117 C118 0.949 . S
C118 H117 0.949 . S
C118 C119 1.395 . S
C118 C120 1.391 . S
C119 C118 1.395 . S
C119 C122 1.390 . S
C120 C118 1.391 . S
C120 C124 1.387 . S
C120 C125 1.491 . S
H121 C122 0.950 . S
C122 C119 1.390 . S
C122 H121 0.950 . S
C122 C123 1.378 . S
C123 C122 1.378 . S
C123 C124 1.409 . S
C124 C120 1.387 . S
C124 C123 1.409 . S
C124 H126 0.924 1_554 S
C125 C120 1.491 . S
C125 C127 1.382 . S
C125 C129 1.404 1_554 S
H126 C124 0.924 1_556 S
C127 C125 1.382 . S
C127 C128 1.390 . S
C127 H132 0.949 . S
C128 C127 1.390 . S
C128 C133 1.399 1_554 S
C129 C125 1.404 1_556 S
C129 H130 0.950 . S
C129 C131 1.375 . S
H130 C129 0.950 . S
C131 C129 1.375 . S
C131 C133 1.382 . S
C131 H135 0.950 . S
H132 C127 0.949 . S
C133 C128 1.399 1_556 S
C133 C131 1.382 . S
C133 H134 0.952 . S
H134 C133 0.952 . S
H135 C131 0.950 . S
C136 C137 1.349 . S
C136 C138 1.327 . S
C136 H161 0.950 . S
C137 C136 1.349 . S
C137 C153 1.349 1_554 S
C138 C136 1.327 . S
C138 C157 1.429 . S
C138 H162 0.950 . S
C139 C156 1.574 . S
C139 C158 1.368 1_556 S
C139 H163 0.949 . S
H140 C144 0.949 . S
C141 C142 1.349 . S
C141 C143 1.327 . S
C141 H164 0.950 1_554 S
C142 C141 1.349 . S
C142 C154 1.349 . S
C143 C141 1.327 . S
C143 C159 1.429 . S
C143 H165 0.950 1_554 S
C144 H140 0.949 . S
C144 C152 1.574 . S
C144 C160 1.368 . S
H145 C153 0.950 . S
H146 C151 0.950 . S
H147 C152 0.949 . S
H148 C154 0.950 . S
H149 C155 0.950 . S
H150 C156 0.949 . S
C151 H146 0.950 . S
C151 C153 1.327 . S
C151 C157 1.429 1_556 S
C152 C144 1.574 . S
C152 H147 0.949 . S
C152 C158 1.368 . S
C153 C137 1.349 1_556 S
C153 H145 0.950 . S
C153 C151 1.327 . S
C154 C142 1.349 . S
C154 H148 0.950 . S
C154 C155 1.327 . S
C155 H149 0.950 . S
C155 C154 1.327 . S
C155 C159 1.429 . S
C156 C139 1.574 . S
C156 H150 0.949 . S
C156 C160 1.368 1_556 S
C157 C138 1.429 . S
C157 C151 1.429 1_554 S
C157 C158 1.523 . S
C158 C139 1.368 1_554 S
C158 C152 1.368 . S
C158 C157 1.523 . S
C159 C143 1.429 . S
C159 C155 1.429 . S
C159 C160 1.523 . S
C160 C144 1.368 . S
C160 C156 1.368 1_554 S
C160 C159 1.523 . S
H161 C136 0.950 . S
H162 C138 0.950 . S
H163 C139 0.949 . S
H164 C141 0.950 1_556 S
H165 C143 0.950 1_556 S
C166 C167 1.349 1_556 S
C166 C168 1.327 . S
C166 H191 0.950 . S
C167 C166 1.349 1_554 S
C167 C183 1.349 . S
C168 C166 1.327 . S
C168 C187 1.429 1_556 S
C168 H192 0.950 . S
C169 C186 1.574 . S
C169 C188 1.368 . S
C169 H193 0.949 . S
H170 C174 0.949 . S
C171 C172 1.349 . S
C171 C173 1.327 . S
C171 H194 0.950 . S
C172 C171 1.349 . S
C172 C184 1.349 1_554 S
C173 C171 1.327 . S
C173 C189 1.429 . S
C173 H195 0.950 . S
C174 H170 0.949 . S
C174 C182 1.574 . S
C174 C190 1.368 1_556 S
H175 C183 0.950 . S
H176 C181 0.950 . S
H177 C182 0.949 . S
H178 C184 0.950 . S
H179 C185 0.950 . S
H180 C186 0.949 . S
C181 H176 0.950 . S
C181 C183 1.327 . S
C181 C187 1.429 . S
C182 C174 1.574 . S
C182 H177 0.949 . S
C182 C188 1.368 1_556 S
C183 C167 1.349 . S
C183 H175 0.950 . S
C183 C181 1.327 . S
C184 C172 1.349 1_556 S
C184 H178 0.950 . S
C184 C185 1.327 . S
C185 H179 0.950 . S
C185 C184 1.327 . S
C185 C189 1.429 1_556 S
C186 C169 1.574 . S
C186 H180 0.949 . S
C186 C190 1.368 . S
C187 C168 1.429 1_554 S
C187 C181 1.429 . S
C187 C188 1.523 . S
C188 C169 1.368 . S
C188 C182 1.368 1_554 S
C188 C187 1.523 . S
C189 C173 1.429 . S
C189 C185 1.429 1_554 S
C189 C190 1.523 . S
C190 C174 1.368 1_554 S
C190 C186 1.368 . S
C190 C189 1.523 . S
H191 C166 0.950 . S
H192 C168 0.950 . S
H193 C169 0.949 . S
H194 C171 0.950 . S
H195 C173 0.950 . S
C196 C197 1.339 1_556 S
C196 C198 1.327 . S
C196 H221 0.950 . S
C197 C196 1.339 1_554 S
C197 C213 1.365 . S
C198 C196 1.327 . S
C198 C217 1.429 1_556 S
C198 H222 0.950 . S
C199 C216 1.574 . S
C199 C218 1.368 . S
C199 H223 0.949 . S
H200 C204 0.949 . S
C201 C202 1.349 . S
C201 C203 1.327 . S
C201 H224 0.950 . S
C202 C201 1.349 . S
C202 C214 1.349 1_554 S
C203 C201 1.327 . S
C203 C219 1.429 . S
C203 H225 0.950 . S
C204 H200 0.949 . S
C204 C212 1.574 . S
C204 C220 1.368 1_556 S
H205 C213 0.950 . S
H206 C211 0.950 . S
H207 C212 0.949 . S
H208 C214 0.950 . S
H209 C215 0.950 . S
H210 C216 0.949 . S
C211 H206 0.950 . S
C211 C213 1.327 . S
C211 C217 1.429 . S
C212 C204 1.574 . S
C212 H207 0.949 . S
C212 C218 1.368 1_556 S
C213 C197 1.365 . S
C213 H205 0.950 . S
C213 C211 1.327 . S
C214 C202 1.349 1_556 S
C214 H208 0.950 . S
C214 C215 1.327 . S
C215 H209 0.950 . S
C215 C214 1.327 . S
C215 C219 1.429 1_556 S
C216 C199 1.574 . S
C216 H210 0.949 . S
C216 C220 1.368 . S
C217 C198 1.429 1_554 S
C217 C211 1.429 . S
C217 C218 1.523 . S
C218 C199 1.368 . S
C218 C212 1.368 1_554 S
C218 C217 1.523 . S
C219 C203 1.429 . S
C219 C215 1.429 1_554 S
C219 C220 1.523 . S
C220 C204 1.368 1_554 S
C220 C216 1.368 . S
C220 C219 1.523 . S
H221 C196 0.950 . S
H222 C198 0.950 . S
H223 C199 0.949 . S
H224 C201 0.950 . S
H225 C203 0.950 . S
C226 C227 1.349 . S
C226 C228 1.327 . S
C226 H251 0.950 . S
C227 C226 1.349 . S
C227 C243 1.349 1_556 S
C228 C226 1.327 . S
C228 C247 1.429 . S
C228 H252 0.950 . S
C229 C246 1.574 . S
C229 C248 1.368 1_554 S
C229 H253 0.949 . S
H230 C234 0.949 . S
C231 C232 1.349 1_554 S
C231 C233 1.327 . S
C231 H254 0.950 . S
C232 C231 1.349 1_556 S
C232 C244 1.349 . S
C233 C231 1.327 . S
C233 C249 1.429 1_554 S
C233 H255 0.950 . S
C234 H230 0.949 . S
C234 C242 1.574 . S
C234 C250 1.368 . S
H235 C243 0.950 . S
H236 C241 0.950 . S
H237 C242 0.949 . S
H238 C244 0.950 . S
H239 C245 0.950 . S
H240 C246 0.949 . S
C241 H236 0.950 . S
C241 C243 1.327 . S
C241 C247 1.429 1_554 S
C242 C234 1.574 . S
C242 H237 0.949 . S
C242 C248 1.368 . S
C243 C227 1.349 1_554 S
C243 H235 0.950 . S
C243 C241 1.327 . S
C244 C232 1.349 . S
C244 H238 0.950 . S
C244 C245 1.327 . S
C245 H239 0.950 . S
C245 C244 1.327 . S
C245 C249 1.429 . S
C246 C229 1.574 . S
C246 H240 0.949 . S
C246 C250 1.368 1_554 S
C247 C228 1.429 . S
C247 C241 1.429 1_556 S
C247 C248 1.523 . S
C248 C229 1.368 1_556 S
C248 C242 1.368 . S
C248 C247 1.523 . S
C249 C233 1.429 1_556 S
C249 C245 1.429 . S
C249 C250 1.523 . S
C250 C234 1.368 . S
C250 C246 1.368 1_556 S
C250 C249 1.523 . S
H251 C226 0.950 . S
H252 C228 0.950 . S
H253 C229 0.949 . S
H254 C231 0.950 . S
H255 C233 0.950 . S
C256 C257 1.349 . S
C256 C258 1.327 . S
C256 H281 0.950 . S
C257 C256 1.349 . S
C257 C273 1.349 . S
C258 C256 1.327 . S
C258 C277 1.429 . S
C258 H282 0.950 . S
C259 C276 1.574 . S
C259 C278 1.368 . S
C259 H283 0.949 . S
H260 C264 0.949 . S
C261 C262 1.349 . S
C261 C263 1.327 . S
C261 H284 0.950 . S
C262 C261 1.349 . S
C262 C274 1.349 . S
C263 C261 1.327 . S
C263 C279 1.429 . S
C263 H285 0.950 . S
C264 H260 0.949 . S
C264 C272 1.574 . S
C264 C280 1.368 . S
H265 C273 0.950 . S
H266 C271 0.950 . S
H267 C272 0.949 . S
H268 C274 0.950 . S
H269 C275 0.950 . S
H270 C276 0.949 . S
C271 H266 0.950 . S
C271 C273 1.327 . S
C271 C277 1.429 . S
C272 C264 1.574 . S
C272 H267 0.949 . S
C272 C278 1.368 . S
C273 C257 1.349 . S
C273 H265 0.950 . S
C273 C271 1.327 . S
C274 C262 1.349 . S
C274 H268 0.950 . S
C274 C275 1.327 . S
C275 H269 0.950 . S
C275 C274 1.327 . S
C275 C279 1.429 . S
C276 C259 1.574 . S
C276 H270 0.949 . S
C276 C280 1.368 . S
C277 C258 1.429 . S
C277 C271 1.429 . S
C277 C278 1.523 . S
C278 C259 1.368 . S
C278 C272 1.368 . S
C278 C277 1.523 . S
C279 C263 1.429 . S
C279 C275 1.429 . S
C279 C280 1.523 . S
C280 C264 1.368 . S
C280 C276 1.368 . S
C280 C279 1.523 . S
H281 C256 0.950 . S
H282 C258 0.950 . S
H283 C259 0.949 . S
H284 C261 0.950 . S
H285 C263 0.950 . S
C286 C287 1.349 . S
C286 C288 1.327 . S
C286 H311 0.950 . S
C287 C286 1.349 . S
C287 C303 1.349 . S
C288 C286 1.327 . S
C288 C307 1.429 . S
C288 H312 0.950 . S
C289 C306 1.574 . S
C289 C308 1.368 . S
C289 H313 0.949 . S
H290 C294 0.949 . S
C291 C292 1.349 . S
C291 C293 1.327 . S
C291 H314 0.950 . S
C292 C291 1.349 . S
C292 C304 1.349 . S
C293 C291 1.327 . S
C293 C309 1.429 . S
C293 H315 0.950 . S
C294 H290 0.949 . S
C294 C302 1.574 . S
C294 C310 1.368 . S
H295 C303 0.950 . S
H296 C301 0.950 . S
H297 C302 0.949 . S
H298 C304 0.950 . S
H299 C305 0.950 . S
H300 C306 0.949 . S
C301 H296 0.950 . S
C301 C303 1.327 . S
C301 C307 1.429 . S
C302 C294 1.574 . S
C302 H297 0.949 . S
C302 C308 1.368 . S
C303 C287 1.349 . S
C303 H295 0.950 . S
C303 C301 1.327 . S
C304 C292 1.349 . S
C304 H298 0.950 . S
C304 C305 1.327 . S
C305 H299 0.950 . S
C305 C304 1.327 . S
C305 C309 1.429 . S
C306 C289 1.574 . S
C306 H300 0.949 . S
C306 C310 1.368 . S
C307 C288 1.429 . S
C307 C301 1.429 . S
C307 C308 1.523 . S
C308 C289 1.368 . S
C308 C302 1.368 . S
C308 C307 1.523 . S
C309 C293 1.429 . S
C309 C305 1.429 . S
C309 C310 1.523 . S
C310 C294 1.368 . S
C310 C306 1.368 . S
C310 C309 1.523 . S
H311 C286 0.950 . S
H312 C288 0.950 . S
H313 C289 0.949 . S
H314 C291 0.950 . S
H315 C293 0.950 . S
C316 C317 1.349 . S
C316 C318 1.327 . S
C316 H341 0.950 . S
C317 C316 1.349 . S
C317 C333 1.349 . S
C318 C316 1.327 . S
C318 C337 1.429 . S
C318 H342 0.950 . S
C319 C336 1.574 . S
C319 C338 1.368 . S
C319 H343 0.949 . S
H320 C324 0.949 . S
C321 C322 1.349 . S
C321 C323 1.327 . S
C321 H344 0.950 . S
C322 C321 1.349 . S
C322 C334 1.349 . S
C323 C321 1.327 . S
C323 C339 1.429 . S
C323 H345 0.950 . S
C324 H320 0.949 . S
C324 C332 1.574 . S
C324 C340 1.368 . S
H325 C333 0.950 . S
H326 C331 0.950 . S
H327 C332 0.949 . S
H328 C334 0.950 . S
H329 C335 0.950 . S
H330 C336 0.949 . S
C331 H326 0.950 . S
C331 C333 1.327 . S
C331 C337 1.429 . S
C332 C324 1.574 . S
C332 H327 0.949 . S
C332 C338 1.368 . S
C333 C317 1.349 . S
C333 H325 0.950 . S
C333 C331 1.327 . S
C334 C322 1.349 . S
C334 H328 0.950 . S
C334 C335 1.327 . S
C335 H329 0.950 . S
C335 C334 1.327 . S
C335 C339 1.429 . S
C336 C319 1.574 . S
C336 H330 0.949 . S
C336 C340 1.368 . S
C337 C318 1.429 . S
C337 C331 1.429 . S
C337 C338 1.523 . S
C338 C319 1.368 . S
C338 C332 1.368 . S
C338 C337 1.523 . S
C339 C323 1.429 . S
C339 C335 1.429 . S
C339 C340 1.523 . S
C340 C324 1.368 . S
C340 C336 1.368 . S
C340 C339 1.523 . S
H341 C316 0.950 . S
H342 C318 0.950 . S
H343 C319 0.949 . S
H344 C321 0.950 . S
H345 C323 0.950 . S
C346 C347 1.349 . S
C346 C348 1.327 . S
C346 H371 0.950 . S
C347 C346 1.349 . S
C347 C363 1.349 . S
C348 C346 1.327 . S
C348 C367 1.429 . S
C348 H372 0.950 . S
C349 C366 1.574 . S
C349 C368 1.368 . S
C349 H373 0.949 . S
H350 C354 0.949 . S
C351 C352 1.349 . S
C351 C353 1.327 . S
C351 H374 0.950 . S
C352 C351 1.349 . S
C352 C364 1.349 . S
C353 C351 1.327 . S
C353 C369 1.429 . S
C353 H375 0.950 . S
C354 H350 0.949 . S
C354 C362 1.574 . S
C354 C370 1.368 . S
H355 C363 0.950 . S
H356 C361 0.950 . S
H357 C362 0.949 . S
H358 C364 0.950 . S
H359 C365 0.950 . S
H360 C366 0.949 . S
C361 H356 0.950 . S
C361 C363 1.327 . S
C361 C367 1.429 . S
C362 C354 1.574 . S
C362 H357 0.949 . S
C362 C368 1.368 . S
C363 C347 1.349 . S
C363 H355 0.950 . S
C363 C361 1.327 . S
C364 C352 1.349 . S
C364 H358 0.950 . S
C364 C365 1.327 . S
C365 H359 0.950 . S
C365 C364 1.327 . S
C365 C369 1.429 . S
C366 C349 1.574 . S
C366 H360 0.949 . S
C366 C370 1.368 . S
C367 C348 1.429 . S
C367 C361 1.429 . S
C367 C368 1.523 . S
C368 C349 1.368 . S
C368 C362 1.368 . S
C368 C367 1.523 . S
C369 C353 1.429 . S
C369 C365 1.429 . S
C369 C370 1.523 . S
C370 C354 1.368 . S
C370 C366 1.368 . S
C370 C369 1.523 . S
H371 C346 0.950 . S
H372 C348 0.950 . S
H373 C349 0.949 . S
H374 C351 0.950 . S
H375 C353 0.950 . S
C376 C377 1.366 . S
C376 C378 1.327 . S
C376 H401 0.950 . S
C377 C376 1.366 . S
C377 C393 1.331 1_545 S
C378 C376 1.327 . S
C378 C397 1.444 . S
C378 H402 0.950 . S
C379 C396 1.574 . S
C379 C398 1.352 1_565 S
C379 H403 0.949 . S
H380 C384 0.949 . S
C381 C382 1.338 1_565 S
C381 C383 1.327 . S
C381 H404 0.950 . S
C382 C381 1.338 1_545 S
C382 C394 1.361 . S
C383 C381 1.327 . S
C383 C399 1.416 1_565 S
C383 H405 0.950 . S
C384 H380 0.949 . S
C384 C392 1.574 . S
C384 C400 1.383 . S
H385 C393 0.950 . S
H386 C391 0.950 . S
H387 C392 0.949 . S
H388 C394 0.950 . S
H389 C395 0.950 . S
H390 C396 0.949 . S
C391 H386 0.950 . S
C391 C393 1.327 . S
C391 C397 1.413 1_565 S
C392 C384 1.574 . S
C392 H387 0.949 . S
C392 C398 1.384 . S
C393 C377 1.331 1_565 S
C393 H385 0.950 . S
C393 C391 1.327 . S
C394 C382 1.361 . S
C394 H388 0.950 . S
C394 C395 1.327 . S
C395 H389 0.950 . S
C395 C394 1.327 . S
C395 C399 1.441 . S
C396 C379 1.574 . S
C396 H390 0.949 . S
C396 C400 1.354 1_565 S
C397 C378 1.444 . S
C397 C391 1.413 1_545 S
C397 C398 1.523 . S
C398 C379 1.352 1_545 S
C398 C392 1.384 . S
C398 C397 1.523 . S
C399 C383 1.416 1_545 S
C399 C395 1.441 . S
C399 C400 1.523 . S
C400 C384 1.383 . S
C400 C396 1.354 1_545 S
C400 C399 1.523 . S
H401 C376 0.950 . S
H402 C378 0.950 . S
H403 C379 0.949 . S
H404 C381 0.950 . S
H405 C383 0.950 . S
C406 C407 1.349 . S
C406 C408 1.327 . S
C406 H431 0.950 . S
C407 C406 1.349 . S
C407 C423 1.349 1_445 S
C408 C406 1.327 . S
C408 C427 1.429 . S
C408 H432 0.950 . S
C409 C426 1.574 . S
C409 C428 1.368 1_665 S
C409 H433 0.949 . S
H410 C414 0.949 . S
C411 C412 1.349 1_565 S
C411 C413 1.327 . S
C411 H434 0.950 . S
C412 C411 1.349 1_545 S
C412 C424 1.349 1_655 S
C413 C411 1.327 . S
C413 C429 1.429 1_565 S
C413 H435 0.950 . S
C414 H410 0.949 . S
C414 C422 1.574 . S
C414 C430 1.368 1_455 S
H415 C423 0.950 . S
H416 C421 0.950 . S
H417 C422 0.949 . S
H418 C424 0.950 . S
H419 C425 0.950 . S
H420 C426 0.949 . S
C421 H416 0.950 . S
C421 C423 1.327 . S
C421 C427 1.429 1_665 S
C422 C414 1.574 . S
C422 H417 0.949 . S
C422 C428 1.368 . S
C423 C407 1.349 1_665 S
C423 H415 0.950 . S
C423 C421 1.327 . S
C424 C412 1.349 1_455 S
C424 H418 0.950 . S
C424 C425 1.327 . S
C425 H419 0.950 . S
C425 C424 1.327 . S
C425 C429 1.429 1_455 S
C426 C409 1.574 . S
C426 H420 0.949 . S
C426 C430 1.368 1_565 S
C427 C408 1.429 . S
C427 C421 1.429 1_445 S
C427 C428 1.523 . S
C428 C409 1.368 1_445 S
C428 C422 1.368 . S
C428 C427 1.523 . S
C429 C413 1.429 1_545 S
C429 C425 1.429 1_655 S
C429 C430 1.523 . S
C430 C414 1.368 1_655 S
C430 C426 1.368 1_545 S
C430 C429 1.523 . S
H431 C406 0.950 . S
H432 C408 0.950 . S
H433 C409 0.949 . S
H434 C411 0.950 . S
H435 C413 0.950 . S
C436 C437 1.349 . S
C436 C438 1.327 . S
C436 H461 0.950 . S
C437 C436 1.349 . S
C437 C453 1.349 . S
C438 C436 1.327 . S
C438 C457 1.429 . S
C438 H462 0.950 . S
C439 C456 1.574 . S
C439 C458 1.368 . S
C439 H463 0.949 . S
H440 C444 0.949 . S
C441 C442 1.349 . S
C441 C443 1.327 . S
C441 H464 0.950 . S
C442 C441 1.349 . S
C442 C454 1.349 . S
C443 C441 1.327 . S
C443 C459 1.429 . S
C443 H465 0.950 . S
C444 H440 0.949 . S
C444 C452 1.574 . S
C444 C460 1.368 . S
H445 C453 0.950 . S
H446 C451 0.950 . S
H447 C452 0.949 . S
H448 C454 0.950 . S
H449 C455 0.950 . S
H450 C456 0.949 . S
C451 H446 0.950 . S
C451 C453 1.327 . S
C451 C457 1.429 . S
C452 C444 1.574 . S
C452 H447 0.949 . S
C452 C458 1.368 . S
C453 C437 1.349 . S
C453 H445 0.950 . S
C453 C451 1.327 . S
C454 C442 1.349 . S
C454 H448 0.950 . S
C454 C455 1.327 . S
C455 H449 0.950 . S
C455 C454 1.327 . S
C455 C459 1.429 . S
C456 C439 1.574 . S
C456 H450 0.949 . S
C456 C460 1.368 . S
C457 C438 1.429 . S
C457 C451 1.429 . S
C457 C458 1.523 . S
C458 C439 1.368 . S
C458 C452 1.368 . S
C458 C457 1.523 . S
C459 C443 1.429 . S
C459 C455 1.429 . S
C459 C460 1.523 . S
C460 C444 1.368 . S
C460 C456 1.368 . S
C460 C459 1.523 . S
H461 C436 0.950 . S
H462 C438 0.950 . S
H463 C439 0.949 . S
H464 C441 0.950 . S
H465 C443 0.950 . S
C466 C467 1.349 . S
C466 C468 1.327 . S
C466 H491 0.950 . S
C467 C466 1.349 . S
C467 C483 1.349 . S
C468 C466 1.327 . S
C468 C487 1.429 . S
C468 H492 0.950 . S
C469 C486 1.574 . S
C469 C488 1.368 . S
C469 H493 0.949 . S
H470 C474 0.949 . S
C471 C472 1.349 . S
C471 C473 1.327 . S
C471 H494 0.950 . S
C472 C471 1.349 . S
C472 C484 1.349 . S
C473 C471 1.327 . S
C473 C489 1.429 . S
C473 H495 0.950 . S
C474 H470 0.949 . S
C474 C482 1.574 . S
C474 C490 1.368 . S
H475 C483 0.950 . S
H476 C481 0.950 . S
H477 C482 0.949 . S
H478 C484 0.950 . S
H479 C485 0.950 . S
H480 C486 0.949 . S
C481 H476 0.950 . S
C481 C483 1.327 . S
C481 C487 1.429 . S
C482 C474 1.574 . S
C482 H477 0.949 . S
C482 C488 1.368 . S
C483 C467 1.349 . S
C483 H475 0.950 . S
C483 C481 1.327 . S
C484 C472 1.349 . S
C484 H478 0.950 . S
C484 C485 1.327 . S
C485 H479 0.950 . S
C485 C484 1.327 . S
C485 C489 1.429 . S
C486 C469 1.574 . S
C486 H480 0.949 . S
C486 C490 1.368 . S
C487 C468 1.429 . S
C487 C481 1.429 . S
C487 C488 1.523 . S
C488 C469 1.368 . S
C488 C482 1.368 . S
C488 C487 1.523 . S
C489 C473 1.429 . S
C489 C485 1.429 . S
C489 C490 1.523 . S
C490 C474 1.368 . S
C490 C486 1.368 . S
C490 C489 1.523 . S
H491 C466 0.950 . S
H492 C468 0.950 . S
H493 C469 0.949 . S
H494 C471 0.950 . S
H495 C473 0.950 . S
C142 C123 1.518 . S
C137 C27 1.543 . S
C167 N6 1.325 . S
C172 C109 1.339 . S
C197 C16 1.393 . S
C202 C128 1.360 . S
C227 N14 1.503 1_556 S
C232 C104 1.514 . S
C257 C57 1.543 . S
C262 C85 1.518 . S
C287 N36 1.325 . S
C292 C71 1.339 . S
C322 C90 1.360 . S
C317 C46 1.397 . S
C352 C66 1.514 . S
C347 N44 1.504 . S
C377 C10 1.524 . S
C382 C62 1.514 1_545 S
C407 C1 1.561 . S
C412 C81 1.550 1_545 S
C442 C100 1.515 . S
C437 C40 1.524 . S
C467 C31 1.561 . S
C472 C119 1.549 . S
