# Generated by pormake.
# Topology ssc, (4,4)-cn, num edge types: 1
# Building blocks:
#     Node 0, Type 0, BuildingBlock: GALJAG_clean_sbu_0, # of connection points: 4
#     Node 1, Type 0, BuildingBlock: GALJAG_clean_sbu_0, # of connection points: 4
#     Node 2, Type 0, BuildingBlock: GALJAG_clean_sbu_0, # of connection points: 4
#     Node 3, Type 0, BuildingBlock: GALJAG_clean_sbu_0, # of connection points: 4
#     Node 4, Type 0, BuildingBlock: GALJAG_clean_sbu_0, # of connection points: 4
#     Node 5, Type 0, BuildingBlock: GALJAG_clean_sbu_0, # of connection points: 4
#     Node 6, Type 0, BuildingBlock: GALJAG_clean_sbu_0, # of connection points: 4
#     Node 7, Type 0, BuildingBlock: GALJAG_clean_sbu_0, # of connection points: 4
#     Node 8, Type 0, BuildingBlock: GALJAG_clean_sbu_0, # of connection points: 4
#     Node 9, Type 0, BuildingBlock: GALJAG_clean_sbu_0, # of connection points: 4
#     Node 10, Type 0, BuildingBlock: GALJAG_clean_sbu_0, # of connection points: 4
#     Node 11, Type 0, BuildingBlock: GALJAG_clean_sbu_0, # of connection points: 4
#     Node 12, Type 1, BuildingBlock: GIZVER_clean_linker_0, # of connection points: 4
#     Node 13, Type 1, BuildingBlock: GIZVER_clean_linker_0, # of connection points: 4
#     Node 14, Type 1, BuildingBlock: GIZVER_clean_linker_0, # of connection points: 4
#     Node 15, Type 1, BuildingBlock: GIZVER_clean_linker_0, # of connection points: 4
#     Node 16, Type 1, BuildingBlock: GIZVER_clean_linker_0, # of connection points: 4
#     Node 17, Type 1, BuildingBlock: GIZVER_clean_linker_0, # of connection points: 4
#     Node 18, Type 1, BuildingBlock: GIZVER_clean_linker_0, # of connection points: 4
#     Node 19, Type 1, BuildingBlock: GIZVER_clean_linker_0, # of connection points: 4
#     Node 20, Type 1, BuildingBlock: GIZVER_clean_linker_0, # of connection points: 4
#     Node 21, Type 1, BuildingBlock: GIZVER_clean_linker_0, # of connection points: 4
#     Node 22, Type 1, BuildingBlock: GIZVER_clean_linker_0, # of connection points: 4
#     Node 23, Type 1, BuildingBlock: GIZVER_clean_linker_0, # of connection points: 4
#     Edge 24, Type (0, 1), BuildingBlock: AJUNOK_clean_linker_0, # of connection points: 2
#     Edge 25, Type (0, 1), BuildingBlock: AJUNOK_clean_linker_0, # of connection points: 2
#     Edge 26, Type (0, 1), BuildingBlock: AJUNOK_clean_linker_0, # of connection points: 2
#     Edge 27, Type (0, 1), BuildingBlock: AJUNOK_clean_linker_0, # of connection points: 2
#     Edge 28, Type (0, 1), BuildingBlock: AJUNOK_clean_linker_0, # of connection points: 2
#     Edge 29, Type (0, 1), BuildingBlock: AJUNOK_clean_linker_0, # of connection points: 2
#     Edge 30, Type (0, 1), BuildingBlock: AJUNOK_clean_linker_0, # of connection points: 2
#     Edge 31, Type (0, 1), BuildingBlock: AJUNOK_clean_linker_0, # of connection points: 2
#     Edge 32, Type (0, 1), BuildingBlock: AJUNOK_clean_linker_0, # of connection points: 2
#     Edge 33, Type (0, 1), BuildingBlock: AJUNOK_clean_linker_0, # of connection points: 2
#     Edge 34, Type (0, 1), BuildingBlock: AJUNOK_clean_linker_0, # of connection points: 2
#     Edge 35, Type (0, 1), BuildingBlock: AJUNOK_clean_linker_0, # of connection points: 2
#     Edge 36, Type (0, 1), BuildingBlock: AJUNOK_clean_linker_0, # of connection points: 2
#     Edge 37, Type (0, 1), BuildingBlock: AJUNOK_clean_linker_0, # of connection points: 2
#     Edge 38, Type (0, 1), BuildingBlock: AJUNOK_clean_linker_0, # of connection points: 2
#     Edge 39, Type (0, 1), BuildingBlock: AJUNOK_clean_linker_0, # of connection points: 2
#     Edge 40, Type (0, 1), BuildingBlock: AJUNOK_clean_linker_0, # of connection points: 2
#     Edge 41, Type (0, 1), BuildingBlock: AJUNOK_clean_linker_0, # of connection points: 2
#     Edge 42, Type (0, 1), BuildingBlock: AJUNOK_clean_linker_0, # of connection points: 2
#     Edge 43, Type (0, 1), BuildingBlock: AJUNOK_clean_linker_0, # of connection points: 2
#     Edge 44, Type (0, 1), BuildingBlock: AJUNOK_clean_linker_0, # of connection points: 2
#     Edge 45, Type (0, 1), BuildingBlock: AJUNOK_clean_linker_0, # of connection points: 2
#     Edge 46, Type (0, 1), BuildingBlock: AJUNOK_clean_linker_0, # of connection points: 2
#     Edge 47, Type (0, 1), BuildingBlock: AJUNOK_clean_linker_0, # of connection points: 2
#     Edge 48, Type (0, 1), BuildingBlock: AJUNOK_clean_linker_0, # of connection points: 2
#     Edge 49, Type (0, 1), BuildingBlock: AJUNOK_clean_linker_0, # of connection points: 2
#     Edge 50, Type (0, 1), BuildingBlock: AJUNOK_clean_linker_0, # of connection points: 2
#     Edge 51, Type (0, 1), BuildingBlock: AJUNOK_clean_linker_0, # of connection points: 2
#     Edge 52, Type (0, 1), BuildingBlock: AJUNOK_clean_linker_0, # of connection points: 2
#     Edge 53, Type (0, 1), BuildingBlock: AJUNOK_clean_linker_0, # of connection points: 2
#     Edge 54, Type (0, 1), BuildingBlock: AJUNOK_clean_linker_0, # of connection points: 2
#     Edge 55, Type (0, 1), BuildingBlock: AJUNOK_clean_linker_0, # of connection points: 2
#     Edge 56, Type (0, 1), BuildingBlock: AJUNOK_clean_linker_0, # of connection points: 2
#     Edge 57, Type (0, 1), BuildingBlock: AJUNOK_clean_linker_0, # of connection points: 2
#     Edge 58, Type (0, 1), BuildingBlock: AJUNOK_clean_linker_0, # of connection points: 2
#     Edge 59, Type (0, 1), BuildingBlock: AJUNOK_clean_linker_0, # of connection points: 2
#     Edge 60, Type (0, 1), BuildingBlock: AJUNOK_clean_linker_0, # of connection points: 2
#     Edge 61, Type (0, 1), BuildingBlock: AJUNOK_clean_linker_0, # of connection points: 2
#     Edge 62, Type (0, 1), BuildingBlock: AJUNOK_clean_linker_0, # of connection points: 2
#     Edge 63, Type (0, 1), BuildingBlock: AJUNOK_clean_linker_0, # of connection points: 2
#     Edge 64, Type (0, 1), BuildingBlock: AJUNOK_clean_linker_0, # of connection points: 2
#     Edge 65, Type (0, 1), BuildingBlock: AJUNOK_clean_linker_0, # of connection points: 2
#     Edge 66, Type (0, 1), BuildingBlock: AJUNOK_clean_linker_0, # of connection points: 2
#     Edge 67, Type (0, 1), BuildingBlock: AJUNOK_clean_linker_0, # of connection points: 2
#     Edge 68, Type (0, 1), BuildingBlock: AJUNOK_clean_linker_0, # of connection points: 2
#     Edge 69, Type (0, 1), BuildingBlock: AJUNOK_clean_linker_0, # of connection points: 2
#     Edge 70, Type (0, 1), BuildingBlock: AJUNOK_clean_linker_0, # of connection points: 2
#     Edge 71, Type (0, 1), BuildingBlock: AJUNOK_clean_linker_0, # of connection points: 2
# Relax obj value: 0.069
# Max RMSD: 0.293
# Mean RMSD: 0.243
data_MOF--net-ssc--node1-GALJAG_clean_sbu_0--node2-GIZVER_clean_linker_0--edge1-AJUNOK_clean_linker_0
_symmetry_space_group_name_H-M    P1
_symmetry_Int_Tables_number       1
_symmetry_cell_setting            triclinic
loop_
_symmetry_equiv_pos_as_xyz
'x, y, z'
_cell_length_a     23.543573
_cell_length_b     23.868936
_cell_length_c     23.733277
_cell_angle_alpha  90.603422
_cell_angle_beta   90.193855
_cell_angle_gamma 91.098813
loop_
_atom_site_label
_atom_site_type_symbol
_atom_site_fract_x
_atom_site_fract_y
_atom_site_fract_z
_atom_type_partial_charge
In0 In 0.01911 0.19722 0.12612 0.0
O1 O 0.08499 0.17156 0.19291 0.0
O2 O 0.11029 0.23065 0.13307 0.0
C3 C 0.97362 0.11916 0.0562 0.0
C4 C 0.95681 0.21144 0.21971 0.0
C5 C 0.02661 0.28078 0.0519 0.0
O6 O 0.02499 0.11667 0.07178 0.0
O7 O 0.94507 0.15565 0.08153 0.0
O8 O 0.00891 0.28933 0.10149 0.0
O9 O 0.04048 0.23117 0.04077 0.0
C10 C 0.12123 0.2087 0.17976 0.0
O11 O 0.95185 0.24392 0.17823 0.0
O12 O 0.9893 0.17064 0.21198 0.0
In13 In 0.01658 0.69684 0.40411 0.0
O14 O 0.96443 0.66375 0.47772 0.0
O15 O 0.03031 0.61282 0.44587 0.0
C16 C 0.9306 0.74228 0.34931 0.0
C17 C 0.06384 0.77765 0.46936 0.0
C18 C 0.06883 0.67402 0.30728 0.0
O19 O 0.92693 0.69219 0.36626 0.0
O20 O 0.97432 0.76943 0.36539 0.0
O21 O 0.0959 0.69541 0.34839 0.0
O22 O 0.01874 0.65863 0.31771 0.0
C23 C 0.99293 0.61986 0.48325 0.0
O24 O 0.08264 0.72846 0.46921 0.0
O25 O 0.02403 0.78559 0.43505 0.0
In26 In 0.55081 0.7601 0.61654 0.0
O27 O 0.56082 0.67346 0.56892 0.0
O28 O 0.5437 0.74445 0.52077 0.0
C29 C 0.6252 0.73746 0.69981 0.0
C30 C 0.56967 0.86501 0.58032 0.0
C31 C 0.45545 0.76245 0.6815 0.0
O32 O 0.58234 0.70669 0.68895 0.0
O33 O 0.63411 0.77546 0.66424 0.0
O34 O 0.49924 0.79158 0.69222 0.0
O35 O 0.4583 0.73552 0.63574 0.0
C36 C 0.55135 0.69246 0.52036 0.0
O37 O 0.52014 0.844 0.58467 0.0
O38 O 0.60927 0.83295 0.59437 0.0
In39 In 0.5084 0.26058 0.86204 0.0
O40 O 0.58714 0.28769 0.81162 0.0
O41 O 0.5402 0.21334 0.78854 0.0
C42 C 0.50953 0.33952 0.9406 0.0
C43 C 0.44087 0.2914 0.77931 0.0
C44 C 0.50286 0.17782 0.93761 0.0
O45 O 0.55494 0.31551 0.92638 0.0
O46 O 0.46557 0.32621 0.9126 0.0
O47 O 0.459 0.20333 0.92213 0.0
O48 O 0.54756 0.19036 0.91079 0.0
C49 C 0.57731 0.24956 0.77501 0.0
O50 O 0.43584 0.24239 0.79931 0.0
O51 O 0.47272 0.32482 0.80692 0.0
In52 In 0.08496 0.96524 0.24912 0.0
O53 O 0.14449 0.90656 0.29557 0.0
O54 O 0.12489 0.88733 0.21023 0.0
C55 C 0.00382 0.95074 0.32949 0.0
C56 C 0.17035 0.04429 0.25284 0.0
C57 C 0.01126 0.986 0.1641 0.0
O58 O 0.00089 0.92722 0.28188 0.0
O59 O 0.04905 0.9789 0.3378 0.0
O60 O 0.02346 0.02223 0.20175 0.0
O61 O 0.0405 0.94231 0.16665 0.0
C62 C 0.15393 0.8759 0.2532 0.0
O63 O 0.16588 0.00806 0.21391 0.0
O64 O 0.12865 0.04431 0.28617 0.0
In65 In 0.22831 0.88733 0.53516 0.0
O66 O 0.19481 0.83762 0.45945 0.0
O67 O 0.2731 0.88274 0.45267 0.0
C68 C 0.15394 0.97135 0.54689 0.0
C69 C 0.22352 0.78847 0.59083 0.0
C70 C 0.32442 0.94509 0.55564 0.0
O71 O 0.17907 0.96307 0.5009 0.0
O72 O 0.16141 0.93385 0.58311 0.0
O73 O 0.27899 0.95481 0.5815 0.0
O74 O 0.32271 0.90129 0.52541 0.0
C75 C 0.23944 0.8467 0.43125 0.0
O76 O 0.25323 0.82947 0.60896 0.0
O77 O 0.19387 0.79919 0.54837 0.0
In78 In 0.35157 0.02495 0.75525 0.0
O79 O 0.27874 0.98729 0.7006 0.0
O80 O 0.31439 0.93793 0.76496 0.0
C81 C 0.43968 0.05802 0.68877 0.0
C82 C 0.27128 0.09614 0.79259 0.0
C83 C 0.42866 0.98984 0.82718 0.0
O84 O 0.40471 0.01971 0.67378 0.0
O85 O 0.42543 0.08438 0.7327 0.0
O86 O 0.39895 0.03201 0.83888 0.0
O87 O 0.4152 0.96312 0.78293 0.0
C88 C 0.27606 0.94221 0.72816 0.0
O89 O 0.28662 0.05456 0.82088 0.0
O90 O 0.2993 0.10401 0.74774 0.0
In91 In 0.28999 0.11179 0.0289 0.0
O92 O 0.23933 0.18361 0.06785 0.0
O93 O 0.30898 0.1535 0.1146 0.0
C94 C 0.19399 0.04802 0.01434 0.0
C95 C 0.32931 0.18756 0.95403 0.0
C96 C 0.364 0.02568 0.0275 0.0
O97 O 0.22442 0.04502 0.05813 0.0
O98 O 0.20979 0.08599 0.98095 0.0
O99 O 0.33666 0.04066 0.98471 0.0
O100 O 0.3575 0.05689 0.07009 0.0
C101 C 0.27116 0.19016 0.1104 0.0
O102 O 0.35205 0.18042 0.00138 0.0
O103 O 0.28937 0.15329 0.9426 0.0
In104 In 0.74959 0.32222 0.97239 0.0
O105 O 0.80157 0.25088 0.00649 0.0
O106 O 0.74144 0.28856 0.06104 0.0
C107 C 0.842 0.38863 0.97391 0.0
C108 C 0.71625 0.24575 0.8942 0.0
C109 C 0.67431 0.40605 0.97068 0.0
O110 O 0.8083 0.38544 0.01494 0.0
O111 O 0.83086 0.35559 0.93325 0.0
O112 O 0.70996 0.39855 0.932 0.0
O113 O 0.67344 0.36836 0.00781 0.0
C114 C 0.77846 0.2514 0.05415 0.0
O115 O 0.68993 0.25171 0.94011 0.0
O116 O 0.75639 0.28067 0.88699 0.0
In117 In 0.88555 0.47948 0.20927 0.0
O118 O 0.81372 0.43201 0.1636 0.0
O119 O 0.83639 0.40462 0.24556 0.0
C120 C 0.97677 0.47507 0.13985 0.0
C121 C 0.81309 0.56466 0.20082 0.0
C122 C 0.95122 0.48678 0.30083 0.0
O123 O 0.9389 0.43675 0.1386 0.0
O124 O 0.96608 0.51567 0.17184 0.0
O125 O 0.93075 0.52945 0.27804 0.0
O126 O 0.93334 0.44029 0.28095 0.0
C127 C 0.80224 0.40023 0.20444 0.0
O128 O 0.81686 0.53567 0.24475 0.0
O129 O 0.84827 0.55278 0.16274 0.0
In130 In 0.7261 0.59981 0.504 0.0
O131 O 0.69725 0.66564 0.56914 0.0
O132 O 0.78144 0.63645 0.57292 0.0
C133 C 0.64355 0.51918 0.49219 0.0
C134 C 0.72266 0.68773 0.43493 0.0
C135 C 0.81326 0.52988 0.48899 0.0
O136 O 0.67351 0.5231 0.53631 0.0
O137 O 0.65054 0.55995 0.45955 0.0
O138 O 0.78823 0.55064 0.44689 0.0
O139 O 0.79483 0.54551 0.53638 0.0
C140 C 0.74659 0.67212 0.5896 0.0
O141 O 0.768 0.66134 0.44318 0.0
O142 O 0.67879 0.6665 0.45706 0.0
In143 In 0.60105 0.54238 0.71478 0.0
O144 O 0.65105 0.46534 0.73626 0.0
O145 O 0.64108 0.4844 0.64954 0.0
C146 C 0.54486 0.50202 0.80278 0.0
C147 C 0.69527 0.60693 0.72943 0.0
C148 C 0.50483 0.58555 0.66604 0.0
O149 O 0.5438 0.47758 0.75521 0.0
O150 O 0.5779 0.54433 0.80624 0.0
O151 O 0.52562 0.60338 0.71193 0.0
O152 O 0.53536 0.54933 0.64226 0.0
C153 C 0.66454 0.45417 0.68612 0.0
O154 O 0.67985 0.58931 0.68135 0.0
O155 O 0.65933 0.59865 0.7677 0.0
H156 H 0.0613 0.28237 0.76527 0.0
H157 H 0.04042 0.22568 0.59534 0.0
H158 H 0.0637 0.1068 0.72684 0.0
H159 H 0.0214 0.34629 0.70101 0.0
H160 H 0.06118 0.33403 0.63857 0.0
H161 H 0.91712 0.33217 0.70071 0.0
H162 H 0.83597 0.3104 0.53844 0.0
H163 H 0.01418 0.33373 0.55033 0.0
C164 C 0.05271 0.24772 0.73666 0.0
C165 C 0.06605 0.19307 0.75304 0.0
C166 C 0.03654 0.25868 0.68066 0.0
C167 C 0.04189 0.21567 0.63972 0.0
C168 C 0.05473 0.16114 0.65672 0.0
C169 C 0.05524 0.14945 0.71445 0.0
C170 C 0.02452 0.31807 0.66356 0.0
C171 C 0.97055 0.32089 0.62923 0.0
C172 C 0.91712 0.32616 0.65573 0.0
C173 C 0.86669 0.32791 0.62278 0.0
C174 C 0.873 0.31528 0.56509 0.0
C175 C 0.92348 0.3327 0.53945 0.0
C176 C 0.97355 0.32577 0.57032 0.0
H177 H 0.06224 0.75141 0.78509 0.0
H178 H 0.0556 0.8043 0.95798 0.0
H179 H 0.08341 0.9249 0.82898 0.0
H180 H 0.08669 0.69226 0.86832 0.0
H181 H 0.06014 0.70971 0.93597 0.0
H182 H 0.95707 0.71583 0.8112 0.0
H183 H 0.88867 0.55171 0.84667 0.0
H184 H 0.02675 0.61644 0.94589 0.0
C185 C 0.05716 0.78517 0.81545 0.0
C186 C 0.07423 0.83988 0.80045 0.0
C187 C 0.04653 0.77194 0.87234 0.0
C188 C 0.05412 0.81494 0.91373 0.0
C189 C 0.06868 0.87003 0.89787 0.0
C190 C 0.06973 0.88292 0.84055 0.0
C191 C 0.04978 0.711 0.89019 0.0
C192 C 0.99934 0.67129 0.87895 0.0
C193 C 0.95836 0.67766 0.83532 0.0
C194 C 0.91858 0.63358 0.82353 0.0
C195 C 0.92058 0.58458 0.85411 0.0
C196 C 0.9581 0.57901 0.89842 0.0
C197 C 0.99749 0.62176 0.91111 0.0
H198 H 0.48888 0.6047 0.03825 0.0
H199 H 0.56046 0.70109 0.17526 0.0
H200 H 0.66802 0.63266 0.0471 0.0
H201 H 0.42898 0.63366 0.10945 0.0
H202 H 0.46316 0.6482 0.17579 0.0
H203 H 0.47245 0.7543 0.05962 0.0
H204 H 0.34284 0.85628 0.13146 0.0
H205 H 0.37667 0.69719 0.20459 0.0
C206 C 0.52477 0.62765 0.0562 0.0
C207 C 0.57958 0.61692 0.03584 0.0
C208 C 0.51696 0.66156 0.10454 0.0
C209 C 0.56541 0.68179 0.13408 0.0
C210 C 0.62026 0.66991 0.11406 0.0
C211 C 0.62595 0.64398 0.0613 0.0
C212 C 0.45861 0.66316 0.13177 0.0
C213 C 0.43017 0.71967 0.1334 0.0
C214 C 0.44053 0.76049 0.09172 0.0
C215 C 0.40871 0.80951 0.09153 0.0
C216 C 0.36712 0.818 0.13214 0.0
C217 C 0.35573 0.77858 0.17333 0.0
C218 C 0.38665 0.7288 0.17364 0.0
H219 H 0.5851 0.2153 0.24466 0.0
H220 H 0.54845 0.25552 0.41674 0.0
H221 H 0.56939 0.38626 0.29546 0.0
H222 H 0.55042 0.14191 0.30014 0.0
H223 H 0.57586 0.15394 0.36979 0.0
H224 H 0.44307 0.15088 0.27966 0.0
H225 H 0.3375 0.10291 0.41916 0.0
H226 H 0.51502 0.13405 0.44518 0.0
C227 C 0.57255 0.24635 0.27562 0.0
C228 C 0.58496 0.30321 0.26565 0.0
C229 C 0.55165 0.22917 0.32864 0.0
C230 C 0.55224 0.26924 0.37352 0.0
C231 C 0.56334 0.32637 0.3617 0.0
C232 C 0.56496 0.34206 0.30484 0.0
C233 C 0.54289 0.16692 0.33914 0.0
C234 C 0.48426 0.15155 0.3612 0.0
C235 C 0.4369 0.14522 0.32438 0.0
C236 C 0.38245 0.1305 0.34565 0.0
C237 C 0.37764 0.11898 0.40298 0.0
C238 C 0.42525 0.11788 0.43792 0.0
C239 C 0.4781 0.1361 0.41788 0.0
H240 H 0.51953 0.04782 0.19469 0.0
H241 H 0.69825 0.04038 0.23612 0.0
H242 H 0.63791 0.16323 0.12121 0.0
H243 H 0.54934 0.98643 0.26988 0.0
H244 H 0.59531 0.95239 0.22252 0.0
H245 H 0.59311 0.03328 0.35879 0.0
H246 H 0.71157 0.92316 0.43598 0.0
H247 H 0.66972 0.90182 0.26207 0.0
C248 C 0.56225 0.06513 0.19238 0.0
C249 C 0.5743 0.10682 0.15285 0.0
C250 C 0.60658 0.04088 0.22369 0.0
C251 C 0.66285 0.06107 0.21649 0.0
C252 C 0.67346 0.10644 0.18088 0.0
C253 C 0.6286 0.13082 0.15187 0.0
C254 C 0.59389 0.98685 0.25433 0.0
C255 C 0.63332 0.97439 0.30287 0.0
C256 C 0.62572 0.00199 0.35491 0.0
C257 C 0.65241 0.98227 0.40374 0.0
C258 C 0.693 0.94041 0.39823 0.0
C259 C 0.69706 0.90908 0.34851 0.0
C260 C 0.66861 0.92729 0.30013 0.0
H261 H 0.31922 0.3315 0.52464 0.0
H262 H 0.24818 0.49542 0.54916 0.0
H263 H 0.41045 0.4573 0.61956 0.0
H264 H 0.22164 0.34242 0.51077 0.0
H265 H 0.18829 0.40607 0.52885 0.0
H266 H 0.22804 0.31723 0.41329 0.0
H267 H 0.1843 0.4396 0.29003 0.0
H268 H 0.18785 0.48475 0.46368 0.0
C269 C 0.3233 0.37429 0.54013 0.0
C270 C 0.36779 0.38885 0.57684 0.0
C271 C 0.27928 0.41186 0.53055 0.0
C272 C 0.28306 0.46689 0.55373 0.0
C273 C 0.33131 0.48341 0.58532 0.0
C274 C 0.37445 0.44483 0.59349 0.0
C275 C 0.22479 0.38866 0.5054 0.0
C276 C 0.21919 0.40266 0.444 0.0
C277 C 0.22071 0.36027 0.40167 0.0
C278 C 0.20548 0.37285 0.3457 0.0
C279 C 0.19564 0.42917 0.33279 0.0
C280 C 0.1784 0.46511 0.37606 0.0
C281 C 0.19888 0.45571 0.43024 0.0
H282 H 0.99285 0.98371 0.65373 0.0
H283 H 0.81552 0.93756 0.67696 0.0
H284 H 0.92554 0.83023 0.58377 0.0
H285 H 0.93357 0.04898 0.69813 0.0
H286 H 0.86561 0.04855 0.66551 0.0
H287 H 0.94516 0.01616 0.79661 0.0
H288 H 0.79771 0.03875 0.89795 0.0
H289 H 0.78177 0.03386 0.71811 0.0
C290 C 0.95722 0.95486 0.64733 0.0
C291 C 0.96552 0.90414 0.61909 0.0
C292 C 0.90258 0.96815 0.66694 0.0
C293 C 0.85698 0.92928 0.65949 0.0
C294 C 0.86591 0.87858 0.63111 0.0
C295 C 0.9191 0.86872 0.60757 0.0
C296 C 0.89317 0.02423 0.69408 0.0
C297 C 0.86554 0.01907 0.75107 0.0
C298 C 0.89927 0.01669 0.80009 0.0
C299 C 0.87418 0.02294 0.85327 0.0
C300 C 0.81516 0.02891 0.85687 0.0
C301 C 0.78341 0.04075 0.80845 0.0
C302 C 0.80682 0.02753 0.75587 0.0
H303 H 0.21923 0.71956 0.07638 0.0
H304 H 0.22197 0.55832 -0.0047 0.0
H305 H 0.06791 0.61909 0.06679 0.0
H306 H 0.29827 0.70162 0.01901 0.0
H307 H 0.31157 0.63484 0.04728 0.0
H308 H 0.29608 0.7164 0.91619 0.0
H309 H 0.37376 0.58866 0.81582 0.0
H310 H 0.33314 0.55616 0.98793 0.0
C311 C 0.1962 0.68402 0.05812 0.0
C312 C 0.1411 0.67202 0.07666 0.0
C313 C 0.22484 0.64535 0.02404 0.0
C314 C 0.19792 0.59286 0.01207 0.0
C315 C 0.14073 0.58375 0.02733 0.0
C316 C 0.11079 0.62767 0.05188 0.0
C317 C 0.28734 0.65626 0.0137 0.0
C318 C 0.30695 0.63649 0.95673 0.0
C319 C 0.30971 0.67362 0.91079 0.0
C320 C 0.33378 0.65629 0.8594 0.0
C321 C 0.35187 0.60114 0.85398 0.0
C322 C 0.35317 0.5656 0.90037 0.0
C323 C 0.32962 0.58277 0.95136 0.0
H324 H 0.72756 0.78709 0.15748 0.0
H325 H 0.73994 0.92722 0.0458 0.0
H326 H 0.8402 0.92505 0.19532 0.0
H327 H 0.66449 0.7883 0.08286 0.0
H328 H 0.63351 0.85335 0.09691 0.0
H329 H 0.70729 0.7673 0.98709 0.0
H330 H 0.61383 0.84704 0.85722 0.0
H331 H 0.6168 0.91971 0.02298 0.0
C332 C 0.7454 0.82774 0.14842 0.0
C333 C 0.78989 0.85059 0.18141 0.0
C334 C 0.72366 0.85694 0.10193 0.0
C335 C 0.75123 0.90728 0.0849 0.0
C336 C 0.7949 0.93074 0.11878 0.0
C337 C 0.80767 0.90537 0.16972 0.0
C338 C 0.66976 0.83391 0.07458 0.0
C339 C 0.66371 0.84321 0.01217 0.0
C340 C 0.68266 0.80248 0.9731 0.0
C341 C 0.66609 0.80602 0.91648 0.0
C342 C 0.6309 0.84874 0.89978 0.0
C343 C 0.61556 0.89169 0.93623 0.0
C344 C 0.63161 0.8887 0.9931 0.0
H345 H 0.4432 0.52106 0.14736 0.0
H346 H 0.28734 0.46423 0.22644 0.0
H347 H 0.39171 0.34855 0.13689 0.0
H348 H 0.37409 0.58707 0.17368 0.0
H349 H 0.30497 0.56298 0.19211 0.0
H350 H 0.44579 0.54786 0.27491 0.0
H351 H 0.38819 0.66129 0.40311 0.0
H352 H 0.28761 0.63455 0.25543 0.0
C353 C 0.41489 0.48728 0.16041 0.0
C354 C 0.42433 0.43274 0.14072 0.0
C355 C 0.36619 0.49899 0.19274 0.0
C356 C 0.32643 0.45536 0.20439 0.0
C357 C 0.33641 0.4009 0.18451 0.0
C358 C 0.38583 0.39028 0.15437 0.0
C359 C 0.35081 0.55921 0.20294 0.0
C360 C 0.36119 0.58166 0.26213 0.0
C361 C 0.41279 0.57369 0.29248 0.0
C362 C 0.42214 0.60221 0.34444 0.0
C363 C 0.38036 0.63782 0.3645 0.0
C364 C 0.33459 0.65258 0.33086 0.0
C365 C 0.32322 0.62249 0.28147 0.0
H366 H 0.74637 0.24945 0.5517 0.0
H367 H 0.72145 0.08411 0.61486 0.0
H368 H 0.58902 0.16576 0.52536 0.0
H369 H 0.82666 0.19631 0.59105 0.0
H370 H 0.81774 0.1238 0.60885 0.0
H371 H 0.83627 0.22492 0.4896 0.0
H372 H 0.88565 0.09823 0.37236 0.0
H373 H 0.83046 0.05035 0.53764 0.0
C374 C 0.71962 0.2122 0.55489 0.0
C375 C 0.66009 0.21683 0.55456 0.0
C376 C 0.74333 0.16136 0.57246 0.0
C377 C 0.70594 0.11764 0.58921 0.0
C378 C 0.64796 0.11998 0.57436 0.0
C379 C 0.63159 0.16578 0.54225 0.0
C380 C 0.80674 0.15583 0.57713 0.0
C381 C 0.83006 0.13953 0.52024 0.0
C382 C 0.84179 0.18112 0.4796 0.0
C383 C 0.86129 0.16569 0.42612 0.0
C384 C 0.86813 0.10926 0.4132 0.0
C385 C 0.85676 0.06724 0.45251 0.0
C386 C 0.83816 0.08247 0.50651 0.0
H387 H 0.05768 0.45827 0.71006 0.0
H388 H 0.22644 0.5299 0.72033 0.0
H389 H 0.08617 0.63286 0.67941 0.0
H390 H 0.13583 0.39856 0.7166 0.0
H391 H 0.20545 0.42747 0.70611 0.0
H392 H 0.09584 0.43558 0.82414 0.0
H393 H 0.20881 0.36093 0.94243 0.0
H394 H 0.26205 0.38506 0.77251 0.0
C395 C 0.08529 0.49513 0.71238 0.0
C396 C 0.06538 0.54613 0.69189 0.0
C397 C 0.14342 0.48918 0.72495 0.0
C398 C 0.18094 0.53547 0.71784 0.0
C399 C 0.15955 0.58745 0.70183 0.0
C400 C 0.10109 0.59344 0.6955 0.0
C401 C 0.16657 0.43111 0.73238 0.0
C402 C 0.18009 0.41807 0.79302 0.0
C403 C 0.13776 0.42089 0.83482 0.0
C404 C 0.14829 0.40042 0.88912 0.0
C405 C 0.20213 0.38021 0.90185 0.0
C406 C 0.24427 0.37561 0.86087 0.0
C407 C 0.23227 0.39335 0.80599 0.0
C408 C 0.0834 0.36499 0.02875 0.0
C409 C 0.04137 0.32569 0.01274 0.0
C410 C 0.11369 0.39503 0.988 0.0
C411 C 0.10239 0.38746 0.92999 0.0
H412 H 0.09692 0.36844 0.07239 0.0
H413 H 0.14981 0.42054 0.00169 0.0
S414 S 0.99225 0.29223 0.86785 0.0
N415 N 0.98697 0.28295 0.93645 0.0
N416 N 0.04243 0.34071 0.85964 0.0
C417 C 0.05667 0.35193 0.91417 0.0
C418 C 0.02668 0.3205 0.95567 0.0
C419 C 0.91432 0.80964 0.2736 0.0
C420 C 0.89302 0.76585 0.30637 0.0
C421 C 0.88179 0.83314 0.23152 0.0
C422 C 0.82389 0.81793 0.22324 0.0
H423 H 0.95783 0.82463 0.27877 0.0
H424 H 0.90336 0.86343 0.20524 0.0
S425 S 0.75365 0.695 0.28959 0.0
N426 N 0.81696 0.69795 0.31915 0.0
N427 N 0.75033 0.74888 0.24697 0.0
C428 C 0.80313 0.77157 0.25398 0.0
C429 C 0.83863 0.74432 0.29411 0.0
C430 C 0.53526 0.68439 0.41617 0.0
C431 C 0.53897 0.65742 0.46852 0.0
C432 C 0.507 0.65924 0.36984 0.0
C433 C 0.47762 0.60754 0.37489 0.0
H434 H 0.54958 0.72754 0.41235 0.0
H435 H 0.50058 0.68441 0.33268 0.0
S436 S 0.48038 0.51582 0.49949 0.0
N437 N 0.52044 0.5705 0.51838 0.0
N438 N 0.45989 0.5273 0.43412 0.0
C439 C 0.4862 0.57742 0.42466 0.0
C440 C 0.51842 0.60151 0.47086 0.0
C441 C 0.6493 0.27609 0.7016 0.0
C442 C 0.59594 0.25384 0.71581 0.0
C443 C 0.6688 0.27299 0.64576 0.0
C444 C 0.63388 0.25094 0.60165 0.0
H445 H 0.67743 0.29215 0.73423 0.0
H446 H 0.71309 0.28285 0.63874 0.0
S447 S 0.48106 0.21295 0.61495 0.0
N448 N 0.50437 0.2198 0.6803 0.0
N449 N 0.53524 0.23132 0.57501 0.0
C450 C 0.57582 0.24292 0.61457 0.0
C451 C 0.55847 0.23861 0.67171 0.0
C452 C 0.97241 0.61288 0.58605 0.0
C453 C 0.99303 0.58791 0.53639 0.0
C454 C 0.98809 0.59292 0.6392 0.0
C455 C 0.02402 0.54689 0.64451 0.0
H456 H 0.94919 0.6515 0.58399 0.0
H457 H 0.97852 0.61774 0.67616 0.0
S458 S 0.07755 0.45914 0.52795 0.0
N459 N 0.04309 0.50936 0.49604 0.0
N460 N 0.07025 0.47068 0.59584 0.0
C461 C 0.03764 0.51698 0.59529 0.0
C462 C 0.02325 0.53811 0.54121 0.0
C463 C 0.62358 0.71272 0.80184 0.0
C464 C 0.65149 0.73957 0.75673 0.0
C465 C 0.63798 0.72534 0.85807 0.0
C466 C 0.68004 0.76608 0.87121 0.0
H467 H 0.5872 0.68522 0.79398 0.0
H468 H 0.6106 0.70929 0.89102 0.0
S469 S 0.77103 0.84262 0.7699 0.0
N470 N 0.72757 0.80424 0.72986 0.0
N471 N 0.75477 0.82696 0.8355 0.0
C472 C 0.71272 0.78797 0.82683 0.0
C473 C 0.69757 0.776 0.76958 0.0
C474 C 0.47298 0.42083 0.99244 0.0
C475 C 0.504 0.3715 0.99286 0.0
C476 C 0.45489 0.44605 0.04252 0.0
C477 C 0.46415 0.42021 0.09459 0.0
H478 H 0.45904 0.4372 0.95282 0.0
H479 H 0.42783 0.48216 0.03978 0.0
S480 S 0.54055 0.28771 0.11744 0.0
N481 N 0.54458 0.29781 0.04887 0.0
N482 N 0.50517 0.34125 0.14316 0.0
C483 C 0.49626 0.37097 0.09554 0.0
C484 C 0.51691 0.34703 0.04456 0.0
C485 C 0.87185 0.22084 0.28163 0.0
C486 C 0.93101 0.22153 0.27529 0.0
C487 C 0.84709 0.21254 0.33481 0.0
C488 C 0.88115 0.20576 0.3831 0.0
H489 H 0.84495 0.22077 0.24482 0.0
H490 H 0.80167 0.20468 0.33702 0.0
S491 S 0.03812 0.21639 0.3896 0.0
N492 N 0.02277 0.22343 0.32214 0.0
N493 N 0.97644 0.21021 0.42221 0.0
C494 C 0.94002 0.21459 0.37801 0.0
C495 C 0.96507 0.22142 0.3239 0.0
C496 C 0.9642 0.96433 0.42549 0.0
C497 C 0.95449 0.95537 0.36779 0.0
C498 C 0.92335 0.98942 0.46007 0.0
C499 C 0.87326 0.00966 0.43635 0.0
H500 H 0.00606 0.95805 0.44201 0.0
H501 H 0.93531 0.00168 0.50262 0.0
S502 S 0.82038 0.98351 0.29208 0.0
N503 N 0.88488 0.95728 0.29201 0.0
N504 N 0.80894 0.00547 0.35695 0.0
C505 C 0.85838 0.99089 0.38198 0.0
C506 C 0.8996 0.96482 0.34691 0.0
C507 C 0.22954 0.7274 0.67561 0.0
C508 C 0.22129 0.7326 0.61743 0.0
C509 C 0.21432 0.67787 0.70379 0.0
C510 C 0.19498 0.63046 0.67365 0.0
H511 H 0.2445 0.763 0.69955 0.0
H512 H 0.21474 0.6775 0.74939 0.0
S513 S 0.1778 0.61808 0.51862 0.0
N514 N 0.19915 0.68366 0.52942 0.0
N515 N 0.17553 0.5891 0.58148 0.0
C516 C 0.19333 0.63298 0.61447 0.0
C517 C 0.20563 0.68426 0.58637 0.0
C518 C 0.47897 0.9677 0.91563 0.0
C519 C 0.4804 0.97663 0.85773 0.0
C520 C 0.52539 0.94443 0.94328 0.0
C521 C 0.57572 0.93333 0.91399 0.0
H522 H 0.4402 0.97466 0.93789 0.0
H523 H 0.52081 0.93174 0.98648 0.0
S524 S 0.60471 0.96312 0.76363 0.0
N525 N 0.53701 0.97768 0.77241 0.0
N526 N 0.62831 0.94581 0.8265 0.0
C527 C 0.58022 0.95095 0.85765 0.0
C528 C 0.53139 0.96929 0.82866 0.0
C529 C 0.24249 0.29023 0.12595 0.0
C530 C 0.27245 0.24305 0.14449 0.0
C531 C 0.25485 0.34424 0.14787 0.0
C532 C 0.2967 0.3525 0.18973 0.0
H533 H 0.2134 0.28644 0.09061 0.0
H534 H 0.23705 0.38006 0.12694 0.0
S535 S 0.37922 0.2444 0.25942 0.0
N536 N 0.34156 0.20908 0.21168 0.0
N537 N 0.35943 0.30978 0.25588 0.0
C538 C 0.31962 0.30516 0.21451 0.0
C539 C 0.30999 0.2508 0.1903 0.0
C540 C 0.91481 0.02484 0.14554 0.0
C541 C 0.9577 0.98718 0.13057 0.0
C542 C 0.85794 0.01424 0.12977 0.0
C543 C 0.84227 0.96644 0.09727 0.0
H544 H 0.92372 0.0585 0.17544 0.0
H545 H 0.82572 0.0373 0.15191 0.0
S546 S 0.93977 0.86352 0.03543 0.0
N547 N 0.98094 0.90467 0.07502 0.0
N548 N 0.87588 0.89044 0.03893 0.0
C549 C 0.88629 0.93596 0.0726 0.0
C550 C 0.94338 0.94374 0.09218 0.0
C551 C 0.22544 0.75875 0.37471 0.0
C552 C 0.26047 0.80475 0.3908 0.0
C553 C 0.24871 0.71001 0.35147 0.0
C554 C 0.30744 0.70665 0.3427 0.0
H555 H 0.18058 0.75872 0.38446 0.0
H556 H 0.22145 0.67361 0.34439 0.0
S557 S 0.41694 0.81725 0.37097 0.0
N558 N 0.35695 0.84406 0.39335 0.0
N559 N 0.39901 0.75551 0.34398 0.0
C560 C 0.34192 0.75438 0.35308 0.0
C561 C 0.31892 0.80272 0.3787 0.0
C562 C 0.50391 0.05356 0.60424 0.0
C563 C 0.49604 0.06707 0.6612 0.0
C564 C 0.55478 0.06682 0.5761 0.0
C565 C 0.60211 0.08942 0.60538 0.0
H566 H 0.46975 0.03429 0.58107 0.0
H567 H 0.55639 0.0614 0.53082 0.0
S568 S 0.61022 0.11413 0.75945 0.0
N569 N 0.54333 0.09533 0.74824 0.0
N570 N 0.64129 0.11362 0.69731 0.0
C571 C 0.59727 0.09604 0.66409 0.0
C572 C 0.54401 0.08636 0.6917 0.0
C573 C 0.32115 0.24191 0.86595 0.0
C574 C 0.33533 0.24076 0.92329 0.0
C575 C 0.30027 0.2908 0.84165 0.0
C576 C 0.29326 0.3395 0.8741 0.0
H577 H 0.32086 0.20338 0.84162 0.0
H578 H 0.28225 0.28853 0.79988 0.0
S579 S 0.34091 0.36254 0.02099 0.0
N580 N 0.35358 0.29586 0.00834 0.0
N581 N 0.31669 0.38813 0.96151 0.0
C582 C 0.31823 0.34174 0.92796 0.0
C583 C 0.33848 0.29189 0.95313 0.0
C584 C 0.36005 0.92367 0.00453 0.0
C585 C 0.38841 0.96907 0.0314 0.0
C586 C 0.37485 0.86823 0.01498 0.0
C587 C 0.41855 0.85637 0.05306 0.0
H588 H 0.32324 0.93059 0.97899 0.0
H589 H 0.34723 0.83471 -0.00084 0.0
S590 S 0.51732 0.95831 0.11965 0.0
N591 N 0.47002 -0.00221 0.08817 0.0
N592 N 0.49848 0.89275 0.10647 0.0
C593 C 0.45227 0.90088 0.07352 0.0
C594 C 0.43652 0.9575 0.06397 0.0
C595 C 0.92796 0.43035 0.92974 0.0
C596 C 0.8833 0.43507 0.96843 0.0
C597 C 0.95963 0.47748 0.91324 0.0
C598 C 0.94693 0.53091 0.93453 0.0
H599 H 0.9355 0.39081 0.90892 0.0
H600 H 0.99033 0.47299 0.87962 0.0
S601 S 0.83243 0.5663 0.03422 0.0
N602 N 0.82808 0.49745 0.02765 0.0
N603 N 0.88702 0.58629 -0.00457 0.0
C604 C 0.90436 0.53591 0.97536 0.0
C605 C 0.87245 0.48786 0.99255 0.0
C606 C 0.77163 0.64545 0.15056 0.0
C607 C 0.76571 0.60282 0.19055 0.0
C608 C 0.72445 0.67516 0.13216 0.0
C609 C 0.66944 0.66288 0.15258 0.0
H610 H 0.81243 0.65387 0.13113 0.0
H611 H 0.73005 0.70352 0.09717 0.0
S612 S 0.63387 0.56374 0.26733 0.0
N613 N 0.70259 0.55604 0.25686 0.0
N614 N 0.61393 0.61184 0.2223 0.0
C615 C 0.66425 0.62469 0.19718 0.0
C616 C 0.71223 0.59403 0.21557 0.0
C617 C 0.58519 0.4272 0.48867 0.0
C618 C 0.62703 0.46413 0.46689 0.0
C619 C 0.56519 0.38024 0.45641 0.0
C620 C 0.58931 0.36747 0.40347 0.0
H621 H 0.56579 0.43627 0.52894 0.0
H622 H 0.52957 0.35552 0.47178 0.0
S623 S 0.71034 0.44348 0.33645 0.0
N624 N 0.69612 0.48065 0.3932 0.0
N625 N 0.66724 0.3887 0.33935 0.0
C626 C 0.6372 0.39976 0.38681 0.0
C627 C 0.65387 0.44901 0.41666 0.0
C628 C 0.20412 0.79171 0.21704 0.0
C629 C 0.20539 0.84177 0.24851 0.0
C630 C 0.25457 0.76602 0.1998 0.0
C631 C 0.30783 0.79087 0.21157 0.0
H632 H 0.16376 0.7748 0.20252 0.0
H633 H 0.25212 0.73005 0.1719 0.0
S634 S 0.33408 0.92324 0.29135 0.0
N635 N 0.2644 0.91448 0.29243 0.0
N636 N 0.35875 0.86871 0.25642 0.0
C637 C 0.30962 0.83999 0.24481 0.0
C638 C 0.2585 0.86496 0.26402 0.0
C639 C 0.15801 0.05058 0.61302 0.0
C640 C 0.13329 0.02672 0.56457 0.0
C641 C 0.13427 0.09659 0.63954 0.0
C642 C 0.08392 0.12043 0.61923 0.0
H643 H 0.19564 0.0328 0.63137 0.0
H644 H 0.15445 0.1121 0.67793 0.0
S645 S 0.01949 0.08996 0.47961 0.0
N646 N 0.06871 0.04191 0.48632 0.0
N647 N 0.02091 0.12766 0.5384 0.0
C648 C 0.06389 0.10258 0.56603 0.0
C649 C 0.08939 0.05577 0.53807 0.0
C650 C 0.74233 0.32105 0.24158 0.0
C651 C 0.747 0.36966 0.20909 0.0
C652 C 0.68932 0.29545 0.2523 0.0
C653 C 0.63809 0.31999 0.23509 0.0
H654 H 0.77999 0.30314 0.2598 0.0
H655 H 0.68835 0.25939 0.27962 0.0
S656 S 0.62737 0.45544 0.16078 0.0
N657 N 0.69618 0.44423 0.16368 0.0
N658 N 0.59652 0.40081 0.19064 0.0
C659 C 0.64235 0.37004 0.20422 0.0
C660 C 0.69663 0.39394 0.18999 0.0
C661 C 0.76734 0.66033 0.78712 0.0
C662 C 0.75499 0.62188 0.74347 0.0
C663 C 0.82275 0.67026 0.80684 0.0
C664 C 0.86766 0.63776 0.78732 0.0
H665 H 0.73345 0.67944 0.80961 0.0
H666 H 0.82927 0.69897 0.84206 0.0
S667 S 0.85618 0.52101 0.68276 0.0
N668 N 0.79174 0.54704 0.68476 0.0
N669 N 0.89477 0.55936 0.72743 0.0
C670 C 0.85556 0.59629 0.74583 0.0
C671 C 0.79962 0.5894 0.72289 0.0
C672 C 0.54637 0.92869 0.50272 0.0
C673 C 0.58142 0.91671 0.54869 0.0
C674 C 0.56644 0.96171 0.45848 0.0
C675 C 0.62246 0.98349 0.45872 0.0
H676 H 0.50659 0.90597 0.49683 0.0
H677 H 0.54129 0.96186 0.42021 0.0
S678 S 0.72517 0.97594 0.57659 0.0
N679 N 0.66979 0.93838 0.59781 0.0
N680 N 0.70748 0.00145 0.51468 0.0
C681 C 0.65381 0.98013 0.50915 0.0
C682 C 0.63365 0.94565 0.55389 0.0
C683 C 0.4625 0.34018 0.69031 0.0
C684 C 0.42517 0.30539 0.72108 0.0
C685 C 0.44837 0.35856 0.63658 0.0
C686 C 0.39431 0.34661 0.61358 0.0
H687 H 0.50277 0.35423 0.7083 0.0
H688 H 0.47728 0.38752 0.61586 0.0
S689 S 0.28823 0.24564 0.67068 0.0
N690 N 0.33971 0.24746 0.71816 0.0
N691 N 0.30837 0.28877 0.62074 0.0
C692 C 0.35976 0.30643 0.64091 0.0
C693 C 0.376 0.28485 0.69428 0.0
C694 C 0.96276 0.03821 0.98749 0.0
C695 C 0.95245 0.09406 0.00278 0.0
C696 C 0.9397 0.01437 0.93757 0.0
C697 C 0.90769 0.04712 0.90074 0.0
H698 H 0.98698 0.01268 0.01541 0.0
H699 H 0.94545 0.97028 0.92862 0.0
S700 S 0.87769 0.19816 0.91592 0.0
N701 N 0.9129 0.18271 0.97383 0.0
N702 N 0.87331 0.13952 0.87891 0.0
C703 C 0.90132 0.10416 0.91346 0.0
C704 C 0.92265 0.12741 0.96473 0.0
C705 C 0.1424 0.6579 0.2342 0.0
C706 C 0.08887 0.67749 0.2491 0.0
C707 C 0.16037 0.65978 0.17815 0.0
C708 C 0.12645 0.68356 0.13581 0.0
H709 H 0.16937 0.63888 0.26532 0.0
H710 H 0.20033 0.64058 0.16748 0.0
S711 S 0.98256 0.74037 0.15405 0.0
N712 N 0.00146 0.72045 0.21777 0.0
N713 N 0.03671 0.72598 0.11261 0.0
C714 C 0.0732 0.70405 0.15059 0.0
C715 C 0.05418 0.7007 0.20729 0.0
C716 C 0.48015 0.16723 0.04011 0.0
C717 C 0.5061 0.14629 0.99082 0.0
C718 C 0.49734 0.14975 0.09404 0.0
C719 C 0.54115 0.11116 0.09989 0.0
H720 H 0.45111 0.20169 0.03749 0.0
H721 H 0.48007 0.17014 0.13102 0.0
S722 S 0.61955 0.04183 0.98467 0.0
N723 N 0.57433 0.08218 0.95183 0.0
N724 N 0.60674 0.04966 0.05244 0.0
C725 C 0.56376 0.08679 0.05086 0.0
C726 C 0.54635 0.10438 -0.0035 0.0
C727 C 0.19311 0.23809 0.2553 0.0
C728 C 0.14314 0.24688 0.22458 0.0
C729 C 0.2132 0.27802 0.29559 0.0
C730 C 0.18399 0.32828 0.3054 0.0
H731 H 0.21778 0.20157 0.24622 0.0
H732 H 0.25261 0.27042 0.3176 0.0
S733 S 0.04393 0.36415 0.24254 0.0
N734 N 0.06114 0.3049 0.2119 0.0
N735 N 0.09705 0.37888 0.28573 0.0
C736 C 0.13183 0.33499 0.27676 0.0
C737 C 0.11196 0.29471 0.23673 0.0
C738 C 0.06307 0.87434 0.50511 0.0
C739 C 0.07252 0.81762 0.51605 0.0
C740 C 0.03724 0.90845 0.54555 0.0
C741 C 0.02089 0.88664 0.59745 0.0
H742 H 0.06893 0.89003 0.46286 0.0
H743 H 0.02307 0.94945 0.53395 0.0
S744 S 0.05513 0.74711 0.65303 0.0
N745 N 0.07785 0.74562 0.58733 0.0
N746 N 0.02987 0.81042 0.66344 0.0
C747 C 0.04098 0.83386 0.61268 0.0
C748 C 0.06679 0.79888 0.57157 0.0
C749 C 0.37167 0.70633 0.71366 0.0
C750 C 0.41199 0.74922 0.72484 0.0
C751 C 0.34268 0.67954 0.75747 0.0
C752 C 0.35121 0.6957 0.81411 0.0
H753 H 0.36575 0.69006 0.67127 0.0
H754 H 0.31652 0.64299 0.74728 0.0
S755 S 0.44376 0.81347 0.86498 0.0
N756 N 0.45288 0.81242 0.796 0.0
N757 N 0.39752 0.76243 0.87832 0.0
C758 C 0.3868 0.74259 0.82539 0.0
C759 C 0.41706 0.76952 0.78068 0.0
C760 C 0.50041 0.52787 0.89298 0.0
C761 C 0.49936 0.49388 0.84443 0.0
C762 C 0.45035 0.5419 0.92043 0.0
C763 C 0.39755 0.52346 0.89899 0.0
H764 H 0.53868 0.55034 0.90487 0.0
H765 H 0.45246 0.57458 0.95232 0.0
S766 S 0.3726 0.42585 0.7797 0.0
N767 N 0.44206 0.43463 0.78213 0.0
N768 N 0.34734 0.46262 0.83293 0.0
C769 C 0.39647 0.4828 0.85608 0.0
C770 C 0.44771 0.46782 0.82858 0.0
C771 C 0.77607 0.21579 0.15093 0.0
C772 C 0.78307 0.20474 0.09352 0.0
C773 C 0.75059 0.17595 0.18617 0.0
C774 C 0.7308 0.12461 0.16385 0.0
H775 H 0.785 0.25747 0.16661 0.0
H776 H 0.7386 0.18843 0.22836 0.0
S777 S 0.76047 0.0683 0.02113 0.0
N778 N 0.78544 0.13336 0.02 0.0
N779 N 0.73518 0.05878 0.08529 0.0
C780 C 0.74849 0.10923 0.10939 0.0
C781 C 0.77527 0.14955 0.07401 0.0
C782 C 0.046 0.53034 0.31926 0.0
C783 C 0.00394 0.49045 0.33415 0.0
C784 C 0.10231 0.52609 0.33805 0.0
C785 C 0.11825 0.48118 0.37169 0.0
H786 H 0.03682 0.56117 0.28771 0.0
H787 H 0.1343 0.55501 0.3222 0.0
S788 S 0.02544 0.36232 0.4167 0.0
N789 N 0.98267 0.40398 0.3824 0.0
N790 N 0.08814 0.39413 0.41623 0.0
C791 C 0.07603 0.44188 0.38816 0.0
C792 C 0.01896 0.4468 0.36952 0.0
C793 C 0.74472 0.77666 0.59631 0.0
C794 C 0.76786 0.72573 0.61422 0.0
C795 C 0.7741 0.82798 0.60515 0.0
C796 C 0.82605 0.83003 0.63438 0.0
H797 H 0.70669 0.77634 0.5705 0.0
H798 H 0.75844 0.86499 0.58533 0.0
S799 S 0.90675 0.71067 0.68586 0.0
N800 N 0.8495 0.68187 0.65656 0.0
N801 N 0.89799 0.7785 0.68309 0.0
C802 C 0.84702 0.78024 0.65614 0.0
C803 C 0.81987 0.72805 0.64335 0.0
C804 C 0.40641 0.55677 0.69157 0.0
C805 C 0.44249 0.58663 0.65494 0.0
C806 C 0.35356 0.53524 0.67254 0.0
C807 C 0.33886 0.53828 0.61493 0.0
H808 H 0.42177 0.54438 0.73254 0.0
H809 H 0.33111 0.50565 0.69899 0.0
S810 S 0.39475 0.64681 0.51992 0.0
N811 N 0.44252 0.64395 0.57092 0.0
N812 N 0.34531 0.59933 0.5347 0.0
C813 C 0.36567 0.58079 0.58453 0.0
C814 C 0.41858 0.6043 0.60389 0.0
C815 C 0.69242 0.14387 0.88386 0.0
C816 C 0.71176 0.19408 0.85938 0.0
C817 C 0.70768 0.0917 0.86116 0.0
C818 C 0.74325 0.08823 0.81358 0.0
H819 H 0.67095 0.14481 0.92411 0.0
H820 H 0.6973 0.05424 0.88459 0.0
S821 S 0.79101 0.20818 0.72548 0.0
N822 N 0.75766 0.23707 0.77902 0.0
N823 N 0.78567 0.14016 0.73565 0.0
C824 C 0.75479 0.13821 0.78397 0.0
C825 C 0.73955 0.19099 0.80732 0.0
C826 C 0.02288 0.48389 0.04672 0.0
C827 C 0.02834 0.47641 0.10475 0.0
C828 C 0.06624 0.51048 0.0156 0.0
C829 C 0.11737 0.52781 0.04165 0.0
H830 H 0.98281 0.47421 0.02718 0.0
H831 H 0.05787 0.52277 0.97274 0.0
S832 S 0.15846 0.50277 0.18967 0.0
N833 N 0.09209 0.47943 0.18524 0.0
N834 N 0.1759 0.52317 0.12569 0.0
C835 C 0.12713 0.51024 0.09719 0.0
C836 C 0.08177 0.48667 0.12949 0.0
C837 C 0.6728 0.75643 0.3751 0.0
C838 C 0.72106 0.74226 0.40642 0.0
C839 C 0.66883 0.80878 0.3495 0.0
C840 C 0.71245 0.84957 0.35554 0.0
H841 H 0.63821 0.72642 0.36972 0.0
H842 H 0.62947 0.81878 0.32841 0.0
S843 S 0.84758 0.83336 0.43407 0.0
N844 N 0.8138 0.77262 0.44166 0.0
N845 N 0.806 0.87151 0.39424 0.0
C846 C 0.76186 0.83508 0.38519 0.0
C847 C 0.76605 0.78155 0.41094 0.0
C848 C 0.89528 0.48422 0.53166 0.0
C849 C 0.85754 0.48681 0.48607 0.0
C850 C 0.92504 0.43572 0.54297 0.0
C851 C 0.91661 0.3867 0.51026 0.0
H852 H 0.89792 0.51828 0.56203 0.0
H853 H 0.94857 0.43456 0.58219 0.0
S854 S 0.83061 0.37411 0.38018 0.0
N855 N 0.82175 0.43952 0.40167 0.0
N856 N 0.87346 0.34564 0.42647 0.0
C857 C 0.88322 0.39017 0.4615 0.0
C858 C 0.85477 0.44089 0.44845 0.0
C859 C 0.4078 0.97994 0.50288 0.0
C860 C 0.36591 0.99031 0.54352 0.0
C861 C 0.43458 0.02394 0.47449 0.0
C862 C 0.42046 0.07979 0.48567 0.0
H863 H 0.4155 0.93763 0.48844 0.0
H864 H 0.46079 0.01399 0.43856 0.0
S865 S 0.31801 0.12997 0.5914 0.0
N866 N 0.31528 0.06118 0.59696 0.0
N867 N 0.36597 0.14388 0.54269 0.0
C868 C 0.38258 0.0912 0.52949 0.0
C869 C 0.3551 0.04637 0.55861 0.0
C870 C 0.21671 0.18353 0.78575 0.0
C871 C 0.21978 0.12887 0.8057 0.0
C872 C 0.16523 0.21119 0.78092 0.0
C873 C 0.11364 0.18333 0.79312 0.0
H874 H 0.25416 0.2031 0.76932 0.0
H875 H 0.16562 0.2508 0.75901 0.0
S876 S 0.09866 0.04542 0.86183 0.0
N877 N 0.16758 0.05231 0.84985 0.0
N878 N 0.06969 0.10371 0.8398 0.0
C879 C 0.1167 0.1323 0.82222 0.0
C880 C 0.16984 0.10448 0.82776 0.0
C881 C 0.10647 0.98422 0.00729 0.0
C882 C 0.16253 -0.00157 0.99189 0.0
C883 C 0.07629 0.94044 0.97871 0.0
C884 C 0.10198 0.90856 0.93612 0.0
H885 H 0.08524 0.00869 0.0393 0.0
H886 H 0.03203 0.9332 0.98729 0.0
S887 S 0.24902 0.92796 0.88354 0.0
N888 N 0.24204 0.97764 0.93152 0.0
N889 N 0.18837 0.89233 0.88352 0.0
C890 C 0.15925 0.92051 0.9237 0.0
C891 C 0.18869 0.96614 0.95027 0.0
C892 C 0.72661 0.40768 0.61604 0.0
C893 C 0.71163 0.41599 0.67235 0.0
C894 C 0.7758 0.37933 0.60149 0.0
C895 C 0.81198 0.35485 0.64218 0.0
H896 H 0.70147 0.42526 0.58263 0.0
H897 H 0.78567 0.37965 0.5571 0.0
S898 S 0.79251 0.3698 0.7974 0.0
N899 N 0.73789 0.40214 0.77013 0.0
N900 N 0.82809 0.34475 0.7433 0.0
C901 C 0.79671 0.36291 0.69938 0.0
C902 C 0.74705 0.39385 0.71411 0.0
C903 C 0.6026 0.46303 0.02057 0.0
C904 C 0.6425 0.45878 0.97728 0.0
C905 C 0.57706 0.51371 0.03422 0.0
C906 C 0.59227 0.5634 0.0066 0.0
H907 H 0.59371 0.42743 0.04686 0.0
H908 H 0.54941 0.51499 0.07054 0.0
S909 S 0.69927 0.57723 0.89312 0.0
N910 N 0.69731 0.50955 0.90687 0.0
N911 N 0.65229 0.60618 0.93532 0.0
C912 C 0.6326 0.56028 0.96307 0.0
C913 C 0.65699 0.50785 0.94762 0.0
C914 C 0.17246 0.92307 0.70955 0.0
C915 C 0.22543 0.90396 0.72807 0.0
C916 C 0.1214 0.89585 0.72473 0.0
C917 C 0.12148 0.84864 0.75979 0.0
H918 H 0.16971 0.96286 0.68887 0.0
H919 H 0.0817 0.91593 0.71513 0.0
S920 S 0.24828 0.78133 0.81905 0.0
N921 N 0.27447 0.83313 0.78113 0.0
N922 N 0.17911 0.78197 0.80934 0.0
C923 C 0.1743 0.82584 0.77366 0.0
C924 C 0.22612 0.85392 0.7587 0.0
C925 C 0.22571 0.11438 0.31093 0.0
C926 C 0.2244 0.07582 0.26571 0.0
C927 C 0.27715 0.13706 0.33167 0.0
C928 C 0.33009 0.12003 0.31046 0.0
H929 H 0.18676 0.12619 0.33154 0.0
H930 H 0.27548 0.16551 0.36756 0.0
S931 S 0.35057 0.02263 0.19003 0.0
N932 N 0.28088 0.02548 0.19672 0.0
N933 N 0.37767 0.06475 0.23915 0.0
C934 C 0.32952 0.08385 0.26327 0.0
C935 C 0.27668 0.06231 0.24053 0.0
loop_
_geom_bond_atom_site_label_1
_geom_bond_atom_site_label_2
_geom_bond_distance
_geom_bond_site_symmetry_2
_ccdc_geom_bond_type
In0 O1 2.294 . S
In0 O2 2.326 . S
In0 O6 2.266 . S
In0 O7 2.326 1_455 S
In0 O8 2.266 1_455 S
In0 O9 2.326 . S
In0 O11 2.294 1_455 S
In0 O12 2.326 1_455 S
O1 In0 2.294 . S
O1 C10 1.240 . S
O2 In0 2.326 . S
O2 C10 1.252 . S
C3 O6 1.252 1_655 S
C3 O7 1.260 . S
C4 O11 1.240 . S
C4 O12 1.252 . S
C5 O8 1.252 1_455 S
C5 O9 1.260 . S
O6 In0 2.266 . S
O6 C3 1.252 1_455 S
O7 In0 2.326 1_655 S
O7 C3 1.260 . S
O8 In0 2.266 1_655 S
O8 C5 1.252 1_655 S
O9 In0 2.326 . S
O9 C5 1.260 . S
C10 O1 1.240 . S
C10 O2 1.252 . S
O11 In0 2.294 1_655 S
O11 C4 1.240 . S
O12 In0 2.326 1_655 S
O12 C4 1.252 . S
In13 O14 2.294 1_455 S
In13 O15 2.326 . S
In13 O19 2.266 1_455 S
In13 O20 2.326 1_455 S
In13 O21 2.266 . S
In13 O22 2.326 . S
In13 O24 2.294 . S
In13 O25 2.326 1_455 S
O14 In13 2.294 1_655 S
O14 C23 1.240 1_655 S
O15 In13 2.326 . S
O15 C23 1.252 . S
C16 O19 1.252 . S
C16 O20 1.260 . S
C17 O24 1.240 1_655 S
C17 O25 1.252 . S
C18 O21 1.252 . S
C18 O22 1.260 . S
O19 In13 2.266 1_655 S
O19 C16 1.252 . S
O20 In13 2.326 1_655 S
O20 C16 1.260 . S
O21 In13 2.266 . S
O21 C18 1.252 . S
O22 In13 2.326 . S
O22 C18 1.260 . S
C23 O14 1.240 1_455 S
C23 O15 1.252 . S
O24 In13 2.294 . S
O24 C17 1.240 1_455 S
O25 In13 2.326 1_655 S
O25 C17 1.252 . S
In26 O27 2.294 . S
In26 O28 2.326 . S
In26 O32 2.266 . S
In26 O33 2.326 . S
In26 O34 2.266 . S
In26 O35 2.326 . S
In26 O37 2.294 . S
In26 O38 2.326 . S
O27 In26 2.294 . S
O27 C36 1.240 . S
O28 In26 2.326 . S
O28 C36 1.252 . S
C29 O32 1.252 . S
C29 O33 1.260 . S
C30 O37 1.240 . S
C30 O38 1.252 . S
C31 O34 1.252 . S
C31 O35 1.260 . S
O32 In26 2.266 . S
O32 C29 1.252 . S
O33 In26 2.326 . S
O33 C29 1.260 . S
O34 In26 2.266 . S
O34 C31 1.252 . S
O35 In26 2.326 . S
O35 C31 1.260 . S
C36 O27 1.240 . S
C36 O28 1.252 . S
O37 In26 2.294 . S
O37 C30 1.240 . S
O38 In26 2.326 . S
O38 C30 1.252 . S
In39 O40 2.294 . S
In39 O41 2.326 . S
In39 O45 2.266 . S
In39 O46 2.326 . S
In39 O47 2.266 . S
In39 O48 2.326 . S
In39 O50 2.294 . S
In39 O51 2.326 . S
O40 In39 2.294 . S
O40 C49 1.240 . S
O41 In39 2.326 . S
O41 C49 1.252 . S
C42 O45 1.252 . S
C42 O46 1.260 . S
C43 O50 1.240 . S
C43 O51 1.252 . S
C44 O47 1.252 . S
C44 O48 1.260 . S
O45 In39 2.266 . S
O45 C42 1.252 . S
O46 In39 2.326 . S
O46 C42 1.260 . S
O47 In39 2.266 . S
O47 C44 1.252 . S
O48 In39 2.326 . S
O48 C44 1.260 . S
C49 O40 1.240 . S
C49 O41 1.252 . S
O50 In39 2.294 . S
O50 C43 1.240 . S
O51 In39 2.326 . S
O51 C43 1.252 . S
In52 O53 2.294 1_545 S
In52 O54 2.326 1_545 S
In52 O58 2.266 1_545 S
In52 O59 2.326 . S
In52 O60 2.266 . S
In52 O61 2.326 1_545 S
In52 O63 2.294 . S
In52 O64 2.326 . S
O53 In52 2.294 1_565 S
O53 C62 1.240 . S
O54 In52 2.326 1_565 S
O54 C62 1.252 . S
C55 O58 1.252 1_545 S
C55 O59 1.260 . S
C56 O63 1.240 . S
C56 O64 1.252 . S
C57 O60 1.252 1_565 S
C57 O61 1.260 . S
O58 In52 2.266 1_565 S
O58 C55 1.252 1_565 S
O59 In52 2.326 . S
O59 C55 1.260 . S
O60 In52 2.266 . S
O60 C57 1.252 1_545 S
O61 In52 2.326 1_565 S
O61 C57 1.260 . S
C62 O53 1.240 . S
C62 O54 1.252 . S
O63 In52 2.294 . S
O63 C56 1.240 . S
O64 In52 2.326 . S
O64 C56 1.252 . S
In65 O66 2.294 . S
In65 O67 2.326 . S
In65 O71 2.266 . S
In65 O72 2.326 . S
In65 O73 2.266 . S
In65 O74 2.326 . S
In65 O76 2.294 . S
In65 O77 2.326 . S
O66 In65 2.294 . S
O66 C75 1.240 . S
O67 In65 2.326 . S
O67 C75 1.252 . S
C68 O71 1.252 . S
C68 O72 1.260 . S
C69 O76 1.240 . S
C69 O77 1.252 . S
C70 O73 1.252 . S
C70 O74 1.260 . S
O71 In65 2.266 . S
O71 C68 1.252 . S
O72 In65 2.326 . S
O72 C68 1.260 . S
O73 In65 2.266 . S
O73 C70 1.252 . S
O74 In65 2.326 . S
O74 C70 1.260 . S
C75 O66 1.240 . S
C75 O67 1.252 . S
O76 In65 2.294 . S
O76 C69 1.240 . S
O77 In65 2.326 . S
O77 C69 1.252 . S
In78 O79 2.294 1_545 S
In78 O80 2.326 1_545 S
In78 O84 2.266 1_545 S
In78 O85 2.326 . S
In78 O86 2.266 . S
In78 O87 2.326 1_545 S
In78 O89 2.294 . S
In78 O90 2.326 . S
O79 In78 2.294 1_565 S
O79 C88 1.240 . S
O80 In78 2.326 1_565 S
O80 C88 1.252 . S
C81 O84 1.252 1_545 S
C81 O85 1.260 . S
C82 O89 1.240 . S
C82 O90 1.252 . S
C83 O86 1.252 1_565 S
C83 O87 1.260 . S
O84 In78 2.266 1_565 S
O84 C81 1.252 1_565 S
O85 In78 2.326 . S
O85 C81 1.260 . S
O86 In78 2.266 . S
O86 C83 1.252 1_545 S
O87 In78 2.326 1_565 S
O87 C83 1.260 . S
C88 O79 1.240 . S
C88 O80 1.252 . S
O89 In78 2.294 . S
O89 C82 1.240 . S
O90 In78 2.326 . S
O90 C82 1.252 . S
In91 O92 2.294 . S
In91 O93 2.326 . S
In91 O97 2.266 . S
In91 O98 2.326 1_554 S
In91 O99 2.266 1_554 S
In91 O100 2.326 . S
In91 O102 2.294 1_554 S
In91 O103 2.326 1_554 S
O92 In91 2.294 . S
O92 C101 1.240 . S
O93 In91 2.326 . S
O93 C101 1.252 . S
C94 O97 1.252 1_556 S
C94 O98 1.260 . S
C95 O102 1.240 . S
C95 O103 1.252 . S
C96 O99 1.252 1_554 S
C96 O100 1.260 . S
O97 In91 2.266 . S
O97 C94 1.252 1_554 S
O98 In91 2.326 1_556 S
O98 C94 1.260 . S
O99 In91 2.266 1_556 S
O99 C96 1.252 1_556 S
O100 In91 2.326 . S
O100 C96 1.260 . S
C101 O92 1.240 . S
C101 O93 1.252 . S
O102 In91 2.294 1_556 S
O102 C95 1.240 . S
O103 In91 2.326 1_556 S
O103 C95 1.252 . S
In104 O105 2.294 . S
In104 O106 2.326 . S
In104 O110 2.266 . S
In104 O111 2.326 1_554 S
In104 O112 2.266 1_554 S
In104 O113 2.326 . S
In104 O115 2.294 1_554 S
In104 O116 2.326 1_554 S
O105 In104 2.294 . S
O105 C114 1.240 . S
O106 In104 2.326 . S
O106 C114 1.252 . S
C107 O110 1.252 1_556 S
C107 O111 1.260 . S
C108 O115 1.240 . S
C108 O116 1.252 . S
C109 O112 1.252 1_554 S
C109 O113 1.260 . S
O110 In104 2.266 . S
O110 C107 1.252 1_554 S
O111 In104 2.326 1_556 S
O111 C107 1.260 . S
O112 In104 2.266 1_556 S
O112 C109 1.252 1_556 S
O113 In104 2.326 . S
O113 C109 1.260 . S
C114 O105 1.240 . S
C114 O106 1.252 . S
O115 In104 2.294 1_556 S
O115 C108 1.240 . S
O116 In104 2.326 1_556 S
O116 C108 1.252 . S
In117 O118 2.294 . S
In117 O119 2.326 . S
In117 O123 2.266 . S
In117 O124 2.326 . S
In117 O125 2.266 . S
In117 O126 2.326 . S
In117 O128 2.294 . S
In117 O129 2.326 . S
O118 In117 2.294 . S
O118 C127 1.240 . S
O119 In117 2.326 . S
O119 C127 1.252 . S
C120 O123 1.252 . S
C120 O124 1.260 . S
C121 O128 1.240 . S
C121 O129 1.252 . S
C122 O125 1.252 . S
C122 O126 1.260 . S
O123 In117 2.266 . S
O123 C120 1.252 . S
O124 In117 2.326 . S
O124 C120 1.260 . S
O125 In117 2.266 . S
O125 C122 1.252 . S
O126 In117 2.326 . S
O126 C122 1.260 . S
C127 O118 1.240 . S
C127 O119 1.252 . S
O128 In117 2.294 . S
O128 C121 1.240 . S
O129 In117 2.326 . S
O129 C121 1.252 . S
In130 O131 2.294 . S
In130 O132 2.326 . S
In130 O136 2.266 . S
In130 O137 2.326 . S
In130 O138 2.266 . S
In130 O139 2.326 . S
In130 O141 2.294 . S
In130 O142 2.326 . S
O131 In130 2.294 . S
O131 C140 1.240 . S
O132 In130 2.326 . S
O132 C140 1.252 . S
C133 O136 1.252 . S
C133 O137 1.260 . S
C134 O141 1.240 . S
C134 O142 1.252 . S
C135 O138 1.252 . S
C135 O139 1.260 . S
O136 In130 2.266 . S
O136 C133 1.252 . S
O137 In130 2.326 . S
O137 C133 1.260 . S
O138 In130 2.266 . S
O138 C135 1.252 . S
O139 In130 2.326 . S
O139 C135 1.260 . S
C140 O131 1.240 . S
C140 O132 1.252 . S
O141 In130 2.294 . S
O141 C134 1.240 . S
O142 In130 2.326 . S
O142 C134 1.252 . S
In143 O144 2.294 . S
In143 O145 2.326 . S
In143 O149 2.266 . S
In143 O150 2.326 . S
In143 O151 2.266 . S
In143 O152 2.326 . S
In143 O154 2.294 . S
In143 O155 2.326 . S
O144 In143 2.294 . S
O144 C153 1.240 . S
O145 In143 2.326 . S
O145 C153 1.252 . S
C146 O149 1.252 . S
C146 O150 1.260 . S
C147 O154 1.240 . S
C147 O155 1.252 . S
C148 O151 1.252 . S
C148 O152 1.260 . S
O149 In143 2.266 . S
O149 C146 1.252 . S
O150 In143 2.326 . S
O150 C146 1.260 . S
O151 In143 2.266 . S
O151 C148 1.252 . S
O152 In143 2.326 . S
O152 C148 1.260 . S
C153 O144 1.240 . S
C153 O145 1.252 . S
O154 In143 2.294 . S
O154 C147 1.240 . S
O155 In143 2.326 . S
O155 C147 1.252 . S
H156 C164 0.930 . S
H157 C167 0.930 . S
H158 C169 0.930 . S
H159 C170 0.970 . S
H160 C170 0.970 . S
H161 C172 0.930 . S
H162 C174 0.930 . S
H163 C176 0.930 . S
C164 H156 0.930 . S
C164 C165 1.382 . S
C164 C166 1.426 . S
C165 C164 1.382 . S
C165 C169 1.389 . S
C166 C164 1.426 . S
C166 C167 1.375 . S
C166 C170 1.532 . S
C167 H157 0.930 . S
C167 C166 1.375 . S
C167 C168 1.416 . S
C168 C167 1.416 . S
C168 C169 1.371 . S
C169 H158 0.930 . S
C169 C165 1.389 . S
C169 C168 1.371 . S
C170 H159 0.970 . S
C170 H160 0.970 . S
C170 C166 1.532 . S
C170 C171 1.499 . S
C171 C170 1.499 . S
C171 C172 1.370 1_455 S
C171 C176 1.415 1_455 S
C172 H161 0.930 . S
C172 C171 1.370 1_655 S
C172 C173 1.407 . S
C173 C172 1.407 . S
C173 C174 1.365 . S
C174 H162 0.930 . S
C174 C173 1.365 . S
C174 C175 1.393 . S
C175 C174 1.393 . S
C175 C176 1.387 . S
C176 H163 0.930 . S
C176 C171 1.415 1_655 S
C176 C175 1.387 . S
H177 C185 0.930 . S
H178 C188 0.930 . S
H179 C190 0.930 . S
H180 C191 0.970 . S
H181 C191 0.970 . S
H182 C193 0.930 . S
H183 C195 0.930 . S
H184 C197 0.930 1_455 S
C185 H177 0.930 . S
C185 C186 1.382 . S
C185 C187 1.426 . S
C186 C185 1.382 . S
C186 C190 1.389 . S
C187 C185 1.426 . S
C187 C188 1.375 . S
C187 C191 1.532 . S
C188 H178 0.930 . S
C188 C187 1.375 . S
C188 C189 1.416 . S
C189 C188 1.416 . S
C189 C190 1.371 . S
C190 H179 0.930 . S
C190 C186 1.389 . S
C190 C189 1.371 . S
C191 H180 0.970 . S
C191 H181 0.970 . S
C191 C187 1.532 . S
C191 C192 1.499 . S
C192 C191 1.499 . S
C192 C193 1.370 1_455 S
C192 C197 1.415 1_455 S
C193 H182 0.930 . S
C193 C192 1.370 1_655 S
C193 C194 1.407 . S
C194 C193 1.407 . S
C194 C195 1.365 . S
C195 H183 0.930 . S
C195 C194 1.365 . S
C195 C196 1.393 . S
C196 C195 1.393 . S
C196 C197 1.387 . S
C197 H184 0.930 1_655 S
C197 C192 1.415 1_655 S
C197 C196 1.387 . S
H198 C206 0.930 . S
H199 C209 0.930 . S
H200 C211 0.930 . S
H201 C212 0.970 . S
H202 C212 0.970 . S
H203 C214 0.930 . S
H204 C216 0.930 . S
H205 C218 0.930 . S
C206 H198 0.930 . S
C206 C207 1.382 . S
C206 C208 1.426 . S
C207 C206 1.382 . S
C207 C211 1.389 . S
C208 C206 1.426 . S
C208 C209 1.375 . S
C208 C212 1.532 . S
C209 H199 0.930 . S
C209 C208 1.375 . S
C209 C210 1.416 . S
C210 C209 1.416 . S
C210 C211 1.371 . S
C211 H200 0.930 . S
C211 C207 1.389 . S
C211 C210 1.371 . S
C212 H201 0.970 . S
C212 H202 0.970 . S
C212 C208 1.532 . S
C212 C213 1.499 . S
C213 C212 1.499 . S
C213 C214 1.370 . S
C213 C218 1.415 . S
C214 H203 0.930 . S
C214 C213 1.370 . S
C214 C215 1.407 . S
C215 C214 1.407 . S
C215 C216 1.365 . S
C216 H204 0.930 . S
C216 C215 1.365 . S
C216 C217 1.393 . S
C217 C216 1.393 . S
C217 C218 1.387 . S
C218 H205 0.930 . S
C218 C213 1.415 . S
C218 C217 1.387 . S
H219 C227 0.930 . S
H220 C230 0.930 . S
H221 C232 0.930 . S
H222 C233 0.970 . S
H223 C233 0.970 . S
H224 C235 0.930 . S
H225 C237 0.930 . S
H226 C239 0.930 . S
C227 H219 0.930 . S
C227 C228 1.382 . S
C227 C229 1.426 . S
C228 C227 1.382 . S
C228 C232 1.389 . S
C229 C227 1.426 . S
C229 C230 1.375 . S
C229 C233 1.532 . S
C230 H220 0.930 . S
C230 C229 1.375 . S
C230 C231 1.416 . S
C231 C230 1.416 . S
C231 C232 1.371 . S
C232 H221 0.930 . S
C232 C228 1.389 . S
C232 C231 1.371 . S
C233 H222 0.970 . S
C233 H223 0.970 . S
C233 C229 1.532 . S
C233 C234 1.499 . S
C234 C233 1.499 . S
C234 C235 1.370 . S
C234 C239 1.415 . S
C235 H224 0.930 . S
C235 C234 1.370 . S
C235 C236 1.407 . S
C236 C235 1.407 . S
C236 C237 1.365 . S
C237 H225 0.930 . S
C237 C236 1.365 . S
C237 C238 1.393 . S
C238 C237 1.393 . S
C238 C239 1.387 . S
C239 H226 0.930 . S
C239 C234 1.415 . S
C239 C238 1.387 . S
H240 C248 0.930 . S
H241 C251 0.930 . S
H242 C253 0.930 . S
H243 C254 0.970 . S
H244 C254 0.970 . S
H245 C256 0.930 . S
H246 C258 0.930 . S
H247 C260 0.930 . S
C248 H240 0.930 . S
C248 C249 1.382 . S
C248 C250 1.426 1_545 S
C249 C248 1.382 . S
C249 C253 1.389 . S
C250 C248 1.426 1_565 S
C250 C251 1.375 1_565 S
C250 C254 1.532 . S
C251 H241 0.930 . S
C251 C250 1.375 1_545 S
C251 C252 1.416 . S
C252 C251 1.416 . S
C252 C253 1.371 . S
C253 H242 0.930 . S
C253 C249 1.389 . S
C253 C252 1.371 . S
C254 H243 0.970 . S
C254 H244 0.970 . S
C254 C250 1.532 . S
C254 C255 1.499 . S
C255 C254 1.499 . S
C255 C256 1.370 . S
C255 C260 1.415 . S
C256 H245 0.930 . S
C256 C255 1.370 . S
C256 C257 1.407 . S
C257 C256 1.407 . S
C257 C258 1.365 . S
C258 H246 0.930 . S
C258 C257 1.365 . S
C258 C259 1.393 . S
C259 C258 1.393 . S
C259 C260 1.387 . S
C260 H247 0.930 . S
C260 C255 1.415 . S
C260 C259 1.387 . S
H261 C269 0.930 . S
H262 C272 0.930 . S
H263 C274 0.930 . S
H264 C275 0.970 . S
H265 C275 0.970 . S
H266 C277 0.930 . S
H267 C279 0.930 . S
H268 C281 0.930 . S
C269 H261 0.930 . S
C269 C270 1.382 . S
C269 C271 1.426 . S
C270 C269 1.382 . S
C270 C274 1.389 . S
C271 C269 1.426 . S
C271 C272 1.375 . S
C271 C275 1.532 . S
C272 H262 0.930 . S
C272 C271 1.375 . S
C272 C273 1.416 . S
C273 C272 1.416 . S
C273 C274 1.371 . S
C274 H263 0.930 . S
C274 C270 1.389 . S
C274 C273 1.371 . S
C275 H264 0.970 . S
C275 H265 0.970 . S
C275 C271 1.532 . S
C275 C276 1.499 . S
C276 C275 1.499 . S
C276 C277 1.370 . S
C276 C281 1.415 . S
C277 H266 0.930 . S
C277 C276 1.370 . S
C277 C278 1.407 . S
C278 C277 1.407 . S
C278 C279 1.365 . S
C279 H267 0.930 . S
C279 C278 1.365 . S
C279 C280 1.393 . S
C280 C279 1.393 . S
C280 C281 1.387 . S
C281 H268 0.930 . S
C281 C276 1.415 . S
C281 C280 1.387 . S
H282 C290 0.930 . S
H283 C293 0.930 . S
H284 C295 0.930 . S
H285 C296 0.970 . S
H286 C296 0.970 . S
H287 C298 0.930 . S
H288 C300 0.930 . S
H289 C302 0.930 . S
C290 H282 0.930 . S
C290 C291 1.382 . S
C290 C292 1.426 1_565 S
C291 C290 1.382 . S
C291 C295 1.389 . S
C292 C290 1.426 1_545 S
C292 C293 1.375 1_545 S
C292 C296 1.532 . S
C293 H283 0.930 . S
C293 C292 1.375 1_565 S
C293 C294 1.416 . S
C294 C293 1.416 . S
C294 C295 1.371 . S
C295 H284 0.930 . S
C295 C291 1.389 . S
C295 C294 1.371 . S
C296 H285 0.970 . S
C296 H286 0.970 . S
C296 C292 1.532 . S
C296 C297 1.499 . S
C297 C296 1.499 . S
C297 C298 1.370 . S
C297 C302 1.415 . S
C298 H287 0.930 . S
C298 C297 1.370 . S
C298 C299 1.407 . S
C299 C298 1.407 . S
C299 C300 1.365 . S
C300 H288 0.930 . S
C300 C299 1.365 . S
C300 C301 1.393 . S
C301 C300 1.393 . S
C301 C302 1.387 . S
C302 H289 0.930 . S
C302 C297 1.415 . S
C302 C301 1.387 . S
H303 C311 0.930 . S
H304 C314 0.930 . S
H305 C316 0.930 . S
H306 C317 0.970 . S
H307 C317 0.970 . S
H308 C319 0.930 . S
H309 C321 0.930 . S
H310 C323 0.930 . S
C311 H303 0.930 . S
C311 C312 1.382 . S
C311 C313 1.426 . S
C312 C311 1.382 . S
C312 C316 1.389 . S
C313 C311 1.426 . S
C313 C314 1.375 . S
C313 C317 1.532 . S
C314 H304 0.930 . S
C314 C313 1.375 . S
C314 C315 1.416 . S
C315 C314 1.416 . S
C315 C316 1.371 . S
C316 H305 0.930 . S
C316 C312 1.389 . S
C316 C315 1.371 . S
C317 H306 0.970 . S
C317 H307 0.970 . S
C317 C313 1.532 . S
C317 C318 1.499 . S
C318 C317 1.499 . S
C318 C319 1.370 1_554 S
C318 C323 1.415 1_554 S
C319 H308 0.930 . S
C319 C318 1.370 1_556 S
C319 C320 1.407 . S
C320 C319 1.407 . S
C320 C321 1.365 . S
C321 H309 0.930 . S
C321 C320 1.365 . S
C321 C322 1.393 . S
C322 C321 1.393 . S
C322 C323 1.387 . S
C323 H310 0.930 . S
C323 C318 1.415 1_556 S
C323 C322 1.387 . S
H324 C332 0.930 . S
H325 C335 0.930 . S
H326 C337 0.930 . S
H327 C338 0.970 . S
H328 C338 0.970 . S
H329 C340 0.930 . S
H330 C342 0.930 . S
H331 C344 0.930 . S
C332 H324 0.930 . S
C332 C333 1.382 . S
C332 C334 1.426 . S
C333 C332 1.382 . S
C333 C337 1.389 . S
C334 C332 1.426 . S
C334 C335 1.375 . S
C334 C338 1.532 . S
C335 H325 0.930 . S
C335 C334 1.375 . S
C335 C336 1.416 . S
C336 C335 1.416 . S
C336 C337 1.371 . S
C337 H326 0.930 . S
C337 C333 1.389 . S
C337 C336 1.371 . S
C338 H327 0.970 . S
C338 H328 0.970 . S
C338 C334 1.532 . S
C338 C339 1.499 . S
C339 C338 1.499 . S
C339 C340 1.370 1_554 S
C339 C344 1.415 1_554 S
C340 H329 0.930 . S
C340 C339 1.370 1_556 S
C340 C341 1.407 . S
C341 C340 1.407 . S
C341 C342 1.365 . S
C342 H330 0.930 . S
C342 C341 1.365 . S
C342 C343 1.393 . S
C343 C342 1.393 . S
C343 C344 1.387 . S
C344 H331 0.930 . S
C344 C339 1.415 1_556 S
C344 C343 1.387 . S
H345 C353 0.930 . S
H346 C356 0.930 . S
H347 C358 0.930 . S
H348 C359 0.970 . S
H349 C359 0.970 . S
H350 C361 0.930 . S
H351 C363 0.930 . S
H352 C365 0.930 . S
C353 H345 0.930 . S
C353 C354 1.382 . S
C353 C355 1.426 . S
C354 C353 1.382 . S
C354 C358 1.389 . S
C355 C353 1.426 . S
C355 C356 1.375 . S
C355 C359 1.532 . S
C356 H346 0.930 . S
C356 C355 1.375 . S
C356 C357 1.416 . S
C357 C356 1.416 . S
C357 C358 1.371 . S
C358 H347 0.930 . S
C358 C354 1.389 . S
C358 C357 1.371 . S
C359 H348 0.970 . S
C359 H349 0.970 . S
C359 C355 1.532 . S
C359 C360 1.499 . S
C360 C359 1.499 . S
C360 C361 1.370 . S
C360 C365 1.415 . S
C361 H350 0.930 . S
C361 C360 1.370 . S
C361 C362 1.407 . S
C362 C361 1.407 . S
C362 C363 1.365 . S
C363 H351 0.930 . S
C363 C362 1.365 . S
C363 C364 1.393 . S
C364 C363 1.393 . S
C364 C365 1.387 . S
C365 H352 0.930 . S
C365 C360 1.415 . S
C365 C364 1.387 . S
H366 C374 0.930 . S
H367 C377 0.930 . S
H368 C379 0.930 . S
H369 C380 0.970 . S
H370 C380 0.970 . S
H371 C382 0.930 . S
H372 C384 0.930 . S
H373 C386 0.930 . S
C374 H366 0.930 . S
C374 C375 1.382 . S
C374 C376 1.426 . S
C375 C374 1.382 . S
C375 C379 1.389 . S
C376 C374 1.426 . S
C376 C377 1.375 . S
C376 C380 1.532 . S
C377 H367 0.930 . S
C377 C376 1.375 . S
C377 C378 1.416 . S
C378 C377 1.416 . S
C378 C379 1.371 . S
C379 H368 0.930 . S
C379 C375 1.389 . S
C379 C378 1.371 . S
C380 H369 0.970 . S
C380 H370 0.970 . S
C380 C376 1.532 . S
C380 C381 1.499 . S
C381 C380 1.499 . S
C381 C382 1.370 . S
C381 C386 1.415 . S
C382 H371 0.930 . S
C382 C381 1.370 . S
C382 C383 1.407 . S
C383 C382 1.407 . S
C383 C384 1.365 . S
C384 H372 0.930 . S
C384 C383 1.365 . S
C384 C385 1.393 . S
C385 C384 1.393 . S
C385 C386 1.387 . S
C386 H373 0.930 . S
C386 C381 1.415 . S
C386 C385 1.387 . S
H387 C395 0.930 . S
H388 C398 0.930 . S
H389 C400 0.930 . S
H390 C401 0.970 . S
H391 C401 0.970 . S
H392 C403 0.930 . S
H393 C405 0.930 . S
H394 C407 0.930 . S
C395 H387 0.930 . S
C395 C396 1.382 . S
C395 C397 1.426 . S
C396 C395 1.382 . S
C396 C400 1.389 . S
C397 C395 1.426 . S
C397 C398 1.375 . S
C397 C401 1.532 . S
C398 H388 0.930 . S
C398 C397 1.375 . S
C398 C399 1.416 . S
C399 C398 1.416 . S
C399 C400 1.371 . S
C400 H389 0.930 . S
C400 C396 1.389 . S
C400 C399 1.371 . S
C401 H390 0.970 . S
C401 H391 0.970 . S
C401 C397 1.532 . S
C401 C402 1.499 . S
C402 C401 1.499 . S
C402 C403 1.370 . S
C402 C407 1.415 . S
C403 H392 0.930 . S
C403 C402 1.370 . S
C403 C404 1.407 . S
C404 C403 1.407 . S
C404 C405 1.365 . S
C405 H393 0.930 . S
C405 C404 1.365 . S
C405 C406 1.393 . S
C406 C405 1.393 . S
C406 C407 1.387 . S
C407 H394 0.930 . S
C407 C402 1.415 . S
C407 C406 1.387 . S
C408 C409 1.369 . S
C408 C410 1.419 . S
C408 H412 0.930 1_556 S
C409 C408 1.369 . S
C409 C418 1.427 1_455 S
C410 C408 1.419 . S
C410 C411 1.363 . S
C410 H413 0.929 . S
C411 C410 1.363 . S
C411 C417 1.428 . S
H412 C408 0.930 1_554 S
H413 C410 0.929 . S
S414 N415 1.613 . S
S414 N416 1.610 . S
N415 S414 1.613 . S
N415 C418 1.352 . S
N416 S414 1.610 . S
N416 C417 1.351 1_655 S
C417 C411 1.428 . S
C417 N416 1.351 1_455 S
C417 C418 1.433 1_455 S
C418 C409 1.427 1_655 S
C418 N415 1.352 . S
C418 C417 1.433 1_655 S
C419 C420 1.369 . S
C419 C421 1.419 . S
C419 H423 0.930 . S
C420 C419 1.369 . S
C420 C429 1.429 . S
C421 C419 1.419 . S
C421 C422 1.363 . S
C421 H424 0.929 . S
C422 C421 1.363 . S
C422 C428 1.428 . S
H423 C419 0.930 . S
H424 C421 0.929 . S
S425 N426 1.613 . S
S425 N427 1.610 . S
N426 S425 1.613 . S
N426 C429 1.350 . S
N427 S425 1.610 . S
N427 C428 1.351 . S
C428 C422 1.428 . S
C428 N427 1.351 . S
C428 C429 1.434 . S
C429 C420 1.429 . S
C429 N426 1.350 . S
C429 C428 1.434 . S
C430 C431 1.369 . S
C430 C432 1.419 . S
C430 H434 0.930 . S
C431 C430 1.369 . S
C431 C440 1.429 . S
C432 C430 1.419 . S
C432 C433 1.363 . S
C432 H435 0.929 . S
C433 C432 1.363 . S
C433 C439 1.428 . S
H434 C430 0.930 . S
H435 C432 0.929 . S
S436 N437 1.613 . S
S436 N438 1.610 . S
N437 S436 1.613 . S
N437 C440 1.350 . S
N438 S436 1.610 . S
N438 C439 1.351 . S
C439 C433 1.428 . S
C439 N438 1.351 . S
C439 C440 1.434 . S
C440 C431 1.429 . S
C440 N437 1.350 . S
C440 C439 1.434 . S
C441 C442 1.369 . S
C441 C443 1.419 . S
C441 H445 0.930 . S
C442 C441 1.369 . S
C442 C451 1.429 . S
C443 C441 1.419 . S
C443 C444 1.363 . S
C443 H446 0.929 . S
C444 C443 1.363 . S
C444 C450 1.428 . S
H445 C441 0.930 . S
H446 C443 0.929 . S
S447 N448 1.613 . S
S447 N449 1.610 . S
N448 S447 1.613 . S
N448 C451 1.350 . S
N449 S447 1.610 . S
N449 C450 1.351 . S
C450 C444 1.428 . S
C450 N449 1.351 . S
C450 C451 1.434 . S
C451 C442 1.429 . S
C451 N448 1.350 . S
C451 C450 1.434 . S
C452 C453 1.369 . S
C452 C454 1.419 . S
C452 H456 0.930 1_455 S
C453 C452 1.369 . S
C453 C462 1.429 . S
C454 C452 1.419 . S
C454 C455 1.363 . S
C454 H457 0.929 . S
C455 C454 1.363 . S
C455 C461 1.428 . S
H456 C452 0.930 1_655 S
H457 C454 0.929 . S
S458 N459 1.613 . S
S458 N460 1.610 . S
N459 S458 1.613 . S
N459 C462 1.350 . S
N460 S458 1.610 . S
N460 C461 1.351 . S
C461 C455 1.428 . S
C461 N460 1.351 . S
C461 C462 1.434 . S
C462 C453 1.429 . S
C462 N459 1.350 . S
C462 C461 1.434 . S
C463 C464 1.369 . S
C463 C465 1.419 . S
C463 H467 0.930 . S
C464 C463 1.369 . S
C464 C473 1.429 . S
C465 C463 1.419 . S
C465 C466 1.363 . S
C465 H468 0.929 . S
C466 C465 1.363 . S
C466 C472 1.428 . S
H467 C463 0.930 . S
H468 C465 0.929 . S
S469 N470 1.613 . S
S469 N471 1.610 . S
N470 S469 1.613 . S
N470 C473 1.350 . S
N471 S469 1.610 . S
N471 C472 1.351 . S
C472 C466 1.428 . S
C472 N471 1.351 . S
C472 C473 1.434 . S
C473 C464 1.429 . S
C473 N470 1.350 . S
C473 C472 1.434 . S
C474 C475 1.369 . S
C474 C476 1.419 . S
C474 H478 0.930 1_554 S
C475 C474 1.369 . S
C475 C484 1.429 . S
C476 C474 1.419 . S
C476 C477 1.363 . S
C476 H479 0.929 . S
C477 C476 1.363 . S
C477 C483 1.428 . S
H478 C474 0.930 1_556 S
H479 C476 0.929 . S
S480 N481 1.613 . S
S480 N482 1.610 . S
N481 S480 1.613 . S
N481 C484 1.350 . S
N482 S480 1.610 . S
N482 C483 1.351 . S
C483 C477 1.428 . S
C483 N482 1.351 . S
C483 C484 1.434 . S
C484 C475 1.429 . S
C484 N481 1.350 . S
C484 C483 1.434 . S
C485 C486 1.369 . S
C485 C487 1.419 . S
C485 H489 0.930 . S
C486 C485 1.369 . S
C486 C495 1.429 . S
C487 C485 1.419 . S
C487 C488 1.363 . S
C487 H490 0.929 . S
C488 C487 1.363 . S
C488 C494 1.428 . S
H489 C485 0.930 . S
H490 C487 0.929 . S
S491 N492 1.613 1_455 S
S491 N493 1.610 1_455 S
N492 S491 1.613 1_655 S
N492 C495 1.350 . S
N493 S491 1.610 1_655 S
N493 C494 1.351 . S
C494 C488 1.428 . S
C494 N493 1.351 . S
C494 C495 1.434 . S
C495 C486 1.429 . S
C495 N492 1.350 . S
C495 C494 1.434 . S
C496 C497 1.369 . S
C496 C498 1.419 . S
C496 H500 0.930 1_655 S
C497 C496 1.369 . S
C497 C506 1.429 1_545 S
C498 C496 1.419 . S
C498 C499 1.363 . S
C498 H501 0.929 . S
C499 C498 1.363 . S
C499 C505 1.428 1_545 S
H500 C496 0.930 1_455 S
H501 C498 0.929 . S
S502 N503 1.613 . S
S502 N504 1.610 . S
N503 S502 1.613 . S
N503 C506 1.350 . S
N504 S502 1.610 . S
N504 C505 1.351 . S
C505 C499 1.428 1_565 S
C505 N504 1.351 . S
C505 C506 1.434 . S
C506 C497 1.429 1_565 S
C506 N503 1.350 . S
C506 C505 1.434 . S
C507 C508 1.369 . S
C507 C509 1.419 . S
C507 H511 0.930 . S
C508 C507 1.369 . S
C508 C517 1.429 . S
C509 C507 1.419 . S
C509 C510 1.363 . S
C509 H512 0.929 . S
C510 C509 1.363 . S
C510 C516 1.428 . S
H511 C507 0.930 . S
H512 C509 0.929 . S
S513 N514 1.613 . S
S513 N515 1.610 . S
N514 S513 1.613 . S
N514 C517 1.350 . S
N515 S513 1.610 . S
N515 C516 1.351 . S
C516 C510 1.428 . S
C516 N515 1.351 . S
C516 C517 1.434 . S
C517 C508 1.429 . S
C517 N514 1.350 . S
C517 C516 1.434 . S
C518 C519 1.369 . S
C518 C520 1.419 . S
C518 H522 0.930 . S
C519 C518 1.369 . S
C519 C528 1.429 . S
C520 C518 1.419 . S
C520 C521 1.363 . S
C520 H523 0.929 . S
C521 C520 1.363 . S
C521 C527 1.428 . S
H522 C518 0.930 . S
H523 C520 0.929 . S
S524 N525 1.613 . S
S524 N526 1.610 . S
N525 S524 1.613 . S
N525 C528 1.350 . S
N526 S524 1.610 . S
N526 C527 1.351 . S
C527 C521 1.428 . S
C527 N526 1.351 . S
C527 C528 1.434 . S
C528 C519 1.429 . S
C528 N525 1.350 . S
C528 C527 1.434 . S
C529 C530 1.369 . S
C529 C531 1.419 . S
C529 H533 0.930 . S
C530 C529 1.369 . S
C530 C539 1.429 . S
C531 C529 1.419 . S
C531 C532 1.363 . S
C531 H534 0.929 . S
C532 C531 1.363 . S
C532 C538 1.428 . S
H533 C529 0.930 . S
H534 C531 0.929 . S
S535 N536 1.613 . S
S535 N537 1.610 . S
N536 S535 1.613 . S
N536 C539 1.350 . S
N537 S535 1.610 . S
N537 C538 1.351 . S
C538 C532 1.428 . S
C538 N537 1.351 . S
C538 C539 1.434 . S
C539 C530 1.429 . S
C539 N536 1.350 . S
C539 C538 1.434 . S
C540 C541 1.372 . S
C540 C542 1.419 . S
C540 H544 0.930 1_565 S
C541 C540 1.372 . S
C541 C550 1.429 . S
C542 C540 1.419 . S
C542 C543 1.363 . S
C542 H545 0.933 . S
C543 C542 1.363 . S
C543 C549 1.428 . S
H544 C540 0.930 1_545 S
H545 C542 0.933 . S
S546 N547 1.613 1_656 S
S546 N548 1.610 1_556 S
N547 S546 1.613 1_454 S
N547 C550 1.350 1_455 S
N548 S546 1.610 1_554 S
N548 C549 1.351 . S
C549 C543 1.428 . S
C549 N548 1.351 . S
C549 C550 1.434 . S
C550 C541 1.429 . S
C550 N547 1.350 1_655 S
C550 C549 1.434 . S
C551 C552 1.369 . S
C551 C553 1.419 . S
C551 H555 0.930 . S
C552 C551 1.369 . S
C552 C561 1.429 . S
C553 C551 1.419 . S
C553 C554 1.363 . S
C553 H556 0.929 . S
C554 C553 1.363 . S
C554 C560 1.428 . S
H555 C551 0.930 . S
H556 C553 0.929 . S
S557 N558 1.613 . S
S557 N559 1.610 . S
N558 S557 1.613 . S
N558 C561 1.350 . S
N559 S557 1.610 . S
N559 C560 1.351 . S
C560 C554 1.428 . S
C560 N559 1.351 . S
C560 C561 1.434 . S
C561 C552 1.429 . S
C561 N558 1.350 . S
C561 C560 1.434 . S
C562 C563 1.369 . S
C562 C564 1.419 . S
C562 H566 0.930 . S
C563 C562 1.369 . S
C563 C572 1.429 . S
C564 C562 1.419 . S
C564 C565 1.363 . S
C564 H567 0.929 . S
C565 C564 1.363 . S
C565 C571 1.428 . S
H566 C562 0.930 . S
H567 C564 0.929 . S
S568 N569 1.613 . S
S568 N570 1.610 . S
N569 S568 1.613 . S
N569 C572 1.350 . S
N570 S568 1.610 . S
N570 C571 1.351 . S
C571 C565 1.428 . S
C571 N570 1.351 . S
C571 C572 1.434 . S
C572 C563 1.429 . S
C572 N569 1.350 . S
C572 C571 1.434 . S
C573 C574 1.369 . S
C573 C575 1.419 . S
C573 H577 0.930 . S
C574 C573 1.369 . S
C574 C583 1.429 . S
C575 C573 1.419 . S
C575 C576 1.363 . S
C575 H578 0.929 . S
C576 C575 1.363 . S
C576 C582 1.428 . S
H577 C573 0.930 . S
H578 C575 0.929 . S
S579 N580 1.613 . S
S579 N581 1.610 . S
N580 S579 1.613 . S
N580 C583 1.350 . S
N581 S579 1.610 . S
N581 C582 1.351 . S
C582 C576 1.428 . S
C582 N581 1.351 . S
C582 C583 1.434 . S
C583 C574 1.429 . S
C583 N580 1.350 . S
C583 C582 1.434 . S
C584 C585 1.369 . S
C584 C586 1.419 . S
C584 H588 0.930 . S
C585 C584 1.369 . S
C585 C594 1.429 . S
C586 C584 1.419 . S
C586 C587 1.363 . S
C586 H589 0.929 . S
C587 C586 1.363 . S
C587 C593 1.428 . S
H588 C584 0.930 . S
H589 C586 0.929 . S
S590 N591 1.613 1_565 S
S590 N592 1.610 . S
N591 S590 1.613 1_545 S
N591 C594 1.350 1_545 S
N592 S590 1.610 . S
N592 C593 1.351 . S
C593 C587 1.428 . S
C593 N592 1.351 . S
C593 C594 1.434 . S
C594 C585 1.429 . S
C594 N591 1.350 1_565 S
C594 C593 1.434 . S
C595 C596 1.369 . S
C595 C597 1.419 . S
C595 H599 0.930 . S
C596 C595 1.369 . S
C596 C605 1.429 1_556 S
C597 C595 1.419 . S
C597 C598 1.363 . S
C597 H600 0.929 . S
C598 C597 1.363 . S
C598 C604 1.428 1_556 S
H599 C595 0.930 . S
H600 C597 0.929 . S
S601 N602 1.613 . S
S601 N603 1.610 . S
N602 S601 1.613 . S
N602 C605 1.350 . S
N603 S601 1.610 . S
N603 C604 1.351 . S
C604 C598 1.428 1_554 S
C604 N603 1.351 . S
C604 C605 1.434 . S
C605 C596 1.429 1_554 S
C605 N602 1.350 . S
C605 C604 1.434 . S
C606 C607 1.369 . S
C606 C608 1.419 . S
C606 H610 0.930 . S
C607 C606 1.369 . S
C607 C616 1.429 . S
C608 C606 1.419 . S
C608 C609 1.363 . S
C608 H611 0.929 . S
C609 C608 1.363 . S
C609 C615 1.428 . S
H610 C606 0.930 . S
H611 C608 0.929 . S
S612 N613 1.613 . S
S612 N614 1.610 . S
N613 S612 1.613 . S
N613 C616 1.350 . S
N614 S612 1.610 . S
N614 C615 1.351 . S
C615 C609 1.428 . S
C615 N614 1.351 . S
C615 C616 1.434 . S
C616 C607 1.429 . S
C616 N613 1.350 . S
C616 C615 1.434 . S
C617 C618 1.369 . S
C617 C619 1.419 . S
C617 H621 0.930 . S
C618 C617 1.369 . S
C618 C627 1.429 . S
C619 C617 1.419 . S
C619 C620 1.363 . S
C619 H622 0.929 . S
C620 C619 1.363 . S
C620 C626 1.428 . S
H621 C617 0.930 . S
H622 C619 0.929 . S
S623 N624 1.613 . S
S623 N625 1.610 . S
N624 S623 1.613 . S
N624 C627 1.350 . S
N625 S623 1.610 . S
N625 C626 1.351 . S
C626 C620 1.428 . S
C626 N625 1.351 . S
C626 C627 1.434 . S
C627 C618 1.429 . S
C627 N624 1.350 . S
C627 C626 1.434 . S
C628 C629 1.369 . S
C628 C630 1.419 . S
C628 H632 0.930 . S
C629 C628 1.369 . S
C629 C638 1.429 . S
C630 C628 1.419 . S
C630 C631 1.363 . S
C630 H633 0.929 . S
C631 C630 1.363 . S
C631 C637 1.428 . S
H632 C628 0.930 . S
H633 C630 0.929 . S
S634 N635 1.613 . S
S634 N636 1.610 . S
N635 S634 1.613 . S
N635 C638 1.350 . S
N636 S634 1.610 . S
N636 C637 1.351 . S
C637 C631 1.428 . S
C637 N636 1.351 . S
C637 C638 1.434 . S
C638 C629 1.429 . S
C638 N635 1.350 . S
C638 C637 1.434 . S
C639 C640 1.369 . S
C639 C641 1.419 . S
C639 H643 0.930 . S
C640 C639 1.369 . S
C640 C649 1.429 . S
C641 C639 1.419 . S
C641 C642 1.363 . S
C641 H644 0.929 . S
C642 C641 1.363 . S
C642 C648 1.428 . S
H643 C639 0.930 . S
H644 C641 0.929 . S
S645 N646 1.613 1_645 S
S645 N647 1.610 1_655 S
N646 S645 1.613 1_465 S
N646 C649 1.350 1_565 S
N647 S645 1.610 1_455 S
N647 C648 1.351 . S
C648 C642 1.428 . S
C648 N647 1.351 . S
C648 C649 1.434 . S
C649 C640 1.429 . S
C649 N646 1.350 1_545 S
C649 C648 1.434 . S
C650 C651 1.369 . S
C650 C652 1.419 . S
C650 H654 0.930 . S
C651 C650 1.369 . S
C651 C660 1.429 . S
C652 C650 1.419 . S
C652 C653 1.363 . S
C652 H655 0.929 . S
C653 C652 1.363 . S
C653 C659 1.428 . S
H654 C650 0.930 . S
H655 C652 0.929 . S
S656 N657 1.613 . S
S656 N658 1.610 . S
N657 S656 1.613 . S
N657 C660 1.350 . S
N658 S656 1.610 . S
N658 C659 1.351 . S
C659 C653 1.428 . S
C659 N658 1.351 . S
C659 C660 1.434 . S
C660 C651 1.429 . S
C660 N657 1.350 . S
C660 C659 1.434 . S
C661 C662 1.369 . S
C661 C663 1.419 . S
C661 H665 0.930 . S
C662 C661 1.369 . S
C662 C671 1.429 . S
C663 C661 1.419 . S
C663 C664 1.363 . S
C663 H666 0.929 . S
C664 C663 1.363 . S
C664 C670 1.428 . S
H665 C661 0.930 . S
H666 C663 0.929 . S
S667 N668 1.613 . S
S667 N669 1.610 . S
N668 S667 1.613 . S
N668 C671 1.350 . S
N669 S667 1.610 . S
N669 C670 1.351 . S
C670 C664 1.428 . S
C670 N669 1.351 . S
C670 C671 1.434 . S
C671 C662 1.429 . S
C671 N668 1.350 . S
C671 C670 1.434 . S
C672 C673 1.369 . S
C672 C674 1.419 . S
C672 H676 0.930 . S
C673 C672 1.369 . S
C673 C682 1.429 . S
C674 C672 1.419 . S
C674 C675 1.363 . S
C674 H677 0.929 . S
C675 C674 1.363 . S
C675 C681 1.428 . S
H676 C672 0.930 . S
H677 C674 0.929 . S
S678 N679 1.613 . S
S678 N680 1.610 . S
N679 S678 1.613 . S
N679 C682 1.350 . S
N680 S678 1.610 . S
N680 C681 1.351 . S
C681 C675 1.428 . S
C681 N680 1.351 . S
C681 C682 1.434 . S
C682 C673 1.429 . S
C682 N679 1.350 . S
C682 C681 1.434 . S
C683 C684 1.369 . S
C683 C685 1.419 . S
C683 H687 0.930 . S
C684 C683 1.369 . S
C684 C693 1.429 . S
C685 C683 1.419 . S
C685 C686 1.363 . S
C685 H688 0.929 . S
C686 C685 1.363 . S
C686 C692 1.428 . S
H687 C683 0.930 . S
H688 C685 0.929 . S
S689 N690 1.613 . S
S689 N691 1.610 . S
N690 S689 1.613 . S
N690 C693 1.350 . S
N691 S689 1.610 . S
N691 C692 1.351 . S
C692 C686 1.428 . S
C692 N691 1.351 . S
C692 C693 1.434 . S
C693 C684 1.429 . S
C693 N690 1.350 . S
C693 C692 1.434 . S
C694 C695 1.380 1_455 S
C694 C696 1.419 . S
C694 H698 0.930 . S
C695 C694 1.380 1_655 S
C695 C704 1.437 . S
C696 C694 1.419 . S
C696 C697 1.363 1_455 S
C696 H699 0.929 . S
C697 C696 1.363 1_655 S
C697 C703 1.428 . S
H698 C694 0.930 . S
H699 C696 0.929 . S
S700 N701 1.613 . S
S700 N702 1.610 . S
N701 S700 1.613 . S
N701 C704 1.350 . S
N702 S700 1.610 . S
N702 C703 1.351 . S
C703 C697 1.428 . S
C703 N702 1.351 . S
C703 C704 1.434 . S
C704 C695 1.437 . S
C704 N701 1.350 . S
C704 C703 1.434 . S
C705 C706 1.369 . S
C705 C707 1.419 . S
C705 H709 0.930 . S
C706 C705 1.369 . S
C706 C715 1.429 . S
C707 C705 1.419 . S
C707 C708 1.363 . S
C707 H710 0.929 . S
C708 C707 1.363 . S
C708 C714 1.428 . S
H709 C705 0.930 . S
H710 C707 0.929 . S
S711 N712 1.613 . S
S711 N713 1.610 . S
N712 S711 1.613 . S
N712 C715 1.350 . S
N713 S711 1.610 . S
N713 C714 1.351 . S
C714 C708 1.428 . S
C714 N713 1.351 . S
C714 C715 1.434 . S
C715 C706 1.429 . S
C715 N712 1.350 . S
C715 C714 1.434 . S
C716 C717 1.369 . S
C716 C718 1.419 . S
C716 H720 0.930 . S
C717 C716 1.369 . S
C717 C726 1.429 . S
C718 C716 1.419 . S
C718 C719 1.363 . S
C718 H721 0.929 . S
C719 C718 1.363 . S
C719 C725 1.428 . S
H720 C716 0.930 . S
H721 C718 0.929 . S
S722 N723 1.613 1_564 S
S722 N724 1.610 1_565 S
N723 S722 1.613 1_546 S
N723 C726 1.350 1_556 S
N724 S722 1.610 1_545 S
N724 C725 1.351 . S
C725 C719 1.428 . S
C725 N724 1.351 . S
C725 C726 1.434 . S
C726 C717 1.429 . S
C726 N723 1.350 1_554 S
C726 C725 1.434 . S
C727 C728 1.369 . S
C727 C729 1.419 . S
C727 H731 0.930 . S
C728 C727 1.369 . S
C728 C737 1.429 . S
C729 C727 1.419 . S
C729 C730 1.363 . S
C729 H732 0.929 . S
C730 C729 1.363 . S
C730 C736 1.428 . S
H731 C727 0.930 . S
H732 C729 0.929 . S
S733 N734 1.613 . S
S733 N735 1.610 . S
N734 S733 1.613 . S
N734 C737 1.350 . S
N735 S733 1.610 . S
N735 C736 1.351 . S
C736 C730 1.428 . S
C736 N735 1.351 . S
C736 C737 1.434 . S
C737 C728 1.429 . S
C737 N734 1.350 . S
C737 C736 1.434 . S
C738 C739 1.369 1_455 S
C738 C740 1.419 1_455 S
C738 H742 0.930 . S
C739 C738 1.369 1_655 S
C739 C748 1.429 . S
C740 C738 1.419 1_655 S
C740 C741 1.363 . S
C740 H743 0.929 1_655 S
C741 C740 1.363 . S
C741 C747 1.428 . S
H742 C738 0.930 . S
H743 C740 0.929 1_455 S
S744 N745 1.613 . S
S744 N746 1.610 . S
N745 S744 1.613 . S
N745 C748 1.350 . S
N746 S744 1.610 . S
N746 C747 1.351 . S
C747 C741 1.428 . S
C747 N746 1.351 . S
C747 C748 1.434 . S
C748 C739 1.429 . S
C748 N745 1.350 . S
C748 C747 1.434 . S
C749 C750 1.369 . S
C749 C751 1.419 . S
C749 H753 0.930 . S
C750 C749 1.369 . S
C750 C759 1.429 . S
C751 C749 1.419 . S
C751 C752 1.363 . S
C751 H754 0.929 . S
C752 C751 1.363 . S
C752 C758 1.428 . S
H753 C749 0.930 . S
H754 C751 0.929 . S
S755 N756 1.613 . S
S755 N757 1.610 . S
N756 S755 1.613 . S
N756 C759 1.350 . S
N757 S755 1.610 . S
N757 C758 1.351 . S
C758 C752 1.428 . S
C758 N757 1.351 . S
C758 C759 1.434 . S
C759 C750 1.429 . S
C759 N756 1.350 . S
C759 C758 1.434 . S
C760 C761 1.369 . S
C760 C762 1.419 . S
C760 H764 0.930 . S
C761 C760 1.369 . S
C761 C770 1.429 . S
C762 C760 1.419 . S
C762 C763 1.363 . S
C762 H765 0.929 . S
C763 C762 1.363 . S
C763 C769 1.428 . S
H764 C760 0.930 . S
H765 C762 0.929 . S
S766 N767 1.613 . S
S766 N768 1.610 . S
N767 S766 1.613 . S
N767 C770 1.350 . S
N768 S766 1.610 . S
N768 C769 1.351 . S
C769 C763 1.428 . S
C769 N768 1.351 . S
C769 C770 1.434 . S
C770 C761 1.429 . S
C770 N767 1.350 . S
C770 C769 1.434 . S
C771 C772 1.369 . S
C771 C773 1.419 . S
C771 H775 0.930 . S
C772 C771 1.369 . S
C772 C781 1.429 . S
C773 C771 1.419 . S
C773 C774 1.363 . S
C773 H776 0.929 . S
C774 C773 1.363 . S
C774 C780 1.428 . S
H775 C771 0.930 . S
H776 C773 0.929 . S
S777 N778 1.613 . S
S777 N779 1.610 . S
N778 S777 1.613 . S
N778 C781 1.350 . S
N779 S777 1.610 . S
N779 C780 1.351 . S
C780 C774 1.428 . S
C780 N779 1.351 . S
C780 C781 1.434 . S
C781 C772 1.429 . S
C781 N778 1.350 . S
C781 C780 1.434 . S
C782 C783 1.369 . S
C782 C784 1.419 . S
C782 H786 0.930 . S
C783 C782 1.369 . S
C783 C792 1.429 . S
C784 C782 1.419 . S
C784 C785 1.363 . S
C784 H787 0.929 . S
C785 C784 1.363 . S
C785 C791 1.428 . S
H786 C782 0.930 . S
H787 C784 0.929 . S
S788 N789 1.613 1_455 S
S788 N790 1.610 . S
N789 S788 1.613 1_655 S
N789 C792 1.350 1_655 S
N790 S788 1.610 . S
N790 C791 1.351 . S
C791 C785 1.428 . S
C791 N790 1.351 . S
C791 C792 1.434 . S
C792 C783 1.429 . S
C792 N789 1.350 1_455 S
C792 C791 1.434 . S
C793 C794 1.369 . S
C793 C795 1.419 . S
C793 H797 0.930 . S
C794 C793 1.369 . S
C794 C803 1.429 . S
C795 C793 1.419 . S
C795 C796 1.363 . S
C795 H798 0.929 . S
C796 C795 1.363 . S
C796 C802 1.428 . S
H797 C793 0.930 . S
H798 C795 0.929 . S
S799 N800 1.613 . S
S799 N801 1.610 . S
N800 S799 1.613 . S
N800 C803 1.350 . S
N801 S799 1.610 . S
N801 C802 1.351 . S
C802 C796 1.428 . S
C802 N801 1.351 . S
C802 C803 1.434 . S
C803 C794 1.429 . S
C803 N800 1.350 . S
C803 C802 1.434 . S
C804 C805 1.369 . S
C804 C806 1.419 . S
C804 H808 0.930 . S
C805 C804 1.369 . S
C805 C814 1.429 . S
C806 C804 1.419 . S
C806 C807 1.363 . S
C806 H809 0.929 . S
C807 C806 1.363 . S
C807 C813 1.428 . S
H808 C804 0.930 . S
H809 C806 0.929 . S
S810 N811 1.613 . S
S810 N812 1.610 . S
N811 S810 1.613 . S
N811 C814 1.350 . S
N812 S810 1.610 . S
N812 C813 1.351 . S
C813 C807 1.428 . S
C813 N812 1.351 . S
C813 C814 1.434 . S
C814 C805 1.429 . S
C814 N811 1.350 . S
C814 C813 1.434 . S
C815 C816 1.369 . S
C815 C817 1.419 . S
C815 H819 0.930 . S
C816 C815 1.369 . S
C816 C825 1.429 . S
C817 C815 1.419 . S
C817 C818 1.363 . S
C817 H820 0.929 . S
C818 C817 1.363 . S
C818 C824 1.428 . S
H819 C815 0.930 . S
H820 C817 0.929 . S
S821 N822 1.613 . S
S821 N823 1.610 . S
N822 S821 1.613 . S
N822 C825 1.350 . S
N823 S821 1.610 . S
N823 C824 1.351 . S
C824 C818 1.428 . S
C824 N823 1.351 . S
C824 C825 1.434 . S
C825 C816 1.429 . S
C825 N822 1.350 . S
C825 C824 1.434 . S
C826 C827 1.369 . S
C826 C828 1.419 . S
C826 H830 0.930 . S
C827 C826 1.369 . S
C827 C836 1.429 . S
C828 C826 1.419 . S
C828 C829 1.363 . S
C828 H831 0.929 . S
C829 C828 1.363 . S
C829 C835 1.428 . S
H830 C826 0.930 . S
H831 C828 0.929 . S
S832 N833 1.613 . S
S832 N834 1.610 . S
N833 S832 1.613 . S
N833 C836 1.350 . S
N834 S832 1.610 . S
N834 C835 1.351 . S
C835 C829 1.428 . S
C835 N834 1.351 . S
C835 C836 1.434 . S
C836 C827 1.429 . S
C836 N833 1.350 . S
C836 C835 1.434 . S
C837 C838 1.369 . S
C837 C839 1.419 . S
C837 H841 0.930 . S
C838 C837 1.369 . S
C838 C847 1.429 . S
C839 C837 1.419 . S
C839 C840 1.363 . S
C839 H842 0.929 . S
C840 C839 1.363 . S
C840 C846 1.428 . S
H841 C837 0.930 . S
H842 C839 0.929 . S
S843 N844 1.613 . S
S843 N845 1.610 . S
N844 S843 1.613 . S
N844 C847 1.350 . S
N845 S843 1.610 . S
N845 C846 1.351 . S
C846 C840 1.428 . S
C846 N845 1.351 . S
C846 C847 1.434 . S
C847 C838 1.429 . S
C847 N844 1.350 . S
C847 C846 1.434 . S
C848 C849 1.369 . S
C848 C850 1.419 . S
C848 H852 0.930 . S
C849 C848 1.369 . S
C849 C858 1.429 . S
C850 C848 1.419 . S
C850 C851 1.363 . S
C850 H853 0.929 . S
C851 C850 1.363 . S
C851 C857 1.428 . S
H852 C848 0.930 . S
H853 C850 0.929 . S
S854 N855 1.613 . S
S854 N856 1.610 . S
N855 S854 1.613 . S
N855 C858 1.350 . S
N856 S854 1.610 . S
N856 C857 1.351 . S
C857 C851 1.428 . S
C857 N856 1.351 . S
C857 C858 1.434 . S
C858 C849 1.429 . S
C858 N855 1.350 . S
C858 C857 1.434 . S
C859 C860 1.369 . S
C859 C861 1.419 . S
C859 H863 0.930 1_545 S
C860 C859 1.369 . S
C860 C869 1.429 . S
C861 C859 1.419 . S
C861 C862 1.363 . S
C861 H864 0.929 . S
C862 C861 1.363 . S
C862 C868 1.428 . S
H863 C859 0.930 1_565 S
H864 C861 0.929 . S
S865 N866 1.613 . S
S865 N867 1.610 . S
N866 S865 1.613 . S
N866 C869 1.350 . S
N867 S865 1.610 . S
N867 C868 1.351 . S
C868 C862 1.428 . S
C868 N867 1.351 . S
C868 C869 1.434 . S
C869 C860 1.429 . S
C869 N866 1.350 . S
C869 C868 1.434 . S
C870 C871 1.369 . S
C870 C872 1.419 . S
C870 H874 0.930 . S
C871 C870 1.369 . S
C871 C880 1.429 . S
C872 C870 1.419 . S
C872 C873 1.363 . S
C872 H875 0.929 . S
C873 C872 1.363 . S
C873 C879 1.428 . S
H874 C870 0.930 . S
H875 C872 0.929 . S
S876 N877 1.613 1_565 S
S876 N878 1.610 1_565 S
N877 S876 1.613 1_545 S
N877 C880 1.350 . S
N878 S876 1.610 1_545 S
N878 C879 1.351 . S
C879 C873 1.428 . S
C879 N878 1.351 . S
C879 C880 1.434 . S
C880 C871 1.429 . S
C880 N877 1.350 . S
C880 C879 1.434 . S
C881 C882 1.369 1_554 S
C881 C883 1.419 1_554 S
C881 H885 0.930 . S
C882 C881 1.369 1_556 S
C882 C891 1.429 . S
C883 C881 1.419 1_556 S
C883 C884 1.363 . S
C883 H886 0.929 1_556 S
C884 C883 1.363 . S
C884 C890 1.428 . S
H885 C881 0.930 . S
H886 C883 0.929 1_554 S
S887 N888 1.613 . S
S887 N889 1.610 . S
N888 S887 1.613 . S
N888 C891 1.350 . S
N889 S887 1.610 . S
N889 C890 1.351 . S
C890 C884 1.428 . S
C890 N889 1.351 . S
C890 C891 1.434 . S
C891 C882 1.429 . S
C891 N888 1.350 . S
C891 C890 1.434 . S
C892 C893 1.369 . S
C892 C894 1.419 . S
C892 H896 0.930 . S
C893 C892 1.369 . S
C893 C902 1.429 . S
C894 C892 1.419 . S
C894 C895 1.363 . S
C894 H897 0.929 . S
C895 C894 1.363 . S
C895 C901 1.428 . S
H896 C892 0.930 . S
H897 C894 0.929 . S
S898 N899 1.613 . S
S898 N900 1.610 . S
N899 S898 1.613 . S
N899 C902 1.350 . S
N900 S898 1.610 . S
N900 C901 1.351 . S
C901 C895 1.428 . S
C901 N900 1.351 . S
C901 C902 1.434 . S
C902 C893 1.429 . S
C902 N899 1.350 . S
C902 C901 1.434 . S
C903 C904 1.369 . S
C903 C905 1.419 . S
C903 H907 0.930 . S
C904 C903 1.369 . S
C904 C913 1.429 . S
C905 C903 1.419 . S
C905 C906 1.363 . S
C905 H908 0.929 . S
C906 C905 1.363 . S
C906 C912 1.428 . S
H907 C903 0.930 . S
H908 C905 0.929 . S
S909 N910 1.613 . S
S909 N911 1.610 . S
N910 S909 1.613 . S
N910 C913 1.350 . S
N911 S909 1.610 . S
N911 C912 1.351 . S
C912 C906 1.428 . S
C912 N911 1.351 . S
C912 C913 1.434 . S
C913 C904 1.429 . S
C913 N910 1.350 . S
C913 C912 1.434 . S
C914 C915 1.369 . S
C914 C916 1.419 . S
C914 H918 0.930 . S
C915 C914 1.369 . S
C915 C924 1.429 . S
C916 C914 1.419 . S
C916 C917 1.363 . S
C916 H919 0.929 . S
C917 C916 1.363 . S
C917 C923 1.428 . S
H918 C914 0.930 . S
H919 C916 0.929 . S
S920 N921 1.613 . S
S920 N922 1.610 . S
N921 S920 1.613 . S
N921 C924 1.350 . S
N922 S920 1.610 . S
N922 C923 1.351 . S
C923 C917 1.428 . S
C923 N922 1.351 . S
C923 C924 1.434 . S
C924 C915 1.429 . S
C924 N921 1.350 . S
C924 C923 1.434 . S
C925 C926 1.369 . S
C925 C927 1.419 . S
C925 H929 0.930 . S
C926 C925 1.369 . S
C926 C935 1.429 . S
C927 C925 1.419 . S
C927 C928 1.363 . S
C927 H930 0.929 . S
C928 C927 1.363 . S
C928 C934 1.428 . S
H929 C925 0.930 . S
H930 C927 0.929 . S
S931 N932 1.613 . S
S931 N933 1.610 . S
N932 S931 1.613 . S
N932 C935 1.350 . S
N933 S931 1.610 . S
N933 C934 1.351 . S
C934 C928 1.428 . S
C934 N933 1.351 . S
C934 C935 1.434 . S
C935 C926 1.429 . S
C935 N932 1.350 . S
C935 C934 1.434 . S
C411 C404 1.257 . S
C409 C5 1.373 1_556 S
C420 C16 1.381 . S
C422 C333 1.177 . S
C431 C36 1.371 . S
C433 C362 1.249 . S
C444 C375 1.157 . S
C442 C49 1.368 . S
C453 C23 1.370 . S
C455 C396 1.139 . S
C466 C341 1.261 . S
C464 C29 1.384 . S
C477 C354 1.158 . S
C475 C42 1.367 1_554 S
C488 C383 1.258 . S
C486 C4 1.370 . S
C497 C55 1.367 1_655 S
C499 C385 1.175 . S
C510 C399 1.272 . S
C508 C69 1.376 . S
C521 C343 1.173 . S
C519 C83 1.360 . S
C532 C357 1.274 . S
C530 C101 1.375 . S
C541 C57 1.363 1_655 S
C543 C336 1.263 . S
C552 C75 1.377 . S
C554 C364 1.188 . S
C563 C81 1.363 . S
C565 C378 1.255 . S
C576 C406 1.202 . S
C574 C95 1.374 . S
C587 C215 1.243 . S
C585 C96 1.378 1_565 S
C598 C196 1.174 . S
C596 C107 1.348 . S
C609 C210 1.269 . S
C607 C121 1.365 . S
C620 C231 1.251 . S
C618 C133 1.360 . S
C629 C62 1.374 . S
C631 C217 1.181 . S
C640 C68 1.380 1_545 S
C642 C168 1.260 . S
C651 C127 1.377 . S
C653 C228 1.188 . S
C662 C147 1.371 . S
C664 C194 1.274 . S
C675 C257 1.242 . S
C673 C30 1.372 . S
C686 C270 1.172 . S
C684 C43 1.368 . S
C695 C3 1.363 1_556 S
C697 C299 1.245 . S
C706 C18 1.373 . S
C708 C312 1.157 . S
C719 C249 1.148 . S
C717 C44 1.380 1_554 S
C730 C278 1.262 . S
C728 C10 1.372 . S
C739 C17 1.366 . S
C741 C291 1.152 . S
C752 C320 1.259 . S
C750 C31 1.377 . S
C761 C146 1.383 . S
C763 C322 1.179 . S
C772 C114 1.357 . S
C774 C252 1.259 . S
C785 C280 1.170 . S
C783 C122 1.381 1_455 S
C794 C140 1.366 . S
C796 C294 1.270 . S
C807 C273 1.272 . S
C805 C148 1.378 . S
C816 C108 1.363 . S
C818 C301 1.172 . S
C829 C315 1.260 . S
C827 C120 1.378 1_455 S
C840 C259 1.192 . S
C838 C134 1.365 . S
C851 C175 1.170 . S
C849 C135 1.382 . S
C862 C238 1.191 . S
C860 C70 1.378 1_545 S
C871 C82 1.372 . S
C873 C165 1.161 . S
C884 C189 1.261 . S
C882 C94 1.372 1_565 S
C895 C173 1.262 . S
C893 C153 1.373 . S
C904 C109 1.376 . S
C906 C207 1.149 . S
C915 C88 1.357 . S
C917 C186 1.156 . S
C926 C56 1.352 . S
C928 C236 1.265 . S
