# Generated by pormake.
# Topology zzz, (3,6)-cn, num edge types: 1
# Building blocks:
#     Node 0, Type 0, BuildingBlock: MIDCAF_clean_linker_0, # of connection points: 3
#     Node 1, Type 0, BuildingBlock: MIDCAF_clean_linker_0, # of connection points: 3
#     Node 2, Type 0, BuildingBlock: MIDCAF_clean_linker_0, # of connection points: 3
#     Node 3, Type 0, BuildingBlock: MIDCAF_clean_linker_0, # of connection points: 3
#     Node 4, Type 0, BuildingBlock: MIDCAF_clean_linker_0, # of connection points: 3
#     Node 5, Type 0, BuildingBlock: MIDCAF_clean_linker_0, # of connection points: 3
#     Node 6, Type 0, BuildingBlock: MIDCAF_clean_linker_0, # of connection points: 3
#     Node 7, Type 0, BuildingBlock: MIDCAF_clean_linker_0, # of connection points: 3
#     Node 8, Type 1, BuildingBlock: FUNLAD_clean_sbu_0, # of connection points: 6
#     Node 9, Type 1, BuildingBlock: FUNLAD_clean_sbu_0, # of connection points: 6
#     Node 10, Type 1, BuildingBlock: FUNLAD_clean_sbu_0, # of connection points: 6
#     Node 11, Type 1, BuildingBlock: FUNLAD_clean_sbu_0, # of connection points: 6
#     Edge 12, Type (0, 1), BuildingBlock: MIFKUJ_clean_linker_0, # of connection points: 2
#     Edge 13, Type (0, 1), BuildingBlock: MIFKUJ_clean_linker_0, # of connection points: 2
#     Edge 14, Type (0, 1), BuildingBlock: MIFKUJ_clean_linker_0, # of connection points: 2
#     Edge 15, Type (0, 1), BuildingBlock: MIFKUJ_clean_linker_0, # of connection points: 2
#     Edge 16, Type (0, 1), BuildingBlock: MIFKUJ_clean_linker_0, # of connection points: 2
#     Edge 17, Type (0, 1), BuildingBlock: MIFKUJ_clean_linker_0, # of connection points: 2
#     Edge 18, Type (0, 1), BuildingBlock: MIFKUJ_clean_linker_0, # of connection points: 2
#     Edge 19, Type (0, 1), BuildingBlock: MIFKUJ_clean_linker_0, # of connection points: 2
#     Edge 20, Type (0, 1), BuildingBlock: MIFKUJ_clean_linker_0, # of connection points: 2
#     Edge 21, Type (0, 1), BuildingBlock: MIFKUJ_clean_linker_0, # of connection points: 2
#     Edge 22, Type (0, 1), BuildingBlock: MIFKUJ_clean_linker_0, # of connection points: 2
#     Edge 23, Type (0, 1), BuildingBlock: MIFKUJ_clean_linker_0, # of connection points: 2
#     Edge 24, Type (0, 1), BuildingBlock: MIFKUJ_clean_linker_0, # of connection points: 2
#     Edge 25, Type (0, 1), BuildingBlock: MIFKUJ_clean_linker_0, # of connection points: 2
#     Edge 26, Type (0, 1), BuildingBlock: MIFKUJ_clean_linker_0, # of connection points: 2
#     Edge 27, Type (0, 1), BuildingBlock: MIFKUJ_clean_linker_0, # of connection points: 2
#     Edge 28, Type (0, 1), BuildingBlock: MIFKUJ_clean_linker_0, # of connection points: 2
#     Edge 29, Type (0, 1), BuildingBlock: MIFKUJ_clean_linker_0, # of connection points: 2
#     Edge 30, Type (0, 1), BuildingBlock: MIFKUJ_clean_linker_0, # of connection points: 2
#     Edge 31, Type (0, 1), BuildingBlock: MIFKUJ_clean_linker_0, # of connection points: 2
#     Edge 32, Type (0, 1), BuildingBlock: MIFKUJ_clean_linker_0, # of connection points: 2
#     Edge 33, Type (0, 1), BuildingBlock: MIFKUJ_clean_linker_0, # of connection points: 2
#     Edge 34, Type (0, 1), BuildingBlock: MIFKUJ_clean_linker_0, # of connection points: 2
#     Edge 35, Type (0, 1), BuildingBlock: MIFKUJ_clean_linker_0, # of connection points: 2
# Relax obj value: 0.291
# Max RMSD: 0.220
# Mean RMSD: 0.192
data_MOF--net-zzz--node1-FUNLAD_clean_sbu_0--node2-MIDCAF_clean_linker_0--edge1-MIFKUJ_clean_linker_0
_symmetry_space_group_name_H-M    P1
_symmetry_Int_Tables_number       1
_symmetry_cell_setting            triclinic
loop_
_symmetry_equiv_pos_as_xyz
'x, y, z'
_cell_length_a     71.490485
_cell_length_b     75.846453
_cell_length_c     27.966157
_cell_angle_alpha  87.346486
_cell_angle_beta   88.106129
_cell_angle_gamma 92.238387
loop_
_atom_site_label
_atom_site_type_symbol
_atom_site_fract_x
_atom_site_fract_y
_atom_site_fract_z
_atom_type_partial_charge
C0 C 0.84559 0.43445 0.32051 0.0
C1 C 0.83692 0.44685 0.34875 0.0
C2 C 0.81924 0.45269 0.33597 0.0
C3 C 0.81064 0.4465 0.29525 0.0
H4 H 0.76857 0.45791 0.1894 0.0
H5 H 0.73918 0.46794 0.1565 0.0
H6 H 0.73546 0.42158 0.07291 0.0
H7 H 0.76482 0.41173 0.10485 0.0
H8 H 0.81401 0.41648 0.04943 0.0
H9 H 0.83855 0.40975 0.99174 0.0
H10 H 0.872 0.39001 0.10699 0.0
H11 H 0.84772 0.39747 0.16489 0.0
H12 H 0.84445 0.41899 0.25901 0.0
H13 H 0.85936 0.4299 0.32858 0.0
H14 H 0.81212 0.46214 0.35718 0.0
H15 H 0.79719 0.45149 0.28583 0.0
N16 N 0.79427 0.43348 0.20784 0.0
N17 N 0.79871 0.41995 0.13456 0.0
N18 N 0.82243 0.41991 0.19009 0.0
C19 C 0.78764 0.42881 0.1649 0.0
C20 C 0.81613 0.41544 0.14694 0.0
C21 C 0.81167 0.42887 0.22084 0.0
C22 C 0.76901 0.43409 0.1495 0.0
C23 C 0.76132 0.44978 0.16449 0.0
C24 C 0.74461 0.45555 0.14555 0.0
C25 C 0.73511 0.44551 0.11226 0.0
C26 C 0.74243 0.4295 0.09881 0.0
C27 C 0.75928 0.42392 0.1169 0.0
C28 C 0.82907 0.40784 0.1118 0.0
C29 C 0.82641 0.41034 0.06243 0.0
C30 C 0.84049 0.40636 0.02924 0.0
C31 C 0.85743 0.39958 0.0447 0.0
C32 C 0.85934 0.39563 0.0939 0.0
C33 C 0.84538 0.39984 0.1271 0.0
C34 C 0.81963 0.43444 0.2664 0.0
C35 C 0.83706 0.42831 0.28009 0.0
C36 C 0.90014 0.79792 0.26839 0.0
C37 C 0.91535 0.79759 0.29901 0.0
C38 C 0.9295 0.78556 0.29085 0.0
C39 C 0.92952 0.77566 0.24981 0.0
H40 H 0.92874 0.72315 0.15845 0.0
H41 H 0.93329 0.69374 0.12836 0.0
H42 H 0.93112 0.71536 0.98317 0.0
H43 H 0.92648 0.74449 0.01276 0.0
H44 H 0.94352 0.78517 0.99719 0.0
H45 H 0.95629 0.81057 0.94824 0.0
H46 H 0.93969 0.84526 0.0589 0.0
H47 H 0.92657 0.82014 0.10717 0.0
H48 H 0.88944 0.79016 0.20155 0.0
H49 H 0.88881 0.80674 0.27424 0.0
H50 H 0.94147 0.78502 0.31352 0.0
H51 H 0.94151 0.76788 0.2417 0.0
N52 N 0.92098 0.75705 0.15193 0.0
N53 N 0.92941 0.76842 0.0741 0.0
N54 N 0.92305 0.78768 0.13472 0.0
C55 C 0.92567 0.7543 0.10524 0.0
C56 C 0.92821 0.78516 0.08865 0.0
C57 C 0.91938 0.77383 0.16634 0.0
C58 C 0.92734 0.73621 0.08805 0.0
C59 C 0.92905 0.72157 0.12015 0.0
C60 C 0.93175 0.70476 0.10296 0.0
C61 C 0.93251 0.70225 0.05342 0.0
C62 C 0.93034 0.71681 0.02153 0.0
C63 C 0.92785 0.73356 0.03859 0.0
C64 C 0.93412 0.80055 0.05634 0.0
C65 C 0.94236 0.79824 0.01081 0.0
C66 C 0.94981 0.81277 0.98289 0.0
C67 C 0.94915 0.82991 0.99985 0.0
C68 C 0.94029 0.83227 0.04454 0.0
C69 C 0.93285 0.81779 0.07239 0.0
C70 C 0.91547 0.77774 0.21645 0.0
C71 C 0.90033 0.78825 0.22714 0.0
C72 C 0.72271 0.99034 0.31346 0.0
C73 C 0.71698 0.00498 0.33871 0.0
C74 C 0.72476 0.02182 0.32434 0.0
C75 C 0.73633 0.0242 0.28307 0.0
H76 H 0.80272 0.02311 0.1599 0.0
H77 H 0.83164 0.0201 0.11248 0.0
H78 H 0.80264 0.98313 0.02445 0.0
H79 H 0.77365 0.98737 0.06985 0.0
H80 H 0.73743 0.02103 0.02996 0.0
H81 H 0.71177 0.02916 0.97908 0.0
H82 H 0.68152 0.04778 0.10188 0.0
H83 H 0.70687 0.03934 0.15288 0.0
H84 H 0.73744 0.98146 0.25138 0.0
H85 H 0.71696 0.97719 0.3231 0.0
H86 H 0.72109 0.03335 0.34349 0.0
H87 H 0.74076 0.03749 0.27057 0.0
N88 N 0.76378 0.00798 0.18761 0.0
N89 N 0.75509 0.01717 0.11003 0.0
N90 N 0.73449 0.02021 0.17543 0.0
C91 C 0.7679 0.01022 0.13962 0.0
C92 C 0.73841 0.02233 0.12778 0.0
C93 C 0.74692 0.01301 0.20541 0.0
C94 C 0.78607 0.00543 0.11848 0.0
C95 C 0.80276 0.0141 0.13095 0.0
C96 C 0.81933 0.01232 0.10362 0.0
C97 C 0.81961 0.00157 0.06373 0.0
C98 C 0.80301 0.99201 0.05365 0.0
C99 C 0.78641 0.99417 0.08015 0.0
C100 C 0.72408 0.02926 0.09564 0.0
C101 C 0.72542 0.02708 0.046 0.0
C102 C 0.71076 0.03183 0.01677 0.0
C103 C 0.69452 0.03893 0.03658 0.0
C104 C 0.69368 0.04201 0.08572 0.0
C105 C 0.70825 0.03719 0.11492 0.0
C106 C 0.74083 0.00976 0.25596 0.0
C107 C 0.73456 0.99273 0.27246 0.0
C108 C 0.55626 0.66479 0.01317 0.0
C109 C 0.54589 0.67293 0.97719 0.0
C110 C 0.54346 0.6912 0.97732 0.0
C111 C 0.55114 0.70115 0.01329 0.0
H112 H 0.58878 0.74758 0.04141 0.0
H113 H 0.58925 0.77906 0.0227 0.0
H114 H 0.57197 0.78808 0.16878 0.0
H115 H 0.57123 0.75609 0.18751 0.0
H116 H 0.58988 0.71441 0.25659 0.0
H117 H 0.59039 0.69725 0.3335 0.0
H118 H 0.5594 0.6544 0.2721 0.0
H119 H 0.55877 0.67112 0.19671 0.0
H120 H 0.57114 0.66793 0.07752 0.0
H121 H 0.55818 0.65068 0.01397 0.0
H122 H 0.53553 0.69773 0.94983 0.0
H123 H 0.54882 0.71518 0.01305 0.0
N124 N 0.57124 0.72058 0.08561 0.0
N125 N 0.57754 0.72167 0.16756 0.0
N126 N 0.56892 0.69476 0.13444 0.0
C127 C 0.5764 0.73002 0.12349 0.0
C128 C 0.57384 0.70389 0.17304 0.0
C129 C 0.56752 0.70296 0.09082 0.0
C130 C 0.57976 0.74934 0.11581 0.0
C131 C 0.58536 0.75625 0.06987 0.0
C132 C 0.58581 0.77438 0.05923 0.0
C133 C 0.58062 0.78614 0.0942 0.0
C134 C 0.57592 0.77933 0.14097 0.0
C135 C 0.57563 0.76106 0.1518 0.0
C136 C 0.57428 0.6942 0.22037 0.0
C137 C 0.58312 0.70136 0.25976 0.0
C138 C 0.5835 0.69154 0.30361 0.0
C139 C 0.57476 0.67458 0.30885 0.0
C140 C 0.56598 0.66754 0.26947 0.0
C141 C 0.56576 0.67716 0.22597 0.0
C142 C 0.56096 0.69288 0.05026 0.0
C143 C 0.56358 0.67464 0.0496 0.0
C144 C 0.19696 0.56452 0.04213 0.0
C145 C 0.20105 0.54804 0.02434 0.0
C146 C 0.2166 0.53924 0.04171 0.0
C147 C 0.22699 0.54624 0.07857 0.0
H148 H 0.27339 0.53919 0.17221 0.0
H149 H 0.30258 0.52863 0.20475 0.0
H150 H 0.30598 0.57359 0.29364 0.0
H151 H 0.27684 0.58403 0.26184 0.0
H152 H 0.23227 0.58861 0.31069 0.0
H153 H 0.20889 0.59515 0.37209 0.0
H154 H 0.16684 0.59785 0.2648 0.0
H155 H 0.19013 0.59188 0.20351 0.0
H156 H 0.20311 0.5838 0.09318 0.0
H157 H 0.18539 0.57186 0.02863 0.0
H158 H 0.22009 0.5265 0.02873 0.0
H159 H 0.23826 0.53875 0.09309 0.0
N160 N 0.24749 0.56312 0.15641 0.0
N161 N 0.24338 0.57716 0.22905 0.0
N162 N 0.21959 0.5772 0.17377 0.0
C163 C 0.25428 0.56799 0.19902 0.0
C164 C 0.22598 0.58177 0.21676 0.0
C165 C 0.2302 0.56799 0.14332 0.0
C166 C 0.27279 0.5624 0.21464 0.0
C167 C 0.28051 0.54692 0.19822 0.0
C168 C 0.29712 0.54082 0.21699 0.0
C169 C 0.30648 0.5503 0.25167 0.0
C170 C 0.29912 0.5661 0.26667 0.0
C171 C 0.28239 0.57201 0.24864 0.0
C172 C 0.21303 0.58932 0.25222 0.0
C173 C 0.21814 0.59103 0.29998 0.0
C174 C 0.20472 0.59469 0.33528 0.0
C175 C 0.18591 0.59672 0.32357 0.0
C176 C 0.18118 0.59647 0.27521 0.0
C177 C 0.19458 0.59287 0.23997 0.0
C178 C 0.2219 0.56208 0.09874 0.0
C179 C 0.20718 0.57141 0.07901 0.0
C180 C 0.11119 0.20242 0.10028 0.0
C181 C 0.12363 0.18941 0.0872 0.0
C182 C 0.1405 0.18802 0.11114 0.0
C183 C 0.14398 0.19819 0.15049 0.0
H184 H 0.11402 0.26503 0.21582 0.0
H185 H 0.10316 0.29342 0.24217 0.0
H186 H 0.1164 0.27843 0.38758 0.0
H187 H 0.12703 0.25038 0.36195 0.0
H188 H 0.11607 0.209 0.38756 0.0
H189 H 0.10521 0.18394 0.43925 0.0
H190 H 0.13282 0.14871 0.34508 0.0
H191 H 0.14308 0.17385 0.29206 0.0
H192 H 0.10443 0.22187 0.15082 0.0
H193 H 0.09811 0.20377 0.08224 0.0
H194 H 0.15026 0.17802 0.10207 0.0
H195 H 0.15632 0.19578 0.17094 0.0
N196 N 0.12742 0.23297 0.22617 0.0
N197 N 0.12808 0.22458 0.30804 0.0
N198 N 0.13363 0.20379 0.25088 0.0
C199 C 0.12616 0.23732 0.27295 0.0
C200 C 0.13178 0.2078 0.29739 0.0
C201 C 0.13156 0.2162 0.21518 0.0
C202 C 0.12117 0.25527 0.28677 0.0
C203 C 0.11476 0.26788 0.25331 0.0
C204 C 0.10856 0.28414 0.26835 0.0
C205 C 0.10862 0.288 0.31708 0.0
C206 C 0.11574 0.27568 0.34999 0.0
C207 C 0.12192 0.25957 0.3351 0.0
C208 C 0.13003 0.19339 0.33499 0.0
C209 C 0.12029 0.19597 0.37842 0.0
C210 C 0.1141 0.18153 0.40832 0.0
C211 C 0.11774 0.16422 0.39575 0.0
C212 C 0.12928 0.16183 0.35505 0.0
C213 C 0.13527 0.17626 0.32481 0.0
C214 C 0.13087 0.2102 0.16592 0.0
C215 C 0.11488 0.21289 0.13913 0.0
C216 C 0.3198 0.0264 0.08309 0.0
C217 C 0.31734 0.01423 0.04717 0.0
C218 C 0.30239 0.00155 0.05273 0.0
C219 C 0.29103 0.00029 0.09479 0.0
H220 H 0.24837 0.98172 0.31829 0.0
H221 H 0.21799 0.98466 0.35732 0.0
H222 H 0.20302 0.0217 0.2446 0.0
H223 H 0.23396 0.01887 0.20485 0.0
H224 H 0.29022 0.97586 0.34154 0.0
H225 H 0.31393 0.96768 0.39882 0.0
H226 H 0.35603 0.99808 0.3128 0.0
H227 H 0.33253 0.00613 0.25529 0.0
H228 H 0.31191 0.03358 0.15395 0.0
H229 H 0.33126 0.0362 0.08031 0.0
H230 H 0.30006 0.99205 0.02556 0.0
H231 H 0.28053 0.98961 0.09969 0.0
N232 N 0.26904 0.0058 0.19467 0.0
N233 N 0.27688 0.9958 0.27212 0.0
N234 N 0.30055 0.00218 0.21382 0.0
C235 C 0.26364 0.00045 0.24065 0.0
C236 C 0.2953 0.99665 0.25911 0.0
C237 C 0.28765 0.00662 0.18138 0.0
C238 C 0.2438 0.0003 0.2587 0.0
C239 C 0.23866 0.99044 0.30131 0.0
C240 C 0.22121 0.99214 0.32392 0.0
C241 C 0.20828 0.0037 0.30464 0.0
C242 C 0.21278 0.01275 0.26038 0.0
C243 C 0.23046 0.01109 0.23759 0.0
C244 C 0.30951 0.99166 0.29391 0.0
C245 C 0.30453 0.98081 0.33488 0.0
C246 C 0.31807 0.97605 0.36751 0.0
C247 C 0.33671 0.98233 0.36017 0.0
C248 C 0.34168 0.9932 0.31939 0.0
C249 C 0.32825 0.99772 0.2864 0.0
C250 C 0.29458 0.01157 0.13212 0.0
C251 C 0.30867 0.02495 0.12525 0.0
C252 C 0.46143 0.33089 0.36498 0.0
C253 C 0.47535 0.32435 0.39438 0.0
C254 C 0.48188 0.30741 0.38766 0.0
C255 C 0.47503 0.29738 0.35088 0.0
H256 H 0.43093 0.24527 0.27673 0.0
H257 H 0.4366 0.2143 0.29742 0.0
H258 H 0.48933 0.21921 0.21711 0.0
H259 H 0.48335 0.25022 0.19562 0.0
H260 H 0.45739 0.28828 0.09836 0.0
H261 H 0.45871 0.30886 0.02767 0.0
H262 H 0.44366 0.35127 0.11725 0.0
H263 H 0.44226 0.33107 0.1871 0.0
H264 H 0.44479 0.32673 0.30389 0.0
H265 H 0.45633 0.34401 0.36939 0.0
H266 H 0.49267 0.30219 0.40996 0.0
H267 H 0.48079 0.2846 0.34535 0.0
N268 N 0.45787 0.27741 0.27478 0.0
N269 N 0.45289 0.27887 0.19185 0.0
N270 N 0.45421 0.30473 0.23491 0.0
C271 C 0.45547 0.26918 0.23322 0.0
C272 C 0.45201 0.29679 0.1928 0.0
C273 C 0.45726 0.2952 0.27584 0.0
C274 C 0.4566 0.2499 0.23414 0.0
C275 C 0.44334 0.23947 0.26193 0.0
C276 C 0.44661 0.22179 0.27377 0.0
C277 C 0.46343 0.2144 0.25897 0.0
C278 C 0.47625 0.22462 0.22894 0.0
C279 C 0.47278 0.24224 0.21632 0.0
C280 C 0.45007 0.30807 0.14857 0.0
C281 C 0.45403 0.30192 0.10274 0.0
C282 C 0.45478 0.31367 0.06231 0.0
C283 C 0.45163 0.33169 0.06726 0.0
C284 C 0.44654 0.33752 0.11256 0.0
C285 C 0.44573 0.32588 0.15261 0.0
C286 C 0.46194 0.30437 0.31952 0.0
C287 C 0.45492 0.32106 0.32749 0.0
C288 C 0.02034 0.97784 0.71944 0.0
N289 N 0.9896 0.97635 0.60388 0.0
C290 C 0.99412 0.9748 0.55668 0.0
C291 C 0.98689 0.9605 0.53232 0.0
C292 C 0.97508 0.94764 0.55704 0.0
C293 C 0.97035 0.94984 0.60541 0.0
C294 C 0.97775 0.96438 0.6282 0.0
Zn295 Zn 0.002 0.99558 0.64177 0.0
C296 C 0.98013 0.00766 0.73404 0.0
N297 N 0.03727 0.02537 0.76275 0.0
C298 C 0.05615 0.02357 0.7616 0.0
C299 C 0.02869 0.03441 0.79753 0.0
C300 C 0.03918 0.04294 0.83131 0.0
C301 C 0.05881 0.0424 0.8292 0.0
C302 C 0.06725 0.032 0.79479 0.0
Zn303 Zn 0.02129 0.0205 0.70519 0.0
O304 O 0.01198 0.97541 0.68157 0.0
C305 C 0.04365 0.00738 0.61511 0.0
O306 O 0.02382 0.99346 0.73142 0.0
H307 H 0.0138 0.03625 0.79694 0.0
H308 H 0.00369 0.98444 0.53827 0.0
H309 H 0.06276 0.01662 0.73313 0.0
O310 O 0.0288 0.99843 0.60329 0.0
O311 O 0.04419 0.01636 0.65356 0.0
H312 H 0.97448 0.96587 0.66575 0.0
O313 O 0.00651 0.02299 0.64873 0.0
O314 O 0.99004 0.01529 0.59168 0.0
O315 O 0.99465 0.01743 0.74401 0.0
O316 O 0.97964 0.99839 0.69615 0.0
C317 C 0.99846 0.0276 0.61156 0.0
H318 H 0.99098 0.9592 0.49505 0.0
H319 H 0.96112 0.94033 0.62547 0.0
H320 H 0.032 0.05104 0.85638 0.0
H321 H 0.08232 0.03108 0.79208 0.0
C322 C 0.49519 0.98073 0.62982 0.0
N323 N 0.50863 0.03516 0.62531 0.0
C324 C 0.50879 0.03312 0.57717 0.0
C325 C 0.50486 0.0472 0.54575 0.0
C326 C 0.50108 0.06366 0.56386 0.0
C327 C 0.50137 0.06558 0.61354 0.0
C328 C 0.50503 0.05101 0.64386 0.0
Zn329 Zn 0.51368 0.01349 0.66893 0.0
C330 C 0.48315 0.00552 0.74306 0.0
N331 N 0.52333 0.96665 0.75396 0.0
C332 C 0.53045 0.95189 0.73578 0.0
C333 C 0.52036 0.96793 0.80198 0.0
C334 C 0.52474 0.95411 0.8338 0.0
C335 C 0.53238 0.93882 0.81621 0.0
C336 C 0.53514 0.93776 0.76643 0.0
Zn337 Zn 0.51813 0.9882 0.71019 0.0
O338 O 0.4977 0.99739 0.62449 0.0
C339 C 0.54848 0.99623 0.63544 0.0
O340 O 0.50266 0.97243 0.66424 0.0
H341 H 0.51489 0.97984 0.81581 0.0
H342 H 0.51192 0.02051 0.56298 0.0
H343 H 0.53272 0.95115 0.69751 0.0
O344 O 0.53825 0.00931 0.62739 0.0
O345 O 0.54351 0.98484 0.66878 0.0
H346 H 0.50492 0.05234 0.68221 0.0
O347 O 0.53325 0.00425 0.75623 0.0
O348 O 0.5301 0.02905 0.71403 0.0
O349 O 0.49284 0.99197 0.7498 0.0
O350 O 0.48881 0.01742 0.71171 0.0
C351 C 0.53661 0.02077 0.7499 0.0
H352 H 0.50498 0.0453 0.50759 0.0
H353 H 0.49844 0.0781 0.62874 0.0
H354 H 0.52261 0.9556 0.87191 0.0
H355 H 0.54082 0.92613 0.75135 0.0
C356 C 0.53714 0.47396 0.62236 0.0
N357 N 0.48857 0.50218 0.60782 0.0
C358 C 0.49268 0.50438 0.55999 0.0
C359 C 0.47839 0.5061 0.52754 0.0
C360 C 0.45967 0.50528 0.54437 0.0
C361 C 0.45576 0.50251 0.59373 0.0
C362 C 0.47052 0.50111 0.62506 0.0
Zn363 Zn 0.51025 0.50072 0.65362 0.0
C364 C 0.50356 0.47362 0.73219 0.0
N365 N 0.55685 0.49736 0.74488 0.0
C366 C 0.57488 0.49701 0.7278 0.0
C367 C 0.55263 0.49594 0.79275 0.0
C368 C 0.56673 0.49353 0.82546 0.0
C369 C 0.58539 0.49277 0.80886 0.0
C370 C 0.58947 0.49481 0.75939 0.0
Zn371 Zn 0.53521 0.49902 0.69901 0.0
O372 O 0.52218 0.48153 0.61193 0.0
C373 C 0.54175 0.52636 0.62081 0.0
O374 O 0.54617 0.4786 0.65839 0.0
H375 H 0.53824 0.49639 0.80566 0.0
H376 H 0.50711 0.50497 0.54692 0.0
H377 H 0.57791 0.4981 0.68961 0.0
O378 O 0.52514 0.52102 0.61273 0.0
O379 O 0.55032 0.51899 0.65506 0.0
H380 H 0.46756 0.49937 0.6632 0.0
O381 O 0.52367 0.51904 0.73932 0.0
O382 O 0.49865 0.52026 0.69586 0.0
O383 O 0.51982 0.47946 0.74187 0.0
O384 O 0.49558 0.48015 0.69585 0.0
C385 C 0.50808 0.52576 0.73032 0.0
H386 H 0.48193 0.50802 0.48965 0.0
H387 H 0.44147 0.50192 0.60803 0.0
H388 H 0.56305 0.49221 0.86338 0.0
H389 H 0.6037 0.49417 0.74521 0.0
C390 C 0.03998 0.52143 0.61575 0.0
N391 N 0.0361 0.46596 0.61799 0.0
C392 C 0.03512 0.46758 0.56948 0.0
C393 C 0.04117 0.45414 0.54097 0.0
C394 C 0.04829 0.43883 0.5625 0.0
C395 C 0.04925 0.43755 0.61267 0.0
C396 C 0.04307 0.45134 0.63984 0.0
Zn397 Zn 0.02646 0.48586 0.658 0.0
C398 C 0.05215 0.49629 0.73291 0.0
N399 N 0.00559 0.52817 0.73722 0.0
C400 C 0.99871 0.54287 0.71559 0.0
C401 C 0.00617 0.52625 0.78576 0.0
C402 C 0.99973 0.53944 0.81456 0.0
C403 C 0.9926 0.55479 0.7933 0.0
C404 C 0.99209 0.5564 0.74308 0.0
Zn405 Zn 0.01537 0.50838 0.69712 0.0
O406 O 0.04047 0.50491 0.61005 0.0
C407 C 0.98941 0.49768 0.62323 0.0
O408 O 0.03022 0.52696 0.65033 0.0
H409 H 0.01164 0.51444 0.80228 0.0
H410 H 0.02946 0.47927 0.55281 0.0
H411 H 0.9984 0.54413 0.67695 0.0
O412 O 0.002 0.48651 0.61746 0.0
O413 O 0.99157 0.50937 0.65394 0.0
H414 H 0.04376 0.45034 0.67844 0.0
O415 O 0.00069 0.48956 0.74316 0.0
O416 O 0.01213 0.46717 0.7066 0.0
O417 O 0.03917 0.50696 0.73988 0.0
O418 O 0.05075 0.48547 0.69969 0.0
C419 C 0.00162 0.47299 0.73935 0.0
H420 H 0.03993 0.45559 0.50251 0.0
H421 H 0.05483 0.42607 0.63074 0.0
H422 H 1.00014 0.53751 0.85312 0.0
H423 H 0.98691 0.56809 0.72515 0.0
H424 H 0.20502 0.01097 0.39863 0.0
H425 H 0.17648 0.01308 0.4479 0.0
H426 H 0.14318 0.00522 0.32425 0.0
H427 H 0.17198 0.0034 0.27424 0.0
H428 H 0.12773 0.02916 0.38104 0.0
H429 H 0.14994 0.97102 0.40418 0.0
H430 H 0.17299 0.94842 0.42125 0.0
H431 H 0.18017 0.96799 0.56139 0.0
H432 H 0.15736 0.99089 0.54488 0.0
H433 H 0.04506 -4e-05 0.52037 0.0
H434 H 0.07248 0.00113 0.46545 0.0
H435 H 0.10757 0.01696 0.57963 0.0
H436 H 0.08012 0.0161 0.63485 0.0
H437 H 0.12119 0.98854 0.52551 0.0
H438 H 0.09816 0.04679 0.5005 0.0
H439 H 0.07406 0.06816 0.4826 0.0
H440 H 0.06723 0.04713 0.34423 0.0
H441 H 0.09105 0.02524 0.36165 0.0
C442 C 0.19162 0.00975 0.38182 0.0
C443 C 0.19073 0.00672 0.3327 0.0
C444 C 0.1753 0.01095 0.41007 0.0
C445 C 0.15763 0.00888 0.39013 0.0
C446 C 0.15664 0.00673 0.34054 0.0
C447 C 0.17308 0.0057 0.312 0.0
C448 C 0.14038 0.00826 0.42177 0.0
C449 C 0.12619 0.0201 0.41221 0.0
C450 C 0.13839 0.99659 0.46292 0.0
C451 C 0.15206 0.98278 0.47312 0.0
C452 C 0.15653 0.97059 0.43851 0.0
C453 C 0.16954 0.95771 0.4481 0.0
C454 C 0.17807 0.95679 0.49233 0.0
C455 C 0.17357 0.96873 0.52711 0.0
C456 C 0.16059 0.98165 0.51768 0.0
C457 C 0.05861 0.00366 0.53393 0.0
C458 C 0.0604 0.00786 0.58213 0.0
C459 C 0.07425 0.00442 0.50236 0.0
C460 C 0.09205 0.0092 0.51838 0.0
C461 C 0.09395 0.01326 0.56653 0.0
C462 C 0.07825 0.01279 0.598 0.0
C463 C 0.10873 0.00957 0.4851 0.0
C464 C 0.12276 0.99759 0.4943 0.0
C465 C 0.11042 0.02095 0.44345 0.0
C466 C 0.09624 0.03422 0.43262 0.0
C467 C 0.0914 0.04658 0.46642 0.0
C468 C 0.07781 0.05883 0.45633 0.0
C469 C 0.06908 0.05903 0.41239 0.0
C470 C 0.07398 0.04696 0.37832 0.0
C471 C 0.08752 0.03461 0.38827 0.0
H472 H 0.05856 0.06856 0.40476 0.0
H473 H 0.18814 0.94681 0.49969 0.0
H474 H 0.44247 0.18334 0.26442 0.0
H475 H 0.44921 0.1561 0.31009 0.0
H476 H 0.50196 0.17975 0.35025 0.0
H477 H 0.49558 0.20662 0.3031 0.0
H478 H 0.50671 0.14693 0.338 0.0
H479 H 0.46082 0.1786 0.42428 0.0
H480 H 0.43111 0.1935 0.43659 0.0
H481 H 0.40015 0.14513 0.41374 0.0
H482 H 0.4297 0.13 0.40061 0.0
H483 H 0.51734 0.0969 0.55881 0.0
H484 H 0.51112 0.12131 0.50145 0.0
H485 H 0.46892 0.08868 0.43762 0.0
H486 H 0.47532 0.06415 0.49426 0.0
H487 H 0.45845 0.12472 0.46009 0.0
H488 H 0.50657 0.09325 0.37876 0.0
H489 H 0.53723 0.07961 0.37205 0.0
H490 H 0.56512 0.12967 0.39318 0.0
H491 H 0.53459 0.14356 0.40077 0.0
C492 C 0.45564 0.18254 0.28234 0.0
C493 C 0.4685 0.19706 0.2803 0.0
C494 C 0.45943 0.16705 0.30871 0.0
C495 C 0.4759 0.16599 0.33467 0.0
C496 C 0.48914 0.18021 0.3307 0.0
C497 C 0.48551 0.19556 0.30362 0.0
C498 C 0.47899 0.15053 0.36783 0.0
C499 C 0.49618 0.14221 0.3649 0.0
C500 C 0.46524 0.14418 0.40285 0.0
C501 C 0.44746 0.15322 0.41094 0.0
C502 C 0.44767 0.17117 0.42155 0.0
C503 C 0.43087 0.17966 0.42871 0.0
C504 C 0.41376 0.17028 0.42581 0.0
C505 C 0.41342 0.15239 0.41588 0.0
C506 C 0.43019 0.14385 0.40859 0.0
C507 C 0.50668 0.09501 0.53267 0.0
C508 C 0.49683 0.07868 0.53078 0.0
C509 C 0.5032 0.10889 0.49989 0.0
C510 C 0.48963 0.10672 0.46526 0.0
C511 C 0.47947 0.09057 0.46405 0.0
C512 C 0.48318 0.07659 0.49622 0.0
C513 C 0.48609 0.12131 0.43014 0.0
C514 C 0.46886 0.12945 0.43288 0.0
C515 C 0.49992 0.12771 0.39568 0.0
C516 C 0.51829 0.1194 0.39082 0.0
C517 C 0.51923 0.10132 0.38242 0.0
C518 C 0.53659 0.09354 0.37837 0.0
C519 C 0.55311 0.10376 0.38232 0.0
C520 C 0.55231 0.12177 0.3902 0.0
C521 C 0.53498 0.12961 0.39434 0.0
H522 H 0.56654 0.09772 0.37916 0.0
H523 H 0.40076 0.17687 0.43138 0.0
H524 H 0.33981 0.56793 0.26434 0.0
H525 H 0.36647 0.55732 0.3088 0.0
H526 H 0.33747 0.50674 0.33605 0.0
H527 H 0.31081 0.51725 0.29119 0.0
H528 H 0.35149 0.52286 0.41903 0.0
H529 H 0.37274 0.50794 0.26191 0.0
H530 H 0.38033 0.51371 0.17583 0.0
H531 H 0.42135 0.5538 0.2087 0.0
H532 H 0.41381 0.54846 0.295 0.0
H533 H 0.42752 0.48498 0.53753 0.0
H534 H 0.40195 0.4899 0.48283 0.0
H535 H 0.43162 0.53673 0.42182 0.0
H536 H 0.4574 0.53149 0.4753 0.0
H537 H 0.41659 0.52005 0.35348 0.0
H538 H 0.39435 0.53801 0.50684 0.0
H539 H 0.38665 0.53459 0.59347 0.0
H540 H 0.34749 0.49185 0.56893 0.0
H541 H 0.35515 0.49487 0.48217 0.0
C542 C 0.33924 0.55449 0.27937 0.0
C543 C 0.3233 0.54338 0.27433 0.0
C544 C 0.35447 0.54844 0.30457 0.0
C545 C 0.35392 0.53125 0.32555 0.0
C546 C 0.33814 0.52004 0.31997 0.0
C547 C 0.32302 0.526 0.29414 0.0
C548 C 0.36941 0.52539 0.35551 0.0
C549 C 0.36569 0.5219 0.40465 0.0
C550 C 0.38796 0.52471 0.33681 0.0
C551 C 0.39259 0.5279 0.28493 0.0
C552 C 0.38327 0.51809 0.25078 0.0
C553 C 0.38758 0.52126 0.20194 0.0
C554 C 0.40128 0.53414 0.1868 0.0
C555 C 0.41073 0.54384 0.22048 0.0
C556 C 0.40646 0.54073 0.26937 0.0
C557 C 0.42853 0.4963 0.51236 0.0
C558 C 0.44436 0.50791 0.5107 0.0
C559 C 0.41393 0.49913 0.4812 0.0
C560 C 0.4147 0.51386 0.44864 0.0
C561 C 0.43069 0.52527 0.4465 0.0
C562 C 0.4454 0.52229 0.47709 0.0
C563 C 0.39877 0.51764 0.41738 0.0
C564 C 0.40239 0.5208 0.36796 0.0
C565 C 0.38015 0.51835 0.43597 0.0
C566 C 0.37548 0.51653 0.4881 0.0
C567 C 0.3842 0.5278 0.51997 0.0
C568 C 0.37983 0.52595 0.56908 0.0
C569 C 0.36663 0.51298 0.58671 0.0
C570 C 0.35774 0.50187 0.55523 0.0
C571 C 0.36208 0.50365 0.50609 0.0
H572 H 0.36326 0.51157 0.62474 0.0
H573 H 0.4046 0.53658 0.14897 0.0
H574 H 0.11427 0.32193 0.27893 0.0
H575 H 0.103 0.34914 0.31226 0.0
H576 H 0.07452 0.31836 0.42829 0.0
H577 H 0.08532 0.29129 0.39476 0.0
H578 H 0.05312 0.34429 0.3958 0.0
H579 H 0.11721 0.33862 0.4426 0.0
H580 H 0.15116 0.3358 0.42816 0.0
H581 H 0.15407 0.38501 0.34538 0.0
H582 H 0.12007 0.388 0.35883 0.0
H583 H 0.04204 0.40329 0.5809 0.0
H584 H 0.05164 0.37924 0.53164 0.0
H585 H 0.07736 0.41702 0.42705 0.0
H586 H 0.06826 0.44119 0.47688 0.0
H587 H 0.09969 0.38966 0.44453 0.0
H588 H 0.0358 0.39669 0.40542 0.0
H589 H 0.00196 0.39945 0.42174 0.0
H590 H 0.99857 0.34765 0.49098 0.0
H591 H 0.03246 0.34467 0.47569 0.0
C592 C 0.10539 0.321 0.31116 0.0
C593 C 0.10086 0.3045 0.33455 0.0
C594 C 0.09907 0.33653 0.33034 0.0
C595 C 0.08811 0.33579 0.37313 0.0
C596 C 0.083 0.31928 0.39538 0.0
C597 C 0.08932 0.30382 0.37638 0.0
C598 C 0.0824 0.3521 0.39609 0.0
C599 C 0.0633 0.35417 0.40667 0.0
C600 C 0.09565 0.36521 0.40927 0.0
C601 C 0.11608 0.36343 0.40122 0.0
C602 C 0.12507 0.34876 0.42098 0.0
C603 C 0.14432 0.34714 0.41304 0.0
C604 C 0.15476 0.36018 0.38574 0.0
C605 C 0.14597 0.3749 0.36643 0.0
C606 C 0.12671 0.37657 0.37421 0.0
C607 C 0.0499 0.4065 0.54766 0.0
C608 C 0.05435 0.42417 0.5328 0.0
C609 C 0.05521 0.39273 0.51927 0.0
C610 C 0.06499 0.39634 0.47531 0.0
C611 C 0.06972 0.41394 0.46069 0.0
C612 C 0.06439 0.42773 0.48905 0.0
C613 C 0.07043 0.38168 0.44503 0.0
C614 C 0.08947 0.37992 0.43308 0.0
C615 C 0.05713 0.36883 0.43069 0.0
C616 C 0.03671 0.37052 0.43971 0.0
C617 C 0.02787 0.38594 0.42443 0.0
C618 C 0.00867 0.38753 0.43345 0.0
C619 C 0.99813 0.37375 0.45746 0.0
C620 C 0.00676 0.35832 0.47241 0.0
C621 C 0.02596 0.35666 0.46352 0.0
H622 H 0.98327 0.37501 0.46442 0.0
H623 H 0.16966 0.35891 0.37964 0.0
H624 H 0.857 0.00475 0.0863 0.0
H625 H 0.88444 0.00557 0.03149 0.0
H626 H 0.84874 0.99734 0.91282 0.0
H627 H 0.82119 0.99765 0.96621 0.0
H628 H 0.88227 0.97457 0.92148 0.0
H629 H 0.86347 0.03552 0.91802 0.0
H630 H 0.85559 0.06319 0.95557 0.0
H631 H 0.90992 0.06624 0.01645 0.0
H632 H 0.91801 0.03842 0.97983 0.0
H633 H 0.94481 0.99329 0.72163 0.0
H634 H 0.91832 0.99108 0.77946 0.0
H635 H 0.95206 0.01676 0.883 0.0
H636 H 0.97843 0.01934 0.82518 0.0
H637 H 0.91975 0.03027 0.88477 0.0
H638 H 0.93804 0.97003 0.90473 0.0
H639 H 0.94706 0.94041 0.88194 0.0
H640 H 0.89752 0.9351 0.80019 0.0
H641 H 0.88784 0.96444 0.82423 0.0
C642 C 0.85486 0.00332 0.04853 0.0
C643 C 0.83666 0.00109 0.03113 0.0
C644 C 0.87063 0.00365 0.0173 0.0
C645 C 0.8686 0.00148 0.96816 0.0
C646 C 0.85061 0.9989 0.95071 0.0
C647 C 0.83484 0.99892 0.98162 0.0
C648 C 0.88517 0.00225 0.93462 0.0
C649 C 0.89035 0.98678 0.91293 0.0
C650 C 0.89608 0.01804 0.92487 0.0
C651 C 0.89125 0.03479 0.94666 0.0
C652 C 0.87366 0.042 0.93981 0.0
C653 C 0.86917 0.05773 0.96084 0.0
C654 C 0.88222 0.06644 0.98851 0.0
C655 C 0.89981 0.05946 0.99509 0.0
C656 C 0.90436 0.04372 0.97418 0.0
C657 C 0.9466 0.99848 0.7567 0.0
C658 C 0.96378 0.00655 0.76857 0.0
C659 C 0.93147 0.99705 0.78999 0.0
C660 C 0.93319 0.00352 0.83605 0.0
C661 C 0.95031 0.01164 0.84782 0.0
C662 C 0.96541 0.01315 0.81455 0.0
C663 C 0.91695 0.00254 0.87117 0.0
C664 C 0.91176 0.01801 0.89317 0.0
C665 C 0.9063 0.98665 0.88221 0.0
C666 C 0.91235 0.96944 0.86577 0.0
C667 C 0.92915 0.96257 0.88164 0.0
C668 C 0.93429 0.9458 0.86883 0.0
C669 C 0.92296 0.93594 0.83928 0.0
C670 C 0.90631 0.94277 0.82298 0.0
C671 C 0.90089 0.95939 0.83655 0.0
H672 H 0.92706 0.92301 0.8291 0.0
H673 H 0.87873 0.07862 0.00474 0.0
H674 H 0.5521 0.80722 0.12007 0.0
H675 H 0.54503 0.83597 0.08348 0.0
H676 H 0.59608 0.8361 0.99676 0.0
H677 H 0.60364 0.80773 0.03471 0.0
H678 H 0.58881 0.86898 0.01979 0.0
H679 H 0.55462 0.82007 0.95532 0.0
H680 H 0.53355 0.79347 0.95923 0.0
H681 H 0.48903 0.82333 0.01708 0.0
H682 H 0.50994 0.85007 0.01414 0.0
H683 H 0.56415 0.91983 0.81282 0.0
H684 H 0.5731 0.89619 0.86901 0.0
H685 H 0.52195 0.90157 0.95231 0.0
H686 H 0.51273 0.92496 0.89574 0.0
H687 H 0.52857 0.86729 0.93655 0.0
H688 H 0.56316 0.91743 0.99186 0.0
H689 H 0.58488 0.94356 0.98375 0.0
H690 H 0.62933 0.91104 0.93831 0.0
H691 H 0.60782 0.88475 0.94547 0.0
C692 C 0.56215 0.81363 0.09443 0.0
C693 C 0.5783 0.80504 0.07977 0.0
C694 C 0.55798 0.82999 0.07313 0.0
C695 C 0.56978 0.83797 0.03645 0.0
C696 C 0.58667 0.83013 0.02463 0.0
C697 C 0.5909 0.81384 0.04612 0.0
C698 C 0.56375 0.85345 0.00716 0.0
C699 C 0.57568 0.8686 0.00141 0.0
C700 C 0.54652 0.85303 0.98351 0.0
C701 C 0.5339 0.83701 0.98503 0.0
C702 C 0.54038 0.82093 0.9692 0.0
C703 C 0.52846 0.80583 0.9712 0.0
C704 C 0.50998 0.8067 0.98853 0.0
C705 C 0.50336 0.82267 0.00376 0.0
C706 C 0.51523 0.8378 0.00193 0.0
C707 C 0.55474 0.91589 0.8429 0.0
C708 C 0.53773 0.92427 0.84983 0.0
C709 C 0.55997 0.90252 0.87528 0.0
C710 C 0.5483 0.89728 0.91521 0.0
C711 C 0.53122 0.90548 0.92192 0.0
C712 C 0.52602 0.9189 0.88969 0.0
C713 C 0.55362 0.88284 0.94909 0.0
C714 C 0.54157 0.86781 0.95546 0.0
C715 C 0.57082 0.88334 0.9728 0.0
C716 C 0.58382 0.89913 0.96882 0.0
C717 C 0.57753 0.91587 0.97979 0.0
C718 C 0.58981 0.93071 0.97543 0.0
C719 C 0.60845 0.92897 0.96041 0.0
C720 C 0.61488 0.91237 0.94989 0.0
C721 C 0.60265 0.89749 0.95415 0.0
H722 H 0.61793 0.94046 0.95699 0.0
H723 H 0.50077 0.795 0.99003 0.0
H724 H 0.73093 0.47765 0.06726 0.0
H725 H 0.70457 0.48702 0.02003 0.0
H726 H 0.67485 0.43744 0.05818 0.0
H727 H 0.70156 0.42782 0.10384 0.0
H728 H 0.67296 0.44348 0.9682 0.0
H729 H 0.66209 0.4787 0.1029 0.0
H730 H 0.66984 0.49998 0.164 0.0
H731 H 0.68245 0.54037 0.05371 0.0
H732 H 0.67501 0.51926 0.99188 0.0
H733 H 0.58489 0.46741 0.8811 0.0
H734 H 0.60979 0.46083 0.9364 0.0
H735 H 0.64458 0.50328 0.86913 0.0
H736 H 0.61967 0.50992 0.81337 0.0
H737 H 0.64341 0.50149 0.97381 0.0
H738 H 0.65407 0.46479 0.83977 0.0
H739 H 0.6448 0.44303 0.78123 0.0
H740 H 0.63067 0.40464 0.89569 0.0
H741 H 0.63959 0.42628 0.95498 0.0
C742 C 0.7186 0.46892 0.06621 0.0
C743 C 0.71822 0.45204 0.08915 0.0
C744 C 0.70351 0.47428 0.03931 0.0
C745 C 0.68758 0.46301 0.03578 0.0
C746 C 0.68698 0.44636 0.06015 0.0
C747 C 0.70219 0.44089 0.08634 0.0
C748 C 0.67213 0.46802 0.00414 0.0
C749 C 0.66633 0.45606 0.97014 0.0
C750 C 0.6637 0.4846 0.00564 0.0
C751 C 0.66817 0.49734 0.04273 0.0
C752 C 0.66666 0.49208 0.09165 0.0
C753 C 0.67097 0.50412 0.12642 0.0
C754 C 0.67668 0.5215 0.11274 0.0
C755 C 0.67804 0.52689 0.06425 0.0
C756 C 0.67377 0.5149 0.02933 0.0
C757 C 0.59778 0.47544 0.87837 0.0
C758 C 0.60037 0.48917 0.84295 0.0
C759 C 0.61199 0.47163 0.90982 0.0
C760 C 0.629 0.48155 0.90668 0.0
C761 C 0.63152 0.49551 0.87207 0.0
C762 C 0.61737 0.49919 0.84012 0.0
C763 C 0.64433 0.47689 0.93862 0.0
C764 C 0.65009 0.48891 0.97235 0.0
C765 C 0.65257 0.46028 0.93743 0.0
C766 C 0.64732 0.44722 0.90181 0.0
C767 C 0.64883 0.45176 0.85247 0.0
C768 C 0.64367 0.43944 0.81915 0.0
C769 C 0.6371 0.42248 0.83473 0.0
C770 C 0.63574 0.41779 0.88368 0.0
C771 C 0.64086 0.43008 0.91715 0.0
H772 H 0.63312 0.41296 0.80888 0.0
H773 H 0.68001 0.5308 0.13971 0.0
H774 H 0.95898 0.67936 0.08239 0.0
H775 H 0.96803 0.65238 0.04432 0.0
H776 H 0.92451 0.65904 0.94256 0.0
H777 H 0.91519 0.68582 0.98098 0.0
H778 H 0.92767 0.62418 0.9722 0.0
H779 H 0.96804 0.6732 0.91226 0.0
H780 H 0.9901 0.69868 0.91943 0.0
H781 H 0.02902 0.66501 0.98841 0.0
H782 H 0.00705 0.63935 0.98227 0.0
H783 H 0.96152 0.57437 0.7814 0.0
H784 H 0.95055 0.59787 0.83095 0.0
H785 H 0.99698 0.59061 0.92358 0.0
H786 H 0.00838 0.56751 0.87331 0.0
H787 H 0.9925 0.62484 0.90279 0.0
H788 H 0.95284 0.57532 0.95832 0.0
H789 H 0.93076 0.5499 0.95067 0.0
H790 H 0.89055 0.58424 0.88993 0.0
H791 H 0.9125 0.60986 0.89659 0.0
C792 C 0.95109 0.67486 0.05257 0.0
C793 C 0.93648 0.68478 0.0344 0.0
C794 C 0.95636 0.65953 0.03064 0.0
C795 C 0.94711 0.65387 0.99019 0.0
C796 C 0.93188 0.66322 0.9736 0.0
C797 C 0.92666 0.67857 0.99537 0.0
C798 C 0.95401 0.6389 0.96328 0.0
C799 C 0.94179 0.62436 0.95669 0.0
C800 C 0.97255 0.63902 0.94381 0.0
C801 C 0.98582 0.6544 0.94729 0.0
C802 C 0.98124 0.67125 0.92931 0.0
C803 C 0.99373 0.68572 0.93313 0.0
C804 C 0.01092 0.68347 0.95449 0.0
C805 C 0.01568 0.66673 0.97196 0.0
C806 C 0.00322 0.65222 0.9683 0.0
C807 C 0.96948 0.57786 0.8121 0.0
C808 C 0.98581 0.56903 0.82345 0.0
C809 C 0.96308 0.59116 0.8407 0.0
C810 C 0.9728 0.59583 0.88136 0.0
C811 C 0.98919 0.58716 0.89253 0.0
C812 C 0.99561 0.57386 0.86396 0.0
C813 C 0.96616 0.61007 0.91156 0.0
C814 C 0.97842 0.62454 0.91864 0.0
C815 C 0.94766 0.60985 0.93143 0.0
C816 C 0.93439 0.59449 0.92756 0.0
C817 C 0.93935 0.57744 0.94299 0.0
C818 C 0.92684 0.56299 0.93889 0.0
C819 C 0.90928 0.56545 0.91972 0.0
C820 C 0.90416 0.58236 0.90472 0.0
C821 C 0.91662 0.59685 0.9087 0.0
H822 H 0.89962 0.55425 0.91658 0.0
H823 H 0.02058 0.69469 0.9574 0.0
H824 H 0.10868 0.15911 0.492 0.0
H825 H 0.08669 0.13677 0.52955 0.0
H826 H 0.08156 0.11214 0.39432 0.0
H827 H 0.10259 0.13492 0.35599 0.0
H828 H 0.04838 0.11686 0.43119 0.0
H829 H 0.10414 0.09213 0.48894 0.0
H830 H 0.13447 0.09131 0.52828 0.0
H831 H 0.10815 0.10569 0.66031 0.0
H832 H 0.07766 0.10678 0.62159 0.0
H833 H 0.00379 0.03495 0.51571 0.0
H834 H 0.02202 0.06032 0.47917 0.0
H835 H 0.02386 0.08394 0.61655 0.0
H836 H 0.00626 0.05828 0.65338 0.0
H837 H 0.05776 0.081 0.58052 0.0
H838 H 0.00081 0.10314 0.52013 0.0
H839 H 0.97098 0.1018 0.47836 0.0
H840 H 1.0003 0.08999 0.34796 0.0
H841 H 0.03029 0.09104 0.3891 0.0
C842 C 0.10297 0.14888 0.4703 0.0
C843 C 0.10736 0.14892 0.42088 0.0
C844 C 0.09052 0.13601 0.49192 0.0
C845 C 0.08245 0.12279 0.46469 0.0
C846 C 0.08755 0.12228 0.41596 0.0
C847 C 0.09982 0.13521 0.39424 0.0
C848 C 0.06775 0.11023 0.48606 0.0
C849 C 0.05051 0.10884 0.46353 0.0
C850 C 0.07033 0.10016 0.52896 0.0
C851 C 0.08867 0.09978 0.5522 0.0
C852 C 0.10485 0.09531 0.52623 0.0
C853 C 0.12206 0.09474 0.54845 0.0
C854 C 0.12325 0.09852 0.59671 0.0
C855 C 0.10721 0.10282 0.6229 0.0
C856 C 0.08996 0.10339 0.60085 0.0
C857 C 0.00741 0.04591 0.53762 0.0
C858 C 0.00362 0.04475 0.58725 0.0
C859 C 0.01789 0.06039 0.51678 0.0
C860 C 0.02433 0.07403 0.54519 0.0
C861 C 0.01912 0.07353 0.59404 0.0
C862 C 0.00893 0.05896 0.61495 0.0
C863 C 0.0384 0.08755 0.52553 0.0
C864 C 0.05553 0.08916 0.54849 0.0
C865 C 0.0358 0.09763 0.48268 0.0
C866 C 0.01778 0.09704 0.45781 0.0
C867 C 0.00088 0.10013 0.48263 0.0
C868 C 0.98395 0.09945 0.45905 0.0
C869 C 0.98374 0.09578 0.41057 0.0
C870 C 1.00048 0.09282 0.38553 0.0
C871 C 0.01745 0.09348 0.40894 0.0
H872 H 0.97061 0.09525 0.39238 0.0
H873 H 0.13659 0.09806 0.61386 0.0
H874 H 0.3609 0.00475 0.40232 0.0
H875 H 0.38642 0.99711 0.45465 0.0
H876 H 0.37065 0.94182 0.44789 0.0
H877 H 0.34489 0.94946 0.39563 0.0
H878 H 0.38749 0.97781 0.54407 0.0
H879 H 0.41435 0.92174 0.43479 0.0
H880 H 0.41259 0.91064 0.35337 0.0
H881 H 0.40626 0.96344 0.2956 0.0
H882 H 0.40825 0.97484 0.37653 0.0
H883 H 0.4703 0.9537 0.65652 0.0
H884 H 0.44218 0.94528 0.61354 0.0
H885 H 0.46122 0.97977 0.4933 0.0
H886 H 0.489 0.98851 0.53641 0.0
H887 H 0.44057 0.94784 0.46812 0.0
H888 H 0.43824 0.99774 0.57404 0.0
H889 H 0.44142 0.01051 0.65307 0.0
H890 H 0.39965 0.97306 0.71392 0.0
H891 H 0.39652 0.95982 0.63536 0.0
C892 C 0.36279 0.99099 0.41241 0.0
C893 C 0.35108 0.97767 0.39484 0.0
C894 C 0.37724 0.98665 0.44252 0.0
C895 C 0.38039 0.96891 0.45497 0.0
C896 C 0.36839 0.95557 0.43862 0.0
C897 C 0.35373 0.95994 0.40894 0.0
C898 C 0.39717 0.96459 0.4819 0.0
C899 C 0.39895 0.97094 0.5279 0.0
C900 C 0.41213 0.95571 0.46062 0.0
C901 C 0.41118 0.94908 0.41173 0.0
C902 C 0.41261 0.93096 0.40466 0.0
C903 C 0.41159 0.92462 0.35861 0.0
C904 C 0.40923 0.93632 0.31936 0.0
C905 C 0.408 0.95438 0.32605 0.0
C906 C 0.40905 0.96079 0.372 0.0
C907 C 0.4688 0.95891 0.62018 0.0
C908 C 0.48164 0.97184 0.59975 0.0
C909 C 0.45276 0.95413 0.59578 0.0
C910 C 0.44964 0.96203 0.55052 0.0
C911 C 0.46346 0.97349 0.52814 0.0
C912 C 0.47925 0.97853 0.55282 0.0
C913 C 0.43089 0.96115 0.53006 0.0
C914 C 0.4288 0.954 0.48514 0.0
C915 C 0.4157 0.96946 0.55211 0.0
C916 C 0.41731 0.97765 0.59903 0.0
C917 C 0.42984 0.99214 0.60436 0.0
C918 C 0.43164 0.99947 0.64905 0.0
C919 C 0.42077 0.99258 0.6885 0.0
C920 C 0.40808 0.97836 0.68333 0.0
C921 C 0.4063 0.97093 0.63876 0.0
H922 H 0.42213 0.99829 0.72302 0.0
H923 H 0.40842 0.93138 0.28376 0.0
H924 H 0.51186 0.33508 0.39342 0.0
H925 H 0.52625 0.35789 0.44061 0.0
H926 H 0.47373 0.36252 0.51916 0.0
H927 H 0.45908 0.34041 0.46948 0.0
H928 H 0.48539 0.39278 0.49637 0.0
H929 H 0.51517 0.34505 0.57077 0.0
H930 H 0.5326 0.31771 0.57808 0.0
H931 H 0.58066 0.34408 0.50664 0.0
H932 H 0.56343 0.37153 0.49828 0.0
H933 H 0.54691 0.44281 0.66396 0.0
H934 H 0.54119 0.41392 0.63042 0.0
H935 H 0.53057 0.43953 0.49354 0.0
H936 H 0.53533 0.46838 0.52765 0.0
H937 H 0.54952 0.39252 0.55916 0.0
H938 H 0.48909 0.42537 0.45738 0.0
H939 H 0.47021 0.45178 0.46381 0.0
H940 H 0.47963 0.45215 0.61459 0.0
H941 H 0.49818 0.42553 0.60931 0.0
C942 C 0.50354 0.34076 0.42145 0.0
C943 C 0.48444 0.33604 0.42815 0.0
C944 C 0.51178 0.35373 0.44866 0.0
C945 C 0.50119 0.36185 0.48406 0.0
C946 C 0.48222 0.35652 0.49205 0.0
C947 C 0.47386 0.34386 0.46394 0.0
C948 C 0.50941 0.37704 0.50914 0.0
C949 C 0.49935 0.39257 0.51037 0.0
C950 C 0.52747 0.37681 0.5287 0.0
C951 C 0.53794 0.36033 0.5336 0.0
C952 C 0.52941 0.34499 0.5563 0.0
C953 C 0.53926 0.32947 0.56068 0.0
C954 C 0.55771 0.32915 0.54275 0.0
C955 C 0.56636 0.34435 0.52049 0.0
C956 C 0.55656 0.35991 0.51598 0.0
C957 C 0.54419 0.44221 0.62616 0.0
C958 C 0.54132 0.45771 0.59836 0.0
C959 C 0.54086 0.42571 0.60709 0.0
C960 C 0.53489 0.42465 0.55996 0.0
C961 C 0.53475 0.44011 0.53035 0.0
C962 C 0.5376 0.45657 0.54968 0.0
C963 C 0.52573 0.40814 0.54435 0.0
C964 C 0.53554 0.39249 0.54526 0.0
C965 C 0.50705 0.40794 0.52893 0.0
C966 C 0.49518 0.42353 0.53279 0.0
C967 C 0.48699 0.43099 0.49197 0.0
C968 C 0.47636 0.44601 0.49543 0.0
C969 C 0.47376 0.45365 0.53956 0.0
C970 C 0.48167 0.44623 0.58042 0.0
C971 C 0.49223 0.43116 0.57722 0.0
H972 H 0.46557 0.46529 0.54211 0.0
H973 H 0.56532 0.31712 0.54618 0.0
H974 H 0.154 0.61587 0.32497 0.0
H975 H 0.12663 0.61089 0.37962 0.0
H976 H 0.15626 0.57214 0.46192 0.0
H977 H 0.18339 0.5768 0.40748 0.0
H978 H 0.10711 0.58036 0.389 0.0
H979 H 0.13977 0.56818 0.5755 0.0
H980 H 0.16515 0.58074 0.62261 0.0
H981 H 0.16278 0.63028 0.5427 0.0
H982 H 0.13715 0.61812 0.49566 0.0
H983 H 0.06085 0.5141 0.53621 0.0
H984 H 0.08258 0.53408 0.48904 0.0
H985 H 0.06777 0.57696 0.57714 0.0
H986 H 0.04601 0.55697 0.62498 0.0
H987 H 0.10531 0.57471 0.56654 0.0
H988 H 0.05385 0.57723 0.46351 0.0
H989 H 0.02781 0.56537 0.41732 0.0
H990 H 0.0666 0.5377 0.33075 0.0
H991 H 0.09285 0.54919 0.37685 0.0
C992 C 0.15478 0.60651 0.35521 0.0
C993 C 0.17086 0.59665 0.3616 0.0
C994 C 0.13916 0.60373 0.38647 0.0
C995 C 0.13941 0.59119 0.42493 0.0
C996 C 0.15584 0.58212 0.43304 0.0
C997 C 0.17141 0.58485 0.40181 0.0
C998 C 0.12197 0.58578 0.45285 0.0
C999 C 0.10662 0.57936 0.42784 0.0
C1000 C 0.12121 0.58472 0.50354 0.0
C1001 C 0.13657 0.59219 0.53188 0.0
C1002 C 0.14457 0.58179 0.56818 0.0
C1003 C 0.15903 0.58883 0.59484 0.0
C1004 C 0.1656 0.60629 0.58559 0.0
C1005 C 0.15771 0.61674 0.54973 0.0
C1006 C 0.14323 0.60977 0.52301 0.0
C1007 C 0.06202 0.52783 0.54526 0.0
C1008 C 0.05171 0.53394 0.58438 0.0
C1009 C 0.07439 0.53925 0.51812 0.0
C1010 C 0.07667 0.55704 0.52936 0.0
C1011 C 0.06616 0.56329 0.56783 0.0
C1012 C 0.0537 0.55186 0.59497 0.0
C1013 C 0.09089 0.56867 0.50254 0.0
C1014 C 0.10564 0.57615 0.52774 0.0
C1015 C 0.09105 0.57085 0.45203 0.0
C1016 C 0.07532 0.56404 0.42381 0.0
C1017 C 0.05682 0.56854 0.4348 0.0
C1018 C 0.04202 0.56189 0.4086 0.0
C1019 C 0.04555 0.55077 0.37115 0.0
C1020 C 0.06389 0.54632 0.35975 0.0
C1021 C 0.07874 0.55293 0.38585 0.0
H1022 H 0.03407 0.54563 0.35094 0.0
H1023 H 0.17681 0.61171 0.60625 0.0
H1024 H 0.98309 0.83138 0.95137 0.0
H1025 H 0.99882 0.85699 0.90896 0.0
H1026 H 0.95224 0.88888 0.94558 0.0
H1027 H 0.93611 0.86317 0.98642 0.0
H1028 H 0.96277 0.8952 0.85585 0.0
H1029 H 0.99345 0.89215 0.00452 0.0
H1030 H 0.01041 0.87807 0.07046 0.0
H1031 H 0.05619 0.86847 0.97306 0.0
H1032 H 0.03937 0.88228 0.90636 0.0
H1033 H 0.02348 0.97741 0.81694 0.0
H1034 H 0.01631 0.95168 0.87182 0.0
H1035 H 0.01406 0.91807 0.75179 0.0
H1036 H 0.02133 0.9435 0.69702 0.0
H1037 H 0.02782 0.91486 0.89028 0.0
H1038 H 0.96699 0.89924 0.76313 0.0
H1039 H 0.94795 0.91454 0.70338 0.0
H1040 H 0.96034 0.96402 0.76624 0.0
H1041 H 0.97884 0.94904 0.82716 0.0
C1042 C 0.97608 0.84378 0.94984 0.0
C1043 C 0.95835 0.84525 0.9723 0.0
C1044 C 0.9852 0.85847 0.92617 0.0
C1045 C 0.97684 0.87491 0.92484 0.0
C1046 C 0.95901 0.87634 0.94648 0.0
C1047 C 0.94986 0.86166 0.97002 0.0
C1048 C 0.98644 0.89053 0.89971 0.0
C1049 C 0.97699 0.89947 0.8634 0.0
C1050 C 0.00487 0.89633 0.9103 0.0
C1051 C 0.01508 0.88812 0.95036 0.0
C1052 C 0.00708 0.88693 0.99709 0.0
C1053 C 0.01667 0.87901 0.03462 0.0
C1054 C 0.03435 0.87234 0.02594 0.0
C1055 C 0.04249 0.87363 0.97972 0.0
C1056 C 0.03294 0.88152 0.94205 0.0
C1057 C 0.02229 0.96442 0.80248 0.0
C1058 C 0.02255 0.96248 0.75272 0.0
C1059 C 0.01819 0.94975 0.83385 0.0
C1060 C 0.01426 0.93313 0.81555 0.0
C1061 C 0.01683 0.93087 0.76639 0.0
C1062 C 0.02096 0.94543 0.73519 0.0
C1063 C 0.0043 0.91904 0.8457 0.0
C1064 C 0.01363 0.91048 0.88282 0.0
C1065 C 0.98559 0.91374 0.83648 0.0
C1066 C 0.97459 0.92299 0.79941 0.0
C1067 C 0.96563 0.91339 0.76428 0.0
C1068 C 0.95484 0.92201 0.73028 0.0
C1069 C 0.9529 0.94025 0.73108 0.0
C1070 C 0.96187 0.94992 0.76554 0.0
C1071 C 0.97256 0.94136 0.79976 0.0
H1072 H 0.94442 0.94689 0.70503 0.0
H1073 H 0.04176 0.86622 0.05504 0.0
H1074 H 0.65808 0.03049 0.0621 0.0
H1075 H 0.63084 0.03236 0.01235 0.0
H1076 H 0.6658 0.0545 0.8942 0.0
H1077 H 0.6933 0.05306 0.94441 0.0
H1078 H 0.63008 0.0704 0.90423 0.0
H1079 H 0.65573 0.013 0.8946 0.0
H1080 H 0.66767 0.98486 0.92613 0.0
H1081 H 0.61466 0.97201 0.99861 0.0
H1082 H 0.6025 0.00022 0.96817 0.0
H1083 H 0.56446 0.04541 0.72525 0.0
H1084 H 0.59089 0.05353 0.77454 0.0
H1085 H 0.56454 0.02354 0.89524 0.0
H1086 H 0.53869 0.01477 0.84545 0.0
H1087 H 0.59771 0.0127 0.87908 0.0
H1088 H 0.57184 0.07008 0.89079 0.0
H1089 H 0.55958 0.09816 0.85979 0.0
H1090 H 0.61194 0.11099 0.7841 0.0
H1091 H 0.62443 0.08287 0.81417 0.0
C1092 C 0.65998 0.03616 0.02592 0.0
C1093 C 0.67788 0.04161 0.00716 0.0
C1094 C 0.6444 0.0371 0.99745 0.0
C1095 C 0.64638 0.04341 0.94957 0.0
C1096 C 0.66404 0.04957 0.93113 0.0
C1097 C 0.67972 0.0486 0.95966 0.0
C1098 C 0.63015 0.04225 0.91827 0.0
C1099 C 0.62306 0.0578 0.89813 0.0
C1100 C 0.62096 0.0258 0.91102 0.0
C1101 C 0.62827 0.00882 0.92947 0.0
C1102 C 0.64668 0.00426 0.91764 0.0
C1103 C 0.65347 0.98828 0.93525 0.0
C1104 C 0.64195 0.97668 0.96446 0.0
C1105 C 0.62359 0.98102 0.97605 0.0
C1106 C 0.61673 0.997 0.95861 0.0
C1107 C 0.56409 0.04107 0.76274 0.0
C1108 C 0.54967 0.02944 0.78171 0.0
C1109 C 0.57918 0.0457 0.7909 0.0
C1110 C 0.57974 0.03909 0.83861 0.0
C1111 C 0.56449 0.02867 0.85844 0.0
C1112 C 0.54969 0.02374 0.83012 0.0
C1113 C 0.59705 0.04092 0.86614 0.0
C1114 C 0.60455 0.02538 0.88519 0.0
C1115 C 0.60648 0.05737 0.8724 0.0
C1116 C 0.599 0.07429 0.85436 0.0
C1117 C 0.58068 0.07882 0.86722 0.0
C1118 C 0.5737 0.09476 0.84988 0.0
C1119 C 0.58495 0.10633 0.81989 0.0
C1120 C 0.60323 0.10201 0.80729 0.0
C1121 C 0.61027 0.08608 0.82451 0.0
H1122 H 0.57952 0.11867 0.80651 0.0
H1123 H 0.64723 0.9643 0.978 0.0
H1124 H 0.56247 0.64969 0.91985 0.0
H1125 H 0.54699 0.62877 0.8684 0.0
H1126 H 0.49353 0.6502 0.9038 0.0
H1127 H 0.50907 0.67136 0.95501 0.0
H1128 H 0.49463 0.61357 0.92052 0.0
H1129 H 0.50833 0.65596 0.79311 0.0
H1130 H 0.52703 0.67766 0.74126 0.0
H1131 H 0.56406 0.63724 0.70093 0.0
H1132 H 0.5459 0.6154 0.75346 0.0
H1133 H 0.4863 0.5524 0.69875 0.0
H1134 H 0.48242 0.58079 0.7357 0.0
H1135 H 0.51347 0.56243 0.85668 0.0
H1136 H 0.51756 0.53424 0.81985 0.0
H1137 H 0.51295 0.60219 0.75267 0.0
H1138 H 0.49935 0.58267 0.95533 0.0
H1139 H 0.48028 0.56056 0.00495 0.0
H1140 H 0.44155 0.55551 0.8918 0.0
H1141 H 0.46021 0.57778 0.84173 0.0
C1142 C 0.54747 0.65013 0.91586 0.0
C1143 C 0.53692 0.66205 0.94127 0.0
C1144 C 0.53866 0.63828 0.88635 0.0
C1145 C 0.51914 0.63804 0.88218 0.0
C1146 C 0.50862 0.65029 0.90639 0.0
C1147 C 0.51749 0.66237 0.93539 0.0
C1148 C 0.50982 0.62369 0.85664 0.0
C1149 C 0.49836 0.61118 0.88354 0.0
C1150 C 0.51444 0.62082 0.80818 0.0
C1151 C 0.52573 0.63402 0.77738 0.0
C1152 C 0.52057 0.65173 0.7736 0.0
C1153 C 0.53108 0.66406 0.74403 0.0
C1154 C 0.54672 0.65884 0.71784 0.0
C1155 C 0.55193 0.64128 0.72124 0.0
C1156 C 0.54153 0.62891 0.7509 0.0
C1157 C 0.49179 0.55425 0.7339 0.0
C1158 C 0.5023 0.54119 0.75644 0.0
C1159 C 0.48961 0.57047 0.75483 0.0
C1160 C 0.49756 0.57365 0.799 0.0
C1161 C 0.50698 0.56016 0.82291 0.0
C1162 C 0.50941 0.5441 0.80173 0.0
C1163 C 0.49862 0.59166 0.81713 0.0
C1164 C 0.50867 0.60483 0.78902 0.0
C1165 C 0.49272 0.59511 0.86439 0.0
C1166 C 0.48125 0.58189 0.89467 0.0
C1167 C 0.48669 0.57696 0.94113 0.0
C1168 C 0.47597 0.56436 0.96932 0.0
C1169 C 0.45973 0.55662 0.95152 0.0
C1170 C 0.45416 0.56149 0.90551 0.0
C1171 C 0.46482 0.57408 0.87718 0.0
H1172 H 0.45146 0.54686 0.97339 0.0
H1173 H 0.55481 0.6684 0.69488 0.0
H1174 H 0.89397 0.40839 0.06102 0.0
H1175 H 0.91966 0.41305 0.00229 0.0
H1176 H 0.88394 0.39511 0.89159 0.0
H1177 H 0.85801 0.39001 0.95072 0.0
H1178 H 0.9394 0.39524 0.93537 0.0
H1179 H 0.89242 0.42582 0.7949 0.0
H1180 H 0.86105 0.43801 0.78808 0.0
H1181 H 0.86237 0.45339 0.93385 0.0
H1182 H 0.89386 0.44159 0.94118 0.0
H1183 H 0.99659 0.43692 0.73594 0.0
H1184 H 0.9732 0.41789 0.78206 0.0
H1185 H 0.95519 0.46289 0.85762 0.0
H1186 H 0.9783 0.48185 0.81229 0.0
H1187 H 0.92598 0.44423 0.81937 0.0
H1188 H 0.98115 0.43337 0.9119 0.0
H1189 H 0.01325 0.42344 0.92274 0.0
H1190 H 0.9966 0.37173 0.87936 0.0
H1191 H 0.96444 0.38144 0.86768 0.0
C1192 C 0.89165 0.40477 0.02464 0.0
C1193 C 0.87379 0.39899 0.0106 0.0
C1194 C 0.90642 0.40749 0.99098 0.0
C1195 C 0.90365 0.40463 0.94252 0.0
C1196 C 0.8863 0.39756 0.92881 0.0
C1197 C 0.87147 0.39477 0.96259 0.0
C1198 C 0.91805 0.41152 0.90641 0.0
C1199 C 0.93642 0.40572 0.90935 0.0
C1200 C 0.9142 0.4253 0.87274 0.0
C1201 C 0.89533 0.43255 0.86879 0.0
C1202 C 0.886 0.43181 0.82545 0.0
C1203 C 0.86822 0.43868 0.82148 0.0
C1204 C 0.85968 0.44639 0.86059 0.0
C1205 C 0.86896 0.44734 0.90366 0.0
C1206 C 0.88677 0.44057 0.90774 0.0
C1207 C 0.9878 0.44268 0.76286 0.0
C1208 C 0.98924 0.46091 0.7703 0.0
C1209 C 0.97445 0.43181 0.78903 0.0
C1210 C 0.9624 0.43905 0.82288 0.0
C1211 C 0.96424 0.4571 0.8313 0.0
C1212 C 0.97754 0.4679 0.80546 0.0
C1213 C 0.94738 0.42822 0.84903 0.0
C1214 C 0.92887 0.4333 0.84413 0.0
C1215 C 0.95118 0.414 0.88124 0.0
C1216 C 0.97048 0.40819 0.88832 0.0
C1217 C 0.98439 0.41993 0.90425 0.0
C1218 C 0.00258 0.41434 0.91064 0.0
C1219 C 0.00698 0.39699 0.90158 0.0
C1220 C 0.99318 0.38518 0.88625 0.0
C1221 C 0.97497 0.39072 0.87976 0.0
H1222 H 0.02107 0.39268 0.90656 0.0
H1223 H 0.8459 0.45167 0.85747 0.0
H1224 H 0.1436 0.17733 0.01078 0.0
H1225 H 0.13545 0.15158 0.96411 0.0
H1226 H 0.08327 0.14382 0.04549 0.0
H1227 H 0.09113 0.16963 0.09141 0.0
H1228 H 0.1076 0.11295 0.03977 0.0
H1229 H 0.07917 0.15844 0.94198 0.0
H1230 H 0.07951 0.18644 0.89345 0.0
H1231 H 0.12137 0.1672 0.79765 0.0
H1232 H 0.12148 0.13916 0.84608 0.0
H1233 H 0.05204 0.05078 0.92245 0.0
H1234 H 0.06667 0.07486 0.96428 0.0
H1235 H 0.10616 0.08529 0.84534 0.0
H1236 H 0.09085 0.06186 0.80202 0.0
H1237 H 0.09229 0.11461 0.86797 0.0
H1238 H 0.1194 0.0684 0.95837 0.0
H1239 H 0.12079 0.04036 0.00608 0.0
H1240 H 0.08458 0.06026 0.1148 0.0
H1241 H 0.08274 0.08835 0.06743 0.0
C1242 C 0.13026 0.17028 0.018 0.0
C1243 C 0.11791 0.17555 0.05434 0.0
C1244 C 0.12566 0.1556 0.99151 0.0
C1245 C 0.10881 0.1458 0.00163 0.0
C1246 C 0.09634 0.15122 0.03727 0.0
C1247 C 0.10076 0.16606 0.06308 0.0
C1248 C 0.10437 0.12952 0.97631 0.0
C1249 C 0.1041 0.11324 0.00229 0.0
C1250 C 0.10056 0.12996 0.92707 0.0
C1251 C 0.10051 0.1468 0.89801 0.0
C1252 C 0.0886 0.16026 0.91088 0.0
C1253 C 0.08867 0.17611 0.88332 0.0
C1254 C 0.1005 0.17862 0.84259 0.0
C1255 C 0.11225 0.16525 0.82927 0.0
C1256 C 0.11224 0.14937 0.85674 0.0
C1257 C 0.06395 0.05807 0.9053 0.0
C1258 C 0.07013 0.05443 0.85863 0.0
C1259 C 0.07247 0.07176 0.92955 0.0
C1260 C 0.08763 0.08191 0.90815 0.0
C1261 C 0.09448 0.07769 0.86262 0.0
C1262 C 0.08584 0.0641 0.83811 0.0
C1263 C 0.09514 0.09782 0.93156 0.0
C1264 C 0.09602 0.11411 0.90529 0.0
C1265 C 0.09981 0.09734 0.98045 0.0
C1266 C 0.10082 0.08045 0.00912 0.0
C1267 C 0.11161 0.06676 0.99227 0.0
C1268 C 0.1125 0.05086 0.01929 0.0
C1269 C 0.10275 0.04852 0.0634 0.0
C1270 C 0.09211 0.06209 0.08061 0.0
C1271 C 0.09117 0.07801 0.05371 0.0
H1272 H 0.10346 0.0362 0.08427 0.0
H1273 H 0.10053 0.1909 0.82128 0.0
H1274 H 0.33399 0.0418 0.99184 0.0
H1275 H 0.36077 0.04071 0.93507 0.0
H1276 H 0.36055 0.98408 0.95745 0.0
H1277 H 0.33391 0.98508 0.01429 0.0
H1278 H 0.39541 0.00018 0.96868 0.0
H1279 H 0.34686 0.00174 0.85345 0.0
H1280 H 0.31942 0.01382 0.81425 0.0
H1281 H 0.35066 0.06239 0.77817 0.0
H1282 H 0.37823 0.05068 0.81776 0.0
H1283 H 0.46369 0.97951 0.79647 0.0
H1284 H 0.43441 0.98156 0.84258 0.0
H1285 H 0.43266 0.03683 0.79964 0.0
H1286 H 0.46177 0.03467 0.75166 0.0
H1287 H 0.39874 0.02251 0.79893 0.0
H1288 H 0.44686 0.02221 0.91343 0.0
H1289 H 0.47464 0.01136 0.95373 0.0
H1290 H 0.44476 0.96243 0.99392 0.0
H1291 H 0.41687 0.97289 0.95327 0.0
C1292 C 0.33949 0.02909 0.98414 0.0
C1293 C 0.33175 0.01352 0.00753 0.0
C1294 C 0.35476 0.02848 0.95156 0.0
C1295 C 0.36268 0.0123 0.94193 0.0
C1296 C 0.35467 0.99671 0.96425 0.0
C1297 C 0.33931 0.99729 0.99642 0.0
C1298 C 0.38002 0.01169 0.91106 0.0
C1299 C 0.39606 0.00484 0.93137 0.0
C1300 C 0.38109 0.01836 0.86288 0.0
C1301 C 0.36455 0.0254 0.83902 0.0
C1302 C 0.34783 0.01506 0.83754 0.0
C1303 C 0.33226 0.02182 0.81517 0.0
C1304 C 0.33328 0.03888 0.79385 0.0
C1305 C 0.34988 0.04919 0.79476 0.0
C1306 C 0.36549 0.04249 0.81712 0.0
C1307 C 0.45714 0.99214 0.79685 0.0
C1308 C 0.46524 0.007 0.77085 0.0
C1309 C 0.44037 0.99331 0.82345 0.0
C1310 C 0.43146 0.00946 0.82569 0.0
C1311 C 0.43928 0.02424 0.79883 0.0
C1312 C 0.45597 0.02301 0.77155 0.0
C1313 C 0.41414 0.01084 0.85644 0.0
C1314 C 0.39812 0.01787 0.83625 0.0
C1315 C 0.41313 0.00456 0.90506 0.0
C1316 C 0.42982 0.99828 0.92994 0.0
C1317 C 0.44625 0.0091 0.93061 0.0
C1318 C 0.46201 0.00302 0.95354 0.0
C1319 C 0.46148 0.9862 0.97627 0.0
C1320 C 0.44516 0.97545 0.97625 0.0
C1321 C 0.42936 0.98145 0.95331 0.0
H1322 H 0.4737 0.98152 0.99399 0.0
H1323 H 0.32121 0.04409 0.77655 0.0
H1324 H 0.43829 0.331 0.97607 0.0
H1325 H 0.44265 0.35426 0.91185 0.0
H1326 H 0.47733 0.38494 0.00341 0.0
H1327 H 0.47269 0.36211 0.06728 0.0
H1328 H 0.45307 0.40521 0.96371 0.0
H1329 H 0.49507 0.36112 0.90823 0.0
H1330 H 0.50307 0.33167 0.88188 0.0
H1331 H 0.46496 0.33659 0.76695 0.0
H1332 H 0.45656 0.366 0.79303 0.0
H1333 H 0.51262 0.46292 0.82221 0.0
H1334 H 0.49893 0.4381 0.8717 0.0
H1335 H 0.46066 0.42605 0.76065 0.0
H1336 H 0.47426 0.45118 0.71061 0.0
H1337 H 0.47995 0.39605 0.80138 0.0
H1338 H 0.44236 0.44291 0.85179 0.0
H1339 H 0.43649 0.47284 0.87807 0.0
H1340 H 0.46818 0.46292 0.00359 0.0
H1341 H 0.4745 0.43302 0.97771 0.0
C1342 C 0.44693 0.34269 0.98211 0.0
C1343 C 0.455 0.34487 0.02672 0.0
C1344 C 0.44943 0.35595 0.94549 0.0
C1345 C 0.4603 0.3714 0.9528 0.0
C1346 C 0.4687 0.37327 0.99702 0.0
C1347 C 0.46606 0.3602 0.03351 0.0
C1348 C 0.46287 0.38596 0.91539 0.0
C1349 C 0.45899 0.40317 0.92827 0.0
C1350 C 0.46999 0.38331 0.8685 0.0
C1351 C 0.475 0.36563 0.85295 0.0
C1352 C 0.48827 0.35585 0.8776 0.0
C1353 C 0.4929 0.33918 0.86267 0.0
C1354 C 0.48448 0.33223 0.82288 0.0
C1355 C 0.47144 0.34197 0.79785 0.0
C1356 C 0.46674 0.35863 0.81267 0.0
C1357 C 0.50122 0.45508 0.80829 0.0
C1358 C 0.49447 0.45905 0.76257 0.0
C1359 C 0.4934 0.44092 0.83667 0.0
C1360 C 0.47873 0.43032 0.8199 0.0
C1361 C 0.47195 0.43412 0.77419 0.0
C1362 C 0.47965 0.44851 0.74585 0.0
C1363 C 0.47085 0.41521 0.85065 0.0
C1364 C 0.47366 0.39798 0.83649 0.0
C1365 C 0.46292 0.41781 0.89662 0.0
C1366 C 0.45898 0.43573 0.91265 0.0
C1367 C 0.44819 0.44714 0.88484 0.0
C1368 C 0.44476 0.4641 0.89969 0.0
C1369 C 0.45198 0.46979 0.94244 0.0
C1370 C 0.4626 0.4585 0.97049 0.0
C1371 C 0.46608 0.44153 0.95578 0.0
H1372 H 0.44932 0.48293 0.95386 0.0
H1373 H 0.48809 0.31933 0.81136 0.0
H1374 H 0.16301 0.54699 0.03004 0.0
H1375 H 0.14119 0.53337 0.97658 0.0
H1376 H 0.18738 0.51544 0.89101 0.0
H1377 H 0.20957 0.52961 0.94423 0.0
H1378 H 0.1599 0.52981 0.83578 0.0
H1379 H 0.16261 0.48584 0.96126 0.0
H1380 H 0.16278 0.47382 0.04465 0.0
H1381 H 0.10683 0.49079 0.06949 0.0
H1382 H 0.10642 0.50316 0.98645 0.0
H1383 H 0.0868 0.48367 0.71251 0.0
H1384 H 0.11524 0.48763 0.75844 0.0
H1385 H 0.08383 0.51479 0.86468 0.0
H1386 H 0.05555 0.51111 0.819 0.0
H1387 H 0.10812 0.48978 0.90356 0.0
H1388 H 0.10831 0.53816 0.78295 0.0
H1389 H 0.10817 0.55069 0.69999 0.0
H1390 H 0.15905 0.52493 0.66623 0.0
H1391 H 0.15932 0.51202 0.74888 0.0
C1392 C 0.16861 0.54033 0.9996 0.0
C1393 C 0.18805 0.53952 0.99116 0.0
C1394 C 0.15609 0.53235 0.96936 0.0
C1395 C 0.16265 0.52317 0.9302 0.0
C1396 C 0.18204 0.52238 0.92125 0.0
C1397 C 0.19467 0.53039 0.95174 0.0
C1398 C 0.14894 0.51485 0.89861 0.0
C1399 C 0.14885 0.52068 0.85025 0.0
C1400 C 0.13444 0.50305 0.91763 0.0
C1401 C 0.13452 0.4955 0.96759 0.0
C1402 C 0.15038 0.48711 0.98456 0.0
C1403 C 0.15052 0.48022 0.03178 0.0
C1404 C 0.13483 0.48155 0.06236 0.0
C1405 C 0.11897 0.48975 0.04575 0.0
C1406 C 0.11877 0.49668 0.99857 0.0
C1407 C 0.08594 0.49031 0.74594 0.0
C1408 C 0.06898 0.49715 0.7621 0.0
C1409 C 0.10219 0.4926 0.77198 0.0
C1410 C 0.10161 0.50157 0.81477 0.0
C1411 C 0.08454 0.50782 0.83175 0.0
C1412 C 0.06842 0.50576 0.80552 0.0
C1413 C 0.11878 0.50521 0.84139 0.0
C1414 C 0.11948 0.4985 0.88881 0.0
C1415 C 0.13384 0.51613 0.82146 0.0
C1416 C 0.13369 0.52392 0.77186 0.0
C1417 C 0.11936 0.53503 0.7577 0.0
C1418 C 0.11928 0.54223 0.71077 0.0
C1419 C 0.13356 0.53856 0.67781 0.0
C1420 C 0.14798 0.52772 0.69177 0.0
C1421 C 0.1481 0.52046 0.73864 0.0
H1422 H 0.13346 0.54413 0.64151 0.0
H1423 H 0.13497 0.47622 0.09891 0.0
H1424 H 0.90846 0.83246 0.28489 0.0
H1425 H 0.91713 0.85665 0.33482 0.0
H1426 H 0.93839 0.81975 0.43952 0.0
H1427 H 0.9293 0.79513 0.38986 0.0
H1428 H 0.91852 0.84869 0.47918 0.0
H1429 H 0.96852 0.83865 0.36563 0.0
H1430 H 0.98212 0.83406 0.2852 0.0
H1431 H 0.96451 0.88501 0.23564 0.0
H1432 H 0.95052 0.88978 0.31562 0.0
H1433 H 0.97416 0.91342 0.59207 0.0
H1434 H 0.96294 0.8871 0.55287 0.0
H1435 H 0.94901 0.9195 0.42917 0.0
H1436 H 0.96057 0.94587 0.46799 0.0
H1437 H 0.96583 0.89146 0.40184 0.0
H1438 H 0.91518 0.90166 0.51286 0.0
H1439 H 0.90074 0.90665 0.59214 0.0
H1440 H 0.91849 0.85622 0.64548 0.0
H1441 H 0.93326 0.85104 0.56665 0.0
C1442 C 0.91443 0.82932 0.31918 0.0
C1443 C 0.91813 0.81179 0.33339 0.0
C1444 C 0.91955 0.84324 0.34747 0.0
C1445 C 0.9286 0.83999 0.39047 0.0
C1446 C 0.93146 0.82249 0.40628 0.0
C1447 C 0.92635 0.80848 0.3778 0.0
C1448 C 0.93626 0.85504 0.41662 0.0
C1449 C 0.92907 0.85792 0.46271 0.0
C1450 C 0.94972 0.86724 0.39452 0.0
C1451 C 0.95833 0.8645 0.34652 0.0
C1452 C 0.96742 0.84882 0.33749 0.0
C1453 C 0.97522 0.84619 0.29199 0.0
C1454 C 0.97414 0.85922 0.2553 0.0
C1455 C 0.96531 0.87492 0.26408 0.0
C1456 C 0.95746 0.8776 0.3095 0.0
C1457 C 0.96857 0.91494 0.55665 0.0
C1458 C 0.96815 0.93172 0.53315 0.0
C1459 C 0.96213 0.89989 0.53432 0.0
C1460 C 0.95485 0.90132 0.48834 0.0
C1461 C 0.95454 0.91806 0.46467 0.0
C1462 C 0.96117 0.93311 0.48682 0.0
C1463 C 0.94794 0.88536 0.46442 0.0
C1464 C 0.95532 0.88226 0.4186 0.0
C1465 C 0.93456 0.87306 0.48673 0.0
C1466 C 0.92548 0.87604 0.53398 0.0
C1467 C 0.91611 0.89169 0.54158 0.0
C1468 C 0.90785 0.89454 0.58643 0.0
C1469 C 0.90874 0.88178 0.62386 0.0
C1470 C 0.91783 0.86611 0.61647 0.0
C1471 C 0.92613 0.86319 0.5717 0.0
H1472 H 0.90236 0.88402 0.65857 0.0
H1473 H 0.98018 0.85716 0.2201 0.0
H1474 H 0.70966 0.97792 0.40735 0.0
H1475 H 0.6827 0.97423 0.464 0.0
H1476 H 0.66213 0.02384 0.41084 0.0
H1477 H 0.6886 0.02747 0.35391 0.0
H1478 H 0.6592 0.021 0.50719 0.0
H1479 H 0.644 0.98457 0.37519 0.0
H1480 H 0.64907 0.96069 0.31982 0.0
H1481 H 0.64836 0.92273 0.43872 0.0
H1482 H 0.64353 0.94644 0.49487 0.0
H1483 H 0.56335 0.01949 0.56574 0.0
H1484 H 0.59342 0.01862 0.52256 0.0
H1485 H 0.60457 0.96948 0.59795 0.0
H1486 H 0.57424 0.9702 0.64164 0.0
H1487 H 0.61444 0.96957 0.50036 0.0
H1488 H 0.6259 0.00581 0.63175 0.0
H1489 H 0.61985 0.02975 0.68623 0.0
H1490 H 0.62738 0.0681 0.56866 0.0
H1491 H 0.63316 0.04436 0.51329 0.0
C1492 C 0.6994 0.98804 0.4077 0.0
C1493 C 0.70147 0.00305 0.37606 0.0
C1494 C 0.684 0.98592 0.44018 0.0
C1495 C 0.67031 0.99872 0.44156 0.0
C1496 C 0.67255 0.01384 0.41076 0.0
C1497 C 0.68784 0.01594 0.37832 0.0
C1498 C 0.65335 0.9964 0.47404 0.0
C1499 C 0.64939 0.00978 0.50551 0.0
C1500 C 0.64075 0.98154 0.47294 0.0
C1501 C 0.64365 0.9673 0.43924 0.0
C1502 C 0.6451 0.97115 0.38955 0.0
C1503 C 0.64789 0.95765 0.35802 0.0
C1504 C 0.6491 0.94021 0.37575 0.0
C1505 C 0.64746 0.93624 0.42505 0.0
C1506 C 0.64469 0.94971 0.45674 0.0
C1507 C 0.5721 0.00842 0.57316 0.0
C1508 C 0.56638 0.99496 0.60745 0.0
C1509 C 0.58936 0.00799 0.54848 0.0
C1510 C 0.60139 0.99412 0.55749 0.0
C1511 C 0.59554 0.98035 0.5906 0.0
C1512 C 0.57823 0.9808 0.61558 0.0
C1513 C 0.62013 0.99436 0.53256 0.0
C1514 C 0.62441 0.98063 0.50258 0.0
C1515 C 0.63305 0.0089 0.535 0.0
C1516 C 0.62984 0.02327 0.56829 0.0
C1517 C 0.62615 0.01934 0.61744 0.0
C1518 C 0.62278 0.03287 0.64849 0.0
C1519 C 0.6232 0.05043 0.6309 0.0
C1520 C 0.62705 0.05449 0.58223 0.0
C1521 C 0.63039 0.041 0.551 0.0
H1522 H 0.62058 0.06089 0.655 0.0
H1523 H 0.65126 0.92977 0.35129 0.0
H1524 H 0.60431 0.66743 0.36618 0.0
H1525 H 0.60444 0.64548 0.43373 0.0
H1526 H 0.54512 0.63505 0.41997 0.0
H1527 H 0.54487 0.65715 0.3541 0.0
H1528 H 0.55301 0.63341 0.51073 0.0
H1529 H 0.5796 0.61038 0.36406 0.0
H1530 H 0.60289 0.61008 0.29702 0.0
H1531 H 0.64699 0.60487 0.3967 0.0
H1532 H 0.62395 0.60535 0.46433 0.0
H1533 H 0.52559 0.54555 0.55001 0.0
H1534 H 0.53716 0.57325 0.5104 0.0
H1535 H 0.58813 0.5708 0.58813 0.0
H1536 H 0.57651 0.54286 0.62895 0.0
H1537 H 0.59153 0.58159 0.48265 0.0
H1538 H 0.56089 0.59657 0.62872 0.0
H1539 H 0.53529 0.5939 0.68999 0.0
H1540 H 0.49676 0.6132 0.58724 0.0
H1541 H 0.52199 0.61534 0.52476 0.0
C1542 C 0.59125 0.66075 0.37856 0.0
C1543 C 0.57462 0.66381 0.35456 0.0
C1544 C 0.59136 0.64812 0.41682 0.0
C1545 C 0.57485 0.63836 0.43142 0.0
C1546 C 0.55806 0.64232 0.4094 0.0
C1547 C 0.55794 0.65489 0.37149 0.0
C1548 C 0.57487 0.62304 0.46664 0.0
C1549 C 0.56155 0.62215 0.50479 0.0
C1550 C 0.58631 0.60845 0.45973 0.0
C1551 C 0.60012 0.60815 0.41916 0.0
C1552 C 0.59428 0.6093 0.37163 0.0
C1553 C 0.60743 0.60908 0.33355 0.0
C1554 C 0.62642 0.60752 0.34259 0.0
C1555 C 0.63229 0.60613 0.38975 0.0
C1556 C 0.6192 0.60638 0.42796 0.0
C1557 C 0.53936 0.55072 0.55854 0.0
C1558 C 0.55007 0.54202 0.593 0.0
C1559 C 0.54593 0.5666 0.53585 0.0
C1560 C 0.56337 0.57415 0.54682 0.0
C1561 C 0.57458 0.56517 0.57941 0.0
C1562 C 0.56792 0.54924 0.60263 0.0
C1563 C 0.56915 0.5918 0.52515 0.0
C1564 C 0.5835 0.5931 0.48964 0.0
C1565 C 0.55847 0.60669 0.534 0.0
C1566 C 0.54336 0.60604 0.57193 0.0
C1567 C 0.54694 0.60015 0.61907 0.0
C1568 C 0.53247 0.59872 0.65405 0.0
C1569 C 0.5144 0.60343 0.64258 0.0
C1570 C 0.51077 0.60958 0.59609 0.0
C1571 C 0.52515 0.61087 0.56084 0.0
H1572 H 0.50319 0.60229 0.66962 0.0
H1573 H 0.63658 0.60735 0.31307 0.0
H1574 H 0.83887 0.48124 0.3758 0.0
H1575 H 0.85968 0.49392 0.43401 0.0
H1576 H 0.87962 0.44211 0.46938 0.0
H1577 H 0.85808 0.42927 0.41372 0.0
H1578 H 0.87945 0.45995 0.54591 0.0
H1579 H 0.90171 0.47167 0.38129 0.0
H1580 H 0.89966 0.4837 0.29822 0.0
H1581 H 0.89443 0.5359 0.34913 0.0
H1582 H 0.89622 0.52412 0.43258 0.0
H1583 H 0.97639 0.46907 0.57759 0.0
H1584 H 0.94602 0.46477 0.54163 0.0
H1585 H 0.93182 0.51764 0.57488 0.0
H1586 H 0.96221 0.52199 0.61233 0.0
H1587 H 0.92558 0.50485 0.47335 0.0
H1588 H 0.91053 0.4915 0.63971 0.0
H1589 H 0.91535 0.47752 0.71949 0.0
H1590 H 0.9096 0.42618 0.66188 0.0
H1591 H 0.90508 0.43984 0.58154 0.0
C1592 C 0.84726 0.47248 0.39703 0.0
C1593 C 0.84707 0.45426 0.38938 0.0
C1594 C 0.85932 0.47978 0.42995 0.0
C1595 C 0.87162 0.46905 0.45517 0.0
C1596 C 0.87042 0.45072 0.45011 0.0
C1597 C 0.85823 0.4434 0.4178 0.0
C1598 C 0.88689 0.47679 0.48342 0.0
C1599 C 0.88947 0.46982 0.53006 0.0
C1600 C 0.89988 0.48991 0.46319 0.0
C1601 C 0.89884 0.497 0.41312 0.0
C1602 C 0.89999 0.4857 0.37475 0.0
C1603 C 0.89889 0.49247 0.32762 0.0
C1604 C 0.89685 0.51054 0.31841 0.0
C1605 C 0.89596 0.52189 0.35632 0.0
C1606 C 0.89701 0.51518 0.40353 0.0
C1607 C 0.96691 0.47987 0.577 0.0
C1608 C 0.9717 0.49589 0.59777 0.0
C1609 C 0.94953 0.47734 0.55669 0.0
C1610 C 0.93669 0.49083 0.55612 0.0
C1611 C 0.94157 0.50707 0.57533 0.0
C1612 C 0.9589 0.50952 0.59657 0.0
C1613 C 0.91826 0.48767 0.53499 0.0
C1614 C 0.9152 0.49541 0.48966 0.0
C1615 C 0.90506 0.47502 0.55604 0.0
C1616 C 0.90759 0.46672 0.60446 0.0
C1617 C 0.91045 0.47723 0.64393 0.0
C1618 C 0.9131 0.46936 0.68929 0.0
C1619 C 0.91282 0.45097 0.69573 0.0
C1620 C 0.90983 0.44042 0.65684 0.0
C1621 C 0.9072 0.44822 0.61138 0.0
H1622 H 0.91489 0.44491 0.73085 0.0
H1623 H 0.89601 0.51576 0.2819 0.0
loop_
_geom_bond_atom_site_label_1
_geom_bond_atom_site_label_2
_geom_bond_distance
_geom_bond_site_symmetry_2
_ccdc_geom_bond_type
C0 C1 1.384 . S
C0 H13 0.947 . S
C0 C35 1.382 . S
C1 C0 1.384 . S
C1 C2 1.378 . S
C2 C1 1.378 . S
C2 C3 1.378 . S
C2 H14 0.952 . S
C3 C2 1.378 . S
C3 H15 0.950 . S
C3 C34 1.383 . S
H4 C23 0.947 . S
H5 C24 0.946 . S
H6 C26 0.953 . S
H7 C27 0.945 . S
H8 C29 0.952 . S
H9 C30 0.949 . S
H10 C32 0.950 . S
H11 C33 0.948 . S
H12 C35 0.951 . S
H13 C0 0.947 . S
H14 C2 0.952 . S
H15 C3 0.950 . S
N16 C19 1.382 . S
N16 C21 1.363 . S
N17 C19 1.371 . S
N17 C20 1.372 . S
N18 C20 1.361 . S
N18 C21 1.377 . S
C19 N16 1.382 . S
C19 N17 1.371 . S
C19 C22 1.480 . S
C20 N17 1.372 . S
C20 N18 1.361 . S
C20 C28 1.457 . S
C21 N16 1.363 . S
C21 N18 1.377 . S
C21 C34 1.479 . S
C22 C19 1.480 . S
C22 C23 1.383 . S
C22 C27 1.385 . S
C23 H4 0.947 . S
C23 C22 1.383 . S
C23 C24 1.388 . S
C24 H5 0.946 . S
C24 C23 1.388 . S
C24 C25 1.384 . S
C25 C24 1.384 . S
C25 C26 1.377 . S
C26 H6 0.953 . S
C26 C25 1.377 . S
C26 C27 1.369 . S
C27 H7 0.945 . S
C27 C22 1.385 . S
C27 C26 1.369 . S
C28 C20 1.457 . S
C28 C29 1.372 1_554 S
C28 C33 1.364 . S
C29 H8 0.952 . S
C29 C28 1.372 1_556 S
C29 C30 1.389 . S
C30 H9 0.949 . S
C30 C29 1.389 . S
C30 C31 1.387 . S
C31 C30 1.387 . S
C31 C32 1.372 1_556 S
C32 H10 0.950 . S
C32 C31 1.372 1_554 S
C32 C33 1.379 . S
C33 H11 0.948 . S
C33 C28 1.364 . S
C33 C32 1.379 . S
C34 C3 1.383 . S
C34 C21 1.479 . S
C34 C35 1.398 . S
C35 C0 1.382 . S
C35 H12 0.951 . S
C35 C34 1.398 . S
C36 C37 1.384 . S
C36 H49 0.947 . S
C36 C71 1.382 . S
C37 C36 1.384 . S
C37 C38 1.378 . S
C38 C37 1.378 . S
C38 C39 1.378 . S
C38 H50 0.952 . S
C39 C38 1.378 . S
C39 H51 0.950 . S
C39 C70 1.383 . S
H40 C59 0.947 . S
H41 C60 0.946 . S
H42 C62 0.953 . S
H43 C63 0.945 . S
H44 C65 0.952 . S
H45 C66 0.949 . S
H46 C68 0.950 . S
H47 C69 0.948 . S
H48 C71 0.951 . S
H49 C36 0.947 . S
H50 C38 0.952 . S
H51 C39 0.950 . S
N52 C55 1.382 1_554 S
N52 C57 1.363 . S
N53 C55 1.371 . S
N53 C56 1.372 . S
N54 C56 1.361 1_554 S
N54 C57 1.377 . S
C55 N52 1.382 1_556 S
C55 N53 1.371 . S
C55 C58 1.480 . S
C56 N53 1.372 . S
C56 N54 1.361 1_556 S
C56 C64 1.457 . S
C57 N52 1.363 . S
C57 N54 1.377 . S
C57 C70 1.479 . S
C58 C55 1.480 . S
C58 C59 1.383 1_556 S
C58 C63 1.385 . S
C59 H40 0.947 . S
C59 C58 1.383 1_554 S
C59 C60 1.388 . S
C60 H41 0.946 . S
C60 C59 1.388 . S
C60 C61 1.384 1_554 S
C61 C60 1.384 1_556 S
C61 C62 1.377 . S
C62 H42 0.953 . S
C62 C61 1.377 . S
C62 C63 1.369 . S
C63 H43 0.945 . S
C63 C58 1.385 . S
C63 C62 1.369 . S
C64 C56 1.457 . S
C64 C65 1.372 . S
C64 C69 1.364 . S
C65 H44 0.952 . S
C65 C64 1.372 . S
C65 C66 1.389 . S
C66 H45 0.949 . S
C66 C65 1.389 . S
C66 C67 1.387 . S
C67 C66 1.387 . S
C67 C68 1.372 . S
C68 H46 0.950 . S
C68 C67 1.372 . S
C68 C69 1.379 . S
C69 H47 0.948 . S
C69 C64 1.364 . S
C69 C68 1.379 . S
C70 C39 1.383 . S
C70 C57 1.479 . S
C70 C71 1.398 . S
C71 C36 1.382 . S
C71 H48 0.951 . S
C71 C70 1.398 . S
C72 C73 1.381 1_565 S
C72 H85 0.947 . S
C72 C107 1.382 1_565 S
C73 C72 1.381 1_545 S
C73 C74 1.384 . S
C74 C73 1.384 . S
C74 C75 1.378 . S
C74 H86 0.952 . S
C75 C74 1.378 . S
C75 H87 0.950 . S
C75 C106 1.383 . S
H76 C95 0.947 . S
H77 C96 0.952 . S
H78 C98 0.953 . S
H79 C99 0.945 . S
H80 C101 0.949 1_565 S
H81 C102 0.959 . S
H82 C104 0.950 . S
H83 C105 0.948 . S
H84 C107 0.952 1_565 S
H85 C72 0.947 . S
H86 C74 0.952 . S
H87 C75 0.950 . S
N88 C91 1.382 . S
N88 C93 1.363 . S
N89 C91 1.371 . S
N89 C92 1.372 . S
N90 C92 1.361 . S
N90 C93 1.377 . S
C91 N88 1.382 . S
C91 N89 1.371 . S
C91 C94 1.480 . S
C92 N89 1.372 . S
C92 N90 1.361 . S
C92 C100 1.461 . S
C93 N88 1.363 . S
C93 N90 1.377 . S
C93 C106 1.479 . S
C94 C91 1.480 . S
C94 C95 1.383 . S
C94 C99 1.385 1_554 S
C95 H76 0.947 . S
C95 C94 1.383 . S
C95 C96 1.384 1_545 S
C96 H77 0.952 . S
C96 C95 1.384 1_565 S
C96 C97 1.383 1_565 S
C97 C96 1.383 1_545 S
C97 C98 1.377 1_554 S
C98 H78 0.953 . S
C98 C97 1.377 1_556 S
C98 C99 1.369 . S
C99 H79 0.945 . S
C99 C94 1.385 1_556 S
C99 C98 1.369 . S
C100 C92 1.461 . S
C100 C101 1.371 1_554 S
C100 C105 1.366 . S
C101 H80 0.949 1_545 S
C101 C100 1.371 1_556 S
C101 C102 1.386 1_545 S
C102 H81 0.959 . S
C102 C101 1.386 1_565 S
C102 C103 1.381 1_565 S
C103 C102 1.381 1_545 S
C103 C104 1.372 . S
C104 H82 0.950 . S
C104 C103 1.372 . S
C104 C105 1.379 1_556 S
C105 H83 0.948 . S
C105 C100 1.366 . S
C105 C104 1.379 1_554 S
C106 C75 1.383 . S
C106 C93 1.479 . S
C106 C107 1.398 . S
C107 C72 1.382 1_545 S
C107 H84 0.952 1_545 S
C107 C106 1.398 . S
C108 C109 1.384 . S
C108 H121 0.947 . S
C108 C143 1.382 1_556 S
C109 C108 1.384 . S
C109 C110 1.378 . S
C110 C109 1.378 . S
C110 C111 1.378 . S
C110 H122 0.952 . S
C111 C110 1.378 . S
C111 H123 0.950 . S
C111 C142 1.383 1_556 S
H112 C131 0.947 1_556 S
H113 C132 0.944 . S
H114 C134 0.953 . S
H115 C135 0.945 . S
H116 C137 0.952 . S
H117 C138 0.949 . S
H118 C140 0.950 . S
H119 C141 0.948 . S
H120 C143 0.951 . S
H121 C108 0.947 . S
H122 C110 0.952 . S
H123 C111 0.950 . S
N124 C127 1.382 . S
N124 C129 1.363 . S
N125 C127 1.371 . S
N125 C128 1.372 . S
N126 C128 1.361 . S
N126 C129 1.377 . S
C127 N124 1.382 . S
C127 N125 1.371 . S
C127 C130 1.480 . S
C128 N125 1.372 . S
C128 N126 1.361 . S
C128 C136 1.457 . S
C129 N124 1.363 . S
C129 N126 1.377 . S
C129 C142 1.479 . S
C130 C127 1.480 . S
C130 C131 1.383 . S
C130 C135 1.385 . S
C131 H112 0.947 1_554 S
C131 C130 1.383 . S
C131 C132 1.389 1_554 S
C132 H113 0.944 . S
C132 C131 1.389 1_556 S
C132 C133 1.385 1_556 S
C133 C132 1.385 1_554 S
C133 C134 1.377 . S
C134 H114 0.953 . S
C134 C133 1.377 . S
C134 C135 1.369 . S
C135 H115 0.945 . S
C135 C130 1.385 . S
C135 C134 1.369 . S
C136 C128 1.457 . S
C136 C137 1.372 . S
C136 C141 1.364 . S
C137 H116 0.952 . S
C137 C136 1.372 . S
C137 C138 1.389 . S
C138 H117 0.949 . S
C138 C137 1.389 . S
C138 C139 1.387 . S
C139 C138 1.387 . S
C139 C140 1.372 . S
C140 H118 0.950 . S
C140 C139 1.372 . S
C140 C141 1.379 . S
C141 H119 0.948 . S
C141 C136 1.364 . S
C141 C140 1.379 . S
C142 C111 1.383 1_554 S
C142 C129 1.479 . S
C142 C143 1.398 . S
C143 C108 1.382 1_554 S
C143 H120 0.951 . S
C143 C142 1.398 . S
C144 C145 1.384 . S
C144 H157 0.947 . S
C144 C179 1.382 . S
C145 C144 1.384 . S
C145 C146 1.378 . S
C146 C145 1.378 . S
C146 C147 1.378 . S
C146 H158 0.952 . S
C147 C146 1.378 . S
C147 H159 0.950 . S
C147 C178 1.383 . S
H148 C167 0.947 . S
H149 C168 0.946 . S
H150 C170 0.953 . S
H151 C171 0.945 . S
H152 C173 0.952 . S
H153 C174 0.949 . S
H154 C176 0.950 . S
H155 C177 0.948 . S
H156 C179 0.951 . S
H157 C144 0.947 . S
H158 C146 0.952 . S
H159 C147 0.950 . S
N160 C163 1.382 . S
N160 C165 1.363 . S
N161 C163 1.371 . S
N161 C164 1.372 . S
N162 C164 1.361 . S
N162 C165 1.377 . S
C163 N160 1.382 . S
C163 N161 1.371 . S
C163 C166 1.480 . S
C164 N161 1.372 . S
C164 N162 1.361 . S
C164 C172 1.457 . S
C165 N160 1.363 . S
C165 N162 1.377 . S
C165 C178 1.479 . S
C166 C163 1.480 . S
C166 C167 1.383 . S
C166 C171 1.385 . S
C167 H148 0.947 . S
C167 C166 1.383 . S
C167 C168 1.388 . S
C168 H149 0.946 . S
C168 C167 1.388 . S
C168 C169 1.384 . S
C169 C168 1.384 . S
C169 C170 1.377 . S
C170 H150 0.953 . S
C170 C169 1.377 . S
C170 C171 1.369 . S
C171 H151 0.945 . S
C171 C166 1.385 . S
C171 C170 1.369 . S
C172 C164 1.457 . S
C172 C173 1.372 . S
C172 C177 1.364 . S
C173 H152 0.952 . S
C173 C172 1.372 . S
C173 C174 1.389 . S
C174 H153 0.949 . S
C174 C173 1.389 . S
C174 C175 1.387 . S
C175 C174 1.387 . S
C175 C176 1.372 . S
C176 H154 0.950 . S
C176 C175 1.372 . S
C176 C177 1.379 . S
C177 H155 0.948 . S
C177 C172 1.364 . S
C177 C176 1.379 . S
C178 C147 1.383 . S
C178 C165 1.479 . S
C178 C179 1.398 . S
C179 C144 1.382 . S
C179 H156 0.951 . S
C179 C178 1.398 . S
C180 C181 1.384 . S
C180 H193 0.947 . S
C180 C215 1.382 . S
C181 C180 1.384 . S
C181 C182 1.378 . S
C182 C181 1.378 . S
C182 C183 1.378 . S
C182 H194 0.952 . S
C183 C182 1.378 . S
C183 H195 0.950 . S
C183 C214 1.383 . S
H184 C203 0.947 . S
H185 C204 0.946 . S
H186 C206 0.953 . S
H187 C207 0.945 . S
H188 C209 0.952 . S
H189 C210 0.949 . S
H190 C212 0.950 . S
H191 C213 0.948 . S
H192 C215 0.951 . S
H193 C180 0.947 . S
H194 C182 0.952 . S
H195 C183 0.950 . S
N196 C199 1.382 . S
N196 C201 1.363 . S
N197 C199 1.371 . S
N197 C200 1.372 . S
N198 C200 1.361 . S
N198 C201 1.377 . S
C199 N196 1.382 . S
C199 N197 1.371 . S
C199 C202 1.480 . S
C200 N197 1.372 . S
C200 N198 1.361 . S
C200 C208 1.457 . S
C201 N196 1.363 . S
C201 N198 1.377 . S
C201 C214 1.479 . S
C202 C199 1.480 . S
C202 C203 1.383 . S
C202 C207 1.385 . S
C203 H184 0.947 . S
C203 C202 1.383 . S
C203 C204 1.388 . S
C204 H185 0.946 . S
C204 C203 1.388 . S
C204 C205 1.384 . S
C205 C204 1.384 . S
C205 C206 1.377 . S
C206 H186 0.953 . S
C206 C205 1.377 . S
C206 C207 1.369 . S
C207 H187 0.945 . S
C207 C202 1.385 . S
C207 C206 1.369 . S
C208 C200 1.457 . S
C208 C209 1.372 . S
C208 C213 1.364 . S
C209 H188 0.952 . S
C209 C208 1.372 . S
C209 C210 1.389 . S
C210 H189 0.949 . S
C210 C209 1.389 . S
C210 C211 1.387 . S
C211 C210 1.387 . S
C211 C212 1.372 . S
C212 H190 0.950 . S
C212 C211 1.372 . S
C212 C213 1.379 . S
C213 H191 0.948 . S
C213 C208 1.364 . S
C213 C212 1.379 . S
C214 C183 1.383 . S
C214 C201 1.479 . S
C214 C215 1.398 . S
C215 C180 1.382 . S
C215 H192 0.951 . S
C215 C214 1.398 . S
C216 C217 1.384 . S
C216 H229 0.948 1_545 S
C216 C251 1.381 . S
C217 C216 1.384 . S
C217 C218 1.378 . S
C218 C217 1.378 . S
C218 C219 1.378 . S
C218 H230 0.952 . S
C219 C218 1.378 . S
C219 H231 0.950 . S
C219 C250 1.383 . S
H220 C239 0.947 . S
H221 C240 0.948 . S
H222 C242 0.953 . S
H223 C243 0.945 . S
H224 C245 0.949 1_565 S
H225 C246 0.952 . S
H226 C248 0.950 . S
H227 C249 0.948 . S
H228 C251 0.950 1_565 S
H229 C216 0.948 1_565 S
H230 C218 0.952 . S
H231 C219 0.950 . S
N232 C235 1.382 . S
N232 C237 1.363 . S
N233 C235 1.371 . S
N233 C236 1.372 . S
N234 C236 1.361 . S
N234 C237 1.377 . S
C235 N232 1.382 . S
C235 N233 1.371 . S
C235 C238 1.480 . S
C236 N233 1.372 . S
C236 N234 1.361 . S
C236 C244 1.457 . S
C237 N232 1.363 . S
C237 N234 1.377 . S
C237 C250 1.479 . S
C238 C235 1.480 . S
C238 C239 1.383 . S
C238 C243 1.385 . S
C239 H220 0.947 . S
C239 C238 1.383 . S
C239 C240 1.388 1_545 S
C240 H221 0.948 . S
C240 C239 1.388 1_565 S
C240 C241 1.382 1_565 S
C241 C240 1.382 1_545 S
C241 C242 1.377 . S
C242 H222 0.953 . S
C242 C241 1.377 . S
C242 C243 1.369 . S
C243 H223 0.945 . S
C243 C238 1.385 . S
C243 C242 1.369 . S
C244 C236 1.457 . S
C244 C245 1.377 . S
C244 C249 1.364 . S
C245 H224 0.949 1_545 S
C245 C244 1.377 . S
C245 C246 1.387 1_545 S
C246 H225 0.952 . S
C246 C245 1.387 1_565 S
C246 C247 1.385 1_565 S
C247 C246 1.385 1_545 S
C247 C248 1.372 . S
C248 H226 0.950 . S
C248 C247 1.372 . S
C248 C249 1.379 . S
C249 H227 0.948 . S
C249 C244 1.364 . S
C249 C248 1.379 . S
C250 C219 1.383 . S
C250 C237 1.479 . S
C250 C251 1.400 . S
C251 C216 1.381 . S
C251 H228 0.950 1_545 S
C251 C250 1.400 . S
C252 C253 1.384 . S
C252 H265 0.947 . S
C252 C287 1.382 . S
C253 C252 1.384 . S
C253 C254 1.378 . S
C254 C253 1.378 . S
C254 C255 1.378 . S
C254 H266 0.952 . S
C255 C254 1.378 . S
C255 H267 0.950 . S
C255 C286 1.383 . S
H256 C275 0.947 . S
H257 C276 0.946 . S
H258 C278 0.953 . S
H259 C279 0.945 . S
H260 C281 0.952 . S
H261 C282 0.949 . S
H262 C284 0.950 . S
H263 C285 0.948 . S
H264 C287 0.951 . S
H265 C252 0.947 . S
H266 C254 0.952 . S
H267 C255 0.950 . S
N268 C271 1.382 . S
N268 C273 1.363 . S
N269 C271 1.371 . S
N269 C272 1.372 . S
N270 C272 1.361 . S
N270 C273 1.377 . S
C271 N268 1.382 . S
C271 N269 1.371 . S
C271 C274 1.480 . S
C272 N269 1.372 . S
C272 N270 1.361 . S
C272 C280 1.457 . S
C273 N268 1.363 . S
C273 N270 1.377 . S
C273 C286 1.479 . S
C274 C271 1.480 . S
C274 C275 1.383 . S
C274 C279 1.385 . S
C275 H256 0.947 . S
C275 C274 1.383 . S
C275 C276 1.388 . S
C276 H257 0.946 . S
C276 C275 1.388 . S
C276 C277 1.384 . S
C277 C276 1.384 . S
C277 C278 1.377 . S
C278 H258 0.953 . S
C278 C277 1.377 . S
C278 C279 1.369 . S
C279 H259 0.945 . S
C279 C274 1.385 . S
C279 C278 1.369 . S
C280 C272 1.457 . S
C280 C281 1.372 . S
C280 C285 1.364 . S
C281 H260 0.952 . S
C281 C280 1.372 . S
C281 C282 1.389 . S
C282 H261 0.949 . S
C282 C281 1.389 . S
C282 C283 1.387 . S
C283 C282 1.387 . S
C283 C284 1.372 . S
C284 H262 0.950 . S
C284 C283 1.372 . S
C284 C285 1.379 . S
C285 H263 0.948 . S
C285 C280 1.364 . S
C285 C284 1.379 . S
C286 C255 1.383 . S
C286 C273 1.479 . S
C286 C287 1.398 . S
C287 C252 1.382 . S
C287 H264 0.951 . S
C287 C286 1.398 . S
C288 O304 1.251 . S
C288 O306 1.254 . S
N289 C290 1.333 . S
N289 C294 1.307 1_455 S
N289 Zn295 2.020 . S
C290 N289 1.333 . S
C290 C291 1.379 1_455 S
C290 H308 0.952 . S
C291 C290 1.379 1_655 S
C291 C292 1.390 . S
C291 H318 0.950 1_655 S
C292 C291 1.390 . S
C292 C293 1.357 . S
C293 C292 1.357 . S
C293 C294 1.370 . S
C293 H319 0.950 . S
C294 N289 1.307 1_655 S
C294 C293 1.370 . S
C294 H312 0.948 . S
Zn295 N289 2.020 . S
Zn295 O304 2.039 . S
Zn295 O310 2.034 . S
Zn295 O314 2.025 1_565 S
Zn295 O316 2.024 1_455 S
C296 O315 1.246 . S
C296 O316 1.249 1_545 S
N297 C298 1.307 . S
N297 C299 1.333 . S
N297 Zn303 2.020 . S
C298 N297 1.307 . S
C298 C302 1.370 . S
C298 H309 0.948 . S
C299 N297 1.333 . S
C299 C300 1.379 . S
C299 H307 0.952 . S
C300 C299 1.379 . S
C300 C301 1.390 . S
C300 H320 0.949 . S
C301 C300 1.390 . S
C301 C302 1.357 . S
C302 C298 1.370 . S
C302 C301 1.357 . S
C302 H321 0.950 . S
Zn303 N297 2.020 . S
Zn303 O306 2.025 1_545 S
Zn303 O311 2.024 . S
Zn303 O313 2.039 . S
Zn303 O315 2.034 1_455 S
O304 C288 1.251 . S
O304 Zn295 2.039 . S
C305 O310 1.246 . S
C305 O311 1.249 1_565 S
O306 C288 1.254 . S
O306 Zn303 2.025 1_565 S
H307 C299 0.952 . S
H308 C290 0.952 . S
H309 C298 0.948 . S
O310 Zn295 2.034 . S
O310 C305 1.246 . S
O311 Zn303 2.024 . S
O311 C305 1.249 1_545 S
H312 C294 0.948 . S
O313 Zn303 2.039 . S
O313 C317 1.251 . S
O314 Zn295 2.025 1_545 S
O314 C317 1.254 . S
O315 C296 1.246 . S
O315 Zn303 2.034 1_655 S
O316 Zn295 2.024 1_655 S
O316 C296 1.249 1_565 S
C317 O313 1.251 . S
C317 O314 1.254 . S
H318 C291 0.950 1_455 S
H319 C293 0.950 . S
H320 C300 0.949 . S
H321 C302 0.950 . S
C322 O338 1.251 1_565 S
C322 O340 1.254 . S
N323 C324 1.333 . S
N323 C328 1.307 . S
N323 Zn329 2.020 . S
C324 N323 1.333 . S
C324 C325 1.379 . S
C324 H342 0.952 . S
C325 C324 1.379 . S
C325 C326 1.390 . S
C325 H352 0.949 . S
C326 C325 1.390 . S
C326 C327 1.357 . S
C327 C326 1.357 . S
C327 C328 1.370 . S
C327 H353 0.950 . S
C328 N323 1.307 . S
C328 C327 1.370 . S
C328 H346 0.948 . S
Zn329 N323 2.020 . S
Zn329 O338 2.039 . S
Zn329 O344 2.034 . S
Zn329 O348 2.025 . S
Zn329 O350 2.024 . S
C330 O349 1.246 1_545 S
C330 O350 1.249 . S
N331 C332 1.307 . S
N331 C333 1.333 . S
N331 Zn337 2.020 . S
C332 N331 1.307 . S
C332 C336 1.370 . S
C332 H343 0.948 . S
C333 N331 1.333 . S
C333 C334 1.379 . S
C333 H341 0.952 . S
C334 C333 1.379 . S
C334 C335 1.390 . S
C334 H354 0.949 . S
C335 C334 1.390 . S
C335 C336 1.357 . S
C336 C332 1.370 . S
C336 C335 1.357 . S
C336 H355 0.950 . S
Zn337 N331 2.020 . S
Zn337 O340 2.025 . S
Zn337 O345 2.024 . S
Zn337 O347 2.039 . S
Zn337 O349 2.034 . S
O338 C322 1.251 1_545 S
O338 Zn329 2.039 . S
C339 O344 1.246 1_565 S
C339 O345 1.249 . S
O340 C322 1.254 . S
O340 Zn337 2.025 . S
H341 C333 0.952 . S
H342 C324 0.952 . S
H343 C332 0.948 . S
O344 Zn329 2.034 . S
O344 C339 1.246 1_545 S
O345 Zn337 2.024 . S
O345 C339 1.249 . S
H346 C328 0.948 . S
O347 Zn337 2.039 . S
O347 C351 1.251 1_565 S
O348 Zn329 2.025 . S
O348 C351 1.254 . S
O349 C330 1.246 1_565 S
O349 Zn337 2.034 . S
O350 Zn329 2.024 . S
O350 C330 1.249 . S
C351 O347 1.251 1_545 S
C351 O348 1.254 . S
H352 C325 0.949 . S
H353 C327 0.950 . S
H354 C334 0.949 . S
H355 C336 0.950 . S
C356 O372 1.251 . S
C356 O374 1.254 . S
N357 C358 1.333 . S
N357 C362 1.307 . S
N357 Zn363 2.020 . S
C358 N357 1.333 . S
C358 C359 1.379 . S
C358 H376 0.952 . S
C359 C358 1.379 . S
C359 C360 1.390 . S
C359 H386 0.949 . S
C360 C359 1.390 . S
C360 C361 1.357 . S
C361 C360 1.357 . S
C361 C362 1.370 . S
C361 H387 0.950 . S
C362 N357 1.307 . S
C362 C361 1.370 . S
C362 H380 0.948 . S
Zn363 N357 2.020 . S
Zn363 O372 2.039 . S
Zn363 O378 2.034 . S
Zn363 O382 2.025 . S
Zn363 O384 2.024 . S
C364 O383 1.246 . S
C364 O384 1.249 . S
N365 C366 1.307 . S
N365 C367 1.333 . S
N365 Zn371 2.020 . S
C366 N365 1.307 . S
C366 C370 1.370 . S
C366 H377 0.948 . S
C367 N365 1.333 . S
C367 C368 1.379 . S
C367 H375 0.952 . S
C368 C367 1.379 . S
C368 C369 1.390 . S
C368 H388 0.949 . S
C369 C368 1.390 . S
C369 C370 1.357 . S
C370 C366 1.370 . S
C370 C369 1.357 . S
C370 H389 0.950 . S
Zn371 N365 2.020 . S
Zn371 O374 2.025 . S
Zn371 O379 2.024 . S
Zn371 O381 2.039 . S
Zn371 O383 2.034 . S
O372 C356 1.251 . S
O372 Zn363 2.039 . S
C373 O378 1.246 . S
C373 O379 1.249 . S
O374 C356 1.254 . S
O374 Zn371 2.025 . S
H375 C367 0.952 . S
H376 C358 0.952 . S
H377 C366 0.948 . S
O378 Zn363 2.034 . S
O378 C373 1.246 . S
O379 Zn371 2.024 . S
O379 C373 1.249 . S
H380 C362 0.948 . S
O381 Zn371 2.039 . S
O381 C385 1.251 . S
O382 Zn363 2.025 . S
O382 C385 1.254 . S
O383 C364 1.246 . S
O383 Zn371 2.034 . S
O384 Zn363 2.024 . S
O384 C364 1.249 . S
C385 O381 1.251 . S
C385 O382 1.254 . S
H386 C359 0.949 . S
H387 C361 0.950 . S
H388 C368 0.949 . S
H389 C370 0.950 . S
C390 O406 1.251 . S
C390 O408 1.254 . S
N391 C392 1.333 . S
N391 C396 1.307 . S
N391 Zn397 2.020 . S
C392 N391 1.333 . S
C392 C393 1.379 . S
C392 H410 0.952 . S
C393 C392 1.379 . S
C393 C394 1.390 . S
C393 H420 0.949 . S
C394 C393 1.390 . S
C394 C395 1.357 . S
C395 C394 1.357 . S
C395 C396 1.370 . S
C395 H421 0.950 . S
C396 N391 1.307 . S
C396 C395 1.370 . S
C396 H414 0.948 . S
Zn397 N391 2.020 . S
Zn397 O406 2.039 . S
Zn397 O412 2.034 . S
Zn397 O416 2.056 . S
Zn397 O418 2.024 . S
C398 O417 1.246 . S
C398 O418 1.249 . S
N399 C400 1.307 . S
N399 C401 1.333 1_455 S
N399 Zn405 2.020 . S
C400 N399 1.307 . S
C400 C404 1.370 . S
C400 H411 0.948 . S
C401 N399 1.333 1_655 S
C401 C402 1.379 . S
C401 H409 0.952 . S
C402 C401 1.379 . S
C402 C403 1.390 . S
C402 H422 0.949 . S
C403 C402 1.390 . S
C403 C404 1.357 1_655 S
C404 C400 1.370 . S
C404 C403 1.357 1_455 S
C404 H423 0.950 . S
Zn405 N399 2.020 . S
Zn405 O408 2.025 . S
Zn405 O413 2.024 1_455 S
Zn405 O415 2.039 1_455 S
Zn405 O417 2.034 . S
O406 C390 1.251 . S
O406 Zn397 2.039 . S
C407 O412 1.246 1_655 S
C407 O413 1.249 . S
O408 C390 1.254 . S
O408 Zn405 2.025 . S
H409 C401 0.952 . S
H410 C392 0.952 . S
H411 C400 0.948 . S
O412 Zn397 2.034 . S
O412 C407 1.246 1_455 S
O413 Zn405 2.024 1_655 S
O413 C407 1.249 . S
H414 C396 0.948 . S
O415 Zn405 2.039 1_655 S
O415 C419 1.251 . S
O416 Zn397 2.056 . S
O416 C419 1.231 1_455 S
O417 C398 1.246 . S
O417 Zn405 2.034 . S
O418 Zn397 2.024 . S
O418 C398 1.249 . S
C419 O415 1.251 . S
C419 O416 1.231 1_655 S
H420 C393 0.949 . S
H421 C395 0.950 . S
H422 C402 0.949 . S
H423 C404 0.950 . S
H424 C442 0.951 . S
H425 C444 0.951 . S
H426 C446 0.950 . S
H427 C447 0.950 . S
H428 C449 0.950 . S
H429 C452 0.950 . S
H430 C453 0.950 . S
H431 C455 0.950 . S
H432 C456 0.950 . S
H433 C457 0.951 . S
H434 C459 0.951 . S
H435 C461 0.950 . S
H436 C462 0.950 . S
H437 C464 0.950 . S
H438 C467 0.950 . S
H439 C468 0.950 . S
H440 C470 0.950 . S
H441 C471 0.950 . S
C442 H424 0.951 . S
C442 C443 1.379 . S
C442 C444 1.388 . S
C443 C442 1.379 . S
C443 C447 1.371 1_565 S
C444 H425 0.951 . S
C444 C442 1.388 . S
C444 C445 1.366 . S
C445 C444 1.366 . S
C445 C446 1.414 1_565 S
C445 C448 1.499 . S
C446 H426 0.950 . S
C446 C445 1.414 1_545 S
C446 C447 1.374 . S
C447 H427 0.950 . S
C447 C443 1.371 1_545 S
C447 C446 1.374 . S
C448 C445 1.499 . S
C448 C449 1.373 1_565 S
C448 C450 1.389 . S
C449 H428 0.950 . S
C449 C448 1.373 1_545 S
C449 C465 1.377 . S
C450 C448 1.389 . S
C450 C451 1.524 . S
C450 C464 1.377 . S
C451 C450 1.524 . S
C451 C452 1.397 . S
C451 C456 1.363 . S
C452 H429 0.950 . S
C452 C451 1.397 . S
C452 C453 1.334 . S
C453 H430 0.950 . S
C453 C452 1.334 . S
C453 C454 1.287 . S
C454 C453 1.287 . S
C454 C455 1.524 . S
C454 H473 0.913 . S
C455 H431 0.950 . S
C455 C454 1.524 . S
C455 C456 1.415 . S
C456 H432 0.950 . S
C456 C451 1.363 . S
C456 C455 1.415 . S
C457 H433 0.951 . S
C457 C458 1.366 1_545 S
C457 C459 1.388 . S
C458 C457 1.366 1_565 S
C458 C462 1.385 . S
C459 H434 0.951 . S
C459 C457 1.388 . S
C459 C460 1.366 1_545 S
C460 C459 1.366 1_565 S
C460 C461 1.414 . S
C460 C463 1.499 . S
C461 H435 0.950 . S
C461 C460 1.414 . S
C461 C462 1.374 . S
C462 H436 0.950 . S
C462 C458 1.385 . S
C462 C461 1.374 . S
C463 C460 1.499 . S
C463 C464 1.373 . S
C463 C465 1.389 1_565 S
C464 H437 0.950 . S
C464 C450 1.377 . S
C464 C463 1.373 . S
C465 C449 1.377 . S
C465 C463 1.389 1_545 S
C465 C466 1.524 . S
C466 C465 1.524 . S
C466 C467 1.397 . S
C466 C471 1.363 . S
C467 H438 0.950 . S
C467 C466 1.397 . S
C467 C468 1.334 . S
C468 H439 0.950 . S
C468 C467 1.334 . S
C468 C469 1.287 . S
C469 C468 1.287 . S
C469 C470 1.524 . S
C469 H472 0.999 . S
C470 H440 0.950 . S
C470 C469 1.524 . S
C470 C471 1.415 . S
C471 H441 0.950 . S
C471 C466 1.363 . S
C471 C470 1.415 . S
H472 C469 0.999 . S
H473 C454 0.913 . S
H474 C492 0.951 . S
H475 C494 0.951 . S
H476 C496 0.950 . S
H477 C497 0.950 . S
H478 C499 0.950 . S
H479 C502 0.950 . S
H480 C503 0.950 . S
H481 C505 0.950 . S
H482 C506 0.950 . S
H483 C507 0.951 . S
H484 C509 0.951 . S
H485 C511 0.950 . S
H486 C512 0.950 . S
H487 C514 0.950 . S
H488 C517 0.950 . S
H489 C518 0.950 . S
H490 C520 0.950 . S
H491 C521 0.950 . S
C492 H474 0.951 . S
C492 C493 1.366 . S
C492 C494 1.388 . S
C493 C492 1.366 . S
C493 C497 1.385 . S
C494 H475 0.951 . S
C494 C492 1.388 . S
C494 C495 1.366 . S
C495 C494 1.366 . S
C495 C496 1.414 . S
C495 C498 1.499 . S
C496 H476 0.950 . S
C496 C495 1.414 . S
C496 C497 1.374 . S
C497 H477 0.950 . S
C497 C493 1.385 . S
C497 C496 1.374 . S
C498 C495 1.499 . S
C498 C499 1.373 . S
C498 C500 1.389 . S
C499 H478 0.950 . S
C499 C498 1.373 . S
C499 C515 1.377 . S
C500 C498 1.389 . S
C500 C501 1.524 . S
C500 C514 1.377 . S
C501 C500 1.524 . S
C501 C502 1.397 . S
C501 C506 1.363 . S
C502 H479 0.950 . S
C502 C501 1.397 . S
C502 C503 1.334 . S
C503 H480 0.950 . S
C503 C502 1.334 . S
C503 C504 1.287 . S
C504 C503 1.287 . S
C504 C505 1.524 . S
C504 H523 0.913 . S
C505 H481 0.950 . S
C505 C504 1.524 . S
C505 C506 1.415 . S
C506 H482 0.950 . S
C506 C501 1.363 . S
C506 C505 1.415 . S
C507 H483 0.951 . S
C507 C508 1.366 . S
C507 C509 1.388 . S
C508 C507 1.366 . S
C508 C512 1.385 . S
C509 H484 0.951 . S
C509 C507 1.388 . S
C509 C510 1.366 . S
C510 C509 1.366 . S
C510 C511 1.414 . S
C510 C513 1.499 . S
C511 H485 0.950 . S
C511 C510 1.414 . S
C511 C512 1.374 . S
C512 H486 0.950 . S
C512 C508 1.385 . S
C512 C511 1.374 . S
C513 C510 1.499 . S
C513 C514 1.373 . S
C513 C515 1.389 . S
C514 H487 0.950 . S
C514 C500 1.377 . S
C514 C513 1.373 . S
C515 C499 1.377 . S
C515 C513 1.389 . S
C515 C516 1.524 . S
C516 C515 1.524 . S
C516 C517 1.397 . S
C516 C521 1.363 . S
C517 H488 0.950 . S
C517 C516 1.397 . S
C517 C518 1.334 . S
C518 H489 0.950 . S
C518 C517 1.334 . S
C518 C519 1.287 . S
C519 C518 1.287 . S
C519 C520 1.524 . S
C519 H522 0.999 . S
C520 H490 0.950 . S
C520 C519 1.524 . S
C520 C521 1.415 . S
C521 H491 0.950 . S
C521 C516 1.363 . S
C521 C520 1.415 . S
H522 C519 0.999 . S
H523 C504 0.913 . S
H524 C542 0.951 . S
H525 C544 0.951 . S
H526 C546 0.950 . S
H527 C547 0.950 . S
H528 C549 0.950 . S
H529 C552 0.950 . S
H530 C553 0.950 . S
H531 C555 0.950 . S
H532 C556 0.950 . S
H533 C557 0.951 . S
H534 C559 0.951 . S
H535 C561 0.950 . S
H536 C562 0.950 . S
H537 C564 0.950 . S
H538 C567 0.950 . S
H539 C568 0.950 . S
H540 C570 0.950 . S
H541 C571 0.950 . S
C542 H524 0.951 . S
C542 C543 1.366 . S
C542 C544 1.388 . S
C543 C542 1.366 . S
C543 C547 1.385 . S
C544 H525 0.951 . S
C544 C542 1.388 . S
C544 C545 1.366 . S
C545 C544 1.366 . S
C545 C546 1.414 . S
C545 C548 1.499 . S
C546 H526 0.950 . S
C546 C545 1.414 . S
C546 C547 1.374 . S
C547 H527 0.950 . S
C547 C543 1.385 . S
C547 C546 1.374 . S
C548 C545 1.499 . S
C548 C549 1.373 . S
C548 C550 1.389 . S
C549 H528 0.950 . S
C549 C548 1.373 . S
C549 C565 1.377 . S
C550 C548 1.389 . S
C550 C551 1.524 . S
C550 C564 1.377 . S
C551 C550 1.524 . S
C551 C552 1.397 . S
C551 C556 1.363 . S
C552 H529 0.950 . S
C552 C551 1.397 . S
C552 C553 1.334 . S
C553 H530 0.950 . S
C553 C552 1.334 . S
C553 C554 1.287 . S
C554 C553 1.287 . S
C554 C555 1.524 . S
C554 H573 0.913 . S
C555 H531 0.950 . S
C555 C554 1.524 . S
C555 C556 1.415 . S
C556 H532 0.950 . S
C556 C551 1.363 . S
C556 C555 1.415 . S
C557 H533 0.951 . S
C557 C558 1.366 . S
C557 C559 1.388 . S
C558 C557 1.366 . S
C558 C562 1.385 . S
C559 H534 0.951 . S
C559 C557 1.388 . S
C559 C560 1.366 . S
C560 C559 1.366 . S
C560 C561 1.414 . S
C560 C563 1.499 . S
C561 H535 0.950 . S
C561 C560 1.414 . S
C561 C562 1.374 . S
C562 H536 0.950 . S
C562 C558 1.385 . S
C562 C561 1.374 . S
C563 C560 1.499 . S
C563 C564 1.373 . S
C563 C565 1.389 . S
C564 H537 0.950 . S
C564 C550 1.377 . S
C564 C563 1.373 . S
C565 C549 1.377 . S
C565 C563 1.389 . S
C565 C566 1.524 . S
C566 C565 1.524 . S
C566 C567 1.397 . S
C566 C571 1.363 . S
C567 H538 0.950 . S
C567 C566 1.397 . S
C567 C568 1.334 . S
C568 H539 0.950 . S
C568 C567 1.334 . S
C568 C569 1.287 . S
C569 C568 1.287 . S
C569 C570 1.524 . S
C569 H572 0.999 . S
C570 H540 0.950 . S
C570 C569 1.524 . S
C570 C571 1.415 . S
C571 H541 0.950 . S
C571 C566 1.363 . S
C571 C570 1.415 . S
H572 C569 0.999 . S
H573 C554 0.913 . S
H574 C592 0.951 . S
H575 C594 0.951 . S
H576 C596 0.950 . S
H577 C597 0.950 . S
H578 C599 0.950 . S
H579 C602 0.950 . S
H580 C603 0.950 . S
H581 C605 0.950 . S
H582 C606 0.950 . S
H583 C607 0.951 . S
H584 C609 0.951 . S
H585 C611 0.950 . S
H586 C612 0.950 . S
H587 C614 0.950 . S
H588 C617 0.950 . S
H589 C618 0.950 . S
H590 C620 0.950 1_655 S
H591 C621 0.950 . S
C592 H574 0.951 . S
C592 C593 1.366 . S
C592 C594 1.388 . S
C593 C592 1.366 . S
C593 C597 1.385 . S
C594 H575 0.951 . S
C594 C592 1.388 . S
C594 C595 1.366 . S
C595 C594 1.366 . S
C595 C596 1.414 . S
C595 C598 1.499 . S
C596 H576 0.950 . S
C596 C595 1.414 . S
C596 C597 1.374 . S
C597 H577 0.950 . S
C597 C593 1.385 . S
C597 C596 1.374 . S
C598 C595 1.499 . S
C598 C599 1.373 . S
C598 C600 1.389 . S
C599 H578 0.950 . S
C599 C598 1.373 . S
C599 C615 1.377 . S
C600 C598 1.389 . S
C600 C601 1.524 . S
C600 C614 1.377 . S
C601 C600 1.524 . S
C601 C602 1.397 . S
C601 C606 1.363 . S
C602 H579 0.950 . S
C602 C601 1.397 . S
C602 C603 1.334 . S
C603 H580 0.950 . S
C603 C602 1.334 . S
C603 C604 1.287 . S
C604 C603 1.287 . S
C604 C605 1.524 . S
C604 H623 0.913 . S
C605 H581 0.950 . S
C605 C604 1.524 . S
C605 C606 1.415 . S
C606 H582 0.950 . S
C606 C601 1.363 . S
C606 C605 1.415 . S
C607 H583 0.951 . S
C607 C608 1.366 . S
C607 C609 1.388 . S
C608 C607 1.366 . S
C608 C612 1.385 . S
C609 H584 0.951 . S
C609 C607 1.388 . S
C609 C610 1.366 . S
C610 C609 1.366 . S
C610 C611 1.414 . S
C610 C613 1.499 . S
C611 H585 0.950 . S
C611 C610 1.414 . S
C611 C612 1.374 . S
C612 H586 0.950 . S
C612 C608 1.385 . S
C612 C611 1.374 . S
C613 C610 1.499 . S
C613 C614 1.373 . S
C613 C615 1.389 . S
C614 H587 0.950 . S
C614 C600 1.377 . S
C614 C613 1.373 . S
C615 C599 1.377 . S
C615 C613 1.389 . S
C615 C616 1.524 . S
C616 C615 1.524 . S
C616 C617 1.397 . S
C616 C621 1.363 . S
C617 H588 0.950 . S
C617 C616 1.397 . S
C617 C618 1.334 . S
C618 H589 0.950 . S
C618 C617 1.334 . S
C618 C619 1.287 1_455 S
C619 C618 1.287 1_655 S
C619 C620 1.524 1_655 S
C619 H622 0.999 . S
C620 H590 0.950 1_455 S
C620 C619 1.524 1_455 S
C620 C621 1.415 . S
C621 H591 0.950 . S
C621 C616 1.363 . S
C621 C620 1.415 . S
H622 C619 0.999 . S
H623 C604 0.913 . S
H624 C642 0.951 . S
H625 C644 0.951 . S
H626 C646 0.950 . S
H627 C647 0.950 . S
H628 C649 0.949 1_565 S
H629 C652 0.950 . S
H630 C653 0.950 . S
H631 C655 0.950 . S
H632 C656 0.950 1_565 S
H633 C657 0.951 . S
H634 C659 0.951 . S
H635 C661 0.950 . S
H636 C662 0.950 . S
H637 C664 0.950 . S
H638 C667 0.950 . S
H639 C668 0.950 . S
H640 C670 0.928 1_545 S
H641 C671 0.950 . S
C642 H624 0.951 . S
C642 C643 1.347 1_564 S
C642 C644 1.388 1_554 S
C643 C642 1.347 1_546 S
C643 C647 1.405 . S
C644 H625 0.951 . S
C644 C642 1.388 1_556 S
C644 C645 1.366 1_565 S
C645 C644 1.366 1_545 S
C645 C646 1.414 . S
C645 C648 1.499 . S
C646 H626 0.950 . S
C646 C645 1.414 . S
C646 C647 1.374 . S
C647 H627 0.950 . S
C647 C643 1.405 . S
C647 C646 1.374 . S
C648 C645 1.499 . S
C648 C649 1.375 . S
C648 C650 1.389 . S
C649 H628 0.949 1_545 S
C649 C648 1.375 . S
C649 C665 1.374 1_545 S
C650 C648 1.389 . S
C650 C651 1.524 . S
C650 C664 1.377 . S
C651 C650 1.524 . S
C651 C652 1.397 . S
C651 C656 1.363 . S
C652 H629 0.950 . S
C652 C651 1.397 . S
C652 C653 1.334 1_556 S
C653 H630 0.950 . S
C653 C652 1.334 1_554 S
C653 C654 1.287 . S
C654 C653 1.287 . S
C654 C655 1.524 . S
C654 H673 0.913 . S
C655 H631 0.950 . S
C655 C654 1.524 . S
C655 C656 1.415 1_554 S
C656 H632 0.950 1_545 S
C656 C651 1.363 . S
C656 C655 1.415 1_556 S
C657 H633 0.951 . S
C657 C658 1.366 . S
C657 C659 1.388 . S
C658 C657 1.366 . S
C658 C662 1.385 1_545 S
C659 H634 0.951 . S
C659 C657 1.388 . S
C659 C660 1.366 . S
C660 C659 1.366 . S
C660 C661 1.414 1_545 S
C660 C663 1.499 . S
C661 H635 0.950 . S
C661 C660 1.414 1_565 S
C661 C662 1.374 . S
C662 H636 0.950 . S
C662 C658 1.385 1_565 S
C662 C661 1.374 . S
C663 C660 1.499 . S
C663 C664 1.373 . S
C663 C665 1.386 1_545 S
C664 H637 0.950 . S
C664 C650 1.377 . S
C664 C663 1.373 . S
C665 C649 1.374 1_565 S
C665 C663 1.386 1_565 S
C665 C666 1.531 . S
C666 C665 1.531 . S
C666 C667 1.397 . S
C666 C671 1.363 1_565 S
C667 H638 0.950 . S
C667 C666 1.397 . S
C667 C668 1.334 . S
C668 H639 0.950 . S
C668 C667 1.334 . S
C668 C669 1.287 . S
C669 C668 1.287 . S
C669 C670 1.524 . S
C669 H672 0.999 . S
C670 H640 0.928 1_565 S
C670 C669 1.524 . S
C670 C671 1.415 1_565 S
C671 H641 0.950 . S
C671 C666 1.363 1_545 S
C671 C670 1.415 1_545 S
H672 C669 0.999 . S
H673 C654 0.913 . S
H674 C692 0.951 . S
H675 C694 0.951 1_554 S
H676 C696 0.950 . S
H677 C697 0.950 . S
H678 C699 0.950 . S
H679 C702 0.950 . S
H680 C703 0.950 . S
H681 C705 0.950 . S
H682 C706 0.950 . S
H683 C707 0.951 . S
H684 C709 0.951 . S
H685 C711 0.950 . S
H686 C712 0.950 . S
H687 C714 0.950 . S
H688 C717 0.950 . S
H689 C718 0.950 . S
H690 C720 0.950 . S
H691 C721 0.950 . S
C692 H674 0.951 . S
C692 C693 1.366 . S
C692 C694 1.388 1_554 S
C693 C692 1.366 . S
C693 C697 1.385 1_554 S
C694 H675 0.951 1_556 S
C694 C692 1.388 1_556 S
C694 C695 1.366 . S
C695 C694 1.366 . S
C695 C696 1.414 . S
C695 C698 1.499 . S
C696 H676 0.950 . S
C696 C695 1.414 . S
C696 C697 1.374 . S
C697 H677 0.950 . S
C697 C693 1.385 1_556 S
C697 C696 1.374 . S
C698 C695 1.499 . S
C698 C699 1.373 . S
C698 C700 1.389 . S
C699 H678 0.950 . S
C699 C698 1.373 . S
C699 C715 1.377 . S
C700 C698 1.389 . S
C700 C701 1.524 . S
C700 C714 1.377 . S
C701 C700 1.524 . S
C701 C702 1.397 . S
C701 C706 1.363 . S
C702 H679 0.950 . S
C702 C701 1.397 . S
C702 C703 1.334 . S
C703 H680 0.950 . S
C703 C702 1.334 . S
C703 C704 1.287 . S
C704 C703 1.287 . S
C704 C705 1.524 1_556 S
C704 H723 0.913 1_556 S
C705 H681 0.950 . S
C705 C704 1.524 1_554 S
C705 C706 1.415 1_554 S
C706 H682 0.950 . S
C706 C701 1.363 . S
C706 C705 1.415 1_556 S
C707 H683 0.951 . S
C707 C708 1.366 . S
C707 C709 1.388 . S
C708 C707 1.366 . S
C708 C712 1.385 . S
C709 H684 0.951 . S
C709 C707 1.388 . S
C709 C710 1.366 . S
C710 C709 1.366 . S
C710 C711 1.414 . S
C710 C713 1.499 . S
C711 H685 0.950 . S
C711 C710 1.414 . S
C711 C712 1.374 . S
C712 H686 0.950 . S
C712 C708 1.385 . S
C712 C711 1.374 . S
C713 C710 1.499 . S
C713 C714 1.373 . S
C713 C715 1.389 . S
C714 H687 0.950 . S
C714 C700 1.377 . S
C714 C713 1.373 . S
C715 C699 1.377 . S
C715 C713 1.389 . S
C715 C716 1.524 . S
C716 C715 1.524 . S
C716 C717 1.397 . S
C716 C721 1.363 . S
C717 H688 0.950 . S
C717 C716 1.397 . S
C717 C718 1.334 . S
C718 H689 0.950 . S
C718 C717 1.334 . S
C718 C719 1.287 . S
C719 C718 1.287 . S
C719 C720 1.524 . S
C719 H722 0.999 . S
C720 H690 0.950 . S
C720 C719 1.524 . S
C720 C721 1.415 . S
C721 H691 0.950 . S
C721 C716 1.363 . S
C721 C720 1.415 . S
H722 C719 0.999 . S
H723 C704 0.913 1_554 S
H724 C742 0.951 . S
H725 C744 0.951 . S
H726 C746 0.950 . S
H727 C747 0.950 . S
H728 C749 0.950 . S
H729 C752 0.950 1_554 S
H730 C753 0.950 . S
H731 C755 0.950 . S
H732 C756 0.950 . S
H733 C757 0.951 . S
H734 C759 0.951 . S
H735 C761 0.950 . S
H736 C762 0.950 . S
H737 C764 0.950 . S
H738 C767 0.950 . S
H739 C768 0.950 . S
H740 C770 0.950 . S
H741 C771 0.950 . S
C742 H724 0.951 . S
C742 C743 1.366 . S
C742 C744 1.388 1_554 S
C743 C742 1.366 . S
C743 C747 1.385 . S
C744 H725 0.951 . S
C744 C742 1.388 1_556 S
C744 C745 1.366 . S
C745 C744 1.366 . S
C745 C746 1.414 1_556 S
C745 C748 1.499 . S
C746 H726 0.950 . S
C746 C745 1.414 1_554 S
C746 C747 1.374 . S
C747 H727 0.950 . S
C747 C743 1.385 . S
C747 C746 1.374 . S
C748 C745 1.499 . S
C748 C749 1.373 . S
C748 C750 1.389 . S
C749 H728 0.950 . S
C749 C748 1.373 . S
C749 C765 1.377 . S
C750 C748 1.389 . S
C750 C751 1.524 . S
C750 C764 1.377 . S
C751 C750 1.524 . S
C751 C752 1.397 . S
C751 C756 1.363 . S
C752 H729 0.950 1_556 S
C752 C751 1.397 . S
C752 C753 1.334 1_556 S
C753 H730 0.950 . S
C753 C752 1.334 1_554 S
C753 C754 1.287 1_554 S
C754 C753 1.287 1_556 S
C754 C755 1.524 . S
C754 H773 0.913 . S
C755 H731 0.950 . S
C755 C754 1.524 . S
C755 C756 1.415 . S
C756 H732 0.950 . S
C756 C751 1.363 . S
C756 C755 1.415 . S
C757 H733 0.951 . S
C757 C758 1.366 . S
C757 C759 1.388 . S
C758 C757 1.366 . S
C758 C762 1.385 . S
C759 H734 0.951 . S
C759 C757 1.388 . S
C759 C760 1.366 . S
C760 C759 1.366 . S
C760 C761 1.414 . S
C760 C763 1.499 . S
C761 H735 0.950 . S
C761 C760 1.414 . S
C761 C762 1.374 . S
C762 H736 0.950 . S
C762 C758 1.385 . S
C762 C761 1.374 . S
C763 C760 1.499 . S
C763 C764 1.373 . S
C763 C765 1.389 . S
C764 H737 0.950 . S
C764 C750 1.377 . S
C764 C763 1.373 . S
C765 C749 1.377 . S
C765 C763 1.389 . S
C765 C766 1.524 . S
C766 C765 1.524 . S
C766 C767 1.397 . S
C766 C771 1.363 . S
C767 H738 0.950 . S
C767 C766 1.397 . S
C767 C768 1.334 . S
C768 H739 0.950 . S
C768 C767 1.334 . S
C768 C769 1.287 . S
C769 C768 1.287 . S
C769 C770 1.524 . S
C769 H772 0.999 . S
C770 H740 0.950 . S
C770 C769 1.524 . S
C770 C771 1.415 . S
C771 H741 0.950 . S
C771 C766 1.363 . S
C771 C770 1.415 . S
H772 C769 0.999 . S
H773 C754 0.913 . S
H774 C792 0.951 . S
H775 C794 0.951 . S
H776 C796 0.950 . S
H777 C797 0.950 . S
H778 C799 0.950 . S
H779 C802 0.950 . S
H780 C803 0.950 . S
H781 C805 0.950 . S
H782 C806 0.950 1_455 S
H783 C807 0.951 . S
H784 C809 0.951 . S
H785 C811 0.950 1_455 S
H786 C812 0.948 1_455 S
H787 C814 0.950 . S
H788 C817 0.950 . S
H789 C818 0.950 . S
H790 C820 0.950 . S
H791 C821 0.950 . S
C792 H774 0.951 . S
C792 C793 1.366 . S
C792 C794 1.388 . S
C793 C792 1.366 . S
C793 C797 1.385 . S
C794 H775 0.951 . S
C794 C792 1.388 . S
C794 C795 1.366 . S
C795 C794 1.366 . S
C795 C796 1.414 . S
C795 C798 1.499 . S
C796 H776 0.950 . S
C796 C795 1.414 . S
C796 C797 1.374 . S
C797 H777 0.950 . S
C797 C793 1.385 . S
C797 C796 1.374 . S
C798 C795 1.499 . S
C798 C799 1.373 . S
C798 C800 1.389 . S
C799 H778 0.950 . S
C799 C798 1.373 . S
C799 C815 1.377 . S
C800 C798 1.389 . S
C800 C801 1.524 . S
C800 C814 1.377 . S
C801 C800 1.524 . S
C801 C802 1.397 . S
C801 C806 1.363 . S
C802 H779 0.950 . S
C802 C801 1.397 . S
C802 C803 1.334 . S
C803 H780 0.950 . S
C803 C802 1.334 . S
C803 C804 1.287 . S
C804 C803 1.287 . S
C804 C805 1.524 1_655 S
C804 H823 0.913 . S
C805 H781 0.950 . S
C805 C804 1.524 1_455 S
C805 C806 1.415 1_455 S
C806 H782 0.950 1_655 S
C806 C801 1.363 . S
C806 C805 1.415 1_655 S
C807 H783 0.951 . S
C807 C808 1.366 . S
C807 C809 1.388 . S
C808 C807 1.366 . S
C808 C812 1.386 . S
C809 H784 0.951 . S
C809 C807 1.388 . S
C809 C810 1.366 . S
C810 C809 1.366 . S
C810 C811 1.414 . S
C810 C813 1.499 . S
C811 H785 0.950 1_655 S
C811 C810 1.414 . S
C811 C812 1.374 . S
C812 H786 0.948 1_655 S
C812 C808 1.386 . S
C812 C811 1.374 . S
C813 C810 1.499 . S
C813 C814 1.373 . S
C813 C815 1.389 . S
C814 H787 0.950 . S
C814 C800 1.377 . S
C814 C813 1.373 . S
C815 C799 1.377 . S
C815 C813 1.389 . S
C815 C816 1.524 . S
C816 C815 1.524 . S
C816 C817 1.397 . S
C816 C821 1.363 . S
C817 H788 0.950 . S
C817 C816 1.397 . S
C817 C818 1.334 . S
C818 H789 0.950 . S
C818 C817 1.334 . S
C818 C819 1.287 . S
C819 C818 1.287 . S
C819 C820 1.524 . S
C819 H822 0.999 . S
C820 H790 0.950 . S
C820 C819 1.524 . S
C820 C821 1.415 . S
C821 H791 0.950 . S
C821 C816 1.363 . S
C821 C820 1.415 . S
H822 C819 0.999 . S
H823 C804 0.913 . S
H824 C842 0.951 . S
H825 C844 0.951 . S
H826 C846 0.950 . S
H827 C847 0.950 . S
H828 C849 0.950 . S
H829 C852 0.950 . S
H830 C853 0.950 . S
H831 C855 0.950 . S
H832 C856 0.950 . S
H833 C857 0.951 . S
H834 C859 0.951 . S
H835 C861 0.950 . S
H836 C862 0.950 . S
H837 C864 0.950 . S
H838 C867 0.950 . S
H839 C868 0.950 . S
H840 C870 0.963 . S
H841 C871 0.950 . S
C842 H824 0.951 . S
C842 C843 1.366 . S
C842 C844 1.388 . S
C843 C842 1.366 . S
C843 C847 1.385 . S
C844 H825 0.951 . S
C844 C842 1.388 . S
C844 C845 1.366 . S
C845 C844 1.366 . S
C845 C846 1.414 . S
C845 C848 1.499 . S
C846 H826 0.950 . S
C846 C845 1.414 . S
C846 C847 1.374 . S
C847 H827 0.950 . S
C847 C843 1.385 . S
C847 C846 1.374 . S
C848 C845 1.499 . S
C848 C849 1.373 . S
C848 C850 1.389 . S
C849 H828 0.950 . S
C849 C848 1.373 . S
C849 C865 1.377 . S
C850 C848 1.389 . S
C850 C851 1.524 . S
C850 C864 1.377 . S
C851 C850 1.524 . S
C851 C852 1.397 . S
C851 C856 1.363 . S
C852 H829 0.950 . S
C852 C851 1.397 . S
C852 C853 1.334 . S
C853 H830 0.950 . S
C853 C852 1.334 . S
C853 C854 1.287 . S
C854 C853 1.287 . S
C854 C855 1.524 . S
C854 H873 0.913 . S
C855 H831 0.950 . S
C855 C854 1.524 . S
C855 C856 1.415 . S
C856 H832 0.950 . S
C856 C851 1.363 . S
C856 C855 1.415 . S
C857 H833 0.951 . S
C857 C858 1.366 . S
C857 C859 1.388 . S
C858 C857 1.366 . S
C858 C862 1.385 . S
C859 H834 0.951 . S
C859 C857 1.388 . S
C859 C860 1.366 . S
C860 C859 1.366 . S
C860 C861 1.414 . S
C860 C863 1.499 . S
C861 H835 0.950 . S
C861 C860 1.414 . S
C861 C862 1.374 . S
C862 H836 0.950 . S
C862 C858 1.385 . S
C862 C861 1.374 . S
C863 C860 1.499 . S
C863 C864 1.373 . S
C863 C865 1.389 . S
C864 H837 0.950 . S
C864 C850 1.377 . S
C864 C863 1.373 . S
C865 C849 1.377 . S
C865 C863 1.389 . S
C865 C866 1.524 . S
C866 C865 1.524 . S
C866 C867 1.397 . S
C866 C871 1.363 . S
C867 H838 0.950 . S
C867 C866 1.397 . S
C867 C868 1.334 1_455 S
C868 H839 0.950 . S
C868 C867 1.334 1_655 S
C868 C869 1.287 . S
C869 C868 1.287 . S
C869 C870 1.535 . S
C869 H872 0.999 . S
C870 H840 0.963 . S
C870 C869 1.535 . S
C870 C871 1.389 1_655 S
C871 H841 0.950 . S
C871 C866 1.363 . S
C871 C870 1.389 1_455 S
H872 C869 0.999 . S
H873 C854 0.913 . S
H874 C892 0.951 . S
H875 C894 0.951 . S
H876 C896 0.950 . S
H877 C897 0.950 . S
H878 C899 0.969 . S
H879 C902 0.950 . S
H880 C903 0.950 . S
H881 C905 0.950 . S
H882 C906 0.948 . S
H883 C907 0.951 . S
H884 C909 0.951 . S
H885 C911 0.950 . S
H886 C912 0.962 . S
H887 C914 0.950 . S
H888 C917 0.950 . S
H889 C918 0.950 . S
H890 C920 0.950 . S
H891 C921 0.950 1_565 S
C892 H874 0.951 . S
C892 C893 1.383 . S
C892 C894 1.388 . S
C893 C892 1.383 . S
C893 C897 1.364 1_545 S
C894 H875 0.951 . S
C894 C892 1.388 . S
C894 C895 1.366 1_545 S
C895 C894 1.366 1_565 S
C895 C896 1.414 . S
C895 C898 1.499 . S
C896 H876 0.950 . S
C896 C895 1.414 . S
C896 C897 1.374 . S
C897 H877 0.950 . S
C897 C893 1.364 1_565 S
C897 C896 1.374 . S
C898 C895 1.499 . S
C898 C899 1.358 1_565 S
C898 C900 1.389 . S
C899 H878 0.969 . S
C899 C898 1.358 1_545 S
C899 C915 1.377 . S
C900 C898 1.389 . S
C900 C901 1.524 . S
C900 C914 1.377 . S
C901 C900 1.524 . S
C901 C902 1.397 . S
C901 C906 1.363 . S
C902 H879 0.950 . S
C902 C901 1.397 . S
C902 C903 1.334 . S
C903 H880 0.950 . S
C903 C902 1.334 . S
C903 C904 1.287 . S
C904 C903 1.287 . S
C904 C905 1.524 . S
C904 H923 0.913 . S
C905 H881 0.950 . S
C905 C904 1.524 . S
C905 C906 1.415 . S
C906 H882 0.948 . S
C906 C901 1.363 . S
C906 C905 1.415 . S
C907 H883 0.951 . S
C907 C908 1.366 . S
C907 C909 1.388 . S
C908 C907 1.366 . S
C908 C912 1.370 1_565 S
C909 H884 0.951 . S
C909 C907 1.388 . S
C909 C910 1.366 . S
C910 C909 1.366 . S
C910 C911 1.414 1_565 S
C910 C913 1.499 . S
C911 H885 0.950 . S
C911 C910 1.414 1_545 S
C911 C912 1.377 . S
C912 H886 0.962 . S
C912 C908 1.370 1_545 S
C912 C911 1.377 . S
C913 C910 1.499 . S
C913 C914 1.373 . S
C913 C915 1.370 1_565 S
C914 H887 0.950 . S
C914 C900 1.377 . S
C914 C913 1.373 . S
C915 C899 1.377 . S
C915 C913 1.370 1_545 S
C915 C916 1.552 . S
C916 C915 1.552 . S
C916 C917 1.397 . S
C916 C921 1.363 . S
C917 H888 0.950 . S
C917 C916 1.397 . S
C917 C918 1.334 . S
C918 H889 0.950 . S
C918 C917 1.334 . S
C918 C919 1.287 . S
C919 C918 1.287 . S
C919 C920 1.524 . S
C919 H922 0.999 . S
C920 H890 0.950 . S
C920 C919 1.524 . S
C920 C921 1.415 . S
C921 H891 0.950 1_545 S
C921 C916 1.363 . S
C921 C920 1.415 . S
H922 C919 0.999 . S
H923 C904 0.913 . S
H924 C942 0.951 . S
H925 C944 0.951 . S
H926 C946 0.950 . S
H927 C947 0.950 . S
H928 C949 0.950 . S
H929 C952 0.950 . S
H930 C953 0.950 . S
H931 C955 0.950 . S
H932 C956 0.950 . S
H933 C957 0.951 . S
H934 C959 0.951 . S
H935 C961 0.950 . S
H936 C962 0.950 . S
H937 C964 0.950 . S
H938 C967 0.950 . S
H939 C968 0.950 . S
H940 C970 0.950 . S
H941 C971 0.950 . S
C942 H924 0.951 . S
C942 C943 1.366 . S
C942 C944 1.388 . S
C943 C942 1.366 . S
C943 C947 1.385 . S
C944 H925 0.951 . S
C944 C942 1.388 . S
C944 C945 1.366 . S
C945 C944 1.366 . S
C945 C946 1.414 . S
C945 C948 1.499 . S
C946 H926 0.950 . S
C946 C945 1.414 . S
C946 C947 1.374 . S
C947 H927 0.950 . S
C947 C943 1.385 . S
C947 C946 1.374 . S
C948 C945 1.499 . S
C948 C949 1.373 . S
C948 C950 1.389 . S
C949 H928 0.950 . S
C949 C948 1.373 . S
C949 C965 1.377 . S
C950 C948 1.389 . S
C950 C951 1.524 . S
C950 C964 1.377 . S
C951 C950 1.524 . S
C951 C952 1.397 . S
C951 C956 1.363 . S
C952 H929 0.950 . S
C952 C951 1.397 . S
C952 C953 1.334 . S
C953 H930 0.950 . S
C953 C952 1.334 . S
C953 C954 1.287 . S
C954 C953 1.287 . S
C954 C955 1.524 . S
C954 H973 0.913 . S
C955 H931 0.950 . S
C955 C954 1.524 . S
C955 C956 1.415 . S
C956 H932 0.950 . S
C956 C951 1.363 . S
C956 C955 1.415 . S
C957 H933 0.951 . S
C957 C958 1.366 . S
C957 C959 1.388 . S
C958 C957 1.366 . S
C958 C962 1.385 . S
C959 H934 0.951 . S
C959 C957 1.388 . S
C959 C960 1.366 . S
C960 C959 1.366 . S
C960 C961 1.414 . S
C960 C963 1.499 . S
C961 H935 0.950 . S
C961 C960 1.414 . S
C961 C962 1.374 . S
C962 H936 0.950 . S
C962 C958 1.385 . S
C962 C961 1.374 . S
C963 C960 1.499 . S
C963 C964 1.373 . S
C963 C965 1.389 . S
C964 H937 0.950 . S
C964 C950 1.377 . S
C964 C963 1.373 . S
C965 C949 1.377 . S
C965 C963 1.389 . S
C965 C966 1.524 . S
C966 C965 1.524 . S
C966 C967 1.397 . S
C966 C971 1.363 . S
C967 H938 0.950 . S
C967 C966 1.397 . S
C967 C968 1.334 . S
C968 H939 0.950 . S
C968 C967 1.334 . S
C968 C969 1.287 . S
C969 C968 1.287 . S
C969 C970 1.524 . S
C969 H972 0.999 . S
C970 H940 0.950 . S
C970 C969 1.524 . S
C970 C971 1.415 . S
C971 H941 0.950 . S
C971 C966 1.363 . S
C971 C970 1.415 . S
H972 C969 0.999 . S
H973 C954 0.913 . S
H974 C992 0.951 . S
H975 C994 0.951 . S
H976 C996 0.950 . S
H977 C997 0.950 . S
H978 C999 0.950 . S
H979 C1002 0.950 . S
H980 C1003 0.950 . S
H981 C1005 0.950 . S
H982 C1006 0.950 . S
H983 C1007 0.951 . S
H984 C1009 0.951 . S
H985 C1011 0.950 . S
H986 C1012 0.950 . S
H987 C1014 0.950 . S
H988 C1017 0.950 . S
H989 C1018 0.950 . S
H990 C1020 0.950 . S
H991 C1021 0.950 . S
C992 H974 0.951 . S
C992 C993 1.366 . S
C992 C994 1.388 . S
C993 C992 1.366 . S
C993 C997 1.385 . S
C994 H975 0.951 . S
C994 C992 1.388 . S
C994 C995 1.366 . S
C995 C994 1.366 . S
C995 C996 1.414 . S
C995 C998 1.499 . S
C996 H976 0.950 . S
C996 C995 1.414 . S
C996 C997 1.374 . S
C997 H977 0.950 . S
C997 C993 1.385 . S
C997 C996 1.374 . S
C998 C995 1.499 . S
C998 C999 1.373 . S
C998 C1000 1.389 . S
C999 H978 0.950 . S
C999 C998 1.373 . S
C999 C1015 1.377 . S
C1000 C998 1.389 . S
C1000 C1001 1.524 . S
C1000 C1014 1.377 . S
C1001 C1000 1.524 . S
C1001 C1002 1.397 . S
C1001 C1006 1.363 . S
C1002 H979 0.950 . S
C1002 C1001 1.397 . S
C1002 C1003 1.334 . S
C1003 H980 0.950 . S
C1003 C1002 1.334 . S
C1003 C1004 1.287 . S
C1004 C1003 1.287 . S
C1004 C1005 1.524 . S
C1004 H1023 0.913 . S
C1005 H981 0.950 . S
C1005 C1004 1.524 . S
C1005 C1006 1.415 . S
C1006 H982 0.950 . S
C1006 C1001 1.363 . S
C1006 C1005 1.415 . S
C1007 H983 0.951 . S
C1007 C1008 1.366 . S
C1007 C1009 1.388 . S
C1008 C1007 1.366 . S
C1008 C1012 1.385 . S
C1009 H984 0.951 . S
C1009 C1007 1.388 . S
C1009 C1010 1.366 . S
C1010 C1009 1.366 . S
C1010 C1011 1.414 . S
C1010 C1013 1.499 . S
C1011 H985 0.950 . S
C1011 C1010 1.414 . S
C1011 C1012 1.374 . S
C1012 H986 0.950 . S
C1012 C1008 1.385 . S
C1012 C1011 1.374 . S
C1013 C1010 1.499 . S
C1013 C1014 1.373 . S
C1013 C1015 1.389 . S
C1014 H987 0.950 . S
C1014 C1000 1.377 . S
C1014 C1013 1.373 . S
C1015 C999 1.377 . S
C1015 C1013 1.389 . S
C1015 C1016 1.524 . S
C1016 C1015 1.524 . S
C1016 C1017 1.397 . S
C1016 C1021 1.363 . S
C1017 H988 0.950 . S
C1017 C1016 1.397 . S
C1017 C1018 1.334 . S
C1018 H989 0.950 . S
C1018 C1017 1.334 . S
C1018 C1019 1.287 . S
C1019 C1018 1.287 . S
C1019 C1020 1.524 . S
C1019 H1022 0.999 . S
C1020 H990 0.950 . S
C1020 C1019 1.524 . S
C1020 C1021 1.415 . S
C1021 H991 0.950 . S
C1021 C1016 1.363 . S
C1021 C1020 1.415 . S
H1022 C1019 0.999 . S
H1023 C1004 0.913 . S
H1024 C1042 0.951 . S
H1025 C1044 0.951 . S
H1026 C1046 0.950 . S
H1027 C1047 0.950 . S
H1028 C1049 0.950 . S
H1029 C1052 0.950 . S
H1030 C1053 0.950 . S
H1031 C1055 0.950 . S
H1032 C1056 0.950 . S
H1033 C1057 0.951 . S
H1034 C1059 0.951 1_655 S
H1035 C1061 0.948 1_655 S
H1036 C1062 0.950 . S
H1037 C1064 0.950 . S
H1038 C1067 0.950 . S
H1039 C1068 0.950 . S
H1040 C1070 0.950 . S
H1041 C1071 0.950 . S
C1042 H1024 0.951 . S
C1042 C1043 1.366 . S
C1042 C1044 1.388 . S
C1043 C1042 1.366 . S
C1043 C1047 1.385 . S
C1044 H1025 0.951 . S
C1044 C1042 1.388 . S
C1044 C1045 1.366 . S
C1045 C1044 1.366 . S
C1045 C1046 1.414 . S
C1045 C1048 1.499 . S
C1046 H1026 0.950 . S
C1046 C1045 1.414 . S
C1046 C1047 1.374 . S
C1047 H1027 0.950 . S
C1047 C1043 1.385 . S
C1047 C1046 1.374 . S
C1048 C1045 1.499 . S
C1048 C1049 1.373 . S
C1048 C1050 1.389 . S
C1049 H1028 0.950 . S
C1049 C1048 1.373 . S
C1049 C1065 1.377 . S
C1050 C1048 1.389 . S
C1050 C1051 1.524 . S
C1050 C1064 1.377 . S
C1051 C1050 1.524 . S
C1051 C1052 1.397 . S
C1051 C1056 1.363 . S
C1052 H1029 0.950 . S
C1052 C1051 1.397 . S
C1052 C1053 1.334 . S
C1053 H1030 0.950 . S
C1053 C1052 1.334 . S
C1053 C1054 1.287 . S
C1054 C1053 1.287 . S
C1054 C1055 1.524 . S
C1054 H1073 0.913 . S
C1055 H1031 0.950 . S
C1055 C1054 1.524 . S
C1055 C1056 1.415 . S
C1056 H1032 0.950 . S
C1056 C1051 1.363 . S
C1056 C1055 1.415 . S
C1057 H1033 0.951 . S
C1057 C1058 1.366 . S
C1057 C1059 1.388 . S
C1058 C1057 1.366 . S
C1058 C1062 1.385 . S
C1059 H1034 0.951 1_455 S
C1059 C1057 1.388 . S
C1059 C1060 1.366 1_455 S
C1060 C1059 1.366 1_655 S
C1060 C1061 1.412 1_655 S
C1060 C1063 1.499 . S
C1061 H1035 0.948 1_455 S
C1061 C1060 1.412 1_455 S
C1061 C1062 1.378 . S
C1062 H1036 0.950 . S
C1062 C1058 1.385 . S
C1062 C1061 1.378 . S
C1063 C1060 1.499 . S
C1063 C1064 1.373 . S
C1063 C1065 1.389 . S
C1064 H1037 0.950 . S
C1064 C1050 1.377 . S
C1064 C1063 1.373 . S
C1065 C1049 1.377 . S
C1065 C1063 1.389 . S
C1065 C1066 1.524 . S
C1066 C1065 1.524 . S
C1066 C1067 1.397 . S
C1066 C1071 1.363 . S
C1067 H1038 0.950 . S
C1067 C1066 1.397 . S
C1067 C1068 1.334 . S
C1068 H1039 0.950 . S
C1068 C1067 1.334 . S
C1068 C1069 1.287 . S
C1069 C1068 1.287 . S
C1069 C1070 1.524 . S
C1069 H1072 0.999 . S
C1070 H1040 0.950 . S
C1070 C1069 1.524 . S
C1070 C1071 1.415 . S
C1071 H1041 0.950 . S
C1071 C1066 1.363 . S
C1071 C1070 1.415 . S
H1072 C1069 0.999 . S
H1073 C1054 0.913 . S
H1074 C1092 0.951 . S
H1075 C1094 0.951 . S
H1076 C1096 0.950 . S
H1077 C1097 0.950 . S
H1078 C1099 0.950 . S
H1079 C1102 0.950 . S
H1080 C1103 0.950 . S
H1081 C1105 0.950 1_554 S
H1082 C1106 0.950 . S
H1083 C1107 0.951 . S
H1084 C1109 0.951 . S
H1085 C1111 0.950 . S
H1086 C1112 0.950 . S
H1087 C1114 0.950 . S
H1088 C1117 0.950 . S
H1089 C1118 0.950 . S
H1090 C1120 0.950 . S
H1091 C1121 0.950 . S
C1092 H1074 0.951 . S
C1092 C1093 1.360 1_545 S
C1092 C1094 1.388 . S
C1093 C1092 1.360 1_565 S
C1093 C1097 1.389 . S
C1094 H1075 0.951 . S
C1094 C1092 1.388 . S
C1094 C1095 1.375 . S
C1095 C1094 1.375 . S
C1095 C1096 1.405 1_545 S
C1095 C1098 1.503 . S
C1096 H1076 0.950 . S
C1096 C1095 1.405 1_565 S
C1096 C1097 1.374 . S
C1097 H1077 0.950 . S
C1097 C1093 1.389 . S
C1097 C1096 1.374 . S
C1098 C1095 1.503 . S
C1098 C1099 1.373 . S
C1098 C1100 1.389 1_545 S
C1099 H1078 0.950 . S
C1099 C1098 1.373 . S
C1099 C1115 1.377 . S
C1100 C1098 1.389 1_565 S
C1100 C1101 1.524 . S
C1100 C1114 1.377 . S
C1101 C1100 1.524 . S
C1101 C1102 1.397 . S
C1101 C1106 1.363 . S
C1102 H1079 0.950 . S
C1102 C1101 1.397 . S
C1102 C1103 1.334 . S
C1103 H1080 0.950 . S
C1103 C1102 1.334 . S
C1103 C1104 1.287 . S
C1104 C1103 1.287 . S
C1104 C1105 1.524 . S
C1104 H1123 0.911 1_556 S
C1105 H1081 0.950 1_556 S
C1105 C1104 1.524 . S
C1105 C1106 1.415 . S
C1106 H1082 0.950 . S
C1106 C1101 1.363 . S
C1106 C1105 1.415 . S
C1107 H1083 0.951 . S
C1107 C1108 1.366 . S
C1107 C1109 1.388 . S
C1108 C1107 1.366 . S
C1108 C1112 1.385 . S
C1109 H1084 0.951 . S
C1109 C1107 1.388 . S
C1109 C1110 1.366 . S
C1110 C1109 1.366 . S
C1110 C1111 1.414 . S
C1110 C1113 1.499 . S
C1111 H1085 0.950 . S
C1111 C1110 1.414 . S
C1111 C1112 1.374 . S
C1112 H1086 0.950 . S
C1112 C1108 1.385 . S
C1112 C1111 1.374 . S
C1113 C1110 1.499 . S
C1113 C1114 1.373 1_545 S
C1113 C1115 1.389 . S
C1114 H1087 0.950 . S
C1114 C1100 1.377 . S
C1114 C1113 1.373 1_565 S
C1115 C1099 1.377 . S
C1115 C1113 1.389 . S
C1115 C1116 1.524 . S
C1116 C1115 1.524 . S
C1116 C1117 1.397 . S
C1116 C1121 1.363 . S
C1117 H1088 0.950 . S
C1117 C1116 1.397 . S
C1117 C1118 1.334 . S
C1118 H1089 0.950 . S
C1118 C1117 1.334 . S
C1118 C1119 1.287 . S
C1119 C1118 1.287 . S
C1119 C1120 1.524 . S
C1119 H1122 0.999 . S
C1120 H1090 0.950 . S
C1120 C1119 1.524 . S
C1120 C1121 1.415 . S
C1121 H1091 0.950 . S
C1121 C1116 1.363 . S
C1121 C1120 1.415 . S
H1122 C1119 0.999 . S
H1123 C1104 0.911 1_554 S
H1124 C1142 0.951 . S
H1125 C1144 0.951 . S
H1126 C1146 0.950 . S
H1127 C1147 0.950 . S
H1128 C1149 0.950 . S
H1129 C1152 0.950 . S
H1130 C1153 0.950 . S
H1131 C1155 0.950 . S
H1132 C1156 0.950 . S
H1133 C1157 0.951 . S
H1134 C1159 0.951 . S
H1135 C1161 0.950 . S
H1136 C1162 0.950 . S
H1137 C1164 0.950 . S
H1138 C1167 0.950 . S
H1139 C1168 0.950 . S
H1140 C1170 0.950 . S
H1141 C1171 0.950 . S
C1142 H1124 0.951 . S
C1142 C1143 1.366 . S
C1142 C1144 1.388 . S
C1143 C1142 1.366 . S
C1143 C1147 1.385 . S
C1144 H1125 0.951 . S
C1144 C1142 1.388 . S
C1144 C1145 1.366 . S
C1145 C1144 1.366 . S
C1145 C1146 1.414 . S
C1145 C1148 1.499 . S
C1146 H1126 0.950 . S
C1146 C1145 1.414 . S
C1146 C1147 1.374 . S
C1147 H1127 0.950 . S
C1147 C1143 1.385 . S
C1147 C1146 1.374 . S
C1148 C1145 1.499 . S
C1148 C1149 1.373 . S
C1148 C1150 1.389 . S
C1149 H1128 0.950 . S
C1149 C1148 1.373 . S
C1149 C1165 1.377 . S
C1150 C1148 1.389 . S
C1150 C1151 1.524 . S
C1150 C1164 1.377 . S
C1151 C1150 1.524 . S
C1151 C1152 1.397 . S
C1151 C1156 1.363 . S
C1152 H1129 0.950 . S
C1152 C1151 1.397 . S
C1152 C1153 1.334 . S
C1153 H1130 0.950 . S
C1153 C1152 1.334 . S
C1153 C1154 1.287 . S
C1154 C1153 1.287 . S
C1154 C1155 1.524 . S
C1154 H1173 0.913 . S
C1155 H1131 0.950 . S
C1155 C1154 1.524 . S
C1155 C1156 1.415 . S
C1156 H1132 0.950 . S
C1156 C1151 1.363 . S
C1156 C1155 1.415 . S
C1157 H1133 0.951 . S
C1157 C1158 1.366 . S
C1157 C1159 1.388 . S
C1158 C1157 1.366 . S
C1158 C1162 1.385 . S
C1159 H1134 0.951 . S
C1159 C1157 1.388 . S
C1159 C1160 1.366 . S
C1160 C1159 1.366 . S
C1160 C1161 1.414 . S
C1160 C1163 1.499 . S
C1161 H1135 0.950 . S
C1161 C1160 1.414 . S
C1161 C1162 1.374 . S
C1162 H1136 0.950 . S
C1162 C1158 1.385 . S
C1162 C1161 1.374 . S
C1163 C1160 1.499 . S
C1163 C1164 1.373 . S
C1163 C1165 1.389 . S
C1164 H1137 0.950 . S
C1164 C1150 1.377 . S
C1164 C1163 1.373 . S
C1165 C1149 1.377 . S
C1165 C1163 1.389 . S
C1165 C1166 1.524 . S
C1166 C1165 1.524 . S
C1166 C1167 1.397 . S
C1166 C1171 1.363 . S
C1167 H1138 0.950 . S
C1167 C1166 1.397 . S
C1167 C1168 1.334 . S
C1168 H1139 0.950 . S
C1168 C1167 1.334 . S
C1168 C1169 1.287 . S
C1169 C1168 1.287 . S
C1169 C1170 1.524 . S
C1169 H1172 0.999 . S
C1170 H1140 0.950 . S
C1170 C1169 1.524 . S
C1170 C1171 1.415 . S
C1171 H1141 0.950 . S
C1171 C1166 1.363 . S
C1171 C1170 1.415 . S
H1172 C1169 0.999 . S
H1173 C1154 0.913 . S
H1174 C1192 0.951 1_554 S
H1175 C1194 0.951 . S
H1176 C1196 0.950 . S
H1177 C1197 0.950 . S
H1178 C1199 0.950 . S
H1179 C1202 0.950 . S
H1180 C1203 0.950 . S
H1181 C1205 0.950 . S
H1182 C1206 0.950 . S
H1183 C1207 0.951 . S
H1184 C1209 0.951 . S
H1185 C1211 0.950 . S
H1186 C1212 0.950 . S
H1187 C1214 0.950 . S
H1188 C1217 0.950 . S
H1189 C1218 0.950 . S
H1190 C1220 0.950 . S
H1191 C1221 0.950 . S
C1192 H1174 0.951 1_556 S
C1192 C1193 1.366 . S
C1192 C1194 1.388 . S
C1193 C1192 1.366 . S
C1193 C1197 1.385 . S
C1194 H1175 0.951 . S
C1194 C1192 1.388 . S
C1194 C1195 1.366 . S
C1195 C1194 1.366 . S
C1195 C1196 1.414 . S
C1195 C1198 1.499 . S
C1196 H1176 0.950 . S
C1196 C1195 1.414 . S
C1196 C1197 1.374 . S
C1197 H1177 0.950 . S
C1197 C1193 1.385 . S
C1197 C1196 1.374 . S
C1198 C1195 1.499 . S
C1198 C1199 1.373 . S
C1198 C1200 1.389 . S
C1199 H1178 0.950 . S
C1199 C1198 1.373 . S
C1199 C1215 1.377 . S
C1200 C1198 1.389 . S
C1200 C1201 1.524 . S
C1200 C1214 1.377 . S
C1201 C1200 1.524 . S
C1201 C1202 1.397 . S
C1201 C1206 1.363 . S
C1202 H1179 0.950 . S
C1202 C1201 1.397 . S
C1202 C1203 1.334 . S
C1203 H1180 0.950 . S
C1203 C1202 1.334 . S
C1203 C1204 1.287 . S
C1204 C1203 1.287 . S
C1204 C1205 1.524 . S
C1204 H1223 0.913 . S
C1205 H1181 0.950 . S
C1205 C1204 1.524 . S
C1205 C1206 1.415 . S
C1206 H1182 0.950 . S
C1206 C1201 1.363 . S
C1206 C1205 1.415 . S
C1207 H1183 0.951 . S
C1207 C1208 1.366 . S
C1207 C1209 1.388 . S
C1208 C1207 1.366 . S
C1208 C1212 1.385 . S
C1209 H1184 0.951 . S
C1209 C1207 1.388 . S
C1209 C1210 1.366 . S
C1210 C1209 1.366 . S
C1210 C1211 1.414 . S
C1210 C1213 1.499 . S
C1211 H1185 0.950 . S
C1211 C1210 1.414 . S
C1211 C1212 1.374 . S
C1212 H1186 0.950 . S
C1212 C1208 1.385 . S
C1212 C1211 1.374 . S
C1213 C1210 1.499 . S
C1213 C1214 1.373 . S
C1213 C1215 1.389 . S
C1214 H1187 0.950 . S
C1214 C1200 1.377 . S
C1214 C1213 1.373 . S
C1215 C1199 1.377 . S
C1215 C1213 1.389 . S
C1215 C1216 1.524 . S
C1216 C1215 1.524 . S
C1216 C1217 1.397 . S
C1216 C1221 1.363 . S
C1217 H1188 0.950 . S
C1217 C1216 1.397 . S
C1217 C1218 1.334 . S
C1218 H1189 0.950 . S
C1218 C1217 1.334 . S
C1218 C1219 1.287 . S
C1219 C1218 1.287 . S
C1219 C1220 1.524 . S
C1219 H1222 0.999 . S
C1220 H1190 0.950 . S
C1220 C1219 1.524 . S
C1220 C1221 1.415 . S
C1221 H1191 0.950 . S
C1221 C1216 1.363 . S
C1221 C1220 1.415 . S
H1222 C1219 0.999 . S
H1223 C1204 0.913 . S
H1224 C1242 0.951 . S
H1225 C1244 0.951 . S
H1226 C1246 0.950 . S
H1227 C1247 0.950 . S
H1228 C1249 0.950 . S
H1229 C1252 0.950 . S
H1230 C1253 0.950 . S
H1231 C1255 0.950 1_556 S
H1232 C1256 0.950 . S
H1233 C1257 0.951 . S
H1234 C1259 0.951 1_554 S
H1235 C1261 0.950 . S
H1236 C1262 0.950 . S
H1237 C1264 0.950 . S
H1238 C1267 0.950 . S
H1239 C1268 0.950 . S
H1240 C1270 0.950 . S
H1241 C1271 0.950 . S
C1242 H1224 0.951 . S
C1242 C1243 1.366 . S
C1242 C1244 1.388 . S
C1243 C1242 1.366 . S
C1243 C1247 1.385 . S
C1244 H1225 0.951 . S
C1244 C1242 1.388 . S
C1244 C1245 1.366 . S
C1245 C1244 1.366 . S
C1245 C1246 1.414 . S
C1245 C1248 1.499 . S
C1246 H1226 0.950 . S
C1246 C1245 1.414 . S
C1246 C1247 1.374 . S
C1247 H1227 0.950 . S
C1247 C1243 1.385 . S
C1247 C1246 1.374 . S
C1248 C1245 1.499 . S
C1248 C1249 1.373 . S
C1248 C1250 1.389 . S
C1249 H1228 0.950 . S
C1249 C1248 1.373 . S
C1249 C1265 1.377 . S
C1250 C1248 1.389 . S
C1250 C1251 1.524 . S
C1250 C1264 1.377 1_554 S
C1251 C1250 1.524 . S
C1251 C1252 1.397 . S
C1251 C1256 1.363 1_554 S
C1252 H1229 0.950 . S
C1252 C1251 1.397 . S
C1252 C1253 1.334 . S
C1253 H1230 0.950 . S
C1253 C1252 1.334 . S
C1253 C1254 1.287 . S
C1254 C1253 1.287 . S
C1254 C1255 1.524 . S
C1254 H1273 0.913 . S
C1255 H1231 0.950 1_554 S
C1255 C1254 1.524 . S
C1255 C1256 1.415 1_554 S
C1256 H1232 0.950 . S
C1256 C1251 1.363 1_556 S
C1256 C1255 1.415 1_556 S
C1257 H1233 0.951 . S
C1257 C1258 1.366 . S
C1257 C1259 1.388 . S
C1258 C1257 1.366 . S
C1258 C1262 1.385 . S
C1259 H1234 0.951 1_556 S
C1259 C1257 1.388 . S
C1259 C1260 1.366 . S
C1260 C1259 1.366 . S
C1260 C1261 1.414 . S
C1260 C1263 1.499 . S
C1261 H1235 0.950 . S
C1261 C1260 1.414 . S
C1261 C1262 1.374 . S
C1262 H1236 0.950 . S
C1262 C1258 1.385 . S
C1262 C1261 1.374 . S
C1263 C1260 1.499 . S
C1263 C1264 1.373 . S
C1263 C1265 1.389 1_556 S
C1264 H1237 0.950 . S
C1264 C1250 1.377 1_556 S
C1264 C1263 1.373 . S
C1265 C1249 1.377 . S
C1265 C1263 1.389 1_554 S
C1265 C1266 1.524 . S
C1266 C1265 1.524 . S
C1266 C1267 1.397 1_554 S
C1266 C1271 1.363 . S
C1267 H1238 0.950 . S
C1267 C1266 1.397 1_556 S
C1267 C1268 1.334 . S
C1268 H1239 0.950 . S
C1268 C1267 1.334 . S
C1268 C1269 1.287 . S
C1269 C1268 1.287 . S
C1269 C1270 1.524 1_556 S
C1269 H1272 0.999 . S
C1270 H1240 0.950 . S
C1270 C1269 1.524 1_554 S
C1270 C1271 1.415 . S
C1271 H1241 0.950 . S
C1271 C1266 1.363 . S
C1271 C1270 1.415 . S
H1272 C1269 0.999 . S
H1273 C1254 0.913 . S
H1274 C1292 0.951 . S
H1275 C1294 0.951 . S
H1276 C1296 0.950 . S
H1277 C1297 0.949 1_556 S
H1278 C1299 0.950 . S
H1279 C1302 0.950 . S
H1280 C1303 0.950 . S
H1281 C1305 0.950 1_554 S
H1282 C1306 0.950 . S
H1283 C1307 0.951 . S
H1284 C1309 0.951 . S
H1285 C1311 0.950 . S
H1286 C1312 0.950 . S
H1287 C1314 0.950 . S
H1288 C1317 0.950 . S
H1289 C1318 0.950 . S
H1290 C1320 0.950 . S
H1291 C1321 0.950 . S
C1292 H1274 0.951 . S
C1292 C1293 1.375 . S
C1292 C1294 1.388 . S
C1293 C1292 1.375 . S
C1293 C1297 1.375 1_545 S
C1294 H1275 0.951 . S
C1294 C1292 1.388 . S
C1294 C1295 1.366 1_554 S
C1295 C1294 1.366 1_556 S
C1295 C1296 1.414 1_545 S
C1295 C1298 1.499 . S
C1296 H1276 0.950 . S
C1296 C1295 1.414 1_565 S
C1296 C1297 1.374 1_556 S
C1297 H1277 0.949 1_554 S
C1297 C1293 1.375 1_565 S
C1297 C1296 1.374 1_554 S
C1298 C1295 1.499 . S
C1298 C1299 1.373 1_545 S
C1298 C1300 1.389 . S
C1299 H1278 0.950 . S
C1299 C1298 1.373 1_565 S
C1299 C1315 1.377 . S
C1300 C1298 1.389 . S
C1300 C1301 1.524 . S
C1300 C1314 1.377 . S
C1301 C1300 1.524 . S
C1301 C1302 1.397 . S
C1301 C1306 1.363 . S
C1302 H1279 0.950 . S
C1302 C1301 1.397 . S
C1302 C1303 1.334 . S
C1303 H1280 0.950 . S
C1303 C1302 1.334 . S
C1303 C1304 1.287 . S
C1304 C1303 1.287 . S
C1304 C1305 1.524 . S
C1304 H1323 0.913 . S
C1305 H1281 0.950 1_556 S
C1305 C1304 1.524 . S
C1305 C1306 1.415 . S
C1306 H1282 0.950 . S
C1306 C1301 1.363 . S
C1306 C1305 1.415 . S
C1307 H1283 0.951 . S
C1307 C1308 1.366 1_565 S
C1307 C1309 1.388 . S
C1308 C1307 1.366 1_545 S
C1308 C1312 1.385 . S
C1309 H1284 0.951 . S
C1309 C1307 1.388 . S
C1309 C1310 1.366 1_565 S
C1310 C1309 1.366 1_545 S
C1310 C1311 1.414 . S
C1310 C1313 1.499 . S
C1311 H1285 0.950 . S
C1311 C1310 1.414 . S
C1311 C1312 1.374 . S
C1312 H1286 0.950 . S
C1312 C1308 1.385 . S
C1312 C1311 1.374 . S
C1313 C1310 1.499 . S
C1313 C1314 1.373 . S
C1313 C1315 1.389 1_545 S
C1314 H1287 0.950 . S
C1314 C1300 1.377 . S
C1314 C1313 1.373 . S
C1315 C1299 1.377 . S
C1315 C1313 1.389 1_565 S
C1315 C1316 1.524 . S
C1316 C1315 1.524 . S
C1316 C1317 1.397 . S
C1316 C1321 1.363 . S
C1317 H1288 0.950 . S
C1317 C1316 1.397 . S
C1317 C1318 1.334 . S
C1318 H1289 0.950 . S
C1318 C1317 1.334 . S
C1318 C1319 1.287 . S
C1319 C1318 1.287 . S
C1319 C1320 1.524 . S
C1319 H1322 0.999 . S
C1320 H1290 0.950 . S
C1320 C1319 1.524 . S
C1320 C1321 1.415 . S
C1321 H1291 0.950 . S
C1321 C1316 1.363 . S
C1321 C1320 1.415 . S
H1322 C1319 0.999 . S
H1323 C1304 0.913 . S
H1324 C1342 0.951 . S
H1325 C1344 0.951 . S
H1326 C1346 0.950 . S
H1327 C1347 0.950 . S
H1328 C1349 0.950 1_554 S
H1329 C1352 0.950 . S
H1330 C1353 0.950 . S
H1331 C1355 0.950 . S
H1332 C1356 0.950 . S
H1333 C1357 0.951 . S
H1334 C1359 0.951 . S
H1335 C1361 0.950 . S
H1336 C1362 0.950 . S
H1337 C1364 0.950 . S
H1338 C1367 0.950 . S
H1339 C1368 0.950 . S
H1340 C1370 0.950 . S
H1341 C1371 0.950 . S
C1342 H1324 0.951 . S
C1342 C1343 1.366 . S
C1342 C1344 1.388 1_554 S
C1343 C1342 1.366 . S
C1343 C1347 1.385 . S
C1344 H1325 0.951 . S
C1344 C1342 1.388 1_556 S
C1344 C1345 1.366 . S
C1345 C1344 1.366 . S
C1345 C1346 1.414 1_556 S
C1345 C1348 1.499 . S
C1346 H1326 0.950 . S
C1346 C1345 1.414 1_554 S
C1346 C1347 1.374 . S
C1347 H1327 0.950 . S
C1347 C1343 1.385 . S
C1347 C1346 1.374 . S
C1348 C1345 1.499 . S
C1348 C1349 1.373 . S
C1348 C1350 1.389 . S
C1349 H1328 0.950 1_556 S
C1349 C1348 1.373 . S
C1349 C1365 1.377 . S
C1350 C1348 1.389 . S
C1350 C1351 1.524 . S
C1350 C1364 1.377 . S
C1351 C1350 1.524 . S
C1351 C1352 1.397 . S
C1351 C1356 1.363 . S
C1352 H1329 0.950 . S
C1352 C1351 1.397 . S
C1352 C1353 1.334 . S
C1353 H1330 0.950 . S
C1353 C1352 1.334 . S
C1353 C1354 1.287 . S
C1354 C1353 1.287 . S
C1354 C1355 1.524 . S
C1354 H1373 0.913 . S
C1355 H1331 0.950 . S
C1355 C1354 1.524 . S
C1355 C1356 1.415 . S
C1356 H1332 0.950 . S
C1356 C1351 1.363 . S
C1356 C1355 1.415 . S
C1357 H1333 0.951 . S
C1357 C1358 1.366 . S
C1357 C1359 1.388 . S
C1358 C1357 1.366 . S
C1358 C1362 1.385 . S
C1359 H1334 0.951 . S
C1359 C1357 1.388 . S
C1359 C1360 1.366 . S
C1360 C1359 1.366 . S
C1360 C1361 1.414 . S
C1360 C1363 1.499 . S
C1361 H1335 0.950 . S
C1361 C1360 1.414 . S
C1361 C1362 1.374 . S
C1362 H1336 0.950 . S
C1362 C1358 1.385 . S
C1362 C1361 1.374 . S
C1363 C1360 1.499 . S
C1363 C1364 1.373 . S
C1363 C1365 1.389 . S
C1364 H1337 0.950 . S
C1364 C1350 1.377 . S
C1364 C1363 1.373 . S
C1365 C1349 1.377 . S
C1365 C1363 1.389 . S
C1365 C1366 1.524 . S
C1366 C1365 1.524 . S
C1366 C1367 1.397 . S
C1366 C1371 1.363 1_556 S
C1367 H1338 0.950 . S
C1367 C1366 1.397 . S
C1367 C1368 1.334 . S
C1368 H1339 0.950 . S
C1368 C1367 1.334 . S
C1368 C1369 1.287 1_556 S
C1369 C1368 1.287 1_554 S
C1369 C1370 1.524 . S
C1369 H1372 0.999 . S
C1370 H1340 0.950 . S
C1370 C1369 1.524 . S
C1370 C1371 1.415 . S
C1371 H1341 0.950 . S
C1371 C1366 1.363 1_554 S
C1371 C1370 1.415 . S
H1372 C1369 0.999 . S
H1373 C1354 0.913 . S
H1374 C1392 0.951 . S
H1375 C1394 0.951 . S
H1376 C1396 0.950 . S
H1377 C1397 0.950 . S
H1378 C1399 0.950 . S
H1379 C1402 0.950 1_556 S
H1380 C1403 0.950 . S
H1381 C1405 0.950 . S
H1382 C1406 0.950 . S
H1383 C1407 0.951 . S
H1384 C1409 0.951 . S
H1385 C1411 0.950 . S
H1386 C1412 0.950 . S
H1387 C1414 0.950 . S
H1388 C1417 0.950 . S
H1389 C1418 0.950 . S
H1390 C1420 0.950 . S
H1391 C1421 0.950 . S
C1392 H1374 0.951 . S
C1392 C1393 1.366 . S
C1392 C1394 1.388 . S
C1393 C1392 1.366 . S
C1393 C1397 1.385 1_554 S
C1394 H1375 0.951 . S
C1394 C1392 1.388 . S
C1394 C1395 1.366 1_554 S
C1395 C1394 1.366 1_556 S
C1395 C1396 1.414 . S
C1395 C1398 1.499 . S
C1396 H1376 0.950 . S
C1396 C1395 1.414 . S
C1396 C1397 1.374 . S
C1397 H1377 0.950 . S
C1397 C1393 1.385 1_556 S
C1397 C1396 1.374 . S
C1398 C1395 1.499 . S
C1398 C1399 1.373 . S
C1398 C1400 1.389 . S
C1399 H1378 0.950 . S
C1399 C1398 1.373 . S
C1399 C1415 1.377 . S
C1400 C1398 1.389 . S
C1400 C1401 1.524 . S
C1400 C1414 1.377 . S
C1401 C1400 1.524 . S
C1401 C1402 1.397 1_556 S
C1401 C1406 1.363 1_556 S
C1402 H1379 0.950 1_554 S
C1402 C1401 1.397 1_554 S
C1402 C1403 1.334 . S
C1403 H1380 0.950 . S
C1403 C1402 1.334 . S
C1403 C1404 1.287 . S
C1404 C1403 1.287 . S
C1404 C1405 1.524 . S
C1404 H1423 0.913 . S
C1405 H1381 0.950 . S
C1405 C1404 1.524 . S
C1405 C1406 1.415 . S
C1406 H1382 0.950 . S
C1406 C1401 1.363 1_554 S
C1406 C1405 1.415 . S
C1407 H1383 0.951 . S
C1407 C1408 1.366 . S
C1407 C1409 1.388 . S
C1408 C1407 1.366 . S
C1408 C1412 1.385 . S
C1409 H1384 0.951 . S
C1409 C1407 1.388 . S
C1409 C1410 1.366 . S
C1410 C1409 1.366 . S
C1410 C1411 1.414 . S
C1410 C1413 1.499 . S
C1411 H1385 0.950 . S
C1411 C1410 1.414 . S
C1411 C1412 1.374 . S
C1412 H1386 0.950 . S
C1412 C1408 1.385 . S
C1412 C1411 1.374 . S
C1413 C1410 1.499 . S
C1413 C1414 1.373 . S
C1413 C1415 1.389 . S
C1414 H1387 0.950 . S
C1414 C1400 1.377 . S
C1414 C1413 1.373 . S
C1415 C1399 1.377 . S
C1415 C1413 1.389 . S
C1415 C1416 1.524 . S
C1416 C1415 1.524 . S
C1416 C1417 1.397 . S
C1416 C1421 1.363 . S
C1417 H1388 0.950 . S
C1417 C1416 1.397 . S
C1417 C1418 1.334 . S
C1418 H1389 0.950 . S
C1418 C1417 1.334 . S
C1418 C1419 1.287 . S
C1419 C1418 1.287 . S
C1419 C1420 1.524 . S
C1419 H1422 0.999 . S
C1420 H1390 0.950 . S
C1420 C1419 1.524 . S
C1420 C1421 1.415 . S
C1421 H1391 0.950 . S
C1421 C1416 1.363 . S
C1421 C1420 1.415 . S
H1422 C1419 0.999 . S
H1423 C1404 0.913 . S
H1424 C1442 0.951 . S
H1425 C1444 0.951 . S
H1426 C1446 0.950 . S
H1427 C1447 0.950 . S
H1428 C1449 0.950 . S
H1429 C1452 0.950 . S
H1430 C1453 0.950 . S
H1431 C1455 0.950 . S
H1432 C1456 0.950 . S
H1433 C1457 0.951 . S
H1434 C1459 0.951 . S
H1435 C1461 0.950 . S
H1436 C1462 0.950 . S
H1437 C1464 0.950 . S
H1438 C1467 0.950 . S
H1439 C1468 0.950 . S
H1440 C1470 0.950 . S
H1441 C1471 0.950 . S
C1442 H1424 0.951 . S
C1442 C1443 1.366 . S
C1442 C1444 1.388 . S
C1443 C1442 1.366 . S
C1443 C1447 1.385 . S
C1444 H1425 0.951 . S
C1444 C1442 1.388 . S
C1444 C1445 1.366 . S
C1445 C1444 1.366 . S
C1445 C1446 1.414 . S
C1445 C1448 1.499 . S
C1446 H1426 0.950 . S
C1446 C1445 1.414 . S
C1446 C1447 1.374 . S
C1447 H1427 0.950 . S
C1447 C1443 1.385 . S
C1447 C1446 1.374 . S
C1448 C1445 1.499 . S
C1448 C1449 1.373 . S
C1448 C1450 1.389 . S
C1449 H1428 0.950 . S
C1449 C1448 1.373 . S
C1449 C1465 1.377 . S
C1450 C1448 1.389 . S
C1450 C1451 1.524 . S
C1450 C1464 1.377 . S
C1451 C1450 1.524 . S
C1451 C1452 1.397 . S
C1451 C1456 1.363 . S
C1452 H1429 0.950 . S
C1452 C1451 1.397 . S
C1452 C1453 1.334 1_655 S
C1453 H1430 0.950 . S
C1453 C1452 1.334 1_455 S
C1453 C1454 1.287 . S
C1454 C1453 1.287 . S
C1454 C1455 1.524 . S
C1454 H1473 0.913 . S
C1455 H1431 0.950 . S
C1455 C1454 1.524 . S
C1455 C1456 1.415 1_455 S
C1456 H1432 0.950 . S
C1456 C1451 1.363 . S
C1456 C1455 1.415 1_655 S
C1457 H1433 0.951 . S
C1457 C1458 1.366 . S
C1457 C1459 1.388 . S
C1458 C1457 1.366 . S
C1458 C1462 1.385 . S
C1459 H1434 0.951 . S
C1459 C1457 1.388 . S
C1459 C1460 1.366 . S
C1460 C1459 1.366 . S
C1460 C1461 1.414 . S
C1460 C1463 1.499 . S
C1461 H1435 0.950 . S
C1461 C1460 1.414 . S
C1461 C1462 1.374 . S
C1462 H1436 0.950 . S
C1462 C1458 1.385 . S
C1462 C1461 1.374 . S
C1463 C1460 1.499 . S
C1463 C1464 1.373 . S
C1463 C1465 1.389 . S
C1464 H1437 0.950 . S
C1464 C1450 1.377 . S
C1464 C1463 1.373 . S
C1465 C1449 1.377 . S
C1465 C1463 1.389 . S
C1465 C1466 1.524 . S
C1466 C1465 1.524 . S
C1466 C1467 1.397 . S
C1466 C1471 1.363 . S
C1467 H1438 0.950 . S
C1467 C1466 1.397 . S
C1467 C1468 1.334 . S
C1468 H1439 0.950 . S
C1468 C1467 1.334 . S
C1468 C1469 1.287 . S
C1469 C1468 1.287 . S
C1469 C1470 1.524 . S
C1469 H1472 0.999 . S
C1470 H1440 0.950 . S
C1470 C1469 1.524 . S
C1470 C1471 1.415 . S
C1471 H1441 0.950 . S
C1471 C1466 1.363 . S
C1471 C1470 1.415 . S
H1472 C1469 0.999 . S
H1473 C1454 0.913 . S
H1474 C1492 0.951 . S
H1475 C1494 0.951 . S
H1476 C1496 0.950 . S
H1477 C1497 0.950 . S
H1478 C1499 0.950 . S
H1479 C1502 0.950 . S
H1480 C1503 0.950 . S
H1481 C1505 0.950 . S
H1482 C1506 0.950 . S
H1483 C1507 0.951 . S
H1484 C1509 0.951 . S
H1485 C1511 0.950 . S
H1486 C1512 0.950 . S
H1487 C1514 0.950 . S
H1488 C1517 0.995 . S
H1489 C1518 0.950 . S
H1490 C1520 0.950 . S
H1491 C1521 0.950 . S
C1492 H1474 0.951 . S
C1492 C1493 1.372 . S
C1492 C1494 1.388 . S
C1493 C1492 1.372 . S
C1493 C1497 1.378 1_565 S
C1494 H1475 0.951 . S
C1494 C1492 1.388 . S
C1494 C1495 1.419 . S
C1495 C1494 1.419 . S
C1495 C1496 1.363 1_565 S
C1495 C1498 1.498 . S
C1496 H1476 0.950 . S
C1496 C1495 1.363 1_545 S
C1496 C1497 1.374 . S
C1497 H1477 0.950 . S
C1497 C1493 1.378 1_545 S
C1497 C1496 1.374 . S
C1498 C1495 1.498 . S
C1498 C1499 1.343 1_565 S
C1498 C1500 1.419 . S
C1499 H1478 0.950 . S
C1499 C1498 1.343 1_545 S
C1499 C1515 1.377 . S
C1500 C1498 1.419 . S
C1500 C1501 1.524 . S
C1500 C1514 1.377 . S
C1501 C1500 1.524 . S
C1501 C1502 1.397 . S
C1501 C1506 1.363 . S
C1502 H1479 0.950 . S
C1502 C1501 1.397 . S
C1502 C1503 1.334 . S
C1503 H1480 0.950 . S
C1503 C1502 1.334 . S
C1503 C1504 1.287 . S
C1504 C1503 1.287 . S
C1504 C1505 1.524 . S
C1504 H1523 0.913 . S
C1505 H1481 0.950 . S
C1505 C1504 1.524 . S
C1505 C1506 1.415 . S
C1506 H1482 0.950 . S
C1506 C1501 1.363 . S
C1506 C1505 1.415 . S
C1507 H1483 0.951 . S
C1507 C1508 1.366 1_545 S
C1507 C1509 1.388 . S
C1508 C1507 1.366 1_565 S
C1508 C1512 1.385 . S
C1509 H1484 0.951 . S
C1509 C1507 1.388 . S
C1509 C1510 1.366 1_545 S
C1510 C1509 1.366 1_565 S
C1510 C1511 1.414 . S
C1510 C1513 1.499 . S
C1511 H1485 0.950 . S
C1511 C1510 1.414 . S
C1511 C1512 1.374 . S
C1512 H1486 0.950 . S
C1512 C1508 1.385 . S
C1512 C1511 1.374 . S
C1513 C1510 1.499 . S
C1513 C1514 1.373 . S
C1513 C1515 1.389 1_565 S
C1514 H1487 0.950 . S
C1514 C1500 1.377 . S
C1514 C1513 1.373 . S
C1515 C1499 1.377 . S
C1515 C1513 1.389 1_545 S
C1515 C1516 1.524 . S
C1516 C1515 1.524 . S
C1516 C1517 1.397 . S
C1516 C1521 1.363 . S
C1517 H1488 0.995 . S
C1517 C1516 1.397 . S
C1517 C1518 1.334 . S
C1518 H1489 0.950 . S
C1518 C1517 1.334 . S
C1518 C1519 1.287 . S
C1519 C1518 1.287 . S
C1519 C1520 1.524 . S
C1519 H1522 0.999 . S
C1520 H1490 0.950 . S
C1520 C1519 1.524 . S
C1520 C1521 1.415 . S
C1521 H1491 0.950 . S
C1521 C1516 1.363 . S
C1521 C1520 1.415 . S
H1522 C1519 0.999 . S
H1523 C1504 0.913 . S
H1524 C1542 0.951 . S
H1525 C1544 0.951 . S
H1526 C1546 0.950 . S
H1527 C1547 0.950 . S
H1528 C1549 0.950 . S
H1529 C1552 0.950 . S
H1530 C1553 0.950 . S
H1531 C1555 0.950 . S
H1532 C1556 0.950 . S
H1533 C1557 0.951 . S
H1534 C1559 0.951 . S
H1535 C1561 0.950 . S
H1536 C1562 0.950 . S
H1537 C1564 0.950 . S
H1538 C1567 0.950 . S
H1539 C1568 0.950 . S
H1540 C1570 0.950 . S
H1541 C1571 0.950 . S
C1542 H1524 0.951 . S
C1542 C1543 1.366 . S
C1542 C1544 1.388 . S
C1543 C1542 1.366 . S
C1543 C1547 1.385 . S
C1544 H1525 0.951 . S
C1544 C1542 1.388 . S
C1544 C1545 1.366 . S
C1545 C1544 1.366 . S
C1545 C1546 1.414 . S
C1545 C1548 1.499 . S
C1546 H1526 0.950 . S
C1546 C1545 1.414 . S
C1546 C1547 1.374 . S
C1547 H1527 0.950 . S
C1547 C1543 1.385 . S
C1547 C1546 1.374 . S
C1548 C1545 1.499 . S
C1548 C1549 1.373 . S
C1548 C1550 1.389 . S
C1549 H1528 0.950 . S
C1549 C1548 1.373 . S
C1549 C1565 1.377 . S
C1550 C1548 1.389 . S
C1550 C1551 1.524 . S
C1550 C1564 1.377 . S
C1551 C1550 1.524 . S
C1551 C1552 1.397 . S
C1551 C1556 1.363 . S
C1552 H1529 0.950 . S
C1552 C1551 1.397 . S
C1552 C1553 1.334 . S
C1553 H1530 0.950 . S
C1553 C1552 1.334 . S
C1553 C1554 1.287 . S
C1554 C1553 1.287 . S
C1554 C1555 1.524 . S
C1554 H1573 0.913 . S
C1555 H1531 0.950 . S
C1555 C1554 1.524 . S
C1555 C1556 1.415 . S
C1556 H1532 0.950 . S
C1556 C1551 1.363 . S
C1556 C1555 1.415 . S
C1557 H1533 0.951 . S
C1557 C1558 1.366 . S
C1557 C1559 1.388 . S
C1558 C1557 1.366 . S
C1558 C1562 1.385 . S
C1559 H1534 0.951 . S
C1559 C1557 1.388 . S
C1559 C1560 1.366 . S
C1560 C1559 1.366 . S
C1560 C1561 1.414 . S
C1560 C1563 1.499 . S
C1561 H1535 0.950 . S
C1561 C1560 1.414 . S
C1561 C1562 1.374 . S
C1562 H1536 0.950 . S
C1562 C1558 1.385 . S
C1562 C1561 1.374 . S
C1563 C1560 1.499 . S
C1563 C1564 1.373 . S
C1563 C1565 1.389 . S
C1564 H1537 0.950 . S
C1564 C1550 1.377 . S
C1564 C1563 1.373 . S
C1565 C1549 1.377 . S
C1565 C1563 1.389 . S
C1565 C1566 1.524 . S
C1566 C1565 1.524 . S
C1566 C1567 1.397 . S
C1566 C1571 1.363 . S
C1567 H1538 0.950 . S
C1567 C1566 1.397 . S
C1567 C1568 1.334 . S
C1568 H1539 0.950 . S
C1568 C1567 1.334 . S
C1568 C1569 1.287 . S
C1569 C1568 1.287 . S
C1569 C1570 1.524 . S
C1569 H1572 0.999 . S
C1570 H1540 0.950 . S
C1570 C1569 1.524 . S
C1570 C1571 1.415 . S
C1571 H1541 0.950 . S
C1571 C1566 1.363 . S
C1571 C1570 1.415 . S
H1572 C1569 0.999 . S
H1573 C1554 0.913 . S
H1574 C1592 0.951 . S
H1575 C1594 0.951 . S
H1576 C1596 0.950 . S
H1577 C1597 0.950 . S
H1578 C1599 0.950 . S
H1579 C1602 0.950 . S
H1580 C1603 0.950 . S
H1581 C1605 0.950 . S
H1582 C1606 0.950 . S
H1583 C1607 0.951 . S
H1584 C1609 0.951 . S
H1585 C1611 0.950 . S
H1586 C1612 0.950 . S
H1587 C1614 0.950 . S
H1588 C1617 0.950 . S
H1589 C1618 0.950 . S
H1590 C1620 0.950 . S
H1591 C1621 0.950 . S
C1592 H1574 0.951 . S
C1592 C1593 1.366 . S
C1592 C1594 1.388 . S
C1593 C1592 1.366 . S
C1593 C1597 1.385 . S
C1594 H1575 0.951 . S
C1594 C1592 1.388 . S
C1594 C1595 1.366 . S
C1595 C1594 1.366 . S
C1595 C1596 1.414 . S
C1595 C1598 1.499 . S
C1596 H1576 0.950 . S
C1596 C1595 1.414 . S
C1596 C1597 1.374 . S
C1597 H1577 0.950 . S
C1597 C1593 1.385 . S
C1597 C1596 1.374 . S
C1598 C1595 1.499 . S
C1598 C1599 1.373 . S
C1598 C1600 1.389 . S
C1599 H1578 0.950 . S
C1599 C1598 1.373 . S
C1599 C1615 1.377 . S
C1600 C1598 1.389 . S
C1600 C1601 1.524 . S
C1600 C1614 1.377 . S
C1601 C1600 1.524 . S
C1601 C1602 1.397 . S
C1601 C1606 1.363 . S
C1602 H1579 0.950 . S
C1602 C1601 1.397 . S
C1602 C1603 1.334 . S
C1603 H1580 0.950 . S
C1603 C1602 1.334 . S
C1603 C1604 1.287 . S
C1604 C1603 1.287 . S
C1604 C1605 1.524 . S
C1604 H1623 0.913 . S
C1605 H1581 0.950 . S
C1605 C1604 1.524 . S
C1605 C1606 1.415 . S
C1606 H1582 0.950 . S
C1606 C1601 1.363 . S
C1606 C1605 1.415 . S
C1607 H1583 0.951 . S
C1607 C1608 1.366 . S
C1607 C1609 1.388 . S
C1608 C1607 1.366 . S
C1608 C1612 1.385 . S
C1609 H1584 0.951 . S
C1609 C1607 1.388 . S
C1609 C1610 1.366 . S
C1610 C1609 1.366 . S
C1610 C1611 1.414 . S
C1610 C1613 1.499 . S
C1611 H1585 0.950 . S
C1611 C1610 1.414 . S
C1611 C1612 1.374 . S
C1612 H1586 0.950 . S
C1612 C1608 1.385 . S
C1612 C1611 1.374 . S
C1613 C1610 1.499 . S
C1613 C1614 1.373 . S
C1613 C1615 1.389 . S
C1614 H1587 0.950 . S
C1614 C1600 1.377 . S
C1614 C1613 1.373 . S
C1615 C1599 1.377 . S
C1615 C1613 1.389 . S
C1615 C1616 1.524 . S
C1616 C1615 1.524 . S
C1616 C1617 1.397 . S
C1616 C1621 1.363 . S
C1617 H1588 0.950 . S
C1617 C1616 1.397 . S
C1617 C1618 1.334 . S
C1618 H1589 0.950 . S
C1618 C1617 1.334 . S
C1618 C1619 1.287 . S
C1619 C1618 1.287 . S
C1619 C1620 1.524 . S
C1619 H1622 0.999 . S
C1620 H1590 0.950 . S
C1620 C1619 1.524 . S
C1620 C1621 1.415 . S
C1621 H1591 0.950 . S
C1621 C1616 1.363 . S
C1621 C1620 1.415 . S
H1622 C1619 0.999 . S
H1623 C1604 0.913 . S
C443 C241 1.788 1_565 S
C458 C305 1.825 . S
C508 C326 1.689 . S
C493 C277 1.640 . S
C558 C360 1.434 . S
C543 C169 1.382 . S
C608 C394 1.677 . S
C593 C205 1.654 . S
C658 C296 1.825 . S
C643 C97 1.787 1_556 S
C693 C133 1.684 . S
C708 C335 1.696 . S
C743 C25 1.404 . S
C758 C369 1.434 . S
C793 C61 1.612 . S
C808 C403 1.677 . S
C858 C317 0.456 . S
C843 C211 0.595 . S
C908 C322 0.190 . S
C893 C247 0.289 . S
C958 C356 0.282 . S
C943 C253 0.409 . S
C993 C175 0.486 . S
C1008 C390 0.233 . S
C1043 C67 0.756 . S
C1058 C288 0.458 . S
C1108 C351 0.186 . S
C1093 C103 0.289 1_565 S
C1158 C385 0.280 . S
C1143 C109 0.297 . S
C1193 C31 0.338 . S
C1208 C419 0.233 . S
C1243 C181 1.641 . S
C1258 C301 1.690 . S
C1293 C217 2.006 . S
C1308 C330 2.080 . S
C1358 C364 1.833 . S
C1343 C283 1.710 . S
C1408 C398 1.839 . S
C1393 C145 1.744 . S
C1443 C37 1.612 . S
C1458 C292 1.699 . S
C1508 C339 2.081 . S
C1493 C73 2.009 1_565 S
C1558 C373 1.833 . S
C1543 C139 1.743 . S
C1593 C1 1.771 . S
C1608 C407 1.839 . S
