# Generated by pormake.
# Topology eea, (3,6)-cn, num edge types: 1
# Building blocks:
#     Node 0, Type 0, BuildingBlock: BETDAH_clean_linker_0, # of connection points: 3
#     Node 1, Type 0, BuildingBlock: BETDAH_clean_linker_0, # of connection points: 3
#     Node 2, Type 0, BuildingBlock: BETDAH_clean_linker_0, # of connection points: 3
#     Node 3, Type 0, BuildingBlock: BETDAH_clean_linker_0, # of connection points: 3
#     Node 4, Type 0, BuildingBlock: BETDAH_clean_linker_0, # of connection points: 3
#     Node 5, Type 0, BuildingBlock: BETDAH_clean_linker_0, # of connection points: 3
#     Node 6, Type 0, BuildingBlock: BETDAH_clean_linker_0, # of connection points: 3
#     Node 7, Type 0, BuildingBlock: BETDAH_clean_linker_0, # of connection points: 3
#     Node 8, Type 0, BuildingBlock: BETDAH_clean_linker_0, # of connection points: 3
#     Node 9, Type 0, BuildingBlock: BETDAH_clean_linker_0, # of connection points: 3
#     Node 10, Type 0, BuildingBlock: BETDAH_clean_linker_0, # of connection points: 3
#     Node 11, Type 0, BuildingBlock: BETDAH_clean_linker_0, # of connection points: 3
#     Node 12, Type 0, BuildingBlock: BETDAH_clean_linker_0, # of connection points: 3
#     Node 13, Type 0, BuildingBlock: BETDAH_clean_linker_0, # of connection points: 3
#     Node 14, Type 0, BuildingBlock: BETDAH_clean_linker_0, # of connection points: 3
#     Node 15, Type 0, BuildingBlock: BETDAH_clean_linker_0, # of connection points: 3
#     Node 16, Type 0, BuildingBlock: BETDAH_clean_linker_0, # of connection points: 3
#     Node 17, Type 0, BuildingBlock: BETDAH_clean_linker_0, # of connection points: 3
#     Node 18, Type 1, BuildingBlock: CUWYAW_clean_sbu_0, # of connection points: 6
#     Node 19, Type 1, BuildingBlock: CUWYAW_clean_sbu_0, # of connection points: 6
#     Node 20, Type 1, BuildingBlock: CUWYAW_clean_sbu_0, # of connection points: 6
#     Node 21, Type 1, BuildingBlock: CUWYAW_clean_sbu_0, # of connection points: 6
#     Node 22, Type 1, BuildingBlock: CUWYAW_clean_sbu_0, # of connection points: 6
#     Node 23, Type 1, BuildingBlock: CUWYAW_clean_sbu_0, # of connection points: 6
#     Node 24, Type 1, BuildingBlock: CUWYAW_clean_sbu_0, # of connection points: 6
#     Node 25, Type 1, BuildingBlock: CUWYAW_clean_sbu_0, # of connection points: 6
#     Node 26, Type 1, BuildingBlock: CUWYAW_clean_sbu_0, # of connection points: 6
#     Edge 27, Type (0, 1), BuildingBlock: ZUJKAS_clean_linker_0, # of connection points: 2
#     Edge 28, Type (0, 1), BuildingBlock: ZUJKAS_clean_linker_0, # of connection points: 2
#     Edge 29, Type (0, 1), BuildingBlock: ZUJKAS_clean_linker_0, # of connection points: 2
#     Edge 30, Type (0, 1), BuildingBlock: ZUJKAS_clean_linker_0, # of connection points: 2
#     Edge 31, Type (0, 1), BuildingBlock: ZUJKAS_clean_linker_0, # of connection points: 2
#     Edge 32, Type (0, 1), BuildingBlock: ZUJKAS_clean_linker_0, # of connection points: 2
#     Edge 33, Type (0, 1), BuildingBlock: ZUJKAS_clean_linker_0, # of connection points: 2
#     Edge 34, Type (0, 1), BuildingBlock: ZUJKAS_clean_linker_0, # of connection points: 2
#     Edge 35, Type (0, 1), BuildingBlock: ZUJKAS_clean_linker_0, # of connection points: 2
#     Edge 36, Type (0, 1), BuildingBlock: ZUJKAS_clean_linker_0, # of connection points: 2
#     Edge 37, Type (0, 1), BuildingBlock: ZUJKAS_clean_linker_0, # of connection points: 2
#     Edge 38, Type (0, 1), BuildingBlock: ZUJKAS_clean_linker_0, # of connection points: 2
#     Edge 39, Type (0, 1), BuildingBlock: ZUJKAS_clean_linker_0, # of connection points: 2
#     Edge 40, Type (0, 1), BuildingBlock: ZUJKAS_clean_linker_0, # of connection points: 2
#     Edge 41, Type (0, 1), BuildingBlock: ZUJKAS_clean_linker_0, # of connection points: 2
#     Edge 42, Type (0, 1), BuildingBlock: ZUJKAS_clean_linker_0, # of connection points: 2
#     Edge 43, Type (0, 1), BuildingBlock: ZUJKAS_clean_linker_0, # of connection points: 2
#     Edge 44, Type (0, 1), BuildingBlock: ZUJKAS_clean_linker_0, # of connection points: 2
#     Edge 45, Type (0, 1), BuildingBlock: ZUJKAS_clean_linker_0, # of connection points: 2
#     Edge 46, Type (0, 1), BuildingBlock: ZUJKAS_clean_linker_0, # of connection points: 2
#     Edge 47, Type (0, 1), BuildingBlock: ZUJKAS_clean_linker_0, # of connection points: 2
#     Edge 48, Type (0, 1), BuildingBlock: ZUJKAS_clean_linker_0, # of connection points: 2
#     Edge 49, Type (0, 1), BuildingBlock: ZUJKAS_clean_linker_0, # of connection points: 2
#     Edge 50, Type (0, 1), BuildingBlock: ZUJKAS_clean_linker_0, # of connection points: 2
#     Edge 51, Type (0, 1), BuildingBlock: ZUJKAS_clean_linker_0, # of connection points: 2
#     Edge 52, Type (0, 1), BuildingBlock: ZUJKAS_clean_linker_0, # of connection points: 2
#     Edge 53, Type (0, 1), BuildingBlock: ZUJKAS_clean_linker_0, # of connection points: 2
#     Edge 54, Type (0, 1), BuildingBlock: ZUJKAS_clean_linker_0, # of connection points: 2
#     Edge 55, Type (0, 1), BuildingBlock: ZUJKAS_clean_linker_0, # of connection points: 2
#     Edge 56, Type (0, 1), BuildingBlock: ZUJKAS_clean_linker_0, # of connection points: 2
#     Edge 57, Type (0, 1), BuildingBlock: ZUJKAS_clean_linker_0, # of connection points: 2
#     Edge 58, Type (0, 1), BuildingBlock: ZUJKAS_clean_linker_0, # of connection points: 2
#     Edge 59, Type (0, 1), BuildingBlock: ZUJKAS_clean_linker_0, # of connection points: 2
#     Edge 60, Type (0, 1), BuildingBlock: ZUJKAS_clean_linker_0, # of connection points: 2
#     Edge 61, Type (0, 1), BuildingBlock: ZUJKAS_clean_linker_0, # of connection points: 2
#     Edge 62, Type (0, 1), BuildingBlock: ZUJKAS_clean_linker_0, # of connection points: 2
#     Edge 63, Type (0, 1), BuildingBlock: ZUJKAS_clean_linker_0, # of connection points: 2
#     Edge 64, Type (0, 1), BuildingBlock: ZUJKAS_clean_linker_0, # of connection points: 2
#     Edge 65, Type (0, 1), BuildingBlock: ZUJKAS_clean_linker_0, # of connection points: 2
#     Edge 66, Type (0, 1), BuildingBlock: ZUJKAS_clean_linker_0, # of connection points: 2
#     Edge 67, Type (0, 1), BuildingBlock: ZUJKAS_clean_linker_0, # of connection points: 2
#     Edge 68, Type (0, 1), BuildingBlock: ZUJKAS_clean_linker_0, # of connection points: 2
#     Edge 69, Type (0, 1), BuildingBlock: ZUJKAS_clean_linker_0, # of connection points: 2
#     Edge 70, Type (0, 1), BuildingBlock: ZUJKAS_clean_linker_0, # of connection points: 2
#     Edge 71, Type (0, 1), BuildingBlock: ZUJKAS_clean_linker_0, # of connection points: 2
#     Edge 72, Type (0, 1), BuildingBlock: ZUJKAS_clean_linker_0, # of connection points: 2
#     Edge 73, Type (0, 1), BuildingBlock: ZUJKAS_clean_linker_0, # of connection points: 2
#     Edge 74, Type (0, 1), BuildingBlock: ZUJKAS_clean_linker_0, # of connection points: 2
#     Edge 75, Type (0, 1), BuildingBlock: ZUJKAS_clean_linker_0, # of connection points: 2
#     Edge 76, Type (0, 1), BuildingBlock: ZUJKAS_clean_linker_0, # of connection points: 2
#     Edge 77, Type (0, 1), BuildingBlock: ZUJKAS_clean_linker_0, # of connection points: 2
#     Edge 78, Type (0, 1), BuildingBlock: ZUJKAS_clean_linker_0, # of connection points: 2
#     Edge 79, Type (0, 1), BuildingBlock: ZUJKAS_clean_linker_0, # of connection points: 2
#     Edge 80, Type (0, 1), BuildingBlock: ZUJKAS_clean_linker_0, # of connection points: 2
# Relax obj value: 0.055
# Max RMSD: 0.193
# Mean RMSD: 0.135
data_MOF--net-eea--node1-CUWYAW_clean_sbu_0--node2-BETDAH_clean_linker_0--edge1-ZUJKAS_clean_linker_0
_symmetry_space_group_name_H-M    P1
_symmetry_Int_Tables_number       1
_symmetry_cell_setting            triclinic
loop_
_symmetry_equiv_pos_as_xyz
'x, y, z'
_cell_length_a     71.412238
_cell_length_b     71.26333
_cell_length_c     85.937811
_cell_angle_alpha  93.344084
_cell_angle_beta   93.405774
_cell_angle_gamma 119.8431
loop_
_atom_site_label
_atom_site_type_symbol
_atom_site_fract_x
_atom_site_fract_y
_atom_site_fract_z
_atom_type_partial_charge
H0 H 0.24499 0.09064 0.42831 0.0
H1 H 0.25148 0.15282 0.42077 0.0
H2 H 0.23741 0.10597 0.38159 0.0
C3 C 0.24472 0.1019 0.42047 0.0
C4 C 0.24026 0.09564 0.40429 0.0
C5 C 0.24883 0.12251 0.4266 0.0
C6 C 0.24841 0.13693 0.41624 0.0
C7 C 0.24428 0.13088 0.39998 0.0
C8 C 0.24042 0.11041 0.39415 0.0
N9 N 0.24434 0.14505 0.38905 0.0
C10 C 0.23983 0.16161 0.39233 0.0
H11 H 0.93273 0.16766 0.43783 0.0
H12 H 0.8717 0.10871 0.42452 0.0
H13 H 0.91628 0.13792 0.39025 0.0
C14 C 0.92145 0.15494 0.42894 0.0
C15 C 0.92724 0.15478 0.41359 0.0
C16 C 0.90141 0.13843 0.43302 0.0
C17 C 0.88724 0.12137 0.42158 0.0
C18 C 0.89275 0.12126 0.40615 0.0
C19 C 0.91248 0.13804 0.40227 0.0
N20 N 0.87871 0.10496 0.39404 0.0
C21 C 0.86173 0.08455 0.39631 0.0
H22 H 0.85332 0.77006 0.44553 0.0
H23 H 0.90652 0.76019 0.43589 0.0
H24 H 0.87186 0.77177 0.3987 0.0
C25 C 0.86411 0.76949 0.4374 0.0
C26 C 0.86079 0.77194 0.42155 0.0
C27 C 0.88045 0.76512 0.44272 0.0
C28 C 0.89396 0.76368 0.43199 0.0
C29 C 0.89074 0.76607 0.41609 0.0
C30 C 0.87408 0.76991 0.41099 0.0
N31 N 0.90309 0.76357 0.40469 0.0
C32 C 0.92504 0.77035 0.40721 0.0
H33 H 0.07701 0.24014 0.58311 0.0
H34 H 0.1367 0.24023 0.59426 0.0
H35 H 0.09008 0.22253 0.62784 0.0
C36 C 0.08763 0.23783 0.59131 0.0
C37 C 0.08085 0.23072 0.60596 0.0
C38 C 0.10778 0.24136 0.58698 0.0
C39 C 0.12112 0.23742 0.59743 0.0
C40 C 0.11455 0.23053 0.61216 0.0
C41 C 0.09467 0.22744 0.61632 0.0
N42 N 0.12745 0.22677 0.62334 0.0
C43 C 0.14659 0.22698 0.62086 0.0
H44 H 0.75948 0.83765 0.59859 0.0
H45 H 0.76429 0.89981 0.60914 0.0
H46 H 0.78142 0.8705 0.64527 0.0
C47 C 0.76363 0.85152 0.60688 0.0
C48 C 0.77087 0.85182 0.62252 0.0
C49 C 0.76135 0.86882 0.60188 0.0
C50 C 0.76586 0.88636 0.61286 0.0
C51 C 0.77277 0.88665 0.62859 0.0
C52 C 0.77535 0.86955 0.63322 0.0
N53 N 0.77755 0.90388 0.64015 0.0
C54 C 0.77777 0.92297 0.63735 0.0
H55 H 0.15725 0.92326 0.59186 0.0
H56 H 0.10533 0.85888 0.59777 0.0
H57 H 0.13966 0.90533 0.63789 0.0
C58 C 0.14675 0.91143 0.59932 0.0
C59 C 0.15007 0.91702 0.61558 0.0
C60 C 0.13083 0.89043 0.59272 0.0
C61 C 0.11767 0.87509 0.60265 0.0
C62 C 0.12093 0.88058 0.61897 0.0
C63 C 0.13729 0.90131 0.6253 0.0
N64 N 0.10878 0.86544 0.62951 0.0
C65 C 0.08723 0.84909 0.62629 0.0
H66 H 0.91512 0.42463 0.76205 0.0
H67 H 0.91945 0.48566 0.75367 0.0
H68 H 0.8984 0.43523 0.71582 0.0
C69 C 0.9136 0.43516 0.75409 0.0
C70 C 0.9061 0.42732 0.7383 0.0
C71 C 0.91851 0.45621 0.75978 0.0
C72 C 0.91554 0.46937 0.74946 0.0
C73 C 0.90826 0.46169 0.73357 0.0
C74 C 0.90375 0.44086 0.72813 0.0
N75 N 0.90563 0.47444 0.72253 0.0
C76 C 0.90508 0.49337 0.72623 0.0
H77 H 0.60043 0.50187 0.77179 0.0
H78 H 0.53977 0.44274 0.75753 0.0
H79 H 0.58514 0.47324 0.724 0.0
C80 C 0.58945 0.48908 0.76283 0.0
C81 C 0.59558 0.48936 0.74755 0.0
C82 C 0.56924 0.47242 0.7666 0.0
C83 C 0.55521 0.45581 0.7548 0.0
C84 C 0.56108 0.45619 0.73945 0.0
C85 C 0.58102 0.473 0.73595 0.0
N86 N 0.54735 0.44024 0.72705 0.0
C87 C 0.52952 0.42013 0.72882 0.0
H88 H 0.52195 0.10101 0.77871 0.0
H89 H 0.57364 0.089 0.76842 0.0
H90 H 0.5392 0.10145 0.7316 0.0
C91 C 0.53235 0.09994 0.77045 0.0
C92 C 0.52879 0.10224 0.75461 0.0
C93 C 0.54838 0.09503 0.77557 0.0
C94 C 0.56135 0.09292 0.76465 0.0
C95 C 0.55793 0.09527 0.74877 0.0
C96 C 0.54159 0.09966 0.74387 0.0
N97 N 0.56974 0.09227 0.73714 0.0
C98 C 0.59099 0.09664 0.73955 0.0
H99 H 0.74583 0.57861 0.91665 0.0
H100 H 0.80314 0.57424 0.92785 0.0
H101 H 0.75813 0.56233 0.96206 0.0
C102 C 0.75579 0.5753 0.92475 0.0
C103 C 0.74947 0.57009 0.93981 0.0
C104 C 0.77523 0.57702 0.9203 0.0
C105 C 0.78829 0.57322 0.93116 0.0
C106 C 0.78208 0.56805 0.94626 0.0
C107 C 0.76286 0.56665 0.95045 0.0
N108 N 0.79466 0.56425 0.95769 0.0
C109 C 0.81234 0.56178 0.955 0.0
H110 H 0.43192 0.17399 0.93362 0.0
H111 H 0.42534 0.23006 0.9449 0.0
H112 H 0.44206 0.20094 0.98149 0.0
C113 C 0.43212 0.18587 0.9422 0.0
C114 C 0.43761 0.18555 0.9581 0.0
C115 C 0.42762 0.20184 0.93725 0.0
C116 C 0.42901 0.21782 0.94848 0.0
C117 C 0.43427 0.21745 0.96445 0.0
C118 C 0.43826 0.20121 0.96913 0.0
N119 N 0.43524 0.23281 0.9762 0.0
C120 C 0.43948 0.25356 0.97362 0.0
H121 H 0.8273 0.25222 0.924 0.0
H122 H 0.76775 0.19346 0.92945 0.0
H123 H 0.80099 0.24203 0.96848 0.0
C124 C 0.81465 0.24244 0.93119 0.0
C125 C 0.8163 0.24993 0.94698 0.0
C126 C 0.79715 0.22218 0.92466 0.0
C127 C 0.78127 0.20908 0.93429 0.0
C128 C 0.78297 0.21629 0.95018 0.0
C129 C 0.80033 0.23656 0.95632 0.0
N130 N 0.76784 0.20376 0.9606 0.0
C131 C 0.74751 0.18554 0.95645 0.0
H132 H 0.5819 0.75829 0.09563 0.0
H133 H 0.58548 0.81881 0.08665 0.0
H134 H 0.56946 0.76976 0.0486 0.0
C135 C 0.58058 0.76876 0.0875 0.0
C136 C 0.57507 0.76145 0.0715 0.0
C137 C 0.58463 0.78953 0.09309 0.0
C138 C 0.58232 0.80276 0.08248 0.0
C139 C 0.57697 0.79558 0.06639 0.0
C140 C 0.57372 0.77518 0.06101 0.0
N141 N 0.5752 0.80855 0.05514 0.0
C142 C 0.57101 0.82533 0.05843 0.0
H143 H 0.26374 0.83895 0.1059 0.0
H144 H 0.20673 0.77615 0.09278 0.0
H145 H 0.25189 0.80749 0.05924 0.0
C146 C 0.25387 0.82513 0.09731 0.0
C147 C 0.2603 0.82539 0.08214 0.0
C148 C 0.23448 0.8075 0.10131 0.0
C149 C 0.22152 0.78994 0.08983 0.0
C150 C 0.22782 0.7901 0.07462 0.0
C151 C 0.24706 0.80778 0.07093 0.0
N152 N 0.21542 0.7729 0.06262 0.0
C153 C 0.19675 0.75347 0.06441 0.0
H154 H 0.18665 0.43338 0.11116 0.0
H155 H 0.24115 0.42531 0.10221 0.0
H156 H 0.20665 0.43663 0.06475 0.0
C157 C 0.19782 0.43323 0.10322 0.0
C158 C 0.19485 0.43597 0.0874 0.0
C159 C 0.21439 0.42928 0.10874 0.0
C160 C 0.22835 0.42838 0.09817 0.0
C161 C 0.22538 0.43095 0.08226 0.0
C162 C 0.2086 0.43451 0.07701 0.0
N163 N 0.2383 0.42924 0.07099 0.0
C164 C 0.25965 0.43412 0.07406 0.0
H165 H 0.40977 0.91063 0.24932 0.0
H166 H 0.46692 0.90565 0.25959 0.0
H167 H 0.4223 0.89307 0.29417 0.0
C168 C 0.41975 0.90707 0.25721 0.0
C169 C 0.41354 0.9015 0.27225 0.0
C170 C 0.4391 0.9088 0.25252 0.0
C171 C 0.45216 0.90465 0.26309 0.0
C172 C 0.44607 0.89911 0.27816 0.0
C173 C 0.42694 0.89769 0.28261 0.0
N174 N 0.45866 0.8949 0.2893 0.0
C175 C 0.47641 0.89267 0.28632 0.0
H176 H 0.10047 0.50934 0.26714 0.0
H177 H 0.09376 0.56527 0.27853 0.0
H178 H 0.10944 0.53543 0.31516 0.0
C179 C 0.10086 0.52129 0.27575 0.0
C180 C 0.10587 0.52064 0.29169 0.0
C181 C 0.09635 0.53727 0.27087 0.0
C182 C 0.09707 0.55281 0.28216 0.0
C183 C 0.10187 0.55213 0.29815 0.0
C184 C 0.10598 0.53594 0.30278 0.0
N185 N 0.10242 0.5672 0.30995 0.0
C186 C 0.10631 0.58786 0.30745 0.0
H187 H 0.48828 0.58596 0.25673 0.0
H188 H 0.43896 0.52064 0.26339 0.0
H189 H 0.47267 0.56805 0.30308 0.0
C190 C 0.47854 0.57394 0.26437 0.0
C191 C 0.48189 0.57978 0.28059 0.0
C192 C 0.46313 0.55264 0.25795 0.0
C193 C 0.45072 0.53716 0.26807 0.0
C194 C 0.45417 0.54286 0.28436 0.0
C195 C 0.4698 0.564 0.29048 0.0
N196 N 0.44366 0.52732 0.29504 0.0
C197 C 0.42165 0.512 0.29347 0.0
C198 C 0.52858 0.01825 0.06121 0.0
Eu199 Eu 0.51385 0.01408 0.03197 0.0
C200 C 0.5205 0.00803 0.07562 0.0
C201 C 0.52905 0.02053 0.09014 0.0
C202 C 0.52174 0.01123 0.104 0.0
C203 C 0.50571 0.98916 0.10363 0.0
C204 C 0.49703 0.9767 0.089 0.0
C205 C 0.50436 0.98605 0.07511 0.0
C206 C 0.50114 0.03964 0.01832 0.0
C207 C 0.46179 0.97784 0.02646 0.0
C208 C 0.47666 0.99268 0.96932 0.0
Eu209 Eu 0.49086 0.99701 0.99871 0.0
C210 C 0.48573 0.0026 0.95501 0.0
C211 C 0.47812 0.98987 0.94054 0.0
C212 C 0.48667 0.99886 0.92683 0.0
C213 C 0.50304 0.02081 0.92733 0.0
C214 C 0.51068 0.03353 0.94191 0.0
C215 C 0.50213 0.0245 0.95562 0.0
C216 C 0.50381 0.97172 0.01259 0.0
C217 C 0.5429 0.03336 0.00414 0.0
O218 O 0.53083 0.00638 0.0501 0.0
O219 O 0.52026 0.02961 0.05585 0.0
O220 O 0.51899 0.04719 0.02751 0.0
O221 O 0.49035 0.01917 0.01743 0.0
O222 O 0.48028 0.98639 0.03562 0.0
O223 O 0.46122 0.98181 0.01167 0.0
O224 O 0.47478 0.00513 0.98018 0.0
O225 O 0.48392 0.98065 0.97506 0.0
O226 O 0.48579 0.96392 0.00355 0.0
O227 O 0.51443 0.99214 0.01319 0.0
O228 O 0.52442 0.02457 0.99493 0.0
O229 O 0.54346 0.02962 0.01898 0.0
H230 H 0.5414 0.03755 0.09075 0.0
H231 H 0.5285 0.02142 0.11501 0.0
H232 H 0.48482 0.95963 0.08827 0.0
H233 H 0.4975 0.9761 0.064 0.0
H234 H 0.46549 0.97295 0.93983 0.0
H235 H 0.4802 0.9887 0.91579 0.0
H236 H 0.52343 0.05041 0.94274 0.0
H237 H 0.50834 0.03461 0.96669 0.0
C238 C 0.00542 0.52232 0.05994 0.0
Eu239 Eu 0.00151 0.50572 0.03127 0.0
C240 C 0.01451 0.52276 0.07593 0.0
C241 C 0.00778 0.50371 0.0834 0.0
C242 C 0.0156 0.50488 0.09896 0.0
C243 C 0.03032 0.5251 0.10734 0.0
C244 C 0.03742 0.54405 0.09966 0.0
C245 C 0.02953 0.54288 0.08416 0.0
C246 C 0.97337 0.46463 0.01855 0.0
C247 C 0.035 0.48731 0.0271 0.0
C248 C 0.00685 0.47952 0.96955 0.0
Eu249 Eu 0.00972 0.49442 0.99852 0.0
C250 C 1.00056 0.48266 0.95366 0.0
C251 C 0.01534 0.48801 0.94237 0.0
C252 C 0.00956 0.49019 0.92705 0.0
C253 C 0.98876 0.48687 0.92263 0.0
C254 C 0.97408 0.48189 0.93406 0.0
C255 C 0.97993 0.47984 0.94943 0.0
C256 C 0.03758 0.53555 0.01143 0.0
C257 C 0.97546 0.51194 0.00257 0.0
O258 O 0.01935 0.53222 0.04987 0.0
O259 O 0.9884 0.50418 0.0537 0.0
O260 O 0.96787 0.47596 0.02758 0.0
O261 O 0.9935 0.47482 0.01754 0.0
O262 O 0.02937 0.49912 0.03602 0.0
O263 O 0.02665 0.4804 0.01237 0.0
O264 O 0.99143 0.47016 0.97873 0.0
O265 O 0.02472 0.49564 0.97693 0.0
O266 O 0.04336 0.52427 0.00266 0.0
O267 O 0.01741 0.5252 0.01215 0.0
O268 O 0.98198 0.50106 0.99353 0.0
O269 O 0.98308 0.51828 0.01747 0.0
H270 H 0.9962 0.48794 0.07734 0.0
H271 H 0.00964 0.48998 0.10454 0.0
H272 H 0.04904 0.55985 0.10564 0.0
H273 H 0.03498 0.55779 0.07864 0.0
H274 H 0.03136 0.49033 0.94537 0.0
H275 H 0.02142 0.49443 0.91865 0.0
H276 H 0.95785 0.479 0.93105 0.0
H277 H 0.96818 0.47574 0.9579 0.0
C278 C 0.48015 0.48816 0.96521 0.0
Eu279 Eu 0.49532 0.50362 0.99429 0.0
C280 C 0.48861 0.48733 0.95008 0.0
C281 C 0.47953 0.49116 0.93658 0.0
C282 C 0.48696 0.49016 0.92204 0.0
C283 C 0.5036 0.4852 0.92065 0.0
C284 C 0.51285 0.4816 0.93428 0.0
C285 C 0.50545 0.48269 0.94885 0.0
C286 C 0.5082 0.54415 0.00724 0.0
C287 C 0.54793 0.52242 0.99881 0.0
C288 C 0.53453 0.53185 0.05616 0.0
Eu289 Eu 0.51958 0.51581 0.02716 0.0
C290 C 0.5254 0.53133 0.07116 0.0
C291 C 0.5052 0.51388 0.07391 0.0
C292 C 0.49684 0.51373 0.08827 0.0
C293 C 0.50844 0.53113 0.10005 0.0
C294 C 0.52857 0.54865 0.09714 0.0
C295 C 0.53696 0.54872 0.08284 0.0
C296 C 0.50674 0.47525 0.01422 0.0
C297 C 0.46681 0.49646 0.02271 0.0
O298 O 0.48225 0.47674 0.97586 0.0
O299 O 0.48407 0.50726 0.97108 0.0
O300 O 0.48988 0.53211 0.99867 0.0
O301 O 0.51915 0.53475 0.00797 0.0
O302 O 0.52927 0.51054 0.98994 0.0
O303 O 0.54869 0.52928 0.01358 0.0
O304 O 0.5307 0.54244 0.04567 0.0
O305 O 0.53253 0.51358 0.05013 0.0
O306 O 0.52488 0.48715 0.02305 0.0
O307 O 0.49584 0.4847 0.01347 0.0
O308 O 0.48542 0.50798 0.0317 0.0
O309 O 0.46612 0.49023 0.0078 0.0
H310 H 0.46662 0.4949 0.93729 0.0
H311 H 0.47973 0.49346 0.91189 0.0
H312 H 0.52553 0.47753 0.93366 0.0
H313 H 0.5128 0.47974 0.95911 0.0
H314 H 0.49589 0.50039 0.06496 0.0
H315 H 0.48119 0.50013 0.09008 0.0
H316 H 0.53802 0.56218 0.10602 0.0
H317 H 0.55254 0.56235 0.08091 0.0
C318 C 0.19533 0.35235 0.39593 0.0
Eu319 Eu 0.18125 0.34916 0.36666 0.0
C320 C 0.18682 0.34202 0.41024 0.0
C321 C 0.19358 0.3549 0.42464 0.0
C322 C 0.18592 0.34557 0.43843 0.0
C323 C 0.1714 0.3231 0.43809 0.0
C324 C 0.16457 0.3102 0.42361 0.0
C325 C 0.17213 0.3196 0.40978 0.0
C326 C 0.168 0.37464 0.35356 0.0
C327 C 0.12943 0.31229 0.36032 0.0
C328 C 0.14518 0.33037 0.30383 0.0
Eu329 Eu 0.15909 0.33318 0.33308 0.0
C330 C 0.15429 0.34012 0.28948 0.0
C331 C 0.17466 0.34376 0.28574 0.0
C332 C 0.18275 0.35276 0.2719 0.0
C333 C 0.17074 0.35851 0.26168 0.0
C334 C 0.15052 0.35514 0.26561 0.0
C335 C 0.14237 0.34599 0.27935 0.0
C336 C 0.1725 0.30787 0.34633 0.0
C337 C 0.21107 0.36976 0.33933 0.0
O338 O 0.19736 0.34042 0.38473 0.0
O339 O 0.18773 0.36435 0.39065 0.0
O340 O 0.18577 0.38223 0.36286 0.0
O341 O 0.1576 0.35414 0.35225 0.0
O342 O 0.14771 0.32098 0.36975 0.0
O343 O 0.12914 0.31673 0.34562 0.0
O344 O 0.14452 0.34341 0.31486 0.0
O345 O 0.15107 0.31713 0.30933 0.0
O346 O 0.15472 0.30009 0.33701 0.0
O347 O 0.18275 0.32833 0.34746 0.0
O348 O 0.19286 0.36083 0.3298 0.0
O349 O 0.21123 0.36572 0.35414 0.0
H350 H 0.2049 0.37223 0.42524 0.0
H351 H 0.19167 0.3559 0.44941 0.0
H352 H 0.15321 0.29289 0.42295 0.0
H353 H 0.16652 0.30934 0.39876 0.0
H354 H 0.18429 0.33961 0.29348 0.0
H355 H 0.19848 0.35539 0.26927 0.0
H356 H 0.1408 0.3592 0.2579 0.0
H357 H 0.12667 0.34338 0.28204 0.0
C358 C 0.66614 0.85263 0.39151 0.0
Eu359 Eu 0.66444 0.83707 0.36292 0.0
C360 C 0.67412 0.85252 0.4077 0.0
C361 C 0.66027 0.8486 0.4195 0.0
C362 C 0.66759 0.84943 0.43509 0.0
C363 C 0.68902 0.85436 0.43924 0.0
C364 C 0.70279 0.85788 0.42732 0.0
C365 C 0.6954 0.85693 0.41168 0.0
C366 C 0.63622 0.79625 0.34968 0.0
C367 C 0.69811 0.8187 0.36 0.0
C368 C 0.67176 0.8103 0.302 0.0
Eu369 Eu 0.67391 0.82576 0.33072 0.0
C370 C 0.66482 0.81264 0.28617 0.0
C371 C 0.65937 0.82865 0.28348 0.0
C372 C 0.65295 0.8307 0.26825 0.0
C373 C 0.65193 0.81677 0.2555 0.0
C374 C 0.65719 0.80061 0.25838 0.0
C375 C 0.66359 0.7986 0.27357 0.0
C376 C 0.702 0.86658 0.34406 0.0
C377 C 0.64028 0.84429 0.3336 0.0
O378 O 0.68063 0.86313 0.38191 0.0
O379 O 0.64976 0.83436 0.38485 0.0
O380 O 0.63052 0.80793 0.35808 0.0
O381 O 0.65649 0.80605 0.34936 0.0
O382 O 0.69213 0.8305 0.36857 0.0
O383 O 0.69033 0.81177 0.34517 0.0
O384 O 0.65637 0.80076 0.31116 0.0
O385 O 0.68907 0.82729 0.30922 0.0
O386 O 0.70785 0.85503 0.33565 0.0
O387 O 0.68172 0.85667 0.34422 0.0
O388 O 0.64674 0.83304 0.3249 0.0
O389 O 0.64744 0.85054 0.34857 0.0
H390 H 0.64378 0.84509 0.41667 0.0
H391 H 0.6564 0.84619 0.4439 0.0
H392 H 0.71944 0.86188 0.4301 0.0
H393 H 0.70641 0.85996 0.40277 0.0
H394 H 0.6602 0.83962 0.29312 0.0
H395 H 0.64915 0.8434 0.26644 0.0
H396 H 0.65618 0.78934 0.24889 0.0
H397 H 0.66759 0.78605 0.27548 0.0
C398 C 0.14536 0.82117 0.30012 0.0
Eu399 Eu 0.16097 0.83725 0.32904 0.0
C400 C 0.1535 0.82014 0.2849 0.0
C401 C 0.14343 0.8227 0.27135 0.0
C402 C 0.15056 0.82149 0.25672 0.0
C403 C 0.16791 0.81761 0.25533 0.0
C404 C 0.17815 0.81529 0.269 0.0
C405 C 0.17102 0.81656 0.28365 0.0
C406 C 0.17428 0.87806 0.34162 0.0
C407 C 0.21357 0.85591 0.33344 0.0
C408 C 0.20061 0.86589 0.39084 0.0
Eu409 Eu 0.18536 0.84964 0.3619 0.0
C410 C 0.19176 0.8655 0.40594 0.0
C411 C 0.17176 0.84797 0.40895 0.0
C412 C 0.16357 0.84808 0.42335 0.0
C413 C 0.17515 0.8658 0.4349 0.0
C414 C 0.19512 0.88334 0.43174 0.0
C415 C 0.20333 0.88316 0.4174 0.0
C416 C 0.17211 0.80889 0.34919 0.0
C417 C 0.13266 0.83074 0.35758 0.0
O418 O 0.14796 0.8101 0.31084 0.0
O419 O 0.14916 0.84029 0.30584 0.0
O420 O 0.15604 0.86611 0.33293 0.0
O421 O 0.18503 0.86846 0.34258 0.0
O422 O 0.19486 0.84407 0.3246 0.0
O423 O 0.2144 0.86283 0.34821 0.0
O424 O 0.1965 0.87631 0.38037 0.0
O425 O 0.19864 0.84762 0.38481 0.0
O426 O 0.19032 0.82076 0.35794 0.0
O427 O 0.16136 0.8185 0.34838 0.0
O428 O 0.1513 0.842 0.36656 0.0
O429 O 0.13185 0.82452 0.34264 0.0
H430 H 0.12997 0.82561 0.27207 0.0
H431 H 0.14255 0.82377 0.24651 0.0
H432 H 0.19142 0.81209 0.26837 0.0
H433 H 0.1791 0.81457 0.29396 0.0
H434 H 0.16247 0.83426 0.40018 0.0
H435 H 0.14805 0.83444 0.42536 0.0
H436 H 0.20456 0.89711 0.44045 0.0
H437 H 0.21875 0.89685 0.41526 0.0
C438 C 0.86335 0.68772 0.72926 0.0
Eu439 Eu 0.84911 0.68329 0.69985 0.0
C440 C 0.85528 0.67734 0.74361 0.0
C441 C 0.86393 0.68969 0.75817 0.0
C442 C 0.85674 0.68022 0.77199 0.0
C443 C 0.84076 0.65812 0.77154 0.0
C444 C 0.83195 0.64582 0.75685 0.0
C445 C 0.83914 0.65536 0.743 0.0
C446 C 0.83578 0.70816 0.68587 0.0
C447 C 0.79744 0.64599 0.69365 0.0
C448 C 0.81366 0.66104 0.6367 0.0
Eu449 Eu 0.82726 0.66601 0.66632 0.0
C450 C 0.82246 0.67123 0.62242 0.0
C451 C 0.81512 0.65853 0.60793 0.0
C452 C 0.8233 0.66778 0.59422 0.0
C453 C 0.83901 0.68996 0.59472 0.0
C454 C 0.84639 0.70265 0.60931 0.0
C455 C 0.83822 0.69336 0.62304 0.0
C456 C 0.84056 0.64129 0.68064 0.0
C457 C 0.87881 0.70356 0.67248 0.0
O458 O 0.86622 0.67617 0.71826 0.0
O459 O 0.85456 0.69857 0.72371 0.0
O460 O 0.85337 0.71607 0.6954 0.0
O461 O 0.8255 0.68767 0.68482 0.0
O462 O 0.81569 0.65513 0.70314 0.0
O463 O 0.79718 0.64975 0.67878 0.0
O464 O 0.81056 0.6728 0.64738 0.0
O465 O 0.82206 0.6501 0.6427 0.0
O466 O 0.8228 0.63324 0.67128 0.0
O467 O 0.85087 0.66173 0.68133 0.0
O468 O 0.86054 0.69441 0.66301 0.0
O469 O 0.87909 0.69972 0.68732 0.0
H470 H 0.87628 0.70672 0.75885 0.0
H471 H 0.86359 0.69029 0.78305 0.0
H472 H 0.81977 0.62874 0.75605 0.0
H473 H 0.83221 0.64554 0.73185 0.0
H474 H 0.80297 0.64143 0.60722 0.0
H475 H 0.81703 0.65761 0.58317 0.0
H476 H 0.85864 0.71972 0.61013 0.0
H477 H 0.8442 0.70344 0.63413 0.0
C478 C 0.3421 0.192 0.72585 0.0
Eu479 Eu 0.33663 0.17341 0.69761 0.0
C480 C 0.35025 0.19174 0.74198 0.0
C481 C 0.34132 0.17267 0.74961 0.0
C482 C 0.34854 0.17324 0.76522 0.0
C483 C 0.36488 0.19284 0.77346 0.0
C484 C 0.37407 0.21179 0.76568 0.0
C485 C 0.36677 0.21124 0.75012 0.0
C486 C 0.30718 0.13195 0.68639 0.0
C487 C 0.36883 0.15321 0.69399 0.0
C488 C 0.33707 0.14038 0.63674 0.0
Eu489 Eu 0.34276 0.15871 0.66507 0.0
C490 C 0.3292 0.14179 0.62086 0.0
C491 C 0.33498 0.16192 0.61527 0.0
C492 C 0.32789 0.16279 0.59993 0.0
C493 C 0.31479 0.14356 0.58995 0.0
C494 C 0.30862 0.12344 0.59579 0.0
C495 C 0.3158 0.1226 0.61107 0.0
C496 C 0.37207 0.20026 0.67628 0.0
C497 C 0.31079 0.17913 0.6686 0.0
O498 O 0.35655 0.19996 0.7158 0.0
O499 O 0.32389 0.17496 0.71974 0.0
O500 O 0.3024 0.14439 0.69484 0.0
O501 O 0.32723 0.1414 0.68512 0.0
O502 O 0.36378 0.16582 0.70257 0.0
O503 O 0.35996 0.14543 0.67945 0.0
O504 O 0.32251 0.1325 0.64672 0.0
O505 O 0.35553 0.15693 0.64301 0.0
O506 O 0.37692 0.18799 0.66772 0.0
O507 O 0.35203 0.19063 0.67753 0.0
O508 O 0.3157 0.16642 0.66004 0.0
O509 O 0.31963 0.18683 0.68316 0.0
H510 H 0.32863 0.15735 0.74361 0.0
H511 H 0.34134 0.15832 0.77085 0.0
H512 H 0.38651 0.22719 0.77175 0.0
H513 H 0.37383 0.22617 0.7445 0.0
H514 H 0.34517 0.17697 0.62267 0.0
H515 H 0.33311 0.17856 0.59581 0.0
H516 H 0.29819 0.1083 0.58855 0.0
H517 H 0.31099 0.1069 0.61522 0.0
C518 C 0.8141 0.15469 0.63199 0.0
Eu519 Eu 0.82867 0.17034 0.6611 0.0
C520 C 0.82294 0.15432 0.61692 0.0
C521 C 0.81599 0.161 0.60383 0.0
C522 C 0.82365 0.16034 0.58933 0.0
C523 C 0.83832 0.1528 0.58757 0.0
C524 C 0.8454 0.14625 0.60072 0.0
C525 C 0.83788 0.1471 0.61528 0.0
C526 C 0.84215 0.21117 0.67369 0.0
C527 C 0.88112 0.18862 0.66612 0.0
C528 C 0.86702 0.19904 0.72322 0.0
Eu529 Eu 0.85239 0.18256 0.69425 0.0
C530 C 0.85825 0.19747 0.73849 0.0
C531 C 0.84102 0.17786 0.7424 0.0
C532 C 0.83325 0.17672 0.7571 0.0
C533 C 0.84246 0.19521 0.76813 0.0
C534 C 0.85941 0.21491 0.76396 0.0
C535 C 0.86724 0.21599 0.74932 0.0
C536 C 0.83882 0.14161 0.68181 0.0
C537 C 0.79962 0.16349 0.68921 0.0
O538 O 0.81655 0.14353 0.6427 0.0
O539 O 0.81714 0.17348 0.63782 0.0
O540 O 0.82402 0.1994 0.66484 0.0
O541 O 0.85271 0.20139 0.6748 0.0
O542 O 0.86256 0.17697 0.6571 0.0
O543 O 0.88176 0.19554 0.68086 0.0
O544 O 0.86126 0.20852 0.71292 0.0
O545 O 0.86702 0.18182 0.717 0.0
O546 O 0.85666 0.15318 0.691 0.0
O547 O 0.82841 0.15152 0.68059 0.0
O548 O 0.81807 0.17467 0.69844 0.0
O549 O 0.79919 0.15738 0.67431 0.0
H550 H 0.80445 0.16658 0.6048 0.0
H551 H 0.81773 0.16529 0.5794 0.0
H552 H 0.85688 0.14059 0.59976 0.0
H553 H 0.84368 0.14201 0.62519 0.0
H554 H 0.83368 0.16339 0.73415 0.0
H555 H 0.82031 0.16124 0.75992 0.0
H556 H 0.86659 0.22959 0.77197 0.0
H557 H 0.88037 0.23133 0.74644 0.0
H558 H 0.30002 0.84658 0.09948 0.0
H559 H 0.33448 0.87493 0.09161 0.0
H560 H 0.30193 0.8732 0.04719 0.0
H561 H 0.2674 0.84547 0.05514 0.0
H562 H 0.35475 0.87084 0.06635 0.0
H563 H 0.33768 0.93808 0.06058 0.0
H564 H 0.32106 0.9148 0.07077 0.0
H565 H 0.31759 0.91299 0.04973 0.0
C566 C 0.30012 0.85259 0.08818 0.0
C567 C 0.28096 0.84374 0.07794 0.0
C568 C 0.31985 0.86868 0.08366 0.0
C569 C 0.32075 0.87637 0.06888 0.0
C570 C 0.30159 0.86783 0.05875 0.0
H571 H 0.42038 0.95757 0.01174 0.0
H572 H 0.38663 0.93326 0.02263 0.0
C573 C 0.28189 0.85178 0.06325 0.0
C574 C 0.34188 0.89223 0.06361 0.0
H575 H 0.36886 0.94161 0.04919 0.0
C576 C 0.35794 0.88642 0.06276 0.0
C577 C 0.34596 0.91251 0.05886 0.0
C578 C 0.32975 0.92009 0.06016 0.0
C579 C 0.37773 0.90005 0.05688 0.0
C580 C 0.38169 0.92019 0.05194 0.0
C581 C 0.36574 0.92613 0.05294 0.0
C582 C 0.4022 0.93519 0.04551 0.0
C583 C 0.39397 0.8925 0.05556 0.0
C584 C 0.42211 0.94456 0.05484 0.0
C585 C 0.44144 0.95844 0.04867 0.0
C586 C 0.44122 0.96331 0.03304 0.0
C587 C 0.42118 0.95412 0.02379 0.0
C588 C 0.40185 0.94026 0.03 0.0
H589 H 0.38647 0.87473 0.05634 0.0
H590 H 0.40136 0.89636 0.04432 0.0
H591 H 0.40717 0.90104 0.06527 0.0
H592 H 0.4227 0.94117 0.06693 0.0
H593 H 0.45653 0.96531 0.05617 0.0
H594 H 0.16771 0.41894 0.06011 0.0
H595 H 0.1401 0.42729 0.05031 0.0
H596 H 0.15453 0.47078 0.09198 0.0
H597 H 0.18244 0.46279 0.10181 0.0
H598 H 0.10902 0.44142 0.08272 0.0
H599 H 0.15328 0.48565 0.0337 0.0
H600 H 0.1499 0.45901 0.03454 0.0
H601 H 0.16639 0.48012 0.04997 0.0
C602 C 0.16518 0.43044 0.06714 0.0
C603 C 0.17743 0.44033 0.08169 0.0
C604 C 0.14936 0.43515 0.06153 0.0
C605 C 0.14552 0.44988 0.07033 0.0
C606 C 0.15732 0.45941 0.085 0.0
H607 H 0.05731 0.50007 0.05638 0.0
H608 H 0.08368 0.4907 0.06721 0.0
C609 C 0.17318 0.45474 0.09062 0.0
C610 C 0.12919 0.45536 0.06418 0.0
H611 H 0.11735 0.47875 0.03448 0.0
C612 C 0.11084 0.44966 0.07221 0.0
C613 C 0.13165 0.46608 0.05047 0.0
C614 C 0.15144 0.47326 0.0417 0.0
C615 C 0.0946 0.454 0.06669 0.0
C616 C 0.09706 0.46473 0.05296 0.0
C617 C 0.11548 0.47049 0.04498 0.0
C618 C 0.08071 0.47009 0.04658 0.0
C619 C 0.07472 0.44656 0.07537 0.0
C620 C 0.07064 0.46202 0.03126 0.0
C621 C 0.05571 0.46751 0.02498 0.0
C622 C 0.05059 0.48125 0.03388 0.0
C623 C 0.06074 0.48934 0.04923 0.0
C624 C 0.07574 0.48389 0.05549 0.0
H625 H 0.07258 0.43363 0.08293 0.0
H626 H 0.07645 0.46054 0.08302 0.0
H627 H 0.05985 0.44029 0.0671 0.0
H628 H 0.07432 0.45144 0.02416 0.0
H629 H 0.04823 0.461 0.01312 0.0
H630 H 0.54874 0.7232 0.08329 0.0
H631 H 0.53926 0.68653 0.07287 0.0
H632 H 0.58124 0.71318 0.03631 0.0
H633 H 0.59038 0.74987 0.0465 0.0
H634 H 0.54294 0.68004 0.02464 0.0
H635 H 0.57312 0.6555 0.0759 0.0
H636 H 0.55425 0.66403 0.08081 0.0
H637 H 0.57984 0.68326 0.07434 0.0
C638 C 0.55618 0.72123 0.07317 0.0
C639 C 0.57034 0.73936 0.06572 0.0
C640 C 0.55082 0.70028 0.06726 0.0
C641 C 0.55983 0.6971 0.05397 0.0
C642 C 0.57415 0.71524 0.04661 0.0
H643 H 0.54867 0.57353 0.02107 0.0
H644 H 0.56166 0.61092 0.03211 0.0
C645 C 0.57933 0.73617 0.05241 0.0
C646 C 0.55338 0.67482 0.0472 0.0
H647 H 0.5495 0.62699 0.05606 0.0
C648 C 0.54453 0.6685 0.03148 0.0
C649 C 0.55574 0.65985 0.05606 0.0
C650 C 0.56647 0.66606 0.07266 0.0
C651 C 0.53756 0.6475 0.02447 0.0
C652 C 0.53889 0.63219 0.03355 0.0
C653 C 0.5482 0.63865 0.04917 0.0
C654 C 0.53087 0.60944 0.02704 0.0
C655 C 0.52919 0.64209 0.00731 0.0
C656 C 0.50915 0.59607 0.02076 0.0
C657 C 0.50177 0.5748 0.01433 0.0
C658 C 0.51589 0.56644 0.01429 0.0
C659 C 0.53746 0.57961 0.02093 0.0
C660 C 0.54489 0.60094 0.02724 0.0
H661 H 0.5353 0.65698 1.00109 0.0
H662 H 0.534 0.63107 1.00143 0.0
H663 H 0.51121 0.63384 0.00615 0.0
H664 H 0.49789 0.60207 0.02087 0.0
H665 H 0.485 0.56489 0.00943 0.0
H666 H 0.83797 0.26194 0.9766 0.0
H667 H 0.86507 0.29832 0.98821 0.0
H668 H 0.8642 0.32369 0.94399 0.0
H669 H 0.83583 0.28768 0.93259 0.0
H670 H 0.90472 0.32608 0.98285 0.0
H671 H 0.85405 0.36365 0.97192 0.0
H672 H 0.84323 0.33471 0.96882 0.0
H673 H 0.8579 0.352 0.9542 0.0
C674 C 0.84322 0.27528 0.96937 0.0
C675 C 0.83432 0.27181 0.95369 0.0
C676 C 0.85894 0.29608 0.97601 0.0
C677 C 0.86634 0.3139 0.9671 0.0
C678 C 0.8583 0.31035 0.95125 0.0
H679 H 0.98219 0.43949 0.99854 0.0
H680 H 0.95668 0.40312 0.98567 0.0
C681 C 0.8423 0.28961 0.94466 0.0
C682 C 0.88235 0.33612 0.9745 0.0
H683 H 0.89111 0.38773 0.98096 0.0
C684 C 0.90171 0.33956 0.98248 0.0
C685 C 0.87829 0.35364 0.97427 0.0
C686 C 0.85715 0.3508 0.96699 0.0
C687 C 0.91712 0.35998 0.99019 0.0
C688 C 0.91345 0.37771 0.98941 0.0
C689 C 0.89407 0.37424 0.98144 0.0
C690 C 0.92912 0.39986 0.9971 0.0
C691 C 0.9368 0.36207 0.99948 0.0
C692 C 0.92204 0.41055 0.00739 0.0
C693 C 0.93645 0.4316 0.01435 0.0
C694 C 0.95827 0.44232 0.01127 0.0
C695 C 0.96543 0.43163 1.00108 0.0
C696 C 0.95091 0.41071 0.99388 0.0
H697 H 0.9338 0.34611 0.00296 0.0
H698 H 0.95054 0.36826 0.99214 0.0
H699 H 0.94166 0.37354 0.01023 0.0
H700 H 0.90532 0.40258 0.01006 0.0
H701 H 0.93049 0.43946 0.02218 0.0
H702 H 0.70968 0.54974 0.92263 0.0
H703 H 0.67513 0.54374 0.93114 0.0
H704 H 0.70775 0.57842 0.97617 0.0
H705 H 0.74236 0.58501 0.96763 0.0
H706 H 0.65551 0.5212 0.95623 0.0
H707 H 0.67103 0.60566 0.96459 0.0
H708 H 0.68767 0.5984 0.95359 0.0
H709 H 0.69159 0.60204 0.97465 0.0
C710 C 0.70956 0.55648 0.93423 0.0
C711 C 0.72876 0.56783 0.94446 0.0
C712 C 0.68979 0.55293 0.9391 0.0
C713 C 0.6889 0.56084 0.95423 0.0
C714 C 0.7081 0.5725 0.96436 0.0
H715 H 0.58951 0.54628 0.01311 0.0
H716 H 0.62322 0.5554 0.00167 0.0
C717 C 0.72784 0.57604 0.95951 0.0
C718 C 0.66775 0.55566 0.95982 0.0
H719 H 0.64016 0.57863 0.9756 0.0
C720 C 0.65204 0.53374 0.96031 0.0
C721 C 0.66333 0.57207 0.96521 0.0
C722 C 0.6792 0.59586 0.96437 0.0
C723 C 0.63226 0.52777 0.96645 0.0
C724 C 0.62794 0.54417 0.97201 0.0
C725 C 0.64354 0.5661 0.97136 0.0
C726 C 0.60744 0.53889 0.97875 0.0
C727 C 0.61645 0.50397 0.9674 0.0
C728 C 0.58741 0.52683 0.96959 0.0
C729 C 0.5681 0.52154 0.97609 0.0
C730 C 0.56845 0.52832 0.99188 0.0
C731 C 0.5886 0.54072 1.00095 0.0
C732 C 0.60791 0.54599 0.99442 0.0
H733 H 0.62433 0.49395 0.96622 0.0
H734 H 0.6091 0.50142 0.97867 0.0
H735 H 0.60319 0.49804 0.95774 0.0
H736 H 0.58671 0.52154 0.95739 0.0
H737 H 0.55291 0.51211 0.96872 0.0
H738 H 0.4716 0.19255 0.97859 0.0
H739 H 0.4805 0.16573 0.98754 0.0
H740 H 0.42491 0.1148 0.95843 0.0
H741 H 0.41604 0.14169 0.94927 0.0
H742 H 0.45623 0.13078 0.00331 0.0
H743 H 0.47289 0.10359 0.94651 0.0
H744 H 0.47069 0.1277 0.94925 0.0
H745 H 0.44667 0.10127 0.94637 0.0
C746 C 0.46126 0.17563 0.9741 0.0
C747 C 0.44312 0.1692 0.96324 0.0
C748 C 0.4664 0.16034 0.97918 0.0
C749 C 0.45354 0.13831 0.97351 0.0
C750 C 0.43535 0.13179 0.96269 0.0
H751 H 0.46254 0.02639 1.00096 0.0
H752 H 0.44992 0.04947 0.98961 0.0
C753 C 0.43027 0.14713 0.9575 0.0
C754 C 0.4589 0.12223 0.97942 0.0
H755 H 0.47346 0.08483 0.96824 0.0
C756 C 0.45998 0.12074 0.99563 0.0
C757 C 0.46372 0.10907 0.96937 0.0
C758 C 0.46364 0.11055 0.95192 0.0
C759 C 0.46592 0.10659 0.00209 0.0
C760 C 0.47103 0.09371 0.99208 0.0
C761 C 0.4695 0.09478 0.97584 0.0
C762 C 0.47885 0.07972 0.9984 0.0
C763 C 0.46672 0.1055 0.01958 0.0
C764 C 0.49939 0.08915 0.00685 0.0
C765 C 0.5067 0.07606 0.01319 0.0
C766 C 0.49355 0.05332 0.01119 0.0
C767 C 0.47306 0.04388 0.00257 0.0
C768 C 0.46582 0.057 0.99613 0.0
H769 H 0.45812 0.11301 0.02526 0.0
H770 H 0.45939 0.08837 0.02234 0.0
H771 H 0.4839 0.11435 0.02472 0.0
H772 H 0.50974 0.10667 0.00858 0.0
H773 H 0.52259 0.08375 0.01974 0.0
H774 H 0.71063 0.18614 0.94932 0.0
H775 H 0.67399 0.1582 0.95428 0.0
H776 H 0.699 0.11716 0.96858 0.0
H777 H 0.73559 0.14504 0.96347 0.0
H778 H 0.65678 0.09427 0.95072 0.0
H779 H 0.66206 0.15032 1.00079 0.0
H780 H 0.66607 0.1612 0.98215 0.0
H781 H 0.68537 0.15478 0.99096 0.0
C782 C 0.70809 0.17085 0.95305 0.0
C783 C 0.72567 0.16749 0.95592 0.0
C784 C 0.68726 0.15502 0.95601 0.0
C785 C 0.68387 0.13577 0.96203 0.0
C786 C 0.70128 0.1319 0.96396 0.0
H787 H 0.5842 0.05427 0.01901 0.0
H788 H 0.61797 0.07822 0.00806 0.0
C789 C 0.72211 0.14774 0.96099 0.0
C790 C 0.66274 0.12061 0.96763 0.0
H791 H 0.62928 0.11689 0.99556 0.0
C792 C 0.65068 0.09919 0.96047 0.0
C793 C 0.65506 0.12701 0.98054 0.0
C794 C 0.66785 0.14951 0.98919 0.0
C795 C 0.631 0.08402 0.96582 0.0
C796 C 0.62313 0.09056 0.97856 0.0
C797 C 0.63528 0.11195 0.98574 0.0
C798 C 0.60258 0.0754 0.9849 0.0
C799 C 0.61907 0.061 0.95806 0.0
C800 C 0.58267 0.06599 0.97556 0.0
C801 C 0.56331 0.05226 0.98177 0.0
C802 C 0.56346 0.04778 0.99751 0.0
C803 C 0.58345 0.05732 0.00685 0.0
C804 C 0.60279 0.07103 1.00061 0.0
H805 H 0.62975 0.05726 0.95123 0.0
H806 H 0.61234 0.04913 0.96687 0.0
H807 H 0.60534 0.05877 0.94987 0.0
H808 H 0.58206 0.0695 0.9635 0.0
H809 H 0.54824 0.04528 0.97424 0.0
H810 H 0.81043 0.52416 0.94555 0.0
H811 H 0.83943 0.51546 0.95026 0.0
H812 H 0.88305 0.58154 0.97007 0.0
H813 H 0.85409 0.59025 0.96523 0.0
H814 H 0.9025 0.56236 0.95063 0.0
H815 H 0.85649 0.51094 0.99643 0.0
H816 H 0.84193 0.50438 0.97729 0.0
H817 H 0.8501 0.53002 0.98815 0.0
C818 C 0.82641 0.53689 0.95053 0.0
C819 C 0.83026 0.55784 0.955 0.0
C820 C 0.84286 0.53191 0.95331 0.0
C821 C 0.86327 0.54779 0.9607 0.0
C822 C 0.86742 0.56907 0.96435 0.0
H823 H 0.95768 0.53336 0.01748 0.0
H824 H 0.93109 0.54218 0.00631 0.0
C825 C 0.85095 0.57404 0.96157 0.0
C826 C 0.87962 0.54184 0.9659 0.0
H827 H 0.88933 0.51238 0.99181 0.0
C828 C 0.89963 0.55135 0.95956 0.0
C829 C 0.87588 0.52771 0.97773 0.0
C830 C 0.85503 0.51777 0.98543 0.0
C831 C 0.91603 0.54702 0.96474 0.0
C832 C 0.91218 0.53272 0.97646 0.0
C833 C 0.89216 0.52323 0.98276 0.0
C834 C 0.92896 0.52799 0.98286 0.0
C835 C 0.93753 0.5582 0.95795 0.0
C836 C 0.93651 0.51698 0.97338 0.0
C837 C 0.95173 0.51187 0.97973 0.0
C838 C 0.95962 0.51763 0.99571 0.0
C839 C 0.95201 0.5287 0.00514 0.0
C840 C 0.9368 0.53376 0.99878 0.0
H841 H 0.93949 0.57208 0.95156 0.0
H842 H 0.95119 0.56424 0.96732 0.0
H843 H 0.93859 0.54638 0.94959 0.0
H844 H 0.93039 0.51205 0.96112 0.0
H845 H 0.95718 0.50328 0.97213 0.0
H846 H 0.47898 0.28804 0.98183 0.0
H847 H 0.48859 0.32633 0.98484 0.0
H848 H 0.42296 0.30778 0.96792 0.0
H849 H 0.41327 0.26933 0.96517 0.0
H850 H 0.48633 0.35427 0.96413 0.0
H851 H 0.43178 0.33984 0.01121 0.0
H852 H 0.43866 0.31992 0.00413 0.0
H853 H 0.41895 0.32363 0.99285 0.0
C854 C 0.46674 0.29226 0.97855 0.0
C855 C 0.44546 0.27602 0.9733 0.0
C856 C 0.47221 0.31406 0.98027 0.0
C857 C 0.4564 0.31985 0.97683 0.0
C858 C 0.43529 0.3036 0.97089 0.0
H859 H 0.46696 0.44652 0.99895 0.0
H860 H 0.45412 0.40917 0.98781 0.0
C861 C 0.42981 0.28175 0.96922 0.0
C862 C 0.46194 0.34276 0.98031 0.0
H863 H 0.45173 0.37565 0.00451 0.0
C864 C 0.47866 0.35896 0.97287 0.0
C865 C 0.45192 0.34881 0.99174 0.0
C866 C 0.43445 0.33221 1.00056 0.0
C867 C 0.48581 0.38108 0.9767 0.0
C868 C 0.47619 0.38712 0.98842 0.0
C869 C 0.45904 0.37092 0.99552 0.0
C870 C 0.4844 0.41016 0.99416 0.0
C871 C 0.50363 0.39779 0.96819 0.0
C872 C 0.50563 0.42302 1.00149 0.0
C873 C 0.51297 0.44429 0.00786 0.0
C874 C 0.49916 0.45303 0.00707 0.0
C875 C 0.47797 0.44021 0.99965 0.0
C876 C 0.47061 0.4189 0.99329 0.0
H877 H 0.50486 0.39058 0.95675 0.0
H878 H 0.50091 0.41153 0.96612 0.0
H879 H 0.51938 0.40436 0.97543 0.0
H880 H 0.51637 0.41643 0.00258 0.0
H881 H 0.52936 0.45382 0.01356 0.0
H882 H 0.15679 0.74202 0.05164 0.0
H883 H 0.12608 0.7048 0.04555 0.0
H884 H 0.16379 0.67992 0.06793 0.0
H885 H 0.19438 0.71718 0.07413 0.0
H886 H 0.12923 0.67418 0.02649 0.0
H887 H 0.10426 0.64375 0.084 0.0
H888 H 0.12038 0.67236 0.08163 0.0
H889 H 0.1329 0.65589 0.08259 0.0
C890 C 0.15819 0.72859 0.05565 0.0
C891 C 0.17766 0.73224 0.06347 0.0
C892 C 0.14073 0.70738 0.05213 0.0
C893 C 0.14256 0.68959 0.05643 0.0
C894 C 0.16183 0.6934 0.06481 0.0
H895 H 0.08132 0.55936 0.01087 0.0
H896 H 0.10588 0.59687 0.02222 0.0
C897 C 0.17929 0.71462 0.06831 0.0
C898 C 0.12543 0.66712 0.05052 0.0
H899 H 0.09133 0.61696 0.06184 0.0
C900 C 0.12079 0.66173 0.03423 0.0
C901 C 0.11436 0.65093 0.06062 0.0
C902 C 0.11804 0.65601 0.07819 0.0
C903 C 0.10585 0.64046 0.02777 0.0
C904 C 0.09545 0.62409 0.03786 0.0
C905 C 0.09952 0.62955 0.05415 0.0
C906 C 0.08063 0.60114 0.0316 0.0
C907 C 0.10134 0.63563 0.01019 0.0
C908 C 0.05839 0.59104 0.03338 0.0
C909 C 0.04432 0.56965 0.02683 0.0
C910 C 0.05235 0.55799 0.01858 0.0
C911 C 0.07469 0.56801 0.0171 0.0
C912 C 0.08871 0.58941 0.02356 0.0
H913 H 0.1067 0.65068 0.00426 0.0
H914 H 0.11026 0.62759 0.00596 0.0
H915 H 0.08376 0.62443 0.00669 0.0
H916 H 0.05188 0.59985 0.03957 0.0
H917 H 0.02715 0.56232 0.02811 0.0
H918 H 0.29453 0.4741 0.08115 0.0
H919 H 0.33189 0.48551 0.0756 0.0
H920 H 0.31214 0.41906 0.05992 0.0
H921 H 0.27487 0.40766 0.06563 0.0
H922 H 0.35416 0.44283 0.07754 0.0
H923 H 0.34417 0.48657 0.02911 0.0
H924 H 0.33951 0.49442 0.0481 0.0
H925 H 0.32158 0.46743 0.03878 0.0
C926 C 0.2984 0.46193 0.07693 0.0
C927 C 0.28209 0.44006 0.07388 0.0
C928 C 0.31962 0.46844 0.07365 0.0
C929 C 0.32468 0.45317 0.06713 0.0
C930 C 0.30857 0.43109 0.06494 0.0
H931 H 0.42532 0.4724 0.00838 0.0
H932 H 0.39148 0.46189 0.02 0.0
C933 C 0.28736 0.42459 0.06823 0.0
C934 C 0.34616 0.46032 0.06136 0.0
H935 H 0.37822 0.48901 0.03362 0.0
C936 C 0.35952 0.45302 0.068 0.0
C937 C 0.3529 0.47331 0.04873 0.0
C938 C 0.33877 0.48078 0.04064 0.0
C939 C 0.37952 0.45846 0.06237 0.0
C940 C 0.38637 0.47171 0.04988 0.0
C941 C 0.37298 0.47897 0.04325 0.0
C942 C 0.40705 0.47772 0.04312 0.0
C943 C 0.39288 0.44951 0.06954 0.0
C944 C 0.42706 0.49026 0.05223 0.0
C945 C 0.44648 0.49631 0.04562 0.0
C946 C 0.44624 0.49001 0.02973 0.0
C947 C 0.42614 0.47752 0.02064 0.0
C948 C 0.40676 0.47149 0.02726 0.0
H949 H 0.38311 0.43563 0.07633 0.0
H950 H 0.39994 0.44408 0.06036 0.0
H951 H 0.40643 0.46248 0.07765 0.0
H952 H 0.42769 0.49562 0.0644 0.0
H953 H 0.46165 0.50602 0.05297 0.0
H954 H 0.59806 0.86874 0.06376 0.0
H955 H 0.5881 0.89688 0.06075 0.0
H956 H 0.52084 0.84692 0.05051 0.0
H957 H 0.53078 0.81899 0.05383 0.0
H958 H 0.57 0.9009 0.03359 0.0
H959 H 0.51563 0.89021 0.07969 0.0
H960 H 0.53322 0.87876 0.07999 0.0
H961 H 0.5075 0.86511 0.06812 0.0
C962 C 0.58112 0.86394 0.06132 0.0
C963 C 0.56508 0.84191 0.05918 0.0
C964 C 0.57544 0.87994 0.05956 0.0
C965 C 0.55367 0.87403 0.05563 0.0
C966 C 0.53763 0.85192 0.05396 0.0
H967 H 0.48138 0.92799 0.01427 0.0
H968 H 0.49465 0.90577 0.02614 0.0
C969 C 0.5433 0.83598 0.05578 0.0
C970 C 0.54798 0.89062 0.05145 0.0
H971 H 0.5129 0.90904 0.05804 0.0
C972 C 0.5578 0.90296 0.03912 0.0
C973 C 0.53196 0.89321 0.05863 0.0
C974 C 0.52163 0.88126 0.07244 0.0
C975 C 0.55139 0.91713 0.03333 0.0
C976 C 0.53492 0.9192 0.04019 0.0
C977 C 0.52548 0.90732 0.05278 0.0
C978 C 0.52666 0.93293 0.03393 0.0
C979 C 0.56166 0.9291 0.01949 0.0
C980 C 0.54017 0.95555 0.03462 0.0
C981 C 0.53266 0.96823 0.02782 0.0
C982 C 0.51148 0.95847 0.02028 0.0
C983 C 0.49781 0.93589 0.01993 0.0
C984 C 0.50533 0.92322 0.02676 0.0
H985 H 0.57095 0.92248 0.01367 0.0
H986 H 0.54912 0.9282 0.01071 0.0
H987 H 0.57302 0.94649 0.02354 0.0
H988 H 0.5566 0.96336 0.04027 0.0
H989 H 0.54354 0.98562 0.02823 0.0
H990 H 0.94924 0.19871 0.42302 0.0
H991 H 0.98407 0.22652 0.41532 0.0
H992 H 0.98807 0.17746 0.38626 0.0
H993 H 0.95392 0.14951 0.39446 0.0
H994 H 0.02631 0.205 0.40296 0.0
H995 H 0.994 0.25187 0.37361 0.0
H996 H 0.98877 0.24884 0.39375 0.0
H997 H 0.97659 0.22526 0.37963 0.0
C998 C 0.95764 0.1938 0.41512 0.0
C999 C 0.94863 0.17185 0.40926 0.0
C1000 C 0.97742 0.20977 0.41056 0.0
C1001 C 0.98848 0.20415 0.39995 0.0
C1002 C 0.97975 0.18223 0.39435 0.0
H1003 H 0.08925 0.28728 0.34403 0.0
H1004 H 0.05551 0.26142 0.35417 0.0
C1005 C 0.9601 0.16627 0.39896 0.0
C1006 C 0.00926 0.22092 0.39472 0.0
H1007 H 0.03216 0.267 0.37586 0.0
C1008 C 0.0276 0.21858 0.39705 0.0
C1009 C 0.01085 0.23846 0.3868 0.0
C1010 C 0.99148 0.24121 0.38314 0.0
C1011 C 0.04745 0.23325 0.3917 0.0
C1012 C 0.04919 0.2511 0.38413 0.0
C1013 C 0.03086 0.25344 0.38178 0.0
C1014 C 0.06971 0.26715 0.37815 0.0
C1015 C 0.06615 0.22907 0.39379 0.0
C1016 C 0.08887 0.27922 0.38829 0.0
C1017 C 0.10824 0.29389 0.38251 0.0
C1018 C 0.10878 0.29702 0.36648 0.0
C1019 C 0.08945 0.28527 0.35642 0.0
C1020 C 0.07012 0.27049 0.3622 0.0
H1021 H 0.06052 0.21186 0.39574 0.0
H1022 H 0.07549 0.23299 0.38341 0.0
H1023 H 0.07726 0.23949 0.40419 0.0
H1024 H 0.08886 0.27734 0.4007 0.0
H1025 H 0.12276 0.30281 0.39063 0.0
H1026 H 0.83313 0.7547 0.39449 0.0
H1027 H 0.80529 0.76288 0.38501 0.0
H1028 H 0.82019 0.80636 0.4268 0.0
H1029 H 0.8487 0.79898 0.43608 0.0
H1030 H 0.76867 0.75692 0.39811 0.0
H1031 H 0.82393 0.84445 0.39231 0.0
H1032 H 0.83369 0.82576 0.39507 0.0
H1033 H 0.82628 0.83659 0.41148 0.0
C1034 C 0.83072 0.76624 0.40158 0.0
C1035 C 0.84333 0.77635 0.41599 0.0
C1036 C 0.81466 0.77076 0.3962 0.0
C1037 C 0.8109 0.7855 0.40507 0.0
C1038 C 0.82312 0.79528 0.4196 0.0
H1039 H 0.72019 0.83247 0.38936 0.0
H1040 H 0.74678 0.82373 0.40085 0.0
C1041 C 0.83923 0.79083 0.42498 0.0
C1042 C 0.79402 0.79042 0.39915 0.0
H1043 H 0.78619 0.83164 0.38844 0.0
C1044 C 0.7725 0.77325 0.39597 0.0
C1045 C 0.79905 0.81174 0.39636 0.0
C1046 C 0.82201 0.83068 0.39883 0.0
C1047 C 0.75586 0.77685 0.39021 0.0
C1048 C 0.76092 0.79814 0.38739 0.0
C1049 C 0.78237 0.81534 0.39068 0.0
C1050 C 0.7443 0.80284 0.38059 0.0
C1051 C 0.73294 0.7579 0.38735 0.0
C1052 C 0.73423 0.7941 0.36535 0.0
C1053 C 0.71909 0.79909 0.35872 0.0
C1054 C 0.71374 0.81297 0.36721 0.0
C1055 C 0.72385 0.82166 0.38251 0.0
C1056 C 0.73907 0.81672 0.3891 0.0
H1057 H 0.73087 0.74392 0.39367 0.0
H1058 H 0.72116 0.76271 0.39107 0.0
H1059 H 0.72898 0.75239 0.37464 0.0
H1060 H 0.73832 0.78365 0.35849 0.0
H1061 H 0.71169 0.79216 0.3469 0.0
H1062 H 0.20719 0.06775 0.38241 0.0
H1063 H 0.19785 0.03102 0.37231 0.0
H1064 H 0.25211 0.03696 0.40159 0.0
H1065 H 0.26136 0.07366 0.41192 0.0
H1066 H 0.22113 0.01707 0.35641 0.0
H1067 H 0.2028 0.98008 0.41268 0.0
H1068 H 0.2061 0.00652 0.41029 0.0
H1069 H 0.22949 0.00336 0.4132 0.0
C1070 C 0.21718 0.06125 0.38665 0.0
C1071 C 0.23496 0.07353 0.39799 0.0
C1072 C 0.21179 0.04025 0.38092 0.0
C1073 C 0.22406 0.03111 0.38639 0.0
C1074 C 0.24208 0.04347 0.39751 0.0
H1075 H 0.21318 0.90589 0.35848 0.0
H1076 H 0.2262 0.94337 0.36948 0.0
C1077 C 0.24738 0.06445 0.40335 0.0
C1078 C 0.21809 0.00876 0.38019 0.0
H1079 H 0.20242 0.95794 0.39084 0.0
C1080 C 0.21703 0.00415 0.36394 0.0
C1081 C 0.21275 0.99191 0.39005 0.0
C1082 C 0.21263 0.9956 0.40751 0.0
C1083 C 0.21074 0.98316 0.35729 0.0
C1084 C 0.20529 0.96636 0.36713 0.0
C1085 C 0.20668 0.97096 0.38338 0.0
C1086 C 0.19738 0.94371 0.36066 0.0
C1087 C 0.21 0.97904 0.33978 0.0
C1088 C 0.1768 0.93154 0.35225 0.0
C1089 C 0.16925 0.91012 0.34612 0.0
C1090 C 0.18221 0.90058 0.34828 0.0
C1091 C 0.20281 0.9128 0.35674 0.0
C1092 C 0.21028 0.93418 0.36299 0.0
H1093 H 0.21858 0.99441 0.33419 0.0
H1094 H 0.21737 0.96889 0.33694 0.0
H1095 H 0.19282 0.97002 0.33461 0.0
H1096 H 0.16656 0.93861 0.35048 0.0
H1097 H 0.15329 0.90105 0.33967 0.0
H1098 H 0.47722 0.60547 0.30304 0.0
H1099 H 0.50428 0.64242 0.31419 0.0
H1100 H 0.55056 0.64172 0.28452 0.0
H1101 H 0.5236 0.60469 0.27333 0.0
H1102 H 0.56476 0.65616 0.31935 0.0
H1103 H 0.5276 0.69862 0.28929 0.0
H1104 H 0.50969 0.6749 0.29847 0.0
H1105 H 0.52251 0.67207 0.28189 0.0
C1106 C 0.49318 0.61317 0.29892 0.0
C1107 C 0.49828 0.60222 0.28728 0.0
C1108 C 0.50855 0.63428 0.30524 0.0
C1109 C 0.52931 0.64479 0.30007 0.0
C1110 C 0.53456 0.63388 0.28858 0.0
H1111 H 0.64581 0.76947 0.33215 0.0
H1112 H 0.62043 0.73275 0.31969 0.0
C1113 C 0.51913 0.61281 0.28215 0.0
C1114 C 0.54558 0.6671 0.30685 0.0
H1115 H 0.55722 0.71981 0.30842 0.0
C1116 C 0.56325 0.67014 0.31693 0.0
C1117 C 0.5434 0.68518 0.30368 0.0
C1118 C 0.52488 0.68271 0.29266 0.0
C1119 C 0.57859 0.69083 0.32428 0.0
C1120 C 0.57647 0.70901 0.3211 0.0
C1121 C 0.55885 0.7059 0.31086 0.0
C1122 C 0.59201 0.73133 0.32851 0.0
C1123 C 0.59648 0.69286 0.33578 0.0
C1124 C 0.58443 0.74305 0.3372 0.0
C1125 C 0.59884 0.76415 0.34406 0.0
C1126 C 0.62111 0.77395 0.34238 0.0
C1127 C 0.62871 0.76229 0.33364 0.0
C1128 C 0.61426 0.74123 0.32665 0.0
H1129 H 0.59229 0.67703 0.3402 0.0
H1130 H 0.61148 0.69843 0.32985 0.0
H1131 H 0.59997 0.70488 0.34594 0.0
H1132 H 0.56734 0.7358 0.33874 0.0
H1133 H 0.59252 0.77278 0.35071 0.0
H1134 H 0.40682 0.91578 0.30049 0.0
H1135 H 0.37234 0.90899 0.3095 0.0
H1136 H 0.33925 0.87587 0.26421 0.0
H1137 H 0.37362 0.88202 0.25523 0.0
H1138 H 0.34199 0.92031 0.29815 0.0
H1139 H 0.30637 0.83064 0.29448 0.0
H1140 H 0.33491 0.84907 0.29349 0.0
H1141 H 0.31579 0.84255 0.27665 0.0
C1142 C 0.39219 0.90697 0.29245 0.0
C1143 C 0.39293 0.8992 0.2772 0.0
C1144 C 0.37253 0.90323 0.29759 0.0
C1145 C 0.35319 0.89159 0.28762 0.0
C1146 C 0.35395 0.88454 0.27219 0.0
H1147 H 0.21838 0.84513 0.30341 0.0
H1148 H 0.25211 0.85468 0.29193 0.0
C1149 C 0.37363 0.88828 0.26702 0.0
C1150 C 0.33223 0.88649 0.29356 0.0
H1151 H 0.28364 0.84436 0.30148 0.0
C1152 C 0.32921 0.90371 0.29887 0.0
C1153 C 0.31561 0.86481 0.29452 0.0
C1154 C 0.31831 0.84567 0.28962 0.0
C1155 C 0.30993 0.89984 0.305 0.0
C1156 C 0.29339 0.87817 0.30607 0.0
C1157 C 0.29633 0.86095 0.30062 0.0
C1158 C 0.27302 0.87295 0.31302 0.0
C1159 C 0.30731 0.91896 0.31007 0.0
C1160 C 0.27355 0.87986 0.32876 0.0
C1161 C 0.25427 0.87442 0.33539 0.0
C1162 C 0.23406 0.86183 0.32643 0.0
C1163 C 0.23362 0.85485 0.31068 0.0
C1164 C 0.2529 0.8603 0.30407 0.0
H1165 H 0.31863 0.93377 0.30468 0.0
H1166 H 0.29043 0.9153 0.30692 0.0
H1167 H 0.3109 0.92259 0.32299 0.0
H1168 H 0.28888 0.88925 0.33599 0.0
H1169 H 0.25524 0.87998 0.34757 0.0
H1170 H 0.1394 0.52745 0.31256 0.0
H1171 H 0.14796 0.50051 0.32175 0.0
H1172 H 0.09304 0.44984 0.29195 0.0
H1173 H 0.08452 0.47685 0.28255 0.0
H1174 H 0.12296 0.46555 0.33726 0.0
H1175 H 0.14127 0.43838 0.28116 0.0
H1176 H 0.13915 0.46256 0.28364 0.0
H1177 H 0.11507 0.43618 0.28051 0.0
C1178 C 0.12915 0.51057 0.30795 0.0
C1179 C 0.11129 0.50424 0.29684 0.0
C1180 C 0.1341 0.49521 0.31318 0.0
C1181 C 0.1213 0.47321 0.30741 0.0
C1182 C 0.10343 0.4668 0.2963 0.0
H1183 H 0.12949 0.36124 0.33602 0.0
H1184 H 0.11695 0.38422 0.32437 0.0
C1185 C 0.09855 0.48222 0.29097 0.0
C1186 C 0.12637 0.45704 0.31355 0.0
H1187 H 0.14117 0.41962 0.30304 0.0
C1188 C 0.12692 0.4555 0.32977 0.0
C1189 C 0.13145 0.44388 0.30374 0.0
C1190 C 0.13191 0.4454 0.28631 0.0
C1191 C 0.13262 0.44133 0.33646 0.0
C1192 C 0.13802 0.42846 0.3267 0.0
C1193 C 0.13698 0.42955 0.31045 0.0
C1194 C 0.14572 0.41453 0.3333 0.0
C1195 C 0.1329 0.44021 0.35395 0.0
C1196 C 0.16612 0.42403 0.34197 0.0
C1197 C 0.17339 0.411 0.34848 0.0
C1198 C 0.16034 0.38825 0.34643 0.0
C1199 C 0.13994 0.37874 0.33766 0.0
C1200 C 0.13275 0.39181 0.33104 0.0
H1201 H 0.12415 0.44774 0.35938 0.0
H1202 H 0.12543 0.42307 0.35671 0.0
H1203 H 0.14996 0.44904 0.35935 0.0
H1204 H 0.17641 0.44156 0.34371 0.0
H1205 H 0.18919 0.41875 0.35515 0.0
H1206 H 0.40763 0.49461 0.31994 0.0
H1207 H 0.37007 0.47019 0.32504 0.0
H1208 H 0.34803 0.47089 0.27734 0.0
H1209 H 0.38593 0.49545 0.27221 0.0
H1210 H 0.33559 0.47976 0.32156 0.0
H1211 H 0.31806 0.40504 0.28441 0.0
H1212 H 0.34541 0.42682 0.29046 0.0
H1213 H 0.32912 0.43003 0.27533 0.0
C1214 C 0.39475 0.48934 0.31052 0.0
C1215 C 0.39945 0.49665 0.29569 0.0
C1216 C 0.37335 0.47547 0.31344 0.0
C1217 C 0.35628 0.4686 0.30155 0.0
C1218 C 0.361 0.47577 0.28661 0.0
H1219 H 0.21768 0.38086 0.30927 0.0
H1220 H 0.25204 0.40547 0.2992 0.0
C1221 C 0.38254 0.48978 0.28369 0.0
C1222 C 0.33363 0.45463 0.30522 0.0
H1223 H 0.29018 0.40297 0.29886 0.0
C1224 C 0.32559 0.46301 0.31652 0.0
C1225 C 0.3206 0.43285 0.29855 0.0
C1226 C 0.32866 0.42298 0.28657 0.0
C1227 C 0.30502 0.45009 0.32155 0.0
C1228 C 0.29231 0.42805 0.31536 0.0
C1229 C 0.30002 0.41985 0.30365 0.0
C1230 C 0.27145 0.41306 0.32141 0.0
C1231 C 0.29708 0.46017 0.33348 0.0
C1232 C 0.27101 0.40889 0.33719 0.0
C1233 C 0.25143 0.39486 0.34301 0.0
C1234 C 0.23187 0.38457 0.33312 0.0
C1235 C 0.2324 0.38856 0.31725 0.0
C1236 C 0.25203 0.4026 0.31144 0.0
H1237 H 0.30556 0.47815 0.33358 0.0
H1238 H 0.27934 0.45361 0.33115 0.0
H1239 H 0.30034 0.45636 0.34533 0.0
H1240 H 0.28587 0.41644 0.34502 0.0
H1241 H 0.25168 0.39209 0.35526 0.0
H1242 H 0.47462 0.85515 0.27676 0.0
H1243 H 0.5039 0.84676 0.28101 0.0
H1244 H 0.54758 0.91308 0.30029 0.0
H1245 H 0.51832 0.92148 0.29592 0.0
H1246 H 0.56668 0.89346 0.28046 0.0
H1247 H 0.52209 0.8434 0.32731 0.0
H1248 H 0.50704 0.83649 0.30832 0.0
H1249 H 0.51553 0.86234 0.31898 0.0
C1250 C 0.49066 0.86801 0.28151 0.0
C1251 C 0.49443 0.88892 0.28598 0.0
C1252 C 0.50729 0.86321 0.28401 0.0
C1253 C 0.5278 0.87925 0.29113 0.0
C1254 C 0.53187 0.9005 0.29476 0.0
H1255 H 0.62322 0.86684 0.34784 0.0
H1256 H 0.59672 0.87549 0.33632 0.0
C1257 C 0.51522 0.90529 0.29226 0.0
C1258 C 0.54431 0.87346 0.29621 0.0
H1259 H 0.55486 0.8449 0.32245 0.0
C1260 C 0.5641 0.88274 0.28956 0.0
C1261 C 0.54095 0.85971 0.30824 0.0
C1262 C 0.52035 0.85 0.31626 0.0
C1263 C 0.58066 0.8786 0.29466 0.0
C1264 C 0.57721 0.86474 0.30664 0.0
C1265 C 0.55739 0.85542 0.31321 0.0
C1266 C 0.59424 0.86041 0.31312 0.0
C1267 C 0.60193 0.88953 0.28755 0.0
C1268 C 0.60166 0.84904 0.30388 0.0
C1269 C 0.61685 0.84402 0.31044 0.0
C1270 C 0.62482 0.85022 0.32639 0.0
C1271 C 0.61747 0.8618 0.33553 0.0
C1272 C 0.6023 0.86677 0.32897 0.0
H1273 H 0.60357 0.90302 0.2808 0.0
H1274 H 0.61581 0.89607 0.29679 0.0
H1275 H 0.60292 0.87741 0.27946 0.0
H1276 H 0.59537 0.84367 0.29168 0.0
H1277 H 0.62211 0.83503 0.30307 0.0
H1278 H 0.07883 0.60304 0.30206 0.0
H1279 H 0.08828 0.64141 0.30481 0.0
H1280 H 0.15567 0.66087 0.31574 0.0
H1281 H 0.14623 0.62268 0.3127 0.0
H1282 H 0.10616 0.66837 0.3317 0.0
H1283 H 0.16037 0.70372 0.28522 0.0
H1284 H 0.14293 0.67476 0.28547 0.0
H1285 H 0.16864 0.68894 0.29733 0.0
C1286 C 0.09568 0.61565 0.30466 0.0
C1287 C 0.11191 0.61021 0.30703 0.0
C1288 C 0.10107 0.63748 0.30627 0.0
C1289 C 0.12274 0.65405 0.31023 0.0
C1290 C 0.13896 0.64846 0.31225 0.0
H1291 H 0.19444 0.78717 0.34859 0.0
H1292 H 0.1811 0.74959 0.33779 0.0
C1293 C 0.13357 0.62668 0.31061 0.0
C1294 C 0.1282 0.67693 0.31387 0.0
H1295 H 0.16284 0.72901 0.3062 0.0
C1296 C 0.11828 0.6816 0.32594 0.0
C1297 C 0.14406 0.69418 0.30637 0.0
C1298 C 0.15445 0.69014 0.29277 0.0
C1299 C 0.12448 0.70311 0.3312 0.0
C1300 C 0.14085 0.72037 0.32406 0.0
C1301 C 0.15035 0.71571 0.31169 0.0
C1302 C 0.14903 0.74337 0.3298 0.0
C1303 C 0.11414 0.70725 0.3448 0.0
C1304 C 0.13548 0.75236 0.32867 0.0
C1305 C 0.14305 0.77379 0.33485 0.0
C1306 C 0.16429 0.78653 0.34221 0.0
C1307 C 0.17796 0.77765 0.34304 0.0
C1308 C 0.1704 0.75625 0.33684 0.0
H1309 H 0.10487 0.69246 0.3509 0.0
H1310 H 0.12664 0.72041 0.35343 0.0
H1311 H 0.10275 0.71255 0.34043 0.0
H1312 H 0.11902 0.74276 0.3231 0.0
H1313 H 0.13219 0.78027 0.33404 0.0
H1314 H 0.81927 0.06998 0.39915 0.0
H1315 H 0.78956 0.03195 0.39444 0.0
H1316 H 0.83612 0.01146 0.38658 0.0
H1317 H 0.86566 0.04927 0.39161 0.0
H1318 H 0.77919 0.00668 0.36716 0.0
H1319 H 0.79766 0.96653 0.41394 0.0
H1320 H 0.81004 0.99571 0.41465 0.0
H1321 H 0.82066 0.98167 0.40337 0.0
C1322 C 0.82306 0.05719 0.39685 0.0
C1323 C 0.84458 0.06226 0.39591 0.0
C1324 C 0.80615 0.03555 0.3941 0.0
C1325 C 0.81061 0.01877 0.39039 0.0
C1326 C 0.83228 0.02397 0.38985 0.0
H1327 H 0.74613 0.88827 0.34664 0.0
H1328 H 0.77108 0.92515 0.35905 0.0
C1329 C 0.84913 0.04555 0.39264 0.0
C1330 C 0.79268 0.99622 0.3855 0.0
H1331 H 0.77433 0.94306 0.39132 0.0
C1332 C 0.77788 0.99279 0.37262 0.0
C1333 C 0.79101 0.97808 0.3926 0.0
C1334 C 0.80557 0.98068 0.407 0.0
C1335 C 0.76211 0.97173 0.36623 0.0
C1336 C 0.76098 0.95362 0.37298 0.0
C1337 C 0.77533 0.957 0.38613 0.0
C1338 C 0.74571 0.93105 0.36606 0.0
C1339 C 0.74735 0.96896 0.35189 0.0
C1340 C 0.7232 0.9221 0.36606 0.0
C1341 C 0.70893 0.90105 0.35898 0.0
C1342 C 0.71697 0.88864 0.3518 0.0
C1343 C 0.73951 0.89753 0.35202 0.0
C1344 C 0.75376 0.91853 0.35915 0.0
H1345 H 0.75282 0.98442 0.3465 0.0
H1346 H 0.7465 0.95655 0.34298 0.0
H1347 H 0.73072 0.96322 0.35523 0.0
H1348 H 0.71669 0.93143 0.3715 0.0
H1349 H 0.69162 0.89456 0.359 0.0
H1350 H 0.94828 0.75273 0.41889 0.0
H1351 H 0.98601 0.76375 0.4145 0.0
H1352 H 0.98983 0.8154 0.38854 0.0
H1353 H 0.95253 0.80472 0.39326 0.0
H1354 H 1.00111 0.76328 0.38683 0.0
H1355 H 0.04661 0.8473 0.41566 0.0
H1356 H 0.01894 0.82855 0.41904 0.0
H1357 H 0.02467 0.84356 0.4021 0.0
C1358 C 0.95749 0.76676 0.41261 0.0
C1359 C 0.94785 0.77814 0.40657 0.0
C1360 C 0.97893 0.77299 0.41005 0.0
C1361 C 0.99093 0.79066 0.40141 0.0
C1362 C 0.98121 0.80216 0.39562 0.0
H1363 H 0.09145 0.81131 0.3427 0.0
H1364 H 0.05776 0.80102 0.35444 0.0
C1365 C 0.95988 0.796 0.39824 0.0
C1366 C 0.0128 0.79594 0.39719 0.0
H1367 H 0.06432 0.8382 0.39599 0.0
C1368 C 0.01501 0.7796 0.38904 0.0
C1369 C 0.03107 0.81714 0.40024 0.0
C1370 C 0.03028 0.83506 0.40989 0.0
C1371 C 0.03467 0.78409 0.38327 0.0
C1372 C 0.05247 0.80563 0.38537 0.0
C1373 C 0.05058 0.82176 0.39414 0.0
C1374 C 0.07302 0.81189 0.37826 0.0
C1375 C 0.03614 0.76565 0.37502 0.0
C1376 C 0.09294 0.82212 0.38766 0.0
C1377 C 0.11231 0.82832 0.38095 0.0
C1378 C 0.11215 0.82442 0.36467 0.0
C1379 C 0.09218 0.81437 0.35528 0.0
C1380 C 0.07285 0.80832 0.362 0.0
H1381 H 0.02414 0.74972 0.37877 0.0
H1382 H 0.03254 0.7651 0.36221 0.0
H1383 H 0.05262 0.76785 0.37729 0.0
H1384 H 0.0935 0.82519 0.40022 0.0
H1385 H 0.12738 0.83606 0.38855 0.0
H1386 H 0.26654 0.205 0.3983 0.0
H1387 H 0.25644 0.23303 0.39525 0.0
H1388 H 0.18951 0.18285 0.38367 0.0
H1389 H 0.19958 0.15501 0.38703 0.0
H1390 H 0.23922 0.23759 0.36789 0.0
H1391 H 0.1829 0.22519 0.41285 0.0
H1392 H 0.20066 0.21394 0.4134 0.0
H1393 H 0.17532 0.20039 0.40107 0.0
C1394 C 0.24962 0.20012 0.39556 0.0
C1395 C 0.23372 0.17806 0.39306 0.0
C1396 C 0.24387 0.21605 0.39377 0.0
C1397 C 0.22216 0.21006 0.38945 0.0
C1398 C 0.20624 0.18791 0.38742 0.0
H1399 H 0.15043 0.26399 0.34724 0.0
H1400 H 0.16365 0.24175 0.35913 0.0
C1401 C 0.21199 0.17202 0.38926 0.0
C1402 C 0.21647 0.22665 0.38527 0.0
H1403 H 0.1808 0.24447 0.3913 0.0
C1404 C 0.22672 0.23937 0.37321 0.0
C1405 C 0.20008 0.22888 0.39216 0.0
C1406 C 0.18927 0.21652 0.40569 0.0
C1407 C 0.22038 0.25358 0.36738 0.0
C1408 C 0.20353 0.25529 0.37393 0.0
C1409 C 0.19366 0.24303 0.38627 0.0
C1410 C 0.19531 0.269 0.3676 0.0
C1411 C 0.23114 0.26598 0.35383 0.0
C1412 C 0.20865 0.29168 0.36864 0.0
C1413 C 0.20116 0.30438 0.36183 0.0
C1414 C 0.18019 0.29458 0.35393 0.0
C1415 C 0.16671 0.27193 0.35319 0.0
C1416 C 0.17419 0.25924 0.36003 0.0
H1417 H 0.24081 0.25968 0.34819 0.0
H1418 H 0.21884 0.26512 0.34483 0.0
H1419 H 0.24223 0.28334 0.35813 0.0
H1420 H 0.22492 0.29952 0.37459 0.0
H1421 H 0.2119 0.32182 0.36254 0.0
H1422 H 0.61732 0.53327 0.75706 0.0
H1423 H 0.65221 0.56124 0.74947 0.0
H1424 H 0.65701 0.51225 0.72095 0.0
H1425 H 0.62279 0.4842 0.72899 0.0
H1426 H 0.69512 0.54042 0.73793 0.0
H1427 H 0.66198 0.58576 0.70729 0.0
H1428 H 0.65659 0.58286 0.72742 0.0
H1429 H 0.64481 0.55916 0.71344 0.0
C1430 C 0.62593 0.52843 0.74932 0.0
C1431 C 0.61712 0.50649 0.74352 0.0
C1432 C 0.64574 0.54448 0.74482 0.0
C1433 C 0.65702 0.5389 0.73438 0.0
C1434 C 0.64852 0.51698 0.72891 0.0
H1435 H 0.75729 0.62009 0.67747 0.0
H1436 H 0.72364 0.59463 0.68794 0.0
C1437 C 0.62884 0.50097 0.73343 0.0
C1438 C 0.67774 0.55572 0.72912 0.0
H1439 H 0.70011 0.60099 0.70935 0.0
C1440 C 0.69623 0.5537 0.73171 0.0
C1441 C 0.67909 0.57287 0.72081 0.0
C1442 C 0.65954 0.57525 0.71692 0.0
C1443 C 0.716 0.56828 0.72621 0.0
C1444 C 0.71748 0.5857 0.7182 0.0
C1445 C 0.699 0.58775 0.71561 0.0
C1446 C 0.73788 0.60158 0.712 0.0
C1447 C 0.73489 0.56445 0.72862 0.0
C1448 C 0.75701 0.61421 0.72207 0.0
C1449 C 0.77631 0.62865 0.71611 0.0
C1450 C 0.77683 0.63097 0.69996 0.0
C1451 C 0.75751 0.61869 0.68995 0.0
C1452 C 0.73824 0.60414 0.69592 0.0
H1453 H 0.72949 0.54743 0.73103 0.0
H1454 H 0.74414 0.56797 0.7182 0.0
H1455 H 0.74602 0.57537 0.73884 0.0
H1456 H 0.75703 0.61292 0.73456 0.0
H1457 H 0.79081 0.63801 0.7242 0.0
H1458 H 0.51815 0.13056 0.76896 0.0
H1459 H 0.49029 0.13891 0.75964 0.0
H1460 H 0.47284 0.09342 0.71867 0.0
H1461 H 0.50038 0.08471 0.72797 0.0
H1462 H 0.48013 0.13533 0.7125 0.0
H1463 H 0.4235 0.10036 0.7581 0.0
H1464 H 0.45139 0.11884 0.76528 0.0
H1465 H 0.44405 0.09333 0.75458 0.0
C1466 C 0.50817 0.12209 0.75808 0.0
C1467 C 0.51153 0.10698 0.7492 0.0
C1468 C 0.49227 0.12689 0.75278 0.0
C1469 C 0.47938 0.11662 0.73855 0.0
C1470 C 0.48263 0.10151 0.72969 0.0
H1471 H 0.38081 0.12534 0.68091 0.0
H1472 H 0.40755 0.11668 0.69198 0.0
C1473 C 0.49846 0.09666 0.73499 0.0
C1474 C 0.46307 0.1222 0.73255 0.0
H1475 H 0.4156 0.11995 0.74006 0.0
C1476 C 0.46599 0.13193 0.71849 0.0
C1477 C 0.44473 0.11785 0.74047 0.0
C1478 C 0.44053 0.10686 0.75538 0.0
C1479 C 0.45114 0.13762 0.71217 0.0
C1480 C 0.43261 0.133 0.71996 0.0
C1481 C 0.42979 0.12344 0.7341 0.0
C1482 C 0.41586 0.13775 0.71349 0.0
C1483 C 0.45566 0.14891 0.69738 0.0
C1484 C 0.4111 0.15191 0.72214 0.0
C1485 C 0.39565 0.15677 0.7159 0.0
C1486 C 0.38462 0.14749 0.7009 0.0
C1487 C 0.38912 0.13294 0.69243 0.0
C1488 C 0.4045 0.12805 0.6987 0.0
H1489 H 0.47309 0.15668 0.69543 0.0
H1490 H 0.44614 0.13677 0.6872 0.0
H1491 H 0.45087 0.16155 0.69775 0.0
H1492 H 0.41959 0.15946 0.73362 0.0
H1493 H 0.39255 0.168 0.72276 0.0
H1494 H 0.92895 0.40654 0.74427 0.0
H1495 H 0.91996 0.36997 0.73368 0.0
H1496 H 0.86153 0.36112 0.70861 0.0
H1497 H 0.87042 0.39754 0.71907 0.0
H1498 H 0.88377 0.32964 0.73617 0.0
H1499 H 0.89079 0.34721 0.67414 0.0
H1500 H 0.901 0.36839 0.6902 0.0
H1501 H 0.8726 0.35389 0.68323 0.0
C1502 C 0.91414 0.39673 0.73656 0.0
C1503 C 0.9005 0.40498 0.73236 0.0
C1504 C 0.90908 0.37591 0.73048 0.0
C1505 C 0.89032 0.36304 0.72011 0.0
C1506 C 0.87639 0.37102 0.71625 0.0
H1507 H 0.82084 0.23389 0.67261 0.0
H1508 H 0.83365 0.27089 0.68447 0.0
C1509 C 0.88148 0.39181 0.72225 0.0
C1510 C 0.88505 0.34113 0.71341 0.0
H1511 H 0.87356 0.30977 0.67874 0.0
C1512 C 0.88176 0.32532 0.72362 0.0
C1513 C 0.88255 0.33562 0.69704 0.0
C1514 C 0.88713 0.35222 0.68551 0.0
C1515 C 0.87522 0.30388 0.71785 0.0
C1516 C 0.87208 0.29825 0.70148 0.0
C1517 C 0.87583 0.31416 0.69129 0.0
C1518 C 0.8644 0.2758 0.69463 0.0
C1519 C 0.87105 0.28722 0.72925 0.0
C1520 C 0.87758 0.26646 0.69633 0.0
C1521 C 0.87036 0.2454 0.6895 0.0
C1522 C 0.84984 0.23338 0.68091 0.0
C1523 C 0.83671 0.24279 0.67919 0.0
C1524 C 0.84399 0.26388 0.68595 0.0
H1525 H 0.87038 0.29318 0.74133 0.0
H1526 H 0.85556 0.27192 0.72547 0.0
H1527 H 0.88431 0.28334 0.72955 0.0
H1528 H 0.89353 0.27556 0.70278 0.0
H1529 H 0.88088 0.23859 0.69087 0.0
H1530 H 0.18007 0.92823 0.64085 0.0
H1531 H 0.20714 0.96482 0.65252 0.0
H1532 H 0.18506 0.9925 0.61759 0.0
H1533 H 0.15819 0.95591 0.60571 0.0
H1534 H 0.22883 0.01346 0.62221 0.0
H1535 H 0.19516 0.00515 0.67951 0.0
H1536 H 0.20191 0.98462 0.67436 0.0
H1537 H 0.18075 0.98566 0.66265 0.0
C1538 C 0.18092 0.94213 0.63572 0.0
C1539 C 0.1669 0.93921 0.62244 0.0
C1540 C 0.19635 0.96303 0.64242 0.0
C1541 C 0.19784 0.98142 0.63613 0.0
C1542 C 0.18415 0.97855 0.62268 0.0
H1543 H 0.2631 0.11198 0.68446 0.0
H1544 H 0.23673 0.07577 0.67166 0.0
C1545 C 0.16884 0.95765 0.61589 0.0
C1546 C 0.21372 0.00366 0.64351 0.0
H1547 H 0.22958 0.03644 0.67795 0.0
C1548 C 0.22896 0.01852 0.63438 0.0
C1549 C 0.21366 0.01037 0.65933 0.0
C1550 C 0.19686 0.9957 0.6695 0.0
C1551 C 0.24433 0.03979 0.64069 0.0
C1552 C 0.2448 0.04621 0.65669 0.0
C1553 C 0.22937 0.03144 0.66574 0.0
C1554 C 0.26092 0.06827 0.66423 0.0
C1555 C 0.25959 0.05529 0.63007 0.0
C1556 C 0.28328 0.076 0.66448 0.0
C1557 C 0.29835 0.09674 0.67169 0.0
C1558 C 0.29131 0.10997 0.67896 0.0
C1559 C 0.26896 0.1021 0.67894 0.0
C1560 C 0.2539 0.08144 0.67163 0.0
H1561 H 0.25308 0.05009 0.61754 0.0
H1562 H 0.26266 0.07205 0.63295 0.0
H1563 H 0.27532 0.05568 0.63156 0.0
H1564 H 0.2891 0.06594 0.65921 0.0
H1565 H 0.3155 0.10235 0.67164 0.0
H1566 H 0.05253 0.19778 0.62204 0.0
H1567 H 0.01853 0.19209 0.63098 0.0
H1568 H 0.02579 0.24773 0.60873 0.0
H1569 H 0.06062 0.25432 0.60045 0.0
H1570 H 0.01377 0.24805 0.63771 0.0
H1571 H 0.96041 0.16648 0.60612 0.0
H1572 H 0.98212 0.16733 0.61831 0.0
H1573 H 0.98812 0.1836 0.60206 0.0
C1574 C 0.04703 0.20895 0.61911 0.0
C1575 C 0.05942 0.22658 0.61055 0.0
C1576 C 0.02737 0.20545 0.62405 0.0
C1577 C 0.01936 0.21922 0.62028 0.0
C1578 C 0.03157 0.23678 0.61167 0.0
H1579 H 0.88683 0.18488 0.63518 0.0
H1580 H 0.92045 0.19395 0.62376 0.0
C1581 C 0.05139 0.24042 0.60682 0.0
C1582 C 0.99866 0.21568 0.62588 0.0
H1583 H 0.94555 0.177 0.6269 0.0
C1584 C 0.99879 0.23259 0.63522 0.0
C1585 C 0.97902 0.19562 0.62243 0.0
C1586 C 0.97732 0.17732 0.61154 0.0
C1587 C 0.97999 0.22978 0.64159 0.0
C1588 C 0.96067 0.2093 0.63889 0.0
C1589 C 0.96041 0.19261 0.62917 0.0
C1590 C 0.94049 0.20475 0.64595 0.0
C1591 C 0.98101 0.24891 0.65095 0.0
C1592 C 0.94047 0.20767 0.66227 0.0
C1593 C 0.92127 0.20273 0.66884 0.0
C1594 C 0.90162 0.19437 0.65925 0.0
C1595 C 0.90166 0.19127 0.64293 0.0
C1596 C 0.92089 0.19645 0.63637 0.0
H1597 H 0.99426 0.26459 0.64775 0.0
H1598 H 0.96545 0.24885 0.64917 0.0
H1599 H 0.98434 0.24806 0.66359 0.0
H1600 H 0.95524 0.21343 0.66996 0.0
H1601 H 0.92176 0.2051 0.68146 0.0
H1602 H 0.7641 0.83466 0.65085 0.0
H1603 H 0.77409 0.80895 0.66026 0.0
H1604 H 0.79383 0.8014 0.61494 0.0
H1605 H 0.78575 0.8286 0.60583 0.0
H1606 H 0.7613 0.76834 0.65292 0.0
H1607 H 0.84756 0.81644 0.64173 0.0
H1608 H 0.8293 0.82692 0.63985 0.0
H1609 H 0.8294 0.80897 0.62424 0.0
C1610 C 0.77091 0.82786 0.64292 0.0
C1611 C 0.77453 0.83417 0.62765 0.0
C1612 C 0.77638 0.81291 0.64828 0.0
C1613 C 0.78527 0.80364 0.63845 0.0
C1614 C 0.78767 0.80886 0.62292 0.0
H1615 H 0.79895 0.69415 0.66608 0.0
H1616 H 0.78646 0.71647 0.65358 0.0
C1617 C 0.78264 0.82417 0.61763 0.0
C1618 C 0.79233 0.78887 0.64464 0.0
H1619 H 0.83578 0.78122 0.64945 0.0
C1620 C 0.77761 0.77118 0.6522 0.0
C1621 C 0.81374 0.79278 0.64394 0.0
C1622 C 0.83097 0.81243 0.63715 0.0
C1623 C 0.7837 0.75741 0.65916 0.0
C1624 C 0.80486 0.76086 0.65794 0.0
C1625 C 0.81951 0.77844 0.65027 0.0
C1626 C 0.81256 0.7471 0.66509 0.0
C1627 C 0.76761 0.73989 0.66823 0.0
C1628 C 0.83189 0.75686 0.67519 0.0
C1629 C 0.83949 0.74417 0.68183 0.0
C1630 C 0.82779 0.72145 0.67864 0.0
C1631 C 0.80843 0.71165 0.66859 0.0
C1632 C 0.80107 0.72438 0.66166 0.0
H1633 H 0.75525 0.74376 0.67213 0.0
H1634 H 0.75893 0.72432 0.66057 0.0
H1635 H 0.77582 0.73758 0.6787 0.0
H1636 H 0.84108 0.77434 0.67802 0.0
H1637 H 0.85446 0.75216 0.68956 0.0
H1638 H 0.07149 0.80771 0.63271 0.0
H1639 H 0.03397 0.782 0.63733 0.0
H1640 H 0.015 0.82846 0.62501 0.0
H1641 H 0.05267 0.85429 0.62062 0.0
H1642 H 0.00261 0.81371 0.65327 0.0
H1643 H 0.97802 0.74373 0.60907 0.0
H1644 H 0.00324 0.75185 0.62044 0.0
H1645 H 0.00134 0.77019 0.60778 0.0
C1646 C 0.05912 0.8121 0.63057 0.0
C1647 C 0.06468 0.83271 0.62613 0.0
C1648 C 0.03771 0.79743 0.63317 0.0
C1649 C 0.02158 0.80318 0.63133 0.0
C1650 C 0.02712 0.82362 0.62639 0.0
H1651 H 0.88476 0.71536 0.64257 0.0
H1652 H 0.91881 0.73998 0.63222 0.0
C1653 C 0.04855 0.83829 0.6238 0.0
C1654 C 0.99958 0.78883 0.63611 0.0
H1655 H 0.95617 0.7371 0.63046 0.0
C1656 C 0.99236 0.79702 0.64816 0.0
C1657 C 0.98612 0.76712 0.62936 0.0
C1658 C 0.99246 0.75774 0.61584 0.0
C1659 C 0.97238 0.78393 0.65398 0.0
C1660 C 0.9594 0.76192 0.64776 0.0
C1661 C 0.96627 0.75391 0.63536 0.0
C1662 C 0.93877 0.74694 0.65409 0.0
C1663 C 0.9653 0.79384 0.66669 0.0
C1664 C 0.9387 0.74247 0.66979 0.0
C1665 C 0.91925 0.72843 0.67578 0.0
C1666 C 0.89947 0.71847 0.66615 0.0
C1667 C 0.89965 0.7228 0.65036 0.0
C1668 C 0.91911 0.73684 0.64439 0.0
H1669 H 0.97385 0.81185 0.66705 0.0
H1670 H 0.94753 0.78745 0.66498 0.0
H1671 H 0.96917 0.78966 0.67822 0.0
H1672 H 0.95374 0.74974 0.6774 0.0
H1673 H 0.91977 0.72538 0.68795 0.0
H1674 H 0.18275 0.25164 0.64023 0.0
H1675 H 0.21299 0.2449 0.64523 0.0
H1676 H 0.18387 0.19177 0.60852 0.0
H1677 H 0.1535 0.1985 0.60354 0.0
H1678 H 0.2021 0.20065 0.65336 0.0
H1679 H 0.25153 0.22748 0.60284 0.0
H1680 H 0.23521 0.23901 0.60879 0.0
H1681 H 0.22239 0.21209 0.59889 0.0
C1682 C 0.18321 0.23897 0.63293 0.0
C1683 C 0.16611 0.22569 0.62143 0.0
C1684 C 0.20039 0.2351 0.63581 0.0
C1685 C 0.2007 0.21795 0.62716 0.0
C1686 C 0.18406 0.20529 0.61514 0.0
H1687 H 0.2855 0.16313 0.64044 0.0
H1688 H 0.2587 0.17216 0.62978 0.0
C1689 C 0.16679 0.20912 0.6123 0.0
C1690 C 0.21686 0.21169 0.63213 0.0
H1691 H 0.26205 0.21106 0.62194 0.0
C1692 C 0.21523 0.20293 0.64651 0.0
C1693 C 0.2337 0.2144 0.62302 0.0
C1694 C 0.23603 0.22384 0.60753 0.0
C1695 C 0.2301 0.19689 0.65212 0.0
C1696 C 0.24745 0.20028 0.6433 0.0
C1697 C 0.24883 0.20863 0.62873 0.0
C1698 C 0.26451 0.19565 0.64928 0.0
C1699 C 0.22686 0.18662 0.66734 0.0
C1700 C 0.27701 0.20623 0.66358 0.0
C1701 C 0.29216 0.201 0.66977 0.0
C1702 C 0.29536 0.18527 0.66165 0.0
C1703 C 0.28338 0.17525 0.64703 0.0
C1704 C 0.26808 0.18041 0.64089 0.0
H1705 H 0.20975 0.1793 0.6701 0.0
H1706 H 0.2314 0.17381 0.66698 0.0
H1707 H 0.23724 0.1993 0.67703 0.0
H1708 H 0.27489 0.21843 0.67007 0.0
H1709 H 0.30129 0.20924 0.68095 0.0
H1710 H 0.74973 0.93447 0.64757 0.0
H1711 H 0.75605 0.97166 0.65168 0.0
H1712 H 0.81693 0.99587 0.63162 0.0
H1713 H 0.81046 0.95865 0.62738 0.0
H1714 H 0.79122 0.0033 0.67111 0.0
H1715 H 0.7915 0.03048 0.61191 0.0
H1716 H 0.77949 0.00213 0.61519 0.0
H1717 H 0.80838 0.01867 0.61497 0.0
C1718 C 0.7641 0.94773 0.64362 0.0
C1719 C 0.77955 0.94395 0.63705 0.0
C1720 C 0.76773 0.9689 0.646 0.0
C1721 C 0.78684 0.98649 0.64181 0.0
C1722 C 0.80186 0.9825 0.63462 0.0
H1723 H 0.85949 0.11837 0.68382 0.0
H1724 H 0.84569 0.08054 0.67349 0.0
C1725 C 0.79822 0.96132 0.63225 0.0
C1726 C 0.79239 0.00908 0.64676 0.0
H1727 H 0.80725 0.05837 0.63348 0.0
C1728 C 0.79448 0.01527 0.66286 0.0
C1729 C 0.79655 0.02464 0.63598 0.0
C1730 C 0.79368 0.01864 0.61853 0.0
C1731 C 0.80128 0.03677 0.66851 0.0
C1732 C 0.80633 0.05251 0.65779 0.0
C1733 C 0.80356 0.04624 0.64165 0.0
C1734 C 0.81497 0.07565 0.66327 0.0
C1735 C 0.80318 0.04255 0.68593 0.0
C1736 C 0.80236 0.08543 0.66068 0.0
C1737 C 0.81015 0.10699 0.66665 0.0
C1738 C 0.83075 0.11909 0.67513 0.0
C1739 C 0.84352 0.10938 0.67739 0.0
C1740 C 0.83568 0.08781 0.67151 0.0
H1741 H 0.7943 0.02789 0.69224 0.0
H1742 H 0.82054 0.05106 0.69063 0.0
H1743 H 0.79681 0.05368 0.68845 0.0
H1744 H 0.78633 0.07625 0.65435 0.0
H1745 H 0.79995 0.11408 0.6648 0.0
H1746 H 0.52979 0.38506 0.73872 0.0
H1747 H 0.50112 0.34689 0.73212 0.0
H1748 H 0.46045 0.36788 0.70901 0.0
H1749 H 0.48914 0.406 0.71554 0.0
H1750 H 0.45455 0.32216 0.73691 0.0
H1751 H 0.47093 0.33111 0.67451 0.0
H1752 H 0.48944 0.35045 0.69037 0.0
H1753 H 0.46526 0.35076 0.68378 0.0
C1754 C 0.51448 0.38143 0.73259 0.0
C1755 C 0.51144 0.39821 0.72766 0.0
C1756 C 0.49818 0.35971 0.72881 0.0
C1757 C 0.4788 0.35461 0.71993 0.0
C1758 C 0.47537 0.37151 0.71574 0.0
H1759 H 0.3633 0.22855 0.69252 0.0
H1760 H 0.38922 0.26566 0.70403 0.0
C1761 C 0.49165 0.3932 0.71955 0.0
C1762 C 0.46302 0.33177 0.71391 0.0
H1763 H 0.44185 0.29756 0.68009 0.0
C1764 C 0.45171 0.31673 0.7245 0.0
C1765 C 0.45965 0.32473 0.69773 0.0
C1766 C 0.47206 0.34 0.6859 0.0
C1767 C 0.4368 0.29483 0.71927 0.0
C1768 C 0.4331 0.28794 0.70305 0.0
C1769 C 0.44464 0.30293 0.69251 0.0
C1770 C 0.41746 0.26519 0.69668 0.0
C1771 C 0.42541 0.27916 0.73114 0.0
C1772 C 0.42471 0.25277 0.6885 0.0
C1773 C 0.40994 0.2316 0.6819 0.0
C1774 C 0.38767 0.22257 0.68328 0.0
C1775 C 0.38042 0.23506 0.69141 0.0
C1776 C 0.3952 0.2562 0.69805 0.0
H1777 H 0.43366 0.28575 0.74318 0.0
H1778 H 0.40856 0.27606 0.73111 0.0
H1779 H 0.42455 0.26336 0.72815 0.0
H1780 H 0.44182 0.25948 0.68723 0.0
H1781 H 0.41595 0.22233 0.6757 0.0
H1782 H 0.60415 0.07572 0.72024 0.0
H1783 H 0.64162 0.08785 0.71473 0.0
H1784 H 0.66496 0.14201 0.75021 0.0
H1785 H 0.62731 0.12987 0.75571 0.0
H1786 H 0.67202 0.14148 0.70948 0.0
H1787 H 0.70113 0.1031 0.75199 0.0
H1788 H 0.67304 0.08923 0.7439 0.0
H1789 H 0.68336 0.11311 0.75741 0.0
C1790 C 0.61736 0.08987 0.72713 0.0
C1791 C 0.61309 0.10179 0.73849 0.0
C1792 C 0.63867 0.0968 0.72395 0.0
C1793 C 0.65596 0.11574 0.73212 0.0
C1794 C 0.65177 0.12726 0.74389 0.0
H1795 H 0.79381 0.1735 0.71919 0.0
H1796 H 0.75951 0.16316 0.73015 0.0
C1797 C 0.63038 0.12032 0.74706 0.0
C1798 C 0.67802 0.12445 0.72718 0.0
H1799 H 0.72452 0.12224 0.73319 0.0
C1800 C 0.6836 0.13743 0.7147 0.0
C1801 C 0.69301 0.11922 0.73414 0.0
C1802 C 0.68753 0.10541 0.74763 0.0
C1803 C 0.70377 0.14507 0.70878 0.0
C1804 C 0.71852 0.13914 0.71531 0.0
C1805 C 0.71314 0.12664 0.72812 0.0
C1806 C 0.73933 0.14527 0.7087 0.0
C1807 C 0.70911 0.15951 0.69563 0.0
C1808 C 0.73937 0.13838 0.69307 0.0
C1809 C 0.75892 0.14433 0.68674 0.0
C1810 C 0.77887 0.15714 0.69596 0.0
C1811 C 0.77877 0.16371 0.71171 0.0
C1812 C 0.75917 0.15778 0.71803 0.0
H1813 H 0.69927 0.16763 0.69517 0.0
H1814 H 0.72657 0.17219 0.6969 0.0
H1815 H 0.70546 0.14948 0.6843 0.0
H1816 H 0.72424 0.12829 0.68576 0.0
H1817 H 0.75835 0.13881 0.67461 0.0
H1818 H 0.93294 0.5325 0.71744 0.0
H1819 H 0.9256 0.56224 0.71382 0.0
H1820 H 0.86393 0.52575 0.73237 0.0
H1821 H 0.87141 0.49613 0.73612 0.0
H1822 H 0.89034 0.55487 0.69371 0.0
H1823 H 0.88658 0.58785 0.7528 0.0
H1824 H 0.89987 0.57218 0.74971 0.0
H1825 H 0.87082 0.55872 0.74931 0.0
C1826 C 0.91818 0.53125 0.72122 0.0
C1827 C 0.90279 0.51233 0.72718 0.0
C1828 C 0.91397 0.54814 0.71911 0.0
C1829 C 0.89432 0.5463 0.72297 0.0
C1830 C 0.87938 0.52773 0.72964 0.0
H1831 H 0.81962 0.59731 0.68037 0.0
H1832 H 0.83354 0.57529 0.69163 0.0
C1833 C 0.88361 0.51082 0.73174 0.0
C1834 C 0.88813 0.56219 0.71798 0.0
H1835 H 0.87128 0.59704 0.73101 0.0
C1836 C 0.88642 0.56427 0.7019 0.0
C1837 C 0.88303 0.57443 0.72868 0.0
C1838 C 0.88534 0.57338 0.74611 0.0
C1839 C 0.87917 0.5778 0.69617 0.0
C1840 C 0.87333 0.58942 0.70679 0.0
C1841 C 0.87562 0.58791 0.72292 0.0
C1842 C 0.86442 0.60286 0.70114 0.0
C1843 C 0.87759 0.57945 0.67876 0.0
C1844 C 0.87711 0.62561 0.70302 0.0
C1845 C 0.86927 0.63821 0.6965 0.0
C1846 C 0.84856 0.6282 0.68816 0.0
C1847 C 0.83567 0.60543 0.68669 0.0
C1848 C 0.84356 0.59286 0.69312 0.0
H1849 H 0.88643 0.57269 0.67248 0.0
H1850 H 0.86027 0.57024 0.67393 0.0
H1851 H 0.88421 0.59666 0.67637 0.0
H1852 H 0.89329 0.63356 0.70915 0.0
H1853 H 0.87958 0.65573 0.69771 0.0
H1854 H 0.41338 0.89573 0.22455 0.0
H1855 H 0.42417 0.90763 0.19878 0.0
H1856 H 0.49049 0.94837 0.2188 0.0
H1857 H 0.47984 0.93682 0.24465 0.0
H1858 H 0.44411 0.95063 0.19039 0.0
H1859 H 0.49554 0.91369 0.1809 0.0
H1860 H 0.47653 0.90562 0.19552 0.0
H1861 H 0.50238 0.93025 0.19922 0.0
C1862 C 0.43027 0.90727 0.2235 0.0
C1863 C 0.44575 0.9153 0.2367 0.0
C1864 C 0.43641 0.91396 0.20874 0.0
C1865 C 0.45816 0.92866 0.20683 0.0
C1866 C 0.47368 0.93666 0.21994 0.0
H1867 H 0.53022 0.99607 0.13139 0.0
H1868 H 0.51781 0.98102 0.15605 0.0
C1869 C 0.46756 0.93001 0.23471 0.0
C1870 C 0.46447 0.93632 0.19127 0.0
H1871 H 0.49697 0.93846 0.16301 0.0
C1872 C 0.45554 0.94785 0.18433 0.0
C1873 C 0.47943 0.9327 0.18343 0.0
C1874 C 0.48891 0.91973 0.19005 0.0
C1875 C 0.4616 0.95636 0.16994 0.0
C1876 C 0.47666 0.95285 0.16213 0.0
C1877 C 0.48543 0.94114 0.16901 0.0
C1878 C 0.48397 0.96169 0.147 0.0
C1879 C 0.45234 0.96963 0.1635 0.0
C1880 C 0.46912 0.9556 0.13364 0.0
C1881 C 0.47614 0.96437 0.11953 0.0
C1882 C 0.4982 0.97931 0.11849 0.0
C1883 C 0.51307 0.98497 0.13184 0.0
C1884 C 0.50603 0.97623 0.14592 0.0
H1885 H 0.44559 0.97546 0.17269 0.0
H1886 H 0.46488 0.98392 0.15829 0.0
H1887 H 0.43898 0.9594 0.15418 0.0
H1888 H 0.45208 0.94406 0.13411 0.0
H1889 H 0.46421 0.95972 0.10953 0.0
H1890 H 0.1162 0.53263 0.24587 0.0
H1891 H 0.10558 0.53123 0.218 0.0
H1892 H 0.05293 0.54085 0.22989 0.0
H1893 H 0.06329 0.54201 0.25779 0.0
H1894 H 0.04184 0.50484 0.20613 0.0
H1895 H 0.11212 0.58323 0.1938 0.0
H1896 H 0.11859 0.56546 0.20392 0.0
H1897 H 0.10458 0.57726 0.21338 0.0
C1898 C 0.10236 0.53445 0.24254 0.0
C1899 C 0.09058 0.53744 0.25401 0.0
C1900 C 0.09643 0.53381 0.22664 0.0
C1901 C 0.0786 0.53612 0.22193 0.0
C1902 C 0.06682 0.53915 0.23332 0.0
H1903 H 0.03627 0.55557 0.13101 0.0
H1904 H 0.04818 0.5579 0.15865 0.0
C1905 C 0.07283 0.53994 0.24924 0.0
C1906 C 0.07183 0.5347 0.20509 0.0
H1907 H 0.08775 0.5605 0.17203 0.0
C1908 C 0.05184 0.51699 0.19865 0.0
C1909 C 0.08489 0.55068 0.19545 0.0
C1910 C 0.10619 0.57036 0.20194 0.0
C1911 C 0.04464 0.51471 0.18272 0.0
C1912 C 0.05787 0.5305 0.17302 0.0
C1913 C 0.07775 0.54834 0.1795 0.0
C1914 C 0.05105 0.52909 0.15618 0.0
C1915 C 0.0228 0.49564 0.17643 0.0
C1916 C 0.04898 0.51225 0.14561 0.0
C1917 C 0.04237 0.51097 0.12974 0.0
C1918 C 0.03774 0.52655 0.12416 0.0
C1919 C 0.04001 0.54349 0.13483 0.0
C1920 C 0.0467 0.54479 0.15066 0.0
H1921 H 0.01281 0.48745 0.18598 0.0
H1922 H 0.0137 0.50094 0.16866 0.0
H1923 H 0.02519 0.48358 0.1694 0.0
H1924 H 0.0526 0.50016 0.14963 0.0
H1925 H 0.04112 0.49791 0.12182 0.0
H1926 H 0.46057 0.51609 0.24326 0.0
H1927 H 0.46386 0.50937 0.2155 0.0
H1928 H 0.46595 0.56915 0.20631 0.0
H1929 H 0.46229 0.57583 0.23391 0.0
H1930 H 0.43855 0.51031 0.18507 0.0
H1931 H 0.52591 0.57383 0.19564 0.0
H1932 H 0.51009 0.56028 0.21129 0.0
H1933 H 0.50685 0.581 0.20273 0.0
C1934 C 0.46113 0.5275 0.23526 0.0
C1935 C 0.46142 0.54663 0.24083 0.0
C1936 C 0.46311 0.52368 0.21942 0.0
C1937 C 0.46542 0.53891 0.20895 0.0
C1938 C 0.46441 0.55733 0.21427 0.0
H1939 H 0.50785 0.56473 0.11662 0.0
H1940 H 0.49569 0.56526 0.14256 0.0
C1941 C 0.46239 0.56114 0.23005 0.0
C1942 C 0.47074 0.53663 0.1928 0.0
H1943 H 0.51209 0.55892 0.16954 0.0
C1944 C 0.45462 0.52083 0.18163 0.0
C1945 C 0.49172 0.55042 0.18842 0.0
C1946 C 0.50976 0.56727 0.20012 0.0
C1947 C 0.45883 0.51884 0.166 0.0
C1948 C 0.47985 0.53273 0.16159 0.0
C1949 C 0.49597 0.54834 0.17288 0.0
C1950 C 0.48561 0.53165 0.14535 0.0
C1951 C 0.44059 0.50234 0.15428 0.0
C1952 C 0.48395 0.51255 0.13822 0.0
C1953 C 0.49084 0.5122 0.12335 0.0
C1954 C 0.49982 0.53103 0.1154 0.0
C1955 C 0.50124 0.55003 0.1225 0.0
C1956 C 0.49421 0.55033 0.1373 0.0
H1957 H 0.42446 0.4974 0.15838 0.0
H1958 H 0.44131 0.50881 0.14275 0.0
H1959 H 0.44204 0.48757 0.15261 0.0
H1960 H 0.47789 0.49809 0.14434 0.0
H1961 H 0.48981 0.49739 0.11829 0.0
H1962 H 0.94898 0.4517 0.77717 0.0
H1963 H 0.96074 0.46225 0.80511 0.0
H1964 H 0.91933 0.49004 0.80817 0.0
H1965 H 0.90694 0.47892 0.78018 0.0
H1966 H 0.98072 0.50325 0.82253 0.0
H1967 H 0.8998 0.4468 0.8416 0.0
H1968 H 0.90623 0.44474 0.82181 0.0
H1969 H 0.90067 0.46571 0.8283 0.0
C1970 C 0.94227 0.45995 0.78379 0.0
C1971 C 0.9268 0.46421 0.77651 0.0
C1972 C 0.94913 0.46611 0.79973 0.0
C1973 C 0.94067 0.47663 0.80875 0.0
C1974 C 0.92579 0.48161 0.80145 0.0
H1975 H 0.96382 0.5037 0.91153 0.0
H1976 H 0.95236 0.50405 0.88413 0.0
C1977 C 0.91889 0.47544 0.78545 0.0
C1978 C 0.94721 0.48175 0.82585 0.0
H1979 H 0.92848 0.46703 0.86136 0.0
C1980 C 0.96927 0.49552 0.83104 0.0
C1981 C 0.93221 0.47169 0.83692 0.0
C1982 C 0.90842 0.45628 0.83195 0.0
C1983 C 0.97683 0.49902 0.84698 0.0
C1984 C 0.96198 0.48824 0.85796 0.0
C1985 C 0.9398 0.47524 0.85288 0.0
C1986 C 0.96937 0.48876 0.87453 0.0
C1987 C 1.0007 0.514 0.85192 0.0
C1988 C 0.98244 0.47975 0.87816 0.0
C1989 C 0.9888 0.47929 0.89374 0.0
C1990 C 0.98221 0.48783 0.90606 0.0
C1991 C 0.96904 0.49682 0.90236 0.0
C1992 C 0.96258 0.49717 0.88672 0.0
H1993 H 0.00865 0.52561 0.84313 0.0
H1994 H 0.00332 0.52334 0.86343 0.0
H1995 H 0.00874 0.50417 0.85307 0.0
H1996 H 0.9874 0.47269 0.86893 0.0
H1997 H 0.99849 0.47177 0.89612 0.0
H1998 H 0.59453 0.48323 0.79467 0.0
H1999 H 0.58393 0.48483 0.82106 0.0
H2000 H 0.51861 0.46345 0.80162 0.0
H2001 H 0.52911 0.46229 0.77517 0.0
H2002 H 0.56518 0.51011 0.83277 0.0
H2003 H 0.51142 0.42139 0.83537 0.0
H2004 H 0.53123 0.43223 0.82139 0.0
H2005 H 0.50602 0.432 0.81827 0.0
C2006 C 0.57793 0.47898 0.79597 0.0
C2007 C 0.56268 0.47261 0.78274 0.0
C2008 C 0.57188 0.47979 0.81108 0.0
C2009 C 0.55044 0.47402 0.8133 0.0
C2010 C 0.53515 0.46759 0.80018 0.0
H2011 H 0.47889 0.46788 0.89236 0.0
H2012 H 0.4911 0.46603 0.86668 0.0
C2013 C 0.54119 0.46688 0.78506 0.0
C2014 C 0.54419 0.47538 0.8293 0.0
H2015 H 0.5113 0.44485 0.85602 0.0
C2016 C 0.55351 0.49585 0.83793 0.0
C2017 C 0.5289 0.45675 0.83593 0.0
C2018 C 0.5189 0.4343 0.82736 0.0
C2019 C 0.54752 0.49828 0.85287 0.0
C2020 C 0.5322 0.47963 0.85953 0.0
C2021 C 0.52304 0.45913 0.85093 0.0
C2022 C 0.52506 0.48104 0.87525 0.0
C2023 C 0.55715 0.52087 0.86116 0.0
C2024 C 0.54004 0.48989 0.88869 0.0
C2025 C 0.53314 0.49127 0.90341 0.0
C2026 C 0.51106 0.4836 0.90503 0.0
C2027 C 0.49607 0.47437 0.89155 0.0
C2028 C 0.503 0.47311 0.87685 0.0
H2029 H 0.56376 0.53352 0.85286 0.0
H2030 H 0.54489 0.52267 0.86742 0.0
H2031 H 0.5707 0.52394 0.86989 0.0
H2032 H 0.55709 0.49569 0.88781 0.0
H2033 H 0.54518 0.49859 0.91348 0.0
H2034 H 0.5504 0.06074 0.78655 0.0
H2035 H 0.54697 0.05045 0.81343 0.0
H2036 H 0.54669 0.109 0.82877 0.0
H2037 H 0.5499 0.11925 0.80195 0.0
H2038 H 0.57069 0.07046 0.84304 0.0
H2039 H 0.48828 0.06048 0.8399 0.0
H2040 H 0.50273 0.06354 0.82284 0.0
H2041 H 0.50923 0.08692 0.83607 0.0
C2042 C 0.55008 0.07163 0.79573 0.0
C2043 C 0.55016 0.09067 0.79213 0.0
C2044 C 0.54803 0.0657 0.81106 0.0
C2045 C 0.54606 0.07872 0.82301 0.0
C2046 C 0.54764 0.09846 0.81964 0.0
H2047 H 0.51224 0.06067 0.91866 0.0
H2048 H 0.52481 0.07567 0.89396 0.0
C2049 C 0.54955 0.10432 0.80434 0.0
C2050 C 0.541 0.07105 0.83874 0.0
H2051 H 0.50237 0.0567 0.86434 0.0
C2052 C 0.55576 0.06742 0.84772 0.0
C2053 C 0.52143 0.06699 0.84477 0.0
C2054 C 0.50439 0.06947 0.83536 0.0
C2055 C 0.55164 0.0602 0.86269 0.0
C2056 C 0.53212 0.05624 0.86872 0.0
C2057 C 0.51739 0.05989 0.85974 0.0
C2058 C 0.52627 0.04782 0.88415 0.0
C2059 C 0.56834 0.0572 0.87205 0.0
C2060 C 0.52291 0.02719 0.88684 0.0
C2061 C 0.51576 0.01859 0.90096 0.0
C2062 C 0.51174 0.03043 0.91266 0.0
C2063 C 0.51543 0.05124 0.91 0.0
C2064 C 0.52252 0.05979 0.89586 0.0
H2065 H 0.58455 0.06616 0.86764 0.0
H2066 H 0.56984 0.06279 0.88463 0.0
H2067 H 0.56323 0.03967 0.87109 0.0
H2068 H 0.52532 0.0175 0.87787 0.0
H2069 H 0.51327 0.0026 0.90268 0.0
H2070 H 0.1262 0.22694 0.56575 0.0
H2071 H 0.13743 0.24012 0.54024 0.0
H2072 H 0.11633 0.28674 0.54789 0.0
H2073 H 0.10528 0.27385 0.57339 0.0
H2074 H 0.10941 0.24237 0.51426 0.0
H2075 H 0.18064 0.32257 0.53684 0.0
H2076 H 0.16894 0.29995 0.54859 0.0
H2077 H 0.15584 0.31553 0.54535 0.0
C2078 C 0.12414 0.24013 0.56204 0.0
C2079 C 0.11487 0.24937 0.57158 0.0
C2080 C 0.13044 0.24754 0.54746 0.0
C2081 C 0.12786 0.2645 0.54227 0.0
C2082 C 0.11865 0.27377 0.55176 0.0
H2083 H 0.15746 0.3384 0.46203 0.0
H2084 H 0.14628 0.32309 0.48685 0.0
C2085 C 0.1122 0.26628 0.56626 0.0
C2086 C 0.13444 0.27237 0.52682 0.0
H2087 H 0.16985 0.31685 0.50961 0.0
C2088 C 0.12271 0.25859 0.51319 0.0
C2089 C 0.15171 0.29356 0.52553 0.0
C2090 C 0.16517 0.30877 0.53983 0.0
C2091 C 0.12744 0.26567 0.49824 0.0
C2092 C 0.14472 0.28693 0.49693 0.0
C2093 C 0.15659 0.30059 0.51061 0.0
C2094 C 0.15066 0.29554 0.48153 0.0
C2095 C 0.11343 0.25058 0.48405 0.0
C2096 C 0.15687 0.28518 0.47026 0.0
C2097 C 0.16317 0.29385 0.45602 0.0
C2098 C 0.16368 0.31324 0.45287 0.0
C2099 C 0.15742 0.32356 0.46417 0.0
C2100 C 0.15099 0.31479 0.47834 0.0
H2101 H 0.09751 0.23765 0.48716 0.0
H2102 H 0.11048 0.25963 0.47505 0.0
H2103 H 0.1218 0.24253 0.47881 0.0
H2104 H 0.15729 0.27061 0.4726 0.0
H2105 H 0.16821 0.28572 0.44765 0.0
H2106 H 0.77458 0.85627 0.57604 0.0
H2107 H 0.76259 0.85461 0.54851 0.0
H2108 H 0.7211 0.87926 0.56211 0.0
H2109 H 0.73273 0.88067 0.58976 0.0
H2110 H 0.7189 0.83057 0.53401 0.0
H2111 H 0.7567 0.91931 0.52915 0.0
H2112 H 0.76487 0.90847 0.54496 0.0
H2113 H 0.74023 0.90944 0.54508 0.0
C2114 C 0.7628 0.86123 0.57321 0.0
C2115 C 0.75456 0.86854 0.58512 0.0
C2116 C 0.75608 0.86038 0.55746 0.0
C2117 C 0.74114 0.867 0.55329 0.0
C2118 C 0.73294 0.87443 0.5651 0.0
H2119 H 0.68032 0.87247 0.46478 0.0
H2120 H 0.6926 0.87473 0.4923 0.0
C2121 C 0.73962 0.87524 0.58088 0.0
C2122 C 0.73366 0.86542 0.53657 0.0
H2123 H 0.73369 0.89568 0.50721 0.0
C2124 C 0.72217 0.84479 0.52811 0.0
C2125 C 0.73792 0.88401 0.52897 0.0
C2126 C 0.75075 0.90661 0.53743 0.0
C2127 C 0.71449 0.84218 0.51226 0.0
C2128 C 0.71889 0.8608 0.5046 0.0
C2129 C 0.73038 0.88144 0.51309 0.0
C2130 C 0.71145 0.8592 0.48783 0.0
C2131 C 0.70128 0.81949 0.504 0.0
C2132 C 0.71818 0.84993 0.47614 0.0
C2133 C 0.71093 0.84833 0.46037 0.0
C2134 C 0.69698 0.85617 0.45598 0.0
C2135 C 0.69066 0.86584 0.46774 0.0
C2136 C 0.69782 0.86733 0.48348 0.0
H2137 H 0.69438 0.80708 0.51244 0.0
H2138 H 0.68777 0.81794 0.4959 0.0
H2139 H 0.71187 0.81583 0.49703 0.0
H2140 H 0.72907 0.84397 0.4792 0.0
H2141 H 0.71605 0.84071 0.45165 0.0
H2142 H 0.12657 0.85312 0.57797 0.0
H2143 H 0.12982 0.84611 0.55026 0.0
H2144 H 0.1355 0.90749 0.54118 0.0
H2145 H 0.13194 0.91449 0.56874 0.0
H2146 H 0.10608 0.84741 0.52017 0.0
H2147 H 0.19369 0.9101 0.53016 0.0
H2148 H 0.17768 0.89763 0.54599 0.0
H2149 H 0.17519 0.91835 0.53676 0.0
C2150 C 0.12794 0.86487 0.57 0.0
C2151 C 0.12925 0.88449 0.5756 0.0
C2152 C 0.1299 0.86088 0.55419 0.0
C2153 C 0.13322 0.87644 0.54376 0.0
C2154 C 0.13323 0.89541 0.54911 0.0
H2155 H 0.17446 0.89967 0.45096 0.0
H2156 H 0.16256 0.90087 0.47691 0.0
C2157 C 0.13126 0.8994 0.56486 0.0
C2158 C 0.13837 0.87376 0.52762 0.0
H2159 H 0.17949 0.89514 0.50409 0.0
C2160 C 0.12212 0.85775 0.51662 0.0
C2161 C 0.15934 0.88726 0.52309 0.0
C2162 C 0.17759 0.90421 0.53461 0.0
C2163 C 0.12616 0.85531 0.50101 0.0
C2164 C 0.14713 0.86896 0.49644 0.0
C2165 C 0.1634 0.88476 0.50756 0.0
C2166 C 0.15271 0.86744 0.4802 0.0
C2167 C 0.10781 0.83858 0.48946 0.0
C2168 C 0.15108 0.84822 0.47336 0.0
C2169 C 0.15785 0.84749 0.45849 0.0
C2170 C 0.16665 0.86606 0.45026 0.0
C2171 C 0.168 0.88517 0.45706 0.0
C2172 C 0.16112 0.88585 0.47186 0.0
H2173 H 0.09173 0.83373 0.49364 0.0
H2174 H 0.10838 0.84481 0.47785 0.0
H2175 H 0.10928 0.82381 0.48793 0.0
H2176 H 0.14514 0.83396 0.4797 0.0
H2177 H 0.15687 0.83261 0.45365 0.0
H2178 H 0.6159 0.7872 0.11107 0.0
H2179 H 0.6265 0.79778 0.13916 0.0
H2180 H 0.58079 0.82047 0.14131 0.0
H2181 H 0.56989 0.80967 0.11306 0.0
H2182 H 0.64218 0.8409 0.15688 0.0
H2183 H 0.56463 0.77395 0.17403 0.0
H2184 H 0.57322 0.77314 0.15478 0.0
H2185 H 0.56328 0.7911 0.15995 0.0
C2186 C 0.60807 0.79441 0.11752 0.0
C2187 C 0.59188 0.79738 0.10992 0.0
C2188 C 0.61424 0.80058 0.13352 0.0
C2189 C 0.60428 0.8097 0.14229 0.0
C2190 C 0.58852 0.81327 0.13472 0.0
H2191 H 0.61964 0.82483 0.24532 0.0
H2192 H 0.60833 0.82695 0.21829 0.0
C2193 C 0.58241 0.80722 0.11862 0.0
C2194 C 0.61011 0.81468 0.15944 0.0
H2195 H 0.59239 0.79493 0.19415 0.0
C2196 C 0.63122 0.83108 0.16508 0.0
C2197 C 0.59571 0.80192 0.17007 0.0
C2198 C 0.57294 0.78394 0.16451 0.0
C2199 C 0.63856 0.8346 0.18108 0.0
C2200 C 0.62458 0.82098 0.19161 0.0
C2201 C 0.60312 0.80529 0.18605 0.0
C2202 C 0.63238 0.82144 0.2081 0.0
C2203 C 0.66132 0.85272 0.18649 0.0
C2204 C 0.64959 0.81756 0.21134 0.0
C2205 C 0.65616 0.81649 0.22672 0.0
C2206 C 0.6455 0.81901 0.23923 0.0
C2207 C 0.62836 0.82307 0.23599 0.0
C2208 C 0.62181 0.82418 0.22055 0.0
H2209 H 0.66688 0.86587 0.17857 0.0
H2210 H 0.66243 0.85984 0.19859 0.0
H2211 H 0.67255 0.84621 0.18633 0.0
H2212 H 0.65767 0.81488 0.20191 0.0
H2213 H 0.66957 0.81359 0.2288 0.0
H2214 H 0.19358 0.7941 0.10984 0.0
H2215 H 0.1829 0.7952 0.13627 0.0
H2216 H 0.24938 0.8225 0.1556 0.0
H2217 H 0.26019 0.82109 0.12928 0.0
H2218 H 0.18953 0.77558 0.1631 0.0
H2219 H 0.23092 0.86572 0.17337 0.0
H2220 H 0.22514 0.85149 0.15404 0.0
H2221 H 0.24747 0.85485 0.16704 0.0
C2222 C 0.20592 0.80012 0.11971 0.0
C2223 C 0.22778 0.80762 0.1174 0.0
C2224 C 0.19979 0.80085 0.1348 0.0
C2225 C 0.2154 0.80923 0.14785 0.0
C2226 C 0.23715 0.81637 0.14565 0.0
H2227 H 0.20954 0.8333 0.24753 0.0
H2228 H 0.22111 0.83022 0.22172 0.0
C2229 C 0.24329 0.81559 0.13058 0.0
C2230 C 0.2089 0.81039 0.1638 0.0
H2231 H 0.2151 0.84602 0.19473 0.0
C2232 C 0.19506 0.79096 0.17002 0.0
C2233 C 0.21625 0.83049 0.1728 0.0
C2234 C 0.23063 0.85187 0.16648 0.0
C2235 C 0.18856 0.79106 0.18513 0.0
C2236 C 0.1957 0.81119 0.19409 0.0
C2237 C 0.20965 0.83061 0.18787 0.0
C2238 C 0.18859 0.81248 0.20982 0.0
C2239 C 0.17447 0.76961 0.19146 0.0
C2240 C 0.16648 0.80371 0.2117 0.0
C2241 C 0.1598 0.80523 0.22645 0.0
C2242 C 0.17511 0.81581 0.23965 0.0
C2243 C 0.19728 0.82475 0.23769 0.0
C2244 C 0.20394 0.82315 0.22292 0.0
H2245 H 0.17581 0.75624 0.1853 0.0
H2246 H 0.17887 0.77047 0.2042 0.0
H2247 H 0.15726 0.76543 0.18967 0.0
H2248 H 0.15435 0.79582 0.20172 0.0
H2249 H 0.14259 0.79797 0.22752 0.0
H2250 H 0.21114 0.45092 0.13484 0.0
H2251 H 0.20794 0.44028 0.16152 0.0
H2252 H 0.21789 0.38722 0.14706 0.0
H2253 H 0.22077 0.39753 0.12021 0.0
H2254 H 0.17461 0.39724 0.16765 0.0
H2255 H 0.25769 0.41602 0.18938 0.0
H2256 H 0.25269 0.42896 0.17345 0.0
H2257 H 0.24693 0.40141 0.17021 0.0
C2258 C 0.21288 0.43711 0.13736 0.0
C2259 C 0.21602 0.42495 0.12536 0.0
C2260 C 0.21115 0.43113 0.15262 0.0
C2261 C 0.21276 0.41303 0.15627 0.0
C2262 C 0.21692 0.40144 0.14453 0.0
H2263 H 0.18907 0.34444 0.2402 0.0
H2264 H 0.20001 0.35785 0.21475 0.0
C2265 C 0.21859 0.40738 0.1292 0.0
C2266 C 0.20784 0.40508 0.17191 0.0
H2267 H 0.22985 0.39772 0.20576 0.0
C2268 C 0.1867 0.39741 0.17601 0.0
C2269 C 0.22357 0.40507 0.18267 0.0
C2270 C 0.24657 0.41342 0.17883 0.0
C2271 C 0.18079 0.38963 0.19059 0.0
C2272 C 0.19665 0.3901 0.20157 0.0
C2273 C 0.21776 0.39751 0.19738 0.0
C2274 C 0.19151 0.383 0.21745 0.0
C2275 C 0.15748 0.38053 0.19394 0.0
C2276 C 0.18368 0.39306 0.22759 0.0
C2277 C 0.17731 0.38536 0.24206 0.0
C2278 C 0.17895 0.36763 0.24679 0.0
C2279 C 0.18769 0.35818 0.23691 0.0
C2280 C 0.1939 0.36579 0.22236 0.0
H2281 H 0.14638 0.37549 0.18297 0.0
H2282 H 0.15209 0.3663 0.2008 0.0
H2283 H 0.15592 0.39325 0.20085 0.0
H2284 H 0.18225 0.40675 0.22424 0.0
H2285 H 0.17103 0.39324 0.24955 0.0
H2286 H 0.74971 0.56327 0.89224 0.0
H2287 H 0.76048 0.57514 0.86647 0.0
H2288 H 0.82665 0.61656 0.8866 0.0
H2289 H 0.816 0.60505 0.91246 0.0
H2290 H 0.78003 0.61844 0.85841 0.0
H2291 H 0.83216 0.5824 0.84843 0.0
H2292 H 0.81304 0.57387 0.86298 0.0
H2293 H 0.83871 0.59867 0.86686 0.0
C2294 C 0.76656 0.57493 0.89121 0.0
C2295 C 0.78199 0.58321 0.90445 0.0
C2296 C 0.7727 0.5816 0.87645 0.0
C2297 C 0.79439 0.59653 0.87459 0.0
C2298 C 0.80989 0.60468 0.88772 0.0
H2299 H 0.86559 0.66483 0.7991 0.0
H2300 H 0.8535 0.6495 0.82372 0.0
C2301 C 0.80377 0.59806 0.9025 0.0
C2302 C 0.80061 0.60438 0.85906 0.0
H2303 H 0.83303 0.60702 0.83061 0.0
C2304 C 0.79149 0.61582 0.85226 0.0
C2305 C 0.81562 0.60099 0.85111 0.0
C2306 C 0.82534 0.58815 0.85762 0.0
C2307 C 0.7974 0.62447 0.8379 0.0
C2308 C 0.81248 0.62115 0.82995 0.0
C2309 C 0.82146 0.60953 0.83671 0.0
C2310 C 0.81961 0.63011 0.81483 0.0
C2311 C 0.78795 0.63767 0.83162 0.0
C2312 C 0.80462 0.62406 0.80156 0.0
C2313 C 0.81144 0.63301 0.78748 0.0
C2314 C 0.83345 0.64806 0.78636 0.0
C2315 C 0.84847 0.65365 0.79961 0.0
C2316 C 0.84162 0.64475 0.81367 0.0
H2317 H 0.78126 0.6434 0.84092 0.0
H2318 H 0.80036 0.65201 0.82638 0.0
H2319 H 0.77451 0.62741 0.82237 0.0
H2320 H 0.78761 0.61245 0.80209 0.0
H2321 H 0.79941 0.62841 0.77755 0.0
H2322 H 0.40065 0.16656 0.9164 0.0
H2323 H 0.39122 0.16599 0.88851 0.0
H2324 H 0.43035 0.23588 0.89198 0.0
H2325 H 0.44026 0.23663 0.9199 0.0
H2326 H 0.38767 0.21769 0.8755 0.0
H2327 H 0.43287 0.17835 0.85381 0.0
H2328 H 0.41484 0.16455 0.86822 0.0
H2329 H 0.43798 0.19116 0.87356 0.0
C2330 C 0.40749 0.18181 0.91122 0.0
C2331 C 0.42139 0.20164 0.92038 0.0
C2332 C 0.40203 0.18144 0.89529 0.0
C2333 C 0.41035 0.20086 0.88817 0.0
C2334 C 0.42385 0.22072 0.89728 0.0
H2335 H 0.40629 0.2139 0.78809 0.0
H2336 H 0.41759 0.21651 0.816 0.0
C2337 C 0.42939 0.22111 0.91324 0.0
C2338 C 0.40472 0.20038 0.87123 0.0
H2339 H 0.40922 0.18163 0.83496 0.0
C2340 C 0.39244 0.2099 0.86661 0.0
C2341 C 0.41117 0.19038 0.8597 0.0
C2342 C 0.42511 0.18068 0.864 0.0
C2343 C 0.38601 0.20925 0.85074 0.0
C2344 C 0.39188 0.19864 0.83924 0.0
C2345 C 0.40459 0.18957 0.84383 0.0
C2346 C 0.38499 0.19682 0.82236 0.0
C2347 C 0.37312 0.22003 0.84636 0.0
C2348 C 0.36295 0.18459 0.8167 0.0
C2349 C 0.35645 0.18305 0.80079 0.0
C2350 C 0.37189 0.19373 0.79025 0.0
C2351 C 0.394 0.20571 0.79595 0.0
C2352 C 0.40049 0.20714 0.81185 0.0
H2353 H 0.37421 0.23161 0.8561 0.0
H2354 H 0.37885 0.2289 0.83587 0.0
H2355 H 0.35579 0.2074 0.84351 0.0
H2356 H 0.35077 0.17626 0.8246 0.0
H2357 H 0.33929 0.17385 0.79679 0.0
H2358 H 0.80548 0.24656 0.89988 0.0
H2359 H 0.80775 0.23623 0.87284 0.0
H2360 H 0.78785 0.17106 0.88393 0.0
H2361 H 0.78646 0.18161 0.91133 0.0
H2362 H 0.82283 0.18667 0.86812 0.0
H2363 H 0.76236 0.20152 0.83698 0.0
H2364 H 0.78158 0.2251 0.84968 0.0
H2365 H 0.764 0.20025 0.8579 0.0
C2366 C 0.8015 0.22999 0.89659 0.0
C2367 C 0.79594 0.21496 0.90782 0.0
C2368 C 0.8025 0.22401 0.88103 0.0
C2369 C 0.79763 0.20276 0.87624 0.0
C2370 C 0.79152 0.18751 0.88732 0.0
H2371 H 0.80058 0.17228 0.77602 0.0
H2372 H 0.78809 0.17059 0.80209 0.0
C2373 C 0.79059 0.19352 0.90296 0.0
C2374 C 0.80076 0.19722 0.86001 0.0
H2375 H 0.78996 0.20204 0.82167 0.0
C2376 C 0.81536 0.18969 0.85795 0.0
C2377 C 0.79074 0.20073 0.84666 0.0
C2378 C 0.77362 0.20711 0.84791 0.0
C2379 C 0.8211 0.18676 0.84302 0.0
C2380 C 0.81246 0.19204 0.82983 0.0
C2381 C 0.79692 0.19836 0.83178 0.0
C2382 C 0.82008 0.19216 0.81408 0.0
C2383 C 0.83647 0.17813 0.84159 0.0
C2384 C 0.84219 0.20496 0.81209 0.0
C2385 C 0.84941 0.20573 0.79726 0.0
C2386 C 0.83466 0.19398 0.78397 0.0
C2387 C 0.81246 0.18127 0.78599 0.0
C2388 C 0.80526 0.18041 0.80088 0.0
H2389 H 0.83549 0.16801 0.85122 0.0
H2390 H 0.83298 0.16821 0.83021 0.0
H2391 H 0.85336 0.19199 0.84244 0.0
H2392 H 0.85389 0.21462 0.822 0.0
H2393 H 0.86663 0.2155 0.79624 0.0
H2394 H 0.28014 0.16172 0.44191 0.0
H2395 H 0.29118 0.17055 0.47014 0.0
H2396 H 0.24115 0.1063 0.47824 0.0
H2397 H 0.22942 0.0977 0.45022 0.0
H2398 H 0.24501 0.13746 0.50047 0.0
H2399 H 0.32571 0.14672 0.49209 0.0
H2400 H 0.31946 0.16455 0.48191 0.0
H2401 H 0.30386 0.13569 0.47652 0.0
C2402 C 0.27121 0.14963 0.44973 0.0
C2403 C 0.25411 0.12888 0.44378 0.0
C2404 C 0.2777 0.15462 0.46585 0.0
C2405 C 0.26732 0.1389 0.47625 0.0
C2406 C 0.24953 0.11862 0.47042 0.0
H2407 H 0.31239 0.11806 0.56398 0.0
H2408 H 0.30081 0.11891 0.5369 0.0
C2409 C 0.24297 0.11366 0.45437 0.0
C2410 C 0.27547 0.14294 0.49309 0.0
H2411 H 0.31871 0.15152 0.51797 0.0
C2412 C 0.26119 0.14072 0.50433 0.0
C2413 C 0.29651 0.14693 0.49807 0.0
C2414 C 0.31225 0.14844 0.48655 0.0
C2415 C 0.26718 0.14192 0.52038 0.0
C2416 C 0.2882 0.14586 0.52534 0.0
C2417 C 0.30265 0.1486 0.51413 0.0
C2418 C 0.29503 0.1456 0.54194 0.0
C2419 C 0.25064 0.13798 0.53181 0.0
C2420 C 0.29577 0.16042 0.5538 0.0
C2421 C 0.3021 0.15977 0.5694 0.0
C2422 C 0.30799 0.14439 0.5734 0.0
C2423 C 0.30754 0.12981 0.56141 0.0
C2424 C 0.30112 0.13041 0.54588 0.0
H2425 H 0.23392 0.1303 0.52581 0.0
H2426 H 0.25098 0.12738 0.54066 0.0
H2427 H 0.2545 0.15375 0.53805 0.0
H2428 H 0.29153 0.17255 0.55099 0.0
H2429 H 0.30215 0.17116 0.57833 0.0
H2430 H 0.90568 0.17373 0.45068 0.0
H2431 H 0.89534 0.17538 0.47717 0.0
H2432 H 0.87233 0.10695 0.47823 0.0
H2433 H 0.88282 0.10518 0.45173 0.0
H2434 H 0.85145 0.1484 0.48711 0.0
H2435 H 0.91523 0.13815 0.51928 0.0
H2436 H 0.91777 0.14716 0.4999 0.0
H2437 H 0.90004 0.11907 0.50243 0.0
C2438 C 0.89862 0.15907 0.45661 0.0
C2439 C 0.89517 0.13934 0.44914 0.0
C2440 C 0.89263 0.16002 0.4717 0.0
C2441 C 0.88329 0.14134 0.47969 0.0
C2442 C 0.87975 0.1216 0.4723 0.0
H2443 H 0.84131 0.11915 0.57335 0.0
H2444 H 0.85194 0.11618 0.54715 0.0
C2445 C 0.88559 0.12058 0.45714 0.0
C2446 C 0.8768 0.1425 0.49563 0.0
H2447 H 0.88925 0.13982 0.53412 0.0
C2448 C 0.85969 0.14655 0.49741 0.0
C2449 C 0.88752 0.13993 0.50899 0.0
C2450 C 0.90627 0.13597 0.50768 0.0
C2451 C 0.85285 0.14789 0.51221 0.0
C2452 C 0.86385 0.14576 0.52566 0.0
C2453 C 0.88087 0.14154 0.52383 0.0
C2454 C 0.85794 0.14787 0.54172 0.0
C2455 C 0.83356 0.15108 0.51322 0.0
C2456 C 0.85824 0.16685 0.54755 0.0
C2457 C 0.85204 0.16853 0.56247 0.0
C2458 C 0.84578 0.15139 0.57199 0.0
C2459 C 0.84617 0.13267 0.56634 0.0
C2460 C 0.85217 0.13093 0.55134 0.0
H2461 H 0.8232 0.14584 0.50187 0.0
H2462 H 0.82344 0.14188 0.52241 0.0
H2463 H 0.83939 0.1686 0.5162 0.0
H2464 H 0.86326 0.18041 0.54055 0.0
H2465 H 0.85228 0.1833 0.5666 0.0
H2466 H 0.88402 0.73163 0.45373 0.0
H2467 H 0.88096 0.72125 0.48058 0.0
H2468 H 0.87737 0.77799 0.49588 0.0
H2469 H 0.88023 0.78833 0.46909 0.0
H2470 H 0.9044 0.74188 0.51003 0.0
H2471 H 0.82041 0.72773 0.50737 0.0
H2472 H 0.83483 0.73153 0.49022 0.0
H2473 H 0.84038 0.75458 0.50348 0.0
C2474 C 0.88302 0.74211 0.46288 0.0
C2475 C 0.88211 0.76066 0.45928 0.0
C2476 C 0.88118 0.73612 0.4782 0.0
C2477 C 0.87843 0.74858 0.49014 0.0
C2478 C 0.87893 0.76784 0.48676 0.0
H2479 H 0.84631 0.72929 0.58613 0.0
H2480 H 0.85798 0.74456 0.56134 0.0
C2481 C 0.88063 0.77377 0.47147 0.0
C2482 C 0.87386 0.74086 0.50591 0.0
H2483 H 0.83544 0.72488 0.53176 0.0
C2484 C 0.88933 0.73813 0.51479 0.0
C2485 C 0.85412 0.73588 0.51206 0.0
C2486 C 0.83637 0.73736 0.50276 0.0
C2487 C 0.88572 0.73091 0.5298 0.0
C2488 C 0.86602 0.72603 0.53595 0.0
C2489 C 0.8506 0.72878 0.52706 0.0
C2490 C 0.86072 0.71752 0.55142 0.0
C2491 C 0.90314 0.72888 0.53905 0.0
C2492 C 0.8584 0.69726 0.55407 0.0
C2493 C 0.85177 0.68851 0.56824 0.0
C2494 C 0.84725 0.69982 0.58002 0.0
C2495 C 0.84991 0.72028 0.5774 0.0
C2496 C 0.85647 0.72898 0.56321 0.0
H2497 H 0.9192 0.73843 0.53454 0.0
H2498 H 0.90458 0.73442 0.55163 0.0
H2499 H 0.89882 0.71156 0.53811 0.0
H2500 H 0.86121 0.68796 0.54504 0.0
H2501 H 0.85006 0.67281 0.56992 0.0
loop_
_geom_bond_atom_site_label_1
_geom_bond_atom_site_label_2
_geom_bond_distance
_geom_bond_site_symmetry_2
_ccdc_geom_bond_type
H0 C3 0.929 . S
H1 C6 0.929 . S
H2 C8 0.930 . S
C3 H0 0.929 . S
C3 C4 1.398 . S
C3 C5 1.396 . S
C4 C3 1.398 . S
C4 C8 1.407 . S
C5 C3 1.396 . S
C5 C6 1.394 . S
C6 H1 0.929 . S
C6 C5 1.394 . S
C6 C7 1.382 . S
C7 C6 1.382 . S
C7 C8 1.392 . S
C7 N9 1.420 . S
C8 H2 0.930 . S
C8 C4 1.407 . S
C8 C7 1.392 . S
N9 C7 1.420 . S
N9 C10 1.244 . S
C10 N9 1.244 . S
H11 C14 0.929 . S
H12 C17 0.929 . S
H13 C19 0.930 . S
C14 H11 0.929 . S
C14 C15 1.398 . S
C14 C16 1.396 . S
C15 C14 1.398 . S
C15 C19 1.407 . S
C16 C14 1.396 . S
C16 C17 1.394 . S
C17 H12 0.929 . S
C17 C16 1.394 . S
C17 C18 1.382 . S
C18 C17 1.382 . S
C18 C19 1.392 . S
C18 N20 1.420 . S
C19 H13 0.930 . S
C19 C15 1.407 . S
C19 C18 1.392 . S
N20 C18 1.420 . S
N20 C21 1.244 . S
C21 N20 1.244 . S
H22 C25 0.929 . S
H23 C28 0.929 . S
H24 C30 0.930 . S
C25 H22 0.929 . S
C25 C26 1.398 . S
C25 C27 1.396 . S
C26 C25 1.398 . S
C26 C30 1.407 . S
C27 C25 1.396 . S
C27 C28 1.394 . S
C28 H23 0.929 . S
C28 C27 1.394 . S
C28 C29 1.382 . S
C29 C28 1.382 . S
C29 C30 1.392 . S
C29 N31 1.420 . S
C30 H24 0.930 . S
C30 C26 1.407 . S
C30 C29 1.392 . S
N31 C29 1.420 . S
N31 C32 1.244 . S
C32 N31 1.244 . S
H33 C36 0.929 . S
H34 C39 0.929 . S
H35 C41 0.930 . S
C36 H33 0.929 . S
C36 C37 1.398 . S
C36 C38 1.396 . S
C37 C36 1.398 . S
C37 C41 1.407 . S
C38 C36 1.396 . S
C38 C39 1.394 . S
C39 H34 0.929 . S
C39 C38 1.394 . S
C39 C40 1.382 . S
C40 C39 1.382 . S
C40 C41 1.392 . S
C40 N42 1.420 . S
C41 H35 0.930 . S
C41 C37 1.407 . S
C41 C40 1.392 . S
N42 C40 1.420 . S
N42 C43 1.244 . S
C43 N42 1.244 . S
H44 C47 0.929 . S
H45 C50 0.929 . S
H46 C52 0.930 . S
C47 H44 0.929 . S
C47 C48 1.398 . S
C47 C49 1.396 . S
C48 C47 1.398 . S
C48 C52 1.407 . S
C49 C47 1.396 . S
C49 C50 1.394 . S
C50 H45 0.929 . S
C50 C49 1.394 . S
C50 C51 1.382 . S
C51 C50 1.382 . S
C51 C52 1.392 . S
C51 N53 1.420 . S
C52 H46 0.930 . S
C52 C48 1.407 . S
C52 C51 1.392 . S
N53 C51 1.420 . S
N53 C54 1.244 . S
C54 N53 1.244 . S
H55 C58 0.929 . S
H56 C61 0.929 . S
H57 C63 0.930 . S
C58 H55 0.929 . S
C58 C59 1.398 . S
C58 C60 1.396 . S
C59 C58 1.398 . S
C59 C63 1.407 . S
C60 C58 1.396 . S
C60 C61 1.394 . S
C61 H56 0.929 . S
C61 C60 1.394 . S
C61 C62 1.382 . S
C62 C61 1.382 . S
C62 C63 1.392 . S
C62 N64 1.420 . S
C63 H57 0.930 . S
C63 C59 1.407 . S
C63 C62 1.392 . S
N64 C62 1.420 . S
N64 C65 1.244 . S
C65 N64 1.244 . S
H66 C69 0.929 . S
H67 C72 0.929 . S
H68 C74 0.930 . S
C69 H66 0.929 . S
C69 C70 1.398 . S
C69 C71 1.396 . S
C70 C69 1.398 . S
C70 C74 1.407 . S
C71 C69 1.396 . S
C71 C72 1.394 . S
C72 H67 0.929 . S
C72 C71 1.394 . S
C72 C73 1.382 . S
C73 C72 1.382 . S
C73 C74 1.392 . S
C73 N75 1.420 . S
C74 H68 0.930 . S
C74 C70 1.407 . S
C74 C73 1.392 . S
N75 C73 1.420 . S
N75 C76 1.244 . S
C76 N75 1.244 . S
H77 C80 0.929 . S
H78 C83 0.929 . S
H79 C85 0.930 . S
C80 H77 0.929 . S
C80 C81 1.398 . S
C80 C82 1.396 . S
C81 C80 1.398 . S
C81 C85 1.407 . S
C82 C80 1.396 . S
C82 C83 1.394 . S
C83 H78 0.929 . S
C83 C82 1.394 . S
C83 C84 1.382 . S
C84 C83 1.382 . S
C84 C85 1.392 . S
C84 N86 1.420 . S
C85 H79 0.930 . S
C85 C81 1.407 . S
C85 C84 1.392 . S
N86 C84 1.420 . S
N86 C87 1.244 . S
C87 N86 1.244 . S
H88 C91 0.929 . S
H89 C94 0.929 . S
H90 C96 0.930 . S
C91 H88 0.929 . S
C91 C92 1.398 . S
C91 C93 1.396 . S
C92 C91 1.398 . S
C92 C96 1.407 . S
C93 C91 1.396 . S
C93 C94 1.394 . S
C94 H89 0.929 . S
C94 C93 1.394 . S
C94 C95 1.382 . S
C95 C94 1.382 . S
C95 C96 1.392 . S
C95 N97 1.420 . S
C96 H90 0.930 . S
C96 C92 1.407 . S
C96 C95 1.392 . S
N97 C95 1.420 . S
N97 C98 1.244 . S
C98 N97 1.244 . S
H99 C102 0.929 . S
H100 C105 0.929 . S
H101 C107 0.930 . S
C102 H99 0.929 . S
C102 C103 1.398 . S
C102 C104 1.396 . S
C103 C102 1.398 . S
C103 C107 1.407 . S
C104 C102 1.396 . S
C104 C105 1.394 . S
C105 H100 0.929 . S
C105 C104 1.394 . S
C105 C106 1.382 . S
C106 C105 1.382 . S
C106 C107 1.392 . S
C106 N108 1.420 . S
C107 H101 0.930 . S
C107 C103 1.407 . S
C107 C106 1.392 . S
N108 C106 1.420 . S
N108 C109 1.244 . S
C109 N108 1.244 . S
H110 C113 0.929 . S
H111 C116 0.929 . S
H112 C118 0.930 . S
C113 H110 0.929 . S
C113 C114 1.398 . S
C113 C115 1.396 . S
C114 C113 1.398 . S
C114 C118 1.407 . S
C115 C113 1.396 . S
C115 C116 1.394 . S
C116 H111 0.929 . S
C116 C115 1.394 . S
C116 C117 1.382 . S
C117 C116 1.382 . S
C117 C118 1.392 . S
C117 N119 1.420 . S
C118 H112 0.930 . S
C118 C114 1.407 . S
C118 C117 1.392 . S
N119 C117 1.420 . S
N119 C120 1.244 . S
C120 N119 1.244 . S
H121 C124 0.929 . S
H122 C127 0.929 . S
H123 C129 0.930 . S
C124 H121 0.929 . S
C124 C125 1.398 . S
C124 C126 1.396 . S
C125 C124 1.398 . S
C125 C129 1.407 . S
C126 C124 1.396 . S
C126 C127 1.394 . S
C127 H122 0.929 . S
C127 C126 1.394 . S
C127 C128 1.382 . S
C128 C127 1.382 . S
C128 C129 1.392 . S
C128 N130 1.420 . S
C129 H123 0.930 . S
C129 C125 1.407 . S
C129 C128 1.392 . S
N130 C128 1.420 . S
N130 C131 1.244 . S
C131 N130 1.244 . S
H132 C135 0.929 . S
H133 C138 0.929 . S
H134 C140 0.930 . S
C135 H132 0.929 . S
C135 C136 1.398 . S
C135 C137 1.396 . S
C136 C135 1.398 . S
C136 C140 1.407 . S
C137 C135 1.396 . S
C137 C138 1.394 . S
C138 H133 0.929 . S
C138 C137 1.394 . S
C138 C139 1.382 . S
C139 C138 1.382 . S
C139 C140 1.392 . S
C139 N141 1.420 . S
C140 H134 0.930 . S
C140 C136 1.407 . S
C140 C139 1.392 . S
N141 C139 1.420 . S
N141 C142 1.244 . S
C142 N141 1.244 . S
H143 C146 0.929 . S
H144 C149 0.929 . S
H145 C151 0.930 . S
C146 H143 0.929 . S
C146 C147 1.398 . S
C146 C148 1.396 . S
C147 C146 1.398 . S
C147 C151 1.407 . S
C148 C146 1.396 . S
C148 C149 1.394 . S
C149 H144 0.929 . S
C149 C148 1.394 . S
C149 C150 1.382 . S
C150 C149 1.382 . S
C150 C151 1.392 . S
C150 N152 1.420 . S
C151 H145 0.930 . S
C151 C147 1.407 . S
C151 C150 1.392 . S
N152 C150 1.420 . S
N152 C153 1.244 . S
C153 N152 1.244 . S
H154 C157 0.929 . S
H155 C160 0.929 . S
H156 C162 0.930 . S
C157 H154 0.929 . S
C157 C158 1.398 . S
C157 C159 1.396 . S
C158 C157 1.398 . S
C158 C162 1.407 . S
C159 C157 1.396 . S
C159 C160 1.394 . S
C160 H155 0.929 . S
C160 C159 1.394 . S
C160 C161 1.382 . S
C161 C160 1.382 . S
C161 C162 1.392 . S
C161 N163 1.420 . S
C162 H156 0.930 . S
C162 C158 1.407 . S
C162 C161 1.392 . S
N163 C161 1.420 . S
N163 C164 1.244 . S
C164 N163 1.244 . S
H165 C168 0.929 . S
H166 C171 0.929 . S
H167 C173 0.930 . S
C168 H165 0.929 . S
C168 C169 1.398 . S
C168 C170 1.396 . S
C169 C168 1.398 . S
C169 C173 1.407 . S
C170 C168 1.396 . S
C170 C171 1.394 . S
C171 H166 0.929 . S
C171 C170 1.394 . S
C171 C172 1.382 . S
C172 C171 1.382 . S
C172 C173 1.392 . S
C172 N174 1.420 . S
C173 H167 0.930 . S
C173 C169 1.407 . S
C173 C172 1.392 . S
N174 C172 1.420 . S
N174 C175 1.244 . S
C175 N174 1.244 . S
H176 C179 0.929 . S
H177 C182 0.929 . S
H178 C184 0.930 . S
C179 H176 0.929 . S
C179 C180 1.398 . S
C179 C181 1.396 . S
C180 C179 1.398 . S
C180 C184 1.407 . S
C181 C179 1.396 . S
C181 C182 1.394 . S
C182 H177 0.929 . S
C182 C181 1.394 . S
C182 C183 1.382 . S
C183 C182 1.382 . S
C183 C184 1.392 . S
C183 N185 1.420 . S
C184 H178 0.930 . S
C184 C180 1.407 . S
C184 C183 1.392 . S
N185 C183 1.420 . S
N185 C186 1.244 . S
C186 N185 1.244 . S
H187 C190 0.929 . S
H188 C193 0.929 . S
H189 C195 0.930 . S
C190 H187 0.929 . S
C190 C191 1.398 . S
C190 C192 1.396 . S
C191 C190 1.398 . S
C191 C195 1.407 . S
C192 C190 1.396 . S
C192 C193 1.394 . S
C193 H188 0.929 . S
C193 C192 1.394 . S
C193 C194 1.382 . S
C194 C193 1.382 . S
C194 C195 1.392 . S
C194 N196 1.420 . S
C195 H189 0.930 . S
C195 C191 1.407 . S
C195 C194 1.392 . S
N196 C194 1.420 . S
N196 C197 1.244 . S
C197 N196 1.244 . S
C198 Eu199 2.835 . S
C198 C200 1.500 1_545 S
C198 O218 1.257 1_545 S
C198 O219 1.260 . S
Eu199 C198 2.835 . S
Eu199 O218 2.473 1_545 S
Eu199 O219 2.480 . S
Eu199 O220 2.430 . S
Eu199 O221 2.670 . S
Eu199 O222 2.394 1_545 S
Eu199 O227 2.355 1_545 S
Eu199 O229 2.374 . S
C200 C198 1.500 1_565 S
C200 C201 1.377 1_565 S
C200 C205 1.377 . S
C201 C200 1.377 1_545 S
C201 C202 1.387 1_545 S
C201 H230 0.931 . S
C202 C201 1.387 1_565 S
C202 C203 1.421 . S
C202 H231 0.903 1_565 S
C203 C202 1.421 . S
C203 C204 1.394 . S
C204 C203 1.394 . S
C204 C205 1.378 . S
C204 H232 0.931 . S
C205 C200 1.377 . S
C205 C204 1.378 . S
C205 H233 0.931 . S
C206 O220 1.259 . S
C206 O221 1.270 . S
C207 O222 1.251 . S
C207 O223 1.251 . S
C208 Eu209 2.835 1_545 S
C208 C210 1.500 . S
C208 O224 1.257 . S
C208 O225 1.260 1_545 S
Eu209 C208 2.835 1_565 S
Eu209 O221 2.355 1_566 S
Eu209 O223 2.374 1_556 S
Eu209 O224 2.473 1_565 S
Eu209 O225 2.480 . S
Eu209 O226 2.430 . S
Eu209 O227 2.670 1_556 S
Eu209 O228 2.394 1_565 S
C210 C208 1.500 . S
C210 C211 1.377 . S
C210 C215 1.377 . S
C211 C210 1.377 . S
C211 C212 1.395 . S
C211 H234 0.931 1_545 S
C212 C211 1.395 . S
C212 C213 1.383 . S
C212 H235 0.931 . S
C213 C212 1.383 . S
C213 C214 1.394 . S
C214 C213 1.394 . S
C214 C215 1.378 . S
C214 H236 0.931 . S
C215 C210 1.377 . S
C215 C214 1.378 . S
C215 H237 0.931 . S
C216 O226 1.259 1_554 S
C216 O227 1.270 . S
C217 O228 1.251 1_554 S
C217 O229 1.251 . S
O218 C198 1.257 1_565 S
O218 Eu199 2.473 1_565 S
O219 C198 1.260 . S
O219 Eu199 2.480 . S
O220 Eu199 2.430 . S
O220 C206 1.259 . S
O221 Eu199 2.670 . S
O221 C206 1.270 . S
O221 Eu209 2.355 1_544 S
O222 Eu199 2.394 1_565 S
O222 C207 1.251 . S
O223 C207 1.251 . S
O223 Eu209 2.374 1_554 S
O224 C208 1.257 . S
O224 Eu209 2.473 1_545 S
O225 C208 1.260 1_565 S
O225 Eu209 2.480 . S
O226 Eu209 2.430 . S
O226 C216 1.259 1_556 S
O227 Eu199 2.355 1_565 S
O227 Eu209 2.670 1_554 S
O227 C216 1.270 . S
O228 Eu209 2.394 1_545 S
O228 C217 1.251 1_556 S
O229 Eu199 2.374 . S
O229 C217 1.251 . S
H230 C201 0.931 . S
H231 C202 0.903 1_545 S
H232 C204 0.931 . S
H233 C205 0.931 . S
H234 C211 0.931 1_565 S
H235 C212 0.931 . S
H236 C214 0.931 . S
H237 C215 0.931 . S
C238 Eu239 2.835 1_455 S
C238 C240 1.500 . S
C238 O258 1.257 . S
C238 O259 1.260 1_455 S
Eu239 C238 2.835 1_655 S
Eu239 O258 2.473 1_655 S
Eu239 O259 2.480 . S
Eu239 O260 2.430 . S
Eu239 O261 2.670 . S
Eu239 O262 2.394 1_655 S
Eu239 O267 2.355 1_655 S
Eu239 O269 2.374 . S
C240 C238 1.500 . S
C240 C241 1.377 . S
C240 C245 1.377 . S
C241 C240 1.377 . S
C241 C242 1.395 . S
C241 H270 0.931 1_455 S
C242 C241 1.395 . S
C242 C243 1.383 . S
C242 H271 0.931 . S
C243 C242 1.383 . S
C243 C244 1.394 . S
C244 C243 1.394 . S
C244 C245 1.378 . S
C244 H272 0.931 . S
C245 C240 1.377 . S
C245 C244 1.378 . S
C245 H273 0.931 . S
C246 O260 1.259 . S
C246 O261 1.270 . S
C247 O262 1.251 . S
C247 O263 1.251 . S
C248 Eu249 2.835 1_655 S
C248 C250 1.500 . S
C248 O264 1.257 . S
C248 O265 1.260 1_655 S
Eu249 C248 2.835 1_455 S
Eu249 O261 2.355 1_456 S
Eu249 O263 2.374 1_556 S
Eu249 O264 2.473 1_455 S
Eu249 O265 2.480 . S
Eu249 O266 2.443 . S
Eu249 O267 2.670 1_556 S
Eu249 O268 2.394 1_455 S
C250 C248 1.500 . S
C250 C251 1.377 1_655 S
C250 C255 1.377 . S
C251 C250 1.377 1_455 S
C251 C252 1.395 1_455 S
C251 H274 0.931 . S
C252 C251 1.395 1_655 S
C252 C253 1.383 . S
C252 H275 0.931 1_655 S
C253 C252 1.383 . S
C253 C254 1.394 . S
C254 C253 1.394 . S
C254 C255 1.378 . S
C254 H276 0.931 . S
C255 C250 1.377 . S
C255 C254 1.378 . S
C255 H277 0.931 . S
C256 O266 1.205 1_554 S
C256 O267 1.270 . S
C257 O268 1.275 . S
C257 O269 1.210 1_556 S
O258 C238 1.257 . S
O258 Eu239 2.473 1_455 S
O259 C238 1.260 1_655 S
O259 Eu239 2.480 . S
O260 Eu239 2.430 . S
O260 C246 1.259 . S
O261 Eu239 2.670 . S
O261 C246 1.270 . S
O261 Eu249 2.355 1_654 S
O262 Eu239 2.394 1_455 S
O262 C247 1.251 . S
O263 C247 1.251 . S
O263 Eu249 2.374 1_554 S
O264 C248 1.257 . S
O264 Eu249 2.473 1_655 S
O265 C248 1.260 1_455 S
O265 Eu249 2.480 . S
O266 Eu249 2.443 . S
O266 C256 1.205 1_556 S
O267 Eu239 2.355 1_455 S
O267 Eu249 2.670 1_554 S
O267 C256 1.270 . S
O268 Eu249 2.394 1_655 S
O268 C257 1.275 . S
O269 Eu239 2.374 . S
O269 C257 1.210 1_554 S
H270 C241 0.931 1_655 S
H271 C242 0.931 . S
H272 C244 0.931 . S
H273 C245 0.931 . S
H274 C251 0.931 . S
H275 C252 0.931 1_455 S
H276 C254 0.931 . S
H277 C255 0.931 . S
C278 Eu279 2.835 . S
C278 C280 1.500 . S
C278 O298 1.257 . S
C278 O299 1.260 . S
Eu279 C278 2.835 . S
Eu279 O298 2.473 . S
Eu279 O299 2.480 . S
Eu279 O300 2.430 1_556 S
Eu279 O301 2.670 1_556 S
Eu279 O302 2.394 . S
Eu279 O307 2.355 1_556 S
Eu279 O309 2.374 1_556 S
C280 C278 1.500 . S
C280 C281 1.377 . S
C280 C285 1.377 . S
C281 C280 1.377 . S
C281 C282 1.395 . S
C281 H310 0.931 . S
C282 C281 1.395 . S
C282 C283 1.383 . S
C282 H311 0.931 . S
C283 C282 1.383 . S
C283 C284 1.394 . S
C284 C283 1.394 . S
C284 C285 1.378 . S
C284 H312 0.931 . S
C285 C280 1.377 . S
C285 C284 1.378 . S
C285 H313 0.931 . S
C286 O300 1.259 . S
C286 O301 1.270 . S
C287 O302 1.251 1_554 S
C287 O303 1.251 . S
C288 Eu289 2.835 . S
C288 C290 1.500 . S
C288 O304 1.257 . S
C288 O305 1.260 . S
Eu289 C288 2.835 . S
Eu289 O301 2.355 . S
Eu289 O303 2.374 . S
Eu289 O304 2.473 . S
Eu289 O305 2.480 . S
Eu289 O306 2.430 . S
Eu289 O307 2.670 . S
Eu289 O308 2.394 . S
C290 C288 1.500 . S
C290 C291 1.377 . S
C290 C295 1.377 . S
C291 C290 1.377 . S
C291 C292 1.395 . S
C291 H314 0.931 . S
C292 C291 1.395 . S
C292 C293 1.383 . S
C292 H315 0.931 . S
C293 C292 1.383 . S
C293 C294 1.394 . S
C294 C293 1.394 . S
C294 C295 1.378 . S
C294 H316 0.931 . S
C295 C290 1.377 . S
C295 C294 1.378 . S
C295 H317 0.931 . S
C296 O306 1.259 . S
C296 O307 1.270 . S
C297 O308 1.251 . S
C297 O309 1.251 . S
O298 C278 1.257 . S
O298 Eu279 2.473 . S
O299 C278 1.260 . S
O299 Eu279 2.480 . S
O300 Eu279 2.430 1_554 S
O300 C286 1.259 . S
O301 Eu279 2.670 1_554 S
O301 C286 1.270 . S
O301 Eu289 2.355 . S
O302 Eu279 2.394 . S
O302 C287 1.251 1_556 S
O303 C287 1.251 . S
O303 Eu289 2.374 . S
O304 C288 1.257 . S
O304 Eu289 2.473 . S
O305 C288 1.260 . S
O305 Eu289 2.480 . S
O306 Eu289 2.430 . S
O306 C296 1.259 . S
O307 Eu279 2.355 1_554 S
O307 Eu289 2.670 . S
O307 C296 1.270 . S
O308 Eu289 2.394 . S
O308 C297 1.251 . S
O309 Eu279 2.374 1_554 S
O309 C297 1.251 . S
H310 C281 0.931 . S
H311 C282 0.931 . S
H312 C284 0.931 . S
H313 C285 0.931 . S
H314 C291 0.931 . S
H315 C292 0.931 . S
H316 C294 0.931 . S
H317 C295 0.931 . S
C318 Eu319 2.835 . S
C318 C320 1.500 . S
C318 O338 1.257 . S
C318 O339 1.260 . S
Eu319 C318 2.835 . S
Eu319 O338 2.473 . S
Eu319 O339 2.480 . S
Eu319 O340 2.430 . S
Eu319 O341 2.670 . S
Eu319 O342 2.394 . S
Eu319 O347 2.355 . S
Eu319 O349 2.374 . S
C320 C318 1.500 . S
C320 C321 1.377 . S
C320 C325 1.377 . S
C321 C320 1.377 . S
C321 C322 1.395 . S
C321 H350 0.931 . S
C322 C321 1.395 . S
C322 C323 1.383 . S
C322 H351 0.931 . S
C323 C322 1.383 . S
C323 C324 1.394 . S
C324 C323 1.394 . S
C324 C325 1.378 . S
C324 H352 0.931 . S
C325 C320 1.377 . S
C325 C324 1.378 . S
C325 H353 0.931 . S
C326 O340 1.259 . S
C326 O341 1.270 . S
C327 O342 1.251 . S
C327 O343 1.251 . S
C328 Eu329 2.835 . S
C328 C330 1.500 . S
C328 O344 1.257 . S
C328 O345 1.260 . S
Eu329 C328 2.835 . S
Eu329 O341 2.355 . S
Eu329 O343 2.374 . S
Eu329 O344 2.473 . S
Eu329 O345 2.480 . S
Eu329 O346 2.430 . S
Eu329 O347 2.670 . S
Eu329 O348 2.394 . S
C330 C328 1.500 . S
C330 C331 1.377 . S
C330 C335 1.377 . S
C331 C330 1.377 . S
C331 C332 1.395 . S
C331 H354 0.931 . S
C332 C331 1.395 . S
C332 C333 1.383 . S
C332 H355 0.931 . S
C333 C332 1.383 . S
C333 C334 1.394 . S
C334 C333 1.394 . S
C334 C335 1.378 . S
C334 H356 0.931 . S
C335 C330 1.377 . S
C335 C334 1.378 . S
C335 H357 0.931 . S
C336 O346 1.259 . S
C336 O347 1.270 . S
C337 O348 1.251 . S
C337 O349 1.251 . S
O338 C318 1.257 . S
O338 Eu319 2.473 . S
O339 C318 1.260 . S
O339 Eu319 2.480 . S
O340 Eu319 2.430 . S
O340 C326 1.259 . S
O341 Eu319 2.670 . S
O341 C326 1.270 . S
O341 Eu329 2.355 . S
O342 Eu319 2.394 . S
O342 C327 1.251 . S
O343 C327 1.251 . S
O343 Eu329 2.374 . S
O344 C328 1.257 . S
O344 Eu329 2.473 . S
O345 C328 1.260 . S
O345 Eu329 2.480 . S
O346 Eu329 2.430 . S
O346 C336 1.259 . S
O347 Eu319 2.355 . S
O347 Eu329 2.670 . S
O347 C336 1.270 . S
O348 Eu329 2.394 . S
O348 C337 1.251 . S
O349 Eu319 2.374 . S
O349 C337 1.251 . S
H350 C321 0.931 . S
H351 C322 0.931 . S
H352 C324 0.931 . S
H353 C325 0.931 . S
H354 C331 0.931 . S
H355 C332 0.931 . S
H356 C334 0.931 . S
H357 C335 0.931 . S
C358 Eu359 2.835 . S
C358 C360 1.500 . S
C358 O378 1.257 . S
C358 O379 1.260 . S
Eu359 C358 2.835 . S
Eu359 O378 2.473 . S
Eu359 O379 2.480 . S
Eu359 O380 2.430 . S
Eu359 O381 2.670 . S
Eu359 O382 2.394 . S
Eu359 O387 2.355 . S
Eu359 O389 2.374 . S
C360 C358 1.500 . S
C360 C361 1.377 . S
C360 C365 1.377 . S
C361 C360 1.377 . S
C361 C362 1.395 . S
C361 H390 0.931 . S
C362 C361 1.395 . S
C362 C363 1.383 . S
C362 H391 0.931 . S
C363 C362 1.383 . S
C363 C364 1.394 . S
C364 C363 1.394 . S
C364 C365 1.378 . S
C364 H392 0.931 . S
C365 C360 1.377 . S
C365 C364 1.378 . S
C365 H393 0.931 . S
C366 O380 1.259 . S
C366 O381 1.270 . S
C367 O382 1.251 . S
C367 O383 1.251 . S
C368 Eu369 2.835 . S
C368 C370 1.500 . S
C368 O384 1.257 . S
C368 O385 1.260 . S
Eu369 C368 2.835 . S
Eu369 O381 2.355 . S
Eu369 O383 2.374 . S
Eu369 O384 2.473 . S
Eu369 O385 2.480 . S
Eu369 O386 2.430 . S
Eu369 O387 2.670 . S
Eu369 O388 2.394 . S
C370 C368 1.500 . S
C370 C371 1.377 . S
C370 C375 1.377 . S
C371 C370 1.377 . S
C371 C372 1.395 . S
C371 H394 0.931 . S
C372 C371 1.395 . S
C372 C373 1.383 . S
C372 H395 0.931 . S
C373 C372 1.383 . S
C373 C374 1.394 . S
C374 C373 1.394 . S
C374 C375 1.378 . S
C374 H396 0.931 . S
C375 C370 1.377 . S
C375 C374 1.378 . S
C375 H397 0.931 . S
C376 O386 1.259 . S
C376 O387 1.270 . S
C377 O388 1.251 . S
C377 O389 1.251 . S
O378 C358 1.257 . S
O378 Eu359 2.473 . S
O379 C358 1.260 . S
O379 Eu359 2.480 . S
O380 Eu359 2.430 . S
O380 C366 1.259 . S
O381 Eu359 2.670 . S
O381 C366 1.270 . S
O381 Eu369 2.355 . S
O382 Eu359 2.394 . S
O382 C367 1.251 . S
O383 C367 1.251 . S
O383 Eu369 2.374 . S
O384 C368 1.257 . S
O384 Eu369 2.473 . S
O385 C368 1.260 . S
O385 Eu369 2.480 . S
O386 Eu369 2.430 . S
O386 C376 1.259 . S
O387 Eu359 2.355 . S
O387 Eu369 2.670 . S
O387 C376 1.270 . S
O388 Eu369 2.394 . S
O388 C377 1.251 . S
O389 Eu359 2.374 . S
O389 C377 1.251 . S
H390 C361 0.931 . S
H391 C362 0.931 . S
H392 C364 0.931 . S
H393 C365 0.931 . S
H394 C371 0.931 . S
H395 C372 0.931 . S
H396 C374 0.931 . S
H397 C375 0.931 . S
C398 Eu399 2.835 . S
C398 C400 1.500 . S
C398 O418 1.257 . S
C398 O419 1.260 . S
Eu399 C398 2.835 . S
Eu399 O418 2.473 . S
Eu399 O419 2.480 . S
Eu399 O420 2.430 . S
Eu399 O421 2.670 . S
Eu399 O422 2.394 . S
Eu399 O427 2.355 . S
Eu399 O429 2.374 . S
C400 C398 1.500 . S
C400 C401 1.377 . S
C400 C405 1.377 . S
C401 C400 1.377 . S
C401 C402 1.395 . S
C401 H430 0.931 . S
C402 C401 1.395 . S
C402 C403 1.383 . S
C402 H431 0.931 . S
C403 C402 1.383 . S
C403 C404 1.394 . S
C404 C403 1.394 . S
C404 C405 1.378 . S
C404 H432 0.931 . S
C405 C400 1.377 . S
C405 C404 1.378 . S
C405 H433 0.931 . S
C406 O420 1.259 . S
C406 O421 1.270 . S
C407 O422 1.251 . S
C407 O423 1.251 . S
C408 Eu409 2.835 . S
C408 C410 1.500 . S
C408 O424 1.257 . S
C408 O425 1.260 . S
Eu409 C408 2.835 . S
Eu409 O421 2.355 . S
Eu409 O423 2.374 . S
Eu409 O424 2.473 . S
Eu409 O425 2.480 . S
Eu409 O426 2.430 . S
Eu409 O427 2.670 . S
Eu409 O428 2.394 . S
C410 C408 1.500 . S
C410 C411 1.377 . S
C410 C415 1.377 . S
C411 C410 1.377 . S
C411 C412 1.395 . S
C411 H434 0.931 . S
C412 C411 1.395 . S
C412 C413 1.383 . S
C412 H435 0.931 . S
C413 C412 1.383 . S
C413 C414 1.394 . S
C414 C413 1.394 . S
C414 C415 1.378 . S
C414 H436 0.931 . S
C415 C410 1.377 . S
C415 C414 1.378 . S
C415 H437 0.931 . S
C416 O426 1.259 . S
C416 O427 1.270 . S
C417 O428 1.251 . S
C417 O429 1.251 . S
O418 C398 1.257 . S
O418 Eu399 2.473 . S
O419 C398 1.260 . S
O419 Eu399 2.480 . S
O420 Eu399 2.430 . S
O420 C406 1.259 . S
O421 Eu399 2.670 . S
O421 C406 1.270 . S
O421 Eu409 2.355 . S
O422 Eu399 2.394 . S
O422 C407 1.251 . S
O423 C407 1.251 . S
O423 Eu409 2.374 . S
O424 C408 1.257 . S
O424 Eu409 2.473 . S
O425 C408 1.260 . S
O425 Eu409 2.480 . S
O426 Eu409 2.430 . S
O426 C416 1.259 . S
O427 Eu399 2.355 . S
O427 Eu409 2.670 . S
O427 C416 1.270 . S
O428 Eu409 2.394 . S
O428 C417 1.251 . S
O429 Eu399 2.374 . S
O429 C417 1.251 . S
H430 C401 0.931 . S
H431 C402 0.931 . S
H432 C404 0.931 . S
H433 C405 0.931 . S
H434 C411 0.931 . S
H435 C412 0.931 . S
H436 C414 0.931 . S
H437 C415 0.931 . S
C438 Eu439 2.835 . S
C438 C440 1.500 . S
C438 O458 1.257 . S
C438 O459 1.260 . S
Eu439 C438 2.835 . S
Eu439 O458 2.473 . S
Eu439 O459 2.480 . S
Eu439 O460 2.430 . S
Eu439 O461 2.670 . S
Eu439 O462 2.394 . S
Eu439 O467 2.355 . S
Eu439 O469 2.374 . S
C440 C438 1.500 . S
C440 C441 1.377 . S
C440 C445 1.377 . S
C441 C440 1.377 . S
C441 C442 1.395 . S
C441 H470 0.931 . S
C442 C441 1.395 . S
C442 C443 1.383 . S
C442 H471 0.931 . S
C443 C442 1.383 . S
C443 C444 1.394 . S
C444 C443 1.394 . S
C444 C445 1.378 . S
C444 H472 0.931 . S
C445 C440 1.377 . S
C445 C444 1.378 . S
C445 H473 0.931 . S
C446 O460 1.259 . S
C446 O461 1.270 . S
C447 O462 1.251 . S
C447 O463 1.251 . S
C448 Eu449 2.835 . S
C448 C450 1.500 . S
C448 O464 1.257 . S
C448 O465 1.260 . S
Eu449 C448 2.835 . S
Eu449 O461 2.355 . S
Eu449 O463 2.374 . S
Eu449 O464 2.473 . S
Eu449 O465 2.480 . S
Eu449 O466 2.430 . S
Eu449 O467 2.670 . S
Eu449 O468 2.394 . S
C450 C448 1.500 . S
C450 C451 1.377 . S
C450 C455 1.377 . S
C451 C450 1.377 . S
C451 C452 1.395 . S
C451 H474 0.931 . S
C452 C451 1.395 . S
C452 C453 1.383 . S
C452 H475 0.931 . S
C453 C452 1.383 . S
C453 C454 1.394 . S
C454 C453 1.394 . S
C454 C455 1.378 . S
C454 H476 0.931 . S
C455 C450 1.377 . S
C455 C454 1.378 . S
C455 H477 0.931 . S
C456 O466 1.259 . S
C456 O467 1.270 . S
C457 O468 1.251 . S
C457 O469 1.251 . S
O458 C438 1.257 . S
O458 Eu439 2.473 . S
O459 C438 1.260 . S
O459 Eu439 2.480 . S
O460 Eu439 2.430 . S
O460 C446 1.259 . S
O461 Eu439 2.670 . S
O461 C446 1.270 . S
O461 Eu449 2.355 . S
O462 Eu439 2.394 . S
O462 C447 1.251 . S
O463 C447 1.251 . S
O463 Eu449 2.374 . S
O464 C448 1.257 . S
O464 Eu449 2.473 . S
O465 C448 1.260 . S
O465 Eu449 2.480 . S
O466 Eu449 2.430 . S
O466 C456 1.259 . S
O467 Eu439 2.355 . S
O467 Eu449 2.670 . S
O467 C456 1.270 . S
O468 Eu449 2.394 . S
O468 C457 1.251 . S
O469 Eu439 2.374 . S
O469 C457 1.251 . S
H470 C441 0.931 . S
H471 C442 0.931 . S
H472 C444 0.931 . S
H473 C445 0.931 . S
H474 C451 0.931 . S
H475 C452 0.931 . S
H476 C454 0.931 . S
H477 C455 0.931 . S
C478 Eu479 2.835 . S
C478 C480 1.500 . S
C478 O498 1.257 . S
C478 O499 1.260 . S
Eu479 C478 2.835 . S
Eu479 O498 2.473 . S
Eu479 O499 2.480 . S
Eu479 O500 2.430 . S
Eu479 O501 2.670 . S
Eu479 O502 2.394 . S
Eu479 O507 2.355 . S
Eu479 O509 2.374 . S
C480 C478 1.500 . S
C480 C481 1.377 . S
C480 C485 1.377 . S
C481 C480 1.377 . S
C481 C482 1.395 . S
C481 H510 0.931 . S
C482 C481 1.395 . S
C482 C483 1.383 . S
C482 H511 0.931 . S
C483 C482 1.383 . S
C483 C484 1.394 . S
C484 C483 1.394 . S
C484 C485 1.378 . S
C484 H512 0.931 . S
C485 C480 1.377 . S
C485 C484 1.378 . S
C485 H513 0.931 . S
C486 O500 1.259 . S
C486 O501 1.270 . S
C487 O502 1.251 . S
C487 O503 1.251 . S
C488 Eu489 2.835 . S
C488 C490 1.500 . S
C488 O504 1.257 . S
C488 O505 1.260 . S
Eu489 C488 2.835 . S
Eu489 O501 2.355 . S
Eu489 O503 2.374 . S
Eu489 O504 2.473 . S
Eu489 O505 2.480 . S
Eu489 O506 2.430 . S
Eu489 O507 2.670 . S
Eu489 O508 2.394 . S
C490 C488 1.500 . S
C490 C491 1.377 . S
C490 C495 1.377 . S
C491 C490 1.377 . S
C491 C492 1.395 . S
C491 H514 0.931 . S
C492 C491 1.395 . S
C492 C493 1.383 . S
C492 H515 0.931 . S
C493 C492 1.383 . S
C493 C494 1.394 . S
C494 C493 1.394 . S
C494 C495 1.378 . S
C494 H516 0.931 . S
C495 C490 1.377 . S
C495 C494 1.378 . S
C495 H517 0.931 . S
C496 O506 1.259 . S
C496 O507 1.270 . S
C497 O508 1.251 . S
C497 O509 1.251 . S
O498 C478 1.257 . S
O498 Eu479 2.473 . S
O499 C478 1.260 . S
O499 Eu479 2.480 . S
O500 Eu479 2.430 . S
O500 C486 1.259 . S
O501 Eu479 2.670 . S
O501 C486 1.270 . S
O501 Eu489 2.355 . S
O502 Eu479 2.394 . S
O502 C487 1.251 . S
O503 C487 1.251 . S
O503 Eu489 2.374 . S
O504 C488 1.257 . S
O504 Eu489 2.473 . S
O505 C488 1.260 . S
O505 Eu489 2.480 . S
O506 Eu489 2.430 . S
O506 C496 1.259 . S
O507 Eu479 2.355 . S
O507 Eu489 2.670 . S
O507 C496 1.270 . S
O508 Eu489 2.394 . S
O508 C497 1.251 . S
O509 Eu479 2.374 . S
O509 C497 1.251 . S
H510 C481 0.931 . S
H511 C482 0.931 . S
H512 C484 0.931 . S
H513 C485 0.931 . S
H514 C491 0.931 . S
H515 C492 0.931 . S
H516 C494 0.931 . S
H517 C495 0.931 . S
C518 Eu519 2.835 . S
C518 C520 1.500 . S
C518 O538 1.257 . S
C518 O539 1.260 . S
Eu519 C518 2.835 . S
Eu519 O538 2.473 . S
Eu519 O539 2.480 . S
Eu519 O540 2.430 . S
Eu519 O541 2.670 . S
Eu519 O542 2.394 . S
Eu519 O547 2.355 . S
Eu519 O549 2.374 . S
C520 C518 1.500 . S
C520 C521 1.377 . S
C520 C525 1.377 . S
C521 C520 1.377 . S
C521 C522 1.395 . S
C521 H550 0.931 . S
C522 C521 1.395 . S
C522 C523 1.383 . S
C522 H551 0.931 . S
C523 C522 1.383 . S
C523 C524 1.394 . S
C524 C523 1.394 . S
C524 C525 1.378 . S
C524 H552 0.931 . S
C525 C520 1.377 . S
C525 C524 1.378 . S
C525 H553 0.931 . S
C526 O540 1.259 . S
C526 O541 1.270 . S
C527 O542 1.251 . S
C527 O543 1.251 . S
C528 Eu529 2.835 . S
C528 C530 1.500 . S
C528 O544 1.257 . S
C528 O545 1.260 . S
Eu529 C528 2.835 . S
Eu529 O541 2.355 . S
Eu529 O543 2.374 . S
Eu529 O544 2.473 . S
Eu529 O545 2.480 . S
Eu529 O546 2.430 . S
Eu529 O547 2.670 . S
Eu529 O548 2.394 . S
C530 C528 1.500 . S
C530 C531 1.377 . S
C530 C535 1.377 . S
C531 C530 1.377 . S
C531 C532 1.395 . S
C531 H554 0.931 . S
C532 C531 1.395 . S
C532 C533 1.383 . S
C532 H555 0.931 . S
C533 C532 1.383 . S
C533 C534 1.394 . S
C534 C533 1.394 . S
C534 C535 1.378 . S
C534 H556 0.931 . S
C535 C530 1.377 . S
C535 C534 1.378 . S
C535 H557 0.931 . S
C536 O546 1.259 . S
C536 O547 1.270 . S
C537 O548 1.251 . S
C537 O549 1.251 . S
O538 C518 1.257 . S
O538 Eu519 2.473 . S
O539 C518 1.260 . S
O539 Eu519 2.480 . S
O540 Eu519 2.430 . S
O540 C526 1.259 . S
O541 Eu519 2.670 . S
O541 C526 1.270 . S
O541 Eu529 2.355 . S
O542 Eu519 2.394 . S
O542 C527 1.251 . S
O543 C527 1.251 . S
O543 Eu529 2.374 . S
O544 C528 1.257 . S
O544 Eu529 2.473 . S
O545 C528 1.260 . S
O545 Eu529 2.480 . S
O546 Eu529 2.430 . S
O546 C536 1.259 . S
O547 Eu519 2.355 . S
O547 Eu529 2.670 . S
O547 C536 1.270 . S
O548 Eu529 2.394 . S
O548 C537 1.251 . S
O549 Eu519 2.374 . S
O549 C537 1.251 . S
H550 C521 0.931 . S
H551 C522 0.931 . S
H552 C524 0.931 . S
H553 C525 0.931 . S
H554 C531 0.931 . S
H555 C532 0.931 . S
H556 C534 0.931 . S
H557 C535 0.931 . S
H558 C566 0.929 . S
H559 C568 0.930 . S
H560 C570 0.930 . S
H561 C573 0.929 . S
H562 C576 0.930 . S
H563 C578 0.960 . S
H564 C578 0.960 . S
H565 C578 0.960 . S
C566 H558 0.929 . S
C566 C567 1.377 . S
C566 C568 1.384 . S
C567 C566 1.377 . S
C567 C573 1.390 . S
C568 H559 0.930 . S
C568 C566 1.384 . S
C568 C569 1.372 . S
C569 C568 1.372 . S
C569 C570 1.400 . S
C569 C574 1.490 . S
C570 H560 0.930 . S
C570 C569 1.400 . S
C570 C573 1.386 . S
H571 C587 0.930 . S
H572 C588 0.931 . S
C573 H561 0.929 . S
C573 C567 1.390 . S
C573 C570 1.386 . S
C574 C569 1.490 . S
C574 C576 1.395 . S
C574 C577 1.403 . S
H575 C581 0.930 . S
C576 H562 0.930 . S
C576 C574 1.395 . S
C576 C579 1.403 . S
C577 C574 1.403 . S
C577 C578 1.524 . S
C577 C581 1.400 . S
C578 H563 0.960 . S
C578 H564 0.960 . S
C578 H565 0.960 . S
C578 C577 1.524 . S
C579 C576 1.403 . S
C579 C580 1.392 . S
C579 C583 1.495 . S
C580 C579 1.392 . S
C580 C581 1.385 . S
C580 C582 1.478 . S
C581 H575 0.930 . S
C581 C577 1.400 . S
C581 C580 1.385 . S
C582 C580 1.478 . S
C582 C584 1.381 . S
C582 C588 1.383 . S
C583 C579 1.495 . S
C583 H589 0.959 . S
C583 H590 0.961 . S
C583 H591 0.960 . S
C584 C582 1.381 . S
C584 C585 1.394 . S
C584 H592 0.930 . S
C585 C584 1.394 . S
C585 C586 1.383 . S
C585 H593 0.929 . S
C586 C585 1.383 . S
C586 C587 1.377 . S
C587 H571 0.930 . S
C587 C586 1.377 . S
C587 C588 1.379 . S
C588 H572 0.931 . S
C588 C582 1.383 . S
C588 C587 1.379 . S
H589 C583 0.959 . S
H590 C583 0.961 . S
H591 C583 0.960 . S
H592 C584 0.930 . S
H593 C585 0.929 . S
H594 C602 0.929 . S
H595 C604 0.930 . S
H596 C606 0.930 . S
H597 C609 0.929 . S
H598 C612 0.930 . S
H599 C614 0.960 . S
H600 C614 0.960 . S
H601 C614 0.960 . S
C602 H594 0.929 . S
C602 C603 1.377 . S
C602 C604 1.384 . S
C603 C602 1.377 . S
C603 C609 1.390 . S
C604 H595 0.930 . S
C604 C602 1.384 . S
C604 C605 1.372 . S
C605 C604 1.372 . S
C605 C606 1.400 . S
C605 C610 1.490 . S
C606 H596 0.930 . S
C606 C605 1.400 . S
C606 C609 1.386 . S
H607 C623 0.930 . S
H608 C624 0.931 . S
C609 H597 0.929 . S
C609 C603 1.390 . S
C609 C606 1.386 . S
C610 C605 1.490 . S
C610 C612 1.395 . S
C610 C613 1.403 . S
H611 C617 0.930 . S
C612 H598 0.930 . S
C612 C610 1.395 . S
C612 C615 1.403 . S
C613 C610 1.403 . S
C613 C614 1.524 . S
C613 C617 1.400 . S
C614 H599 0.960 . S
C614 H600 0.960 . S
C614 H601 0.960 . S
C614 C613 1.524 . S
C615 C612 1.403 . S
C615 C616 1.392 . S
C615 C619 1.495 . S
C616 C615 1.392 . S
C616 C617 1.385 . S
C616 C618 1.478 . S
C617 H611 0.930 . S
C617 C613 1.400 . S
C617 C616 1.385 . S
C618 C616 1.478 . S
C618 C620 1.381 . S
C618 C624 1.383 . S
C619 C615 1.495 . S
C619 H625 0.959 . S
C619 H626 0.961 . S
C619 H627 0.960 . S
C620 C618 1.381 . S
C620 C621 1.394 . S
C620 H628 0.930 . S
C621 C620 1.394 . S
C621 C622 1.383 . S
C621 H629 0.929 . S
C622 C621 1.383 . S
C622 C623 1.377 . S
C623 H607 0.930 . S
C623 C622 1.377 . S
C623 C624 1.379 . S
C624 H608 0.931 . S
C624 C618 1.383 . S
C624 C623 1.379 . S
H625 C619 0.959 . S
H626 C619 0.961 . S
H627 C619 0.960 . S
H628 C620 0.930 . S
H629 C621 0.929 . S
H630 C638 0.929 . S
H631 C640 0.930 . S
H632 C642 0.930 . S
H633 C645 0.929 . S
H634 C648 0.930 . S
H635 C650 0.960 . S
H636 C650 0.960 . S
H637 C650 0.960 . S
C638 H630 0.929 . S
C638 C639 1.377 . S
C638 C640 1.384 . S
C639 C638 1.377 . S
C639 C645 1.390 . S
C640 H631 0.930 . S
C640 C638 1.384 . S
C640 C641 1.372 . S
C641 C640 1.372 . S
C641 C642 1.400 . S
C641 C646 1.490 . S
C642 H632 0.930 . S
C642 C641 1.400 . S
C642 C645 1.386 . S
H643 C659 0.930 . S
H644 C660 0.931 . S
C645 H633 0.929 . S
C645 C639 1.390 . S
C645 C642 1.386 . S
C646 C641 1.490 . S
C646 C648 1.395 . S
C646 C649 1.403 . S
H647 C653 0.930 . S
C648 H634 0.930 . S
C648 C646 1.395 . S
C648 C651 1.403 . S
C649 C646 1.403 . S
C649 C650 1.524 . S
C649 C653 1.400 . S
C650 H635 0.960 . S
C650 H636 0.960 . S
C650 H637 0.960 . S
C650 C649 1.524 . S
C651 C648 1.403 . S
C651 C652 1.392 . S
C651 C655 1.495 . S
C652 C651 1.392 . S
C652 C653 1.385 . S
C652 C654 1.478 . S
C653 H647 0.930 . S
C653 C649 1.400 . S
C653 C652 1.385 . S
C654 C652 1.478 . S
C654 C656 1.381 . S
C654 C660 1.383 . S
C655 C651 1.495 . S
C655 H661 0.959 . S
C655 H662 0.961 . S
C655 H663 0.960 . S
C656 C654 1.381 . S
C656 C657 1.394 . S
C656 H664 0.930 . S
C657 C656 1.394 . S
C657 C658 1.383 . S
C657 H665 0.929 . S
C658 C657 1.383 . S
C658 C659 1.377 . S
C659 H643 0.930 . S
C659 C658 1.377 . S
C659 C660 1.379 . S
C660 H644 0.931 . S
C660 C654 1.383 . S
C660 C659 1.379 . S
H661 C655 0.959 . S
H662 C655 0.961 . S
H663 C655 0.960 . S
H664 C656 0.930 . S
H665 C657 0.929 . S
H666 C674 0.929 . S
H667 C676 0.930 . S
H668 C678 0.930 . S
H669 C681 0.929 . S
H670 C684 0.902 1_554 S
H671 C686 0.960 . S
H672 C686 0.960 . S
H673 C686 0.960 . S
C674 H666 0.929 . S
C674 C675 1.377 . S
C674 C676 1.384 . S
C675 C674 1.377 . S
C675 C681 1.390 . S
C676 H667 0.930 . S
C676 C674 1.384 . S
C676 C677 1.372 . S
C677 C676 1.372 . S
C677 C678 1.400 . S
C677 C682 1.490 . S
C678 H668 0.930 . S
C678 C677 1.400 . S
C678 C681 1.386 . S
H679 C695 0.930 . S
H680 C696 0.931 . S
C681 H669 0.929 . S
C681 C675 1.390 . S
C681 C678 1.386 . S
C682 C677 1.490 . S
C682 C684 1.395 . S
C682 C685 1.403 . S
H683 C689 0.930 . S
C684 H670 0.902 1_556 S
C684 C682 1.395 . S
C684 C687 1.403 1_556 S
C685 C682 1.403 . S
C685 C686 1.524 . S
C685 C689 1.400 . S
C686 H671 0.960 . S
C686 H672 0.960 . S
C686 H673 0.960 . S
C686 C685 1.524 . S
C687 C684 1.403 1_554 S
C687 C688 1.391 1_554 S
C687 C691 1.497 . S
C688 C687 1.391 1_556 S
C688 C689 1.385 . S
C688 C690 1.478 . S
C689 H683 0.930 . S
C689 C685 1.400 . S
C689 C688 1.385 . S
C690 C688 1.478 . S
C690 C692 1.381 1_556 S
C690 C696 1.383 . S
C691 C687 1.497 . S
C691 H697 0.959 . S
C691 H698 0.961 . S
C691 H699 0.960 . S
C692 C690 1.381 1_554 S
C692 C693 1.394 . S
C692 H700 0.930 . S
C693 C692 1.394 . S
C693 C694 1.383 . S
C693 H701 0.929 . S
C694 C693 1.383 . S
C694 C695 1.377 1_554 S
C695 H679 0.930 . S
C695 C694 1.377 1_556 S
C695 C696 1.379 . S
C696 H680 0.931 . S
C696 C690 1.383 . S
C696 C695 1.379 . S
H697 C691 0.959 . S
H698 C691 0.961 . S
H699 C691 0.960 . S
H700 C692 0.930 . S
H701 C693 0.929 . S
H702 C710 0.929 . S
H703 C712 0.930 . S
H704 C714 0.930 . S
H705 C717 0.929 . S
H706 C720 0.930 . S
H707 C722 0.960 . S
H708 C722 0.960 . S
H709 C722 0.960 . S
C710 H702 0.929 . S
C710 C711 1.377 . S
C710 C712 1.384 . S
C711 C710 1.377 . S
C711 C717 1.390 . S
C712 H703 0.930 . S
C712 C710 1.384 . S
C712 C713 1.372 . S
C713 C712 1.372 . S
C713 C714 1.400 . S
C713 C718 1.490 . S
C714 H704 0.930 . S
C714 C713 1.400 . S
C714 C717 1.386 . S
H715 C731 0.930 . S
H716 C732 0.962 . S
C717 H705 0.929 . S
C717 C711 1.390 . S
C717 C714 1.386 . S
C718 C713 1.490 . S
C718 C720 1.395 . S
C718 C721 1.403 . S
H719 C725 0.930 . S
C720 H706 0.930 . S
C720 C718 1.395 . S
C720 C723 1.403 . S
C721 C718 1.403 . S
C721 C722 1.524 . S
C721 C725 1.400 . S
C722 H707 0.960 . S
C722 H708 0.960 . S
C722 H709 0.960 . S
C722 C721 1.524 . S
C723 C720 1.403 . S
C723 C724 1.392 . S
C723 C727 1.495 . S
C724 C723 1.392 . S
C724 C725 1.385 . S
C724 C726 1.478 . S
C725 H719 0.930 . S
C725 C721 1.400 . S
C725 C724 1.385 . S
C726 C724 1.478 . S
C726 C728 1.381 . S
C726 C732 1.329 1_556 S
C727 C723 1.495 . S
C727 H733 0.959 . S
C727 H734 0.961 . S
C727 H735 0.960 . S
C728 C726 1.381 . S
C728 C729 1.394 . S
C728 H736 0.930 . S
C729 C728 1.394 . S
C729 C730 1.383 . S
C729 H737 0.929 . S
C730 C729 1.383 . S
C730 C731 1.377 1_556 S
C731 H715 0.930 . S
C731 C730 1.377 1_554 S
C731 C732 1.405 . S
C732 H716 0.962 . S
C732 C726 1.329 1_554 S
C732 C731 1.405 . S
H733 C727 0.959 . S
H734 C727 0.961 . S
H735 C727 0.960 . S
H736 C728 0.930 . S
H737 C729 0.929 . S
H738 C746 0.929 . S
H739 C748 0.930 1_554 S
H740 C750 0.930 . S
H741 C753 0.929 . S
H742 C756 0.930 . S
H743 C758 0.960 . S
H744 C758 0.960 . S
H745 C758 0.960 . S
C746 H738 0.929 . S
C746 C747 1.377 . S
C746 C748 1.384 . S
C747 C746 1.377 . S
C747 C753 1.390 . S
C748 H739 0.930 1_556 S
C748 C746 1.384 . S
C748 C749 1.372 . S
C749 C748 1.372 . S
C749 C750 1.400 . S
C749 C754 1.490 . S
C750 H740 0.930 . S
C750 C749 1.400 . S
C750 C753 1.386 . S
H751 C767 0.930 . S
H752 C768 0.931 . S
C753 H741 0.929 . S
C753 C747 1.390 . S
C753 C750 1.386 . S
C754 C749 1.490 . S
C754 C756 1.395 1_556 S
C754 C757 1.403 . S
H755 C761 0.930 . S
C756 H742 0.930 . S
C756 C754 1.395 1_554 S
C756 C759 1.403 . S
C757 C754 1.403 . S
C757 C758 1.524 . S
C757 C761 1.400 . S
C758 H743 0.960 . S
C758 H744 0.960 . S
C758 H745 0.960 . S
C758 C757 1.524 . S
C759 C756 1.403 . S
C759 C760 1.376 1_554 S
C759 C763 1.495 . S
C760 C759 1.376 1_556 S
C760 C761 1.407 . S
C760 C762 1.473 1_556 S
C761 H755 0.930 . S
C761 C757 1.400 . S
C761 C760 1.407 . S
C762 C760 1.473 1_554 S
C762 C764 1.381 . S
C762 C768 1.383 1_554 S
C763 C759 1.495 . S
C763 H769 0.959 . S
C763 H770 0.961 . S
C763 H771 0.960 . S
C764 C762 1.381 . S
C764 C765 1.394 . S
C764 H772 0.930 . S
C765 C764 1.394 . S
C765 C766 1.383 . S
C765 H773 0.929 . S
C766 C765 1.383 . S
C766 C767 1.377 1_554 S
C767 H751 0.930 . S
C767 C766 1.377 1_556 S
C767 C768 1.379 . S
C768 H752 0.931 . S
C768 C762 1.383 1_556 S
C768 C767 1.379 . S
H769 C763 0.959 . S
H770 C763 0.961 . S
H771 C763 0.960 . S
H772 C764 0.930 . S
H773 C765 0.929 . S
H774 C782 0.929 . S
H775 C784 0.930 . S
H776 C786 0.930 . S
H777 C789 0.929 . S
H778 C792 0.930 . S
H779 C794 0.960 . S
H780 C794 0.960 . S
H781 C794 0.960 . S
C782 H774 0.929 . S
C782 C783 1.377 . S
C782 C784 1.384 . S
C783 C782 1.377 . S
C783 C789 1.390 . S
C784 H775 0.930 . S
C784 C782 1.384 . S
C784 C785 1.372 . S
C785 C784 1.372 . S
C785 C786 1.400 . S
C785 C790 1.490 . S
C786 H776 0.930 . S
C786 C785 1.400 . S
C786 C789 1.386 . S
H787 C803 0.930 . S
H788 C804 0.931 . S
C789 H777 0.929 . S
C789 C783 1.390 . S
C789 C786 1.386 . S
C790 C785 1.490 . S
C790 C792 1.395 . S
C790 C793 1.403 . S
H791 C797 0.930 1_554 S
C792 H778 0.930 . S
C792 C790 1.395 . S
C792 C795 1.403 . S
C793 C790 1.403 . S
C793 C794 1.524 1_556 S
C793 C797 1.400 . S
C794 H779 0.960 . S
C794 H780 0.960 . S
C794 H781 0.960 . S
C794 C793 1.524 1_554 S
C795 C792 1.403 . S
C795 C796 1.392 . S
C795 C799 1.495 . S
C796 C795 1.392 . S
C796 C797 1.385 . S
C796 C798 1.478 . S
C797 H791 0.930 1_556 S
C797 C793 1.400 . S
C797 C796 1.385 . S
C798 C796 1.478 . S
C798 C800 1.381 . S
C798 C804 1.383 . S
C799 C795 1.495 . S
C799 H805 0.959 . S
C799 H806 0.961 . S
C799 H807 0.960 . S
C800 C798 1.381 . S
C800 C801 1.394 . S
C800 H808 0.930 . S
C801 C800 1.394 . S
C801 C802 1.383 . S
C801 H809 0.922 1_556 S
C802 C801 1.383 . S
C802 C803 1.377 . S
C803 H787 0.930 . S
C803 C802 1.377 . S
C803 C804 1.379 . S
C804 H788 0.931 . S
C804 C798 1.383 . S
C804 C803 1.379 . S
H805 C799 0.959 . S
H806 C799 0.961 . S
H807 C799 0.960 . S
H808 C800 0.930 . S
H809 C801 0.922 1_554 S
H810 C818 0.929 . S
H811 C820 0.930 . S
H812 C822 0.930 . S
H813 C825 0.929 . S
H814 C828 0.930 . S
H815 C830 0.960 1_554 S
H816 C830 0.960 . S
H817 C830 0.960 . S
C818 H810 0.929 . S
C818 C819 1.377 . S
C818 C820 1.384 . S
C819 C818 1.377 . S
C819 C825 1.390 . S
C820 H811 0.930 . S
C820 C818 1.384 . S
C820 C821 1.372 . S
C821 C820 1.372 . S
C821 C822 1.400 . S
C821 C826 1.490 . S
C822 H812 0.930 . S
C822 C821 1.400 . S
C822 C825 1.386 . S
H823 C839 0.968 . S
H824 C840 0.931 1_554 S
C825 H813 0.929 . S
C825 C819 1.390 . S
C825 C822 1.386 . S
C826 C821 1.490 . S
C826 C828 1.395 . S
C826 C829 1.403 . S
H827 C833 0.930 . S
C828 H814 0.930 . S
C828 C826 1.395 . S
C828 C831 1.403 . S
C829 C826 1.403 . S
C829 C830 1.524 . S
C829 C833 1.400 . S
C830 H815 0.960 1_556 S
C830 H816 0.960 . S
C830 H817 0.960 . S
C830 C829 1.524 . S
C831 C828 1.403 . S
C831 C832 1.392 . S
C831 C835 1.495 . S
C832 C831 1.392 . S
C832 C833 1.385 . S
C832 C834 1.478 . S
C833 H827 0.930 . S
C833 C829 1.400 . S
C833 C832 1.385 . S
C834 C832 1.478 . S
C834 C836 1.381 . S
C834 C840 1.383 . S
C835 C831 1.495 . S
C835 H841 0.959 . S
C835 H842 0.961 . S
C835 H843 0.960 . S
C836 C834 1.381 . S
C836 C837 1.394 . S
C836 H844 0.930 . S
C837 C836 1.394 . S
C837 C838 1.383 . S
C837 H845 0.929 . S
C838 C837 1.383 . S
C838 C839 1.353 1_556 S
C839 H823 0.968 . S
C839 C838 1.353 1_554 S
C839 C840 1.367 1_554 S
C840 H824 0.931 1_556 S
C840 C834 1.383 . S
C840 C839 1.367 1_556 S
H841 C835 0.959 . S
H842 C835 0.961 . S
H843 C835 0.960 . S
H844 C836 0.930 . S
H845 C837 0.929 . S
H846 C854 0.929 . S
H847 C856 0.930 . S
H848 C858 0.930 . S
H849 C861 0.929 . S
H850 C864 0.929 . S
H851 C866 0.960 . S
H852 C866 0.960 1_554 S
H853 C866 0.960 . S
C854 H846 0.929 . S
C854 C855 1.377 1_554 S
C854 C856 1.384 . S
C855 C854 1.377 1_556 S
C855 C861 1.390 . S
C856 H847 0.930 . S
C856 C854 1.384 . S
C856 C857 1.372 1_554 S
C857 C856 1.372 1_556 S
C857 C858 1.400 . S
C857 C862 1.490 . S
C858 H848 0.930 . S
C858 C857 1.400 . S
C858 C861 1.386 . S
H859 C875 0.930 . S
H860 C876 0.931 . S
C861 H849 0.929 . S
C861 C855 1.390 . S
C861 C858 1.386 . S
C862 C857 1.490 . S
C862 C864 1.395 . S
C862 C865 1.403 . S
H863 C869 0.930 . S
C864 H850 0.929 . S
C864 C862 1.395 . S
C864 C867 1.403 1_556 S
C865 C862 1.403 . S
C865 C866 1.524 . S
C865 C869 1.400 1_556 S
C866 H851 0.960 . S
C866 H852 0.960 1_556 S
C866 H853 0.960 . S
C866 C865 1.524 . S
C867 C864 1.403 1_554 S
C867 C868 1.392 . S
C867 C871 1.495 . S
C868 C867 1.392 . S
C868 C869 1.385 . S
C868 C870 1.478 . S
C869 H863 0.930 . S
C869 C865 1.400 1_554 S
C869 C868 1.385 . S
C870 C868 1.478 . S
C870 C872 1.381 . S
C870 C876 1.383 1_554 S
C871 C867 1.495 . S
C871 H877 0.959 . S
C871 H878 0.961 1_554 S
C871 H879 0.960 . S
C872 C870 1.381 . S
C872 C873 1.394 . S
C872 H880 0.930 . S
C873 C872 1.394 . S
C873 C874 1.383 . S
C873 H881 0.929 . S
C874 C873 1.383 . S
C874 C875 1.377 1_554 S
C875 H859 0.930 . S
C875 C874 1.377 1_556 S
C875 C876 1.379 . S
C876 H860 0.931 . S
C876 C870 1.383 1_556 S
C876 C875 1.379 . S
H877 C871 0.959 . S
H878 C871 0.961 1_556 S
H879 C871 0.960 . S
H880 C872 0.930 . S
H881 C873 0.929 . S
H882 C890 0.929 . S
H883 C892 0.930 . S
H884 C894 0.930 . S
H885 C897 0.929 . S
H886 C900 0.930 . S
H887 C902 0.960 . S
H888 C902 0.960 . S
H889 C902 0.960 . S
C890 H882 0.929 . S
C890 C891 1.377 . S
C890 C892 1.384 . S
C891 C890 1.377 . S
C891 C897 1.390 . S
C892 H883 0.930 . S
C892 C890 1.384 . S
C892 C893 1.372 . S
C893 C892 1.372 . S
C893 C894 1.400 . S
C893 C898 1.490 . S
C894 H884 0.930 . S
C894 C893 1.400 . S
C894 C897 1.386 . S
H895 C911 0.930 . S
H896 C912 0.931 . S
C897 H885 0.929 . S
C897 C891 1.390 . S
C897 C894 1.386 . S
C898 C893 1.490 . S
C898 C900 1.395 . S
C898 C901 1.403 . S
H899 C905 0.930 . S
C900 H886 0.930 . S
C900 C898 1.395 . S
C900 C903 1.403 . S
C901 C898 1.403 . S
C901 C902 1.524 . S
C901 C905 1.400 . S
C902 H887 0.960 . S
C902 H888 0.960 . S
C902 H889 0.960 . S
C902 C901 1.524 . S
C903 C900 1.403 . S
C903 C904 1.392 . S
C903 C907 1.495 . S
C904 C903 1.392 . S
C904 C905 1.385 . S
C904 C906 1.478 . S
C905 H899 0.930 . S
C905 C901 1.400 . S
C905 C904 1.385 . S
C906 C904 1.478 . S
C906 C908 1.381 . S
C906 C912 1.383 . S
C907 C903 1.495 . S
C907 H913 0.959 1_554 S
C907 H914 0.961 . S
C907 H915 0.960 1_554 S
C908 C906 1.381 . S
C908 C909 1.394 . S
C908 H916 0.930 . S
C909 C908 1.394 . S
C909 C910 1.383 . S
C909 H917 0.944 . S
C910 C909 1.383 . S
C910 C911 1.377 . S
C911 H895 0.930 . S
C911 C910 1.377 . S
C911 C912 1.379 . S
C912 H896 0.931 . S
C912 C906 1.383 . S
C912 C911 1.379 . S
H913 C907 0.959 1_556 S
H914 C907 0.961 . S
H915 C907 0.960 1_556 S
H916 C908 0.930 . S
H917 C909 0.944 . S
H918 C926 0.929 . S
H919 C928 0.930 . S
H920 C930 0.930 . S
H921 C933 0.929 . S
H922 C936 0.930 . S
H923 C938 0.960 . S
H924 C938 0.960 . S
H925 C938 0.960 . S
C926 H918 0.929 . S
C926 C927 1.377 . S
C926 C928 1.384 . S
C927 C926 1.377 . S
C927 C933 1.390 . S
C928 H919 0.930 . S
C928 C926 1.384 . S
C928 C929 1.372 . S
C929 C928 1.372 . S
C929 C930 1.400 . S
C929 C934 1.490 . S
C930 H920 0.930 . S
C930 C929 1.400 . S
C930 C933 1.386 . S
H931 C947 0.930 . S
H932 C948 0.931 . S
C933 H921 0.929 . S
C933 C927 1.390 . S
C933 C930 1.386 . S
C934 C929 1.490 . S
C934 C936 1.395 . S
C934 C937 1.403 . S
H935 C941 0.930 . S
C936 H922 0.930 . S
C936 C934 1.395 . S
C936 C939 1.403 . S
C937 C934 1.403 . S
C937 C938 1.524 . S
C937 C941 1.400 . S
C938 H923 0.960 . S
C938 H924 0.960 . S
C938 H925 0.960 . S
C938 C937 1.524 . S
C939 C936 1.403 . S
C939 C940 1.392 . S
C939 C943 1.495 . S
C940 C939 1.392 . S
C940 C941 1.385 . S
C940 C942 1.478 . S
C941 H935 0.930 . S
C941 C937 1.400 . S
C941 C940 1.385 . S
C942 C940 1.478 . S
C942 C944 1.381 . S
C942 C948 1.383 . S
C943 C939 1.495 . S
C943 H949 0.959 . S
C943 H950 0.961 . S
C943 H951 0.960 . S
C944 C942 1.381 . S
C944 C945 1.394 . S
C944 H952 0.930 . S
C945 C944 1.394 . S
C945 C946 1.383 . S
C945 H953 0.929 . S
C946 C945 1.383 . S
C946 C947 1.377 . S
C947 H931 0.930 . S
C947 C946 1.377 . S
C947 C948 1.379 . S
C948 H932 0.931 . S
C948 C942 1.383 . S
C948 C947 1.379 . S
H949 C943 0.959 . S
H950 C943 0.961 . S
H951 C943 0.960 . S
H952 C944 0.930 . S
H953 C945 0.929 . S
H954 C962 0.929 . S
H955 C964 0.930 . S
H956 C966 0.930 . S
H957 C969 0.929 . S
H958 C972 0.930 . S
H959 C974 0.960 . S
H960 C974 0.960 . S
H961 C974 0.960 . S
C962 H954 0.929 . S
C962 C963 1.377 . S
C962 C964 1.384 . S
C963 C962 1.377 . S
C963 C969 1.390 . S
C964 H955 0.930 . S
C964 C962 1.384 . S
C964 C965 1.372 . S
C965 C964 1.372 . S
C965 C966 1.400 . S
C965 C970 1.490 . S
C966 H956 0.930 . S
C966 C965 1.400 . S
C966 C969 1.386 . S
H967 C983 0.930 1_556 S
H968 C984 0.949 . S
C969 H957 0.929 . S
C969 C963 1.390 . S
C969 C966 1.386 . S
C970 C965 1.490 . S
C970 C972 1.395 . S
C970 C973 1.403 . S
H971 C977 0.930 . S
C972 H958 0.930 . S
C972 C970 1.395 . S
C972 C975 1.403 . S
C973 C970 1.403 . S
C973 C974 1.524 . S
C973 C977 1.400 . S
C974 H959 0.960 . S
C974 H960 0.960 . S
C974 H961 0.960 . S
C974 C973 1.524 . S
C975 C972 1.403 . S
C975 C976 1.392 . S
C975 C979 1.495 . S
C976 C975 1.392 . S
C976 C977 1.385 . S
C976 C978 1.478 . S
C977 H971 0.930 . S
C977 C973 1.400 . S
C977 C976 1.385 . S
C978 C976 1.478 . S
C978 C980 1.381 . S
C978 C984 1.383 . S
C979 C975 1.495 . S
C979 H985 0.959 . S
C979 H986 0.961 . S
C979 H987 0.960 . S
C980 C978 1.381 . S
C980 C981 1.394 . S
C980 H988 0.930 . S
C981 C980 1.394 . S
C981 C982 1.383 . S
C981 H989 0.929 . S
C982 C981 1.383 . S
C982 C983 1.377 . S
C983 H967 0.930 1_554 S
C983 C982 1.377 . S
C983 C984 1.379 . S
C984 H968 0.949 . S
C984 C978 1.383 . S
C984 C983 1.379 . S
H985 C979 0.959 . S
H986 C979 0.961 . S
H987 C979 0.960 . S
H988 C980 0.930 . S
H989 C981 0.929 . S
H990 C998 0.929 . S
H991 C1000 0.930 . S
H992 C1002 0.930 . S
H993 C1005 0.929 . S
H994 C1008 0.930 . S
H995 C1010 0.960 . S
H996 C1010 0.960 . S
H997 C1010 0.960 . S
C998 H990 0.929 . S
C998 C999 1.377 . S
C998 C1000 1.384 . S
C999 C998 1.377 . S
C999 C1005 1.390 . S
C1000 H991 0.930 . S
C1000 C998 1.384 . S
C1000 C1001 1.372 . S
C1001 C1000 1.372 . S
C1001 C1002 1.400 . S
C1001 C1006 1.490 . S
C1002 H992 0.930 . S
C1002 C1001 1.400 . S
C1002 C1005 1.386 . S
H1003 C1019 0.930 . S
H1004 C1020 0.931 . S
C1005 H993 0.929 . S
C1005 C999 1.390 . S
C1005 C1002 1.386 . S
C1006 C1001 1.490 . S
C1006 C1008 1.395 . S
C1006 C1009 1.403 . S
H1007 C1013 0.930 . S
C1008 H994 0.930 . S
C1008 C1006 1.395 . S
C1008 C1011 1.403 1_655 S
C1009 C1006 1.403 . S
C1009 C1010 1.524 . S
C1009 C1013 1.400 1_655 S
C1010 H995 0.960 . S
C1010 H996 0.960 . S
C1010 H997 0.960 . S
C1010 C1009 1.524 . S
C1011 C1008 1.403 1_455 S
C1011 C1012 1.392 . S
C1011 C1015 1.495 . S
C1012 C1011 1.392 . S
C1012 C1013 1.385 . S
C1012 C1014 1.478 . S
C1013 H1007 0.930 . S
C1013 C1009 1.400 1_455 S
C1013 C1012 1.385 . S
C1014 C1012 1.478 . S
C1014 C1016 1.381 . S
C1014 C1020 1.383 . S
C1015 C1011 1.495 . S
C1015 H1021 0.959 . S
C1015 H1022 0.961 . S
C1015 H1023 0.960 . S
C1016 C1014 1.381 . S
C1016 C1017 1.394 . S
C1016 H1024 0.930 . S
C1017 C1016 1.394 . S
C1017 C1018 1.383 . S
C1017 H1025 0.929 . S
C1018 C1017 1.383 . S
C1018 C1019 1.377 . S
C1019 H1003 0.930 . S
C1019 C1018 1.377 . S
C1019 C1020 1.379 . S
C1020 H1004 0.931 . S
C1020 C1014 1.383 . S
C1020 C1019 1.379 . S
H1021 C1015 0.959 . S
H1022 C1015 0.961 . S
H1023 C1015 0.960 . S
H1024 C1016 0.930 . S
H1025 C1017 0.929 . S
H1026 C1034 0.929 . S
H1027 C1036 0.930 . S
H1028 C1038 0.930 . S
H1029 C1041 0.929 . S
H1030 C1044 0.930 . S
H1031 C1046 0.960 . S
H1032 C1046 0.960 . S
H1033 C1046 0.960 . S
C1034 H1026 0.929 . S
C1034 C1035 1.377 . S
C1034 C1036 1.384 . S
C1035 C1034 1.377 . S
C1035 C1041 1.390 . S
C1036 H1027 0.930 . S
C1036 C1034 1.384 . S
C1036 C1037 1.372 . S
C1037 C1036 1.372 . S
C1037 C1038 1.400 . S
C1037 C1042 1.490 . S
C1038 H1028 0.930 . S
C1038 C1037 1.400 . S
C1038 C1041 1.386 . S
H1039 C1055 0.930 . S
H1040 C1056 0.931 . S
C1041 H1029 0.929 . S
C1041 C1035 1.390 . S
C1041 C1038 1.386 . S
C1042 C1037 1.490 . S
C1042 C1044 1.395 . S
C1042 C1045 1.403 . S
H1043 C1049 0.930 . S
C1044 H1030 0.930 . S
C1044 C1042 1.395 . S
C1044 C1047 1.403 . S
C1045 C1042 1.403 . S
C1045 C1046 1.524 . S
C1045 C1049 1.400 . S
C1046 H1031 0.960 . S
C1046 H1032 0.960 . S
C1046 H1033 0.960 . S
C1046 C1045 1.524 . S
C1047 C1044 1.403 . S
C1047 C1048 1.392 . S
C1047 C1051 1.495 . S
C1048 C1047 1.392 . S
C1048 C1049 1.385 . S
C1048 C1050 1.478 . S
C1049 H1043 0.930 . S
C1049 C1045 1.400 . S
C1049 C1048 1.385 . S
C1050 C1048 1.478 . S
C1050 C1052 1.381 . S
C1050 C1056 1.383 . S
C1051 C1047 1.495 . S
C1051 H1057 0.959 . S
C1051 H1058 0.961 . S
C1051 H1059 0.960 . S
C1052 C1050 1.381 . S
C1052 C1053 1.394 . S
C1052 H1060 0.930 . S
C1053 C1052 1.394 . S
C1053 C1054 1.383 . S
C1053 H1061 0.929 . S
C1054 C1053 1.383 . S
C1054 C1055 1.377 . S
C1055 H1039 0.930 . S
C1055 C1054 1.377 . S
C1055 C1056 1.379 . S
C1056 H1040 0.931 . S
C1056 C1050 1.383 . S
C1056 C1055 1.379 . S
H1057 C1051 0.959 . S
H1058 C1051 0.961 . S
H1059 C1051 0.960 . S
H1060 C1052 0.930 . S
H1061 C1053 0.929 . S
H1062 C1070 0.929 . S
H1063 C1072 0.930 . S
H1064 C1074 0.930 . S
H1065 C1077 0.929 . S
H1066 C1080 0.930 . S
H1067 C1082 0.960 . S
H1068 C1082 0.960 . S
H1069 C1082 0.960 . S
C1070 H1062 0.929 . S
C1070 C1071 1.377 . S
C1070 C1072 1.384 . S
C1071 C1070 1.377 . S
C1071 C1077 1.390 . S
C1072 H1063 0.930 . S
C1072 C1070 1.384 . S
C1072 C1073 1.372 . S
C1073 C1072 1.372 . S
C1073 C1074 1.400 . S
C1073 C1078 1.490 . S
C1074 H1064 0.930 . S
C1074 C1073 1.400 . S
C1074 C1077 1.386 . S
H1075 C1091 0.930 . S
H1076 C1092 0.931 . S
C1077 H1065 0.929 . S
C1077 C1071 1.390 . S
C1077 C1074 1.386 . S
C1078 C1073 1.490 . S
C1078 C1080 1.395 . S
C1078 C1081 1.403 . S
H1079 C1085 0.930 1_565 S
C1080 H1066 0.930 . S
C1080 C1078 1.395 . S
C1080 C1083 1.403 . S
C1081 C1078 1.403 . S
C1081 C1082 1.524 . S
C1081 C1085 1.400 . S
C1082 H1067 0.960 . S
C1082 H1068 0.960 . S
C1082 H1069 0.960 . S
C1082 C1081 1.524 . S
C1083 C1080 1.403 . S
C1083 C1084 1.392 1_545 S
C1083 C1087 1.497 . S
C1084 C1083 1.392 1_565 S
C1084 C1085 1.385 1_565 S
C1084 C1086 1.478 . S
C1085 H1079 0.930 1_545 S
C1085 C1081 1.400 . S
C1085 C1084 1.385 1_545 S
C1086 C1084 1.478 . S
C1086 C1088 1.381 . S
C1086 C1092 1.383 . S
C1087 C1083 1.497 . S
C1087 H1093 0.963 . S
C1087 H1094 0.957 1_545 S
C1087 H1095 0.958 1_545 S
C1088 C1086 1.381 . S
C1088 C1089 1.394 . S
C1088 H1096 0.930 . S
C1089 C1088 1.394 . S
C1089 C1090 1.383 . S
C1089 H1097 0.929 . S
C1090 C1089 1.383 . S
C1090 C1091 1.377 . S
C1091 H1075 0.930 . S
C1091 C1090 1.377 . S
C1091 C1092 1.379 . S
C1092 H1076 0.931 . S
C1092 C1086 1.383 . S
C1092 C1091 1.379 . S
H1093 C1087 0.963 . S
H1094 C1087 0.957 1_565 S
H1095 C1087 0.958 1_565 S
H1096 C1088 0.930 . S
H1097 C1089 0.929 . S
H1098 C1106 0.929 . S
H1099 C1108 0.930 . S
H1100 C1110 0.930 . S
H1101 C1113 0.929 . S
H1102 C1116 0.930 . S
H1103 C1118 0.960 . S
H1104 C1118 0.960 . S
H1105 C1118 0.960 . S
C1106 H1098 0.929 . S
C1106 C1107 1.377 . S
C1106 C1108 1.384 . S
C1107 C1106 1.377 . S
C1107 C1113 1.390 . S
C1108 H1099 0.930 . S
C1108 C1106 1.384 . S
C1108 C1109 1.372 . S
C1109 C1108 1.372 . S
C1109 C1110 1.400 . S
C1109 C1114 1.490 . S
C1110 H1100 0.930 . S
C1110 C1109 1.400 . S
C1110 C1113 1.386 . S
H1111 C1127 0.930 . S
H1112 C1128 0.931 . S
C1113 H1101 0.929 . S
C1113 C1107 1.390 . S
C1113 C1110 1.386 . S
C1114 C1109 1.490 . S
C1114 C1116 1.395 . S
C1114 C1117 1.403 . S
H1115 C1121 0.930 . S
C1116 H1102 0.930 . S
C1116 C1114 1.395 . S
C1116 C1119 1.403 . S
C1117 C1114 1.403 . S
C1117 C1118 1.524 . S
C1117 C1121 1.400 . S
C1118 H1103 0.960 . S
C1118 H1104 0.960 . S
C1118 H1105 0.960 . S
C1118 C1117 1.524 . S
C1119 C1116 1.403 . S
C1119 C1120 1.392 . S
C1119 C1123 1.495 . S
C1120 C1119 1.392 . S
C1120 C1121 1.385 . S
C1120 C1122 1.478 . S
C1121 H1115 0.930 . S
C1121 C1117 1.400 . S
C1121 C1120 1.385 . S
C1122 C1120 1.478 . S
C1122 C1124 1.381 . S
C1122 C1128 1.383 . S
C1123 C1119 1.495 . S
C1123 H1129 0.959 . S
C1123 H1130 0.961 . S
C1123 H1131 0.960 . S
C1124 C1122 1.381 . S
C1124 C1125 1.394 . S
C1124 H1132 0.930 . S
C1125 C1124 1.394 . S
C1125 C1126 1.383 . S
C1125 H1133 0.929 . S
C1126 C1125 1.383 . S
C1126 C1127 1.377 . S
C1127 H1111 0.930 . S
C1127 C1126 1.377 . S
C1127 C1128 1.379 . S
C1128 H1112 0.931 . S
C1128 C1122 1.383 . S
C1128 C1127 1.379 . S
H1129 C1123 0.959 . S
H1130 C1123 0.961 . S
H1131 C1123 0.960 . S
H1132 C1124 0.930 . S
H1133 C1125 0.929 . S
H1134 C1142 0.929 . S
H1135 C1144 0.930 . S
H1136 C1146 0.930 . S
H1137 C1149 0.929 . S
H1138 C1152 0.930 . S
H1139 C1154 0.960 . S
H1140 C1154 0.960 . S
H1141 C1154 0.960 . S
C1142 H1134 0.929 . S
C1142 C1143 1.377 . S
C1142 C1144 1.384 . S
C1143 C1142 1.377 . S
C1143 C1149 1.390 . S
C1144 H1135 0.930 . S
C1144 C1142 1.384 . S
C1144 C1145 1.372 . S
C1145 C1144 1.372 . S
C1145 C1146 1.400 . S
C1145 C1150 1.490 . S
C1146 H1136 0.930 . S
C1146 C1145 1.400 . S
C1146 C1149 1.386 . S
H1147 C1163 0.930 . S
H1148 C1164 0.931 . S
C1149 H1137 0.929 . S
C1149 C1143 1.390 . S
C1149 C1146 1.386 . S
C1150 C1145 1.490 . S
C1150 C1152 1.395 . S
C1150 C1153 1.403 . S
H1151 C1157 0.930 . S
C1152 H1138 0.930 . S
C1152 C1150 1.395 . S
C1152 C1155 1.403 . S
C1153 C1150 1.403 . S
C1153 C1154 1.524 . S
C1153 C1157 1.400 . S
C1154 H1139 0.960 . S
C1154 H1140 0.960 . S
C1154 H1141 0.960 . S
C1154 C1153 1.524 . S
C1155 C1152 1.403 . S
C1155 C1156 1.392 . S
C1155 C1159 1.495 . S
C1156 C1155 1.392 . S
C1156 C1157 1.385 . S
C1156 C1158 1.478 . S
C1157 H1151 0.930 . S
C1157 C1153 1.400 . S
C1157 C1156 1.385 . S
C1158 C1156 1.478 . S
C1158 C1160 1.381 . S
C1158 C1164 1.383 . S
C1159 C1155 1.495 . S
C1159 H1165 0.959 . S
C1159 H1166 0.961 . S
C1159 H1167 0.960 . S
C1160 C1158 1.381 . S
C1160 C1161 1.394 . S
C1160 H1168 0.930 . S
C1161 C1160 1.394 . S
C1161 C1162 1.383 . S
C1161 H1169 0.929 . S
C1162 C1161 1.383 . S
C1162 C1163 1.377 . S
C1163 H1147 0.930 . S
C1163 C1162 1.377 . S
C1163 C1164 1.379 . S
C1164 H1148 0.931 . S
C1164 C1158 1.383 . S
C1164 C1163 1.379 . S
H1165 C1159 0.959 . S
H1166 C1159 0.961 . S
H1167 C1159 0.960 . S
H1168 C1160 0.930 . S
H1169 C1161 0.929 . S
H1170 C1178 0.929 . S
H1171 C1180 0.930 . S
H1172 C1182 0.930 . S
H1173 C1185 0.929 . S
H1174 C1188 0.930 . S
H1175 C1190 0.960 . S
H1176 C1190 0.960 . S
H1177 C1190 0.960 . S
C1178 H1170 0.929 . S
C1178 C1179 1.377 . S
C1178 C1180 1.384 . S
C1179 C1178 1.377 . S
C1179 C1185 1.390 . S
C1180 H1171 0.930 . S
C1180 C1178 1.384 . S
C1180 C1181 1.372 . S
C1181 C1180 1.372 . S
C1181 C1182 1.400 . S
C1181 C1186 1.490 . S
C1182 H1172 0.930 . S
C1182 C1181 1.400 . S
C1182 C1185 1.386 . S
H1183 C1199 0.930 . S
H1184 C1200 0.931 . S
C1185 H1173 0.929 . S
C1185 C1179 1.390 . S
C1185 C1182 1.386 . S
C1186 C1181 1.490 . S
C1186 C1188 1.395 . S
C1186 C1189 1.403 . S
H1187 C1193 0.930 . S
C1188 H1174 0.930 . S
C1188 C1186 1.395 . S
C1188 C1191 1.403 . S
C1189 C1186 1.403 . S
C1189 C1190 1.524 . S
C1189 C1193 1.400 . S
C1190 H1175 0.960 . S
C1190 H1176 0.960 . S
C1190 H1177 0.960 . S
C1190 C1189 1.524 . S
C1191 C1188 1.403 . S
C1191 C1192 1.392 . S
C1191 C1195 1.495 . S
C1192 C1191 1.392 . S
C1192 C1193 1.385 . S
C1192 C1194 1.478 . S
C1193 H1187 0.930 . S
C1193 C1189 1.400 . S
C1193 C1192 1.385 . S
C1194 C1192 1.478 . S
C1194 C1196 1.381 . S
C1194 C1200 1.383 . S
C1195 C1191 1.495 . S
C1195 H1201 0.959 . S
C1195 H1202 0.961 . S
C1195 H1203 0.960 . S
C1196 C1194 1.381 . S
C1196 C1197 1.394 . S
C1196 H1204 0.930 . S
C1197 C1196 1.394 . S
C1197 C1198 1.383 . S
C1197 H1205 0.929 . S
C1198 C1197 1.383 . S
C1198 C1199 1.377 . S
C1199 H1183 0.930 . S
C1199 C1198 1.377 . S
C1199 C1200 1.379 . S
C1200 H1184 0.931 . S
C1200 C1194 1.383 . S
C1200 C1199 1.379 . S
H1201 C1195 0.959 . S
H1202 C1195 0.961 . S
H1203 C1195 0.960 . S
H1204 C1196 0.930 . S
H1205 C1197 0.929 . S
H1206 C1214 0.929 . S
H1207 C1216 0.930 . S
H1208 C1218 0.930 . S
H1209 C1221 0.929 . S
H1210 C1224 0.930 . S
H1211 C1226 0.960 . S
H1212 C1226 0.960 . S
H1213 C1226 0.960 . S
C1214 H1206 0.929 . S
C1214 C1215 1.377 . S
C1214 C1216 1.384 . S
C1215 C1214 1.377 . S
C1215 C1221 1.390 . S
C1216 H1207 0.930 . S
C1216 C1214 1.384 . S
C1216 C1217 1.372 . S
C1217 C1216 1.372 . S
C1217 C1218 1.400 . S
C1217 C1222 1.490 . S
C1218 H1208 0.930 . S
C1218 C1217 1.400 . S
C1218 C1221 1.386 . S
H1219 C1235 0.930 . S
H1220 C1236 0.931 . S
C1221 H1209 0.929 . S
C1221 C1215 1.390 . S
C1221 C1218 1.386 . S
C1222 C1217 1.490 . S
C1222 C1224 1.395 . S
C1222 C1225 1.403 . S
H1223 C1229 0.930 . S
C1224 H1210 0.930 . S
C1224 C1222 1.395 . S
C1224 C1227 1.403 . S
C1225 C1222 1.403 . S
C1225 C1226 1.524 . S
C1225 C1229 1.400 . S
C1226 H1211 0.960 . S
C1226 H1212 0.960 . S
C1226 H1213 0.960 . S
C1226 C1225 1.524 . S
C1227 C1224 1.403 . S
C1227 C1228 1.392 . S
C1227 C1231 1.495 . S
C1228 C1227 1.392 . S
C1228 C1229 1.385 . S
C1228 C1230 1.478 . S
C1229 H1223 0.930 . S
C1229 C1225 1.400 . S
C1229 C1228 1.385 . S
C1230 C1228 1.478 . S
C1230 C1232 1.381 . S
C1230 C1236 1.383 . S
C1231 C1227 1.495 . S
C1231 H1237 0.959 . S
C1231 H1238 0.961 . S
C1231 H1239 0.960 . S
C1232 C1230 1.381 . S
C1232 C1233 1.394 . S
C1232 H1240 0.930 . S
C1233 C1232 1.394 . S
C1233 C1234 1.383 . S
C1233 H1241 0.929 . S
C1234 C1233 1.383 . S
C1234 C1235 1.377 . S
C1235 H1219 0.930 . S
C1235 C1234 1.377 . S
C1235 C1236 1.379 . S
C1236 H1220 0.931 . S
C1236 C1230 1.383 . S
C1236 C1235 1.379 . S
H1237 C1231 0.959 . S
H1238 C1231 0.961 . S
H1239 C1231 0.960 . S
H1240 C1232 0.930 . S
H1241 C1233 0.929 . S
H1242 C1250 0.929 . S
H1243 C1252 0.930 . S
H1244 C1254 0.930 . S
H1245 C1257 0.929 . S
H1246 C1260 0.930 . S
H1247 C1262 0.960 . S
H1248 C1262 0.960 . S
H1249 C1262 0.960 . S
C1250 H1242 0.929 . S
C1250 C1251 1.377 . S
C1250 C1252 1.384 . S
C1251 C1250 1.377 . S
C1251 C1257 1.390 . S
C1252 H1243 0.930 . S
C1252 C1250 1.384 . S
C1252 C1253 1.372 . S
C1253 C1252 1.372 . S
C1253 C1254 1.400 . S
C1253 C1258 1.490 . S
C1254 H1244 0.930 . S
C1254 C1253 1.400 . S
C1254 C1257 1.386 . S
H1255 C1271 0.930 . S
H1256 C1272 0.931 . S
C1257 H1245 0.929 . S
C1257 C1251 1.390 . S
C1257 C1254 1.386 . S
C1258 C1253 1.490 . S
C1258 C1260 1.395 . S
C1258 C1261 1.403 . S
H1259 C1265 0.930 . S
C1260 H1246 0.930 . S
C1260 C1258 1.395 . S
C1260 C1263 1.403 . S
C1261 C1258 1.403 . S
C1261 C1262 1.524 . S
C1261 C1265 1.400 . S
C1262 H1247 0.960 . S
C1262 H1248 0.960 . S
C1262 H1249 0.960 . S
C1262 C1261 1.524 . S
C1263 C1260 1.403 . S
C1263 C1264 1.392 . S
C1263 C1267 1.495 . S
C1264 C1263 1.392 . S
C1264 C1265 1.385 . S
C1264 C1266 1.478 . S
C1265 H1259 0.930 . S
C1265 C1261 1.400 . S
C1265 C1264 1.385 . S
C1266 C1264 1.478 . S
C1266 C1268 1.381 . S
C1266 C1272 1.383 . S
C1267 C1263 1.495 . S
C1267 H1273 0.959 . S
C1267 H1274 0.961 . S
C1267 H1275 0.960 . S
C1268 C1266 1.381 . S
C1268 C1269 1.394 . S
C1268 H1276 0.930 . S
C1269 C1268 1.394 . S
C1269 C1270 1.383 . S
C1269 H1277 0.929 . S
C1270 C1269 1.383 . S
C1270 C1271 1.377 . S
C1271 H1255 0.930 . S
C1271 C1270 1.377 . S
C1271 C1272 1.379 . S
C1272 H1256 0.931 . S
C1272 C1266 1.383 . S
C1272 C1271 1.379 . S
H1273 C1267 0.959 . S
H1274 C1267 0.961 . S
H1275 C1267 0.960 . S
H1276 C1268 0.930 . S
H1277 C1269 0.929 . S
H1278 C1286 0.929 . S
H1279 C1288 0.930 . S
H1280 C1290 0.930 . S
H1281 C1293 0.929 . S
H1282 C1296 0.930 . S
H1283 C1298 0.960 . S
H1284 C1298 0.960 . S
H1285 C1298 0.960 . S
C1286 H1278 0.929 . S
C1286 C1287 1.377 . S
C1286 C1288 1.384 . S
C1287 C1286 1.377 . S
C1287 C1293 1.390 . S
C1288 H1279 0.930 . S
C1288 C1286 1.384 . S
C1288 C1289 1.372 . S
C1289 C1288 1.372 . S
C1289 C1290 1.400 . S
C1289 C1294 1.490 . S
C1290 H1280 0.930 . S
C1290 C1289 1.400 . S
C1290 C1293 1.386 . S
H1291 C1307 0.930 . S
H1292 C1308 0.931 . S
C1293 H1281 0.929 . S
C1293 C1287 1.390 . S
C1293 C1290 1.386 . S
C1294 C1289 1.490 . S
C1294 C1296 1.395 . S
C1294 C1297 1.403 . S
H1295 C1301 0.930 . S
C1296 H1282 0.930 . S
C1296 C1294 1.395 . S
C1296 C1299 1.403 . S
C1297 C1294 1.403 . S
C1297 C1298 1.524 . S
C1297 C1301 1.400 . S
C1298 H1283 0.960 . S
C1298 H1284 0.960 . S
C1298 H1285 0.960 . S
C1298 C1297 1.524 . S
C1299 C1296 1.403 . S
C1299 C1300 1.392 . S
C1299 C1303 1.495 . S
C1300 C1299 1.392 . S
C1300 C1301 1.385 . S
C1300 C1302 1.478 . S
C1301 H1295 0.930 . S
C1301 C1297 1.400 . S
C1301 C1300 1.385 . S
C1302 C1300 1.478 . S
C1302 C1304 1.381 . S
C1302 C1308 1.383 . S
C1303 C1299 1.495 . S
C1303 H1309 0.959 . S
C1303 H1310 0.961 . S
C1303 H1311 0.960 . S
C1304 C1302 1.381 . S
C1304 C1305 1.394 . S
C1304 H1312 0.930 . S
C1305 C1304 1.394 . S
C1305 C1306 1.383 . S
C1305 H1313 0.929 . S
C1306 C1305 1.383 . S
C1306 C1307 1.377 . S
C1307 H1291 0.930 . S
C1307 C1306 1.377 . S
C1307 C1308 1.379 . S
C1308 H1292 0.931 . S
C1308 C1302 1.383 . S
C1308 C1307 1.379 . S
H1309 C1303 0.959 . S
H1310 C1303 0.961 . S
H1311 C1303 0.960 . S
H1312 C1304 0.930 . S
H1313 C1305 0.929 . S
H1314 C1322 0.929 . S
H1315 C1324 0.930 . S
H1316 C1326 0.930 . S
H1317 C1329 0.929 . S
H1318 C1332 0.930 . S
H1319 C1334 0.960 . S
H1320 C1334 0.960 . S
H1321 C1334 0.960 . S
C1322 H1314 0.929 . S
C1322 C1323 1.377 . S
C1322 C1324 1.384 . S
C1323 C1322 1.377 . S
C1323 C1329 1.390 . S
C1324 H1315 0.930 . S
C1324 C1322 1.384 . S
C1324 C1325 1.372 . S
C1325 C1324 1.372 . S
C1325 C1326 1.400 . S
C1325 C1330 1.490 1_545 S
C1326 H1316 0.930 . S
C1326 C1325 1.400 . S
C1326 C1329 1.386 . S
H1327 C1343 0.930 . S
H1328 C1344 0.931 . S
C1329 H1317 0.929 . S
C1329 C1323 1.390 . S
C1329 C1326 1.386 . S
C1330 C1325 1.490 1_565 S
C1330 C1332 1.395 . S
C1330 C1333 1.403 . S
H1331 C1337 0.930 . S
C1332 H1318 0.930 . S
C1332 C1330 1.395 . S
C1332 C1335 1.403 . S
C1333 C1330 1.403 . S
C1333 C1334 1.524 . S
C1333 C1337 1.400 . S
C1334 H1319 0.960 . S
C1334 H1320 0.960 . S
C1334 H1321 0.960 . S
C1334 C1333 1.524 . S
C1335 C1332 1.403 . S
C1335 C1336 1.392 . S
C1335 C1339 1.495 . S
C1336 C1335 1.392 . S
C1336 C1337 1.385 . S
C1336 C1338 1.478 . S
C1337 H1331 0.930 . S
C1337 C1333 1.400 . S
C1337 C1336 1.385 . S
C1338 C1336 1.478 . S
C1338 C1340 1.381 . S
C1338 C1344 1.383 . S
C1339 C1335 1.495 . S
C1339 H1345 0.959 . S
C1339 H1346 0.961 . S
C1339 H1347 0.960 . S
C1340 C1338 1.381 . S
C1340 C1341 1.394 . S
C1340 H1348 0.930 . S
C1341 C1340 1.394 . S
C1341 C1342 1.383 . S
C1341 H1349 0.929 . S
C1342 C1341 1.383 . S
C1342 C1343 1.377 . S
C1343 H1327 0.930 . S
C1343 C1342 1.377 . S
C1343 C1344 1.379 . S
C1344 H1328 0.931 . S
C1344 C1338 1.383 . S
C1344 C1343 1.379 . S
H1345 C1339 0.959 . S
H1346 C1339 0.961 . S
H1347 C1339 0.960 . S
H1348 C1340 0.930 . S
H1349 C1341 0.929 . S
H1350 C1358 0.929 . S
H1351 C1360 0.930 . S
H1352 C1362 0.930 1_455 S
H1353 C1365 0.929 . S
H1354 C1368 0.930 . S
H1355 C1370 0.960 . S
H1356 C1370 0.960 . S
H1357 C1370 0.960 . S
C1358 H1350 0.929 . S
C1358 C1359 1.377 . S
C1358 C1360 1.384 1_655 S
C1359 C1358 1.377 . S
C1359 C1365 1.390 . S
C1360 H1351 0.930 . S
C1360 C1358 1.384 1_455 S
C1360 C1361 1.372 . S
C1361 C1360 1.372 . S
C1361 C1362 1.400 1_455 S
C1361 C1366 1.490 . S
C1362 H1352 0.930 1_655 S
C1362 C1361 1.400 1_655 S
C1362 C1365 1.386 . S
H1363 C1379 0.930 . S
H1364 C1380 0.931 . S
C1365 H1353 0.929 . S
C1365 C1359 1.390 . S
C1365 C1362 1.386 . S
C1366 C1361 1.490 . S
C1366 C1368 1.395 . S
C1366 C1369 1.403 . S
H1367 C1373 0.930 . S
C1368 H1354 0.930 . S
C1368 C1366 1.395 . S
C1368 C1371 1.403 . S
C1369 C1366 1.403 . S
C1369 C1370 1.524 . S
C1369 C1373 1.400 . S
C1370 H1355 0.960 . S
C1370 H1356 0.960 . S
C1370 H1357 0.960 . S
C1370 C1369 1.524 . S
C1371 C1368 1.403 . S
C1371 C1372 1.392 . S
C1371 C1375 1.495 . S
C1372 C1371 1.392 . S
C1372 C1373 1.385 . S
C1372 C1374 1.478 . S
C1373 H1367 0.930 . S
C1373 C1369 1.400 . S
C1373 C1372 1.385 . S
C1374 C1372 1.478 . S
C1374 C1376 1.381 . S
C1374 C1380 1.383 . S
C1375 C1371 1.495 . S
C1375 H1381 0.959 . S
C1375 H1382 0.961 . S
C1375 H1383 0.960 . S
C1376 C1374 1.381 . S
C1376 C1377 1.394 . S
C1376 H1384 0.930 . S
C1377 C1376 1.394 . S
C1377 C1378 1.383 . S
C1377 H1385 0.929 . S
C1378 C1377 1.383 . S
C1378 C1379 1.377 . S
C1379 H1363 0.930 . S
C1379 C1378 1.377 . S
C1379 C1380 1.379 . S
C1380 H1364 0.931 . S
C1380 C1374 1.383 . S
C1380 C1379 1.379 . S
H1381 C1375 0.959 . S
H1382 C1375 0.961 . S
H1383 C1375 0.960 . S
H1384 C1376 0.930 . S
H1385 C1377 0.929 . S
H1386 C1394 0.929 . S
H1387 C1396 0.930 . S
H1388 C1398 0.930 . S
H1389 C1401 0.929 . S
H1390 C1404 0.930 . S
H1391 C1406 0.960 . S
H1392 C1406 0.960 . S
H1393 C1406 0.960 . S
C1394 H1386 0.929 . S
C1394 C1395 1.377 . S
C1394 C1396 1.384 . S
C1395 C1394 1.377 . S
C1395 C1401 1.390 . S
C1396 H1387 0.930 . S
C1396 C1394 1.384 . S
C1396 C1397 1.372 . S
C1397 C1396 1.372 . S
C1397 C1398 1.400 . S
C1397 C1402 1.490 . S
C1398 H1388 0.930 . S
C1398 C1397 1.400 . S
C1398 C1401 1.386 . S
H1399 C1415 0.930 . S
H1400 C1416 0.931 . S
C1401 H1389 0.929 . S
C1401 C1395 1.390 . S
C1401 C1398 1.386 . S
C1402 C1397 1.490 . S
C1402 C1404 1.395 . S
C1402 C1405 1.403 . S
H1403 C1409 0.930 . S
C1404 H1390 0.930 . S
C1404 C1402 1.395 . S
C1404 C1407 1.403 . S
C1405 C1402 1.403 . S
C1405 C1406 1.524 . S
C1405 C1409 1.400 . S
C1406 H1391 0.960 . S
C1406 H1392 0.960 . S
C1406 H1393 0.960 . S
C1406 C1405 1.524 . S
C1407 C1404 1.403 . S
C1407 C1408 1.392 . S
C1407 C1411 1.495 . S
C1408 C1407 1.392 . S
C1408 C1409 1.385 . S
C1408 C1410 1.478 . S
C1409 H1403 0.930 . S
C1409 C1405 1.400 . S
C1409 C1408 1.385 . S
C1410 C1408 1.478 . S
C1410 C1412 1.381 . S
C1410 C1416 1.383 . S
C1411 C1407 1.495 . S
C1411 H1417 0.959 . S
C1411 H1418 0.961 . S
C1411 H1419 0.960 . S
C1412 C1410 1.381 . S
C1412 C1413 1.394 . S
C1412 H1420 0.930 . S
C1413 C1412 1.394 . S
C1413 C1414 1.383 . S
C1413 H1421 0.929 . S
C1414 C1413 1.383 . S
C1414 C1415 1.377 . S
C1415 H1399 0.930 . S
C1415 C1414 1.377 . S
C1415 C1416 1.379 . S
C1416 H1400 0.931 . S
C1416 C1410 1.383 . S
C1416 C1415 1.379 . S
H1417 C1411 0.959 . S
H1418 C1411 0.961 . S
H1419 C1411 0.960 . S
H1420 C1412 0.930 . S
H1421 C1413 0.929 . S
H1422 C1430 0.929 . S
H1423 C1432 0.930 . S
H1424 C1434 0.930 . S
H1425 C1437 0.929 . S
H1426 C1440 0.930 . S
H1427 C1442 0.960 . S
H1428 C1442 0.960 . S
H1429 C1442 0.960 . S
C1430 H1422 0.929 . S
C1430 C1431 1.377 . S
C1430 C1432 1.384 . S
C1431 C1430 1.377 . S
C1431 C1437 1.390 . S
C1432 H1423 0.930 . S
C1432 C1430 1.384 . S
C1432 C1433 1.372 . S
C1433 C1432 1.372 . S
C1433 C1434 1.400 . S
C1433 C1438 1.490 . S
C1434 H1424 0.930 . S
C1434 C1433 1.400 . S
C1434 C1437 1.386 . S
H1435 C1451 0.930 . S
H1436 C1452 0.931 . S
C1437 H1425 0.929 . S
C1437 C1431 1.390 . S
C1437 C1434 1.386 . S
C1438 C1433 1.490 . S
C1438 C1440 1.395 . S
C1438 C1441 1.403 . S
H1439 C1445 0.930 . S
C1440 H1426 0.930 . S
C1440 C1438 1.395 . S
C1440 C1443 1.403 . S
C1441 C1438 1.403 . S
C1441 C1442 1.524 . S
C1441 C1445 1.400 . S
C1442 H1427 0.960 . S
C1442 H1428 0.960 . S
C1442 H1429 0.960 . S
C1442 C1441 1.524 . S
C1443 C1440 1.403 . S
C1443 C1444 1.392 . S
C1443 C1447 1.495 . S
C1444 C1443 1.392 . S
C1444 C1445 1.385 . S
C1444 C1446 1.478 . S
C1445 H1439 0.930 . S
C1445 C1441 1.400 . S
C1445 C1444 1.385 . S
C1446 C1444 1.478 . S
C1446 C1448 1.381 . S
C1446 C1452 1.383 . S
C1447 C1443 1.495 . S
C1447 H1453 0.959 . S
C1447 H1454 0.961 . S
C1447 H1455 0.960 . S
C1448 C1446 1.381 . S
C1448 C1449 1.394 . S
C1448 H1456 0.930 . S
C1449 C1448 1.394 . S
C1449 C1450 1.383 . S
C1449 H1457 0.929 . S
C1450 C1449 1.383 . S
C1450 C1451 1.377 . S
C1451 H1435 0.930 . S
C1451 C1450 1.377 . S
C1451 C1452 1.379 . S
C1452 H1436 0.931 . S
C1452 C1446 1.383 . S
C1452 C1451 1.379 . S
H1453 C1447 0.959 . S
H1454 C1447 0.961 . S
H1455 C1447 0.960 . S
H1456 C1448 0.930 . S
H1457 C1449 0.929 . S
H1458 C1466 0.929 . S
H1459 C1468 0.930 . S
H1460 C1470 0.930 . S
H1461 C1473 0.929 . S
H1462 C1476 0.930 . S
H1463 C1478 0.960 . S
H1464 C1478 0.960 . S
H1465 C1478 0.960 . S
C1466 H1458 0.929 . S
C1466 C1467 1.377 . S
C1466 C1468 1.384 . S
C1467 C1466 1.377 . S
C1467 C1473 1.390 . S
C1468 H1459 0.930 . S
C1468 C1466 1.384 . S
C1468 C1469 1.372 . S
C1469 C1468 1.372 . S
C1469 C1470 1.400 . S
C1469 C1474 1.490 . S
C1470 H1460 0.930 . S
C1470 C1469 1.400 . S
C1470 C1473 1.386 . S
H1471 C1487 0.930 . S
H1472 C1488 0.931 . S
C1473 H1461 0.929 . S
C1473 C1467 1.390 . S
C1473 C1470 1.386 . S
C1474 C1469 1.490 . S
C1474 C1476 1.395 . S
C1474 C1477 1.403 . S
H1475 C1481 0.930 . S
C1476 H1462 0.930 . S
C1476 C1474 1.395 . S
C1476 C1479 1.403 . S
C1477 C1474 1.403 . S
C1477 C1478 1.524 . S
C1477 C1481 1.400 . S
C1478 H1463 0.960 . S
C1478 H1464 0.960 . S
C1478 H1465 0.960 . S
C1478 C1477 1.524 . S
C1479 C1476 1.403 . S
C1479 C1480 1.392 . S
C1479 C1483 1.495 . S
C1480 C1479 1.392 . S
C1480 C1481 1.385 . S
C1480 C1482 1.478 . S
C1481 H1475 0.930 . S
C1481 C1477 1.400 . S
C1481 C1480 1.385 . S
C1482 C1480 1.478 . S
C1482 C1484 1.381 . S
C1482 C1488 1.383 . S
C1483 C1479 1.495 . S
C1483 H1489 0.959 . S
C1483 H1490 0.961 . S
C1483 H1491 0.960 . S
C1484 C1482 1.381 . S
C1484 C1485 1.394 . S
C1484 H1492 0.930 . S
C1485 C1484 1.394 . S
C1485 C1486 1.383 . S
C1485 H1493 0.929 . S
C1486 C1485 1.383 . S
C1486 C1487 1.377 . S
C1487 H1471 0.930 . S
C1487 C1486 1.377 . S
C1487 C1488 1.379 . S
C1488 H1472 0.931 . S
C1488 C1482 1.383 . S
C1488 C1487 1.379 . S
H1489 C1483 0.959 . S
H1490 C1483 0.961 . S
H1491 C1483 0.960 . S
H1492 C1484 0.930 . S
H1493 C1485 0.929 . S
H1494 C1502 0.929 . S
H1495 C1504 0.930 . S
H1496 C1506 0.930 . S
H1497 C1509 0.929 . S
H1498 C1512 0.930 . S
H1499 C1514 0.960 . S
H1500 C1514 0.960 . S
H1501 C1514 0.960 . S
C1502 H1494 0.929 . S
C1502 C1503 1.377 . S
C1502 C1504 1.384 . S
C1503 C1502 1.377 . S
C1503 C1509 1.390 . S
C1504 H1495 0.930 . S
C1504 C1502 1.384 . S
C1504 C1505 1.372 . S
C1505 C1504 1.372 . S
C1505 C1506 1.400 . S
C1505 C1510 1.490 . S
C1506 H1496 0.930 . S
C1506 C1505 1.400 . S
C1506 C1509 1.386 . S
H1507 C1523 0.930 . S
H1508 C1524 0.931 . S
C1509 H1497 0.929 . S
C1509 C1503 1.390 . S
C1509 C1506 1.386 . S
C1510 C1505 1.490 . S
C1510 C1512 1.395 . S
C1510 C1513 1.403 . S
H1511 C1517 0.930 . S
C1512 H1498 0.930 . S
C1512 C1510 1.395 . S
C1512 C1515 1.403 . S
C1513 C1510 1.403 . S
C1513 C1514 1.524 . S
C1513 C1517 1.400 . S
C1514 H1499 0.960 . S
C1514 H1500 0.960 . S
C1514 H1501 0.960 . S
C1514 C1513 1.524 . S
C1515 C1512 1.403 . S
C1515 C1516 1.392 . S
C1515 C1519 1.495 . S
C1516 C1515 1.392 . S
C1516 C1517 1.385 . S
C1516 C1518 1.478 . S
C1517 H1511 0.930 . S
C1517 C1513 1.400 . S
C1517 C1516 1.385 . S
C1518 C1516 1.478 . S
C1518 C1520 1.381 . S
C1518 C1524 1.383 . S
C1519 C1515 1.495 . S
C1519 H1525 0.959 . S
C1519 H1526 0.961 . S
C1519 H1527 0.960 . S
C1520 C1518 1.381 . S
C1520 C1521 1.394 . S
C1520 H1528 0.930 . S
C1521 C1520 1.394 . S
C1521 C1522 1.383 . S
C1521 H1529 0.929 . S
C1522 C1521 1.383 . S
C1522 C1523 1.377 . S
C1523 H1507 0.930 . S
C1523 C1522 1.377 . S
C1523 C1524 1.379 . S
C1524 H1508 0.931 . S
C1524 C1518 1.383 . S
C1524 C1523 1.379 . S
H1525 C1519 0.959 . S
H1526 C1519 0.961 . S
H1527 C1519 0.960 . S
H1528 C1520 0.930 . S
H1529 C1521 0.929 . S
H1530 C1538 0.929 . S
H1531 C1540 0.930 . S
H1532 C1542 0.930 . S
H1533 C1545 0.929 . S
H1534 C1548 0.930 . S
H1535 C1550 0.960 . S
H1536 C1550 0.960 . S
H1537 C1550 0.960 . S
C1538 H1530 0.929 . S
C1538 C1539 1.377 . S
C1538 C1540 1.384 . S
C1539 C1538 1.377 . S
C1539 C1545 1.390 . S
C1540 H1531 0.930 . S
C1540 C1538 1.384 . S
C1540 C1541 1.372 . S
C1541 C1540 1.372 . S
C1541 C1542 1.400 . S
C1541 C1546 1.490 . S
C1542 H1532 0.930 . S
C1542 C1541 1.400 . S
C1542 C1545 1.386 . S
H1543 C1559 0.930 . S
H1544 C1560 0.931 . S
C1545 H1533 0.929 . S
C1545 C1539 1.390 . S
C1545 C1542 1.386 . S
C1546 C1541 1.490 . S
C1546 C1548 1.395 . S
C1546 C1549 1.403 . S
H1547 C1553 0.930 . S
C1548 H1534 0.930 . S
C1548 C1546 1.395 . S
C1548 C1551 1.403 1_565 S
C1549 C1546 1.403 . S
C1549 C1550 1.524 . S
C1549 C1553 1.400 1_565 S
C1550 H1535 0.960 . S
C1550 H1536 0.960 . S
C1550 H1537 0.960 . S
C1550 C1549 1.524 . S
C1551 C1548 1.403 1_545 S
C1551 C1552 1.392 . S
C1551 C1555 1.495 . S
C1552 C1551 1.392 . S
C1552 C1553 1.385 . S
C1552 C1554 1.478 . S
C1553 H1547 0.930 . S
C1553 C1549 1.400 1_545 S
C1553 C1552 1.385 . S
C1554 C1552 1.478 . S
C1554 C1556 1.381 . S
C1554 C1560 1.383 . S
C1555 C1551 1.495 . S
C1555 H1561 0.959 1_545 S
C1555 H1562 0.961 . S
C1555 H1563 0.960 . S
C1556 C1554 1.381 . S
C1556 C1557 1.394 . S
C1556 H1564 0.930 . S
C1557 C1556 1.394 . S
C1557 C1558 1.383 . S
C1557 H1565 0.929 . S
C1558 C1557 1.383 . S
C1558 C1559 1.377 . S
C1559 H1543 0.930 . S
C1559 C1558 1.377 . S
C1559 C1560 1.379 . S
C1560 H1544 0.931 . S
C1560 C1554 1.383 . S
C1560 C1559 1.379 . S
H1561 C1555 0.959 1_565 S
H1562 C1555 0.961 . S
H1563 C1555 0.960 . S
H1564 C1556 0.930 . S
H1565 C1557 0.929 . S
H1566 C1574 0.929 . S
H1567 C1576 0.930 . S
H1568 C1578 0.930 . S
H1569 C1581 0.929 . S
H1570 C1584 0.930 . S
H1571 C1586 0.915 1_655 S
H1572 C1586 0.991 . S
H1573 C1586 0.980 . S
C1574 H1566 0.929 . S
C1574 C1575 1.377 . S
C1574 C1576 1.384 . S
C1575 C1574 1.377 . S
C1575 C1581 1.390 . S
C1576 H1567 0.930 . S
C1576 C1574 1.384 . S
C1576 C1577 1.372 . S
C1577 C1576 1.372 . S
C1577 C1578 1.400 . S
C1577 C1582 1.490 . S
C1578 H1568 0.930 . S
C1578 C1577 1.400 . S
C1578 C1581 1.386 . S
H1579 C1595 0.930 . S
H1580 C1596 0.931 . S
C1581 H1569 0.929 . S
C1581 C1575 1.390 . S
C1581 C1578 1.386 . S
C1582 C1577 1.490 . S
C1582 C1584 1.395 . S
C1582 C1585 1.403 . S
H1583 C1589 0.930 . S
C1584 H1570 0.930 . S
C1584 C1582 1.395 . S
C1584 C1587 1.403 . S
C1585 C1582 1.403 . S
C1585 C1586 1.522 . S
C1585 C1589 1.400 1_455 S
C1586 H1571 0.915 1_455 S
C1586 H1572 0.991 . S
C1586 H1573 0.980 . S
C1586 C1585 1.522 . S
C1587 C1584 1.403 . S
C1587 C1588 1.392 1_455 S
C1587 C1591 1.495 . S
C1588 C1587 1.392 1_655 S
C1588 C1589 1.385 . S
C1588 C1590 1.478 . S
C1589 H1583 0.930 . S
C1589 C1585 1.400 1_655 S
C1589 C1588 1.385 . S
C1590 C1588 1.478 . S
C1590 C1592 1.381 . S
C1590 C1596 1.383 . S
C1591 C1587 1.495 . S
C1591 H1597 0.959 . S
C1591 H1598 0.952 1_455 S
C1591 H1599 0.960 1_455 S
C1592 C1590 1.381 . S
C1592 C1593 1.394 . S
C1592 H1600 0.930 . S
C1593 C1592 1.394 . S
C1593 C1594 1.383 . S
C1593 H1601 0.929 . S
C1594 C1593 1.383 . S
C1594 C1595 1.377 . S
C1595 H1579 0.930 . S
C1595 C1594 1.377 . S
C1595 C1596 1.379 . S
C1596 H1580 0.931 . S
C1596 C1590 1.383 . S
C1596 C1595 1.379 . S
H1597 C1591 0.959 . S
H1598 C1591 0.952 1_655 S
H1599 C1591 0.960 1_655 S
H1600 C1592 0.930 . S
H1601 C1593 0.929 . S
H1602 C1610 0.929 . S
H1603 C1612 0.930 . S
H1604 C1614 0.930 . S
H1605 C1617 0.929 . S
H1606 C1620 0.930 . S
H1607 C1622 0.960 . S
H1608 C1622 0.960 . S
H1609 C1622 0.960 . S
C1610 H1602 0.929 . S
C1610 C1611 1.377 . S
C1610 C1612 1.384 . S
C1611 C1610 1.377 . S
C1611 C1617 1.390 . S
C1612 H1603 0.930 . S
C1612 C1610 1.384 . S
C1612 C1613 1.372 . S
C1613 C1612 1.372 . S
C1613 C1614 1.400 . S
C1613 C1618 1.490 . S
C1614 H1604 0.930 . S
C1614 C1613 1.400 . S
C1614 C1617 1.386 . S
H1615 C1631 0.930 . S
H1616 C1632 0.931 . S
C1617 H1605 0.929 . S
C1617 C1611 1.390 . S
C1617 C1614 1.386 . S
C1618 C1613 1.490 . S
C1618 C1620 1.395 . S
C1618 C1621 1.403 . S
H1619 C1625 0.930 . S
C1620 H1606 0.930 . S
C1620 C1618 1.395 . S
C1620 C1623 1.403 . S
C1621 C1618 1.403 . S
C1621 C1622 1.524 . S
C1621 C1625 1.400 . S
C1622 H1607 0.960 . S
C1622 H1608 0.960 . S
C1622 H1609 0.960 . S
C1622 C1621 1.524 . S
C1623 C1620 1.403 . S
C1623 C1624 1.392 . S
C1623 C1627 1.495 . S
C1624 C1623 1.392 . S
C1624 C1625 1.385 . S
C1624 C1626 1.478 . S
C1625 H1619 0.930 . S
C1625 C1621 1.400 . S
C1625 C1624 1.385 . S
C1626 C1624 1.478 . S
C1626 C1628 1.381 . S
C1626 C1632 1.383 . S
C1627 C1623 1.495 . S
C1627 H1633 0.959 . S
C1627 H1634 0.961 . S
C1627 H1635 0.960 . S
C1628 C1626 1.381 . S
C1628 C1629 1.394 . S
C1628 H1636 0.930 . S
C1629 C1628 1.394 . S
C1629 C1630 1.383 . S
C1629 H1637 0.929 . S
C1630 C1629 1.383 . S
C1630 C1631 1.377 . S
C1631 H1615 0.930 . S
C1631 C1630 1.377 . S
C1631 C1632 1.379 . S
C1632 H1616 0.931 . S
C1632 C1626 1.383 . S
C1632 C1631 1.379 . S
H1633 C1627 0.959 . S
H1634 C1627 0.961 . S
H1635 C1627 0.960 . S
H1636 C1628 0.930 . S
H1637 C1629 0.929 . S
H1638 C1646 0.929 . S
H1639 C1648 0.930 . S
H1640 C1650 0.930 . S
H1641 C1653 0.929 . S
H1642 C1656 0.930 . S
H1643 C1658 0.960 . S
H1644 C1658 0.960 . S
H1645 C1658 0.960 . S
C1646 H1638 0.929 . S
C1646 C1647 1.377 . S
C1646 C1648 1.384 . S
C1647 C1646 1.377 . S
C1647 C1653 1.390 . S
C1648 H1639 0.930 . S
C1648 C1646 1.384 . S
C1648 C1649 1.372 . S
C1649 C1648 1.372 . S
C1649 C1650 1.400 . S
C1649 C1654 1.490 1_455 S
C1650 H1640 0.930 . S
C1650 C1649 1.400 . S
C1650 C1653 1.386 . S
H1651 C1667 0.930 . S
H1652 C1668 0.931 . S
C1653 H1641 0.929 . S
C1653 C1647 1.390 . S
C1653 C1650 1.386 . S
C1654 C1649 1.490 1_655 S
C1654 C1656 1.395 . S
C1654 C1657 1.403 . S
H1655 C1661 0.930 . S
C1656 H1642 0.930 . S
C1656 C1654 1.395 . S
C1656 C1659 1.403 . S
C1657 C1654 1.403 . S
C1657 C1658 1.524 . S
C1657 C1661 1.400 . S
C1658 H1643 0.960 . S
C1658 H1644 0.960 . S
C1658 H1645 0.960 . S
C1658 C1657 1.524 . S
C1659 C1656 1.403 . S
C1659 C1660 1.392 . S
C1659 C1663 1.495 . S
C1660 C1659 1.392 . S
C1660 C1661 1.385 . S
C1660 C1662 1.478 . S
C1661 H1655 0.930 . S
C1661 C1657 1.400 . S
C1661 C1660 1.385 . S
C1662 C1660 1.478 . S
C1662 C1664 1.381 . S
C1662 C1668 1.383 . S
C1663 C1659 1.495 . S
C1663 H1669 0.959 . S
C1663 H1670 0.961 . S
C1663 H1671 0.960 . S
C1664 C1662 1.381 . S
C1664 C1665 1.394 . S
C1664 H1672 0.930 . S
C1665 C1664 1.394 . S
C1665 C1666 1.383 . S
C1665 H1673 0.929 . S
C1666 C1665 1.383 . S
C1666 C1667 1.377 . S
C1667 H1651 0.930 . S
C1667 C1666 1.377 . S
C1667 C1668 1.379 . S
C1668 H1652 0.931 . S
C1668 C1662 1.383 . S
C1668 C1667 1.379 . S
H1669 C1663 0.959 . S
H1670 C1663 0.961 . S
H1671 C1663 0.960 . S
H1672 C1664 0.930 . S
H1673 C1665 0.929 . S
H1674 C1682 0.929 . S
H1675 C1684 0.930 . S
H1676 C1686 0.930 . S
H1677 C1689 0.929 . S
H1678 C1692 0.930 . S
H1679 C1694 0.960 . S
H1680 C1694 0.960 . S
H1681 C1694 0.960 . S
C1682 H1674 0.929 . S
C1682 C1683 1.377 . S
C1682 C1684 1.384 . S
C1683 C1682 1.377 . S
C1683 C1689 1.390 . S
C1684 H1675 0.930 . S
C1684 C1682 1.384 . S
C1684 C1685 1.372 . S
C1685 C1684 1.372 . S
C1685 C1686 1.400 . S
C1685 C1690 1.490 . S
C1686 H1676 0.930 . S
C1686 C1685 1.400 . S
C1686 C1689 1.386 . S
H1687 C1703 0.930 . S
H1688 C1704 0.931 . S
C1689 H1677 0.929 . S
C1689 C1683 1.390 . S
C1689 C1686 1.386 . S
C1690 C1685 1.490 . S
C1690 C1692 1.395 . S
C1690 C1693 1.403 . S
H1691 C1697 0.930 . S
C1692 H1678 0.930 . S
C1692 C1690 1.395 . S
C1692 C1695 1.403 . S
C1693 C1690 1.403 . S
C1693 C1694 1.524 . S
C1693 C1697 1.400 . S
C1694 H1679 0.960 . S
C1694 H1680 0.960 . S
C1694 H1681 0.960 . S
C1694 C1693 1.524 . S
C1695 C1692 1.403 . S
C1695 C1696 1.392 . S
C1695 C1699 1.495 . S
C1696 C1695 1.392 . S
C1696 C1697 1.385 . S
C1696 C1698 1.478 . S
C1697 H1691 0.930 . S
C1697 C1693 1.400 . S
C1697 C1696 1.385 . S
C1698 C1696 1.478 . S
C1698 C1700 1.381 . S
C1698 C1704 1.383 . S
C1699 C1695 1.495 . S
C1699 H1705 0.959 . S
C1699 H1706 0.961 . S
C1699 H1707 0.960 . S
C1700 C1698 1.381 . S
C1700 C1701 1.394 . S
C1700 H1708 0.930 . S
C1701 C1700 1.394 . S
C1701 C1702 1.383 . S
C1701 H1709 0.929 . S
C1702 C1701 1.383 . S
C1702 C1703 1.377 . S
C1703 H1687 0.930 . S
C1703 C1702 1.377 . S
C1703 C1704 1.379 . S
C1704 H1688 0.931 . S
C1704 C1698 1.383 . S
C1704 C1703 1.379 . S
H1705 C1699 0.959 . S
H1706 C1699 0.961 . S
H1707 C1699 0.960 . S
H1708 C1700 0.930 . S
H1709 C1701 0.929 . S
H1710 C1718 0.929 . S
H1711 C1720 0.930 . S
H1712 C1722 0.930 . S
H1713 C1725 0.929 . S
H1714 C1728 0.930 . S
H1715 C1730 0.960 . S
H1716 C1730 0.960 . S
H1717 C1730 0.960 . S
C1718 H1710 0.929 . S
C1718 C1719 1.377 . S
C1718 C1720 1.384 . S
C1719 C1718 1.377 . S
C1719 C1725 1.390 . S
C1720 H1711 0.930 . S
C1720 C1718 1.384 . S
C1720 C1721 1.372 . S
C1721 C1720 1.372 . S
C1721 C1722 1.400 . S
C1721 C1726 1.490 1_565 S
C1722 H1712 0.930 . S
C1722 C1721 1.400 . S
C1722 C1725 1.386 . S
H1723 C1739 0.930 . S
H1724 C1740 0.931 . S
C1725 H1713 0.929 . S
C1725 C1719 1.390 . S
C1725 C1722 1.386 . S
C1726 C1721 1.490 1_545 S
C1726 C1728 1.395 . S
C1726 C1729 1.403 . S
H1727 C1733 0.930 . S
C1728 H1714 0.930 . S
C1728 C1726 1.395 . S
C1728 C1731 1.403 . S
C1729 C1726 1.403 . S
C1729 C1730 1.524 . S
C1729 C1733 1.400 . S
C1730 H1715 0.960 . S
C1730 H1716 0.960 . S
C1730 H1717 0.960 . S
C1730 C1729 1.524 . S
C1731 C1728 1.403 . S
C1731 C1732 1.392 . S
C1731 C1735 1.495 . S
C1732 C1731 1.392 . S
C1732 C1733 1.385 . S
C1732 C1734 1.478 . S
C1733 H1727 0.930 . S
C1733 C1729 1.400 . S
C1733 C1732 1.385 . S
C1734 C1732 1.478 . S
C1734 C1736 1.381 . S
C1734 C1740 1.383 . S
C1735 C1731 1.495 . S
C1735 H1741 0.959 . S
C1735 H1742 0.961 . S
C1735 H1743 0.960 . S
C1736 C1734 1.381 . S
C1736 C1737 1.394 . S
C1736 H1744 0.930 . S
C1737 C1736 1.394 . S
C1737 C1738 1.383 . S
C1737 H1745 0.929 . S
C1738 C1737 1.383 . S
C1738 C1739 1.377 . S
C1739 H1723 0.930 . S
C1739 C1738 1.377 . S
C1739 C1740 1.379 . S
C1740 H1724 0.931 . S
C1740 C1734 1.383 . S
C1740 C1739 1.379 . S
H1741 C1735 0.959 . S
H1742 C1735 0.961 . S
H1743 C1735 0.960 . S
H1744 C1736 0.930 . S
H1745 C1737 0.929 . S
H1746 C1754 0.929 . S
H1747 C1756 0.930 . S
H1748 C1758 0.930 . S
H1749 C1761 0.929 . S
H1750 C1764 0.930 . S
H1751 C1766 0.960 . S
H1752 C1766 0.960 . S
H1753 C1766 0.960 . S
C1754 H1746 0.929 . S
C1754 C1755 1.377 . S
C1754 C1756 1.384 . S
C1755 C1754 1.377 . S
C1755 C1761 1.390 . S
C1756 H1747 0.930 . S
C1756 C1754 1.384 . S
C1756 C1757 1.372 . S
C1757 C1756 1.372 . S
C1757 C1758 1.400 . S
C1757 C1762 1.490 . S
C1758 H1748 0.930 . S
C1758 C1757 1.400 . S
C1758 C1761 1.386 . S
H1759 C1775 0.930 . S
H1760 C1776 0.931 . S
C1761 H1749 0.929 . S
C1761 C1755 1.390 . S
C1761 C1758 1.386 . S
C1762 C1757 1.490 . S
C1762 C1764 1.395 . S
C1762 C1765 1.403 . S
H1763 C1769 0.930 . S
C1764 H1750 0.930 . S
C1764 C1762 1.395 . S
C1764 C1767 1.403 . S
C1765 C1762 1.403 . S
C1765 C1766 1.524 . S
C1765 C1769 1.400 . S
C1766 H1751 0.960 . S
C1766 H1752 0.960 . S
C1766 H1753 0.960 . S
C1766 C1765 1.524 . S
C1767 C1764 1.403 . S
C1767 C1768 1.392 . S
C1767 C1771 1.495 . S
C1768 C1767 1.392 . S
C1768 C1769 1.385 . S
C1768 C1770 1.478 . S
C1769 H1763 0.930 . S
C1769 C1765 1.400 . S
C1769 C1768 1.385 . S
C1770 C1768 1.478 . S
C1770 C1772 1.381 . S
C1770 C1776 1.383 . S
C1771 C1767 1.495 . S
C1771 H1777 0.959 . S
C1771 H1778 0.961 . S
C1771 H1779 0.960 . S
C1772 C1770 1.381 . S
C1772 C1773 1.394 . S
C1772 H1780 0.930 . S
C1773 C1772 1.394 . S
C1773 C1774 1.383 . S
C1773 H1781 0.929 . S
C1774 C1773 1.383 . S
C1774 C1775 1.377 . S
C1775 H1759 0.930 . S
C1775 C1774 1.377 . S
C1775 C1776 1.379 . S
C1776 H1760 0.931 . S
C1776 C1770 1.383 . S
C1776 C1775 1.379 . S
H1777 C1771 0.959 . S
H1778 C1771 0.961 . S
H1779 C1771 0.960 . S
H1780 C1772 0.930 . S
H1781 C1773 0.929 . S
H1782 C1790 0.929 . S
H1783 C1792 0.930 . S
H1784 C1794 0.930 . S
H1785 C1797 0.929 . S
H1786 C1800 0.930 . S
H1787 C1802 0.960 . S
H1788 C1802 0.960 . S
H1789 C1802 0.960 . S
C1790 H1782 0.929 . S
C1790 C1791 1.377 . S
C1790 C1792 1.384 . S
C1791 C1790 1.377 . S
C1791 C1797 1.390 . S
C1792 H1783 0.930 . S
C1792 C1790 1.384 . S
C1792 C1793 1.372 . S
C1793 C1792 1.372 . S
C1793 C1794 1.400 . S
C1793 C1798 1.490 . S
C1794 H1784 0.930 . S
C1794 C1793 1.400 . S
C1794 C1797 1.386 . S
H1795 C1811 0.930 . S
H1796 C1812 0.931 . S
C1797 H1785 0.929 . S
C1797 C1791 1.390 . S
C1797 C1794 1.386 . S
C1798 C1793 1.490 . S
C1798 C1800 1.395 . S
C1798 C1801 1.403 . S
H1799 C1805 0.930 . S
C1800 H1786 0.930 . S
C1800 C1798 1.395 . S
C1800 C1803 1.403 . S
C1801 C1798 1.403 . S
C1801 C1802 1.524 . S
C1801 C1805 1.400 . S
C1802 H1787 0.960 . S
C1802 H1788 0.960 . S
C1802 H1789 0.960 . S
C1802 C1801 1.524 . S
C1803 C1800 1.403 . S
C1803 C1804 1.392 . S
C1803 C1807 1.495 . S
C1804 C1803 1.392 . S
C1804 C1805 1.385 . S
C1804 C1806 1.478 . S
C1805 H1799 0.930 . S
C1805 C1801 1.400 . S
C1805 C1804 1.385 . S
C1806 C1804 1.478 . S
C1806 C1808 1.381 . S
C1806 C1812 1.383 . S
C1807 C1803 1.495 . S
C1807 H1813 0.959 . S
C1807 H1814 0.961 . S
C1807 H1815 0.960 . S
C1808 C1806 1.381 . S
C1808 C1809 1.394 . S
C1808 H1816 0.930 . S
C1809 C1808 1.394 . S
C1809 C1810 1.383 . S
C1809 H1817 0.929 . S
C1810 C1809 1.383 . S
C1810 C1811 1.377 . S
C1811 H1795 0.930 . S
C1811 C1810 1.377 . S
C1811 C1812 1.379 . S
C1812 H1796 0.931 . S
C1812 C1806 1.383 . S
C1812 C1811 1.379 . S
H1813 C1807 0.959 . S
H1814 C1807 0.961 . S
H1815 C1807 0.960 . S
H1816 C1808 0.930 . S
H1817 C1809 0.929 . S
H1818 C1826 0.929 . S
H1819 C1828 0.930 . S
H1820 C1830 0.930 . S
H1821 C1833 0.929 . S
H1822 C1836 0.930 . S
H1823 C1838 0.960 . S
H1824 C1838 0.960 . S
H1825 C1838 0.960 . S
C1826 H1818 0.929 . S
C1826 C1827 1.377 . S
C1826 C1828 1.384 . S
C1827 C1826 1.377 . S
C1827 C1833 1.390 . S
C1828 H1819 0.930 . S
C1828 C1826 1.384 . S
C1828 C1829 1.372 . S
C1829 C1828 1.372 . S
C1829 C1830 1.400 . S
C1829 C1834 1.490 . S
C1830 H1820 0.930 . S
C1830 C1829 1.400 . S
C1830 C1833 1.386 . S
H1831 C1847 0.930 . S
H1832 C1848 0.931 . S
C1833 H1821 0.929 . S
C1833 C1827 1.390 . S
C1833 C1830 1.386 . S
C1834 C1829 1.490 . S
C1834 C1836 1.395 . S
C1834 C1837 1.403 . S
H1835 C1841 0.930 . S
C1836 H1822 0.930 . S
C1836 C1834 1.395 . S
C1836 C1839 1.403 . S
C1837 C1834 1.403 . S
C1837 C1838 1.524 . S
C1837 C1841 1.400 . S
C1838 H1823 0.960 . S
C1838 H1824 0.960 . S
C1838 H1825 0.960 . S
C1838 C1837 1.524 . S
C1839 C1836 1.403 . S
C1839 C1840 1.392 . S
C1839 C1843 1.495 . S
C1840 C1839 1.392 . S
C1840 C1841 1.385 . S
C1840 C1842 1.478 . S
C1841 H1835 0.930 . S
C1841 C1837 1.400 . S
C1841 C1840 1.385 . S
C1842 C1840 1.478 . S
C1842 C1844 1.381 . S
C1842 C1848 1.383 . S
C1843 C1839 1.495 . S
C1843 H1849 0.959 . S
C1843 H1850 0.961 . S
C1843 H1851 0.960 . S
C1844 C1842 1.381 . S
C1844 C1845 1.394 . S
C1844 H1852 0.930 . S
C1845 C1844 1.394 . S
C1845 C1846 1.383 . S
C1845 H1853 0.929 . S
C1846 C1845 1.383 . S
C1846 C1847 1.377 . S
C1847 H1831 0.930 . S
C1847 C1846 1.377 . S
C1847 C1848 1.379 . S
C1848 H1832 0.931 . S
C1848 C1842 1.383 . S
C1848 C1847 1.379 . S
H1849 C1843 0.959 . S
H1850 C1843 0.961 . S
H1851 C1843 0.960 . S
H1852 C1844 0.930 . S
H1853 C1845 0.929 . S
H1854 C1862 0.929 . S
H1855 C1864 0.930 . S
H1856 C1866 0.930 . S
H1857 C1869 0.929 . S
H1858 C1872 0.930 . S
H1859 C1874 0.960 . S
H1860 C1874 0.960 . S
H1861 C1874 0.960 . S
C1862 H1854 0.929 . S
C1862 C1863 1.377 . S
C1862 C1864 1.384 . S
C1863 C1862 1.377 . S
C1863 C1869 1.390 . S
C1864 H1855 0.930 . S
C1864 C1862 1.384 . S
C1864 C1865 1.372 . S
C1865 C1864 1.372 . S
C1865 C1866 1.400 . S
C1865 C1870 1.490 . S
C1866 H1856 0.930 . S
C1866 C1865 1.400 . S
C1866 C1869 1.386 . S
H1867 C1883 0.902 1_545 S
H1868 C1884 0.931 . S
C1869 H1857 0.929 . S
C1869 C1863 1.390 . S
C1869 C1866 1.386 . S
C1870 C1865 1.490 . S
C1870 C1872 1.395 . S
C1870 C1873 1.403 . S
H1871 C1877 0.930 . S
C1872 H1858 0.930 . S
C1872 C1870 1.395 . S
C1872 C1875 1.403 . S
C1873 C1870 1.403 . S
C1873 C1874 1.524 . S
C1873 C1877 1.400 . S
C1874 H1859 0.960 . S
C1874 H1860 0.960 . S
C1874 H1861 0.960 . S
C1874 C1873 1.524 . S
C1875 C1872 1.403 . S
C1875 C1876 1.392 . S
C1875 C1879 1.495 . S
C1876 C1875 1.392 . S
C1876 C1877 1.385 . S
C1876 C1878 1.478 . S
C1877 H1871 0.930 . S
C1877 C1873 1.400 . S
C1877 C1876 1.385 . S
C1878 C1876 1.478 . S
C1878 C1880 1.381 . S
C1878 C1884 1.383 . S
C1879 C1875 1.495 . S
C1879 H1885 0.959 . S
C1879 H1886 0.961 . S
C1879 H1887 0.960 . S
C1880 C1878 1.381 . S
C1880 C1881 1.394 . S
C1880 H1888 0.930 . S
C1881 C1880 1.394 . S
C1881 C1882 1.383 . S
C1881 H1889 0.929 . S
C1882 C1881 1.383 . S
C1882 C1883 1.377 . S
C1883 H1867 0.902 1_565 S
C1883 C1882 1.377 . S
C1883 C1884 1.379 . S
C1884 H1868 0.931 . S
C1884 C1878 1.383 . S
C1884 C1883 1.379 . S
H1885 C1879 0.959 . S
H1886 C1879 0.961 . S
H1887 C1879 0.960 . S
H1888 C1880 0.930 . S
H1889 C1881 0.929 . S
H1890 C1898 0.929 . S
H1891 C1900 0.930 . S
H1892 C1902 0.930 . S
H1893 C1905 0.929 . S
H1894 C1908 0.930 . S
H1895 C1910 0.960 . S
H1896 C1910 0.960 . S
H1897 C1910 0.960 . S
C1898 H1890 0.929 . S
C1898 C1899 1.377 . S
C1898 C1900 1.384 . S
C1899 C1898 1.377 . S
C1899 C1905 1.390 . S
C1900 H1891 0.930 . S
C1900 C1898 1.384 . S
C1900 C1901 1.372 . S
C1901 C1900 1.372 . S
C1901 C1902 1.400 . S
C1901 C1906 1.490 . S
C1902 H1892 0.930 . S
C1902 C1901 1.400 . S
C1902 C1905 1.386 . S
H1903 C1919 0.930 . S
H1904 C1920 0.931 . S
C1905 H1893 0.929 . S
C1905 C1899 1.390 . S
C1905 C1902 1.386 . S
C1906 C1901 1.490 . S
C1906 C1908 1.395 . S
C1906 C1909 1.403 . S
H1907 C1913 0.930 . S
C1908 H1894 0.930 . S
C1908 C1906 1.395 . S
C1908 C1911 1.403 . S
C1909 C1906 1.403 . S
C1909 C1910 1.524 . S
C1909 C1913 1.400 . S
C1910 H1895 0.960 . S
C1910 H1896 0.960 . S
C1910 H1897 0.960 . S
C1910 C1909 1.524 . S
C1911 C1908 1.403 . S
C1911 C1912 1.392 . S
C1911 C1915 1.495 . S
C1912 C1911 1.392 . S
C1912 C1913 1.385 . S
C1912 C1914 1.478 . S
C1913 H1907 0.930 . S
C1913 C1909 1.400 . S
C1913 C1912 1.385 . S
C1914 C1912 1.478 . S
C1914 C1916 1.381 . S
C1914 C1920 1.383 . S
C1915 C1911 1.495 . S
C1915 H1921 0.959 . S
C1915 H1922 0.961 . S
C1915 H1923 0.960 . S
C1916 C1914 1.381 . S
C1916 C1917 1.394 . S
C1916 H1924 0.930 . S
C1917 C1916 1.394 . S
C1917 C1918 1.383 . S
C1917 H1925 0.929 . S
C1918 C1917 1.383 . S
C1918 C1919 1.377 . S
C1919 H1903 0.930 . S
C1919 C1918 1.377 . S
C1919 C1920 1.379 . S
C1920 H1904 0.931 . S
C1920 C1914 1.383 . S
C1920 C1919 1.379 . S
H1921 C1915 0.959 . S
H1922 C1915 0.961 . S
H1923 C1915 0.960 . S
H1924 C1916 0.930 . S
H1925 C1917 0.929 . S
H1926 C1934 0.929 . S
H1927 C1936 0.930 . S
H1928 C1938 0.930 . S
H1929 C1941 0.929 . S
H1930 C1944 0.930 . S
H1931 C1946 0.960 . S
H1932 C1946 0.960 . S
H1933 C1946 0.960 . S
C1934 H1926 0.929 . S
C1934 C1935 1.377 . S
C1934 C1936 1.384 . S
C1935 C1934 1.377 . S
C1935 C1941 1.390 . S
C1936 H1927 0.930 . S
C1936 C1934 1.384 . S
C1936 C1937 1.372 . S
C1937 C1936 1.372 . S
C1937 C1938 1.400 . S
C1937 C1942 1.490 . S
C1938 H1928 0.930 . S
C1938 C1937 1.400 . S
C1938 C1941 1.386 . S
H1939 C1955 0.930 . S
H1940 C1956 0.931 . S
C1941 H1929 0.929 . S
C1941 C1935 1.390 . S
C1941 C1938 1.386 . S
C1942 C1937 1.490 . S
C1942 C1944 1.395 . S
C1942 C1945 1.403 . S
H1943 C1949 0.930 . S
C1944 H1930 0.930 . S
C1944 C1942 1.395 . S
C1944 C1947 1.403 . S
C1945 C1942 1.403 . S
C1945 C1946 1.524 . S
C1945 C1949 1.400 . S
C1946 H1931 0.960 . S
C1946 H1932 0.960 . S
C1946 H1933 0.960 . S
C1946 C1945 1.524 . S
C1947 C1944 1.403 . S
C1947 C1948 1.392 . S
C1947 C1951 1.495 . S
C1948 C1947 1.392 . S
C1948 C1949 1.385 . S
C1948 C1950 1.478 . S
C1949 H1943 0.930 . S
C1949 C1945 1.400 . S
C1949 C1948 1.385 . S
C1950 C1948 1.478 . S
C1950 C1952 1.381 . S
C1950 C1956 1.383 . S
C1951 C1947 1.495 . S
C1951 H1957 0.959 . S
C1951 H1958 0.961 . S
C1951 H1959 0.960 . S
C1952 C1950 1.381 . S
C1952 C1953 1.394 . S
C1952 H1960 0.930 . S
C1953 C1952 1.394 . S
C1953 C1954 1.383 . S
C1953 H1961 0.929 . S
C1954 C1953 1.383 . S
C1954 C1955 1.377 . S
C1955 H1939 0.930 . S
C1955 C1954 1.377 . S
C1955 C1956 1.379 . S
C1956 H1940 0.931 . S
C1956 C1950 1.383 . S
C1956 C1955 1.379 . S
H1957 C1951 0.959 . S
H1958 C1951 0.961 . S
H1959 C1951 0.960 . S
H1960 C1952 0.930 . S
H1961 C1953 0.929 . S
H1962 C1970 0.929 . S
H1963 C1972 0.930 . S
H1964 C1974 0.930 . S
H1965 C1977 0.929 . S
H1966 C1980 0.930 . S
H1967 C1982 0.960 . S
H1968 C1982 0.960 . S
H1969 C1982 0.960 . S
C1970 H1962 0.929 . S
C1970 C1971 1.377 . S
C1970 C1972 1.384 . S
C1971 C1970 1.377 . S
C1971 C1977 1.390 . S
C1972 H1963 0.930 . S
C1972 C1970 1.384 . S
C1972 C1973 1.372 . S
C1973 C1972 1.372 . S
C1973 C1974 1.400 . S
C1973 C1978 1.490 . S
C1974 H1964 0.930 . S
C1974 C1973 1.400 . S
C1974 C1977 1.386 . S
H1975 C1991 0.930 . S
H1976 C1992 0.931 . S
C1977 H1965 0.929 . S
C1977 C1971 1.390 . S
C1977 C1974 1.386 . S
C1978 C1973 1.490 . S
C1978 C1980 1.395 . S
C1978 C1981 1.403 . S
H1979 C1985 0.930 . S
C1980 H1966 0.930 . S
C1980 C1978 1.395 . S
C1980 C1983 1.403 . S
C1981 C1978 1.403 . S
C1981 C1982 1.524 . S
C1981 C1985 1.400 . S
C1982 H1967 0.960 . S
C1982 H1968 0.960 . S
C1982 H1969 0.960 . S
C1982 C1981 1.524 . S
C1983 C1980 1.403 . S
C1983 C1984 1.392 . S
C1983 C1987 1.495 . S
C1984 C1983 1.392 . S
C1984 C1985 1.385 . S
C1984 C1986 1.478 . S
C1985 H1979 0.930 . S
C1985 C1981 1.400 . S
C1985 C1984 1.385 . S
C1986 C1984 1.478 . S
C1986 C1988 1.381 . S
C1986 C1992 1.383 . S
C1987 C1983 1.495 . S
C1987 H1993 0.959 1_655 S
C1987 H1994 0.961 . S
C1987 H1995 0.960 1_655 S
C1988 C1986 1.381 . S
C1988 C1989 1.394 . S
C1988 H1996 0.975 . S
C1989 C1988 1.394 . S
C1989 C1990 1.383 . S
C1989 H1997 0.929 1_655 S
C1990 C1989 1.383 . S
C1990 C1991 1.377 . S
C1991 H1975 0.930 . S
C1991 C1990 1.377 . S
C1991 C1992 1.379 . S
C1992 H1976 0.931 . S
C1992 C1986 1.383 . S
C1992 C1991 1.379 . S
H1993 C1987 0.959 1_455 S
H1994 C1987 0.961 . S
H1995 C1987 0.960 1_455 S
H1996 C1988 0.975 . S
H1997 C1989 0.929 1_455 S
H1998 C2006 0.929 . S
H1999 C2008 0.930 . S
H2000 C2010 0.930 . S
H2001 C2013 0.929 . S
H2002 C2016 0.930 . S
H2003 C2018 0.960 . S
H2004 C2018 0.960 . S
H2005 C2018 0.960 . S
C2006 H1998 0.929 . S
C2006 C2007 1.377 . S
C2006 C2008 1.384 . S
C2007 C2006 1.377 . S
C2007 C2013 1.390 . S
C2008 H1999 0.930 . S
C2008 C2006 1.384 . S
C2008 C2009 1.372 . S
C2009 C2008 1.372 . S
C2009 C2010 1.400 . S
C2009 C2014 1.490 . S
C2010 H2000 0.930 . S
C2010 C2009 1.400 . S
C2010 C2013 1.386 . S
H2011 C2027 0.930 . S
H2012 C2028 0.931 . S
C2013 H2001 0.929 . S
C2013 C2007 1.390 . S
C2013 C2010 1.386 . S
C2014 C2009 1.490 . S
C2014 C2016 1.395 . S
C2014 C2017 1.403 . S
H2015 C2021 0.930 . S
C2016 H2002 0.930 . S
C2016 C2014 1.395 . S
C2016 C2019 1.403 . S
C2017 C2014 1.403 . S
C2017 C2018 1.524 . S
C2017 C2021 1.400 . S
C2018 H2003 0.960 . S
C2018 H2004 0.960 . S
C2018 H2005 0.960 . S
C2018 C2017 1.524 . S
C2019 C2016 1.403 . S
C2019 C2020 1.392 . S
C2019 C2023 1.495 . S
C2020 C2019 1.392 . S
C2020 C2021 1.385 . S
C2020 C2022 1.478 . S
C2021 H2015 0.930 . S
C2021 C2017 1.400 . S
C2021 C2020 1.385 . S
C2022 C2020 1.478 . S
C2022 C2024 1.381 . S
C2022 C2028 1.383 . S
C2023 C2019 1.495 . S
C2023 H2029 0.959 . S
C2023 H2030 0.961 . S
C2023 H2031 0.960 . S
C2024 C2022 1.381 . S
C2024 C2025 1.394 . S
C2024 H2032 0.930 . S
C2025 C2024 1.394 . S
C2025 C2026 1.383 . S
C2025 H2033 0.929 . S
C2026 C2025 1.383 . S
C2026 C2027 1.377 . S
C2027 H2011 0.930 . S
C2027 C2026 1.377 . S
C2027 C2028 1.379 . S
C2028 H2012 0.931 . S
C2028 C2022 1.383 . S
C2028 C2027 1.379 . S
H2029 C2023 0.959 . S
H2030 C2023 0.961 . S
H2031 C2023 0.960 . S
H2032 C2024 0.930 . S
H2033 C2025 0.929 . S
H2034 C2042 0.929 . S
H2035 C2044 0.930 . S
H2036 C2046 0.930 . S
H2037 C2049 0.929 . S
H2038 C2052 0.930 . S
H2039 C2054 0.960 . S
H2040 C2054 0.960 . S
H2041 C2054 0.960 . S
C2042 H2034 0.929 . S
C2042 C2043 1.377 . S
C2042 C2044 1.384 . S
C2043 C2042 1.377 . S
C2043 C2049 1.390 . S
C2044 H2035 0.930 . S
C2044 C2042 1.384 . S
C2044 C2045 1.372 . S
C2045 C2044 1.372 . S
C2045 C2046 1.400 . S
C2045 C2050 1.490 . S
C2046 H2036 0.930 . S
C2046 C2045 1.400 . S
C2046 C2049 1.386 . S
H2047 C2063 0.930 . S
H2048 C2064 0.931 . S
C2049 H2037 0.929 . S
C2049 C2043 1.390 . S
C2049 C2046 1.386 . S
C2050 C2045 1.490 . S
C2050 C2052 1.395 . S
C2050 C2053 1.403 . S
H2051 C2057 0.930 . S
C2052 H2038 0.930 . S
C2052 C2050 1.395 . S
C2052 C2055 1.403 . S
C2053 C2050 1.403 . S
C2053 C2054 1.524 . S
C2053 C2057 1.400 . S
C2054 H2039 0.960 . S
C2054 H2040 0.960 . S
C2054 H2041 0.960 . S
C2054 C2053 1.524 . S
C2055 C2052 1.403 . S
C2055 C2056 1.392 . S
C2055 C2059 1.495 . S
C2056 C2055 1.392 . S
C2056 C2057 1.385 . S
C2056 C2058 1.478 . S
C2057 H2051 0.930 . S
C2057 C2053 1.400 . S
C2057 C2056 1.385 . S
C2058 C2056 1.478 . S
C2058 C2060 1.381 . S
C2058 C2064 1.383 . S
C2059 C2055 1.495 . S
C2059 H2065 0.959 . S
C2059 H2066 0.961 . S
C2059 H2067 0.960 . S
C2060 C2058 1.381 . S
C2060 C2061 1.394 . S
C2060 H2068 0.930 . S
C2061 C2060 1.394 . S
C2061 C2062 1.383 . S
C2061 H2069 0.929 . S
C2062 C2061 1.383 . S
C2062 C2063 1.377 . S
C2063 H2047 0.930 . S
C2063 C2062 1.377 . S
C2063 C2064 1.379 . S
C2064 H2048 0.931 . S
C2064 C2058 1.383 . S
C2064 C2063 1.379 . S
H2065 C2059 0.959 . S
H2066 C2059 0.961 . S
H2067 C2059 0.960 . S
H2068 C2060 0.930 . S
H2069 C2061 0.929 . S
H2070 C2078 0.929 . S
H2071 C2080 0.930 . S
H2072 C2082 0.930 . S
H2073 C2085 0.929 . S
H2074 C2088 0.930 . S
H2075 C2090 0.960 . S
H2076 C2090 0.960 . S
H2077 C2090 0.960 . S
C2078 H2070 0.929 . S
C2078 C2079 1.377 . S
C2078 C2080 1.384 . S
C2079 C2078 1.377 . S
C2079 C2085 1.390 . S
C2080 H2071 0.930 . S
C2080 C2078 1.384 . S
C2080 C2081 1.372 . S
C2081 C2080 1.372 . S
C2081 C2082 1.400 . S
C2081 C2086 1.490 . S
C2082 H2072 0.930 . S
C2082 C2081 1.400 . S
C2082 C2085 1.386 . S
H2083 C2099 0.930 . S
H2084 C2100 0.931 . S
C2085 H2073 0.929 . S
C2085 C2079 1.390 . S
C2085 C2082 1.386 . S
C2086 C2081 1.490 . S
C2086 C2088 1.395 . S
C2086 C2089 1.403 . S
H2087 C2093 0.930 . S
C2088 H2074 0.930 . S
C2088 C2086 1.395 . S
C2088 C2091 1.403 . S
C2089 C2086 1.403 . S
C2089 C2090 1.524 . S
C2089 C2093 1.400 . S
C2090 H2075 0.960 . S
C2090 H2076 0.960 . S
C2090 H2077 0.960 . S
C2090 C2089 1.524 . S
C2091 C2088 1.403 . S
C2091 C2092 1.392 . S
C2091 C2095 1.495 . S
C2092 C2091 1.392 . S
C2092 C2093 1.385 . S
C2092 C2094 1.478 . S
C2093 H2087 0.930 . S
C2093 C2089 1.400 . S
C2093 C2092 1.385 . S
C2094 C2092 1.478 . S
C2094 C2096 1.381 . S
C2094 C2100 1.383 . S
C2095 C2091 1.495 . S
C2095 H2101 0.959 . S
C2095 H2102 0.961 . S
C2095 H2103 0.960 . S
C2096 C2094 1.381 . S
C2096 C2097 1.394 . S
C2096 H2104 0.930 . S
C2097 C2096 1.394 . S
C2097 C2098 1.383 . S
C2097 H2105 0.929 . S
C2098 C2097 1.383 . S
C2098 C2099 1.377 . S
C2099 H2083 0.930 . S
C2099 C2098 1.377 . S
C2099 C2100 1.379 . S
C2100 H2084 0.931 . S
C2100 C2094 1.383 . S
C2100 C2099 1.379 . S
H2101 C2095 0.959 . S
H2102 C2095 0.961 . S
H2103 C2095 0.960 . S
H2104 C2096 0.930 . S
H2105 C2097 0.929 . S
H2106 C2114 0.929 . S
H2107 C2116 0.930 . S
H2108 C2118 0.930 . S
H2109 C2121 0.929 . S
H2110 C2124 0.930 . S
H2111 C2126 0.960 . S
H2112 C2126 0.960 . S
H2113 C2126 0.960 . S
C2114 H2106 0.929 . S
C2114 C2115 1.377 . S
C2114 C2116 1.384 . S
C2115 C2114 1.377 . S
C2115 C2121 1.390 . S
C2116 H2107 0.930 . S
C2116 C2114 1.384 . S
C2116 C2117 1.372 . S
C2117 C2116 1.372 . S
C2117 C2118 1.400 . S
C2117 C2122 1.490 . S
C2118 H2108 0.930 . S
C2118 C2117 1.400 . S
C2118 C2121 1.386 . S
H2119 C2135 0.930 . S
H2120 C2136 0.931 . S
C2121 H2109 0.929 . S
C2121 C2115 1.390 . S
C2121 C2118 1.386 . S
C2122 C2117 1.490 . S
C2122 C2124 1.395 . S
C2122 C2125 1.403 . S
H2123 C2129 0.930 . S
C2124 H2110 0.930 . S
C2124 C2122 1.395 . S
C2124 C2127 1.403 . S
C2125 C2122 1.403 . S
C2125 C2126 1.524 . S
C2125 C2129 1.400 . S
C2126 H2111 0.960 . S
C2126 H2112 0.960 . S
C2126 H2113 0.960 . S
C2126 C2125 1.524 . S
C2127 C2124 1.403 . S
C2127 C2128 1.392 . S
C2127 C2131 1.495 . S
C2128 C2127 1.392 . S
C2128 C2129 1.385 . S
C2128 C2130 1.478 . S
C2129 H2123 0.930 . S
C2129 C2125 1.400 . S
C2129 C2128 1.385 . S
C2130 C2128 1.478 . S
C2130 C2132 1.381 . S
C2130 C2136 1.383 . S
C2131 C2127 1.495 . S
C2131 H2137 0.959 . S
C2131 H2138 0.961 . S
C2131 H2139 0.960 . S
C2132 C2130 1.381 . S
C2132 C2133 1.394 . S
C2132 H2140 0.930 . S
C2133 C2132 1.394 . S
C2133 C2134 1.383 . S
C2133 H2141 0.929 . S
C2134 C2133 1.383 . S
C2134 C2135 1.377 . S
C2135 H2119 0.930 . S
C2135 C2134 1.377 . S
C2135 C2136 1.379 . S
C2136 H2120 0.931 . S
C2136 C2130 1.383 . S
C2136 C2135 1.379 . S
H2137 C2131 0.959 . S
H2138 C2131 0.961 . S
H2139 C2131 0.960 . S
H2140 C2132 0.930 . S
H2141 C2133 0.929 . S
H2142 C2150 0.929 . S
H2143 C2152 0.930 . S
H2144 C2154 0.930 . S
H2145 C2157 0.929 . S
H2146 C2160 0.930 . S
H2147 C2162 0.960 . S
H2148 C2162 0.960 . S
H2149 C2162 0.960 . S
C2150 H2142 0.929 . S
C2150 C2151 1.377 . S
C2150 C2152 1.384 . S
C2151 C2150 1.377 . S
C2151 C2157 1.390 . S
C2152 H2143 0.930 . S
C2152 C2150 1.384 . S
C2152 C2153 1.372 . S
C2153 C2152 1.372 . S
C2153 C2154 1.400 . S
C2153 C2158 1.490 . S
C2154 H2144 0.930 . S
C2154 C2153 1.400 . S
C2154 C2157 1.386 . S
H2155 C2171 0.930 . S
H2156 C2172 0.931 . S
C2157 H2145 0.929 . S
C2157 C2151 1.390 . S
C2157 C2154 1.386 . S
C2158 C2153 1.490 . S
C2158 C2160 1.395 . S
C2158 C2161 1.403 . S
H2159 C2165 0.930 . S
C2160 H2146 0.930 . S
C2160 C2158 1.395 . S
C2160 C2163 1.403 . S
C2161 C2158 1.403 . S
C2161 C2162 1.524 . S
C2161 C2165 1.400 . S
C2162 H2147 0.960 . S
C2162 H2148 0.960 . S
C2162 H2149 0.960 . S
C2162 C2161 1.524 . S
C2163 C2160 1.403 . S
C2163 C2164 1.392 . S
C2163 C2167 1.495 . S
C2164 C2163 1.392 . S
C2164 C2165 1.385 . S
C2164 C2166 1.478 . S
C2165 H2159 0.930 . S
C2165 C2161 1.400 . S
C2165 C2164 1.385 . S
C2166 C2164 1.478 . S
C2166 C2168 1.381 . S
C2166 C2172 1.383 . S
C2167 C2163 1.495 . S
C2167 H2173 0.959 . S
C2167 H2174 0.961 . S
C2167 H2175 0.960 . S
C2168 C2166 1.381 . S
C2168 C2169 1.394 . S
C2168 H2176 0.930 . S
C2169 C2168 1.394 . S
C2169 C2170 1.383 . S
C2169 H2177 0.929 . S
C2170 C2169 1.383 . S
C2170 C2171 1.377 . S
C2171 H2155 0.930 . S
C2171 C2170 1.377 . S
C2171 C2172 1.379 . S
C2172 H2156 0.931 . S
C2172 C2166 1.383 . S
C2172 C2171 1.379 . S
H2173 C2167 0.959 . S
H2174 C2167 0.961 . S
H2175 C2167 0.960 . S
H2176 C2168 0.930 . S
H2177 C2169 0.929 . S
H2178 C2186 0.929 . S
H2179 C2188 0.930 . S
H2180 C2190 0.930 . S
H2181 C2193 0.929 . S
H2182 C2196 0.930 . S
H2183 C2198 0.960 . S
H2184 C2198 0.960 . S
H2185 C2198 0.960 . S
C2186 H2178 0.929 . S
C2186 C2187 1.377 . S
C2186 C2188 1.384 . S
C2187 C2186 1.377 . S
C2187 C2193 1.390 . S
C2188 H2179 0.930 . S
C2188 C2186 1.384 . S
C2188 C2189 1.372 . S
C2189 C2188 1.372 . S
C2189 C2190 1.400 . S
C2189 C2194 1.490 . S
C2190 H2180 0.930 . S
C2190 C2189 1.400 . S
C2190 C2193 1.386 . S
H2191 C2207 0.930 . S
H2192 C2208 0.931 . S
C2193 H2181 0.929 . S
C2193 C2187 1.390 . S
C2193 C2190 1.386 . S
C2194 C2189 1.490 . S
C2194 C2196 1.395 . S
C2194 C2197 1.403 . S
H2195 C2201 0.930 . S
C2196 H2182 0.930 . S
C2196 C2194 1.395 . S
C2196 C2199 1.403 . S
C2197 C2194 1.403 . S
C2197 C2198 1.524 . S
C2197 C2201 1.400 . S
C2198 H2183 0.960 . S
C2198 H2184 0.960 . S
C2198 H2185 0.960 . S
C2198 C2197 1.524 . S
C2199 C2196 1.403 . S
C2199 C2200 1.392 . S
C2199 C2203 1.495 . S
C2200 C2199 1.392 . S
C2200 C2201 1.385 . S
C2200 C2202 1.478 . S
C2201 H2195 0.930 . S
C2201 C2197 1.400 . S
C2201 C2200 1.385 . S
C2202 C2200 1.478 . S
C2202 C2204 1.381 . S
C2202 C2208 1.383 . S
C2203 C2199 1.495 . S
C2203 H2209 0.959 . S
C2203 H2210 0.961 . S
C2203 H2211 0.960 . S
C2204 C2202 1.381 . S
C2204 C2205 1.394 . S
C2204 H2212 0.930 . S
C2205 C2204 1.394 . S
C2205 C2206 1.383 . S
C2205 H2213 0.929 . S
C2206 C2205 1.383 . S
C2206 C2207 1.377 . S
C2207 H2191 0.930 . S
C2207 C2206 1.377 . S
C2207 C2208 1.379 . S
C2208 H2192 0.931 . S
C2208 C2202 1.383 . S
C2208 C2207 1.379 . S
H2209 C2203 0.959 . S
H2210 C2203 0.961 . S
H2211 C2203 0.960 . S
H2212 C2204 0.930 . S
H2213 C2205 0.929 . S
H2214 C2222 0.929 . S
H2215 C2224 0.930 . S
H2216 C2226 0.930 . S
H2217 C2229 0.929 . S
H2218 C2232 0.930 . S
H2219 C2234 0.960 . S
H2220 C2234 0.960 . S
H2221 C2234 0.960 . S
C2222 H2214 0.929 . S
C2222 C2223 1.377 . S
C2222 C2224 1.384 . S
C2223 C2222 1.377 . S
C2223 C2229 1.390 . S
C2224 H2215 0.930 . S
C2224 C2222 1.384 . S
C2224 C2225 1.372 . S
C2225 C2224 1.372 . S
C2225 C2226 1.400 . S
C2225 C2230 1.490 . S
C2226 H2216 0.930 . S
C2226 C2225 1.400 . S
C2226 C2229 1.386 . S
H2227 C2243 0.930 . S
H2228 C2244 0.931 . S
C2229 H2217 0.929 . S
C2229 C2223 1.390 . S
C2229 C2226 1.386 . S
C2230 C2225 1.490 . S
C2230 C2232 1.395 . S
C2230 C2233 1.403 . S
H2231 C2237 0.930 . S
C2232 H2218 0.930 . S
C2232 C2230 1.395 . S
C2232 C2235 1.403 . S
C2233 C2230 1.403 . S
C2233 C2234 1.524 . S
C2233 C2237 1.400 . S
C2234 H2219 0.960 . S
C2234 H2220 0.960 . S
C2234 H2221 0.960 . S
C2234 C2233 1.524 . S
C2235 C2232 1.403 . S
C2235 C2236 1.392 . S
C2235 C2239 1.495 . S
C2236 C2235 1.392 . S
C2236 C2237 1.385 . S
C2236 C2238 1.478 . S
C2237 H2231 0.930 . S
C2237 C2233 1.400 . S
C2237 C2236 1.385 . S
C2238 C2236 1.478 . S
C2238 C2240 1.381 . S
C2238 C2244 1.383 . S
C2239 C2235 1.495 . S
C2239 H2245 0.959 . S
C2239 H2246 0.961 . S
C2239 H2247 0.960 . S
C2240 C2238 1.381 . S
C2240 C2241 1.394 . S
C2240 H2248 0.930 . S
C2241 C2240 1.394 . S
C2241 C2242 1.383 . S
C2241 H2249 0.929 . S
C2242 C2241 1.383 . S
C2242 C2243 1.377 . S
C2243 H2227 0.930 . S
C2243 C2242 1.377 . S
C2243 C2244 1.379 . S
C2244 H2228 0.931 . S
C2244 C2238 1.383 . S
C2244 C2243 1.379 . S
H2245 C2239 0.959 . S
H2246 C2239 0.961 . S
H2247 C2239 0.960 . S
H2248 C2240 0.930 . S
H2249 C2241 0.929 . S
H2250 C2258 0.929 . S
H2251 C2260 0.930 . S
H2252 C2262 0.930 . S
H2253 C2265 0.929 . S
H2254 C2268 0.930 . S
H2255 C2270 0.960 . S
H2256 C2270 0.960 . S
H2257 C2270 0.960 . S
C2258 H2250 0.929 . S
C2258 C2259 1.377 . S
C2258 C2260 1.384 . S
C2259 C2258 1.377 . S
C2259 C2265 1.390 . S
C2260 H2251 0.930 . S
C2260 C2258 1.384 . S
C2260 C2261 1.372 . S
C2261 C2260 1.372 . S
C2261 C2262 1.400 . S
C2261 C2266 1.490 . S
C2262 H2252 0.930 . S
C2262 C2261 1.400 . S
C2262 C2265 1.386 . S
H2263 C2279 0.930 . S
H2264 C2280 0.931 . S
C2265 H2253 0.929 . S
C2265 C2259 1.390 . S
C2265 C2262 1.386 . S
C2266 C2261 1.490 . S
C2266 C2268 1.395 . S
C2266 C2269 1.403 . S
H2267 C2273 0.930 . S
C2268 H2254 0.930 . S
C2268 C2266 1.395 . S
C2268 C2271 1.403 . S
C2269 C2266 1.403 . S
C2269 C2270 1.524 . S
C2269 C2273 1.400 . S
C2270 H2255 0.960 . S
C2270 H2256 0.960 . S
C2270 H2257 0.960 . S
C2270 C2269 1.524 . S
C2271 C2268 1.403 . S
C2271 C2272 1.392 . S
C2271 C2275 1.495 . S
C2272 C2271 1.392 . S
C2272 C2273 1.385 . S
C2272 C2274 1.478 . S
C2273 H2267 0.930 . S
C2273 C2269 1.400 . S
C2273 C2272 1.385 . S
C2274 C2272 1.478 . S
C2274 C2276 1.381 . S
C2274 C2280 1.383 . S
C2275 C2271 1.495 . S
C2275 H2281 0.959 . S
C2275 H2282 0.961 . S
C2275 H2283 0.960 . S
C2276 C2274 1.381 . S
C2276 C2277 1.394 . S
C2276 H2284 0.930 . S
C2277 C2276 1.394 . S
C2277 C2278 1.383 . S
C2277 H2285 0.929 . S
C2278 C2277 1.383 . S
C2278 C2279 1.377 . S
C2279 H2263 0.930 . S
C2279 C2278 1.377 . S
C2279 C2280 1.379 . S
C2280 H2264 0.931 . S
C2280 C2274 1.383 . S
C2280 C2279 1.379 . S
H2281 C2275 0.959 . S
H2282 C2275 0.961 . S
H2283 C2275 0.960 . S
H2284 C2276 0.930 . S
H2285 C2277 0.929 . S
H2286 C2294 0.929 . S
H2287 C2296 0.930 . S
H2288 C2298 0.930 . S
H2289 C2301 0.929 . S
H2290 C2304 0.930 . S
H2291 C2306 0.960 . S
H2292 C2306 0.960 . S
H2293 C2306 0.960 . S
C2294 H2286 0.929 . S
C2294 C2295 1.377 . S
C2294 C2296 1.384 . S
C2295 C2294 1.377 . S
C2295 C2301 1.390 . S
C2296 H2287 0.930 . S
C2296 C2294 1.384 . S
C2296 C2297 1.372 . S
C2297 C2296 1.372 . S
C2297 C2298 1.400 . S
C2297 C2302 1.490 . S
C2298 H2288 0.930 . S
C2298 C2297 1.400 . S
C2298 C2301 1.386 . S
H2299 C2315 0.930 . S
H2300 C2316 0.931 . S
C2301 H2289 0.929 . S
C2301 C2295 1.390 . S
C2301 C2298 1.386 . S
C2302 C2297 1.490 . S
C2302 C2304 1.395 . S
C2302 C2305 1.403 . S
H2303 C2309 0.930 . S
C2304 H2290 0.930 . S
C2304 C2302 1.395 . S
C2304 C2307 1.403 . S
C2305 C2302 1.403 . S
C2305 C2306 1.524 . S
C2305 C2309 1.400 . S
C2306 H2291 0.960 . S
C2306 H2292 0.960 . S
C2306 H2293 0.960 . S
C2306 C2305 1.524 . S
C2307 C2304 1.403 . S
C2307 C2308 1.392 . S
C2307 C2311 1.495 . S
C2308 C2307 1.392 . S
C2308 C2309 1.385 . S
C2308 C2310 1.478 . S
C2309 H2303 0.930 . S
C2309 C2305 1.400 . S
C2309 C2308 1.385 . S
C2310 C2308 1.478 . S
C2310 C2312 1.381 . S
C2310 C2316 1.383 . S
C2311 C2307 1.495 . S
C2311 H2317 0.959 . S
C2311 H2318 0.961 . S
C2311 H2319 0.960 . S
C2312 C2310 1.381 . S
C2312 C2313 1.394 . S
C2312 H2320 0.930 . S
C2313 C2312 1.394 . S
C2313 C2314 1.383 . S
C2313 H2321 0.929 . S
C2314 C2313 1.383 . S
C2314 C2315 1.377 . S
C2315 H2299 0.930 . S
C2315 C2314 1.377 . S
C2315 C2316 1.379 . S
C2316 H2300 0.931 . S
C2316 C2310 1.383 . S
C2316 C2315 1.379 . S
H2317 C2311 0.959 . S
H2318 C2311 0.961 . S
H2319 C2311 0.960 . S
H2320 C2312 0.930 . S
H2321 C2313 0.929 . S
H2322 C2330 0.929 . S
H2323 C2332 0.930 . S
H2324 C2334 0.930 . S
H2325 C2337 0.929 . S
H2326 C2340 0.930 . S
H2327 C2342 0.960 . S
H2328 C2342 0.960 . S
H2329 C2342 0.960 . S
C2330 H2322 0.929 . S
C2330 C2331 1.377 . S
C2330 C2332 1.384 . S
C2331 C2330 1.377 . S
C2331 C2337 1.390 . S
C2332 H2323 0.930 . S
C2332 C2330 1.384 . S
C2332 C2333 1.372 . S
C2333 C2332 1.372 . S
C2333 C2334 1.400 . S
C2333 C2338 1.490 . S
C2334 H2324 0.930 . S
C2334 C2333 1.400 . S
C2334 C2337 1.386 . S
H2335 C2351 0.930 . S
H2336 C2352 0.931 . S
C2337 H2325 0.929 . S
C2337 C2331 1.390 . S
C2337 C2334 1.386 . S
C2338 C2333 1.490 . S
C2338 C2340 1.395 . S
C2338 C2341 1.403 . S
H2339 C2345 0.930 . S
C2340 H2326 0.930 . S
C2340 C2338 1.395 . S
C2340 C2343 1.403 . S
C2341 C2338 1.403 . S
C2341 C2342 1.524 . S
C2341 C2345 1.400 . S
C2342 H2327 0.960 . S
C2342 H2328 0.960 . S
C2342 H2329 0.960 . S
C2342 C2341 1.524 . S
C2343 C2340 1.403 . S
C2343 C2344 1.392 . S
C2343 C2347 1.495 . S
C2344 C2343 1.392 . S
C2344 C2345 1.385 . S
C2344 C2346 1.478 . S
C2345 H2339 0.930 . S
C2345 C2341 1.400 . S
C2345 C2344 1.385 . S
C2346 C2344 1.478 . S
C2346 C2348 1.381 . S
C2346 C2352 1.383 . S
C2347 C2343 1.495 . S
C2347 H2353 0.959 . S
C2347 H2354 0.961 . S
C2347 H2355 0.960 . S
C2348 C2346 1.381 . S
C2348 C2349 1.394 . S
C2348 H2356 0.930 . S
C2349 C2348 1.394 . S
C2349 C2350 1.383 . S
C2349 H2357 0.929 . S
C2350 C2349 1.383 . S
C2350 C2351 1.377 . S
C2351 H2335 0.930 . S
C2351 C2350 1.377 . S
C2351 C2352 1.379 . S
C2352 H2336 0.931 . S
C2352 C2346 1.383 . S
C2352 C2351 1.379 . S
H2353 C2347 0.959 . S
H2354 C2347 0.961 . S
H2355 C2347 0.960 . S
H2356 C2348 0.930 . S
H2357 C2349 0.929 . S
H2358 C2366 0.929 . S
H2359 C2368 0.930 . S
H2360 C2370 0.930 . S
H2361 C2373 0.929 . S
H2362 C2376 0.930 . S
H2363 C2378 0.960 . S
H2364 C2378 0.960 . S
H2365 C2378 0.960 . S
C2366 H2358 0.929 . S
C2366 C2367 1.377 . S
C2366 C2368 1.384 . S
C2367 C2366 1.377 . S
C2367 C2373 1.390 . S
C2368 H2359 0.930 . S
C2368 C2366 1.384 . S
C2368 C2369 1.372 . S
C2369 C2368 1.372 . S
C2369 C2370 1.400 . S
C2369 C2374 1.490 . S
C2370 H2360 0.930 . S
C2370 C2369 1.400 . S
C2370 C2373 1.386 . S
H2371 C2387 0.930 . S
H2372 C2388 0.931 . S
C2373 H2361 0.929 . S
C2373 C2367 1.390 . S
C2373 C2370 1.386 . S
C2374 C2369 1.490 . S
C2374 C2376 1.395 . S
C2374 C2377 1.403 . S
H2375 C2381 0.930 . S
C2376 H2362 0.930 . S
C2376 C2374 1.395 . S
C2376 C2379 1.403 . S
C2377 C2374 1.403 . S
C2377 C2378 1.524 . S
C2377 C2381 1.400 . S
C2378 H2363 0.960 . S
C2378 H2364 0.960 . S
C2378 H2365 0.960 . S
C2378 C2377 1.524 . S
C2379 C2376 1.403 . S
C2379 C2380 1.392 . S
C2379 C2383 1.495 . S
C2380 C2379 1.392 . S
C2380 C2381 1.385 . S
C2380 C2382 1.478 . S
C2381 H2375 0.930 . S
C2381 C2377 1.400 . S
C2381 C2380 1.385 . S
C2382 C2380 1.478 . S
C2382 C2384 1.381 . S
C2382 C2388 1.383 . S
C2383 C2379 1.495 . S
C2383 H2389 0.959 . S
C2383 H2390 0.961 . S
C2383 H2391 0.960 . S
C2384 C2382 1.381 . S
C2384 C2385 1.394 . S
C2384 H2392 0.930 . S
C2385 C2384 1.394 . S
C2385 C2386 1.383 . S
C2385 H2393 0.929 . S
C2386 C2385 1.383 . S
C2386 C2387 1.377 . S
C2387 H2371 0.930 . S
C2387 C2386 1.377 . S
C2387 C2388 1.379 . S
C2388 H2372 0.931 . S
C2388 C2382 1.383 . S
C2388 C2387 1.379 . S
H2389 C2383 0.959 . S
H2390 C2383 0.961 . S
H2391 C2383 0.960 . S
H2392 C2384 0.930 . S
H2393 C2385 0.929 . S
H2394 C2402 0.929 . S
H2395 C2404 0.930 . S
H2396 C2406 0.930 . S
H2397 C2409 0.929 . S
H2398 C2412 0.930 . S
H2399 C2414 0.960 . S
H2400 C2414 0.960 . S
H2401 C2414 0.960 . S
C2402 H2394 0.929 . S
C2402 C2403 1.377 . S
C2402 C2404 1.384 . S
C2403 C2402 1.377 . S
C2403 C2409 1.390 . S
C2404 H2395 0.930 . S
C2404 C2402 1.384 . S
C2404 C2405 1.372 . S
C2405 C2404 1.372 . S
C2405 C2406 1.400 . S
C2405 C2410 1.490 . S
C2406 H2396 0.930 . S
C2406 C2405 1.400 . S
C2406 C2409 1.386 . S
H2407 C2423 0.930 . S
H2408 C2424 0.931 . S
C2409 H2397 0.929 . S
C2409 C2403 1.390 . S
C2409 C2406 1.386 . S
C2410 C2405 1.490 . S
C2410 C2412 1.395 . S
C2410 C2413 1.403 . S
H2411 C2417 0.930 . S
C2412 H2398 0.930 . S
C2412 C2410 1.395 . S
C2412 C2415 1.403 . S
C2413 C2410 1.403 . S
C2413 C2414 1.524 . S
C2413 C2417 1.400 . S
C2414 H2399 0.960 . S
C2414 H2400 0.960 . S
C2414 H2401 0.960 . S
C2414 C2413 1.524 . S
C2415 C2412 1.403 . S
C2415 C2416 1.392 . S
C2415 C2419 1.495 . S
C2416 C2415 1.392 . S
C2416 C2417 1.385 . S
C2416 C2418 1.478 . S
C2417 H2411 0.930 . S
C2417 C2413 1.400 . S
C2417 C2416 1.385 . S
C2418 C2416 1.478 . S
C2418 C2420 1.381 . S
C2418 C2424 1.383 . S
C2419 C2415 1.495 . S
C2419 H2425 0.959 . S
C2419 H2426 0.961 . S
C2419 H2427 0.960 . S
C2420 C2418 1.381 . S
C2420 C2421 1.394 . S
C2420 H2428 0.930 . S
C2421 C2420 1.394 . S
C2421 C2422 1.383 . S
C2421 H2429 0.929 . S
C2422 C2421 1.383 . S
C2422 C2423 1.377 . S
C2423 H2407 0.930 . S
C2423 C2422 1.377 . S
C2423 C2424 1.379 . S
C2424 H2408 0.931 . S
C2424 C2418 1.383 . S
C2424 C2423 1.379 . S
H2425 C2419 0.959 . S
H2426 C2419 0.961 . S
H2427 C2419 0.960 . S
H2428 C2420 0.930 . S
H2429 C2421 0.929 . S
H2430 C2438 0.929 . S
H2431 C2440 0.930 . S
H2432 C2442 0.930 . S
H2433 C2445 0.929 . S
H2434 C2448 0.930 . S
H2435 C2450 0.960 . S
H2436 C2450 0.960 . S
H2437 C2450 0.960 . S
C2438 H2430 0.929 . S
C2438 C2439 1.377 . S
C2438 C2440 1.384 . S
C2439 C2438 1.377 . S
C2439 C2445 1.390 . S
C2440 H2431 0.930 . S
C2440 C2438 1.384 . S
C2440 C2441 1.372 . S
C2441 C2440 1.372 . S
C2441 C2442 1.400 . S
C2441 C2446 1.490 . S
C2442 H2432 0.930 . S
C2442 C2441 1.400 . S
C2442 C2445 1.386 . S
H2443 C2459 0.930 . S
H2444 C2460 0.931 . S
C2445 H2433 0.929 . S
C2445 C2439 1.390 . S
C2445 C2442 1.386 . S
C2446 C2441 1.490 . S
C2446 C2448 1.395 . S
C2446 C2449 1.403 . S
H2447 C2453 0.930 . S
C2448 H2434 0.930 . S
C2448 C2446 1.395 . S
C2448 C2451 1.403 . S
C2449 C2446 1.403 . S
C2449 C2450 1.524 . S
C2449 C2453 1.400 . S
C2450 H2435 0.960 . S
C2450 H2436 0.960 . S
C2450 H2437 0.960 . S
C2450 C2449 1.524 . S
C2451 C2448 1.403 . S
C2451 C2452 1.392 . S
C2451 C2455 1.495 . S
C2452 C2451 1.392 . S
C2452 C2453 1.385 . S
C2452 C2454 1.478 . S
C2453 H2447 0.930 . S
C2453 C2449 1.400 . S
C2453 C2452 1.385 . S
C2454 C2452 1.478 . S
C2454 C2456 1.381 . S
C2454 C2460 1.383 . S
C2455 C2451 1.495 . S
C2455 H2461 0.959 . S
C2455 H2462 0.961 . S
C2455 H2463 0.960 . S
C2456 C2454 1.381 . S
C2456 C2457 1.394 . S
C2456 H2464 0.930 . S
C2457 C2456 1.394 . S
C2457 C2458 1.383 . S
C2457 H2465 0.929 . S
C2458 C2457 1.383 . S
C2458 C2459 1.377 . S
C2459 H2443 0.930 . S
C2459 C2458 1.377 . S
C2459 C2460 1.379 . S
C2460 H2444 0.931 . S
C2460 C2454 1.383 . S
C2460 C2459 1.379 . S
H2461 C2455 0.959 . S
H2462 C2455 0.961 . S
H2463 C2455 0.960 . S
H2464 C2456 0.930 . S
H2465 C2457 0.929 . S
H2466 C2474 0.929 . S
H2467 C2476 0.930 . S
H2468 C2478 0.930 . S
H2469 C2481 0.929 . S
H2470 C2484 0.930 . S
H2471 C2486 0.960 . S
H2472 C2486 0.960 . S
H2473 C2486 0.960 . S
C2474 H2466 0.929 . S
C2474 C2475 1.377 . S
C2474 C2476 1.384 . S
C2475 C2474 1.377 . S
C2475 C2481 1.390 . S
C2476 H2467 0.930 . S
C2476 C2474 1.384 . S
C2476 C2477 1.372 . S
C2477 C2476 1.372 . S
C2477 C2478 1.400 . S
C2477 C2482 1.490 . S
C2478 H2468 0.930 . S
C2478 C2477 1.400 . S
C2478 C2481 1.386 . S
H2479 C2495 0.930 . S
H2480 C2496 0.931 . S
C2481 H2469 0.929 . S
C2481 C2475 1.390 . S
C2481 C2478 1.386 . S
C2482 C2477 1.490 . S
C2482 C2484 1.395 . S
C2482 C2485 1.403 . S
H2483 C2489 0.930 . S
C2484 H2470 0.930 . S
C2484 C2482 1.395 . S
C2484 C2487 1.403 . S
C2485 C2482 1.403 . S
C2485 C2486 1.524 . S
C2485 C2489 1.400 . S
C2486 H2471 0.960 . S
C2486 H2472 0.960 . S
C2486 H2473 0.960 . S
C2486 C2485 1.524 . S
C2487 C2484 1.403 . S
C2487 C2488 1.392 . S
C2487 C2491 1.495 . S
C2488 C2487 1.392 . S
C2488 C2489 1.385 . S
C2488 C2490 1.478 . S
C2489 H2483 0.930 . S
C2489 C2485 1.400 . S
C2489 C2488 1.385 . S
C2490 C2488 1.478 . S
C2490 C2492 1.381 . S
C2490 C2496 1.383 . S
C2491 C2487 1.495 . S
C2491 H2497 0.959 . S
C2491 H2498 0.961 . S
C2491 H2499 0.960 . S
C2492 C2490 1.381 . S
C2492 C2493 1.394 . S
C2492 H2500 0.930 . S
C2493 C2492 1.394 . S
C2493 C2494 1.383 . S
C2493 H2501 0.929 . S
C2494 C2493 1.383 . S
C2494 C2495 1.377 . S
C2495 H2479 0.930 . S
C2495 C2494 1.377 . S
C2495 C2496 1.379 . S
C2496 H2480 0.931 . S
C2496 C2490 1.383 . S
C2496 C2495 1.379 . S
H2497 C2491 0.959 . S
H2498 C2491 0.961 . S
H2499 C2491 0.960 . S
H2500 C2492 0.930 . S
H2501 C2493 0.929 . S
C567 C147 1.675 . S
C586 C207 1.675 . S
C603 C158 1.830 . S
C622 C247 1.820 . S
C639 C136 1.600 . S
C658 C286 1.545 . S
C675 C125 1.466 . S
C694 C246 1.423 . S
C730 C287 1.488 1_556 S
C711 C103 1.488 . S
C747 C114 1.314 . S
C766 C206 1.280 . S
C802 C217 1.653 1_556 S
C783 C131 1.657 . S
C838 C257 1.688 . S
C819 C109 1.688 . S
C855 C120 1.670 . S
C874 C296 1.666 . S
C891 C153 1.493 . S
C910 C256 1.461 . S
C927 C164 1.436 . S
C946 C297 1.416 . S
C982 C216 1.440 . S
C963 C142 1.414 . S
C1018 C327 1.679 . S
C999 C15 1.676 . S
C1035 C26 1.830 . S
C1054 C367 1.819 . S
C1071 C4 1.602 . S
C1090 C406 1.551 . S
C1107 C191 1.466 . S
C1126 C366 1.425 . S
C1143 C169 1.489 . S
C1162 C407 1.476 . S
C1179 C180 1.315 . S
C1198 C326 1.287 . S
C1215 C197 1.659 . S
C1234 C337 1.653 . S
C1251 C175 1.690 . S
C1270 C377 1.685 . S
C1306 C416 1.655 . S
C1287 C186 1.663 . S
C1323 C21 1.489 . S
C1342 C376 1.466 . S
C1378 C417 1.397 . S
C1359 C32 1.435 . S
C1395 C10 1.414 . S
C1414 C336 1.427 . S
C1450 C447 1.672 . S
C1431 C81 1.678 . S
C1467 C92 1.827 . S
C1486 C487 1.813 . S
C1522 C526 1.588 . S
C1503 C70 1.606 . S
C1558 C486 1.451 . S
C1539 C59 1.469 . S
C1594 C527 1.474 . S
C1575 C37 1.487 . S
C1611 C48 1.318 . S
C1630 C446 1.309 . S
C1647 C65 1.656 . S
C1666 C457 1.630 . S
C1683 C43 1.688 . S
C1702 C497 1.656 . S
C1738 C536 1.652 . S
C1719 C54 1.665 . S
C1755 C87 1.491 . S
C1774 C496 1.504 . S
C1791 C98 1.440 . S
C1810 C537 1.425 . S
C1827 C76 1.420 . S
C1846 C456 1.407 . S
C1863 C170 1.418 . S
C1882 C203 1.425 . S
C1918 C243 1.973 . S
C1899 C181 1.972 . S
C1935 C192 1.563 . S
C1954 C293 1.569 . S
C1971 C71 1.823 . S
C1990 C253 1.832 . S
C2007 C82 1.685 . S
C2026 C283 1.693 . S
C2062 C213 1.257 . S
C2043 C93 1.254 . S
C2079 C38 1.420 . S
C2098 C323 1.408 . S
C2115 C49 1.973 . S
C2134 C363 1.981 . S
C2151 C60 1.562 . S
C2170 C413 1.569 . S
C2187 C137 1.822 . S
C2206 C373 1.833 . S
C2242 C403 1.675 . S
C2223 C148 1.685 . S
C2259 C159 1.256 . S
C2278 C333 1.264 . S
C2295 C104 1.418 . S
C2314 C443 1.425 . S
C2331 C115 1.973 . S
C2350 C483 1.959 . S
C2386 C533 1.579 . S
C2367 C126 1.561 . S
C2403 C5 1.827 . S
C2422 C493 1.840 . S
C2439 C16 1.682 . S
C2458 C523 1.680 . S
C2475 C27 1.255 . S
C2494 C453 1.257 . S
