# Generated by pormake.
# Topology nom, (4,4)-cn, num edge types: 1
# Building blocks:
#     Node 0, Type 0, BuildingBlock: GIZVER_clean_linker_0, # of connection points: 4
#     Node 1, Type 0, BuildingBlock: GIZVER_clean_linker_0, # of connection points: 4
#     Node 2, Type 0, BuildingBlock: GIZVER_clean_linker_0, # of connection points: 4
#     Node 3, Type 0, BuildingBlock: GIZVER_clean_linker_0, # of connection points: 4
#     Node 4, Type 0, BuildingBlock: GIZVER_clean_linker_0, # of connection points: 4
#     Node 5, Type 0, BuildingBlock: GIZVER_clean_linker_0, # of connection points: 4
#     Node 6, Type 1, BuildingBlock: GALJAG_clean_sbu_0, # of connection points: 4
#     Node 7, Type 1, BuildingBlock: GALJAG_clean_sbu_0, # of connection points: 4
#     Node 8, Type 1, BuildingBlock: GALJAG_clean_sbu_0, # of connection points: 4
#     Node 9, Type 1, BuildingBlock: GALJAG_clean_sbu_0, # of connection points: 4
#     Node 10, Type 1, BuildingBlock: GALJAG_clean_sbu_0, # of connection points: 4
#     Node 11, Type 1, BuildingBlock: GALJAG_clean_sbu_0, # of connection points: 4
#     Edge 12, Type (0, 1), BuildingBlock: OJICUG_clean_linker_0, # of connection points: 2
#     Edge 13, Type (0, 1), BuildingBlock: OJICUG_clean_linker_0, # of connection points: 2
#     Edge 14, Type (0, 1), BuildingBlock: OJICUG_clean_linker_0, # of connection points: 2
#     Edge 15, Type (0, 1), BuildingBlock: OJICUG_clean_linker_0, # of connection points: 2
#     Edge 16, Type (0, 1), BuildingBlock: OJICUG_clean_linker_0, # of connection points: 2
#     Edge 17, Type (0, 1), BuildingBlock: OJICUG_clean_linker_0, # of connection points: 2
#     Edge 18, Type (0, 1), BuildingBlock: OJICUG_clean_linker_0, # of connection points: 2
#     Edge 19, Type (0, 1), BuildingBlock: OJICUG_clean_linker_0, # of connection points: 2
#     Edge 20, Type (0, 1), BuildingBlock: OJICUG_clean_linker_0, # of connection points: 2
#     Edge 21, Type (0, 1), BuildingBlock: OJICUG_clean_linker_0, # of connection points: 2
#     Edge 22, Type (0, 1), BuildingBlock: OJICUG_clean_linker_0, # of connection points: 2
#     Edge 23, Type (0, 1), BuildingBlock: OJICUG_clean_linker_0, # of connection points: 2
#     Edge 24, Type (0, 1), BuildingBlock: OJICUG_clean_linker_0, # of connection points: 2
#     Edge 25, Type (0, 1), BuildingBlock: OJICUG_clean_linker_0, # of connection points: 2
#     Edge 26, Type (0, 1), BuildingBlock: OJICUG_clean_linker_0, # of connection points: 2
#     Edge 27, Type (0, 1), BuildingBlock: OJICUG_clean_linker_0, # of connection points: 2
#     Edge 28, Type (0, 1), BuildingBlock: OJICUG_clean_linker_0, # of connection points: 2
#     Edge 29, Type (0, 1), BuildingBlock: OJICUG_clean_linker_0, # of connection points: 2
#     Edge 30, Type (0, 1), BuildingBlock: OJICUG_clean_linker_0, # of connection points: 2
#     Edge 31, Type (0, 1), BuildingBlock: OJICUG_clean_linker_0, # of connection points: 2
#     Edge 32, Type (0, 1), BuildingBlock: OJICUG_clean_linker_0, # of connection points: 2
#     Edge 33, Type (0, 1), BuildingBlock: OJICUG_clean_linker_0, # of connection points: 2
#     Edge 34, Type (0, 1), BuildingBlock: OJICUG_clean_linker_0, # of connection points: 2
#     Edge 35, Type (0, 1), BuildingBlock: OJICUG_clean_linker_0, # of connection points: 2
# Relax obj value: 0.013
# Max RMSD: 0.089
# Mean RMSD: 0.072
data_MOF--net-nom--node1-GALJAG_clean_sbu_0--node2-GIZVER_clean_linker_0--edge1-OJICUG_clean_linker_0
_symmetry_space_group_name_H-M    P1
_symmetry_Int_Tables_number       1
_symmetry_cell_setting            triclinic
loop_
_symmetry_equiv_pos_as_xyz
'x, y, z'
_cell_length_a     33.067106
_cell_length_b     33.21408
_cell_length_c     36.734553
_cell_angle_alpha  90.138288
_cell_angle_beta   89.584224
_cell_angle_gamma 120.03924
loop_
_atom_site_label
_atom_site_type_symbol
_atom_site_fract_x
_atom_site_fract_y
_atom_site_fract_z
_atom_type_partial_charge
H0 H 0.96155 0.59804 0.34521 0.0
H1 H 1.02283 0.595 0.24208 0.0
H2 H 0.88337 0.48797 0.26918 0.0
H3 H 0.0335 0.66436 0.32679 0.0
H4 H 0.0462 0.67095 0.27913 0.0
H5 H 0.05856 0.6125 0.36279 0.0
H6 H 0.19726 0.64431 0.33302 0.0
H7 H 0.1172 0.67622 0.25908 0.0
C8 C 0.95948 0.58085 0.31961 0.0
C9 C 0.91838 0.53942 0.31076 0.0
C10 C 0.99748 0.60087 0.29499 0.0
C11 C 0.9941 0.57904 0.2614 0.0
C12 C 0.95322 0.53774 0.2522 0.0
C13 C 0.91594 0.51824 0.27714 0.0
C14 C 0.03979 0.64763 0.30282 0.0
C15 C 0.08262 0.64364 0.30978 0.0
C16 C 0.0868 0.62516 0.34301 0.0
C17 C 0.12789 0.62459 0.35128 0.0
C18 C 0.16449 0.64212 0.32575 0.0
C19 C 0.1612 0.66072 0.29242 0.0
C20 C 0.11992 0.66124 0.28448 0.0
H21 H 0.3932 0.95064 0.51189 0.0
H22 H 0.45657 1.01026 0.40827 0.0
H23 H 0.42646 0.87249 0.43634 0.0
H24 H 0.39723 0.02139 0.49278 0.0
H25 H 0.40389 0.03375 0.44513 0.0
H26 H 0.4744 0.0467 0.52909 0.0
H27 H 0.5803 0.18549 0.50039 0.0
H28 H 0.46915 0.10509 0.4258 0.0
C29 C 0.40845 0.94841 0.48629 0.0
C30 C 0.40954 0.90768 0.47769 0.0
C31 C 0.42585 0.98577 0.46141 0.0
C32 C 0.44431 0.98205 0.42779 0.0
C33 C 0.44532 0.94144 0.41881 0.0
C34 C 0.42829 0.90489 0.44405 0.0
C35 C 0.4207 0.0277 0.469 0.0
C36 C 0.4673 0.07062 0.47625 0.0
C37 C 0.48985 0.07494 0.50953 0.0
C38 C 0.53115 0.11613 0.51815 0.0
C39 C 0.55004 0.1527 0.49288 0.0
C40 C 0.52825 0.14926 0.4595 0.0
C41 C 0.48678 0.1079 0.45122 0.0
H42 H 0.40042 0.4583 0.58874 0.0
H43 H 0.44848 0.47103 0.69894 0.0
H44 H 0.43514 0.58131 0.65012 0.0
H45 H 0.39761 0.39237 0.61902 0.0
H46 H 0.40883 0.39508 0.66678 0.0
H47 H 0.47455 0.44592 0.57836 0.0
H48 H 0.58107 0.41319 0.60464 0.0
H49 H 0.47248 0.38511 0.6824 0.0
C50 C 0.41396 0.47879 0.61329 0.0
C51 C 0.4163 0.5221 0.61599 0.0
C52 C 0.42766 0.46124 0.64272 0.0
C53 C 0.44145 0.48634 0.67557 0.0
C54 C 0.44292 0.52926 0.67886 0.0
C55 C 0.43322 0.54786 0.6481 0.0
C56 C 0.42296 0.41363 0.64049 0.0
C57 C 0.46922 0.41676 0.63186 0.0
C58 C 0.49056 0.43364 0.59771 0.0
C59 C 0.53154 0.43333 0.58804 0.0
C60 C 0.5511 0.41609 0.61292 0.0
C61 C 0.53031 0.39865 0.64698 0.0
C62 C 0.48929 0.39921 0.6564 0.0
H63 H 0.96371 0.37921 0.75649 0.0
H64 H 1.02407 0.44206 0.85948 0.0
H65 H 0.88593 0.41303 0.83246 0.0
H66 H 0.03471 0.38326 0.77453 0.0
H67 H 0.0454 0.38701 0.8223 0.0
H68 H 0.06486 0.46111 0.73942 0.0
H69 H 0.20265 0.56448 0.77349 0.0
H70 H 0.1157 0.45107 0.84471 0.0
C71 C 0.96162 0.39446 0.78204 0.0
C72 C 0.92085 0.39578 0.7909 0.0
C73 C 0.99917 0.41148 0.80663 0.0
C74 C 0.99572 0.43006 0.84018 0.0
C75 C 0.95519 0.43154 0.84938 0.0
C76 C 0.91833 0.41464 0.82448 0.0
C77 C 0.04078 0.40549 0.7989 0.0
C78 C 0.0849 0.45163 0.79301 0.0
C79 C 0.09196 0.47542 0.75987 0.0
C80 C 0.13436 0.51642 0.75256 0.0
C81 C 0.16902 0.5341 0.77938 0.0
C82 C 0.16259 0.511 0.81265 0.0
C83 C 0.12045 0.46962 0.81937 0.0
H84 H 0.69175 0.10836 0.01045 0.0
H85 H 0.62744 0.04888 0.90767 0.0
H86 H 0.65877 0.187 0.93591 0.0
H87 H 0.68701 0.03735 -0.00892 0.0
H88 H 0.68028 0.02509 0.94343 0.0
H89 H 0.61012 1.0125 0.02837 0.0
H90 H 0.50263 0.87467 -0.00017 0.0
H91 H 0.61439 0.95432 0.92439 0.0
C92 C 0.6765 0.11076 -0.01488 0.0
C93 C 0.67569 0.15166 -0.02321 0.0
C94 C 0.6588 0.0734 0.96031 0.0
C95 C 0.64009 0.07717 0.9271 0.0
C96 C 0.63921 0.11786 0.91841 0.0
C97 C 0.65677 0.15453 0.9435 0.0
C98 C 0.66361 0.03127 0.96757 0.0
C99 C 0.61681 0.98862 -0.02481 0.0
C100 C 0.59434 0.98443 0.00877 0.0
C101 C 0.55262 0.94359 0.01758 0.0
C102 C 0.53326 0.90726 -0.00778 0.0
C103 C 0.55497 0.9106 0.95854 0.0
C104 C 0.59686 0.9516 0.95007 0.0
H105 H 0.68723 0.59654 0.09135 0.0
H106 H 0.62196 0.59171 0.19442 0.0
H107 H 0.65582 0.48622 0.16708 0.0
H108 H 0.68132 0.66232 0.11018 0.0
H109 H 0.67449 0.66811 0.15781 0.0
H110 H 0.60444 0.60979 0.07379 0.0
H111 H 0.49764 0.642 0.10217 0.0
H112 H 0.60867 0.67343 0.17711 0.0
C113 C 0.67202 0.57903 0.11689 0.0
C114 C 0.67204 0.53783 0.12563 0.0
C115 C 0.65361 0.59843 0.14156 0.0
C116 C 0.63506 0.5762 0.17507 0.0
C117 C 0.63501 0.53515 0.18418 0.0
C118 C 0.65322 0.51627 0.1592 0.0
C119 C 0.65793 0.64509 0.13395 0.0
C120 C 0.61101 0.6408 0.12668 0.0
C121 C 0.58866 0.62239 0.09335 0.0
C122 C 0.54722 0.62203 0.08461 0.0
C123 C 0.52797 0.63961 0.10983 0.0
C124 C 0.54959 0.65819 0.14326 0.0
C125 C 0.59117 0.65846 0.15165 0.0
In126 In 0.64187 0.42362 0.38542 0.0
O127 O 0.70435 0.42042 0.36269 0.0
O128 O 0.71817 0.48242 0.39008 0.0
C129 C 0.60934 0.44357 0.44649 0.0
C130 C 0.62178 0.45601 0.32484 0.0
C131 C 0.60535 0.33145 0.39726 0.0
O132 O 0.65096 0.45226 0.44326 0.0
O133 O 0.58447 0.4255 0.4188 0.0
O134 O 0.58303 0.34753 0.38086 0.0
O135 O 0.64573 0.36169 0.40736 0.0
C136 C 0.73455 0.46059 0.3731 0.0
O137 O 0.61343 0.41468 0.32763 0.0
O138 O 0.63945 0.48058 0.35275 0.0
In139 In 0.25329 0.63168 0.54894 0.0
O140 O 0.26873 0.5719 0.542 0.0
O141 O 0.32208 0.63594 0.56348 0.0
C142 C 0.19868 0.61236 0.48965 0.0
C143 C 0.20493 0.59845 0.61195 0.0
C144 C 0.30726 0.72449 0.5386 0.0
O145 O 0.23189 0.60403 0.4911 0.0
O146 O 0.19272 0.62987 0.51819 0.0
O147 O 0.26833 0.70688 0.55492 0.0
O148 O 0.31872 0.69544 0.52788 0.0
C149 C 0.30981 0.59484 0.55412 0.0
O150 O 0.23901 0.6393 0.60898 0.0
O151 O 0.19504 0.57482 0.58318 0.0
In152 In 0.64488 0.23784 0.71825 0.0
O153 O 0.70741 0.30302 0.74063 0.0
O154 O 0.72114 0.25522 0.7123 0.0
C155 C 0.61151 0.18515 0.65781 0.0
C156 C 0.62522 0.18489 0.77864 0.0
C157 C 0.60846 0.29377 0.70732 0.0
O158 O 0.65314 0.21805 0.66017 0.0
O159 O 0.58706 0.17859 0.68599 0.0
O160 O 0.64843 0.30335 0.69602 0.0
O161 O 0.58652 0.25579 0.72447 0.0
C162 C 0.73756 0.2931 0.72951 0.0
O163 O 0.6165 0.21769 0.7763 0.0
O164 O 0.64306 0.17846 0.75042 0.0
In165 In 0.43569 0.63562 0.88586 0.0
O166 O 0.36713 0.63511 0.87991 0.0
O167 O 0.36331 0.56955 0.8843 0.0
C168 C 0.46826 0.61307 0.94503 0.0
C169 C 0.45273 0.61149 0.81981 0.0
C170 C 0.47447 0.72828 0.89683 0.0
O171 O 0.42611 0.60268 0.9422 0.0
O172 O 0.49349 0.634 0.91787 0.0
O173 O 0.49534 0.71132 0.87921 0.0
O174 O 0.43458 0.69871 0.90862 0.0
C175 C 0.34156 0.59145 0.87995 0.0
O176 O 0.44068 0.64164 0.82433 0.0
O177 O 0.45804 0.59446 0.84876 0.0
In178 In 0.83546 0.42595 0.05097 0.0
O179 O 0.85522 0.41728 0.10872 0.0
O180 O 0.8945 0.48345 0.08364 0.0
C181 C 0.77983 0.33379 0.03915 0.0
C182 C 0.7789 0.46172 0.06313 0.0
C183 C 0.8887 0.4457 -0.00976 0.0
O184 O 0.81786 0.34997 0.0562 0.0
O185 O 0.77001 0.36394 0.02844 0.0
O186 O 0.85592 0.45461 -0.00693 0.0
O187 O 0.89504 0.42773 0.01818 0.0
C188 C 0.88789 0.45885 0.11152 0.0
O189 O 0.81715 0.48397 0.04602 0.0
O190 O 0.76934 0.42178 0.07371 0.0
In191 In 0.43709 0.82069 0.21777 0.0
O192 O 0.43314 0.75527 0.19465 0.0
O193 O 0.49498 0.80201 0.22296 0.0
C194 C 0.45684 0.8734 0.27831 0.0
C195 C 0.47121 0.8741 0.15756 0.0
C196 C 0.34437 0.76521 0.22963 0.0
O197 O 0.4657 0.84072 0.27552 0.0
O198 O 0.43868 0.87975 0.25051 0.0
O199 O 0.37456 0.75541 0.24045 0.0
O200 O 0.36079 0.80319 0.21251 0.0
C201 C 0.47292 0.76433 0.20556 0.0
O202 O 0.42935 0.84163 0.16014 0.0
O203 O 0.49548 0.87988 0.18542 0.0
C204 C 0.21937 0.72877 0.2548 0.0
C205 C 0.20342 0.68377 0.2686 0.0
H206 H 0.27686 0.79004 0.23128 0.0
C207 C 0.23199 0.66382 0.26443 0.0
H208 H 0.19836 0.74525 0.25777 0.0
C209 C 0.27707 0.68972 0.2501 0.0
C210 C 0.29432 0.73586 0.2389 0.0
H211 H 0.22038 0.6289 0.27414 0.0
H212 H 0.29908 0.67416 0.24909 0.0
C213 C 0.26443 0.75455 0.23988 0.0
C214 C 0.51758 0.20682 0.42229 0.0
C215 C 0.5471 0.19134 0.43595 0.0
H216 H 0.51301 0.26365 0.39902 0.0
C217 C 0.59571 0.22016 0.43186 0.0
H218 H 0.48002 0.18561 0.42523 0.0
C219 C 0.61448 0.26496 0.41764 0.0
C220 C 0.5851 0.28171 0.40654 0.0
H221 H 0.61938 0.20893 0.4415 0.0
H222 H 0.65211 0.28712 0.41663 0.0
C223 C 0.53647 0.25162 0.40753 0.0
C224 C 0.34689 0.50796 0.57935 0.0
C225 C 0.39371 0.53783 0.58912 0.0
H226 H 0.28329 0.50278 0.56023 0.0
C227 C 0.41457 0.58535 0.58043 0.0
H228 H 0.32972 0.47125 0.58592 0.0
C229 C 0.38775 0.6035 0.56667 0.0
C230 C 0.33979 0.57434 0.56056 0.0
H231 H 0.45075 0.60911 0.5872 0.0
H232 H 0.40398 0.64076 0.56283 0.0
C233 C 0.32015 0.52609 0.56499 0.0
C234 C 0.84992 0.39337 0.76462 0.0
C235 C 0.87834 0.37317 0.76777 0.0
H236 H 0.78303 0.38368 0.75027 0.0
C237 C 0.86223 0.32843 0.75336 0.0
H238 H 0.86165 0.42812 0.77478 0.0
C239 C 0.81724 0.30317 0.73873 0.0
C240 C 0.78754 0.32207 0.73864 0.0
H241 H 0.88306 0.31173 0.75555 0.0
H242 H 0.80474 0.26787 0.72959 0.0
C243 C 0.80489 0.36795 0.75056 0.0
C244 C 0.48676 0.84081 0.93114 0.0
C245 C 0.53545 0.86872 0.93481 0.0
H246 H 0.42943 0.77438 0.91646 0.0
C247 C 0.56425 0.85238 0.9207 0.0
H248 H 0.46365 0.85275 0.94112 0.0
C249 C 0.54451 0.80748 0.90601 0.0
C250 C 0.49575 0.77822 0.9056 0.0
H251 H 0.60186 0.87291 0.9233 0.0
H252 H 0.56735 0.79467 0.89722 0.0
C253 C 0.46714 0.79592 0.91704 0.0
C254 C 0.74076 0.54857 0.08797 0.0
C255 C 0.69581 0.51905 0.10232 0.0
H256 H 0.80248 0.55345 0.06398 0.0
C257 C 0.67649 0.47066 0.09888 0.0
H258 H 0.75679 0.58597 0.09038 0.0
C259 C 0.70291 0.45217 0.08454 0.0
C260 C 0.74898 0.4816 0.07265 0.0
H261 H 0.64162 0.44697 0.10901 0.0
H262 H 0.68779 0.41474 0.08399 0.0
C263 C 0.76705 0.52996 0.07308 0.0
C264 C 0.40794 0.83794 0.50502 0.0
C265 C 0.38692 0.86548 0.50117 0.0
H266 H 0.39903 0.77169 0.51971 0.0
C267 C 0.34136 0.84851 0.51484 0.0
H268 H 0.44327 0.85034 0.49533 0.0
C269 C 0.31611 0.80341 0.52928 0.0
C270 C 0.33592 0.77456 0.52996 0.0
H271 H 0.3241 0.86874 0.51208 0.0
H272 H 0.28018 0.79017 0.53774 0.0
C273 C 0.3826 0.79287 0.51894 0.0
C274 C 0.59837 0.39518 0.67282 0.0
C275 C 0.54968 0.37568 0.67012 0.0
H276 H 0.65499 0.38436 0.68648 0.0
C277 C 0.52042 0.33108 0.68472 0.0
H278 H 0.62185 0.42978 0.66243 0.0
C279 C 0.53955 0.30519 0.699 0.0
C280 C 0.58816 0.32336 0.69858 0.0
H281 H 0.4828 0.31496 0.68286 0.0
H282 H 0.51624 0.26997 0.70826 0.0
C283 C 0.61737 0.36917 0.68657 0.0
C284 C 0.2212 0.50053 0.84809 0.0
C285 C 0.20253 0.52869 0.83804 0.0
H286 H 0.28034 0.49843 0.8695 0.0
C287 C 0.22693 0.5761 0.84712 0.0
H288 H 0.20321 0.46394 0.84112 0.0
C289 C 0.27084 0.59579 0.86328 0.0
C290 C 0.29143 0.56852 0.87049 0.0
H291 H 0.21316 0.59848 0.83977 0.0
H292 H 0.28978 0.63294 0.86812 0.0
C293 C 0.26542 0.52033 0.86414 0.0
C294 C 0.7437 0.20963 0.01414 0.0
C295 C 0.69869 0.19382 0.00021 0.0
H296 H 0.80484 0.26665 0.03775 0.0
C297 C 0.67861 0.22225 0.0041 0.0
H298 H 0.7603 0.18874 0.01139 0.0
C299 C 0.70439 0.26702 0.01839 0.0
C300 C 0.75053 0.28408 0.0298 0.0
H301 H 0.64366 0.21075 -0.00569 0.0
H302 H 0.68873 0.28891 0.01924 0.0
C303 C 0.76934 0.25436 0.02901 0.0
C304 C 0.5602 0.72634 0.18082 0.0
C305 C 0.53062 0.68165 0.16667 0.0
H306 H 0.565 0.78772 0.20457 0.0
C307 C 0.48199 0.66241 0.17028 0.0
H308 H 0.59778 0.74232 0.17828 0.0
C309 C 0.46336 0.6887 0.1845 0.0
C310 C 0.49288 0.73452 0.19616 0.0
H311 H 0.45823 0.62773 0.16032 0.0
H312 H 0.42576 0.67368 0.18515 0.0
C313 C 0.54145 0.75248 0.19564 0.0
C314 C 0.84681 0.47146 0.33735 0.0
C315 C 0.87562 0.51995 0.33403 0.0
H316 H 0.77958 0.4148 0.35211 0.0
C317 C 0.85971 0.54889 0.34841 0.0
H318 H 0.85836 0.44821 0.32718 0.0
C319 C 0.81457 0.5296 0.36323 0.0
C320 C 0.78455 0.48115 0.36356 0.0
H321 H 0.88087 0.58634 0.34609 0.0
H322 H 0.80227 0.55265 0.37239 0.0
C323 C 0.80168 0.4523 0.35163 0.0
C324 C 0.1262 0.62969 0.41926 0.0
C325 C 0.13613 0.61166 0.38799 0.0
H326 H 0.13817 0.64377 0.47627 0.0
C327 C 0.16085 0.58763 0.39172 0.0
H328 H 0.10754 0.64865 0.41727 0.0
C329 C 0.17907 0.58554 0.42536 0.0
C330 C 0.17241 0.60694 0.45598 0.0
H331 H 0.16836 0.57271 0.36817 0.0
H332 H 0.2002 0.56908 0.42698 0.0
C333 C 0.1441 0.62722 0.45302 0.0
C334 C 0.60074 0.14975 0.55917 0.0
C335 C 0.55192 0.12439 0.55501 0.0
H336 H 0.65797 0.18903 0.59511 0.0
C337 C 0.52331 0.11351 0.5861 0.0
H338 H 0.62369 0.15801 0.53576 0.0
C339 C 0.543 0.13094 0.62013 0.0
C340 C 0.59158 0.15973 0.6236 0.0
H341 H 0.48562 0.09436 0.58381 0.0
H342 H 0.51996 0.12416 0.64327 0.0
C343 C 0.62037 0.16749 0.59311 0.0
C344 C 0.47666 0.55016 0.7425 0.0
C345 C 0.44835 0.55219 0.71493 0.0
H346 H 0.50023 0.56732 0.79778 0.0
C347 C 0.42295 0.57499 0.72247 0.0
H348 H 0.49683 0.5331 0.73778 0.0
C349 C 0.42643 0.59592 0.75597 0.0
C350 C 0.45392 0.59321 0.78354 0.0
H351 H 0.39901 0.57571 0.70291 0.0
H352 H 0.40585 0.61257 0.76077 0.0
C353 C 0.47897 0.57005 0.77672 0.0
C354 C 0.92338 0.469 0.89118 0.0
C355 C 0.94777 0.4447 0.88646 0.0
H356 H 0.88542 0.48835 0.92787 0.0
C357 C 0.95848 0.42695 0.91729 0.0
H358 H 0.91531 0.48378 0.868 0.0
C359 C 0.94178 0.43003 0.95163 0.0
C360 C 0.91383 0.45064 0.9557 0.0
H361 H 0.97689 0.40777 0.9146 0.0
H362 H 0.94834 0.4137 0.97457 0.0
C363 C 0.90632 0.47169 0.92544 0.0
C364 C 0.48291 0.9107 0.0592 0.0
C365 C 0.53176 0.93537 0.05463 0.0
H366 H 0.42533 0.8718 0.09551 0.0
C367 C 0.56018 0.94551 0.08543 0.0
H368 H 0.46011 0.90304 0.03602 0.0
C369 C 0.54022 0.92797 0.11954 0.0
C370 C 0.49155 0.8998 0.12338 0.0
H371 H 0.59789 0.96413 0.08281 0.0
H372 H 0.56308 0.93413 0.14242 0.0
C373 C 0.46299 0.89284 0.09322 0.0
C374 C 0.59859 0.46608 0.22588 0.0
C375 C 0.62196 0.51464 0.22124 0.0
H376 H 0.58019 0.40932 0.26249 0.0
C377 C 0.63901 0.5433 0.25208 0.0
H378 H 0.58439 0.44309 0.20268 0.0
C379 C 0.63619 0.5239 0.28638 0.0
C380 C 0.61652 0.47558 0.29037 0.0
H381 H 0.65748 0.58081 0.24942 0.0
H382 H 0.65199 0.54699 0.30932 0.0
C383 C 0.59612 0.44673 0.2601 0.0
C384 C 0.43979 0.94411 0.35098 0.0
C385 C 0.45798 0.93363 0.38165 0.0
H386 H 0.42547 0.93337 0.29397 0.0
C387 C 0.48197 0.90896 0.37682 0.0
H388 H 0.42082 0.96272 0.35378 0.0
C389 C 0.4839 0.89142 0.34267 0.0
C390 C 0.46238 0.89874 0.31264 0.0
H391 H 0.49706 0.90104 0.39987 0.0
H392 H 0.50035 0.87036 0.34017 0.0
C393 C 0.44211 0.92693 0.31674 0.0
C394 C 0.5223 0.42723 0.52026 0.0
C395 C 0.55151 0.44531 0.55068 0.0
H396 H 0.51791 0.41278 0.46315 0.0
C397 C 0.60023 0.46883 0.5454 0.0
H398 H 0.48466 0.40865 0.52343 0.0
C399 C 0.61925 0.47054 0.511 0.0
C400 C 0.58991 0.44922 0.48116 0.0
H401 H 0.62363 0.4838 0.56827 0.0
H402 H 0.65682 0.4867 0.50814 0.0
C403 C 0.54137 0.42929 0.48576 0.0
C404 C 0.1333 0.5103 0.68441 0.0
C405 C 0.14537 0.53819 0.71578 0.0
H406 H 0.14252 0.50764 0.62691 0.0
C407 C 0.173 0.58678 0.71188 0.0
H408 H 0.11256 0.47278 0.68636 0.0
C409 C 0.19095 0.60668 0.67785 0.0
C410 C 0.1811 0.57845 0.64694 0.0
H411 H 0.18222 0.60936 0.7354 0.0
H412 H 0.21372 0.644 0.67595 0.0
C413 C 0.15083 0.53027 0.65032 0.0
C414 C 0.6434 0.1146 0.85044 0.0
C415 C 0.62596 0.12551 0.88163 0.0
H416 H 0.65648 0.12472 0.79312 0.0
C417 C 0.60199 0.15025 0.87756 0.0
H418 H 0.66231 0.09591 0.85265 0.0
C419 C 0.59936 0.16744 0.84355 0.0
C420 C 0.62015 0.15972 0.81293 0.0
H421 H 0.58747 0.15848 0.90104 0.0
H422 H 0.58298 0.18859 0.84159 0.0
C423 C 0.64037 0.13145 0.81635 0.0
C424 C 0.4781 0.58597 0.0431 0.0
C425 C 0.52687 0.60972 0.04761 0.0
H426 H 0.42116 0.56833 0.00691 0.0
C427 C 0.5558 0.62818 0.01678 0.0
H428 H 0.45494 0.57079 0.06631 0.0
C429 C 0.53643 0.62648 -0.01725 0.0
C430 C 0.48784 0.60647 -0.02102 0.0
H431 H 0.59347 0.64695 0.01936 0.0
H432 H 0.55971 0.64341 0.95989 0.0
C433 C 0.45876 0.58453 0.00913 0.0
C434 C 0.95739 0.54627 0.18432 0.0
C435 C 0.94605 0.51751 0.21512 0.0
H436 H 0.94799 0.55006 0.12711 0.0
C437 C 0.92129 0.46895 0.21042 0.0
H438 H 0.97611 0.58378 0.18704 0.0
C439 C 0.90454 0.44965 0.1762 0.0
C440 C 0.91268 0.47855 0.14598 0.0
H441 H 0.91272 0.44589 0.2336 0.0
H442 H 0.88338 0.41221 0.17378 0.0
C443 C 0.94094 0.52693 0.15002 0.0
loop_
_geom_bond_atom_site_label_1
_geom_bond_atom_site_label_2
_geom_bond_distance
_geom_bond_site_symmetry_2
_ccdc_geom_bond_type
H0 C8 0.930 . S
H1 C11 0.930 . S
H2 C13 0.930 . S
H3 C14 0.970 . S
H4 C14 0.970 . S
H5 C16 0.930 . S
H6 C18 0.930 . S
H7 C20 0.930 . S
C8 H0 0.930 . S
C8 C9 1.382 . S
C8 C10 1.426 . S
C9 C8 1.382 . S
C9 C13 1.389 . S
C10 C8 1.426 . S
C10 C11 1.375 . S
C10 C14 1.532 1_655 S
C11 H1 0.930 . S
C11 C10 1.375 . S
C11 C12 1.416 . S
C12 C11 1.416 . S
C12 C13 1.371 . S
C13 H2 0.930 . S
C13 C9 1.389 . S
C13 C12 1.371 . S
C14 H3 0.970 . S
C14 H4 0.970 . S
C14 C10 1.532 1_455 S
C14 C15 1.499 . S
C15 C14 1.499 . S
C15 C16 1.370 . S
C15 C20 1.415 . S
C16 H5 0.930 . S
C16 C15 1.370 . S
C16 C17 1.407 . S
C17 C16 1.407 . S
C17 C18 1.365 . S
C18 H6 0.930 . S
C18 C17 1.365 . S
C18 C19 1.393 . S
C19 C18 1.393 . S
C19 C20 1.387 . S
C20 H7 0.930 . S
C20 C15 1.415 . S
C20 C19 1.387 . S
H21 C29 0.930 . S
H22 C32 0.930 . S
H23 C34 0.930 . S
H24 C35 0.970 . S
H25 C35 0.970 . S
H26 C37 0.930 . S
H27 C39 0.930 . S
H28 C41 0.930 . S
C29 H21 0.930 . S
C29 C30 1.382 . S
C29 C31 1.426 . S
C30 C29 1.382 . S
C30 C34 1.389 . S
C31 C29 1.426 . S
C31 C32 1.375 . S
C31 C35 1.532 1_565 S
C32 H22 0.930 . S
C32 C31 1.375 . S
C32 C33 1.416 . S
C33 C32 1.416 . S
C33 C34 1.371 . S
C34 H23 0.930 . S
C34 C30 1.389 . S
C34 C33 1.371 . S
C35 H24 0.970 . S
C35 H25 0.970 . S
C35 C31 1.532 1_545 S
C35 C36 1.499 . S
C36 C35 1.499 . S
C36 C37 1.370 . S
C36 C41 1.415 . S
C37 H26 0.930 . S
C37 C36 1.370 . S
C37 C38 1.407 . S
C38 C37 1.407 . S
C38 C39 1.365 . S
C39 H27 0.930 . S
C39 C38 1.365 . S
C39 C40 1.393 . S
C40 C39 1.393 . S
C40 C41 1.387 . S
C41 H28 0.930 . S
C41 C36 1.415 . S
C41 C40 1.387 . S
H42 C50 0.930 . S
H43 C53 0.930 . S
H44 C55 0.930 . S
H45 C56 0.970 . S
H46 C56 0.970 . S
H47 C58 0.930 . S
H48 C60 0.930 . S
H49 C62 0.930 . S
C50 H42 0.930 . S
C50 C51 1.382 . S
C50 C52 1.426 . S
C51 C50 1.382 . S
C51 C55 1.389 . S
C52 C50 1.426 . S
C52 C53 1.375 . S
C52 C56 1.532 . S
C53 H43 0.930 . S
C53 C52 1.375 . S
C53 C54 1.416 . S
C54 C53 1.416 . S
C54 C55 1.371 . S
C55 H44 0.930 . S
C55 C51 1.389 . S
C55 C54 1.371 . S
C56 H45 0.970 . S
C56 H46 0.970 . S
C56 C52 1.532 . S
C56 C57 1.499 . S
C57 C56 1.499 . S
C57 C58 1.370 . S
C57 C62 1.415 . S
C58 H47 0.930 . S
C58 C57 1.370 . S
C58 C59 1.407 . S
C59 C58 1.407 . S
C59 C60 1.365 . S
C60 H48 0.930 . S
C60 C59 1.365 . S
C60 C61 1.393 . S
C61 C60 1.393 . S
C61 C62 1.387 . S
C62 H49 0.930 . S
C62 C57 1.415 . S
C62 C61 1.387 . S
H63 C71 0.930 . S
H64 C74 0.930 . S
H65 C76 0.930 . S
H66 C77 0.970 . S
H67 C77 0.970 . S
H68 C79 0.930 . S
H69 C81 0.930 . S
H70 C83 0.930 . S
C71 H63 0.930 . S
C71 C72 1.382 . S
C71 C73 1.426 . S
C72 C71 1.382 . S
C72 C76 1.389 . S
C73 C71 1.426 . S
C73 C74 1.375 . S
C73 C77 1.532 1_655 S
C74 H64 0.930 . S
C74 C73 1.375 . S
C74 C75 1.416 . S
C75 C74 1.416 . S
C75 C76 1.371 . S
C76 H65 0.930 . S
C76 C72 1.389 . S
C76 C75 1.371 . S
C77 H66 0.970 . S
C77 H67 0.970 . S
C77 C73 1.532 1_455 S
C77 C78 1.499 . S
C78 C77 1.499 . S
C78 C79 1.370 . S
C78 C83 1.415 . S
C79 H68 0.930 . S
C79 C78 1.370 . S
C79 C80 1.407 . S
C80 C79 1.407 . S
C80 C81 1.365 . S
C81 H69 0.930 . S
C81 C80 1.365 . S
C81 C82 1.393 . S
C82 C81 1.393 . S
C82 C83 1.387 . S
C83 H70 0.930 . S
C83 C78 1.415 . S
C83 C82 1.387 . S
H84 C92 0.930 . S
H85 C95 0.930 . S
H86 C97 0.930 . S
H87 C98 0.970 1_554 S
H88 C98 0.970 . S
H89 C100 0.930 . S
H90 C102 0.930 . S
H91 C104 0.930 . S
C92 H84 0.930 . S
C92 C93 1.383 1_554 S
C92 C94 1.426 1_554 S
C93 C92 1.383 1_556 S
C93 C97 1.386 . S
C94 C92 1.426 1_556 S
C94 C95 1.375 . S
C94 C98 1.532 . S
C95 H85 0.930 . S
C95 C94 1.375 . S
C95 C96 1.416 . S
C96 C95 1.416 . S
C96 C97 1.371 . S
C97 H86 0.930 . S
C97 C93 1.386 . S
C97 C96 1.371 . S
C98 H87 0.970 1_556 S
C98 H88 0.970 . S
C98 C94 1.532 . S
C98 C99 1.499 1_546 S
C99 C98 1.499 1_564 S
C99 C100 1.370 . S
C99 C104 1.415 1_554 S
C100 H89 0.930 . S
C100 C99 1.370 . S
C100 C101 1.407 . S
C101 C100 1.407 . S
C101 C102 1.365 . S
C102 H90 0.930 . S
C102 C101 1.365 . S
C102 C103 1.393 1_554 S
C103 C102 1.393 1_556 S
C103 C104 1.387 . S
C104 H91 0.930 . S
C104 C99 1.415 1_556 S
C104 C103 1.387 . S
H105 C113 0.930 . S
H106 C116 0.930 . S
H107 C118 0.930 . S
H108 C119 0.970 . S
H109 C119 0.970 . S
H110 C121 0.930 . S
H111 C123 0.930 . S
H112 C125 0.930 . S
C113 H105 0.930 . S
C113 C114 1.382 . S
C113 C115 1.426 . S
C114 C113 1.382 . S
C114 C118 1.389 . S
C115 C113 1.426 . S
C115 C116 1.375 . S
C115 C119 1.532 . S
C116 H106 0.930 . S
C116 C115 1.375 . S
C116 C117 1.416 . S
C117 C116 1.416 . S
C117 C118 1.371 . S
C118 H107 0.930 . S
C118 C114 1.389 . S
C118 C117 1.371 . S
C119 H108 0.970 . S
C119 H109 0.970 . S
C119 C115 1.532 . S
C119 C120 1.499 . S
C120 C119 1.499 . S
C120 C121 1.370 . S
C120 C125 1.415 . S
C121 H110 0.930 . S
C121 C120 1.370 . S
C121 C122 1.407 . S
C122 C121 1.407 . S
C122 C123 1.365 . S
C123 H111 0.930 . S
C123 C122 1.365 . S
C123 C124 1.393 . S
C124 C123 1.393 . S
C124 C125 1.387 . S
C125 H112 0.930 . S
C125 C120 1.415 . S
C125 C124 1.387 . S
In126 O127 2.294 . S
In126 O128 2.326 . S
In126 O132 2.266 . S
In126 O133 2.326 . S
In126 O134 2.266 . S
In126 O135 2.326 . S
In126 O137 2.294 . S
In126 O138 2.326 . S
O127 In126 2.294 . S
O127 C136 1.240 . S
O128 In126 2.326 . S
O128 C136 1.252 . S
C129 O132 1.252 . S
C129 O133 1.260 . S
C130 O137 1.240 . S
C130 O138 1.252 . S
C131 O134 1.252 . S
C131 O135 1.260 . S
O132 In126 2.266 . S
O132 C129 1.252 . S
O133 In126 2.326 . S
O133 C129 1.260 . S
O134 In126 2.266 . S
O134 C131 1.252 . S
O135 In126 2.326 . S
O135 C131 1.260 . S
C136 O127 1.240 . S
C136 O128 1.252 . S
O137 In126 2.294 . S
O137 C130 1.240 . S
O138 In126 2.326 . S
O138 C130 1.252 . S
In139 O140 2.294 . S
In139 O141 2.326 . S
In139 O145 2.266 . S
In139 O146 2.326 . S
In139 O147 2.266 . S
In139 O148 2.326 . S
In139 O150 2.294 . S
In139 O151 2.326 . S
O140 In139 2.294 . S
O140 C149 1.240 . S
O141 In139 2.326 . S
O141 C149 1.252 . S
C142 O145 1.252 . S
C142 O146 1.260 . S
C143 O150 1.240 . S
C143 O151 1.252 . S
C144 O147 1.252 . S
C144 O148 1.260 . S
O145 In139 2.266 . S
O145 C142 1.252 . S
O146 In139 2.326 . S
O146 C142 1.260 . S
O147 In139 2.266 . S
O147 C144 1.252 . S
O148 In139 2.326 . S
O148 C144 1.260 . S
C149 O140 1.240 . S
C149 O141 1.252 . S
O150 In139 2.294 . S
O150 C143 1.240 . S
O151 In139 2.326 . S
O151 C143 1.252 . S
In152 O153 2.294 . S
In152 O154 2.326 . S
In152 O158 2.266 . S
In152 O159 2.326 . S
In152 O160 2.266 . S
In152 O161 2.326 . S
In152 O163 2.294 . S
In152 O164 2.326 . S
O153 In152 2.294 . S
O153 C162 1.240 . S
O154 In152 2.326 . S
O154 C162 1.252 . S
C155 O158 1.252 . S
C155 O159 1.260 . S
C156 O163 1.240 . S
C156 O164 1.252 . S
C157 O160 1.252 . S
C157 O161 1.260 . S
O158 In152 2.266 . S
O158 C155 1.252 . S
O159 In152 2.326 . S
O159 C155 1.260 . S
O160 In152 2.266 . S
O160 C157 1.252 . S
O161 In152 2.326 . S
O161 C157 1.260 . S
C162 O153 1.240 . S
C162 O154 1.252 . S
O163 In152 2.294 . S
O163 C156 1.240 . S
O164 In152 2.326 . S
O164 C156 1.252 . S
In165 O166 2.294 . S
In165 O167 2.326 . S
In165 O171 2.266 . S
In165 O172 2.326 . S
In165 O173 2.266 . S
In165 O174 2.326 . S
In165 O176 2.294 . S
In165 O177 2.326 . S
O166 In165 2.294 . S
O166 C175 1.240 . S
O167 In165 2.326 . S
O167 C175 1.252 . S
C168 O171 1.252 . S
C168 O172 1.260 . S
C169 O176 1.240 . S
C169 O177 1.252 . S
C170 O173 1.252 . S
C170 O174 1.260 . S
O171 In165 2.266 . S
O171 C168 1.252 . S
O172 In165 2.326 . S
O172 C168 1.260 . S
O173 In165 2.266 . S
O173 C170 1.252 . S
O174 In165 2.326 . S
O174 C170 1.260 . S
C175 O166 1.240 . S
C175 O167 1.252 . S
O176 In165 2.294 . S
O176 C169 1.240 . S
O177 In165 2.326 . S
O177 C169 1.252 . S
In178 O179 2.294 . S
In178 O180 2.326 . S
In178 O184 2.266 . S
In178 O185 2.326 . S
In178 O186 2.266 . S
In178 O187 2.326 . S
In178 O189 2.294 . S
In178 O190 2.326 . S
O179 In178 2.294 . S
O179 C188 1.240 . S
O180 In178 2.326 . S
O180 C188 1.252 . S
C181 O184 1.252 . S
C181 O185 1.260 . S
C182 O189 1.240 . S
C182 O190 1.252 . S
C183 O186 1.252 . S
C183 O187 1.260 . S
O184 In178 2.266 . S
O184 C181 1.252 . S
O185 In178 2.326 . S
O185 C181 1.260 . S
O186 In178 2.266 . S
O186 C183 1.252 . S
O187 In178 2.326 . S
O187 C183 1.260 . S
C188 O179 1.240 . S
C188 O180 1.252 . S
O189 In178 2.294 . S
O189 C182 1.240 . S
O190 In178 2.326 . S
O190 C182 1.252 . S
In191 O192 2.294 . S
In191 O193 2.326 . S
In191 O197 2.266 . S
In191 O198 2.326 . S
In191 O199 2.266 . S
In191 O200 2.326 . S
In191 O202 2.294 . S
In191 O203 2.326 . S
O192 In191 2.294 . S
O192 C201 1.240 . S
O193 In191 2.326 . S
O193 C201 1.252 . S
C194 O197 1.252 . S
C194 O198 1.260 . S
C195 O202 1.240 . S
C195 O203 1.252 . S
C196 O199 1.252 . S
C196 O200 1.260 . S
O197 In191 2.266 . S
O197 C194 1.252 . S
O198 In191 2.326 . S
O198 C194 1.260 . S
O199 In191 2.266 . S
O199 C196 1.252 . S
O200 In191 2.326 . S
O200 C196 1.260 . S
C201 O192 1.240 . S
C201 O193 1.252 . S
O202 In191 2.294 . S
O202 C195 1.240 . S
O203 In191 2.326 . S
O203 C195 1.252 . S
C204 C205 1.387 . S
C204 H208 0.950 . S
C204 C213 1.390 . S
C205 C204 1.387 . S
C205 C207 1.387 . S
H206 C213 0.950 . S
C207 C205 1.387 . S
C207 C209 1.390 . S
C207 H211 0.950 . S
H208 C204 0.950 . S
C209 C207 1.390 . S
C209 C210 1.387 . S
C209 H212 0.950 . S
C210 C209 1.387 . S
C210 C213 1.387 . S
H211 C207 0.950 . S
H212 C209 0.950 . S
C213 C204 1.390 . S
C213 H206 0.950 . S
C213 C210 1.387 . S
C214 C215 1.387 . S
C214 H218 0.950 . S
C214 C223 1.390 . S
C215 C214 1.387 . S
C215 C217 1.387 . S
H216 C223 0.950 . S
C217 C215 1.387 . S
C217 C219 1.390 . S
C217 H221 0.950 . S
H218 C214 0.950 . S
C219 C217 1.390 . S
C219 C220 1.387 . S
C219 H222 0.950 . S
C220 C219 1.387 . S
C220 C223 1.387 . S
H221 C217 0.950 . S
H222 C219 0.950 . S
C223 C214 1.390 . S
C223 H216 0.950 . S
C223 C220 1.387 . S
C224 C225 1.387 . S
C224 H228 0.950 . S
C224 C233 1.390 . S
C225 C224 1.387 . S
C225 C227 1.387 . S
H226 C233 0.950 . S
C227 C225 1.387 . S
C227 C229 1.390 . S
C227 H231 0.950 . S
H228 C224 0.950 . S
C229 C227 1.390 . S
C229 C230 1.387 . S
C229 H232 0.950 . S
C230 C229 1.387 . S
C230 C233 1.387 . S
H231 C227 0.950 . S
H232 C229 0.950 . S
C233 C224 1.390 . S
C233 H226 0.950 . S
C233 C230 1.387 . S
C234 C235 1.387 . S
C234 H238 0.950 . S
C234 C243 1.390 . S
C235 C234 1.387 . S
C235 C237 1.387 . S
H236 C243 0.950 . S
C237 C235 1.387 . S
C237 C239 1.390 . S
C237 H241 0.950 . S
H238 C234 0.950 . S
C239 C237 1.390 . S
C239 C240 1.387 . S
C239 H242 0.950 . S
C240 C239 1.387 . S
C240 C243 1.387 . S
H241 C237 0.950 . S
H242 C239 0.950 . S
C243 C234 1.390 . S
C243 H236 0.950 . S
C243 C240 1.387 . S
C244 C245 1.387 . S
C244 H248 0.950 . S
C244 C253 1.390 . S
C245 C244 1.387 . S
C245 C247 1.387 . S
H246 C253 0.950 . S
C247 C245 1.387 . S
C247 C249 1.390 . S
C247 H251 0.950 . S
H248 C244 0.950 . S
C249 C247 1.390 . S
C249 C250 1.387 . S
C249 H252 0.950 . S
C250 C249 1.387 . S
C250 C253 1.387 . S
H251 C247 0.950 . S
H252 C249 0.950 . S
C253 C244 1.390 . S
C253 H246 0.950 . S
C253 C250 1.387 . S
C254 C255 1.387 . S
C254 H258 0.950 . S
C254 C263 1.390 . S
C255 C254 1.387 . S
C255 C257 1.387 . S
H256 C263 0.950 . S
C257 C255 1.387 . S
C257 C259 1.390 . S
C257 H261 0.950 . S
H258 C254 0.950 . S
C259 C257 1.390 . S
C259 C260 1.387 . S
C259 H262 0.950 . S
C260 C259 1.387 . S
C260 C263 1.387 . S
H261 C257 0.950 . S
H262 C259 0.950 . S
C263 C254 1.390 . S
C263 H256 0.950 . S
C263 C260 1.387 . S
C264 C265 1.387 . S
C264 H268 0.950 . S
C264 C273 1.390 . S
C265 C264 1.387 . S
C265 C267 1.387 . S
H266 C273 0.950 . S
C267 C265 1.387 . S
C267 C269 1.390 . S
C267 H271 0.950 . S
H268 C264 0.950 . S
C269 C267 1.390 . S
C269 C270 1.387 . S
C269 H272 0.950 . S
C270 C269 1.387 . S
C270 C273 1.387 . S
H271 C267 0.950 . S
H272 C269 0.950 . S
C273 C264 1.390 . S
C273 H266 0.950 . S
C273 C270 1.387 . S
C274 C275 1.387 . S
C274 H278 0.950 . S
C274 C283 1.390 . S
C275 C274 1.387 . S
C275 C277 1.387 . S
H276 C283 0.950 . S
C277 C275 1.387 . S
C277 C279 1.390 . S
C277 H281 0.950 . S
H278 C274 0.950 . S
C279 C277 1.390 . S
C279 C280 1.387 . S
C279 H282 0.950 . S
C280 C279 1.387 . S
C280 C283 1.387 . S
H281 C277 0.950 . S
H282 C279 0.950 . S
C283 C274 1.390 . S
C283 H276 0.950 . S
C283 C280 1.387 . S
C284 C285 1.387 . S
C284 H288 0.950 . S
C284 C293 1.390 . S
C285 C284 1.387 . S
C285 C287 1.387 . S
H286 C293 0.950 . S
C287 C285 1.387 . S
C287 C289 1.390 . S
C287 H291 0.950 . S
H288 C284 0.950 . S
C289 C287 1.390 . S
C289 C290 1.387 . S
C289 H292 0.950 . S
C290 C289 1.387 . S
C290 C293 1.387 . S
H291 C287 0.950 . S
H292 C289 0.950 . S
C293 C284 1.390 . S
C293 H286 0.950 . S
C293 C290 1.387 . S
C294 C295 1.387 . S
C294 H298 0.950 . S
C294 C303 1.390 . S
C295 C294 1.387 . S
C295 C297 1.387 . S
H296 C303 0.950 . S
C297 C295 1.387 . S
C297 C299 1.390 . S
C297 H301 0.950 . S
H298 C294 0.950 . S
C299 C297 1.390 . S
C299 C300 1.387 . S
C299 H302 0.950 . S
C300 C299 1.387 . S
C300 C303 1.387 . S
H301 C297 0.950 . S
H302 C299 0.950 . S
C303 C294 1.390 . S
C303 H296 0.950 . S
C303 C300 1.387 . S
C304 C305 1.387 . S
C304 H308 0.950 . S
C304 C313 1.390 . S
C305 C304 1.387 . S
C305 C307 1.387 . S
H306 C313 0.950 . S
C307 C305 1.387 . S
C307 C309 1.390 . S
C307 H311 0.950 . S
H308 C304 0.950 . S
C309 C307 1.390 . S
C309 C310 1.387 . S
C309 H312 0.950 . S
C310 C309 1.387 . S
C310 C313 1.387 . S
H311 C307 0.950 . S
H312 C309 0.950 . S
C313 C304 1.390 . S
C313 H306 0.950 . S
C313 C310 1.387 . S
C314 C315 1.387 . S
C314 H318 0.950 . S
C314 C323 1.390 . S
C315 C314 1.387 . S
C315 C317 1.387 . S
H316 C323 0.950 . S
C317 C315 1.387 . S
C317 C319 1.390 . S
C317 H321 0.950 . S
H318 C314 0.950 . S
C319 C317 1.390 . S
C319 C320 1.387 . S
C319 H322 0.950 . S
C320 C319 1.387 . S
C320 C323 1.387 . S
H321 C317 0.950 . S
H322 C319 0.950 . S
C323 C314 1.390 . S
C323 H316 0.950 . S
C323 C320 1.387 . S
C324 C325 1.387 . S
C324 H328 0.950 . S
C324 C333 1.390 . S
C325 C324 1.387 . S
C325 C327 1.387 . S
H326 C333 0.950 . S
C327 C325 1.387 . S
C327 C329 1.390 . S
C327 H331 0.950 . S
H328 C324 0.950 . S
C329 C327 1.390 . S
C329 C330 1.387 . S
C329 H332 0.950 . S
C330 C329 1.387 . S
C330 C333 1.387 . S
H331 C327 0.950 . S
H332 C329 0.950 . S
C333 C324 1.390 . S
C333 H326 0.950 . S
C333 C330 1.387 . S
C334 C335 1.387 . S
C334 H338 0.950 . S
C334 C343 1.390 . S
C335 C334 1.387 . S
C335 C337 1.387 . S
H336 C343 0.950 . S
C337 C335 1.387 . S
C337 C339 1.390 . S
C337 H341 0.950 . S
H338 C334 0.950 . S
C339 C337 1.390 . S
C339 C340 1.387 . S
C339 H342 0.950 . S
C340 C339 1.387 . S
C340 C343 1.387 . S
H341 C337 0.950 . S
H342 C339 0.950 . S
C343 C334 1.390 . S
C343 H336 0.950 . S
C343 C340 1.387 . S
C344 C345 1.387 . S
C344 H348 0.950 . S
C344 C353 1.390 . S
C345 C344 1.387 . S
C345 C347 1.387 . S
H346 C353 0.950 . S
C347 C345 1.387 . S
C347 C349 1.390 . S
C347 H351 0.950 . S
H348 C344 0.950 . S
C349 C347 1.390 . S
C349 C350 1.387 . S
C349 H352 0.950 . S
C350 C349 1.387 . S
C350 C353 1.387 . S
H351 C347 0.950 . S
H352 C349 0.950 . S
C353 C344 1.390 . S
C353 H346 0.950 . S
C353 C350 1.387 . S
C354 C355 1.387 . S
C354 H358 0.950 . S
C354 C363 1.390 . S
C355 C354 1.387 . S
C355 C357 1.387 . S
H356 C363 0.950 . S
C357 C355 1.387 . S
C357 C359 1.390 . S
C357 H361 0.950 . S
H358 C354 0.950 . S
C359 C357 1.390 . S
C359 C360 1.387 . S
C359 H362 0.950 . S
C360 C359 1.387 . S
C360 C363 1.387 . S
H361 C357 0.950 . S
H362 C359 0.950 . S
C363 C354 1.390 . S
C363 H356 0.950 . S
C363 C360 1.387 . S
C364 C365 1.387 . S
C364 H368 0.950 . S
C364 C373 1.390 . S
C365 C364 1.387 . S
C365 C367 1.387 . S
H366 C373 0.950 . S
C367 C365 1.387 . S
C367 C369 1.390 . S
C367 H371 0.950 . S
H368 C364 0.950 . S
C369 C367 1.390 . S
C369 C370 1.387 . S
C369 H372 0.950 . S
C370 C369 1.387 . S
C370 C373 1.387 . S
H371 C367 0.950 . S
H372 C369 0.950 . S
C373 C364 1.390 . S
C373 H366 0.950 . S
C373 C370 1.387 . S
C374 C375 1.387 . S
C374 H378 0.950 . S
C374 C383 1.390 . S
C375 C374 1.387 . S
C375 C377 1.387 . S
H376 C383 0.950 . S
C377 C375 1.387 . S
C377 C379 1.390 . S
C377 H381 0.950 . S
H378 C374 0.950 . S
C379 C377 1.390 . S
C379 C380 1.387 . S
C379 H382 0.950 . S
C380 C379 1.387 . S
C380 C383 1.387 . S
H381 C377 0.950 . S
H382 C379 0.950 . S
C383 C374 1.390 . S
C383 H376 0.950 . S
C383 C380 1.387 . S
C384 C385 1.387 . S
C384 H388 0.950 . S
C384 C393 1.390 . S
C385 C384 1.387 . S
C385 C387 1.387 . S
H386 C393 0.950 . S
C387 C385 1.387 . S
C387 C389 1.390 . S
C387 H391 0.950 . S
H388 C384 0.950 . S
C389 C387 1.390 . S
C389 C390 1.387 . S
C389 H392 0.950 . S
C390 C389 1.387 . S
C390 C393 1.387 . S
H391 C387 0.950 . S
H392 C389 0.950 . S
C393 C384 1.390 . S
C393 H386 0.950 . S
C393 C390 1.387 . S
C394 C395 1.387 . S
C394 H398 0.950 . S
C394 C403 1.390 . S
C395 C394 1.387 . S
C395 C397 1.387 . S
H396 C403 0.950 . S
C397 C395 1.387 . S
C397 C399 1.390 . S
C397 H401 0.950 . S
H398 C394 0.950 . S
C399 C397 1.390 . S
C399 C400 1.387 . S
C399 H402 0.950 . S
C400 C399 1.387 . S
C400 C403 1.387 . S
H401 C397 0.950 . S
H402 C399 0.950 . S
C403 C394 1.390 . S
C403 H396 0.950 . S
C403 C400 1.387 . S
C404 C405 1.387 . S
C404 H408 0.950 . S
C404 C413 1.390 . S
C405 C404 1.387 . S
C405 C407 1.387 . S
H406 C413 0.950 . S
C407 C405 1.387 . S
C407 C409 1.390 . S
C407 H411 0.950 . S
H408 C404 0.950 . S
C409 C407 1.390 . S
C409 C410 1.387 . S
C409 H412 0.950 . S
C410 C409 1.387 . S
C410 C413 1.387 . S
H411 C407 0.950 . S
H412 C409 0.950 . S
C413 C404 1.390 . S
C413 H406 0.950 . S
C413 C410 1.387 . S
C414 C415 1.387 . S
C414 H418 0.950 . S
C414 C423 1.390 . S
C415 C414 1.387 . S
C415 C417 1.387 . S
H416 C423 0.950 . S
C417 C415 1.387 . S
C417 C419 1.390 . S
C417 H421 0.950 . S
H418 C414 0.950 . S
C419 C417 1.390 . S
C419 C420 1.387 . S
C419 H422 0.950 . S
C420 C419 1.387 . S
C420 C423 1.387 . S
H421 C417 0.950 . S
H422 C419 0.950 . S
C423 C414 1.390 . S
C423 H416 0.950 . S
C423 C420 1.387 . S
C424 C425 1.387 . S
C424 H428 0.950 . S
C424 C433 1.390 . S
C425 C424 1.387 . S
C425 C427 1.387 . S
H426 C433 0.950 . S
C427 C425 1.387 . S
C427 C429 1.390 . S
C427 H431 0.950 . S
H428 C424 0.950 . S
C429 C427 1.390 . S
C429 C430 1.387 . S
C429 H432 0.950 . S
C430 C429 1.387 . S
C430 C433 1.387 . S
H431 C427 0.950 . S
H432 C429 0.950 . S
C433 C424 1.390 . S
C433 H426 0.950 . S
C433 C430 1.387 . S
C434 C435 1.387 . S
C434 H438 0.950 . S
C434 C443 1.390 . S
C435 C434 1.387 . S
C435 C437 1.387 . S
H436 C443 0.950 . S
C437 C435 1.387 . S
C437 C439 1.390 . S
C437 H441 0.950 . S
H438 C434 0.950 . S
C439 C437 1.390 . S
C439 C440 1.387 . S
C439 H442 0.950 . S
C440 C439 1.387 . S
C440 C443 1.387 . S
H441 C437 0.950 . S
H442 C439 0.950 . S
C443 C434 1.390 . S
C443 H436 0.950 . S
C443 C440 1.387 . S
C210 C196 1.580 . S
C205 C19 1.517 . S
C215 C40 1.523 . S
C220 C131 1.584 . S
C225 C51 1.515 . S
C230 C149 1.588 . S
C235 C72 1.502 . S
C240 C162 1.575 . S
C250 C170 1.583 . S
C245 C103 1.517 . S
C255 C114 1.509 . S
C260 C182 1.581 . S
C265 C30 1.516 . S
C270 C144 1.593 . S
C275 C61 1.518 . S
C280 C157 1.581 . S
C285 C82 1.514 . S
C290 C175 1.576 . S
C300 C181 1.587 . S
C295 C93 1.514 1_554 S
C310 C201 1.572 . S
C305 C124 1.512 . S
C320 C136 1.581 . S
C315 C9 1.506 . S
C325 C17 1.511 . S
C330 C142 1.583 . S
C335 C38 1.512 . S
C340 C155 1.582 . S
C350 C169 1.577 . S
C345 C54 1.504 . S
C355 C75 1.514 . S
C360 C183 1.586 1_556 S
C370 C195 1.575 . S
C365 C101 1.506 . S
C380 C130 1.576 . S
C375 C117 1.504 . S
C390 C194 1.579 . S
C385 C33 1.507 . S
C395 C59 1.507 . S
C400 C129 1.580 . S
C410 C143 1.582 . S
C405 C80 1.508 . S
C415 C96 1.502 . S
C420 C156 1.574 . S
C425 C122 1.512 . S
C430 C168 1.582 1_554 S
C435 C12 1.507 . S
C440 C188 1.582 . S
