# Generated by pormake.
# Topology pyr, (3,6)-cn, num edge types: 1
# Building blocks:
#     Node 0, Type 0, BuildingBlock: ESEHIV_clean_linker_0, # of connection points: 3
#     Node 1, Type 0, BuildingBlock: ESEHIV_clean_linker_0, # of connection points: 3
#     Node 2, Type 0, BuildingBlock: ESEHIV_clean_linker_0, # of connection points: 3
#     Node 3, Type 0, BuildingBlock: ESEHIV_clean_linker_0, # of connection points: 3
#     Node 4, Type 0, BuildingBlock: ESEHIV_clean_linker_0, # of connection points: 3
#     Node 5, Type 0, BuildingBlock: ESEHIV_clean_linker_0, # of connection points: 3
#     Node 6, Type 0, BuildingBlock: ESEHIV_clean_linker_0, # of connection points: 3
#     Node 7, Type 0, BuildingBlock: ESEHIV_clean_linker_0, # of connection points: 3
#     Node 8, Type 1, BuildingBlock: BETDAH_clean_sbu_0, # of connection points: 6
#     Node 9, Type 1, BuildingBlock: BETDAH_clean_sbu_0, # of connection points: 6
#     Node 10, Type 1, BuildingBlock: BETDAH_clean_sbu_0, # of connection points: 6
#     Node 11, Type 1, BuildingBlock: BETDAH_clean_sbu_0, # of connection points: 6
#     Edge 12, Type (0, 1), BuildingBlock: MIFKUJ_clean_linker_0, # of connection points: 2
#     Edge 13, Type (0, 1), BuildingBlock: MIFKUJ_clean_linker_0, # of connection points: 2
#     Edge 14, Type (0, 1), BuildingBlock: MIFKUJ_clean_linker_0, # of connection points: 2
#     Edge 15, Type (0, 1), BuildingBlock: MIFKUJ_clean_linker_0, # of connection points: 2
#     Edge 16, Type (0, 1), BuildingBlock: MIFKUJ_clean_linker_0, # of connection points: 2
#     Edge 17, Type (0, 1), BuildingBlock: MIFKUJ_clean_linker_0, # of connection points: 2
#     Edge 18, Type (0, 1), BuildingBlock: MIFKUJ_clean_linker_0, # of connection points: 2
#     Edge 19, Type (0, 1), BuildingBlock: MIFKUJ_clean_linker_0, # of connection points: 2
#     Edge 20, Type (0, 1), BuildingBlock: MIFKUJ_clean_linker_0, # of connection points: 2
#     Edge 21, Type (0, 1), BuildingBlock: MIFKUJ_clean_linker_0, # of connection points: 2
#     Edge 22, Type (0, 1), BuildingBlock: MIFKUJ_clean_linker_0, # of connection points: 2
#     Edge 23, Type (0, 1), BuildingBlock: MIFKUJ_clean_linker_0, # of connection points: 2
#     Edge 24, Type (0, 1), BuildingBlock: MIFKUJ_clean_linker_0, # of connection points: 2
#     Edge 25, Type (0, 1), BuildingBlock: MIFKUJ_clean_linker_0, # of connection points: 2
#     Edge 26, Type (0, 1), BuildingBlock: MIFKUJ_clean_linker_0, # of connection points: 2
#     Edge 27, Type (0, 1), BuildingBlock: MIFKUJ_clean_linker_0, # of connection points: 2
#     Edge 28, Type (0, 1), BuildingBlock: MIFKUJ_clean_linker_0, # of connection points: 2
#     Edge 29, Type (0, 1), BuildingBlock: MIFKUJ_clean_linker_0, # of connection points: 2
#     Edge 30, Type (0, 1), BuildingBlock: MIFKUJ_clean_linker_0, # of connection points: 2
#     Edge 31, Type (0, 1), BuildingBlock: MIFKUJ_clean_linker_0, # of connection points: 2
#     Edge 32, Type (0, 1), BuildingBlock: MIFKUJ_clean_linker_0, # of connection points: 2
#     Edge 33, Type (0, 1), BuildingBlock: MIFKUJ_clean_linker_0, # of connection points: 2
#     Edge 34, Type (0, 1), BuildingBlock: MIFKUJ_clean_linker_0, # of connection points: 2
#     Edge 35, Type (0, 1), BuildingBlock: MIFKUJ_clean_linker_0, # of connection points: 2
# Relax obj value: 0.093
# Max RMSD: 0.123
# Mean RMSD: 0.058
data_MOF--net-pyr--node1-BETDAH_clean_sbu_0--node2-ESEHIV_clean_linker_0--edge1-MIFKUJ_clean_linker_0
_symmetry_space_group_name_H-M    P1
_symmetry_Int_Tables_number       1
_symmetry_cell_setting            triclinic
loop_
_symmetry_equiv_pos_as_xyz
'x, y, z'
_cell_length_a     46.911096
_cell_length_b     49.636149
_cell_length_c     45.302671
_cell_angle_alpha  91.311008
_cell_angle_beta   89.097582
_cell_angle_gamma 101.22991
loop_
_atom_site_label
_atom_site_type_symbol
_atom_site_fract_x
_atom_site_fract_y
_atom_site_fract_z
_atom_type_partial_charge
H0 H 0.28659 0.31009 0.21355 0.0
H1 H 0.32663 0.24073 0.22696 0.0
H2 H 0.34672 0.28888 0.14864 0.0
C3 C 0.30191 0.29739 0.20647 0.0
C4 C 0.31705 0.30269 0.17962 0.0
C5 C 0.30498 0.27493 0.22345 0.0
C6 C 0.32434 0.25821 0.21393 0.0
C7 C 0.33961 0.26305 0.18697 0.0
C8 C 0.33583 0.2854 0.16988 0.0
H9 H 0.28182 0.88329 0.638 0.0
H10 H 0.34689 0.8378 0.61027 0.0
H11 H 0.29612 0.86859 0.54541 0.0
C12 C 0.29326 0.87447 0.62044 0.0
C13 C 0.28604 0.87745 0.59087 0.0
C14 C 0.31548 0.86055 0.62755 0.0
C15 C 0.33024 0.84917 0.60477 0.0
C16 C 0.32308 0.85167 0.57508 0.0
C17 C 0.30107 0.86593 0.56833 0.0
H18 H 0.68915 0.34911 0.89133 0.0
H19 H 0.69178 0.41367 0.8292 0.0
H20 H 0.62292 0.34195 0.82527 0.0
C21 C 0.67988 0.3574 0.87263 0.0
C22 C 0.65453 0.34201 0.85956 0.0
C23 C 0.6935 0.38332 0.86205 0.0
C24 C 0.68127 0.39391 0.83758 0.0
C25 C 0.65563 0.37941 0.82395 0.0
C26 C 0.64252 0.35339 0.8353 0.0
H27 H 0.83764 0.72043 0.38945 0.0
H28 H 0.90613 0.72532 0.32413 0.0
H29 H 0.8357 0.65489 0.32584 0.0
C30 C 0.84715 0.712 0.37027 0.0
C31 C 0.83346 0.68615 0.35898 0.0
C32 C 0.87325 0.72667 0.35793 0.0
C33 C 0.88602 0.71444 0.33376 0.0
C34 C 0.87296 0.68822 0.322 0.0
C35 C 0.84659 0.67449 0.33496 0.0
H36 H 0.68757 0.82199 0.803 0.0
H37 H 0.74739 0.76728 0.81128 0.0
H38 H 0.68665 0.77465 0.88151 0.0
C39 C 0.69548 0.80646 0.81518 0.0
C40 C 0.68432 0.79967 0.84362 0.0
C41 C 0.71805 0.79464 0.80313 0.0
C42 C 0.72882 0.77524 0.81961 0.0
C43 C 0.71762 0.76776 0.84782 0.0
C44 C 0.69524 0.78002 0.85963 0.0
H45 H 0.6472 0.16945 0.46794 0.0
H46 H 0.71145 0.11875 0.45863 0.0
H47 H 0.70378 0.1632 0.54016 0.0
C48 C 0.66424 0.16044 0.47729 0.0
C49 C 0.6734 0.16771 0.50624 0.0
C50 C 0.67817 0.14313 0.45978 0.0
C51 C 0.70065 0.13223 0.472 0.0
C52 C 0.70995 0.13917 0.50098 0.0
C53 C 0.6965 0.15732 0.51792 0.0
H54 H 0.3493 0.72928 0.16711 0.0
H55 H 0.34571 0.66483 0.22992 0.0
H56 H 0.41733 0.7339 0.23068 0.0
C57 C 0.35894 0.72014 0.18495 0.0
C58 C 0.38548 0.73444 0.19666 0.0
C59 C 0.34423 0.69485 0.19629 0.0
C60 C 0.35627 0.68437 0.22105 0.0
C61 C 0.38251 0.69828 0.23395 0.0
C62 C 0.39704 0.72323 0.2213 0.0
H63 H 0.13317 0.35328 0.7391 0.0
H64 H 0.20177 0.35465 0.67492 0.0
H65 H 0.20424 0.42303 0.73582 0.0
C66 C 0.15334 0.36383 0.72923 0.0
C67 C 0.16735 0.38965 0.74094 0.0
C68 C 0.16589 0.35095 0.70563 0.0
C69 C 0.19221 0.3646 0.69303 0.0
C70 C 0.20619 0.39082 0.70328 0.0
C71 C 0.19381 0.40288 0.7277 0.0
Ho72 Ho 0.02169 0.05225 0.50414 0.0
Ho73 Ho 0.02174 1.02429 0.56162 0.0
C74 C 0.04752 0.08773 0.563 0.0
C75 C 0.02017 0.08561 0.46154 0.0
C76 C 0.04329 0.10665 0.44901 0.0
C77 C 0.03657 0.1288 0.4338 0.0
C78 C 0.05881 0.14834 0.42132 0.0
C79 C 0.08812 0.14586 0.42372 0.0
C80 C 0.09461 0.12378 0.43952 0.0
C81 C 0.07247 0.10454 0.45222 0.0
C82 C 0.06939 1.03073 0.51357 0.0
C83 C 0.99479 0.9889 0.5031 0.0
C84 C 0.02279 0.98958 0.60277 0.0
C85 C 0.99903 0.96696 0.61065 0.0
C86 C 1.00128 0.94982 0.6343 0.0
C87 C 0.97711 0.93028 0.64315 0.0
C88 C 0.95044 0.92812 0.62868 0.0
C89 C 0.9486 0.94467 0.6044 0.0
C90 C 0.97274 0.96384 0.59536 0.0
C91 C 0.97415 0.04611 0.55301 0.0
O92 O 0.03357 0.0876 0.53772 0.0
O93 O 0.05086 0.06431 0.57459 0.0
O94 O 0.02372 0.06033 0.45749 0.0
O95 O 1.01201 0.09044 0.48853 0.0
O96 O 0.05752 1.03078 0.48808 0.0
O97 O 0.05666 0.04335 0.53214 0.0
O98 O 1.0086 0.98891 0.5284 0.0
O99 O 0.99208 1.01243 0.49137 0.0
O100 O 0.01695 1.01397 0.60774 0.0
O101 O 0.03451 0.9873 0.57666 0.0
O102 O 0.98593 0.04501 0.5784 0.0
O103 O 0.98654 0.03361 0.53386 0.0
H104 H 0.01416 0.1309 0.43142 0.0
H105 H 0.05302 0.16531 0.40974 0.0
H106 H 0.11677 0.12085 0.44146 0.0
H107 H 0.07812 0.08768 0.46415 0.0
H108 H 0.0213 0.95211 0.64645 0.0
H109 H 0.97882 0.91781 0.66211 0.0
H110 H 0.92824 0.94326 0.59294 0.0
H111 H 0.97059 0.97698 0.57708 0.0
Ho112 Ho 0.54544 0.04075 0.03831 0.0
Ho113 Ho 0.49301 1.02884 1.00371 0.0
C114 C 0.49084 0.06375 0.06187 0.0
C115 C 0.59493 0.05703 0.06363 0.0
C116 C 0.60278 0.06343 0.09461 0.0
C117 C 0.62675 0.08409 0.10156 0.0
C118 C 0.63312 0.09155 0.13104 0.0
C119 C 0.61551 0.07845 0.154 0.0
C120 C 0.59175 0.05746 0.14686 0.0
C121 C 0.58538 0.05011 0.11746 0.0
C122 C 0.50542 0.9982 0.06076 0.0
C123 C 0.54698 1.00299 0.98046 0.0
C124 C 0.44804 1.00897 0.97217 0.0
C125 C 0.43952 0.98633 0.95029 0.0
C126 C 0.42189 0.96132 0.95856 0.0
C127 C 0.41236 0.94071 0.93734 0.0
C128 C 0.42022 0.94478 0.90744 0.0
C129 C 0.43819 0.96965 0.89936 0.0
C130 C 0.44767 0.99015 0.92046 0.0
C131 C 0.52429 0.08075 0.99523 0.0
O132 O 0.51937 0.06951 0.05923 0.0
O133 O 0.47532 0.04401 0.04568 0.0
O134 O 0.58416 0.03125 0.05732 0.0
O135 O 0.58048 0.07381 0.05147 0.0
O136 O 0.52094 1.01775 0.07624 0.0
O137 O 0.51171 1.00229 0.03373 0.0
O138 O 0.51945 1.00405 0.97688 0.0
O139 O 0.56238 1.01687 1.00184 0.0
O140 O 0.46866 1.02915 0.96395 0.0
O141 O 0.45048 1.0024 0.99972 0.0
O142 O 0.49639 0.07438 0.99864 0.0
O143 O 0.53472 0.05906 0.99677 0.0
H144 H 0.64024 0.09477 0.08418 0.0
H145 H 0.65138 0.108 0.13581 0.0
H146 H 0.57805 0.04665 0.164 0.0
H147 H 0.56666 0.03418 0.11261 0.0
H148 H 0.41507 0.95784 0.98134 0.0
H149 H 0.39863 0.92172 0.94427 0.0
H150 H 0.44413 0.97378 0.87647 0.0
H151 H 0.46091 1.00927 0.91317 0.0
Ho152 Ho 0.51895 0.51407 0.50854 0.0
Ho153 Ho 0.51839 0.56069 0.54703 0.0
C154 C 0.54245 0.51269 0.5769 0.0
C155 C 0.53426 0.47339 0.48032 0.0
C156 C 0.54078 0.44755 0.49078 0.0
C157 C 0.56183 0.43569 0.476 0.0
C158 C 0.57051 0.41277 0.48756 0.0
C159 C 0.55824 0.4014 0.51411 0.0
C160 C 0.53676 0.41307 0.52861 0.0
C161 C 0.52822 0.4361 0.51713 0.0
C162 C 0.46781 0.51033 0.53884 0.0
C163 C 0.4948 0.56223 0.47939 0.0
C164 C 0.50368 0.60267 0.57281 0.0
C165 C 0.49233 0.62517 0.55912 0.0
C166 C 0.46231 0.62262 0.55479 0.0
C167 C 0.45175 0.64174 0.53813 0.0
C168 C 0.47092 0.66397 0.52562 0.0
C169 C 0.50085 0.66704 0.53065 0.0
C170 C 0.51146 0.64784 0.54726 0.0
C171 C 0.56948 0.56374 0.5171 0.0
O172 O 0.5415 0.50222 0.54961 0.0
O173 O 0.53205 0.53516 0.58269 0.0
O174 O 0.50723 0.47632 0.48296 0.0
O175 O 0.55271 0.49533 0.4888 0.0
O176 O 0.47003 0.5034 0.51125 0.0
O177 O 0.49295 0.51854 0.54918 0.0
O178 O 0.49268 0.57046 0.50722 0.0
O179 O 0.50828 0.54175 0.4732 0.0
O180 O 0.53068 0.60142 0.56651 0.0
O181 O 0.4866 0.57848 0.57171 0.0
O182 O 0.5673 0.57002 0.54485 0.0
O183 O 0.54435 0.55619 0.50647 0.0
H184 H 0.57196 0.44447 0.45583 0.0
H185 H 0.58682 0.40391 0.47573 0.0
H186 H 0.52712 0.40483 0.5492 0.0
H187 H 0.5123 0.44532 0.52917 0.0
H188 H 0.44696 0.6055 0.56372 0.0
H189 H 0.42849 0.63926 0.53531 0.0
H190 H 0.5161 0.68406 0.52139 0.0
H191 H 0.53472 0.65043 0.55015 0.0
Ho192 Ho 0.02046 0.51109 0.04379 0.0
Ho193 Ho 0.01611 0.56619 1.01453 0.0
C194 C 0.07339 0.56351 0.05404 0.0
C195 C 0.03435 0.46419 0.0526 0.0
C196 C 0.06222 0.4548 0.05485 0.0
C197 C 0.08202 0.45633 0.03098 0.0
C198 C 0.10936 0.44964 0.03476 0.0
C199 C 0.11724 0.4414 0.0624 0.0
C200 C 0.09721 0.43925 0.08597 0.0
C201 C 0.06993 0.44573 0.08218 0.0
C202 C 0.98939 0.54028 0.08029 0.0
C203 C 0.9627 0.51529 1.00709 0.0
C204 C 1.0082 0.61438 1.00117 0.0
C205 C 0.98169 0.62443 0.99344 0.0
C206 C 0.95716 0.62043 1.01232 0.0
C207 C 0.93162 0.62849 1.00384 0.0
C208 C 0.93001 0.64043 0.97629 0.0
C209 C 0.95451 0.64447 0.95747 0.0
C210 C 0.98016 0.63665 0.96605 0.0
C211 C 0.03605 0.52876 0.97903 0.0
O212 O 0.06315 0.53702 0.05827 0.0
O213 O 0.05939 0.57871 0.03788 0.0
O214 O 0.0291 0.48081 0.07395 0.0
O215 O 0.02708 0.47164 1.02661 0.0
O216 O 0.99413 0.51603 0.08578 0.0
O217 O 1.0005 0.5464 0.05523 0.0
O218 O 0.97005 0.54242 1.00983 0.0
O219 O 0.98042 0.4991 1.01542 0.0
O220 O 0.01683 0.59757 0.9819 0.0
O221 O 1.00986 0.60657 0.02836 0.0
O222 O 0.01901 0.54471 0.97062 0.0
O223 O 0.04262 0.53419 1.00588 0.0
H224 H 0.07665 0.46311 1.0096 0.0
H225 H 0.12457 0.45148 1.01635 0.0
H226 H 0.10272 0.43255 0.10738 0.0
H227 H 0.05502 0.44422 0.10085 0.0
H228 H 0.95748 0.61073 0.03346 0.0
H229 H 0.91293 0.62486 1.01857 0.0
H230 H 0.95389 0.65389 0.93622 0.0
H231 H 0.99871 0.63982 0.9511 0.0
H232 H 0.31939 0.26042 0.27853 0.0
H233 H 0.28605 0.24456 0.31961 0.0
H234 H 0.21341 0.25508 0.2667 0.0
H235 H 0.24652 0.2714 0.22613 0.0
H236 H 0.20518 0.27103 0.32095 0.0
H237 H 0.23414 0.19181 0.27425 0.0
H238 H 0.26947 0.16397 0.25674 0.0
H239 H 0.29975 0.16058 0.34528 0.0
H240 H 0.26485 0.18875 0.36325 0.0
H241 H 0.08661 0.16967 0.36987 0.0
H242 H 0.1267 0.19813 0.34335 0.0
H243 H 0.18389 0.19334 0.41577 0.0
H244 H 0.1436 0.16585 0.4432 0.0
H245 H 0.20436 0.17802 0.35922 0.0
H246 H 0.16802 0.25204 0.40577 0.0
H247 H 0.13059 0.27829 0.42115 0.0
H248 H 0.11161 0.28949 0.33035 0.0
H249 H 0.14864 0.26294 0.3144 0.0
C250 C 0.29631 0.25952 0.27588 0.0
C251 C 0.28552 0.26716 0.24921 0.0
C252 C 0.2773 0.25045 0.29928 0.0
C253 C 0.24717 0.24834 0.29612 0.0
C254 C 0.23654 0.25667 0.26975 0.0
C255 C 0.2555 0.26601 0.24657 0.0
C256 C 0.22632 0.23616 0.31941 0.0
C257 C 0.20496 0.25066 0.32924 0.0
C258 C 0.22638 0.2098 0.33075 0.0
C259 C 0.24715 0.19265 0.32002 0.0
C260 C 0.24848 0.18528 0.28994 0.0
C261 C 0.2684 0.16943 0.27994 0.0
C262 C 0.28691 0.16059 0.29987 0.0
C263 C 0.28545 0.1675 0.32986 0.0
C264 C 0.2656 0.1834 0.33997 0.0
C265 C 0.10745 0.17523 0.3806 0.0
C266 C 0.11181 0.16528 0.40868 0.0
C267 C 0.1304 0.19139 0.36529 0.0
C268 C 0.15819 0.19778 0.37764 0.0
C269 C 0.16258 0.1885 0.40587 0.0
C270 C 0.13954 0.17264 0.42139 0.0
C271 C 0.18292 0.21265 0.36011 0.0
C272 C 0.20495 0.19861 0.35134 0.0
C273 C 0.18321 0.23922 0.34942 0.0
C274 C 0.16098 0.25531 0.3589 0.0
C275 C 0.15571 0.2599 0.38907 0.0
C276 C 0.13459 0.27488 0.39789 0.0
C277 C 0.11869 0.28551 0.37674 0.0
C278 C 0.12393 0.28123 0.34671 0.0
C279 C 0.14501 0.26625 0.33777 0.0
H280 H 0.10235 0.2971 0.38361 0.0
H281 H 0.30233 0.14834 0.29208 0.0
H282 H 0.27996 0.8465 0.67552 0.0
H283 H 0.294 0.84846 0.7275 0.0
H284 H 0.38408 0.87346 0.70176 0.0
H285 H 0.3702 0.87106 0.64986 0.0
H286 H 0.3789 0.83969 0.74789 0.0
H287 H 0.34155 0.92056 0.72118 0.0
H288 H 0.30421 0.94439 0.70244 0.0
H289 H 0.24495 0.90914 0.77073 0.0
H290 H 0.28184 0.88479 0.78961 0.0
H291 H 0.44843 0.92879 0.85876 0.0
H292 H 0.42664 0.90245 0.81605 0.0
H293 H 0.34334 0.8872 0.86082 0.0
H294 H 0.36478 0.91485 0.90315 0.0
H295 H 0.33834 0.90746 0.80943 0.0
H296 H 0.38059 0.83407 0.84211 0.0
H297 H 0.41904 0.81169 0.86083 0.0
H298 H 0.47001 0.83337 0.78232 0.0
H299 H 0.43208 0.85624 0.76328 0.0
C300 C 0.30277 0.85216 0.68101 0.0
C301 C 0.32399 0.85892 0.65873 0.0
C302 C 0.31077 0.8532 0.71066 0.0
C303 C 0.34005 0.86152 0.71853 0.0
C304 C 0.36137 0.86694 0.69621 0.0
C305 C 0.35341 0.86562 0.66657 0.0
C306 C 0.34845 0.86702 0.74983 0.0
C307 C 0.3701 0.85451 0.76142 0.0
C308 C 0.33634 0.88577 0.76774 0.0
C309 C 0.3143 0.90061 0.75657 0.0
C310 C 0.32048 0.91776 0.73207 0.0
C311 C 0.29942 0.93137 0.72144 0.0
C312 C 0.27219 0.92821 0.73533 0.0
C313 C 0.26602 0.91151 0.75995 0.0
C314 C 0.28699 0.89781 0.77062 0.0
C315 C 0.42553 0.91959 0.85967 0.0
C316 C 0.40826 0.92427 0.88419 0.0
C317 C 0.41315 0.90416 0.83536 0.0
C318 C 0.38333 0.89266 0.83523 0.0
C319 C 0.3664 0.89584 0.86044 0.0
C320 C 0.37874 0.91149 0.88472 0.0
C321 C 0.36941 0.88063 0.80746 0.0
C322 C 0.34671 0.89204 0.79639 0.0
C323 C 0.38068 0.86096 0.79009 0.0
C324 C 0.40349 0.84699 0.80132 0.0
C325 C 0.40007 0.83421 0.8289 0.0
C326 C 0.42177 0.82142 0.83956 0.0
C327 C 0.44696 0.82113 0.82279 0.0
C328 C 0.45048 0.83359 0.79528 0.0
C329 C 0.42885 0.84643 0.78452 0.0
H330 H 0.46375 0.81124 0.8311 0.0
H331 H 0.25591 0.93876 0.72707 0.0
H332 H 0.62937 0.35347 0.77349 0.0
H333 H 0.60951 0.37395 0.73161 0.0
H334 H 0.63315 0.45401 0.77311 0.0
H335 H 0.65218 0.43365 0.81529 0.0
H336 H 0.58078 0.44886 0.75036 0.0
H337 H 0.67235 0.42955 0.71266 0.0
H338 H 0.70719 0.39972 0.6996 0.0
H339 H 0.64462 0.35138 0.64179 0.0
H340 H 0.60925 0.38069 0.65484 0.0
H341 H 0.56189 0.5336 0.63139 0.0
H342 H 0.58073 0.51034 0.67155 0.0
H343 H 0.5674 0.43517 0.61948 0.0
H344 H 0.55018 0.45898 0.57859 0.0
H345 H 0.61272 0.43526 0.64722 0.0
H346 H 0.52117 0.45059 0.68262 0.0
H347 H 0.48284 0.47677 0.69504 0.0
H348 H 0.53964 0.52711 0.75658 0.0
H349 H 0.57846 0.50146 0.74424 0.0
C350 C 0.63018 0.37542 0.77392 0.0
C351 C 0.64275 0.39174 0.79809 0.0
C352 C 0.61903 0.38725 0.74962 0.0
C353 C 0.62006 0.41582 0.74856 0.0
C354 C 0.63209 0.43201 0.77291 0.0
C355 C 0.64329 0.42026 0.79711 0.0
C356 C 0.60839 0.42897 0.72259 0.0
C357 C 0.58812 0.4461 0.72787 0.0
C358 C 0.61674 0.42473 0.69279 0.0
C359 C 0.63805 0.40715 0.68499 0.0
C360 C 0.66594 0.41243 0.69735 0.0
C361 C 0.6858 0.39563 0.68992 0.0
C362 C 0.67809 0.37362 0.66995 0.0
C363 C 0.65054 0.3684 0.65731 0.0
C364 C 0.63059 0.38511 0.66471 0.0
C365 C 0.56296 0.51211 0.62841 0.0
C366 C 0.55425 0.49828 0.60157 0.0
C367 C 0.57357 0.4986 0.65168 0.0
C368 C 0.57499 0.47046 0.64942 0.0
C369 C 0.56664 0.45674 0.62235 0.0
C370 C 0.55663 0.47044 0.59881 0.0
C371 C 0.58531 0.45555 0.67498 0.0
C372 C 0.60527 0.43804 0.66966 0.0
C373 C 0.57611 0.45885 0.70471 0.0
C374 C 0.55281 0.47427 0.71229 0.0
C375 C 0.52555 0.46736 0.69866 0.0
C376 C 0.50373 0.48209 0.70571 0.0
C377 C 0.50883 0.50363 0.72653 0.0
C378 C 0.53574 0.51044 0.74042 0.0
C379 C 0.55765 0.4958 0.73343 0.0
H380 H 0.49191 0.51501 0.73195 0.0
H381 H 0.69349 0.36064 0.66422 0.0
H382 H 0.87416 0.63332 0.31221 0.0
H383 H 0.8937 0.61138 0.26996 0.0
H384 H 0.92325 0.69041 0.23088 0.0
H385 H 0.90241 0.71257 0.27269 0.0
H386 H 0.90196 0.6547 0.18863 0.0
H387 H 0.97079 0.65375 0.26491 0.0
H388 H 0.98767 0.64505 0.31444 0.0
H389 H 0.95424 0.55869 0.30231 0.0
H390 H 0.93682 0.56691 0.25284 0.0
H391 H 0.9897 0.59641 0.0803 0.0
H392 H 0.97112 0.62407 0.11908 0.0
H393 H 0.93999 0.55065 0.1684 0.0
H394 H 0.95913 0.52337 0.13021 0.0
H395 H 0.96522 0.58732 0.20474 0.0
H396 H 0.89485 0.58911 0.12837 0.0
H397 H 0.87837 0.59863 0.07891 0.0
H398 H 0.91586 0.68418 0.09083 0.0
H399 H 0.93296 0.67511 0.14019 0.0
C400 C 0.88451 0.64621 0.2946 0.0
C401 C 0.88644 0.67495 0.29624 0.0
C402 C 0.89611 0.63353 0.2704 0.0
C403 C 0.91051 0.64906 0.24703 0.0
C404 C 0.91242 0.67775 0.24846 0.0
C405 C 0.9007 0.6905 0.2727 0.0
C406 C 0.9234 0.63523 0.22137 0.0
C407 C 0.91614 0.64026 0.19221 0.0
C408 C 0.94172 0.61602 0.22557 0.0
C409 C 0.95229 0.61098 0.25526 0.0
C410 C 0.96687 0.63292 0.27288 0.0
C411 C 0.97656 0.62808 0.30094 0.0
C412 C 0.97197 0.60135 0.31154 0.0
C413 C 0.95776 0.57939 0.29408 0.0
C414 C 0.948 0.58413 0.26601 0.0
C415 C 0.97852 0.58616 0.09915 0.0
C416 C 0.97584 0.55758 0.10189 0.0
C417 C 0.9678 0.60203 0.12148 0.0
C418 C 0.95378 0.58966 0.147 0.0
C419 C 0.95073 0.56101 0.14928 0.0
C420 C 0.96161 0.5453 0.12721 0.0
C421 C 0.94322 0.60619 0.17194 0.0
C422 C 0.95106 0.60176 0.20107 0.0
C423 C 0.92556 0.62598 0.16761 0.0
C424 C 0.91542 0.63138 0.13787 0.0
C425 C 0.89979 0.60991 0.12034 0.0
C426 C 0.89031 0.61523 0.09234 0.0
C427 C 0.89608 0.64199 0.08174 0.0
C428 C 0.91142 0.66346 0.09907 0.0
C429 C 0.921 0.65825 0.12706 0.0
H430 H 0.88854 0.64611 0.06016 0.0
H431 H 0.97949 0.59764 0.33327 0.0
H432 H 0.32675 0.20704 0.18811 0.0
H433 H 0.35651 0.1748 0.17024 0.0
H434 H 0.42299 0.24233 0.14192 0.0
H435 H 0.39327 0.27493 0.16007 0.0
H436 H 0.41239 0.20147 0.10017 0.0
H437 H 0.43304 0.2088 0.20335 0.0
H438 H 0.42092 0.20899 0.25651 0.0
H439 H 0.37608 0.12506 0.24922 0.0
H440 H 0.38758 0.12447 0.19592 0.0
H441 H 0.51413 0.099 0.10622 0.0
H442 H 0.49154 0.13377 0.13164 0.0
H443 H 0.41236 0.10493 0.08376 0.0
H444 H 0.4345 0.06989 0.05863 0.0
H445 H 0.43688 0.13059 0.1657 0.0
H446 H 0.39624 0.16687 0.05601 0.0
H447 H 0.40893 0.16612 1.00299 0.0
H448 H 0.49733 0.16408 1.02412 0.0
H449 H 0.48557 0.16617 0.07719 0.0
C450 C 0.34787 0.21511 0.17846 0.0
C451 C 0.35782 0.24358 0.17583 0.0
C452 C 0.36482 0.19663 0.16817 0.0
C453 C 0.39214 0.20619 0.15516 0.0
C454 C 0.40199 0.23456 0.152 0.0
C455 C 0.38499 0.25312 0.16231 0.0
C456 C 0.41005 0.18635 0.14454 0.0
C457 C 0.41792 0.1861 0.11453 0.0
C458 C 0.41758 0.16654 0.16342 0.0
C459 C 0.41103 0.16666 0.19558 0.0
C460 C 0.42046 0.19043 0.21305 0.0
C461 C 0.41371 0.1906 0.24321 0.0
C462 C 0.3977 0.16706 0.25622 0.0
C463 C 0.38848 0.14327 0.23911 0.0
C464 C 0.39515 0.143 0.20893 0.0
C465 C 0.49173 0.09976 0.10152 0.0
C466 C 0.47612 0.08187 0.08031 0.0
C467 C 0.47887 0.11953 0.11613 0.0
C468 C 0.45048 0.12199 0.10927 0.0
C469 C 0.43439 0.10335 0.08916 0.0
C470 C 0.44705 0.08332 0.07491 0.0
C471 C 0.4383 0.14528 0.12129 0.0
C472 C 0.43157 0.14616 0.15148 0.0
C473 C 0.43211 0.16585 0.10265 0.0
C474 C 0.43987 0.16627 0.07068 0.0
C475 C 0.41847 0.16659 0.04937 0.0
C476 C 0.42553 0.16601 1.01928 0.0
C477 C 0.45393 0.16504 1.01019 0.0
C478 C 0.47537 0.16487 0.03118 0.0
C479 C 0.46852 0.16583 0.06128 0.0
H480 H 0.45933 0.16443 0.9869 0.0
H481 H 0.39247 0.16725 0.27957 0.0
H482 H 0.24443 0.8649 0.54838 0.0
H483 H 0.20814 0.89163 0.53497 0.0
H484 H 0.23922 0.95143 0.60345 0.0
H485 H 0.27615 0.92532 0.61651 0.0
H486 H 0.17834 0.93519 0.60212 0.0
H487 H 0.25844 0.96671 0.53555 0.0
H488 H 0.29554 0.96066 0.49814 0.0
H489 H 0.22862 0.92277 0.43846 0.0
H490 H 0.1911 0.92824 0.47571 0.0
H491 H 0.10418 0.03877 0.56147 0.0
H492 H 0.14172 1.0133 0.57427 0.0
H493 H 0.12293 0.96289 0.49532 0.0
H494 H 0.08648 0.98948 0.48167 0.0
H495 H 0.17799 0.97395 0.50215 0.0
H496 H 0.09785 0.94026 0.56768 0.0
H497 H 0.05989 0.94359 0.60507 0.0
H498 H 0.12496 0.98287 0.66602 0.0
H499 H 0.16334 0.97975 0.62895 0.0
C500 C 0.24374 0.88388 0.56042 0.0
C501 C 0.26327 0.89305 0.58343 0.0
C502 C 0.22293 0.89903 0.55281 0.0
C503 C 0.22124 0.92355 0.56811 0.0
C504 C 0.24023 0.9325 0.59145 0.0
C505 C 0.2612 0.91748 0.59895 0.0
C506 C 0.19969 0.93995 0.55965 0.0
C507 C 0.17839 0.94397 0.5804 0.0
C508 C 0.19946 0.95069 0.53105 0.0
C509 C 0.22198 0.94765 0.50852 0.0
C510 C 0.25164 0.9569 0.51454 0.0
C511 C 0.27274 0.95361 0.49334 0.0
C512 C 0.26444 0.94128 0.46596 0.0
C513 C 0.23501 0.93229 0.45969 0.0
C514 C 0.21382 0.9355 0.48082 0.0
C515 C 0.10825 1.02235 0.54681 0.0
C516 C 0.09255 1.01597 0.52065 0.0
C517 C 0.1295 1.00765 0.55424 0.0
C518 C 0.13471 0.98572 0.53611 0.0
C519 C 0.11925 0.97965 0.50969 0.0
C520 C 0.09845 0.9948 0.50192 0.0
C521 C 0.15634 0.96922 0.54461 0.0
C522 C 0.17775 0.96515 0.52388 0.0
C523 C 0.15646 0.95813 0.57315 0.0
C524 C 0.13342 0.95998 0.59546 0.0
C525 C 0.10404 0.94974 0.589 0.0
C526 C 0.08245 0.95157 0.61016 0.0
C527 C 0.08999 0.96358 0.63786 0.0
C528 C 0.11915 0.97362 0.64453 0.0
C529 C 0.14083 0.97175 0.6235 0.0
H530 H 0.07331 0.96504 0.65424 0.0
H531 H 0.28082 0.93874 0.44959 0.0
H532 H 0.74371 0.41237 0.83628 0.0
H533 H 0.78835 0.4359 0.86054 0.0
H534 H 0.749 0.41441 0.94558 0.0
H535 H 0.70469 0.39055 0.92148 0.0
H536 H 0.80487 0.4776 0.89663 0.0
H537 H 0.79803 0.40397 0.995 0.0
H538 H 0.77829 0.35546 1.00632 0.0
H539 H 0.7841 0.33318 0.91459 0.0
H540 H 0.80424 0.38146 0.90279 0.0
H541 H 0.91428 0.53817 0.99926 0.0
H542 H 0.86843 0.51734 0.97563 0.0
H543 H 0.90144 0.44323 0.95791 0.0
H544 H 0.94655 0.46346 0.98286 0.0
H545 H 0.84934 0.4278 0.97153 0.0
H546 H 0.89502 0.4955 0.9027 0.0
H547 H 0.91872 0.54206 0.88772 0.0
H548 H 0.84213 0.57269 0.91262 0.0
H549 H 0.81795 0.52624 0.92794 0.0
C550 C 0.74446 0.41279 0.86017 0.0
C551 C 0.72049 0.39915 0.87679 0.0
C552 C 0.77012 0.42632 0.8741 0.0
C553 C 0.77262 0.4267 0.90507 0.0
C554 C 0.74827 0.41396 0.92169 0.0
C555 C 0.72277 0.40024 0.90781 0.0
C556 C 0.80074 0.43966 0.91995 0.0
C557 C 0.8145 0.46665 0.91303 0.0
C558 C 0.81405 0.42553 0.94108 0.0
C559 C 0.80236 0.39637 0.94801 0.0
C560 C 0.7952 0.38869 0.97728 0.0
C561 C 0.78393 0.36124 0.98377 0.0
C562 C 0.77985 0.34127 0.96118 0.0
C563 C 0.78717 0.34868 0.93206 0.0
C564 C 0.79849 0.37608 0.92545 0.0
C565 C 0.91174 0.51739 0.99043 0.0
C566 C 0.9343 0.50258 0.9931 0.0
C567 C 0.88547 0.50549 0.97659 0.0
C568 C 0.88122 0.47867 0.9642 0.0
C569 C 0.90373 0.46386 0.96714 0.0
C570 C 0.92973 0.47553 0.98146 0.0
C571 C 0.85349 0.46586 0.94845 0.0
C572 C 0.83973 0.43885 0.95522 0.0
C573 C 0.84069 0.47972 0.92662 0.0
C574 C 0.85476 0.50746 0.91664 0.0
C575 C 0.88324 0.51217 0.90502 0.0
C576 C 0.89674 0.53852 0.89647 0.0
C577 C 0.88192 0.56031 0.89927 0.0
C578 C 0.8535 0.55575 0.91046 0.0
C579 C 0.83987 0.52942 0.91901 0.0
H580 H 0.89244 0.58071 0.89273 0.0
H581 H 0.77108 0.32004 0.96625 0.0
H582 H 0.78601 0.70774 0.37598 0.0
H583 H 0.74146 0.68491 0.40068 0.0
H584 H 0.77251 0.60863 0.39808 0.0
H585 H 0.81706 0.63138 0.37278 0.0
H586 H 0.71661 0.59762 0.3883 0.0
H587 H 0.77556 0.65042 0.46212 0.0
H588 H 0.8055 0.69187 0.48477 0.0
H589 H 0.73249 0.73232 0.48509 0.0
H590 H 0.70221 0.69123 0.46205 0.0
H591 H 0.62484 0.57879 0.53725 0.0
H592 H 0.66922 0.59642 0.50916 0.0
H593 H 0.61974 0.58858 0.42887 0.0
H594 H 0.57543 0.56989 0.45692 0.0
H595 H 0.68644 0.63986 0.48098 0.0
H596 H 0.66231 0.58229 0.36861 0.0
H597 H 0.63561 0.5377 0.34942 0.0
H598 H 0.64467 0.50077 0.43268 0.0
H599 H 0.67177 0.54502 0.45222 0.0
C600 C 0.78344 0.6861 0.38068 0.0
C601 C 0.80541 0.67154 0.3726 0.0
C602 C 0.75785 0.67301 0.39489 0.0
C603 C 0.75359 0.64503 0.40195 0.0
C604 C 0.77509 0.6302 0.39306 0.0
C605 C 0.80063 0.64326 0.37854 0.0
C606 C 0.72716 0.63158 0.41922 0.0
C607 C 0.71003 0.60691 0.40854 0.0
C608 C 0.71862 0.64315 0.44609 0.0
C609 C 0.7367 0.66784 0.46011 0.0
C610 C 0.76594 0.66822 0.46685 0.0
C611 C 0.78297 0.69165 0.47977 0.0
C612 C 0.77093 0.71474 0.4863 0.0
C613 C 0.7418 0.71443 0.47998 0.0
C614 C 0.72469 0.69107 0.46701 0.0
C615 C 0.62347 0.58052 0.51355 0.0
C616 C 0.59657 0.57283 0.49936 0.0
C617 C 0.64891 0.59077 0.49744 0.0
C618 C 0.64824 0.59383 0.46666 0.0
C619 C 0.62128 0.58602 0.45242 0.0
C620 C 0.59582 0.57539 0.46852 0.0
C621 C 0.67554 0.60602 0.44992 0.0
C622 C 0.69289 0.63053 0.4607 0.0
C623 C 0.68467 0.59386 0.42364 0.0
C624 C 0.66881 0.56705 0.41195 0.0
C625 C 0.65871 0.56462 0.38277 0.0
C626 C 0.64349 0.53941 0.37184 0.0
C627 C 0.63837 0.51644 0.38985 0.0
C628 C 0.64857 0.5186 0.41879 0.0
C629 C 0.66384 0.54374 0.42981 0.0
H630 H 0.62654 0.49696 0.38136 0.0
H631 H 0.78415 0.73286 0.4963 0.0
H632 H 0.30014 0.2977 0.12215 0.0
H633 H 0.27651 0.32956 0.0956 0.0
H634 H 0.2937 0.38798 0.16824 0.0
H635 H 0.31696 0.35599 0.19496 0.0
H636 H 0.23725 0.37348 0.15765 0.0
H637 H 0.323 0.40301 0.09893 0.0
H638 H 0.36395 0.39711 0.06626 0.0
H639 H 0.30418 0.35771 1.00045 0.0
H640 H 0.26283 0.36301 0.0329 0.0
H641 H 0.15636 0.46364 0.10391 0.0
H642 H 0.20073 0.44804 0.1171 0.0
H643 H 0.18682 0.38789 0.04582 0.0
H644 H 0.1429 0.40431 0.03188 0.0
H645 H 0.24464 0.4064 0.05471 0.0
H646 H 0.16034 0.37094 0.11393 0.0
H647 H 0.118 0.37423 0.14581 0.0
H648 H 0.17423 0.42118 0.21022 0.0
H649 H 0.21689 0.41854 0.17847 0.0
C650 C 0.29985 0.31777 0.13191 0.0
C651 C 0.31011 0.32436 0.16066 0.0
C652 C 0.28635 0.33598 0.11673 0.0
C653 C 0.28324 0.36112 0.13 0.0
C654 C 0.29577 0.36865 0.15765 0.0
C655 C 0.30905 0.35041 0.17288 0.0
C656 C 0.26297 0.37728 0.11757 0.0
C657 C 0.23934 0.38125 0.13536 0.0
C658 C 0.26497 0.38637 0.08808 0.0
C659 C 0.2898 0.38323 0.06847 0.0
C660 C 0.31857 0.39288 0.0776 0.0
C661 C 0.34186 0.38969 0.05909 0.0
C662 C 0.33667 0.37699 0.03133 0.0
C663 C 0.30817 0.36753 1.02197 0.0
C664 C 0.2848 0.37066 0.0404 0.0
C665 C 0.16316 0.44747 0.09072 0.0
C666 C 0.14618 0.43488 0.06715 0.0
C667 C 0.18847 0.43859 0.09822 0.0
C668 C 0.19668 0.41636 0.08287 0.0
C669 C 0.18083 0.40502 0.058 0.0
C670 C 0.15575 0.41432 0.0501 0.0
C671 C 0.21937 0.40286 0.09503 0.0
C672 C 0.24306 0.39906 0.07716 0.0
C673 C 0.21734 0.39348 0.1244 0.0
C674 C 0.19176 0.39478 0.1437 0.0
C675 C 0.16365 0.38211 0.13481 0.0
C676 C 0.1396 0.38386 0.15285 0.0
C677 C 0.14342 0.39797 0.17999 0.0
C678 C 0.17131 0.4103 0.18917 0.0
C679 C 0.19543 0.40868 0.17117 0.0
H680 H 0.12477 0.39929 0.19393 0.0
H681 H 0.35474 0.37453 1.01704 0.0
H682 H 0.68181 0.30096 0.87787 0.0
H683 H 0.66054 0.25735 0.90064 0.0
H684 H 0.57501 0.27568 0.89203 0.0
H685 H 0.59632 0.31974 0.86954 0.0
H686 H 0.58148 0.25573 0.94655 0.0
H687 H 0.59923 0.22715 0.84697 0.0
H688 H 0.62881 0.22367 0.80207 0.0
H689 H 0.68606 0.18408 0.85103 0.0
H690 H 0.65703 0.18766 0.89633 0.0
H691 H 0.4998 0.12437 0.98178 0.0
H692 H 0.52213 0.16763 0.95937 0.0
H693 H 0.6052 0.14264 0.95803 0.0
H694 H 0.5824 0.09851 0.97982 0.0
H695 H 0.60101 0.16638 0.90902 0.0
H696 H 0.5857 0.19489 1.00823 0.0
H697 H 0.55942 0.20041 0.05488 0.0
H698 H 0.50084 0.24102 1.00918 0.0
H699 H 0.52661 0.23555 0.96218 0.0
C700 C 0.65844 0.29584 0.88078 0.0
C701 C 0.64092 0.31423 0.87176 0.0
C702 C 0.64621 0.27062 0.89369 0.0
C703 C 0.61597 0.26275 0.89807 0.0
C704 C 0.59836 0.28099 0.88899 0.0
C705 C 0.6106 0.3062 0.87583 0.0
C706 C 0.60293 0.23589 0.91256 0.0
C707 C 0.58541 0.23617 0.93802 0.0
C708 C 0.60872 0.21019 0.90234 0.0
C709 C 0.62611 0.2079 0.8751 0.0
C710 C 0.61825 0.21788 0.84821 0.0
C711 C 0.63489 0.21586 0.82268 0.0
C712 C 0.65934 0.20372 0.82371 0.0
C713 C 0.66714 0.19351 0.85027 0.0
C714 C 0.65058 0.1955 0.87587 0.0
C715 C 0.5229 0.12802 0.97691 0.0
C716 C 0.53923 0.10775 0.98276 0.0
C717 C 0.5358 0.15309 0.96417 0.0
C718 C 0.56571 0.15913 0.95721 0.0
C719 C 0.58215 0.13886 0.96309 0.0
C720 C 0.56912 0.11356 0.97571 0.0
C721 C 0.57937 0.1861 0.94308 0.0
C722 C 0.59702 0.18588 0.91765 0.0
C723 C 0.57401 0.21193 0.95357 0.0
C724 C 0.55799 0.21465 0.98164 0.0
C725 C 0.56708 0.20482 1.00808 0.0
C726 C 0.55236 0.20805 0.03461 0.0
C727 C 0.52859 0.22121 0.03501 0.0
C728 C 0.51936 0.23099 1.00885 0.0
C729 C 0.53403 0.22784 0.98227 0.0
H730 H 0.5172 0.22365 0.05557 0.0
H731 H 0.6722 0.20218 0.80392 0.0
H732 H 0.84561 0.76712 0.38023 0.0
H733 H 0.86661 0.81056 0.40462 0.0
H734 H 0.95256 0.79426 0.38918 0.0
H735 H 0.93162 0.75008 0.36538 0.0
H736 H 0.899 0.82253 0.45407 0.0
H737 H 0.99945 0.85701 0.37944 0.0
H738 H 0.01539 0.85111 0.32792 0.0
H739 H 0.92673 0.83719 0.29951 0.0
H740 H 0.91032 0.84336 0.35077 0.0
H741 H 0.99388 0.93656 0.52234 0.0
H742 H 0.97415 0.89279 0.49749 0.0
H743 H 0.94704 0.93612 0.42489 0.0
H744 H 0.96711 0.98006 0.44949 0.0
H745 H 0.9705 0.89446 0.40404 0.0
H746 H 0.89819 0.90421 0.47829 0.0
H747 H 0.8814 0.91175 0.52916 0.0
H748 H 0.91012 0.83942 0.5569 0.0
H749 H 0.9274 0.83161 0.50626 0.0
C750 C 0.86901 0.77243 0.3822 0.0
C751 C 0.88674 0.75454 0.37089 0.0
C752 C 0.88103 0.79752 0.39619 0.0
C753 C 0.91125 0.80595 0.39899 0.0
C754 C 0.92917 0.78849 0.38725 0.0
C755 C 0.91711 0.76318 0.3734 0.0
C756 C 0.92372 0.83297 0.41406 0.0
C757 C 0.91473 0.83817 0.44311 0.0
C758 C 0.94404 0.85377 0.39993 0.0
C759 C 0.95367 0.85035 0.36898 0.0
C760 C 0.98338 0.85278 0.36217 0.0
C761 C 0.99249 0.84937 0.33302 0.0
C762 C 0.97208 0.84368 0.31047 0.0
C763 C 0.94251 0.84148 0.31701 0.0
C764 C 0.9333 0.8449 0.34611 0.0
C765 C 0.9837 0.93688 0.5011 0.0
C766 C 0.9821 0.96207 0.48807 0.0
C767 C 0.97227 0.9117 0.48689 0.0
C768 C 0.95872 0.91086 0.45928 0.0
C769 C 0.95731 0.93599 0.44612 0.0
C770 C 0.96872 0.96121 0.46033 0.0
C771 C 0.94604 0.88392 0.44416 0.0
C772 C 0.95493 0.87876 0.4151 0.0
C773 C 0.92546 0.86323 0.45823 0.0
C774 C 0.91431 0.86746 0.48851 0.0
C775 C 0.90103 0.88997 0.49526 0.0
C776 C 0.89142 0.89429 0.52405 0.0
C777 C 0.89479 0.87613 0.54627 0.0
C778 C 0.90757 0.85349 0.53968 0.0
C779 C 0.91723 0.84909 0.51092 0.0
H780 H 0.88746 0.87957 0.56858 0.0
H781 H 0.97917 0.84103 0.28793 0.0
H782 H 0.2988 0.82206 0.52696 0.0
H783 H 0.32237 0.79425 0.49264 0.0
H784 H 0.40427 0.82321 0.53584 0.0
H785 H 0.3811 0.85167 0.56951 0.0
H786 H 0.41176 0.81232 0.47614 0.0
H787 H 0.35778 0.76815 0.56222 0.0
H788 H 0.31289 0.75429 0.59177 0.0
H789 H 0.27037 0.71099 0.51645 0.0
H790 H 0.31499 0.72494 0.48637 0.0
H791 H 0.48704 0.71956 0.53061 0.0
H792 H 0.46144 0.75355 0.51188 0.0
H793 H 0.40244 0.68976 0.46512 0.0
H794 H 0.42827 0.65542 0.48388 0.0
H795 H 0.37447 0.71547 0.5031 0.0
H796 H 0.44266 0.74333 0.42946 0.0
H797 H 0.48926 0.75703 0.40319 0.0
H798 H 0.5092 0.83025 0.45727 0.0
H799 H 0.46277 0.81697 0.48408 0.0
C800 C 0.32202 0.82319 0.5285 0.0
C801 C 0.33803 0.83855 0.55132 0.0
C802 C 0.33543 0.80731 0.50886 0.0
C803 C 0.36495 0.80641 0.51196 0.0
C804 C 0.38145 0.82361 0.53304 0.0
C805 C 0.36811 0.83953 0.55258 0.0
C806 C 0.37756 0.78422 0.49772 0.0
C807 C 0.40374 0.79104 0.48171 0.0
C808 C 0.36619 0.75638 0.50395 0.0
C809 C 0.33949 0.74787 0.522 0.0
C810 C 0.33878 0.75581 0.55195 0.0
C811 C 0.31341 0.74794 0.56878 0.0
C812 C 0.28876 0.73185 0.55596 0.0
C813 C 0.28946 0.72353 0.52631 0.0
C814 C 0.31476 0.73142 0.50936 0.0
C815 C 0.46932 0.71284 0.51544 0.0
C816 C 0.45929 0.68481 0.50916 0.0
C817 C 0.45475 0.73236 0.50455 0.0
C818 C 0.43 0.72423 0.48703 0.0
C819 C 0.42148 0.69647 0.4786 0.0
C820 C 0.43606 0.67688 0.48956 0.0
C821 C 0.41012 0.74367 0.48336 0.0
C822 C 0.38228 0.73639 0.49605 0.0
C823 C 0.42037 0.77105 0.47443 0.0
C824 C 0.44876 0.77922 0.45862 0.0
C825 C 0.45683 0.76241 0.43576 0.0
C826 C 0.48333 0.77009 0.42078 0.0
C827 C 0.50215 0.79456 0.42847 0.0
C828 C 0.49452 0.81136 0.45122 0.0
C829 C 0.468 0.80379 0.46625 0.0
H830 H 0.52268 0.80047 0.41687 0.0
H831 H 0.26914 0.72576 0.56903 0.0
H832 H 0.73951 0.76484 0.75928 0.0
H833 H 0.77362 0.78294 0.71985 0.0
H834 H 0.7645 0.86536 0.74392 0.0
H835 H 0.73138 0.84771 0.78407 0.0
H836 H 0.77205 0.85435 0.67978 0.0
H837 H 0.81398 0.84565 0.77609 0.0
H838 H 0.82014 0.81892 0.81986 0.0
H839 H 0.85486 0.76094 0.76514 0.0
H840 H 0.84821 0.78711 0.72087 0.0
H841 H 0.9018 0.94495 0.64738 0.0
H842 H 0.85801 0.91738 0.66887 0.0
H843 H 0.89484 0.84451 0.65728 0.0
H844 H 0.93959 0.87265 0.63711 0.0
H845 H 0.87103 0.84417 0.70871 0.0
H846 H 0.83764 0.85856 0.61257 0.0
H847 H 0.83137 0.88614 0.56941 0.0
H848 H 0.78109 0.9331 0.62223 0.0
H849 H 0.78728 0.906 0.66581 0.0
C850 C 0.74439 0.7868 0.75591 0.0
C851 C 0.73309 0.80483 0.77522 0.0
C852 C 0.76365 0.79705 0.73319 0.0
C853 C 0.77166 0.82546 0.72921 0.0
C854 C 0.75838 0.84335 0.74658 0.0
C855 C 0.73939 0.83316 0.76954 0.0
C856 C 0.79723 0.83676 0.71069 0.0
C857 C 0.79373 0.85216 0.68592 0.0
C858 C 0.82535 0.83336 0.71855 0.0
C859 C 0.83029 0.81813 0.74517 0.0
C860 C 0.82275 0.8271 0.77338 0.0
C861 C 0.82633 0.81205 0.79828 0.0
C862 C 0.83783 0.78818 0.79531 0.0
C863 C 0.84589 0.7794 0.76741 0.0
C864 C 0.8422 0.79432 0.74239 0.0
C865 C 0.90039 0.923 0.64925 0.0
C866 C 0.92382 0.91078 0.64054 0.0
C867 C 0.87529 0.9072 0.66129 0.0
C868 C 0.87273 0.87869 0.664 0.0
C869 C 0.89621 0.86642 0.6552 0.0
C870 C 0.92169 0.88241 0.64371 0.0
C871 C 0.84617 0.8622 0.67764 0.0
C872 C 0.84942 0.84587 0.70179 0.0
C873 C 0.81786 0.86467 0.669 0.0
C874 C 0.813 0.88026 0.64252 0.0
C875 C 0.82525 0.87477 0.61501 0.0
C876 C 0.82174 0.89034 0.59047 0.0
C877 C 0.80588 0.91138 0.59309 0.0
C878 C 0.79333 0.91676 0.62022 0.0
C879 C 0.79676 0.90125 0.64484 0.0
H880 H 0.80332 0.92351 0.57411 0.0
H881 H 0.84057 0.77653 0.81462 0.0
H882 H 0.71522 0.14296 0.41276 0.0
H883 H 0.70292 0.13359 0.36096 0.0
H884 H 0.6117 0.12276 0.38328 0.0
H885 H 0.62386 0.1312 0.43553 0.0
H886 H 0.62215 0.08291 0.34605 0.0
H887 H 0.64664 0.1809 0.35005 0.0
H888 H 0.67652 0.22641 0.36163 0.0
H889 H 0.74503 0.20806 0.30534 0.0
H890 H 0.71572 0.16225 0.29374 0.0
H891 H 0.57621 0.08465 0.19761 0.0
H892 H 0.58584 0.09687 0.24952 0.0
H893 H 0.67781 0.10403 0.23314 0.0
H894 H 0.66835 0.09137 0.18117 0.0
H895 H 0.665 0.1469 0.26739 0.0
H896 H 0.64073 0.04807 0.26527 0.0
H897 H 0.61034 1.00282 0.25357 0.0
H898 H 0.54058 1.02349 0.3064 0.0
H899 H 0.57044 0.06904 0.31809 0.0
C900 C 0.69251 0.13831 0.40673 0.0
C901 C 0.67048 0.13765 0.42827 0.0
C902 C 0.68553 0.1333 0.37705 0.0
C903 C 0.65641 0.12783 0.36823 0.0
C904 C 0.63432 0.12706 0.38964 0.0
C905 C 0.64129 0.13204 0.41942 0.0
C906 C 0.64913 0.12219 0.3367 0.0
C907 C 0.63112 0.09712 0.32889 0.0
C908 C 0.66135 0.14049 0.3143 0.0
C909 C 0.67907 0.16803 0.32124 0.0
C910 C 0.66818 0.18647 0.34033 0.0
C911 C 0.68499 0.21234 0.34686 0.0
C912 C 0.71268 0.22009 0.33429 0.0
C913 C 0.72359 0.20201 0.31509 0.0
C914 C 0.70687 0.1761 0.30851 0.0
C915 C 0.59848 0.08857 0.20508 0.0
C916 C 0.62151 0.0868 0.18531 0.0
C917 C 0.60394 0.09566 0.23472 0.0
C918 C 0.6325 0.10105 0.24518 0.0
C919 C 0.65561 0.09994 0.22544 0.0
C920 C 0.65017 0.09278 0.19577 0.0
C921 C 0.63823 0.10759 0.27682 0.0
C922 C 0.65594 0.13281 0.28461 0.0
C923 C 0.62566 0.08948 0.29922 0.0
C924 C 0.60771 0.06207 0.2923 0.0
C925 C 0.61883 0.04305 0.27419 0.0
C926 C 0.60171 1.01734 0.2676 0.0
C927 C 0.57352 1.01031 0.27916 0.0
C928 C 0.56241 1.02897 0.29742 0.0
C929 C 0.57942 0.05474 0.30405 0.0
H930 H 0.5603 0.99039 0.27404 0.0
H931 H 0.72566 0.24014 0.33936 0.0
H932 H 0.35403 0.67824 0.28498 0.0
H933 H 0.37316 0.65731 0.32715 0.0
H934 H 0.45742 0.66905 0.28491 0.0
H935 H 0.43856 0.69065 0.24299 0.0
H936 H 0.43465 0.61321 0.30783 0.0
H937 H 0.44918 0.70889 0.33988 0.0
H938 H 0.432 0.75187 0.35143 0.0
H939 H 0.37371 0.71085 0.4175 0.0
H940 H 0.39013 0.66747 0.40596 0.0
H941 H 0.51384 0.56762 0.42178 0.0
H942 H 0.49634 0.59241 0.38215 0.0
H943 H 0.43079 0.6142 0.44094 0.0
H944 H 0.45013 0.59133 0.48134 0.0
H945 H 0.44242 0.65345 0.40924 0.0
H946 H 0.41992 0.55966 0.37903 0.0
H947 H 0.42784 0.51287 0.36739 0.0
H948 H 0.48933 0.54448 0.29944 0.0
H949 H 0.48204 0.59152 0.31091 0.0
C950 C 0.3767 0.67652 0.28467 0.0
C951 C 0.39467 0.68629 0.26037 0.0
C952 C 0.38767 0.66456 0.30895 0.0
C953 C 0.41687 0.66148 0.30954 0.0
C954 C 0.43485 0.67111 0.28526 0.0
C955 C 0.42405 0.68364 0.26126 0.0
C956 C 0.42841 0.64765 0.33498 0.0
C957 C 0.43677 0.62222 0.32992 0.0
C958 C 0.42991 0.65851 0.36431 0.0
C959 C 0.42056 0.68479 0.37169 0.0
C960 C 0.43245 0.70894 0.35663 0.0
C961 C 0.42283 0.73337 0.36316 0.0
C962 C 0.40148 0.73399 0.38489 0.0
C963 C 0.38999 0.71026 0.40042 0.0
C964 C 0.39949 0.68575 0.39392 0.0
C965 C 0.49561 0.5776 0.4263 0.0
C966 C 0.48322 0.57698 0.45485 0.0
C967 C 0.48527 0.59169 0.40333 0.0
C968 C 0.46123 0.60473 0.40757 0.0
C969 C 0.44913 0.60441 0.43637 0.0
C970 C 0.46014 0.59106 0.45965 0.0
C971 C 0.44907 0.61873 0.38226 0.0
C972 C 0.44046 0.64422 0.38726 0.0
C973 C 0.44614 0.60736 0.35302 0.0
C974 C 0.45066 0.57914 0.34605 0.0
C975 C 0.43528 0.55665 0.36174 0.0
C976 C 0.43964 0.53008 0.35515 0.0
C977 C 0.45914 0.52572 0.33275 0.0
C978 C 0.47427 0.5479 0.31682 0.0
C979 C 0.47002 0.57452 0.32334 0.0
H980 H 0.46248 0.50514 0.32768 0.0
H981 H 0.39414 0.75295 0.38999 0.0
H982 H 0.11036 0.39459 0.75035 0.0
H983 H 0.08946 0.41664 0.79224 0.0
H984 H 0.17366 0.43637 0.83268 0.0
H985 H 0.19478 0.41464 0.79062 0.0
H986 H 0.1264 0.41478 0.87339 0.0
H987 H 0.151 0.48558 0.80097 0.0
H988 H 0.1504 0.50506 0.75145 0.0
H989 H 0.05733 0.49369 0.756 0.0
H990 H 0.05736 0.47376 0.80541 0.0
H991 H 0.08764 0.50967 0.98358 0.0
H992 H 0.11097 0.48486 0.9455 0.0
H993 H 0.03794 0.48338 0.88832 0.0
H994 H 0.01538 0.50878 0.92573 0.0
H995 H 0.08203 0.49584 0.85637 0.0
H996 H 0.0548 0.42491 0.92647 0.0
H997 H 0.05209 0.4018 0.97431 0.0
H998 H 0.1448 0.40908 0.97343 0.0
H999 H 0.14815 0.43275 0.92584 0.0
C1000 C 0.12446 0.40348 0.7682 0.0
C1001 C 0.15436 0.40283 0.76688 0.0
C1002 C 0.11246 0.4162 0.79218 0.0
C1003 C 0.12989 0.42831 0.81583 0.0
C1004 C 0.15963 0.4272 0.81488 0.0
C1005 C 0.17175 0.41492 0.79063 0.0
C1006 C 0.11721 0.44277 0.84096 0.0
C1007 C 0.11704 0.43274 0.86979 0.0
C1008 C 0.1042 0.46578 0.83635 0.0
C1009 C 0.10417 0.47794 0.80676 0.0
C1010 C 0.13039 0.48703 0.79131 0.0
C1011 C 0.13016 0.49819 0.76328 0.0
C1012 C 0.10384 0.50055 0.75055 0.0
C1013 C 0.0777 0.49182 0.76587 0.0
C1014 C 0.07782 0.48061 0.7939 0.0
C1015 C 0.07646 0.5037 0.96301 0.0
C1016 C 0.04958 0.51121 0.95779 0.0
C1017 C 0.0898 0.48941 0.94113 0.0
C1018 C 0.07637 0.48188 0.91363 0.0
C1019 C 0.04916 0.48893 0.90895 0.0
C1020 C 0.03611 0.50342 0.93055 0.0
C1021 C 0.09071 0.46775 0.88918 0.0
C1022 C 0.09133 0.47789 0.8603 0.0
C1023 C 0.1036 0.44452 0.89374 0.0
C1024 C 0.10175 0.43087 0.92271 0.0
C1025 C 0.07465 0.42186 0.93661 0.0
C1026 C 0.07298 0.40857 0.96365 0.0
C1027 C 0.09824 0.40389 0.97684 0.0
C1028 C 0.12524 0.41265 0.96313 0.0
C1029 C 0.12704 0.42604 0.93615 0.0
H1030 H 0.09688 0.39354 0.99774 0.0
H1031 H 0.1037 0.50919 0.72885 0.0
H1032 H 0.63622 0.81393 0.81945 0.0
H1033 H 0.60683 0.8455 0.84058 0.0
H1034 H 0.65722 0.85328 0.92025 0.0
H1035 H 0.68648 0.82177 0.89939 0.0
H1036 H 0.60098 0.85234 0.93305 0.0
H1037 H 0.67329 0.89977 0.86524 0.0
H1038 H 0.69832 0.90724 0.81698 0.0
H1039 H 0.61865 0.91688 0.77692 0.0
H1040 H 0.59304 0.90902 0.8249 0.0
H1041 H 0.59647 0.9839 0.99108 0.0
H1042 H 0.61409 0.94673 0.96486 0.0
H1043 H 0.54455 0.94005 0.90242 0.0
H1044 H 0.52628 0.97703 0.92886 0.0
H1045 H 0.60375 0.93823 0.87807 0.0
H1046 H 0.5329 0.89567 0.9484 0.0
H1047 H 0.50943 0.88953 0.99751 0.0
H1048 H 0.58768 0.87182 0.03362 0.0
H1049 H 0.61182 0.87839 0.98481 0.0
C1050 C 0.64078 0.82215 0.8416 0.0
C1051 C 0.66377 0.81549 0.85769 0.0
C1052 C 0.62399 0.84016 0.85364 0.0
C1053 C 0.63015 0.85207 0.88181 0.0
C1054 C 0.65206 0.84431 0.89849 0.0
C1055 C 0.66873 0.82622 0.88655 0.0
C1056 C 0.61536 0.87409 0.89322 0.0
C1057 C 0.60166 0.87113 0.92106 0.0
C1058 C 0.61575 0.89844 0.87732 0.0
C1059 C 0.63119 0.90349 0.84856 0.0
C1060 C 0.66107 0.90329 0.84609 0.0
C1061 C 0.67537 0.90761 0.8188 0.0
C1062 C 0.66007 0.91245 0.79388 0.0
C1063 C 0.63046 0.91307 0.79623 0.0
C1064 C 0.61604 0.90868 0.82346 0.0
C1065 C 0.58513 0.97488 0.97151 0.0
C1066 C 0.55992 0.98337 0.9621 0.0
C1067 C 0.59516 0.95355 0.95667 0.0
C1068 C 0.5804 0.94056 0.93197 0.0
C1069 C 0.55612 0.94984 0.92153 0.0
C1070 C 0.54576 0.97094 0.93666 0.0
C1071 C 0.58989 0.91655 0.91798 0.0
C1072 C 0.60264 0.91921 0.88977 0.0
C1073 C 0.58878 0.89201 0.93359 0.0
C1074 C 0.57427 0.88778 0.96297 0.0
C1075 C 0.5452 0.89072 0.96686 0.0
C1076 C 0.53175 0.88712 0.99464 0.0
C1077 C 0.54707 0.88033 1.01869 0.0
C1078 C 0.57585 0.8771 1.01498 0.0
C1079 C 0.58942 0.88074 0.98725 0.0
H1080 H 0.53661 0.87753 0.04017 0.0
H1081 H 0.67117 0.9158 0.77277 0.0
H1082 H 0.75757 0.16768 0.52976 0.0
H1083 H 0.80158 0.15091 0.5423 0.0
H1084 H 0.76269 0.07 0.50953 0.0
H1085 H 0.71848 0.08645 0.49766 0.0
H1086 H 0.79407 0.06689 0.5581 0.0
H1087 H 0.80651 0.11332 0.46559 0.0
H1088 H 0.80694 0.15197 0.43224 0.0
H1089 H 0.87303 0.20259 0.48443 0.0
H1090 H 0.87266 0.16433 0.51837 0.0
H1091 H 0.94667 0.04948 0.5011 0.0
H1092 H 0.90028 0.06424 0.49429 0.0
H1093 H 0.89371 0.07851 0.58824 0.0
H1094 H 0.93999 0.06388 0.59516 0.0
H1095 H 0.8846 0.11358 0.50807 0.0
H1096 H 0.82112 0.05833 0.60771 0.0
H1097 H 0.81933 1.01634 0.63637 0.0
H1098 H 0.85371 0.97752 0.56192 0.0
H1099 H 0.85535 1.01912 0.53269 0.0
C1100 C 0.75818 0.14617 0.52593 0.0
C1101 C 0.73478 0.1284 0.51249 0.0
C1102 C 0.78337 0.13668 0.53287 0.0
C1103 C 0.7855 0.10934 0.52638 0.0
C1104 C 0.76151 0.0912 0.5146 0.0
C1105 C 0.73638 0.10066 0.50765 0.0
C1106 C 0.81334 0.10002 0.52983 0.0
C1107 C 0.81392 0.07719 0.54735 0.0
C1108 C 0.839 0.11304 0.51511 0.0
C1109 C 0.83932 0.13606 0.4947 0.0
C1110 C 0.82096 0.13276 0.47009 0.0
C1111 C 0.82122 0.15459 0.45106 0.0
C1112 C 0.83994 0.17975 0.45626 0.0
C1113 C 0.8585 0.18311 0.48046 0.0
C1114 C 0.85828 0.16136 0.4996 0.0
C1115 C 0.93527 0.05578 0.52024 0.0
C1116 C 0.9467 0.05545 0.54864 0.0
C1117 C 0.9089 0.06425 0.51634 0.0
C1118 C 0.89353 0.07218 0.54081 0.0
C1119 C 0.90511 0.07213 0.56915 0.0
C1120 C 0.93154 0.06387 0.57304 0.0
C1121 C 0.86545 0.08076 0.53675 0.0
C1122 C 0.86482 0.10344 0.51906 0.0
C1123 C 0.83962 0.06717 0.55075 0.0
C1124 C 0.83866 0.042 0.56814 0.0
C1125 C 0.82824 0.04082 0.59743 0.0
C1126 C 0.82726 1.01708 0.61378 0.0
C1127 C 0.83651 0.99431 0.60101 0.0
C1128 C 0.84669 0.99521 0.57183 0.0
C1129 C 0.8477 1.01889 0.55539 0.0
H1130 H 0.83573 0.97596 0.61369 0.0
H1131 H 0.84013 0.19662 0.44149 0.0
H1132 H 0.32821 0.69394 0.13749 0.0
H1133 H 0.28263 0.67171 0.11483 0.0
H1134 H 0.25174 0.63677 0.19816 0.0
H1135 H 0.29654 0.66047 0.22184 0.0
H1136 H 0.24818 0.60017 0.13525 0.0
H1137 H 0.22022 0.67829 0.18903 0.0
H1138 H 0.22729 0.72769 0.20185 0.0
H1139 H 0.22194 0.74648 0.11029 0.0
H1140 H 0.2153 0.69718 0.09691 0.0
H1141 H 0.10217 0.54319 0.09819 0.0
H1142 H 0.14741 0.56441 0.12218 0.0
H1143 H 0.15514 0.63417 0.06547 0.0
H1144 H 0.10897 0.61348 0.0423 0.0
H1145 H 0.17177 0.65351 0.11504 0.0
H1146 H 0.19875 0.58109 0.05837 0.0
H1147 H 0.19714 0.53414 0.0386 0.0
H1148 H 0.20992 0.50635 0.12557 0.0
H1149 H 0.21127 0.55314 0.14597 0.0
C1150 C 0.31171 0.68205 0.15144 0.0
C1151 C 0.31649 0.67963 0.18194 0.0
C1152 C 0.28561 0.669 0.13817 0.0
C1153 C 0.26361 0.65255 0.15469 0.0
C1154 C 0.26839 0.64929 0.18485 0.0
C1155 C 0.29429 0.66282 0.19836 0.0
C1156 C 0.23551 0.63934 0.14044 0.0
C1157 C 0.23119 0.61163 0.1313 0.0
C1158 C 0.21391 0.65456 0.13388 0.0
C1159 C 0.21761 0.68411 0.14196 0.0
C1160 C 0.22085 0.69298 0.17162 0.0
C1161 C 0.22471 0.72095 0.17899 0.0
C1162 C 0.22515 0.74022 0.15689 0.0
C1163 C 0.22164 0.73154 0.12738 0.0
C1164 C 0.21781 0.70359 0.1199 0.0
C1165 C 0.11348 0.56302 0.09066 0.0
C1166 C 0.10173 0.57646 0.06807 0.0
C1167 C 0.13967 0.57515 0.10436 0.0
C1168 C 0.15548 0.60087 0.0955 0.0
C1169 C 0.1437 0.61437 0.07296 0.0
C1170 C 0.1172 0.60242 0.05955 0.0
C1171 C 0.1838 0.61383 0.11009 0.0
C1172 C 0.18842 0.64169 0.11911 0.0
C1173 C 0.20607 0.59887 0.11573 0.0
C1174 C 0.20484 0.57059 0.10374 0.0
C1175 C 0.20095 0.56493 0.07334 0.0
C1176 C 0.20015 0.53837 0.06201 0.0
C1177 C 0.20342 0.5173 0.08082 0.0
C1178 C 0.2074 0.52272 0.11103 0.0
C1179 C 0.20822 0.54927 0.1225 0.0
H1180 H 0.20303 0.49683 0.07191 0.0
H1181 H 0.22814 0.76187 0.16264 0.0
H1182 H 0.25601 0.42221 0.72757 0.0
H1183 H 0.30069 0.44415 0.70197 0.0
H1184 H 0.26279 0.4146 0.6184 0.0
H1185 H 0.2183 0.39276 0.64372 0.0
H1186 H 0.31604 0.40614 0.61938 0.0
H1187 H 0.27191 0.48385 0.64287 0.0
H1188 H 0.25052 0.51521 0.67557 0.0
H1189 H 0.33003 0.53515 0.72406 0.0
H1190 H 0.35178 0.50361 0.69186 0.0
H1191 H 0.41406 0.4849 0.51987 0.0
H1192 H 0.37089 0.46668 0.54953 0.0
H1193 H 0.41744 0.49575 0.62898 0.0
H1194 H 0.46082 0.51432 0.59919 0.0
H1195 H 0.36194 0.50439 0.63265 0.0
H1196 H 0.40657 0.42796 0.60818 0.0
H1197 H 0.42814 0.39683 0.57534 0.0
H1198 H 0.3476 0.37436 0.52893 0.0
H1199 H 0.32567 0.40569 0.56123 0.0
C1200 C 0.25703 0.42062 0.70372 0.0
C1201 C 0.23337 0.40545 0.68788 0.0
C1202 C 0.28271 0.43322 0.68902 0.0
C1203 C 0.28536 0.43128 0.65804 0.0
C1204 C 0.26164 0.41638 0.64225 0.0
C1205 C 0.23609 0.40376 0.65687 0.0
C1206 C 0.31282 0.44412 0.64191 0.0
C1207 C 0.32577 0.42772 0.6221 0.0
C1208 C 0.32636 0.47213 0.64584 0.0
C1209 C 0.31335 0.49114 0.66516 0.0
C1210 C 0.28475 0.49475 0.66065 0.0
C1211 C 0.27258 0.51259 0.67907 0.0
C1212 C 0.28887 0.5271 0.70193 0.0
C1213 C 0.31741 0.52386 0.70637 0.0
C1214 C 0.32968 0.50602 0.68803 0.0
C1215 C 0.41513 0.48757 0.54365 0.0
C1216 C 0.44104 0.50094 0.55711 0.0
C1217 C 0.39038 0.477 0.56066 0.0
C1218 C 0.39081 0.47934 0.59169 0.0
C1219 C 0.41641 0.49351 0.60516 0.0
C1220 C 0.44126 0.50409 0.58809 0.0
C1221 C 0.36476 0.46647 0.60984 0.0
C1222 C 0.35217 0.4828 0.63004 0.0
C1223 C 0.35151 0.43836 0.60631 0.0
C1224 C 0.36456 0.41936 0.58696 0.0
C1225 C 0.39352 0.41653 0.59084 0.0
C1226 C 0.4058 0.39883 0.57234 0.0
C1227 C 0.38927 0.38368 0.55002 0.0
C1228 C 0.36039 0.38614 0.54621 0.0
C1229 C 0.34802 0.40385 0.56462 0.0
H1230 H 0.39882 0.36998 0.53572 0.0
H1231 H 0.27941 0.5409 0.71616 0.0
H1232 H 0.73115 0.77301 0.90661 0.0
H1233 H 0.76036 0.7466 0.934 0.0
H1234 H 0.76664 0.6956 0.8567 0.0
H1235 H 0.73625 0.72106 0.82956 0.0
H1236 H 0.76303 0.66566 0.90541 0.0
H1237 H 0.82014 0.75168 0.87265 0.0
H1238 H 0.83253 0.80203 0.86809 0.0
H1239 H 0.83788 0.81153 0.96238 0.0
H1240 H 0.82531 0.76119 0.96753 0.0
H1241 H 0.90166 0.62942 0.92395 0.0
H1242 H 0.85878 0.64628 0.9079 0.0
H1243 H 0.85468 0.68768 0.9922 0.0
H1244 H 0.89757 0.67086 1.00833 0.0
H1245 H 0.85432 0.72152 0.94491 0.0
H1246 H 0.80388 0.63382 0.97617 0.0
H1247 H 0.79237 0.58334 0.97929 0.0
H1248 H 0.77578 0.57644 0.88623 0.0
H1249 H 0.78768 0.62689 0.88242 0.0
C1250 C 0.73799 0.75567 0.89566 0.0
C1251 C 0.73162 0.74934 0.86576 0.0
C1252 C 0.75497 0.74077 0.91128 0.0
C1253 C 0.76622 0.71952 0.8972 0.0
C1254 C 0.75837 0.71204 0.86796 0.0
C1255 C 0.74121 0.72677 0.8524 0.0
C1256 C 0.78798 0.70656 0.91201 0.0
C1257 C 0.78308 0.67782 0.91389 0.0
C1258 C 0.81392 0.72248 0.92356 0.0
C1259 C 0.82146 0.75272 0.92049 0.0
C1260 C 0.82375 0.76452 0.89241 0.0
C1261 C 0.83083 0.79304 0.88972 0.0
C1262 C 0.83585 0.80997 0.91491 0.0
C1263 C 0.83392 0.7984 0.94288 0.0
C1264 C 0.82685 0.76987 0.94571 0.0
C1265 C 0.89145 0.64197 0.93908 0.0
C1266 C 0.90296 0.649 0.96729 0.0
C1267 C 0.86686 0.65138 0.93001 0.0
C1268 C 0.85349 0.6681 0.94894 0.0
C1269 C 0.86462 0.6747 0.97733 0.0
C1270 C 0.88902 0.66504 0.98653 0.0
C1271 C 0.8295 0.68059 0.93815 0.0
C1272 C 0.83409 0.70931 0.93685 0.0
C1273 C 0.8035 0.66459 0.9269 0.0
C1274 C 0.79688 0.63419 0.92898 0.0
C1275 C 0.79808 0.62155 0.9563 0.0
C1276 C 0.7914 0.59294 0.95821 0.0
C1277 C 0.78326 0.57671 0.933 0.0
C1278 C 0.78198 0.58905 0.90577 0.0
C1279 C 0.7887 0.61766 0.90372 0.0
H1280 H 0.77797 0.55457 0.93455 0.0
H1281 H 0.84134 0.83206 0.91276 0.0
H1282 H 0.39077 0.74701 0.13759 0.0
H1283 H 0.41106 0.79073 0.11484 0.0
H1284 H 0.43542 0.82654 0.20054 0.0
H1285 H 0.41417 0.78279 0.22367 0.0
H1286 H 0.41231 0.86163 0.17003 0.0
H1287 H 0.48588 0.8093 0.1476 0.0
H1288 H 0.50598 0.77002 0.12813 0.0
H1289 H 0.47674 0.78322 0.04126 0.0
H1290 H 0.45607 0.82234 0.06029 0.0
H1291 H 0.50065 0.98496 0.11904 0.0
H1292 H 0.48146 0.94065 0.14114 0.0
H1293 H 0.45999 0.90501 0.0547 0.0
H1294 H 0.4801 0.94953 0.03232 0.0
H1295 H 0.48142 0.8697 0.08526 0.0
H1296 H 0.40717 0.92113 0.10714 0.0
H1297 H 0.38687 0.96053 0.12597 0.0
H1298 H 0.41669 0.94888 0.21302 0.0
H1299 H 0.43751 0.90962 0.19463 0.0
C1300 C 0.40035 0.76412 0.15178 0.0
C1301 C 0.4005 0.76105 0.18271 0.0
C1302 C 0.41233 0.78925 0.13858 0.0
C1303 C 0.42522 0.8123 0.1557 0.0
C1304 C 0.42574 0.80928 0.18658 0.0
C1305 C 0.41375 0.78404 0.19986 0.0
C1306 C 0.43726 0.83957 0.14146 0.0
C1307 C 0.42778 0.86335 0.1518 0.0
C1308 C 0.45683 0.84217 0.11692 0.0
C1309 C 0.46914 0.81858 0.10546 0.0
C1310 C 0.4835 0.80368 0.1244 0.0
C1311 C 0.49504 0.78147 0.11343 0.0
C1312 C 0.49256 0.77408 0.0835 0.0
C1313 C 0.4786 0.78893 0.06445 0.0
C1314 C 0.46698 0.81114 0.07532 0.0
C1315 C 0.49168 0.96779 0.10463 0.0
C1316 C 0.49184 0.97105 0.0738 0.0
C1317 C 0.48049 0.94229 0.1174 0.0
C1318 C 0.46859 0.91914 0.09989 0.0
C1319 C 0.46882 0.92232 0.06897 0.0
C1320 C 0.48021 0.94792 0.05612 0.0
C1321 C 0.4565 0.89175 0.11387 0.0
C1322 C 0.46594 0.86797 0.10349 0.0
C1323 C 0.43678 0.8891 0.13828 0.0
C1324 C 0.42413 0.91259 0.14945 0.0
C1325 C 0.40957 0.92709 0.13026 0.0
C1326 C 0.39794 0.94938 0.14086 0.0
C1327 C 0.40055 0.95724 0.17066 0.0
C1328 C 0.41472 0.94278 0.18994 0.0
C1329 C 0.42641 0.92049 0.17945 0.0
H1330 H 0.39155 0.97451 0.17882 0.0
H1331 H 0.50152 0.75689 0.07505 0.0
H1332 H 0.18916 0.30463 0.70234 0.0
H1333 H 0.16838 0.25989 0.68012 0.0
H1334 H 0.09128 0.29004 0.65788 0.0
H1335 H 0.11153 0.33437 0.68191 0.0
H1336 H 0.07413 0.24067 0.67053 0.0
H1337 H 0.15033 0.28227 0.60612 0.0
H1338 H 0.1998 0.30512 0.59134 0.0
H1339 H 0.2333 0.23501 0.61812 0.0
H1340 H 0.18407 0.21188 0.63346 0.0
H1341 H 0.03213 0.13771 0.55561 0.0
H1342 H 0.0512 0.18153 0.58101 0.0
H1343 H 0.1098 0.14288 0.62978 0.0
H1344 H 0.09029 0.09874 0.60498 0.0
H1345 H 0.13565 0.1961 0.60253 0.0
H1346 H 0.0551 0.15518 0.66539 0.0
H1347 H 1.00389 0.13393 0.67515 0.0
H1348 H 0.97673 0.20593 0.64406 0.0
H1349 H 0.02779 0.22745 0.6337 0.0
C1350 C 0.16765 0.3016 0.69294 0.0
C1351 C 0.15204 0.32309 0.69384 0.0
C1352 C 0.15583 0.27601 0.67987 0.0
C1353 C 0.12842 0.27141 0.66628 0.0
C1354 C 0.11247 0.29275 0.66792 0.0
C1355 C 0.12405 0.31819 0.68169 0.0
C1356 C 0.11664 0.24456 0.65032 0.0
C1357 C 0.08764 0.23127 0.6554 0.0
C1358 C 0.13392 0.23167 0.63049 0.0
C1359 C 0.16355 0.24546 0.62122 0.0
C1360 C 0.16828 0.2718 0.60905 0.0
C1361 C 0.19627 0.2848 0.60055 0.0
C1362 C 0.21969 0.27156 0.60386 0.0
C1363 C 0.21515 0.24526 0.61561 0.0
C1364 C 0.1872 0.23218 0.62419 0.0
C1365 C 0.04909 0.13846 0.57173 0.0
C1366 C 0.05961 0.11455 0.57821 0.0
C1367 C 0.05994 0.16359 0.58632 0.0
C1368 C 0.08195 0.16563 0.60743 0.0
C1369 C 0.09284 0.14191 0.61362 0.0
C1370 C 0.08158 0.11663 0.59946 0.0
C1371 C 0.0935 0.19245 0.62303 0.0
C1372 C 0.12235 0.20568 0.61774 0.0
C1373 C 0.0759 0.20561 0.64198 0.0
C1374 C 0.04524 0.19281 0.6485 0.0
C1375 C 0.03819 0.16639 0.6604 0.0
C1376 C 1.0092 0.15431 0.66609 0.0
C1377 C 0.98706 0.16854 0.66016 0.0
C1378 C 0.99389 0.19492 0.64861 0.0
C1379 C 0.02286 0.20707 0.64285 0.0
H1380 H 0.96462 0.15916 0.66457 0.0
H1381 H 0.24134 0.28165 0.59726 0.0
H1382 H 0.69995 0.2179 0.52699 0.0
H1383 H 0.67618 0.25508 0.54439 0.0
H1384 H 0.59282 0.19984 0.54074 0.0
H1385 H 0.61661 0.16308 0.52194 0.0
H1386 H 0.59073 0.24094 0.50997 0.0
H1387 H 0.62369 0.23246 0.60687 0.0
H1388 H 0.65743 0.22867 0.64701 0.0
H1389 H 0.70717 0.30848 0.62728 0.0
H1390 H 0.67414 0.31255 0.58659 0.0
H1391 H 0.52422 0.35475 0.53546 0.0
H1392 H 0.53999 0.31278 0.55006 0.0
H1393 H 0.62936 0.3517 0.5347 0.0
H1394 H 0.61378 0.39378 0.52043 0.0
H1395 H 0.62136 0.31591 0.5838 0.0
H1396 H 0.59461 0.31733 0.48024 0.0
H1397 H 0.56068 0.32167 0.44037 0.0
H1398 H 0.49878 0.25407 0.47493 0.0
H1399 H 0.53224 0.24962 0.51528 0.0
C1400 C 0.67666 0.2136 0.53081 0.0
C1401 C 0.65998 0.18786 0.52306 0.0
C1402 C 0.66306 0.23478 0.54093 0.0
C1403 C 0.63263 0.23031 0.54401 0.0
C1404 C 0.61628 0.20384 0.53847 0.0
C1405 C 0.62982 0.18286 0.52779 0.0
C1406 C 0.61773 0.25399 0.54785 0.0
C1407 C 0.59692 0.25684 0.52677 0.0
C1408 C 0.62618 0.27523 0.56925 0.0
C1409 C 0.64648 0.2727 0.59344 0.0
C1410 C 0.642 0.24909 0.61083 0.0
C1411 C 0.66099 0.24691 0.63374 0.0
C1412 C 0.68447 0.26829 0.63965 0.0
C1413 C 0.68901 0.29191 0.62266 0.0
C1414 C 0.67014 0.29416 0.59966 0.0
C1415 C 0.54725 0.35454 0.53588 0.0
C1416 C 0.56778 0.37729 0.52636 0.0
C1417 C 0.55621 0.33061 0.54423 0.0
C1418 C 0.58579 0.32916 0.54321 0.0
C1419 C 0.60644 0.35248 0.53566 0.0
C1420 C 0.5975 0.37633 0.52716 0.0
C1421 C 0.59504 0.30253 0.54582 0.0
C1422 C 0.6148 0.29937 0.56778 0.0
C1423 C 0.5857 0.28086 0.52533 0.0
C1424 C 0.56574 0.28337 0.50094 0.0
C1425 C 0.57367 0.30354 0.47945 0.0
C1426 C 0.55455 0.306 0.45675 0.0
C1427 C 0.52755 0.28821 0.45517 0.0
C1428 C 0.51967 0.26787 0.47623 0.0
C1429 C 0.5387 0.26537 0.49901 0.0
H1430 H 0.51278 0.29014 0.43758 0.0
H1431 H 0.69912 0.26658 0.65743 0.0
loop_
_geom_bond_atom_site_label_1
_geom_bond_atom_site_label_2
_geom_bond_distance
_geom_bond_site_symmetry_2
_ccdc_geom_bond_type
H0 C3 0.931 . S
H1 C6 0.928 . S
H2 C8 0.930 . S
C3 H0 0.931 . S
C3 C4 1.413 . S
C3 C5 1.360 . S
C4 C3 1.413 . S
C4 C8 1.429 . S
C5 C3 1.360 . S
C5 C6 1.372 . S
C6 H1 0.928 . S
C6 C5 1.372 . S
C6 C7 1.404 . S
C7 C6 1.404 . S
C7 C8 1.391 . S
C8 H2 0.930 . S
C8 C4 1.429 . S
C8 C7 1.391 . S
H9 C12 0.931 . S
H10 C15 0.928 . S
H11 C17 0.930 . S
C12 H9 0.931 . S
C12 C13 1.413 . S
C12 C14 1.360 . S
C13 C12 1.413 . S
C13 C17 1.429 . S
C14 C12 1.360 . S
C14 C15 1.372 . S
C15 H10 0.928 . S
C15 C14 1.372 . S
C15 C16 1.404 . S
C16 C15 1.404 . S
C16 C17 1.391 . S
C17 H11 0.930 . S
C17 C13 1.429 . S
C17 C16 1.391 . S
H18 C21 0.931 . S
H19 C24 0.928 . S
H20 C26 0.930 . S
C21 H18 0.931 . S
C21 C22 1.413 . S
C21 C23 1.360 . S
C22 C21 1.413 . S
C22 C26 1.429 . S
C23 C21 1.360 . S
C23 C24 1.372 . S
C24 H19 0.928 . S
C24 C23 1.372 . S
C24 C25 1.404 . S
C25 C24 1.404 . S
C25 C26 1.391 . S
C26 H20 0.930 . S
C26 C22 1.429 . S
C26 C25 1.391 . S
H27 C30 0.931 . S
H28 C33 0.928 . S
H29 C35 0.930 . S
C30 H27 0.931 . S
C30 C31 1.413 . S
C30 C32 1.360 . S
C31 C30 1.413 . S
C31 C35 1.429 . S
C32 C30 1.360 . S
C32 C33 1.372 . S
C33 H28 0.928 . S
C33 C32 1.372 . S
C33 C34 1.404 . S
C34 C33 1.404 . S
C34 C35 1.391 . S
C35 H29 0.930 . S
C35 C31 1.429 . S
C35 C34 1.391 . S
H36 C39 0.931 . S
H37 C42 0.928 . S
H38 C44 0.930 . S
C39 H36 0.931 . S
C39 C40 1.413 . S
C39 C41 1.360 . S
C40 C39 1.413 . S
C40 C44 1.429 . S
C41 C39 1.360 . S
C41 C42 1.372 . S
C42 H37 0.928 . S
C42 C41 1.372 . S
C42 C43 1.404 . S
C43 C42 1.404 . S
C43 C44 1.391 . S
C44 H38 0.930 . S
C44 C40 1.429 . S
C44 C43 1.391 . S
H45 C48 0.931 . S
H46 C51 0.928 . S
H47 C53 0.930 . S
C48 H45 0.931 . S
C48 C49 1.413 . S
C48 C50 1.360 . S
C49 C48 1.413 . S
C49 C53 1.429 . S
C50 C48 1.360 . S
C50 C51 1.372 . S
C51 H46 0.928 . S
C51 C50 1.372 . S
C51 C52 1.404 . S
C52 C51 1.404 . S
C52 C53 1.391 . S
C53 H47 0.930 . S
C53 C49 1.429 . S
C53 C52 1.391 . S
H54 C57 0.931 . S
H55 C60 0.928 . S
H56 C62 0.930 . S
C57 H54 0.931 . S
C57 C58 1.413 . S
C57 C59 1.360 . S
C58 C57 1.413 . S
C58 C62 1.429 . S
C59 C57 1.360 . S
C59 C60 1.372 . S
C60 H55 0.928 . S
C60 C59 1.372 . S
C60 C61 1.404 . S
C61 C60 1.404 . S
C61 C62 1.391 . S
C62 H56 0.930 . S
C62 C58 1.429 . S
C62 C61 1.391 . S
H63 C66 0.931 . S
H64 C69 0.928 . S
H65 C71 0.930 . S
C66 H63 0.931 . S
C66 C67 1.413 . S
C66 C68 1.360 . S
C67 C66 1.413 . S
C67 C71 1.429 . S
C68 C66 1.360 . S
C68 C69 1.372 . S
C69 H64 0.928 . S
C69 C68 1.372 . S
C69 C70 1.404 . S
C70 C69 1.404 . S
C70 C71 1.391 . S
C71 H65 0.930 . S
C71 C67 1.429 . S
C71 C70 1.391 . S
Ho72 C75 2.811 . S
Ho72 O92 2.322 . S
Ho72 O94 2.378 . S
Ho72 O95 2.524 . S
Ho72 O96 2.381 1_545 S
Ho72 O97 2.669 1_545 S
Ho72 O99 2.346 1_445 S
Ho72 O103 2.305 1_455 S
Ho73 C84 2.811 . S
Ho73 O93 2.346 1_665 S
Ho73 O97 2.305 1_655 S
Ho73 O98 2.322 . S
Ho73 O100 2.378 . S
Ho73 O101 2.524 . S
Ho73 O102 2.381 1_565 S
Ho73 O103 2.669 1_565 S
C74 O92 1.259 . S
C74 O93 1.268 . S
C75 Ho72 2.811 . S
C75 C76 1.488 . S
C75 O94 1.215 . S
C75 O95 1.289 . S
C76 C75 1.488 . S
C76 C77 1.348 . S
C76 C81 1.413 . S
C77 C76 1.348 . S
C77 C78 1.442 . S
C77 H104 0.930 . S
C78 C77 1.442 . S
C78 C79 1.381 . S
C78 H105 0.931 . S
C79 C78 1.381 . S
C79 C80 1.321 . S
C80 C79 1.321 . S
C80 C81 1.403 . S
C80 H106 0.934 . S
C81 C76 1.413 . S
C81 C80 1.403 . S
C81 H107 0.930 . S
C82 O96 1.275 . S
C82 O97 1.256 . S
C83 O98 1.259 . S
C83 O99 1.268 . S
C84 Ho73 2.811 . S
C84 C85 1.488 . S
C84 O100 1.215 . S
C84 O101 1.289 . S
C85 C84 1.488 . S
C85 C86 1.348 . S
C85 C90 1.413 . S
C86 C85 1.348 . S
C86 C87 1.442 . S
C86 H108 0.930 . S
C87 C86 1.442 . S
C87 C88 1.381 . S
C87 H109 0.931 . S
C88 C87 1.381 . S
C88 C89 1.321 . S
C89 C88 1.321 . S
C89 C90 1.403 . S
C89 H110 0.934 . S
C90 C85 1.413 . S
C90 C89 1.403 . S
C90 H111 0.930 . S
C91 O102 1.275 . S
C91 O103 1.256 . S
O92 Ho72 2.322 . S
O92 C74 1.259 . S
O93 Ho73 2.346 1_445 S
O93 C74 1.268 . S
O94 Ho72 2.378 . S
O94 C75 1.215 . S
O95 Ho72 2.524 . S
O95 C75 1.289 . S
O96 Ho72 2.381 1_565 S
O96 C82 1.275 . S
O97 Ho72 2.669 1_565 S
O97 Ho73 2.305 1_455 S
O97 C82 1.256 . S
O98 Ho73 2.322 . S
O98 C83 1.259 . S
O99 Ho72 2.346 1_665 S
O99 C83 1.268 . S
O100 Ho73 2.378 . S
O100 C84 1.215 . S
O101 Ho73 2.524 . S
O101 C84 1.289 . S
O102 Ho73 2.381 1_545 S
O102 C91 1.275 . S
O103 Ho72 2.305 1_655 S
O103 Ho73 2.669 1_545 S
O103 C91 1.256 . S
H104 C77 0.930 . S
H105 C78 0.931 . S
H106 C80 0.934 . S
H107 C81 0.930 . S
H108 C86 0.930 . S
H109 C87 0.931 . S
H110 C89 0.934 . S
H111 C90 0.930 . S
Ho112 C115 2.813 1_565 S
Ho112 O132 2.324 1_565 S
Ho112 O134 2.378 1_565 S
Ho112 O135 2.527 1_565 S
Ho112 O136 2.378 . S
Ho112 O137 2.668 . S
Ho112 O139 2.343 1_554 S
Ho112 O143 2.307 1_564 S
Ho113 C124 2.811 1_545 S
Ho113 O133 2.346 1_556 S
Ho113 O137 2.305 1_546 S
Ho113 O138 2.322 1_545 S
Ho113 O140 2.378 1_545 S
Ho113 O141 2.524 1_545 S
Ho113 O142 2.381 . S
Ho113 O143 2.669 . S
C114 O132 1.259 . S
C114 O133 1.268 . S
C115 Ho112 2.813 1_545 S
C115 C116 1.488 . S
C115 O134 1.215 . S
C115 O135 1.289 . S
C116 C115 1.488 . S
C116 C117 1.348 . S
C116 C121 1.413 . S
C117 C116 1.348 . S
C117 C118 1.442 . S
C117 H144 0.930 . S
C118 C117 1.442 . S
C118 C119 1.381 . S
C118 H145 0.931 . S
C119 C118 1.381 . S
C119 C120 1.321 . S
C120 C119 1.321 . S
C120 C121 1.403 . S
C120 H146 0.934 . S
C121 C116 1.413 . S
C121 C120 1.403 . S
C121 H147 0.930 . S
C122 O136 1.275 . S
C122 O137 1.256 . S
C123 O138 1.259 . S
C123 O139 1.268 . S
C124 Ho113 2.811 1_565 S
C124 C125 1.488 . S
C124 O140 1.215 . S
C124 O141 1.289 . S
C125 C124 1.488 . S
C125 C126 1.348 . S
C125 C130 1.413 . S
C126 C125 1.348 . S
C126 C127 1.442 . S
C126 H148 0.930 . S
C127 C126 1.442 . S
C127 C128 1.381 . S
C127 H149 0.931 . S
C128 C127 1.381 . S
C128 C129 1.321 . S
C129 C128 1.321 . S
C129 C130 1.403 . S
C129 H150 0.934 . S
C130 C125 1.413 . S
C130 C129 1.403 . S
C130 H151 0.930 . S
C131 O142 1.275 . S
C131 O143 1.256 . S
O132 Ho112 2.324 1_545 S
O132 C114 1.259 . S
O133 Ho113 2.346 1_554 S
O133 C114 1.268 . S
O134 Ho112 2.378 1_545 S
O134 C115 1.215 . S
O135 Ho112 2.527 1_545 S
O135 C115 1.289 . S
O136 Ho112 2.378 . S
O136 C122 1.275 . S
O137 Ho112 2.668 . S
O137 Ho113 2.305 1_564 S
O137 C122 1.256 . S
O138 Ho113 2.322 1_565 S
O138 C123 1.259 . S
O139 Ho112 2.343 1_556 S
O139 C123 1.268 . S
O140 Ho113 2.378 1_565 S
O140 C124 1.215 . S
O141 Ho113 2.524 1_565 S
O141 C124 1.289 . S
O142 Ho113 2.381 . S
O142 C131 1.275 . S
O143 Ho112 2.307 1_546 S
O143 Ho113 2.669 . S
O143 C131 1.256 . S
H144 C117 0.930 . S
H145 C118 0.931 . S
H146 C120 0.934 . S
H147 C121 0.930 . S
H148 C126 0.930 . S
H149 C127 0.931 . S
H150 C129 0.934 . S
H151 C130 0.930 . S
Ho152 C155 2.811 . S
Ho152 O172 2.322 . S
Ho152 O174 2.378 . S
Ho152 O175 2.524 . S
Ho152 O176 2.381 . S
Ho152 O177 2.669 . S
Ho152 O179 2.346 . S
Ho152 O183 2.305 . S
Ho153 C164 2.811 . S
Ho153 O173 2.346 . S
Ho153 O177 2.305 . S
Ho153 O178 2.322 . S
Ho153 O180 2.378 . S
Ho153 O181 2.524 . S
Ho153 O182 2.381 . S
Ho153 O183 2.669 . S
C154 O172 1.259 . S
C154 O173 1.268 . S
C155 Ho152 2.811 . S
C155 C156 1.488 . S
C155 O174 1.215 . S
C155 O175 1.289 . S
C156 C155 1.488 . S
C156 C157 1.348 . S
C156 C161 1.413 . S
C157 C156 1.348 . S
C157 C158 1.442 . S
C157 H184 0.930 . S
C158 C157 1.442 . S
C158 C159 1.381 . S
C158 H185 0.931 . S
C159 C158 1.381 . S
C159 C160 1.321 . S
C160 C159 1.321 . S
C160 C161 1.403 . S
C160 H186 0.934 . S
C161 C156 1.413 . S
C161 C160 1.403 . S
C161 H187 0.930 . S
C162 O176 1.275 . S
C162 O177 1.256 . S
C163 O178 1.259 . S
C163 O179 1.268 . S
C164 Ho153 2.811 . S
C164 C165 1.488 . S
C164 O180 1.215 . S
C164 O181 1.289 . S
C165 C164 1.488 . S
C165 C166 1.348 . S
C165 C170 1.413 . S
C166 C165 1.348 . S
C166 C167 1.442 . S
C166 H188 0.930 . S
C167 C166 1.442 . S
C167 C168 1.381 . S
C167 H189 0.931 . S
C168 C167 1.381 . S
C168 C169 1.321 . S
C169 C168 1.321 . S
C169 C170 1.403 . S
C169 H190 0.934 . S
C170 C165 1.413 . S
C170 C169 1.403 . S
C170 H191 0.930 . S
C171 O182 1.275 . S
C171 O183 1.256 . S
O172 Ho152 2.322 . S
O172 C154 1.259 . S
O173 Ho153 2.346 . S
O173 C154 1.268 . S
O174 Ho152 2.378 . S
O174 C155 1.215 . S
O175 Ho152 2.524 . S
O175 C155 1.289 . S
O176 Ho152 2.381 . S
O176 C162 1.275 . S
O177 Ho152 2.669 . S
O177 Ho153 2.305 . S
O177 C162 1.256 . S
O178 Ho153 2.322 . S
O178 C163 1.259 . S
O179 Ho152 2.346 . S
O179 C163 1.268 . S
O180 Ho153 2.378 . S
O180 C164 1.215 . S
O181 Ho153 2.524 . S
O181 C164 1.289 . S
O182 Ho153 2.381 . S
O182 C171 1.275 . S
O183 Ho152 2.305 . S
O183 Ho153 2.669 . S
O183 C171 1.256 . S
H184 C157 0.930 . S
H185 C158 0.931 . S
H186 C160 0.934 . S
H187 C161 0.930 . S
H188 C166 0.930 . S
H189 C167 0.931 . S
H190 C169 0.934 . S
H191 C170 0.930 . S
Ho192 C195 2.811 . S
Ho192 O212 2.322 . S
Ho192 O214 2.378 . S
Ho192 O215 2.524 . S
Ho192 O216 2.381 1_455 S
Ho192 O217 2.669 1_455 S
Ho192 O219 2.346 1_454 S
Ho192 O223 2.305 1_554 S
Ho193 C204 2.811 . S
Ho193 O213 2.346 1_656 S
Ho193 O217 2.305 1_556 S
Ho193 O218 2.322 . S
Ho193 O220 2.378 . S
Ho193 O221 2.524 . S
Ho193 O222 2.381 1_655 S
Ho193 O223 2.669 1_655 S
C194 O212 1.259 . S
C194 O213 1.268 . S
C195 Ho192 2.811 . S
C195 C196 1.488 . S
C195 O214 1.215 . S
C195 O215 1.289 . S
C196 C195 1.488 . S
C196 C197 1.348 . S
C196 C201 1.413 . S
C197 C196 1.348 . S
C197 C198 1.442 . S
C197 H224 0.930 . S
C198 C197 1.442 . S
C198 C199 1.381 . S
C198 H225 0.931 . S
C199 C198 1.381 . S
C199 C200 1.321 . S
C200 C199 1.321 . S
C200 C201 1.403 . S
C200 H226 0.934 . S
C201 C196 1.413 . S
C201 C200 1.403 . S
C201 H227 0.930 . S
C202 O216 1.275 . S
C202 O217 1.256 . S
C203 O218 1.259 . S
C203 O219 1.268 . S
C204 Ho193 2.811 . S
C204 C205 1.488 . S
C204 O220 1.215 . S
C204 O221 1.289 . S
C205 C204 1.488 . S
C205 C206 1.348 . S
C205 C210 1.413 . S
C206 C205 1.348 . S
C206 C207 1.442 . S
C206 H228 0.930 . S
C207 C206 1.442 . S
C207 C208 1.381 . S
C207 H229 0.931 . S
C208 C207 1.381 . S
C208 C209 1.321 . S
C209 C208 1.321 . S
C209 C210 1.403 . S
C209 H230 0.934 . S
C210 C205 1.413 . S
C210 C209 1.403 . S
C210 H231 0.930 . S
C211 O222 1.275 . S
C211 O223 1.256 . S
O212 Ho192 2.322 . S
O212 C194 1.259 . S
O213 Ho193 2.346 1_454 S
O213 C194 1.268 . S
O214 Ho192 2.378 . S
O214 C195 1.215 . S
O215 Ho192 2.524 . S
O215 C195 1.289 . S
O216 Ho192 2.381 1_655 S
O216 C202 1.275 . S
O217 Ho192 2.669 1_655 S
O217 Ho193 2.305 1_554 S
O217 C202 1.256 . S
O218 Ho193 2.322 . S
O218 C203 1.259 . S
O219 Ho192 2.346 1_656 S
O219 C203 1.268 . S
O220 Ho193 2.378 . S
O220 C204 1.215 . S
O221 Ho193 2.524 . S
O221 C204 1.289 . S
O222 Ho193 2.381 1_455 S
O222 C211 1.275 . S
O223 Ho192 2.305 1_556 S
O223 Ho193 2.669 1_455 S
O223 C211 1.256 . S
H224 C197 0.930 . S
H225 C198 0.931 . S
H226 C200 0.934 . S
H227 C201 0.930 . S
H228 C206 0.930 . S
H229 C207 0.931 . S
H230 C209 0.934 . S
H231 C210 0.930 . S
H232 C250 0.951 . S
H233 C252 0.951 . S
H234 C254 0.950 . S
H235 C255 0.950 . S
H236 C257 0.950 . S
H237 C260 0.950 . S
H238 C261 0.950 . S
H239 C263 0.950 . S
H240 C264 0.950 . S
H241 C265 0.951 . S
H242 C267 0.951 . S
H243 C269 0.950 . S
H244 C270 0.950 . S
H245 C272 0.950 . S
H246 C275 0.950 . S
H247 C276 0.950 . S
H248 C278 0.950 . S
H249 C279 0.950 . S
C250 H232 0.951 . S
C250 C251 1.366 . S
C250 C252 1.388 . S
C251 C250 1.366 . S
C251 C255 1.385 . S
C252 H233 0.951 . S
C252 C250 1.388 . S
C252 C253 1.366 . S
C253 C252 1.366 . S
C253 C254 1.414 . S
C253 C256 1.499 . S
C254 H234 0.950 . S
C254 C253 1.414 . S
C254 C255 1.374 . S
C255 H235 0.950 . S
C255 C251 1.385 . S
C255 C254 1.374 . S
C256 C253 1.499 . S
C256 C257 1.373 . S
C256 C258 1.389 . S
C257 H236 0.950 . S
C257 C256 1.373 . S
C257 C273 1.377 . S
C258 C256 1.389 . S
C258 C259 1.524 . S
C258 C272 1.377 . S
C259 C258 1.524 . S
C259 C260 1.397 . S
C259 C264 1.363 . S
C260 H237 0.950 . S
C260 C259 1.397 . S
C260 C261 1.334 . S
C261 H238 0.950 . S
C261 C260 1.334 . S
C261 C262 1.287 . S
C262 C261 1.287 . S
C262 C263 1.524 . S
C262 H281 0.913 . S
C263 H239 0.950 . S
C263 C262 1.524 . S
C263 C264 1.415 . S
C264 H240 0.950 . S
C264 C259 1.363 . S
C264 C263 1.415 . S
C265 H241 0.951 . S
C265 C266 1.366 . S
C265 C267 1.388 . S
C266 C265 1.366 . S
C266 C270 1.385 . S
C267 H242 0.951 . S
C267 C265 1.388 . S
C267 C268 1.366 . S
C268 C267 1.366 . S
C268 C269 1.414 . S
C268 C271 1.499 . S
C269 H243 0.950 . S
C269 C268 1.414 . S
C269 C270 1.374 . S
C270 H244 0.950 . S
C270 C266 1.385 . S
C270 C269 1.374 . S
C271 C268 1.499 . S
C271 C272 1.373 . S
C271 C273 1.389 . S
C272 H245 0.950 . S
C272 C258 1.377 . S
C272 C271 1.373 . S
C273 C257 1.377 . S
C273 C271 1.389 . S
C273 C274 1.524 . S
C274 C273 1.524 . S
C274 C275 1.397 . S
C274 C279 1.363 . S
C275 H246 0.950 . S
C275 C274 1.397 . S
C275 C276 1.334 . S
C276 H247 0.950 . S
C276 C275 1.334 . S
C276 C277 1.287 . S
C277 C276 1.287 . S
C277 C278 1.524 . S
C277 H280 0.999 . S
C278 H248 0.950 . S
C278 C277 1.524 . S
C278 C279 1.415 . S
C279 H249 0.950 . S
C279 C274 1.363 . S
C279 C278 1.415 . S
H280 C277 0.999 . S
H281 C262 0.913 . S
H282 C300 0.951 . S
H283 C302 0.951 . S
H284 C304 0.950 . S
H285 C305 0.950 . S
H286 C307 0.950 . S
H287 C310 0.950 . S
H288 C311 0.950 . S
H289 C313 0.950 . S
H290 C314 0.950 . S
H291 C315 0.951 . S
H292 C317 0.951 . S
H293 C319 0.950 . S
H294 C320 0.950 . S
H295 C322 0.950 . S
H296 C325 0.950 . S
H297 C326 0.950 . S
H298 C328 0.950 . S
H299 C329 0.950 . S
C300 H282 0.951 . S
C300 C301 1.366 . S
C300 C302 1.388 . S
C301 C300 1.366 . S
C301 C305 1.385 . S
C302 H283 0.951 . S
C302 C300 1.388 . S
C302 C303 1.366 . S
C303 C302 1.366 . S
C303 C304 1.414 . S
C303 C306 1.499 . S
C304 H284 0.950 . S
C304 C303 1.414 . S
C304 C305 1.374 . S
C305 H285 0.950 . S
C305 C301 1.385 . S
C305 C304 1.374 . S
C306 C303 1.499 . S
C306 C307 1.373 . S
C306 C308 1.389 . S
C307 H286 0.950 . S
C307 C306 1.373 . S
C307 C323 1.377 . S
C308 C306 1.389 . S
C308 C309 1.524 . S
C308 C322 1.377 . S
C309 C308 1.524 . S
C309 C310 1.397 . S
C309 C314 1.363 . S
C310 H287 0.950 . S
C310 C309 1.397 . S
C310 C311 1.334 . S
C311 H288 0.950 . S
C311 C310 1.334 . S
C311 C312 1.287 . S
C312 C311 1.287 . S
C312 C313 1.524 . S
C312 H331 0.913 . S
C313 H289 0.950 . S
C313 C312 1.524 . S
C313 C314 1.415 . S
C314 H290 0.950 . S
C314 C309 1.363 . S
C314 C313 1.415 . S
C315 H291 0.951 . S
C315 C316 1.366 . S
C315 C317 1.388 . S
C316 C315 1.366 . S
C316 C320 1.385 . S
C317 H292 0.951 . S
C317 C315 1.388 . S
C317 C318 1.366 . S
C318 C317 1.366 . S
C318 C319 1.414 . S
C318 C321 1.499 . S
C319 H293 0.950 . S
C319 C318 1.414 . S
C319 C320 1.374 . S
C320 H294 0.950 . S
C320 C316 1.385 . S
C320 C319 1.374 . S
C321 C318 1.499 . S
C321 C322 1.373 . S
C321 C323 1.389 . S
C322 H295 0.950 . S
C322 C308 1.377 . S
C322 C321 1.373 . S
C323 C307 1.377 . S
C323 C321 1.389 . S
C323 C324 1.524 . S
C324 C323 1.524 . S
C324 C325 1.397 . S
C324 C329 1.363 . S
C325 H296 0.950 . S
C325 C324 1.397 . S
C325 C326 1.334 . S
C326 H297 0.950 . S
C326 C325 1.334 . S
C326 C327 1.287 . S
C327 C326 1.287 . S
C327 C328 1.524 . S
C327 H330 0.999 . S
C328 H298 0.950 . S
C328 C327 1.524 . S
C328 C329 1.415 . S
C329 H299 0.950 . S
C329 C324 1.363 . S
C329 C328 1.415 . S
H330 C327 0.999 . S
H331 C312 0.913 . S
H332 C350 0.951 . S
H333 C352 0.951 . S
H334 C354 0.950 . S
H335 C355 0.950 . S
H336 C357 0.950 . S
H337 C360 0.950 . S
H338 C361 0.950 . S
H339 C363 0.950 . S
H340 C364 0.950 . S
H341 C365 0.951 . S
H342 C367 0.951 . S
H343 C369 0.950 . S
H344 C370 0.950 . S
H345 C372 0.950 . S
H346 C375 0.950 . S
H347 C376 0.950 . S
H348 C378 0.950 . S
H349 C379 0.950 . S
C350 H332 0.951 . S
C350 C351 1.366 . S
C350 C352 1.388 . S
C351 C350 1.366 . S
C351 C355 1.385 . S
C352 H333 0.951 . S
C352 C350 1.388 . S
C352 C353 1.366 . S
C353 C352 1.366 . S
C353 C354 1.414 . S
C353 C356 1.499 . S
C354 H334 0.950 . S
C354 C353 1.414 . S
C354 C355 1.374 . S
C355 H335 0.950 . S
C355 C351 1.385 . S
C355 C354 1.374 . S
C356 C353 1.499 . S
C356 C357 1.373 . S
C356 C358 1.389 . S
C357 H336 0.950 . S
C357 C356 1.373 . S
C357 C373 1.377 . S
C358 C356 1.389 . S
C358 C359 1.524 . S
C358 C372 1.377 . S
C359 C358 1.524 . S
C359 C360 1.397 . S
C359 C364 1.363 . S
C360 H337 0.950 . S
C360 C359 1.397 . S
C360 C361 1.334 . S
C361 H338 0.950 . S
C361 C360 1.334 . S
C361 C362 1.287 . S
C362 C361 1.287 . S
C362 C363 1.524 . S
C362 H381 0.913 . S
C363 H339 0.950 . S
C363 C362 1.524 . S
C363 C364 1.415 . S
C364 H340 0.950 . S
C364 C359 1.363 . S
C364 C363 1.415 . S
C365 H341 0.951 . S
C365 C366 1.366 . S
C365 C367 1.388 . S
C366 C365 1.366 . S
C366 C370 1.385 . S
C367 H342 0.951 . S
C367 C365 1.388 . S
C367 C368 1.366 . S
C368 C367 1.366 . S
C368 C369 1.414 . S
C368 C371 1.499 . S
C369 H343 0.950 . S
C369 C368 1.414 . S
C369 C370 1.374 . S
C370 H344 0.950 . S
C370 C366 1.385 . S
C370 C369 1.374 . S
C371 C368 1.499 . S
C371 C372 1.373 . S
C371 C373 1.389 . S
C372 H345 0.950 . S
C372 C358 1.377 . S
C372 C371 1.373 . S
C373 C357 1.377 . S
C373 C371 1.389 . S
C373 C374 1.524 . S
C374 C373 1.524 . S
C374 C375 1.397 . S
C374 C379 1.363 . S
C375 H346 0.950 . S
C375 C374 1.397 . S
C375 C376 1.334 . S
C376 H347 0.950 . S
C376 C375 1.334 . S
C376 C377 1.287 . S
C377 C376 1.287 . S
C377 C378 1.524 . S
C377 H380 0.999 . S
C378 H348 0.950 . S
C378 C377 1.524 . S
C378 C379 1.415 . S
C379 H349 0.950 . S
C379 C374 1.363 . S
C379 C378 1.415 . S
H380 C377 0.999 . S
H381 C362 0.913 . S
H382 C400 0.951 . S
H383 C402 0.951 . S
H384 C404 0.950 . S
H385 C405 0.950 . S
H386 C407 0.950 . S
H387 C410 0.950 . S
H388 C411 0.950 . S
H389 C413 0.950 . S
H390 C414 0.950 . S
H391 C415 0.951 . S
H392 C417 0.951 . S
H393 C419 0.950 . S
H394 C420 0.950 . S
H395 C422 0.950 . S
H396 C425 0.950 . S
H397 C426 0.950 . S
H398 C428 0.950 . S
H399 C429 0.950 . S
C400 H382 0.951 . S
C400 C401 1.366 . S
C400 C402 1.388 . S
C401 C400 1.366 . S
C401 C405 1.385 . S
C402 H383 0.951 . S
C402 C400 1.388 . S
C402 C403 1.366 . S
C403 C402 1.366 . S
C403 C404 1.414 . S
C403 C406 1.499 . S
C404 H384 0.950 . S
C404 C403 1.414 . S
C404 C405 1.374 . S
C405 H385 0.950 . S
C405 C401 1.385 . S
C405 C404 1.374 . S
C406 C403 1.499 . S
C406 C407 1.373 . S
C406 C408 1.389 . S
C407 H386 0.950 . S
C407 C406 1.373 . S
C407 C423 1.377 . S
C408 C406 1.389 . S
C408 C409 1.524 . S
C408 C422 1.377 . S
C409 C408 1.524 . S
C409 C410 1.397 . S
C409 C414 1.363 . S
C410 H387 0.950 . S
C410 C409 1.397 . S
C410 C411 1.334 . S
C411 H388 0.950 . S
C411 C410 1.334 . S
C411 C412 1.287 . S
C412 C411 1.287 . S
C412 C413 1.524 . S
C412 H431 0.913 . S
C413 H389 0.950 . S
C413 C412 1.524 . S
C413 C414 1.415 . S
C414 H390 0.950 . S
C414 C409 1.363 . S
C414 C413 1.415 . S
C415 H391 0.951 . S
C415 C416 1.366 . S
C415 C417 1.388 . S
C416 C415 1.366 . S
C416 C420 1.385 . S
C417 H392 0.951 . S
C417 C415 1.388 . S
C417 C418 1.366 . S
C418 C417 1.366 . S
C418 C419 1.414 . S
C418 C421 1.499 . S
C419 H393 0.950 . S
C419 C418 1.414 . S
C419 C420 1.374 . S
C420 H394 0.950 . S
C420 C416 1.385 . S
C420 C419 1.374 . S
C421 C418 1.499 . S
C421 C422 1.373 . S
C421 C423 1.389 . S
C422 H395 0.950 . S
C422 C408 1.377 . S
C422 C421 1.373 . S
C423 C407 1.377 . S
C423 C421 1.389 . S
C423 C424 1.524 . S
C424 C423 1.524 . S
C424 C425 1.397 . S
C424 C429 1.363 . S
C425 H396 0.950 . S
C425 C424 1.397 . S
C425 C426 1.334 . S
C426 H397 0.950 . S
C426 C425 1.334 . S
C426 C427 1.287 . S
C427 C426 1.287 . S
C427 C428 1.524 . S
C427 H430 0.999 . S
C428 H398 0.950 . S
C428 C427 1.524 . S
C428 C429 1.415 . S
C429 H399 0.950 . S
C429 C424 1.363 . S
C429 C428 1.415 . S
H430 C427 0.999 . S
H431 C412 0.913 . S
H432 C450 0.951 . S
H433 C452 0.951 . S
H434 C454 0.950 . S
H435 C455 0.950 . S
H436 C457 0.950 . S
H437 C460 0.950 . S
H438 C461 0.950 . S
H439 C463 0.950 . S
H440 C464 0.950 . S
H441 C465 0.951 . S
H442 C467 0.951 . S
H443 C469 0.950 . S
H444 C470 0.950 . S
H445 C472 0.950 . S
H446 C475 0.950 . S
H447 C476 0.950 . S
H448 C478 0.950 . S
H449 C479 0.950 . S
C450 H432 0.951 . S
C450 C451 1.366 . S
C450 C452 1.388 . S
C451 C450 1.366 . S
C451 C455 1.385 . S
C452 H433 0.951 . S
C452 C450 1.388 . S
C452 C453 1.366 . S
C453 C452 1.366 . S
C453 C454 1.414 . S
C453 C456 1.499 . S
C454 H434 0.950 . S
C454 C453 1.414 . S
C454 C455 1.374 . S
C455 H435 0.950 . S
C455 C451 1.385 . S
C455 C454 1.374 . S
C456 C453 1.499 . S
C456 C457 1.373 . S
C456 C458 1.389 . S
C457 H436 0.950 . S
C457 C456 1.373 . S
C457 C473 1.377 . S
C458 C456 1.389 . S
C458 C459 1.524 . S
C458 C472 1.377 . S
C459 C458 1.524 . S
C459 C460 1.397 . S
C459 C464 1.363 . S
C460 H437 0.950 . S
C460 C459 1.397 . S
C460 C461 1.334 . S
C461 H438 0.950 . S
C461 C460 1.334 . S
C461 C462 1.287 . S
C462 C461 1.287 . S
C462 C463 1.524 . S
C462 H481 0.913 . S
C463 H439 0.950 . S
C463 C462 1.524 . S
C463 C464 1.415 . S
C464 H440 0.950 . S
C464 C459 1.363 . S
C464 C463 1.415 . S
C465 H441 0.951 . S
C465 C466 1.366 . S
C465 C467 1.388 . S
C466 C465 1.366 . S
C466 C470 1.385 . S
C467 H442 0.951 . S
C467 C465 1.388 . S
C467 C468 1.366 . S
C468 C467 1.366 . S
C468 C469 1.414 . S
C468 C471 1.499 . S
C469 H443 0.950 . S
C469 C468 1.414 . S
C469 C470 1.374 . S
C470 H444 0.950 . S
C470 C466 1.385 . S
C470 C469 1.374 . S
C471 C468 1.499 . S
C471 C472 1.373 . S
C471 C473 1.389 . S
C472 H445 0.950 . S
C472 C458 1.377 . S
C472 C471 1.373 . S
C473 C457 1.377 . S
C473 C471 1.389 . S
C473 C474 1.524 . S
C474 C473 1.524 . S
C474 C475 1.397 . S
C474 C479 1.363 . S
C475 H446 0.950 . S
C475 C474 1.397 . S
C475 C476 1.334 . S
C476 H447 0.950 . S
C476 C475 1.334 . S
C476 C477 1.287 . S
C477 C476 1.287 . S
C477 C478 1.524 . S
C477 H480 0.999 . S
C478 H448 0.950 . S
C478 C477 1.524 . S
C478 C479 1.415 . S
C479 H449 0.950 . S
C479 C474 1.363 . S
C479 C478 1.415 . S
H480 C477 0.999 . S
H481 C462 0.913 . S
H482 C500 0.951 . S
H483 C502 0.951 . S
H484 C504 0.950 . S
H485 C505 0.950 . S
H486 C507 0.950 . S
H487 C510 0.950 . S
H488 C511 0.950 . S
H489 C513 0.950 . S
H490 C514 0.950 . S
H491 C515 0.974 . S
H492 C517 0.951 . S
H493 C519 0.950 . S
H494 C520 0.950 . S
H495 C522 0.950 . S
H496 C525 0.950 . S
H497 C526 0.950 . S
H498 C528 0.950 . S
H499 C529 0.950 . S
C500 H482 0.951 . S
C500 C501 1.366 . S
C500 C502 1.388 . S
C501 C500 1.366 . S
C501 C505 1.385 . S
C502 H483 0.951 . S
C502 C500 1.388 . S
C502 C503 1.366 . S
C503 C502 1.366 . S
C503 C504 1.414 . S
C503 C506 1.499 . S
C504 H484 0.950 . S
C504 C503 1.414 . S
C504 C505 1.374 . S
C505 H485 0.950 . S
C505 C501 1.385 . S
C505 C504 1.374 . S
C506 C503 1.499 . S
C506 C507 1.373 . S
C506 C508 1.389 . S
C507 H486 0.950 . S
C507 C506 1.373 . S
C507 C523 1.377 . S
C508 C506 1.389 . S
C508 C509 1.524 . S
C508 C522 1.377 . S
C509 C508 1.524 . S
C509 C510 1.397 . S
C509 C514 1.363 . S
C510 H487 0.950 . S
C510 C509 1.397 . S
C510 C511 1.334 . S
C511 H488 0.950 . S
C511 C510 1.334 . S
C511 C512 1.287 . S
C512 C511 1.287 . S
C512 C513 1.524 . S
C512 H531 0.913 . S
C513 H489 0.950 . S
C513 C512 1.524 . S
C513 C514 1.415 . S
C514 H490 0.950 . S
C514 C509 1.363 . S
C514 C513 1.415 . S
C515 H491 0.974 . S
C515 C516 1.366 . S
C515 C517 1.388 . S
C516 C515 1.366 . S
C516 C520 1.385 . S
C517 H492 0.951 . S
C517 C515 1.388 . S
C517 C518 1.366 . S
C518 C517 1.366 . S
C518 C519 1.414 . S
C518 C521 1.499 . S
C519 H493 0.950 . S
C519 C518 1.414 . S
C519 C520 1.374 . S
C520 H494 0.950 . S
C520 C516 1.385 . S
C520 C519 1.374 . S
C521 C518 1.499 . S
C521 C522 1.373 . S
C521 C523 1.389 . S
C522 H495 0.950 . S
C522 C508 1.377 . S
C522 C521 1.373 . S
C523 C507 1.377 . S
C523 C521 1.389 . S
C523 C524 1.524 . S
C524 C523 1.524 . S
C524 C525 1.397 . S
C524 C529 1.363 . S
C525 H496 0.950 . S
C525 C524 1.397 . S
C525 C526 1.334 . S
C526 H497 0.950 . S
C526 C525 1.334 . S
C526 C527 1.287 . S
C527 C526 1.287 . S
C527 C528 1.524 . S
C527 H530 0.999 . S
C528 H498 0.950 . S
C528 C527 1.524 . S
C528 C529 1.415 . S
C529 H499 0.950 . S
C529 C524 1.363 . S
C529 C528 1.415 . S
H530 C527 0.999 . S
H531 C512 0.913 . S
H532 C550 0.951 . S
H533 C552 0.951 . S
H534 C554 0.950 . S
H535 C555 0.950 . S
H536 C557 0.950 . S
H537 C560 0.950 . S
H538 C561 0.950 . S
H539 C563 0.950 . S
H540 C564 0.950 . S
H541 C565 0.951 . S
H542 C567 0.951 . S
H543 C569 0.950 . S
H544 C570 0.950 . S
H545 C572 0.950 . S
H546 C575 0.950 . S
H547 C576 0.950 . S
H548 C578 0.950 . S
H549 C579 0.950 . S
C550 H532 0.951 . S
C550 C551 1.366 . S
C550 C552 1.388 . S
C551 C550 1.366 . S
C551 C555 1.385 . S
C552 H533 0.951 . S
C552 C550 1.388 . S
C552 C553 1.366 . S
C553 C552 1.366 . S
C553 C554 1.414 . S
C553 C556 1.499 . S
C554 H534 0.950 . S
C554 C553 1.414 . S
C554 C555 1.374 . S
C555 H535 0.950 . S
C555 C551 1.385 . S
C555 C554 1.374 . S
C556 C553 1.499 . S
C556 C557 1.373 . S
C556 C558 1.389 . S
C557 H536 0.950 . S
C557 C556 1.373 . S
C557 C573 1.377 . S
C558 C556 1.389 . S
C558 C559 1.524 . S
C558 C572 1.377 . S
C559 C558 1.524 . S
C559 C560 1.397 . S
C559 C564 1.363 . S
C560 H537 0.950 . S
C560 C559 1.397 . S
C560 C561 1.334 . S
C561 H538 0.950 . S
C561 C560 1.334 . S
C561 C562 1.287 . S
C562 C561 1.287 . S
C562 C563 1.524 . S
C562 H581 0.913 . S
C563 H539 0.950 . S
C563 C562 1.524 . S
C563 C564 1.415 . S
C564 H540 0.950 . S
C564 C559 1.363 . S
C564 C563 1.415 . S
C565 H541 0.951 . S
C565 C566 1.366 . S
C565 C567 1.388 . S
C566 C565 1.366 . S
C566 C570 1.385 . S
C567 H542 0.951 . S
C567 C565 1.388 . S
C567 C568 1.366 . S
C568 C567 1.366 . S
C568 C569 1.414 . S
C568 C571 1.499 . S
C569 H543 0.950 . S
C569 C568 1.414 . S
C569 C570 1.374 . S
C570 H544 0.950 . S
C570 C566 1.385 . S
C570 C569 1.374 . S
C571 C568 1.499 . S
C571 C572 1.373 . S
C571 C573 1.389 . S
C572 H545 0.950 . S
C572 C558 1.377 . S
C572 C571 1.373 . S
C573 C557 1.377 . S
C573 C571 1.389 . S
C573 C574 1.524 . S
C574 C573 1.524 . S
C574 C575 1.397 . S
C574 C579 1.363 . S
C575 H546 0.950 . S
C575 C574 1.397 . S
C575 C576 1.334 . S
C576 H547 0.950 . S
C576 C575 1.334 . S
C576 C577 1.287 . S
C577 C576 1.287 . S
C577 C578 1.524 . S
C577 H580 0.999 . S
C578 H548 0.950 . S
C578 C577 1.524 . S
C578 C579 1.415 . S
C579 H549 0.950 . S
C579 C574 1.363 . S
C579 C578 1.415 . S
H580 C577 0.999 . S
H581 C562 0.913 . S
H582 C600 0.951 . S
H583 C602 0.951 . S
H584 C604 0.950 . S
H585 C605 0.950 . S
H586 C607 0.950 . S
H587 C610 0.950 . S
H588 C611 0.950 . S
H589 C613 0.950 . S
H590 C614 0.950 . S
H591 C615 0.951 . S
H592 C617 0.951 . S
H593 C619 0.950 . S
H594 C620 0.950 . S
H595 C622 0.950 . S
H596 C625 0.950 . S
H597 C626 0.950 . S
H598 C628 0.950 . S
H599 C629 0.950 . S
C600 H582 0.951 . S
C600 C601 1.366 . S
C600 C602 1.388 . S
C601 C600 1.366 . S
C601 C605 1.385 . S
C602 H583 0.951 . S
C602 C600 1.388 . S
C602 C603 1.366 . S
C603 C602 1.366 . S
C603 C604 1.414 . S
C603 C606 1.499 . S
C604 H584 0.950 . S
C604 C603 1.414 . S
C604 C605 1.374 . S
C605 H585 0.950 . S
C605 C601 1.385 . S
C605 C604 1.374 . S
C606 C603 1.499 . S
C606 C607 1.373 . S
C606 C608 1.389 . S
C607 H586 0.950 . S
C607 C606 1.373 . S
C607 C623 1.377 . S
C608 C606 1.389 . S
C608 C609 1.524 . S
C608 C622 1.377 . S
C609 C608 1.524 . S
C609 C610 1.397 . S
C609 C614 1.363 . S
C610 H587 0.950 . S
C610 C609 1.397 . S
C610 C611 1.334 . S
C611 H588 0.950 . S
C611 C610 1.334 . S
C611 C612 1.287 . S
C612 C611 1.287 . S
C612 C613 1.524 . S
C612 H631 0.913 . S
C613 H589 0.950 . S
C613 C612 1.524 . S
C613 C614 1.415 . S
C614 H590 0.950 . S
C614 C609 1.363 . S
C614 C613 1.415 . S
C615 H591 0.951 . S
C615 C616 1.366 . S
C615 C617 1.388 . S
C616 C615 1.366 . S
C616 C620 1.385 . S
C617 H592 0.951 . S
C617 C615 1.388 . S
C617 C618 1.366 . S
C618 C617 1.366 . S
C618 C619 1.414 . S
C618 C621 1.499 . S
C619 H593 0.950 . S
C619 C618 1.414 . S
C619 C620 1.374 . S
C620 H594 0.950 . S
C620 C616 1.385 . S
C620 C619 1.374 . S
C621 C618 1.499 . S
C621 C622 1.373 . S
C621 C623 1.389 . S
C622 H595 0.950 . S
C622 C608 1.377 . S
C622 C621 1.373 . S
C623 C607 1.377 . S
C623 C621 1.389 . S
C623 C624 1.524 . S
C624 C623 1.524 . S
C624 C625 1.397 . S
C624 C629 1.363 . S
C625 H596 0.950 . S
C625 C624 1.397 . S
C625 C626 1.334 . S
C626 H597 0.950 . S
C626 C625 1.334 . S
C626 C627 1.287 . S
C627 C626 1.287 . S
C627 C628 1.524 . S
C627 H630 0.999 . S
C628 H598 0.950 . S
C628 C627 1.524 . S
C628 C629 1.415 . S
C629 H599 0.950 . S
C629 C624 1.363 . S
C629 C628 1.415 . S
H630 C627 0.999 . S
H631 C612 0.913 . S
H632 C650 0.951 . S
H633 C652 0.951 . S
H634 C654 0.950 . S
H635 C655 0.950 . S
H636 C657 0.950 . S
H637 C660 0.950 . S
H638 C661 0.950 . S
H639 C663 0.950 . S
H640 C664 0.950 . S
H641 C665 0.951 . S
H642 C667 0.951 . S
H643 C669 0.950 . S
H644 C670 0.950 . S
H645 C672 0.950 . S
H646 C675 0.950 . S
H647 C676 0.950 . S
H648 C678 0.950 . S
H649 C679 0.950 . S
C650 H632 0.951 . S
C650 C651 1.366 . S
C650 C652 1.388 . S
C651 C650 1.366 . S
C651 C655 1.385 . S
C652 H633 0.951 . S
C652 C650 1.388 . S
C652 C653 1.366 . S
C653 C652 1.366 . S
C653 C654 1.414 . S
C653 C656 1.499 . S
C654 H634 0.950 . S
C654 C653 1.414 . S
C654 C655 1.374 . S
C655 H635 0.950 . S
C655 C651 1.385 . S
C655 C654 1.374 . S
C656 C653 1.499 . S
C656 C657 1.373 . S
C656 C658 1.389 . S
C657 H636 0.950 . S
C657 C656 1.373 . S
C657 C673 1.377 . S
C658 C656 1.389 . S
C658 C659 1.524 . S
C658 C672 1.377 . S
C659 C658 1.524 . S
C659 C660 1.397 . S
C659 C664 1.363 . S
C660 H637 0.950 . S
C660 C659 1.397 . S
C660 C661 1.334 . S
C661 H638 0.950 . S
C661 C660 1.334 . S
C661 C662 1.287 . S
C662 C661 1.287 . S
C662 C663 1.524 . S
C662 H681 0.913 . S
C663 H639 0.950 . S
C663 C662 1.524 . S
C663 C664 1.415 . S
C664 H640 0.950 . S
C664 C659 1.363 . S
C664 C663 1.415 . S
C665 H641 0.951 . S
C665 C666 1.366 . S
C665 C667 1.388 . S
C666 C665 1.366 . S
C666 C670 1.385 . S
C667 H642 0.951 . S
C667 C665 1.388 . S
C667 C668 1.366 . S
C668 C667 1.366 . S
C668 C669 1.414 . S
C668 C671 1.499 . S
C669 H643 0.950 . S
C669 C668 1.414 . S
C669 C670 1.374 . S
C670 H644 0.950 . S
C670 C666 1.385 . S
C670 C669 1.374 . S
C671 C668 1.499 . S
C671 C672 1.373 . S
C671 C673 1.389 . S
C672 H645 0.950 . S
C672 C658 1.377 . S
C672 C671 1.373 . S
C673 C657 1.377 . S
C673 C671 1.389 . S
C673 C674 1.524 . S
C674 C673 1.524 . S
C674 C675 1.397 . S
C674 C679 1.363 . S
C675 H646 0.950 . S
C675 C674 1.397 . S
C675 C676 1.334 . S
C676 H647 0.950 . S
C676 C675 1.334 . S
C676 C677 1.287 . S
C677 C676 1.287 . S
C677 C678 1.524 . S
C677 H680 0.999 . S
C678 H648 0.950 . S
C678 C677 1.524 . S
C678 C679 1.415 . S
C679 H649 0.950 . S
C679 C674 1.363 . S
C679 C678 1.415 . S
H680 C677 0.999 . S
H681 C662 0.913 . S
H682 C700 0.951 . S
H683 C702 0.951 . S
H684 C704 0.950 . S
H685 C705 0.950 . S
H686 C707 0.950 . S
H687 C710 0.950 . S
H688 C711 0.950 . S
H689 C713 0.950 . S
H690 C714 0.950 . S
H691 C715 0.951 . S
H692 C717 0.951 . S
H693 C719 0.950 . S
H694 C720 0.950 . S
H695 C722 0.950 . S
H696 C725 0.950 . S
H697 C726 0.950 . S
H698 C728 0.950 . S
H699 C729 0.950 . S
C700 H682 0.951 . S
C700 C701 1.366 . S
C700 C702 1.388 . S
C701 C700 1.366 . S
C701 C705 1.385 . S
C702 H683 0.951 . S
C702 C700 1.388 . S
C702 C703 1.366 . S
C703 C702 1.366 . S
C703 C704 1.414 . S
C703 C706 1.499 . S
C704 H684 0.950 . S
C704 C703 1.414 . S
C704 C705 1.374 . S
C705 H685 0.950 . S
C705 C701 1.385 . S
C705 C704 1.374 . S
C706 C703 1.499 . S
C706 C707 1.373 . S
C706 C708 1.389 . S
C707 H686 0.950 . S
C707 C706 1.373 . S
C707 C723 1.377 . S
C708 C706 1.389 . S
C708 C709 1.524 . S
C708 C722 1.377 . S
C709 C708 1.524 . S
C709 C710 1.397 . S
C709 C714 1.363 . S
C710 H687 0.950 . S
C710 C709 1.397 . S
C710 C711 1.334 . S
C711 H688 0.950 . S
C711 C710 1.334 . S
C711 C712 1.287 . S
C712 C711 1.287 . S
C712 C713 1.524 . S
C712 H731 0.913 . S
C713 H689 0.950 . S
C713 C712 1.524 . S
C713 C714 1.415 . S
C714 H690 0.950 . S
C714 C709 1.363 . S
C714 C713 1.415 . S
C715 H691 0.951 . S
C715 C716 1.366 . S
C715 C717 1.388 . S
C716 C715 1.366 . S
C716 C720 1.385 . S
C717 H692 0.951 . S
C717 C715 1.388 . S
C717 C718 1.366 . S
C718 C717 1.366 . S
C718 C719 1.414 . S
C718 C721 1.499 . S
C719 H693 0.950 . S
C719 C718 1.414 . S
C719 C720 1.374 . S
C720 H694 0.950 . S
C720 C716 1.385 . S
C720 C719 1.374 . S
C721 C718 1.499 . S
C721 C722 1.373 . S
C721 C723 1.389 . S
C722 H695 0.950 . S
C722 C708 1.377 . S
C722 C721 1.373 . S
C723 C707 1.377 . S
C723 C721 1.389 . S
C723 C724 1.524 . S
C724 C723 1.524 . S
C724 C725 1.397 . S
C724 C729 1.363 . S
C725 H696 0.950 . S
C725 C724 1.397 . S
C725 C726 1.334 1_556 S
C726 H697 0.950 . S
C726 C725 1.334 1_554 S
C726 C727 1.287 . S
C727 C726 1.287 . S
C727 C728 1.524 1_554 S
C727 H730 0.999 . S
C728 H698 0.950 . S
C728 C727 1.524 1_556 S
C728 C729 1.415 . S
C729 H699 0.950 . S
C729 C724 1.363 . S
C729 C728 1.415 . S
H730 C727 0.999 . S
H731 C712 0.913 . S
H732 C750 0.951 . S
H733 C752 0.951 . S
H734 C754 0.950 . S
H735 C755 0.950 . S
H736 C757 0.950 . S
H737 C760 0.950 . S
H738 C761 0.950 . S
H739 C763 0.950 . S
H740 C764 0.950 . S
H741 C765 0.951 . S
H742 C767 0.951 . S
H743 C769 0.950 . S
H744 C770 0.950 . S
H745 C772 0.950 . S
H746 C775 0.950 . S
H747 C776 0.950 . S
H748 C778 0.950 . S
H749 C779 0.950 . S
C750 H732 0.951 . S
C750 C751 1.366 . S
C750 C752 1.388 . S
C751 C750 1.366 . S
C751 C755 1.385 . S
C752 H733 0.951 . S
C752 C750 1.388 . S
C752 C753 1.366 . S
C753 C752 1.366 . S
C753 C754 1.414 . S
C753 C756 1.499 . S
C754 H734 0.950 . S
C754 C753 1.414 . S
C754 C755 1.374 . S
C755 H735 0.950 . S
C755 C751 1.385 . S
C755 C754 1.374 . S
C756 C753 1.499 . S
C756 C757 1.373 . S
C756 C758 1.389 . S
C757 H736 0.950 . S
C757 C756 1.373 . S
C757 C773 1.377 . S
C758 C756 1.389 . S
C758 C759 1.524 . S
C758 C772 1.377 . S
C759 C758 1.524 . S
C759 C760 1.397 . S
C759 C764 1.363 . S
C760 H737 0.950 . S
C760 C759 1.397 . S
C760 C761 1.334 . S
C761 H738 0.950 . S
C761 C760 1.334 . S
C761 C762 1.287 . S
C762 C761 1.287 . S
C762 C763 1.524 . S
C762 H781 0.913 . S
C763 H739 0.950 . S
C763 C762 1.524 . S
C763 C764 1.415 . S
C764 H740 0.950 . S
C764 C759 1.363 . S
C764 C763 1.415 . S
C765 H741 0.951 . S
C765 C766 1.366 . S
C765 C767 1.388 . S
C766 C765 1.366 . S
C766 C770 1.385 . S
C767 H742 0.951 . S
C767 C765 1.388 . S
C767 C768 1.366 . S
C768 C767 1.366 . S
C768 C769 1.414 . S
C768 C771 1.499 . S
C769 H743 0.950 . S
C769 C768 1.414 . S
C769 C770 1.374 . S
C770 H744 0.950 . S
C770 C766 1.385 . S
C770 C769 1.374 . S
C771 C768 1.499 . S
C771 C772 1.373 . S
C771 C773 1.389 . S
C772 H745 0.950 . S
C772 C758 1.377 . S
C772 C771 1.373 . S
C773 C757 1.377 . S
C773 C771 1.389 . S
C773 C774 1.524 . S
C774 C773 1.524 . S
C774 C775 1.397 . S
C774 C779 1.363 . S
C775 H746 0.950 . S
C775 C774 1.397 . S
C775 C776 1.334 . S
C776 H747 0.950 . S
C776 C775 1.334 . S
C776 C777 1.287 . S
C777 C776 1.287 . S
C777 C778 1.524 . S
C777 H780 0.999 . S
C778 H748 0.950 . S
C778 C777 1.524 . S
C778 C779 1.415 . S
C779 H749 0.950 . S
C779 C774 1.363 . S
C779 C778 1.415 . S
H780 C777 0.999 . S
H781 C762 0.913 . S
H782 C800 0.951 . S
H783 C802 0.951 . S
H784 C804 0.950 . S
H785 C805 0.950 . S
H786 C807 0.950 . S
H787 C810 0.950 . S
H788 C811 0.950 . S
H789 C813 0.950 . S
H790 C814 0.950 . S
H791 C815 0.951 . S
H792 C817 0.951 . S
H793 C819 0.950 . S
H794 C820 0.950 . S
H795 C822 0.950 . S
H796 C825 0.950 . S
H797 C826 0.950 . S
H798 C828 0.950 . S
H799 C829 0.950 . S
C800 H782 0.951 . S
C800 C801 1.366 . S
C800 C802 1.388 . S
C801 C800 1.366 . S
C801 C805 1.385 . S
C802 H783 0.951 . S
C802 C800 1.388 . S
C802 C803 1.366 . S
C803 C802 1.366 . S
C803 C804 1.414 . S
C803 C806 1.499 . S
C804 H784 0.950 . S
C804 C803 1.414 . S
C804 C805 1.374 . S
C805 H785 0.950 . S
C805 C801 1.385 . S
C805 C804 1.374 . S
C806 C803 1.499 . S
C806 C807 1.373 . S
C806 C808 1.389 . S
C807 H786 0.950 . S
C807 C806 1.373 . S
C807 C823 1.377 . S
C808 C806 1.389 . S
C808 C809 1.524 . S
C808 C822 1.377 . S
C809 C808 1.524 . S
C809 C810 1.397 . S
C809 C814 1.363 . S
C810 H787 0.950 . S
C810 C809 1.397 . S
C810 C811 1.334 . S
C811 H788 0.950 . S
C811 C810 1.334 . S
C811 C812 1.287 . S
C812 C811 1.287 . S
C812 C813 1.524 . S
C812 H831 0.913 . S
C813 H789 0.950 . S
C813 C812 1.524 . S
C813 C814 1.415 . S
C814 H790 0.950 . S
C814 C809 1.363 . S
C814 C813 1.415 . S
C815 H791 0.951 . S
C815 C816 1.366 . S
C815 C817 1.388 . S
C816 C815 1.366 . S
C816 C820 1.385 . S
C817 H792 0.951 . S
C817 C815 1.388 . S
C817 C818 1.366 . S
C818 C817 1.366 . S
C818 C819 1.414 . S
C818 C821 1.499 . S
C819 H793 0.950 . S
C819 C818 1.414 . S
C819 C820 1.374 . S
C820 H794 0.950 . S
C820 C816 1.385 . S
C820 C819 1.374 . S
C821 C818 1.499 . S
C821 C822 1.373 . S
C821 C823 1.389 . S
C822 H795 0.950 . S
C822 C808 1.377 . S
C822 C821 1.373 . S
C823 C807 1.377 . S
C823 C821 1.389 . S
C823 C824 1.524 . S
C824 C823 1.524 . S
C824 C825 1.397 . S
C824 C829 1.363 . S
C825 H796 0.950 . S
C825 C824 1.397 . S
C825 C826 1.334 . S
C826 H797 0.950 . S
C826 C825 1.334 . S
C826 C827 1.287 . S
C827 C826 1.287 . S
C827 C828 1.524 . S
C827 H830 0.999 . S
C828 H798 0.950 . S
C828 C827 1.524 . S
C828 C829 1.415 . S
C829 H799 0.950 . S
C829 C824 1.363 . S
C829 C828 1.415 . S
H830 C827 0.999 . S
H831 C812 0.913 . S
H832 C850 0.951 . S
H833 C852 0.951 . S
H834 C854 0.950 . S
H835 C855 0.950 . S
H836 C857 0.950 . S
H837 C860 0.950 . S
H838 C861 0.950 . S
H839 C863 0.950 . S
H840 C864 0.950 . S
H841 C865 0.951 . S
H842 C867 0.951 . S
H843 C869 0.950 . S
H844 C870 0.950 . S
H845 C872 0.950 . S
H846 C875 0.950 . S
H847 C876 0.950 . S
H848 C878 0.950 . S
H849 C879 0.950 . S
C850 H832 0.951 . S
C850 C851 1.366 . S
C850 C852 1.388 . S
C851 C850 1.366 . S
C851 C855 1.385 . S
C852 H833 0.951 . S
C852 C850 1.388 . S
C852 C853 1.366 . S
C853 C852 1.366 . S
C853 C854 1.414 . S
C853 C856 1.499 . S
C854 H834 0.950 . S
C854 C853 1.414 . S
C854 C855 1.374 . S
C855 H835 0.950 . S
C855 C851 1.385 . S
C855 C854 1.374 . S
C856 C853 1.499 . S
C856 C857 1.373 . S
C856 C858 1.389 . S
C857 H836 0.950 . S
C857 C856 1.373 . S
C857 C873 1.377 . S
C858 C856 1.389 . S
C858 C859 1.524 . S
C858 C872 1.377 . S
C859 C858 1.524 . S
C859 C860 1.397 . S
C859 C864 1.363 . S
C860 H837 0.950 . S
C860 C859 1.397 . S
C860 C861 1.334 . S
C861 H838 0.950 . S
C861 C860 1.334 . S
C861 C862 1.287 . S
C862 C861 1.287 . S
C862 C863 1.524 . S
C862 H881 0.913 . S
C863 H839 0.950 . S
C863 C862 1.524 . S
C863 C864 1.415 . S
C864 H840 0.950 . S
C864 C859 1.363 . S
C864 C863 1.415 . S
C865 H841 0.951 . S
C865 C866 1.366 . S
C865 C867 1.388 . S
C866 C865 1.366 . S
C866 C870 1.385 . S
C867 H842 0.951 . S
C867 C865 1.388 . S
C867 C868 1.366 . S
C868 C867 1.366 . S
C868 C869 1.414 . S
C868 C871 1.499 . S
C869 H843 0.950 . S
C869 C868 1.414 . S
C869 C870 1.374 . S
C870 H844 0.950 . S
C870 C866 1.385 . S
C870 C869 1.374 . S
C871 C868 1.499 . S
C871 C872 1.373 . S
C871 C873 1.389 . S
C872 H845 0.950 . S
C872 C858 1.377 . S
C872 C871 1.373 . S
C873 C857 1.377 . S
C873 C871 1.389 . S
C873 C874 1.524 . S
C874 C873 1.524 . S
C874 C875 1.397 . S
C874 C879 1.363 . S
C875 H846 0.950 . S
C875 C874 1.397 . S
C875 C876 1.334 . S
C876 H847 0.950 . S
C876 C875 1.334 . S
C876 C877 1.287 . S
C877 C876 1.287 . S
C877 C878 1.524 . S
C877 H880 0.999 . S
C878 H848 0.950 . S
C878 C877 1.524 . S
C878 C879 1.415 . S
C879 H849 0.950 . S
C879 C874 1.363 . S
C879 C878 1.415 . S
H880 C877 0.999 . S
H881 C862 0.913 . S
H882 C900 0.951 . S
H883 C902 0.951 . S
H884 C904 0.950 . S
H885 C905 0.950 . S
H886 C907 0.950 . S
H887 C910 0.950 . S
H888 C911 0.950 . S
H889 C913 0.950 . S
H890 C914 0.950 . S
H891 C915 0.951 . S
H892 C917 0.951 . S
H893 C919 0.950 . S
H894 C920 0.950 . S
H895 C922 0.950 . S
H896 C925 0.950 . S
H897 C926 0.950 . S
H898 C928 0.950 . S
H899 C929 0.950 . S
C900 H882 0.951 . S
C900 C901 1.366 . S
C900 C902 1.388 . S
C901 C900 1.366 . S
C901 C905 1.385 . S
C902 H883 0.951 . S
C902 C900 1.388 . S
C902 C903 1.366 . S
C903 C902 1.366 . S
C903 C904 1.414 . S
C903 C906 1.499 . S
C904 H884 0.950 . S
C904 C903 1.414 . S
C904 C905 1.374 . S
C905 H885 0.950 . S
C905 C901 1.385 . S
C905 C904 1.374 . S
C906 C903 1.499 . S
C906 C907 1.373 . S
C906 C908 1.389 . S
C907 H886 0.950 . S
C907 C906 1.373 . S
C907 C923 1.377 . S
C908 C906 1.389 . S
C908 C909 1.524 . S
C908 C922 1.377 . S
C909 C908 1.524 . S
C909 C910 1.397 . S
C909 C914 1.363 . S
C910 H887 0.950 . S
C910 C909 1.397 . S
C910 C911 1.334 . S
C911 H888 0.950 . S
C911 C910 1.334 . S
C911 C912 1.287 . S
C912 C911 1.287 . S
C912 C913 1.524 . S
C912 H931 0.913 . S
C913 H889 0.950 . S
C913 C912 1.524 . S
C913 C914 1.415 . S
C914 H890 0.950 . S
C914 C909 1.363 . S
C914 C913 1.415 . S
C915 H891 0.951 . S
C915 C916 1.366 . S
C915 C917 1.388 . S
C916 C915 1.366 . S
C916 C920 1.385 . S
C917 H892 0.951 . S
C917 C915 1.388 . S
C917 C918 1.366 . S
C918 C917 1.366 . S
C918 C919 1.414 . S
C918 C921 1.499 . S
C919 H893 0.950 . S
C919 C918 1.414 . S
C919 C920 1.374 . S
C920 H894 0.950 . S
C920 C916 1.385 . S
C920 C919 1.374 . S
C921 C918 1.499 . S
C921 C922 1.373 . S
C921 C923 1.389 . S
C922 H895 0.950 . S
C922 C908 1.377 . S
C922 C921 1.373 . S
C923 C907 1.377 . S
C923 C921 1.389 . S
C923 C924 1.524 . S
C924 C923 1.524 . S
C924 C925 1.397 . S
C924 C929 1.363 . S
C925 H896 0.950 . S
C925 C924 1.397 . S
C925 C926 1.334 . S
C926 H897 0.950 . S
C926 C925 1.334 . S
C926 C927 1.287 . S
C927 C926 1.287 . S
C927 C928 1.524 . S
C927 H930 0.999 1_545 S
C928 H898 0.950 . S
C928 C927 1.524 . S
C928 C929 1.415 . S
C929 H899 0.950 . S
C929 C924 1.363 . S
C929 C928 1.415 . S
H930 C927 0.999 1_565 S
H931 C912 0.913 . S
H932 C950 0.951 . S
H933 C952 0.951 . S
H934 C954 0.950 . S
H935 C955 0.950 . S
H936 C957 0.950 . S
H937 C960 0.950 . S
H938 C961 0.950 . S
H939 C963 0.950 . S
H940 C964 0.950 . S
H941 C965 0.951 . S
H942 C967 0.951 . S
H943 C969 0.950 . S
H944 C970 0.950 . S
H945 C972 0.950 . S
H946 C975 0.950 . S
H947 C976 0.950 . S
H948 C978 0.950 . S
H949 C979 0.950 . S
C950 H932 0.951 . S
C950 C951 1.366 . S
C950 C952 1.388 . S
C951 C950 1.366 . S
C951 C955 1.385 . S
C952 H933 0.951 . S
C952 C950 1.388 . S
C952 C953 1.366 . S
C953 C952 1.366 . S
C953 C954 1.414 . S
C953 C956 1.499 . S
C954 H934 0.950 . S
C954 C953 1.414 . S
C954 C955 1.374 . S
C955 H935 0.950 . S
C955 C951 1.385 . S
C955 C954 1.374 . S
C956 C953 1.499 . S
C956 C957 1.373 . S
C956 C958 1.389 . S
C957 H936 0.950 . S
C957 C956 1.373 . S
C957 C973 1.377 . S
C958 C956 1.389 . S
C958 C959 1.524 . S
C958 C972 1.377 . S
C959 C958 1.524 . S
C959 C960 1.397 . S
C959 C964 1.363 . S
C960 H937 0.950 . S
C960 C959 1.397 . S
C960 C961 1.334 . S
C961 H938 0.950 . S
C961 C960 1.334 . S
C961 C962 1.287 . S
C962 C961 1.287 . S
C962 C963 1.524 . S
C962 H981 0.913 . S
C963 H939 0.950 . S
C963 C962 1.524 . S
C963 C964 1.415 . S
C964 H940 0.950 . S
C964 C959 1.363 . S
C964 C963 1.415 . S
C965 H941 0.951 . S
C965 C966 1.366 . S
C965 C967 1.388 . S
C966 C965 1.366 . S
C966 C970 1.385 . S
C967 H942 0.951 . S
C967 C965 1.388 . S
C967 C968 1.366 . S
C968 C967 1.366 . S
C968 C969 1.414 . S
C968 C971 1.499 . S
C969 H943 0.950 . S
C969 C968 1.414 . S
C969 C970 1.374 . S
C970 H944 0.950 . S
C970 C966 1.385 . S
C970 C969 1.374 . S
C971 C968 1.499 . S
C971 C972 1.373 . S
C971 C973 1.389 . S
C972 H945 0.950 . S
C972 C958 1.377 . S
C972 C971 1.373 . S
C973 C957 1.377 . S
C973 C971 1.389 . S
C973 C974 1.524 . S
C974 C973 1.524 . S
C974 C975 1.397 . S
C974 C979 1.363 . S
C975 H946 0.950 . S
C975 C974 1.397 . S
C975 C976 1.334 . S
C976 H947 0.950 . S
C976 C975 1.334 . S
C976 C977 1.287 . S
C977 C976 1.287 . S
C977 C978 1.524 . S
C977 H980 0.999 . S
C978 H948 0.950 . S
C978 C977 1.524 . S
C978 C979 1.415 . S
C979 H949 0.950 . S
C979 C974 1.363 . S
C979 C978 1.415 . S
H980 C977 0.999 . S
H981 C962 0.913 . S
H982 C1000 0.951 . S
H983 C1002 0.951 . S
H984 C1004 0.950 . S
H985 C1005 0.950 . S
H986 C1007 0.950 . S
H987 C1010 0.950 . S
H988 C1011 0.950 . S
H989 C1013 0.950 . S
H990 C1014 0.950 . S
H991 C1015 0.951 . S
H992 C1017 0.951 . S
H993 C1019 0.950 . S
H994 C1020 0.950 . S
H995 C1022 0.950 . S
H996 C1025 0.950 . S
H997 C1026 0.950 . S
H998 C1028 0.950 . S
H999 C1029 0.950 . S
C1000 H982 0.951 . S
C1000 C1001 1.366 . S
C1000 C1002 1.388 . S
C1001 C1000 1.366 . S
C1001 C1005 1.385 . S
C1002 H983 0.951 . S
C1002 C1000 1.388 . S
C1002 C1003 1.366 . S
C1003 C1002 1.366 . S
C1003 C1004 1.414 . S
C1003 C1006 1.499 . S
C1004 H984 0.950 . S
C1004 C1003 1.414 . S
C1004 C1005 1.374 . S
C1005 H985 0.950 . S
C1005 C1001 1.385 . S
C1005 C1004 1.374 . S
C1006 C1003 1.499 . S
C1006 C1007 1.373 . S
C1006 C1008 1.389 . S
C1007 H986 0.950 . S
C1007 C1006 1.373 . S
C1007 C1023 1.377 . S
C1008 C1006 1.389 . S
C1008 C1009 1.524 . S
C1008 C1022 1.377 . S
C1009 C1008 1.524 . S
C1009 C1010 1.397 . S
C1009 C1014 1.363 . S
C1010 H987 0.950 . S
C1010 C1009 1.397 . S
C1010 C1011 1.334 . S
C1011 H988 0.950 . S
C1011 C1010 1.334 . S
C1011 C1012 1.287 . S
C1012 C1011 1.287 . S
C1012 C1013 1.524 . S
C1012 H1031 0.913 . S
C1013 H989 0.950 . S
C1013 C1012 1.524 . S
C1013 C1014 1.415 . S
C1014 H990 0.950 . S
C1014 C1009 1.363 . S
C1014 C1013 1.415 . S
C1015 H991 0.951 . S
C1015 C1016 1.366 . S
C1015 C1017 1.388 . S
C1016 C1015 1.366 . S
C1016 C1020 1.385 . S
C1017 H992 0.951 . S
C1017 C1015 1.388 . S
C1017 C1018 1.366 . S
C1018 C1017 1.366 . S
C1018 C1019 1.414 . S
C1018 C1021 1.499 . S
C1019 H993 0.950 . S
C1019 C1018 1.414 . S
C1019 C1020 1.374 . S
C1020 H994 0.950 . S
C1020 C1016 1.385 . S
C1020 C1019 1.374 . S
C1021 C1018 1.499 . S
C1021 C1022 1.373 . S
C1021 C1023 1.389 . S
C1022 H995 0.950 . S
C1022 C1008 1.377 . S
C1022 C1021 1.373 . S
C1023 C1007 1.377 . S
C1023 C1021 1.389 . S
C1023 C1024 1.524 . S
C1024 C1023 1.524 . S
C1024 C1025 1.397 . S
C1024 C1029 1.363 . S
C1025 H996 0.950 . S
C1025 C1024 1.397 . S
C1025 C1026 1.334 . S
C1026 H997 0.950 . S
C1026 C1025 1.334 . S
C1026 C1027 1.287 . S
C1027 C1026 1.287 . S
C1027 C1028 1.524 . S
C1027 H1030 0.999 . S
C1028 H998 0.950 . S
C1028 C1027 1.524 . S
C1028 C1029 1.415 . S
C1029 H999 0.950 . S
C1029 C1024 1.363 . S
C1029 C1028 1.415 . S
H1030 C1027 0.999 . S
H1031 C1012 0.913 . S
H1032 C1050 0.951 . S
H1033 C1052 0.951 . S
H1034 C1054 0.950 . S
H1035 C1055 0.950 . S
H1036 C1057 0.950 . S
H1037 C1060 0.950 . S
H1038 C1061 0.950 . S
H1039 C1063 0.950 . S
H1040 C1064 0.950 . S
H1041 C1065 0.951 . S
H1042 C1067 0.951 . S
H1043 C1069 0.950 . S
H1044 C1070 0.950 . S
H1045 C1072 0.950 . S
H1046 C1075 0.950 . S
H1047 C1076 0.950 . S
H1048 C1078 0.950 . S
H1049 C1079 0.950 . S
C1050 H1032 0.951 . S
C1050 C1051 1.366 . S
C1050 C1052 1.388 . S
C1051 C1050 1.366 . S
C1051 C1055 1.385 . S
C1052 H1033 0.951 . S
C1052 C1050 1.388 . S
C1052 C1053 1.366 . S
C1053 C1052 1.366 . S
C1053 C1054 1.414 . S
C1053 C1056 1.499 . S
C1054 H1034 0.950 . S
C1054 C1053 1.414 . S
C1054 C1055 1.374 . S
C1055 H1035 0.950 . S
C1055 C1051 1.385 . S
C1055 C1054 1.374 . S
C1056 C1053 1.499 . S
C1056 C1057 1.373 . S
C1056 C1058 1.389 . S
C1057 H1036 0.950 . S
C1057 C1056 1.373 . S
C1057 C1073 1.377 . S
C1058 C1056 1.389 . S
C1058 C1059 1.524 . S
C1058 C1072 1.377 . S
C1059 C1058 1.524 . S
C1059 C1060 1.397 . S
C1059 C1064 1.363 . S
C1060 H1037 0.950 . S
C1060 C1059 1.397 . S
C1060 C1061 1.334 . S
C1061 H1038 0.950 . S
C1061 C1060 1.334 . S
C1061 C1062 1.287 . S
C1062 C1061 1.287 . S
C1062 C1063 1.524 . S
C1062 H1081 0.913 . S
C1063 H1039 0.950 . S
C1063 C1062 1.524 . S
C1063 C1064 1.415 . S
C1064 H1040 0.950 . S
C1064 C1059 1.363 . S
C1064 C1063 1.415 . S
C1065 H1041 0.951 . S
C1065 C1066 1.366 . S
C1065 C1067 1.388 . S
C1066 C1065 1.366 . S
C1066 C1070 1.385 . S
C1067 H1042 0.951 . S
C1067 C1065 1.388 . S
C1067 C1068 1.366 . S
C1068 C1067 1.366 . S
C1068 C1069 1.414 . S
C1068 C1071 1.499 . S
C1069 H1043 0.950 . S
C1069 C1068 1.414 . S
C1069 C1070 1.374 . S
C1070 H1044 0.950 . S
C1070 C1066 1.385 . S
C1070 C1069 1.374 . S
C1071 C1068 1.499 . S
C1071 C1072 1.373 . S
C1071 C1073 1.389 . S
C1072 H1045 0.950 . S
C1072 C1058 1.377 . S
C1072 C1071 1.373 . S
C1073 C1057 1.377 . S
C1073 C1071 1.389 . S
C1073 C1074 1.524 . S
C1074 C1073 1.524 . S
C1074 C1075 1.397 . S
C1074 C1079 1.363 . S
C1075 H1046 0.950 . S
C1075 C1074 1.397 . S
C1075 C1076 1.334 . S
C1076 H1047 0.950 . S
C1076 C1075 1.334 . S
C1076 C1077 1.287 . S
C1077 C1076 1.287 . S
C1077 C1078 1.524 . S
C1077 H1080 0.999 1_556 S
C1078 H1048 0.950 . S
C1078 C1077 1.524 . S
C1078 C1079 1.415 . S
C1079 H1049 0.950 . S
C1079 C1074 1.363 . S
C1079 C1078 1.415 . S
H1080 C1077 0.999 1_554 S
H1081 C1062 0.913 . S
H1082 C1100 0.951 . S
H1083 C1102 0.951 . S
H1084 C1104 0.950 . S
H1085 C1105 0.950 . S
H1086 C1107 0.950 . S
H1087 C1110 0.950 . S
H1088 C1111 0.950 . S
H1089 C1113 0.950 . S
H1090 C1114 0.950 . S
H1091 C1115 0.951 . S
H1092 C1117 0.951 . S
H1093 C1119 0.950 . S
H1094 C1120 0.950 . S
H1095 C1122 0.950 . S
H1096 C1125 0.950 . S
H1097 C1126 0.950 . S
H1098 C1128 0.933 1_565 S
H1099 C1129 0.950 . S
C1100 H1082 0.951 . S
C1100 C1101 1.366 . S
C1100 C1102 1.388 . S
C1101 C1100 1.366 . S
C1101 C1105 1.385 . S
C1102 H1083 0.951 . S
C1102 C1100 1.388 . S
C1102 C1103 1.366 . S
C1103 C1102 1.366 . S
C1103 C1104 1.414 . S
C1103 C1106 1.499 . S
C1104 H1084 0.950 . S
C1104 C1103 1.414 . S
C1104 C1105 1.374 . S
C1105 H1085 0.950 . S
C1105 C1101 1.385 . S
C1105 C1104 1.374 . S
C1106 C1103 1.499 . S
C1106 C1107 1.373 . S
C1106 C1108 1.389 . S
C1107 H1086 0.950 . S
C1107 C1106 1.373 . S
C1107 C1123 1.377 . S
C1108 C1106 1.389 . S
C1108 C1109 1.524 . S
C1108 C1122 1.377 . S
C1109 C1108 1.524 . S
C1109 C1110 1.397 . S
C1109 C1114 1.363 . S
C1110 H1087 0.950 . S
C1110 C1109 1.397 . S
C1110 C1111 1.334 . S
C1111 H1088 0.950 . S
C1111 C1110 1.334 . S
C1111 C1112 1.287 . S
C1112 C1111 1.287 . S
C1112 C1113 1.524 . S
C1112 H1131 0.913 . S
C1113 H1089 0.950 . S
C1113 C1112 1.524 . S
C1113 C1114 1.415 . S
C1114 H1090 0.950 . S
C1114 C1109 1.363 . S
C1114 C1113 1.415 . S
C1115 H1091 0.951 . S
C1115 C1116 1.366 . S
C1115 C1117 1.388 . S
C1116 C1115 1.366 . S
C1116 C1120 1.385 . S
C1117 H1092 0.951 . S
C1117 C1115 1.388 . S
C1117 C1118 1.366 . S
C1118 C1117 1.366 . S
C1118 C1119 1.414 . S
C1118 C1121 1.499 . S
C1119 H1093 0.950 . S
C1119 C1118 1.414 . S
C1119 C1120 1.374 . S
C1120 H1094 0.950 . S
C1120 C1116 1.385 . S
C1120 C1119 1.374 . S
C1121 C1118 1.499 . S
C1121 C1122 1.373 . S
C1121 C1123 1.389 . S
C1122 H1095 0.950 . S
C1122 C1108 1.377 . S
C1122 C1121 1.373 . S
C1123 C1107 1.377 . S
C1123 C1121 1.389 . S
C1123 C1124 1.524 . S
C1124 C1123 1.524 . S
C1124 C1125 1.397 . S
C1124 C1129 1.363 . S
C1125 H1096 0.950 . S
C1125 C1124 1.397 . S
C1125 C1126 1.334 . S
C1126 H1097 0.950 . S
C1126 C1125 1.334 . S
C1126 C1127 1.287 . S
C1127 C1126 1.287 . S
C1127 C1128 1.525 . S
C1127 H1130 0.999 1_545 S
C1128 H1098 0.933 1_545 S
C1128 C1127 1.525 . S
C1128 C1129 1.433 . S
C1129 H1099 0.950 . S
C1129 C1124 1.363 . S
C1129 C1128 1.433 . S
H1130 C1127 0.999 1_565 S
H1131 C1112 0.913 . S
H1132 C1150 0.951 . S
H1133 C1152 0.951 . S
H1134 C1154 0.950 . S
H1135 C1155 0.950 . S
H1136 C1157 0.950 . S
H1137 C1160 0.950 . S
H1138 C1161 0.950 . S
H1139 C1163 0.950 . S
H1140 C1164 0.950 . S
H1141 C1165 0.951 . S
H1142 C1167 0.951 . S
H1143 C1169 0.950 . S
H1144 C1170 0.950 . S
H1145 C1172 0.950 . S
H1146 C1175 0.950 . S
H1147 C1176 0.950 . S
H1148 C1178 0.950 . S
H1149 C1179 0.950 . S
C1150 H1132 0.951 . S
C1150 C1151 1.366 . S
C1150 C1152 1.388 . S
C1151 C1150 1.366 . S
C1151 C1155 1.385 . S
C1152 H1133 0.951 . S
C1152 C1150 1.388 . S
C1152 C1153 1.366 . S
C1153 C1152 1.366 . S
C1153 C1154 1.414 . S
C1153 C1156 1.499 . S
C1154 H1134 0.950 . S
C1154 C1153 1.414 . S
C1154 C1155 1.374 . S
C1155 H1135 0.950 . S
C1155 C1151 1.385 . S
C1155 C1154 1.374 . S
C1156 C1153 1.499 . S
C1156 C1157 1.373 . S
C1156 C1158 1.389 . S
C1157 H1136 0.950 . S
C1157 C1156 1.373 . S
C1157 C1173 1.377 . S
C1158 C1156 1.389 . S
C1158 C1159 1.524 . S
C1158 C1172 1.377 . S
C1159 C1158 1.524 . S
C1159 C1160 1.397 . S
C1159 C1164 1.363 . S
C1160 H1137 0.950 . S
C1160 C1159 1.397 . S
C1160 C1161 1.334 . S
C1161 H1138 0.950 . S
C1161 C1160 1.334 . S
C1161 C1162 1.287 . S
C1162 C1161 1.287 . S
C1162 C1163 1.524 . S
C1162 H1181 0.913 . S
C1163 H1139 0.950 . S
C1163 C1162 1.524 . S
C1163 C1164 1.415 . S
C1164 H1140 0.950 . S
C1164 C1159 1.363 . S
C1164 C1163 1.415 . S
C1165 H1141 0.951 . S
C1165 C1166 1.366 . S
C1165 C1167 1.388 . S
C1166 C1165 1.366 . S
C1166 C1170 1.385 . S
C1167 H1142 0.951 . S
C1167 C1165 1.388 . S
C1167 C1168 1.366 . S
C1168 C1167 1.366 . S
C1168 C1169 1.414 . S
C1168 C1171 1.499 . S
C1169 H1143 0.950 . S
C1169 C1168 1.414 . S
C1169 C1170 1.374 . S
C1170 H1144 0.950 . S
C1170 C1166 1.385 . S
C1170 C1169 1.374 . S
C1171 C1168 1.499 . S
C1171 C1172 1.373 . S
C1171 C1173 1.389 . S
C1172 H1145 0.950 . S
C1172 C1158 1.377 . S
C1172 C1171 1.373 . S
C1173 C1157 1.377 . S
C1173 C1171 1.389 . S
C1173 C1174 1.524 . S
C1174 C1173 1.524 . S
C1174 C1175 1.397 . S
C1174 C1179 1.363 . S
C1175 H1146 0.950 . S
C1175 C1174 1.397 . S
C1175 C1176 1.334 . S
C1176 H1147 0.950 . S
C1176 C1175 1.334 . S
C1176 C1177 1.287 . S
C1177 C1176 1.287 . S
C1177 C1178 1.524 . S
C1177 H1180 0.999 . S
C1178 H1148 0.950 . S
C1178 C1177 1.524 . S
C1178 C1179 1.415 . S
C1179 H1149 0.950 . S
C1179 C1174 1.363 . S
C1179 C1178 1.415 . S
H1180 C1177 0.999 . S
H1181 C1162 0.913 . S
H1182 C1200 0.951 . S
H1183 C1202 0.951 . S
H1184 C1204 0.950 . S
H1185 C1205 0.950 . S
H1186 C1207 0.950 . S
H1187 C1210 0.950 . S
H1188 C1211 0.950 . S
H1189 C1213 0.950 . S
H1190 C1214 0.950 . S
H1191 C1215 0.951 . S
H1192 C1217 0.951 . S
H1193 C1219 0.950 . S
H1194 C1220 0.950 . S
H1195 C1222 0.950 . S
H1196 C1225 0.950 . S
H1197 C1226 0.950 . S
H1198 C1228 0.950 . S
H1199 C1229 0.950 . S
C1200 H1182 0.951 . S
C1200 C1201 1.366 . S
C1200 C1202 1.388 . S
C1201 C1200 1.366 . S
C1201 C1205 1.385 . S
C1202 H1183 0.951 . S
C1202 C1200 1.388 . S
C1202 C1203 1.366 . S
C1203 C1202 1.366 . S
C1203 C1204 1.414 . S
C1203 C1206 1.499 . S
C1204 H1184 0.950 . S
C1204 C1203 1.414 . S
C1204 C1205 1.374 . S
C1205 H1185 0.950 . S
C1205 C1201 1.385 . S
C1205 C1204 1.374 . S
C1206 C1203 1.499 . S
C1206 C1207 1.373 . S
C1206 C1208 1.389 . S
C1207 H1186 0.950 . S
C1207 C1206 1.373 . S
C1207 C1223 1.377 . S
C1208 C1206 1.389 . S
C1208 C1209 1.524 . S
C1208 C1222 1.377 . S
C1209 C1208 1.524 . S
C1209 C1210 1.397 . S
C1209 C1214 1.363 . S
C1210 H1187 0.950 . S
C1210 C1209 1.397 . S
C1210 C1211 1.334 . S
C1211 H1188 0.950 . S
C1211 C1210 1.334 . S
C1211 C1212 1.287 . S
C1212 C1211 1.287 . S
C1212 C1213 1.524 . S
C1212 H1231 0.913 . S
C1213 H1189 0.950 . S
C1213 C1212 1.524 . S
C1213 C1214 1.415 . S
C1214 H1190 0.950 . S
C1214 C1209 1.363 . S
C1214 C1213 1.415 . S
C1215 H1191 0.951 . S
C1215 C1216 1.366 . S
C1215 C1217 1.388 . S
C1216 C1215 1.366 . S
C1216 C1220 1.385 . S
C1217 H1192 0.951 . S
C1217 C1215 1.388 . S
C1217 C1218 1.366 . S
C1218 C1217 1.366 . S
C1218 C1219 1.414 . S
C1218 C1221 1.499 . S
C1219 H1193 0.950 . S
C1219 C1218 1.414 . S
C1219 C1220 1.374 . S
C1220 H1194 0.950 . S
C1220 C1216 1.385 . S
C1220 C1219 1.374 . S
C1221 C1218 1.499 . S
C1221 C1222 1.373 . S
C1221 C1223 1.389 . S
C1222 H1195 0.950 . S
C1222 C1208 1.377 . S
C1222 C1221 1.373 . S
C1223 C1207 1.377 . S
C1223 C1221 1.389 . S
C1223 C1224 1.524 . S
C1224 C1223 1.524 . S
C1224 C1225 1.397 . S
C1224 C1229 1.363 . S
C1225 H1196 0.950 . S
C1225 C1224 1.397 . S
C1225 C1226 1.334 . S
C1226 H1197 0.950 . S
C1226 C1225 1.334 . S
C1226 C1227 1.287 . S
C1227 C1226 1.287 . S
C1227 C1228 1.524 . S
C1227 H1230 0.999 . S
C1228 H1198 0.950 . S
C1228 C1227 1.524 . S
C1228 C1229 1.415 . S
C1229 H1199 0.950 . S
C1229 C1224 1.363 . S
C1229 C1228 1.415 . S
H1230 C1227 0.999 . S
H1231 C1212 0.913 . S
H1232 C1250 0.951 . S
H1233 C1252 0.951 . S
H1234 C1254 0.950 . S
H1235 C1255 0.950 . S
H1236 C1257 0.950 . S
H1237 C1260 0.950 . S
H1238 C1261 0.950 . S
H1239 C1263 0.950 . S
H1240 C1264 0.950 . S
H1241 C1265 0.951 . S
H1242 C1267 0.951 . S
H1243 C1269 0.950 . S
H1244 C1270 0.950 . S
H1245 C1272 0.950 . S
H1246 C1275 0.950 . S
H1247 C1276 0.950 . S
H1248 C1278 0.950 . S
H1249 C1279 0.950 . S
C1250 H1232 0.951 . S
C1250 C1251 1.366 . S
C1250 C1252 1.388 . S
C1251 C1250 1.366 . S
C1251 C1255 1.385 . S
C1252 H1233 0.951 . S
C1252 C1250 1.388 . S
C1252 C1253 1.366 . S
C1253 C1252 1.366 . S
C1253 C1254 1.414 . S
C1253 C1256 1.499 . S
C1254 H1234 0.950 . S
C1254 C1253 1.414 . S
C1254 C1255 1.374 . S
C1255 H1235 0.950 . S
C1255 C1251 1.385 . S
C1255 C1254 1.374 . S
C1256 C1253 1.499 . S
C1256 C1257 1.373 . S
C1256 C1258 1.389 . S
C1257 H1236 0.950 . S
C1257 C1256 1.373 . S
C1257 C1273 1.377 . S
C1258 C1256 1.389 . S
C1258 C1259 1.524 . S
C1258 C1272 1.377 . S
C1259 C1258 1.524 . S
C1259 C1260 1.397 . S
C1259 C1264 1.363 . S
C1260 H1237 0.950 . S
C1260 C1259 1.397 . S
C1260 C1261 1.334 . S
C1261 H1238 0.950 . S
C1261 C1260 1.334 . S
C1261 C1262 1.287 . S
C1262 C1261 1.287 . S
C1262 C1263 1.524 . S
C1262 H1281 0.913 . S
C1263 H1239 0.950 . S
C1263 C1262 1.524 . S
C1263 C1264 1.415 . S
C1264 H1240 0.950 . S
C1264 C1259 1.363 . S
C1264 C1263 1.415 . S
C1265 H1241 0.951 . S
C1265 C1266 1.366 . S
C1265 C1267 1.388 . S
C1266 C1265 1.366 . S
C1266 C1270 1.385 . S
C1267 H1242 0.951 . S
C1267 C1265 1.388 . S
C1267 C1268 1.366 . S
C1268 C1267 1.366 . S
C1268 C1269 1.414 . S
C1268 C1271 1.499 . S
C1269 H1243 0.950 . S
C1269 C1268 1.414 . S
C1269 C1270 1.374 . S
C1270 H1244 0.950 . S
C1270 C1266 1.385 . S
C1270 C1269 1.374 . S
C1271 C1268 1.499 . S
C1271 C1272 1.373 . S
C1271 C1273 1.389 . S
C1272 H1245 0.950 . S
C1272 C1258 1.377 . S
C1272 C1271 1.373 . S
C1273 C1257 1.377 . S
C1273 C1271 1.389 . S
C1273 C1274 1.524 . S
C1274 C1273 1.524 . S
C1274 C1275 1.397 . S
C1274 C1279 1.363 . S
C1275 H1246 0.950 . S
C1275 C1274 1.397 . S
C1275 C1276 1.334 . S
C1276 H1247 0.950 . S
C1276 C1275 1.334 . S
C1276 C1277 1.287 . S
C1277 C1276 1.287 . S
C1277 C1278 1.524 . S
C1277 H1280 0.999 . S
C1278 H1248 0.950 . S
C1278 C1277 1.524 . S
C1278 C1279 1.415 . S
C1279 H1249 0.950 . S
C1279 C1274 1.363 . S
C1279 C1278 1.415 . S
H1280 C1277 0.999 . S
H1281 C1262 0.913 . S
H1282 C1300 0.951 . S
H1283 C1302 0.951 . S
H1284 C1304 0.950 . S
H1285 C1305 0.950 . S
H1286 C1307 0.950 . S
H1287 C1310 0.950 . S
H1288 C1311 0.950 . S
H1289 C1313 0.950 . S
H1290 C1314 0.950 . S
H1291 C1315 0.951 . S
H1292 C1317 0.951 . S
H1293 C1319 0.950 . S
H1294 C1320 0.950 . S
H1295 C1322 0.950 . S
H1296 C1325 0.950 . S
H1297 C1326 0.950 . S
H1298 C1328 0.950 . S
H1299 C1329 0.950 . S
C1300 H1282 0.951 . S
C1300 C1301 1.366 . S
C1300 C1302 1.388 . S
C1301 C1300 1.366 . S
C1301 C1305 1.385 . S
C1302 H1283 0.951 . S
C1302 C1300 1.388 . S
C1302 C1303 1.366 . S
C1303 C1302 1.366 . S
C1303 C1304 1.414 . S
C1303 C1306 1.499 . S
C1304 H1284 0.950 . S
C1304 C1303 1.414 . S
C1304 C1305 1.374 . S
C1305 H1285 0.950 . S
C1305 C1301 1.385 . S
C1305 C1304 1.374 . S
C1306 C1303 1.499 . S
C1306 C1307 1.373 . S
C1306 C1308 1.389 . S
C1307 H1286 0.950 . S
C1307 C1306 1.373 . S
C1307 C1323 1.377 . S
C1308 C1306 1.389 . S
C1308 C1309 1.524 . S
C1308 C1322 1.377 . S
C1309 C1308 1.524 . S
C1309 C1310 1.397 . S
C1309 C1314 1.363 . S
C1310 H1287 0.950 . S
C1310 C1309 1.397 . S
C1310 C1311 1.334 . S
C1311 H1288 0.950 . S
C1311 C1310 1.334 . S
C1311 C1312 1.287 . S
C1312 C1311 1.287 . S
C1312 C1313 1.524 . S
C1312 H1331 0.913 . S
C1313 H1289 0.950 . S
C1313 C1312 1.524 . S
C1313 C1314 1.415 . S
C1314 H1290 0.950 . S
C1314 C1309 1.363 . S
C1314 C1313 1.415 . S
C1315 H1291 0.951 . S
C1315 C1316 1.366 . S
C1315 C1317 1.388 . S
C1316 C1315 1.366 . S
C1316 C1320 1.385 . S
C1317 H1292 0.951 . S
C1317 C1315 1.388 . S
C1317 C1318 1.366 . S
C1318 C1317 1.366 . S
C1318 C1319 1.414 . S
C1318 C1321 1.499 . S
C1319 H1293 0.950 . S
C1319 C1318 1.414 . S
C1319 C1320 1.374 . S
C1320 H1294 0.950 . S
C1320 C1316 1.385 . S
C1320 C1319 1.374 . S
C1321 C1318 1.499 . S
C1321 C1322 1.373 . S
C1321 C1323 1.389 . S
C1322 H1295 0.950 . S
C1322 C1308 1.377 . S
C1322 C1321 1.373 . S
C1323 C1307 1.377 . S
C1323 C1321 1.389 . S
C1323 C1324 1.524 . S
C1324 C1323 1.524 . S
C1324 C1325 1.397 . S
C1324 C1329 1.363 . S
C1325 H1296 0.950 . S
C1325 C1324 1.397 . S
C1325 C1326 1.334 . S
C1326 H1297 0.950 . S
C1326 C1325 1.334 . S
C1326 C1327 1.287 . S
C1327 C1326 1.287 . S
C1327 C1328 1.524 . S
C1327 H1330 0.999 . S
C1328 H1298 0.950 . S
C1328 C1327 1.524 . S
C1328 C1329 1.415 . S
C1329 H1299 0.950 . S
C1329 C1324 1.363 . S
C1329 C1328 1.415 . S
H1330 C1327 0.999 . S
H1331 C1312 0.913 . S
H1332 C1350 0.951 . S
H1333 C1352 0.951 . S
H1334 C1354 0.950 . S
H1335 C1355 0.950 . S
H1336 C1357 0.950 . S
H1337 C1360 0.950 . S
H1338 C1361 0.950 . S
H1339 C1363 0.950 . S
H1340 C1364 0.950 . S
H1341 C1365 0.951 . S
H1342 C1367 0.951 . S
H1343 C1369 0.950 . S
H1344 C1370 0.950 . S
H1345 C1372 0.950 . S
H1346 C1375 0.950 . S
H1347 C1376 0.950 . S
H1348 C1378 0.950 . S
H1349 C1379 0.950 . S
C1350 H1332 0.951 . S
C1350 C1351 1.366 . S
C1350 C1352 1.388 . S
C1351 C1350 1.366 . S
C1351 C1355 1.385 . S
C1352 H1333 0.951 . S
C1352 C1350 1.388 . S
C1352 C1353 1.366 . S
C1353 C1352 1.366 . S
C1353 C1354 1.414 . S
C1353 C1356 1.499 . S
C1354 H1334 0.950 . S
C1354 C1353 1.414 . S
C1354 C1355 1.374 . S
C1355 H1335 0.950 . S
C1355 C1351 1.385 . S
C1355 C1354 1.374 . S
C1356 C1353 1.499 . S
C1356 C1357 1.373 . S
C1356 C1358 1.389 . S
C1357 H1336 0.950 . S
C1357 C1356 1.373 . S
C1357 C1373 1.377 . S
C1358 C1356 1.389 . S
C1358 C1359 1.524 . S
C1358 C1372 1.377 . S
C1359 C1358 1.524 . S
C1359 C1360 1.397 . S
C1359 C1364 1.363 . S
C1360 H1337 0.950 . S
C1360 C1359 1.397 . S
C1360 C1361 1.334 . S
C1361 H1338 0.950 . S
C1361 C1360 1.334 . S
C1361 C1362 1.287 . S
C1362 C1361 1.287 . S
C1362 C1363 1.524 . S
C1362 H1381 0.913 . S
C1363 H1339 0.950 . S
C1363 C1362 1.524 . S
C1363 C1364 1.415 . S
C1364 H1340 0.950 . S
C1364 C1359 1.363 . S
C1364 C1363 1.415 . S
C1365 H1341 0.951 . S
C1365 C1366 1.366 . S
C1365 C1367 1.388 . S
C1366 C1365 1.366 . S
C1366 C1370 1.385 . S
C1367 H1342 0.951 . S
C1367 C1365 1.388 . S
C1367 C1368 1.366 . S
C1368 C1367 1.366 . S
C1368 C1369 1.414 . S
C1368 C1371 1.499 . S
C1369 H1343 0.950 . S
C1369 C1368 1.414 . S
C1369 C1370 1.374 . S
C1370 H1344 0.950 . S
C1370 C1366 1.385 . S
C1370 C1369 1.374 . S
C1371 C1368 1.499 . S
C1371 C1372 1.373 . S
C1371 C1373 1.389 . S
C1372 H1345 0.950 . S
C1372 C1358 1.377 . S
C1372 C1371 1.373 . S
C1373 C1357 1.377 . S
C1373 C1371 1.389 . S
C1373 C1374 1.524 . S
C1374 C1373 1.524 . S
C1374 C1375 1.397 . S
C1374 C1379 1.363 . S
C1375 H1346 0.950 . S
C1375 C1374 1.397 . S
C1375 C1376 1.334 1_455 S
C1376 H1347 0.950 . S
C1376 C1375 1.334 1_655 S
C1376 C1377 1.287 . S
C1377 C1376 1.287 . S
C1377 C1378 1.524 . S
C1377 H1380 0.999 . S
C1378 H1348 0.950 . S
C1378 C1377 1.524 . S
C1378 C1379 1.415 1_655 S
C1379 H1349 0.950 . S
C1379 C1374 1.363 . S
C1379 C1378 1.415 1_455 S
H1380 C1377 0.999 . S
H1381 C1362 0.913 . S
H1382 C1400 0.951 . S
H1383 C1402 0.951 . S
H1384 C1404 0.950 . S
H1385 C1405 0.950 . S
H1386 C1407 0.950 . S
H1387 C1410 0.950 . S
H1388 C1411 0.950 . S
H1389 C1413 0.950 . S
H1390 C1414 0.950 . S
H1391 C1415 0.951 . S
H1392 C1417 0.951 . S
H1393 C1419 0.950 . S
H1394 C1420 0.950 . S
H1395 C1422 0.950 . S
H1396 C1425 0.950 . S
H1397 C1426 0.950 . S
H1398 C1428 0.950 . S
H1399 C1429 0.950 . S
C1400 H1382 0.951 . S
C1400 C1401 1.366 . S
C1400 C1402 1.388 . S
C1401 C1400 1.366 . S
C1401 C1405 1.385 . S
C1402 H1383 0.951 . S
C1402 C1400 1.388 . S
C1402 C1403 1.366 . S
C1403 C1402 1.366 . S
C1403 C1404 1.414 . S
C1403 C1406 1.499 . S
C1404 H1384 0.950 . S
C1404 C1403 1.414 . S
C1404 C1405 1.374 . S
C1405 H1385 0.950 . S
C1405 C1401 1.385 . S
C1405 C1404 1.374 . S
C1406 C1403 1.499 . S
C1406 C1407 1.373 . S
C1406 C1408 1.389 . S
C1407 H1386 0.950 . S
C1407 C1406 1.373 . S
C1407 C1423 1.377 . S
C1408 C1406 1.389 . S
C1408 C1409 1.524 . S
C1408 C1422 1.377 . S
C1409 C1408 1.524 . S
C1409 C1410 1.397 . S
C1409 C1414 1.363 . S
C1410 H1387 0.950 . S
C1410 C1409 1.397 . S
C1410 C1411 1.334 . S
C1411 H1388 0.950 . S
C1411 C1410 1.334 . S
C1411 C1412 1.287 . S
C1412 C1411 1.287 . S
C1412 C1413 1.524 . S
C1412 H1431 0.913 . S
C1413 H1389 0.950 . S
C1413 C1412 1.524 . S
C1413 C1414 1.415 . S
C1414 H1390 0.950 . S
C1414 C1409 1.363 . S
C1414 C1413 1.415 . S
C1415 H1391 0.951 . S
C1415 C1416 1.366 . S
C1415 C1417 1.388 . S
C1416 C1415 1.366 . S
C1416 C1420 1.385 . S
C1417 H1392 0.951 . S
C1417 C1415 1.388 . S
C1417 C1418 1.366 . S
C1418 C1417 1.366 . S
C1418 C1419 1.414 . S
C1418 C1421 1.499 . S
C1419 H1393 0.950 . S
C1419 C1418 1.414 . S
C1419 C1420 1.374 . S
C1420 H1394 0.950 . S
C1420 C1416 1.385 . S
C1420 C1419 1.374 . S
C1421 C1418 1.499 . S
C1421 C1422 1.373 . S
C1421 C1423 1.389 . S
C1422 H1395 0.950 . S
C1422 C1408 1.377 . S
C1422 C1421 1.373 . S
C1423 C1407 1.377 . S
C1423 C1421 1.389 . S
C1423 C1424 1.524 . S
C1424 C1423 1.524 . S
C1424 C1425 1.397 . S
C1424 C1429 1.363 . S
C1425 H1396 0.950 . S
C1425 C1424 1.397 . S
C1425 C1426 1.334 . S
C1426 H1397 0.950 . S
C1426 C1425 1.334 . S
C1426 C1427 1.287 . S
C1427 C1426 1.287 . S
C1427 C1428 1.524 . S
C1427 H1430 0.999 . S
C1428 H1398 0.950 . S
C1428 C1427 1.524 . S
C1428 C1429 1.415 . S
C1429 H1399 0.950 . S
C1429 C1424 1.363 . S
C1429 C1428 1.415 . S
H1430 C1427 0.999 . S
H1431 C1412 0.913 . S
C251 C5 1.028 . S
C266 C79 1.038 . S
C301 C14 0.903 . S
C316 C128 0.902 . S
C366 C154 2.458 . S
C351 C25 2.497 . S
C401 C34 2.370 . S
C416 C202 2.321 . S
C466 C114 2.127 . S
C451 C7 2.073 . S
C516 C82 0.819 . S
C501 C13 0.830 . S
C566 C203 1.885 . S
C551 C23 1.922 . S
C616 C171 1.578 . S
C601 C31 1.606 . S
C651 C4 1.484 . S
C666 C199 1.512 . S
C716 C131 2.322 . S
C701 C22 2.387 . S
C751 C32 2.348 . S
C766 C83 2.337 . S
C801 C16 0.718 . S
C816 C168 0.717 . S
C866 C88 1.024 . S
C851 C41 1.013 . S
C901 C50 0.913 . S
C916 C119 0.912 . S
C951 C61 2.489 . S
C966 C163 2.450 . S
C1001 C67 2.382 . S
C1016 C211 2.333 . S
C1051 C40 2.098 . S
C1066 C123 2.150 . S
C1116 C91 0.792 . S
C1101 C52 0.797 . S
C1166 C194 1.895 . S
C1151 C59 1.934 . S
C1216 C162 1.576 . S
C1201 C70 1.601 . S
C1251 C43 1.480 . S
C1266 C208 1.508 . S
C1316 C122 2.334 . S
C1301 C58 2.400 . S
C1366 C74 2.314 . S
C1351 C68 2.324 . S
C1401 C49 0.723 . S
C1416 C159 0.723 . S
