# Generated by pormake.
# Topology zzz, (3,6)-cn, num edge types: 1
# Building blocks:
#     Node 0, Type 0, BuildingBlock: CUQRIR_clean_linker_1, # of connection points: 3
#     Node 1, Type 0, BuildingBlock: CUQRIR_clean_linker_1, # of connection points: 3
#     Node 2, Type 0, BuildingBlock: CUQRIR_clean_linker_1, # of connection points: 3
#     Node 3, Type 0, BuildingBlock: CUQRIR_clean_linker_1, # of connection points: 3
#     Node 4, Type 0, BuildingBlock: CUQRIR_clean_linker_1, # of connection points: 3
#     Node 5, Type 0, BuildingBlock: CUQRIR_clean_linker_1, # of connection points: 3
#     Node 6, Type 0, BuildingBlock: CUQRIR_clean_linker_1, # of connection points: 3
#     Node 7, Type 0, BuildingBlock: CUQRIR_clean_linker_1, # of connection points: 3
#     Node 8, Type 1, BuildingBlock: KUMBUR_clean_sbu_0, # of connection points: 6
#     Node 9, Type 1, BuildingBlock: KUMBUR_clean_sbu_0, # of connection points: 6
#     Node 10, Type 1, BuildingBlock: KUMBUR_clean_sbu_0, # of connection points: 6
#     Node 11, Type 1, BuildingBlock: KUMBUR_clean_sbu_0, # of connection points: 6
#     Edge 12, Type (0, 1), BuildingBlock: MIFKUJ_clean_linker_0, # of connection points: 2
#     Edge 13, Type (0, 1), BuildingBlock: MIFKUJ_clean_linker_0, # of connection points: 2
#     Edge 14, Type (0, 1), BuildingBlock: MIFKUJ_clean_linker_0, # of connection points: 2
#     Edge 15, Type (0, 1), BuildingBlock: MIFKUJ_clean_linker_0, # of connection points: 2
#     Edge 16, Type (0, 1), BuildingBlock: MIFKUJ_clean_linker_0, # of connection points: 2
#     Edge 17, Type (0, 1), BuildingBlock: MIFKUJ_clean_linker_0, # of connection points: 2
#     Edge 18, Type (0, 1), BuildingBlock: MIFKUJ_clean_linker_0, # of connection points: 2
#     Edge 19, Type (0, 1), BuildingBlock: MIFKUJ_clean_linker_0, # of connection points: 2
#     Edge 20, Type (0, 1), BuildingBlock: MIFKUJ_clean_linker_0, # of connection points: 2
#     Edge 21, Type (0, 1), BuildingBlock: MIFKUJ_clean_linker_0, # of connection points: 2
#     Edge 22, Type (0, 1), BuildingBlock: MIFKUJ_clean_linker_0, # of connection points: 2
#     Edge 23, Type (0, 1), BuildingBlock: MIFKUJ_clean_linker_0, # of connection points: 2
#     Edge 24, Type (0, 1), BuildingBlock: MIFKUJ_clean_linker_0, # of connection points: 2
#     Edge 25, Type (0, 1), BuildingBlock: MIFKUJ_clean_linker_0, # of connection points: 2
#     Edge 26, Type (0, 1), BuildingBlock: MIFKUJ_clean_linker_0, # of connection points: 2
#     Edge 27, Type (0, 1), BuildingBlock: MIFKUJ_clean_linker_0, # of connection points: 2
#     Edge 28, Type (0, 1), BuildingBlock: MIFKUJ_clean_linker_0, # of connection points: 2
#     Edge 29, Type (0, 1), BuildingBlock: MIFKUJ_clean_linker_0, # of connection points: 2
#     Edge 30, Type (0, 1), BuildingBlock: MIFKUJ_clean_linker_0, # of connection points: 2
#     Edge 31, Type (0, 1), BuildingBlock: MIFKUJ_clean_linker_0, # of connection points: 2
#     Edge 32, Type (0, 1), BuildingBlock: MIFKUJ_clean_linker_0, # of connection points: 2
#     Edge 33, Type (0, 1), BuildingBlock: MIFKUJ_clean_linker_0, # of connection points: 2
#     Edge 34, Type (0, 1), BuildingBlock: MIFKUJ_clean_linker_0, # of connection points: 2
#     Edge 35, Type (0, 1), BuildingBlock: MIFKUJ_clean_linker_0, # of connection points: 2
# Relax obj value: 0.164
# Max RMSD: 0.154
# Mean RMSD: 0.116
data_MOF--net-zzz--node1-KUMBUR_clean_sbu_0--node2-CUQRIR_clean_linker_1--edge1-MIFKUJ_clean_linker_0
_symmetry_space_group_name_H-M    P1
_symmetry_Int_Tables_number       1
_symmetry_cell_setting            triclinic
loop_
_symmetry_equiv_pos_as_xyz
'x, y, z'
_cell_length_a     62.480536
_cell_length_b     62.469533
_cell_length_c     17.436685
_cell_angle_alpha  90.814348
_cell_angle_beta   89.696414
_cell_angle_gamma 89.824722
loop_
_atom_site_label
_atom_site_type_symbol
_atom_site_fract_x
_atom_site_fract_y
_atom_site_fract_z
_atom_type_partial_charge
C0 C 0.75102 0.53924 0.23215 0.0
N1 N 0.7718 0.54566 0.22437 0.0
N2 N 0.73894 0.54581 0.17185 0.0
C3 C 0.74269 0.52586 0.2963 0.0
C4 C 0.75314 0.5562 0.12718 0.0
N5 N 0.77293 0.5561 0.15824 0.0
C6 C 0.74793 0.56512 0.04971 0.0
H7 H 0.74525 0.50872 0.28137 0.0
H8 H 0.72527 0.5286 0.30482 0.0
H9 H 0.7514 0.52952 0.35021 0.0
H10 H 0.73147 0.57185 0.04963 0.0
H11 H 0.7487 0.55202 1.00614 0.0
H12 H 0.75953 0.57773 0.03354 0.0
C13 C 1.00642 0.76591 0.19915 0.0
N14 N 0.99881 0.78639 0.20477 0.0
N15 N 0.99772 0.75523 0.13781 0.0
C16 C 0.022 0.75631 0.25406 0.0
C17 C 0.98475 0.77019 0.10632 0.0
N18 N 0.98519 0.78885 0.14717 0.0
C19 C 0.97356 0.7674 0.03047 0.0
H20 H 0.03849 0.75915 0.23269 0.0
H21 H 0.01951 0.73878 0.2582 0.0
H22 H 0.0204 0.76393 0.3117 0.0
H23 H 0.95693 0.76195 0.041 0.0
H24 H 0.98182 0.75534 0.9935 0.0
H25 H 0.97285 0.78272 0.99919 0.0
C26 C 0.78188 1.00485 0.2283 0.0
N27 N 0.76189 0.99651 0.2375 0.0
N28 N 0.79325 0.9936 0.17409 0.0
C29 C 0.78986 0.02464 0.26842 0.0
C30 C 0.7794 0.97811 0.15143 0.0
N31 N 0.76034 0.98005 0.18854 0.0
C32 C 0.785 0.96022 0.09597 0.0
H33 H 0.77645 0.03427 0.29283 0.0
H34 H 0.79932 0.03449 0.22816 0.0
H35 H 0.80057 0.01985 0.31577 0.0
H36 H 0.80214 0.95579 0.10121 0.0
H37 H 0.78226 0.96553 0.03641 0.0
H38 H 0.77495 0.94593 0.10656 0.0
C39 C 0.5393 0.78408 0.23612 0.0
N40 N 0.5451 0.7632 0.24145 0.0
N41 N 0.54949 0.79347 0.17616 0.0
C42 C 0.52283 0.79489 0.28622 0.0
C43 C 0.56146 0.77738 0.14498 0.0
N44 N 0.55888 0.75911 0.18476 0.0
C45 C 0.57438 0.77925 0.07237 0.0
H46 H 0.50675 0.79186 0.26179 0.0
H47 H 0.52551 0.81244 0.28872 0.0
H48 H 0.52319 0.78827 0.34492 0.0
H49 H 0.5866 0.79194 0.07971 0.0
H50 H 0.56371 0.7841 0.02494 0.0
H51 H 0.5826 0.76404 0.05668 0.0
C52 C 0.27892 0.51841 0.11191 0.0
N53 N 0.2585 0.51073 0.10905 0.0
N54 N 0.29019 0.5092 0.16993 0.0
C55 C 0.28787 0.53449 0.05738 0.0
C56 C 0.2758 0.49579 0.20221 0.0
N57 N 0.25683 0.49666 0.16536 0.0
C58 C 0.28047 0.48168 0.26951 0.0
H59 H 0.2925 0.52613 1.00322 0.0
H60 H 0.30225 0.54249 0.08098 0.0
H61 H 0.27553 0.54664 0.04365 0.0
H62 H 0.29109 0.49005 0.31092 0.0
H63 H 0.28888 0.46704 0.24856 0.0
H64 H 0.26572 0.47663 0.29955 0.0
C65 C 0.0267 0.28442 0.07421 0.0
N66 N 0.03626 0.26487 0.06479 0.0
N67 N 0.03704 0.29651 0.1285 0.0
C68 C 1.00758 0.29175 0.03021 0.0
C69 C 0.05301 0.28342 0.1519 0.0
N70 N 0.05262 0.26448 0.11316 0.0
C71 C 0.06787 0.28847 0.21747 0.0
H72 H 1.00722 0.30947 0.02672 0.0
H73 H 0.99289 0.28644 0.06039 0.0
H74 H 1.00761 0.28451 0.97172 0.0
H75 H 0.06053 0.30016 0.25832 0.0
H76 H 0.08278 0.29553 0.19416 0.0
H77 H 0.07222 0.27379 0.24897 0.0
C78 C 0.25678 0.0409 0.02098 0.0
N79 N 0.27807 0.04511 0.02964 0.0
N80 N 0.24584 0.04467 0.0879 0.0
C81 C 0.24682 0.03251 0.94868 0.0
C82 C 0.26125 0.0512 0.13717 0.0
N83 N 0.28059 0.0515 0.10211 0.0
C84 C 0.25779 0.0556 0.22154 0.0
H85 H 0.22974 0.03734 0.9457 0.0
H86 H 0.24766 0.01477 0.94839 0.0
H87 H 0.25563 0.03836 0.89772 0.0
H88 H 0.2673 0.04404 0.2552 0.0
H89 H 0.24073 0.05453 0.23866 0.0
H90 H 0.26359 0.07189 0.23628 0.0
C91 C 0.49648 0.25664 0.06873 0.0
N92 N 0.48821 0.27682 0.07013 0.0
N93 N 0.4876 0.2446 0.12517 0.0
C94 C 0.51282 0.24862 0.01189 0.0
C95 C 0.47398 0.25836 0.16146 0.0
N96 N 0.47419 0.27766 0.12761 0.0
C97 C 0.46184 0.25346 0.23392 0.0
H98 H 0.51128 0.23108 1.00277 0.0
H99 H 0.52903 0.252 0.03465 0.0
H100 H 0.51111 0.25696 0.95647 0.0
H101 H 0.47135 0.24274 0.27095 0.0
H102 H 0.44678 0.24511 0.21859 0.0
H103 H 0.45765 0.26825 0.26666 0.0
Tb104 Tb 0.04033 0.01888 0.71075 0.0
C105 C 0.9604 1.00018 0.52392 0.0
C106 C 0.97172 0.97423 0.42772 0.0
C107 C 0.93489 0.97438 0.47306 0.0
C108 C 0.97635 0.99141 0.47841 0.0
C109 C 0.93933 0.9922 0.52029 0.0
C110 C 0.95108 0.96537 0.42698 0.0
C111 C 0.92824 0.02112 0.60502 0.0
N112 N 0.96535 0.01728 0.56916 0.0
C113 C 0.9494 0.02832 0.60736 0.0
C114 C 0.92323 1.00276 0.56231 0.0
Tb115 Tb 1.00053 0.02819 0.56797 0.0
N116 N 0.99603 1.00061 0.48019 0.0
C117 C 1.01111 0.99457 0.42665 0.0
C118 C 0.98768 0.96701 0.3772 0.0
C119 C 1.0073 0.97754 0.37558 0.0
H120 H 0.95316 0.04234 0.64164 0.0
H121 H 0.01959 0.97248 0.33523 0.0
H122 H 0.9473 0.95202 0.38913 0.0
H123 H 0.91586 0.02961 0.63678 0.0
H124 H 0.02649 1.00221 0.42371 0.0
H125 H 1.00538 0.06633 0.94492 0.0
H126 H 0.98481 0.95382 0.33759 0.0
H127 H 0.09115 0.01373 0.65629 0.0
H128 H 1.00459 0.04171 0.83731 0.0
H129 H 0.12583 0.03079 0.68207 0.0
H130 H 0.91887 0.96784 0.47015 0.0
H131 H 0.03876 0.08492 0.97962 0.0
H132 H 0.07797 0.0888 0.96023 0.0
H133 H 0.90684 0.99716 0.56084 0.0
H134 H 0.11048 0.08072 0.88511 0.0
N135 N 0.03789 0.04469 0.80771 0.0
C136 C 0.0198 0.04857 0.85114 0.0
C137 C 0.03874 0.07363 0.93191 0.0
C138 C 0.0573 0.06934 0.8896 0.0
C139 C 0.01993 0.06311 0.91274 0.0
C140 C 0.05633 0.05485 0.82672 0.0
H141 H 0.12829 0.05977 0.77951 0.0
N142 N 0.07326 0.03483 0.72932 0.0
C143 C 0.11152 0.03659 0.71095 0.0
C144 C 0.07457 0.04995 0.78549 0.0
C145 C 0.09172 0.02723 0.69538 0.0
C146 C 0.11284 0.0529 0.76589 0.0
C147 C 0.09438 0.0593 0.80567 0.0
O148 O 0.06292 0.99564 0.74121 0.0
O149 O 0.01944 1.00442 0.62552 0.0
O150 O 0.98467 1.00898 0.65632 0.0
O151 O 1.0079 0.01301 0.75912 0.0
O152 O 0.04968 0.99251 0.63211 0.0
O153 O 0.03492 1.00138 0.8111 0.0
O154 O 0.98039 0.0529 0.53233 0.0
O155 O 0.02233 0.04307 0.65093 0.0
O156 O 0.05734 0.03259 0.61232 0.0
O157 O 0.03267 0.02925 0.51279 0.0
O158 O 0.99208 0.0549 0.6465 0.0
O159 O 1.00633 0.04184 0.45983 0.0
C160 C 0.0317 0.99005 0.59784 0.0
C161 C 0.04772 0.96583 0.79805 0.0
C162 C 0.02425 0.93497 0.78155 0.0
C163 C 0.02766 0.95719 0.77911 0.0
C164 C 0.04175 0.92155 0.799 0.0
C165 C 0.06481 0.9522 0.81507 0.0
C166 C 0.06185 0.93013 0.81483 0.0
C167 C 0.98882 1.00812 0.73061 0.0
C168 C 0.0514 0.98898 0.79801 0.0
C169 C 0.09537 0.07376 0.86772 0.0
C170 C 0.07689 0.07852 0.91012 0.0
C171 C 1.01024 0.05755 0.67895 0.0
C172 C 0.9944 0.07801 0.44813 0.0
C173 C 0.01491 0.08717 0.44665 0.0
C174 C 0.01752 0.10862 0.42488 0.0
C175 C 0.99929 0.12082 0.40666 0.0
C176 C 0.9765 0.09049 0.42974 0.0
C177 C 0.97895 0.11182 0.4096 0.0
C178 C 0.05245 0.03222 0.53845 0.0
C179 C 0.99073 0.05561 0.46856 0.0
H180 H 0.01468 0.96781 0.76397 0.0
H181 H 0.03989 0.90441 0.80384 0.0
H182 H 0.08044 0.95865 0.8286 0.0
H183 H 0.07506 0.91965 0.82863 0.0
H184 H 0.02869 0.07773 0.46243 0.0
H185 H 1.00076 0.13723 0.38809 0.0
H186 H 0.96057 0.08368 0.43088 0.0
H187 H 0.96506 0.12132 0.39508 0.0
Tb188 Tb 0.52724 0.03562 0.71727 0.0
C189 C 0.54098 0.99188 0.41275 0.0
C190 C 0.52073 1.008 0.31008 0.0
C191 C 0.55308 0.98795 0.2803 0.0
C192 C 0.52324 1.00331 0.38861 0.0
C193 C 0.55577 0.98359 0.35837 0.0
C194 C 0.53588 1.00051 0.2564 0.0
C195 C 0.5736 0.96529 0.46084 0.0
N196 N 0.54276 0.98728 0.48846 0.0
C197 C 0.5585 0.97366 0.51252 0.0
C198 C 0.57222 0.97025 0.38349 0.0
Tb199 Tb 0.51527 0.99886 0.56607 0.0
N200 N 0.50808 1.00911 0.44144 0.0
C201 C 0.48971 0.01926 0.41768 0.0
C202 C 0.50272 0.01952 0.28721 0.0
C203 C 0.48724 0.02524 0.34134 0.0
H204 H 0.55953 0.96882 0.57133 0.0
H205 H 0.47316 0.034 0.32411 0.0
H206 H 0.53403 1.0037 0.19586 0.0
H207 H 0.58604 0.95464 0.48057 0.0
H208 H 0.47725 0.02389 0.45745 0.0
H209 H 0.46789 0.02222 0.93849 0.0
H210 H 0.50042 0.02371 0.22772 0.0
H211 H 0.54732 0.08116 0.65099 0.0
H212 H 0.49468 1.01182 0.84344 0.0
H213 H 0.53992 0.11969 0.66134 0.0
H214 H 0.56384 0.98121 0.2376 0.0
H215 H 0.45657 0.06001 0.95272 0.0
H216 H 0.46116 0.09826 0.91319 0.0
H217 H 0.58349 0.96306 0.34344 0.0
H218 H 0.48063 0.12483 0.83682 0.0
N219 N 0.50011 0.04359 0.80348 0.0
C220 C 0.4906 0.02849 0.84851 0.0
C221 C 0.46876 0.05562 0.9109 0.0
C222 C 0.47867 0.07107 0.86591 0.0
C223 C 0.47499 0.03428 0.90274 0.0
C224 C 0.49465 0.06447 0.81297 0.0
H225 H 0.51007 0.13298 0.74286 0.0
N226 N 0.52134 0.07209 0.72363 0.0
C227 C 0.53004 0.1085 0.69232 0.0
C228 C 0.50555 0.07928 0.77087 0.0
C229 C 0.53418 0.08651 0.68675 0.0
C230 C 0.51317 0.11594 0.73821 0.0
C231 C 0.50089 0.1013 0.77929 0.0
O232 O 0.55648 0.04764 0.75802 0.0
O233 O 0.54069 0.01401 0.62858 0.0
O234 O 0.53473 0.98386 0.65594 0.0
O235 O 0.52188 1.00295 0.75894 0.0
O236 O 0.55406 0.04346 0.64014 0.0
O237 O 0.53838 0.02576 0.82528 0.0
O238 O 0.49361 0.97634 0.61106 0.0
O239 O 0.50314 0.01534 0.66751 0.0
O240 O 0.51156 0.05373 0.62587 0.0
O241 O 0.51812 0.03156 0.5191 0.0
O242 O 0.48242 1.01107 0.57968 0.0
O243 O 0.51263 0.96836 0.5135 0.0
C244 C 0.55521 0.02591 0.60173 0.0
C245 C 0.57574 0.01973 0.81539 0.0
C246 C 0.59191 0.98536 0.84849 0.0
C247 C 0.57472 0.99995 0.85312 0.0
C248 C 0.61014 0.9909 0.8051 0.0
C249 C 0.59435 0.02495 0.77404 0.0
C250 C 0.61132 1.01054 0.76861 0.0
C251 C 0.53 0.98508 0.72979 0.0
C252 C 0.55704 0.03431 0.81429 0.0
C253 C 0.48453 0.10801 0.8298 0.0
C254 C 0.47346 0.09289 0.87326 0.0
C255 C 0.48412 0.01967 0.64682 0.0
C256 C 0.47854 0.95338 0.51936 0.0
C257 C 0.46497 0.96713 0.48002 0.0
C258 C 0.44686 0.95933 0.44182 0.0
C259 C 0.44233 0.93732 0.44403 0.0
C260 C 0.47404 0.93144 0.52094 0.0
C261 C 0.45594 0.92346 0.48332 0.0
C262 C 0.5132 0.05049 0.55061 0.0
C263 C 0.49738 0.9621 0.55813 0.0
H264 H 0.5606 0.99596 0.88617 0.0
H265 H 0.62403 0.98053 0.80201 0.0
H266 H 0.59569 0.04003 0.74454 0.0
H267 H 0.62553 0.01466 0.73626 0.0
H268 H 0.46836 0.98407 0.4804 0.0
H269 H 0.42843 0.93085 0.41508 0.0
H270 H 0.48445 0.92056 0.55116 0.0
H271 H 0.45246 0.90651 0.48465 0.0
Tb272 Tb 0.53418 0.51295 0.57996 0.0
C273 C 0.45469 0.54553 0.70884 0.0
C274 C 0.45471 0.58291 0.74776 0.0
C275 C 0.42267 0.56727 0.69247 0.0
C276 C 0.46536 0.56307 0.73862 0.0
C277 C 0.43292 0.54725 0.6884 0.0
C278 C 0.43356 0.58508 0.7221 0.0
C279 C 0.43209 0.50887 0.67289 0.0
N280 N 0.46506 0.52638 0.70655 0.0
C281 C 0.45369 0.50798 0.69348 0.0
C282 C 0.42182 0.52864 0.66814 0.0
Tb283 Tb 0.5009 0.52733 0.73589 0.0
N284 N 0.48573 0.56028 0.76355 0.0
C285 C 0.49545 0.57621 0.80569 0.0
C286 C 0.46531 0.5997 0.78522 0.0
C287 C 0.48559 0.59618 0.81567 0.0
H288 H 0.46098 0.49243 0.69731 0.0
H289 H 0.49364 0.60884 0.84706 0.0
H290 H 0.42522 0.60027 0.72766 0.0
H291 H 0.42342 0.49428 0.66027 0.0
H292 H 0.51106 0.57402 0.83016 0.0
H293 H 0.60701 0.48351 0.70866 0.0
H294 H 0.45767 0.61516 0.79345 0.0
H295 H 0.52937 0.54013 0.41487 0.0
H296 H 0.56876 0.48369 0.68191 0.0
H297 H 0.55103 0.56483 0.33964 0.0
H298 H 0.40608 0.56895 0.67578 0.0
H299 H 0.63065 0.50998 0.64882 0.0
H300 H 0.63517 0.54037 0.55764 0.0
H301 H 0.40511 0.52927 0.65202 0.0
H302 H 0.61971 0.56331 0.45916 0.0
N303 N 0.56972 0.51155 0.61202 0.0
C304 C 0.57842 0.49598 0.65683 0.0
C305 C 0.61363 0.51084 0.63894 0.0
C306 C 0.60498 0.5259 0.58928 0.0
C307 C 0.60034 0.49567 0.67207 0.0
C308 C 0.58272 0.52569 0.57603 0.0
H309 H 0.58834 0.57246 0.37693 0.0
N310 N 0.55317 0.53542 0.50113 0.0
C311 C 0.55764 0.55771 0.3906 0.0
C312 C 0.57413 0.53813 0.51881 0.0
C313 C 0.54528 0.54379 0.43444 0.0
C314 C 0.57867 0.56199 0.4119 0.0
C315 C 0.58742 0.55155 0.47489 0.0
O316 O 0.55214 0.49304 0.50511 0.0
O317 O 0.50101 0.51533 0.61959 0.0
O318 O 0.4978 0.49343 0.70159 0.0
O319 O 0.53239 0.4873 0.66558 0.0
O320 O 0.50802 0.52645 0.51279 0.0
O321 O 0.51858 0.48822 0.51872 0.0
O322 O 0.51369 0.51065 0.82942 0.0
O323 O 0.53369 0.51935 0.70194 0.0
O324 O 0.53294 0.54817 0.58135 0.0
O325 O 0.50588 0.55707 0.67024 0.0
O326 O 0.52923 0.54518 0.77289 0.0
O327 O 0.48193 0.52293 0.83512 0.0
C328 C 0.49279 0.52426 0.56162 0.0
C329 C 0.53241 0.48376 0.39395 0.0
C330 C 0.51148 0.47261 0.28272 0.0
C331 C 0.5148 0.47306 0.36231 0.0
C332 C 0.52603 0.48315 0.23461 0.0
C333 C 0.54671 0.49442 0.34505 0.0
C334 C 0.54339 0.49421 0.26586 0.0
C335 C 0.51431 0.48029 0.69544 0.0
C336 C 0.53535 0.48361 0.47787 0.0
C337 C 0.60928 0.55304 0.49207 0.0
C338 C 0.61807 0.54007 0.54861 0.0
C339 C 0.54367 0.53415 0.73742 0.0
C340 C 0.50036 0.51924 0.95186 0.0
C341 C 0.5114 0.53807 0.97071 0.0
C342 C 0.51499 0.5438 0.0479 0.0
C343 C 0.50795 0.53005 0.10587 0.0
C344 C 0.49299 0.50597 0.01038 0.0
C345 C 0.49681 0.51136 0.08705 0.0
C346 C 0.51979 0.56207 0.61545 0.0
C347 C 0.49678 0.51289 0.87167 0.0
H348 H 0.50404 0.46444 0.39978 0.0
H349 H 0.52414 0.48259 0.17295 0.0
H350 H 0.56049 0.50283 0.36768 0.0
H351 H 0.55449 0.50236 0.22849 0.0
H352 H 0.51723 0.54819 0.92539 0.0
H353 H 0.51052 0.53409 0.16569 0.0
H354 H 0.48436 0.49139 0.99673 0.0
H355 H 0.49096 0.5011 0.13199 0.0
Tb356 Tb 0.02772 0.54311 0.55209 0.0
C357 C 1.00068 0.46236 0.69037 0.0
C358 C 0.96306 0.46041 0.72549 0.0
C359 C 0.98184 0.42831 0.68246 0.0
C360 C 0.98198 0.4724 0.71549 0.0
C361 C 1.00085 0.44005 0.67576 0.0
C362 C 0.963 0.43846 0.70722 0.0
C363 C 0.039 0.44203 0.65619 0.0
N364 N 0.0189 0.47416 0.6841 0.0
C365 C 0.03813 0.46405 0.67141 0.0
C366 C 0.02025 0.43004 0.65697 0.0
Tb367 Tb 0.01463 0.5102 0.70772 0.0
N368 N 0.98254 0.49368 0.73314 0.0
C369 C 0.9649 0.50356 0.76528 0.0
C370 C 0.94485 0.4707 0.75514 0.0
C371 C 0.94585 0.4923 0.77582 0.0
H372 H 0.05303 0.47259 0.67076 0.0
H373 H 0.9319 0.50035 0.7995 0.0
H374 H 0.94856 0.42907 0.71382 0.0
H375 H 0.05419 0.43432 0.64376 0.0
H376 H 0.96498 0.52036 0.77996 0.0
H377 H 0.10993 0.55416 0.46152 0.0
H378 H 0.93004 0.46203 0.76351 0.0
H379 H 0.9884 0.57958 0.59233 0.0
H380 H 0.07751 0.53348 0.48803 0.0
H381 H 0.98542 0.61817 0.60476 0.0
H382 H 0.98166 0.41124 0.67049 0.0
H383 H 0.11012 0.59332 0.4831 0.0
H384 H 0.08974 0.62672 0.51609 0.0
H385 H 0.02101 0.41298 0.64515 0.0
H386 H 0.05568 0.64398 0.54969 0.0
N387 N 0.05931 0.56045 0.52838 0.0
C388 C 0.07722 0.55051 0.4987 0.0
C389 C 0.09582 0.58426 0.49606 0.0
C390 C 0.0772 0.5945 0.52246 0.0
C391 C 0.09575 0.56219 0.48348 0.0
C392 C 0.05897 0.58202 0.53881 0.0
H393 H 0.01707 0.64103 0.58672 0.0
N394 N 0.0223 0.57925 0.572 0.0
C395 C 1.00085 0.61095 0.59252 0.0
C396 C 0.03986 0.59172 0.5608 0.0
C397 C 1.00277 0.58872 0.58519 0.0
C398 C 0.01878 0.62379 0.58279 0.0
C399 C 0.03852 0.61428 0.56551 0.0
O400 O 1.00483 0.53686 0.46614 0.0
O401 O 0.02089 0.51039 0.58534 0.0
O402 O 0.04922 0.50879 0.68489 0.0
O403 O 0.05585 0.54144 0.62922 0.0
O404 O 0.04514 0.51458 0.51017 0.0
O405 O 0.03401 0.55276 0.43883 0.0
O406 O 0.03334 0.52277 0.79797 0.0
O407 O 0.02114 0.54283 0.67387 0.0
O408 O 0.99252 0.54388 0.56939 0.0
O409 O 0.98562 0.51272 0.63646 0.0
O410 O 0.99706 0.53857 0.75092 0.0
O411 O 0.01616 0.49364 0.81211 0.0
C412 C 0.03418 0.50013 0.54368 0.0
C413 C 0.02034 0.5282 0.34695 0.0
C414 C 0.04332 0.50345 0.27444 0.0
C415 C 0.04043 0.51877 0.33331 0.0
C416 C 0.02579 0.49757 0.22882 0.0
C417 C 1.00304 0.52236 0.30031 0.0
C418 C 1.00582 0.50719 0.24134 0.0
C419 C 0.06226 0.52488 0.67016 0.0
C420 C 0.01712 0.54342 0.41142 0.0
C421 C 0.05663 0.6267 0.54943 0.0
C422 C 0.076 0.61686 0.52923 0.0
C423 C 1.00753 0.55305 0.71468 0.0
C424 C 0.02035 0.51601 0.9207 0.0
C425 C 0.99882 0.52128 0.93061 0.0
C426 C 0.99097 0.52903 1.00107 0.0
C427 C 1.00534 0.53233 0.0618 0.0
C428 C 0.03458 0.51911 0.98167 0.0
C429 C 0.02707 0.52735 0.05197 0.0
C430 C 0.97919 0.52872 0.59297 0.0
C431 C 0.02788 0.50809 0.8457 0.0
H432 H 0.05389 0.52319 0.36891 0.0
H433 H 0.02766 0.48604 0.18227 0.0
H434 H 0.98739 0.52948 0.30969 0.0
H435 H 0.99249 0.50299 0.20478 0.0
H436 H 0.98815 0.51945 0.88275 0.0
H437 H 0.99976 0.53842 0.11682 0.0
H438 H 0.05141 0.51537 0.9747 0.0
H439 H 0.03809 0.52978 0.09898 0.0
H440 H 0.23068 1.01114 0.16645 0.0
H441 H 0.19568 1.00857 0.22978 0.0
H442 H 0.17614 0.06749 0.12418 0.0
H443 H 0.21162 0.07018 0.06288 0.0
H444 H 0.16561 0.0699 0.26625 0.0
H445 H 0.15389 0.01557 0.07703 0.0
H446 H 0.1616 0.98301 1.00004 0.0
H447 H 0.16172 0.94545 0.20437 0.0
H448 H 0.15429 0.97783 0.28275 0.0
H449 H 0.0568 0.05814 0.41306 0.0
H450 H 0.08761 0.06086 0.32468 0.0
H451 H 0.11878 1.00944 0.44328 0.0
H452 H 0.08818 1.00706 0.53078 0.0
H453 H 0.12154 1.00438 0.28611 0.0
H454 H 0.13101 0.06046 0.47349 0.0
H455 H 0.12323 0.09379 0.54542 0.0
H456 H 0.1279 0.12964 0.33783 0.0
H457 H 0.13437 0.09639 0.2638 0.0
C458 C 0.21859 0.02308 0.1547 0.0
C459 C 0.22369 0.04056 0.10815 0.0
C460 C 0.19852 0.02171 0.19123 0.0
C461 C 0.18283 0.03772 0.18178 0.0
C462 C 0.18774 0.05484 0.13284 0.0
C463 C 0.20791 0.05626 0.0967 0.0
C464 C 0.16208 0.03732 0.2269 0.0
C465 C 0.15573 0.05569 0.26904 0.0
C466 C 0.14922 0.0187 0.2327 0.0
C467 C 0.15371 0.99918 0.18583 0.0
C468 C 0.15572 1.0004 0.10562 0.0
C469 C 0.16001 0.98196 0.06172 0.0
C470 C 0.1622 0.96219 0.09731 0.0
C471 C 0.16004 0.96079 0.17688 0.0
C472 C 0.15577 0.97917 0.22107 0.0
C473 C 0.0704 0.04779 0.42081 0.0
C474 C 0.0705 0.03329 0.48171 0.0
C475 C 0.08802 0.04921 0.37009 0.0
C476 C 0.10592 0.03562 0.37779 0.0
C477 C 0.10547 0.02039 0.43642 0.0
C478 C 0.08808 0.0193 0.48762 0.0
C479 C 0.1251 0.03698 0.32526 0.0
C480 C 0.13122 0.01872 0.28221 0.0
C481 C 0.13756 0.05584 0.31793 0.0
C482 C 0.13271 0.07575 0.36257 0.0
C483 C 0.1298 0.07533 0.44267 0.0
C484 C 0.12563 0.09426 0.48394 0.0
C485 C 0.12484 0.11381 0.44614 0.0
C486 C 0.12826 0.11447 0.36701 0.0
C487 C 0.132 0.09556 0.32526 0.0
H488 H 0.12172 0.12846 0.4782 0.0
H489 H 0.16552 0.94793 0.06322 0.0
H490 H 0.45888 0.21277 0.13709 0.0
H491 H 0.46418 0.1781 0.19839 0.0
H492 H 0.53131 0.19218 0.2248 0.0
H493 H 0.52571 0.22723 0.16515 0.0
H494 H 0.48595 0.14229 0.1795 0.0
H495 H 0.54815 0.17374 0.39821 0.0
H496 H 0.55896 0.20795 0.45888 0.0
H497 H 0.49573 0.23326 0.42619 0.0
H498 H 0.48447 0.19912 0.36655 0.0
H499 H 0.52547 0.05455 0.39979 0.0
H500 H 0.52142 0.08571 0.31762 0.0
H501 H 0.49001 0.12011 0.5028 0.0
H502 H 0.49397 0.08902 0.58505 0.0
H503 H 0.51744 0.14538 0.43992 0.0
H504 H 0.46241 0.09975 0.34319 0.0
H505 H 0.44629 0.06692 0.28895 0.0
H506 H 0.48686 0.07128 0.09029 0.0
H507 H 0.50338 0.10405 0.14371 0.0
C508 C 0.47482 0.20824 0.15488 0.0
C509 C 0.49186 0.22269 0.14673 0.0
C510 C 0.47788 0.18839 0.18976 0.0
C511 C 0.49809 0.18249 0.21769 0.0
C512 C 0.51547 0.19639 0.20501 0.0
C513 C 0.51236 0.21633 0.17016 0.0
C514 C 0.50045 0.16272 0.265 0.0
C515 C 0.49303 0.14294 0.23615 0.0
C516 C 0.50906 0.16349 0.34009 0.0
C517 C 0.51557 0.18396 0.3771 0.0
C518 C 0.53655 0.18659 0.40426 0.0
C519 C 0.54275 0.20596 0.43846 0.0
C520 C 0.52806 0.22279 0.44614 0.0
C521 C 0.50711 0.22024 0.42 0.0
C522 C 0.50081 0.20088 0.38598 0.0
C523 C 0.51745 0.06864 0.42284 0.0
C524 C 0.51002 0.06917 0.49927 0.0
C525 C 0.51514 0.08652 0.37559 0.0
C526 C 0.50525 0.10539 0.40339 0.0
C527 C 0.49776 0.10587 0.47965 0.0
C528 C 0.50005 0.08802 0.52683 0.0
C529 C 0.50322 0.12482 0.35417 0.0
C530 C 0.51064 0.14459 0.38284 0.0
C531 C 0.49403 0.1241 0.27988 0.0
C532 C 0.48432 0.10424 0.24792 0.0
C533 C 0.46804 0.09361 0.28828 0.0
C534 C 0.45878 0.07504 0.25758 0.0
C535 C 0.46561 0.06697 0.18639 0.0
C536 C 0.48164 0.07751 0.14557 0.0
C537 C 0.49093 0.09611 0.17598 0.0
H538 H 0.45843 0.05259 0.16278 0.0
H539 H 0.53291 0.23778 0.47251 0.0
H540 H 0.32125 0.47918 0.17876 0.0
H541 H 0.35569 0.48244 0.24506 0.0
H542 H 0.34352 0.54956 0.28582 0.0
H543 H 0.30849 0.54603 0.22231 0.0
H544 H 0.38943 0.53566 0.2347 0.0
H545 H 0.33367 0.52225 0.42432 0.0
H546 H 0.30302 0.50172 0.47362 0.0
H547 H 0.34192 0.445 0.48003 0.0
H548 H 0.37272 0.46513 0.42939 0.0
H549 H 0.46682 0.55706 0.52145 0.0
H550 H 0.43248 0.55496 0.45385 0.0
H551 H 0.43492 0.48606 0.46323 0.0
H552 H 0.46931 0.48825 0.53106 0.0
H553 H 0.39388 0.50039 0.48751 0.0
H554 H 0.44907 0.51023 0.30842 0.0
H555 H 0.48104 0.52659 0.252 0.0
H556 H 0.44549 0.58404 0.20839 0.0
H557 H 0.41351 0.56846 0.26913 0.0
C558 C 0.32607 0.4947 0.20091 0.0
C559 C 0.31216 0.51236 0.19485 0.0
C560 C 0.34577 0.49655 0.23886 0.0
C561 C 0.35229 0.51623 0.27091 0.0
C562 C 0.33896 0.53422 0.26136 0.0
C563 C 0.31901 0.53225 0.22449 0.0
C564 C 0.37221 0.51755 0.31869 0.0
C565 C 0.39028 0.52831 0.29058 0.0
C566 C 0.37377 0.50711 0.39018 0.0
C567 C 0.35543 0.49515 0.42239 0.0
C568 C 0.33564 0.50537 0.4357 0.0
C569 C 0.31825 0.49381 0.46397 0.0
C570 C 0.32051 0.47206 0.47977 0.0
C571 C 0.34019 0.46184 0.46766 0.0
C572 C 0.35762 0.47332 0.43924 0.0
C573 C 0.45971 0.5415 0.51077 0.0
C574 C 0.47035 0.52286 0.53405 0.0
C575 C 0.44015 0.54028 0.47153 0.0
C576 C 0.43093 0.52034 0.45296 0.0
C577 C 0.44144 0.50166 0.4773 0.0
C578 C 0.46107 0.5029 0.51641 0.0
C579 C 0.41107 0.519 0.40454 0.0
C580 C 0.39305 0.50802 0.4321 0.0
C581 C 0.40977 0.52874 0.33152 0.0
C582 C 0.42893 0.53828 0.29462 0.0
C583 C 0.44812 0.5265 0.28805 0.0
C584 C 0.46628 0.53566 0.25524 0.0
C585 C 0.46537 0.55643 0.22669 0.0
C586 C 0.44625 0.56806 0.23115 0.0
C587 C 0.42811 0.5591 0.26517 0.0
H588 H 0.47943 0.56348 0.20091 0.0
H589 H 0.30702 0.46313 0.50156 0.0
H590 H 0.06313 0.33069 0.12105 0.0
H591 H 0.05947 0.36493 0.19039 0.0
H592 H 0.99821 0.34497 0.27857 0.0
H593 H 1.00182 0.31074 0.20704 0.0
H594 H 0.99685 0.38719 0.25366 0.0
H595 H 0.04498 0.34155 0.38584 0.0
H596 H 0.07611 0.3176 0.39994 0.0
H597 H 0.11833 0.3687 0.33794 0.0
H598 H 0.08742 0.39287 0.32213 0.0
H599 H 0.99843 0.47339 0.53498 0.0
H600 H 0.99591 0.43825 0.47072 0.0
H601 H 0.06112 0.4446 0.39129 0.0
H602 H 0.06416 0.4783 0.46199 0.0
H603 H 0.05783 0.40688 0.42066 0.0
H604 H 1.00727 0.45216 0.28056 0.0
H605 H 0.9748 0.47464 0.27042 0.0
H606 H 0.93622 0.42325 0.35388 0.0
H607 H 0.96836 0.40051 0.36553 0.0
C608 C 0.04866 0.33385 0.15377 0.0
C609 C 0.03271 0.31805 0.15797 0.0
C610 C 0.04664 0.35338 0.19434 0.0
C611 C 0.02876 0.35765 0.24186 0.0
C612 C 0.01224 0.34227 0.24298 0.0
C613 C 0.01422 0.3227 0.20169 0.0
C614 C 0.02799 0.37758 0.29259 0.0
C615 C 1.01015 0.39139 0.29056 0.0
C616 C 0.04519 0.38338 0.34154 0.0
C617 C 0.06385 0.36898 0.35218 0.0
C618 C 0.06089 0.34765 0.37478 0.0
C619 C 0.0785 0.33403 0.38309 0.0
C620 C 0.09918 0.34161 0.36969 0.0
C621 C 0.1023 0.36284 0.3482 0.0
C622 C 0.08474 0.37652 0.33959 0.0
C623 C 0.01238 0.46692 0.50574 0.0
C624 C 0.03176 0.47838 0.50653 0.0
C625 C 1.01081 0.44695 0.46686 0.0
C626 C 0.02821 0.4384 0.42385 0.0
C627 C 0.04737 0.45027 0.42381 0.0
C628 C 0.04912 0.46975 0.46444 0.0
C629 C 0.02708 0.41725 0.37945 0.0
C630 C 0.04456 0.40295 0.38325 0.0
C631 C 1.00948 0.41102 0.3326 0.0
C632 C 0.99023 0.4247 0.32449 0.0
C633 C 0.99187 0.44569 0.29697 0.0
C634 C 0.97355 0.45847 0.29099 0.0
C635 C 0.95353 0.45041 0.31158 0.0
C636 C 0.95175 0.42949 0.33803 0.0
C637 C 0.96999 0.41664 0.34431 0.0
H638 H 0.9394 0.46036 0.30691 0.0
H639 H 0.11279 0.33104 0.37611 0.0
H640 H 0.80091 0.99967 0.02358 0.0
H641 H 0.8357 1.00144 0.95874 0.0
H642 H 0.86738 1.00024 0.17755 0.0
H643 H 0.83224 0.99779 0.24273 0.0
H644 H 0.88592 0.03027 0.06307 0.0
H645 H 0.86608 0.95607 0.08579 0.0
H646 H 0.84121 0.92569 0.07263 0.0
H647 H 0.83873 0.9348 0.82922 0.0
H648 H 0.86328 0.96551 0.84111 0.0
H649 H 0.98744 1.01156 0.88918 0.0
H650 H 0.9563 1.00801 0.9733 0.0
H651 H 0.91801 0.98869 0.77943 0.0
H652 H 0.94952 0.9906 0.69665 0.0
H653 H 0.90375 0.96857 0.89179 0.0
H654 H 0.92004 0.04304 0.86322 0.0
H655 H 0.94353 0.07469 0.86834 0.0
H656 H 0.95079 0.06734 0.1113 0.0
H657 H 0.92764 0.0354 0.1074 0.0
C658 C 0.81528 0.99987 0.05796 0.0
C659 C 0.81379 0.99828 0.13828 0.0
C660 C 0.83521 1.00095 0.02081 0.0
C661 C 0.85434 1.00071 0.06283 0.0
C662 C 0.85292 1.00041 0.14357 0.0
C663 C 0.83284 0.9991 0.18092 0.0
C664 C 0.87554 0.99946 0.02147 0.0
C665 C 0.88999 0.01662 0.02666 0.0
C666 C 0.88075 0.98198 0.97194 0.0
C667 C 0.86639 0.9632 0.96444 0.0
C668 C 0.86012 0.95168 0.02951 0.0
C669 C 0.84609 0.93439 0.02228 0.0
C670 C 0.83836 0.92834 0.95016 0.0
C671 C 0.84471 0.93952 0.88507 0.0
C672 C 0.8587 0.95686 0.89201 0.0
C673 C 0.97245 1.00648 0.86421 0.0
C674 C 0.97085 1.00262 0.78459 0.0
C675 C 0.95447 1.00459 0.91266 0.0
C676 C 0.93424 0.99906 0.88293 0.0
C677 C 0.93309 0.99352 0.80448 0.0
C678 C 0.95116 0.995 0.75647 0.0
C679 C 0.91426 0.99952 0.93237 0.0
C680 C 0.8999 0.98221 0.92856 0.0
C681 C 0.90896 0.01709 0.98192 0.0
C682 C 0.92227 0.03671 0.98491 0.0
C683 C 0.9267 0.04814 0.91771 0.0
C684 C 0.93997 0.06611 0.92036 0.0
C685 C 0.94869 0.07299 0.99006 0.0
C686 C 0.94406 0.06197 0.05733 0.0
C687 C 0.93086 0.04393 0.05494 0.0
H688 H 0.95901 0.08687 0.99197 0.0
H689 H 0.82747 0.91497 0.94468 0.0
H690 H 0.5791 0.82447 0.15968 0.0
H691 H 0.57489 0.85837 0.09131 0.0
H692 H 0.50855 0.84369 0.05071 0.0
H693 H 0.51289 0.80963 0.11835 0.0
H694 H 0.52726 0.8564 0.92168 0.0
H695 H 0.52326 0.88112 0.17683 0.0
H696 H 0.53188 0.889 0.31183 0.0
H697 H 0.58642 0.92561 0.24186 0.0
H698 H 0.57871 0.91717 0.10631 0.0
H699 H 0.5161 0.98031 0.87758 0.0
H700 H 0.5191 0.94894 0.95831 0.0
H701 H 0.55466 0.91599 0.77955 0.0
H702 H 0.55107 0.94724 0.69717 0.0
H703 H 0.54884 0.92775 0.02208 0.0
H704 H 0.544 0.86274 0.78162 0.0
H705 H 0.52871 0.85863 0.65204 0.0
H706 H 0.48121 0.90639 0.70627 0.0
H707 H 0.49598 0.91051 0.83651 0.0
C708 C 0.56358 0.82868 0.13694 0.0
C709 C 0.54628 0.81453 0.14451 0.0
C710 C 0.56116 0.84808 0.09827 0.0
C711 C 0.5414 0.85379 0.06613 0.0
C712 C 0.52397 0.83976 0.07494 0.0
C713 C 0.52637 0.8204 0.11409 0.0
C714 C 0.53929 0.87375 0.01998 0.0
C715 C 0.53204 0.87196 0.9439 0.0
C716 C 0.54504 0.8943 0.049 0.0
C717 C 0.55063 0.8981 0.13095 0.0
C718 C 0.53743 0.89037 0.19 0.0
C719 C 0.54212 0.895 0.26678 0.0
C720 C 0.55979 0.90765 0.28543 0.0
C721 C 0.57286 0.91563 0.22734 0.0
C722 C 0.56837 0.91086 0.15052 0.0
C723 C 0.52455 0.96641 0.85512 0.0
C724 C 0.53307 0.96626 0.78019 0.0
C725 C 0.52636 0.94844 0.90178 0.0
C726 C 0.53679 0.92981 0.875 0.0
C727 C 0.54607 0.92991 0.80121 0.0
C728 C 0.54408 0.94785 0.75411 0.0
C729 C 0.53738 0.91022 0.9237 0.0
C730 C 0.54431 0.91209 1.00005 0.0
C731 C 0.53065 0.8899 0.89604 0.0
C732 C 0.52126 0.88708 0.81855 0.0
C733 C 0.53022 0.87227 0.76603 0.0
C734 C 0.52165 0.86995 0.69245 0.0
C735 C 0.50405 0.8823 0.67086 0.0
C736 C 0.49489 0.89689 0.72298 0.0
C737 C 0.50335 0.89921 0.79667 0.0
H738 H 0.49748 0.88053 0.61381 0.0
H739 H 0.56328 0.9114 0.34486 0.0
H740 H 0.70143 0.5646 0.2141 0.0
H741 H 0.66689 0.56078 0.14726 0.0
H742 H 0.69434 0.51127 1.0025 0.0
H743 H 0.72855 0.51506 0.0698 0.0
H744 H 0.6769 0.54415 0.9201 0.0
H745 H 0.65582 0.50098 0.13659 0.0
H746 H 0.64793 0.49394 0.27259 0.0
H747 H 0.60015 0.54348 0.27474 0.0
H748 H 0.60812 0.55122 0.13946 0.0
H749 H 0.56098 0.50175 0.82208 0.0
H750 H 0.59412 0.50262 0.89724 0.0
H751 H 0.60652 0.56649 0.81825 0.0
H752 H 0.5742 0.56501 0.73992 0.0
H753 H 0.60405 0.52737 0.01471 0.0
H754 H 0.64353 0.58044 0.82824 0.0
H755 H 0.65603 0.5904 0.69902 0.0
H756 H 0.67059 0.52452 0.64742 0.0
H757 H 0.6573 0.51415 0.77537 0.0
C758 C 0.69971 0.5523 0.17021 0.0
C759 C 0.71753 0.53976 0.14833 0.0
C760 C 0.68002 0.55022 0.13149 0.0
C761 C 0.67782 0.53571 0.0694 0.0
C762 C 0.69543 0.52255 0.05008 0.0
C763 C 0.71495 0.52451 0.08911 0.0
C764 C 0.65828 0.53564 0.0191 0.0
C765 C 0.66099 0.5404 0.94117 0.0
C766 C 0.63728 0.53135 0.04603 0.0
C767 C 0.6328 0.52687 0.12795 0.0
C768 C 0.64386 0.5106 0.16631 0.0
C769 C 0.63933 0.50645 0.24334 0.0
C770 C 0.62362 0.51834 0.28247 0.0
C771 C 0.61239 0.53437 0.24461 0.0
C772 C 0.61692 0.53865 0.16775 0.0
C773 C 0.57132 0.51559 0.81823 0.0
C774 C 0.56548 0.53289 0.7719 0.0
C775 C 0.59021 0.51622 0.86205 0.0
C776 C 0.6036 0.53438 0.86237 0.0
C777 C 0.59749 0.55178 0.8167 0.0
C778 C 0.57876 0.55102 0.77212 0.0
C779 C 0.62273 0.5356 0.91519 0.0
C780 C 0.61996 0.53111 0.99375 0.0
C781 C 0.64367 0.54081 0.88973 0.0
C782 C 0.64865 0.54645 0.80981 0.0
C783 C 0.6488 0.56804 0.78832 0.0
C784 C 0.65611 0.57376 0.71557 0.0
C785 C 0.66398 0.55808 0.66487 0.0
C786 C 0.66434 0.53663 0.68658 0.0
C787 C 0.65663 0.53079 0.75874 0.0
H788 H 0.66985 0.56255 0.60884 0.0
H789 H 0.62009 0.51508 0.34203 0.0
H790 H 0.9674 0.72591 0.10231 0.0
H791 H 0.97215 0.69152 0.03594 0.0
H792 H 0.04064 0.69973 0.04267 0.0
H793 H 0.03565 0.73495 0.10555 0.0
H794 H 0.03265 0.68498 0.91154 0.0
H795 H 1.00997 0.66047 0.15409 0.0
H796 H 0.98773 0.65729 0.2706 0.0
H797 H 0.93438 0.63697 0.13378 0.0
H798 H 0.95624 0.64042 0.01636 0.0
H799 H 0.04398 0.57722 0.74498 0.0
H800 H 0.04617 0.6103 0.82204 0.0
H801 H 0.97727 0.61219 0.83901 0.0
H802 H 0.97534 0.57845 0.76703 0.0
H803 H 0.99015 0.62038 0.9696 0.0
H804 H 0.01527 0.66608 0.73392 0.0
H805 H 0.04069 0.67425 0.62953 0.0
H806 H 0.09293 0.652 0.76664 0.0
H807 H 0.06786 0.64476 0.87314 0.0
C808 C 0.9835 0.7203 0.09028 0.0
C809 C 1.00111 0.73332 0.10952 0.0
C810 C 0.98627 0.70039 0.05269 0.0
C811 C 1.00683 0.69241 0.03431 0.0
C812 C 0.02454 0.70518 0.05563 0.0
C813 C 0.02173 0.7253 0.09265 0.0
C814 C 1.00964 0.67152 0.98931 0.0
C815 C 0.02348 0.67082 0.92535 0.0
C816 C 0.99792 0.65263 1.00578 0.0
C817 C 0.98468 0.65087 0.07631 0.0
C818 C 0.99344 0.65552 0.14877 0.0
C819 C 0.98092 0.65365 0.21501 0.0
C820 C 0.95964 0.64699 0.2096 0.0
C821 C 0.95085 0.64217 0.13792 0.0
C822 C 0.96329 0.64407 0.07153 0.0
C823 C 0.02931 0.58499 0.76381 0.0
C824 C 1.00944 0.57522 0.7488 0.0
C825 C 0.03052 0.60421 0.80773 0.0
C826 C 0.01187 0.61453 0.83659 0.0
C827 C 0.99205 0.60493 0.81876 0.0
C828 C 0.9909 0.58559 0.77672 0.0
C829 C 0.01247 0.63414 0.88974 0.0
C830 C 0.99928 0.63457 0.95579 0.0
C831 C 0.02517 0.65258 0.87645 0.0
C832 C 0.0397 0.65429 0.81015 0.0
C833 C 0.03215 0.66265 0.74114 0.0
C834 C 0.04652 0.66742 0.68219 0.0
C835 C 0.0684 0.66347 0.6912 0.0
C836 C 0.07598 0.65494 0.75954 0.0
C837 C 0.06173 0.65068 0.8194 0.0
H838 H 0.07948 0.66708 0.64528 0.0
H839 H 0.94998 0.64552 0.26095 0.0
H840 H 0.03501 0.22909 0.16794 0.0
H841 H 0.05344 0.19696 0.21093 0.0
H842 H 0.11426 0.22484 0.15065 0.0
H843 H 0.09544 0.25738 0.10725 0.0
H844 H 0.08771 0.16914 0.12264 0.0
H845 H 0.13464 0.21666 0.27216 0.0
H846 H 0.14178 0.25171 0.33394 0.0
H847 H 0.08481 0.24566 0.47071 0.0
H848 H 0.07726 0.21069 0.40908 0.0
H849 H 0.05301 0.09048 0.35738 0.0
H850 H 0.08513 0.10882 0.31538 0.0
H851 H 0.06088 0.16765 0.41705 0.0
H852 H 0.03053 0.14855 0.46812 0.0
H853 H 0.0998 0.17334 0.40312 0.0
H854 H 0.04701 0.14068 0.19367 0.0
H855 H 0.0347 0.1068 0.13371 0.0
H856 H 0.09978 0.085 0.11376 0.0
H857 H 0.11239 0.11885 0.17282 0.0
C858 C 0.05226 0.22813 0.16259 0.0
C859 C 0.06389 0.24539 0.13406 0.0
C860 C 0.06278 0.20988 0.18706 0.0
C861 C 0.08519 0.20855 0.18375 0.0
C862 C 0.09697 0.22563 0.15377 0.0
C863 C 0.08631 0.24408 0.12918 0.0
C864 C 0.09531 0.18969 0.21861 0.0
C865 C 0.09136 0.16981 0.18344 0.0
C866 C 0.10065 0.19049 0.29712 0.0
C867 C 0.10541 0.21114 0.33602 0.0
C868 C 0.12365 0.22286 0.31535 0.0
C869 C 0.12775 0.2427 0.35028 0.0
C870 C 0.11375 0.25092 0.40618 0.0
C871 C 0.09565 0.23927 0.42746 0.0
C872 C 0.09148 0.21943 0.39267 0.0
C873 C 0.05525 0.10697 0.37487 0.0
C874 C 0.03905 0.11814 0.41499 0.0
C875 C 0.07345 0.1177 0.34894 0.0
C876 C 0.07514 0.14001 0.35893 0.0
C877 C 0.06013 0.15052 0.40694 0.0
C878 C 0.04244 0.13965 0.43537 0.0
C879 C 0.08906 0.15341 0.30903 0.0
C880 C 0.09788 0.17213 0.3414 0.0
C881 C 0.08805 0.15161 0.22783 0.0
C882 C 0.08056 0.13203 0.18819 0.0
C883 C 0.05863 0.12868 0.17587 0.0
C884 C 0.05162 0.1095 0.14231 0.0
C885 C 0.06644 0.09369 0.1207 0.0
C886 C 0.08833 0.09719 0.13111 0.0
C887 C 0.09541 0.11637 0.16433 0.0
H888 H 0.06099 0.07874 0.0957 0.0
H889 H 0.11692 0.2663 0.43303 0.0
H890 H 0.2972 0.08436 0.18574 0.0
H891 H 0.33159 0.08402 0.25529 0.0
H892 H 0.34372 0.01993 0.16984 0.0
H893 H 0.3091 0.01974 0.10607 0.0
H894 H 0.34429 0.04922 0.36787 0.0
H895 H 0.39912 0.0281 0.09149 0.0
H896 H 0.40524 0.04431 0.96557 0.0
H897 H 0.3728 0.10146 0.03924 0.0
H898 H 0.36793 0.08663 0.16786 0.0
H899 H 0.40301 0.9606 0.44293 0.0
H900 H 0.38022 0.98884 0.39279 0.0
H901 H 0.4361 0.02215 0.31037 0.0
H902 H 0.45847 0.99236 0.35121 0.0
H903 H 0.40972 0.03019 0.21941 0.0
H904 H 0.40597 0.03795 0.48162 0.0
H905 H 0.40334 0.02848 0.61775 0.0
H906 H 0.33787 1.00974 0.58677 0.0
H907 H 0.34025 0.0184 0.44966 0.0
C908 C 0.30727 0.07024 0.18285 0.0
C909 C 0.30081 0.05208 0.14071 0.0
C910 C 0.32684 0.07014 0.22164 0.0
C911 C 0.3402 0.05211 0.21614 0.0
C912 C 0.33374 0.03414 0.1733 0.0
C913 C 0.31409 0.03403 0.13683 0.0
C914 C 0.36032 0.05049 0.25881 0.0
C915 C 0.35888 0.04542 0.3365 0.0
C916 C 0.37968 0.04712 0.21837 0.0
C917 C 0.38287 0.05602 0.14008 0.0
C918 C 0.39346 0.04422 0.08174 0.0
C919 C 0.39674 0.05318 0.00957 0.0
C920 C 0.38912 0.07366 0.99396 0.0
C921 C 0.37855 0.08549 0.05109 0.0
C922 C 0.37563 0.07687 0.12391 0.0
C923 C 0.41035 0.9737 0.41253 0.0
C924 C 0.43261 0.97471 0.4031 0.0
C925 C 0.39738 0.99017 0.38558 0.0
C926 C 0.40649 1.00833 0.35139 0.0
C927 C 0.42864 1.0087 0.33827 0.0
C928 C 0.44147 0.99185 0.36252 0.0
C929 C 0.39265 0.02629 0.3263 0.0
C930 C 0.39557 0.03453 0.25228 0.0
C931 C 0.37517 0.03371 0.37175 0.0
C932 C 0.37333 0.02884 0.45488 0.0
C933 C 0.39102 0.03172 0.5036 0.0
C934 C 0.38957 0.02645 0.58107 0.0
C935 C 0.37044 0.01849 0.61096 0.0
C936 C 0.35268 0.0159 0.56349 0.0
C937 C 0.35407 0.021 0.4858 0.0
H938 H 0.36937 0.01425 0.67079 0.0
H939 H 0.39154 0.08039 0.93773 0.0
H940 H 0.49497 0.30606 0.21377 0.0
H941 H 0.48281 0.34215 0.24897 0.0
H942 H 0.42191 0.32954 0.14174 0.0
H943 H 0.43429 0.29302 0.10766 0.0
H944 H 0.4418 0.36501 0.0863 0.0
H945 H 0.42042 0.34158 0.32721 0.0
H946 H 0.42226 0.32052 0.44543 0.0
H947 H 0.47914 0.35404 0.51294 0.0
H948 H 0.47793 0.37506 0.39449 0.0
H949 H 0.46962 0.47041 0.32966 0.0
H950 H 0.44442 0.44157 0.29893 0.0
H951 H 0.48968 0.41521 0.13489 0.0
H952 H 0.51488 0.44342 0.16729 0.0
H953 H 0.45512 0.40225 0.33429 0.0
H954 H 0.46498 0.38275 1.00179 0.0
H955 H 0.46276 0.40157 0.8799 0.0
H956 H 0.43024 0.45415 0.99111 0.0
H957 H 0.43072 0.43493 0.11338 0.0
C958 C 0.47878 0.3109 0.20024 0.0
C959 C 0.46544 0.29715 0.1587 0.0
C960 C 0.47178 0.33137 0.2204 0.0
C961 C 0.45133 0.33841 0.19881 0.0
C962 C 0.43761 0.32428 0.1597 0.0
C963 C 0.4446 0.30358 0.14042 0.0
C964 C 0.44618 0.36141 0.20747 0.0
C965 C 0.44437 0.37335 0.14039 0.0
C966 C 0.44845 0.37207 0.2789 0.0
C967 C 0.44902 0.35997 0.35175 0.0
C968 C 0.43335 0.34446 0.36714 0.0
C969 C 0.4343 0.3325 0.43419 0.0
C970 C 0.45081 0.33594 0.48657 0.0
C971 C 0.46634 0.35143 0.47229 0.0
C972 C 0.4655 0.36342 0.40524 0.0
C973 C 0.47385 0.45877 0.28543 0.0
C974 C 0.49423 0.45905 0.25077 0.0
C975 C 0.45942 0.4424 0.26767 0.0
C976 C 0.46511 0.42626 0.21448 0.0
C977 C 0.48469 0.42769 0.17496 0.0
C978 C 0.49913 0.44391 0.19318 0.0
C979 C 0.45327 0.40576 0.2116 0.0
C980 C 0.45177 0.39425 0.28009 0.0
C981 C 0.44818 0.39551 0.14112 0.0
C982 C 0.44794 0.40732 0.06749 0.0
C983 C 0.45706 0.39819 1.00056 0.0
C984 C 0.45611 0.40896 0.93108 0.0
C985 C 0.44661 0.42918 0.92773 0.0
C986 C 0.43771 0.43853 0.99382 0.0
C987 C 0.43818 0.42761 0.06326 0.0
H988 H 0.44608 0.43757 0.87388 0.0
H989 H 0.45159 0.32654 0.53806 0.0
H990 H 0.23281 0.49994 0.29292 0.0
H991 H 0.19646 0.48603 0.30928 0.0
H992 H 0.20151 0.45343 0.09026 0.0
H993 H 0.23789 0.46749 0.07404 0.0
H994 H 0.16993 0.48374 0.09706 0.0
H995 H 0.19101 0.42397 0.24294 0.0
H996 H 0.21037 0.40461 0.34351 0.0
H997 H 0.17775 0.44172 0.51745 0.0
H998 H 0.15842 0.46155 0.41801 0.0
H999 H 0.05481 0.46149 0.24707 0.0
H1000 H 0.09118 0.44743 0.22313 0.0
H1001 H 0.11649 0.51136 0.2459 0.0
H1002 H 0.08061 0.52542 0.26814 0.0
H1003 H 0.13087 0.45257 0.31708 0.0
H1004 H 0.14874 0.51912 0.10191 0.0
H1005 H 0.12835 0.54124 0.01237 0.0
H1006 H 0.08385 0.48984 0.97611 0.0
H1007 H 0.10413 0.46733 0.06542 0.0
C1008 C 0.22639 0.48903 0.2501 0.0
C1009 C 0.23791 0.48461 0.18251 0.0
C1010 C 0.20571 0.48107 0.25935 0.0
C1011 C 0.19633 0.46866 0.20089 0.0
C1012 C 0.2085 0.46295 0.13586 0.0
C1013 C 0.22919 0.47089 0.1267 0.0
C1014 C 0.17286 0.46572 0.20082 0.0
C1015 C 0.16135 0.47621 0.14364 0.0
C1016 C 0.16176 0.45622 0.26248 0.0
C1017 C 0.17328 0.4443 0.32281 0.0
C1018 C 0.18805 0.42811 0.30261 0.0
C1019 C 0.19901 0.41703 0.35945 0.0
C1020 C 0.19529 0.42194 0.43681 0.0
C1021 C 0.18059 0.43792 0.4575 0.0
C1022 C 0.16959 0.44906 0.40088 0.0
C1023 C 0.06819 0.47247 0.24646 0.0
C1024 C 0.06493 0.49453 0.2594 0.0
C1025 C 0.08888 0.46441 0.2336 0.0
C1026 C 0.10639 0.47841 0.23246 0.0
C1027 C 0.10312 0.50034 0.24625 0.0
C1028 C 0.08263 0.50833 0.25921 0.0
C1029 C 0.12826 0.47084 0.21387 0.0
C1030 C 0.13943 0.45884 0.26807 0.0
C1031 C 0.13918 0.47884 0.14923 0.0
C1032 C 0.1279 0.49159 0.09065 0.0
C1033 C 0.13478 0.51243 0.07405 0.0
C1034 C 0.12315 0.52508 0.02361 0.0
C1035 C 0.10467 0.51703 0.989 0.0
C1036 C 0.09803 0.49614 1.00361 0.0
C1037 C 0.10959 0.48343 0.05411 0.0
H1038 H 0.09549 0.52691 0.95066 0.0
H1039 H 0.2038 0.41334 0.48074 0.0
H1040 H 1.00476 0.8261 0.11697 0.0
H1041 H 0.98893 0.85776 0.06121 0.0
H1042 H 0.92713 0.82719 0.06053 0.0
H1043 H 0.94303 0.79569 0.12221 0.0
H1044 H 0.93992 0.83935 0.91782 0.0
H1045 H 0.92153 0.88858 0.13044 0.0
H1046 H 0.92449 0.90678 0.2567 0.0
H1047 H 0.99164 0.91668 0.21806 0.0
H1048 H 0.98889 0.89906 0.0907 0.0
H1049 H 0.98601 0.95401 0.82592 0.0
H1050 H 0.9542 0.93508 0.86535 0.0
H1051 H 0.98153 0.87604 0.77672 0.0
H1052 H 1.01173 0.89537 0.72735 0.0
H1053 H 0.95984 0.91444 0.97657 0.0
H1054 H 0.9569 0.83273 0.79691 0.0
H1055 H 0.94946 0.82199 0.66342 0.0
H1056 H 0.91689 0.88154 0.62691 0.0
H1057 H 0.92369 0.89255 0.76079 0.0
C1058 C 0.98761 0.82662 0.10976 0.0
C1059 C 0.97506 0.80868 0.12576 0.0
C1060 C 0.9785 0.84473 0.07722 0.0
C1061 C 0.95669 0.84512 0.05803 0.0
C1062 C 0.94389 0.82743 0.07606 0.0
C1063 C 0.95297 0.80946 0.11079 0.0
C1064 C 0.9491 0.86202 1.00575 0.0
C1065 C 0.94379 0.85594 0.93024 0.0
C1066 C 0.95267 0.88384 0.02272 0.0
C1067 C 0.95509 0.89212 0.10207 0.0
C1068 C 0.93696 0.89442 0.14939 0.0
C1069 C 0.93853 0.90492 0.22055 0.0
C1070 C 0.95824 0.91291 0.2453 0.0
C1071 C 0.97639 0.91049 0.19881 0.0
C1072 C 0.97482 0.90031 0.12709 0.0
C1073 C 0.98476 0.93724 0.81026 0.0
C1074 C 1.00221 0.92591 0.77778 0.0
C1075 C 0.96644 0.92631 0.83365 0.0
C1076 C 0.96568 0.90385 0.82792 0.0
C1077 C 0.9814 0.89328 0.78322 0.0
C1078 C 0.99921 0.90435 0.75664 0.0
C1079 C 0.95342 0.89138 0.8857 0.0
C1080 C 0.95485 0.89824 0.96266 0.0
C1081 C 0.94564 0.87051 0.86957 0.0
C1082 C 0.94074 0.86346 0.78959 0.0
C1083 C 0.94782 0.84344 0.7611 0.0
C1084 C 0.94381 0.83733 0.68506 0.0
C1085 C 0.9327 0.85107 0.63673 0.0
C1086 C 0.9255 0.87091 0.66442 0.0
C1087 C 0.92944 0.8771 0.74042 0.0
H1088 H 0.9297 0.84634 0.57781 0.0
H1089 H 0.95947 0.92082 0.30071 0.0
H1090 H 0.74535 0.97661 0.04441 0.0
H1091 H 0.71067 0.96278 1.00421 0.0
H1092 H 0.69423 0.95021 0.23953 0.0
H1093 H 0.73049 0.96074 0.27867 0.0
H1094 H 0.67905 0.91862 0.1118 0.0
H1095 H 0.65222 1.00067 0.17675 0.0
H1096 H 0.66295 0.03876 0.17922 0.0
H1097 H 0.70004 0.02845 0.97388 0.0
H1098 H 0.6889 0.99062 0.97002 0.0
H1099 H 0.57627 0.98073 0.99528 0.0
H1100 H 0.59456 0.95952 0.08985 0.0
H1101 H 0.62877 0.92575 0.9108 0.0
H1102 H 0.60925 0.94564 0.81483 0.0
H1103 H 0.633 0.9794 0.03537 0.0
H1104 H 0.66052 0.89449 0.97915 0.0
H1105 H 0.64675 0.85743 0.98082 0.0
H1106 H 0.60387 0.87453 0.16531 0.0
H1107 H 0.61728 0.91165 0.16358 0.0
C1108 C 0.7347 0.97016 0.08733 0.0
C1109 C 0.7405 0.97018 0.16503 0.0
C1110 C 0.71468 0.96275 0.06449 0.0
C1111 C 0.69958 0.9565 0.11928 0.0
C1112 C 0.70558 0.95542 0.19653 0.0
C1113 C 0.7261 0.96183 0.21903 0.0
C1114 C 0.67717 0.95277 0.09614 0.0
C1115 C 0.66893 0.93186 0.09494 0.0
C1116 C 0.66386 0.97002 0.07525 0.0
C1117 C 0.67104 0.99257 0.07674 0.0
C1118 C 0.66314 1.00654 0.13374 0.0
C1119 C 0.66901 0.02811 0.13463 0.0
C1120 C 0.68263 0.03592 0.07778 0.0
C1121 C 0.68993 0.02228 0.01899 0.0
C1122 C 0.68388 1.00074 0.01768 0.0
C1123 C 0.58653 0.96781 0.97519 0.0
C1124 C 0.59275 0.96607 0.89769 0.0
C1125 C 0.59698 0.95552 0.02994 0.0
C1126 C 0.6143 0.94244 1.00743 0.0
C1127 C 0.61609 0.93646 0.92982 0.0
C1128 C 0.60523 0.94828 0.87474 0.0
C1129 C 0.63466 0.94514 0.04949 0.0
C1130 C 0.64281 0.96603 0.05352 0.0
C1131 C 0.64781 0.92787 0.07099 0.0
C1132 C 0.63963 0.90575 0.07066 0.0
C1133 C 0.64808 0.89029 0.01969 0.0
C1134 C 0.64031 0.86931 0.02049 0.0
C1135 C 0.62431 0.86364 0.07269 0.0
C1136 C 0.61606 0.87894 0.1242 0.0
C1137 C 0.62362 0.89996 0.12302 0.0
H1138 H 0.61837 0.84739 0.07348 0.0
H1139 H 0.68722 0.05261 0.07856 0.0
H1140 H 0.58342 0.73194 0.26463 0.0
H1141 H 0.58375 0.69276 0.24752 0.0
H1142 H 0.54716 0.69911 0.04008 0.0
H1143 H 0.54683 0.7381 0.05752 0.0
H1144 H 0.52802 0.67626 0.176 0.0
H1145 H 0.59167 0.68061 0.01363 0.0
H1146 H 0.62944 0.68955 0.98841 0.0
H1147 H 0.64915 0.64847 0.17052 0.0
H1148 H 0.61144 0.63954 0.19759 0.0
H1149 H 0.50598 0.58223 0.98478 0.0
H1150 H 0.52038 0.61717 0.0198 0.0
H1151 H 0.55983 0.5882 0.19239 0.0
H1152 H 0.54561 0.55277 0.15656 0.0
H1153 H 0.58118 0.62048 0.10151 0.0
H1154 H 0.52003 0.61303 0.25989 0.0
H1155 H 0.48289 0.60369 0.29388 0.0
H1156 H 0.45932 0.65041 0.13673 0.0
H1157 H 0.49631 0.65984 0.10101 0.0
C1158 C 0.57639 0.72489 0.21362 0.0
C1159 C 0.56525 0.73782 0.16192 0.0
C1160 C 0.5765 0.70262 0.20407 0.0
C1161 C 0.56546 0.69317 0.14262 0.0
C1162 C 0.55588 0.7062 0.08756 0.0
C1163 C 0.55588 0.7284 0.09695 0.0
C1164 C 0.56065 0.67006 0.14215 0.0
C1165 C 0.53962 0.66405 0.15968 0.0
C1166 C 0.57611 0.65417 0.12453 0.0
C1167 C 0.59872 0.65965 0.10834 0.0
C1168 C 0.60403 0.67369 0.04893 0.0
C1169 C 0.62544 0.67871 0.03413 0.0
C1170 C 0.64168 0.66966 0.07803 0.0
C1171 C 0.63655 0.65552 0.13668 0.0
C1172 C 0.61517 0.65046 0.15175 0.0
C1173 C 0.51798 0.58317 0.02931 0.0
C1174 C 0.52472 0.56475 0.06771 0.0
C1175 C 0.52606 0.60317 0.0497 0.0
C1176 C 0.54101 0.60523 0.10903 0.0
C1177 C 0.54826 0.58688 0.1465 0.0
C1178 C 0.54004 0.56674 0.12633 0.0
C1179 C 0.54828 0.62686 0.1321 0.0
C1180 C 0.5697 0.63264 0.11955 0.0
C1181 C 0.5333 0.64261 0.15612 0.0
C1182 C 0.51097 0.63701 0.17728 0.0
C1183 C 0.50693 0.62117 0.23201 0.0
C1184 C 0.4859 0.61587 0.25163 0.0
C1185 C 0.46876 0.62637 0.21714 0.0
C1186 C 0.47261 0.64222 0.1631 0.0
C1187 C 0.49361 0.6476 0.14332 0.0
H1188 H 0.45249 0.62242 0.23288 0.0
H1189 H 0.65825 0.67355 0.06644 0.0
H1190 H 0.78502 0.53252 0.03607 0.0
H1191 H 0.82006 0.53286 0.97271 0.0
H1192 H 0.83968 0.58474 0.12254 0.0
H1193 H 0.80334 0.58676 0.17565 0.0
H1194 H 0.86222 0.58557 0.99548 0.0
H1195 H 0.83781 0.52584 0.16414 0.0
H1196 H 0.81575 0.49373 0.18736 0.0
H1197 H 0.83986 0.46423 0.98115 0.0
H1198 H 0.8619 0.49603 0.95574 0.0
H1199 H 0.97084 0.56268 0.07551 0.0
H1200 H 0.9323 0.5701 0.08034 0.0
H1201 H 0.92057 0.51304 0.94434 0.0
H1202 H 0.95846 0.50468 0.94509 0.0
H1203 H 0.89342 0.51408 0.04557 0.0
H1204 H 0.91747 0.56491 0.87046 0.0
H1205 H 0.93865 0.5942 0.81569 0.0
H1206 H 0.91504 0.63735 0.99059 0.0
H1207 H 0.89394 0.6082 0.04726 0.0
C1208 C 0.79668 0.54442 0.05332 0.0
C1209 C 0.79224 0.55865 0.11433 0.0
C1210 C 0.81667 0.54456 0.01761 0.0
C1211 C 0.8329 0.55786 0.04649 0.0
C1212 C 0.82763 0.57377 0.10119 0.0
C1213 C 0.80715 0.57451 0.1334 0.0
C1214 C 0.85569 0.55321 0.02944 0.0
C1215 C 0.86913 0.56998 1.00677 0.0
C1216 C 0.86453 0.53256 0.0405 0.0
C1217 C 0.85134 0.51344 0.05756 0.0
C1218 C 0.83825 0.5126 0.12335 0.0
C1219 C 0.8257 0.49451 0.1368 0.0
C1220 C 0.82624 0.47714 0.08555 0.0
C1221 C 0.83939 0.47773 0.02069 0.0
C1222 C 0.85191 0.49576 1.0067 0.0
C1223 C 0.95995 0.55158 0.0479 0.0
C1224 C 0.96771 0.53323 0.00922 0.0
C1225 C 0.93799 0.55601 0.04944 0.0
C1226 C 0.92354 0.54236 0.0113 0.0
C1227 C 0.93133 0.5239 0.97385 0.0
C1228 C 0.95308 0.51925 0.97373 0.0
C1229 C 0.90018 0.54654 0.0133 0.0
C1230 C 0.88664 0.52968 0.03366 0.0
C1231 C 0.89122 0.56675 0.99627 0.0
C1232 C 0.90426 0.58428 0.9636 0.0
C1233 C 0.91696 0.58058 0.8978 0.0
C1234 C 0.92895 0.59717 0.86635 0.0
C1235 C 0.9283 0.6176 0.8999 0.0
C1236 C 0.91559 0.62149 0.96483 0.0
C1237 C 0.9036 0.60494 0.99666 0.0
H1238 H 0.93761 0.63043 0.87548 0.0
H1239 H 0.81658 0.46315 0.09647 0.0
H1240 H 0.06146 0.24974 0.95079 0.0
H1241 H 0.05731 0.21642 0.87668 0.0
H1242 H 0.99722 0.20498 0.99191 0.0
H1243 H 1.00112 0.23906 0.063 0.0
H1244 H 0.05862 0.17874 0.91278 0.0
H1245 H 0.96681 0.16756 0.89824 0.0
H1246 H 0.93414 0.18953 0.88682 0.0
H1247 H 0.97036 0.23901 0.77797 0.0
H1248 H 1.00319 0.21722 0.78785 0.0
H1249 H 0.98529 0.08091 0.7764 0.0
H1250 H 0.99194 0.11553 0.83707 0.0
H1251 H 0.05302 0.11836 0.72105 0.0
H1252 H 0.04723 0.08247 0.66782 0.0
H1253 H 0.99278 0.15112 0.79097 0.0
H1254 H 0.07457 0.14965 0.7395 0.0
H1255 H 0.11183 0.13706 0.75219 0.0
H1256 H 0.10012 0.12229 0.98825 0.0
H1257 H 0.06229 0.13308 0.9749 0.0
C1258 C 0.04701 0.24044 0.95813 0.0
C1259 C 0.03139 0.24737 0.01135 0.0
C1260 C 0.04473 0.22113 0.91646 0.0
C1261 C 0.02686 0.20773 0.92735 0.0
C1262 C 1.01096 0.21491 0.97991 0.0
C1263 C 0.01311 0.23453 0.02073 0.0
C1264 C 0.0258 0.18589 0.88741 0.0
C1265 C 0.04415 0.1728 0.88586 0.0
C1266 C 1.00716 0.17769 0.85147 0.0
C1267 C 0.98749 0.19083 0.84454 0.0
C1268 C 0.96778 0.18309 0.87163 0.0
C1269 C 0.94924 0.19552 0.86547 0.0
C1270 C 0.95019 0.21568 0.83193 0.0
C1271 C 0.96966 0.22342 0.80421 0.0
C1272 C 0.98825 0.21105 0.81015 0.0
C1273 C 1.00044 0.08871 0.7654 0.0
C1274 C 0.01589 0.07848 0.71847 0.0
C1275 C 1.00428 0.10882 0.80004 0.0
C1276 C 0.02333 0.12033 0.78636 0.0
C1277 C 0.03868 0.11016 0.73778 0.0
C1278 C 0.03519 0.08947 0.70548 0.0
C1279 C 0.02553 0.14325 0.81845 0.0
C1280 C 1.00725 0.15676 0.81859 0.0
C1281 C 0.04445 0.15206 0.85178 0.0
C1282 C 0.06525 0.14085 0.85462 0.0
C1283 C 0.07966 0.14262 0.79289 0.0
C1284 C 0.1009 0.13592 0.80033 0.0
C1285 C 0.10824 0.12851 0.87067 0.0
C1286 C 0.09429 0.12762 0.93339 0.0
C1287 C 0.0728 0.13348 0.92531 0.0
H1288 H 0.12479 0.12371 0.87685 0.0
H1289 H 0.93582 0.22529 0.82727 0.0
H1290 H 0.30696 0.07528 0.99374 0.0
H1291 H 0.34119 0.07023 0.92701 0.0
H1292 H 0.32483 1.00442 0.87886 0.0
H1293 H 0.29058 1.00952 0.94783 0.0
H1294 H 0.36477 1.00613 0.92859 0.0
H1295 H 0.32818 0.04286 0.73077 0.0
H1296 H 0.30613 0.07119 0.67324 0.0
H1297 H 0.35238 0.11844 0.74088 0.0
H1298 H 0.3746 0.0904 0.79949 0.0
H1299 H 0.45802 0.98815 0.69712 0.0
H1300 H 0.42261 0.99147 0.75497 0.0
H1301 H 0.42994 0.06016 0.76571 0.0
H1302 H 0.46422 0.05666 0.69758 0.0
H1303 H 0.39336 0.05576 0.73442 0.0
H1304 H 0.43024 0.01757 0.93345 0.0
H1305 H 0.45133 0.98856 0.99132 0.0
H1306 H 0.40412 0.94272 0.92025 0.0
H1307 H 0.38282 0.97147 0.86178 0.0
C1308 C 0.3104 0.0599 0.96694 0.0
C1309 C 0.29577 0.04296 0.97493 0.0
C1310 C 0.33009 0.05696 0.92879 0.0
C1311 C 0.33586 0.03695 0.89658 0.0
C1312 C 0.32096 0.02008 0.90262 0.0
C1313 C 0.30115 0.02306 0.94097 0.0
C1314 C 0.35772 0.03358 0.86018 0.0
C1315 C 0.37087 0.01675 0.88499 0.0
C1316 C 0.36624 0.04766 0.80478 0.0
C1317 C 0.35291 0.06458 0.77019 0.0
C1318 C 0.33354 0.05933 0.73393 0.0
C1319 C 0.32105 0.07532 0.70098 0.0
C1320 C 0.32782 0.09661 0.70361 0.0
C1321 C 0.34714 0.10195 0.739 0.0
C1322 C 0.3597 0.08601 0.772 0.0
C1323 C 0.45229 1.00394 0.71353 0.0
C1324 C 0.46463 0.0221 0.69659 0.0
C1325 C 0.43189 1.00588 0.74771 0.0
C1326 C 0.42331 0.02606 0.76889 0.0
C1327 C 0.4358 0.04426 0.75158 0.0
C1328 C 0.4558 0.04231 0.71405 0.0
C1329 C 0.40091 0.02836 0.8033 0.0
C1330 C 0.38752 0.04506 0.77816 0.0
C1331 C 0.39217 0.01398 0.85803 0.0
C1332 C 0.40506 0.99668 0.89264 0.0
C1333 C 0.42443 1.0013 0.92985 0.0
C1334 C 0.43641 0.98491 0.96281 0.0
C1335 C 0.42911 0.96381 0.95919 0.0
C1336 C 0.40978 0.95907 0.92289 0.0
C1337 C 0.39774 0.97542 0.88997 0.0
H1338 H 0.43841 0.95114 0.98468 0.0
H1339 H 0.31812 0.10897 0.67807 0.0
H1340 H 0.45999 0.29863 0.98527 0.0
H1341 H 0.4657 0.33251 0.91981 0.0
H1342 H 0.53268 0.33011 0.97789 0.0
H1343 H 0.52652 0.29647 0.04711 0.0
H1344 H 0.51794 0.36989 1.00048 0.0
H1345 H 0.51379 0.31984 0.78793 0.0
H1346 H 0.49762 0.29068 0.7111 0.0
H1347 H 0.4407 0.32836 0.68228 0.0
H1348 H 0.45653 0.35772 0.75899 0.0
H1349 H 0.54679 0.4544 0.74587 0.0
H1350 H 0.5438 0.419 0.80419 0.0
H1351 H 0.47544 0.42066 0.77229 0.0
H1352 H 0.47829 0.4562 0.71639 0.0
H1353 H 0.49224 0.38114 0.7353 0.0
H1354 H 0.49669 0.43167 0.94361 0.0
H1355 H 0.51325 0.4616 0.01464 0.0
H1356 H 0.56941 0.42351 0.05236 0.0
H1357 H 0.55339 0.39345 0.97976 0.0
C1358 C 0.47597 0.30525 0.98333 0.0
C1359 C 0.49283 0.29479 0.02066 0.0
C1360 C 0.47929 0.32462 0.94552 0.0
C1361 C 0.49973 0.33397 0.94242 0.0
C1362 C 0.51675 0.32333 0.97885 0.0
C1363 C 0.51334 0.30393 0.01748 0.0
C1364 C 0.50306 0.35493 0.90231 0.0
C1365 C 0.51266 0.37216 0.94201 0.0
C1366 C 0.4957 0.3584 0.82656 0.0
C1367 C 0.48629 0.34089 0.77955 0.0
C1368 C 0.4978 0.32186 0.76536 0.0
C1369 C 0.48871 0.30532 0.72174 0.0
C1370 C 0.46814 0.30766 0.69186 0.0
C1371 C 0.45664 0.32658 0.70536 0.0
C1372 C 0.46569 0.3432 0.74866 0.0
C1373 C 0.53113 0.44718 0.75107 0.0
C1374 C 0.51276 0.45823 0.72671 0.0
C1375 C 0.52942 0.42695 0.78484 0.0
C1376 C 0.50933 0.41713 0.79412 0.0
C1377 C 0.49109 0.42786 0.76716 0.0
C1378 C 0.49274 0.44826 0.73501 0.0
C1379 C 0.50725 0.39595 0.83315 0.0
C1380 C 0.49774 0.37876 0.79348 0.0
C1381 C 0.51464 0.3926 0.90888 0.0
C1382 C 0.52392 0.41035 0.95534 0.0
C1383 C 0.51262 0.42968 0.96651 0.0
C1384 C 0.52195 0.44672 1.00675 0.0
C1385 C 0.54244 0.44453 0.03741 0.0
C1386 C 0.55358 0.42522 0.02825 0.0
C1387 C 0.54439 0.40818 0.98745 0.0
H1388 H 0.5496 0.45772 0.06884 0.0
H1389 H 0.46112 0.29483 0.65815 0.0
H1390 H 0.21858 0.5243 0.14883 0.0
H1391 H 0.18731 0.52749 0.06522 0.0
H1392 H 0.22737 0.51492 0.86793 0.0
H1393 H 0.25839 0.50985 0.95237 0.0
H1394 H 0.18231 0.55584 0.92071 0.0
H1395 H 0.21151 0.48342 0.82565 0.0
H1396 H 0.22427 0.44703 0.85415 0.0
H1397 H 0.16831 0.43629 0.99219 0.0
H1398 H 0.15566 0.47291 0.96636 0.0
H1399 H 0.09664 0.55227 0.6471 0.0
H1400 H 0.13184 0.55134 0.70779 0.0
H1401 H 0.1121 0.49678 0.83947 0.0
H1402 H 0.07779 0.49678 0.77539 0.0
H1403 H 0.14893 0.48999 0.81511 0.0
H1404 H 0.11515 0.55636 0.89498 0.0
H1405 H 0.09941 0.59217 0.8796 0.0
H1406 H 0.15841 0.61464 0.78299 0.0
H1407 H 0.17449 0.57882 0.79725 0.0
C1408 C 0.22071 0.52202 0.08764 0.0
C1409 C 0.24103 0.51645 0.05768 0.0
C1410 C 0.20277 0.52391 0.03972 0.0
C1411 C 0.20463 0.5207 0.96003 0.0
C1412 C 0.22519 0.51662 0.92931 0.0
C1413 C 0.2431 0.5142 0.97754 0.0
C1414 C 0.18505 0.52164 0.90989 0.0
C1415 C 0.17513 0.54149 0.89652 0.0
C1416 C 0.1751 0.50295 0.88026 0.0
C1417 C 0.18318 0.48124 0.89712 0.0
C1418 C 0.20232 0.47357 0.86417 0.0
C1419 C 0.20943 0.45281 0.87922 0.0
C1420 C 0.19724 0.43942 0.92567 0.0
C1421 C 0.17784 0.44671 0.95672 0.0
C1422 C 0.17079 0.46752 0.94239 0.0
C1423 C 0.0999 0.53989 0.68816 0.0
C1424 C 0.08418 0.52452 0.70537 0.0
C1425 C 0.12007 0.53957 0.72422 0.0
C1426 C 0.12486 0.52442 0.78111 0.0
C1427 C 0.1092 0.50888 0.79692 0.0
C1428 C 0.08933 0.5089 0.75982 0.0
C1429 C 0.14589 0.52435 0.82437 0.0
C1430 C 0.15602 0.50457 0.83779 0.0
C1431 C 0.15575 0.54317 0.8549 0.0
C1432 C 0.14604 0.56478 0.84705 0.0
C1433 C 0.12482 0.56888 0.87066 0.0
C1434 C 0.1158 0.5892 0.86193 0.0
C1435 C 0.1279 0.60567 0.83029 0.0
C1436 C 0.14905 0.60186 0.80747 0.0
C1437 C 0.15813 0.58154 0.81591 0.0
H1438 H 0.12088 0.62139 0.82349 0.0
H1439 H 0.20273 0.42333 0.93708 0.0
H1440 H 0.9751 0.79857 0.3283 0.0
H1441 H 0.98042 0.83029 0.41107 0.0
H1442 H 0.03786 0.84526 0.28454 0.0
H1443 H 0.03352 0.81228 0.20774 0.0
H1444 H 0.04361 0.85791 0.42271 0.0
H1445 H 0.98068 0.86298 0.25729 0.0
H1446 H 0.94484 0.85041 0.22006 0.0
H1447 H 0.92023 0.86771 0.44258 0.0
H1448 H 0.95616 0.87919 0.48312 0.0
H1449 H 0.05563 0.96767 0.49499 0.0
H1450 H 0.04898 0.93262 0.43676 0.0
H1451 H 0.98958 0.9283 0.56288 0.0
H1452 H 0.99566 0.96442 0.61711 0.0
H1453 H 0.98288 0.90912 0.43695 0.0
H1454 H 0.03977 0.90033 0.61208 0.0
H1455 H 0.07436 0.9075 0.67478 0.0
H1456 H 0.10748 0.89428 0.46308 0.0
H1457 H 0.07311 0.88715 0.39876 0.0
C1458 C 0.98917 0.80835 0.31998 0.0
C1459 C 1.00385 0.80298 0.26139 0.0
C1460 C 0.99208 0.82677 0.3665 0.0
C1461 C 1.00907 0.84111 0.35261 0.0
C1462 C 0.0244 0.83494 0.29663 0.0
C1463 C 0.02197 0.81601 0.25251 0.0
C1464 C 1.01061 0.8628 0.39308 0.0
C1465 C 0.03032 0.86912 0.42474 0.0
C1466 C 0.9931 0.87742 0.40023 0.0
C1467 C 0.97126 0.87174 0.37359 0.0
C1468 C 0.9677 0.86392 0.29865 0.0
C1469 C 0.94739 0.85679 0.27715 0.0
C1470 C 0.93029 0.85821 0.32884 0.0
C1471 C 0.93349 0.8666 0.40252 0.0
C1472 C 0.95387 0.87328 0.42502 0.0
C1473 C 0.04102 0.95936 0.50973 0.0
C1474 C 0.02606 0.9691 0.55979 0.0
C1475 C 0.03729 0.93903 0.47701 0.0
C1476 C 0.01901 0.92704 0.49634 0.0
C1477 C 1.00388 0.93686 0.54634 0.0
C1478 C 1.00733 0.95762 0.57752 0.0
C1479 C 0.01607 0.90437 0.46486 0.0
C1480 C 0.99616 0.8979 0.43489 0.0
C1481 C 0.03312 0.8892 0.46193 0.0
C1482 C 0.05384 0.89336 0.50046 0.0
C1483 C 0.05442 0.89905 0.57878 0.0
C1484 C 0.07398 0.90311 0.61463 0.0
C1485 C 0.09308 0.90143 0.57293 0.0
C1486 C 0.09267 0.8956 0.49529 0.0
C1487 C 0.07316 0.8915 0.45913 0.0
H1488 H 0.1082 0.9046 0.60082 0.0
H1489 H 0.91454 0.85288 0.31167 0.0
H1490 H 0.73094 0.02432 0.19674 0.0
H1491 H 0.69759 0.03224 0.26645 0.0
H1492 H 0.71829 0.9918 0.45071 0.0
H1493 H 0.75234 0.98553 0.38304 0.0
H1494 H 0.66806 1.00823 0.29071 0.0
H1495 H 0.68628 0.99703 0.61276 0.0
H1496 H 0.71504 1.00473 0.70538 0.0
H1497 H 0.73774 0.05572 0.5641 0.0
H1498 H 0.70894 0.04853 0.4712 0.0
H1499 H 0.58614 0.99612 0.63525 0.0
H1500 H 0.62174 0.99215 0.57559 0.0
H1501 H 0.60556 0.04107 0.4138 0.0
H1502 H 0.56999 0.04454 0.47219 0.0
H1503 H 0.65365 0.02029 0.56676 0.0
H1504 H 0.625 0.04174 0.28696 0.0
H1505 H 0.60183 0.03474 0.17514 0.0
H1506 H 0.60491 0.96725 0.2178 0.0
H1507 H 0.62731 0.97404 0.33137 0.0
C1508 C 0.72865 0.01791 0.25356 0.0
C1509 C 0.74435 1.00458 0.28495 0.0
C1510 C 0.7094 0.02212 0.29322 0.0
C1511 C 0.70491 0.01262 0.36462 0.0
C1512 C 0.7211 0.99988 0.39714 0.0
C1513 C 0.74067 0.99622 0.35834 0.0
C1514 C 0.68262 0.01424 0.39953 0.0
C1515 C 0.66506 1.01147 0.35071 0.0
C1516 C 0.67825 0.01755 0.47897 0.0
C1517 C 0.69558 0.02206 0.53458 0.0
C1518 C 0.69737 1.00992 0.60155 0.0
C1519 C 0.71369 0.0142 0.6541 0.0
C1520 C 0.72826 0.03065 0.64049 0.0
C1521 C 0.7265 0.04292 0.57441 0.0
C1522 C 0.7102 0.03873 0.52173 0.0
C1523 C 0.58998 1.00546 0.58521 0.0
C1524 C 0.57488 0.02006 0.55668 0.0
C1525 C 0.61046 1.00334 0.55132 0.0
C1526 C 0.61656 0.0159 0.48821 0.0
C1527 C 0.60134 0.03044 0.4598 0.0
C1528 C 0.5809 0.03253 0.49364 0.0
C1529 C 0.63916 0.01498 0.4563 0.0
C1530 C 0.65675 0.01753 0.50616 0.0
C1531 C 0.64373 0.0121 0.37714 0.0
C1532 C 0.62704 1.00845 0.31912 0.0
C1533 C 0.62003 0.0255 0.2739 0.0
C1534 C 0.60718 0.02157 0.2099 0.0
C1535 C 0.6018 1.00058 0.18943 0.0
C1536 C 0.60895 0.98353 0.23374 0.0
C1537 C 0.62141 0.98743 0.29871 0.0
H1538 H 0.59211 0.99755 0.13919 0.0
H1539 H 0.74088 0.03393 0.68122 0.0
H1540 H 0.51767 0.73185 0.20227 0.0
H1541 H 0.51085 0.69909 0.27345 0.0
H1542 H 0.5473 0.72433 0.4637 0.0
H1543 H 0.55483 0.75677 0.38993 0.0
H1544 H 0.55961 0.6859 0.44073 0.0
H1545 H 0.48915 0.71641 0.46265 0.0
H1546 H 0.45573 0.73268 0.41591 0.0
H1547 H 0.44364 0.67678 0.27671 0.0
H1548 H 0.4771 0.66034 0.32236 0.0
H1549 H 0.52821 0.59998 0.69075 0.0
H1550 H 0.53009 0.63596 0.63455 0.0
H1551 H 0.51207 0.60946 0.41463 0.0
H1552 H 0.51056 0.57365 0.47025 0.0
H1553 H 0.48975 0.64879 0.45925 0.0
H1554 H 0.56096 0.61965 0.43289 0.0
H1555 H 0.59401 0.60298 0.48105 0.0
H1556 H 0.60386 0.65659 0.63332 0.0
H1557 H 0.57071 0.6735 0.58678 0.0
C1558 C 0.52362 0.7306 0.26024 0.0
C1559 C 0.53645 0.74696 0.29122 0.0
C1560 C 0.51981 0.7118 0.30106 0.0
C1561 C 0.52838 0.70902 0.37483 0.0
C1562 C 0.54045 0.72589 0.40712 0.0
C1563 C 0.54447 0.74461 0.36567 0.0
C1564 C 0.52588 0.68812 0.41589 0.0
C1565 C 0.54419 0.67812 0.44604 0.0
C1566 C 0.50595 0.67735 0.42164 0.0
C1567 C 0.4857 0.6872 0.39526 0.0
C1568 C 0.47941 0.70765 0.42177 0.0
C1569 C 0.46045 0.7169 0.39558 0.0
C1570 C 0.44758 0.7058 0.34323 0.0
C1571 C 0.45361 0.68539 0.3172 0.0
C1572 C 0.47254 0.67608 0.34327 0.0
C1573 C 0.52455 0.60194 0.6306 0.0
C1574 C 0.51948 0.58406 0.58457 0.0
C1575 C 0.52568 0.62245 0.59845 0.0
C1576 C 0.52132 0.62544 0.52012 0.0
C1577 C 0.51553 0.60761 0.47498 0.0
C1578 C 0.51482 0.58713 0.5067 0.0
C1579 C 0.52333 0.64699 0.48449 0.0
C1580 C 0.50502 0.65691 0.45484 0.0
C1581 C 0.54317 0.65775 0.47971 0.0
C1582 C 0.56323 0.64773 0.50702 0.0
C1583 C 0.57007 0.6278 0.47712 0.0
C1584 C 0.58883 0.61832 0.50402 0.0
C1585 C 0.60096 0.62866 0.5604 0.0
C1586 C 0.59441 0.64857 0.58976 0.0
C1587 C 0.57566 0.65813 0.5631 0.0
H1588 H 0.61547 0.62127 0.58118 0.0
H1589 H 0.43292 0.713 0.32298 0.0
H1590 H 0.79746 0.57487 0.2934 0.0
H1591 H 0.83158 0.56874 0.35649 0.0
H1592 H 0.81947 0.50081 0.34943 0.0
H1593 H 0.78699 0.50714 0.27487 0.0
H1594 H 0.84343 0.55684 0.4788 0.0
H1595 H 0.84738 0.47627 0.38796 0.0
H1596 H 0.84899 0.44708 0.29121 0.0
H1597 H 0.8857 0.48697 0.14195 0.0
H1598 H 0.88302 0.51688 0.23578 0.0
H1599 H 0.94937 0.49626 0.59396 0.0
H1600 H 0.9127 0.4967 0.54465 0.0
H1601 H 0.92032 0.56263 0.48073 0.0
H1602 H 0.95701 0.56226 0.52929 0.0
H1603 H 0.89816 0.50327 0.40028 0.0
H1604 H 0.8716 0.58832 0.49966 0.0
H1605 H 0.87808 0.61315 0.60839 0.0
H1606 H 0.89321 0.56011 0.75256 0.0
H1607 H 0.88663 0.53498 0.64511 0.0
C1608 C 0.80267 0.55858 0.30179 0.0
C1609 C 0.7901 0.54154 0.2743 0.0
C1610 C 0.82213 0.55496 0.3398 0.0
C1611 C 0.82938 0.53407 0.35585 0.0
C1612 C 0.81572 0.51702 0.33409 0.0
C1613 C 0.79656 0.52068 0.29307 0.0
C1614 C 0.85039 0.53094 0.39887 0.0
C1615 C 0.85534 0.54523 0.46002 0.0
C1616 C 0.86624 0.51524 0.37919 0.0
C1617 C 0.86388 0.49917 0.31695 0.0
C1618 C 0.85493 0.47911 0.33297 0.0
C1619 C 0.85614 0.46241 0.27887 0.0
C1620 C 0.86718 0.46529 0.20994 0.0
C1621 C 0.87684 0.48492 0.19475 0.0
C1622 C 0.87509 0.50188 0.2477 0.0
C1623 C 0.94322 0.51097 0.57025 0.0
C1624 C 0.95632 0.52927 0.56638 0.0
C1625 C 0.92218 0.51115 0.54155 0.0
C1626 C 0.91343 0.52975 0.50919 0.0
C1627 C 0.9264 0.54811 0.50609 0.0
C1628 C 0.94753 0.54785 0.53384 0.0
C1629 C 0.89116 0.52975 0.47597 0.0
C1630 C 0.8861 0.51494 0.41774 0.0
C1631 C 0.87524 0.54477 0.49863 0.0
C1632 C 0.8788 0.55979 0.56402 0.0
C1633 C 0.87622 0.58196 0.55465 0.0
C1634 C 0.87995 0.59609 0.61606 0.0
C1635 C 0.88615 0.58823 0.68727 0.0
C1636 C 0.88853 0.5662 0.69732 0.0
C1637 C 0.88484 0.55201 0.63613 0.0
H1638 H 0.88905 0.59919 0.73471 0.0
H1639 H 0.86839 0.45226 0.16855 0.0
loop_
_geom_bond_atom_site_label_1
_geom_bond_atom_site_label_2
_geom_bond_distance
_geom_bond_site_symmetry_2
_ccdc_geom_bond_type
C0 N1 1.317 . S
C0 N2 1.348 . S
C0 C3 1.485 . S
N1 C0 1.317 . S
N1 N5 1.370 . S
N2 C0 1.348 . S
N2 C4 1.346 . S
C3 C0 1.485 . S
C3 H7 0.960 . S
C3 H8 0.961 . S
C3 H9 0.960 . S
C4 N2 1.346 . S
C4 N5 1.307 . S
C4 C6 1.486 . S
N5 N1 1.370 . S
N5 C4 1.307 . S
C6 C4 1.486 . S
C6 H10 0.960 . S
C6 H11 0.960 . S
C6 H12 0.959 . S
H7 C3 0.960 . S
H8 C3 0.961 . S
H9 C3 0.960 . S
H10 C6 0.960 . S
H11 C6 0.960 . S
H12 C6 0.959 . S
C13 N14 1.317 . S
C13 N15 1.348 . S
C13 C16 1.485 . S
N14 C13 1.317 . S
N14 N18 1.370 . S
N15 C13 1.348 . S
N15 C17 1.346 . S
C16 C13 1.485 . S
C16 H20 0.960 . S
C16 H21 0.961 . S
C16 H22 0.960 . S
C17 N15 1.346 . S
C17 N18 1.307 . S
C17 C19 1.486 . S
N18 N14 1.370 . S
N18 C17 1.307 . S
C19 C17 1.486 . S
C19 H23 0.960 . S
C19 H24 0.960 . S
C19 H25 0.959 . S
H20 C16 0.960 . S
H21 C16 0.961 . S
H22 C16 0.960 . S
H23 C19 0.960 . S
H24 C19 0.960 . S
H25 C19 0.959 . S
C26 N27 1.317 . S
C26 N28 1.348 . S
C26 C29 1.485 . S
N27 C26 1.317 . S
N27 N31 1.370 . S
N28 C26 1.348 . S
N28 C30 1.346 . S
C29 C26 1.485 . S
C29 H33 0.960 . S
C29 H34 0.961 . S
C29 H35 0.960 . S
C30 N28 1.346 . S
C30 N31 1.307 . S
C30 C32 1.486 . S
N31 N27 1.370 . S
N31 C30 1.307 . S
C32 C30 1.486 . S
C32 H36 0.960 . S
C32 H37 0.960 . S
C32 H38 0.959 . S
H33 C29 0.960 . S
H34 C29 0.961 . S
H35 C29 0.960 . S
H36 C32 0.960 . S
H37 C32 0.960 . S
H38 C32 0.959 . S
C39 N40 1.317 . S
C39 N41 1.348 . S
C39 C42 1.485 . S
N40 C39 1.317 . S
N40 N44 1.370 . S
N41 C39 1.348 . S
N41 C43 1.346 . S
C42 C39 1.485 . S
C42 H46 0.960 . S
C42 H47 0.961 . S
C42 H48 0.960 . S
C43 N41 1.346 . S
C43 N44 1.307 . S
C43 C45 1.486 . S
N44 N40 1.370 . S
N44 C43 1.307 . S
C45 C43 1.486 . S
C45 H49 0.960 . S
C45 H50 0.960 . S
C45 H51 0.959 . S
H46 C42 0.960 . S
H47 C42 0.961 . S
H48 C42 0.960 . S
H49 C45 0.960 . S
H50 C45 0.960 . S
H51 C45 0.959 . S
C52 N53 1.317 . S
C52 N54 1.348 1_556 S
C52 C55 1.485 . S
N53 C52 1.317 . S
N53 N57 1.370 1_556 S
N54 C52 1.348 1_554 S
N54 C56 1.346 . S
C55 C52 1.485 . S
C55 H59 0.960 . S
C55 H60 0.961 . S
C55 H61 0.960 . S
C56 N54 1.346 . S
C56 N57 1.307 . S
C56 C58 1.486 . S
N57 N53 1.370 1_554 S
N57 C56 1.307 . S
C58 C56 1.486 . S
C58 H62 0.960 . S
C58 H63 0.960 . S
C58 H64 0.959 . S
H59 C55 0.960 . S
H60 C55 0.961 . S
H61 C55 0.960 . S
H62 C58 0.960 . S
H63 C58 0.960 . S
H64 C58 0.959 . S
C65 N66 1.317 . S
C65 N67 1.348 1_556 S
C65 C68 1.485 . S
N66 C65 1.317 . S
N66 N70 1.370 1_556 S
N67 C65 1.348 1_554 S
N67 C69 1.346 . S
C68 C65 1.485 . S
C68 H72 0.960 . S
C68 H73 0.961 . S
C68 H74 0.960 . S
C69 N67 1.346 . S
C69 N70 1.307 . S
C69 C71 1.486 . S
N70 N66 1.370 1_554 S
N70 C69 1.307 . S
C71 C69 1.486 . S
C71 H75 0.960 . S
C71 H76 0.960 . S
C71 H77 0.959 . S
H72 C68 0.960 . S
H73 C68 0.961 . S
H74 C68 0.960 . S
H75 C71 0.960 . S
H76 C71 0.960 . S
H77 C71 0.959 . S
C78 N79 1.317 . S
C78 N80 1.348 1_556 S
C78 C81 1.485 . S
N79 C78 1.317 . S
N79 N83 1.370 1_556 S
N80 C78 1.348 1_554 S
N80 C82 1.346 . S
C81 C78 1.485 . S
C81 H85 0.960 . S
C81 H86 0.961 . S
C81 H87 0.960 . S
C82 N80 1.346 . S
C82 N83 1.307 . S
C82 C84 1.486 . S
N83 N79 1.370 1_554 S
N83 C82 1.307 . S
C84 C82 1.486 . S
C84 H88 0.960 . S
C84 H89 0.960 . S
C84 H90 0.959 . S
H85 C81 0.960 . S
H86 C81 0.961 . S
H87 C81 0.960 . S
H88 C84 0.960 . S
H89 C84 0.960 . S
H90 C84 0.959 . S
C91 N92 1.317 . S
C91 N93 1.348 1_556 S
C91 C94 1.485 . S
N92 C91 1.317 . S
N92 N96 1.370 1_556 S
N93 C91 1.348 1_554 S
N93 C95 1.346 . S
C94 C91 1.485 . S
C94 H98 0.960 . S
C94 H99 0.961 . S
C94 H100 0.960 . S
C95 N93 1.346 . S
C95 N96 1.307 . S
C95 C97 1.486 . S
N96 N92 1.370 1_554 S
N96 C95 1.307 . S
C97 C95 1.486 . S
C97 H101 0.960 . S
C97 H102 0.960 . S
C97 H103 0.959 . S
H98 C94 0.960 . S
H99 C94 0.961 . S
H100 C94 0.960 . S
H101 C97 0.960 . S
H102 C97 0.960 . S
H103 C97 0.959 . S
Tb104 N135 2.660 1_565 S
Tb104 N142 2.590 1_565 S
Tb104 O148 2.546 . S
Tb104 O149 2.610 1_455 S
Tb104 O151 2.320 1_455 S
Tb104 O152 2.552 . S
Tb104 O153 2.413 . S
Tb104 O155 2.362 1_565 S
Tb104 O156 2.421 . S
Tb104 C168 2.833 . S
C105 C108 1.432 1_545 S
C105 C109 1.414 . S
C105 N112 1.359 . S
C106 C108 1.417 . S
C106 C110 1.432 . S
C106 C118 1.410 . S
C107 C109 1.444 1_565 S
C107 C110 1.317 . S
C107 H130 0.929 . S
C108 C105 1.432 1_565 S
C108 C106 1.417 . S
C108 N116 1.360 1_565 S
C109 C105 1.414 . S
C109 C107 1.444 1_545 S
C109 C114 1.385 . S
C110 C106 1.432 . S
C110 C107 1.317 . S
C110 H122 0.930 . S
C111 C113 1.392 . S
C111 C114 1.370 . S
C111 H123 0.931 . S
N112 C105 1.359 . S
N112 C113 1.327 . S
N112 Tb115 2.600 . S
C113 C111 1.392 . S
C113 N112 1.327 . S
C113 H120 0.930 . S
C114 C109 1.385 . S
C114 C111 1.370 . S
C114 H133 0.930 . S
Tb115 N112 2.600 . S
Tb115 N116 2.660 . S
Tb115 O149 2.362 1_545 S
Tb115 O150 2.421 . S
Tb115 O154 2.546 . S
Tb115 O155 2.610 1_655 S
Tb115 O157 2.320 1_655 S
Tb115 O158 2.552 1_655 S
Tb115 O159 2.413 . S
Tb115 C179 2.833 . S
N116 C108 1.360 1_545 S
N116 Tb115 2.660 . S
N116 C117 1.305 1_645 S
C117 N116 1.305 1_465 S
C117 C119 1.407 . S
C117 H124 0.930 . S
C118 C106 1.410 . S
C118 C119 1.345 1_655 S
C118 H126 0.930 . S
C119 C117 1.407 . S
C119 C118 1.345 1_455 S
C119 H121 0.930 . S
H120 C113 0.930 . S
H121 C119 0.930 . S
H122 C110 0.930 . S
H123 C111 0.931 . S
H124 C117 0.930 . S
H125 C139 0.930 1_655 S
H126 C118 0.930 . S
H127 C145 0.930 . S
H128 C136 0.930 1_655 S
H129 C143 0.931 . S
H130 C107 0.929 . S
H131 C137 0.930 1_554 S
H132 C170 0.930 1_554 S
H133 C114 0.930 . S
H134 C169 0.929 . S
N135 Tb104 2.660 1_545 S
N135 C136 1.305 . S
N135 C140 1.360 . S
C136 H128 0.930 1_455 S
C136 N135 1.305 . S
C136 C139 1.407 . S
C137 H131 0.930 1_556 S
C137 C138 1.410 . S
C137 C139 1.345 . S
C138 C137 1.410 . S
C138 C140 1.417 . S
C138 C170 1.432 . S
C139 H125 0.930 1_455 S
C139 C136 1.407 . S
C139 C137 1.345 . S
C140 N135 1.360 . S
C140 C138 1.417 . S
C140 C144 1.432 . S
H141 C146 0.930 . S
N142 Tb104 2.590 1_545 S
N142 C144 1.384 . S
N142 C145 1.310 1_545 S
C143 H129 0.931 . S
C143 C145 1.392 . S
C143 C146 1.370 1_565 S
C144 C140 1.432 . S
C144 N142 1.384 . S
C144 C147 1.414 . S
C145 H127 0.930 . S
C145 N142 1.310 1_565 S
C145 C143 1.392 . S
C146 H141 0.930 . S
C146 C143 1.370 1_545 S
C146 C147 1.385 . S
C147 C144 1.414 . S
C147 C146 1.385 . S
C147 C169 1.444 . S
O148 Tb104 2.546 . S
O148 C168 1.251 . S
O149 Tb104 2.610 1_655 S
O149 Tb115 2.362 1_565 S
O149 C160 1.283 . S
O150 Tb115 2.421 . S
O150 C167 1.262 . S
O151 Tb104 2.320 1_655 S
O151 C167 1.260 1_565 S
O152 Tb104 2.552 . S
O152 C160 1.243 1_455 S
O153 Tb104 2.413 . S
O153 C168 1.256 . S
O154 Tb115 2.546 . S
O154 C179 1.251 . S
O155 Tb104 2.362 1_545 S
O155 Tb115 2.610 1_455 S
O155 C171 1.283 . S
O156 Tb104 2.421 . S
O156 C178 1.262 1_565 S
O157 Tb115 2.320 1_455 S
O157 C178 1.260 . S
O158 Tb115 2.552 1_455 S
O158 C171 1.243 . S
O159 Tb115 2.413 . S
O159 C179 1.256 . S
C160 O149 1.283 . S
C160 O152 1.243 1_655 S
C161 C163 1.382 . S
C161 C165 1.393 . S
C161 C168 1.500 . S
C162 C163 1.400 . S
C162 C164 1.384 . S
C163 C161 1.382 . S
C163 C162 1.400 . S
C163 H180 0.897 1_455 S
C164 C162 1.384 . S
C164 C166 1.392 . S
C164 H181 0.931 . S
C165 C161 1.393 . S
C165 C166 1.401 . S
C165 H182 0.930 . S
C166 C164 1.392 . S
C166 C165 1.401 . S
C166 H183 0.930 . S
C167 O150 1.262 . S
C167 O151 1.260 1_545 S
C168 Tb104 2.833 . S
C168 O148 1.251 . S
C168 O153 1.256 . S
C168 C161 1.500 . S
C169 H134 0.929 . S
C169 C147 1.444 . S
C169 C170 1.317 . S
C170 H132 0.930 1_556 S
C170 C138 1.432 . S
C170 C169 1.317 . S
C171 O155 1.283 . S
C171 O158 1.243 . S
C172 C173 1.382 . S
C172 C176 1.393 . S
C172 C179 1.500 . S
C173 C172 1.382 . S
C173 C174 1.400 . S
C173 H184 0.930 1_655 S
C174 C173 1.400 . S
C174 C175 1.384 . S
C175 C174 1.384 . S
C175 C177 1.392 . S
C175 H185 0.931 . S
C176 C172 1.393 . S
C176 C177 1.401 . S
C176 H186 0.930 . S
C177 C175 1.392 . S
C177 C176 1.401 . S
C177 H187 0.930 . S
C178 O156 1.262 1_545 S
C178 O157 1.260 . S
C179 Tb115 2.833 . S
C179 O154 1.251 . S
C179 O159 1.256 . S
C179 C172 1.500 . S
H180 C163 0.897 1_655 S
H181 C164 0.931 . S
H182 C165 0.930 . S
H183 C166 0.930 . S
H184 C173 0.930 1_455 S
H185 C175 0.931 . S
H186 C176 0.930 . S
H187 C177 0.930 . S
Tb188 N219 2.660 . S
Tb188 N226 2.600 . S
Tb188 O232 2.546 . S
Tb188 O233 2.591 1_545 S
Tb188 O235 2.320 1_545 S
Tb188 O236 2.552 . S
Tb188 O237 2.413 . S
Tb188 O239 2.362 . S
Tb188 O240 2.421 . S
Tb188 C252 2.833 . S
C189 C192 1.432 . S
C189 C193 1.414 . S
C189 N196 1.359 . S
C190 C192 1.417 . S
C190 C194 1.432 . S
C190 C202 1.410 . S
C191 C193 1.444 . S
C191 C194 1.317 . S
C191 H214 0.929 . S
C192 C189 1.432 . S
C192 C190 1.417 . S
C192 N200 1.360 . S
C193 C189 1.414 . S
C193 C191 1.444 . S
C193 C198 1.385 . S
C194 C190 1.432 . S
C194 C191 1.317 . S
C194 H206 0.930 . S
C195 C197 1.392 . S
C195 C198 1.370 . S
C195 H207 0.931 . S
N196 C189 1.359 . S
N196 C197 1.327 . S
N196 Tb199 2.600 . S
C197 C195 1.392 . S
C197 N196 1.327 . S
C197 H204 0.930 . S
C198 C193 1.385 . S
C198 C195 1.370 . S
C198 H217 0.930 . S
Tb199 N196 2.600 . S
Tb199 N200 2.660 . S
Tb199 O233 2.367 . S
Tb199 O234 2.421 . S
Tb199 O238 2.546 . S
Tb199 O239 2.610 1_565 S
Tb199 O241 2.320 1_565 S
Tb199 O242 2.552 1_565 S
Tb199 O243 2.403 1_565 S
Tb199 C263 2.833 . S
N200 C192 1.360 . S
N200 Tb199 2.660 . S
N200 C201 1.305 1_565 S
C201 N200 1.305 1_545 S
C201 C203 1.407 . S
C201 H208 0.930 . S
C202 C190 1.410 . S
C202 C203 1.345 1_565 S
C202 H210 0.930 . S
C203 C201 1.407 . S
C203 C202 1.345 1_545 S
C203 H205 0.930 . S
H204 C197 0.930 . S
H205 C203 0.930 . S
H206 C194 0.930 . S
H207 C195 0.931 . S
H208 C201 0.930 . S
H209 C223 0.930 1_565 S
H210 C202 0.930 . S
H211 C229 0.930 . S
H212 C220 0.930 1_565 S
H213 C227 0.931 . S
H214 C191 0.929 . S
H215 C221 0.930 1_554 S
H216 C254 0.930 1_554 S
H217 C198 0.930 . S
H218 C253 0.929 . S
N219 Tb188 2.660 . S
N219 C220 1.305 . S
N219 C224 1.360 . S
C220 H212 0.930 1_545 S
C220 N219 1.305 . S
C220 C223 1.407 . S
C221 H215 0.930 1_556 S
C221 C222 1.410 . S
C221 C223 1.345 . S
C222 C221 1.410 . S
C222 C224 1.417 . S
C222 C254 1.432 . S
C223 H209 0.930 1_545 S
C223 C220 1.407 . S
C223 C221 1.345 . S
C224 N219 1.360 . S
C224 C222 1.417 . S
C224 C228 1.432 . S
H225 C230 0.930 . S
N226 Tb188 2.600 . S
N226 C228 1.359 . S
N226 C229 1.327 . S
C227 H213 0.931 . S
C227 C229 1.392 . S
C227 C230 1.370 . S
C228 C224 1.432 . S
C228 N226 1.359 . S
C228 C231 1.414 . S
C229 H211 0.930 . S
C229 N226 1.327 . S
C229 C227 1.392 . S
C230 H225 0.930 . S
C230 C227 1.370 . S
C230 C231 1.385 . S
C231 C228 1.414 . S
C231 C230 1.385 . S
C231 C253 1.444 . S
O232 Tb188 2.546 . S
O232 C252 1.251 . S
O233 Tb188 2.591 1_565 S
O233 Tb199 2.367 . S
O233 C244 1.282 1_565 S
O234 Tb199 2.421 . S
O234 C251 1.262 . S
O235 Tb188 2.320 1_565 S
O235 C251 1.260 . S
O236 Tb188 2.552 . S
O236 C244 1.239 . S
O237 Tb188 2.413 . S
O237 C252 1.256 . S
O238 Tb199 2.546 . S
O238 C263 1.251 . S
O239 Tb188 2.362 . S
O239 Tb199 2.610 1_545 S
O239 C255 1.283 . S
O240 Tb188 2.421 . S
O240 C262 1.262 . S
O241 Tb199 2.320 1_545 S
O241 C262 1.260 . S
O242 Tb199 2.552 1_545 S
O242 C255 1.243 . S
O243 Tb199 2.403 1_545 S
O243 C263 1.215 1_545 S
C244 O233 1.282 1_545 S
C244 O236 1.239 . S
C245 C247 1.382 . S
C245 C249 1.393 . S
C245 C252 1.500 . S
C246 C247 1.400 . S
C246 C248 1.384 . S
C247 C245 1.382 . S
C247 C246 1.400 . S
C247 H264 0.930 . S
C248 C246 1.384 . S
C248 C250 1.392 . S
C248 H265 0.931 . S
C249 C245 1.393 . S
C249 C250 1.401 . S
C249 H266 0.930 . S
C250 C248 1.392 . S
C250 C249 1.401 . S
C250 H267 0.930 . S
C251 O234 1.262 . S
C251 O235 1.260 . S
C252 Tb188 2.833 . S
C252 O232 1.251 . S
C252 O237 1.256 . S
C252 C245 1.500 . S
C253 H218 0.929 . S
C253 C231 1.444 . S
C253 C254 1.317 . S
C254 H216 0.930 1_556 S
C254 C222 1.432 . S
C254 C253 1.317 . S
C255 O239 1.283 . S
C255 O242 1.243 . S
C256 C257 1.356 1_565 S
C256 C260 1.393 . S
C256 C263 1.500 . S
C257 C256 1.356 1_545 S
C257 C258 1.398 1_545 S
C257 H268 0.959 . S
C258 C257 1.398 1_565 S
C258 C259 1.384 . S
C259 C258 1.384 . S
C259 C261 1.392 . S
C259 H269 0.931 . S
C260 C256 1.393 . S
C260 C261 1.401 . S
C260 H270 0.930 . S
C261 C259 1.392 . S
C261 C260 1.401 . S
C261 H271 0.930 . S
C262 O240 1.262 . S
C262 O241 1.260 . S
C263 Tb199 2.833 . S
C263 O238 1.251 . S
C263 O243 1.215 1_565 S
C263 C256 1.500 . S
H264 C247 0.930 . S
H265 C248 0.931 . S
H266 C249 0.930 . S
H267 C250 0.930 . S
H268 C257 0.959 . S
H269 C259 0.931 . S
H270 C260 0.930 . S
H271 C261 0.930 . S
Tb272 N303 2.660 . S
Tb272 N310 2.600 . S
Tb272 O316 2.546 . S
Tb272 O317 2.610 . S
Tb272 O319 2.320 . S
Tb272 O320 2.552 . S
Tb272 O321 2.413 . S
Tb272 O323 2.362 . S
Tb272 O324 2.421 . S
Tb272 C336 2.833 . S
C273 C276 1.432 . S
C273 C277 1.414 . S
C273 N280 1.359 . S
C274 C276 1.417 . S
C274 C278 1.432 . S
C274 C286 1.410 . S
C275 C277 1.444 . S
C275 C278 1.317 . S
C275 H298 0.929 . S
C276 C273 1.432 . S
C276 C274 1.417 . S
C276 N284 1.360 . S
C277 C273 1.414 . S
C277 C275 1.444 . S
C277 C282 1.385 . S
C278 C274 1.432 . S
C278 C275 1.317 . S
C278 H290 0.930 . S
C279 C281 1.392 . S
C279 C282 1.370 . S
C279 H291 0.931 . S
N280 C273 1.359 . S
N280 C281 1.327 . S
N280 Tb283 2.600 . S
C281 C279 1.392 . S
C281 N280 1.327 . S
C281 H288 0.930 . S
C282 C277 1.385 . S
C282 C279 1.370 . S
C282 H301 0.930 . S
Tb283 N280 2.600 . S
Tb283 N284 2.660 . S
Tb283 O317 2.362 . S
Tb283 O318 2.421 . S
Tb283 O322 2.546 . S
Tb283 O323 2.610 . S
Tb283 O325 2.320 . S
Tb283 O326 2.552 . S
Tb283 O327 2.413 . S
Tb283 C347 2.833 . S
N284 C276 1.360 . S
N284 Tb283 2.660 . S
N284 C285 1.305 . S
C285 N284 1.305 . S
C285 C287 1.407 . S
C285 H292 0.930 . S
C286 C274 1.410 . S
C286 C287 1.345 . S
C286 H294 0.930 . S
C287 C285 1.407 . S
C287 C286 1.345 . S
C287 H289 0.930 . S
H288 C281 0.930 . S
H289 C287 0.930 . S
H290 C278 0.930 . S
H291 C279 0.931 . S
H292 C285 0.930 . S
H293 C307 0.930 . S
H294 C286 0.930 . S
H295 C313 0.930 . S
H296 C304 0.930 . S
H297 C311 0.931 . S
H298 C275 0.929 . S
H299 C305 0.930 . S
H300 C338 0.930 . S
H301 C282 0.930 . S
H302 C337 0.929 . S
N303 Tb272 2.660 . S
N303 C304 1.305 . S
N303 C308 1.360 . S
C304 H296 0.930 . S
C304 N303 1.305 . S
C304 C307 1.407 . S
C305 H299 0.930 . S
C305 C306 1.410 . S
C305 C307 1.345 . S
C306 C305 1.410 . S
C306 C308 1.417 . S
C306 C338 1.432 . S
C307 H293 0.930 . S
C307 C304 1.407 . S
C307 C305 1.345 . S
C308 N303 1.360 . S
C308 C306 1.417 . S
C308 C312 1.432 . S
H309 C314 0.930 . S
N310 Tb272 2.600 . S
N310 C312 1.359 . S
N310 C313 1.327 . S
C311 H297 0.931 . S
C311 C313 1.392 . S
C311 C314 1.370 . S
C312 C308 1.432 . S
C312 N310 1.359 . S
C312 C315 1.414 . S
C313 H295 0.930 . S
C313 N310 1.327 . S
C313 C311 1.392 . S
C314 H309 0.930 . S
C314 C311 1.370 . S
C314 C315 1.385 . S
C315 C312 1.414 . S
C315 C314 1.385 . S
C315 C337 1.444 . S
O316 Tb272 2.546 . S
O316 C336 1.251 . S
O317 Tb272 2.610 . S
O317 Tb283 2.362 . S
O317 C328 1.283 . S
O318 Tb283 2.421 . S
O318 C335 1.262 . S
O319 Tb272 2.320 . S
O319 C335 1.260 . S
O320 Tb272 2.552 . S
O320 C328 1.243 . S
O321 Tb272 2.413 . S
O321 C336 1.256 . S
O322 Tb283 2.546 . S
O322 C347 1.251 . S
O323 Tb272 2.362 . S
O323 Tb283 2.610 . S
O323 C339 1.283 . S
O324 Tb272 2.421 . S
O324 C346 1.262 . S
O325 Tb283 2.320 . S
O325 C346 1.260 . S
O326 Tb283 2.552 . S
O326 C339 1.243 . S
O327 Tb283 2.413 . S
O327 C347 1.256 . S
C328 O317 1.283 . S
C328 O320 1.243 . S
C329 C331 1.382 . S
C329 C333 1.393 . S
C329 C336 1.500 . S
C330 C331 1.400 . S
C330 C332 1.384 . S
C331 C329 1.382 . S
C331 C330 1.400 . S
C331 H348 0.930 . S
C332 C330 1.384 . S
C332 C334 1.392 . S
C332 H349 0.931 . S
C333 C329 1.393 . S
C333 C334 1.401 . S
C333 H350 0.930 . S
C334 C332 1.392 . S
C334 C333 1.401 . S
C334 H351 0.930 . S
C335 O318 1.262 . S
C335 O319 1.260 . S
C336 Tb272 2.833 . S
C336 O316 1.251 . S
C336 O321 1.256 . S
C336 C329 1.500 . S
C337 H302 0.929 . S
C337 C315 1.444 . S
C337 C338 1.317 . S
C338 H300 0.930 . S
C338 C306 1.432 . S
C338 C337 1.317 . S
C339 O323 1.283 . S
C339 O326 1.243 . S
C340 C341 1.382 . S
C340 C344 1.393 . S
C340 C347 1.500 . S
C341 C340 1.382 . S
C341 C342 1.400 . S
C341 H352 0.930 . S
C342 C341 1.400 . S
C342 C343 1.384 1_556 S
C343 C342 1.384 1_554 S
C343 C345 1.392 . S
C343 H353 0.931 . S
C344 C340 1.393 . S
C344 C345 1.401 1_556 S
C344 H354 0.930 . S
C345 C343 1.392 . S
C345 C344 1.401 1_554 S
C345 H355 0.930 . S
C346 O324 1.262 . S
C346 O325 1.260 . S
C347 Tb283 2.833 . S
C347 O322 1.251 . S
C347 O327 1.256 . S
C347 C340 1.500 . S
H348 C331 0.930 . S
H349 C332 0.931 . S
H350 C333 0.930 . S
H351 C334 0.930 . S
H352 C341 0.930 . S
H353 C343 0.931 . S
H354 C344 0.930 . S
H355 C345 0.930 . S
Tb356 N387 2.660 . S
Tb356 N394 2.600 . S
Tb356 O400 2.546 . S
Tb356 O401 2.610 . S
Tb356 O403 2.320 . S
Tb356 O404 2.552 . S
Tb356 O405 2.413 . S
Tb356 O407 2.362 . S
Tb356 O408 2.421 1_455 S
Tb356 C420 2.833 . S
C357 C360 1.432 . S
C357 C361 1.414 . S
C357 N364 1.359 . S
C358 C360 1.417 . S
C358 C362 1.432 . S
C358 C370 1.410 . S
C359 C361 1.444 . S
C359 C362 1.317 . S
C359 H382 0.929 . S
C360 C357 1.432 . S
C360 C358 1.417 . S
C360 N368 1.360 . S
C361 C357 1.414 . S
C361 C359 1.444 . S
C361 C366 1.385 1_655 S
C362 C358 1.432 . S
C362 C359 1.317 . S
C362 H374 0.930 . S
C363 C365 1.392 . S
C363 C366 1.370 . S
C363 H375 0.931 . S
N364 C357 1.359 . S
N364 C365 1.327 1_655 S
N364 Tb367 2.600 . S
C365 C363 1.392 . S
C365 N364 1.327 1_455 S
C365 H372 0.930 . S
C366 C361 1.385 1_455 S
C366 C363 1.370 . S
C366 H385 0.930 . S
Tb367 N364 2.600 . S
Tb367 N368 2.660 . S
Tb367 O401 2.362 1_655 S
Tb367 O402 2.421 1_655 S
Tb367 O406 2.546 . S
Tb367 O407 2.610 1_655 S
Tb367 O409 2.320 . S
Tb367 O410 2.552 . S
Tb367 O411 2.413 . S
Tb367 C431 2.833 . S
N368 C360 1.360 . S
N368 Tb367 2.660 . S
N368 C369 1.305 . S
C369 N368 1.305 . S
C369 C371 1.407 . S
C369 H376 0.930 . S
C370 C358 1.410 . S
C370 C371 1.345 . S
C370 H378 0.930 . S
C371 C369 1.407 . S
C371 C370 1.345 . S
C371 H373 0.930 . S
H372 C365 0.930 . S
H373 C371 0.930 . S
H374 C362 0.930 . S
H375 C363 0.931 . S
H376 C369 0.930 . S
H377 C391 0.930 . S
H378 C370 0.930 . S
H379 C397 0.930 1_655 S
H380 C388 0.930 . S
H381 C395 0.943 . S
H382 C359 0.929 . S
H383 C389 0.930 . S
H384 C422 0.930 . S
H385 C366 0.930 . S
H386 C421 0.929 . S
N387 Tb356 2.660 . S
N387 C388 1.305 . S
N387 C392 1.360 . S
C388 H380 0.930 . S
C388 N387 1.305 . S
C388 C391 1.407 . S
C389 H383 0.930 . S
C389 C390 1.410 . S
C389 C391 1.345 . S
C390 C389 1.410 . S
C390 C392 1.417 . S
C390 C422 1.432 . S
C391 H377 0.930 . S
C391 C388 1.407 . S
C391 C389 1.345 . S
C392 N387 1.360 . S
C392 C390 1.417 . S
C392 C396 1.432 . S
H393 C398 0.930 . S
N394 Tb356 2.600 . S
N394 C396 1.359 . S
N394 C397 1.327 . S
C395 H381 0.943 . S
C395 C397 1.390 1_655 S
C395 C398 1.360 1_655 S
C396 C392 1.432 . S
C396 N394 1.359 . S
C396 C399 1.414 . S
C397 H379 0.930 1_455 S
C397 N394 1.327 . S
C397 C395 1.390 1_455 S
C398 H393 0.930 . S
C398 C395 1.360 1_455 S
C398 C399 1.385 . S
C399 C396 1.414 . S
C399 C398 1.385 . S
C399 C421 1.444 . S
O400 Tb356 2.546 . S
O400 C420 1.251 . S
O401 Tb356 2.610 . S
O401 Tb367 2.362 1_455 S
O401 C412 1.283 . S
O402 Tb367 2.421 1_455 S
O402 C419 1.262 . S
O403 Tb356 2.320 . S
O403 C419 1.260 . S
O404 Tb356 2.552 . S
O404 C412 1.243 . S
O405 Tb356 2.413 . S
O405 C420 1.256 . S
O406 Tb367 2.546 . S
O406 C431 1.251 . S
O407 Tb356 2.362 . S
O407 Tb367 2.610 1_455 S
O407 C423 1.283 1_455 S
O408 Tb356 2.421 1_655 S
O408 C430 1.262 . S
O409 Tb367 2.320 . S
O409 C430 1.260 . S
O410 Tb367 2.552 . S
O410 C423 1.243 . S
O411 Tb367 2.413 . S
O411 C431 1.256 . S
C412 O401 1.283 . S
C412 O404 1.243 . S
C413 C415 1.382 . S
C413 C417 1.393 . S
C413 C420 1.500 . S
C414 C415 1.400 . S
C414 C416 1.384 . S
C415 C413 1.382 . S
C415 C414 1.400 . S
C415 H432 0.930 . S
C416 C414 1.384 . S
C416 C418 1.392 . S
C416 H433 0.931 . S
C417 C413 1.393 . S
C417 C418 1.401 . S
C417 H434 0.930 . S
C418 C416 1.392 . S
C418 C417 1.401 . S
C418 H435 0.930 . S
C419 O402 1.262 . S
C419 O403 1.260 . S
C420 Tb356 2.833 . S
C420 O400 1.251 . S
C420 O405 1.256 . S
C420 C413 1.500 . S
C421 H386 0.929 . S
C421 C399 1.444 . S
C421 C422 1.317 . S
C422 H384 0.930 . S
C422 C390 1.432 . S
C422 C421 1.317 . S
C423 O407 1.283 1_655 S
C423 O410 1.243 . S
C424 C425 1.382 . S
C424 C428 1.393 . S
C424 C431 1.500 . S
C425 C424 1.382 . S
C425 C426 1.400 . S
C425 H436 0.930 . S
C426 C425 1.400 . S
C426 C427 1.384 1_556 S
C427 C426 1.384 1_554 S
C427 C429 1.392 . S
C427 H437 0.931 . S
C428 C424 1.393 . S
C428 C429 1.401 1_556 S
C428 H438 0.930 . S
C429 C427 1.392 . S
C429 C428 1.401 1_554 S
C429 H439 0.930 . S
C430 O408 1.262 . S
C430 O409 1.260 . S
C431 Tb367 2.833 . S
C431 O406 1.251 . S
C431 O411 1.256 . S
C431 C424 1.500 . S
H432 C415 0.930 . S
H433 C416 0.931 . S
H434 C417 0.930 . S
H435 C418 0.930 . S
H436 C425 0.930 . S
H437 C427 0.931 . S
H438 C428 0.930 . S
H439 C429 0.930 . S
H440 C458 0.951 . S
H441 C460 0.951 . S
H442 C462 0.950 . S
H443 C463 0.950 . S
H444 C465 0.950 . S
H445 C468 0.950 . S
H446 C469 0.950 . S
H447 C471 0.950 . S
H448 C472 0.950 . S
H449 C473 0.951 . S
H450 C475 0.951 . S
H451 C477 0.950 . S
H452 C478 0.950 1_565 S
H453 C480 0.950 . S
H454 C483 0.950 . S
H455 C484 0.950 . S
H456 C486 0.950 . S
H457 C487 0.950 . S
C458 H440 0.951 . S
C458 C459 1.366 . S
C458 C460 1.388 . S
C459 C458 1.366 . S
C459 C463 1.385 . S
C460 H441 0.951 . S
C460 C458 1.388 . S
C460 C461 1.366 . S
C461 C460 1.366 . S
C461 C462 1.414 . S
C461 C464 1.499 . S
C462 H442 0.950 . S
C462 C461 1.414 . S
C462 C463 1.374 . S
C463 H443 0.950 . S
C463 C459 1.385 . S
C463 C462 1.374 . S
C464 C461 1.499 . S
C464 C465 1.373 . S
C464 C466 1.389 . S
C465 H444 0.950 . S
C465 C464 1.373 . S
C465 C481 1.377 . S
C466 C464 1.389 . S
C466 C467 1.524 . S
C466 C480 1.377 . S
C467 C466 1.524 . S
C467 C468 1.397 . S
C467 C472 1.363 1_545 S
C468 H445 0.950 . S
C468 C467 1.397 . S
C468 C469 1.334 1_545 S
C469 H446 0.950 . S
C469 C468 1.334 1_565 S
C469 C470 1.287 . S
C470 C469 1.287 . S
C470 C471 1.524 . S
C470 H489 0.913 . S
C471 H447 0.950 . S
C471 C470 1.524 . S
C471 C472 1.415 . S
C472 H448 0.950 . S
C472 C467 1.363 1_565 S
C472 C471 1.415 . S
C473 H449 0.951 . S
C473 C474 1.366 . S
C473 C475 1.388 . S
C474 C473 1.366 . S
C474 C478 1.385 . S
C475 H450 0.951 . S
C475 C473 1.388 . S
C475 C476 1.366 . S
C476 C475 1.366 . S
C476 C477 1.414 . S
C476 C479 1.499 . S
C477 H451 0.950 . S
C477 C476 1.414 . S
C477 C478 1.374 . S
C478 H452 0.950 1_545 S
C478 C474 1.385 . S
C478 C477 1.374 . S
C479 C476 1.499 . S
C479 C480 1.373 . S
C479 C481 1.389 . S
C480 H453 0.950 . S
C480 C466 1.377 . S
C480 C479 1.373 . S
C481 C465 1.377 . S
C481 C479 1.389 . S
C481 C482 1.524 . S
C482 C481 1.524 . S
C482 C483 1.397 . S
C482 C487 1.363 . S
C483 H454 0.950 . S
C483 C482 1.397 . S
C483 C484 1.334 . S
C484 H455 0.950 . S
C484 C483 1.334 . S
C484 C485 1.287 . S
C485 C484 1.287 . S
C485 C486 1.524 . S
C485 H488 0.999 . S
C486 H456 0.950 . S
C486 C485 1.524 . S
C486 C487 1.415 . S
C487 H457 0.950 . S
C487 C482 1.363 . S
C487 C486 1.415 . S
H488 C485 0.999 . S
H489 C470 0.913 . S
H490 C508 0.951 . S
H491 C510 0.951 . S
H492 C512 0.950 . S
H493 C513 0.950 . S
H494 C515 0.950 . S
H495 C518 0.950 . S
H496 C519 0.950 . S
H497 C521 0.950 . S
H498 C522 0.950 . S
H499 C523 0.951 . S
H500 C525 0.951 . S
H501 C527 0.950 . S
H502 C528 0.950 . S
H503 C530 0.950 . S
H504 C533 0.950 . S
H505 C534 0.950 . S
H506 C536 0.950 . S
H507 C537 0.950 . S
C508 H490 0.951 . S
C508 C509 1.366 . S
C508 C510 1.388 . S
C509 C508 1.366 . S
C509 C513 1.385 . S
C510 H491 0.951 . S
C510 C508 1.388 . S
C510 C511 1.366 . S
C511 C510 1.366 . S
C511 C512 1.414 . S
C511 C514 1.499 . S
C512 H492 0.950 . S
C512 C511 1.414 . S
C512 C513 1.374 . S
C513 H493 0.950 . S
C513 C509 1.385 . S
C513 C512 1.374 . S
C514 C511 1.499 . S
C514 C515 1.373 . S
C514 C516 1.389 . S
C515 H494 0.950 . S
C515 C514 1.373 . S
C515 C531 1.377 . S
C516 C514 1.389 . S
C516 C517 1.524 . S
C516 C530 1.377 . S
C517 C516 1.524 . S
C517 C518 1.397 . S
C517 C522 1.363 . S
C518 H495 0.950 . S
C518 C517 1.397 . S
C518 C519 1.334 . S
C519 H496 0.950 . S
C519 C518 1.334 . S
C519 C520 1.287 . S
C520 C519 1.287 . S
C520 C521 1.524 . S
C520 H539 0.913 . S
C521 H497 0.950 . S
C521 C520 1.524 . S
C521 C522 1.415 . S
C522 H498 0.950 . S
C522 C517 1.363 . S
C522 C521 1.415 . S
C523 H499 0.951 . S
C523 C524 1.366 . S
C523 C525 1.388 . S
C524 C523 1.366 . S
C524 C528 1.385 . S
C525 H500 0.951 . S
C525 C523 1.388 . S
C525 C526 1.366 . S
C526 C525 1.366 . S
C526 C527 1.414 . S
C526 C529 1.499 . S
C527 H501 0.950 . S
C527 C526 1.414 . S
C527 C528 1.374 . S
C528 H502 0.950 . S
C528 C524 1.385 . S
C528 C527 1.374 . S
C529 C526 1.499 . S
C529 C530 1.373 . S
C529 C531 1.389 . S
C530 H503 0.950 . S
C530 C516 1.377 . S
C530 C529 1.373 . S
C531 C515 1.377 . S
C531 C529 1.389 . S
C531 C532 1.524 . S
C532 C531 1.524 . S
C532 C533 1.397 . S
C532 C537 1.363 . S
C533 H504 0.950 . S
C533 C532 1.397 . S
C533 C534 1.334 . S
C534 H505 0.950 . S
C534 C533 1.334 . S
C534 C535 1.287 . S
C535 C534 1.287 . S
C535 C536 1.524 . S
C535 H538 0.999 . S
C536 H506 0.950 . S
C536 C535 1.524 . S
C536 C537 1.415 . S
C537 H507 0.950 . S
C537 C532 1.363 . S
C537 C536 1.415 . S
H538 C535 0.999 . S
H539 C520 0.913 . S
H540 C558 0.951 . S
H541 C560 0.951 . S
H542 C562 0.950 . S
H543 C563 0.950 . S
H544 C565 0.950 . S
H545 C568 0.950 . S
H546 C569 0.950 . S
H547 C571 0.950 . S
H548 C572 0.950 . S
H549 C573 0.951 . S
H550 C575 0.951 . S
H551 C577 0.950 . S
H552 C578 0.950 . S
H553 C580 0.950 . S
H554 C583 0.950 . S
H555 C584 0.950 . S
H556 C586 0.950 . S
H557 C587 0.950 . S
C558 H540 0.951 . S
C558 C559 1.366 . S
C558 C560 1.388 . S
C559 C558 1.366 . S
C559 C563 1.385 . S
C560 H541 0.951 . S
C560 C558 1.388 . S
C560 C561 1.366 . S
C561 C560 1.366 . S
C561 C562 1.414 . S
C561 C564 1.499 . S
C562 H542 0.950 . S
C562 C561 1.414 . S
C562 C563 1.374 . S
C563 H543 0.950 . S
C563 C559 1.385 . S
C563 C562 1.374 . S
C564 C561 1.499 . S
C564 C565 1.373 . S
C564 C566 1.389 . S
C565 H544 0.950 . S
C565 C564 1.373 . S
C565 C581 1.377 . S
C566 C564 1.389 . S
C566 C567 1.524 . S
C566 C580 1.377 . S
C567 C566 1.524 . S
C567 C568 1.397 . S
C567 C572 1.363 . S
C568 H545 0.950 . S
C568 C567 1.397 . S
C568 C569 1.334 . S
C569 H546 0.950 . S
C569 C568 1.334 . S
C569 C570 1.287 . S
C570 C569 1.287 . S
C570 C571 1.524 . S
C570 H589 0.913 . S
C571 H547 0.950 . S
C571 C570 1.524 . S
C571 C572 1.415 . S
C572 H548 0.950 . S
C572 C567 1.363 . S
C572 C571 1.415 . S
C573 H549 0.951 . S
C573 C574 1.366 . S
C573 C575 1.388 . S
C574 C573 1.366 . S
C574 C578 1.385 . S
C575 H550 0.951 . S
C575 C573 1.388 . S
C575 C576 1.366 . S
C576 C575 1.366 . S
C576 C577 1.414 . S
C576 C579 1.499 . S
C577 H551 0.950 . S
C577 C576 1.414 . S
C577 C578 1.374 . S
C578 H552 0.950 . S
C578 C574 1.385 . S
C578 C577 1.374 . S
C579 C576 1.499 . S
C579 C580 1.373 . S
C579 C581 1.389 . S
C580 H553 0.950 . S
C580 C566 1.377 . S
C580 C579 1.373 . S
C581 C565 1.377 . S
C581 C579 1.389 . S
C581 C582 1.524 . S
C582 C581 1.524 . S
C582 C583 1.397 . S
C582 C587 1.363 . S
C583 H554 0.950 . S
C583 C582 1.397 . S
C583 C584 1.334 . S
C584 H555 0.950 . S
C584 C583 1.334 . S
C584 C585 1.287 . S
C585 C584 1.287 . S
C585 C586 1.524 . S
C585 H588 0.999 . S
C586 H556 0.950 . S
C586 C585 1.524 . S
C586 C587 1.415 . S
C587 H557 0.950 . S
C587 C582 1.363 . S
C587 C586 1.415 . S
H588 C585 0.999 . S
H589 C570 0.913 . S
H590 C608 0.951 . S
H591 C610 0.951 . S
H592 C612 0.950 . S
H593 C613 0.950 . S
H594 C615 0.950 . S
H595 C618 0.950 . S
H596 C619 0.950 . S
H597 C621 0.950 . S
H598 C622 0.950 . S
H599 C623 0.951 1_655 S
H600 C625 0.951 . S
H601 C627 0.950 . S
H602 C628 0.950 . S
H603 C630 0.950 . S
H604 C633 0.950 1_455 S
H605 C634 0.950 . S
H606 C636 0.950 . S
H607 C637 0.950 . S
C608 H590 0.951 . S
C608 C609 1.366 . S
C608 C610 1.388 . S
C609 C608 1.366 . S
C609 C613 1.385 . S
C610 H591 0.951 . S
C610 C608 1.388 . S
C610 C611 1.366 . S
C611 C610 1.366 . S
C611 C612 1.414 . S
C611 C614 1.499 . S
C612 H592 0.950 . S
C612 C611 1.414 . S
C612 C613 1.374 . S
C613 H593 0.950 . S
C613 C609 1.385 . S
C613 C612 1.374 . S
C614 C611 1.499 . S
C614 C615 1.373 . S
C614 C616 1.389 . S
C615 H594 0.950 . S
C615 C614 1.373 . S
C615 C631 1.377 . S
C616 C614 1.389 . S
C616 C617 1.524 . S
C616 C630 1.377 . S
C617 C616 1.524 . S
C617 C618 1.397 . S
C617 C622 1.363 . S
C618 H595 0.950 . S
C618 C617 1.397 . S
C618 C619 1.334 . S
C619 H596 0.950 . S
C619 C618 1.334 . S
C619 C620 1.287 . S
C620 C619 1.287 . S
C620 C621 1.524 . S
C620 H639 0.913 . S
C621 H597 0.950 . S
C621 C620 1.524 . S
C621 C622 1.415 . S
C622 H598 0.950 . S
C622 C617 1.363 . S
C622 C621 1.415 . S
C623 H599 0.951 1_455 S
C623 C624 1.366 . S
C623 C625 1.388 . S
C624 C623 1.366 . S
C624 C628 1.385 . S
C625 H600 0.951 . S
C625 C623 1.388 . S
C625 C626 1.366 . S
C626 C625 1.366 . S
C626 C627 1.414 . S
C626 C629 1.499 . S
C627 H601 0.950 . S
C627 C626 1.414 . S
C627 C628 1.374 . S
C628 H602 0.950 . S
C628 C624 1.385 . S
C628 C627 1.374 . S
C629 C626 1.499 . S
C629 C630 1.373 . S
C629 C631 1.389 . S
C630 H603 0.950 . S
C630 C616 1.377 . S
C630 C629 1.373 . S
C631 C615 1.377 . S
C631 C629 1.389 . S
C631 C632 1.524 1_455 S
C632 C631 1.524 1_655 S
C632 C633 1.397 . S
C632 C637 1.363 . S
C633 H604 0.950 1_655 S
C633 C632 1.397 . S
C633 C634 1.334 . S
C634 H605 0.950 . S
C634 C633 1.334 . S
C634 C635 1.287 . S
C635 C634 1.287 . S
C635 C636 1.524 . S
C635 H638 0.999 . S
C636 H606 0.950 . S
C636 C635 1.524 . S
C636 C637 1.415 . S
C637 H607 0.950 . S
C637 C632 1.363 . S
C637 C636 1.415 . S
H638 C635 0.999 . S
H639 C620 0.913 . S
H640 C658 0.951 . S
H641 C660 0.951 . S
H642 C662 0.950 . S
H643 C663 0.950 . S
H644 C665 0.950 . S
H645 C668 0.950 1_554 S
H646 C669 0.950 1_554 S
H647 C671 0.950 . S
H648 C672 0.950 . S
H649 C673 0.951 . S
H650 C675 0.951 . S
H651 C677 0.950 . S
H652 C678 0.950 . S
H653 C680 0.950 . S
H654 C683 0.950 . S
H655 C684 0.950 . S
H656 C686 0.950 . S
H657 C687 0.950 . S
C658 H640 0.951 . S
C658 C659 1.366 . S
C658 C660 1.388 . S
C659 C658 1.366 . S
C659 C663 1.385 . S
C660 H641 0.951 . S
C660 C658 1.388 . S
C660 C661 1.366 . S
C661 C660 1.366 . S
C661 C662 1.414 . S
C661 C664 1.499 . S
C662 H642 0.950 . S
C662 C661 1.414 . S
C662 C663 1.374 . S
C663 H643 0.950 . S
C663 C659 1.385 . S
C663 C662 1.374 . S
C664 C661 1.499 . S
C664 C665 1.373 . S
C664 C666 1.389 1_554 S
C665 H644 0.950 . S
C665 C664 1.373 . S
C665 C681 1.377 1_554 S
C666 C664 1.389 1_556 S
C666 C667 1.524 . S
C666 C680 1.377 . S
C667 C666 1.524 . S
C667 C668 1.397 . S
C667 C672 1.363 . S
C668 H645 0.950 1_556 S
C668 C667 1.397 . S
C668 C669 1.334 . S
C669 H646 0.950 1_556 S
C669 C668 1.334 . S
C669 C670 1.287 . S
C670 C669 1.287 . S
C670 C671 1.524 . S
C670 H689 0.913 . S
C671 H647 0.950 . S
C671 C670 1.524 . S
C671 C672 1.415 . S
C672 H648 0.950 . S
C672 C667 1.363 . S
C672 C671 1.415 . S
C673 H649 0.951 . S
C673 C674 1.366 . S
C673 C675 1.388 . S
C674 C673 1.366 . S
C674 C678 1.385 . S
C675 H650 0.951 . S
C675 C673 1.388 . S
C675 C676 1.366 . S
C676 C675 1.366 . S
C676 C677 1.414 . S
C676 C679 1.499 . S
C677 H651 0.950 . S
C677 C676 1.414 . S
C677 C678 1.374 . S
C678 H652 0.950 . S
C678 C674 1.385 . S
C678 C677 1.374 . S
C679 C676 1.499 . S
C679 C680 1.373 . S
C679 C681 1.389 . S
C680 H653 0.950 . S
C680 C666 1.377 . S
C680 C679 1.373 . S
C681 C665 1.377 1_556 S
C681 C679 1.389 . S
C681 C682 1.524 1_566 S
C682 C681 1.524 1_544 S
C682 C683 1.397 1_554 S
C682 C687 1.363 . S
C683 H654 0.950 . S
C683 C682 1.397 1_556 S
C683 C684 1.334 . S
C684 H655 0.950 . S
C684 C683 1.334 . S
C684 C685 1.287 1_556 S
C685 C684 1.287 1_554 S
C685 C686 1.524 . S
C685 H688 0.999 . S
C686 H656 0.950 . S
C686 C685 1.524 . S
C686 C687 1.415 . S
C687 H657 0.950 . S
C687 C682 1.363 . S
C687 C686 1.415 . S
H688 C685 0.999 . S
H689 C670 0.913 . S
H690 C708 0.951 . S
H691 C710 0.951 . S
H692 C712 0.950 . S
H693 C713 0.950 . S
H694 C715 0.950 . S
H695 C718 0.950 . S
H696 C719 0.950 . S
H697 C721 0.950 . S
H698 C722 0.950 1_556 S
H699 C723 0.951 . S
H700 C725 0.951 . S
H701 C727 0.950 . S
H702 C728 0.950 . S
H703 C730 0.950 . S
H704 C733 0.950 . S
H705 C734 0.950 . S
H706 C736 0.950 . S
H707 C737 0.950 . S
C708 H690 0.951 . S
C708 C709 1.366 . S
C708 C710 1.388 . S
C709 C708 1.366 . S
C709 C713 1.385 . S
C710 H691 0.951 . S
C710 C708 1.388 . S
C710 C711 1.366 . S
C711 C710 1.366 . S
C711 C712 1.414 . S
C711 C714 1.499 . S
C712 H692 0.950 . S
C712 C711 1.414 . S
C712 C713 1.374 . S
C713 H693 0.950 . S
C713 C709 1.385 . S
C713 C712 1.374 . S
C714 C711 1.499 . S
C714 C715 1.373 1_554 S
C714 C716 1.389 . S
C715 H694 0.950 . S
C715 C714 1.373 1_556 S
C715 C731 1.377 . S
C716 C714 1.389 . S
C716 C717 1.524 . S
C716 C730 1.377 1_554 S
C717 C716 1.524 . S
C717 C718 1.397 . S
C717 C722 1.363 . S
C718 H695 0.950 . S
C718 C717 1.397 . S
C718 C719 1.334 . S
C719 H696 0.950 . S
C719 C718 1.334 . S
C719 C720 1.287 . S
C720 C719 1.287 . S
C720 C721 1.524 . S
C720 H739 0.913 . S
C721 H697 0.950 . S
C721 C720 1.524 . S
C721 C722 1.415 . S
C722 H698 0.950 1_554 S
C722 C717 1.363 . S
C722 C721 1.415 . S
C723 H699 0.951 . S
C723 C724 1.366 . S
C723 C725 1.388 . S
C724 C723 1.366 . S
C724 C728 1.385 . S
C725 H700 0.951 . S
C725 C723 1.388 . S
C725 C726 1.366 . S
C726 C725 1.366 . S
C726 C727 1.414 . S
C726 C729 1.499 . S
C727 H701 0.950 . S
C727 C726 1.414 . S
C727 C728 1.374 . S
C728 H702 0.950 . S
C728 C724 1.385 . S
C728 C727 1.374 . S
C729 C726 1.499 . S
C729 C730 1.373 . S
C729 C731 1.389 . S
C730 H703 0.950 . S
C730 C716 1.377 1_556 S
C730 C729 1.373 . S
C731 C715 1.377 . S
C731 C729 1.389 . S
C731 C732 1.524 . S
C732 C731 1.524 . S
C732 C733 1.397 . S
C732 C737 1.363 . S
C733 H704 0.950 . S
C733 C732 1.397 . S
C733 C734 1.334 . S
C734 H705 0.950 . S
C734 C733 1.334 . S
C734 C735 1.287 . S
C735 C734 1.287 . S
C735 C736 1.524 . S
C735 H738 0.999 . S
C736 H706 0.950 . S
C736 C735 1.524 . S
C736 C737 1.415 . S
C737 H707 0.950 . S
C737 C732 1.363 . S
C737 C736 1.415 . S
H738 C735 0.999 . S
H739 C720 0.913 . S
H740 C758 0.951 . S
H741 C760 0.951 . S
H742 C762 0.950 . S
H743 C763 0.950 . S
H744 C765 0.950 . S
H745 C768 0.950 . S
H746 C769 0.950 . S
H747 C771 0.950 . S
H748 C772 0.950 . S
H749 C773 0.951 . S
H750 C775 0.951 . S
H751 C777 0.950 . S
H752 C778 0.950 . S
H753 C780 0.950 . S
H754 C783 0.950 . S
H755 C784 0.950 . S
H756 C786 0.950 . S
H757 C787 0.950 . S
C758 H740 0.951 . S
C758 C759 1.366 . S
C758 C760 1.388 . S
C759 C758 1.366 . S
C759 C763 1.385 . S
C760 H741 0.951 . S
C760 C758 1.388 . S
C760 C761 1.366 . S
C761 C760 1.366 . S
C761 C762 1.414 . S
C761 C764 1.499 . S
C762 H742 0.950 . S
C762 C761 1.414 . S
C762 C763 1.374 . S
C763 H743 0.950 . S
C763 C759 1.385 . S
C763 C762 1.374 . S
C764 C761 1.499 . S
C764 C765 1.373 1_554 S
C764 C766 1.389 . S
C765 H744 0.950 . S
C765 C764 1.373 1_556 S
C765 C781 1.377 . S
C766 C764 1.389 . S
C766 C767 1.524 . S
C766 C780 1.377 1_554 S
C767 C766 1.524 . S
C767 C768 1.397 . S
C767 C772 1.363 . S
C768 H745 0.950 . S
C768 C767 1.397 . S
C768 C769 1.334 . S
C769 H746 0.950 . S
C769 C768 1.334 . S
C769 C770 1.287 . S
C770 C769 1.287 . S
C770 C771 1.524 . S
C770 H789 0.913 . S
C771 H747 0.950 . S
C771 C770 1.524 . S
C771 C772 1.415 . S
C772 H748 0.950 . S
C772 C767 1.363 . S
C772 C771 1.415 . S
C773 H749 0.951 . S
C773 C774 1.366 . S
C773 C775 1.388 . S
C774 C773 1.366 . S
C774 C778 1.385 . S
C775 H750 0.951 . S
C775 C773 1.388 . S
C775 C776 1.366 . S
C776 C775 1.366 . S
C776 C777 1.414 . S
C776 C779 1.499 . S
C777 H751 0.950 . S
C777 C776 1.414 . S
C777 C778 1.374 . S
C778 H752 0.950 . S
C778 C774 1.385 . S
C778 C777 1.374 . S
C779 C776 1.499 . S
C779 C780 1.373 . S
C779 C781 1.389 . S
C780 H753 0.950 . S
C780 C766 1.377 1_556 S
C780 C779 1.373 . S
C781 C765 1.377 . S
C781 C779 1.389 . S
C781 C782 1.524 . S
C782 C781 1.524 . S
C782 C783 1.397 . S
C782 C787 1.363 . S
C783 H754 0.950 . S
C783 C782 1.397 . S
C783 C784 1.334 . S
C784 H755 0.950 . S
C784 C783 1.334 . S
C784 C785 1.287 . S
C785 C784 1.287 . S
C785 C786 1.524 . S
C785 H788 0.999 . S
C786 H756 0.950 . S
C786 C785 1.524 . S
C786 C787 1.415 . S
C787 H757 0.950 . S
C787 C782 1.363 . S
C787 C786 1.415 . S
H788 C785 0.999 . S
H789 C770 0.913 . S
H790 C808 0.951 . S
H791 C810 0.951 . S
H792 C812 0.950 . S
H793 C813 0.950 . S
H794 C815 0.950 . S
H795 C818 0.950 . S
H796 C819 0.950 . S
H797 C821 0.950 . S
H798 C822 0.950 . S
H799 C823 0.951 . S
H800 C825 0.955 . S
H801 C827 0.950 . S
H802 C828 0.950 . S
H803 C830 0.947 1_554 S
H804 C833 0.950 . S
H805 C834 0.950 . S
H806 C836 0.950 . S
H807 C837 0.950 . S
C808 H790 0.951 . S
C808 C809 1.366 . S
C808 C810 1.388 . S
C809 C808 1.366 . S
C809 C813 1.385 . S
C810 H791 0.951 . S
C810 C808 1.388 . S
C810 C811 1.366 . S
C811 C810 1.366 . S
C811 C812 1.414 . S
C811 C814 1.499 . S
C812 H792 0.950 . S
C812 C811 1.414 . S
C812 C813 1.374 . S
C813 H793 0.950 . S
C813 C809 1.385 . S
C813 C812 1.374 . S
C814 C811 1.499 . S
C814 C815 1.373 1_554 S
C814 C816 1.389 . S
C815 H794 0.950 . S
C815 C814 1.373 1_556 S
C815 C831 1.377 . S
C816 C814 1.389 . S
C816 C817 1.524 . S
C816 C830 1.377 1_554 S
C817 C816 1.524 . S
C817 C818 1.397 . S
C817 C822 1.363 . S
C818 H795 0.950 . S
C818 C817 1.397 . S
C818 C819 1.334 . S
C819 H796 0.950 . S
C819 C818 1.334 . S
C819 C820 1.287 . S
C820 C819 1.287 . S
C820 C821 1.524 . S
C820 H839 0.913 . S
C821 H797 0.950 . S
C821 C820 1.524 . S
C821 C822 1.415 . S
C822 H798 0.950 . S
C822 C817 1.363 . S
C822 C821 1.415 . S
C823 H799 0.951 . S
C823 C824 1.366 1_455 S
C823 C825 1.389 . S
C824 C823 1.366 1_655 S
C824 C828 1.385 . S
C825 H800 0.955 . S
C825 C823 1.389 . S
C825 C826 1.360 1_455 S
C826 C825 1.360 1_655 S
C826 C827 1.414 . S
C826 C829 1.499 . S
C827 H801 0.950 . S
C827 C826 1.414 . S
C827 C828 1.374 . S
C828 H802 0.950 . S
C828 C824 1.385 . S
C828 C827 1.374 . S
C829 C826 1.499 . S
C829 C830 1.373 . S
C829 C831 1.389 . S
C830 H803 0.947 1_556 S
C830 C816 1.377 1_556 S
C830 C829 1.373 . S
C831 C815 1.377 . S
C831 C829 1.389 . S
C831 C832 1.524 . S
C832 C831 1.524 . S
C832 C833 1.397 . S
C832 C837 1.363 1_655 S
C833 H804 0.950 . S
C833 C832 1.397 . S
C833 C834 1.334 . S
C834 H805 0.950 . S
C834 C833 1.334 . S
C834 C835 1.287 . S
C835 C834 1.287 . S
C835 C836 1.524 1_655 S
C835 H838 0.999 . S
C836 H806 0.950 . S
C836 C835 1.524 1_455 S
C836 C837 1.415 . S
C837 H807 0.950 . S
C837 C832 1.363 1_455 S
C837 C836 1.415 . S
H838 C835 0.999 . S
H839 C820 0.913 . S
H840 C858 0.951 . S
H841 C860 0.951 . S
H842 C862 0.950 . S
H843 C863 0.950 . S
H844 C865 0.950 . S
H845 C868 0.950 . S
H846 C869 0.950 . S
H847 C871 0.950 1_655 S
H848 C872 0.950 1_655 S
H849 C873 0.951 . S
H850 C875 0.951 . S
H851 C877 0.950 . S
H852 C878 0.950 . S
H853 C880 0.950 . S
H854 C883 0.950 . S
H855 C884 0.950 . S
H856 C886 0.950 . S
H857 C887 0.950 . S
C858 H840 0.951 . S
C858 C859 1.366 . S
C858 C860 1.388 . S
C859 C858 1.366 . S
C859 C863 1.385 . S
C860 H841 0.951 . S
C860 C858 1.388 . S
C860 C861 1.366 . S
C861 C860 1.366 . S
C861 C862 1.414 . S
C861 C864 1.499 . S
C862 H842 0.950 . S
C862 C861 1.414 . S
C862 C863 1.374 . S
C863 H843 0.950 . S
C863 C859 1.385 . S
C863 C862 1.374 . S
C864 C861 1.499 . S
C864 C865 1.373 . S
C864 C866 1.389 . S
C865 H844 0.950 . S
C865 C864 1.373 . S
C865 C881 1.377 . S
C866 C864 1.389 . S
C866 C867 1.524 . S
C866 C880 1.377 . S
C867 C866 1.524 . S
C867 C868 1.397 . S
C867 C872 1.363 . S
C868 H845 0.950 . S
C868 C867 1.397 . S
C868 C869 1.334 . S
C869 H846 0.950 . S
C869 C868 1.334 . S
C869 C870 1.287 . S
C870 C869 1.287 . S
C870 C871 1.524 . S
C870 H889 0.913 . S
C871 H847 0.950 1_455 S
C871 C870 1.524 . S
C871 C872 1.415 . S
C872 H848 0.950 1_455 S
C872 C867 1.363 . S
C872 C871 1.415 . S
C873 H849 0.951 . S
C873 C874 1.366 . S
C873 C875 1.388 . S
C874 C873 1.366 . S
C874 C878 1.385 1_455 S
C875 H850 0.951 . S
C875 C873 1.388 . S
C875 C876 1.366 . S
C876 C875 1.366 . S
C876 C877 1.414 1_455 S
C876 C879 1.499 . S
C877 H851 0.950 . S
C877 C876 1.414 1_655 S
C877 C878 1.374 . S
C878 H852 0.950 . S
C878 C874 1.385 1_655 S
C878 C877 1.374 . S
C879 C876 1.499 . S
C879 C880 1.373 . S
C879 C881 1.389 . S
C880 H853 0.950 . S
C880 C866 1.377 . S
C880 C879 1.373 . S
C881 C865 1.377 . S
C881 C879 1.389 . S
C881 C882 1.524 . S
C882 C881 1.524 . S
C882 C883 1.397 . S
C882 C887 1.363 . S
C883 H854 0.950 . S
C883 C882 1.397 . S
C883 C884 1.334 . S
C884 H855 0.950 . S
C884 C883 1.334 . S
C884 C885 1.287 . S
C885 C884 1.287 . S
C885 C886 1.524 . S
C885 H888 0.999 . S
C886 H856 0.950 . S
C886 C885 1.524 . S
C886 C887 1.415 . S
C887 H857 0.950 . S
C887 C882 1.363 . S
C887 C886 1.415 . S
H888 C885 0.999 . S
H889 C870 0.913 . S
H890 C908 0.951 1_556 S
H891 C910 0.951 . S
H892 C912 0.950 . S
H893 C913 0.950 . S
H894 C915 0.950 . S
H895 C918 0.950 . S
H896 C919 0.979 . S
H897 C921 0.950 . S
H898 C922 0.953 . S
H899 C923 0.947 . S
H900 C925 0.951 . S
H901 C927 0.950 . S
H902 C928 0.950 . S
H903 C930 0.950 . S
H904 C933 0.950 . S
H905 C934 0.950 . S
H906 C936 0.950 . S
H907 C937 0.950 . S
C908 H890 0.951 1_554 S
C908 C909 1.366 . S
C908 C910 1.388 . S
C909 C908 1.366 . S
C909 C913 1.385 . S
C910 H891 0.951 . S
C910 C908 1.388 . S
C910 C911 1.366 . S
C911 C910 1.366 . S
C911 C912 1.414 . S
C911 C914 1.499 . S
C912 H892 0.950 . S
C912 C911 1.414 . S
C912 C913 1.374 . S
C913 H893 0.950 . S
C913 C909 1.385 . S
C913 C912 1.374 . S
C914 C911 1.499 . S
C914 C915 1.373 . S
C914 C916 1.389 . S
C915 H894 0.950 . S
C915 C914 1.373 . S
C915 C931 1.377 . S
C916 C914 1.389 . S
C916 C917 1.524 . S
C916 C930 1.377 . S
C917 C916 1.524 . S
C917 C918 1.397 . S
C917 C922 1.366 . S
C918 H895 0.950 . S
C918 C917 1.397 . S
C918 C919 1.334 1_554 S
C919 H896 0.979 . S
C919 C918 1.334 1_556 S
C919 C920 1.287 . S
C920 C919 1.287 . S
C920 C921 1.524 . S
C920 H939 0.913 . S
C921 H897 0.950 . S
C921 C920 1.524 . S
C921 C922 1.410 1_556 S
C922 H898 0.953 . S
C922 C917 1.366 . S
C922 C921 1.410 1_554 S
C923 H899 0.947 . S
C923 C924 1.368 1_565 S
C923 C925 1.390 1_565 S
C924 C923 1.368 1_545 S
C924 C928 1.385 . S
C925 H900 0.951 . S
C925 C923 1.390 1_545 S
C925 C926 1.366 . S
C926 C925 1.366 . S
C926 C927 1.414 . S
C926 C929 1.499 . S
C927 H901 0.950 . S
C927 C926 1.414 . S
C927 C928 1.374 . S
C928 H902 0.950 . S
C928 C924 1.385 . S
C928 C927 1.374 . S
C929 C926 1.499 . S
C929 C930 1.373 . S
C929 C931 1.389 . S
C930 H903 0.950 . S
C930 C916 1.377 . S
C930 C929 1.373 . S
C931 C915 1.377 . S
C931 C929 1.389 . S
C931 C932 1.524 . S
C932 C931 1.524 . S
C932 C933 1.397 . S
C932 C937 1.363 . S
C933 H904 0.950 . S
C933 C932 1.397 . S
C933 C934 1.334 . S
C934 H905 0.950 . S
C934 C933 1.334 . S
C934 C935 1.287 . S
C935 C934 1.287 . S
C935 C936 1.524 . S
C935 H938 0.999 . S
C936 H906 0.950 . S
C936 C935 1.524 . S
C936 C937 1.415 . S
C937 H907 0.950 . S
C937 C932 1.363 . S
C937 C936 1.415 . S
H938 C935 0.999 . S
H939 C920 0.913 . S
H940 C958 0.951 1_556 S
H941 C960 0.951 . S
H942 C962 0.950 . S
H943 C963 0.950 . S
H944 C965 0.950 . S
H945 C968 0.950 . S
H946 C969 0.950 . S
H947 C971 0.950 . S
H948 C972 0.950 . S
H949 C973 0.951 . S
H950 C975 0.951 . S
H951 C977 0.950 . S
H952 C978 0.950 . S
H953 C980 0.950 . S
H954 C983 0.950 . S
H955 C984 0.950 . S
H956 C986 0.950 . S
H957 C987 0.950 . S
C958 H940 0.951 1_554 S
C958 C959 1.366 . S
C958 C960 1.388 . S
C959 C958 1.366 . S
C959 C963 1.385 . S
C960 H941 0.951 . S
C960 C958 1.388 . S
C960 C961 1.366 . S
C961 C960 1.366 . S
C961 C962 1.414 . S
C961 C964 1.499 . S
C962 H942 0.950 . S
C962 C961 1.414 . S
C962 C963 1.374 . S
C963 H943 0.950 . S
C963 C959 1.385 . S
C963 C962 1.374 . S
C964 C961 1.499 . S
C964 C965 1.373 . S
C964 C966 1.389 . S
C965 H944 0.950 . S
C965 C964 1.373 . S
C965 C981 1.377 . S
C966 C964 1.389 . S
C966 C967 1.524 . S
C966 C980 1.377 . S
C967 C966 1.524 . S
C967 C968 1.397 . S
C967 C972 1.363 . S
C968 H945 0.950 . S
C968 C967 1.397 . S
C968 C969 1.334 . S
C969 H946 0.950 . S
C969 C968 1.334 . S
C969 C970 1.287 . S
C970 C969 1.287 . S
C970 C971 1.524 1_554 S
C970 H989 0.913 1_554 S
C971 H947 0.950 . S
C971 C970 1.524 1_556 S
C971 C972 1.415 1_556 S
C972 H948 0.950 . S
C972 C967 1.363 . S
C972 C971 1.415 1_554 S
C973 H949 0.951 . S
C973 C974 1.366 . S
C973 C975 1.388 . S
C974 C973 1.366 . S
C974 C978 1.385 . S
C975 H950 0.951 . S
C975 C973 1.388 . S
C975 C976 1.366 . S
C976 C975 1.366 . S
C976 C977 1.414 . S
C976 C979 1.499 . S
C977 H951 0.950 . S
C977 C976 1.414 . S
C977 C978 1.374 . S
C978 H952 0.950 . S
C978 C974 1.385 . S
C978 C977 1.374 . S
C979 C976 1.499 . S
C979 C980 1.373 . S
C979 C981 1.389 . S
C980 H953 0.950 . S
C980 C966 1.377 . S
C980 C979 1.373 . S
C981 C965 1.377 . S
C981 C979 1.389 . S
C981 C982 1.524 . S
C982 C981 1.524 . S
C982 C983 1.397 . S
C982 C987 1.363 . S
C983 H954 0.950 . S
C983 C982 1.397 . S
C983 C984 1.334 . S
C984 H955 0.950 . S
C984 C983 1.334 . S
C984 C985 1.287 . S
C985 C984 1.287 . S
C985 C986 1.524 . S
C985 H988 0.999 . S
C986 H956 0.950 . S
C986 C985 1.524 . S
C986 C987 1.415 . S
C987 H957 0.950 . S
C987 C982 1.363 . S
C987 C986 1.415 . S
H988 C985 0.999 . S
H989 C970 0.913 1_556 S
H990 C1008 0.951 . S
H991 C1010 0.951 . S
H992 C1012 0.950 . S
H993 C1013 0.950 . S
H994 C1015 0.950 . S
H995 C1018 0.950 . S
H996 C1019 0.950 . S
H997 C1021 0.950 . S
H998 C1022 0.950 . S
H999 C1023 0.951 . S
H1000 C1025 0.951 . S
H1001 C1027 0.950 . S
H1002 C1028 0.950 . S
H1003 C1030 0.950 . S
H1004 C1033 0.950 . S
H1005 C1034 0.950 . S
H1006 C1036 0.950 1_556 S
H1007 C1037 0.950 . S
C1008 H990 0.951 . S
C1008 C1009 1.366 . S
C1008 C1010 1.388 . S
C1009 C1008 1.366 . S
C1009 C1013 1.385 . S
C1010 H991 0.951 . S
C1010 C1008 1.388 . S
C1010 C1011 1.366 . S
C1011 C1010 1.366 . S
C1011 C1012 1.414 . S
C1011 C1014 1.499 . S
C1012 H992 0.950 . S
C1012 C1011 1.414 . S
C1012 C1013 1.374 . S
C1013 H993 0.950 . S
C1013 C1009 1.385 . S
C1013 C1012 1.374 . S
C1014 C1011 1.499 . S
C1014 C1015 1.373 . S
C1014 C1016 1.389 . S
C1015 H994 0.950 . S
C1015 C1014 1.373 . S
C1015 C1031 1.377 . S
C1016 C1014 1.389 . S
C1016 C1017 1.524 . S
C1016 C1030 1.377 . S
C1017 C1016 1.524 . S
C1017 C1018 1.397 . S
C1017 C1022 1.363 . S
C1018 H995 0.950 . S
C1018 C1017 1.397 . S
C1018 C1019 1.334 . S
C1019 H996 0.950 . S
C1019 C1018 1.334 . S
C1019 C1020 1.287 . S
C1020 C1019 1.287 . S
C1020 C1021 1.524 . S
C1020 H1039 0.913 . S
C1021 H997 0.950 . S
C1021 C1020 1.524 . S
C1021 C1022 1.415 . S
C1022 H998 0.950 . S
C1022 C1017 1.363 . S
C1022 C1021 1.415 . S
C1023 H999 0.951 . S
C1023 C1024 1.366 . S
C1023 C1025 1.388 . S
C1024 C1023 1.366 . S
C1024 C1028 1.385 . S
C1025 H1000 0.951 . S
C1025 C1023 1.388 . S
C1025 C1026 1.366 . S
C1026 C1025 1.366 . S
C1026 C1027 1.414 . S
C1026 C1029 1.499 . S
C1027 H1001 0.950 . S
C1027 C1026 1.414 . S
C1027 C1028 1.374 . S
C1028 H1002 0.950 . S
C1028 C1024 1.385 . S
C1028 C1027 1.374 . S
C1029 C1026 1.499 . S
C1029 C1030 1.373 . S
C1029 C1031 1.389 . S
C1030 H1003 0.950 . S
C1030 C1016 1.377 . S
C1030 C1029 1.373 . S
C1031 C1015 1.377 . S
C1031 C1029 1.389 . S
C1031 C1032 1.524 . S
C1032 C1031 1.524 . S
C1032 C1033 1.397 . S
C1032 C1037 1.363 . S
C1033 H1004 0.950 . S
C1033 C1032 1.397 . S
C1033 C1034 1.334 . S
C1034 H1005 0.950 . S
C1034 C1033 1.334 . S
C1034 C1035 1.287 . S
C1035 C1034 1.287 . S
C1035 C1036 1.524 . S
C1035 H1038 0.999 1_554 S
C1036 H1006 0.950 1_554 S
C1036 C1035 1.524 . S
C1036 C1037 1.415 . S
C1037 H1007 0.950 . S
C1037 C1032 1.363 . S
C1037 C1036 1.415 . S
H1038 C1035 0.999 1_556 S
H1039 C1020 0.913 . S
H1040 C1058 0.951 . S
H1041 C1060 0.951 . S
H1042 C1062 0.950 . S
H1043 C1063 0.950 . S
H1044 C1065 0.950 . S
H1045 C1068 0.950 . S
H1046 C1069 0.950 . S
H1047 C1071 0.950 . S
H1048 C1072 0.950 . S
H1049 C1073 0.951 . S
H1050 C1075 0.951 . S
H1051 C1077 0.950 . S
H1052 C1078 0.950 . S
H1053 C1080 0.950 1_455 S
H1054 C1083 0.950 . S
H1055 C1084 0.950 . S
H1056 C1086 0.950 . S
H1057 C1087 0.950 . S
C1058 H1040 0.951 . S
C1058 C1059 1.366 . S
C1058 C1060 1.388 . S
C1059 C1058 1.366 . S
C1059 C1063 1.385 . S
C1060 H1041 0.951 . S
C1060 C1058 1.388 . S
C1060 C1061 1.366 . S
C1061 C1060 1.366 . S
C1061 C1062 1.414 . S
C1061 C1064 1.499 . S
C1062 H1042 0.950 . S
C1062 C1061 1.414 . S
C1062 C1063 1.374 . S
C1063 H1043 0.950 . S
C1063 C1059 1.385 . S
C1063 C1062 1.374 . S
C1064 C1061 1.499 . S
C1064 C1065 1.373 . S
C1064 C1066 1.389 . S
C1065 H1044 0.950 . S
C1065 C1064 1.373 . S
C1065 C1081 1.377 1_554 S
C1066 C1064 1.389 . S
C1066 C1067 1.530 . S
C1066 C1080 1.377 . S
C1067 C1066 1.530 . S
C1067 C1068 1.403 . S
C1067 C1072 1.351 1_655 S
C1068 H1045 0.950 . S
C1068 C1067 1.403 . S
C1068 C1069 1.334 . S
C1069 H1046 0.950 . S
C1069 C1068 1.334 . S
C1069 C1070 1.287 1_655 S
C1070 C1069 1.287 1_455 S
C1070 C1071 1.524 . S
C1070 H1089 0.913 . S
C1071 H1047 0.950 . S
C1071 C1070 1.524 . S
C1071 C1072 1.415 . S
C1072 H1048 0.950 . S
C1072 C1067 1.351 1_455 S
C1072 C1071 1.415 . S
C1073 H1049 0.951 . S
C1073 C1074 1.366 1_655 S
C1073 C1075 1.388 . S
C1074 C1073 1.366 1_455 S
C1074 C1078 1.385 . S
C1075 H1050 0.951 . S
C1075 C1073 1.388 . S
C1075 C1076 1.366 . S
C1076 C1075 1.366 . S
C1076 C1077 1.414 1_655 S
C1076 C1079 1.499 1_556 S
C1077 H1051 0.950 . S
C1077 C1076 1.414 1_455 S
C1077 C1078 1.374 . S
C1078 H1052 0.950 . S
C1078 C1074 1.385 . S
C1078 C1077 1.374 . S
C1079 C1076 1.499 1_554 S
C1079 C1080 1.373 . S
C1079 C1081 1.389 1_554 S
C1080 H1053 0.950 1_655 S
C1080 C1066 1.377 . S
C1080 C1079 1.373 . S
C1081 C1065 1.377 1_556 S
C1081 C1079 1.389 1_556 S
C1081 C1082 1.524 . S
C1082 C1081 1.524 . S
C1082 C1083 1.397 . S
C1082 C1087 1.363 . S
C1083 H1054 0.950 . S
C1083 C1082 1.397 . S
C1083 C1084 1.334 . S
C1084 H1055 0.950 . S
C1084 C1083 1.334 . S
C1084 C1085 1.287 . S
C1085 C1084 1.287 . S
C1085 C1086 1.524 . S
C1085 H1088 0.999 . S
C1086 H1056 0.950 . S
C1086 C1085 1.524 . S
C1086 C1087 1.415 . S
C1087 H1057 0.950 . S
C1087 C1082 1.363 . S
C1087 C1086 1.415 . S
H1088 C1085 0.999 . S
H1089 C1070 0.913 . S
H1090 C1108 0.951 . S
H1091 C1110 0.951 . S
H1092 C1112 0.950 . S
H1093 C1113 0.950 . S
H1094 C1115 0.950 . S
H1095 C1118 0.950 . S
H1096 C1119 0.950 . S
H1097 C1121 0.950 . S
H1098 C1122 0.950 1_556 S
H1099 C1123 0.951 . S
H1100 C1125 0.951 . S
H1101 C1127 0.950 . S
H1102 C1128 0.950 . S
H1103 C1130 0.950 . S
H1104 C1133 0.950 . S
H1105 C1134 0.950 . S
H1106 C1136 0.950 . S
H1107 C1137 0.950 . S
C1108 H1090 0.951 . S
C1108 C1109 1.366 . S
C1108 C1110 1.388 . S
C1109 C1108 1.366 . S
C1109 C1113 1.385 . S
C1110 H1091 0.951 . S
C1110 C1108 1.388 . S
C1110 C1111 1.366 . S
C1111 C1110 1.366 . S
C1111 C1112 1.414 . S
C1111 C1114 1.499 . S
C1112 H1092 0.950 . S
C1112 C1111 1.414 . S
C1112 C1113 1.374 . S
C1113 H1093 0.950 . S
C1113 C1109 1.385 . S
C1113 C1112 1.374 . S
C1114 C1111 1.499 . S
C1114 C1115 1.373 . S
C1114 C1116 1.389 . S
C1115 H1094 0.950 . S
C1115 C1114 1.373 . S
C1115 C1131 1.377 . S
C1116 C1114 1.389 . S
C1116 C1117 1.524 1_565 S
C1116 C1130 1.377 1_565 S
C1117 C1116 1.524 1_545 S
C1117 C1118 1.397 . S
C1117 C1122 1.363 . S
C1118 H1095 0.950 . S
C1118 C1117 1.397 . S
C1118 C1119 1.334 . S
C1119 H1096 0.950 . S
C1119 C1118 1.334 . S
C1119 C1120 1.287 . S
C1120 C1119 1.287 . S
C1120 C1121 1.524 . S
C1120 H1139 0.913 . S
C1121 H1097 0.950 . S
C1121 C1120 1.524 . S
C1121 C1122 1.415 . S
C1122 H1098 0.950 1_554 S
C1122 C1117 1.363 . S
C1122 C1121 1.415 . S
C1123 H1099 0.951 . S
C1123 C1124 1.366 1_565 S
C1123 C1125 1.388 1_556 S
C1124 C1123 1.366 1_545 S
C1124 C1128 1.385 . S
C1125 H1100 0.951 . S
C1125 C1123 1.388 1_554 S
C1125 C1126 1.366 1_554 S
C1126 C1125 1.366 1_556 S
C1126 C1127 1.414 1_565 S
C1126 C1129 1.499 1_556 S
C1127 H1101 0.950 . S
C1127 C1126 1.414 1_545 S
C1127 C1128 1.374 . S
C1128 H1102 0.950 . S
C1128 C1124 1.385 . S
C1128 C1127 1.374 . S
C1129 C1126 1.499 1_554 S
C1129 C1130 1.373 1_565 S
C1129 C1131 1.389 . S
C1130 H1103 0.950 . S
C1130 C1116 1.377 1_545 S
C1130 C1129 1.373 1_545 S
C1131 C1115 1.377 . S
C1131 C1129 1.389 . S
C1131 C1132 1.524 . S
C1132 C1131 1.524 . S
C1132 C1133 1.397 1_554 S
C1132 C1137 1.363 . S
C1133 H1104 0.950 . S
C1133 C1132 1.397 1_556 S
C1133 C1134 1.334 . S
C1134 H1105 0.950 . S
C1134 C1133 1.334 . S
C1134 C1135 1.287 . S
C1135 C1134 1.287 . S
C1135 C1136 1.524 1_556 S
C1135 H1138 0.999 . S
C1136 H1106 0.950 . S
C1136 C1135 1.524 1_554 S
C1136 C1137 1.415 . S
C1137 H1107 0.950 . S
C1137 C1132 1.363 . S
C1137 C1136 1.415 . S
H1138 C1135 0.999 . S
H1139 C1120 0.913 . S
H1140 C1158 0.951 . S
H1141 C1160 0.951 . S
H1142 C1162 0.950 . S
H1143 C1163 0.950 . S
H1144 C1165 0.950 . S
H1145 C1168 0.950 . S
H1146 C1169 0.950 . S
H1147 C1171 0.950 . S
H1148 C1172 0.950 . S
H1149 C1173 0.951 . S
H1150 C1175 0.951 . S
H1151 C1177 0.950 . S
H1152 C1178 0.950 . S
H1153 C1180 0.950 . S
H1154 C1183 0.950 . S
H1155 C1184 0.950 . S
H1156 C1186 0.950 . S
H1157 C1187 0.950 . S
C1158 H1140 0.951 . S
C1158 C1159 1.366 . S
C1158 C1160 1.388 . S
C1159 C1158 1.366 . S
C1159 C1163 1.385 . S
C1160 H1141 0.951 . S
C1160 C1158 1.388 . S
C1160 C1161 1.366 . S
C1161 C1160 1.366 . S
C1161 C1162 1.414 . S
C1161 C1164 1.499 . S
C1162 H1142 0.950 . S
C1162 C1161 1.414 . S
C1162 C1163 1.374 . S
C1163 H1143 0.950 . S
C1163 C1159 1.385 . S
C1163 C1162 1.374 . S
C1164 C1161 1.499 . S
C1164 C1165 1.373 . S
C1164 C1166 1.389 . S
C1165 H1144 0.950 . S
C1165 C1164 1.373 . S
C1165 C1181 1.377 . S
C1166 C1164 1.389 . S
C1166 C1167 1.524 . S
C1166 C1180 1.377 . S
C1167 C1166 1.524 . S
C1167 C1168 1.397 . S
C1167 C1172 1.363 . S
C1168 H1145 0.950 . S
C1168 C1167 1.397 . S
C1168 C1169 1.334 . S
C1169 H1146 0.950 . S
C1169 C1168 1.334 . S
C1169 C1170 1.287 . S
C1170 C1169 1.287 . S
C1170 C1171 1.524 . S
C1170 H1189 0.913 . S
C1171 H1147 0.950 . S
C1171 C1170 1.524 . S
C1171 C1172 1.415 . S
C1172 H1148 0.950 . S
C1172 C1167 1.363 . S
C1172 C1171 1.415 . S
C1173 H1149 0.951 . S
C1173 C1174 1.366 . S
C1173 C1175 1.388 . S
C1174 C1173 1.366 . S
C1174 C1178 1.385 . S
C1175 H1150 0.951 . S
C1175 C1173 1.388 . S
C1175 C1176 1.366 . S
C1176 C1175 1.366 . S
C1176 C1177 1.414 1_556 S
C1176 C1179 1.499 1_556 S
C1177 H1151 0.950 . S
C1177 C1176 1.414 1_554 S
C1177 C1178 1.374 1_554 S
C1178 H1152 0.950 . S
C1178 C1174 1.385 . S
C1178 C1177 1.374 1_556 S
C1179 C1176 1.499 1_554 S
C1179 C1180 1.373 . S
C1179 C1181 1.389 . S
C1180 H1153 0.950 . S
C1180 C1166 1.377 . S
C1180 C1179 1.373 . S
C1181 C1165 1.377 . S
C1181 C1179 1.389 . S
C1181 C1182 1.524 . S
C1182 C1181 1.524 . S
C1182 C1183 1.397 . S
C1182 C1187 1.363 . S
C1183 H1154 0.950 . S
C1183 C1182 1.397 . S
C1183 C1184 1.334 . S
C1184 H1155 0.950 . S
C1184 C1183 1.334 . S
C1184 C1185 1.287 . S
C1185 C1184 1.287 . S
C1185 C1186 1.524 . S
C1185 H1188 0.999 . S
C1186 H1156 0.950 . S
C1186 C1185 1.524 . S
C1186 C1187 1.415 . S
C1187 H1157 0.950 . S
C1187 C1182 1.363 . S
C1187 C1186 1.415 . S
H1188 C1185 0.999 . S
H1189 C1170 0.913 . S
H1190 C1208 0.951 . S
H1191 C1210 0.951 . S
H1192 C1212 0.950 . S
H1193 C1213 0.950 . S
H1194 C1215 0.950 . S
H1195 C1218 0.950 . S
H1196 C1219 0.950 . S
H1197 C1221 0.950 . S
H1198 C1222 0.950 . S
H1199 C1223 0.951 . S
H1200 C1225 0.951 . S
H1201 C1227 0.950 1_554 S
H1202 C1228 0.950 . S
H1203 C1230 0.950 . S
H1204 C1233 0.950 . S
H1205 C1234 0.950 . S
H1206 C1236 0.950 . S
H1207 C1237 0.950 . S
C1208 H1190 0.951 . S
C1208 C1209 1.366 . S
C1208 C1210 1.388 . S
C1209 C1208 1.366 . S
C1209 C1213 1.385 . S
C1210 H1191 0.951 . S
C1210 C1208 1.388 . S
C1210 C1211 1.366 . S
C1211 C1210 1.366 . S
C1211 C1212 1.414 . S
C1211 C1214 1.499 . S
C1212 H1192 0.950 . S
C1212 C1211 1.414 . S
C1212 C1213 1.374 . S
C1213 H1193 0.950 . S
C1213 C1209 1.385 . S
C1213 C1212 1.374 . S
C1214 C1211 1.499 . S
C1214 C1215 1.373 . S
C1214 C1216 1.389 . S
C1215 H1194 0.950 . S
C1215 C1214 1.373 . S
C1215 C1231 1.377 1_554 S
C1216 C1214 1.389 . S
C1216 C1217 1.524 . S
C1216 C1230 1.377 . S
C1217 C1216 1.524 . S
C1217 C1218 1.397 . S
C1217 C1222 1.363 . S
C1218 H1195 0.950 . S
C1218 C1217 1.397 . S
C1218 C1219 1.334 . S
C1219 H1196 0.950 . S
C1219 C1218 1.334 . S
C1219 C1220 1.287 . S
C1220 C1219 1.287 . S
C1220 C1221 1.524 . S
C1220 H1239 0.913 . S
C1221 H1197 0.950 . S
C1221 C1220 1.524 . S
C1221 C1222 1.415 . S
C1222 H1198 0.950 . S
C1222 C1217 1.363 . S
C1222 C1221 1.415 . S
C1223 H1199 0.951 . S
C1223 C1224 1.366 . S
C1223 C1225 1.388 . S
C1224 C1223 1.366 . S
C1224 C1228 1.385 . S
C1225 H1200 0.951 . S
C1225 C1223 1.388 . S
C1225 C1226 1.366 . S
C1226 C1225 1.366 . S
C1226 C1227 1.414 . S
C1226 C1229 1.499 1_556 S
C1227 H1201 0.950 1_556 S
C1227 C1226 1.414 . S
C1227 C1228 1.374 . S
C1228 H1202 0.950 . S
C1228 C1224 1.385 . S
C1228 C1227 1.374 . S
C1229 C1226 1.499 1_554 S
C1229 C1230 1.373 . S
C1229 C1231 1.389 1_554 S
C1230 H1203 0.950 . S
C1230 C1216 1.377 . S
C1230 C1229 1.373 . S
C1231 C1215 1.377 1_556 S
C1231 C1229 1.389 1_556 S
C1231 C1232 1.524 . S
C1232 C1231 1.524 . S
C1232 C1233 1.397 . S
C1232 C1237 1.363 . S
C1233 H1204 0.950 . S
C1233 C1232 1.397 . S
C1233 C1234 1.334 . S
C1234 H1205 0.950 . S
C1234 C1233 1.334 . S
C1234 C1235 1.287 . S
C1235 C1234 1.287 . S
C1235 C1236 1.524 . S
C1235 H1238 0.999 . S
C1236 H1206 0.950 . S
C1236 C1235 1.524 . S
C1236 C1237 1.415 . S
C1237 H1207 0.950 . S
C1237 C1232 1.363 . S
C1237 C1236 1.415 . S
H1238 C1235 0.999 . S
H1239 C1220 0.913 . S
H1240 C1258 0.951 . S
H1241 C1260 0.951 . S
H1242 C1262 0.950 . S
H1243 C1263 0.950 1_554 S
H1244 C1265 0.950 . S
H1245 C1268 0.950 . S
H1246 C1269 0.950 1_655 S
H1247 C1271 0.950 . S
H1248 C1272 0.950 . S
H1249 C1273 0.951 . S
H1250 C1275 0.951 . S
H1251 C1277 0.950 . S
H1252 C1278 0.950 . S
H1253 C1280 0.950 . S
H1254 C1283 0.950 . S
H1255 C1284 0.950 . S
H1256 C1286 0.950 . S
H1257 C1287 0.950 1_554 S
C1258 H1240 0.951 . S
C1258 C1259 1.366 . S
C1258 C1260 1.388 . S
C1259 C1258 1.366 . S
C1259 C1263 1.385 . S
C1260 H1241 0.951 . S
C1260 C1258 1.388 . S
C1260 C1261 1.366 . S
C1261 C1260 1.366 . S
C1261 C1262 1.414 . S
C1261 C1264 1.499 . S
C1262 H1242 0.950 . S
C1262 C1261 1.414 . S
C1262 C1263 1.374 . S
C1263 H1243 0.950 1_556 S
C1263 C1259 1.385 . S
C1263 C1262 1.374 . S
C1264 C1261 1.499 . S
C1264 C1265 1.373 . S
C1264 C1266 1.389 . S
C1265 H1244 0.950 . S
C1265 C1264 1.373 . S
C1265 C1281 1.377 . S
C1266 C1264 1.389 . S
C1266 C1267 1.524 . S
C1266 C1280 1.377 . S
C1267 C1266 1.524 . S
C1267 C1268 1.397 . S
C1267 C1272 1.363 . S
C1268 H1245 0.950 . S
C1268 C1267 1.397 . S
C1268 C1269 1.334 . S
C1269 H1246 0.950 1_455 S
C1269 C1268 1.334 . S
C1269 C1270 1.287 . S
C1270 C1269 1.287 . S
C1270 C1271 1.524 . S
C1270 H1289 0.913 . S
C1271 H1247 0.950 . S
C1271 C1270 1.524 . S
C1271 C1272 1.415 . S
C1272 H1248 0.950 . S
C1272 C1267 1.363 . S
C1272 C1271 1.415 . S
C1273 H1249 0.951 . S
C1273 C1274 1.366 . S
C1273 C1275 1.388 . S
C1274 C1273 1.366 . S
C1274 C1278 1.385 . S
C1275 H1250 0.951 . S
C1275 C1273 1.388 . S
C1275 C1276 1.366 . S
C1276 C1275 1.366 . S
C1276 C1277 1.414 . S
C1276 C1279 1.499 . S
C1277 H1251 0.950 . S
C1277 C1276 1.414 . S
C1277 C1278 1.374 . S
C1278 H1252 0.950 . S
C1278 C1274 1.385 . S
C1278 C1277 1.374 . S
C1279 C1276 1.499 . S
C1279 C1280 1.373 . S
C1279 C1281 1.389 . S
C1280 H1253 0.950 . S
C1280 C1266 1.377 . S
C1280 C1279 1.373 . S
C1281 C1265 1.377 . S
C1281 C1279 1.389 . S
C1281 C1282 1.524 . S
C1282 C1281 1.524 . S
C1282 C1283 1.397 . S
C1282 C1287 1.363 . S
C1283 H1254 0.950 . S
C1283 C1282 1.397 . S
C1283 C1284 1.334 . S
C1284 H1255 0.950 . S
C1284 C1283 1.334 . S
C1284 C1285 1.287 1_556 S
C1285 C1284 1.287 1_554 S
C1285 C1286 1.524 . S
C1285 H1288 0.999 . S
C1286 H1256 0.950 . S
C1286 C1285 1.524 . S
C1286 C1287 1.415 1_554 S
C1287 H1257 0.950 1_556 S
C1287 C1282 1.363 . S
C1287 C1286 1.415 1_556 S
H1288 C1285 0.999 . S
H1289 C1270 0.913 . S
H1290 C1308 0.951 . S
H1291 C1310 0.951 . S
H1292 C1312 0.950 . S
H1293 C1313 0.950 . S
H1294 C1315 0.950 . S
H1295 C1318 0.950 . S
H1296 C1319 0.950 . S
H1297 C1321 0.950 . S
H1298 C1322 0.950 . S
H1299 C1323 0.946 . S
H1300 C1325 0.951 . S
H1301 C1327 0.950 . S
H1302 C1328 0.950 . S
H1303 C1330 0.950 . S
H1304 C1333 0.950 . S
H1305 C1334 0.950 . S
H1306 C1336 0.950 . S
H1307 C1337 0.950 . S
C1308 H1290 0.951 . S
C1308 C1309 1.366 . S
C1308 C1310 1.388 . S
C1309 C1308 1.366 . S
C1309 C1313 1.385 . S
C1310 H1291 0.951 . S
C1310 C1308 1.388 . S
C1310 C1311 1.366 . S
C1311 C1310 1.366 . S
C1311 C1312 1.414 . S
C1311 C1314 1.499 . S
C1312 H1292 0.950 . S
C1312 C1311 1.414 . S
C1312 C1313 1.374 . S
C1313 H1293 0.950 . S
C1313 C1309 1.385 . S
C1313 C1312 1.374 . S
C1314 C1311 1.499 . S
C1314 C1315 1.373 . S
C1314 C1316 1.389 . S
C1315 H1294 0.950 . S
C1315 C1314 1.373 . S
C1315 C1331 1.377 . S
C1316 C1314 1.389 . S
C1316 C1317 1.524 . S
C1316 C1330 1.377 . S
C1317 C1316 1.524 . S
C1317 C1318 1.397 . S
C1317 C1322 1.363 . S
C1318 H1295 0.950 . S
C1318 C1317 1.397 . S
C1318 C1319 1.334 . S
C1319 H1296 0.950 . S
C1319 C1318 1.334 . S
C1319 C1320 1.287 . S
C1320 C1319 1.287 . S
C1320 C1321 1.524 . S
C1320 H1339 0.913 . S
C1321 H1297 0.950 . S
C1321 C1320 1.524 . S
C1321 C1322 1.415 . S
C1322 H1298 0.950 . S
C1322 C1317 1.363 . S
C1322 C1321 1.415 . S
C1323 H1299 0.946 . S
C1323 C1324 1.366 . S
C1323 C1325 1.388 . S
C1324 C1323 1.366 . S
C1324 C1328 1.385 . S
C1325 H1300 0.951 . S
C1325 C1323 1.388 . S
C1325 C1326 1.366 . S
C1326 C1325 1.366 . S
C1326 C1327 1.414 . S
C1326 C1329 1.499 . S
C1327 H1301 0.950 . S
C1327 C1326 1.414 . S
C1327 C1328 1.374 . S
C1328 H1302 0.950 . S
C1328 C1324 1.385 . S
C1328 C1327 1.374 . S
C1329 C1326 1.499 . S
C1329 C1330 1.373 . S
C1329 C1331 1.389 . S
C1330 H1303 0.950 . S
C1330 C1316 1.377 . S
C1330 C1329 1.373 . S
C1331 C1315 1.377 . S
C1331 C1329 1.389 . S
C1331 C1332 1.524 . S
C1332 C1331 1.524 . S
C1332 C1333 1.397 . S
C1332 C1337 1.363 1_545 S
C1333 H1304 0.950 . S
C1333 C1332 1.397 . S
C1333 C1334 1.334 1_545 S
C1334 H1305 0.950 . S
C1334 C1333 1.334 1_565 S
C1334 C1335 1.287 . S
C1335 C1334 1.287 . S
C1335 C1336 1.524 . S
C1335 H1338 0.999 . S
C1336 H1306 0.950 . S
C1336 C1335 1.524 . S
C1336 C1337 1.415 . S
C1337 H1307 0.950 . S
C1337 C1332 1.363 1_565 S
C1337 C1336 1.415 . S
H1338 C1335 0.999 . S
H1339 C1320 0.913 . S
H1340 C1358 0.951 . S
H1341 C1360 0.951 . S
H1342 C1362 0.950 . S
H1343 C1363 0.950 . S
H1344 C1365 0.950 . S
H1345 C1368 0.950 . S
H1346 C1369 0.950 . S
H1347 C1371 0.950 . S
H1348 C1372 0.950 . S
H1349 C1373 0.951 . S
H1350 C1375 0.951 . S
H1351 C1377 0.950 . S
H1352 C1378 0.950 . S
H1353 C1380 0.950 . S
H1354 C1383 0.950 . S
H1355 C1384 0.950 . S
H1356 C1386 0.950 . S
H1357 C1387 0.950 . S
C1358 H1340 0.951 . S
C1358 C1359 1.366 . S
C1358 C1360 1.388 . S
C1359 C1358 1.366 . S
C1359 C1363 1.385 . S
C1360 H1341 0.951 . S
C1360 C1358 1.388 . S
C1360 C1361 1.366 . S
C1361 C1360 1.366 . S
C1361 C1362 1.414 . S
C1361 C1364 1.499 . S
C1362 H1342 0.950 . S
C1362 C1361 1.414 . S
C1362 C1363 1.374 . S
C1363 H1343 0.950 . S
C1363 C1359 1.385 . S
C1363 C1362 1.374 . S
C1364 C1361 1.499 . S
C1364 C1365 1.373 . S
C1364 C1366 1.389 . S
C1365 H1344 0.950 . S
C1365 C1364 1.373 . S
C1365 C1381 1.377 . S
C1366 C1364 1.389 . S
C1366 C1367 1.524 . S
C1366 C1380 1.377 . S
C1367 C1366 1.524 . S
C1367 C1368 1.397 . S
C1367 C1372 1.363 . S
C1368 H1345 0.950 . S
C1368 C1367 1.397 . S
C1368 C1369 1.334 . S
C1369 H1346 0.950 . S
C1369 C1368 1.334 . S
C1369 C1370 1.287 . S
C1370 C1369 1.287 . S
C1370 C1371 1.524 . S
C1370 H1389 0.913 . S
C1371 H1347 0.950 . S
C1371 C1370 1.524 . S
C1371 C1372 1.415 . S
C1372 H1348 0.950 . S
C1372 C1367 1.363 . S
C1372 C1371 1.415 . S
C1373 H1349 0.951 . S
C1373 C1374 1.366 . S
C1373 C1375 1.388 . S
C1374 C1373 1.366 . S
C1374 C1378 1.385 . S
C1375 H1350 0.951 . S
C1375 C1373 1.388 . S
C1375 C1376 1.366 . S
C1376 C1375 1.366 . S
C1376 C1377 1.414 . S
C1376 C1379 1.499 . S
C1377 H1351 0.950 . S
C1377 C1376 1.414 . S
C1377 C1378 1.374 . S
C1378 H1352 0.950 . S
C1378 C1374 1.385 . S
C1378 C1377 1.374 . S
C1379 C1376 1.499 . S
C1379 C1380 1.373 . S
C1379 C1381 1.389 . S
C1380 H1353 0.950 . S
C1380 C1366 1.377 . S
C1380 C1379 1.373 . S
C1381 C1365 1.377 . S
C1381 C1379 1.389 . S
C1381 C1382 1.524 . S
C1382 C1381 1.524 . S
C1382 C1383 1.397 . S
C1382 C1387 1.363 . S
C1383 H1354 0.950 . S
C1383 C1382 1.397 . S
C1383 C1384 1.334 1_556 S
C1384 H1355 0.950 . S
C1384 C1383 1.334 1_554 S
C1384 C1385 1.287 . S
C1385 C1384 1.287 . S
C1385 C1386 1.524 . S
C1385 H1388 0.999 . S
C1386 H1356 0.950 . S
C1386 C1385 1.524 . S
C1386 C1387 1.415 1_554 S
C1387 H1357 0.950 . S
C1387 C1382 1.363 . S
C1387 C1386 1.415 1_556 S
H1388 C1385 0.999 . S
H1389 C1370 0.913 . S
H1390 C1408 0.951 1_554 S
H1391 C1410 0.951 . S
H1392 C1412 0.950 . S
H1393 C1413 0.950 . S
H1394 C1415 0.950 . S
H1395 C1418 0.950 . S
H1396 C1419 0.950 . S
H1397 C1421 0.950 . S
H1398 C1422 0.950 . S
H1399 C1423 0.951 . S
H1400 C1425 0.951 . S
H1401 C1427 0.950 . S
H1402 C1428 0.950 . S
H1403 C1430 0.950 . S
H1404 C1433 0.950 . S
H1405 C1434 0.950 . S
H1406 C1436 0.950 . S
H1407 C1437 0.950 . S
C1408 H1390 0.951 1_556 S
C1408 C1409 1.366 . S
C1408 C1410 1.388 . S
C1409 C1408 1.366 . S
C1409 C1413 1.385 . S
C1410 H1391 0.951 . S
C1410 C1408 1.388 . S
C1410 C1411 1.366 . S
C1411 C1410 1.366 . S
C1411 C1412 1.414 . S
C1411 C1414 1.499 . S
C1412 H1392 0.950 . S
C1412 C1411 1.414 . S
C1412 C1413 1.374 . S
C1413 H1393 0.950 . S
C1413 C1409 1.385 . S
C1413 C1412 1.374 . S
C1414 C1411 1.499 . S
C1414 C1415 1.373 . S
C1414 C1416 1.389 . S
C1415 H1394 0.950 . S
C1415 C1414 1.373 . S
C1415 C1431 1.377 . S
C1416 C1414 1.389 . S
C1416 C1417 1.524 . S
C1416 C1430 1.377 . S
C1417 C1416 1.524 . S
C1417 C1418 1.397 . S
C1417 C1422 1.363 1_556 S
C1418 H1395 0.950 . S
C1418 C1417 1.397 . S
C1418 C1419 1.334 . S
C1419 H1396 0.950 . S
C1419 C1418 1.334 . S
C1419 C1420 1.287 1_556 S
C1420 C1419 1.287 1_554 S
C1420 C1421 1.524 . S
C1420 H1439 0.913 . S
C1421 H1397 0.950 . S
C1421 C1420 1.524 . S
C1421 C1422 1.415 . S
C1422 H1398 0.950 . S
C1422 C1417 1.363 1_554 S
C1422 C1421 1.415 . S
C1423 H1399 0.951 . S
C1423 C1424 1.366 . S
C1423 C1425 1.388 . S
C1424 C1423 1.366 . S
C1424 C1428 1.385 . S
C1425 H1400 0.951 . S
C1425 C1423 1.388 . S
C1425 C1426 1.366 . S
C1426 C1425 1.366 . S
C1426 C1427 1.414 . S
C1426 C1429 1.499 . S
C1427 H1401 0.950 . S
C1427 C1426 1.414 . S
C1427 C1428 1.374 . S
C1428 H1402 0.950 . S
C1428 C1424 1.385 . S
C1428 C1427 1.374 . S
C1429 C1426 1.499 . S
C1429 C1430 1.373 . S
C1429 C1431 1.389 . S
C1430 H1403 0.950 . S
C1430 C1416 1.377 . S
C1430 C1429 1.373 . S
C1431 C1415 1.377 . S
C1431 C1429 1.389 . S
C1431 C1432 1.524 . S
C1432 C1431 1.524 . S
C1432 C1433 1.397 . S
C1432 C1437 1.363 . S
C1433 H1404 0.950 . S
C1433 C1432 1.397 . S
C1433 C1434 1.334 . S
C1434 H1405 0.950 . S
C1434 C1433 1.334 . S
C1434 C1435 1.287 . S
C1435 C1434 1.287 . S
C1435 C1436 1.524 . S
C1435 H1438 0.999 . S
C1436 H1406 0.950 . S
C1436 C1435 1.524 . S
C1436 C1437 1.415 . S
C1437 H1407 0.950 . S
C1437 C1432 1.363 . S
C1437 C1436 1.415 . S
H1438 C1435 0.999 . S
H1439 C1420 0.913 . S
H1440 C1458 0.951 . S
H1441 C1460 0.951 . S
H1442 C1462 0.950 . S
H1443 C1463 0.950 . S
H1444 C1465 0.950 . S
H1445 C1468 0.950 . S
H1446 C1469 0.950 . S
H1447 C1471 0.950 . S
H1448 C1472 0.950 . S
H1449 C1473 0.951 1_455 S
H1450 C1475 0.951 1_455 S
H1451 C1477 0.950 . S
H1452 C1478 0.950 . S
H1453 C1480 0.950 . S
H1454 C1483 0.950 . S
H1455 C1484 0.950 . S
H1456 C1486 0.950 . S
H1457 C1487 0.950 . S
C1458 H1440 0.951 . S
C1458 C1459 1.366 . S
C1458 C1460 1.388 . S
C1459 C1458 1.366 . S
C1459 C1463 1.385 . S
C1460 H1441 0.951 . S
C1460 C1458 1.388 . S
C1460 C1461 1.366 . S
C1461 C1460 1.366 . S
C1461 C1462 1.414 . S
C1461 C1464 1.499 . S
C1462 H1442 0.950 . S
C1462 C1461 1.414 . S
C1462 C1463 1.374 . S
C1463 H1443 0.950 . S
C1463 C1459 1.385 . S
C1463 C1462 1.374 . S
C1464 C1461 1.499 . S
C1464 C1465 1.373 . S
C1464 C1466 1.389 . S
C1465 H1444 0.950 . S
C1465 C1464 1.373 . S
C1465 C1481 1.377 . S
C1466 C1464 1.389 . S
C1466 C1467 1.524 . S
C1466 C1480 1.377 . S
C1467 C1466 1.524 . S
C1467 C1468 1.397 . S
C1467 C1472 1.363 . S
C1468 H1445 0.950 . S
C1468 C1467 1.397 . S
C1468 C1469 1.334 . S
C1469 H1446 0.950 . S
C1469 C1468 1.334 . S
C1469 C1470 1.287 . S
C1470 C1469 1.287 . S
C1470 C1471 1.524 . S
C1470 H1489 0.913 . S
C1471 H1447 0.950 . S
C1471 C1470 1.524 . S
C1471 C1472 1.415 . S
C1472 H1448 0.950 . S
C1472 C1467 1.363 . S
C1472 C1471 1.415 . S
C1473 H1449 0.951 1_655 S
C1473 C1474 1.366 . S
C1473 C1475 1.388 . S
C1474 C1473 1.366 . S
C1474 C1478 1.385 . S
C1475 H1450 0.951 1_655 S
C1475 C1473 1.388 . S
C1475 C1476 1.366 . S
C1476 C1475 1.366 . S
C1476 C1477 1.414 . S
C1476 C1479 1.499 . S
C1477 H1451 0.950 . S
C1477 C1476 1.414 . S
C1477 C1478 1.374 . S
C1478 H1452 0.950 . S
C1478 C1474 1.385 . S
C1478 C1477 1.374 . S
C1479 C1476 1.499 . S
C1479 C1480 1.373 . S
C1479 C1481 1.389 . S
C1480 H1453 0.950 . S
C1480 C1466 1.377 . S
C1480 C1479 1.373 . S
C1481 C1465 1.377 . S
C1481 C1479 1.389 . S
C1481 C1482 1.524 1_655 S
C1482 C1481 1.524 1_455 S
C1482 C1483 1.397 . S
C1482 C1487 1.363 . S
C1483 H1454 0.950 . S
C1483 C1482 1.397 . S
C1483 C1484 1.334 . S
C1484 H1455 0.950 . S
C1484 C1483 1.334 . S
C1484 C1485 1.287 . S
C1485 C1484 1.287 . S
C1485 C1486 1.524 . S
C1485 H1488 0.999 . S
C1486 H1456 0.950 . S
C1486 C1485 1.524 . S
C1486 C1487 1.415 . S
C1487 H1457 0.950 . S
C1487 C1482 1.363 . S
C1487 C1486 1.415 . S
H1488 C1485 0.999 . S
H1489 C1470 0.913 . S
H1490 C1508 0.951 . S
H1491 C1510 0.951 . S
H1492 C1512 0.950 . S
H1493 C1513 0.950 . S
H1494 C1515 0.950 . S
H1495 C1518 0.950 . S
H1496 C1519 0.950 . S
H1497 C1521 0.950 . S
H1498 C1522 0.950 . S
H1499 C1523 0.951 . S
H1500 C1525 0.951 . S
H1501 C1527 0.950 . S
H1502 C1528 0.950 1_545 S
H1503 C1530 0.950 . S
H1504 C1533 0.950 . S
H1505 C1534 0.950 . S
H1506 C1536 0.950 . S
H1507 C1537 0.950 . S
C1508 H1490 0.951 . S
C1508 C1509 1.366 . S
C1508 C1510 1.388 . S
C1509 C1508 1.366 . S
C1509 C1513 1.385 . S
C1510 H1491 0.951 . S
C1510 C1508 1.388 . S
C1510 C1511 1.366 . S
C1511 C1510 1.366 . S
C1511 C1512 1.414 . S
C1511 C1514 1.499 . S
C1512 H1492 0.950 . S
C1512 C1511 1.414 . S
C1512 C1513 1.374 . S
C1513 H1493 0.950 . S
C1513 C1509 1.385 . S
C1513 C1512 1.374 . S
C1514 C1511 1.499 . S
C1514 C1515 1.373 . S
C1514 C1516 1.389 . S
C1515 H1494 0.950 . S
C1515 C1514 1.373 . S
C1515 C1531 1.377 . S
C1516 C1514 1.389 . S
C1516 C1517 1.524 . S
C1516 C1530 1.377 . S
C1517 C1516 1.524 . S
C1517 C1518 1.397 . S
C1517 C1522 1.363 . S
C1518 H1495 0.950 . S
C1518 C1517 1.397 . S
C1518 C1519 1.334 . S
C1519 H1496 0.950 . S
C1519 C1518 1.334 . S
C1519 C1520 1.287 . S
C1520 C1519 1.287 . S
C1520 C1521 1.524 . S
C1520 H1539 0.913 . S
C1521 H1497 0.950 . S
C1521 C1520 1.524 . S
C1521 C1522 1.415 . S
C1522 H1498 0.950 . S
C1522 C1517 1.363 . S
C1522 C1521 1.415 . S
C1523 H1499 0.951 . S
C1523 C1524 1.366 . S
C1523 C1525 1.388 . S
C1524 C1523 1.366 . S
C1524 C1528 1.385 . S
C1525 H1500 0.951 . S
C1525 C1523 1.388 . S
C1525 C1526 1.366 . S
C1526 C1525 1.366 . S
C1526 C1527 1.414 . S
C1526 C1529 1.499 . S
C1527 H1501 0.950 . S
C1527 C1526 1.414 . S
C1527 C1528 1.374 . S
C1528 H1502 0.950 1_565 S
C1528 C1524 1.385 . S
C1528 C1527 1.374 . S
C1529 C1526 1.499 . S
C1529 C1530 1.373 . S
C1529 C1531 1.389 . S
C1530 H1503 0.950 . S
C1530 C1516 1.377 . S
C1530 C1529 1.373 . S
C1531 C1515 1.377 . S
C1531 C1529 1.389 . S
C1531 C1532 1.524 . S
C1532 C1531 1.524 . S
C1532 C1533 1.397 1_565 S
C1532 C1537 1.363 . S
C1533 H1504 0.950 . S
C1533 C1532 1.397 1_545 S
C1533 C1534 1.334 . S
C1534 H1505 0.950 . S
C1534 C1533 1.334 . S
C1534 C1535 1.287 . S
C1535 C1534 1.287 . S
C1535 C1536 1.524 1_545 S
C1535 H1538 0.999 . S
C1536 H1506 0.950 . S
C1536 C1535 1.524 1_565 S
C1536 C1537 1.415 . S
C1537 H1507 0.950 . S
C1537 C1532 1.363 . S
C1537 C1536 1.415 . S
H1538 C1535 0.999 . S
H1539 C1520 0.913 . S
H1540 C1558 0.951 . S
H1541 C1560 0.951 . S
H1542 C1562 0.950 . S
H1543 C1563 0.950 . S
H1544 C1565 0.950 . S
H1545 C1568 0.950 . S
H1546 C1569 0.950 . S
H1547 C1571 0.950 . S
H1548 C1572 0.950 . S
H1549 C1573 0.951 . S
H1550 C1575 0.951 . S
H1551 C1577 0.950 . S
H1552 C1578 0.950 . S
H1553 C1580 0.950 . S
H1554 C1583 0.950 . S
H1555 C1584 0.950 . S
H1556 C1586 0.950 . S
H1557 C1587 0.950 . S
C1558 H1540 0.951 . S
C1558 C1559 1.366 . S
C1558 C1560 1.388 . S
C1559 C1558 1.366 . S
C1559 C1563 1.385 . S
C1560 H1541 0.951 . S
C1560 C1558 1.388 . S
C1560 C1561 1.366 . S
C1561 C1560 1.366 . S
C1561 C1562 1.414 . S
C1561 C1564 1.499 . S
C1562 H1542 0.950 . S
C1562 C1561 1.414 . S
C1562 C1563 1.374 . S
C1563 H1543 0.950 . S
C1563 C1559 1.385 . S
C1563 C1562 1.374 . S
C1564 C1561 1.499 . S
C1564 C1565 1.373 . S
C1564 C1566 1.389 . S
C1565 H1544 0.950 . S
C1565 C1564 1.373 . S
C1565 C1581 1.377 . S
C1566 C1564 1.389 . S
C1566 C1567 1.524 . S
C1566 C1580 1.377 . S
C1567 C1566 1.524 . S
C1567 C1568 1.397 . S
C1567 C1572 1.363 . S
C1568 H1545 0.950 . S
C1568 C1567 1.397 . S
C1568 C1569 1.334 . S
C1569 H1546 0.950 . S
C1569 C1568 1.334 . S
C1569 C1570 1.287 . S
C1570 C1569 1.287 . S
C1570 C1571 1.524 . S
C1570 H1589 0.913 . S
C1571 H1547 0.950 . S
C1571 C1570 1.524 . S
C1571 C1572 1.415 . S
C1572 H1548 0.950 . S
C1572 C1567 1.363 . S
C1572 C1571 1.415 . S
C1573 H1549 0.951 . S
C1573 C1574 1.366 . S
C1573 C1575 1.388 . S
C1574 C1573 1.366 . S
C1574 C1578 1.385 . S
C1575 H1550 0.951 . S
C1575 C1573 1.388 . S
C1575 C1576 1.366 . S
C1576 C1575 1.366 . S
C1576 C1577 1.414 . S
C1576 C1579 1.499 . S
C1577 H1551 0.950 . S
C1577 C1576 1.414 . S
C1577 C1578 1.374 . S
C1578 H1552 0.950 . S
C1578 C1574 1.385 . S
C1578 C1577 1.374 . S
C1579 C1576 1.499 . S
C1579 C1580 1.373 . S
C1579 C1581 1.389 . S
C1580 H1553 0.950 . S
C1580 C1566 1.377 . S
C1580 C1579 1.373 . S
C1581 C1565 1.377 . S
C1581 C1579 1.389 . S
C1581 C1582 1.524 . S
C1582 C1581 1.524 . S
C1582 C1583 1.397 . S
C1582 C1587 1.363 . S
C1583 H1554 0.950 . S
C1583 C1582 1.397 . S
C1583 C1584 1.334 . S
C1584 H1555 0.950 . S
C1584 C1583 1.334 . S
C1584 C1585 1.287 . S
C1585 C1584 1.287 . S
C1585 C1586 1.524 . S
C1585 H1588 0.999 . S
C1586 H1556 0.950 . S
C1586 C1585 1.524 . S
C1586 C1587 1.415 . S
C1587 H1557 0.950 . S
C1587 C1582 1.363 . S
C1587 C1586 1.415 . S
H1588 C1585 0.999 . S
H1589 C1570 0.913 . S
H1590 C1608 0.951 . S
H1591 C1610 0.951 . S
H1592 C1612 0.950 . S
H1593 C1613 0.950 . S
H1594 C1615 0.950 . S
H1595 C1618 0.950 . S
H1596 C1619 0.950 . S
H1597 C1621 0.950 . S
H1598 C1622 0.950 . S
H1599 C1623 0.951 . S
H1600 C1625 0.951 . S
H1601 C1627 0.950 . S
H1602 C1628 0.950 . S
H1603 C1630 0.950 . S
H1604 C1633 0.950 . S
H1605 C1634 0.950 . S
H1606 C1636 0.950 . S
H1607 C1637 0.950 . S
C1608 H1590 0.951 . S
C1608 C1609 1.366 . S
C1608 C1610 1.388 . S
C1609 C1608 1.366 . S
C1609 C1613 1.385 . S
C1610 H1591 0.951 . S
C1610 C1608 1.388 . S
C1610 C1611 1.366 . S
C1611 C1610 1.366 . S
C1611 C1612 1.414 . S
C1611 C1614 1.499 . S
C1612 H1592 0.950 . S
C1612 C1611 1.414 . S
C1612 C1613 1.374 . S
C1613 H1593 0.950 . S
C1613 C1609 1.385 . S
C1613 C1612 1.374 . S
C1614 C1611 1.499 . S
C1614 C1615 1.373 . S
C1614 C1616 1.389 . S
C1615 H1594 0.950 . S
C1615 C1614 1.373 . S
C1615 C1631 1.377 . S
C1616 C1614 1.389 . S
C1616 C1617 1.524 . S
C1616 C1630 1.377 . S
C1617 C1616 1.524 . S
C1617 C1618 1.397 . S
C1617 C1622 1.363 . S
C1618 H1595 0.950 . S
C1618 C1617 1.397 . S
C1618 C1619 1.334 . S
C1619 H1596 0.950 . S
C1619 C1618 1.334 . S
C1619 C1620 1.287 . S
C1620 C1619 1.287 . S
C1620 C1621 1.524 . S
C1620 H1639 0.913 . S
C1621 H1597 0.950 . S
C1621 C1620 1.524 . S
C1621 C1622 1.415 . S
C1622 H1598 0.950 . S
C1622 C1617 1.363 . S
C1622 C1621 1.415 . S
C1623 H1599 0.951 . S
C1623 C1624 1.366 . S
C1623 C1625 1.388 . S
C1624 C1623 1.366 . S
C1624 C1628 1.385 . S
C1625 H1600 0.951 . S
C1625 C1623 1.388 . S
C1625 C1626 1.366 . S
C1626 C1625 1.366 . S
C1626 C1627 1.414 . S
C1626 C1629 1.499 . S
C1627 H1601 0.950 . S
C1627 C1626 1.414 . S
C1627 C1628 1.374 . S
C1628 H1602 0.950 . S
C1628 C1624 1.385 . S
C1628 C1627 1.374 . S
C1629 C1626 1.499 . S
C1629 C1630 1.373 . S
C1629 C1631 1.389 . S
C1630 H1603 0.950 . S
C1630 C1616 1.377 . S
C1630 C1629 1.373 . S
C1631 C1615 1.377 . S
C1631 C1629 1.389 . S
C1631 C1632 1.524 . S
C1632 C1631 1.524 . S
C1632 C1633 1.397 . S
C1632 C1637 1.363 . S
C1633 H1604 0.950 . S
C1633 C1632 1.397 . S
C1633 C1634 1.334 . S
C1634 H1605 0.950 . S
C1634 C1633 1.334 . S
C1634 C1635 1.287 . S
C1635 C1634 1.287 . S
C1635 C1636 1.524 . S
C1635 H1638 0.999 . S
C1636 H1606 0.950 . S
C1636 C1635 1.524 . S
C1636 C1637 1.415 . S
C1637 H1607 0.950 . S
C1637 C1632 1.363 . S
C1637 C1636 1.415 . S
H1638 C1635 0.999 . S
H1639 C1620 0.913 . S
C459 N80 1.842 . S
C474 C178 1.850 . S
C524 C262 1.877 . S
C509 N93 1.868 . S
C574 C328 1.905 . S
C559 N54 1.983 . S
C624 C412 1.881 . S
C609 N67 1.959 . S
C674 C167 1.851 1_565 S
C659 N28 1.851 . S
C709 N41 1.878 . S
C724 C251 1.878 . S
C759 N2 1.993 . S
C774 C339 1.904 . S
C809 N15 1.968 . S
C824 C423 1.879 . S
C874 C174 0.506 1_455 S
C859 N70 0.411 . S
C924 C258 0.495 1_545 S
C909 N83 0.380 . S
C974 C330 0.483 . S
C959 N96 0.345 . S
C1009 N57 0.375 . S
C1024 C414 0.493 . S
C1059 N18 0.404 . S
C1074 C162 0.504 . S
C1124 C246 0.494 . S
C1109 N31 0.372 . S
C1174 C342 0.487 . S
C1159 N44 0.331 . S
C1209 N5 0.366 . S
C1224 C426 0.489 . S
C1259 N66 2.012 . S
C1274 C171 1.958 . S
C1309 N79 1.977 . S
C1324 C255 1.924 . S
C1374 C335 1.903 . S
C1359 N92 1.867 . S
C1424 C419 1.935 . S
C1409 N53 1.898 . S
C1459 N14 2.029 . S
C1474 C160 1.959 . S
C1524 C244 1.927 1_565 S
C1509 N27 1.993 . S
C1574 C346 1.903 . S
C1559 N40 1.885 . S
C1609 N1 1.916 . S
C1624 C430 1.934 . S
