# Generated by pormake.
# Topology rtl, (3,6)-cn, num edge types: 1
# Building blocks:
#     Node 0, Type 0, BuildingBlock: BETDAH_clean_linker_0, # of connection points: 3
#     Node 1, Type 0, BuildingBlock: BETDAH_clean_linker_0, # of connection points: 3
#     Node 2, Type 0, BuildingBlock: BETDAH_clean_linker_0, # of connection points: 3
#     Node 3, Type 0, BuildingBlock: BETDAH_clean_linker_0, # of connection points: 3
#     Node 4, Type 1, BuildingBlock: KUMBOL_clean_sbu_1, # of connection points: 6
#     Node 5, Type 1, BuildingBlock: KUMBOL_clean_sbu_1, # of connection points: 6
#     Edge 6, Type (0, 1), BuildingBlock: EYOCIG_clean_linker_4, # of connection points: 2
#     Edge 7, Type (0, 1), BuildingBlock: EYOCIG_clean_linker_4, # of connection points: 2
#     Edge 8, Type (0, 1), BuildingBlock: EYOCIG_clean_linker_4, # of connection points: 2
#     Edge 9, Type (0, 1), BuildingBlock: EYOCIG_clean_linker_4, # of connection points: 2
#     Edge 10, Type (0, 1), BuildingBlock: EYOCIG_clean_linker_4, # of connection points: 2
#     Edge 11, Type (0, 1), BuildingBlock: EYOCIG_clean_linker_4, # of connection points: 2
#     Edge 12, Type (0, 1), BuildingBlock: EYOCIG_clean_linker_4, # of connection points: 2
#     Edge 13, Type (0, 1), BuildingBlock: EYOCIG_clean_linker_4, # of connection points: 2
#     Edge 14, Type (0, 1), BuildingBlock: EYOCIG_clean_linker_4, # of connection points: 2
#     Edge 15, Type (0, 1), BuildingBlock: EYOCIG_clean_linker_4, # of connection points: 2
#     Edge 16, Type (0, 1), BuildingBlock: EYOCIG_clean_linker_4, # of connection points: 2
#     Edge 17, Type (0, 1), BuildingBlock: EYOCIG_clean_linker_4, # of connection points: 2
# Relax obj value: 0.050
# Max RMSD: 0.233
# Mean RMSD: 0.165
data_MOF--net-rtl--node1-KUMBOL_clean_sbu_1--node2-BETDAH_clean_linker_0--edge1-EYOCIG_clean_linker_4
_symmetry_space_group_name_H-M    P1
_symmetry_Int_Tables_number       1
_symmetry_cell_setting            triclinic
loop_
_symmetry_equiv_pos_as_xyz
'x, y, z'
_cell_length_a     28.091737
_cell_length_b     28.426265
_cell_length_c     21.923466
_cell_angle_alpha  75.294879
_cell_angle_beta   100.60142
_cell_angle_gamma 91.121012
loop_
_atom_site_label
_atom_site_type_symbol
_atom_site_fract_x
_atom_site_fract_y
_atom_site_fract_z
_atom_type_partial_charge
H0 H 0.1802 0.94445 1.00945 0.0
H1 H 0.27683 0.82802 0.13062 0.0
H2 H 0.24552 0.84703 0.92617 0.0
C3 C 0.20544 0.91459 0.01483 0.0
C4 C 0.21133 0.89928 0.96102 0.0
C5 C 0.23009 0.89016 0.07592 0.0
C6 C 0.26064 0.84937 0.08315 0.0
C7 C 0.26679 0.83418 0.02845 0.0
C8 C 0.24273 0.86011 0.9678 0.0
N9 N 0.28383 0.78657 0.03318 0.0
C10 C 0.32954 0.76551 0.06049 0.0
H11 H 0.61373 0.6545 0.67226 0.0
H12 H 0.70108 0.76864 0.58304 0.0
H13 H 0.68503 0.75134 0.77933 0.0
C14 C 0.63748 0.68476 0.67522 0.0
C15 C 0.64833 0.69904 0.73251 0.0
C16 C 0.65542 0.71026 0.62099 0.0
C17 C 0.68722 0.74891 0.62501 0.0
C18 C 0.69829 0.76372 0.6827 0.0
C19 C 0.67771 0.73918 0.73556 0.0
N20 N 0.72616 0.80532 0.68867 0.0
C21 C 0.76414 0.82395 0.65738 0.0
H22 H 0.85901 0.08356 0.13256 0.0
H23 H 0.77708 0.19148 0.18111 0.0
H24 H 0.76973 0.18981 0.98355 0.0
C25 C 0.83332 0.11417 0.11826 0.0
C26 C 0.81432 0.13327 0.05336 0.0
C27 C 0.82085 0.13527 0.1646 0.0
C28 C 0.7868 0.17486 0.14561 0.0
C29 C 0.7681 0.19447 0.0795 0.0
C30 C 0.783 0.17391 0.03424 0.0
N31 N 0.73766 0.23694 0.05422 0.0
C32 C 0.70678 0.25782 0.08345 0.0
H33 H 0.43504 0.36221 0.4832 0.0
H34 H 0.32622 0.26618 0.55688 0.0
H35 H 0.33853 0.29436 0.35776 0.0
C36 C 0.40556 0.33775 0.47606 0.0
C37 C 0.38925 0.33075 0.41503 0.0
C38 C 0.38336 0.3145 0.52753 0.0
C39 C 0.34432 0.28331 0.51767 0.0
C40 C 0.32851 0.27564 0.45586 0.0
C41 C 0.35128 0.29957 0.40534 0.0
N42 N 0.28868 0.24667 0.43971 0.0
C43 C 0.2647 0.21248 0.47988 0.0
C44 C 0.94234 0.17516 0.50974 0.0
C45 C 0.85564 0.16771 0.4788 0.0
C46 C 0.90177 0.1468 0.51021 0.0
C47 C 0.85116 0.21709 0.44548 0.0
C48 C 0.93783 0.22513 0.47678 0.0
C49 C 0.89219 0.24572 0.44426 0.0
N50 N 0.98596 0.15412 0.54223 0.0
C51 C 0.0261 0.18218 0.54552 0.0
C52 C 0.97925 0.2531 0.47778 0.0
C53 C 0.02346 0.23162 0.51268 0.0
Gd54 Gd 0.05015 0.95702 0.53075 0.0
Gd55 Gd 0.98602 0.06911 0.59374 0.0
N56 N 0.90717 0.09887 0.54202 0.0
C57 C 0.8152 0.1384 0.48229 0.0
C58 C 0.8675 0.07075 0.5475 0.0
C59 C 0.82114 0.08988 0.51738 0.0
H60 H 0.87116 0.03355 0.57569 0.0
H61 H 0.78993 0.06718 0.52151 0.0
H62 H 0.16573 0.99282 0.54896 0.0
H63 H 0.06042 0.16705 0.574 0.0
H64 H 0.24671 0.95964 0.6041 0.0
H65 H 0.77923 0.15303 0.45887 0.0
H66 H 0.81608 0.23353 0.4208 0.0
H67 H 0.97655 0.85884 0.55145 0.0
H68 H 0.97733 0.29136 0.45267 0.0
H69 H 0.05556 0.2533 0.51476 0.0
H70 H 0.22095 0.79345 0.70537 0.0
H71 H 0.88817 0.28384 0.41857 0.0
H72 H 0.05994 0.73515 0.67392 0.0
H73 H 0.98163 0.77282 0.61163 0.0
N74 N 0.05093 0.87209 0.58295 0.0
C75 C 0.09457 0.85131 0.6158 0.0
C76 C 1.0109 0.84389 0.58003 0.0
C77 C 0.05792 0.77334 0.64846 0.0
C78 C 0.01366 0.79458 0.61342 0.0
C79 C 0.09924 0.80143 0.64919 0.0
H80 H 0.14904 0.74294 0.70777 0.0
N81 N 0.12943 0.92767 0.58308 0.0
C82 C 0.13502 0.87983 0.61531 0.0
C83 C 0.22156 0.88847 0.64362 0.0
C84 C 0.1812 0.85909 0.64703 0.0
C85 C 0.16917 0.9558 0.57763 0.0
C86 C 0.21554 0.93687 0.60822 0.0
O87 O 0.96908 0.07611 0.48778 0.0
O88 O 0.98552 1.00198 0.4655 0.0
O89 O 0.08941 0.97446 0.4499 0.0
O90 O 0.03936 0.91391 0.46198 0.0
O91 O 0.95121 0.99553 0.60562 0.0
O92 O 0.97369 0.94376 0.54676 0.0
O93 O 0.06583 0.94994 0.63675 0.0
O94 O 0.05092 0.025 0.65742 0.0
O95 O 0.94727 0.05248 0.6749 0.0
O96 O 0.99803 0.1124 0.66241 0.0
O97 O 0.08619 0.02936 0.52176 0.0
O98 O 0.06241 0.0822 0.57822 0.0
C99 C 0.96534 0.04605 0.45059 0.0
C100 C 0.94646 0.95646 0.58316 0.0
C101 C 0.07724 0.92717 0.36858 0.0
C102 C 0.11903 0.93569 0.27827 0.0
C103 C 0.05691 0.87605 0.29441 0.0
C104 C 0.0504 0.8896 0.34891 0.0
C105 C 0.09075 0.89907 0.25915 0.0
C106 C 0.11164 0.95106 0.33232 0.0
C107 C 0.06868 0.93929 0.42748 0.0
C108 C 0.18584 0.80976 0.68057 0.0
C109 C 0.14492 0.78101 0.68187 0.0
H110 H 0.25755 0.87398 0.66726 0.0
C111 C 0.06968 0.98048 0.67328 0.0
C112 C 0.09088 0.06818 0.5444 0.0
C113 C 0.96062 0.09969 0.75603 0.0
C114 C 0.92014 0.09 0.84736 0.0
C115 C 0.9805 0.15131 0.82965 0.0
C116 C 0.98701 0.13774 0.77512 0.0
C117 C 0.94736 0.12757 0.8656 0.0
C118 C 0.92716 0.07503 0.79308 0.0
C119 C 0.96871 0.08741 0.69717 0.0
H120 H 0.03637 0.84676 0.28018 0.0
H121 H 0.02429 0.87018 0.37593 0.0
H122 H 0.09626 0.88669 0.218 0.0
H123 H 0.13358 0.97933 0.34741 0.0
H124 H 1.00062 0.18096 0.84352 0.0
H125 H 0.0127 0.15749 0.74763 0.0
H126 H 0.94195 0.13966 0.90702 0.0
H127 H 0.90592 0.04604 0.77879 0.0
C128 C 0.68243 0.5738 0.10931 0.0
C129 C 0.67675 0.66178 0.07047 0.0
C130 C 0.65517 0.61678 0.09242 0.0
C131 C 0.72558 0.66279 0.06388 0.0
C132 C 0.73179 0.5748 0.10326 0.0
C133 C 0.75298 0.61939 0.07995 0.0
N134 N 0.66095 0.53123 0.13245 0.0
C135 C 0.68789 0.48864 0.15282 0.0
C136 C 0.75858 0.531 0.12125 0.0
C137 C 0.73664 0.48782 0.14655 0.0
Gd138 Gd 0.46086 0.48771 1.01172 0.0
Gd139 Gd 0.57737 0.53728 0.13794 0.0
N140 N 0.6077 0.61476 0.09814 0.0
C141 C 0.6487 0.70459 0.05634 0.0
C142 C 0.58081 0.65661 0.08663 0.0
C143 C 0.60071 0.70198 0.06517 0.0
H144 H 0.5441 0.65543 0.09475 0.0
H145 H 0.57902 0.73498 0.05572 0.0
H146 H 0.49383 0.36884 0.05534 0.0
H147 H 0.67235 0.455 0.17472 0.0
H148 H 0.45916 0.28967 0.09568 0.0
H149 H 0.66392 0.7398 0.0395 0.0
H150 H 0.74253 0.69698 0.04667 0.0
H151 H 0.36575 0.56967 0.97596 0.0
H152 H 0.79635 0.53022 0.11676 0.0
H153 H 0.75744 0.45385 0.1618 0.0
H154 H 0.29595 0.32776 0.10524 0.0
H155 H 0.79067 0.62073 0.07479 0.0
H156 H 0.24208 0.49442 0.03514 0.0
H157 H 0.28084 0.57079 0.98981 0.0
N158 N 0.37722 0.49343 0.01787 0.0
C159 C 0.35585 0.4509 0.04151 0.0
C160 C 0.35027 0.53601 0.99791 0.0
C161 C 0.27977 0.49365 0.03025 0.0
C162 C 0.30163 0.53682 1.00476 0.0
C163 C 0.30656 0.44988 0.04803 0.0
H164 H 0.24779 0.40396 0.07706 0.0
N165 N 0.43056 0.41 0.05241 0.0
C166 C 0.38315 0.40797 0.05856 0.0
C167 C 0.38963 0.32015 0.09531 0.0
C168 C 0.36162 0.36297 0.08097 0.0
C169 C 0.45731 0.36801 0.06402 0.0
C170 C 0.4375 0.3227 0.08613 0.0
O171 O 0.58212 0.55771 0.03336 0.0
O172 O 0.50847 0.54724 0.96744 0.0
O173 O 0.47388 0.44783 0.94215 0.0
O174 O 0.4164 0.50433 0.91718 0.0
O175 O 0.50538 0.57714 0.10805 0.0
O176 O 0.45116 0.56479 0.01849 0.0
O177 O 0.45517 0.47056 0.1156 0.0
O178 O 0.53061 0.47648 0.18051 0.0
O179 O 0.56431 0.57664 0.20808 0.0
O180 O 0.6216 0.52002 0.23256 0.0
O181 O 0.53201 0.44571 0.04442 0.0
O182 O 0.58736 0.46063 0.13138 0.0
C183 C 0.55288 0.56345 0.97764 0.0
C184 C 0.46608 0.5876 0.06372 0.0
C185 C 0.42521 0.46549 0.83289 0.0
C186 C 0.42981 0.42368 0.74929 0.0
C187 C 0.37321 0.49152 0.72804 0.0
C188 C 0.38833 0.49617 0.79015 0.0
C189 C 0.39393 0.45577 0.70767 0.0
C190 C 0.44671 0.42899 0.81202 0.0
C191 C 0.43916 0.47246 0.89853 0.0
C192 C 0.31284 0.36194 0.08779 0.0
C193 C 0.28543 0.40532 0.07166 0.0
H194 H 0.37446 0.28497 0.11251 0.0
C195 C 0.48514 0.46319 0.17087 0.0
C196 C 0.57142 0.43589 0.08883 0.0
C197 C 0.61286 0.55806 0.31743 0.0
C198 C 0.60792 0.59891 0.40163 0.0
C199 C 0.66525 0.53188 0.42201 0.0
C200 C 0.6501 0.52755 0.35975 0.0
C201 C 0.64418 0.56711 0.44291 0.0
C202 C 0.59102 0.59395 0.33884 0.0
C203 C 0.5989 0.55167 0.25157 0.0
H204 H 0.34455 0.51517 0.69584 0.0
H205 H 0.3707 0.52396 0.80468 0.0
H206 H 0.38047 0.45206 0.65951 0.0
H207 H 0.47452 0.40422 0.84451 0.0
H208 H 0.69422 0.50845 0.45389 0.0
H209 H 0.668 0.5002 0.34474 0.0
H210 H 0.65767 0.57069 0.49112 0.0
H211 H 0.56299 0.61864 0.30667 0.0
C212 C 0.20729 0.15239 0.51552 0.0
C213 C 0.23793 0.18167 0.50204 0.0
C214 C 0.16787 0.1213 0.52561 0.0
C215 C 0.13289 0.09672 0.53382 0.0
C216 C 0.39213 0.70503 0.07718 0.0
C217 C 0.36412 0.73775 0.07382 0.0
C218 C 0.41782 0.6643 0.07155 0.0
C219 C 0.43819 0.62912 0.06541 0.0
C220 C 0.83329 0.86892 0.6244 0.0
C221 C 0.79878 0.84498 0.63848 0.0
C222 C 0.87299 0.89923 0.61032 0.0
C223 C 0.90642 0.92548 0.59811 0.0
C224 C 0.64545 0.32104 0.09612 0.0
C225 C 0.67764 0.28354 0.09497 0.0
C226 C 0.62115 0.35623 0.09421 0.0
C227 C 0.59863 0.39262 0.09202 0.0
C228 C 0.20681 0.92532 0.16755 0.0
C229 C 0.22013 0.90633 0.12985 0.0
C230 C 0.18487 0.94508 0.20914 0.0
C231 C 0.15912 0.94983 0.24574 0.0
C232 C 0.61004 0.64768 0.83015 0.0
C233 C 0.62838 0.67231 0.78731 0.0
C234 C 0.58837 0.61768 0.87947 0.0
C235 C 0.5708 0.59279 0.92288 0.0
C236 C 0.87295 0.0995 0.28096 0.0
C237 C 0.84738 0.11807 0.22979 0.0
C238 C 0.90574 0.07854 0.33892 0.0
C239 C 0.93324 0.06212 0.38921 0.0
C240 C 0.41951 0.33765 0.63644 0.0
C241 C 0.40088 0.32502 0.58897 0.0
C242 C 0.4379 0.3583 0.68833 0.0
C243 C 0.44246 0.38318 0.72625 0.0
C244 C 0.61916 0.68428 0.51442 0.0
C245 C 0.63731 0.69821 0.5609 0.0
C246 C 0.60011 0.66372 0.4629 0.0
C247 C 0.59512 0.63913 0.42478 0.0
C248 C 0.83979 0.09246 0.96802 0.0
C249 C 0.82782 0.11148 1.0063 0.0
C250 C 0.85863 0.07491 0.92242 0.0
C251 C 0.88235 0.07277 0.88272 0.0
C252 C 0.42834 0.38125 0.3186 0.0
C253 C 0.40991 0.3578 0.36169 0.0
C254 C 0.44969 0.41009 0.26882 0.0
C255 C 0.46713 0.4344 0.22527 0.0
C256 C 0.15596 0.93561 0.84791 0.0
C257 C 0.1808 0.91963 0.89991 0.0
C258 C 0.1258 0.95176 0.78725 0.0
C259 C 0.10016 0.96494 0.73523 0.0
loop_
_geom_bond_atom_site_label_1
_geom_bond_atom_site_label_2
_geom_bond_distance
_geom_bond_site_symmetry_2
_ccdc_geom_bond_type
H0 C3 0.929 . S
H1 C6 0.929 . S
H2 C8 0.930 . S
C3 H0 0.929 . S
C3 C4 1.398 1_554 S
C3 C5 1.396 . S
C4 C3 1.398 1_556 S
C4 C8 1.407 . S
C5 C3 1.396 . S
C5 C6 1.394 . S
C6 H1 0.929 . S
C6 C5 1.394 . S
C6 C7 1.382 . S
C7 C6 1.382 . S
C7 C8 1.392 1_554 S
C7 N9 1.420 . S
C8 H2 0.930 . S
C8 C4 1.407 . S
C8 C7 1.392 1_556 S
N9 C7 1.420 . S
N9 C10 1.244 . S
C10 N9 1.244 . S
H11 C14 0.929 . S
H12 C17 0.929 . S
H13 C19 0.930 . S
C14 H11 0.929 . S
C14 C15 1.398 . S
C14 C16 1.396 . S
C15 C14 1.398 . S
C15 C19 1.407 . S
C16 C14 1.396 . S
C16 C17 1.394 . S
C17 H12 0.929 . S
C17 C16 1.394 . S
C17 C18 1.382 . S
C18 C17 1.382 . S
C18 C19 1.392 . S
C18 N20 1.420 . S
C19 H13 0.930 . S
C19 C15 1.407 . S
C19 C18 1.392 . S
N20 C18 1.420 . S
N20 C21 1.244 . S
C21 N20 1.244 . S
H22 C25 0.929 . S
H23 C28 0.929 . S
H24 C30 0.930 1_556 S
C25 H22 0.929 . S
C25 C26 1.398 . S
C25 C27 1.396 . S
C26 C25 1.398 . S
C26 C30 1.407 . S
C27 C25 1.396 . S
C27 C28 1.394 . S
C28 H23 0.929 . S
C28 C27 1.394 . S
C28 C29 1.382 . S
C29 C28 1.382 . S
C29 C30 1.392 . S
C29 N31 1.420 . S
C30 H24 0.930 1_554 S
C30 C26 1.407 . S
C30 C29 1.392 . S
N31 C29 1.420 . S
N31 C32 1.244 . S
C32 N31 1.244 . S
H33 C36 0.929 . S
H34 C39 0.929 . S
H35 C41 0.930 . S
C36 H33 0.929 . S
C36 C37 1.398 . S
C36 C38 1.396 . S
C37 C36 1.398 . S
C37 C41 1.407 . S
C38 C36 1.396 . S
C38 C39 1.394 . S
C39 H34 0.929 . S
C39 C38 1.394 . S
C39 C40 1.382 . S
C40 C39 1.382 . S
C40 C41 1.392 . S
C40 N42 1.420 . S
C41 H35 0.930 . S
C41 C37 1.407 . S
C41 C40 1.392 . S
N42 C40 1.420 . S
N42 C43 1.244 . S
C43 N42 1.244 . S
C44 C46 1.422 . S
C44 C48 1.415 . S
C44 N50 1.369 . S
C45 C46 1.421 . S
C45 C47 1.417 . S
C45 C57 1.422 . S
C46 C44 1.422 . S
C46 C45 1.421 . S
C46 N56 1.359 . S
C47 C45 1.417 . S
C47 C49 1.329 . S
C47 H66 0.930 . S
C48 C44 1.415 . S
C48 C49 1.437 . S
C48 C52 1.413 . S
C49 C47 1.329 . S
C49 C48 1.437 . S
C49 H71 0.929 . S
N50 C44 1.369 . S
N50 C51 1.338 1_655 S
N50 Gd55 2.622 . S
C51 N50 1.338 1_455 S
C51 C53 1.378 . S
C51 H63 0.929 . S
C52 C48 1.413 . S
C52 C53 1.348 1_655 S
C52 H68 0.931 . S
C53 C51 1.378 . S
C53 C52 1.348 1_455 S
C53 H69 0.930 . S
Gd54 N74 2.622 . S
Gd54 N81 2.570 . S
Gd54 O88 2.353 1_465 S
Gd54 O89 2.468 . S
Gd54 O90 2.427 . S
Gd54 O92 2.388 1_455 S
Gd54 O93 2.386 . S
Gd54 O97 2.307 1_565 S
Gd54 C107 2.805 . S
Gd55 N50 2.622 . S
Gd55 N56 2.570 . S
Gd55 O87 2.386 . S
Gd55 O91 2.307 1_545 S
Gd55 O94 2.353 1_655 S
Gd55 O95 2.468 . S
Gd55 O96 2.427 . S
Gd55 O98 2.388 1_655 S
Gd55 C119 2.805 . S
N56 C46 1.359 . S
N56 Gd55 2.570 . S
N56 C58 1.343 . S
C57 C45 1.422 . S
C57 C59 1.321 . S
C57 H65 0.931 . S
C58 N56 1.343 . S
C58 C59 1.390 . S
C58 H60 0.931 . S
C59 C57 1.321 . S
C59 C58 1.390 . S
C59 H61 0.930 . S
H60 C58 0.931 . S
H61 C59 0.930 . S
H62 C85 0.931 . S
H63 C51 0.929 . S
H64 C86 0.930 . S
H65 C57 0.931 . S
H66 C47 0.930 . S
H67 C76 0.929 1_655 S
H68 C52 0.931 . S
H69 C53 0.930 . S
H70 C108 0.930 . S
H71 C49 0.929 . S
H72 C77 0.931 . S
H73 C78 0.930 1_655 S
N74 Gd54 2.622 . S
N74 C75 1.369 . S
N74 C76 1.338 . S
C75 N74 1.369 . S
C75 C79 1.415 . S
C75 C82 1.422 . S
C76 H67 0.929 1_455 S
C76 N74 1.338 . S
C76 C78 1.378 . S
C77 H72 0.931 . S
C77 C78 1.348 . S
C77 C79 1.413 . S
C78 H73 0.930 1_455 S
C78 C76 1.378 . S
C78 C77 1.348 . S
C79 C75 1.415 . S
C79 C77 1.413 . S
C79 C109 1.437 . S
H80 C109 0.929 . S
N81 Gd54 2.570 . S
N81 C82 1.359 . S
N81 C85 1.343 . S
C82 C75 1.422 . S
C82 N81 1.359 . S
C82 C84 1.421 . S
C83 C84 1.422 . S
C83 C86 1.321 . S
C83 H110 0.931 . S
C84 C82 1.421 . S
C84 C83 1.422 . S
C84 C108 1.417 . S
C85 H62 0.931 . S
C85 N81 1.343 . S
C85 C86 1.390 . S
C86 H64 0.930 . S
C86 C83 1.321 . S
C86 C85 1.390 . S
O87 Gd55 2.386 . S
O87 C99 1.265 . S
O88 Gd54 2.353 1_645 S
O88 C99 1.242 . S
O89 Gd54 2.468 . S
O89 C107 1.263 . S
O90 Gd54 2.427 . S
O90 C107 1.252 . S
O91 Gd55 2.307 1_565 S
O91 C100 1.261 . S
O92 Gd54 2.388 1_655 S
O92 C100 1.252 . S
O93 Gd54 2.386 . S
O93 C111 1.265 . S
O94 Gd55 2.353 1_455 S
O94 C111 1.242 1_545 S
O95 Gd55 2.468 . S
O95 C119 1.263 . S
O96 Gd55 2.427 . S
O96 C119 1.252 . S
O97 Gd54 2.307 1_545 S
O97 C112 1.261 . S
O98 Gd55 2.388 1_455 S
O98 C112 1.252 . S
C99 O87 1.265 . S
C99 O88 1.242 . S
C100 O91 1.261 . S
C100 O92 1.252 . S
C101 C104 1.394 . S
C101 C106 1.370 . S
C101 C107 1.500 . S
C102 C105 1.383 . S
C102 C106 1.395 . S
C103 C104 1.396 . S
C103 C105 1.365 . S
C103 H120 0.929 . S
C104 C101 1.394 . S
C104 C103 1.396 . S
C104 H121 0.930 . S
C105 C102 1.383 . S
C105 C103 1.365 . S
C105 H122 0.931 . S
C106 C101 1.370 . S
C106 C102 1.395 . S
C106 H123 0.930 . S
C107 Gd54 2.805 . S
C107 O89 1.263 . S
C107 O90 1.252 . S
C107 C101 1.500 . S
C108 H70 0.930 . S
C108 C84 1.417 . S
C108 C109 1.329 . S
C109 C79 1.437 . S
C109 H80 0.929 . S
C109 C108 1.329 . S
H110 C83 0.931 . S
C111 O93 1.265 . S
C111 O94 1.242 1_565 S
C112 O97 1.261 . S
C112 O98 1.252 . S
C113 C116 1.394 . S
C113 C118 1.370 . S
C113 C119 1.500 . S
C114 C117 1.383 . S
C114 C118 1.395 . S
C115 C116 1.396 . S
C115 C117 1.365 . S
C115 H124 0.929 . S
C116 C113 1.394 . S
C116 C115 1.396 . S
C116 H125 0.930 . S
C117 C114 1.383 . S
C117 C115 1.365 . S
C117 H126 0.931 . S
C118 C113 1.370 . S
C118 C114 1.395 . S
C118 H127 0.930 . S
C119 Gd55 2.805 . S
C119 O95 1.263 . S
C119 O96 1.252 . S
C119 C113 1.500 . S
H120 C103 0.929 . S
H121 C104 0.930 . S
H122 C105 0.931 . S
H123 C106 0.930 . S
H124 C115 0.929 . S
H125 C116 0.930 . S
H126 C117 0.931 . S
H127 C118 0.930 . S
C128 C130 1.422 . S
C128 C132 1.415 . S
C128 N134 1.369 . S
C129 C130 1.421 . S
C129 C131 1.417 . S
C129 C141 1.422 . S
C130 C128 1.422 . S
C130 C129 1.421 . S
C130 N140 1.359 . S
C131 C129 1.417 . S
C131 C133 1.329 . S
C131 H150 0.930 . S
C132 C128 1.415 . S
C132 C133 1.437 . S
C132 C136 1.413 . S
C133 C131 1.329 . S
C133 C132 1.437 . S
C133 H155 0.929 . S
N134 C128 1.369 . S
N134 C135 1.338 . S
N134 Gd139 2.622 . S
C135 N134 1.338 . S
C135 C137 1.378 . S
C135 H147 0.929 . S
C136 C132 1.413 . S
C136 C137 1.348 . S
C136 H152 0.931 . S
C137 C135 1.378 . S
C137 C136 1.348 . S
C137 H153 0.930 . S
Gd138 N158 2.622 . S
Gd138 N165 2.570 . S
Gd138 O172 2.353 1_554 S
Gd138 O173 2.468 1_554 S
Gd138 O174 2.427 1_554 S
Gd138 O176 2.388 . S
Gd138 O177 2.386 . S
Gd138 O181 2.307 . S
Gd138 C191 2.805 1_554 S
Gd139 N134 2.622 . S
Gd139 N140 2.570 . S
Gd139 O171 2.386 . S
Gd139 O175 2.307 . S
Gd139 O178 2.353 . S
Gd139 O179 2.468 . S
Gd139 O180 2.427 . S
Gd139 O182 2.388 . S
Gd139 C203 2.805 . S
N140 C130 1.359 . S
N140 Gd139 2.570 . S
N140 C142 1.343 . S
C141 C129 1.422 . S
C141 C143 1.321 . S
C141 H149 0.931 . S
C142 N140 1.343 . S
C142 C143 1.390 . S
C142 H144 0.931 . S
C143 C141 1.321 . S
C143 C142 1.390 . S
C143 H145 0.930 . S
H144 C142 0.931 . S
H145 C143 0.930 . S
H146 C169 0.931 . S
H147 C135 0.929 . S
H148 C170 0.930 . S
H149 C141 0.931 . S
H150 C131 0.930 . S
H151 C160 0.929 . S
H152 C136 0.931 . S
H153 C137 0.930 . S
H154 C192 0.930 . S
H155 C133 0.929 . S
H156 C161 0.931 . S
H157 C162 0.930 . S
N158 Gd138 2.622 . S
N158 C159 1.369 . S
N158 C160 1.338 1_554 S
C159 N158 1.369 . S
C159 C163 1.415 . S
C159 C166 1.422 . S
C160 H151 0.929 . S
C160 N158 1.338 1_556 S
C160 C162 1.378 . S
C161 H156 0.931 . S
C161 C162 1.348 1_554 S
C161 C163 1.413 . S
C162 H157 0.930 . S
C162 C160 1.378 . S
C162 C161 1.348 1_556 S
C163 C159 1.415 . S
C163 C161 1.413 . S
C163 C193 1.437 . S
H164 C193 0.929 . S
N165 Gd138 2.570 . S
N165 C166 1.359 . S
N165 C169 1.343 . S
C166 C159 1.422 . S
C166 N165 1.359 . S
C166 C168 1.421 . S
C167 C168 1.422 . S
C167 C170 1.321 . S
C167 H194 0.931 . S
C168 C166 1.421 . S
C168 C167 1.422 . S
C168 C192 1.417 . S
C169 H146 0.931 . S
C169 N165 1.343 . S
C169 C170 1.390 . S
C170 H148 0.930 . S
C170 C167 1.321 . S
C170 C169 1.390 . S
O171 Gd139 2.386 . S
O171 C183 1.265 1_554 S
O172 Gd138 2.353 1_556 S
O172 C183 1.242 . S
O173 Gd138 2.468 1_556 S
O173 C191 1.263 . S
O174 Gd138 2.427 1_556 S
O174 C191 1.252 . S
O175 Gd139 2.307 . S
O175 C184 1.261 . S
O176 Gd138 2.388 . S
O176 C184 1.252 . S
O177 Gd138 2.386 . S
O177 C195 1.265 . S
O178 Gd139 2.353 . S
O178 C195 1.242 . S
O179 Gd139 2.468 . S
O179 C203 1.263 . S
O180 Gd139 2.427 . S
O180 C203 1.252 . S
O181 Gd138 2.307 . S
O181 C196 1.261 . S
O182 Gd139 2.388 . S
O182 C196 1.252 . S
C183 O171 1.265 1_556 S
C183 O172 1.242 . S
C184 O175 1.261 . S
C184 O176 1.252 . S
C185 C188 1.394 . S
C185 C190 1.370 . S
C185 C191 1.500 . S
C186 C189 1.383 . S
C186 C190 1.395 . S
C187 C188 1.396 . S
C187 C189 1.365 . S
C187 H204 0.929 . S
C188 C185 1.394 . S
C188 C187 1.396 . S
C188 H205 0.930 . S
C189 C186 1.383 . S
C189 C187 1.365 . S
C189 H206 0.931 . S
C190 C185 1.370 . S
C190 C186 1.395 . S
C190 H207 0.930 . S
C191 Gd138 2.805 1_556 S
C191 O173 1.263 . S
C191 O174 1.252 . S
C191 C185 1.500 . S
C192 H154 0.930 . S
C192 C168 1.417 . S
C192 C193 1.329 . S
C193 C163 1.437 . S
C193 H164 0.929 . S
C193 C192 1.329 . S
H194 C167 0.931 . S
C195 O177 1.265 . S
C195 O178 1.242 . S
C196 O181 1.261 . S
C196 O182 1.252 . S
C197 C200 1.394 . S
C197 C202 1.370 . S
C197 C203 1.500 . S
C198 C201 1.383 . S
C198 C202 1.395 . S
C199 C200 1.396 . S
C199 C201 1.365 . S
C199 H208 0.929 . S
C200 C197 1.394 . S
C200 C199 1.396 . S
C200 H209 0.930 . S
C201 C198 1.383 . S
C201 C199 1.365 . S
C201 H210 0.931 . S
C202 C197 1.370 . S
C202 C198 1.395 . S
C202 H211 0.930 . S
C203 Gd139 2.805 . S
C203 O179 1.263 . S
C203 O180 1.252 . S
C203 C197 1.500 . S
H204 C187 0.929 . S
H205 C188 0.930 . S
H206 C189 0.931 . S
H207 C190 0.930 . S
H208 C199 0.929 . S
H209 C200 0.930 . S
H210 C201 0.931 . S
H211 C202 0.930 . S
C212 C213 1.170 . S
C212 C214 1.380 . S
C213 C212 1.170 . S
C214 C212 1.380 . S
C214 C215 1.170 . S
C215 C214 1.170 . S
C216 C217 1.170 . S
C216 C218 1.380 . S
C217 C216 1.170 . S
C218 C216 1.380 . S
C218 C219 1.170 . S
C219 C218 1.170 . S
C220 C221 1.170 . S
C220 C222 1.380 . S
C221 C220 1.170 . S
C222 C220 1.380 . S
C222 C223 1.170 . S
C223 C222 1.170 . S
C224 C225 1.170 . S
C224 C226 1.380 . S
C225 C224 1.170 . S
C226 C224 1.380 . S
C226 C227 1.170 . S
C227 C226 1.170 . S
C228 C229 1.170 . S
C228 C230 1.380 . S
C229 C228 1.170 . S
C230 C228 1.380 . S
C230 C231 1.170 . S
C231 C230 1.170 . S
C232 C233 1.170 . S
C232 C234 1.380 . S
C233 C232 1.170 . S
C234 C232 1.380 . S
C234 C235 1.170 . S
C235 C234 1.170 . S
C236 C237 1.170 . S
C236 C238 1.380 . S
C237 C236 1.170 . S
C238 C236 1.380 . S
C238 C239 1.170 . S
C239 C238 1.170 . S
C240 C241 1.170 . S
C240 C242 1.380 . S
C241 C240 1.170 . S
C242 C240 1.380 . S
C242 C243 1.170 . S
C243 C242 1.170 . S
C244 C245 1.170 . S
C244 C246 1.380 . S
C245 C244 1.170 . S
C246 C244 1.380 . S
C246 C247 1.170 . S
C247 C246 1.170 . S
C248 C249 1.170 . S
C248 C250 1.380 . S
C249 C248 1.170 . S
C250 C248 1.380 . S
C250 C251 1.170 . S
C251 C250 1.170 . S
C252 C253 1.170 . S
C252 C254 1.380 . S
C253 C252 1.170 . S
C254 C252 1.380 . S
C254 C255 1.170 . S
C255 C254 1.170 . S
C256 C257 1.170 . S
C256 C258 1.380 . S
C257 C256 1.170 . S
C258 C256 1.380 . S
C258 C259 1.170 . S
C259 C258 1.170 . S
C215 C112 1.629 . S
C213 C43 1.639 . S
C217 C10 1.634 . S
C219 C184 1.632 . S
C221 C21 1.626 . S
C223 C100 1.642 . S
C225 C32 1.610 . S
C227 C196 1.609 . S
C231 C102 1.435 . S
C229 C5 1.575 . S
C235 C183 1.694 . S
C233 C15 1.679 . S
C237 C27 1.631 . S
C239 C99 1.647 . S
C241 C38 1.597 . S
C243 C186 1.410 . S
C247 C198 1.354 . S
C245 C16 1.550 . S
C251 C114 1.338 . S
C249 C26 1.538 1_556 S
C255 C195 1.615 . S
C253 C37 1.597 . S
C257 C4 1.566 . S
C259 C111 1.586 . S
