# Generated by pormake.
# Topology anh, (6,3)-cn, num edge types: 1
# Building blocks:
#     Node 0, Type 0, BuildingBlock: BETFEN_clean_sbu_0, # of connection points: 6
#     Node 1, Type 0, BuildingBlock: BETFEN_clean_sbu_0, # of connection points: 6
#     Node 2, Type 0, BuildingBlock: BETFEN_clean_sbu_0, # of connection points: 6
#     Node 3, Type 1, BuildingBlock: BELTOD_clean_linker_0, # of connection points: 3
#     Node 4, Type 1, BuildingBlock: BELTOD_clean_linker_0, # of connection points: 3
#     Node 5, Type 1, BuildingBlock: BELTOD_clean_linker_0, # of connection points: 3
#     Node 6, Type 1, BuildingBlock: BELTOD_clean_linker_0, # of connection points: 3
#     Node 7, Type 1, BuildingBlock: BELTOD_clean_linker_0, # of connection points: 3
#     Node 8, Type 1, BuildingBlock: BELTOD_clean_linker_0, # of connection points: 3
#     Edge 9, Type (0, 1), BuildingBlock: XIVTED_clean_linker_0, # of connection points: 2
#     Edge 10, Type (0, 1), BuildingBlock: XIVTED_clean_linker_0, # of connection points: 2
#     Edge 11, Type (0, 1), BuildingBlock: XIVTED_clean_linker_0, # of connection points: 2
#     Edge 12, Type (0, 1), BuildingBlock: XIVTED_clean_linker_0, # of connection points: 2
#     Edge 13, Type (0, 1), BuildingBlock: XIVTED_clean_linker_0, # of connection points: 2
#     Edge 14, Type (0, 1), BuildingBlock: XIVTED_clean_linker_0, # of connection points: 2
#     Edge 15, Type (0, 1), BuildingBlock: XIVTED_clean_linker_0, # of connection points: 2
#     Edge 16, Type (0, 1), BuildingBlock: XIVTED_clean_linker_0, # of connection points: 2
#     Edge 17, Type (0, 1), BuildingBlock: XIVTED_clean_linker_0, # of connection points: 2
#     Edge 18, Type (0, 1), BuildingBlock: XIVTED_clean_linker_0, # of connection points: 2
#     Edge 19, Type (0, 1), BuildingBlock: XIVTED_clean_linker_0, # of connection points: 2
#     Edge 20, Type (0, 1), BuildingBlock: XIVTED_clean_linker_0, # of connection points: 2
#     Edge 21, Type (0, 1), BuildingBlock: XIVTED_clean_linker_0, # of connection points: 2
#     Edge 22, Type (0, 1), BuildingBlock: XIVTED_clean_linker_0, # of connection points: 2
#     Edge 23, Type (0, 1), BuildingBlock: XIVTED_clean_linker_0, # of connection points: 2
#     Edge 24, Type (0, 1), BuildingBlock: XIVTED_clean_linker_0, # of connection points: 2
#     Edge 25, Type (0, 1), BuildingBlock: XIVTED_clean_linker_0, # of connection points: 2
#     Edge 26, Type (0, 1), BuildingBlock: XIVTED_clean_linker_0, # of connection points: 2
# Relax obj value: 0.180
# Max RMSD: 0.206
# Mean RMSD: 0.149
data_MOF--net-anh--node1-BETFEN_clean_sbu_0--node2-BELTOD_clean_linker_0--edge1-XIVTED_clean_linker_0
_symmetry_space_group_name_H-M    P1
_symmetry_Int_Tables_number       1
_symmetry_cell_setting            triclinic
loop_
_symmetry_equiv_pos_as_xyz
'x, y, z'
_cell_length_a     34.004928
_cell_length_b     35.666967
_cell_length_c     61.084355
_cell_angle_alpha  90.542334
_cell_angle_beta   92.790004
_cell_angle_gamma 106.33477
loop_
_atom_site_label
_atom_site_type_symbol
_atom_site_fract_x
_atom_site_fract_y
_atom_site_fract_z
_atom_type_partial_charge
Pr0 Pr 0.0259 0.5331 0.15541 0.0
Pr1 Pr 0.05183 0.61851 0.14452 0.0
C2 C 0.99408 0.46326 0.17364 0.0
C3 C 0.95456 0.43456 0.17748 0.0
C4 C 0.92215 0.42511 0.16138 0.0
C5 C 0.8855 0.39669 0.16532 0.0
C6 C 0.88055 0.37753 0.18547 0.0
C7 C 0.9129 0.38767 0.20162 0.0
C8 C 0.94952 0.41584 0.19763 0.0
C9 C 0.03045 0.54628 0.11063 0.0
C10 C 0.95378 0.57975 0.14687 0.0
C11 C 0.0871 0.69109 0.13052 0.0
C12 C 0.12704 0.72016 0.13527 0.0
C13 C 0.13032 0.76016 0.13419 0.0
C14 C 0.16756 0.78797 0.14012 0.0
C15 C 0.20218 0.77617 0.14717 0.0
C16 C 0.19879 0.73598 0.14796 0.0
C17 C 0.16155 0.70827 0.14217 0.0
C18 C 0.049 0.60382 0.18936 0.0
C19 C 0.12326 0.57008 0.14894 0.0
O20 O 1.00259 0.49642 0.18468 0.0
O21 O 1.00576 0.46708 0.15349 0.0
O22 O 1.01521 0.56504 0.12384 0.0
O23 O 0.04242 0.5187 0.1202 0.0
O24 O 0.98143 0.60701 0.13704 0.0
O25 O 0.96435 0.55148 0.15738 0.0
O26 O 0.08763 0.65936 0.11974 0.0
O27 O 0.06255 0.68409 0.14672 0.0
O28 O 0.06406 0.58627 0.17552 0.0
O29 O 0.03565 0.63096 0.18035 0.0
O30 O 0.09666 0.54243 0.15909 0.0
O31 O 0.11224 0.59945 0.14001 0.0
H32 H 0.92523 0.43947 0.14576 0.0
H33 H 0.86099 0.3898 0.15264 0.0
H34 H 0.91033 0.37312 0.21719 0.0
H35 H 0.97418 0.42272 0.21024 0.0
H36 H 0.10393 0.76988 0.12904 0.0
H37 H 0.16927 0.81869 0.13917 0.0
H38 H 0.22464 0.72589 0.15365 0.0
H39 H 0.15955 0.67753 0.14346 0.0
Pr40 Pr 0.58023 0.07685 0.52122 0.0
Pr41 Pr 0.48268 0.05076 0.5263 0.0
C42 C 0.65846 0.10884 0.51076 0.0
C43 C 0.68531 0.1468 0.50452 0.0
C44 C 0.72783 0.15459 0.50825 0.0
C45 C 0.75401 0.19081 0.50302 0.0
C46 C 0.7381 0.21994 0.49392 0.0
C47 C 0.69533 0.21196 0.49015 0.0
C48 C 0.66911 0.1757 0.49551 0.0
C49 C 0.55336 0.05829 0.56292 0.0
C50 C 0.52997 0.14749 0.52549 0.0
C51 C 0.40795 1.02126 0.54173 0.0
C52 C 0.37265 0.98725 0.53549 0.0
C53 C 0.35662 0.98077 0.51368 0.0
C54 C 0.32584 0.94659 0.50762 0.0
C55 C 0.31073 0.91797 0.52315 0.0
C56 C 0.32619 0.92489 0.54505 0.0
C57 C 0.35675 0.95926 0.55116 0.0
C58 C 0.49926 0.05006 0.48169 0.0
C59 C 0.53406 0.98095 0.52194 0.0
O60 O 0.62925 0.09068 0.4964 0.0
O61 O 0.64682 0.10667 0.53092 0.0
O62 O 0.5385 0.07787 0.54942 0.0
O63 O 0.58448 0.04881 0.55538 0.0
O64 O 0.49583 0.11997 0.52984 0.0
O65 O 0.56385 0.13809 0.52057 0.0
O66 O 0.44072 1.01298 0.55006 0.0
O67 O 0.41635 0.05038 0.52812 0.0
O68 O 0.52461 0.05878 0.49783 0.0
O69 O 0.46227 0.04124 0.48847 0.0
O70 O 0.56666 1.00821 0.51548 0.0
O71 O 0.50129 0.99057 0.52857 0.0
H72 H 0.74083 0.13263 0.51526 0.0
H73 H 0.78679 0.19581 0.50585 0.0
H74 H 0.68211 0.23391 0.48337 0.0
H75 H 0.63626 0.17031 0.49271 0.0
H76 H 0.36857 1.00157 0.50115 0.0
H77 H 0.31495 0.94192 0.49057 0.0
H78 H 0.3149 0.90356 0.55743 0.0
H79 H 0.3687 0.96355 0.56804 0.0
Pr80 Pr 0.50961 0.52107 0.81382 0.0
Pr81 Pr 0.53647 0.60158 0.83565 0.0
C82 C 0.50584 0.45715 0.78949 0.0
C83 C 0.53061 0.42985 0.79246 0.0
C84 C 0.55899 0.43536 0.8105 0.0
C85 C 0.58053 0.4081 0.81483 0.0
C86 C 0.57389 0.37474 0.80123 0.0
C87 C 0.54668 0.37015 0.78261 0.0
C88 C 0.52509 0.39758 0.77827 0.0
C89 C 0.50866 0.51988 0.85932 0.0
C90 C 0.61055 0.56468 0.82659 0.0
C91 C 0.54023 0.66238 0.86271 0.0
C92 C 0.50845 0.67949 0.87013 0.0
C93 C 0.47638 0.68229 0.85552 0.0
C94 C 0.44565 0.6976 0.8626 0.0
C95 C 0.44601 0.71023 0.88455 0.0
C96 C 0.47747 0.70605 0.89936 0.0
C97 C 0.50844 0.69079 0.89218 0.0
C98 C 0.5372 0.60155 0.78994 0.0
C99 C 0.43655 0.55907 0.82327 0.0
O100 O 0.52605 0.49229 0.7838 0.0
O101 O 0.48097 0.4572 0.80517 0.0
O102 O 0.53661 0.54168 0.8486 0.0
O103 O 0.48108 0.49594 0.84655 0.0
O104 O 0.60074 0.59162 0.83823 0.0
O105 O 0.58241 0.53753 0.81502 0.0
O106 O 0.53761 0.62734 0.86973 0.0
O107 O 0.54867 0.66651 0.84202 0.0
O108 O 0.50921 0.58057 0.80093 0.0
O109 O 0.56546 0.62546 0.80251 0.0
O110 O 0.44651 0.53508 0.8094 0.0
O111 O 0.46467 0.58254 0.83663 0.0
H112 H 0.56353 0.46018 0.82166 0.0
H113 H 0.60149 0.41253 0.82917 0.0
H114 H 0.54057 0.34442 0.77201 0.0
H115 H 0.50325 0.39298 0.7643 0.0
H116 H 0.4752 0.67296 0.83851 0.0
H117 H 0.4226 0.701 0.85053 0.0
H118 H 0.47856 0.71519 0.91639 0.0
H119 H 0.5325 0.68801 0.90381 0.0
P120 P 0.58522 1.0235 0.25025 0.0
H121 H 0.55441 0.94267 0.23417 0.0
H122 H 0.49112 0.90643 0.21431 0.0
H123 H 0.45194 1.0116 0.21093 0.0
H124 H 0.51549 0.04767 0.23129 0.0
H125 H 0.64859 0.04287 0.21849 0.0
H126 H 0.68863 0.10471 0.2041 0.0
H127 H 0.61738 0.16566 0.23961 0.0
H128 H 0.57767 0.10345 0.25415 0.0
H129 H 0.51342 0.98857 0.27582 0.0
H130 H 0.63109 0.07438 0.28608 0.0
O131 O 0.61747 0.99583 0.25167 0.0
H132 H 0.49934 0.9961 0.31408 0.0
H133 H 0.61677 0.0829 0.32436 0.0
C134 C 0.53992 0.998 0.23389 0.0
C135 C 0.53251 0.95812 0.22892 0.0
C136 C 0.49627 0.93741 0.21747 0.0
C137 C 0.46649 0.95612 0.21086 0.0
C138 C 0.4741 0.99624 0.21587 0.0
C139 C 0.51053 1.01698 0.22733 0.0
C140 C 0.61095 0.06877 0.23781 0.0
C141 C 0.64141 0.06951 0.22306 0.0
C142 C 0.66407 0.1049 0.2147 0.0
C143 C 0.65649 0.14024 0.22087 0.0
C144 C 0.62448 0.13907 0.23485 0.0
C145 C 0.6017 0.10354 0.24313 0.0
C146 C 0.57292 1.03162 0.27793 0.0
C147 C 0.53593 1.00964 0.28617 0.0
C148 C 0.52786 1.01404 0.30812 0.0
C149 C 0.55681 0.04029 0.32233 0.0
C150 C 0.59392 0.06221 0.31396 0.0
C151 C 0.60198 0.05769 0.29201 0.0
P152 P 0.56273 0.5732 0.55108 0.0
H153 H 0.59734 0.52866 0.51978 0.0
H154 H 0.58818 0.45913 0.51346 0.0
H155 H 0.48345 0.43254 0.55376 0.0
H156 H 0.49206 0.50254 0.55922 0.0
H157 H 0.61402 0.6439 0.53067 0.0
H158 H 0.60605 0.70811 0.52429 0.0
H159 H 0.47773 0.66566 0.53761 0.0
H160 H 0.48674 0.60088 0.54499 0.0
H161 H 0.56019 0.51707 0.58654 0.0
H162 H 0.54985 0.63453 0.58066 0.0
O163 O 0.6138 0.58366 0.55148 0.0
H164 H 0.55351 0.52105 0.62601 0.0
H165 H 0.54334 0.63843 0.61988 0.0
C166 C 0.54569 0.52191 0.54016 0.0
C167 C 0.57157 0.50808 0.52681 0.0
C168 C 0.56671 0.46764 0.52355 0.0
C169 C 0.53571 0.43885 0.53356 0.0
C170 C 0.50791 0.45285 0.54565 0.0
C171 C 0.51266 0.49347 0.54874 0.0
C172 C 0.55101 0.61628 0.53822 0.0
C173 C 0.58367 0.64759 0.53173 0.0
C174 C 0.57898 0.68517 0.52803 0.0
C175 C 0.5412 0.69359 0.5305 0.0
C176 C 0.50773 0.66153 0.53584 0.0
C177 C 0.51256 0.62369 0.53962 0.0
C178 C 0.55295 0.57449 0.58004 0.0
C179 C 0.5549 0.54316 0.59343 0.0
C180 C 0.55149 0.54556 0.61614 0.0
C181 C 0.54746 0.57991 0.62608 0.0
C182 C 0.54628 0.61149 0.61274 0.0
C183 C 0.5493 0.60893 0.59007 0.0
P184 P 0.03855 0.60449 0.8737 0.0
H185 H 0.0579 0.57588 0.83098 0.0
H186 H 0.12136 0.56379 0.81866 0.0
H187 H 0.17357 0.58296 0.88506 0.0
H188 H 0.11152 0.59566 0.89703 0.0
H189 H 1.00402 0.63413 0.83519 0.0
H190 H 0.93347 0.6219 0.8203 0.0
H191 H 0.89466 0.52556 0.86406 0.0
H192 H 0.96534 0.53749 0.87858 0.0
H193 H 0.02865 0.65371 0.91049 0.0
H194 H 0.03171 0.53489 0.90001 0.0
O195 O 0.05504 0.65283 0.87096 0.0
H196 H 0.02388 0.64299 0.94976 0.0
H197 H 0.02542 0.52335 0.93925 0.0
C198 C 0.07947 0.58573 0.86503 0.0
C199 C 0.08261 0.5763 0.84293 0.0
C200 C 0.11884 0.56947 0.83591 0.0
C201 C 0.15249 0.57275 0.8509 0.0
C202 C 0.14833 0.58056 0.8731 0.0
C203 C 0.11248 0.58735 0.88002 0.0
C204 C 0.98986 0.5874 0.8584 0.0
C205 C 0.98054 0.60975 0.84121 0.0
C206 C 0.9401 0.60288 0.8328 0.0
C207 C 0.90825 0.57336 0.84137 0.0
C208 C 0.91839 0.5486 0.85712 0.0
C209 C 0.95892 0.55554 0.86554 0.0
C210 C 0.03119 0.59527 0.90241 0.0
C211 C 0.02792 0.62516 0.91663 0.0
C212 C 0.02484 0.61887 0.9391 0.0
C213 C 0.02457 0.58236 0.94775 0.0
C214 C 0.02638 0.55204 0.93325 0.0
C215 C 0.02966 0.55847 0.91079 0.0
P216 P 0.07225 0.54314 0.42616 0.0
H217 H 0.10517 0.56185 0.47109 0.0
H218 H 0.13747 0.62351 0.49088 0.0
H219 H 0.11425 0.68675 0.4339 0.0
H220 H 0.08044 0.62519 0.41474 0.0
H221 H 1.01586 0.47346 0.4061 0.0
H222 H 0.95454 0.42634 0.41837 0.0
H223 H 0.96215 0.49561 0.47766 0.0
H224 H 0.02367 0.54287 0.46521 0.0
H225 H 0.12955 0.54853 0.39142 0.0
H226 H 1.00685 0.55788 0.39743 0.0
O227 O 0.10697 0.51859 0.43041 0.0
H228 H 0.12439 0.55932 0.35209 0.0
H229 H 1.00106 0.568 0.35795 0.0
C230 C 0.09056 0.58881 0.44142 0.0
C231 C 0.10641 0.58905 0.46304 0.0
C232 C 0.12526 0.6244 0.47425 0.0
C233 C 0.12906 0.66031 0.46394 0.0
C234 C 0.11162 0.65983 0.44251 0.0
C235 C 0.09242 0.62444 0.43141 0.0
C236 C 0.02409 0.51199 0.43456 0.0
C237 C 1.0039 0.47898 0.42154 0.0
C238 C 0.96874 0.45205 0.42857 0.0
C239 C 0.95334 0.45727 0.44897 0.0
C240 C 0.9734 0.49067 0.46192 0.0
C241 C 1.00851 0.51783 0.45476 0.0
C242 C 0.06826 0.55157 0.39721 0.0
C243 C 0.10135 0.55259 0.38422 0.0
C244 C 0.09828 0.55862 0.36171 0.0
C245 C 0.06214 0.5641 0.35181 0.0
C246 C 0.02938 0.56403 0.36505 0.0
C247 C 0.0325 0.55795 0.38758 0.0
P248 P 0.50286 0.9865 0.79115 0.0
H249 H 0.58676 1.02266 0.80959 0.0
H250 H 0.62223 0.09005 0.82173 0.0
H251 H 0.50853 0.12064 0.81274 0.0
H252 H 0.47382 0.0543 0.79948 0.0
H253 H 0.45551 0.90489 0.78845 0.0
H254 H 0.40439 0.8647 0.81116 0.0
H255 H 0.40447 0.96665 0.84989 0.0
H256 H 0.45538 1.00688 0.82707 0.0
H257 H 0.53183 0.05338 0.76258 0.0
H258 H 0.44997 0.93627 0.75625 0.0
O259 O 0.53643 0.96019 0.79145 0.0
H260 H 0.52306 0.06162 0.72353 0.0
H261 H 0.44225 0.9443 0.71675 0.0
C262 C 0.52731 1.03321 0.80425 0.0
C263 C 0.56925 0.04361 0.81072 0.0
C264 C 0.58953 0.08198 0.81764 0.0
C265 C 0.56779 0.10999 0.81855 0.0
C266 C 0.52562 0.09916 0.81272 0.0
C267 C 0.50574 0.06128 0.80526 0.0
C268 C 0.45911 0.95923 0.80555 0.0
C269 C 0.44324 0.91907 0.80112 0.0
C270 C 0.41376 0.89602 0.81417 0.0
C271 C 0.40004 0.91256 0.83226 0.0
C272 C 0.41425 0.95313 0.83599 0.0
C273 C 0.44356 0.97626 0.82277 0.0
C274 C 0.49072 0.99442 0.76276 0.0
C275 C 0.51094 1.0297 0.75307 0.0
C276 C 0.50603 1.03449 0.73059 0.0
C277 C 0.48171 1.00372 0.71717 0.0
C278 C 0.46104 0.96854 0.7268 0.0
C279 C 0.4654 0.964 0.74944 0.0
P280 P 0.51769 0.50964 0.09903 0.0
H281 H 0.55808 0.52261 0.14296 0.0
H282 H 0.6308 0.54328 0.15541 0.0
H283 H 0.66364 0.57237 0.08898 0.0
H284 H 0.59182 0.55213 0.07683 0.0
H285 H 0.43814 0.46251 0.11163 0.0
H286 H 0.37716 0.47793 0.12325 0.0
H287 H 0.44131 0.60111 0.12311 0.0
H288 H 0.50292 0.58512 0.11114 0.0
H289 H 0.50766 0.45188 0.06327 0.0
H290 H 0.51571 0.57433 0.07008 0.0
O291 O 0.51309 0.46305 0.10495 0.0
H292 H 0.5036 0.45651 0.02349 0.0
H293 H 0.5116 0.57918 0.03003 0.0
C294 C 0.56908 0.53625 0.10901 0.0
C295 C 0.5809 0.5347 0.13124 0.0
C296 C 0.62257 0.54606 0.13827 0.0
C297 C 0.65327 0.55924 0.12318 0.0
C298 C 0.64104 0.56288 0.10116 0.0
C299 C 0.59953 0.55128 0.09415 0.0
C300 C 0.47553 0.5226 0.11098 0.0
C301 C 0.43962 0.49287 0.11456 0.0
C302 C 0.40454 0.50177 0.12126 0.0
C303 C 0.40418 0.5408 0.12435 0.0
C304 C 0.44039 0.57073 0.12084 0.0
C305 C 0.47576 0.56167 0.11419 0.0
C306 C 0.51181 0.51275 0.06966 0.0
C307 C 0.50814 0.47973 0.05623 0.0
C308 C 0.50569 0.48237 0.03344 0.0
C309 C 0.50723 0.5182 0.02361 0.0
C310 C 0.51062 0.55124 0.03713 0.0
C311 C 0.51265 0.54845 0.05999 0.0
H312 H 0.15887 0.51633 0.1668 0.0
H313 H 0.37204 0.59916 0.10905 0.0
H314 H 0.18566 0.61892 0.12702 0.0
H315 H 0.34738 0.50222 0.15299 0.0
H316 H 0.30535 0.60878 0.11648 0.0
H317 H 0.22856 0.51201 0.16261 0.0
C318 C 0.17938 0.53806 0.15723 0.0
C319 C 0.16613 0.56796 0.1472 0.0
C320 C 0.31465 0.58554 0.12459 0.0
C321 C 0.24637 0.56311 0.14227 0.0
C322 C 0.35294 0.58019 0.12048 0.0
C323 C 0.36544 0.5496 0.13025 0.0
C324 C 0.28849 0.5601 0.13857 0.0
C325 C 0.3389 0.52572 0.14471 0.0
C326 C 0.2193 0.53559 0.15486 0.0
C327 C 0.19436 0.5953 0.13505 0.0
N328 N 0.30176 0.53133 0.14831 0.0
N329 N 0.23298 0.59211 0.13285 0.0
H330 H 0.73492 0.26239 0.45696 0.0
H331 H 0.94423 0.42746 0.49021 0.0
H332 H 0.8055 0.26475 0.51787 0.0
H333 H 0.88225 0.41688 0.42615 0.0
H334 H 0.88897 0.37279 0.50226 0.0
H335 H 0.78402 0.32357 0.44704 0.0
C336 C 0.76051 0.27598 0.46835 0.0
C337 C 0.76626 0.25824 0.48821 0.0
C338 C 0.8873 0.38258 0.48561 0.0
C339 C 0.82276 0.32815 0.47689 0.0
C340 C 0.9187 0.41402 0.47877 0.0
C341 C 0.91802 0.42666 0.45709 0.0
C342 C 0.85484 0.36364 0.47071 0.0
C343 C 0.88435 0.40774 0.44291 0.0
C344 C 0.78866 0.31079 0.46262 0.0
C345 C 0.80022 0.27702 0.50223 0.0
N346 N 0.85423 0.37711 0.44993 0.0
N347 N 0.8272 0.31084 0.49628 0.0
H348 H 0.46146 0.77457 0.91214 0.0
H349 H 0.33551 0.84573 0.82712 0.0
H350 H 0.36456 0.69782 0.87108 0.0
H351 H 0.41685 0.91923 0.87653 0.0
H352 H 0.32351 0.79145 0.85226 0.0
H353 H 0.42477 0.82372 0.91055 0.0
C354 C 0.43177 0.76737 0.90336 0.0
C355 C 0.41728 0.73277 0.89065 0.0
C356 C 0.34287 0.81978 0.85797 0.0
C357 C 0.376 0.79 0.88789 0.0
C358 C 0.34968 0.85081 0.84356 0.0
C359 C 0.37874 0.88643 0.84938 0.0
C360 C 0.36622 0.82436 0.87797 0.0
C361 C 0.39514 0.89189 0.87108 0.0
C362 C 0.41078 0.79577 0.90233 0.0
C363 C 0.37813 0.72511 0.88004 0.0
N364 N 0.38979 0.86077 0.88435 0.0
N365 N 0.35955 0.75409 0.87818 0.0
H366 H 0.91964 0.63135 0.12544 0.0
H367 H 0.68827 0.51611 0.15102 0.0
H368 H 0.88758 0.52773 0.1643 0.0
H369 H 0.71994 0.61678 0.10989 0.0
H370 H 0.76126 0.52315 0.15854 0.0
H371 H 0.84712 0.62913 0.12166 0.0
C372 C 0.89744 0.60819 0.13327 0.0
C373 C 0.90992 0.57961 0.14516 0.0
C374 C 0.75229 0.54388 0.14798 0.0
C375 C 0.82645 0.5769 0.14086 0.0
C376 C 0.7105 0.54011 0.14383 0.0
C377 C 0.69769 0.56583 0.12973 0.0
C378 C 0.78175 0.57362 0.13799 0.0
C379 C 0.7282 0.59591 0.12061 0.0
C380 C 0.85594 0.60695 0.13109 0.0
C381 C 0.87954 0.55037 0.15494 0.0
N382 N 0.76867 0.59885 0.12482 0.0
N383 N 0.83932 0.54973 0.15252 0.0
H384 H 0.24203 0.90582 0.49543 0.0
H385 H 0.19935 0.67408 0.49059 0.0
H386 H 0.3111 0.84418 0.5349 0.0
H387 H 0.11458 0.73263 0.46214 0.0
H388 H 0.24066 0.73618 0.50675 0.0
H389 H 0.19546 0.84301 0.4825 0.0
C390 C 0.24731 0.87907 0.50142 0.0
C391 C 0.28055 0.88026 0.51625 0.0
C392 C 0.21286 0.73543 0.4971 0.0
C393 C 0.22744 0.80829 0.50149 0.0
C394 C 0.18898 0.69981 0.48795 0.0
C395 C 0.1532 0.69785 0.47492 0.0
C396 C 0.20129 0.76963 0.49307 0.0
C397 C 0.14217 0.73265 0.47175 0.0
C398 C 0.22062 0.84324 0.49412 0.0
C399 C 0.28567 0.84469 0.52364 0.0
N400 N 0.16622 0.76709 0.48064 0.0
N401 N 0.25962 0.8102 0.51607 0.0
H402 H 0.5776 0.34515 0.84203 0.0
H403 H 0.62783 0.15625 0.79516 0.0
H404 H 0.60922 0.33104 0.77547 0.0
H405 H 0.55392 0.15809 0.85028 0.0
H406 H 0.64661 0.22788 0.79482 0.0
H407 H 0.59449 0.28496 0.85145 0.0
C408 C 0.58916 0.32995 0.82952 0.0
C409 C 0.59137 0.3427 0.80782 0.0
C410 C 0.62733 0.21262 0.80741 0.0
C411 C 0.6103 0.27373 0.8185 0.0
C412 C 0.61692 0.17191 0.80772 0.0
C413 C 0.58903 0.15163 0.82263 0.0
C414 C 0.60976 0.23279 0.82218 0.0
C415 C 0.57527 0.17294 0.83844 0.0
C416 C 0.59861 0.29553 0.83491 0.0
C417 C 0.60625 0.32169 0.79227 0.0
N418 N 0.58531 0.21247 0.83761 0.0
N419 N 0.61463 0.28786 0.79784 0.0
H420 H 0.5912 0.94651 0.50588 0.0
H421 H 0.48733 0.72953 0.54985 0.0
H422 H 0.47815 0.91675 0.53925 0.0
H423 H 0.58711 0.75575 0.50623 0.0
H424 H 0.48456 0.79731 0.54725 0.0
H425 H 0.59178 0.87782 0.50733 0.0
C426 C 0.56638 0.92572 0.51352 0.0
C427 C 0.53452 0.93826 0.52239 0.0
C428 C 0.50708 0.78823 0.53823 0.0
C429 C 0.53522 0.85815 0.52429 0.0
C430 C 0.50856 0.74901 0.53956 0.0
C431 C 0.53768 0.73558 0.52836 0.0
C432 C 0.53505 0.8153 0.52571 0.0
C433 C 0.56454 0.76377 0.51568 0.0
C434 C 0.56674 0.88618 0.51432 0.0
C435 C 0.50341 0.90911 0.53206 0.0
N436 N 0.56265 0.80169 0.51483 0.0
N437 N 0.50466 0.87094 0.53281 0.0
H438 H 0.64266 0.50536 0.81423 0.0
H439 H 0.87505 0.63443 0.83781 0.0
H440 H 0.67797 0.62437 0.8393 0.0
H441 H 0.84169 0.50847 0.8333 0.0
H442 H 0.80295 0.63192 0.83225 0.0
H443 H 0.71537 0.50662 0.81571 0.0
C444 C 0.66564 0.53178 0.81993 0.0
C445 C 0.65418 0.56479 0.82674 0.0
C446 C 0.81134 0.60479 0.83234 0.0
C447 C 0.73718 0.56647 0.82826 0.0
C448 C 0.85263 0.6062 0.83528 0.0
C449 C 0.86458 0.5716 0.83595 0.0
C450 C 0.78147 0.56852 0.82994 0.0
C451 C 0.83384 0.53585 0.83304 0.0
C452 C 0.70707 0.53241 0.82083 0.0
C453 C 0.68527 0.59816 0.83403 0.0
N454 N 0.79365 0.53521 0.83016 0.0
N455 N 0.72523 0.59816 0.83453 0.0
H456 H 0.28043 0.77628 0.1382 0.0
H457 H 0.38848 0.96114 0.21681 0.0
H458 H 0.21336 0.84265 0.17256 0.0
H459 H 0.45492 0.89887 0.1789 0.0
H460 H 0.32415 0.9202 0.19955 0.0
H461 H 0.34468 0.82242 0.15201 0.0
C462 C 0.27922 0.8006 0.14865 0.0
C463 C 0.24141 0.80546 0.15432 0.0
C464 C 0.35282 0.91564 0.19492 0.0
C465 C 0.315 0.85862 0.17016 0.0
C466 C 0.38963 0.93919 0.20467 0.0
C467 C 0.42726 0.93333 0.19942 0.0
C468 C 0.35355 0.88592 0.17981 0.0
C469 C 0.42667 0.90402 0.18377 0.0
C470 C 0.31594 0.82707 0.15645 0.0
C471 C 0.24176 0.83791 0.16762 0.0
N472 N 0.39047 0.88135 0.17463 0.0
N473 N 0.27795 0.86309 0.17521 0.0
H474 H 0.59498 0.2136 0.51968 0.0
H475 H 0.46796 0.37229 0.53567 0.0
H476 H 0.4668 0.18101 0.53338 0.0
H477 H 0.59862 0.40354 0.5281 0.0
H478 H 0.46625 0.30309 0.53391 0.0
H479 H 0.59595 0.28264 0.52144 0.0
C480 C 0.56689 0.2207 0.52305 0.0
C481 C 0.53072 0.19055 0.52639 0.0
C482 C 0.49532 0.32509 0.53258 0.0
C483 C 0.53169 0.27119 0.5284 0.0
C484 C 0.49646 0.36509 0.53371 0.0
C485 C 0.53353 0.39515 0.53199 0.0
C486 C 0.53146 0.31403 0.52966 0.0
C487 C 0.56893 0.38246 0.52911 0.0
C488 C 0.56752 0.2605 0.52407 0.0
C489 C 0.49555 0.20261 0.53069 0.0
N490 N 0.56695 0.34348 0.52805 0.0
N491 N 0.49693 0.24152 0.53153 0.0
H492 H 0.36525 0.51109 0.80267 0.0
H493 H 0.22564 0.6256 0.86132 0.0
H494 H 0.40961 0.6111 0.84672 0.0
H495 H 0.17233 0.51887 0.82374 0.0
H496 H 0.29352 0.62295 0.85232 0.0
H497 H 0.29467 0.51497 0.80678 0.0
C498 C 0.36028 0.53393 0.81305 0.0
C499 C 0.39355 0.56075 0.8244 0.0
C500 C 0.26717 0.59997 0.84595 0.0
C501 C 0.31331 0.56543 0.82905 0.0
C502 C 0.22831 0.60146 0.85115 0.0
C503 C 0.19333 0.57204 0.8436 0.0
C504 C 0.27155 0.56869 0.83308 0.0
C505 C 0.19861 0.54202 0.82999 0.0
C506 C 0.32005 0.53609 0.8154 0.0
C507 C 0.38524 0.58969 0.83765 0.0
N508 N 0.23713 0.54085 0.82531 0.0
N509 N 0.34621 0.59117 0.83958 0.0
H510 H 0.83761 0.36523 0.22283 0.0
H511 H 0.68793 0.15899 0.18047 0.0
H512 H 0.83692 0.31815 0.15743 0.0
H513 H 0.68768 0.20778 0.24537 0.0
H514 H 0.73847 0.21928 0.17067 0.0
H515 H 0.77881 0.31015 0.23034 0.0
C516 C 0.825 0.34334 0.21002 0.0
C517 C 0.84249 0.34615 0.18953 0.0
C518 C 0.72709 0.21694 0.18699 0.0
C519 C 0.77497 0.28291 0.19801 0.0
C520 C 0.69833 0.18245 0.19263 0.0
C521 C 0.6837 0.17814 0.21384 0.0
C522 C 0.74157 0.24735 0.2027 0.0
C523 C 0.6978 0.20982 0.22879 0.0
C524 C 0.79129 0.31196 0.21429 0.0
C525 C 0.82434 0.31729 0.17342 0.0
N526 N 0.72616 0.24288 0.223 0.0
N527 N 0.79183 0.28671 0.17807 0.0
H528 H 0.06294 0.50928 0.08007 0.0
H529 H 0.98156 0.61055 0.97783 0.0
H530 H 0.99655 0.59517 0.08687 0.0
H531 H 0.06613 0.54081 0.97273 0.0
H532 H 0.98312 0.60232 0.0175 0.0
H533 H 0.06085 0.51745 0.04038 0.0
C534 C 0.04791 0.52987 0.07318 0.0
C535 C 0.02982 0.55153 0.08671 0.0
C536 C 1.00129 0.5888 0.00768 0.0
C537 C 0.02716 0.56097 0.04133 0.0
C538 C 1.00055 0.5936 0.98501 0.0
C539 C 0.02378 0.57639 0.97183 0.0
C540 C 0.02529 0.56648 0.01729 0.0
C541 C 0.04722 0.55415 0.98211 0.0
C542 C 0.04676 0.53456 0.05053 0.0
C543 C 1.01085 0.57789 0.07697 0.0
N544 N 0.04737 0.54987 0.00419 0.0
N545 N 1.0099 0.58179 0.05484 0.0
H546 H 0.57472 0.06127 0.46465 0.0
H547 H 0.48423 0.04044 0.34007 0.0
H548 H 0.44624 0.03913 0.44592 0.0
H549 H 0.61067 0.04854 0.35831 0.0
H550 H 0.47076 0.04391 0.3788 0.0
H551 H 0.5897 0.06089 0.4258 0.0
C552 C 0.54976 0.05654 0.45235 0.0
C553 C 0.50927 0.05035 0.45845 0.0
C554 C 0.50149 0.04499 0.37435 0.0
C555 C 0.52594 0.0497 0.41407 0.0
C556 C 0.50917 0.04282 0.35221 0.0
C557 C 0.54862 0.044 0.34585 0.0
C558 C 0.53346 0.04844 0.39036 0.0
C559 C 0.57988 0.04793 0.36237 0.0
C560 C 0.55824 0.05619 0.43019 0.0
C561 C 0.47792 0.04401 0.4419 0.0
N562 N 0.57161 0.04991 0.38385 0.0
N563 N 0.48691 0.04387 0.42048 0.0
H564 H 0.48496 0.54765 0.76215 0.0
H565 H 0.58874 0.64154 0.65315 0.0
H566 H 0.59115 0.64821 0.76287 0.0
H567 H 0.50338 0.52642 0.65424 0.0
H568 H 0.58604 0.64719 0.69295 0.0
H569 H 0.48733 0.54202 0.72228 0.0
C570 C 0.50872 0.56863 0.75389 0.0
C571 C 0.53791 0.59848 0.76581 0.0
C572 C 0.56792 0.62067 0.6845 0.0
C573 C 0.54071 0.5923 0.72018 0.0
C574 C 0.56923 0.61751 0.66176 0.0
C575 C 0.54613 0.58348 0.65031 0.0
C576 C 0.54302 0.58973 0.69597 0.0
C577 C 0.5219 0.55306 0.6624 0.0
C578 C 0.51012 0.56532 0.73114 0.0
C579 C 0.56806 0.62478 0.75429 0.0
N580 N 0.52082 0.55697 0.68454 0.0
N581 N 0.5686 0.62116 0.73211 0.0
H582 H 0.56914 1.00252 0.58914 0.0
H583 H 0.46934 0.0637 0.69271 0.0
H584 H 0.49949 0.08658 0.58515 0.0
H585 H 0.49572 0.95269 0.68708 0.0
H586 H 0.48055 0.07371 0.6536 0.0
H587 H 0.54379 0.98482 0.62549 0.0
C588 C 0.5484 1.01716 0.59594 0.0
C589 C 0.53665 0.04628 0.58433 0.0
C590 C 0.48319 0.04687 0.66085 0.0
C591 C 0.50775 1.0264 0.62583 0.0
C592 C 0.47688 0.04121 0.68312 0.0
C593 C 0.48174 1.00739 0.69307 0.0
C594 C 0.49524 1.01886 0.64861 0.0
C595 C 0.49142 0.97905 0.67998 0.0
C596 C 0.53375 1.00689 0.61659 0.0
C597 C 0.50941 0.0641 0.59371 0.0
N598 N 0.49849 0.9857 0.65847 0.0
N599 N 0.49625 0.05423 0.61409 0.0
H600 H 0.45108 0.47384 0.88438 0.0
H601 H 0.55532 0.57488 -0.00138 0.0
H602 H 0.5642 0.56701 0.88911 0.0
H603 H 0.45689 0.4676 0.99337 0.0
H604 H 0.55523 0.57671 0.95851 0.0
H605 H 0.44938 0.47492 0.92431 0.0
C606 C 0.47559 0.49454 0.89386 0.0
C607 C 0.50785 0.52035 0.88346 0.0
C608 C 0.53362 0.55282 0.96615 0.0
C609 C 0.50602 0.52194 0.9292 0.0
C610 C 0.53345 0.55191 0.98903 0.0
C611 C 0.50616 0.52095 -0.00065 0.0
C612 C 0.50608 0.52273 0.95351 0.0
C613 C 0.47879 0.49175 0.98611 0.0
C614 C 0.47461 0.49515 0.91665 0.0
C615 C 0.53873 0.54666 0.89651 0.0
N616 N 0.47945 0.49337 0.96391 0.0
N617 N 0.53704 0.54683 0.91873 0.0
H618 H 0.07911 0.55025 0.21095 0.0
H619 H 0.02777 0.61498 0.32982 0.0
H620 H 0.02065 0.64115 0.22168 0.0
H621 H 0.08849 0.52572 0.31896 0.0
H622 H 0.02295 0.6237 0.29023 0.0
H623 H 0.08118 0.53966 0.25045 0.0
C624 C 0.06669 0.56796 0.22165 0.0
C625 C 0.04983 0.59672 0.2131 0.0
C626 C 0.03732 0.60219 0.29651 0.0
C627 C 0.05206 0.58483 0.25829 0.0
C628 C 0.03988 0.59705 0.31912 0.0
C629 C 0.05867 0.56963 0.32777 0.0
C630 C 0.05358 0.57972 0.28239 0.0
C631 C 0.0743 0.5476 0.31308 0.0
C632 C 0.06787 0.56192 0.24419 0.0
C633 C 0.03403 0.61876 0.22764 0.0
N634 N 0.07141 0.55313 0.29115 0.0
N635 N 0.03559 0.6124 0.24954 0.0
loop_
_geom_bond_atom_site_label_1
_geom_bond_atom_site_label_2
_geom_bond_distance
_geom_bond_site_symmetry_2
_ccdc_geom_bond_type
Pr0 C2 2.880 . S
Pr0 O20 2.562 . S
Pr0 O21 2.490 . S
Pr0 O22 2.695 1_655 S
Pr0 O23 2.512 . S
Pr0 O25 2.437 . S
Pr0 O28 2.432 . S
Pr0 O30 2.438 1_655 S
Pr1 C11 2.880 . S
Pr1 O22 2.436 . S
Pr1 O24 2.438 1_455 S
Pr1 O26 2.562 . S
Pr1 O27 2.490 . S
Pr1 O28 2.693 1_455 S
Pr1 O29 2.512 . S
Pr1 O31 2.437 . S
C2 Pr0 2.880 . S
C2 C3 1.491 . S
C2 O20 1.254 . S
C2 O21 1.225 . S
C3 C2 1.491 . S
C3 C4 1.392 . S
C3 C8 1.356 . S
C4 C3 1.392 . S
C4 C5 1.368 . S
C4 H32 0.929 . S
C5 C4 1.368 . S
C5 C6 1.386 . S
C5 H33 0.929 . S
C6 C5 1.386 . S
C6 C7 1.373 . S
C7 C6 1.373 . S
C7 C8 1.409 . S
C7 H34 0.931 . S
C8 C3 1.356 . S
C8 C7 1.409 . S
C8 H35 0.930 . S
C9 O22 1.270 . S
C9 O23 1.248 1_455 S
C10 O24 1.267 . S
C10 O25 1.278 . S
C11 Pr1 2.880 . S
C11 C12 1.491 . S
C11 O26 1.254 . S
C11 O27 1.225 . S
C12 C11 1.491 . S
C12 C13 1.392 . S
C12 C17 1.356 . S
C13 C12 1.392 . S
C13 C14 1.368 . S
C13 H36 0.929 . S
C14 C13 1.368 . S
C14 C15 1.386 . S
C14 H37 0.929 . S
C15 C14 1.386 . S
C15 C16 1.373 . S
C16 C15 1.373 . S
C16 C17 1.409 . S
C16 H38 0.931 . S
C17 C12 1.356 . S
C17 C16 1.409 . S
C17 H39 0.930 . S
C18 O28 1.268 1_455 S
C18 O29 1.248 . S
C19 O30 1.267 . S
C19 O31 1.278 . S
O20 Pr0 2.562 . S
O20 C2 1.254 . S
O21 Pr0 2.490 . S
O21 C2 1.225 . S
O22 Pr0 2.695 1_455 S
O22 Pr1 2.436 . S
O22 C9 1.270 . S
O23 Pr0 2.512 . S
O23 C9 1.248 1_655 S
O24 Pr1 2.438 1_655 S
O24 C10 1.267 . S
O25 Pr0 2.437 . S
O25 C10 1.278 . S
O26 Pr1 2.562 . S
O26 C11 1.254 . S
O27 Pr1 2.490 . S
O27 C11 1.225 . S
O28 Pr0 2.432 . S
O28 Pr1 2.693 1_655 S
O28 C18 1.268 1_655 S
O29 Pr1 2.512 . S
O29 C18 1.248 . S
O30 Pr0 2.438 1_455 S
O30 C19 1.267 . S
O31 Pr1 2.437 . S
O31 C19 1.278 . S
H32 C4 0.929 . S
H33 C5 0.929 . S
H34 C7 0.931 . S
H35 C8 0.930 . S
H36 C13 0.929 . S
H37 C14 0.929 . S
H38 C16 0.931 . S
H39 C17 0.930 . S
Pr40 C42 2.880 . S
Pr40 O60 2.562 . S
Pr40 O61 2.490 . S
Pr40 O62 2.695 . S
Pr40 O63 2.512 . S
Pr40 O65 2.437 . S
Pr40 O68 2.436 . S
Pr40 O70 2.438 1_545 S
Pr41 C51 2.880 . S
Pr41 O62 2.436 1_565 S
Pr41 O64 2.438 1_565 S
Pr41 O66 2.562 . S
Pr41 O67 2.490 . S
Pr41 O68 2.695 1_565 S
Pr41 O69 2.512 . S
Pr41 O71 2.437 . S
C42 Pr40 2.880 . S
C42 C43 1.491 . S
C42 O60 1.254 . S
C42 O61 1.225 . S
C43 C42 1.491 . S
C43 C44 1.392 . S
C43 C48 1.356 . S
C44 C43 1.392 . S
C44 C45 1.368 . S
C44 H72 0.929 . S
C45 C44 1.368 . S
C45 C46 1.386 . S
C45 H73 0.929 . S
C46 C45 1.386 . S
C46 C47 1.373 . S
C47 C46 1.373 . S
C47 C48 1.409 . S
C47 H74 0.931 . S
C48 C43 1.356 . S
C48 C47 1.409 . S
C48 H75 0.930 . S
C49 O62 1.270 . S
C49 O63 1.248 . S
C50 O64 1.267 . S
C50 O65 1.278 . S
C51 Pr41 2.880 . S
C51 C52 1.491 . S
C51 O66 1.254 . S
C51 O67 1.225 . S
C52 C51 1.491 . S
C52 C53 1.392 . S
C52 C57 1.356 . S
C53 C52 1.392 . S
C53 C54 1.368 . S
C53 H76 0.929 . S
C54 C53 1.368 . S
C54 C55 1.386 . S
C54 H77 0.929 . S
C55 C54 1.386 . S
C55 C56 1.373 . S
C56 C55 1.373 . S
C56 C57 1.409 . S
C56 H78 0.931 . S
C57 C52 1.356 . S
C57 C56 1.409 . S
C57 H79 0.930 . S
C58 O68 1.270 . S
C58 O69 1.248 1_545 S
C59 O70 1.267 . S
C59 O71 1.278 . S
O60 Pr40 2.562 . S
O60 C42 1.254 . S
O61 Pr40 2.490 . S
O61 C42 1.225 . S
O62 Pr40 2.695 . S
O62 Pr41 2.436 1_545 S
O62 C49 1.270 . S
O63 Pr40 2.512 . S
O63 C49 1.248 . S
O64 Pr41 2.438 1_545 S
O64 C50 1.267 . S
O65 Pr40 2.437 . S
O65 C50 1.278 . S
O66 Pr41 2.562 . S
O66 C51 1.254 . S
O67 Pr41 2.490 . S
O67 C51 1.225 . S
O68 Pr40 2.436 . S
O68 Pr41 2.695 1_545 S
O68 C58 1.270 . S
O69 Pr41 2.512 . S
O69 C58 1.248 1_565 S
O70 Pr40 2.438 1_565 S
O70 C59 1.267 . S
O71 Pr41 2.437 . S
O71 C59 1.278 . S
H72 C44 0.929 . S
H73 C45 0.929 . S
H74 C47 0.931 . S
H75 C48 0.930 . S
H76 C53 0.929 . S
H77 C54 0.929 . S
H78 C56 0.931 . S
H79 C57 0.930 . S
Pr80 C82 2.880 . S
Pr80 O100 2.562 . S
Pr80 O101 2.490 . S
Pr80 O102 2.695 . S
Pr80 O103 2.512 . S
Pr80 O105 2.437 . S
Pr80 O108 2.436 . S
Pr80 O110 2.438 . S
Pr81 C91 2.880 . S
Pr81 O102 2.436 . S
Pr81 O104 2.438 . S
Pr81 O106 2.562 . S
Pr81 O107 2.490 . S
Pr81 O108 2.695 . S
Pr81 O109 2.512 . S
Pr81 O111 2.437 . S
C82 Pr80 2.880 . S
C82 C83 1.491 . S
C82 O100 1.254 . S
C82 O101 1.225 . S
C83 C82 1.491 . S
C83 C84 1.392 . S
C83 C88 1.356 . S
C84 C83 1.392 . S
C84 C85 1.368 . S
C84 H112 0.929 . S
C85 C84 1.368 . S
C85 C86 1.386 . S
C85 H113 0.929 . S
C86 C85 1.386 . S
C86 C87 1.373 . S
C87 C86 1.373 . S
C87 C88 1.409 . S
C87 H114 0.931 . S
C88 C83 1.356 . S
C88 C87 1.409 . S
C88 H115 0.930 . S
C89 O102 1.270 . S
C89 O103 1.248 . S
C90 O104 1.267 . S
C90 O105 1.278 . S
C91 Pr81 2.880 . S
C91 C92 1.491 . S
C91 O106 1.254 . S
C91 O107 1.225 . S
C92 C91 1.491 . S
C92 C93 1.392 . S
C92 C97 1.356 . S
C93 C92 1.392 . S
C93 C94 1.368 . S
C93 H116 0.929 . S
C94 C93 1.368 . S
C94 C95 1.386 . S
C94 H117 0.929 . S
C95 C94 1.386 . S
C95 C96 1.373 . S
C96 C95 1.373 . S
C96 C97 1.409 . S
C96 H118 0.931 . S
C97 C92 1.356 . S
C97 C96 1.409 . S
C97 H119 0.930 . S
C98 O108 1.270 . S
C98 O109 1.248 . S
C99 O110 1.267 . S
C99 O111 1.278 . S
O100 Pr80 2.562 . S
O100 C82 1.254 . S
O101 Pr80 2.490 . S
O101 C82 1.225 . S
O102 Pr80 2.695 . S
O102 Pr81 2.436 . S
O102 C89 1.270 . S
O103 Pr80 2.512 . S
O103 C89 1.248 . S
O104 Pr81 2.438 . S
O104 C90 1.267 . S
O105 Pr80 2.437 . S
O105 C90 1.278 . S
O106 Pr81 2.562 . S
O106 C91 1.254 . S
O107 Pr81 2.490 . S
O107 C91 1.225 . S
O108 Pr80 2.436 . S
O108 Pr81 2.695 . S
O108 C98 1.270 . S
O109 Pr81 2.512 . S
O109 C98 1.248 . S
O110 Pr80 2.438 . S
O110 C99 1.267 . S
O111 Pr81 2.437 . S
O111 C99 1.278 . S
H112 C84 0.929 . S
H113 C85 0.929 . S
H114 C87 0.931 . S
H115 C88 0.930 . S
H116 C93 0.929 . S
H117 C94 0.929 . S
H118 C96 0.931 . S
H119 C97 0.930 . S
P120 O131 1.490 1_545 S
P120 C134 1.812 1_545 S
P120 C140 1.803 . S
P120 C146 1.819 . S
H121 C135 0.941 . S
H122 C136 0.939 . S
H123 C138 0.940 . S
H124 C139 0.940 1_545 S
H125 C141 0.939 . S
H126 C142 0.942 . S
H127 C144 0.940 . S
H128 C145 0.939 . S
H129 C147 0.941 . S
H130 C151 0.939 . S
O131 P120 1.490 1_565 S
H132 C148 0.939 . S
H133 C150 0.940 . S
C134 P120 1.812 1_565 S
C134 C135 1.389 . S
C134 C139 1.391 . S
C135 H121 0.941 . S
C135 C134 1.389 . S
C135 C136 1.397 . S
C136 H122 0.939 . S
C136 C135 1.397 . S
C136 C137 1.378 . S
C137 C136 1.378 . S
C137 C138 1.378 . S
C138 H123 0.940 . S
C138 C137 1.378 . S
C138 C139 1.396 . S
C139 H124 0.940 1_565 S
C139 C134 1.391 . S
C139 C138 1.396 . S
C140 P120 1.803 . S
C140 C141 1.378 . S
C140 C145 1.400 . S
C141 H125 0.939 . S
C141 C140 1.378 . S
C141 C142 1.361 . S
C142 H126 0.942 . S
C142 C141 1.361 . S
C142 C143 1.369 . S
C143 C142 1.369 . S
C143 C144 1.404 . S
C144 H127 0.940 . S
C144 C143 1.404 . S
C144 C145 1.389 . S
C145 H128 0.939 . S
C145 C140 1.400 . S
C145 C144 1.389 . S
C146 P120 1.819 . S
C146 C147 1.391 1_545 S
C146 C151 1.391 . S
C147 H129 0.941 . S
C147 C146 1.391 1_565 S
C147 C148 1.396 . S
C148 H132 0.939 . S
C148 C147 1.396 . S
C148 C149 1.397 1_565 S
C149 C148 1.397 1_545 S
C149 C150 1.385 . S
C150 H133 0.940 . S
C150 C149 1.385 . S
C150 C151 1.388 . S
C151 H130 0.939 . S
C151 C146 1.391 . S
C151 C150 1.388 . S
P152 O163 1.490 . S
P152 C166 1.812 . S
P152 C172 1.803 . S
P152 C178 1.819 . S
H153 C167 0.941 . S
H154 C168 0.939 . S
H155 C170 0.940 . S
H156 C171 0.940 . S
H157 C173 0.939 . S
H158 C174 0.942 . S
H159 C176 0.940 . S
H160 C177 0.939 . S
H161 C179 0.941 . S
H162 C183 0.939 . S
O163 P152 1.490 . S
H164 C180 0.939 . S
H165 C182 0.940 . S
C166 P152 1.812 . S
C166 C167 1.389 . S
C166 C171 1.391 . S
C167 H153 0.941 . S
C167 C166 1.389 . S
C167 C168 1.397 . S
C168 H154 0.939 . S
C168 C167 1.397 . S
C168 C169 1.378 . S
C169 C168 1.378 . S
C169 C170 1.378 . S
C170 H155 0.940 . S
C170 C169 1.378 . S
C170 C171 1.396 . S
C171 H156 0.940 . S
C171 C166 1.391 . S
C171 C170 1.396 . S
C172 P152 1.803 . S
C172 C173 1.378 . S
C172 C177 1.400 . S
C173 H157 0.939 . S
C173 C172 1.378 . S
C173 C174 1.361 . S
C174 H158 0.942 . S
C174 C173 1.361 . S
C174 C175 1.369 . S
C175 C174 1.369 . S
C175 C176 1.404 . S
C176 H159 0.940 . S
C176 C175 1.404 . S
C176 C177 1.389 . S
C177 H160 0.939 . S
C177 C172 1.400 . S
C177 C176 1.389 . S
C178 P152 1.819 . S
C178 C179 1.391 . S
C178 C183 1.391 . S
C179 H161 0.941 . S
C179 C178 1.391 . S
C179 C180 1.396 . S
C180 H164 0.939 . S
C180 C179 1.396 . S
C180 C181 1.397 . S
C181 C180 1.397 . S
C181 C182 1.385 . S
C182 H165 0.940 . S
C182 C181 1.385 . S
C182 C183 1.388 . S
C183 H162 0.939 . S
C183 C178 1.391 . S
C183 C182 1.388 . S
P184 O195 1.490 . S
P184 C198 1.812 . S
P184 C204 1.803 1_455 S
P184 C210 1.819 . S
H185 C199 0.941 . S
H186 C200 0.939 . S
H187 C202 0.940 . S
H188 C203 0.940 . S
H189 C205 0.939 . S
H190 C206 0.942 . S
H191 C208 0.940 . S
H192 C209 0.939 . S
H193 C211 0.941 . S
H194 C215 0.939 . S
O195 P184 1.490 . S
H196 C212 0.939 . S
H197 C214 0.940 . S
C198 P184 1.812 . S
C198 C199 1.389 . S
C198 C203 1.391 . S
C199 H185 0.941 . S
C199 C198 1.389 . S
C199 C200 1.397 . S
C200 H186 0.939 . S
C200 C199 1.397 . S
C200 C201 1.378 . S
C201 C200 1.378 . S
C201 C202 1.378 . S
C202 H187 0.940 . S
C202 C201 1.378 . S
C202 C203 1.396 . S
C203 H188 0.940 . S
C203 C198 1.391 . S
C203 C202 1.396 . S
C204 P184 1.803 1_655 S
C204 C205 1.378 . S
C204 C209 1.400 . S
C205 H189 0.939 . S
C205 C204 1.378 . S
C205 C206 1.361 . S
C206 H190 0.942 . S
C206 C205 1.361 . S
C206 C207 1.369 . S
C207 C206 1.369 . S
C207 C208 1.404 . S
C208 H191 0.940 . S
C208 C207 1.404 . S
C208 C209 1.389 . S
C209 H192 0.939 . S
C209 C204 1.400 . S
C209 C208 1.389 . S
C210 P184 1.819 . S
C210 C211 1.391 . S
C210 C215 1.391 1_455 S
C211 H193 0.941 . S
C211 C210 1.391 . S
C211 C212 1.396 . S
C212 H196 0.939 . S
C212 C211 1.396 . S
C212 C213 1.397 . S
C213 C212 1.397 . S
C213 C214 1.385 1_455 S
C214 H197 0.940 . S
C214 C213 1.385 1_655 S
C214 C215 1.388 . S
C215 H194 0.939 . S
C215 C210 1.391 1_655 S
C215 C214 1.388 . S
P216 O227 1.490 . S
P216 C230 1.812 . S
P216 C236 1.803 1_455 S
P216 C242 1.819 . S
H217 C231 0.941 . S
H218 C232 0.939 . S
H219 C234 0.940 . S
H220 C235 0.940 . S
H221 C237 0.939 . S
H222 C238 0.942 . S
H223 C240 0.940 . S
H224 C241 0.939 . S
H225 C243 0.941 . S
H226 C247 0.939 . S
O227 P216 1.490 . S
H228 C244 0.939 . S
H229 C246 0.940 . S
C230 P216 1.812 . S
C230 C231 1.389 . S
C230 C235 1.391 . S
C231 H217 0.941 . S
C231 C230 1.389 . S
C231 C232 1.397 . S
C232 H218 0.939 . S
C232 C231 1.397 . S
C232 C233 1.378 . S
C233 C232 1.378 . S
C233 C234 1.378 . S
C234 H219 0.940 . S
C234 C233 1.378 . S
C234 C235 1.396 . S
C235 H220 0.940 . S
C235 C230 1.391 . S
C235 C234 1.396 . S
C236 P216 1.803 1_655 S
C236 C237 1.378 . S
C236 C241 1.400 . S
C237 H221 0.939 . S
C237 C236 1.378 . S
C237 C238 1.361 . S
C238 H222 0.942 . S
C238 C237 1.361 . S
C238 C239 1.369 . S
C239 C238 1.369 . S
C239 C240 1.404 . S
C240 H223 0.940 . S
C240 C239 1.404 . S
C240 C241 1.389 . S
C241 H224 0.939 . S
C241 C236 1.400 . S
C241 C240 1.389 . S
C242 P216 1.819 . S
C242 C243 1.391 . S
C242 C247 1.391 1_455 S
C243 H225 0.941 . S
C243 C242 1.391 . S
C243 C244 1.396 . S
C244 H228 0.939 . S
C244 C243 1.396 . S
C244 C245 1.397 . S
C245 C244 1.397 . S
C245 C246 1.385 1_455 S
C246 H229 0.940 . S
C246 C245 1.385 1_655 S
C246 C247 1.388 . S
C247 H226 0.939 . S
C247 C242 1.391 1_655 S
C247 C246 1.388 . S
P248 O259 1.490 . S
P248 C262 1.812 . S
P248 C268 1.803 1_545 S
P248 C274 1.819 . S
H249 C263 0.941 . S
H250 C264 0.939 . S
H251 C266 0.940 . S
H252 C267 0.940 . S
H253 C269 0.939 . S
H254 C270 0.942 . S
H255 C272 0.940 . S
H256 C273 0.939 . S
H257 C275 0.941 . S
H258 C279 0.939 . S
O259 P248 1.490 . S
H260 C276 0.939 . S
H261 C278 0.940 . S
C262 P248 1.812 . S
C262 C263 1.389 . S
C262 C267 1.391 . S
C263 H249 0.941 . S
C263 C262 1.389 . S
C263 C264 1.397 . S
C264 H250 0.939 . S
C264 C263 1.397 . S
C264 C265 1.378 . S
C265 C264 1.378 . S
C265 C266 1.378 . S
C266 H251 0.940 . S
C266 C265 1.378 . S
C266 C267 1.396 . S
C267 H252 0.940 . S
C267 C262 1.391 . S
C267 C266 1.396 . S
C268 P248 1.803 1_565 S
C268 C269 1.378 . S
C268 C273 1.400 . S
C269 H253 0.939 . S
C269 C268 1.378 . S
C269 C270 1.361 . S
C270 H254 0.942 . S
C270 C269 1.361 . S
C270 C271 1.369 . S
C271 C270 1.369 . S
C271 C272 1.404 . S
C272 H255 0.940 . S
C272 C271 1.404 . S
C272 C273 1.389 . S
C273 H256 0.939 . S
C273 C268 1.400 . S
C273 C272 1.389 . S
C274 P248 1.819 . S
C274 C275 1.391 . S
C274 C279 1.391 1_545 S
C275 H257 0.941 . S
C275 C274 1.391 . S
C275 C276 1.396 . S
C276 H260 0.939 . S
C276 C275 1.396 . S
C276 C277 1.397 . S
C277 C276 1.397 . S
C277 C278 1.385 1_545 S
C278 H261 0.940 . S
C278 C277 1.385 1_565 S
C278 C279 1.388 . S
C279 H258 0.939 . S
C279 C274 1.391 1_565 S
C279 C278 1.388 . S
P280 O291 1.490 . S
P280 C294 1.812 . S
P280 C300 1.803 . S
P280 C306 1.819 . S
H281 C295 0.941 . S
H282 C296 0.939 . S
H283 C298 0.940 . S
H284 C299 0.940 . S
H285 C301 0.939 . S
H286 C302 0.942 . S
H287 C304 0.940 . S
H288 C305 0.939 . S
H289 C307 0.941 . S
H290 C311 0.939 . S
O291 P280 1.490 . S
H292 C308 0.939 . S
H293 C310 0.940 . S
C294 P280 1.812 . S
C294 C295 1.389 . S
C294 C299 1.391 . S
C295 H281 0.941 . S
C295 C294 1.389 . S
C295 C296 1.397 . S
C296 H282 0.939 . S
C296 C295 1.397 . S
C296 C297 1.378 . S
C297 C296 1.378 . S
C297 C298 1.378 . S
C298 H283 0.940 . S
C298 C297 1.378 . S
C298 C299 1.396 . S
C299 H284 0.940 . S
C299 C294 1.391 . S
C299 C298 1.396 . S
C300 P280 1.803 . S
C300 C301 1.378 . S
C300 C305 1.400 . S
C301 H285 0.939 . S
C301 C300 1.378 . S
C301 C302 1.361 . S
C302 H286 0.942 . S
C302 C301 1.361 . S
C302 C303 1.369 . S
C303 C302 1.369 . S
C303 C304 1.404 . S
C304 H287 0.940 . S
C304 C303 1.404 . S
C304 C305 1.389 . S
C305 H288 0.939 . S
C305 C300 1.400 . S
C305 C304 1.389 . S
C306 P280 1.819 . S
C306 C307 1.391 . S
C306 C311 1.391 . S
C307 H289 0.941 . S
C307 C306 1.391 . S
C307 C308 1.396 . S
C308 H292 0.939 . S
C308 C307 1.396 . S
C308 C309 1.397 . S
C309 C308 1.397 . S
C309 C310 1.385 . S
C310 H293 0.940 . S
C310 C309 1.385 . S
C310 C311 1.388 . S
C311 H290 0.939 . S
C311 C306 1.391 . S
C311 C310 1.388 . S
H312 C318 0.930 . S
H313 C322 0.930 . S
H314 C327 0.929 . S
H315 C325 0.929 . S
H316 C320 0.929 . S
H317 C326 0.929 . S
C318 H312 0.930 . S
C318 C319 1.367 . S
C318 C326 1.378 . S
C319 C318 1.367 . S
C319 C327 1.433 . S
C320 H316 0.929 . S
C320 C322 1.378 . S
C320 C324 1.350 . S
C321 C324 1.463 . S
C321 C326 1.350 . S
C321 N329 1.427 . S
C322 H313 0.930 . S
C322 C320 1.378 . S
C322 C323 1.367 . S
C323 C322 1.367 . S
C323 C325 1.433 . S
C324 C320 1.350 . S
C324 C321 1.463 . S
C324 N328 1.427 . S
C325 H315 0.929 . S
C325 C323 1.433 . S
C325 N328 1.384 . S
C326 H317 0.929 . S
C326 C318 1.378 . S
C326 C321 1.350 . S
C327 H314 0.929 . S
C327 C319 1.433 . S
C327 N329 1.384 . S
N328 C324 1.427 . S
N328 C325 1.384 . S
N329 C321 1.427 . S
N329 C327 1.384 . S
H330 C336 0.930 . S
H331 C340 0.930 . S
H332 C345 0.929 . S
H333 C343 0.929 . S
H334 C338 0.929 . S
H335 C344 0.929 . S
C336 H330 0.930 . S
C336 C337 1.367 . S
C336 C344 1.378 . S
C337 C336 1.367 . S
C337 C345 1.433 . S
C338 H334 0.929 . S
C338 C340 1.378 . S
C338 C342 1.350 . S
C339 C342 1.463 . S
C339 C344 1.350 . S
C339 N347 1.427 . S
C340 H331 0.930 . S
C340 C338 1.378 . S
C340 C341 1.367 . S
C341 C340 1.367 . S
C341 C343 1.433 . S
C342 C338 1.350 . S
C342 C339 1.463 . S
C342 N346 1.427 . S
C343 H333 0.929 . S
C343 C341 1.433 . S
C343 N346 1.384 . S
C344 H335 0.929 . S
C344 C336 1.378 . S
C344 C339 1.350 . S
C345 H332 0.929 . S
C345 C337 1.433 . S
C345 N347 1.384 . S
N346 C342 1.427 . S
N346 C343 1.384 . S
N347 C339 1.427 . S
N347 C345 1.384 . S
H348 C354 0.930 . S
H349 C358 0.930 . S
H350 C363 0.929 . S
H351 C361 0.929 . S
H352 C356 0.929 . S
H353 C362 0.929 . S
C354 H348 0.930 . S
C354 C355 1.367 . S
C354 C362 1.378 . S
C355 C354 1.367 . S
C355 C363 1.433 . S
C356 H352 0.929 . S
C356 C358 1.378 . S
C356 C360 1.350 . S
C357 C360 1.463 . S
C357 C362 1.350 . S
C357 N365 1.427 . S
C358 H349 0.930 . S
C358 C356 1.378 . S
C358 C359 1.367 . S
C359 C358 1.367 . S
C359 C361 1.433 . S
C360 C356 1.350 . S
C360 C357 1.463 . S
C360 N364 1.427 . S
C361 H351 0.929 . S
C361 C359 1.433 . S
C361 N364 1.384 . S
C362 H353 0.929 . S
C362 C354 1.378 . S
C362 C357 1.350 . S
C363 H350 0.929 . S
C363 C355 1.433 . S
C363 N365 1.384 . S
N364 C360 1.427 . S
N364 C361 1.384 . S
N365 C357 1.427 . S
N365 C363 1.384 . S
H366 C372 0.930 . S
H367 C376 0.930 . S
H368 C381 0.929 . S
H369 C379 0.929 . S
H370 C374 0.929 . S
H371 C380 0.929 . S
C372 H366 0.930 . S
C372 C373 1.367 . S
C372 C380 1.378 . S
C373 C372 1.367 . S
C373 C381 1.433 . S
C374 H370 0.929 . S
C374 C376 1.378 . S
C374 C378 1.350 . S
C375 C378 1.463 . S
C375 C380 1.350 . S
C375 N383 1.427 . S
C376 H367 0.930 . S
C376 C374 1.378 . S
C376 C377 1.367 . S
C377 C376 1.367 . S
C377 C379 1.433 . S
C378 C374 1.350 . S
C378 C375 1.463 . S
C378 N382 1.427 . S
C379 H369 0.929 . S
C379 C377 1.433 . S
C379 N382 1.384 . S
C380 H371 0.929 . S
C380 C372 1.378 . S
C380 C375 1.350 . S
C381 H368 0.929 . S
C381 C373 1.433 . S
C381 N383 1.384 . S
N382 C378 1.427 . S
N382 C379 1.384 . S
N383 C375 1.427 . S
N383 C381 1.384 . S
H384 C390 0.930 . S
H385 C394 0.930 . S
H386 C399 0.929 . S
H387 C397 0.929 . S
H388 C392 0.929 . S
H389 C398 0.929 . S
C390 H384 0.930 . S
C390 C391 1.367 . S
C390 C398 1.378 . S
C391 C390 1.367 . S
C391 C399 1.433 . S
C392 H388 0.929 . S
C392 C394 1.378 . S
C392 C396 1.350 . S
C393 C396 1.463 . S
C393 C398 1.350 . S
C393 N401 1.427 . S
C394 H385 0.930 . S
C394 C392 1.378 . S
C394 C395 1.367 . S
C395 C394 1.367 . S
C395 C397 1.433 . S
C396 C392 1.350 . S
C396 C393 1.463 . S
C396 N400 1.427 . S
C397 H387 0.929 . S
C397 C395 1.433 . S
C397 N400 1.384 . S
C398 H389 0.929 . S
C398 C390 1.378 . S
C398 C393 1.350 . S
C399 H386 0.929 . S
C399 C391 1.433 . S
C399 N401 1.384 . S
N400 C396 1.427 . S
N400 C397 1.384 . S
N401 C393 1.427 . S
N401 C399 1.384 . S
H402 C408 0.930 . S
H403 C412 0.930 . S
H404 C417 0.929 . S
H405 C415 0.929 . S
H406 C410 0.929 . S
H407 C416 0.929 . S
C408 H402 0.930 . S
C408 C409 1.367 . S
C408 C416 1.378 . S
C409 C408 1.367 . S
C409 C417 1.433 . S
C410 H406 0.929 . S
C410 C412 1.378 . S
C410 C414 1.350 . S
C411 C414 1.463 . S
C411 C416 1.350 . S
C411 N419 1.427 . S
C412 H403 0.930 . S
C412 C410 1.378 . S
C412 C413 1.367 . S
C413 C412 1.367 . S
C413 C415 1.433 . S
C414 C410 1.350 . S
C414 C411 1.463 . S
C414 N418 1.427 . S
C415 H405 0.929 . S
C415 C413 1.433 . S
C415 N418 1.384 . S
C416 H407 0.929 . S
C416 C408 1.378 . S
C416 C411 1.350 . S
C417 H404 0.929 . S
C417 C409 1.433 . S
C417 N419 1.384 . S
N418 C414 1.427 . S
N418 C415 1.384 . S
N419 C411 1.427 . S
N419 C417 1.384 . S
H420 C426 0.930 . S
H421 C430 0.930 . S
H422 C435 0.929 . S
H423 C433 0.929 . S
H424 C428 0.929 . S
H425 C434 0.929 . S
C426 H420 0.930 . S
C426 C427 1.367 . S
C426 C434 1.378 . S
C427 C426 1.367 . S
C427 C435 1.433 . S
C428 H424 0.929 . S
C428 C430 1.378 . S
C428 C432 1.350 . S
C429 C432 1.463 . S
C429 C434 1.350 . S
C429 N437 1.427 . S
C430 H421 0.930 . S
C430 C428 1.378 . S
C430 C431 1.367 . S
C431 C430 1.367 . S
C431 C433 1.433 . S
C432 C428 1.350 . S
C432 C429 1.463 . S
C432 N436 1.427 . S
C433 H423 0.929 . S
C433 C431 1.433 . S
C433 N436 1.384 . S
C434 H425 0.929 . S
C434 C426 1.378 . S
C434 C429 1.350 . S
C435 H422 0.929 . S
C435 C427 1.433 . S
C435 N437 1.384 . S
N436 C432 1.427 . S
N436 C433 1.384 . S
N437 C429 1.427 . S
N437 C435 1.384 . S
H438 C444 0.930 . S
H439 C448 0.930 . S
H440 C453 0.929 . S
H441 C451 0.929 . S
H442 C446 0.929 . S
H443 C452 0.929 . S
C444 H438 0.930 . S
C444 C445 1.367 . S
C444 C452 1.378 . S
C445 C444 1.367 . S
C445 C453 1.433 . S
C446 H442 0.929 . S
C446 C448 1.378 . S
C446 C450 1.350 . S
C447 C450 1.463 . S
C447 C452 1.350 . S
C447 N455 1.427 . S
C448 H439 0.930 . S
C448 C446 1.378 . S
C448 C449 1.367 . S
C449 C448 1.367 . S
C449 C451 1.433 . S
C450 C446 1.350 . S
C450 C447 1.463 . S
C450 N454 1.427 . S
C451 H441 0.929 . S
C451 C449 1.433 . S
C451 N454 1.384 . S
C452 H443 0.929 . S
C452 C444 1.378 . S
C452 C447 1.350 . S
C453 H440 0.929 . S
C453 C445 1.433 . S
C453 N455 1.384 . S
N454 C450 1.427 . S
N454 C451 1.384 . S
N455 C447 1.427 . S
N455 C453 1.384 . S
H456 C462 0.930 . S
H457 C466 0.930 . S
H458 C471 0.929 . S
H459 C469 0.929 . S
H460 C464 0.929 . S
H461 C470 0.929 . S
C462 H456 0.930 . S
C462 C463 1.367 . S
C462 C470 1.378 . S
C463 C462 1.367 . S
C463 C471 1.433 . S
C464 H460 0.929 . S
C464 C466 1.378 . S
C464 C468 1.350 . S
C465 C468 1.463 . S
C465 C470 1.350 . S
C465 N473 1.427 . S
C466 H457 0.930 . S
C466 C464 1.378 . S
C466 C467 1.367 . S
C467 C466 1.367 . S
C467 C469 1.433 . S
C468 C464 1.350 . S
C468 C465 1.463 . S
C468 N472 1.427 . S
C469 H459 0.929 . S
C469 C467 1.433 . S
C469 N472 1.384 . S
C470 H461 0.929 . S
C470 C462 1.378 . S
C470 C465 1.350 . S
C471 H458 0.929 . S
C471 C463 1.433 . S
C471 N473 1.384 . S
N472 C468 1.427 . S
N472 C469 1.384 . S
N473 C465 1.427 . S
N473 C471 1.384 . S
H474 C480 0.930 . S
H475 C484 0.930 . S
H476 C489 0.929 . S
H477 C487 0.929 . S
H478 C482 0.929 . S
H479 C488 0.929 . S
C480 H474 0.930 . S
C480 C481 1.367 . S
C480 C488 1.378 . S
C481 C480 1.367 . S
C481 C489 1.433 . S
C482 H478 0.929 . S
C482 C484 1.378 . S
C482 C486 1.350 . S
C483 C486 1.463 . S
C483 C488 1.350 . S
C483 N491 1.427 . S
C484 H475 0.930 . S
C484 C482 1.378 . S
C484 C485 1.367 . S
C485 C484 1.367 . S
C485 C487 1.433 . S
C486 C482 1.350 . S
C486 C483 1.463 . S
C486 N490 1.427 . S
C487 H477 0.929 . S
C487 C485 1.433 . S
C487 N490 1.384 . S
C488 H479 0.929 . S
C488 C480 1.378 . S
C488 C483 1.350 . S
C489 H476 0.929 . S
C489 C481 1.433 . S
C489 N491 1.384 . S
N490 C486 1.427 . S
N490 C487 1.384 . S
N491 C483 1.427 . S
N491 C489 1.384 . S
H492 C498 0.930 . S
H493 C502 0.930 . S
H494 C507 0.929 . S
H495 C505 0.929 . S
H496 C500 0.929 . S
H497 C506 0.929 . S
C498 H492 0.930 . S
C498 C499 1.367 . S
C498 C506 1.378 . S
C499 C498 1.367 . S
C499 C507 1.433 . S
C500 H496 0.929 . S
C500 C502 1.378 . S
C500 C504 1.350 . S
C501 C504 1.463 . S
C501 C506 1.350 . S
C501 N509 1.427 . S
C502 H493 0.930 . S
C502 C500 1.378 . S
C502 C503 1.367 . S
C503 C502 1.367 . S
C503 C505 1.433 . S
C504 C500 1.350 . S
C504 C501 1.463 . S
C504 N508 1.427 . S
C505 H495 0.929 . S
C505 C503 1.433 . S
C505 N508 1.384 . S
C506 H497 0.929 . S
C506 C498 1.378 . S
C506 C501 1.350 . S
C507 H494 0.929 . S
C507 C499 1.433 . S
C507 N509 1.384 . S
N508 C504 1.427 . S
N508 C505 1.384 . S
N509 C501 1.427 . S
N509 C507 1.384 . S
H510 C516 0.930 . S
H511 C520 0.930 . S
H512 C525 0.929 . S
H513 C523 0.929 . S
H514 C518 0.929 . S
H515 C524 0.929 . S
C516 H510 0.930 . S
C516 C517 1.367 . S
C516 C524 1.378 . S
C517 C516 1.367 . S
C517 C525 1.433 . S
C518 H514 0.929 . S
C518 C520 1.378 . S
C518 C522 1.350 . S
C519 C522 1.463 . S
C519 C524 1.350 . S
C519 N527 1.427 . S
C520 H511 0.930 . S
C520 C518 1.378 . S
C520 C521 1.367 . S
C521 C520 1.367 . S
C521 C523 1.433 . S
C522 C518 1.350 . S
C522 C519 1.463 . S
C522 N526 1.427 . S
C523 H513 0.929 . S
C523 C521 1.433 . S
C523 N526 1.384 . S
C524 H515 0.929 . S
C524 C516 1.378 . S
C524 C519 1.350 . S
C525 H512 0.929 . S
C525 C517 1.433 . S
C525 N527 1.384 . S
N526 C522 1.427 . S
N526 C523 1.384 . S
N527 C519 1.427 . S
N527 C525 1.384 . S
H528 C534 0.930 . S
H529 C538 0.930 . S
H530 C543 0.929 . S
H531 C541 0.929 . S
H532 C536 0.929 . S
H533 C542 0.929 . S
C534 H528 0.930 . S
C534 C535 1.367 1_655 S
C534 C542 1.378 . S
C535 C534 1.367 1_455 S
C535 C543 1.433 . S
C536 H532 0.929 . S
C536 C538 1.378 1_554 S
C536 C540 1.350 . S
C537 C540 1.463 . S
C537 C542 1.350 1_455 S
C537 N545 1.427 . S
C538 H529 0.930 . S
C538 C536 1.378 1_556 S
C538 C539 1.367 . S
C539 C538 1.367 . S
C539 C541 1.433 1_455 S
C540 C536 1.350 . S
C540 C537 1.463 . S
C540 N544 1.427 1_455 S
C541 H531 0.929 . S
C541 C539 1.433 1_655 S
C541 N544 1.384 1_556 S
C542 H533 0.929 . S
C542 C534 1.378 . S
C542 C537 1.350 1_655 S
C543 H530 0.929 . S
C543 C535 1.433 . S
C543 N545 1.384 . S
N544 C540 1.427 1_655 S
N544 C541 1.384 1_554 S
N545 C537 1.427 . S
N545 C543 1.384 . S
H546 C552 0.930 . S
H547 C556 0.930 1_565 S
H548 C561 0.929 . S
H549 C559 0.929 . S
H550 C554 0.929 1_565 S
H551 C560 0.929 . S
C552 H546 0.930 . S
C552 C553 1.367 . S
C552 C560 1.378 . S
C553 C552 1.367 . S
C553 C561 1.433 1_545 S
C554 H550 0.929 1_545 S
C554 C556 1.378 . S
C554 C558 1.350 . S
C555 C558 1.463 . S
C555 C560 1.350 . S
C555 N563 1.416 1_545 S
C556 H547 0.930 1_545 S
C556 C554 1.378 . S
C556 C557 1.367 . S
C557 C556 1.367 . S
C557 C559 1.433 . S
C558 C554 1.350 . S
C558 C555 1.463 . S
C558 N562 1.427 . S
C559 H549 0.929 . S
C559 C557 1.433 . S
C559 N562 1.384 . S
C560 H551 0.929 . S
C560 C552 1.378 . S
C560 C555 1.350 . S
C561 H548 0.929 . S
C561 C553 1.433 1_565 S
C561 N563 1.385 . S
N562 C558 1.427 . S
N562 C559 1.384 . S
N563 C555 1.416 1_565 S
N563 C561 1.385 . S
H564 C570 0.930 . S
H565 C574 0.930 . S
H566 C579 0.929 . S
H567 C577 0.929 . S
H568 C572 0.929 . S
H569 C578 0.929 . S
C570 H564 0.930 . S
C570 C571 1.367 . S
C570 C578 1.378 . S
C571 C570 1.367 . S
C571 C579 1.433 . S
C572 H568 0.929 . S
C572 C574 1.378 . S
C572 C576 1.350 . S
C573 C576 1.463 . S
C573 C578 1.350 . S
C573 N581 1.427 . S
C574 H565 0.930 . S
C574 C572 1.378 . S
C574 C575 1.367 . S
C575 C574 1.367 . S
C575 C577 1.433 . S
C576 C572 1.350 . S
C576 C573 1.463 . S
C576 N580 1.427 . S
C577 H567 0.929 . S
C577 C575 1.433 . S
C577 N580 1.384 . S
C578 H569 0.929 . S
C578 C570 1.378 . S
C578 C573 1.350 . S
C579 H566 0.929 . S
C579 C571 1.433 . S
C579 N581 1.384 . S
N580 C576 1.427 . S
N580 C577 1.384 . S
N581 C573 1.427 . S
N581 C579 1.384 . S
H582 C588 0.930 . S
H583 C592 0.930 . S
H584 C597 0.929 . S
H585 C595 0.929 . S
H586 C590 0.929 . S
H587 C596 0.929 . S
C588 H582 0.930 . S
C588 C589 1.367 1_565 S
C588 C596 1.378 . S
C589 C588 1.367 1_545 S
C589 C597 1.433 . S
C590 H586 0.929 . S
C590 C592 1.378 . S
C590 C594 1.350 . S
C591 C594 1.463 . S
C591 C596 1.350 1_545 S
C591 N599 1.427 . S
C592 H583 0.930 . S
C592 C590 1.378 . S
C592 C593 1.367 . S
C593 C592 1.367 . S
C593 C595 1.433 1_545 S
C594 C590 1.350 . S
C594 C591 1.463 . S
C594 N598 1.427 1_545 S
C595 H585 0.929 . S
C595 C593 1.433 1_565 S
C595 N598 1.384 . S
C596 H587 0.929 . S
C596 C588 1.378 . S
C596 C591 1.350 1_565 S
C597 H584 0.929 . S
C597 C589 1.433 . S
C597 N599 1.384 . S
N598 C594 1.427 1_565 S
N598 C595 1.384 . S
N599 C591 1.427 . S
N599 C597 1.384 . S
H600 C606 0.930 . S
H601 C610 0.930 . S
H602 C615 0.929 . S
H603 C613 0.929 . S
H604 C608 0.929 . S
H605 C614 0.929 . S
C606 H600 0.930 . S
C606 C607 1.367 . S
C606 C614 1.378 . S
C607 C606 1.367 . S
C607 C615 1.433 . S
C608 H604 0.929 . S
C608 C610 1.378 1_556 S
C608 C612 1.350 . S
C609 C612 1.463 . S
C609 C614 1.350 . S
C609 N617 1.427 . S
C610 H601 0.930 . S
C610 C608 1.378 1_554 S
C610 C611 1.367 . S
C611 C610 1.367 . S
C611 C613 1.433 . S
C612 C608 1.350 . S
C612 C609 1.463 . S
C612 N616 1.427 . S
C613 H603 0.929 . S
C613 C611 1.433 . S
C613 N616 1.384 1_554 S
C614 H605 0.929 . S
C614 C606 1.378 . S
C614 C609 1.350 . S
C615 H602 0.929 . S
C615 C607 1.433 . S
C615 N617 1.384 . S
N616 C612 1.427 . S
N616 C613 1.384 1_556 S
N617 C609 1.427 . S
N617 C615 1.384 . S
H618 C624 0.930 . S
H619 C628 0.930 . S
H620 C633 0.929 . S
H621 C631 0.929 . S
H622 C626 0.929 . S
H623 C632 0.929 . S
C624 H618 0.930 . S
C624 C625 1.367 . S
C624 C632 1.378 . S
C625 C624 1.367 . S
C625 C633 1.433 1_455 S
C626 H622 0.929 . S
C626 C628 1.378 . S
C626 C630 1.350 1_655 S
C627 C630 1.463 . S
C627 C632 1.350 . S
C627 N635 1.427 1_455 S
C628 H619 0.930 . S
C628 C626 1.378 . S
C628 C629 1.367 . S
C629 C628 1.367 . S
C629 C631 1.433 1_655 S
C630 C626 1.350 1_455 S
C630 C627 1.463 . S
C630 N634 1.427 . S
C631 H621 0.929 . S
C631 C629 1.433 1_455 S
C631 N634 1.384 . S
C632 H623 0.929 . S
C632 C624 1.378 . S
C632 C627 1.350 . S
C633 H620 0.929 . S
C633 C625 1.433 1_655 S
C633 N635 1.384 . S
N634 C630 1.427 . S
N634 C631 1.384 . S
N635 C627 1.427 1_655 S
N635 C633 1.384 . S
C319 C19 1.873 . S
C323 C303 1.820 . S
C337 C46 1.238 . S
C341 C239 1.229 . S
C355 C95 0.492 . S
C359 C271 0.398 . S
C373 C10 1.977 . S
C377 C297 1.926 . S
C395 C233 1.271 . S
C391 C55 1.274 . S
C413 C265 0.574 . S
C409 C86 0.566 . S
C427 C59 3.080 . S
C431 C175 3.011 . S
C445 C90 1.978 . S
C449 C207 1.947 . S
C463 C15 1.277 . S
C467 C137 1.272 . S
C485 C169 2.939 . S
C481 C50 2.971 . S
C503 C201 1.865 . S
C499 C99 1.900 . S
C517 C6 1.219 . S
C521 C143 1.215 . S
C539 C213 1.355 . S
C535 C9 1.331 . S
C553 C58 1.460 . S
C557 C149 1.481 . S
C571 C98 1.710 . S
C575 C181 1.739 . S
C593 C277 1.057 . S
C589 C49 1.076 . S
C611 C309 1.343 . S
C607 C89 1.321 . S
C625 C18 1.447 . S
C629 C245 1.457 1_655 S
