# Generated by pormake.
# Topology pyr, (3,6)-cn, num edge types: 1
# Building blocks:
#     Node 0, Type 0, BuildingBlock: QEWDON_clean_linker_0, # of connection points: 3
#     Node 1, Type 0, BuildingBlock: QEWDON_clean_linker_0, # of connection points: 3
#     Node 2, Type 0, BuildingBlock: QEWDON_clean_linker_0, # of connection points: 3
#     Node 3, Type 0, BuildingBlock: QEWDON_clean_linker_0, # of connection points: 3
#     Node 4, Type 0, BuildingBlock: QEWDON_clean_linker_0, # of connection points: 3
#     Node 5, Type 0, BuildingBlock: QEWDON_clean_linker_0, # of connection points: 3
#     Node 6, Type 0, BuildingBlock: QEWDON_clean_linker_0, # of connection points: 3
#     Node 7, Type 0, BuildingBlock: QEWDON_clean_linker_0, # of connection points: 3
#     Node 8, Type 1, BuildingBlock: BETFEN_clean_sbu_0, # of connection points: 6
#     Node 9, Type 1, BuildingBlock: BETFEN_clean_sbu_0, # of connection points: 6
#     Node 10, Type 1, BuildingBlock: BETFEN_clean_sbu_0, # of connection points: 6
#     Node 11, Type 1, BuildingBlock: BETFEN_clean_sbu_0, # of connection points: 6
#     Edge 12, Type (0, 1), BuildingBlock: OJICUG_clean_linker_0, # of connection points: 2
#     Edge 13, Type (0, 1), BuildingBlock: OJICUG_clean_linker_0, # of connection points: 2
#     Edge 14, Type (0, 1), BuildingBlock: OJICUG_clean_linker_0, # of connection points: 2
#     Edge 15, Type (0, 1), BuildingBlock: OJICUG_clean_linker_0, # of connection points: 2
#     Edge 16, Type (0, 1), BuildingBlock: OJICUG_clean_linker_0, # of connection points: 2
#     Edge 17, Type (0, 1), BuildingBlock: OJICUG_clean_linker_0, # of connection points: 2
#     Edge 18, Type (0, 1), BuildingBlock: OJICUG_clean_linker_0, # of connection points: 2
#     Edge 19, Type (0, 1), BuildingBlock: OJICUG_clean_linker_0, # of connection points: 2
#     Edge 20, Type (0, 1), BuildingBlock: OJICUG_clean_linker_0, # of connection points: 2
#     Edge 21, Type (0, 1), BuildingBlock: OJICUG_clean_linker_0, # of connection points: 2
#     Edge 22, Type (0, 1), BuildingBlock: OJICUG_clean_linker_0, # of connection points: 2
#     Edge 23, Type (0, 1), BuildingBlock: OJICUG_clean_linker_0, # of connection points: 2
#     Edge 24, Type (0, 1), BuildingBlock: OJICUG_clean_linker_0, # of connection points: 2
#     Edge 25, Type (0, 1), BuildingBlock: OJICUG_clean_linker_0, # of connection points: 2
#     Edge 26, Type (0, 1), BuildingBlock: OJICUG_clean_linker_0, # of connection points: 2
#     Edge 27, Type (0, 1), BuildingBlock: OJICUG_clean_linker_0, # of connection points: 2
#     Edge 28, Type (0, 1), BuildingBlock: OJICUG_clean_linker_0, # of connection points: 2
#     Edge 29, Type (0, 1), BuildingBlock: OJICUG_clean_linker_0, # of connection points: 2
#     Edge 30, Type (0, 1), BuildingBlock: OJICUG_clean_linker_0, # of connection points: 2
#     Edge 31, Type (0, 1), BuildingBlock: OJICUG_clean_linker_0, # of connection points: 2
#     Edge 32, Type (0, 1), BuildingBlock: OJICUG_clean_linker_0, # of connection points: 2
#     Edge 33, Type (0, 1), BuildingBlock: OJICUG_clean_linker_0, # of connection points: 2
#     Edge 34, Type (0, 1), BuildingBlock: OJICUG_clean_linker_0, # of connection points: 2
#     Edge 35, Type (0, 1), BuildingBlock: OJICUG_clean_linker_0, # of connection points: 2
# Relax obj value: 0.229
# Max RMSD: 0.339
# Mean RMSD: 0.186
data_MOF--net-pyr--node1-BETFEN_clean_sbu_0--node2-QEWDON_clean_linker_0--edge1-OJICUG_clean_linker_0
_symmetry_space_group_name_H-M    P1
_symmetry_Int_Tables_number       1
_symmetry_cell_setting            triclinic
loop_
_symmetry_equiv_pos_as_xyz
'x, y, z'
_cell_length_a     27.544206
_cell_length_b     31.165607
_cell_length_c     29.732879
_cell_angle_alpha  91.83809
_cell_angle_beta   102.60277
_cell_angle_gamma 124.72319
loop_
_atom_site_label
_atom_site_type_symbol
_atom_site_fract_x
_atom_site_fract_y
_atom_site_fract_z
_atom_type_partial_charge
H0 H 0.56945 0.45343 0.31273 0.0
C1 C 0.53762 0.43531 0.33372 0.0
C2 C 0.52067 0.38629 0.34558 0.0
C3 C 0.51022 0.45885 0.34608 0.0
H4 H 0.46495 0.32398 0.37993 0.0
C5 C 0.47725 0.36156 0.3707 0.0
C6 C 0.44561 0.38189 0.38008 0.0
C7 C 0.46435 0.43175 0.36937 0.0
C8 C 0.52464 0.50902 0.33102 0.0
H9 H 0.44177 0.44885 0.37757 0.0
C10 C 0.47734 0.51529 0.31662 0.0
C11 C 0.48958 0.56337 0.30572 0.0
C12 C 0.58478 0.55094 0.33133 0.0
H13 H 0.62256 0.54773 0.34243 0.0
C14 C 0.59672 0.59791 0.3178 0.0
H15 H 0.4302 0.48232 0.31359 0.0
C16 C 0.54951 0.60421 0.30508 0.0
H17 H 0.56021 0.64122 0.29559 0.0
H18 H 0.64287 0.63001 0.31786 0.0
H19 H 0.26325 0.9021 0.81339 0.0
C20 C 0.28795 0.89052 0.79898 0.0
C21 C 0.33565 0.89139 0.82943 0.0
C22 C 0.26998 0.87243 0.75021 0.0
H23 H 0.4038 0.87637 0.83307 0.0
C24 C 0.36553 0.87414 0.81035 0.0
C25 C 0.34806 0.85531 0.76202 0.0
C26 C 0.30087 0.85532 0.73204 0.0
C27 C 0.21551 0.86686 0.71882 0.0
H28 H 0.28726 0.84084 0.69463 0.0
C29 C 0.20522 0.90627 0.72362 0.0
C30 C 0.15124 0.89813 0.69514 0.0
C31 C 0.17153 0.82002 0.68476 0.0
H32 H 0.17725 0.78863 0.68066 0.0
C33 C 0.11866 0.81224 0.65637 0.0
H34 H 0.23856 0.94273 0.74953 0.0
C35 C 0.1084 0.85076 0.66157 0.0
H36 H 0.06696 0.84372 0.63891 0.0
H37 H 0.08518 0.77592 0.6304 0.0
H38 H 0.6902 0.44128 0.90361 0.0
C39 C 0.6663 0.40115 0.91042 0.0
C40 C 0.7006 0.38468 0.93551 0.0
C41 C 0.60128 0.36737 0.89762 0.0
H42 H 0.69557 0.32188 0.96781 0.0
C43 C 0.66955 0.33366 0.9461 0.0
C44 C 0.6056 0.30061 0.93585 0.0
C45 C 0.57131 0.31713 0.91121 0.0
C46 C 0.56497 0.38681 0.87541 0.0
H47 H 0.5216 0.29148 0.90399 0.0
C48 C 0.57914 0.41611 0.83884 0.0
C49 C 0.54261 0.43257 0.81787 0.0
C50 C 0.51558 0.37637 0.89163 0.0
H51 H 0.50465 0.35568 0.92054 0.0
C52 C 0.48015 0.39319 0.87142 0.0
H53 H 0.61714 0.42483 0.82595 0.0
C54 C 0.49317 0.4207 0.83472 0.0
H55 H 0.46503 0.43361 0.81993 0.0
H56 H 0.44242 0.38497 0.88438 0.0
H57 H 0.91297 0.79266 0.38746 0.0
C58 C 0.88696 0.76865 0.4104 0.0
C59 C 0.88797 0.79362 0.45155 0.0
C60 C 0.84982 0.71234 0.39805 0.0
H61 H 0.84918 0.78172 0.50899 0.0
C62 C 0.85103 0.76205 0.47936 0.0
C63 C 0.81393 0.70635 0.46835 0.0
C64 C 0.81436 0.6819 0.42785 0.0
C65 C 0.83719 0.68426 0.35032 0.0
H66 H 0.78516 0.63885 0.41827 0.0
C67 C 0.88308 0.68825 0.33198 0.0
C68 C 0.86586 0.65896 0.28647 0.0
C69 C 0.77535 0.65111 0.32264 0.0
H70 H 0.7395 0.64723 0.33555 0.0
C71 C 0.75866 0.6227 0.2783 0.0
H72 H 0.93102 0.71338 0.3527 0.0
C73 C 0.80329 0.62655 0.26037 0.0
H74 H 0.7887 0.60362 0.22579 0.0
H75 H 0.71068 0.5974 0.25769 0.0
H76 H 0.53117 0.60792 0.91067 0.0
C77 C 0.55473 0.62634 0.88461 0.0
C78 C 0.60543 0.62692 0.88181 0.0
C79 C 0.53796 0.65337 0.85579 0.0
H80 H 0.68164 0.65912 0.852 0.0
C81 C 0.63987 0.65545 0.85134 0.0
C82 C 0.6246 0.68389 0.82403 0.0
C83 C 0.57141 0.67976 0.82431 0.0
C84 C 0.49478 0.66461 0.86361 0.0
H85 H 0.55886 0.70131 0.80281 0.0
C86 C 0.51725 0.71808 0.87407 0.0
C87 C 0.4773 0.73286 0.87122 0.0
C88 C 0.43156 0.62466 0.85439 0.0
H89 H 0.41335 0.58314 0.84618 0.0
C90 C 0.39125 0.63865 0.85353 0.0
H91 H 0.56663 0.74834 0.88314 0.0
C92 C 0.41367 0.69231 0.86115 0.0
H93 H 0.38111 0.70184 0.85828 0.0
H94 H 0.34222 0.60791 0.84545 0.0
H95 H 0.76453 0.16981 0.50533 0.0
C96 C 0.7641 0.17843 0.47028 0.0
C97 C 0.80285 0.17615 0.44788 0.0
C98 C 0.72392 0.19045 0.44757 0.0
H99 H 0.83272 0.18642 0.38544 0.0
C100 C 0.80294 0.18825 0.40264 0.0
C101 C 0.76227 0.1995 0.37868 0.0
C102 C 0.72338 0.20065 0.40193 0.0
C103 C 0.67718 0.18602 0.46888 0.0
H104 H 0.68897 0.20559 0.38331 0.0
C105 C 0.65971 0.22086 0.46312 0.0
C106 C 0.61129 0.21263 0.47969 0.0
C107 C 0.64641 0.14401 0.49252 0.0
H108 H 0.65745 0.11586 0.49676 0.0
C109 C 0.59929 0.13644 0.50955 0.0
H110 H 0.68284 0.25362 0.44521 0.0
C111 C 0.58152 0.17017 0.50295 0.0
H112 H 0.54463 0.16332 0.51642 0.0
H113 H 0.57586 0.1038 0.52746 0.0
H114 H 0.55466 0.85139 0.2847 0.0
C115 C 0.50561 0.83139 0.27866 0.0
C116 C 0.47806 0.85332 0.25393 0.0
C117 C 0.46976 0.78313 0.29415 0.0
H118 H 0.39371 0.84339 0.22359 0.0
C119 C 0.4149 0.82773 0.24535 0.0
C120 C 0.37787 0.77896 0.25879 0.0
C121 C 0.40568 0.75717 0.28403 0.0
C122 C 0.49851 0.75749 0.31627 0.0
H123 H 0.37704 0.71863 0.29321 0.0
C124 C 0.48246 0.7315 0.35441 0.0
C125 C 0.51312 0.71022 0.37598 0.0
C126 C 0.54319 0.75936 0.29893 0.0
H127 H 0.55512 0.77722 0.2688 0.0
C128 C 0.57298 0.73798 0.31994 0.0
H129 H 0.44817 0.72956 0.36831 0.0
C130 C 0.55847 0.71395 0.35831 0.0
H131 H 0.58244 0.69766 0.37402 0.0
H132 H 0.60758 0.74009 0.30643 0.0
H133 H 0.26282 0.52262 0.78472 0.0
C134 C 0.23243 0.47958 0.77553 0.0
C135 C 0.2312 0.45361 0.735 0.0
C136 C 0.19734 0.45055 0.80605 0.0
H137 H 0.19313 0.37671 0.69535 0.0
C138 C 0.19305 0.39781 0.72498 0.0
C139 C 0.15687 0.36785 0.75375 0.0
C140 C 0.1583 0.39425 0.79413 0.0
C141 C 0.21335 0.47928 0.85449 0.0
H142 H 0.13282 0.37125 0.81775 0.0
C143 C 0.17004 0.47762 0.87484 0.0
C144 C 0.19017 0.50649 0.92125 0.0
C145 C 0.27562 0.50953 0.8812 0.0
H146 H 0.30963 0.51111 0.86711 0.0
C147 C 0.29523 0.53794 0.92621 0.0
H148 H 0.12177 0.45433 0.85506 0.0
C149 C 0.25316 0.53651 0.94602 0.0
H150 H 0.27013 0.55934 0.98113 0.0
H151 H 0.34351 0.56125 0.94596 0.0
Pr152 Pr 0.95567 0.03994 0.62438 0.0
Pr153 Pr 0.06448 0.10768 0.59284 0.0
C154 C 0.85795 0.9695 0.65325 0.0
C155 C 0.82615 0.91997 0.67088 0.0
C156 C 0.76458 0.89577 0.66925 0.0
C157 C 0.73559 0.85454 0.69317 0.0
C158 C 0.76766 0.83662 0.71889 0.0
C159 C 0.82811 0.85829 0.71784 0.0
C160 C 0.8575 0.90021 0.69409 0.0
C161 C 0.02298 0.14775 0.66619 0.0
C162 C 0.07293 0.03364 0.66624 0.0
C163 C 0.17409 0.18079 0.57901 0.0
C164 C 0.20179 0.20572 0.54167 0.0
C165 C 0.24238 0.19704 0.52966 0.0
C166 C 0.2719 0.22206 0.49624 0.0
C167 C 0.26186 0.25673 0.47433 0.0
C168 C 0.22054 0.26496 0.48584 0.0
C169 C 0.19055 0.23952 0.51919 0.0
C170 C 0.98254 0.00594 0.53435 0.0
C171 C 0.9418 0.10118 0.54246 0.0
O172 O 0.85678 0.96661 0.60893 0.0
O173 O 0.91011 0.0102 0.68164 0.0
O174 O 0.04633 0.12338 0.66149 0.0
O175 O 0.96387 0.11698 0.64783 0.0
O176 O 0.10554 0.07615 0.64844 0.0
O177 O 1.01374 0.01072 0.66037 0.0
O178 O 0.14063 0.19293 0.59276 0.0
O179 O 0.15215 0.13077 0.57723 0.0
O180 O 0.997 0.01611 0.57853 0.0
O181 O 1.00902 0.04982 0.51824 0.0
O182 O 0.91228 0.05466 0.55528 0.0
O183 O 1.00249 0.13399 0.55785 0.0
H184 H 0.73985 0.91064 0.65152 0.0
H185 H 0.68886 0.83825 0.69334 0.0
H186 H 0.85361 0.84504 0.73754 0.0
H187 H 0.90528 0.91871 0.69564 0.0
H188 H 0.25227 0.17162 0.54686 0.0
H189 H 0.30453 0.21582 0.48895 0.0
H190 H 0.21188 0.29139 0.4694 0.0
H191 H 0.15941 0.24695 0.52778 0.0
Pr192 Pr 0.51471 0.08006 0.11845 0.0
Pr193 Pr 0.60871 0.0836 0.07949 0.0
C194 C 0.43423 0.07101 0.16106 0.0
C195 C 0.44693 0.11171 0.19775 0.0
C196 C 0.40992 0.12967 0.19079 0.0
C197 C 0.43049 0.17761 0.21743 0.0
C198 C 0.48841 0.20835 0.25148 0.0
C199 C 0.52339 0.18844 0.26086 0.0
C200 C 0.50294 0.14057 0.23405 0.0
C201 C 0.56177 0.15695 0.06309 0.0
C202 C 0.6601 0.16095 0.18244 0.0
C203 C 0.68503 0.09319 0.03183 0.0
C204 C 0.66492 0.0561 0.98843 0.0
C205 C 0.69395 0.03135 0.986 0.0
C206 C 0.66284 0.98275 0.95527 0.0
C207 C 0.602 0.95801 0.92702 0.0
C208 C 0.5755 0.9854 0.92604 0.0
C209 C 0.60706 0.03442 0.95609 0.0
C210 C 0.55899 0.00547 0.13337 0.0
C211 C 0.46341 0.99725 1.02005 0.0
O212 O 0.46223 0.04859 0.1725 0.0
O213 O 0.43607 0.08457 0.12 0.0
O214 O 0.54697 0.11054 0.05346 0.0
O215 O 0.55395 0.16532 0.10307 0.0
O216 O 0.67587 0.15212 0.14621 0.0
O217 O 0.60204 0.13671 0.18145 0.0
O218 O 0.66572 0.12321 0.02926 0.0
O219 O 0.67916 0.07137 0.06898 0.0
O220 O 0.57517 0.0522 0.1435 0.0
O221 O 0.56887 0.99757 0.09421 0.0
O222 O 0.44866 0.00501 0.05723 0.0
O223 O 0.52049 0.02593 1.01796 0.0
H224 H 0.36695 0.10834 0.16278 0.0
H225 H 0.40191 0.19151 0.21037 0.0
H226 H 0.56797 0.21119 0.2871 0.0
H227 H 0.5328 0.12795 0.23996 0.0
H228 H 0.73812 0.04694 1.01088 0.0
H229 H 0.68425 0.96231 0.95678 0.0
H230 H 0.52894 0.9674 0.90419 0.0
H231 H 0.58367 0.05284 0.95683 0.0
Pr232 Pr 0.55853 0.63473 0.62974 0.0
Pr233 Pr 0.48654 0.51835 0.57403 0.0
C234 C 0.58001 0.72925 0.65439 0.0
C235 C 0.54587 0.74802 0.66933 0.0
C236 C 0.55026 0.75804 0.7169 0.0
C237 C 0.51727 0.77471 0.73083 0.0
C238 C 0.47879 0.78197 0.69758 0.0
C239 C 0.47481 0.77238 0.64985 0.0
C240 C 0.50811 0.75589 0.63596 0.0
C241 C 0.56908 0.56592 0.68124 0.0
C242 C 0.41142 0.54136 0.63106 0.0
C243 C 0.45917 0.42141 0.54922 0.0
C244 C 0.47766 0.39308 0.52534 0.0
C245 C 0.44502 0.33808 0.52263 0.0
C246 C 0.46555 0.31065 0.50575 0.0
C247 C 0.51981 0.33775 0.49155 0.0
C248 C 0.55123 0.39282 0.4926 0.0
C249 C 0.53025 0.42027 0.50931 0.0
C250 C 0.47735 0.58752 0.52184 0.0
C251 C 0.634 0.61266 0.5723 0.0
O252 O 0.55826 0.70412 0.6108 0.0
O253 O 0.60018 0.70857 0.68386 0.0
O254 O 0.52104 0.55493 0.65186 0.0
O255 O 0.61468 0.6163 0.68752 0.0
O256 O 0.41056 0.50384 0.60798 0.0
O257 O 0.45897 0.59217 0.63988 0.0
O258 O 0.49809 0.45367 0.58921 0.0
O259 O 0.43218 0.43963 0.52365 0.0
O260 O 0.52433 0.59784 0.55203 0.0
O261 O 0.43175 0.53703 0.51476 0.0
O262 O 0.63634 0.64962 0.59803 0.0
O263 O 0.58507 0.56209 0.56109 0.0
H264 H 0.57903 0.75279 0.74344 0.0
H265 H 0.52244 0.78228 0.76785 0.0
H266 H 0.44517 0.77671 0.62296 0.0
H267 H 0.50375 0.74885 0.5989 0.0
H268 H 0.40469 0.31655 0.53524 0.0
H269 H 0.44044 0.26853 0.50618 0.0
H270 H 0.59261 0.41484 0.48134 0.0
H271 H 0.55608 0.46285 0.5111 0.0
Pr272 Pr 1.01858 0.61551 0.07125 0.0
Pr273 Pr 0.04466 0.55397 0.14178 0.0
C274 C 0.96261 0.63524 0.99864 0.0
C275 C 0.90262 0.62644 0.98822 0.0
C276 C 0.88033 0.63133 1.02487 0.0
C277 C 0.82149 0.61934 1.01513 0.0
C278 C 0.78371 0.60188 0.96859 0.0
C279 C 0.80562 0.59561 0.93212 0.0
C280 C 0.86455 0.60773 0.94191 0.0
C281 C 0.13627 0.67327 0.13352 0.0
C282 C 0.98783 0.61915 0.17243 0.0
C283 C 0.09812 0.5337 0.21598 0.0
C284 C 0.15758 0.54161 0.23034 0.0
C285 C 0.18398 0.53747 0.19656 0.0
C286 C 0.24243 0.54852 0.2104 0.0
C287 C 0.27552 0.56412 0.25823 0.0
C288 C 0.2495 0.56954 0.29183 0.0
C289 C 0.19099 0.55836 0.27795 0.0
C290 C 0.92807 0.49583 0.07822 0.0
C291 C 0.07452 0.54984 0.04011 0.0
O292 O 0.95919 0.59156 0.99652 0.0
O293 O 1.00631 0.67269 0.03485 0.0
O294 O 0.10559 0.62609 0.11232 0.0
O295 O 0.10915 0.69556 0.119 0.0
O296 O 1.01628 0.59695 0.18674 0.0
O297 O 0.97635 0.62456 0.12822 0.0
O298 O 0.10242 0.57777 0.217 0.0
O299 O 0.05648 0.49683 0.17877 0.0
O300 O 0.9574 0.54265 0.10006 0.0
O301 O 0.95608 0.4743 0.09286 0.0
O302 O 0.04545 0.57156 1.02585 0.0
O303 O 0.08719 0.54525 0.08458 0.0
H304 H 0.90831 0.64425 0.06109 0.0
H305 H 0.80576 0.62424 0.04394 0.0
H306 H 0.77808 0.58309 0.89577 0.0
H307 H 0.88045 0.60259 0.91332 0.0
H308 H 0.15954 0.52586 0.15946 0.0
H309 H 0.26098 0.54353 0.18374 0.0
H310 H 0.27433 0.58224 0.3289 0.0
H311 H 0.17196 0.56311 0.30437 0.0
C312 C 0.35604 0.29314 0.38889 0.0
C313 C 0.39114 0.34918 0.3984 0.0
H314 H 0.2874 0.21995 0.40515 0.0
C315 C 0.37399 0.37295 0.42611 0.0
H316 H 0.36387 0.27237 0.36492 0.0
C317 C 0.32806 0.34219 0.44789 0.0
C318 C 0.29882 0.28718 0.44278 0.0
H319 H 0.39819 0.41559 0.43344 0.0
H320 H 0.31865 0.36204 0.47139 0.0
C321 C 0.31113 0.26266 0.41129 0.0
C322 C 0.37838 0.89005 0.91301 0.0
C323 C 0.35626 0.91173 0.88103 0.0
H324 H 0.43008 0.90062 0.9831 0.0
C325 C 0.3598 0.95625 0.89847 0.0
H326 H 0.37499 0.85495 0.90123 0.0
C327 C 0.38915 0.98089 0.94587 0.0
C328 C 0.41566 0.96166 0.97649 0.0
H329 H 0.34391 0.97441 0.87503 0.0
H330 H 0.39559 0.01752 0.9577 0.0
C331 C 0.40883 0.91539 0.96012 0.0
C332 C 0.61197 0.51111 0.78311 0.0
C333 C 0.55448 0.46254 0.77873 0.0
H334 H 0.6619 0.58283 0.75595 0.0
C335 C 0.50487 0.44611 0.73924 0.0
H336 H 0.65107 0.52476 0.81314 0.0
C337 C 0.51108 0.47885 0.70666 0.0
C338 C 0.56701 0.52922 0.71276 0.0
H339 H 0.46021 0.40867 0.73462 0.0
H340 H 0.47097 0.46548 0.67769 0.0
C341 C 0.61805 0.54447 0.75056 0.0
C342 C 0.93914 0.63597 0.27978 0.0
C343 C 0.91007 0.66018 0.26372 0.0
H344 H 0.98641 0.60381 0.26391 0.0
C345 C 0.91177 0.67463 0.21942 0.0
H346 H 0.93745 0.62321 0.31322 0.0
C347 C 0.93876 0.66291 0.19095 0.0
C348 C 0.965 0.6361 0.20564 0.0
H349 H 0.88907 0.69261 0.20566 0.0
H350 H 0.93703 0.67337 0.15654 0.0
C351 C 0.96648 0.62422 0.25115 0.0
C352 C 0.54819 0.32246 0.34831 0.0
C353 C 0.53489 0.35354 0.32277 0.0
H354 H 0.54262 0.25094 0.3456 0.0
C355 C 0.51768 0.34191 0.27352 0.0
H356 H 0.56188 0.33095 0.38634 0.0
C357 C 0.50635 0.29621 0.25029 0.0
C358 C 0.51235 0.26159 0.27593 0.0
H359 H 0.50679 0.36496 0.25293 0.0
H360 H 0.48928 0.28623 0.21228 0.0
C361 C 0.53682 0.27661 0.32503 0.0
C362 C 0.17828 0.9897 0.69107 0.0
C363 C 0.13806 0.93809 0.69887 0.0
H364 H 0.18957 0.06099 0.67491 0.0
C365 C 0.0804 0.92195 0.70319 0.0
H366 H 0.22283 0.00303 0.68729 0.0
C367 C 0.06143 0.95502 0.69648 0.0
C368 C 0.09937 0.00499 0.6847 0.0
H369 H 0.04857 0.88245 0.70941 0.0
H370 H 1.01536 0.93986 0.69769 0.0
C371 C 0.15904 0.0228 0.68387 0.0
C372 C 0.78753 0.469 0.99091 0.0
C373 C 0.76702 0.4226 0.9609 0.0
H374 H 0.85459 0.528 0.05251 0.0
C375 C 0.80502 0.4054 0.9657 0.0
H376 H 0.75922 0.48311 0.9883 0.0
C377 C 0.85825 0.42983 1.00348 0.0
C378 C 0.87523 0.47281 0.03613 0.0
H379 H 0.79054 0.37003 0.94268 0.0
H380 H 0.88479 0.4139 1.00804 0.0
C381 C 0.84142 0.494 1.02824 0.0
C382 C 0.71042 0.62963 0.47591 0.0
C383 C 0.77094 0.67535 0.49718 0.0
H384 H 0.62011 0.57339 0.48337 0.0
C385 C 0.78764 0.69518 0.54561 0.0
H386 H 0.69522 0.61322 0.4388 0.0
C387 C 0.74386 0.67348 0.57067 0.0
C388 C 0.68278 0.62989 0.54862 0.0
H389 H 0.83417 0.72913 0.56392 0.0
H390 H 0.75745 0.69172 0.60704 0.0
C391 C 0.66708 0.60686 0.50149 0.0
C392 C 0.43098 0.59519 0.2602 0.0
C393 C 0.43917 0.56993 0.29634 0.0
H394 H 0.37281 0.61393 0.22007 0.0
C395 C 0.39632 0.54767 0.32242 0.0
H396 H 0.46332 0.61297 0.23963 0.0
C397 C 0.34428 0.54716 0.31064 0.0
C398 C 0.33438 0.57013 0.27323 0.0
H399 H 0.40223 0.52943 0.35153 0.0
H400 H 0.31088 0.52735 0.33016 0.0
C401 C 0.37892 0.59527 0.24873 0.0
C402 C 0.58677 0.21528 0.9533 0.0
C403 C 0.5789 0.25548 0.96066 0.0
H404 H 0.58715 0.15224 0.98 0.0
C405 C 0.56138 0.26063 1.00026 0.0
H406 H 0.60183 0.2115 0.92361 0.0
C407 C 0.55539 0.2283 0.03336 0.0
C408 C 0.56587 0.18962 1.02708 0.0
H409 H 0.55673 0.29225 1.00735 0.0
H410 H 0.54397 0.23448 0.06441 0.0
C411 C 0.5795 0.18214 0.98594 0.0
C412 C 0.96172 0.87527 0.51365 0.0
C413 C 0.92423 0.85245 0.46693 0.0
H414 H 1.00801 0.94038 0.57128 0.0
C415 C 0.91105 0.88312 0.44041 0.0
H416 H 0.9724 0.85261 0.53508 0.0
C417 C 0.93202 0.93432 0.46132 0.0
C418 C 0.96531 0.95495 0.50923 0.0
H419 H 0.88134 0.86623 0.40461 0.0
H420 H 0.9194 0.95641 0.44085 0.0
C421 C 0.98139 0.92539 0.53458 0.0
C422 C 0.40039 0.85024 0.70431 0.0
C423 C 0.37888 0.83476 0.74375 0.0
H424 H 0.45016 0.84731 0.65964 0.0
C425 C 0.38889 0.80071 0.76703 0.0
H426 H 0.39396 0.87689 0.68596 0.0
C427 C 0.4202 0.78302 0.75163 0.0
C428 C 0.44321 0.79941 0.7128 0.0
H429 H 0.3722 0.78745 0.7972 0.0
H430 H 0.42591 0.75614 0.77015 0.0
C431 C 0.4325 0.83307 0.68919 0.0
C432 C 0.69677 0.7137 0.77337 0.0
C433 C 0.66838 0.72454 0.8012 0.0
H434 H 0.75074 0.74111 0.72439 0.0
C435 C 0.68116 0.77522 0.80701 0.0
H436 H 0.68959 0.67569 0.7699 0.0
C437 C 0.71577 0.81215 0.78158 0.0
C438 C 0.73938 0.79968 0.75037 0.0
H439 H 0.66239 0.78572 0.83002 0.0
H440 H 0.72247 0.85004 0.7852 0.0
C441 C 0.73201 0.75111 0.7478 0.0
C442 C 0.75838 0.17122 0.29645 0.0
C443 C 0.7533 0.20265 0.32756 0.0
H444 H 0.73483 0.13548 0.22506 0.0
C445 C 0.73046 0.23072 0.30818 0.0
H446 H 0.77503 0.14849 0.30932 0.0
C447 C 0.70528 0.22151 0.25963 0.0
C448 C 0.70543 0.18633 0.22922 0.0
H449 H 0.7279 0.25702 0.33059 0.0
H450 H 0.68196 0.23905 0.24612 0.0
C451 C 0.73536 0.16373 0.24778 0.0
C452 C 0.44063 0.64087 0.41617 0.0
C453 C 0.50022 0.68471 0.41743 0.0
H454 H 0.3862 0.57419 0.4478 0.0
C455 C 0.54982 0.69996 0.45641 0.0
H456 H 0.4015 0.62911 0.387 0.0
C457 C 0.54106 0.66988 0.49151 0.0
C458 C 0.48257 0.6231 0.48823 0.0
H459 H 0.59614 0.73408 0.45872 0.0
H460 H 0.58104 0.68192 0.52003 0.0
C461 C 0.43193 0.60965 0.45094 0.0
C462 C 0.11758 0.52975 0.93038 0.0
C463 C 0.14858 0.5071 0.94624 0.0
H464 H 0.0701 0.56129 0.94722 0.0
C465 C 0.15025 0.49488 0.99151 0.0
H466 H 0.11639 0.54062 0.89613 0.0
C467 C 0.12473 0.5073 1.02097 0.0
C468 C 0.0965 0.53253 1.00633 0.0
H469 H 0.17416 0.47784 1.00508 0.0
H470 H 0.12896 0.49851 0.05597 0.0
C471 C 0.09174 0.54222 0.96002 0.0
C472 C 0.55716 0.82749 0.86603 0.0
C473 C 0.50325 0.79051 0.87859 0.0
H474 H 0.63033 0.90943 0.8711 0.0
C475 C 0.4776 0.8098 0.9012 0.0
H476 H 0.57771 0.81458 0.84744 0.0
C477 C 0.50762 0.86461 0.91394 0.0
C478 C 0.56397 0.90113 0.90459 0.0
H479 H 0.43644 0.78291 0.91162 0.0
H480 H 0.48888 0.87838 0.93392 0.0
C481 C 0.58736 0.88207 0.8792 0.0
C482 C 0.9017 0.1835 0.47345 0.0
C483 C 0.83883 0.15646 0.4703 0.0
H484 H 0.98382 0.18762 0.49894 0.0
C485 C 0.80977 0.10976 0.48881 0.0
H486 H 0.92537 0.21954 0.45947 0.0
C487 C 0.84276 0.091 0.51061 0.0
C488 C 0.90607 0.11878 0.51513 0.0
H489 H 0.76119 0.08753 0.48636 0.0
H490 H 0.81877 0.0553 0.52498 0.0
C491 C 0.93512 0.16517 0.49604 0.0
C492 C 0.27846 0.69505 0.21255 0.0
C493 C 0.3103 0.74726 0.23715 0.0
H494 H 0.19877 0.63136 0.15976 0.0
C495 C 0.28073 0.77247 0.23169 0.0
H496 H 0.29998 0.67465 0.21554 0.0
C497 C 0.22319 0.74809 0.19872 0.0
C498 C 0.19403 0.69782 0.17138 0.0
H499 H 0.30398 0.81253 0.25068 0.0
H500 H 0.20266 0.76927 0.19349 0.0
C501 C 0.22086 0.67061 0.17997 0.0
C502 C 0.25759 0.46128 0.65771 0.0
C503 C 0.27416 0.48298 0.70564 0.0
H504 H 0.28805 0.46174 0.59697 0.0
C505 C 0.33466 0.52906 0.72617 0.0
H506 H 0.21105 0.42717 0.63972 0.0
C507 C 0.3781 0.55026 0.70067 0.0
C508 C 0.36256 0.52527 0.65435 0.0
H509 H 0.34979 0.54704 0.76275 0.0
H510 H 0.42502 0.58413 0.71835 0.0
C511 C 0.30152 0.48136 0.63281 0.0
C512 C 0.62773 0.56212 0.89931 0.0
C513 C 0.63148 0.60683 0.91557 0.0
H514 H 0.67332 0.52443 0.90434 0.0
C515 C 0.67728 0.64229 0.95676 0.0
H516 H 0.59256 0.5347 0.86758 0.0
C517 C 0.72398 0.63728 0.97745 0.0
C518 C 0.72522 0.59669 0.95706 0.0
H519 H 0.68134 0.67752 0.9694 0.0
H520 H 0.76242 0.66856 1.00606 0.0
C521 C 0.67431 0.5569 0.91997 0.0
C522 C 0.51394 0.94345 0.23804 0.0
C523 C 0.51108 0.89741 0.22937 0.0
H524 H 0.53216 0.01416 0.21456 0.0
C525 C 0.52758 0.88864 0.19047 0.0
H526 H 0.50024 0.95038 0.26737 0.0
C527 C 0.54382 0.92408 0.15938 0.0
C528 C 0.54457 0.96918 0.16712 0.0
H529 H 0.52428 0.85273 0.18257 0.0
H530 H 0.55442 0.91553 0.12877 0.0
C531 C 0.53129 0.97939 0.20748 0.0
C532 C 0.15307 0.28669 0.73662 0.0
C533 C 0.12153 0.30897 0.74112 0.0
H534 H 0.14698 0.21862 0.70931 0.0
C535 C 0.05698 0.27653 0.72393 0.0
H536 H 0.20299 0.3111 0.74898 0.0
C537 C 0.02495 0.22372 0.70061 0.0
C538 C 0.05683 0.20228 0.69411 0.0
H539 H 0.03167 0.29292 0.72602 0.0
H540 H 0.97529 0.20022 0.68629 0.0
C541 C 0.12112 0.23395 0.71348 0.0
C542 C 0.63161 0.30221 0.49375 0.0
C543 C 0.59087 0.2477 0.47372 0.0
H544 H 0.64115 0.37351 0.51555 0.0
C545 C 0.52818 0.22517 0.45356 0.0
H546 H 0.6801 0.32046 0.50973 0.0
C547 C 0.50586 0.2555 0.4563 0.0
C548 C 0.54555 0.30897 0.47995 0.0
H549 H 0.4959 0.18335 0.43739 0.0
H550 H 0.45696 0.23637 0.44155 0.0
C551 C 0.60916 0.33255 0.49698 0.0
loop_
_geom_bond_atom_site_label_1
_geom_bond_atom_site_label_2
_geom_bond_distance
_geom_bond_site_symmetry_2
_ccdc_geom_bond_type
H0 C1 0.949 . S
C1 H0 0.949 . S
C1 C2 1.395 . S
C1 C3 1.391 . S
C2 C1 1.395 . S
C2 C5 1.390 . S
C3 C1 1.391 . S
C3 C7 1.387 . S
C3 C8 1.491 . S
H4 C5 0.950 . S
C5 C2 1.390 . S
C5 H4 0.950 . S
C5 C6 1.378 . S
C6 C5 1.378 . S
C6 C7 1.409 . S
C7 C3 1.387 . S
C7 C6 1.409 . S
C7 H9 0.951 . S
C8 C3 1.491 . S
C8 C10 1.382 . S
C8 C12 1.404 . S
H9 C7 0.951 . S
C10 C8 1.382 . S
C10 C11 1.390 . S
C10 H15 0.949 . S
C11 C10 1.390 . S
C11 C16 1.399 . S
C12 C8 1.404 . S
C12 H13 0.950 . S
C12 C14 1.375 . S
H13 C12 0.950 . S
C14 C12 1.375 . S
C14 C16 1.382 . S
C14 H18 0.950 . S
H15 C10 0.949 . S
C16 C11 1.399 . S
C16 C14 1.382 . S
C16 H17 0.952 . S
H17 C16 0.952 . S
H18 C14 0.950 . S
H19 C20 0.949 . S
C20 H19 0.949 . S
C20 C21 1.395 . S
C20 C22 1.391 . S
C21 C20 1.395 . S
C21 C24 1.390 . S
C22 C20 1.391 . S
C22 C26 1.387 . S
C22 C27 1.491 . S
H23 C24 0.950 . S
C24 C21 1.390 . S
C24 H23 0.950 . S
C24 C25 1.378 . S
C25 C24 1.378 . S
C25 C26 1.409 . S
C26 C22 1.387 . S
C26 C25 1.409 . S
C26 H28 0.951 . S
C27 C22 1.491 . S
C27 C29 1.382 . S
C27 C31 1.404 . S
H28 C26 0.951 . S
C29 C27 1.382 . S
C29 C30 1.390 . S
C29 H34 0.949 . S
C30 C29 1.390 . S
C30 C35 1.399 1_455 S
C31 C27 1.404 . S
C31 H32 0.950 . S
C31 C33 1.375 1_455 S
H32 C31 0.950 . S
C33 C31 1.375 1_655 S
C33 C35 1.382 . S
C33 H37 0.950 . S
H34 C29 0.949 . S
C35 C30 1.399 1_655 S
C35 C33 1.382 . S
C35 H36 0.952 . S
H36 C35 0.952 . S
H37 C33 0.950 . S
H38 C39 0.949 . S
C39 H38 0.949 . S
C39 C40 1.395 . S
C39 C41 1.391 . S
C40 C39 1.395 . S
C40 C43 1.390 . S
C41 C39 1.391 . S
C41 C45 1.387 . S
C41 C46 1.491 . S
H42 C43 0.950 . S
C43 C40 1.390 . S
C43 H42 0.950 . S
C43 C44 1.378 . S
C44 C43 1.378 . S
C44 C45 1.409 . S
C45 C41 1.387 . S
C45 C44 1.409 . S
C45 H47 0.951 . S
C46 C41 1.491 . S
C46 C48 1.382 . S
C46 C50 1.404 . S
H47 C45 0.951 . S
C48 C46 1.382 . S
C48 C49 1.390 . S
C48 H53 0.949 . S
C49 C48 1.390 . S
C49 C54 1.399 . S
C50 C46 1.404 . S
C50 H51 0.950 . S
C50 C52 1.375 . S
H51 C50 0.950 . S
C52 C50 1.375 . S
C52 C54 1.382 . S
C52 H56 0.950 . S
H53 C48 0.949 . S
C54 C49 1.399 . S
C54 C52 1.382 . S
C54 H55 0.952 . S
H55 C54 0.952 . S
H56 C52 0.950 . S
H57 C58 0.949 . S
C58 H57 0.949 . S
C58 C59 1.395 . S
C58 C60 1.391 . S
C59 C58 1.395 . S
C59 C62 1.390 . S
C60 C58 1.391 . S
C60 C64 1.387 . S
C60 C65 1.491 . S
H61 C62 0.950 . S
C62 C59 1.390 . S
C62 H61 0.950 . S
C62 C63 1.378 . S
C63 C62 1.378 . S
C63 C64 1.409 . S
C64 C60 1.387 . S
C64 C63 1.409 . S
C64 H66 0.951 . S
C65 C60 1.491 . S
C65 C67 1.382 . S
C65 C69 1.404 . S
H66 C64 0.951 . S
C67 C65 1.382 . S
C67 C68 1.390 . S
C67 H72 0.949 . S
C68 C67 1.390 . S
C68 C73 1.399 . S
C69 C65 1.404 . S
C69 H70 0.950 . S
C69 C71 1.375 . S
H70 C69 0.950 . S
C71 C69 1.375 . S
C71 C73 1.382 . S
C71 H75 0.950 . S
H72 C67 0.949 . S
C73 C68 1.399 . S
C73 C71 1.382 . S
C73 H74 0.952 . S
H74 C73 0.952 . S
H75 C71 0.950 . S
H76 C77 0.949 . S
C77 H76 0.949 . S
C77 C78 1.395 . S
C77 C79 1.391 . S
C78 C77 1.395 . S
C78 C81 1.390 . S
C79 C77 1.391 . S
C79 C83 1.387 . S
C79 C84 1.491 . S
H80 C81 0.950 . S
C81 C78 1.390 . S
C81 H80 0.950 . S
C81 C82 1.378 . S
C82 C81 1.378 . S
C82 C83 1.409 . S
C83 C79 1.387 . S
C83 C82 1.409 . S
C83 H85 0.951 . S
C84 C79 1.491 . S
C84 C86 1.382 . S
C84 C88 1.404 . S
H85 C83 0.951 . S
C86 C84 1.382 . S
C86 C87 1.390 . S
C86 H91 0.949 . S
C87 C86 1.390 . S
C87 C92 1.399 . S
C88 C84 1.404 . S
C88 H89 0.950 . S
C88 C90 1.375 . S
H89 C88 0.950 . S
C90 C88 1.375 . S
C90 C92 1.382 . S
C90 H94 0.950 . S
H91 C86 0.949 . S
C92 C87 1.399 . S
C92 C90 1.382 . S
C92 H93 0.952 . S
H93 C92 0.952 . S
H94 C90 0.950 . S
H95 C96 0.949 . S
C96 H95 0.949 . S
C96 C97 1.395 . S
C96 C98 1.391 . S
C97 C96 1.395 . S
C97 C100 1.390 . S
C98 C96 1.391 . S
C98 C102 1.387 . S
C98 C103 1.491 . S
H99 C100 0.950 . S
C100 C97 1.390 . S
C100 H99 0.950 . S
C100 C101 1.378 . S
C101 C100 1.378 . S
C101 C102 1.409 . S
C102 C98 1.387 . S
C102 C101 1.409 . S
C102 H104 0.951 . S
C103 C98 1.491 . S
C103 C105 1.382 . S
C103 C107 1.404 . S
H104 C102 0.951 . S
C105 C103 1.382 . S
C105 C106 1.390 . S
C105 H110 0.949 . S
C106 C105 1.390 . S
C106 C111 1.399 . S
C107 C103 1.404 . S
C107 H108 0.950 . S
C107 C109 1.375 . S
H108 C107 0.950 . S
C109 C107 1.375 . S
C109 C111 1.382 . S
C109 H113 0.950 . S
H110 C105 0.949 . S
C111 C106 1.399 . S
C111 C109 1.382 . S
C111 H112 0.952 . S
H112 C111 0.952 . S
H113 C109 0.950 . S
H114 C115 0.949 . S
C115 H114 0.949 . S
C115 C116 1.395 . S
C115 C117 1.391 . S
C116 C115 1.395 . S
C116 C119 1.390 . S
C117 C115 1.391 . S
C117 C121 1.387 . S
C117 C122 1.491 . S
H118 C119 0.950 . S
C119 C116 1.390 . S
C119 H118 0.950 . S
C119 C120 1.378 . S
C120 C119 1.378 . S
C120 C121 1.409 . S
C121 C117 1.387 . S
C121 C120 1.409 . S
C121 H123 0.951 . S
C122 C117 1.491 . S
C122 C124 1.382 . S
C122 C126 1.404 . S
H123 C121 0.951 . S
C124 C122 1.382 . S
C124 C125 1.390 . S
C124 H129 0.949 . S
C125 C124 1.390 . S
C125 C130 1.399 . S
C126 C122 1.404 . S
C126 H127 0.950 . S
C126 C128 1.375 . S
H127 C126 0.950 . S
C128 C126 1.375 . S
C128 C130 1.382 . S
C128 H132 0.950 . S
H129 C124 0.949 . S
C130 C125 1.399 . S
C130 C128 1.382 . S
C130 H131 0.952 . S
H131 C130 0.952 . S
H132 C128 0.950 . S
H133 C134 0.949 . S
C134 H133 0.949 . S
C134 C135 1.395 . S
C134 C136 1.391 . S
C135 C134 1.395 . S
C135 C138 1.390 . S
C136 C134 1.391 . S
C136 C140 1.387 . S
C136 C141 1.491 . S
H137 C138 0.950 . S
C138 C135 1.390 . S
C138 H137 0.950 . S
C138 C139 1.378 . S
C139 C138 1.378 . S
C139 C140 1.409 . S
C140 C136 1.387 . S
C140 C139 1.409 . S
C140 H142 0.951 . S
C141 C136 1.491 . S
C141 C143 1.382 . S
C141 C145 1.404 . S
H142 C140 0.951 . S
C143 C141 1.382 . S
C143 C144 1.390 . S
C143 H148 0.949 . S
C144 C143 1.390 . S
C144 C149 1.399 . S
C145 C141 1.404 . S
C145 H146 0.950 . S
C145 C147 1.375 . S
H146 C145 0.950 . S
C147 C145 1.375 . S
C147 C149 1.382 . S
C147 H151 0.950 . S
H148 C143 0.949 . S
C149 C144 1.399 . S
C149 C147 1.382 . S
C149 H150 0.952 . S
H150 C149 0.952 . S
H151 C147 0.950 . S
Pr152 C154 2.880 1_545 S
Pr152 O172 2.562 1_545 S
Pr152 O173 2.490 1_545 S
Pr152 O174 2.695 1_655 S
Pr152 O175 2.512 1_655 S
Pr152 O177 2.437 1_655 S
Pr152 O180 2.436 1_545 S
Pr152 O182 2.438 . S
Pr153 C163 2.880 . S
Pr153 O174 2.436 . S
Pr153 O176 2.438 . S
Pr153 O178 2.562 . S
Pr153 O179 2.490 . S
Pr153 O180 2.695 1_445 S
Pr153 O181 2.512 1_545 S
Pr153 O183 2.437 . S
C154 Pr152 2.880 1_565 S
C154 C155 1.491 . S
C154 O172 1.254 . S
C154 O173 1.225 . S
C155 C154 1.491 . S
C155 C156 1.392 . S
C155 C160 1.356 . S
C156 C155 1.392 . S
C156 C157 1.368 . S
C156 H184 0.929 . S
C157 C156 1.368 . S
C157 C158 1.386 . S
C157 H185 0.929 . S
C158 C157 1.386 . S
C158 C159 1.373 . S
C159 C158 1.373 . S
C159 C160 1.409 . S
C159 H186 0.931 . S
C160 C155 1.356 . S
C160 C159 1.409 . S
C160 H187 0.930 . S
C161 O174 1.270 . S
C161 O175 1.248 . S
C162 O176 1.267 1_565 S
C162 O177 1.278 1_565 S
C163 Pr153 2.880 . S
C163 C164 1.491 . S
C163 O178 1.254 . S
C163 O179 1.225 . S
C164 C163 1.491 . S
C164 C165 1.392 . S
C164 C169 1.356 . S
C165 C164 1.392 . S
C165 C166 1.368 . S
C165 H188 0.929 . S
C166 C165 1.368 . S
C166 C167 1.386 . S
C166 H189 0.929 . S
C167 C166 1.386 . S
C167 C168 1.373 . S
C168 C167 1.373 . S
C168 C169 1.409 . S
C168 H190 0.931 . S
C169 C164 1.356 . S
C169 C168 1.409 . S
C169 H191 0.930 . S
C170 O180 1.270 . S
C170 O181 1.248 1_655 S
C171 O182 1.267 . S
C171 O183 1.278 1_655 S
O172 Pr152 2.562 1_565 S
O172 C154 1.254 . S
O173 Pr152 2.490 1_565 S
O173 C154 1.225 . S
O174 Pr152 2.695 1_455 S
O174 Pr153 2.436 . S
O174 C161 1.270 . S
O175 Pr152 2.512 1_455 S
O175 C161 1.248 . S
O176 Pr153 2.438 . S
O176 C162 1.267 1_545 S
O177 Pr152 2.437 1_455 S
O177 C162 1.278 1_545 S
O178 Pr153 2.562 . S
O178 C163 1.254 . S
O179 Pr153 2.490 . S
O179 C163 1.225 . S
O180 Pr152 2.436 1_565 S
O180 Pr153 2.695 1_665 S
O180 C170 1.270 . S
O181 Pr153 2.512 1_565 S
O181 C170 1.248 1_455 S
O182 Pr152 2.438 . S
O182 C171 1.267 . S
O183 Pr153 2.437 . S
O183 C171 1.278 1_455 S
H184 C156 0.929 . S
H185 C157 0.929 . S
H186 C159 0.931 . S
H187 C160 0.930 . S
H188 C165 0.929 . S
H189 C166 0.929 . S
H190 C168 0.931 . S
H191 C169 0.930 . S
Pr192 C194 2.880 . S
Pr192 O212 2.562 . S
Pr192 O213 2.490 . S
Pr192 O214 2.695 . S
Pr192 O215 2.512 . S
Pr192 O217 2.437 . S
Pr192 O220 2.436 1_545 S
Pr192 O222 2.438 1_545 S
Pr193 C203 2.880 . S
Pr193 O214 2.436 1_565 S
Pr193 O216 2.438 1_565 S
Pr193 O218 2.562 . S
Pr193 O219 2.490 . S
Pr193 O220 2.695 . S
Pr193 O221 2.512 . S
Pr193 O223 2.437 . S
C194 Pr192 2.880 . S
C194 C195 1.491 . S
C194 O212 1.254 . S
C194 O213 1.225 . S
C195 C194 1.491 . S
C195 C196 1.392 . S
C195 C200 1.356 . S
C196 C195 1.392 . S
C196 C197 1.368 . S
C196 H224 0.929 . S
C197 C196 1.368 . S
C197 C198 1.386 . S
C197 H225 0.929 . S
C198 C197 1.386 . S
C198 C199 1.373 . S
C199 C198 1.373 . S
C199 C200 1.409 . S
C199 H226 0.931 . S
C200 C195 1.356 . S
C200 C199 1.409 . S
C200 H227 0.930 . S
C201 O214 1.270 . S
C201 O215 1.248 . S
C202 O216 1.267 . S
C202 O217 1.278 . S
C203 Pr193 2.880 . S
C203 C204 1.491 . S
C203 O218 1.254 . S
C203 O219 1.225 . S
C204 C203 1.491 . S
C204 C205 1.392 . S
C204 C209 1.356 1_554 S
C205 C204 1.392 . S
C205 C206 1.368 1_554 S
C205 H228 0.929 . S
C206 C205 1.368 1_556 S
C206 C207 1.386 . S
C206 H229 0.929 . S
C207 C206 1.386 . S
C207 C208 1.373 . S
C208 C207 1.373 . S
C208 C209 1.409 . S
C208 H230 0.931 . S
C209 C204 1.356 1_556 S
C209 C208 1.409 . S
C209 H231 0.930 . S
C210 O220 1.270 . S
C210 O221 1.248 . S
C211 O222 1.267 . S
C211 O223 1.278 . S
O212 Pr192 2.562 . S
O212 C194 1.254 . S
O213 Pr192 2.490 . S
O213 C194 1.225 . S
O214 Pr192 2.695 . S
O214 Pr193 2.436 1_545 S
O214 C201 1.270 . S
O215 Pr192 2.512 . S
O215 C201 1.248 . S
O216 Pr193 2.438 1_545 S
O216 C202 1.267 . S
O217 Pr192 2.437 . S
O217 C202 1.278 . S
O218 Pr193 2.562 . S
O218 C203 1.254 . S
O219 Pr193 2.490 . S
O219 C203 1.225 . S
O220 Pr192 2.436 1_565 S
O220 Pr193 2.695 . S
O220 C210 1.270 . S
O221 Pr193 2.512 . S
O221 C210 1.248 . S
O222 Pr192 2.438 1_565 S
O222 C211 1.267 . S
O223 Pr193 2.437 . S
O223 C211 1.278 . S
H224 C196 0.929 . S
H225 C197 0.929 . S
H226 C199 0.931 . S
H227 C200 0.930 . S
H228 C205 0.929 . S
H229 C206 0.929 . S
H230 C208 0.931 . S
H231 C209 0.930 . S
Pr232 C234 2.880 . S
Pr232 O252 2.562 . S
Pr232 O253 2.490 . S
Pr232 O254 2.695 . S
Pr232 O255 2.512 . S
Pr232 O257 2.437 . S
Pr232 O260 2.436 . S
Pr232 O262 2.438 . S
Pr233 C243 2.880 . S
Pr233 O254 2.436 . S
Pr233 O256 2.438 . S
Pr233 O258 2.562 . S
Pr233 O259 2.490 . S
Pr233 O260 2.695 . S
Pr233 O261 2.512 . S
Pr233 O263 2.437 . S
C234 Pr232 2.880 . S
C234 C235 1.491 . S
C234 O252 1.254 . S
C234 O253 1.225 . S
C235 C234 1.491 . S
C235 C236 1.392 . S
C235 C240 1.356 . S
C236 C235 1.392 . S
C236 C237 1.368 . S
C236 H264 0.929 . S
C237 C236 1.368 . S
C237 C238 1.386 . S
C237 H265 0.929 . S
C238 C237 1.386 . S
C238 C239 1.373 . S
C239 C238 1.373 . S
C239 C240 1.409 . S
C239 H266 0.931 . S
C240 C235 1.356 . S
C240 C239 1.409 . S
C240 H267 0.930 . S
C241 O254 1.270 . S
C241 O255 1.248 . S
C242 O256 1.267 . S
C242 O257 1.278 . S
C243 Pr233 2.880 . S
C243 C244 1.491 . S
C243 O258 1.254 . S
C243 O259 1.225 . S
C244 C243 1.491 . S
C244 C245 1.392 . S
C244 C249 1.356 . S
C245 C244 1.392 . S
C245 C246 1.368 . S
C245 H268 0.929 . S
C246 C245 1.368 . S
C246 C247 1.386 . S
C246 H269 0.929 . S
C247 C246 1.386 . S
C247 C248 1.373 . S
C248 C247 1.373 . S
C248 C249 1.409 . S
C248 H270 0.931 . S
C249 C244 1.356 . S
C249 C248 1.409 . S
C249 H271 0.930 . S
C250 O260 1.270 . S
C250 O261 1.248 . S
C251 O262 1.267 . S
C251 O263 1.278 . S
O252 Pr232 2.562 . S
O252 C234 1.254 . S
O253 Pr232 2.490 . S
O253 C234 1.225 . S
O254 Pr232 2.695 . S
O254 Pr233 2.436 . S
O254 C241 1.270 . S
O255 Pr232 2.512 . S
O255 C241 1.248 . S
O256 Pr233 2.438 . S
O256 C242 1.267 . S
O257 Pr232 2.437 . S
O257 C242 1.278 . S
O258 Pr233 2.562 . S
O258 C243 1.254 . S
O259 Pr233 2.490 . S
O259 C243 1.225 . S
O260 Pr232 2.436 . S
O260 Pr233 2.695 . S
O260 C250 1.270 . S
O261 Pr233 2.512 . S
O261 C250 1.248 . S
O262 Pr232 2.438 . S
O262 C251 1.267 . S
O263 Pr233 2.437 . S
O263 C251 1.278 . S
H264 C236 0.929 . S
H265 C237 0.929 . S
H266 C239 0.931 . S
H267 C240 0.930 . S
H268 C245 0.929 . S
H269 C246 0.929 . S
H270 C248 0.931 . S
H271 C249 0.930 . S
Pr272 C274 2.880 . S
Pr272 O292 2.562 1_455 S
Pr272 O293 2.490 . S
Pr272 O294 2.695 1_556 S
Pr272 O295 2.512 1_556 S
Pr272 O297 2.437 1_556 S
Pr272 O300 2.436 1_455 S
Pr272 O302 2.438 . S
Pr273 C283 2.880 . S
Pr273 O294 2.436 . S
Pr273 O296 2.438 . S
Pr273 O298 2.562 . S
Pr273 O299 2.490 . S
Pr273 O300 2.695 1_454 S
Pr273 O301 2.512 1_455 S
Pr273 O303 2.437 . S
C274 Pr272 2.880 . S
C274 C275 1.491 1_455 S
C274 O292 1.254 1_455 S
C274 O293 1.225 . S
C275 C274 1.491 1_655 S
C275 C276 1.392 1_655 S
C275 C280 1.356 . S
C276 C275 1.392 1_455 S
C276 C277 1.368 1_455 S
C276 H304 0.929 . S
C277 C276 1.368 1_655 S
C277 C278 1.386 . S
C277 H305 0.929 1_655 S
C278 C277 1.386 . S
C278 C279 1.373 . S
C279 C278 1.373 . S
C279 C280 1.409 . S
C279 H306 0.931 . S
C280 C275 1.356 . S
C280 C279 1.409 . S
C280 H307 0.930 . S
C281 O294 1.270 . S
C281 O295 1.248 . S
C282 O296 1.267 . S
C282 O297 1.278 . S
C283 Pr273 2.880 . S
C283 C284 1.491 . S
C283 O298 1.254 . S
C283 O299 1.225 . S
C284 C283 1.491 . S
C284 C285 1.392 . S
C284 C289 1.356 . S
C285 C284 1.392 . S
C285 C286 1.368 . S
C285 H308 0.929 . S
C286 C285 1.368 . S
C286 C287 1.386 . S
C286 H309 0.929 . S
C287 C286 1.386 . S
C287 C288 1.373 . S
C288 C287 1.373 . S
C288 C289 1.409 . S
C288 H310 0.931 . S
C289 C284 1.356 . S
C289 C288 1.409 . S
C289 H311 0.930 . S
C290 O300 1.270 . S
C290 O301 1.248 1_556 S
C291 O302 1.267 . S
C291 O303 1.278 1_556 S
O292 Pr272 2.562 1_655 S
O292 C274 1.254 1_655 S
O293 Pr272 2.490 . S
O293 C274 1.225 . S
O294 Pr272 2.695 1_554 S
O294 Pr273 2.436 . S
O294 C281 1.270 . S
O295 Pr272 2.512 1_554 S
O295 C281 1.248 . S
O296 Pr273 2.438 . S
O296 C282 1.267 . S
O297 Pr272 2.437 1_554 S
O297 C282 1.278 . S
O298 Pr273 2.562 . S
O298 C283 1.254 . S
O299 Pr273 2.490 . S
O299 C283 1.225 . S
O300 Pr272 2.436 1_655 S
O300 Pr273 2.695 1_656 S
O300 C290 1.270 . S
O301 Pr273 2.512 1_655 S
O301 C290 1.248 1_554 S
O302 Pr272 2.438 . S
O302 C291 1.267 . S
O303 Pr273 2.437 . S
O303 C291 1.278 1_554 S
H304 C276 0.929 . S
H305 C277 0.929 1_455 S
H306 C279 0.931 . S
H307 C280 0.930 . S
H308 C285 0.929 . S
H309 C286 0.929 . S
H310 C288 0.931 . S
H311 C289 0.930 . S
C312 C313 1.387 . S
C312 H316 0.950 . S
C312 C321 1.390 . S
C313 C312 1.387 . S
C313 C315 1.387 . S
H314 C321 0.950 . S
C315 C313 1.387 . S
C315 C317 1.390 . S
C315 H319 0.950 . S
H316 C312 0.950 . S
C317 C315 1.390 . S
C317 C318 1.387 . S
C317 H320 0.950 . S
C318 C317 1.387 . S
C318 C321 1.387 . S
H319 C315 0.950 . S
H320 C317 0.950 . S
C321 C312 1.390 . S
C321 H314 0.950 . S
C321 C318 1.387 . S
C322 C323 1.387 . S
C322 H326 0.950 . S
C322 C331 1.390 . S
C323 C322 1.387 . S
C323 C325 1.387 . S
H324 C331 0.950 . S
C325 C323 1.387 . S
C325 C327 1.390 . S
C325 H329 0.950 . S
H326 C322 0.950 . S
C327 C325 1.390 . S
C327 C328 1.387 . S
C327 H330 0.950 . S
C328 C327 1.387 . S
C328 C331 1.387 . S
H329 C325 0.950 . S
H330 C327 0.950 . S
C331 C322 1.390 . S
C331 H324 0.950 . S
C331 C328 1.387 . S
C332 C333 1.387 . S
C332 H336 0.950 . S
C332 C341 1.390 . S
C333 C332 1.387 . S
C333 C335 1.387 . S
H334 C341 0.950 . S
C335 C333 1.387 . S
C335 C337 1.390 . S
C335 H339 0.950 . S
H336 C332 0.950 . S
C337 C335 1.390 . S
C337 C338 1.387 . S
C337 H340 0.950 . S
C338 C337 1.387 . S
C338 C341 1.387 . S
H339 C335 0.950 . S
H340 C337 0.950 . S
C341 C332 1.390 . S
C341 H334 0.950 . S
C341 C338 1.387 . S
C342 C343 1.387 . S
C342 H346 0.950 . S
C342 C351 1.390 . S
C343 C342 1.387 . S
C343 C345 1.387 . S
H344 C351 0.950 . S
C345 C343 1.387 . S
C345 C347 1.390 . S
C345 H349 0.950 . S
H346 C342 0.950 . S
C347 C345 1.390 . S
C347 C348 1.387 . S
C347 H350 0.950 . S
C348 C347 1.387 . S
C348 C351 1.387 . S
H349 C345 0.950 . S
H350 C347 0.950 . S
C351 C342 1.390 . S
C351 H344 0.950 . S
C351 C348 1.387 . S
C352 C353 1.387 . S
C352 H356 0.950 . S
C352 C361 1.390 . S
C353 C352 1.387 . S
C353 C355 1.387 . S
H354 C361 0.950 . S
C355 C353 1.387 . S
C355 C357 1.390 . S
C355 H359 0.950 . S
H356 C352 0.950 . S
C357 C355 1.390 . S
C357 C358 1.387 . S
C357 H360 0.950 . S
C358 C357 1.387 . S
C358 C361 1.387 . S
H359 C355 0.950 . S
H360 C357 0.950 . S
C361 C352 1.390 . S
C361 H354 0.950 . S
C361 C358 1.387 . S
C362 C363 1.387 . S
C362 H366 0.950 . S
C362 C371 1.390 . S
C363 C362 1.387 . S
C363 C365 1.387 . S
H364 C371 0.950 . S
C365 C363 1.387 . S
C365 C367 1.390 . S
C365 H369 0.950 . S
H366 C362 0.950 . S
C367 C365 1.390 . S
C367 C368 1.387 . S
C367 H370 0.950 . S
C368 C367 1.387 . S
C368 C371 1.387 . S
H369 C365 0.950 . S
H370 C367 0.950 . S
C371 C362 1.390 . S
C371 H364 0.950 . S
C371 C368 1.387 . S
C372 C373 1.387 . S
C372 H376 0.950 . S
C372 C381 1.390 . S
C373 C372 1.387 . S
C373 C375 1.387 . S
H374 C381 0.950 1_554 S
C375 C373 1.387 . S
C375 C377 1.390 . S
C375 H379 0.950 . S
H376 C372 0.950 . S
C377 C375 1.390 . S
C377 C378 1.387 . S
C377 H380 0.950 . S
C378 C377 1.387 . S
C378 C381 1.387 . S
H379 C375 0.950 . S
H380 C377 0.950 . S
C381 C372 1.390 . S
C381 H374 0.950 1_556 S
C381 C378 1.387 . S
C382 C383 1.387 . S
C382 H386 0.950 . S
C382 C391 1.390 . S
C383 C382 1.387 . S
C383 C385 1.387 . S
H384 C391 0.950 . S
C385 C383 1.387 . S
C385 C387 1.390 . S
C385 H389 0.950 . S
H386 C382 0.950 . S
C387 C385 1.390 . S
C387 C388 1.387 . S
C387 H390 0.950 . S
C388 C387 1.387 . S
C388 C391 1.387 . S
H389 C385 0.950 . S
H390 C387 0.950 . S
C391 C382 1.390 . S
C391 H384 0.950 . S
C391 C388 1.387 . S
C392 C393 1.387 . S
C392 H396 0.950 . S
C392 C401 1.390 . S
C393 C392 1.387 . S
C393 C395 1.387 . S
H394 C401 0.950 . S
C395 C393 1.387 . S
C395 C397 1.390 . S
C395 H399 0.950 . S
H396 C392 0.950 . S
C397 C395 1.390 . S
C397 C398 1.387 . S
C397 H400 0.950 . S
C398 C397 1.387 . S
C398 C401 1.387 . S
H399 C395 0.950 . S
H400 C397 0.950 . S
C401 C392 1.390 . S
C401 H394 0.950 . S
C401 C398 1.387 . S
C402 C403 1.387 . S
C402 H406 0.950 . S
C402 C411 1.390 . S
C403 C402 1.387 . S
C403 C405 1.387 . S
H404 C411 0.950 . S
C405 C403 1.387 . S
C405 C407 1.390 1_556 S
C405 H409 0.950 1_556 S
H406 C402 0.950 . S
C407 C405 1.390 1_554 S
C407 C408 1.387 . S
C407 H410 0.950 . S
C408 C407 1.387 . S
C408 C411 1.387 1_554 S
H409 C405 0.950 1_554 S
H410 C407 0.950 . S
C411 C402 1.390 . S
C411 H404 0.950 . S
C411 C408 1.387 1_556 S
C412 C413 1.387 . S
C412 H416 0.950 . S
C412 C421 1.390 . S
C413 C412 1.387 . S
C413 C415 1.387 . S
H414 C421 0.950 . S
C415 C413 1.387 . S
C415 C417 1.390 . S
C415 H419 0.950 . S
H416 C412 0.950 . S
C417 C415 1.390 . S
C417 C418 1.387 . S
C417 H420 0.950 . S
C418 C417 1.387 . S
C418 C421 1.387 . S
H419 C415 0.950 . S
H420 C417 0.950 . S
C421 C412 1.390 . S
C421 H414 0.950 . S
C421 C418 1.387 . S
C422 C423 1.387 . S
C422 H426 0.950 . S
C422 C431 1.390 . S
C423 C422 1.387 . S
C423 C425 1.387 . S
H424 C431 0.950 . S
C425 C423 1.387 . S
C425 C427 1.390 . S
C425 H429 0.950 . S
H426 C422 0.950 . S
C427 C425 1.390 . S
C427 C428 1.387 . S
C427 H430 0.950 . S
C428 C427 1.387 . S
C428 C431 1.387 . S
H429 C425 0.950 . S
H430 C427 0.950 . S
C431 C422 1.390 . S
C431 H424 0.950 . S
C431 C428 1.387 . S
C432 C433 1.387 . S
C432 H436 0.950 . S
C432 C441 1.390 . S
C433 C432 1.387 . S
C433 C435 1.387 . S
H434 C441 0.950 . S
C435 C433 1.387 . S
C435 C437 1.390 . S
C435 H439 0.950 . S
H436 C432 0.950 . S
C437 C435 1.390 . S
C437 C438 1.387 . S
C437 H440 0.950 . S
C438 C437 1.387 . S
C438 C441 1.387 . S
H439 C435 0.950 . S
H440 C437 0.950 . S
C441 C432 1.390 . S
C441 H434 0.950 . S
C441 C438 1.387 . S
C442 C443 1.387 . S
C442 H446 0.950 . S
C442 C451 1.390 . S
C443 C442 1.387 . S
C443 C445 1.387 . S
H444 C451 0.950 . S
C445 C443 1.387 . S
C445 C447 1.390 . S
C445 H449 0.950 . S
H446 C442 0.950 . S
C447 C445 1.390 . S
C447 C448 1.387 . S
C447 H450 0.950 . S
C448 C447 1.387 . S
C448 C451 1.387 . S
H449 C445 0.950 . S
H450 C447 0.950 . S
C451 C442 1.390 . S
C451 H444 0.950 . S
C451 C448 1.387 . S
C452 C453 1.387 . S
C452 H456 0.950 . S
C452 C461 1.390 . S
C453 C452 1.387 . S
C453 C455 1.387 . S
H454 C461 0.950 . S
C455 C453 1.387 . S
C455 C457 1.390 . S
C455 H459 0.950 . S
H456 C452 0.950 . S
C457 C455 1.390 . S
C457 C458 1.387 . S
C457 H460 0.950 . S
C458 C457 1.387 . S
C458 C461 1.387 . S
H459 C455 0.950 . S
H460 C457 0.950 . S
C461 C452 1.390 . S
C461 H454 0.950 . S
C461 C458 1.387 . S
C462 C463 1.387 . S
C462 H466 0.950 . S
C462 C471 1.390 . S
C463 C462 1.387 . S
C463 C465 1.387 . S
H464 C471 0.950 . S
C465 C463 1.387 . S
C465 C467 1.390 . S
C465 H469 0.950 . S
H466 C462 0.950 . S
C467 C465 1.390 . S
C467 C468 1.387 . S
C467 H470 0.950 . S
C468 C467 1.387 . S
C468 C471 1.387 . S
H469 C465 0.950 . S
H470 C467 0.950 . S
C471 C462 1.390 . S
C471 H464 0.950 . S
C471 C468 1.387 . S
C472 C473 1.387 . S
C472 H476 0.950 . S
C472 C481 1.390 . S
C473 C472 1.387 . S
C473 C475 1.387 . S
H474 C481 0.950 . S
C475 C473 1.387 . S
C475 C477 1.390 . S
C475 H479 0.950 . S
H476 C472 0.950 . S
C477 C475 1.390 . S
C477 C478 1.387 . S
C477 H480 0.950 . S
C478 C477 1.387 . S
C478 C481 1.387 . S
H479 C475 0.950 . S
H480 C477 0.950 . S
C481 C472 1.390 . S
C481 H474 0.950 . S
C481 C478 1.387 . S
C482 C483 1.387 . S
C482 H486 0.950 . S
C482 C491 1.390 . S
C483 C482 1.387 . S
C483 C485 1.387 . S
H484 C491 0.950 . S
C485 C483 1.387 . S
C485 C487 1.390 . S
C485 H489 0.950 . S
H486 C482 0.950 . S
C487 C485 1.390 . S
C487 C488 1.387 . S
C487 H490 0.950 . S
C488 C487 1.387 . S
C488 C491 1.387 . S
H489 C485 0.950 . S
H490 C487 0.950 . S
C491 C482 1.390 . S
C491 H484 0.950 . S
C491 C488 1.387 . S
C492 C493 1.387 . S
C492 H496 0.950 . S
C492 C501 1.390 . S
C493 C492 1.387 . S
C493 C495 1.387 . S
H494 C501 0.950 . S
C495 C493 1.387 . S
C495 C497 1.390 . S
C495 H499 0.950 . S
H496 C492 0.950 . S
C497 C495 1.390 . S
C497 C498 1.387 . S
C497 H500 0.950 . S
C498 C497 1.387 . S
C498 C501 1.387 . S
H499 C495 0.950 . S
H500 C497 0.950 . S
C501 C492 1.390 . S
C501 H494 0.950 . S
C501 C498 1.387 . S
C502 C503 1.387 . S
C502 H506 0.950 . S
C502 C511 1.390 . S
C503 C502 1.387 . S
C503 C505 1.387 . S
H504 C511 0.950 . S
C505 C503 1.387 . S
C505 C507 1.390 . S
C505 H509 0.950 . S
H506 C502 0.950 . S
C507 C505 1.390 . S
C507 C508 1.387 . S
C507 H510 0.950 . S
C508 C507 1.387 . S
C508 C511 1.387 . S
H509 C505 0.950 . S
H510 C507 0.950 . S
C511 C502 1.390 . S
C511 H504 0.950 . S
C511 C508 1.387 . S
C512 C513 1.387 . S
C512 H516 0.950 . S
C512 C521 1.390 . S
C513 C512 1.387 . S
C513 C515 1.387 . S
H514 C521 0.950 . S
C515 C513 1.387 . S
C515 C517 1.390 . S
C515 H519 0.950 . S
H516 C512 0.950 . S
C517 C515 1.390 . S
C517 C518 1.387 . S
C517 H520 0.950 . S
C518 C517 1.387 . S
C518 C521 1.387 . S
H519 C515 0.950 . S
H520 C517 0.950 . S
C521 C512 1.390 . S
C521 H514 0.950 . S
C521 C518 1.387 . S
C522 C523 1.387 . S
C522 H526 0.950 . S
C522 C531 1.390 . S
C523 C522 1.387 . S
C523 C525 1.387 . S
H524 C531 0.950 . S
C525 C523 1.387 . S
C525 C527 1.390 . S
C525 H529 0.950 . S
H526 C522 0.950 . S
C527 C525 1.390 . S
C527 C528 1.387 . S
C527 H530 0.950 . S
C528 C527 1.387 . S
C528 C531 1.387 . S
H529 C525 0.950 . S
H530 C527 0.950 . S
C531 C522 1.390 . S
C531 H524 0.950 . S
C531 C528 1.387 . S
C532 C533 1.387 . S
C532 H536 0.950 . S
C532 C541 1.390 . S
C533 C532 1.387 . S
C533 C535 1.387 . S
H534 C541 0.950 . S
C535 C533 1.387 . S
C535 C537 1.390 . S
C535 H539 0.950 . S
H536 C532 0.950 . S
C537 C535 1.390 . S
C537 C538 1.387 . S
C537 H540 0.950 . S
C538 C537 1.387 . S
C538 C541 1.387 . S
H539 C535 0.950 . S
H540 C537 0.950 . S
C541 C532 1.390 . S
C541 H534 0.950 . S
C541 C538 1.387 . S
C542 C543 1.387 . S
C542 H546 0.950 . S
C542 C551 1.390 . S
C543 C542 1.387 . S
C543 C545 1.387 . S
H544 C551 0.950 . S
C545 C543 1.387 . S
C545 C547 1.390 . S
C545 H549 0.950 . S
H546 C542 0.950 . S
C547 C545 1.390 . S
C547 C548 1.387 . S
C547 H550 0.950 . S
C548 C547 1.387 . S
C548 C551 1.387 . S
H549 C545 0.950 . S
H550 C547 0.950 . S
C551 C542 1.390 . S
C551 H544 0.950 . S
C551 C548 1.387 . S
C313 C6 1.269 . S
C318 C167 1.326 . S
C323 C21 1.805 . S
C328 C211 1.845 1_556 S
C338 C241 2.216 . S
C333 C49 2.111 . S
C343 C68 2.603 . S
C348 C282 2.623 1_655 S
C358 C198 1.792 . S
C353 C2 1.652 . S
C368 C162 2.049 . S
C363 C30 1.997 . S
C378 C290 1.317 . S
C373 C40 1.428 . S
C388 C251 2.409 . S
C383 C63 2.504 . S
C393 C11 1.706 . S
C398 C287 1.629 . S
C408 C201 2.342 . S
C403 C44 2.391 . S
C413 C59 1.547 . S
C418 C170 1.563 . S
C423 C25 2.803 . S
C428 C238 2.699 . S
C438 C158 1.439 . S
C433 C82 1.399 . S
C443 C101 1.508 . S
C448 C202 1.542 . S
C453 C125 1.712 . S
C458 C250 1.983 . S
C463 C144 2.429 . S
C468 C291 2.375 . S
C473 C87 1.003 . S
C478 C207 1.062 . S
C488 C171 2.979 . S
C483 C97 2.915 . S
C498 C281 1.422 . S
C493 C120 1.332 . S
C508 C242 1.821 . S
C503 C135 1.836 . S
C513 C78 2.471 . S
C518 C278 2.518 . S
C528 C210 1.418 . S
C523 C116 1.364 . S
C538 C161 2.094 . S
C533 C139 2.163 . S
C543 C106 1.665 . S
C548 C247 2.111 . S
