# Generated by pormake.
# Topology ssa, (4,4)-cn, num edge types: 1
# Building blocks:
#     Node 0, Type 0, BuildingBlock: KOZSID_clean_sbu_0, # of connection points: 4
#     Node 1, Type 0, BuildingBlock: KOZSID_clean_sbu_0, # of connection points: 4
#     Node 2, Type 0, BuildingBlock: KOZSID_clean_sbu_0, # of connection points: 4
#     Node 3, Type 0, BuildingBlock: KOZSID_clean_sbu_0, # of connection points: 4
#     Node 4, Type 0, BuildingBlock: KOZSID_clean_sbu_0, # of connection points: 4
#     Node 5, Type 0, BuildingBlock: KOZSID_clean_sbu_0, # of connection points: 4
#     Node 6, Type 1, BuildingBlock: GIZVER_clean_linker_0, # of connection points: 4
#     Node 7, Type 1, BuildingBlock: GIZVER_clean_linker_0, # of connection points: 4
#     Node 8, Type 1, BuildingBlock: GIZVER_clean_linker_0, # of connection points: 4
#     Node 9, Type 1, BuildingBlock: GIZVER_clean_linker_0, # of connection points: 4
#     Node 10, Type 1, BuildingBlock: GIZVER_clean_linker_0, # of connection points: 4
#     Node 11, Type 1, BuildingBlock: GIZVER_clean_linker_0, # of connection points: 4
#     Edge 12, Type (0, 1), BuildingBlock: OJICUG_clean_linker_0, # of connection points: 2
#     Edge 13, Type (0, 1), BuildingBlock: OJICUG_clean_linker_0, # of connection points: 2
#     Edge 14, Type (0, 1), BuildingBlock: OJICUG_clean_linker_0, # of connection points: 2
#     Edge 15, Type (0, 1), BuildingBlock: OJICUG_clean_linker_0, # of connection points: 2
#     Edge 16, Type (0, 1), BuildingBlock: OJICUG_clean_linker_0, # of connection points: 2
#     Edge 17, Type (0, 1), BuildingBlock: OJICUG_clean_linker_0, # of connection points: 2
#     Edge 18, Type (0, 1), BuildingBlock: OJICUG_clean_linker_0, # of connection points: 2
#     Edge 19, Type (0, 1), BuildingBlock: OJICUG_clean_linker_0, # of connection points: 2
#     Edge 20, Type (0, 1), BuildingBlock: OJICUG_clean_linker_0, # of connection points: 2
#     Edge 21, Type (0, 1), BuildingBlock: OJICUG_clean_linker_0, # of connection points: 2
#     Edge 22, Type (0, 1), BuildingBlock: OJICUG_clean_linker_0, # of connection points: 2
#     Edge 23, Type (0, 1), BuildingBlock: OJICUG_clean_linker_0, # of connection points: 2
#     Edge 24, Type (0, 1), BuildingBlock: OJICUG_clean_linker_0, # of connection points: 2
#     Edge 25, Type (0, 1), BuildingBlock: OJICUG_clean_linker_0, # of connection points: 2
#     Edge 26, Type (0, 1), BuildingBlock: OJICUG_clean_linker_0, # of connection points: 2
#     Edge 27, Type (0, 1), BuildingBlock: OJICUG_clean_linker_0, # of connection points: 2
#     Edge 28, Type (0, 1), BuildingBlock: OJICUG_clean_linker_0, # of connection points: 2
#     Edge 29, Type (0, 1), BuildingBlock: OJICUG_clean_linker_0, # of connection points: 2
#     Edge 30, Type (0, 1), BuildingBlock: OJICUG_clean_linker_0, # of connection points: 2
#     Edge 31, Type (0, 1), BuildingBlock: OJICUG_clean_linker_0, # of connection points: 2
#     Edge 32, Type (0, 1), BuildingBlock: OJICUG_clean_linker_0, # of connection points: 2
#     Edge 33, Type (0, 1), BuildingBlock: OJICUG_clean_linker_0, # of connection points: 2
#     Edge 34, Type (0, 1), BuildingBlock: OJICUG_clean_linker_0, # of connection points: 2
#     Edge 35, Type (0, 1), BuildingBlock: OJICUG_clean_linker_0, # of connection points: 2
# Relax obj value: 0.006
# Max RMSD: 0.036
# Mean RMSD: 0.020
data_MOF--net-ssa--node1-KOZSID_clean_sbu_0--node2-GIZVER_clean_linker_0--edge1-OJICUG_clean_linker_0
_symmetry_space_group_name_H-M    P1
_symmetry_Int_Tables_number       1
_symmetry_cell_setting            triclinic
loop_
_symmetry_equiv_pos_as_xyz
'x, y, z'
_cell_length_a     44.962172
_cell_length_b     46.334434
_cell_length_c     24.681508
_cell_angle_alpha  85.802618
_cell_angle_beta   89.835992
_cell_angle_gamma 122.99208
loop_
_atom_site_label
_atom_site_type_symbol
_atom_site_fract_x
_atom_site_fract_y
_atom_site_fract_z
_atom_type_partial_charge
C0 C 0.94628 0.51854 0.01482 0.0
C1 C 0.92017 0.51222 0.05286 0.0
C2 C 0.92461 0.49698 0.09878 0.0
C3 C 0.95307 0.49491 0.08612 0.0
N4 N 0.96747 0.50837 0.03516 0.0
Co5 Co 0.00816 0.50921 -0.00088 0.0
N6 N 0.01328 0.48478 0.06539 0.0
C7 C 0.99327 0.4737 0.11256 0.0
C8 C 0.00438 0.45979 0.152 0.0
C9 C 0.03351 0.46251 0.12905 0.0
C10 C 0.03845 0.47781 0.07642 0.0
N11 N 0.0487 0.50988 0.96296 0.0
C12 C 0.0701 0.50001 0.9834 0.0
C13 C 0.09556 0.50546 0.94478 0.0
C14 C 0.09069 0.52013 0.8986 0.0
C15 C 0.06256 0.52263 0.91155 0.0
N16 N 0.00328 0.53387 0.93301 0.0
C17 C 0.02342 0.5452 0.88597 0.0
C18 C 0.01319 0.56044 0.84735 0.0
C19 C 0.98456 0.55845 0.87083 0.0
C20 C 0.97897 0.54205 0.92273 0.0
N21 N 0.0426 0.55437 0.02749 0.0
C22 C 0.09385 0.61614 0.07107 0.0
C23 C 0.09809 0.61045 0.01773 0.0
C24 C 0.072 0.57984 0.99657 0.0
C25 C 0.06325 0.5909 0.10177 0.0
C26 C 0.03836 0.5604 0.07958 0.0
N27 N 0.97367 0.464 0.97074 0.0
C28 C 0.95209 0.42794 0.89586 0.0
C29 C 0.92215 0.40225 0.92732 0.0
C30 C 0.91869 0.40745 0.98126 0.0
C31 C 0.94494 0.43806 0.00231 0.0
C32 C 0.97709 0.45843 0.91798 0.0
H33 H 0.94109 0.4403 0.04396 0.0
H34 H 0.99855 0.47737 0.89116 0.0
H35 H 0.0765 0.57717 0.9554 0.0
H36 H 0.01631 0.5418 0.10584 0.0
C37 C 0.96593 0.47912 0.12014 0.0
C38 C 0.94901 0.53305 0.95937 0.0
C39 C 0.06855 0.48708 0.03961 0.0
C40 C 0.05021 0.53908 0.87788 0.0
H41 H 0.89967 0.51755 0.04751 0.0
H42 H 0.90852 0.48776 0.13644 0.0
H43 H 0.9934 0.45002 0.19327 0.0
H44 H 0.04975 0.45496 0.14963 0.0
H45 H 0.11611 0.50018 0.95001 0.0
H46 H 0.10649 0.52896 0.86068 0.0
H47 H 0.02453 0.57083 0.80639 0.0
H48 H 0.96904 0.5673 0.8514 0.0
H49 H 0.12143 0.62948 0.99253 0.0
H50 H 0.05914 0.59409 0.14364 0.0
H51 H 0.95557 0.42506 0.85355 0.0
H52 H 0.89587 0.38803 0.00703 0.0
C53 C 0.55733 0.03629 0.59535 0.0
C54 C 0.55992 0.03123 0.65088 0.0
C55 C 0.52839 0.00232 0.66984 0.0
C56 C 0.50831 0.99144 0.62515 0.0
N57 N 0.52528 0.01137 0.57853 0.0
Co58 Co 0.50494 0.00635 0.50498 0.0
N59 N 0.45753 0.96532 0.53381 0.0
C60 C 0.44839 0.95079 0.5857 0.0
C61 C 0.41454 0.92203 0.59272 0.0
C62 C 0.4014 0.91748 0.54211 0.0
C63 C 0.42816 0.94383 0.50709 0.0
N64 N 0.48454 1.00165 0.43156 0.0
C65 C 0.4524 0.977 0.41469 0.0
C66 C 0.44957 0.98274 0.35943 0.0
C67 C 0.48098 0.01186 0.34079 0.0
C68 C 0.50125 0.02218 0.3853 0.0
N69 N 0.55248 0.04709 0.47593 0.0
C70 C 0.56184 0.06118 0.42384 0.0
C71 C 0.59597 0.08942 0.41647 0.0
C72 C 0.60914 0.09406 0.46704 0.0
C73 C 0.58206 0.06833 0.50239 0.0
N74 N 0.51963 0.97434 0.4882 0.0
C75 C 0.53241 0.92421 0.4586 0.0
C76 C 0.54253 0.95347 0.42348 0.0
C77 C 0.53582 0.97789 0.43883 0.0
C78 C 0.51727 0.9212 0.50979 0.0
C79 C 0.51175 0.94671 0.52402 0.0
N80 N 0.49009 0.03827 0.5218 0.0
C81 C 0.49335 0.09201 0.50228 0.0
C82 C 0.4749 0.08679 0.55136 0.0
C83 C 0.463 0.05632 0.58432 0.0
C84 C 0.471 0.03277 0.56912 0.0
C85 C 0.50006 0.0673 0.48795 0.0
H86 H 0.46225 0.01079 0.59714 0.0
H87 H 0.51402 0.07266 0.44983 0.0
H88 H 0.54301 0.99888 0.40938 0.0
H89 H 0.50032 0.94306 0.56375 0.0
C90 C 0.47284 0.96388 0.62633 0.0
C91 C 0.58523 0.06615 0.56099 0.0
C92 C 0.42479 0.94665 0.44858 0.0
C93 C 0.537 0.04902 0.38373 0.0
H94 H 0.58193 0.04725 0.67555 0.0
H95 H 0.52063 0.99119 0.71156 0.0
H96 H 0.40132 0.9058 0.62994 0.0
H97 H 0.37533 0.89676 0.53185 0.0
H98 H 0.42758 0.96702 0.33457 0.0
H99 H 0.48867 0.02338 0.29929 0.0
H100 H 0.60928 0.10543 0.37911 0.0
H101 H 0.63538 0.11458 0.47707 0.0
H102 H 0.55413 0.95679 0.38314 0.0
H103 H 0.50937 0.89909 0.53851 0.0
H104 H 0.5029 0.11523 0.47536 0.0
H105 H 0.44896 0.05138 0.62311 0.0
C106 C 0.58262 0.5503 0.93097 0.0
C107 C 0.59707 0.5689 0.88078 0.0
C108 C 0.57108 0.57096 0.85617 0.0
C109 C 0.54231 0.55355 0.89244 0.0
N110 N 0.54846 0.54079 0.93905 0.0
Co111 Co 0.51374 0.5132 0.00213 0.0
N112 N 0.47425 0.51239 0.96284 0.0
C113 C 0.47592 0.5257 0.91142 0.0
C114 C 0.44465 0.5215 0.89584 0.0
C115 C 0.42174 0.50501 0.94026 0.0
C116 C 0.44056 0.5003 0.98052 0.0
N117 N 0.47924 0.48645 0.06582 0.0
C118 C 0.44542 0.47791 0.07437 0.0
C119 C 0.43187 0.4618 0.12632 0.0
C120 C 0.45803 0.46032 0.15145 0.0
C121 C 0.48606 0.47571 0.1139 0.0
N122 N 0.55302 0.51307 0.04066 0.0
C123 C 0.551 0.49844 0.09118 0.0
C124 C 0.58169 0.5009 0.10548 0.0
C125 C 0.60454 0.51751 0.06102 0.0
C126 C 0.58633 0.52421 0.02216 0.0
N127 N 0.52639 0.55686 0.03297 0.0
C128 C 0.53747 0.61502 0.0814 0.0
C129 C 0.54369 0.59167 0.10935 0.0
C130 C 0.53779 0.56293 0.08481 0.0
C131 C 0.52674 0.60954 0.02816 0.0
C132 C 0.52207 0.58084 0.0045 0.0
N133 N 0.5009 0.46952 0.9715 0.0
C134 C 0.49013 0.41208 0.98243 0.0
C135 C 0.48465 0.40854 0.92717 0.0
C136 C 0.48725 0.43571 0.89442 0.0
C137 C 0.49569 0.46587 0.9171 0.0
C138 C 0.49772 0.44245 0.00378 0.0
H139 H 0.49818 0.48599 0.88972 0.0
H140 H 0.50109 0.44348 0.04641 0.0
H141 H 0.54182 0.54563 0.10928 0.0
H142 H 0.51433 0.57834 0.96349 0.0
C143 C 0.50825 0.54531 0.88122 0.0
C144 C 0.6014 0.54004 0.96764 0.0
C145 C 0.42608 0.48655 0.03595 0.0
C146 C 0.51953 0.48182 0.12351 0.0
H147 H 0.62327 0.57899 0.86284 0.0
H148 H 0.5725 0.58242 0.81564 0.0
H149 H 0.43958 0.53068 0.8576 0.0
H150 H 0.39462 0.49828 0.94346 0.0
H151 H 0.40617 0.45286 0.14502 0.0
H152 H 0.45708 0.45019 0.19281 0.0
H153 H 0.58659 0.49113 0.14327 0.0
H154 H 0.63137 0.52351 0.05711 0.0
H155 H 0.55172 0.59479 0.151 0.0
H156 H 0.52187 0.62721 0.00498 0.0
H157 H 0.48828 0.39145 0.00905 0.0
H158 H 0.48344 0.43393 0.85116 0.0
C159 C 0.94477 0.43629 0.48681 0.0
C160 C 0.91893 0.41711 0.45082 0.0
C161 C 0.92618 0.43861 0.40495 0.0
C162 C 0.9559 0.4695 0.41559 0.0
N163 N 0.9686 0.46891 0.465 0.0
Co164 Co 0.0099 0.50883 0.49828 0.0
N165 N 0.0197 0.54087 0.43173 0.0
C166 C 1.00242 0.53249 0.38492 0.0
C167 C 0.01677 0.55908 0.34467 0.0
C168 C 0.04531 0.58599 0.36665 0.0
C169 C 0.04657 0.57431 0.4196 0.0
N170 N 0.05007 0.5491 0.53262 0.0
C171 C 0.07308 0.58215 0.5118 0.0
C172 C 0.09692 0.60202 0.54962 0.0
C173 C 0.08918 0.58056 0.59575 0.0
C174 C 0.06104 0.54903 0.58356 0.0
N175 N 1.00116 0.47644 0.56382 0.0
C176 C 0.02061 0.48408 0.60849 0.0
C177 C 0.00793 0.45679 0.64725 0.0
C178 C 0.97851 0.43017 0.62633 0.0
C179 C 0.97491 0.44274 0.57556 0.0
N180 N 0.04326 0.4981 0.4671 0.0
C181 C 0.0918 0.48537 0.42029 0.0
C182 C 0.09744 0.49864 0.47083 0.0
C183 C 0.07273 0.50432 0.49371 0.0
C184 C 0.06132 0.47807 0.39398 0.0
C185 C 0.03779 0.48482 0.41763 0.0
N186 N 0.97645 0.51935 0.52954 0.0
C187 C 0.94835 0.52438 0.6085 0.0
C188 C 0.92476 0.52757 0.57623 0.0
C189 C 0.92807 0.52793 0.52004 0.0
C190 C 0.95398 0.5237 0.49759 0.0
C191 C 0.974 0.52066 0.58451 0.0
H192 H 0.95491 0.52344 0.45448 0.0
H193 H 0.99113 0.5183 0.61146 0.0
H194 H 0.07836 0.51414 0.53262 0.0
H195 H 0.01574 0.47963 0.39451 0.0
C196 C 0.97287 0.49937 0.37986 0.0
C197 C 0.94479 0.42265 0.54182 0.0
C198 C 0.07474 0.59535 0.45577 0.0
C199 C 0.04734 0.51812 0.61623 0.0
H200 H 0.89685 0.39045 0.45744 0.0
H201 H 0.91137 0.43256 0.36844 0.0
H202 H 0.00795 0.55874 0.30382 0.0
H203 H 0.06344 0.61108 0.34537 0.0
H204 H 0.11837 0.62898 0.54378 0.0
H205 H 0.10334 0.58684 0.63291 0.0
H206 H 0.01782 0.45674 0.68717 0.0
H207 H 0.9611 0.40483 0.64733 0.0
H208 H 0.12082 0.50472 0.49249 0.0
H209 H 0.05627 0.46837 0.35415 0.0
H210 H 0.94678 0.52447 0.65232 0.0
H211 H 0.91028 0.53061 0.49381 0.0
C212 C 0.45296 0.98234 0.08772 0.0
C213 C 0.44545 0.98565 0.14073 0.0
C214 C 0.4764 0.0116 0.1594 0.0
C215 C 0.50103 0.02244 0.11724 0.0
N216 N 0.48756 0.00557 0.07217 0.0
Co217 Co 0.51476 0.01081 0.00363 0.0
N218 N 0.56072 0.04738 0.03256 0.0
C219 C 0.56538 0.06086 0.08095 0.0
C220 C 0.59965 0.08725 0.08792 0.0
C221 C 0.61785 0.09149 0.04054 0.0
C222 C 0.59347 0.06729 0.00752 0.0
N223 N 0.54214 0.0146 0.93634 0.0
C224 C 0.57707 0.03657 0.92168 0.0
C225 C 0.58517 0.03054 0.87105 0.0
C226 C 0.55422 0.00416 0.85296 0.0
C227 C 0.52903 0.99553 0.89329 0.0
N228 N 0.46858 0.97558 0.97358 0.0
C229 C 0.46352 0.9647 0.92308 0.0
C230 C 0.4288 0.94008 0.91449 0.0
C231 C 0.41068 0.93457 0.96264 0.0
C232 C 0.43557 0.95613 0.99789 0.0
N233 N 0.50894 0.048 0.97176 0.0
C234 C 0.50584 0.10335 0.92452 0.0
C235 C 0.50581 0.07981 0.89245 0.0
C236 C 0.50687 0.05231 0.91669 0.0
C237 C 0.50653 0.09847 0.98074 0.0
C238 C 0.50846 0.07095 0.0034 0.0
N239 N 0.52085 0.9738 0.03517 0.0
C240 C 0.5128 0.91785 0.03168 0.0
C241 C 0.52963 0.92149 0.0804 0.0
C242 C 0.54189 0.95161 0.10617 0.0
C243 C 0.53702 0.97706 0.08332 0.0
C244 C 0.50902 0.94429 0.00964 0.0
H245 H 0.5462 0.99895 0.10575 0.0
H246 H 0.49624 0.94012 0.97209 0.0
H247 H 0.5062 0.03504 0.88985 0.0
H248 H 0.50987 0.06904 0.04648 0.0
C249 C 0.53702 0.04811 0.11888 0.0
C250 C 0.42708 0.95533 0.05508 0.0
C251 C 0.60226 0.06571 0.95157 0.0
C252 C 0.49243 0.97379 0.88825 0.0
H253 H 0.42049 0.97047 0.16425 0.0
H254 H 0.48061 0.02092 0.19938 0.0
H255 H 0.61 0.10206 0.12285 0.0
H256 H 0.6457 0.11069 0.03071 0.0
H257 H 0.61039 0.04458 0.84817 0.0
H258 H 0.55022 0.99389 0.81372 0.0
H259 H 0.41824 0.92636 0.87857 0.0
H260 H 0.38262 0.91588 0.97165 0.0
H261 H 0.50453 0.0824 0.84864 0.0
H262 H 0.50623 0.1161 0.00689 0.0
H263 H 0.50271 0.89478 0.01059 0.0
H264 H 0.55432 0.95512 0.1448 0.0
C265 C 0.52504 0.57283 0.5238 0.0
C266 C 0.52225 0.59091 0.56373 0.0
C267 C 0.50453 0.56758 0.60768 0.0
C268 C 0.49776 0.5368 0.59219 0.0
N269 N 0.51057 0.5392 0.54128 0.0
Co270 Co 0.50677 0.50088 0.50253 0.0
N271 N 0.47586 0.46571 0.56337 0.0
C272 C 0.46233 0.47102 0.60774 0.0
C273 C 0.44201 0.44181 0.64247 0.0
C274 C 0.44305 0.41651 0.6192 0.0
C275 C 0.46413 0.43186 0.57149 0.0
N276 N 0.50491 0.46281 0.46548 0.0
C277 C 0.49264 0.42991 0.48502 0.0
C278 C 0.49963 0.41271 0.44853 0.0
C279 C 0.51766 0.43585 0.40453 0.0
C280 C 0.52071 0.4657 0.41693 0.0
N281 N 0.53581 0.53576 0.4401 0.0
C282 C 0.54568 0.52957 0.39272 0.0
C283 C 0.56249 0.55776 0.35532 0.0
C284 C 0.56267 0.58332 0.37969 0.0
C285 C 0.54614 0.56928 0.4311 0.0
N286 N 0.55013 0.509 0.53743 0.0
C287 C 0.60891 0.51466 0.58778 0.0
C288 C 0.60946 0.52032 0.53144 0.0
C289 C 0.57977 0.51703 0.50713 0.0
C290 C 0.57912 0.50723 0.61859 0.0
C291 C 0.55049 0.50499 0.59292 0.0
N292 N 0.46326 0.49257 0.46771 0.0
C293 C 0.42565 0.47568 0.39113 0.0
C294 C 0.40325 0.48345 0.41615 0.0
C295 C 0.41102 0.49545 0.46765 0.0
C296 C 0.44067 0.49933 0.49287 0.0
C297 C 0.45539 0.48064 0.41717 0.0
H298 H 0.44485 0.50818 0.53249 0.0
H299 H 0.47187 0.47515 0.3951 0.0
H300 H 0.58128 0.52072 0.46381 0.0
H301 H 0.52882 0.49971 0.61892 0.0
C302 C 0.47441 0.50452 0.62024 0.0
C303 C 0.53863 0.5879 0.46848 0.0
C304 C 0.47572 0.41448 0.5387 0.0
C305 C 0.5386 0.49696 0.3845 0.0
H306 H 0.53073 0.6178 0.56036 0.0
H307 H 0.49575 0.5721 0.64517 0.0
H308 H 0.42983 0.43966 0.68171 0.0
H309 H 0.43115 0.39021 0.63675 0.0
H310 H 0.49295 0.38639 0.45384 0.0
H311 H 0.52806 0.43167 0.36842 0.0
H312 H 0.57264 0.55931 0.31465 0.0
H313 H 0.57306 0.60906 0.36084 0.0
H314 H 0.63233 0.52652 0.50629 0.0
H315 H 0.57807 0.5035 0.66259 0.0
H316 H 0.4209 0.46684 0.3507 0.0
H317 H 0.39428 0.50176 0.48842 0.0
H318 H 0.22657 0.51683 0.11404 0.0
H319 H 0.23489 0.51064 0.288 0.0
H320 H 0.13281 0.46686 0.2197 0.0
H321 H 0.28365 0.55104 0.15242 0.0
H322 H 0.28623 0.55484 0.22383 0.0
H323 H 0.30108 0.51642 0.11198 0.0
H324 H 0.34098 0.46721 0.21358 0.0
H325 H 0.28977 0.5115 0.28669 0.0
C326 C 0.21412 0.50719 0.15462 0.0
C327 C 0.17705 0.48969 0.16181 0.0
C328 C 0.23522 0.51382 0.20007 0.0
C329 C 0.21879 0.50363 0.2528 0.0
C330 C 0.18173 0.4862 0.26017 0.0
C331 C 0.16121 0.47849 0.21437 0.0
C332 C 0.27527 0.53577 0.19277 0.0
C333 C 0.29132 0.51435 0.19867 0.0
C334 C 0.30366 0.50715 0.15218 0.0
C335 C 0.32113 0.48967 0.15773 0.0
C336 C 0.32558 0.47884 0.20968 0.0
C337 C 0.31479 0.48683 0.25646 0.0
C338 C 0.2973 0.50435 0.25078 0.0
H339 H 0.70815 0.21853 0.64652 0.0
H340 H 0.71821 0.2208 0.82008 0.0
H341 H 0.66679 0.12421 0.74896 0.0
H342 H 0.72611 0.27087 0.68889 0.0
H343 H 0.72325 0.26984 0.76117 0.0
H344 H 0.78223 0.29189 0.64092 0.0
H345 H 0.87659 0.34013 0.73047 0.0
H346 H 0.7745 0.28147 0.81645 0.0
C347 C 0.70506 0.20532 0.68626 0.0
C348 C 0.68706 0.16906 0.69201 0.0
C349 C 0.71751 0.22436 0.73227 0.0
C350 C 0.71097 0.20669 0.78414 0.0
C351 C 0.69323 0.17063 0.78997 0.0
C352 C 0.6824 0.15225 0.74379 0.0
C353 C 0.7338 0.26287 0.72715 0.0
C354 C 0.77377 0.28275 0.72856 0.0
C355 C 0.79474 0.29607 0.67957 0.0
C356 C 0.83183 0.31635 0.68052 0.0
C357 C 0.84795 0.32272 0.73037 0.0
C358 C 0.82772 0.31068 0.77972 0.0
C359 C 0.79046 0.29033 0.77863 0.0
H360 H 0.50704 0.7207 0.20508 0.0
H361 H 0.50442 0.70759 0.38022 0.0
H362 H 0.5549 0.67114 0.2843 0.0
H363 H 0.46285 0.72288 0.26435 0.0
H364 H 0.46632 0.72274 0.33627 0.0
H365 H 0.50413 0.77519 0.20335 0.0
H366 H 0.55146 0.87117 0.2757 0.0
H367 H 0.50518 0.77628 0.37805 0.0
C368 C 0.51502 0.713 0.24187 0.0
C369 C 0.53347 0.69651 0.23831 0.0
C370 C 0.50529 0.71803 0.29307 0.0
C371 C 0.51359 0.70574 0.34075 0.0
C372 C 0.53202 0.68935 0.33742 0.0
C373 C 0.54257 0.68571 0.28639 0.0
C374 C 0.48224 0.73236 0.29694 0.0
C375 C 0.50395 0.7714 0.29129 0.0
C376 C 0.51253 0.78937 0.23922 0.0
C377 C 0.53019 0.82547 0.23353 0.0
C378 C 0.53984 0.84351 0.28013 0.0
C379 C 0.53077 0.82622 0.33237 0.0
C380 C 0.51307 0.79001 0.33785 0.0
H381 H 0.76256 0.56233 0.70244 0.0
H382 H 0.75871 0.57328 0.87408 0.0
H383 H 0.66234 0.51736 0.79006 0.0
H384 H 0.81505 0.60996 0.75052 0.0
H385 H 0.81468 0.60647 0.823 0.0
H386 H 0.82019 0.56894 0.69704 0.0
H387 H 0.869 0.52079 0.77679 0.0
H388 H 0.83076 0.56953 0.87088 0.0
C389 C 0.7475 0.55619 0.74059 0.0
C390 C 0.71028 0.53703 0.74121 0.0
C391 C 0.76528 0.56848 0.78883 0.0
C392 C 0.74531 0.56244 0.83741 0.0
C393 C 0.70804 0.54354 0.83808 0.0
C394 C 0.69099 0.53037 0.79022 0.0
C395 C 0.80539 0.59107 0.7871 0.0
C396 C 0.82183 0.57007 0.78466 0.0
C397 C 0.82754 0.56094 0.73421 0.0
C398 C 0.84391 0.54251 0.73151 0.0
C399 C 0.85456 0.53332 0.77937 0.0
C400 C 0.85042 0.54325 0.82956 0.0
C401 C 0.83363 0.56135 0.83226 0.0
H402 H 0.30402 0.79977 0.17616 0.0
H403 H 0.30533 0.79693 0.35108 0.0
H404 H 0.35282 0.89398 0.25422 0.0
H405 H 0.29368 0.74844 0.23227 0.0
H406 H 0.29173 0.74657 0.30471 0.0
H407 H 0.24194 0.73707 0.17979 0.0
H408 H 0.14085 0.6787 0.26866 0.0
H409 H 0.23649 0.72691 0.3553 0.0
C410 C 0.30976 0.81288 0.21303 0.0
C411 C 0.32822 0.84904 0.20941 0.0
C412 C 0.30049 0.79375 0.26414 0.0
C413 C 0.31061 0.81131 0.31174 0.0
C414 C 0.3291 0.84754 0.30833 0.0
C415 C 0.33676 0.86595 0.25716 0.0
C416 C 0.28377 0.75519 0.26742 0.0
C417 C 0.24378 0.73578 0.26751 0.0
C418 C 0.22643 0.72827 0.21806 0.0
C419 C 0.18914 0.70793 0.2181 0.0
C420 C 0.16952 0.69607 0.26801 0.0
C421 C 0.18627 0.70257 0.31738 0.0
C422 C 0.22345 0.72268 0.31713 0.0
H423 H 0.43852 0.257 0.82783 0.0
H424 H 0.44563 0.26478 0.65235 0.0
H425 H 0.48817 0.3561 0.73739 0.0
H426 H 0.40385 0.20563 0.77972 0.0
H427 H 0.4016 0.2095 0.7076 0.0
H428 H 0.45644 0.20699 0.81992 0.0
H429 H 0.49851 0.16243 0.72328 0.0
H430 H 0.43379 0.19478 0.65029 0.0
C431 C 0.4481 0.27256 0.78917 0.0
C432 C 0.46533 0.30854 0.78788 0.0
C433 C 0.44168 0.25658 0.74022 0.0
C434 C 0.45208 0.27702 0.69013 0.0
C435 C 0.46929 0.31306 0.68886 0.0
C436 C 0.4765 0.32849 0.73794 0.0
C437 C 0.42034 0.21768 0.74108 0.0
C438 C 0.44403 0.20422 0.7351 0.0
C439 C 0.46044 0.20001 0.78085 0.0
C440 C 0.48045 0.18518 0.77679 0.0
C441 C 0.48472 0.17558 0.72624 0.0
C442 C 0.46793 0.17873 0.68075 0.0
C443 C 0.44765 0.19321 0.68508 0.0
C444 C 0.09622 0.45612 0.07942 0.0
C445 C 0.09949 0.48714 0.06102 0.0
H446 H 0.11912 0.43261 0.1258 0.0
C447 C 0.13165 0.51863 0.06656 0.0
H448 H 0.07177 0.43156 0.0748 0.0
C449 C 0.15904 0.51922 0.09432 0.0
C450 C 0.15448 0.48833 0.11728 0.0
H451 H 0.13474 0.54284 0.05223 0.0
H452 H 0.18248 0.54392 0.10187 0.0
C453 C 0.12337 0.45671 0.10789 0.0
C454 C 0.61643 0.12601 0.59069 0.0
C455 C 0.61553 0.09553 0.58624 0.0
H456 H 0.64075 0.17399 0.62714 0.0
C457 C 0.64225 0.0923 0.60881 0.0
H458 H 0.59607 0.12898 0.57316 0.0
C459 C 0.66792 0.11804 0.63921 0.0
C460 C 0.66732 0.14748 0.64734 0.0
H461 H 0.64215 0.06908 0.60522 0.0
H462 H 0.68696 0.114 0.65916 0.0
C463 C 0.64219 0.15187 0.62096 0.0
C464 C 0.57019 0.66466 0.13841 0.0
C465 C 0.53993 0.64324 0.10991 0.0
H466 H 0.5925 0.70004 0.19986 0.0
C467 C 0.51013 0.64542 0.11576 0.0
H468 H 0.59362 0.66369 0.13411 0.0
C469 C 0.50929 0.66596 0.15392 0.0
C470 C 0.53834 0.68474 0.18646 0.0
H471 H 0.48643 0.62903 0.09431 0.0
H472 H 0.48478 0.6646 0.16134 0.0
C473 C 0.56954 0.68549 0.1759 0.0
C474 C 0.86951 0.50047 0.63443 0.0
C475 C 0.8966 0.52954 0.60271 0.0
H476 H 0.83007 0.48171 0.69948 0.0
C477 C 0.9005 0.56157 0.60541 0.0
H478 H 0.86627 0.47559 0.63297 0.0
C479 C 0.8798 0.56512 0.64353 0.0
C480 C 0.8552 0.53667 0.67929 0.0
H481 H 0.92156 0.58433 0.58156 0.0
H482 H 0.88555 0.59067 0.6487 0.0
C483 C 0.8488 0.50396 0.67223 0.0
C484 C 0.39576 0.8939 0.09308 0.0
C485 C 0.39554 0.92395 0.08278 0.0
H486 H 0.37325 0.84554 0.1411 0.0
C487 C 0.36779 0.92543 0.10534 0.0
H488 H 0.41697 0.89234 0.07578 0.0
C489 C 0.34296 0.89886 0.14292 0.0
C490 C 0.34528 0.87028 0.15751 0.0
H491 H 0.36714 0.94838 0.09737 0.0
H492 H 0.32371 0.90189 0.16377 0.0
C493 C 0.37064 0.8671 0.13007 0.0
C494 C 0.44641 0.35197 0.57073 0.0
C495 C 0.477 0.3855 0.56506 0.0
H496 H 0.4203 0.30185 0.61443 0.0
C497 C 0.50743 0.39266 0.59186 0.0
H498 H 0.4227 0.34619 0.55033 0.0
C499 C 0.50623 0.36742 0.62807 0.0
C500 C 0.4745 0.33476 0.63811 0.0
H501 H 0.53123 0.4185 0.58788 0.0
H502 H 0.52916 0.37429 0.65157 0.0
C503 C 0.44518 0.32664 0.607 0.0
C504 C 0.50498 0.86209 0.44176 0.0
C505 C 0.5351 0.89605 0.43937 0.0
H506 H 0.48016 0.81266 0.40978 0.0
C507 C 0.5662 0.90385 0.41137 0.0
H508 H 0.48062 0.85541 0.46298 0.0
C509 C 0.56612 0.87925 0.38177 0.0
C510 C 0.53477 0.84653 0.37886 0.0
H511 H 0.58993 0.92968 0.40954 0.0
H512 H 0.5897 0.88681 0.35724 0.0
C513 C 0.50479 0.83751 0.41159 0.0
C514 C 0.62748 0.50931 0.93134 0.0
C515 C 0.63233 0.5402 0.94598 0.0
H516 H 0.64878 0.48605 0.88672 0.0
C517 C 0.66538 0.57131 0.93462 0.0
H518 H 0.60219 0.48504 0.94013 0.0
C519 C 0.69212 0.57195 0.90421 0.0
C520 C 0.68601 0.54145 0.88492 0.0
H521 H 0.66957 0.59535 0.94603 0.0
H522 H 0.71622 0.59663 0.89179 0.0
C523 C 0.65414 0.50991 0.90113 0.0
C524 C 0.10649 0.65652 0.41433 0.0
C525 C 0.10748 0.62773 0.43287 0.0
H526 H 0.1318 0.7039 0.36274 0.0
C527 C 0.13847 0.6281 0.42331 0.0
H528 H 0.08285 0.65672 0.42179 0.0
C529 C 0.16673 0.65536 0.39073 0.0
C530 C 0.16409 0.68232 0.367 0.0
H531 H 0.13969 0.60611 0.43756 0.0
H532 H 0.18901 0.65362 0.37975 0.0
C533 C 0.13451 0.68353 0.38109 0.0
C534 C 0.5304 0.15532 0.85882 0.0
C535 C 0.50402 0.13193 0.8982 0.0
H536 H 0.54428 0.19236 0.79061 0.0
C537 C 0.47321 0.13224 0.905 0.0
H538 H 0.55446 0.15556 0.85321 0.0
C539 C 0.46713 0.15299 0.86875 0.0
C540 C 0.4919 0.17369 0.82552 0.0
H541 H 0.4525 0.11423 0.93509 0.0
H542 H 0.44162 0.15021 0.8714 0.0
C543 C 0.52457 0.17633 0.82315 0.0
C544 C 0.35044 0.4514 0.3601 0.0
C545 C 0.37352 0.48104 0.38648 0.0
H546 H 0.31197 0.42942 0.29963 0.0
C547 C 0.37101 0.50996 0.37822 0.0
H548 H 0.35153 0.42861 0.36646 0.0
C549 C 0.34851 0.51053 0.33967 0.0
C550 C 0.32811 0.48211 0.30915 0.0
H551 H 0.38858 0.53314 0.3981 0.0
H552 H 0.34964 0.53433 0.33026 0.0
C553 C 0.3277 0.45182 0.32216 0.0
C554 C 0.90298 0.35188 0.87353 0.0
C555 C 0.89409 0.37151 0.90195 0.0
H556 H 0.88772 0.31537 0.81428 0.0
C557 C 0.85978 0.36499 0.89868 0.0
H558 H 0.92918 0.35626 0.87586 0.0
C559 C 0.83612 0.34188 0.86284 0.0
C560 C 0.84644 0.32486 0.83013 0.0
H561 H 0.85241 0.37994 0.92018 0.0
H562 H 0.8112 0.33987 0.85711 0.0
C563 C 0.87922 0.32847 0.83844 0.0
C564 C 0.88997 0.50451 0.91843 0.0
C565 C 0.919 0.53428 0.93739 0.0
H566 H 0.84428 0.48389 0.87028 0.0
C567 C 0.92124 0.56572 0.92957 0.0
H568 H 0.88787 0.48005 0.92423 0.0
C569 C 0.8962 0.56793 0.89911 0.0
C570 C 0.86884 0.53874 0.87592 0.0
H571 H 0.94356 0.58892 0.94402 0.0
H572 H 0.90004 0.59299 0.8898 0.0
C573 C 0.86504 0.50671 0.88794 0.0
C574 C 0.39504 0.88751 0.41655 0.0
C575 C 0.39496 0.91735 0.42245 0.0
H576 H 0.37314 0.84111 0.3762 0.0
C577 C 0.36853 0.92063 0.39874 0.0
H578 H 0.41524 0.88456 0.43478 0.0
C579 C 0.34453 0.89592 0.3653 0.0
C580 C 0.34638 0.86738 0.35566 0.0
H581 H 0.36796 0.94341 0.40325 0.0
H582 H 0.32602 0.90024 0.34414 0.0
C583 C 0.37081 0.86259 0.38351 0.0
C584 C 0.44407 0.35586 0.88033 0.0
C585 C 0.47703 0.37722 0.90266 0.0
H586 H 0.41417 0.31573 0.82769 0.0
C587 C 0.50413 0.37125 0.8948 0.0
H588 H 0.42297 0.36029 0.88564 0.0
C589 C 0.4992 0.346 0.8613 0.0
C590 C 0.46689 0.32601 0.83637 0.0
H591 H 0.52987 0.38778 0.91123 0.0
H592 H 0.52136 0.34374 0.85179 0.0
C593 C 0.43895 0.33025 0.84774 0.0
C594 C 0.10789 0.45175 0.36658 0.0
C595 C 0.11859 0.4818 0.39216 0.0
H596 H 0.12066 0.42901 0.30578 0.0
C597 C 0.15369 0.51039 0.38312 0.0
H598 H 0.08109 0.42921 0.37354 0.0
C599 C 0.17631 0.51037 0.34408 0.0
C600 C 0.1641 0.4817 0.31385 0.0
H601 H 0.16254 0.53388 0.40236 0.0
H602 H 0.20191 0.53401 0.33381 0.0
C603 C 0.13057 0.4516 0.32806 0.0
C604 C 0.6607 0.09766 0.8984 0.0
C605 C 0.63184 0.09728 0.92102 0.0
H606 H 0.70381 0.1223 0.83813 0.0
C607 C 0.6288 0.12561 0.90916 0.0
H608 H 0.66361 0.07615 0.9078 0.0
C609 C 0.65224 0.15236 0.87071 0.0
C610 C 0.67864 0.15076 0.84331 0.0
H611 H 0.60672 0.12576 0.92654 0.0
H612 H 0.64747 0.17239 0.85853 0.0
C613 C 0.68378 0.1241 0.85917 0.0
C614 C 0.505 0.61446 0.4393 0.0
C615 C 0.53781 0.6182 0.44689 0.0
H616 H 0.47767 0.6354 0.39931 0.0
C617 C 0.56921 0.64935 0.4283 0.0
H618 H 0.4805 0.59061 0.45366 0.0
C619 C 0.56762 0.6748 0.39691 0.0
C620 C 0.53462 0.66968 0.38495 0.0
H621 H 0.59477 0.65279 0.43444 0.0
H622 H 0.59196 0.69724 0.37851 0.0
C623 C 0.50342 0.64014 0.40871 0.0
C624 C 0.43826 0.1056 0.59437 0.0
C625 C 0.47098 0.11403 0.57134 0.0
H626 H 0.4115 0.1208 0.6458 0.0
C627 C 0.50116 0.14735 0.57514 0.0
H628 H 0.4146 0.08011 0.59184 0.0
C629 C 0.4994 0.17049 0.60622 0.0
C630 C 0.46729 0.16092 0.63304 0.0
H631 H 0.52676 0.15441 0.55817 0.0
H632 H 0.52367 0.19474 0.61299 0.0
C633 C 0.43639 0.12899 0.62466 0.0
C634 C 0.39844 0.51836 0.06156 0.0
C635 C 0.39496 0.48676 0.05576 0.0
H636 H 0.37633 0.54384 0.09746 0.0
C637 C 0.36306 0.4558 0.07332 0.0
H638 H 0.42282 0.54251 0.04789 0.0
C639 C 0.33657 0.45654 0.10176 0.0
C640 C 0.3414 0.48825 0.11193 0.0
H641 H 0.35977 0.43118 0.06849 0.0
H642 H 0.31359 0.43247 0.11949 0.0
C643 C 0.37173 0.5191 0.08928 0.0
C644 C 0.9116 0.36138 0.58355 0.0
C645 C 0.91194 0.39112 0.56652 0.0
H646 H 0.8849 0.31338 0.63373 0.0
C647 C 0.88189 0.3921 0.57755 0.0
H648 H 0.93442 0.36006 0.5747 0.0
C649 C 0.85321 0.36505 0.60968 0.0
C650 C 0.8545 0.33696 0.6316 0.0
H651 H 0.88163 0.41479 0.56437 0.0
H652 H 0.83161 0.36765 0.62156 0.0
C653 C 0.88323 0.33462 0.61659 0.0
C654 C 0.56418 0.90115 0.13001 0.0
C655 C 0.53238 0.89339 0.10698 0.0
H656 H 0.58877 0.88457 0.18717 0.0
C657 C 0.50201 0.85976 0.11639 0.0
H658 H 0.5881 0.92673 0.12261 0.0
C659 C 0.50241 0.83557 0.1533 0.0
C660 C 0.53321 0.84476 0.18106 0.0
H661 H 0.47715 0.85314 0.0991 0.0
H662 H 0.47774 0.81105 0.1641 0.0
C663 C 0.56463 0.87697 0.16652 0.0
C664 C 0.67246 0.54879 0.6123 0.0
C665 C 0.63923 0.51735 0.6157 0.0
H666 H 0.72197 0.57965 0.64995 0.0
C667 C 0.63338 0.4901 0.65276 0.0
H668 H 0.67745 0.57015 0.584 0.0
C669 C 0.65891 0.49529 0.68968 0.0
C670 C 0.69049 0.52799 0.69073 0.0
H671 H 0.60803 0.46553 0.65565 0.0
H672 H 0.65262 0.47468 0.72065 0.0
C673 C 0.69798 0.55412 0.64976 0.0
C674 C 0.15634 0.65361 0.09916 0.0
C675 C 0.12188 0.64678 0.09675 0.0
H676 H 0.20526 0.679 0.13976 0.0
C677 C 0.11296 0.66614 0.1259 0.0
H678 H 0.16378 0.63891 0.0771 0.0
C679 C 0.13686 0.68955 0.16085 0.0
C680 C 0.16987 0.69349 0.1682 0.0
H681 H 0.08667 0.66161 0.12415 0.0
H682 H 0.12839 0.70246 0.18552 0.0
C683 C 0.18016 0.67674 0.1348 0.0
loop_
_geom_bond_atom_site_label_1
_geom_bond_atom_site_label_2
_geom_bond_distance
_geom_bond_site_symmetry_2
_ccdc_geom_bond_type
C0 C1 1.451 . S
C0 N4 1.386 . S
C0 C38 1.373 1_554 S
C1 C0 1.451 . S
C1 C2 1.340 . S
C1 H41 0.951 . S
C2 C1 1.340 . S
C2 C3 1.439 . S
C2 H42 0.950 . S
C3 C2 1.439 . S
C3 N4 1.374 . S
C3 C37 1.395 . S
N4 C0 1.386 . S
N4 C3 1.374 . S
N4 Co5 2.008 1_655 S
Co5 N4 2.008 1_455 S
Co5 N6 1.995 . S
Co5 N11 2.008 1_554 S
Co5 N16 1.995 1_554 S
Co5 N21 2.282 . S
Co5 N27 2.282 1_454 S
N6 Co5 1.995 . S
N6 C7 1.376 1_455 S
N6 C10 1.383 . S
C7 N6 1.376 1_655 S
C7 C8 1.446 . S
C7 C37 1.391 . S
C8 C7 1.446 . S
C8 C9 1.339 1_655 S
C8 H43 0.949 . S
C9 C8 1.339 1_455 S
C9 C10 1.439 . S
C9 H44 0.950 . S
C10 N6 1.383 . S
C10 C9 1.439 . S
C10 C39 1.392 . S
N11 Co5 2.008 1_556 S
N11 C12 1.376 1_556 S
N11 C15 1.374 . S
C12 N11 1.376 1_554 S
C12 C13 1.443 1_554 S
C12 C39 1.389 . S
C13 C12 1.443 1_556 S
C13 C14 1.340 . S
C13 H45 0.951 . S
C14 C13 1.340 . S
C14 C15 1.439 . S
C14 H46 0.950 . S
C15 N11 1.374 . S
C15 C14 1.439 . S
C15 C40 1.395 . S
N16 Co5 1.995 1_556 S
N16 C17 1.376 . S
N16 C20 1.383 1_455 S
C17 N16 1.376 . S
C17 C18 1.446 . S
C17 C40 1.391 . S
C18 C17 1.446 . S
C18 C19 1.339 1_455 S
C18 H47 0.949 . S
C19 C18 1.339 1_655 S
C19 C20 1.439 . S
C19 H48 0.950 . S
C20 N16 1.383 1_655 S
C20 C19 1.439 . S
C20 C38 1.392 . S
N21 Co5 2.282 . S
N21 C24 1.332 . S
N21 C26 1.332 . S
C22 C23 1.386 . S
C22 C25 1.388 . S
C23 C22 1.386 . S
C23 C24 1.382 . S
C23 H49 0.950 . S
C24 N21 1.332 . S
C24 C23 1.382 . S
C24 H35 0.952 1_554 S
C25 C22 1.388 . S
C25 C26 1.382 . S
C25 H50 0.950 . S
C26 N21 1.332 . S
C26 C25 1.382 . S
C26 H36 0.948 . S
N27 Co5 2.282 1_656 S
N27 C31 1.332 . S
N27 C32 1.332 . S
C28 C29 1.388 . S
C28 C32 1.382 . S
C28 H51 0.950 . S
C29 C28 1.388 . S
C29 C30 1.386 . S
C30 C29 1.386 . S
C30 C31 1.382 . S
C30 H52 0.950 . S
C31 N27 1.332 . S
C31 C30 1.382 . S
C31 H33 0.952 1_556 S
C32 N27 1.332 . S
C32 C28 1.382 . S
C32 H34 0.948 . S
H33 C31 0.952 1_554 S
H34 C32 0.948 . S
H35 C24 0.952 1_556 S
H36 C26 0.948 . S
C37 C3 1.395 . S
C37 C7 1.391 . S
C38 C0 1.373 1_556 S
C38 C20 1.392 . S
C39 C10 1.392 . S
C39 C12 1.389 . S
C40 C15 1.395 . S
C40 C17 1.391 . S
H41 C1 0.951 . S
H42 C2 0.950 . S
H43 C8 0.949 . S
H44 C9 0.950 . S
H45 C13 0.951 . S
H46 C14 0.950 . S
H47 C18 0.949 . S
H48 C19 0.950 . S
H49 C23 0.950 . S
H50 C25 0.950 . S
H51 C28 0.950 . S
H52 C30 0.950 . S
C53 C54 1.443 . S
C53 N57 1.376 . S
C53 C91 1.389 . S
C54 C53 1.443 . S
C54 C55 1.341 1_545 S
C54 H94 0.951 . S
C55 C54 1.341 1_565 S
C55 C56 1.439 . S
C55 H95 0.949 . S
C56 C55 1.439 . S
C56 N57 1.374 1_565 S
C56 C90 1.395 . S
N57 C53 1.376 . S
N57 C56 1.374 1_545 S
N57 Co58 2.008 . S
Co58 N57 2.008 . S
Co58 N59 1.995 1_545 S
Co58 N64 2.008 . S
Co58 N69 1.995 . S
Co58 N74 2.282 1_545 S
Co58 N80 2.282 . S
N59 Co58 1.995 1_565 S
N59 C60 1.376 . S
N59 C63 1.383 . S
C60 N59 1.376 . S
C60 C61 1.446 . S
C60 C90 1.391 . S
C61 C60 1.446 . S
C61 C62 1.339 . S
C61 H96 0.949 . S
C62 C61 1.339 . S
C62 C63 1.439 . S
C62 H97 0.950 . S
C63 N59 1.383 . S
C63 C62 1.439 . S
C63 C92 1.392 . S
N64 Co58 2.008 . S
N64 C65 1.376 1_545 S
N64 C68 1.374 . S
C65 N64 1.376 1_565 S
C65 C66 1.443 . S
C65 C92 1.389 . S
C66 C65 1.443 . S
C66 C67 1.340 1_565 S
C66 H98 0.951 . S
C67 C66 1.340 1_545 S
C67 C68 1.439 . S
C67 H99 0.950 . S
C68 N64 1.374 . S
C68 C67 1.439 . S
C68 C93 1.395 . S
N69 Co58 1.995 . S
N69 C70 1.376 . S
N69 C73 1.383 . S
C70 N69 1.376 . S
C70 C71 1.446 . S
C70 C93 1.391 . S
C71 C70 1.446 . S
C71 C72 1.339 . S
C71 H100 0.949 . S
C72 C71 1.339 . S
C72 C73 1.439 . S
C72 H101 0.950 . S
C73 N69 1.383 . S
C73 C72 1.439 . S
C73 C91 1.392 . S
N74 Co58 2.282 1_565 S
N74 C77 1.332 . S
N74 C79 1.332 . S
C75 C76 1.386 . S
C75 C78 1.388 . S
C76 C75 1.386 . S
C76 C77 1.382 . S
C76 H102 0.950 . S
C77 N74 1.332 . S
C77 C76 1.382 . S
C77 H88 0.952 1_565 S
C78 C75 1.388 . S
C78 C79 1.382 . S
C78 H103 0.950 . S
C79 N74 1.332 . S
C79 C78 1.382 . S
C79 H89 0.948 . S
N80 Co58 2.282 . S
N80 C84 1.332 . S
N80 C85 1.332 . S
C81 C82 1.388 . S
C81 C85 1.382 . S
C81 H104 0.950 . S
C82 C81 1.388 . S
C82 C83 1.386 . S
C83 C82 1.386 . S
C83 C84 1.382 . S
C83 H105 0.950 . S
C84 N80 1.332 . S
C84 C83 1.382 . S
C84 H86 0.952 . S
C85 N80 1.332 . S
C85 C81 1.382 . S
C85 H87 0.948 . S
H86 C84 0.952 . S
H87 C85 0.948 . S
H88 C77 0.952 1_545 S
H89 C79 0.948 . S
C90 C56 1.395 . S
C90 C60 1.391 . S
C91 C53 1.389 . S
C91 C73 1.392 . S
C92 C63 1.392 . S
C92 C65 1.389 . S
C93 C68 1.395 . S
C93 C70 1.391 . S
H94 C54 0.951 . S
H95 C55 0.949 . S
H96 C61 0.949 . S
H97 C62 0.950 . S
H98 C66 0.951 . S
H99 C67 0.950 . S
H100 C71 0.949 . S
H101 C72 0.950 . S
H102 C76 0.950 . S
H103 C78 0.950 . S
H104 C81 0.950 . S
H105 C83 0.950 . S
C106 C107 1.443 . S
C106 N110 1.376 . S
C106 C144 1.389 . S
C107 C106 1.443 . S
C107 C108 1.340 . S
C107 H147 0.951 . S
C108 C107 1.340 . S
C108 C109 1.439 . S
C108 H148 0.950 . S
C109 C108 1.439 . S
C109 N110 1.374 . S
C109 C143 1.395 . S
N110 C106 1.376 . S
N110 C109 1.374 . S
N110 Co111 2.008 1_556 S
Co111 N110 2.008 1_554 S
Co111 N112 1.995 1_554 S
Co111 N117 2.008 . S
Co111 N122 1.995 . S
Co111 N127 2.282 . S
Co111 N133 2.282 1_554 S
N112 Co111 1.995 1_556 S
N112 C113 1.376 . S
N112 C116 1.383 1_556 S
C113 N112 1.376 . S
C113 C114 1.446 . S
C113 C143 1.391 . S
C114 C113 1.446 . S
C114 C115 1.339 . S
C114 H149 0.949 . S
C115 C114 1.339 . S
C115 C116 1.439 1_556 S
C115 H150 0.950 . S
C116 N112 1.383 1_554 S
C116 C115 1.439 1_554 S
C116 C145 1.392 . S
N117 Co111 2.008 . S
N117 C118 1.376 . S
N117 C121 1.374 . S
C118 N117 1.376 . S
C118 C119 1.443 . S
C118 C145 1.389 . S
C119 C118 1.443 . S
C119 C120 1.340 . S
C119 H151 0.951 . S
C120 C119 1.340 . S
C120 C121 1.439 . S
C120 H152 0.950 . S
C121 N117 1.374 . S
C121 C120 1.439 . S
C121 C146 1.395 . S
N122 Co111 1.995 . S
N122 C123 1.376 . S
N122 C126 1.383 . S
C123 N122 1.376 . S
C123 C124 1.446 . S
C123 C146 1.391 . S
C124 C123 1.446 . S
C124 C125 1.339 . S
C124 H153 0.949 . S
C125 C124 1.339 . S
C125 C126 1.439 . S
C125 H154 0.950 . S
C126 N122 1.383 . S
C126 C125 1.439 . S
C126 C144 1.392 1_554 S
N127 Co111 2.282 . S
N127 C130 1.332 . S
N127 C132 1.332 . S
C128 C129 1.386 . S
C128 C131 1.388 . S
C129 C128 1.386 . S
C129 C130 1.382 . S
C129 H155 0.950 . S
C130 N127 1.332 . S
C130 C129 1.382 . S
C130 H141 0.952 . S
C131 C128 1.388 . S
C131 C132 1.382 . S
C131 H156 0.950 . S
C132 N127 1.332 . S
C132 C131 1.382 . S
C132 H142 0.948 1_554 S
N133 Co111 2.282 1_556 S
N133 C137 1.332 . S
N133 C138 1.332 . S
C134 C135 1.388 . S
C134 C138 1.382 . S
C134 H157 0.950 . S
C135 C134 1.388 . S
C135 C136 1.386 . S
C136 C135 1.386 . S
C136 C137 1.382 . S
C136 H158 0.950 . S
C137 N133 1.332 . S
C137 C136 1.382 . S
C137 H139 0.952 . S
C138 N133 1.332 . S
C138 C134 1.382 . S
C138 H140 0.948 1_556 S
H139 C137 0.952 . S
H140 C138 0.948 1_554 S
H141 C130 0.952 . S
H142 C132 0.948 1_556 S
C143 C109 1.395 . S
C143 C113 1.391 . S
C144 C106 1.389 . S
C144 C126 1.392 1_556 S
C145 C116 1.392 . S
C145 C118 1.389 . S
C146 C121 1.395 . S
C146 C123 1.391 . S
H147 C107 0.951 . S
H148 C108 0.950 . S
H149 C114 0.949 . S
H150 C115 0.950 . S
H151 C119 0.951 . S
H152 C120 0.950 . S
H153 C124 0.949 . S
H154 C125 0.950 . S
H155 C129 0.950 . S
H156 C131 0.950 . S
H157 C134 0.950 . S
H158 C136 0.950 . S
C159 C160 1.443 . S
C159 N163 1.376 . S
C159 C197 1.389 . S
C160 C159 1.443 . S
C160 C161 1.340 . S
C160 H200 0.951 . S
C161 C160 1.340 . S
C161 C162 1.439 . S
C161 H201 0.950 . S
C162 C161 1.439 . S
C162 N163 1.374 . S
C162 C196 1.395 . S
N163 C159 1.376 . S
N163 C162 1.374 . S
N163 Co164 2.008 1_655 S
Co164 N163 2.008 1_455 S
Co164 N165 1.995 . S
Co164 N170 2.008 . S
Co164 N175 1.995 . S
Co164 N180 2.282 . S
Co164 N186 2.282 1_455 S
N165 Co164 1.995 . S
N165 C166 1.376 1_455 S
N165 C169 1.383 . S
C166 N165 1.376 1_655 S
C166 C167 1.446 . S
C166 C196 1.391 . S
C167 C166 1.446 . S
C167 C168 1.339 1_655 S
C167 H202 0.949 . S
C168 C167 1.339 1_455 S
C168 C169 1.439 . S
C168 H203 0.950 . S
C169 N165 1.383 . S
C169 C168 1.439 . S
C169 C198 1.392 . S
N170 Co164 2.008 . S
N170 C171 1.376 . S
N170 C174 1.374 . S
C171 N170 1.376 . S
C171 C172 1.443 . S
C171 C198 1.389 . S
C172 C171 1.443 . S
C172 C173 1.340 . S
C172 H204 0.951 . S
C173 C172 1.340 . S
C173 C174 1.439 . S
C173 H205 0.950 . S
C174 N170 1.374 . S
C174 C173 1.439 . S
C174 C199 1.395 . S
N175 Co164 1.995 . S
N175 C176 1.376 . S
N175 C179 1.383 1_455 S
C176 N175 1.376 . S
C176 C177 1.446 . S
C176 C199 1.391 . S
C177 C176 1.446 . S
C177 C178 1.339 1_455 S
C177 H206 0.949 . S
C178 C177 1.339 1_655 S
C178 C179 1.439 . S
C178 H207 0.950 . S
C179 N175 1.383 1_655 S
C179 C178 1.439 . S
C179 C197 1.392 . S
N180 Co164 2.282 . S
N180 C183 1.332 . S
N180 C185 1.332 . S
C181 C182 1.386 . S
C181 C184 1.388 . S
C182 C181 1.386 . S
C182 C183 1.382 . S
C182 H208 0.950 . S
C183 N180 1.332 . S
C183 C182 1.382 . S
C183 H194 0.952 . S
C184 C181 1.388 . S
C184 C185 1.382 . S
C184 H209 0.950 . S
C185 N180 1.332 . S
C185 C184 1.382 . S
C185 H195 0.948 . S
N186 Co164 2.282 1_655 S
N186 C190 1.332 . S
N186 C191 1.332 . S
C187 C188 1.388 . S
C187 C191 1.382 . S
C187 H210 0.950 . S
C188 C187 1.388 . S
C188 C189 1.386 . S
C189 C188 1.386 . S
C189 C190 1.382 . S
C189 H211 0.950 . S
C190 N186 1.332 . S
C190 C189 1.382 . S
C190 H192 0.952 . S
C191 N186 1.332 . S
C191 C187 1.382 . S
C191 H193 0.948 . S
H192 C190 0.952 . S
H193 C191 0.948 . S
H194 C183 0.952 . S
H195 C185 0.948 . S
C196 C162 1.395 . S
C196 C166 1.391 . S
C197 C159 1.389 . S
C197 C179 1.392 . S
C198 C169 1.392 . S
C198 C171 1.389 . S
C199 C174 1.395 . S
C199 C176 1.391 . S
H200 C160 0.951 . S
H201 C161 0.950 . S
H202 C167 0.949 . S
H203 C168 0.950 . S
H204 C172 0.951 . S
H205 C173 0.950 . S
H206 C177 0.949 . S
H207 C178 0.950 . S
H208 C182 0.950 . S
H209 C184 0.950 . S
H210 C187 0.950 . S
H211 C189 0.950 . S
C212 C213 1.443 . S
C212 N216 1.376 1_565 S
C212 C250 1.389 . S
C213 C212 1.443 . S
C213 C214 1.340 1_565 S
C213 H253 0.951 . S
C214 C213 1.340 1_545 S
C214 C215 1.439 . S
C214 H254 0.950 . S
C215 C214 1.439 . S
C215 N216 1.374 . S
C215 C249 1.395 . S
N216 C212 1.376 1_545 S
N216 C215 1.374 . S
N216 Co217 2.008 . S
Co217 N216 2.008 . S
Co217 N218 1.995 . S
Co217 N223 2.008 1_554 S
Co217 N228 1.995 1_544 S
Co217 N233 2.282 1_554 S
Co217 N239 2.282 1_545 S
N218 Co217 1.995 . S
N218 C219 1.376 . S
N218 C222 1.383 1_554 S
C219 N218 1.376 . S
C219 C220 1.446 . S
C219 C249 1.391 . S
C220 C219 1.446 . S
C220 C221 1.339 . S
C220 H255 0.949 . S
C221 C220 1.339 . S
C221 C222 1.439 1_554 S
C221 H256 0.950 1_554 S
C222 N218 1.383 1_556 S
C222 C221 1.439 1_556 S
C222 C251 1.392 . S
N223 Co217 2.008 1_556 S
N223 C224 1.376 . S
N223 C227 1.374 1_545 S
C224 N223 1.376 . S
C224 C225 1.443 . S
C224 C251 1.389 . S
C225 C224 1.443 . S
C225 C226 1.340 . S
C225 H257 0.951 . S
C226 C225 1.340 . S
C226 C227 1.439 1_545 S
C226 H258 0.950 1_545 S
C227 N223 1.374 1_565 S
C227 C226 1.439 1_565 S
C227 C252 1.395 . S
N228 Co217 1.995 1_566 S
N228 C229 1.376 . S
N228 C232 1.383 1_556 S
C229 N228 1.376 . S
C229 C230 1.446 . S
C229 C252 1.391 . S
C230 C229 1.446 . S
C230 C231 1.339 . S
C230 H259 0.949 . S
C231 C230 1.339 . S
C231 C232 1.439 1_556 S
C231 H260 0.950 1_556 S
C232 N228 1.383 1_554 S
C232 C231 1.439 1_554 S
C232 C250 1.392 . S
N233 Co217 2.282 1_556 S
N233 C236 1.332 . S
N233 C238 1.332 . S
C234 C235 1.386 . S
C234 C237 1.388 . S
C235 C234 1.386 . S
C235 C236 1.382 . S
C235 H261 0.950 . S
C236 N233 1.332 . S
C236 C235 1.382 . S
C236 H247 0.952 . S
C237 C234 1.388 . S
C237 C238 1.382 . S
C237 H262 0.950 . S
C238 N233 1.332 . S
C238 C237 1.382 . S
C238 H248 0.948 1_556 S
N239 Co217 2.282 1_565 S
N239 C243 1.332 . S
N239 C244 1.332 . S
C240 C241 1.388 . S
C240 C244 1.382 . S
C240 H263 0.950 . S
C241 C240 1.388 . S
C241 C242 1.386 . S
C242 C241 1.386 . S
C242 C243 1.382 . S
C242 H264 0.950 . S
C243 N239 1.332 . S
C243 C242 1.382 . S
C243 H245 0.952 1_565 S
C244 N239 1.332 . S
C244 C240 1.382 . S
C244 H246 0.948 1_554 S
H245 C243 0.952 1_545 S
H246 C244 0.948 1_556 S
H247 C236 0.952 . S
H248 C238 0.948 1_554 S
C249 C215 1.395 . S
C249 C219 1.391 . S
C250 C212 1.389 . S
C250 C232 1.392 . S
C251 C222 1.392 . S
C251 C224 1.389 . S
C252 C227 1.395 . S
C252 C229 1.391 . S
H253 C213 0.951 . S
H254 C214 0.950 . S
H255 C220 0.949 . S
H256 C221 0.950 1_556 S
H257 C225 0.951 . S
H258 C226 0.950 1_565 S
H259 C230 0.949 . S
H260 C231 0.950 1_554 S
H261 C235 0.950 . S
H262 C237 0.950 . S
H263 C240 0.950 . S
H264 C242 0.950 . S
C265 C266 1.443 . S
C265 N269 1.376 . S
C265 C303 1.389 . S
C266 C265 1.443 . S
C266 C267 1.340 . S
C266 H306 0.951 . S
C267 C266 1.340 . S
C267 C268 1.439 . S
C267 H307 0.950 . S
C268 C267 1.439 . S
C268 N269 1.374 . S
C268 C302 1.395 . S
N269 C265 1.376 . S
N269 C268 1.374 . S
N269 Co270 2.008 . S
Co270 N269 2.008 . S
Co270 N271 1.995 . S
Co270 N276 2.008 . S
Co270 N281 1.995 . S
Co270 N286 2.282 . S
Co270 N292 2.282 . S
N271 Co270 1.995 . S
N271 C272 1.376 . S
N271 C275 1.383 . S
C272 N271 1.376 . S
C272 C273 1.446 . S
C272 C302 1.391 . S
C273 C272 1.446 . S
C273 C274 1.339 . S
C273 H308 0.949 . S
C274 C273 1.339 . S
C274 C275 1.439 . S
C274 H309 0.950 . S
C275 N271 1.383 . S
C275 C274 1.439 . S
C275 C304 1.392 . S
N276 Co270 2.008 . S
N276 C277 1.376 . S
N276 C280 1.374 . S
C277 N276 1.376 . S
C277 C278 1.443 . S
C277 C304 1.389 . S
C278 C277 1.443 . S
C278 C279 1.340 . S
C278 H310 0.951 . S
C279 C278 1.340 . S
C279 C280 1.439 . S
C279 H311 0.950 . S
C280 N276 1.374 . S
C280 C279 1.439 . S
C280 C305 1.395 . S
N281 Co270 1.995 . S
N281 C282 1.376 . S
N281 C285 1.383 . S
C282 N281 1.376 . S
C282 C283 1.446 . S
C282 C305 1.391 . S
C283 C282 1.446 . S
C283 C284 1.339 . S
C283 H312 0.949 . S
C284 C283 1.339 . S
C284 C285 1.439 . S
C284 H313 0.950 . S
C285 N281 1.383 . S
C285 C284 1.439 . S
C285 C303 1.392 . S
N286 Co270 2.282 . S
N286 C289 1.332 . S
N286 C291 1.332 . S
C287 C288 1.386 . S
C287 C290 1.388 . S
C288 C287 1.386 . S
C288 C289 1.382 . S
C288 H314 0.950 . S
C289 N286 1.332 . S
C289 C288 1.382 . S
C289 H300 0.952 . S
C290 C287 1.388 . S
C290 C291 1.382 . S
C290 H315 0.950 . S
C291 N286 1.332 . S
C291 C290 1.382 . S
C291 H301 0.948 . S
N292 Co270 2.282 . S
N292 C296 1.332 . S
N292 C297 1.332 . S
C293 C294 1.388 . S
C293 C297 1.382 . S
C293 H316 0.950 . S
C294 C293 1.388 . S
C294 C295 1.386 . S
C295 C294 1.386 . S
C295 C296 1.382 . S
C295 H317 0.950 . S
C296 N292 1.332 . S
C296 C295 1.382 . S
C296 H298 0.952 . S
C297 N292 1.332 . S
C297 C293 1.382 . S
C297 H299 0.948 . S
H298 C296 0.952 . S
H299 C297 0.948 . S
H300 C289 0.952 . S
H301 C291 0.948 . S
C302 C268 1.395 . S
C302 C272 1.391 . S
C303 C265 1.389 . S
C303 C285 1.392 . S
C304 C275 1.392 . S
C304 C277 1.389 . S
C305 C280 1.395 . S
C305 C282 1.391 . S
H306 C266 0.951 . S
H307 C267 0.950 . S
H308 C273 0.949 . S
H309 C274 0.950 . S
H310 C278 0.951 . S
H311 C279 0.950 . S
H312 C283 0.949 . S
H313 C284 0.950 . S
H314 C288 0.950 . S
H315 C290 0.950 . S
H316 C293 0.950 . S
H317 C295 0.950 . S
H318 C326 0.930 . S
H319 C329 0.930 . S
H320 C331 0.930 . S
H321 C332 0.970 . S
H322 C332 0.970 . S
H323 C334 0.930 . S
H324 C336 0.930 . S
H325 C338 0.930 . S
C326 H318 0.930 . S
C326 C327 1.382 . S
C326 C328 1.426 . S
C327 C326 1.382 . S
C327 C331 1.389 . S
C328 C326 1.426 . S
C328 C329 1.375 . S
C328 C332 1.532 . S
C329 H319 0.930 . S
C329 C328 1.375 . S
C329 C330 1.416 . S
C330 C329 1.416 . S
C330 C331 1.371 . S
C331 H320 0.930 . S
C331 C327 1.389 . S
C331 C330 1.371 . S
C332 H321 0.970 . S
C332 H322 0.970 . S
C332 C328 1.532 . S
C332 C333 1.499 . S
C333 C332 1.499 . S
C333 C334 1.370 . S
C333 C338 1.415 . S
C334 H323 0.930 . S
C334 C333 1.370 . S
C334 C335 1.407 . S
C335 C334 1.407 . S
C335 C336 1.365 . S
C336 H324 0.930 . S
C336 C335 1.365 . S
C336 C337 1.393 . S
C337 C336 1.393 . S
C337 C338 1.387 . S
C338 H325 0.930 . S
C338 C333 1.415 . S
C338 C337 1.387 . S
H339 C347 0.930 . S
H340 C350 0.930 . S
H341 C352 0.930 . S
H342 C353 0.970 . S
H343 C353 0.970 . S
H344 C355 0.930 . S
H345 C357 0.930 . S
H346 C359 0.930 . S
C347 H339 0.930 . S
C347 C348 1.382 . S
C347 C349 1.426 . S
C348 C347 1.382 . S
C348 C352 1.389 . S
C349 C347 1.426 . S
C349 C350 1.375 . S
C349 C353 1.532 . S
C350 H340 0.930 . S
C350 C349 1.375 . S
C350 C351 1.416 . S
C351 C350 1.416 . S
C351 C352 1.371 . S
C352 H341 0.930 . S
C352 C348 1.389 . S
C352 C351 1.371 . S
C353 H342 0.970 . S
C353 H343 0.970 . S
C353 C349 1.532 . S
C353 C354 1.499 . S
C354 C353 1.499 . S
C354 C355 1.370 . S
C354 C359 1.415 . S
C355 H344 0.930 . S
C355 C354 1.370 . S
C355 C356 1.407 . S
C356 C355 1.407 . S
C356 C357 1.365 . S
C357 H345 0.930 . S
C357 C356 1.365 . S
C357 C358 1.393 . S
C358 C357 1.393 . S
C358 C359 1.387 . S
C359 H346 0.930 . S
C359 C354 1.415 . S
C359 C358 1.387 . S
H360 C368 0.930 . S
H361 C371 0.930 . S
H362 C373 0.930 . S
H363 C374 0.970 . S
H364 C374 0.970 . S
H365 C376 0.930 . S
H366 C378 0.930 . S
H367 C380 0.930 . S
C368 H360 0.930 . S
C368 C369 1.382 . S
C368 C370 1.426 . S
C369 C368 1.382 . S
C369 C373 1.389 . S
C370 C368 1.426 . S
C370 C371 1.375 . S
C370 C374 1.532 . S
C371 H361 0.930 . S
C371 C370 1.375 . S
C371 C372 1.416 . S
C372 C371 1.416 . S
C372 C373 1.371 . S
C373 H362 0.930 . S
C373 C369 1.389 . S
C373 C372 1.371 . S
C374 H363 0.970 . S
C374 H364 0.970 . S
C374 C370 1.532 . S
C374 C375 1.499 . S
C375 C374 1.499 . S
C375 C376 1.370 . S
C375 C380 1.415 . S
C376 H365 0.930 . S
C376 C375 1.370 . S
C376 C377 1.407 . S
C377 C376 1.407 . S
C377 C378 1.365 . S
C378 H366 0.930 . S
C378 C377 1.365 . S
C378 C379 1.393 . S
C379 C378 1.393 . S
C379 C380 1.387 . S
C380 H367 0.930 . S
C380 C375 1.415 . S
C380 C379 1.387 . S
H381 C389 0.930 . S
H382 C392 0.930 . S
H383 C394 0.930 . S
H384 C395 0.970 . S
H385 C395 0.970 . S
H386 C397 0.930 . S
H387 C399 0.930 . S
H388 C401 0.930 . S
C389 H381 0.930 . S
C389 C390 1.382 . S
C389 C391 1.426 . S
C390 C389 1.382 . S
C390 C394 1.389 . S
C391 C389 1.426 . S
C391 C392 1.375 . S
C391 C395 1.532 . S
C392 H382 0.930 . S
C392 C391 1.375 . S
C392 C393 1.416 . S
C393 C392 1.416 . S
C393 C394 1.371 . S
C394 H383 0.930 . S
C394 C390 1.389 . S
C394 C393 1.371 . S
C395 H384 0.970 . S
C395 H385 0.970 . S
C395 C391 1.532 . S
C395 C396 1.499 . S
C396 C395 1.499 . S
C396 C397 1.370 . S
C396 C401 1.415 . S
C397 H386 0.930 . S
C397 C396 1.370 . S
C397 C398 1.407 . S
C398 C397 1.407 . S
C398 C399 1.365 . S
C399 H387 0.930 . S
C399 C398 1.365 . S
C399 C400 1.393 . S
C400 C399 1.393 . S
C400 C401 1.387 . S
C401 H388 0.930 . S
C401 C396 1.415 . S
C401 C400 1.387 . S
H402 C410 0.930 . S
H403 C413 0.930 . S
H404 C415 0.930 . S
H405 C416 0.970 . S
H406 C416 0.970 . S
H407 C418 0.930 . S
H408 C420 0.930 . S
H409 C422 0.930 . S
C410 H402 0.930 . S
C410 C411 1.382 . S
C410 C412 1.426 . S
C411 C410 1.382 . S
C411 C415 1.389 . S
C412 C410 1.426 . S
C412 C413 1.375 . S
C412 C416 1.532 . S
C413 H403 0.930 . S
C413 C412 1.375 . S
C413 C414 1.416 . S
C414 C413 1.416 . S
C414 C415 1.371 . S
C415 H404 0.930 . S
C415 C411 1.389 . S
C415 C414 1.371 . S
C416 H405 0.970 . S
C416 H406 0.970 . S
C416 C412 1.532 . S
C416 C417 1.499 . S
C417 C416 1.499 . S
C417 C418 1.370 . S
C417 C422 1.415 . S
C418 H407 0.930 . S
C418 C417 1.370 . S
C418 C419 1.407 . S
C419 C418 1.407 . S
C419 C420 1.365 . S
C420 H408 0.930 . S
C420 C419 1.365 . S
C420 C421 1.393 . S
C421 C420 1.393 . S
C421 C422 1.387 . S
C422 H409 0.930 . S
C422 C417 1.415 . S
C422 C421 1.387 . S
H423 C431 0.930 . S
H424 C434 0.930 . S
H425 C436 0.930 . S
H426 C437 0.970 . S
H427 C437 0.970 . S
H428 C439 0.930 . S
H429 C441 0.930 . S
H430 C443 0.930 . S
C431 H423 0.930 . S
C431 C432 1.382 . S
C431 C433 1.426 . S
C432 C431 1.382 . S
C432 C436 1.389 . S
C433 C431 1.426 . S
C433 C434 1.375 . S
C433 C437 1.532 . S
C434 H424 0.930 . S
C434 C433 1.375 . S
C434 C435 1.416 . S
C435 C434 1.416 . S
C435 C436 1.371 . S
C436 H425 0.930 . S
C436 C432 1.389 . S
C436 C435 1.371 . S
C437 H426 0.970 . S
C437 H427 0.970 . S
C437 C433 1.532 . S
C437 C438 1.499 . S
C438 C437 1.499 . S
C438 C439 1.370 . S
C438 C443 1.415 . S
C439 H428 0.930 . S
C439 C438 1.370 . S
C439 C440 1.407 . S
C440 C439 1.407 . S
C440 C441 1.365 . S
C441 H429 0.930 . S
C441 C440 1.365 . S
C441 C442 1.393 . S
C442 C441 1.393 . S
C442 C443 1.387 . S
C443 H430 0.930 . S
C443 C438 1.415 . S
C443 C442 1.387 . S
C444 C445 1.387 . S
C444 H448 0.950 . S
C444 C453 1.390 . S
C445 C444 1.387 . S
C445 C447 1.387 . S
H446 C453 0.950 . S
C447 C445 1.387 . S
C447 C449 1.390 . S
C447 H451 0.950 . S
H448 C444 0.950 . S
C449 C447 1.390 . S
C449 C450 1.387 . S
C449 H452 0.950 . S
C450 C449 1.387 . S
C450 C453 1.387 . S
H451 C447 0.950 . S
H452 C449 0.950 . S
C453 C444 1.390 . S
C453 H446 0.950 . S
C453 C450 1.387 . S
C454 C455 1.387 . S
C454 H458 0.950 . S
C454 C463 1.390 . S
C455 C454 1.387 . S
C455 C457 1.387 . S
H456 C463 0.950 . S
C457 C455 1.387 . S
C457 C459 1.390 . S
C457 H461 0.950 . S
H458 C454 0.950 . S
C459 C457 1.390 . S
C459 C460 1.387 . S
C459 H462 0.950 . S
C460 C459 1.387 . S
C460 C463 1.387 . S
H461 C457 0.950 . S
H462 C459 0.950 . S
C463 C454 1.390 . S
C463 H456 0.950 . S
C463 C460 1.387 . S
C464 C465 1.387 . S
C464 H468 0.950 . S
C464 C473 1.390 . S
C465 C464 1.387 . S
C465 C467 1.387 . S
H466 C473 0.950 . S
C467 C465 1.387 . S
C467 C469 1.390 . S
C467 H471 0.950 . S
H468 C464 0.950 . S
C469 C467 1.390 . S
C469 C470 1.387 . S
C469 H472 0.950 . S
C470 C469 1.387 . S
C470 C473 1.387 . S
H471 C467 0.950 . S
H472 C469 0.950 . S
C473 C464 1.390 . S
C473 H466 0.950 . S
C473 C470 1.387 . S
C474 C475 1.387 . S
C474 H478 0.950 . S
C474 C483 1.390 . S
C475 C474 1.387 . S
C475 C477 1.387 . S
H476 C483 0.950 . S
C477 C475 1.387 . S
C477 C479 1.390 . S
C477 H481 0.950 . S
H478 C474 0.950 . S
C479 C477 1.390 . S
C479 C480 1.387 . S
C479 H482 0.950 . S
C480 C479 1.387 . S
C480 C483 1.387 . S
H481 C477 0.950 . S
H482 C479 0.950 . S
C483 C474 1.390 . S
C483 H476 0.950 . S
C483 C480 1.387 . S
C484 C485 1.387 . S
C484 H488 0.950 . S
C484 C493 1.390 . S
C485 C484 1.387 . S
C485 C487 1.387 . S
H486 C493 0.950 . S
C487 C485 1.387 . S
C487 C489 1.390 . S
C487 H491 0.950 . S
H488 C484 0.950 . S
C489 C487 1.390 . S
C489 C490 1.387 . S
C489 H492 0.950 . S
C490 C489 1.387 . S
C490 C493 1.387 . S
H491 C487 0.950 . S
H492 C489 0.950 . S
C493 C484 1.390 . S
C493 H486 0.950 . S
C493 C490 1.387 . S
C494 C495 1.387 . S
C494 H498 0.950 . S
C494 C503 1.390 . S
C495 C494 1.387 . S
C495 C497 1.387 . S
H496 C503 0.950 . S
C497 C495 1.387 . S
C497 C499 1.390 . S
C497 H501 0.950 . S
H498 C494 0.950 . S
C499 C497 1.390 . S
C499 C500 1.387 . S
C499 H502 0.950 . S
C500 C499 1.387 . S
C500 C503 1.387 . S
H501 C497 0.950 . S
H502 C499 0.950 . S
C503 C494 1.390 . S
C503 H496 0.950 . S
C503 C500 1.387 . S
C504 C505 1.387 . S
C504 H508 0.950 . S
C504 C513 1.390 . S
C505 C504 1.387 . S
C505 C507 1.387 . S
H506 C513 0.950 . S
C507 C505 1.387 . S
C507 C509 1.390 . S
C507 H511 0.950 . S
H508 C504 0.950 . S
C509 C507 1.390 . S
C509 C510 1.387 . S
C509 H512 0.950 . S
C510 C509 1.387 . S
C510 C513 1.387 . S
H511 C507 0.950 . S
H512 C509 0.950 . S
C513 C504 1.390 . S
C513 H506 0.950 . S
C513 C510 1.387 . S
C514 C515 1.387 . S
C514 H518 0.950 . S
C514 C523 1.390 . S
C515 C514 1.387 . S
C515 C517 1.387 . S
H516 C523 0.950 . S
C517 C515 1.387 . S
C517 C519 1.390 . S
C517 H521 0.950 . S
H518 C514 0.950 . S
C519 C517 1.390 . S
C519 C520 1.387 . S
C519 H522 0.950 . S
C520 C519 1.387 . S
C520 C523 1.387 . S
H521 C517 0.950 . S
H522 C519 0.950 . S
C523 C514 1.390 . S
C523 H516 0.950 . S
C523 C520 1.387 . S
C524 C525 1.387 . S
C524 H528 0.950 . S
C524 C533 1.390 . S
C525 C524 1.387 . S
C525 C527 1.387 . S
H526 C533 0.950 . S
C527 C525 1.387 . S
C527 C529 1.390 . S
C527 H531 0.950 . S
H528 C524 0.950 . S
C529 C527 1.390 . S
C529 C530 1.387 . S
C529 H532 0.950 . S
C530 C529 1.387 . S
C530 C533 1.387 . S
H531 C527 0.950 . S
H532 C529 0.950 . S
C533 C524 1.390 . S
C533 H526 0.950 . S
C533 C530 1.387 . S
C534 C535 1.387 . S
C534 H538 0.950 . S
C534 C543 1.390 . S
C535 C534 1.387 . S
C535 C537 1.387 . S
H536 C543 0.950 . S
C537 C535 1.387 . S
C537 C539 1.390 . S
C537 H541 0.950 . S
H538 C534 0.950 . S
C539 C537 1.390 . S
C539 C540 1.387 . S
C539 H542 0.950 . S
C540 C539 1.387 . S
C540 C543 1.387 . S
H541 C537 0.950 . S
H542 C539 0.950 . S
C543 C534 1.390 . S
C543 H536 0.950 . S
C543 C540 1.387 . S
C544 C545 1.387 . S
C544 H548 0.950 . S
C544 C553 1.390 . S
C545 C544 1.387 . S
C545 C547 1.387 . S
H546 C553 0.950 . S
C547 C545 1.387 . S
C547 C549 1.390 . S
C547 H551 0.950 . S
H548 C544 0.950 . S
C549 C547 1.390 . S
C549 C550 1.387 . S
C549 H552 0.950 . S
C550 C549 1.387 . S
C550 C553 1.387 . S
H551 C547 0.950 . S
H552 C549 0.950 . S
C553 C544 1.390 . S
C553 H546 0.950 . S
C553 C550 1.387 . S
C554 C555 1.387 . S
C554 H558 0.950 . S
C554 C563 1.390 . S
C555 C554 1.387 . S
C555 C557 1.387 . S
H556 C563 0.950 . S
C557 C555 1.387 . S
C557 C559 1.390 . S
C557 H561 0.950 . S
H558 C554 0.950 . S
C559 C557 1.390 . S
C559 C560 1.387 . S
C559 H562 0.950 . S
C560 C559 1.387 . S
C560 C563 1.387 . S
H561 C557 0.950 . S
H562 C559 0.950 . S
C563 C554 1.390 . S
C563 H556 0.950 . S
C563 C560 1.387 . S
C564 C565 1.387 . S
C564 H568 0.950 . S
C564 C573 1.390 . S
C565 C564 1.387 . S
C565 C567 1.387 . S
H566 C573 0.950 . S
C567 C565 1.387 . S
C567 C569 1.390 . S
C567 H571 0.950 . S
H568 C564 0.950 . S
C569 C567 1.390 . S
C569 C570 1.387 . S
C569 H572 0.950 . S
C570 C569 1.387 . S
C570 C573 1.387 . S
H571 C567 0.950 . S
H572 C569 0.950 . S
C573 C564 1.390 . S
C573 H566 0.950 . S
C573 C570 1.387 . S
C574 C575 1.387 . S
C574 H578 0.950 . S
C574 C583 1.390 . S
C575 C574 1.387 . S
C575 C577 1.387 . S
H576 C583 0.950 . S
C577 C575 1.387 . S
C577 C579 1.390 . S
C577 H581 0.950 . S
H578 C574 0.950 . S
C579 C577 1.390 . S
C579 C580 1.387 . S
C579 H582 0.950 . S
C580 C579 1.387 . S
C580 C583 1.387 . S
H581 C577 0.950 . S
H582 C579 0.950 . S
C583 C574 1.390 . S
C583 H576 0.950 . S
C583 C580 1.387 . S
C584 C585 1.387 . S
C584 H588 0.950 . S
C584 C593 1.390 . S
C585 C584 1.387 . S
C585 C587 1.387 . S
H586 C593 0.950 . S
C587 C585 1.387 . S
C587 C589 1.390 . S
C587 H591 0.950 . S
H588 C584 0.950 . S
C589 C587 1.390 . S
C589 C590 1.387 . S
C589 H592 0.950 . S
C590 C589 1.387 . S
C590 C593 1.387 . S
H591 C587 0.950 . S
H592 C589 0.950 . S
C593 C584 1.390 . S
C593 H586 0.950 . S
C593 C590 1.387 . S
C594 C595 1.387 . S
C594 H598 0.950 . S
C594 C603 1.390 . S
C595 C594 1.387 . S
C595 C597 1.387 . S
H596 C603 0.950 . S
C597 C595 1.387 . S
C597 C599 1.390 . S
C597 H601 0.950 . S
H598 C594 0.950 . S
C599 C597 1.390 . S
C599 C600 1.387 . S
C599 H602 0.950 . S
C600 C599 1.387 . S
C600 C603 1.387 . S
H601 C597 0.950 . S
H602 C599 0.950 . S
C603 C594 1.390 . S
C603 H596 0.950 . S
C603 C600 1.387 . S
C604 C605 1.387 . S
C604 H608 0.950 . S
C604 C613 1.390 . S
C605 C604 1.387 . S
C605 C607 1.387 . S
H606 C613 0.950 . S
C607 C605 1.387 . S
C607 C609 1.390 . S
C607 H611 0.950 . S
H608 C604 0.950 . S
C609 C607 1.390 . S
C609 C610 1.387 . S
C609 H612 0.950 . S
C610 C609 1.387 . S
C610 C613 1.387 . S
H611 C607 0.950 . S
H612 C609 0.950 . S
C613 C604 1.390 . S
C613 H606 0.950 . S
C613 C610 1.387 . S
C614 C615 1.387 . S
C614 H618 0.950 . S
C614 C623 1.390 . S
C615 C614 1.387 . S
C615 C617 1.387 . S
H616 C623 0.950 . S
C617 C615 1.387 . S
C617 C619 1.390 . S
C617 H621 0.950 . S
H618 C614 0.950 . S
C619 C617 1.390 . S
C619 C620 1.387 . S
C619 H622 0.950 . S
C620 C619 1.387 . S
C620 C623 1.387 . S
H621 C617 0.950 . S
H622 C619 0.950 . S
C623 C614 1.390 . S
C623 H616 0.950 . S
C623 C620 1.387 . S
C624 C625 1.387 . S
C624 H628 0.950 . S
C624 C633 1.390 . S
C625 C624 1.387 . S
C625 C627 1.387 . S
H626 C633 0.950 . S
C627 C625 1.387 . S
C627 C629 1.390 . S
C627 H631 0.950 . S
H628 C624 0.950 . S
C629 C627 1.390 . S
C629 C630 1.387 . S
C629 H632 0.950 . S
C630 C629 1.387 . S
C630 C633 1.387 . S
H631 C627 0.950 . S
H632 C629 0.950 . S
C633 C624 1.390 . S
C633 H626 0.950 . S
C633 C630 1.387 . S
C634 C635 1.387 . S
C634 H638 0.950 . S
C634 C643 1.390 . S
C635 C634 1.387 . S
C635 C637 1.387 . S
H636 C643 0.950 . S
C637 C635 1.387 . S
C637 C639 1.390 . S
C637 H641 0.950 . S
H638 C634 0.950 . S
C639 C637 1.390 . S
C639 C640 1.387 . S
C639 H642 0.950 . S
C640 C639 1.387 . S
C640 C643 1.387 . S
H641 C637 0.950 . S
H642 C639 0.950 . S
C643 C634 1.390 . S
C643 H636 0.950 . S
C643 C640 1.387 . S
C644 C645 1.387 . S
C644 H648 0.950 . S
C644 C653 1.390 . S
C645 C644 1.387 . S
C645 C647 1.387 . S
H646 C653 0.950 . S
C647 C645 1.387 . S
C647 C649 1.390 . S
C647 H651 0.950 . S
H648 C644 0.950 . S
C649 C647 1.390 . S
C649 C650 1.387 . S
C649 H652 0.950 . S
C650 C649 1.387 . S
C650 C653 1.387 . S
H651 C647 0.950 . S
H652 C649 0.950 . S
C653 C644 1.390 . S
C653 H646 0.950 . S
C653 C650 1.387 . S
C654 C655 1.387 . S
C654 H658 0.950 . S
C654 C663 1.390 . S
C655 C654 1.387 . S
C655 C657 1.387 . S
H656 C663 0.950 . S
C657 C655 1.387 . S
C657 C659 1.390 . S
C657 H661 0.950 . S
H658 C654 0.950 . S
C659 C657 1.390 . S
C659 C660 1.387 . S
C659 H662 0.950 . S
C660 C659 1.387 . S
C660 C663 1.387 . S
H661 C657 0.950 . S
H662 C659 0.950 . S
C663 C654 1.390 . S
C663 H656 0.950 . S
C663 C660 1.387 . S
C664 C665 1.387 . S
C664 H668 0.950 . S
C664 C673 1.390 . S
C665 C664 1.387 . S
C665 C667 1.387 . S
H666 C673 0.950 . S
C667 C665 1.387 . S
C667 C669 1.390 . S
C667 H671 0.950 . S
H668 C664 0.950 . S
C669 C667 1.390 . S
C669 C670 1.387 . S
C669 H672 0.950 . S
C670 C669 1.387 . S
C670 C673 1.387 . S
H671 C667 0.950 . S
H672 C669 0.950 . S
C673 C664 1.390 . S
C673 H666 0.950 . S
C673 C670 1.387 . S
C674 C675 1.387 . S
C674 H678 0.950 . S
C674 C683 1.390 . S
C675 C674 1.387 . S
C675 C677 1.387 . S
H676 C683 0.950 . S
C677 C675 1.387 . S
C677 C679 1.390 . S
C677 H681 0.950 . S
H678 C674 0.950 . S
C679 C677 1.390 . S
C679 C680 1.387 . S
C679 H682 0.950 . S
C680 C679 1.387 . S
C680 C683 1.387 . S
H681 C677 0.950 . S
H682 C679 0.950 . S
C683 C674 1.390 . S
C683 H676 0.950 . S
C683 C680 1.387 . S
C445 C39 1.673 . S
C450 C327 1.480 . S
C455 C91 1.650 . S
C460 C348 1.508 . S
C470 C369 1.362 . S
C465 C128 1.485 . S
C480 C398 1.445 . S
C475 C188 1.484 . S
C490 C411 1.421 . S
C485 C250 1.522 . S
C500 C435 1.577 . S
C495 C304 1.669 . S
C505 C75 1.557 . S
C510 C379 1.395 . S
C515 C144 1.709 . S
C520 C393 1.578 . S
C530 C421 1.457 . S
C525 C198 1.597 . S
C540 C440 1.447 . S
C535 C234 1.516 . S
C545 C294 1.421 . S
C550 C337 1.345 . S
C560 C358 1.401 . S
C555 C29 1.493 . S
C570 C400 1.589 . S
C565 C38 1.695 . S
C575 C92 1.683 . S
C580 C414 1.498 . S
C590 C432 1.473 . S
C585 C135 1.519 . S
C595 C181 1.506 . S
C600 C330 1.368 . S
C605 C251 1.554 . S
C610 C351 1.410 . S
C615 C303 1.708 . S
C620 C372 1.475 . S
C625 C82 1.587 . S
C630 C442 1.496 . S
C640 C335 1.519 . S
C635 C145 1.737 . S
C645 C197 1.632 . S
C650 C356 1.444 . S
C655 C241 1.549 . S
C660 C377 1.385 . S
C665 C287 1.452 . S
C670 C390 1.420 . S
C675 C22 1.526 . S
C680 C419 1.396 . S
