# Generated by pormake.
# Topology nom, (4,4)-cn, num edge types: 1
# Building blocks:
#     Node 0, Type 0, BuildingBlock: GIZVER_clean_linker_0, # of connection points: 4
#     Node 1, Type 0, BuildingBlock: GIZVER_clean_linker_0, # of connection points: 4
#     Node 2, Type 0, BuildingBlock: GIZVER_clean_linker_0, # of connection points: 4
#     Node 3, Type 0, BuildingBlock: GIZVER_clean_linker_0, # of connection points: 4
#     Node 4, Type 0, BuildingBlock: GIZVER_clean_linker_0, # of connection points: 4
#     Node 5, Type 0, BuildingBlock: GIZVER_clean_linker_0, # of connection points: 4
#     Node 6, Type 1, BuildingBlock: UXUYUI_clean_sbu_0, # of connection points: 4
#     Node 7, Type 1, BuildingBlock: UXUYUI_clean_sbu_0, # of connection points: 4
#     Node 8, Type 1, BuildingBlock: UXUYUI_clean_sbu_0, # of connection points: 4
#     Node 9, Type 1, BuildingBlock: UXUYUI_clean_sbu_0, # of connection points: 4
#     Node 10, Type 1, BuildingBlock: UXUYUI_clean_sbu_0, # of connection points: 4
#     Node 11, Type 1, BuildingBlock: UXUYUI_clean_sbu_0, # of connection points: 4
#     Edge 12, Type (0, 1), BuildingBlock: XIVTED_clean_linker_0, # of connection points: 2
#     Edge 13, Type (0, 1), BuildingBlock: XIVTED_clean_linker_0, # of connection points: 2
#     Edge 14, Type (0, 1), BuildingBlock: XIVTED_clean_linker_0, # of connection points: 2
#     Edge 15, Type (0, 1), BuildingBlock: XIVTED_clean_linker_0, # of connection points: 2
#     Edge 16, Type (0, 1), BuildingBlock: XIVTED_clean_linker_0, # of connection points: 2
#     Edge 17, Type (0, 1), BuildingBlock: XIVTED_clean_linker_0, # of connection points: 2
#     Edge 18, Type (0, 1), BuildingBlock: XIVTED_clean_linker_0, # of connection points: 2
#     Edge 19, Type (0, 1), BuildingBlock: XIVTED_clean_linker_0, # of connection points: 2
#     Edge 20, Type (0, 1), BuildingBlock: XIVTED_clean_linker_0, # of connection points: 2
#     Edge 21, Type (0, 1), BuildingBlock: XIVTED_clean_linker_0, # of connection points: 2
#     Edge 22, Type (0, 1), BuildingBlock: XIVTED_clean_linker_0, # of connection points: 2
#     Edge 23, Type (0, 1), BuildingBlock: XIVTED_clean_linker_0, # of connection points: 2
#     Edge 24, Type (0, 1), BuildingBlock: XIVTED_clean_linker_0, # of connection points: 2
#     Edge 25, Type (0, 1), BuildingBlock: XIVTED_clean_linker_0, # of connection points: 2
#     Edge 26, Type (0, 1), BuildingBlock: XIVTED_clean_linker_0, # of connection points: 2
#     Edge 27, Type (0, 1), BuildingBlock: XIVTED_clean_linker_0, # of connection points: 2
#     Edge 28, Type (0, 1), BuildingBlock: XIVTED_clean_linker_0, # of connection points: 2
#     Edge 29, Type (0, 1), BuildingBlock: XIVTED_clean_linker_0, # of connection points: 2
#     Edge 30, Type (0, 1), BuildingBlock: XIVTED_clean_linker_0, # of connection points: 2
#     Edge 31, Type (0, 1), BuildingBlock: XIVTED_clean_linker_0, # of connection points: 2
#     Edge 32, Type (0, 1), BuildingBlock: XIVTED_clean_linker_0, # of connection points: 2
#     Edge 33, Type (0, 1), BuildingBlock: XIVTED_clean_linker_0, # of connection points: 2
#     Edge 34, Type (0, 1), BuildingBlock: XIVTED_clean_linker_0, # of connection points: 2
#     Edge 35, Type (0, 1), BuildingBlock: XIVTED_clean_linker_0, # of connection points: 2
# Relax obj value: 0.036
# Max RMSD: 0.149
# Mean RMSD: 0.105
data_MOF--net-nom--node1-UXUYUI_clean_sbu_0--node2-GIZVER_clean_linker_0--edge1-XIVTED_clean_linker_0
_symmetry_space_group_name_H-M    P1
_symmetry_Int_Tables_number       1
_symmetry_cell_setting            triclinic
loop_
_symmetry_equiv_pos_as_xyz
'x, y, z'
_cell_length_a     57.140377
_cell_length_b     57.188112
_cell_length_c     57.049141
_cell_angle_alpha  89.935963
_cell_angle_beta   90.041529
_cell_angle_gamma 120.02611
loop_
_atom_site_label
_atom_site_type_symbol
_atom_site_fract_x
_atom_site_fract_y
_atom_site_fract_z
_atom_type_partial_charge
H0 H 0.98377 0.56326 0.35902 0.0
H1 H 0.99312 0.55113 0.28596 0.0
H2 H 0.92461 0.49108 0.32458 0.0
H3 H 0.01797 0.59972 0.33604 0.0
H4 H 0.01809 0.59647 0.30491 0.0
H5 H 0.03519 0.57078 0.35989 0.0
H6 H 0.11137 0.58596 0.33195 0.0
H7 H 0.05779 0.59985 0.28911 0.0
C8 C 0.97705 0.5505 0.3436 0.0
C9 C 0.95248 0.52596 0.34423 0.0
C10 C 0.9924 0.55911 0.3228 0.0
C11 C 0.98228 0.54347 0.30231 0.0
C12 C 0.95735 0.51917 0.30261 0.0
C13 C 0.94364 0.50995 0.32403 0.0
C14 C 0.0178 0.58645 0.32172 0.0
C15 C 0.043 0.58424 0.32388 0.0
C16 C 0.04914 0.57629 0.34531 0.0
C17 C 0.07366 0.5765 0.34826 0.0
C18 C 0.09181 0.58434 0.32941 0.0
C19 C 0.08637 0.5929 0.30811 0.0
C20 C 0.06184 0.59269 0.30537 0.0
H21 H 0.44035 0.97948 0.51999 0.0
H22 H 0.46624 1.00258 0.44858 0.0
H23 H 0.45327 0.9267 0.47527 0.0
H24 H 0.439 0.01732 0.50325 0.0
H25 H 0.44107 0.02127 0.47212 0.0
H26 H 0.48527 0.03364 0.52529 0.0
H27 H 0.54574 0.112 0.50069 0.0
H28 H 0.47742 0.06192 0.4573 0.0
C29 C 0.44677 0.97552 0.50332 0.0
C30 C 0.44695 0.95126 0.50006 0.0
C31 C 0.45408 0.99431 0.48487 0.0
C32 C 0.4614 0.98852 0.463 0.0
C33 C 0.46151 0.96427 0.4595 0.0
C34 C 0.45465 0.94608 0.47823 0.0
C35 C 0.45161 0.01924 0.48772 0.0
C36 C 0.47892 0.04437 0.49054 0.0
C37 C 0.49343 0.04877 0.51156 0.0
C38 C 0.51775 0.07306 0.5153 0.0
C39 C 0.52775 0.09265 0.49751 0.0
C40 C 0.51335 0.08889 0.47665 0.0
C41 C 0.48894 0.06465 0.47317 0.0
H42 H 0.4316 0.47226 0.62513 0.0
H43 H 0.46115 0.47809 0.69561 0.0
H44 H 0.44534 0.53909 0.6687 0.0
H45 H 0.43377 0.43492 0.64128 0.0
H46 H 0.43426 0.4329 0.6725 0.0
H47 H 0.48161 0.46657 0.6214 0.0
H48 H 0.54083 0.44838 0.64884 0.0
H49 H 0.46966 0.42816 0.68883 0.0
C50 C 0.43875 0.48328 0.64145 0.0
C51 C 0.4384 0.50748 0.6445 0.0
C52 C 0.44742 0.47282 0.65972 0.0
C53 C 0.45543 0.48662 0.68124 0.0
C54 C 0.45504 0.51077 0.68451 0.0
C55 C 0.44702 0.52123 0.6659 0.0
C56 C 0.44551 0.44562 0.65718 0.0
C57 C 0.47309 0.44816 0.6557 0.0
C58 C 0.48895 0.45916 0.63545 0.0
C59 C 0.51363 0.4596 0.63293 0.0
C60 C 0.52254 0.44943 0.65112 0.0
C61 C 0.50687 0.43803 0.67126 0.0
C62 C 0.48214 0.43749 0.67352 0.0
H63 H 0.97288 0.42759 0.79875 0.0
H64 H 0.01388 0.4668 0.86273 0.0
H65 H 0.93388 0.4523 0.84935 0.0
H66 H 0.01643 0.43355 0.80587 0.0
H67 H 0.02363 0.43362 0.83628 0.0
H68 H 0.03791 0.47717 0.78333 0.0
H69 H 0.11422 0.53918 0.81008 0.0
H70 H 0.06144 0.47243 0.85417 0.0
C71 C 0.9736 0.43797 0.81485 0.0
C72 C 0.95047 0.43856 0.82237 0.0
C73 C 0.99698 0.44891 0.82904 0.0
C74 C 0.99681 0.46013 0.85096 0.0
C75 C 0.97416 0.46163 0.85817 0.0
C76 C 0.95163 0.45176 0.84341 0.0
C77 C 0.02065 0.44546 0.82231 0.0
C78 C 0.04631 0.47232 0.81937 0.0
C79 C 0.05204 0.48592 0.79776 0.0
C80 C 0.07645 0.51019 0.79442 0.0
C81 C 0.09483 0.52112 0.81303 0.0
C82 C 0.08978 0.50758 0.83456 0.0
C83 C 0.06535 0.48322 0.8377 0.0
H84 H 0.60433 0.05733 0.01985 0.0
H85 H 0.57667 0.03212 0.94916 0.0
H86 H 0.58908 0.1082 0.97442 0.0
H87 H 0.60503 0.01893 0.00401 0.0
H88 H 0.60219 0.01399 0.97303 0.0
H89 H 0.5616 1.00009 0.0284 0.0
H90 H 0.49805 0.92388 0.00306 0.0
H91 H 0.56314 0.97592 0.95718 0.0
C92 C 0.59713 0.0606 0.00327 0.0
C93 C 0.59684 0.08474 -0.00049 0.0
C94 C 0.58926 0.04119 0.98532 0.0
C95 C 0.58145 0.04634 0.96341 0.0
C96 C 0.58098 0.07035 0.95954 0.0
C97 C 0.58805 0.08904 0.97782 0.0
C98 C 0.59198 0.01648 0.98865 0.0
C99 C 0.56478 0.99139 0.99208 0.0
C100 C 0.55207 0.98594 0.01411 0.0
C101 C 0.52776 0.96174 0.01802 0.0
C102 C 0.516 0.9432 -0.00037 0.0
C103 C 0.52872 0.94791 0.97773 0.0
C104 C 0.55297 0.97228 0.97394 0.0
H105 H 0.61133 0.56129 0.13327 0.0
H106 H 0.56858 0.55322 0.19782 0.0
H107 H 0.59424 0.49641 0.18071 0.0
H108 H 0.60068 0.59511 0.14298 0.0
H109 H 0.59998 0.59968 0.1738 0.0
H110 H 0.55526 0.56589 0.12172 0.0
H111 H 0.49254 0.57953 0.14787 0.0
H112 H 0.56165 0.59899 0.19075 0.0
C113 C 0.60162 0.55005 0.14906 0.0
C114 C 0.60414 0.52763 0.15519 0.0
C115 C 0.58837 0.55919 0.16423 0.0
C116 C 0.57756 0.54552 0.18555 0.0
C117 C 0.57923 0.52255 0.19139 0.0
C118 C 0.59202 0.51355 0.17587 0.0
C119 C 0.58903 0.58545 0.15921 0.0
C120 C 0.56103 0.58176 0.15686 0.0
C121 C 0.54657 0.57177 0.13581 0.0
C122 C 0.52167 0.57069 0.1325 0.0
C123 C 0.511 0.57894 0.15076 0.0
C124 C 0.52526 0.58928 0.17174 0.0
C125 C 0.55023 0.59047 0.17478 0.0
Li126 Li 0.6412 0.41385 0.435 0.0
Li127 Li 0.63531 0.37226 0.41629 0.0
Li128 Li 0.67666 0.41475 0.41269 0.0
Li129 Li 0.63769 0.41017 0.39294 0.0
C130 C 0.68323 0.40294 0.45521 0.0
N131 N 0.73106 0.42275 0.47996 0.0
C132 C 0.69719 0.38866 0.45558 0.0
C133 C 0.69369 0.42735 0.46739 0.0
C134 C 0.72133 0.39901 0.46818 0.0
C135 C 0.71784 0.43698 0.47985 0.0
C136 C 0.58881 0.37916 0.43072 0.0
C137 C 0.54909 0.38059 0.44272 0.0
N138 N 0.54696 0.36553 0.46192 0.0
C139 C 0.58619 0.36363 0.45053 0.0
C140 C 0.5701 0.38767 0.42672 0.0
C141 C 0.5649 0.35695 0.46611 0.0
C142 C 0.62123 0.44493 0.45469 0.0
N143 N 0.6302 0.42765 0.46028 0.0
C144 C 0.61973 0.42852 0.50065 0.0
C145 C 0.62963 0.4193 0.48269 0.0
C146 C 0.6099 0.44606 0.49534 0.0
C147 C 0.61076 0.45431 0.47203 0.0
H148 H 0.62169 0.45093 0.43663 0.0
H149 H 0.63641 0.40511 0.48652 0.0
C150 C 0.6326 0.32179 0.42434 0.0
N151 N 0.61801 0.33365 0.41816 0.0
C152 C 0.62012 0.2937 0.42624 0.0
C153 C 0.57797 0.29042 0.41451 0.0
C154 C 0.59122 0.31858 0.41309 0.0
C155 C 0.59234 0.27752 0.42142 0.0
H156 H 0.65391 0.33413 0.42796 0.0
H157 H 0.58005 0.32842 0.40794 0.0
C158 C 0.67971 0.46216 0.39711 0.0
N159 N 0.71128 0.50453 0.36732 0.0
C160 C 0.68938 0.45742 0.37618 0.0
C161 C 0.68605 0.48843 0.40285 0.0
C162 C 0.70532 0.47912 0.36137 0.0
C163 C 0.70206 0.50959 0.38757 0.0
C164 C 0.64488 0.37121 0.36891 0.0
C165 C 0.66075 0.36546 0.35403 0.0
C166 C 0.61696 0.3585 0.36527 0.0
C167 C 0.64844 0.34709 0.33571 0.0
C168 C 0.60541 0.34024 0.34677 0.0
N169 N 0.62125 0.33496 0.3325 0.0
C170 C 0.72549 0.41622 0.40072 0.0
C171 C 0.73155 0.45561 0.41987 0.0
C172 C 0.75345 0.42707 0.39921 0.0
N173 N 0.71515 0.43059 0.41085 0.0
C174 C 0.75962 0.46721 0.4188 0.0
C175 C 0.77099 0.45298 0.40826 0.0
H176 H 0.71197 0.39632 0.39378 0.0
H177 H 0.7228 0.46653 0.42804 0.0
C178 C 0.61082 0.43457 0.37359 0.0
N179 N 0.62389 0.42116 0.36734 0.0
C180 C 0.6003 0.44425 0.35651 0.0
C181 C 0.61711 0.42635 0.32675 0.0
C182 C 0.62759 0.41728 0.34443 0.0
C183 C 0.60325 0.44003 0.33273 0.0
H184 H 0.60886 0.43801 0.39193 0.0
H185 H 0.63894 0.40752 0.33979 0.0
O186 O 0.65994 0.39357 0.44243 0.0
O187 O 0.6101 0.38669 0.41575 0.0
O188 O 0.66395 0.44133 0.41196 0.0
O189 O 0.65677 0.3889 0.38708 0.0
H190 H 0.68973 0.37 0.44601 0.0
H191 H 0.6836 0.43906 0.46684 0.0
H192 H 0.73239 0.38823 0.46852 0.0
H193 H 0.7262 0.4559 0.48925 0.0
H194 H 0.53451 0.38712 0.4399 0.0
H195 H 0.60071 0.35717 0.45405 0.0
H196 H 0.5718 0.39968 0.41148 0.0
H197 H 0.56272 0.34509 0.48158 0.0
H198 H 0.61899 0.42139 0.51838 0.0
H199 H 0.6034 0.46783 0.46729 0.0
H200 H 0.63208 0.28487 0.43193 0.0
H201 H 0.55669 0.27894 0.41017 0.0
H202 H 0.68471 0.43727 0.37137 0.0
H203 H 0.67867 0.49241 0.41897 0.0
H204 H 0.71294 0.47574 0.34513 0.0
H205 H 0.70714 0.53003 0.3918 0.0
H206 H 0.68239 0.37509 0.35661 0.0
H207 H 0.60432 0.36281 0.37641 0.0
H208 H 0.6605 0.34246 0.32406 0.0
H209 H 0.58384 0.33031 0.34375 0.0
H210 H 0.7612 0.41548 0.39059 0.0
H211 H 0.77226 0.48705 0.42629 0.0
H212 H 0.58984 0.45477 0.36185 0.0
H213 H 0.62037 0.42326 0.30859 0.0
Li214 Li 0.24965 0.63841 0.59385 0.0
Li215 Li 0.28349 0.63071 0.57108 0.0
Li216 Li 0.28559 0.67407 0.57044 0.0
Li217 Li 0.25084 0.63767 0.54959 0.0
C218 C 0.3103 0.67419 0.61012 0.0
N219 N 0.354 0.71537 0.6331 0.0
C220 C 0.33649 0.68325 0.60191 0.0
C221 C 0.30628 0.68584 0.6301 0.0
C222 C 0.35834 0.70417 0.61375 0.0
C223 C 0.32867 0.70669 0.64146 0.0
C224 C 0.23666 0.58192 0.57374 0.0
C225 C 0.23854 0.54346 0.55873 0.0
N226 N 0.22438 0.52877 0.57769 0.0
C227 C 0.22203 0.5664 0.59303 0.0
C228 C 0.24488 0.57032 0.55639 0.0
C229 C 0.21604 0.53958 0.59472 0.0
C230 C 0.20182 0.62503 0.61821 0.0
N231 N 0.22636 0.62675 0.62012 0.0
C232 C 0.21488 0.60577 0.65779 0.0
C233 C 0.23334 0.61777 0.63948 0.0
C234 C 0.18929 0.60349 0.65619 0.0
C235 C 0.18298 0.61373 0.63633 0.0
H236 H 0.19669 0.63187 0.60236 0.0
H237 H 0.25285 0.61901 0.64026 0.0
C238 C 0.32485 0.61891 0.55868 0.0
N239 N 0.30397 0.61271 0.57358 0.0
C240 C 0.34033 0.60632 0.56104 0.0
C241 C 0.31265 0.58137 0.59413 0.0
C242 C 0.29793 0.59464 0.59129 0.0
C243 C 0.33423 0.58719 0.57893 0.0
H244 H 0.32972 0.63392 0.54515 0.0
H245 H 0.28175 0.59068 0.60334 0.0
C246 C 0.24712 0.6869 0.57413 0.0
N247 N 0.24878 0.73561 0.58072 0.0
C248 C 0.25349 0.70495 0.55544 0.0
C249 C 0.24155 0.69365 0.59616 0.0
C250 C 0.25427 0.72947 0.55913 0.0
C251 C 0.24246 0.71835 0.59913 0.0
C252 C 0.28871 0.65283 0.51992 0.0
C253 C 0.2857 0.67193 0.50697 0.0
C254 C 0.28904 0.63147 0.50834 0.0
C255 C 0.28277 0.66917 0.48265 0.0
C256 C 0.28608 0.62943 0.48399 0.0
N257 N 0.28299 0.64814 0.47176 0.0
C258 C 0.32907 0.72197 0.55202 0.0
C259 C 0.31087 0.72946 0.5866 0.0
C260 C 0.34711 0.74962 0.5497 0.0
N261 N 0.31102 0.71246 0.56998 0.0
C262 C 0.32836 0.75733 0.5848 0.0
C263 C 0.34661 0.76775 0.56601 0.0
H264 H 0.32927 0.70812 0.53929 0.0
H265 H 0.29694 0.72149 0.60112 0.0
C266 C 0.2197 0.60252 0.5122 0.0
N267 N 0.22631 0.62589 0.5236 0.0
C268 C 0.20014 0.59293 0.49452 0.0
C269 C 0.19478 0.6318 0.50043 0.0
C270 C 0.21429 0.64051 0.51806 0.0
C271 C 0.1872 0.60752 0.48853 0.0
H272 H 0.22928 0.59107 0.51702 0.0
H273 H 0.21951 0.65877 0.52757 0.0
O274 O 0.28865 0.65412 0.59853 0.0
O275 O 0.24298 0.60833 0.57198 0.0
O276 O 0.24627 0.66275 0.57089 0.0
O277 O 0.29086 0.65482 0.54383 0.0
H278 H 0.33985 0.6744 0.58642 0.0
H279 H 0.28608 0.67901 0.63661 0.0
H280 H 0.37873 0.71155 0.60752 0.0
H281 H 0.3259 0.71604 0.65688 0.0
H282 H 0.245 0.53433 0.54552 0.0
H283 H 0.21525 0.57488 0.60652 0.0
H284 H 0.25655 0.58207 0.54154 0.0
H285 H 0.20476 0.52737 0.60957 0.0
H286 H 0.22039 0.59808 0.67291 0.0
H287 H 0.16332 0.61204 0.63446 0.0
H288 H 0.35687 0.61147 0.549 0.0
H289 H 0.30764 0.56725 0.60849 0.0
H290 H 0.2581 0.70026 0.53832 0.0
H291 H 0.23702 0.68024 0.61094 0.0
H292 H 0.25933 0.74367 0.54485 0.0
H293 H 0.23832 0.72386 0.61611 0.0
H294 H 0.28544 0.6886 0.51562 0.0
H295 H 0.29132 0.61648 0.51802 0.0
H296 H 0.28026 0.68372 0.47244 0.0
H297 H 0.28615 0.61292 0.47483 0.0
H298 H 0.36077 0.75678 0.53487 0.0
H299 H 0.3276 0.77058 0.59795 0.0
H300 H 0.19481 0.57397 0.48606 0.0
H301 H 0.18577 0.64403 0.49619 0.0
Li302 Li 0.67179 0.28068 0.74041 0.0
Li303 Li 0.63291 0.24557 0.75917 0.0
Li304 Li 0.6351 0.24433 0.71728 0.0
Li305 Li 0.62916 0.27935 0.73747 0.0
C306 C 0.66679 0.22722 0.75418 0.0
N307 N 0.6792 0.19722 0.78446 0.0
C308 C 0.68608 0.24004 0.77181 0.0
C309 C 0.65394 0.19915 0.75187 0.0
C310 C 0.69208 0.22452 0.78693 0.0
C311 C 0.66043 0.18434 0.7674 0.0
C312 C 0.63873 0.28959 0.78464 0.0
C313 C 0.59909 0.27804 0.80783 0.0
N314 N 0.61413 0.29969 0.82187 0.0
C315 C 0.65379 0.31169 0.79933 0.0
C316 C 0.61115 0.27257 0.78894 0.0
C317 C 0.64099 0.31647 0.81804 0.0
C318 C 0.71837 0.32877 0.75323 0.0
N319 N 0.70988 0.30436 0.74306 0.0
C320 C 0.75534 0.31295 0.74089 0.0
C321 C 0.72771 0.29639 0.73648 0.0
C322 C 0.76452 0.33772 0.75243 0.0
C323 C 0.74572 0.34583 0.75814 0.0
H324 H 0.70372 0.33459 0.75818 0.0
H325 H 0.72036 0.27676 0.72856 0.0
C326 C 0.59834 0.19684 0.78234 0.0
N327 N 0.62057 0.22161 0.78527 0.0
C328 C 0.59038 0.17738 0.8 0.0
C329 C 0.62833 0.20942 0.8233 0.0
C330 C 0.63521 0.22843 0.80542 0.0
C331 C 0.60585 0.18347 0.82053 0.0
H332 H 0.58733 0.19192 0.76597 0.0
H333 H 0.65285 0.24829 0.8072 0.0
C334 C 0.67694 0.29735 0.69746 0.0
N335 N 0.72398 0.324 0.67147 0.0
C336 C 0.68846 0.32494 0.69276 0.0
C337 C 0.68944 0.28337 0.689 0.0
C338 C 0.71223 0.33804 0.67958 0.0
C339 C 0.71316 0.29718 0.67586 0.0
C340 C 0.5825 0.23298 0.72262 0.0
C341 C 0.58607 0.24651 0.70132 0.0
C342 C 0.55662 0.21287 0.72931 0.0
C343 C 0.56365 0.23968 0.6871 0.0
C344 C 0.53471 0.20664 0.7146 0.0
N345 N 0.53865 0.22006 0.69398 0.0
C346 C 0.60824 0.19326 0.69762 0.0
C347 C 0.62984 0.22768 0.66905 0.0
C348 C 0.59814 0.17342 0.68028 0.0
N349 N 0.62394 0.21972 0.69178 0.0
C350 C 0.6203 0.20847 0.65112 0.0
C351 C 0.60419 0.18092 0.65666 0.0
H352 H 0.60322 0.18763 0.7158 0.0
H353 H 0.64152 0.24891 0.66478 0.0
C354 C 0.62629 0.32659 0.72853 0.0
N355 N 0.61174 0.30066 0.73615 0.0
C356 C 0.61418 0.34252 0.72641 0.0
C357 C 0.57254 0.30514 0.74099 0.0
C358 C 0.58544 0.28991 0.7427 0.0
C359 C 0.58682 0.33177 0.73247 0.0
H360 H 0.64727 0.33487 0.72394 0.0
H361 H 0.57435 0.26943 0.74921 0.0
O362 O 0.66015 0.24202 0.73957 0.0
O363 O 0.65114 0.28486 0.76622 0.0
O364 O 0.65405 0.28419 0.71086 0.0
O365 O 0.60407 0.23913 0.73692 0.0
H366 H 0.69589 0.26167 0.77415 0.0
H367 H 0.639 0.18888 0.73835 0.0
H368 H 0.7068 0.23416 0.80076 0.0
H369 H 0.65052 0.16259 0.7659 0.0
H370 H 0.57777 0.26506 0.81132 0.0
H371 H 0.67517 0.32504 0.79628 0.0
H372 H 0.59911 0.25534 0.77787 0.0
H373 H 0.6524 0.33352 0.82953 0.0
H374 H 0.76913 0.30585 0.73643 0.0
H375 H 0.75203 0.36489 0.76688 0.0
H376 H 0.57302 0.15749 0.79726 0.0
H377 H 0.64061 0.2148 0.83901 0.0
H378 H 0.67927 0.3362 0.6992 0.0
H379 H 0.68119 0.26216 0.6929 0.0
H380 H 0.72135 0.35938 0.67583 0.0
H381 H 0.72307 0.2866 0.6693 0.0
H382 H 0.60586 0.26213 0.69577 0.0
H383 H 0.55349 0.20224 0.74575 0.0
H384 H 0.56612 0.24999 0.67059 0.0
H385 H 0.51457 0.19114 0.71959 0.0
H386 H 0.58576 0.15243 0.68531 0.0
H387 H 0.62489 0.21517 0.63308 0.0
H388 H 0.62602 0.36282 0.71956 0.0
H389 H 0.55161 0.29611 0.74633 0.0
Li390 Li 0.40599 0.62883 0.93186 0.0
Li391 Li 0.41043 0.66795 0.91181 0.0
Li392 Li 0.36653 0.62632 0.90976 0.0
Li393 Li 0.40617 0.63213 0.88872 0.0
C394 C 0.38725 0.66827 0.95154 0.0
N395 N 0.39252 0.71189 0.97674 0.0
C396 C 0.40239 0.67618 0.97223 0.0
C397 C 0.37479 0.68254 0.94367 0.0
C398 C 0.40478 0.69827 0.98473 0.0
C399 C 0.37773 0.70456 0.95664 0.0
C400 C 0.46057 0.67495 0.91539 0.0
C401 C 0.49998 0.71623 0.90299 0.0
N402 N 0.5111 0.7187 0.92458 0.0
C403 C 0.47246 0.67784 0.93742 0.0
C404 C 0.47451 0.69421 0.89798 0.0
C405 C 0.498 0.70011 0.94172 0.0
C406 C 0.43423 0.60545 0.95021 0.0
N407 N 0.41648 0.61361 0.95637 0.0
C408 C 0.41679 0.60073 0.99616 0.0
C409 C 0.40722 0.611 0.9787 0.0
C410 C 0.43592 0.59299 0.99048 0.0
C411 C 0.44429 0.59508 0.96705 0.0
H412 H 0.44092 0.60747 0.93221 0.0
H413 H 0.3927 0.6172 0.983 0.0
C414 C 0.42036 0.7202 0.89813 0.0
N415 N 0.4272 0.70679 0.91395 0.0
C416 C 0.43175 0.74825 0.89958 0.0
C417 C 0.45704 0.7482 0.9335 0.0
C418 C 0.44492 0.72021 0.9316 0.0
C419 C 0.45051 0.76259 0.91737 0.0
H420 H 0.40583 0.70909 0.88452 0.0
H421 H 0.44942 0.70919 0.94446 0.0
C422 C 0.3647 0.57733 0.91943 0.0
N423 N 0.33136 0.52875 0.94148 0.0
C424 C 0.36124 0.55326 0.91001 0.0
C425 C 0.35122 0.57672 0.94006 0.0
C426 C 0.34429 0.5289 0.92142 0.0
C427 C 0.33445 0.55195 0.95094 0.0
C428 C 0.38747 0.65353 0.86047 0.0
C429 C 0.36533 0.63499 0.84724 0.0
C430 C 0.41096 0.67273 0.8491 0.0
C431 C 0.3672 0.63574 0.8228 0.0
C432 C 0.41206 0.67281 0.82464 0.0
N433 N 0.39035 0.65445 0.81211 0.0
C434 C 0.31377 0.61742 0.92135 0.0
C435 C 0.31528 0.5873 0.89373 0.0
C436 C 0.28567 0.6049 0.91906 0.0
N437 N 0.32797 0.60877 0.90844 0.0
C438 C 0.28725 0.57409 0.89102 0.0
C439 C 0.27207 0.58307 0.90354 0.0
H440 H 0.32421 0.63415 0.93329 0.0
H441 H 0.32704 0.58071 0.88379 0.0
C442 C 0.44297 0.63264 0.85491 0.0
N443 N 0.41667 0.62016 0.86177 0.0
C444 C 0.45093 0.6221 0.83649 0.0
C445 C 0.40455 0.58618 0.83251 0.0
C446 C 0.39749 0.59745 0.85095 0.0
C447 C 0.43165 0.59835 0.82523 0.0
H448 H 0.45788 0.65035 0.86412 0.0
H449 H 0.37677 0.58783 0.85697 0.0
O450 O 0.38501 0.64695 0.93886 0.0
O451 O 0.43558 0.65322 0.91083 0.0
O452 O 0.38124 0.60131 0.9084 0.0
O453 O 0.38632 0.65267 0.88443 0.0
H454 H 0.41254 0.66567 0.97838 0.0
H455 H 0.36351 0.67707 0.92742 0.0
H456 H 0.41653 0.70469 0.00072 0.0
H457 H 0.36838 0.71592 0.95065 0.0
H458 H 0.5109 0.73137 0.88973 0.0
H459 H 0.46199 0.6633 0.95119 0.0
H460 H 0.46568 0.69238 0.88085 0.0
H461 H 0.50736 0.70267 0.95873 0.0
H462 H 0.40988 0.59964 0.01401 0.0
H463 H 0.45861 0.58892 0.96178 0.0
H464 H 0.42609 0.75862 0.88687 0.0
H465 H 0.47092 0.7584 0.94782 0.0
H466 H 0.37156 0.55343 0.89405 0.0
H467 H 0.35362 0.59513 0.94761 0.0
H468 H 0.34141 0.5101 0.91433 0.0
H469 H 0.32389 0.55117 0.96692 0.0
H470 H 0.34695 0.62009 0.85572 0.0
H471 H 0.42822 0.68731 0.85907 0.0
H472 H 0.35027 0.62141 0.81235 0.0
H473 H 0.43018 0.68746 0.81563 0.0
H474 H 0.27472 0.61224 0.92929 0.0
H475 H 0.27769 0.55755 0.87867 0.0
H476 H 0.47207 0.63197 0.83163 0.0
H477 H 0.38897 0.56807 0.82411 0.0
Li478 Li 0.75937 0.40628 0.07125 0.0
Li479 Li 0.79233 0.40174 0.09302 0.0
Li480 Li 0.79594 0.40616 0.05062 0.0
Li481 Li 0.7592 0.36469 0.06887 0.0
C482 C 0.80282 0.45419 0.08775 0.0
N483 N 0.81162 0.49697 0.11618 0.0
C484 C 0.78631 0.4499 0.10724 0.0
C485 C 0.82375 0.48028 0.0827 0.0
C486 C 0.79108 0.47177 0.12139 0.0
C487 C 0.8279 0.50162 0.09729 0.0
C488 C 0.74606 0.36262 0.11546 0.0
C489 C 0.75621 0.33416 0.13964 0.0
N490 N 0.73343 0.32682 0.15233 0.0
C491 C 0.72278 0.35483 0.1288 0.0
C492 C 0.76296 0.35224 0.12098 0.0
C493 C 0.71673 0.3367 0.14734 0.0
C494 C 0.71323 0.40755 0.08525 0.0
N495 N 0.73643 0.42174 0.07282 0.0
C496 C 0.72866 0.45898 0.06898 0.0
C497 C 0.74404 0.44671 0.0641 0.0
C498 C 0.70555 0.44542 0.08313 0.0
C499 C 0.69745 0.41908 0.09069 0.0
H500 H 0.70757 0.38765 0.09172 0.0
H501 H 0.76267 0.45757 0.0543 0.0
C502 C 0.84052 0.41808 0.11792 0.0
N503 N 0.81444 0.41209 0.12032 0.0
C504 C 0.85796 0.42692 0.1372 0.0
C505 C 0.82132 0.42347 0.16093 0.0
C506 C 0.80459 0.41449 0.14128 0.0
C507 C 0.84845 0.42984 0.1591 0.0
H508 H 0.84784 0.41622 0.10094 0.0
H509 H 0.78383 0.40983 0.1427 0.0
C510 C 0.7441 0.39561 0.02824 0.0
N511 N 0.71812 0.41637 0.00183 0.0
C512 C 0.716 0.38395 0.02945 0.0
C513 C 0.75896 0.41787 0.01363 0.0
C514 C 0.70325 0.39475 0.01597 0.0
C515 C 0.74546 0.42804 0.00039 0.0
C516 C 0.80772 0.36502 0.05791 0.0
C517 C 0.79369 0.35133 0.03773 0.0
C518 C 0.83063 0.36394 0.06482 0.0
C519 C 0.80289 0.33684 0.02473 0.0
C520 C 0.8392 0.34924 0.05134 0.0
N521 N 0.82527 0.33611 0.03174 0.0
C522 C 0.84651 0.44277 0.03188 0.0
C523 C 0.81855 0.40722 0.00594 0.0
C524 C 0.86793 0.45263 0.01597 0.0
N525 N 0.82254 0.42036 0.02668 0.0
C526 C 0.83962 0.41602 0.98976 0.0
C527 C 0.86471 0.43883 0.99486 0.0
H528 H 0.84919 0.45252 0.04868 0.0
H529 H 0.79924 0.38954 0.00221 0.0
C530 C 0.71363 0.31576 0.05449 0.0
N531 N 0.73741 0.32611 0.06629 0.0
C532 C 0.69717 0.28788 0.05182 0.0
C533 C 0.72985 0.28163 0.07367 0.0
C534 C 0.74575 0.30967 0.07581 0.0
C535 C 0.70518 0.27032 0.06147 0.0
H536 H 0.70757 0.32918 0.04687 0.0
H537 H 0.76487 0.3183 0.08492 0.0
O538 O 0.79847 0.43316 0.07346 0.0
O539 O 0.75214 0.38043 0.09728 0.0
O540 O 0.7571 0.38579 0.04174 0.0
O541 O 0.79917 0.37939 0.07096 0.0
H542 H 0.76986 0.42995 0.11137 0.0
H543 H 0.83663 0.48402 0.06761 0.0
H544 H 0.77843 0.4687 0.1365 0.0
H545 H 0.84405 0.52191 0.09359 0.0
H546 H 0.76912 0.32598 0.14405 0.0
H547 H 0.7095 0.36271 0.12493 0.0
H548 H 0.78114 0.35804 0.11105 0.0
H549 H 0.69876 0.3305 0.15777 0.0
H550 H 0.73561 0.47939 0.06298 0.0
H551 H 0.67959 0.4079 0.10145 0.0
H552 H 0.87859 0.43134 0.13495 0.0
H553 H 0.81316 0.42596 0.17725 0.0
H554 H 0.70417 0.36715 0.04106 0.0
H555 H 0.78073 0.42743 0.01268 0.0
H556 H 0.68155 0.38604 0.01687 0.0
H557 H 0.75673 0.4453 0.98905 0.0
H558 H 0.77595 0.35195 0.03207 0.0
H559 H 0.84166 0.37434 0.08044 0.0
H560 H 0.79225 0.3262 0.00905 0.0
H561 H 0.85691 0.34825 0.05647 0.0
H562 H 0.8871 0.47021 0.02047 0.0
H563 H 0.83643 0.40504 0.97351 0.0
H564 H 0.67866 0.28025 0.04183 0.0
H565 H 0.73681 0.26897 0.08157 0.0
Li566 Li 0.40303 0.78652 0.25973 0.0
Li567 Li 0.36482 0.75164 0.23841 0.0
Li568 Li 0.4074 0.7513 0.23802 0.0
Li569 Li 0.40284 0.78592 0.21796 0.0
C570 C 0.39326 0.73967 0.28488 0.0
N571 N 0.41281 0.72562 0.32351 0.0
C572 C 0.37572 0.71783 0.29893 0.0
C573 C 0.42075 0.75438 0.2905 0.0
C574 C 0.38599 0.71105 0.31839 0.0
C575 C 0.43024 0.74696 0.31009 0.0
C576 C 0.36111 0.79596 0.25187 0.0
C577 C 0.33659 0.81962 0.25807 0.0
N578 N 0.32662 0.80589 0.27849 0.0
C579 C 0.3506 0.78207 0.27293 0.0
C580 C 0.35405 0.81489 0.24437 0.0
C581 C 0.33321 0.78738 0.28613 0.0
C582 C 0.42639 0.83759 0.2792 0.0
N583 N 0.41441 0.81113 0.28546 0.0
C584 C 0.41931 0.82298 0.32604 0.0
C585 C 0.4102 0.8035 0.30836 0.0
C586 C 0.43224 0.8505 0.32005 0.0
C587 C 0.43551 0.85772 0.29628 0.0
H588 H 0.42861 0.84301 0.26084 0.0
H589 H 0.39954 0.78236 0.31301 0.0
C590 C 0.31597 0.70446 0.2495 0.0
N591 N 0.32637 0.72889 0.23882 0.0
C592 C 0.28801 0.68777 0.2517 0.0
C593 C 0.28193 0.72138 0.23126 0.0
C594 C 0.31001 0.73746 0.22954 0.0
C595 C 0.27052 0.69626 0.24273 0.0
H596 H 0.32944 0.69816 0.25672 0.0
H597 H 0.31874 0.75698 0.22113 0.0
C598 C 0.45507 0.80512 0.22559 0.0
N599 N 0.49956 0.83462 0.1972 0.0
C600 C 0.46226 0.79209 0.20876 0.0
C601 C 0.47059 0.83316 0.22803 0.0
C602 C 0.48483 0.80735 0.19459 0.0
C603 C 0.49297 0.84771 0.21348 0.0
C604 C 0.36747 0.7408 0.19155 0.0
C605 C 0.36203 0.71857 0.1776 0.0
C606 C 0.35639 0.75694 0.18556 0.0
C607 C 0.34548 0.71279 0.1579 0.0
C608 C 0.33993 0.7505 0.16574 0.0
N609 N 0.33486 0.72873 0.15244 0.0
C610 C 0.40917 0.70408 0.22761 0.0
C611 C 0.44872 0.73814 0.24612 0.0
C612 C 0.42064 0.68758 0.22556 0.0
N613 N 0.42338 0.72892 0.23753 0.0
C614 C 0.4609 0.72224 0.2446 0.0
C615 C 0.447 0.69668 0.23392 0.0
H616 H 0.38909 0.69731 0.22086 0.0
H617 H 0.45971 0.75808 0.25376 0.0
C618 C 0.41638 0.83412 0.19437 0.0
N619 N 0.41539 0.80999 0.19196 0.0
C620 C 0.42783 0.85366 0.17679 0.0
C621 C 0.43706 0.82312 0.15464 0.0
C622 C 0.42492 0.80396 0.17243 0.0
C623 C 0.43878 0.84839 0.15685 0.0
H624 H 0.4089 0.83842 0.21024 0.0
H625 H 0.42385 0.78459 0.17102 0.0
O626 O 0.38346 0.74622 0.26559 0.0
O627 O 0.37817 0.7912 0.23849 0.0
O628 O 0.43268 0.79057 0.23928 0.0
O629 O 0.38363 0.74658 0.21089 0.0
H630 H 0.35439 0.70623 0.29485 0.0
H631 H 0.4346 0.77153 0.28004 0.0
H632 H 0.37264 0.69419 0.32941 0.0
H633 H 0.45145 0.7582 0.31464 0.0
H634 H 0.33095 0.83421 0.25247 0.0
H635 H 0.35571 0.76731 0.27907 0.0
H636 H 0.36195 0.82577 0.22809 0.0
H637 H 0.32494 0.77677 0.30244 0.0
H638 H 0.41579 0.81658 0.3442 0.0
H639 H 0.44524 0.8787 0.29094 0.0
H640 H 0.28027 0.66881 0.261 0.0
H641 H 0.26933 0.72865 0.22379 0.0
H642 H 0.45023 0.77049 0.20628 0.0
H643 H 0.46539 0.84361 0.24095 0.0
H644 H 0.49049 0.79753 0.18139 0.0
H645 H 0.50509 0.86943 0.21512 0.0
H646 H 0.3705 0.7059 0.18195 0.0
H647 H 0.36036 0.77426 0.19607 0.0
H648 H 0.34108 0.69562 0.14696 0.0
H649 H 0.33119 0.7628 0.16094 0.0
H650 H 0.40925 0.66827 0.21683 0.0
H651 H 0.48107 0.73003 0.25158 0.0
H652 H 0.42897 0.873 0.1791 0.0
H653 H 0.44514 0.81833 0.13939 0.0
H654 H 0.10672 0.64227 0.28705 0.0
H655 H 0.23846 0.64089 0.24146 0.0
H656 H 0.11673 0.57245 0.29004 0.0
H657 H 0.23444 0.71351 0.25238 0.0
H658 H 0.19054 0.61405 0.25143 0.0
H659 H 0.14954 0.66669 0.26566 0.0
C660 C 0.11754 0.63183 0.28259 0.0
C661 C 0.10831 0.60538 0.29043 0.0
C662 C 0.20011 0.63586 0.25141 0.0
C663 C 0.15749 0.63329 0.26644 0.0
C664 C 0.22754 0.65124 0.24587 0.0
C665 C 0.24074 0.67959 0.24636 0.0
C666 C 0.18563 0.64885 0.25747 0.0
C667 C 0.22523 0.69176 0.25161 0.0
C668 C 0.14212 0.64586 0.27062 0.0
C669 C 0.12331 0.59292 0.28446 0.0
N670 N 0.1986 0.67635 0.25715 0.0
N671 N 0.14729 0.60707 0.27305 0.0
H672 H 0.56308 0.11911 0.45658 0.0
H673 H 0.54059 0.24331 0.43711 0.0
H674 H 0.48472 0.11247 0.46152 0.0
H675 H 0.61198 0.24305 0.4126 0.0
H676 H 0.51915 0.19491 0.44428 0.0
H677 H 0.58079 0.16352 0.4382 0.0
C678 C 0.54947 0.12678 0.45321 0.0
C679 C 0.52243 0.11219 0.46054 0.0
C680 C 0.5394 0.20539 0.43709 0.0
C681 C 0.54266 0.16325 0.4402 0.0
C682 C 0.55169 0.23311 0.43287 0.0
C683 C 0.57834 0.24757 0.42437 0.0
C684 C 0.55389 0.19191 0.4331 0.0
C685 C 0.59169 0.23304 0.41968 0.0
C686 C 0.55958 0.15215 0.44283 0.0
C687 C 0.50564 0.12303 0.45596 0.0
N688 N 0.57945 0.20613 0.42434 0.0
N689 N 0.51614 0.14813 0.44646 0.0
H690 H 0.38914 0.47828 0.62328 0.0
H691 H 0.38945 0.61083 0.57754 0.0
H692 H 0.45839 0.55852 0.62698 0.0
H693 H 0.31706 0.53405 0.58869 0.0
H694 H 0.4166 0.58998 0.5873 0.0
H695 H 0.36452 0.49643 0.60185 0.0
C696 C 0.39941 0.4996 0.61899 0.0
C697 C 0.42576 0.51698 0.62702 0.0
C698 C 0.39478 0.57763 0.58738 0.0
C699 C 0.39762 0.53794 0.60295 0.0
C700 C 0.37926 0.58949 0.58169 0.0
C701 C 0.35093 0.57422 0.58253 0.0
C702 C 0.3819 0.55026 0.59384 0.0
C703 C 0.33884 0.54668 0.58822 0.0
C704 C 0.38526 0.50999 0.60699 0.0
C705 C 0.438 0.5445 0.62126 0.0
N706 N 0.35438 0.53563 0.59379 0.0
N707 N 0.42375 0.55417 0.60978 0.0
H708 H 0.90191 0.40605 0.84301 0.0
H709 H 0.8116 0.35176 0.72822 0.0
H710 H 0.93822 0.43343 0.77482 0.0
H711 H 0.78195 0.35935 0.79567 0.0
H712 H 0.85809 0.37618 0.74385 0.0
H713 H 0.85768 0.3823 0.82483 0.0
C714 C 0.90059 0.4073 0.82415 0.0
C715 C 0.92384 0.42251 0.8105 0.0
C716 C 0.84134 0.37262 0.75506 0.0
C717 C 0.87284 0.39454 0.78941 0.0
C718 C 0.81489 0.35866 0.74624 0.0
C719 C 0.79292 0.35367 0.76066 0.0
C720 C 0.84561 0.38102 0.77856 0.0
C721 C 0.79825 0.36305 0.78383 0.0
C722 C 0.87525 0.39359 0.81378 0.0
C723 C 0.9208 0.42221 0.78602 0.0
N724 N 0.82395 0.37604 0.79206 0.0
N725 N 0.89566 0.40851 0.77619 0.0
H726 H 0.55761 0.92876 0.95472 0.0
H727 H 0.42509 0.79244 0.91549 0.0
H728 H 0.47664 0.91504 0.96275 0.0
H729 H 0.50356 0.80017 0.92491 0.0
H730 H 0.44497 0.84079 0.92375 0.0
H731 H 0.53932 0.88561 0.93413 0.0
C732 C 0.53604 0.91703 0.95155 0.0
C733 C 0.51858 0.92537 0.96062 0.0
C734 C 0.45788 0.83194 0.92374 0.0
C735 C 0.49748 0.87575 0.93751 0.0
C736 C 0.44658 0.80441 0.91892 0.0
C737 C 0.46267 0.79226 0.91978 0.0
C738 C 0.4855 0.84745 0.92923 0.0
C739 C 0.49036 0.80867 0.92446 0.0
C740 C 0.52559 0.89226 0.94003 0.0
C741 C 0.49076 0.90917 0.95626 0.0
N742 N 0.50087 0.83537 0.92913 0.0
N743 N 0.48103 0.88499 0.94525 0.0
H744 H 0.60538 0.51871 0.10759 0.0
H745 H 0.69384 0.44892 0.12844 0.0
H746 H 0.64378 0.52019 0.17313 0.0
H747 H 0.68627 0.47426 0.05899 0.0
H748 H 0.67127 0.47188 0.14439 0.0
H749 H 0.63188 0.50082 0.08826 0.0
C750 C 0.61959 0.5156 0.11779 0.0
C751 C 0.622 0.52034 0.14206 0.0
C752 C 0.67455 0.47256 0.12565 0.0
C753 C 0.65186 0.49983 0.12035 0.0
C754 C 0.68723 0.45924 0.11653 0.0
C755 C 0.69169 0.45952 0.09237 0.0
C756 C 0.6659 0.48614 0.11055 0.0
C757 C 0.68314 0.47361 0.07775 0.0
C758 C 0.6346 0.50537 0.10682 0.0
C759 C 0.64076 0.51613 0.1545 0.0
N760 N 0.67037 0.48622 0.08705 0.0
N761 N 0.65465 0.50585 0.14359 0.0
H762 H 0.39993 0.93146 0.52524 0.0
H763 H 0.40025 0.79542 0.55418 0.0
H764 H 0.46871 0.92072 0.51485 0.0
H765 H 0.3332 0.80738 0.57014 0.0
H766 H 0.42759 0.8433 0.54444 0.0
H767 H 0.37752 0.88889 0.54713 0.0
C768 C 0.41062 0.92053 0.52814 0.0
C769 C 0.43608 0.92945 0.51798 0.0
C770 C 0.407 0.83558 0.55033 0.0
C771 C 0.41035 0.88045 0.54248 0.0
C772 C 0.39135 0.8082 0.55578 0.0
C773 C 0.36432 0.79733 0.56272 0.0
C774 C 0.39549 0.85227 0.55152 0.0
C775 C 0.35397 0.81493 0.56489 0.0
C776 C 0.39772 0.89608 0.54045 0.0
C777 C 0.44889 0.91433 0.52208 0.0
N778 N 0.36944 0.84145 0.559 0.0
N779 N 0.43575 0.89041 0.5337 0.0
H780 H 0.47733 0.38603 0.68703 0.0
H781 H 0.60755 0.38631 0.73934 0.0
H782 H 0.55601 0.45729 0.69249 0.0
H783 H 0.53472 0.31421 0.71785 0.0
H784 H 0.58602 0.41288 0.73009 0.0
H785 H 0.49492 0.36003 0.70704 0.0
C786 C 0.4981 0.39635 0.69306 0.0
C787 C 0.51531 0.42379 0.68802 0.0
C788 C 0.57469 0.3912 0.72761 0.0
C789 C 0.53568 0.39417 0.71048 0.0
C790 C 0.58703 0.376 0.73274 0.0
C791 C 0.57313 0.34793 0.72909 0.0
C792 C 0.54817 0.37831 0.71884 0.0
C793 C 0.54627 0.33572 0.72109 0.0
C794 C 0.50821 0.38146 0.70423 0.0
C795 C 0.54216 0.43611 0.69592 0.0
N796 N 0.53477 0.35099 0.71608 0.0
N797 N 0.55159 0.42117 0.70654 0.0
H798 H 0.12083 0.55904 0.85118 0.0
H799 H 0.23443 0.52929 0.89863 0.0
H800 H 0.10962 0.4789 0.85709 0.0
H801 H 0.24232 0.60838 0.89883 0.0
H802 H 0.18693 0.50976 0.88753 0.0
H803 H 0.16305 0.57674 0.87321 0.0
C804 C 0.12704 0.54511 0.85755 0.0
C805 C 0.11183 0.51751 0.85217 0.0
C806 C 0.19895 0.53135 0.89027 0.0
C807 C 0.1604 0.53763 0.87701 0.0
C808 C 0.22612 0.54253 0.89649 0.0
C809 C 0.24249 0.57056 0.89943 0.0
C810 C 0.18805 0.54832 0.88674 0.0
C811 C 0.23049 0.58667 0.89684 0.0
C812 C 0.15117 0.55521 0.87007 0.0
C813 C 0.12068 0.50031 0.86093 0.0
N814 N 0.20412 0.57537 0.89037 0.0
N815 N 0.14461 0.51071 0.87259 0.0
H816 H 0.57669 0.11615 0.01578 0.0
H817 H 0.72211 0.23365 0.05355 0.0
H818 H 0.6463 0.10584 0.02048 0.0
H819 H 0.64971 0.2389 0.06133 0.0
H820 H 0.69418 0.18568 0.04473 0.0
H821 H 0.60204 0.15953 0.03596 0.0
C822 C 0.59714 0.1228 0.02155 0.0
C823 C 0.60947 0.10748 0.01637 0.0
C824 C 0.68437 0.19725 0.04861 0.0
C825 C 0.63885 0.15735 0.03899 0.0
C826 C 0.70034 0.22471 0.05377 0.0
C827 C 0.68834 0.24057 0.05798 0.0
C828 C 0.65614 0.1855 0.04743 0.0
C829 C 0.65996 0.22772 0.05766 0.0
C830 C 0.61165 0.14758 0.033 0.0
C831 C 0.63599 0.11695 0.02424 0.0
N832 N 0.64488 0.20107 0.05224 0.0
N833 N 0.64996 0.1415 0.03481 0.0
H834 H 0.47446 0.56876 0.19004 0.0
H835 H 0.50029 0.71436 0.22355 0.0
H836 H 0.55359 0.63988 0.19057 0.0
H837 H 0.42425 0.64134 0.23596 0.0
H838 H 0.52092 0.68706 0.21466 0.0
H839 H 0.45645 0.5941 0.21025 0.0
C840 C 0.48813 0.58958 0.19489 0.0
C841 C 0.51551 0.6023 0.18854 0.0
C842 C 0.49979 0.67698 0.21958 0.0
C843 C 0.495 0.63162 0.2112 0.0
C844 C 0.48796 0.6926 0.2248 0.0
C845 C 0.46033 0.68022 0.23037 0.0
C846 C 0.4839 0.6487 0.21965 0.0
C847 C 0.44544 0.65185 0.23125 0.0
C848 C 0.47785 0.60407 0.20637 0.0
C849 C 0.53239 0.62928 0.19526 0.0
N850 N 0.45733 0.63708 0.22572 0.0
N851 N 0.52178 0.64317 0.20587 0.0
H852 H 0.93509 0.55767 0.36454 0.0
H853 H 0.80177 0.42847 0.41235 0.0
H854 H 0.92435 0.47755 0.36724 0.0
H855 H 0.80854 0.5059 0.39872 0.0
H856 H 0.85006 0.44835 0.40436 0.0
H857 H 0.8932 0.54159 0.38679 0.0
C858 C 0.92444 0.53693 0.37058 0.0
C859 C 0.93304 0.51884 0.36386 0.0
C860 C 0.84102 0.46106 0.40339 0.0
C861 C 0.88469 0.5001 0.38868 0.0
C862 C 0.81338 0.44967 0.40777 0.0
C863 C 0.80086 0.46539 0.40586 0.0
C864 C 0.85637 0.48841 0.39703 0.0
C865 C 0.8172 0.49295 0.40049 0.0
C866 C 0.90031 0.52765 0.383 0.0
C867 C 0.91824 0.49207 0.3719 0.0
N868 N 0.844 0.50348 0.39603 0.0
N869 N 0.89455 0.48339 0.38353 0.0
H870 H 0.09935 0.54817 0.35872 0.0
H871 H 0.14069 0.61062 0.48751 0.0
H872 H 0.06916 0.59618 0.39079 0.0
H873 H 0.18502 0.58157 0.44732 0.0
H874 H 0.1078 0.59704 0.4557 0.0
H875 H 0.12329 0.55082 0.39503 0.0
C876 C 0.09737 0.55886 0.37356 0.0
C877 C 0.08258 0.57235 0.37159 0.0
C878 C 0.12463 0.59346 0.45396 0.0
C879 C 0.11 0.57553 0.41315 0.0
C880 C 0.14358 0.60141 0.47202 0.0
C881 C 0.16598 0.59763 0.47002 0.0
C882 C 0.12794 0.58146 0.43375 0.0
C883 C 0.16808 0.58482 0.44979 0.0
C884 C 0.1111 0.56043 0.39424 0.0
C885 C 0.0803 0.58548 0.3915 0.0
N886 N 0.14942 0.57737 0.4324 0.0
N887 N 0.0942 0.58706 0.41136 0.0
H888 H 0.49358 0.06502 0.55829 0.0
H889 H 0.62978 0.17724 0.61743 0.0
H890 H 0.57189 0.09844 0.5255 0.0
H891 H 0.55286 0.13764 0.65305 0.0
H892 H 0.60979 0.14502 0.58522 0.0
H893 H 0.51566 0.08654 0.59508 0.0
C894 C 0.51546 0.07625 0.55898 0.0
C895 C 0.53091 0.08026 0.53869 0.0
C896 C 0.59734 0.14316 0.6002 0.0
C897 C 0.5563 0.10563 0.58059 0.0
C898 C 0.6087 0.16169 0.6185 0.0
C899 C 0.5929 0.16029 0.63784 0.0
C900 C 0.56986 0.12324 0.60109 0.0
C901 C 0.56582 0.13941 0.63852 0.0
C902 C 0.52807 0.0888 0.57996 0.0
C903 C 0.55919 0.09528 0.54062 0.0
N904 N 0.55508 0.12191 0.62029 0.0
N905 N 0.57095 0.10779 0.56107 0.0
H906 H 0.43452 0.4858 0.72655 0.0
H907 H 0.46758 0.62385 0.78934 0.0
H908 H 0.48399 0.56454 0.69572 0.0
H909 H 0.41443 0.54475 0.81816 0.0
H910 H 0.47921 0.60285 0.75756 0.0
H911 H 0.43322 0.50738 0.76309 0.0
C912 C 0.4457 0.50763 0.72766 0.0
C913 C 0.45915 0.52341 0.70799 0.0
C914 C 0.46513 0.59009 0.77092 0.0
C915 C 0.45718 0.54825 0.74955 0.0
C916 C 0.45854 0.60208 0.78911 0.0
C917 C 0.43976 0.58602 0.80631 0.0
C918 C 0.45289 0.56182 0.7699 0.0
C919 C 0.42856 0.55789 0.80501 0.0
C920 C 0.4447 0.51996 0.74845 0.0
C921 C 0.47303 0.55163 0.71037 0.0
N922 N 0.43518 0.5467 0.78707 0.0
N923 N 0.47141 0.56316 0.73066 0.0
H924 H 0.97868 0.4379 0.8978 0.0
H925 H 0.89543 0.48839 0.97444 0.0
H926 H 0.9603 0.49835 0.87365 0.0
H927 H 0.88598 0.40885 0.97851 0.0
H928 H 0.93122 0.50085 0.94494 0.0
H929 H 0.95819 0.4371 0.9357 0.0
C930 C 0.97135 0.45183 0.90084 0.0
C931 C 0.97096 0.46809 0.88262 0.0
C932 C 0.92153 0.48082 0.95258 0.0
C933 C 0.94707 0.46686 0.92555 0.0
C934 C 0.90119 0.47373 0.96931 0.0
C935 C 0.88763 0.44748 0.97853 0.0
C936 C 0.92859 0.46164 0.9455 0.0
C937 C 0.89575 0.42916 0.97148 0.0
C938 C 0.95934 0.4511 0.92232 0.0
C939 C 0.96082 0.48546 0.8873 0.0
N940 N 0.91567 0.43656 0.95532 0.0
N941 N 0.94887 0.48411 0.90824 0.0
H942 H 0.5542 0.96029 0.05722 0.0
H943 H 0.41986 0.87753 0.13369 0.0
H944 H 0.47567 0.94266 0.03258 0.0
H945 H 0.48933 0.86706 0.13919 0.0
H946 H 0.44291 0.91103 0.10246 0.0
H947 H 0.53347 0.93661 0.09389 0.0
C948 C 0.53271 0.95213 0.05985 0.0
C949 C 0.51656 0.95332 0.04191 0.0
C950 C 0.45313 0.90152 0.11066 0.0
C951 C 0.49276 0.92599 0.08351 0.0
C952 C 0.44005 0.8825 0.12842 0.0
C953 C 0.45268 0.8694 0.13874 0.0
C954 C 0.47916 0.90778 0.10358 0.0
C955 C 0.47881 0.87648 0.13139 0.0
C956 C 0.52088 0.93838 0.08062 0.0
C957 C 0.48875 0.94204 0.04602 0.0
N958 N 0.49122 0.89522 0.11425 0.0
N959 N 0.47765 0.92866 0.06636 0.0
H960 H 0.59301 0.54749 0.23414 0.0
H961 H 0.57512 0.41407 0.29325 0.0
H962 H 0.5498 0.46882 0.20203 0.0
H963 H 0.60731 0.48981 0.3301 0.0
H964 H 0.56101 0.43283 0.26138 0.0
H965 H 0.59246 0.52603 0.27145 0.0
C966 C 0.58259 0.52565 0.23515 0.0
C967 C 0.57176 0.5099 0.21493 0.0
C968 C 0.57087 0.44529 0.27654 0.0
C969 C 0.57177 0.48527 0.25727 0.0
C970 C 0.5791 0.43463 0.29465 0.0
C971 C 0.59267 0.4505 0.3142 0.0
C972 C 0.57657 0.4722 0.27779 0.0
C973 C 0.59688 0.47687 0.31533 0.0
C974 C 0.58254 0.5134 0.25639 0.0
C975 C 0.55875 0.48169 0.21716 0.0
N976 N 0.5892 0.48702 0.29722 0.0
N977 N 0.55957 0.47031 0.23781 0.0
H978 H 0.44008 0.96838 0.41771 0.0
H979 H 0.46053 0.85392 0.35977 0.0
H980 H 0.49059 0.93983 0.44765 0.0
H981 H 0.42568 0.89476 0.32238 0.0
H982 H 0.47383 0.88712 0.39124 0.0
H983 H 0.43781 0.94484 0.38126 0.0
C984 C 0.4513 0.95778 0.41642 0.0
C985 C 0.46523 0.95573 0.43587 0.0
C986 C 0.46352 0.88903 0.37606 0.0
C987 C 0.46209 0.92815 0.39448 0.0
C988 C 0.45575 0.86995 0.35819 0.0
C989 C 0.44178 0.87147 0.33856 0.0
C990 C 0.45696 0.90961 0.37449 0.0
C991 C 0.43647 0.8929 0.33721 0.0
C992 C 0.44979 0.94412 0.39566 0.0
C993 C 0.47916 0.94147 0.43323 0.0
N994 N 0.44378 0.91096 0.35507 0.0
N995 N 0.47687 0.92787 0.41309 0.0
H996 H 0.49302 0.44635 0.58838 0.0
H997 H 0.63056 0.46603 0.53867 0.0
H998 H 0.56845 0.48889 0.62608 0.0
H999 H 0.56188 0.44572 0.49426 0.0
H1000 H 0.60865 0.47673 0.57034 0.0
H1001 H 0.51813 0.44929 0.55279 0.0
C1002 C 0.5149 0.45698 0.58905 0.0
C1003 C 0.52863 0.46699 0.61036 0.0
C1004 C 0.59849 0.47028 0.55358 0.0
C1005 C 0.55741 0.46971 0.56984 0.0
C1006 C 0.61092 0.464 0.53558 0.0
C1007 C 0.5979 0.4548 0.51393 0.0
C1008 C 0.57261 0.46687 0.55005 0.0
C1009 C 0.57261 0.45283 0.51071 0.0
C1010 C 0.52922 0.45844 0.56874 0.0
C1011 C 0.55701 0.48032 0.61016 0.0
N1012 N 0.5606 0.45844 0.52869 0.0
N1013 N 0.57042 0.48084 0.59035 0.0
H1014 H 0.07806 0.48526 0.75437 0.0
H1015 H 0.1601 0.62157 0.68039 0.0
H1016 H 0.09589 0.56282 0.78145 0.0
H1017 H 0.17184 0.55306 0.6735 0.0
H1018 H 0.12698 0.59769 0.71174 0.0
H1019 H 0.10195 0.50731 0.71811 0.0
C1020 C 0.08632 0.50683 0.75237 0.0
C1021 C 0.08511 0.52232 0.77086 0.0
C1022 C 0.13673 0.58789 0.70322 0.0
C1023 C 0.11265 0.5476 0.72974 0.0
C1024 C 0.15553 0.60144 0.68541 0.0
C1025 C 0.16883 0.5893 0.67465 0.0
C1026 C 0.13085 0.56185 0.70985 0.0
C1027 C 0.16225 0.56321 0.68165 0.0
C1028 C 0.10018 0.51941 0.73184 0.0
C1029 C 0.09652 0.55026 0.76757 0.0
N1030 N 0.14367 0.55031 0.6988 0.0
N1031 N 0.10999 0.56208 0.74743 0.0
H1032 H 0.54671 0.08796 0.9453 0.0
H1033 H 0.63927 0.16699 0.83851 0.0
H1034 H 0.60917 0.07298 0.9203 0.0
H1035 H 0.55775 0.15243 0.8432 0.0
H1036 H 0.62899 0.13343 0.86938 0.0
H1037 H 0.5496 0.11151 0.90848 0.0
C1038 C 0.56051 0.08905 0.93176 0.0
C1039 C 0.57771 0.07854 0.93572 0.0
C1040 C 0.61326 0.13736 0.86351 0.0
C1041 C 0.58174 0.10605 0.89411 0.0
C1042 C 0.61919 0.15664 0.84609 0.0
C1043 C 0.59936 0.16253 0.83856 0.0
C1044 C 0.58748 0.1243 0.87382 0.0
C1045 C 0.57355 0.1484 0.84865 0.0
C1046 C 0.56222 0.10252 0.91084 0.0
C1047 C 0.59543 0.08063 0.9178 0.0
N1048 N 0.56842 0.13016 0.86605 0.0
N1049 N 0.59737 0.09462 0.89793 0.0
H1050 H 0.46771 0.53999 0.12203 0.0
H1051 H 0.48872 0.60555 0.99479 0.0
H1052 H 0.54564 0.58975 0.08986 0.0
H1053 H 0.41096 0.56024 0.02853 0.0
H1054 H 0.50906 0.59344 0.02667 0.0
H1055 H 0.44596 0.54026 0.08518 0.0
C1056 C 0.48024 0.55054 0.10706 0.0
C1057 C 0.50853 0.56515 0.10911 0.0
C1058 C 0.4875 0.58591 0.02702 0.0
C1059 C 0.4838 0.56579 0.06697 0.0
C1060 C 0.47581 0.59271 0.00872 0.0
C1061 C 0.44806 0.58406 0.00901 0.0
C1062 C 0.47142 0.57041 0.04587 0.0
C1063 C 0.4325 0.56779 0.02776 0.0
C1064 C 0.46782 0.55075 0.08605 0.0
C1065 C 0.52379 0.57816 0.08908 0.0
N1066 N 0.44442 0.56165 0.04551 0.0
N1067 N 0.51123 0.57851 0.06896 0.0
H1068 H 0.97948 0.51217 0.26161 0.0
H1069 H 0.83592 0.41433 0.20496 0.0
H1070 H 0.90339 0.49478 0.29258 0.0
H1071 H 0.90264 0.46855 0.16076 0.0
H1072 H 0.86426 0.43486 0.23928 0.0
H1073 H 0.95484 0.48867 0.22575 0.0
C1074 C 0.95774 0.50337 0.26103 0.0
C1075 C 0.94354 0.50499 0.28052 0.0
C1076 C 0.87271 0.4421 0.22202 0.0
C1077 C 0.91549 0.47774 0.23999 0.0
C1078 C 0.85651 0.43053 0.2024 0.0
C1079 C 0.86664 0.44009 0.17986 0.0
C1080 C 0.8994 0.46317 0.21922 0.0
C1081 C 0.89391 0.46049 0.17775 0.0
C1082 C 0.94377 0.48992 0.24063 0.0
C1083 C 0.91531 0.49321 0.2786 0.0
N1084 N 0.90937 0.47152 0.19723 0.0
N1085 N 0.9023 0.47995 0.25888 0.0
loop_
_geom_bond_atom_site_label_1
_geom_bond_atom_site_label_2
_geom_bond_distance
_geom_bond_site_symmetry_2
_ccdc_geom_bond_type
H0 C8 0.930 . S
H1 C11 0.929 . S
H2 C13 0.930 . S
H3 C14 0.970 . S
H4 C14 0.970 . S
H5 C16 0.930 . S
H6 C18 0.930 . S
H7 C20 0.930 . S
C8 H0 0.930 . S
C8 C9 1.382 . S
C8 C10 1.426 . S
C9 C8 1.382 . S
C9 C13 1.389 . S
C10 C8 1.426 . S
C10 C11 1.375 . S
C10 C14 1.532 1_655 S
C11 H1 0.929 . S
C11 C10 1.375 . S
C11 C12 1.416 . S
C12 C11 1.416 . S
C12 C13 1.371 . S
C13 H2 0.930 . S
C13 C9 1.389 . S
C13 C12 1.371 . S
C14 H3 0.970 . S
C14 H4 0.970 . S
C14 C10 1.532 1_455 S
C14 C15 1.499 . S
C15 C14 1.499 . S
C15 C16 1.370 . S
C15 C20 1.415 . S
C16 H5 0.930 . S
C16 C15 1.370 . S
C16 C17 1.407 . S
C17 C16 1.407 . S
C17 C18 1.365 . S
C18 H6 0.930 . S
C18 C17 1.365 . S
C18 C19 1.393 . S
C19 C18 1.393 . S
C19 C20 1.387 . S
C20 H7 0.930 . S
C20 C15 1.415 . S
C20 C19 1.387 . S
H21 C29 0.930 . S
H22 C32 0.931 . S
H23 C34 0.930 . S
H24 C35 0.970 . S
H25 C35 0.970 . S
H26 C37 0.930 . S
H27 C39 0.930 . S
H28 C41 0.930 . S
C29 H21 0.930 . S
C29 C30 1.382 . S
C29 C31 1.426 . S
C30 C29 1.382 . S
C30 C34 1.389 . S
C31 C29 1.426 . S
C31 C32 1.375 . S
C31 C35 1.532 1_565 S
C32 H22 0.931 . S
C32 C31 1.375 . S
C32 C33 1.416 . S
C33 C32 1.416 . S
C33 C34 1.371 . S
C34 H23 0.930 . S
C34 C30 1.389 . S
C34 C33 1.371 . S
C35 H24 0.970 . S
C35 H25 0.970 . S
C35 C31 1.532 1_545 S
C35 C36 1.499 . S
C36 C35 1.499 . S
C36 C37 1.370 . S
C36 C41 1.415 . S
C37 H26 0.930 . S
C37 C36 1.370 . S
C37 C38 1.407 . S
C38 C37 1.407 . S
C38 C39 1.365 . S
C39 H27 0.930 . S
C39 C38 1.365 . S
C39 C40 1.393 . S
C40 C39 1.393 . S
C40 C41 1.387 . S
C41 H28 0.930 . S
C41 C36 1.415 . S
C41 C40 1.387 . S
H42 C50 0.930 . S
H43 C53 0.930 . S
H44 C55 0.930 . S
H45 C56 0.970 . S
H46 C56 0.970 . S
H47 C58 0.930 . S
H48 C60 0.930 . S
H49 C62 0.930 . S
C50 H42 0.930 . S
C50 C51 1.382 . S
C50 C52 1.426 . S
C51 C50 1.382 . S
C51 C55 1.389 . S
C52 C50 1.426 . S
C52 C53 1.375 . S
C52 C56 1.532 . S
C53 H43 0.930 . S
C53 C52 1.375 . S
C53 C54 1.416 . S
C54 C53 1.416 . S
C54 C55 1.371 . S
C55 H44 0.930 . S
C55 C51 1.389 . S
C55 C54 1.371 . S
C56 H45 0.970 . S
C56 H46 0.970 . S
C56 C52 1.532 . S
C56 C57 1.499 . S
C57 C56 1.499 . S
C57 C58 1.370 . S
C57 C62 1.415 . S
C58 H47 0.930 . S
C58 C57 1.370 . S
C58 C59 1.407 . S
C59 C58 1.407 . S
C59 C60 1.365 . S
C60 H48 0.930 . S
C60 C59 1.365 . S
C60 C61 1.393 . S
C61 C60 1.393 . S
C61 C62 1.387 . S
C62 H49 0.930 . S
C62 C57 1.415 . S
C62 C61 1.387 . S
H63 C71 0.930 . S
H64 C74 0.929 . S
H65 C76 0.930 . S
H66 C77 0.970 . S
H67 C77 0.970 . S
H68 C79 0.930 . S
H69 C81 0.930 . S
H70 C83 0.930 . S
C71 H63 0.930 . S
C71 C72 1.382 . S
C71 C73 1.426 . S
C72 C71 1.382 . S
C72 C76 1.389 . S
C73 C71 1.426 . S
C73 C74 1.375 . S
C73 C77 1.532 1_655 S
C74 H64 0.929 . S
C74 C73 1.375 . S
C74 C75 1.416 . S
C75 C74 1.416 . S
C75 C76 1.371 . S
C76 H65 0.930 . S
C76 C72 1.389 . S
C76 C75 1.371 . S
C77 H66 0.970 . S
C77 H67 0.970 . S
C77 C73 1.532 1_455 S
C77 C78 1.499 . S
C78 C77 1.499 . S
C78 C79 1.370 . S
C78 C83 1.415 . S
C79 H68 0.930 . S
C79 C78 1.370 . S
C79 C80 1.407 . S
C80 C79 1.407 . S
C80 C81 1.365 . S
C81 H69 0.930 . S
C81 C80 1.365 . S
C81 C82 1.393 . S
C82 C81 1.393 . S
C82 C83 1.387 . S
C83 H70 0.930 . S
C83 C78 1.415 . S
C83 C82 1.387 . S
H84 C92 0.930 . S
H85 C95 0.930 . S
H86 C97 0.930 . S
H87 C98 0.970 1_554 S
H88 C98 0.970 . S
H89 C100 0.937 . S
H90 C102 0.930 . S
H91 C104 0.930 . S
C92 H84 0.930 . S
C92 C93 1.388 . S
C92 C94 1.426 1_554 S
C93 C92 1.388 . S
C93 C97 1.365 1_554 S
C94 C92 1.426 1_556 S
C94 C95 1.375 . S
C94 C98 1.532 . S
C95 H85 0.930 . S
C95 C94 1.375 . S
C95 C96 1.416 . S
C96 C95 1.416 . S
C96 C97 1.371 . S
C97 H86 0.930 . S
C97 C93 1.365 1_556 S
C97 C96 1.371 . S
C98 H87 0.970 1_556 S
C98 H88 0.970 . S
C98 C94 1.532 . S
C98 C99 1.499 1_546 S
C99 C98 1.499 1_564 S
C99 C100 1.370 . S
C99 C104 1.415 1_554 S
C100 H89 0.937 . S
C100 C99 1.370 . S
C100 C101 1.407 . S
C101 C100 1.407 . S
C101 C102 1.365 . S
C102 H90 0.930 . S
C102 C101 1.365 . S
C102 C103 1.393 1_554 S
C103 C102 1.393 1_556 S
C103 C104 1.387 . S
C104 H91 0.930 . S
C104 C99 1.415 1_556 S
C104 C103 1.387 . S
H105 C113 0.930 . S
H106 C116 0.930 . S
H107 C118 0.930 . S
H108 C119 0.970 . S
H109 C119 0.970 . S
H110 C121 0.930 . S
H111 C123 0.930 . S
H112 C125 0.930 . S
C113 H105 0.930 . S
C113 C114 1.382 . S
C113 C115 1.426 . S
C114 C113 1.382 . S
C114 C118 1.389 . S
C115 C113 1.426 . S
C115 C116 1.375 . S
C115 C119 1.532 . S
C116 H106 0.930 . S
C116 C115 1.375 . S
C116 C117 1.416 . S
C117 C116 1.416 . S
C117 C118 1.371 . S
C118 H107 0.930 . S
C118 C114 1.389 . S
C118 C117 1.371 . S
C119 H108 0.970 . S
C119 H109 0.970 . S
C119 C115 1.532 . S
C119 C120 1.499 . S
C120 C119 1.499 . S
C120 C121 1.370 . S
C120 C125 1.415 . S
C121 H110 0.930 . S
C121 C120 1.370 . S
C121 C122 1.407 . S
C122 C121 1.407 . S
C122 C123 1.365 . S
C123 H111 0.930 . S
C123 C122 1.365 . S
C123 C124 1.393 . S
C124 C123 1.393 . S
C124 C125 1.387 . S
C125 H112 0.930 . S
C125 C120 1.415 . S
C125 C124 1.387 . S
Li126 N143 1.990 . S
Li126 O186 1.956 . S
Li126 O187 1.970 . S
Li126 O188 1.961 . S
Li127 N151 1.990 . S
Li127 O186 1.970 . S
Li127 O187 1.956 . S
Li127 O189 1.961 . S
Li128 N173 1.990 . S
Li128 O186 1.961 . S
Li128 O188 1.956 . S
Li128 O189 1.970 . S
Li129 N179 1.990 . S
Li129 O187 1.961 . S
Li129 O188 1.970 . S
Li129 O189 1.956 . S
C130 C132 1.348 . S
C130 C133 1.356 . S
C130 O186 1.325 . S
N131 C134 1.314 . S
N131 C135 1.279 . S
C132 C130 1.348 . S
C132 C134 1.353 . S
C132 H190 0.929 . S
C133 C130 1.356 . S
C133 C135 1.358 . S
C133 H191 0.930 . S
C134 N131 1.314 . S
C134 C132 1.353 . S
C134 H192 0.930 . S
C135 N131 1.279 . S
C135 C133 1.358 . S
C135 H193 0.930 . S
C136 C139 1.348 . S
C136 C140 1.356 . S
C136 O187 1.325 . S
C137 N138 1.279 . S
C137 C140 1.358 . S
C137 H194 0.930 . S
N138 C137 1.279 . S
N138 C141 1.314 . S
C139 C136 1.348 . S
C139 C141 1.353 . S
C139 H195 0.929 . S
C140 C136 1.356 . S
C140 C137 1.358 . S
C140 H196 0.930 . S
C141 N138 1.314 . S
C141 C139 1.353 . S
C141 H197 0.930 . S
C142 N143 1.314 . S
C142 C147 1.353 . S
C142 H148 0.930 . S
N143 Li126 1.990 . S
N143 C142 1.314 . S
N143 C145 1.279 . S
C144 C145 1.358 . S
C144 C146 1.356 . S
C144 H198 0.930 . S
C145 N143 1.279 . S
C145 C144 1.358 . S
C145 H149 0.930 . S
C146 C144 1.356 . S
C146 C147 1.348 . S
C147 C142 1.353 . S
C147 C146 1.348 . S
C147 H199 0.929 . S
H148 C142 0.930 . S
H149 C145 0.930 . S
C150 N151 1.314 . S
C150 C152 1.353 . S
C150 H156 0.930 . S
N151 Li127 1.990 . S
N151 C150 1.314 . S
N151 C154 1.279 . S
C152 C150 1.353 . S
C152 C155 1.348 . S
C152 H200 0.929 . S
C153 C154 1.358 . S
C153 C155 1.356 . S
C153 H201 0.930 . S
C154 N151 1.279 . S
C154 C153 1.358 . S
C154 H157 0.930 . S
C155 C152 1.348 . S
C155 C153 1.356 . S
H156 C150 0.930 . S
H157 C154 0.930 . S
C158 C160 1.348 . S
C158 C161 1.356 . S
C158 O188 1.325 . S
N159 C162 1.314 . S
N159 C163 1.279 . S
C160 C158 1.348 . S
C160 C162 1.353 . S
C160 H202 0.929 . S
C161 C158 1.356 . S
C161 C163 1.358 . S
C161 H203 0.930 . S
C162 N159 1.314 . S
C162 C160 1.353 . S
C162 H204 0.930 . S
C163 N159 1.279 . S
C163 C161 1.358 . S
C163 H205 0.930 . S
C164 C165 1.348 . S
C164 C166 1.356 . S
C164 O189 1.325 . S
C165 C164 1.348 . S
C165 C167 1.353 . S
C165 H206 0.929 . S
C166 C164 1.356 . S
C166 C168 1.358 . S
C166 H207 0.930 . S
C167 C165 1.353 . S
C167 N169 1.314 . S
C167 H208 0.930 . S
C168 C166 1.358 . S
C168 N169 1.279 . S
C168 H209 0.930 . S
N169 C167 1.314 . S
N169 C168 1.279 . S
C170 C172 1.353 . S
C170 N173 1.314 . S
C170 H176 0.930 . S
C171 N173 1.279 . S
C171 C174 1.358 . S
C171 H177 0.930 . S
C172 C170 1.353 . S
C172 C175 1.348 . S
C172 H210 0.929 . S
N173 Li128 1.990 . S
N173 C170 1.314 . S
N173 C171 1.279 . S
C174 C171 1.358 . S
C174 C175 1.356 . S
C174 H211 0.930 . S
C175 C172 1.348 . S
C175 C174 1.356 . S
H176 C170 0.930 . S
H177 C171 0.930 . S
C178 N179 1.314 . S
C178 C180 1.353 . S
C178 H184 0.930 . S
N179 Li129 1.990 . S
N179 C178 1.314 . S
N179 C182 1.279 . S
C180 C178 1.353 . S
C180 C183 1.348 . S
C180 H212 0.929 . S
C181 C182 1.358 . S
C181 C183 1.356 . S
C181 H213 0.930 . S
C182 N179 1.279 . S
C182 C181 1.358 . S
C182 H185 0.930 . S
C183 C180 1.348 . S
C183 C181 1.356 . S
H184 C178 0.930 . S
H185 C182 0.930 . S
O186 Li126 1.956 . S
O186 Li127 1.970 . S
O186 Li128 1.961 . S
O186 C130 1.325 . S
O187 Li126 1.970 . S
O187 Li127 1.956 . S
O187 Li129 1.961 . S
O187 C136 1.325 . S
O188 Li126 1.961 . S
O188 Li128 1.956 . S
O188 Li129 1.970 . S
O188 C158 1.325 . S
O189 Li127 1.961 . S
O189 Li128 1.970 . S
O189 Li129 1.956 . S
O189 C164 1.325 . S
H190 C132 0.929 . S
H191 C133 0.930 . S
H192 C134 0.930 . S
H193 C135 0.930 . S
H194 C137 0.930 . S
H195 C139 0.929 . S
H196 C140 0.930 . S
H197 C141 0.930 . S
H198 C144 0.930 . S
H199 C147 0.929 . S
H200 C152 0.929 . S
H201 C153 0.930 . S
H202 C160 0.929 . S
H203 C161 0.930 . S
H204 C162 0.930 . S
H205 C163 0.930 . S
H206 C165 0.929 . S
H207 C166 0.930 . S
H208 C167 0.930 . S
H209 C168 0.930 . S
H210 C172 0.929 . S
H211 C174 0.930 . S
H212 C180 0.929 . S
H213 C181 0.930 . S
Li214 N231 1.990 . S
Li214 O274 1.956 . S
Li214 O275 1.970 . S
Li214 O276 1.961 . S
Li215 N239 1.990 . S
Li215 O274 1.970 . S
Li215 O275 1.956 . S
Li215 O277 1.961 . S
Li216 N261 1.990 . S
Li216 O274 1.961 . S
Li216 O276 1.956 . S
Li216 O277 1.970 . S
Li217 N267 1.990 . S
Li217 O275 1.961 . S
Li217 O276 1.970 . S
Li217 O277 1.956 . S
C218 C220 1.348 . S
C218 C221 1.356 . S
C218 O274 1.325 . S
N219 C222 1.314 . S
N219 C223 1.279 . S
C220 C218 1.348 . S
C220 C222 1.353 . S
C220 H278 0.929 . S
C221 C218 1.356 . S
C221 C223 1.358 . S
C221 H279 0.930 . S
C222 N219 1.314 . S
C222 C220 1.353 . S
C222 H280 0.930 . S
C223 N219 1.279 . S
C223 C221 1.358 . S
C223 H281 0.930 . S
C224 C227 1.348 . S
C224 C228 1.356 . S
C224 O275 1.325 . S
C225 N226 1.279 . S
C225 C228 1.358 . S
C225 H282 0.930 . S
N226 C225 1.279 . S
N226 C229 1.314 . S
C227 C224 1.348 . S
C227 C229 1.353 . S
C227 H283 0.929 . S
C228 C224 1.356 . S
C228 C225 1.358 . S
C228 H284 0.930 . S
C229 N226 1.314 . S
C229 C227 1.353 . S
C229 H285 0.930 . S
C230 N231 1.314 . S
C230 C235 1.353 . S
C230 H236 0.930 . S
N231 Li214 1.990 . S
N231 C230 1.314 . S
N231 C233 1.279 . S
C232 C233 1.358 . S
C232 C234 1.356 . S
C232 H286 0.930 . S
C233 N231 1.279 . S
C233 C232 1.358 . S
C233 H237 0.930 . S
C234 C232 1.356 . S
C234 C235 1.348 . S
C235 C230 1.353 . S
C235 C234 1.348 . S
C235 H287 0.929 . S
H236 C230 0.930 . S
H237 C233 0.930 . S
C238 N239 1.314 . S
C238 C240 1.353 . S
C238 H244 0.930 . S
N239 Li215 1.990 . S
N239 C238 1.314 . S
N239 C242 1.279 . S
C240 C238 1.353 . S
C240 C243 1.348 . S
C240 H288 0.929 . S
C241 C242 1.358 . S
C241 C243 1.356 . S
C241 H289 0.930 . S
C242 N239 1.279 . S
C242 C241 1.358 . S
C242 H245 0.930 . S
C243 C240 1.348 . S
C243 C241 1.356 . S
H244 C238 0.930 . S
H245 C242 0.930 . S
C246 C248 1.348 . S
C246 C249 1.356 . S
C246 O276 1.325 . S
N247 C250 1.314 . S
N247 C251 1.279 . S
C248 C246 1.348 . S
C248 C250 1.353 . S
C248 H290 0.929 . S
C249 C246 1.356 . S
C249 C251 1.358 . S
C249 H291 0.930 . S
C250 N247 1.314 . S
C250 C248 1.353 . S
C250 H292 0.930 . S
C251 N247 1.279 . S
C251 C249 1.358 . S
C251 H293 0.930 . S
C252 C253 1.348 . S
C252 C254 1.356 . S
C252 O277 1.325 . S
C253 C252 1.348 . S
C253 C255 1.353 . S
C253 H294 0.929 . S
C254 C252 1.356 . S
C254 C256 1.358 . S
C254 H295 0.930 . S
C255 C253 1.353 . S
C255 N257 1.314 . S
C255 H296 0.930 . S
C256 C254 1.358 . S
C256 N257 1.279 . S
C256 H297 0.930 . S
N257 C255 1.314 . S
N257 C256 1.279 . S
C258 C260 1.353 . S
C258 N261 1.314 . S
C258 H264 0.930 . S
C259 N261 1.279 . S
C259 C262 1.358 . S
C259 H265 0.930 . S
C260 C258 1.353 . S
C260 C263 1.348 . S
C260 H298 0.929 . S
N261 Li216 1.990 . S
N261 C258 1.314 . S
N261 C259 1.279 . S
C262 C259 1.358 . S
C262 C263 1.356 . S
C262 H299 0.930 . S
C263 C260 1.348 . S
C263 C262 1.356 . S
H264 C258 0.930 . S
H265 C259 0.930 . S
C266 N267 1.314 . S
C266 C268 1.353 . S
C266 H272 0.930 . S
N267 Li217 1.990 . S
N267 C266 1.314 . S
N267 C270 1.279 . S
C268 C266 1.353 . S
C268 C271 1.348 . S
C268 H300 0.929 . S
C269 C270 1.358 . S
C269 C271 1.356 . S
C269 H301 0.930 . S
C270 N267 1.279 . S
C270 C269 1.358 . S
C270 H273 0.930 . S
C271 C268 1.348 . S
C271 C269 1.356 . S
H272 C266 0.930 . S
H273 C270 0.930 . S
O274 Li214 1.956 . S
O274 Li215 1.970 . S
O274 Li216 1.961 . S
O274 C218 1.325 . S
O275 Li214 1.970 . S
O275 Li215 1.956 . S
O275 Li217 1.961 . S
O275 C224 1.325 . S
O276 Li214 1.961 . S
O276 Li216 1.956 . S
O276 Li217 1.970 . S
O276 C246 1.325 . S
O277 Li215 1.961 . S
O277 Li216 1.970 . S
O277 Li217 1.956 . S
O277 C252 1.325 . S
H278 C220 0.929 . S
H279 C221 0.930 . S
H280 C222 0.930 . S
H281 C223 0.930 . S
H282 C225 0.930 . S
H283 C227 0.929 . S
H284 C228 0.930 . S
H285 C229 0.930 . S
H286 C232 0.930 . S
H287 C235 0.929 . S
H288 C240 0.929 . S
H289 C241 0.930 . S
H290 C248 0.929 . S
H291 C249 0.930 . S
H292 C250 0.930 . S
H293 C251 0.930 . S
H294 C253 0.929 . S
H295 C254 0.930 . S
H296 C255 0.930 . S
H297 C256 0.930 . S
H298 C260 0.929 . S
H299 C262 0.930 . S
H300 C268 0.929 . S
H301 C269 0.930 . S
Li302 N319 1.990 . S
Li302 O362 1.956 . S
Li302 O363 1.970 . S
Li302 O364 1.961 . S
Li303 N327 1.990 . S
Li303 O362 1.970 . S
Li303 O363 1.956 . S
Li303 O365 1.961 . S
Li304 N349 1.990 . S
Li304 O362 1.961 . S
Li304 O364 1.956 . S
Li304 O365 1.970 . S
Li305 N355 1.990 . S
Li305 O363 1.961 . S
Li305 O364 1.970 . S
Li305 O365 1.956 . S
C306 C308 1.348 . S
C306 C309 1.356 . S
C306 O362 1.325 . S
N307 C310 1.314 . S
N307 C311 1.279 . S
C308 C306 1.348 . S
C308 C310 1.353 . S
C308 H366 0.929 . S
C309 C306 1.356 . S
C309 C311 1.358 . S
C309 H367 0.930 . S
C310 N307 1.314 . S
C310 C308 1.353 . S
C310 H368 0.930 . S
C311 N307 1.279 . S
C311 C309 1.358 . S
C311 H369 0.930 . S
C312 C315 1.348 . S
C312 C316 1.356 . S
C312 O363 1.325 . S
C313 N314 1.279 . S
C313 C316 1.358 . S
C313 H370 0.930 . S
N314 C313 1.279 . S
N314 C317 1.314 . S
C315 C312 1.348 . S
C315 C317 1.353 . S
C315 H371 0.929 . S
C316 C312 1.356 . S
C316 C313 1.358 . S
C316 H372 0.930 . S
C317 N314 1.314 . S
C317 C315 1.353 . S
C317 H373 0.930 . S
C318 N319 1.314 . S
C318 C323 1.353 . S
C318 H324 0.930 . S
N319 Li302 1.990 . S
N319 C318 1.314 . S
N319 C321 1.279 . S
C320 C321 1.358 . S
C320 C322 1.356 . S
C320 H374 0.930 . S
C321 N319 1.279 . S
C321 C320 1.358 . S
C321 H325 0.930 . S
C322 C320 1.356 . S
C322 C323 1.348 . S
C323 C318 1.353 . S
C323 C322 1.348 . S
C323 H375 0.929 . S
H324 C318 0.930 . S
H325 C321 0.930 . S
C326 N327 1.314 . S
C326 C328 1.353 . S
C326 H332 0.930 . S
N327 Li303 1.990 . S
N327 C326 1.314 . S
N327 C330 1.279 . S
C328 C326 1.353 . S
C328 C331 1.348 . S
C328 H376 0.929 . S
C329 C330 1.358 . S
C329 C331 1.356 . S
C329 H377 0.930 . S
C330 N327 1.279 . S
C330 C329 1.358 . S
C330 H333 0.930 . S
C331 C328 1.348 . S
C331 C329 1.356 . S
H332 C326 0.930 . S
H333 C330 0.930 . S
C334 C336 1.348 . S
C334 C337 1.356 . S
C334 O364 1.325 . S
N335 C338 1.314 . S
N335 C339 1.279 . S
C336 C334 1.348 . S
C336 C338 1.353 . S
C336 H378 0.929 . S
C337 C334 1.356 . S
C337 C339 1.358 . S
C337 H379 0.930 . S
C338 N335 1.314 . S
C338 C336 1.353 . S
C338 H380 0.930 . S
C339 N335 1.279 . S
C339 C337 1.358 . S
C339 H381 0.930 . S
C340 C341 1.348 . S
C340 C342 1.356 . S
C340 O365 1.325 . S
C341 C340 1.348 . S
C341 C343 1.353 . S
C341 H382 0.929 . S
C342 C340 1.356 . S
C342 C344 1.358 . S
C342 H383 0.930 . S
C343 C341 1.353 . S
C343 N345 1.314 . S
C343 H384 0.930 . S
C344 C342 1.358 . S
C344 N345 1.279 . S
C344 H385 0.930 . S
N345 C343 1.314 . S
N345 C344 1.279 . S
C346 C348 1.353 . S
C346 N349 1.314 . S
C346 H352 0.930 . S
C347 N349 1.279 . S
C347 C350 1.358 . S
C347 H353 0.930 . S
C348 C346 1.353 . S
C348 C351 1.348 . S
C348 H386 0.929 . S
N349 Li304 1.990 . S
N349 C346 1.314 . S
N349 C347 1.279 . S
C350 C347 1.358 . S
C350 C351 1.356 . S
C350 H387 0.930 . S
C351 C348 1.348 . S
C351 C350 1.356 . S
H352 C346 0.930 . S
H353 C347 0.930 . S
C354 N355 1.314 . S
C354 C356 1.353 . S
C354 H360 0.930 . S
N355 Li305 1.990 . S
N355 C354 1.314 . S
N355 C358 1.279 . S
C356 C354 1.353 . S
C356 C359 1.348 . S
C356 H388 0.929 . S
C357 C358 1.358 . S
C357 C359 1.356 . S
C357 H389 0.930 . S
C358 N355 1.279 . S
C358 C357 1.358 . S
C358 H361 0.930 . S
C359 C356 1.348 . S
C359 C357 1.356 . S
H360 C354 0.930 . S
H361 C358 0.930 . S
O362 Li302 1.956 . S
O362 Li303 1.970 . S
O362 Li304 1.961 . S
O362 C306 1.325 . S
O363 Li302 1.970 . S
O363 Li303 1.956 . S
O363 Li305 1.961 . S
O363 C312 1.325 . S
O364 Li302 1.961 . S
O364 Li304 1.956 . S
O364 Li305 1.970 . S
O364 C334 1.325 . S
O365 Li303 1.961 . S
O365 Li304 1.970 . S
O365 Li305 1.956 . S
O365 C340 1.325 . S
H366 C308 0.929 . S
H367 C309 0.930 . S
H368 C310 0.930 . S
H369 C311 0.930 . S
H370 C313 0.930 . S
H371 C315 0.929 . S
H372 C316 0.930 . S
H373 C317 0.930 . S
H374 C320 0.930 . S
H375 C323 0.929 . S
H376 C328 0.929 . S
H377 C329 0.930 . S
H378 C336 0.929 . S
H379 C337 0.930 . S
H380 C338 0.930 . S
H381 C339 0.930 . S
H382 C341 0.929 . S
H383 C342 0.930 . S
H384 C343 0.930 . S
H385 C344 0.930 . S
H386 C348 0.929 . S
H387 C350 0.930 . S
H388 C356 0.929 . S
H389 C357 0.930 . S
Li390 N407 1.990 . S
Li390 O450 1.956 . S
Li390 O451 1.970 . S
Li390 O452 1.961 . S
Li391 N415 1.990 . S
Li391 O450 1.970 . S
Li391 O451 1.956 . S
Li391 O453 1.961 . S
Li392 N437 1.990 . S
Li392 O450 1.961 . S
Li392 O452 1.956 . S
Li392 O453 1.970 . S
Li393 N443 1.990 . S
Li393 O451 1.961 . S
Li393 O452 1.970 . S
Li393 O453 1.956 . S
C394 C396 1.348 . S
C394 C397 1.356 . S
C394 O450 1.325 . S
N395 C398 1.314 . S
N395 C399 1.279 . S
C396 C394 1.348 . S
C396 C398 1.353 . S
C396 H454 0.929 . S
C397 C394 1.356 . S
C397 C399 1.358 . S
C397 H455 0.930 . S
C398 N395 1.314 . S
C398 C396 1.353 . S
C398 H456 0.930 . S
C399 N395 1.279 . S
C399 C397 1.358 . S
C399 H457 0.930 . S
C400 C403 1.348 . S
C400 C404 1.356 . S
C400 O451 1.325 . S
C401 N402 1.279 . S
C401 C404 1.358 . S
C401 H458 0.930 . S
N402 C401 1.279 . S
N402 C405 1.314 . S
C403 C400 1.348 . S
C403 C405 1.353 . S
C403 H459 0.929 . S
C404 C400 1.356 . S
C404 C401 1.358 . S
C404 H460 0.930 . S
C405 N402 1.314 . S
C405 C403 1.353 . S
C405 H461 0.930 . S
C406 N407 1.314 . S
C406 C411 1.353 . S
C406 H412 0.930 . S
N407 Li390 1.990 . S
N407 C406 1.314 . S
N407 C409 1.279 . S
C408 C409 1.358 1_554 S
C408 C410 1.356 . S
C408 H462 0.930 . S
C409 N407 1.279 . S
C409 C408 1.358 1_556 S
C409 H413 0.930 . S
C410 C408 1.356 . S
C410 C411 1.348 1_554 S
C411 C406 1.353 . S
C411 C410 1.348 1_556 S
C411 H463 0.929 . S
H412 C406 0.930 . S
H413 C409 0.930 . S
C414 N415 1.314 . S
C414 C416 1.353 . S
C414 H420 0.930 . S
N415 Li391 1.990 . S
N415 C414 1.314 . S
N415 C418 1.279 . S
C416 C414 1.353 . S
C416 C419 1.348 . S
C416 H464 0.929 . S
C417 C418 1.358 . S
C417 C419 1.356 . S
C417 H465 0.930 . S
C418 N415 1.279 . S
C418 C417 1.358 . S
C418 H421 0.930 . S
C419 C416 1.348 . S
C419 C417 1.356 . S
H420 C414 0.930 . S
H421 C418 0.930 . S
C422 C424 1.348 . S
C422 C425 1.356 . S
C422 O452 1.325 . S
N423 C426 1.314 . S
N423 C427 1.279 . S
C424 C422 1.348 . S
C424 C426 1.353 . S
C424 H466 0.929 . S
C425 C422 1.356 . S
C425 C427 1.358 . S
C425 H467 0.930 . S
C426 N423 1.314 . S
C426 C424 1.353 . S
C426 H468 0.930 . S
C427 N423 1.279 . S
C427 C425 1.358 . S
C427 H469 0.930 . S
C428 C429 1.348 . S
C428 C430 1.356 . S
C428 O453 1.325 . S
C429 C428 1.348 . S
C429 C431 1.353 . S
C429 H470 0.929 . S
C430 C428 1.356 . S
C430 C432 1.358 . S
C430 H471 0.930 . S
C431 C429 1.353 . S
C431 N433 1.314 . S
C431 H472 0.930 . S
C432 C430 1.358 . S
C432 N433 1.279 . S
C432 H473 0.930 . S
N433 C431 1.314 . S
N433 C432 1.279 . S
C434 C436 1.353 . S
C434 N437 1.314 . S
C434 H440 0.930 . S
C435 N437 1.279 . S
C435 C438 1.358 . S
C435 H441 0.930 . S
C436 C434 1.353 . S
C436 C439 1.348 . S
C436 H474 0.929 . S
N437 Li392 1.990 . S
N437 C434 1.314 . S
N437 C435 1.279 . S
C438 C435 1.358 . S
C438 C439 1.356 . S
C438 H475 0.930 . S
C439 C436 1.348 . S
C439 C438 1.356 . S
H440 C434 0.930 . S
H441 C435 0.930 . S
C442 N443 1.314 . S
C442 C444 1.353 . S
C442 H448 0.930 . S
N443 Li393 1.990 . S
N443 C442 1.314 . S
N443 C446 1.279 . S
C444 C442 1.353 . S
C444 C447 1.348 . S
C444 H476 0.929 . S
C445 C446 1.358 . S
C445 C447 1.356 . S
C445 H477 0.930 . S
C446 N443 1.279 . S
C446 C445 1.358 . S
C446 H449 0.930 . S
C447 C444 1.348 . S
C447 C445 1.356 . S
H448 C442 0.930 . S
H449 C446 0.930 . S
O450 Li390 1.956 . S
O450 Li391 1.970 . S
O450 Li392 1.961 . S
O450 C394 1.325 . S
O451 Li390 1.970 . S
O451 Li391 1.956 . S
O451 Li393 1.961 . S
O451 C400 1.325 . S
O452 Li390 1.961 . S
O452 Li392 1.956 . S
O452 Li393 1.970 . S
O452 C422 1.325 . S
O453 Li391 1.961 . S
O453 Li392 1.970 . S
O453 Li393 1.956 . S
O453 C428 1.325 . S
H454 C396 0.929 . S
H455 C397 0.930 . S
H456 C398 0.930 . S
H457 C399 0.930 . S
H458 C401 0.930 . S
H459 C403 0.929 . S
H460 C404 0.930 . S
H461 C405 0.930 . S
H462 C408 0.930 . S
H463 C411 0.929 . S
H464 C416 0.929 . S
H465 C417 0.930 . S
H466 C424 0.929 . S
H467 C425 0.930 . S
H468 C426 0.930 . S
H469 C427 0.930 . S
H470 C429 0.929 . S
H471 C430 0.930 . S
H472 C431 0.930 . S
H473 C432 0.930 . S
H474 C436 0.929 . S
H475 C438 0.930 . S
H476 C444 0.929 . S
H477 C445 0.930 . S
Li478 N495 1.990 . S
Li478 O538 1.956 . S
Li478 O539 1.970 . S
Li478 O540 1.961 . S
Li479 N503 1.990 . S
Li479 O538 1.970 . S
Li479 O539 1.956 . S
Li479 O541 1.961 . S
Li480 N525 1.990 . S
Li480 O538 1.961 . S
Li480 O540 1.956 . S
Li480 O541 1.970 . S
Li481 N531 1.990 . S
Li481 O539 1.961 . S
Li481 O540 1.970 . S
Li481 O541 1.956 . S
C482 C484 1.348 . S
C482 C485 1.356 . S
C482 O538 1.325 . S
N483 C486 1.314 . S
N483 C487 1.279 . S
C484 C482 1.348 . S
C484 C486 1.353 . S
C484 H542 0.929 . S
C485 C482 1.356 . S
C485 C487 1.358 . S
C485 H543 0.930 . S
C486 N483 1.314 . S
C486 C484 1.353 . S
C486 H544 0.930 . S
C487 N483 1.279 . S
C487 C485 1.358 . S
C487 H545 0.930 . S
C488 C491 1.348 . S
C488 C492 1.356 . S
C488 O539 1.325 . S
C489 N490 1.279 . S
C489 C492 1.358 . S
C489 H546 0.930 . S
N490 C489 1.279 . S
N490 C493 1.314 . S
C491 C488 1.348 . S
C491 C493 1.353 . S
C491 H547 0.929 . S
C492 C488 1.356 . S
C492 C489 1.358 . S
C492 H548 0.930 . S
C493 N490 1.314 . S
C493 C491 1.353 . S
C493 H549 0.930 . S
C494 N495 1.314 . S
C494 C499 1.353 . S
C494 H500 0.930 . S
N495 Li478 1.990 . S
N495 C494 1.314 . S
N495 C497 1.279 . S
C496 C497 1.358 . S
C496 C498 1.356 . S
C496 H550 0.930 . S
C497 N495 1.279 . S
C497 C496 1.358 . S
C497 H501 0.930 . S
C498 C496 1.356 . S
C498 C499 1.348 . S
C499 C494 1.353 . S
C499 C498 1.348 . S
C499 H551 0.929 . S
H500 C494 0.930 . S
H501 C497 0.930 . S
C502 N503 1.314 . S
C502 C504 1.353 . S
C502 H508 0.930 . S
N503 Li479 1.990 . S
N503 C502 1.314 . S
N503 C506 1.279 . S
C504 C502 1.353 . S
C504 C507 1.348 . S
C504 H552 0.929 . S
C505 C506 1.358 . S
C505 C507 1.356 . S
C505 H553 0.930 . S
C506 N503 1.279 . S
C506 C505 1.358 . S
C506 H509 0.930 . S
C507 C504 1.348 . S
C507 C505 1.356 . S
H508 C502 0.930 . S
H509 C506 0.930 . S
C510 C512 1.348 . S
C510 C513 1.356 . S
C510 O540 1.325 . S
N511 C514 1.314 1_556 S
N511 C515 1.279 1_556 S
C512 C510 1.348 . S
C512 C514 1.353 . S
C512 H554 0.929 . S
C513 C510 1.356 . S
C513 C515 1.358 . S
C513 H555 0.930 . S
C514 N511 1.314 1_554 S
C514 C512 1.353 . S
C514 H556 0.930 1_554 S
C515 N511 1.279 1_554 S
C515 C513 1.358 . S
C515 H557 0.915 1_554 S
C516 C517 1.348 . S
C516 C518 1.356 . S
C516 O541 1.325 . S
C517 C516 1.348 . S
C517 C519 1.353 . S
C517 H558 0.929 . S
C518 C516 1.356 . S
C518 C520 1.358 . S
C518 H559 0.930 . S
C519 C517 1.353 . S
C519 N521 1.314 . S
C519 H560 0.930 . S
C520 C518 1.358 . S
C520 N521 1.279 . S
C520 H561 0.930 . S
N521 C519 1.314 . S
N521 C520 1.279 . S
C522 C524 1.353 . S
C522 N525 1.314 . S
C522 H528 0.930 . S
C523 N525 1.279 . S
C523 C526 1.358 1_554 S
C523 H529 0.930 . S
C524 C522 1.353 . S
C524 C527 1.348 1_554 S
C524 H562 0.929 . S
N525 Li480 1.990 . S
N525 C522 1.314 . S
N525 C523 1.279 . S
C526 C523 1.358 1_556 S
C526 C527 1.356 . S
C526 H563 0.930 . S
C527 C524 1.348 1_556 S
C527 C526 1.356 . S
H528 C522 0.930 . S
H529 C523 0.930 . S
C530 N531 1.314 . S
C530 C532 1.353 . S
C530 H536 0.930 . S
N531 Li481 1.990 . S
N531 C530 1.314 . S
N531 C534 1.279 . S
C532 C530 1.353 . S
C532 C535 1.348 . S
C532 H564 0.929 . S
C533 C534 1.358 . S
C533 C535 1.356 . S
C533 H565 0.930 . S
C534 N531 1.279 . S
C534 C533 1.358 . S
C534 H537 0.930 . S
C535 C532 1.348 . S
C535 C533 1.356 . S
H536 C530 0.930 . S
H537 C534 0.930 . S
O538 Li478 1.956 . S
O538 Li479 1.970 . S
O538 Li480 1.961 . S
O538 C482 1.325 . S
O539 Li478 1.970 . S
O539 Li479 1.956 . S
O539 Li481 1.961 . S
O539 C488 1.325 . S
O540 Li478 1.961 . S
O540 Li480 1.956 . S
O540 Li481 1.970 . S
O540 C510 1.325 . S
O541 Li479 1.961 . S
O541 Li480 1.970 . S
O541 Li481 1.956 . S
O541 C516 1.325 . S
H542 C484 0.929 . S
H543 C485 0.930 . S
H544 C486 0.930 . S
H545 C487 0.930 . S
H546 C489 0.930 . S
H547 C491 0.929 . S
H548 C492 0.930 . S
H549 C493 0.930 . S
H550 C496 0.930 . S
H551 C499 0.929 . S
H552 C504 0.929 . S
H553 C505 0.930 . S
H554 C512 0.929 . S
H555 C513 0.930 . S
H556 C514 0.930 1_556 S
H557 C515 0.915 1_556 S
H558 C517 0.929 . S
H559 C518 0.930 . S
H560 C519 0.930 . S
H561 C520 0.930 . S
H562 C524 0.929 . S
H563 C526 0.930 . S
H564 C532 0.929 . S
H565 C533 0.930 . S
Li566 N583 1.990 . S
Li566 O626 1.956 . S
Li566 O627 1.970 . S
Li566 O628 1.961 . S
Li567 N591 1.990 . S
Li567 O626 1.970 . S
Li567 O627 1.956 . S
Li567 O629 1.961 . S
Li568 N613 1.990 . S
Li568 O626 1.961 . S
Li568 O628 1.956 . S
Li568 O629 1.970 . S
Li569 N619 1.990 . S
Li569 O627 1.961 . S
Li569 O628 1.970 . S
Li569 O629 1.956 . S
C570 C572 1.348 . S
C570 C573 1.356 . S
C570 O626 1.325 . S
N571 C574 1.314 . S
N571 C575 1.279 . S
C572 C570 1.348 . S
C572 C574 1.353 . S
C572 H630 0.929 . S
C573 C570 1.356 . S
C573 C575 1.358 . S
C573 H631 0.930 . S
C574 N571 1.314 . S
C574 C572 1.353 . S
C574 H632 0.930 . S
C575 N571 1.279 . S
C575 C573 1.358 . S
C575 H633 0.930 . S
C576 C579 1.348 . S
C576 C580 1.356 . S
C576 O627 1.325 . S
C577 N578 1.279 . S
C577 C580 1.358 . S
C577 H634 0.930 . S
N578 C577 1.279 . S
N578 C581 1.314 . S
C579 C576 1.348 . S
C579 C581 1.353 . S
C579 H635 0.929 . S
C580 C576 1.356 . S
C580 C577 1.358 . S
C580 H636 0.930 . S
C581 N578 1.314 . S
C581 C579 1.353 . S
C581 H637 0.930 . S
C582 N583 1.314 . S
C582 C587 1.353 . S
C582 H588 0.930 . S
N583 Li566 1.990 . S
N583 C582 1.314 . S
N583 C585 1.279 . S
C584 C585 1.358 . S
C584 C586 1.356 . S
C584 H638 0.930 . S
C585 N583 1.279 . S
C585 C584 1.358 . S
C585 H589 0.930 . S
C586 C584 1.356 . S
C586 C587 1.348 . S
C587 C582 1.353 . S
C587 C586 1.348 . S
C587 H639 0.929 . S
H588 C582 0.930 . S
H589 C585 0.930 . S
C590 N591 1.314 . S
C590 C592 1.353 . S
C590 H596 0.930 . S
N591 Li567 1.990 . S
N591 C590 1.314 . S
N591 C594 1.279 . S
C592 C590 1.353 . S
C592 C595 1.348 . S
C592 H640 0.929 . S
C593 C594 1.358 . S
C593 C595 1.356 . S
C593 H641 0.930 . S
C594 N591 1.279 . S
C594 C593 1.358 . S
C594 H597 0.930 . S
C595 C592 1.348 . S
C595 C593 1.356 . S
H596 C590 0.930 . S
H597 C594 0.930 . S
C598 C600 1.348 . S
C598 C601 1.356 . S
C598 O628 1.325 . S
N599 C602 1.314 . S
N599 C603 1.279 . S
C600 C598 1.348 . S
C600 C602 1.353 . S
C600 H642 0.929 . S
C601 C598 1.356 . S
C601 C603 1.358 . S
C601 H643 0.930 . S
C602 N599 1.314 . S
C602 C600 1.353 . S
C602 H644 0.930 . S
C603 N599 1.279 . S
C603 C601 1.358 . S
C603 H645 0.930 . S
C604 C605 1.348 . S
C604 C606 1.356 . S
C604 O629 1.325 . S
C605 C604 1.348 . S
C605 C607 1.353 . S
C605 H646 0.929 . S
C606 C604 1.356 . S
C606 C608 1.358 . S
C606 H647 0.930 . S
C607 C605 1.353 . S
C607 N609 1.314 . S
C607 H648 0.930 . S
C608 C606 1.358 . S
C608 N609 1.279 . S
C608 H649 0.930 . S
N609 C607 1.314 . S
N609 C608 1.279 . S
C610 C612 1.353 . S
C610 N613 1.314 . S
C610 H616 0.930 . S
C611 N613 1.279 . S
C611 C614 1.358 . S
C611 H617 0.930 . S
C612 C610 1.353 . S
C612 C615 1.348 . S
C612 H650 0.929 . S
N613 Li568 1.990 . S
N613 C610 1.314 . S
N613 C611 1.279 . S
C614 C611 1.358 . S
C614 C615 1.356 . S
C614 H651 0.930 . S
C615 C612 1.348 . S
C615 C614 1.356 . S
H616 C610 0.930 . S
H617 C611 0.930 . S
C618 N619 1.314 . S
C618 C620 1.353 . S
C618 H624 0.930 . S
N619 Li569 1.990 . S
N619 C618 1.314 . S
N619 C622 1.279 . S
C620 C618 1.353 . S
C620 C623 1.348 . S
C620 H652 0.929 . S
C621 C622 1.358 . S
C621 C623 1.356 . S
C621 H653 0.930 . S
C622 N619 1.279 . S
C622 C621 1.358 . S
C622 H625 0.930 . S
C623 C620 1.348 . S
C623 C621 1.356 . S
H624 C618 0.930 . S
H625 C622 0.930 . S
O626 Li566 1.956 . S
O626 Li567 1.970 . S
O626 Li568 1.961 . S
O626 C570 1.325 . S
O627 Li566 1.970 . S
O627 Li567 1.956 . S
O627 Li569 1.961 . S
O627 C576 1.325 . S
O628 Li566 1.961 . S
O628 Li568 1.956 . S
O628 Li569 1.970 . S
O628 C598 1.325 . S
O629 Li567 1.961 . S
O629 Li568 1.970 . S
O629 Li569 1.956 . S
O629 C604 1.325 . S
H630 C572 0.929 . S
H631 C573 0.930 . S
H632 C574 0.930 . S
H633 C575 0.930 . S
H634 C577 0.930 . S
H635 C579 0.929 . S
H636 C580 0.930 . S
H637 C581 0.930 . S
H638 C584 0.930 . S
H639 C587 0.929 . S
H640 C592 0.929 . S
H641 C593 0.930 . S
H642 C600 0.929 . S
H643 C601 0.930 . S
H644 C602 0.930 . S
H645 C603 0.930 . S
H646 C605 0.929 . S
H647 C606 0.930 . S
H648 C607 0.930 . S
H649 C608 0.930 . S
H650 C612 0.929 . S
H651 C614 0.930 . S
H652 C620 0.929 . S
H653 C621 0.930 . S
H654 C660 0.930 . S
H655 C664 0.930 . S
H656 C669 0.929 . S
H657 C667 0.929 . S
H658 C662 0.929 . S
H659 C668 0.929 . S
C660 H654 0.930 . S
C660 C661 1.367 . S
C660 C668 1.378 . S
C661 C660 1.367 . S
C661 C669 1.433 . S
C662 H658 0.929 . S
C662 C664 1.378 . S
C662 C666 1.350 . S
C663 C666 1.463 . S
C663 C668 1.350 . S
C663 N671 1.427 . S
C664 H655 0.930 . S
C664 C662 1.378 . S
C664 C665 1.367 . S
C665 C664 1.367 . S
C665 C667 1.433 . S
C666 C662 1.350 . S
C666 C663 1.463 . S
C666 N670 1.427 . S
C667 H657 0.929 . S
C667 C665 1.433 . S
C667 N670 1.384 . S
C668 H659 0.929 . S
C668 C660 1.378 . S
C668 C663 1.350 . S
C669 H656 0.929 . S
C669 C661 1.433 . S
C669 N671 1.384 . S
N670 C666 1.427 . S
N670 C667 1.384 . S
N671 C663 1.427 . S
N671 C669 1.384 . S
H672 C678 0.930 . S
H673 C682 0.930 . S
H674 C687 0.929 . S
H675 C685 0.929 . S
H676 C680 0.929 . S
H677 C686 0.929 . S
C678 H672 0.930 . S
C678 C679 1.367 . S
C678 C686 1.378 . S
C679 C678 1.367 . S
C679 C687 1.433 . S
C680 H676 0.929 . S
C680 C682 1.378 . S
C680 C684 1.350 . S
C681 C684 1.463 . S
C681 C686 1.350 . S
C681 N689 1.427 . S
C682 H673 0.930 . S
C682 C680 1.378 . S
C682 C683 1.367 . S
C683 C682 1.367 . S
C683 C685 1.433 . S
C684 C680 1.350 . S
C684 C681 1.463 . S
C684 N688 1.427 . S
C685 H675 0.929 . S
C685 C683 1.433 . S
C685 N688 1.384 . S
C686 H677 0.929 . S
C686 C678 1.378 . S
C686 C681 1.350 . S
C687 H674 0.929 . S
C687 C679 1.433 . S
C687 N689 1.384 . S
N688 C684 1.427 . S
N688 C685 1.384 . S
N689 C681 1.427 . S
N689 C687 1.384 . S
H690 C696 0.930 . S
H691 C700 0.930 . S
H692 C705 0.929 . S
H693 C703 0.929 . S
H694 C698 0.929 . S
H695 C704 0.929 . S
C696 H690 0.930 . S
C696 C697 1.367 . S
C696 C704 1.378 . S
C697 C696 1.367 . S
C697 C705 1.433 . S
C698 H694 0.929 . S
C698 C700 1.378 . S
C698 C702 1.350 . S
C699 C702 1.463 . S
C699 C704 1.350 . S
C699 N707 1.427 . S
C700 H691 0.930 . S
C700 C698 1.378 . S
C700 C701 1.367 . S
C701 C700 1.367 . S
C701 C703 1.433 . S
C702 C698 1.350 . S
C702 C699 1.463 . S
C702 N706 1.427 . S
C703 H693 0.929 . S
C703 C701 1.433 . S
C703 N706 1.384 . S
C704 H695 0.929 . S
C704 C696 1.378 . S
C704 C699 1.350 . S
C705 H692 0.929 . S
C705 C697 1.433 . S
C705 N707 1.384 . S
N706 C702 1.427 . S
N706 C703 1.384 . S
N707 C699 1.427 . S
N707 C705 1.384 . S
H708 C714 0.930 . S
H709 C718 0.930 . S
H710 C723 0.929 . S
H711 C721 0.929 . S
H712 C716 0.929 . S
H713 C722 0.929 . S
C714 H708 0.930 . S
C714 C715 1.367 . S
C714 C722 1.378 . S
C715 C714 1.367 . S
C715 C723 1.433 . S
C716 H712 0.929 . S
C716 C718 1.378 . S
C716 C720 1.350 . S
C717 C720 1.463 . S
C717 C722 1.350 . S
C717 N725 1.427 . S
C718 H709 0.930 . S
C718 C716 1.378 . S
C718 C719 1.367 . S
C719 C718 1.367 . S
C719 C721 1.433 . S
C720 C716 1.350 . S
C720 C717 1.463 . S
C720 N724 1.427 . S
C721 H711 0.929 . S
C721 C719 1.433 . S
C721 N724 1.384 . S
C722 H713 0.929 . S
C722 C714 1.378 . S
C722 C717 1.350 . S
C723 H710 0.929 . S
C723 C715 1.433 . S
C723 N725 1.384 . S
N724 C720 1.427 . S
N724 C721 1.384 . S
N725 C717 1.427 . S
N725 C723 1.384 . S
H726 C732 0.930 . S
H727 C736 0.930 . S
H728 C741 0.929 . S
H729 C739 0.929 . S
H730 C734 0.929 . S
H731 C740 0.929 . S
C732 H726 0.930 . S
C732 C733 1.367 . S
C732 C740 1.378 . S
C733 C732 1.367 . S
C733 C741 1.433 . S
C734 H730 0.929 . S
C734 C736 1.378 . S
C734 C738 1.350 . S
C735 C738 1.463 . S
C735 C740 1.350 . S
C735 N743 1.427 . S
C736 H727 0.930 . S
C736 C734 1.378 . S
C736 C737 1.367 . S
C737 C736 1.367 . S
C737 C739 1.433 . S
C738 C734 1.350 . S
C738 C735 1.463 . S
C738 N742 1.427 . S
C739 H729 0.929 . S
C739 C737 1.433 . S
C739 N742 1.384 . S
C740 H731 0.929 . S
C740 C732 1.378 . S
C740 C735 1.350 . S
C741 H728 0.929 . S
C741 C733 1.433 . S
C741 N743 1.384 . S
N742 C738 1.427 . S
N742 C739 1.384 . S
N743 C735 1.427 . S
N743 C741 1.384 . S
H744 C750 0.930 . S
H745 C754 0.930 . S
H746 C759 0.929 . S
H747 C757 0.929 . S
H748 C752 0.929 . S
H749 C758 0.929 . S
C750 H744 0.930 . S
C750 C751 1.367 . S
C750 C758 1.378 . S
C751 C750 1.367 . S
C751 C759 1.433 . S
C752 H748 0.929 . S
C752 C754 1.378 . S
C752 C756 1.350 . S
C753 C756 1.463 . S
C753 C758 1.350 . S
C753 N761 1.427 . S
C754 H745 0.930 . S
C754 C752 1.378 . S
C754 C755 1.367 . S
C755 C754 1.367 . S
C755 C757 1.433 . S
C756 C752 1.350 . S
C756 C753 1.463 . S
C756 N760 1.427 . S
C757 H747 0.929 . S
C757 C755 1.433 . S
C757 N760 1.384 . S
C758 H749 0.929 . S
C758 C750 1.378 . S
C758 C753 1.350 . S
C759 H746 0.929 . S
C759 C751 1.433 . S
C759 N761 1.384 . S
N760 C756 1.427 . S
N760 C757 1.384 . S
N761 C753 1.427 . S
N761 C759 1.384 . S
H762 C768 0.930 . S
H763 C772 0.930 . S
H764 C777 0.929 . S
H765 C775 0.929 . S
H766 C770 0.929 . S
H767 C776 0.929 . S
C768 H762 0.930 . S
C768 C769 1.367 . S
C768 C776 1.378 . S
C769 C768 1.367 . S
C769 C777 1.433 . S
C770 H766 0.929 . S
C770 C772 1.378 . S
C770 C774 1.350 . S
C771 C774 1.463 . S
C771 C776 1.350 . S
C771 N779 1.427 . S
C772 H763 0.930 . S
C772 C770 1.378 . S
C772 C773 1.367 . S
C773 C772 1.367 . S
C773 C775 1.433 . S
C774 C770 1.350 . S
C774 C771 1.463 . S
C774 N778 1.427 . S
C775 H765 0.929 . S
C775 C773 1.433 . S
C775 N778 1.384 . S
C776 H767 0.929 . S
C776 C768 1.378 . S
C776 C771 1.350 . S
C777 H764 0.929 . S
C777 C769 1.433 . S
C777 N779 1.384 . S
N778 C774 1.427 . S
N778 C775 1.384 . S
N779 C771 1.427 . S
N779 C777 1.384 . S
H780 C786 0.930 . S
H781 C790 0.930 . S
H782 C795 0.929 . S
H783 C793 0.929 . S
H784 C788 0.929 . S
H785 C794 0.929 . S
C786 H780 0.930 . S
C786 C787 1.367 . S
C786 C794 1.378 . S
C787 C786 1.367 . S
C787 C795 1.433 . S
C788 H784 0.929 . S
C788 C790 1.378 . S
C788 C792 1.350 . S
C789 C792 1.463 . S
C789 C794 1.350 . S
C789 N797 1.427 . S
C790 H781 0.930 . S
C790 C788 1.378 . S
C790 C791 1.367 . S
C791 C790 1.367 . S
C791 C793 1.433 . S
C792 C788 1.350 . S
C792 C789 1.463 . S
C792 N796 1.427 . S
C793 H783 0.929 . S
C793 C791 1.433 . S
C793 N796 1.384 . S
C794 H785 0.929 . S
C794 C786 1.378 . S
C794 C789 1.350 . S
C795 H782 0.929 . S
C795 C787 1.433 . S
C795 N797 1.384 . S
N796 C792 1.427 . S
N796 C793 1.384 . S
N797 C789 1.427 . S
N797 C795 1.384 . S
H798 C804 0.930 . S
H799 C808 0.930 . S
H800 C813 0.929 . S
H801 C811 0.929 . S
H802 C806 0.929 . S
H803 C812 0.929 . S
C804 H798 0.930 . S
C804 C805 1.367 . S
C804 C812 1.378 . S
C805 C804 1.367 . S
C805 C813 1.433 . S
C806 H802 0.929 . S
C806 C808 1.378 . S
C806 C810 1.350 . S
C807 C810 1.463 . S
C807 C812 1.350 . S
C807 N815 1.427 . S
C808 H799 0.930 . S
C808 C806 1.378 . S
C808 C809 1.367 . S
C809 C808 1.367 . S
C809 C811 1.433 . S
C810 C806 1.350 . S
C810 C807 1.463 . S
C810 N814 1.427 . S
C811 H801 0.929 . S
C811 C809 1.433 . S
C811 N814 1.384 . S
C812 H803 0.929 . S
C812 C804 1.378 . S
C812 C807 1.350 . S
C813 H800 0.929 . S
C813 C805 1.433 . S
C813 N815 1.384 . S
N814 C810 1.427 . S
N814 C811 1.384 . S
N815 C807 1.427 . S
N815 C813 1.384 . S
H816 C822 0.930 . S
H817 C826 0.930 . S
H818 C831 0.929 . S
H819 C829 0.929 . S
H820 C824 0.929 . S
H821 C830 0.929 . S
C822 H816 0.930 . S
C822 C823 1.367 . S
C822 C830 1.378 . S
C823 C822 1.367 . S
C823 C831 1.433 1_554 S
C824 H820 0.929 . S
C824 C826 1.378 . S
C824 C828 1.350 . S
C825 C828 1.463 . S
C825 C830 1.350 . S
C825 N833 1.427 . S
C826 H817 0.930 . S
C826 C824 1.378 . S
C826 C827 1.367 . S
C827 C826 1.367 . S
C827 C829 1.433 . S
C828 C824 1.350 . S
C828 C825 1.463 . S
C828 N832 1.427 . S
C829 H819 0.929 . S
C829 C827 1.433 . S
C829 N832 1.384 . S
C830 H821 0.929 . S
C830 C822 1.378 . S
C830 C825 1.350 . S
C831 H818 0.929 . S
C831 C823 1.433 1_556 S
C831 N833 1.384 1_556 S
N832 C828 1.427 . S
N832 C829 1.384 . S
N833 C825 1.427 . S
N833 C831 1.384 1_554 S
H834 C840 0.930 . S
H835 C844 0.930 . S
H836 C849 0.929 . S
H837 C847 0.929 . S
H838 C842 0.929 . S
H839 C848 0.929 . S
C840 H834 0.930 . S
C840 C841 1.367 . S
C840 C848 1.378 . S
C841 C840 1.367 . S
C841 C849 1.433 . S
C842 H838 0.929 . S
C842 C844 1.378 . S
C842 C846 1.350 . S
C843 C846 1.463 . S
C843 C848 1.350 . S
C843 N851 1.427 . S
C844 H835 0.930 . S
C844 C842 1.378 . S
C844 C845 1.367 . S
C845 C844 1.367 . S
C845 C847 1.433 . S
C846 C842 1.350 . S
C846 C843 1.463 . S
C846 N850 1.427 . S
C847 H837 0.929 . S
C847 C845 1.433 . S
C847 N850 1.384 . S
C848 H839 0.929 . S
C848 C840 1.378 . S
C848 C843 1.350 . S
C849 H836 0.929 . S
C849 C841 1.433 . S
C849 N851 1.384 . S
N850 C846 1.427 . S
N850 C847 1.384 . S
N851 C843 1.427 . S
N851 C849 1.384 . S
H852 C858 0.930 . S
H853 C862 0.930 . S
H854 C867 0.929 . S
H855 C865 0.929 . S
H856 C860 0.929 . S
H857 C866 0.929 . S
C858 H852 0.930 . S
C858 C859 1.367 . S
C858 C866 1.378 . S
C859 C858 1.367 . S
C859 C867 1.433 . S
C860 H856 0.929 . S
C860 C862 1.378 . S
C860 C864 1.350 . S
C861 C864 1.463 . S
C861 C866 1.350 . S
C861 N869 1.427 . S
C862 H853 0.930 . S
C862 C860 1.378 . S
C862 C863 1.367 . S
C863 C862 1.367 . S
C863 C865 1.433 . S
C864 C860 1.350 . S
C864 C861 1.463 . S
C864 N868 1.427 . S
C865 H855 0.929 . S
C865 C863 1.433 . S
C865 N868 1.384 . S
C866 H857 0.929 . S
C866 C858 1.378 . S
C866 C861 1.350 . S
C867 H854 0.929 . S
C867 C859 1.433 . S
C867 N869 1.384 . S
N868 C864 1.427 . S
N868 C865 1.384 . S
N869 C861 1.427 . S
N869 C867 1.384 . S
H870 C876 0.930 . S
H871 C880 0.930 . S
H872 C885 0.929 . S
H873 C883 0.929 . S
H874 C878 0.929 . S
H875 C884 0.929 . S
C876 H870 0.930 . S
C876 C877 1.367 . S
C876 C884 1.378 . S
C877 C876 1.367 . S
C877 C885 1.433 . S
C878 H874 0.929 . S
C878 C880 1.378 . S
C878 C882 1.350 . S
C879 C882 1.463 . S
C879 C884 1.350 . S
C879 N887 1.427 . S
C880 H871 0.930 . S
C880 C878 1.378 . S
C880 C881 1.367 . S
C881 C880 1.367 . S
C881 C883 1.433 . S
C882 C878 1.350 . S
C882 C879 1.463 . S
C882 N886 1.427 . S
C883 H873 0.929 . S
C883 C881 1.433 . S
C883 N886 1.384 . S
C884 H875 0.929 . S
C884 C876 1.378 . S
C884 C879 1.350 . S
C885 H872 0.929 . S
C885 C877 1.433 . S
C885 N887 1.384 . S
N886 C882 1.427 . S
N886 C883 1.384 . S
N887 C879 1.427 . S
N887 C885 1.384 . S
H888 C894 0.930 . S
H889 C898 0.930 . S
H890 C903 0.929 . S
H891 C901 0.929 . S
H892 C896 0.929 . S
H893 C902 0.929 . S
C894 H888 0.930 . S
C894 C895 1.367 . S
C894 C902 1.378 . S
C895 C894 1.367 . S
C895 C903 1.433 . S
C896 H892 0.929 . S
C896 C898 1.378 . S
C896 C900 1.350 . S
C897 C900 1.463 . S
C897 C902 1.350 . S
C897 N905 1.427 . S
C898 H889 0.930 . S
C898 C896 1.378 . S
C898 C899 1.367 . S
C899 C898 1.367 . S
C899 C901 1.433 . S
C900 C896 1.350 . S
C900 C897 1.463 . S
C900 N904 1.427 . S
C901 H891 0.929 . S
C901 C899 1.433 . S
C901 N904 1.384 . S
C902 H893 0.929 . S
C902 C894 1.378 . S
C902 C897 1.350 . S
C903 H890 0.929 . S
C903 C895 1.433 . S
C903 N905 1.384 . S
N904 C900 1.427 . S
N904 C901 1.384 . S
N905 C897 1.427 . S
N905 C903 1.384 . S
H906 C912 0.930 . S
H907 C916 0.930 . S
H908 C921 0.929 . S
H909 C919 0.929 . S
H910 C914 0.929 . S
H911 C920 0.929 . S
C912 H906 0.930 . S
C912 C913 1.367 . S
C912 C920 1.378 . S
C913 C912 1.367 . S
C913 C921 1.433 . S
C914 H910 0.929 . S
C914 C916 1.378 . S
C914 C918 1.350 . S
C915 C918 1.463 . S
C915 C920 1.350 . S
C915 N923 1.427 . S
C916 H907 0.930 . S
C916 C914 1.378 . S
C916 C917 1.367 . S
C917 C916 1.367 . S
C917 C919 1.433 . S
C918 C914 1.350 . S
C918 C915 1.463 . S
C918 N922 1.427 . S
C919 H909 0.929 . S
C919 C917 1.433 . S
C919 N922 1.384 . S
C920 H911 0.929 . S
C920 C912 1.378 . S
C920 C915 1.350 . S
C921 H908 0.929 . S
C921 C913 1.433 . S
C921 N923 1.384 . S
N922 C918 1.427 . S
N922 C919 1.384 . S
N923 C915 1.427 . S
N923 C921 1.384 . S
H924 C930 0.930 . S
H925 C934 0.930 . S
H926 C939 0.929 . S
H927 C937 0.929 . S
H928 C932 0.929 . S
H929 C938 0.929 . S
C930 H924 0.930 . S
C930 C931 1.367 . S
C930 C938 1.378 . S
C931 C930 1.367 . S
C931 C939 1.433 . S
C932 H928 0.929 . S
C932 C934 1.378 . S
C932 C936 1.350 . S
C933 C936 1.463 . S
C933 C938 1.350 . S
C933 N941 1.427 . S
C934 H925 0.930 . S
C934 C932 1.378 . S
C934 C935 1.367 . S
C935 C934 1.367 . S
C935 C937 1.433 . S
C936 C932 1.350 . S
C936 C933 1.463 . S
C936 N940 1.427 . S
C937 H927 0.929 . S
C937 C935 1.433 . S
C937 N940 1.384 . S
C938 H929 0.929 . S
C938 C930 1.378 . S
C938 C933 1.350 . S
C939 H926 0.929 . S
C939 C931 1.433 . S
C939 N941 1.384 . S
N940 C936 1.427 . S
N940 C937 1.384 . S
N941 C933 1.427 . S
N941 C939 1.384 . S
H942 C948 0.930 . S
H943 C952 0.930 . S
H944 C957 0.929 . S
H945 C955 0.929 . S
H946 C950 0.929 . S
H947 C956 0.929 . S
C948 H942 0.930 . S
C948 C949 1.367 . S
C948 C956 1.378 . S
C949 C948 1.367 . S
C949 C957 1.433 . S
C950 H946 0.929 . S
C950 C952 1.378 . S
C950 C954 1.350 . S
C951 C954 1.463 . S
C951 C956 1.350 . S
C951 N959 1.427 . S
C952 H943 0.930 . S
C952 C950 1.378 . S
C952 C953 1.367 . S
C953 C952 1.367 . S
C953 C955 1.433 . S
C954 C950 1.350 . S
C954 C951 1.463 . S
C954 N958 1.427 . S
C955 H945 0.929 . S
C955 C953 1.433 . S
C955 N958 1.384 . S
C956 H947 0.929 . S
C956 C948 1.378 . S
C956 C951 1.350 . S
C957 H944 0.929 . S
C957 C949 1.433 . S
C957 N959 1.384 . S
N958 C954 1.427 . S
N958 C955 1.384 . S
N959 C951 1.427 . S
N959 C957 1.384 . S
H960 C966 0.930 . S
H961 C970 0.930 . S
H962 C975 0.929 . S
H963 C973 0.929 . S
H964 C968 0.929 . S
H965 C974 0.929 . S
C966 H960 0.930 . S
C966 C967 1.367 . S
C966 C974 1.378 . S
C967 C966 1.367 . S
C967 C975 1.433 . S
C968 H964 0.929 . S
C968 C970 1.378 . S
C968 C972 1.350 . S
C969 C972 1.463 . S
C969 C974 1.350 . S
C969 N977 1.427 . S
C970 H961 0.930 . S
C970 C968 1.378 . S
C970 C971 1.367 . S
C971 C970 1.367 . S
C971 C973 1.433 . S
C972 C968 1.350 . S
C972 C969 1.463 . S
C972 N976 1.427 . S
C973 H963 0.929 . S
C973 C971 1.433 . S
C973 N976 1.384 . S
C974 H965 0.929 . S
C974 C966 1.378 . S
C974 C969 1.350 . S
C975 H962 0.929 . S
C975 C967 1.433 . S
C975 N977 1.384 . S
N976 C972 1.427 . S
N976 C973 1.384 . S
N977 C969 1.427 . S
N977 C975 1.384 . S
H978 C984 0.930 . S
H979 C988 0.930 . S
H980 C993 0.929 . S
H981 C991 0.929 . S
H982 C986 0.929 . S
H983 C992 0.929 . S
C984 H978 0.930 . S
C984 C985 1.367 . S
C984 C992 1.378 . S
C985 C984 1.367 . S
C985 C993 1.433 . S
C986 H982 0.929 . S
C986 C988 1.378 . S
C986 C990 1.350 . S
C987 C990 1.463 . S
C987 C992 1.350 . S
C987 N995 1.427 . S
C988 H979 0.930 . S
C988 C986 1.378 . S
C988 C989 1.367 . S
C989 C988 1.367 . S
C989 C991 1.433 . S
C990 C986 1.350 . S
C990 C987 1.463 . S
C990 N994 1.427 . S
C991 H981 0.929 . S
C991 C989 1.433 . S
C991 N994 1.384 . S
C992 H983 0.929 . S
C992 C984 1.378 . S
C992 C987 1.350 . S
C993 H980 0.929 . S
C993 C985 1.433 . S
C993 N995 1.384 . S
N994 C990 1.427 . S
N994 C991 1.384 . S
N995 C987 1.427 . S
N995 C993 1.384 . S
H996 C1002 0.930 . S
H997 C1006 0.930 . S
H998 C1011 0.929 . S
H999 C1009 0.929 . S
H1000 C1004 0.929 . S
H1001 C1010 0.929 . S
C1002 H996 0.930 . S
C1002 C1003 1.367 . S
C1002 C1010 1.378 . S
C1003 C1002 1.367 . S
C1003 C1011 1.433 . S
C1004 H1000 0.929 . S
C1004 C1006 1.378 . S
C1004 C1008 1.350 . S
C1005 C1008 1.463 . S
C1005 C1010 1.350 . S
C1005 N1013 1.427 . S
C1006 H997 0.930 . S
C1006 C1004 1.378 . S
C1006 C1007 1.367 . S
C1007 C1006 1.367 . S
C1007 C1009 1.433 . S
C1008 C1004 1.350 . S
C1008 C1005 1.463 . S
C1008 N1012 1.427 . S
C1009 H999 0.929 . S
C1009 C1007 1.433 . S
C1009 N1012 1.384 . S
C1010 H1001 0.929 . S
C1010 C1002 1.378 . S
C1010 C1005 1.350 . S
C1011 H998 0.929 . S
C1011 C1003 1.433 . S
C1011 N1013 1.384 . S
N1012 C1008 1.427 . S
N1012 C1009 1.384 . S
N1013 C1005 1.427 . S
N1013 C1011 1.384 . S
H1014 C1020 0.930 . S
H1015 C1024 0.930 . S
H1016 C1029 0.929 . S
H1017 C1027 0.929 . S
H1018 C1022 0.929 . S
H1019 C1028 0.929 . S
C1020 H1014 0.930 . S
C1020 C1021 1.367 . S
C1020 C1028 1.378 . S
C1021 C1020 1.367 . S
C1021 C1029 1.433 . S
C1022 H1018 0.929 . S
C1022 C1024 1.378 . S
C1022 C1026 1.350 . S
C1023 C1026 1.463 . S
C1023 C1028 1.350 . S
C1023 N1031 1.427 . S
C1024 H1015 0.930 . S
C1024 C1022 1.378 . S
C1024 C1025 1.367 . S
C1025 C1024 1.367 . S
C1025 C1027 1.433 . S
C1026 C1022 1.350 . S
C1026 C1023 1.463 . S
C1026 N1030 1.427 . S
C1027 H1017 0.929 . S
C1027 C1025 1.433 . S
C1027 N1030 1.384 . S
C1028 H1019 0.929 . S
C1028 C1020 1.378 . S
C1028 C1023 1.350 . S
C1029 H1016 0.929 . S
C1029 C1021 1.433 . S
C1029 N1031 1.384 . S
N1030 C1026 1.427 . S
N1030 C1027 1.384 . S
N1031 C1023 1.427 . S
N1031 C1029 1.384 . S
H1032 C1038 0.930 . S
H1033 C1042 0.930 . S
H1034 C1047 0.929 . S
H1035 C1045 0.929 . S
H1036 C1040 0.929 . S
H1037 C1046 0.929 . S
C1038 H1032 0.930 . S
C1038 C1039 1.367 . S
C1038 C1046 1.378 . S
C1039 C1038 1.367 . S
C1039 C1047 1.433 . S
C1040 H1036 0.929 . S
C1040 C1042 1.378 . S
C1040 C1044 1.350 . S
C1041 C1044 1.463 . S
C1041 C1046 1.350 . S
C1041 N1049 1.427 . S
C1042 H1033 0.930 . S
C1042 C1040 1.378 . S
C1042 C1043 1.367 . S
C1043 C1042 1.367 . S
C1043 C1045 1.433 . S
C1044 C1040 1.350 . S
C1044 C1041 1.463 . S
C1044 N1048 1.427 . S
C1045 H1035 0.929 . S
C1045 C1043 1.433 . S
C1045 N1048 1.384 . S
C1046 H1037 0.929 . S
C1046 C1038 1.378 . S
C1046 C1041 1.350 . S
C1047 H1034 0.929 . S
C1047 C1039 1.433 . S
C1047 N1049 1.384 . S
N1048 C1044 1.427 . S
N1048 C1045 1.384 . S
N1049 C1041 1.427 . S
N1049 C1047 1.384 . S
H1050 C1056 0.930 . S
H1051 C1060 0.930 . S
H1052 C1065 0.929 . S
H1053 C1063 0.929 . S
H1054 C1058 0.929 . S
H1055 C1064 0.929 . S
C1056 H1050 0.930 . S
C1056 C1057 1.367 . S
C1056 C1064 1.378 . S
C1057 C1056 1.367 . S
C1057 C1065 1.433 . S
C1058 H1054 0.929 . S
C1058 C1060 1.378 . S
C1058 C1062 1.350 . S
C1059 C1062 1.463 . S
C1059 C1064 1.350 . S
C1059 N1067 1.427 . S
C1060 H1051 0.930 . S
C1060 C1058 1.378 . S
C1060 C1061 1.367 . S
C1061 C1060 1.367 . S
C1061 C1063 1.433 . S
C1062 C1058 1.350 . S
C1062 C1059 1.463 . S
C1062 N1066 1.427 . S
C1063 H1053 0.929 . S
C1063 C1061 1.433 . S
C1063 N1066 1.384 . S
C1064 H1055 0.929 . S
C1064 C1056 1.378 . S
C1064 C1059 1.350 . S
C1065 H1052 0.929 . S
C1065 C1057 1.433 . S
C1065 N1067 1.384 . S
N1066 C1062 1.427 . S
N1066 C1063 1.384 . S
N1067 C1059 1.427 . S
N1067 C1065 1.384 . S
H1068 C1074 0.930 . S
H1069 C1078 0.930 . S
H1070 C1083 0.929 . S
H1071 C1081 0.929 . S
H1072 C1076 0.929 . S
H1073 C1082 0.929 . S
C1074 H1068 0.930 . S
C1074 C1075 1.367 . S
C1074 C1082 1.378 . S
C1075 C1074 1.367 . S
C1075 C1083 1.433 . S
C1076 H1072 0.929 . S
C1076 C1078 1.378 . S
C1076 C1080 1.350 . S
C1077 C1080 1.463 . S
C1077 C1082 1.350 . S
C1077 N1085 1.427 . S
C1078 H1069 0.930 . S
C1078 C1076 1.378 . S
C1078 C1079 1.367 . S
C1079 C1078 1.367 . S
C1079 C1081 1.433 . S
C1080 C1076 1.350 . S
C1080 C1077 1.463 . S
C1080 N1084 1.427 . S
C1081 H1071 0.929 . S
C1081 C1079 1.433 . S
C1081 N1084 1.384 . S
C1082 H1073 0.929 . S
C1082 C1074 1.378 . S
C1082 C1077 1.350 . S
C1083 H1070 0.929 . S
C1083 C1075 1.433 . S
C1083 N1085 1.384 . S
N1084 C1080 1.427 . S
N1084 C1081 1.384 . S
N1085 C1077 1.427 . S
N1085 C1083 1.384 . S
C665 C595 1.590 . S
C661 C19 1.492 . S
C679 C40 1.504 . S
C683 C155 1.587 . S
C697 C51 1.487 . S
C701 C243 1.601 . S
C715 C72 1.484 . S
C719 C322 1.597 . S
C737 C419 1.586 . S
C733 C103 1.496 . S
C751 C114 1.489 . S
C755 C498 1.591 . S
C769 C30 1.485 . S
C773 C263 1.603 . S
C787 C61 1.492 . S
C791 C359 1.591 . S
C805 C82 1.499 . S
C809 C439 1.592 . S
C827 C535 1.592 . S
C823 C93 1.510 . S
C845 C615 1.590 . S
C841 C124 1.509 . S
C863 C175 1.592 . S
C859 C9 1.477 . S
C877 C17 1.455 . S
C881 C271 1.543 . S
C895 C38 1.447 . S
C899 C351 1.542 . S
C917 C447 1.535 . S
C913 C54 1.426 . S
C931 C75 1.429 . S
C935 C527 1.539 . S
C953 C623 1.536 . S
C949 C101 1.431 . S
C971 C183 1.538 . S
C967 C117 1.439 . S
C989 C586 1.536 . S
C985 C33 1.439 . S
C1003 C59 1.440 . S
C1007 C146 1.541 . S
C1025 C234 1.540 . S
C1021 C80 1.435 . S
C1039 C96 1.437 . S
C1043 C331 1.532 . S
C1057 C122 1.437 . S
C1061 C410 1.533 . S
C1075 C12 1.448 . S
C1079 C507 1.543 . S
