# Generated by pormake.
# Topology wbl, (4,4)-cn, num edge types: 1
# Building blocks:
#     Node 0, Type 0, BuildingBlock: MIFKUJ_clean_linker_1, # of connection points: 4
#     Node 1, Type 0, BuildingBlock: MIFKUJ_clean_linker_1, # of connection points: 4
#     Node 2, Type 0, BuildingBlock: MIFKUJ_clean_linker_1, # of connection points: 4
#     Node 3, Type 0, BuildingBlock: MIFKUJ_clean_linker_1, # of connection points: 4
#     Node 4, Type 0, BuildingBlock: MIFKUJ_clean_linker_1, # of connection points: 4
#     Node 5, Type 0, BuildingBlock: MIFKUJ_clean_linker_1, # of connection points: 4
#     Node 6, Type 0, BuildingBlock: MIFKUJ_clean_linker_1, # of connection points: 4
#     Node 7, Type 0, BuildingBlock: MIFKUJ_clean_linker_1, # of connection points: 4
#     Node 8, Type 1, BuildingBlock: QUQFOY_clean_sbu_3, # of connection points: 4
#     Node 9, Type 1, BuildingBlock: QUQFOY_clean_sbu_3, # of connection points: 4
#     Node 10, Type 1, BuildingBlock: QUQFOY_clean_sbu_3, # of connection points: 4
#     Node 11, Type 1, BuildingBlock: QUQFOY_clean_sbu_3, # of connection points: 4
#     Node 12, Type 1, BuildingBlock: QUQFOY_clean_sbu_3, # of connection points: 4
#     Node 13, Type 1, BuildingBlock: QUQFOY_clean_sbu_3, # of connection points: 4
#     Node 14, Type 1, BuildingBlock: QUQFOY_clean_sbu_3, # of connection points: 4
#     Node 15, Type 1, BuildingBlock: QUQFOY_clean_sbu_3, # of connection points: 4
#     Edge 16, Type (0, 1), BuildingBlock: TEMPAE_clean_linker_10, # of connection points: 2
#     Edge 17, Type (0, 1), BuildingBlock: TEMPAE_clean_linker_10, # of connection points: 2
#     Edge 18, Type (0, 1), BuildingBlock: TEMPAE_clean_linker_10, # of connection points: 2
#     Edge 19, Type (0, 1), BuildingBlock: TEMPAE_clean_linker_10, # of connection points: 2
#     Edge 20, Type (0, 1), BuildingBlock: TEMPAE_clean_linker_10, # of connection points: 2
#     Edge 21, Type (0, 1), BuildingBlock: TEMPAE_clean_linker_10, # of connection points: 2
#     Edge 22, Type (0, 1), BuildingBlock: TEMPAE_clean_linker_10, # of connection points: 2
#     Edge 23, Type (0, 1), BuildingBlock: TEMPAE_clean_linker_10, # of connection points: 2
#     Edge 24, Type (0, 1), BuildingBlock: TEMPAE_clean_linker_10, # of connection points: 2
#     Edge 25, Type (0, 1), BuildingBlock: TEMPAE_clean_linker_10, # of connection points: 2
#     Edge 26, Type (0, 1), BuildingBlock: TEMPAE_clean_linker_10, # of connection points: 2
#     Edge 27, Type (0, 1), BuildingBlock: TEMPAE_clean_linker_10, # of connection points: 2
#     Edge 28, Type (0, 1), BuildingBlock: TEMPAE_clean_linker_10, # of connection points: 2
#     Edge 29, Type (0, 1), BuildingBlock: TEMPAE_clean_linker_10, # of connection points: 2
#     Edge 30, Type (0, 1), BuildingBlock: TEMPAE_clean_linker_10, # of connection points: 2
#     Edge 31, Type (0, 1), BuildingBlock: TEMPAE_clean_linker_10, # of connection points: 2
#     Edge 32, Type (0, 1), BuildingBlock: TEMPAE_clean_linker_10, # of connection points: 2
#     Edge 33, Type (0, 1), BuildingBlock: TEMPAE_clean_linker_10, # of connection points: 2
#     Edge 34, Type (0, 1), BuildingBlock: TEMPAE_clean_linker_10, # of connection points: 2
#     Edge 35, Type (0, 1), BuildingBlock: TEMPAE_clean_linker_10, # of connection points: 2
#     Edge 36, Type (0, 1), BuildingBlock: TEMPAE_clean_linker_10, # of connection points: 2
#     Edge 37, Type (0, 1), BuildingBlock: TEMPAE_clean_linker_10, # of connection points: 2
#     Edge 38, Type (0, 1), BuildingBlock: TEMPAE_clean_linker_10, # of connection points: 2
#     Edge 39, Type (0, 1), BuildingBlock: TEMPAE_clean_linker_10, # of connection points: 2
#     Edge 40, Type (0, 1), BuildingBlock: TEMPAE_clean_linker_10, # of connection points: 2
#     Edge 41, Type (0, 1), BuildingBlock: TEMPAE_clean_linker_10, # of connection points: 2
#     Edge 42, Type (0, 1), BuildingBlock: TEMPAE_clean_linker_10, # of connection points: 2
#     Edge 43, Type (0, 1), BuildingBlock: TEMPAE_clean_linker_10, # of connection points: 2
#     Edge 44, Type (0, 1), BuildingBlock: TEMPAE_clean_linker_10, # of connection points: 2
#     Edge 45, Type (0, 1), BuildingBlock: TEMPAE_clean_linker_10, # of connection points: 2
#     Edge 46, Type (0, 1), BuildingBlock: TEMPAE_clean_linker_10, # of connection points: 2
#     Edge 47, Type (0, 1), BuildingBlock: TEMPAE_clean_linker_10, # of connection points: 2
# Relax obj value: 0.160
# Max RMSD: 0.159
# Mean RMSD: 0.136
data_MOF--net-wbl--node1-QUQFOY_clean_sbu_3--node2-MIFKUJ_clean_linker_1--edge1-TEMPAE_clean_linker_10
_symmetry_space_group_name_H-M    P1
_symmetry_Int_Tables_number       1
_symmetry_cell_setting            triclinic
loop_
_symmetry_equiv_pos_as_xyz
'x, y, z'
_cell_length_a     46.627117
_cell_length_b     47.144426
_cell_length_c     75.951537
_cell_angle_alpha  90.82534
_cell_angle_beta   90.233516
_cell_angle_gamma 89.988699
loop_
_atom_site_label
_atom_site_type_symbol
_atom_site_fract_x
_atom_site_fract_y
_atom_site_fract_z
_atom_type_partial_charge
H0 H 0.00942 0.03075 0.34942 0.0
H1 H 0.98827 0.06397 0.37036 0.0
H2 H 0.90493 0.05005 0.34655 0.0
H3 H 0.92621 0.01533 0.32615 0.0
H4 H 9e-05 0.97657 0.34706 0.0
H5 H 0.98907 0.05611 0.3086 0.0
H6 H 0.9592 0.09323 0.29569 0.0
H7 H 0.90792 0.02903 0.26939 0.0
H8 H 0.93745 0.99203 0.28255 0.0
H9 H 0.01462 0.89879 0.30612 0.0
H10 H 0.04938 0.86782 0.29121 0.0
H11 H 0.08058 0.93925 0.26197 0.0
H12 H 0.04684 0.97031 0.27732 0.0
H13 H 0.99349 0.97822 0.2819 0.0
H14 H -0.00135 0.91393 0.34469 0.0
H15 H 0.0302 0.88885 0.36499 0.0
H16 H 0.10316 0.93352 0.34393 0.0
H17 H 0.07152 0.95742 0.32314 0.0
C18 C 0.96943 0.02045 0.33625 0.0
C19 C 0.98659 0.03489 0.34866 0.0
C20 C 0.97447 0.05424 0.36049 0.0
C21 C 0.94485 0.05987 0.36013 0.0
C22 C 0.92777 0.04603 0.34731 0.0
C23 C 0.93993 0.02636 0.33554 0.0
C24 C 0.98261 -0.00164 0.32474 0.0
C25 C -0.00158 0.97685 0.3328 0.0
C26 C 0.98078 -0.00119 0.30614 0.0
C27 C 0.96501 0.02134 0.29684 0.0
C28 C 0.97146 0.05007 0.29999 0.0
C29 C 0.95452 0.07122 0.29257 0.0
C30 C 0.93124 0.06394 0.28162 0.0
C31 C 0.92592 0.03521 0.27765 0.0
C32 C 0.94267 0.01408 0.28521 0.0
C33 C 0.02862 0.93703 0.29318 0.0
C34 C 0.02881 0.90775 0.29641 0.0
C35 C 0.04842 0.89003 0.2878 0.0
C36 C 0.06759 0.90123 0.2755 0.0
C37 C 0.06578 0.93005 0.27125 0.0
C38 C 0.04655 0.94782 0.28006 0.0
C39 C 0.01155 0.95683 0.30427 0.0
C40 C 0.99482 0.97774 0.29616 0.0
C41 C 0.01332 0.95651 0.32285 0.0
C42 C 0.03283 0.93748 0.3325 0.0
C43 C 0.02157 0.91763 0.34415 0.0
C44 C 0.03961 0.90352 0.35582 0.0
C45 C 0.06918 0.90955 0.35634 0.0
C46 C 0.08059 0.92814 0.34382 0.0
C47 C 0.06253 0.94194 0.33197 0.0
H48 H 0.9878 0.4852 0.52234 0.0
H49 H 0.96131 0.44731 0.50718 0.0
H50 H 0.88444 0.47161 0.53507 0.0
H51 H 0.91073 0.51027 0.54979 0.0
H52 H 0.98684 0.54027 0.52566 0.0
H53 H 0.96731 0.46176 0.56474 0.0
H54 H 0.94232 0.42901 0.58408 0.0
H55 H 0.90653 0.50058 0.61277 0.0
H56 H 0.92965 0.53274 0.59268 0.0
H57 H 0.98564 0.59634 0.59313 0.0
H58 H 0.01552 0.62434 0.61335 0.0
H59 H 0.09163 0.58975 0.58889 0.0
H60 H 0.06148 0.56144 0.56874 0.0
H61 H 0.98499 0.53852 0.59091 0.0
H62 H 0.00467 0.61628 0.55468 0.0
H63 H 0.03746 0.65003 0.54204 0.0
H64 H 0.07273 0.58353 0.50869 0.0
H65 H 0.0416 0.54914 0.52293 0.0
C66 C 0.95142 0.50014 0.53751 0.0
C67 C 0.96506 0.48292 0.52485 0.0
C68 C 0.94992 0.46134 0.51616 0.0
C69 C 0.92095 0.45653 0.52008 0.0
C70 C 0.90684 0.47485 0.53194 0.0
C71 C 0.92188 0.49675 0.54041 0.0
C72 C 0.96859 0.52026 0.54839 0.0
C73 C 0.98657 0.53972 0.53993 0.0
C74 C 0.96779 0.52004 0.56704 0.0
C75 C 0.95027 0.49975 0.57721 0.0
C76 C 0.95332 0.4703 0.57486 0.0
C77 C 0.93929 0.45159 0.5861 0.0
C78 C 0.92244 0.46201 0.60013 0.0
C79 C 0.91875 0.49154 0.60198 0.0
C80 C 0.93231 0.51011 0.5906 0.0
C81 C 0.02136 0.57686 0.57946 0.0
C82 C 0.00876 0.59499 0.59202 0.0
C83 C 0.02585 0.61116 0.60344 0.0
C84 C 0.0559 0.60928 0.60264 0.0
C85 C 0.06852 0.59151 0.58982 0.0
C86 C 0.05137 0.57546 0.57828 0.0
C87 C 0.00295 0.55839 0.56824 0.0
C88 C 0.98496 0.53916 0.57663 0.0
C89 C 0.00359 0.55898 0.54963 0.0
C90 C 0.02123 0.57999 0.54017 0.0
C91 C 0.01971 0.60884 0.54482 0.0
C92 C 0.03822 0.62831 0.53725 0.0
C93 C 0.05797 0.61967 0.52426 0.0
C94 C 0.05833 0.59094 0.5189 0.0
C95 C 0.04025 0.57127 0.52687 0.0
H96 H 0.45914 0.55098 0.82182 0.0
H97 H 0.42997 0.58227 0.84043 0.0
H98 H 0.40406 0.51028 0.87115 0.0
H99 H 0.43251 0.47901 0.85214 0.0
H100 H 0.48987 0.48108 0.84872 0.0
H101 H 0.47206 0.53295 0.78216 0.0
H102 H 0.43358 0.56073 0.76865 0.0
H103 H 0.37068 0.5098 0.79542 0.0
H104 H 0.40917 0.48269 0.80912 0.0
H105 H 0.50563 0.417 0.78407 0.0
H106 H 0.54554 0.39267 0.76914 0.0
H107 H 0.60476 0.45325 0.79229 0.0
H108 H 0.56512 0.47691 0.80727 0.0
H109 H 0.4867 0.47494 0.78341 0.0
H110 H 0.51932 0.40669 0.82709 0.0
H111 H 0.55179 0.38203 0.84731 0.0
H112 H 0.58147 0.46288 0.86771 0.0
H113 H 0.54905 0.48728 0.84759 0.0
C114 C 0.44785 0.51263 0.83554 0.0
C115 C 0.44662 0.54185 0.83229 0.0
C116 C 0.43016 0.55975 0.84303 0.0
C117 C 0.41477 0.54876 0.85728 0.0
C118 C 0.41534 0.51935 0.86014 0.0
C119 C 0.43179 0.50148 0.84939 0.0
C120 C 0.46756 0.49408 0.82532 0.0
C121 C 0.489 0.47956 0.83445 0.0
C122 C 0.46636 0.49191 0.80674 0.0
C123 C 0.44336 0.50603 0.79674 0.0
C124 C 0.44994 0.52756 0.78486 0.0
C125 C 0.42797 0.54339 0.77717 0.0
C126 C 0.39914 0.53771 0.78119 0.0
C127 C 0.3927 0.51511 0.7924 0.0
C128 C 0.41462 0.49947 0.80012 0.0
C129 C 0.5326 0.44841 0.79695 0.0
C130 C 0.52725 0.425 0.7858 0.0
C131 C 0.54999 0.41121 0.77728 0.0
C132 C 0.5783 0.42079 0.77977 0.0
C133 C 0.58329 0.4449 0.79046 0.0
C134 C 0.56067 0.45853 0.79897 0.0
C135 C 0.50918 0.46222 0.80688 0.0
C136 C 0.48724 0.47606 0.79768 0.0
C137 C 0.50978 0.46364 0.82546 0.0
C138 C 0.53177 0.44876 0.83595 0.0
C139 C 0.53326 0.41902 0.8357 0.0
C140 C 0.5517 0.405 0.84725 0.0
C141 C 0.56913 0.42056 0.85904 0.0
C142 C 0.56856 0.45035 0.85861 0.0
C143 C 0.5499 0.46431 0.84725 0.0
H144 H 0.52715 0.94386 0.04322 0.0
H145 H 0.50028 0.9076 0.0267 0.0
H146 H 0.42094 0.94993 0.03992 0.0
H147 H 0.44796 0.98629 0.05648 0.0
H148 H 0.53049 0.00353 0.04147 0.0
H149 H 0.49366 0.93079 0.08016 0.0
H150 H 0.46039 0.90254 0.09738 0.0
H151 H 0.4262 0.97961 0.12076 0.0
H152 H 0.4577 0.0075 0.10252 0.0
H153 H 0.51787 0.06228 0.10899 0.0
H154 H 0.54585 0.09014 0.13049 0.0
H155 H 0.62417 0.05627 0.10877 0.0
H156 H 0.59627 0.0278 0.08744 0.0
H157 H 0.51328 0.00785 0.10586 0.0
H158 H 0.53825 0.08059 0.06737 0.0
H159 H 0.56975 0.11527 0.05403 0.0
H160 H 0.62143 0.04747 0.03202 0.0
H161 H 0.58919 0.01258 0.0453 0.0
C162 C 0.48947 0.96747 0.05121 0.0
C163 C 0.50402 0.9456 0.0423 0.0
C164 C 0.48869 0.92489 0.03296 0.0
C165 C 0.45861 0.92596 0.0322 0.0
C166 C 0.44414 0.94877 0.04028 0.0
C167 C 0.45949 0.96937 0.04978 0.0
C168 C 0.50564 0.98706 0.06289 0.0
C169 C 0.52691 0.00429 0.05557 0.0
C170 C 0.50022 0.98877 0.08119 0.0
C171 C 0.47813 0.97133 0.08998 0.0
C172 C 0.47827 0.94159 0.08853 0.0
C173 C 0.45946 0.92543 0.0986 0.0
C174 C 0.44064 0.93866 0.11064 0.0
C175 C 0.43988 0.9685 0.11147 0.0
C176 C 0.45825 0.98458 0.10119 0.0
C177 C 0.55495 0.04303 0.09654 0.0
C178 C 0.54106 0.06091 0.10876 0.0
C179 C 0.55695 0.07686 0.12096 0.0
C180 C 0.58695 0.07524 0.12107 0.0
C181 C 0.60099 0.05787 0.10871 0.0
C182 C 0.58509 0.04177 0.09654 0.0
C183 C 0.53783 0.02457 0.08448 0.0
C184 C 0.51666 0.00727 0.09173 0.0
C185 C 0.54258 0.02349 0.06611 0.0
C186 C 0.56168 0.04408 0.05753 0.0
C187 C 0.55645 0.07317 0.05976 0.0
C188 C 0.57458 0.09295 0.0522 0.0
C189 C 0.59841 0.0841 0.04224 0.0
C190 C 0.60326 0.0549 0.03964 0.0
C191 C 0.58494 0.035 0.04721 0.0
H192 H 0.99157 0.6001 0.90579 0.0
H193 H 0.02176 0.62631 0.88576 0.0
H194 H 0.09702 0.58668 0.9081 0.0
H195 H 0.06631 0.55881 0.92718 0.0
H196 H 0.98591 0.54502 0.90386 0.0
H197 H 0.01545 0.61078 0.95138 0.0
H198 H 0.0553 0.63562 0.96617 0.0
H199 H 0.09289 0.55505 0.97961 0.0
H200 H 0.05308 0.53032 0.96492 0.0
H201 H 0.9833 0.47299 0.96481 0.0
H202 H 0.94875 0.44031 0.97805 0.0
H203 H 0.87905 0.49126 0.95811 0.0
H204 H 0.91344 0.52334 0.94484 0.0
H205 H 0.99336 0.53097 0.96833 0.0
H206 H 0.96621 0.46494 0.92369 0.0
H207 H 0.93713 0.43632 0.90334 0.0
H208 H 0.90118 0.51285 0.88167 0.0
H209 H 0.92949 0.54128 0.90252 0.0
C210 C 0.02658 0.57746 0.91802 0.0
C211 C 0.01461 0.59731 0.90653 0.0
C212 C 0.03204 0.61259 0.8952 0.0
C213 C 0.06196 0.60862 0.89519 0.0
C214 C 0.07406 0.58998 0.90751 0.0
C215 C 0.05652 0.57429 0.91865 0.0
C216 C 0.00744 0.55806 0.92777 0.0
C217 C 0.9871 0.54248 0.91802 0.0
C218 C 0.00994 0.55361 0.9461 0.0
C219 C 0.03158 0.56876 0.95692 0.0
C220 C 0.03205 0.59853 0.95779 0.0
C221 C 0.05464 0.61266 0.96629 0.0
C222 C 0.0771 0.59715 0.97389 0.0
C223 C 0.07583 0.56739 0.97374 0.0
C224 C 0.05312 0.5533 0.96544 0.0
C225 C 0.95084 0.50029 0.95367 0.0
C226 C 0.96055 0.47713 0.96345 0.0
C227 C 0.94085 0.45852 0.97098 0.0
C228 C 0.91123 0.46297 0.96884 0.0
C229 C 0.90173 0.48684 0.95959 0.0
C230 C 0.92133 0.50529 0.95209 0.0
C231 C 0.97123 0.51881 0.94443 0.0
C232 C 0.99184 0.53398 0.95422 0.0
C233 C 0.96923 0.52269 0.92605 0.0
C234 C 0.94992 0.50527 0.91469 0.0
C235 C 0.95157 0.47553 0.91484 0.0
C236 C 0.93514 0.4592 0.90309 0.0
C237 C 0.91692 0.47231 0.89085 0.0
C238 C 0.91471 0.50207 0.89108 0.0
C239 C 0.93108 0.51837 0.90287 0.0
H240 H 0.483 0.54889 0.21842 0.0
H241 H 0.45934 0.58918 0.23272 0.0
H242 H 0.38021 0.56768 0.20605 0.0
H243 H 0.40352 0.52633 0.19235 0.0
H244 H 0.47911 0.49549 0.2184 0.0
H245 H 0.46854 0.5648 0.17172 0.0
H246 H 0.44679 0.5956 0.14973 0.0
H247 H 0.3911 0.52686 0.13306 0.0
H248 H 0.41375 0.496 0.15465 0.0
H249 H 0.47925 0.42846 0.15353 0.0
H250 H 0.51132 0.39987 0.13511 0.0
H251 H 0.58457 0.44035 0.15984 0.0
H252 H 0.55232 0.46954 0.17783 0.0
H253 H 0.47456 0.48548 0.15336 0.0
H254 H 0.49944 0.41507 0.19486 0.0
H255 H 0.53487 0.38602 0.20955 0.0
H256 H 0.56748 0.46044 0.23701 0.0
H257 H 0.53349 0.48981 0.2209 0.0
C258 C 0.4452 0.53479 0.20406 0.0
C259 C 0.46039 0.55238 0.21591 0.0
C260 C 0.44689 0.57537 0.22409 0.0
C261 C 0.41805 0.58139 0.22041 0.0
C262 C 0.40254 0.56341 0.20898 0.0
C263 C 0.41591 0.54001 0.20106 0.0
C264 C 0.46049 0.51169 0.19454 0.0
C265 C 0.47824 0.49343 0.20416 0.0
C266 C 0.45885 0.5084 0.17603 0.0
C267 C 0.44274 0.52817 0.16473 0.0
C268 C 0.45127 0.5566 0.16352 0.0
C269 C 0.43872 0.57419 0.151 0.0
C270 C 0.41738 0.56362 0.1395 0.0
C271 C 0.40787 0.53552 0.14146 0.0
C272 C 0.42063 0.51789 0.15384 0.0
C273 C 0.51338 0.45101 0.16709 0.0
C274 C 0.50222 0.43099 0.15508 0.0
C275 C 0.52059 0.41448 0.14469 0.0
C276 C 0.5505 0.4178 0.14607 0.0
C277 C 0.56164 0.43744 0.15841 0.0
C278 C 0.54324 0.45397 0.16878 0.0
C279 C 0.49382 0.46995 0.17714 0.0
C280 C 0.47511 0.48726 0.16762 0.0
C281 C 0.49511 0.47276 0.1957 0.0
C282 C 0.51422 0.4547 0.20644 0.0
C283 C 0.51434 0.42518 0.20395 0.0
C284 C 0.53441 0.4085 0.21263 0.0
C285 C 0.55422 0.42082 0.22451 0.0
C286 C 0.55299 0.45027 0.22771 0.0
C287 C 0.53328 0.46706 0.21868 0.0
H288 H 0.52055 0.95051 0.39613 0.0
H289 H 0.4855 0.92316 0.37916 0.0
H290 H 0.41882 0.94986 0.41515 0.0
H291 H 0.45408 0.97818 0.4318 0.0
H292 H 0.52121 0.00722 0.40136 0.0
H293 H 0.51349 0.92318 0.43688 0.0
H294 H 0.4803 0.89051 0.45117 0.0
H295 H 0.45522 0.95737 0.4874 0.0
H296 H 0.48763 0.99008 0.47282 0.0
H297 H 0.55207 0.077 0.44586 0.0
H298 H 0.59015 0.10643 0.45915 0.0
H299 H 0.63823 0.03078 0.47114 0.0
H300 H 0.60032 0.00156 0.4579 0.0
H301 H 0.54257 0.99585 0.46491 0.0
H302 H 0.52222 0.06239 0.40242 0.0
H303 H 0.54655 0.09422 0.38216 0.0
H304 H 0.62852 0.06182 0.3992 0.0
H305 H 0.60416 0.02927 0.41903 0.0
C306 C 0.48994 0.96631 0.41522 0.0
C307 C 0.49841 0.9504 0.40041 0.0
C308 C 0.47838 0.93448 0.39085 0.0
C309 C 0.44939 0.93413 0.3959 0.0
C310 C 0.44097 0.9498 0.41091 0.0
C311 C 0.46109 0.96584 0.42047 0.0
C312 C 0.51137 0.98399 0.42474 0.0
C313 C 0.52582 0.00486 0.41528 0.0
C314 C 0.51759 0.98053 0.44283 0.0
C315 C 0.50242 0.95925 0.45351 0.0
C316 C 0.50114 0.93066 0.44807 0.0
C317 C 0.48236 0.91199 0.45628 0.0
C318 C 0.46516 0.92151 0.4703 0.0
C319 C 0.46845 0.94941 0.47673 0.0
C320 C 0.48689 0.96816 0.46837 0.0
C321 C 0.5736 0.03718 0.4508 0.0
C322 C 0.57073 0.06683 0.4515 0.0
C323 C 0.59233 0.08355 0.45913 0.0
C324 C 0.61709 0.07078 0.46599 0.0
C325 C 0.61943 0.04107 0.46576 0.0
C326 C 0.59777 0.0244 0.45832 0.0
C327 C 0.55216 0.01935 0.44153 0.0
C328 C 0.53787 -0.00166 0.45102 0.0
C329 C 0.5462 0.0226 0.4234 0.0
C330 C 0.56132 0.04357 0.41237 0.0
C331 C 0.54544 0.06221 0.40188 0.0
C332 C 0.55931 0.08037 0.39033 0.0
C333 C 0.58936 0.08041 0.38917 0.0
C334 C 0.60534 0.06239 0.40002 0.0
C335 C 0.59142 0.04388 0.4114 0.0
H336 H 0.02405 0.07908 0.71978 0.0
H337 H -0.00033 0.11902 0.73429 0.0
H338 H 0.91784 0.0856 0.71718 0.0
H339 H 0.94234 0.04571 0.70251 0.0
H340 H 0.01986 0.01834 0.72061 0.0
H341 H -0.00087 0.09767 0.68224 0.0
H342 H 0.97141 0.13133 0.66487 0.0
H343 H 0.92828 0.06125 0.63863 0.0
H344 H 0.95467 0.02803 0.65676 0.0
H345 H 0.01236 0.96628 0.65092 0.0
H346 H 0.04071 0.93927 0.62959 0.0
H347 H 0.11852 0.9669 0.65578 0.0
H348 H 0.08996 0.99472 0.67679 0.0
H349 H 0.01161 0.02144 0.65554 0.0
H350 H 0.03347 0.94248 0.68932 0.0
H351 H 0.06326 0.90644 0.70238 0.0
H352 H 0.09979 0.96945 0.73794 0.0
H353 H 0.07212 0.00617 0.72321 0.0
C354 C 0.98496 0.05971 0.70997 0.0
C355 C 0.00083 0.07997 0.71954 0.0
C356 C 0.98695 0.10276 0.72774 0.0
C357 C 0.95699 0.1053 0.7267 0.0
C358 C 0.94095 0.08392 0.71821 0.0
C359 C 0.95489 0.06127 0.70981 0.0
C360 C 0.00012 0.03901 0.69861 0.0
C361 C 0.01832 0.01903 0.70637 0.0
C362 C -0.00274 0.03953 0.68009 0.0
C363 C 0.97879 0.0603 0.67091 0.0
C364 C 0.98305 0.08963 0.67313 0.0
C365 C 0.96742 0.10885 0.66303 0.0
C366 C 0.94761 0.09907 0.65029 0.0
C367 C 0.94288 0.06968 0.64851 0.0
C368 C 0.95823 0.05056 0.65874 0.0
C369 C 0.04903 0.98248 0.66546 0.0
C370 C 0.03553 0.96641 0.65212 0.0
C371 C 0.05176 0.95075 0.64004 0.0
C372 C 0.08188 0.95089 0.64102 0.0
C373 C 0.09537 0.96656 0.65461 0.0
C374 C 0.07908 0.98227 0.6667 0.0
C375 C 0.03161 0.00063 0.67742 0.0
C376 C 0.01307 0.02037 0.66978 0.0
C377 C 0.03385 -0.00054 0.69602 0.0
C378 C 0.05103 0.97727 0.7049 0.0
C379 C 0.04838 0.94875 0.69963 0.0
C380 C 0.06507 0.92793 0.70747 0.0
C381 C 0.08395 0.93479 0.72142 0.0
C382 C 0.08594 0.96331 0.72707 0.0
C383 C 0.0698 0.98434 0.7188 0.0
C384 C 0.37518 0.66594 0.02764 0.0
O385 O 0.39654 0.66659 0.01733 0.0
Cd386 Cd 0.39345 0.67759 0.98669 0.0
O387 O 0.35014 0.67212 0.02208 0.0
Cd388 Cd 0.32778 0.68769 0.99405 0.0
C389 C 0.36988 0.74573 0.99092 0.0
O390 O 0.35233 0.65201 0.97633 0.0
O391 O 0.32793 0.68236 0.96161 0.0
O392 O 0.28604 0.66299 0.00533 0.0
C393 C 0.34258 0.65973 0.96159 0.0
O394 O 0.38941 0.72902 0.98539 0.0
C395 C 0.26785 0.68085 -0.00018 0.0
O396 O 0.34602 0.7361 0.99628 0.0
O397 O 0.27764 0.7025 0.99211 0.0
C398 C 0.37477 0.86369 0.22492 0.0
O399 O 0.3956 0.86478 0.23573 0.0
Cd400 Cd 0.39448 0.84739 0.26502 0.0
O401 O 0.35027 0.85444 0.22958 0.0
Cd402 Cd 0.32729 0.83792 0.25726 0.0
C403 C 0.36949 0.77971 0.25706 0.0
O404 O 0.35282 0.8692 0.27719 0.0
O405 O 0.32792 0.83714 0.28994 0.0
O406 O 0.285 0.86616 0.25133 0.0
C407 C 0.3439 0.85881 0.29141 0.0
O408 O 0.39027 0.79587 0.26147 0.0
C409 C 0.26746 0.84559 0.25182 0.0
O410 O 0.34459 0.78974 0.25429 0.0
O411 O 0.2779 0.82111 0.2544 0.0
C412 C 0.1819 0.88249 0.46699 0.0
O413 O 0.18512 0.90563 0.47552 0.0
Cd414 Cd 0.20035 0.90724 0.50558 0.0
O415 O 0.1869 0.85885 0.47434 0.0
Cd416 Cd 0.20268 0.84061 0.50341 0.0
C417 C 0.26595 0.8744 0.5017 0.0
O418 O 0.17135 0.87265 0.52003 0.0
O419 O 0.20063 0.84784 0.53549 0.0
O420 O 0.17261 0.80189 0.4927 0.0
C421 C 0.17972 0.86496 0.53511 0.0
O422 O 0.25148 0.89683 0.50474 0.0
C423 C 0.18577 0.78262 0.50093 0.0
O424 O 0.25351 0.85055 0.4997 0.0
O425 O 0.20741 0.79009 0.51006 0.0
C426 C 0.14107 0.65643 0.77777 0.0
O427 O 0.13434 0.63714 0.76667 0.0
Cd428 Cd 0.1505 0.63581 0.73697 0.0
O429 O 0.15589 0.67779 0.77316 0.0
Cd430 Cd 0.17626 0.69725 0.74545 0.0
C431 C 0.22347 0.64362 0.74404 0.0
O432 O 0.1379 0.68111 0.726 0.0
O433 O 0.17547 0.69645 0.71293 0.0
O434 O 0.15856 0.7417 0.75776 0.0
C435 C 0.15003 0.6872 0.71168 0.0
O436 O 0.20227 0.62838 0.73911 0.0
C437 C 0.17858 0.75689 0.75172 0.0
O438 O 0.22003 0.66969 0.74809 0.0
O439 O 0.19845 0.74418 0.74337 0.0
C440 C 0.88319 0.14501 0.47506 0.0
O441 O 0.88362 0.12652 0.48706 0.0
Cd442 Cd 0.86759 0.13346 0.51668 0.0
O443 O 0.875 0.17035 0.47837 0.0
Cd444 Cd 0.8588 0.19833 0.50464 0.0
C445 C 0.79952 0.15746 0.5076 0.0
O446 O 0.88975 0.17637 0.526 0.0
O447 O 0.85707 0.20312 0.53724 0.0
O448 O 0.88825 0.2384 0.49643 0.0
C449 C 0.87882 0.18748 0.53966 0.0
O450 O 0.8156 0.13847 0.51419 0.0
C451 C 0.86791 0.25631 0.49648 0.0
O452 O 0.80998 0.18063 0.50211 0.0
O453 O 0.84294 0.24697 0.49968 0.0
C454 C 0.87696 0.37584 0.71575 0.0
O455 O 0.89683 0.37899 0.7271 0.0
Cd456 Cd 0.89318 0.36602 0.75737 0.0
O457 O 0.8525 0.36623 0.72014 0.0
Cd458 Cd 0.82856 0.35149 0.74777 0.0
C459 C 0.8734 0.29619 0.7525 0.0
O460 O 0.84968 0.38734 0.76713 0.0
O461 O 0.82752 0.35374 0.78029 0.0
O462 O 0.78612 0.3767 0.73813 0.0
C463 C 0.84036 0.3774 0.7814 0.0
O464 O 0.89179 0.31416 0.75812 0.0
C465 C 0.76872 0.35654 0.74084 0.0
O466 O 0.84916 0.3042 0.74664 0.0
O467 O 0.7794 0.33336 0.74612 0.0
C468 C 0.65189 0.37031 0.97554 0.0
O469 O 0.64911 0.39052 0.98663 0.0
Cd470 Cd 0.66357 0.38868 0.0167 0.0
O471 O 0.66222 0.34651 0.98024 0.0
Cd472 Cd 0.67937 0.32457 0.00812 0.0
C473 C 0.73445 0.37053 0.01098 0.0
O474 O 0.64327 0.34568 0.02695 0.0
O475 O 0.67773 0.32543 0.04081 0.0
O476 O 0.65387 0.2823 -0.00126 0.0
C477 C 0.65354 0.33768 0.04147 0.0
O478 O 0.71581 0.3887 0.01591 0.0
C479 C 0.67404 0.26505 0.00197 0.0
O480 O 0.72695 0.34552 0.00642 0.0
O481 O 0.69757 0.27567 0.00739 0.0
C482 C 0.6785 0.18822 0.29045 0.0
O483 O 0.66341 0.20613 0.28247 0.0
Cd484 Cd 0.69546 0.20536 0.25637 0.0
O485 O 0.70137 0.18063 0.28291 0.0
Cd486 Cd 0.70417 0.20934 0.25367 0.0
C487 C 0.75788 0.1802 0.25602 0.0
O488 O 0.66431 0.18843 0.23485 0.0
O489 O 0.70665 0.18424 0.22418 0.0
O490 O 0.68049 0.25299 0.26588 0.0
C491 C 0.67992 0.18011 0.22223 0.0
O492 O 0.73418 0.16732 0.25732 0.0
C493 C 0.6903 0.26922 0.2542 0.0
O494 O 0.75675 0.20675 0.25401 0.0
O495 O 0.70709 0.25819 0.24293 0.0
C496 C 0.1106 0.87198 0.28151 0.0
C497 C 0.09228 0.8844 0.26917 0.0
C498 C 0.13758 0.86172 0.27652 0.0
C499 C 0.14613 0.86353 0.2587 0.0
C500 C 0.12661 0.87362 0.24591 0.0
C501 C 0.09996 0.88435 0.25135 0.0
C502 C 0.15787 0.85145 0.29061 0.0
C503 C 0.13463 0.87502 0.22672 0.0
C504 C 0.22533 0.87778 0.25361 0.0
C505 C 0.23621 0.85036 0.251 0.0
C506 C 0.19585 0.88243 0.2554 0.0
C507 C 0.17673 0.85914 0.25416 0.0
C508 C 0.18741 0.83165 0.25033 0.0
C509 C 0.21716 0.8275 0.24901 0.0
C510 C 0.18535 0.91207 0.25967 0.0
C511 C 0.16758 0.8065 0.2484 0.0
H512 H 0.10477 0.8723 0.29532 0.0
H513 H 0.08563 0.89381 0.24181 0.0
H514 H 0.1677 0.83094 0.28663 0.0
H515 H 0.17552 0.86703 0.29243 0.0
H516 H 0.14699 0.84874 0.30347 0.0
H517 H 0.11549 0.87787 0.21816 0.0
H518 H 0.14929 0.89321 0.22471 0.0
H519 H 0.14611 0.85548 0.22247 0.0
H520 H 0.23997 0.89551 0.25513 0.0
H521 H 0.2255 0.80629 0.24681 0.0
H522 H 0.17548 0.91252 0.27295 0.0
H523 H 0.1686 0.91848 0.25012 0.0
H524 H 0.2029 0.92799 0.25947 0.0
H525 H 0.15927 0.80063 0.26152 0.0
H526 H 0.17864 0.78773 0.24258 0.0
H527 H 0.14885 0.81184 0.24002 0.0
C528 C 0.1069 0.63238 0.51277 0.0
C529 C 0.07871 0.6405 0.51701 0.0
C530 C 0.12732 0.65253 0.50767 0.0
C531 C 0.11969 0.68156 0.5075 0.0
C532 C 0.09111 0.68978 0.51115 0.0
C533 C 0.07087 0.6691 0.51541 0.0
C534 C 0.15727 0.64283 0.5031 0.0
C535 C 0.08214 0.7206 0.51139 0.0
C536 C 0.17346 0.73956 0.51761 0.0
C537 C 0.17407 0.75372 0.50156 0.0
C538 C 0.15696 0.71496 0.51953 0.0
C539 C 0.1417 0.7038 0.50482 0.0
C540 C 0.14459 0.71656 0.48816 0.0
C541 C 0.16022 0.74185 0.48682 0.0
C542 C 0.15385 0.70246 0.53762 0.0
C543 C 0.12983 0.70447 0.472 0.0
H544 H 0.11343 0.61045 0.51401 0.0
H545 H 0.04897 0.67557 0.51796 0.0
H546 H 0.16528 0.65404 0.49134 0.0
H547 H 0.17201 0.6479 0.51419 0.0
H548 H 0.15819 0.61961 0.50048 0.0
H549 H 0.05914 0.72342 0.51477 0.0
H550 H 0.09525 0.73264 0.52117 0.0
H551 H 0.08594 0.73011 0.49835 0.0
H552 H 0.18404 0.74894 0.52903 0.0
H553 H 0.16096 0.75277 0.47435 0.0
H554 H 0.158 0.67932 0.53717 0.0
H555 H 0.13151 0.70555 0.54227 0.0
H556 H 0.16868 0.71243 0.54738 0.0
H557 H 0.13189 0.68101 0.4715 0.0
H558 H 0.13878 0.71329 0.4597 0.0
H559 H 0.10664 0.7096 0.47247 0.0
C560 C 0.37559 0.56478 0.75684 0.0
C561 C 0.37576 0.55588 0.77438 0.0
C562 C 0.35284 0.58109 0.75026 0.0
C563 C 0.32977 0.58842 0.76148 0.0
C564 C 0.33025 0.58016 0.77932 0.0
C565 C 0.3533 0.56413 0.78556 0.0
C566 C 0.35312 0.5898 0.73121 0.0
C567 C 0.30604 0.58759 0.79172 0.0
C568 C 0.27569 0.64623 0.75189 0.0
C569 C 0.25191 0.63016 0.74631 0.0
C570 C 0.30185 0.63307 0.75595 0.0
C571 C 0.30413 0.6032 0.75451 0.0
C572 C 0.28068 0.58705 0.74806 0.0
C573 C 0.2549 0.60074 0.74397 0.0
C574 C 0.32657 0.65099 0.76258 0.0
C575 C 0.28226 0.55511 0.7464 0.0
H576 H 0.39287 0.55841 0.74814 0.0
H577 H 0.35369 0.55792 0.79924 0.0
H578 H 0.33557 0.57881 0.72394 0.0
H579 H 0.34919 0.61293 0.73018 0.0
H580 H 0.37377 0.5846 0.72467 0.0
H581 H 0.3102 0.58033 0.80534 0.0
H582 H 0.30261 0.61087 0.7921 0.0
H583 H 0.28583 0.57768 0.78691 0.0
H584 H 0.27366 0.66901 0.75359 0.0
H585 H 0.23673 0.58814 0.73956 0.0
H586 H 0.34664 0.64507 0.75564 0.0
H587 H 0.33005 0.64712 0.7768 0.0
H588 H 0.32261 0.67402 0.76081 0.0
H589 H 0.30157 0.54864 0.73887 0.0
H590 H 0.26303 0.54594 0.73979 0.0
H591 H 0.28416 0.54582 0.7597 0.0
C592 C 0.44855 0.8744 0.02971 0.0
C593 C 0.44243 0.90201 0.02432 0.0
C594 C 0.43351 0.85117 0.02271 0.0
C595 C 0.41202 0.85565 0.00982 0.0
C596 C 0.40565 0.88353 0.00432 0.0
C597 C 0.42082 0.90652 0.01179 0.0
C598 C 0.44068 0.8218 0.02914 0.0
C599 C 0.38315 0.88899 0.99044 0.0
C600 C 0.39949 0.78807 0.98381 0.0
C601 C 0.37654 0.77623 0.99303 0.0
C602 C 0.40965 0.8153 0.98806 0.0
C603 C 0.39685 0.83074 0.00208 0.0
C604 C 0.37225 0.81982 0.01049 0.0
C605 C 0.36222 0.79271 0.00575 0.0
C606 C 0.43553 0.82649 0.97852 0.0
C607 C 0.3581 0.83558 0.02557 0.0
H608 H 0.46495 0.87102 0.03963 0.0
H609 H 0.41616 0.92795 0.00764 0.0
H610 H 0.42114 0.81149 0.03434 0.0
H611 H 0.44857 0.80846 0.01803 0.0
H612 H 0.45731 0.82214 0.03966 0.0
H613 H 0.38034 0.91197 0.9879 0.0
H614 H 0.38924 0.87815 0.97794 0.0
H615 H 0.36225 0.88003 0.99451 0.0
H616 H 0.41034 0.77557 0.97376 0.0
H617 H 0.3444 0.78369 0.01289 0.0
H618 H 0.45468 0.82495 0.98717 0.0
H619 H 0.4326 0.84918 0.97527 0.0
H620 H 0.43985 0.81434 0.96617 0.0
H621 H 0.37199 0.83433 0.03743 0.0
H622 H 0.3368 0.82651 0.02879 0.0
H623 H 0.3554 0.85834 0.02248 0.0
C624 C 0.12985 0.60361 0.97354 0.0
C625 C 0.10319 0.61175 0.98033 0.0
C626 C 0.15496 0.6177 0.97872 0.0
C627 C 0.15339 0.64022 0.99122 0.0
C628 C 0.12653 0.64832 -0.00167 0.0
C629 C 0.10158 0.63414 0.99262 0.0
C630 C 0.18312 0.60869 0.97059 0.0
C631 C 0.1242 0.67186 0.01192 0.0
C632 C 0.22638 0.65343 0.01131 0.0
C633 C 0.23681 0.67485 0.00045 0.0
C634 C 0.19809 0.64367 0.00959 0.0
C635 C 0.18014 0.65524 0.99645 0.0
C636 C 0.18989 0.67836 0.9864 0.0
C637 C 0.2181 0.68808 0.98864 0.0
C638 C 0.18822 0.61948 0.02087 0.0
C639 C 0.17151 0.6911 0.97213 0.0
H640 H 0.13095 0.58656 0.96383 0.0
H641 H 0.08087 0.64034 0.99785 0.0
H642 H 0.19318 0.62695 0.96392 0.0
H643 H 0.19817 0.60167 0.981 0.0
H644 H 0.18048 0.5911 0.96082 0.0
H645 H 0.10183 0.67494 0.01656 0.0
H646 H 0.13806 0.66713 0.02342 0.0
H647 H 0.13193 0.69206 0.00634 0.0
H648 H 0.24069 0.64341 0.02063 0.0
H649 H 0.22607 0.70471 0.98025 0.0
H650 H 0.18801 0.59957 0.01289 0.0
H651 H 0.16606 0.62322 0.02564 0.0
H652 H 0.20256 0.61636 0.0324 0.0
H653 H 0.16996 0.67593 0.96086 0.0
H654 H 0.18053 0.71134 0.96729 0.0
H655 H 0.14942 0.69505 0.97693 0.0
C656 C 0.3941 0.62768 0.21561 0.0
C657 C 0.40523 0.60784 0.22734 0.0
C658 C 0.386 0.65478 0.22153 0.0
C659 C 0.38866 0.66186 0.23965 0.0
C660 C 0.39825 0.64124 0.2517 0.0
C661 C 0.40679 0.6145 0.24534 0.0
C662 C 0.37628 0.67633 0.20825 0.0
C663 C 0.40071 0.64784 0.27115 0.0
C664 C 0.40234 0.73935 0.2503 0.0
C665 C 0.37465 0.74913 0.25412 0.0
C666 C 0.40723 0.71083 0.24587 0.0
C667 C 0.38395 0.69155 0.24564 0.0
C668 C 0.35615 0.70103 0.25023 0.0
C669 C 0.35175 0.72983 0.25423 0.0
C670 C 0.43713 0.70156 0.2408 0.0
C671 C 0.33098 0.68089 0.25052 0.0
H672 H 0.39323 0.62252 0.20166 0.0
H673 H 0.41531 0.59898 0.25437 0.0
H674 H 0.35561 0.68596 0.21232 0.0
H675 H 0.39228 0.69372 0.2076 0.0
H676 H 0.37365 0.66689 0.19485 0.0
H677 H 0.40496 0.62853 0.27895 0.0
H678 H 0.41849 0.66308 0.2735 0.0
H679 H 0.38074 0.65799 0.27604 0.0
H680 H 0.42007 0.75422 0.25011 0.0
H681 H 0.33034 0.73729 0.25735 0.0
H682 H 0.43712 0.69357 0.22698 0.0
H683 H 0.44429 0.68388 0.24923 0.0
H684 H 0.45297 0.71908 0.24201 0.0
H685 H 0.32632 0.67303 0.23698 0.0
H686 H 0.31133 0.69111 0.25587 0.0
H687 H 0.3362 0.66214 0.2586 0.0
C688 C 0.43453 0.90239 0.49434 0.0
C689 C 0.44066 0.90437 0.47636 0.0
C690 C 0.40794 0.89208 0.49999 0.0
C691 C 0.38696 0.88423 0.4873 0.0
C692 C 0.394 0.88398 0.46918 0.0
C693 C 0.42089 0.89393 0.46394 0.0
C694 C 0.40147 0.89194 0.51944 0.0
C695 C 0.37218 0.87605 0.45521 0.0
C696 C 0.31479 0.85236 0.49905 0.0
C697 C 0.29735 0.87663 0.49943 0.0
C698 C 0.34437 0.85447 0.49582 0.0
C699 C 0.35651 0.88139 0.49257 0.0
C700 C 0.33909 0.90597 0.49333 0.0
C701 C 0.30982 0.9033 0.49689 0.0
C702 C 0.36246 0.82792 0.49548 0.0
C703 C 0.35115 0.93509 0.48976 0.0
H704 H 0.44997 0.91026 0.50395 0.0
H705 H 0.4255 0.89571 0.45001 0.0
H706 H 0.38793 0.91055 0.52287 0.0
H707 H 0.38936 0.8726 0.52296 0.0
H708 H 0.42136 0.89306 0.52752 0.0
H709 H 0.38214 0.87321 0.44204 0.0
H710 H 0.36091 0.8562 0.45864 0.0
H711 H 0.35581 0.89308 0.45435 0.0
H712 H 0.30532 0.83169 0.50114 0.0
H713 H 0.29652 0.92217 0.49713 0.0
H714 H 0.3819 0.8309 0.50378 0.0
H715 H 0.36979 0.82345 0.48185 0.0
H716 H 0.35048 0.80916 0.5002 0.0
H717 H 0.36905 0.93991 0.49899 0.0
H718 H 0.33476 0.95208 0.49113 0.0
H719 H 0.35993 0.93565 0.47621 0.0
C720 C 0.1294 0.91759 0.73601 0.0
C721 C 0.10148 0.91214 0.72977 0.0
C722 C 0.1466 0.89571 0.74269 0.0
C723 C 0.1361 0.86756 0.74236 0.0
C724 C 0.10772 0.86205 0.73655 0.0
C725 C 0.09059 0.88447 0.73082 0.0
C726 C 0.17624 0.90276 0.7495 0.0
C727 C 0.09569 0.83227 0.7357 0.0
C728 C 0.18185 0.80243 0.73608 0.0
C729 C 0.17567 0.78794 0.75156 0.0
C730 C 0.17112 0.82981 0.7334 0.0
C731 C 0.15484 0.84322 0.74685 0.0
C732 C 0.15201 0.8301 0.76339 0.0
C733 C 0.16182 0.8022 0.76542 0.0
C734 C 0.17438 0.84289 0.71549 0.0
C735 C 0.13648 0.84455 0.77843 0.0
H736 H 0.13827 0.93877 0.73527 0.0
H737 H 0.06871 0.88007 0.72679 0.0
H738 H 0.18258 0.88872 0.76046 0.0
H739 H 0.19199 0.89989 0.73873 0.0
H740 H 0.17754 0.92517 0.75417 0.0
H741 H 0.07365 0.83155 0.73009 0.0
H742 H 0.1097 0.81845 0.72749 0.0
H743 H 0.09508 0.82317 0.74907 0.0
H744 H 0.19253 0.79133 0.72535 0.0
H745 H 0.15739 0.79105 0.7775 0.0
H746 H 0.18176 0.86516 0.71679 0.0
H747 H 0.15323 0.84312 0.70873 0.0
H748 H 0.18979 0.83099 0.70706 0.0
H749 H 0.14192 0.86746 0.77911 0.0
H750 H 0.14183 0.83475 0.79125 0.0
H751 H 0.11299 0.84275 0.77633 0.0
C752 C 0.60211 0.39665 0.75397 0.0
C753 C 0.60292 0.40571 0.77164 0.0
C754 C 0.6265 0.38479 0.74591 0.0
C755 C 0.6522 0.3823 0.75575 0.0
C756 C 0.65264 0.3902 0.77381 0.0
C757 C 0.62795 0.40157 0.78154 0.0
C758 C 0.62509 0.3761 0.72673 0.0
C759 C 0.67958 0.38782 0.78484 0.0
C760 C 0.71839 0.33956 0.74495 0.0
C761 C 0.73739 0.36122 0.74025 0.0
C762 C 0.68942 0.34554 0.74833 0.0
C763 C 0.6795 0.37383 0.74719 0.0
C764 C 0.69794 0.39514 0.74078 0.0
C765 C 0.72666 0.38852 0.73729 0.0
C766 C 0.67015 0.32208 0.75461 0.0
C767 C 0.6882 0.42557 0.73931 0.0
H768 H 0.58277 0.39978 0.74626 0.0
H769 H 0.62843 0.40783 0.79533 0.0
H770 H 0.63627 0.39215 0.71872 0.0
H771 H 0.63606 0.35549 0.72448 0.0
H772 H 0.60261 0.37434 0.72193 0.0
H773 H 0.67598 0.39398 0.79883 0.0
H774 H 0.68781 0.36575 0.78436 0.0
H775 H 0.69652 0.40172 0.77944 0.0
H776 H 0.72645 0.31829 0.747 0.0
H777 H 0.74113 0.40529 0.73343 0.0
H778 H 0.64839 0.32392 0.74877 0.0
H779 H 0.6679 0.32375 0.76913 0.0
H780 H 0.67899 0.30079 0.75129 0.0
H781 H 0.66702 0.42673 0.73267 0.0
H782 H 0.70374 0.43866 0.73192 0.0
H783 H 0.68576 0.43496 0.75271 0.0
C784 C 0.62469 0.13002 0.04442 0.0
C785 C 0.61757 0.10569 0.03453 0.0
C786 C 0.63854 0.15296 0.03668 0.0
C787 C 0.64605 0.1513 0.01865 0.0
C788 C 0.64132 0.12581 0.00899 0.0
C789 C 0.62685 0.10331 0.01702 0.0
C790 C 0.64322 0.17971 0.04752 0.0
C791 C 0.64988 0.12289 0.98991 0.0
C792 C 0.64092 0.22392 -0.00096 0.0
C793 C 0.66883 0.23412 0.00185 0.0
C794 C 0.63371 0.19593 0.00304 0.0
C795 C 0.65508 0.1776 0.0097 0.0
C796 C 0.68394 0.18681 0.01062 0.0
C797 C 0.69048 0.21516 0.00684 0.0
C798 C 0.60264 0.18698 0.00183 0.0
C799 C 0.70749 0.16749 0.01697 0.0
H800 H 0.61836 0.13159 0.05812 0.0
H801 H 0.62154 0.08448 0.00931 0.0
H802 H 0.66594 0.18652 0.04677 0.0
H803 H 0.62985 0.19709 0.04217 0.0
H804 H 0.63759 0.17692 0.06159 0.0
H805 H 0.65142 0.10027 0.98571 0.0
H806 H 0.63354 0.13329 0.98154 0.0
H807 H 0.67076 0.1334 0.9875 0.0
H808 H 0.62415 0.23834 0.99494 0.0
H809 H 0.71221 0.22279 0.00875 0.0
H810 H 0.59386 0.18469 0.01529 0.0
H811 H 0.60066 0.1661 0.99503 0.0
H812 H 0.58929 0.20263 0.99469 0.0
H813 H 0.70691 0.16652 0.03154 0.0
H814 H 0.729 0.17526 0.01304 0.0
H815 H 0.7045 0.1456 0.01171 0.0
C816 C 0.8993 0.105 0.28815 0.0
C817 C 0.91074 0.08582 0.27579 0.0
C818 C 0.87648 0.12284 0.28367 0.0
C819 C 0.86505 0.12155 0.26638 0.0
C820 C 0.87778 0.10358 0.25353 0.0
C821 C 0.90041 0.08572 0.25844 0.0
C822 C 0.86333 0.14156 0.29778 0.0
C823 C 0.86645 0.10201 0.2349 0.0
C824 C 0.7856 0.13658 0.26278 0.0
C825 C 0.78539 0.16495 0.25754 0.0
C826 C 0.81145 0.12212 0.26537 0.0
C827 C 0.83773 0.1363 0.26246 0.0
C828 C 0.8377 0.16467 0.25665 0.0
C829 C 0.81145 0.17878 0.25436 0.0
C830 C 0.81062 0.09189 0.27171 0.0
C831 C 0.86534 0.18026 0.2532 0.0
H832 H 0.90708 0.10488 0.30162 0.0
H833 H 0.90948 0.07106 0.24884 0.0
H834 H 0.86061 0.1635 0.29298 0.0
H835 H 0.84171 0.13343 0.3011 0.0
H836 H 0.87651 0.14225 0.31 0.0
H837 H 0.88114 0.09014 0.22598 0.0
H838 H 0.84533 0.09118 0.23475 0.0
H839 H 0.86315 0.12361 0.22965 0.0
H840 H 0.76552 0.1258 0.26527 0.0
H841 H 0.81136 0.20068 0.25021 0.0
H842 H 0.82139 0.09054 0.28473 0.0
H843 H 0.82245 0.07778 0.26246 0.0
H844 H 0.78837 0.08377 0.27299 0.0
H845 H 0.87754 0.18298 0.26568 0.0
H846 H 0.86159 0.20152 0.2475 0.0
H847 H 0.87901 0.1677 0.24404 0.0
C848 C 0.90794 0.42235 0.49581 0.0
C849 C 0.90687 0.43029 0.51365 0.0
C850 C 0.89847 0.39544 0.49016 0.0
C851 C 0.88854 0.37594 0.50276 0.0
C852 C 0.88623 0.38442 0.52067 0.0
C853 C 0.89519 0.41162 0.52585 0.0
C854 C 0.90045 0.38742 0.4709 0.0
C855 C 0.87618 0.36413 0.53457 0.0
C856 C 0.85088 0.30626 0.49296 0.0
C857 C 0.87355 0.28698 0.4949 0.0
C858 C 0.85572 0.33562 0.49417 0.0
C859 C 0.88372 0.34573 0.49782 0.0
C860 C 0.90689 0.32639 0.4988 0.0
C861 C 0.90154 0.29725 0.49713 0.0
C862 C 0.83066 0.35568 0.4925 0.0
C863 C 0.93704 0.33629 0.50289 0.0
H864 H 0.91688 0.43692 0.48638 0.0
H865 H 0.89471 0.41767 0.53968 0.0
H866 H 0.91867 0.37262 0.46886 0.0
H867 H 0.88068 0.37631 0.46645 0.0
H868 H 0.90386 0.40624 0.46253 0.0
H869 H 0.874 0.3746 0.5477 0.0
H870 H 0.85519 0.35476 0.53079 0.0
H871 H 0.89174 0.34643 0.53571 0.0
H872 H 0.82923 0.2984 0.49104 0.0
H873 H 0.91916 0.28245 0.49861 0.0
H874 H 0.83641 0.37399 0.4842 0.0
H875 H 0.82488 0.36419 0.50571 0.0
H876 H 0.8115 0.34501 0.48673 0.0
H877 H 0.94357 0.35312 0.49368 0.0
H878 H 0.9529 0.31873 0.50205 0.0
H879 H 0.93784 0.34557 0.5164 0.0
C880 C 0.66889 0.08278 0.46631 0.0
C881 C 0.64124 0.08817 0.47261 0.0
C882 C 0.6925 0.0978 0.47296 0.0
C883 C 0.68835 0.11853 0.48638 0.0
C884 C 0.66033 0.12464 0.49248 0.0
C885 C 0.63697 0.10943 0.48542 0.0
C886 C 0.722 0.09093 0.46591 0.0
C887 C 0.65518 0.1465 0.50683 0.0
C888 C 0.75611 0.12799 0.51305 0.0
C889 C 0.76882 0.15108 0.50466 0.0
C890 C 0.72867 0.11858 0.5082 0.0
C891 C 0.71378 0.13241 0.49451 0.0
C892 C 0.72556 0.15702 0.48692 0.0
C893 C 0.75296 0.16618 0.49216 0.0
C894 C 0.71658 0.09253 0.51682 0.0
C895 C 0.71033 0.17232 0.47227 0.0
H896 H 0.67204 0.06663 0.45619 0.0
H897 H 0.61551 0.1135 0.49027 0.0
H898 H 0.73263 0.11053 0.46133 0.0
H899 H 0.73552 0.08206 0.47655 0.0
H900 H 0.72129 0.07535 0.4548 0.0
H901 H 0.63197 0.15052 0.50898 0.0
H902 H 0.66476 0.13909 0.51935 0.0
H903 H 0.6658 0.1668 0.50358 0.0
H904 H 0.76808 0.11651 0.52293 0.0
H905 H 0.76259 0.18414 0.48568 0.0
H906 H 0.71742 0.07434 0.5074 0.0
H907 H 0.69379 0.09589 0.52041 0.0
H908 H 0.72878 0.08676 0.52884 0.0
H909 H 0.71165 0.15939 0.45997 0.0
H910 H 0.71998 0.19342 0.46978 0.0
H911 H 0.68727 0.1752 0.47536 0.0
C912 C 0.91981 0.13148 0.74422 0.0
C913 C 0.94299 0.13182 0.73256 0.0
C914 C 0.90616 0.15686 0.74933 0.0
C915 C 0.9156 0.18283 0.74222 0.0
C916 C 0.93887 0.1831 0.7303 0.0
C917 C 0.95243 0.15759 0.72575 0.0
C918 C 0.88177 0.15592 0.76231 0.0
C919 C 0.94923 0.21028 0.72216 0.0
C920 C 0.8683 0.24778 0.73916 0.0
C921 C 0.88121 0.26587 0.75167 0.0
C922 C 0.87828 0.21998 0.73655 0.0
C923 C 0.9013 0.20997 0.74697 0.0
C924 C 0.91299 0.22747 0.76048 0.0
C925 C 0.90303 0.25537 0.76253 0.0
C926 C 0.86556 0.2021 0.72183 0.0
C927 C 0.93711 0.21729 0.77211 0.0
H928 H 0.91258 0.11143 0.74943 0.0
H929 H 0.97008 0.15767 0.71649 0.0
H930 H 0.8867 0.16976 0.77387 0.0
H931 H 0.86191 0.16423 0.75617 0.0
H932 H 0.87756 0.13408 0.76696 0.0
H933 H 0.96718 0.20666 0.71282 0.0
H934 H 0.93136 0.22063 0.71501 0.0
H935 H 0.95656 0.2253 0.73262 0.0
H936 H 0.85143 0.25582 0.73073 0.0
H937 H 0.91278 0.26919 0.7724 0.0
H938 H 0.86028 0.18057 0.72653 0.0
H939 H 0.88155 0.19959 0.71113 0.0
H940 H 0.84586 0.21177 0.71623 0.0
H941 H 0.93238 0.19578 0.77709 0.0
H942 H 0.94093 0.23182 0.78353 0.0
H943 H 0.95717 0.21581 0.76434 0.0
C944 C 0.89247 0.43297 0.99329 0.0
C945 C 0.88993 0.44298 0.97605 0.0
C946 C 0.87039 0.41696 0.00081 0.0
C947 C 0.84524 0.41121 0.99088 0.0
C948 C 0.84345 0.41975 0.97312 0.0
C949 C 0.8659 0.43535 0.96591 0.0
C950 C 0.87329 0.40765 0.01966 0.0
C951 C 0.81704 0.41397 0.96204 0.0
C952 C 0.78555 0.36061 0.00268 0.0
C953 C 0.76459 0.37966 0.00884 0.0
C954 C 0.81297 0.3702 -0.00196 0.0
C955 C 0.81932 0.3995 -0.0006 0.0
C956 C 0.79896 0.41844 0.00677 0.0
C957 C 0.77192 0.40826 0.0115 0.0
C958 C 0.83442 0.34928 0.99064 0.0
C959 C 0.80489 0.44988 0.00843 0.0
H960 H 0.91106 0.43875 0.00116 0.0
H961 H 0.86425 0.4424 0.95241 0.0
H962 H 0.8598 0.42139 0.02823 0.0
H963 H 0.86566 0.38552 0.02112 0.0
H964 H 0.89582 0.40909 0.02442 0.0
H965 H 0.81991 0.42034 0.94813 0.0
H966 H 0.81152 0.39111 0.96225 0.0
H967 H 0.79855 0.42587 0.96759 0.0
H968 H 0.78021 0.33839 0.00081 0.0
H969 H 0.75603 0.42312 0.01643 0.0
H970 H 0.85618 0.35355 0.99602 0.0
H971 H 0.83551 0.3515 0.97614 0.0
H972 H 0.82844 0.32703 0.99356 0.0
H973 H 0.82576 0.45369 0.0151 0.0
H974 H 0.78789 0.4613 0.01589 0.0
H975 H 0.80627 0.45913 0.9951 0.0
C976 C 0.60481 0.41352 0.23523 0.0
C977 C 0.57683 0.40304 0.23274 0.0
C978 C 0.62698 0.39582 0.2411 0.0
C979 C 0.62124 0.3668 0.24392 0.0
C980 C 0.59288 0.3564 0.24218 0.0
C981 C 0.57097 0.37478 0.23699 0.0
C982 C 0.65672 0.40794 0.24351 0.0
C983 C 0.58585 0.32546 0.24489 0.0
C984 C 0.67568 0.30919 0.23533 0.0
C985 C 0.67894 0.29811 0.25222 0.0
C986 C 0.65838 0.333 0.23254 0.0
C987 C 0.6449 0.34647 0.2471 0.0
C988 C 0.65081 0.33723 0.26438 0.0
C989 C 0.66735 0.31271 0.26673 0.0
C990 C 0.65226 0.34189 0.21386 0.0
C991 C 0.638 0.35194 0.28027 0.0
H992 H 0.60976 0.43525 0.23193 0.0
H993 H 0.54929 0.36669 0.23574 0.0
H994 H 0.66722 0.39924 0.25541 0.0
H995 H 0.67011 0.40203 0.23199 0.0
H996 H 0.65633 0.43146 0.24467 0.0
H997 H 0.56266 0.32086 0.24306 0.0
H998 H 0.59815 0.31212 0.23542 0.0
H999 H 0.59222 0.31902 0.25833 0.0
H1000 H 0.6846 0.29785 0.2241 0.0
H1001 H 0.67019 0.3043 0.27983 0.0
H1002 H 0.65511 0.36509 0.21251 0.0
H1003 H 0.62961 0.33689 0.21049 0.0
H1004 H 0.66635 0.33088 0.20418 0.0
H1005 H 0.63866 0.37533 0.27881 0.0
H1006 H 0.64941 0.34622 0.29259 0.0
H1007 H 0.61519 0.34566 0.28158 0.0
C1008 C 0.11615 0.89214 0.36866 0.0
C1009 C 0.08726 0.89948 0.37119 0.0
C1010 C 0.13414 0.88628 0.38306 0.0
C1011 C 0.12289 0.88771 0.40034 0.0
C1012 C 0.09346 0.89374 0.40288 0.0
C1013 C 0.07609 0.89969 0.38832 0.0
C1014 C 0.1654 0.87982 0.37985 0.0
C1015 C 0.08056 0.89536 0.42109 0.0
C1016 C 0.16011 0.85811 0.4406 0.0
C1017 C 0.17035 0.88303 0.44879 0.0
C1018 C 0.1459 0.85901 0.42428 0.0
C1019 C 0.14203 0.8854 0.41595 0.0
C1020 C 0.15383 0.91033 0.42365 0.0
C1021 C 0.16775 0.90886 0.43999 0.0
C1022 C 0.13362 0.83198 0.41647 0.0
C1023 C 0.15039 0.93887 0.41509 0.0
H1024 H 0.12488 0.89158 0.35546 0.0
H1025 H 0.05399 0.90585 0.39051 0.0
H1026 H 0.1787 0.89776 0.38481 0.0
H1027 H 0.17203 0.86068 0.38715 0.0
H1028 H 0.17008 0.87641 0.36564 0.0
H1029 H 0.05688 0.89793 0.42072 0.0
H1030 H 0.08574 0.87592 0.42852 0.0
H1031 H 0.08989 0.91364 0.42849 0.0
H1032 H 0.1621 0.83803 0.44727 0.0
H1033 H 0.1759 0.92816 0.44611 0.0
H1034 H 0.13892 0.83008 0.40228 0.0
H1035 H 0.10989 0.83246 0.41754 0.0
H1036 H 0.14166 0.81285 0.4233 0.0
H1037 H 0.15694 0.93763 0.40108 0.0
H1038 H 0.16323 0.95566 0.42184 0.0
H1039 H 0.12748 0.94525 0.41539 0.0
C1040 C 0.09513 0.60934 0.62512 0.0
C1041 C 0.07367 0.62414 0.61611 0.0
C1042 C 0.10938 0.62171 0.6396 0.0
C1043 C 0.10205 0.64959 0.64511 0.0
C1044 C 0.0816 0.66523 0.63543 0.0
C1045 C 0.06754 0.65225 0.62107 0.0
C1046 C 0.13101 0.60431 0.64962 0.0
C1047 C 0.07351 0.69514 0.64077 0.0
C1048 C 0.11062 0.66525 0.69389 0.0
C1049 C 0.13698 0.67952 0.6945 0.0
C1050 C 0.09881 0.65592 0.67785 0.0
C1051 C 0.11362 0.66116 0.66198 0.0
C1052 C 0.13981 0.67632 0.66243 0.0
C1053 C 0.15126 0.68527 0.67872 0.0
C1054 C 0.07082 0.63976 0.67792 0.0
C1055 C 0.15604 0.68251 0.64576 0.0
H1056 H 0.09974 0.58751 0.62143 0.0
H1057 H 0.05121 0.66386 0.61397 0.0
H1058 H 0.15113 0.61648 0.65165 0.0
H1059 H 0.12238 0.59939 0.66282 0.0
H1060 H 0.13619 0.58402 0.64271 0.0
H1061 H 0.05985 0.7055 0.63072 0.0
H1062 H 0.06157 0.69481 0.65337 0.0
H1063 H 0.09301 0.70821 0.64297 0.0
H1064 H 0.09944 0.66078 0.70604 0.0
H1065 H 0.17157 0.6964 0.67911 0.0
H1066 H 0.07421 0.61799 0.67257 0.0
H1067 H 0.0549 0.65027 0.66929 0.0
H1068 H 0.06162 0.63817 0.69134 0.0
H1069 H 0.16335 0.66233 0.63957 0.0
H1070 H 0.17506 0.6962 0.64825 0.0
H1071 H 0.14179 0.6931 0.63615 0.0
C1072 C 0.3735 0.56083 0.87711 0.0
C1073 C 0.40025 0.568 0.87007 0.0
C1074 C 0.36135 0.57702 0.89083 0.0
C1075 C 0.3764 0.60084 0.89767 0.0
C1076 C 0.40269 0.609 0.89 0.0
C1077 C 0.41431 0.59247 0.8763 0.0
C1078 C 0.33314 0.5678 0.89857 0.0
C1079 C 0.41942 0.63424 0.89695 0.0
C1080 C 0.34032 0.65366 0.92875 0.0
C1081 C 0.35009 0.64429 0.94517 0.0
C1082 C 0.34823 0.63945 0.91312 0.0
C1083 C 0.36634 0.6154 0.91399 0.0
C1084 C 0.37586 0.60561 0.93055 0.0
C1085 C 0.36759 0.62015 0.94591 0.0
C1086 C 0.33763 0.65039 0.89569 0.0
C1087 C 0.39521 0.58003 0.93203 0.0
H1088 H 0.36236 0.54215 0.87217 0.0
H1089 H 0.43514 0.59797 0.87106 0.0
H1090 H 0.33679 0.55965 0.91203 0.0
H1091 H 0.31826 0.58609 0.89976 0.0
H1092 H 0.32264 0.55087 0.89052 0.0
H1093 H 0.43796 0.63943 0.88844 0.0
H1094 H 0.40536 0.65316 0.89802 0.0
H1095 H 0.42758 0.6297 0.91036 0.0
H1096 H 0.32671 0.67226 0.9281 0.0
H1097 H 0.37516 0.61271 0.95855 0.0
H1098 H 0.32665 0.63319 0.88816 0.0
H1099 H 0.35608 0.65739 0.88767 0.0
H1100 H 0.32256 0.66849 0.89731 0.0
H1101 H 0.38502 0.56131 0.92558 0.0
H1102 H 0.4001 0.57476 0.94594 0.0
H1103 H 0.4157 0.58401 0.92512 0.0
C1104 C 0.43702 0.89806 0.13153 0.0
C1105 C 0.42438 0.92189 0.12376 0.0
C1106 C 0.42485 0.88554 0.14637 0.0
C1107 C 0.39985 0.89753 0.1539 0.0
C1108 C 0.38567 0.92002 0.14533 0.0
C1109 C 0.3979 0.93165 0.13021 0.0
C1110 C 0.44017 0.861 0.15483 0.0
C1111 C 0.35904 0.93352 0.15298 0.0
C1112 C 0.36497 0.86043 0.19251 0.0
C1113 C 0.37935 0.87332 0.20676 0.0
C1114 C 0.37112 0.86818 0.17512 0.0
C1115 C 0.39154 0.88977 0.17207 0.0
C1116 C 0.40524 0.90355 0.18651 0.0
C1117 C 0.39925 0.89488 0.20365 0.0
C1118 C 0.35664 0.85258 0.16004 0.0
C1119 C 0.42666 0.92715 0.18386 0.0
H1120 H 0.45749 0.89026 0.12682 0.0
H1121 H 0.38742 0.94943 0.12399 0.0
H1122 H 0.45176 0.8687 0.16676 0.0
H1123 H 0.42463 0.84464 0.15903 0.0
H1124 H 0.45599 0.85096 0.14579 0.0
H1125 H 0.34819 0.94762 0.14343 0.0
H1126 H 0.3436 0.91714 0.15725 0.0
H1127 H 0.36503 0.94637 0.16479 0.0
H1128 H 0.34972 0.84359 0.19493 0.0
H1129 H 0.41017 0.90505 0.21468 0.0
H1130 H 0.3728 0.83987 0.15271 0.0
H1131 H 0.34717 0.86778 0.15065 0.0
H1132 H 0.33951 0.8381 0.16463 0.0
H1133 H 0.44577 0.91877 0.17686 0.0
H1134 H 0.43386 0.93694 0.19652 0.0
H1135 H 0.41714 0.94393 0.17558 0.0
C1136 C 0.07267 0.64781 0.87406 0.0
C1137 C 0.0797 0.62124 0.88102 0.0
C1138 C 0.08514 0.65718 0.85839 0.0
C1139 C 0.10559 0.63985 0.8497 0.0
C1140 C 0.11481 0.61436 0.85755 0.0
C1141 C 0.10155 0.60521 0.87299 0.0
C1142 C 0.07467 0.68447 0.85043 0.0
C1143 C 0.13704 0.59556 0.84889 0.0
C1144 C 0.10715 0.6375 0.79989 0.0
C1145 C 0.13142 0.65382 0.79618 0.0
C1146 C 0.09809 0.63365 0.81724 0.0
C1147 C 0.11405 0.64596 0.83129 0.0
C1148 C 0.13839 0.66282 0.82766 0.0
C1149 C 0.14664 0.66681 0.81008 0.0
C1150 C 0.07167 0.61596 0.82052 0.0
C1151 C 0.15619 0.67582 0.84232 0.0
H1152 H 0.05641 0.66076 0.8804 0.0
H1153 H 0.10713 0.58458 0.87808 0.0
H1154 H 0.09291 0.69733 0.8457 0.0
H1155 H 0.06083 0.67946 0.83887 0.0
H1156 H 0.06203 0.69744 0.85995 0.0
H1157 H 0.1452 0.57912 0.85797 0.0
H1158 H 0.12742 0.58472 0.83722 0.0
H1159 H 0.15541 0.60834 0.84424 0.0
H1160 H 0.09513 0.62769 0.78918 0.0
H1161 H 0.16551 0.67935 0.80725 0.0
H1162 H 0.05623 0.62807 0.82879 0.0
H1163 H 0.07766 0.59662 0.82783 0.0
H1164 H 0.06072 0.60937 0.80811 0.0
H1165 H 0.14239 0.6881 0.85153 0.0
H1166 H 0.1732 0.69003 0.83729 0.0
H1167 H 0.1665 0.65874 0.85001 0.0
C1168 C 0.40247 0.61018 0.12642 0.0
C1169 C 0.40707 0.58087 0.12449 0.0
C1170 C 0.39526 0.62684 0.11186 0.0
C1171 C 0.39252 0.61383 0.09502 0.0
C1172 C 0.39619 0.58416 0.09311 0.0
C1173 C 0.40355 0.5681 0.10782 0.0
C1174 C 0.39148 0.65843 0.11438 0.0
C1175 C 0.39341 0.56944 0.07538 0.0
C1176 C 0.35567 0.64832 0.05618 0.0
C1177 C 0.37928 0.65613 0.04592 0.0
C1178 C 0.35957 0.63579 0.07269 0.0
C1179 C 0.38771 0.63117 0.07909 0.0
C1180 C 0.41154 0.64052 0.06926 0.0
C1181 C 0.40704 0.65278 0.05277 0.0
C1182 C 0.33363 0.62607 0.08279 0.0
C1183 C 0.44189 0.63624 0.07572 0.0
H1184 H 0.40482 0.62015 0.13929 0.0
H1185 H 0.40759 0.5456 0.10609 0.0
H1186 H 0.40877 0.66977 0.10737 0.0
H1187 H 0.37078 0.66536 0.10861 0.0
H1188 H 0.39212 0.66495 0.12849 0.0
H1189 H 0.39503 0.546 0.07634 0.0
H1190 H 0.37253 0.57477 0.06919 0.0
H1191 H 0.41055 0.57694 0.06649 0.0
H1192 H 0.33413 0.65091 0.05103 0.0
H1193 H 0.4254 0.65907 0.04504 0.0
H1194 H 0.33512 0.63306 0.09677 0.0
H1195 H 0.3328 0.60254 0.0826 0.0
H1196 H 0.31331 0.63423 0.0771 0.0
H1197 H 0.4442 0.64413 0.08948 0.0
H1198 H 0.45785 0.64723 0.0674 0.0
H1199 H 0.44701 0.61325 0.07565 0.0
C1200 C 0.40218 0.93242 0.38006 0.0
C1201 C 0.42803 0.91913 0.3846 0.0
C1202 C 0.38436 0.92094 0.36683 0.0
C1203 C 0.39281 0.89578 0.35788 0.0
C1204 C 0.41765 0.88108 0.36341 0.0
C1205 C 0.43488 0.89287 0.37678 0.0
C1206 C 0.35776 0.93698 0.3615 0.0
C1207 C 0.42739 0.85415 0.35424 0.0
C1208 C 0.34451 0.85822 0.32445 0.0
C1209 C 0.35485 0.86918 0.30862 0.0
C1210 C 0.35602 0.86723 0.34073 0.0
C1211 C 0.37856 0.88735 0.34108 0.0
C1212 C 0.38866 0.89882 0.32514 0.0
C1213 C 0.37658 0.88972 0.30914 0.0
C1214 C 0.34447 0.8549 0.3575 0.0
C1215 C 0.4128 0.92022 0.32491 0.0
H1216 H 0.39672 0.95274 0.38601 0.0
H1217 H 0.45449 0.88216 0.38056 0.0
H1218 H 0.36184 0.94814 0.349 0.0
H1219 H 0.33955 0.92223 0.35917 0.0
H1220 H 0.35142 0.95298 0.37164 0.0
H1221 H 0.44491 0.84345 0.36154 0.0
H1222 H 0.40926 0.83912 0.35259 0.0
H1223 H 0.4353 0.85926 0.34089 0.0
H1224 H 0.3276 0.84245 0.32412 0.0
H1225 H 0.38467 0.89831 0.29696 0.0
H1226 H 0.33853 0.87215 0.36689 0.0
H1227 H 0.36131 0.84201 0.36394 0.0
H1228 H 0.32539 0.84125 0.35508 0.0
H1229 H 0.40713 0.93905 0.3331 0.0
H1230 H 0.41779 0.92739 0.3114 0.0
H1231 H 0.43247 0.9108 0.33067 0.0
C1232 C 0.09053 0.90927 0.62081 0.0
C1233 C 0.09898 0.93605 0.62724 0.0
C1234 C 0.10473 0.89633 0.60657 0.0
C1235 C 0.12798 0.91048 0.59861 0.0
C1236 C 0.13735 0.93697 0.60548 0.0
C1237 C 0.1227 0.94947 0.6197 0.0
C1238 C 0.09419 0.86799 0.59964 0.0
C1239 C 0.16213 0.95266 0.59737 0.0
C1240 C 0.17735 0.86901 0.56798 0.0
C1241 C 0.1665 0.87637 0.55141 0.0
C1242 C 0.16503 0.87991 0.5835 0.0
C1243 C 0.14127 0.89849 0.58238 0.0
C1244 C 0.13015 0.90586 0.56569 0.0
C1245 C 0.14293 0.89474 0.55041 0.0
C1246 C 0.17749 0.87167 0.60108 0.0
C1247 C 0.10475 0.92554 0.56397 0.0
H1248 H 0.07249 0.89861 0.62676 0.0
H1249 H 0.12915 0.9703 0.62446 0.0
H1250 H 0.08556 0.87044 0.58611 0.0
H1251 H 0.1122 0.85265 0.59884 0.0
H1252 H 0.0771 0.85894 0.60802 0.0
H1253 H 0.16818 0.97193 0.60512 0.0
H1254 H 0.18114 0.93861 0.5963 0.0
H1255 H 0.15628 0.95915 0.58384 0.0
H1256 H 0.19557 0.85481 0.56884 0.0
H1257 H 0.1344 0.90047 0.53764 0.0
H1258 H 0.16079 0.86145 0.60919 0.0
H1259 H 0.18479 0.89091 0.60839 0.0
H1260 H 0.19591 0.85686 0.59969 0.0
H1261 H 0.08603 0.91671 0.571 0.0
H1262 H 0.09857 0.92897 0.55002 0.0
H1263 H 0.10978 0.9464 0.57017 0.0
C1264 C 0.57155 0.38663 0.88387 0.0
C1265 C 0.58542 0.40624 0.87314 0.0
C1266 C 0.58449 0.37711 0.8994 0.0
C1267 C 0.61205 0.3873 0.90418 0.0
C1268 C 0.62709 0.40526 0.89263 0.0
C1269 C 0.61349 0.4147 0.87728 0.0
C1270 C 0.56765 0.3581 0.9114 0.0
C1271 C 0.6567 0.41619 0.89711 0.0
C1272 C 0.6259 0.39837 0.95293 0.0
C1273 C 0.64235 0.37449 0.95713 0.0
C1274 C 0.61605 0.40269 0.93575 0.0
C1275 C 0.62308 0.3828 0.92231 0.0
C1276 C 0.63998 0.3588 0.92634 0.0
C1277 C 0.6493 0.35481 0.94377 0.0
C1278 C 0.59783 0.42846 0.93204 0.0
C1279 C 0.64815 0.33737 0.91228 0.0
H1280 H 0.54975 0.38022 0.88078 0.0
H1281 H 0.62436 0.42962 0.86887 0.0
H1282 H 0.58122 0.34048 0.91619 0.0
H1283 H 0.56049 0.37053 0.9231 0.0
H1284 H 0.54841 0.349 0.90474 0.0
H1285 H 0.66721 0.42604 0.8856 0.0
H1286 H 0.65517 0.43239 0.9078 0.0
H1287 H 0.67054 0.39879 0.90195 0.0
H1288 H 0.62031 0.41364 0.96316 0.0
H1289 H 0.66212 0.33636 0.94689 0.0
H1290 H 0.57669 0.42175 0.92666 0.0
H1291 H 0.60829 0.4417 0.92196 0.0
H1292 H 0.59418 0.44178 0.944 0.0
H1293 H 0.62856 0.32758 0.90652 0.0
H1294 H 0.6621 0.32028 0.91747 0.0
H1295 H 0.65955 0.34808 0.90144 0.0
C1296 C 0.60703 0.07798 0.15129 0.0
C1297 C 0.60332 0.09041 0.13484 0.0
C1298 C 0.62099 0.09269 0.16501 0.0
C1299 C 0.63121 0.12053 0.16216 0.0
C1300 C 0.62791 0.13294 0.14538 0.0
C1301 C 0.61396 0.11763 0.13186 0.0
C1302 C 0.62423 0.07868 0.18267 0.0
C1303 C 0.63839 0.16261 0.14188 0.0
C1304 C 0.63824 0.16712 0.20307 0.0
C1305 C 0.66778 0.16584 0.20645 0.0
C1306 C 0.6262 0.15311 0.1884 0.0
C1307 C 0.64409 0.13705 0.17701 0.0
C1308 C 0.67399 0.1359 0.18025 0.0
C1309 C 0.68553 0.15051 0.19488 0.0
C1310 C 0.59427 0.15515 0.18525 0.0
C1311 C 0.69366 0.1187 0.1685 0.0
H1312 H 0.59862 0.05687 0.15345 0.0
H1313 H 0.61084 0.12708 0.11906 0.0
H1314 H 0.64706 0.07891 0.18685 0.0
H1315 H 0.61192 0.09071 0.19276 0.0
H1316 H 0.61652 0.05638 0.18241 0.0
H1317 H 0.63534 0.16865 0.12791 0.0
H1318 H 0.62664 0.178 0.15037 0.0
H1319 H 0.66148 0.16449 0.14526 0.0
H1320 H 0.62448 0.17912 0.21191 0.0
H1321 H 0.70838 0.14942 0.19747 0.0
H1322 H 0.58439 0.13383 0.18625 0.0
H1323 H 0.58996 0.16282 0.17175 0.0
H1324 H 0.5836 0.16967 0.19483 0.0
H1325 H 0.68757 0.09597 0.16893 0.0
H1326 H 0.71653 0.12078 0.17248 0.0
H1327 H 0.69138 0.12549 0.15465 0.0
C1328 C 0.94687 0.10195 0.38076 0.0
C1329 C 0.9319 0.07825 0.37409 0.0
C1330 C 0.93769 0.11626 0.39605 0.0
C1331 C 0.91262 0.10701 0.40468 0.0
C1332 C 0.89607 0.08472 0.39717 0.0
C1333 C 0.90602 0.07044 0.38206 0.0
C1334 C 0.95601 0.13987 0.40365 0.0
C1335 C 0.86888 0.07461 0.4058 0.0
C1336 C 0.9095 0.11288 0.45442 0.0
C1337 C 0.89177 0.13656 0.45701 0.0
C1338 C 0.91689 0.10354 0.43745 0.0
C1339 C 0.90585 0.11791 0.42265 0.0
C1340 C 0.88813 0.14202 0.42514 0.0
C1341 C 0.88151 0.15126 0.44233 0.0
C1342 C 0.93631 0.07805 0.43538 0.0
C1343 C 0.87559 0.15755 0.40966 0.0
H1344 H 0.96648 0.10863 0.37443 0.0
H1345 H 0.89432 0.05212 0.37712 0.0
H1346 H 0.94261 0.15843 0.40737 0.0
H1347 H 0.96676 0.13244 0.41581 0.0
H1348 H 0.97276 0.14684 0.39429 0.0
H1349 H 0.85631 0.06021 0.397 0.0
H1350 H 0.87436 0.06298 0.41796 0.0
H1351 H 0.85517 0.09287 0.40967 0.0
H1352 H 0.91768 0.10159 0.46572 0.0
H1353 H 0.86762 0.16947 0.44428 0.0
H1354 H 0.95515 0.08352 0.42722 0.0
H1355 H 0.92467 0.06063 0.42845 0.0
H1356 H 0.9441 0.07007 0.44823 0.0
H1357 H 0.89286 0.16416 0.4006 0.0
H1358 H 0.86322 0.17664 0.41381 0.0
H1359 H 0.86114 0.14314 0.4021 0.0
C1360 C 0.92752 0.41975 0.61972 0.0
C1361 C 0.91111 0.44281 0.6139 0.0
C1362 C 0.91978 0.40481 0.63483 0.0
C1363 C 0.89553 0.41361 0.64463 0.0
C1364 C 0.87774 0.43546 0.63815 0.0
C1365 C 0.88548 0.44944 0.62271 0.0
C1366 C 0.93878 0.38096 0.64099 0.0
C1367 C 0.85186 0.44574 0.64829 0.0
C1368 C 0.86762 0.37142 0.68332 0.0
C1369 C 0.88201 0.38466 0.69746 0.0
C1370 C 0.87234 0.38002 0.66592 0.0
C1371 C 0.89114 0.40295 0.66274 0.0
C1372 C 0.90555 0.41644 0.67702 0.0
C1373 C 0.90113 0.40684 0.69416 0.0
C1374 C 0.85736 0.36456 0.65097 0.0
C1375 C 0.92529 0.44139 0.67425 0.0
H1376 H 0.94741 0.41435 0.61316 0.0
H1377 H 0.87209 0.46656 0.61802 0.0
H1378 H 0.95211 0.3885 0.65225 0.0
H1379 H 0.9257 0.36289 0.64562 0.0
H1380 H 0.95332 0.37324 0.63041 0.0
H1381 H 0.83858 0.46073 0.64058 0.0
H1382 H 0.83824 0.42765 0.65221 0.0
H1383 H 0.85907 0.45673 0.66056 0.0
H1384 H 0.853 0.35409 0.68586 0.0
H1385 H 0.91211 0.41725 0.70508 0.0
H1386 H 0.87339 0.35663 0.64132 0.0
H1387 H 0.84297 0.3793 0.6439 0.0
H1388 H 0.84447 0.34633 0.65561 0.0
H1389 H 0.94339 0.435 0.66564 0.0
H1390 H 0.93421 0.44998 0.68682 0.0
H1391 H 0.91352 0.45863 0.66753 0.0
C1392 C 0.62676 0.1157 0.38056 0.0
C1393 C 0.6038 0.09794 0.37586 0.0
C1394 C 0.64056 0.1322 0.36788 0.0
C1395 C 0.63149 0.13034 0.35008 0.0
C1396 C 0.60845 0.11222 0.34528 0.0
C1397 C 0.59474 0.09642 0.35827 0.0
C1398 C 0.66472 0.15166 0.3735 0.0
C1399 C 0.59844 0.10927 0.3264 0.0
C1400 C 0.64615 0.18733 0.31658 0.0
C1401 C 0.66884 0.17528 0.30701 0.0
C1402 C 0.63479 0.17366 0.33128 0.0
C1403 C 0.64607 0.14707 0.33629 0.0
C1404 C 0.66968 0.13532 0.32707 0.0
C1405 C 0.68097 0.14972 0.31262 0.0
C1406 C 0.60997 0.18711 0.341 0.0
C1407 C 0.68204 0.10683 0.33186 0.0
H1408 H 0.63363 0.11694 0.39421 0.0
H1409 H 0.57721 0.08239 0.35461 0.0
H1410 H 0.68472 0.14561 0.36654 0.0
H1411 H 0.65962 0.1738 0.36981 0.0
H1412 H 0.66877 0.15108 0.38792 0.0
H1413 H 0.58053 0.0939 0.32485 0.0
H1414 H 0.59122 0.13014 0.32149 0.0
H1415 H 0.61649 0.10215 0.31795 0.0
H1416 H 0.63687 0.20721 0.31236 0.0
H1417 H 0.69848 0.14029 0.30523 0.0
H1418 H 0.61415 0.18734 0.3554 0.0
H1419 H 0.59026 0.17441 0.33865 0.0
H1420 H 0.60585 0.20918 0.33673 0.0
H1421 H 0.68729 0.10632 0.3461 0.0
H1422 H 0.70171 0.10166 0.32425 0.0
H1423 H 0.66586 0.09002 0.32922 0.0
C1424 C 0.90615 0.11375 0.6313 0.0
C1425 C 0.93403 0.11885 0.63763 0.0
C1426 C 0.89528 0.12848 0.61682 0.0
C1427 C 0.91249 0.14922 0.6087 0.0
C1428 C 0.93951 0.15637 0.61605 0.0
C1429 C 0.95009 0.14093 0.63033 0.0
C1430 C 0.86637 0.12014 0.60935 0.0
C1431 C 0.95827 0.17878 0.60798 0.0
C1432 C 0.90563 0.15485 0.5592 0.0
C1433 C 0.88803 0.17874 0.5574 0.0
C1434 C 0.91366 0.14516 0.57584 0.0
C1435 C 0.9043 0.16002 0.59109 0.0
C1436 C 0.88703 0.18454 0.5894 0.0
C1437 C 0.87884 0.19349 0.57253 0.0
C1438 C 0.93183 0.1187 0.57706 0.0
C1439 C 0.87716 0.20119 0.60538 0.0
H1440 H 0.89327 0.09726 0.63716 0.0
H1441 H 0.97169 0.14504 0.63501 0.0
H1442 H 0.85335 0.13921 0.60646 0.0
H1443 H 0.86944 0.10835 0.59675 0.0
H1444 H 0.85415 0.10645 0.61844 0.0
H1445 H 0.97603 0.18533 0.61695 0.0
H1446 H 0.96776 0.1703 0.59561 0.0
H1447 H 0.94548 0.19779 0.60459 0.0
H1448 H 0.91269 0.14328 0.54757 0.0
H1449 H 0.86533 0.21205 0.57117 0.0
H1450 H 0.92043 0.10243 0.5848 0.0
H1451 H 0.95222 0.12359 0.58404 0.0
H1452 H 0.937 0.10946 0.56392 0.0
H1453 H 0.86345 0.18767 0.61371 0.0
H1454 H 0.86483 0.22044 0.60179 0.0
H1455 H 0.89593 0.20772 0.6135 0.0
C1456 C 0.91687 0.43368 0.86794 0.0
C1457 C 0.90207 0.4553 0.87695 0.0
C1458 C 0.90448 0.41952 0.85345 0.0
C1459 C 0.87661 0.4272 0.8478 0.0
C1460 C 0.86102 0.44808 0.85732 0.0
C1461 C 0.87396 0.46191 0.87179 0.0
C1462 C 0.92182 0.39737 0.84364 0.0
C1463 C 0.83118 0.45669 0.85175 0.0
C1464 C 0.86271 0.41665 0.79898 0.0
C1465 C 0.84764 0.39092 0.79854 0.0
C1466 C 0.87153 0.42902 0.81498 0.0
C1467 C 0.86511 0.41535 0.83096 0.0
C1468 C 0.84916 0.3898 0.83067 0.0
C1469 C 0.84058 0.37786 0.81442 0.0
C1470 C 0.88844 0.45636 0.81474 0.0
C1471 C 0.84187 0.3747 0.84746 0.0
H1472 H 0.93873 0.42868 0.8717 0.0
H1473 H 0.86226 0.47833 0.87886 0.0
H1474 H 0.9091 0.37768 0.84173 0.0
H1475 H 0.92731 0.40529 0.83038 0.0
H1476 H 0.94204 0.39203 0.85063 0.0
H1477 H 0.82083 0.47102 0.86158 0.0
H1478 H 0.8322 0.46781 0.83899 0.0
H1479 H 0.81745 0.43769 0.84975 0.0
H1480 H 0.8681 0.42695 0.78676 0.0
H1481 H 0.82885 0.35801 0.81417 0.0
H1482 H 0.91026 0.45273 0.82014 0.0
H1483 H 0.87798 0.47262 0.82324 0.0
H1484 H 0.89051 0.46493 0.80126 0.0
H1485 H 0.86185 0.36715 0.85384 0.0
H1486 H 0.82754 0.3562 0.84508 0.0
H1487 H 0.83129 0.38952 0.85687 0.0
C1488 C 0.56463 0.37403 0.12905 0.0
C1489 C 0.56972 0.40254 0.13361 0.0
C1490 C 0.58022 0.36059 0.11554 0.0
C1491 C 0.60128 0.37609 0.10638 0.0
C1492 C 0.60766 0.40433 0.11163 0.0
C1493 C 0.59178 0.41722 0.12517 0.0
C1494 C 0.573 0.33036 0.11042 0.0
C1495 C 0.62996 0.42158 0.10218 0.0
C1496 C 0.65292 0.34014 0.07449 0.0
C1497 C 0.63965 0.34564 0.05828 0.0
C1498 C 0.64037 0.34928 0.09038 0.0
C1499 C 0.61404 0.36422 0.08998 0.0
C1500 C 0.60024 0.36913 0.07367 0.0
C1501 C 0.6132 0.35977 0.05805 0.0
C1502 C 0.65561 0.3436 0.10755 0.0
C1503 C 0.57208 0.38493 0.07267 0.0
H1504 H 0.54791 0.36246 0.13574 0.0
H1505 H 0.59566 0.43933 0.12851 0.0
H1506 H 0.5618 0.33003 0.0975 0.0
H1507 H 0.59282 0.31756 0.10894 0.0
H1508 H 0.55892 0.32014 0.12024 0.0
H1509 H 0.63461 0.442 0.1091 0.0
H1510 H 0.65023 0.40943 0.10086 0.0
H1511 H 0.62224 0.42627 0.08869 0.0
H1512 H 0.67331 0.32916 0.07474 0.0
H1513 H 0.60273 0.36395 0.04557 0.0
H1514 H 0.64085 0.33319 0.11688 0.0
H1515 H 0.66246 0.36397 0.11373 0.0
H1516 H 0.67482 0.32994 0.10571 0.0
H1517 H 0.55578 0.37444 0.08095 0.0
H1518 H 0.56367 0.38608 0.05899 0.0
H1519 H 0.57489 0.40687 0.07789 0.0
loop_
_geom_bond_atom_site_label_1
_geom_bond_atom_site_label_2
_geom_bond_distance
_geom_bond_site_symmetry_2
_ccdc_geom_bond_type
H0 C19 0.949 1_455 S
H1 C20 0.950 . S
H2 C22 0.950 . S
H3 C23 0.950 . S
H4 C25 0.950 . S
H5 C28 0.950 . S
H6 C29 0.950 . S
H7 C31 0.951 . S
H8 C32 0.949 . S
H9 C34 0.949 . S
H10 C35 0.950 . S
H11 C37 0.950 . S
H12 C38 0.950 . S
H13 C40 0.950 . S
H14 C43 0.950 . S
H15 C44 0.950 . S
H16 C46 0.951 . S
H17 C47 0.949 1_545 S
C18 C19 1.376 . S
C18 C23 1.386 . S
C18 C24 1.483 . S
C19 H0 0.949 1_655 S
C19 C18 1.376 . S
C19 C20 1.397 . S
C20 H1 0.950 . S
C20 C19 1.397 . S
C20 C21 1.391 . S
C21 C20 1.391 . S
C21 C22 1.405 . S
C22 H2 0.950 . S
C22 C21 1.405 . S
C22 C23 1.367 . S
C23 H3 0.950 . S
C23 C18 1.386 . S
C23 C22 1.367 . S
C24 C18 1.483 . S
C24 C25 1.382 1_655 S
C24 C26 1.403 . S
C25 H4 0.950 . S
C25 C24 1.382 1_455 S
C25 C41 1.388 1_545 S
C26 C24 1.403 . S
C26 C27 1.489 . S
C26 C40 1.411 1_655 S
C27 C26 1.489 . S
C27 C28 1.383 . S
C27 C32 1.382 . S
C28 H5 0.950 . S
C28 C27 1.383 . S
C28 C29 1.395 . S
C29 H6 0.950 . S
C29 C28 1.395 . S
C29 C30 1.288 . S
C30 C29 1.288 . S
C30 C31 1.392 . S
C31 H7 0.951 . S
C31 C30 1.392 . S
C31 C32 1.392 . S
C32 H8 0.949 . S
C32 C27 1.382 . S
C32 C31 1.392 . S
C33 C34 1.376 . S
C33 C38 1.386 . S
C33 C39 1.483 . S
C34 H9 0.949 . S
C34 C33 1.376 . S
C34 C35 1.397 . S
C35 H10 0.950 . S
C35 C34 1.397 . S
C35 C36 1.391 . S
C36 C35 1.391 . S
C36 C37 1.405 . S
C37 H11 0.950 . S
C37 C36 1.405 . S
C37 C38 1.367 . S
C38 H12 0.950 . S
C38 C33 1.386 . S
C38 C37 1.367 . S
C39 C33 1.483 . S
C39 C40 1.382 1_565 S
C39 C41 1.408 . S
C40 H13 0.950 . S
C40 C26 1.411 1_455 S
C40 C39 1.382 1_545 S
C41 C25 1.388 1_565 S
C41 C39 1.408 . S
C41 C42 1.508 . S
C42 C41 1.508 . S
C42 C43 1.383 . S
C42 C47 1.382 . S
C43 H14 0.950 . S
C43 C42 1.383 . S
C43 C44 1.395 . S
C44 H15 0.950 . S
C44 C43 1.395 . S
C44 C45 1.288 . S
C45 C44 1.288 . S
C45 C46 1.392 . S
C46 H16 0.951 . S
C46 C45 1.392 . S
C46 C47 1.392 . S
C47 H17 0.949 1_565 S
C47 C42 1.382 . S
C47 C46 1.392 . S
H48 C67 0.949 1_455 S
H49 C68 0.950 . S
H50 C70 0.950 . S
H51 C71 0.950 . S
H52 C73 0.950 . S
H53 C76 0.950 . S
H54 C77 0.950 . S
H55 C79 0.951 . S
H56 C80 0.949 . S
H57 C82 0.949 . S
H58 C83 0.950 . S
H59 C85 0.950 . S
H60 C86 0.950 . S
H61 C88 0.950 . S
H62 C91 0.950 . S
H63 C92 0.950 . S
H64 C94 0.951 . S
H65 C95 0.949 . S
C66 C67 1.376 . S
C66 C71 1.386 . S
C66 C72 1.483 . S
C67 H48 0.949 1_655 S
C67 C66 1.376 . S
C67 C68 1.397 . S
C68 H49 0.950 . S
C68 C67 1.397 . S
C68 C69 1.391 . S
C69 C68 1.391 . S
C69 C70 1.405 . S
C70 H50 0.950 . S
C70 C69 1.405 . S
C70 C71 1.367 . S
C71 H51 0.950 . S
C71 C66 1.386 . S
C71 C70 1.367 . S
C72 C66 1.483 . S
C72 C73 1.382 1_655 S
C72 C74 1.403 . S
C73 H52 0.950 . S
C73 C72 1.382 1_455 S
C73 C89 1.411 . S
C74 C72 1.403 . S
C74 C75 1.489 . S
C74 C88 1.411 1_655 S
C75 C74 1.489 . S
C75 C76 1.383 . S
C75 C80 1.382 . S
C76 H53 0.950 . S
C76 C75 1.383 . S
C76 C77 1.395 . S
C77 H54 0.950 . S
C77 C76 1.395 . S
C77 C78 1.288 . S
C78 C77 1.288 . S
C78 C79 1.392 . S
C79 H55 0.951 . S
C79 C78 1.392 . S
C79 C80 1.392 . S
C80 H56 0.949 . S
C80 C75 1.382 . S
C80 C79 1.392 . S
C81 C82 1.376 . S
C81 C86 1.386 . S
C81 C87 1.483 . S
C82 H57 0.949 . S
C82 C81 1.376 . S
C82 C83 1.397 . S
C83 H58 0.950 . S
C83 C82 1.397 . S
C83 C84 1.391 . S
C84 C83 1.391 . S
C84 C85 1.405 . S
C85 H59 0.950 . S
C85 C84 1.405 . S
C85 C86 1.367 . S
C86 H60 0.950 . S
C86 C81 1.386 . S
C86 C85 1.367 . S
C87 C81 1.483 . S
C87 C88 1.382 . S
C87 C89 1.403 . S
C88 H61 0.950 . S
C88 C74 1.411 1_455 S
C88 C87 1.382 . S
C89 C73 1.411 . S
C89 C87 1.403 . S
C89 C90 1.489 . S
C90 C89 1.489 . S
C90 C91 1.383 . S
C90 C95 1.382 . S
C91 H62 0.950 . S
C91 C90 1.383 . S
C91 C92 1.395 . S
C92 H63 0.950 . S
C92 C91 1.395 . S
C92 C93 1.288 . S
C93 C92 1.288 . S
C93 C94 1.392 . S
C94 H64 0.951 . S
C94 C93 1.392 . S
C94 C95 1.392 . S
C95 H65 0.949 . S
C95 C90 1.382 . S
C95 C94 1.392 . S
H96 C115 0.949 . S
H97 C116 0.950 . S
H98 C118 0.950 . S
H99 C119 0.950 . S
H100 C121 0.950 . S
H101 C124 0.950 . S
H102 C125 0.950 . S
H103 C127 0.951 . S
H104 C128 0.949 . S
H105 C130 0.949 . S
H106 C131 0.950 . S
H107 C133 0.950 . S
H108 C134 0.950 . S
H109 C136 0.950 . S
H110 C139 0.950 . S
H111 C140 0.950 . S
H112 C142 0.951 . S
H113 C143 0.949 . S
C114 C115 1.376 . S
C114 C119 1.386 . S
C114 C120 1.483 . S
C115 H96 0.949 . S
C115 C114 1.376 . S
C115 C116 1.397 . S
C116 H97 0.950 . S
C116 C115 1.397 . S
C116 C117 1.391 . S
C117 C116 1.391 . S
C117 C118 1.405 . S
C118 H98 0.950 . S
C118 C117 1.405 . S
C118 C119 1.367 . S
C119 H99 0.950 . S
C119 C114 1.386 . S
C119 C118 1.367 . S
C120 C114 1.483 . S
C120 C121 1.382 . S
C120 C122 1.403 . S
C121 H100 0.950 . S
C121 C120 1.382 . S
C121 C137 1.411 . S
C122 C120 1.403 . S
C122 C123 1.489 . S
C122 C136 1.411 . S
C123 C122 1.489 . S
C123 C124 1.383 . S
C123 C128 1.382 . S
C124 H101 0.950 . S
C124 C123 1.383 . S
C124 C125 1.395 . S
C125 H102 0.950 . S
C125 C124 1.395 . S
C125 C126 1.288 . S
C126 C125 1.288 . S
C126 C127 1.392 . S
C127 H103 0.951 . S
C127 C126 1.392 . S
C127 C128 1.392 . S
C128 H104 0.949 . S
C128 C123 1.382 . S
C128 C127 1.392 . S
C129 C130 1.376 . S
C129 C134 1.386 . S
C129 C135 1.483 . S
C130 H105 0.949 . S
C130 C129 1.376 . S
C130 C131 1.397 . S
C131 H106 0.950 . S
C131 C130 1.397 . S
C131 C132 1.391 . S
C132 C131 1.391 . S
C132 C133 1.405 . S
C133 H107 0.950 . S
C133 C132 1.405 . S
C133 C134 1.367 . S
C134 H108 0.950 . S
C134 C129 1.386 . S
C134 C133 1.367 . S
C135 C129 1.483 . S
C135 C136 1.382 . S
C135 C137 1.403 . S
C136 H109 0.950 . S
C136 C122 1.411 . S
C136 C135 1.382 . S
C137 C121 1.411 . S
C137 C135 1.403 . S
C137 C138 1.489 . S
C138 C137 1.489 . S
C138 C139 1.383 . S
C138 C143 1.382 . S
C139 H110 0.950 . S
C139 C138 1.383 . S
C139 C140 1.395 . S
C140 H111 0.950 . S
C140 C139 1.395 . S
C140 C141 1.288 . S
C141 C140 1.288 . S
C141 C142 1.392 . S
C142 H112 0.951 . S
C142 C141 1.392 . S
C142 C143 1.392 . S
C143 H113 0.949 . S
C143 C138 1.382 . S
C143 C142 1.392 . S
H144 C163 0.949 . S
H145 C164 0.950 . S
H146 C166 0.950 . S
H147 C167 0.950 . S
H148 C169 0.950 . S
H149 C172 0.950 . S
H150 C173 0.950 . S
H151 C175 0.951 . S
H152 C176 0.949 . S
H153 C178 0.949 . S
H154 C179 0.950 . S
H155 C181 0.950 . S
H156 C182 0.950 . S
H157 C184 0.950 . S
H158 C187 0.950 . S
H159 C188 0.950 . S
H160 C190 0.951 . S
H161 C191 0.949 . S
C162 C163 1.376 . S
C162 C167 1.386 . S
C162 C168 1.483 . S
C163 H144 0.949 . S
C163 C162 1.376 . S
C163 C164 1.397 . S
C164 H145 0.950 . S
C164 C163 1.397 . S
C164 C165 1.391 . S
C165 C164 1.391 . S
C165 C166 1.405 . S
C166 H146 0.950 . S
C166 C165 1.405 . S
C166 C167 1.367 . S
C167 H147 0.950 . S
C167 C162 1.386 . S
C167 C166 1.367 . S
C168 C162 1.483 . S
C168 C169 1.382 . S
C168 C170 1.403 . S
C169 H148 0.950 . S
C169 C168 1.382 . S
C169 C185 1.411 1_565 S
C170 C168 1.403 . S
C170 C171 1.489 . S
C170 C184 1.411 1_565 S
C171 C170 1.489 . S
C171 C172 1.383 . S
C171 C176 1.382 . S
C172 H149 0.950 . S
C172 C171 1.383 . S
C172 C173 1.395 . S
C173 H150 0.950 . S
C173 C172 1.395 . S
C173 C174 1.288 . S
C174 C173 1.288 . S
C174 C175 1.392 . S
C175 H151 0.951 . S
C175 C174 1.392 . S
C175 C176 1.392 . S
C176 H152 0.949 . S
C176 C171 1.382 . S
C176 C175 1.392 . S
C177 C178 1.376 . S
C177 C182 1.386 . S
C177 C183 1.483 . S
C178 H153 0.949 . S
C178 C177 1.376 . S
C178 C179 1.397 . S
C179 H154 0.950 . S
C179 C178 1.397 . S
C179 C180 1.391 . S
C180 C179 1.391 . S
C180 C181 1.405 . S
C181 H155 0.950 . S
C181 C180 1.405 . S
C181 C182 1.367 . S
C182 H156 0.950 . S
C182 C177 1.386 . S
C182 C181 1.367 . S
C183 C177 1.483 . S
C183 C184 1.382 . S
C183 C185 1.403 . S
C184 H157 0.950 . S
C184 C170 1.411 1_545 S
C184 C183 1.382 . S
C185 C169 1.411 1_545 S
C185 C183 1.403 . S
C185 C186 1.489 . S
C186 C185 1.489 . S
C186 C187 1.383 . S
C186 C191 1.382 . S
C187 H158 0.950 . S
C187 C186 1.383 . S
C187 C188 1.395 . S
C188 H159 0.950 . S
C188 C187 1.395 . S
C188 C189 1.288 . S
C189 C188 1.288 . S
C189 C190 1.392 . S
C190 H160 0.951 . S
C190 C189 1.392 . S
C190 C191 1.392 . S
C191 H161 0.949 . S
C191 C186 1.382 . S
C191 C190 1.392 . S
H192 C211 0.949 . S
H193 C212 0.950 . S
H194 C214 0.950 . S
H195 C215 0.950 . S
H196 C217 0.950 . S
H197 C220 0.950 . S
H198 C221 0.950 . S
H199 C223 0.951 . S
H200 C224 0.949 . S
H201 C226 0.949 . S
H202 C227 0.950 . S
H203 C229 0.950 . S
H204 C230 0.950 . S
H205 C232 0.950 . S
H206 C235 0.950 . S
H207 C236 0.950 . S
H208 C238 0.951 . S
H209 C239 0.949 . S
C210 C211 1.376 . S
C210 C215 1.386 . S
C210 C216 1.483 . S
C211 H192 0.949 . S
C211 C210 1.376 . S
C211 C212 1.397 . S
C212 H193 0.950 . S
C212 C211 1.397 . S
C212 C213 1.391 . S
C213 C212 1.391 . S
C213 C214 1.405 . S
C214 H194 0.950 . S
C214 C213 1.405 . S
C214 C215 1.367 . S
C215 H195 0.950 . S
C215 C210 1.386 . S
C215 C214 1.367 . S
C216 C210 1.483 . S
C216 C217 1.382 1_455 S
C216 C218 1.403 . S
C217 H196 0.950 . S
C217 C216 1.382 1_655 S
C217 C233 1.411 . S
C218 C216 1.403 . S
C218 C219 1.489 . S
C218 C232 1.411 . S
C219 C218 1.489 . S
C219 C220 1.383 . S
C219 C224 1.382 . S
C220 H197 0.950 . S
C220 C219 1.383 . S
C220 C221 1.395 . S
C221 H198 0.950 . S
C221 C220 1.395 . S
C221 C222 1.288 . S
C222 C221 1.288 . S
C222 C223 1.392 . S
C223 H199 0.951 . S
C223 C222 1.392 . S
C223 C224 1.392 . S
C224 H200 0.949 . S
C224 C219 1.382 . S
C224 C223 1.392 . S
C225 C226 1.376 . S
C225 C230 1.386 . S
C225 C231 1.483 . S
C226 H201 0.949 . S
C226 C225 1.376 . S
C226 C227 1.397 . S
C227 H202 0.950 . S
C227 C226 1.397 . S
C227 C228 1.391 . S
C228 C227 1.391 . S
C228 C229 1.405 . S
C229 H203 0.950 . S
C229 C228 1.405 . S
C229 C230 1.367 . S
C230 H204 0.950 . S
C230 C225 1.386 . S
C230 C229 1.367 . S
C231 C225 1.483 . S
C231 C232 1.382 1_655 S
C231 C233 1.403 . S
C232 H205 0.950 . S
C232 C218 1.411 . S
C232 C231 1.382 1_455 S
C233 C217 1.411 . S
C233 C231 1.403 . S
C233 C234 1.489 . S
C234 C233 1.489 . S
C234 C235 1.383 . S
C234 C239 1.382 . S
C235 H206 0.950 . S
C235 C234 1.383 . S
C235 C236 1.395 . S
C236 H207 0.950 . S
C236 C235 1.395 . S
C236 C237 1.288 . S
C237 C236 1.288 . S
C237 C238 1.392 . S
C238 H208 0.951 . S
C238 C237 1.392 . S
C238 C239 1.392 . S
C239 H209 0.949 . S
C239 C234 1.382 . S
C239 C238 1.392 . S
H240 C259 0.949 . S
H241 C260 0.950 . S
H242 C262 0.950 . S
H243 C263 0.950 . S
H244 C265 0.950 . S
H245 C268 0.950 . S
H246 C269 0.950 . S
H247 C271 0.951 . S
H248 C272 0.949 . S
H249 C274 0.949 . S
H250 C275 0.950 . S
H251 C277 0.950 . S
H252 C278 0.950 . S
H253 C280 0.950 . S
H254 C283 0.950 . S
H255 C284 0.950 . S
H256 C286 0.951 . S
H257 C287 0.949 . S
C258 C259 1.376 . S
C258 C263 1.386 . S
C258 C264 1.483 . S
C259 H240 0.949 . S
C259 C258 1.376 . S
C259 C260 1.397 . S
C260 H241 0.950 . S
C260 C259 1.397 . S
C260 C261 1.391 . S
C261 C260 1.391 . S
C261 C262 1.405 . S
C262 H242 0.950 . S
C262 C261 1.405 . S
C262 C263 1.367 . S
C263 H243 0.950 . S
C263 C258 1.386 . S
C263 C262 1.367 . S
C264 C258 1.483 . S
C264 C265 1.382 . S
C264 C266 1.403 . S
C265 H244 0.950 . S
C265 C264 1.382 . S
C265 C281 1.411 . S
C266 C264 1.403 . S
C266 C267 1.489 . S
C266 C280 1.411 . S
C267 C266 1.489 . S
C267 C268 1.383 . S
C267 C272 1.382 . S
C268 H245 0.950 . S
C268 C267 1.383 . S
C268 C269 1.395 . S
C269 H246 0.950 . S
C269 C268 1.395 . S
C269 C270 1.288 . S
C270 C269 1.288 . S
C270 C271 1.392 . S
C271 H247 0.951 . S
C271 C270 1.392 . S
C271 C272 1.392 . S
C272 H248 0.949 . S
C272 C267 1.382 . S
C272 C271 1.392 . S
C273 C274 1.376 . S
C273 C278 1.386 . S
C273 C279 1.483 . S
C274 H249 0.949 . S
C274 C273 1.376 . S
C274 C275 1.397 . S
C275 H250 0.950 . S
C275 C274 1.397 . S
C275 C276 1.391 . S
C276 C275 1.391 . S
C276 C277 1.405 . S
C277 H251 0.950 . S
C277 C276 1.405 . S
C277 C278 1.367 . S
C278 H252 0.950 . S
C278 C273 1.386 . S
C278 C277 1.367 . S
C279 C273 1.483 . S
C279 C280 1.382 . S
C279 C281 1.403 . S
C280 H253 0.950 . S
C280 C266 1.411 . S
C280 C279 1.382 . S
C281 C265 1.411 . S
C281 C279 1.403 . S
C281 C282 1.489 . S
C282 C281 1.489 . S
C282 C283 1.383 . S
C282 C287 1.382 . S
C283 H254 0.950 . S
C283 C282 1.383 . S
C283 C284 1.395 . S
C284 H255 0.950 . S
C284 C283 1.395 . S
C284 C285 1.288 . S
C285 C284 1.288 . S
C285 C286 1.392 . S
C286 H256 0.951 . S
C286 C285 1.392 . S
C286 C287 1.392 . S
C287 H257 0.949 . S
C287 C282 1.382 . S
C287 C286 1.392 . S
H288 C307 0.949 . S
H289 C308 0.950 . S
H290 C310 0.950 . S
H291 C311 0.950 . S
H292 C313 0.950 . S
H293 C316 0.950 . S
H294 C317 0.950 . S
H295 C319 0.951 . S
H296 C320 0.949 1_545 S
H297 C322 0.949 . S
H298 C323 0.950 . S
H299 C325 0.950 . S
H300 C326 0.950 . S
H301 C328 0.950 . S
H302 C331 0.950 . S
H303 C332 0.950 . S
H304 C334 0.951 . S
H305 C335 0.949 . S
C306 C307 1.376 . S
C306 C311 1.386 . S
C306 C312 1.483 . S
C307 H288 0.949 . S
C307 C306 1.376 . S
C307 C308 1.397 . S
C308 H289 0.950 . S
C308 C307 1.397 . S
C308 C309 1.391 . S
C309 C308 1.391 . S
C309 C310 1.405 . S
C310 H290 0.950 . S
C310 C309 1.405 . S
C310 C311 1.367 . S
C311 H291 0.950 . S
C311 C306 1.386 . S
C311 C310 1.367 . S
C312 C306 1.483 . S
C312 C313 1.382 1_565 S
C312 C314 1.403 . S
C313 H292 0.950 . S
C313 C312 1.382 1_545 S
C313 C329 1.411 . S
C314 C312 1.403 . S
C314 C315 1.489 . S
C314 C328 1.411 1_565 S
C315 C314 1.489 . S
C315 C316 1.383 . S
C315 C320 1.382 . S
C316 H293 0.950 . S
C316 C315 1.383 . S
C316 C317 1.395 . S
C317 H294 0.950 . S
C317 C316 1.395 . S
C317 C318 1.288 . S
C318 C317 1.288 . S
C318 C319 1.392 . S
C319 H295 0.951 . S
C319 C318 1.392 . S
C319 C320 1.392 . S
C320 H296 0.949 1_565 S
C320 C315 1.382 . S
C320 C319 1.392 . S
C321 C322 1.376 . S
C321 C326 1.386 . S
C321 C327 1.483 . S
C322 H297 0.949 . S
C322 C321 1.376 . S
C322 C323 1.397 . S
C323 H298 0.950 . S
C323 C322 1.397 . S
C323 C324 1.391 . S
C324 C323 1.391 . S
C324 C325 1.405 . S
C325 H299 0.950 . S
C325 C324 1.405 . S
C325 C326 1.367 . S
C326 H300 0.950 . S
C326 C321 1.386 . S
C326 C325 1.367 . S
C327 C321 1.483 . S
C327 C328 1.382 . S
C327 C329 1.403 . S
C328 H301 0.950 . S
C328 C314 1.411 1_545 S
C328 C327 1.382 . S
C329 C313 1.411 . S
C329 C327 1.403 . S
C329 C330 1.489 . S
C330 C329 1.489 . S
C330 C331 1.383 . S
C330 C335 1.382 . S
C331 H302 0.950 . S
C331 C330 1.383 . S
C331 C332 1.395 . S
C332 H303 0.950 . S
C332 C331 1.395 . S
C332 C333 1.288 . S
C333 C332 1.288 . S
C333 C334 1.392 . S
C334 H304 0.951 . S
C334 C333 1.392 . S
C334 C335 1.392 . S
C335 H305 0.949 . S
C335 C330 1.382 . S
C335 C334 1.392 . S
H336 C355 0.949 . S
H337 C356 0.950 . S
H338 C358 0.950 . S
H339 C359 0.950 . S
H340 C361 0.950 . S
H341 C364 0.950 1_455 S
H342 C365 0.950 . S
H343 C367 0.951 . S
H344 C368 0.949 . S
H345 C370 0.949 . S
H346 C371 0.950 . S
H347 C373 0.950 . S
H348 C374 0.950 . S
H349 C376 0.950 . S
H350 C379 0.950 . S
H351 C380 0.950 . S
H352 C382 0.951 . S
H353 C383 0.987 . S
C354 C355 1.376 1_655 S
C354 C359 1.386 . S
C354 C360 1.483 1_655 S
C355 H336 0.949 . S
C355 C354 1.376 1_455 S
C355 C356 1.397 1_455 S
C356 H337 0.950 . S
C356 C355 1.397 1_655 S
C356 C357 1.391 . S
C357 C356 1.391 . S
C357 C358 1.405 . S
C358 H338 0.950 . S
C358 C357 1.405 . S
C358 C359 1.367 . S
C359 H339 0.950 . S
C359 C354 1.386 . S
C359 C358 1.367 . S
C360 C354 1.483 1_455 S
C360 C361 1.382 . S
C360 C362 1.403 . S
C361 H340 0.950 . S
C361 C360 1.382 . S
C361 C377 1.411 . S
C362 C360 1.403 . S
C362 C363 1.489 1_455 S
C362 C376 1.411 . S
C363 C362 1.489 1_655 S
C363 C364 1.383 . S
C363 C368 1.382 . S
C364 H341 0.950 1_655 S
C364 C363 1.383 . S
C364 C365 1.395 . S
C365 H342 0.950 . S
C365 C364 1.395 . S
C365 C366 1.288 . S
C366 C365 1.288 . S
C366 C367 1.392 . S
C367 H343 0.951 . S
C367 C366 1.392 . S
C367 C368 1.392 . S
C368 H344 0.949 . S
C368 C363 1.382 . S
C368 C367 1.392 . S
C369 C370 1.376 . S
C369 C374 1.386 . S
C369 C375 1.483 1_565 S
C370 H345 0.949 . S
C370 C369 1.376 . S
C370 C371 1.397 . S
C371 H346 0.950 . S
C371 C370 1.397 . S
C371 C372 1.391 . S
C372 C371 1.391 . S
C372 C373 1.405 . S
C373 H347 0.950 . S
C373 C372 1.405 . S
C373 C374 1.367 . S
C374 H348 0.950 . S
C374 C369 1.386 . S
C374 C373 1.367 . S
C375 C369 1.483 1_545 S
C375 C376 1.382 . S
C375 C377 1.403 . S
C376 H349 0.950 . S
C376 C362 1.411 . S
C376 C375 1.382 . S
C377 C361 1.411 . S
C377 C375 1.403 . S
C377 C378 1.489 1_545 S
C378 C377 1.489 1_565 S
C378 C379 1.383 . S
C378 C383 1.369 1_565 S
C379 H350 0.950 . S
C379 C378 1.383 . S
C379 C380 1.395 . S
C380 H351 0.950 . S
C380 C379 1.395 . S
C380 C381 1.288 . S
C381 C380 1.288 . S
C381 C382 1.392 . S
C382 H352 0.951 . S
C382 C381 1.392 . S
C382 C383 1.367 1_565 S
C383 H353 0.987 . S
C383 C378 1.369 1_545 S
C383 C382 1.367 1_545 S
C384 O385 1.306 . S
C384 O387 1.160 . S
O385 C384 1.306 . S
O385 Cd386 2.228 . S
Cd386 O385 2.228 . S
Cd386 O390 2.273 1_554 S
Cd386 O394 2.277 . S
O387 C384 1.160 . S
O387 Cd388 2.203 . S
Cd388 O387 2.203 . S
Cd388 O390 2.411 1_554 S
Cd388 O391 2.333 1_554 S
Cd388 O392 2.352 . S
Cd388 O396 2.277 . S
Cd388 O397 2.344 1_554 S
C389 O394 1.209 . S
C389 O396 1.226 . S
O390 Cd386 2.273 1_556 S
O390 Cd388 2.411 1_556 S
O390 C393 1.320 . S
O391 Cd388 2.333 1_556 S
O391 C393 1.214 . S
O392 Cd388 2.352 . S
O392 C395 1.256 1_554 S
C393 O390 1.320 . S
C393 O391 1.214 . S
O394 Cd386 2.277 . S
O394 C389 1.209 . S
C395 O392 1.256 1_556 S
C395 O397 1.281 . S
O396 Cd388 2.277 . S
O396 C389 1.226 . S
O397 Cd388 2.344 1_556 S
O397 C395 1.281 . S
C398 O399 1.306 . S
C398 O401 1.160 . S
O399 C398 1.306 . S
O399 Cd400 2.228 . S
Cd400 O399 2.228 . S
Cd400 O404 2.273 . S
Cd400 O408 2.277 . S
O401 C398 1.160 . S
O401 Cd402 2.203 . S
Cd402 O401 2.203 . S
Cd402 O404 2.411 . S
Cd402 O405 2.333 . S
Cd402 O406 2.352 . S
Cd402 O410 2.277 . S
Cd402 O411 2.356 . S
C403 O408 1.209 . S
C403 O410 1.226 . S
O404 Cd400 2.273 . S
O404 Cd402 2.411 . S
O404 C407 1.320 . S
O405 Cd402 2.333 . S
O405 C407 1.214 . S
O406 Cd402 2.352 . S
O406 C409 1.258 . S
C407 O404 1.320 . S
C407 O405 1.214 . S
O408 Cd400 2.277 . S
O408 C403 1.209 . S
C409 O406 1.258 . S
C409 O411 1.282 . S
O410 Cd402 2.277 . S
O410 C403 1.226 . S
O411 Cd402 2.356 . S
O411 C409 1.282 . S
C412 O413 1.306 . S
C412 O415 1.160 . S
O413 C412 1.306 . S
O413 Cd414 2.228 . S
Cd414 O413 2.228 . S
Cd414 O418 2.273 . S
Cd414 O422 2.277 . S
O415 C412 1.160 . S
O415 Cd416 2.203 . S
Cd416 O415 2.203 . S
Cd416 O418 2.411 . S
Cd416 O419 2.333 . S
Cd416 O420 2.352 . S
Cd416 O424 2.277 . S
Cd416 O425 2.356 . S
C417 O422 1.209 . S
C417 O424 1.226 . S
O418 Cd414 2.273 . S
O418 Cd416 2.411 . S
O418 C421 1.320 . S
O419 Cd416 2.333 . S
O419 C421 1.214 . S
O420 Cd416 2.352 . S
O420 C423 1.258 . S
C421 O418 1.320 . S
C421 O419 1.214 . S
O422 Cd414 2.277 . S
O422 C417 1.209 . S
C423 O420 1.258 . S
C423 O425 1.282 . S
O424 Cd416 2.277 . S
O424 C417 1.226 . S
O425 Cd416 2.356 . S
O425 C423 1.282 . S
C426 O427 1.306 . S
C426 O429 1.160 . S
O427 C426 1.306 . S
O427 Cd428 2.228 . S
Cd428 O427 2.228 . S
Cd428 O432 2.273 . S
Cd428 O436 2.277 . S
O429 C426 1.160 . S
O429 Cd430 2.203 . S
Cd430 O429 2.203 . S
Cd430 O432 2.411 . S
Cd430 O433 2.333 . S
Cd430 O434 2.352 . S
Cd430 O438 2.277 . S
Cd430 O439 2.356 . S
C431 O436 1.209 . S
C431 O438 1.226 . S
O432 Cd428 2.273 . S
O432 Cd430 2.411 . S
O432 C435 1.320 . S
O433 Cd430 2.333 . S
O433 C435 1.214 . S
O434 Cd430 2.352 . S
O434 C437 1.258 . S
C435 O432 1.320 . S
C435 O433 1.214 . S
O436 Cd428 2.277 . S
O436 C431 1.209 . S
C437 O434 1.258 . S
C437 O439 1.282 . S
O438 Cd430 2.277 . S
O438 C431 1.226 . S
O439 Cd430 2.356 . S
O439 C437 1.282 . S
C440 O441 1.306 . S
C440 O443 1.160 . S
O441 C440 1.306 . S
O441 Cd442 2.228 . S
Cd442 O441 2.228 . S
Cd442 O446 2.273 . S
Cd442 O450 2.277 . S
O443 C440 1.160 . S
O443 Cd444 2.203 . S
Cd444 O443 2.203 . S
Cd444 O446 2.411 . S
Cd444 O447 2.333 . S
Cd444 O448 2.352 . S
Cd444 O452 2.277 . S
Cd444 O453 2.356 . S
C445 O450 1.209 . S
C445 O452 1.226 . S
O446 Cd442 2.273 . S
O446 Cd444 2.411 . S
O446 C449 1.320 . S
O447 Cd444 2.333 . S
O447 C449 1.214 . S
O448 Cd444 2.352 . S
O448 C451 1.258 . S
C449 O446 1.320 . S
C449 O447 1.214 . S
O450 Cd442 2.277 . S
O450 C445 1.209 . S
C451 O448 1.258 . S
C451 O453 1.282 . S
O452 Cd444 2.277 . S
O452 C445 1.226 . S
O453 Cd444 2.356 . S
O453 C451 1.282 . S
C454 O455 1.306 . S
C454 O457 1.160 . S
O455 C454 1.306 . S
O455 Cd456 2.228 . S
Cd456 O455 2.228 . S
Cd456 O460 2.273 . S
Cd456 O464 2.277 . S
O457 C454 1.160 . S
O457 Cd458 2.203 . S
Cd458 O457 2.203 . S
Cd458 O460 2.411 . S
Cd458 O461 2.333 . S
Cd458 O462 2.352 . S
Cd458 O466 2.277 . S
Cd458 O467 2.356 . S
C459 O464 1.209 . S
C459 O466 1.226 . S
O460 Cd456 2.273 . S
O460 Cd458 2.411 . S
O460 C463 1.320 . S
O461 Cd458 2.333 . S
O461 C463 1.214 . S
O462 Cd458 2.352 . S
O462 C465 1.258 . S
C463 O460 1.320 . S
C463 O461 1.214 . S
O464 Cd456 2.277 . S
O464 C459 1.209 . S
C465 O462 1.258 . S
C465 O467 1.282 . S
O466 Cd458 2.277 . S
O466 C459 1.226 . S
O467 Cd458 2.356 . S
O467 C465 1.282 . S
C468 O469 1.306 . S
C468 O471 1.160 . S
O469 C468 1.306 . S
O469 Cd470 2.263 . S
Cd470 O469 2.263 . S
Cd470 O474 2.245 1_556 S
Cd470 O478 2.281 . S
O471 C468 1.160 . S
O471 Cd472 2.203 1_556 S
Cd472 O471 2.203 1_554 S
Cd472 O474 2.411 . S
Cd472 O475 2.333 . S
Cd472 O476 2.352 . S
Cd472 O480 2.277 1_554 S
Cd472 O481 2.356 . S
C473 O478 1.209 . S
C473 O480 1.226 . S
O474 Cd470 2.245 1_554 S
O474 Cd472 2.411 . S
O474 C477 1.320 . S
O475 Cd472 2.333 . S
O475 C477 1.214 . S
O476 Cd472 2.352 . S
O476 C479 1.258 . S
C477 O474 1.320 . S
C477 O475 1.214 . S
O478 Cd470 2.281 . S
O478 C473 1.209 . S
C479 O476 1.258 . S
C479 O481 1.282 . S
O480 Cd472 2.277 1_556 S
O480 C473 1.226 . S
O481 Cd472 2.356 . S
O481 C479 1.282 . S
C482 O483 1.306 . S
C482 O485 1.160 . S
O483 C482 1.306 . S
O483 Cd484 2.228 . S
Cd484 O483 2.228 . S
Cd484 O488 2.273 . S
Cd484 O492 2.277 . S
O485 C482 1.160 . S
O485 Cd486 2.203 . S
Cd486 O485 2.203 . S
Cd486 O488 2.411 . S
Cd486 O489 2.333 . S
Cd486 O490 2.352 . S
Cd486 O494 2.277 . S
Cd486 O495 2.356 . S
C487 O492 1.209 . S
C487 O494 1.226 . S
O488 Cd484 2.273 . S
O488 Cd486 2.411 . S
O488 C491 1.320 . S
O489 Cd486 2.333 . S
O489 C491 1.214 . S
O490 Cd486 2.352 . S
O490 C493 1.258 . S
C491 O488 1.320 . S
C491 O489 1.214 . S
O492 Cd484 2.277 . S
O492 C487 1.209 . S
C493 O490 1.258 . S
C493 O495 1.282 . S
O494 Cd486 2.277 . S
O494 C487 1.226 . S
O495 Cd486 2.356 . S
O495 C493 1.282 . S
C496 C497 1.391 . S
C496 C498 1.394 . S
C496 H512 0.931 . S
C497 C496 1.391 . S
C497 C501 1.376 . S
C498 C496 1.394 . S
C498 C499 1.369 . S
C498 C502 1.531 . S
C499 C498 1.369 . S
C499 C500 1.410 . S
C499 C507 1.503 . S
C500 C499 1.410 . S
C500 C501 1.392 . S
C500 C503 1.511 . S
C501 C497 1.376 . S
C501 C500 1.392 . S
C501 H513 0.929 . S
C502 C498 1.531 . S
C502 H514 0.960 . S
C502 H515 0.962 . S
C502 H516 0.960 . S
C503 C500 1.511 . S
C503 H517 0.961 . S
C503 H518 0.961 . S
C503 H519 0.961 . S
C504 C505 1.370 . S
C504 C506 1.363 . S
C504 H520 0.931 . S
C505 C504 1.370 . S
C505 C509 1.408 . S
C506 C504 1.363 . S
C506 C507 1.370 . S
C506 C510 1.524 . S
C507 C499 1.503 . S
C507 C506 1.370 . S
C507 C508 1.403 . S
C508 C507 1.403 . S
C508 C509 1.404 . S
C508 C511 1.539 . S
C509 C505 1.408 . S
C509 C508 1.404 . S
C509 H521 0.930 . S
C510 C506 1.524 . S
C510 H522 0.956 . S
C510 H523 0.961 . S
C510 H524 0.961 . S
C511 C508 1.539 . S
C511 H525 0.958 . S
C511 H526 0.961 . S
C511 H527 0.960 . S
H512 C496 0.931 . S
H513 C501 0.929 . S
H514 C502 0.960 . S
H515 C502 0.962 . S
H516 C502 0.960 . S
H517 C503 0.961 . S
H518 C503 0.961 . S
H519 C503 0.961 . S
H520 C504 0.931 . S
H521 C509 0.930 . S
H522 C510 0.956 . S
H523 C510 0.961 . S
H524 C510 0.961 . S
H525 C511 0.958 . S
H526 C511 0.961 . S
H527 C511 0.960 . S
C528 C529 1.391 . S
C528 C530 1.394 . S
C528 H544 0.931 . S
C529 C528 1.391 . S
C529 C533 1.376 . S
C530 C528 1.394 . S
C530 C531 1.369 . S
C530 C534 1.531 . S
C531 C530 1.369 . S
C531 C532 1.410 . S
C531 C539 1.503 . S
C532 C531 1.410 . S
C532 C533 1.392 . S
C532 C535 1.511 . S
C533 C529 1.376 . S
C533 C532 1.392 . S
C533 H545 0.929 . S
C534 C530 1.531 . S
C534 H546 0.960 . S
C534 H547 0.962 . S
C534 H548 0.960 . S
C535 C532 1.511 . S
C535 H549 0.961 . S
C535 H550 0.961 . S
C535 H551 0.961 . S
C536 C537 1.370 . S
C536 C538 1.363 . S
C536 H552 0.931 . S
C537 C536 1.370 . S
C537 C541 1.408 . S
C538 C536 1.363 . S
C538 C539 1.370 . S
C538 C542 1.524 . S
C539 C531 1.503 . S
C539 C538 1.370 . S
C539 C540 1.403 . S
C540 C539 1.403 . S
C540 C541 1.404 . S
C540 C543 1.539 . S
C541 C537 1.408 . S
C541 C540 1.404 . S
C541 H553 0.930 . S
C542 C538 1.524 . S
C542 H554 0.956 . S
C542 H555 0.961 . S
C542 H556 0.961 . S
C543 C540 1.539 . S
C543 H557 0.958 . S
C543 H558 0.961 . S
C543 H559 0.960 . S
H544 C528 0.931 . S
H545 C533 0.929 . S
H546 C534 0.960 . S
H547 C534 0.962 . S
H548 C534 0.960 . S
H549 C535 0.961 . S
H550 C535 0.961 . S
H551 C535 0.961 . S
H552 C536 0.931 . S
H553 C541 0.930 . S
H554 C542 0.956 . S
H555 C542 0.961 . S
H556 C542 0.961 . S
H557 C543 0.958 . S
H558 C543 0.961 . S
H559 C543 0.960 . S
C560 C561 1.391 . S
C560 C562 1.394 . S
C560 H576 0.931 . S
C561 C560 1.391 . S
C561 C565 1.376 . S
C562 C560 1.394 . S
C562 C563 1.369 . S
C562 C566 1.531 . S
C563 C562 1.369 . S
C563 C564 1.410 . S
C563 C571 1.503 . S
C564 C563 1.410 . S
C564 C565 1.392 . S
C564 C567 1.511 . S
C565 C561 1.376 . S
C565 C564 1.392 . S
C565 H577 0.929 . S
C566 C562 1.531 . S
C566 H578 0.960 . S
C566 H579 0.962 . S
C566 H580 0.960 . S
C567 C564 1.511 . S
C567 H581 0.961 . S
C567 H582 0.961 . S
C567 H583 0.961 . S
C568 C569 1.370 . S
C568 C570 1.363 . S
C568 H584 0.931 . S
C569 C568 1.370 . S
C569 C573 1.408 . S
C570 C568 1.363 . S
C570 C571 1.370 . S
C570 C574 1.524 . S
C571 C563 1.503 . S
C571 C570 1.370 . S
C571 C572 1.403 . S
C572 C571 1.403 . S
C572 C573 1.404 . S
C572 C575 1.539 . S
C573 C569 1.408 . S
C573 C572 1.404 . S
C573 H585 0.930 . S
C574 C570 1.524 . S
C574 H586 0.956 . S
C574 H587 0.961 . S
C574 H588 0.961 . S
C575 C572 1.539 . S
C575 H589 0.958 . S
C575 H590 0.961 . S
C575 H591 0.960 . S
H576 C560 0.931 . S
H577 C565 0.929 . S
H578 C566 0.960 . S
H579 C566 0.962 . S
H580 C566 0.960 . S
H581 C567 0.961 . S
H582 C567 0.961 . S
H583 C567 0.961 . S
H584 C568 0.931 . S
H585 C573 0.930 . S
H586 C574 0.956 . S
H587 C574 0.961 . S
H588 C574 0.961 . S
H589 C575 0.958 . S
H590 C575 0.961 . S
H591 C575 0.960 . S
C592 C593 1.391 . S
C592 C594 1.394 . S
C592 H608 0.931 . S
C593 C592 1.391 . S
C593 C597 1.376 . S
C594 C592 1.394 . S
C594 C595 1.369 . S
C594 C598 1.531 . S
C595 C594 1.369 . S
C595 C596 1.410 . S
C595 C603 1.503 . S
C596 C595 1.410 . S
C596 C597 1.392 . S
C596 C599 1.511 . S
C597 C593 1.376 . S
C597 C596 1.392 . S
C597 H609 0.929 . S
C598 C594 1.531 . S
C598 H610 0.960 . S
C598 H611 0.962 . S
C598 H612 0.960 . S
C599 C596 1.511 . S
C599 H613 0.961 . S
C599 H614 0.961 . S
C599 H615 0.961 . S
C600 C601 1.370 . S
C600 C602 1.363 . S
C600 H616 0.931 1_554 S
C601 C600 1.370 . S
C601 C605 1.408 . S
C602 C600 1.363 . S
C602 C603 1.370 . S
C602 C606 1.524 1_554 S
C603 C595 1.503 . S
C603 C602 1.370 . S
C603 C604 1.403 . S
C604 C603 1.403 . S
C604 C605 1.404 . S
C604 C607 1.539 . S
C605 C601 1.408 . S
C605 C604 1.404 . S
C605 H617 0.930 . S
C606 C602 1.524 1_556 S
C606 H618 0.956 . S
C606 H619 0.961 . S
C606 H620 0.961 . S
C607 C604 1.539 . S
C607 H621 0.958 . S
C607 H622 0.961 . S
C607 H623 0.960 . S
H608 C592 0.931 . S
H609 C597 0.929 . S
H610 C598 0.960 . S
H611 C598 0.962 . S
H612 C598 0.960 . S
H613 C599 0.961 . S
H614 C599 0.961 . S
H615 C599 0.961 . S
H616 C600 0.931 1_556 S
H617 C605 0.930 . S
H618 C606 0.956 . S
H619 C606 0.961 . S
H620 C606 0.961 . S
H621 C607 0.958 . S
H622 C607 0.961 . S
H623 C607 0.960 . S
C624 C625 1.391 . S
C624 C626 1.394 . S
C624 H640 0.931 . S
C625 C624 1.391 . S
C625 C629 1.376 . S
C626 C624 1.394 . S
C626 C627 1.369 . S
C626 C630 1.531 . S
C627 C626 1.369 . S
C627 C628 1.410 . S
C627 C635 1.503 . S
C628 C627 1.410 . S
C628 C629 1.392 . S
C628 C631 1.522 . S
C629 C625 1.376 . S
C629 C628 1.392 . S
C629 H641 0.929 . S
C630 C626 1.531 . S
C630 H642 0.960 . S
C630 H643 0.962 . S
C630 H644 0.960 . S
C631 C628 1.522 . S
C631 H645 0.946 1_556 S
C631 H646 0.950 1_556 S
C631 H647 0.976 . S
C632 C633 1.370 1_554 S
C632 C634 1.363 . S
C632 H648 0.931 . S
C633 C632 1.370 1_556 S
C633 C637 1.408 . S
C634 C632 1.363 . S
C634 C635 1.370 1_554 S
C634 C638 1.524 . S
C635 C627 1.503 . S
C635 C634 1.370 1_556 S
C635 C636 1.403 . S
C636 C635 1.403 . S
C636 C637 1.404 . S
C636 C639 1.539 . S
C637 C633 1.408 . S
C637 C636 1.404 . S
C637 H649 0.930 . S
C638 C634 1.524 . S
C638 H650 0.956 . S
C638 H651 0.961 . S
C638 H652 0.961 . S
C639 C636 1.539 . S
C639 H653 0.958 . S
C639 H654 0.961 . S
C639 H655 0.960 . S
H640 C624 0.931 . S
H641 C629 0.929 . S
H642 C630 0.960 . S
H643 C630 0.962 . S
H644 C630 0.960 . S
H645 C631 0.946 1_554 S
H646 C631 0.950 1_554 S
H647 C631 0.976 . S
H648 C632 0.931 . S
H649 C637 0.930 . S
H650 C638 0.956 . S
H651 C638 0.961 . S
H652 C638 0.961 . S
H653 C639 0.958 . S
H654 C639 0.961 . S
H655 C639 0.960 . S
C656 C657 1.391 . S
C656 C658 1.394 . S
C656 H672 0.931 . S
C657 C656 1.391 . S
C657 C661 1.376 . S
C658 C656 1.394 . S
C658 C659 1.369 . S
C658 C662 1.531 . S
C659 C658 1.369 . S
C659 C660 1.410 . S
C659 C667 1.503 . S
C660 C659 1.410 . S
C660 C661 1.392 . S
C660 C663 1.511 . S
C661 C657 1.376 . S
C661 C660 1.392 . S
C661 H673 0.929 . S
C662 C658 1.531 . S
C662 H674 0.960 . S
C662 H675 0.962 . S
C662 H676 0.960 . S
C663 C660 1.511 . S
C663 H677 0.961 . S
C663 H678 0.961 . S
C663 H679 0.961 . S
C664 C665 1.370 . S
C664 C666 1.363 . S
C664 H680 0.931 . S
C665 C664 1.370 . S
C665 C669 1.408 . S
C666 C664 1.363 . S
C666 C667 1.370 . S
C666 C670 1.524 . S
C667 C659 1.503 . S
C667 C666 1.370 . S
C667 C668 1.403 . S
C668 C667 1.403 . S
C668 C669 1.404 . S
C668 C671 1.539 . S
C669 C665 1.408 . S
C669 C668 1.404 . S
C669 H681 0.930 . S
C670 C666 1.524 . S
C670 H682 0.956 . S
C670 H683 0.961 . S
C670 H684 0.961 . S
C671 C668 1.539 . S
C671 H685 0.958 . S
C671 H686 0.961 . S
C671 H687 0.960 . S
H672 C656 0.931 . S
H673 C661 0.929 . S
H674 C662 0.960 . S
H675 C662 0.962 . S
H676 C662 0.960 . S
H677 C663 0.961 . S
H678 C663 0.961 . S
H679 C663 0.961 . S
H680 C664 0.931 . S
H681 C669 0.930 . S
H682 C670 0.956 . S
H683 C670 0.961 . S
H684 C670 0.961 . S
H685 C671 0.958 . S
H686 C671 0.961 . S
H687 C671 0.960 . S
C688 C689 1.391 . S
C688 C690 1.394 . S
C688 H704 0.931 . S
C689 C688 1.391 . S
C689 C693 1.376 . S
C690 C688 1.394 . S
C690 C691 1.369 . S
C690 C694 1.531 . S
C691 C690 1.369 . S
C691 C692 1.410 . S
C691 C699 1.503 . S
C692 C691 1.410 . S
C692 C693 1.392 . S
C692 C695 1.511 . S
C693 C689 1.376 . S
C693 C692 1.392 . S
C693 H705 0.929 . S
C694 C690 1.531 . S
C694 H706 0.960 . S
C694 H707 0.962 . S
C694 H708 0.960 . S
C695 C692 1.511 . S
C695 H709 0.961 . S
C695 H710 0.961 . S
C695 H711 0.961 . S
C696 C697 1.370 . S
C696 C698 1.363 . S
C696 H712 0.931 . S
C697 C696 1.370 . S
C697 C701 1.408 . S
C698 C696 1.363 . S
C698 C699 1.370 . S
C698 C702 1.524 . S
C699 C691 1.503 . S
C699 C698 1.370 . S
C699 C700 1.403 . S
C700 C699 1.403 . S
C700 C701 1.404 . S
C700 C703 1.539 . S
C701 C697 1.408 . S
C701 C700 1.404 . S
C701 H713 0.930 . S
C702 C698 1.524 . S
C702 H714 0.956 . S
C702 H715 0.961 . S
C702 H716 0.961 . S
C703 C700 1.539 . S
C703 H717 0.958 . S
C703 H718 0.961 . S
C703 H719 0.960 . S
H704 C688 0.931 . S
H705 C693 0.929 . S
H706 C694 0.960 . S
H707 C694 0.962 . S
H708 C694 0.960 . S
H709 C695 0.961 . S
H710 C695 0.961 . S
H711 C695 0.961 . S
H712 C696 0.931 . S
H713 C701 0.930 . S
H714 C702 0.956 . S
H715 C702 0.961 . S
H716 C702 0.961 . S
H717 C703 0.958 . S
H718 C703 0.961 . S
H719 C703 0.960 . S
C720 C721 1.391 . S
C720 C722 1.394 . S
C720 H736 0.931 . S
C721 C720 1.391 . S
C721 C725 1.376 . S
C722 C720 1.394 . S
C722 C723 1.369 . S
C722 C726 1.531 . S
C723 C722 1.369 . S
C723 C724 1.410 . S
C723 C731 1.503 . S
C724 C723 1.410 . S
C724 C725 1.392 . S
C724 C727 1.511 . S
C725 C721 1.376 . S
C725 C724 1.392 . S
C725 H737 0.929 . S
C726 C722 1.531 . S
C726 H738 0.960 . S
C726 H739 0.962 . S
C726 H740 0.960 . S
C727 C724 1.511 . S
C727 H741 0.961 . S
C727 H742 0.961 . S
C727 H743 0.961 . S
C728 C729 1.370 . S
C728 C730 1.363 . S
C728 H744 0.931 . S
C729 C728 1.370 . S
C729 C733 1.408 . S
C730 C728 1.363 . S
C730 C731 1.370 . S
C730 C734 1.524 . S
C731 C723 1.503 . S
C731 C730 1.370 . S
C731 C732 1.403 . S
C732 C731 1.403 . S
C732 C733 1.404 . S
C732 C735 1.539 . S
C733 C729 1.408 . S
C733 C732 1.404 . S
C733 H745 0.930 . S
C734 C730 1.524 . S
C734 H746 0.956 . S
C734 H747 0.961 . S
C734 H748 0.961 . S
C735 C732 1.539 . S
C735 H749 0.958 . S
C735 H750 0.961 . S
C735 H751 0.960 . S
H736 C720 0.931 . S
H737 C725 0.929 . S
H738 C726 0.960 . S
H739 C726 0.962 . S
H740 C726 0.960 . S
H741 C727 0.961 . S
H742 C727 0.961 . S
H743 C727 0.961 . S
H744 C728 0.931 . S
H745 C733 0.930 . S
H746 C734 0.956 . S
H747 C734 0.961 . S
H748 C734 0.961 . S
H749 C735 0.958 . S
H750 C735 0.961 . S
H751 C735 0.960 . S
C752 C753 1.391 . S
C752 C754 1.394 . S
C752 H768 0.931 . S
C753 C752 1.391 . S
C753 C757 1.376 . S
C754 C752 1.394 . S
C754 C755 1.369 . S
C754 C758 1.531 . S
C755 C754 1.369 . S
C755 C756 1.410 . S
C755 C763 1.503 . S
C756 C755 1.410 . S
C756 C757 1.392 . S
C756 C759 1.511 . S
C757 C753 1.376 . S
C757 C756 1.392 . S
C757 H769 0.929 . S
C758 C754 1.531 . S
C758 H770 0.960 . S
C758 H771 0.962 . S
C758 H772 0.960 . S
C759 C756 1.511 . S
C759 H773 0.961 . S
C759 H774 0.961 . S
C759 H775 0.961 . S
C760 C761 1.370 . S
C760 C762 1.363 . S
C760 H776 0.931 . S
C761 C760 1.370 . S
C761 C765 1.408 . S
C762 C760 1.363 . S
C762 C763 1.370 . S
C762 C766 1.524 . S
C763 C755 1.503 . S
C763 C762 1.370 . S
C763 C764 1.403 . S
C764 C763 1.403 . S
C764 C765 1.404 . S
C764 C767 1.539 . S
C765 C761 1.408 . S
C765 C764 1.404 . S
C765 H777 0.930 . S
C766 C762 1.524 . S
C766 H778 0.956 . S
C766 H779 0.961 . S
C766 H780 0.961 . S
C767 C764 1.539 . S
C767 H781 0.958 . S
C767 H782 0.961 . S
C767 H783 0.960 . S
H768 C752 0.931 . S
H769 C757 0.929 . S
H770 C758 0.960 . S
H771 C758 0.962 . S
H772 C758 0.960 . S
H773 C759 0.961 . S
H774 C759 0.961 . S
H775 C759 0.961 . S
H776 C760 0.931 . S
H777 C765 0.930 . S
H778 C766 0.956 . S
H779 C766 0.961 . S
H780 C766 0.961 . S
H781 C767 0.958 . S
H782 C767 0.961 . S
H783 C767 0.960 . S
C784 C785 1.391 . S
C784 C786 1.394 . S
C784 H800 0.931 . S
C785 C784 1.391 . S
C785 C789 1.376 . S
C786 C784 1.394 . S
C786 C787 1.369 . S
C786 C790 1.531 . S
C787 C786 1.369 . S
C787 C788 1.410 . S
C787 C795 1.503 . S
C788 C787 1.410 . S
C788 C789 1.392 . S
C788 C791 1.511 1_554 S
C789 C785 1.376 . S
C789 C788 1.392 . S
C789 H801 0.929 . S
C790 C786 1.531 . S
C790 H802 0.960 . S
C790 H803 0.962 . S
C790 H804 0.960 . S
C791 C788 1.511 1_556 S
C791 H805 0.961 . S
C791 H806 0.961 . S
C791 H807 0.961 . S
C792 C793 1.370 . S
C792 C794 1.363 . S
C792 H808 0.931 1_554 S
C793 C792 1.370 . S
C793 C797 1.408 . S
C794 C792 1.363 . S
C794 C795 1.370 . S
C794 C798 1.524 . S
C795 C787 1.503 . S
C795 C794 1.370 . S
C795 C796 1.403 . S
C796 C795 1.403 . S
C796 C797 1.404 . S
C796 C799 1.539 . S
C797 C793 1.408 . S
C797 C796 1.404 . S
C797 H809 0.930 . S
C798 C794 1.524 . S
C798 H810 0.956 . S
C798 H811 0.961 1_554 S
C798 H812 0.961 1_554 S
C799 C796 1.539 . S
C799 H813 0.958 . S
C799 H814 0.961 . S
C799 H815 0.960 . S
H800 C784 0.931 . S
H801 C789 0.929 . S
H802 C790 0.960 . S
H803 C790 0.962 . S
H804 C790 0.960 . S
H805 C791 0.961 . S
H806 C791 0.961 . S
H807 C791 0.961 . S
H808 C792 0.931 1_556 S
H809 C797 0.930 . S
H810 C798 0.956 . S
H811 C798 0.961 1_556 S
H812 C798 0.961 1_556 S
H813 C799 0.958 . S
H814 C799 0.961 . S
H815 C799 0.960 . S
C816 C817 1.391 . S
C816 C818 1.394 . S
C816 H832 0.931 . S
C817 C816 1.391 . S
C817 C821 1.376 . S
C818 C816 1.394 . S
C818 C819 1.369 . S
C818 C822 1.531 . S
C819 C818 1.369 . S
C819 C820 1.410 . S
C819 C827 1.503 . S
C820 C819 1.410 . S
C820 C821 1.392 . S
C820 C823 1.511 . S
C821 C817 1.376 . S
C821 C820 1.392 . S
C821 H833 0.929 . S
C822 C818 1.531 . S
C822 H834 0.960 . S
C822 H835 0.962 . S
C822 H836 0.960 . S
C823 C820 1.511 . S
C823 H837 0.961 . S
C823 H838 0.961 . S
C823 H839 0.961 . S
C824 C825 1.370 . S
C824 C826 1.363 . S
C824 H840 0.931 . S
C825 C824 1.370 . S
C825 C829 1.408 . S
C826 C824 1.363 . S
C826 C827 1.370 . S
C826 C830 1.524 . S
C827 C819 1.503 . S
C827 C826 1.370 . S
C827 C828 1.403 . S
C828 C827 1.403 . S
C828 C829 1.404 . S
C828 C831 1.539 . S
C829 C825 1.408 . S
C829 C828 1.404 . S
C829 H841 0.930 . S
C830 C826 1.524 . S
C830 H842 0.956 . S
C830 H843 0.961 . S
C830 H844 0.961 . S
C831 C828 1.539 . S
C831 H845 0.958 . S
C831 H846 0.961 . S
C831 H847 0.960 . S
H832 C816 0.931 . S
H833 C821 0.929 . S
H834 C822 0.960 . S
H835 C822 0.962 . S
H836 C822 0.960 . S
H837 C823 0.961 . S
H838 C823 0.961 . S
H839 C823 0.961 . S
H840 C824 0.931 . S
H841 C829 0.930 . S
H842 C830 0.956 . S
H843 C830 0.961 . S
H844 C830 0.961 . S
H845 C831 0.958 . S
H846 C831 0.961 . S
H847 C831 0.960 . S
C848 C849 1.391 . S
C848 C850 1.394 . S
C848 H864 0.931 . S
C849 C848 1.391 . S
C849 C853 1.376 . S
C850 C848 1.394 . S
C850 C851 1.369 . S
C850 C854 1.531 . S
C851 C850 1.369 . S
C851 C852 1.410 . S
C851 C859 1.503 . S
C852 C851 1.410 . S
C852 C853 1.392 . S
C852 C855 1.511 . S
C853 C849 1.376 . S
C853 C852 1.392 . S
C853 H865 0.929 . S
C854 C850 1.531 . S
C854 H866 0.960 . S
C854 H867 0.962 . S
C854 H868 0.960 . S
C855 C852 1.511 . S
C855 H869 0.961 . S
C855 H870 0.961 . S
C855 H871 0.961 . S
C856 C857 1.370 . S
C856 C858 1.363 . S
C856 H872 0.931 . S
C857 C856 1.370 . S
C857 C861 1.408 . S
C858 C856 1.363 . S
C858 C859 1.370 . S
C858 C862 1.524 . S
C859 C851 1.503 . S
C859 C858 1.370 . S
C859 C860 1.403 . S
C860 C859 1.403 . S
C860 C861 1.404 . S
C860 C863 1.539 . S
C861 C857 1.408 . S
C861 C860 1.404 . S
C861 H873 0.930 . S
C862 C858 1.524 . S
C862 H874 0.956 . S
C862 H875 0.961 . S
C862 H876 0.961 . S
C863 C860 1.539 . S
C863 H877 0.958 . S
C863 H878 0.961 . S
C863 H879 0.960 . S
H864 C848 0.931 . S
H865 C853 0.929 . S
H866 C854 0.960 . S
H867 C854 0.962 . S
H868 C854 0.960 . S
H869 C855 0.961 . S
H870 C855 0.961 . S
H871 C855 0.961 . S
H872 C856 0.931 . S
H873 C861 0.930 . S
H874 C862 0.956 . S
H875 C862 0.961 . S
H876 C862 0.961 . S
H877 C863 0.958 . S
H878 C863 0.961 . S
H879 C863 0.960 . S
C880 C881 1.391 . S
C880 C882 1.394 . S
C880 H896 0.931 . S
C881 C880 1.391 . S
C881 C885 1.376 . S
C882 C880 1.394 . S
C882 C883 1.369 . S
C882 C886 1.531 . S
C883 C882 1.369 . S
C883 C884 1.410 . S
C883 C891 1.503 . S
C884 C883 1.410 . S
C884 C885 1.392 . S
C884 C887 1.511 . S
C885 C881 1.376 . S
C885 C884 1.392 . S
C885 H897 0.929 . S
C886 C882 1.531 . S
C886 H898 0.960 . S
C886 H899 0.962 . S
C886 H900 0.960 . S
C887 C884 1.511 . S
C887 H901 0.961 . S
C887 H902 0.961 . S
C887 H903 0.961 . S
C888 C889 1.370 . S
C888 C890 1.363 . S
C888 H904 0.931 . S
C889 C888 1.370 . S
C889 C893 1.408 . S
C890 C888 1.363 . S
C890 C891 1.370 . S
C890 C894 1.524 . S
C891 C883 1.503 . S
C891 C890 1.370 . S
C891 C892 1.403 . S
C892 C891 1.403 . S
C892 C893 1.404 . S
C892 C895 1.539 . S
C893 C889 1.408 . S
C893 C892 1.404 . S
C893 H905 0.930 . S
C894 C890 1.524 . S
C894 H906 0.956 . S
C894 H907 0.961 . S
C894 H908 0.961 . S
C895 C892 1.539 . S
C895 H909 0.958 . S
C895 H910 0.961 . S
C895 H911 0.960 . S
H896 C880 0.931 . S
H897 C885 0.929 . S
H898 C886 0.960 . S
H899 C886 0.962 . S
H900 C886 0.960 . S
H901 C887 0.961 . S
H902 C887 0.961 . S
H903 C887 0.961 . S
H904 C888 0.931 . S
H905 C893 0.930 . S
H906 C894 0.956 . S
H907 C894 0.961 . S
H908 C894 0.961 . S
H909 C895 0.958 . S
H910 C895 0.961 . S
H911 C895 0.960 . S
C912 C913 1.391 . S
C912 C914 1.394 . S
C912 H928 0.931 . S
C913 C912 1.391 . S
C913 C917 1.376 . S
C914 C912 1.394 . S
C914 C915 1.369 . S
C914 C918 1.531 . S
C915 C914 1.369 . S
C915 C916 1.410 . S
C915 C923 1.503 . S
C916 C915 1.410 . S
C916 C917 1.392 . S
C916 C919 1.511 . S
C917 C913 1.376 . S
C917 C916 1.392 . S
C917 H929 0.929 . S
C918 C914 1.531 . S
C918 H930 0.960 . S
C918 H931 0.962 . S
C918 H932 0.960 . S
C919 C916 1.511 . S
C919 H933 0.961 . S
C919 H934 0.961 . S
C919 H935 0.961 . S
C920 C921 1.370 . S
C920 C922 1.363 . S
C920 H936 0.931 . S
C921 C920 1.370 . S
C921 C925 1.408 . S
C922 C920 1.363 . S
C922 C923 1.370 . S
C922 C926 1.524 . S
C923 C915 1.503 . S
C923 C922 1.370 . S
C923 C924 1.403 . S
C924 C923 1.403 . S
C924 C925 1.404 . S
C924 C927 1.539 . S
C925 C921 1.408 . S
C925 C924 1.404 . S
C925 H937 0.930 . S
C926 C922 1.524 . S
C926 H938 0.956 . S
C926 H939 0.961 . S
C926 H940 0.961 . S
C927 C924 1.539 . S
C927 H941 0.958 . S
C927 H942 0.961 . S
C927 H943 0.960 . S
H928 C912 0.931 . S
H929 C917 0.929 . S
H930 C918 0.960 . S
H931 C918 0.962 . S
H932 C918 0.960 . S
H933 C919 0.961 . S
H934 C919 0.961 . S
H935 C919 0.961 . S
H936 C920 0.931 . S
H937 C925 0.930 . S
H938 C926 0.956 . S
H939 C926 0.961 . S
H940 C926 0.961 . S
H941 C927 0.958 . S
H942 C927 0.961 . S
H943 C927 0.960 . S
C944 C945 1.391 . S
C944 C946 1.394 . S
C944 H960 0.931 . S
C945 C944 1.391 . S
C945 C949 1.376 . S
C946 C944 1.394 . S
C946 C947 1.369 . S
C946 C950 1.531 1_556 S
C947 C946 1.369 . S
C947 C948 1.410 . S
C947 C955 1.503 . S
C948 C947 1.410 . S
C948 C949 1.392 . S
C948 C951 1.511 . S
C949 C945 1.376 . S
C949 C948 1.392 . S
C949 H961 0.929 . S
C950 C946 1.531 1_554 S
C950 H962 0.960 1_554 S
C950 H963 0.962 . S
C950 H964 0.960 . S
C951 C948 1.511 . S
C951 H965 0.961 . S
C951 H966 0.961 . S
C951 H967 0.961 . S
C952 C953 1.365 1_554 S
C952 C954 1.361 1_554 S
C952 H968 0.938 . S
C953 C952 1.365 1_556 S
C953 C957 1.408 . S
C954 C952 1.361 1_556 S
C954 C955 1.370 . S
C954 C958 1.524 1_556 S
C955 C947 1.503 . S
C955 C954 1.370 . S
C955 C956 1.403 . S
C956 C955 1.403 . S
C956 C957 1.404 . S
C956 C959 1.539 . S
C957 C953 1.408 . S
C957 C956 1.404 . S
C957 H969 0.930 . S
C958 C954 1.524 1_554 S
C958 H970 0.956 . S
C958 H971 0.961 1_554 S
C958 H972 0.961 . S
C959 C956 1.539 . S
C959 H973 0.958 . S
C959 H974 0.961 . S
C959 H975 0.960 . S
H960 C944 0.931 . S
H961 C949 0.929 . S
H962 C950 0.960 1_556 S
H963 C950 0.962 . S
H964 C950 0.960 . S
H965 C951 0.961 . S
H966 C951 0.961 . S
H967 C951 0.961 . S
H968 C952 0.938 . S
H969 C957 0.930 . S
H970 C958 0.956 . S
H971 C958 0.961 1_556 S
H972 C958 0.961 . S
H973 C959 0.958 . S
H974 C959 0.961 . S
H975 C959 0.960 . S
C976 C977 1.391 . S
C976 C978 1.394 . S
C976 H992 0.931 . S
C977 C976 1.391 . S
C977 C981 1.376 . S
C978 C976 1.394 . S
C978 C979 1.369 . S
C978 C982 1.531 . S
C979 C978 1.369 . S
C979 C980 1.410 . S
C979 C987 1.503 . S
C980 C979 1.410 . S
C980 C981 1.392 . S
C980 C983 1.511 . S
C981 C977 1.376 . S
C981 C980 1.392 . S
C981 H993 0.929 . S
C982 C978 1.531 . S
C982 H994 0.960 . S
C982 H995 0.962 . S
C982 H996 0.960 . S
C983 C980 1.511 . S
C983 H997 0.961 . S
C983 H998 0.961 . S
C983 H999 0.961 . S
C984 C985 1.370 . S
C984 C986 1.363 . S
C984 H1000 0.931 . S
C985 C984 1.370 . S
C985 C989 1.408 . S
C986 C984 1.363 . S
C986 C987 1.370 . S
C986 C990 1.524 . S
C987 C979 1.503 . S
C987 C986 1.370 . S
C987 C988 1.403 . S
C988 C987 1.403 . S
C988 C989 1.404 . S
C988 C991 1.539 . S
C989 C985 1.408 . S
C989 C988 1.404 . S
C989 H1001 0.930 . S
C990 C986 1.524 . S
C990 H1002 0.956 . S
C990 H1003 0.961 . S
C990 H1004 0.961 . S
C991 C988 1.539 . S
C991 H1005 0.958 . S
C991 H1006 0.961 . S
C991 H1007 0.960 . S
H992 C976 0.931 . S
H993 C981 0.929 . S
H994 C982 0.960 . S
H995 C982 0.962 . S
H996 C982 0.960 . S
H997 C983 0.961 . S
H998 C983 0.961 . S
H999 C983 0.961 . S
H1000 C984 0.931 . S
H1001 C989 0.930 . S
H1002 C990 0.956 . S
H1003 C990 0.961 . S
H1004 C990 0.961 . S
H1005 C991 0.958 . S
H1006 C991 0.961 . S
H1007 C991 0.960 . S
C1008 C1009 1.391 . S
C1008 C1010 1.394 . S
C1008 H1024 0.931 . S
C1009 C1008 1.391 . S
C1009 C1013 1.376 . S
C1010 C1008 1.394 . S
C1010 C1011 1.369 . S
C1010 C1014 1.531 . S
C1011 C1010 1.369 . S
C1011 C1012 1.410 . S
C1011 C1019 1.503 . S
C1012 C1011 1.410 . S
C1012 C1013 1.392 . S
C1012 C1015 1.511 . S
C1013 C1009 1.376 . S
C1013 C1012 1.392 . S
C1013 H1025 0.929 . S
C1014 C1010 1.531 . S
C1014 H1026 0.960 . S
C1014 H1027 0.962 . S
C1014 H1028 0.960 . S
C1015 C1012 1.511 . S
C1015 H1029 0.961 . S
C1015 H1030 0.961 . S
C1015 H1031 0.961 . S
C1016 C1017 1.370 . S
C1016 C1018 1.363 . S
C1016 H1032 0.931 . S
C1017 C1016 1.370 . S
C1017 C1021 1.408 . S
C1018 C1016 1.363 . S
C1018 C1019 1.370 . S
C1018 C1022 1.524 . S
C1019 C1011 1.503 . S
C1019 C1018 1.370 . S
C1019 C1020 1.403 . S
C1020 C1019 1.403 . S
C1020 C1021 1.404 . S
C1020 C1023 1.539 . S
C1021 C1017 1.408 . S
C1021 C1020 1.404 . S
C1021 H1033 0.930 . S
C1022 C1018 1.524 . S
C1022 H1034 0.956 . S
C1022 H1035 0.961 . S
C1022 H1036 0.961 . S
C1023 C1020 1.539 . S
C1023 H1037 0.958 . S
C1023 H1038 0.961 . S
C1023 H1039 0.960 . S
H1024 C1008 0.931 . S
H1025 C1013 0.929 . S
H1026 C1014 0.960 . S
H1027 C1014 0.962 . S
H1028 C1014 0.960 . S
H1029 C1015 0.961 . S
H1030 C1015 0.961 . S
H1031 C1015 0.961 . S
H1032 C1016 0.931 . S
H1033 C1021 0.930 . S
H1034 C1022 0.956 . S
H1035 C1022 0.961 . S
H1036 C1022 0.961 . S
H1037 C1023 0.958 . S
H1038 C1023 0.961 . S
H1039 C1023 0.960 . S
C1040 C1041 1.391 . S
C1040 C1042 1.394 . S
C1040 H1056 0.931 . S
C1041 C1040 1.391 . S
C1041 C1045 1.376 . S
C1042 C1040 1.394 . S
C1042 C1043 1.369 . S
C1042 C1046 1.531 . S
C1043 C1042 1.369 . S
C1043 C1044 1.410 . S
C1043 C1051 1.503 . S
C1044 C1043 1.410 . S
C1044 C1045 1.392 . S
C1044 C1047 1.511 . S
C1045 C1041 1.376 . S
C1045 C1044 1.392 . S
C1045 H1057 0.929 . S
C1046 C1042 1.531 . S
C1046 H1058 0.960 . S
C1046 H1059 0.962 . S
C1046 H1060 0.960 . S
C1047 C1044 1.511 . S
C1047 H1061 0.961 . S
C1047 H1062 0.961 . S
C1047 H1063 0.961 . S
C1048 C1049 1.370 . S
C1048 C1050 1.363 . S
C1048 H1064 0.931 . S
C1049 C1048 1.370 . S
C1049 C1053 1.408 . S
C1050 C1048 1.363 . S
C1050 C1051 1.370 . S
C1050 C1054 1.524 . S
C1051 C1043 1.503 . S
C1051 C1050 1.370 . S
C1051 C1052 1.403 . S
C1052 C1051 1.403 . S
C1052 C1053 1.404 . S
C1052 C1055 1.539 . S
C1053 C1049 1.408 . S
C1053 C1052 1.404 . S
C1053 H1065 0.930 . S
C1054 C1050 1.524 . S
C1054 H1066 0.956 . S
C1054 H1067 0.961 . S
C1054 H1068 0.961 . S
C1055 C1052 1.539 . S
C1055 H1069 0.958 . S
C1055 H1070 0.961 . S
C1055 H1071 0.960 . S
H1056 C1040 0.931 . S
H1057 C1045 0.929 . S
H1058 C1046 0.960 . S
H1059 C1046 0.962 . S
H1060 C1046 0.960 . S
H1061 C1047 0.961 . S
H1062 C1047 0.961 . S
H1063 C1047 0.961 . S
H1064 C1048 0.931 . S
H1065 C1053 0.930 . S
H1066 C1054 0.956 . S
H1067 C1054 0.961 . S
H1068 C1054 0.961 . S
H1069 C1055 0.958 . S
H1070 C1055 0.961 . S
H1071 C1055 0.960 . S
C1072 C1073 1.391 . S
C1072 C1074 1.394 . S
C1072 H1088 0.931 . S
C1073 C1072 1.391 . S
C1073 C1077 1.376 . S
C1074 C1072 1.394 . S
C1074 C1075 1.369 . S
C1074 C1078 1.531 . S
C1075 C1074 1.369 . S
C1075 C1076 1.410 . S
C1075 C1083 1.503 . S
C1076 C1075 1.410 . S
C1076 C1077 1.392 . S
C1076 C1079 1.511 . S
C1077 C1073 1.376 . S
C1077 C1076 1.392 . S
C1077 H1089 0.929 . S
C1078 C1074 1.531 . S
C1078 H1090 0.960 . S
C1078 H1091 0.962 . S
C1078 H1092 0.960 . S
C1079 C1076 1.511 . S
C1079 H1093 0.961 . S
C1079 H1094 0.961 . S
C1079 H1095 0.961 . S
C1080 C1081 1.370 . S
C1080 C1082 1.363 . S
C1080 H1096 0.931 . S
C1081 C1080 1.370 . S
C1081 C1085 1.408 . S
C1082 C1080 1.363 . S
C1082 C1083 1.370 . S
C1082 C1086 1.524 . S
C1083 C1075 1.503 . S
C1083 C1082 1.370 . S
C1083 C1084 1.403 . S
C1084 C1083 1.403 . S
C1084 C1085 1.404 . S
C1084 C1087 1.539 . S
C1085 C1081 1.408 . S
C1085 C1084 1.404 . S
C1085 H1097 0.930 . S
C1086 C1082 1.524 . S
C1086 H1098 0.956 . S
C1086 H1099 0.961 . S
C1086 H1100 0.961 . S
C1087 C1084 1.539 . S
C1087 H1101 0.958 . S
C1087 H1102 0.961 . S
C1087 H1103 0.960 . S
H1088 C1072 0.931 . S
H1089 C1077 0.929 . S
H1090 C1078 0.960 . S
H1091 C1078 0.962 . S
H1092 C1078 0.960 . S
H1093 C1079 0.961 . S
H1094 C1079 0.961 . S
H1095 C1079 0.961 . S
H1096 C1080 0.931 . S
H1097 C1085 0.930 . S
H1098 C1086 0.956 . S
H1099 C1086 0.961 . S
H1100 C1086 0.961 . S
H1101 C1087 0.958 . S
H1102 C1087 0.961 . S
H1103 C1087 0.960 . S
C1104 C1105 1.391 . S
C1104 C1106 1.394 . S
C1104 H1120 0.931 . S
C1105 C1104 1.391 . S
C1105 C1109 1.376 . S
C1106 C1104 1.394 . S
C1106 C1107 1.369 . S
C1106 C1110 1.531 . S
C1107 C1106 1.369 . S
C1107 C1108 1.410 . S
C1107 C1115 1.503 . S
C1108 C1107 1.410 . S
C1108 C1109 1.392 . S
C1108 C1111 1.511 . S
C1109 C1105 1.376 . S
C1109 C1108 1.392 . S
C1109 H1121 0.929 . S
C1110 C1106 1.531 . S
C1110 H1122 0.960 . S
C1110 H1123 0.962 . S
C1110 H1124 0.960 . S
C1111 C1108 1.511 . S
C1111 H1125 0.961 . S
C1111 H1126 0.961 . S
C1111 H1127 0.961 . S
C1112 C1113 1.370 . S
C1112 C1114 1.363 . S
C1112 H1128 0.931 . S
C1113 C1112 1.370 . S
C1113 C1117 1.408 . S
C1114 C1112 1.363 . S
C1114 C1115 1.370 . S
C1114 C1118 1.524 . S
C1115 C1107 1.503 . S
C1115 C1114 1.370 . S
C1115 C1116 1.403 . S
C1116 C1115 1.403 . S
C1116 C1117 1.404 . S
C1116 C1119 1.539 . S
C1117 C1113 1.408 . S
C1117 C1116 1.404 . S
C1117 H1129 0.930 . S
C1118 C1114 1.524 . S
C1118 H1130 0.956 . S
C1118 H1131 0.961 . S
C1118 H1132 0.961 . S
C1119 C1116 1.539 . S
C1119 H1133 0.958 . S
C1119 H1134 0.961 . S
C1119 H1135 0.960 . S
H1120 C1104 0.931 . S
H1121 C1109 0.929 . S
H1122 C1110 0.960 . S
H1123 C1110 0.962 . S
H1124 C1110 0.960 . S
H1125 C1111 0.961 . S
H1126 C1111 0.961 . S
H1127 C1111 0.961 . S
H1128 C1112 0.931 . S
H1129 C1117 0.930 . S
H1130 C1118 0.956 . S
H1131 C1118 0.961 . S
H1132 C1118 0.961 . S
H1133 C1119 0.958 . S
H1134 C1119 0.961 . S
H1135 C1119 0.960 . S
C1136 C1137 1.391 . S
C1136 C1138 1.394 . S
C1136 H1152 0.931 . S
C1137 C1136 1.391 . S
C1137 C1141 1.376 . S
C1138 C1136 1.394 . S
C1138 C1139 1.369 . S
C1138 C1142 1.531 . S
C1139 C1138 1.369 . S
C1139 C1140 1.410 . S
C1139 C1147 1.503 . S
C1140 C1139 1.410 . S
C1140 C1141 1.392 . S
C1140 C1143 1.511 . S
C1141 C1137 1.376 . S
C1141 C1140 1.392 . S
C1141 H1153 0.929 . S
C1142 C1138 1.531 . S
C1142 H1154 0.960 . S
C1142 H1155 0.962 . S
C1142 H1156 0.960 . S
C1143 C1140 1.511 . S
C1143 H1157 0.961 . S
C1143 H1158 0.961 . S
C1143 H1159 0.961 . S
C1144 C1145 1.370 . S
C1144 C1146 1.363 . S
C1144 H1160 0.931 . S
C1145 C1144 1.370 . S
C1145 C1149 1.408 . S
C1146 C1144 1.363 . S
C1146 C1147 1.370 . S
C1146 C1150 1.524 . S
C1147 C1139 1.503 . S
C1147 C1146 1.370 . S
C1147 C1148 1.403 . S
C1148 C1147 1.403 . S
C1148 C1149 1.404 . S
C1148 C1151 1.539 . S
C1149 C1145 1.408 . S
C1149 C1148 1.404 . S
C1149 H1161 0.930 . S
C1150 C1146 1.524 . S
C1150 H1162 0.956 . S
C1150 H1163 0.961 . S
C1150 H1164 0.961 . S
C1151 C1148 1.539 . S
C1151 H1165 0.958 . S
C1151 H1166 0.961 . S
C1151 H1167 0.960 . S
H1152 C1136 0.931 . S
H1153 C1141 0.929 . S
H1154 C1142 0.960 . S
H1155 C1142 0.962 . S
H1156 C1142 0.960 . S
H1157 C1143 0.961 . S
H1158 C1143 0.961 . S
H1159 C1143 0.961 . S
H1160 C1144 0.931 . S
H1161 C1149 0.930 . S
H1162 C1150 0.956 . S
H1163 C1150 0.961 . S
H1164 C1150 0.961 . S
H1165 C1151 0.958 . S
H1166 C1151 0.961 . S
H1167 C1151 0.960 . S
C1168 C1169 1.391 . S
C1168 C1170 1.394 . S
C1168 H1184 0.931 . S
C1169 C1168 1.391 . S
C1169 C1173 1.376 . S
C1170 C1168 1.394 . S
C1170 C1171 1.369 . S
C1170 C1174 1.531 . S
C1171 C1170 1.369 . S
C1171 C1172 1.410 . S
C1171 C1179 1.503 . S
C1172 C1171 1.410 . S
C1172 C1173 1.392 . S
C1172 C1175 1.511 . S
C1173 C1169 1.376 . S
C1173 C1172 1.392 . S
C1173 H1185 0.929 . S
C1174 C1170 1.531 . S
C1174 H1186 0.960 . S
C1174 H1187 0.962 . S
C1174 H1188 0.960 . S
C1175 C1172 1.511 . S
C1175 H1189 0.961 . S
C1175 H1190 0.961 . S
C1175 H1191 0.961 . S
C1176 C1177 1.370 . S
C1176 C1178 1.363 . S
C1176 H1192 0.931 . S
C1177 C1176 1.370 . S
C1177 C1181 1.408 . S
C1178 C1176 1.363 . S
C1178 C1179 1.370 . S
C1178 C1182 1.524 . S
C1179 C1171 1.503 . S
C1179 C1178 1.370 . S
C1179 C1180 1.403 . S
C1180 C1179 1.403 . S
C1180 C1181 1.404 . S
C1180 C1183 1.539 . S
C1181 C1177 1.408 . S
C1181 C1180 1.404 . S
C1181 H1193 0.930 . S
C1182 C1178 1.524 . S
C1182 H1194 0.956 . S
C1182 H1195 0.961 . S
C1182 H1196 0.961 . S
C1183 C1180 1.539 . S
C1183 H1197 0.958 . S
C1183 H1198 0.961 . S
C1183 H1199 0.960 . S
H1184 C1168 0.931 . S
H1185 C1173 0.929 . S
H1186 C1174 0.960 . S
H1187 C1174 0.962 . S
H1188 C1174 0.960 . S
H1189 C1175 0.961 . S
H1190 C1175 0.961 . S
H1191 C1175 0.961 . S
H1192 C1176 0.931 . S
H1193 C1181 0.930 . S
H1194 C1182 0.956 . S
H1195 C1182 0.961 . S
H1196 C1182 0.961 . S
H1197 C1183 0.958 . S
H1198 C1183 0.961 . S
H1199 C1183 0.960 . S
C1200 C1201 1.391 . S
C1200 C1202 1.394 . S
C1200 H1216 0.931 . S
C1201 C1200 1.391 . S
C1201 C1205 1.376 . S
C1202 C1200 1.394 . S
C1202 C1203 1.369 . S
C1202 C1206 1.531 . S
C1203 C1202 1.369 . S
C1203 C1204 1.410 . S
C1203 C1211 1.503 . S
C1204 C1203 1.410 . S
C1204 C1205 1.392 . S
C1204 C1207 1.511 . S
C1205 C1201 1.376 . S
C1205 C1204 1.392 . S
C1205 H1217 0.929 . S
C1206 C1202 1.531 . S
C1206 H1218 0.960 . S
C1206 H1219 0.962 . S
C1206 H1220 0.960 . S
C1207 C1204 1.511 . S
C1207 H1221 0.961 . S
C1207 H1222 0.961 . S
C1207 H1223 0.961 . S
C1208 C1209 1.370 . S
C1208 C1210 1.363 . S
C1208 H1224 0.931 . S
C1209 C1208 1.370 . S
C1209 C1213 1.408 . S
C1210 C1208 1.363 . S
C1210 C1211 1.370 . S
C1210 C1214 1.524 . S
C1211 C1203 1.503 . S
C1211 C1210 1.370 . S
C1211 C1212 1.403 . S
C1212 C1211 1.403 . S
C1212 C1213 1.404 . S
C1212 C1215 1.539 . S
C1213 C1209 1.408 . S
C1213 C1212 1.404 . S
C1213 H1225 0.930 . S
C1214 C1210 1.524 . S
C1214 H1226 0.956 . S
C1214 H1227 0.961 . S
C1214 H1228 0.961 . S
C1215 C1212 1.539 . S
C1215 H1229 0.958 . S
C1215 H1230 0.961 . S
C1215 H1231 0.960 . S
H1216 C1200 0.931 . S
H1217 C1205 0.929 . S
H1218 C1206 0.960 . S
H1219 C1206 0.962 . S
H1220 C1206 0.960 . S
H1221 C1207 0.961 . S
H1222 C1207 0.961 . S
H1223 C1207 0.961 . S
H1224 C1208 0.931 . S
H1225 C1213 0.930 . S
H1226 C1214 0.956 . S
H1227 C1214 0.961 . S
H1228 C1214 0.961 . S
H1229 C1215 0.958 . S
H1230 C1215 0.961 . S
H1231 C1215 0.960 . S
C1232 C1233 1.391 . S
C1232 C1234 1.394 . S
C1232 H1248 0.931 . S
C1233 C1232 1.391 . S
C1233 C1237 1.376 . S
C1234 C1232 1.394 . S
C1234 C1235 1.369 . S
C1234 C1238 1.531 . S
C1235 C1234 1.369 . S
C1235 C1236 1.410 . S
C1235 C1243 1.503 . S
C1236 C1235 1.410 . S
C1236 C1237 1.392 . S
C1236 C1239 1.511 . S
C1237 C1233 1.376 . S
C1237 C1236 1.392 . S
C1237 H1249 0.929 . S
C1238 C1234 1.531 . S
C1238 H1250 0.960 . S
C1238 H1251 0.962 . S
C1238 H1252 0.960 . S
C1239 C1236 1.511 . S
C1239 H1253 0.961 . S
C1239 H1254 0.961 . S
C1239 H1255 0.961 . S
C1240 C1241 1.370 . S
C1240 C1242 1.363 . S
C1240 H1256 0.931 . S
C1241 C1240 1.370 . S
C1241 C1245 1.408 . S
C1242 C1240 1.363 . S
C1242 C1243 1.370 . S
C1242 C1246 1.524 . S
C1243 C1235 1.503 . S
C1243 C1242 1.370 . S
C1243 C1244 1.403 . S
C1244 C1243 1.403 . S
C1244 C1245 1.404 . S
C1244 C1247 1.539 . S
C1245 C1241 1.408 . S
C1245 C1244 1.404 . S
C1245 H1257 0.930 . S
C1246 C1242 1.524 . S
C1246 H1258 0.956 . S
C1246 H1259 0.961 . S
C1246 H1260 0.961 . S
C1247 C1244 1.539 . S
C1247 H1261 0.958 . S
C1247 H1262 0.961 . S
C1247 H1263 0.960 . S
H1248 C1232 0.931 . S
H1249 C1237 0.929 . S
H1250 C1238 0.960 . S
H1251 C1238 0.962 . S
H1252 C1238 0.960 . S
H1253 C1239 0.961 . S
H1254 C1239 0.961 . S
H1255 C1239 0.961 . S
H1256 C1240 0.931 . S
H1257 C1245 0.930 . S
H1258 C1246 0.956 . S
H1259 C1246 0.961 . S
H1260 C1246 0.961 . S
H1261 C1247 0.958 . S
H1262 C1247 0.961 . S
H1263 C1247 0.960 . S
C1264 C1265 1.391 . S
C1264 C1266 1.394 . S
C1264 H1280 0.931 . S
C1265 C1264 1.391 . S
C1265 C1269 1.376 . S
C1266 C1264 1.394 . S
C1266 C1267 1.369 . S
C1266 C1270 1.531 . S
C1267 C1266 1.369 . S
C1267 C1268 1.410 . S
C1267 C1275 1.503 . S
C1268 C1267 1.410 . S
C1268 C1269 1.392 . S
C1268 C1271 1.511 . S
C1269 C1265 1.376 . S
C1269 C1268 1.392 . S
C1269 H1281 0.929 . S
C1270 C1266 1.531 . S
C1270 H1282 0.960 . S
C1270 H1283 0.962 . S
C1270 H1284 0.960 . S
C1271 C1268 1.511 . S
C1271 H1285 0.961 . S
C1271 H1286 0.961 . S
C1271 H1287 0.961 . S
C1272 C1273 1.370 . S
C1272 C1274 1.363 . S
C1272 H1288 0.931 . S
C1273 C1272 1.370 . S
C1273 C1277 1.408 . S
C1274 C1272 1.363 . S
C1274 C1275 1.370 . S
C1274 C1278 1.524 . S
C1275 C1267 1.503 . S
C1275 C1274 1.370 . S
C1275 C1276 1.403 . S
C1276 C1275 1.403 . S
C1276 C1277 1.404 . S
C1276 C1279 1.539 . S
C1277 C1273 1.408 . S
C1277 C1276 1.404 . S
C1277 H1289 0.930 . S
C1278 C1274 1.524 . S
C1278 H1290 0.956 . S
C1278 H1291 0.961 . S
C1278 H1292 0.961 . S
C1279 C1276 1.539 . S
C1279 H1293 0.958 . S
C1279 H1294 0.961 . S
C1279 H1295 0.960 . S
H1280 C1264 0.931 . S
H1281 C1269 0.929 . S
H1282 C1270 0.960 . S
H1283 C1270 0.962 . S
H1284 C1270 0.960 . S
H1285 C1271 0.961 . S
H1286 C1271 0.961 . S
H1287 C1271 0.961 . S
H1288 C1272 0.931 . S
H1289 C1277 0.930 . S
H1290 C1278 0.956 . S
H1291 C1278 0.961 . S
H1292 C1278 0.961 . S
H1293 C1279 0.958 . S
H1294 C1279 0.961 . S
H1295 C1279 0.960 . S
C1296 C1297 1.391 . S
C1296 C1298 1.394 . S
C1296 H1312 0.931 . S
C1297 C1296 1.391 . S
C1297 C1301 1.376 . S
C1298 C1296 1.394 . S
C1298 C1299 1.369 . S
C1298 C1302 1.531 . S
C1299 C1298 1.369 . S
C1299 C1300 1.410 . S
C1299 C1307 1.503 . S
C1300 C1299 1.410 . S
C1300 C1301 1.392 . S
C1300 C1303 1.511 . S
C1301 C1297 1.376 . S
C1301 C1300 1.392 . S
C1301 H1313 0.929 . S
C1302 C1298 1.531 . S
C1302 H1314 0.960 . S
C1302 H1315 0.962 . S
C1302 H1316 0.960 . S
C1303 C1300 1.511 . S
C1303 H1317 0.961 . S
C1303 H1318 0.961 . S
C1303 H1319 0.961 . S
C1304 C1305 1.370 . S
C1304 C1306 1.363 . S
C1304 H1320 0.931 . S
C1305 C1304 1.370 . S
C1305 C1309 1.408 . S
C1306 C1304 1.363 . S
C1306 C1307 1.370 . S
C1306 C1310 1.524 . S
C1307 C1299 1.503 . S
C1307 C1306 1.370 . S
C1307 C1308 1.403 . S
C1308 C1307 1.403 . S
C1308 C1309 1.404 . S
C1308 C1311 1.539 . S
C1309 C1305 1.408 . S
C1309 C1308 1.404 . S
C1309 H1321 0.930 . S
C1310 C1306 1.524 . S
C1310 H1322 0.956 . S
C1310 H1323 0.961 . S
C1310 H1324 0.961 . S
C1311 C1308 1.539 . S
C1311 H1325 0.958 . S
C1311 H1326 0.961 . S
C1311 H1327 0.960 . S
H1312 C1296 0.931 . S
H1313 C1301 0.929 . S
H1314 C1302 0.960 . S
H1315 C1302 0.962 . S
H1316 C1302 0.960 . S
H1317 C1303 0.961 . S
H1318 C1303 0.961 . S
H1319 C1303 0.961 . S
H1320 C1304 0.931 . S
H1321 C1309 0.930 . S
H1322 C1310 0.956 . S
H1323 C1310 0.961 . S
H1324 C1310 0.961 . S
H1325 C1311 0.958 . S
H1326 C1311 0.961 . S
H1327 C1311 0.960 . S
C1328 C1329 1.391 . S
C1328 C1330 1.394 . S
C1328 H1344 0.931 . S
C1329 C1328 1.391 . S
C1329 C1333 1.376 . S
C1330 C1328 1.394 . S
C1330 C1331 1.369 . S
C1330 C1334 1.531 . S
C1331 C1330 1.369 . S
C1331 C1332 1.410 . S
C1331 C1339 1.503 . S
C1332 C1331 1.410 . S
C1332 C1333 1.392 . S
C1332 C1335 1.511 . S
C1333 C1329 1.376 . S
C1333 C1332 1.392 . S
C1333 H1345 0.929 . S
C1334 C1330 1.531 . S
C1334 H1346 0.960 . S
C1334 H1347 0.962 . S
C1334 H1348 0.960 . S
C1335 C1332 1.511 . S
C1335 H1349 0.961 . S
C1335 H1350 0.961 . S
C1335 H1351 0.961 . S
C1336 C1337 1.370 . S
C1336 C1338 1.363 . S
C1336 H1352 0.931 . S
C1337 C1336 1.370 . S
C1337 C1341 1.408 . S
C1338 C1336 1.363 . S
C1338 C1339 1.370 . S
C1338 C1342 1.524 . S
C1339 C1331 1.503 . S
C1339 C1338 1.370 . S
C1339 C1340 1.403 . S
C1340 C1339 1.403 . S
C1340 C1341 1.404 . S
C1340 C1343 1.539 . S
C1341 C1337 1.408 . S
C1341 C1340 1.404 . S
C1341 H1353 0.930 . S
C1342 C1338 1.524 . S
C1342 H1354 0.956 . S
C1342 H1355 0.961 . S
C1342 H1356 0.961 . S
C1343 C1340 1.539 . S
C1343 H1357 0.958 . S
C1343 H1358 0.961 . S
C1343 H1359 0.960 . S
H1344 C1328 0.931 . S
H1345 C1333 0.929 . S
H1346 C1334 0.960 . S
H1347 C1334 0.962 . S
H1348 C1334 0.960 . S
H1349 C1335 0.961 . S
H1350 C1335 0.961 . S
H1351 C1335 0.961 . S
H1352 C1336 0.931 . S
H1353 C1341 0.930 . S
H1354 C1342 0.956 . S
H1355 C1342 0.961 . S
H1356 C1342 0.961 . S
H1357 C1343 0.958 . S
H1358 C1343 0.961 . S
H1359 C1343 0.960 . S
C1360 C1361 1.391 . S
C1360 C1362 1.394 . S
C1360 H1376 0.931 . S
C1361 C1360 1.391 . S
C1361 C1365 1.376 . S
C1362 C1360 1.394 . S
C1362 C1363 1.369 . S
C1362 C1366 1.531 . S
C1363 C1362 1.369 . S
C1363 C1364 1.410 . S
C1363 C1371 1.503 . S
C1364 C1363 1.410 . S
C1364 C1365 1.392 . S
C1364 C1367 1.511 . S
C1365 C1361 1.376 . S
C1365 C1364 1.392 . S
C1365 H1377 0.929 . S
C1366 C1362 1.531 . S
C1366 H1378 0.960 . S
C1366 H1379 0.962 . S
C1366 H1380 0.960 . S
C1367 C1364 1.511 . S
C1367 H1381 0.961 . S
C1367 H1382 0.961 . S
C1367 H1383 0.961 . S
C1368 C1369 1.370 . S
C1368 C1370 1.363 . S
C1368 H1384 0.931 . S
C1369 C1368 1.370 . S
C1369 C1373 1.408 . S
C1370 C1368 1.363 . S
C1370 C1371 1.370 . S
C1370 C1374 1.524 . S
C1371 C1363 1.503 . S
C1371 C1370 1.370 . S
C1371 C1372 1.403 . S
C1372 C1371 1.403 . S
C1372 C1373 1.404 . S
C1372 C1375 1.539 . S
C1373 C1369 1.408 . S
C1373 C1372 1.404 . S
C1373 H1385 0.930 . S
C1374 C1370 1.524 . S
C1374 H1386 0.956 . S
C1374 H1387 0.961 . S
C1374 H1388 0.961 . S
C1375 C1372 1.539 . S
C1375 H1389 0.958 . S
C1375 H1390 0.961 . S
C1375 H1391 0.960 . S
H1376 C1360 0.931 . S
H1377 C1365 0.929 . S
H1378 C1366 0.960 . S
H1379 C1366 0.962 . S
H1380 C1366 0.960 . S
H1381 C1367 0.961 . S
H1382 C1367 0.961 . S
H1383 C1367 0.961 . S
H1384 C1368 0.931 . S
H1385 C1373 0.930 . S
H1386 C1374 0.956 . S
H1387 C1374 0.961 . S
H1388 C1374 0.961 . S
H1389 C1375 0.958 . S
H1390 C1375 0.961 . S
H1391 C1375 0.960 . S
C1392 C1393 1.391 . S
C1392 C1394 1.394 . S
C1392 H1408 0.931 . S
C1393 C1392 1.391 . S
C1393 C1397 1.376 . S
C1394 C1392 1.394 . S
C1394 C1395 1.369 . S
C1394 C1398 1.531 . S
C1395 C1394 1.369 . S
C1395 C1396 1.410 . S
C1395 C1403 1.503 . S
C1396 C1395 1.410 . S
C1396 C1397 1.392 . S
C1396 C1399 1.511 . S
C1397 C1393 1.376 . S
C1397 C1396 1.392 . S
C1397 H1409 0.929 . S
C1398 C1394 1.531 . S
C1398 H1410 0.960 . S
C1398 H1411 0.962 . S
C1398 H1412 0.960 . S
C1399 C1396 1.511 . S
C1399 H1413 0.961 . S
C1399 H1414 0.961 . S
C1399 H1415 0.961 . S
C1400 C1401 1.370 . S
C1400 C1402 1.363 . S
C1400 H1416 0.931 . S
C1401 C1400 1.370 . S
C1401 C1405 1.408 . S
C1402 C1400 1.363 . S
C1402 C1403 1.370 . S
C1402 C1406 1.524 . S
C1403 C1395 1.503 . S
C1403 C1402 1.370 . S
C1403 C1404 1.403 . S
C1404 C1403 1.403 . S
C1404 C1405 1.404 . S
C1404 C1407 1.539 . S
C1405 C1401 1.408 . S
C1405 C1404 1.404 . S
C1405 H1417 0.930 . S
C1406 C1402 1.524 . S
C1406 H1418 0.956 . S
C1406 H1419 0.961 . S
C1406 H1420 0.961 . S
C1407 C1404 1.539 . S
C1407 H1421 0.958 . S
C1407 H1422 0.961 . S
C1407 H1423 0.960 . S
H1408 C1392 0.931 . S
H1409 C1397 0.929 . S
H1410 C1398 0.960 . S
H1411 C1398 0.962 . S
H1412 C1398 0.960 . S
H1413 C1399 0.961 . S
H1414 C1399 0.961 . S
H1415 C1399 0.961 . S
H1416 C1400 0.931 . S
H1417 C1405 0.930 . S
H1418 C1406 0.956 . S
H1419 C1406 0.961 . S
H1420 C1406 0.961 . S
H1421 C1407 0.958 . S
H1422 C1407 0.961 . S
H1423 C1407 0.960 . S
C1424 C1425 1.391 . S
C1424 C1426 1.394 . S
C1424 H1440 0.931 . S
C1425 C1424 1.391 . S
C1425 C1429 1.376 . S
C1426 C1424 1.394 . S
C1426 C1427 1.369 . S
C1426 C1430 1.531 . S
C1427 C1426 1.369 . S
C1427 C1428 1.410 . S
C1427 C1435 1.503 . S
C1428 C1427 1.410 . S
C1428 C1429 1.392 . S
C1428 C1431 1.511 . S
C1429 C1425 1.376 . S
C1429 C1428 1.392 . S
C1429 H1441 0.929 . S
C1430 C1426 1.531 . S
C1430 H1442 0.960 . S
C1430 H1443 0.962 . S
C1430 H1444 0.960 . S
C1431 C1428 1.511 . S
C1431 H1445 0.961 . S
C1431 H1446 0.961 . S
C1431 H1447 0.961 . S
C1432 C1433 1.370 . S
C1432 C1434 1.363 . S
C1432 H1448 0.931 . S
C1433 C1432 1.370 . S
C1433 C1437 1.408 . S
C1434 C1432 1.363 . S
C1434 C1435 1.370 . S
C1434 C1438 1.524 . S
C1435 C1427 1.503 . S
C1435 C1434 1.370 . S
C1435 C1436 1.403 . S
C1436 C1435 1.403 . S
C1436 C1437 1.404 . S
C1436 C1439 1.539 . S
C1437 C1433 1.408 . S
C1437 C1436 1.404 . S
C1437 H1449 0.930 . S
C1438 C1434 1.524 . S
C1438 H1450 0.956 . S
C1438 H1451 0.961 . S
C1438 H1452 0.961 . S
C1439 C1436 1.539 . S
C1439 H1453 0.958 . S
C1439 H1454 0.961 . S
C1439 H1455 0.960 . S
H1440 C1424 0.931 . S
H1441 C1429 0.929 . S
H1442 C1430 0.960 . S
H1443 C1430 0.962 . S
H1444 C1430 0.960 . S
H1445 C1431 0.961 . S
H1446 C1431 0.961 . S
H1447 C1431 0.961 . S
H1448 C1432 0.931 . S
H1449 C1437 0.930 . S
H1450 C1438 0.956 . S
H1451 C1438 0.961 . S
H1452 C1438 0.961 . S
H1453 C1439 0.958 . S
H1454 C1439 0.961 . S
H1455 C1439 0.960 . S
C1456 C1457 1.391 . S
C1456 C1458 1.394 . S
C1456 H1472 0.931 . S
C1457 C1456 1.391 . S
C1457 C1461 1.376 . S
C1458 C1456 1.394 . S
C1458 C1459 1.369 . S
C1458 C1462 1.531 . S
C1459 C1458 1.369 . S
C1459 C1460 1.410 . S
C1459 C1467 1.503 . S
C1460 C1459 1.410 . S
C1460 C1461 1.392 . S
C1460 C1463 1.511 . S
C1461 C1457 1.376 . S
C1461 C1460 1.392 . S
C1461 H1473 0.929 . S
C1462 C1458 1.531 . S
C1462 H1474 0.960 . S
C1462 H1475 0.962 . S
C1462 H1476 0.960 . S
C1463 C1460 1.511 . S
C1463 H1477 0.961 . S
C1463 H1478 0.961 . S
C1463 H1479 0.961 . S
C1464 C1465 1.370 . S
C1464 C1466 1.363 . S
C1464 H1480 0.931 . S
C1465 C1464 1.370 . S
C1465 C1469 1.408 . S
C1466 C1464 1.363 . S
C1466 C1467 1.370 . S
C1466 C1470 1.524 . S
C1467 C1459 1.503 . S
C1467 C1466 1.370 . S
C1467 C1468 1.403 . S
C1468 C1467 1.403 . S
C1468 C1469 1.404 . S
C1468 C1471 1.539 . S
C1469 C1465 1.408 . S
C1469 C1468 1.404 . S
C1469 H1481 0.930 . S
C1470 C1466 1.524 . S
C1470 H1482 0.956 . S
C1470 H1483 0.961 . S
C1470 H1484 0.961 . S
C1471 C1468 1.539 . S
C1471 H1485 0.958 . S
C1471 H1486 0.961 . S
C1471 H1487 0.960 . S
H1472 C1456 0.931 . S
H1473 C1461 0.929 . S
H1474 C1462 0.960 . S
H1475 C1462 0.962 . S
H1476 C1462 0.960 . S
H1477 C1463 0.961 . S
H1478 C1463 0.961 . S
H1479 C1463 0.961 . S
H1480 C1464 0.931 . S
H1481 C1469 0.930 . S
H1482 C1470 0.956 . S
H1483 C1470 0.961 . S
H1484 C1470 0.961 . S
H1485 C1471 0.958 . S
H1486 C1471 0.961 . S
H1487 C1471 0.960 . S
C1488 C1489 1.391 . S
C1488 C1490 1.394 . S
C1488 H1504 0.931 . S
C1489 C1488 1.391 . S
C1489 C1493 1.376 . S
C1490 C1488 1.394 . S
C1490 C1491 1.369 . S
C1490 C1494 1.531 . S
C1491 C1490 1.369 . S
C1491 C1492 1.410 . S
C1491 C1499 1.503 . S
C1492 C1491 1.410 . S
C1492 C1493 1.392 . S
C1492 C1495 1.511 . S
C1493 C1489 1.376 . S
C1493 C1492 1.392 . S
C1493 H1505 0.929 . S
C1494 C1490 1.531 . S
C1494 H1506 0.960 . S
C1494 H1507 0.962 . S
C1494 H1508 0.960 . S
C1495 C1492 1.511 . S
C1495 H1509 0.961 . S
C1495 H1510 0.961 . S
C1495 H1511 0.961 . S
C1496 C1497 1.370 . S
C1496 C1498 1.363 . S
C1496 H1512 0.931 . S
C1497 C1496 1.370 . S
C1497 C1501 1.408 . S
C1498 C1496 1.363 . S
C1498 C1499 1.370 . S
C1498 C1502 1.524 . S
C1499 C1491 1.503 . S
C1499 C1498 1.370 . S
C1499 C1500 1.403 . S
C1500 C1499 1.403 . S
C1500 C1501 1.404 . S
C1500 C1503 1.539 . S
C1501 C1497 1.408 . S
C1501 C1500 1.404 . S
C1501 H1513 0.930 . S
C1502 C1498 1.524 . S
C1502 H1514 0.956 . S
C1502 H1515 0.961 . S
C1502 H1516 0.961 . S
C1503 C1500 1.539 . S
C1503 H1517 0.958 . S
C1503 H1518 0.961 . S
C1503 H1519 0.960 . S
H1504 C1488 0.931 . S
H1505 C1493 0.929 . S
H1506 C1494 0.960 . S
H1507 C1494 0.962 . S
H1508 C1494 0.960 . S
H1509 C1495 0.961 . S
H1510 C1495 0.961 . S
H1511 C1495 0.961 . S
H1512 C1496 0.931 . S
H1513 C1501 0.930 . S
H1514 C1502 0.956 . S
H1515 C1502 0.961 . S
H1516 C1502 0.961 . S
H1517 C1503 0.958 . S
H1518 C1503 0.961 . S
H1519 C1503 0.960 . S
C505 C409 1.345 . S
C497 C36 1.328 . S
C537 C423 1.341 . S
C529 C93 1.341 . S
C569 C431 1.364 . S
C561 C126 1.350 . S
C593 C165 1.265 . S
C601 C389 1.336 . S
C625 C222 1.259 . S
C633 C395 1.312 . S
C657 C261 1.308 . S
C665 C403 1.314 . S
C697 C417 1.409 . S
C689 C318 1.361 . S
C729 C437 1.375 . S
C721 C381 1.373 . S
C753 C132 1.276 . S
C761 C465 1.313 . S
C793 C479 1.402 . S
C785 C189 1.360 . S
C817 C30 1.320 . S
C825 C487 1.323 . S
C857 C451 1.268 . S
C849 C69 1.222 . S
C881 C324 1.298 . S
C889 C445 1.365 . S
C913 C357 1.358 . S
C921 C459 1.361 . S
C953 C473 1.360 . S
C945 C228 1.308 . S
C977 C285 1.389 . S
C985 C493 1.392 . S
C1017 C412 1.683 . S
C1009 C45 1.703 . S
C1049 C435 1.730 . S
C1041 C84 1.720 . S
C1073 C117 1.729 . S
C1081 C393 1.731 . S
C1105 C174 1.690 . S
C1113 C398 1.716 . S
C1137 C213 1.724 . S
C1145 C426 1.665 . S
C1177 C384 1.673 . S
C1169 C270 1.701 . S
C1209 C407 1.718 . S
C1201 C309 1.709 . S
C1241 C421 1.720 . S
C1233 C372 1.720 . S
C1273 C468 1.674 . S
C1265 C141 1.721 . S
C1305 C491 1.716 . S
C1297 C180 1.709 . S
C1329 C21 1.711 . S
C1337 C440 1.677 . S
C1369 C454 1.657 . S
C1361 C78 1.655 . S
C1401 C482 1.707 . S
C1393 C333 1.746 . S
C1425 C366 1.744 . S
C1433 C449 1.748 . S
C1465 C463 1.735 . S
C1457 C237 1.762 . S
C1497 C477 1.726 . S
C1489 C276 1.748 . S
