# Generated by pormake.
# Topology zzz, (3,6)-cn, num edge types: 1
# Building blocks:
#     Node 0, Type 0, BuildingBlock: KAKCAD_clean_linker_0, # of connection points: 3
#     Node 1, Type 0, BuildingBlock: KAKCAD_clean_linker_0, # of connection points: 3
#     Node 2, Type 0, BuildingBlock: KAKCAD_clean_linker_0, # of connection points: 3
#     Node 3, Type 0, BuildingBlock: KAKCAD_clean_linker_0, # of connection points: 3
#     Node 4, Type 0, BuildingBlock: KAKCAD_clean_linker_0, # of connection points: 3
#     Node 5, Type 0, BuildingBlock: KAKCAD_clean_linker_0, # of connection points: 3
#     Node 6, Type 0, BuildingBlock: KAKCAD_clean_linker_0, # of connection points: 3
#     Node 7, Type 0, BuildingBlock: KAKCAD_clean_linker_0, # of connection points: 3
#     Node 8, Type 1, BuildingBlock: KUMBUR_clean_sbu_0, # of connection points: 6
#     Node 9, Type 1, BuildingBlock: KUMBUR_clean_sbu_0, # of connection points: 6
#     Node 10, Type 1, BuildingBlock: KUMBUR_clean_sbu_0, # of connection points: 6
#     Node 11, Type 1, BuildingBlock: KUMBUR_clean_sbu_0, # of connection points: 6
#     Edge 12, Type (0, 1), BuildingBlock: TEMPAE_clean_linker_10, # of connection points: 2
#     Edge 13, Type (0, 1), BuildingBlock: TEMPAE_clean_linker_10, # of connection points: 2
#     Edge 14, Type (0, 1), BuildingBlock: TEMPAE_clean_linker_10, # of connection points: 2
#     Edge 15, Type (0, 1), BuildingBlock: TEMPAE_clean_linker_10, # of connection points: 2
#     Edge 16, Type (0, 1), BuildingBlock: TEMPAE_clean_linker_10, # of connection points: 2
#     Edge 17, Type (0, 1), BuildingBlock: TEMPAE_clean_linker_10, # of connection points: 2
#     Edge 18, Type (0, 1), BuildingBlock: TEMPAE_clean_linker_10, # of connection points: 2
#     Edge 19, Type (0, 1), BuildingBlock: TEMPAE_clean_linker_10, # of connection points: 2
#     Edge 20, Type (0, 1), BuildingBlock: TEMPAE_clean_linker_10, # of connection points: 2
#     Edge 21, Type (0, 1), BuildingBlock: TEMPAE_clean_linker_10, # of connection points: 2
#     Edge 22, Type (0, 1), BuildingBlock: TEMPAE_clean_linker_10, # of connection points: 2
#     Edge 23, Type (0, 1), BuildingBlock: TEMPAE_clean_linker_10, # of connection points: 2
#     Edge 24, Type (0, 1), BuildingBlock: TEMPAE_clean_linker_10, # of connection points: 2
#     Edge 25, Type (0, 1), BuildingBlock: TEMPAE_clean_linker_10, # of connection points: 2
#     Edge 26, Type (0, 1), BuildingBlock: TEMPAE_clean_linker_10, # of connection points: 2
#     Edge 27, Type (0, 1), BuildingBlock: TEMPAE_clean_linker_10, # of connection points: 2
#     Edge 28, Type (0, 1), BuildingBlock: TEMPAE_clean_linker_10, # of connection points: 2
#     Edge 29, Type (0, 1), BuildingBlock: TEMPAE_clean_linker_10, # of connection points: 2
#     Edge 30, Type (0, 1), BuildingBlock: TEMPAE_clean_linker_10, # of connection points: 2
#     Edge 31, Type (0, 1), BuildingBlock: TEMPAE_clean_linker_10, # of connection points: 2
#     Edge 32, Type (0, 1), BuildingBlock: TEMPAE_clean_linker_10, # of connection points: 2
#     Edge 33, Type (0, 1), BuildingBlock: TEMPAE_clean_linker_10, # of connection points: 2
#     Edge 34, Type (0, 1), BuildingBlock: TEMPAE_clean_linker_10, # of connection points: 2
#     Edge 35, Type (0, 1), BuildingBlock: TEMPAE_clean_linker_10, # of connection points: 2
# Relax obj value: 0.295
# Max RMSD: 0.225
# Mean RMSD: 0.211
data_MOF--net-zzz--node1-KUMBUR_clean_sbu_0--node2-KAKCAD_clean_linker_0--edge1-TEMPAE_clean_linker_10
_symmetry_space_group_name_H-M    P1
_symmetry_Int_Tables_number       1
_symmetry_cell_setting            triclinic
loop_
_symmetry_equiv_pos_as_xyz
'x, y, z'
_cell_length_a     58.130407
_cell_length_b     58.076882
_cell_length_c     20.241226
_cell_angle_alpha  90.361599
_cell_angle_beta   90.051741
_cell_angle_gamma 89.978186
loop_
_atom_site_label
_atom_site_type_symbol
_atom_site_fract_x
_atom_site_fract_y
_atom_site_fract_z
_atom_type_partial_charge
C0 C 0.792 0.61102 0.9566 0.0
C1 C 0.81467 0.60262 0.95332 0.0
C2 C 0.77717 0.6038 1.00707 0.0
C3 C 0.78469 0.58784 0.05464 0.0
C4 C 0.80776 0.58061 0.05309 0.0
C5 C 0.8225 0.58797 1.00362 0.0
C6 C 0.76841 0.57647 0.10106 0.0
C7 C 0.74626 0.57017 0.08027 0.0
C8 C 0.73234 0.55553 0.1184 0.0
C9 C 0.74142 0.54636 0.17786 0.0
C10 C 0.76344 0.55333 0.20038 0.0
C11 C 0.7762 0.56892 0.16278 0.0
C12 C 0.77537 0.54334 0.25873 0.0
C13 C 0.77953 0.55724 0.31466 0.0
C14 C 0.78857 0.52327 0.25028 0.0
C15 C 0.80654 0.51805 0.29416 0.0
C16 C 0.81171 0.53274 0.34784 0.0
C17 C 0.70897 0.5496 0.09204 0.0
C18 C 0.69475 0.56724 0.0676 0.0
C19 C 0.70199 0.52664 0.08241 0.0
C20 C 0.68187 0.52151 0.0463 0.0
C21 C 0.66816 0.53922 0.01935 0.0
C22 C 0.67471 0.56216 0.03191 0.0
C23 C 0.79732 0.55188 0.35907 0.0
H24 H 0.78546 0.62235 0.91867 0.0
H25 H 0.75962 0.61004 1.0073 0.0
H26 H 0.81422 0.5679 0.0873 0.0
H27 H 0.83957 0.58052 1.00209 0.0
H28 H 0.74018 0.57558 0.03217 0.0
H29 H 0.79307 0.5741 0.18028 0.0
H30 H 0.73146 0.53419 0.20637 0.0
H31 H 0.77013 0.5732 0.32128 0.0
H32 H 0.78624 0.51261 0.20666 0.0
H33 H 0.8171 0.50305 0.28431 0.0
H34 H 0.69961 0.58512 0.07408 0.0
H35 H 0.71264 0.51265 0.1 0.0
H36 H 0.80086 0.56367 0.39948 0.0
H37 H 0.66491 0.57633 0.01172 0.0
H38 H 0.67725 0.50364 0.0386 0.0
C39 C 0.907 0.81549 1.00656 0.0
C40 C 0.91468 0.81432 0.94073 0.0
C41 C 0.91492 0.7996 0.05302 0.0
C42 C 0.93065 0.78233 0.03433 0.0
C43 C 0.93555 0.77931 0.96674 0.0
C44 C 0.92753 0.79506 0.92042 0.0
C45 C 0.94514 0.77048 0.0845 0.0
C46 C 0.95326 0.74812 0.0727 0.0
C47 C 0.97142 0.73883 0.10967 0.0
C48 C 0.9808 0.75191 0.16287 0.0
C49 C 0.97199 0.77422 0.17743 0.0
C50 C 0.95425 0.78308 0.13788 0.0
C51 C 0.98224 0.79031 0.22762 0.0
C52 C 0.97568 0.78948 0.29452 0.0
C53 C 0.99406 0.80994 0.2056 0.0
C54 C 0.99819 0.8287 0.24806 0.0
C55 C 0.99058 0.82854 0.31414 0.0
C56 C 0.98167 0.71695 0.08378 0.0
C57 C 0.97546 0.69546 0.10986 0.0
C58 C 0.99295 0.71735 0.02239 0.0
C59 C 0.99711 0.69701 0.98666 0.0
C60 C 0.99022 0.67539 0.01112 0.0
C61 C 0.97982 0.67494 0.07426 0.0
C62 C 0.97997 0.80829 0.33744 0.0
H63 H 0.8968 0.82999 0.0234 0.0
H64 H 0.91024 0.80199 0.10438 0.0
H65 H 0.94762 0.76631 0.95008 0.0
H66 H 0.93388 0.79366 0.87024 0.0
H67 H 0.94636 0.73827 0.03151 0.0
H68 H 0.94863 0.80066 0.14633 0.0
H69 H 0.99531 0.7453 0.19047 0.0
H70 H 0.966 0.7749 0.31261 0.0
H71 H 0.99895 0.81133 0.15413 0.0
H72 H 0.00672 0.84374 0.22835 0.0
H73 H 0.96619 0.69461 0.15617 0.0
H74 H 0.99729 0.73368 0.99998 0.0
H75 H 0.97376 0.8075 0.38779 0.0
H76 H 0.97453 0.65877 0.09574 0.0
H77 H 1.00471 0.6985 0.93809 0.0
C78 C 0.6969 0.92358 0.99674 0.0
C79 C 0.70136 0.9311 0.93214 0.0
C80 C 0.71217 0.92887 0.04803 0.0
C81 C 0.73207 0.94194 0.03566 0.0
C82 C 0.73764 0.9472 0.96978 0.0
C83 C 0.7225 0.9417 0.91854 0.0
C84 C 0.74524 0.95275 0.09089 0.0
C85 C 0.76902 0.95601 0.08579 0.0
C86 C 0.78121 0.96952 0.13187 0.0
C87 C 0.76909 0.97951 0.18585 0.0
C88 C 0.7451 0.97566 0.19288 0.0
C89 C 0.73357 0.96236 0.14507 0.0
C90 C 0.73068 0.98619 0.24627 0.0
C91 C 0.73012 0.97674 0.31014 0.0
C92 C 0.71338 1.00193 0.22868 0.0
C93 C 0.69523 0.00701 0.27191 0.0
C94 C 0.69371 0.99646 0.33421 0.0
C95 C 0.80616 0.97376 0.11776 0.0
C96 C 0.82031 0.95509 0.09972 0.0
C97 C 0.81466 0.99615 0.10832 0.0
C98 C 0.83609 0.99971 0.07739 0.0
C99 C 0.84952 0.98094 0.05475 0.0
C100 C 0.84148 0.95858 0.06842 0.0
C101 C 0.7119 0.98195 0.35387 0.0
H102 H 0.68074 0.91527 0.00842 0.0
H103 H 0.70767 0.92401 0.09793 0.0
H104 H 0.75268 0.95738 0.95812 0.0
H105 H 0.72627 0.94797 0.86942 0.0
H106 H 0.77804 0.94869 0.04378 0.0
H107 H 0.71507 0.96038 0.14884 0.0
H108 H 0.77809 0.99028 0.22127 0.0
H109 H 0.74289 0.96415 0.32458 0.0
H110 H 0.71313 0.00922 0.17954 0.0
H111 H 0.68178 0.01854 0.25534 0.0
H112 H 0.81427 0.93759 0.10602 0.0
H113 H 0.80413 0.01092 0.12097 0.0
H114 H 0.7113 0.97347 0.40133 0.0
H115 H 0.85083 0.94354 0.05156 0.0
H116 H 0.84175 0.01722 0.06945 0.0
C117 C 0.52198 0.71302 0.28332 0.0
C118 C 0.53549 0.70827 0.33953 0.0
C119 C 0.52749 0.73135 0.24124 0.0
C120 C 0.54652 0.74557 0.25443 0.0
C121 C 0.5592 0.74176 0.3125 0.0
C122 C 0.55369 0.72345 0.35473 0.0
C123 C 0.55696 0.75906 0.19977 0.0
C124 C 0.5525 0.78269 0.18847 0.0
C125 C 0.56333 0.79413 0.1351 0.0
C126 C 0.57827 0.78152 0.09376 0.0
C127 C 0.58209 0.75793 0.10291 0.0
C128 C 0.57147 0.74702 0.15648 0.0
C129 C 0.5949 0.74401 0.05277 0.0
C130 C 0.59291 0.74897 0.98499 0.0
C131 C 0.60663 0.72387 0.07128 0.0
C132 C 0.61282 0.70747 0.02385 0.0
C133 C 0.60797 0.71111 0.95655 0.0
C134 C 0.55863 0.81871 0.11737 0.0
C135 C 0.53606 0.82698 0.10989 0.0
C136 C 0.57688 0.83283 0.09652 0.0
C137 C 0.57273 0.85358 0.06391 0.0
C138 C 0.55013 0.86134 0.05223 0.0
C139 C 0.53186 0.84807 0.07801 0.0
C140 C 0.59981 0.73288 0.93745 0.0
H141 H 0.50763 0.702 0.27034 0.0
H142 H 0.51779 0.73347 0.19595 0.0
H143 H 0.57441 0.75196 0.32277 0.0
H144 H 0.56467 0.72032 0.39698 0.0
H145 H 0.54085 0.792 0.22072 0.0
H146 H 0.57366 0.72867 0.1636 0.0
H147 H 0.58638 0.79003 0.05244 0.0
H148 H 0.58425 0.76434 0.96811 0.0
H149 H 0.6095 0.71991 0.12284 0.0
H150 H 0.6193 0.6911 0.04108 0.0
H151 H 0.52158 0.81657 0.12518 0.0
H152 H 0.59453 0.82715 0.10206 0.0
H153 H 0.59671 0.73671 0.88592 0.0
H154 H 0.51421 0.85359 0.07197 0.0
H155 H 0.58743 0.8628 0.04478 0.0
C156 C 0.22867 0.42447 0.30849 0.0
C157 C 0.21287 0.4073 0.28907 0.0
C158 C 0.24487 0.43285 0.26414 0.0
C159 C 0.24554 0.42453 0.19904 0.0
C160 C 0.23152 0.40583 0.18122 0.0
C161 C 0.21559 0.39701 0.22627 0.0
C162 C 0.25827 0.43778 0.14875 0.0
C163 C 0.28078 0.445 0.1613 0.0
C164 C 0.29159 0.46143 0.12131 0.0
C165 C 0.27916 0.47096 0.06753 0.0
C166 C 0.25661 0.46301 0.05292 0.0
C167 C 0.24659 0.44632 0.0936 0.0
C168 C 0.242 0.47236 0.99865 0.0
C169 C 0.22953 0.49284 0.00827 0.0
C170 C 0.23601 0.45805 0.94503 0.0
C171 C 0.21747 0.46361 0.9035 0.0
C172 C 0.2041 0.48347 0.91508 0.0
C173 C 0.31526 0.46884 0.14124 0.0
C174 C 0.31987 0.49175 0.15955 0.0
C175 C 0.33196 0.45198 0.15531 0.0
C176 C 0.35193 0.4575 0.19083 0.0
C177 C 0.35593 0.48012 0.21336 0.0
C178 C 0.33996 0.49733 0.19513 0.0
C179 C 0.21082 0.49833 0.96707 0.0
H180 H 0.22727 0.4332 0.35569 0.0
H181 H 0.25544 0.44734 0.27914 0.0
H182 H 0.23203 0.39888 0.13145 0.0
H183 H 0.20435 0.38323 0.21006 0.0
H184 H 0.28959 0.43848 0.20459 0.0
H185 H 0.22894 0.44107 0.08462 0.0
H186 H 0.28695 0.48414 0.03727 0.0
H187 H 0.23334 0.50388 0.0502 0.0
H188 H 0.24488 0.44183 0.93756 0.0
H189 H 0.21279 0.45159 0.86466 0.0
H190 H 0.30728 0.50509 0.15016 0.0
H191 H 0.32886 0.43413 0.14222 0.0
H192 H 0.20115 0.51389 0.97724 0.0
H193 H 0.3426 0.51505 0.21021 0.0
H194 H 0.36352 0.44366 0.2039 0.0
C195 C 0.08773 0.22495 0.3179 0.0
C196 C 0.10075 0.206 0.29598 0.0
C197 C 0.07924 0.24091 0.27292 0.0
C198 C 0.08379 0.23841 0.20506 0.0
C199 C 0.09923 0.22113 0.1844 0.0
C200 C 0.10754 0.20497 0.22945 0.0
C201 C 0.06979 0.25141 0.15624 0.0
C202 C 0.06302 0.27413 0.16898 0.0
C203 C 0.04684 0.28541 0.12888 0.0
C204 C 0.03748 0.27342 0.07343 0.0
C205 C 0.04514 0.25074 0.05805 0.0
C206 C 0.06097 0.24009 0.10045 0.0
C207 C 0.0374 0.23682 0.9994 0.0
C208 C 0.01477 0.22835 0.9943 0.0
C209 C 0.05427 0.22724 0.9575 0.0
C210 C 0.04921 0.20854 0.91586 0.0
C211 C 0.02703 0.19895 0.91395 0.0
C212 C 0.04007 0.30935 0.14943 0.0
C213 C 0.01732 0.31473 0.16731 0.0
C214 C 0.05739 0.32549 0.16475 0.0
C215 C 0.05248 0.3456 0.20077 0.0
C216 C 0.02996 0.35048 0.22248 0.0
C217 C 0.01232 0.33504 0.20322 0.0
C218 C 0.0096 0.20969 0.95161 0.0
H219 H 0.08193 0.22613 0.36867 0.0
H220 H 0.06735 0.25386 0.29088 0.0
H221 H 0.10364 0.21914 0.1327 0.0
H222 H 0.11771 0.19063 0.21136 0.0
H223 H 0.06991 0.28296 0.21199 0.0
H224 H 0.0657 0.22231 0.09107 0.0
H225 H 0.02495 0.28177 0.04201 0.0
H226 H 1.00149 0.23498 0.02675 0.0
H227 H 0.07191 0.23317 0.96057 0.0
H228 H 0.06299 0.20086 0.8872 0.0
H229 H 1.00361 0.3026 0.15709 0.0
H230 H 0.07514 0.32184 0.15219 0.0
H231 H 0.99234 0.20267 0.95145 0.0
H232 H 0.99467 0.33827 0.21742 0.0
H233 H 0.06671 0.35663 0.21461 0.0
C234 C 0.28625 0.10426 0.29698 0.0
C235 C 0.30858 0.11118 0.27932 0.0
C236 C 0.27105 0.09596 0.24911 0.0
C237 C 0.27739 0.0955 0.18192 0.0
C238 C 0.29781 0.10693 0.16375 0.0
C239 C 0.31348 0.11423 0.21193 0.0
C240 C 0.26532 0.07973 0.13426 0.0
C241 C 0.24245 0.07281 0.1449 0.0
C242 C 0.23297 0.05386 0.11115 0.0
C243 C 0.24608 0.04257 0.06164 0.0
C244 C 0.26863 0.05025 0.04738 0.0
C245 C 0.27794 0.0685 0.08431 0.0
C246 C 0.28434 0.03867 0.99932 0.0
C247 C 0.30289 0.02571 0.02369 0.0
C248 C 0.28485 0.04559 0.93286 0.0
C249 C 0.30407 0.04068 0.89275 0.0
C250 C 0.32336 0.02911 0.91868 0.0
C251 C 0.2106 0.04492 0.13614 0.0
C252 C 0.21044 0.03154 0.19372 0.0
C253 C 0.18969 0.05408 0.11353 0.0
C254 C 0.16919 0.05056 0.14902 0.0
C255 C 0.16915 0.03813 0.20882 0.0
C256 C 0.19007 0.02817 0.22951 0.0
C257 C 0.3221 0.02099 0.98399 0.0
H258 H 0.28138 0.10285 0.34844 0.0
H259 H 0.25542 0.08792 0.26633 0.0
H260 H 0.30275 0.10842 0.11242 0.0
H261 H 0.33024 0.12006 0.19589 0.0
H262 H 0.23215 0.08132 0.18234 0.0
H263 H 0.29581 0.07287 0.07605 0.0
H264 H 0.23914 0.02764 0.03621 0.0
H265 H 0.30323 0.02062 0.07508 0.0
H266 H 0.27112 0.05617 0.91331 0.0
H267 H 0.30445 0.04728 0.84284 0.0
H268 H 0.22644 0.02488 0.21341 0.0
H269 H 0.18941 0.06494 0.07021 0.0
H270 H 0.33645 0.01176 1.00542 0.0
H271 H 0.19109 0.01883 0.27551 0.0
H272 H 0.1535 0.0582 0.13046 0.0
C273 C 0.46333 0.30124 0.86151 0.0
C274 C 0.48344 0.31414 0.87302 0.0
C275 C 0.45622 0.28443 0.90673 0.0
C276 C 0.46934 0.27977 0.96357 0.0
C277 C 0.49039 0.29129 0.97209 0.0
C278 C 0.49729 0.30838 0.92758 0.0
C279 C 0.45822 0.26902 0.02196 0.0
C280 C 0.46587 0.24821 0.05054 0.0
C281 C 0.45714 0.24119 0.11256 0.0
C282 C 0.4415 0.25564 0.14604 0.0
C283 C 0.43419 0.27658 0.11874 0.0
C284 C 0.44175 0.28236 0.05519 0.0
C285 C 0.42215 0.29408 0.16058 0.0
C286 C 0.40673 0.28768 0.21094 0.0
C287 C 0.42851 0.31738 0.15579 0.0
C288 C 0.4212 0.3334 0.20254 0.0
C289 C 0.40753 0.32667 0.2563 0.0
C290 C 0.46497 0.2197 0.14624 0.0
C291 C 0.46286 0.19797 0.11581 0.0
C292 C 0.47204 0.22069 0.2127 0.0
C293 C 0.47596 0.20058 0.24869 0.0
C294 C 0.47296 0.17873 0.21946 0.0
C295 C 0.4667 0.17771 0.1521 0.0
C296 C 0.3996 0.3038 0.2586 0.0
H297 H 0.4522 0.30535 0.8203 0.0
H298 H 0.43963 0.27627 0.89987 0.0
H299 H 0.50053 0.28852 0.01627 0.0
H300 H 0.51292 0.31794 0.93765 0.0
H301 H 0.47894 0.23801 0.02588 0.0
H302 H 0.43611 0.29836 0.03312 0.0
H303 H 0.43587 0.25097 0.19515 0.0
H304 H 0.40106 0.27001 0.21546 0.0
H305 H 0.44071 0.32312 0.11907 0.0
H306 H 0.42817 0.35066 0.19958 0.0
H307 H 0.4573 0.19663 0.06486 0.0
H308 H 0.47388 0.23716 0.23762 0.0
H309 H 0.38893 0.2981 0.29916 0.0
H310 H 0.4645 0.16123 0.12759 0.0
H311 H 0.4805 0.20222 0.3004 0.0
Tb312 Tb 0.03399 1.0044 0.6799 0.0
C313 C 0.93871 0.98903 0.55215 0.0
C314 C 0.94407 0.96895 0.44856 0.0
C315 C 0.90784 0.96538 0.50715 0.0
C316 C 0.95266 0.98308 0.49991 0.0
C317 C 0.91598 0.98059 0.55598 0.0
C318 C 0.92181 0.95971 0.45318 0.0
C319 C 0.91005 1.00505 0.65117 0.0
N320 N 0.94695 1.00428 0.59707 0.0
C321 C 0.93258 0.01312 0.64475 0.0
C322 C 0.90181 0.98842 0.6072 0.0
Tb323 Tb 0.98418 0.01682 0.58254 0.0
N324 N 0.97415 0.99224 0.4974 0.0
C325 C 0.98749 0.98852 0.44264 0.0
C326 C 0.95773 0.96524 0.39291 0.0
C327 C 0.97954 0.97503 0.39 0.0
H328 H 0.93869 0.02595 0.67933 0.0
H329 H 0.99023 0.97241 0.34685 0.0
H330 H 0.91508 0.94858 0.4146 0.0
H331 H 0.89908 0.01164 0.69012 0.0
H332 H 1.00434 0.99568 0.43824 0.0
H333 H 0.03297 0.05776 0.8989 0.0
H334 H 0.95132 0.9554 0.35122 0.0
H335 H 0.07727 0.98956 0.57999 0.0
H336 H 0.01683 0.03099 0.8169 0.0
H337 H 0.11751 1.00081 0.56211 0.0
H338 H 0.89051 0.95857 0.50945 0.0
H339 H 0.07227 0.07321 0.88416 0.0
H340 H 0.10804 0.07556 0.81557 0.0
H341 H 0.88429 0.98228 0.61199 0.0
H342 H 0.131 0.06028 0.72305 0.0
N343 N 0.04596 0.03216 0.7532 0.0
C344 C 0.0337 0.03804 0.80845 0.0
C345 C 0.06491 0.06205 0.84666 0.0
C346 C 0.07762 0.05568 0.79097 0.0
C347 C 0.04284 0.0532 0.85544 0.0
C348 C 0.06773 0.04012 0.74534 0.0
H349 H 0.13485 0.03201 0.62923 0.0
N350 N 0.07123 0.01463 0.65566 0.0
C351 C 0.10737 0.00953 0.59945 0.0
C352 C 0.08081 0.03112 0.69463 0.0
C353 C 0.08446 1.00319 0.60992 0.0
C354 C 0.11706 0.02721 0.63725 0.0
C355 C 0.10391 0.03797 0.68633 0.0
O356 O 0.05456 0.9754 0.69768 0.0
O357 O 0.00735 0.99042 0.61541 0.0
O358 O 0.97401 0.99356 0.66274 0.0
O359 O 1.0022 1.00189 0.74053 0.0
O360 O 0.03913 0.9765 0.60718 0.0
O361 O 0.03454 0.99096 0.77594 0.0
O362 O 0.95944 0.04218 0.56374 0.0
O363 O 0.01009 0.03075 0.64921 0.0
O364 O 0.04455 0.02783 0.6012 0.0
O365 O 0.0166 0.01855 0.52351 0.0
O366 O 0.97735 0.04172 0.66267 0.0
O367 O 0.99017 0.04022 0.50517 0.0
C368 C 0.01867 0.97527 0.58417 0.0
C369 C 0.04343 0.95165 0.78534 0.0
C370 C 0.01953 0.91729 0.79132 0.0
C371 C 0.0242 0.93901 0.76381 0.0
C372 C 0.03449 0.90868 0.84038 0.0
C373 C 0.05817 0.9426 0.83329 0.0
C374 C 0.05371 0.92117 0.86061 0.0
C375 C 0.98114 0.9948 0.72489 0.0
C376 C 0.04862 0.97445 0.75955 0.0
C377 C 0.11335 0.05465 0.72889 0.0
C378 C 0.10027 0.06338 0.78147 0.0
C379 C 0.99796 0.04437 0.68362 0.0
C380 C 0.97724 0.07731 0.53936 0.0
C381 C 0.99819 0.08774 0.52219 0.0
C382 C 1.00304 0.11042 0.54231 0.0
C383 C 0.98685 0.12253 0.58054 0.0
C384 C 0.9611 0.08994 0.57664 0.0
C385 C 0.966 0.11233 0.59742 0.0
C386 C 0.03744 0.02651 0.53913 0.0
C387 C 0.97267 0.05293 0.52262 0.0
H388 H 0.01302 0.94614 0.72624 0.0
H389 H 0.03108 0.8925 0.86473 0.0
H390 H 0.07306 0.95224 0.85004 0.0
H391 H 0.06498 0.91436 0.89834 0.0
H392 H 0.01057 0.07836 0.49238 0.0
H393 H 0.99028 0.13998 0.59688 0.0
H394 H 0.9448 0.08239 0.59068 0.0
H395 H 0.95357 0.12182 0.62663 0.0
Tb396 Tb 0.5145 0.043 0.67836 0.0
C397 C 0.53199 0.94723 0.54837 0.0
C398 C 0.55373 0.95289 0.4483 0.0
C399 C 0.55595 0.91626 0.50519 0.0
C400 C 0.53888 0.96133 0.49793 0.0
C401 C 0.54019 0.9244 0.5524 0.0
C402 C 0.56258 0.93044 0.45285 0.0
C403 C 0.51489 0.91866 0.64518 0.0
N404 N 0.51633 0.95557 0.59174 0.0
C405 C 0.50706 0.9413 0.63848 0.0
C406 C 0.53175 0.91024 0.60243 0.0
Tb407 Tb 0.50452 0.99307 0.57749 0.0
N408 N 0.53013 0.98297 0.49573 0.0
C409 C 0.5349 0.99671 0.44279 0.0
C410 C 0.55863 0.96695 0.3945 0.0
C411 C 0.54903 0.98891 0.39155 0.0
H412 H 0.49415 0.94747 0.67242 0.0
H413 H 0.55236 0.99984 0.34954 0.0
H414 H 0.57422 0.92377 0.41559 0.0
H415 H 0.50795 0.90776 0.68348 0.0
H416 H 0.52789 0.01374 0.43895 0.0
H417 H 0.46509 0.03644 0.90296 0.0
H418 H 0.5693 0.96079 0.35434 0.0
H419 H 0.52414 0.08781 0.58049 0.0
H420 H 0.49139 0.02277 0.81689 0.0
H421 H 0.50864 0.12689 0.56489 0.0
H422 H 0.56256 0.89884 0.50761 0.0
H423 H 0.44584 0.07425 0.89173 0.0
H424 H 0.43916 0.10989 0.82527 0.0
H425 H 0.5377 0.89265 0.60745 0.0
H426 H 0.45054 0.1343 0.73185 0.0
N427 N 0.48736 0.05232 0.75604 0.0
C428 C 0.48315 0.03919 0.81055 0.0
C429 C 0.45712 0.06809 0.85301 0.0
C430 C 0.46161 0.0816 0.7977 0.0
C431 C 0.46805 0.04685 0.85966 0.0
C432 C 0.47739 0.07336 0.75028 0.0
H433 H 0.47666 0.14091 0.63482 0.0
N434 N 0.50074 0.07934 0.65771 0.0
C435 C 0.50142 0.11585 0.60233 0.0
C436 C 0.48411 0.08725 0.69886 0.0
C437 C 0.51022 0.0937 0.61158 0.0
C438 C 0.48336 0.12369 0.64189 0.0
C439 C 0.47482 0.10955 0.69189 0.0
O440 O 0.54078 0.06694 0.69539 0.0
O441 O 0.5297 0.01722 0.6137 0.0
O442 O 0.52787 0.98286 0.65718 0.0
O443 O 0.51879 0.01075 0.73612 0.0
O444 O 0.54184 0.04972 0.60555 0.0
O445 O 0.53085 0.04279 0.77102 0.0
O446 O 0.47594 0.97179 0.56034 0.0
O447 O 0.48951 0.01827 0.64475 0.0
O448 O 0.49032 0.05208 0.5997 0.0
O449 O 0.50257 0.02576 0.52102 0.0
O450 O 0.47901 0.98524 0.65419 0.0
O451 O 0.48581 0.99739 0.48928 0.0
C452 C 0.54442 0.02917 0.58347 0.0
C453 C 0.56942 0.05499 0.76789 0.0
C454 C 0.60467 0.03276 0.75359 0.0
C455 C 0.58124 0.03633 0.73931 0.0
C456 C 0.6159 0.04852 0.79629 0.0
C457 C 0.58099 0.07049 0.80928 0.0
C458 C 0.60418 0.06728 0.8232 0.0
C459 C 0.52672 0.98998 0.71949 0.0
C460 C 0.54514 0.05901 0.75401 0.0
C461 C 0.45803 0.1173 0.73661 0.0
C462 C 0.45155 0.10341 0.78977 0.0
C463 C 0.47588 1.00561 0.67693 0.0
C464 C 0.44634 0.99483 0.51746 0.0
C465 C 0.44169 0.01657 0.49004 0.0
C466 C 0.42157 0.02851 0.50721 0.0
C467 C 0.4057 0.01832 0.55031 0.0
C468 C 0.4299 0.98467 0.55907 0.0
C469 C 0.40975 0.99639 0.57531 0.0
C470 C 0.4928 0.04569 0.53731 0.0
C471 C 0.46929 0.98414 0.51038 0.0
H472 H 0.57209 0.02467 0.70668 0.0
H473 H 0.63362 0.04605 0.8111 0.0
H474 H 0.57202 0.08505 0.831 0.0
H475 H 0.61304 0.07915 0.85592 0.0
H476 H 0.45384 0.0245 0.45662 0.0
H477 H 0.3898 0.02706 0.56277 0.0
H478 H 0.43291 0.96793 0.58072 0.0
H479 H 0.39731 0.98842 0.60753 0.0
Tb480 Tb 0.53639 0.50299 0.56076 0.0
C481 C 0.44005 0.49503 0.67711 0.0
C482 C 0.41377 0.51524 0.60523 0.0
C483 C 0.39992 0.48332 0.67107 0.0
C484 C 0.4362 0.51177 0.63009 0.0
C485 C 0.42187 0.4809 0.69904 0.0
C486 C 0.39582 0.5006 0.62467 0.0
C487 C 0.44756 0.46511 0.78084 0.0
N488 N 0.46126 0.49367 0.70466 0.0
C489 C 0.46493 0.47971 0.75821 0.0
C490 C 0.42604 0.46543 0.75041 0.0
Tb491 Tb 0.48857 0.51825 0.66338 0.0
N492 N 0.45402 0.52553 0.61175 0.0
C493 C 0.45 0.54374 0.57062 0.0
C494 C 0.4098 0.53386 0.56353 0.0
C495 C 0.42801 0.54805 0.54578 0.0
H496 H 0.48151 0.47926 0.78221 0.0
H497 H 0.42509 0.56251 0.51333 0.0
H498 H 0.3786 0.50283 0.60518 0.0
H499 H 0.45082 0.45361 0.82167 0.0
H500 H 0.4634 0.55515 0.55549 0.0
H501 H 0.60592 0.47441 0.71715 0.0
H502 H 0.39264 0.53776 0.54605 0.0
H503 H 0.53813 0.53442 0.42021 0.0
H504 H 0.56632 0.47484 0.67496 0.0
H505 H 0.56536 0.55984 0.36522 0.0
H506 H 0.3858 0.47249 0.68681 0.0
H507 H 0.63462 0.50202 0.67395 0.0
H508 H 0.6442 0.53371 0.59577 0.0
H509 H 0.41255 0.45423 0.76835 0.0
H510 H 0.6331 0.55699 0.49982 0.0
N511 N 0.572 0.50284 0.60925 0.0
C512 C 0.57846 0.48724 0.65628 0.0
C513 C 0.61708 0.50249 0.65603 0.0
C514 C 0.6107 0.51777 0.60623 0.0
C515 C 0.60098 0.4869 0.68038 0.0
C516 C 0.5879 0.51712 0.58237 0.0
H517 H 0.60394 0.56648 0.41287 0.0
N518 N 0.56033 0.52692 0.50191 0.0
C519 C 0.57021 0.55151 0.41086 0.0
C520 C 0.58186 0.52965 0.52711 0.0
C521 C 0.5547 0.53694 0.44279 0.0
C522 C 0.59194 0.55527 0.43799 0.0
C523 C 0.59818 0.54396 0.49606 0.0
O524 O 0.52922 0.48109 0.47935 0.0
O525 O 0.49924 0.50475 0.57003 0.0
O526 O 0.48874 0.48078 0.64577 0.0
O527 O 0.52756 0.47461 0.62826 0.0
O528 O 0.51275 0.5122 0.48008 0.0
O529 O 0.55926 0.47605 0.53822 0.0
O530 O 0.47177 0.52806 0.75089 0.0
O531 O 0.52574 0.5157 0.65747 0.0
O532 O 0.53675 0.54059 0.56828 0.0
O533 O 0.4986 0.54761 0.59909 0.0
O534 O 0.51089 0.50639 0.74396 0.0
O535 O 0.49257 0.55225 0.69821 0.0
C536 C 0.49374 0.51065 0.51215 0.0
C537 C 0.53982 0.44258 0.50463 0.0
C538 C 0.51226 0.41101 0.50227 0.0
C539 C 0.51759 0.4342 0.49103 0.0
C540 C 0.52902 0.39625 0.52837 0.0
C541 C 0.55645 0.4275 0.53049 0.0
C542 C 0.55098 0.40453 0.54277 0.0
C543 C 0.50688 0.46699 0.64458 0.0
C544 C 0.54576 0.46704 0.49433 0.0
C545 C 0.62041 0.54594 0.52265 0.0
C546 C 0.62671 0.53274 0.57738 0.0
C547 C 0.53039 0.50929 0.71576 0.0
C548 C 0.49563 0.55213 0.81485 0.0
C549 C 0.51333 0.56852 0.81496 0.0
C550 C 0.52726 0.57166 0.87091 0.0
C551 C 0.5232 0.55828 0.9274 0.0
C552 C 0.49168 0.53907 0.87209 0.0
C553 C 0.50549 0.54212 0.92783 0.0
C554 C 0.51882 0.55454 0.57502 0.0
C555 C 0.48239 0.54766 0.75385 0.0
H556 H 0.5046 0.44543 0.47026 0.0
H557 H 0.5252 0.37824 0.53653 0.0
H558 H 0.57366 0.43353 0.5417 0.0
H559 H 0.56385 0.39308 0.56292 0.0
H560 H 0.51618 0.57897 0.77154 0.0
H561 H 0.53373 0.56029 0.97121 0.0
H562 H 0.47817 0.52625 0.87355 0.0
H563 H 0.50249 0.53186 0.97145 0.0
Tb564 Tb 0.01667 0.53179 0.5776 0.0
C565 C 0.02227 0.44018 0.71958 0.0
C566 C 0.00965 0.41147 0.64017 0.0
C567 C 0.03706 0.40102 0.72545 0.0
C568 C 0.00987 0.43444 0.66327 0.0
C569 C 0.03556 0.42334 0.75211 0.0
C570 C 0.02398 0.39505 0.66983 0.0
C571 C 0.0423 0.45078 0.83998 0.0
N572 N 0.01986 0.46177 0.74525 0.0
C573 C 0.0287 0.46681 0.8066 0.0
C574 C 0.04609 0.42909 0.81212 0.0
Tb575 Tb 0.99794 0.48654 0.68293 0.0
N576 N 0.99604 0.45069 0.63581 0.0
C577 C 0.9797 0.44436 0.59046 0.0
C578 C 0.99392 0.40532 0.5909 0.0
C579 C 0.97858 0.42173 0.5669 0.0
H580 H 0.02597 0.48329 0.82988 0.0
H581 H 0.96569 0.41694 0.53078 0.0
H582 H 0.02436 0.37744 0.65182 0.0
H583 H 0.04982 0.45515 0.88736 0.0
H584 H 0.96743 0.45661 0.57189 0.0
H585 H 0.06041 0.59644 0.72632 0.0
H586 H 0.99276 0.38769 0.57359 0.0
H587 H 0.98035 0.53808 0.45098 0.0
H588 H 0.05264 0.55772 0.68686 0.0
H589 H 0.95707 0.56893 0.40199 0.0
H590 H 0.04741 0.38796 0.74929 0.0
H591 H 0.03683 0.6291 0.68758 0.0
H592 H 1.00449 0.64343 0.61771 0.0
H593 H 0.05648 0.41667 0.83845 0.0
H594 H 0.9759 0.63587 0.53064 0.0
N595 N 0.02435 0.56715 0.62493 0.0
C596 C 0.04196 0.57126 0.66846 0.0
C597 C 0.03307 0.61184 0.67024 0.0
C598 C 0.01547 0.60785 0.62472 0.0
C599 C 0.04647 0.59349 0.69181 0.0
C600 C 0.01175 0.58514 0.60179 0.0
H601 H 0.95833 0.60824 0.44939 0.0
N602 N 0.99425 0.55933 0.52777 0.0
C603 C 0.96787 0.57258 0.44436 0.0
C604 C 0.99595 0.58102 0.55224 0.0
C605 C 0.98116 0.55512 0.47244 0.0
C606 C 0.96855 0.5947 0.47144 0.0
C607 C 0.98307 0.59929 0.52505 0.0
O608 O 0.02859 0.5446 0.48717 0.0
O609 O 0.01239 0.4947 0.5868 0.0
O610 O 0.03564 0.48512 0.6845 0.0
O611 O 0.04484 0.52188 0.64641 0.0
O612 O 1.00532 0.50879 0.4975 0.0
O613 O 0.0516 0.52722 0.55303 0.0
O614 O 0.97194 0.49874 0.74688 0.0
O615 O 1.00188 0.52351 0.67168 0.0
O616 O 0.97889 0.53334 0.58863 0.0
O617 O 0.97119 0.49504 0.60979 0.0
O618 O 0.00817 0.51018 0.7629 0.0
O619 O 0.9734 0.46323 0.71972 0.0
C620 C 0.0066 0.48961 0.52801 0.0
C621 C 0.05534 0.51913 0.43866 0.0
C622 C 0.07866 0.48748 0.39684 0.0
C623 C 0.07258 0.50249 0.44831 0.0
C624 C 0.06751 0.48898 0.33558 0.0
C625 C 0.04426 0.52038 0.37685 0.0
C626 C 0.05025 0.50527 0.32588 0.0
C627 C 0.05049 0.50214 0.67569 0.0
C628 C 0.04848 0.53468 0.49322 0.0
C629 C 0.98577 0.62166 0.55044 0.0
C630 C 1.00206 0.62596 0.59993 0.0
C631 C 0.00777 0.5291 0.73003 0.0
C632 C 0.93653 0.48017 0.72501 0.0
C633 C 0.92412 0.50088 0.72953 0.0
C634 C 0.90104 0.50186 0.70978 0.0
C635 C 0.89028 0.482 0.6849 0.0
C636 C 0.92553 0.46042 0.69969 0.0
C637 C 0.90257 0.46143 0.67946 0.0
C638 C 0.96452 0.51561 0.58946 0.0
C639 C 0.96091 0.47936 0.74571 0.0
H640 H 0.0815 0.50138 0.49527 0.0
H641 H 0.07236 0.47769 0.29512 0.0
H642 H 0.03088 0.53296 0.36784 0.0
H643 H 0.04165 0.50633 0.27854 0.0
H644 H 0.93219 0.51617 0.75004 0.0
H645 H 0.87236 0.48241 0.67021 0.0
H646 H 0.93464 0.44421 0.69538 0.0
H647 H 0.89422 0.44617 0.66002 0.0
C648 C 0.13268 0.05558 0.25647 0.0
C649 C 0.14795 0.03683 0.25171 0.0
C650 C 0.11354 0.05523 0.29924 0.0
C651 C 0.10955 0.03584 0.33993 0.0
C652 C 0.12468 0.01674 0.33492 0.0
C653 C 0.14346 0.01738 0.2908 0.0
C654 C 0.09827 0.0762 0.30232 0.0
C655 C 0.12126 0.9957 0.37724 0.0
C656 C 0.07551 0.04264 0.50088 0.0
C657 C 0.05451 0.03179 0.48559 0.0
C658 C 0.0934 0.04425 0.45409 0.0
C659 C 0.09008 0.03566 0.38909 0.0
C660 C 0.06834 0.02634 0.37183 0.0
C661 C 0.05093 0.02443 0.42012 0.0
C662 C 0.11624 0.05426 0.47513 0.0
C663 C 0.06362 0.01789 0.3025 0.0
H664 H 0.136 0.07098 0.22812 0.0
H665 H 0.15472 1.00256 0.28726 0.0
H666 H 0.08022 0.07176 0.31456 0.0
H667 H 0.10491 0.08803 0.3411 0.0
H668 H 0.09844 0.08564 0.25476 0.0
H669 H 0.13433 0.98217 0.36729 0.0
H670 H 0.1222 1.00061 0.43024 0.0
H671 H 0.10392 0.98832 0.36841 0.0
H672 H 0.07832 0.04922 0.55041 0.0
H673 H 0.03474 0.01662 0.40659 0.0
H674 H 0.12177 0.06777 0.44008 0.0
H675 H 0.12953 0.04054 0.47428 0.0
H676 H 0.11561 0.0618 0.52565 0.0
H677 H 0.06728 0.03179 0.26663 0.0
H678 H 0.04553 0.01215 0.29585 0.0
H679 H 0.07521 1.00327 0.29047 0.0
C680 C 0.49295 0.15594 0.30854 0.0
C681 C 0.47561 0.15737 0.26029 0.0
C682 C 0.49472 0.13682 0.35068 0.0
C683 C 0.47878 0.11845 0.34494 0.0
C684 C 0.46157 0.11948 0.29537 0.0
C685 C 0.46015 0.13887 0.25383 0.0
C686 C 0.51334 0.13665 0.40268 0.0
C687 C 0.44431 0.1003 0.28728 0.0
C688 C 0.49744 0.06158 0.42259 0.0
C689 C 0.4868 0.06259 0.48474 0.0
C690 C 0.49432 0.07917 0.37579 0.0
C691 C 0.48014 0.09834 0.39119 0.0
C692 C 0.4684 0.09883 0.45258 0.0
C693 C 0.47175 0.08093 0.49825 0.0
C694 C 0.50708 0.07775 0.311 0.0
C695 C 0.45308 0.11878 0.47144 0.0
H696 H 0.50521 0.16989 0.31363 0.0
H697 H 0.44649 0.1398 0.21751 0.0
H698 H 0.50537 0.13912 0.45193 0.0
H699 H 0.52246 0.11987 0.40305 0.0
H700 H 0.52617 0.15057 0.39518 0.0
H701 H 0.43256 0.10312 0.2448 0.0
H702 H 0.45326 0.08359 0.28028 0.0
H703 H 0.43393 0.09894 0.33295 0.0
H704 H 0.50902 0.04753 0.41129 0.0
H705 H 0.46309 0.0817 0.54564 0.0
H706 H 0.52014 0.09167 0.30893 0.0
H707 H 0.49506 0.08038 0.26912 0.0
H708 H 0.51594 0.06095 0.30419 0.0
H709 H 0.46366 0.13454 0.4776 0.0
H710 H 0.44365 0.11566 0.51826 0.0
H711 H 0.44043 0.12216 0.43168 0.0
C712 C 0.39694 0.47383 0.25317 0.0
C713 C 0.37568 0.48526 0.25939 0.0
C714 C 0.41508 0.47775 0.2983 0.0
C715 C 0.4122 0.49367 0.35111 0.0
C716 C 0.39083 0.50525 0.35748 0.0
C717 C 0.37292 0.50082 0.31219 0.0
C718 C 0.43752 0.46506 0.28889 0.0
C719 C 0.38646 0.52187 0.41336 0.0
C720 C 0.45576 0.49025 0.49391 0.0
C721 C 0.47136 0.50768 0.47724 0.0
C722 C 0.43591 0.48609 0.45518 0.0
C723 C 0.43197 0.49909 0.39697 0.0
C724 C 0.44762 0.51689 0.38074 0.0
C725 C 0.46705 0.52087 0.42079 0.0
C726 C 0.41959 0.46731 0.4757 0.0
C727 C 0.44412 0.53147 0.3201 0.0
H728 H 0.39954 0.46189 0.21252 0.0
H729 H 0.35648 0.50929 0.31921 0.0
H730 H 0.45141 0.47755 0.27785 0.0
H731 H 0.44236 0.45606 0.33504 0.0
H732 H 0.43664 0.45222 0.24804 0.0
H733 H 0.37078 0.53242 0.40516 0.0
H734 H 0.38402 0.51184 0.45925 0.0
H735 H 0.40131 0.5336 0.42049 0.0
H736 H 0.45931 0.47953 0.53635 0.0
H737 H 0.47921 0.53419 0.40724 0.0
H738 H 0.42183 0.45224 0.44247 0.0
H739 H 0.40148 0.47313 0.47134 0.0
H740 H 0.42273 0.46172 0.52733 0.0
H741 H 0.4445 0.52042 0.2752 0.0
H742 H 0.45749 0.54502 0.3152 0.0
H743 H 0.42699 0.53988 0.322 0.0
C744 C 0.03834 0.3912 0.26352 0.0
C745 C 0.02538 0.37077 0.26795 0.0
C746 C 0.03524 0.40965 0.30848 0.0
C747 C 0.01851 0.40812 0.35926 0.0
C748 C 1.00501 0.3878 0.36308 0.0
C749 C 0.00878 0.36943 0.3183 0.0
C750 C 0.04987 0.43093 0.30131 0.0
C751 C 0.98691 0.38493 0.41554 0.0
C752 C 0.02496 0.4504 0.50591 0.0
C753 C 0.00878 0.46748 0.49022 0.0
C754 C 0.02759 0.43053 0.46551 0.0
C755 C 0.01465 0.42816 0.40616 0.0
C756 C 0.99853 0.44556 0.39011 0.0
C757 C 0.99578 0.46479 0.43216 0.0
C758 C 0.04401 0.4119 0.48657 0.0
C759 C 0.98428 0.44399 0.32788 0.0
H760 H 0.05094 0.39292 0.22451 0.0
H761 H 0.99892 0.35374 0.32394 0.0
H762 H 0.03872 0.44599 0.29091 0.0
H763 H 0.05905 0.43453 0.34825 0.0
H764 H 0.06277 0.42924 0.2611 0.0
H765 H 0.97405 0.37162 0.40151 0.0
H766 H 0.99543 0.37931 0.46162 0.0
H767 H 0.97773 0.40131 0.42556 0.0
H768 H 0.03556 0.45259 0.54957 0.0
H769 H 0.98351 0.47807 0.41899 0.0
H770 H 0.05645 0.40819 0.44641 0.0
H771 H 0.0343 0.39579 0.49568 0.0
H772 H 0.05356 0.41661 0.53226 0.0
H773 H 0.99574 0.44348 0.28407 0.0
H774 H 0.97227 0.45875 0.32271 0.0
H775 H 0.97414 0.42781 0.32774 0.0
C776 C 0.88902 0.96826 0.01478 0.0
C777 C 0.87085 0.98432 0.01324 0.0
C778 C 0.90777 0.96963 0.97085 0.0
C779 C 0.90903 0.98789 0.92489 0.0
C780 C 0.89141 1.00479 0.92498 0.0
C781 C 0.87253 1.00269 0.96839 0.0
C782 C 0.9259 0.95103 0.97205 0.0
C783 C 0.89218 0.02482 0.87787 0.0
C784 C 0.96677 1.00092 0.84133 0.0
C785 C 0.96389 0.99087 0.77855 0.0
C786 C 0.94923 0.99998 0.88946 0.0
C787 C 0.92818 0.98867 0.87486 0.0
C788 C 0.9254 0.97805 0.81209 0.0
C789 C 0.94333 0.979 0.76531 0.0
C790 C 0.95293 0.01181 0.9552 0.0
C791 C 0.90314 0.96626 0.79351 0.0
H792 H 0.88851 0.95428 0.04989 0.0
H793 H 0.85869 0.01513 0.96541 0.0
H794 H 0.9263 0.94211 0.92348 0.0
H795 H 0.94314 0.95872 0.98016 0.0
H796 H 0.92269 0.93806 0.01108 0.0
H797 H 0.87838 0.0376 0.88799 0.0
H798 H 0.90908 0.03364 0.88115 0.0
H799 H 0.89022 0.01849 0.82636 0.0
H800 H 0.98244 0.01027 0.85227 0.0
H801 H 0.94097 0.97093 0.71738 0.0
H802 H 0.95044 0.99941 0.99602 0.0
H803 H 0.94001 0.0257 0.9618 0.0
H804 H 0.9704 0.01943 0.95961 0.0
H805 H 0.89878 0.95295 0.83054 0.0
H806 H 0.90391 0.95809 0.74381 0.0
H807 H 0.8889 0.97897 0.79353 0.0
C808 C 0.52654 0.88344 0.96806 0.0
C809 C 0.54591 0.88219 0.00969 0.0
C810 C 0.52341 0.90188 0.92393 0.0
C811 C 0.5403 0.91941 0.91961 0.0
C812 C 0.55968 0.91854 0.96194 0.0
C813 C 0.56205 0.90027 1.00695 0.0
C814 C 0.50222 0.90232 0.88072 0.0
C815 C 0.57841 0.93649 0.95805 0.0
C816 C 0.54385 0.95248 0.75727 0.0
C817 C 0.5323 0.97308 0.77255 0.0
C818 C 0.54664 0.935 0.8045 0.0
C819 C 0.53804 0.93822 0.86941 0.0
C820 C 0.52707 0.95929 0.88588 0.0
C821 C 0.52443 0.97645 0.83748 0.0
C822 C 0.55833 0.91282 0.7844 0.0
C823 C 0.51745 0.96344 0.95415 0.0
H824 H 0.51403 0.86963 0.96821 0.0
H825 H 0.57683 0.90011 0.03952 0.0
H826 H 0.4933 0.91913 0.88592 0.0
H827 H 0.50723 0.90042 0.82811 0.0
H828 H 0.48993 0.88837 0.89309 0.0
H829 H 0.5869 0.93536 0.90905 0.0
H830 H 0.57101 0.95403 0.96268 0.0
H831 H 0.59172 0.93425 0.99691 0.0
H832 H 0.55031 0.94977 0.70767 0.0
H833 H 0.51552 0.99222 0.85022 0.0
H834 H 0.54617 0.89822 0.78921 0.0
H835 H 0.57308 0.90933 0.81771 0.0
H836 H 0.56463 0.91321 0.73262 0.0
H837 H 0.50405 0.9504 0.96499 0.0
H838 H 0.50975 0.98086 0.95958 0.0
H839 H 0.5312 0.96146 0.99172 0.0
C840 C 0.62786 0.54785 0.97871 0.0
C841 C 0.64771 0.53407 0.976 0.0
C842 C 0.60906 0.54404 0.93598 0.0
C843 C 0.60993 0.5261 0.88798 0.0
C844 C 0.62978 0.51183 0.88602 0.0
C845 C 0.64834 0.51603 0.92949 0.0
C846 C 0.58861 0.55978 0.94236 0.0
C847 C 0.63201 0.4925 0.83653 0.0
C848 C 0.55413 0.50137 0.81574 0.0
C849 C 0.55156 0.51347 0.75632 0.0
C850 C 0.57275 0.50549 0.8588 0.0
C851 C 0.58987 0.52178 0.84185 0.0
C852 C 0.58724 0.53434 0.78222 0.0
C853 C 0.56785 0.53047 0.74106 0.0
C854 C 0.5738 0.49274 0.92347 0.0
C855 C 0.605 0.55178 0.76181 0.0
H856 H 0.62688 0.56171 0.01472 0.0
H857 H 0.66366 0.50548 0.92573 0.0
H858 H 0.59218 0.57569 0.91419 0.0
H859 H 0.57264 0.55181 0.9232 0.0
H860 H 0.58578 0.56493 0.99468 0.0
H861 H 0.64573 0.48011 0.85045 0.0
H862 H 0.61564 0.48294 0.83084 0.0
H863 H 0.63659 0.49998 0.78818 0.0
H864 H 0.54124 0.48873 0.82911 0.0
H865 H 0.56555 0.54061 0.69678 0.0
H866 H 0.57426 0.50528 0.96509 0.0
H867 H 0.58981 0.48237 0.926 0.0
H868 H 0.55886 0.48108 0.93038 0.0
H869 H 0.60613 0.56564 0.79961 0.0
H870 H 0.60097 0.55961 0.71322 0.0
H871 H 0.62216 0.54344 0.75891 0.0
C872 C 0.0118 0.65153 0.92574 0.0
C873 C 0.99314 0.65382 0.96948 0.0
C874 C 0.01436 0.63215 0.88407 0.0
C875 C 0.99789 0.61409 0.88541 0.0
C876 C 0.97928 0.61594 0.93063 0.0
C877 C 0.97702 0.63574 0.97131 0.0
C878 C 0.03478 0.63173 0.83825 0.0
C879 C 0.96193 0.59675 0.93712 0.0
C880 C 0.99134 0.56953 0.74426 0.0
C881 C 0.00618 0.55188 0.76476 0.0
C882 C 0.98903 0.59016 0.78156 0.0
C883 C 1.00077 0.59273 0.8429 0.0
C884 C 0.01533 0.57465 0.86417 0.0
C885 C 0.01801 0.55473 0.82478 0.0
C886 C 0.97423 0.6093 0.75492 0.0
C887 C 0.02808 0.57626 0.92904 0.0
H888 H 0.02478 0.6649 0.92409 0.0
H889 H 0.96234 0.6371 1.00401 0.0
H890 H 0.05027 0.63871 0.86356 0.0
H891 H 0.03889 0.61431 0.81936 0.0
H892 H 0.03106 0.64316 0.79588 0.0
H893 H 0.94915 0.60021 0.97673 0.0
H894 H 0.95257 0.59429 0.88986 0.0
H895 H 0.9709 0.58034 0.94816 0.0
H896 H 0.98147 0.56718 0.6993 0.0
H897 H 0.0292 0.54103 0.84171 0.0
H898 H 0.98445 0.62542 0.7523 0.0
H899 H 0.95957 0.61261 0.78864 0.0
H900 H 0.96734 0.60524 0.70496 0.0
H901 H 0.04075 0.59052 0.92703 0.0
H902 H 0.03738 0.5601 0.941 0.0
H903 H 0.01588 0.58022 0.96972 0.0
C904 C 0.1049 0.18715 0.4062 0.0
C905 C 0.10137 0.18516 0.33782 0.0
C906 C 0.09557 0.17081 0.44937 0.0
C907 C 0.08213 0.15263 0.4231 0.0
C908 C 0.08208 0.14847 0.35416 0.0
C909 C 0.09194 0.16476 0.31217 0.0
C910 C 0.09727 0.17485 0.52285 0.0
C911 C 0.06818 0.12917 0.32381 0.0
C912 C 0.04551 0.11061 0.52002 0.0
C913 C 0.02421 0.12198 0.5194 0.0
C914 C 0.06517 0.12099 0.4932 0.0
C915 C 0.0632 0.14284 0.46321 0.0
C916 C 0.04188 0.1547 0.46482 0.0
C917 C 0.02273 0.14416 0.49324 0.0
C918 C 0.08754 0.10791 0.49413 0.0
C919 C 0.03887 0.17807 0.43333 0.0
H920 H 0.11275 0.20263 0.42617 0.0
H921 H 0.08933 0.16294 0.25934 0.0
H922 H 0.0817 0.18416 0.54013 0.0
H923 H 0.09822 0.15828 0.54972 0.0
H924 H 0.11257 0.18545 0.53559 0.0
H925 H 0.07458 0.12461 0.2737 0.0
H926 H 0.06851 0.1136 0.35512 0.0
H927 H 0.05 0.1348 0.31914 0.0
H928 H 0.04677 0.0935 0.54088 0.0
H929 H 0.00624 0.15289 0.49204 0.0
H930 H 0.08873 0.09694 0.53877 0.0
H931 H 0.10269 0.11952 0.4927 0.0
H932 H 0.08817 0.09643 0.45025 0.0
H933 H 0.05134 0.19052 0.45461 0.0
H934 H 0.02126 0.18511 0.44043 0.0
H935 H 0.04228 0.17682 0.37949 0.0
C936 C 0.32742 0.09155 0.37411 0.0
C937 C 0.32773 0.10957 0.3282 0.0
C938 C 0.34719 0.0852 0.40865 0.0
C939 C 0.36804 0.09713 0.3972 0.0
C940 C 0.36801 0.1169 0.3566 0.0
C941 C 0.34783 0.12285 0.32225 0.0
C942 C 0.34615 0.06416 0.45235 0.0
C943 C 0.38949 0.13083 0.3451 0.0
C944 C 0.4091 0.06956 0.514 0.0
C945 C 0.41561 0.05051 0.47553 0.0
C946 C 0.39661 0.08771 0.48587 0.0
C947 C 0.38978 0.08602 0.41892 0.0
C948 C 0.39926 0.06848 0.37825 0.0
C949 C 0.41232 0.05095 0.40716 0.0
C950 C 0.38834 0.1071 0.52956 0.0
C951 C 0.39293 0.06627 0.30616 0.0
H952 H 0.31225 0.08089 0.37912 0.0
H953 H 0.34818 0.13719 0.28824 0.0
H954 H 0.35669 0.05012 0.43048 0.0
H955 H 0.35328 0.06815 0.50193 0.0
H956 H 0.32832 0.05768 0.45873 0.0
H957 H 0.3852 0.14937 0.34001 0.0
H958 H 0.40217 0.12884 0.38561 0.0
H959 H 0.39759 0.12517 0.29813 0.0
H960 H 0.4123 0.06944 0.56678 0.0
H961 H 0.4177 0.03633 0.37738 0.0
H962 H 0.37076 0.10317 0.54758 0.0
H963 H 0.38755 0.12349 0.50173 0.0
H964 H 0.39974 0.10941 0.5732 0.0
H965 H 0.37539 0.05885 0.3019 0.0
H966 H 0.40506 0.05485 0.27906 0.0
H967 H 0.39276 0.08335 0.28203 0.0
C968 C 0.40574 0.36616 0.30582 0.0
C969 C 0.40633 0.34222 0.31489 0.0
C970 C 0.41652 0.38095 0.35127 0.0
C971 C 0.42735 0.37143 0.40749 0.0
C972 C 0.42301 0.3482 0.42405 0.0
C973 C 0.41271 0.33367 0.37696 0.0
C974 C 0.41993 0.40581 0.33258 0.0
C975 C 0.43298 0.33771 0.48576 0.0
C976 C 0.49035 0.38597 0.42643 0.0
C977 C 0.4902 0.40147 0.47932 0.0
C978 C 0.46989 0.3766 0.40214 0.0
C979 C 0.4487 0.3824 0.43296 0.0
C980 C 0.44847 0.39807 0.48691 0.0
C981 C 0.46932 0.40776 0.50884 0.0
C982 C 0.47111 0.36036 0.34349 0.0
C983 C 0.4265 0.40404 0.52277 0.0
H984 H 0.3998 0.373 0.25908 0.0
H985 H 0.41267 0.31527 0.3856 0.0
H986 H 0.42053 0.41708 0.37686 0.0
H987 H 0.43657 0.40756 0.3062 0.0
H988 H 0.40604 0.4119 0.29924 0.0
H989 H 0.42327 0.32209 0.50047 0.0
H990 H 0.45109 0.33259 0.47629 0.0
H991 H 0.4329 0.35023 0.52735 0.0
H992 H 0.5066 0.38141 0.40348 0.0
H993 H 0.46938 0.41992 0.54955 0.0
H994 H 0.45959 0.36639 0.30344 0.0
H995 H 0.46531 0.34294 0.35819 0.0
H996 H 0.4888 0.35885 0.32322 0.0
H997 H 0.42866 0.41925 0.55577 0.0
H998 H 0.42124 0.38922 0.55355 0.0
H999 H 0.41232 0.40746 0.48749 0.0
C1000 C 0.19052 0.40989 0.39534 0.0
C1001 C 0.19112 0.40449 0.32749 0.0
C1002 C 0.17026 0.41817 0.42469 0.0
C1003 C 0.15018 0.42006 0.38574 0.0
C1004 C 0.14951 0.40961 0.32255 0.0
C1005 C 0.17011 0.40223 0.29355 0.0
C1006 C 0.17132 0.42805 0.4937 0.0
C1007 C 0.12785 0.40968 0.28137 0.0
C1008 C 0.09495 0.45028 0.43637 0.0
C1009 C 0.09792 0.47139 0.40454 0.0
C1010 C 0.11237 0.4335 0.43447 0.0
C1011 C 0.13311 0.43835 0.40071 0.0
C1012 C 0.13668 0.46049 0.3732 0.0
C1013 C 0.11887 0.47663 0.37482 0.0
C1014 C 0.10782 0.4103 0.4648 0.0
C1015 C 0.15879 0.46674 0.33837 0.0
H1016 H 0.20636 0.4102 0.42361 0.0
H1017 H 0.16984 0.39744 0.2418 0.0
H1018 H 0.17457 0.44685 0.49083 0.0
H1019 H 0.15481 0.42552 0.52015 0.0
H1020 H 0.18545 0.42014 0.52278 0.0
H1021 H 0.1287 0.39678 0.24069 0.0
H1022 H 0.11255 0.40603 0.31233 0.0
H1023 H 0.12551 0.42696 0.25919 0.0
H1024 H 0.07868 0.44656 0.45997 0.0
H1025 H 0.12102 0.49316 0.35095 0.0
H1026 H 0.1239 0.40123 0.47858 0.0
H1027 H 0.09844 0.3994 0.42851 0.0
H1028 H 0.09686 0.41209 0.50945 0.0
H1029 H 0.17385 0.46247 0.36968 0.0
H1030 H 0.1596 0.48533 0.326 0.0
H1031 H 0.16028 0.45667 0.29179 0.0
C1032 C 0.92532 0.85524 0.92886 0.0
C1033 C 0.91585 0.83542 0.8999 0.0
C1034 C 0.93655 0.87165 0.89033 0.0
C1035 C 0.93765 0.86846 0.82089 0.0
C1036 C 0.92435 0.8509 0.79078 0.0
C1037 C 0.91389 0.8342 0.8308 0.0
C1038 C 0.95023 0.89022 0.92527 0.0
C1039 C 0.92307 0.84818 0.71677 0.0
C1040 C 0.97717 0.91523 0.76476 0.0
C1041 C 0.99839 0.90409 0.77404 0.0
C1042 C 0.95648 0.90277 0.76822 0.0
C1043 C 0.95716 0.8792 0.78501 0.0
C1044 C 0.97848 0.8674 0.78401 0.0
C1045 C 0.99881 0.87997 0.7766 0.0
C1046 C 0.93405 0.91542 0.76105 0.0
C1047 C 0.98017 0.84198 0.79894 0.0
H1048 H 0.92678 0.85646 0.98217 0.0
H1049 H 0.90599 0.81922 0.80801 0.0
H1050 H 0.96882 0.88591 0.9229 0.0
H1051 H 0.94781 0.90706 0.90102 0.0
H1052 H 0.94528 0.89206 0.97806 0.0
H1053 H 0.90548 0.84281 0.70175 0.0
H1054 H 0.92757 0.86435 0.69081 0.0
H1055 H 0.93505 0.8344 0.70054 0.0
H1056 H 0.97645 0.93379 0.76019 0.0
H1057 H 0.01517 0.87106 0.77907 0.0
H1058 H 0.9303 0.92479 0.80765 0.0
H1059 H 0.91953 0.90358 0.75007 0.0
H1060 H 0.93532 0.92828 0.72088 0.0
H1061 H 0.9741 0.83869 0.85002 0.0
H1062 H 0.99804 0.83538 0.79436 0.0
H1063 H 0.96905 0.83202 0.76472 0.0
C1064 C 0.68529 0.92923 0.81679 0.0
C1065 C 0.68228 0.93389 0.88433 0.0
C1066 C 0.67024 0.93863 0.76963 0.0
C1067 C 0.65263 0.95385 0.79073 0.0
C1068 C 0.6482 0.95654 0.8594 0.0
C1069 C 0.66284 0.94613 0.9051 0.0
C1070 C 0.67438 0.93329 0.69763 0.0
C1071 C 0.62974 0.9726 0.88541 0.0
C1072 C 0.64107 0.01188 0.72562 0.0
C1073 C 0.61702 0.01156 0.73126 0.0
C1074 C 0.65386 0.9917 0.73406 0.0
C1075 C 0.64209 0.97072 0.74471 0.0
C1076 C 0.61827 0.9696 0.73162 0.0
C1077 C 0.60568 0.99018 0.72735 0.0
C1078 C 0.67966 0.99347 0.74075 0.0
C1079 C 0.60568 0.94699 0.73145 0.0
H1080 H 0.70011 0.91936 0.80061 0.0
H1081 H 0.66048 0.94977 0.95728 0.0
H1082 H 0.66052 0.93986 0.66502 0.0
H1083 H 0.69108 0.94076 0.68216 0.0
H1084 H 0.67576 0.91436 0.69059 0.0
H1085 H 0.62888 0.97283 0.94024 0.0
H1086 H 0.63307 0.99043 0.86844 0.0
H1087 H 0.61265 0.96734 0.8665 0.0
H1088 H 0.65001 0.02819 0.72193 0.0
H1089 H 0.58707 0.98927 0.7277 0.0
H1090 H 0.68806 0.9811 0.70658 0.0
H1091 H 0.68495 0.98906 0.79186 0.0
H1092 H 0.6861 0.01101 0.72943 0.0
H1093 H 0.59218 0.94699 0.6926 0.0
H1094 H 0.5971 0.94463 0.7798 0.0
H1095 H 0.61749 0.93226 0.72255 0.0
C1096 C 0.61949 0.67118 0.91991 0.0
C1097 C 0.60588 0.69093 0.911 0.0
C1098 C 0.61186 0.64956 0.89739 0.0
C1099 C 0.59034 0.64793 0.86511 0.0
C1100 C 0.57878 0.66819 0.84566 0.0
C1101 C 0.58664 0.68948 0.86903 0.0
C1102 C 0.62527 0.62831 0.91584 0.0
C1103 C 0.55608 0.66727 0.8093 0.0
C1104 C 0.55946 0.59292 0.81577 0.0
C1105 C 0.54526 0.58965 0.87103 0.0
C1106 C 0.57533 0.61112 0.81396 0.0
C1107 C 0.5769 0.62629 0.8687 0.0
C1108 C 0.56326 0.62242 0.92562 0.0
C1109 C 0.54761 0.60419 0.92595 0.0
C1110 C 0.59014 0.61423 0.75344 0.0
C1111 C 0.56428 0.63825 0.98518 0.0
H1112 H 0.63497 0.67222 0.94966 0.0
H1113 H 0.57597 0.70446 0.86061 0.0
H1114 H 0.61797 0.62091 0.96168 0.0
H1115 H 0.62407 0.61497 0.8765 0.0
H1116 H 0.64368 0.63237 0.92507 0.0
H1117 H 0.5516 0.68416 0.78723 0.0
H1118 H 0.55643 0.65408 0.76948 0.0
H1119 H 0.54225 0.6625 0.84444 0.0
H1120 H 0.55804 0.58133 0.77378 0.0
H1121 H 0.53655 0.60183 0.96846 0.0
H1122 H 0.60828 0.61031 0.7661 0.0
H1123 H 0.58957 0.63231 0.7362 0.0
H1124 H 0.58478 0.60273 0.71214 0.0
H1125 H 0.58218 0.63955 1.00374 0.0
H1126 H 0.55316 0.63224 0.02622 0.0
H1127 H 0.55865 0.65581 0.97108 0.0
C1128 C 0.81918 0.60015 0.83079 0.0
C1129 C 0.82897 0.60488 0.89285 0.0
C1130 C 0.83269 0.59072 0.77993 0.0
C1131 C 0.85585 0.58504 0.79335 0.0
C1132 C 0.86668 0.59447 0.85 0.0
C1133 C 0.85304 0.60488 0.89877 0.0
C1134 C 0.8214 0.58352 0.71599 0.0
C1135 C 0.89184 0.59032 0.86409 0.0
C1136 C 0.86923 0.52201 0.76644 0.0
C1137 C 0.88769 0.52296 0.72259 0.0
C1138 C 0.85848 0.54216 0.78848 0.0
C1139 C 0.86568 0.56381 0.76331 0.0
C1140 C 0.88341 0.56466 0.71545 0.0
C1141 C 0.89465 0.5442 0.69704 0.0
C1142 C 0.84031 0.54018 0.84168 0.0
C1143 C 0.89124 0.58686 0.6845 0.0
H1144 H 0.80069 0.60097 0.82428 0.0
H1145 H 0.86083 0.6099 0.94538 0.0
H1146 H 0.83391 0.58396 0.67455 0.0
H1147 H 0.81487 0.56565 0.72035 0.0
H1148 H 0.80658 0.59488 0.7043 0.0
H1149 H 0.89792 0.60014 0.90803 0.0
H1150 H 0.89478 0.5717 0.873 0.0
H1151 H 0.90238 0.59536 0.82095 0.0
H1152 H 0.86415 0.50553 0.78667 0.0
H1153 H 0.90907 0.54486 0.66336 0.0
H1154 H 0.82339 0.54571 0.82209 0.0
H1155 H 0.84462 0.5515 0.8843 0.0
H1156 H 0.83848 0.52229 0.86008 0.0
H1157 H 0.89219 0.58469 0.63005 0.0
H1158 H 0.90891 0.59096 0.70182 0.0
H1159 H 0.87975 0.60162 0.69583 0.0
C1160 C 0.00566 0.17372 0.83107 0.0
C1161 C 0.02309 0.17649 0.87846 0.0
C1162 C 1.00243 0.1525 0.79737 0.0
C1163 C 0.01671 0.13325 0.81208 0.0
C1164 C 0.03399 0.13606 0.86109 0.0
C1165 C 0.03716 0.15753 0.89261 0.0
C1166 C 0.98372 0.15134 0.74583 0.0
C1167 C 0.0489 0.11619 0.88164 0.0
C1168 C 0.99148 0.07363 0.77248 0.0
C1169 C 1.00484 0.06601 0.71891 0.0
C1170 C 0.99561 0.09497 0.80393 0.0
C1171 C 0.01294 0.1099 0.77972 0.0
C1172 C 0.02641 0.10238 0.72492 0.0
C1173 C 0.02236 0.08048 0.69565 0.0
C1174 C 0.98108 0.10171 0.86265 0.0
C1175 C 0.04427 0.11789 0.69471 0.0
H1176 H 0.99471 0.18826 0.81947 0.0
H1177 H 0.05048 0.15939 0.9298 0.0
H1178 H 0.98874 0.16219 0.70329 0.0
H1179 H 0.98021 0.13367 0.72758 0.0
H1180 H 0.96752 0.15866 0.76614 0.0
H1181 H 0.06085 0.12078 0.9225 0.0
H1182 H 0.03785 0.10174 0.89798 0.0
H1183 H 0.0592 0.1102 0.83884 0.0
H1184 H 0.9777 0.06269 0.79012 0.0
H1185 H 0.03229 0.07508 0.65297 0.0
H1186 H 0.96997 0.11652 0.84941 0.0
H1187 H 0.99224 0.10723 0.90438 0.0
H1188 H 0.96992 0.08738 0.87952 0.0
H1189 H 0.03543 0.13132 0.66528 0.0
H1190 H 0.05617 0.10822 0.66179 0.0
H1191 H 0.05457 0.12685 0.73311 0.0
C1192 C 0.36642 0.0325 0.91123 0.0
C1193 C 0.34544 0.02716 0.88048 0.0
C1194 C 0.38753 0.03054 0.87762 0.0
C1195 C 0.38804 0.0232 0.81054 0.0
C1196 C 0.3668 0.01787 0.77905 0.0
C1197 C 0.34583 0.02013 0.814 0.0
C1198 C 0.40905 0.03682 0.91501 0.0
C1199 C 0.36623 0.0087 0.70932 0.0
C1200 C 0.44187 0.0321 0.70176 0.0
C1201 C 0.45417 0.01167 0.7128 0.0
C1202 C 0.42064 0.0364 0.73407 0.0
C1203 C 0.41072 0.01933 0.77539 0.0
C1204 C 0.42281 0.99838 0.78443 0.0
C1205 C 0.44431 0.99498 0.75389 0.0
C1206 C 0.40897 0.05932 0.72448 0.0
C1207 C 0.41308 0.97948 0.82696 0.0
H1208 H 0.36637 0.03847 0.96211 0.0
H1209 H 0.32976 0.01577 0.7898 0.0
H1210 H 0.42448 0.0279 0.89578 0.0
H1211 H 0.41158 0.05566 0.91102 0.0
H1212 H 0.40732 0.03276 0.96834 0.0
H1213 H 0.34842 0.00693 0.69002 0.0
H1214 H 0.376 0.0202 0.67616 0.0
H1215 H 0.37461 0.99154 0.70792 0.0
H1216 H 0.44879 0.04469 0.6679 0.0
H1217 H 0.4534 0.97891 0.76164 0.0
H1218 H 0.40504 0.06723 0.77326 0.0
H1219 H 0.39243 0.05684 0.69807 0.0
H1220 H 0.41976 0.07146 0.69575 0.0
H1221 H 0.41228 0.98543 0.87911 0.0
H1222 H 0.42359 0.96352 0.82474 0.0
H1223 H 0.39526 0.9753 0.81115 0.0
C1224 C 0.4882 0.33467 0.76389 0.0
C1225 C 0.48843 0.33519 0.83328 0.0
C1226 C 0.49186 0.35486 0.72679 0.0
C1227 C 0.49539 0.3762 0.75983 0.0
C1228 C 0.49548 0.37677 0.82987 0.0
C1229 C 0.49227 0.3563 0.86553 0.0
C1230 C 0.49231 0.35327 0.65232 0.0
C1231 C 0.49847 0.39915 0.86733 0.0
C1232 C 0.5233 0.42905 0.68207 0.0
C1233 C 0.50409 0.44273 0.66713 0.0
C1234 C 0.52072 0.40682 0.70863 0.0
C1235 C 0.49841 0.39816 0.72205 0.0
C1236 C 0.47897 0.4115 0.70424 0.0
C1237 C 0.48207 0.4334 0.67633 0.0
C1238 C 0.54191 0.39285 0.72401 0.0
C1239 C 0.45484 0.40305 0.71697 0.0
H1240 H 0.48533 0.31841 0.73864 0.0
H1241 H 0.49206 0.35694 0.91907 0.0
H1242 H 0.48167 0.367 0.6298 0.0
H1243 H 0.51022 0.35576 0.63493 0.0
H1244 H 0.48612 0.33629 0.63401 0.0
H1245 H 0.49776 0.39676 0.9217 0.0
H1246 H 0.51522 0.40709 0.8546 0.0
H1247 H 0.48478 0.41146 0.85283 0.0
H1248 H 0.54043 0.43588 0.67437 0.0
H1249 H 0.46709 0.44337 0.66253 0.0
H1250 H 0.54043 0.37543 0.70155 0.0
H1251 H 0.5435 0.39061 0.77821 0.0
H1252 H 0.55787 0.40111 0.70548 0.0
H1253 H 0.45233 0.38574 0.69469 0.0
H1254 H 0.44158 0.41485 0.69671 0.0
H1255 H 0.45207 0.40144 0.77099 0.0
C1256 C 0.16219 0.49504 0.90813 0.0
C1257 C 0.1824 0.48769 0.87621 0.0
C1258 C 0.14129 0.49765 0.87339 0.0
C1259 C 0.14037 0.493 0.80456 0.0
C1260 C 0.16079 0.48596 0.77175 0.0
C1261 C 0.18143 0.48331 0.80783 0.0
C1262 C 0.12002 0.50497 0.91077 0.0
C1263 C 0.16077 0.48097 0.69847 0.0
C1264 C 0.08155 0.47826 0.72972 0.0
C1265 C 0.07425 0.49949 0.70402 0.0
C1266 C 0.10299 0.47584 0.76162 0.0
C1267 C 0.11796 0.49503 0.76748 0.0
C1268 C 0.11117 0.51627 0.7392 0.0
C1269 C 0.08955 0.5182 0.70777 0.0
C1270 C 0.10934 0.45281 0.7906 0.0
C1271 C 0.12658 0.53713 0.74323 0.0
H1272 H 0.1625 0.49812 0.96098 0.0
H1273 H 0.19688 0.47782 0.78232 0.0
H1274 H 0.11269 0.52079 0.8886 0.0
H1275 H 0.10671 0.49134 0.90697 0.0
H1276 H 0.12359 0.50838 0.96387 0.0
H1277 H 0.17814 0.4764 0.67972 0.0
H1278 H 0.14887 0.46652 0.68738 0.0
H1279 H 0.15441 0.49619 0.67107 0.0
H1280 H 0.07043 0.46341 0.7253 0.0
H1281 H 0.0846 0.53456 0.68692 0.0
H1282 H 0.10998 0.45427 0.84525 0.0
H1283 H 0.12668 0.44745 0.77362 0.0
H1284 H 0.09682 0.43912 0.77708 0.0
H1285 H 0.12924 0.54209 0.7957 0.0
H1286 H 0.1193 0.55213 0.71655 0.0
H1287 H 0.14372 0.53305 0.72216 0.0
C1288 C 0.98673 0.87155 0.32899 0.0
C1289 C 0.99231 0.85006 0.35613 0.0
C1290 C 0.98882 0.89218 0.36563 0.0
C1291 C 0.99658 0.89173 0.43214 0.0
C1292 C 1.00187 0.87 0.46042 0.0
C1293 C 0.9995 0.84951 0.42247 0.0
C1294 C 0.98205 0.91431 0.33261 0.0
C1295 C 0.01085 0.86845 0.53021 0.0
C1296 C 0.02717 0.94574 0.4979 0.0
C1297 C 0.01106 0.95549 0.54155 0.0
C1298 C 0.02261 0.92527 0.46251 0.0
C1299 C 1.00116 0.91395 0.46982 0.0
C1300 C 0.98451 0.92399 0.51282 0.0
C1301 C 0.98982 0.9443 0.54925 0.0
C1302 C 0.04096 0.91562 0.41745 0.0
C1303 C 0.96106 0.91327 0.52036 0.0
H1304 H 0.9805 0.87228 0.27854 0.0
H1305 H 1.00392 0.83308 0.44422 0.0
H1306 H 0.96393 0.91801 0.34582 0.0
H1307 H 0.99291 0.92893 0.34893 0.0
H1308 H 0.9831 0.91291 0.27793 0.0
H1309 H 0.01349 0.85035 0.54602 0.0
H1310 H 0.02749 0.87774 0.53408 0.0
H1311 H 0.99871 0.87691 0.56496 0.0
H1312 H 0.04376 0.95403 0.49224 0.0
H1313 H 0.97752 0.9512 0.58435 0.0
H1314 H 0.03453 0.91521 0.36581 0.0
H1315 H 0.04506 0.89764 0.43159 0.0
H1316 H 0.05706 0.92592 0.41896 0.0
H1317 H 0.95276 0.91156 0.47115 0.0
H1318 H 0.94967 0.92361 0.55313 0.0
H1319 H 0.96274 0.89571 0.54103 0.0
C1320 C 0.65064 0.99715 0.34417 0.0
C1321 C 0.6722 0.99913 0.37485 0.0
C1322 C 0.63 1.00042 0.37924 0.0
C1323 C 0.63051 1.00561 0.44793 0.0
C1324 C 0.65231 0.00743 0.47961 0.0
C1325 C 0.67281 1.00389 0.443 0.0
C1326 C 0.60786 0.99809 0.34104 0.0
C1327 C 0.65404 0.0141 0.55162 0.0
C1328 C 0.57751 0.03835 0.51007 0.0
C1329 C 0.56575 0.02187 0.54756 0.0
C1330 C 0.59874 0.03345 0.47963 0.0
C1331 C 0.60851 0.01115 0.48472 0.0
C1332 C 0.59671 0.99432 0.52261 0.0
C1333 C 0.57588 1.00009 0.55518 0.0
C1334 C 0.61061 0.05219 0.44116 0.0
C1335 C 0.60578 0.97007 0.52773 0.0
H1336 H 0.64983 0.99298 0.29191 0.0
H1337 H 0.68935 1.00557 0.4673 0.0
H1338 H 0.60406 0.97952 0.3347 0.0
H1339 H 0.59313 0.00659 0.36556 0.0
H1340 H 0.60971 1.00548 0.29082 0.0
H1341 H 0.67216 0.01582 0.56845 0.0
H1342 H 0.64503 0.0307 0.56038 0.0
H1343 H 0.64544 1.00098 0.58244 0.0
H1344 H 0.57013 0.05541 0.50502 0.0
H1345 H 0.56753 0.98754 0.58638 0.0
H1346 H 0.61035 0.04778 0.38775 0.0
H1347 H 0.62889 0.05362 0.45657 0.0
H1348 H 0.6022 0.06922 0.44798 0.0
H1349 H 0.6087 0.96285 0.47751 0.0
H1350 H 0.59378 0.9586 0.55476 0.0
H1351 H 0.62254 0.97005 0.55384 0.0
C1352 C 0.52679 0.66571 0.34648 0.0
C1353 C 0.53183 0.68663 0.37875 0.0
C1354 C 0.52447 0.64497 0.38166 0.0
C1355 C 0.52719 0.64488 0.45127 0.0
C1356 C 0.53205 0.66593 0.48438 0.0
C1357 C 0.53436 0.68646 0.44787 0.0
C1358 C 0.51948 0.62299 0.34403 0.0
C1359 C 0.53504 0.66673 0.55843 0.0
C1360 C 0.50195 0.59312 0.54264 0.0
C1361 C 0.52118 0.57867 0.54972 0.0
C1362 C 0.50373 0.61487 0.51233 0.0
C1363 C 0.52532 0.62267 0.48884 0.0
C1364 C 0.545 0.60868 0.49881 0.0
C1365 C 0.54271 0.58706 0.52938 0.0
C1366 C 0.48231 0.62924 0.50372 0.0
C1367 C 0.56844 0.61613 0.47508 0.0
H1368 H 0.52523 0.66538 0.29314 0.0
H1369 H 0.53809 0.70244 0.47362 0.0
H1370 H 0.53367 0.6105 0.35162 0.0
H1371 H 0.50351 0.61495 0.36304 0.0
H1372 H 0.51744 0.62594 0.29017 0.0
H1373 H 0.53825 0.68447 0.57711 0.0
H1374 H 0.51946 0.65984 0.58297 0.0
H1375 H 0.5497 0.65563 0.5731 0.0
H1376 H 0.48531 0.58736 0.5596 0.0
H1377 H 0.5579 0.57658 0.53645 0.0
H1378 H 0.47854 0.63124 0.45031 0.0
H1379 H 0.48502 0.64674 0.52457 0.0
H1380 H 0.46707 0.62143 0.5279 0.0
H1381 H 0.56873 0.61593 0.42027 0.0
H1382 H 0.58235 0.60466 0.4932 0.0
H1383 H 0.57218 0.634 0.49147 0.0
C1384 C 0.85423 0.5248 0.35585 0.0
C1385 C 0.83325 0.52941 0.38772 0.0
C1386 C 0.87497 0.52286 0.39151 0.0
C1387 C 0.87489 0.5252 0.46128 0.0
C1388 C 0.85372 0.52957 0.49398 0.0
C1389 C 0.83326 0.53187 0.45684 0.0
C1390 C 0.89708 0.51863 0.35424 0.0
C1391 C 0.85269 0.53205 0.56817 0.0
C1392 C 0.92689 0.49899 0.54925 0.0
C1393 C 0.94083 0.51833 0.56139 0.0
C1394 C 0.90511 0.50109 0.51916 0.0
C1395 C 0.89702 0.52303 0.49942 0.0
C1396 C 0.91075 0.54268 0.51298 0.0
C1397 C 0.93224 0.54012 0.54454 0.0
C1398 C 0.8909 0.47971 0.5074 0.0
C1399 C 0.90316 0.56639 0.4921 0.0
H1400 H 0.85456 0.52331 0.30245 0.0
H1401 H 0.81719 0.53543 0.48202 0.0
H1402 H 0.90507 0.50231 0.37081 0.0
H1403 H 0.89435 0.51762 0.29997 0.0
H1404 H 0.90951 0.53267 0.36495 0.0
H1405 H 0.83474 0.53282 0.58679 0.0
H1406 H 0.86166 0.51746 0.59214 0.0
H1407 H 0.86164 0.54808 0.58345 0.0
H1408 H 0.93308 0.48205 0.56245 0.0
H1409 H 0.94235 0.5553 0.55576 0.0
H1410 H 0.88804 0.47716 0.45366 0.0
H1411 H 0.87375 0.48174 0.53079 0.0
H1412 H 0.89924 0.46401 0.52742 0.0
H1413 H 0.90301 0.56731 0.43736 0.0
H1414 H 0.91471 0.58011 0.51142 0.0
H1415 H 0.88539 0.56991 0.50934 0.0
loop_
_geom_bond_atom_site_label_1
_geom_bond_atom_site_label_2
_geom_bond_distance
_geom_bond_site_symmetry_2
_ccdc_geom_bond_type
C0 C1 1.386 . S
C0 C2 1.397 . S
C0 H24 0.931 1_554 S
C1 C0 1.386 . S
C1 C5 1.397 . S
C2 C0 1.397 . S
C2 C3 1.384 . S
C2 H25 0.930 . S
C3 C2 1.384 . S
C3 C4 1.377 . S
C3 C6 1.481 . S
C4 C3 1.377 . S
C4 C5 1.389 . S
C4 H26 0.929 . S
C5 C1 1.397 . S
C5 C4 1.389 . S
C5 H27 0.931 . S
C6 C3 1.481 . S
C6 C7 1.387 . S
C6 C11 1.390 . S
C7 C6 1.387 . S
C7 C8 1.401 . S
C7 H28 0.930 . S
C8 C7 1.401 . S
C8 C9 1.376 . S
C8 C17 1.511 . S
C9 C8 1.376 . S
C9 C10 1.392 . S
C9 H30 0.931 . S
C10 C9 1.392 . S
C10 C11 1.361 . S
C10 C12 1.500 . S
C11 C6 1.390 . S
C11 C10 1.361 . S
C11 H29 0.931 . S
C12 C10 1.500 . S
C12 C13 1.371 . S
C12 C14 1.365 . S
C13 C12 1.371 . S
C13 C23 1.386 . S
C13 H31 0.931 . S
C14 C12 1.365 . S
C14 C15 1.409 . S
C14 H32 0.929 . S
C15 C14 1.409 . S
C15 C16 1.380 . S
C15 H33 0.930 . S
C16 C15 1.380 . S
C16 C23 1.357 . S
C17 C8 1.511 . S
C17 C18 1.341 . S
C17 C19 1.371 . S
C18 C17 1.341 . S
C18 C22 1.394 . S
C18 H34 0.930 . S
C19 C17 1.371 . S
C19 C20 1.392 . S
C19 H35 0.931 . S
C20 C19 1.392 . S
C20 C21 1.331 . S
C20 H38 0.932 . S
C21 C20 1.331 . S
C21 C22 1.336 . S
C22 C18 1.394 . S
C22 C21 1.336 . S
C22 H37 0.929 . S
C23 C13 1.386 . S
C23 C16 1.357 . S
C23 H36 0.928 . S
H24 C0 0.931 1_556 S
H25 C2 0.930 . S
H26 C4 0.929 . S
H27 C5 0.931 . S
H28 C7 0.930 . S
H29 C11 0.931 . S
H30 C9 0.931 . S
H31 C13 0.931 . S
H32 C14 0.929 . S
H33 C15 0.930 . S
H34 C18 0.930 . S
H35 C19 0.931 . S
H36 C23 0.928 . S
H37 C22 0.929 . S
H38 C20 0.932 . S
C39 C40 1.386 . S
C39 C41 1.397 . S
C39 H63 0.931 1_554 S
C40 C39 1.386 . S
C40 C44 1.397 . S
C41 C39 1.397 . S
C41 C42 1.384 . S
C41 H64 0.930 . S
C42 C41 1.384 . S
C42 C43 1.377 . S
C42 C45 1.481 . S
C43 C42 1.377 . S
C43 C44 1.389 . S
C43 H65 0.929 . S
C44 C40 1.397 . S
C44 C43 1.389 . S
C44 H66 0.931 . S
C45 C42 1.481 . S
C45 C46 1.387 . S
C45 C50 1.390 . S
C46 C45 1.387 . S
C46 C47 1.401 . S
C46 H67 0.930 . S
C47 C46 1.401 . S
C47 C48 1.376 . S
C47 C56 1.511 . S
C48 C47 1.376 . S
C48 C49 1.392 . S
C48 H69 0.931 . S
C49 C48 1.392 . S
C49 C50 1.361 . S
C49 C51 1.500 . S
C50 C45 1.390 . S
C50 C49 1.361 . S
C50 H68 0.931 . S
C51 C49 1.500 . S
C51 C52 1.371 . S
C51 C53 1.365 . S
C52 C51 1.371 . S
C52 C62 1.386 . S
C52 H70 0.931 . S
C53 C51 1.365 . S
C53 C54 1.409 . S
C53 H71 0.929 . S
C54 C53 1.409 . S
C54 C55 1.380 . S
C54 H72 0.930 . S
C55 C54 1.380 . S
C55 C62 1.357 . S
C56 C47 1.511 . S
C56 C57 1.341 . S
C56 C58 1.371 . S
C57 C56 1.341 . S
C57 C61 1.394 . S
C57 H73 0.930 . S
C58 C56 1.371 . S
C58 C59 1.392 . S
C58 H74 0.931 . S
C59 C58 1.392 . S
C59 C60 1.331 . S
C59 H77 0.932 . S
C60 C59 1.331 . S
C60 C61 1.336 . S
C61 C57 1.394 . S
C61 C60 1.336 . S
C61 H76 0.929 . S
C62 C52 1.386 . S
C62 C55 1.357 . S
C62 H75 0.928 . S
H63 C39 0.931 1_556 S
H64 C41 0.930 . S
H65 C43 0.929 . S
H66 C44 0.931 . S
H67 C46 0.930 . S
H68 C50 0.931 . S
H69 C48 0.931 . S
H70 C52 0.931 . S
H71 C53 0.929 . S
H72 C54 0.930 . S
H73 C57 0.930 . S
H74 C58 0.931 . S
H75 C62 0.928 . S
H76 C61 0.929 . S
H77 C59 0.932 . S
C78 C79 1.386 . S
C78 C80 1.397 . S
C78 H102 0.931 1_554 S
C79 C78 1.386 . S
C79 C83 1.397 . S
C80 C78 1.397 . S
C80 C81 1.384 . S
C80 H103 0.930 . S
C81 C80 1.384 . S
C81 C82 1.377 . S
C81 C84 1.481 . S
C82 C81 1.377 . S
C82 C83 1.389 . S
C82 H104 0.929 . S
C83 C79 1.397 . S
C83 C82 1.389 . S
C83 H105 0.931 . S
C84 C81 1.481 . S
C84 C85 1.387 . S
C84 C89 1.390 . S
C85 C84 1.387 . S
C85 C86 1.401 . S
C85 H106 0.930 . S
C86 C85 1.401 . S
C86 C87 1.376 . S
C86 C95 1.511 . S
C87 C86 1.376 . S
C87 C88 1.392 . S
C87 H108 0.931 . S
C88 C87 1.392 . S
C88 C89 1.361 . S
C88 C90 1.500 . S
C89 C84 1.390 . S
C89 C88 1.361 . S
C89 H107 0.931 . S
C90 C88 1.500 . S
C90 C91 1.371 . S
C90 C92 1.365 . S
C91 C90 1.371 . S
C91 C101 1.386 . S
C91 H109 0.931 . S
C92 C90 1.365 . S
C92 C93 1.409 . S
C92 H110 0.929 . S
C93 C92 1.409 . S
C93 C94 1.380 . S
C93 H111 0.930 . S
C94 C93 1.380 . S
C94 C101 1.357 . S
C95 C86 1.511 . S
C95 C96 1.341 . S
C95 C97 1.371 . S
C96 C95 1.341 . S
C96 C100 1.394 . S
C96 H112 0.930 . S
C97 C95 1.371 . S
C97 C98 1.392 . S
C97 H113 0.931 . S
C98 C97 1.392 . S
C98 C99 1.331 . S
C98 H116 0.932 . S
C99 C98 1.331 . S
C99 C100 1.336 . S
C100 C96 1.394 . S
C100 C99 1.336 . S
C100 H115 0.929 . S
C101 C91 1.386 . S
C101 C94 1.357 . S
C101 H114 0.928 . S
H102 C78 0.931 1_556 S
H103 C80 0.930 . S
H104 C82 0.929 . S
H105 C83 0.931 . S
H106 C85 0.930 . S
H107 C89 0.931 . S
H108 C87 0.931 . S
H109 C91 0.931 . S
H110 C92 0.929 . S
H111 C93 0.930 . S
H112 C96 0.930 . S
H113 C97 0.931 . S
H114 C101 0.928 . S
H115 C100 0.929 . S
H116 C98 0.932 . S
C117 C118 1.386 . S
C117 C119 1.397 . S
C117 H141 0.931 . S
C118 C117 1.386 . S
C118 C122 1.397 . S
C119 C117 1.397 . S
C119 C120 1.384 . S
C119 H142 0.930 . S
C120 C119 1.384 . S
C120 C121 1.377 . S
C120 C123 1.481 . S
C121 C120 1.377 . S
C121 C122 1.389 . S
C121 H143 0.929 . S
C122 C118 1.397 . S
C122 C121 1.389 . S
C122 H144 0.931 . S
C123 C120 1.481 . S
C123 C124 1.387 . S
C123 C128 1.390 . S
C124 C123 1.387 . S
C124 C125 1.401 . S
C124 H145 0.930 . S
C125 C124 1.401 . S
C125 C126 1.376 . S
C125 C134 1.511 . S
C126 C125 1.376 . S
C126 C127 1.392 . S
C126 H147 0.931 . S
C127 C126 1.392 . S
C127 C128 1.361 . S
C127 C129 1.500 . S
C128 C123 1.390 . S
C128 C127 1.361 . S
C128 H146 0.931 . S
C129 C127 1.500 . S
C129 C130 1.371 . S
C129 C131 1.365 . S
C130 C129 1.371 . S
C130 C140 1.386 1_554 S
C130 H148 0.931 . S
C131 C129 1.365 . S
C131 C132 1.409 . S
C131 H149 0.929 . S
C132 C131 1.409 . S
C132 C133 1.380 . S
C132 H150 0.930 . S
C133 C132 1.380 . S
C133 C140 1.357 1_554 S
C134 C125 1.511 . S
C134 C135 1.341 . S
C134 C136 1.371 . S
C135 C134 1.341 . S
C135 C139 1.394 . S
C135 H151 0.930 . S
C136 C134 1.371 . S
C136 C137 1.392 . S
C136 H152 0.931 . S
C137 C136 1.392 . S
C137 C138 1.331 . S
C137 H155 0.932 . S
C138 C137 1.331 . S
C138 C139 1.336 . S
C139 C135 1.394 . S
C139 C138 1.336 . S
C139 H154 0.929 . S
C140 C130 1.386 1_556 S
C140 C133 1.357 1_556 S
C140 H153 0.928 . S
H141 C117 0.931 . S
H142 C119 0.930 . S
H143 C121 0.929 . S
H144 C122 0.931 . S
H145 C124 0.930 . S
H146 C128 0.931 . S
H147 C126 0.931 . S
H148 C130 0.931 . S
H149 C131 0.929 . S
H150 C132 0.930 . S
H151 C135 0.930 . S
H152 C136 0.931 . S
H153 C140 0.928 . S
H154 C139 0.929 . S
H155 C137 0.932 . S
C156 C157 1.386 . S
C156 C158 1.397 . S
C156 H180 0.931 . S
C157 C156 1.386 . S
C157 C161 1.397 . S
C158 C156 1.397 . S
C158 C159 1.384 . S
C158 H181 0.930 . S
C159 C158 1.384 . S
C159 C160 1.377 . S
C159 C162 1.481 . S
C160 C159 1.377 . S
C160 C161 1.389 . S
C160 H182 0.929 . S
C161 C157 1.397 . S
C161 C160 1.389 . S
C161 H183 0.931 . S
C162 C159 1.481 . S
C162 C163 1.387 . S
C162 C167 1.390 . S
C163 C162 1.387 . S
C163 C164 1.401 . S
C163 H184 0.930 . S
C164 C163 1.401 . S
C164 C165 1.376 1_554 S
C164 C173 1.511 . S
C165 C164 1.376 1_556 S
C165 C166 1.392 . S
C165 H186 0.931 . S
C166 C165 1.392 . S
C166 C167 1.361 1_556 S
C166 C168 1.500 . S
C167 C162 1.390 . S
C167 C166 1.361 1_554 S
C167 H185 0.928 1_554 S
C168 C166 1.500 . S
C168 C169 1.371 . S
C168 C170 1.365 . S
C169 C168 1.371 . S
C169 C179 1.386 . S
C169 H187 0.931 . S
C170 C168 1.365 . S
C170 C171 1.409 . S
C170 H188 0.929 . S
C171 C170 1.409 . S
C171 C172 1.380 . S
C171 H189 0.930 . S
C172 C171 1.380 . S
C172 C179 1.357 . S
C173 C164 1.511 . S
C173 C174 1.341 . S
C173 C175 1.371 . S
C174 C173 1.341 . S
C174 C178 1.394 . S
C174 H190 0.930 . S
C175 C173 1.371 . S
C175 C176 1.392 . S
C175 H191 0.931 1_554 S
C176 C175 1.392 . S
C176 C177 1.331 . S
C176 H194 0.932 1_554 S
C177 C176 1.331 . S
C177 C178 1.336 . S
C178 C174 1.394 . S
C178 C177 1.336 . S
C178 H193 0.929 . S
C179 C169 1.386 . S
C179 C172 1.357 . S
C179 H192 0.928 . S
H180 C156 0.931 . S
H181 C158 0.930 . S
H182 C160 0.929 . S
H183 C161 0.931 . S
H184 C163 0.930 . S
H185 C167 0.928 1_556 S
H186 C165 0.931 . S
H187 C169 0.931 . S
H188 C170 0.929 . S
H189 C171 0.930 . S
H190 C174 0.930 . S
H191 C175 0.931 1_556 S
H192 C179 0.928 . S
H193 C178 0.929 . S
H194 C176 0.932 1_556 S
C195 C196 1.386 . S
C195 C197 1.397 . S
C195 H219 0.931 . S
C196 C195 1.386 . S
C196 C200 1.397 . S
C197 C195 1.397 . S
C197 C198 1.384 . S
C197 H220 0.930 . S
C198 C197 1.384 . S
C198 C199 1.377 . S
C198 C201 1.481 . S
C199 C198 1.377 . S
C199 C200 1.389 . S
C199 H221 0.929 . S
C200 C196 1.397 . S
C200 C199 1.389 . S
C200 H222 0.931 . S
C201 C198 1.481 . S
C201 C202 1.387 . S
C201 C206 1.390 . S
C202 C201 1.387 . S
C202 C203 1.401 . S
C202 H223 0.930 . S
C203 C202 1.401 . S
C203 C204 1.376 1_554 S
C203 C212 1.511 . S
C204 C203 1.376 1_556 S
C204 C205 1.392 . S
C204 H225 0.931 . S
C205 C204 1.392 . S
C205 C206 1.361 1_556 S
C205 C207 1.500 . S
C206 C201 1.390 . S
C206 C205 1.361 1_554 S
C206 H224 0.931 1_554 S
C207 C205 1.500 . S
C207 C208 1.371 . S
C207 C209 1.365 . S
C208 C207 1.371 . S
C208 C218 1.386 . S
C208 H226 0.931 . S
C209 C207 1.365 . S
C209 C210 1.409 . S
C209 H227 0.929 . S
C210 C209 1.409 . S
C210 C211 1.380 . S
C210 H228 0.930 . S
C211 C210 1.380 . S
C211 C218 1.357 . S
C212 C203 1.511 . S
C212 C213 1.341 . S
C212 C214 1.371 . S
C213 C212 1.341 . S
C213 C217 1.394 . S
C213 H229 0.930 . S
C214 C212 1.371 . S
C214 C215 1.392 . S
C214 H230 0.931 1_554 S
C215 C214 1.392 . S
C215 C216 1.331 . S
C215 H233 0.932 1_554 S
C216 C215 1.331 . S
C216 C217 1.336 . S
C217 C213 1.394 . S
C217 C216 1.336 . S
C217 H232 0.929 . S
C218 C208 1.386 . S
C218 C211 1.357 . S
C218 H231 0.928 . S
H219 C195 0.931 . S
H220 C197 0.930 . S
H221 C199 0.929 . S
H222 C200 0.931 . S
H223 C202 0.930 . S
H224 C206 0.931 1_556 S
H225 C204 0.931 . S
H226 C208 0.931 . S
H227 C209 0.929 . S
H228 C210 0.930 . S
H229 C213 0.930 . S
H230 C214 0.931 1_556 S
H231 C218 0.928 . S
H232 C217 0.929 . S
H233 C215 0.932 1_556 S
C234 C235 1.386 . S
C234 C236 1.397 . S
C234 H258 0.931 . S
C235 C234 1.386 . S
C235 C239 1.397 . S
C236 C234 1.397 . S
C236 C237 1.384 . S
C236 H259 0.930 . S
C237 C236 1.384 . S
C237 C238 1.377 . S
C237 C240 1.481 . S
C238 C237 1.377 . S
C238 C239 1.389 . S
C238 H260 0.929 . S
C239 C235 1.397 . S
C239 C238 1.389 . S
C239 H261 0.931 . S
C240 C237 1.481 . S
C240 C241 1.387 . S
C240 C245 1.403 . S
C241 C240 1.387 . S
C241 C242 1.401 . S
C241 H262 0.930 . S
C242 C241 1.401 . S
C242 C243 1.376 1_554 S
C242 C251 1.511 . S
C243 C242 1.376 1_556 S
C243 C244 1.392 . S
C243 H264 0.931 . S
C244 C243 1.392 . S
C244 C245 1.352 1_556 S
C244 C246 1.500 . S
C245 C240 1.403 . S
C245 C244 1.352 1_554 S
C245 H263 0.928 1_554 S
C246 C244 1.500 . S
C246 C247 1.371 . S
C246 C248 1.365 . S
C247 C246 1.371 . S
C247 C257 1.386 . S
C247 H265 0.931 . S
C248 C246 1.365 . S
C248 C249 1.409 . S
C248 H266 0.929 . S
C249 C248 1.409 . S
C249 C250 1.380 . S
C249 H267 0.930 . S
C250 C249 1.380 . S
C250 C257 1.357 . S
C251 C242 1.511 . S
C251 C252 1.341 . S
C251 C253 1.371 . S
C252 C251 1.341 . S
C252 C256 1.394 . S
C252 H268 0.930 . S
C253 C251 1.371 . S
C253 C254 1.392 . S
C253 H269 0.931 1_554 S
C254 C253 1.392 . S
C254 C255 1.331 . S
C254 H272 0.932 1_554 S
C255 C254 1.331 . S
C255 C256 1.336 . S
C256 C252 1.394 . S
C256 C255 1.336 . S
C256 H271 0.929 . S
C257 C247 1.386 . S
C257 C250 1.357 . S
C257 H270 0.928 . S
H258 C234 0.931 . S
H259 C236 0.930 . S
H260 C238 0.929 . S
H261 C239 0.931 . S
H262 C241 0.930 . S
H263 C245 0.928 1_556 S
H264 C243 0.931 . S
H265 C247 0.931 . S
H266 C248 0.929 . S
H267 C249 0.930 . S
H268 C252 0.930 . S
H269 C253 0.931 1_556 S
H270 C257 0.928 . S
H271 C256 0.929 . S
H272 C254 0.932 1_556 S
C273 C274 1.386 . S
C273 C275 1.397 . S
C273 H297 0.931 . S
C274 C273 1.386 . S
C274 C278 1.397 . S
C275 C273 1.397 . S
C275 C276 1.384 . S
C275 H298 0.930 . S
C276 C275 1.384 . S
C276 C277 1.377 . S
C276 C279 1.481 . S
C277 C276 1.377 . S
C277 C278 1.389 . S
C277 H299 0.929 . S
C278 C274 1.397 . S
C278 C277 1.389 . S
C278 H300 0.931 . S
C279 C276 1.481 . S
C279 C280 1.387 . S
C279 C284 1.390 1_556 S
C280 C279 1.387 . S
C280 C281 1.401 1_556 S
C280 H301 0.930 . S
C281 C280 1.401 1_554 S
C281 C282 1.376 . S
C281 C290 1.511 . S
C282 C281 1.376 . S
C282 C283 1.392 . S
C282 H303 0.931 . S
C283 C282 1.392 . S
C283 C284 1.361 . S
C283 C285 1.500 . S
C284 C279 1.390 1_554 S
C284 C283 1.361 . S
C284 H302 0.928 1_554 S
C285 C283 1.500 . S
C285 C286 1.371 . S
C285 C287 1.365 . S
C286 C285 1.371 . S
C286 C296 1.386 . S
C286 H304 0.931 . S
C287 C285 1.365 . S
C287 C288 1.409 . S
C287 H305 0.929 . S
C288 C287 1.409 . S
C288 C289 1.380 . S
C288 H306 0.930 . S
C289 C288 1.380 . S
C289 C296 1.357 . S
C290 C281 1.511 . S
C290 C291 1.341 . S
C290 C292 1.371 . S
C291 C290 1.341 . S
C291 C295 1.394 . S
C291 H307 0.930 1_554 S
C292 C290 1.371 . S
C292 C293 1.392 . S
C292 H308 0.931 . S
C293 C292 1.392 . S
C293 C294 1.331 . S
C293 H311 0.932 . S
C294 C293 1.331 . S
C294 C295 1.336 . S
C295 C291 1.394 . S
C295 C294 1.336 . S
C295 H310 0.929 1_554 S
C296 C286 1.386 . S
C296 C289 1.357 . S
C296 H309 0.928 . S
H297 C273 0.931 . S
H298 C275 0.930 . S
H299 C277 0.929 . S
H300 C278 0.931 . S
H301 C280 0.930 . S
H302 C284 0.928 1_556 S
H303 C282 0.931 . S
H304 C286 0.931 . S
H305 C287 0.929 . S
H306 C288 0.930 . S
H307 C291 0.930 1_556 S
H308 C292 0.931 . S
H309 C296 0.928 . S
H310 C295 0.929 1_556 S
H311 C293 0.932 . S
Tb312 N343 2.660 1_565 S
Tb312 N350 2.600 . S
Tb312 O356 2.546 . S
Tb312 O357 2.610 1_455 S
Tb312 O359 2.320 1_455 S
Tb312 O360 2.552 . S
Tb312 O361 2.413 . S
Tb312 O363 2.362 1_565 S
Tb312 O364 2.421 . S
Tb312 C376 2.833 . S
C313 C316 1.432 1_545 S
C313 C317 1.414 . S
C313 N320 1.359 . S
C314 C316 1.417 . S
C314 C318 1.432 . S
C314 C326 1.410 . S
C315 C317 1.444 1_565 S
C315 C318 1.317 . S
C315 H338 0.929 . S
C316 C313 1.432 1_565 S
C316 C314 1.417 . S
C316 N324 1.360 1_565 S
C317 C313 1.414 . S
C317 C315 1.444 1_545 S
C317 C322 1.385 . S
C318 C314 1.432 . S
C318 C315 1.317 . S
C318 H330 0.930 . S
C319 C321 1.392 . S
C319 C322 1.370 . S
C319 H331 0.931 . S
N320 C313 1.359 . S
N320 C321 1.327 . S
N320 Tb323 2.600 . S
C321 C319 1.392 . S
C321 N320 1.327 . S
C321 H328 0.930 . S
C322 C317 1.385 . S
C322 C319 1.370 . S
C322 H341 0.930 . S
Tb323 N320 2.600 . S
Tb323 N324 2.660 . S
Tb323 O357 2.362 1_545 S
Tb323 O358 2.421 . S
Tb323 O362 2.546 . S
Tb323 O363 2.610 1_655 S
Tb323 O365 2.320 1_655 S
Tb323 O366 2.552 1_655 S
Tb323 O367 2.413 . S
Tb323 C387 2.833 . S
N324 C316 1.360 1_545 S
N324 Tb323 2.660 . S
N324 C325 1.304 1_645 S
C325 N324 1.304 1_465 S
C325 C327 1.408 . S
C325 H332 0.930 . S
C326 C314 1.410 . S
C326 C327 1.334 1_655 S
C326 H334 0.930 . S
C327 C325 1.408 . S
C327 C326 1.334 1_455 S
C327 H329 0.941 . S
H328 C321 0.930 . S
H329 C327 0.941 . S
H330 C318 0.930 . S
H331 C319 0.931 . S
H332 C325 0.930 . S
H333 C347 0.930 1_655 S
H334 C326 0.930 . S
H335 C353 0.930 . S
H336 C344 0.930 1_655 S
H337 C351 0.931 . S
H338 C315 0.929 . S
H339 C345 0.930 . S
H340 C378 0.930 . S
H341 C322 0.930 . S
H342 C377 0.929 . S
N343 Tb312 2.660 1_545 S
N343 C344 1.305 . S
N343 C348 1.360 . S
C344 H336 0.930 1_455 S
C344 N343 1.305 . S
C344 C347 1.407 . S
C345 H339 0.930 . S
C345 C346 1.410 . S
C345 C347 1.345 . S
C346 C345 1.410 . S
C346 C348 1.417 . S
C346 C378 1.432 . S
C347 H333 0.930 1_455 S
C347 C344 1.407 . S
C347 C345 1.345 . S
C348 N343 1.360 . S
C348 C346 1.417 . S
C348 C352 1.432 . S
H349 C354 0.927 1_545 S
N350 Tb312 2.600 . S
N350 C352 1.359 1_565 S
N350 C353 1.327 . S
C351 H337 0.931 . S
C351 C353 1.392 . S
C351 C354 1.381 . S
C352 C348 1.432 . S
C352 N350 1.359 1_545 S
C352 C355 1.414 . S
C353 H335 0.930 . S
C353 N350 1.327 . S
C353 C351 1.392 . S
C354 H349 0.927 1_565 S
C354 C351 1.381 . S
C354 C355 1.376 1_565 S
C355 C352 1.414 . S
C355 C354 1.376 1_545 S
C355 C377 1.444 . S
O356 Tb312 2.546 . S
O356 C376 1.251 . S
O357 Tb312 2.610 1_655 S
O357 Tb323 2.362 1_565 S
O357 C368 1.283 . S
O358 Tb323 2.421 . S
O358 C375 1.262 . S
O359 Tb312 2.320 1_655 S
O359 C375 1.260 1_565 S
O360 Tb312 2.552 . S
O360 C368 1.243 1_455 S
O361 Tb312 2.413 . S
O361 C376 1.256 . S
O362 Tb323 2.546 . S
O362 C387 1.251 . S
O363 Tb312 2.362 1_545 S
O363 Tb323 2.610 1_455 S
O363 C379 1.283 . S
O364 Tb312 2.421 . S
O364 C386 1.262 1_565 S
O365 Tb323 2.320 1_455 S
O365 C386 1.260 . S
O366 Tb323 2.552 1_455 S
O366 C379 1.243 . S
O367 Tb323 2.413 . S
O367 C387 1.256 . S
C368 O357 1.283 . S
C368 O360 1.243 1_655 S
C369 C371 1.382 . S
C369 C373 1.393 . S
C369 C376 1.500 . S
C370 C371 1.400 . S
C370 C372 1.384 . S
C371 C369 1.382 . S
C371 C370 1.400 . S
C371 H388 0.911 1_455 S
C372 C370 1.384 . S
C372 C374 1.392 . S
C372 H389 0.931 . S
C373 C369 1.393 . S
C373 C374 1.401 . S
C373 H390 0.930 . S
C374 C372 1.392 . S
C374 C373 1.401 . S
C374 H391 0.930 . S
C375 O358 1.262 . S
C375 O359 1.260 1_545 S
C376 Tb312 2.833 . S
C376 O356 1.251 . S
C376 O361 1.256 . S
C376 C369 1.500 . S
C377 H342 0.929 . S
C377 C355 1.444 . S
C377 C378 1.317 . S
C378 H340 0.930 . S
C378 C346 1.432 . S
C378 C377 1.317 . S
C379 O363 1.283 . S
C379 O366 1.243 . S
C380 C381 1.382 . S
C380 C384 1.393 . S
C380 C387 1.500 . S
C381 C380 1.382 . S
C381 C382 1.400 . S
C381 H392 0.930 1_655 S
C382 C381 1.400 . S
C382 C383 1.384 . S
C383 C382 1.384 . S
C383 C385 1.392 . S
C383 H393 0.931 . S
C384 C380 1.393 . S
C384 C385 1.401 . S
C384 H394 0.930 . S
C385 C383 1.392 . S
C385 C384 1.401 . S
C385 H395 0.930 . S
C386 O364 1.262 1_545 S
C386 O365 1.260 . S
C387 Tb323 2.833 . S
C387 O362 1.251 . S
C387 O367 1.256 . S
C387 C380 1.500 . S
H388 C371 0.911 1_655 S
H389 C372 0.931 . S
H390 C373 0.930 . S
H391 C374 0.930 . S
H392 C381 0.930 1_455 S
H393 C383 0.931 . S
H394 C384 0.930 . S
H395 C385 0.930 . S
Tb396 N427 2.660 . S
Tb396 N434 2.600 . S
Tb396 O440 2.546 . S
Tb396 O441 2.610 1_545 S
Tb396 O443 2.320 1_545 S
Tb396 O444 2.552 . S
Tb396 O445 2.413 . S
Tb396 O447 2.362 . S
Tb396 O448 2.421 . S
Tb396 C460 2.833 . S
C397 C400 1.432 . S
C397 C401 1.414 . S
C397 N404 1.359 . S
C398 C400 1.417 . S
C398 C402 1.432 . S
C398 C410 1.410 . S
C399 C401 1.444 . S
C399 C402 1.317 . S
C399 H422 0.929 . S
C400 C397 1.432 . S
C400 C398 1.417 . S
C400 N408 1.360 . S
C401 C397 1.414 . S
C401 C399 1.444 . S
C401 C406 1.385 . S
C402 C398 1.432 . S
C402 C399 1.317 . S
C402 H414 0.930 . S
C403 C405 1.392 . S
C403 C406 1.370 . S
C403 H415 0.931 . S
N404 C397 1.359 . S
N404 C405 1.327 . S
N404 Tb407 2.600 . S
C405 C403 1.392 . S
C405 N404 1.327 . S
C405 H412 0.930 . S
C406 C401 1.385 . S
C406 C403 1.370 . S
C406 H425 0.930 . S
Tb407 N404 2.600 . S
Tb407 N408 2.660 . S
Tb407 O441 2.362 . S
Tb407 O442 2.421 . S
Tb407 O446 2.546 . S
Tb407 O447 2.610 1_565 S
Tb407 O449 2.320 1_565 S
Tb407 O450 2.552 1_565 S
Tb407 O451 2.413 . S
Tb407 C471 2.833 . S
N408 C400 1.360 . S
N408 Tb407 2.660 . S
N408 C409 1.305 1_565 S
C409 N408 1.305 1_545 S
C409 C411 1.407 . S
C409 H416 0.930 . S
C410 C398 1.410 . S
C410 C411 1.345 1_565 S
C410 H418 0.930 . S
C411 C409 1.407 . S
C411 C410 1.345 1_545 S
C411 H413 0.930 . S
H412 C405 0.930 . S
H413 C411 0.930 . S
H414 C402 0.930 . S
H415 C403 0.931 . S
H416 C409 0.930 . S
H417 C431 0.930 1_565 S
H418 C410 0.930 . S
H419 C437 0.930 . S
H420 C428 0.930 1_565 S
H421 C435 0.931 . S
H422 C399 0.929 . S
H423 C429 0.930 . S
H424 C462 0.930 . S
H425 C406 0.930 . S
H426 C461 0.929 . S
N427 Tb396 2.660 . S
N427 C428 1.305 . S
N427 C432 1.360 . S
C428 H420 0.930 1_545 S
C428 N427 1.305 . S
C428 C431 1.407 . S
C429 H423 0.930 . S
C429 C430 1.410 . S
C429 C431 1.345 . S
C430 C429 1.410 . S
C430 C432 1.417 . S
C430 C462 1.432 . S
C431 H417 0.930 1_545 S
C431 C428 1.407 . S
C431 C429 1.345 . S
C432 N427 1.360 . S
C432 C430 1.417 . S
C432 C436 1.432 . S
H433 C438 0.930 . S
N434 Tb396 2.600 . S
N434 C436 1.359 . S
N434 C437 1.327 . S
C435 H421 0.931 . S
C435 C437 1.392 . S
C435 C438 1.370 . S
C436 C432 1.432 . S
C436 N434 1.359 . S
C436 C439 1.414 . S
C437 H419 0.930 . S
C437 N434 1.327 . S
C437 C435 1.392 . S
C438 H433 0.930 . S
C438 C435 1.370 . S
C438 C439 1.385 . S
C439 C436 1.414 . S
C439 C438 1.385 . S
C439 C461 1.444 . S
O440 Tb396 2.546 . S
O440 C460 1.251 . S
O441 Tb396 2.610 1_565 S
O441 Tb407 2.362 . S
O441 C452 1.283 . S
O442 Tb407 2.421 . S
O442 C459 1.262 . S
O443 Tb396 2.320 1_565 S
O443 C459 1.260 . S
O444 Tb396 2.552 . S
O444 C452 1.243 1_545 S
O445 Tb396 2.413 . S
O445 C460 1.256 . S
O446 Tb407 2.546 . S
O446 C471 1.251 . S
O447 Tb396 2.362 . S
O447 Tb407 2.610 1_545 S
O447 C463 1.283 . S
O448 Tb396 2.421 . S
O448 C470 1.262 . S
O449 Tb407 2.320 1_545 S
O449 C470 1.260 . S
O450 Tb407 2.552 1_545 S
O450 C463 1.243 . S
O451 Tb407 2.413 . S
O451 C471 1.256 . S
C452 O441 1.283 . S
C452 O444 1.243 1_565 S
C453 C455 1.382 . S
C453 C457 1.393 . S
C453 C460 1.500 . S
C454 C455 1.400 . S
C454 C456 1.384 . S
C455 C453 1.382 . S
C455 C454 1.400 . S
C455 H472 0.930 . S
C456 C454 1.384 . S
C456 C458 1.392 . S
C456 H473 0.931 . S
C457 C453 1.393 . S
C457 C458 1.401 . S
C457 H474 0.930 . S
C458 C456 1.392 . S
C458 C457 1.401 . S
C458 H475 0.930 . S
C459 O442 1.262 . S
C459 O443 1.260 . S
C460 Tb396 2.833 . S
C460 O440 1.251 . S
C460 O445 1.256 . S
C460 C453 1.500 . S
C461 H426 0.929 . S
C461 C439 1.444 . S
C461 C462 1.317 . S
C462 H424 0.930 . S
C462 C430 1.432 . S
C462 C461 1.317 . S
C463 O447 1.283 . S
C463 O450 1.243 . S
C464 C465 1.382 . S
C464 C468 1.393 . S
C464 C471 1.500 . S
C465 C464 1.382 . S
C465 C466 1.400 . S
C465 H476 0.930 1_565 S
C466 C465 1.400 . S
C466 C467 1.384 . S
C467 C466 1.384 . S
C467 C469 1.392 . S
C467 H477 0.931 . S
C468 C464 1.393 . S
C468 C469 1.401 . S
C468 H478 0.930 . S
C469 C467 1.392 . S
C469 C468 1.401 . S
C469 H479 0.930 . S
C470 O448 1.262 . S
C470 O449 1.260 . S
C471 Tb407 2.833 . S
C471 O446 1.251 . S
C471 O451 1.256 . S
C471 C464 1.500 . S
H472 C455 0.930 . S
H473 C456 0.931 . S
H474 C457 0.930 . S
H475 C458 0.930 . S
H476 C465 0.930 1_545 S
H477 C467 0.931 . S
H478 C468 0.930 . S
H479 C469 0.930 . S
Tb480 N511 2.660 . S
Tb480 N518 2.600 . S
Tb480 O524 2.546 . S
Tb480 O525 2.610 . S
Tb480 O527 2.320 . S
Tb480 O528 2.552 . S
Tb480 O529 2.413 . S
Tb480 O531 2.362 . S
Tb480 O532 2.421 . S
Tb480 C544 2.833 . S
C481 C484 1.432 . S
C481 C485 1.414 . S
C481 N488 1.359 . S
C482 C484 1.417 . S
C482 C486 1.432 . S
C482 C494 1.410 . S
C483 C485 1.444 . S
C483 C486 1.317 . S
C483 H506 0.929 . S
C484 C481 1.432 . S
C484 C482 1.417 . S
C484 N492 1.360 . S
C485 C481 1.414 . S
C485 C483 1.444 . S
C485 C490 1.385 . S
C486 C482 1.432 . S
C486 C483 1.317 . S
C486 H498 0.930 . S
C487 C489 1.392 . S
C487 C490 1.370 . S
C487 H499 0.931 . S
N488 C481 1.359 . S
N488 C489 1.327 . S
N488 Tb491 2.600 . S
C489 C487 1.392 . S
C489 N488 1.327 . S
C489 H496 0.930 . S
C490 C485 1.385 . S
C490 C487 1.370 . S
C490 H509 0.930 . S
Tb491 N488 2.600 . S
Tb491 N492 2.660 . S
Tb491 O525 2.362 . S
Tb491 O526 2.421 . S
Tb491 O530 2.546 . S
Tb491 O531 2.610 . S
Tb491 O533 2.320 . S
Tb491 O534 2.552 . S
Tb491 O535 2.413 . S
Tb491 C555 2.833 . S
N492 C484 1.360 . S
N492 Tb491 2.660 . S
N492 C493 1.305 . S
C493 N492 1.305 . S
C493 C495 1.407 . S
C493 H500 0.930 . S
C494 C482 1.410 . S
C494 C495 1.345 . S
C494 H502 0.930 . S
C495 C493 1.407 . S
C495 C494 1.345 . S
C495 H497 0.930 . S
H496 C489 0.930 . S
H497 C495 0.930 . S
H498 C486 0.930 . S
H499 C487 0.931 . S
H500 C493 0.930 . S
H501 C515 0.930 . S
H502 C494 0.930 . S
H503 C521 0.930 . S
H504 C512 0.930 . S
H505 C519 0.931 . S
H506 C483 0.929 . S
H507 C513 0.930 . S
H508 C546 0.930 . S
H509 C490 0.930 . S
H510 C545 0.929 . S
N511 Tb480 2.660 . S
N511 C512 1.305 . S
N511 C516 1.360 . S
C512 H504 0.930 . S
C512 N511 1.305 . S
C512 C515 1.407 . S
C513 H507 0.930 . S
C513 C514 1.410 . S
C513 C515 1.345 . S
C514 C513 1.410 . S
C514 C516 1.417 . S
C514 C546 1.432 . S
C515 H501 0.930 . S
C515 C512 1.407 . S
C515 C513 1.345 . S
C516 N511 1.360 . S
C516 C514 1.417 . S
C516 C520 1.432 . S
H517 C522 0.930 . S
N518 Tb480 2.600 . S
N518 C520 1.359 . S
N518 C521 1.327 . S
C519 H505 0.931 . S
C519 C521 1.392 . S
C519 C522 1.370 . S
C520 C516 1.432 . S
C520 N518 1.359 . S
C520 C523 1.414 . S
C521 H503 0.930 . S
C521 N518 1.327 . S
C521 C519 1.392 . S
C522 H517 0.930 . S
C522 C519 1.370 . S
C522 C523 1.385 . S
C523 C520 1.414 . S
C523 C522 1.385 . S
C523 C545 1.444 . S
O524 Tb480 2.546 . S
O524 C544 1.251 . S
O525 Tb480 2.610 . S
O525 Tb491 2.362 . S
O525 C536 1.283 . S
O526 Tb491 2.421 . S
O526 C543 1.262 . S
O527 Tb480 2.320 . S
O527 C543 1.260 . S
O528 Tb480 2.552 . S
O528 C536 1.243 . S
O529 Tb480 2.413 . S
O529 C544 1.256 . S
O530 Tb491 2.546 . S
O530 C555 1.251 . S
O531 Tb480 2.362 . S
O531 Tb491 2.610 . S
O531 C547 1.283 . S
O532 Tb480 2.421 . S
O532 C554 1.262 . S
O533 Tb491 2.320 . S
O533 C554 1.260 . S
O534 Tb491 2.552 . S
O534 C547 1.243 . S
O535 Tb491 2.413 . S
O535 C555 1.256 . S
C536 O525 1.283 . S
C536 O528 1.243 . S
C537 C539 1.382 . S
C537 C541 1.393 . S
C537 C544 1.500 . S
C538 C539 1.400 . S
C538 C540 1.384 . S
C539 C537 1.382 . S
C539 C538 1.400 . S
C539 H556 0.930 . S
C540 C538 1.384 . S
C540 C542 1.392 . S
C540 H557 0.931 . S
C541 C537 1.393 . S
C541 C542 1.401 . S
C541 H558 0.930 . S
C542 C540 1.392 . S
C542 C541 1.401 . S
C542 H559 0.930 . S
C543 O526 1.262 . S
C543 O527 1.260 . S
C544 Tb480 2.833 . S
C544 O524 1.251 . S
C544 O529 1.256 . S
C544 C537 1.500 . S
C545 H510 0.929 . S
C545 C523 1.444 . S
C545 C546 1.317 . S
C546 H508 0.930 . S
C546 C514 1.432 . S
C546 C545 1.317 . S
C547 O531 1.283 . S
C547 O534 1.243 . S
C548 C549 1.382 . S
C548 C552 1.393 . S
C548 C555 1.500 . S
C549 C548 1.382 . S
C549 C550 1.400 . S
C549 H560 0.930 . S
C550 C549 1.400 . S
C550 C551 1.384 . S
C551 C550 1.384 . S
C551 C553 1.392 . S
C551 H561 0.931 . S
C552 C548 1.393 . S
C552 C553 1.401 . S
C552 H562 0.930 . S
C553 C551 1.392 . S
C553 C552 1.401 . S
C553 H563 0.930 . S
C554 O532 1.262 . S
C554 O533 1.260 . S
C555 Tb491 2.833 . S
C555 O530 1.251 . S
C555 O535 1.256 . S
C555 C548 1.500 . S
H556 C539 0.930 . S
H557 C540 0.931 . S
H558 C541 0.930 . S
H559 C542 0.930 . S
H560 C549 0.930 . S
H561 C551 0.931 . S
H562 C552 0.930 . S
H563 C553 0.930 . S
Tb564 N595 2.660 . S
Tb564 N602 2.600 . S
Tb564 O608 2.546 . S
Tb564 O609 2.610 . S
Tb564 O611 2.320 . S
Tb564 O612 2.552 . S
Tb564 O613 2.413 . S
Tb564 O615 2.376 . S
Tb564 O616 2.421 1_455 S
Tb564 C628 2.833 . S
C565 C568 1.432 . S
C565 C569 1.414 . S
C565 N572 1.359 . S
C566 C568 1.417 . S
C566 C570 1.432 . S
C566 C578 1.410 . S
C567 C569 1.444 . S
C567 C570 1.317 . S
C567 H590 0.929 . S
C568 C565 1.432 . S
C568 C566 1.417 . S
C568 N576 1.360 . S
C569 C565 1.414 . S
C569 C567 1.444 . S
C569 C574 1.385 . S
C570 C566 1.432 . S
C570 C567 1.317 . S
C570 H582 0.930 . S
C571 C573 1.392 . S
C571 C574 1.370 1_455 S
C571 H583 0.931 . S
N572 C565 1.359 . S
N572 C573 1.327 1_655 S
N572 Tb575 2.600 . S
C573 C571 1.392 . S
C573 N572 1.327 1_455 S
C573 H580 0.930 . S
C574 C569 1.385 . S
C574 C571 1.370 1_655 S
C574 H593 0.930 . S
Tb575 N572 2.600 . S
Tb575 N576 2.660 . S
Tb575 O609 2.362 1_655 S
Tb575 O610 2.421 1_655 S
Tb575 O614 2.546 . S
Tb575 O615 2.601 1_655 S
Tb575 O617 2.320 . S
Tb575 O618 2.552 . S
Tb575 O619 2.413 . S
Tb575 C639 2.833 . S
N576 C568 1.360 . S
N576 Tb575 2.660 . S
N576 C577 1.305 . S
C577 N576 1.305 . S
C577 C579 1.407 . S
C577 H584 0.930 . S
C578 C566 1.410 . S
C578 C579 1.345 . S
C578 H586 0.930 . S
C579 C577 1.407 . S
C579 C578 1.345 . S
C579 H581 0.930 . S
H580 C573 0.930 . S
H581 C579 0.930 . S
H582 C570 0.930 . S
H583 C571 0.931 . S
H584 C577 0.930 . S
H585 C599 0.930 . S
H586 C578 0.930 . S
H587 C605 0.930 1_655 S
H588 C596 0.930 . S
H589 C603 0.919 1_655 S
H590 C567 0.929 . S
H591 C597 0.930 . S
H592 C630 0.930 . S
H593 C574 0.930 . S
H594 C629 0.929 . S
N595 Tb564 2.660 . S
N595 C596 1.305 . S
N595 C600 1.360 . S
C596 H588 0.930 . S
C596 N595 1.305 . S
C596 C599 1.407 . S
C597 H591 0.930 . S
C597 C598 1.410 . S
C597 C599 1.345 . S
C598 C597 1.410 . S
C598 C600 1.417 . S
C598 C630 1.432 . S
C599 H585 0.930 . S
C599 C596 1.407 . S
C599 C597 1.345 . S
C600 N595 1.360 . S
C600 C598 1.417 . S
C600 C604 1.432 . S
H601 C606 0.930 . S
N602 Tb564 2.600 . S
N602 C604 1.359 . S
N602 C605 1.327 . S
C603 H589 0.919 1_455 S
C603 C605 1.395 . S
C603 C606 1.380 . S
C604 C600 1.432 . S
C604 N602 1.359 . S
C604 C607 1.414 . S
C605 H587 0.930 1_455 S
C605 N602 1.327 . S
C605 C603 1.395 . S
C606 H601 0.930 . S
C606 C603 1.380 . S
C606 C607 1.385 . S
C607 C604 1.414 . S
C607 C606 1.385 . S
C607 C629 1.444 . S
O608 Tb564 2.546 . S
O608 C628 1.251 . S
O609 Tb564 2.610 . S
O609 Tb575 2.362 1_455 S
O609 C620 1.283 . S
O610 Tb575 2.421 1_455 S
O610 C627 1.262 . S
O611 Tb564 2.320 . S
O611 C627 1.260 . S
O612 Tb564 2.552 . S
O612 C620 1.243 . S
O613 Tb564 2.413 . S
O613 C628 1.256 . S
O614 Tb575 2.546 . S
O614 C639 1.251 . S
O615 Tb564 2.376 . S
O615 Tb575 2.601 1_455 S
O615 C631 1.273 1_455 S
O616 Tb564 2.421 1_655 S
O616 C638 1.262 . S
O617 Tb575 2.320 . S
O617 C638 1.260 . S
O618 Tb575 2.552 . S
O618 C631 1.243 . S
O619 Tb575 2.413 . S
O619 C639 1.256 . S
C620 O609 1.283 . S
C620 O612 1.243 . S
C621 C623 1.382 . S
C621 C625 1.393 . S
C621 C628 1.500 . S
C622 C623 1.400 . S
C622 C624 1.384 . S
C623 C621 1.382 . S
C623 C622 1.400 . S
C623 H640 0.930 . S
C624 C622 1.384 . S
C624 C626 1.392 . S
C624 H641 0.931 . S
C625 C621 1.393 . S
C625 C626 1.401 . S
C625 H642 0.930 . S
C626 C624 1.392 . S
C626 C625 1.401 . S
C626 H643 0.930 . S
C627 O610 1.262 . S
C627 O611 1.260 . S
C628 Tb564 2.833 . S
C628 O608 1.251 . S
C628 O613 1.256 . S
C628 C621 1.500 . S
C629 H594 0.929 . S
C629 C607 1.444 . S
C629 C630 1.317 . S
C630 H592 0.930 . S
C630 C598 1.432 . S
C630 C629 1.317 . S
C631 O615 1.273 1_655 S
C631 O618 1.243 . S
C632 C633 1.382 . S
C632 C636 1.393 . S
C632 C639 1.500 . S
C633 C632 1.382 . S
C633 C634 1.400 . S
C633 H644 0.930 . S
C634 C633 1.400 . S
C634 C635 1.384 . S
C635 C634 1.384 . S
C635 C637 1.392 . S
C635 H645 0.931 . S
C636 C632 1.393 . S
C636 C637 1.401 . S
C636 H646 0.930 . S
C637 C635 1.392 . S
C637 C636 1.401 . S
C637 H647 0.930 . S
C638 O616 1.262 . S
C638 O617 1.260 . S
C639 Tb575 2.833 . S
C639 O614 1.251 . S
C639 O619 1.256 . S
C639 C632 1.500 . S
H640 C623 0.930 . S
H641 C624 0.931 . S
H642 C625 0.930 . S
H643 C626 0.930 . S
H644 C633 0.930 . S
H645 C635 0.931 . S
H646 C636 0.930 . S
H647 C637 0.930 . S
C648 C649 1.391 . S
C648 C650 1.394 . S
C648 H664 0.931 . S
C649 C648 1.391 . S
C649 C653 1.376 . S
C650 C648 1.394 . S
C650 C651 1.369 . S
C650 C654 1.531 . S
C651 C650 1.369 . S
C651 C652 1.410 . S
C651 C659 1.503 . S
C652 C651 1.410 . S
C652 C653 1.392 . S
C652 C655 1.511 . S
C653 C649 1.376 . S
C653 C652 1.392 . S
C653 H665 0.929 . S
C654 C650 1.531 . S
C654 H666 0.960 . S
C654 H667 0.962 . S
C654 H668 0.960 . S
C655 C652 1.511 . S
C655 H669 0.961 . S
C655 H670 0.961 . S
C655 H671 0.961 . S
C656 C657 1.370 . S
C656 C658 1.363 . S
C656 H672 0.931 . S
C657 C656 1.370 . S
C657 C661 1.408 . S
C658 C656 1.363 . S
C658 C659 1.370 . S
C658 C662 1.524 . S
C659 C651 1.503 . S
C659 C658 1.370 . S
C659 C660 1.403 . S
C660 C659 1.403 . S
C660 C661 1.404 . S
C660 C663 1.539 . S
C661 C657 1.408 . S
C661 C660 1.404 . S
C661 H673 0.930 . S
C662 C658 1.524 . S
C662 H674 0.956 . S
C662 H675 0.961 . S
C662 H676 0.961 . S
C663 C660 1.539 . S
C663 H677 0.958 . S
C663 H678 0.961 . S
C663 H679 0.960 . S
H664 C648 0.931 . S
H665 C653 0.929 . S
H666 C654 0.960 . S
H667 C654 0.962 . S
H668 C654 0.960 . S
H669 C655 0.961 . S
H670 C655 0.961 . S
H671 C655 0.961 . S
H672 C656 0.931 . S
H673 C661 0.930 . S
H674 C662 0.956 . S
H675 C662 0.961 . S
H676 C662 0.961 . S
H677 C663 0.958 . S
H678 C663 0.961 . S
H679 C663 0.960 . S
C680 C681 1.391 . S
C680 C682 1.394 . S
C680 H696 0.931 . S
C681 C680 1.391 . S
C681 C685 1.376 . S
C682 C680 1.394 . S
C682 C683 1.369 . S
C682 C686 1.531 . S
C683 C682 1.369 . S
C683 C684 1.410 . S
C683 C691 1.503 . S
C684 C683 1.410 . S
C684 C685 1.392 . S
C684 C687 1.511 . S
C685 C681 1.376 . S
C685 C684 1.392 . S
C685 H697 0.929 . S
C686 C682 1.531 . S
C686 H698 0.960 . S
C686 H699 0.962 . S
C686 H700 0.960 . S
C687 C684 1.511 . S
C687 H701 0.961 . S
C687 H702 0.961 . S
C687 H703 0.961 . S
C688 C689 1.370 . S
C688 C690 1.363 . S
C688 H704 0.931 . S
C689 C688 1.370 . S
C689 C693 1.408 . S
C690 C688 1.363 . S
C690 C691 1.370 . S
C690 C694 1.524 . S
C691 C683 1.503 . S
C691 C690 1.370 . S
C691 C692 1.403 . S
C692 C691 1.403 . S
C692 C693 1.404 . S
C692 C695 1.539 . S
C693 C689 1.408 . S
C693 C692 1.404 . S
C693 H705 0.930 . S
C694 C690 1.524 . S
C694 H706 0.956 . S
C694 H707 0.961 . S
C694 H708 0.961 . S
C695 C692 1.539 . S
C695 H709 0.958 . S
C695 H710 0.961 . S
C695 H711 0.960 . S
H696 C680 0.931 . S
H697 C685 0.929 . S
H698 C686 0.960 . S
H699 C686 0.962 . S
H700 C686 0.960 . S
H701 C687 0.961 . S
H702 C687 0.961 . S
H703 C687 0.961 . S
H704 C688 0.931 . S
H705 C693 0.930 . S
H706 C694 0.956 . S
H707 C694 0.961 . S
H708 C694 0.961 . S
H709 C695 0.958 . S
H710 C695 0.961 . S
H711 C695 0.960 . S
C712 C713 1.391 . S
C712 C714 1.394 . S
C712 H728 0.931 . S
C713 C712 1.391 . S
C713 C717 1.376 . S
C714 C712 1.394 . S
C714 C715 1.369 . S
C714 C718 1.531 . S
C715 C714 1.369 . S
C715 C716 1.410 . S
C715 C723 1.503 . S
C716 C715 1.410 . S
C716 C717 1.392 . S
C716 C719 1.511 . S
C717 C713 1.376 . S
C717 C716 1.392 . S
C717 H729 0.929 . S
C718 C714 1.531 . S
C718 H730 0.960 . S
C718 H731 0.962 . S
C718 H732 0.960 . S
C719 C716 1.511 . S
C719 H733 0.961 . S
C719 H734 0.961 . S
C719 H735 0.961 . S
C720 C721 1.370 . S
C720 C722 1.363 . S
C720 H736 0.931 . S
C721 C720 1.370 . S
C721 C725 1.408 . S
C722 C720 1.363 . S
C722 C723 1.370 . S
C722 C726 1.524 . S
C723 C715 1.503 . S
C723 C722 1.370 . S
C723 C724 1.403 . S
C724 C723 1.403 . S
C724 C725 1.404 . S
C724 C727 1.539 . S
C725 C721 1.408 . S
C725 C724 1.404 . S
C725 H737 0.930 . S
C726 C722 1.524 . S
C726 H738 0.956 . S
C726 H739 0.961 . S
C726 H740 0.961 . S
C727 C724 1.539 . S
C727 H741 0.958 . S
C727 H742 0.961 . S
C727 H743 0.960 . S
H728 C712 0.931 . S
H729 C717 0.929 . S
H730 C718 0.960 . S
H731 C718 0.962 . S
H732 C718 0.960 . S
H733 C719 0.961 . S
H734 C719 0.961 . S
H735 C719 0.961 . S
H736 C720 0.931 . S
H737 C725 0.930 . S
H738 C726 0.956 . S
H739 C726 0.961 . S
H740 C726 0.961 . S
H741 C727 0.958 . S
H742 C727 0.961 . S
H743 C727 0.960 . S
C744 C745 1.391 . S
C744 C746 1.394 . S
C744 H760 0.931 . S
C745 C744 1.391 . S
C745 C749 1.376 . S
C746 C744 1.394 . S
C746 C747 1.369 . S
C746 C750 1.531 . S
C747 C746 1.369 . S
C747 C748 1.410 . S
C747 C755 1.503 . S
C748 C747 1.410 . S
C748 C749 1.392 . S
C748 C751 1.511 . S
C749 C745 1.376 . S
C749 C748 1.392 . S
C749 H761 0.929 . S
C750 C746 1.531 . S
C750 H762 0.960 . S
C750 H763 0.962 . S
C750 H764 0.960 . S
C751 C748 1.511 . S
C751 H765 0.961 . S
C751 H766 0.961 . S
C751 H767 0.976 . S
C752 C753 1.370 . S
C752 C754 1.363 . S
C752 H768 0.931 . S
C753 C752 1.370 . S
C753 C757 1.408 . S
C754 C752 1.363 . S
C754 C755 1.370 . S
C754 C758 1.524 . S
C755 C747 1.503 . S
C755 C754 1.370 . S
C755 C756 1.403 . S
C756 C755 1.403 . S
C756 C757 1.404 . S
C756 C759 1.539 . S
C757 C753 1.408 . S
C757 C756 1.404 . S
C757 H769 0.930 . S
C758 C754 1.524 . S
C758 H770 0.956 . S
C758 H771 0.961 . S
C758 H772 0.961 . S
C759 C756 1.539 . S
C759 H773 0.958 . S
C759 H774 0.961 1_455 S
C759 H775 0.960 . S
H760 C744 0.931 . S
H761 C749 0.929 . S
H762 C750 0.960 . S
H763 C750 0.962 . S
H764 C750 0.960 . S
H765 C751 0.961 . S
H766 C751 0.961 . S
H767 C751 0.976 . S
H768 C752 0.931 . S
H769 C757 0.930 . S
H770 C758 0.956 . S
H771 C758 0.961 . S
H772 C758 0.961 . S
H773 C759 0.958 . S
H774 C759 0.961 1_655 S
H775 C759 0.960 . S
C776 C777 1.391 . S
C776 C778 1.394 1_554 S
C776 H792 0.931 . S
C777 C776 1.391 . S
C777 C781 1.376 . S
C778 C776 1.394 1_556 S
C778 C779 1.369 . S
C778 C782 1.531 . S
C779 C778 1.369 . S
C779 C780 1.410 . S
C779 C787 1.503 . S
C780 C779 1.410 . S
C780 C781 1.392 1_556 S
C780 C783 1.511 . S
C781 C777 1.376 . S
C781 C780 1.392 1_554 S
C781 H793 0.929 . S
C782 C778 1.531 . S
C782 H794 0.960 . S
C782 H795 0.962 . S
C782 H796 0.960 . S
C783 C780 1.511 . S
C783 H797 0.961 1_565 S
C783 H798 0.961 1_565 S
C783 H799 0.961 . S
C784 C785 1.370 . S
C784 C786 1.363 . S
C784 H800 0.946 . S
C785 C784 1.370 . S
C785 C789 1.408 . S
C786 C784 1.363 . S
C786 C787 1.370 . S
C786 C790 1.524 . S
C787 C779 1.503 . S
C787 C786 1.370 . S
C787 C788 1.403 . S
C788 C787 1.403 . S
C788 C789 1.404 . S
C788 C791 1.539 . S
C789 C785 1.408 . S
C789 C788 1.404 . S
C789 H801 0.930 . S
C790 C786 1.524 . S
C790 H802 0.956 . S
C790 H803 0.961 . S
C790 H804 0.929 1_565 S
C791 C788 1.539 . S
C791 H805 0.958 . S
C791 H806 0.961 . S
C791 H807 0.960 . S
H792 C776 0.931 . S
H793 C781 0.929 . S
H794 C782 0.960 . S
H795 C782 0.962 . S
H796 C782 0.960 . S
H797 C783 0.961 1_545 S
H798 C783 0.961 1_545 S
H799 C783 0.961 . S
H800 C784 0.946 . S
H801 C789 0.930 . S
H802 C790 0.956 . S
H803 C790 0.961 . S
H804 C790 0.929 1_545 S
H805 C791 0.958 . S
H806 C791 0.961 . S
H807 C791 0.960 . S
C808 C809 1.391 . S
C808 C810 1.394 1_554 S
C808 H824 0.931 . S
C809 C808 1.391 . S
C809 C813 1.376 . S
C810 C808 1.394 1_556 S
C810 C811 1.369 . S
C810 C814 1.531 . S
C811 C810 1.369 . S
C811 C812 1.410 1_556 S
C811 C819 1.503 . S
C812 C811 1.410 1_554 S
C812 C813 1.392 . S
C812 C815 1.511 1_554 S
C813 C809 1.376 . S
C813 C812 1.392 . S
C813 H825 0.929 . S
C814 C810 1.531 . S
C814 H826 0.960 . S
C814 H827 0.962 . S
C814 H828 0.960 . S
C815 C812 1.511 1_556 S
C815 H829 0.961 1_556 S
C815 H830 0.961 . S
C815 H831 0.961 1_556 S
C816 C817 1.370 . S
C816 C818 1.363 . S
C816 H832 0.931 . S
C817 C816 1.370 . S
C817 C821 1.408 . S
C818 C816 1.363 . S
C818 C819 1.370 . S
C818 C822 1.524 . S
C819 C811 1.503 . S
C819 C818 1.370 . S
C819 C820 1.403 . S
C820 C819 1.403 . S
C820 C821 1.404 . S
C820 C823 1.539 . S
C821 C817 1.408 . S
C821 C820 1.404 . S
C821 H833 0.930 . S
C822 C818 1.524 . S
C822 H834 0.956 . S
C822 H835 0.961 . S
C822 H836 0.961 . S
C823 C820 1.539 . S
C823 H837 0.958 . S
C823 H838 0.961 . S
C823 H839 0.960 . S
H824 C808 0.931 . S
H825 C813 0.929 . S
H826 C814 0.960 . S
H827 C814 0.962 . S
H828 C814 0.960 . S
H829 C815 0.961 1_554 S
H830 C815 0.961 . S
H831 C815 0.961 1_554 S
H832 C816 0.931 . S
H833 C821 0.930 . S
H834 C822 0.956 . S
H835 C822 0.961 . S
H836 C822 0.961 . S
H837 C823 0.958 . S
H838 C823 0.961 . S
H839 C823 0.960 . S
C840 C841 1.391 . S
C840 C842 1.394 1_554 S
C840 H856 0.931 . S
C841 C840 1.391 . S
C841 C845 1.376 . S
C842 C840 1.394 1_556 S
C842 C843 1.369 . S
C842 C846 1.531 . S
C843 C842 1.369 . S
C843 C844 1.410 . S
C843 C851 1.503 . S
C844 C843 1.410 . S
C844 C845 1.392 1_556 S
C844 C847 1.511 . S
C845 C841 1.376 . S
C845 C844 1.392 1_554 S
C845 H857 0.929 . S
C846 C842 1.531 . S
C846 H858 0.960 . S
C846 H859 0.962 . S
C846 H860 0.960 . S
C847 C844 1.511 . S
C847 H861 0.961 . S
C847 H862 0.961 . S
C847 H863 0.961 . S
C848 C849 1.370 . S
C848 C850 1.363 . S
C848 H864 0.931 . S
C849 C848 1.370 . S
C849 C853 1.408 . S
C850 C848 1.363 . S
C850 C851 1.370 . S
C850 C854 1.524 . S
C851 C843 1.503 . S
C851 C850 1.370 . S
C851 C852 1.403 . S
C852 C851 1.403 . S
C852 C853 1.404 . S
C852 C855 1.539 . S
C853 C849 1.408 . S
C853 C852 1.404 . S
C853 H865 0.930 . S
C854 C850 1.524 . S
C854 H866 0.956 . S
C854 H867 0.961 . S
C854 H868 0.961 . S
C855 C852 1.539 . S
C855 H869 0.958 . S
C855 H870 0.961 . S
C855 H871 0.960 . S
H856 C840 0.931 . S
H857 C845 0.929 . S
H858 C846 0.960 . S
H859 C846 0.962 . S
H860 C846 0.960 . S
H861 C847 0.961 . S
H862 C847 0.961 . S
H863 C847 0.961 . S
H864 C848 0.931 . S
H865 C853 0.930 . S
H866 C854 0.956 . S
H867 C854 0.961 . S
H868 C854 0.961 . S
H869 C855 0.958 . S
H870 C855 0.961 . S
H871 C855 0.960 . S
C872 C873 1.391 . S
C872 C874 1.394 . S
C872 H888 0.931 . S
C873 C872 1.391 . S
C873 C877 1.376 . S
C874 C872 1.394 . S
C874 C875 1.369 1_554 S
C874 C878 1.531 . S
C875 C874 1.369 1_556 S
C875 C876 1.410 . S
C875 C883 1.503 . S
C876 C875 1.410 . S
C876 C877 1.392 1_556 S
C876 C879 1.511 . S
C877 C873 1.376 . S
C877 C876 1.392 1_554 S
C877 H889 0.929 . S
C878 C874 1.531 . S
C878 H890 0.960 1_554 S
C878 H891 0.962 1_654 S
C878 H892 0.960 1_655 S
C879 C876 1.511 . S
C879 H893 0.961 . S
C879 H894 0.961 . S
C879 H895 0.961 . S
C880 C881 1.370 . S
C880 C882 1.363 . S
C880 H896 0.931 . S
C881 C880 1.370 . S
C881 C885 1.408 . S
C882 C880 1.363 . S
C882 C883 1.370 . S
C882 C886 1.524 . S
C883 C875 1.503 . S
C883 C882 1.370 . S
C883 C884 1.403 . S
C884 C883 1.403 . S
C884 C885 1.404 . S
C884 C887 1.539 . S
C885 C881 1.408 . S
C885 C884 1.404 . S
C885 H897 0.930 . S
C886 C882 1.524 . S
C886 H898 0.956 . S
C886 H899 0.961 . S
C886 H900 0.961 . S
C887 C884 1.539 . S
C887 H901 0.958 . S
C887 H902 0.961 . S
C887 H903 0.960 . S
H888 C872 0.931 . S
H889 C877 0.929 . S
H890 C878 0.960 1_556 S
H891 C878 0.962 1_456 S
H892 C878 0.960 1_455 S
H893 C879 0.961 . S
H894 C879 0.961 . S
H895 C879 0.961 . S
H896 C880 0.931 . S
H897 C885 0.930 . S
H898 C886 0.956 . S
H899 C886 0.961 . S
H900 C886 0.961 . S
H901 C887 0.958 . S
H902 C887 0.961 . S
H903 C887 0.960 . S
C904 C905 1.391 . S
C904 C906 1.394 . S
C904 H920 0.931 . S
C905 C904 1.391 . S
C905 C909 1.376 . S
C906 C904 1.394 . S
C906 C907 1.369 . S
C906 C910 1.531 . S
C907 C906 1.369 . S
C907 C908 1.410 . S
C907 C915 1.503 . S
C908 C907 1.410 . S
C908 C909 1.392 . S
C908 C911 1.511 . S
C909 C905 1.376 . S
C909 C908 1.392 . S
C909 H921 0.929 . S
C910 C906 1.531 . S
C910 H922 0.960 . S
C910 H923 0.962 . S
C910 H924 0.960 . S
C911 C908 1.511 . S
C911 H925 0.961 . S
C911 H926 0.961 . S
C911 H927 0.961 . S
C912 C913 1.370 . S
C912 C914 1.363 . S
C912 H928 0.931 . S
C913 C912 1.370 . S
C913 C917 1.408 1_455 S
C914 C912 1.363 . S
C914 C915 1.370 . S
C914 C918 1.524 . S
C915 C907 1.503 . S
C915 C914 1.370 . S
C915 C916 1.403 . S
C916 C915 1.403 . S
C916 C917 1.404 1_455 S
C916 C919 1.539 1_455 S
C917 C913 1.408 1_655 S
C917 C916 1.404 1_655 S
C917 H929 0.930 . S
C918 C914 1.524 . S
C918 H930 0.956 . S
C918 H931 0.961 . S
C918 H932 0.961 . S
C919 C916 1.539 1_655 S
C919 H933 0.958 . S
C919 H934 0.961 . S
C919 H935 0.960 1_655 S
H920 C904 0.931 . S
H921 C909 0.929 . S
H922 C910 0.960 . S
H923 C910 0.962 . S
H924 C910 0.960 . S
H925 C911 0.961 . S
H926 C911 0.961 . S
H927 C911 0.961 . S
H928 C912 0.931 . S
H929 C917 0.930 . S
H930 C918 0.956 . S
H931 C918 0.961 . S
H932 C918 0.961 . S
H933 C919 0.958 . S
H934 C919 0.961 . S
H935 C919 0.960 1_455 S
C936 C937 1.391 . S
C936 C938 1.394 . S
C936 H952 0.931 . S
C937 C936 1.391 . S
C937 C941 1.376 . S
C938 C936 1.394 . S
C938 C939 1.369 . S
C938 C942 1.531 . S
C939 C938 1.369 . S
C939 C940 1.410 . S
C939 C947 1.503 . S
C940 C939 1.410 . S
C940 C941 1.392 . S
C940 C943 1.511 . S
C941 C937 1.376 . S
C941 C940 1.392 . S
C941 H953 0.929 . S
C942 C938 1.531 . S
C942 H954 0.937 1_545 S
C942 H955 0.962 . S
C942 H956 0.960 . S
C943 C940 1.511 . S
C943 H957 0.961 . S
C943 H958 0.961 . S
C943 H959 0.961 . S
C944 C945 1.370 . S
C944 C946 1.363 . S
C944 H960 0.931 . S
C945 C944 1.370 . S
C945 C949 1.409 . S
C946 C944 1.363 . S
C946 C947 1.370 . S
C946 C950 1.524 . S
C947 C939 1.503 . S
C947 C946 1.370 . S
C947 C948 1.403 . S
C948 C947 1.403 . S
C948 C949 1.415 . S
C948 C951 1.539 . S
C949 C945 1.409 . S
C949 C948 1.415 . S
C949 H961 0.919 1_545 S
C950 C946 1.524 . S
C950 H962 0.956 . S
C950 H963 0.961 . S
C950 H964 0.961 . S
C951 C948 1.539 . S
C951 H965 0.958 . S
C951 H966 0.961 . S
C951 H967 0.960 . S
H952 C936 0.931 . S
H953 C941 0.929 . S
H954 C942 0.937 1_565 S
H955 C942 0.962 . S
H956 C942 0.960 . S
H957 C943 0.961 . S
H958 C943 0.961 . S
H959 C943 0.961 . S
H960 C944 0.931 . S
H961 C949 0.919 1_565 S
H962 C950 0.956 . S
H963 C950 0.961 . S
H964 C950 0.961 . S
H965 C951 0.958 . S
H966 C951 0.961 . S
H967 C951 0.960 . S
C968 C969 1.391 . S
C968 C970 1.394 . S
C968 H984 0.931 . S
C969 C968 1.391 . S
C969 C973 1.376 . S
C970 C968 1.394 . S
C970 C971 1.369 . S
C970 C974 1.531 . S
C971 C970 1.369 . S
C971 C972 1.410 . S
C971 C979 1.503 . S
C972 C971 1.410 . S
C972 C973 1.392 . S
C972 C975 1.511 . S
C973 C969 1.376 . S
C973 C972 1.392 . S
C973 H985 0.929 . S
C974 C970 1.531 . S
C974 H986 0.960 . S
C974 H987 0.962 . S
C974 H988 0.960 . S
C975 C972 1.511 . S
C975 H989 0.961 . S
C975 H990 0.961 . S
C975 H991 0.961 . S
C976 C977 1.370 . S
C976 C978 1.363 . S
C976 H992 0.931 . S
C977 C976 1.370 . S
C977 C981 1.408 . S
C978 C976 1.363 . S
C978 C979 1.370 . S
C978 C982 1.524 . S
C979 C971 1.503 . S
C979 C978 1.370 . S
C979 C980 1.403 . S
C980 C979 1.403 . S
C980 C981 1.404 . S
C980 C983 1.539 . S
C981 C977 1.408 . S
C981 C980 1.404 . S
C981 H993 0.930 . S
C982 C978 1.524 . S
C982 H994 0.956 . S
C982 H995 0.961 . S
C982 H996 0.961 . S
C983 C980 1.539 . S
C983 H997 0.958 . S
C983 H998 0.961 . S
C983 H999 0.960 . S
H984 C968 0.931 . S
H985 C973 0.929 . S
H986 C974 0.960 . S
H987 C974 0.962 . S
H988 C974 0.960 . S
H989 C975 0.961 . S
H990 C975 0.961 . S
H991 C975 0.961 . S
H992 C976 0.931 . S
H993 C981 0.930 . S
H994 C982 0.956 . S
H995 C982 0.961 . S
H996 C982 0.961 . S
H997 C983 0.958 . S
H998 C983 0.961 . S
H999 C983 0.960 . S
C1000 C1001 1.391 . S
C1000 C1002 1.394 . S
C1000 H1016 0.931 . S
C1001 C1000 1.391 . S
C1001 C1005 1.376 . S
C1002 C1000 1.394 . S
C1002 C1003 1.369 . S
C1002 C1006 1.531 . S
C1003 C1002 1.369 . S
C1003 C1004 1.410 . S
C1003 C1011 1.503 . S
C1004 C1003 1.410 . S
C1004 C1005 1.392 . S
C1004 C1007 1.511 . S
C1005 C1001 1.376 . S
C1005 C1004 1.392 . S
C1005 H1017 0.929 . S
C1006 C1002 1.531 . S
C1006 H1018 0.960 . S
C1006 H1019 0.962 . S
C1006 H1020 0.960 . S
C1007 C1004 1.511 . S
C1007 H1021 0.961 . S
C1007 H1022 0.961 . S
C1007 H1023 0.961 . S
C1008 C1009 1.370 . S
C1008 C1010 1.363 . S
C1008 H1024 0.931 . S
C1009 C1008 1.370 . S
C1009 C1013 1.408 . S
C1010 C1008 1.363 . S
C1010 C1011 1.370 . S
C1010 C1014 1.524 . S
C1011 C1003 1.503 . S
C1011 C1010 1.370 . S
C1011 C1012 1.403 . S
C1012 C1011 1.403 . S
C1012 C1013 1.404 . S
C1012 C1015 1.539 . S
C1013 C1009 1.408 . S
C1013 C1012 1.404 . S
C1013 H1025 0.930 . S
C1014 C1010 1.524 . S
C1014 H1026 0.956 . S
C1014 H1027 0.961 . S
C1014 H1028 0.961 . S
C1015 C1012 1.539 . S
C1015 H1029 0.958 . S
C1015 H1030 0.961 . S
C1015 H1031 0.960 . S
H1016 C1000 0.931 . S
H1017 C1005 0.929 . S
H1018 C1006 0.960 . S
H1019 C1006 0.962 . S
H1020 C1006 0.960 . S
H1021 C1007 0.961 . S
H1022 C1007 0.961 . S
H1023 C1007 0.961 . S
H1024 C1008 0.931 . S
H1025 C1013 0.930 . S
H1026 C1014 0.956 . S
H1027 C1014 0.961 . S
H1028 C1014 0.961 . S
H1029 C1015 0.958 . S
H1030 C1015 0.961 . S
H1031 C1015 0.960 . S
C1032 C1033 1.391 1_554 S
C1032 C1034 1.401 . S
C1032 H1048 0.931 . S
C1033 C1032 1.391 1_556 S
C1033 C1037 1.376 . S
C1034 C1032 1.401 . S
C1034 C1035 1.351 1_554 S
C1034 C1038 1.541 . S
C1035 C1034 1.351 1_556 S
C1035 C1036 1.410 . S
C1035 C1043 1.503 . S
C1036 C1035 1.410 . S
C1036 C1037 1.392 . S
C1036 C1039 1.511 . S
C1037 C1033 1.376 . S
C1037 C1036 1.392 . S
C1037 H1049 0.929 . S
C1038 C1034 1.541 . S
C1038 H1050 0.960 . S
C1038 H1051 0.962 . S
C1038 H1052 0.960 . S
C1039 C1036 1.511 . S
C1039 H1053 0.961 . S
C1039 H1054 0.961 . S
C1039 H1055 0.961 . S
C1040 C1041 1.370 1_655 S
C1040 C1042 1.363 . S
C1040 H1056 0.931 . S
C1041 C1040 1.370 1_455 S
C1041 C1045 1.408 . S
C1042 C1040 1.363 . S
C1042 C1043 1.370 . S
C1042 C1046 1.524 . S
C1043 C1035 1.503 . S
C1043 C1042 1.370 . S
C1043 C1044 1.403 1_655 S
C1044 C1043 1.403 1_455 S
C1044 C1045 1.404 . S
C1044 C1047 1.539 . S
C1045 C1041 1.408 . S
C1045 C1044 1.404 . S
C1045 H1057 0.930 . S
C1046 C1042 1.524 . S
C1046 H1058 0.956 . S
C1046 H1059 0.961 . S
C1046 H1060 0.961 . S
C1047 C1044 1.539 . S
C1047 H1061 0.958 . S
C1047 H1062 0.961 . S
C1047 H1063 0.960 . S
H1048 C1032 0.931 . S
H1049 C1037 0.929 . S
H1050 C1038 0.960 . S
H1051 C1038 0.962 . S
H1052 C1038 0.960 . S
H1053 C1039 0.961 . S
H1054 C1039 0.961 . S
H1055 C1039 0.961 . S
H1056 C1040 0.931 . S
H1057 C1045 0.930 . S
H1058 C1046 0.956 . S
H1059 C1046 0.961 . S
H1060 C1046 0.961 . S
H1061 C1047 0.958 . S
H1062 C1047 0.961 . S
H1063 C1047 0.960 . S
C1064 C1065 1.391 . S
C1064 C1066 1.394 . S
C1064 H1080 0.931 . S
C1065 C1064 1.391 . S
C1065 C1069 1.376 1_556 S
C1066 C1064 1.394 . S
C1066 C1067 1.369 . S
C1066 C1070 1.531 . S
C1067 C1066 1.369 . S
C1067 C1068 1.410 1_556 S
C1067 C1075 1.503 . S
C1068 C1067 1.410 1_554 S
C1068 C1069 1.392 . S
C1068 C1071 1.511 . S
C1069 C1065 1.376 1_554 S
C1069 C1068 1.392 . S
C1069 H1081 0.929 . S
C1070 C1066 1.531 . S
C1070 H1082 0.960 . S
C1070 H1083 0.962 . S
C1070 H1084 0.960 . S
C1071 C1068 1.511 . S
C1071 H1085 0.961 . S
C1071 H1086 0.981 . S
C1071 H1087 0.961 . S
C1072 C1073 1.370 . S
C1072 C1074 1.355 1_545 S
C1072 H1088 0.931 . S
C1073 C1072 1.370 . S
C1073 C1077 1.408 1_545 S
C1074 C1072 1.355 1_565 S
C1074 C1075 1.381 . S
C1074 C1078 1.521 1_565 S
C1075 C1067 1.503 . S
C1075 C1074 1.381 . S
C1075 C1076 1.403 . S
C1076 C1075 1.403 . S
C1076 C1077 1.404 . S
C1076 C1079 1.539 . S
C1077 C1073 1.408 1_565 S
C1077 C1076 1.404 . S
C1077 H1089 0.930 . S
C1078 C1074 1.521 1_545 S
C1078 H1090 0.956 1_545 S
C1078 H1091 0.961 . S
C1078 H1092 0.961 . S
C1079 C1076 1.539 . S
C1079 H1093 0.958 . S
C1079 H1094 0.961 . S
C1079 H1095 0.960 . S
H1080 C1064 0.931 . S
H1081 C1069 0.929 . S
H1082 C1070 0.960 . S
H1083 C1070 0.962 . S
H1084 C1070 0.960 . S
H1085 C1071 0.961 . S
H1086 C1071 0.981 . S
H1087 C1071 0.961 . S
H1088 C1072 0.931 . S
H1089 C1077 0.930 . S
H1090 C1078 0.956 1_565 S
H1091 C1078 0.961 . S
H1092 C1078 0.961 . S
H1093 C1079 0.958 . S
H1094 C1079 0.961 . S
H1095 C1079 0.960 . S
C1096 C1097 1.391 1_554 S
C1096 C1098 1.394 1_554 S
C1096 H1112 0.931 . S
C1097 C1096 1.391 1_556 S
C1097 C1101 1.376 . S
C1098 C1096 1.394 1_556 S
C1098 C1099 1.369 . S
C1098 C1102 1.531 1_556 S
C1099 C1098 1.369 . S
C1099 C1100 1.410 . S
C1099 C1107 1.503 . S
C1100 C1099 1.410 . S
C1100 C1101 1.392 . S
C1100 C1103 1.511 . S
C1101 C1097 1.376 . S
C1101 C1100 1.392 . S
C1101 H1113 0.929 . S
C1102 C1098 1.531 1_554 S
C1102 H1114 0.960 . S
C1102 H1115 0.962 1_554 S
C1102 H1116 0.960 . S
C1103 C1100 1.511 . S
C1103 H1117 0.961 . S
C1103 H1118 0.961 . S
C1103 H1119 0.961 . S
C1104 C1105 1.370 . S
C1104 C1106 1.363 . S
C1104 H1120 0.931 . S
C1105 C1104 1.370 . S
C1105 C1109 1.408 . S
C1106 C1104 1.363 . S
C1106 C1107 1.370 . S
C1106 C1110 1.524 . S
C1107 C1099 1.503 . S
C1107 C1106 1.370 . S
C1107 C1108 1.403 . S
C1108 C1107 1.403 . S
C1108 C1109 1.404 . S
C1108 C1111 1.539 1_556 S
C1109 C1105 1.408 . S
C1109 C1108 1.404 . S
C1109 H1121 0.930 . S
C1110 C1106 1.524 . S
C1110 H1122 0.956 . S
C1110 H1123 0.961 . S
C1110 H1124 0.961 . S
C1111 C1108 1.539 1_554 S
C1111 H1125 0.958 . S
C1111 H1126 0.961 . S
C1111 H1127 0.960 . S
H1112 C1096 0.931 . S
H1113 C1101 0.929 . S
H1114 C1102 0.960 . S
H1115 C1102 0.962 1_556 S
H1116 C1102 0.960 . S
H1117 C1103 0.961 . S
H1118 C1103 0.961 . S
H1119 C1103 0.961 . S
H1120 C1104 0.931 . S
H1121 C1109 0.930 . S
H1122 C1110 0.956 . S
H1123 C1110 0.961 . S
H1124 C1110 0.961 . S
H1125 C1111 0.958 . S
H1126 C1111 0.961 . S
H1127 C1111 0.960 . S
C1128 C1129 1.391 . S
C1128 C1130 1.394 . S
C1128 H1144 0.931 . S
C1129 C1128 1.391 . S
C1129 C1133 1.376 . S
C1130 C1128 1.394 . S
C1130 C1131 1.369 . S
C1130 C1134 1.531 . S
C1131 C1130 1.369 . S
C1131 C1132 1.410 . S
C1131 C1139 1.503 . S
C1132 C1131 1.410 . S
C1132 C1133 1.392 . S
C1132 C1135 1.511 . S
C1133 C1129 1.376 . S
C1133 C1132 1.392 . S
C1133 H1145 0.929 . S
C1134 C1130 1.531 . S
C1134 H1146 0.960 . S
C1134 H1147 0.962 . S
C1134 H1148 0.960 . S
C1135 C1132 1.511 . S
C1135 H1149 0.961 . S
C1135 H1150 0.961 . S
C1135 H1151 0.961 . S
C1136 C1137 1.370 . S
C1136 C1138 1.363 . S
C1136 H1152 0.931 . S
C1137 C1136 1.370 . S
C1137 C1141 1.408 . S
C1138 C1136 1.363 . S
C1138 C1139 1.370 . S
C1138 C1142 1.524 1_556 S
C1139 C1131 1.503 . S
C1139 C1138 1.370 . S
C1139 C1140 1.403 . S
C1140 C1139 1.403 . S
C1140 C1141 1.404 . S
C1140 C1143 1.539 . S
C1141 C1137 1.408 . S
C1141 C1140 1.404 . S
C1141 H1153 0.930 . S
C1142 C1138 1.524 1_554 S
C1142 H1154 0.956 . S
C1142 H1155 0.961 . S
C1142 H1156 0.961 . S
C1143 C1140 1.539 . S
C1143 H1157 0.958 . S
C1143 H1158 0.961 . S
C1143 H1159 0.960 . S
H1144 C1128 0.931 . S
H1145 C1133 0.929 . S
H1146 C1134 0.960 . S
H1147 C1134 0.962 . S
H1148 C1134 0.960 . S
H1149 C1135 0.961 . S
H1150 C1135 0.961 . S
H1151 C1135 0.961 . S
H1152 C1136 0.931 . S
H1153 C1141 0.930 . S
H1154 C1142 0.956 . S
H1155 C1142 0.961 . S
H1156 C1142 0.961 . S
H1157 C1143 0.958 . S
H1158 C1143 0.961 . S
H1159 C1143 0.960 . S
C1160 C1161 1.391 . S
C1160 C1162 1.394 . S
C1160 H1176 0.931 . S
C1161 C1160 1.391 . S
C1161 C1165 1.376 . S
C1162 C1160 1.394 . S
C1162 C1163 1.369 . S
C1162 C1166 1.531 . S
C1163 C1162 1.369 . S
C1163 C1164 1.410 . S
C1163 C1171 1.503 . S
C1164 C1163 1.410 . S
C1164 C1165 1.392 . S
C1164 C1167 1.511 . S
C1165 C1161 1.376 . S
C1165 C1164 1.392 . S
C1165 H1177 0.929 . S
C1166 C1162 1.531 . S
C1166 H1178 0.960 . S
C1166 H1179 0.962 . S
C1166 H1180 0.960 . S
C1167 C1164 1.511 . S
C1167 H1181 0.961 . S
C1167 H1182 0.961 . S
C1167 H1183 0.961 . S
C1168 C1169 1.370 . S
C1168 C1170 1.363 . S
C1168 H1184 0.931 . S
C1169 C1168 1.370 . S
C1169 C1173 1.408 . S
C1170 C1168 1.363 . S
C1170 C1171 1.370 . S
C1170 C1174 1.524 . S
C1171 C1163 1.503 . S
C1171 C1170 1.370 . S
C1171 C1172 1.403 . S
C1172 C1171 1.403 . S
C1172 C1173 1.404 . S
C1172 C1175 1.539 . S
C1173 C1169 1.408 . S
C1173 C1172 1.404 . S
C1173 H1185 0.930 . S
C1174 C1170 1.524 . S
C1174 H1186 0.956 . S
C1174 H1187 0.961 . S
C1174 H1188 0.961 . S
C1175 C1172 1.539 . S
C1175 H1189 0.958 . S
C1175 H1190 0.961 . S
C1175 H1191 0.960 . S
H1176 C1160 0.931 . S
H1177 C1165 0.929 . S
H1178 C1166 0.960 . S
H1179 C1166 0.962 . S
H1180 C1166 0.960 . S
H1181 C1167 0.961 . S
H1182 C1167 0.961 . S
H1183 C1167 0.961 . S
H1184 C1168 0.931 . S
H1185 C1173 0.930 . S
H1186 C1174 0.956 . S
H1187 C1174 0.961 . S
H1188 C1174 0.961 . S
H1189 C1175 0.958 . S
H1190 C1175 0.961 . S
H1191 C1175 0.960 . S
C1192 C1193 1.391 . S
C1192 C1194 1.394 . S
C1192 H1208 0.931 . S
C1193 C1192 1.391 . S
C1193 C1197 1.376 . S
C1194 C1192 1.394 . S
C1194 C1195 1.369 . S
C1194 C1198 1.531 . S
C1195 C1194 1.369 . S
C1195 C1196 1.410 . S
C1195 C1203 1.503 . S
C1196 C1195 1.410 . S
C1196 C1197 1.392 . S
C1196 C1199 1.511 . S
C1197 C1193 1.376 . S
C1197 C1196 1.392 . S
C1197 H1209 0.929 . S
C1198 C1194 1.531 . S
C1198 H1210 0.960 . S
C1198 H1211 0.962 . S
C1198 H1212 0.960 . S
C1199 C1196 1.511 . S
C1199 H1213 0.961 . S
C1199 H1214 0.961 . S
C1199 H1215 0.961 . S
C1200 C1201 1.370 . S
C1200 C1202 1.363 . S
C1200 H1216 0.931 . S
C1201 C1200 1.370 . S
C1201 C1205 1.408 . S
C1202 C1200 1.363 . S
C1202 C1203 1.370 . S
C1202 C1206 1.524 . S
C1203 C1195 1.503 . S
C1203 C1202 1.370 . S
C1203 C1204 1.403 . S
C1204 C1203 1.403 . S
C1204 C1205 1.404 . S
C1204 C1207 1.539 1_545 S
C1205 C1201 1.408 . S
C1205 C1204 1.404 . S
C1205 H1217 0.930 1_545 S
C1206 C1202 1.524 . S
C1206 H1218 0.956 . S
C1206 H1219 0.961 . S
C1206 H1220 0.961 . S
C1207 C1204 1.539 1_565 S
C1207 H1221 0.958 . S
C1207 H1222 0.961 . S
C1207 H1223 0.953 1_565 S
H1208 C1192 0.931 . S
H1209 C1197 0.929 . S
H1210 C1198 0.960 . S
H1211 C1198 0.962 . S
H1212 C1198 0.960 . S
H1213 C1199 0.961 . S
H1214 C1199 0.961 . S
H1215 C1199 0.961 . S
H1216 C1200 0.931 . S
H1217 C1205 0.930 1_565 S
H1218 C1206 0.956 . S
H1219 C1206 0.961 . S
H1220 C1206 0.961 . S
H1221 C1207 0.958 . S
H1222 C1207 0.961 . S
H1223 C1207 0.953 1_545 S
C1224 C1225 1.391 . S
C1224 C1226 1.394 . S
C1224 H1240 0.931 . S
C1225 C1224 1.391 . S
C1225 C1229 1.376 . S
C1226 C1224 1.394 . S
C1226 C1227 1.369 . S
C1226 C1230 1.531 . S
C1227 C1226 1.369 . S
C1227 C1228 1.410 . S
C1227 C1235 1.503 . S
C1228 C1227 1.410 . S
C1228 C1229 1.392 . S
C1228 C1231 1.511 . S
C1229 C1225 1.376 . S
C1229 C1228 1.392 . S
C1229 H1241 0.929 . S
C1230 C1226 1.531 . S
C1230 H1242 0.960 . S
C1230 H1243 0.962 . S
C1230 H1244 0.960 . S
C1231 C1228 1.511 . S
C1231 H1245 0.961 . S
C1231 H1246 0.961 . S
C1231 H1247 0.961 . S
C1232 C1233 1.370 . S
C1232 C1234 1.363 . S
C1232 H1248 0.931 . S
C1233 C1232 1.370 . S
C1233 C1237 1.408 . S
C1234 C1232 1.363 . S
C1234 C1235 1.370 . S
C1234 C1238 1.524 . S
C1235 C1227 1.503 . S
C1235 C1234 1.370 . S
C1235 C1236 1.403 . S
C1236 C1235 1.403 . S
C1236 C1237 1.404 . S
C1236 C1239 1.539 . S
C1237 C1233 1.408 . S
C1237 C1236 1.404 . S
C1237 H1249 0.930 . S
C1238 C1234 1.524 . S
C1238 H1250 0.956 . S
C1238 H1251 0.961 . S
C1238 H1252 0.961 . S
C1239 C1236 1.539 . S
C1239 H1253 0.958 . S
C1239 H1254 0.961 . S
C1239 H1255 0.960 . S
H1240 C1224 0.931 . S
H1241 C1229 0.929 . S
H1242 C1230 0.960 . S
H1243 C1230 0.962 . S
H1244 C1230 0.960 . S
H1245 C1231 0.961 . S
H1246 C1231 0.961 . S
H1247 C1231 0.961 . S
H1248 C1232 0.931 . S
H1249 C1237 0.930 . S
H1250 C1238 0.956 . S
H1251 C1238 0.961 . S
H1252 C1238 0.961 . S
H1253 C1239 0.958 . S
H1254 C1239 0.961 . S
H1255 C1239 0.960 . S
C1256 C1257 1.391 . S
C1256 C1258 1.394 . S
C1256 H1272 0.931 . S
C1257 C1256 1.391 . S
C1257 C1261 1.376 . S
C1258 C1256 1.394 . S
C1258 C1259 1.369 . S
C1258 C1262 1.531 . S
C1259 C1258 1.369 . S
C1259 C1260 1.410 . S
C1259 C1267 1.503 . S
C1260 C1259 1.410 . S
C1260 C1261 1.392 . S
C1260 C1263 1.511 . S
C1261 C1257 1.376 . S
C1261 C1260 1.392 . S
C1261 H1273 0.929 . S
C1262 C1258 1.531 . S
C1262 H1274 0.960 . S
C1262 H1275 0.962 . S
C1262 H1276 0.960 . S
C1263 C1260 1.511 . S
C1263 H1277 0.961 . S
C1263 H1278 0.961 . S
C1263 H1279 0.961 . S
C1264 C1265 1.370 . S
C1264 C1266 1.363 . S
C1264 H1280 0.931 . S
C1265 C1264 1.370 . S
C1265 C1269 1.408 . S
C1266 C1264 1.363 . S
C1266 C1267 1.370 . S
C1266 C1270 1.524 . S
C1267 C1259 1.503 . S
C1267 C1266 1.370 . S
C1267 C1268 1.403 . S
C1268 C1267 1.403 . S
C1268 C1269 1.404 . S
C1268 C1271 1.539 . S
C1269 C1265 1.408 . S
C1269 C1268 1.404 . S
C1269 H1281 0.930 . S
C1270 C1266 1.524 . S
C1270 H1282 0.956 . S
C1270 H1283 0.961 . S
C1270 H1284 0.961 . S
C1271 C1268 1.539 . S
C1271 H1285 0.958 . S
C1271 H1286 0.961 . S
C1271 H1287 0.960 . S
H1272 C1256 0.931 . S
H1273 C1261 0.929 . S
H1274 C1262 0.960 . S
H1275 C1262 0.962 . S
H1276 C1262 0.960 . S
H1277 C1263 0.961 . S
H1278 C1263 0.961 . S
H1279 C1263 0.961 . S
H1280 C1264 0.931 . S
H1281 C1269 0.930 . S
H1282 C1270 0.956 . S
H1283 C1270 0.961 . S
H1284 C1270 0.961 . S
H1285 C1271 0.958 . S
H1286 C1271 0.961 . S
H1287 C1271 0.960 . S
C1288 C1289 1.391 . S
C1288 C1290 1.394 . S
C1288 H1304 0.931 . S
C1289 C1288 1.391 . S
C1289 C1293 1.376 . S
C1290 C1288 1.394 . S
C1290 C1291 1.369 . S
C1290 C1294 1.531 . S
C1291 C1290 1.369 . S
C1291 C1292 1.410 . S
C1291 C1299 1.503 . S
C1292 C1291 1.410 . S
C1292 C1293 1.392 . S
C1292 C1295 1.511 . S
C1293 C1289 1.376 . S
C1293 C1292 1.392 . S
C1293 H1305 0.929 . S
C1294 C1290 1.531 . S
C1294 H1306 0.960 . S
C1294 H1307 0.962 1_655 S
C1294 H1308 0.960 . S
C1295 C1292 1.511 . S
C1295 H1309 0.961 . S
C1295 H1310 0.961 . S
C1295 H1311 0.961 . S
C1296 C1297 1.370 . S
C1296 C1298 1.363 . S
C1296 H1312 0.931 . S
C1297 C1296 1.370 . S
C1297 C1301 1.408 . S
C1298 C1296 1.363 . S
C1298 C1299 1.370 . S
C1298 C1302 1.524 . S
C1299 C1291 1.503 . S
C1299 C1298 1.370 . S
C1299 C1300 1.403 . S
C1300 C1299 1.403 . S
C1300 C1301 1.404 . S
C1300 C1303 1.539 . S
C1301 C1297 1.408 . S
C1301 C1300 1.404 . S
C1301 H1313 0.930 . S
C1302 C1298 1.524 . S
C1302 H1314 0.956 . S
C1302 H1315 0.961 . S
C1302 H1316 0.961 . S
C1303 C1300 1.539 . S
C1303 H1317 0.958 . S
C1303 H1318 0.961 . S
C1303 H1319 0.960 . S
H1304 C1288 0.931 . S
H1305 C1293 0.929 . S
H1306 C1294 0.960 . S
H1307 C1294 0.962 1_455 S
H1308 C1294 0.960 . S
H1309 C1295 0.961 . S
H1310 C1295 0.961 . S
H1311 C1295 0.961 . S
H1312 C1296 0.931 . S
H1313 C1301 0.930 . S
H1314 C1302 0.956 . S
H1315 C1302 0.961 . S
H1316 C1302 0.961 . S
H1317 C1303 0.958 . S
H1318 C1303 0.961 . S
H1319 C1303 0.960 . S
C1320 C1321 1.391 . S
C1320 C1322 1.394 . S
C1320 H1336 0.931 . S
C1321 C1320 1.391 . S
C1321 C1325 1.376 . S
C1322 C1320 1.394 . S
C1322 C1323 1.369 . S
C1322 C1326 1.531 . S
C1323 C1322 1.369 . S
C1323 C1324 1.410 . S
C1323 C1331 1.503 . S
C1324 C1323 1.410 . S
C1324 C1325 1.392 . S
C1324 C1327 1.511 . S
C1325 C1321 1.376 . S
C1325 C1324 1.392 . S
C1325 H1337 0.929 . S
C1326 C1322 1.531 . S
C1326 H1338 0.960 . S
C1326 H1339 0.962 1_565 S
C1326 H1340 0.960 . S
C1327 C1324 1.511 . S
C1327 H1341 0.961 . S
C1327 H1342 0.961 . S
C1327 H1343 0.961 . S
C1328 C1329 1.370 . S
C1328 C1330 1.363 . S
C1328 H1344 0.931 . S
C1329 C1328 1.370 . S
C1329 C1333 1.408 . S
C1330 C1328 1.363 . S
C1330 C1331 1.370 . S
C1330 C1334 1.524 . S
C1331 C1323 1.503 . S
C1331 C1330 1.370 . S
C1331 C1332 1.403 . S
C1332 C1331 1.403 . S
C1332 C1333 1.404 . S
C1332 C1335 1.539 . S
C1333 C1329 1.408 . S
C1333 C1332 1.404 . S
C1333 H1345 0.930 . S
C1334 C1330 1.524 . S
C1334 H1346 0.956 1_565 S
C1334 H1347 0.961 . S
C1334 H1348 0.961 1_565 S
C1335 C1332 1.539 . S
C1335 H1349 0.958 . S
C1335 H1350 0.961 . S
C1335 H1351 0.960 . S
H1336 C1320 0.931 . S
H1337 C1325 0.929 . S
H1338 C1326 0.960 . S
H1339 C1326 0.962 1_545 S
H1340 C1326 0.960 . S
H1341 C1327 0.961 . S
H1342 C1327 0.961 . S
H1343 C1327 0.961 . S
H1344 C1328 0.931 . S
H1345 C1333 0.930 . S
H1346 C1334 0.956 1_545 S
H1347 C1334 0.961 . S
H1348 C1334 0.961 1_545 S
H1349 C1335 0.958 . S
H1350 C1335 0.961 . S
H1351 C1335 0.960 . S
C1352 C1353 1.391 . S
C1352 C1354 1.394 . S
C1352 H1368 0.931 . S
C1353 C1352 1.391 . S
C1353 C1357 1.376 . S
C1354 C1352 1.394 . S
C1354 C1355 1.369 . S
C1354 C1358 1.531 . S
C1355 C1354 1.369 . S
C1355 C1356 1.410 . S
C1355 C1363 1.503 . S
C1356 C1355 1.410 . S
C1356 C1357 1.392 . S
C1356 C1359 1.511 . S
C1357 C1353 1.376 . S
C1357 C1356 1.392 . S
C1357 H1369 0.929 . S
C1358 C1354 1.531 . S
C1358 H1370 0.960 . S
C1358 H1371 0.962 . S
C1358 H1372 0.960 . S
C1359 C1356 1.511 . S
C1359 H1373 0.961 . S
C1359 H1374 0.961 . S
C1359 H1375 0.961 . S
C1360 C1361 1.370 . S
C1360 C1362 1.363 . S
C1360 H1376 0.931 . S
C1361 C1360 1.370 . S
C1361 C1365 1.408 . S
C1362 C1360 1.363 . S
C1362 C1363 1.370 . S
C1362 C1366 1.524 . S
C1363 C1355 1.503 . S
C1363 C1362 1.370 . S
C1363 C1364 1.403 . S
C1364 C1363 1.403 . S
C1364 C1365 1.404 . S
C1364 C1367 1.539 . S
C1365 C1361 1.408 . S
C1365 C1364 1.404 . S
C1365 H1377 0.930 . S
C1366 C1362 1.524 . S
C1366 H1378 0.956 . S
C1366 H1379 0.961 . S
C1366 H1380 0.961 . S
C1367 C1364 1.539 . S
C1367 H1381 0.958 . S
C1367 H1382 0.961 . S
C1367 H1383 0.960 . S
H1368 C1352 0.931 . S
H1369 C1357 0.929 . S
H1370 C1358 0.960 . S
H1371 C1358 0.962 . S
H1372 C1358 0.960 . S
H1373 C1359 0.961 . S
H1374 C1359 0.961 . S
H1375 C1359 0.961 . S
H1376 C1360 0.931 . S
H1377 C1365 0.930 . S
H1378 C1366 0.956 . S
H1379 C1366 0.961 . S
H1380 C1366 0.961 . S
H1381 C1367 0.958 . S
H1382 C1367 0.961 . S
H1383 C1367 0.960 . S
C1384 C1385 1.391 . S
C1384 C1386 1.394 . S
C1384 H1400 0.931 . S
C1385 C1384 1.391 . S
C1385 C1389 1.376 . S
C1386 C1384 1.394 . S
C1386 C1387 1.369 . S
C1386 C1390 1.531 . S
C1387 C1386 1.369 . S
C1387 C1388 1.410 . S
C1387 C1395 1.503 . S
C1388 C1387 1.410 . S
C1388 C1389 1.392 . S
C1388 C1391 1.511 . S
C1389 C1385 1.376 . S
C1389 C1388 1.392 . S
C1389 H1401 0.929 . S
C1390 C1386 1.531 . S
C1390 H1402 0.960 . S
C1390 H1403 0.962 . S
C1390 H1404 0.960 . S
C1391 C1388 1.511 . S
C1391 H1405 0.961 . S
C1391 H1406 0.961 . S
C1391 H1407 0.961 . S
C1392 C1393 1.370 . S
C1392 C1394 1.363 . S
C1392 H1408 0.931 . S
C1393 C1392 1.370 . S
C1393 C1397 1.408 . S
C1394 C1392 1.363 . S
C1394 C1395 1.370 . S
C1394 C1398 1.524 . S
C1395 C1387 1.503 . S
C1395 C1394 1.370 . S
C1395 C1396 1.403 . S
C1396 C1395 1.403 . S
C1396 C1397 1.404 . S
C1396 C1399 1.539 . S
C1397 C1393 1.408 . S
C1397 C1396 1.404 . S
C1397 H1409 0.930 . S
C1398 C1394 1.524 . S
C1398 H1410 0.956 . S
C1398 H1411 0.961 . S
C1398 H1412 0.961 . S
C1399 C1396 1.539 . S
C1399 H1413 0.958 . S
C1399 H1414 0.961 . S
C1399 H1415 0.960 . S
H1400 C1384 0.931 . S
H1401 C1389 0.929 . S
H1402 C1390 0.960 . S
H1403 C1390 0.962 . S
H1404 C1390 0.960 . S
H1405 C1391 0.961 . S
H1406 C1391 0.961 . S
H1407 C1391 0.961 . S
H1408 C1392 0.931 . S
H1409 C1397 0.930 . S
H1410 C1398 0.956 . S
H1411 C1398 0.961 . S
H1412 C1398 0.961 . S
H1413 C1399 0.958 . S
H1414 C1399 0.961 . S
H1415 C1399 0.960 . S
C649 C255 2.288 . S
C657 C386 2.340 . S
C689 C470 2.385 . S
C681 C294 2.245 . S
C721 C536 2.285 . S
C713 C177 2.365 . S
C753 C620 2.259 . S
C745 C216 2.393 . S
C785 C375 2.357 1_565 S
C777 C99 2.249 . S
C809 C138 2.254 . S
C817 C459 2.366 . S
C841 C21 2.386 . S
C849 C547 2.284 . S
C873 C60 2.422 . S
C881 C631 2.252 . S
C913 C382 0.624 1_455 S
C905 C196 0.577 . S
C945 C466 0.576 1_545 S
C937 C235 0.559 . S
C977 C538 0.592 . S
C969 C289 0.683 . S
C1001 C157 0.606 . S
C1009 C622 0.622 . S
C1033 C40 0.607 1_556 S
C1041 C370 0.626 . S
C1073 C454 0.595 . S
C1065 C79 0.655 1_556 S
C1105 C550 0.538 . S
C1097 C133 0.501 1_556 S
C1129 C1 0.721 1_556 S
C1137 C634 0.640 . S
C1161 C211 2.786 . S
C1169 C379 2.917 . S
C1193 C250 2.711 . S
C1201 C463 2.865 . S
C1233 C543 2.950 . S
C1225 C274 2.624 . S
C1265 C627 2.970 . S
C1257 C172 2.623 . S
C1289 C55 2.731 . S
C1297 C368 2.928 . S
C1329 C452 2.882 . S
C1321 C94 2.691 . S
C1361 C554 2.950 . S
C1353 C118 2.617 . S
C1385 C16 2.658 . S
C1393 C638 2.976 . S
