# Generated by pormake.
# Topology pyr, (3,6)-cn, num edge types: 1
# Building blocks:
#     Node 0, Type 0, BuildingBlock: MIDCAF_clean_linker_0, # of connection points: 3
#     Node 1, Type 0, BuildingBlock: MIDCAF_clean_linker_0, # of connection points: 3
#     Node 2, Type 0, BuildingBlock: MIDCAF_clean_linker_0, # of connection points: 3
#     Node 3, Type 0, BuildingBlock: MIDCAF_clean_linker_0, # of connection points: 3
#     Node 4, Type 0, BuildingBlock: MIDCAF_clean_linker_0, # of connection points: 3
#     Node 5, Type 0, BuildingBlock: MIDCAF_clean_linker_0, # of connection points: 3
#     Node 6, Type 0, BuildingBlock: MIDCAF_clean_linker_0, # of connection points: 3
#     Node 7, Type 0, BuildingBlock: MIDCAF_clean_linker_0, # of connection points: 3
#     Node 8, Type 1, BuildingBlock: BETDAH_clean_sbu_0, # of connection points: 6
#     Node 9, Type 1, BuildingBlock: BETDAH_clean_sbu_0, # of connection points: 6
#     Node 10, Type 1, BuildingBlock: BETDAH_clean_sbu_0, # of connection points: 6
#     Node 11, Type 1, BuildingBlock: BETDAH_clean_sbu_0, # of connection points: 6
#     Edge 12, Type (0, 1), BuildingBlock: XIVTED_clean_linker_0, # of connection points: 2
#     Edge 13, Type (0, 1), BuildingBlock: XIVTED_clean_linker_0, # of connection points: 2
#     Edge 14, Type (0, 1), BuildingBlock: XIVTED_clean_linker_0, # of connection points: 2
#     Edge 15, Type (0, 1), BuildingBlock: XIVTED_clean_linker_0, # of connection points: 2
#     Edge 16, Type (0, 1), BuildingBlock: XIVTED_clean_linker_0, # of connection points: 2
#     Edge 17, Type (0, 1), BuildingBlock: XIVTED_clean_linker_0, # of connection points: 2
#     Edge 18, Type (0, 1), BuildingBlock: XIVTED_clean_linker_0, # of connection points: 2
#     Edge 19, Type (0, 1), BuildingBlock: XIVTED_clean_linker_0, # of connection points: 2
#     Edge 20, Type (0, 1), BuildingBlock: XIVTED_clean_linker_0, # of connection points: 2
#     Edge 21, Type (0, 1), BuildingBlock: XIVTED_clean_linker_0, # of connection points: 2
#     Edge 22, Type (0, 1), BuildingBlock: XIVTED_clean_linker_0, # of connection points: 2
#     Edge 23, Type (0, 1), BuildingBlock: XIVTED_clean_linker_0, # of connection points: 2
#     Edge 24, Type (0, 1), BuildingBlock: XIVTED_clean_linker_0, # of connection points: 2
#     Edge 25, Type (0, 1), BuildingBlock: XIVTED_clean_linker_0, # of connection points: 2
#     Edge 26, Type (0, 1), BuildingBlock: XIVTED_clean_linker_0, # of connection points: 2
#     Edge 27, Type (0, 1), BuildingBlock: XIVTED_clean_linker_0, # of connection points: 2
#     Edge 28, Type (0, 1), BuildingBlock: XIVTED_clean_linker_0, # of connection points: 2
#     Edge 29, Type (0, 1), BuildingBlock: XIVTED_clean_linker_0, # of connection points: 2
#     Edge 30, Type (0, 1), BuildingBlock: XIVTED_clean_linker_0, # of connection points: 2
#     Edge 31, Type (0, 1), BuildingBlock: XIVTED_clean_linker_0, # of connection points: 2
#     Edge 32, Type (0, 1), BuildingBlock: XIVTED_clean_linker_0, # of connection points: 2
#     Edge 33, Type (0, 1), BuildingBlock: XIVTED_clean_linker_0, # of connection points: 2
#     Edge 34, Type (0, 1), BuildingBlock: XIVTED_clean_linker_0, # of connection points: 2
#     Edge 35, Type (0, 1), BuildingBlock: XIVTED_clean_linker_0, # of connection points: 2
# Relax obj value: 0.096
# Max RMSD: 0.125
# Mean RMSD: 0.059
data_MOF--net-pyr--node1-BETDAH_clean_sbu_0--node2-MIDCAF_clean_linker_0--edge1-XIVTED_clean_linker_0
_symmetry_space_group_name_H-M    P1
_symmetry_Int_Tables_number       1
_symmetry_cell_setting            triclinic
loop_
_symmetry_equiv_pos_as_xyz
'x, y, z'
_cell_length_a     46.611945
_cell_length_b     49.014447
_cell_length_c     43.971909
_cell_angle_alpha  90.480155
_cell_angle_beta   88.707361
_cell_angle_gamma 101.32542
loop_
_atom_site_label
_atom_site_type_symbol
_atom_site_fract_x
_atom_site_fract_y
_atom_site_fract_z
_atom_type_partial_charge
C0 C 0.27352 0.28122 0.32455 0.0
C1 C 0.2827 0.26132 0.34293 0.0
C2 C 0.31104 0.25595 0.33805 0.0
C3 C 0.32835 0.26778 0.31337 0.0
H4 H 0.3663 0.22987 0.24597 0.0
H5 H 0.3891 0.19427 0.2225 0.0
H6 H 0.40875 0.24423 0.14155 0.0
H7 H 0.38569 0.28024 0.16498 0.0
H8 H 0.31729 0.31141 0.15802 0.0
H9 H 0.28724 0.33939 0.13251 0.0
H10 H 0.29636 0.39626 0.209 0.0
H11 H 0.32506 0.36745 0.23493 0.0
H12 H 0.28237 0.30726 0.28545 0.0
H13 H 0.25185 0.28589 0.3273 0.0
H14 H 0.3193 0.24147 0.35233 0.0
H15 H 0.34924 0.2618 0.30903 0.0
N16 N 0.34898 0.27562 0.25076 0.0
N17 N 0.35071 0.2992 0.2043 0.0
N18 N 0.32543 0.31329 0.24656 0.0
C19 C 0.35834 0.27872 0.22128 0.0
C20 C 0.3346 0.31683 0.21708 0.0
C21 C 0.33253 0.29277 0.26357 0.0
C22 C 0.37401 0.25799 0.20733 0.0
C23 C 0.37558 0.23352 0.22322 0.0
C24 C 0.38849 0.21295 0.20973 0.0
C25 C 0.40047 0.21639 0.18015 0.0
C26 C 0.39973 0.24111 0.16446 0.0
C27 C 0.38644 0.26166 0.17784 0.0
C28 C 0.32314 0.33711 0.19858 0.0
C29 C 0.31346 0.33029 0.16896 0.0
C30 C 0.29622 0.34639 0.15436 0.0
C31 C 0.28873 0.3698 0.16897 0.0
C32 C 0.30083 0.3779 0.19745 0.0
C33 C 0.31755 0.36157 0.21222 0.0
C34 C 0.31795 0.28571 0.29347 0.0
C35 C 0.29106 0.29346 0.30028 0.0
C36 C 0.20091 0.88251 0.60857 0.0
C37 C 0.19786 0.89161 0.57887 0.0
C38 C 0.21672 0.88534 0.55563 0.0
C39 C 0.2394 0.87169 0.56233 0.0
H40 H 0.29987 0.82283 0.52768 0.0
H41 H 0.32996 0.80259 0.49099 0.0
H42 H 0.40085 0.81563 0.55448 0.0
H43 H 0.37121 0.83594 0.59072 0.0
H44 H 0.35296 0.83427 0.66247 0.0
H45 H 0.3696 0.84176 0.71459 0.0
H46 H 0.29424 0.87771 0.73725 0.0
H47 H 0.27718 0.86953 0.68577 0.0
H48 H 0.22619 0.86337 0.63873 0.0
H49 H 0.18672 0.88716 0.62694 0.0
H50 H 0.21452 0.89182 0.53244 0.0
H51 H 0.25433 0.86819 0.54414 0.0
N52 N 0.28812 0.84642 0.5787 0.0
N53 N 0.32193 0.84072 0.61572 0.0
N54 N 0.27878 0.85548 0.62999 0.0
C55 C 0.31388 0.8395 0.58613 0.0
C56 C 0.30442 0.84864 0.6378 0.0
C57 C 0.27044 0.8544 0.60059 0.0
C58 C 0.33297 0.83049 0.56237 0.0
C59 C 0.3221 0.82186 0.53352 0.0
C60 C 0.3393 0.81032 0.51247 0.0
C61 C 0.36775 0.80749 0.51979 0.0
C62 C 0.37919 0.81786 0.54785 0.0
C63 C 0.36199 0.82915 0.5689 0.0
C64 C 0.3138 0.85142 0.66981 0.0
C65 C 0.3398 0.84353 0.67866 0.0
C66 C 0.34943 0.84794 0.7085 0.0
C67 C 0.33332 0.86041 0.7301 0.0
C68 C 0.30698 0.86765 0.7214 0.0
C69 C 0.29729 0.86312 0.69169 0.0
C70 C 0.24373 0.86435 0.59246 0.0
C71 C 0.22368 0.86906 0.61533 0.0
C72 C 0.63567 0.26662 0.91262 0.0
C73 C 0.60868 0.25261 0.90145 0.0
C74 C 0.59572 0.26551 0.8783 0.0
C75 C 0.60931 0.29168 0.86682 0.0
H76 H 0.6076 0.3499 0.79559 0.0
H77 H 0.58749 0.37274 0.75416 0.0
H78 H 0.64949 0.44863 0.77185 0.0
H79 H 0.66948 0.42602 0.81326 0.0
H80 H 0.72424 0.42414 0.8565 0.0
H81 H 0.76944 0.44676 0.88071 0.0
H82 H 0.76123 0.37807 0.94327 0.0
H83 H 0.71666 0.35525 0.91883 0.0
H84 H 0.66982 0.30275 0.9108 0.0
H85 H 0.6462 0.25767 0.9307 0.0
H86 H 0.57512 0.2553 0.86883 0.0
H87 H 0.5986 0.30089 0.84909 0.0
N88 N 0.63936 0.3464 0.84352 0.0
N89 N 0.67762 0.38546 0.84726 0.0
N90 N 0.67557 0.34763 0.88001 0.0
C91 C 0.65269 0.37222 0.83355 0.0
C92 C 0.68925 0.37332 0.8705 0.0
C93 C 0.65068 0.33394 0.86682 0.0
C94 C 0.64024 0.386 0.80802 0.0
C95 C 0.61698 0.37147 0.79072 0.0
C96 C 0.60552 0.38455 0.76676 0.0
C97 C 0.61675 0.41263 0.75956 0.0
C98 C 0.63997 0.42713 0.77688 0.0
C99 C 0.65159 0.41402 0.80062 0.0
C100 C 0.71665 0.38771 0.88549 0.0
C101 C 0.73205 0.41383 0.87542 0.0
C102 C 0.75797 0.42692 0.88946 0.0
C103 C 0.76925 0.41427 0.91396 0.0
C104 C 0.75366 0.3883 0.92415 0.0
C105 C 0.72784 0.37524 0.91016 0.0
C106 C 0.6362 0.30577 0.87825 0.0
C107 C 0.64917 0.29274 0.90127 0.0
C108 C 0.76601 0.66032 0.42327 0.0
C109 C 0.75044 0.63459 0.4128 0.0
C110 C 0.7607 0.62305 0.38622 0.0
C111 C 0.78616 0.63676 0.37084 0.0
H112 H 0.84076 0.63368 0.29497 0.0
H113 H 0.86137 0.61102 0.25294 0.0
H114 H 0.94222 0.67136 0.25887 0.0
H115 H 0.92109 0.69473 0.30054 0.0
H116 H 0.91716 0.75388 0.34241 0.0
H117 H 0.93911 0.79896 0.36503 0.0
H118 H 0.8713 0.78713 0.43488 0.0
H119 H 0.84981 0.74268 0.41298 0.0
H120 H 0.80248 0.69377 0.41695 0.0
H121 H 0.75853 0.67013 0.4433 0.0
H122 H 0.74933 0.60319 0.37759 0.0
H123 H 0.79357 0.62717 0.35063 0.0
N124 N 0.84107 0.66586 0.34157 0.0
N125 N 0.87972 0.70489 0.33875 0.0
N126 N 0.84272 0.70253 0.37623 0.0
C127 C 0.86636 0.67943 0.32783 0.0
C128 C 0.86785 0.71662 0.36303 0.0
C129 C 0.82913 0.67727 0.36586 0.0
C130 C 0.87921 0.6661 0.30145 0.0
C131 C 0.86295 0.64225 0.2874 0.0
C132 C 0.87492 0.62904 0.26326 0.0
C133 C 0.9037 0.63902 0.25242 0.0
C134 C 0.9199 0.6631 0.26622 0.0
C135 C 0.9078 0.67649 0.29031 0.0
C136 C 0.88173 0.74434 0.37583 0.0
C137 C 0.90699 0.76092 0.36261 0.0
C138 C 0.91949 0.78684 0.37549 0.0
C139 C 0.90716 0.79662 0.40201 0.0
C140 C 0.88179 0.78014 0.41486 0.0
C141 C 0.86932 0.75452 0.40204 0.0
C142 C 0.80183 0.66244 0.38156 0.0
C143 C 0.79125 0.67402 0.40792 0.0
C144 C 0.61864 0.84038 0.86649 0.0
C145 C 0.62026 0.84529 0.89797 0.0
C146 C 0.63473 0.8288 0.91588 0.0
C147 C 0.64805 0.80835 0.90245 0.0
H148 H 0.69808 0.74907 0.92091 0.0
H149 H 0.7282 0.72312 0.94941 0.0
H150 H 0.74843 0.68211 0.86662 0.0
H151 H 0.71826 0.7077 0.83821 0.0
H152 H 0.72029 0.74266 0.77543 0.0
H153 H 0.75053 0.75949 0.73101 0.0
H154 H 0.72046 0.83744 0.73694 0.0
H155 H 0.68946 0.82024 0.7802 0.0
H156 H 0.63125 0.81749 0.82857 0.0
H157 H 0.60778 0.85286 0.8521 0.0
H158 H 0.63603 0.83195 0.94026 0.0
H159 H 0.65964 0.79648 0.91679 0.0
N160 N 0.67482 0.76582 0.87242 0.0
N161 N 0.69975 0.75351 0.82908 0.0
N162 N 0.67253 0.78868 0.82611 0.0
C163 C 0.69216 0.74967 0.85897 0.0
C164 C 0.6901 0.77296 0.81249 0.0
C165 C 0.66454 0.7851 0.85593 0.0
C166 C 0.70604 0.73072 0.8772 0.0
C167 C 0.70842 0.73407 0.90889 0.0
C168 C 0.72583 0.71935 0.92521 0.0
C169 C 0.74091 0.70078 0.91022 0.0
C170 C 0.73696 0.69612 0.87889 0.0
C171 C 0.71981 0.71097 0.86256 0.0
C172 C 0.70292 0.78032 0.78181 0.0
C173 C 0.71958 0.76312 0.76674 0.0
C174 C 0.73708 0.77285 0.74135 0.0
C175 C 0.73858 0.80011 0.73074 0.0
C176 C 0.71988 0.8163 0.74422 0.0
C177 C 0.70212 0.80644 0.76931 0.0
C178 C 0.6475 0.80425 0.87076 0.0
C179 C 0.63224 0.82019 0.85302 0.0
C180 C 0.68711 0.16653 0.37257 0.0
C181 C 0.66536 0.18026 0.36262 0.0
C182 C 0.6572 0.20125 0.38085 0.0
C183 C 0.67029 0.20797 0.409 0.0
H184 H 0.64968 0.22647 0.50134 0.0
H185 H 0.62864 0.25509 0.53729 0.0
H186 H 0.70883 0.2704 0.58762 0.0
H187 H 0.7302 0.24176 0.55126 0.0
H188 H 0.76794 0.18878 0.53571 0.0
H189 H 0.8088 0.16552 0.54423 0.0
H190 H 0.8247 0.16207 0.44728 0.0
H191 H 0.78399 0.18529 0.4386 0.0
H192 H 0.71711 0.16238 0.40727 0.0
H193 H 0.69396 0.15046 0.35873 0.0
H194 H 0.64043 0.21208 0.37355 0.0
H195 H 0.6635 0.22407 0.42283 0.0
N196 N 0.69312 0.21331 0.47111 0.0
N197 N 0.7319 0.2107 0.50346 0.0
N198 N 0.73223 0.19347 0.45367 0.0
C199 C 0.70586 0.21827 0.49868 0.0
C200 C 0.74523 0.19838 0.48095 0.0
C201 C 0.70624 0.20084 0.44852 0.0
C202 C 0.69183 0.23234 0.52302 0.0
C203 C 0.66273 0.23553 0.52031 0.0
C204 C 0.65049 0.25163 0.54127 0.0
C205 C 0.66711 0.26506 0.56533 0.0
C206 C 0.69557 0.26039 0.56923 0.0
C207 C 0.70779 0.24405 0.54834 0.0
C208 C 0.77249 0.18844 0.48647 0.0
C209 C 0.78049 0.18355 0.51624 0.0
C210 C 0.80375 0.17016 0.52114 0.0
C211 C 0.81958 0.16181 0.49637 0.0
C212 C 0.81286 0.1684 0.46674 0.0
C213 C 0.78942 0.18149 0.46181 0.0
C214 C 0.69211 0.19416 0.41893 0.0
C215 C 0.70047 0.17351 0.4003 0.0
C216 C 0.26899 0.63807 0.18191 0.0
C217 C 0.25772 0.65051 0.15725 0.0
C218 C 0.27312 0.67656 0.14706 0.0
C219 C 0.29872 0.68992 0.16124 0.0
H220 H 0.35589 0.76315 0.16138 0.0
H221 H 0.3792 0.80843 0.14173 0.0
H222 H 0.45001 0.81129 0.20404 0.0
H223 H 0.42685 0.76551 0.22353 0.0
H224 H 0.41762 0.71646 0.27738 0.0
H225 H 0.43749 0.69369 0.31907 0.0
H226 H 0.37667 0.61733 0.30013 0.0
H227 H 0.35695 0.63986 0.25851 0.0
H228 H 0.30249 0.6413 0.21517 0.0
H229 H 0.25766 0.61818 0.19066 0.0
H230 H 0.26555 0.68664 0.12783 0.0
H231 H 0.30975 0.70996 0.15259 0.0
N232 N 0.35049 0.71815 0.19193 0.0
N233 N 0.38641 0.71973 0.22884 0.0
N234 N 0.3486 0.68035 0.22468 0.0
C235 C 0.37513 0.73207 0.2054 0.0
C236 C 0.37326 0.69381 0.23866 0.0
C237 C 0.33702 0.69235 0.20131 0.0
C238 C 0.38941 0.76037 0.19412 0.0
C239 C 0.37642 0.77332 0.17106 0.0
C240 C 0.38973 0.79955 0.15985 0.0
C241 C 0.41656 0.81376 0.17122 0.0
C242 C 0.42953 0.80093 0.19442 0.0
C243 C 0.41613 0.77466 0.20576 0.0
C244 C 0.38561 0.68011 0.26432 0.0
C245 C 0.40846 0.6948 0.28203 0.0
C246 C 0.41978 0.68177 0.30614 0.0
C247 C 0.4088 0.65358 0.31306 0.0
C248 C 0.38599 0.63893 0.29533 0.0
C249 C 0.37452 0.65199 0.27146 0.0
C250 C 0.30988 0.67767 0.18608 0.0
C251 C 0.2947 0.65146 0.19613 0.0
C252 C 0.14399 0.27831 0.65835 0.0
C253 C 0.11818 0.26233 0.67094 0.0
C254 C 0.10561 0.2727 0.69696 0.0
C255 C 0.11829 0.29866 0.7096 0.0
H256 H 0.10438 0.36527 0.77121 0.0
H257 H 0.08343 0.38913 0.81265 0.0
H258 H 0.16501 0.44837 0.81902 0.0
H259 H 0.18544 0.42525 0.77727 0.0
H260 H 0.2314 0.43223 0.72174 0.0
H261 H 0.27575 0.45658 0.69551 0.0
H262 H 0.26897 0.38927 0.63045 0.0
H263 H 0.22469 0.3652 0.65613 0.0
H264 H 0.17648 0.31546 0.66023 0.0
H265 H 0.15469 0.27087 0.63872 0.0
H266 H 0.08565 0.26101 0.7072 0.0
H267 H 0.10789 0.30613 0.72941 0.0
N268 N 0.146 0.3544 0.73339 0.0
N269 N 0.18474 0.39328 0.73062 0.0
N270 N 0.18319 0.35652 0.69608 0.0
C271 C 0.15938 0.37984 0.74428 0.0
C272 C 0.19678 0.3818 0.70647 0.0
C273 C 0.15794 0.34254 0.70923 0.0
C274 C 0.1466 0.39334 0.77056 0.0
C275 C 0.11786 0.38336 0.7815 0.0
C276 C 0.10586 0.39703 0.80545 0.0
C277 C 0.12233 0.42098 0.81926 0.0
C278 C 0.15126 0.43049 0.80865 0.0
C279 C 0.16312 0.41701 0.78467 0.0
C280 C 0.22423 0.3967 0.6911 0.0
C281 C 0.23934 0.4226 0.70184 0.0
C282 C 0.2649 0.43654 0.68687 0.0
C283 C 0.27592 0.42502 0.66071 0.0
C284 C 0.26091 0.39905 0.65018 0.0
C285 C 0.23551 0.38511 0.66513 0.0
C286 C 0.14397 0.31475 0.69664 0.0
C287 C 0.15664 0.30401 0.67093 0.0
Ho288 Ho 0.02384 0.04256 0.508 0.0
Ho289 Ho 0.99765 1.01594 0.56714 0.0
C290 C 0.037 0.07871 0.5684 0.0
C291 C 0.03895 0.06599 0.45625 0.0
C292 C 0.06423 0.08783 0.44795 0.0
C293 C 0.0628 0.10584 0.4237 0.0
C294 C 0.08691 0.1268 0.41627 0.0
C295 C 0.11278 0.12984 0.43295 0.0
C296 C 0.11389 0.11197 0.45748 0.0
C297 C 0.0898 0.09128 0.46501 0.0
C298 C 0.06038 1.01925 0.54153 0.0
C299 C 0.98477 0.97984 0.50671 0.0
C300 C 0.98241 0.99285 0.61899 0.0
C301 C 0.95876 0.96949 0.628 0.0
C302 C 0.9558 0.94324 0.61387 0.0
C303 C 0.93153 0.92227 0.62057 0.0
C304 C 0.90965 0.92734 0.6411 0.0
C305 C 0.91291 0.95338 0.65559 0.0
C306 C 0.93732 0.9742 0.64923 0.0
C307 C 0.96092 0.03841 0.53313 0.0
O308 O 0.035 0.0796 0.53853 0.0
O309 O 0.02759 0.05536 0.58378 0.0
O310 O 0.04518 0.04214 0.46397 0.0
O311 O 0.01964 0.07379 0.47468 0.0
O312 O 0.06856 0.04181 0.5259 0.0
O313 O 0.03379 1.00967 0.5373 0.0
O314 O 0.98736 0.97878 0.53654 0.0
O315 O 0.99339 1.00343 0.4915 0.0
O316 O 0.97364 1.0151 0.60982 0.0
O317 O 1.00387 0.98693 0.60206 0.0
O318 O 0.953 1.01578 0.54874 0.0
O319 O 0.98739 0.04852 0.53765 0.0
H320 H 0.04313 0.10363 0.41049 0.0
H321 H 0.08557 0.14022 0.39713 0.0
H322 H 0.13338 0.11409 0.47096 0.0
H323 H 0.09124 0.07792 0.48413 0.0
H324 H 0.97181 0.93906 0.59714 0.0
H325 H 0.92945 0.90238 0.60904 0.0
H326 H 0.89653 0.95767 0.67184 0.0
H327 H 0.9391 0.99426 0.66033 0.0
Ho328 Ho 0.54221 0.04378 0.04745 0.0
Ho329 Ho 0.48219 1.02269 1.0249 0.0
C330 C 0.4871 0.06768 0.07629 0.0
C331 C 0.58937 0.07434 0.06804 0.0
C332 C 0.59427 0.08855 0.09744 0.0
C333 C 0.62068 0.10679 0.10331 0.0
C334 C 0.62532 0.11932 0.13197 0.0
C335 C 0.60357 0.11362 0.15504 0.0
C336 C 0.57684 0.0959 0.14864 0.0
C337 C 0.57226 0.08345 0.12012 0.0
C338 C 0.5137 0.99654 0.0751 0.0
C339 C 0.53763 0.99954 0.99521 0.0
C340 C 0.43375 0.99203 1.00734 0.0
C341 C 0.42495 0.97485 0.98046 0.0
C342 C 0.40039 0.95325 0.9822 0.0
C343 C 0.39162 0.93693 0.95661 0.0
C344 C 0.40723 0.94208 0.9288 0.0
C345 C 0.4322 0.96355 0.9274 0.0
C346 C 0.44107 0.97969 0.95306 0.0
C347 C 0.51063 0.07015 0.99758 0.0
O348 O 0.51542 0.07235 0.0698 0.0
O349 O 0.46933 0.04573 0.06531 0.0
O350 O 0.58375 0.04721 0.06946 0.0
O351 O 0.57151 0.08384 0.05029 0.0
O352 O 0.54146 1.00206 0.06881 0.0
O353 O 0.50257 1.01712 0.06826 0.0
O354 O 0.50911 0.99492 1.00097 0.0
O355 O 0.5554 1.02112 1.007 0.0
O356 O 0.44076 1.01884 1.00269 0.0
O357 O 0.45198 0.98306 1.02506 0.0
O358 O 0.48282 0.06456 1.00387 0.0
O359 O 0.52177 0.04951 1.00417 0.0
H360 H 0.63783 0.11097 0.08595 0.0
H361 H 0.64621 0.13273 0.13638 0.0
H362 H 0.55955 0.09142 0.1658 0.0
H363 H 0.55167 0.06944 0.11593 0.0
H364 H 0.38795 0.94907 1.00334 0.0
H365 H 0.37263 0.92027 0.95865 0.0
H366 H 0.44453 0.96836 0.90631 0.0
H367 H 0.4603 0.99616 0.95143 0.0
Ho368 Ho 0.51373 0.509 0.51639 0.0
Ho369 Ho 0.5108 0.55651 0.55685 0.0
C370 C 0.53491 0.50828 0.5873 0.0
C371 C 0.5326 0.46877 0.49015 0.0
C372 C 0.55005 0.45026 0.50384 0.0
C373 C 0.57513 0.4614 0.52046 0.0
C374 C 0.58856 0.44418 0.53805 0.0
C375 C 0.57712 0.4155 0.53952 0.0
C376 C 0.5527 0.40425 0.52197 0.0
C377 C 0.53928 0.42149 0.50431 0.0
C378 C 0.46105 0.50592 0.54427 0.0
C379 C 0.48899 0.55733 0.48592 0.0
C380 C 0.49369 0.59797 0.58241 0.0
C381 C 0.48503 0.62194 0.56751 0.0
C382 C 0.45522 0.62249 0.56456 0.0
C383 C 0.4465 0.64251 0.5465 0.0
C384 C 0.46741 0.66261 0.53127 0.0
C385 C 0.49725 0.66271 0.53499 0.0
C386 C 0.506 0.64251 0.55285 0.0
C387 C 0.56331 0.55944 0.52831 0.0
O388 O 0.5373 0.49961 0.55888 0.0
O389 O 0.52164 0.52914 0.59355 0.0
O390 O 0.50593 0.46613 0.50117 0.0
O391 O 0.54561 0.49482 0.48694 0.0
O392 O 0.46467 0.49872 0.51617 0.0
O393 O 0.48562 0.51369 0.55649 0.0
O394 O 0.48924 0.56771 0.51388 0.0
O395 O 0.49981 0.53487 0.47992 0.0
O396 O 0.52131 0.59628 0.57985 0.0
O397 O 0.47618 0.57397 0.57803 0.0
O398 O 0.56006 0.56693 0.55634 0.0
O399 O 0.53856 0.55183 0.51662 0.0
H400 H 0.58374 0.4836 0.52098 0.0
H401 H 0.60723 0.45351 0.5514 0.0
H402 H 0.54384 0.3821 0.52198 0.0
H403 H 0.51988 0.41249 0.49185 0.0
H404 H 0.43858 0.60694 0.57558 0.0
H405 H 0.42334 0.6424 0.54464 0.0
H406 H 0.5138 0.6781 0.52363 0.0
H407 H 0.52918 0.64264 0.55448 0.0
Ho408 Ho 0.01699 0.50339 0.04777 0.0
Ho409 Ho 0.01086 0.55913 1.02281 0.0
C410 C 0.06963 0.55785 0.05751 0.0
C411 C 0.03554 0.45842 0.06011 0.0
C412 C 0.06281 0.45194 0.07157 0.0
C413 C 0.07178 0.42765 0.0616 0.0
C414 C 0.09816 0.42156 0.07131 0.0
C415 C 0.11603 0.43969 0.09122 0.0
C416 C 0.10697 0.4641 0.1011 0.0
C417 C 0.08062 0.47022 0.09128 0.0
C418 C 0.98738 0.53308 0.08485 0.0
C419 C 0.95817 0.50498 1.01343 0.0
C420 C 0.99276 0.60423 1.01008 0.0
C421 C 0.9649 0.61184 1.00175 0.0
C422 C 0.95498 0.63288 1.01825 0.0
C423 C 0.92873 0.64067 1.01096 0.0
C424 C 0.9119 0.62775 0.98675 0.0
C425 C 0.92176 0.60638 0.97045 0.0
C426 C 0.94795 0.59841 0.97795 0.0
C427 C 0.04037 0.52912 0.98592 0.0
O428 O 0.06169 0.53034 0.0566 0.0
O429 O 0.05217 0.5741 0.04802 0.0
O430 O 0.01987 0.47036 0.07919 0.0
O431 O 0.0376 0.46955 1.03307 0.0
O432 O 0.98088 0.50618 0.08198 0.0
O433 O 0.01005 0.5426 0.06907 0.0
O434 O 0.96578 0.53246 1.01546 0.0
O435 O 0.97606 0.48868 1.02174 0.0
O436 O 1.00537 0.59029 0.99006 0.0
O437 O 0.99373 0.59501 0.03776 0.0
O438 O 0.04717 0.55601 0.98882 0.0
O439 O 0.0176 0.5199 1.0016 0.0
H440 H 0.05839 0.4134 0.04623 0.0
H441 H 0.10434 0.40244 0.06359 0.0
H442 H 0.12041 0.47863 0.11615 0.0
H443 H 0.07423 0.48926 0.09898 0.0
H444 H 0.96757 0.64331 0.03689 0.0
H445 H 0.92158 0.65676 1.02447 0.0
H446 H 0.9096 0.59614 0.95147 0.0
H447 H 0.95496 0.5819 0.96501 0.0
H448 H 0.27852 0.20594 0.35561 0.0
H449 H 0.11596 0.18482 0.41907 0.0
H450 H 0.23737 0.27563 0.37731 0.0
H451 H 0.16913 0.12255 0.42711 0.0
H452 H 0.15969 0.21858 0.40305 0.0
H453 H 0.23904 0.1754 0.38249 0.0
C454 C 0.26163 0.21508 0.36659 0.0
C455 C 0.26136 0.24358 0.36381 0.0
C456 C 0.16179 0.1976 0.40865 0.0
C457 C 0.21519 0.20814 0.3938 0.0
C458 C 0.13685 0.17832 0.4175 0.0
C459 C 0.13897 0.15087 0.42427 0.0
C460 C 0.18888 0.1892 0.4061 0.0
C461 C 0.16658 0.14355 0.42226 0.0
C462 C 0.23883 0.19744 0.38174 0.0
C463 C 0.23825 0.25375 0.37811 0.0
N464 N 0.19039 0.16252 0.41306 0.0
N465 N 0.21585 0.23598 0.39207 0.0
H466 H 0.30222 0.85686 0.7842 0.0
H467 H 0.4403 0.92389 0.88319 0.0
H468 H 0.39003 0.88008 0.74675 0.0
H469 H 0.35071 0.92338 0.911 0.0
H470 H 0.42282 0.90032 0.836 0.0
H471 H 0.32048 0.87341 0.83401 0.0
C472 C 0.32535 0.86534 0.78643 0.0
C473 C 0.34455 0.86736 0.76111 0.0
C474 C 0.40703 0.90524 0.85257 0.0
C475 C 0.3656 0.88598 0.81817 0.0
C476 C 0.41697 0.91883 0.87944 0.0
C477 C 0.39698 0.92588 0.90107 0.0
C478 C 0.37688 0.89845 0.84735 0.0
C479 C 0.36696 0.91815 0.89522 0.0
C480 C 0.33575 0.87468 0.8149 0.0
C481 C 0.37443 0.8779 0.7656 0.0
N482 N 0.35785 0.90495 0.86887 0.0
N483 N 0.38401 0.88698 0.79355 0.0
H484 H 0.60585 0.46584 0.75841 0.0
H485 H 0.55113 0.45732 0.586 0.0
H486 H 0.59923 0.39203 0.7028 0.0
H487 H 0.54568 0.52599 0.64632 0.0
H488 H 0.5711 0.43404 0.62732 0.0
H489 H 0.58624 0.48896 0.71679 0.0
C490 C 0.60042 0.45448 0.73741 0.0
C491 C 0.60434 0.42685 0.73427 0.0
C492 C 0.56558 0.45421 0.63156 0.0
C493 C 0.58158 0.45339 0.68622 0.0
C494 C 0.55437 0.46765 0.60784 0.0
C495 C 0.54694 0.49386 0.61245 0.0
C496 C 0.56956 0.46703 0.66031 0.0
C497 C 0.55106 0.50585 0.64158 0.0
C498 C 0.58903 0.4677 0.71366 0.0
C499 C 0.59639 0.41321 0.70652 0.0
N500 N 0.56214 0.49244 0.66427 0.0
N501 N 0.58555 0.4266 0.68363 0.0
H502 H 0.94243 0.66106 0.20605 0.0
H503 H 0.94235 0.51371 0.12474 0.0
H504 H 0.89481 0.5826 0.24081 0.0
H505 H 1.00287 0.58874 0.0993 0.0
H506 H 0.92215 0.53958 0.16502 0.0
H507 H 0.96273 0.63594 0.16508 0.0
C508 C 0.93629 0.63859 0.20529 0.0
C509 C 0.91665 0.6241 0.22715 0.0
C510 C 0.93981 0.55047 0.15062 0.0
C511 C 0.93962 0.59513 0.17967 0.0
C512 C 0.95132 0.53569 0.12754 0.0
C513 C 0.97433 0.54906 0.10855 0.0
C514 C 0.95122 0.57898 0.15481 0.0
C515 C 0.98504 0.57761 0.11329 0.0
C516 C 0.94782 0.62426 0.18169 0.0
C517 C 0.90933 0.59492 0.22437 0.0
N518 N 0.97341 0.59161 0.1359 0.0
N519 N 0.92071 0.58152 0.20116 0.0
H520 H 0.3769 0.16081 0.17846 0.0
H521 H 0.51611 0.1186 0.0956 0.0
H522 H 0.45283 0.22081 0.14913 0.0
H523 H 0.43093 0.06452 0.09837 0.0
H524 H 0.49535 0.15453 0.12183 0.0
H525 H 0.3984 0.1237 0.15525 0.0
C526 C 0.39816 0.16613 0.16721 0.0
C527 C 0.41315 0.19389 0.16569 0.0
C528 C 0.48123 0.13478 0.11676 0.0
C529 C 0.43785 0.15159 0.13922 0.0
C530 C 0.49308 0.11415 0.10192 0.0
C531 C 0.47518 0.08851 0.09459 0.0
C532 C 0.45133 0.12968 0.12463 0.0
C533 C 0.44551 0.08401 0.10343 0.0
C534 C 0.41033 0.14498 0.15388 0.0
C535 C 0.44047 0.19969 0.15059 0.0
N536 N 0.4345 0.10441 0.11799 0.0
N537 N 0.45203 0.17869 0.13805 0.0
H538 H 0.20825 0.93992 0.54687 0.0
H539 H 0.04657 0.96827 0.56799 0.0
H540 H 0.14062 0.88547 0.59817 0.0
H541 H 0.11998 0.0305 0.53707 0.0
H542 H 0.07998 0.93694 0.57825 0.0
H543 H 0.17508 0.97211 0.54035 0.0
C544 C 0.18625 0.9346 0.55642 0.0
C545 C 0.17704 0.90996 0.57292 0.0
C546 C 0.08881 0.95755 0.56953 0.0
C547 C 0.1392 0.9469 0.56606 0.0
C548 C 0.0698 0.97546 0.56382 0.0
C549 C 0.08063 1.00191 0.55162 0.0
C550 C 0.11876 0.96611 0.56265 0.0
C551 C 0.11082 1.01021 0.54642 0.0
C552 C 0.16747 0.95313 0.55303 0.0
C553 C 0.14854 0.90433 0.58538 0.0
N554 N 0.12885 0.99223 0.55169 0.0
N555 N 0.13055 0.92266 0.58162 0.0
H556 H 0.81281 0.38942 0.93547 0.0
H557 H 0.91557 0.53117 0.99173 0.0
H558 H 0.78994 0.47006 0.92616 0.0
H559 H 0.93531 0.44957 1.00395 0.0
H560 H 0.86966 0.50959 0.96775 0.0
H561 H 0.85772 0.41141 0.96043 0.0
C562 C 0.81706 0.41175 0.93881 0.0
C563 C 0.79723 0.42778 0.92871 0.0
C564 C 0.884 0.49641 0.97576 0.0
C565 C 0.84931 0.45334 0.95719 0.0
C566 C 0.91026 0.50873 0.98954 0.0
C567 C 0.9295 0.49222 0.99999 0.0
C568 C 0.87682 0.46733 0.97226 0.0
C569 C 0.9213 0.46323 0.99634 0.0
C570 C 0.84291 0.42435 0.95298 0.0
C571 C 0.80455 0.45677 0.93321 0.0
N572 N 0.89572 0.45179 0.98279 0.0
N573 N 0.82989 0.46857 0.94712 0.0
H574 H 0.74184 0.62951 0.47454 0.0
H575 H 0.5727 0.55496 0.46673 0.0
H576 H 0.698 0.60663 0.39003 0.0
H577 H 0.61752 0.58073 0.54998 0.0
H578 H 0.61881 0.57055 0.43814 0.0
H579 H 0.69712 0.60881 0.50233 0.0
C580 C 0.72278 0.62016 0.46177 0.0
C581 C 0.72371 0.62015 0.42981 0.0
C582 C 0.61859 0.57265 0.46267 0.0
C583 C 0.67212 0.59604 0.46172 0.0
C584 C 0.59229 0.56371 0.479 0.0
C585 C 0.59126 0.56673 0.51076 0.0
C586 C 0.64405 0.58467 0.47824 0.0
C587 C 0.61728 0.57815 0.5255 0.0
C588 C 0.69722 0.60819 0.47771 0.0
C589 C 0.6984 0.60708 0.41463 0.0
N590 N 0.64251 0.5868 0.50915 0.0
N591 N 0.67362 0.59574 0.43069 0.0
H592 H 0.27878 0.38043 0.10884 0.0
H593 H 0.13711 0.44469 0.149 0.0
H594 H 0.24626 0.39072 0.20015 0.0
H595 H 0.15775 0.41877 0.05842 0.0
H596 H 0.18132 0.43104 0.16719 0.0
H597 H 0.23838 0.3999 0.08911 0.0
C598 C 0.26332 0.38687 0.12477 0.0
C599 C 0.2661 0.38389 0.15627 0.0
C600 C 0.17626 0.42842 0.1433 0.0
C601 C 0.21999 0.40644 0.13381 0.0
C602 C 0.15111 0.43639 0.13287 0.0
C603 C 0.14363 0.43274 0.10217 0.0
C604 C 0.19422 0.4168 0.12291 0.0
C605 C 0.16246 0.42156 0.08237 0.0
C606 C 0.24032 0.39806 0.11347 0.0
C607 C 0.24553 0.39302 0.17575 0.0
N608 N 0.18686 0.41393 0.09308 0.0
N609 N 0.22339 0.40376 0.16421 0.0
H610 H 0.54998 0.23322 0.91352 0.0
H611 H 0.56914 0.08604 0.98161 0.0
H612 H 0.63372 0.20878 0.91923 0.0
H613 H 0.48708 0.11396 0.97989 0.0
H614 H 0.59331 0.12996 0.95749 0.0
H615 H 0.5266 0.18872 0.93593 0.0
C616 C 0.56349 0.21845 0.91921 0.0
C617 C 0.59398 0.225 0.91438 0.0
C618 C 0.57 0.12645 0.96236 0.0
C619 C 0.56717 0.17371 0.94061 0.0
C620 C 0.55622 0.10136 0.97611 0.0
C621 C 0.52603 0.09629 0.98274 0.0
C622 C 0.55347 0.14658 0.9551 0.0
C623 C 0.51037 0.11693 0.97516 0.0
C624 C 0.5501 0.19303 0.93227 0.0
C625 C 0.61023 0.20497 0.92283 0.0
N626 N 0.52421 0.14104 0.96179 0.0
N627 N 0.59668 0.18034 0.93547 0.0
H628 H 0.91428 0.80755 0.46283 0.0
H629 H 0.97958 0.97101 0.4447 0.0
H630 H 0.93043 0.84735 0.37529 0.0
H631 H 0.96308 0.92833 0.53069 0.0
H632 H 0.96185 0.92669 0.41842 0.0
H633 H 0.93268 0.85201 0.48745 0.0
C634 C 0.92164 0.82568 0.44871 0.0
C635 C 0.92047 0.82361 0.41685 0.0
C636 C 0.9621 0.92709 0.44303 0.0
C637 C 0.94196 0.87507 0.44517 0.0
C638 C 0.97214 0.95243 0.45809 0.0
C639 C 0.97289 0.95356 0.49005 0.0
C640 C 0.9527 0.90264 0.46001 0.0
C641 C 0.96301 0.92866 0.50608 0.0
C642 C 0.93229 0.85115 0.46285 0.0
C643 C 0.931 0.84787 0.39988 0.0
N644 N 0.95342 0.90439 0.49094 0.0
N645 N 0.94115 0.87259 0.41423 0.0
H646 H 0.34557 0.75757 0.49314 0.0
H647 H 0.42411 0.65616 0.48921 0.0
H648 H 0.42648 0.81637 0.50517 0.0
H649 H 0.48917 0.71852 0.53198 0.0
H650 H 0.40242 0.69297 0.46769 0.0
H651 H 0.37304 0.72215 0.47956 0.0
C652 C 0.36921 0.76338 0.49164 0.0
C653 C 0.38376 0.78974 0.50124 0.0
C654 C 0.42141 0.69872 0.48175 0.0
C655 C 0.41576 0.74893 0.48605 0.0
C656 C 0.43389 0.67767 0.49388 0.0
C657 C 0.45781 0.68436 0.51321 0.0
C658 C 0.43258 0.72656 0.48972 0.0
C659 C 0.47041 0.71246 0.51761 0.0
C660 C 0.38509 0.74295 0.48389 0.0
C661 C 0.41442 0.79599 0.49889 0.0
N662 N 0.45725 0.73252 0.5065 0.0
N663 N 0.42942 0.7755 0.49239 0.0
H664 H 0.79493 0.79143 0.72605 0.0
H665 H 0.85258 0.93302 0.64132 0.0
H666 H 0.73665 0.83903 0.68614 0.0
H667 H 0.90689 0.87256 0.65505 0.0
H668 H 0.8095 0.89809 0.65584 0.0
H669 H 0.83557 0.81894 0.6975 0.0
C670 C 0.79041 0.80716 0.71074 0.0
C671 C 0.76217 0.81307 0.70894 0.0
C672 C 0.83077 0.89233 0.65532 0.0
C673 C 0.80915 0.8454 0.67687 0.0
C674 C 0.85535 0.9123 0.64727 0.0
C675 C 0.88329 0.90569 0.64738 0.0
C676 C 0.83421 0.86568 0.66403 0.0
C677 C 0.8857 0.87847 0.65476 0.0
C678 C 0.81382 0.82307 0.69459 0.0
C679 C 0.75809 0.83416 0.68897 0.0
N680 N 0.8615 0.85954 0.66323 0.0
N681 N 0.7814 0.84987 0.67413 0.0
H682 H 0.65877 0.214 0.31498 0.0
H683 H 0.59073 0.08556 0.20838 0.0
H684 H 0.64078 0.12828 0.34357 0.0
H685 H 0.6294 0.16654 0.17271 0.0
H686 H 0.60137 0.10309 0.25971 0.0
H687 H 0.64042 0.19902 0.2643 0.0
C688 C 0.65054 0.19211 0.31065 0.0
C689 C 0.65142 0.17226 0.33321 0.0
C690 C 0.60743 0.1171 0.2407 0.0
C691 C 0.63064 0.15508 0.27578 0.0
C692 C 0.60119 0.10716 0.21139 0.0
C693 C 0.60921 0.12464 0.18625 0.0
C694 C 0.62178 0.14478 0.24503 0.0
C695 C 0.62315 0.15232 0.19149 0.0
C696 C 0.64031 0.18357 0.28178 0.0
C697 C 0.64073 0.14415 0.32659 0.0
N698 N 0.62905 0.16157 0.22036 0.0
N699 N 0.63086 0.13639 0.29845 0.0
H700 H 0.42055 0.6007 0.31398 0.0
H701 H 0.47121 0.60774 0.48777 0.0
H702 H 0.4251 0.67386 0.37027 0.0
H703 H 0.47937 0.54026 0.42654 0.0
H704 H 0.45215 0.63136 0.4461 0.0
H705 H 0.43968 0.57748 0.35579 0.0
C706 C 0.42542 0.6119 0.33517 0.0
C707 C 0.42105 0.63937 0.33845 0.0
C708 C 0.4581 0.61138 0.44177 0.0
C709 C 0.44326 0.61271 0.38675 0.0
C710 C 0.46895 0.59779 0.46562 0.0
C711 C 0.47699 0.57184 0.4608 0.0
C712 C 0.45494 0.59894 0.41278 0.0
C713 C 0.47356 0.56019 0.43146 0.0
C714 C 0.43655 0.59862 0.35904 0.0
C715 C 0.42831 0.65282 0.36646 0.0
N716 N 0.46277 0.57374 0.4087 0.0
N717 N 0.43888 0.63936 0.38947 0.0
H718 H 0.08315 0.39967 0.86554 0.0
H719 H 0.08561 0.54783 0.94598 0.0
H720 H 0.13206 0.47747 0.83045 0.0
H721 H 0.02414 0.47352 0.97177 0.0
H722 H 0.10537 0.52143 0.90585 0.0
H723 H 0.06328 0.42537 0.90628 0.0
C724 C 0.08965 0.42212 0.86618 0.0
C725 C 0.10955 0.43625 0.84432 0.0
C726 C 0.08759 0.51082 0.92029 0.0
C727 C 0.08707 0.46588 0.89152 0.0
C728 C 0.07634 0.5259 0.94329 0.0
C729 C 0.0532 0.51288 0.96232 0.0
C730 C 0.07577 0.48237 0.91625 0.0
C731 C 0.04208 0.48438 0.95772 0.0
C732 C 0.07838 0.43678 0.88965 0.0
C733 C 0.11734 0.46542 0.84693 0.0
N734 N 0.05346 0.47009 0.93522 0.0
N735 N 0.10619 0.47914 0.87 0.0
H736 H 0.64618 0.88436 0.93867 0.0
H737 H 0.50827 0.95716 0.95999 0.0
H738 H 0.56695 0.8591 0.88826 0.0
H739 H 0.59492 0.99436 0.98967 0.0
H740 H 0.52842 0.92006 0.93504 0.0
H741 H 0.62657 0.92328 0.96009 0.0
C742 C 0.62455 0.88691 0.9323 0.0
C743 C 0.6081 0.86842 0.91177 0.0
C744 C 0.54304 0.93649 0.94679 0.0
C745 C 0.58562 0.91305 0.93597 0.0
C746 C 0.53157 0.95769 0.96103 0.0
C747 C 0.54993 0.97888 0.97703 0.0
C748 C 0.57301 0.93626 0.94891 0.0
C749 C 0.57995 0.97851 0.97754 0.0
C750 C 0.61348 0.90927 0.9443 0.0
C751 C 0.5804 0.87297 0.90391 0.0
N752 N 0.5905 0.95739 0.96396 0.0
N753 N 0.56994 0.89475 0.91614 0.0
H754 H 0.81223 0.11537 0.53112 0.0
H755 H 0.9736 0.08925 0.50599 0.0
H756 H 0.87489 0.167 0.47172 0.0
H757 H 0.90143 1.02549 0.53653 0.0
H758 H 0.93903 0.11929 0.49478 0.0
H759 H 0.84634 0.08389 0.53661 0.0
C760 C 0.83336 0.1202 0.51951 0.0
C761 C 0.84096 0.14385 0.50116 0.0
C762 C 0.93076 0.09859 0.50357 0.0
C763 C 0.87982 0.10782 0.50694 0.0
C764 C 0.95042 0.08144 0.50987 0.0
C765 C 0.94025 0.05499 0.52232 0.0
C766 C 0.90089 0.08927 0.51025 0.0
C767 C 0.91011 0.04584 0.52707 0.0
C768 C 0.85264 0.10208 0.52234 0.0
C769 C 0.86831 0.14892 0.48608 0.0
N770 N 0.89146 0.06312 0.52137 0.0
N771 N 0.88692 0.13108 0.48945 0.0
H772 H 0.21395 0.6748 0.13526 0.0
H773 H 0.11256 0.53214 0.07943 0.0
H774 H 0.23765 0.59458 0.14523 0.0
H775 H 0.09205 0.61336 0.06674 0.0
H776 H 0.15827 0.55416 0.10351 0.0
H777 H 0.16927 0.65231 0.11022 0.0
C778 C 0.20994 0.65246 0.13204 0.0
C779 C 0.22993 0.63669 0.14236 0.0
C780 C 0.14379 0.56716 0.09539 0.0
C781 C 0.17811 0.61055 0.1138 0.0
C782 C 0.11762 0.55458 0.08159 0.0
C783 C 0.09821 0.57084 0.071 0.0
C784 C 0.15072 0.59626 0.09873 0.0
C785 C 0.10618 0.59988 0.07447 0.0
C786 C 0.18422 0.63957 0.11783 0.0
C787 C 0.22291 0.60766 0.13801 0.0
N788 N 0.13167 0.61157 0.08803 0.0
N789 N 0.19768 0.59558 0.12407 0.0
H790 H 0.32715 0.45443 0.68461 0.0
H791 H 0.4075 0.4842 0.52146 0.0
H792 H 0.28615 0.42957 0.59905 0.0
H793 H 0.45068 0.50828 0.606 0.0
H794 H 0.36201 0.46682 0.54983 0.0
H795 H 0.37155 0.47687 0.65671 0.0
C796 C 0.32735 0.45386 0.65998 0.0
C797 C 0.30282 0.43985 0.64423 0.0
C798 C 0.38134 0.47601 0.56226 0.0
C799 C 0.35378 0.46539 0.6121 0.0
C800 C 0.40735 0.48599 0.54603 0.0
C801 C 0.43296 0.49755 0.56139 0.0
C802 C 0.38083 0.47749 0.59421 0.0
C803 C 0.43143 0.49943 0.59326 0.0
C804 C 0.3528 0.46657 0.64406 0.0
C805 C 0.3046 0.43963 0.61227 0.0
N806 N 0.40586 0.48935 0.60864 0.0
N807 N 0.32956 0.4521 0.59736 0.0
H808 H 0.78198 0.72645 0.94989 0.0
H809 H 0.86031 0.59608 0.96628 0.0
H810 H 0.75054 0.64725 0.90651 0.0
H811 H 0.9012 0.68087 0.98733 0.0
H812 H 0.8166 0.61252 0.95069 0.0
H813 H 0.8218 0.70767 0.97146 0.0
C814 C 0.78314 0.70493 0.94533 0.0
C815 C 0.76293 0.68841 0.9263 0.0
C816 C 0.83514 0.62745 0.95887 0.0
C817 C 0.80881 0.6669 0.95054 0.0
C818 C 0.8602 0.61813 0.9676 0.0
C819 C 0.88465 0.63709 0.97812 0.0
C820 C 0.83439 0.6559 0.96086 0.0
C821 C 0.88285 0.66535 0.97987 0.0
C822 C 0.80607 0.69431 0.95741 0.0
C823 C 0.76584 0.66079 0.9208 0.0
N824 N 0.85822 0.67386 0.97132 0.0
N825 N 0.78844 0.65092 0.93278 0.0
H826 H 0.47523 0.83364 0.1595 0.0
H827 H 0.45523 0.98064 0.09155 0.0
H828 H 0.39116 0.85735 0.15338 0.0
H829 H 0.53739 0.95285 0.09278 0.0
H830 H 0.43125 0.93667 0.11574 0.0
H831 H 0.49834 0.87827 0.13724 0.0
C832 C 0.46159 0.84828 0.15375 0.0
C833 C 0.43109 0.84148 0.15842 0.0
C834 C 0.45454 0.94023 0.11074 0.0
C835 C 0.4576 0.89294 0.13236 0.0
C836 C 0.46821 0.96533 0.09694 0.0
C837 C 0.49836 0.97045 0.09011 0.0
C838 C 0.47116 0.92012 0.11788 0.0
C839 C 0.51411 0.94985 0.09762 0.0
C840 C 0.47483 0.87378 0.14078 0.0
C841 C 0.41467 0.86136 0.14991 0.0
N842 N 0.50038 0.92574 0.11105 0.0
N843 N 0.42808 0.88608 0.13735 0.0
H844 H 0.11238 0.25043 0.61013 0.0
H845 H 0.04106 0.08836 0.63043 0.0
H846 H 0.09295 0.21235 0.69824 0.0
H847 H 0.06091 0.12948 0.5439 0.0
H848 H 0.05979 0.13278 0.65618 0.0
H849 H 0.09313 0.20586 0.58613 0.0
C850 C 0.10415 0.23265 0.62452 0.0
C851 C 0.10463 0.23525 0.65636 0.0
C852 C 0.06005 0.13201 0.63157 0.0
C853 C 0.0821 0.18367 0.62873 0.0
C854 C 0.04944 0.10661 0.61682 0.0
C855 C 0.04933 0.10502 0.58486 0.0
C856 C 0.07069 0.15604 0.61427 0.0
C857 C 0.06041 0.1295 0.56853 0.0
C858 C 0.093 0.20712 0.61072 0.0
C859 C 0.09295 0.21144 0.67364 0.0
N860 N 0.07055 0.15383 0.58336 0.0
N861 N 0.08232 0.18665 0.65963 0.0
H862 H 0.69787 0.31685 0.57907 0.0
H863 H 0.55033 0.37165 0.57501 0.0
H864 H 0.61203 0.26492 0.58905 0.0
H865 H 0.6356 0.4179 0.54803 0.0
H866 H 0.57378 0.33715 0.59904 0.0
H867 H 0.67662 0.35768 0.58898 0.0
C868 C 0.67468 0.31388 0.5845 0.0
C869 C 0.65648 0.28753 0.58217 0.0
C870 C 0.58734 0.35517 0.5884 0.0
C871 C 0.63197 0.33426 0.59249 0.0
C872 C 0.57399 0.3747 0.5744 0.0
C873 C 0.59101 0.39718 0.55859 0.0
C874 C 0.61789 0.35811 0.58641 0.0
C875 C 0.62157 0.40073 0.55959 0.0
C876 C 0.66251 0.3373 0.58986 0.0
C877 C 0.62665 0.28502 0.58959 0.0
N878 N 0.63401 0.38109 0.57273 0.0
N879 N 0.61514 0.30821 0.59358 0.0
loop_
_geom_bond_atom_site_label_1
_geom_bond_atom_site_label_2
_geom_bond_distance
_geom_bond_site_symmetry_2
_ccdc_geom_bond_type
C0 C1 1.384 . S
C0 H13 0.947 . S
C0 C35 1.382 . S
C1 C0 1.384 . S
C1 C2 1.378 . S
C2 C1 1.378 . S
C2 C3 1.378 . S
C2 H14 0.952 . S
C3 C2 1.378 . S
C3 H15 0.950 . S
C3 C34 1.383 . S
H4 C23 0.947 . S
H5 C24 0.946 . S
H6 C26 0.953 . S
H7 C27 0.945 . S
H8 C29 0.952 . S
H9 C30 0.949 . S
H10 C32 0.950 . S
H11 C33 0.948 . S
H12 C35 0.951 . S
H13 C0 0.947 . S
H14 C2 0.952 . S
H15 C3 0.950 . S
N16 C19 1.382 . S
N16 C21 1.363 . S
N17 C19 1.371 . S
N17 C20 1.372 . S
N18 C20 1.361 . S
N18 C21 1.377 . S
C19 N16 1.382 . S
C19 N17 1.371 . S
C19 C22 1.480 . S
C20 N17 1.372 . S
C20 N18 1.361 . S
C20 C28 1.457 . S
C21 N16 1.363 . S
C21 N18 1.377 . S
C21 C34 1.479 . S
C22 C19 1.480 . S
C22 C23 1.383 . S
C22 C27 1.385 . S
C23 H4 0.947 . S
C23 C22 1.383 . S
C23 C24 1.388 . S
C24 H5 0.946 . S
C24 C23 1.388 . S
C24 C25 1.384 . S
C25 C24 1.384 . S
C25 C26 1.377 . S
C26 H6 0.953 . S
C26 C25 1.377 . S
C26 C27 1.369 . S
C27 H7 0.945 . S
C27 C22 1.385 . S
C27 C26 1.369 . S
C28 C20 1.457 . S
C28 C29 1.372 . S
C28 C33 1.364 . S
C29 H8 0.952 . S
C29 C28 1.372 . S
C29 C30 1.389 . S
C30 H9 0.949 . S
C30 C29 1.389 . S
C30 C31 1.387 . S
C31 C30 1.387 . S
C31 C32 1.372 . S
C32 H10 0.950 . S
C32 C31 1.372 . S
C32 C33 1.379 . S
C33 H11 0.948 . S
C33 C28 1.364 . S
C33 C32 1.379 . S
C34 C3 1.383 . S
C34 C21 1.479 . S
C34 C35 1.398 . S
C35 C0 1.382 . S
C35 H12 0.951 . S
C35 C34 1.398 . S
C36 C37 1.384 . S
C36 H49 0.947 . S
C36 C71 1.382 . S
C37 C36 1.384 . S
C37 C38 1.378 . S
C38 C37 1.378 . S
C38 C39 1.378 . S
C38 H50 0.952 . S
C39 C38 1.378 . S
C39 H51 0.950 . S
C39 C70 1.383 . S
H40 C59 0.947 . S
H41 C60 0.946 . S
H42 C62 0.953 . S
H43 C63 0.945 . S
H44 C65 0.952 . S
H45 C66 0.949 . S
H46 C68 0.950 . S
H47 C69 0.948 . S
H48 C71 0.951 . S
H49 C36 0.947 . S
H50 C38 0.952 . S
H51 C39 0.950 . S
N52 C55 1.382 . S
N52 C57 1.363 . S
N53 C55 1.371 . S
N53 C56 1.372 . S
N54 C56 1.361 . S
N54 C57 1.377 . S
C55 N52 1.382 . S
C55 N53 1.371 . S
C55 C58 1.480 . S
C56 N53 1.372 . S
C56 N54 1.361 . S
C56 C64 1.457 . S
C57 N52 1.363 . S
C57 N54 1.377 . S
C57 C70 1.479 . S
C58 C55 1.480 . S
C58 C59 1.383 . S
C58 C63 1.385 . S
C59 H40 0.947 . S
C59 C58 1.383 . S
C59 C60 1.388 . S
C60 H41 0.946 . S
C60 C59 1.388 . S
C60 C61 1.384 . S
C61 C60 1.384 . S
C61 C62 1.377 . S
C62 H42 0.953 . S
C62 C61 1.377 . S
C62 C63 1.369 . S
C63 H43 0.945 . S
C63 C58 1.385 . S
C63 C62 1.369 . S
C64 C56 1.457 . S
C64 C65 1.372 . S
C64 C69 1.364 . S
C65 H44 0.952 . S
C65 C64 1.372 . S
C65 C66 1.389 . S
C66 H45 0.949 . S
C66 C65 1.389 . S
C66 C67 1.387 . S
C67 C66 1.387 . S
C67 C68 1.372 . S
C68 H46 0.950 . S
C68 C67 1.372 . S
C68 C69 1.379 . S
C69 H47 0.948 . S
C69 C64 1.364 . S
C69 C68 1.379 . S
C70 C39 1.383 . S
C70 C57 1.479 . S
C70 C71 1.398 . S
C71 C36 1.382 . S
C71 H48 0.951 . S
C71 C70 1.398 . S
C72 C73 1.384 . S
C72 H85 0.947 . S
C72 C107 1.382 . S
C73 C72 1.384 . S
C73 C74 1.378 . S
C74 C73 1.378 . S
C74 C75 1.378 . S
C74 H86 0.952 . S
C75 C74 1.378 . S
C75 H87 0.950 . S
C75 C106 1.383 . S
H76 C95 0.947 . S
H77 C96 0.946 . S
H78 C98 0.953 . S
H79 C99 0.945 . S
H80 C101 0.952 . S
H81 C102 0.949 . S
H82 C104 0.950 . S
H83 C105 0.948 . S
H84 C107 0.951 . S
H85 C72 0.947 . S
H86 C74 0.952 . S
H87 C75 0.950 . S
N88 C91 1.382 . S
N88 C93 1.363 . S
N89 C91 1.371 . S
N89 C92 1.372 . S
N90 C92 1.361 . S
N90 C93 1.377 . S
C91 N88 1.382 . S
C91 N89 1.371 . S
C91 C94 1.480 . S
C92 N89 1.372 . S
C92 N90 1.361 . S
C92 C100 1.457 . S
C93 N88 1.363 . S
C93 N90 1.377 . S
C93 C106 1.479 . S
C94 C91 1.480 . S
C94 C95 1.383 . S
C94 C99 1.385 . S
C95 H76 0.947 . S
C95 C94 1.383 . S
C95 C96 1.388 . S
C96 H77 0.946 . S
C96 C95 1.388 . S
C96 C97 1.384 . S
C97 C96 1.384 . S
C97 C98 1.377 . S
C98 H78 0.953 . S
C98 C97 1.377 . S
C98 C99 1.369 . S
C99 H79 0.945 . S
C99 C94 1.385 . S
C99 C98 1.369 . S
C100 C92 1.457 . S
C100 C101 1.372 . S
C100 C105 1.364 . S
C101 H80 0.952 . S
C101 C100 1.372 . S
C101 C102 1.389 . S
C102 H81 0.949 . S
C102 C101 1.389 . S
C102 C103 1.387 . S
C103 C102 1.387 . S
C103 C104 1.372 . S
C104 H82 0.950 . S
C104 C103 1.372 . S
C104 C105 1.379 . S
C105 H83 0.948 . S
C105 C100 1.364 . S
C105 C104 1.379 . S
C106 C75 1.383 . S
C106 C93 1.479 . S
C106 C107 1.398 . S
C107 C72 1.382 . S
C107 H84 0.951 . S
C107 C106 1.398 . S
C108 C109 1.384 . S
C108 H121 0.947 . S
C108 C143 1.382 . S
C109 C108 1.384 . S
C109 C110 1.378 . S
C110 C109 1.378 . S
C110 C111 1.378 . S
C110 H122 0.952 . S
C111 C110 1.378 . S
C111 H123 0.950 . S
C111 C142 1.383 . S
H112 C131 0.947 . S
H113 C132 0.946 . S
H114 C134 0.953 . S
H115 C135 0.945 . S
H116 C137 0.952 . S
H117 C138 0.949 . S
H118 C140 0.950 . S
H119 C141 0.948 . S
H120 C143 0.951 . S
H121 C108 0.947 . S
H122 C110 0.952 . S
H123 C111 0.950 . S
N124 C127 1.382 . S
N124 C129 1.363 . S
N125 C127 1.371 . S
N125 C128 1.372 . S
N126 C128 1.361 . S
N126 C129 1.377 . S
C127 N124 1.382 . S
C127 N125 1.371 . S
C127 C130 1.480 . S
C128 N125 1.372 . S
C128 N126 1.361 . S
C128 C136 1.457 . S
C129 N124 1.363 . S
C129 N126 1.377 . S
C129 C142 1.479 . S
C130 C127 1.480 . S
C130 C131 1.383 . S
C130 C135 1.385 . S
C131 H112 0.947 . S
C131 C130 1.383 . S
C131 C132 1.388 . S
C132 H113 0.946 . S
C132 C131 1.388 . S
C132 C133 1.384 . S
C133 C132 1.384 . S
C133 C134 1.377 . S
C134 H114 0.953 . S
C134 C133 1.377 . S
C134 C135 1.369 . S
C135 H115 0.945 . S
C135 C130 1.385 . S
C135 C134 1.369 . S
C136 C128 1.457 . S
C136 C137 1.372 . S
C136 C141 1.364 . S
C137 H116 0.952 . S
C137 C136 1.372 . S
C137 C138 1.389 . S
C138 H117 0.949 . S
C138 C137 1.389 . S
C138 C139 1.387 . S
C139 C138 1.387 . S
C139 C140 1.372 . S
C140 H118 0.950 . S
C140 C139 1.372 . S
C140 C141 1.379 . S
C141 H119 0.948 . S
C141 C136 1.364 . S
C141 C140 1.379 . S
C142 C111 1.383 . S
C142 C129 1.479 . S
C142 C143 1.398 . S
C143 C108 1.382 . S
C143 H120 0.951 . S
C143 C142 1.398 . S
C144 C145 1.384 . S
C144 H157 0.947 . S
C144 C179 1.382 . S
C145 C144 1.384 . S
C145 C146 1.378 . S
C146 C145 1.378 . S
C146 C147 1.378 . S
C146 H158 0.952 . S
C147 C146 1.378 . S
C147 H159 0.950 . S
C147 C178 1.383 . S
H148 C167 0.947 . S
H149 C168 0.946 . S
H150 C170 0.953 . S
H151 C171 0.945 . S
H152 C173 0.952 . S
H153 C174 0.949 . S
H154 C176 0.950 . S
H155 C177 0.948 . S
H156 C179 0.951 . S
H157 C144 0.947 . S
H158 C146 0.952 . S
H159 C147 0.950 . S
N160 C163 1.382 . S
N160 C165 1.363 . S
N161 C163 1.371 . S
N161 C164 1.372 . S
N162 C164 1.361 . S
N162 C165 1.377 . S
C163 N160 1.382 . S
C163 N161 1.371 . S
C163 C166 1.480 . S
C164 N161 1.372 . S
C164 N162 1.361 . S
C164 C172 1.457 . S
C165 N160 1.363 . S
C165 N162 1.377 . S
C165 C178 1.479 . S
C166 C163 1.480 . S
C166 C167 1.383 . S
C166 C171 1.385 . S
C167 H148 0.947 . S
C167 C166 1.383 . S
C167 C168 1.388 . S
C168 H149 0.946 . S
C168 C167 1.388 . S
C168 C169 1.384 . S
C169 C168 1.384 . S
C169 C170 1.377 . S
C170 H150 0.953 . S
C170 C169 1.377 . S
C170 C171 1.369 . S
C171 H151 0.945 . S
C171 C166 1.385 . S
C171 C170 1.369 . S
C172 C164 1.457 . S
C172 C173 1.372 . S
C172 C177 1.364 . S
C173 H152 0.952 . S
C173 C172 1.372 . S
C173 C174 1.389 . S
C174 H153 0.949 . S
C174 C173 1.389 . S
C174 C175 1.387 . S
C175 C174 1.387 . S
C175 C176 1.372 . S
C176 H154 0.950 . S
C176 C175 1.372 . S
C176 C177 1.379 . S
C177 H155 0.948 . S
C177 C172 1.364 . S
C177 C176 1.379 . S
C178 C147 1.383 . S
C178 C165 1.479 . S
C178 C179 1.398 . S
C179 C144 1.382 . S
C179 H156 0.951 . S
C179 C178 1.398 . S
C180 C181 1.384 . S
C180 H193 0.947 . S
C180 C215 1.382 . S
C181 C180 1.384 . S
C181 C182 1.378 . S
C182 C181 1.378 . S
C182 C183 1.378 . S
C182 H194 0.952 . S
C183 C182 1.378 . S
C183 H195 0.950 . S
C183 C214 1.383 . S
H184 C203 0.947 . S
H185 C204 0.946 . S
H186 C206 0.953 . S
H187 C207 0.945 . S
H188 C209 0.952 . S
H189 C210 0.949 . S
H190 C212 0.950 . S
H191 C213 0.948 . S
H192 C215 0.951 . S
H193 C180 0.947 . S
H194 C182 0.952 . S
H195 C183 0.950 . S
N196 C199 1.382 . S
N196 C201 1.363 . S
N197 C199 1.371 . S
N197 C200 1.372 . S
N198 C200 1.361 . S
N198 C201 1.377 . S
C199 N196 1.382 . S
C199 N197 1.371 . S
C199 C202 1.480 . S
C200 N197 1.372 . S
C200 N198 1.361 . S
C200 C208 1.457 . S
C201 N196 1.363 . S
C201 N198 1.377 . S
C201 C214 1.479 . S
C202 C199 1.480 . S
C202 C203 1.383 . S
C202 C207 1.385 . S
C203 H184 0.947 . S
C203 C202 1.383 . S
C203 C204 1.388 . S
C204 H185 0.946 . S
C204 C203 1.388 . S
C204 C205 1.384 . S
C205 C204 1.384 . S
C205 C206 1.377 . S
C206 H186 0.953 . S
C206 C205 1.377 . S
C206 C207 1.369 . S
C207 H187 0.945 . S
C207 C202 1.385 . S
C207 C206 1.369 . S
C208 C200 1.457 . S
C208 C209 1.372 . S
C208 C213 1.364 . S
C209 H188 0.952 . S
C209 C208 1.372 . S
C209 C210 1.389 . S
C210 H189 0.949 . S
C210 C209 1.389 . S
C210 C211 1.387 . S
C211 C210 1.387 . S
C211 C212 1.372 . S
C212 H190 0.950 . S
C212 C211 1.372 . S
C212 C213 1.379 . S
C213 H191 0.948 . S
C213 C208 1.364 . S
C213 C212 1.379 . S
C214 C183 1.383 . S
C214 C201 1.479 . S
C214 C215 1.398 . S
C215 C180 1.382 . S
C215 H192 0.951 . S
C215 C214 1.398 . S
C216 C217 1.384 . S
C216 H229 0.947 . S
C216 C251 1.382 . S
C217 C216 1.384 . S
C217 C218 1.378 . S
C218 C217 1.378 . S
C218 C219 1.378 . S
C218 H230 0.952 . S
C219 C218 1.378 . S
C219 H231 0.950 . S
C219 C250 1.383 . S
H220 C239 0.947 . S
H221 C240 0.946 . S
H222 C242 0.953 . S
H223 C243 0.945 . S
H224 C245 0.952 . S
H225 C246 0.949 . S
H226 C248 0.950 . S
H227 C249 0.948 . S
H228 C251 0.951 . S
H229 C216 0.947 . S
H230 C218 0.952 . S
H231 C219 0.950 . S
N232 C235 1.382 . S
N232 C237 1.363 . S
N233 C235 1.371 . S
N233 C236 1.372 . S
N234 C236 1.361 . S
N234 C237 1.377 . S
C235 N232 1.382 . S
C235 N233 1.371 . S
C235 C238 1.480 . S
C236 N233 1.372 . S
C236 N234 1.361 . S
C236 C244 1.457 . S
C237 N232 1.363 . S
C237 N234 1.377 . S
C237 C250 1.479 . S
C238 C235 1.480 . S
C238 C239 1.383 . S
C238 C243 1.385 . S
C239 H220 0.947 . S
C239 C238 1.383 . S
C239 C240 1.388 . S
C240 H221 0.946 . S
C240 C239 1.388 . S
C240 C241 1.384 . S
C241 C240 1.384 . S
C241 C242 1.377 . S
C242 H222 0.953 . S
C242 C241 1.377 . S
C242 C243 1.369 . S
C243 H223 0.945 . S
C243 C238 1.385 . S
C243 C242 1.369 . S
C244 C236 1.457 . S
C244 C245 1.372 . S
C244 C249 1.364 . S
C245 H224 0.952 . S
C245 C244 1.372 . S
C245 C246 1.389 . S
C246 H225 0.949 . S
C246 C245 1.389 . S
C246 C247 1.387 . S
C247 C246 1.387 . S
C247 C248 1.372 . S
C248 H226 0.950 . S
C248 C247 1.372 . S
C248 C249 1.379 . S
C249 H227 0.948 . S
C249 C244 1.364 . S
C249 C248 1.379 . S
C250 C219 1.383 . S
C250 C237 1.479 . S
C250 C251 1.398 . S
C251 C216 1.382 . S
C251 H228 0.951 . S
C251 C250 1.398 . S
C252 C253 1.384 . S
C252 H265 0.947 . S
C252 C287 1.382 . S
C253 C252 1.384 . S
C253 C254 1.378 . S
C254 C253 1.378 . S
C254 C255 1.378 . S
C254 H266 0.952 . S
C255 C254 1.378 . S
C255 H267 0.950 . S
C255 C286 1.383 . S
H256 C275 0.947 . S
H257 C276 0.946 . S
H258 C278 0.953 . S
H259 C279 0.945 . S
H260 C281 0.952 . S
H261 C282 0.949 . S
H262 C284 0.950 . S
H263 C285 0.948 . S
H264 C287 0.951 . S
H265 C252 0.947 . S
H266 C254 0.952 . S
H267 C255 0.950 . S
N268 C271 1.382 . S
N268 C273 1.363 . S
N269 C271 1.371 . S
N269 C272 1.372 . S
N270 C272 1.361 . S
N270 C273 1.377 . S
C271 N268 1.382 . S
C271 N269 1.371 . S
C271 C274 1.480 . S
C272 N269 1.372 . S
C272 N270 1.361 . S
C272 C280 1.457 . S
C273 N268 1.363 . S
C273 N270 1.377 . S
C273 C286 1.479 . S
C274 C271 1.480 . S
C274 C275 1.383 . S
C274 C279 1.385 . S
C275 H256 0.947 . S
C275 C274 1.383 . S
C275 C276 1.388 . S
C276 H257 0.946 . S
C276 C275 1.388 . S
C276 C277 1.384 . S
C277 C276 1.384 . S
C277 C278 1.377 . S
C278 H258 0.953 . S
C278 C277 1.377 . S
C278 C279 1.369 . S
C279 H259 0.945 . S
C279 C274 1.385 . S
C279 C278 1.369 . S
C280 C272 1.457 . S
C280 C281 1.372 . S
C280 C285 1.364 . S
C281 H260 0.952 . S
C281 C280 1.372 . S
C281 C282 1.389 . S
C282 H261 0.949 . S
C282 C281 1.389 . S
C282 C283 1.387 . S
C283 C282 1.387 . S
C283 C284 1.372 . S
C284 H262 0.950 . S
C284 C283 1.372 . S
C284 C285 1.379 . S
C285 H263 0.948 . S
C285 C280 1.364 . S
C285 C284 1.379 . S
C286 C255 1.383 . S
C286 C273 1.479 . S
C286 C287 1.398 . S
C287 C252 1.382 . S
C287 H264 0.951 . S
C287 C286 1.398 . S
Ho288 C291 2.811 . S
Ho288 O308 2.322 . S
Ho288 O310 2.378 . S
Ho288 O311 2.524 . S
Ho288 O312 2.381 1_545 S
Ho288 O313 2.669 1_545 S
Ho288 O315 2.346 1_445 S
Ho288 O319 2.305 1_455 S
Ho289 C300 2.811 . S
Ho289 O309 2.346 1_665 S
Ho289 O313 2.305 1_655 S
Ho289 O314 2.322 . S
Ho289 O316 2.378 . S
Ho289 O317 2.524 . S
Ho289 O318 2.381 1_565 S
Ho289 O319 2.669 1_565 S
C290 O308 1.259 . S
C290 O309 1.268 . S
C291 Ho288 2.811 . S
C291 C292 1.488 . S
C291 O310 1.215 . S
C291 O311 1.289 . S
C292 C291 1.488 . S
C292 C293 1.348 . S
C292 C297 1.413 . S
C293 C292 1.348 . S
C293 C294 1.442 . S
C293 H320 0.930 . S
C294 C293 1.442 . S
C294 C295 1.381 . S
C294 H321 0.931 . S
C295 C294 1.381 . S
C295 C296 1.321 . S
C296 C295 1.321 . S
C296 C297 1.403 . S
C296 H322 0.934 . S
C297 C292 1.413 . S
C297 C296 1.403 . S
C297 H323 0.930 . S
C298 O312 1.275 . S
C298 O313 1.256 . S
C299 O314 1.259 . S
C299 O315 1.268 . S
C300 Ho289 2.811 . S
C300 C301 1.488 . S
C300 O316 1.215 . S
C300 O317 1.289 . S
C301 C300 1.488 . S
C301 C302 1.348 . S
C301 C306 1.413 . S
C302 C301 1.348 . S
C302 C303 1.442 . S
C302 H324 0.930 . S
C303 C302 1.442 . S
C303 C304 1.381 . S
C303 H325 0.931 . S
C304 C303 1.381 . S
C304 C305 1.321 . S
C305 C304 1.321 . S
C305 C306 1.403 . S
C305 H326 0.934 . S
C306 C301 1.413 . S
C306 C305 1.403 . S
C306 H327 0.930 . S
C307 O318 1.275 . S
C307 O319 1.256 . S
O308 Ho288 2.322 . S
O308 C290 1.259 . S
O309 Ho289 2.346 1_445 S
O309 C290 1.268 . S
O310 Ho288 2.378 . S
O310 C291 1.215 . S
O311 Ho288 2.524 . S
O311 C291 1.289 . S
O312 Ho288 2.381 1_565 S
O312 C298 1.275 . S
O313 Ho288 2.669 1_565 S
O313 Ho289 2.305 1_455 S
O313 C298 1.256 . S
O314 Ho289 2.322 . S
O314 C299 1.259 . S
O315 Ho288 2.346 1_665 S
O315 C299 1.268 . S
O316 Ho289 2.378 . S
O316 C300 1.215 . S
O317 Ho289 2.524 . S
O317 C300 1.289 . S
O318 Ho289 2.381 1_545 S
O318 C307 1.275 . S
O319 Ho288 2.305 1_655 S
O319 Ho289 2.669 1_545 S
O319 C307 1.256 . S
H320 C293 0.930 . S
H321 C294 0.931 . S
H322 C296 0.934 . S
H323 C297 0.930 . S
H324 C302 0.930 . S
H325 C303 0.931 . S
H326 C305 0.934 . S
H327 C306 0.930 . S
Ho328 C331 2.808 1_565 S
Ho328 O348 2.319 1_565 S
Ho328 O350 2.377 1_565 S
Ho328 O351 2.519 1_565 S
Ho328 O352 2.385 . S
Ho328 O353 2.671 . S
Ho328 O355 2.349 1_554 S
Ho328 O359 2.301 1_564 S
Ho329 C340 2.811 1_545 S
Ho329 O349 2.346 1_556 S
Ho329 O353 2.305 1_546 S
Ho329 O354 2.322 1_545 S
Ho329 O356 2.378 1_545 S
Ho329 O357 2.524 1_545 S
Ho329 O358 2.381 . S
Ho329 O359 2.669 . S
C330 O348 1.259 . S
C330 O349 1.268 . S
C331 Ho328 2.808 1_545 S
C331 C332 1.488 . S
C331 O350 1.215 . S
C331 O351 1.289 . S
C332 C331 1.488 . S
C332 C333 1.348 . S
C332 C337 1.413 . S
C333 C332 1.348 . S
C333 C334 1.442 . S
C333 H360 0.930 . S
C334 C333 1.442 . S
C334 C335 1.381 . S
C334 H361 0.931 . S
C335 C334 1.381 . S
C335 C336 1.321 . S
C336 C335 1.321 . S
C336 C337 1.403 . S
C336 H362 0.934 . S
C337 C332 1.413 . S
C337 C336 1.403 . S
C337 H363 0.930 . S
C338 O352 1.275 . S
C338 O353 1.256 . S
C339 O354 1.259 . S
C339 O355 1.268 . S
C340 Ho329 2.811 1_565 S
C340 C341 1.488 . S
C340 O356 1.215 . S
C340 O357 1.289 . S
C341 C340 1.488 . S
C341 C342 1.348 . S
C341 C346 1.413 . S
C342 C341 1.348 . S
C342 C343 1.442 . S
C342 H364 0.930 . S
C343 C342 1.442 . S
C343 C344 1.381 . S
C343 H365 0.931 . S
C344 C343 1.381 . S
C344 C345 1.321 . S
C345 C344 1.321 . S
C345 C346 1.403 . S
C345 H366 0.934 . S
C346 C341 1.413 . S
C346 C345 1.403 . S
C346 H367 0.930 . S
C347 O358 1.275 . S
C347 O359 1.256 . S
O348 Ho328 2.319 1_545 S
O348 C330 1.259 . S
O349 Ho329 2.346 1_554 S
O349 C330 1.268 . S
O350 Ho328 2.377 1_545 S
O350 C331 1.215 . S
O351 Ho328 2.519 1_545 S
O351 C331 1.289 . S
O352 Ho328 2.385 . S
O352 C338 1.275 . S
O353 Ho328 2.671 . S
O353 Ho329 2.305 1_564 S
O353 C338 1.256 . S
O354 Ho329 2.322 1_565 S
O354 C339 1.259 . S
O355 Ho328 2.349 1_556 S
O355 C339 1.268 . S
O356 Ho329 2.378 1_565 S
O356 C340 1.215 . S
O357 Ho329 2.524 1_565 S
O357 C340 1.289 . S
O358 Ho329 2.381 . S
O358 C347 1.275 . S
O359 Ho328 2.301 1_546 S
O359 Ho329 2.669 . S
O359 C347 1.256 . S
H360 C333 0.930 . S
H361 C334 0.931 . S
H362 C336 0.934 . S
H363 C337 0.930 . S
H364 C342 0.930 . S
H365 C343 0.931 . S
H366 C345 0.934 . S
H367 C346 0.930 . S
Ho368 C371 2.811 . S
Ho368 O388 2.322 . S
Ho368 O390 2.378 . S
Ho368 O391 2.524 . S
Ho368 O392 2.381 . S
Ho368 O393 2.669 . S
Ho368 O395 2.346 . S
Ho368 O399 2.305 . S
Ho369 C380 2.811 . S
Ho369 O389 2.346 . S
Ho369 O393 2.305 . S
Ho369 O394 2.322 . S
Ho369 O396 2.378 . S
Ho369 O397 2.524 . S
Ho369 O398 2.381 . S
Ho369 O399 2.669 . S
C370 O388 1.259 . S
C370 O389 1.268 . S
C371 Ho368 2.811 . S
C371 C372 1.488 . S
C371 O390 1.215 . S
C371 O391 1.289 . S
C372 C371 1.488 . S
C372 C373 1.348 . S
C372 C377 1.413 . S
C373 C372 1.348 . S
C373 C374 1.442 . S
C373 H400 0.930 . S
C374 C373 1.442 . S
C374 C375 1.381 . S
C374 H401 0.931 . S
C375 C374 1.381 . S
C375 C376 1.321 . S
C376 C375 1.321 . S
C376 C377 1.403 . S
C376 H402 0.934 . S
C377 C372 1.413 . S
C377 C376 1.403 . S
C377 H403 0.930 . S
C378 O392 1.275 . S
C378 O393 1.256 . S
C379 O394 1.259 . S
C379 O395 1.268 . S
C380 Ho369 2.811 . S
C380 C381 1.488 . S
C380 O396 1.215 . S
C380 O397 1.289 . S
C381 C380 1.488 . S
C381 C382 1.348 . S
C381 C386 1.413 . S
C382 C381 1.348 . S
C382 C383 1.442 . S
C382 H404 0.930 . S
C383 C382 1.442 . S
C383 C384 1.381 . S
C383 H405 0.931 . S
C384 C383 1.381 . S
C384 C385 1.321 . S
C385 C384 1.321 . S
C385 C386 1.403 . S
C385 H406 0.934 . S
C386 C381 1.413 . S
C386 C385 1.403 . S
C386 H407 0.930 . S
C387 O398 1.275 . S
C387 O399 1.256 . S
O388 Ho368 2.322 . S
O388 C370 1.259 . S
O389 Ho369 2.346 . S
O389 C370 1.268 . S
O390 Ho368 2.378 . S
O390 C371 1.215 . S
O391 Ho368 2.524 . S
O391 C371 1.289 . S
O392 Ho368 2.381 . S
O392 C378 1.275 . S
O393 Ho368 2.669 . S
O393 Ho369 2.305 . S
O393 C378 1.256 . S
O394 Ho369 2.322 . S
O394 C379 1.259 . S
O395 Ho368 2.346 . S
O395 C379 1.268 . S
O396 Ho369 2.378 . S
O396 C380 1.215 . S
O397 Ho369 2.524 . S
O397 C380 1.289 . S
O398 Ho369 2.381 . S
O398 C387 1.275 . S
O399 Ho368 2.305 . S
O399 Ho369 2.669 . S
O399 C387 1.256 . S
H400 C373 0.930 . S
H401 C374 0.931 . S
H402 C376 0.934 . S
H403 C377 0.930 . S
H404 C382 0.930 . S
H405 C383 0.931 . S
H406 C385 0.934 . S
H407 C386 0.930 . S
Ho408 C411 2.811 . S
Ho408 O428 2.322 . S
Ho408 O430 2.378 . S
Ho408 O431 2.524 . S
Ho408 O432 2.381 1_455 S
Ho408 O433 2.669 1_455 S
Ho408 O435 2.340 1_454 S
Ho408 O439 2.305 1_554 S
Ho409 C420 2.812 . S
Ho409 O429 2.345 1_656 S
Ho409 O433 2.305 1_556 S
Ho409 O434 2.322 . S
Ho409 O436 2.379 . S
Ho409 O437 2.525 . S
Ho409 O438 2.380 1_655 S
Ho409 O439 2.669 1_655 S
C410 O428 1.259 . S
C410 O429 1.268 . S
C411 Ho408 2.811 . S
C411 C412 1.488 . S
C411 O430 1.215 . S
C411 O431 1.289 . S
C412 C411 1.488 . S
C412 C413 1.348 . S
C412 C417 1.413 . S
C413 C412 1.348 . S
C413 C414 1.442 . S
C413 H440 0.930 . S
C414 C413 1.442 . S
C414 C415 1.381 . S
C414 H441 0.931 . S
C415 C414 1.381 . S
C415 C416 1.321 . S
C416 C415 1.321 . S
C416 C417 1.403 . S
C416 H442 0.934 . S
C417 C412 1.413 . S
C417 C416 1.403 . S
C417 H443 0.930 . S
C418 O432 1.275 . S
C418 O433 1.256 . S
C419 O434 1.259 . S
C419 O435 1.276 . S
C420 Ho409 2.812 . S
C420 C421 1.488 . S
C420 O436 1.215 . S
C420 O437 1.289 . S
C421 C420 1.488 . S
C421 C422 1.348 . S
C421 C426 1.413 . S
C422 C421 1.348 . S
C422 C423 1.442 . S
C422 H444 0.930 . S
C423 C422 1.442 . S
C423 C424 1.381 . S
C423 H445 0.931 . S
C424 C423 1.381 . S
C424 C425 1.321 . S
C425 C424 1.321 . S
C425 C426 1.403 . S
C425 H446 0.934 . S
C426 C421 1.413 . S
C426 C425 1.403 . S
C426 H447 0.930 . S
C427 O438 1.275 . S
C427 O439 1.256 . S
O428 Ho408 2.322 . S
O428 C410 1.259 . S
O429 Ho409 2.345 1_454 S
O429 C410 1.268 . S
O430 Ho408 2.378 . S
O430 C411 1.215 . S
O431 Ho408 2.524 . S
O431 C411 1.289 . S
O432 Ho408 2.381 1_655 S
O432 C418 1.275 . S
O433 Ho408 2.669 1_655 S
O433 Ho409 2.305 1_554 S
O433 C418 1.256 . S
O434 Ho409 2.322 . S
O434 C419 1.259 . S
O435 Ho408 2.340 1_656 S
O435 C419 1.276 . S
O436 Ho409 2.379 . S
O436 C420 1.215 . S
O437 Ho409 2.525 . S
O437 C420 1.289 . S
O438 Ho409 2.380 1_455 S
O438 C427 1.275 . S
O439 Ho408 2.305 1_556 S
O439 Ho409 2.669 1_455 S
O439 C427 1.256 . S
H440 C413 0.930 . S
H441 C414 0.931 . S
H442 C416 0.934 . S
H443 C417 0.930 . S
H444 C422 0.930 . S
H445 C423 0.931 . S
H446 C425 0.934 . S
H447 C426 0.930 . S
H448 C454 0.930 . S
H449 C458 0.930 . S
H450 C463 0.929 . S
H451 C461 0.929 . S
H452 C456 0.929 . S
H453 C462 0.929 . S
C454 H448 0.930 . S
C454 C455 1.367 . S
C454 C462 1.378 . S
C455 C454 1.367 . S
C455 C463 1.433 . S
C456 H452 0.929 . S
C456 C458 1.378 . S
C456 C460 1.350 . S
C457 C460 1.463 . S
C457 C462 1.350 . S
C457 N465 1.427 . S
C458 H449 0.930 . S
C458 C456 1.378 . S
C458 C459 1.367 . S
C459 C458 1.367 . S
C459 C461 1.433 . S
C460 C456 1.350 . S
C460 C457 1.463 . S
C460 N464 1.427 . S
C461 H451 0.929 . S
C461 C459 1.433 . S
C461 N464 1.384 . S
C462 H453 0.929 . S
C462 C454 1.378 . S
C462 C457 1.350 . S
C463 H450 0.929 . S
C463 C455 1.433 . S
C463 N465 1.384 . S
N464 C460 1.427 . S
N464 C461 1.384 . S
N465 C457 1.427 . S
N465 C463 1.384 . S
H466 C472 0.930 . S
H467 C476 0.930 . S
H468 C481 0.929 . S
H469 C479 0.929 . S
H470 C474 0.929 . S
H471 C480 0.929 . S
C472 H466 0.930 . S
C472 C473 1.367 . S
C472 C480 1.378 . S
C473 C472 1.367 . S
C473 C481 1.433 . S
C474 H470 0.929 . S
C474 C476 1.378 . S
C474 C478 1.350 . S
C475 C478 1.463 . S
C475 C480 1.350 . S
C475 N483 1.427 . S
C476 H467 0.930 . S
C476 C474 1.378 . S
C476 C477 1.367 . S
C477 C476 1.367 . S
C477 C479 1.433 . S
C478 C474 1.350 . S
C478 C475 1.463 . S
C478 N482 1.427 . S
C479 H469 0.929 . S
C479 C477 1.433 . S
C479 N482 1.384 . S
C480 H471 0.929 . S
C480 C472 1.378 . S
C480 C475 1.350 . S
C481 H468 0.929 . S
C481 C473 1.433 . S
C481 N483 1.384 . S
N482 C478 1.427 . S
N482 C479 1.384 . S
N483 C475 1.427 . S
N483 C481 1.384 . S
H484 C490 0.930 . S
H485 C494 0.930 . S
H486 C499 0.929 . S
H487 C497 0.929 . S
H488 C492 0.929 . S
H489 C498 0.929 . S
C490 H484 0.930 . S
C490 C491 1.367 . S
C490 C498 1.378 . S
C491 C490 1.367 . S
C491 C499 1.433 . S
C492 H488 0.929 . S
C492 C494 1.378 . S
C492 C496 1.350 . S
C493 C496 1.463 . S
C493 C498 1.350 . S
C493 N501 1.427 . S
C494 H485 0.930 . S
C494 C492 1.378 . S
C494 C495 1.367 . S
C495 C494 1.367 . S
C495 C497 1.433 . S
C496 C492 1.350 . S
C496 C493 1.463 . S
C496 N500 1.427 . S
C497 H487 0.929 . S
C497 C495 1.433 . S
C497 N500 1.384 . S
C498 H489 0.929 . S
C498 C490 1.378 . S
C498 C493 1.350 . S
C499 H486 0.929 . S
C499 C491 1.433 . S
C499 N501 1.384 . S
N500 C496 1.427 . S
N500 C497 1.384 . S
N501 C493 1.427 . S
N501 C499 1.384 . S
H502 C508 0.930 . S
H503 C512 0.930 . S
H504 C517 0.929 . S
H505 C515 0.929 . S
H506 C510 0.929 . S
H507 C516 0.929 . S
C508 H502 0.930 . S
C508 C509 1.367 . S
C508 C516 1.378 . S
C509 C508 1.367 . S
C509 C517 1.433 . S
C510 H506 0.929 . S
C510 C512 1.378 . S
C510 C514 1.350 . S
C511 C514 1.463 . S
C511 C516 1.350 . S
C511 N519 1.427 . S
C512 H503 0.930 . S
C512 C510 1.378 . S
C512 C513 1.367 . S
C513 C512 1.367 . S
C513 C515 1.433 . S
C514 C510 1.350 . S
C514 C511 1.463 . S
C514 N518 1.427 . S
C515 H505 0.929 . S
C515 C513 1.433 . S
C515 N518 1.384 . S
C516 H507 0.929 . S
C516 C508 1.378 . S
C516 C511 1.350 . S
C517 H504 0.929 . S
C517 C509 1.433 . S
C517 N519 1.384 . S
N518 C514 1.427 . S
N518 C515 1.384 . S
N519 C511 1.427 . S
N519 C517 1.384 . S
H520 C526 0.930 . S
H521 C530 0.930 . S
H522 C535 0.929 . S
H523 C533 0.929 . S
H524 C528 0.929 . S
H525 C534 0.929 . S
C526 H520 0.930 . S
C526 C527 1.367 . S
C526 C534 1.378 . S
C527 C526 1.367 . S
C527 C535 1.433 . S
C528 H524 0.929 . S
C528 C530 1.378 . S
C528 C532 1.350 . S
C529 C532 1.463 . S
C529 C534 1.350 . S
C529 N537 1.427 . S
C530 H521 0.930 . S
C530 C528 1.378 . S
C530 C531 1.367 . S
C531 C530 1.367 . S
C531 C533 1.433 . S
C532 C528 1.350 . S
C532 C529 1.463 . S
C532 N536 1.427 . S
C533 H523 0.929 . S
C533 C531 1.433 . S
C533 N536 1.384 . S
C534 H525 0.929 . S
C534 C526 1.378 . S
C534 C529 1.350 . S
C535 H522 0.929 . S
C535 C527 1.433 . S
C535 N537 1.384 . S
N536 C532 1.427 . S
N536 C533 1.384 . S
N537 C529 1.427 . S
N537 C535 1.384 . S
H538 C544 0.930 . S
H539 C548 0.930 . S
H540 C553 0.929 . S
H541 C551 0.929 . S
H542 C546 0.929 . S
H543 C552 0.929 . S
C544 H538 0.930 . S
C544 C545 1.367 . S
C544 C552 1.378 . S
C545 C544 1.367 . S
C545 C553 1.433 . S
C546 H542 0.929 . S
C546 C548 1.378 . S
C546 C550 1.350 . S
C547 C550 1.463 . S
C547 C552 1.350 . S
C547 N555 1.427 . S
C548 H539 0.930 . S
C548 C546 1.378 . S
C548 C549 1.367 . S
C549 C548 1.367 . S
C549 C551 1.433 . S
C550 C546 1.350 . S
C550 C547 1.463 . S
C550 N554 1.427 . S
C551 H541 0.929 . S
C551 C549 1.433 . S
C551 N554 1.384 . S
C552 H543 0.929 . S
C552 C544 1.378 . S
C552 C547 1.350 . S
C553 H540 0.929 . S
C553 C545 1.433 . S
C553 N555 1.384 . S
N554 C550 1.427 . S
N554 C551 1.384 . S
N555 C547 1.427 . S
N555 C553 1.384 . S
H556 C562 0.930 . S
H557 C566 0.930 . S
H558 C571 0.929 . S
H559 C569 0.929 . S
H560 C564 0.929 . S
H561 C570 0.929 . S
C562 H556 0.930 . S
C562 C563 1.367 . S
C562 C570 1.378 . S
C563 C562 1.367 . S
C563 C571 1.433 . S
C564 H560 0.929 . S
C564 C566 1.378 . S
C564 C568 1.350 . S
C565 C568 1.463 . S
C565 C570 1.350 . S
C565 N573 1.427 . S
C566 H557 0.930 . S
C566 C564 1.378 . S
C566 C567 1.367 . S
C567 C566 1.367 . S
C567 C569 1.433 . S
C568 C564 1.350 . S
C568 C565 1.463 . S
C568 N572 1.427 . S
C569 H559 0.929 . S
C569 C567 1.433 . S
C569 N572 1.384 . S
C570 H561 0.929 . S
C570 C562 1.378 . S
C570 C565 1.350 . S
C571 H558 0.929 . S
C571 C563 1.433 . S
C571 N573 1.384 . S
N572 C568 1.427 . S
N572 C569 1.384 . S
N573 C565 1.427 . S
N573 C571 1.384 . S
H574 C580 0.930 . S
H575 C584 0.930 . S
H576 C589 0.929 . S
H577 C587 0.929 . S
H578 C582 0.929 . S
H579 C588 0.929 . S
C580 H574 0.930 . S
C580 C581 1.367 . S
C580 C588 1.378 . S
C581 C580 1.367 . S
C581 C589 1.433 . S
C582 H578 0.929 . S
C582 C584 1.378 . S
C582 C586 1.350 . S
C583 C586 1.463 . S
C583 C588 1.350 . S
C583 N591 1.427 . S
C584 H575 0.930 . S
C584 C582 1.378 . S
C584 C585 1.367 . S
C585 C584 1.367 . S
C585 C587 1.433 . S
C586 C582 1.350 . S
C586 C583 1.463 . S
C586 N590 1.427 . S
C587 H577 0.929 . S
C587 C585 1.433 . S
C587 N590 1.384 . S
C588 H579 0.929 . S
C588 C580 1.378 . S
C588 C583 1.350 . S
C589 H576 0.929 . S
C589 C581 1.433 . S
C589 N591 1.384 . S
N590 C586 1.427 . S
N590 C587 1.384 . S
N591 C583 1.427 . S
N591 C589 1.384 . S
H592 C598 0.930 . S
H593 C602 0.930 . S
H594 C607 0.929 . S
H595 C605 0.929 . S
H596 C600 0.929 . S
H597 C606 0.929 . S
C598 H592 0.930 . S
C598 C599 1.367 . S
C598 C606 1.378 . S
C599 C598 1.367 . S
C599 C607 1.433 . S
C600 H596 0.929 . S
C600 C602 1.378 . S
C600 C604 1.350 . S
C601 C604 1.463 . S
C601 C606 1.350 . S
C601 N609 1.427 . S
C602 H593 0.930 . S
C602 C600 1.378 . S
C602 C603 1.367 . S
C603 C602 1.367 . S
C603 C605 1.433 . S
C604 C600 1.350 . S
C604 C601 1.463 . S
C604 N608 1.427 . S
C605 H595 0.929 . S
C605 C603 1.433 . S
C605 N608 1.384 . S
C606 H597 0.929 . S
C606 C598 1.378 . S
C606 C601 1.350 . S
C607 H594 0.929 . S
C607 C599 1.433 . S
C607 N609 1.384 . S
N608 C604 1.427 . S
N608 C605 1.384 . S
N609 C601 1.427 . S
N609 C607 1.384 . S
H610 C616 0.930 . S
H611 C620 0.930 . S
H612 C625 0.929 . S
H613 C623 0.929 . S
H614 C618 0.929 . S
H615 C624 0.929 . S
C616 H610 0.930 . S
C616 C617 1.367 . S
C616 C624 1.378 . S
C617 C616 1.367 . S
C617 C625 1.433 . S
C618 H614 0.929 . S
C618 C620 1.378 . S
C618 C622 1.350 . S
C619 C622 1.463 . S
C619 C624 1.350 . S
C619 N627 1.427 . S
C620 H611 0.930 . S
C620 C618 1.378 . S
C620 C621 1.367 . S
C621 C620 1.367 . S
C621 C623 1.433 . S
C622 C618 1.350 . S
C622 C619 1.463 . S
C622 N626 1.427 . S
C623 H613 0.929 . S
C623 C621 1.433 . S
C623 N626 1.384 . S
C624 H615 0.929 . S
C624 C616 1.378 . S
C624 C619 1.350 . S
C625 H612 0.929 . S
C625 C617 1.433 . S
C625 N627 1.384 . S
N626 C622 1.427 . S
N626 C623 1.384 . S
N627 C619 1.427 . S
N627 C625 1.384 . S
H628 C634 0.930 . S
H629 C638 0.930 . S
H630 C643 0.929 . S
H631 C641 0.929 . S
H632 C636 0.929 . S
H633 C642 0.929 . S
C634 H628 0.930 . S
C634 C635 1.367 . S
C634 C642 1.378 . S
C635 C634 1.367 . S
C635 C643 1.433 . S
C636 H632 0.929 . S
C636 C638 1.378 . S
C636 C640 1.350 . S
C637 C640 1.463 . S
C637 C642 1.350 . S
C637 N645 1.427 . S
C638 H629 0.930 . S
C638 C636 1.378 . S
C638 C639 1.367 . S
C639 C638 1.367 . S
C639 C641 1.433 . S
C640 C636 1.350 . S
C640 C637 1.463 . S
C640 N644 1.427 . S
C641 H631 0.929 . S
C641 C639 1.433 . S
C641 N644 1.384 . S
C642 H633 0.929 . S
C642 C634 1.378 . S
C642 C637 1.350 . S
C643 H630 0.929 . S
C643 C635 1.433 . S
C643 N645 1.384 . S
N644 C640 1.427 . S
N644 C641 1.384 . S
N645 C637 1.427 . S
N645 C643 1.384 . S
H646 C652 0.930 . S
H647 C656 0.930 . S
H648 C661 0.929 . S
H649 C659 0.929 . S
H650 C654 0.929 . S
H651 C660 0.929 . S
C652 H646 0.930 . S
C652 C653 1.367 . S
C652 C660 1.378 . S
C653 C652 1.367 . S
C653 C661 1.433 . S
C654 H650 0.929 . S
C654 C656 1.378 . S
C654 C658 1.350 . S
C655 C658 1.463 . S
C655 C660 1.350 . S
C655 N663 1.427 . S
C656 H647 0.930 . S
C656 C654 1.378 . S
C656 C657 1.367 . S
C657 C656 1.367 . S
C657 C659 1.433 . S
C658 C654 1.350 . S
C658 C655 1.463 . S
C658 N662 1.427 . S
C659 H649 0.929 . S
C659 C657 1.433 . S
C659 N662 1.384 . S
C660 H651 0.929 . S
C660 C652 1.378 . S
C660 C655 1.350 . S
C661 H648 0.929 . S
C661 C653 1.433 . S
C661 N663 1.384 . S
N662 C658 1.427 . S
N662 C659 1.384 . S
N663 C655 1.427 . S
N663 C661 1.384 . S
H664 C670 0.930 . S
H665 C674 0.930 . S
H666 C679 0.929 . S
H667 C677 0.929 . S
H668 C672 0.929 . S
H669 C678 0.929 . S
C670 H664 0.930 . S
C670 C671 1.367 . S
C670 C678 1.378 . S
C671 C670 1.367 . S
C671 C679 1.433 . S
C672 H668 0.929 . S
C672 C674 1.378 . S
C672 C676 1.350 . S
C673 C676 1.463 . S
C673 C678 1.350 . S
C673 N681 1.427 . S
C674 H665 0.930 . S
C674 C672 1.378 . S
C674 C675 1.367 . S
C675 C674 1.367 . S
C675 C677 1.433 . S
C676 C672 1.350 . S
C676 C673 1.463 . S
C676 N680 1.427 . S
C677 H667 0.929 . S
C677 C675 1.433 . S
C677 N680 1.384 . S
C678 H669 0.929 . S
C678 C670 1.378 . S
C678 C673 1.350 . S
C679 H666 0.929 . S
C679 C671 1.433 . S
C679 N681 1.384 . S
N680 C676 1.427 . S
N680 C677 1.384 . S
N681 C673 1.427 . S
N681 C679 1.384 . S
H682 C688 0.930 . S
H683 C692 0.930 . S
H684 C697 0.929 . S
H685 C695 0.929 . S
H686 C690 0.929 . S
H687 C696 0.929 . S
C688 H682 0.930 . S
C688 C689 1.367 . S
C688 C696 1.378 . S
C689 C688 1.367 . S
C689 C697 1.433 . S
C690 H686 0.929 . S
C690 C692 1.378 . S
C690 C694 1.350 . S
C691 C694 1.463 . S
C691 C696 1.350 . S
C691 N699 1.427 . S
C692 H683 0.930 . S
C692 C690 1.378 . S
C692 C693 1.367 . S
C693 C692 1.367 . S
C693 C695 1.433 . S
C694 C690 1.350 . S
C694 C691 1.463 . S
C694 N698 1.427 . S
C695 H685 0.929 . S
C695 C693 1.433 . S
C695 N698 1.384 . S
C696 H687 0.929 . S
C696 C688 1.378 . S
C696 C691 1.350 . S
C697 H684 0.929 . S
C697 C689 1.433 . S
C697 N699 1.384 . S
N698 C694 1.427 . S
N698 C695 1.384 . S
N699 C691 1.427 . S
N699 C697 1.384 . S
H700 C706 0.930 . S
H701 C710 0.930 . S
H702 C715 0.929 . S
H703 C713 0.929 . S
H704 C708 0.929 . S
H705 C714 0.929 . S
C706 H700 0.930 . S
C706 C707 1.367 . S
C706 C714 1.378 . S
C707 C706 1.367 . S
C707 C715 1.433 . S
C708 H704 0.929 . S
C708 C710 1.378 . S
C708 C712 1.350 . S
C709 C712 1.463 . S
C709 C714 1.350 . S
C709 N717 1.427 . S
C710 H701 0.930 . S
C710 C708 1.378 . S
C710 C711 1.367 . S
C711 C710 1.367 . S
C711 C713 1.433 . S
C712 C708 1.350 . S
C712 C709 1.463 . S
C712 N716 1.427 . S
C713 H703 0.929 . S
C713 C711 1.433 . S
C713 N716 1.384 . S
C714 H705 0.929 . S
C714 C706 1.378 . S
C714 C709 1.350 . S
C715 H702 0.929 . S
C715 C707 1.433 . S
C715 N717 1.384 . S
N716 C712 1.427 . S
N716 C713 1.384 . S
N717 C709 1.427 . S
N717 C715 1.384 . S
H718 C724 0.930 . S
H719 C728 0.930 . S
H720 C733 0.929 . S
H721 C731 0.929 . S
H722 C726 0.929 . S
H723 C732 0.929 . S
C724 H718 0.930 . S
C724 C725 1.367 . S
C724 C732 1.378 . S
C725 C724 1.367 . S
C725 C733 1.433 . S
C726 H722 0.929 . S
C726 C728 1.378 . S
C726 C730 1.350 . S
C727 C730 1.463 . S
C727 C732 1.350 . S
C727 N735 1.427 . S
C728 H719 0.930 . S
C728 C726 1.378 . S
C728 C729 1.367 . S
C729 C728 1.367 . S
C729 C731 1.433 . S
C730 C726 1.350 . S
C730 C727 1.463 . S
C730 N734 1.427 . S
C731 H721 0.929 . S
C731 C729 1.433 . S
C731 N734 1.384 . S
C732 H723 0.929 . S
C732 C724 1.378 . S
C732 C727 1.350 . S
C733 H720 0.929 . S
C733 C725 1.433 . S
C733 N735 1.384 . S
N734 C730 1.427 . S
N734 C731 1.384 . S
N735 C727 1.427 . S
N735 C733 1.384 . S
H736 C742 0.930 . S
H737 C746 0.930 . S
H738 C751 0.929 . S
H739 C749 0.929 . S
H740 C744 0.929 . S
H741 C750 0.929 . S
C742 H736 0.930 . S
C742 C743 1.367 . S
C742 C750 1.378 . S
C743 C742 1.367 . S
C743 C751 1.433 . S
C744 H740 0.929 . S
C744 C746 1.378 . S
C744 C748 1.350 . S
C745 C748 1.463 . S
C745 C750 1.350 . S
C745 N753 1.427 . S
C746 H737 0.930 . S
C746 C744 1.378 . S
C746 C747 1.367 . S
C747 C746 1.367 . S
C747 C749 1.433 . S
C748 C744 1.350 . S
C748 C745 1.463 . S
C748 N752 1.427 . S
C749 H739 0.929 . S
C749 C747 1.433 . S
C749 N752 1.384 . S
C750 H741 0.929 . S
C750 C742 1.378 . S
C750 C745 1.350 . S
C751 H738 0.929 . S
C751 C743 1.433 . S
C751 N753 1.384 . S
N752 C748 1.427 . S
N752 C749 1.384 . S
N753 C745 1.427 . S
N753 C751 1.384 . S
H754 C760 0.930 . S
H755 C764 0.930 . S
H756 C769 0.929 . S
H757 C767 0.929 . S
H758 C762 0.929 . S
H759 C768 0.929 . S
C760 H754 0.930 . S
C760 C761 1.367 . S
C760 C768 1.378 . S
C761 C760 1.367 . S
C761 C769 1.433 . S
C762 H758 0.929 . S
C762 C764 1.378 . S
C762 C766 1.350 . S
C763 C766 1.463 . S
C763 C768 1.350 . S
C763 N771 1.427 . S
C764 H755 0.930 . S
C764 C762 1.378 . S
C764 C765 1.367 . S
C765 C764 1.367 . S
C765 C767 1.433 . S
C766 C762 1.350 . S
C766 C763 1.463 . S
C766 N770 1.427 . S
C767 H757 0.929 . S
C767 C765 1.433 . S
C767 N770 1.384 . S
C768 H759 0.929 . S
C768 C760 1.378 . S
C768 C763 1.350 . S
C769 H756 0.929 . S
C769 C761 1.433 . S
C769 N771 1.384 . S
N770 C766 1.427 . S
N770 C767 1.384 . S
N771 C763 1.427 . S
N771 C769 1.384 . S
H772 C778 0.930 . S
H773 C782 0.930 . S
H774 C787 0.929 . S
H775 C785 0.929 . S
H776 C780 0.929 . S
H777 C786 0.929 . S
C778 H772 0.930 . S
C778 C779 1.367 . S
C778 C786 1.378 . S
C779 C778 1.367 . S
C779 C787 1.433 . S
C780 H776 0.929 . S
C780 C782 1.378 . S
C780 C784 1.350 . S
C781 C784 1.463 . S
C781 C786 1.350 . S
C781 N789 1.427 . S
C782 H773 0.930 . S
C782 C780 1.378 . S
C782 C783 1.367 . S
C783 C782 1.367 . S
C783 C785 1.433 . S
C784 C780 1.350 . S
C784 C781 1.463 . S
C784 N788 1.427 . S
C785 H775 0.929 . S
C785 C783 1.433 . S
C785 N788 1.384 . S
C786 H777 0.929 . S
C786 C778 1.378 . S
C786 C781 1.350 . S
C787 H774 0.929 . S
C787 C779 1.433 . S
C787 N789 1.384 . S
N788 C784 1.427 . S
N788 C785 1.384 . S
N789 C781 1.427 . S
N789 C787 1.384 . S
H790 C796 0.930 . S
H791 C800 0.930 . S
H792 C805 0.929 . S
H793 C803 0.929 . S
H794 C798 0.929 . S
H795 C804 0.929 . S
C796 H790 0.930 . S
C796 C797 1.367 . S
C796 C804 1.378 . S
C797 C796 1.367 . S
C797 C805 1.433 . S
C798 H794 0.929 . S
C798 C800 1.378 . S
C798 C802 1.350 . S
C799 C802 1.463 . S
C799 C804 1.350 . S
C799 N807 1.427 . S
C800 H791 0.930 . S
C800 C798 1.378 . S
C800 C801 1.367 . S
C801 C800 1.367 . S
C801 C803 1.433 . S
C802 C798 1.350 . S
C802 C799 1.463 . S
C802 N806 1.427 . S
C803 H793 0.929 . S
C803 C801 1.433 . S
C803 N806 1.384 . S
C804 H795 0.929 . S
C804 C796 1.378 . S
C804 C799 1.350 . S
C805 H792 0.929 . S
C805 C797 1.433 . S
C805 N807 1.384 . S
N806 C802 1.427 . S
N806 C803 1.384 . S
N807 C799 1.427 . S
N807 C805 1.384 . S
H808 C814 0.930 . S
H809 C818 0.930 . S
H810 C823 0.929 . S
H811 C821 0.929 . S
H812 C816 0.929 . S
H813 C822 0.929 . S
C814 H808 0.930 . S
C814 C815 1.367 . S
C814 C822 1.378 . S
C815 C814 1.367 . S
C815 C823 1.433 . S
C816 H812 0.929 . S
C816 C818 1.378 . S
C816 C820 1.350 . S
C817 C820 1.463 . S
C817 C822 1.350 . S
C817 N825 1.427 . S
C818 H809 0.930 . S
C818 C816 1.378 . S
C818 C819 1.367 . S
C819 C818 1.367 . S
C819 C821 1.433 . S
C820 C816 1.350 . S
C820 C817 1.463 . S
C820 N824 1.427 . S
C821 H811 0.929 . S
C821 C819 1.433 . S
C821 N824 1.384 . S
C822 H813 0.929 . S
C822 C814 1.378 . S
C822 C817 1.350 . S
C823 H810 0.929 . S
C823 C815 1.433 . S
C823 N825 1.384 . S
N824 C820 1.427 . S
N824 C821 1.384 . S
N825 C817 1.427 . S
N825 C823 1.384 . S
H826 C832 0.930 . S
H827 C836 0.930 . S
H828 C841 0.929 . S
H829 C839 0.929 . S
H830 C834 0.929 . S
H831 C840 0.929 . S
C832 H826 0.930 . S
C832 C833 1.367 . S
C832 C840 1.378 . S
C833 C832 1.367 . S
C833 C841 1.433 . S
C834 H830 0.929 . S
C834 C836 1.378 . S
C834 C838 1.350 . S
C835 C838 1.463 . S
C835 C840 1.350 . S
C835 N843 1.427 . S
C836 H827 0.930 . S
C836 C834 1.378 . S
C836 C837 1.367 . S
C837 C836 1.367 . S
C837 C839 1.433 . S
C838 C834 1.350 . S
C838 C835 1.463 . S
C838 N842 1.427 . S
C839 H829 0.929 . S
C839 C837 1.433 . S
C839 N842 1.384 . S
C840 H831 0.929 . S
C840 C832 1.378 . S
C840 C835 1.350 . S
C841 H828 0.929 . S
C841 C833 1.433 . S
C841 N843 1.384 . S
N842 C838 1.427 . S
N842 C839 1.384 . S
N843 C835 1.427 . S
N843 C841 1.384 . S
H844 C850 0.930 . S
H845 C854 0.930 . S
H846 C859 0.929 . S
H847 C857 0.929 . S
H848 C852 0.929 . S
H849 C858 0.929 . S
C850 H844 0.930 . S
C850 C851 1.367 . S
C850 C858 1.378 . S
C851 C850 1.367 . S
C851 C859 1.433 . S
C852 H848 0.929 . S
C852 C854 1.378 . S
C852 C856 1.350 . S
C853 C856 1.463 . S
C853 C858 1.350 . S
C853 N861 1.427 . S
C854 H845 0.930 . S
C854 C852 1.378 . S
C854 C855 1.367 . S
C855 C854 1.367 . S
C855 C857 1.433 . S
C856 C852 1.350 . S
C856 C853 1.463 . S
C856 N860 1.427 . S
C857 H847 0.929 . S
C857 C855 1.433 . S
C857 N860 1.384 . S
C858 H849 0.929 . S
C858 C850 1.378 . S
C858 C853 1.350 . S
C859 H846 0.929 . S
C859 C851 1.433 . S
C859 N861 1.384 . S
N860 C856 1.427 . S
N860 C857 1.384 . S
N861 C853 1.427 . S
N861 C859 1.384 . S
H862 C868 0.930 . S
H863 C872 0.930 . S
H864 C877 0.929 . S
H865 C875 0.929 . S
H866 C870 0.929 . S
H867 C876 0.929 . S
C868 H862 0.930 . S
C868 C869 1.367 . S
C868 C876 1.378 . S
C869 C868 1.367 . S
C869 C877 1.433 . S
C870 H866 0.929 . S
C870 C872 1.378 . S
C870 C874 1.350 . S
C871 C874 1.463 . S
C871 C876 1.350 . S
C871 N879 1.427 . S
C872 H863 0.930 . S
C872 C870 1.378 . S
C872 C873 1.367 . S
C873 C872 1.367 . S
C873 C875 1.433 . S
C874 C870 1.350 . S
C874 C871 1.463 . S
C874 N878 1.427 . S
C875 H865 0.929 . S
C875 C873 1.433 . S
C875 N878 1.384 . S
C876 H867 0.929 . S
C876 C868 1.378 . S
C876 C871 1.350 . S
C877 H864 0.929 . S
C877 C869 1.433 . S
C877 N879 1.384 . S
N878 C874 1.427 . S
N878 C875 1.384 . S
N879 C871 1.427 . S
N879 C877 1.384 . S
C455 C1 1.265 . S
C459 C295 1.293 . S
C473 C67 0.990 . S
C477 C344 0.990 . S
C495 C370 2.454 . S
C491 C97 2.484 . S
C509 C133 2.398 . S
C513 C418 2.344 . S
C531 C330 2.513 . S
C527 C25 2.430 . S
C549 C298 0.866 . S
C545 C37 0.874 . S
C567 C419 1.900 . S
C563 C103 1.942 . S
C585 C387 1.603 . S
C581 C109 1.623 . S
C599 C31 1.709 . S
C603 C415 1.757 . S
C621 C347 2.320 . S
C617 C73 2.391 . S
C635 C139 2.359 . S
C639 C299 2.349 . S
C653 C61 0.837 . S
C657 C384 0.858 . S
C675 C304 1.284 . S
C671 C175 1.214 . S
C689 C181 0.954 . S
C693 C335 0.959 . S
C707 C247 2.508 . S
C711 C379 2.476 . S
C725 C277 2.386 . S
C729 C427 2.331 . S
C743 C145 2.334 . S
C747 C339 2.502 . S
C765 C307 0.870 . S
C761 C211 0.877 . S
C783 C410 1.885 . S
C779 C217 1.918 . S
C801 C378 1.616 . S
C797 C283 1.639 . S
C815 C169 1.632 . S
C819 C424 1.750 . S
C837 C338 2.330 . S
C833 C241 2.395 . S
C855 C290 2.336 . S
C851 C253 2.348 . S
C869 C205 0.859 . S
C873 C375 0.870 . S
