# Generated by pormake.
# Topology zzz, (3,6)-cn, num edge types: 1
# Building blocks:
#     Node 0, Type 0, BuildingBlock: ESEHIV_clean_linker_0, # of connection points: 3
#     Node 1, Type 0, BuildingBlock: ESEHIV_clean_linker_0, # of connection points: 3
#     Node 2, Type 0, BuildingBlock: ESEHIV_clean_linker_0, # of connection points: 3
#     Node 3, Type 0, BuildingBlock: ESEHIV_clean_linker_0, # of connection points: 3
#     Node 4, Type 0, BuildingBlock: ESEHIV_clean_linker_0, # of connection points: 3
#     Node 5, Type 0, BuildingBlock: ESEHIV_clean_linker_0, # of connection points: 3
#     Node 6, Type 0, BuildingBlock: ESEHIV_clean_linker_0, # of connection points: 3
#     Node 7, Type 0, BuildingBlock: ESEHIV_clean_linker_0, # of connection points: 3
#     Node 8, Type 1, BuildingBlock: KUMJIN_clean_sbu_1, # of connection points: 6
#     Node 9, Type 1, BuildingBlock: KUMJIN_clean_sbu_1, # of connection points: 6
#     Node 10, Type 1, BuildingBlock: KUMJIN_clean_sbu_1, # of connection points: 6
#     Node 11, Type 1, BuildingBlock: KUMJIN_clean_sbu_1, # of connection points: 6
#     Edge 12, Type (0, 1), BuildingBlock: EZIPEK_clean_linker_0, # of connection points: 2
#     Edge 13, Type (0, 1), BuildingBlock: EZIPEK_clean_linker_0, # of connection points: 2
#     Edge 14, Type (0, 1), BuildingBlock: EZIPEK_clean_linker_0, # of connection points: 2
#     Edge 15, Type (0, 1), BuildingBlock: EZIPEK_clean_linker_0, # of connection points: 2
#     Edge 16, Type (0, 1), BuildingBlock: EZIPEK_clean_linker_0, # of connection points: 2
#     Edge 17, Type (0, 1), BuildingBlock: EZIPEK_clean_linker_0, # of connection points: 2
#     Edge 18, Type (0, 1), BuildingBlock: EZIPEK_clean_linker_0, # of connection points: 2
#     Edge 19, Type (0, 1), BuildingBlock: EZIPEK_clean_linker_0, # of connection points: 2
#     Edge 20, Type (0, 1), BuildingBlock: EZIPEK_clean_linker_0, # of connection points: 2
#     Edge 21, Type (0, 1), BuildingBlock: EZIPEK_clean_linker_0, # of connection points: 2
#     Edge 22, Type (0, 1), BuildingBlock: EZIPEK_clean_linker_0, # of connection points: 2
#     Edge 23, Type (0, 1), BuildingBlock: EZIPEK_clean_linker_0, # of connection points: 2
#     Edge 24, Type (0, 1), BuildingBlock: EZIPEK_clean_linker_0, # of connection points: 2
#     Edge 25, Type (0, 1), BuildingBlock: EZIPEK_clean_linker_0, # of connection points: 2
#     Edge 26, Type (0, 1), BuildingBlock: EZIPEK_clean_linker_0, # of connection points: 2
#     Edge 27, Type (0, 1), BuildingBlock: EZIPEK_clean_linker_0, # of connection points: 2
#     Edge 28, Type (0, 1), BuildingBlock: EZIPEK_clean_linker_0, # of connection points: 2
#     Edge 29, Type (0, 1), BuildingBlock: EZIPEK_clean_linker_0, # of connection points: 2
#     Edge 30, Type (0, 1), BuildingBlock: EZIPEK_clean_linker_0, # of connection points: 2
#     Edge 31, Type (0, 1), BuildingBlock: EZIPEK_clean_linker_0, # of connection points: 2
#     Edge 32, Type (0, 1), BuildingBlock: EZIPEK_clean_linker_0, # of connection points: 2
#     Edge 33, Type (0, 1), BuildingBlock: EZIPEK_clean_linker_0, # of connection points: 2
#     Edge 34, Type (0, 1), BuildingBlock: EZIPEK_clean_linker_0, # of connection points: 2
#     Edge 35, Type (0, 1), BuildingBlock: EZIPEK_clean_linker_0, # of connection points: 2
# Relax obj value: 0.448
# Max RMSD: 0.196
# Mean RMSD: 0.187
data_MOF--net-zzz--node1-KUMJIN_clean_sbu_1--node2-ESEHIV_clean_linker_0--edge1-EZIPEK_clean_linker_0
_symmetry_space_group_name_H-M    P1
_symmetry_Int_Tables_number       1
_symmetry_cell_setting            triclinic
loop_
_symmetry_equiv_pos_as_xyz
'x, y, z'
_cell_length_a     31.103117
_cell_length_b     30.95052
_cell_length_c     11.765691
_cell_angle_alpha  90.387638
_cell_angle_beta   90.406895
_cell_angle_gamma 90.991529
loop_
_atom_site_label
_atom_site_type_symbol
_atom_site_fract_x
_atom_site_fract_y
_atom_site_fract_z
_atom_type_partial_charge
H0 H 0.83997 0.46818 0.27141 0.0
H1 H 0.7296 0.47719 0.06037 0.0
H2 H 0.73019 0.54082 0.38689 0.0
C3 C 0.80806 0.48108 0.26012 0.0
C4 C 0.78934 0.5063 0.3461 0.0
C5 C 0.78536 0.46965 0.16207 0.0
C6 C 0.74557 0.48653 0.13912 0.0
C7 C 0.72517 0.51382 0.21423 0.0
C8 C 0.74653 0.52276 0.3224 0.0
H9 H 0.06539 0.84602 0.22887 0.0
H10 H 0.05104 0.72854 0.04143 0.0
H11 H 0.99693 0.73712 0.37879 0.0
C12 C 0.05218 0.81334 0.22577 0.0
C13 C 0.02979 0.79683 0.31981 0.0
C14 C 0.0607 0.78817 0.12989 0.0
C15 C 0.04376 0.74668 0.11814 0.0
C16 C 0.01949 0.72731 0.20349 0.0
C17 C 0.01329 0.75226 0.30822 0.0
H18 H 0.72549 0.91439 0.29563 0.0
H19 H 0.80864 0.94178 1.01857 0.0
H20 H 0.82342 1.01261 0.33515 0.0
C21 C 0.75162 0.93323 0.26138 0.0
C22 C 0.76701 0.9684 0.32613 0.0
C23 C 0.76301 0.92605 0.14717 0.0
C24 C 0.79951 0.94746 0.10602 0.0
C25 C 0.82472 0.97603 0.17298 0.0
C26 C 0.80669 0.98858 0.28343 0.0
H27 H 0.49409 0.73249 0.3874 0.0
H28 H 0.61299 0.79672 0.29397 0.0
H29 H 0.49453 0.82365 0.11713 0.0
C30 C 0.51148 0.75757 0.34144 0.0
C31 C 0.49043 0.77748 0.25191 0.0
C32 C 0.55608 0.76021 0.352 0.0
C33 C 0.57848 0.79304 0.2858 0.0
C34 C 0.55503 0.82004 0.20659 0.0
C35 C 0.5115 0.80927 0.18792 0.0
H36 H 0.20026 0.58714 0.23947 0.0
H37 H 0.31027 0.55937 0.4428 0.0
H38 H 0.30473 0.51397 0.09599 0.0
C39 C 0.23063 0.57072 0.2469 0.0
C40 C 0.24662 0.54688 0.15321 0.0
C41 C 0.25482 0.5763 0.34778 0.0
C42 C 0.2927 0.55465 0.36321 0.0
C43 C 0.31177 0.53239 0.27527 0.0
C44 C 0.28925 0.52915 0.16741 0.0
H45 H 0.99508 0.2384 0.15444 0.0
H46 H 0.01088 0.35811 0.32822 0.0
H47 H 0.02733 0.35252 0.96283 0.0
C48 C 1.00504 0.27212 0.14974 0.0
C49 C 0.01586 0.28995 0.04433 0.0
C50 C 1.00161 0.29761 0.24743 0.0
C51 C 0.01447 0.3406 0.24877 0.0
C52 C 0.02208 0.36329 0.14876 0.0
C53 C 0.02288 0.33707 0.04354 0.0
H54 H 0.3274 1.00255 0.20402 0.0
H55 H 0.20949 0.03116 0.36298 0.0
H56 H 0.2289 0.06692 1.00992 0.0
C57 C 0.29605 0.01671 0.19552 0.0
C58 C 0.28524 0.03664 0.09222 0.0
C59 C 0.26733 1.01258 0.28707 0.0
C60 C 0.22898 0.03309 0.2866 0.0
C61 C 0.213 0.05171 0.18878 0.0
C62 C 0.24115 0.05354 0.0882 0.0
H63 H 0.41199 0.32224 0.13919 0.0
H64 H 0.51608 0.23441 0.09005 0.0
H65 H 0.42481 0.21403 0.36035 0.0
C66 C 0.42856 0.29317 0.16308 0.0
C67 C 0.41568 0.27049 0.26147 0.0
C68 C 0.46589 0.2834 0.10311 0.0
C69 C 0.48768 0.24367 0.13603 0.0
C70 C 0.47124 0.216 0.22738 0.0
C71 C 0.43577 0.23167 0.28671 0.0
Eu72 Eu 0.96685 0.0496 0.5887 0.0
C73 C 0.11613 0.124 0.86723 0.0
N74 N 0.11392 0.10175 0.76708 0.0
C75 C 0.16856 0.14803 0.68823 0.0
C76 C 0.14381 0.16038 0.87978 0.0
C77 C 0.1401 0.11274 0.67877 0.0
C78 C 0.17043 0.17198 0.78912 0.0
C79 C 0.08768 0.137 0.0554 0.0
C80 C 0.08923 0.11143 0.95567 0.0
C81 C 0.11457 0.17366 0.06715 0.0
C82 C 0.14337 0.18462 0.98092 0.0
Eu83 Eu 0.07042 0.03835 0.76556 0.0
N84 N 0.06452 0.07468 0.9443 0.0
C85 C 0.05928 0.12488 0.14114 0.0
C86 C 0.04131 0.06002 0.03489 0.0
C87 C 0.03659 0.08592 0.13156 0.0
H88 H 0.13991 0.0935 0.60208 0.0
H89 H 0.01559 0.07582 0.19907 0.0
H90 H 0.88239 0.03294 0.77105 0.0
H91 H 1.00098 0.96738 0.18933 0.0
H92 H 0.02613 0.02855 0.03468 0.0
H93 H 0.0558 0.14457 0.21688 0.0
H94 H 1.00528 0.02662 0.33039 0.0
H95 H 0.18918 0.15658 0.61786 0.0
H96 H 0.11383 0.19336 0.14358 0.0
H97 H 0.16432 0.21269 0.99197 0.0
H98 H 0.82508 0.97894 0.8015 0.0
H99 H 0.1922 0.19962 0.79576 0.0
H100 H 0.95033 0.90636 0.21971 0.0
N101 N 0.90821 1.00093 0.626 0.0
C102 C 0.90076 0.96966 0.54553 0.0
C103 C 0.84662 0.9755 0.73023 0.0
C104 C 0.86733 0.93868 0.55816 0.0
C105 C 0.88013 1.0055 0.71425 0.0
C106 C 0.84063 0.94153 0.65293 0.0
N107 N 0.95828 0.99907 0.43823 0.0
C108 C 0.98223 1.00093 0.34168 0.0
C109 C 0.92144 0.93525 0.36825 0.0
C110 C 0.92643 0.9687 0.44924 0.0
C111 C 0.95048 0.93349 0.27805 0.0
C112 C 0.97978 0.96742 0.26189 0.0
H113 H 0.81471 0.91829 0.66568 0.0
H114 H 0.83721 0.88089 0.48624 0.0
H115 H 0.88426 0.87817 0.32003 0.0
O116 O 0.95492 0.10402 0.4767 0.0
O117 O 0.9982 0.98259 0.56523 0.0
O118 O 0.05145 0.96964 0.69629 0.0
O119 O 0.90186 0.06395 0.53257 0.0
O120 O 0.02898 0.07241 0.49155 0.0
O121 O 0.08254 0.03257 0.57307 0.0
O122 O 0.10978 1.00556 0.89271 0.0
O123 O 0.04803 0.10921 0.72977 0.0
O124 O 0.97578 0.10437 0.72473 0.0
O125 O 0.13729 0.02399 0.73266 0.0
O126 O 1.00905 1.00737 0.84935 0.0
O127 O 0.95646 0.05121 0.78205 0.0
C128 C 0.02587 0.95607 0.61195 0.0
C129 C 0.89101 0.13837 0.52863 0.0
C130 C 0.89083 0.21617 0.53623 0.0
C131 C 0.86245 0.2154 0.62804 0.0
C132 C 0.86227 0.13703 0.62084 0.0
C133 C 0.84765 0.17557 0.66917 0.0
C134 C 0.90354 0.17793 0.48472 0.0
C135 C 0.06788 0.05508 0.4867 0.0
C136 C 0.9132 0.10013 0.48658 0.0
C137 C 0.86169 0.9058 0.47617 0.0
C138 C 0.88865 0.9041 0.38157 0.0
C139 C 0.01067 0.12737 0.75219 0.0
C140 C 0.16573 0.96255 0.81481 0.0
C141 C 0.1684 0.88535 0.84637 0.0
C142 C 0.20418 0.88232 0.7752 0.0
C143 C 0.20226 0.95967 0.7453 0.0
C144 C 0.1495 0.92532 0.86617 0.0
C145 C 0.22127 0.91968 0.72545 0.0
C146 C 0.9697 0.02341 0.85836 0.0
C147 C 0.14346 1.00385 0.82722 0.0
H148 H 0.85258 0.24512 0.6684 0.0
H149 H 0.85214 0.10657 0.65763 0.0
H150 H 0.82603 0.1745 0.74079 0.0
H151 H 0.92596 0.17912 0.41427 0.0
H152 H 0.21854 0.85133 0.7582 0.0
H153 H 0.21552 0.98817 0.70454 0.0
H154 H 0.12132 0.92695 0.91977 0.0
H155 H 0.24884 0.9176 0.67018 0.0
Eu156 Eu 0.55105 0.06305 0.80509 0.0
C157 C 0.46386 0.88618 0.75559 0.0
N158 N 0.50173 0.90014 0.71004 0.0
C159 C 0.53548 0.83486 0.76801 0.0
C160 C 0.46123 0.84649 0.81416 0.0
C161 C 0.53638 0.87371 0.70888 0.0
C162 C 0.49803 0.8214 0.8226 0.0
C163 C 0.38726 0.89531 0.78052 0.0
C164 C 0.42743 0.91095 0.74086 0.0
C165 C 0.385 0.85682 0.84289 0.0
C166 C 0.42195 0.83262 0.86036 0.0
Eu167 Eu 0.50224 0.96981 0.62624 0.0
N168 N 0.43055 0.94866 0.68177 0.0
C169 C 0.35025 0.91825 0.75453 0.0
C170 C 0.3937 0.96906 0.64917 0.0
C171 C 0.35343 0.95503 0.6877 0.0
H172 H 0.56513 0.88361 0.66605 0.0
H173 H 0.32479 0.97257 0.66581 0.0
H174 H 0.46627 0.09423 0.96836 0.0
H175 H 0.64688 0.15832 0.50375 0.0
H176 H 0.39563 0.99714 0.59588 0.0
H177 H 0.31899 0.90736 0.78389 0.0
H178 H 0.61625 0.09156 0.58282 0.0
H179 H 0.5641 0.8158 0.77265 0.0
H180 H 0.35458 0.84502 0.87595 0.0
H181 H 0.41956 0.80257 0.90693 0.0
H182 H 0.42489 0.15937 0.9999 0.0
H183 H 0.49756 0.79111 0.86833 0.0
H184 H 0.61857 0.22889 0.56416 0.0
N185 N 0.50735 0.12296 0.84364 0.0
C186 C 0.52181 0.16105 0.79915 0.0
C187 C 0.45222 0.16018 0.94391 0.0
C188 C 0.50238 0.20023 0.82846 0.0
C189 C 0.47476 0.1227 0.92108 0.0
C190 C 0.46603 0.19896 0.8969 0.0
N191 N 0.57426 0.12299 0.69548 0.0
C192 C 0.6054 0.12175 0.61483 0.0
C193 C 0.57226 0.20054 0.6796 0.0
C194 C 0.55652 0.16123 0.72504 0.0
C195 C 0.6057 0.19944 0.60097 0.0
C196 C 0.62197 0.15976 0.56738 0.0
H197 H 0.44913 0.22788 0.91662 0.0
H198 H 0.50682 0.26978 0.81724 0.0
H199 H 0.56684 0.27021 0.68313 0.0
O200 O 0.60311 0.10139 0.88172 0.0
O201 O 0.51343 0.08483 0.64367 0.0
O202 O 0.52238 0.02935 0.51773 0.0
O203 O 0.55362 0.07491 0.98872 0.0
O204 O 0.60709 0.03199 0.70321 0.0
O205 O 0.57742 0.97654 0.59291 0.0
O206 O 0.47007 0.96783 0.46199 0.0
O207 O 0.52192 0.95065 0.80922 0.0
O208 O 0.57767 0.99606 0.85545 0.0
O209 O 0.50966 0.91465 0.5082 0.0
O210 O 0.45577 0.02107 0.70468 0.0
O211 O 0.48771 0.03183 0.87422 0.0
C212 C 0.51625 0.0709 0.5373 0.0
C213 C 0.62436 0.07895 0.05941 0.0
C214 C 0.66975 0.01764 0.08696 0.0
C215 C 0.70318 0.04514 0.12557 0.0
C216 C 0.65729 0.10672 0.0995 0.0
C217 C 0.69632 0.08955 0.13596 0.0
C218 C 0.62974 0.03438 0.0633 0.0
C219 C 0.6117 1.001 0.62511 0.0
C220 C 0.59059 0.09526 0.98554 0.0
C221 C 0.51999 0.23941 0.79007 0.0
C222 C 0.55447 0.23964 0.71464 0.0
C223 C 0.55607 0.95955 0.87214 0.0
C224 C 0.45155 0.90035 0.37812 0.0
C225 C 0.37485 0.89451 0.35854 0.0
C226 C 0.3784 0.8828 0.24382 0.0
C227 C 0.45508 0.89024 0.26202 0.0
C228 C 0.4114 0.89521 0.42831 0.0
C229 C 0.41903 0.87833 0.19717 0.0
C230 C 0.4515 0.02859 0.81519 0.0
C231 C 0.48365 0.92986 0.43243 0.0
H232 H 0.73465 0.03243 0.14417 0.0
H233 H 0.6537 0.14145 0.09647 0.0
H234 H 0.72215 0.11086 0.16491 0.0
H235 H 0.60424 1.01274 0.0369 0.0
H236 H 0.35038 0.88135 0.18864 0.0
H237 H 0.48431 0.89515 0.21777 0.0
H238 H 0.4077 0.90317 0.5162 0.0
H239 H 0.42234 0.87068 0.1078 0.0
Eu240 Eu 0.57253 0.48795 0.61475 0.0
C241 C 0.41124 0.49959 0.90061 0.0
N242 N 0.42232 0.5145 0.79648 0.0
C243 C 0.35519 0.48755 0.71953 0.0
C244 C 0.37395 0.47361 0.91454 0.0
C245 C 0.39343 0.51151 0.70879 0.0
C246 C 0.34593 0.46745 0.82222 0.0
C247 C 0.43131 0.48821 0.09657 0.0
C248 C 0.43839 0.50881 0.99273 0.0
C249 C 0.39507 0.46127 0.10905 0.0
C250 C 0.36601 0.45449 1.01966 0.0
Eu251 Eu 0.48877 0.55317 0.78828 0.0
N252 N 0.47403 0.53431 0.97739 0.0
C253 C 0.46196 0.4937 0.18305 0.0
C254 C 0.50141 0.54364 0.06561 0.0
C255 C 0.49624 0.52273 0.16936 0.0
H256 H 0.39781 0.53031 0.63364 0.0
H257 H 0.51961 0.52747 0.23684 0.0
H258 H 0.6394 0.42888 0.78176 0.0
H259 H 0.64356 0.59495 0.29236 0.0
H260 H 0.52833 0.56565 0.05521 0.0
H261 H 0.45988 0.47516 0.25992 0.0
H262 H 0.59954 0.53226 0.35751 0.0
H263 H 0.33263 0.48524 0.64917 0.0
H264 H 0.38874 0.4463 0.18847 0.0
H265 H 0.33776 0.43416 0.03257 0.0
H266 H 0.70699 0.44036 0.89045 0.0
H267 H 0.31658 0.44837 0.83033 0.0
H268 H 0.69649 0.62984 0.42256 0.0
N269 N 0.64152 0.49118 0.70622 0.0
C270 C 0.66575 0.52713 0.68746 0.0
C271 C 0.69539 0.46544 0.83503 0.0
C272 C 0.70411 0.53551 0.74851 0.0
C273 C 0.6574 0.45885 0.77255 0.0
C274 C 0.71782 0.50478 0.82651 0.0
N275 N 0.62297 0.53666 0.52736 0.0
C276 C 0.62232 0.54781 0.41505 0.0
C277 C 0.68309 0.58547 0.55991 0.0
C278 C 0.65559 0.55142 0.5945 0.0
C279 C 0.67657 0.60325 0.45237 0.0
C280 C 0.64734 0.583 0.37778 0.0
H281 H 0.74687 0.51025 0.87546 0.0
H282 H 0.75827 0.57997 0.77073 0.0
H283 H 0.73943 0.62431 0.60507 0.0
O284 O 0.56736 0.45574 0.44929 0.0
O285 O 0.55709 0.55685 0.54896 0.0
O286 O 0.54281 0.59492 0.7087 0.0
O287 O 0.61011 0.43069 0.57418 0.0
O288 O 0.50177 0.48418 0.54312 0.0
O289 O 0.47399 0.54801 0.60192 0.0
O290 O 0.46919 0.61057 0.88189 0.0
O291 O 0.49036 0.47872 0.83425 0.0
O292 O 0.53922 0.43835 0.73443 0.0
O293 O 0.44291 0.59775 0.71419 0.0
O294 O 0.55693 0.5597 0.86725 0.0
O295 O 0.58169 0.49423 0.81047 0.0
C296 C 0.55446 0.59479 0.60071 0.0
C297 C 0.57059 0.38053 0.46587 0.0
C298 C 0.50567 0.3357 0.46096 0.0
C299 C 0.53054 0.30011 0.42889 0.0
C300 C 0.59498 0.34509 0.43244 0.0
C301 C 0.57503 0.30472 0.41642 0.0
C302 C 0.52644 0.37499 0.4865 0.0
C303 C 0.47279 0.51502 0.53286 0.0
C304 C 0.59082 0.42338 0.47848 0.0
C305 C 0.72912 0.57241 0.72308 0.0
C306 C 0.7184 0.59765 0.6288 0.0
C307 C 0.50915 0.44112 0.81344 0.0
C308 C 0.39961 0.63694 0.84167 0.0
C309 C 0.3717 0.68136 0.99055 0.0
C310 C 0.33553 0.65412 0.99951 0.0
C311 C 0.36357 0.60913 0.8495 0.0
C312 C 0.39884 0.67671 0.89682 0.0
C313 C 0.33038 0.61906 0.92462 0.0
C314 C 0.58436 0.52781 0.88071 0.0
C315 C 0.44198 0.62251 0.80344 0.0
H316 H 0.51541 0.26909 0.41015 0.0
H317 H 0.62922 0.34873 0.41824 0.0
H318 H 0.59384 0.27731 0.39052 0.0
H319 H 0.5076 0.40195 0.51515 0.0
H320 H 0.3138 0.65773 0.06941 0.0
H321 H 0.36184 0.57917 0.80313 0.0
H322 H 0.42683 0.69805 0.88986 0.0
H323 H 0.30318 0.59708 0.93318 0.0
Eu324 Eu 0.02825 0.57913 0.63126 0.0
C325 C 0.09198 0.4101 0.90835 0.0
N326 N 0.07486 0.42627 0.80966 0.0
C327 C 0.12272 0.38268 0.70072 0.0
C328 C 0.12874 0.38303 0.90626 0.0
C329 C 0.09038 0.41318 0.70755 0.0
C330 C 0.14166 0.36742 0.79985 0.0
C331 C 0.12255 0.42459 0.12866 0.0
C332 C 0.07778 0.42554 1.01045 0.0
C333 C 0.15423 0.39539 0.10858 0.0
C334 C 0.15492 0.37348 1.00328 0.0
Eu335 Eu 0.01306 0.47172 0.81362 0.0
N336 N 0.03691 0.46476 1.0131 0.0
C337 C 0.12258 0.46987 0.25108 0.0
C338 C 0.02964 0.5052 0.1206 0.0
C339 C 0.07323 0.51237 0.24766 0.0
H340 H 0.07773 0.42658 0.63123 0.0
H341 H 0.07122 0.53829 0.30924 0.0
H342 H 0.02793 0.66243 0.82561 0.0
H343 H 0.94248 0.5736 0.22523 0.0
H344 H 1.00323 0.52717 0.11592 0.0
H345 H 0.14793 0.47221 0.31436 0.0
H346 H 0.99883 0.55485 0.36332 0.0
H347 H 0.13411 0.37206 0.61859 0.0
H348 H 0.17946 0.39077 0.17087 0.0
H349 H 0.18118 0.35129 0.99221 0.0
H350 H 0.98174 0.72205 0.88022 0.0
H351 H 0.16832 0.3455 0.79259 0.0
H352 H 0.88884 0.62845 0.27498 0.0
N353 N 0.98533 0.6377 0.69608 0.0
C354 C 0.95166 0.64804 0.62668 0.0
C355 C 0.97218 0.7008 0.81073 0.0
C356 C 0.92569 0.68395 0.65143 0.0
C357 C 0.99762 0.66575 0.78147 0.0
C358 C 0.93532 0.70919 0.74751 0.0
N359 N 0.97448 0.59469 0.49508 0.0
C360 C 0.97469 0.57756 0.38768 0.0
C361 C 0.915 0.63962 0.44398 0.0
C362 C 0.94645 0.62631 0.52296 0.0
C363 C 0.91277 0.61934 0.33735 0.0
C364 C 0.94303 0.58847 0.30875 0.0
H365 H 0.91623 0.737 0.769 0.0
H366 H 0.8728 0.72303 0.59354 0.0
H367 H 0.86364 0.68441 0.41203 0.0
O368 O 0.08694 0.59577 0.53707 0.0
O369 O 0.96527 0.54086 0.59847 0.0
O370 O 0.94788 0.50118 0.75727 0.0
O371 O 0.03727 0.64244 0.55543 0.0
O372 O 0.04115 0.51952 0.51373 0.0
O373 O 1.0099 0.46168 0.60845 0.0
O374 O 0.97035 0.43048 0.91477 0.0
O375 O 0.08248 0.49886 0.83403 0.0
O376 O 0.08847 0.56497 0.74333 0.0
O377 O 0.99944 0.4054 0.76257 0.0
O378 O 0.99044 0.53441 0.90986 0.0
O379 O 0.03217 0.58739 0.82605 0.0
C380 C 0.93659 0.52045 0.66126 0.0
C381 C 0.10742 0.66906 0.57248 0.0
C382 C 0.18212 0.6888 0.604 0.0
C383 C 0.17067 0.72132 0.6805 0.0
C384 C 0.09552 0.70266 0.6469 0.0
C385 C 0.12711 0.72865 0.70024 0.0
C386 C 0.15036 0.6641 0.54749 0.0
C387 C 0.02477 0.47946 0.51107 0.0
C388 C 0.07664 0.63637 0.5281 0.0
C389 C 0.89305 0.69573 0.57531 0.0
C390 C 0.88796 0.67387 0.47162 0.0
C391 C 0.1046 0.53467 0.81042 0.0
C392 C 0.93202 0.37563 0.80897 0.0
C393 C 0.8557 0.36504 0.839 0.0
C394 C 0.8512 0.34409 0.73414 0.0
C395 C 0.92783 0.35372 0.70405 0.0
C396 C 0.89615 0.37909 0.87767 0.0
C397 C 0.88741 0.33848 0.66698 0.0
C398 C 1.00745 0.57445 0.91042 0.0
C399 C 0.9723 0.39793 0.84353 0.0
H400 H 0.19506 0.74031 0.72523 0.0
H401 H 0.06215 0.70841 0.66577 0.0
H402 H 0.11781 0.75352 0.75951 0.0
H403 H 0.15939 0.63875 0.48855 0.0
H404 H 0.81969 0.3349 0.70144 0.0
H405 H 0.95505 0.35069 0.64785 0.0
H406 H 0.89846 0.39709 0.95677 0.0
H407 H 0.88338 0.32539 0.58266 0.0
C408 C 0.13647 0.02582 0.21669 0.0
C409 C 0.16514 0.06207 0.20765 0.0
C410 C 0.12016 0.09846 0.35538 0.0
C411 C 0.0969 0.05938 0.37957 0.0
N412 N 0.08593 0.98421 0.3315 0.0
N413 N 0.17897 0.13593 0.26439 0.0
C414 C 0.10551 0.02286 0.30809 0.0
C415 C 0.15475 0.09921 0.27407 0.0
N416 N 0.14102 0.9928 0.14064 0.0
N417 N 0.11052 0.13537 0.41295 0.0
H418 H 0.20414 0.13906 0.20654 0.0
H419 H 0.20414 0.13906 0.20654 0.0
H420 H 0.08551 0.1367 0.47139 0.0
H421 H 0.12684 0.16462 0.39935 0.0
H422 H 0.11969 0.96663 0.13334 0.0
H423 H 0.16449 0.99408 0.07764 0.0
H424 H 0.09353 0.95519 0.29191 0.0
H425 H 0.06385 0.98062 0.39685 0.0
C426 C 0.53054 0.16277 0.3102 0.0
C427 C 0.48736 0.17166 0.27546 0.0
C428 C 0.46395 0.11156 0.40449 0.0
C429 C 0.50675 0.10223 0.43742 0.0
N430 N 0.57956 0.10648 0.37024 0.0
N431 N 0.41687 0.13789 0.25632 0.0
C432 C 0.5398 0.124 0.37459 0.0
C433 C 0.45564 0.14023 0.31119 0.0
N434 N 0.56285 0.19151 0.28709 0.0
N435 N 0.4305 0.09387 0.46318 0.0
H436 H 0.40953 0.15779 0.18804 0.0
H437 H 0.39408 0.11355 0.27187 0.0
H438 H 0.43473 0.07164 0.52832 0.0
H439 H 0.39899 0.10404 0.45177 0.0
H440 H 0.59396 0.18801 0.31902 0.0
H441 H 0.55774 0.22026 0.24421 0.0
H442 H 0.60403 0.11902 0.31934 0.0
H443 H 0.5859 0.0767 0.40737 0.0
C444 C 0.38876 0.55529 0.3096 0.0
C445 C 0.35795 0.52077 0.30493 0.0
C446 C 0.40446 0.48026 0.43981 0.0
C447 C 0.43567 0.51466 0.44474 0.0
N448 N 0.45508 0.58689 0.38296 0.0
N449 N 0.3347 0.4528 0.38595 0.0
C450 C 0.42682 0.55269 0.37952 0.0
C451 C 0.36555 0.48417 0.37485 0.0
N452 N 0.37862 0.59317 0.25768 0.0
N453 N 0.41008 0.44429 0.50386 0.0
H454 H 0.30558 0.45233 0.3412 0.0
H455 H 0.30558 0.45233 0.3412 0.0
H456 H 0.43725 0.43995 0.55375 0.0
H457 H 0.38747 0.41902 0.50681 0.0
H458 H 0.39219 0.62301 0.28001 0.0
H459 H 0.35398 0.59521 0.19738 0.0
H460 H 0.45495 0.61222 0.32539 0.0
H461 H 0.47969 0.58997 0.44217 0.0
C462 C 0.97899 0.4268 0.22102 0.0
C463 C 0.0183 0.41353 0.16638 0.0
C464 C 0.05444 0.43752 0.32527 0.0
C465 C 0.01971 0.45581 0.38927 0.0
N466 N 0.94553 0.47461 0.35911 0.0
N467 N 0.09403 0.48539 0.09038 0.0
C468 C 0.98073 0.45327 0.32391 0.0
C469 C 0.05624 0.44266 0.19415 0.0
N470 N 0.94096 0.40955 0.18345 0.0
N471 N 0.08024 0.40868 0.37779 0.0
H472 H 0.11903 0.50926 0.08638 0.0
H473 H 0.11903 0.50926 0.08638 0.0
H474 H 0.10255 0.3907 0.33261 0.0
H475 H 0.07536 0.4 0.46195 0.0
H476 H 0.91199 0.41384 0.22585 0.0
H477 H 0.9399 0.3889 0.11306 0.0
H478 H 0.91744 0.47604 0.31054 0.0
H479 H 0.94655 0.49376 0.43174 0.0
C480 C 0.88045 0.03375 0.09246 0.0
C481 C 0.86804 0.99005 0.11477 0.0
C482 C 0.92561 0.96736 0.97705 0.0
C483 C 0.93857 1.01107 0.95706 0.0
N484 N 0.93483 0.08456 1.02324 0.0
N485 N 0.88363 0.91567 0.09073 0.0
C486 C 0.91783 0.0437 1.02324 0.0
C487 C 0.89283 0.95722 0.06037 0.0
N488 N 0.85497 0.06622 0.13015 0.0
N489 N 0.94289 0.93546 0.91189 0.0
H490 H 0.90008 0.88854 0.06316 0.0
H491 H 0.90008 0.88854 0.06316 0.0
H492 H 0.96814 0.94099 0.85613 0.0
H493 H 0.93067 0.90403 0.90654 0.0
H494 H 0.85912 0.09831 0.10585 0.0
H495 H 0.82736 0.06057 0.17768 0.0
H496 H 0.92501 0.10875 0.07878 0.0
H497 H 0.96194 0.09283 0.97605 0.0
C498 C 0.58972 0.85321 1.02443 0.0
C499 C 0.57221 0.85844 0.13506 0.0
C500 C 0.55339 0.93355 0.08206 0.0
C501 C 0.56812 0.92778 0.96865 0.0
N502 N 0.6188 0.88903 0.85611 0.0
N503 N 0.5591 0.91094 0.27955 0.0
C504 C 0.59214 0.88962 0.94727 0.0
C505 C 0.56126 0.9011 0.16686 0.0
N506 N 0.60429 0.81361 0.99336 0.0
N507 N 0.5307 0.9694 0.10938 0.0
H508 H 0.56515 0.8879 0.34188 0.0
H509 H 0.55645 0.94262 0.30901 0.0
H510 H 0.52487 0.99387 0.05114 0.0
H511 H 0.51576 0.97338 0.18772 0.0
H512 H 0.61582 0.80654 0.91265 0.0
H513 H 0.60398 0.78757 0.04931 0.0
H514 H 0.63978 0.86397 0.83919 0.0
H515 H 0.62288 0.91624 0.80528 0.0
C516 C 0.67805 0.56278 0.09398 0.0
C517 C 0.68095 0.52703 0.16825 0.0
C518 C 0.62454 0.49049 0.0513 0.0
C519 C 0.61745 0.52795 0.98191 0.0
N520 N 0.63838 0.6026 0.95051 0.0
N521 N 0.64662 0.46254 0.23498 0.0
C522 C 0.64387 0.56532 1.00934 0.0
C523 C 0.64975 0.49365 0.15382 0.0
N524 N 0.71076 0.59247 0.10053 0.0
N525 N 0.61156 0.45033 1.01596 0.0
H526 H 0.66554 0.46379 0.30874 0.0
H527 H 0.62245 0.43873 0.23378 0.0
H528 H 0.59467 0.44384 0.94158 0.0
H529 H 0.62115 0.42225 0.05684 0.0
H530 H 0.7149 0.61813 0.0445 0.0
H531 H 0.7149 0.61813 0.0445 0.0
H532 H 0.65156 0.63225 0.97643 0.0
H533 H 0.61937 0.60418 0.8779 0.0
C534 C 0.0404 0.64899 0.17192 0.0
C535 C 1.00702 0.67982 0.17368 0.0
C536 C 0.96763 0.63238 0.03181 0.0
C537 C 1.00423 0.60588 1.01496 0.0
N538 N 0.07657 0.59098 0.07291 0.0
N539 N 0.93537 0.69633 0.10922 0.0
C540 C 0.04059 0.61457 0.08782 0.0
C541 C 0.96968 0.66978 0.10628 0.0
N542 N 0.07293 0.65374 0.24976 0.0
N543 N 0.9308 0.62338 0.97218 0.0
H544 H 0.93408 0.7236 0.16177 0.0
H545 H 0.93408 0.7236 0.16177 0.0
H546 H 0.92782 0.59671 0.91777 0.0
H547 H 0.90335 0.64212 0.97952 0.0
H548 H 0.09675 0.63109 0.26303 0.0
H549 H 0.07351 0.679 0.30907 0.0
H550 H 0.10558 0.59675 0.11531 0.0
H551 H 0.07771 0.56639 1.01268 0.0
C552 C 0.92691 0.28809 0.31163 0.0
C553 C 0.97129 0.28448 0.33638 0.0
C554 C 0.95466 0.26264 0.52893 0.0
C555 C 0.91163 0.25545 0.49375 0.0
N556 N 0.85384 0.26719 0.36287 0.0
N557 N 0.02873 0.27354 0.47091 0.0
C558 C 0.89653 0.27137 0.38929 0.0
C559 C 0.98573 0.27415 0.4468 0.0
N560 N 0.91536 0.30807 0.2135 0.0
N561 N 0.96522 0.25719 0.64033 0.0
H562 H 0.05206 0.28193 0.41127 0.0
H563 H 0.04135 0.26267 0.5475 0.0
H564 H 0.94181 0.24905 0.69994 0.0
H565 H 0.99517 0.26554 0.67455 0.0
H566 H 0.88389 0.31506 0.19004 0.0
H567 H 0.88389 0.31506 0.19004 0.0
H568 H 0.84085 0.27294 0.28279 0.0
H569 H 0.83147 0.25652 0.42272 0.0
C570 C 0.2649 0.94137 0.3784 0.0
C571 C 0.27763 0.98544 0.38495 0.0
C572 C 0.35041 0.96865 0.40544 0.0
C573 C 0.34025 0.92382 0.38941 0.0
N574 N 0.28606 0.86686 0.38406 0.0
N575 N 0.32419 0.03693 0.47454 0.0
C576 C 0.29676 0.90972 0.38709 0.0
C577 C 0.31707 0.9963 0.43314 0.0
N578 N 0.22352 0.92924 0.35599 0.0
N579 N 0.38841 0.98636 0.37008 0.0
H580 H 0.29897 0.05862 0.48235 0.0
H581 H 0.35376 0.04682 0.50861 0.0
H582 H 0.40944 0.96968 0.31819 0.0
H583 H 0.39493 0.01949 0.37438 0.0
H584 H 0.19868 0.95133 0.34843 0.0
H585 H 0.19868 0.95133 0.34843 0.0
H586 H 0.25413 0.85594 0.37902 0.0
H587 H 0.30916 0.84294 0.3906 0.0
C588 C 0.39249 0.33718 0.345 0.0
C589 C 0.38943 0.29245 0.35295 0.0
C590 C 0.43733 0.29654 0.51375 0.0
C591 C 0.45793 0.33191 0.45763 0.0
N592 N 0.45034 0.38822 0.31437 0.0
N593 N 0.37366 0.24879 0.51506 0.0
C594 C 0.43315 0.35535 0.37629 0.0
C595 C 0.3987 0.2794 0.46467 0.0
N596 N 0.36215 0.35862 0.2861 0.0
N597 N 0.45603 0.27834 0.60583 0.0
H598 H 0.34686 0.23565 0.47232 0.0
H599 H 0.37853 0.23862 0.59834 0.0
H600 H 0.48345 0.29262 0.64219 0.0
H601 H 0.44427 0.25032 0.64407 0.0
H602 H 0.36425 0.39161 0.2742 0.0
H603 H 0.33455 0.34261 0.25526 0.0
H604 H 0.43546 0.39844 0.24023 0.0
H605 H 0.48061 0.40192 0.32895 0.0
C606 C 0.23871 0.60004 0.54752 0.0
C607 C 0.24655 0.6108 0.43194 0.0
C608 C 0.24283 0.68756 0.47964 0.0
C609 C 0.22653 0.67577 0.58586 0.0
N610 N 0.2331 0.62741 0.74118 0.0
N611 N 0.27374 0.66662 0.30428 0.0
C612 C 0.23454 0.63418 0.62724 0.0
C613 C 0.25455 0.65488 0.40293 0.0
N614 N 0.23263 0.55801 0.57926 0.0
N615 N 0.24393 0.72993 0.44936 0.0
H616 H 0.28598 0.64448 0.24637 0.0
H617 H 0.28598 0.64448 0.24637 0.0
H618 H 0.2347 0.7541 0.50623 0.0
H619 H 0.25425 0.74013 0.36947 0.0
H620 H 0.2234 0.54905 0.66084 0.0
H621 H 0.23366 0.53228 0.52169 0.0
H622 H 0.24091 0.59811 0.77844 0.0
H623 H 0.22778 0.65311 0.79708 0.0
C624 C 0.07627 0.81708 0.93597 0.0
C625 C 0.09131 0.80412 0.04428 0.0
C626 C 0.16343 0.83186 1.00272 0.0
C627 C 0.1477 0.84731 0.89815 0.0
N628 N 0.09536 0.84226 0.74799 0.0
N629 N 0.15226 0.78963 0.16846 0.0
C630 C 0.10604 0.83548 0.85896 0.0
C631 C 0.13567 0.80789 0.0731 0.0
N632 N 0.03342 0.81434 0.90953 0.0
N633 N 0.20464 0.84098 0.03711 0.0
H634 H 0.13453 0.77007 0.22355 0.0
H635 H 0.13453 0.77007 0.22355 0.0
H636 H 0.22641 0.85828 0.98719 0.0
H637 H 0.21677 0.83095 0.11542 0.0
H638 H 0.02009 0.82768 0.83661 0.0
H639 H 0.01051 0.80126 0.96432 0.0
H640 H 0.06677 0.83104 0.71081 0.0
H641 H 0.11765 0.85491 0.69074 0.0
C642 C 0.72815 0.92546 0.96009 0.0
C643 C 0.73101 0.90442 0.06552 0.0
C644 C 0.66784 0.9382 0.13036 0.0
C645 C 0.67813 0.97258 0.05525 0.0
N646 N 0.70644 0.99258 0.87119 0.0
N647 N 0.68053 0.8621 0.17071 0.0
C648 C 0.70371 0.96382 0.95807 0.0
C649 C 0.6902 0.89901 0.11406 0.0
N650 N 0.75038 0.9105 0.8695 0.0
N651 N 0.64473 0.94527 0.22617 0.0
H652 H 0.70074 0.83553 0.16588 0.0
H653 H 0.65283 0.8585 0.21905 0.0
H654 H 0.62959 0.9745 0.24211 0.0
H655 H 0.64325 0.92279 0.2917 0.0
H656 H 0.74806 0.92387 0.7887 0.0
H657 H 0.76931 0.88308 0.87715 0.0
H658 H 0.72725 0.9889 0.80293 0.0
H659 H 0.68766 0.02021 0.86932 0.0
C660 C 0.46707 0.71224 0.14567 0.0
C661 C 0.45572 0.75157 0.19829 0.0
C662 C 0.38073 0.73843 0.1456 0.0
C663 C 0.39309 0.69935 0.09342 0.0
N664 N 0.44269 0.64021 0.10034 0.0
N665 N 0.40114 0.78989 0.29497 0.0
C666 C 0.43425 0.68282 0.11701 0.0
C667 C 0.41197 0.76122 0.21292 0.0
N668 N 0.5086 0.70383 0.11724 0.0
N669 N 0.34085 0.75455 0.12722 0.0
H670 H 0.3694 0.79535 0.31846 0.0
H671 H 0.3694 0.79535 0.31846 0.0
H672 H 0.31758 0.73779 0.07928 0.0
H673 H 0.33219 0.78522 0.15528 0.0
H674 H 0.51717 0.67637 0.07138 0.0
H675 H 0.53348 0.72651 0.12727 0.0
H676 H 0.4721 0.62692 0.12282 0.0
H677 H 0.41888 0.61803 0.07443 0.0
C678 C 0.81293 0.45611 0.97087 0.0
C679 C 0.80201 0.43929 0.07823 0.0
C680 C 0.80859 0.36571 1.00519 0.0
C681 C 0.81919 0.38337 0.8987 0.0
N682 N 0.81275 0.44222 0.76911 0.0
N683 N 0.77927 0.37842 0.19251 0.0
C684 C 0.81397 0.42765 0.87786 0.0
C685 C 0.79646 0.39401 0.09417 0.0
N686 N 0.8233 0.49891 0.95868 0.0
N687 N 0.81224 0.32231 1.02118 0.0
H688 H 0.77034 0.39846 0.25951 0.0
H689 H 0.7713 0.34598 0.20468 0.0
H690 H 0.81993 0.30156 0.95419 0.0
H691 H 0.80881 0.30737 0.09966 0.0
H692 H 0.83491 0.51179 0.88295 0.0
H693 H 0.82369 0.52063 1.02698 0.0
H694 H 0.80688 0.4743 0.74845 0.0
H695 H 0.81276 0.42063 0.70089 0.0
C696 C 0.97293 0.23298 0.92472 0.0
C697 C 0.01218 0.25684 0.94208 0.0
C698 C 0.04413 0.20493 0.80178 0.0
C699 C 1.00848 0.17453 0.8084 0.0
N700 N 0.93489 0.16633 0.87731 0.0
N701 N 0.08598 0.26471 0.88823 0.0
C702 C 0.97173 0.19067 0.86954 0.0
C703 C 0.04795 0.24245 0.87773 0.0
N704 N 0.93564 0.25216 0.95681 0.0
N705 N 0.0726 0.20059 0.71511 0.0
H706 H 0.08932 0.29221 0.9395 0.0
H707 H 0.11436 0.25489 0.85026 0.0
H708 H 0.06839 0.17749 0.65103 0.0
H709 H 0.0966 0.22343 0.69778 0.0
H710 H 0.90514 0.24008 0.93558 0.0
H711 H 0.93539 0.28321 0.992 0.0
H712 H 0.91069 0.17316 0.93517 0.0
H713 H 0.92825 0.13843 0.8312 0.0
C714 C 0.3392 0.07076 0.93642 0.0
C715 C 0.32198 0.03442 0.99782 0.0
C716 C 0.39032 0.99628 0.94404 0.0
C717 C 0.40599 0.03077 0.87501 0.0
N718 N 0.38725 0.09796 0.78732 0.0
N719 N 0.32762 0.95709 1.01477 0.0
C720 C 0.37764 0.06688 0.86508 0.0
C721 C 0.3466 0.99563 0.98681 0.0
N722 N 0.32042 0.10988 0.94978 0.0
N723 N 0.41724 0.96362 0.97126 0.0
H724 H 0.29531 0.95467 0.03775 0.0
H725 H 0.34237 0.92745 1.00262 0.0
H726 H 0.44877 0.96214 0.94223 0.0
H727 H 0.40907 0.94006 0.03023 0.0
H728 H 0.33379 0.13849 0.91858 0.0
H729 H 0.29323 0.11402 0.99964 0.0
H730 H 0.3665 0.12291 0.76745 0.0
H731 H 0.41458 0.09662 0.73655 0.0
C732 C 0.45617 0.3304 0.91794 0.0
C733 C 0.48086 0.31976 1.01813 0.0
C734 C 0.51329 0.39417 0.9993 0.0
C735 C 0.49735 0.39998 0.88625 0.0
N736 N 0.45042 0.37145 0.7412 0.0
N737 N 0.53611 0.3451 0.14779 0.0
C738 C 0.46829 0.36693 0.8463 0.0
C739 C 0.51072 0.35261 0.05537 0.0
N740 N 0.41938 0.30729 0.89401 0.0
N741 N 0.52716 0.42946 0.05913 0.0
H742 H 0.53522 0.31583 0.19097 0.0
H743 H 0.56058 0.36642 0.17419 0.0
H744 H 0.52787 0.46009 1.0232 0.0
H745 H 0.53429 0.42872 0.14584 0.0
H746 H 0.3976 0.31557 0.83058 0.0
H747 H 0.40791 0.28246 0.94535 0.0
H748 H 0.42904 0.3493 0.70427 0.0
H749 H 0.45873 0.39706 0.68867 0.0
C750 C 0.19908 0.58367 1.00079 0.0
C751 C 0.21839 0.54511 0.04264 0.0
C752 C 0.17651 0.50598 0.89055 0.0
C753 C 0.14886 0.54175 0.87247 0.0
N754 N 0.13988 0.6187 0.90475 0.0
N755 N 0.22473 0.46804 1.01814 0.0
C756 C 0.16233 0.5819 0.92452 0.0
C757 C 0.20734 0.50594 0.98355 0.0
N758 N 0.21743 0.62259 0.03015 0.0
N759 N 0.17488 0.47273 0.81414 0.0
H760 H 0.24454 0.46562 0.0893 0.0
H761 H 0.21718 0.43832 0.98081 0.0
H762 H 0.15532 0.47385 0.74188 0.0
H763 H 0.19678 0.44767 0.81362 0.0
H764 H 0.20816 0.65208 0.9968 0.0
H765 H 0.24557 0.62483 0.07817 0.0
H766 H 0.14388 0.64682 0.95302 0.0
H767 H 0.11522 0.6212 0.84564 0.0
C768 C 0.06775 0.85062 0.45927 0.0
C769 C 0.02873 0.82872 0.42448 0.0
C770 C 0.99111 0.88155 0.55052 0.0
C771 C 0.02851 0.90925 0.56059 0.0
N772 N 0.10425 0.91704 0.52142 0.0
N773 N 0.95226 0.82329 0.44898 0.0
C774 C 0.06736 0.89258 0.51485 0.0
C775 C 0.99018 0.84396 0.4749 0.0
N776 N 0.10574 0.83021 0.44213 0.0
N777 N 0.95676 0.89016 0.61765 0.0
H778 H 0.92255 0.83292 0.47886 0.0
H779 H 0.95029 0.79684 0.39401 0.0
H780 H 0.95665 0.91658 0.67289 0.0
H781 H 0.93052 0.86919 0.62683 0.0
H782 H 0.13521 0.8418 0.47323 0.0
H783 H 0.10675 0.79892 0.40875 0.0
H784 H 0.13225 0.90927 0.47832 0.0
H785 H 0.10614 0.94678 0.56316 0.0
C786 C 0.71591 0.94613 0.49234 0.0
C787 C 0.73692 0.9802 0.43025 0.0
C788 C 0.68803 0.02805 0.54187 0.0
C789 C 0.65789 0.99357 0.56936 0.0
N790 N 0.64985 0.91567 0.56635 0.0
N791 N 0.73715 0.05737 0.40059 0.0
C792 C 0.67383 0.95151 0.54228 0.0
C793 C 0.72111 0.02226 0.456 0.0
N794 N 0.73687 0.90821 0.50667 0.0
N795 N 0.68956 0.06472 0.60617 0.0
H796 H 0.76129 0.0553 0.34017 0.0
H797 H 0.724 0.08796 0.41036 0.0
H798 H 0.67332 0.06723 0.68284 0.0
H799 H 0.71237 0.08927 0.59317 0.0
H800 H 0.72565 0.88364 0.55953 0.0
H801 H 0.76761 0.90371 0.4746 0.0
H802 H 0.6574 0.88497 0.53621 0.0
H803 H 0.6218 0.91706 0.61238 0.0
C804 C 0.56979 0.71896 0.53794 0.0
C805 C 0.57445 0.72174 0.41808 0.0
C806 C 0.56566 0.64177 0.41264 0.0
C807 C 0.56443 0.63814 0.5354 0.0
N808 N 0.58429 0.67774 0.70721 0.0
N809 N 0.59275 0.68235 0.25042 0.0
C810 C 0.57224 0.67805 0.59565 0.0
C811 C 0.57825 0.6819 0.35946 0.0
N812 N 0.56125 0.75533 0.59821 0.0
N813 N 0.55246 0.60856 0.34342 0.0
H814 H 0.60262 0.71101 0.21141 0.0
H815 H 0.59925 0.65426 0.20467 0.0
H816 H 0.54216 0.57863 0.37158 0.0
H817 H 0.54816 0.61219 0.25603 0.0
H818 H 0.55077 0.75352 0.68193 0.0
H819 H 0.5615 0.78594 0.56135 0.0
H820 H 0.59273 0.70585 0.75207 0.0
H821 H 0.59238 0.64958 0.74905 0.0
C822 C 0.82985 0.5502 0.5085 0.0
C823 C 0.8165 0.51016 0.45739 0.0
C824 C 0.87619 0.47484 0.56293 0.0
C825 C 0.89079 0.51492 0.61027 0.0
N826 N 0.86984 0.58643 0.66263 0.0
N827 N 0.81737 0.43286 0.47778 0.0
C828 C 0.86381 0.55127 0.59376 0.0
C829 C 0.83659 0.47211 0.4992 0.0
N830 N 0.81167 0.58756 0.47296 0.0
N831 N 0.90126 0.43941 0.57278 0.0
H832 H 0.787 0.43025 0.43983 0.0
H833 H 0.82898 0.40379 0.50861 0.0
H834 H 0.92939 0.4395 0.62116 0.0
H835 H 0.89608 0.41148 0.52433 0.0
H836 H 0.82112 0.61795 0.50279 0.0
H837 H 0.78824 0.58841 0.40957 0.0
H838 H 0.84901 0.6124 0.6644 0.0
H839 H 0.89335 0.58713 0.7264 0.0
loop_
_geom_bond_atom_site_label_1
_geom_bond_atom_site_label_2
_geom_bond_distance
_geom_bond_site_symmetry_2
_ccdc_geom_bond_type
H0 C3 0.931 . S
H1 C6 0.928 . S
H2 C8 0.930 . S
C3 H0 0.931 . S
C3 C4 1.413 . S
C3 C5 1.360 . S
C4 C3 1.413 . S
C4 C8 1.429 . S
C5 C3 1.360 . S
C5 C6 1.372 . S
C6 H1 0.928 . S
C6 C5 1.372 . S
C6 C7 1.404 . S
C7 C6 1.404 . S
C7 C8 1.391 . S
C8 H2 0.930 . S
C8 C4 1.429 . S
C8 C7 1.391 . S
H9 C12 0.931 . S
H10 C15 0.928 . S
H11 C17 0.930 . S
C12 H9 0.931 . S
C12 C13 1.413 . S
C12 C14 1.360 . S
C13 C12 1.413 . S
C13 C17 1.429 . S
C14 C12 1.360 . S
C14 C15 1.372 . S
C15 H10 0.928 . S
C15 C14 1.372 . S
C15 C16 1.404 . S
C16 C15 1.404 . S
C16 C17 1.391 . S
C17 H11 0.930 . S
C17 C13 1.429 . S
C17 C16 1.391 . S
H18 C21 0.931 . S
H19 C24 0.928 . S
H20 C26 0.930 . S
C21 H18 0.931 . S
C21 C22 1.413 . S
C21 C23 1.360 . S
C22 C21 1.413 . S
C22 C26 1.429 . S
C23 C21 1.360 . S
C23 C24 1.372 . S
C24 H19 0.928 . S
C24 C23 1.372 . S
C24 C25 1.404 . S
C25 C24 1.404 . S
C25 C26 1.391 . S
C26 H20 0.930 . S
C26 C22 1.429 . S
C26 C25 1.391 . S
H27 C30 0.931 . S
H28 C33 0.928 . S
H29 C35 0.930 . S
C30 H27 0.931 . S
C30 C31 1.413 . S
C30 C32 1.360 . S
C31 C30 1.413 . S
C31 C35 1.429 . S
C32 C30 1.360 . S
C32 C33 1.372 . S
C33 H28 0.928 . S
C33 C32 1.372 . S
C33 C34 1.404 . S
C34 C33 1.404 . S
C34 C35 1.391 . S
C35 H29 0.930 . S
C35 C31 1.429 . S
C35 C34 1.391 . S
H36 C39 0.931 . S
H37 C42 0.928 . S
H38 C44 0.930 . S
C39 H36 0.931 . S
C39 C40 1.413 . S
C39 C41 1.360 1_556 S
C40 C39 1.413 . S
C40 C44 1.429 . S
C41 C39 1.360 1_554 S
C41 C42 1.372 . S
C42 H37 0.928 . S
C42 C41 1.372 . S
C42 C43 1.404 . S
C43 C42 1.404 . S
C43 C44 1.391 1_554 S
C44 H38 0.930 . S
C44 C40 1.429 . S
C44 C43 1.391 1_556 S
H45 C48 0.931 . S
H46 C51 0.928 . S
H47 C53 0.930 . S
C48 H45 0.931 . S
C48 C49 1.413 . S
C48 C50 1.360 1_556 S
C49 C48 1.413 . S
C49 C53 1.429 . S
C50 C48 1.360 1_554 S
C50 C51 1.372 . S
C51 H46 0.928 . S
C51 C50 1.372 . S
C51 C52 1.404 . S
C52 C51 1.404 . S
C52 C53 1.391 1_554 S
C53 H47 0.930 . S
C53 C49 1.429 . S
C53 C52 1.391 1_556 S
H54 C57 0.931 . S
H55 C60 0.928 . S
H56 C62 0.930 . S
C57 H54 0.931 . S
C57 C58 1.413 . S
C57 C59 1.360 1_556 S
C58 C57 1.413 . S
C58 C62 1.429 . S
C59 C57 1.360 1_554 S
C59 C60 1.372 . S
C60 H55 0.928 . S
C60 C59 1.372 . S
C60 C61 1.404 . S
C61 C60 1.404 . S
C61 C62 1.391 1_554 S
C62 H56 0.930 . S
C62 C58 1.429 . S
C62 C61 1.391 1_556 S
H63 C66 0.931 . S
H64 C69 0.928 . S
H65 C71 0.930 . S
C66 H63 0.931 . S
C66 C67 1.413 1_556 S
C66 C68 1.360 . S
C67 C66 1.413 1_554 S
C67 C71 1.429 . S
C68 C66 1.360 . S
C68 C69 1.372 . S
C69 H64 0.928 . S
C69 C68 1.372 . S
C69 C70 1.404 1_556 S
C70 C69 1.404 1_554 S
C70 C71 1.391 . S
C71 H65 0.930 . S
C71 C67 1.429 . S
C71 C70 1.391 . S
Eu72 N101 2.600 . S
Eu72 N107 2.562 . S
Eu72 O116 2.462 . S
Eu72 O117 2.373 1_545 S
Eu72 O119 2.432 . S
Eu72 O120 2.291 1_655 S
Eu72 O124 2.335 . S
Eu72 O127 2.372 . S
Eu72 C136 2.787 . S
C73 N74 1.365 . S
C73 C76 1.405 . S
C73 C80 1.448 1_556 S
N74 C73 1.365 . S
N74 C77 1.318 1_545 S
N74 Eu83 2.600 1_545 S
C75 C77 1.394 1_545 S
C75 C78 1.367 . S
C75 H95 0.931 . S
C76 C73 1.405 . S
C76 C78 1.403 . S
C76 C82 1.439 1_556 S
C77 N74 1.318 1_565 S
C77 C75 1.394 1_565 S
C77 H88 0.934 . S
C78 C75 1.367 . S
C78 C76 1.403 . S
C78 H99 0.929 . S
C79 C80 1.430 . S
C79 C81 1.387 . S
C79 C85 1.404 . S
C80 C73 1.448 1_554 S
C80 C79 1.430 . S
C80 N84 1.351 1_554 S
C81 C79 1.387 . S
C81 C82 1.374 . S
C81 H96 0.931 . S
C82 C76 1.439 1_554 S
C82 C81 1.374 . S
C82 H97 0.931 . S
Eu83 N74 2.600 1_565 S
Eu83 N84 2.562 1_565 S
Eu83 O118 2.335 . S
Eu83 O121 2.372 . S
Eu83 O122 2.462 . S
Eu83 O123 2.373 1_565 S
Eu83 O125 2.432 . S
Eu83 O126 2.292 1_465 S
Eu83 C147 2.787 . S
N84 C80 1.351 1_556 S
N84 Eu83 2.562 1_545 S
N84 C86 1.325 1_556 S
C85 C79 1.404 . S
C85 C87 1.366 . S
C85 H93 0.930 . S
C86 N84 1.325 1_554 S
C86 C87 1.416 . S
C86 H92 0.929 . S
C87 C85 1.366 . S
C87 C86 1.416 . S
C87 H89 0.930 . S
H88 C77 0.934 . S
H89 C87 0.930 . S
H90 C105 0.930 . S
H91 C112 0.930 . S
H92 C86 0.929 . S
H93 C85 0.930 . S
H94 C108 0.929 1_445 S
H95 C75 0.931 . S
H96 C81 0.931 . S
H97 C82 0.931 . S
H98 C103 0.929 1_545 S
H99 C78 0.929 . S
H100 C111 0.930 . S
N101 Eu72 2.600 . S
N101 C102 1.365 1_545 S
N101 C105 1.319 . S
C102 N101 1.365 1_565 S
C102 C104 1.405 . S
C102 C110 1.448 . S
C103 H98 0.929 1_565 S
C103 C105 1.391 1_565 S
C103 C106 1.376 . S
C104 C102 1.405 . S
C104 C106 1.403 . S
C104 C137 1.439 . S
C105 H90 0.930 . S
C105 N101 1.319 . S
C105 C103 1.391 1_545 S
C106 C103 1.376 . S
C106 C104 1.403 . S
C106 H113 0.929 . S
N107 Eu72 2.562 . S
N107 C108 1.325 1_545 S
N107 C110 1.351 1_545 S
C108 H94 0.929 1_665 S
C108 N107 1.325 1_565 S
C108 C112 1.416 . S
C109 C110 1.430 . S
C109 C111 1.404 . S
C109 C138 1.387 . S
C110 C102 1.448 . S
C110 N107 1.351 1_565 S
C110 C109 1.430 . S
C111 H100 0.930 . S
C111 C109 1.404 . S
C111 C112 1.366 . S
C112 H91 0.930 . S
C112 C108 1.416 . S
C112 C111 1.366 . S
H113 C106 0.929 . S
H114 C137 0.931 . S
H115 C138 0.931 . S
O116 Eu72 2.462 . S
O116 C136 1.252 . S
O117 Eu72 2.373 1_565 S
O117 C128 1.249 . S
O118 Eu83 2.335 . S
O118 C128 1.264 1_455 S
O119 Eu72 2.432 . S
O119 C136 1.268 . S
O120 Eu72 2.291 1_455 S
O120 C135 1.255 . S
O121 Eu83 2.372 . S
O121 C135 1.257 1_565 S
O122 Eu83 2.462 . S
O122 C147 1.252 . S
O123 Eu83 2.373 1_545 S
O123 C139 1.249 . S
O124 Eu72 2.335 . S
O124 C139 1.264 1_655 S
O125 Eu83 2.432 . S
O125 C147 1.268 . S
O126 Eu83 2.292 1_645 S
O126 C146 1.255 . S
O127 Eu72 2.372 . S
O127 C146 1.257 . S
C128 O117 1.249 . S
C128 O118 1.264 1_655 S
C129 C132 1.382 . S
C129 C134 1.390 . S
C129 C136 1.506 . S
C130 C131 1.398 . S
C130 C134 1.392 . S
C131 C130 1.398 . S
C131 C133 1.372 . S
C131 H148 0.931 . S
C132 C129 1.382 . S
C132 C133 1.390 . S
C132 H149 0.931 . S
C133 C131 1.372 . S
C133 C132 1.390 . S
C133 H150 0.929 . S
C134 C129 1.390 . S
C134 C130 1.392 . S
C134 H151 0.930 . S
C135 O120 1.255 . S
C135 O121 1.257 1_545 S
C136 Eu72 2.787 . S
C136 O116 1.252 . S
C136 O119 1.268 . S
C136 C129 1.506 . S
C137 C104 1.439 . S
C137 H114 0.931 . S
C137 C138 1.374 . S
C138 C109 1.387 . S
C138 H115 0.931 . S
C138 C137 1.374 . S
C139 O123 1.249 . S
C139 O124 1.264 1_455 S
C140 C143 1.382 . S
C140 C144 1.390 1_556 S
C140 C147 1.506 . S
C141 C142 1.398 . S
C141 C144 1.392 . S
C142 C141 1.398 . S
C142 C145 1.372 . S
C142 H152 0.931 . S
C143 C140 1.382 . S
C143 C145 1.390 1_556 S
C143 H153 0.931 . S
C144 C140 1.390 1_554 S
C144 C141 1.392 . S
C144 H154 0.930 . S
C145 C142 1.372 . S
C145 C143 1.390 1_554 S
C145 H155 0.929 1_554 S
C146 O126 1.255 . S
C146 O127 1.257 . S
C147 Eu83 2.787 . S
C147 O122 1.252 . S
C147 O125 1.268 . S
C147 C140 1.506 . S
H148 C131 0.931 . S
H149 C132 0.931 . S
H150 C133 0.929 . S
H151 C134 0.930 . S
H152 C142 0.931 . S
H153 C143 0.931 . S
H154 C144 0.930 . S
H155 C145 0.929 1_556 S
Eu156 N185 2.600 . S
Eu156 N191 2.562 . S
Eu156 O200 2.462 . S
Eu156 O201 2.373 . S
Eu156 O203 2.432 . S
Eu156 O204 2.291 . S
Eu156 O208 2.335 1_545 S
Eu156 O211 2.372 . S
Eu156 C220 2.787 . S
C157 N158 1.365 . S
C157 C160 1.405 . S
C157 C164 1.448 . S
N158 C157 1.365 . S
N158 C161 1.319 . S
N158 Eu167 2.600 . S
C159 C161 1.397 . S
C159 C162 1.367 . S
C159 H179 0.931 . S
C160 C157 1.405 . S
C160 C162 1.403 . S
C160 C166 1.439 . S
C161 N158 1.319 . S
C161 C159 1.397 . S
C161 H172 0.930 . S
C162 C159 1.367 . S
C162 C160 1.403 . S
C162 H183 0.929 . S
C163 C164 1.430 . S
C163 C165 1.387 . S
C163 C169 1.404 . S
C164 C157 1.448 . S
C164 C163 1.430 . S
C164 N168 1.351 . S
C165 C163 1.387 . S
C165 C166 1.374 . S
C165 H180 0.931 . S
C166 C160 1.439 . S
C166 C165 1.374 . S
C166 H181 0.931 . S
Eu167 N158 2.600 . S
Eu167 N168 2.562 . S
Eu167 O202 2.335 1_565 S
Eu167 O205 2.372 . S
Eu167 O206 2.462 . S
Eu167 O207 2.373 . S
Eu167 O209 2.432 . S
Eu167 O210 2.291 . S
Eu167 C231 2.787 . S
N168 C164 1.351 . S
N168 Eu167 2.562 . S
N168 C170 1.325 . S
C169 C163 1.404 . S
C169 C171 1.366 . S
C169 H177 0.930 . S
C170 N168 1.325 . S
C170 C171 1.416 . S
C170 H176 0.929 . S
C171 C169 1.366 . S
C171 C170 1.416 . S
C171 H173 0.930 . S
H172 C161 0.930 . S
H173 C171 0.930 . S
H174 C189 0.930 . S
H175 C196 0.930 . S
H176 C170 0.929 . S
H177 C169 0.930 . S
H178 C192 0.929 . S
H179 C159 0.931 . S
H180 C165 0.931 . S
H181 C166 0.931 . S
H182 C187 0.931 . S
H183 C162 0.929 . S
H184 C195 0.930 . S
N185 Eu156 2.600 . S
N185 C186 1.365 . S
N185 C189 1.319 . S
C186 N185 1.365 . S
C186 C188 1.405 . S
C186 C194 1.448 . S
C187 H182 0.931 . S
C187 C189 1.397 . S
C187 C190 1.367 . S
C188 C186 1.405 . S
C188 C190 1.403 . S
C188 C221 1.439 . S
C189 H174 0.930 . S
C189 N185 1.319 . S
C189 C187 1.397 . S
C190 C187 1.367 . S
C190 C188 1.403 . S
C190 H197 0.929 . S
N191 Eu156 2.562 . S
N191 C192 1.325 . S
N191 C194 1.351 . S
C192 H178 0.929 . S
C192 N191 1.325 . S
C192 C196 1.416 . S
C193 C194 1.430 . S
C193 C195 1.404 . S
C193 C222 1.387 . S
C194 C186 1.448 . S
C194 N191 1.351 . S
C194 C193 1.430 . S
C195 H184 0.930 . S
C195 C193 1.404 . S
C195 C196 1.366 . S
C196 H175 0.930 . S
C196 C192 1.416 . S
C196 C195 1.366 . S
H197 C190 0.929 . S
H198 C221 0.931 . S
H199 C222 0.931 . S
O200 Eu156 2.462 . S
O200 C220 1.252 . S
O201 Eu156 2.373 . S
O201 C212 1.249 . S
O202 Eu167 2.335 1_545 S
O202 C212 1.264 . S
O203 Eu156 2.432 . S
O203 C220 1.268 . S
O204 Eu156 2.291 . S
O204 C219 1.255 1_545 S
O205 Eu167 2.372 . S
O205 C219 1.257 . S
O206 Eu167 2.462 . S
O206 C231 1.252 . S
O207 Eu167 2.373 . S
O207 C223 1.249 . S
O208 Eu156 2.335 1_565 S
O208 C223 1.264 . S
O209 Eu167 2.432 . S
O209 C231 1.268 . S
O210 Eu167 2.291 . S
O210 C230 1.255 1_565 S
O211 Eu156 2.372 . S
O211 C230 1.257 . S
C212 O201 1.249 . S
C212 O202 1.264 . S
C213 C216 1.382 . S
C213 C218 1.390 . S
C213 C220 1.506 1_554 S
C214 C215 1.398 . S
C214 C218 1.392 . S
C215 C214 1.398 . S
C215 C217 1.372 . S
C215 H232 0.931 . S
C216 C213 1.382 . S
C216 C217 1.390 . S
C216 H233 0.931 . S
C217 C215 1.372 . S
C217 C216 1.390 . S
C217 H234 0.929 . S
C218 C213 1.390 . S
C218 C214 1.392 . S
C218 H235 0.924 1_554 S
C219 O204 1.255 1_565 S
C219 O205 1.257 . S
C220 Eu156 2.787 . S
C220 O200 1.252 . S
C220 O203 1.268 . S
C220 C213 1.506 1_556 S
C221 C188 1.439 . S
C221 H198 0.931 . S
C221 C222 1.374 . S
C222 C193 1.387 . S
C222 H199 0.931 . S
C222 C221 1.374 . S
C223 O207 1.249 . S
C223 O208 1.264 . S
C224 C227 1.382 . S
C224 C228 1.390 . S
C224 C231 1.506 . S
C225 C226 1.398 . S
C225 C228 1.392 . S
C226 C225 1.398 . S
C226 C229 1.372 . S
C226 H236 0.931 . S
C227 C224 1.382 . S
C227 C229 1.390 . S
C227 H237 0.931 . S
C228 C224 1.390 . S
C228 C225 1.392 . S
C228 H238 0.930 . S
C229 C226 1.372 . S
C229 C227 1.390 . S
C229 H239 0.929 . S
C230 O210 1.255 1_545 S
C230 O211 1.257 . S
C231 Eu167 2.787 . S
C231 O206 1.252 . S
C231 O209 1.268 . S
C231 C224 1.506 . S
H232 C215 0.931 . S
H233 C216 0.931 . S
H234 C217 0.929 . S
H235 C218 0.924 1_556 S
H236 C226 0.931 . S
H237 C227 0.931 . S
H238 C228 0.930 . S
H239 C229 0.929 . S
Eu240 N269 2.600 . S
Eu240 N275 2.562 . S
Eu240 O284 2.462 . S
Eu240 O285 2.373 . S
Eu240 O287 2.432 . S
Eu240 O288 2.291 . S
Eu240 O292 2.335 . S
Eu240 O295 2.372 . S
Eu240 C304 2.787 . S
C241 N242 1.365 . S
C241 C244 1.405 . S
C241 C248 1.448 1_556 S
N242 C241 1.365 . S
N242 C245 1.319 . S
N242 Eu251 2.600 . S
C243 C245 1.397 . S
C243 C246 1.367 . S
C243 H263 0.931 . S
C244 C241 1.405 . S
C244 C246 1.403 . S
C244 C250 1.439 1_556 S
C245 N242 1.319 . S
C245 C243 1.397 . S
C245 H256 0.930 . S
C246 C243 1.367 . S
C246 C244 1.403 . S
C246 H267 0.929 . S
C247 C248 1.430 . S
C247 C249 1.387 . S
C247 C253 1.404 . S
C248 C241 1.448 1_554 S
C248 C247 1.430 . S
C248 N252 1.351 1_554 S
C249 C247 1.387 . S
C249 C250 1.374 . S
C249 H264 0.931 . S
C250 C244 1.439 1_554 S
C250 C249 1.374 . S
C250 H265 0.931 . S
Eu251 N242 2.600 . S
Eu251 N252 2.562 . S
Eu251 O286 2.335 . S
Eu251 O289 2.372 . S
Eu251 O290 2.462 . S
Eu251 O291 2.373 . S
Eu251 O293 2.432 . S
Eu251 O294 2.291 . S
Eu251 C315 2.787 . S
N252 C248 1.351 1_556 S
N252 Eu251 2.562 . S
N252 C254 1.325 1_556 S
C253 C247 1.404 . S
C253 C255 1.366 . S
C253 H261 0.930 . S
C254 N252 1.325 1_554 S
C254 C255 1.416 . S
C254 H260 0.929 . S
C255 C253 1.366 . S
C255 C254 1.416 . S
C255 H257 0.930 . S
H256 C245 0.930 . S
H257 C255 0.930 . S
H258 C273 0.930 . S
H259 C280 0.930 . S
H260 C254 0.929 . S
H261 C253 0.930 . S
H262 C276 0.929 . S
H263 C243 0.931 . S
H264 C249 0.931 . S
H265 C250 0.931 . S
H266 C271 0.931 . S
H267 C246 0.929 . S
H268 C279 0.930 . S
N269 Eu240 2.600 . S
N269 C270 1.365 . S
N269 C273 1.319 . S
C270 N269 1.365 . S
C270 C272 1.405 . S
C270 C278 1.448 . S
C271 H266 0.931 . S
C271 C273 1.397 . S
C271 C274 1.367 . S
C272 C270 1.405 . S
C272 C274 1.403 . S
C272 C305 1.439 . S
C273 H258 0.930 . S
C273 N269 1.319 . S
C273 C271 1.397 . S
C274 C271 1.367 . S
C274 C272 1.403 . S
C274 H281 0.929 . S
N275 Eu240 2.562 . S
N275 C276 1.325 . S
N275 C278 1.351 . S
C276 H262 0.929 . S
C276 N275 1.325 . S
C276 C280 1.416 . S
C277 C278 1.430 . S
C277 C279 1.404 . S
C277 C306 1.387 . S
C278 C270 1.448 . S
C278 N275 1.351 . S
C278 C277 1.430 . S
C279 H268 0.930 . S
C279 C277 1.404 . S
C279 C280 1.366 . S
C280 H259 0.930 . S
C280 C276 1.416 . S
C280 C279 1.366 . S
H281 C274 0.929 . S
H282 C305 0.931 . S
H283 C306 0.931 . S
O284 Eu240 2.462 . S
O284 C304 1.252 . S
O285 Eu240 2.373 . S
O285 C296 1.249 . S
O286 Eu251 2.335 . S
O286 C296 1.264 . S
O287 Eu240 2.432 . S
O287 C304 1.268 . S
O288 Eu240 2.291 . S
O288 C303 1.255 . S
O289 Eu251 2.372 . S
O289 C303 1.257 . S
O290 Eu251 2.462 . S
O290 C315 1.252 . S
O291 Eu251 2.373 . S
O291 C307 1.249 . S
O292 Eu240 2.335 . S
O292 C307 1.264 . S
O293 Eu251 2.432 . S
O293 C315 1.268 . S
O294 Eu251 2.291 . S
O294 C314 1.255 . S
O295 Eu240 2.372 . S
O295 C314 1.257 . S
C296 O285 1.249 . S
C296 O286 1.264 . S
C297 C300 1.382 . S
C297 C302 1.390 . S
C297 C304 1.506 . S
C298 C299 1.398 . S
C298 C302 1.392 . S
C299 C298 1.398 . S
C299 C301 1.372 . S
C299 H316 0.931 . S
C300 C297 1.382 . S
C300 C301 1.390 . S
C300 H317 0.931 . S
C301 C299 1.372 . S
C301 C300 1.390 . S
C301 H318 0.929 . S
C302 C297 1.390 . S
C302 C298 1.392 . S
C302 H319 0.930 . S
C303 O288 1.255 . S
C303 O289 1.257 . S
C304 Eu240 2.787 . S
C304 O284 1.252 . S
C304 O287 1.268 . S
C304 C297 1.506 . S
C305 C272 1.439 . S
C305 H282 0.931 . S
C305 C306 1.374 . S
C306 C277 1.387 . S
C306 H283 0.931 . S
C306 C305 1.374 . S
C307 O291 1.249 . S
C307 O292 1.264 . S
C308 C311 1.382 . S
C308 C312 1.390 1_556 S
C308 C315 1.506 . S
C309 C310 1.398 . S
C309 C312 1.392 . S
C310 C309 1.398 . S
C310 C313 1.372 . S
C310 H320 0.931 . S
C311 C308 1.382 . S
C311 C313 1.390 1_556 S
C311 H321 0.931 . S
C312 C308 1.390 1_554 S
C312 C309 1.392 . S
C312 H322 0.930 . S
C313 C310 1.372 . S
C313 C311 1.390 1_554 S
C313 H323 0.929 1_554 S
C314 O294 1.255 . S
C314 O295 1.257 . S
C315 Eu251 2.787 . S
C315 O290 1.252 . S
C315 O293 1.268 . S
C315 C308 1.506 . S
H316 C299 0.931 . S
H317 C300 0.931 . S
H318 C301 0.929 . S
H319 C302 0.930 . S
H320 C310 0.931 . S
H321 C311 0.931 . S
H322 C312 0.930 . S
H323 C313 0.929 1_556 S
Eu324 N353 2.600 . S
Eu324 N359 2.562 . S
Eu324 O368 2.462 . S
Eu324 O369 2.373 1_455 S
Eu324 O371 2.432 . S
Eu324 O372 2.291 . S
Eu324 O376 2.335 . S
Eu324 O379 2.372 . S
Eu324 C388 2.787 . S
C325 N326 1.365 . S
C325 C328 1.405 . S
C325 C332 1.448 1_556 S
N326 C325 1.365 . S
N326 C329 1.319 1_455 S
N326 Eu335 2.600 1_455 S
C327 C329 1.397 1_455 S
C327 C330 1.367 . S
C327 H347 0.931 . S
C328 C325 1.405 . S
C328 C330 1.403 . S
C328 C334 1.439 1_556 S
C329 N326 1.319 1_655 S
C329 C327 1.397 1_655 S
C329 H340 0.930 . S
C330 C327 1.367 . S
C330 C328 1.403 . S
C330 H351 0.929 . S
C331 C332 1.430 . S
C331 C333 1.387 . S
C331 C337 1.404 . S
C332 C325 1.448 1_554 S
C332 C331 1.430 . S
C332 N336 1.351 1_554 S
C333 C331 1.387 . S
C333 C334 1.374 . S
C333 H348 0.931 . S
C334 C328 1.439 1_554 S
C334 C333 1.374 . S
C334 H349 0.931 . S
Eu335 N326 2.600 1_655 S
Eu335 N336 2.562 1_655 S
Eu335 O370 2.335 . S
Eu335 O373 2.372 . S
Eu335 O374 2.462 . S
Eu335 O375 2.373 1_655 S
Eu335 O377 2.432 . S
Eu335 O378 2.291 . S
Eu335 C399 2.787 . S
N336 C332 1.351 1_556 S
N336 Eu335 2.562 1_455 S
N336 C338 1.325 1_556 S
C337 C331 1.404 . S
C337 C339 1.366 . S
C337 H345 0.930 . S
C338 N336 1.325 1_554 S
C338 C339 1.416 . S
C338 H344 0.929 . S
C339 C337 1.366 . S
C339 C338 1.416 . S
C339 H341 0.930 . S
H340 C329 0.930 . S
H341 C339 0.930 . S
H342 C357 0.930 . S
H343 C364 0.930 . S
H344 C338 0.929 . S
H345 C337 0.930 . S
H346 C360 0.929 1_455 S
H347 C327 0.931 . S
H348 C333 0.931 . S
H349 C334 0.931 . S
H350 C355 0.931 1_455 S
H351 C330 0.929 . S
H352 C363 0.930 . S
N353 Eu324 2.600 . S
N353 C354 1.365 1_455 S
N353 C357 1.319 . S
C354 N353 1.365 1_655 S
C354 C356 1.405 . S
C354 C362 1.448 . S
C355 H350 0.931 1_655 S
C355 C357 1.398 1_655 S
C355 C358 1.366 . S
C356 C354 1.405 . S
C356 C358 1.403 . S
C356 C389 1.439 . S
C357 H342 0.930 . S
C357 N353 1.319 . S
C357 C355 1.398 1_455 S
C358 C355 1.366 . S
C358 C356 1.403 . S
C358 H365 0.929 . S
N359 Eu324 2.562 . S
N359 C360 1.325 1_455 S
N359 C362 1.351 1_455 S
C360 H346 0.929 1_655 S
C360 N359 1.325 1_655 S
C360 C364 1.416 . S
C361 C362 1.430 . S
C361 C363 1.404 . S
C361 C390 1.387 . S
C362 C354 1.448 . S
C362 N359 1.351 1_655 S
C362 C361 1.430 . S
C363 H352 0.930 . S
C363 C361 1.404 . S
C363 C364 1.366 . S
C364 H343 0.930 . S
C364 C360 1.416 . S
C364 C363 1.366 . S
H365 C358 0.929 . S
H366 C389 0.931 . S
H367 C390 0.931 . S
O368 Eu324 2.462 . S
O368 C388 1.252 . S
O369 Eu324 2.373 1_655 S
O369 C380 1.249 . S
O370 Eu335 2.335 . S
O370 C380 1.264 . S
O371 Eu324 2.432 . S
O371 C388 1.268 . S
O372 Eu324 2.291 . S
O372 C387 1.255 . S
O373 Eu335 2.372 . S
O373 C387 1.257 1_655 S
O374 Eu335 2.462 . S
O374 C399 1.252 . S
O375 Eu335 2.373 1_455 S
O375 C391 1.249 . S
O376 Eu324 2.335 . S
O376 C391 1.264 . S
O377 Eu335 2.432 . S
O377 C399 1.268 . S
O378 Eu335 2.291 . S
O378 C398 1.255 1_655 S
O379 Eu324 2.372 . S
O379 C398 1.257 . S
C380 O369 1.249 . S
C380 O370 1.264 . S
C381 C384 1.382 . S
C381 C386 1.390 . S
C381 C388 1.506 . S
C382 C383 1.398 . S
C382 C386 1.392 . S
C383 C382 1.398 . S
C383 C385 1.372 . S
C383 H400 0.931 . S
C384 C381 1.382 . S
C384 C385 1.390 . S
C384 H401 0.931 . S
C385 C383 1.372 . S
C385 C384 1.390 . S
C385 H402 0.929 . S
C386 C381 1.390 . S
C386 C382 1.392 . S
C386 H403 0.930 . S
C387 O372 1.255 . S
C387 O373 1.257 1_455 S
C388 Eu324 2.787 . S
C388 O368 1.252 . S
C388 O371 1.268 . S
C388 C381 1.506 . S
C389 C356 1.439 . S
C389 H366 0.931 . S
C389 C390 1.374 . S
C390 C361 1.387 . S
C390 H367 0.931 . S
C390 C389 1.374 . S
C391 O375 1.249 . S
C391 O376 1.264 . S
C392 C395 1.382 . S
C392 C396 1.390 1_556 S
C392 C399 1.506 . S
C393 C394 1.398 . S
C393 C396 1.392 . S
C394 C393 1.398 . S
C394 C397 1.372 . S
C394 H404 0.931 . S
C395 C392 1.382 . S
C395 C397 1.390 1_556 S
C395 H405 0.931 . S
C396 C392 1.390 1_554 S
C396 C393 1.392 . S
C396 H406 0.930 . S
C397 C394 1.372 . S
C397 C395 1.390 1_554 S
C397 H407 0.929 1_554 S
C398 O378 1.255 1_455 S
C398 O379 1.257 . S
C399 Eu335 2.787 . S
C399 O374 1.252 . S
C399 O377 1.268 . S
C399 C392 1.506 . S
H400 C383 0.931 . S
H401 C384 0.931 . S
H402 C385 0.929 . S
H403 C386 0.930 . S
H404 C394 0.931 . S
H405 C395 0.931 . S
H406 C396 0.930 . S
H407 C397 0.929 1_556 S
C408 C409 1.363 1_565 S
C408 C414 1.379 . S
C408 N416 1.356 . S
C409 C408 1.363 1_545 S
C409 C415 1.363 . S
C410 C411 1.363 . S
C410 C415 1.379 . S
C410 N417 1.356 . S
C411 C410 1.363 . S
C411 C414 1.363 1_545 S
N412 C414 1.356 . S
N412 H424 0.984 . S
N412 H425 0.985 . S
N413 C415 1.356 . S
N413 H418 0.984 . S
N413 H419 0.985 . S
C414 C408 1.379 . S
C414 C411 1.363 1_565 S
C414 N412 1.356 . S
C415 C409 1.363 . S
C415 C410 1.379 . S
C415 N413 1.356 . S
N416 C408 1.356 . S
N416 H422 0.984 . S
N416 H423 0.984 . S
N417 C410 1.356 . S
N417 H420 0.984 . S
N417 H421 0.985 . S
H418 N413 0.984 . S
H419 N413 0.985 . S
H420 N417 0.984 . S
H421 N417 0.985 . S
H422 N416 0.984 . S
H423 N416 0.984 . S
H424 N412 0.984 . S
H425 N412 0.985 . S
C426 C427 1.363 . S
C426 C432 1.379 . S
C426 N434 1.356 . S
C427 C426 1.363 . S
C427 C433 1.363 . S
C428 C429 1.363 . S
C428 C433 1.379 . S
C428 N435 1.356 . S
C429 C428 1.363 . S
C429 C432 1.363 . S
N430 C432 1.356 . S
N430 H442 0.984 . S
N430 H443 0.985 . S
N431 C433 1.356 . S
N431 H436 0.984 . S
N431 H437 0.985 . S
C432 C426 1.379 . S
C432 C429 1.363 . S
C432 N430 1.356 . S
C433 C427 1.363 . S
C433 C428 1.379 . S
C433 N431 1.356 . S
N434 C426 1.356 . S
N434 H440 0.984 . S
N434 H441 0.984 . S
N435 C428 1.356 . S
N435 H438 0.984 . S
N435 H439 0.985 . S
H436 N431 0.984 . S
H437 N431 0.985 . S
H438 N435 0.984 . S
H439 N435 0.985 . S
H440 N434 0.984 . S
H441 N434 0.984 . S
H442 N430 0.984 . S
H443 N430 0.985 . S
C444 C445 1.363 . S
C444 C450 1.379 . S
C444 N452 1.356 . S
C445 C444 1.363 . S
C445 C451 1.363 . S
C446 C447 1.363 . S
C446 C451 1.379 . S
C446 N453 1.356 . S
C447 C446 1.363 . S
C447 C450 1.363 . S
N448 C450 1.356 . S
N448 H460 0.984 . S
N448 H461 0.985 . S
N449 C451 1.356 . S
N449 H454 0.984 . S
N449 H455 0.985 . S
C450 C444 1.379 . S
C450 C447 1.363 . S
C450 N448 1.356 . S
C451 C445 1.363 . S
C451 C446 1.379 . S
C451 N449 1.356 . S
N452 C444 1.356 . S
N452 H458 0.984 . S
N452 H459 0.984 . S
N453 C446 1.356 . S
N453 H456 0.984 . S
N453 H457 0.985 . S
H454 N449 0.984 . S
H455 N449 0.985 . S
H456 N453 0.984 . S
H457 N453 0.985 . S
H458 N452 0.984 . S
H459 N452 0.984 . S
H460 N448 0.984 . S
H461 N448 0.985 . S
C462 C463 1.363 . S
C462 C468 1.379 1_455 S
C462 N470 1.356 1_455 S
C463 C462 1.363 . S
C463 C469 1.363 . S
C464 C465 1.363 . S
C464 C469 1.379 . S
C464 N471 1.356 . S
C465 C464 1.363 . S
C465 C468 1.363 1_455 S
N466 C468 1.356 . S
N466 H478 0.984 . S
N466 H479 0.985 . S
N467 C469 1.356 . S
N467 H472 0.984 . S
N467 H473 0.985 . S
C468 C462 1.379 1_655 S
C468 C465 1.363 1_655 S
C468 N466 1.356 . S
C469 C463 1.363 . S
C469 C464 1.379 . S
C469 N467 1.356 . S
N470 C462 1.356 1_655 S
N470 H476 0.984 . S
N470 H477 0.984 . S
N471 C464 1.356 . S
N471 H474 0.984 . S
N471 H475 0.985 . S
H472 N467 0.984 . S
H473 N467 0.985 . S
H474 N471 0.984 . S
H475 N471 0.985 . S
H476 N470 0.984 . S
H477 N470 0.984 . S
H478 N466 0.984 . S
H479 N466 0.985 . S
C480 C481 1.363 1_545 S
C480 C486 1.379 . S
C480 N488 1.356 . S
C481 C480 1.363 1_565 S
C481 C487 1.363 . S
C482 C483 1.363 1_554 S
C482 C487 1.379 . S
C482 N489 1.356 1_554 S
C483 C482 1.363 1_556 S
C483 C486 1.363 1_566 S
N484 C486 1.356 1_556 S
N484 H496 0.984 . S
N484 H497 0.985 . S
N485 C487 1.356 . S
N485 H490 0.984 . S
N485 H491 0.985 . S
C486 C480 1.379 . S
C486 C483 1.363 1_544 S
C486 N484 1.356 1_554 S
C487 C481 1.363 . S
C487 C482 1.379 . S
C487 N485 1.356 . S
N488 C480 1.356 . S
N488 H494 0.984 . S
N488 H495 0.984 . S
N489 C482 1.356 1_556 S
N489 H492 0.984 . S
N489 H493 0.985 1_556 S
H490 N485 0.984 . S
H491 N485 0.985 . S
H492 N489 0.984 . S
H493 N489 0.985 1_554 S
H494 N488 0.984 . S
H495 N488 0.984 . S
H496 N484 0.984 . S
H497 N484 0.985 . S
C498 C499 1.363 . S
C498 C504 1.379 . S
C498 N506 1.356 . S
C499 C498 1.363 . S
C499 C505 1.363 . S
C500 C501 1.363 1_554 S
C500 C505 1.379 . S
C500 N507 1.356 . S
C501 C500 1.363 1_556 S
C501 C504 1.363 1_556 S
N502 C504 1.356 1_556 S
N502 H514 0.984 . S
N502 H515 0.985 . S
N503 C505 1.356 . S
N503 H508 0.984 . S
N503 H509 0.985 . S
C504 C498 1.379 . S
C504 C501 1.363 1_554 S
C504 N502 1.356 1_554 S
C505 C499 1.363 . S
C505 C500 1.379 . S
C505 N503 1.356 . S
N506 C498 1.356 . S
N506 H512 0.984 . S
N506 H513 0.984 . S
N507 C500 1.356 . S
N507 H510 0.984 1_554 S
N507 H511 0.985 . S
H508 N503 0.984 . S
H509 N503 0.985 . S
H510 N507 0.984 1_556 S
H511 N507 0.985 . S
H512 N506 0.984 . S
H513 N506 0.984 . S
H514 N502 0.984 . S
H515 N502 0.985 . S
C516 C517 1.363 . S
C516 C522 1.379 . S
C516 N524 1.356 . S
C517 C516 1.363 . S
C517 C523 1.363 . S
C518 C519 1.363 1_554 S
C518 C523 1.379 . S
C518 N525 1.356 1_554 S
C519 C518 1.363 1_556 S
C519 C522 1.363 1_556 S
N520 C522 1.356 1_556 S
N520 H532 0.984 1_556 S
N520 H533 0.985 . S
N521 C523 1.356 . S
N521 H526 0.984 . S
N521 H527 0.985 . S
C522 C516 1.379 . S
C522 C519 1.363 1_554 S
C522 N520 1.356 1_554 S
C523 C517 1.363 . S
C523 C518 1.379 . S
C523 N521 1.356 . S
N524 C516 1.356 . S
N524 H530 0.984 . S
N524 H531 0.984 . S
N525 C518 1.356 1_556 S
N525 H528 0.984 . S
N525 H529 0.985 . S
H526 N521 0.984 . S
H527 N521 0.985 . S
H528 N525 0.984 . S
H529 N525 0.985 . S
H530 N524 0.984 . S
H531 N524 0.984 . S
H532 N520 0.984 1_554 S
H533 N520 0.985 . S
C534 C535 1.363 1_455 S
C534 C540 1.379 . S
C534 N542 1.356 . S
C535 C534 1.363 1_655 S
C535 C541 1.363 . S
C536 C537 1.363 1_554 S
C536 C541 1.379 . S
C536 N543 1.356 1_554 S
C537 C536 1.363 1_556 S
C537 C540 1.363 1_656 S
N538 C540 1.356 . S
N538 H550 0.984 . S
N538 H551 0.985 1_554 S
N539 C541 1.356 . S
N539 H544 0.984 . S
N539 H545 0.985 . S
C540 C534 1.379 . S
C540 C537 1.363 1_454 S
C540 N538 1.356 . S
C541 C535 1.363 . S
C541 C536 1.379 . S
C541 N539 1.356 . S
N542 C534 1.356 . S
N542 H548 0.984 . S
N542 H549 0.984 . S
N543 C536 1.356 1_556 S
N543 H546 0.984 . S
N543 H547 0.985 . S
H544 N539 0.984 . S
H545 N539 0.985 . S
H546 N543 0.984 . S
H547 N543 0.985 . S
H548 N542 0.984 . S
H549 N542 0.984 . S
H550 N538 0.984 . S
H551 N538 0.985 1_556 S
C552 C553 1.373 . S
C552 C558 1.369 1_455 S
C552 N560 1.360 1_554 S
C553 C552 1.373 . S
C553 C559 1.363 . S
C554 C555 1.365 . S
C554 C559 1.377 1_655 S
C554 N561 1.357 . S
C555 C554 1.365 . S
C555 C558 1.363 . S
N556 C558 1.356 . S
N556 H568 0.984 . S
N556 H569 0.985 . S
N557 C559 1.356 . S
N557 H562 0.984 . S
N557 H563 0.985 . S
C558 C552 1.369 1_655 S
C558 C555 1.363 . S
C558 N556 1.356 . S
C559 C553 1.363 . S
C559 C554 1.377 1_455 S
C559 N557 1.356 . S
N560 C552 1.360 1_556 S
N560 H566 0.984 1_455 S
N560 H567 0.984 . S
N561 C554 1.357 . S
N561 H564 0.984 . S
N561 H565 0.985 1_655 S
H562 N557 0.984 . S
H563 N557 0.985 . S
H564 N561 0.984 . S
H565 N561 0.985 1_455 S
H566 N560 0.984 1_655 S
H567 N560 0.984 . S
H568 N556 0.984 . S
H569 N556 0.985 . S
C570 C571 1.363 1_565 S
C570 C576 1.379 . S
C570 N578 1.356 . S
C571 C570 1.363 1_545 S
C571 C577 1.363 . S
C572 C573 1.363 1_545 S
C572 C577 1.379 . S
C572 N579 1.356 . S
C573 C572 1.363 1_565 S
C573 C576 1.363 . S
N574 C576 1.356 . S
N574 H586 0.984 . S
N574 H587 0.985 . S
N575 C577 1.356 . S
N575 H580 0.984 . S
N575 H581 0.985 . S
C576 C570 1.379 . S
C576 C573 1.363 . S
C576 N574 1.356 . S
C577 C571 1.363 . S
C577 C572 1.379 . S
C577 N575 1.356 . S
N578 C570 1.356 . S
N578 H584 0.984 . S
N578 H585 0.984 1_565 S
N579 C572 1.356 . S
N579 H582 0.984 1_545 S
N579 H583 0.985 . S
H580 N575 0.984 . S
H581 N575 0.985 . S
H582 N579 0.984 1_565 S
H583 N579 0.985 . S
H584 N578 0.984 . S
H585 N578 0.984 1_545 S
H586 N574 0.984 . S
H587 N574 0.985 . S
C588 C589 1.363 . S
C588 C594 1.379 . S
C588 N596 1.356 1_554 S
C589 C588 1.363 . S
C589 C595 1.363 . S
C590 C591 1.363 . S
C590 C595 1.379 . S
C590 N597 1.356 . S
C591 C590 1.363 . S
C591 C594 1.363 . S
N592 C594 1.356 . S
N592 H604 0.984 . S
N592 H605 0.985 . S
N593 C595 1.356 . S
N593 H598 0.984 . S
N593 H599 0.985 . S
C594 C588 1.379 . S
C594 C591 1.363 . S
C594 N592 1.356 . S
C595 C589 1.363 . S
C595 C590 1.379 . S
C595 N593 1.356 . S
N596 C588 1.356 1_556 S
N596 H602 0.984 . S
N596 H603 0.984 . S
N597 C590 1.356 . S
N597 H600 0.984 . S
N597 H601 0.985 . S
H598 N593 0.984 . S
H599 N593 0.985 . S
H600 N597 0.984 . S
H601 N597 0.985 . S
H602 N596 0.984 . S
H603 N596 0.984 . S
H604 N592 0.984 . S
H605 N592 0.985 . S
C606 C607 1.363 . S
C606 C612 1.379 . S
C606 N614 1.356 . S
C607 C606 1.363 . S
C607 C613 1.363 . S
C608 C609 1.363 . S
C608 C613 1.379 . S
C608 N615 1.356 . S
C609 C608 1.363 . S
C609 C612 1.363 . S
N610 C612 1.356 . S
N610 H622 0.984 . S
N610 H623 0.985 . S
N611 C613 1.356 . S
N611 H616 0.984 1_554 S
N611 H617 0.985 1_554 S
C612 C606 1.379 . S
C612 C609 1.363 . S
C612 N610 1.356 . S
C613 C607 1.363 . S
C613 C608 1.379 . S
C613 N611 1.356 . S
N614 C606 1.356 . S
N614 H620 0.984 . S
N614 H621 0.984 . S
N615 C608 1.356 . S
N615 H618 0.984 . S
N615 H619 0.985 . S
H616 N611 0.984 1_556 S
H617 N611 0.985 1_556 S
H618 N615 0.984 . S
H619 N615 0.985 . S
H620 N614 0.984 . S
H621 N614 0.984 . S
H622 N610 0.984 . S
H623 N610 0.985 . S
C624 C625 1.363 . S
C624 C630 1.389 . S
C624 N632 1.356 . S
C625 C624 1.363 . S
C625 C631 1.363 1_655 S
C626 C627 1.363 . S
C626 C631 1.379 . S
C626 N633 1.356 . S
C627 C626 1.363 . S
C627 C630 1.348 1_455 S
N628 C630 1.356 . S
N628 H640 0.992 1_554 S
N628 H641 0.977 1_654 S
N629 C631 1.356 . S
N629 H634 0.984 1_455 S
N629 H635 0.985 . S
C630 C624 1.389 . S
C630 C627 1.348 1_655 S
C630 N628 1.356 . S
C631 C625 1.363 1_455 S
C631 C626 1.379 . S
C631 N629 1.356 . S
N632 C624 1.356 . S
N632 H638 0.984 . S
N632 H639 0.984 . S
N633 C626 1.356 . S
N633 H636 0.984 . S
N633 H637 0.985 . S
H634 N629 0.984 1_655 S
H635 N629 0.985 . S
H636 N633 0.984 . S
H637 N633 0.985 . S
H638 N632 0.984 . S
H639 N632 0.984 . S
H640 N628 0.992 1_556 S
H641 N628 0.977 1_456 S
C642 C643 1.363 1_545 S
C642 C648 1.379 . S
C642 N650 1.356 1_545 S
C643 C642 1.363 1_565 S
C643 C649 1.363 . S
C644 C645 1.363 . S
C644 C649 1.379 1_545 S
C644 N651 1.356 . S
C645 C644 1.363 . S
C645 C648 1.363 . S
N646 C648 1.356 . S
N646 H658 0.984 1_554 S
N646 H659 0.985 1_554 S
N647 C649 1.356 . S
N647 H652 0.984 . S
N647 H653 0.985 . S
C648 C642 1.379 . S
C648 C645 1.363 . S
C648 N646 1.356 . S
C649 C643 1.363 . S
C649 C644 1.379 1_565 S
C649 N647 1.356 . S
N650 C642 1.356 1_565 S
N650 H656 0.984 . S
N650 H657 0.984 . S
N651 C644 1.356 . S
N651 H654 0.984 . S
N651 H655 0.985 . S
H652 N647 0.984 . S
H653 N647 0.985 . S
H654 N651 0.984 . S
H655 N651 0.985 . S
H656 N650 0.984 . S
H657 N650 0.984 . S
H658 N646 0.984 1_556 S
H659 N646 0.985 1_556 S
C660 C661 1.363 . S
C660 C666 1.379 . S
C660 N668 1.356 . S
C661 C660 1.363 . S
C661 C667 1.363 . S
C662 C663 1.363 . S
C662 C667 1.379 . S
C662 N669 1.356 . S
C663 C662 1.363 . S
C663 C666 1.363 . S
N664 C666 1.356 . S
N664 H676 0.984 . S
N664 H677 0.985 . S
N665 C667 1.356 . S
N665 H670 0.984 . S
N665 H671 0.985 . S
C666 C660 1.379 . S
C666 C663 1.363 . S
C666 N664 1.356 . S
C667 C661 1.363 . S
C667 C662 1.379 . S
C667 N665 1.356 . S
N668 C660 1.356 . S
N668 H674 0.984 . S
N668 H675 0.984 . S
N669 C662 1.356 . S
N669 H672 0.984 . S
N669 H673 0.985 . S
H670 N665 0.984 . S
H671 N665 0.985 . S
H672 N669 0.984 . S
H673 N669 0.985 . S
H674 N668 0.984 . S
H675 N668 0.984 . S
H676 N664 0.984 . S
H677 N664 0.985 . S
C678 C679 1.363 . S
C678 C684 1.379 . S
C678 N686 1.356 . S
C679 C678 1.363 . S
C679 C685 1.363 . S
C680 C681 1.363 . S
C680 C685 1.379 . S
C680 N687 1.356 . S
C681 C680 1.363 . S
C681 C684 1.363 . S
N682 C684 1.356 1_556 S
N682 H694 0.984 . S
N682 H695 0.985 . S
N683 C685 1.356 . S
N683 H688 0.984 . S
N683 H689 0.985 . S
C684 C678 1.379 . S
C684 C681 1.363 . S
C684 N682 1.356 1_554 S
C685 C679 1.363 . S
C685 C680 1.379 . S
C685 N683 1.356 . S
N686 C678 1.356 . S
N686 H692 0.984 . S
N686 H693 0.984 . S
N687 C680 1.356 . S
N687 H690 0.984 . S
N687 H691 0.985 . S
H688 N683 0.984 . S
H689 N683 0.985 . S
H690 N687 0.984 . S
H691 N687 0.985 . S
H692 N686 0.984 . S
H693 N686 0.984 . S
H694 N682 0.984 . S
H695 N682 0.985 . S
C696 C697 1.363 . S
C696 C702 1.379 . S
C696 N704 1.356 1_455 S
C697 C696 1.363 . S
C697 C703 1.363 . S
C698 C699 1.363 . S
C698 C703 1.379 . S
C698 N705 1.356 . S
C699 C698 1.363 . S
C699 C702 1.363 . S
N700 C702 1.356 1_655 S
N700 H712 0.984 . S
N700 H713 0.985 1_655 S
N701 C703 1.356 . S
N701 H706 0.984 . S
N701 H707 0.985 1_556 S
C702 C696 1.379 . S
C702 C699 1.363 . S
C702 N700 1.356 1_455 S
C703 C697 1.363 . S
C703 C698 1.379 . S
C703 N701 1.356 . S
N704 C696 1.356 1_655 S
N704 H710 0.984 . S
N704 H711 0.982 1_655 S
N705 C698 1.356 . S
N705 H708 0.984 . S
N705 H709 0.985 1_556 S
H706 N701 0.984 . S
H707 N701 0.985 1_554 S
H708 N705 0.984 . S
H709 N705 0.985 1_554 S
H710 N704 0.984 . S
H711 N704 0.982 1_455 S
H712 N700 0.984 . S
H713 N700 0.985 1_455 S
C714 C715 1.363 . S
C714 C720 1.379 . S
C714 N722 1.356 . S
C715 C714 1.363 . S
C715 C721 1.363 . S
C716 C717 1.363 . S
C716 C721 1.379 . S
C716 N723 1.356 1_545 S
C717 C716 1.363 . S
C717 C720 1.363 . S
N718 C720 1.356 . S
N718 H730 0.984 . S
N718 H731 0.985 . S
N719 C721 1.356 1_565 S
N719 H724 0.984 . S
N719 H725 0.985 . S
C720 C714 1.379 . S
C720 C717 1.363 . S
C720 N718 1.356 . S
C721 C715 1.363 . S
C721 C716 1.379 . S
C721 N719 1.356 1_545 S
N722 C714 1.356 . S
N722 H728 0.984 . S
N722 H729 0.984 . S
N723 C716 1.356 1_565 S
N723 H726 0.984 . S
N723 H727 0.985 . S
H724 N719 0.984 . S
H725 N719 0.985 . S
H726 N723 0.984 . S
H727 N723 0.985 . S
H728 N722 0.984 . S
H729 N722 0.984 . S
H730 N718 0.984 . S
H731 N718 0.985 . S
C732 C733 1.363 . S
C732 C738 1.379 . S
C732 N740 1.356 . S
C733 C732 1.363 . S
C733 C739 1.363 . S
C734 C735 1.363 . S
C734 C739 1.379 . S
C734 N741 1.356 . S
C735 C734 1.363 . S
C735 C738 1.363 . S
N736 C738 1.356 . S
N736 H748 0.984 . S
N736 H749 0.985 . S
N737 C739 1.356 . S
N737 H742 0.984 . S
N737 H743 0.985 1_556 S
C738 C732 1.379 . S
C738 C735 1.363 . S
C738 N736 1.356 . S
C739 C733 1.363 . S
C739 C734 1.379 . S
C739 N737 1.356 . S
N740 C732 1.356 . S
N740 H746 0.984 . S
N740 H747 0.984 . S
N741 C734 1.356 . S
N741 H744 0.984 . S
N741 H745 0.985 . S
H742 N737 0.984 . S
H743 N737 0.985 1_554 S
H744 N741 0.984 . S
H745 N741 0.985 . S
H746 N740 0.984 . S
H747 N740 0.984 . S
H748 N736 0.984 . S
H749 N736 0.985 . S
C750 C751 1.363 . S
C750 C756 1.379 . S
C750 N758 1.356 . S
C751 C750 1.363 . S
C751 C757 1.363 . S
C752 C753 1.363 . S
C752 C757 1.379 . S
C752 N759 1.356 . S
C753 C752 1.363 . S
C753 C756 1.363 . S
N754 C756 1.356 . S
N754 H766 0.984 . S
N754 H767 0.985 . S
N755 C757 1.356 . S
N755 H760 0.984 . S
N755 H761 0.985 . S
C756 C750 1.379 . S
C756 C753 1.363 . S
C756 N754 1.356 . S
C757 C751 1.363 . S
C757 C752 1.379 . S
C757 N755 1.356 . S
N758 C750 1.356 . S
N758 H764 0.984 . S
N758 H765 0.984 . S
N759 C752 1.356 . S
N759 H762 0.984 . S
N759 H763 0.985 . S
H760 N755 0.984 . S
H761 N755 0.985 . S
H762 N759 0.984 . S
H763 N759 0.985 . S
H764 N758 0.984 . S
H765 N758 0.984 . S
H766 N754 0.984 . S
H767 N754 0.985 . S
C768 C769 1.363 1_455 S
C768 C774 1.379 . S
C768 N776 1.356 . S
C769 C768 1.363 1_655 S
C769 C775 1.363 . S
C770 C771 1.363 . S
C770 C775 1.379 . S
C770 N777 1.356 . S
C771 C770 1.363 . S
C771 C774 1.363 1_655 S
N772 C774 1.356 . S
N772 H784 0.984 . S
N772 H785 0.985 . S
N773 C775 1.356 . S
N773 H778 0.984 . S
N773 H779 0.985 . S
C774 C768 1.379 . S
C774 C771 1.363 1_455 S
C774 N772 1.356 . S
C775 C769 1.363 . S
C775 C770 1.379 . S
C775 N773 1.356 . S
N776 C768 1.356 . S
N776 H782 0.984 . S
N776 H783 0.984 . S
N777 C770 1.356 . S
N777 H780 0.984 . S
N777 H781 0.985 . S
H778 N773 0.984 . S
H779 N773 0.985 . S
H780 N777 0.984 . S
H781 N777 0.985 . S
H782 N776 0.984 . S
H783 N776 0.984 . S
H784 N772 0.984 . S
H785 N772 0.985 . S
C786 C787 1.363 . S
C786 C792 1.379 . S
C786 N794 1.356 . S
C787 C786 1.363 . S
C787 C793 1.363 1_565 S
C788 C789 1.363 1_545 S
C788 C793 1.379 . S
C788 N795 1.356 . S
C789 C788 1.363 1_565 S
C789 C792 1.363 . S
N790 C792 1.356 . S
N790 H802 0.984 . S
N790 H803 0.985 . S
N791 C793 1.356 . S
N791 H796 0.984 . S
N791 H797 0.985 . S
C792 C786 1.379 . S
C792 C789 1.363 . S
C792 N790 1.356 . S
C793 C787 1.363 1_545 S
C793 C788 1.379 . S
C793 N791 1.356 . S
N794 C786 1.356 . S
N794 H800 0.984 . S
N794 H801 0.984 . S
N795 C788 1.356 . S
N795 H798 0.984 . S
N795 H799 0.985 . S
H796 N791 0.984 . S
H797 N791 0.985 . S
H798 N795 0.984 . S
H799 N795 0.985 . S
H800 N794 0.984 . S
H801 N794 0.984 . S
H802 N790 0.984 . S
H803 N790 0.985 . S
C804 C805 1.363 . S
C804 C810 1.379 . S
C804 N812 1.356 . S
C805 C804 1.363 . S
C805 C811 1.363 . S
C806 C807 1.363 . S
C806 C811 1.379 . S
C806 N813 1.356 . S
C807 C806 1.363 . S
C807 C810 1.363 . S
N808 C810 1.356 . S
N808 H820 0.984 . S
N808 H821 0.985 . S
N809 C811 1.356 . S
N809 H814 0.984 . S
N809 H815 0.985 . S
C810 C804 1.379 . S
C810 C807 1.363 . S
C810 N808 1.356 . S
C811 C805 1.363 . S
C811 C806 1.379 . S
C811 N809 1.356 . S
N812 C804 1.356 . S
N812 H818 0.984 . S
N812 H819 0.984 . S
N813 C806 1.356 . S
N813 H816 0.984 . S
N813 H817 0.985 . S
H814 N809 0.984 . S
H815 N809 0.985 . S
H816 N813 0.984 . S
H817 N813 0.985 . S
H818 N812 0.984 . S
H819 N812 0.984 . S
H820 N808 0.984 . S
H821 N808 0.985 . S
C822 C823 1.363 . S
C822 C828 1.379 . S
C822 N830 1.356 . S
C823 C822 1.363 . S
C823 C829 1.363 . S
C824 C825 1.363 . S
C824 C829 1.379 . S
C824 N831 1.356 . S
C825 C824 1.363 . S
C825 C828 1.363 . S
N826 C828 1.356 . S
N826 H838 0.984 . S
N826 H839 0.985 . S
N827 C829 1.356 . S
N827 H832 0.984 . S
N827 H833 0.985 . S
C828 C822 1.379 . S
C828 C825 1.363 . S
C828 N826 1.356 . S
C829 C823 1.363 . S
C829 C824 1.379 . S
C829 N827 1.356 . S
N830 C822 1.356 . S
N830 H836 0.984 . S
N830 H837 0.984 . S
N831 C824 1.356 . S
N831 H834 0.984 . S
N831 H835 0.985 . S
H832 N827 0.984 . S
H833 N827 0.985 . S
H834 N831 0.984 . S
H835 N831 0.985 . S
H836 N830 0.984 . S
H837 N830 0.984 . S
H838 N826 0.984 . S
H839 N826 0.985 . S
C409 C61 2.009 . S
C411 C135 2.218 . S
C429 C212 2.226 . S
C427 C70 2.023 . S
C447 C303 2.219 . S
C445 C43 2.008 . S
C465 C387 2.208 . S
C463 C52 2.001 . S
C483 C146 2.218 1_565 S
C481 C25 2.011 . S
C499 C34 2.022 . S
C501 C223 2.226 . S
C517 C7 2.010 . S
C519 C314 2.219 . S
C535 C16 2.003 . S
C537 C398 2.208 1_655 S
C555 C130 0.778 . S
C553 C50 0.772 . S
C573 C225 0.760 . S
C571 C59 0.760 . S
C591 C298 0.786 . S
C589 C67 0.780 . S
C607 C41 0.764 . S
C609 C382 0.767 . S
C625 C14 0.773 . S
C627 C141 0.778 . S
C645 C214 0.760 . S
C643 C23 0.760 . S
C663 C309 0.786 . S
C661 C31 0.779 . S
C679 C5 0.764 . S
C681 C393 0.767 . S
C697 C49 2.057 . S
C699 C139 2.340 . S
C715 C58 2.064 . S
C717 C230 2.364 . S
C735 C307 2.351 . S
C733 C68 2.064 . S
C753 C391 2.355 . S
C751 C40 2.071 . S
C769 C13 2.057 . S
C771 C128 2.340 . S
C789 C219 2.364 . S
C787 C22 2.064 . S
C807 C296 2.351 . S
C805 C32 2.064 . S
C823 C4 2.071 . S
C825 C380 2.355 . S
