# Generated by pormake.
# Topology ctn, (3,4)-cn, num edge types: 1
# Building blocks:
#     Node 0, Type 0, BuildingBlock: BETDAH_clean_linker_0, # of connection points: 3
#     Node 1, Type 0, BuildingBlock: BETDAH_clean_linker_0, # of connection points: 3
#     Node 2, Type 0, BuildingBlock: BETDAH_clean_linker_0, # of connection points: 3
#     Node 3, Type 0, BuildingBlock: BETDAH_clean_linker_0, # of connection points: 3
#     Node 4, Type 0, BuildingBlock: BETDAH_clean_linker_0, # of connection points: 3
#     Node 5, Type 0, BuildingBlock: BETDAH_clean_linker_0, # of connection points: 3
#     Node 6, Type 0, BuildingBlock: BETDAH_clean_linker_0, # of connection points: 3
#     Node 7, Type 0, BuildingBlock: BETDAH_clean_linker_0, # of connection points: 3
#     Node 8, Type 0, BuildingBlock: BETDAH_clean_linker_0, # of connection points: 3
#     Node 9, Type 0, BuildingBlock: BETDAH_clean_linker_0, # of connection points: 3
#     Node 10, Type 0, BuildingBlock: BETDAH_clean_linker_0, # of connection points: 3
#     Node 11, Type 0, BuildingBlock: BETDAH_clean_linker_0, # of connection points: 3
#     Node 12, Type 0, BuildingBlock: BETDAH_clean_linker_0, # of connection points: 3
#     Node 13, Type 0, BuildingBlock: BETDAH_clean_linker_0, # of connection points: 3
#     Node 14, Type 0, BuildingBlock: BETDAH_clean_linker_0, # of connection points: 3
#     Node 15, Type 0, BuildingBlock: BETDAH_clean_linker_0, # of connection points: 3
#     Node 16, Type 1, BuildingBlock: TATPOV_clean_sbu_0, # of connection points: 4
#     Node 17, Type 1, BuildingBlock: TATPOV_clean_sbu_0, # of connection points: 4
#     Node 18, Type 1, BuildingBlock: TATPOV_clean_sbu_0, # of connection points: 4
#     Node 19, Type 1, BuildingBlock: TATPOV_clean_sbu_0, # of connection points: 4
#     Node 20, Type 1, BuildingBlock: TATPOV_clean_sbu_0, # of connection points: 4
#     Node 21, Type 1, BuildingBlock: TATPOV_clean_sbu_0, # of connection points: 4
#     Node 22, Type 1, BuildingBlock: TATPOV_clean_sbu_0, # of connection points: 4
#     Node 23, Type 1, BuildingBlock: TATPOV_clean_sbu_0, # of connection points: 4
#     Node 24, Type 1, BuildingBlock: TATPOV_clean_sbu_0, # of connection points: 4
#     Node 25, Type 1, BuildingBlock: TATPOV_clean_sbu_0, # of connection points: 4
#     Node 26, Type 1, BuildingBlock: TATPOV_clean_sbu_0, # of connection points: 4
#     Node 27, Type 1, BuildingBlock: TATPOV_clean_sbu_0, # of connection points: 4
#     Edge 28, Type (0, 1), BuildingBlock: MIFKUJ_clean_linker_0, # of connection points: 2
#     Edge 29, Type (0, 1), BuildingBlock: MIFKUJ_clean_linker_0, # of connection points: 2
#     Edge 30, Type (0, 1), BuildingBlock: MIFKUJ_clean_linker_0, # of connection points: 2
#     Edge 31, Type (0, 1), BuildingBlock: MIFKUJ_clean_linker_0, # of connection points: 2
#     Edge 32, Type (0, 1), BuildingBlock: MIFKUJ_clean_linker_0, # of connection points: 2
#     Edge 33, Type (0, 1), BuildingBlock: MIFKUJ_clean_linker_0, # of connection points: 2
#     Edge 34, Type (0, 1), BuildingBlock: MIFKUJ_clean_linker_0, # of connection points: 2
#     Edge 35, Type (0, 1), BuildingBlock: MIFKUJ_clean_linker_0, # of connection points: 2
#     Edge 36, Type (0, 1), BuildingBlock: MIFKUJ_clean_linker_0, # of connection points: 2
#     Edge 37, Type (0, 1), BuildingBlock: MIFKUJ_clean_linker_0, # of connection points: 2
#     Edge 38, Type (0, 1), BuildingBlock: MIFKUJ_clean_linker_0, # of connection points: 2
#     Edge 39, Type (0, 1), BuildingBlock: MIFKUJ_clean_linker_0, # of connection points: 2
#     Edge 40, Type (0, 1), BuildingBlock: MIFKUJ_clean_linker_0, # of connection points: 2
#     Edge 41, Type (0, 1), BuildingBlock: MIFKUJ_clean_linker_0, # of connection points: 2
#     Edge 42, Type (0, 1), BuildingBlock: MIFKUJ_clean_linker_0, # of connection points: 2
#     Edge 43, Type (0, 1), BuildingBlock: MIFKUJ_clean_linker_0, # of connection points: 2
#     Edge 44, Type (0, 1), BuildingBlock: MIFKUJ_clean_linker_0, # of connection points: 2
#     Edge 45, Type (0, 1), BuildingBlock: MIFKUJ_clean_linker_0, # of connection points: 2
#     Edge 46, Type (0, 1), BuildingBlock: MIFKUJ_clean_linker_0, # of connection points: 2
#     Edge 47, Type (0, 1), BuildingBlock: MIFKUJ_clean_linker_0, # of connection points: 2
#     Edge 48, Type (0, 1), BuildingBlock: MIFKUJ_clean_linker_0, # of connection points: 2
#     Edge 49, Type (0, 1), BuildingBlock: MIFKUJ_clean_linker_0, # of connection points: 2
#     Edge 50, Type (0, 1), BuildingBlock: MIFKUJ_clean_linker_0, # of connection points: 2
#     Edge 51, Type (0, 1), BuildingBlock: MIFKUJ_clean_linker_0, # of connection points: 2
#     Edge 52, Type (0, 1), BuildingBlock: MIFKUJ_clean_linker_0, # of connection points: 2
#     Edge 53, Type (0, 1), BuildingBlock: MIFKUJ_clean_linker_0, # of connection points: 2
#     Edge 54, Type (0, 1), BuildingBlock: MIFKUJ_clean_linker_0, # of connection points: 2
#     Edge 55, Type (0, 1), BuildingBlock: MIFKUJ_clean_linker_0, # of connection points: 2
#     Edge 56, Type (0, 1), BuildingBlock: MIFKUJ_clean_linker_0, # of connection points: 2
#     Edge 57, Type (0, 1), BuildingBlock: MIFKUJ_clean_linker_0, # of connection points: 2
#     Edge 58, Type (0, 1), BuildingBlock: MIFKUJ_clean_linker_0, # of connection points: 2
#     Edge 59, Type (0, 1), BuildingBlock: MIFKUJ_clean_linker_0, # of connection points: 2
#     Edge 60, Type (0, 1), BuildingBlock: MIFKUJ_clean_linker_0, # of connection points: 2
#     Edge 61, Type (0, 1), BuildingBlock: MIFKUJ_clean_linker_0, # of connection points: 2
#     Edge 62, Type (0, 1), BuildingBlock: MIFKUJ_clean_linker_0, # of connection points: 2
#     Edge 63, Type (0, 1), BuildingBlock: MIFKUJ_clean_linker_0, # of connection points: 2
#     Edge 64, Type (0, 1), BuildingBlock: MIFKUJ_clean_linker_0, # of connection points: 2
#     Edge 65, Type (0, 1), BuildingBlock: MIFKUJ_clean_linker_0, # of connection points: 2
#     Edge 66, Type (0, 1), BuildingBlock: MIFKUJ_clean_linker_0, # of connection points: 2
#     Edge 67, Type (0, 1), BuildingBlock: MIFKUJ_clean_linker_0, # of connection points: 2
#     Edge 68, Type (0, 1), BuildingBlock: MIFKUJ_clean_linker_0, # of connection points: 2
#     Edge 69, Type (0, 1), BuildingBlock: MIFKUJ_clean_linker_0, # of connection points: 2
#     Edge 70, Type (0, 1), BuildingBlock: MIFKUJ_clean_linker_0, # of connection points: 2
#     Edge 71, Type (0, 1), BuildingBlock: MIFKUJ_clean_linker_0, # of connection points: 2
#     Edge 72, Type (0, 1), BuildingBlock: MIFKUJ_clean_linker_0, # of connection points: 2
#     Edge 73, Type (0, 1), BuildingBlock: MIFKUJ_clean_linker_0, # of connection points: 2
#     Edge 74, Type (0, 1), BuildingBlock: MIFKUJ_clean_linker_0, # of connection points: 2
#     Edge 75, Type (0, 1), BuildingBlock: MIFKUJ_clean_linker_0, # of connection points: 2
# Relax obj value: 0.045
# Max RMSD: 0.166
# Mean RMSD: 0.099
data_MOF--net-ctn--node1-TATPOV_clean_sbu_0--node2-BETDAH_clean_linker_0--edge1-MIFKUJ_clean_linker_0
_symmetry_space_group_name_H-M    P1
_symmetry_Int_Tables_number       1
_symmetry_cell_setting            triclinic
loop_
_symmetry_equiv_pos_as_xyz
'x, y, z'
_cell_length_a     70.1685
_cell_length_b     70.189572
_cell_length_c     71.128495
_cell_angle_alpha  99.437713
_cell_angle_beta   91.373717
_cell_angle_gamma 95.841838
loop_
_atom_site_label
_atom_site_type_symbol
_atom_site_fract_x
_atom_site_fract_y
_atom_site_fract_z
_atom_type_partial_charge
H0 H 0.07133 0.01552 0.08044 0.0
H1 H 0.07345 0.02499 0.02205 0.0
H2 H 0.02834 0.04538 0.05689 0.0
C3 C 0.06542 0.02125 0.06858 0.0
C4 C 0.04892 0.03104 0.07107 0.0
C5 C 0.07436 0.01869 0.05091 0.0
C6 C 0.06711 0.0271 0.03587 0.0
C7 C 0.05061 0.03692 0.03822 0.0
C8 C 0.04151 0.03852 0.05561 0.0
N9 N 0.04144 0.04325 0.02274 0.0
C10 C 0.05055 0.05474 0.01075 0.0
H11 H 0.30262 0.68332 0.24679 0.0
H12 H 0.3303 0.7399 0.24296 0.0
H13 H 0.27391 0.72202 0.21728 0.0
C14 C 0.30253 0.69705 0.24171 0.0
C15 C 0.28631 0.70084 0.23144 0.0
C16 C 0.31857 0.7109 0.24571 0.0
C17 C 0.3182 0.72886 0.23958 0.0
C18 C 0.3023 0.73291 0.22924 0.0
C19 C 0.28633 0.71885 0.22507 0.0
N20 N 0.30268 0.75168 0.22421 0.0
C21 C 0.2925 0.75646 0.20893 0.0
H22 H 0.01136 0.43569 0.05348 0.0
H23 H 0.99301 0.49122 0.04799 0.0
H24 H 0.98934 0.44576 0.99933 0.0
C25 C 0.00534 0.44509 0.0448 0.0
C26 C 0.00037 0.43807 0.02546 0.0
C27 C 0.00299 0.46432 0.05295 0.0
C28 C 0.99497 0.47643 0.04174 0.0
C29 C 0.98981 0.46955 0.02243 0.0
C30 C 0.99284 0.45061 0.01439 0.0
N31 N 0.9819 0.48135 0.01055 0.0
C32 C 0.97345 0.49805 0.01733 0.0
H33 H 0.78704 0.79686 0.20362 0.0
H34 H 0.75853 0.7572 0.23688 0.0
H35 H 0.78341 0.81357 0.26423 0.0
C36 C 0.78219 0.79356 0.21718 0.0
C37 C 0.78592 0.80766 0.23365 0.0
C38 C 0.77246 0.77519 0.21814 0.0
C39 C 0.76616 0.77119 0.23589 0.0
C40 C 0.77016 0.78509 0.25248 0.0
C41 C 0.78019 0.80307 0.25129 0.0
N42 N 0.76486 0.78119 0.27069 0.0
C43 C 0.7478 0.77051 0.27381 0.0
H44 H 0.07584 0.9863 0.44458 0.0
H45 H 0.0756 0.96066 0.49551 0.0
H46 H 0.02349 0.9577 0.46165 0.0
C47 C 0.06822 0.97801 0.45418 0.0
C48 C 0.0485 0.97242 0.45097 0.0
C49 C 0.07807 0.97383 0.4702 0.0
C50 C 0.06805 0.96381 0.4831 0.0
C51 C 0.0483 0.95797 0.47993 0.0
C52 C 0.03869 0.96238 0.46398 0.0
N53 N 0.03747 0.94786 0.49252 0.0
C54 C 0.04527 0.93951 0.50692 0.0
H55 H 0.26674 0.7038 0.81568 0.0
H56 H 0.22575 0.73465 0.78998 0.0
H57 H 0.2545 0.6915 0.75519 0.0
C58 C 0.2592 0.70679 0.8032 0.0
C59 C 0.26235 0.69609 0.78526 0.0
C60 C 0.24609 0.72089 0.8052 0.0
C61 C 0.23566 0.7237 0.78886 0.0
C62 C 0.23861 0.71293 0.77087 0.0
C63 C 0.25209 0.69945 0.76918 0.0
N64 N 0.22865 0.71555 0.75405 0.0
C65 C 0.21115 0.72316 0.75375 0.0
H66 H 0.94293 0.55794 0.5135 0.0
H67 H 0.97867 0.57015 0.46763 0.0
H68 H 0.93072 0.52608 0.45675 0.0
C69 C 0.94659 0.55481 0.49866 0.0
C70 C 0.93505 0.54056 0.48601 0.0
C71 C 0.96217 0.56575 0.49209 0.0
C72 C 0.96664 0.5618 0.47277 0.0
C73 C 0.95531 0.54739 0.46004 0.0
C74 C 0.9394 0.53715 0.46667 0.0
N75 N 0.95927 0.54304 0.44043 0.0
C76 C 0.97727 0.54664 0.43323 0.0
H77 H 0.84741 0.78221 0.83382 0.0
H78 H 0.83171 0.83345 0.81396 0.0
H79 H 0.80635 0.81619 0.86369 0.0
C80 C 0.83916 0.79458 0.83532 0.0
C81 C 0.82659 0.79749 0.85036 0.0
C82 C 0.8411 0.80747 0.82212 0.0
C83 C 0.83017 0.82336 0.82397 0.0
C84 C 0.81783 0.82658 0.83919 0.0
C85 C 0.81624 0.81373 0.85228 0.0
N86 N 0.80697 0.8427 0.84205 0.0
C87 C 0.80273 0.85356 0.82815 0.0
H88 H 0.32994 0.27604 0.31391 0.0
H89 H 0.30332 0.32061 0.29117 0.0
H90 H 0.27619 0.29297 0.33471 0.0
C91 C 0.31852 0.28534 0.31386 0.0
C92 C 0.30321 0.28314 0.32589 0.0
C93 C 0.31858 0.29865 0.30106 0.0
C94 C 0.30329 0.31018 0.30083 0.0
C95 C 0.28805 0.30821 0.31311 0.0
C96 C 0.28807 0.2946 0.32541 0.0
N97 N 0.27233 0.31946 0.31352 0.0
C98 C 0.26977 0.33322 0.30198 0.0
H99 H 0.53404 0.93772 0.54067 0.0
H100 H 0.53162 0.99944 0.54978 0.0
H101 H 0.50334 0.96406 0.5001 0.0
C102 C 0.52898 0.95039 0.53613 0.0
C103 C 0.51815 0.94846 0.51886 0.0
C104 C 0.53354 0.96866 0.54756 0.0
C105 C 0.52771 0.98517 0.54137 0.0
C106 C 0.51675 0.98355 0.52445 0.0
C107 C 0.51175 0.96519 0.51328 0.0
N108 N 0.51174 0.00078 0.51863 0.0
C109 C 0.4938 0.00253 0.5109 0.0
H110 H 0.29084 0.27707 0.68201 0.0
H111 H 0.26617 0.2228 0.69585 0.0
H112 H 0.26713 0.27481 0.73715 0.0
C113 C 0.2836 0.26898 0.69197 0.0
C114 C 0.27976 0.27856 0.71029 0.0
C115 C 0.27842 0.24896 0.68645 0.0
C116 C 0.2697 0.23839 0.69962 0.0
C117 C 0.26546 0.24757 0.71774 0.0
C118 C 0.27032 0.26772 0.72305 0.0
N119 N 0.25702 0.2358 0.73038 0.0
C120 C 0.24609 0.24221 0.74571 0.0
H121 H 0.81982 0.19044 0.74942 0.0
H122 H 0.84425 0.24742 0.74249 0.0
H123 H 0.7875 0.22597 0.71947 0.0
C124 C 0.81873 0.20382 0.74393 0.0
C125 C 0.80176 0.20638 0.73412 0.0
C126 C 0.83425 0.2184 0.7469 0.0
C127 C 0.83257 0.23583 0.74003 0.0
C128 C 0.8159 0.23863 0.73004 0.0
C129 C 0.80047 0.22385 0.72706 0.0
N130 N 0.81511 0.25671 0.7237 0.0
C131 C 0.80242 0.26016 0.70961 0.0
H132 H 0.55726 0.50714 0.57599 0.0
H133 H 0.56769 0.53825 0.52895 0.0
H134 H 0.51851 0.54703 0.56271 0.0
C135 C 0.55344 0.51771 0.56744 0.0
C136 C 0.53668 0.52674 0.57138 0.0
C137 C 0.56479 0.52159 0.55208 0.0
C138 C 0.55914 0.53497 0.54071 0.0
C139 C 0.54232 0.54404 0.54459 0.0
C140 C 0.5313 0.53978 0.55978 0.0
N141 N 0.53548 0.55724 0.53353 0.0
C142 C 0.54514 0.56583 0.5197 0.0
H143 H 0.58248 0.49024 0.94204 0.0
H144 H 0.58713 0.45591 0.98671 0.0
H145 H 0.54203 0.44036 0.94352 0.0
C146 C 0.57735 0.4781 0.94885 0.0
C147 C 0.56082 0.46613 0.94115 0.0
C148 C 0.58709 0.47458 0.96531 0.0
C149 C 0.58005 0.45867 0.97388 0.0
C150 C 0.5639 0.44626 0.96586 0.0
C151 C 0.5545 0.45002 0.94955 0.0
N152 N 0.55667 0.42976 0.97367 0.0
C153 C 0.56136 0.42655 0.99188 0.0
H154 H 0.76523 0.22073 0.31379 0.0
H155 H 0.7151 0.23961 0.28933 0.0
H156 H 0.74437 0.19519 0.25697 0.0
C157 C 0.75514 0.22002 0.30185 0.0
C158 C 0.75677 0.20654 0.28518 0.0
C159 C 0.74015 0.23205 0.30353 0.0
C160 C 0.72662 0.23038 0.28824 0.0
C161 C 0.72819 0.21697 0.27147 0.0
C162 C 0.74323 0.20528 0.27008 0.0
N163 N 0.71499 0.21464 0.25562 0.0
C164 C 0.69946 0.22522 0.25442 0.0
H165 H 0.44169 0.06168 0.99973 0.0
H166 H 0.48109 0.07689 0.95769 0.0
H167 H 0.43893 0.02745 0.94352 0.0
C168 C 0.4471 0.05881 0.98551 0.0
C169 C 0.43863 0.04286 0.9724 0.0
C170 C 0.46237 0.07122 0.98029 0.0
C171 C 0.46937 0.06737 0.96183 0.0
C172 C 0.46094 0.05146 0.94862 0.0
C173 C 0.44553 0.03949 0.95392 0.0
N174 N 0.46715 0.04736 0.9297 0.0
C175 C 0.48567 0.05226 0.92431 0.0
Zn176 Zn 0.28976 0.85569 0.01893 0.0
Zn177 Zn 0.25872 0.8739 0.02028 0.0
O178 O 0.25852 0.86231 0.04566 0.0
O179 O 0.28597 0.84955 0.04512 0.0
O180 O 0.23628 0.89027 0.02157 0.0
O181 O 0.30694 0.87907 0.01525 0.0
O182 O 0.28139 0.89489 0.01762 0.0
C183 C 0.2708 0.85348 0.05348 0.0
C184 C 0.26252 0.83952 0.98822 0.0
O185 O 0.25291 0.85312 0.99575 0.0
O186 O 0.27846 0.83735 0.99585 0.0
C187 C 0.22104 0.8874 0.03051 0.0
O188 O 0.21882 0.87241 0.03944 0.0
C189 C 0.29938 0.89469 0.01541 0.0
Zn190 Zn 0.11287 0.47506 0.26553 0.0
Zn191 Zn 0.13506 0.5074 0.2617 0.0
O192 O 0.12284 0.51566 0.28752 0.0
O193 O 0.10637 0.48831 0.29161 0.0
O194 O 0.15211 0.53109 0.25744 0.0
O195 O 0.13555 0.45966 0.26242 0.0
O196 O 0.15413 0.48666 0.26139 0.0
C197 C 0.11199 0.50605 0.29758 0.0
C198 C 0.10132 0.49094 0.23313 0.0
O199 O 0.11583 0.50319 0.23871 0.0
O200 O 0.09666 0.47737 0.24241 0.0
C201 C 0.14545 0.54704 0.25618 0.0
O202 O 0.12706 0.54833 0.25838 0.0
C203 C 0.15208 0.46837 0.26129 0.0
Zn204 Zn 0.79765 0.60925 0.97073 0.0
Zn205 Zn 0.79179 0.63218 0.00367 0.0
O206 O 0.81697 0.62128 0.00978 0.0
O207 O 0.8224 0.60334 0.98239 0.0
O208 O 0.78689 0.64961 0.02816 0.0
O209 O 0.79793 0.63189 0.95685 0.0
O210 O 0.79388 0.65096 0.98395 0.0
C211 C 0.82741 0.61019 0.9996 0.0
C212 C 0.76261 0.59724 0.98739 0.0
O213 O 0.76812 0.6118 1.00023 0.0
O214 O 0.77273 0.59299 0.97311 0.0
C215 C 0.78578 0.6428 0.04364 0.0
O216 O 0.78797 0.62439 0.04339 0.0
C217 C 0.7962 0.64863 0.966 0.0
Zn218 Zn 0.8895 0.02983 0.29705 0.0
Zn219 Zn 0.9127 0.03151 0.2685 0.0
O220 O 0.89969 0.05738 0.27109 0.0
O221 O 0.88272 0.05658 0.29666 0.0
O222 O 0.93066 0.03208 0.24645 0.0
O223 O 0.91106 0.026 0.31429 0.0
O224 O 0.93094 0.02847 0.29112 0.0
C225 C 0.88868 0.06531 0.28339 0.0
C226 C 0.8793 0.99892 0.26605 0.0
O227 O 0.89429 0.00658 0.2592 0.0
O228 O 0.87362 0.00665 0.28198 0.0
C229 C 0.93401 0.04616 0.23735 0.0
O230 O 0.92556 0.062 0.24225 0.0
C231 C 0.92789 0.02616 0.30828 0.0
Zn232 Zn 0.29177 0.08618 0.43448 0.0
Zn233 Zn 0.29332 0.1084 0.46959 0.0
O234 O 0.31745 0.09438 0.47046 0.0
O235 O 0.31728 0.07732 0.44153 0.0
O236 O 0.29307 0.12495 0.4955 0.0
O237 O 0.29085 0.11047 0.4227 0.0
O238 O 0.29416 0.12831 0.45134 0.0
C239 C 0.32512 0.08261 0.45806 0.0
C240 C 0.26 0.07631 0.45698 0.0
O241 O 0.26836 0.0903 0.469 0.0
O242 O 0.26716 0.07146 0.44094 0.0
C243 C 0.30571 0.13904 0.50162 0.0
O244 O 0.32002 0.14302 0.49081 0.0
C245 C 0.29265 0.12698 0.43328 0.0
Zn246 Zn 0.3844 0.50391 0.79893 0.0
Zn247 Zn 0.40357 0.50655 0.76797 0.0
O248 O 0.38821 0.53076 0.77067 0.0
O249 O 0.37094 0.52696 0.79548 0.0
O250 O 0.41996 0.50874 0.74513 0.0
O251 O 0.40831 0.50694 0.81544 0.0
O252 O 0.42444 0.50667 0.7893 0.0
C253 C 0.37546 0.53638 0.78224 0.0
C254 C 0.3758 0.4702 0.77037 0.0
O255 O 0.38675 0.48 0.7605 0.0
O256 O 0.3729 0.47711 0.78752 0.0
C257 C 0.41326 0.50794 0.72821 0.0
O258 O 0.39459 0.5057 0.72498 0.0
C259 C 0.42414 0.50709 0.8073 0.0
Zn260 Zn 0.7796 0.36031 0.5216 0.0
Zn261 Zn 0.7486 0.37688 0.52532 0.0
O262 O 0.74856 0.36085 0.54792 0.0
O263 O 0.77253 0.34339 0.54075 0.0
O264 O 0.72511 0.39176 0.52926 0.0
O265 O 0.7967 0.38511 0.52921 0.0
O266 O 0.77057 0.39949 0.52664 0.0
C267 C 0.75866 0.34746 0.55114 0.0
C268 C 0.7562 0.35136 0.48747 0.0
O269 O 0.74423 0.36007 0.49808 0.0
O270 O 0.77296 0.35051 0.49402 0.0
C271 C 0.71828 0.39961 0.51602 0.0
O272 O 0.72612 0.39733 0.49932 0.0
C273 C 0.78875 0.40045 0.52903 0.0
Zn274 Zn 0.63302 0.97608 0.76871 0.0
Zn275 Zn 0.65532 0.0085 0.76468 0.0
O276 O 0.63985 0.01776 0.78823 0.0
O277 O 0.62332 0.99062 0.79284 0.0
O278 O 0.6721 0.03245 0.76061 0.0
O279 O 0.65661 0.96207 0.76975 0.0
O280 O 0.67486 0.98922 0.76845 0.0
C281 C 0.62804 0.00868 0.79788 0.0
C282 C 0.62566 0.98841 0.73312 0.0
O283 O 0.63941 0.00134 0.73944 0.0
O284 O 0.61959 0.97599 0.74324 0.0
C285 C 0.6651 0.04818 0.75913 0.0
O286 O 0.64659 0.04899 0.76087 0.0
C287 C 0.67313 0.97122 0.76973 0.0
Zn288 Zn 0.04109 0.26122 0.85637 0.0
Zn289 Zn 0.04486 0.23271 0.87536 0.0
O290 O 0.07102 0.23635 0.86227 0.0
O291 O 0.0685 0.2624 0.84927 0.0
O292 O 0.04835 0.21147 0.89106 0.0
O293 O 0.03311 0.27816 0.87974 0.0
O294 O 0.03984 0.25565 0.89633 0.0
C295 C 0.07832 0.24923 0.85298 0.0
C296 C 0.01384 0.2288 0.843 0.0
O297 O 0.02085 0.22231 0.85715 0.0
O298 O 0.02096 0.24481 0.83888 0.0
C299 C 0.04737 0.1934 0.88446 0.0
O300 O 0.04378 0.18747 0.8661 0.0
C301 C 0.03458 0.27238 0.8956 0.0
Zn302 Zn 0.52621 0.7545 0.34688 0.0
Zn303 Zn 0.52957 0.73055 0.37115 0.0
O304 O 0.55525 0.73044 0.35664 0.0
O305 O 0.55163 0.75039 0.33627 0.0
O306 O 0.53318 0.71209 0.38992 0.0
O307 O 0.52353 0.77652 0.36815 0.0
O308 O 0.52619 0.75665 0.38877 0.0
C309 C 0.56163 0.739 0.34316 0.0
C310 C 0.49633 0.72343 0.34063 0.0
O311 O 0.50457 0.71848 0.35504 0.0
O312 O 0.50311 0.73832 0.33416 0.0
C313 C 0.53445 0.69409 0.38435 0.0
O314 O 0.53302 0.68721 0.36599 0.0
C315 C 0.52395 0.77356 0.38522 0.0
Zn316 Zn 0.97816 0.77839 0.6281 0.0
Zn317 Zn 0.00865 0.7758 0.65042 0.0
O318 O 0.01672 0.80021 0.63843 0.0
O319 O 0.99083 0.80331 0.62158 0.0
O320 O 0.03178 0.77369 0.66706 0.0
O321 O 0.96135 0.77905 0.65072 0.0
O322 O 0.98672 0.77842 0.66931 0.0
C323 C 0.00786 0.80941 0.62753 0.0
C324 C 0.99566 0.74339 0.6166 0.0
O325 O 0.00646 0.75002 0.63138 0.0
O326 O 0.98255 0.75299 0.6118 0.0
C327 C 0.03197 0.7598 0.67648 0.0
O328 O 0.01673 0.74707 0.67551 0.0
C329 C 0.96874 0.77929 0.66718 0.0
Zn330 Zn 0.47285 0.28705 0.12031 0.0
Zn331 Zn 0.50086 0.28047 0.14406 0.0
O332 O 0.51207 0.30485 0.13361 0.0
O333 O 0.48817 0.31177 0.11619 0.0
O334 O 0.52194 0.27583 0.16209 0.0
O335 O 0.45436 0.28768 0.14158 0.0
O336 O 0.47782 0.28405 0.16136 0.0
C337 C 0.50517 0.31576 0.12312 0.0
C338 C 0.48806 0.25053 0.10839 0.0
O339 O 0.49795 0.25549 0.12402 0.0
O340 O 0.47659 0.26172 0.10328 0.0
C341 C 0.53941 0.2784 0.15785 0.0
O342 O 0.54354 0.284 0.14154 0.0
C343 C 0.46031 0.28645 0.15824 0.0
H344 H 0.21317 0.73463 0.82023 0.0
H345 H 0.20982 0.75434 0.85154 0.0
H346 H 0.26986 0.75321 0.86492 0.0
H347 H 0.27368 0.73455 0.83349 0.0
H348 H 0.243 0.74274 0.89371 0.0
H349 H 0.2581 0.79186 0.85321 0.0
H350 H 0.25162 0.80796 0.82576 0.0
H351 H 0.19654 0.81986 0.84702 0.0
H352 H 0.20261 0.80356 0.87448 0.0
H353 H 0.28193 0.81213 0.96781 0.0
H354 H 0.27245 0.79142 0.93772 0.0
H355 H 0.21862 0.81606 0.93699 0.0
H356 H 0.22836 0.83759 0.96735 0.0
H357 H 0.23342 0.81269 0.90251 0.0
H358 H 0.21999 0.76938 0.9458 0.0
H359 H 0.22512 0.75303 0.97335 0.0
H360 H 0.27386 0.72893 0.94735 0.0
H361 H 0.26922 0.74537 0.91976 0.0
C362 C 0.22575 0.73879 0.82969 0.0
C363 C 0.2437 0.73282 0.82425 0.0
C364 C 0.22374 0.74994 0.84764 0.0
C365 C 0.23957 0.75511 0.86053 0.0
C366 C 0.25743 0.74918 0.85521 0.0
C367 C 0.25953 0.73836 0.83724 0.0
C368 C 0.23785 0.76672 0.87965 0.0
C369 C 0.24091 0.75803 0.8957 0.0
C370 C 0.23426 0.78642 0.88218 0.0
C371 C 0.23069 0.79627 0.86574 0.0
C372 C 0.24453 0.79774 0.85192 0.0
C373 C 0.24095 0.80694 0.83639 0.0
C374 C 0.22365 0.81486 0.83461 0.0
C375 C 0.20992 0.81367 0.84839 0.0
C376 C 0.21342 0.80446 0.86395 0.0
C377 C 0.26798 0.81317 0.96145 0.0
C378 C 0.25586 0.82651 0.97014 0.0
C379 C 0.26252 0.80116 0.94419 0.0
C380 C 0.24464 0.80182 0.93524 0.0
C381 C 0.23243 0.81517 0.94373 0.0
C382 C 0.23799 0.82742 0.96109 0.0
C383 C 0.23942 0.78892 0.91668 0.0
C384 C 0.23502 0.79729 0.90068 0.0
C385 C 0.24147 0.76878 0.9142 0.0
C386 C 0.24428 0.75869 0.93071 0.0
C387 C 0.23187 0.76069 0.94599 0.0
C388 C 0.23469 0.75139 0.96162 0.0
C389 C 0.24981 0.73996 0.96211 0.0
C390 C 0.26214 0.73778 0.94694 0.0
C391 C 0.2594 0.74706 0.93129 0.0
H392 H 0.25197 0.73278 0.97422 0.0
H393 H 0.22091 0.82198 0.82257 0.0
H394 H 0.99532 0.57802 0.42092 0.0
H395 H 0.02453 0.57867 0.40244 0.0
H396 H 0.02847 0.51844 0.40637 0.0
H397 H 0.99963 0.518 0.42507 0.0
H398 H 0.0634 0.53807 0.40962 0.0
H399 H 0.00665 0.53246 0.36735 0.0
H400 H 0.97704 0.54351 0.35549 0.0
H401 H 0.00882 0.59636 0.34575 0.0
H402 H 0.03858 0.58568 0.35777 0.0
H403 H 0.09737 0.48854 0.32621 0.0
H404 H 0.08108 0.50317 0.35389 0.0
H405 H 0.09323 0.55963 0.33771 0.0
H406 H 0.10971 0.54495 0.30972 0.0
H407 H 0.05525 0.5509 0.34351 0.0
H408 H 0.11352 0.55137 0.37852 0.0
H409 H 0.14268 0.5386 0.38908 0.0
H410 H 0.10818 0.49422 0.41167 0.0
H411 H 0.0788 0.50653 0.401 0.0
C412 C 0.00271 0.56509 0.41805 0.0
C413 C 0.99543 0.54795 0.42426 0.0
C414 C 0.0193 0.56543 0.40748 0.0
C415 C 0.02859 0.54853 0.40283 0.0
C416 C 0.02162 0.53166 0.40981 0.0
C417 C 0.00514 0.53137 0.42042 0.0
C418 C 0.04462 0.54768 0.38955 0.0
C419 C 0.06166 0.5409 0.39517 0.0
C420 C 0.04262 0.55199 0.37088 0.0
C421 C 0.02476 0.5584 0.36369 0.0
C422 C 0.00728 0.5465 0.36282 0.0
C423 C 0.99048 0.55268 0.35605 0.0
C424 C 0.99104 0.57066 0.34994 0.0
C425 C 0.0084 0.58246 0.35054 0.0
C426 C 0.02523 0.57636 0.35732 0.0
C427 C 0.0969 0.50413 0.32868 0.0
C428 C 0.10473 0.51558 0.31572 0.0
C429 C 0.08769 0.51251 0.34462 0.0
C430 C 0.08605 0.53252 0.34797 0.0
C431 C 0.09444 0.54416 0.33544 0.0
C432 C 0.10388 0.53578 0.31951 0.0
C433 C 0.07373 0.54055 0.36334 0.0
C434 C 0.05733 0.54864 0.35812 0.0
C435 C 0.07628 0.5373 0.38231 0.0
C436 C 0.09392 0.52986 0.38889 0.0
C437 C 0.11213 0.53881 0.38563 0.0
C438 C 0.12871 0.53166 0.39166 0.0
C439 C 0.12728 0.5156 0.40103 0.0
C440 C 0.10927 0.50667 0.40442 0.0
C441 C 0.09264 0.51376 0.39842 0.0
H442 H 0.14014 0.51008 0.40568 0.0
H443 H 0.97802 0.57542 0.34469 0.0
H444 H 0.82353 0.75782 0.84179 0.0
H445 H 0.8172 0.7345 0.86343 0.0
H446 H 0.81584 0.78157 0.91056 0.0
H447 H 0.82299 0.80504 0.88911 0.0
H448 H 0.83479 0.75356 0.92083 0.0
H449 H 0.77429 0.75654 0.88976 0.0
H450 H 0.75164 0.75565 0.86251 0.0
H451 H 0.76149 0.69673 0.84135 0.0
H452 H 0.78443 0.69735 0.86833 0.0
H453 H 0.79569 0.68741 0.98058 0.0
H454 H 0.7991 0.71477 0.96297 0.0
H455 H 0.80318 0.67487 0.91055 0.0
H456 H 0.79953 0.64766 0.92782 0.0
H457 H 0.7803 0.70195 0.9055 0.0
H458 H 0.8431 0.70033 0.93481 0.0
H459 H 0.86595 0.70124 0.96192 0.0
H460 H 0.85146 0.75773 0.98645 0.0
H461 H 0.82833 0.75704 0.95958 0.0
C462 C 0.8222 0.76324 0.8568 0.0
C463 C 0.82369 0.78331 0.8637 0.0
C464 C 0.81833 0.74988 0.86912 0.0
C465 C 0.81567 0.7563 0.88855 0.0
C466 C 0.81768 0.7763 0.8956 0.0
C467 C 0.82163 0.78968 0.88329 0.0
C468 C 0.81076 0.74208 0.90144 0.0
C469 C 0.82268 0.74248 0.91766 0.0
C470 C 0.79506 0.72751 0.89721 0.0
C471 C 0.78119 0.72705 0.881 0.0
C472 C 0.77173 0.74343 0.87922 0.0
C473 C 0.75882 0.74297 0.86383 0.0
C474 C 0.75515 0.72615 0.85018 0.0
C475 C 0.76436 0.70975 0.85192 0.0
C476 C 0.7773 0.71014 0.86727 0.0
C477 C 0.7972 0.68449 0.96529 0.0
C478 C 0.79742 0.66535 0.95564 0.0
C479 C 0.79922 0.70013 0.95527 0.0
C480 C 0.80156 0.69685 0.93547 0.0
C481 C 0.80137 0.67775 0.92581 0.0
C482 C 0.79935 0.66219 0.93576 0.0
C483 C 0.8046 0.71315 0.92461 0.0
C484 C 0.79228 0.71318 0.90878 0.0
C485 C 0.81991 0.7281 0.92921 0.0
C486 C 0.83383 0.72853 0.94532 0.0
C487 C 0.84468 0.71287 0.94607 0.0
C488 C 0.8577 0.71336 0.96137 0.0
C489 C 0.86011 0.7295 0.97593 0.0
C490 C 0.84954 0.74522 0.97518 0.0
C491 C 0.83649 0.74479 0.95992 0.0
H492 H 0.8702 0.72986 0.98776 0.0
H493 H 0.74516 0.72582 0.83828 0.0
H494 H 0.01308 0.98531 0.44996 0.0
H495 H 0.99576 0.99329 0.42264 0.0
H496 H 0.04307 0.97964 0.38705 0.0
H497 H 0.06045 0.97124 0.41433 0.0
H498 H 0.02858 0.01395 0.38138 0.0
H499 H 0.00492 0.9481 0.38217 0.0
H500 H 0.99179 0.92002 0.39636 0.0
H501 H 0.94148 0.94817 0.41153 0.0
H502 H 0.95443 0.97656 0.39769 0.0
H503 H 0.9646 0.01784 0.29961 0.0
H504 H 0.98855 0.00823 0.32107 0.0
H505 H 0.9501 0.01666 0.36741 0.0
H506 H 0.92634 0.0261 0.34635 0.0
H507 H 0.96324 0.9811 0.36307 0.0
H508 H 0.98899 0.04841 0.36553 0.0
H509 H 0.0024 0.0766 0.35166 0.0
H510 H 0.04886 0.04528 0.32991 0.0
H511 H 0.03557 0.01679 0.34346 0.0
C512 C 0.01974 0.98376 0.43629 0.0
C513 C 0.03808 0.97746 0.43431 0.0
C514 C 0.00986 0.98842 0.42071 0.0
C515 C 0.01807 0.98686 0.40279 0.0
C516 C 0.03651 0.98095 0.40077 0.0
C517 C 0.04641 0.97619 0.41638 0.0
C518 C 0.00711 0.99127 0.38626 0.0
C519 C 0.01444 0.00654 0.37709 0.0
C520 C 0.98865 0.98163 0.38075 0.0
C521 C 0.98072 0.96452 0.389 0.0
C522 C 0.99112 0.94837 0.38865 0.0
C523 C 0.98369 0.93238 0.39662 0.0
C524 C 0.96582 0.93233 0.40487 0.0
C525 C 0.95532 0.94824 0.40514 0.0
C526 C 0.96269 0.96427 0.39721 0.0
C527 C 0.9614 0.01789 0.31444 0.0
C528 C 0.94349 0.02255 0.32122 0.0
C529 C 0.97508 0.01239 0.32666 0.0
C530 C 0.971 0.0116 0.34579 0.0
C531 C 0.95345 0.01698 0.35266 0.0
C532 C 0.93988 0.02242 0.34056 0.0
C533 C 0.98436 0.0043 0.35871 0.0
C534 C 0.9775 0.98834 0.36713 0.0
C535 C 0.00321 0.01329 0.36345 0.0
C536 C 0.01115 0.03039 0.35528 0.0
C537 C 0.00196 0.04746 0.35763 0.0
C538 C 0.00956 0.06352 0.34986 0.0
C539 C 0.02643 0.06271 0.33985 0.0
C540 C 0.03577 0.04587 0.33763 0.0
C541 C 0.02822 0.02977 0.34535 0.0
H542 H 0.0323 0.07515 0.33386 0.0
H543 H 0.9601 0.91994 0.41103 0.0
H544 H 0.25462 0.2213 0.66316 0.0
H545 H 0.26107 0.20368 0.63183 0.0
H546 H 0.31674 0.23644 0.63405 0.0
H547 H 0.31053 0.254 0.66565 0.0
H548 H 0.29742 0.23247 0.59863 0.0
H549 H 0.31415 0.19162 0.64293 0.0
H550 H 0.30888 0.17376 0.66977 0.0
H551 H 0.26052 0.13908 0.63903 0.0
H552 H 0.26533 0.15694 0.6121 0.0
H553 H 0.33085 0.16919 0.51999 0.0
H554 H 0.32775 0.18884 0.55131 0.0
H555 H 0.27353 0.15584 0.55723 0.0
H556 H 0.27669 0.13594 0.5262 0.0
H557 H 0.2946 0.16059 0.58919 0.0
H558 H 0.27638 0.202 0.54579 0.0
H559 H 0.28045 0.22021 0.51906 0.0
H560 H 0.33036 0.25391 0.54787 0.0
H561 H 0.32674 0.23571 0.57468 0.0
C562 C 0.26831 0.22468 0.65707 0.0
C563 C 0.28214 0.23892 0.667 0.0
C564 C 0.27193 0.21465 0.63913 0.0
C565 C 0.28947 0.21859 0.63074 0.0
C566 C 0.30312 0.23318 0.64031 0.0
C567 C 0.29952 0.24322 0.65833 0.0
C568 C 0.29359 0.20713 0.61214 0.0
C569 C 0.29713 0.21678 0.59659 0.0
C570 C 0.29282 0.18664 0.60947 0.0
C571 C 0.29001 0.17573 0.62556 0.0
C572 C 0.30231 0.18028 0.64194 0.0
C573 C 0.29942 0.17014 0.65717 0.0
C574 C 0.28435 0.15532 0.65612 0.0
C575 C 0.27218 0.15057 0.63983 0.0
C576 C 0.27499 0.16068 0.62457 0.0
C577 C 0.31827 0.16612 0.52796 0.0
C578 C 0.30401 0.151 0.52058 0.0
C579 C 0.31647 0.17743 0.54583 0.0
C580 C 0.30031 0.17395 0.55655 0.0
C581 C 0.28614 0.15879 0.54923 0.0
C582 C 0.28795 0.14744 0.53145 0.0
C583 C 0.29816 0.18586 0.57551 0.0
C584 C 0.29503 0.17629 0.59119 0.0
C585 C 0.2992 0.2064 0.57825 0.0
C586 C 0.30142 0.21734 0.56214 0.0
C587 C 0.28832 0.21318 0.54635 0.0
C588 C 0.29053 0.22352 0.5312 0.0
C589 C 0.30569 0.23817 0.53173 0.0
C590 C 0.31864 0.24254 0.54745 0.0
C591 C 0.31652 0.23222 0.56264 0.0
H592 H 0.30736 0.24617 0.51999 0.0
H593 H 0.28213 0.14749 0.66793 0.0
H594 H 0.49761 0.51998 0.57138 0.0
H595 H 0.47763 0.51608 0.59842 0.0
H596 H 0.52832 0.52055 0.63507 0.0
H597 H 0.54847 0.5244 0.60794 0.0
H598 H 0.50168 0.49285 0.64308 0.0
H599 H 0.50279 0.55929 0.63525 0.0
H600 H 0.49954 0.58642 0.61775 0.0
H601 H 0.44006 0.56635 0.60487 0.0
H602 H 0.44302 0.53892 0.62206 0.0
H603 H 0.45258 0.5119 0.72987 0.0
H604 H 0.47414 0.5143 0.70366 0.0
H605 H 0.42545 0.50954 0.66437 0.0
H606 H 0.40378 0.50736 0.69053 0.0
H607 H 0.45215 0.53802 0.65855 0.0
H608 H 0.45158 0.4711 0.66628 0.0
H609 H 0.45526 0.44427 0.68408 0.0
H610 H 0.51426 0.46589 0.69782 0.0
H611 H 0.51086 0.49301 0.6803 0.0
C612 C 0.50453 0.52015 0.5852 0.0
C613 C 0.52464 0.52274 0.58755 0.0
C614 C 0.49308 0.51792 0.60065 0.0
C615 C 0.50144 0.5184 0.61888 0.0
C616 C 0.52153 0.52021 0.62116 0.0
C617 C 0.53303 0.52236 0.60564 0.0
C618 C 0.48915 0.51748 0.63556 0.0
C619 C 0.49104 0.5029 0.64663 0.0
C620 C 0.47504 0.5304 0.64006 0.0
C621 C 0.47317 0.54695 0.6298 0.0
C622 C 0.48905 0.56058 0.62857 0.0
C623 C 0.48725 0.57602 0.61872 0.0
C624 C 0.46961 0.57808 0.61016 0.0
C625 C 0.45372 0.56472 0.61148 0.0
C626 C 0.45544 0.54924 0.62129 0.0
C627 C 0.44643 0.51134 0.71565 0.0
C628 C 0.42641 0.50939 0.71232 0.0
C629 C 0.4588 0.51263 0.70065 0.0
C630 C 0.45144 0.51189 0.68198 0.0
C631 C 0.43147 0.51012 0.67864 0.0
C632 C 0.41909 0.50882 0.69362 0.0
C633 C 0.4645 0.51325 0.66594 0.0
C634 C 0.4628 0.52798 0.65502 0.0
C635 C 0.47883 0.50053 0.66167 0.0
C636 C 0.48091 0.4842 0.67215 0.0
C637 C 0.4653 0.47022 0.67322 0.0
C638 C 0.46734 0.45494 0.68324 0.0
C639 C 0.48497 0.4534 0.69212 0.0
C640 C 0.50061 0.46711 0.69095 0.0
C641 C 0.49864 0.48243 0.68097 0.0
H642 H 0.48652 0.44157 0.69986 0.0
H643 H 0.46825 0.59005 0.60254 0.0
H644 H 0.78105 0.29024 0.71249 0.0
H645 H 0.7677 0.30383 0.68596 0.0
H646 H 0.78735 0.25753 0.64594 0.0
H647 H 0.80081 0.24412 0.67249 0.0
H648 H 0.79964 0.29247 0.63775 0.0
H649 H 0.73935 0.26068 0.6528 0.0
H650 H 0.71314 0.25272 0.67361 0.0
H651 H 0.70278 0.31269 0.68511 0.0
H652 H 0.72912 0.32106 0.66456 0.0
H653 H 0.76417 0.31012 0.55212 0.0
H654 H 0.76566 0.29431 0.58007 0.0
H655 H 0.74827 0.34521 0.61517 0.0
H656 H 0.74632 0.36111 0.58685 0.0
H657 H 0.73384 0.30973 0.62709 0.0
H658 H 0.79402 0.34173 0.61285 0.0
H659 H 0.82025 0.3502 0.59225 0.0
H660 H 0.8312 0.29042 0.58021 0.0
H661 H 0.80482 0.28154 0.60051 0.0
C662 C 0.78203 0.28275 0.69802 0.0
C663 C 0.79175 0.26612 0.69438 0.0
C664 C 0.7744 0.29049 0.68289 0.0
C665 C 0.77644 0.28167 0.66392 0.0
C666 C 0.78557 0.26457 0.66043 0.0
C667 C 0.79316 0.25686 0.67555 0.0
C668 C 0.77088 0.29124 0.64773 0.0
C669 C 0.78517 0.29595 0.6353 0.0
C670 C 0.75218 0.29653 0.64494 0.0
C671 C 0.73634 0.29153 0.65729 0.0
C672 C 0.7316 0.2722 0.6599 0.0
C673 C 0.7167 0.26761 0.67162 0.0
C674 C 0.70634 0.28219 0.68072 0.0
C675 C 0.71083 0.30141 0.67807 0.0
C676 C 0.72574 0.30608 0.66637 0.0
C677 C 0.76021 0.31781 0.5657 0.0
C678 C 0.75535 0.33694 0.56737 0.0
C679 C 0.76109 0.30875 0.58168 0.0
C680 C 0.75751 0.31873 0.59977 0.0
C681 C 0.75117 0.33729 0.60133 0.0
C682 C 0.75004 0.34634 0.58517 0.0
C683 C 0.76252 0.31046 0.61697 0.0
C684 C 0.74827 0.30618 0.62962 0.0
C685 C 0.78132 0.30564 0.62014 0.0
C686 C 0.79734 0.31095 0.60807 0.0
C687 C 0.80193 0.33037 0.6057 0.0
C688 C 0.81684 0.33525 0.59409 0.0
C689 C 0.82736 0.32085 0.58489 0.0
C690 C 0.82303 0.30156 0.58733 0.0
C691 C 0.80811 0.29659 0.5989 0.0
H692 H 0.83889 0.32466 0.57591 0.0
H693 H 0.6948 0.27861 0.68978 0.0
H694 H 0.52482 0.98873 0.58173 0.0
H695 H 0.54266 0.99251 0.61226 0.0
H696 H 0.58459 0.95712 0.58559 0.0
H697 H 0.56647 0.95295 0.55503 0.0
H698 H 0.57661 0.94718 0.61835 0.0
H699 H 0.59396 0.00722 0.59726 0.0
H700 H 0.58873 0.03717 0.58488 0.0
H701 H 0.55813 0.05689 0.63469 0.0
H702 H 0.56294 0.02691 0.64725 0.0
H703 H 0.63919 0.00764 0.70481 0.0
H704 H 0.62585 0.00442 0.67221 0.0
H705 H 0.57923 0.96428 0.68524 0.0
H706 H 0.59274 0.96696 0.71759 0.0
H707 H 0.59387 0.01232 0.65738 0.0
H708 H 0.56559 0.93032 0.64732 0.0
H709 H 0.57401 0.90049 0.65817 0.0
H710 H 0.63271 0.92503 0.66775 0.0
H711 H 0.62471 0.95489 0.65672 0.0
C712 C 0.5379 0.98184 0.58239 0.0
C713 C 0.54434 0.97064 0.56603 0.0
C714 C 0.54811 0.98406 0.59981 0.0
C715 C 0.56516 0.9754 0.60115 0.0
C716 C 0.5715 0.96398 0.58487 0.0
C717 C 0.56115 0.96158 0.56746 0.0
C718 C 0.57611 0.978 0.61966 0.0
C719 C 0.58044 0.96142 0.62685 0.0
C720 C 0.58153 0.99662 0.63056 0.0
C721 C 0.5787 0.01474 0.62313 0.0
C722 C 0.58601 0.01788 0.60552 0.0
C723 C 0.58313 0.03487 0.59848 0.0
C724 C 0.57307 0.04891 0.60898 0.0
C725 C 0.56591 0.046 0.62657 0.0
C726 C 0.56873 0.02902 0.63366 0.0
C727 C 0.62608 0.99815 0.70073 0.0
C728 C 0.61711 0.98743 0.71374 0.0
C729 C 0.61847 0.99634 0.6821 0.0
C730 C 0.60173 0.98384 0.67618 0.0
C731 C 0.59242 0.97364 0.68934 0.0
C732 C 0.60012 0.97527 0.70787 0.0
C733 C 0.5939 0.98147 0.65627 0.0
C734 C 0.59015 0.99809 0.64882 0.0
C735 C 0.5895 0.96292 0.6449 0.0
C736 C 0.5945 0.94491 0.65134 0.0
C737 C 0.58031 0.92931 0.65166 0.0
C738 C 0.58501 0.91241 0.65786 0.0
C739 C 0.60387 0.91089 0.6637 0.0
C740 C 0.61809 0.92625 0.66329 0.0
C741 C 0.61348 0.94318 0.65709 0.0
H742 H 0.60747 0.8978 0.66851 0.0
H743 H 0.57085 0.06205 0.6035 0.0
H744 H 0.83782 0.20205 0.77915 0.0
H745 H 0.86738 0.19684 0.79563 0.0
H746 H 0.90075 0.22303 0.75457 0.0
H747 H 0.87128 0.22775 0.73769 0.0
H748 H 0.91524 0.19063 0.76217 0.0
H749 H 0.89357 0.24842 0.79858 0.0
H750 H 0.87038 0.26708 0.81718 0.0
H751 H 0.8689 0.22802 0.85783 0.0
H752 H 0.89191 0.20897 0.83931 0.0
H753 H 0.00348 0.23078 0.80653 0.0
H754 H 0.97209 0.22116 0.79064 0.0
H755 H 0.95254 0.19585 0.83902 0.0
H756 H 0.98425 0.20567 0.8552 0.0
H757 H 0.92897 0.22126 0.82972 0.0
H758 H 0.9554 0.16694 0.79586 0.0
H759 H 0.97919 0.14908 0.77738 0.0
H760 H 0.97228 0.18165 0.73203 0.0
H761 H 0.94865 0.19992 0.75034 0.0
C762 C 0.85145 0.20652 0.77351 0.0
C763 C 0.85218 0.21538 0.75712 0.0
C764 C 0.86834 0.20365 0.78303 0.0
C765 C 0.88629 0.20966 0.77642 0.0
C766 C 0.88706 0.21827 0.75993 0.0
C767 C 0.8702 0.22115 0.75042 0.0
C768 C 0.90435 0.20748 0.78685 0.0
C769 C 0.9183 0.19738 0.77692 0.0
C770 C 0.90806 0.21568 0.8063 0.0
C771 C 0.89427 0.22714 0.81744 0.0
C772 C 0.88818 0.24372 0.8114 0.0
C773 C 0.87509 0.25438 0.82194 0.0
C774 C 0.86812 0.2487 0.83864 0.0
C775 C 0.87427 0.23238 0.84487 0.0
C776 C 0.88734 0.22165 0.83436 0.0
C777 C 0.99267 0.22273 0.81363 0.0
C778 C 0.9963 0.21905 0.83215 0.0
C779 C 0.97472 0.21714 0.80447 0.0
C780 C 0.95993 0.2077 0.81357 0.0
C781 C 0.96377 0.20308 0.8317 0.0
C782 C 0.9819 0.20856 0.84087 0.0
C783 C 0.94014 0.20487 0.80489 0.0
C784 C 0.92581 0.21408 0.81512 0.0
C785 C 0.93612 0.19587 0.78569 0.0
C786 C 0.95029 0.18487 0.77454 0.0
C787 C 0.95904 0.17039 0.782 0.0
C788 C 0.97249 0.16018 0.77154 0.0
C789 C 0.97726 0.16424 0.75355 0.0
C790 C 0.96856 0.17851 0.74597 0.0
C791 C 0.95511 0.18877 0.75637 0.0
H792 H 0.98768 0.15632 0.74548 0.0
H793 H 0.858 0.25698 0.84679 0.0
H794 H 0.51916 0.94033 0.47992 0.0
H795 H 0.51592 0.90851 0.45961 0.0
H796 H 0.50652 0.88086 0.50894 0.0
H797 H 0.50923 0.91273 0.52939 0.0
H798 H 0.53418 0.86513 0.4862 0.0
H799 H 0.47001 0.87999 0.47837 0.0
H800 H 0.44447 0.90002 0.47198 0.0
H801 H 0.46426 0.90131 0.4155 0.0
H802 H 0.49012 0.88153 0.42164 0.0
H803 H 0.5196 0.7728 0.42353 0.0
H804 H 0.51498 0.80029 0.44857 0.0
H805 H 0.51873 0.83872 0.40695 0.0
H806 H 0.5229 0.81154 0.38202 0.0
H807 H 0.49006 0.84627 0.42915 0.0
H808 H 0.55663 0.83586 0.43851 0.0
H809 H 0.58305 0.81681 0.44477 0.0
H810 H 0.5593 0.8079 0.49812 0.0
H811 H 0.53259 0.82671 0.49206 0.0
C812 C 0.51595 0.92755 0.48645 0.0
C813 C 0.51449 0.92915 0.50633 0.0
C814 C 0.51418 0.90933 0.47481 0.0
C815 C 0.51092 0.89232 0.48276 0.0
C816 C 0.5091 0.89382 0.50253 0.0
C817 C 0.51073 0.91205 0.51418 0.0
C818 C 0.51043 0.87303 0.47046 0.0
C819 C 0.52427 0.86079 0.47394 0.0
C820 C 0.49769 0.86754 0.45433 0.0
C821 C 0.4821 0.87937 0.45052 0.0
C822 C 0.46901 0.88466 0.46463 0.0
C823 C 0.45446 0.89596 0.46105 0.0
C824 C 0.45277 0.90196 0.44336 0.0
C825 C 0.4656 0.89665 0.4292 0.0
C826 C 0.48019 0.88538 0.43272 0.0
C827 C 0.51946 0.78712 0.41976 0.0
C828 C 0.52163 0.78994 0.40076 0.0
C829 C 0.51685 0.80282 0.43408 0.0
C830 C 0.51658 0.82161 0.42966 0.0
C831 C 0.51876 0.82437 0.41072 0.0
C832 C 0.52124 0.80877 0.39646 0.0
C833 C 0.51419 0.83862 0.44455 0.0
C834 C 0.49977 0.85044 0.44158 0.0
C835 C 0.52647 0.84378 0.46108 0.0
C836 C 0.5425 0.83247 0.46472 0.0
C837 C 0.55696 0.8297 0.4515 0.0
C838 C 0.572 0.81897 0.45503 0.0
C839 C 0.57282 0.81109 0.4718 0.0
C840 C 0.55862 0.81397 0.48512 0.0
C841 C 0.54354 0.82467 0.48165 0.0
H842 H 0.58447 0.80279 0.47451 0.0
H843 H 0.44149 0.91071 0.44061 0.0
H844 H 0.22376 0.27152 0.75386 0.0
H845 H 0.19823 0.27329 0.77699 0.0
H846 H 0.21309 0.22034 0.79428 0.0
H847 H 0.23847 0.2186 0.77113 0.0
H848 H 0.17534 0.21844 0.78552 0.0
H849 H 0.22194 0.26313 0.82443 0.0
H850 H 0.24608 0.29163 0.83218 0.0
H851 H 0.20348 0.32927 0.82286 0.0
H852 H 0.17914 0.30096 0.81478 0.0
H853 H 0.10346 0.22181 0.85498 0.0
H854 H 0.13521 0.2209 0.84129 0.0
H855 H 0.12915 0.27475 0.82108 0.0
H856 H 0.09787 0.27596 0.83488 0.0
H857 H 0.16472 0.2748 0.83462 0.0
H858 H 0.11966 0.23065 0.7917 0.0
H859 H 0.09515 0.20259 0.78285 0.0
H860 H 0.13465 0.16451 0.79868 0.0
H861 H 0.15933 0.1924 0.80785 0.0
C862 C 0.22176 0.26056 0.76294 0.0
C863 C 0.233 0.24502 0.76098 0.0
C864 C 0.20724 0.26155 0.77613 0.0
C865 C 0.20381 0.24698 0.78745 0.0
C866 C 0.21549 0.23174 0.78574 0.0
C867 C 0.23001 0.2308 0.77263 0.0
C868 C 0.18712 0.24678 0.7999 0.0
C869 C 0.17322 0.23061 0.79654 0.0
C870 C 0.18415 0.26281 0.81398 0.0
C871 C 0.19875 0.27989 0.81884 0.0
C872 C 0.21775 0.27747 0.82388 0.0
C873 C 0.23146 0.29359 0.82836 0.0
C874 C 0.22633 0.31225 0.82797 0.0
C875 C 0.20745 0.31481 0.82314 0.0
C876 C 0.19368 0.29873 0.81863 0.0
C877 C 0.10899 0.23352 0.84777 0.0
C878 C 0.09803 0.24885 0.8459 0.0
C879 C 0.12711 0.23297 0.83991 0.0
C880 C 0.13449 0.24767 0.82998 0.0
C881 C 0.12381 0.26326 0.82869 0.0
C882 C 0.10582 0.26384 0.83651 0.0
C883 C 0.15284 0.24658 0.82005 0.0
C884 C 0.16702 0.26251 0.82383 0.0
C885 C 0.15603 0.2304 0.80622 0.0
C886 C 0.14124 0.21363 0.80068 0.0
C887 C 0.12306 0.21631 0.79343 0.0
C888 C 0.10915 0.20044 0.78833 0.0
C889 C 0.11332 0.18179 0.79026 0.0
C890 C 0.13143 0.17897 0.79723 0.0
C891 C 0.14538 0.1948 0.80238 0.0
H892 H 0.10254 0.16951 0.7863 0.0
H893 H 0.23696 0.32471 0.83145 0.0
H894 H 0.55808 0.60372 0.52661 0.0
H895 H 0.56016 0.62587 0.50323 0.0
H896 H 0.54521 0.57738 0.45786 0.0
H897 H 0.54317 0.55519 0.48134 0.0
H898 H 0.57263 0.60575 0.44745 0.0
H899 H 0.51093 0.60221 0.47599 0.0
H900 H 0.48923 0.60409 0.50285 0.0
H901 H 0.51117 0.6637 0.52184 0.0
H902 H 0.53321 0.66209 0.49524 0.0
H903 H 0.53501 0.65462 0.37736 0.0
H904 H 0.54029 0.63313 0.40028 0.0
H905 H 0.54709 0.6824 0.44586 0.0
H906 H 0.54135 0.70396 0.42304 0.0
H907 H 0.52533 0.6541 0.45666 0.0
H908 H 0.58594 0.65873 0.42766 0.0
H909 H 0.60818 0.65727 0.40128 0.0
H910 H 0.58943 0.59666 0.38363 0.0
H911 H 0.56686 0.59781 0.40976 0.0
C912 C 0.55586 0.59777 0.51158 0.0
C913 C 0.55068 0.57783 0.50565 0.0
C914 C 0.55689 0.61042 0.49826 0.0
C915 C 0.55259 0.60332 0.47882 0.0
C916 C 0.5486 0.58317 0.47277 0.0
C917 C 0.5475 0.57051 0.48614 0.0
C918 C 0.55054 0.61699 0.46514 0.0
C919 C 0.56218 0.61621 0.44933 0.0
C920 C 0.53718 0.63094 0.46783 0.0
C921 C 0.52385 0.63197 0.48375 0.0
C922 C 0.51123 0.61567 0.48599 0.0
C923 C 0.49885 0.6167 0.50115 0.0
C924 C 0.49886 0.63399 0.51408 0.0
C925 C 0.51121 0.65031 0.51184 0.0
C926 C 0.52363 0.64935 0.49671 0.0
C927 C 0.53767 0.66092 0.39225 0.0
C928 C 0.53777 0.68105 0.39833 0.0
C929 C 0.54082 0.6486 0.40535 0.0
C930 C 0.5444 0.65612 0.42482 0.0
C931 C 0.54442 0.67621 0.43094 0.0
C932 C 0.54115 0.68854 0.41785 0.0
C933 C 0.54747 0.64298 0.43886 0.0
C934 C 0.53592 0.64378 0.45476 0.0
C935 C 0.56101 0.62916 0.43629 0.0
C936 C 0.57457 0.6284 0.42057 0.0
C937 C 0.58644 0.64512 0.41806 0.0
C938 C 0.59913 0.64434 0.40317 0.0
C939 C 0.60019 0.6269 0.39075 0.0
C940 C 0.58858 0.61017 0.39324 0.0
C941 C 0.57585 0.61087 0.4081 0.0
H942 H 0.61002 0.62632 0.37923 0.0
H943 H 0.48927 0.63475 0.5258 0.0
H944 H 0.8782 0.79945 0.82492 0.0
H945 H 0.90056 0.79369 0.7992 0.0
H946 H 0.85716 0.80257 0.75849 0.0
H947 H 0.83467 0.80829 0.7842 0.0
H948 H 0.87628 0.76942 0.74679 0.0
H949 H 0.89157 0.83747 0.77184 0.0
H950 H 0.90042 0.86569 0.79715 0.0
H951 H 0.95261 0.84244 0.80989 0.0
H952 H 0.94392 0.81391 0.78481 0.0
H953 H 0.93036 0.7826 0.66719 0.0
H954 H 0.90981 0.78599 0.69433 0.0
H955 H 0.95801 0.78288 0.73209 0.0
H956 H 0.97892 0.77978 0.70486 0.0
H957 H 0.93746 0.81161 0.74651 0.0
H958 H 0.92353 0.74445 0.72083 0.0
H959 H 0.91496 0.71574 0.69599 0.0
H960 H 0.8608 0.73617 0.6851 0.0
H961 H 0.86914 0.76517 0.70969 0.0
C962 C 0.87342 0.8001 0.81047 0.0
C963 C 0.85471 0.80432 0.80654 0.0
C964 C 0.88622 0.79691 0.79583 0.0
C965 C 0.88052 0.79779 0.77698 0.0
C966 C 0.86181 0.80184 0.77297 0.0
C967 C 0.84905 0.80524 0.78765 0.0
C968 C 0.89411 0.79447 0.76144 0.0
C969 C 0.88956 0.77875 0.74658 0.0
C970 C 0.91171 0.80628 0.76157 0.0
C971 C 0.91699 0.82346 0.77659 0.0
C972 C 0.90485 0.83829 0.78015 0.0
C973 C 0.90986 0.85436 0.79443 0.0
C974 C 0.92704 0.85583 0.80516 0.0
C975 C 0.93929 0.84126 0.80159 0.0
C976 C 0.93434 0.82515 0.78733 0.0
C977 C 0.93665 0.78255 0.68123 0.0
C978 C 0.95632 0.78087 0.68382 0.0
C979 C 0.92482 0.7844 0.69675 0.0
C980 C 0.93229 0.78441 0.71522 0.0
C981 C 0.95193 0.78283 0.71794 0.0
C982 C 0.96385 0.78102 0.70236 0.0
C983 C 0.91957 0.78665 0.73165 0.0
C984 C 0.92426 0.80215 0.74673 0.0
C985 C 0.90216 0.77453 0.73179 0.0
C986 C 0.89704 0.75708 0.717 0.0
C987 C 0.90985 0.74291 0.71304 0.0
C988 C 0.90502 0.72656 0.69902 0.0
C989 C 0.88737 0.72415 0.68895 0.0
C990 C 0.87448 0.73807 0.6929 0.0
C991 C 0.87924 0.75445 0.7069 0.0
H992 H 0.88366 0.71149 0.6781 0.0
H993 H 0.9309 0.86828 0.81621 0.0
H994 H 0.05949 0.95484 0.54249 0.0
H995 H 0.06377 0.93685 0.56895 0.0
H996 H 0.04584 0.88303 0.53102 0.0
H997 H 0.0421 0.90096 0.50473 0.0
H998 H 0.03722 0.91765 0.58435 0.0
H999 H 0.06202 0.84492 0.54425 0.0
H1000 H 0.08511 0.83483 0.51998 0.0
H1001 H 0.11786 0.89073 0.53368 0.0
H1002 H 0.09515 0.9011 0.55824 0.0
H1003 H 0.99114 0.83485 0.6092 0.0
H1004 H 0.00666 0.86147 0.59534 0.0
H1005 H 0.06179 0.85026 0.61668 0.0
H1006 H 0.04621 0.82312 0.63056 0.0
H1007 H 0.06301 0.8539 0.57993 0.0
H1008 H 0.0439 0.89221 0.63517 0.0
H1009 H 0.02287 0.90341 0.66104 0.0
H1010 H 0.98343 0.91879 0.62039 0.0
H1011 H 0.00406 0.90742 0.59421 0.0
C1012 C 0.05703 0.93912 0.53984 0.0
C1013 C 0.05062 0.92913 0.52174 0.0
C1014 C 0.0594 0.92887 0.5549 0.0
C1015 C 0.05535 0.90853 0.55199 0.0
C1016 C 0.04956 0.89862 0.5336 0.0
C1017 C 0.04729 0.90885 0.51859 0.0
C1018 C 0.05468 0.89775 0.56834 0.0
C1019 C 0.04312 0.90387 0.58354 0.0
C1020 C 0.06294 0.88007 0.56772 0.0
C1021 C 0.0768 0.87381 0.55308 0.0
C1022 C 0.07422 0.85503 0.54221 0.0
C1023 C 0.08723 0.84927 0.52836 0.0
C1024 C 0.10293 0.86214 0.52527 0.0
C1025 C 0.10567 0.88079 0.53605 0.0
C1026 C 0.09271 0.88663 0.54992 0.0
C1027 C 0.00655 0.83811 0.61119 0.0
C1028 C 0.01744 0.82679 0.62094 0.0
C1029 C 0.01541 0.85349 0.60336 0.0
C1030 C 0.03538 0.85805 0.60517 0.0
C1031 C 0.04634 0.84706 0.61523 0.0
C1032 C 0.03742 0.83161 0.62318 0.0
C1033 C 0.04451 0.87326 0.59505 0.0
C1034 C 0.05762 0.86798 0.58105 0.0
C1035 C 0.03805 0.89191 0.59701 0.0
C1036 C 0.02556 0.89892 0.6127 0.0
C1037 C 0.03069 0.89789 0.63172 0.0
C1038 C 0.01884 0.90427 0.64645 0.0
C1039 C 0.00182 0.9118 0.64236 0.0
C1040 C 0.99663 0.91298 0.62353 0.0
C1041 C 0.00843 0.9066 0.60874 0.0
H1042 H 0.99266 0.91674 0.65379 0.0
H1043 H 0.11298 0.85765 0.51454 0.0
H1044 H 0.17728 0.7043 0.76021 0.0
H1045 H 0.14539 0.71206 0.75096 0.0
H1046 H 0.17133 0.76304 0.73088 0.0
H1047 H 0.20321 0.75533 0.74033 0.0
H1048 H 0.13768 0.76976 0.74878 0.0
H1049 H 0.15993 0.72197 0.70001 0.0
H1050 H 0.1724 0.69098 0.68743 0.0
H1051 H 0.12248 0.6594 0.70563 0.0
H1052 H 0.10984 0.69023 0.71857 0.0
H1053 H 0.06605 0.78315 0.68107 0.0
H1054 H 0.09533 0.77819 0.69809 0.0
H1055 H 0.06675 0.72631 0.71429 0.0
H1056 H 0.03747 0.73102 0.6971 0.0
H1057 H 0.10082 0.71982 0.70031 0.0
H1058 H 0.07731 0.76776 0.74703 0.0
H1059 H 0.06486 0.7988 0.7594 0.0
H1060 H 0.11675 0.83018 0.74504 0.0
H1061 H 0.12941 0.79933 0.73233 0.0
C1062 C 0.17605 0.71736 0.75418 0.0
C1063 C 0.19247 0.7293 0.75095 0.0
C1064 C 0.1579 0.72173 0.74883 0.0
C1065 C 0.15602 0.73799 0.74 0.0
C1066 C 0.17246 0.75044 0.73767 0.0
C1067 C 0.19061 0.74605 0.74303 0.0
C1068 C 0.13713 0.74124 0.73197 0.0
C1069 C 0.12967 0.75893 0.73807 0.0
C1070 C 0.12651 0.72694 0.71827 0.0
C1071 C 0.13405 0.7084 0.71044 0.0
C1072 C 0.15169 0.70841 0.70147 0.0
C1073 C 0.15877 0.69088 0.69425 0.0
C1074 C 0.14826 0.67324 0.69578 0.0
C1075 C 0.13062 0.67308 0.70449 0.0
C1076 C 0.12348 0.69058 0.71176 0.0
C1077 C 0.06593 0.77076 0.68837 0.0
C1078 C 0.04942 0.75745 0.68768 0.0
C1079 C 0.08267 0.768 0.69819 0.0
C1080 C 0.0832 0.75197 0.70762 0.0
C1081 C 0.06667 0.7388 0.70714 0.0
C1082 C 0.04993 0.74154 0.69733 0.0
C1083 C 0.10129 0.74837 0.71709 0.0
C1084 C 0.10867 0.73062 0.71117 0.0
C1085 C 0.1118 0.76263 0.73093 0.0
C1086 C 0.10424 0.78122 0.73857 0.0
C1087 C 0.086 0.78128 0.74636 0.0
C1088 C 0.07892 0.79884 0.75346 0.0
C1089 C 0.08998 0.81645 0.75296 0.0
C1090 C 0.10818 0.81653 0.7454 0.0
C1091 C 0.11533 0.79901 0.73826 0.0
H1092 H 0.08447 0.83003 0.75847 0.0
H1093 H 0.15377 0.65968 0.69018 0.0
H1094 H 0.97033 0.60282 0.48586 0.0
H1095 H 0.98372 0.63102 0.50872 0.0
H1096 H 0.99131 0.59422 0.55079 0.0
H1097 H 0.97719 0.56597 0.528 0.0
H1098 H 0.97522 0.62315 0.56637 0.0
H1099 H 0.03051 0.6185 0.53024 0.0
H1100 H 0.04989 0.61453 0.50169 0.0
H1101 H 0.0326 0.66735 0.48698 0.0
H1102 H 0.01288 0.6715 0.51529 0.0
H1103 H 0.01192 0.71269 0.62737 0.0
H1104 H 0.01377 0.68058 0.60795 0.0
H1105 H 0.98746 0.69973 0.55991 0.0
H1106 H 0.98521 0.7315 0.57919 0.0
H1107 H 0.02004 0.67738 0.55124 0.0
H1108 H 0.95971 0.67637 0.58487 0.0
H1109 H 0.94125 0.67978 0.6141 0.0
H1110 H 0.97107 0.63623 0.63452 0.0
H1111 H 0.9899 0.63278 0.6055 0.0
C1112 C 0.97526 0.60069 0.49984 0.0
C1113 C 0.97275 0.58224 0.50517 0.0
C1114 C 0.98302 0.61682 0.51291 0.0
C1115 C 0.98883 0.61478 0.53147 0.0
C1116 C 0.98697 0.59619 0.53658 0.0
C1117 C 0.97892 0.58007 0.52357 0.0
C1118 C 0.99493 0.63232 0.54594 0.0
C1119 C 0.98545 0.63474 0.56322 0.0
C1120 C 0.00822 0.6476 0.54193 0.0
C1121 C 0.02013 0.64526 0.52488 0.0
C1122 C 0.03074 0.62921 0.52086 0.0
C1123 C 0.0418 0.62694 0.50472 0.0
C1124 C 0.04246 0.64067 0.49251 0.0
C1125 C 0.03208 0.65672 0.49645 0.0
C1126 C 0.02098 0.65907 0.51257 0.0
C1127 C 0.00672 0.71007 0.61261 0.0
C1128 C 0.99826 0.72451 0.60483 0.0
C1129 C 0.0078 0.69178 0.60157 0.0
C1130 C 0.00076 0.68786 0.58253 0.0
C1131 C 0.99305 0.70253 0.57455 0.0
C1132 C 0.99164 0.72061 0.58563 0.0
C1133 C 0.99991 0.66816 0.57112 0.0
C1134 C 0.01031 0.66544 0.55447 0.0
C1135 C 0.98774 0.65248 0.57581 0.0
C1136 C 0.97637 0.65451 0.59317 0.0
C1137 C 0.96245 0.66766 0.59568 0.0
C1138 C 0.9519 0.66957 0.61219 0.0
C1139 C 0.95504 0.65828 0.62619 0.0
C1140 C 0.96869 0.64501 0.62369 0.0
C1141 C 0.9793 0.64306 0.60722 0.0
H1142 H 0.94685 0.65977 0.63896 0.0
H1143 H 0.05103 0.63888 0.48002 0.0
H1144 H 0.81726 0.81684 0.21318 0.0
H1145 H 0.83341 0.84922 0.21188 0.0
H1146 H 0.79298 0.87491 0.25044 0.0
H1147 H 0.77649 0.84273 0.25137 0.0
H1148 H 0.79978 0.8954 0.22171 0.0
H1149 H 0.83733 0.86743 0.26631 0.0
H1150 H 0.85639 0.84269 0.27588 0.0
H1151 H 0.89641 0.85192 0.23268 0.0
H1152 H 0.87742 0.87655 0.2227 0.0
H1153 H 0.84386 0.98281 0.27322 0.0
H1154 H 0.82858 0.95046 0.2604 0.0
H1155 H 0.8762 0.94009 0.22423 0.0
H1156 H 0.89179 0.97268 0.23718 0.0
H1157 H 0.86781 0.91102 0.24462 0.0
H1158 H 0.83293 0.94361 0.20418 0.0
H1159 H 0.81403 0.96889 0.19558 0.0
H1160 H 0.76908 0.95155 0.23113 0.0
H1161 H 0.78782 0.92634 0.24018 0.0
C1162 C 0.81169 0.82942 0.2212 0.0
C1163 C 0.79567 0.82722 0.23249 0.0
C1164 C 0.821 0.84789 0.22053 0.0
C1165 C 0.81448 0.86446 0.23118 0.0
C1166 C 0.79825 0.86232 0.2421 0.0
C1167 C 0.78897 0.84391 0.24279 0.0
C1168 C 0.82485 0.88405 0.23163 0.0
C1169 C 0.81464 0.89886 0.22676 0.0
C1170 C 0.84442 0.8884 0.23759 0.0
C1171 C 0.85584 0.87363 0.2436 0.0
C1172 C 0.85011 0.86405 0.25875 0.0
C1173 C 0.86091 0.85008 0.26427 0.0
C1174 C 0.87756 0.84568 0.25485 0.0
C1175 C 0.88348 0.8553 0.23993 0.0
C1176 C 0.87271 0.86927 0.23434 0.0
C1177 C 0.85101 0.97381 0.26233 0.0
C1178 C 0.8691 0.9803 0.25628 0.0
C1179 C 0.84217 0.95532 0.25491 0.0
C1180 C 0.85117 0.94289 0.24125 0.0
C1181 C 0.86898 0.94949 0.23472 0.0
C1182 C 0.87783 0.96813 0.24207 0.0
C1183 C 0.84257 0.92253 0.23526 0.0
C1184 C 0.85309 0.90754 0.23911 0.0
C1185 C 0.82327 0.91804 0.2284 0.0
C1186 C 0.81185 0.93312 0.22293 0.0
C1187 C 0.81907 0.94526 0.21027 0.0
C1188 C 0.80838 0.95957 0.2053 0.0
C1189 C 0.79038 0.96184 0.21282 0.0
C1190 C 0.78302 0.94977 0.22531 0.0
C1191 C 0.79367 0.93544 0.23034 0.0
H1192 H 0.78212 0.97293 0.20896 0.0
H1193 H 0.88591 0.83486 0.25915 0.0
H1194 H 0.79472 0.21535 0.29693 0.0
H1195 H 0.81989 0.19341 0.29445 0.0
H1196 H 0.77913 0.14638 0.26685 0.0
H1197 H 0.75385 0.16795 0.26992 0.0
H1198 H 0.79904 0.13481 0.29344 0.0
H1199 H 0.81356 0.16894 0.24172 0.0
H1200 H 0.82088 0.19767 0.22628 0.0
H1201 H 0.87204 0.21437 0.26198 0.0
H1202 H 0.86488 0.18586 0.27782 0.0
H1203 H 0.88079 0.08038 0.2511 0.0
H1204 H 0.86145 0.10742 0.24928 0.0
H1205 H 0.8609 0.11931 0.3107 0.0
H1206 H 0.8797 0.09229 0.31256 0.0
H1207 H 0.86169 0.14777 0.26441 0.0
H1208 H 0.81517 0.12146 0.32286 0.0
H1209 H 0.80714 0.09148 0.33623 0.0
H1210 H 0.81777 0.05703 0.28259 0.0
H1211 H 0.82556 0.08678 0.26883 0.0
C1212 C 0.79111 0.20031 0.29044 0.0
C1213 C 0.77227 0.19343 0.28358 0.0
C1214 C 0.80556 0.18784 0.28882 0.0
C1215 C 0.80146 0.16829 0.28025 0.0
C1216 C 0.78267 0.16142 0.27343 0.0
C1217 C 0.76825 0.17383 0.27508 0.0
C1218 C 0.81644 0.15466 0.27914 0.0
C1219 C 0.81271 0.1377 0.28707 0.0
C1220 C 0.83421 0.15824 0.27061 0.0
C1221 C 0.83859 0.17536 0.26108 0.0
C1222 C 0.82629 0.17882 0.24638 0.0
C1223 C 0.83043 0.19505 0.23754 0.0
C1224 C 0.84689 0.20786 0.24318 0.0
C1225 C 0.85928 0.20444 0.25764 0.0
C1226 C 0.8552 0.18824 0.26655 0.0
C1227 C 0.877 0.08916 0.26417 0.0
C1228 C 0.88144 0.08408 0.28195 0.0
C1229 C 0.86597 0.10458 0.26313 0.0
C1230 C 0.85943 0.11508 0.27986 0.0
C1231 C 0.86553 0.11119 0.29762 0.0
C1232 C 0.87627 0.09573 0.29866 0.0
C1233 C 0.84429 0.12823 0.27897 0.0
C1234 C 0.84799 0.145 0.27074 0.0
C1235 C 0.82627 0.12436 0.2869 0.0
C1236 C 0.82112 0.10636 0.29489 0.0
C1237 C 0.81569 0.10748 0.3139 0.0
C1238 C 0.81119 0.09053 0.32155 0.0
C1239 C 0.812 0.07236 0.31029 0.0
C1240 C 0.81721 0.07111 0.29132 0.0
C1241 C 0.82168 0.08801 0.2836 0.0
H1242 H 0.80855 0.05926 0.31624 0.0
H1243 H 0.85007 0.22042 0.23631 0.0
H1244 H 0.43475 0.00333 0.96597 0.0
H1245 H 0.40803 0.98136 0.97385 0.0
H1246 H 0.37944 0.03042 0.9989 0.0
H1247 H 0.40646 0.05256 0.99129 0.0
H1248 H 0.37567 0.00285 0.02044 0.0
H1249 H 0.36472 0.0048 0.95477 0.0
H1250 H 0.37256 0.00369 0.92104 0.0
H1251 H 0.38491 0.94457 0.91753 0.0
H1252 H 0.37742 0.94541 0.95133 0.0
H1253 H 0.29094 0.93269 0.0207 0.0
H1254 H 0.31157 0.96121 0.01418 0.0
H1255 H 0.35558 0.92456 0.99568 0.0
H1256 H 0.33545 0.89633 0.00231 0.0
H1257 H 0.34643 0.94986 0.97002 0.0
H1258 H 0.36098 0.95065 0.03757 0.0
H1259 H 0.35247 0.95249 0.07122 0.0
H1260 H 0.33137 0.00767 0.07034 0.0
H1261 H 0.33953 0.00602 0.03658 0.0
C1262 C 0.42274 0.00944 0.97309 0.0
C1263 C 0.4226 0.02965 0.97786 0.0
C1264 C 0.40745 0.99688 0.97756 0.0
C1265 C 0.39151 0.00424 0.9866 0.0
C1266 C 0.39153 0.02442 0.99183 0.0
C1267 C 0.40696 0.03704 0.98751 0.0
C1268 C 0.37498 0.99067 0.99052 0.0
C1269 C 0.369 0.99151 0.00933 0.0
C1270 C 0.36621 0.97587 0.97605 0.0
C1271 C 0.37061 0.97522 0.95565 0.0
C1272 C 0.36922 0.9916 0.94685 0.0
C1273 C 0.37359 0.99101 0.9277 0.0
C1274 C 0.37925 0.97408 0.91715 0.0
C1275 C 0.38052 0.95768 0.92572 0.0
C1276 C 0.37619 0.95819 0.94487 0.0
C1277 C 0.30504 0.93077 0.01531 0.0
C1278 C 0.31155 0.91224 0.01205 0.0
C1279 C 0.31679 0.94705 0.01162 0.0
C1280 C 0.33506 0.94492 0.00442 0.0
C1281 C 0.34151 0.92648 0.00117 0.0
C1282 C 0.32997 0.91036 0.00507 0.0
C1283 C 0.34769 0.96168 0.99997 0.0
C1284 C 0.35287 0.96145 0.98102 0.0
C1285 C 0.3555 0.97713 0.01424 0.0
C1286 C 0.35061 0.97809 0.0345 0.0
C1287 C 0.35434 0.96308 0.0445 0.0
C1288 C 0.34963 0.96411 0.0636 0.0
C1289 C 0.34132 0.98015 0.07289 0.0
C1290 C 0.33776 0.99523 0.06311 0.0
C1291 C 0.34243 0.99426 0.044 0.0
H1292 H 0.33769 0.98093 0.08768 0.0
H1293 H 0.38263 0.97365 0.90233 0.0
H1294 H 0.28831 0.36891 0.30176 0.0
H1295 H 0.27539 0.39549 0.2886 0.0
H1296 H 0.22498 0.35691 0.26686 0.0
H1297 H 0.23811 0.33042 0.27961 0.0
H1298 H 0.23429 0.38154 0.24272 0.0
H1299 H 0.22683 0.38603 0.31127 0.0
H1300 H 0.23891 0.38904 0.34461 0.0
H1301 H 0.2726 0.44253 0.33989 0.0
H1302 H 0.26086 0.4397 0.30644 0.0
H1303 H 0.15179 0.42915 0.25269 0.0
H1304 H 0.17872 0.41001 0.25356 0.0
H1305 H 0.21736 0.46251 0.26857 0.0
H1306 H 0.19023 0.48196 0.26772 0.0
H1307 H 0.22149 0.43638 0.29268 0.0
H1308 H 0.22093 0.43496 0.2259 0.0
H1309 H 0.20692 0.43144 0.19324 0.0
H1310 H 0.18677 0.37188 0.19472 0.0
H1311 H 0.2004 0.3751 0.2275 0.0
C1312 C 0.27472 0.3661 0.2937 0.0
C1313 C 0.2641 0.34781 0.29158 0.0
C1314 C 0.26732 0.38125 0.28629 0.0
C1315 C 0.24908 0.37827 0.27698 0.0
C1316 C 0.23908 0.35957 0.27393 0.0
C1317 C 0.24653 0.34446 0.28124 0.0
C1318 C 0.23934 0.39477 0.27217 0.0
C1319 C 0.23153 0.39358 0.2536 0.0
C1320 C 0.23619 0.4108 0.28624 0.0
C1321 C 0.24318 0.41253 0.30633 0.0
C1322 C 0.23691 0.39836 0.31732 0.0
C1323 C 0.24368 0.40004 0.33623 0.0
C1324 C 0.25657 0.41593 0.34434 0.0
C1325 C 0.26266 0.43021 0.33357 0.0
C1326 C 0.25595 0.42858 0.31465 0.0
C1327 C 0.16602 0.4367 0.25597 0.0
C1328 C 0.16885 0.45709 0.26025 0.0
C1329 C 0.18145 0.42571 0.25629 0.0
C1330 C 0.20008 0.43483 0.26092 0.0
C1331 C 0.20309 0.45521 0.26483 0.0
C1332 C 0.1876 0.46628 0.26433 0.0
C1333 C 0.21584 0.42277 0.2634 0.0
C1334 C 0.22475 0.42475 0.28158 0.0
C1335 C 0.21983 0.40739 0.24901 0.0
C1336 C 0.21165 0.40531 0.22922 0.0
C1337 C 0.21341 0.42114 0.21932 0.0
C1338 C 0.20554 0.41919 0.20077 0.0
C1339 C 0.19595 0.40145 0.19192 0.0
C1340 C 0.19422 0.38561 0.20159 0.0
C1341 C 0.20205 0.38748 0.22015 0.0
H1342 H 0.18987 0.39998 0.17756 0.0
H1343 H 0.26179 0.41721 0.35898 0.0
H1344 H 0.09595 0.99464 0.50281 0.0
H1345 H 0.12902 0.01041 0.50652 0.0
H1346 H 0.1393 0.98491 0.44873 0.0
H1347 H 0.10641 0.96911 0.44501 0.0
H1348 H 0.17061 0.9854 0.47371 0.0
H1349 H 0.12559 0.02907 0.45728 0.0
H1350 H 0.09723 0.04704 0.46262 0.0
H1351 H 0.12191 0.07634 0.51682 0.0
H1352 H 0.15031 0.05831 0.51189 0.0
H1353 H 0.23919 0.04527 0.435 0.0
H1354 H 0.21024 0.02666 0.44309 0.0
H1355 H 0.21145 0.06339 0.49813 0.0
H1356 H 0.24048 0.08236 0.49006 0.0
H1357 H 0.17591 0.05735 0.48149 0.0
H1358 H 0.22363 0.01781 0.49521 0.0
H1359 H 0.25204 0.99999 0.48969 0.0
H1360 H 0.22285 0.96296 0.44131 0.0
H1361 H 0.19435 0.98074 0.44636 0.0
C1362 C 0.10545 0.99206 0.4911 0.0
C1363 C 0.09867 0.98082 0.47357 0.0
C1364 C 0.12426 0.00113 0.49319 0.0
C1365 C 0.13649 0.99897 0.47782 0.0
C1366 C 0.13007 0.98676 0.46075 0.0
C1367 C 0.11129 0.97784 0.4586 0.0
C1368 C 0.15534 0.01071 0.47869 0.0
C1369 C 0.17183 0.00113 0.47541 0.0
C1370 C 0.15692 0.03125 0.48144 0.0
C1371 C 0.13993 0.04218 0.48433 0.0
C1372 C 0.12489 0.03923 0.4704 0.0
C1373 C 0.10882 0.04944 0.47334 0.0
C1374 C 0.10774 0.06277 0.49008 0.0
C1375 C 0.12275 0.06597 0.50388 0.0
C1376 C 0.13883 0.05576 0.50102 0.0
C1377 C 0.23337 0.04943 0.44883 0.0
C1378 C 0.2422 0.06529 0.46188 0.0
C1379 C 0.21686 0.03868 0.45351 0.0
C1380 C 0.20889 0.04343 0.47135 0.0
C1381 C 0.21747 0.05941 0.48434 0.0
C1382 C 0.23404 0.0702 0.47967 0.0
C1383 C 0.19119 0.03202 0.47598 0.0
C1384 C 0.17487 0.04166 0.48025 0.0
C1385 C 0.18979 0.01153 0.47419 0.0
C1386 C 0.20688 0.0007 0.47111 0.0
C1387 C 0.22331 0.00595 0.48331 0.0
C1388 C 0.23943 0.99584 0.48028 0.0
C1389 C 0.23926 0.98037 0.46515 0.0
C1390 C 0.22296 0.97495 0.45303 0.0
C1391 C 0.20681 0.98502 0.45599 0.0
H1392 H 0.25176 0.97256 0.46282 0.0
H1393 H 0.09529 0.07067 0.49233 0.0
H1394 H 0.80271 0.16714 0.72472 0.0
H1395 H 0.77669 0.14163 0.72586 0.0
H1396 H 0.73741 0.18489 0.73947 0.0
H1397 H 0.7637 0.21062 0.73918 0.0
H1398 H 0.73369 0.15993 0.76308 0.0
H1399 H 0.7347 0.15398 0.69563 0.0
H1400 H 0.74878 0.15101 0.664 0.0
H1401 H 0.76843 0.09665 0.67141 0.0
H1402 H 0.75471 0.09941 0.70321 0.0
H1403 H 0.65559 0.08494 0.75842 0.0
H1404 H 0.67629 0.11288 0.75128 0.0
H1405 H 0.7234 0.07783 0.7431 0.0
H1406 H 0.70286 0.04984 0.7502 0.0
H1407 H 0.71981 0.10025 0.71472 0.0
H1408 H 0.72141 0.10865 0.78367 0.0
H1409 H 0.70703 0.11192 0.81518 0.0
H1410 H 0.68162 0.16231 0.8041 0.0
H1411 H 0.69566 0.15918 0.77239 0.0
C1412 C 0.78851 0.17125 0.72786 0.0
C1413 C 0.78532 0.19093 0.73203 0.0
C1414 C 0.77357 0.15662 0.72829 0.0
C1415 C 0.75501 0.16129 0.7326 0.0
C1416 C 0.7516 0.18092 0.73607 0.0
C1417 C 0.7666 0.19561 0.73574 0.0
C1418 C 0.73966 0.14571 0.73493 0.0
C1419 C 0.73036 0.14708 0.7523 0.0
C1420 C 0.73552 0.12875 0.72105 0.0
C1421 C 0.74377 0.12698 0.70189 0.0
C1422 C 0.74214 0.14146 0.69058 0.0
C1423 C 0.75004 0.1398 0.67261 0.0
C1424 C 0.75953 0.12367 0.66571 0.0
C1425 C 0.76109 0.10914 0.67677 0.0
C1426 C 0.75322 0.11073 0.69476 0.0
C1427 C 0.67036 0.08317 0.7551 0.0
C1428 C 0.6776 0.06518 0.75496 0.0
C1429 C 0.68216 0.09916 0.75105 0.0
C1430 C 0.7014 0.09744 0.74674 0.0
C1431 C 0.70859 0.07945 0.74636 0.0
C1432 C 0.69685 0.0635 0.75052 0.0
C1433 C 0.71419 0.11442 0.74292 0.0
C1434 C 0.72299 0.11326 0.72532 0.0
C1435 C 0.71778 0.13163 0.75652 0.0
C1436 C 0.70939 0.13355 0.77558 0.0
C1437 C 0.71262 0.12033 0.78789 0.0
C1438 C 0.70456 0.12218 0.8058 0.0
C1439 C 0.69337 0.13728 0.81162 0.0
C1440 C 0.69026 0.1506 0.79956 0.0
C1441 C 0.69827 0.1488 0.78163 0.0
H1442 H 0.68715 0.13868 0.82549 0.0
H1443 H 0.76563 0.12241 0.65179 0.0
H1444 H 0.46802 0.01886 0.53352 0.0
H1445 H 0.43827 0.0305 0.52354 0.0
H1446 H 0.44871 0.00876 0.46472 0.0
H1447 H 0.47879 0.99744 0.47482 0.0
H1448 H 0.43973 0.04498 0.46866 0.0
H1449 H 0.41271 0.98668 0.48852 0.0
H1450 H 0.40726 0.96262 0.51001 0.0
H1451 H 0.38535 0.00543 0.55174 0.0
H1452 H 0.39092 0.02984 0.5306 0.0
H1453 H 0.34741 0.0607 0.43413 0.0
H1454 H 0.37573 0.04587 0.44259 0.0
H1455 H 0.37118 0.07085 0.50168 0.0
H1456 H 0.34277 0.08579 0.49337 0.0
H1457 H 0.37653 0.03164 0.4964 0.0
H1458 H 0.40489 0.09011 0.47677 0.0
H1459 H 0.41014 0.11393 0.455 0.0
H1460 H 0.42922 0.07007 0.41236 0.0
H1461 H 0.42383 0.04591 0.4338 0.0
C1462 C 0.46372 0.01632 0.5185 0.0
C1463 C 0.47539 0.00721 0.50488 0.0
C1464 C 0.44675 0.0229 0.51281 0.0
C1465 C 0.44113 0.02031 0.49338 0.0
C1466 C 0.45273 0.01084 0.47977 0.0
C1467 C 0.46979 0.00431 0.4855 0.0
C1468 C 0.4238 0.02858 0.48733 0.0
C1469 C 0.42583 0.04176 0.47446 0.0
C1470 C 0.40577 0.02478 0.49526 0.0
C1471 C 0.40239 0.01014 0.50803 0.0
C1472 C 0.40688 0.99101 0.50234 0.0
C1473 C 0.40373 0.9773 0.51445 0.0
C1474 C 0.396 0.9825 0.53225 0.0
C1475 C 0.39135 0.00142 0.53795 0.0
C1476 C 0.39448 0.0152 0.5259 0.0
C1477 C 0.35246 0.06315 0.44893 0.0
C1478 C 0.34283 0.07445 0.46308 0.0
C1479 C 0.36868 0.05469 0.45372 0.0
C1480 C 0.37557 0.05734 0.47274 0.0
C1481 C 0.36605 0.06864 0.48691 0.0
C1482 C 0.34989 0.07723 0.48212 0.0
C1483 C 0.39254 0.04804 0.47786 0.0
C1484 C 0.39043 0.03471 0.49054 0.0
C1485 C 0.41047 0.05164 0.46971 0.0
C1486 C 0.41376 0.06615 0.45682 0.0
C1487 C 0.41005 0.0855 0.46269 0.0
C1488 C 0.41308 0.09908 0.45043 0.0
C1489 C 0.41995 0.09351 0.43229 0.0
C1490 C 0.42386 0.07436 0.42641 0.0
C1491 C 0.42084 0.06072 0.43861 0.0
H1492 H 0.42229 0.10404 0.42282 0.0
H1493 H 0.39358 0.97187 0.5416 0.0
H1494 H 0.59111 0.51239 0.57742 0.0
H1495 H 0.61741 0.49251 0.57062 0.0
H1496 H 0.60473 0.48758 0.51027 0.0
H1497 H 0.57765 0.50666 0.51701 0.0
H1498 H 0.61047 0.45355 0.51788 0.0
H1499 H 0.645 0.51655 0.53367 0.0
H1500 H 0.6546 0.54883 0.55285 0.0
H1501 H 0.67383 0.52211 0.599 0.0
H1502 H 0.6641 0.48965 0.58019 0.0
H1503 H 0.69742 0.41419 0.48976 0.0
H1504 H 0.67189 0.43544 0.49551 0.0
H1505 H 0.6775 0.43457 0.55585 0.0
H1506 H 0.70306 0.41321 0.55022 0.0
H1507 H 0.67591 0.47192 0.54743 0.0
H1508 H 0.64044 0.4087 0.53085 0.0
H1509 H 0.63137 0.37681 0.51072 0.0
H1510 H 0.61467 0.40492 0.46461 0.0
H1511 H 0.62389 0.437 0.48439 0.0
C1512 C 0.59383 0.50705 0.56267 0.0
C1513 C 0.5821 0.5111 0.54778 0.0
C1514 C 0.60908 0.49584 0.55879 0.0
C1515 C 0.61328 0.48865 0.5399 0.0
C1516 C 0.60185 0.49297 0.52497 0.0
C1517 C 0.58646 0.50408 0.52885 0.0
C1518 C 0.62904 0.47596 0.53582 0.0
C1519 C 0.62485 0.45776 0.5241 0.0
C1520 C 0.64778 0.48116 0.54422 0.0
C1521 C 0.65365 0.50066 0.55558 0.0
C1522 C 0.65114 0.51755 0.54797 0.0
C1523 C 0.65662 0.53588 0.55876 0.0
C1524 C 0.66477 0.53752 0.57715 0.0
C1525 C 0.6675 0.52082 0.58476 0.0
C1526 C 0.66202 0.50245 0.57403 0.0
C1527 C 0.69319 0.41843 0.50426 0.0
C1528 C 0.70228 0.41193 0.51952 0.0
C1529 C 0.67855 0.43056 0.50752 0.0
C1530 C 0.6727 0.43654 0.52611 0.0
C1531 C 0.68178 0.43015 0.54139 0.0
C1532 C 0.69632 0.41785 0.53813 0.0
C1533 C 0.65725 0.4496 0.52959 0.0
C1534 C 0.66152 0.46782 0.54118 0.0
C1535 C 0.63866 0.44452 0.52093 0.0
C1536 C 0.63304 0.42525 0.50904 0.0
C1537 C 0.63499 0.40808 0.51637 0.0
C1538 C 0.62979 0.38997 0.50503 0.0
C1539 C 0.6225 0.38884 0.48638 0.0
C1540 C 0.62034 0.40582 0.47905 0.0
C1541 C 0.62554 0.42397 0.49032 0.0
H1542 H 0.61848 0.37481 0.47763 0.0
H1543 H 0.66902 0.55173 0.58548 0.0
H1544 H 0.76909 0.25576 0.32439 0.0
H1545 H 0.76726 0.2767 0.35514 0.0
H1546 H 0.7061 0.2614 0.35396 0.0
H1547 H 0.70782 0.24018 0.32311 0.0
H1548 H 0.71713 0.30117 0.36808 0.0
H1549 H 0.73252 0.23925 0.37981 0.0
H1550 H 0.75015 0.2103 0.37559 0.0
H1551 H 0.80256 0.24599 0.39488 0.0
H1552 H 0.78529 0.27521 0.39894 0.0
H1553 H 0.7202 0.33915 0.4705 0.0
H1554 H 0.7129 0.31961 0.43861 0.0
H1555 H 0.77333 0.32251 0.42804 0.0
H1556 H 0.78065 0.34152 0.45954 0.0
H1557 H 0.75726 0.28603 0.42095 0.0
H1558 H 0.74242 0.34817 0.40627 0.0
H1559 H 0.72501 0.37728 0.41001 0.0
H1560 H 0.67162 0.34129 0.39657 0.0
H1561 H 0.68871 0.31194 0.39299 0.0
C1562 C 0.75523 0.25682 0.33065 0.0
C1563 C 0.73864 0.24608 0.32142 0.0
C1564 C 0.7542 0.26886 0.34818 0.0
C1565 C 0.73658 0.27038 0.35696 0.0
C1566 C 0.71983 0.26041 0.34743 0.0
C1567 C 0.72085 0.24831 0.32981 0.0
C1568 C 0.73609 0.28153 0.37655 0.0
C1569 C 0.72563 0.29771 0.37976 0.0
C1570 C 0.74722 0.27702 0.39174 0.0
C1571 C 0.75762 0.25944 0.38956 0.0
C1572 C 0.74783 0.24095 0.38304 0.0
C1573 C 0.75775 0.22448 0.38069 0.0
C1574 C 0.77746 0.22631 0.38493 0.0
C1575 C 0.78729 0.2446 0.39159 0.0
C1576 C 0.77743 0.26112 0.39394 0.0
C1577 C 0.73185 0.3358 0.46122 0.0
C1578 C 0.751 0.34167 0.46763 0.0
C1579 C 0.72768 0.32466 0.44302 0.0
C1580 C 0.7426 0.31947 0.43098 0.0
C1581 C 0.76159 0.32612 0.43713 0.0
C1582 C 0.76574 0.33703 0.45519 0.0
C1583 C 0.73897 0.30623 0.41238 0.0
C1584 C 0.74856 0.28945 0.40938 0.0
C1585 C 0.72706 0.31024 0.39747 0.0
C1586 C 0.71682 0.32786 0.3996 0.0
C1587 C 0.72695 0.34646 0.40428 0.0
C1588 C 0.71715 0.363 0.40634 0.0
C1589 C 0.69721 0.36113 0.4036 0.0
C1590 C 0.68705 0.34271 0.39873 0.0
C1591 C 0.69679 0.32612 0.39668 0.0
H1592 H 0.68964 0.37395 0.40519 0.0
H1593 H 0.78512 0.21355 0.38309 0.0
H1594 H 0.50201 0.0827 0.90924 0.0
H1595 H 0.53194 0.08359 0.89189 0.0
H1596 H 0.5405 0.02664 0.90388 0.0
H1597 H 0.51097 0.02604 0.9215 0.0
H1598 H 0.57402 0.04824 0.90541 0.0
H1599 H 0.51796 0.0335 0.86178 0.0
H1600 H 0.48749 0.04036 0.84758 0.0
H1601 H 0.51554 0.0925 0.83208 0.0
H1602 H 0.54614 0.08604 0.84641 0.0
H1603 H 0.61226 0.9932 0.82723 0.0
H1604 H 0.59398 0.00902 0.85283 0.0
H1605 H 0.60441 0.06326 0.83185 0.0
H1606 H 0.62304 0.04743 0.80607 0.0
H1607 H 0.56573 0.0522 0.83673 0.0
H1608 H 0.62386 0.06095 0.87387 0.0
H1609 H 0.65388 0.05181 0.88684 0.0
H1610 H 0.62185 0.00901 0.91368 0.0
H1611 H 0.59163 0.01768 0.90064 0.0
C1612 C 0.51061 0.07064 0.90848 0.0
C1613 C 0.50442 0.05431 0.9166 0.0
C1614 C 0.52759 0.07109 0.89851 0.0
C1615 C 0.53835 0.05506 0.89635 0.0
C1616 C 0.53251 0.03919 0.90538 0.0
C1617 C 0.51565 0.03881 0.91539 0.0
C1618 C 0.5547 0.05381 0.88344 0.0
C1619 C 0.57224 0.04915 0.8904 0.0
C1620 C 0.5526 0.05555 0.86395 0.0
C1621 C 0.53424 0.05944 0.85538 0.0
C1622 C 0.51758 0.04651 0.85547 0.0
C1623 C 0.5003 0.0503 0.84738 0.0
C1624 C 0.49956 0.0669 0.839 0.0
C1625 C 0.51612 0.07969 0.83863 0.0
C1626 C 0.53343 0.07597 0.84673 0.0
C1627 C 0.61095 0.00857 0.8282 0.0
C1628 C 0.61901 0.01906 0.81458 0.0
C1629 C 0.60059 0.01763 0.84293 0.0
C1630 C 0.59795 0.03735 0.84433 0.0
C1631 C 0.6064 0.04805 0.83107 0.0
C1632 C 0.61706 0.03902 0.81641 0.0
C1633 C 0.58478 0.04593 0.85856 0.0
C1634 C 0.56778 0.05191 0.85185 0.0
C1635 C 0.58732 0.04517 0.87821 0.0
C1636 C 0.60546 0.03993 0.8862 0.0
C1637 C 0.62321 0.0495 0.88243 0.0
C1638 C 0.64027 0.04442 0.88981 0.0
C1639 C 0.63978 0.02983 0.90106 0.0
C1640 C 0.62221 0.02032 0.90497 0.0
C1641 C 0.60511 0.02534 0.89762 0.0
H1642 H 0.653 0.02591 0.90676 0.0
H1643 H 0.48618 0.06981 0.83273 0.0
H1644 H 0.32938 0.27976 0.35375 0.0
H1645 H 0.3279 0.25532 0.37481 0.0
H1646 H 0.2745 0.22822 0.34641 0.0
H1647 H 0.27552 0.25329 0.32617 0.0
H1648 H 0.27133 0.22809 0.38166 0.0
H1649 H 0.32007 0.2101 0.33806 0.0
H1650 H 0.34992 0.21479 0.321 0.0
H1651 H 0.38249 0.22708 0.37428 0.0
H1652 H 0.35278 0.2227 0.39168 0.0
H1653 H 0.27739 0.13038 0.3986 0.0
H1654 H 0.27938 0.15934 0.38338 0.0
H1655 H 0.3119 0.19225 0.43235 0.0
H1656 H 0.30949 0.16342 0.448 0.0
H1657 H 0.3266 0.19095 0.38984 0.0
H1658 H 0.27511 0.206 0.4324 0.0
H1659 H 0.24423 0.19824 0.44673 0.0
H1660 H 0.21577 0.18767 0.39131 0.0
H1661 H 0.24656 0.19509 0.37662 0.0
C1662 C 0.31737 0.26855 0.35211 0.0
C1663 C 0.30258 0.26829 0.33841 0.0
C1664 C 0.31655 0.25454 0.36404 0.0
C1665 C 0.30123 0.23968 0.36204 0.0
C1666 C 0.28644 0.23952 0.34832 0.0
C1667 C 0.28704 0.25378 0.33671 0.0
C1668 C 0.30049 0.22427 0.37416 0.0
C1669 C 0.28343 0.21993 0.3833 0.0
C1670 C 0.3163 0.2137 0.3766 0.0
C1671 C 0.33419 0.21629 0.36618 0.0
C1672 C 0.33359 0.21394 0.34614 0.0
C1673 C 0.35048 0.21652 0.33641 0.0
C1674 C 0.36809 0.22129 0.34655 0.0
C1675 C 0.36884 0.22342 0.36645 0.0
C1676 C 0.35198 0.22088 0.37625 0.0
C1677 C 0.28487 0.14381 0.40618 0.0
C1678 C 0.2933 0.14467 0.42447 0.0
C1679 C 0.28596 0.1603 0.39749 0.0
C1680 C 0.29577 0.17782 0.40679 0.0
C1681 C 0.30424 0.1788 0.42503 0.0
C1682 C 0.30279 0.16238 0.43394 0.0
C1683 C 0.29751 0.19489 0.39705 0.0
C1684 C 0.3147 0.19939 0.38832 0.0
C1685 C 0.2817 0.20528 0.39458 0.0
C1686 C 0.26317 0.2009 0.4034 0.0
C1687 C 0.26231 0.20183 0.42325 0.0
C1688 C 0.24481 0.19754 0.43145 0.0
C1689 C 0.22806 0.19241 0.41994 0.0
C1690 C 0.22876 0.19162 0.40021 0.0
C1691 C 0.24623 0.19588 0.39194 0.0
H1692 H 0.21452 0.1891 0.42631 0.0
H1693 H 0.38115 0.22328 0.33899 0.0
H1694 H 0.57414 0.47732 0.90811 0.0
H1695 H 0.55509 0.48499 0.88146 0.0
H1696 H 0.5033 0.4734 0.91103 0.0
H1697 H 0.52212 0.46574 0.93749 0.0
H1698 H 0.49916 0.45645 0.87483 0.0
H1699 H 0.52369 0.51994 0.90942 0.0
H1700 H 0.5492 0.54553 0.92328 0.0
H1701 H 0.57198 0.54627 0.86787 0.0
H1702 H 0.54672 0.52048 0.85373 0.0
H1703 H 0.42733 0.5065 0.84538 0.0
H1704 H 0.45516 0.50047 0.86366 0.0
H1705 H 0.48913 0.49924 0.81388 0.0
H1706 H 0.46103 0.50508 0.79511 0.0
H1707 H 0.50668 0.52084 0.85404 0.0
H1708 H 0.47841 0.45928 0.81938 0.0
H1709 H 0.4513 0.43497 0.80691 0.0
H1710 H 0.43451 0.43158 0.86402 0.0
H1711 H 0.46135 0.45613 0.87683 0.0
C1712 C 0.5587 0.47651 0.90892 0.0
C1713 C 0.54961 0.47082 0.92484 0.0
C1714 C 0.54784 0.48088 0.8937 0.0
C1715 C 0.52777 0.4798 0.89427 0.0
C1716 C 0.51875 0.47417 0.91019 0.0
C1717 C 0.52953 0.46975 0.9253 0.0
C1718 C 0.51585 0.48441 0.87843 0.0
C1719 C 0.50088 0.47052 0.87028 0.0
C1720 C 0.51837 0.50259 0.87208 0.0
C1721 C 0.53348 0.51812 0.88057 0.0
C1722 C 0.53424 0.52545 0.90023 0.0
C1723 C 0.54863 0.54001 0.90813 0.0
C1724 C 0.56224 0.54748 0.89647 0.0
C1725 C 0.56145 0.54044 0.87689 0.0
C1726 C 0.5471 0.52586 0.86892 0.0
C1727 C 0.44072 0.50522 0.83826 0.0
C1728 C 0.44187 0.50607 0.81869 0.0
C1729 C 0.45663 0.5018 0.84878 0.0
C1730 C 0.47408 0.49928 0.84006 0.0
C1731 C 0.47572 0.50117 0.82081 0.0
C1732 C 0.45966 0.50446 0.81014 0.0
C1733 C 0.48982 0.49305 0.85099 0.0
C1734 C 0.50539 0.5066 0.85824 0.0
C1735 C 0.48783 0.47461 0.85667 0.0
C1736 C 0.47182 0.45964 0.84905 0.0
C1737 C 0.46885 0.45346 0.82927 0.0
C1738 C 0.45355 0.43962 0.82214 0.0
C1739 C 0.44117 0.43176 0.83466 0.0
C1740 C 0.44411 0.43769 0.85434 0.0
C1741 C 0.45938 0.45155 0.86154 0.0
H1742 H 0.42933 0.42105 0.82911 0.0
H1743 H 0.57337 0.55875 0.90261 0.0
H1744 H 0.76275 0.77969 0.18165 0.0
H1745 H 0.76234 0.75567 0.15263 0.0
H1746 H 0.77514 0.7122 0.18608 0.0
H1747 H 0.77655 0.73642 0.21511 0.0
H1748 H 0.79786 0.71155 0.15751 0.0
H1749 H 0.73023 0.7117 0.16359 0.0
H1750 H 0.69963 0.726 0.16778 0.0
H1751 H 0.70708 0.74928 0.11593 0.0
H1752 H 0.73787 0.73535 0.11156 0.0
H1753 H 0.78536 0.63349 0.07949 0.0
H1754 H 0.78039 0.65464 0.10947 0.0
H1755 H 0.77339 0.70187 0.07891 0.0
H1756 H 0.77825 0.68079 0.04881 0.0
H1757 H 0.74653 0.69914 0.10645 0.0
H1758 H 0.81503 0.70039 0.10172 0.0
H1759 H 0.84556 0.68592 0.09765 0.0
H1760 H 0.83593 0.65956 0.14745 0.0
H1761 H 0.80519 0.67367 0.15167 0.0
C1762 C 0.76546 0.76501 0.18286 0.0
C1763 C 0.76981 0.76004 0.20073 0.0
C1764 C 0.76499 0.75122 0.16624 0.0
C1765 C 0.76855 0.73205 0.16714 0.0
C1766 C 0.77231 0.72688 0.18502 0.0
C1767 C 0.77292 0.74071 0.20164 0.0
C1768 C 0.76966 0.7178 0.14937 0.0
C1769 C 0.78645 0.70858 0.14653 0.0
C1770 C 0.755 0.71425 0.13479 0.0
C1771 C 0.73645 0.72261 0.13734 0.0
C1772 C 0.72542 0.72 0.15316 0.0
C1773 C 0.70803 0.72801 0.15555 0.0
C1774 C 0.70143 0.73858 0.14215 0.0
C1775 C 0.71221 0.74111 0.12631 0.0
C1776 C 0.72963 0.73313 0.12385 0.0
C1777 C 0.78271 0.64836 0.07911 0.0
C1778 C 0.78232 0.65548 0.06176 0.0
C1779 C 0.7799 0.66043 0.09627 0.0
C1780 C 0.77668 0.67987 0.09642 0.0
C1781 C 0.77585 0.68692 0.0791 0.0
C1782 C 0.77873 0.67487 0.06193 0.0
C1783 C 0.77469 0.693 0.1147 0.0
C1784 C 0.75781 0.70203 0.11757 0.0
C1785 C 0.78921 0.69634 0.12936 0.0
C1786 C 0.80772 0.68791 0.12689 0.0
C1787 C 0.81934 0.69138 0.11171 0.0
C1788 C 0.8367 0.68327 0.10939 0.0
C1789 C 0.84265 0.67178 0.12225 0.0
C1790 C 0.83128 0.66843 0.13749 0.0
C1791 C 0.8139 0.67649 0.13986 0.0
H1792 H 0.85609 0.66552 0.12043 0.0
H1793 H 0.68796 0.74477 0.14403 0.0
H1794 H 0.03205 0.06223 0.08919 0.0
H1795 H 0.01399 0.0644 0.11822 0.0
H1796 H 0.02544 0.00639 0.12409 0.0
H1797 H 0.04278 0.00375 0.09453 0.0
H1798 H 0.98917 0.01051 0.13012 0.0
H1799 H 0.04861 0.04744 0.15312 0.0
H1800 H 0.07579 0.07276 0.15371 0.0
H1801 H 0.03733 0.11696 0.16208 0.0
H1802 H 0.00987 0.09188 0.16128 0.0
H1803 H 0.95442 0.01584 0.22381 0.0
H1804 H 0.97538 0.01316 0.19674 0.0
H1805 H 0.96389 0.07002 0.18693 0.0
H1806 H 0.94317 0.07295 0.21416 0.0
H1807 H 0.00128 0.06574 0.18372 0.0
H1808 H 0.94179 0.02842 0.15934 0.0
H1809 H 0.91475 0.00295 0.15886 0.0
H1810 H 0.9538 0.95925 0.15332 0.0
H1811 H 0.98111 0.9845 0.15403 0.0
C1812 C 0.03067 0.04987 0.09658 0.0
C1813 C 0.0389 0.0328 0.08945 0.0
C1814 C 0.02051 0.05123 0.11334 0.0
C1815 C 0.01853 0.03565 0.12353 0.0
C1816 C 0.02683 0.01864 0.11654 0.0
C1817 C 0.03692 0.01723 0.09971 0.0
C1818 C 0.00723 0.03688 0.14109 0.0
C1819 C 0.99205 0.02243 0.14197 0.0
C1820 C 0.01067 0.05263 0.15643 0.0
C1821 C 0.02716 0.06776 0.15697 0.0
C1822 C 0.04593 0.06255 0.15495 0.0
C1823 C 0.06139 0.07686 0.15534 0.0
C1824 C 0.05829 0.09645 0.15789 0.0
C1825 C 0.03971 0.10177 0.16009 0.0
C1826 C 0.0242 0.08752 0.15969 0.0
C1827 C 0.95636 0.0278 0.21593 0.0
C1828 C 0.94702 0.04458 0.22113 0.0
C1829 C 0.96831 0.02621 0.20039 0.0
C1830 C 0.97105 0.04129 0.18962 0.0
C1831 C 0.962 0.05818 0.19499 0.0
C1832 C 0.95009 0.05981 0.21055 0.0
C1833 C 0.98319 0.03944 0.17267 0.0
C1834 C 0.99851 0.05377 0.1719 0.0
C1835 C 0.97992 0.02356 0.15746 0.0
C1836 C 0.9635 0.00836 0.15693 0.0
C1837 C 0.94462 0.01339 0.15816 0.0
C1838 C 0.92925 0.99899 0.15783 0.0
C1839 C 0.93256 0.9795 0.15612 0.0
C1840 C 0.95126 0.97436 0.15468 0.0
C1841 C 0.96669 0.9887 0.15503 0.0
H1842 H 0.92064 0.96838 0.15586 0.0
H1843 H 0.07028 0.10751 0.15819 0.0
H1844 H 0.31384 0.77943 0.18963 0.0
H1845 H 0.30303 0.79704 0.16513 0.0
H1846 H 0.24498 0.77144 0.16901 0.0
H1847 H 0.25596 0.75363 0.19378 0.0
H1848 H 0.25595 0.77235 0.13099 0.0
H1849 H 0.25488 0.81667 0.18885 0.0
H1850 H 0.26688 0.83457 0.22034 0.0
H1851 H 0.31449 0.86214 0.19447 0.0
H1852 H 0.30294 0.84418 0.16284 0.0
H1853 H 0.23687 0.84029 0.06806 0.0
H1854 H 0.23332 0.8249 0.09675 0.0
H1855 H 0.29426 0.83682 0.10907 0.0
H1856 H 0.29787 0.85174 0.08057 0.0
H1857 H 0.27265 0.84383 0.14156 0.0
H1858 H 0.27698 0.794 0.08558 0.0
H1859 H 0.26566 0.77569 0.05401 0.0
H1860 H 0.21157 0.75871 0.07675 0.0
H1861 H 0.22252 0.77717 0.10841 0.0
C1862 C 0.2988 0.77745 0.18512 0.0
C1863 C 0.28569 0.76526 0.19343 0.0
C1864 C 0.29262 0.78758 0.17122 0.0
C1865 C 0.27315 0.7858 0.16544 0.0
C1866 C 0.26005 0.77309 0.17334 0.0
C1867 C 0.26628 0.76295 0.18741 0.0
C1868 C 0.26689 0.79755 0.1513 0.0
C1869 C 0.2591 0.78803 0.13346 0.0
C1870 C 0.27108 0.81802 0.15448 0.0
C1871 C 0.27807 0.82899 0.17346 0.0
C1872 C 0.26798 0.82645 0.18988 0.0
C1873 C 0.27469 0.83663 0.20776 0.0
C1874 C 0.29145 0.84947 0.2094 0.0
C1875 C 0.30151 0.85219 0.19317 0.0
C1876 C 0.29486 0.84204 0.17525 0.0
C1877 C 0.24939 0.83994 0.07715 0.0
C1878 C 0.26766 0.84712 0.07209 0.0
C1879 C 0.24737 0.83107 0.09344 0.0
C1880 C 0.26356 0.82962 0.10497 0.0
C1881 C 0.28158 0.83779 0.10042 0.0
C1882 C 0.28363 0.84627 0.08409 0.0
C1883 C 0.2624 0.81856 0.12108 0.0
C1884 C 0.26889 0.82823 0.1393 0.0
C1885 C 0.25698 0.79827 0.11825 0.0
C1886 C 0.25045 0.78717 0.09926 0.0
C1887 C 0.26261 0.78651 0.08379 0.0
C1888 C 0.25628 0.77608 0.0659 0.0
C1889 C 0.23788 0.7661 0.06336 0.0
C1890 C 0.2258 0.76649 0.07872 0.0
C1891 C 0.23206 0.77693 0.09664 0.0
H1892 H 0.23301 0.75802 0.04949 0.0
H1893 H 0.29663 0.85733 0.22326 0.0
H1894 H 0.99726 0.44699 0.08434 0.0
H1895 H 0.01199 0.45768 0.11631 0.0
H1896 H 0.03918 0.50939 0.09856 0.0
H1897 H 0.02473 0.49857 0.06639 0.0
H1898 H 0.0645 0.49041 0.11566 0.0
H1899 H 0.00415 0.51324 0.12995 0.0
H1900 H 0.96892 0.51167 0.13058 0.0
H1901 H 0.96777 0.46582 0.1639 0.0
H1902 H 0.00298 0.46691 0.16323 0.0
H1903 H 0.10607 0.51865 0.21002 0.0
H1904 H 0.08753 0.51997 0.18072 0.0
H1905 H 0.05251 0.46755 0.18753 0.0
H1906 H 0.07062 0.46629 0.21685 0.0
H1907 H 0.03087 0.49327 0.17646 0.0
H1908 H 0.09001 0.46679 0.15737 0.0
H1909 H 0.12515 0.46724 0.15613 0.0
H1910 H 0.12824 0.51924 0.13135 0.0
H1911 H 0.09311 0.51922 0.13267 0.0
C1912 C 0.00623 0.46072 0.08732 0.0
C1913 C 0.00992 0.47191 0.07288 0.0
C1914 C 0.0145 0.4669 0.10562 0.0
C1915 C 0.02658 0.4844 0.10983 0.0
C1916 C 0.02984 0.49589 0.0956 0.0
C1917 C 0.02148 0.48975 0.0773 0.0
C1918 C 0.03704 0.4897 0.1286 0.0
C1919 C 0.05715 0.49151 0.12898 0.0
C1920 C 0.02743 0.49077 0.14593 0.0
C1921 C 0.00623 0.49009 0.14643 0.0
C1922 C 0.99638 0.50272 0.13729 0.0
C1923 C 0.97641 0.50193 0.13767 0.0
C1924 C 0.96611 0.48863 0.14725 0.0
C1925 C 0.97577 0.47612 0.15648 0.0
C1926 C 0.99574 0.47684 0.15613 0.0
C1927 C 0.09436 0.50746 0.20531 0.0
C1928 C 0.08992 0.49228 0.2157 0.0
C1929 C 0.0838 0.50823 0.18857 0.0
C1930 C 0.06875 0.49376 0.18187 0.0
C1931 C 0.06403 0.47889 0.19246 0.0
C1932 C 0.07449 0.47815 0.20919 0.0
C1933 C 0.05829 0.49347 0.16345 0.0
C1934 C 0.0382 0.49258 0.16314 0.0
C1935 C 0.0679 0.49314 0.14615 0.0
C1936 C 0.08899 0.49314 0.14534 0.0
C1937 C 0.09821 0.47841 0.1518 0.0
C1938 C 0.11811 0.47856 0.15106 0.0
C1939 C 0.12893 0.49329 0.14372 0.0
C1940 C 0.11985 0.50786 0.13707 0.0
C1941 C 0.09995 0.50778 0.1378 0.0
H1942 H 0.14434 0.49339 0.14315 0.0
H1943 H 0.95065 0.48805 0.14753 0.0
H1944 H 0.31968 0.69491 0.27836 0.0
H1945 H 0.34813 0.68875 0.29622 0.0
H1946 H 0.38442 0.71128 0.25507 0.0
H1947 H 0.35609 0.71731 0.23712 0.0
H1948 H 0.39588 0.67729 0.26534 0.0
H1949 H 0.37712 0.73953 0.29605 0.0
H1950 H 0.35455 0.76066 0.31257 0.0
H1951 H 0.35026 0.72589 0.35697 0.0
H1952 H 0.37264 0.7044 0.34056 0.0
H1953 H 0.48445 0.72012 0.30377 0.0
H1954 H 0.45262 0.70877 0.28972 0.0
H1955 H 0.43495 0.6919 0.34287 0.0
H1956 H 0.46721 0.70353 0.3572 0.0
H1957 H 0.41081 0.71489 0.33029 0.0
H1958 H 0.43559 0.65721 0.30307 0.0
H1959 H 0.45856 0.63645 0.28679 0.0
H1960 H 0.45172 0.66159 0.23626 0.0
H1961 H 0.42893 0.68272 0.2523 0.0
C1962 C 0.33373 0.69836 0.27304 0.0
C1963 C 0.33568 0.70669 0.25639 0.0
C1964 C 0.34995 0.6949 0.28328 0.0
C1965 C 0.36838 0.69961 0.27699 0.0
C1966 C 0.37032 0.7075 0.26015 0.0
C1967 C 0.35415 0.7111 0.25001 0.0
C1968 C 0.38579 0.69723 0.28826 0.0
C1969 C 0.3992 0.68547 0.27954 0.0
C1970 C 0.38972 0.70729 0.3071 0.0
C1971 C 0.37633 0.72023 0.31696 0.0
C1972 C 0.37123 0.7363 0.30925 0.0
C1973 C 0.3585 0.74835 0.31861 0.0
C1974 C 0.35092 0.74458 0.33577 0.0
C1975 C 0.35611 0.72877 0.34365 0.0
C1976 C 0.36881 0.71665 0.33433 0.0
C1977 C 0.47395 0.71358 0.31238 0.0
C1978 C 0.47828 0.71279 0.33161 0.0
C1979 C 0.45574 0.70695 0.30428 0.0
C1980 C 0.44137 0.69933 0.31517 0.0
C1981 C 0.44586 0.69764 0.33417 0.0
C1982 C 0.46429 0.70416 0.3423 0.0
C1983 C 0.42135 0.69551 0.30708 0.0
C1984 C 0.40737 0.70616 0.31634 0.0
C1985 C 0.41688 0.68434 0.28877 0.0
C1986 C 0.43055 0.67161 0.27895 0.0
C1987 C 0.43906 0.65841 0.28853 0.0
C1988 C 0.45205 0.64656 0.27933 0.0
C1989 C 0.4566 0.64771 0.26051 0.0
C1990 C 0.44816 0.6607 0.25083 0.0
C1991 C 0.43517 0.67259 0.25996 0.0
H1992 H 0.46666 0.63852 0.25341 0.0
H1993 H 0.34107 0.75393 0.343 0.0
H1994 H 0.97743 0.41313 0.9985 0.0
H1995 H 0.98363 0.38129 0.98216 0.0
H1996 H 0.03553 0.38458 0.01689 0.0
H1997 H 0.03019 0.41719 0.03233 0.0
H1998 H 0.04307 0.37239 0.98271 0.0
H1999 H 0.99403 0.35234 0.02167 0.0
H2000 H 0.96308 0.35189 0.03735 0.0
H2001 H 0.93309 0.33615 0.9828 0.0
H2002 H 0.96385 0.33679 0.96674 0.0
H2003 H 0.05034 0.27536 0.93176 0.0
H2004 H 0.04466 0.29949 0.95978 0.0
H2005 H 0.00269 0.32214 0.92668 0.0
H2006 H 0.00865 0.29863 0.89869 0.0
H2007 H 0.99247 0.31693 0.96621 0.0
H2008 H 0.04332 0.3445 0.9289 0.0
H2009 H 0.07488 0.34428 0.91435 0.0
H2010 H 0.10206 0.34418 0.96907 0.0
H2011 H 0.07059 0.34413 0.98388 0.0
C2012 C 0.99025 0.40719 0.00263 0.0
C2013 C 0.00336 0.41788 0.01668 0.0
C2014 C 0.9936 0.38875 0.99349 0.0
C2015 C 0.00988 0.38029 0.9985 0.0
C2016 C 0.02279 0.39071 0.01284 0.0
C2017 C 0.01961 0.40933 0.02179 0.0
C2018 C 0.01409 0.36131 0.98763 0.0
C2019 C 0.03211 0.36011 0.97958 0.0
C2020 C 0.99988 0.34518 0.98342 0.0
C2021 C 0.98128 0.34471 0.99299 0.0
C2022 C 0.98084 0.3489 0.013 0.0
C2023 C 0.96332 0.3486 0.02196 0.0
C2024 C 0.94613 0.34402 0.01108 0.0
C2025 C 0.94642 0.3397 0.99121 0.0
C2026 C 0.9639 0.33999 0.98217 0.0
C2027 C 0.03975 0.28535 0.9306 0.0
C2028 C 0.03004 0.28529 0.91307 0.0
C2029 C 0.03652 0.29906 0.94656 0.0
C2030 C 0.02325 0.31251 0.94522 0.0
C2031 C 0.01291 0.3118 0.92798 0.0
C2032 C 0.01643 0.29847 0.91199 0.0
C2033 C 0.02108 0.32849 0.96108 0.0
C2034 C 0.00349 0.32909 0.96995 0.0
C2035 C 0.03575 0.34392 0.96634 0.0
C2036 C 0.05462 0.34404 0.95743 0.0
C2037 C 0.05601 0.34424 0.93778 0.0
C2038 C 0.07388 0.3442 0.9295 0.0
C2039 C 0.09046 0.34414 0.94077 0.0
C2040 C 0.0892 0.34418 0.96035 0.0
C2041 C 0.07136 0.34418 0.9687 0.0
H2042 H 0.10428 0.34413 0.93433 0.0
H2043 H 0.93258 0.34379 0.01805 0.0
H2044 H 0.74141 0.74861 0.30129 0.0
H2045 H 0.71006 0.73837 0.31324 0.0
H2046 H 0.682 0.76368 0.27014 0.0
H2047 H 0.71333 0.77397 0.25835 0.0
H2048 H 0.67063 0.77669 0.30553 0.0
H2049 H 0.67909 0.71468 0.26797 0.0
H2050 H 0.69597 0.68585 0.25768 0.0
H2051 H 0.69428 0.67212 0.31431 0.0
H2052 H 0.6776 0.70105 0.32501 0.0
H2053 H 0.57451 0.74735 0.30954 0.0
H2054 H 0.60706 0.74799 0.29859 0.0
H2055 H 0.62536 0.72613 0.34853 0.0
H2056 H 0.59236 0.72529 0.3597 0.0
H2057 H 0.64308 0.71059 0.31335 0.0
H2058 H 0.63359 0.77177 0.35063 0.0
H2059 H 0.61645 0.80043 0.36091 0.0
H2060 H 0.6206 0.81584 0.30506 0.0
H2061 H 0.63751 0.7871 0.29435 0.0
C2062 C 0.72846 0.75153 0.29416 0.0
C2063 C 0.72955 0.76189 0.2789 0.0
C2064 C 0.71061 0.74569 0.30096 0.0
C2065 C 0.69368 0.75022 0.29255 0.0
C2066 C 0.69487 0.76003 0.27683 0.0
C2067 C 0.7127 0.76582 0.27005 0.0
C2068 C 0.67486 0.74633 0.30106 0.0
C2069 C 0.66455 0.76219 0.30704 0.0
C2070 C 0.66727 0.72753 0.30375 0.0
C2071 C 0.67729 0.71015 0.29734 0.0
C2072 C 0.68247 0.70562 0.27828 0.0
C2073 C 0.69197 0.68924 0.27236 0.0
C2074 C 0.69625 0.67719 0.28535 0.0
C2075 C 0.69098 0.68148 0.30427 0.0
C2076 C 0.6815 0.69786 0.31027 0.0
C2077 C 0.58534 0.74245 0.31817 0.0
C2078 C 0.5809 0.73656 0.33567 0.0
C2079 C 0.60396 0.74279 0.31184 0.0
C2080 C 0.61866 0.73744 0.32291 0.0
C2081 C 0.61418 0.73039 0.33983 0.0
C2082 C 0.59537 0.72994 0.3462 0.0
C2083 C 0.63876 0.74089 0.31726 0.0
C2084 C 0.64931 0.72506 0.31195 0.0
C2085 C 0.64671 0.75976 0.31523 0.0
C2086 C 0.6367 0.77719 0.32166 0.0
C2087 C 0.63073 0.78119 0.3405 0.0
C2088 C 0.62107 0.79746 0.34641 0.0
C2089 C 0.61741 0.80993 0.33363 0.0
C2090 C 0.62344 0.80617 0.31494 0.0
C2091 C 0.63308 0.7899 0.30895 0.0
H2092 H 0.60993 0.82252 0.33824 0.0
H2093 H 0.7036 0.66451 0.28074 0.0
H2094 H 0.04933 0.04714 0.97232 0.0
H2095 H 0.05255 0.07115 0.95078 0.0
H2096 H 0.06613 0.11687 0.99913 0.0
H2097 H 0.06265 0.09281 0.02063 0.0
H2098 H 0.03833 0.1255 0.97701 0.0
H2099 H 0.10008 0.10335 0.96653 0.0
H2100 H 0.12312 0.07924 0.95876 0.0
H2101 H 0.09561 0.06072 0.90327 0.0
H2102 H 0.07222 0.08455 0.91081 0.0
H2103 H 0.05686 0.20093 0.92275 0.0
H2104 H 0.06069 0.17756 0.94414 0.0
H2105 H 0.04751 0.13033 0.89717 0.0
H2106 H 0.04403 0.15365 0.87557 0.0
H2107 H 0.07652 0.12306 0.91905 0.0
H2108 H 0.01391 0.14361 0.92998 0.0
H2109 H 0.99035 0.16724 0.93761 0.0
H2110 H 0.01908 0.18815 0.99218 0.0
H2111 H 0.04297 0.16481 0.98477 0.0
C2112 C 0.05353 0.06227 0.97823 0.0
C2113 C 0.05602 0.06821 0.998 0.0
C2114 C 0.05535 0.07598 0.96595 0.0
C2115 C 0.0597 0.09586 0.97329 0.0
C2116 C 0.0628 0.10165 0.9931 0.0
C2117 C 0.06097 0.08792 0.00536 0.0
C2118 C 0.05941 0.11069 0.96052 0.0
C2119 C 0.04697 0.12516 0.96454 0.0
C2120 C 0.07022 0.10995 0.9439 0.0
C2121 C 0.08429 0.09563 0.93931 0.0
C2122 C 0.09884 0.09403 0.95273 0.0
C2123 C 0.11199 0.08044 0.94835 0.0
C2124 C 0.1108 0.06842 0.93055 0.0
C2125 C 0.0965 0.07002 0.91706 0.0
C2126 C 0.08331 0.08359 0.92137 0.0
C2127 C 0.0548 0.18558 0.91693 0.0
C2128 C 0.05001 0.17919 0.89743 0.0
C2129 C 0.05694 0.17221 0.92922 0.0
C2130 C 0.05414 0.15214 0.92236 0.0
C2131 C 0.04973 0.14572 0.90283 0.0
C2132 C 0.04767 0.15909 0.8905 0.0
C2133 C 0.05547 0.13785 0.93558 0.0
C2134 C 0.06802 0.12346 0.93162 0.0
C2135 C 0.04471 0.13859 0.95224 0.0
C2136 C 0.03034 0.15261 0.95674 0.0
C2137 C 0.01529 0.15335 0.94355 0.0
C2138 C 0.00186 0.16667 0.94784 0.0
C2139 C 0.00325 0.17923 0.96534 0.0
C2140 C 0.01804 0.17844 0.97861 0.0
C2141 C 0.03152 0.16516 0.97438 0.0
H2142 H 0.99284 0.18953 0.96864 0.0
H2143 H 0.121 0.0579 0.92719 0.0
H2144 H 0.35716 0.29879 0.30799 0.0
H2145 H 0.38233 0.29736 0.28473 0.0
H2146 H 0.3404 0.29933 0.23993 0.0
H2147 H 0.3151 0.30029 0.26302 0.0
H2148 H 0.36306 0.27056 0.23019 0.0
H2149 H 0.372 0.33859 0.25663 0.0
H2150 H 0.3773 0.36696 0.28238 0.0
H2151 H 0.43073 0.34828 0.29884 0.0
H2152 H 0.42561 0.31963 0.27333 0.0
H2153 H 0.42199 0.28975 0.15566 0.0
H2154 H 0.39943 0.29207 0.1812 0.0
H2155 H 0.44493 0.28864 0.22196 0.0
H2156 H 0.46784 0.28645 0.19637 0.0
H2157 H 0.42183 0.31712 0.23499 0.0
H2158 H 0.41357 0.24977 0.20795 0.0
H2159 H 0.40841 0.22138 0.18222 0.0
H2160 H 0.3538 0.23849 0.16713 0.0
H2161 H 0.35876 0.26717 0.19261 0.0
C2162 C 0.35332 0.29898 0.29319 0.0
C2163 C 0.33414 0.29964 0.28734 0.0
C2164 C 0.36773 0.2983 0.27994 0.0
C2165 C 0.36325 0.29833 0.26061 0.0
C2166 C 0.34417 0.29931 0.25478 0.0
C2167 C 0.32976 0.30004 0.26802 0.0
C2168 C 0.37828 0.29653 0.24631 0.0
C2169 C 0.37579 0.28088 0.23111 0.0
C2170 C 0.3952 0.30963 0.24788 0.0
C2171 C 0.39832 0.32686 0.2632 0.0
C2172 C 0.3848 0.34044 0.26584 0.0
C2173 C 0.38779 0.35659 0.28038 0.0
C2174 C 0.40432 0.35939 0.29228 0.0
C2175 C 0.41792 0.34607 0.28963 0.0
C2176 C 0.41499 0.32989 0.27513 0.0
C2177 C 0.42728 0.28947 0.17003 0.0
C2178 C 0.44674 0.28783 0.17394 0.0
C2179 C 0.41431 0.29073 0.18462 0.0
C2180 C 0.42046 0.29029 0.20344 0.0
C2181 C 0.4399 0.28894 0.20751 0.0
C2182 C 0.45294 0.28763 0.19286 0.0
C2183 C 0.40643 0.29132 0.21874 0.0
C2184 C 0.40913 0.30676 0.23414 0.0
C2185 C 0.3897 0.278 0.21739 0.0
C2186 C 0.38662 0.26072 0.2021 0.0
C2187 C 0.40052 0.24757 0.19905 0.0
C2188 C 0.39762 0.23141 0.18453 0.0
C2189 C 0.38081 0.22816 0.17302 0.0
C2190 C 0.36683 0.24104 0.17605 0.0
C2191 C 0.36967 0.25724 0.19054 0.0
H2192 H 0.37859 0.21563 0.16178 0.0
H2193 H 0.40661 0.37191 0.30352 0.0
H2194 H 0.53642 0.43144 0.01956 0.0
H2195 H 0.53659 0.41797 0.0491 0.0
H2196 H 0.59098 0.39637 0.03559 0.0
H2197 H 0.59044 0.40955 0.0056 0.0
H2198 H 0.56724 0.36857 0.04343 0.0
H2199 H 0.58646 0.4317 0.07597 0.0
H2200 H 0.58722 0.46724 0.08461 0.0
H2201 H 0.52963 0.46077 0.10351 0.0
H2202 H 0.52838 0.42519 0.09472 0.0
H2203 H 0.54437 0.32097 0.12217 0.0
H2204 H 0.56349 0.34518 0.10715 0.0
H2205 H 0.51236 0.37162 0.09633 0.0
H2206 H 0.49324 0.34752 0.11107 0.0
H2207 H 0.54529 0.39892 0.10602 0.0
H2208 H 0.52504 0.33691 0.06365 0.0
H2209 H 0.52438 0.30135 0.05471 0.0
H2210 H 0.58591 0.3068 0.05494 0.0
H2211 H 0.5869 0.34239 0.06413 0.0
C2212 C 0.54862 0.42425 0.02321 0.0
C2213 C 0.56345 0.42152 0.01057 0.0
C2214 C 0.54881 0.41667 0.04014 0.0
C2215 C 0.56395 0.40636 0.04478 0.0
C2216 C 0.57922 0.40437 0.0324 0.0
C2217 C 0.57896 0.41191 0.01535 0.0
C2218 C 0.56225 0.39554 0.06107 0.0
C2219 C 0.56308 0.37538 0.05733 0.0
C2220 C 0.55671 0.40429 0.07922 0.0
C2221 C 0.55733 0.42572 0.08462 0.0
C2222 C 0.57391 0.43784 0.08186 0.0
C2223 C 0.57443 0.45801 0.0868 0.0
C2224 C 0.55848 0.46626 0.0946 0.0
C2225 C 0.54198 0.45435 0.09749 0.0
C2226 C 0.54137 0.43417 0.09256 0.0
C2227 C 0.53731 0.33226 0.11702 0.0
C2228 C 0.51728 0.33223 0.11754 0.0
C2229 C 0.54824 0.34605 0.10846 0.0
C2230 C 0.53929 0.36007 0.10052 0.0
C2231 C 0.51954 0.36095 0.10241 0.0
C2232 C 0.50861 0.34708 0.11071 0.0
C2233 C 0.54959 0.37212 0.08794 0.0
C2234 C 0.55026 0.3924 0.09237 0.0
C2235 C 0.55667 0.36356 0.07046 0.0
C2236 C 0.55605 0.34223 0.0648 0.0
C2237 C 0.53842 0.33049 0.06192 0.0
C2238 C 0.53799 0.31035 0.0568 0.0
C2239 C 0.5551 0.30182 0.05433 0.0
C2240 C 0.57267 0.31342 0.05691 0.0
C2241 C 0.57318 0.33357 0.06208 0.0
H2242 H 0.55474 0.28622 0.05035 0.0
H2243 H 0.55891 0.48188 0.09841 0.0
H2244 H 0.6978 0.25115 0.23084 0.0
H2245 H 0.66885 0.26317 0.21942 0.0
H2246 H 0.63491 0.23175 0.25654 0.0
H2247 H 0.664 0.21942 0.26768 0.0
H2248 H 0.6196 0.22427 0.22164 0.0
H2249 H 0.64151 0.28201 0.26449 0.0
H2250 H 0.66459 0.30918 0.28002 0.0
H2251 H 0.67167 0.32949 0.22661 0.0
H2252 H 0.64884 0.30227 0.21067 0.0
H2253 H 0.53597 0.26264 0.19057 0.0
H2254 H 0.56185 0.25614 0.21156 0.0
H2255 H 0.6037 0.27985 0.17584 0.0
H2256 H 0.57799 0.28642 0.15482 0.0
H2257 H 0.61255 0.29233 0.21439 0.0
H2258 H 0.59361 0.23196 0.17144 0.0
H2259 H 0.57063 0.20459 0.15609 0.0
H2260 H 0.55782 0.18944 0.21085 0.0
H2261 H 0.58055 0.21691 0.22655 0.0
C2262 C 0.68419 0.24723 0.23685 0.0
C2263 C 0.68295 0.2346 0.25019 0.0
C2264 C 0.66767 0.25412 0.23038 0.0
C2265 C 0.64969 0.24854 0.23726 0.0
C2266 C 0.64862 0.23631 0.25109 0.0
C2267 C 0.66518 0.22937 0.25752 0.0
C2268 C 0.63197 0.25408 0.22869 0.0
C2269 C 0.61786 0.23922 0.22047 0.0
C2270 C 0.62983 0.27353 0.22683 0.0
C2271 C 0.64354 0.29 0.23636 0.0
C2272 C 0.64809 0.29219 0.25602 0.0
C2273 C 0.66112 0.30761 0.2649 0.0
C2274 C 0.66962 0.32104 0.2543 0.0
C2275 C 0.66508 0.31908 0.2348 0.0
C2276 C 0.65207 0.30367 0.22584 0.0
C2277 C 0.55068 0.26655 0.18723 0.0
C2278 C 0.55493 0.27495 0.17095 0.0
C2279 C 0.56544 0.2628 0.19922 0.0
C2280 C 0.58468 0.26742 0.19519 0.0
C2281 C 0.58894 0.27621 0.17923 0.0
C2282 C 0.57422 0.27985 0.16717 0.0
C2283 C 0.60047 0.2625 0.20714 0.0
C2284 C 0.61419 0.27746 0.21592 0.0
C2285 C 0.60223 0.24315 0.20961 0.0
C2286 C 0.58859 0.22663 0.20018 0.0
C2287 C 0.58576 0.2229 0.18022 0.0
C2288 C 0.57281 0.20735 0.17145 0.0
C2289 C 0.56272 0.19532 0.18249 0.0
C2290 C 0.56561 0.19879 0.20232 0.0
C2291 C 0.57853 0.21434 0.21116 0.0
H2292 H 0.5527 0.18328 0.17568 0.0
H2293 H 0.6797 0.33297 0.26121 0.0
H2294 H 0.46782 0.10847 0.97379 0.0
H2295 H 0.47762 0.13776 0.99695 0.0
H2296 H 0.4847 0.10268 0.04063 0.0
H2297 H 0.47417 0.07335 0.01753 0.0
H2298 H 0.46611 0.13068 0.05426 0.0
H2299 H 0.52388 0.12807 0.02132 0.0
H2300 H 0.5447 0.12489 0.9938 0.0
H2301 H 0.52611 0.17659 0.9777 0.0
H2302 H 0.50494 0.17994 0.00496 0.0
H2303 H 0.50188 0.21818 0.11825 0.0
H2304 H 0.50283 0.1865 0.09782 0.0
H2305 H 0.47947 0.20893 0.05031 0.0
H2306 H 0.47817 0.24038 0.07058 0.0
H2307 H 0.51113 0.1859 0.04156 0.0
H2308 H 0.45002 0.18438 0.07302 0.0
H2309 H 0.43024 0.18709 0.10134 0.0
H2310 H 0.45793 0.14198 0.12143 0.0
H2311 H 0.47807 0.13921 0.09332 0.0
C2312 C 0.47179 0.10702 0.98826 0.0
C2313 C 0.47027 0.08869 0.99389 0.0
C2314 C 0.47748 0.12376 0.0015 0.0
C2315 C 0.4822 0.12248 0.02054 0.0
C2316 C 0.48115 0.10408 0.02605 0.0
C2317 C 0.47516 0.08734 0.01287 0.0
C2318 C 0.48675 0.14042 0.03493 0.0
C2319 C 0.47632 0.14253 0.05163 0.0
C2320 C 0.49994 0.15606 0.03155 0.0
C2321 C 0.51271 0.15418 0.01514 0.0
C2322 C 0.52412 0.13869 0.01184 0.0
C2323 C 0.536 0.13687 0.99629 0.0
C2324 C 0.5367 0.15051 0.98399 0.0
C2325 C 0.52555 0.16603 0.98724 0.0
C2326 C 0.51363 0.16791 0.00276 0.0
C2327 C 0.49709 0.21637 0.10341 0.0
C2328 C 0.48981 0.23171 0.09605 0.0
C2329 C 0.49764 0.19831 0.09179 0.0
C2330 C 0.49119 0.19543 0.07259 0.0
C2331 C 0.48456 0.2109 0.06508 0.0
C2332 C 0.48371 0.22882 0.07672 0.0
C2333 C 0.49023 0.17607 0.06046 0.0
C2334 C 0.50128 0.17378 0.04424 0.0
C2335 C 0.47787 0.16015 0.0644 0.0
C2336 C 0.4657 0.16177 0.08121 0.0
C2337 C 0.45201 0.17517 0.08357 0.0
C2338 C 0.44071 0.17669 0.09956 0.0
C2339 C 0.44288 0.16476 0.11321 0.0
C2340 C 0.4563 0.15124 0.11086 0.0
C2341 C 0.46765 0.14969 0.09491 0.0
H2342 H 0.43411 0.16595 0.12558 0.0
H2343 H 0.54591 0.14907 0.97196 0.0
H2344 H 0.27993 0.30774 0.68876 0.0
H2345 H 0.29482 0.34119 0.69725 0.0
H2346 H 0.30934 0.33084 0.75366 0.0
H2347 H 0.29522 0.29712 0.74512 0.0
H2348 H 0.29392 0.3672 0.75224 0.0
H2349 H 0.34248 0.32863 0.72323 0.0
H2350 H 0.35503 0.30609 0.69732 0.0
H2351 H 0.34869 0.34632 0.65874 0.0
H2352 H 0.33581 0.36898 0.68437 0.0
H2353 H 0.36416 0.44134 0.78983 0.0
H2354 H 0.34653 0.40994 0.77761 0.0
H2355 H 0.34752 0.42346 0.72058 0.0
H2356 H 0.36604 0.45493 0.73279 0.0
H2357 H 0.35259 0.3868 0.71943 0.0
H2358 H 0.30663 0.42661 0.7476 0.0
H2359 H 0.29286 0.44955 0.77229 0.0
H2360 H 0.29214 0.40815 0.81058 0.0
H2361 H 0.30617 0.38506 0.78622 0.0
C2362 C 0.28635 0.3125 0.70297 0.0
C2363 C 0.28656 0.29958 0.71617 0.0
C2364 C 0.29475 0.33167 0.7078 0.0
C2365 C 0.30334 0.33839 0.726 0.0
C2366 C 0.30276 0.3259 0.73953 0.0
C2367 C 0.29457 0.30664 0.73464 0.0
C2368 C 0.31364 0.35818 0.73072 0.0
C2369 C 0.30683 0.37148 0.74521 0.0
C2370 C 0.33005 0.36392 0.721 0.0
C2371 C 0.33798 0.3504 0.70565 0.0
C2372 C 0.34361 0.3326 0.70918 0.0
C2373 C 0.3508 0.31981 0.69455 0.0
C2374 C 0.3526 0.32474 0.67637 0.0
C2375 C 0.34726 0.3425 0.67281 0.0
C2376 C 0.34002 0.35533 0.68739 0.0
C2377 C 0.3607 0.43765 0.77466 0.0
C2378 C 0.36628 0.4507 0.76228 0.0
C2379 C 0.35049 0.4197 0.7677 0.0
C2380 C 0.34515 0.41453 0.74825 0.0
C2381 C 0.3513 0.42722 0.73568 0.0
C2382 C 0.36188 0.44516 0.74264 0.0
C2383 C 0.33313 0.39585 0.74132 0.0
C2384 C 0.33956 0.38271 0.72638 0.0
C2385 C 0.31615 0.39035 0.75043 0.0
C2386 C 0.30758 0.40415 0.76511 0.0
C2387 C 0.30365 0.42244 0.76133 0.0
C2388 C 0.29578 0.43547 0.77526 0.0
C2389 C 0.29166 0.43033 0.793 0.0
C2390 C 0.29535 0.41212 0.79683 0.0
C2391 C 0.30323 0.39904 0.78296 0.0
H2392 H 0.28558 0.44044 0.80377 0.0
H2393 H 0.35817 0.31482 0.66507 0.0
H2394 H 0.25736 0.65945 0.76444 0.0
H2395 H 0.27945 0.63448 0.76221 0.0
H2396 H 0.32067 0.67409 0.7992 0.0
H2397 H 0.2985 0.69908 0.80165 0.0
H2398 H 0.31448 0.63077 0.74977 0.0
H2399 H 0.3438 0.64872 0.82779 0.0
H2400 H 0.33405 0.66398 0.85936 0.0
H2401 H 0.27479 0.64837 0.84169 0.0
H2402 H 0.2842 0.63281 0.81012 0.0
H2403 H 0.3859 0.56603 0.76214 0.0
H2404 H 0.36962 0.59529 0.76119 0.0
H2405 H 0.32619 0.57463 0.79716 0.0
H2406 H 0.3425 0.546 0.79861 0.0
H2407 H 0.33644 0.61077 0.8097 0.0
H2408 H 0.31914 0.57236 0.74756 0.0
H2409 H 0.32574 0.55459 0.7159 0.0
H2410 H 0.35541 0.60656 0.70163 0.0
H2411 H 0.34917 0.62458 0.73331 0.0
C2412 C 0.27121 0.66291 0.77194 0.0
C2413 C 0.27613 0.68119 0.78334 0.0
C2414 C 0.28385 0.64863 0.77063 0.0
C2415 C 0.30167 0.65232 0.78066 0.0
C2416 C 0.30688 0.67079 0.79156 0.0
C2417 C 0.29418 0.68503 0.793 0.0
C2418 C 0.31425 0.63648 0.78047 0.0
C2419 C 0.3194 0.62647 0.76288 0.0
C2420 C 0.32055 0.63072 0.79753 0.0
C2421 C 0.31472 0.63983 0.81654 0.0
C2422 C 0.3287 0.64851 0.83067 0.0
C2423 C 0.32323 0.65721 0.84856 0.0
C2424 C 0.30381 0.65721 0.8525 0.0
C2425 C 0.28982 0.64843 0.83859 0.0
C2426 C 0.29522 0.63969 0.8207 0.0
C2427 C 0.37285 0.56776 0.76977 0.0
C2428 C 0.36556 0.55373 0.78053 0.0
C2429 C 0.36354 0.58445 0.7692 0.0
C2430 C 0.34664 0.58719 0.77911 0.0
C2431 C 0.33928 0.57301 0.78956 0.0
C2432 C 0.34864 0.55656 0.79032 0.0
C2433 C 0.33643 0.60476 0.77898 0.0
C2434 C 0.33179 0.61521 0.79656 0.0
C2435 C 0.3302 0.61055 0.7619 0.0
C2436 C 0.33389 0.59975 0.74286 0.0
C2437 C 0.32719 0.57995 0.73771 0.0
C2438 C 0.33084 0.56985 0.71976 0.0
C2439 C 0.34104 0.57942 0.70679 0.0
C2440 C 0.34755 0.59915 0.71171 0.0
C2441 C 0.34395 0.60932 0.72965 0.0
H2442 H 0.34385 0.57157 0.6929 0.0
H2443 H 0.29961 0.66397 0.86635 0.0
H2444 H 0.9344 0.52257 0.51723 0.0
H2445 H 0.90772 0.50196 0.52759 0.0
H2446 H 0.87184 0.51212 0.48093 0.0
H2447 H 0.89851 0.53275 0.47047 0.0
H2448 H 0.8532 0.51327 0.51718 0.0
H2449 H 0.89061 0.47265 0.4744 0.0
H2450 H 0.92051 0.45989 0.46305 0.0
H2451 H 0.9292 0.43965 0.51607 0.0
H2452 H 0.89948 0.45256 0.52785 0.0
H2453 H 0.7821 0.43127 0.51164 0.0
H2454 H 0.80548 0.45852 0.50758 0.0
H2455 H 0.84643 0.43858 0.54418 0.0
H2456 H 0.82345 0.41093 0.54748 0.0
H2457 H 0.86246 0.44366 0.51353 0.0
H2458 H 0.82471 0.48258 0.55642 0.0
H2459 H 0.79534 0.49581 0.56868 0.0
H2460 H 0.78753 0.51964 0.5175 0.0
H2461 H 0.81672 0.50632 0.50481 0.0
C2462 C 0.92074 0.52061 0.50934 0.0
C2463 C 0.91854 0.52913 0.49297 0.0
C2464 C 0.90555 0.50884 0.51524 0.0
C2465 C 0.88787 0.5055 0.50497 0.0
C2466 C 0.88538 0.51457 0.48905 0.0
C2467 C 0.90065 0.52618 0.48301 0.0
C2468 C 0.87245 0.49144 0.51005 0.0
C2469 C 0.85507 0.498 0.51626 0.0
C2470 C 0.87515 0.47165 0.50919 0.0
C2471 C 0.89294 0.46376 0.50208 0.0
C2472 C 0.89899 0.46563 0.4837 0.0
C2473 C 0.91588 0.45834 0.47717 0.0
C2474 C 0.92678 0.44901 0.48885 0.0
C2475 C 0.92076 0.4469 0.50706 0.0
C2476 C 0.90389 0.4542 0.51366 0.0
C2477 C 0.79593 0.43301 0.51917 0.0
C2478 C 0.80103 0.41895 0.52977 0.0
C2479 C 0.8093 0.44862 0.51689 0.0
C2480 C 0.82779 0.45066 0.52557 0.0
C2481 C 0.83235 0.43727 0.53719 0.0
C2482 C 0.81919 0.42151 0.53914 0.0
C2483 C 0.84304 0.46539 0.52105 0.0
C2484 C 0.86047 0.45893 0.51472 0.0
C2485 C 0.84038 0.48526 0.522 0.0
C2486 C 0.82281 0.49329 0.52959 0.0
C2487 C 0.81664 0.4905 0.54771 0.0
C2488 C 0.80005 0.49805 0.55475 0.0
C2489 C 0.78955 0.50852 0.54386 0.0
C2490 C 0.79566 0.51151 0.52591 0.0
C2491 C 0.81225 0.50398 0.5188 0.0
H2492 H 0.7767 0.51435 0.54934 0.0
H2493 H 0.93985 0.44337 0.48377 0.0
H2494 H 0.77108 0.84477 0.80534 0.0
H2495 H 0.75507 0.8672 0.78905 0.0
H2496 H 0.8018 0.91198 0.80707 0.0
H2497 H 0.8176 0.88948 0.82378 0.0
H2498 H 0.76937 0.92492 0.81664 0.0
H2499 H 0.79174 0.89296 0.75888 0.0
H2500 H 0.79863 0.86556 0.73449 0.0
H2501 H 0.73841 0.84695 0.72565 0.0
H2502 H 0.73115 0.87406 0.75019 0.0
H2503 H 0.71091 0.98644 0.77533 0.0
H2504 H 0.73874 0.96878 0.77947 0.0
H2505 H 0.70179 0.91485 0.77172 0.0
H2506 H 0.6741 0.93222 0.76751 0.0
H2507 H 0.73546 0.91099 0.75311 0.0
H2508 H 0.7148 0.93855 0.8158 0.0
H2509 H 0.70775 0.96556 0.84059 0.0
H2510 H 0.76553 0.99219 0.83977 0.0
H2511 H 0.77284 0.96543 0.81478 0.0
C2512 C 0.77814 0.85924 0.80531 0.0
C2513 C 0.79551 0.86551 0.81559 0.0
C2514 C 0.76905 0.87204 0.79594 0.0
C2515 C 0.7773 0.89127 0.79665 0.0
C2516 C 0.79521 0.89721 0.80625 0.0
C2517 C 0.80425 0.88438 0.8157 0.0
C2518 C 0.766 0.90564 0.78957 0.0
C2519 C 0.76241 0.92213 0.80252 0.0
C2520 C 0.75665 0.90191 0.77127 0.0
C2521 C 0.76091 0.88553 0.75647 0.0
C2522 C 0.77996 0.88295 0.75184 0.0
C2523 C 0.78394 0.86748 0.73796 0.0
C2524 C 0.76897 0.85451 0.72854 0.0
C2525 C 0.74999 0.85701 0.73295 0.0
C2526 C 0.74594 0.87245 0.74683 0.0
C2527 C 0.70876 0.9708 0.77436 0.0
C2528 C 0.69026 0.96077 0.77128 0.0
C2529 C 0.72466 0.96075 0.77672 0.0
C2530 C 0.7223 0.94051 0.77599 0.0
C2531 C 0.70395 0.93044 0.77226 0.0
C2532 C 0.6881 0.94044 0.77001 0.0
C2533 C 0.73852 0.92977 0.78039 0.0
C2534 C 0.74294 0.91399 0.76698 0.0
C2535 C 0.74868 0.93412 0.79824 0.0
C2536 C 0.74429 0.95015 0.81327 0.0
C2537 C 0.72595 0.95026 0.8208 0.0
C2538 C 0.72191 0.9655 0.8349 0.0
C2539 C 0.73616 0.98062 0.8417 0.0
C2540 C 0.7545 0.9805 0.83445 0.0
C2541 C 0.75859 0.9653 0.82032 0.0
H2542 H 0.73302 0.99241 0.85263 0.0
H2543 H 0.77208 0.84254 0.7178 0.0
H2544 H 0.61935 0.46423 0.98213 0.0
H2545 H 0.64874 0.48481 0.99352 0.0
H2546 H 0.62506 0.53394 0.97618 0.0
H2547 H 0.59502 0.51397 0.96655 0.0
H2548 H 0.6735 0.50053 0.97549 0.0
H2549 H 0.64517 0.57645 0.99813 0.0
H2550 H 0.61794 0.58975 0.01507 0.0
H2551 H 0.60994 0.53986 0.04294 0.0
H2552 H 0.63729 0.52638 0.02639 0.0
H2553 H 0.74174 0.57305 0.95882 0.0
H2554 H 0.71236 0.5521 0.96114 0.0
H2555 H 0.71319 0.57224 0.02188 0.0
H2556 H 0.74239 0.594 0.01948 0.0
H2557 H 0.67825 0.56885 0.00871 0.0
H2558 H 0.72652 0.52666 0.0034 0.0
H2559 H 0.75501 0.51178 0.99094 0.0
H2560 H 0.72506 0.49118 0.93693 0.0
H2561 H 0.69647 0.50619 0.94897 0.0
C2562 C 0.62011 0.47954 0.98128 0.0
C2563 C 0.60471 0.48733 0.97327 0.0
C2564 C 0.63707 0.49129 0.98763 0.0
C2565 C 0.63919 0.51103 0.98587 0.0
C2566 C 0.62375 0.51889 0.97814 0.0
C2567 C 0.60664 0.50728 0.97222 0.0
C2568 C 0.658 0.52298 0.99045 0.0
C2569 C 0.67451 0.5154 0.98294 0.0
C2570 C 0.6596 0.5422 0.00073 0.0
C2571 C 0.64323 0.55034 0.0109 0.0
C2572 C 0.63768 0.56836 0.00796 0.0
C2573 C 0.6222 0.57592 0.01747 0.0
C2574 C 0.61219 0.56564 0.03004 0.0
C2575 C 0.61767 0.54779 0.03316 0.0
C2576 C 0.63315 0.54017 0.02369 0.0
C2577 C 0.73569 0.57305 0.97269 0.0
C2578 C 0.74446 0.58505 0.98899 0.0
C2579 C 0.71893 0.56097 0.97402 0.0
C2580 C 0.7108 0.56019 0.99176 0.0
C2581 C 0.71927 0.57249 0.00805 0.0
C2582 C 0.73594 0.58489 0.00667 0.0
C2583 C 0.69338 0.5466 0.99299 0.0
C2584 C 0.67721 0.55386 0.00159 0.0
C2585 C 0.69224 0.5268 0.98443 0.0
C2586 C 0.70937 0.51765 0.97708 0.0
C2587 C 0.72604 0.51906 0.98883 0.0
C2588 C 0.74221 0.51059 0.98184 0.0
C2589 C 0.74185 0.50056 0.96315 0.0
C2590 C 0.72531 0.49895 0.95141 0.0
C2591 C 0.70911 0.50742 0.95832 0.0
H2592 H 0.75438 0.49402 0.95777 0.0
H2593 H 0.6002 0.57151 0.03738 0.0
H2594 H 0.28546 0.66157 0.22064 0.0
H2595 H 0.25837 0.63705 0.2211 0.0
H2596 H 0.22118 0.68214 0.23554 0.0
H2597 H 0.24856 0.70685 0.23591 0.0
H2598 H 0.21646 0.6571 0.25887 0.0
H2599 H 0.21703 0.65128 0.19145 0.0
H2600 H 0.23078 0.64783 0.15965 0.0
H2601 H 0.24829 0.59245 0.16655 0.0
H2602 H 0.23489 0.59566 0.19852 0.0
H2603 H 0.13673 0.5841 0.25556 0.0
H2604 H 0.15782 0.61153 0.24792 0.0
H2605 H 0.20387 0.57521 0.23882 0.0
H2606 H 0.18294 0.54773 0.24642 0.0
H2607 H 0.20044 0.59774 0.21054 0.0
H2608 H 0.2031 0.60617 0.27953 0.0
H2609 H 0.18923 0.60986 0.31128 0.0
H2610 H 0.16496 0.66102 0.30062 0.0
H2611 H 0.17849 0.65746 0.26867 0.0
C2612 C 0.27148 0.66629 0.22374 0.0
C2613 C 0.26921 0.68616 0.22842 0.0
C2614 C 0.25593 0.65223 0.22379 0.0
C2615 C 0.23765 0.6577 0.22823 0.0
C2616 C 0.23514 0.67756 0.23205 0.0
C2617 C 0.25076 0.69167 0.23209 0.0
C2618 C 0.22175 0.64268 0.2306 0.0
C2619 C 0.21265 0.64435 0.24808 0.0
C2620 C 0.21699 0.62582 0.21672 0.0
C2621 C 0.22505 0.62378 0.19746 0.0
C2622 C 0.22393 0.63842 0.18625 0.0
C2623 C 0.23164 0.6365 0.16818 0.0
C2624 C 0.24043 0.61995 0.1611 0.0
C2625 C 0.24148 0.60526 0.17206 0.0
C2626 C 0.2338 0.60712 0.19015 0.0
C2627 C 0.15134 0.58194 0.25194 0.0
C2628 C 0.15817 0.56374 0.25169 0.0
C2629 C 0.16337 0.59764 0.24758 0.0
C2630 C 0.18243 0.59542 0.24288 0.0
C2631 C 0.1892 0.57722 0.24238 0.0
C2632 C 0.17724 0.56156 0.24684 0.0
C2633 C 0.19551 0.61211 0.23885 0.0
C2634 C 0.20407 0.61069 0.22111 0.0
C2635 C 0.1997 0.62925 0.25243 0.0
C2636 C 0.19161 0.63141 0.27164 0.0
C2637 C 0.19467 0.6181 0.28389 0.0
C2638 C 0.1869 0.62019 0.30194 0.0
C2639 C 0.17617 0.63563 0.30794 0.0
C2640 C 0.17324 0.64904 0.29593 0.0
C2641 C 0.18096 0.647 0.27786 0.0
H2642 H 0.17017 0.63723 0.32192 0.0
H2643 H 0.24639 0.61849 0.14711 0.0
H2644 H 0.96699 0.5242 0.99521 0.0
H2645 H 0.94589 0.54994 0.00158 0.0
H2646 H 0.93527 0.53485 0.05716 0.0
H2647 H 0.95622 0.50866 0.05046 0.0
H2648 H 0.90288 0.53708 0.03958 0.0
H2649 H 0.95946 0.57969 0.05262 0.0
H2650 H 0.99237 0.59402 0.04865 0.0
H2651 H 0.97467 0.60997 0.99568 0.0
H2652 H 0.94172 0.59548 0.99915 0.0
H2653 H 0.83676 0.60887 0.03703 0.0
H2654 H 0.86522 0.59629 0.04929 0.0
H2655 H 0.88669 0.58713 0.99255 0.0
H2656 H 0.85839 0.59928 0.98025 0.0
H2657 H 0.91542 0.60262 0.02199 0.0
H2658 H 0.86163 0.5509 0.0067 0.0
H2659 H 0.8288 0.53657 0.01117 0.0
H2660 H 0.84231 0.53899 0.07078 0.0
H2661 H 0.87517 0.55358 0.06667 0.0
C2662 C 0.96045 0.52671 0.00893 0.0
C2663 C 0.96316 0.51472 0.02242 0.0
C2664 C 0.9485 0.54148 0.01264 0.0
C2665 C 0.93919 0.54459 0.03 0.0
C2666 C 0.9424 0.53284 0.04375 0.0
C2667 C 0.95435 0.51797 0.03997 0.0
C2668 C 0.92457 0.55858 0.03258 0.0
C2669 C 0.90579 0.55165 0.03634 0.0
C2670 C 0.92826 0.57762 0.02836 0.0
C2671 C 0.94808 0.58643 0.02614 0.0
C2672 C 0.9626 0.58615 0.04006 0.0
C2673 C 0.98127 0.59431 0.0379 0.0
C2674 C 0.98561 0.60289 0.02192 0.0
C2675 C 0.97128 0.60334 0.00806 0.0
C2676 C 0.95259 0.59518 0.01014 0.0
C2677 C 0.84773 0.60444 0.02728 0.0
C2678 C 0.84531 0.60484 0.00766 0.0
C2679 C 0.86393 0.59729 0.03428 0.0
C2680 C 0.878 0.59078 0.02179 0.0
C2681 C 0.87604 0.59217 0.00243 0.0
C2682 C 0.85979 0.59897 0.9954 0.0
C2683 C 0.89388 0.58068 0.02811 0.0
C2684 C 0.9128 0.58834 0.02598 0.0
C2685 C 0.89039 0.56242 0.03403 0.0
C2686 C 0.87073 0.55354 0.03643 0.0
C2687 C 0.85754 0.54851 0.02078 0.0
C2688 C 0.83894 0.54032 0.02324 0.0
C2689 C 0.83345 0.53694 0.04126 0.0
C2690 C 0.84657 0.54167 0.05685 0.0
C2691 C 0.86517 0.5499 0.05446 0.0
H2692 H 0.81905 0.53059 0.04315 0.0
H2693 H 1.00008 0.6092 0.02027 0.0
H2694 H 0.1073 0.02404 0.0311 0.0
H2695 H 0.13324 0.00298 0.02664 0.0
H2696 H 0.10339 0.96383 0.05957 0.0
H2697 H 0.07747 0.98453 0.06388 0.0
H2698 H 0.14067 0.97087 0.07055 0.0
H2699 H 0.10375 0.95323 0.01095 0.0
H2700 H 0.0884 0.95957 0.98136 0.0
H2701 H 0.14307 0.98145 0.96317 0.0
H2702 H 0.15871 0.97548 0.9928 0.0
H2703 H 0.18725 0.88605 0.04898 0.0
H2704 H 0.16359 0.90948 0.05152 0.0
H2705 H 0.19777 0.94386 0.01713 0.0
H2706 H 0.22143 0.92032 0.0143 0.0
H2707 H 0.16038 0.94146 0.00669 0.0
H2708 H 0.19767 0.95775 0.06523 0.0
H2709 H 0.2133 0.95181 0.09483 0.0
H2710 H 0.15851 0.93326 0.11516 0.0
H2711 H 0.14256 0.93883 0.08555 0.0
C2712 C 0.10621 0.01088 0.03728 0.0
C2713 C 0.09033 0.00611 0.048 0.0
C2714 C 0.12106 0.99886 0.03474 0.0
C2715 C 0.12026 0.98176 0.04274 0.0
C2716 C 0.10443 0.977 0.05338 0.0
C2717 C 0.08964 0.98894 0.05591 0.0
C2718 C 0.13585 0.96876 0.04023 0.0
C2719 C 0.14484 0.9643 0.05657 0.0
C2720 C 0.14173 0.9606 0.02202 0.0
C2721 C 0.13236 0.96412 0.00418 0.0
C2722 C 0.11247 0.95954 0.00071 0.0
C2723 C 0.10373 0.96304 0.98392 0.0
C2724 C 0.11475 0.97096 0.97042 0.0
C2725 C 0.13455 0.97535 0.97366 0.0
C2726 C 0.14336 0.9719 0.99044 0.0
C2727 C 0.18975 0.89855 0.0419 0.0
C2728 C 0.20632 0.90132 0.03151 0.0
C2729 C 0.17622 0.91201 0.04344 0.0
C2730 C 0.17901 0.92862 0.03475 0.0
C2731 C 0.19532 0.93121 0.02401 0.0
C2732 C 0.20887 0.91774 0.02245 0.0
C2733 C 0.16495 0.9433 0.03702 0.0
C2734 C 0.15629 0.94812 0.02066 0.0
C2735 C 0.1594 0.95187 0.05523 0.0
C2736 C 0.16894 0.94854 0.07309 0.0
C2737 C 0.18896 0.95226 0.07594 0.0
C2738 C 0.19788 0.94899 0.09274 0.0
C2739 C 0.18691 0.94212 0.10685 0.0
C2740 C 0.16699 0.93856 0.10421 0.0
C2741 C 0.158 0.94179 0.08743 0.0
H2742 H 0.19384 0.9396 0.11984 0.0
H2743 H 0.10795 0.97365 0.95743 0.0
loop_
_geom_bond_atom_site_label_1
_geom_bond_atom_site_label_2
_geom_bond_distance
_geom_bond_site_symmetry_2
_ccdc_geom_bond_type
H0 C3 0.929 . S
H1 C6 0.929 . S
H2 C8 0.930 . S
C3 H0 0.929 . S
C3 C4 1.398 . S
C3 C5 1.396 . S
C4 C3 1.398 . S
C4 C8 1.407 . S
C5 C3 1.396 . S
C5 C6 1.394 . S
C6 H1 0.929 . S
C6 C5 1.394 . S
C6 C7 1.382 . S
C7 C6 1.382 . S
C7 C8 1.392 . S
C7 N9 1.420 . S
C8 H2 0.930 . S
C8 C4 1.407 . S
C8 C7 1.392 . S
N9 C7 1.420 . S
N9 C10 1.244 . S
C10 N9 1.244 . S
H11 C14 0.929 . S
H12 C17 0.929 . S
H13 C19 0.930 . S
C14 H11 0.929 . S
C14 C15 1.398 . S
C14 C16 1.396 . S
C15 C14 1.398 . S
C15 C19 1.407 . S
C16 C14 1.396 . S
C16 C17 1.394 . S
C17 H12 0.929 . S
C17 C16 1.394 . S
C17 C18 1.382 . S
C18 C17 1.382 . S
C18 C19 1.392 . S
C18 N20 1.420 . S
C19 H13 0.930 . S
C19 C15 1.407 . S
C19 C18 1.392 . S
N20 C18 1.420 . S
N20 C21 1.244 . S
C21 N20 1.244 . S
H22 C25 0.929 . S
H23 C28 0.929 . S
H24 C30 0.930 . S
C25 H22 0.929 . S
C25 C26 1.398 . S
C25 C27 1.396 . S
C26 C25 1.398 . S
C26 C30 1.407 . S
C27 C25 1.396 . S
C27 C28 1.394 . S
C28 H23 0.929 . S
C28 C27 1.394 . S
C28 C29 1.382 . S
C29 C28 1.382 . S
C29 C30 1.392 . S
C29 N31 1.420 . S
C30 H24 0.930 . S
C30 C26 1.407 . S
C30 C29 1.392 . S
N31 C29 1.420 . S
N31 C32 1.244 . S
C32 N31 1.244 . S
H33 C36 0.929 . S
H34 C39 0.929 . S
H35 C41 0.930 . S
C36 H33 0.929 . S
C36 C37 1.398 . S
C36 C38 1.396 . S
C37 C36 1.398 . S
C37 C41 1.407 . S
C38 C36 1.396 . S
C38 C39 1.394 . S
C39 H34 0.929 . S
C39 C38 1.394 . S
C39 C40 1.382 . S
C40 C39 1.382 . S
C40 C41 1.392 . S
C40 N42 1.420 . S
C41 H35 0.930 . S
C41 C37 1.407 . S
C41 C40 1.392 . S
N42 C40 1.420 . S
N42 C43 1.244 . S
C43 N42 1.244 . S
H44 C47 0.929 . S
H45 C50 0.929 . S
H46 C52 0.930 . S
C47 H44 0.929 . S
C47 C48 1.398 . S
C47 C49 1.396 . S
C48 C47 1.398 . S
C48 C52 1.407 . S
C49 C47 1.396 . S
C49 C50 1.394 . S
C50 H45 0.929 . S
C50 C49 1.394 . S
C50 C51 1.382 . S
C51 C50 1.382 . S
C51 C52 1.392 . S
C51 N53 1.420 . S
C52 H46 0.930 . S
C52 C48 1.407 . S
C52 C51 1.392 . S
N53 C51 1.420 . S
N53 C54 1.244 . S
C54 N53 1.244 . S
H55 C58 0.929 . S
H56 C61 0.929 . S
H57 C63 0.930 . S
C58 H55 0.929 . S
C58 C59 1.398 . S
C58 C60 1.396 . S
C59 C58 1.398 . S
C59 C63 1.407 . S
C60 C58 1.396 . S
C60 C61 1.394 . S
C61 H56 0.929 . S
C61 C60 1.394 . S
C61 C62 1.382 . S
C62 C61 1.382 . S
C62 C63 1.392 . S
C62 N64 1.420 . S
C63 H57 0.930 . S
C63 C59 1.407 . S
C63 C62 1.392 . S
N64 C62 1.420 . S
N64 C65 1.244 . S
C65 N64 1.244 . S
H66 C69 0.929 . S
H67 C72 0.914 1_455 S
H68 C74 0.930 . S
C69 H66 0.929 . S
C69 C70 1.398 . S
C69 C71 1.396 . S
C70 C69 1.398 . S
C70 C74 1.407 . S
C71 C69 1.396 . S
C71 C72 1.394 . S
C72 H67 0.914 1_655 S
C72 C71 1.394 . S
C72 C73 1.382 . S
C73 C72 1.382 . S
C73 C74 1.392 . S
C73 N75 1.420 . S
C74 H68 0.930 . S
C74 C70 1.407 . S
C74 C73 1.392 . S
N75 C73 1.420 . S
N75 C76 1.244 1_655 S
C76 N75 1.244 1_455 S
H77 C80 0.929 . S
H78 C83 0.929 . S
H79 C85 0.930 . S
C80 H77 0.929 . S
C80 C81 1.398 . S
C80 C82 1.396 . S
C81 C80 1.398 . S
C81 C85 1.407 . S
C82 C80 1.396 . S
C82 C83 1.394 . S
C83 H78 0.929 . S
C83 C82 1.394 . S
C83 C84 1.382 . S
C84 C83 1.382 . S
C84 C85 1.392 . S
C84 N86 1.420 . S
C85 H79 0.930 . S
C85 C81 1.407 . S
C85 C84 1.392 . S
N86 C84 1.420 . S
N86 C87 1.244 . S
C87 N86 1.244 . S
H88 C91 0.929 . S
H89 C94 0.929 . S
H90 C96 0.930 . S
C91 H88 0.929 . S
C91 C92 1.398 . S
C91 C93 1.396 . S
C92 C91 1.398 . S
C92 C96 1.407 . S
C93 C91 1.396 . S
C93 C94 1.394 . S
C94 H89 0.929 . S
C94 C93 1.394 . S
C94 C95 1.382 . S
C95 C94 1.382 . S
C95 C96 1.392 . S
C95 N97 1.420 . S
C96 H90 0.930 . S
C96 C92 1.407 . S
C96 C95 1.392 . S
N97 C95 1.420 . S
N97 C98 1.244 . S
C98 N97 1.244 . S
H99 C102 0.929 . S
H100 C105 0.929 . S
H101 C107 0.930 . S
C102 H99 0.929 . S
C102 C103 1.398 . S
C102 C104 1.396 . S
C103 C102 1.398 . S
C103 C107 1.407 . S
C104 C102 1.396 . S
C104 C105 1.394 . S
C105 H100 0.929 . S
C105 C104 1.394 . S
C105 C106 1.382 . S
C106 C105 1.382 . S
C106 C107 1.392 . S
C106 N108 1.420 . S
C107 H101 0.930 . S
C107 C103 1.407 . S
C107 C106 1.392 . S
N108 C106 1.420 . S
N108 C109 1.244 . S
C109 N108 1.244 . S
H110 C113 0.929 . S
H111 C116 0.929 . S
H112 C118 0.930 . S
C113 H110 0.929 . S
C113 C114 1.398 . S
C113 C115 1.396 . S
C114 C113 1.398 . S
C114 C118 1.407 . S
C115 C113 1.396 . S
C115 C116 1.394 . S
C116 H111 0.929 . S
C116 C115 1.394 . S
C116 C117 1.382 . S
C117 C116 1.382 . S
C117 C118 1.392 . S
C117 N119 1.420 . S
C118 H112 0.930 . S
C118 C114 1.407 . S
C118 C117 1.392 . S
N119 C117 1.420 . S
N119 C120 1.244 . S
C120 N119 1.244 . S
H121 C124 0.929 . S
H122 C127 0.929 . S
H123 C129 0.930 . S
C124 H121 0.929 . S
C124 C125 1.398 . S
C124 C126 1.396 . S
C125 C124 1.398 . S
C125 C129 1.407 . S
C126 C124 1.396 . S
C126 C127 1.394 . S
C127 H122 0.929 . S
C127 C126 1.394 . S
C127 C128 1.382 . S
C128 C127 1.382 . S
C128 C129 1.392 . S
C128 N130 1.420 . S
C129 H123 0.930 . S
C129 C125 1.407 . S
C129 C128 1.392 . S
N130 C128 1.420 . S
N130 C131 1.244 . S
C131 N130 1.244 . S
H132 C135 0.929 . S
H133 C138 0.929 . S
H134 C140 0.930 . S
C135 H132 0.929 . S
C135 C136 1.398 . S
C135 C137 1.396 . S
C136 C135 1.398 . S
C136 C140 1.407 . S
C137 C135 1.396 . S
C137 C138 1.394 . S
C138 H133 0.929 . S
C138 C137 1.394 . S
C138 C139 1.382 . S
C139 C138 1.382 . S
C139 C140 1.392 . S
C139 N141 1.420 . S
C140 H134 0.930 . S
C140 C136 1.407 . S
C140 C139 1.392 . S
N141 C139 1.420 . S
N141 C142 1.244 . S
C142 N141 1.244 . S
H143 C146 0.929 . S
H144 C149 0.933 1_554 S
H145 C151 0.930 . S
C146 H143 0.929 . S
C146 C147 1.398 . S
C146 C148 1.396 . S
C147 C146 1.398 . S
C147 C151 1.407 . S
C148 C146 1.396 . S
C148 C149 1.394 . S
C149 H144 0.933 1_556 S
C149 C148 1.394 . S
C149 C150 1.382 . S
C150 C149 1.382 . S
C150 C151 1.392 . S
C150 N152 1.420 . S
C151 H145 0.930 . S
C151 C147 1.407 . S
C151 C150 1.392 . S
N152 C150 1.420 . S
N152 C153 1.244 1_556 S
C153 N152 1.244 1_554 S
H154 C157 0.929 . S
H155 C160 0.929 . S
H156 C162 0.930 . S
C157 H154 0.929 . S
C157 C158 1.398 . S
C157 C159 1.396 . S
C158 C157 1.398 . S
C158 C162 1.407 . S
C159 C157 1.396 . S
C159 C160 1.394 . S
C160 H155 0.929 . S
C160 C159 1.394 . S
C160 C161 1.382 . S
C161 C160 1.382 . S
C161 C162 1.392 . S
C161 N163 1.420 . S
C162 H156 0.930 . S
C162 C158 1.407 . S
C162 C161 1.392 . S
N163 C161 1.420 . S
N163 C164 1.244 . S
C164 N163 1.244 . S
H165 C168 0.929 . S
H166 C171 0.929 . S
H167 C173 0.930 . S
C168 H165 0.929 . S
C168 C169 1.398 . S
C168 C170 1.396 . S
C169 C168 1.398 . S
C169 C173 1.407 . S
C170 C168 1.396 . S
C170 C171 1.394 . S
C171 H166 0.929 . S
C171 C170 1.394 . S
C171 C172 1.382 . S
C172 C171 1.382 . S
C172 C173 1.392 . S
C172 N174 1.420 . S
C173 H167 0.930 . S
C173 C169 1.407 . S
C173 C172 1.392 . S
N174 C172 1.420 . S
N174 C175 1.244 . S
C175 N174 1.244 . S
Zn176 O179 2.031 . S
Zn176 O181 2.049 . S
Zn176 O186 2.067 . S
Zn177 O178 1.962 . S
Zn177 O180 1.986 . S
Zn177 O182 1.996 . S
Zn177 O185 1.943 . S
O178 Zn177 1.962 . S
O178 C183 1.254 . S
O179 Zn176 2.031 . S
O179 C183 1.269 . S
O180 Zn177 1.986 . S
O180 C187 1.262 . S
O181 Zn176 2.049 . S
O181 C189 1.260 . S
O182 Zn177 1.996 . S
O182 C189 1.257 . S
C183 O178 1.254 . S
C183 O179 1.269 . S
C184 O185 1.249 . S
C184 O186 1.270 . S
O185 Zn177 1.943 . S
O185 C184 1.249 . S
O186 Zn176 2.067 . S
O186 C184 1.270 . S
C187 O180 1.262 . S
C187 O188 1.232 . S
O188 C187 1.232 . S
C189 O181 1.260 . S
C189 O182 1.257 . S
Zn190 O193 2.031 . S
Zn190 O195 2.049 . S
Zn190 O200 2.067 . S
Zn191 O192 1.962 . S
Zn191 O194 1.986 . S
Zn191 O196 1.996 . S
Zn191 O199 1.943 . S
O192 Zn191 1.962 . S
O192 C197 1.254 . S
O193 Zn190 2.031 . S
O193 C197 1.269 . S
O194 Zn191 1.986 . S
O194 C201 1.262 . S
O195 Zn190 2.049 . S
O195 C203 1.260 . S
O196 Zn191 1.996 . S
O196 C203 1.257 . S
C197 O192 1.254 . S
C197 O193 1.269 . S
C198 O199 1.249 . S
C198 O200 1.270 . S
O199 Zn191 1.943 . S
O199 C198 1.249 . S
O200 Zn190 2.067 . S
O200 C198 1.270 . S
C201 O194 1.262 . S
C201 O202 1.232 . S
O202 C201 1.232 . S
C203 O195 1.260 . S
C203 O196 1.257 . S
Zn204 O207 2.031 . S
Zn204 O209 2.049 . S
Zn204 O214 2.067 . S
Zn205 O206 1.962 . S
Zn205 O208 1.986 . S
Zn205 O210 1.996 1_554 S
Zn205 O213 1.943 . S
O206 Zn205 1.962 . S
O206 C211 1.254 . S
O207 Zn204 2.031 . S
O207 C211 1.269 1_556 S
O208 Zn205 1.986 . S
O208 C215 1.262 . S
O209 Zn204 2.049 . S
O209 C217 1.260 . S
O210 Zn205 1.996 1_556 S
O210 C217 1.257 . S
C211 O206 1.254 . S
C211 O207 1.269 1_554 S
C212 O213 1.249 1_556 S
C212 O214 1.270 . S
O213 Zn205 1.943 . S
O213 C212 1.249 1_554 S
O214 Zn204 2.067 . S
O214 C212 1.270 . S
C215 O208 1.262 . S
C215 O216 1.232 . S
O216 C215 1.232 . S
C217 O209 1.260 . S
C217 O210 1.257 . S
Zn218 O221 2.031 . S
Zn218 O223 2.049 . S
Zn218 O228 2.067 1_545 S
Zn219 O220 1.962 . S
Zn219 O222 1.986 . S
Zn219 O224 1.996 . S
Zn219 O227 1.962 . S
O220 Zn219 1.962 . S
O220 C225 1.254 . S
O221 Zn218 2.031 . S
O221 C225 1.269 . S
O222 Zn219 1.986 . S
O222 C229 1.262 . S
O223 Zn218 2.049 . S
O223 C231 1.260 . S
O224 Zn219 1.996 . S
O224 C231 1.257 . S
C225 O220 1.254 . S
C225 O221 1.269 . S
C226 O227 1.235 1_565 S
C226 O228 1.270 . S
O227 Zn219 1.962 . S
O227 C226 1.235 1_545 S
O228 Zn218 2.067 1_565 S
O228 C226 1.270 . S
C229 O222 1.262 . S
C229 O230 1.232 . S
O230 C229 1.232 . S
C231 O223 1.260 . S
C231 O224 1.257 . S
Zn232 O235 2.031 . S
Zn232 O237 2.049 . S
Zn232 O242 2.067 . S
Zn233 O234 1.962 . S
Zn233 O236 1.986 . S
Zn233 O238 1.996 . S
Zn233 O241 1.943 . S
O234 Zn233 1.962 . S
O234 C239 1.254 . S
O235 Zn232 2.031 . S
O235 C239 1.269 . S
O236 Zn233 1.986 . S
O236 C243 1.262 . S
O237 Zn232 2.049 . S
O237 C245 1.260 . S
O238 Zn233 1.996 . S
O238 C245 1.257 . S
C239 O234 1.254 . S
C239 O235 1.269 . S
C240 O241 1.249 . S
C240 O242 1.270 . S
O241 Zn233 1.943 . S
O241 C240 1.249 . S
O242 Zn232 2.067 . S
O242 C240 1.270 . S
C243 O236 1.262 . S
C243 O244 1.232 . S
O244 C243 1.232 . S
C245 O237 1.260 . S
C245 O238 1.257 . S
Zn246 O249 2.031 . S
Zn246 O251 2.049 . S
Zn246 O256 2.067 . S
Zn247 O248 1.962 . S
Zn247 O250 1.986 . S
Zn247 O252 1.996 . S
Zn247 O255 1.943 . S
O248 Zn247 1.962 . S
O248 C253 1.254 . S
O249 Zn246 2.031 . S
O249 C253 1.269 . S
O250 Zn247 1.986 . S
O250 C257 1.262 . S
O251 Zn246 2.049 . S
O251 C259 1.260 . S
O252 Zn247 1.996 . S
O252 C259 1.257 . S
C253 O248 1.254 . S
C253 O249 1.269 . S
C254 O255 1.249 . S
C254 O256 1.270 . S
O255 Zn247 1.943 . S
O255 C254 1.249 . S
O256 Zn246 2.067 . S
O256 C254 1.270 . S
C257 O250 1.262 . S
C257 O258 1.232 . S
O258 C257 1.232 . S
C259 O251 1.260 . S
C259 O252 1.257 . S
Zn260 O263 2.031 . S
Zn260 O265 2.049 . S
Zn260 O270 2.067 . S
Zn261 O262 1.962 . S
Zn261 O264 1.986 . S
Zn261 O266 1.996 . S
Zn261 O269 1.943 . S
O262 Zn261 1.962 . S
O262 C267 1.254 . S
O263 Zn260 2.031 . S
O263 C267 1.269 . S
O264 Zn261 1.986 . S
O264 C271 1.262 . S
O265 Zn260 2.049 . S
O265 C273 1.260 . S
O266 Zn261 1.996 . S
O266 C273 1.257 . S
C267 O262 1.254 . S
C267 O263 1.269 . S
C268 O269 1.249 . S
C268 O270 1.270 . S
O269 Zn261 1.943 . S
O269 C268 1.249 . S
O270 Zn260 2.067 . S
O270 C268 1.270 . S
C271 O264 1.262 . S
C271 O272 1.232 . S
O272 C271 1.232 . S
C273 O265 1.260 . S
C273 O266 1.257 . S
Zn274 O277 2.031 . S
Zn274 O279 2.049 . S
Zn274 O284 2.067 . S
Zn275 O276 1.962 . S
Zn275 O278 1.986 . S
Zn275 O280 1.996 1_545 S
Zn275 O283 1.943 . S
O276 Zn275 1.962 . S
O276 C281 1.254 . S
O277 Zn274 2.031 . S
O277 C281 1.269 1_565 S
O278 Zn275 1.986 . S
O278 C285 1.262 . S
O279 Zn274 2.049 . S
O279 C287 1.260 . S
O280 Zn275 1.996 1_565 S
O280 C287 1.257 . S
C281 O276 1.254 . S
C281 O277 1.269 1_545 S
C282 O283 1.221 1_565 S
C282 O284 1.270 . S
O283 Zn275 1.943 . S
O283 C282 1.221 1_545 S
O284 Zn274 2.067 . S
O284 C282 1.270 . S
C285 O278 1.262 . S
C285 O286 1.232 . S
O286 C285 1.232 . S
C287 O279 1.260 . S
C287 O280 1.257 . S
Zn288 O291 2.031 . S
Zn288 O293 2.049 . S
Zn288 O298 2.067 1_455 S
Zn289 O290 1.962 . S
Zn289 O292 1.986 . S
Zn289 O294 1.996 . S
Zn289 O297 1.943 . S
O290 Zn289 1.962 . S
O290 C295 1.254 . S
O291 Zn288 2.031 . S
O291 C295 1.269 . S
O292 Zn289 1.986 . S
O292 C299 1.262 . S
O293 Zn288 2.049 . S
O293 C301 1.260 . S
O294 Zn289 1.996 . S
O294 C301 1.257 . S
C295 O290 1.254 . S
C295 O291 1.269 . S
C296 O297 1.249 1_655 S
C296 O298 1.270 . S
O297 Zn289 1.943 . S
O297 C296 1.249 1_455 S
O298 Zn288 2.067 1_655 S
O298 C296 1.270 . S
C299 O292 1.262 . S
C299 O300 1.232 . S
O300 C299 1.232 . S
C301 O293 1.260 . S
C301 O294 1.257 . S
Zn302 O305 2.031 . S
Zn302 O307 2.049 . S
Zn302 O312 2.067 . S
Zn303 O304 1.962 . S
Zn303 O306 1.986 . S
Zn303 O308 1.996 . S
Zn303 O311 1.943 . S
O304 Zn303 1.962 . S
O304 C309 1.254 . S
O305 Zn302 2.031 . S
O305 C309 1.269 . S
O306 Zn303 1.986 . S
O306 C313 1.262 . S
O307 Zn302 2.049 . S
O307 C315 1.260 . S
O308 Zn303 1.996 . S
O308 C315 1.257 . S
C309 O304 1.254 . S
C309 O305 1.269 . S
C310 O311 1.249 . S
C310 O312 1.270 . S
O311 Zn303 1.943 . S
O311 C310 1.249 . S
O312 Zn302 2.067 . S
O312 C310 1.270 . S
C313 O306 1.262 . S
C313 O314 1.232 . S
O314 C313 1.232 . S
C315 O307 1.260 . S
C315 O308 1.257 . S
Zn316 O319 2.031 1_655 S
Zn316 O321 2.049 . S
Zn316 O326 2.067 . S
Zn317 O318 1.962 . S
Zn317 O320 1.986 . S
Zn317 O322 1.996 1_455 S
Zn317 O325 1.943 . S
O318 Zn317 1.962 . S
O318 C323 1.254 . S
O319 Zn316 2.031 1_455 S
O319 C323 1.269 . S
O320 Zn317 1.986 . S
O320 C327 1.262 . S
O321 Zn316 2.049 . S
O321 C329 1.260 . S
O322 Zn317 1.996 1_655 S
O322 C329 1.257 . S
C323 O318 1.254 . S
C323 O319 1.269 . S
C324 O325 1.249 . S
C324 O326 1.270 1_455 S
O325 Zn317 1.943 . S
O325 C324 1.249 . S
O326 Zn316 2.067 . S
O326 C324 1.270 1_655 S
C327 O320 1.262 . S
C327 O328 1.232 . S
O328 C327 1.232 . S
C329 O321 1.260 . S
C329 O322 1.257 . S
Zn330 O333 2.031 . S
Zn330 O335 2.049 . S
Zn330 O340 2.067 . S
Zn331 O332 1.962 . S
Zn331 O334 1.986 . S
Zn331 O336 1.996 . S
Zn331 O339 1.943 . S
O332 Zn331 1.962 . S
O332 C337 1.254 . S
O333 Zn330 2.031 . S
O333 C337 1.269 . S
O334 Zn331 1.986 . S
O334 C341 1.262 . S
O335 Zn330 2.049 . S
O335 C343 1.260 . S
O336 Zn331 1.996 . S
O336 C343 1.257 . S
C337 O332 1.254 . S
C337 O333 1.269 . S
C338 O339 1.249 . S
C338 O340 1.270 . S
O339 Zn331 1.943 . S
O339 C338 1.249 . S
O340 Zn330 2.067 . S
O340 C338 1.270 . S
C341 O334 1.262 . S
C341 O342 1.232 . S
O342 C341 1.232 . S
C343 O335 1.260 . S
C343 O336 1.257 . S
H344 C362 0.951 . S
H345 C364 0.951 . S
H346 C366 0.950 . S
H347 C367 0.950 . S
H348 C369 0.950 . S
H349 C372 0.950 . S
H350 C373 0.950 . S
H351 C375 0.950 . S
H352 C376 0.950 . S
H353 C377 0.951 . S
H354 C379 0.951 . S
H355 C381 0.950 . S
H356 C382 0.950 . S
H357 C384 0.950 . S
H358 C387 0.950 . S
H359 C388 0.947 . S
H360 C390 0.950 . S
H361 C391 0.950 . S
C362 H344 0.951 . S
C362 C363 1.366 . S
C362 C364 1.388 . S
C363 C362 1.366 . S
C363 C367 1.385 . S
C364 H345 0.951 . S
C364 C362 1.388 . S
C364 C365 1.366 . S
C365 C364 1.366 . S
C365 C366 1.414 . S
C365 C368 1.499 . S
C366 H346 0.950 . S
C366 C365 1.414 . S
C366 C367 1.374 . S
C367 H347 0.950 . S
C367 C363 1.385 . S
C367 C366 1.374 . S
C368 C365 1.499 . S
C368 C369 1.373 . S
C368 C370 1.389 . S
C369 H348 0.950 . S
C369 C368 1.373 . S
C369 C385 1.377 . S
C370 C368 1.389 . S
C370 C371 1.524 . S
C370 C384 1.377 . S
C371 C370 1.524 . S
C371 C372 1.397 . S
C371 C376 1.363 . S
C372 H349 0.950 . S
C372 C371 1.397 . S
C372 C373 1.334 . S
C373 H350 0.950 . S
C373 C372 1.334 . S
C373 C374 1.287 . S
C374 C373 1.287 . S
C374 C375 1.524 . S
C374 H393 0.913 . S
C375 H351 0.950 . S
C375 C374 1.524 . S
C375 C376 1.415 . S
C376 H352 0.950 . S
C376 C371 1.363 . S
C376 C375 1.415 . S
C377 H353 0.951 . S
C377 C378 1.366 . S
C377 C379 1.388 . S
C378 C377 1.366 . S
C378 C382 1.385 . S
C379 H354 0.951 . S
C379 C377 1.388 . S
C379 C380 1.366 . S
C380 C379 1.366 . S
C380 C381 1.414 . S
C380 C383 1.499 . S
C381 H355 0.950 . S
C381 C380 1.414 . S
C381 C382 1.374 . S
C382 H356 0.950 . S
C382 C378 1.385 . S
C382 C381 1.374 . S
C383 C380 1.499 . S
C383 C384 1.373 . S
C383 C385 1.389 . S
C384 H357 0.950 . S
C384 C370 1.377 . S
C384 C383 1.373 . S
C385 C369 1.377 . S
C385 C383 1.389 . S
C385 C386 1.524 . S
C386 C385 1.524 . S
C386 C387 1.397 . S
C386 C391 1.363 . S
C387 H358 0.950 . S
C387 C386 1.397 . S
C387 C388 1.334 . S
C388 H359 0.947 . S
C388 C387 1.334 . S
C388 C389 1.287 . S
C389 C388 1.287 . S
C389 C390 1.524 . S
C389 H392 0.999 1_556 S
C390 H360 0.950 . S
C390 C389 1.524 . S
C390 C391 1.415 . S
C391 H361 0.950 . S
C391 C386 1.363 . S
C391 C390 1.415 . S
H392 C389 0.999 1_554 S
H393 C374 0.913 . S
H394 C412 0.951 . S
H395 C414 0.951 . S
H396 C416 0.950 . S
H397 C417 0.950 1_655 S
H398 C419 0.950 . S
H399 C422 0.950 . S
H400 C423 0.950 . S
H401 C425 0.950 . S
H402 C426 0.950 . S
H403 C427 0.951 . S
H404 C429 0.951 . S
H405 C431 0.950 . S
H406 C432 0.950 . S
H407 C434 0.950 . S
H408 C437 0.950 . S
H409 C438 0.950 . S
H410 C440 0.950 . S
H411 C441 0.950 . S
C412 H394 0.951 . S
C412 C413 1.366 . S
C412 C414 1.388 . S
C413 C412 1.366 . S
C413 C417 1.385 . S
C414 H395 0.951 . S
C414 C412 1.388 . S
C414 C415 1.366 . S
C415 C414 1.366 . S
C415 C416 1.414 . S
C415 C418 1.499 . S
C416 H396 0.950 . S
C416 C415 1.414 . S
C416 C417 1.374 . S
C417 H397 0.950 1_455 S
C417 C413 1.385 . S
C417 C416 1.374 . S
C418 C415 1.499 . S
C418 C419 1.373 . S
C418 C420 1.389 . S
C419 H398 0.950 . S
C419 C418 1.373 . S
C419 C435 1.377 . S
C420 C418 1.389 . S
C420 C421 1.524 . S
C420 C434 1.377 . S
C421 C420 1.524 . S
C421 C422 1.397 . S
C421 C426 1.363 . S
C422 H399 0.950 . S
C422 C421 1.397 . S
C422 C423 1.334 . S
C423 H400 0.950 . S
C423 C422 1.334 . S
C423 C424 1.287 . S
C424 C423 1.287 . S
C424 C425 1.524 . S
C424 H443 0.913 . S
C425 H401 0.950 . S
C425 C424 1.524 . S
C425 C426 1.415 . S
C426 H402 0.950 . S
C426 C421 1.363 . S
C426 C425 1.415 . S
C427 H403 0.951 . S
C427 C428 1.366 . S
C427 C429 1.388 . S
C428 C427 1.366 . S
C428 C432 1.385 . S
C429 H404 0.951 . S
C429 C427 1.388 . S
C429 C430 1.366 . S
C430 C429 1.366 . S
C430 C431 1.414 . S
C430 C433 1.499 . S
C431 H405 0.950 . S
C431 C430 1.414 . S
C431 C432 1.374 . S
C432 H406 0.950 . S
C432 C428 1.385 . S
C432 C431 1.374 . S
C433 C430 1.499 . S
C433 C434 1.373 . S
C433 C435 1.389 . S
C434 H407 0.950 . S
C434 C420 1.377 . S
C434 C433 1.373 . S
C435 C419 1.377 . S
C435 C433 1.389 . S
C435 C436 1.524 . S
C436 C435 1.524 . S
C436 C437 1.397 . S
C436 C441 1.363 . S
C437 H408 0.950 . S
C437 C436 1.397 . S
C437 C438 1.334 . S
C438 H409 0.950 . S
C438 C437 1.334 . S
C438 C439 1.287 . S
C439 C438 1.287 . S
C439 C440 1.524 . S
C439 H442 0.999 . S
C440 H410 0.950 . S
C440 C439 1.524 . S
C440 C441 1.415 . S
C441 H411 0.950 . S
C441 C436 1.363 . S
C441 C440 1.415 . S
H442 C439 0.999 . S
H443 C424 0.913 . S
H444 C462 0.951 . S
H445 C464 0.951 . S
H446 C466 0.950 . S
H447 C467 0.950 . S
H448 C469 0.950 . S
H449 C472 0.950 . S
H450 C473 0.950 . S
H451 C475 0.950 . S
H452 C476 0.950 . S
H453 C477 0.951 . S
H454 C479 0.951 . S
H455 C481 0.950 . S
H456 C482 0.950 . S
H457 C484 0.950 . S
H458 C487 0.950 . S
H459 C488 0.950 . S
H460 C490 0.950 . S
H461 C491 0.950 . S
C462 H444 0.951 . S
C462 C463 1.366 . S
C462 C464 1.388 . S
C463 C462 1.366 . S
C463 C467 1.385 . S
C464 H445 0.951 . S
C464 C462 1.388 . S
C464 C465 1.366 . S
C465 C464 1.366 . S
C465 C466 1.414 . S
C465 C468 1.499 . S
C466 H446 0.950 . S
C466 C465 1.414 . S
C466 C467 1.374 . S
C467 H447 0.950 . S
C467 C463 1.385 . S
C467 C466 1.374 . S
C468 C465 1.499 . S
C468 C469 1.373 . S
C468 C470 1.389 . S
C469 H448 0.950 . S
C469 C468 1.373 . S
C469 C485 1.377 . S
C470 C468 1.389 . S
C470 C471 1.524 . S
C470 C484 1.377 . S
C471 C470 1.524 . S
C471 C472 1.397 . S
C471 C476 1.363 . S
C472 H449 0.950 . S
C472 C471 1.397 . S
C472 C473 1.334 . S
C473 H450 0.950 . S
C473 C472 1.334 . S
C473 C474 1.287 . S
C474 C473 1.287 . S
C474 C475 1.524 . S
C474 H493 0.913 . S
C475 H451 0.950 . S
C475 C474 1.524 . S
C475 C476 1.415 . S
C476 H452 0.950 . S
C476 C471 1.363 . S
C476 C475 1.415 . S
C477 H453 0.951 . S
C477 C478 1.366 . S
C477 C479 1.388 . S
C478 C477 1.366 . S
C478 C482 1.385 . S
C479 H454 0.951 . S
C479 C477 1.388 . S
C479 C480 1.366 . S
C480 C479 1.366 . S
C480 C481 1.414 . S
C480 C483 1.499 . S
C481 H455 0.950 . S
C481 C480 1.414 . S
C481 C482 1.374 . S
C482 H456 0.950 . S
C482 C478 1.385 . S
C482 C481 1.374 . S
C483 C480 1.499 . S
C483 C484 1.373 . S
C483 C485 1.389 . S
C484 H457 0.950 . S
C484 C470 1.377 . S
C484 C483 1.373 . S
C485 C469 1.377 . S
C485 C483 1.389 . S
C485 C486 1.524 . S
C486 C485 1.524 . S
C486 C487 1.397 . S
C486 C491 1.363 . S
C487 H458 0.950 . S
C487 C486 1.397 . S
C487 C488 1.334 . S
C488 H459 0.950 . S
C488 C487 1.334 . S
C488 C489 1.287 . S
C489 C488 1.287 . S
C489 C490 1.524 . S
C489 H492 0.999 . S
C490 H460 0.950 . S
C490 C489 1.524 . S
C490 C491 1.415 . S
C491 H461 0.950 . S
C491 C486 1.363 . S
C491 C490 1.415 . S
H492 C489 0.999 . S
H493 C474 0.913 . S
H494 C512 0.951 . S
H495 C514 0.951 . S
H496 C516 0.950 . S
H497 C517 0.950 . S
H498 C519 0.950 . S
H499 C522 0.950 1_455 S
H500 C523 0.950 . S
H501 C525 0.950 . S
H502 C526 0.950 . S
H503 C527 0.954 . S
H504 C529 0.951 1_455 S
H505 C531 0.950 . S
H506 C532 0.950 . S
H507 C534 0.950 . S
H508 C537 0.950 . S
H509 C538 0.950 . S
H510 C540 0.950 . S
H511 C541 0.950 1_565 S
C512 H494 0.951 . S
C512 C513 1.366 . S
C512 C514 1.388 . S
C513 C512 1.366 . S
C513 C517 1.385 . S
C514 H495 0.951 . S
C514 C512 1.388 . S
C514 C515 1.366 . S
C515 C514 1.366 . S
C515 C516 1.414 . S
C515 C518 1.499 . S
C516 H496 0.950 . S
C516 C515 1.414 . S
C516 C517 1.374 . S
C517 H497 0.950 . S
C517 C513 1.385 . S
C517 C516 1.374 . S
C518 C515 1.499 . S
C518 C519 1.373 . S
C518 C520 1.402 . S
C519 H498 0.950 . S
C519 C518 1.373 . S
C519 C535 1.377 . S
C520 C518 1.402 . S
C520 C521 1.518 1_455 S
C520 C534 1.369 1_455 S
C521 C520 1.518 1_655 S
C521 C522 1.397 . S
C521 C526 1.363 . S
C522 H499 0.950 1_655 S
C522 C521 1.397 . S
C522 C523 1.334 . S
C523 H500 0.950 . S
C523 C522 1.334 . S
C523 C524 1.287 . S
C524 C523 1.287 . S
C524 C525 1.524 . S
C524 H543 0.913 . S
C525 H501 0.950 . S
C525 C524 1.524 . S
C525 C526 1.415 . S
C526 H502 0.950 . S
C526 C521 1.363 . S
C526 C525 1.415 . S
C527 H503 0.954 . S
C527 C528 1.348 1_565 S
C527 C529 1.404 . S
C528 C527 1.348 1_545 S
C528 C532 1.385 . S
C529 H504 0.951 1_655 S
C529 C527 1.404 . S
C529 C530 1.366 . S
C530 C529 1.366 . S
C530 C531 1.414 1_565 S
C530 C533 1.499 . S
C531 H505 0.950 . S
C531 C530 1.414 1_545 S
C531 C532 1.374 . S
C532 H506 0.950 . S
C532 C528 1.385 . S
C532 C531 1.374 . S
C533 C530 1.499 . S
C533 C534 1.373 . S
C533 C535 1.389 1_655 S
C534 H507 0.950 . S
C534 C520 1.369 1_655 S
C534 C533 1.373 . S
C535 C519 1.377 . S
C535 C533 1.389 1_455 S
C535 C536 1.524 1_565 S
C536 C535 1.524 1_545 S
C536 C537 1.397 . S
C536 C541 1.363 . S
C537 H508 0.950 . S
C537 C536 1.397 . S
C537 C538 1.334 . S
C538 H509 0.950 . S
C538 C537 1.334 . S
C538 C539 1.287 . S
C539 C538 1.287 . S
C539 C540 1.524 . S
C539 H542 0.999 . S
C540 H510 0.950 . S
C540 C539 1.524 . S
C540 C541 1.415 . S
C541 H511 0.950 1_545 S
C541 C536 1.363 . S
C541 C540 1.415 . S
H542 C539 0.999 . S
H543 C524 0.913 . S
H544 C562 0.951 . S
H545 C564 0.951 . S
H546 C566 0.950 . S
H547 C567 0.950 . S
H548 C569 0.950 . S
H549 C572 0.950 . S
H550 C573 0.950 . S
H551 C575 0.950 . S
H552 C576 0.950 . S
H553 C577 0.951 . S
H554 C579 0.951 . S
H555 C581 0.950 . S
H556 C582 0.950 . S
H557 C584 0.950 . S
H558 C587 0.950 . S
H559 C588 0.950 . S
H560 C590 0.950 . S
H561 C591 0.950 . S
C562 H544 0.951 . S
C562 C563 1.366 . S
C562 C564 1.388 . S
C563 C562 1.366 . S
C563 C567 1.385 . S
C564 H545 0.951 . S
C564 C562 1.388 . S
C564 C565 1.366 . S
C565 C564 1.366 . S
C565 C566 1.414 . S
C565 C568 1.499 . S
C566 H546 0.950 . S
C566 C565 1.414 . S
C566 C567 1.374 . S
C567 H547 0.950 . S
C567 C563 1.385 . S
C567 C566 1.374 . S
C568 C565 1.499 . S
C568 C569 1.373 . S
C568 C570 1.389 . S
C569 H548 0.950 . S
C569 C568 1.373 . S
C569 C585 1.377 . S
C570 C568 1.389 . S
C570 C571 1.524 . S
C570 C584 1.377 . S
C571 C570 1.524 . S
C571 C572 1.397 . S
C571 C576 1.363 . S
C572 H549 0.950 . S
C572 C571 1.397 . S
C572 C573 1.334 . S
C573 H550 0.950 . S
C573 C572 1.334 . S
C573 C574 1.287 . S
C574 C573 1.287 . S
C574 C575 1.524 . S
C574 H593 0.913 . S
C575 H551 0.950 . S
C575 C574 1.524 . S
C575 C576 1.415 . S
C576 H552 0.950 . S
C576 C571 1.363 . S
C576 C575 1.415 . S
C577 H553 0.951 . S
C577 C578 1.366 . S
C577 C579 1.388 . S
C578 C577 1.366 . S
C578 C582 1.385 . S
C579 H554 0.951 . S
C579 C577 1.388 . S
C579 C580 1.366 . S
C580 C579 1.366 . S
C580 C581 1.414 . S
C580 C583 1.499 . S
C581 H555 0.950 . S
C581 C580 1.414 . S
C581 C582 1.374 . S
C582 H556 0.950 . S
C582 C578 1.385 . S
C582 C581 1.374 . S
C583 C580 1.499 . S
C583 C584 1.373 . S
C583 C585 1.389 . S
C584 H557 0.950 . S
C584 C570 1.377 . S
C584 C583 1.373 . S
C585 C569 1.377 . S
C585 C583 1.389 . S
C585 C586 1.524 . S
C586 C585 1.524 . S
C586 C587 1.397 . S
C586 C591 1.363 . S
C587 H558 0.950 . S
C587 C586 1.397 . S
C587 C588 1.334 . S
C588 H559 0.950 . S
C588 C587 1.334 . S
C588 C589 1.287 . S
C589 C588 1.287 . S
C589 C590 1.524 . S
C589 H592 0.999 . S
C590 H560 0.950 . S
C590 C589 1.524 . S
C590 C591 1.415 . S
C591 H561 0.950 . S
C591 C586 1.363 . S
C591 C590 1.415 . S
H592 C589 0.999 . S
H593 C574 0.913 . S
H594 C612 0.951 . S
H595 C614 0.951 . S
H596 C616 0.950 . S
H597 C617 0.950 . S
H598 C619 0.950 . S
H599 C622 0.950 . S
H600 C623 0.950 . S
H601 C625 0.950 . S
H602 C626 0.950 . S
H603 C627 0.951 . S
H604 C629 0.951 . S
H605 C631 0.950 . S
H606 C632 0.950 . S
H607 C634 0.950 . S
H608 C637 0.950 . S
H609 C638 0.950 . S
H610 C640 0.950 . S
H611 C641 0.950 . S
C612 H594 0.951 . S
C612 C613 1.366 . S
C612 C614 1.388 . S
C613 C612 1.366 . S
C613 C617 1.385 . S
C614 H595 0.951 . S
C614 C612 1.388 . S
C614 C615 1.366 . S
C615 C614 1.366 . S
C615 C616 1.414 . S
C615 C618 1.499 . S
C616 H596 0.950 . S
C616 C615 1.414 . S
C616 C617 1.374 . S
C617 H597 0.950 . S
C617 C613 1.385 . S
C617 C616 1.374 . S
C618 C615 1.499 . S
C618 C619 1.373 . S
C618 C620 1.389 . S
C619 H598 0.950 . S
C619 C618 1.373 . S
C619 C635 1.377 . S
C620 C618 1.389 . S
C620 C621 1.524 . S
C620 C634 1.377 . S
C621 C620 1.524 . S
C621 C622 1.397 . S
C621 C626 1.363 . S
C622 H599 0.950 . S
C622 C621 1.397 . S
C622 C623 1.334 . S
C623 H600 0.950 . S
C623 C622 1.334 . S
C623 C624 1.287 . S
C624 C623 1.287 . S
C624 C625 1.524 . S
C624 H643 0.913 . S
C625 H601 0.950 . S
C625 C624 1.524 . S
C625 C626 1.415 . S
C626 H602 0.950 . S
C626 C621 1.363 . S
C626 C625 1.415 . S
C627 H603 0.951 . S
C627 C628 1.366 . S
C627 C629 1.388 . S
C628 C627 1.366 . S
C628 C632 1.385 . S
C629 H604 0.951 . S
C629 C627 1.388 . S
C629 C630 1.366 . S
C630 C629 1.366 . S
C630 C631 1.414 . S
C630 C633 1.499 . S
C631 H605 0.950 . S
C631 C630 1.414 . S
C631 C632 1.374 . S
C632 H606 0.950 . S
C632 C628 1.385 . S
C632 C631 1.374 . S
C633 C630 1.499 . S
C633 C634 1.373 . S
C633 C635 1.389 . S
C634 H607 0.950 . S
C634 C620 1.377 . S
C634 C633 1.373 . S
C635 C619 1.377 . S
C635 C633 1.389 . S
C635 C636 1.524 . S
C636 C635 1.524 . S
C636 C637 1.397 . S
C636 C641 1.363 . S
C637 H608 0.950 . S
C637 C636 1.397 . S
C637 C638 1.334 . S
C638 H609 0.950 . S
C638 C637 1.334 . S
C638 C639 1.287 . S
C639 C638 1.287 . S
C639 C640 1.524 . S
C639 H642 0.999 . S
C640 H610 0.950 . S
C640 C639 1.524 . S
C640 C641 1.415 . S
C641 H611 0.950 . S
C641 C636 1.363 . S
C641 C640 1.415 . S
H642 C639 0.999 . S
H643 C624 0.913 . S
H644 C662 0.951 . S
H645 C664 0.951 . S
H646 C666 0.950 . S
H647 C667 0.950 . S
H648 C669 0.950 . S
H649 C672 0.950 . S
H650 C673 0.950 . S
H651 C675 0.950 . S
H652 C676 0.950 . S
H653 C677 0.951 . S
H654 C679 0.951 . S
H655 C681 0.950 . S
H656 C682 0.950 . S
H657 C684 0.950 . S
H658 C687 0.950 . S
H659 C688 0.950 . S
H660 C690 0.950 . S
H661 C691 0.950 . S
C662 H644 0.951 . S
C662 C663 1.366 . S
C662 C664 1.388 . S
C663 C662 1.366 . S
C663 C667 1.385 . S
C664 H645 0.951 . S
C664 C662 1.388 . S
C664 C665 1.366 . S
C665 C664 1.366 . S
C665 C666 1.414 . S
C665 C668 1.499 . S
C666 H646 0.950 . S
C666 C665 1.414 . S
C666 C667 1.374 . S
C667 H647 0.950 . S
C667 C663 1.385 . S
C667 C666 1.374 . S
C668 C665 1.499 . S
C668 C669 1.373 . S
C668 C670 1.389 . S
C669 H648 0.950 . S
C669 C668 1.373 . S
C669 C685 1.377 . S
C670 C668 1.389 . S
C670 C671 1.524 . S
C670 C684 1.377 . S
C671 C670 1.524 . S
C671 C672 1.397 . S
C671 C676 1.363 . S
C672 H649 0.950 . S
C672 C671 1.397 . S
C672 C673 1.334 . S
C673 H650 0.950 . S
C673 C672 1.334 . S
C673 C674 1.287 . S
C674 C673 1.287 . S
C674 C675 1.524 . S
C674 H693 0.913 . S
C675 H651 0.950 . S
C675 C674 1.524 . S
C675 C676 1.415 . S
C676 H652 0.950 . S
C676 C671 1.363 . S
C676 C675 1.415 . S
C677 H653 0.951 . S
C677 C678 1.366 . S
C677 C679 1.388 . S
C678 C677 1.366 . S
C678 C682 1.385 . S
C679 H654 0.951 . S
C679 C677 1.388 . S
C679 C680 1.366 . S
C680 C679 1.366 . S
C680 C681 1.414 . S
C680 C683 1.499 . S
C681 H655 0.950 . S
C681 C680 1.414 . S
C681 C682 1.374 . S
C682 H656 0.950 . S
C682 C678 1.385 . S
C682 C681 1.374 . S
C683 C680 1.499 . S
C683 C684 1.373 . S
C683 C685 1.389 . S
C684 H657 0.950 . S
C684 C670 1.377 . S
C684 C683 1.373 . S
C685 C669 1.377 . S
C685 C683 1.389 . S
C685 C686 1.524 . S
C686 C685 1.524 . S
C686 C687 1.397 . S
C686 C691 1.363 . S
C687 H658 0.950 . S
C687 C686 1.397 . S
C687 C688 1.334 . S
C688 H659 0.950 . S
C688 C687 1.334 . S
C688 C689 1.287 . S
C689 C688 1.287 . S
C689 C690 1.524 . S
C689 H692 0.999 . S
C690 H660 0.950 . S
C690 C689 1.524 . S
C690 C691 1.415 . S
C691 H661 0.950 . S
C691 C686 1.363 . S
C691 C690 1.415 . S
H692 C689 0.999 . S
H693 C674 0.913 . S
H694 C712 0.951 . S
H695 C714 0.951 . S
H696 C716 0.950 . S
H697 C717 0.950 . S
H698 C719 0.950 . S
H699 C722 0.950 . S
H700 C723 0.950 . S
H701 C725 0.950 . S
H702 C726 0.950 . S
H703 C727 0.951 . S
H704 C729 0.951 . S
H705 C731 0.950 1_545 S
H706 C732 0.950 1_545 S
H707 C734 0.950 1_545 S
H708 C737 0.950 . S
H709 C738 0.950 . S
H710 C740 0.950 . S
H711 C741 0.950 . S
C712 H694 0.951 . S
C712 C713 1.366 . S
C712 C714 1.388 . S
C713 C712 1.366 . S
C713 C717 1.385 . S
C714 H695 0.951 . S
C714 C712 1.388 . S
C714 C715 1.366 . S
C715 C714 1.366 . S
C715 C716 1.414 . S
C715 C718 1.499 . S
C716 H696 0.950 . S
C716 C715 1.414 . S
C716 C717 1.374 . S
C717 H697 0.950 . S
C717 C713 1.385 . S
C717 C716 1.374 . S
C718 C715 1.499 . S
C718 C719 1.373 . S
C718 C720 1.389 . S
C719 H698 0.950 . S
C719 C718 1.373 . S
C719 C735 1.377 . S
C720 C718 1.389 . S
C720 C721 1.524 1_565 S
C720 C734 1.377 . S
C721 C720 1.524 1_545 S
C721 C722 1.397 . S
C721 C726 1.363 . S
C722 H699 0.950 . S
C722 C721 1.397 . S
C722 C723 1.334 . S
C723 H700 0.950 . S
C723 C722 1.334 . S
C723 C724 1.287 . S
C724 C723 1.287 . S
C724 C725 1.524 . S
C724 H743 0.913 . S
C725 H701 0.950 . S
C725 C724 1.524 . S
C725 C726 1.415 . S
C726 H702 0.950 . S
C726 C721 1.363 . S
C726 C725 1.415 . S
C727 H703 0.951 . S
C727 C728 1.366 . S
C727 C729 1.388 . S
C728 C727 1.366 . S
C728 C732 1.385 . S
C729 H704 0.951 . S
C729 C727 1.388 . S
C729 C730 1.366 . S
C730 C729 1.366 . S
C730 C731 1.414 . S
C730 C733 1.499 . S
C731 H705 0.950 1_565 S
C731 C730 1.414 . S
C731 C732 1.374 . S
C732 H706 0.950 1_565 S
C732 C728 1.385 . S
C732 C731 1.374 . S
C733 C730 1.499 . S
C733 C734 1.373 . S
C733 C735 1.389 . S
C734 H707 0.950 1_565 S
C734 C720 1.377 . S
C734 C733 1.373 . S
C735 C719 1.377 . S
C735 C733 1.389 . S
C735 C736 1.524 . S
C736 C735 1.524 . S
C736 C737 1.397 . S
C736 C741 1.363 . S
C737 H708 0.950 . S
C737 C736 1.397 . S
C737 C738 1.334 . S
C738 H709 0.950 . S
C738 C737 1.334 . S
C738 C739 1.287 . S
C739 C738 1.287 . S
C739 C740 1.524 . S
C739 H742 0.999 . S
C740 H710 0.950 . S
C740 C739 1.524 . S
C740 C741 1.415 . S
C741 H711 0.950 . S
C741 C736 1.363 . S
C741 C740 1.415 . S
H742 C739 0.999 . S
H743 C724 0.913 . S
H744 C762 0.951 . S
H745 C764 0.951 . S
H746 C766 0.950 . S
H747 C767 0.950 . S
H748 C769 0.950 . S
H749 C772 0.950 . S
H750 C773 0.950 . S
H751 C775 0.950 . S
H752 C776 0.950 . S
H753 C777 0.951 . S
H754 C779 0.951 . S
H755 C781 0.950 . S
H756 C782 0.950 . S
H757 C784 0.950 . S
H758 C787 0.950 . S
H759 C788 0.950 . S
H760 C790 0.950 . S
H761 C791 0.950 . S
C762 H744 0.951 . S
C762 C763 1.366 . S
C762 C764 1.388 . S
C763 C762 1.366 . S
C763 C767 1.385 . S
C764 H745 0.951 . S
C764 C762 1.388 . S
C764 C765 1.366 . S
C765 C764 1.366 . S
C765 C766 1.414 . S
C765 C768 1.499 . S
C766 H746 0.950 . S
C766 C765 1.414 . S
C766 C767 1.374 . S
C767 H747 0.950 . S
C767 C763 1.385 . S
C767 C766 1.374 . S
C768 C765 1.499 . S
C768 C769 1.373 . S
C768 C770 1.389 . S
C769 H748 0.950 . S
C769 C768 1.373 . S
C769 C785 1.377 . S
C770 C768 1.389 . S
C770 C771 1.524 . S
C770 C784 1.377 . S
C771 C770 1.524 . S
C771 C772 1.397 . S
C771 C776 1.363 . S
C772 H749 0.950 . S
C772 C771 1.397 . S
C772 C773 1.334 . S
C773 H750 0.950 . S
C773 C772 1.334 . S
C773 C774 1.287 . S
C774 C773 1.287 . S
C774 C775 1.524 . S
C774 H793 0.913 . S
C775 H751 0.950 . S
C775 C774 1.524 . S
C775 C776 1.415 . S
C776 H752 0.950 . S
C776 C771 1.363 . S
C776 C775 1.415 . S
C777 H753 0.951 . S
C777 C778 1.366 . S
C777 C779 1.388 . S
C778 C777 1.366 . S
C778 C782 1.385 . S
C779 H754 0.951 . S
C779 C777 1.388 . S
C779 C780 1.366 . S
C780 C779 1.366 . S
C780 C781 1.414 . S
C780 C783 1.499 . S
C781 H755 0.950 . S
C781 C780 1.414 . S
C781 C782 1.374 . S
C782 H756 0.950 . S
C782 C778 1.385 . S
C782 C781 1.374 . S
C783 C780 1.499 . S
C783 C784 1.373 . S
C783 C785 1.389 . S
C784 H757 0.950 . S
C784 C770 1.377 . S
C784 C783 1.373 . S
C785 C769 1.377 . S
C785 C783 1.389 . S
C785 C786 1.524 . S
C786 C785 1.524 . S
C786 C787 1.397 . S
C786 C791 1.363 . S
C787 H758 0.950 . S
C787 C786 1.397 . S
C787 C788 1.334 . S
C788 H759 0.950 . S
C788 C787 1.334 . S
C788 C789 1.287 . S
C789 C788 1.287 . S
C789 C790 1.524 . S
C789 H792 0.999 . S
C790 H760 0.950 . S
C790 C789 1.524 . S
C790 C791 1.415 . S
C791 H761 0.950 . S
C791 C786 1.363 . S
C791 C790 1.415 . S
H792 C789 0.999 . S
H793 C774 0.913 . S
H794 C812 0.951 . S
H795 C814 0.951 . S
H796 C816 0.950 . S
H797 C817 0.950 . S
H798 C819 0.950 . S
H799 C822 0.950 . S
H800 C823 0.950 . S
H801 C825 0.950 . S
H802 C826 0.950 . S
H803 C827 0.951 . S
H804 C829 0.951 . S
H805 C831 0.950 . S
H806 C832 0.950 . S
H807 C834 0.950 . S
H808 C837 0.950 . S
H809 C838 0.950 . S
H810 C840 0.950 . S
H811 C841 0.950 . S
C812 H794 0.951 . S
C812 C813 1.366 . S
C812 C814 1.388 . S
C813 C812 1.366 . S
C813 C817 1.385 . S
C814 H795 0.951 . S
C814 C812 1.388 . S
C814 C815 1.366 . S
C815 C814 1.366 . S
C815 C816 1.414 . S
C815 C818 1.499 . S
C816 H796 0.950 . S
C816 C815 1.414 . S
C816 C817 1.374 . S
C817 H797 0.950 . S
C817 C813 1.385 . S
C817 C816 1.374 . S
C818 C815 1.499 . S
C818 C819 1.373 . S
C818 C820 1.389 . S
C819 H798 0.950 . S
C819 C818 1.373 . S
C819 C835 1.377 . S
C820 C818 1.389 . S
C820 C821 1.524 . S
C820 C834 1.377 . S
C821 C820 1.524 . S
C821 C822 1.397 . S
C821 C826 1.363 . S
C822 H799 0.950 . S
C822 C821 1.397 . S
C822 C823 1.334 . S
C823 H800 0.950 . S
C823 C822 1.334 . S
C823 C824 1.287 . S
C824 C823 1.287 . S
C824 C825 1.524 . S
C824 H843 0.913 . S
C825 H801 0.950 . S
C825 C824 1.524 . S
C825 C826 1.415 . S
C826 H802 0.950 . S
C826 C821 1.363 . S
C826 C825 1.415 . S
C827 H803 0.951 . S
C827 C828 1.366 . S
C827 C829 1.388 . S
C828 C827 1.366 . S
C828 C832 1.385 . S
C829 H804 0.951 . S
C829 C827 1.388 . S
C829 C830 1.366 . S
C830 C829 1.366 . S
C830 C831 1.414 . S
C830 C833 1.499 . S
C831 H805 0.950 . S
C831 C830 1.414 . S
C831 C832 1.374 . S
C832 H806 0.950 . S
C832 C828 1.385 . S
C832 C831 1.374 . S
C833 C830 1.499 . S
C833 C834 1.373 . S
C833 C835 1.389 . S
C834 H807 0.950 . S
C834 C820 1.377 . S
C834 C833 1.373 . S
C835 C819 1.377 . S
C835 C833 1.389 . S
C835 C836 1.524 . S
C836 C835 1.524 . S
C836 C837 1.397 . S
C836 C841 1.363 . S
C837 H808 0.950 . S
C837 C836 1.397 . S
C837 C838 1.334 . S
C838 H809 0.950 . S
C838 C837 1.334 . S
C838 C839 1.287 . S
C839 C838 1.287 . S
C839 C840 1.524 . S
C839 H842 0.999 . S
C840 H810 0.950 . S
C840 C839 1.524 . S
C840 C841 1.415 . S
C841 H811 0.950 . S
C841 C836 1.363 . S
C841 C840 1.415 . S
H842 C839 0.999 . S
H843 C824 0.913 . S
H844 C862 0.951 . S
H845 C864 0.951 . S
H846 C866 0.950 . S
H847 C867 0.950 . S
H848 C869 0.950 . S
H849 C872 0.950 . S
H850 C873 0.950 . S
H851 C875 0.950 . S
H852 C876 0.950 . S
H853 C877 0.951 . S
H854 C879 0.951 . S
H855 C881 0.950 . S
H856 C882 0.950 . S
H857 C884 0.950 . S
H858 C887 0.950 . S
H859 C888 0.950 . S
H860 C890 0.950 . S
H861 C891 0.950 . S
C862 H844 0.951 . S
C862 C863 1.366 . S
C862 C864 1.388 . S
C863 C862 1.366 . S
C863 C867 1.385 . S
C864 H845 0.951 . S
C864 C862 1.388 . S
C864 C865 1.366 . S
C865 C864 1.366 . S
C865 C866 1.414 . S
C865 C868 1.499 . S
C866 H846 0.950 . S
C866 C865 1.414 . S
C866 C867 1.374 . S
C867 H847 0.950 . S
C867 C863 1.385 . S
C867 C866 1.374 . S
C868 C865 1.499 . S
C868 C869 1.373 . S
C868 C870 1.389 . S
C869 H848 0.950 . S
C869 C868 1.373 . S
C869 C885 1.377 . S
C870 C868 1.389 . S
C870 C871 1.524 . S
C870 C884 1.377 . S
C871 C870 1.524 . S
C871 C872 1.397 . S
C871 C876 1.363 . S
C872 H849 0.950 . S
C872 C871 1.397 . S
C872 C873 1.334 . S
C873 H850 0.950 . S
C873 C872 1.334 . S
C873 C874 1.287 . S
C874 C873 1.287 . S
C874 C875 1.524 . S
C874 H893 0.913 . S
C875 H851 0.950 . S
C875 C874 1.524 . S
C875 C876 1.415 . S
C876 H852 0.950 . S
C876 C871 1.363 . S
C876 C875 1.415 . S
C877 H853 0.951 . S
C877 C878 1.366 . S
C877 C879 1.388 . S
C878 C877 1.366 . S
C878 C882 1.385 . S
C879 H854 0.951 . S
C879 C877 1.388 . S
C879 C880 1.366 . S
C880 C879 1.366 . S
C880 C881 1.414 . S
C880 C883 1.499 . S
C881 H855 0.950 . S
C881 C880 1.414 . S
C881 C882 1.374 . S
C882 H856 0.950 . S
C882 C878 1.385 . S
C882 C881 1.374 . S
C883 C880 1.499 . S
C883 C884 1.373 . S
C883 C885 1.389 . S
C884 H857 0.950 . S
C884 C870 1.377 . S
C884 C883 1.373 . S
C885 C869 1.377 . S
C885 C883 1.389 . S
C885 C886 1.524 . S
C886 C885 1.524 . S
C886 C887 1.397 . S
C886 C891 1.363 . S
C887 H858 0.950 . S
C887 C886 1.397 . S
C887 C888 1.334 . S
C888 H859 0.950 . S
C888 C887 1.334 . S
C888 C889 1.287 . S
C889 C888 1.287 . S
C889 C890 1.524 . S
C889 H892 0.999 . S
C890 H860 0.950 . S
C890 C889 1.524 . S
C890 C891 1.415 . S
C891 H861 0.950 . S
C891 C886 1.363 . S
C891 C890 1.415 . S
H892 C889 0.999 . S
H893 C874 0.913 . S
H894 C912 0.951 . S
H895 C914 0.951 . S
H896 C916 0.950 . S
H897 C917 0.950 . S
H898 C919 0.950 . S
H899 C922 0.950 . S
H900 C923 0.950 . S
H901 C925 0.950 . S
H902 C926 0.950 . S
H903 C927 0.951 . S
H904 C929 0.951 . S
H905 C931 0.950 . S
H906 C932 0.950 . S
H907 C934 0.950 . S
H908 C937 0.950 . S
H909 C938 0.950 . S
H910 C940 0.950 . S
H911 C941 0.950 . S
C912 H894 0.951 . S
C912 C913 1.366 . S
C912 C914 1.388 . S
C913 C912 1.366 . S
C913 C917 1.385 . S
C914 H895 0.951 . S
C914 C912 1.388 . S
C914 C915 1.366 . S
C915 C914 1.366 . S
C915 C916 1.414 . S
C915 C918 1.499 . S
C916 H896 0.950 . S
C916 C915 1.414 . S
C916 C917 1.374 . S
C917 H897 0.950 . S
C917 C913 1.385 . S
C917 C916 1.374 . S
C918 C915 1.499 . S
C918 C919 1.373 . S
C918 C920 1.389 . S
C919 H898 0.950 . S
C919 C918 1.373 . S
C919 C935 1.377 . S
C920 C918 1.389 . S
C920 C921 1.524 . S
C920 C934 1.377 . S
C921 C920 1.524 . S
C921 C922 1.397 . S
C921 C926 1.363 . S
C922 H899 0.950 . S
C922 C921 1.397 . S
C922 C923 1.334 . S
C923 H900 0.950 . S
C923 C922 1.334 . S
C923 C924 1.287 . S
C924 C923 1.287 . S
C924 C925 1.524 . S
C924 H943 0.913 . S
C925 H901 0.950 . S
C925 C924 1.524 . S
C925 C926 1.415 . S
C926 H902 0.950 . S
C926 C921 1.363 . S
C926 C925 1.415 . S
C927 H903 0.951 . S
C927 C928 1.366 . S
C927 C929 1.388 . S
C928 C927 1.366 . S
C928 C932 1.385 . S
C929 H904 0.951 . S
C929 C927 1.388 . S
C929 C930 1.366 . S
C930 C929 1.366 . S
C930 C931 1.414 . S
C930 C933 1.499 . S
C931 H905 0.950 . S
C931 C930 1.414 . S
C931 C932 1.374 . S
C932 H906 0.950 . S
C932 C928 1.385 . S
C932 C931 1.374 . S
C933 C930 1.499 . S
C933 C934 1.373 . S
C933 C935 1.389 . S
C934 H907 0.950 . S
C934 C920 1.377 . S
C934 C933 1.373 . S
C935 C919 1.377 . S
C935 C933 1.389 . S
C935 C936 1.524 . S
C936 C935 1.524 . S
C936 C937 1.397 . S
C936 C941 1.363 . S
C937 H908 0.950 . S
C937 C936 1.397 . S
C937 C938 1.334 . S
C938 H909 0.950 . S
C938 C937 1.334 . S
C938 C939 1.287 . S
C939 C938 1.287 . S
C939 C940 1.524 . S
C939 H942 0.999 . S
C940 H910 0.950 . S
C940 C939 1.524 . S
C940 C941 1.415 . S
C941 H911 0.950 . S
C941 C936 1.363 . S
C941 C940 1.415 . S
H942 C939 0.999 . S
H943 C924 0.913 . S
H944 C962 0.951 . S
H945 C964 0.951 . S
H946 C966 0.950 . S
H947 C967 0.950 . S
H948 C969 0.950 . S
H949 C972 0.950 . S
H950 C973 0.950 . S
H951 C975 0.950 . S
H952 C976 0.950 . S
H953 C977 0.951 . S
H954 C979 0.951 . S
H955 C981 0.950 . S
H956 C982 0.950 . S
H957 C984 0.950 . S
H958 C987 0.950 . S
H959 C988 0.950 . S
H960 C990 0.950 . S
H961 C991 0.950 . S
C962 H944 0.951 . S
C962 C963 1.366 . S
C962 C964 1.388 . S
C963 C962 1.366 . S
C963 C967 1.385 . S
C964 H945 0.951 . S
C964 C962 1.388 . S
C964 C965 1.366 . S
C965 C964 1.366 . S
C965 C966 1.414 . S
C965 C968 1.499 . S
C966 H946 0.950 . S
C966 C965 1.414 . S
C966 C967 1.374 . S
C967 H947 0.950 . S
C967 C963 1.385 . S
C967 C966 1.374 . S
C968 C965 1.499 . S
C968 C969 1.373 . S
C968 C970 1.389 . S
C969 H948 0.950 . S
C969 C968 1.373 . S
C969 C985 1.377 . S
C970 C968 1.389 . S
C970 C971 1.524 . S
C970 C984 1.377 . S
C971 C970 1.524 . S
C971 C972 1.397 . S
C971 C976 1.363 . S
C972 H949 0.950 . S
C972 C971 1.397 . S
C972 C973 1.334 . S
C973 H950 0.950 . S
C973 C972 1.334 . S
C973 C974 1.287 . S
C974 C973 1.287 . S
C974 C975 1.524 . S
C974 H993 0.913 . S
C975 H951 0.950 . S
C975 C974 1.524 . S
C975 C976 1.415 . S
C976 H952 0.950 . S
C976 C971 1.363 . S
C976 C975 1.415 . S
C977 H953 0.951 . S
C977 C978 1.366 . S
C977 C979 1.388 . S
C978 C977 1.366 . S
C978 C982 1.385 . S
C979 H954 0.951 . S
C979 C977 1.388 . S
C979 C980 1.366 . S
C980 C979 1.366 . S
C980 C981 1.414 . S
C980 C983 1.499 . S
C981 H955 0.950 . S
C981 C980 1.414 . S
C981 C982 1.374 . S
C982 H956 0.950 . S
C982 C978 1.385 . S
C982 C981 1.374 . S
C983 C980 1.499 . S
C983 C984 1.373 . S
C983 C985 1.389 . S
C984 H957 0.950 . S
C984 C970 1.377 . S
C984 C983 1.373 . S
C985 C969 1.377 . S
C985 C983 1.389 . S
C985 C986 1.524 . S
C986 C985 1.524 . S
C986 C987 1.397 . S
C986 C991 1.363 . S
C987 H958 0.950 . S
C987 C986 1.397 . S
C987 C988 1.334 . S
C988 H959 0.950 . S
C988 C987 1.334 . S
C988 C989 1.287 . S
C989 C988 1.287 . S
C989 C990 1.524 . S
C989 H992 0.999 . S
C990 H960 0.950 . S
C990 C989 1.524 . S
C990 C991 1.415 . S
C991 H961 0.950 . S
C991 C986 1.363 . S
C991 C990 1.415 . S
H992 C989 0.999 . S
H993 C974 0.913 . S
H994 C1012 0.951 . S
H995 C1014 0.951 . S
H996 C1016 0.950 . S
H997 C1017 0.950 . S
H998 C1019 0.950 . S
H999 C1022 0.950 . S
H1000 C1023 0.950 . S
H1001 C1025 0.950 . S
H1002 C1026 0.950 . S
H1003 C1027 0.951 . S
H1004 C1029 0.951 . S
H1005 C1031 0.950 . S
H1006 C1032 0.950 . S
H1007 C1034 0.950 . S
H1008 C1037 0.950 . S
H1009 C1038 0.949 1_455 S
H1010 C1040 0.950 . S
H1011 C1041 0.950 . S
C1012 H994 0.951 . S
C1012 C1013 1.366 . S
C1012 C1014 1.388 . S
C1013 C1012 1.366 . S
C1013 C1017 1.385 . S
C1014 H995 0.951 . S
C1014 C1012 1.388 . S
C1014 C1015 1.366 . S
C1015 C1014 1.366 . S
C1015 C1016 1.414 . S
C1015 C1018 1.499 . S
C1016 H996 0.950 . S
C1016 C1015 1.414 . S
C1016 C1017 1.374 . S
C1017 H997 0.950 . S
C1017 C1013 1.385 . S
C1017 C1016 1.374 . S
C1018 C1015 1.499 . S
C1018 C1019 1.373 . S
C1018 C1020 1.389 . S
C1019 H998 0.950 . S
C1019 C1018 1.373 . S
C1019 C1035 1.377 . S
C1020 C1018 1.389 . S
C1020 C1021 1.524 . S
C1020 C1034 1.377 . S
C1021 C1020 1.524 . S
C1021 C1022 1.397 . S
C1021 C1026 1.363 . S
C1022 H999 0.950 . S
C1022 C1021 1.397 . S
C1022 C1023 1.334 . S
C1023 H1000 0.950 . S
C1023 C1022 1.334 . S
C1023 C1024 1.287 . S
C1024 C1023 1.287 . S
C1024 C1025 1.524 . S
C1024 H1043 0.913 . S
C1025 H1001 0.950 . S
C1025 C1024 1.524 . S
C1025 C1026 1.415 . S
C1026 H1002 0.950 . S
C1026 C1021 1.363 . S
C1026 C1025 1.415 . S
C1027 H1003 0.951 . S
C1027 C1028 1.366 . S
C1027 C1029 1.388 . S
C1028 C1027 1.366 . S
C1028 C1032 1.385 . S
C1029 H1004 0.951 . S
C1029 C1027 1.388 . S
C1029 C1030 1.366 . S
C1030 C1029 1.366 . S
C1030 C1031 1.414 . S
C1030 C1033 1.499 . S
C1031 H1005 0.950 . S
C1031 C1030 1.414 . S
C1031 C1032 1.374 . S
C1032 H1006 0.950 . S
C1032 C1028 1.385 . S
C1032 C1031 1.374 . S
C1033 C1030 1.499 . S
C1033 C1034 1.373 . S
C1033 C1035 1.389 . S
C1034 H1007 0.950 . S
C1034 C1020 1.377 . S
C1034 C1033 1.373 . S
C1035 C1019 1.377 . S
C1035 C1033 1.389 . S
C1035 C1036 1.524 . S
C1036 C1035 1.524 . S
C1036 C1037 1.397 . S
C1036 C1041 1.363 1_455 S
C1037 H1008 0.950 . S
C1037 C1036 1.397 . S
C1037 C1038 1.299 1_455 S
C1038 H1009 0.949 1_655 S
C1038 C1037 1.299 1_655 S
C1038 C1039 1.324 . S
C1039 C1038 1.324 . S
C1039 C1040 1.524 . S
C1039 H1042 0.999 . S
C1040 H1010 0.950 . S
C1040 C1039 1.524 . S
C1040 C1041 1.415 . S
C1041 H1011 0.950 . S
C1041 C1036 1.363 1_655 S
C1041 C1040 1.415 . S
H1042 C1039 0.999 . S
H1043 C1024 0.913 . S
H1044 C1062 0.951 . S
H1045 C1064 0.951 . S
H1046 C1066 0.950 . S
H1047 C1067 0.950 . S
H1048 C1069 0.950 . S
H1049 C1072 0.950 . S
H1050 C1073 0.950 . S
H1051 C1075 0.950 . S
H1052 C1076 0.950 . S
H1053 C1077 0.951 . S
H1054 C1079 0.951 . S
H1055 C1081 0.950 . S
H1056 C1082 0.950 . S
H1057 C1084 0.950 . S
H1058 C1087 0.950 . S
H1059 C1088 0.950 . S
H1060 C1090 0.950 . S
H1061 C1091 0.950 . S
C1062 H1044 0.951 . S
C1062 C1063 1.366 . S
C1062 C1064 1.388 . S
C1063 C1062 1.366 . S
C1063 C1067 1.385 . S
C1064 H1045 0.951 . S
C1064 C1062 1.388 . S
C1064 C1065 1.366 . S
C1065 C1064 1.366 . S
C1065 C1066 1.414 . S
C1065 C1068 1.499 . S
C1066 H1046 0.950 . S
C1066 C1065 1.414 . S
C1066 C1067 1.374 . S
C1067 H1047 0.950 . S
C1067 C1063 1.385 . S
C1067 C1066 1.374 . S
C1068 C1065 1.499 . S
C1068 C1069 1.373 . S
C1068 C1070 1.389 . S
C1069 H1048 0.950 . S
C1069 C1068 1.373 . S
C1069 C1085 1.377 . S
C1070 C1068 1.389 . S
C1070 C1071 1.524 . S
C1070 C1084 1.377 . S
C1071 C1070 1.524 . S
C1071 C1072 1.397 . S
C1071 C1076 1.363 . S
C1072 H1049 0.950 . S
C1072 C1071 1.397 . S
C1072 C1073 1.334 . S
C1073 H1050 0.950 . S
C1073 C1072 1.334 . S
C1073 C1074 1.287 . S
C1074 C1073 1.287 . S
C1074 C1075 1.524 . S
C1074 H1093 0.913 . S
C1075 H1051 0.950 . S
C1075 C1074 1.524 . S
C1075 C1076 1.415 . S
C1076 H1052 0.950 . S
C1076 C1071 1.363 . S
C1076 C1075 1.415 . S
C1077 H1053 0.951 . S
C1077 C1078 1.366 . S
C1077 C1079 1.388 . S
C1078 C1077 1.366 . S
C1078 C1082 1.385 . S
C1079 H1054 0.951 . S
C1079 C1077 1.388 . S
C1079 C1080 1.366 . S
C1080 C1079 1.366 . S
C1080 C1081 1.414 . S
C1080 C1083 1.499 . S
C1081 H1055 0.950 . S
C1081 C1080 1.414 . S
C1081 C1082 1.374 . S
C1082 H1056 0.950 . S
C1082 C1078 1.385 . S
C1082 C1081 1.374 . S
C1083 C1080 1.499 . S
C1083 C1084 1.373 . S
C1083 C1085 1.389 . S
C1084 H1057 0.950 . S
C1084 C1070 1.377 . S
C1084 C1083 1.373 . S
C1085 C1069 1.377 . S
C1085 C1083 1.389 . S
C1085 C1086 1.524 . S
C1086 C1085 1.524 . S
C1086 C1087 1.397 . S
C1086 C1091 1.363 . S
C1087 H1058 0.950 . S
C1087 C1086 1.397 . S
C1087 C1088 1.334 . S
C1088 H1059 0.950 . S
C1088 C1087 1.334 . S
C1088 C1089 1.287 . S
C1089 C1088 1.287 . S
C1089 C1090 1.524 . S
C1089 H1092 0.999 . S
C1090 H1060 0.950 . S
C1090 C1089 1.524 . S
C1090 C1091 1.415 . S
C1091 H1061 0.950 . S
C1091 C1086 1.363 . S
C1091 C1090 1.415 . S
H1092 C1089 0.999 . S
H1093 C1074 0.913 . S
H1094 C1112 0.951 . S
H1095 C1114 0.951 . S
H1096 C1116 0.950 . S
H1097 C1117 0.950 . S
H1098 C1119 0.950 . S
H1099 C1122 0.950 . S
H1100 C1123 0.950 . S
H1101 C1125 0.950 . S
H1102 C1126 0.950 . S
H1103 C1127 0.951 . S
H1104 C1129 0.951 . S
H1105 C1131 0.950 . S
H1106 C1132 0.950 . S
H1107 C1134 0.950 . S
H1108 C1137 0.950 . S
H1109 C1138 0.950 . S
H1110 C1140 0.950 . S
H1111 C1141 0.950 . S
C1112 H1094 0.951 . S
C1112 C1113 1.366 . S
C1112 C1114 1.388 . S
C1113 C1112 1.366 . S
C1113 C1117 1.385 . S
C1114 H1095 0.951 . S
C1114 C1112 1.388 . S
C1114 C1115 1.366 . S
C1115 C1114 1.366 . S
C1115 C1116 1.414 . S
C1115 C1118 1.499 . S
C1116 H1096 0.950 . S
C1116 C1115 1.414 . S
C1116 C1117 1.374 . S
C1117 H1097 0.950 . S
C1117 C1113 1.385 . S
C1117 C1116 1.374 . S
C1118 C1115 1.499 . S
C1118 C1119 1.373 . S
C1118 C1120 1.389 1_655 S
C1119 H1098 0.950 . S
C1119 C1118 1.373 . S
C1119 C1135 1.377 . S
C1120 C1118 1.389 1_455 S
C1120 C1121 1.524 . S
C1120 C1134 1.377 . S
C1121 C1120 1.524 . S
C1121 C1122 1.397 . S
C1121 C1126 1.363 . S
C1122 H1099 0.950 . S
C1122 C1121 1.397 . S
C1122 C1123 1.334 . S
C1123 H1100 0.950 . S
C1123 C1122 1.334 . S
C1123 C1124 1.287 . S
C1124 C1123 1.287 . S
C1124 C1125 1.524 . S
C1124 H1143 0.913 . S
C1125 H1101 0.950 . S
C1125 C1124 1.524 . S
C1125 C1126 1.415 . S
C1126 H1102 0.950 . S
C1126 C1121 1.363 . S
C1126 C1125 1.415 . S
C1127 H1103 0.951 . S
C1127 C1128 1.366 1_655 S
C1127 C1129 1.388 . S
C1128 C1127 1.366 1_455 S
C1128 C1132 1.385 . S
C1129 H1104 0.951 . S
C1129 C1127 1.388 . S
C1129 C1130 1.366 . S
C1130 C1129 1.366 . S
C1130 C1131 1.414 1_655 S
C1130 C1133 1.499 . S
C1131 H1105 0.950 . S
C1131 C1130 1.414 1_455 S
C1131 C1132 1.374 . S
C1132 H1106 0.950 . S
C1132 C1128 1.385 . S
C1132 C1131 1.374 . S
C1133 C1130 1.499 . S
C1133 C1134 1.373 1_655 S
C1133 C1135 1.389 . S
C1134 H1107 0.950 . S
C1134 C1120 1.377 . S
C1134 C1133 1.373 1_455 S
C1135 C1119 1.377 . S
C1135 C1133 1.389 . S
C1135 C1136 1.524 . S
C1136 C1135 1.524 . S
C1136 C1137 1.397 . S
C1136 C1141 1.363 . S
C1137 H1108 0.950 . S
C1137 C1136 1.397 . S
C1137 C1138 1.334 . S
C1138 H1109 0.950 . S
C1138 C1137 1.334 . S
C1138 C1139 1.287 . S
C1139 C1138 1.287 . S
C1139 C1140 1.524 . S
C1139 H1142 0.999 . S
C1140 H1110 0.950 . S
C1140 C1139 1.524 . S
C1140 C1141 1.415 . S
C1141 H1111 0.950 . S
C1141 C1136 1.363 . S
C1141 C1140 1.415 . S
H1142 C1139 0.999 . S
H1143 C1124 0.913 . S
H1144 C1162 0.951 . S
H1145 C1164 0.951 . S
H1146 C1166 0.950 . S
H1147 C1167 0.950 . S
H1148 C1169 0.950 . S
H1149 C1172 0.950 . S
H1150 C1173 0.950 . S
H1151 C1175 0.950 . S
H1152 C1176 0.950 . S
H1153 C1177 0.951 . S
H1154 C1179 0.951 . S
H1155 C1181 0.950 . S
H1156 C1182 0.950 . S
H1157 C1184 0.950 . S
H1158 C1187 0.950 . S
H1159 C1188 0.950 . S
H1160 C1190 0.950 . S
H1161 C1191 0.950 . S
C1162 H1144 0.951 . S
C1162 C1163 1.366 . S
C1162 C1164 1.388 . S
C1163 C1162 1.366 . S
C1163 C1167 1.385 . S
C1164 H1145 0.951 . S
C1164 C1162 1.388 . S
C1164 C1165 1.366 . S
C1165 C1164 1.366 . S
C1165 C1166 1.414 . S
C1165 C1168 1.499 . S
C1166 H1146 0.950 . S
C1166 C1165 1.414 . S
C1166 C1167 1.374 . S
C1167 H1147 0.950 . S
C1167 C1163 1.385 . S
C1167 C1166 1.374 . S
C1168 C1165 1.499 . S
C1168 C1169 1.373 . S
C1168 C1170 1.389 . S
C1169 H1148 0.950 . S
C1169 C1168 1.373 . S
C1169 C1185 1.377 . S
C1170 C1168 1.389 . S
C1170 C1171 1.524 . S
C1170 C1184 1.377 . S
C1171 C1170 1.524 . S
C1171 C1172 1.397 . S
C1171 C1176 1.363 . S
C1172 H1149 0.950 . S
C1172 C1171 1.397 . S
C1172 C1173 1.334 . S
C1173 H1150 0.950 . S
C1173 C1172 1.334 . S
C1173 C1174 1.287 . S
C1174 C1173 1.287 . S
C1174 C1175 1.524 . S
C1174 H1193 0.913 . S
C1175 H1151 0.950 . S
C1175 C1174 1.524 . S
C1175 C1176 1.415 . S
C1176 H1152 0.950 . S
C1176 C1171 1.363 . S
C1176 C1175 1.415 . S
C1177 H1153 0.951 . S
C1177 C1178 1.366 . S
C1177 C1179 1.388 . S
C1178 C1177 1.366 . S
C1178 C1182 1.385 . S
C1179 H1154 0.951 . S
C1179 C1177 1.388 . S
C1179 C1180 1.366 . S
C1180 C1179 1.366 . S
C1180 C1181 1.414 . S
C1180 C1183 1.499 . S
C1181 H1155 0.950 . S
C1181 C1180 1.414 . S
C1181 C1182 1.374 . S
C1182 H1156 0.950 . S
C1182 C1178 1.385 . S
C1182 C1181 1.374 . S
C1183 C1180 1.499 . S
C1183 C1184 1.373 . S
C1183 C1185 1.389 . S
C1184 H1157 0.950 . S
C1184 C1170 1.377 . S
C1184 C1183 1.373 . S
C1185 C1169 1.377 . S
C1185 C1183 1.389 . S
C1185 C1186 1.524 . S
C1186 C1185 1.524 . S
C1186 C1187 1.397 . S
C1186 C1191 1.363 . S
C1187 H1158 0.950 . S
C1187 C1186 1.397 . S
C1187 C1188 1.334 . S
C1188 H1159 0.950 . S
C1188 C1187 1.334 . S
C1188 C1189 1.287 . S
C1189 C1188 1.287 . S
C1189 C1190 1.524 . S
C1189 H1192 0.999 . S
C1190 H1160 0.950 . S
C1190 C1189 1.524 . S
C1190 C1191 1.415 . S
C1191 H1161 0.950 . S
C1191 C1186 1.363 . S
C1191 C1190 1.415 . S
H1192 C1189 0.999 . S
H1193 C1174 0.913 . S
H1194 C1212 0.951 . S
H1195 C1214 0.951 . S
H1196 C1216 0.950 . S
H1197 C1217 0.950 . S
H1198 C1219 0.950 . S
H1199 C1222 0.950 . S
H1200 C1223 0.950 . S
H1201 C1225 0.950 . S
H1202 C1226 0.950 . S
H1203 C1227 0.951 . S
H1204 C1229 0.951 . S
H1205 C1231 0.950 . S
H1206 C1232 0.950 . S
H1207 C1234 0.950 . S
H1208 C1237 0.950 . S
H1209 C1238 0.950 . S
H1210 C1240 0.950 . S
H1211 C1241 0.950 . S
C1212 H1194 0.951 . S
C1212 C1213 1.366 . S
C1212 C1214 1.388 . S
C1213 C1212 1.366 . S
C1213 C1217 1.385 . S
C1214 H1195 0.951 . S
C1214 C1212 1.388 . S
C1214 C1215 1.366 . S
C1215 C1214 1.366 . S
C1215 C1216 1.414 . S
C1215 C1218 1.499 . S
C1216 H1196 0.950 . S
C1216 C1215 1.414 . S
C1216 C1217 1.374 . S
C1217 H1197 0.950 . S
C1217 C1213 1.385 . S
C1217 C1216 1.374 . S
C1218 C1215 1.499 . S
C1218 C1219 1.373 . S
C1218 C1220 1.389 . S
C1219 H1198 0.950 . S
C1219 C1218 1.373 . S
C1219 C1235 1.377 . S
C1220 C1218 1.389 . S
C1220 C1221 1.524 . S
C1220 C1234 1.377 . S
C1221 C1220 1.524 . S
C1221 C1222 1.397 . S
C1221 C1226 1.363 . S
C1222 H1199 0.950 . S
C1222 C1221 1.397 . S
C1222 C1223 1.334 . S
C1223 H1200 0.950 . S
C1223 C1222 1.334 . S
C1223 C1224 1.287 . S
C1224 C1223 1.287 . S
C1224 C1225 1.524 . S
C1224 H1243 0.913 . S
C1225 H1201 0.950 . S
C1225 C1224 1.524 . S
C1225 C1226 1.415 . S
C1226 H1202 0.950 . S
C1226 C1221 1.363 . S
C1226 C1225 1.415 . S
C1227 H1203 0.951 . S
C1227 C1228 1.366 . S
C1227 C1229 1.388 . S
C1228 C1227 1.366 . S
C1228 C1232 1.385 . S
C1229 H1204 0.951 . S
C1229 C1227 1.388 . S
C1229 C1230 1.366 . S
C1230 C1229 1.366 . S
C1230 C1231 1.414 . S
C1230 C1233 1.499 . S
C1231 H1205 0.950 . S
C1231 C1230 1.414 . S
C1231 C1232 1.374 . S
C1232 H1206 0.950 . S
C1232 C1228 1.385 . S
C1232 C1231 1.374 . S
C1233 C1230 1.499 . S
C1233 C1234 1.373 . S
C1233 C1235 1.389 . S
C1234 H1207 0.950 . S
C1234 C1220 1.377 . S
C1234 C1233 1.373 . S
C1235 C1219 1.377 . S
C1235 C1233 1.389 . S
C1235 C1236 1.524 . S
C1236 C1235 1.524 . S
C1236 C1237 1.397 . S
C1236 C1241 1.363 . S
C1237 H1208 0.950 . S
C1237 C1236 1.397 . S
C1237 C1238 1.334 . S
C1238 H1209 0.950 . S
C1238 C1237 1.334 . S
C1238 C1239 1.287 . S
C1239 C1238 1.287 . S
C1239 C1240 1.524 . S
C1239 H1242 0.999 . S
C1240 H1210 0.950 . S
C1240 C1239 1.524 . S
C1240 C1241 1.415 . S
C1241 H1211 0.950 . S
C1241 C1236 1.363 . S
C1241 C1240 1.415 . S
H1242 C1239 0.999 . S
H1243 C1224 0.913 . S
H1244 C1262 0.951 . S
H1245 C1264 0.951 . S
H1246 C1266 0.950 . S
H1247 C1267 0.950 . S
H1248 C1269 0.931 1_544 S
H1249 C1272 0.950 1_545 S
H1250 C1273 0.950 1_545 S
H1251 C1275 0.950 . S
H1252 C1276 0.950 . S
H1253 C1277 0.951 . S
H1254 C1279 0.951 . S
H1255 C1281 0.950 . S
H1256 C1282 0.950 1_556 S
H1257 C1284 0.950 . S
H1258 C1287 0.950 . S
H1259 C1288 0.950 . S
H1260 C1290 0.950 1_545 S
H1261 C1291 0.950 1_545 S
C1262 H1244 0.951 . S
C1262 C1263 1.366 . S
C1262 C1264 1.388 1_545 S
C1263 C1262 1.366 . S
C1263 C1267 1.385 . S
C1264 H1245 0.951 . S
C1264 C1262 1.388 1_565 S
C1264 C1265 1.366 1_565 S
C1265 C1264 1.366 1_545 S
C1265 C1266 1.414 . S
C1265 C1268 1.499 1_545 S
C1266 H1246 0.950 . S
C1266 C1265 1.414 . S
C1266 C1267 1.374 . S
C1267 H1247 0.950 . S
C1267 C1263 1.385 . S
C1267 C1266 1.374 . S
C1268 C1265 1.499 1_565 S
C1268 C1269 1.414 . S
C1268 C1270 1.389 . S
C1269 H1248 0.931 1_566 S
C1269 C1268 1.414 . S
C1269 C1285 1.356 1_556 S
C1270 C1268 1.389 . S
C1270 C1271 1.524 . S
C1270 C1284 1.377 . S
C1271 C1270 1.524 . S
C1271 C1272 1.397 . S
C1271 C1276 1.363 . S
C1272 H1249 0.950 1_565 S
C1272 C1271 1.397 . S
C1272 C1273 1.334 . S
C1273 H1250 0.950 1_565 S
C1273 C1272 1.334 . S
C1273 C1274 1.287 . S
C1274 C1273 1.287 . S
C1274 C1275 1.524 . S
C1274 H1293 0.913 . S
C1275 H1251 0.950 . S
C1275 C1274 1.524 . S
C1275 C1276 1.415 . S
C1276 H1252 0.950 . S
C1276 C1271 1.363 . S
C1276 C1275 1.415 . S
C1277 H1253 0.951 . S
C1277 C1278 1.366 . S
C1277 C1279 1.388 . S
C1278 C1277 1.366 . S
C1278 C1282 1.385 . S
C1279 H1254 0.951 . S
C1279 C1277 1.388 . S
C1279 C1280 1.366 . S
C1280 C1279 1.366 . S
C1280 C1281 1.414 1_554 S
C1280 C1283 1.499 1_554 S
C1281 H1255 0.950 . S
C1281 C1280 1.414 1_556 S
C1281 C1282 1.374 1_556 S
C1282 H1256 0.950 1_554 S
C1282 C1278 1.385 . S
C1282 C1281 1.374 1_554 S
C1283 C1280 1.499 1_556 S
C1283 C1284 1.373 . S
C1283 C1285 1.389 1_556 S
C1284 H1257 0.950 . S
C1284 C1270 1.377 . S
C1284 C1283 1.373 . S
C1285 C1269 1.356 1_554 S
C1285 C1283 1.389 1_554 S
C1285 C1286 1.524 . S
C1286 C1285 1.524 . S
C1286 C1287 1.397 . S
C1286 C1291 1.363 . S
C1287 H1258 0.950 . S
C1287 C1286 1.397 . S
C1287 C1288 1.334 . S
C1288 H1259 0.950 . S
C1288 C1287 1.334 . S
C1288 C1289 1.287 . S
C1289 C1288 1.287 . S
C1289 C1290 1.524 . S
C1289 H1292 0.999 . S
C1290 H1260 0.950 1_565 S
C1290 C1289 1.524 . S
C1290 C1291 1.415 . S
C1291 H1261 0.950 1_565 S
C1291 C1286 1.363 . S
C1291 C1290 1.415 . S
H1292 C1289 0.999 . S
H1293 C1274 0.913 . S
H1294 C1312 0.951 . S
H1295 C1314 0.951 . S
H1296 C1316 0.950 . S
H1297 C1317 0.950 . S
H1298 C1319 0.950 . S
H1299 C1322 0.950 . S
H1300 C1323 0.950 . S
H1301 C1325 0.950 . S
H1302 C1326 0.950 . S
H1303 C1327 0.951 . S
H1304 C1329 0.951 . S
H1305 C1331 0.950 . S
H1306 C1332 0.950 . S
H1307 C1334 0.950 . S
H1308 C1337 0.950 . S
H1309 C1338 0.950 . S
H1310 C1340 0.950 . S
H1311 C1341 0.950 . S
C1312 H1294 0.951 . S
C1312 C1313 1.366 . S
C1312 C1314 1.388 . S
C1313 C1312 1.366 . S
C1313 C1317 1.385 . S
C1314 H1295 0.951 . S
C1314 C1312 1.388 . S
C1314 C1315 1.366 . S
C1315 C1314 1.366 . S
C1315 C1316 1.414 . S
C1315 C1318 1.499 . S
C1316 H1296 0.950 . S
C1316 C1315 1.414 . S
C1316 C1317 1.374 . S
C1317 H1297 0.950 . S
C1317 C1313 1.385 . S
C1317 C1316 1.374 . S
C1318 C1315 1.499 . S
C1318 C1319 1.373 . S
C1318 C1320 1.389 . S
C1319 H1298 0.950 . S
C1319 C1318 1.373 . S
C1319 C1335 1.377 . S
C1320 C1318 1.389 . S
C1320 C1321 1.524 . S
C1320 C1334 1.377 . S
C1321 C1320 1.524 . S
C1321 C1322 1.397 . S
C1321 C1326 1.363 . S
C1322 H1299 0.950 . S
C1322 C1321 1.397 . S
C1322 C1323 1.334 . S
C1323 H1300 0.950 . S
C1323 C1322 1.334 . S
C1323 C1324 1.287 . S
C1324 C1323 1.287 . S
C1324 C1325 1.524 . S
C1324 H1343 0.913 . S
C1325 H1301 0.950 . S
C1325 C1324 1.524 . S
C1325 C1326 1.415 . S
C1326 H1302 0.950 . S
C1326 C1321 1.363 . S
C1326 C1325 1.415 . S
C1327 H1303 0.951 . S
C1327 C1328 1.366 . S
C1327 C1329 1.388 . S
C1328 C1327 1.366 . S
C1328 C1332 1.385 . S
C1329 H1304 0.951 . S
C1329 C1327 1.388 . S
C1329 C1330 1.366 . S
C1330 C1329 1.366 . S
C1330 C1331 1.414 . S
C1330 C1333 1.499 . S
C1331 H1305 0.950 . S
C1331 C1330 1.414 . S
C1331 C1332 1.374 . S
C1332 H1306 0.950 . S
C1332 C1328 1.385 . S
C1332 C1331 1.374 . S
C1333 C1330 1.499 . S
C1333 C1334 1.373 . S
C1333 C1335 1.389 . S
C1334 H1307 0.950 . S
C1334 C1320 1.377 . S
C1334 C1333 1.373 . S
C1335 C1319 1.377 . S
C1335 C1333 1.389 . S
C1335 C1336 1.524 . S
C1336 C1335 1.524 . S
C1336 C1337 1.397 . S
C1336 C1341 1.363 . S
C1337 H1308 0.950 . S
C1337 C1336 1.397 . S
C1337 C1338 1.334 . S
C1338 H1309 0.950 . S
C1338 C1337 1.334 . S
C1338 C1339 1.287 . S
C1339 C1338 1.287 . S
C1339 C1340 1.524 . S
C1339 H1342 0.999 . S
C1340 H1310 0.950 . S
C1340 C1339 1.524 . S
C1340 C1341 1.415 . S
C1341 H1311 0.950 . S
C1341 C1336 1.363 . S
C1341 C1340 1.415 . S
H1342 C1339 0.999 . S
H1343 C1324 0.913 . S
H1344 C1362 0.949 1_545 S
H1345 C1364 0.951 . S
H1346 C1366 0.950 . S
H1347 C1367 0.950 . S
H1348 C1369 0.950 . S
H1349 C1372 0.950 . S
H1350 C1373 0.950 . S
H1351 C1375 0.950 . S
H1352 C1376 0.950 . S
H1353 C1377 0.951 . S
H1354 C1379 0.951 . S
H1355 C1381 0.950 . S
H1356 C1382 0.950 . S
H1357 C1384 0.950 . S
H1358 C1387 0.950 . S
H1359 C1388 0.950 . S
H1360 C1390 0.963 . S
H1361 C1391 0.950 . S
C1362 H1344 0.949 1_565 S
C1362 C1363 1.388 . S
C1362 C1364 1.368 1_565 S
C1363 C1362 1.388 . S
C1363 C1367 1.385 . S
C1364 H1345 0.951 . S
C1364 C1362 1.368 1_545 S
C1364 C1365 1.366 . S
C1365 C1364 1.366 . S
C1365 C1366 1.414 1_545 S
C1365 C1368 1.499 . S
C1366 H1346 0.950 . S
C1366 C1365 1.414 1_565 S
C1366 C1367 1.374 . S
C1367 H1347 0.950 . S
C1367 C1363 1.385 . S
C1367 C1366 1.374 . S
C1368 C1365 1.499 . S
C1368 C1369 1.373 . S
C1368 C1370 1.389 . S
C1369 H1348 0.950 . S
C1369 C1368 1.373 . S
C1369 C1385 1.377 . S
C1370 C1368 1.389 . S
C1370 C1371 1.524 . S
C1370 C1384 1.377 . S
C1371 C1370 1.524 . S
C1371 C1372 1.397 . S
C1371 C1376 1.363 . S
C1372 H1349 0.950 . S
C1372 C1371 1.397 . S
C1372 C1373 1.334 . S
C1373 H1350 0.950 . S
C1373 C1372 1.334 . S
C1373 C1374 1.287 . S
C1374 C1373 1.287 . S
C1374 C1375 1.524 . S
C1374 H1393 0.913 . S
C1375 H1351 0.950 . S
C1375 C1374 1.524 . S
C1375 C1376 1.415 . S
C1376 H1352 0.950 . S
C1376 C1371 1.363 . S
C1376 C1375 1.415 . S
C1377 H1353 0.951 . S
C1377 C1378 1.366 . S
C1377 C1379 1.388 . S
C1378 C1377 1.366 . S
C1378 C1382 1.385 . S
C1379 H1354 0.951 . S
C1379 C1377 1.388 . S
C1379 C1380 1.366 . S
C1380 C1379 1.366 . S
C1380 C1381 1.414 . S
C1380 C1383 1.499 . S
C1381 H1355 0.950 . S
C1381 C1380 1.414 . S
C1381 C1382 1.374 . S
C1382 H1356 0.950 . S
C1382 C1378 1.385 . S
C1382 C1381 1.374 . S
C1383 C1380 1.499 . S
C1383 C1384 1.373 . S
C1383 C1385 1.389 . S
C1384 H1357 0.950 . S
C1384 C1370 1.377 . S
C1384 C1383 1.373 . S
C1385 C1369 1.377 . S
C1385 C1383 1.389 . S
C1385 C1386 1.524 . S
C1386 C1385 1.524 . S
C1386 C1387 1.397 . S
C1386 C1391 1.363 . S
C1387 H1358 0.950 . S
C1387 C1386 1.397 . S
C1387 C1388 1.334 . S
C1388 H1359 0.950 . S
C1388 C1387 1.334 . S
C1388 C1389 1.287 . S
C1389 C1388 1.287 . S
C1389 C1390 1.524 . S
C1389 H1392 0.999 . S
C1390 H1360 0.963 . S
C1390 C1389 1.524 . S
C1390 C1391 1.415 . S
C1391 H1361 0.950 . S
C1391 C1386 1.363 . S
C1391 C1390 1.415 . S
H1392 C1389 0.999 . S
H1393 C1374 0.913 . S
H1394 C1412 0.951 . S
H1395 C1414 0.951 . S
H1396 C1416 0.950 . S
H1397 C1417 0.950 . S
H1398 C1419 0.950 . S
H1399 C1422 0.950 . S
H1400 C1423 0.950 . S
H1401 C1425 0.950 . S
H1402 C1426 0.950 . S
H1403 C1427 0.951 . S
H1404 C1429 0.951 . S
H1405 C1431 0.950 . S
H1406 C1432 0.950 . S
H1407 C1434 0.950 . S
H1408 C1437 0.950 . S
H1409 C1438 0.950 . S
H1410 C1440 0.950 . S
H1411 C1441 0.950 . S
C1412 H1394 0.951 . S
C1412 C1413 1.366 . S
C1412 C1414 1.388 . S
C1413 C1412 1.366 . S
C1413 C1417 1.385 . S
C1414 H1395 0.951 . S
C1414 C1412 1.388 . S
C1414 C1415 1.366 . S
C1415 C1414 1.366 . S
C1415 C1416 1.414 . S
C1415 C1418 1.499 . S
C1416 H1396 0.950 . S
C1416 C1415 1.414 . S
C1416 C1417 1.374 . S
C1417 H1397 0.950 . S
C1417 C1413 1.385 . S
C1417 C1416 1.374 . S
C1418 C1415 1.499 . S
C1418 C1419 1.373 . S
C1418 C1420 1.389 . S
C1419 H1398 0.950 . S
C1419 C1418 1.373 . S
C1419 C1435 1.377 . S
C1420 C1418 1.389 . S
C1420 C1421 1.524 . S
C1420 C1434 1.377 . S
C1421 C1420 1.524 . S
C1421 C1422 1.397 . S
C1421 C1426 1.363 . S
C1422 H1399 0.950 . S
C1422 C1421 1.397 . S
C1422 C1423 1.334 . S
C1423 H1400 0.950 . S
C1423 C1422 1.334 . S
C1423 C1424 1.287 . S
C1424 C1423 1.287 . S
C1424 C1425 1.524 . S
C1424 H1443 0.913 . S
C1425 H1401 0.950 . S
C1425 C1424 1.524 . S
C1425 C1426 1.415 . S
C1426 H1402 0.950 . S
C1426 C1421 1.363 . S
C1426 C1425 1.415 . S
C1427 H1403 0.951 . S
C1427 C1428 1.366 . S
C1427 C1429 1.388 . S
C1428 C1427 1.366 . S
C1428 C1432 1.385 . S
C1429 H1404 0.951 . S
C1429 C1427 1.388 . S
C1429 C1430 1.366 . S
C1430 C1429 1.366 . S
C1430 C1431 1.414 . S
C1430 C1433 1.499 . S
C1431 H1405 0.950 . S
C1431 C1430 1.414 . S
C1431 C1432 1.374 . S
C1432 H1406 0.950 . S
C1432 C1428 1.385 . S
C1432 C1431 1.374 . S
C1433 C1430 1.499 . S
C1433 C1434 1.373 . S
C1433 C1435 1.389 . S
C1434 H1407 0.950 . S
C1434 C1420 1.377 . S
C1434 C1433 1.373 . S
C1435 C1419 1.377 . S
C1435 C1433 1.389 . S
C1435 C1436 1.524 . S
C1436 C1435 1.524 . S
C1436 C1437 1.397 . S
C1436 C1441 1.363 . S
C1437 H1408 0.950 . S
C1437 C1436 1.397 . S
C1437 C1438 1.334 . S
C1438 H1409 0.950 . S
C1438 C1437 1.334 . S
C1438 C1439 1.287 . S
C1439 C1438 1.287 . S
C1439 C1440 1.524 . S
C1439 H1442 0.999 . S
C1440 H1410 0.950 . S
C1440 C1439 1.524 . S
C1440 C1441 1.415 . S
C1441 H1411 0.950 . S
C1441 C1436 1.363 . S
C1441 C1440 1.415 . S
H1442 C1439 0.999 . S
H1443 C1424 0.913 . S
H1444 C1462 0.951 . S
H1445 C1464 0.951 . S
H1446 C1466 0.950 . S
H1447 C1467 0.950 . S
H1448 C1469 0.950 . S
H1449 C1472 0.950 . S
H1450 C1473 0.950 . S
H1451 C1475 0.950 . S
H1452 C1476 0.950 . S
H1453 C1477 0.951 . S
H1454 C1479 0.951 . S
H1455 C1481 0.950 . S
H1456 C1482 0.950 . S
H1457 C1484 0.950 . S
H1458 C1487 0.950 . S
H1459 C1488 0.950 . S
H1460 C1490 0.950 . S
H1461 C1491 0.950 . S
C1462 H1444 0.951 . S
C1462 C1463 1.366 . S
C1462 C1464 1.388 . S
C1463 C1462 1.366 . S
C1463 C1467 1.385 . S
C1464 H1445 0.951 . S
C1464 C1462 1.388 . S
C1464 C1465 1.366 . S
C1465 C1464 1.366 . S
C1465 C1466 1.414 . S
C1465 C1468 1.499 . S
C1466 H1446 0.950 . S
C1466 C1465 1.414 . S
C1466 C1467 1.374 . S
C1467 H1447 0.950 . S
C1467 C1463 1.385 . S
C1467 C1466 1.374 . S
C1468 C1465 1.499 . S
C1468 C1469 1.373 . S
C1468 C1470 1.389 . S
C1469 H1448 0.950 . S
C1469 C1468 1.373 . S
C1469 C1485 1.377 . S
C1470 C1468 1.389 . S
C1470 C1471 1.524 . S
C1470 C1484 1.377 . S
C1471 C1470 1.524 . S
C1471 C1472 1.397 . S
C1471 C1476 1.363 . S
C1472 H1449 0.950 . S
C1472 C1471 1.397 . S
C1472 C1473 1.334 1_545 S
C1473 H1450 0.950 . S
C1473 C1472 1.334 1_565 S
C1473 C1474 1.287 . S
C1474 C1473 1.287 . S
C1474 C1475 1.524 1_565 S
C1474 H1493 0.913 . S
C1475 H1451 0.950 . S
C1475 C1474 1.524 1_545 S
C1475 C1476 1.415 . S
C1476 H1452 0.950 . S
C1476 C1471 1.363 . S
C1476 C1475 1.415 . S
C1477 H1453 0.951 . S
C1477 C1478 1.366 . S
C1477 C1479 1.388 . S
C1478 C1477 1.366 . S
C1478 C1482 1.385 . S
C1479 H1454 0.951 . S
C1479 C1477 1.388 . S
C1479 C1480 1.366 . S
C1480 C1479 1.366 . S
C1480 C1481 1.414 . S
C1480 C1483 1.499 . S
C1481 H1455 0.950 . S
C1481 C1480 1.414 . S
C1481 C1482 1.374 . S
C1482 H1456 0.950 . S
C1482 C1478 1.385 . S
C1482 C1481 1.374 . S
C1483 C1480 1.499 . S
C1483 C1484 1.373 . S
C1483 C1485 1.389 . S
C1484 H1457 0.950 . S
C1484 C1470 1.377 . S
C1484 C1483 1.373 . S
C1485 C1469 1.377 . S
C1485 C1483 1.389 . S
C1485 C1486 1.524 . S
C1486 C1485 1.524 . S
C1486 C1487 1.397 . S
C1486 C1491 1.363 . S
C1487 H1458 0.950 . S
C1487 C1486 1.397 . S
C1487 C1488 1.334 . S
C1488 H1459 0.950 . S
C1488 C1487 1.334 . S
C1488 C1489 1.287 . S
C1489 C1488 1.287 . S
C1489 C1490 1.524 . S
C1489 H1492 0.999 . S
C1490 H1460 0.950 . S
C1490 C1489 1.524 . S
C1490 C1491 1.415 . S
C1491 H1461 0.950 . S
C1491 C1486 1.363 . S
C1491 C1490 1.415 . S
H1492 C1489 0.999 . S
H1493 C1474 0.913 . S
H1494 C1512 0.951 . S
H1495 C1514 0.951 . S
H1496 C1516 0.950 . S
H1497 C1517 0.950 . S
H1498 C1519 0.950 . S
H1499 C1522 0.950 . S
H1500 C1523 0.950 . S
H1501 C1525 0.950 . S
H1502 C1526 0.950 . S
H1503 C1527 0.951 . S
H1504 C1529 0.951 . S
H1505 C1531 0.950 . S
H1506 C1532 0.950 . S
H1507 C1534 0.950 . S
H1508 C1537 0.950 . S
H1509 C1538 0.950 . S
H1510 C1540 0.950 . S
H1511 C1541 0.950 . S
C1512 H1494 0.951 . S
C1512 C1513 1.366 . S
C1512 C1514 1.388 . S
C1513 C1512 1.366 . S
C1513 C1517 1.385 . S
C1514 H1495 0.951 . S
C1514 C1512 1.388 . S
C1514 C1515 1.366 . S
C1515 C1514 1.366 . S
C1515 C1516 1.414 . S
C1515 C1518 1.499 . S
C1516 H1496 0.950 . S
C1516 C1515 1.414 . S
C1516 C1517 1.374 . S
C1517 H1497 0.950 . S
C1517 C1513 1.385 . S
C1517 C1516 1.374 . S
C1518 C1515 1.499 . S
C1518 C1519 1.373 . S
C1518 C1520 1.389 . S
C1519 H1498 0.950 . S
C1519 C1518 1.373 . S
C1519 C1535 1.377 . S
C1520 C1518 1.389 . S
C1520 C1521 1.524 . S
C1520 C1534 1.377 . S
C1521 C1520 1.524 . S
C1521 C1522 1.397 . S
C1521 C1526 1.363 . S
C1522 H1499 0.950 . S
C1522 C1521 1.397 . S
C1522 C1523 1.334 . S
C1523 H1500 0.950 . S
C1523 C1522 1.334 . S
C1523 C1524 1.287 . S
C1524 C1523 1.287 . S
C1524 C1525 1.524 . S
C1524 H1543 0.913 . S
C1525 H1501 0.950 . S
C1525 C1524 1.524 . S
C1525 C1526 1.415 . S
C1526 H1502 0.950 . S
C1526 C1521 1.363 . S
C1526 C1525 1.415 . S
C1527 H1503 0.951 . S
C1527 C1528 1.366 . S
C1527 C1529 1.388 . S
C1528 C1527 1.366 . S
C1528 C1532 1.385 . S
C1529 H1504 0.951 . S
C1529 C1527 1.388 . S
C1529 C1530 1.366 . S
C1530 C1529 1.366 . S
C1530 C1531 1.414 . S
C1530 C1533 1.499 . S
C1531 H1505 0.950 . S
C1531 C1530 1.414 . S
C1531 C1532 1.374 . S
C1532 H1506 0.950 . S
C1532 C1528 1.385 . S
C1532 C1531 1.374 . S
C1533 C1530 1.499 . S
C1533 C1534 1.373 . S
C1533 C1535 1.389 . S
C1534 H1507 0.950 . S
C1534 C1520 1.377 . S
C1534 C1533 1.373 . S
C1535 C1519 1.377 . S
C1535 C1533 1.389 . S
C1535 C1536 1.524 . S
C1536 C1535 1.524 . S
C1536 C1537 1.397 . S
C1536 C1541 1.363 . S
C1537 H1508 0.950 . S
C1537 C1536 1.397 . S
C1537 C1538 1.334 . S
C1538 H1509 0.950 . S
C1538 C1537 1.334 . S
C1538 C1539 1.287 . S
C1539 C1538 1.287 . S
C1539 C1540 1.524 . S
C1539 H1542 0.999 . S
C1540 H1510 0.950 . S
C1540 C1539 1.524 . S
C1540 C1541 1.415 . S
C1541 H1511 0.950 . S
C1541 C1536 1.363 . S
C1541 C1540 1.415 . S
H1542 C1539 0.999 . S
H1543 C1524 0.913 . S
H1544 C1562 0.951 . S
H1545 C1564 0.951 . S
H1546 C1566 0.950 . S
H1547 C1567 0.950 . S
H1548 C1569 0.950 . S
H1549 C1572 0.950 . S
H1550 C1573 0.950 . S
H1551 C1575 0.950 . S
H1552 C1576 0.950 . S
H1553 C1577 0.951 . S
H1554 C1579 0.951 . S
H1555 C1581 0.950 . S
H1556 C1582 0.950 . S
H1557 C1584 0.950 . S
H1558 C1587 0.950 . S
H1559 C1588 0.950 . S
H1560 C1590 0.950 . S
H1561 C1591 0.950 . S
C1562 H1544 0.951 . S
C1562 C1563 1.366 . S
C1562 C1564 1.388 . S
C1563 C1562 1.366 . S
C1563 C1567 1.385 . S
C1564 H1545 0.951 . S
C1564 C1562 1.388 . S
C1564 C1565 1.366 . S
C1565 C1564 1.366 . S
C1565 C1566 1.414 . S
C1565 C1568 1.499 . S
C1566 H1546 0.950 . S
C1566 C1565 1.414 . S
C1566 C1567 1.374 . S
C1567 H1547 0.950 . S
C1567 C1563 1.385 . S
C1567 C1566 1.374 . S
C1568 C1565 1.499 . S
C1568 C1569 1.373 . S
C1568 C1570 1.389 . S
C1569 H1548 0.950 . S
C1569 C1568 1.373 . S
C1569 C1585 1.377 . S
C1570 C1568 1.389 . S
C1570 C1571 1.524 . S
C1570 C1584 1.377 . S
C1571 C1570 1.524 . S
C1571 C1572 1.397 . S
C1571 C1576 1.363 . S
C1572 H1549 0.950 . S
C1572 C1571 1.397 . S
C1572 C1573 1.334 . S
C1573 H1550 0.950 . S
C1573 C1572 1.334 . S
C1573 C1574 1.287 . S
C1574 C1573 1.287 . S
C1574 C1575 1.524 . S
C1574 H1593 0.913 . S
C1575 H1551 0.950 . S
C1575 C1574 1.524 . S
C1575 C1576 1.415 . S
C1576 H1552 0.950 . S
C1576 C1571 1.363 . S
C1576 C1575 1.415 . S
C1577 H1553 0.951 . S
C1577 C1578 1.366 . S
C1577 C1579 1.388 . S
C1578 C1577 1.366 . S
C1578 C1582 1.385 . S
C1579 H1554 0.951 . S
C1579 C1577 1.388 . S
C1579 C1580 1.366 . S
C1580 C1579 1.366 . S
C1580 C1581 1.414 . S
C1580 C1583 1.499 . S
C1581 H1555 0.950 . S
C1581 C1580 1.414 . S
C1581 C1582 1.374 . S
C1582 H1556 0.950 . S
C1582 C1578 1.385 . S
C1582 C1581 1.374 . S
C1583 C1580 1.499 . S
C1583 C1584 1.373 . S
C1583 C1585 1.389 . S
C1584 H1557 0.950 . S
C1584 C1570 1.377 . S
C1584 C1583 1.373 . S
C1585 C1569 1.377 . S
C1585 C1583 1.389 . S
C1585 C1586 1.524 . S
C1586 C1585 1.524 . S
C1586 C1587 1.397 . S
C1586 C1591 1.363 . S
C1587 H1558 0.950 . S
C1587 C1586 1.397 . S
C1587 C1588 1.334 . S
C1588 H1559 0.950 . S
C1588 C1587 1.334 . S
C1588 C1589 1.287 . S
C1589 C1588 1.287 . S
C1589 C1590 1.524 . S
C1589 H1592 0.999 . S
C1590 H1560 0.950 . S
C1590 C1589 1.524 . S
C1590 C1591 1.415 . S
C1591 H1561 0.950 . S
C1591 C1586 1.363 . S
C1591 C1590 1.415 . S
H1592 C1589 0.999 . S
H1593 C1574 0.913 . S
H1594 C1612 0.951 . S
H1595 C1614 0.951 . S
H1596 C1616 0.950 . S
H1597 C1617 0.950 . S
H1598 C1619 0.950 . S
H1599 C1622 0.950 . S
H1600 C1623 0.950 . S
H1601 C1625 0.950 . S
H1602 C1626 0.950 . S
H1603 C1627 0.951 . S
H1604 C1629 0.951 . S
H1605 C1631 0.950 . S
H1606 C1632 0.950 . S
H1607 C1634 0.950 . S
H1608 C1637 0.950 . S
H1609 C1638 0.950 . S
H1610 C1640 0.950 . S
H1611 C1641 0.950 . S
C1612 H1594 0.951 . S
C1612 C1613 1.366 . S
C1612 C1614 1.388 . S
C1613 C1612 1.366 . S
C1613 C1617 1.385 . S
C1614 H1595 0.951 . S
C1614 C1612 1.388 . S
C1614 C1615 1.366 . S
C1615 C1614 1.366 . S
C1615 C1616 1.414 . S
C1615 C1618 1.499 . S
C1616 H1596 0.950 . S
C1616 C1615 1.414 . S
C1616 C1617 1.374 . S
C1617 H1597 0.950 . S
C1617 C1613 1.385 . S
C1617 C1616 1.374 . S
C1618 C1615 1.499 . S
C1618 C1619 1.373 . S
C1618 C1620 1.389 . S
C1619 H1598 0.950 . S
C1619 C1618 1.373 . S
C1619 C1635 1.377 . S
C1620 C1618 1.389 . S
C1620 C1621 1.524 . S
C1620 C1634 1.377 . S
C1621 C1620 1.524 . S
C1621 C1622 1.397 1_545 S
C1621 C1626 1.363 . S
C1622 H1599 0.950 . S
C1622 C1621 1.397 1_565 S
C1622 C1623 1.334 . S
C1623 H1600 0.950 . S
C1623 C1622 1.334 . S
C1623 C1624 1.287 . S
C1624 C1623 1.287 . S
C1624 C1625 1.524 . S
C1624 H1643 0.913 . S
C1625 H1601 0.950 . S
C1625 C1624 1.524 . S
C1625 C1626 1.415 1_565 S
C1626 H1602 0.950 . S
C1626 C1621 1.363 . S
C1626 C1625 1.415 1_545 S
C1627 H1603 0.951 . S
C1627 C1628 1.366 . S
C1627 C1629 1.388 . S
C1628 C1627 1.366 . S
C1628 C1632 1.385 . S
C1629 H1604 0.951 . S
C1629 C1627 1.388 . S
C1629 C1630 1.366 . S
C1630 C1629 1.366 . S
C1630 C1631 1.414 . S
C1630 C1633 1.499 . S
C1631 H1605 0.950 . S
C1631 C1630 1.414 . S
C1631 C1632 1.374 . S
C1632 H1606 0.950 . S
C1632 C1628 1.385 . S
C1632 C1631 1.374 . S
C1633 C1630 1.499 . S
C1633 C1634 1.373 . S
C1633 C1635 1.389 . S
C1634 H1607 0.950 . S
C1634 C1620 1.377 . S
C1634 C1633 1.373 . S
C1635 C1619 1.377 . S
C1635 C1633 1.389 . S
C1635 C1636 1.524 . S
C1636 C1635 1.524 . S
C1636 C1637 1.397 . S
C1636 C1641 1.363 . S
C1637 H1608 0.950 . S
C1637 C1636 1.397 . S
C1637 C1638 1.334 . S
C1638 H1609 0.950 . S
C1638 C1637 1.334 . S
C1638 C1639 1.287 . S
C1639 C1638 1.287 . S
C1639 C1640 1.524 . S
C1639 H1642 0.999 . S
C1640 H1610 0.950 . S
C1640 C1639 1.524 . S
C1640 C1641 1.415 . S
C1641 H1611 0.950 . S
C1641 C1636 1.363 . S
C1641 C1640 1.415 . S
H1642 C1639 0.999 . S
H1643 C1624 0.913 . S
H1644 C1662 0.951 . S
H1645 C1664 0.951 . S
H1646 C1666 0.950 . S
H1647 C1667 0.950 . S
H1648 C1669 0.950 . S
H1649 C1672 0.950 . S
H1650 C1673 0.950 . S
H1651 C1675 0.950 . S
H1652 C1676 0.950 . S
H1653 C1677 0.951 . S
H1654 C1679 0.951 . S
H1655 C1681 0.950 . S
H1656 C1682 0.950 . S
H1657 C1684 0.950 . S
H1658 C1687 0.950 . S
H1659 C1688 0.950 . S
H1660 C1690 0.950 . S
H1661 C1691 0.950 . S
C1662 H1644 0.951 . S
C1662 C1663 1.366 . S
C1662 C1664 1.388 . S
C1663 C1662 1.366 . S
C1663 C1667 1.385 . S
C1664 H1645 0.951 . S
C1664 C1662 1.388 . S
C1664 C1665 1.366 . S
C1665 C1664 1.366 . S
C1665 C1666 1.414 . S
C1665 C1668 1.499 . S
C1666 H1646 0.950 . S
C1666 C1665 1.414 . S
C1666 C1667 1.374 . S
C1667 H1647 0.950 . S
C1667 C1663 1.385 . S
C1667 C1666 1.374 . S
C1668 C1665 1.499 . S
C1668 C1669 1.373 . S
C1668 C1670 1.389 . S
C1669 H1648 0.950 . S
C1669 C1668 1.373 . S
C1669 C1685 1.377 . S
C1670 C1668 1.389 . S
C1670 C1671 1.524 . S
C1670 C1684 1.377 . S
C1671 C1670 1.524 . S
C1671 C1672 1.397 . S
C1671 C1676 1.363 . S
C1672 H1649 0.950 . S
C1672 C1671 1.397 . S
C1672 C1673 1.334 . S
C1673 H1650 0.950 . S
C1673 C1672 1.334 . S
C1673 C1674 1.287 . S
C1674 C1673 1.287 . S
C1674 C1675 1.524 . S
C1674 H1693 0.913 . S
C1675 H1651 0.950 . S
C1675 C1674 1.524 . S
C1675 C1676 1.415 . S
C1676 H1652 0.950 . S
C1676 C1671 1.363 . S
C1676 C1675 1.415 . S
C1677 H1653 0.951 . S
C1677 C1678 1.366 . S
C1677 C1679 1.388 . S
C1678 C1677 1.366 . S
C1678 C1682 1.385 . S
C1679 H1654 0.951 . S
C1679 C1677 1.388 . S
C1679 C1680 1.366 . S
C1680 C1679 1.366 . S
C1680 C1681 1.414 . S
C1680 C1683 1.499 . S
C1681 H1655 0.950 . S
C1681 C1680 1.414 . S
C1681 C1682 1.374 . S
C1682 H1656 0.950 . S
C1682 C1678 1.385 . S
C1682 C1681 1.374 . S
C1683 C1680 1.499 . S
C1683 C1684 1.373 . S
C1683 C1685 1.389 . S
C1684 H1657 0.950 . S
C1684 C1670 1.377 . S
C1684 C1683 1.373 . S
C1685 C1669 1.377 . S
C1685 C1683 1.389 . S
C1685 C1686 1.524 . S
C1686 C1685 1.524 . S
C1686 C1687 1.397 . S
C1686 C1691 1.363 . S
C1687 H1658 0.950 . S
C1687 C1686 1.397 . S
C1687 C1688 1.334 . S
C1688 H1659 0.950 . S
C1688 C1687 1.334 . S
C1688 C1689 1.287 . S
C1689 C1688 1.287 . S
C1689 C1690 1.524 . S
C1689 H1692 0.999 . S
C1690 H1660 0.950 . S
C1690 C1689 1.524 . S
C1690 C1691 1.415 . S
C1691 H1661 0.950 . S
C1691 C1686 1.363 . S
C1691 C1690 1.415 . S
H1692 C1689 0.999 . S
H1693 C1674 0.913 . S
H1694 C1712 0.951 . S
H1695 C1714 0.951 . S
H1696 C1716 0.950 . S
H1697 C1717 0.950 . S
H1698 C1719 0.950 . S
H1699 C1722 0.950 . S
H1700 C1723 0.950 . S
H1701 C1725 0.950 . S
H1702 C1726 0.950 . S
H1703 C1727 0.951 . S
H1704 C1729 0.951 . S
H1705 C1731 0.950 . S
H1706 C1732 0.950 . S
H1707 C1734 0.950 . S
H1708 C1737 0.950 . S
H1709 C1738 0.950 . S
H1710 C1740 0.950 . S
H1711 C1741 0.950 . S
C1712 H1694 0.951 . S
C1712 C1713 1.366 . S
C1712 C1714 1.388 . S
C1713 C1712 1.366 . S
C1713 C1717 1.385 . S
C1714 H1695 0.951 . S
C1714 C1712 1.388 . S
C1714 C1715 1.366 . S
C1715 C1714 1.366 . S
C1715 C1716 1.414 . S
C1715 C1718 1.499 . S
C1716 H1696 0.950 . S
C1716 C1715 1.414 . S
C1716 C1717 1.374 . S
C1717 H1697 0.950 . S
C1717 C1713 1.385 . S
C1717 C1716 1.374 . S
C1718 C1715 1.499 . S
C1718 C1719 1.373 . S
C1718 C1720 1.389 . S
C1719 H1698 0.950 . S
C1719 C1718 1.373 . S
C1719 C1735 1.377 . S
C1720 C1718 1.389 . S
C1720 C1721 1.524 . S
C1720 C1734 1.377 . S
C1721 C1720 1.524 . S
C1721 C1722 1.397 . S
C1721 C1726 1.363 . S
C1722 H1699 0.950 . S
C1722 C1721 1.397 . S
C1722 C1723 1.334 . S
C1723 H1700 0.950 . S
C1723 C1722 1.334 . S
C1723 C1724 1.287 . S
C1724 C1723 1.287 . S
C1724 C1725 1.524 . S
C1724 H1743 0.913 . S
C1725 H1701 0.950 . S
C1725 C1724 1.524 . S
C1725 C1726 1.415 . S
C1726 H1702 0.950 . S
C1726 C1721 1.363 . S
C1726 C1725 1.415 . S
C1727 H1703 0.951 . S
C1727 C1728 1.366 . S
C1727 C1729 1.388 . S
C1728 C1727 1.366 . S
C1728 C1732 1.385 . S
C1729 H1704 0.951 . S
C1729 C1727 1.388 . S
C1729 C1730 1.366 . S
C1730 C1729 1.366 . S
C1730 C1731 1.414 . S
C1730 C1733 1.499 . S
C1731 H1705 0.950 . S
C1731 C1730 1.414 . S
C1731 C1732 1.374 . S
C1732 H1706 0.950 . S
C1732 C1728 1.385 . S
C1732 C1731 1.374 . S
C1733 C1730 1.499 . S
C1733 C1734 1.373 . S
C1733 C1735 1.389 . S
C1734 H1707 0.950 . S
C1734 C1720 1.377 . S
C1734 C1733 1.373 . S
C1735 C1719 1.377 . S
C1735 C1733 1.389 . S
C1735 C1736 1.524 . S
C1736 C1735 1.524 . S
C1736 C1737 1.397 . S
C1736 C1741 1.363 . S
C1737 H1708 0.950 . S
C1737 C1736 1.397 . S
C1737 C1738 1.334 . S
C1738 H1709 0.950 . S
C1738 C1737 1.334 . S
C1738 C1739 1.287 . S
C1739 C1738 1.287 . S
C1739 C1740 1.524 . S
C1739 H1742 0.999 . S
C1740 H1710 0.950 . S
C1740 C1739 1.524 . S
C1740 C1741 1.415 . S
C1741 H1711 0.950 . S
C1741 C1736 1.363 . S
C1741 C1740 1.415 . S
H1742 C1739 0.999 . S
H1743 C1724 0.913 . S
H1744 C1762 0.951 . S
H1745 C1764 0.951 . S
H1746 C1766 0.950 . S
H1747 C1767 0.950 . S
H1748 C1769 0.950 . S
H1749 C1772 0.950 . S
H1750 C1773 0.950 . S
H1751 C1775 0.950 . S
H1752 C1776 0.950 . S
H1753 C1777 0.951 . S
H1754 C1779 0.951 . S
H1755 C1781 0.950 . S
H1756 C1782 0.950 . S
H1757 C1784 0.950 . S
H1758 C1787 0.950 . S
H1759 C1788 0.950 . S
H1760 C1790 0.950 . S
H1761 C1791 0.950 . S
C1762 H1744 0.951 . S
C1762 C1763 1.366 . S
C1762 C1764 1.388 . S
C1763 C1762 1.366 . S
C1763 C1767 1.385 . S
C1764 H1745 0.951 . S
C1764 C1762 1.388 . S
C1764 C1765 1.366 . S
C1765 C1764 1.366 . S
C1765 C1766 1.414 . S
C1765 C1768 1.499 . S
C1766 H1746 0.950 . S
C1766 C1765 1.414 . S
C1766 C1767 1.374 . S
C1767 H1747 0.950 . S
C1767 C1763 1.385 . S
C1767 C1766 1.374 . S
C1768 C1765 1.499 . S
C1768 C1769 1.373 . S
C1768 C1770 1.389 . S
C1769 H1748 0.950 . S
C1769 C1768 1.373 . S
C1769 C1785 1.377 . S
C1770 C1768 1.389 . S
C1770 C1771 1.524 . S
C1770 C1784 1.377 . S
C1771 C1770 1.524 . S
C1771 C1772 1.397 . S
C1771 C1776 1.363 . S
C1772 H1749 0.950 . S
C1772 C1771 1.397 . S
C1772 C1773 1.334 . S
C1773 H1750 0.950 . S
C1773 C1772 1.334 . S
C1773 C1774 1.287 . S
C1774 C1773 1.287 . S
C1774 C1775 1.524 . S
C1774 H1793 0.913 . S
C1775 H1751 0.950 . S
C1775 C1774 1.524 . S
C1775 C1776 1.415 . S
C1776 H1752 0.950 . S
C1776 C1771 1.363 . S
C1776 C1775 1.415 . S
C1777 H1753 0.951 . S
C1777 C1778 1.366 . S
C1777 C1779 1.388 . S
C1778 C1777 1.366 . S
C1778 C1782 1.385 . S
C1779 H1754 0.951 . S
C1779 C1777 1.388 . S
C1779 C1780 1.366 . S
C1780 C1779 1.366 . S
C1780 C1781 1.414 . S
C1780 C1783 1.499 . S
C1781 H1755 0.950 . S
C1781 C1780 1.414 . S
C1781 C1782 1.374 . S
C1782 H1756 0.950 . S
C1782 C1778 1.385 . S
C1782 C1781 1.374 . S
C1783 C1780 1.499 . S
C1783 C1784 1.373 . S
C1783 C1785 1.389 . S
C1784 H1757 0.950 . S
C1784 C1770 1.377 . S
C1784 C1783 1.373 . S
C1785 C1769 1.377 . S
C1785 C1783 1.389 . S
C1785 C1786 1.524 . S
C1786 C1785 1.524 . S
C1786 C1787 1.397 . S
C1786 C1791 1.363 . S
C1787 H1758 0.950 . S
C1787 C1786 1.397 . S
C1787 C1788 1.334 . S
C1788 H1759 0.950 . S
C1788 C1787 1.334 . S
C1788 C1789 1.287 . S
C1789 C1788 1.287 . S
C1789 C1790 1.524 . S
C1789 H1792 0.999 . S
C1790 H1760 0.950 . S
C1790 C1789 1.524 . S
C1790 C1791 1.415 . S
C1791 H1761 0.950 . S
C1791 C1786 1.363 . S
C1791 C1790 1.415 . S
H1792 C1789 0.999 . S
H1793 C1774 0.913 . S
H1794 C1812 0.951 . S
H1795 C1814 0.951 . S
H1796 C1816 0.950 . S
H1797 C1817 0.950 . S
H1798 C1819 0.950 . S
H1799 C1822 0.950 . S
H1800 C1823 0.950 . S
H1801 C1825 0.929 1_655 S
H1802 C1826 0.950 1_655 S
H1803 C1827 0.951 . S
H1804 C1829 0.951 1_455 S
H1805 C1831 0.950 . S
H1806 C1832 0.950 . S
H1807 C1834 0.935 1_655 S
H1808 C1837 0.954 . S
H1809 C1838 0.950 . S
H1810 C1840 0.950 . S
H1811 C1841 0.950 . S
C1812 H1794 0.951 . S
C1812 C1813 1.366 . S
C1812 C1814 1.388 . S
C1813 C1812 1.366 . S
C1813 C1817 1.385 . S
C1814 H1795 0.951 . S
C1814 C1812 1.388 . S
C1814 C1815 1.366 . S
C1815 C1814 1.366 . S
C1815 C1816 1.414 . S
C1815 C1818 1.499 . S
C1816 H1796 0.950 . S
C1816 C1815 1.414 . S
C1816 C1817 1.374 . S
C1817 H1797 0.950 . S
C1817 C1813 1.385 . S
C1817 C1816 1.374 . S
C1818 C1815 1.499 . S
C1818 C1819 1.373 . S
C1818 C1820 1.389 . S
C1819 H1798 0.950 . S
C1819 C1818 1.373 . S
C1819 C1835 1.377 . S
C1820 C1818 1.389 . S
C1820 C1821 1.524 . S
C1820 C1834 1.397 . S
C1821 C1820 1.524 . S
C1821 C1822 1.397 . S
C1821 C1826 1.363 . S
C1822 H1799 0.950 . S
C1822 C1821 1.397 . S
C1822 C1823 1.334 . S
C1823 H1800 0.950 . S
C1823 C1822 1.334 . S
C1823 C1824 1.287 . S
C1824 C1823 1.287 . S
C1824 C1825 1.524 . S
C1824 H1843 0.913 . S
C1825 H1801 0.929 1_455 S
C1825 C1824 1.524 . S
C1825 C1826 1.415 . S
C1826 H1802 0.950 1_455 S
C1826 C1821 1.363 . S
C1826 C1825 1.415 . S
C1827 H1803 0.951 . S
C1827 C1828 1.366 . S
C1827 C1829 1.388 . S
C1828 C1827 1.366 . S
C1828 C1832 1.385 . S
C1829 H1804 0.951 1_655 S
C1829 C1827 1.388 . S
C1829 C1830 1.366 . S
C1830 C1829 1.366 . S
C1830 C1831 1.414 . S
C1830 C1833 1.499 . S
C1831 H1805 0.950 . S
C1831 C1830 1.414 . S
C1831 C1832 1.374 . S
C1832 H1806 0.950 . S
C1832 C1828 1.385 . S
C1832 C1831 1.374 . S
C1833 C1830 1.499 . S
C1833 C1834 1.369 1_655 S
C1833 C1835 1.389 1_655 S
C1834 H1807 0.935 1_455 S
C1834 C1820 1.397 . S
C1834 C1833 1.369 1_455 S
C1835 C1819 1.377 . S
C1835 C1833 1.389 1_455 S
C1835 C1836 1.524 1_445 S
C1836 C1835 1.524 1_665 S
C1836 C1837 1.397 . S
C1836 C1841 1.363 1_655 S
C1837 H1808 0.954 . S
C1837 C1836 1.397 . S
C1837 C1838 1.334 . S
C1838 H1809 0.950 . S
C1838 C1837 1.334 . S
C1838 C1839 1.287 . S
C1839 C1838 1.287 . S
C1839 C1840 1.524 1_655 S
C1839 H1842 0.999 . S
C1840 H1810 0.950 . S
C1840 C1839 1.524 1_455 S
C1840 C1841 1.415 . S
C1841 H1811 0.950 . S
C1841 C1836 1.363 1_455 S
C1841 C1840 1.415 . S
H1842 C1839 0.999 . S
H1843 C1824 0.913 . S
H1844 C1862 0.951 . S
H1845 C1864 0.951 . S
H1846 C1866 0.950 . S
H1847 C1867 0.950 . S
H1848 C1869 0.950 . S
H1849 C1872 0.950 . S
H1850 C1873 0.950 . S
H1851 C1875 0.950 . S
H1852 C1876 0.950 . S
H1853 C1877 0.951 . S
H1854 C1879 0.951 . S
H1855 C1881 0.950 . S
H1856 C1882 0.950 . S
H1857 C1884 0.950 . S
H1858 C1887 0.950 . S
H1859 C1888 0.950 . S
H1860 C1890 0.950 . S
H1861 C1891 0.950 . S
C1862 H1844 0.951 . S
C1862 C1863 1.366 . S
C1862 C1864 1.388 . S
C1863 C1862 1.366 . S
C1863 C1867 1.385 . S
C1864 H1845 0.951 . S
C1864 C1862 1.388 . S
C1864 C1865 1.366 . S
C1865 C1864 1.366 . S
C1865 C1866 1.414 . S
C1865 C1868 1.499 . S
C1866 H1846 0.950 . S
C1866 C1865 1.414 . S
C1866 C1867 1.374 . S
C1867 H1847 0.950 . S
C1867 C1863 1.385 . S
C1867 C1866 1.374 . S
C1868 C1865 1.499 . S
C1868 C1869 1.373 . S
C1868 C1870 1.389 . S
C1869 H1848 0.950 . S
C1869 C1868 1.373 . S
C1869 C1885 1.377 . S
C1870 C1868 1.389 . S
C1870 C1871 1.524 . S
C1870 C1884 1.377 . S
C1871 C1870 1.524 . S
C1871 C1872 1.397 . S
C1871 C1876 1.363 . S
C1872 H1849 0.950 . S
C1872 C1871 1.397 . S
C1872 C1873 1.334 . S
C1873 H1850 0.950 . S
C1873 C1872 1.334 . S
C1873 C1874 1.287 . S
C1874 C1873 1.287 . S
C1874 C1875 1.524 . S
C1874 H1893 0.913 . S
C1875 H1851 0.950 . S
C1875 C1874 1.524 . S
C1875 C1876 1.415 . S
C1876 H1852 0.950 . S
C1876 C1871 1.363 . S
C1876 C1875 1.415 . S
C1877 H1853 0.951 . S
C1877 C1878 1.366 . S
C1877 C1879 1.388 . S
C1878 C1877 1.366 . S
C1878 C1882 1.385 . S
C1879 H1854 0.951 . S
C1879 C1877 1.388 . S
C1879 C1880 1.366 . S
C1880 C1879 1.366 . S
C1880 C1881 1.414 . S
C1880 C1883 1.499 . S
C1881 H1855 0.950 . S
C1881 C1880 1.414 . S
C1881 C1882 1.374 . S
C1882 H1856 0.950 . S
C1882 C1878 1.385 . S
C1882 C1881 1.374 . S
C1883 C1880 1.499 . S
C1883 C1884 1.373 . S
C1883 C1885 1.389 . S
C1884 H1857 0.950 . S
C1884 C1870 1.377 . S
C1884 C1883 1.373 . S
C1885 C1869 1.377 . S
C1885 C1883 1.389 . S
C1885 C1886 1.524 . S
C1886 C1885 1.524 . S
C1886 C1887 1.397 . S
C1886 C1891 1.363 . S
C1887 H1858 0.950 . S
C1887 C1886 1.397 . S
C1887 C1888 1.334 . S
C1888 H1859 0.950 . S
C1888 C1887 1.334 . S
C1888 C1889 1.287 . S
C1889 C1888 1.287 . S
C1889 C1890 1.524 . S
C1889 H1892 0.999 . S
C1890 H1860 0.950 . S
C1890 C1889 1.524 . S
C1890 C1891 1.415 . S
C1891 H1861 0.950 . S
C1891 C1886 1.363 . S
C1891 C1890 1.415 . S
H1892 C1889 0.999 . S
H1893 C1874 0.913 . S
H1894 C1912 0.951 . S
H1895 C1914 0.951 . S
H1896 C1916 0.950 . S
H1897 C1917 0.950 . S
H1898 C1919 0.950 . S
H1899 C1922 0.950 . S
H1900 C1923 0.950 . S
H1901 C1925 0.937 1_655 S
H1902 C1926 0.950 . S
H1903 C1927 0.951 . S
H1904 C1929 0.951 . S
H1905 C1931 0.950 . S
H1906 C1932 0.950 . S
H1907 C1934 0.950 . S
H1908 C1937 0.950 . S
H1909 C1938 0.950 . S
H1910 C1940 0.950 . S
H1911 C1941 0.950 . S
C1912 H1894 0.951 . S
C1912 C1913 1.366 . S
C1912 C1914 1.388 1_655 S
C1913 C1912 1.366 . S
C1913 C1917 1.385 1_655 S
C1914 H1895 0.951 . S
C1914 C1912 1.388 1_455 S
C1914 C1915 1.366 . S
C1915 C1914 1.366 . S
C1915 C1916 1.414 . S
C1915 C1918 1.499 . S
C1916 H1896 0.950 . S
C1916 C1915 1.414 . S
C1916 C1917 1.374 . S
C1917 H1897 0.950 . S
C1917 C1913 1.385 1_455 S
C1917 C1916 1.374 . S
C1918 C1915 1.499 . S
C1918 C1919 1.373 . S
C1918 C1920 1.389 . S
C1919 H1898 0.950 . S
C1919 C1918 1.373 . S
C1919 C1935 1.377 . S
C1920 C1918 1.389 . S
C1920 C1921 1.524 . S
C1920 C1934 1.377 . S
C1921 C1920 1.524 . S
C1921 C1922 1.397 . S
C1921 C1926 1.363 . S
C1922 H1899 0.950 . S
C1922 C1921 1.397 . S
C1922 C1923 1.334 . S
C1923 H1900 0.950 . S
C1923 C1922 1.334 . S
C1923 C1924 1.269 1_455 S
C1924 C1923 1.269 1_655 S
C1924 C1925 1.520 1_655 S
C1924 H1943 0.940 . S
C1925 H1901 0.937 1_455 S
C1925 C1924 1.520 1_455 S
C1925 C1926 1.431 . S
C1926 H1902 0.950 . S
C1926 C1921 1.363 . S
C1926 C1925 1.431 . S
C1927 H1903 0.951 . S
C1927 C1928 1.366 . S
C1927 C1929 1.388 . S
C1928 C1927 1.366 . S
C1928 C1932 1.385 . S
C1929 H1904 0.951 . S
C1929 C1927 1.388 . S
C1929 C1930 1.366 . S
C1930 C1929 1.366 . S
C1930 C1931 1.414 . S
C1930 C1933 1.499 . S
C1931 H1905 0.950 . S
C1931 C1930 1.414 . S
C1931 C1932 1.374 . S
C1932 H1906 0.950 . S
C1932 C1928 1.385 . S
C1932 C1931 1.374 . S
C1933 C1930 1.499 . S
C1933 C1934 1.373 . S
C1933 C1935 1.389 . S
C1934 H1907 0.950 . S
C1934 C1920 1.377 . S
C1934 C1933 1.373 . S
C1935 C1919 1.377 . S
C1935 C1933 1.389 . S
C1935 C1936 1.524 . S
C1936 C1935 1.524 . S
C1936 C1937 1.397 . S
C1936 C1941 1.363 . S
C1937 H1908 0.950 . S
C1937 C1936 1.397 . S
C1937 C1938 1.334 . S
C1938 H1909 0.950 . S
C1938 C1937 1.334 . S
C1938 C1939 1.287 . S
C1939 C1938 1.287 . S
C1939 C1940 1.524 . S
C1939 H1942 0.999 . S
C1940 H1910 0.950 . S
C1940 C1939 1.524 . S
C1940 C1941 1.415 . S
C1941 H1911 0.950 . S
C1941 C1936 1.363 . S
C1941 C1940 1.415 . S
H1942 C1939 0.999 . S
H1943 C1924 0.940 . S
H1944 C1962 0.951 . S
H1945 C1964 0.951 . S
H1946 C1966 0.950 . S
H1947 C1967 0.950 . S
H1948 C1969 0.950 . S
H1949 C1972 0.950 . S
H1950 C1973 0.950 . S
H1951 C1975 0.950 . S
H1952 C1976 0.950 . S
H1953 C1977 0.951 . S
H1954 C1979 0.951 . S
H1955 C1981 0.950 . S
H1956 C1982 0.950 . S
H1957 C1984 0.950 . S
H1958 C1987 0.950 . S
H1959 C1988 0.950 . S
H1960 C1990 0.950 . S
H1961 C1991 0.950 . S
C1962 H1944 0.951 . S
C1962 C1963 1.366 . S
C1962 C1964 1.388 . S
C1963 C1962 1.366 . S
C1963 C1967 1.385 . S
C1964 H1945 0.951 . S
C1964 C1962 1.388 . S
C1964 C1965 1.366 . S
C1965 C1964 1.366 . S
C1965 C1966 1.414 . S
C1965 C1968 1.499 . S
C1966 H1946 0.950 . S
C1966 C1965 1.414 . S
C1966 C1967 1.374 . S
C1967 H1947 0.950 . S
C1967 C1963 1.385 . S
C1967 C1966 1.374 . S
C1968 C1965 1.499 . S
C1968 C1969 1.373 . S
C1968 C1970 1.389 . S
C1969 H1948 0.950 . S
C1969 C1968 1.373 . S
C1969 C1985 1.377 . S
C1970 C1968 1.389 . S
C1970 C1971 1.524 . S
C1970 C1984 1.377 . S
C1971 C1970 1.524 . S
C1971 C1972 1.397 . S
C1971 C1976 1.363 . S
C1972 H1949 0.950 . S
C1972 C1971 1.397 . S
C1972 C1973 1.334 . S
C1973 H1950 0.950 . S
C1973 C1972 1.334 . S
C1973 C1974 1.287 . S
C1974 C1973 1.287 . S
C1974 C1975 1.524 . S
C1974 H1993 0.913 . S
C1975 H1951 0.950 . S
C1975 C1974 1.524 . S
C1975 C1976 1.415 . S
C1976 H1952 0.950 . S
C1976 C1971 1.363 . S
C1976 C1975 1.415 . S
C1977 H1953 0.951 . S
C1977 C1978 1.366 . S
C1977 C1979 1.388 . S
C1978 C1977 1.366 . S
C1978 C1982 1.385 . S
C1979 H1954 0.951 . S
C1979 C1977 1.388 . S
C1979 C1980 1.366 . S
C1980 C1979 1.366 . S
C1980 C1981 1.414 . S
C1980 C1983 1.499 . S
C1981 H1955 0.950 . S
C1981 C1980 1.414 . S
C1981 C1982 1.374 . S
C1982 H1956 0.950 . S
C1982 C1978 1.385 . S
C1982 C1981 1.374 . S
C1983 C1980 1.499 . S
C1983 C1984 1.373 . S
C1983 C1985 1.389 . S
C1984 H1957 0.950 . S
C1984 C1970 1.377 . S
C1984 C1983 1.373 . S
C1985 C1969 1.377 . S
C1985 C1983 1.389 . S
C1985 C1986 1.524 . S
C1986 C1985 1.524 . S
C1986 C1987 1.397 . S
C1986 C1991 1.363 . S
C1987 H1958 0.950 . S
C1987 C1986 1.397 . S
C1987 C1988 1.334 . S
C1988 H1959 0.950 . S
C1988 C1987 1.334 . S
C1988 C1989 1.287 . S
C1989 C1988 1.287 . S
C1989 C1990 1.524 . S
C1989 H1992 0.999 . S
C1990 H1960 0.950 . S
C1990 C1989 1.524 . S
C1990 C1991 1.415 . S
C1991 H1961 0.950 . S
C1991 C1986 1.363 . S
C1991 C1990 1.415 . S
H1992 C1989 0.999 . S
H1993 C1974 0.913 . S
H1994 C2012 0.951 . S
H1995 C2014 0.951 1_556 S
H1996 C2016 0.950 1_455 S
H1997 C2017 0.950 1_455 S
H1998 C2019 0.950 . S
H1999 C2022 0.950 . S
H2000 C2023 0.950 . S
H2001 C2025 0.950 . S
H2002 C2026 0.950 . S
H2003 C2027 0.951 . S
H2004 C2029 0.951 . S
H2005 C2031 0.950 . S
H2006 C2032 0.950 . S
H2007 C2034 0.950 . S
H2008 C2037 0.950 . S
H2009 C2038 0.950 . S
H2010 C2040 0.950 . S
H2011 C2041 0.950 . S
C2012 H1994 0.951 . S
C2012 C2013 1.366 . S
C2012 C2014 1.388 . S
C2013 C2012 1.366 . S
C2013 C2017 1.385 . S
C2014 H1995 0.951 1_554 S
C2014 C2012 1.388 . S
C2014 C2015 1.367 . S
C2015 C2014 1.367 . S
C2015 C2016 1.427 . S
C2015 C2018 1.484 1_554 S
C2016 H1996 0.950 1_655 S
C2016 C2015 1.427 . S
C2016 C2017 1.374 . S
C2017 H1997 0.950 1_655 S
C2017 C2013 1.385 . S
C2017 C2016 1.374 . S
C2018 C2015 1.484 1_556 S
C2018 C2019 1.373 1_655 S
C2018 C2020 1.389 . S
C2019 H1998 0.950 . S
C2019 C2018 1.373 1_455 S
C2019 C2035 1.377 . S
C2020 C2018 1.389 . S
C2020 C2021 1.524 1_556 S
C2020 C2034 1.377 . S
C2021 C2020 1.524 1_554 S
C2021 C2022 1.397 . S
C2021 C2026 1.363 1_554 S
C2022 H1999 0.950 . S
C2022 C2021 1.397 . S
C2022 C2023 1.334 . S
C2023 H2000 0.950 . S
C2023 C2022 1.334 . S
C2023 C2024 1.287 . S
C2024 C2023 1.287 . S
C2024 C2025 1.524 . S
C2024 H2043 0.913 . S
C2025 H2001 0.950 . S
C2025 C2024 1.524 . S
C2025 C2026 1.415 1_554 S
C2026 H2002 0.950 . S
C2026 C2021 1.363 1_556 S
C2026 C2025 1.415 1_556 S
C2027 H2003 0.951 . S
C2027 C2028 1.366 . S
C2027 C2029 1.388 . S
C2028 C2027 1.366 . S
C2028 C2032 1.385 1_455 S
C2029 H2004 0.951 . S
C2029 C2027 1.388 . S
C2029 C2030 1.360 1_455 S
C2030 C2029 1.360 1_655 S
C2030 C2031 1.418 . S
C2030 C2033 1.501 . S
C2031 H2005 0.950 . S
C2031 C2030 1.418 . S
C2031 C2032 1.374 . S
C2032 H2006 0.950 . S
C2032 C2028 1.385 1_655 S
C2032 C2031 1.374 . S
C2033 C2030 1.501 . S
C2033 C2034 1.373 . S
C2033 C2035 1.389 1_655 S
C2034 H2007 0.950 . S
C2034 C2020 1.377 . S
C2034 C2033 1.373 . S
C2035 C2019 1.377 . S
C2035 C2033 1.389 1_455 S
C2035 C2036 1.524 . S
C2036 C2035 1.524 . S
C2036 C2037 1.397 . S
C2036 C2041 1.363 . S
C2037 H2008 0.950 . S
C2037 C2036 1.397 . S
C2037 C2038 1.334 . S
C2038 H2009 0.950 . S
C2038 C2037 1.334 . S
C2038 C2039 1.287 . S
C2039 C2038 1.287 . S
C2039 C2040 1.524 . S
C2039 H2042 0.999 . S
C2040 H2010 0.950 . S
C2040 C2039 1.524 . S
C2040 C2041 1.415 . S
C2041 H2011 0.950 . S
C2041 C2036 1.363 . S
C2041 C2040 1.415 . S
H2042 C2039 0.999 . S
H2043 C2024 0.913 . S
H2044 C2062 0.951 . S
H2045 C2064 0.951 . S
H2046 C2066 0.950 . S
H2047 C2067 0.950 . S
H2048 C2069 0.950 . S
H2049 C2072 0.950 . S
H2050 C2073 0.950 . S
H2051 C2075 0.950 . S
H2052 C2076 0.950 . S
H2053 C2077 0.951 . S
H2054 C2079 0.951 . S
H2055 C2081 0.950 . S
H2056 C2082 0.950 . S
H2057 C2084 0.950 . S
H2058 C2087 0.950 . S
H2059 C2088 0.950 . S
H2060 C2090 0.950 . S
H2061 C2091 0.950 . S
C2062 H2044 0.951 . S
C2062 C2063 1.366 . S
C2062 C2064 1.388 . S
C2063 C2062 1.366 . S
C2063 C2067 1.385 . S
C2064 H2045 0.951 . S
C2064 C2062 1.388 . S
C2064 C2065 1.366 . S
C2065 C2064 1.366 . S
C2065 C2066 1.414 . S
C2065 C2068 1.499 . S
C2066 H2046 0.950 . S
C2066 C2065 1.414 . S
C2066 C2067 1.374 . S
C2067 H2047 0.950 . S
C2067 C2063 1.385 . S
C2067 C2066 1.374 . S
C2068 C2065 1.499 . S
C2068 C2069 1.373 . S
C2068 C2070 1.389 . S
C2069 H2048 0.950 . S
C2069 C2068 1.373 . S
C2069 C2085 1.377 . S
C2070 C2068 1.389 . S
C2070 C2071 1.524 . S
C2070 C2084 1.377 . S
C2071 C2070 1.524 . S
C2071 C2072 1.397 . S
C2071 C2076 1.363 . S
C2072 H2049 0.950 . S
C2072 C2071 1.397 . S
C2072 C2073 1.334 . S
C2073 H2050 0.950 . S
C2073 C2072 1.334 . S
C2073 C2074 1.287 . S
C2074 C2073 1.287 . S
C2074 C2075 1.524 . S
C2074 H2093 0.913 . S
C2075 H2051 0.950 . S
C2075 C2074 1.524 . S
C2075 C2076 1.415 . S
C2076 H2052 0.950 . S
C2076 C2071 1.363 . S
C2076 C2075 1.415 . S
C2077 H2053 0.951 . S
C2077 C2078 1.366 . S
C2077 C2079 1.388 . S
C2078 C2077 1.366 . S
C2078 C2082 1.385 . S
C2079 H2054 0.951 . S
C2079 C2077 1.388 . S
C2079 C2080 1.366 . S
C2080 C2079 1.366 . S
C2080 C2081 1.414 . S
C2080 C2083 1.499 . S
C2081 H2055 0.950 . S
C2081 C2080 1.414 . S
C2081 C2082 1.374 . S
C2082 H2056 0.950 . S
C2082 C2078 1.385 . S
C2082 C2081 1.374 . S
C2083 C2080 1.499 . S
C2083 C2084 1.373 . S
C2083 C2085 1.389 . S
C2084 H2057 0.950 . S
C2084 C2070 1.377 . S
C2084 C2083 1.373 . S
C2085 C2069 1.377 . S
C2085 C2083 1.389 . S
C2085 C2086 1.524 . S
C2086 C2085 1.524 . S
C2086 C2087 1.397 . S
C2086 C2091 1.363 . S
C2087 H2058 0.950 . S
C2087 C2086 1.397 . S
C2087 C2088 1.334 . S
C2088 H2059 0.950 . S
C2088 C2087 1.334 . S
C2088 C2089 1.287 . S
C2089 C2088 1.287 . S
C2089 C2090 1.524 . S
C2089 H2092 0.999 . S
C2090 H2060 0.950 . S
C2090 C2089 1.524 . S
C2090 C2091 1.415 . S
C2091 H2061 0.950 . S
C2091 C2086 1.363 . S
C2091 C2090 1.415 . S
H2092 C2089 0.999 . S
H2093 C2074 0.913 . S
H2094 C2112 0.948 1_556 S
H2095 C2114 0.951 . S
H2096 C2116 0.950 . S
H2097 C2117 0.950 . S
H2098 C2119 0.950 1_554 S
H2099 C2122 0.950 . S
H2100 C2123 0.950 . S
H2101 C2125 0.950 . S
H2102 C2126 0.950 . S
H2103 C2127 0.951 . S
H2104 C2129 0.951 . S
H2105 C2131 0.950 . S
H2106 C2132 0.950 . S
H2107 C2134 0.950 . S
H2108 C2137 0.950 . S
H2109 C2138 0.950 . S
H2110 C2140 0.950 . S
H2111 C2141 0.950 . S
C2112 H2094 0.948 1_554 S
C2112 C2113 1.391 . S
C2112 C2114 1.366 1_554 S
C2113 C2112 1.391 . S
C2113 C2117 1.385 . S
C2114 H2095 0.951 . S
C2114 C2112 1.366 1_556 S
C2114 C2115 1.366 . S
C2115 C2114 1.366 . S
C2115 C2116 1.414 1_556 S
C2115 C2118 1.499 . S
C2116 H2096 0.950 . S
C2116 C2115 1.414 1_554 S
C2116 C2117 1.374 . S
C2117 H2097 0.950 . S
C2117 C2113 1.385 . S
C2117 C2116 1.374 . S
C2118 C2115 1.499 . S
C2118 C2119 1.373 . S
C2118 C2120 1.389 . S
C2119 H2098 0.950 1_556 S
C2119 C2118 1.373 . S
C2119 C2135 1.377 . S
C2120 C2118 1.389 . S
C2120 C2121 1.524 . S
C2120 C2134 1.377 . S
C2121 C2120 1.524 . S
C2121 C2122 1.397 . S
C2121 C2126 1.363 . S
C2122 H2099 0.950 . S
C2122 C2121 1.397 . S
C2122 C2123 1.334 . S
C2123 H2100 0.950 . S
C2123 C2122 1.334 . S
C2123 C2124 1.287 . S
C2124 C2123 1.287 . S
C2124 C2125 1.524 . S
C2124 H2143 0.913 . S
C2125 H2101 0.950 . S
C2125 C2124 1.524 . S
C2125 C2126 1.415 . S
C2126 H2102 0.950 . S
C2126 C2121 1.363 . S
C2126 C2125 1.415 . S
C2127 H2103 0.951 . S
C2127 C2128 1.366 . S
C2127 C2129 1.388 . S
C2128 C2127 1.366 . S
C2128 C2132 1.385 . S
C2129 H2104 0.951 . S
C2129 C2127 1.388 . S
C2129 C2130 1.366 . S
C2130 C2129 1.366 . S
C2130 C2131 1.414 . S
C2130 C2133 1.499 . S
C2131 H2105 0.950 . S
C2131 C2130 1.414 . S
C2131 C2132 1.374 . S
C2132 H2106 0.950 . S
C2132 C2128 1.385 . S
C2132 C2131 1.374 . S
C2133 C2130 1.499 . S
C2133 C2134 1.373 . S
C2133 C2135 1.389 . S
C2134 H2107 0.950 . S
C2134 C2120 1.377 . S
C2134 C2133 1.373 . S
C2135 C2119 1.377 . S
C2135 C2133 1.389 . S
C2135 C2136 1.524 . S
C2136 C2135 1.524 . S
C2136 C2137 1.397 . S
C2136 C2141 1.363 1_556 S
C2137 H2108 0.950 . S
C2137 C2136 1.397 . S
C2137 C2138 1.334 1_455 S
C2138 H2109 0.950 . S
C2138 C2137 1.334 1_655 S
C2138 C2139 1.287 1_656 S
C2139 C2138 1.287 1_454 S
C2139 C2140 1.524 . S
C2139 H2142 0.999 1_455 S
C2140 H2110 0.950 . S
C2140 C2139 1.524 . S
C2140 C2141 1.415 . S
C2141 H2111 0.950 . S
C2141 C2136 1.363 1_554 S
C2141 C2140 1.415 . S
H2142 C2139 0.999 1_655 S
H2143 C2124 0.913 . S
H2144 C2162 0.951 . S
H2145 C2164 0.951 . S
H2146 C2166 0.950 . S
H2147 C2167 0.950 . S
H2148 C2169 0.950 . S
H2149 C2172 0.950 . S
H2150 C2173 0.950 . S
H2151 C2175 0.950 . S
H2152 C2176 0.950 . S
H2153 C2177 0.951 . S
H2154 C2179 0.951 . S
H2155 C2181 0.950 . S
H2156 C2182 0.950 . S
H2157 C2184 0.950 . S
H2158 C2187 0.950 . S
H2159 C2188 0.950 . S
H2160 C2190 0.950 . S
H2161 C2191 0.950 . S
C2162 H2144 0.951 . S
C2162 C2163 1.366 . S
C2162 C2164 1.388 . S
C2163 C2162 1.366 . S
C2163 C2167 1.385 . S
C2164 H2145 0.951 . S
C2164 C2162 1.388 . S
C2164 C2165 1.366 . S
C2165 C2164 1.366 . S
C2165 C2166 1.414 . S
C2165 C2168 1.499 . S
C2166 H2146 0.950 . S
C2166 C2165 1.414 . S
C2166 C2167 1.374 . S
C2167 H2147 0.950 . S
C2167 C2163 1.385 . S
C2167 C2166 1.374 . S
C2168 C2165 1.499 . S
C2168 C2169 1.373 . S
C2168 C2170 1.389 . S
C2169 H2148 0.950 . S
C2169 C2168 1.373 . S
C2169 C2185 1.377 . S
C2170 C2168 1.389 . S
C2170 C2171 1.524 . S
C2170 C2184 1.377 . S
C2171 C2170 1.524 . S
C2171 C2172 1.397 . S
C2171 C2176 1.363 . S
C2172 H2149 0.950 . S
C2172 C2171 1.397 . S
C2172 C2173 1.334 . S
C2173 H2150 0.950 . S
C2173 C2172 1.334 . S
C2173 C2174 1.287 . S
C2174 C2173 1.287 . S
C2174 C2175 1.524 . S
C2174 H2193 0.913 . S
C2175 H2151 0.950 . S
C2175 C2174 1.524 . S
C2175 C2176 1.415 . S
C2176 H2152 0.950 . S
C2176 C2171 1.363 . S
C2176 C2175 1.415 . S
C2177 H2153 0.951 . S
C2177 C2178 1.366 . S
C2177 C2179 1.388 . S
C2178 C2177 1.366 . S
C2178 C2182 1.385 . S
C2179 H2154 0.951 . S
C2179 C2177 1.388 . S
C2179 C2180 1.366 . S
C2180 C2179 1.366 . S
C2180 C2181 1.414 . S
C2180 C2183 1.499 . S
C2181 H2155 0.950 . S
C2181 C2180 1.414 . S
C2181 C2182 1.374 . S
C2182 H2156 0.950 . S
C2182 C2178 1.385 . S
C2182 C2181 1.374 . S
C2183 C2180 1.499 . S
C2183 C2184 1.373 . S
C2183 C2185 1.389 . S
C2184 H2157 0.950 . S
C2184 C2170 1.377 . S
C2184 C2183 1.373 . S
C2185 C2169 1.377 . S
C2185 C2183 1.389 . S
C2185 C2186 1.524 . S
C2186 C2185 1.524 . S
C2186 C2187 1.397 . S
C2186 C2191 1.363 . S
C2187 H2158 0.950 . S
C2187 C2186 1.397 . S
C2187 C2188 1.334 . S
C2188 H2159 0.950 . S
C2188 C2187 1.334 . S
C2188 C2189 1.287 . S
C2189 C2188 1.287 . S
C2189 C2190 1.524 . S
C2189 H2192 0.999 . S
C2190 H2160 0.950 . S
C2190 C2189 1.524 . S
C2190 C2191 1.415 . S
C2191 H2161 0.950 . S
C2191 C2186 1.363 . S
C2191 C2190 1.415 . S
H2192 C2189 0.999 . S
H2193 C2174 0.913 . S
H2194 C2212 0.951 . S
H2195 C2214 0.951 . S
H2196 C2216 0.950 . S
H2197 C2217 0.950 1_556 S
H2198 C2219 0.950 . S
H2199 C2222 0.950 . S
H2200 C2223 0.950 . S
H2201 C2225 0.950 . S
H2202 C2226 0.950 . S
H2203 C2227 0.951 . S
H2204 C2229 0.951 . S
H2205 C2231 0.950 . S
H2206 C2232 0.950 . S
H2207 C2234 0.950 . S
H2208 C2237 0.950 . S
H2209 C2238 0.950 . S
H2210 C2240 0.950 . S
H2211 C2241 0.950 . S
C2212 H2194 0.951 . S
C2212 C2213 1.366 . S
C2212 C2214 1.388 . S
C2213 C2212 1.366 . S
C2213 C2217 1.385 . S
C2214 H2195 0.951 . S
C2214 C2212 1.388 . S
C2214 C2215 1.366 . S
C2215 C2214 1.366 . S
C2215 C2216 1.414 . S
C2215 C2218 1.499 . S
C2216 H2196 0.950 . S
C2216 C2215 1.414 . S
C2216 C2217 1.374 . S
C2217 H2197 0.950 1_554 S
C2217 C2213 1.385 . S
C2217 C2216 1.374 . S
C2218 C2215 1.499 . S
C2218 C2219 1.373 . S
C2218 C2220 1.389 . S
C2219 H2198 0.950 . S
C2219 C2218 1.373 . S
C2219 C2235 1.377 . S
C2220 C2218 1.389 . S
C2220 C2221 1.524 . S
C2220 C2234 1.377 . S
C2221 C2220 1.524 . S
C2221 C2222 1.397 . S
C2221 C2226 1.363 . S
C2222 H2199 0.950 . S
C2222 C2221 1.397 . S
C2222 C2223 1.334 . S
C2223 H2200 0.950 . S
C2223 C2222 1.334 . S
C2223 C2224 1.287 . S
C2224 C2223 1.287 . S
C2224 C2225 1.524 . S
C2224 H2243 0.913 . S
C2225 H2201 0.950 . S
C2225 C2224 1.524 . S
C2225 C2226 1.415 . S
C2226 H2202 0.950 . S
C2226 C2221 1.363 . S
C2226 C2225 1.415 . S
C2227 H2203 0.951 . S
C2227 C2228 1.366 . S
C2227 C2229 1.388 . S
C2228 C2227 1.366 . S
C2228 C2232 1.385 . S
C2229 H2204 0.951 . S
C2229 C2227 1.388 . S
C2229 C2230 1.366 . S
C2230 C2229 1.366 . S
C2230 C2231 1.414 . S
C2230 C2233 1.499 . S
C2231 H2205 0.950 . S
C2231 C2230 1.414 . S
C2231 C2232 1.374 . S
C2232 H2206 0.950 . S
C2232 C2228 1.385 . S
C2232 C2231 1.374 . S
C2233 C2230 1.499 . S
C2233 C2234 1.373 . S
C2233 C2235 1.389 . S
C2234 H2207 0.950 . S
C2234 C2220 1.377 . S
C2234 C2233 1.373 . S
C2235 C2219 1.377 . S
C2235 C2233 1.389 . S
C2235 C2236 1.524 . S
C2236 C2235 1.524 . S
C2236 C2237 1.397 . S
C2236 C2241 1.363 . S
C2237 H2208 0.950 . S
C2237 C2236 1.397 . S
C2237 C2238 1.334 . S
C2238 H2209 0.950 . S
C2238 C2237 1.334 . S
C2238 C2239 1.287 . S
C2239 C2238 1.287 . S
C2239 C2240 1.524 . S
C2239 H2242 0.999 . S
C2240 H2210 0.950 . S
C2240 C2239 1.524 . S
C2240 C2241 1.415 . S
C2241 H2211 0.950 . S
C2241 C2236 1.363 . S
C2241 C2240 1.415 . S
H2242 C2239 0.999 . S
H2243 C2224 0.913 . S
H2244 C2262 0.951 . S
H2245 C2264 0.951 . S
H2246 C2266 0.950 . S
H2247 C2267 0.950 . S
H2248 C2269 0.950 . S
H2249 C2272 0.950 . S
H2250 C2273 0.950 . S
H2251 C2275 0.950 . S
H2252 C2276 0.950 . S
H2253 C2277 0.951 . S
H2254 C2279 0.951 . S
H2255 C2281 0.950 . S
H2256 C2282 0.950 . S
H2257 C2284 0.950 . S
H2258 C2287 0.950 . S
H2259 C2288 0.950 . S
H2260 C2290 0.950 . S
H2261 C2291 0.950 . S
C2262 H2244 0.951 . S
C2262 C2263 1.366 . S
C2262 C2264 1.388 . S
C2263 C2262 1.366 . S
C2263 C2267 1.385 . S
C2264 H2245 0.951 . S
C2264 C2262 1.388 . S
C2264 C2265 1.366 . S
C2265 C2264 1.366 . S
C2265 C2266 1.414 . S
C2265 C2268 1.499 . S
C2266 H2246 0.950 . S
C2266 C2265 1.414 . S
C2266 C2267 1.374 . S
C2267 H2247 0.950 . S
C2267 C2263 1.385 . S
C2267 C2266 1.374 . S
C2268 C2265 1.499 . S
C2268 C2269 1.373 . S
C2268 C2270 1.389 . S
C2269 H2248 0.950 . S
C2269 C2268 1.373 . S
C2269 C2285 1.377 . S
C2270 C2268 1.389 . S
C2270 C2271 1.524 . S
C2270 C2284 1.377 . S
C2271 C2270 1.524 . S
C2271 C2272 1.397 . S
C2271 C2276 1.363 . S
C2272 H2249 0.950 . S
C2272 C2271 1.397 . S
C2272 C2273 1.334 . S
C2273 H2250 0.950 . S
C2273 C2272 1.334 . S
C2273 C2274 1.287 . S
C2274 C2273 1.287 . S
C2274 C2275 1.524 . S
C2274 H2293 0.913 . S
C2275 H2251 0.950 . S
C2275 C2274 1.524 . S
C2275 C2276 1.415 . S
C2276 H2252 0.950 . S
C2276 C2271 1.363 . S
C2276 C2275 1.415 . S
C2277 H2253 0.951 . S
C2277 C2278 1.366 . S
C2277 C2279 1.388 . S
C2278 C2277 1.366 . S
C2278 C2282 1.385 . S
C2279 H2254 0.951 . S
C2279 C2277 1.388 . S
C2279 C2280 1.366 . S
C2280 C2279 1.366 . S
C2280 C2281 1.414 . S
C2280 C2283 1.499 . S
C2281 H2255 0.950 . S
C2281 C2280 1.414 . S
C2281 C2282 1.374 . S
C2282 H2256 0.950 . S
C2282 C2278 1.385 . S
C2282 C2281 1.374 . S
C2283 C2280 1.499 . S
C2283 C2284 1.373 . S
C2283 C2285 1.389 . S
C2284 H2257 0.950 . S
C2284 C2270 1.377 . S
C2284 C2283 1.373 . S
C2285 C2269 1.377 . S
C2285 C2283 1.389 . S
C2285 C2286 1.524 . S
C2286 C2285 1.524 . S
C2286 C2287 1.397 . S
C2286 C2291 1.363 . S
C2287 H2258 0.950 . S
C2287 C2286 1.397 . S
C2287 C2288 1.334 . S
C2288 H2259 0.950 . S
C2288 C2287 1.334 . S
C2288 C2289 1.287 . S
C2289 C2288 1.287 . S
C2289 C2290 1.524 . S
C2289 H2292 0.999 . S
C2290 H2260 0.950 . S
C2290 C2289 1.524 . S
C2290 C2291 1.415 . S
C2291 H2261 0.950 . S
C2291 C2286 1.363 . S
C2291 C2290 1.415 . S
H2292 C2289 0.999 . S
H2293 C2274 0.913 . S
H2294 C2312 0.951 . S
H2295 C2314 0.951 . S
H2296 C2316 0.950 . S
H2297 C2317 0.950 . S
H2298 C2319 0.950 . S
H2299 C2322 0.950 . S
H2300 C2323 0.950 . S
H2301 C2325 0.950 . S
H2302 C2326 0.950 1_554 S
H2303 C2327 0.951 . S
H2304 C2329 0.951 . S
H2305 C2331 0.950 . S
H2306 C2332 0.950 . S
H2307 C2334 0.950 . S
H2308 C2337 0.950 . S
H2309 C2338 0.950 . S
H2310 C2340 0.950 . S
H2311 C2341 0.950 . S
C2312 H2294 0.951 . S
C2312 C2313 1.366 . S
C2312 C2314 1.388 . S
C2313 C2312 1.366 . S
C2313 C2317 1.385 . S
C2314 H2295 0.951 . S
C2314 C2312 1.388 . S
C2314 C2315 1.366 1_556 S
C2315 C2314 1.366 1_554 S
C2315 C2316 1.414 . S
C2315 C2318 1.499 . S
C2316 H2296 0.950 . S
C2316 C2315 1.414 . S
C2316 C2317 1.374 1_554 S
C2317 H2297 0.950 . S
C2317 C2313 1.385 . S
C2317 C2316 1.374 1_556 S
C2318 C2315 1.499 . S
C2318 C2319 1.373 . S
C2318 C2320 1.389 . S
C2319 H2298 0.950 . S
C2319 C2318 1.373 . S
C2319 C2335 1.377 . S
C2320 C2318 1.389 . S
C2320 C2321 1.524 . S
C2320 C2334 1.377 . S
C2321 C2320 1.524 . S
C2321 C2322 1.397 1_554 S
C2321 C2326 1.363 1_554 S
C2322 H2299 0.950 . S
C2322 C2321 1.397 1_556 S
C2322 C2323 1.334 . S
C2323 H2300 0.950 . S
C2323 C2322 1.334 . S
C2323 C2324 1.287 . S
C2324 C2323 1.287 . S
C2324 C2325 1.524 . S
C2324 H2343 0.913 . S
C2325 H2301 0.950 . S
C2325 C2324 1.524 . S
C2325 C2326 1.415 . S
C2326 H2302 0.950 1_556 S
C2326 C2321 1.363 1_556 S
C2326 C2325 1.415 . S
C2327 H2303 0.951 . S
C2327 C2328 1.366 . S
C2327 C2329 1.388 . S
C2328 C2327 1.366 . S
C2328 C2332 1.385 . S
C2329 H2304 0.951 . S
C2329 C2327 1.388 . S
C2329 C2330 1.366 . S
C2330 C2329 1.366 . S
C2330 C2331 1.414 . S
C2330 C2333 1.499 . S
C2331 H2305 0.950 . S
C2331 C2330 1.414 . S
C2331 C2332 1.374 . S
C2332 H2306 0.950 . S
C2332 C2328 1.385 . S
C2332 C2331 1.374 . S
C2333 C2330 1.499 . S
C2333 C2334 1.373 . S
C2333 C2335 1.389 . S
C2334 H2307 0.950 . S
C2334 C2320 1.377 . S
C2334 C2333 1.373 . S
C2335 C2319 1.377 . S
C2335 C2333 1.389 . S
C2335 C2336 1.524 . S
C2336 C2335 1.524 . S
C2336 C2337 1.397 . S
C2336 C2341 1.363 . S
C2337 H2308 0.950 . S
C2337 C2336 1.397 . S
C2337 C2338 1.334 . S
C2338 H2309 0.950 . S
C2338 C2337 1.334 . S
C2338 C2339 1.287 . S
C2339 C2338 1.287 . S
C2339 C2340 1.524 . S
C2339 H2342 0.999 . S
C2340 H2310 0.950 . S
C2340 C2339 1.524 . S
C2340 C2341 1.415 . S
C2341 H2311 0.950 . S
C2341 C2336 1.363 . S
C2341 C2340 1.415 . S
H2342 C2339 0.999 . S
H2343 C2324 0.913 . S
H2344 C2362 0.951 . S
H2345 C2364 0.951 . S
H2346 C2366 0.950 . S
H2347 C2367 0.950 . S
H2348 C2369 0.950 . S
H2349 C2372 0.950 . S
H2350 C2373 0.950 . S
H2351 C2375 0.950 . S
H2352 C2376 0.950 . S
H2353 C2377 0.951 . S
H2354 C2379 0.951 . S
H2355 C2381 0.950 . S
H2356 C2382 0.950 . S
H2357 C2384 0.950 . S
H2358 C2387 0.950 . S
H2359 C2388 0.950 . S
H2360 C2390 0.950 . S
H2361 C2391 0.950 . S
C2362 H2344 0.951 . S
C2362 C2363 1.366 . S
C2362 C2364 1.388 . S
C2363 C2362 1.366 . S
C2363 C2367 1.385 . S
C2364 H2345 0.951 . S
C2364 C2362 1.388 . S
C2364 C2365 1.366 . S
C2365 C2364 1.366 . S
C2365 C2366 1.414 . S
C2365 C2368 1.499 . S
C2366 H2346 0.950 . S
C2366 C2365 1.414 . S
C2366 C2367 1.374 . S
C2367 H2347 0.950 . S
C2367 C2363 1.385 . S
C2367 C2366 1.374 . S
C2368 C2365 1.499 . S
C2368 C2369 1.373 . S
C2368 C2370 1.389 . S
C2369 H2348 0.950 . S
C2369 C2368 1.373 . S
C2369 C2385 1.377 . S
C2370 C2368 1.389 . S
C2370 C2371 1.524 . S
C2370 C2384 1.377 . S
C2371 C2370 1.524 . S
C2371 C2372 1.397 . S
C2371 C2376 1.363 . S
C2372 H2349 0.950 . S
C2372 C2371 1.397 . S
C2372 C2373 1.334 . S
C2373 H2350 0.950 . S
C2373 C2372 1.334 . S
C2373 C2374 1.287 . S
C2374 C2373 1.287 . S
C2374 C2375 1.524 . S
C2374 H2393 0.913 . S
C2375 H2351 0.950 . S
C2375 C2374 1.524 . S
C2375 C2376 1.415 . S
C2376 H2352 0.950 . S
C2376 C2371 1.363 . S
C2376 C2375 1.415 . S
C2377 H2353 0.951 . S
C2377 C2378 1.366 . S
C2377 C2379 1.388 . S
C2378 C2377 1.366 . S
C2378 C2382 1.385 . S
C2379 H2354 0.951 . S
C2379 C2377 1.388 . S
C2379 C2380 1.366 . S
C2380 C2379 1.366 . S
C2380 C2381 1.414 . S
C2380 C2383 1.499 . S
C2381 H2355 0.950 . S
C2381 C2380 1.414 . S
C2381 C2382 1.374 . S
C2382 H2356 0.950 . S
C2382 C2378 1.385 . S
C2382 C2381 1.374 . S
C2383 C2380 1.499 . S
C2383 C2384 1.373 . S
C2383 C2385 1.389 . S
C2384 H2357 0.950 . S
C2384 C2370 1.377 . S
C2384 C2383 1.373 . S
C2385 C2369 1.377 . S
C2385 C2383 1.389 . S
C2385 C2386 1.524 . S
C2386 C2385 1.524 . S
C2386 C2387 1.397 . S
C2386 C2391 1.363 . S
C2387 H2358 0.950 . S
C2387 C2386 1.397 . S
C2387 C2388 1.334 . S
C2388 H2359 0.950 . S
C2388 C2387 1.334 . S
C2388 C2389 1.287 . S
C2389 C2388 1.287 . S
C2389 C2390 1.524 . S
C2389 H2392 0.999 . S
C2390 H2360 0.950 . S
C2390 C2389 1.524 . S
C2390 C2391 1.415 . S
C2391 H2361 0.950 . S
C2391 C2386 1.363 . S
C2391 C2390 1.415 . S
H2392 C2389 0.999 . S
H2393 C2374 0.913 . S
H2394 C2412 0.951 . S
H2395 C2414 0.951 . S
H2396 C2416 0.950 . S
H2397 C2417 0.950 . S
H2398 C2419 0.950 . S
H2399 C2422 0.950 . S
H2400 C2423 0.950 . S
H2401 C2425 0.950 . S
H2402 C2426 0.950 . S
H2403 C2427 0.951 . S
H2404 C2429 0.951 . S
H2405 C2431 0.950 . S
H2406 C2432 0.950 . S
H2407 C2434 0.950 . S
H2408 C2437 0.950 . S
H2409 C2438 0.950 . S
H2410 C2440 0.950 . S
H2411 C2441 0.950 . S
C2412 H2394 0.951 . S
C2412 C2413 1.366 . S
C2412 C2414 1.388 . S
C2413 C2412 1.366 . S
C2413 C2417 1.385 . S
C2414 H2395 0.951 . S
C2414 C2412 1.388 . S
C2414 C2415 1.366 . S
C2415 C2414 1.366 . S
C2415 C2416 1.414 . S
C2415 C2418 1.499 . S
C2416 H2396 0.950 . S
C2416 C2415 1.414 . S
C2416 C2417 1.374 . S
C2417 H2397 0.950 . S
C2417 C2413 1.385 . S
C2417 C2416 1.374 . S
C2418 C2415 1.499 . S
C2418 C2419 1.373 . S
C2418 C2420 1.389 . S
C2419 H2398 0.950 . S
C2419 C2418 1.373 . S
C2419 C2435 1.377 . S
C2420 C2418 1.389 . S
C2420 C2421 1.524 . S
C2420 C2434 1.377 . S
C2421 C2420 1.524 . S
C2421 C2422 1.397 . S
C2421 C2426 1.363 . S
C2422 H2399 0.950 . S
C2422 C2421 1.397 . S
C2422 C2423 1.334 . S
C2423 H2400 0.950 . S
C2423 C2422 1.334 . S
C2423 C2424 1.287 . S
C2424 C2423 1.287 . S
C2424 C2425 1.524 . S
C2424 H2443 0.913 . S
C2425 H2401 0.950 . S
C2425 C2424 1.524 . S
C2425 C2426 1.415 . S
C2426 H2402 0.950 . S
C2426 C2421 1.363 . S
C2426 C2425 1.415 . S
C2427 H2403 0.951 . S
C2427 C2428 1.366 . S
C2427 C2429 1.388 . S
C2428 C2427 1.366 . S
C2428 C2432 1.385 . S
C2429 H2404 0.951 . S
C2429 C2427 1.388 . S
C2429 C2430 1.366 . S
C2430 C2429 1.366 . S
C2430 C2431 1.414 . S
C2430 C2433 1.499 . S
C2431 H2405 0.950 . S
C2431 C2430 1.414 . S
C2431 C2432 1.374 . S
C2432 H2406 0.950 . S
C2432 C2428 1.385 . S
C2432 C2431 1.374 . S
C2433 C2430 1.499 . S
C2433 C2434 1.373 . S
C2433 C2435 1.389 . S
C2434 H2407 0.950 . S
C2434 C2420 1.377 . S
C2434 C2433 1.373 . S
C2435 C2419 1.377 . S
C2435 C2433 1.389 . S
C2435 C2436 1.524 . S
C2436 C2435 1.524 . S
C2436 C2437 1.397 . S
C2436 C2441 1.363 . S
C2437 H2408 0.950 . S
C2437 C2436 1.397 . S
C2437 C2438 1.334 . S
C2438 H2409 0.950 . S
C2438 C2437 1.334 . S
C2438 C2439 1.287 . S
C2439 C2438 1.287 . S
C2439 C2440 1.524 . S
C2439 H2442 0.999 . S
C2440 H2410 0.950 . S
C2440 C2439 1.524 . S
C2440 C2441 1.415 . S
C2441 H2411 0.950 . S
C2441 C2436 1.363 . S
C2441 C2440 1.415 . S
H2442 C2439 0.999 . S
H2443 C2424 0.913 . S
H2444 C2462 0.951 . S
H2445 C2464 0.951 . S
H2446 C2466 0.950 . S
H2447 C2467 0.950 . S
H2448 C2469 0.950 . S
H2449 C2472 0.950 . S
H2450 C2473 0.950 . S
H2451 C2475 0.950 . S
H2452 C2476 0.950 . S
H2453 C2477 0.951 . S
H2454 C2479 0.951 . S
H2455 C2481 0.950 . S
H2456 C2482 0.950 . S
H2457 C2484 0.950 . S
H2458 C2487 0.950 . S
H2459 C2488 0.950 . S
H2460 C2490 0.950 . S
H2461 C2491 0.950 . S
C2462 H2444 0.951 . S
C2462 C2463 1.366 . S
C2462 C2464 1.388 . S
C2463 C2462 1.366 . S
C2463 C2467 1.385 . S
C2464 H2445 0.951 . S
C2464 C2462 1.388 . S
C2464 C2465 1.366 . S
C2465 C2464 1.366 . S
C2465 C2466 1.414 . S
C2465 C2468 1.499 . S
C2466 H2446 0.950 . S
C2466 C2465 1.414 . S
C2466 C2467 1.374 . S
C2467 H2447 0.950 . S
C2467 C2463 1.385 . S
C2467 C2466 1.374 . S
C2468 C2465 1.499 . S
C2468 C2469 1.373 . S
C2468 C2470 1.389 . S
C2469 H2448 0.950 . S
C2469 C2468 1.373 . S
C2469 C2485 1.377 . S
C2470 C2468 1.389 . S
C2470 C2471 1.524 . S
C2470 C2484 1.377 . S
C2471 C2470 1.524 . S
C2471 C2472 1.397 . S
C2471 C2476 1.363 . S
C2472 H2449 0.950 . S
C2472 C2471 1.397 . S
C2472 C2473 1.334 . S
C2473 H2450 0.950 . S
C2473 C2472 1.334 . S
C2473 C2474 1.287 . S
C2474 C2473 1.287 . S
C2474 C2475 1.524 . S
C2474 H2493 0.913 . S
C2475 H2451 0.950 . S
C2475 C2474 1.524 . S
C2475 C2476 1.415 . S
C2476 H2452 0.950 . S
C2476 C2471 1.363 . S
C2476 C2475 1.415 . S
C2477 H2453 0.951 . S
C2477 C2478 1.366 . S
C2477 C2479 1.388 . S
C2478 C2477 1.366 . S
C2478 C2482 1.385 . S
C2479 H2454 0.951 . S
C2479 C2477 1.388 . S
C2479 C2480 1.366 . S
C2480 C2479 1.366 . S
C2480 C2481 1.414 . S
C2480 C2483 1.499 . S
C2481 H2455 0.950 . S
C2481 C2480 1.414 . S
C2481 C2482 1.374 . S
C2482 H2456 0.950 . S
C2482 C2478 1.385 . S
C2482 C2481 1.374 . S
C2483 C2480 1.499 . S
C2483 C2484 1.373 . S
C2483 C2485 1.389 . S
C2484 H2457 0.950 . S
C2484 C2470 1.377 . S
C2484 C2483 1.373 . S
C2485 C2469 1.377 . S
C2485 C2483 1.389 . S
C2485 C2486 1.524 . S
C2486 C2485 1.524 . S
C2486 C2487 1.397 . S
C2486 C2491 1.363 . S
C2487 H2458 0.950 . S
C2487 C2486 1.397 . S
C2487 C2488 1.334 . S
C2488 H2459 0.950 . S
C2488 C2487 1.334 . S
C2488 C2489 1.287 . S
C2489 C2488 1.287 . S
C2489 C2490 1.524 . S
C2489 H2492 0.999 . S
C2490 H2460 0.950 . S
C2490 C2489 1.524 . S
C2490 C2491 1.415 . S
C2491 H2461 0.950 . S
C2491 C2486 1.363 . S
C2491 C2490 1.415 . S
H2492 C2489 0.999 . S
H2493 C2474 0.913 . S
H2494 C2512 0.951 . S
H2495 C2514 0.951 . S
H2496 C2516 0.950 . S
H2497 C2517 0.950 . S
H2498 C2519 0.950 . S
H2499 C2522 0.950 . S
H2500 C2523 0.950 . S
H2501 C2525 0.950 . S
H2502 C2526 0.950 . S
H2503 C2527 0.951 . S
H2504 C2529 0.951 . S
H2505 C2531 0.950 . S
H2506 C2532 0.950 . S
H2507 C2534 0.950 . S
H2508 C2537 0.950 . S
H2509 C2538 0.950 . S
H2510 C2540 0.950 . S
H2511 C2541 0.950 . S
C2512 H2494 0.951 . S
C2512 C2513 1.366 . S
C2512 C2514 1.388 . S
C2513 C2512 1.366 . S
C2513 C2517 1.385 . S
C2514 H2495 0.951 . S
C2514 C2512 1.388 . S
C2514 C2515 1.366 . S
C2515 C2514 1.366 . S
C2515 C2516 1.414 . S
C2515 C2518 1.499 . S
C2516 H2496 0.950 . S
C2516 C2515 1.414 . S
C2516 C2517 1.374 . S
C2517 H2497 0.950 . S
C2517 C2513 1.385 . S
C2517 C2516 1.374 . S
C2518 C2515 1.499 . S
C2518 C2519 1.373 . S
C2518 C2520 1.389 . S
C2519 H2498 0.950 . S
C2519 C2518 1.373 . S
C2519 C2535 1.377 . S
C2520 C2518 1.389 . S
C2520 C2521 1.524 . S
C2520 C2534 1.377 . S
C2521 C2520 1.524 . S
C2521 C2522 1.397 . S
C2521 C2526 1.363 . S
C2522 H2499 0.950 . S
C2522 C2521 1.397 . S
C2522 C2523 1.334 . S
C2523 H2500 0.950 . S
C2523 C2522 1.334 . S
C2523 C2524 1.287 . S
C2524 C2523 1.287 . S
C2524 C2525 1.524 . S
C2524 H2543 0.913 . S
C2525 H2501 0.950 . S
C2525 C2524 1.524 . S
C2525 C2526 1.415 . S
C2526 H2502 0.950 . S
C2526 C2521 1.363 . S
C2526 C2525 1.415 . S
C2527 H2503 0.951 . S
C2527 C2528 1.366 . S
C2527 C2529 1.388 . S
C2528 C2527 1.366 . S
C2528 C2532 1.385 . S
C2529 H2504 0.951 . S
C2529 C2527 1.388 . S
C2529 C2530 1.366 . S
C2530 C2529 1.366 . S
C2530 C2531 1.414 . S
C2530 C2533 1.499 . S
C2531 H2505 0.950 . S
C2531 C2530 1.414 . S
C2531 C2532 1.374 . S
C2532 H2506 0.950 . S
C2532 C2528 1.385 . S
C2532 C2531 1.374 . S
C2533 C2530 1.499 . S
C2533 C2534 1.373 . S
C2533 C2535 1.389 . S
C2534 H2507 0.950 . S
C2534 C2520 1.377 . S
C2534 C2533 1.373 . S
C2535 C2519 1.377 . S
C2535 C2533 1.389 . S
C2535 C2536 1.524 . S
C2536 C2535 1.524 . S
C2536 C2537 1.397 . S
C2536 C2541 1.363 . S
C2537 H2508 0.950 . S
C2537 C2536 1.397 . S
C2537 C2538 1.334 . S
C2538 H2509 0.950 . S
C2538 C2537 1.334 . S
C2538 C2539 1.287 . S
C2539 C2538 1.287 . S
C2539 C2540 1.524 . S
C2539 H2542 0.999 . S
C2540 H2510 0.950 . S
C2540 C2539 1.524 . S
C2540 C2541 1.415 . S
C2541 H2511 0.950 . S
C2541 C2536 1.363 . S
C2541 C2540 1.415 . S
H2542 C2539 0.999 . S
H2543 C2524 0.913 . S
H2544 C2562 0.951 1_554 S
H2545 C2564 0.951 1_554 S
H2546 C2566 0.950 . S
H2547 C2567 0.950 . S
H2548 C2569 0.950 . S
H2549 C2572 0.950 . S
H2550 C2573 0.950 . S
H2551 C2575 0.950 . S
H2552 C2576 0.950 . S
H2553 C2577 0.951 . S
H2554 C2579 0.951 . S
H2555 C2581 0.950 . S
H2556 C2582 0.950 . S
H2557 C2584 0.950 . S
H2558 C2587 0.950 . S
H2559 C2588 0.950 . S
H2560 C2590 0.950 . S
H2561 C2591 0.950 . S
C2562 H2544 0.951 1_556 S
C2562 C2563 1.366 . S
C2562 C2564 1.388 . S
C2563 C2562 1.366 . S
C2563 C2567 1.385 . S
C2564 H2545 0.951 1_556 S
C2564 C2562 1.388 . S
C2564 C2565 1.366 . S
C2565 C2564 1.366 . S
C2565 C2566 1.414 . S
C2565 C2568 1.499 . S
C2566 H2546 0.950 . S
C2566 C2565 1.414 . S
C2566 C2567 1.374 . S
C2567 H2547 0.950 . S
C2567 C2563 1.385 . S
C2567 C2566 1.374 . S
C2568 C2565 1.499 . S
C2568 C2569 1.373 . S
C2568 C2570 1.389 1_556 S
C2569 H2548 0.950 . S
C2569 C2568 1.373 . S
C2569 C2585 1.377 . S
C2570 C2568 1.389 1_554 S
C2570 C2571 1.524 . S
C2570 C2584 1.377 . S
C2571 C2570 1.524 . S
C2571 C2572 1.397 . S
C2571 C2576 1.363 . S
C2572 H2549 0.950 . S
C2572 C2571 1.397 . S
C2572 C2573 1.334 . S
C2573 H2550 0.950 . S
C2573 C2572 1.334 . S
C2573 C2574 1.287 . S
C2574 C2573 1.287 . S
C2574 C2575 1.524 . S
C2574 H2593 0.913 . S
C2575 H2551 0.950 . S
C2575 C2574 1.524 . S
C2575 C2576 1.415 . S
C2576 H2552 0.950 . S
C2576 C2571 1.363 . S
C2576 C2575 1.415 . S
C2577 H2553 0.951 . S
C2577 C2578 1.366 . S
C2577 C2579 1.388 . S
C2578 C2577 1.366 . S
C2578 C2582 1.385 1_556 S
C2579 H2554 0.951 . S
C2579 C2577 1.388 . S
C2579 C2580 1.366 . S
C2580 C2579 1.366 . S
C2580 C2581 1.414 1_556 S
C2580 C2583 1.499 . S
C2581 H2555 0.950 . S
C2581 C2580 1.414 1_554 S
C2581 C2582 1.374 . S
C2582 H2556 0.950 . S
C2582 C2578 1.385 1_554 S
C2582 C2581 1.374 . S
C2583 C2580 1.499 . S
C2583 C2584 1.373 1_556 S
C2583 C2585 1.389 . S
C2584 H2557 0.950 . S
C2584 C2570 1.377 . S
C2584 C2583 1.373 1_554 S
C2585 C2569 1.377 . S
C2585 C2583 1.389 . S
C2585 C2586 1.524 . S
C2586 C2585 1.524 . S
C2586 C2587 1.397 . S
C2586 C2591 1.363 . S
C2587 H2558 0.950 . S
C2587 C2586 1.397 . S
C2587 C2588 1.334 . S
C2588 H2559 0.950 . S
C2588 C2587 1.334 . S
C2588 C2589 1.287 . S
C2589 C2588 1.287 . S
C2589 C2590 1.524 . S
C2589 H2592 0.999 . S
C2590 H2560 0.950 . S
C2590 C2589 1.524 . S
C2590 C2591 1.415 . S
C2591 H2561 0.950 . S
C2591 C2586 1.363 . S
C2591 C2590 1.415 . S
H2592 C2589 0.999 . S
H2593 C2574 0.913 . S
H2594 C2612 0.951 . S
H2595 C2614 0.951 . S
H2596 C2616 0.950 . S
H2597 C2617 0.950 . S
H2598 C2619 0.950 . S
H2599 C2622 0.950 . S
H2600 C2623 0.950 . S
H2601 C2625 0.950 . S
H2602 C2626 0.950 . S
H2603 C2627 0.951 . S
H2604 C2629 0.951 . S
H2605 C2631 0.950 . S
H2606 C2632 0.950 . S
H2607 C2634 0.950 . S
H2608 C2637 0.950 . S
H2609 C2638 0.950 . S
H2610 C2640 0.950 . S
H2611 C2641 0.950 . S
C2612 H2594 0.951 . S
C2612 C2613 1.366 . S
C2612 C2614 1.388 . S
C2613 C2612 1.366 . S
C2613 C2617 1.385 . S
C2614 H2595 0.951 . S
C2614 C2612 1.388 . S
C2614 C2615 1.366 . S
C2615 C2614 1.366 . S
C2615 C2616 1.414 . S
C2615 C2618 1.499 . S
C2616 H2596 0.950 . S
C2616 C2615 1.414 . S
C2616 C2617 1.374 . S
C2617 H2597 0.950 . S
C2617 C2613 1.385 . S
C2617 C2616 1.374 . S
C2618 C2615 1.499 . S
C2618 C2619 1.373 . S
C2618 C2620 1.389 . S
C2619 H2598 0.950 . S
C2619 C2618 1.373 . S
C2619 C2635 1.377 . S
C2620 C2618 1.389 . S
C2620 C2621 1.524 . S
C2620 C2634 1.377 . S
C2621 C2620 1.524 . S
C2621 C2622 1.397 . S
C2621 C2626 1.363 . S
C2622 H2599 0.950 . S
C2622 C2621 1.397 . S
C2622 C2623 1.334 . S
C2623 H2600 0.950 . S
C2623 C2622 1.334 . S
C2623 C2624 1.287 . S
C2624 C2623 1.287 . S
C2624 C2625 1.524 . S
C2624 H2643 0.913 . S
C2625 H2601 0.950 . S
C2625 C2624 1.524 . S
C2625 C2626 1.415 . S
C2626 H2602 0.950 . S
C2626 C2621 1.363 . S
C2626 C2625 1.415 . S
C2627 H2603 0.951 . S
C2627 C2628 1.366 . S
C2627 C2629 1.388 . S
C2628 C2627 1.366 . S
C2628 C2632 1.385 . S
C2629 H2604 0.951 . S
C2629 C2627 1.388 . S
C2629 C2630 1.366 . S
C2630 C2629 1.366 . S
C2630 C2631 1.414 . S
C2630 C2633 1.499 . S
C2631 H2605 0.950 . S
C2631 C2630 1.414 . S
C2631 C2632 1.374 . S
C2632 H2606 0.950 . S
C2632 C2628 1.385 . S
C2632 C2631 1.374 . S
C2633 C2630 1.499 . S
C2633 C2634 1.373 . S
C2633 C2635 1.389 . S
C2634 H2607 0.950 . S
C2634 C2620 1.377 . S
C2634 C2633 1.373 . S
C2635 C2619 1.377 . S
C2635 C2633 1.389 . S
C2635 C2636 1.524 . S
C2636 C2635 1.524 . S
C2636 C2637 1.397 . S
C2636 C2641 1.363 . S
C2637 H2608 0.950 . S
C2637 C2636 1.397 . S
C2637 C2638 1.334 . S
C2638 H2609 0.950 . S
C2638 C2637 1.334 . S
C2638 C2639 1.287 . S
C2639 C2638 1.287 . S
C2639 C2640 1.524 . S
C2639 H2642 0.999 . S
C2640 H2610 0.950 . S
C2640 C2639 1.524 . S
C2640 C2641 1.415 . S
C2641 H2611 0.950 . S
C2641 C2636 1.363 . S
C2641 C2640 1.415 . S
H2642 C2639 0.999 . S
H2643 C2624 0.913 . S
H2644 C2662 0.951 . S
H2645 C2664 0.951 . S
H2646 C2666 0.950 . S
H2647 C2667 0.950 . S
H2648 C2669 0.950 . S
H2649 C2672 0.950 . S
H2650 C2673 0.950 . S
H2651 C2675 0.950 . S
H2652 C2676 0.950 . S
H2653 C2677 0.951 . S
H2654 C2679 0.951 . S
H2655 C2681 0.950 . S
H2656 C2682 0.924 1_556 S
H2657 C2684 0.950 . S
H2658 C2687 0.950 . S
H2659 C2688 0.950 . S
H2660 C2690 0.950 . S
H2661 C2691 0.950 . S
C2662 H2644 0.951 . S
C2662 C2663 1.366 . S
C2662 C2664 1.388 . S
C2663 C2662 1.366 . S
C2663 C2667 1.385 . S
C2664 H2645 0.951 . S
C2664 C2662 1.388 . S
C2664 C2665 1.366 . S
C2665 C2664 1.366 . S
C2665 C2666 1.414 . S
C2665 C2668 1.499 . S
C2666 H2646 0.950 . S
C2666 C2665 1.414 . S
C2666 C2667 1.374 . S
C2667 H2647 0.950 . S
C2667 C2663 1.385 . S
C2667 C2666 1.374 . S
C2668 C2665 1.499 . S
C2668 C2669 1.373 . S
C2668 C2670 1.389 . S
C2669 H2648 0.950 . S
C2669 C2668 1.373 . S
C2669 C2685 1.377 . S
C2670 C2668 1.389 . S
C2670 C2671 1.524 . S
C2670 C2684 1.377 . S
C2671 C2670 1.524 . S
C2671 C2672 1.397 . S
C2671 C2676 1.363 . S
C2672 H2649 0.950 . S
C2672 C2671 1.397 . S
C2672 C2673 1.334 . S
C2673 H2650 0.950 . S
C2673 C2672 1.334 . S
C2673 C2674 1.287 . S
C2674 C2673 1.287 . S
C2674 C2675 1.524 . S
C2674 H2693 0.913 . S
C2675 H2651 0.950 . S
C2675 C2674 1.524 . S
C2675 C2676 1.415 . S
C2676 H2652 0.950 . S
C2676 C2671 1.363 . S
C2676 C2675 1.415 . S
C2677 H2653 0.951 . S
C2677 C2678 1.366 . S
C2677 C2679 1.388 . S
C2678 C2677 1.366 . S
C2678 C2682 1.385 . S
C2679 H2654 0.951 . S
C2679 C2677 1.388 . S
C2679 C2680 1.366 . S
C2680 C2679 1.366 . S
C2680 C2681 1.414 . S
C2680 C2683 1.499 . S
C2681 H2655 0.950 . S
C2681 C2680 1.414 . S
C2681 C2682 1.374 . S
C2682 H2656 0.924 1_554 S
C2682 C2678 1.385 . S
C2682 C2681 1.374 . S
C2683 C2680 1.499 . S
C2683 C2684 1.373 . S
C2683 C2685 1.389 . S
C2684 H2657 0.950 . S
C2684 C2670 1.377 . S
C2684 C2683 1.373 . S
C2685 C2669 1.377 . S
C2685 C2683 1.389 . S
C2685 C2686 1.532 . S
C2686 C2685 1.532 . S
C2686 C2687 1.384 1_554 S
C2686 C2691 1.368 . S
C2687 H2658 0.950 . S
C2687 C2686 1.384 1_556 S
C2687 C2688 1.334 . S
C2688 H2659 0.950 . S
C2688 C2687 1.334 . S
C2688 C2689 1.287 . S
C2689 C2688 1.287 . S
C2689 C2690 1.524 . S
C2689 H2692 0.999 . S
C2690 H2660 0.950 . S
C2690 C2689 1.524 . S
C2690 C2691 1.415 1_556 S
C2691 H2661 0.950 . S
C2691 C2686 1.368 . S
C2691 C2690 1.415 1_554 S
H2692 C2689 0.999 . S
H2693 C2674 0.913 . S
H2694 C2712 0.951 . S
H2695 C2714 0.951 . S
H2696 C2716 0.950 1_565 S
H2697 C2717 0.950 . S
H2698 C2719 0.950 1_545 S
H2699 C2722 0.950 . S
H2700 C2723 0.950 . S
H2701 C2725 0.950 . S
H2702 C2726 0.950 . S
H2703 C2727 0.951 . S
H2704 C2729 0.951 . S
H2705 C2731 0.950 . S
H2706 C2732 0.950 . S
H2707 C2734 0.950 . S
H2708 C2737 0.950 . S
H2709 C2738 0.950 1_545 S
H2710 C2740 0.950 . S
H2711 C2741 0.950 . S
C2712 H2694 0.951 . S
C2712 C2713 1.366 . S
C2712 C2714 1.388 . S
C2713 C2712 1.366 . S
C2713 C2717 1.385 . S
C2714 H2695 0.951 . S
C2714 C2712 1.388 . S
C2714 C2715 1.366 . S
C2715 C2714 1.366 . S
C2715 C2716 1.414 . S
C2715 C2718 1.499 1_545 S
C2716 H2696 0.950 1_545 S
C2716 C2715 1.414 . S
C2716 C2717 1.374 . S
C2717 H2697 0.950 . S
C2717 C2713 1.385 . S
C2717 C2716 1.374 . S
C2718 C2715 1.499 1_565 S
C2718 C2719 1.373 . S
C2718 C2720 1.389 . S
C2719 H2698 0.950 1_565 S
C2719 C2718 1.373 . S
C2719 C2735 1.377 . S
C2720 C2718 1.389 . S
C2720 C2721 1.524 . S
C2720 C2734 1.377 . S
C2721 C2720 1.524 . S
C2721 C2722 1.397 . S
C2721 C2726 1.363 1_554 S
C2722 H2699 0.950 . S
C2722 C2721 1.397 . S
C2722 C2723 1.334 . S
C2723 H2700 0.950 . S
C2723 C2722 1.334 . S
C2723 C2724 1.287 1_554 S
C2724 C2723 1.287 1_556 S
C2724 C2725 1.524 . S
C2724 H2743 0.913 . S
C2725 H2701 0.950 . S
C2725 C2724 1.524 . S
C2725 C2726 1.415 . S
C2726 H2702 0.950 . S
C2726 C2721 1.363 1_556 S
C2726 C2725 1.415 . S
C2727 H2703 0.951 . S
C2727 C2728 1.366 . S
C2727 C2729 1.388 . S
C2728 C2727 1.366 . S
C2728 C2732 1.385 . S
C2729 H2704 0.951 . S
C2729 C2727 1.388 . S
C2729 C2730 1.366 . S
C2730 C2729 1.366 . S
C2730 C2731 1.414 . S
C2730 C2733 1.499 . S
C2731 H2705 0.950 . S
C2731 C2730 1.414 . S
C2731 C2732 1.374 . S
C2732 H2706 0.950 . S
C2732 C2728 1.385 . S
C2732 C2731 1.374 . S
C2733 C2730 1.499 . S
C2733 C2734 1.373 . S
C2733 C2735 1.389 . S
C2734 H2707 0.950 . S
C2734 C2720 1.377 . S
C2734 C2733 1.373 . S
C2735 C2719 1.377 . S
C2735 C2733 1.389 . S
C2735 C2736 1.524 . S
C2736 C2735 1.524 . S
C2736 C2737 1.397 . S
C2736 C2741 1.363 . S
C2737 H2708 0.950 . S
C2737 C2736 1.397 . S
C2737 C2738 1.334 . S
C2738 H2709 0.950 1_565 S
C2738 C2737 1.334 . S
C2738 C2739 1.287 . S
C2739 C2738 1.287 . S
C2739 C2740 1.524 . S
C2739 H2742 0.999 1_565 S
C2740 H2710 0.950 . S
C2740 C2739 1.524 . S
C2740 C2741 1.415 . S
C2741 H2711 0.950 . S
C2741 C2736 1.363 . S
C2741 C2740 1.415 . S
H2742 C2739 0.999 1_545 S
H2743 C2724 0.913 . S
C378 C184 1.602 1_556 S
C363 C60 1.641 . S
C428 C197 1.254 . S
C413 C76 1.260 . S
C463 C81 1.859 . S
C478 C217 1.733 . S
C528 C231 1.420 . S
C513 C48 1.519 . S
C578 C243 1.541 . S
C563 C115 1.545 . S
C628 C257 1.525 . S
C613 C136 1.533 . S
C663 C131 1.267 . S
C678 C267 1.256 . S
C728 C282 1.547 . S
C713 C104 1.549 . S
C763 C126 1.494 . S
C778 C296 1.445 . S
C828 C315 1.201 . S
C813 C103 1.288 . S
C863 C120 1.392 . S
C878 C295 1.381 . S
C928 C313 1.326 . S
C913 C142 1.331 . S
C963 C82 1.668 . S
C978 C329 1.553 . S
C1013 C54 1.856 . S
C1028 C323 1.845 . S
C1063 C65 1.437 . S
C1078 C327 1.440 . S
C1113 C71 1.246 . S
C1128 C324 1.239 . S
C1163 C37 1.582 . S
C1178 C226 1.551 . S
C1213 C158 1.992 . S
C1228 C225 1.983 . S
C1278 C189 1.247 . S
C1263 C169 1.307 . S
C1328 C203 1.297 . S
C1313 C98 1.397 . S
C1363 C49 1.764 . S
C1378 C240 1.765 . S
C1428 C285 1.444 . S
C1413 C125 1.451 . S
C1478 C239 1.300 . S
C1463 C109 1.304 1_545 S
C1528 C271 1.754 . S
C1513 C137 1.746 . S
C1578 C268 1.602 . S
C1563 C159 1.641 . S
C1613 C175 1.260 . S
C1628 C281 1.253 . S
C1663 C92 1.860 . S
C1678 C245 1.733 . S
C1728 C259 1.422 . S
C1713 C147 1.521 . S
C1763 C38 1.545 . S
C1778 C215 1.541 . S
C1828 C229 1.526 . S
C1813 C4 1.533 . S
C1878 C183 1.256 . S
C1863 C21 1.267 . S
C1928 C198 1.546 . S
C1913 C27 1.548 . S
C1963 C16 1.493 . S
C1978 C310 1.445 . S
C2013 C26 1.288 . S
C2028 C301 1.202 . S
C2063 C43 1.392 . S
C2078 C309 1.381 . S
C2113 C10 1.331 . S
C2128 C299 1.326 . S
C2178 C343 1.553 . S
C2163 C93 1.668 . S
C2228 C337 1.844 . S
C2213 C153 1.855 . S
C2278 C341 1.440 . S
C2263 C164 1.438 . S
C2313 C170 1.246 . S
C2328 C338 1.239 . S
C2363 C114 1.582 . S
C2378 C254 1.552 . S
C2428 C253 1.982 . S
C2413 C59 1.991 . S
C2478 C273 1.246 . S
C2463 C70 1.307 . S
C2528 C287 1.297 . S
C2513 C87 1.396 . S
C2563 C148 1.765 . S
C2578 C212 1.766 . S
C2628 C201 1.444 . S
C2613 C15 1.451 . S
C2663 C32 1.304 . S
C2678 C211 1.300 . S
C2728 C187 1.754 . S
C2713 C5 1.746 . S
