# Generated by pormake.
# Topology pyr, (3,6)-cn, num edge types: 1
# Building blocks:
#     Node 0, Type 0, BuildingBlock: BETDAH_clean_linker_0, # of connection points: 3
#     Node 1, Type 0, BuildingBlock: BETDAH_clean_linker_0, # of connection points: 3
#     Node 2, Type 0, BuildingBlock: BETDAH_clean_linker_0, # of connection points: 3
#     Node 3, Type 0, BuildingBlock: BETDAH_clean_linker_0, # of connection points: 3
#     Node 4, Type 0, BuildingBlock: BETDAH_clean_linker_0, # of connection points: 3
#     Node 5, Type 0, BuildingBlock: BETDAH_clean_linker_0, # of connection points: 3
#     Node 6, Type 0, BuildingBlock: BETDAH_clean_linker_0, # of connection points: 3
#     Node 7, Type 0, BuildingBlock: BETDAH_clean_linker_0, # of connection points: 3
#     Node 8, Type 1, BuildingBlock: BETDAH_clean_sbu_0, # of connection points: 6
#     Node 9, Type 1, BuildingBlock: BETDAH_clean_sbu_0, # of connection points: 6
#     Node 10, Type 1, BuildingBlock: BETDAH_clean_sbu_0, # of connection points: 6
#     Node 11, Type 1, BuildingBlock: BETDAH_clean_sbu_0, # of connection points: 6
#     Edge 12, Type (0, 1), BuildingBlock: OJICUG_clean_linker_0, # of connection points: 2
#     Edge 13, Type (0, 1), BuildingBlock: OJICUG_clean_linker_0, # of connection points: 2
#     Edge 14, Type (0, 1), BuildingBlock: OJICUG_clean_linker_0, # of connection points: 2
#     Edge 15, Type (0, 1), BuildingBlock: OJICUG_clean_linker_0, # of connection points: 2
#     Edge 16, Type (0, 1), BuildingBlock: OJICUG_clean_linker_0, # of connection points: 2
#     Edge 17, Type (0, 1), BuildingBlock: OJICUG_clean_linker_0, # of connection points: 2
#     Edge 18, Type (0, 1), BuildingBlock: OJICUG_clean_linker_0, # of connection points: 2
#     Edge 19, Type (0, 1), BuildingBlock: OJICUG_clean_linker_0, # of connection points: 2
#     Edge 20, Type (0, 1), BuildingBlock: OJICUG_clean_linker_0, # of connection points: 2
#     Edge 21, Type (0, 1), BuildingBlock: OJICUG_clean_linker_0, # of connection points: 2
#     Edge 22, Type (0, 1), BuildingBlock: OJICUG_clean_linker_0, # of connection points: 2
#     Edge 23, Type (0, 1), BuildingBlock: OJICUG_clean_linker_0, # of connection points: 2
#     Edge 24, Type (0, 1), BuildingBlock: OJICUG_clean_linker_0, # of connection points: 2
#     Edge 25, Type (0, 1), BuildingBlock: OJICUG_clean_linker_0, # of connection points: 2
#     Edge 26, Type (0, 1), BuildingBlock: OJICUG_clean_linker_0, # of connection points: 2
#     Edge 27, Type (0, 1), BuildingBlock: OJICUG_clean_linker_0, # of connection points: 2
#     Edge 28, Type (0, 1), BuildingBlock: OJICUG_clean_linker_0, # of connection points: 2
#     Edge 29, Type (0, 1), BuildingBlock: OJICUG_clean_linker_0, # of connection points: 2
#     Edge 30, Type (0, 1), BuildingBlock: OJICUG_clean_linker_0, # of connection points: 2
#     Edge 31, Type (0, 1), BuildingBlock: OJICUG_clean_linker_0, # of connection points: 2
#     Edge 32, Type (0, 1), BuildingBlock: OJICUG_clean_linker_0, # of connection points: 2
#     Edge 33, Type (0, 1), BuildingBlock: OJICUG_clean_linker_0, # of connection points: 2
#     Edge 34, Type (0, 1), BuildingBlock: OJICUG_clean_linker_0, # of connection points: 2
#     Edge 35, Type (0, 1), BuildingBlock: OJICUG_clean_linker_0, # of connection points: 2
# Relax obj value: 0.214
# Max RMSD: 0.195
# Mean RMSD: 0.143
data_MOF--net-pyr--node1-BETDAH_clean_sbu_0--node2-BETDAH_clean_linker_0--edge1-OJICUG_clean_linker_0
_symmetry_space_group_name_H-M    P1
_symmetry_Int_Tables_number       1
_symmetry_cell_setting            triclinic
loop_
_symmetry_equiv_pos_as_xyz
'x, y, z'
_cell_length_a     27.112921
_cell_length_b     30.530094
_cell_length_c     28.471296
_cell_angle_alpha  92.065234
_cell_angle_beta   90.200458
_cell_angle_gamma 108.73316
loop_
_atom_site_label
_atom_site_type_symbol
_atom_site_fract_x
_atom_site_fract_y
_atom_site_fract_z
_atom_type_partial_charge
H0 H 0.42688 0.25508 0.30041 0.0
H1 H 0.49137 0.33941 0.18379 0.0
H2 H 0.38135 0.37401 0.27425 0.0
C3 C 0.43158 0.28595 0.28079 0.0
C4 C 0.40099 0.31388 0.29195 0.0
C5 C 0.46296 0.29385 0.24113 0.0
C6 C 0.46834 0.33356 0.21539 0.0
C7 C 0.43929 0.36299 0.22732 0.0
C8 C 0.40589 0.35307 0.26603 0.0
N9 N 0.43996 0.39922 0.19712 0.0
C10 C 0.39712 0.41443 0.19167 0.0
H11 H 0.3229 0.87086 0.73528 0.0
H12 H 0.17332 0.89032 0.73314 0.0
H13 H 0.22347 0.82828 0.61233 0.0
C14 C 0.28639 0.86678 0.71706 0.0
C15 C 0.27765 0.84735 0.67117 0.0
C16 C 0.24863 0.88151 0.73973 0.0
C17 C 0.20163 0.87675 0.71657 0.0
C18 C 0.1927 0.85758 0.6705 0.0
C19 C 0.23005 0.84178 0.64836 0.0
N20 N 0.15097 0.86178 0.64351 0.0
C21 C 0.1473 0.90563 0.6396 0.0
H22 H 0.7336 0.37054 0.99799 0.0
H23 H 0.73637 0.47262 0.89451 0.0
H24 H 0.61058 0.34302 0.89543 0.0
C25 C 0.71739 0.38111 0.96729 0.0
C26 C 0.66992 0.35052 0.94871 0.0
C27 C 0.74281 0.42548 0.94881 0.0
C28 C 0.71818 0.43935 0.9096 0.0
C29 C 0.67002 0.40954 0.88977 0.0
C30 C 0.64704 0.36581 0.91027 0.0
N31 N 0.64152 0.41992 0.85027 0.0
C32 C 0.64863 0.45634 0.81819 0.0
H33 H 0.83694 0.78726 0.51035 0.0
H34 H 0.94354 0.8183 0.39565 0.0
H35 H 0.81923 0.68798 0.39401 0.0
C36 C 0.85022 0.77705 0.47727 0.0
C37 C 0.82172 0.7334 0.45562 0.0
C38 C 0.89425 0.80868 0.45669 0.0
C39 C 0.91093 0.79449 0.41306 0.0
C40 C 0.88597 0.75034 0.39052 0.0
C41 C 0.84098 0.72015 0.41228 0.0
N42 N 0.89917 0.74373 0.34181 0.0
C43 C 0.91329 0.70825 0.31684 0.0
H44 H 0.74655 0.78995 0.8684 0.0
H45 H 0.64351 0.75603 0.98555 0.0
H46 H 0.62025 0.84529 0.87992 0.0
C47 C 0.71127 0.79081 0.88566 0.0
C48 C 0.684 0.81893 0.8683 0.0
C49 C 0.6973 0.76798 0.92783 0.0
C50 C 0.65406 0.77245 0.95229 0.0
C51 C 0.62617 0.80038 0.93516 0.0
C52 C 0.64107 0.82316 0.89293 0.0
N53 N 0.58573 0.80793 0.96244 0.0
C54 C 0.57564 0.84984 0.96246 0.0
H55 H 0.84965 0.19617 0.42636 0.0
H56 H 0.88937 0.26504 0.56228 0.0
H57 H 0.82834 0.32818 0.45338 0.0
C58 C 0.85319 0.2258 0.44994 0.0
C59 C 0.83824 0.26261 0.43433 0.0
C60 C 0.87094 0.22613 0.49604 0.0
C61 C 0.87508 0.26419 0.52653 0.0
C62 C 0.85916 0.30062 0.51175 0.0
C63 C 0.84043 0.29988 0.46537 0.0
N64 N 0.85974 0.33634 0.54488 0.0
C65 C 0.81874 0.3539 0.54623 0.0
H66 H 0.3489 0.81665 0.17492 0.0
H67 H 0.34628 0.71505 0.27837 0.0
H68 H 0.47223 0.84439 0.278 0.0
C69 C 0.36628 0.80612 0.20489 0.0
C70 C 0.41369 0.83718 0.22371 0.0
C71 C 0.34049 0.762 0.22383 0.0
C72 C 0.36475 0.74822 0.26317 0.0
C73 C 0.41259 0.77801 0.2833 0.0
C74 C 0.43571 0.82198 0.263 0.0
N75 N 0.44027 0.76717 0.32317 0.0
C76 C 0.43208 0.72988 0.35443 0.0
H77 H 0.24612 0.39131 0.67324 0.0
H78 H 0.24551 0.49657 0.7792 0.0
H79 H 0.12937 0.36121 0.77978 0.0
C80 C 0.22842 0.40216 0.70361 0.0
C81 C 0.18447 0.36967 0.72345 0.0
C82 C 0.25133 0.44813 0.72256 0.0
C83 C 0.229 0.46182 0.76411 0.0
C84 C 0.18439 0.43024 0.78515 0.0
C85 C 0.16351 0.38485 0.76415 0.0
N86 N 0.15763 0.44 0.82665 0.0
C87 C 0.16144 0.47844 0.85809 0.0
Ho88 Ho 0.06651 0.10564 0.54718 0.0
Ho89 Ho 1.00915 0.07119 0.63767 0.0
C90 C 0.09085 0.17907 0.63558 0.0
C91 C 0.09415 0.13437 0.46445 0.0
C92 C 0.13707 0.17182 0.44604 0.0
C93 C 0.13055 0.18972 0.40281 0.0
C94 C 0.17271 0.22186 0.38225 0.0
C95 C 0.22165 0.23643 0.40489 0.0
C96 C 0.22729 0.22106 0.44977 0.0
C97 C 0.185 0.18887 0.4704 0.0
C98 C 0.12071 0.07473 0.6107 0.0
C99 C 0.9884 0.99706 0.54896 0.0
C100 C 0.97317 0.04429 0.7187 0.0
C101 C 0.92325 1.01086 0.73244 0.0
C102 C 0.92205 0.96762 0.74835 0.0
C103 C 0.87491 0.93508 0.75998 0.0
C104 C 0.82812 0.94536 0.75636 0.0
C105 C 0.82914 0.98849 0.74024 0.0
C106 C 0.87627 1.02093 0.72818 0.0
C107 C 0.95278 0.09523 0.57199 0.0
O108 O 0.09308 0.17382 0.58924 0.0
O109 O 0.06647 0.1429 0.66135 0.0
O110 O 0.10682 0.10081 0.48308 0.0
O111 O 0.06062 0.14747 0.48928 0.0
O112 O 0.14243 0.10713 0.58179 0.0
O113 O 0.07315 0.05889 0.60081 0.0
O114 O 0.98639 1.0023 0.59553 0.0
O115 O 1.01165 1.03343 0.52315 0.0
O116 O 0.9707 0.08242 0.70082 0.0
O117 O 1.00506 1.02692 0.69612 0.0
O118 O 0.93285 0.06315 0.60141 0.0
O119 O 0.99976 0.11556 0.58263 0.0
H120 H 0.09353 0.17731 0.38402 0.0
H121 H 0.16803 0.23318 0.34736 0.0
H122 H 0.26506 0.23142 0.46727 0.0
H123 H 0.1903 0.17573 0.50425 0.0
H124 H 0.95763 0.95902 0.75197 0.0
H125 H 0.87532 0.90243 0.77338 0.0
H126 H 0.79357 0.99722 0.73738 0.0
H127 H 0.87574 0.05387 0.71571 0.0
Ho128 Ho 0.58977 0.09546 0.10046 0.0
Ho129 Ho 0.49453 0.08641 0.06083 0.0
C130 C 0.52148 0.14539 0.15363 0.0
C131 C 0.68559 0.11827 0.12865 0.0
C132 C 0.71058 0.14246 0.17229 0.0
C133 C 0.75535 0.18124 0.16979 0.0
C134 C 0.77579 0.20842 0.21016 0.0
C135 C 0.75184 0.19713 0.2538 0.0
C136 C 0.7072 0.15794 0.25622 0.0
C137 C 0.68657 0.13101 0.21581 0.0
C138 C 0.51308 1.02422 0.14224 0.0
C139 C 0.55901 1.02599 1.01214 0.0
C140 C 0.4036 0.06975 1.02218 0.0
C141 C 0.36678 1.03537 0.99134 0.0
C142 C 0.37003 0.99067 0.9843 0.0
C143 C 0.342 0.962 0.94731 0.0
C144 C 0.31133 0.97823 0.91705 0.0
C145 C 0.30602 1.02191 0.92585 0.0
C146 C 0.33341 0.05023 0.96303 0.0
C147 C 0.56536 0.17173 0.04088 0.0
O148 O 0.56936 0.15126 0.14071 0.0
O149 O 0.48353 0.11162 0.1335 0.0
O150 O 0.6526 0.07665 0.13214 0.0
O151 O 0.6681 0.14355 0.10146 0.0
O152 O 0.54945 0.05699 0.16431 0.0
O153 O 0.51722 1.03261 0.09871 0.0
O154 O 0.51327 1.03239 1.01481 0.0
O155 O 0.59795 0.05063 0.03938 0.0
O156 O 0.44719 0.09213 1.00223 0.0
O157 O 0.41041 0.05816 0.06491 0.0
O158 O 0.5189 0.16426 0.05631 0.0
O159 O 0.57361 0.13276 0.03871 0.0
H160 H 0.77374 0.19118 0.13634 0.0
H161 H 0.80999 0.23858 0.20712 0.0
H162 H 0.68846 0.14771 0.28944 0.0
H163 H 0.65139 0.10172 0.21858 0.0
H164 H 0.39634 0.97909 1.00553 0.0
H165 H 0.34708 0.92859 0.94036 0.0
H166 H 0.28297 1.03503 0.90239 0.0
H167 H 0.33112 0.08491 0.9678 0.0
Ho168 Ho 0.52157 0.54977 0.56057 0.0
Ho169 Ho 0.54867 0.62847 0.61157 0.0
C170 C 0.58305 0.55162 0.66148 0.0
C171 C 0.52111 0.47421 0.51657 0.0
C172 C 0.56269 0.45355 0.51782 0.0
C173 C 0.61333 0.48203 0.52989 0.0
C174 C 0.65277 0.46297 0.5363 0.0
C175 C 0.64231 0.415 0.53102 0.0
C176 C 0.5917 0.38641 0.51825 0.0
C177 C 0.55192 0.40566 0.51188 0.0
C178 C 0.43633 0.55091 0.61275 0.0
C179 C 0.48885 0.62829 0.51079 0.0
C180 C 0.5511 0.70509 0.65407 0.0
C181 C 0.51331 0.73011 0.6502 0.0
C182 C 0.46107 0.70855 0.66192 0.0
C183 C 0.42395 0.72973 0.65301 0.0
C184 C 0.43802 0.77277 0.63189 0.0
C185 C 0.4903 0.79456 0.6203 0.0
C186 C 0.52772 0.77335 0.62946 0.0
C187 C 0.63356 0.62583 0.55898 0.0
O188 O 0.57338 0.5329 0.61812 0.0
O189 O 0.57276 0.59045 0.66998 0.0
O190 O 0.49821 0.47485 0.55652 0.0
O191 O 0.53332 0.51401 0.49678 0.0
O192 O 0.43585 0.54037 0.56824 0.0
O193 O 0.48356 0.56371 0.6271 0.0
O194 O 0.49776 0.64644 0.55434 0.0
O195 O 0.49867 0.58918 0.50228 0.0
O196 O 0.57704 0.70339 0.61608 0.0
O197 O 0.53461 0.66516 0.67371 0.0
O198 O 0.63428 0.63711 0.60331 0.0
O199 O 0.58624 0.6142 0.54535 0.0
H200 H 0.62227 0.51912 0.53516 0.0
H201 H 0.69158 0.48591 0.54519 0.0
H202 H 0.58274 0.34925 0.51414 0.0
H203 H 0.51278 0.38326 0.50327 0.0
H204 H 0.44844 0.67497 0.67751 0.0
H205 H 0.3843 0.71269 0.6637 0.0
H206 H 0.50218 0.82787 0.60416 0.0
H207 H 0.5677 0.79024 0.61954 0.0
Ho208 Ho 0.04087 0.55373 0.11455 0.0
Ho209 Ho 0.04257 0.63303 0.05998 0.0
C210 C 0.14037 0.64819 0.12959 0.0
C211 C 0.06221 0.48173 0.14238 0.0
C212 C 0.11081 0.47055 0.14676 0.0
C213 C 0.15621 0.49721 0.12475 0.0
C214 C 0.20325 0.48858 0.13186 0.0
C215 C 0.20575 0.45322 0.16124 0.0
C216 C 0.15993 0.42637 0.18287 0.0
C217 C 0.11288 0.43503 0.1757 0.0
C218 C 0.99302 0.60329 0.17168 0.0
C219 C 0.93961 0.53963 0.04787 0.0
C220 C 1.0193 0.69911 1.02069 0.0
C221 C 0.9694 0.70707 1.01141 0.0
C222 C 0.92879 0.69525 0.04403 0.0
C223 C 0.88072 0.70082 1.03348 0.0
C224 C 0.87221 0.71747 0.98986 0.0
C225 C 0.91303 0.72944 0.95748 0.0
C226 C 0.96118 0.7244 0.96824 0.0
C227 C 0.09798 0.5813 1.01625 0.0
O228 O 0.12414 0.60234 0.12939 0.0
O229 O 0.11167 0.66945 0.10812 0.0
O230 O 0.05896 0.51516 0.17062 0.0
O231 O 0.04639 0.48531 0.09978 0.0
O232 O 0.9969 0.56316 0.17981 0.0
O233 O 1.01124 0.61393 0.13073 0.0
O234 O 0.96077 0.58434 0.04008 0.0
O235 O 0.96371 0.51899 0.07599 0.0
O236 O 0.02645 0.6643 0.99708 0.0
O237 O 0.03394 0.70108 0.06468 0.0
O238 O 0.11183 0.6262 1.01895 0.0
O239 O 0.05503 0.56635 0.03797 0.0
H240 H 0.15544 0.52515 0.10265 0.0
H241 H 0.23789 0.51025 0.11516 0.0
H242 H 0.16036 0.39853 0.20522 0.0
H243 H 0.07824 0.41433 0.19319 0.0
H244 H 0.93396 0.68121 0.07741 0.0
H245 H 0.84989 0.69122 0.05896 0.0
H246 H 0.9078 0.74301 0.92386 0.0
H247 H 0.99188 0.73353 0.94257 0.0
C248 C 0.34479 0.32233 0.35972 0.0
C249 C 0.35607 0.29555 0.32268 0.0
H250 H 0.29262 0.32395 0.41621 0.0
C251 C 0.32275 0.25027 0.31315 0.0
H252 H 0.36993 0.35744 0.36732 0.0
C253 C 0.27917 0.2318 0.34016 0.0
C254 C 0.26792 0.25812 0.37728 0.0
H255 H 0.33005 0.22921 0.28424 0.0
H256 H 0.25418 0.19667 0.33216 0.0
C257 C 0.30099 0.30338 0.38743 0.0
C258 C 0.30147 0.9495 0.78763 0.0
C259 C 0.26154 0.90681 0.78522 0.0
H260 H 0.34792 1.00572 0.83202 0.0
C261 C 0.23655 0.8878 0.82634 0.0
H262 H 0.32118 0.96446 0.75613 0.0
C263 C 0.25246 0.91098 0.86984 0.0
C264 C 0.29259 0.95361 0.87204 0.0
H265 H 0.20585 0.85468 0.82486 0.0
H266 H 0.23372 0.89576 0.90159 0.0
C267 C 0.31662 0.97293 0.83074 0.0
C268 C 0.62819 0.52573 0.78528 0.0
C269 C 0.63828 0.48339 0.778 0.0
H270 H 0.60397 0.57998 0.75585 0.0
C271 C 0.63148 0.46453 0.7313 0.0
H272 H 0.63177 0.54137 0.82041 0.0
C273 C 0.61498 0.48666 0.6938 0.0
C274 C 0.60415 0.52879 0.70109 0.0
H275 H 0.63771 0.43169 0.72378 0.0
H276 H 0.60975 0.47008 0.65903 0.0
C277 C 0.61178 0.54793 0.7478 0.0
C278 C 0.9499 0.70032 0.2358 0.0
C279 C 0.93239 0.68129 0.27985 0.0
H280 H 0.98212 0.69206 0.16761 0.0
C281 C 0.93434 0.63645 0.28686 0.0
H282 H 0.94921 0.73472 0.22864 0.0
C283 C 0.95321 0.6119 0.25164 0.0
C284 C 0.9711 0.63083 0.20759 0.0
H285 H 0.92147 0.62022 0.31983 0.0
H286 H 0.95409 0.57767 0.25928 0.0
C287 C 0.96886 0.67571 0.20043 0.0
C288 C 0.53163 0.2633 0.20704 0.0
C289 C 0.48049 0.25566 0.22211 0.0
H290 H 0.5854 0.23362 0.17474 0.0
C291 C 0.44436 0.21071 0.21781 0.0
H292 H 0.56011 0.29759 0.21006 0.0
C293 C 0.45856 0.17433 0.19785 0.0
C294 C 0.50927 0.18197 0.18175 0.0
H295 H 0.40436 0.20392 0.22851 0.0
H296 H 0.4293 0.14051 0.1937 0.0
C297 C 0.54608 0.22659 0.18736 0.0
C298 C 0.12754 0.97319 0.67245 0.0
C299 C 0.15053 0.95321 0.63756 0.0
H300 H 0.10336 1.03127 0.69242 0.0
C301 C 0.17608 0.97944 0.60026 0.0
H302 H 0.10881 0.9535 0.70208 0.0
C303 C 0.17386 1.02408 0.59517 0.0
C304 C 0.14573 0.0423 0.62731 0.0
H305 H 0.19499 0.96448 0.57363 0.0
H306 H 0.18907 0.04206 0.56355 0.0
C307 C 0.12529 1.01775 0.66738 0.0
C308 C 0.82843 0.43586 0.99429 0.0
C309 C 0.79455 0.45604 0.97198 0.0
H310 H 0.89791 0.44492 0.03545 0.0
C311 C 0.81016 0.50503 0.97449 0.0
H312 H 0.82028 0.39875 0.99242 0.0
C313 C 0.85655 0.53209 0.99888 0.0
C314 C 0.8891 0.51138 1.02234 0.0
H315 H 0.78605 0.52271 0.95838 0.0
H316 H 0.86659 0.56943 0.99977 0.0
C317 C 0.87394 0.46268 1.01918 0.0
C318 C 0.7532 0.65502 0.47682 0.0
C319 C 0.77082 0.70411 0.47836 0.0
H320 H 0.69682 0.59185 0.50029 0.0
C321 C 0.73972 0.72576 0.5041 0.0
H322 H 0.77513 0.63637 0.45771 0.0
C323 C 0.69543 0.70024 0.52893 0.0
C324 C 0.67888 0.65159 0.52861 0.0
H325 H 0.74947 0.76304 0.50543 0.0
H326 H 0.67409 0.71889 0.54892 0.0
C327 C 0.70807 0.62926 0.50148 0.0
C328 C 0.31693 0.42607 0.22216 0.0
C329 C 0.3504 0.42651 0.18466 0.0
H330 H 0.245 0.43457 0.24426 0.0
C331 C 0.33694 0.43645 0.13969 0.0
H332 H 0.32668 0.41857 0.25722 0.0
C333 C 0.29019 0.44552 0.13212 0.0
C334 C 0.25598 0.44452 0.16945 0.0
H335 H 0.36223 0.43659 0.11027 0.0
H336 H 0.28031 0.45231 0.09684 0.0
C337 C 0.27006 0.43494 0.21463 0.0
C338 C 0.67222 0.27443 0.98547 0.0
C339 C 0.64369 0.30337 0.97062 0.0
H340 H 0.67118 0.21072 1.01761 0.0
C341 C 0.58954 0.28713 0.97826 0.0
H342 H 0.7139 0.285 0.98039 0.0
C343 C 0.56531 0.2449 1.00041 0.0
C344 C 0.59351 0.21586 1.01513 0.0
H345 H 0.56569 0.3078 0.96821 0.0
H346 H 0.52375 0.23497 1.00606 0.0
C347 C 0.64759 0.23135 1.00674 0.0
C348 C 0.92218 0.86441 0.52969 0.0
C349 C 0.9205 0.85705 0.48016 0.0
H350 H 0.9437 0.91229 0.58953 0.0
C351 C 0.94246 0.89696 0.45376 0.0
H352 H 0.90716 0.8354 0.55216 0.0
C353 C 0.96416 0.94173 0.47568 0.0
C354 C 0.96495 0.94894 0.52511 0.0
H355 H 0.94197 0.89397 0.41576 0.0
H356 H 0.98006 0.97093 0.45357 0.0
C357 C 0.94367 0.9091 0.55153 0.0
C358 C 0.37108 0.86102 0.65337 0.0
C359 C 0.31878 0.83309 0.64796 0.0
H360 H 0.45054 0.8635 0.65239 0.0
C361 C 0.30691 0.78895 0.62621 0.0
H362 H 0.3811 0.89582 0.66874 0.0
C363 C 0.34678 0.7708 0.61573 0.0
C364 C 0.39874 0.79644 0.62744 0.0
H365 H 0.26686 0.76702 0.62106 0.0
H366 H 0.33664 0.73537 0.60209 0.0
C367 C 0.41086 0.84274 0.64339 0.0
C368 C 0.73063 0.83387 0.79198 0.0
C369 C 0.707 0.84992 0.82976 0.0
H370 H 0.78796 0.85215 0.73831 0.0
C371 C 0.7151 0.89763 0.83575 0.0
H372 H 0.7242 0.79719 0.78603 0.0
C373 C 0.75123 0.92894 0.80829 0.0
C374 C 0.77983 0.91295 0.77467 0.0
H375 H 0.69763 0.9111 0.86463 0.0
H376 H 0.76033 0.96563 0.81653 0.0
C377 C 0.76708 0.86521 0.76479 0.0
C378 C 0.85064 0.25511 0.3489 0.0
C379 C 0.81835 0.25943 0.3859 0.0
H380 H 0.85476 0.23163 0.27803 0.0
C381 C 0.76492 0.24983 0.37747 0.0
H382 H 0.89194 0.26193 0.35508 0.0
C383 C 0.74337 0.23223 0.33335 0.0
C384 C 0.77512 0.22406 0.29727 0.0
H385 H 0.73939 0.25248 0.40588 0.0
H386 H 0.70161 0.22284 0.32818 0.0
C387 C 0.82926 0.23768 0.30489 0.0
C388 C 0.44652 0.71919 0.44132 0.0
C389 C 0.44035 0.70133 0.39426 0.0
H390 H 0.46569 0.71143 0.51376 0.0
C391 C 0.44871 0.65826 0.38653 0.0
H392 H 0.44154 0.75247 0.44925 0.0
C393 C 0.46287 0.63444 0.42394 0.0
C394 C 0.46983 0.65258 0.47104 0.0
H395 H 0.44548 0.64325 0.35115 0.0
H396 H 0.46948 0.60192 0.41557 0.0
C397 C 0.46076 0.69546 0.47871 0.0
C398 C 0.11948 0.48219 0.937 0.0
C399 C 0.14856 0.50552 0.89887 0.0
H400 H 0.08092 0.48642 1.00269 0.0
C401 C 0.16135 0.55416 0.90042 0.0
H402 H 0.10836 0.44481 0.93743 0.0
C403 C 0.14587 0.57826 0.93848 0.0
C404 C 0.11613 0.55487 0.97643 0.0
H405 H 0.18296 0.57374 0.87191 0.0
H406 H 0.15649 0.61557 0.93762 0.0
C407 C 0.10343 0.50619 0.97472 0.0
C408 C 0.52263 0.90236 0.96518 0.0
C409 C 0.5714 0.89573 0.96562 0.0
H410 H 0.48036 0.94991 0.9782 0.0
C411 C 0.61647 0.93375 0.97339 0.0
H412 H 0.48744 0.87326 0.95896 0.0
C413 C 0.61269 0.97754 0.98428 0.0
C414 C 0.56365 0.98392 0.98757 0.0
H415 H 0.65451 0.92918 0.97346 0.0
H416 H 0.64804 1.00574 0.99293 0.0
C417 C 0.51874 0.9463 0.97583 0.0
C418 C 0.86787 0.16799 0.55596 0.0
C419 C 0.88514 0.18667 0.51234 0.0
H420 H 0.87535 0.12235 0.60885 0.0
C421 C 0.91784 0.16874 0.48521 0.0
H422 H 0.8417 0.18071 0.57693 0.0
C423 C 0.93634 0.13514 0.50318 0.0
C424 C 0.92226 0.11925 0.54821 0.0
H425 H 0.93126 0.18239 0.45126 0.0
H426 H 0.96324 0.12297 0.48278 0.0
C427 C 0.88628 0.13423 0.5738 0.0
C428 C 0.25299 0.7519 0.18183 0.0
C429 C 0.28811 0.73163 0.20172 0.0
H430 H 0.18131 0.74294 0.14414 0.0
C431 C 0.2729 0.68268 0.19826 0.0
H432 H 0.26123 0.78902 0.18435 0.0
C433 C 0.22561 0.65569 0.17517 0.0
C434 C 0.19141 0.67642 0.15445 0.0
H435 H 0.29806 0.66502 0.21253 0.0
H436 H 0.21609 0.6184 0.17324 0.0
C437 C 0.20621 0.72512 0.15866 0.0
C438 C 0.34564 0.50571 0.719 0.0
C439 C 0.29772 0.48036 0.69659 0.0
H440 H 0.42655 0.5473 0.71121 0.0
C441 C 0.29596 0.48193 0.64706 0.0
H442 H 0.34934 0.50539 0.75685 0.0
C443 C 0.33997 0.50605 0.621 0.0
C444 C 0.38852 0.5297 0.64287 0.0
H445 H 0.26027 0.46344 0.62798 0.0
H446 H 0.33612 0.50499 0.58307 0.0
C447 C 0.39027 0.52971 0.69263 0.0
C448 C 0.75459 0.71844 0.91881 0.0
C449 C 0.73324 0.74552 0.94814 0.0
H450 H 0.81528 0.68837 0.90914 0.0
C451 C 0.75374 0.75793 0.99394 0.0
H452 H 0.73929 0.70803 0.88348 0.0
C453 C 0.79737 0.74658 1.00868 0.0
C454 C 0.82127 0.72292 0.97772 0.0
H455 H 0.73852 0.77925 1.01713 0.0
H456 H 0.81433 0.75887 0.04312 0.0
C457 C 0.79827 0.70748 0.93334 0.0
C458 C 0.4342 0.89333 0.1541 0.0
C459 C 0.43943 0.88531 0.20249 0.0
H460 H 0.45204 0.94133 0.09758 0.0
C461 C 0.46909 0.92445 0.23029 0.0
H462 H 0.41292 0.86502 0.13039 0.0
C463 C 0.49192 0.96873 0.21101 0.0
C464 C 0.48656 0.97653 0.16281 0.0
H465 H 0.47423 0.92129 0.26757 0.0
H466 H 0.5141 0.99715 0.23424 0.0
C467 C 0.45711 0.93766 0.13483 0.0
C468 C 0.16246 0.31115 0.65233 0.0
C469 C 0.16049 0.32035 0.70131 0.0
H470 H 0.14327 0.2615 0.59398 0.0
C471 C 0.13533 0.28159 0.72843 0.0
H472 H 0.18014 0.33913 0.62927 0.0
C473 C 0.11345 0.23627 0.70769 0.0
C474 C 0.1156 0.22737 0.65877 0.0
H475 H 0.13294 0.28594 0.76614 0.0
H476 H 0.09464 0.2081 0.73024 0.0
C477 C 0.14069 0.26598 0.63169 0.0
C478 C 0.76499 0.3984 0.57828 0.0
C479 C 0.77288 0.36717 0.54444 0.0
H480 H 0.71585 0.4372 0.60125 0.0
C481 C 0.73601 0.34865 0.50843 0.0
H482 H 0.793 0.41233 0.60668 0.0
C483 C 0.69224 0.36287 0.50501 0.0
C484 C 0.685 0.39565 0.53775 0.0
H485 H 0.74144 0.32387 0.48244 0.0
H486 H 0.66517 0.34956 0.47583 0.0
C487 C 0.72111 0.41252 0.57506 0.0
loop_
_geom_bond_atom_site_label_1
_geom_bond_atom_site_label_2
_geom_bond_distance
_geom_bond_site_symmetry_2
_ccdc_geom_bond_type
H0 C3 0.929 . S
H1 C6 0.929 . S
H2 C8 0.930 . S
C3 H0 0.929 . S
C3 C4 1.398 . S
C3 C5 1.396 . S
C4 C3 1.398 . S
C4 C8 1.407 . S
C5 C3 1.396 . S
C5 C6 1.394 . S
C6 H1 0.929 . S
C6 C5 1.394 . S
C6 C7 1.382 . S
C7 C6 1.382 . S
C7 C8 1.392 . S
C7 N9 1.420 . S
C8 H2 0.930 . S
C8 C4 1.407 . S
C8 C7 1.392 . S
N9 C7 1.420 . S
N9 C10 1.244 . S
C10 N9 1.244 . S
H11 C14 0.929 . S
H12 C17 0.929 . S
H13 C19 0.930 . S
C14 H11 0.929 . S
C14 C15 1.398 . S
C14 C16 1.396 . S
C15 C14 1.398 . S
C15 C19 1.407 . S
C16 C14 1.396 . S
C16 C17 1.394 . S
C17 H12 0.929 . S
C17 C16 1.394 . S
C17 C18 1.382 . S
C18 C17 1.382 . S
C18 C19 1.392 . S
C18 N20 1.420 . S
C19 H13 0.930 . S
C19 C15 1.407 . S
C19 C18 1.392 . S
N20 C18 1.420 . S
N20 C21 1.244 . S
C21 N20 1.244 . S
H22 C25 0.929 . S
H23 C28 0.929 . S
H24 C30 0.930 . S
C25 H22 0.929 . S
C25 C26 1.398 . S
C25 C27 1.396 . S
C26 C25 1.398 . S
C26 C30 1.407 . S
C27 C25 1.396 . S
C27 C28 1.394 . S
C28 H23 0.929 . S
C28 C27 1.394 . S
C28 C29 1.382 . S
C29 C28 1.382 . S
C29 C30 1.392 . S
C29 N31 1.420 . S
C30 H24 0.930 . S
C30 C26 1.407 . S
C30 C29 1.392 . S
N31 C29 1.420 . S
N31 C32 1.244 . S
C32 N31 1.244 . S
H33 C36 0.929 . S
H34 C39 0.929 . S
H35 C41 0.930 . S
C36 H33 0.929 . S
C36 C37 1.398 . S
C36 C38 1.396 . S
C37 C36 1.398 . S
C37 C41 1.407 . S
C38 C36 1.396 . S
C38 C39 1.394 . S
C39 H34 0.929 . S
C39 C38 1.394 . S
C39 C40 1.382 . S
C40 C39 1.382 . S
C40 C41 1.392 . S
C40 N42 1.420 . S
C41 H35 0.930 . S
C41 C37 1.407 . S
C41 C40 1.392 . S
N42 C40 1.420 . S
N42 C43 1.244 . S
C43 N42 1.244 . S
H44 C47 0.929 . S
H45 C50 0.929 . S
H46 C52 0.930 . S
C47 H44 0.929 . S
C47 C48 1.398 . S
C47 C49 1.396 . S
C48 C47 1.398 . S
C48 C52 1.407 . S
C49 C47 1.396 . S
C49 C50 1.394 . S
C50 H45 0.929 . S
C50 C49 1.394 . S
C50 C51 1.382 . S
C51 C50 1.382 . S
C51 C52 1.392 . S
C51 N53 1.420 . S
C52 H46 0.930 . S
C52 C48 1.407 . S
C52 C51 1.392 . S
N53 C51 1.420 . S
N53 C54 1.244 . S
C54 N53 1.244 . S
H55 C58 0.929 . S
H56 C61 0.929 . S
H57 C63 0.930 . S
C58 H55 0.929 . S
C58 C59 1.398 . S
C58 C60 1.396 . S
C59 C58 1.398 . S
C59 C63 1.407 . S
C60 C58 1.396 . S
C60 C61 1.394 . S
C61 H56 0.929 . S
C61 C60 1.394 . S
C61 C62 1.382 . S
C62 C61 1.382 . S
C62 C63 1.392 . S
C62 N64 1.420 . S
C63 H57 0.930 . S
C63 C59 1.407 . S
C63 C62 1.392 . S
N64 C62 1.420 . S
N64 C65 1.244 . S
C65 N64 1.244 . S
H66 C69 0.929 . S
H67 C72 0.929 . S
H68 C74 0.930 . S
C69 H66 0.929 . S
C69 C70 1.398 . S
C69 C71 1.396 . S
C70 C69 1.398 . S
C70 C74 1.407 . S
C71 C69 1.396 . S
C71 C72 1.394 . S
C72 H67 0.929 . S
C72 C71 1.394 . S
C72 C73 1.382 . S
C73 C72 1.382 . S
C73 C74 1.392 . S
C73 N75 1.420 . S
C74 H68 0.930 . S
C74 C70 1.407 . S
C74 C73 1.392 . S
N75 C73 1.420 . S
N75 C76 1.244 . S
C76 N75 1.244 . S
H77 C80 0.929 . S
H78 C83 0.929 . S
H79 C85 0.930 . S
C80 H77 0.929 . S
C80 C81 1.398 . S
C80 C82 1.396 . S
C81 C80 1.398 . S
C81 C85 1.407 . S
C82 C80 1.396 . S
C82 C83 1.394 . S
C83 H78 0.929 . S
C83 C82 1.394 . S
C83 C84 1.382 . S
C84 C83 1.382 . S
C84 C85 1.392 . S
C84 N86 1.420 . S
C85 H79 0.930 . S
C85 C81 1.407 . S
C85 C84 1.392 . S
N86 C84 1.420 . S
N86 C87 1.244 . S
C87 N86 1.244 . S
Ho88 C91 2.811 . S
Ho88 O108 2.322 . S
Ho88 O110 2.378 . S
Ho88 O111 2.524 . S
Ho88 O112 2.381 . S
Ho88 O113 2.669 . S
Ho88 O115 2.346 1_445 S
Ho88 O119 2.305 1_455 S
Ho89 C100 2.811 1_545 S
Ho89 O109 2.346 1_655 S
Ho89 O113 2.305 1_655 S
Ho89 O114 2.322 1_545 S
Ho89 O116 2.378 1_545 S
Ho89 O117 2.524 1_545 S
Ho89 O118 2.381 . S
Ho89 O119 2.669 . S
C90 O108 1.259 . S
C90 O109 1.268 . S
C91 Ho88 2.811 . S
C91 C92 1.488 . S
C91 O110 1.215 . S
C91 O111 1.289 . S
C92 C91 1.488 . S
C92 C93 1.348 . S
C92 C97 1.413 . S
C93 C92 1.348 . S
C93 C94 1.442 . S
C93 H120 0.930 . S
C94 C93 1.442 . S
C94 C95 1.381 . S
C94 H121 0.931 . S
C95 C94 1.381 . S
C95 C96 1.321 . S
C96 C95 1.321 . S
C96 C97 1.403 . S
C96 H122 0.934 . S
C97 C92 1.413 . S
C97 C96 1.403 . S
C97 H123 0.930 . S
C98 O112 1.275 1_565 S
C98 O113 1.256 1_565 S
C99 O114 1.259 . S
C99 O115 1.268 . S
C100 Ho89 2.811 1_565 S
C100 C101 1.488 . S
C100 O116 1.215 . S
C100 O117 1.289 . S
C101 C100 1.488 . S
C101 C102 1.348 . S
C101 C106 1.413 . S
C102 C101 1.348 . S
C102 C103 1.442 . S
C102 H124 0.930 . S
C103 C102 1.442 . S
C103 C104 1.381 . S
C103 H125 0.931 . S
C104 C103 1.381 . S
C104 C105 1.321 . S
C105 C104 1.321 . S
C105 C106 1.403 . S
C105 H126 0.934 . S
C106 C101 1.413 . S
C106 C105 1.403 . S
C106 H127 0.930 . S
C107 O118 1.275 . S
C107 O119 1.256 . S
O108 Ho88 2.322 . S
O108 C90 1.259 . S
O109 Ho89 2.346 1_455 S
O109 C90 1.268 . S
O110 Ho88 2.378 . S
O110 C91 1.215 . S
O111 Ho88 2.524 . S
O111 C91 1.289 . S
O112 Ho88 2.381 . S
O112 C98 1.275 1_545 S
O113 Ho88 2.669 . S
O113 Ho89 2.305 1_455 S
O113 C98 1.256 1_545 S
O114 Ho89 2.322 1_565 S
O114 C99 1.259 . S
O115 Ho88 2.346 1_665 S
O115 C99 1.268 . S
O116 Ho89 2.378 1_565 S
O116 C100 1.215 . S
O117 Ho89 2.524 1_565 S
O117 C100 1.289 . S
O118 Ho89 2.381 . S
O118 C107 1.275 . S
O119 Ho88 2.305 1_655 S
O119 Ho89 2.669 . S
O119 C107 1.256 . S
H120 C93 0.930 . S
H121 C94 0.931 . S
H122 C96 0.934 . S
H123 C97 0.930 . S
H124 C102 0.930 . S
H125 C103 0.931 . S
H126 C105 0.934 . S
H127 C106 0.930 . S
Ho128 C131 2.811 . S
Ho128 O148 2.322 . S
Ho128 O150 2.378 . S
Ho128 O151 2.524 . S
Ho128 O152 2.381 1_545 S
Ho128 O153 2.669 1_545 S
Ho128 O155 2.346 1_545 S
Ho128 O159 2.305 . S
Ho129 C140 2.811 1_544 S
Ho129 O149 2.346 . S
Ho129 O153 2.305 1_545 S
Ho129 O154 2.322 1_554 S
Ho129 O156 2.378 1_554 S
Ho129 O157 2.524 1_544 S
Ho129 O158 2.381 1_554 S
Ho129 O159 2.669 . S
C130 O148 1.259 . S
C130 O149 1.268 . S
C131 Ho128 2.811 . S
C131 C132 1.488 . S
C131 O150 1.215 . S
C131 O151 1.289 . S
C132 C131 1.488 . S
C132 C133 1.348 . S
C132 C137 1.413 . S
C133 C132 1.348 . S
C133 C134 1.442 . S
C133 H160 0.930 . S
C134 C133 1.442 . S
C134 C135 1.381 . S
C134 H161 0.931 . S
C135 C134 1.381 . S
C135 C136 1.321 . S
C136 C135 1.321 . S
C136 C137 1.403 . S
C136 H162 0.934 . S
C137 C132 1.413 . S
C137 C136 1.403 . S
C137 H163 0.930 . S
C138 O152 1.275 . S
C138 O153 1.256 . S
C139 O154 1.259 1_564 S
C139 O155 1.268 . S
C140 Ho129 2.811 1_566 S
C140 C141 1.488 . S
C140 O156 1.215 1_565 S
C140 O157 1.289 . S
C141 C140 1.488 . S
C141 C142 1.348 . S
C141 C146 1.413 . S
C142 C141 1.348 . S
C142 C143 1.442 . S
C142 H164 0.930 . S
C143 C142 1.442 . S
C143 C144 1.381 . S
C143 H165 0.931 . S
C144 C143 1.381 . S
C144 C145 1.321 . S
C145 C144 1.321 . S
C145 C146 1.403 . S
C145 H166 0.934 . S
C146 C141 1.413 . S
C146 C145 1.403 . S
C146 H167 0.936 . S
C147 O158 1.275 1_554 S
C147 O159 1.256 . S
O148 Ho128 2.322 . S
O148 C130 1.259 . S
O149 Ho129 2.346 . S
O149 C130 1.268 . S
O150 Ho128 2.378 . S
O150 C131 1.215 . S
O151 Ho128 2.524 . S
O151 C131 1.289 . S
O152 Ho128 2.381 1_565 S
O152 C138 1.275 . S
O153 Ho128 2.669 1_565 S
O153 Ho129 2.305 1_565 S
O153 C138 1.256 . S
O154 Ho129 2.322 1_556 S
O154 C139 1.259 1_546 S
O155 Ho128 2.346 1_565 S
O155 C139 1.268 . S
O156 Ho129 2.378 1_556 S
O156 C140 1.215 1_545 S
O157 Ho129 2.524 1_566 S
O157 C140 1.289 . S
O158 Ho129 2.381 1_556 S
O158 C147 1.275 1_556 S
O159 Ho128 2.305 . S
O159 Ho129 2.669 . S
O159 C147 1.256 . S
H160 C133 0.930 . S
H161 C134 0.931 . S
H162 C136 0.934 . S
H163 C137 0.930 . S
H164 C142 0.930 . S
H165 C143 0.931 . S
H166 C145 0.934 . S
H167 C146 0.936 . S
Ho168 C171 2.811 . S
Ho168 O188 2.322 . S
Ho168 O190 2.378 . S
Ho168 O191 2.524 . S
Ho168 O192 2.381 . S
Ho168 O193 2.669 . S
Ho168 O195 2.346 . S
Ho168 O199 2.305 . S
Ho169 C180 2.811 . S
Ho169 O189 2.346 . S
Ho169 O193 2.305 . S
Ho169 O194 2.322 . S
Ho169 O196 2.378 . S
Ho169 O197 2.524 . S
Ho169 O198 2.381 . S
Ho169 O199 2.669 . S
C170 O188 1.259 . S
C170 O189 1.268 . S
C171 Ho168 2.811 . S
C171 C172 1.488 . S
C171 O190 1.215 . S
C171 O191 1.289 . S
C172 C171 1.488 . S
C172 C173 1.348 . S
C172 C177 1.413 . S
C173 C172 1.348 . S
C173 C174 1.442 . S
C173 H200 0.930 . S
C174 C173 1.442 . S
C174 C175 1.381 . S
C174 H201 0.931 . S
C175 C174 1.381 . S
C175 C176 1.321 . S
C176 C175 1.321 . S
C176 C177 1.403 . S
C176 H202 0.934 . S
C177 C172 1.413 . S
C177 C176 1.403 . S
C177 H203 0.930 . S
C178 O192 1.275 . S
C178 O193 1.256 . S
C179 O194 1.259 . S
C179 O195 1.268 . S
C180 Ho169 2.811 . S
C180 C181 1.488 . S
C180 O196 1.215 . S
C180 O197 1.289 . S
C181 C180 1.488 . S
C181 C182 1.348 . S
C181 C186 1.413 . S
C182 C181 1.348 . S
C182 C183 1.442 . S
C182 H204 0.930 . S
C183 C182 1.442 . S
C183 C184 1.381 . S
C183 H205 0.931 . S
C184 C183 1.381 . S
C184 C185 1.321 . S
C185 C184 1.321 . S
C185 C186 1.403 . S
C185 H206 0.934 . S
C186 C181 1.413 . S
C186 C185 1.403 . S
C186 H207 0.930 . S
C187 O198 1.275 . S
C187 O199 1.256 . S
O188 Ho168 2.322 . S
O188 C170 1.259 . S
O189 Ho169 2.346 . S
O189 C170 1.268 . S
O190 Ho168 2.378 . S
O190 C171 1.215 . S
O191 Ho168 2.524 . S
O191 C171 1.289 . S
O192 Ho168 2.381 . S
O192 C178 1.275 . S
O193 Ho168 2.669 . S
O193 Ho169 2.305 . S
O193 C178 1.256 . S
O194 Ho169 2.322 . S
O194 C179 1.259 . S
O195 Ho168 2.346 . S
O195 C179 1.268 . S
O196 Ho169 2.378 . S
O196 C180 1.215 . S
O197 Ho169 2.524 . S
O197 C180 1.289 . S
O198 Ho169 2.381 . S
O198 C187 1.275 . S
O199 Ho168 2.305 . S
O199 Ho169 2.669 . S
O199 C187 1.256 . S
H200 C173 0.930 . S
H201 C174 0.931 . S
H202 C176 0.934 . S
H203 C177 0.930 . S
H204 C182 0.930 . S
H205 C183 0.931 . S
H206 C185 0.934 . S
H207 C186 0.930 . S
Ho208 C211 2.811 . S
Ho208 O228 2.322 . S
Ho208 O230 2.378 . S
Ho208 O231 2.524 . S
Ho208 O232 2.381 1_455 S
Ho208 O233 2.669 1_455 S
Ho208 O235 2.346 1_455 S
Ho208 O239 2.305 1_554 S
Ho209 C220 2.811 1_455 S
Ho209 O229 2.346 1_556 S
Ho209 O233 2.305 1_456 S
Ho209 O234 2.322 1_455 S
Ho209 O236 2.378 1_455 S
Ho209 O237 2.524 1_455 S
Ho209 O238 2.381 . S
Ho209 O239 2.669 . S
C210 O228 1.259 . S
C210 O229 1.268 . S
C211 Ho208 2.811 . S
C211 C212 1.488 . S
C211 O230 1.215 . S
C211 O231 1.289 . S
C212 C211 1.488 . S
C212 C213 1.348 . S
C212 C217 1.413 . S
C213 C212 1.348 . S
C213 C214 1.442 . S
C213 H240 0.930 . S
C214 C213 1.442 . S
C214 C215 1.381 . S
C214 H241 0.931 . S
C215 C214 1.381 . S
C215 C216 1.321 . S
C216 C215 1.321 . S
C216 C217 1.403 . S
C216 H242 0.934 . S
C217 C212 1.413 . S
C217 C216 1.403 . S
C217 H243 0.930 . S
C218 O232 1.275 . S
C218 O233 1.256 . S
C219 O234 1.259 . S
C219 O235 1.268 1_556 S
C220 Ho209 2.811 1_655 S
C220 C221 1.488 . S
C220 O236 1.215 . S
C220 O237 1.289 . S
C221 C220 1.488 . S
C221 C222 1.348 . S
C221 C226 1.413 . S
C222 C221 1.348 . S
C222 C223 1.442 . S
C222 H244 0.930 . S
C223 C222 1.442 . S
C223 C224 1.381 . S
C223 H245 0.931 . S
C224 C223 1.381 . S
C224 C225 1.321 . S
C225 C224 1.321 . S
C225 C226 1.403 . S
C225 H246 0.934 . S
C226 C221 1.413 . S
C226 C225 1.403 . S
C226 H247 0.930 . S
C227 O238 1.275 . S
C227 O239 1.256 . S
O228 Ho208 2.322 . S
O228 C210 1.259 . S
O229 Ho209 2.346 1_554 S
O229 C210 1.268 . S
O230 Ho208 2.378 . S
O230 C211 1.215 . S
O231 Ho208 2.524 . S
O231 C211 1.289 . S
O232 Ho208 2.381 1_655 S
O232 C218 1.275 . S
O233 Ho208 2.669 1_655 S
O233 Ho209 2.305 1_654 S
O233 C218 1.256 . S
O234 Ho209 2.322 1_655 S
O234 C219 1.259 . S
O235 Ho208 2.346 1_655 S
O235 C219 1.268 1_554 S
O236 Ho209 2.378 1_655 S
O236 C220 1.215 . S
O237 Ho209 2.524 1_655 S
O237 C220 1.289 . S
O238 Ho209 2.381 . S
O238 C227 1.275 . S
O239 Ho208 2.305 1_556 S
O239 Ho209 2.669 . S
O239 C227 1.256 . S
H240 C213 0.930 . S
H241 C214 0.931 . S
H242 C216 0.934 . S
H243 C217 0.930 . S
H244 C222 0.930 . S
H245 C223 0.931 . S
H246 C225 0.934 . S
H247 C226 0.930 . S
C248 C249 1.387 . S
C248 H252 0.950 . S
C248 C257 1.390 . S
C249 C248 1.387 . S
C249 C251 1.387 . S
H250 C257 0.950 . S
C251 C249 1.387 . S
C251 C253 1.390 . S
C251 H255 0.950 . S
H252 C248 0.950 . S
C253 C251 1.390 . S
C253 C254 1.387 . S
C253 H256 0.950 . S
C254 C253 1.387 . S
C254 C257 1.387 . S
H255 C251 0.950 . S
H256 C253 0.950 . S
C257 C248 1.390 . S
C257 H250 0.950 . S
C257 C254 1.387 . S
C258 C259 1.387 . S
C258 H262 0.950 . S
C258 C267 1.390 . S
C259 C258 1.387 . S
C259 C261 1.387 . S
H260 C267 0.950 . S
C261 C259 1.387 . S
C261 C263 1.390 . S
C261 H265 0.950 . S
H262 C258 0.950 . S
C263 C261 1.390 . S
C263 C264 1.387 . S
C263 H266 0.950 . S
C264 C263 1.387 . S
C264 C267 1.387 . S
H265 C261 0.950 . S
H266 C263 0.950 . S
C267 C258 1.390 . S
C267 H260 0.950 . S
C267 C264 1.387 . S
C268 C269 1.387 . S
C268 H272 0.950 . S
C268 C277 1.390 . S
C269 C268 1.387 . S
C269 C271 1.387 . S
H270 C277 0.950 . S
C271 C269 1.387 . S
C271 C273 1.390 . S
C271 H275 0.950 . S
H272 C268 0.950 . S
C273 C271 1.390 . S
C273 C274 1.387 . S
C273 H276 0.950 . S
C274 C273 1.387 . S
C274 C277 1.387 . S
H275 C271 0.950 . S
H276 C273 0.950 . S
C277 C268 1.390 . S
C277 H270 0.950 . S
C277 C274 1.387 . S
C278 C279 1.387 . S
C278 H282 0.950 . S
C278 C287 1.390 . S
C279 C278 1.387 . S
C279 C281 1.387 . S
H280 C287 0.950 . S
C281 C279 1.387 . S
C281 C283 1.390 . S
C281 H285 0.950 . S
H282 C278 0.950 . S
C283 C281 1.390 . S
C283 C284 1.387 . S
C283 H286 0.950 . S
C284 C283 1.387 . S
C284 C287 1.387 . S
H285 C281 0.950 . S
H286 C283 0.950 . S
C287 C278 1.390 . S
C287 H280 0.950 . S
C287 C284 1.387 . S
C288 C289 1.387 . S
C288 H292 0.950 . S
C288 C297 1.390 . S
C289 C288 1.387 . S
C289 C291 1.387 . S
H290 C297 0.950 . S
C291 C289 1.387 . S
C291 C293 1.390 . S
C291 H295 0.950 . S
H292 C288 0.950 . S
C293 C291 1.390 . S
C293 C294 1.387 . S
C293 H296 0.950 . S
C294 C293 1.387 . S
C294 C297 1.387 . S
H295 C291 0.950 . S
H296 C293 0.950 . S
C297 C288 1.390 . S
C297 H290 0.950 . S
C297 C294 1.387 . S
C298 C299 1.387 . S
C298 H302 0.950 . S
C298 C307 1.390 . S
C299 C298 1.387 . S
C299 C301 1.387 . S
H300 C307 0.951 . S
C301 C299 1.387 . S
C301 C303 1.390 . S
C301 H305 0.950 . S
H302 C298 0.950 . S
C303 C301 1.390 . S
C303 C304 1.387 . S
C303 H306 0.950 . S
C304 C303 1.387 . S
C304 C307 1.387 . S
H305 C301 0.950 . S
H306 C303 0.950 . S
C307 C298 1.390 . S
C307 H300 0.951 . S
C307 C304 1.387 . S
C308 C309 1.387 . S
C308 H312 0.950 . S
C308 C317 1.390 . S
C309 C308 1.387 . S
C309 C311 1.387 . S
H310 C317 0.950 . S
C311 C309 1.387 . S
C311 C313 1.390 . S
C311 H315 0.950 . S
H312 C308 0.950 . S
C313 C311 1.390 . S
C313 C314 1.387 . S
C313 H316 0.950 1_556 S
C314 C313 1.387 . S
C314 C317 1.387 . S
H315 C311 0.950 . S
H316 C313 0.950 1_554 S
C317 C308 1.390 . S
C317 H310 0.950 . S
C317 C314 1.387 . S
C318 C319 1.387 . S
C318 H322 0.950 . S
C318 C327 1.390 . S
C319 C318 1.387 . S
C319 C321 1.387 . S
H320 C327 0.950 . S
C321 C319 1.387 . S
C321 C323 1.390 . S
C321 H325 0.950 . S
H322 C318 0.950 . S
C323 C321 1.390 . S
C323 C324 1.387 . S
C323 H326 0.950 . S
C324 C323 1.387 . S
C324 C327 1.387 . S
H325 C321 0.950 . S
H326 C323 0.950 . S
C327 C318 1.390 . S
C327 H320 0.950 . S
C327 C324 1.387 . S
C328 C329 1.387 . S
C328 H332 0.950 . S
C328 C337 1.390 . S
C329 C328 1.387 . S
C329 C331 1.387 . S
H330 C337 0.950 . S
C331 C329 1.387 . S
C331 C333 1.390 . S
C331 H335 0.950 . S
H332 C328 0.950 . S
C333 C331 1.390 . S
C333 C334 1.387 . S
C333 H336 0.950 . S
C334 C333 1.387 . S
C334 C337 1.387 . S
H335 C331 0.950 . S
H336 C333 0.950 . S
C337 C328 1.390 . S
C337 H330 0.950 . S
C337 C334 1.387 . S
C338 C339 1.387 . S
C338 H342 0.950 . S
C338 C347 1.390 1_556 S
C339 C338 1.387 . S
C339 C341 1.387 . S
H340 C347 0.950 . S
C341 C339 1.387 . S
C341 C343 1.390 . S
C341 H345 0.950 . S
H342 C338 0.950 . S
C343 C341 1.390 . S
C343 C344 1.387 . S
C343 H346 0.950 . S
C344 C343 1.387 . S
C344 C347 1.387 1_556 S
H345 C341 0.950 . S
H346 C343 0.950 . S
C347 C338 1.390 1_554 S
C347 H340 0.950 . S
C347 C344 1.387 1_554 S
C348 C349 1.387 . S
C348 H352 0.950 . S
C348 C357 1.390 . S
C349 C348 1.387 . S
C349 C351 1.387 . S
H350 C357 0.950 . S
C351 C349 1.387 . S
C351 C353 1.390 . S
C351 H355 0.950 . S
H352 C348 0.950 . S
C353 C351 1.390 . S
C353 C354 1.387 . S
C353 H356 0.950 . S
C354 C353 1.387 . S
C354 C357 1.387 . S
H355 C351 0.950 . S
H356 C353 0.950 . S
C357 C348 1.390 . S
C357 H350 0.950 . S
C357 C354 1.387 . S
C358 C359 1.387 . S
C358 H362 0.950 . S
C358 C367 1.390 . S
C359 C358 1.387 . S
C359 C361 1.387 . S
H360 C367 0.950 . S
C361 C359 1.387 . S
C361 C363 1.390 . S
C361 H365 0.950 . S
H362 C358 0.950 . S
C363 C361 1.390 . S
C363 C364 1.387 . S
C363 H366 0.950 . S
C364 C363 1.387 . S
C364 C367 1.387 . S
H365 C361 0.950 . S
H366 C363 0.950 . S
C367 C358 1.390 . S
C367 H360 0.950 . S
C367 C364 1.387 . S
C368 C369 1.387 . S
C368 H372 0.950 . S
C368 C377 1.390 . S
C369 C368 1.387 . S
C369 C371 1.387 . S
H370 C377 0.950 . S
C371 C369 1.387 . S
C371 C373 1.390 . S
C371 H375 0.950 . S
H372 C368 0.950 . S
C373 C371 1.390 . S
C373 C374 1.387 . S
C373 H376 0.950 . S
C374 C373 1.387 . S
C374 C377 1.387 . S
H375 C371 0.950 . S
H376 C373 0.950 . S
C377 C368 1.390 . S
C377 H370 0.950 . S
C377 C374 1.387 . S
C378 C379 1.387 . S
C378 H382 0.950 . S
C378 C387 1.390 . S
C379 C378 1.387 . S
C379 C381 1.387 . S
H380 C387 0.950 . S
C381 C379 1.387 . S
C381 C383 1.390 . S
C381 H385 0.950 . S
H382 C378 0.950 . S
C383 C381 1.390 . S
C383 C384 1.387 . S
C383 H386 0.950 . S
C384 C383 1.387 . S
C384 C387 1.387 . S
H385 C381 0.950 . S
H386 C383 0.950 . S
C387 C378 1.390 . S
C387 H380 0.950 . S
C387 C384 1.387 . S
C388 C389 1.387 . S
C388 H392 0.950 . S
C388 C397 1.390 . S
C389 C388 1.387 . S
C389 C391 1.387 . S
H390 C397 0.950 . S
C391 C389 1.387 . S
C391 C393 1.390 . S
C391 H395 0.950 . S
H392 C388 0.950 . S
C393 C391 1.390 . S
C393 C394 1.387 . S
C393 H396 0.950 . S
C394 C393 1.387 . S
C394 C397 1.387 . S
H395 C391 0.950 . S
H396 C393 0.950 . S
C397 C388 1.390 . S
C397 H390 0.950 . S
C397 C394 1.387 . S
C398 C399 1.387 . S
C398 H402 0.950 . S
C398 C407 1.390 . S
C399 C398 1.387 . S
C399 C401 1.387 . S
H400 C407 0.950 . S
C401 C399 1.387 . S
C401 C403 1.390 . S
C401 H405 0.950 . S
H402 C398 0.950 . S
C403 C401 1.390 . S
C403 C404 1.387 . S
C403 H406 0.950 . S
C404 C403 1.387 . S
C404 C407 1.387 . S
H405 C401 0.950 . S
H406 C403 0.950 . S
C407 C398 1.390 . S
C407 H400 0.950 . S
C407 C404 1.387 . S
C408 C409 1.387 . S
C408 H412 0.950 . S
C408 C417 1.390 . S
C409 C408 1.387 . S
C409 C411 1.387 . S
H410 C417 0.950 . S
C411 C409 1.387 . S
C411 C413 1.390 . S
C411 H415 0.950 . S
H412 C408 0.950 . S
C413 C411 1.390 . S
C413 C414 1.387 . S
C413 H416 0.950 . S
C414 C413 1.387 . S
C414 C417 1.387 . S
H415 C411 0.950 . S
H416 C413 0.950 . S
C417 C408 1.390 . S
C417 H410 0.950 . S
C417 C414 1.387 . S
C418 C419 1.387 . S
C418 H422 0.950 . S
C418 C427 1.390 . S
C419 C418 1.387 . S
C419 C421 1.387 . S
H420 C427 0.950 . S
C421 C419 1.387 . S
C421 C423 1.390 . S
C421 H425 0.950 . S
H422 C418 0.950 . S
C423 C421 1.390 . S
C423 C424 1.387 . S
C423 H426 0.950 . S
C424 C423 1.387 . S
C424 C427 1.387 . S
H425 C421 0.950 . S
H426 C423 0.950 . S
C427 C418 1.390 . S
C427 H420 0.950 . S
C427 C424 1.387 . S
C428 C429 1.387 . S
C428 H432 0.950 . S
C428 C437 1.390 . S
C429 C428 1.387 . S
C429 C431 1.387 . S
H430 C437 0.950 . S
C431 C429 1.387 . S
C431 C433 1.390 . S
C431 H435 0.950 . S
H432 C428 0.950 . S
C433 C431 1.390 . S
C433 C434 1.387 . S
C433 H436 0.950 . S
C434 C433 1.387 . S
C434 C437 1.387 . S
H435 C431 0.950 . S
H436 C433 0.950 . S
C437 C428 1.390 . S
C437 H430 0.950 . S
C437 C434 1.387 . S
C438 C439 1.387 . S
C438 H442 0.950 . S
C438 C447 1.390 . S
C439 C438 1.387 . S
C439 C441 1.387 . S
H440 C447 0.950 . S
C441 C439 1.387 . S
C441 C443 1.390 . S
C441 H445 0.950 . S
H442 C438 0.950 . S
C443 C441 1.390 . S
C443 C444 1.387 . S
C443 H446 0.950 . S
C444 C443 1.387 . S
C444 C447 1.387 . S
H445 C441 0.950 . S
H446 C443 0.950 . S
C447 C438 1.390 . S
C447 H440 0.950 . S
C447 C444 1.387 . S
C448 C449 1.387 . S
C448 H452 0.950 . S
C448 C457 1.390 . S
C449 C448 1.387 . S
C449 C451 1.387 . S
H450 C457 0.950 . S
C451 C449 1.387 . S
C451 C453 1.390 . S
C451 H455 0.950 . S
H452 C448 0.950 . S
C453 C451 1.390 . S
C453 C454 1.387 . S
C453 H456 0.950 . S
C454 C453 1.387 . S
C454 C457 1.387 . S
H455 C451 0.950 . S
H456 C453 0.950 . S
C457 C448 1.390 . S
C457 H450 0.950 . S
C457 C454 1.387 . S
C458 C459 1.387 . S
C458 H462 0.950 . S
C458 C467 1.390 . S
C459 C458 1.387 . S
C459 C461 1.387 . S
H460 C467 0.950 . S
C461 C459 1.387 . S
C461 C463 1.390 . S
C461 H465 0.950 . S
H462 C458 0.950 . S
C463 C461 1.390 . S
C463 C464 1.387 . S
C463 H466 0.950 . S
C464 C463 1.387 . S
C464 C467 1.387 . S
H465 C461 0.950 . S
H466 C463 0.950 . S
C467 C458 1.390 . S
C467 H460 0.950 . S
C467 C464 1.387 . S
C468 C469 1.387 . S
C468 H472 0.950 . S
C468 C477 1.390 . S
C469 C468 1.387 . S
C469 C471 1.387 . S
H470 C477 0.950 . S
C471 C469 1.387 . S
C471 C473 1.390 . S
C471 H475 0.950 . S
H472 C468 0.950 . S
C473 C471 1.390 . S
C473 C474 1.387 . S
C473 H476 0.950 . S
C474 C473 1.387 . S
C474 C477 1.387 . S
H475 C471 0.950 . S
H476 C473 0.950 . S
C477 C468 1.390 . S
C477 H470 0.950 . S
C477 C474 1.387 . S
C478 C479 1.387 . S
C478 H482 0.950 . S
C478 C487 1.390 . S
C479 C478 1.387 . S
C479 C481 1.387 . S
H480 C487 0.950 . S
C481 C479 1.387 . S
C481 C483 1.390 . S
C481 H485 0.950 . S
H482 C478 0.950 . S
C483 C481 1.390 . S
C483 C484 1.387 . S
C483 H486 0.950 . S
C484 C483 1.387 . S
C484 C487 1.387 . S
H485 C481 0.950 . S
H486 C483 0.950 . S
C487 C478 1.390 . S
C487 H480 0.950 . S
C487 C484 1.387 . S
C249 C4 1.136 . S
C254 C95 1.164 . S
C259 C16 1.266 . S
C264 C144 1.284 . S
C274 C170 2.164 . S
C269 C32 2.203 . S
C279 C43 2.374 . S
C284 C218 2.328 . S
C294 C130 2.528 . S
C289 C5 2.358 . S
C304 C98 0.556 . S
C299 C21 0.601 . S
C314 C219 1.964 . S
C309 C27 2.020 . S
C324 C187 1.759 . S
C319 C37 1.752 . S
C329 C10 1.450 . S
C334 C215 1.490 . S
C344 C147 2.523 1_556 S
C339 C26 2.604 . S
C349 C38 2.146 . S
C354 C99 2.147 . S
C359 C15 1.331 . S
C364 C184 1.361 . S
C374 C104 1.236 . S
C369 C48 1.220 . S
C379 C59 1.184 . S
C384 C135 1.189 . S
C389 C76 2.507 . S
C394 C179 2.459 . S
C399 C87 2.238 . S
C404 C227 2.234 . S
C409 C54 1.908 . S
C414 C139 2.082 1_556 S
C424 C107 1.300 . S
C419 C60 1.322 . S
C434 C210 1.855 . S
C429 C71 1.899 . S
C444 C178 1.714 . S
C439 C82 1.777 . S
C449 C49 1.669 . S
C454 C224 1.809 . S
C464 C138 2.051 . S
C459 C70 2.125 . S
C474 C90 2.534 . S
C469 C81 2.544 . S
C479 C65 1.094 . S
C484 C175 1.113 . S
