# Generated by pormake.
# Topology anh, (6,3)-cn, num edge types: 1
# Building blocks:
#     Node 0, Type 0, BuildingBlock: BETDAH_clean_sbu_0, # of connection points: 6
#     Node 1, Type 0, BuildingBlock: BETDAH_clean_sbu_0, # of connection points: 6
#     Node 2, Type 0, BuildingBlock: BETDAH_clean_sbu_0, # of connection points: 6
#     Node 3, Type 1, BuildingBlock: BELTOD_clean_linker_0, # of connection points: 3
#     Node 4, Type 1, BuildingBlock: BELTOD_clean_linker_0, # of connection points: 3
#     Node 5, Type 1, BuildingBlock: BELTOD_clean_linker_0, # of connection points: 3
#     Node 6, Type 1, BuildingBlock: BELTOD_clean_linker_0, # of connection points: 3
#     Node 7, Type 1, BuildingBlock: BELTOD_clean_linker_0, # of connection points: 3
#     Node 8, Type 1, BuildingBlock: BELTOD_clean_linker_0, # of connection points: 3
#     Edge 9, Type (0, 1), BuildingBlock: XUDNAN_clean_linker_2, # of connection points: 2
#     Edge 10, Type (0, 1), BuildingBlock: XUDNAN_clean_linker_2, # of connection points: 2
#     Edge 11, Type (0, 1), BuildingBlock: XUDNAN_clean_linker_2, # of connection points: 2
#     Edge 12, Type (0, 1), BuildingBlock: XUDNAN_clean_linker_2, # of connection points: 2
#     Edge 13, Type (0, 1), BuildingBlock: XUDNAN_clean_linker_2, # of connection points: 2
#     Edge 14, Type (0, 1), BuildingBlock: XUDNAN_clean_linker_2, # of connection points: 2
#     Edge 15, Type (0, 1), BuildingBlock: XUDNAN_clean_linker_2, # of connection points: 2
#     Edge 16, Type (0, 1), BuildingBlock: XUDNAN_clean_linker_2, # of connection points: 2
#     Edge 17, Type (0, 1), BuildingBlock: XUDNAN_clean_linker_2, # of connection points: 2
#     Edge 18, Type (0, 1), BuildingBlock: XUDNAN_clean_linker_2, # of connection points: 2
#     Edge 19, Type (0, 1), BuildingBlock: XUDNAN_clean_linker_2, # of connection points: 2
#     Edge 20, Type (0, 1), BuildingBlock: XUDNAN_clean_linker_2, # of connection points: 2
#     Edge 21, Type (0, 1), BuildingBlock: XUDNAN_clean_linker_2, # of connection points: 2
#     Edge 22, Type (0, 1), BuildingBlock: XUDNAN_clean_linker_2, # of connection points: 2
#     Edge 23, Type (0, 1), BuildingBlock: XUDNAN_clean_linker_2, # of connection points: 2
#     Edge 24, Type (0, 1), BuildingBlock: XUDNAN_clean_linker_2, # of connection points: 2
#     Edge 25, Type (0, 1), BuildingBlock: XUDNAN_clean_linker_2, # of connection points: 2
#     Edge 26, Type (0, 1), BuildingBlock: XUDNAN_clean_linker_2, # of connection points: 2
# Relax obj value: 0.179
# Max RMSD: 0.209
# Mean RMSD: 0.149
data_MOF--net-anh--node1-BETDAH_clean_sbu_0--node2-BELTOD_clean_linker_0--edge1-XUDNAN_clean_linker_2
_symmetry_space_group_name_H-M    P1
_symmetry_Int_Tables_number       1
_symmetry_cell_setting            triclinic
loop_
_symmetry_equiv_pos_as_xyz
'x, y, z'
_cell_length_a     35.345458
_cell_length_b     41.196392
_cell_length_c     60.666822
_cell_angle_alpha  92.505931
_cell_angle_beta   89.844164
_cell_angle_gamma 128.72358
loop_
_atom_site_label
_atom_site_type_symbol
_atom_site_fract_x
_atom_site_fract_y
_atom_site_fract_z
_atom_type_partial_charge
Ho0 Ho 0.11683 0.52344 0.14321 0.0
Ho1 Ho 0.05085 0.54274 0.15875 0.0
C2 C 0.16306 0.62047 0.15653 0.0
C3 C 0.17869 0.52194 0.1217 0.0
C4 C 0.23096 0.54459 0.12392 0.0
C5 C 0.25274 0.53387 0.10944 0.0
C6 C 0.30057 0.55001 0.11336 0.0
C7 C 0.3275 0.57726 0.13189 0.0
C8 C 0.30638 0.59011 0.14556 0.0
C9 C 0.2583 0.57381 0.1416 0.0
C10 C 0.10056 0.51585 0.18656 0.0
C11 C 1.00592 0.44646 0.14759 0.0
C12 C 0.98876 0.54587 0.17903 0.0
C13 C 0.93892 0.51499 0.18624 0.0
C14 C 0.92352 0.47748 0.19486 0.0
C15 C 0.87453 0.44639 0.19897 0.0
C16 C 0.84019 0.45208 0.19421 0.0
C17 C 0.85628 0.49054 0.18664 0.0
C18 C 0.90524 0.52172 0.18275 0.0
C19 C 0.06517 0.54476 0.1146 0.0
O20 O 0.16924 0.59429 0.14738 0.0
O21 O 0.12063 0.60738 0.16388 0.0
O22 O 0.15334 0.49735 0.13765 0.0
O23 O 0.1652 0.54367 0.11596 0.0
O24 O 0.10778 0.49336 0.17469 0.0
O25 O 0.107 0.54403 0.17538 0.0
O26 O 1.00313 0.47207 0.16013 0.0
O27 O 1.0444 0.46105 0.13558 0.0
O28 O 0.99371 0.54793 0.15766 0.0
O29 O 1.02255 0.54756 0.18924 0.0
O30 O 0.06171 0.57073 0.12534 0.0
O31 O 0.05861 0.51891 0.12753 0.0
H32 H 0.23196 0.51127 0.09576 0.0
H33 H 0.31508 0.53864 0.10271 0.0
H34 H 0.32621 0.61115 0.15987 0.0
H35 H 0.24178 0.58243 0.15291 0.0
H36 H 0.94897 0.47162 0.19773 0.0
H37 H 0.86325 0.41742 0.20519 0.0
H38 H 0.83074 0.49575 0.18247 0.0
H39 H 0.91649 0.55043 0.17606 0.0
Ho40 Ho 0.60815 0.03062 0.47547 0.0
Ho41 Ho 0.54892 0.0571 0.46546 0.0
C42 C 0.49601 0.96173 0.45814 0.0
C43 C 0.6426 0.99557 0.49042 0.0
C44 C 0.62552 0.95441 0.49681 0.0
C45 C 0.57816 0.92419 0.50391 0.0
C46 C 0.56359 0.88563 0.51028 0.0
C47 C 0.59607 0.87666 0.50949 0.0
C48 C 0.64317 0.90694 0.50205 0.0
C49 C 0.65768 0.94538 0.4958 0.0
C50 C 0.61834 0.05667 0.43438 0.0
C51 C 0.66483 0.12846 0.47806 0.0
C52 C 0.51435 0.09379 0.45368 0.0
C53 C 0.51567 0.12767 0.46401 0.0
C54 C 0.52318 0.15854 0.45106 0.0
C55 C 0.52463 0.19085 0.46073 0.0
C56 C 0.51815 0.1926 0.48352 0.0
C57 C 0.51106 0.16181 0.49646 0.0
C58 C 0.51014 0.12985 0.48685 0.0
C59 C 0.54293 0.03444 0.50737 0.0
O60 O 0.53061 0.96948 0.47159 0.0
O61 O 0.50046 0.99281 0.44953 0.0
O62 O 0.63857 0.9991 0.46943 0.0
O63 O 0.63105 0.01454 0.5031 0.0
O64 O 0.65333 0.06408 0.44651 0.0
O65 O 0.57853 0.0338 0.44405 0.0
O66 O 0.62373 0.11922 0.47075 0.0
O67 O 0.66789 0.0992 0.483 0.0
O68 O 0.48913 0.05875 0.46366 0.0
O69 O 0.55572 0.10438 0.44696 0.0
O70 O 0.50696 0.02664 0.49603 0.0
O71 O 0.58087 0.05601 0.49649 0.0
H72 H 0.55265 0.93048 0.50465 0.0
H73 H 0.52695 0.86282 0.51575 0.0
H74 H 0.66931 0.90136 0.50155 0.0
H75 H 0.69435 0.96832 0.49035 0.0
H76 H 0.52781 0.1576 0.43344 0.0
H77 H 0.52998 0.21404 0.45033 0.0
H78 H 0.50675 0.16269 0.51411 0.0
H79 H 0.50507 0.10683 0.49731 0.0
Ho80 Ho 0.59215 0.56366 0.85235 0.0
Ho81 Ho 0.52425 0.47049 0.84049 0.0
C82 C 0.47253 0.51307 0.84662 0.0
C83 C 0.63826 0.64295 0.85062 0.0
C84 C 0.62677 0.67082 0.84542 0.0
C85 C 0.60284 0.66563 0.82547 0.0
C86 C 0.59499 0.69386 0.82032 0.0
C87 C 0.61048 0.72766 0.83506 0.0
C88 C 0.63356 0.73229 0.85517 0.0
C89 C 0.64176 0.70427 0.86024 0.0
C90 C 0.55812 0.51434 0.8867 0.0
C91 C 0.64279 0.51961 0.84989 0.0
C92 C 0.48009 0.39121 0.83886 0.0
C93 C 0.49343 0.36378 0.83472 0.0
C94 C 0.52619 0.36551 0.84888 0.0
C95 C 0.53671 0.33816 0.8452 0.0
C96 C 0.51497 0.30859 0.82724 0.0
C97 C 0.48295 0.30743 0.81285 0.0
C98 C 0.47213 0.33458 0.81663 0.0
C99 C 0.55679 0.519 0.80572 0.0
O100 O 0.51757 0.54949 0.84659 0.0
O101 O 0.46623 0.47762 0.84663 0.0
O102 O 0.62142 0.62328 0.8689 0.0
O103 O 0.63502 0.61952 0.83422 0.0
O104 O 0.6017 0.54992 0.88676 0.0
O105 O 0.53496 0.50867 0.86934 0.0
O106 O 0.59741 0.48434 0.8467 0.0
O107 O 0.65141 0.55612 0.8516 0.0
O108 O 0.48158 0.41076 0.82204 0.0
O109 O 0.49698 0.41466 0.85717 0.0
O110 O 0.51338 0.48385 0.80671 0.0
O111 O 0.58137 0.5255 0.82283 0.0
H112 H 0.59058 0.64002 0.81372 0.0
H113 H 0.57661 0.68913 0.80482 0.0
H114 H 0.64638 0.7582 0.8668 0.0
H115 H 0.66049 0.70909 0.87565 0.0
H116 H 0.54351 0.38776 0.86292 0.0
H117 H 0.56201 0.34023 0.85642 0.0
H118 H 0.46528 0.28479 0.79899 0.0
H119 H 0.44662 0.33244 0.80552 0.0
P120 P 0.63437 0.01902 0.19919 0.0
H121 H 0.58515 0.93067 0.19692 0.0
H122 H 0.5027 0.86936 0.18718 0.0
H123 H 0.46847 0.94845 0.16807 0.0
H124 H 0.55171 0.01026 0.17864 0.0
H125 H 0.69891 0.10282 0.22041 0.0
H126 H 0.75563 0.17087 0.20624 0.0
H127 H 0.69849 0.11856 0.14002 0.0
H128 H 0.64255 0.04902 0.15457 0.0
H129 H 0.69521 0.03128 0.23629 0.0
H130 H 0.56467 0.01725 0.22681 0.0
O131 O 0.67109 0.00713 0.19452 0.0
H132 H 0.6955 0.04551 0.27578 0.0
H133 H 0.56462 0.03123 0.26661 0.0
C134 C 0.57505 0.97515 0.18805 0.0
C135 C 0.56028 0.93495 0.19017 0.0
C136 C 0.51284 0.89967 0.1845 0.0
C137 C 0.47848 0.90352 0.17665 0.0
C138 C 0.49364 0.94407 0.17421 0.0
C139 C 0.54142 0.97955 0.18001 0.0
C140 C 0.66527 0.07037 0.18867 0.0
C141 C 0.69724 0.10567 0.20288 0.0
C142 C 0.73012 0.1452 0.19465 0.0
C143 C 0.73226 0.15091 0.17185 0.0
C144 C 0.69873 0.11564 0.15765 0.0
C145 C 0.66597 0.07577 0.16597 0.0
C146 C 0.62958 0.02268 0.22864 0.0
C147 C 0.66601 0.03038 0.24276 0.0
C148 C 0.66637 0.03885 0.26531 0.0
C149 C 0.63023 0.03969 0.27421 0.0
C150 C 0.5927 0.03049 0.26018 0.0
C151 C 0.59269 0.02246 0.23749 0.0
P152 P 0.65404 0.58235 0.57489 0.0
H153 H 0.69601 0.54227 0.56199 0.0
H154 H 0.66141 0.47271 0.54686 0.0
H155 H 0.51904 0.44007 0.54533 0.0
H156 H 0.55407 0.51 0.56062 0.0
H157 H 0.69265 0.64993 0.54512 0.0
H158 H 0.66586 0.68911 0.53484 0.0
H159 H 0.53321 0.60518 0.56974 0.0
H160 H 0.56206 0.56763 0.5811 0.0
H161 H 0.59679 0.51365 0.60526 0.0
H162 H 0.69616 0.64801 0.60938 0.0
O163 O 0.7135 0.61358 0.5705 0.0
H164 H 0.59021 0.5133 0.64536 0.0
H165 H 0.68918 0.64796 0.64949 0.0
C166 C 0.6278 0.53168 0.56209 0.0
C167 C 0.65744 0.52044 0.5581 0.0
C168 C 0.63761 0.48059 0.54938 0.0
C169 C 0.58749 0.45086 0.54473 0.0
C170 C 0.55777 0.4622 0.54879 0.0
C171 C 0.57779 0.50228 0.5574 0.0
C172 C 0.62947 0.60594 0.56397 0.0
C173 C 0.65756 0.63963 0.55039 0.0
C174 C 0.64187 0.66192 0.54434 0.0
C175 C 0.59729 0.65063 0.5515 0.0
C176 C 0.56814 0.61541 0.56424 0.0
C177 C 0.58426 0.59348 0.57053 0.0
C178 C 0.64743 0.58091 0.60436 0.0
C179 C 0.61711 0.5431 0.61475 0.0
C180 C 0.61312 0.54295 0.63772 0.0
C181 C 0.63935 0.58063 0.65067 0.0
C182 C 0.66912 0.61841 0.64007 0.0
C183 C 0.67299 0.61849 0.61714 0.0
P184 P 0.09393 0.56552 0.87625 0.0
H185 H 0.18949 0.60936 0.85454 0.0
H186 H 0.24586 0.59479 0.84861 0.0
H187 H 0.1396 0.4717 0.87198 0.0
H188 H 0.08283 0.48609 0.87717 0.0
H189 H 0.06326 0.61157 0.85687 0.0
H190 H 0.98603 0.5977 0.85158 0.0
H191 H 0.91158 0.47213 0.8713 0.0
H192 H 0.9891 0.48587 0.87573 0.0
H193 H 0.13854 0.62565 0.91488 0.0
H194 H 1.03895 0.49203 0.90331 0.0
O195 O 0.13184 0.6169 0.87334 0.0
H196 H 0.1341 0.61738 0.95462 0.0
H197 H 1.03384 0.48368 0.94294 0.0
C198 C 0.13024 0.54892 0.86622 0.0
C199 C 0.17729 0.57867 0.85802 0.0
C200 C 0.21059 0.57048 0.85489 0.0
C201 C 0.19886 0.53194 0.85981 0.0
C202 C 0.15118 0.50176 0.86752 0.0
C203 C 0.11785 0.51001 0.8706 0.0
C204 C 1.03378 0.54985 0.86657 0.0
C205 C 1.03054 0.58051 0.85963 0.0
C206 C 0.98549 0.57269 0.85691 0.0
C207 C 0.9408 0.53369 0.86104 0.0
C208 C 0.94404 0.50263 0.86749 0.0
C209 C 0.98924 0.51049 0.87014 0.0
C210 C 0.08934 0.55942 0.90584 0.0
C211 C 0.11547 0.59447 0.92076 0.0
C212 C 0.11268 0.58977 0.9436 0.0
C213 C 0.08384 0.54988 0.95205 0.0
C214 C 0.05707 0.5149 0.93705 0.0
C215 C 0.05982 0.51965 0.91426 0.0
P216 P 0.11303 0.51715 0.42184 0.0
H217 H 0.214 0.57421 0.43872 0.0
H218 H 0.27106 0.64946 0.44516 0.0
H219 H 0.15468 0.6555 0.43487 0.0
H220 H 0.09795 0.57985 0.4275 0.0
H221 H 0.08723 0.44788 0.44798 0.0
H222 H 1.01127 0.38915 0.46277 0.0
H223 H 0.94297 0.44174 0.44342 0.0
H224 H 1.02003 0.50136 0.42927 0.0
H225 H 0.16681 0.57266 0.38598 0.0
H226 H 1.02454 0.45589 0.39421 0.0
O227 O 0.14724 0.50208 0.42102 0.0
H228 H 0.14992 0.56592 0.34634 0.0
H229 H 1.00631 0.45027 0.35507 0.0
C230 C 0.15136 0.57104 0.43263 0.0
C231 C 0.20032 0.59145 0.43828 0.0
C232 C 0.23321 0.63486 0.44206 0.0
C233 C 0.21806 0.65917 0.4403 0.0
C234 C 0.16822 0.6382 0.43592 0.0
C235 C 0.13536 0.5947 0.43201 0.0
C236 C 0.05964 0.47927 0.43738 0.0
C237 C 0.05628 0.44737 0.44727 0.0
C238 C 1.01231 0.41324 0.45552 0.0
C239 C 0.9702 0.40984 0.45403 0.0
C240 C 0.97438 0.44304 0.44509 0.0
C241 C 1.01864 0.47744 0.43699 0.0
C242 C 0.09665 0.51535 0.39332 0.0
C243 C 0.13134 0.54623 0.37941 0.0
C244 C 0.12152 0.54241 0.35668 0.0
C245 C 0.07672 0.50746 0.34734 0.0
C246 C 1.04151 0.47732 0.36151 0.0
C247 C 0.05166 0.48087 0.38414 0.0
P248 P 0.64237 0.05863 0.73989 0.0
H249 H 0.6612 0.09597 0.78433 0.0
H250 H 0.63554 0.13222 0.80369 0.0
H251 H 0.54401 0.10588 0.74732 0.0
H252 H 0.57062 0.07039 0.72793 0.0
H253 H 0.69116 0.02219 0.73996 0.0
H254 H 0.67619 0.96396 0.75859 0.0
H255 H 0.54623 0.93628 0.78577 0.0
H256 H 0.56233 0.99545 0.76742 0.0
H257 H 0.6785 0.1102 0.70192 0.0
H258 H 0.56266 0.98197 0.71491 0.0
O259 O 0.70262 0.09509 0.74098 0.0
H260 H 0.65177 0.09628 0.66318 0.0
H261 H 0.53616 0.96742 0.676 0.0
C262 C 0.61805 0.0806 0.75469 0.0
C263 C 0.63525 0.09768 0.77623 0.0
C264 C 0.62035 0.11828 0.78731 0.0
C265 C 0.58778 0.1222 0.77706 0.0
C266 C 0.56969 0.10407 0.7556 0.0
C267 C 0.58466 0.08344 0.74453 0.0
C268 C 0.62845 0.01367 0.75269 0.0
C269 C 0.65943 1.00356 0.74993 0.0
C270 C 0.65054 0.96995 0.76046 0.0
C271 C 0.61011 0.94542 0.77385 0.0
C272 C 0.5782 0.95491 0.77595 0.0
C273 C 0.58723 0.98866 0.7654 0.0
C274 C 0.62311 0.04697 0.71119 0.0
C275 C 0.64768 0.07886 0.69634 0.0
C276 C 0.63247 0.07078 0.67414 0.0
C277 C 0.59203 0.03062 0.66637 0.0
C278 C 0.56728 0.99875 0.68142 0.0
C279 C 0.58258 0.00692 0.70365 0.0
P280 P 0.43114 0.33233 0.09531 0.0
H281 H 0.41609 0.26151 0.11552 0.0
H282 H 0.46935 0.25771 0.13932 0.0
H283 H 0.58703 0.38747 0.12992 0.0
H284 H 0.53462 0.39104 0.10612 0.0
H285 H 0.38971 0.34682 0.13248 0.0
H286 H 0.40536 0.40974 0.14856 0.0
H287 H 0.51823 0.48335 0.10182 0.0
H288 H 0.50083 0.42016 0.08529 0.0
H289 H 0.5115 0.35591 0.06629 0.0
H290 H 0.37056 0.32496 0.06044 0.0
O291 O 0.37367 0.29133 0.09951 0.0
H292 H 0.52596 0.37412 0.02762 0.0
H293 H 0.38481 0.34345 0.02207 0.0
C294 C 0.4713 0.32672 0.10929 0.0
C295 C 0.45355 0.28893 0.11835 0.0
C296 C 0.48377 0.28676 0.13197 0.0
C297 C 0.53168 0.32256 0.1368 0.0
C298 C 0.54978 0.35971 0.12685 0.0
C299 C 0.51991 0.3617 0.11314 0.0
C300 C 0.443 0.37868 0.10729 0.0
C301 C 0.4176 0.37651 0.12565 0.0
C302 C 0.42726 0.41266 0.13507 0.0
C303 C 0.46311 0.4517 0.12646 0.0
C304 C 0.48992 0.45379 0.10864 0.0
C305 C 0.47983 0.41759 0.09911 0.0
C306 C 0.43951 0.33831 0.06611 0.0
C307 C 0.48329 0.35225 0.05661 0.0
C308 C 0.49172 0.36304 0.03455 0.0
C309 C 0.45648 0.36009 0.02172 0.0
C310 C 0.41235 0.3453 0.03129 0.0
C311 C 0.40408 0.33466 0.05326 0.0
H312 H 0.39983 0.5943 0.10541 0.0
H313 H 0.35608 0.57561 0.17338 0.0
H314 H 0.41289 0.56231 0.1819 0.0
H315 H 0.3861 0.51159 0.09796 0.0
H316 H 0.43604 0.52841 0.08041 0.0
H317 H 0.41262 0.55626 0.08154 0.0
H318 H 0.49771 0.62482 0.09276 0.0
H319 H 0.52188 0.59709 0.09136 0.0
H320 H 0.53049 0.62691 0.11622 0.0
H321 H 0.44794 0.52667 0.18036 0.0
H322 H 0.45951 0.47528 0.16911 0.0
H323 H 0.47587 0.51094 0.10148 0.0
C324 C 0.40421 0.58947 0.12231 0.0
C325 C 0.37334 0.58565 0.13863 0.0
C326 C 0.37974 0.57926 0.1606 0.0
C327 C 0.41202 0.57151 0.16559 0.0
C328 C 0.43789 0.5706 0.14851 0.0
C329 C 0.43521 0.58042 0.12731 0.0
C330 C 0.45684 0.56781 0.11089 0.0
C331 C 0.42071 0.53931 0.09162 0.0
C332 C 0.50458 0.60647 0.10231 0.0
C333 C 0.46624 0.54469 0.12561 0.0
C334 C 0.4575 0.54845 0.14744 0.0
C335 C 0.45639 0.52457 0.16345 0.0
C336 C 0.46237 0.49503 0.15687 0.0
C337 C 0.46848 0.48905 0.13439 0.0
C338 C 0.47264 0.51559 0.11886 0.0
H339 H 0.75879 0.16371 0.46694 0.0
H340 H 0.66855 0.19441 0.49112 0.0
H341 H 0.73776 0.26942 0.4896 0.0
H342 H 0.87429 0.25298 0.49413 0.0
H343 H 0.90968 0.26004 0.47065 0.0
H344 H 0.85471 0.20892 0.47592 0.0
H345 H 0.82167 0.20239 0.43655 0.0
H346 H 0.8764 0.25351 0.43119 0.0
H347 H 0.81828 0.24183 0.42788 0.0
H348 H 0.81586 0.34133 0.48389 0.0
H349 H 0.8959 0.40438 0.4736 0.0
H350 H 0.9346 0.3275 0.45059 0.0
C351 C 0.75412 0.18632 0.47249 0.0
C352 C 0.70849 0.17321 0.47961 0.0
C353 C 0.70328 0.20373 0.4859 0.0
C354 C 0.74242 0.24644 0.48507 0.0
C355 C 0.78667 0.25842 0.47761 0.0
C356 C 0.79275 0.22928 0.47135 0.0
C357 C 0.84301 0.25051 0.46233 0.0
C358 C 0.87214 0.24264 0.47661 0.0
C359 C 0.83962 0.23621 0.43805 0.0
C360 C 0.86412 0.29599 0.46449 0.0
C361 C 0.83111 0.29984 0.47349 0.0
C362 C 0.84197 0.33863 0.4768 0.0
C363 C 0.88759 0.37439 0.4707 0.0
C364 C 0.92214 0.37146 0.46116 0.0
C365 C 0.9098 0.33139 0.45815 0.0
H366 H 0.62635 0.76386 0.79545 0.0
H367 H 0.57936 0.76153 0.86191 0.0
H368 H 0.57087 0.81473 0.85305 0.0
H369 H 0.69712 0.87299 0.79043 0.0
H370 H 0.68125 0.86915 0.7617 0.0
H371 H 0.6812 0.82936 0.77288 0.0
H372 H 0.59184 0.773 0.75936 0.0
H373 H 0.59165 0.81264 0.74806 0.0
H374 H 0.54671 0.7782 0.76754 0.0
H375 H 0.57012 0.86999 0.83727 0.0
H376 H 0.57882 0.92405 0.81615 0.0
H377 H 0.62513 0.88969 0.75969 0.0
C378 C 0.61355 0.77407 0.80804 0.0
C379 C 0.60342 0.75843 0.82939 0.0
C380 C 0.58772 0.77328 0.84551 0.0
C381 C 0.58252 0.80332 0.84059 0.0
C382 C 0.59321 0.81833 0.81945 0.0
C383 C 0.6084 0.80422 0.80343 0.0
C384 C 0.61929 0.82654 0.78226 0.0
C385 C 0.6729 0.85096 0.77649 0.0
C386 C 0.58534 0.79575 0.76318 0.0
C387 C 0.60823 0.85566 0.78894 0.0
C388 C 0.59296 0.85026 0.81041 0.0
C389 C 0.58165 0.87424 0.82038 0.0
C390 C 0.58641 0.90474 0.80817 0.0
C391 C 0.60248 0.9112 0.78617 0.0
C392 C 0.61312 0.88591 0.77649 0.0
H393 H 0.76713 0.45298 0.20814 0.0
H394 H 0.7947 0.37288 0.17785 0.0
H395 H 0.7077 0.31883 0.16939 0.0
H396 H 0.63478 0.36581 0.22541 0.0
H397 H 0.61767 0.39685 0.21757 0.0
H398 H 0.67761 0.4218 0.22909 0.0
H399 H 0.71512 0.46651 0.1949 0.0
H400 H 0.65577 0.44172 0.18331 0.0
H401 H 0.6987 0.44088 0.16774 0.0
H402 H 0.62485 0.28322 0.15481 0.0
H403 H 0.55587 0.27119 0.1348 0.0
H404 H 0.58127 0.37525 0.17239 0.0
C405 C 0.75437 0.42326 0.20061 0.0
C406 C 0.78751 0.41665 0.19414 0.0
C407 C 0.76982 0.37785 0.18385 0.0
C408 C 0.72029 0.34703 0.17882 0.0
C409 C 0.68876 0.35547 0.18416 0.0
C410 C 0.70509 0.39261 0.19507 0.0
C411 C 0.66656 0.39806 0.19479 0.0
C412 C 0.64805 0.39545 0.2181 0.0
C413 C 0.68516 0.43917 0.18456 0.0
C414 C 0.62804 0.3604 0.18021 0.0
C415 C 0.6405 0.3352 0.17501 0.0
C416 C 0.61386 0.30189 0.1593 0.0
C417 C 0.5748 0.29524 0.14799 0.0
C418 C 0.56362 0.32232 0.15223 0.0
C419 C 0.58909 0.35394 0.16917 0.0
H420 H 0.46711 0.88803 0.47546 0.0
H421 H 0.42328 0.9362 0.42836 0.0
H422 H 0.34816 0.86518 0.41951 0.0
H423 H 0.41994 0.79236 0.44371 0.0
H424 H 0.39947 0.76103 0.46743 0.0
H425 H 0.4504 0.81579 0.47022 0.0
H426 H 0.40726 0.82578 0.501 0.0
H427 H 0.35607 0.77108 0.49831 0.0
H428 H 0.34727 0.80938 0.49561 0.0
H429 H 0.27758 0.78927 0.41545 0.0
H430 H 0.21685 0.71306 0.41582 0.0
H431 H 0.3034 0.71214 0.46616 0.0
C432 C 0.4418 0.88361 0.46323 0.0
C433 C 0.45145 0.91806 0.45263 0.0
C434 C 0.41707 0.91067 0.43678 0.0
C435 C 0.37408 0.87029 0.43161 0.0
C436 C 0.36551 0.8372 0.44241 0.0
C437 C 0.39833 0.84326 0.45786 0.0
C438 C 0.3798 0.80195 0.46701 0.0
C439 C 0.41447 0.79222 0.46177 0.0
C440 C 0.37215 0.80207 0.49197 0.0
C441 C 0.33162 0.77189 0.45421 0.0
C442 C 0.32423 0.79306 0.44017 0.0
C443 C 0.28281 0.77236 0.4265 0.0
C444 C 0.24811 0.72887 0.42702 0.0
C445 C 0.2545 0.706 0.44118 0.0
C446 C 0.2971 0.72825 0.45502 0.0
H447 H 0.53382 0.28445 0.78841 0.0
H448 H 0.51768 0.26417 0.85855 0.0
H449 H 0.53286 0.21344 0.85327 0.0
H450 H 0.47593 0.17815 0.76957 0.0
H451 H 0.51725 0.19244 0.74753 0.0
H452 H 0.50469 0.22691 0.75675 0.0
H453 H 0.59658 0.28669 0.76403 0.0
H454 H 0.60944 0.25245 0.75475 0.0
H455 H 0.63071 0.27871 0.78173 0.0
H456 H 0.54915 0.16442 0.84032 0.0
H457 H 0.56832 0.12261 0.82092 0.0
H458 H 0.57583 0.17591 0.75928 0.0
C459 C 0.53316 0.26911 0.80263 0.0
C460 C 0.52457 0.27831 0.82391 0.0
C461 C 0.52469 0.25799 0.84214 0.0
C462 C 0.53298 0.22892 0.83928 0.0
C463 C 0.54131 0.22057 0.8181 0.0
C464 C 0.54172 0.24021 0.8001 0.0
C465 C 0.5527 0.22631 0.77918 0.0
C466 C 0.5101 0.20466 0.76226 0.0
C467 C 0.60018 0.26324 0.76935 0.0
C468 C 0.55818 0.19565 0.78822 0.0
C469 C 0.55133 0.19273 0.81069 0.0
C470 C 0.5548 0.1666 0.82274 0.0
C471 C 0.56598 0.14312 0.81156 0.0
C472 C 0.5738 0.14594 0.78855 0.0
C473 C 0.56948 0.17251 0.7768 0.0
H474 H 0.61579 0.82718 0.49038 0.0
H475 H 0.54613 0.83665 0.54644 0.0
H476 H 0.53103 0.77481 0.56148 0.0
H477 H 0.5372 0.71173 0.48597 0.0
H478 H 0.58708 0.71234 0.47863 0.0
H479 H 0.58695 0.75407 0.47101 0.0
H480 H 0.67081 0.80773 0.49089 0.0
H481 H 0.6711 0.76625 0.49866 0.0
H482 H 0.67821 0.80233 0.51956 0.0
H483 H 0.53297 0.71767 0.57266 0.0
H484 H 0.54935 0.66872 0.57859 0.0
H485 H 0.61484 0.69446 0.51442 0.0
C486 C 0.59677 0.81592 0.50568 0.0
C487 C 0.58208 0.83676 0.51722 0.0
C488 C 0.55712 0.8209 0.53715 0.0
C489 C 0.54855 0.78587 0.54586 0.0
C490 C 0.56462 0.76672 0.53432 0.0
C491 C 0.58771 0.78091 0.51452 0.0
C492 C 0.60387 0.75632 0.50601 0.0
C493 C 0.57717 0.73218 0.48411 0.0
C494 C 0.65928 0.78487 0.50366 0.0
C495 C 0.58785 0.72705 0.52451 0.0
C496 C 0.56491 0.73327 0.54058 0.0
C497 C 0.54995 0.7119 0.55995 0.0
C498 C 0.55918 0.68384 0.5631 0.0
C499 C 0.58316 0.67721 0.54694 0.0
C500 C 0.59673 0.69875 0.52722 0.0
H501 H 0.74576 0.5819 0.85818 0.0
H502 H 0.63432 0.44898 0.84402 0.0
H503 H 0.69607 0.43936 0.84513 0.0
H504 H 0.84039 0.59212 0.82583 0.0
H505 H 0.8894 0.62891 0.8452 0.0
H506 H 0.83685 0.6266 0.84333 0.0
H507 H 0.82402 0.61492 0.88506 0.0
H508 H 0.87657 0.61727 0.88704 0.0
H509 H 0.81886 0.57248 0.8962 0.0
H510 H 0.77035 0.44268 0.84711 0.0
H511 H 0.84955 0.45851 0.85061 0.0
H512 H 0.91756 0.58907 0.86489 0.0
C513 C 0.73424 0.55074 0.85529 0.0
C514 C 0.68384 0.51625 0.85096 0.0
C515 C 0.67166 0.47625 0.84739 0.0
C516 C 0.70692 0.47031 0.84796 0.0
C517 C 0.75563 0.50449 0.8522 0.0
C518 C 0.76955 0.54404 0.85589 0.0
C519 C 0.82486 0.57512 0.86027 0.0
C520 C 0.84932 0.60763 0.84261 0.0
C521 C 0.83678 0.59621 0.88353 0.0
C522 C 0.83954 0.54691 0.85843 0.0
C523 C 0.79871 0.50628 0.85371 0.0
C524 C 0.80237 0.47445 0.85102 0.0
C525 C 0.84823 0.4839 0.85329 0.0
C526 C 0.89154 0.52514 0.85844 0.0
C527 C 0.88628 0.55707 0.86088 0.0
H528 H 0.26006 0.66018 0.14881 0.0
H529 H 0.16178 0.68376 0.17078 0.0
H530 H 0.23078 0.75853 0.17637 0.0
H531 H 0.35657 0.73245 0.18748 0.0
H532 H 0.40428 0.749 0.16855 0.0
H533 H 0.34693 0.6974 0.16516 0.0
H534 H 0.33813 0.71141 0.12508 0.0
H535 H 0.39549 0.7631 0.12829 0.0
H536 H 0.34179 0.75605 0.1199 0.0
H537 H 0.31073 0.83074 0.18092 0.0
H538 H 0.39584 0.89451 0.18499 0.0
H539 H 0.443 0.82523 0.15944 0.0
C540 C 0.25294 0.68108 0.15464 0.0
C541 C 0.20517 0.66579 0.15931 0.0
C542 C 0.1978 0.69439 0.16708 0.0
C543 C 0.23685 0.73709 0.17027 0.0
C544 C 0.28336 0.75106 0.16564 0.0
C545 C 0.29165 0.72396 0.158 0.0
C546 C 0.34547 0.74703 0.15495 0.0
C547 C 0.36442 0.73048 0.16993 0.0
C548 C 0.35582 0.74423 0.1306 0.0
C549 C 0.36609 0.79118 0.16231 0.0
C550 C 0.32957 0.79281 0.16827 0.0
C551 C 0.33963 0.8299 0.17611 0.0
C552 C 0.38827 0.86618 0.17818 0.0
C553 C 0.42666 0.8654 0.17247 0.0
C554 C 0.4149 0.82719 0.16417 0.0
H555 H 0.58287 0.27676 0.47752 0.0
H556 H 0.45435 0.18423 0.51307 0.0
H557 H 0.45583 0.23988 0.53128 0.0
H558 H 0.64263 0.35366 0.52179 0.0
H559 H 0.66827 0.39721 0.50462 0.0
H560 H 0.65549 0.34996 0.49342 0.0
H561 H 0.60209 0.34511 0.46215 0.0
H562 H 0.61477 0.39242 0.47324 0.0
H563 H 0.55287 0.34565 0.46912 0.0
H564 H 0.47239 0.30576 0.54629 0.0
H565 H 0.50484 0.37726 0.55817 0.0
H566 H 0.62295 0.42707 0.51306 0.0
C567 C 0.55467 0.2682 0.48891 0.0
C568 C 0.5184 0.22614 0.49385 0.0
C569 C 0.48266 0.21627 0.50916 0.0
C570 C 0.48304 0.24763 0.51949 0.0
C571 C 0.51949 0.28879 0.51438 0.0
C572 C 0.55475 0.29917 0.4995 0.0
C573 C 0.59108 0.34596 0.49766 0.0
C574 C 0.64239 0.36267 0.5048 0.0
C575 C 0.59012 0.35798 0.47415 0.0
C576 C 0.57103 0.36027 0.51398 0.0
C577 C 0.52945 0.32678 0.52328 0.0
C578 C 0.50477 0.33222 0.53902 0.0
C579 C 0.52333 0.37296 0.54557 0.0
C580 C 0.56637 0.40782 0.53654 0.0
C581 C 0.59016 0.40112 0.5204 0.0
H582 H 0.46225 0.57678 0.85336 0.0
H583 H 0.37759 0.44309 0.84156 0.0
H584 H 0.30249 0.43466 0.84321 0.0
H585 H 0.37905 0.57127 0.89212 0.0
H586 H 0.38658 0.61567 0.88239 0.0
H587 H 0.43502 0.61248 0.87985 0.0
H588 H 0.43632 0.62134 0.83793 0.0
H589 H 0.38787 0.62455 0.84032 0.0
H590 H 0.38124 0.58621 0.82138 0.0
H591 H 0.23405 0.43911 0.84604 0.0
H592 H 0.17896 0.45596 0.85024 0.0
H593 H 0.30305 0.58682 0.86159 0.0
C594 C 0.42796 0.54571 0.85101 0.0
C595 C 0.42715 0.51059 0.84725 0.0
C596 C 0.38062 0.47077 0.84446 0.0
C597 C 0.33712 0.46553 0.84536 0.0
C598 C 0.33913 0.50028 0.84916 0.0
C599 C 0.38332 0.53974 0.85198 0.0
C600 C 0.37426 0.57151 0.85615 0.0
C601 C 0.39497 0.59408 0.87899 0.0
C602 C 0.39625 0.60277 0.83786 0.0
C603 C 0.31842 0.54375 0.85526 0.0
C604 C 0.29923 0.50276 0.85114 0.0
C605 C 0.24897 0.47117 0.84945 0.0
C606 C 0.21751 0.48123 0.85212 0.0
C607 C 0.23512 0.52285 0.85668 0.0
C608 C 0.28709 0.55454 0.85808 0.0
H609 H 0.93459 0.4006 0.17795 0.0
H610 H 0.98556 0.38857 0.11535 0.0
H611 H 0.91972 0.31247 0.11393 0.0
H612 H 0.90483 0.30687 0.19918 0.0
H613 H 0.8524 0.29362 0.21344 0.0
H614 H 0.90232 0.34736 0.20909 0.0
H615 H 0.84384 0.35518 0.18989 0.0
H616 H 0.79342 0.30156 0.19395 0.0
H617 H 0.8063 0.32073 0.16656 0.0
H618 H 0.84859 0.23681 0.11971 0.0
H619 H 0.7805 0.16829 0.13275 0.0
H620 H 0.77479 0.22949 0.19136 0.0
C621 C 0.9316 0.38201 0.16383 0.0
C622 C 0.96517 0.40075 0.14666 0.0
C623 C 0.9604 0.37508 0.1287 0.0
C624 C 0.923 0.33175 0.12772 0.0
C625 C 0.89071 0.31422 0.14495 0.0
C626 C 0.89482 0.33851 0.16274 0.0
C627 C 0.85662 0.31162 0.17951 0.0
C628 C 0.88047 0.31508 0.20161 0.0
C629 C 0.82297 0.32291 0.18264 0.0
C630 C 0.82986 0.26865 0.16821 0.0
C631 C 0.85015 0.27075 0.14833 0.0
C632 C 0.83222 0.23491 0.1352 0.0
C633 C 0.79296 0.19597 0.14269 0.0
C634 C 0.77148 0.19283 0.16313 0.0
C635 C 0.79025 0.23014 0.1758 0.0
H636 H 0.07041 0.59251 0.08183 0.0
H637 H 0.07202 0.48997 0.09287 0.0
H638 H 0.07885 0.48175 0.05305 0.0
H639 H 0.99824 0.54821 0.03138 0.0
H640 H 1.03062 0.59691 0.01808 0.0
H641 H 1.02775 0.59636 0.04773 0.0
H642 H 0.12158 0.64829 0.05109 0.0
H643 H 0.12474 0.64902 0.02144 0.0
H644 H 0.15627 0.63573 0.037 0.0
H645 H 0.08338 0.48271 0.01232 0.0
H646 H 0.08598 0.49328 0.97256 0.0
H647 H 0.08033 0.59447 0.98652 0.0
C648 C 0.07254 0.56858 0.07581 0.0
C649 C 0.07084 0.54197 0.09051 0.0
C650 C 0.07338 0.51081 0.082 0.0
C651 C 0.07727 0.50585 0.05936 0.0
C652 C 0.07853 0.53223 0.04527 0.0
C653 C 0.07633 0.56305 0.05305 0.0
C654 C 0.07746 0.58648 0.03403 0.0
C655 C 1.03073 0.58169 0.03273 0.0
C656 C 0.12271 0.63262 0.03601 0.0
C657 C 0.08026 0.56373 0.01447 0.0
C658 C 0.08093 0.53263 0.02144 0.0
C659 C 0.08281 0.50692 0.00662 0.0
C660 C 0.0839 0.51299 0.98401 0.0
C661 C 0.08299 0.54447 0.97628 0.0
C662 C 0.08144 0.57032 0.99184 0.0
H663 H 0.55131 0.01174 0.39997 0.0
H664 H 0.69943 0.12127 0.41599 0.0
H665 H 0.71533 0.13288 0.37637 0.0
H666 H 0.57933 0.97435 0.35603 0.0
H667 H 0.52692 0.95477 0.33875 0.0
H668 H 0.52391 0.95859 0.36826 0.0
H669 H 0.49741 0.00417 0.36429 0.0
H670 H 0.49992 1.00022 0.33468 0.0
H671 H 0.53415 0.05071 0.34905 0.0
H672 H 0.71886 0.12811 0.33589 0.0
H673 H 0.70949 0.10786 0.29624 0.0
H674 H 0.55953 1.0006 0.30534 0.0
C675 C 0.5865 0.03885 0.39504 0.0
C676 C 0.62411 0.06595 0.4109 0.0
C677 C 0.6702 0.10038 0.40399 0.0
C678 C 0.67951 0.10727 0.38156 0.0
C679 C 0.64232 0.07935 0.36622 0.0
C680 C 0.59661 0.04592 0.37257 0.0
C681 C 0.56478 0.01847 0.3526 0.0
C682 C 0.54776 0.97392 0.354 0.0
C683 C 0.5215 0.0184 0.35 0.0
C684 C 0.60027 0.04099 0.33422 0.0
C685 C 0.64455 0.0763 0.34251 0.0
C686 C 0.68419 0.10089 0.32913 0.0
C687 C 0.67864 0.08898 0.30668 0.0
C688 C 0.63386 0.05272 0.29778 0.0
C689 C 0.59395 0.02879 0.3117 0.0
H690 H 0.51009 0.49658 0.76561 0.0
H691 H 0.65141 0.58541 0.79825 0.0
H692 H 0.68752 0.61396 0.76217 0.0
H693 H 0.55061 0.47306 0.71956 0.0
H694 H 0.5084 0.46769 0.70006 0.0
H695 H 0.49293 0.45743 0.72857 0.0
H696 H 0.47799 0.51157 0.73077 0.0
H697 H 0.493 0.52176 0.70217 0.0
H698 H 0.52512 0.56401 0.72294 0.0
H699 H 0.70874 0.62919 0.72207 0.0
H700 H 0.71357 0.63026 0.68145 0.0
H701 H 0.55813 0.53056 0.67527 0.0
C702 C 0.5485 0.52255 0.76523 0.0
C703 C 0.57797 0.53908 0.78471 0.0
C704 C 0.62815 0.57263 0.78352 0.0
C705 C 0.64894 0.58894 0.76311 0.0
C706 C 0.61898 0.57128 0.74412 0.0
C707 C 0.56979 0.53891 0.74504 0.0
C708 C 0.54595 0.52377 0.72219 0.0
C709 C 0.52314 0.47777 0.71732 0.0
C710 C 0.5083 0.53071 0.71936 0.0
C711 C 0.58952 0.5522 0.70819 0.0
C712 C 0.63124 0.57962 0.72112 0.0
C713 C 0.6762 0.60815 0.71181 0.0
C714 C 0.67853 0.60861 0.68871 0.0
C715 C 0.63622 0.58058 0.67514 0.0
C716 C 0.59119 0.55218 0.68514 0.0
H717 H 0.61892 0.06322 0.53636 0.0
H718 H 0.46203 0.98606 0.53139 0.0
H719 H 0.45727 0.97341 0.57109 0.0
H720 H 0.62404 1.00219 0.57687 0.0
H721 H 0.67663 0.04774 0.59136 0.0
H722 H 0.66747 0.04831 0.56221 0.0
H723 H 0.67312 0.11376 0.56919 0.0
H724 H 0.68207 0.11329 0.59833 0.0
H725 H 0.63322 0.11223 0.58849 0.0
H726 H 0.46958 0.97218 0.61159 0.0
H727 H 0.49814 0.98303 0.65028 0.0
H728 H 0.64718 0.06064 0.62921 0.0
C729 C 0.58359 0.04325 0.54361 0.0
C730 C 0.54079 0.02553 0.53085 0.0
C731 C 0.49523 0.99994 0.54091 0.0
C732 C 0.49216 0.99249 0.56342 0.0
C733 C 0.535 0.01083 0.57565 0.0
C734 C 0.57988 0.03561 0.56613 0.0
C735 C 0.62039 0.05299 0.58323 0.0
C736 C 0.64881 0.03683 0.57811 0.0
C737 C 0.65418 0.10091 0.5849 0.0
C738 C 0.59131 0.03477 0.60389 0.0
C739 C 0.54211 0.01024 0.5991 0.0
C740 C 0.50801 0.99098 0.61552 0.0
C741 C 0.5246 0.99715 0.63746 0.0
C742 C 0.57491 0.02254 0.64286 0.0
C743 C 0.60851 0.04127 0.62571 0.0
H744 H 0.60059 0.52119 0.92662 0.0
H745 H 0.46641 0.44178 0.88735 0.0
H746 H 0.42911 0.39095 0.9162 0.0
H747 H 0.59418 0.4385 0.95133 0.0
H748 H 0.61674 0.46559 0.97807 0.0
H749 H 0.63507 0.49466 0.95354 0.0
H750 H 0.60452 0.53377 0.96932 0.0
H751 H 0.58645 0.50507 0.99394 0.0
H752 H 0.54281 0.50428 0.97808 0.0
H753 H 0.40523 0.34941 0.9491 0.0
H754 H 0.39343 0.32228 0.98601 0.0
H755 H 0.54066 0.42993 0.00565 0.0
C756 C 0.56354 0.4929 0.92409 0.0
C757 C 0.53673 0.48491 0.90454 0.0
C758 C 0.488 0.44806 0.90196 0.0
C759 C 0.46642 0.41896 0.91827 0.0
C760 C 0.49379 0.42742 0.93725 0.0
C761 C 0.54104 0.46365 0.94045 0.0
C762 C 0.56088 0.46621 0.96316 0.0
C763 C 0.60429 0.46624 0.96141 0.0
C764 C 0.57445 0.5046 0.97694 0.0
C765 C 0.51717 0.42604 0.97222 0.0
C766 C 0.4792 0.40396 0.95682 0.0
C767 C 0.43463 0.36639 0.96135 0.0
C768 C 0.42821 0.35135 0.9824 0.0
C769 C 0.46596 0.37405 0.99878 0.0
C770 C 0.51132 0.41155 0.99341 0.0
H771 H 0.12045 0.57106 0.22109 0.0
H772 H 1.04481 0.44027 0.20354 0.0
H773 H 1.02339 0.42349 0.24234 0.0
H774 H 0.17406 0.57361 0.27006 0.0
H775 H 0.16907 0.60889 0.28574 0.0
H776 H 0.1724 0.61053 0.25616 0.0
H777 H 0.09188 0.59949 0.25375 0.0
H778 H 0.08844 0.59813 0.28339 0.0
H779 H 1.03865 0.55543 0.26625 0.0
H780 H 1.01806 0.4213 0.28281 0.0
H781 H 1.02848 0.4334 0.32306 0.0
H782 H 0.10746 0.56583 0.31584 0.0
C783 C 0.09835 0.53887 0.22545 0.0
C784 C 0.08402 0.50685 0.20942 0.0
C785 C 0.05615 0.46517 0.21566 0.0
C786 C 1.04363 0.45532 0.23762 0.0
C787 C 0.05947 0.48756 0.25323 0.0
C788 C 0.08608 0.5285 0.24752 0.0
C789 C 0.10202 0.55739 0.26798 0.0
C790 C 0.15769 0.58949 0.2701 0.0
C791 C 0.07885 0.57887 0.26783 0.0
C792 C 0.08152 0.52637 0.28599 0.0
C793 C 0.05655 0.48626 0.27699 0.0
C794 C 1.03664 0.45245 0.2901 0.0
C795 C 1.04254 0.45969 0.31305 0.0
C796 C 0.06818 0.50052 0.32286 0.0
C797 C 0.08758 0.53422 0.30899 0.0
loop_
_geom_bond_atom_site_label_1
_geom_bond_atom_site_label_2
_geom_bond_distance
_geom_bond_site_symmetry_2
_ccdc_geom_bond_type
Ho0 C3 2.811 . S
Ho0 O20 2.322 . S
Ho0 O22 2.378 . S
Ho0 O23 2.524 . S
Ho0 O24 2.381 . S
Ho0 O25 2.669 . S
Ho0 O27 2.346 1_455 S
Ho0 O31 2.305 . S
Ho1 C12 2.811 . S
Ho1 O21 2.346 1_655 S
Ho1 O25 2.305 1_655 S
Ho1 O26 2.322 . S
Ho1 O28 2.378 . S
Ho1 O29 2.524 . S
Ho1 O30 2.381 1_655 S
Ho1 O31 2.669 1_655 S
C2 O20 1.259 . S
C2 O21 1.268 . S
C3 Ho0 2.811 . S
C3 C4 1.488 . S
C3 O22 1.215 . S
C3 O23 1.289 . S
C4 C3 1.488 . S
C4 C5 1.348 . S
C4 C9 1.413 . S
C5 C4 1.348 . S
C5 C6 1.442 . S
C5 H32 0.930 . S
C6 C5 1.442 . S
C6 C7 1.381 . S
C6 H33 0.931 . S
C7 C6 1.381 . S
C7 C8 1.321 . S
C8 C7 1.321 . S
C8 C9 1.403 . S
C8 H34 0.934 . S
C9 C4 1.413 . S
C9 C8 1.403 . S
C9 H35 0.930 . S
C10 O24 1.275 . S
C10 O25 1.256 . S
C11 O26 1.259 . S
C11 O27 1.268 . S
C12 Ho1 2.811 . S
C12 C13 1.488 . S
C12 O28 1.215 . S
C12 O29 1.289 . S
C13 C12 1.488 . S
C13 C14 1.348 . S
C13 C18 1.413 . S
C14 C13 1.348 . S
C14 C15 1.442 . S
C14 H36 0.930 . S
C15 C14 1.442 . S
C15 C16 1.381 . S
C15 H37 0.931 . S
C16 C15 1.381 . S
C16 C17 1.321 . S
C17 C16 1.321 . S
C17 C18 1.403 . S
C17 H38 0.934 . S
C18 C13 1.413 . S
C18 C17 1.403 . S
C18 H39 0.930 . S
C19 O30 1.275 . S
C19 O31 1.256 . S
O20 Ho0 2.322 . S
O20 C2 1.259 . S
O21 Ho1 2.346 1_455 S
O21 C2 1.268 . S
O22 Ho0 2.378 . S
O22 C3 1.215 . S
O23 Ho0 2.524 . S
O23 C3 1.289 . S
O24 Ho0 2.381 . S
O24 C10 1.275 . S
O25 Ho0 2.669 . S
O25 Ho1 2.305 1_455 S
O25 C10 1.256 . S
O26 Ho1 2.322 . S
O26 C11 1.259 . S
O27 Ho0 2.346 1_655 S
O27 C11 1.268 . S
O28 Ho1 2.378 . S
O28 C12 1.215 . S
O29 Ho1 2.524 . S
O29 C12 1.289 . S
O30 Ho1 2.381 1_455 S
O30 C19 1.275 . S
O31 Ho0 2.305 . S
O31 Ho1 2.669 1_455 S
O31 C19 1.256 . S
H32 C5 0.930 . S
H33 C6 0.931 . S
H34 C8 0.934 . S
H35 C9 0.930 . S
H36 C14 0.930 . S
H37 C15 0.931 . S
H38 C17 0.934 . S
H39 C18 0.930 . S
Ho40 C43 2.811 . S
Ho40 O60 2.322 . S
Ho40 O62 2.378 . S
Ho40 O63 2.524 . S
Ho40 O64 2.381 . S
Ho40 O65 2.669 1_565 S
Ho40 O67 2.346 1_565 S
Ho40 O71 2.305 1_565 S
Ho41 C52 2.811 . S
Ho41 O61 2.346 1_545 S
Ho41 O65 2.305 . S
Ho41 O66 2.322 . S
Ho41 O68 2.378 . S
Ho41 O69 2.524 . S
Ho41 O70 2.381 . S
Ho41 O71 2.669 . S
C42 O60 1.259 . S
C42 O61 1.268 . S
C43 Ho40 2.811 . S
C43 C44 1.488 . S
C43 O62 1.215 . S
C43 O63 1.289 . S
C44 C43 1.488 . S
C44 C45 1.348 . S
C44 C49 1.413 . S
C45 C44 1.348 . S
C45 C46 1.442 . S
C45 H72 0.930 . S
C46 C45 1.442 . S
C46 C47 1.381 . S
C46 H73 0.931 . S
C47 C46 1.381 . S
C47 C48 1.321 . S
C48 C47 1.321 . S
C48 C49 1.403 . S
C48 H74 0.934 . S
C49 C44 1.413 . S
C49 C48 1.403 . S
C49 H75 0.930 . S
C50 O64 1.275 1_545 S
C50 O65 1.256 . S
C51 O66 1.259 . S
C51 O67 1.268 . S
C52 Ho41 2.811 . S
C52 C53 1.488 . S
C52 O68 1.215 . S
C52 O69 1.289 . S
C53 C52 1.488 . S
C53 C54 1.348 . S
C53 C58 1.413 . S
C54 C53 1.348 . S
C54 C55 1.442 . S
C54 H76 0.930 . S
C55 C54 1.442 . S
C55 C56 1.381 . S
C55 H77 0.931 . S
C56 C55 1.381 . S
C56 C57 1.321 . S
C57 C56 1.321 . S
C57 C58 1.403 . S
C57 H78 0.934 . S
C58 C53 1.413 . S
C58 C57 1.403 . S
C58 H79 0.930 . S
C59 O70 1.275 . S
C59 O71 1.256 . S
O60 Ho40 2.322 . S
O60 C42 1.259 . S
O61 Ho41 2.346 1_565 S
O61 C42 1.268 . S
O62 Ho40 2.378 . S
O62 C43 1.215 . S
O63 Ho40 2.524 . S
O63 C43 1.289 . S
O64 Ho40 2.381 . S
O64 C50 1.275 1_565 S
O65 Ho40 2.669 1_545 S
O65 Ho41 2.305 . S
O65 C50 1.256 . S
O66 Ho41 2.322 . S
O66 C51 1.259 . S
O67 Ho40 2.346 1_545 S
O67 C51 1.268 . S
O68 Ho41 2.378 . S
O68 C52 1.215 . S
O69 Ho41 2.524 . S
O69 C52 1.289 . S
O70 Ho41 2.381 . S
O70 C59 1.275 . S
O71 Ho40 2.305 1_545 S
O71 Ho41 2.669 . S
O71 C59 1.256 . S
H72 C45 0.930 . S
H73 C46 0.931 . S
H74 C48 0.934 . S
H75 C49 0.930 . S
H76 C54 0.930 . S
H77 C55 0.931 . S
H78 C57 0.934 . S
H79 C58 0.930 . S
Ho80 C83 2.811 . S
Ho80 O100 2.322 . S
Ho80 O102 2.378 . S
Ho80 O103 2.524 . S
Ho80 O104 2.381 . S
Ho80 O105 2.669 . S
Ho80 O107 2.346 . S
Ho80 O111 2.305 . S
Ho81 C92 2.811 . S
Ho81 O101 2.346 . S
Ho81 O105 2.305 . S
Ho81 O106 2.322 . S
Ho81 O108 2.378 . S
Ho81 O109 2.524 . S
Ho81 O110 2.381 . S
Ho81 O111 2.669 . S
C82 O100 1.259 . S
C82 O101 1.268 . S
C83 Ho80 2.811 . S
C83 C84 1.488 . S
C83 O102 1.215 . S
C83 O103 1.289 . S
C84 C83 1.488 . S
C84 C85 1.348 . S
C84 C89 1.413 . S
C85 C84 1.348 . S
C85 C86 1.442 . S
C85 H112 0.930 . S
C86 C85 1.442 . S
C86 C87 1.381 . S
C86 H113 0.931 . S
C87 C86 1.381 . S
C87 C88 1.321 . S
C88 C87 1.321 . S
C88 C89 1.403 . S
C88 H114 0.934 . S
C89 C84 1.413 . S
C89 C88 1.403 . S
C89 H115 0.930 . S
C90 O104 1.275 . S
C90 O105 1.256 . S
C91 O106 1.259 . S
C91 O107 1.268 . S
C92 Ho81 2.811 . S
C92 C93 1.488 . S
C92 O108 1.215 . S
C92 O109 1.289 . S
C93 C92 1.488 . S
C93 C94 1.348 . S
C93 C98 1.413 . S
C94 C93 1.348 . S
C94 C95 1.442 . S
C94 H116 0.930 . S
C95 C94 1.442 . S
C95 C96 1.381 . S
C95 H117 0.931 . S
C96 C95 1.381 . S
C96 C97 1.321 . S
C97 C96 1.321 . S
C97 C98 1.403 . S
C97 H118 0.934 . S
C98 C93 1.413 . S
C98 C97 1.403 . S
C98 H119 0.930 . S
C99 O110 1.275 . S
C99 O111 1.256 . S
O100 Ho80 2.322 . S
O100 C82 1.259 . S
O101 Ho81 2.346 . S
O101 C82 1.268 . S
O102 Ho80 2.378 . S
O102 C83 1.215 . S
O103 Ho80 2.524 . S
O103 C83 1.289 . S
O104 Ho80 2.381 . S
O104 C90 1.275 . S
O105 Ho80 2.669 . S
O105 Ho81 2.305 . S
O105 C90 1.256 . S
O106 Ho81 2.322 . S
O106 C91 1.259 . S
O107 Ho80 2.346 . S
O107 C91 1.268 . S
O108 Ho81 2.378 . S
O108 C92 1.215 . S
O109 Ho81 2.524 . S
O109 C92 1.289 . S
O110 Ho81 2.381 . S
O110 C99 1.275 . S
O111 Ho80 2.305 . S
O111 Ho81 2.669 . S
O111 C99 1.256 . S
H112 C85 0.930 . S
H113 C86 0.931 . S
H114 C88 0.934 . S
H115 C89 0.930 . S
H116 C94 0.930 . S
H117 C95 0.931 . S
H118 C97 0.934 . S
H119 C98 0.930 . S
P120 O131 1.490 1_545 S
P120 C134 1.812 1_545 S
P120 C140 1.803 . S
P120 C146 1.819 . S
H121 C135 0.941 . S
H122 C136 0.939 . S
H123 C138 0.940 . S
H124 C139 0.940 . S
H125 C141 0.939 . S
H126 C142 0.942 . S
H127 C144 0.940 . S
H128 C145 0.939 . S
H129 C147 0.941 . S
H130 C151 0.939 . S
O131 P120 1.490 1_565 S
H132 C148 0.939 . S
H133 C150 0.940 . S
C134 P120 1.812 1_565 S
C134 C135 1.389 . S
C134 C139 1.391 . S
C135 H121 0.941 . S
C135 C134 1.389 . S
C135 C136 1.397 . S
C136 H122 0.939 . S
C136 C135 1.397 . S
C136 C137 1.378 . S
C137 C136 1.378 . S
C137 C138 1.378 . S
C138 H123 0.940 . S
C138 C137 1.378 . S
C138 C139 1.396 . S
C139 H124 0.940 . S
C139 C134 1.391 . S
C139 C138 1.396 . S
C140 P120 1.803 . S
C140 C141 1.378 . S
C140 C145 1.400 . S
C141 H125 0.939 . S
C141 C140 1.378 . S
C141 C142 1.361 . S
C142 H126 0.942 . S
C142 C141 1.361 . S
C142 C143 1.369 . S
C143 C142 1.369 . S
C143 C144 1.404 . S
C144 H127 0.940 . S
C144 C143 1.404 . S
C144 C145 1.389 . S
C145 H128 0.939 . S
C145 C140 1.400 . S
C145 C144 1.389 . S
C146 P120 1.819 . S
C146 C147 1.391 1_545 S
C146 C151 1.391 . S
C147 H129 0.941 . S
C147 C146 1.391 1_565 S
C147 C148 1.396 . S
C148 H132 0.939 . S
C148 C147 1.396 . S
C148 C149 1.397 1_565 S
C149 C148 1.397 1_545 S
C149 C150 1.385 . S
C150 H133 0.940 . S
C150 C149 1.385 . S
C150 C151 1.388 . S
C151 H130 0.939 . S
C151 C146 1.391 . S
C151 C150 1.388 . S
P152 O163 1.490 . S
P152 C166 1.812 . S
P152 C172 1.803 . S
P152 C178 1.819 . S
H153 C167 0.941 . S
H154 C168 0.939 . S
H155 C170 0.940 . S
H156 C171 0.940 . S
H157 C173 0.939 . S
H158 C174 0.942 . S
H159 C176 0.940 . S
H160 C177 0.939 . S
H161 C179 0.941 . S
H162 C183 0.939 . S
O163 P152 1.490 . S
H164 C180 0.939 . S
H165 C182 0.940 . S
C166 P152 1.812 . S
C166 C167 1.389 . S
C166 C171 1.391 . S
C167 H153 0.941 . S
C167 C166 1.389 . S
C167 C168 1.397 . S
C168 H154 0.939 . S
C168 C167 1.397 . S
C168 C169 1.378 . S
C169 C168 1.378 . S
C169 C170 1.378 . S
C170 H155 0.940 . S
C170 C169 1.378 . S
C170 C171 1.396 . S
C171 H156 0.940 . S
C171 C166 1.391 . S
C171 C170 1.396 . S
C172 P152 1.803 . S
C172 C173 1.378 . S
C172 C177 1.400 . S
C173 H157 0.939 . S
C173 C172 1.378 . S
C173 C174 1.361 . S
C174 H158 0.942 . S
C174 C173 1.361 . S
C174 C175 1.369 . S
C175 C174 1.369 . S
C175 C176 1.404 . S
C176 H159 0.940 . S
C176 C175 1.404 . S
C176 C177 1.389 . S
C177 H160 0.939 . S
C177 C172 1.400 . S
C177 C176 1.389 . S
C178 P152 1.819 . S
C178 C179 1.391 . S
C178 C183 1.391 . S
C179 H161 0.941 . S
C179 C178 1.391 . S
C179 C180 1.396 . S
C180 H164 0.939 . S
C180 C179 1.396 . S
C180 C181 1.397 . S
C181 C180 1.397 . S
C181 C182 1.385 . S
C182 H165 0.940 . S
C182 C181 1.385 . S
C182 C183 1.388 . S
C183 H162 0.939 . S
C183 C178 1.391 . S
C183 C182 1.388 . S
P184 O195 1.490 . S
P184 C198 1.812 . S
P184 C204 1.803 . S
P184 C210 1.819 . S
H185 C199 0.941 . S
H186 C200 0.939 . S
H187 C202 0.940 . S
H188 C203 0.940 . S
H189 C205 0.939 . S
H190 C206 0.942 . S
H191 C208 0.940 . S
H192 C209 0.939 . S
H193 C211 0.941 . S
H194 C215 0.939 . S
O195 P184 1.490 . S
H196 C212 0.939 . S
H197 C214 0.940 1_655 S
C198 P184 1.812 . S
C198 C199 1.389 . S
C198 C203 1.391 . S
C199 H185 0.941 . S
C199 C198 1.389 . S
C199 C200 1.397 . S
C200 H186 0.939 . S
C200 C199 1.397 . S
C200 C201 1.378 . S
C201 C200 1.378 . S
C201 C202 1.378 . S
C202 H187 0.940 . S
C202 C201 1.378 . S
C202 C203 1.396 . S
C203 H188 0.940 . S
C203 C198 1.391 . S
C203 C202 1.396 . S
C204 P184 1.803 . S
C204 C205 1.378 . S
C204 C209 1.400 . S
C205 H189 0.939 . S
C205 C204 1.378 . S
C205 C206 1.361 1_455 S
C206 H190 0.942 . S
C206 C205 1.361 1_655 S
C206 C207 1.369 . S
C207 C206 1.369 . S
C207 C208 1.404 . S
C208 H191 0.940 . S
C208 C207 1.404 . S
C208 C209 1.389 1_655 S
C209 H192 0.939 . S
C209 C204 1.400 . S
C209 C208 1.389 1_455 S
C210 P184 1.819 . S
C210 C211 1.391 . S
C210 C215 1.391 . S
C211 H193 0.941 . S
C211 C210 1.391 . S
C211 C212 1.396 . S
C212 H196 0.939 . S
C212 C211 1.396 . S
C212 C213 1.397 . S
C213 C212 1.397 . S
C213 C214 1.385 . S
C214 H197 0.940 1_455 S
C214 C213 1.385 . S
C214 C215 1.388 . S
C215 H194 0.939 . S
C215 C210 1.391 . S
C215 C214 1.388 . S
P216 O227 1.490 . S
P216 C230 1.812 . S
P216 C236 1.803 1_455 S
P216 C242 1.819 . S
H217 C231 0.941 . S
H218 C232 0.939 . S
H219 C234 0.940 . S
H220 C235 0.940 . S
H221 C237 0.939 . S
H222 C238 0.942 . S
H223 C240 0.940 . S
H224 C241 0.939 . S
H225 C243 0.941 . S
H226 C247 0.939 . S
O227 P216 1.490 . S
H228 C244 0.939 . S
H229 C246 0.940 . S
C230 P216 1.812 . S
C230 C231 1.389 . S
C230 C235 1.391 . S
C231 H217 0.941 . S
C231 C230 1.389 . S
C231 C232 1.397 . S
C232 H218 0.939 . S
C232 C231 1.397 . S
C232 C233 1.378 . S
C233 C232 1.378 . S
C233 C234 1.378 . S
C234 H219 0.940 . S
C234 C233 1.378 . S
C234 C235 1.396 . S
C235 H220 0.940 . S
C235 C230 1.391 . S
C235 C234 1.396 . S
C236 P216 1.803 1_655 S
C236 C237 1.378 . S
C236 C241 1.400 . S
C237 H221 0.939 . S
C237 C236 1.378 . S
C237 C238 1.361 . S
C238 H222 0.942 . S
C238 C237 1.361 . S
C238 C239 1.369 . S
C239 C238 1.369 . S
C239 C240 1.404 . S
C240 H223 0.940 . S
C240 C239 1.404 . S
C240 C241 1.389 . S
C241 H224 0.939 . S
C241 C236 1.400 . S
C241 C240 1.389 . S
C242 P216 1.819 . S
C242 C243 1.391 . S
C242 C247 1.391 1_455 S
C243 H225 0.941 . S
C243 C242 1.391 . S
C243 C244 1.396 . S
C244 H228 0.939 . S
C244 C243 1.396 . S
C244 C245 1.397 . S
C245 C244 1.397 . S
C245 C246 1.385 1_455 S
C246 H229 0.940 . S
C246 C245 1.385 1_655 S
C246 C247 1.388 . S
C247 H226 0.939 . S
C247 C242 1.391 1_655 S
C247 C246 1.388 . S
P248 O259 1.490 . S
P248 C262 1.812 . S
P248 C268 1.803 1_545 S
P248 C274 1.819 . S
H249 C263 0.941 . S
H250 C264 0.939 . S
H251 C266 0.940 . S
H252 C267 0.940 . S
H253 C269 0.939 . S
H254 C270 0.942 . S
H255 C272 0.940 . S
H256 C273 0.939 . S
H257 C275 0.941 . S
H258 C279 0.939 . S
O259 P248 1.490 . S
H260 C276 0.939 . S
H261 C278 0.940 . S
C262 P248 1.812 . S
C262 C263 1.389 . S
C262 C267 1.391 . S
C263 H249 0.941 . S
C263 C262 1.389 . S
C263 C264 1.397 . S
C264 H250 0.939 . S
C264 C263 1.397 . S
C264 C265 1.378 . S
C265 C264 1.378 . S
C265 C266 1.378 . S
C266 H251 0.940 . S
C266 C265 1.378 . S
C266 C267 1.396 . S
C267 H252 0.940 . S
C267 C262 1.391 . S
C267 C266 1.396 . S
C268 P248 1.803 1_565 S
C268 C269 1.378 . S
C268 C273 1.400 . S
C269 H253 0.939 . S
C269 C268 1.378 . S
C269 C270 1.361 . S
C270 H254 0.942 . S
C270 C269 1.361 . S
C270 C271 1.369 . S
C271 C270 1.369 . S
C271 C272 1.404 . S
C272 H255 0.940 . S
C272 C271 1.404 . S
C272 C273 1.389 . S
C273 H256 0.939 . S
C273 C268 1.400 . S
C273 C272 1.389 . S
C274 P248 1.819 . S
C274 C275 1.391 . S
C274 C279 1.391 1_545 S
C275 H257 0.941 . S
C275 C274 1.391 . S
C275 C276 1.396 . S
C276 H260 0.939 . S
C276 C275 1.396 . S
C276 C277 1.397 . S
C277 C276 1.397 . S
C277 C278 1.385 1_545 S
C278 H261 0.940 . S
C278 C277 1.385 1_565 S
C278 C279 1.388 . S
C279 H258 0.939 . S
C279 C274 1.391 1_565 S
C279 C278 1.388 . S
P280 O291 1.490 . S
P280 C294 1.812 . S
P280 C300 1.803 . S
P280 C306 1.819 . S
H281 C295 0.941 . S
H282 C296 0.939 . S
H283 C298 0.940 . S
H284 C299 0.940 . S
H285 C301 0.939 . S
H286 C302 0.942 . S
H287 C304 0.940 . S
H288 C305 0.939 . S
H289 C307 0.941 . S
H290 C311 0.939 . S
O291 P280 1.490 . S
H292 C308 0.939 . S
H293 C310 0.940 . S
C294 P280 1.812 . S
C294 C295 1.389 . S
C294 C299 1.391 . S
C295 H281 0.941 . S
C295 C294 1.389 . S
C295 C296 1.397 . S
C296 H282 0.939 . S
C296 C295 1.397 . S
C296 C297 1.378 . S
C297 C296 1.378 . S
C297 C298 1.378 . S
C298 H283 0.940 . S
C298 C297 1.378 . S
C298 C299 1.396 . S
C299 H284 0.940 . S
C299 C294 1.391 . S
C299 C298 1.396 . S
C300 P280 1.803 . S
C300 C301 1.378 . S
C300 C305 1.400 . S
C301 H285 0.939 . S
C301 C300 1.378 . S
C301 C302 1.361 . S
C302 H286 0.942 . S
C302 C301 1.361 . S
C302 C303 1.369 . S
C303 C302 1.369 . S
C303 C304 1.404 . S
C304 H287 0.940 . S
C304 C303 1.404 . S
C304 C305 1.389 . S
C305 H288 0.939 . S
C305 C300 1.400 . S
C305 C304 1.389 . S
C306 P280 1.819 . S
C306 C307 1.391 . S
C306 C311 1.391 . S
C307 H289 0.941 . S
C307 C306 1.391 . S
C307 C308 1.396 . S
C308 H292 0.939 . S
C308 C307 1.396 . S
C308 C309 1.397 . S
C309 C308 1.397 . S
C309 C310 1.385 . S
C310 H293 0.940 . S
C310 C309 1.385 . S
C310 C311 1.388 . S
C311 H290 0.939 . S
C311 C306 1.391 . S
C311 C310 1.388 . S
H312 C324 0.930 . S
H313 C326 0.930 . S
H314 C327 0.930 . S
H315 C331 0.959 . S
H316 C331 0.959 . S
H317 C331 0.961 . S
H318 C332 0.960 . S
H319 C332 0.961 . S
H320 C332 0.959 . S
H321 C335 0.929 . S
H322 C336 0.931 . S
H323 C338 0.930 . S
C324 H312 0.930 . S
C324 C325 1.399 . S
C324 C329 1.399 . S
C325 C324 1.399 . S
C325 C326 1.376 . S
C326 H313 0.930 . S
C326 C325 1.376 . S
C326 C327 1.388 . S
C327 H314 0.930 . S
C327 C326 1.388 . S
C327 C328 1.390 . S
C328 C327 1.390 . S
C328 C329 1.394 . S
C328 C334 1.465 . S
C329 C324 1.399 . S
C329 C328 1.394 . S
C329 C330 1.516 . S
C330 C329 1.516 . S
C330 C331 1.502 . S
C330 C332 1.561 . S
C330 C333 1.526 . S
C331 H315 0.959 . S
C331 H316 0.959 . S
C331 H317 0.961 . S
C331 C330 1.502 . S
C332 H318 0.960 . S
C332 H319 0.961 . S
C332 H320 0.959 . S
C332 C330 1.561 . S
C333 C330 1.526 . S
C333 C334 1.396 . S
C333 C338 1.390 . S
C334 C328 1.465 . S
C334 C333 1.396 . S
C334 C335 1.399 . S
C335 H321 0.929 . S
C335 C334 1.399 . S
C335 C336 1.385 . S
C336 H322 0.931 . S
C336 C335 1.385 . S
C336 C337 1.389 . S
C337 C336 1.389 . S
C337 C338 1.387 . S
C338 H323 0.930 . S
C338 C333 1.390 . S
C338 C337 1.387 . S
H339 C351 0.930 . S
H340 C353 0.930 . S
H341 C354 0.930 . S
H342 C358 0.959 . S
H343 C358 0.959 . S
H344 C358 0.961 . S
H345 C359 0.960 . S
H346 C359 0.961 . S
H347 C359 0.959 . S
H348 C362 0.929 . S
H349 C363 0.931 . S
H350 C365 0.930 . S
C351 H339 0.930 . S
C351 C352 1.399 . S
C351 C356 1.399 . S
C352 C351 1.399 . S
C352 C353 1.376 . S
C353 H340 0.930 . S
C353 C352 1.376 . S
C353 C354 1.388 . S
C354 H341 0.930 . S
C354 C353 1.388 . S
C354 C355 1.390 . S
C355 C354 1.390 . S
C355 C356 1.394 . S
C355 C361 1.465 . S
C356 C351 1.399 . S
C356 C355 1.394 . S
C356 C357 1.516 . S
C357 C356 1.516 . S
C357 C358 1.502 . S
C357 C359 1.561 . S
C357 C360 1.526 . S
C358 H342 0.959 . S
C358 H343 0.959 . S
C358 H344 0.961 . S
C358 C357 1.502 . S
C359 H345 0.960 . S
C359 H346 0.961 . S
C359 H347 0.959 . S
C359 C357 1.561 . S
C360 C357 1.526 . S
C360 C361 1.396 . S
C360 C365 1.390 . S
C361 C355 1.465 . S
C361 C360 1.396 . S
C361 C362 1.399 . S
C362 H348 0.929 . S
C362 C361 1.399 . S
C362 C363 1.385 . S
C363 H349 0.931 . S
C363 C362 1.385 . S
C363 C364 1.389 . S
C364 C363 1.389 . S
C364 C365 1.387 . S
C365 H350 0.930 . S
C365 C360 1.390 . S
C365 C364 1.387 . S
H366 C378 0.930 . S
H367 C380 0.930 . S
H368 C381 0.930 . S
H369 C385 0.959 . S
H370 C385 0.959 . S
H371 C385 0.961 . S
H372 C386 0.960 . S
H373 C386 0.961 . S
H374 C386 0.959 . S
H375 C389 0.929 . S
H376 C390 0.931 . S
H377 C392 0.930 . S
C378 H366 0.930 . S
C378 C379 1.399 . S
C378 C383 1.399 . S
C379 C378 1.399 . S
C379 C380 1.376 . S
C380 H367 0.930 . S
C380 C379 1.376 . S
C380 C381 1.388 . S
C381 H368 0.930 . S
C381 C380 1.388 . S
C381 C382 1.390 . S
C382 C381 1.390 . S
C382 C383 1.394 . S
C382 C388 1.465 . S
C383 C378 1.399 . S
C383 C382 1.394 . S
C383 C384 1.516 . S
C384 C383 1.516 . S
C384 C385 1.502 . S
C384 C386 1.561 . S
C384 C387 1.526 . S
C385 H369 0.959 . S
C385 H370 0.959 . S
C385 H371 0.961 . S
C385 C384 1.502 . S
C386 H372 0.960 . S
C386 H373 0.961 . S
C386 H374 0.959 . S
C386 C384 1.561 . S
C387 C384 1.526 . S
C387 C388 1.396 . S
C387 C392 1.390 . S
C388 C382 1.465 . S
C388 C387 1.396 . S
C388 C389 1.399 . S
C389 H375 0.929 . S
C389 C388 1.399 . S
C389 C390 1.385 . S
C390 H376 0.931 . S
C390 C389 1.385 . S
C390 C391 1.389 . S
C391 C390 1.389 . S
C391 C392 1.387 . S
C392 H377 0.930 . S
C392 C387 1.390 . S
C392 C391 1.387 . S
H393 C405 0.930 . S
H394 C407 0.930 . S
H395 C408 0.930 . S
H396 C412 0.959 . S
H397 C412 0.959 . S
H398 C412 0.961 . S
H399 C413 0.960 . S
H400 C413 0.961 . S
H401 C413 0.959 . S
H402 C416 0.929 . S
H403 C417 0.931 . S
H404 C419 0.930 . S
C405 H393 0.930 . S
C405 C406 1.399 . S
C405 C410 1.399 . S
C406 C405 1.399 . S
C406 C407 1.376 . S
C407 H394 0.930 . S
C407 C406 1.376 . S
C407 C408 1.388 . S
C408 H395 0.930 . S
C408 C407 1.388 . S
C408 C409 1.390 . S
C409 C408 1.390 . S
C409 C410 1.394 . S
C409 C415 1.465 . S
C410 C405 1.399 . S
C410 C409 1.394 . S
C410 C411 1.516 . S
C411 C410 1.516 . S
C411 C412 1.502 . S
C411 C413 1.561 . S
C411 C414 1.526 . S
C412 H396 0.959 . S
C412 H397 0.959 . S
C412 H398 0.961 . S
C412 C411 1.502 . S
C413 H399 0.960 . S
C413 H400 0.961 . S
C413 H401 0.959 . S
C413 C411 1.561 . S
C414 C411 1.526 . S
C414 C415 1.396 . S
C414 C419 1.390 . S
C415 C409 1.465 . S
C415 C414 1.396 . S
C415 C416 1.399 . S
C416 H402 0.929 . S
C416 C415 1.399 . S
C416 C417 1.385 . S
C417 H403 0.931 . S
C417 C416 1.385 . S
C417 C418 1.389 . S
C418 C417 1.389 . S
C418 C419 1.387 . S
C419 H404 0.930 . S
C419 C414 1.390 . S
C419 C418 1.387 . S
H420 C432 0.930 . S
H421 C434 0.930 . S
H422 C435 0.930 . S
H423 C439 0.959 . S
H424 C439 0.959 . S
H425 C439 0.961 . S
H426 C440 0.960 . S
H427 C440 0.961 . S
H428 C440 0.959 . S
H429 C443 0.929 . S
H430 C444 0.931 . S
H431 C446 0.930 . S
C432 H420 0.930 . S
C432 C433 1.399 . S
C432 C437 1.399 . S
C433 C432 1.399 . S
C433 C434 1.376 . S
C434 H421 0.930 . S
C434 C433 1.376 . S
C434 C435 1.388 . S
C435 H422 0.930 . S
C435 C434 1.388 . S
C435 C436 1.390 . S
C436 C435 1.390 . S
C436 C437 1.394 . S
C436 C442 1.465 . S
C437 C432 1.399 . S
C437 C436 1.394 . S
C437 C438 1.516 . S
C438 C437 1.516 . S
C438 C439 1.502 . S
C438 C440 1.561 . S
C438 C441 1.526 . S
C439 H423 0.959 . S
C439 H424 0.959 . S
C439 H425 0.961 . S
C439 C438 1.502 . S
C440 H426 0.960 . S
C440 H427 0.961 . S
C440 H428 0.959 . S
C440 C438 1.561 . S
C441 C438 1.526 . S
C441 C442 1.396 . S
C441 C446 1.390 . S
C442 C436 1.465 . S
C442 C441 1.396 . S
C442 C443 1.399 . S
C443 H429 0.929 . S
C443 C442 1.399 . S
C443 C444 1.385 . S
C444 H430 0.931 . S
C444 C443 1.385 . S
C444 C445 1.389 . S
C445 C444 1.389 . S
C445 C446 1.387 . S
C446 H431 0.930 . S
C446 C441 1.390 . S
C446 C445 1.387 . S
H447 C459 0.930 . S
H448 C461 0.930 . S
H449 C462 0.930 . S
H450 C466 0.959 . S
H451 C466 0.959 . S
H452 C466 0.961 . S
H453 C467 0.960 . S
H454 C467 0.961 . S
H455 C467 0.959 . S
H456 C470 0.929 . S
H457 C471 0.931 . S
H458 C473 0.930 . S
C459 H447 0.930 . S
C459 C460 1.399 . S
C459 C464 1.399 . S
C460 C459 1.399 . S
C460 C461 1.376 . S
C461 H448 0.930 . S
C461 C460 1.376 . S
C461 C462 1.388 . S
C462 H449 0.930 . S
C462 C461 1.388 . S
C462 C463 1.390 . S
C463 C462 1.390 . S
C463 C464 1.394 . S
C463 C469 1.465 . S
C464 C459 1.399 . S
C464 C463 1.394 . S
C464 C465 1.516 . S
C465 C464 1.516 . S
C465 C466 1.502 . S
C465 C467 1.561 . S
C465 C468 1.526 . S
C466 H450 0.959 . S
C466 H451 0.959 . S
C466 H452 0.961 . S
C466 C465 1.502 . S
C467 H453 0.960 . S
C467 H454 0.961 . S
C467 H455 0.959 . S
C467 C465 1.561 . S
C468 C465 1.526 . S
C468 C469 1.396 . S
C468 C473 1.390 . S
C469 C463 1.465 . S
C469 C468 1.396 . S
C469 C470 1.399 . S
C470 H456 0.929 . S
C470 C469 1.399 . S
C470 C471 1.385 . S
C471 H457 0.931 . S
C471 C470 1.385 . S
C471 C472 1.389 . S
C472 C471 1.389 . S
C472 C473 1.387 . S
C473 H458 0.930 . S
C473 C468 1.390 . S
C473 C472 1.387 . S
H474 C486 0.930 . S
H475 C488 0.930 . S
H476 C489 0.930 . S
H477 C493 0.959 . S
H478 C493 0.959 . S
H479 C493 0.961 . S
H480 C494 0.960 . S
H481 C494 0.961 . S
H482 C494 0.959 . S
H483 C497 0.929 . S
H484 C498 0.931 . S
H485 C500 0.930 . S
C486 H474 0.930 . S
C486 C487 1.399 . S
C486 C491 1.399 . S
C487 C486 1.399 . S
C487 C488 1.376 . S
C488 H475 0.930 . S
C488 C487 1.376 . S
C488 C489 1.388 . S
C489 H476 0.930 . S
C489 C488 1.388 . S
C489 C490 1.390 . S
C490 C489 1.390 . S
C490 C491 1.394 . S
C490 C496 1.465 . S
C491 C486 1.399 . S
C491 C490 1.394 . S
C491 C492 1.516 . S
C492 C491 1.516 . S
C492 C493 1.502 . S
C492 C494 1.561 . S
C492 C495 1.526 . S
C493 H477 0.959 . S
C493 H478 0.959 . S
C493 H479 0.961 . S
C493 C492 1.502 . S
C494 H480 0.960 . S
C494 H481 0.961 . S
C494 H482 0.959 . S
C494 C492 1.561 . S
C495 C492 1.526 . S
C495 C496 1.396 . S
C495 C500 1.390 . S
C496 C490 1.465 . S
C496 C495 1.396 . S
C496 C497 1.399 . S
C497 H483 0.929 . S
C497 C496 1.399 . S
C497 C498 1.385 . S
C498 H484 0.931 . S
C498 C497 1.385 . S
C498 C499 1.389 . S
C499 C498 1.389 . S
C499 C500 1.387 . S
C500 H485 0.930 . S
C500 C495 1.390 . S
C500 C499 1.387 . S
H501 C513 0.930 . S
H502 C515 0.930 . S
H503 C516 0.930 . S
H504 C520 0.959 . S
H505 C520 0.959 . S
H506 C520 0.961 . S
H507 C521 0.960 . S
H508 C521 0.961 . S
H509 C521 0.959 . S
H510 C524 0.929 . S
H511 C525 0.931 . S
H512 C527 0.930 . S
C513 H501 0.930 . S
C513 C514 1.399 . S
C513 C518 1.399 . S
C514 C513 1.399 . S
C514 C515 1.376 . S
C515 H502 0.930 . S
C515 C514 1.376 . S
C515 C516 1.388 . S
C516 H503 0.930 . S
C516 C515 1.388 . S
C516 C517 1.390 . S
C517 C516 1.390 . S
C517 C518 1.394 . S
C517 C523 1.465 . S
C518 C513 1.399 . S
C518 C517 1.394 . S
C518 C519 1.516 . S
C519 C518 1.516 . S
C519 C520 1.502 . S
C519 C521 1.561 . S
C519 C522 1.526 . S
C520 H504 0.959 . S
C520 H505 0.959 . S
C520 H506 0.961 . S
C520 C519 1.502 . S
C521 H507 0.960 . S
C521 H508 0.961 . S
C521 H509 0.959 . S
C521 C519 1.561 . S
C522 C519 1.526 . S
C522 C523 1.396 . S
C522 C527 1.390 . S
C523 C517 1.465 . S
C523 C522 1.396 . S
C523 C524 1.399 . S
C524 H510 0.929 . S
C524 C523 1.399 . S
C524 C525 1.385 . S
C525 H511 0.931 . S
C525 C524 1.385 . S
C525 C526 1.389 . S
C526 C525 1.389 . S
C526 C527 1.387 . S
C527 H512 0.930 . S
C527 C522 1.390 . S
C527 C526 1.387 . S
H528 C540 0.930 . S
H529 C542 0.930 . S
H530 C543 0.930 . S
H531 C547 0.959 . S
H532 C547 0.959 . S
H533 C547 0.961 . S
H534 C548 0.960 . S
H535 C548 0.961 . S
H536 C548 0.959 . S
H537 C551 0.929 . S
H538 C552 0.931 . S
H539 C554 0.930 . S
C540 H528 0.930 . S
C540 C541 1.399 . S
C540 C545 1.399 . S
C541 C540 1.399 . S
C541 C542 1.376 . S
C542 H529 0.930 . S
C542 C541 1.376 . S
C542 C543 1.388 . S
C543 H530 0.930 . S
C543 C542 1.388 . S
C543 C544 1.390 . S
C544 C543 1.390 . S
C544 C545 1.394 . S
C544 C550 1.465 . S
C545 C540 1.399 . S
C545 C544 1.394 . S
C545 C546 1.516 . S
C546 C545 1.516 . S
C546 C547 1.502 . S
C546 C548 1.561 . S
C546 C549 1.526 . S
C547 H531 0.959 . S
C547 H532 0.959 . S
C547 H533 0.961 . S
C547 C546 1.502 . S
C548 H534 0.960 . S
C548 H535 0.961 . S
C548 H536 0.959 . S
C548 C546 1.561 . S
C549 C546 1.526 . S
C549 C550 1.396 . S
C549 C554 1.390 . S
C550 C544 1.465 . S
C550 C549 1.396 . S
C550 C551 1.399 . S
C551 H537 0.929 . S
C551 C550 1.399 . S
C551 C552 1.385 . S
C552 H538 0.931 . S
C552 C551 1.385 . S
C552 C553 1.389 . S
C553 C552 1.389 . S
C553 C554 1.387 . S
C554 H539 0.930 . S
C554 C549 1.390 . S
C554 C553 1.387 . S
H555 C567 0.930 . S
H556 C569 0.930 . S
H557 C570 0.930 . S
H558 C574 0.959 . S
H559 C574 0.959 . S
H560 C574 0.961 . S
H561 C575 0.960 . S
H562 C575 0.961 . S
H563 C575 0.959 . S
H564 C578 0.929 . S
H565 C579 0.931 . S
H566 C581 0.930 . S
C567 H555 0.930 . S
C567 C568 1.399 . S
C567 C572 1.399 . S
C568 C567 1.399 . S
C568 C569 1.376 . S
C569 H556 0.930 . S
C569 C568 1.376 . S
C569 C570 1.388 . S
C570 H557 0.930 . S
C570 C569 1.388 . S
C570 C571 1.390 . S
C571 C570 1.390 . S
C571 C572 1.394 . S
C571 C577 1.465 . S
C572 C567 1.399 . S
C572 C571 1.394 . S
C572 C573 1.516 . S
C573 C572 1.516 . S
C573 C574 1.502 . S
C573 C575 1.561 . S
C573 C576 1.526 . S
C574 H558 0.959 . S
C574 H559 0.959 . S
C574 H560 0.961 . S
C574 C573 1.502 . S
C575 H561 0.960 . S
C575 H562 0.961 . S
C575 H563 0.959 . S
C575 C573 1.561 . S
C576 C573 1.526 . S
C576 C577 1.396 . S
C576 C581 1.390 . S
C577 C571 1.465 . S
C577 C576 1.396 . S
C577 C578 1.399 . S
C578 H564 0.929 . S
C578 C577 1.399 . S
C578 C579 1.385 . S
C579 H565 0.931 . S
C579 C578 1.385 . S
C579 C580 1.389 . S
C580 C579 1.389 . S
C580 C581 1.387 . S
C581 H566 0.930 . S
C581 C576 1.390 . S
C581 C580 1.387 . S
H582 C594 0.930 . S
H583 C596 0.930 . S
H584 C597 0.930 . S
H585 C601 0.959 . S
H586 C601 0.959 . S
H587 C601 0.961 . S
H588 C602 0.960 . S
H589 C602 0.961 . S
H590 C602 0.959 . S
H591 C605 0.929 . S
H592 C606 0.931 . S
H593 C608 0.930 . S
C594 H582 0.930 . S
C594 C595 1.399 . S
C594 C599 1.399 . S
C595 C594 1.399 . S
C595 C596 1.376 . S
C596 H583 0.930 . S
C596 C595 1.376 . S
C596 C597 1.388 . S
C597 H584 0.930 . S
C597 C596 1.388 . S
C597 C598 1.390 . S
C598 C597 1.390 . S
C598 C599 1.394 . S
C598 C604 1.465 . S
C599 C594 1.399 . S
C599 C598 1.394 . S
C599 C600 1.516 . S
C600 C599 1.516 . S
C600 C601 1.502 . S
C600 C602 1.561 . S
C600 C603 1.526 . S
C601 H585 0.959 . S
C601 H586 0.959 . S
C601 H587 0.961 . S
C601 C600 1.502 . S
C602 H588 0.960 . S
C602 H589 0.961 . S
C602 H590 0.959 . S
C602 C600 1.561 . S
C603 C600 1.526 . S
C603 C604 1.396 . S
C603 C608 1.390 . S
C604 C598 1.465 . S
C604 C603 1.396 . S
C604 C605 1.399 . S
C605 H591 0.929 . S
C605 C604 1.399 . S
C605 C606 1.385 . S
C606 H592 0.931 . S
C606 C605 1.385 . S
C606 C607 1.389 . S
C607 C606 1.389 . S
C607 C608 1.387 . S
C608 H593 0.930 . S
C608 C603 1.390 . S
C608 C607 1.387 . S
H609 C621 0.930 . S
H610 C623 0.930 . S
H611 C624 0.930 . S
H612 C628 0.959 . S
H613 C628 0.959 . S
H614 C628 0.961 . S
H615 C629 0.960 . S
H616 C629 0.961 . S
H617 C629 0.959 . S
H618 C632 0.929 . S
H619 C633 0.931 . S
H620 C635 0.930 . S
C621 H609 0.930 . S
C621 C622 1.399 . S
C621 C626 1.399 . S
C622 C621 1.399 . S
C622 C623 1.376 . S
C623 H610 0.930 . S
C623 C622 1.376 . S
C623 C624 1.388 . S
C624 H611 0.930 . S
C624 C623 1.388 . S
C624 C625 1.390 . S
C625 C624 1.390 . S
C625 C626 1.394 . S
C625 C631 1.465 . S
C626 C621 1.399 . S
C626 C625 1.394 . S
C626 C627 1.516 . S
C627 C626 1.516 . S
C627 C628 1.502 . S
C627 C629 1.561 . S
C627 C630 1.526 . S
C628 H612 0.959 . S
C628 H613 0.959 . S
C628 H614 0.961 . S
C628 C627 1.502 . S
C629 H615 0.960 . S
C629 H616 0.961 . S
C629 H617 0.959 . S
C629 C627 1.561 . S
C630 C627 1.526 . S
C630 C631 1.396 . S
C630 C635 1.390 . S
C631 C625 1.465 . S
C631 C630 1.396 . S
C631 C632 1.399 . S
C632 H618 0.929 . S
C632 C631 1.399 . S
C632 C633 1.385 . S
C633 H619 0.931 . S
C633 C632 1.385 . S
C633 C634 1.389 . S
C634 C633 1.389 . S
C634 C635 1.387 . S
C635 H620 0.930 . S
C635 C630 1.390 . S
C635 C634 1.387 . S
H636 C648 0.930 . S
H637 C650 0.930 . S
H638 C651 0.930 . S
H639 C655 0.959 1_655 S
H640 C655 0.959 . S
H641 C655 0.961 . S
H642 C656 0.960 . S
H643 C656 0.961 . S
H644 C656 0.959 . S
H645 C659 0.929 . S
H646 C660 0.931 . S
H647 C662 0.923 1_556 S
C648 H636 0.930 . S
C648 C649 1.399 . S
C648 C653 1.399 . S
C649 C648 1.399 . S
C649 C650 1.376 . S
C650 H637 0.930 . S
C650 C649 1.376 . S
C650 C651 1.388 . S
C651 H638 0.930 . S
C651 C650 1.388 . S
C651 C652 1.390 . S
C652 C651 1.390 . S
C652 C653 1.394 . S
C652 C658 1.465 . S
C653 C648 1.399 . S
C653 C652 1.394 . S
C653 C654 1.516 . S
C654 C653 1.516 . S
C654 C655 1.502 . S
C654 C656 1.561 . S
C654 C657 1.526 . S
C655 H639 0.959 1_455 S
C655 H640 0.959 . S
C655 H641 0.961 . S
C655 C654 1.502 . S
C656 H642 0.960 . S
C656 H643 0.961 . S
C656 H644 0.959 . S
C656 C654 1.561 . S
C657 C654 1.526 . S
C657 C658 1.396 . S
C657 C662 1.414 . S
C658 C652 1.465 . S
C658 C657 1.396 . S
C658 C659 1.399 . S
C659 H645 0.929 . S
C659 C658 1.399 . S
C659 C660 1.385 1_554 S
C660 H646 0.931 . S
C660 C659 1.385 1_556 S
C660 C661 1.389 . S
C661 C660 1.389 . S
C661 C662 1.370 1_556 S
C662 H647 0.923 1_554 S
C662 C657 1.414 . S
C662 C661 1.370 1_554 S
H663 C675 0.930 . S
H664 C677 0.930 . S
H665 C678 0.930 . S
H666 C682 0.959 . S
H667 C682 0.959 . S
H668 C682 0.961 . S
H669 C683 0.960 . S
H670 C683 0.961 . S
H671 C683 0.959 . S
H672 C686 0.929 . S
H673 C687 0.931 . S
H674 C689 0.930 . S
C675 H663 0.930 . S
C675 C676 1.399 . S
C675 C680 1.399 . S
C676 C675 1.399 . S
C676 C677 1.376 1_545 S
C677 H664 0.930 . S
C677 C676 1.376 1_565 S
C677 C678 1.388 . S
C678 H665 0.930 . S
C678 C677 1.388 . S
C678 C679 1.390 1_565 S
C679 C678 1.390 1_545 S
C679 C680 1.394 . S
C679 C685 1.465 . S
C680 C675 1.399 . S
C680 C679 1.394 . S
C680 C681 1.516 . S
C681 C680 1.516 . S
C681 C682 1.502 . S
C681 C683 1.561 . S
C681 C684 1.526 . S
C682 H666 0.959 . S
C682 H667 0.959 . S
C682 H668 0.961 . S
C682 C681 1.502 . S
C683 H669 0.960 . S
C683 H670 0.961 . S
C683 H671 0.959 . S
C683 C681 1.561 . S
C684 C681 1.526 . S
C684 C685 1.396 . S
C684 C689 1.390 . S
C685 C679 1.465 . S
C685 C684 1.396 . S
C685 C686 1.399 1_545 S
C686 H672 0.929 . S
C686 C685 1.399 1_565 S
C686 C687 1.385 . S
C687 H673 0.931 . S
C687 C686 1.385 . S
C687 C688 1.389 1_565 S
C688 C687 1.389 1_545 S
C688 C689 1.387 . S
C689 H674 0.930 . S
C689 C684 1.390 . S
C689 C688 1.387 . S
H690 C702 0.930 . S
H691 C704 0.930 . S
H692 C705 0.930 . S
H693 C709 0.959 . S
H694 C709 0.959 . S
H695 C709 0.961 . S
H696 C710 0.960 . S
H697 C710 0.961 . S
H698 C710 0.959 . S
H699 C713 0.929 . S
H700 C714 0.931 . S
H701 C716 0.930 . S
C702 H690 0.930 . S
C702 C703 1.399 . S
C702 C707 1.399 . S
C703 C702 1.399 . S
C703 C704 1.376 . S
C704 H691 0.930 . S
C704 C703 1.376 . S
C704 C705 1.388 . S
C705 H692 0.930 . S
C705 C704 1.388 . S
C705 C706 1.390 . S
C706 C705 1.390 . S
C706 C707 1.394 . S
C706 C712 1.465 . S
C707 C702 1.399 . S
C707 C706 1.394 . S
C707 C708 1.516 . S
C708 C707 1.516 . S
C708 C709 1.502 . S
C708 C710 1.561 . S
C708 C711 1.526 . S
C709 H693 0.959 . S
C709 H694 0.959 . S
C709 H695 0.961 . S
C709 C708 1.502 . S
C710 H696 0.960 . S
C710 H697 0.961 . S
C710 H698 0.959 . S
C710 C708 1.561 . S
C711 C708 1.526 . S
C711 C712 1.396 . S
C711 C716 1.390 . S
C712 C706 1.465 . S
C712 C711 1.396 . S
C712 C713 1.399 . S
C713 H699 0.929 . S
C713 C712 1.399 . S
C713 C714 1.385 . S
C714 H700 0.931 . S
C714 C713 1.385 . S
C714 C715 1.389 . S
C715 C714 1.389 . S
C715 C716 1.387 . S
C716 H701 0.930 . S
C716 C711 1.390 . S
C716 C715 1.387 . S
H717 C729 0.930 . S
H718 C731 0.930 . S
H719 C732 0.930 . S
H720 C736 0.959 . S
H721 C736 0.959 . S
H722 C736 0.961 . S
H723 C737 0.960 . S
H724 C737 0.961 . S
H725 C737 0.959 . S
H726 C740 0.929 . S
H727 C741 0.931 . S
H728 C743 0.930 . S
C729 H717 0.930 . S
C729 C730 1.399 . S
C729 C734 1.399 . S
C730 C729 1.399 . S
C730 C731 1.376 1_545 S
C731 H718 0.930 . S
C731 C730 1.376 1_565 S
C731 C732 1.388 . S
C732 H719 0.930 . S
C732 C731 1.388 . S
C732 C733 1.390 . S
C733 C732 1.390 . S
C733 C734 1.394 1_565 S
C733 C739 1.465 . S
C734 C729 1.399 . S
C734 C733 1.394 1_545 S
C734 C735 1.516 . S
C735 C734 1.516 . S
C735 C736 1.502 . S
C735 C737 1.561 . S
C735 C738 1.526 . S
C736 H720 0.959 . S
C736 H721 0.959 . S
C736 H722 0.961 . S
C736 C735 1.502 . S
C737 H723 0.960 . S
C737 H724 0.961 . S
C737 H725 0.959 . S
C737 C735 1.561 . S
C738 C735 1.526 . S
C738 C739 1.396 1_545 S
C738 C743 1.390 . S
C739 C733 1.465 . S
C739 C738 1.396 1_565 S
C739 C740 1.399 . S
C740 H726 0.929 . S
C740 C739 1.399 . S
C740 C741 1.385 . S
C741 H727 0.931 . S
C741 C740 1.385 . S
C741 C742 1.389 . S
C742 C741 1.389 . S
C742 C743 1.387 1_565 S
C743 H728 0.930 . S
C743 C738 1.390 . S
C743 C742 1.387 1_545 S
H744 C756 0.930 . S
H745 C758 0.930 . S
H746 C759 0.930 . S
H747 C763 0.959 . S
H748 C763 0.959 . S
H749 C763 0.961 . S
H750 C764 0.960 . S
H751 C764 0.961 . S
H752 C764 0.959 . S
H753 C767 0.929 . S
H754 C768 0.914 1_554 S
H755 C770 0.930 . S
C756 H744 0.930 . S
C756 C757 1.399 . S
C756 C761 1.399 . S
C757 C756 1.399 . S
C757 C758 1.376 . S
C758 H745 0.930 . S
C758 C757 1.376 . S
C758 C759 1.388 . S
C759 H746 0.930 . S
C759 C758 1.388 . S
C759 C760 1.390 . S
C760 C759 1.390 . S
C760 C761 1.394 . S
C760 C766 1.465 . S
C761 C756 1.399 . S
C761 C760 1.394 . S
C761 C762 1.516 . S
C762 C761 1.516 . S
C762 C763 1.502 . S
C762 C764 1.561 . S
C762 C765 1.526 . S
C763 H747 0.959 . S
C763 H748 0.959 . S
C763 H749 0.961 . S
C763 C762 1.502 . S
C764 H750 0.960 . S
C764 H751 0.961 . S
C764 H752 0.959 . S
C764 C762 1.561 . S
C765 C762 1.526 . S
C765 C766 1.396 . S
C765 C770 1.390 . S
C766 C760 1.465 . S
C766 C765 1.396 . S
C766 C767 1.399 . S
C767 H753 0.929 . S
C767 C766 1.399 . S
C767 C768 1.385 . S
C768 H754 0.914 1_556 S
C768 C767 1.385 . S
C768 C769 1.389 1_556 S
C769 C768 1.389 1_554 S
C769 C770 1.387 1_554 S
C770 H755 0.930 . S
C770 C765 1.390 . S
C770 C769 1.387 1_556 S
H771 C783 0.930 . S
H772 C785 0.930 . S
H773 C786 0.930 . S
H774 C790 0.959 . S
H775 C790 0.959 . S
H776 C790 0.961 . S
H777 C791 0.960 . S
H778 C791 0.961 . S
H779 C791 0.959 . S
H780 C794 0.929 . S
H781 C795 0.931 . S
H782 C797 0.930 . S
C783 H771 0.930 . S
C783 C784 1.399 . S
C783 C788 1.399 . S
C784 C783 1.399 . S
C784 C785 1.376 1_455 S
C785 H772 0.930 . S
C785 C784 1.376 1_655 S
C785 C786 1.388 . S
C786 H773 0.930 . S
C786 C785 1.388 . S
C786 C787 1.390 . S
C787 C786 1.390 . S
C787 C788 1.394 1_655 S
C787 C793 1.465 . S
C788 C783 1.399 . S
C788 C787 1.394 1_455 S
C788 C789 1.516 . S
C789 C788 1.516 . S
C789 C790 1.502 . S
C789 C791 1.561 . S
C789 C792 1.526 . S
C790 H774 0.959 . S
C790 H775 0.959 . S
C790 H776 0.961 . S
C790 C789 1.502 . S
C791 H777 0.960 . S
C791 H778 0.961 . S
C791 H779 0.959 . S
C791 C789 1.561 . S
C792 C789 1.526 . S
C792 C793 1.396 1_455 S
C792 C797 1.390 . S
C793 C787 1.465 . S
C793 C792 1.396 1_655 S
C793 C794 1.399 . S
C794 H780 0.929 . S
C794 C793 1.399 . S
C794 C795 1.385 . S
C795 H781 0.931 . S
C795 C794 1.385 . S
C795 C796 1.389 . S
C796 C795 1.389 . S
C796 C797 1.387 1_655 S
C797 H782 0.930 . S
C797 C792 1.390 . S
C797 C796 1.387 1_455 S
C325 C7 0.578 . S
C337 C303 0.579 . S
C352 C51 1.898 . S
C364 C239 1.869 . S
C379 C87 1.240 . S
C391 C271 1.263 . S
C406 C16 0.389 . S
C418 C297 0.411 . S
C445 C233 1.881 . S
C433 C42 1.947 . S
C472 C265 1.281 . S
C460 C96 1.312 . S
C487 C47 1.193 . S
C499 C175 1.200 . S
C514 C91 3.054 . S
C526 C207 3.000 . S
C541 C2 1.967 . S
C553 C137 1.932 . S
C580 C169 1.299 . S
C568 C56 1.252 . S
C607 C201 2.974 . S
C595 C82 2.991 . S
C622 C11 1.893 . S
C634 C143 1.875 . S
C661 C213 1.756 . S
C649 C19 1.742 . S
C676 C50 1.300 . S
C688 C149 1.315 . S
C703 C99 1.482 . S
C715 C181 1.470 . S
C742 C277 1.474 1_565 S
C730 C59 1.436 . S
C769 C309 1.069 . S
C757 C90 1.083 . S
C784 C10 1.351 . S
C796 C245 1.343 1_655 S
