# Generated by pormake.
# Topology ssa, (4,4)-cn, num edge types: 1
# Building blocks:
#     Node 0, Type 0, BuildingBlock: KUFVIS_clean_linker_0, # of connection points: 4
#     Node 1, Type 0, BuildingBlock: KUFVIS_clean_linker_0, # of connection points: 4
#     Node 2, Type 0, BuildingBlock: KUFVIS_clean_linker_0, # of connection points: 4
#     Node 3, Type 0, BuildingBlock: KUFVIS_clean_linker_0, # of connection points: 4
#     Node 4, Type 0, BuildingBlock: KUFVIS_clean_linker_0, # of connection points: 4
#     Node 5, Type 0, BuildingBlock: KUFVIS_clean_linker_0, # of connection points: 4
#     Node 6, Type 1, BuildingBlock: MUDLON_clean_sbu_0, # of connection points: 4
#     Node 7, Type 1, BuildingBlock: MUDLON_clean_sbu_0, # of connection points: 4
#     Node 8, Type 1, BuildingBlock: MUDLON_clean_sbu_0, # of connection points: 4
#     Node 9, Type 1, BuildingBlock: MUDLON_clean_sbu_0, # of connection points: 4
#     Node 10, Type 1, BuildingBlock: MUDLON_clean_sbu_0, # of connection points: 4
#     Node 11, Type 1, BuildingBlock: MUDLON_clean_sbu_0, # of connection points: 4
#     Edge 12, Type (0, 1), BuildingBlock: AJUNOK_clean_linker_0, # of connection points: 2
#     Edge 13, Type (0, 1), BuildingBlock: AJUNOK_clean_linker_0, # of connection points: 2
#     Edge 14, Type (0, 1), BuildingBlock: AJUNOK_clean_linker_0, # of connection points: 2
#     Edge 15, Type (0, 1), BuildingBlock: AJUNOK_clean_linker_0, # of connection points: 2
#     Edge 16, Type (0, 1), BuildingBlock: AJUNOK_clean_linker_0, # of connection points: 2
#     Edge 17, Type (0, 1), BuildingBlock: AJUNOK_clean_linker_0, # of connection points: 2
#     Edge 18, Type (0, 1), BuildingBlock: AJUNOK_clean_linker_0, # of connection points: 2
#     Edge 19, Type (0, 1), BuildingBlock: AJUNOK_clean_linker_0, # of connection points: 2
#     Edge 20, Type (0, 1), BuildingBlock: AJUNOK_clean_linker_0, # of connection points: 2
#     Edge 21, Type (0, 1), BuildingBlock: AJUNOK_clean_linker_0, # of connection points: 2
#     Edge 22, Type (0, 1), BuildingBlock: AJUNOK_clean_linker_0, # of connection points: 2
#     Edge 23, Type (0, 1), BuildingBlock: AJUNOK_clean_linker_0, # of connection points: 2
#     Edge 24, Type (0, 1), BuildingBlock: AJUNOK_clean_linker_0, # of connection points: 2
#     Edge 25, Type (0, 1), BuildingBlock: AJUNOK_clean_linker_0, # of connection points: 2
#     Edge 26, Type (0, 1), BuildingBlock: AJUNOK_clean_linker_0, # of connection points: 2
#     Edge 27, Type (0, 1), BuildingBlock: AJUNOK_clean_linker_0, # of connection points: 2
#     Edge 28, Type (0, 1), BuildingBlock: AJUNOK_clean_linker_0, # of connection points: 2
#     Edge 29, Type (0, 1), BuildingBlock: AJUNOK_clean_linker_0, # of connection points: 2
#     Edge 30, Type (0, 1), BuildingBlock: AJUNOK_clean_linker_0, # of connection points: 2
#     Edge 31, Type (0, 1), BuildingBlock: AJUNOK_clean_linker_0, # of connection points: 2
#     Edge 32, Type (0, 1), BuildingBlock: AJUNOK_clean_linker_0, # of connection points: 2
#     Edge 33, Type (0, 1), BuildingBlock: AJUNOK_clean_linker_0, # of connection points: 2
#     Edge 34, Type (0, 1), BuildingBlock: AJUNOK_clean_linker_0, # of connection points: 2
#     Edge 35, Type (0, 1), BuildingBlock: AJUNOK_clean_linker_0, # of connection points: 2
# Relax obj value: 0.001
# Max RMSD: 0.051
# Mean RMSD: 0.028
data_MOF--net-ssa--node1-MUDLON_clean_sbu_0--node2-KUFVIS_clean_linker_0--edge1-AJUNOK_clean_linker_0
_symmetry_space_group_name_H-M    P1
_symmetry_Int_Tables_number       1
_symmetry_cell_setting            triclinic
loop_
_symmetry_equiv_pos_as_xyz
'x, y, z'
_cell_length_a     33.016098
_cell_length_b     33.13991
_cell_length_c     29.387135
_cell_angle_alpha  90.423819
_cell_angle_beta   89.952085
_cell_angle_gamma 120.01847
loop_
_atom_site_label
_atom_site_type_symbol
_atom_site_fract_x
_atom_site_fract_y
_atom_site_fract_z
_atom_type_partial_charge
H0 H 0.92675 0.44432 0.93073 0.0
H1 H 0.97014 0.52857 1.0524 0.0
H2 H 0.01089 0.42456 1.02792 0.0
H3 H 1.00747 0.41956 0.10232 0.0
H4 H 0.10185 0.52056 0.19732 0.0
H5 H 0.03688 0.56199 0.09511 0.0
C6 C 0.94512 0.45376 0.96309 0.0
C7 C 0.96747 0.42978 0.97755 0.0
C8 C 0.94628 0.48975 0.98941 0.0
C9 C 0.97037 0.50162 1.03158 0.0
C10 C 0.99362 0.47796 1.04697 0.0
C11 C 0.99216 0.44237 1.01875 0.0
C12 C 0.01993 0.48981 0.09164 0.0
C13 C 0.02544 0.45532 0.11428 0.0
C14 C 0.05497 0.46643 0.15208 0.0
C15 C 0.07738 0.51192 0.16937 0.0
C16 C 0.07053 0.54675 0.15018 0.0
C17 C 0.04178 0.53539 0.11087 0.0
H18 H 0.59388 0.10676 0.68875 0.0
H19 H 0.49615 0.04634 0.578 0.0
H20 H 0.60772 0.01465 0.59737 0.0
H21 H 0.60933 0.01208 0.52465 0.0
H22 H 0.50822 0.91798 0.43003 0.0
H23 H 0.46683 0.98544 0.53001 0.0
C24 C 0.58095 0.08406 0.65909 0.0
C25 C 0.60492 0.0618 0.6446 0.0
C26 C 0.54003 0.07641 0.63717 0.0
C27 C 0.52634 0.05012 0.59613 0.0
C28 C 0.55157 0.02867 0.57936 0.0
C29 C 0.58963 0.0333 0.60592 0.0
C30 C 0.53912 1.00109 0.53516 0.0
C31 C 0.5734 0.9943 0.5131 0.0
C32 C 0.56213 0.96383 0.47606 0.0
C33 C 0.51713 0.94291 0.45765 0.0
C34 C 0.48318 0.95245 0.47504 0.0
C35 C 0.49385 0.98037 0.51496 0.0
H36 H 0.48887 0.57259 0.19241 0.0
H37 H 0.45346 0.4773 0.07955 0.0
H38 H 0.5953 0.59168 0.09921 0.0
H39 H 0.59908 0.59126 1.027 0.0
H40 H 0.59344 0.49145 0.93184 0.0
H41 H 0.48824 0.44692 1.0356 0.0
C42 C 0.49911 0.56074 0.16234 0.0
C43 C 0.5449 0.58688 0.14676 0.0
C44 C 0.46599 0.52079 0.13887 0.0
C45 C 0.47965 0.50685 0.09873 0.0
C46 C 0.52645 0.53235 0.08276 0.0
C47 C 0.55885 0.57166 0.10858 0.0
C48 C 0.54204 0.52029 1.03878 0.0
C49 C 0.58172 0.55531 1.01581 0.0
C50 C 0.60028 0.54485 0.97783 0.0
C51 C 0.57766 0.49962 0.96021 0.0
C52 C 0.53599 0.46456 0.97923 0.0
C53 C 0.51897 0.47463 1.01953 0.0
H54 H 0.92395 0.49101 0.69381 0.0
H55 H 0.01506 0.5928 0.59966 0.0
H56 H 0.98344 0.44953 0.58554 0.0
H57 H 0.04712 0.4814 0.53909 0.0
H58 H 0.10545 0.58194 0.4315 0.0
H59 H 0.01497 0.59281 0.52721 0.0
C60 C 0.94704 0.49993 0.66469 0.0
C61 C 0.95336 0.46546 0.64349 0.0
C62 C 0.96812 0.54518 0.64794 0.0
C63 C 0.99701 0.55669 0.60984 0.0
C64 C 1.00184 0.52245 0.58509 0.0
C65 C 0.98007 0.47656 0.60294 0.0
C66 C 0.02818 0.53557 0.54044 0.0
C67 C 0.05023 0.5116 0.52201 0.0
C68 C 0.077 0.5272 0.48144 0.0
C69 C 0.08238 0.56749 0.46052 0.0
C70 C 0.06078 0.59123 0.47781 0.0
C71 C 0.03263 0.5744 0.51627 0.0
H72 H 0.45286 0.93139 0.20475 0.0
H73 H 0.44065 0.01985 0.10845 0.0
H74 H 0.55955 0.99813 0.10311 0.0
H75 H 0.59052 0.06291 0.0593 0.0
H76 H 0.54784 0.10672 0.94004 0.0
H77 H 0.44472 0.02056 1.0358 0.0
C78 C 0.46788 0.95543 0.17664 0.0
C79 C 0.51071 0.96441 0.15803 0.0
C80 C 0.44248 0.97457 0.15799 0.0
C81 C 0.46039 1.00411 0.12064 0.0
C82 C 0.50184 0.01189 0.09872 0.0
C83 C 0.52735 0.99233 0.11852 0.0
C84 C 0.51588 0.03799 0.05424 0.0
C85 C 0.56293 0.06207 1.03877 0.0
C86 C 0.57475 0.08665 0.99714 0.0
C87 C 0.53936 0.08755 0.97168 0.0
C88 C 0.49316 0.06509 0.9867 0.0
C89 C 0.48132 0.03937 1.02675 0.0
H90 H 0.53163 0.44721 0.70301 0.0
H91 H 0.57338 0.54694 0.59501 0.0
H92 H 0.42978 0.43471 0.60647 0.0
H93 H 0.43096 0.43725 0.53315 0.0
H94 H 0.44837 0.54073 0.4378 0.0
H95 H 0.53967 0.58102 0.5543 0.0
C96 C 0.52292 0.46076 0.6734 0.0
C97 C 0.47753 0.43631 0.65582 0.0
C98 C 0.55762 0.50114 0.65231 0.0
C99 C 0.54602 0.51716 0.61255 0.0
C100 C 0.49982 0.49335 0.5946 0.0
C101 C 0.46575 0.45359 0.61793 0.0
C102 C 0.48685 0.50749 0.55065 0.0
C103 C 0.44924 0.47367 0.52398 0.0
C104 C 0.43482 0.48598 0.48435 0.0
C105 C 0.45917 0.5319 0.46928 0.0
C106 C 0.49756 0.56627 0.49371 0.0
C107 C 0.51102 0.55406 0.53475 0.0
Mg108 Mg 0.22124 0.42137 0.31277 0.0
C109 C 0.15601 0.38884 0.23258 0.0
O110 O 0.19639 0.41058 0.2117 0.0
C111 C 0.2798 0.38623 0.3619 0.0
O112 O 0.29002 0.37898 0.32064 0.0
C113 C 0.18397 0.45228 0.39156 0.0
O114 O 0.18483 0.41657 0.40951 0.0
O115 O 0.20031 0.46525 0.3515 0.0
O116 O 0.1557 0.3807 0.27494 0.0
O117 O 0.28041 0.45579 0.26452 0.0
C118 C 0.28939 0.43085 0.23747 0.0
O119 O 0.26116 0.3855 0.2369 0.0
O120 O 0.24624 0.39431 0.36715 0.0
Mg121 Mg 0.81289 0.2225 0.81737 0.0
C122 C 0.75224 0.12652 0.77541 0.0
O123 O 0.73816 0.11626 0.81768 0.0
C124 C 0.91091 0.27733 0.85196 0.0
O125 O 0.91916 0.28875 0.80884 0.0
C126 C 0.75137 0.17757 0.89836 0.0
O127 O 0.78405 0.16639 0.90353 0.0
O128 O 0.75458 0.20351 0.86498 0.0
O129 O 0.78821 0.16584 0.76745 0.0
O130 O 0.83616 0.28583 0.77667 0.0
C131 C 0.84716 0.28635 0.73489 0.0
O132 O 0.83958 0.24739 0.71542 0.0
O133 O 0.87225 0.24151 0.86217 0.0
Mg134 Mg 0.60813 0.80997 0.32068 0.0
C135 C 0.59186 0.86552 0.24986 0.0
O136 O 0.63356 0.87311 0.23845 0.0
C137 C 0.59107 0.73603 0.38674 0.0
O138 O 0.6335 0.75038 0.37145 0.0
C139 C 0.65652 0.8735 0.39926 0.0
O140 O 0.64498 0.83505 0.42151 0.0
O141 O 0.65928 0.87259 0.35615 0.0
O142 O 0.57047 0.83833 0.28296 0.0
O143 O 0.63188 0.77488 0.27377 0.0
C144 C 0.61008 0.7608 0.23612 0.0
O145 O 0.57912 0.77295 0.2254 0.0
O146 O 0.56902 0.75562 0.37143 0.0
Mg147 Mg 0.80936 0.59858 0.81726 0.0
C148 C 0.73509 0.5859 0.75206 0.0
O149 O 0.75935 0.63107 0.75943 0.0
C150 C 0.86589 0.58192 0.88523 0.0
O151 O 0.89172 0.62615 0.87484 0.0
C152 C 0.78184 0.63556 0.89816 0.0
O153 O 0.80747 0.62221 0.92053 0.0
O154 O 0.78702 0.64048 0.85534 0.0
O155 O 0.74868 0.56028 0.77143 0.0
O156 O 0.87296 0.6319 0.77682 0.0
C157 C 0.87109 0.62696 0.73379 0.0
O158 O 0.83096 0.61305 0.71316 0.0
O159 O 0.82587 0.55852 0.86604 0.0
Mg160 Mg 0.22602 0.80136 0.31378 0.0
C161 C 0.1705 0.72878 0.24129 0.0
O162 O 0.15617 0.75871 0.2342 0.0
C163 C 0.30111 0.85767 0.38392 0.0
O164 O 0.2728 0.87424 0.39049 0.0
C165 C 0.16827 0.76723 0.39763 0.0
O166 O 0.20996 0.78029 0.41419 0.0
O167 O 0.16511 0.77883 0.35721 0.0
O168 O 0.20163 0.73785 0.2717 0.0
O169 O 0.24936 0.86214 0.27075 0.0
C170 C 0.26305 0.8591 0.23106 0.0
O171 O 0.25308 0.81788 0.21564 0.0
O172 O 0.28995 0.82476 0.35496 0.0
Mg173 Mg 0.42997 0.21541 0.80883 0.0
C174 C 0.45079 0.16945 0.7266 0.0
O175 O 0.41137 0.16458 0.71084 0.0
C176 C 0.4598 0.28259 0.88975 0.0
O177 O 0.42478 0.24612 0.90888 0.0
C178 C 0.43027 0.15439 0.8732 0.0
O179 O 0.47321 0.18392 0.86045 0.0
O180 O 0.39673 0.15823 0.85672 0.0
O181 O 0.46748 0.19115 0.76416 0.0
O182 O 0.39218 0.24002 0.76769 0.0
C183 C 0.41751 0.26301 0.73425 0.0
O184 O 0.45705 0.26354 0.7274 0.0
O185 O 0.4725 0.27857 0.84971 0.0
C186 C 0.06694 0.42665 0.21862 0.0
C187 C 0.06743 0.43263 0.17119 0.0
C188 C 0.09089 0.40622 0.23859 0.0
C189 C 0.11672 0.39174 0.21175 0.0
H190 H 0.05089 0.44103 0.24064 0.0
H191 H 0.09304 0.40625 0.27538 0.0
S192 S 0.12218 0.39221 0.0857 0.0
N193 N 0.09026 0.41648 0.0977 0.0
N194 N 0.13543 0.37833 0.13516 0.0
C195 C 0.1132 0.39297 0.16414 0.0
C196 C 0.08855 0.41343 0.14383 0.0
C197 C 0.69024 0.10542 0.66194 0.0
C198 C 0.64541 0.06838 0.67183 0.0
C199 C 0.72651 0.12119 0.69416 0.0
C200 C 0.71889 0.10081 0.73763 0.0
H201 H 0.69636 0.12444 0.63048 0.0
H202 H 0.75955 0.15188 0.6861 0.0
S203 S 0.60892 0.99764 0.77654 0.0
N204 N 0.59643 0.00813 0.72512 0.0
N205 N 0.66429 0.03705 0.78576 0.0
C206 C 0.67517 0.06082 0.74596 0.0
C207 C 0.63841 0.04493 0.7131 0.0
C208 C 0.58573 0.63894 0.2135 0.0
C209 C 0.57526 0.63374 0.1667 0.0
C210 C 0.60278 0.68231 0.23533 0.0
C211 C 0.60864 0.72137 0.21114 0.0
H212 H 0.57771 0.60869 0.2338 0.0
H213 H 0.60707 0.68412 0.27198 0.0
S214 S 0.59121 0.72691 0.08733 0.0
N215 N 0.57671 0.67214 0.09615 0.0
N216 N 0.60733 0.75324 0.13742 0.0
C217 C 0.60173 0.71732 0.16384 0.0
C218 C 0.58535 0.67353 0.14152 0.0
C219 C 0.95762 0.58572 0.7152 0.0
C220 C 0.95508 0.57837 0.66787 0.0
C221 C 0.93444 0.60659 0.73615 0.0
C222 C 0.90708 0.62001 0.71051 0.0
H223 H 0.97517 0.57253 0.73645 0.0
H224 H 0.93475 0.6084 0.77298 0.0
S225 S 0.89578 0.61528 0.58474 0.0
N226 N 0.92848 0.59166 0.59541 0.0
N227 N 0.88452 0.63053 0.63472 0.0
C228 C 0.90804 0.61687 0.6628 0.0
C229 C 0.9321 0.59608 0.64147 0.0
C230 C 0.38505 0.95976 0.22018 0.0
C231 C 0.39398 0.95731 0.17375 0.0
C232 C 0.34006 0.93193 0.23808 0.0
C233 C 0.30298 0.90004 0.21017 0.0
H234 H 0.41367 0.98071 0.24329 0.0
H235 H 0.33559 0.93196 0.2746 0.0
S236 S 0.30693 0.8857 0.08538 0.0
N237 N 0.36102 0.92526 0.09938 0.0
N238 N 0.27673 0.87218 0.13318 0.0
C239 C 0.31058 0.9007 0.16309 0.0
C240 C 0.35612 0.92953 0.1448 0.0
C241 C 0.4342 0.38153 0.71926 0.0
C242 C 0.44551 0.3888 0.67276 0.0
C243 C 0.41716 0.33731 0.73855 0.0
C244 C 0.41212 0.29958 0.71201 0.0
H245 H 0.44218 0.41089 0.7414 0.0
H246 H 0.41316 0.33403 0.77516 0.0
S247 S 0.43064 0.29918 0.58783 0.0
N248 N 0.44454 0.35339 0.5998 0.0
N249 N 0.41413 0.27082 0.63645 0.0
C250 C 0.41883 0.30545 0.66489 0.0
C251 C 0.43524 0.35007 0.64512 0.0
C252 C 0.60366 0.95126 0.411 0.0
C253 C 0.59598 0.9506 0.45811 0.0
C254 C 0.6277 0.93021 0.39235 0.0
C255 C 0.64428 0.90698 0.42013 0.0
H256 H 0.58891 0.96611 0.38818 0.0
H257 H 0.63009 0.92923 0.35563 0.0
S258 S 0.63859 0.90108 0.5462 0.0
N259 N 0.61109 0.92943 0.53258 0.0
N260 N 0.65621 0.88972 0.49763 0.0
C261 C 0.64011 0.90948 0.4676 0.0
C262 C 0.61593 0.93126 0.48658 0.0
C263 C 0.68636 0.59752 0.98584 0.0
C264 C 0.64598 0.57964 0.9586 0.0
C265 C 0.73102 0.62023 0.96624 0.0
C266 C 0.73682 0.6261 0.91878 0.0
H267 H 0.68337 0.59064 1.02203 0.0
H268 H 0.76101 0.63019 0.98813 0.0
S269 S 0.64149 0.59344 0.83409 0.0
N270 N 0.61417 0.57492 0.88314 0.0
N271 N 0.69785 0.61844 0.84605 0.0
C272 C 0.6966 0.61287 0.8919 0.0
C273 C 0.65119 0.58922 0.91188 0.0
C274 C 0.10312 0.67723 0.48639 0.0
C275 C 0.07452 0.63779 0.45957 0.0
C276 C 0.12963 0.72113 0.46652 0.0
C277 C 0.12799 0.72705 0.41932 0.0
H278 H 0.1085 0.67339 0.52211 0.0
H279 H 0.15461 0.74976 0.48763 0.0
S280 S 0.05019 0.63596 0.33645 0.0
N281 N 0.04015 0.60819 0.38526 0.0
N282 N 0.08913 0.69094 0.34769 0.0
C283 C 0.095 0.68884 0.39321 0.0
C284 C 0.06857 0.644 0.41342 0.0
C285 C 0.44926 0.0608 0.91619 0.0
C286 C 0.45909 0.07369 0.96225 0.0
C287 C 0.43139 0.08219 0.88799 0.0
C288 C 0.42368 0.11757 0.90481 0.0
H289 H 0.45938 0.03726 0.90105 0.0
H290 H 0.42841 0.07462 0.85186 0.0
S291 S 0.43744 0.1588 1.02415 0.0
N292 N 0.45388 0.11919 1.02476 0.0
N293 N 0.42163 0.16038 0.97116 0.0
C294 C 0.42859 0.12705 0.95166 0.0
C295 C 0.44612 0.10484 0.98059 0.0
C296 C 0.39947 0.43544 0.41594 0.0
C297 C 0.3935 0.45137 0.45836 0.0
C298 C 0.36133 0.41018 0.3866 0.0
C299 C 0.31598 0.40089 0.39824 0.0
H300 H 0.43418 0.44454 0.40448 0.0
H301 H 0.36828 0.40082 0.35328 0.0
S302 S 0.28189 0.43091 0.5084 0.0
N303 N 0.33897 0.4526 0.51288 0.0
N304 N 0.26705 0.40562 0.45776 0.0
C305 C 0.30928 0.41392 0.44217 0.0
C306 C 0.34816 0.43921 0.47216 0.0
C307 C 0.97763 0.39816 0.90375 0.0
C308 C 0.96308 0.39049 0.94934 0.0
C309 C 0.96454 0.36081 0.87338 0.0
C310 C 0.93548 0.3143 0.88721 0.0
H311 H 0.99715 0.43337 0.89091 0.0
H312 H 0.97448 0.36887 0.83802 0.0
S313 S 0.89355 0.27593 1.00496 0.0
N314 N 0.92284 0.33341 1.00839 0.0
N315 N 0.89758 0.26291 0.95139 0.0
C316 C 0.92402 0.30621 0.93377 0.0
C317 C 0.93788 0.3444 0.96478 0.0
C318 C 0.87807 0.4898 0.95135 0.0
C319 C 0.92331 0.51509 0.97052 0.0
C320 C 0.85906 0.51176 0.92527 0.0
C321 C 0.88447 0.55998 0.9171 0.0
H322 H 0.85782 0.45233 0.95517 0.0
H323 H 0.82477 0.49039 0.91016 0.0
S324 S 1.00311 0.64263 0.96285 0.0
N325 N 0.99189 0.59127 0.98171 0.0
N326 N 0.95639 0.63292 0.93355 0.0
C327 C 0.92885 0.58606 0.93817 0.0
C328 C 0.94811 0.56356 0.96472 0.0
C329 C 0.39449 0.90965 0.47657 0.0
C330 C 0.4365 0.93097 0.45157 0.0
C331 C 0.35068 0.88554 0.45452 0.0
C332 C 0.34731 0.88076 0.40681 0.0
H333 H 0.39542 0.9107 0.5134 0.0
H334 H 0.31922 0.86989 0.47497 0.0
S335 S 0.44538 0.9348 0.32515 0.0
N336 N 0.47073 0.95012 0.37565 0.0
N337 N 0.38882 0.90226 0.33513 0.0
C338 C 0.38861 0.90263 0.38139 0.0
C339 C 0.43301 0.92836 0.40352 0.0
C340 C 0.49799 0.37667 0.98188 0.0
C341 C 0.51249 0.41759 0.95664 0.0
C342 C 0.48128 0.33315 0.96005 0.0
C343 C 0.47932 0.32903 0.91219 0.0
H344 H 0.50076 0.37843 1.01864 0.0
H345 H 0.47059 0.30257 0.9808 0.0
S346 S 0.50757 0.42442 0.83064 0.0
N347 N 0.51868 0.44997 0.88112 0.0
N348 N 0.48982 0.36907 0.8405 0.0
C349 C 0.49253 0.36941 0.88667 0.0
C350 C 0.50833 0.41334 0.90878 0.0
C351 C 0.1022 0.5001 0.41243 0.0
C352 C 0.10179 0.50419 0.46034 0.0
C353 C 0.13003 0.48491 0.39047 0.0
C354 C 0.15795 0.47201 0.41542 0.0
H355 H 0.08112 0.50932 0.39146 0.0
H356 H 0.12886 0.48234 0.35366 0.0
S357 S 0.16998 0.4757 0.5412 0.0
N358 N 0.13289 0.49449 0.53179 0.0
N359 N 0.18332 0.46365 0.49062 0.0
C360 C 0.1572 0.47473 0.46328 0.0
C361 C 0.12951 0.49116 0.4857 0.0
C362 C 0.64077 0.15654 0.95932 0.0
C363 C 0.62351 0.11206 0.97878 0.0
C364 C 0.68241 0.17784 0.93412 0.0
C365 C 0.70922 0.15608 0.92805 0.0
H366 H 0.62104 0.17451 0.96234 0.0
H367 H 0.69333 0.21136 0.91879 0.0
S368 S 0.68103 0.04055 0.97361 0.0
N369 N 0.63744 0.04765 0.99105 0.0
N370 N 0.71648 0.08817 0.94521 0.0
C371 C 0.69368 0.11264 0.94917 0.0
C372 C 0.6508 0.09061 0.97428 0.0
C373 C 0.4993 0.63549 0.45712 0.0
C374 C 0.5238 0.61399 0.47402 0.0
C375 C 0.52158 0.6759 0.4305 0.0
C376 C 0.56928 0.69645 0.41941 0.0
H377 H 0.46211 0.61991 0.46319 0.0
H378 H 0.50073 0.69008 0.41716 0.0
S379 S 0.65006 0.65586 0.45849 0.0
N380 N 0.5989 0.6178 0.48002 0.0
N381 N 0.64113 0.69385 0.43071 0.0
C382 C 0.59473 0.67661 0.43817 0.0
C383 C 0.57194 0.63549 0.46534 0.0
C384 C 0.49666 0.12148 0.63391 0.0
C385 C 0.51254 0.096 0.65902 0.0
C386 C 0.47634 0.14504 0.65585 0.0
C387 C 0.47235 0.14488 0.70362 0.0
H388 H 0.50122 0.12439 0.59736 0.0
H389 H 0.46483 0.16452 0.63542 0.0
S390 S 0.50216 0.0782 0.78427 0.0
N391 N 0.51667 0.06711 0.73391 0.0
N392 N 0.482 0.114 0.77475 0.0
C393 C 0.48661 0.11839 0.72881 0.0
C394 C 0.50567 0.09323 0.7066 0.0
C395 C 0.39595 0.52077 0.17246 0.0
C396 C 0.41734 0.49539 0.15723 0.0
C397 C 0.35433 0.49962 0.19766 0.0
C398 C 0.3318 0.45197 0.20813 0.0
H399 H 0.41239 0.55781 0.16606 0.0
H400 H 0.34008 0.52099 0.20953 0.0
S401 S 0.37191 0.36927 0.17441 0.0
N402 N 0.41194 0.4197 0.15337 0.0
N403 N 0.33308 0.37941 0.19951 0.0
C404 C 0.35158 0.42563 0.19127 0.0
C405 C 0.39434 0.4474 0.16601 0.0
C406 C 0.93157 0.41446 0.71224 0.0
C407 C 0.92981 0.41815 0.66452 0.0
C408 C 0.90414 0.37207 0.73462 0.0
C409 C 0.8743 0.33113 0.71026 0.0
H410 H 0.95376 0.44503 0.73272 0.0
H411 H 0.90674 0.37137 0.77133 0.0
S412 S 0.85717 0.32104 0.58494 0.0
N413 N 0.89555 0.37669 0.59374 0.0
N414 N 0.84536 0.29647 0.63559 0.0
C415 C 0.87321 0.33378 0.66245 0.0
C416 C 0.90069 0.37729 0.63963 0.0
C417 C 0.53631 0.93979 0.22801 0.0
C418 C 0.53544 0.94201 0.18 0.0
C419 C 0.55337 0.91397 0.25027 0.0
C420 C 0.57167 0.89039 0.22557 0.0
H421 H 0.52308 0.95779 0.24873 0.0
H422 H 0.55302 0.91319 0.28714 0.0
S423 S 0.57839 0.88464 0.09992 0.0
N424 N 0.55405 0.91708 0.10876 0.0
N425 N 0.58885 0.87106 0.15086 0.0
C426 C 0.57249 0.89323 0.1778 0.0
C427 C 0.55392 0.91854 0.15496 0.0
C428 C 0.62629 0.49832 0.68607 0.0
C429 C 0.60582 0.52486 0.67231 0.0
C430 C 0.66834 0.51831 0.711 0.0
C431 C 0.69201 0.56584 0.72308 0.0
H432 H 0.60906 0.46138 0.67835 0.0
H433 H 0.68196 0.49609 0.72143 0.0
S434 S 0.65382 0.65098 0.6942 0.0
N435 N 0.61293 0.60129 0.67193 0.0
N436 N 0.69214 0.63934 0.71784 0.0
C437 C 0.67269 0.59315 0.70814 0.0
C438 C 0.62971 0.57261 0.68294 0.0
C439 C 0.10037 0.59857 0.21983 0.0
C440 C 0.09495 0.59447 0.17193 0.0
C441 C 0.12671 0.64191 0.24164 0.0
C442 C 0.1471 0.68342 0.2169 0.0
H443 H 0.08417 0.56788 0.24101 0.0
H444 H 0.13007 0.64299 0.27835 0.0
S445 S 0.14472 0.6939 0.09159 0.0
N446 N 0.11473 0.63718 0.10061 0.0
N447 N 0.16054 0.71872 0.14236 0.0
C448 C 0.14136 0.68051 0.16937 0.0
C449 C 0.11603 0.63615 0.14676 0.0
loop_
_geom_bond_atom_site_label_1
_geom_bond_atom_site_label_2
_geom_bond_distance
_geom_bond_site_symmetry_2
_ccdc_geom_bond_type
H0 C6 0.930 . S
H1 C9 0.931 . S
H2 C11 0.952 . S
H3 C13 0.930 . S
H4 C15 0.930 . S
H5 C17 0.931 . S
C6 H0 0.930 . S
C6 C7 1.380 . S
C6 C8 1.394 . S
C7 C6 1.380 . S
C7 C11 1.382 . S
C8 C6 1.394 . S
C8 C9 1.400 . S
C9 H1 0.931 . S
C9 C8 1.400 . S
C9 C10 1.375 . S
C10 C9 1.375 . S
C10 C11 1.415 . S
C10 C12 1.501 1_656 S
C11 H2 0.952 . S
C11 C7 1.382 . S
C11 C10 1.415 . S
C12 C10 1.501 1_454 S
C12 C13 1.384 . S
C12 C17 1.408 . S
C13 H3 0.930 . S
C13 C12 1.384 . S
C13 C14 1.389 . S
C14 C13 1.389 . S
C14 C15 1.405 . S
C15 H4 0.930 . S
C15 C14 1.405 . S
C15 C16 1.364 . S
C16 C15 1.364 . S
C16 C17 1.400 . S
C17 H5 0.931 . S
C17 C12 1.408 . S
C17 C16 1.400 . S
H18 C24 0.930 . S
H19 C27 0.931 . S
H20 C29 0.931 . S
H21 C31 0.930 1_545 S
H22 C33 0.930 . S
H23 C35 0.931 . S
C24 H18 0.930 . S
C24 C25 1.380 . S
C24 C26 1.394 . S
C25 C24 1.380 . S
C25 C29 1.382 . S
C26 C24 1.394 . S
C26 C27 1.400 . S
C27 H19 0.931 . S
C27 C26 1.400 . S
C27 C28 1.375 . S
C28 C27 1.375 . S
C28 C29 1.415 . S
C28 C30 1.501 . S
C29 H20 0.931 . S
C29 C25 1.382 . S
C29 C28 1.415 . S
C30 C28 1.501 . S
C30 C31 1.384 1_545 S
C30 C35 1.408 1_545 S
C31 H21 0.930 1_565 S
C31 C30 1.384 1_565 S
C31 C32 1.389 . S
C32 C31 1.389 . S
C32 C33 1.405 . S
C33 H22 0.930 . S
C33 C32 1.405 . S
C33 C34 1.364 . S
C34 C33 1.364 . S
C34 C35 1.400 . S
C35 H23 0.931 . S
C35 C30 1.408 1_565 S
C35 C34 1.400 . S
H36 C42 0.930 . S
H37 C45 0.931 . S
H38 C47 0.931 . S
H39 C49 0.930 . S
H40 C51 0.930 . S
H41 C53 0.931 . S
C42 H36 0.930 . S
C42 C43 1.380 . S
C42 C44 1.394 . S
C43 C42 1.380 . S
C43 C47 1.382 . S
C44 C42 1.394 . S
C44 C45 1.400 . S
C45 H37 0.931 . S
C45 C44 1.400 . S
C45 C46 1.375 . S
C46 C45 1.375 . S
C46 C47 1.415 . S
C46 C48 1.501 1_554 S
C47 H38 0.931 . S
C47 C43 1.382 . S
C47 C46 1.415 . S
C48 C46 1.501 1_556 S
C48 C49 1.384 . S
C48 C53 1.408 . S
C49 H39 0.930 . S
C49 C48 1.384 . S
C49 C50 1.389 . S
C50 C49 1.389 . S
C50 C51 1.405 . S
C51 H40 0.930 . S
C51 C50 1.405 . S
C51 C52 1.364 . S
C52 C51 1.364 . S
C52 C53 1.400 . S
C53 H41 0.931 . S
C53 C48 1.408 . S
C53 C52 1.400 . S
H54 C60 0.930 . S
H55 C63 0.931 . S
H56 C65 0.931 . S
H57 C67 0.930 . S
H58 C69 0.930 . S
H59 C71 0.931 . S
C60 H54 0.930 . S
C60 C61 1.380 . S
C60 C62 1.394 . S
C61 C60 1.380 . S
C61 C65 1.382 . S
C62 C60 1.394 . S
C62 C63 1.400 . S
C63 H55 0.931 . S
C63 C62 1.400 . S
C63 C64 1.375 . S
C64 C63 1.375 . S
C64 C65 1.415 . S
C64 C66 1.501 1_655 S
C65 H56 0.931 . S
C65 C61 1.382 . S
C65 C64 1.415 . S
C66 C64 1.501 1_455 S
C66 C67 1.384 . S
C66 C71 1.408 . S
C67 H57 0.930 . S
C67 C66 1.384 . S
C67 C68 1.389 . S
C68 C67 1.389 . S
C68 C69 1.405 . S
C69 H58 0.930 . S
C69 C68 1.405 . S
C69 C70 1.364 . S
C70 C69 1.364 . S
C70 C71 1.400 . S
C71 H59 0.931 . S
C71 C66 1.408 . S
C71 C70 1.400 . S
H72 C78 0.930 . S
H73 C81 0.931 . S
H74 C83 0.931 . S
H75 C85 0.930 . S
H76 C87 0.930 . S
H77 C89 0.931 . S
C78 H72 0.930 . S
C78 C79 1.380 . S
C78 C80 1.394 . S
C79 C78 1.380 . S
C79 C83 1.382 . S
C80 C78 1.394 . S
C80 C81 1.400 . S
C81 H73 0.931 . S
C81 C80 1.400 . S
C81 C82 1.375 . S
C82 C81 1.375 . S
C82 C83 1.415 . S
C82 C84 1.501 1_564 S
C83 H74 0.931 . S
C83 C79 1.382 . S
C83 C82 1.415 . S
C84 C82 1.501 1_546 S
C84 C85 1.384 . S
C84 C89 1.408 . S
C85 H75 0.930 . S
C85 C84 1.384 . S
C85 C86 1.389 . S
C86 C85 1.389 . S
C86 C87 1.405 . S
C87 H76 0.930 . S
C87 C86 1.405 . S
C87 C88 1.364 . S
C88 C87 1.364 . S
C88 C89 1.400 . S
C89 H77 0.931 . S
C89 C84 1.408 . S
C89 C88 1.400 . S
H90 C96 0.930 . S
H91 C99 0.931 . S
H92 C101 0.931 . S
H93 C103 0.930 . S
H94 C105 0.930 . S
H95 C107 0.931 . S
C96 H90 0.930 . S
C96 C97 1.380 . S
C96 C98 1.394 . S
C97 C96 1.380 . S
C97 C101 1.382 . S
C98 C96 1.394 . S
C98 C99 1.400 . S
C99 H91 0.931 . S
C99 C98 1.400 . S
C99 C100 1.375 . S
C100 C99 1.375 . S
C100 C101 1.415 . S
C100 C102 1.501 . S
C101 H92 0.931 . S
C101 C97 1.382 . S
C101 C100 1.415 . S
C102 C100 1.501 . S
C102 C103 1.384 . S
C102 C107 1.408 . S
C103 H93 0.930 . S
C103 C102 1.384 . S
C103 C104 1.389 . S
C104 C103 1.389 . S
C104 C105 1.405 . S
C105 H94 0.930 . S
C105 C104 1.405 . S
C105 C106 1.364 . S
C106 C105 1.364 . S
C106 C107 1.400 . S
C107 H95 0.931 . S
C107 C102 1.408 . S
C107 C106 1.400 . S
Mg108 O115 2.141 . S
Mg108 O116 2.048 . S
Mg108 O117 2.048 . S
Mg108 O120 2.141 . S
C109 O110 1.313 . S
C109 O116 1.195 . S
O110 C109 1.313 . S
C111 O112 1.245 . S
C111 O120 1.289 . S
O112 C111 1.245 . S
C113 O114 1.245 . S
C113 O115 1.289 . S
O114 C113 1.245 . S
O115 Mg108 2.141 . S
O115 C113 1.289 . S
O116 Mg108 2.048 . S
O116 C109 1.195 . S
O117 Mg108 2.048 . S
O117 C118 1.195 . S
C118 O117 1.195 . S
C118 O119 1.313 . S
O119 C118 1.313 . S
O120 Mg108 2.141 . S
O120 C111 1.289 . S
Mg121 O128 2.141 . S
Mg121 O129 2.048 . S
Mg121 O130 2.048 . S
Mg121 O133 2.141 . S
C122 O123 1.313 . S
C122 O129 1.195 . S
O123 C122 1.313 . S
C124 O125 1.245 . S
C124 O133 1.289 . S
O125 C124 1.245 . S
C126 O127 1.245 . S
C126 O128 1.289 . S
O127 C126 1.245 . S
O128 Mg121 2.141 . S
O128 C126 1.289 . S
O129 Mg121 2.048 . S
O129 C122 1.195 . S
O130 Mg121 2.048 . S
O130 C131 1.195 . S
C131 O130 1.195 . S
C131 O132 1.313 . S
O132 C131 1.313 . S
O133 Mg121 2.141 . S
O133 C124 1.289 . S
Mg134 O141 2.141 . S
Mg134 O142 2.048 . S
Mg134 O143 2.048 . S
Mg134 O146 2.141 . S
C135 O136 1.313 . S
C135 O142 1.195 . S
O136 C135 1.313 . S
C137 O138 1.245 . S
C137 O146 1.289 . S
O138 C137 1.245 . S
C139 O140 1.245 . S
C139 O141 1.289 . S
O140 C139 1.245 . S
O141 Mg134 2.141 . S
O141 C139 1.289 . S
O142 Mg134 2.048 . S
O142 C135 1.195 . S
O143 Mg134 2.048 . S
O143 C144 1.195 . S
C144 O143 1.195 . S
C144 O145 1.313 . S
O145 C144 1.313 . S
O146 Mg134 2.141 . S
O146 C137 1.289 . S
Mg147 O154 2.141 . S
Mg147 O155 2.048 . S
Mg147 O156 2.048 . S
Mg147 O159 2.141 . S
C148 O149 1.313 . S
C148 O155 1.195 . S
O149 C148 1.313 . S
C150 O151 1.245 . S
C150 O159 1.289 . S
O151 C150 1.245 . S
C152 O153 1.245 . S
C152 O154 1.289 . S
O153 C152 1.245 . S
O154 Mg147 2.141 . S
O154 C152 1.289 . S
O155 Mg147 2.048 . S
O155 C148 1.195 . S
O156 Mg147 2.048 . S
O156 C157 1.195 . S
C157 O156 1.195 . S
C157 O158 1.313 . S
O158 C157 1.313 . S
O159 Mg147 2.141 . S
O159 C150 1.289 . S
Mg160 O167 2.141 . S
Mg160 O168 2.048 . S
Mg160 O169 2.048 . S
Mg160 O172 2.141 . S
C161 O162 1.313 . S
C161 O168 1.195 . S
O162 C161 1.313 . S
C163 O164 1.245 . S
C163 O172 1.289 . S
O164 C163 1.245 . S
C165 O166 1.245 . S
C165 O167 1.289 . S
O166 C165 1.245 . S
O167 Mg160 2.141 . S
O167 C165 1.289 . S
O168 Mg160 2.048 . S
O168 C161 1.195 . S
O169 Mg160 2.048 . S
O169 C170 1.195 . S
C170 O169 1.195 . S
C170 O171 1.313 . S
O171 C170 1.313 . S
O172 Mg160 2.141 . S
O172 C163 1.289 . S
Mg173 O180 2.141 . S
Mg173 O181 2.048 . S
Mg173 O182 2.048 . S
Mg173 O185 2.141 . S
C174 O175 1.313 . S
C174 O181 1.195 . S
O175 C174 1.313 . S
C176 O177 1.245 . S
C176 O185 1.289 . S
O177 C176 1.245 . S
C178 O179 1.245 . S
C178 O180 1.289 . S
O179 C178 1.245 . S
O180 Mg173 2.141 . S
O180 C178 1.289 . S
O181 Mg173 2.048 . S
O181 C174 1.195 . S
O182 Mg173 2.048 . S
O182 C183 1.195 . S
C183 O182 1.195 . S
C183 O184 1.313 . S
O184 C183 1.313 . S
O185 Mg173 2.141 . S
O185 C176 1.289 . S
C186 C187 1.369 . S
C186 C188 1.419 . S
C186 H190 0.930 . S
C187 C186 1.369 . S
C187 C196 1.429 . S
C188 C186 1.419 . S
C188 C189 1.363 . S
C188 H191 0.929 . S
C189 C188 1.363 . S
C189 C195 1.428 . S
H190 C186 0.930 . S
H191 C188 0.929 . S
S192 N193 1.613 . S
S192 N194 1.610 . S
N193 S192 1.613 . S
N193 C196 1.350 . S
N194 S192 1.610 . S
N194 C195 1.351 . S
C195 C189 1.428 . S
C195 N194 1.351 . S
C195 C196 1.434 . S
C196 C187 1.429 . S
C196 N193 1.350 . S
C196 C195 1.434 . S
C197 C198 1.369 . S
C197 C199 1.419 . S
C197 H201 0.930 . S
C198 C197 1.369 . S
C198 C207 1.429 . S
C199 C197 1.419 . S
C199 C200 1.363 . S
C199 H202 0.929 . S
C200 C199 1.363 . S
C200 C206 1.428 . S
H201 C197 0.930 . S
H202 C199 0.929 . S
S203 N204 1.613 . S
S203 N205 1.610 . S
N204 S203 1.613 . S
N204 C207 1.350 . S
N205 S203 1.610 . S
N205 C206 1.351 . S
C206 C200 1.428 . S
C206 N205 1.351 . S
C206 C207 1.434 . S
C207 C198 1.429 . S
C207 N204 1.350 . S
C207 C206 1.434 . S
C208 C209 1.369 . S
C208 C210 1.419 . S
C208 H212 0.930 . S
C209 C208 1.369 . S
C209 C218 1.429 . S
C210 C208 1.419 . S
C210 C211 1.363 . S
C210 H213 0.929 . S
C211 C210 1.363 . S
C211 C217 1.428 . S
H212 C208 0.930 . S
H213 C210 0.929 . S
S214 N215 1.613 . S
S214 N216 1.610 . S
N215 S214 1.613 . S
N215 C218 1.350 . S
N216 S214 1.610 . S
N216 C217 1.351 . S
C217 C211 1.428 . S
C217 N216 1.351 . S
C217 C218 1.434 . S
C218 C209 1.429 . S
C218 N215 1.350 . S
C218 C217 1.434 . S
C219 C220 1.369 . S
C219 C221 1.419 . S
C219 H223 0.930 . S
C220 C219 1.369 . S
C220 C229 1.429 . S
C221 C219 1.419 . S
C221 C222 1.363 . S
C221 H224 0.929 . S
C222 C221 1.363 . S
C222 C228 1.428 . S
H223 C219 0.930 . S
H224 C221 0.929 . S
S225 N226 1.613 . S
S225 N227 1.610 . S
N226 S225 1.613 . S
N226 C229 1.350 . S
N227 S225 1.610 . S
N227 C228 1.351 . S
C228 C222 1.428 . S
C228 N227 1.351 . S
C228 C229 1.434 . S
C229 C220 1.429 . S
C229 N226 1.350 . S
C229 C228 1.434 . S
C230 C231 1.369 . S
C230 C232 1.419 . S
C230 H234 0.930 . S
C231 C230 1.369 . S
C231 C240 1.429 . S
C232 C230 1.419 . S
C232 C233 1.363 . S
C232 H235 0.929 . S
C233 C232 1.363 . S
C233 C239 1.428 . S
H234 C230 0.930 . S
H235 C232 0.929 . S
S236 N237 1.613 . S
S236 N238 1.610 . S
N237 S236 1.613 . S
N237 C240 1.350 . S
N238 S236 1.610 . S
N238 C239 1.351 . S
C239 C233 1.428 . S
C239 N238 1.351 . S
C239 C240 1.434 . S
C240 C231 1.429 . S
C240 N237 1.350 . S
C240 C239 1.434 . S
C241 C242 1.369 . S
C241 C243 1.419 . S
C241 H245 0.930 . S
C242 C241 1.369 . S
C242 C251 1.429 . S
C243 C241 1.419 . S
C243 C244 1.363 . S
C243 H246 0.929 . S
C244 C243 1.363 . S
C244 C250 1.428 . S
H245 C241 0.930 . S
H246 C243 0.929 . S
S247 N248 1.613 . S
S247 N249 1.610 . S
N248 S247 1.613 . S
N248 C251 1.350 . S
N249 S247 1.610 . S
N249 C250 1.351 . S
C250 C244 1.428 . S
C250 N249 1.351 . S
C250 C251 1.434 . S
C251 C242 1.429 . S
C251 N248 1.350 . S
C251 C250 1.434 . S
C252 C253 1.369 . S
C252 C254 1.419 . S
C252 H256 0.930 . S
C253 C252 1.369 . S
C253 C262 1.429 . S
C254 C252 1.419 . S
C254 C255 1.363 . S
C254 H257 0.929 . S
C255 C254 1.363 . S
C255 C261 1.428 . S
H256 C252 0.930 . S
H257 C254 0.929 . S
S258 N259 1.613 . S
S258 N260 1.610 . S
N259 S258 1.613 . S
N259 C262 1.350 . S
N260 S258 1.610 . S
N260 C261 1.351 . S
C261 C255 1.428 . S
C261 N260 1.351 . S
C261 C262 1.434 . S
C262 C253 1.429 . S
C262 N259 1.350 . S
C262 C261 1.434 . S
C263 C264 1.369 . S
C263 C265 1.419 . S
C263 H267 0.930 . S
C264 C263 1.369 . S
C264 C273 1.429 . S
C265 C263 1.419 . S
C265 C266 1.363 . S
C265 H268 0.929 . S
C266 C265 1.363 . S
C266 C272 1.428 . S
H267 C263 0.930 . S
H268 C265 0.929 . S
S269 N270 1.613 . S
S269 N271 1.610 . S
N270 S269 1.613 . S
N270 C273 1.350 . S
N271 S269 1.610 . S
N271 C272 1.351 . S
C272 C266 1.428 . S
C272 N271 1.351 . S
C272 C273 1.434 . S
C273 C264 1.429 . S
C273 N270 1.350 . S
C273 C272 1.434 . S
C274 C275 1.369 . S
C274 C276 1.419 . S
C274 H278 0.930 . S
C275 C274 1.369 . S
C275 C284 1.429 . S
C276 C274 1.419 . S
C276 C277 1.363 . S
C276 H279 0.929 . S
C277 C276 1.363 . S
C277 C283 1.428 . S
H278 C274 0.930 . S
H279 C276 0.929 . S
S280 N281 1.613 . S
S280 N282 1.610 . S
N281 S280 1.613 . S
N281 C284 1.350 . S
N282 S280 1.610 . S
N282 C283 1.351 . S
C283 C277 1.428 . S
C283 N282 1.351 . S
C283 C284 1.434 . S
C284 C275 1.429 . S
C284 N281 1.350 . S
C284 C283 1.434 . S
C285 C286 1.369 . S
C285 C287 1.419 . S
C285 H289 0.930 . S
C286 C285 1.369 . S
C286 C295 1.429 . S
C287 C285 1.419 . S
C287 C288 1.363 . S
C287 H290 0.929 . S
C288 C287 1.363 . S
C288 C294 1.428 . S
H289 C285 0.930 . S
H290 C287 0.929 . S
S291 N292 1.613 . S
S291 N293 1.610 . S
N292 S291 1.613 . S
N292 C295 1.350 . S
N293 S291 1.610 . S
N293 C294 1.351 . S
C294 C288 1.428 . S
C294 N293 1.351 . S
C294 C295 1.434 . S
C295 C286 1.429 . S
C295 N292 1.350 . S
C295 C294 1.434 . S
C296 C297 1.369 . S
C296 C298 1.419 . S
C296 H300 0.930 . S
C297 C296 1.369 . S
C297 C306 1.429 . S
C298 C296 1.419 . S
C298 C299 1.363 . S
C298 H301 0.929 . S
C299 C298 1.363 . S
C299 C305 1.428 . S
H300 C296 0.930 . S
H301 C298 0.929 . S
S302 N303 1.613 . S
S302 N304 1.610 . S
N303 S302 1.613 . S
N303 C306 1.350 . S
N304 S302 1.610 . S
N304 C305 1.351 . S
C305 C299 1.428 . S
C305 N304 1.351 . S
C305 C306 1.434 . S
C306 C297 1.429 . S
C306 N303 1.350 . S
C306 C305 1.434 . S
C307 C308 1.369 . S
C307 C309 1.419 . S
C307 H311 0.930 . S
C308 C307 1.369 . S
C308 C317 1.429 . S
C309 C307 1.419 . S
C309 C310 1.363 . S
C309 H312 0.929 . S
C310 C309 1.363 . S
C310 C316 1.428 . S
H311 C307 0.930 . S
H312 C309 0.929 . S
S313 N314 1.613 . S
S313 N315 1.610 . S
N314 S313 1.613 . S
N314 C317 1.350 . S
N315 S313 1.610 . S
N315 C316 1.351 . S
C316 C310 1.428 . S
C316 N315 1.351 . S
C316 C317 1.434 . S
C317 C308 1.429 . S
C317 N314 1.350 . S
C317 C316 1.434 . S
C318 C319 1.369 . S
C318 C320 1.419 . S
C318 H322 0.930 . S
C319 C318 1.369 . S
C319 C328 1.429 . S
C320 C318 1.419 . S
C320 C321 1.363 . S
C320 H323 0.929 . S
C321 C320 1.363 . S
C321 C327 1.428 . S
H322 C318 0.930 . S
H323 C320 0.929 . S
S324 N325 1.613 . S
S324 N326 1.610 . S
N325 S324 1.613 . S
N325 C328 1.350 . S
N326 S324 1.610 . S
N326 C327 1.351 . S
C327 C321 1.428 . S
C327 N326 1.351 . S
C327 C328 1.434 . S
C328 C319 1.429 . S
C328 N325 1.350 . S
C328 C327 1.434 . S
C329 C330 1.369 . S
C329 C331 1.419 . S
C329 H333 0.930 . S
C330 C329 1.369 . S
C330 C339 1.429 . S
C331 C329 1.419 . S
C331 C332 1.363 . S
C331 H334 0.929 . S
C332 C331 1.363 . S
C332 C338 1.428 . S
H333 C329 0.930 . S
H334 C331 0.929 . S
S335 N336 1.613 . S
S335 N337 1.610 . S
N336 S335 1.613 . S
N336 C339 1.350 . S
N337 S335 1.610 . S
N337 C338 1.351 . S
C338 C332 1.428 . S
C338 N337 1.351 . S
C338 C339 1.434 . S
C339 C330 1.429 . S
C339 N336 1.350 . S
C339 C338 1.434 . S
C340 C341 1.369 . S
C340 C342 1.419 . S
C340 H344 0.930 . S
C341 C340 1.369 . S
C341 C350 1.429 . S
C342 C340 1.419 . S
C342 C343 1.363 . S
C342 H345 0.929 . S
C343 C342 1.363 . S
C343 C349 1.428 . S
H344 C340 0.930 . S
H345 C342 0.929 . S
S346 N347 1.613 . S
S346 N348 1.610 . S
N347 S346 1.613 . S
N347 C350 1.350 . S
N348 S346 1.610 . S
N348 C349 1.351 . S
C349 C343 1.428 . S
C349 N348 1.351 . S
C349 C350 1.434 . S
C350 C341 1.429 . S
C350 N347 1.350 . S
C350 C349 1.434 . S
C351 C352 1.369 . S
C351 C353 1.419 . S
C351 H355 0.930 . S
C352 C351 1.369 . S
C352 C361 1.429 . S
C353 C351 1.419 . S
C353 C354 1.363 . S
C353 H356 0.929 . S
C354 C353 1.363 . S
C354 C360 1.428 . S
H355 C351 0.930 . S
H356 C353 0.929 . S
S357 N358 1.613 . S
S357 N359 1.610 . S
N358 S357 1.613 . S
N358 C361 1.350 . S
N359 S357 1.610 . S
N359 C360 1.351 . S
C360 C354 1.428 . S
C360 N359 1.351 . S
C360 C361 1.434 . S
C361 C352 1.429 . S
C361 N358 1.350 . S
C361 C360 1.434 . S
C362 C363 1.369 . S
C362 C364 1.419 . S
C362 H366 0.930 . S
C363 C362 1.369 . S
C363 C372 1.429 . S
C364 C362 1.419 . S
C364 C365 1.363 . S
C364 H367 0.929 . S
C365 C364 1.363 . S
C365 C371 1.428 . S
H366 C362 0.930 . S
H367 C364 0.929 . S
S368 N369 1.613 . S
S368 N370 1.610 . S
N369 S368 1.613 . S
N369 C372 1.350 . S
N370 S368 1.610 . S
N370 C371 1.351 . S
C371 C365 1.428 . S
C371 N370 1.351 . S
C371 C372 1.434 . S
C372 C363 1.429 . S
C372 N369 1.350 . S
C372 C371 1.434 . S
C373 C374 1.369 . S
C373 C375 1.419 . S
C373 H377 0.930 . S
C374 C373 1.369 . S
C374 C383 1.429 . S
C375 C373 1.419 . S
C375 C376 1.363 . S
C375 H378 0.929 . S
C376 C375 1.363 . S
C376 C382 1.428 . S
H377 C373 0.930 . S
H378 C375 0.929 . S
S379 N380 1.613 . S
S379 N381 1.610 . S
N380 S379 1.613 . S
N380 C383 1.350 . S
N381 S379 1.610 . S
N381 C382 1.351 . S
C382 C376 1.428 . S
C382 N381 1.351 . S
C382 C383 1.434 . S
C383 C374 1.429 . S
C383 N380 1.350 . S
C383 C382 1.434 . S
C384 C385 1.369 . S
C384 C386 1.419 . S
C384 H388 0.930 . S
C385 C384 1.369 . S
C385 C394 1.429 . S
C386 C384 1.419 . S
C386 C387 1.363 . S
C386 H389 0.929 . S
C387 C386 1.363 . S
C387 C393 1.428 . S
H388 C384 0.930 . S
H389 C386 0.929 . S
S390 N391 1.613 . S
S390 N392 1.610 . S
N391 S390 1.613 . S
N391 C394 1.350 . S
N392 S390 1.610 . S
N392 C393 1.351 . S
C393 C387 1.428 . S
C393 N392 1.351 . S
C393 C394 1.434 . S
C394 C385 1.429 . S
C394 N391 1.350 . S
C394 C393 1.434 . S
C395 C396 1.369 . S
C395 C397 1.419 . S
C395 H399 0.930 . S
C396 C395 1.369 . S
C396 C405 1.429 . S
C397 C395 1.419 . S
C397 C398 1.363 . S
C397 H400 0.929 . S
C398 C397 1.363 . S
C398 C404 1.428 . S
H399 C395 0.930 . S
H400 C397 0.929 . S
S401 N402 1.613 . S
S401 N403 1.610 . S
N402 S401 1.613 . S
N402 C405 1.350 . S
N403 S401 1.610 . S
N403 C404 1.351 . S
C404 C398 1.428 . S
C404 N403 1.351 . S
C404 C405 1.434 . S
C405 C396 1.429 . S
C405 N402 1.350 . S
C405 C404 1.434 . S
C406 C407 1.369 . S
C406 C408 1.419 . S
C406 H410 0.930 . S
C407 C406 1.369 . S
C407 C416 1.429 . S
C408 C406 1.419 . S
C408 C409 1.363 . S
C408 H411 0.929 . S
C409 C408 1.363 . S
C409 C415 1.428 . S
H410 C406 0.930 . S
H411 C408 0.929 . S
S412 N413 1.613 . S
S412 N414 1.610 . S
N413 S412 1.613 . S
N413 C416 1.350 . S
N414 S412 1.610 . S
N414 C415 1.351 . S
C415 C409 1.428 . S
C415 N414 1.351 . S
C415 C416 1.434 . S
C416 C407 1.429 . S
C416 N413 1.350 . S
C416 C415 1.434 . S
C417 C418 1.369 . S
C417 C419 1.419 . S
C417 H421 0.930 . S
C418 C417 1.369 . S
C418 C427 1.429 . S
C419 C417 1.419 . S
C419 C420 1.363 . S
C419 H422 0.929 . S
C420 C419 1.363 . S
C420 C426 1.428 . S
H421 C417 0.930 . S
H422 C419 0.929 . S
S423 N424 1.613 . S
S423 N425 1.610 . S
N424 S423 1.613 . S
N424 C427 1.350 . S
N425 S423 1.610 . S
N425 C426 1.351 . S
C426 C420 1.428 . S
C426 N425 1.351 . S
C426 C427 1.434 . S
C427 C418 1.429 . S
C427 N424 1.350 . S
C427 C426 1.434 . S
C428 C429 1.369 . S
C428 C430 1.419 . S
C428 H432 0.930 . S
C429 C428 1.369 . S
C429 C438 1.429 . S
C430 C428 1.419 . S
C430 C431 1.363 . S
C430 H433 0.929 . S
C431 C430 1.363 . S
C431 C437 1.428 . S
H432 C428 0.930 . S
H433 C430 0.929 . S
S434 N435 1.613 . S
S434 N436 1.610 . S
N435 S434 1.613 . S
N435 C438 1.350 . S
N436 S434 1.610 . S
N436 C437 1.351 . S
C437 C431 1.428 . S
C437 N436 1.351 . S
C437 C438 1.434 . S
C438 C429 1.429 . S
C438 N435 1.350 . S
C438 C437 1.434 . S
C439 C440 1.369 . S
C439 C441 1.419 . S
C439 H443 0.930 . S
C440 C439 1.369 . S
C440 C449 1.429 . S
C441 C439 1.419 . S
C441 C442 1.363 . S
C441 H444 0.929 . S
C442 C441 1.363 . S
C442 C448 1.428 . S
H443 C439 0.930 . S
H444 C441 0.929 . S
S445 N446 1.613 . S
S445 N447 1.610 . S
N446 S445 1.613 . S
N446 C449 1.350 . S
N447 S445 1.610 . S
N447 C448 1.351 . S
C448 C442 1.428 . S
C448 N447 1.351 . S
C448 C449 1.434 . S
C449 C440 1.429 . S
C449 N446 1.350 . S
C449 C448 1.434 . S
C187 C14 1.523 . S
C189 C109 1.554 . S
C198 C25 1.526 . S
C200 C122 1.559 . S
C211 C144 1.514 . S
C209 C43 1.517 . S
C222 C157 1.518 . S
C220 C62 1.525 . S
C233 C170 1.512 . S
C231 C80 1.519 . S
C244 C183 1.513 . S
C242 C97 1.513 . S
C253 C32 1.517 . S
C255 C139 1.506 . S
C264 C50 1.519 . S
C266 C152 1.509 . S
C277 C165 1.503 . S
C275 C70 1.508 . S
C288 C178 1.510 . S
C286 C88 1.516 . S
C297 C104 1.515 . S
C299 C111 1.553 . S
C310 C124 1.557 . S
C308 C7 1.517 . S
C321 C150 1.500 . S
C319 C8 1.519 . S
C330 C34 1.505 . S
C332 C163 1.498 . S
C343 C176 1.499 . S
C341 C52 1.505 . S
C352 C68 1.523 . S
C354 C113 1.556 . S
C363 C86 1.520 . S
C365 C126 1.556 . S
C374 C106 1.518 . S
C376 C137 1.505 . S
C385 C26 1.526 . S
C387 C174 1.519 . S
C398 C118 1.566 . S
C396 C44 1.536 . S
C407 C61 1.529 . S
C409 C131 1.565 . S
C418 C79 1.529 . S
C420 C135 1.525 . S
C429 C98 1.531 . S
C431 C148 1.519 . S
C440 C16 1.514 . S
C442 C161 1.517 . S
